# Generated by pormake.
# Topology rho, (4)-cn, num edge types: 1
# Building blocks:
#     Node 0, Type 0, BuildingBlock: CEKHIL_clean_sbu_0, # of connection points: 4
#     Node 1, Type 0, BuildingBlock: CEKHIL_clean_sbu_0, # of connection points: 4
#     Node 2, Type 0, BuildingBlock: CEKHIL_clean_sbu_0, # of connection points: 4
#     Node 3, Type 0, BuildingBlock: CEKHIL_clean_sbu_0, # of connection points: 4
#     Node 4, Type 0, BuildingBlock: CEKHIL_clean_sbu_0, # of connection points: 4
#     Node 5, Type 0, BuildingBlock: CEKHIL_clean_sbu_0, # of connection points: 4
#     Node 6, Type 0, BuildingBlock: CEKHIL_clean_sbu_0, # of connection points: 4
#     Node 7, Type 0, BuildingBlock: CEKHIL_clean_sbu_0, # of connection points: 4
#     Node 8, Type 0, BuildingBlock: CEKHIL_clean_sbu_0, # of connection points: 4
#     Node 9, Type 0, BuildingBlock: CEKHIL_clean_sbu_0, # of connection points: 4
#     Node 10, Type 0, BuildingBlock: CEKHIL_clean_sbu_0, # of connection points: 4
#     Node 11, Type 0, BuildingBlock: CEKHIL_clean_sbu_0, # of connection points: 4
#     Node 12, Type 0, BuildingBlock: CEKHIL_clean_sbu_0, # of connection points: 4
#     Node 13, Type 0, BuildingBlock: CEKHIL_clean_sbu_0, # of connection points: 4
#     Node 14, Type 0, BuildingBlock: CEKHIL_clean_sbu_0, # of connection points: 4
#     Node 15, Type 0, BuildingBlock: CEKHIL_clean_sbu_0, # of connection points: 4
#     Node 16, Type 0, BuildingBlock: CEKHIL_clean_sbu_0, # of connection points: 4
#     Node 17, Type 0, BuildingBlock: CEKHIL_clean_sbu_0, # of connection points: 4
#     Node 18, Type 0, BuildingBlock: CEKHIL_clean_sbu_0, # of connection points: 4
#     Node 19, Type 0, BuildingBlock: CEKHIL_clean_sbu_0, # of connection points: 4
#     Node 20, Type 0, BuildingBlock: CEKHIL_clean_sbu_0, # of connection points: 4
#     Node 21, Type 0, BuildingBlock: CEKHIL_clean_sbu_0, # of connection points: 4
#     Node 22, Type 0, BuildingBlock: CEKHIL_clean_sbu_0, # of connection points: 4
#     Node 23, Type 0, BuildingBlock: CEKHIL_clean_sbu_0, # of connection points: 4
#     Node 24, Type 0, BuildingBlock: CEKHIL_clean_sbu_0, # of connection points: 4
#     Node 25, Type 0, BuildingBlock: CEKHIL_clean_sbu_0, # of connection points: 4
#     Node 26, Type 0, BuildingBlock: CEKHIL_clean_sbu_0, # of connection points: 4
#     Node 27, Type 0, BuildingBlock: CEKHIL_clean_sbu_0, # of connection points: 4
#     Node 28, Type 0, BuildingBlock: CEKHIL_clean_sbu_0, # of connection points: 4
#     Node 29, Type 0, BuildingBlock: CEKHIL_clean_sbu_0, # of connection points: 4
#     Node 30, Type 0, BuildingBlock: CEKHIL_clean_sbu_0, # of connection points: 4
#     Node 31, Type 0, BuildingBlock: CEKHIL_clean_sbu_0, # of connection points: 4
#     Node 32, Type 0, BuildingBlock: CEKHIL_clean_sbu_0, # of connection points: 4
#     Node 33, Type 0, BuildingBlock: CEKHIL_clean_sbu_0, # of connection points: 4
#     Node 34, Type 0, BuildingBlock: CEKHIL_clean_sbu_0, # of connection points: 4
#     Node 35, Type 0, BuildingBlock: CEKHIL_clean_sbu_0, # of connection points: 4
#     Node 36, Type 0, BuildingBlock: CEKHIL_clean_sbu_0, # of connection points: 4
#     Node 37, Type 0, BuildingBlock: CEKHIL_clean_sbu_0, # of connection points: 4
#     Node 38, Type 0, BuildingBlock: CEKHIL_clean_sbu_0, # of connection points: 4
#     Node 39, Type 0, BuildingBlock: CEKHIL_clean_sbu_0, # of connection points: 4
#     Node 40, Type 0, BuildingBlock: CEKHIL_clean_sbu_0, # of connection points: 4
#     Node 41, Type 0, BuildingBlock: CEKHIL_clean_sbu_0, # of connection points: 4
#     Node 42, Type 0, BuildingBlock: CEKHIL_clean_sbu_0, # of connection points: 4
#     Node 43, Type 0, BuildingBlock: CEKHIL_clean_sbu_0, # of connection points: 4
#     Node 44, Type 0, BuildingBlock: CEKHIL_clean_sbu_0, # of connection points: 4
#     Node 45, Type 0, BuildingBlock: CEKHIL_clean_sbu_0, # of connection points: 4
#     Node 46, Type 0, BuildingBlock: CEKHIL_clean_sbu_0, # of connection points: 4
#     Node 47, Type 0, BuildingBlock: CEKHIL_clean_sbu_0, # of connection points: 4
#     Edge 48, Type (0, 0), BuildingBlock: UVAHIK_clean_linker_0, # of connection points: 2
#     Edge 49, Type (0, 0), BuildingBlock: UVAHIK_clean_linker_0, # of connection points: 2
#     Edge 50, Type (0, 0), BuildingBlock: UVAHIK_clean_linker_0, # of connection points: 2
#     Edge 51, Type (0, 0), BuildingBlock: UVAHIK_clean_linker_0, # of connection points: 2
#     Edge 52, Type (0, 0), BuildingBlock: UVAHIK_clean_linker_0, # of connection points: 2
#     Edge 53, Type (0, 0), BuildingBlock: UVAHIK_clean_linker_0, # of connection points: 2
#     Edge 54, Type (0, 0), BuildingBlock: UVAHIK_clean_linker_0, # of connection points: 2
#     Edge 55, Type (0, 0), BuildingBlock: UVAHIK_clean_linker_0, # of connection points: 2
#     Edge 56, Type (0, 0), BuildingBlock: UVAHIK_clean_linker_0, # of connection points: 2
#     Edge 57, Type (0, 0), BuildingBlock: UVAHIK_clean_linker_0, # of connection points: 2
#     Edge 58, Type (0, 0), BuildingBlock: UVAHIK_clean_linker_0, # of connection points: 2
#     Edge 59, Type (0, 0), BuildingBlock: UVAHIK_clean_linker_0, # of connection points: 2
#     Edge 60, Type (0, 0), BuildingBlock: UVAHIK_clean_linker_0, # of connection points: 2
#     Edge 61, Type (0, 0), BuildingBlock: UVAHIK_clean_linker_0, # of connection points: 2
#     Edge 62, Type (0, 0), BuildingBlock: UVAHIK_clean_linker_0, # of connection points: 2
#     Edge 63, Type (0, 0), BuildingBlock: UVAHIK_clean_linker_0, # of connection points: 2
#     Edge 64, Type (0, 0), BuildingBlock: UVAHIK_clean_linker_0, # of connection points: 2
#     Edge 65, Type (0, 0), BuildingBlock: UVAHIK_clean_linker_0, # of connection points: 2
#     Edge 66, Type (0, 0), BuildingBlock: UVAHIK_clean_linker_0, # of connection points: 2
#     Edge 67, Type (0, 0), BuildingBlock: UVAHIK_clean_linker_0, # of connection points: 2
#     Edge 68, Type (0, 0), BuildingBlock: UVAHIK_clean_linker_0, # of connection points: 2
#     Edge 69, Type (0, 0), BuildingBlock: UVAHIK_clean_linker_0, # of connection points: 2
#     Edge 70, Type (0, 0), BuildingBlock: UVAHIK_clean_linker_0, # of connection points: 2
#     Edge 71, Type (0, 0), BuildingBlock: UVAHIK_clean_linker_0, # of connection points: 2
#     Edge 72, Type (0, 0), BuildingBlock: UVAHIK_clean_linker_0, # of connection points: 2
#     Edge 73, Type (0, 0), BuildingBlock: UVAHIK_clean_linker_0, # of connection points: 2
#     Edge 74, Type (0, 0), BuildingBlock: UVAHIK_clean_linker_0, # of connection points: 2
#     Edge 75, Type (0, 0), BuildingBlock: UVAHIK_clean_linker_0, # of connection points: 2
#     Edge 76, Type (0, 0), BuildingBlock: UVAHIK_clean_linker_0, # of connection points: 2
#     Edge 77, Type (0, 0), BuildingBlock: UVAHIK_clean_linker_0, # of connection points: 2
#     Edge 78, Type (0, 0), BuildingBlock: UVAHIK_clean_linker_0, # of connection points: 2
#     Edge 79, Type (0, 0), BuildingBlock: UVAHIK_clean_linker_0, # of connection points: 2
#     Edge 80, Type (0, 0), BuildingBlock: UVAHIK_clean_linker_0, # of connection points: 2
#     Edge 81, Type (0, 0), BuildingBlock: UVAHIK_clean_linker_0, # of connection points: 2
#     Edge 82, Type (0, 0), BuildingBlock: UVAHIK_clean_linker_0, # of connection points: 2
#     Edge 83, Type (0, 0), BuildingBlock: UVAHIK_clean_linker_0, # of connection points: 2
#     Edge 84, Type (0, 0), BuildingBlock: UVAHIK_clean_linker_0, # of connection points: 2
#     Edge 85, Type (0, 0), BuildingBlock: UVAHIK_clean_linker_0, # of connection points: 2
#     Edge 86, Type (0, 0), BuildingBlock: UVAHIK_clean_linker_0, # of connection points: 2
#     Edge 87, Type (0, 0), BuildingBlock: UVAHIK_clean_linker_0, # of connection points: 2
#     Edge 88, Type (0, 0), BuildingBlock: UVAHIK_clean_linker_0, # of connection points: 2
#     Edge 89, Type (0, 0), BuildingBlock: UVAHIK_clean_linker_0, # of connection points: 2
#     Edge 90, Type (0, 0), BuildingBlock: UVAHIK_clean_linker_0, # of connection points: 2
#     Edge 91, Type (0, 0), BuildingBlock: UVAHIK_clean_linker_0, # of connection points: 2
#     Edge 92, Type (0, 0), BuildingBlock: UVAHIK_clean_linker_0, # of connection points: 2
#     Edge 93, Type (0, 0), BuildingBlock: UVAHIK_clean_linker_0, # of connection points: 2
#     Edge 94, Type (0, 0), BuildingBlock: UVAHIK_clean_linker_0, # of connection points: 2
#     Edge 95, Type (0, 0), BuildingBlock: UVAHIK_clean_linker_0, # of connection points: 2
#     Edge 96, Type (0, 0), BuildingBlock: UVAHIK_clean_linker_0, # of connection points: 2
#     Edge 97, Type (0, 0), BuildingBlock: UVAHIK_clean_linker_0, # of connection points: 2
#     Edge 98, Type (0, 0), BuildingBlock: UVAHIK_clean_linker_0, # of connection points: 2
#     Edge 99, Type (0, 0), BuildingBlock: UVAHIK_clean_linker_0, # of connection points: 2
#     Edge 100, Type (0, 0), BuildingBlock: UVAHIK_clean_linker_0, # of connection points: 2
#     Edge 101, Type (0, 0), BuildingBlock: UVAHIK_clean_linker_0, # of connection points: 2
#     Edge 102, Type (0, 0), BuildingBlock: UVAHIK_clean_linker_0, # of connection points: 2
#     Edge 103, Type (0, 0), BuildingBlock: UVAHIK_clean_linker_0, # of connection points: 2
#     Edge 104, Type (0, 0), BuildingBlock: UVAHIK_clean_linker_0, # of connection points: 2
#     Edge 105, Type (0, 0), BuildingBlock: UVAHIK_clean_linker_0, # of connection points: 2
#     Edge 106, Type (0, 0), BuildingBlock: UVAHIK_clean_linker_0, # of connection points: 2
#     Edge 107, Type (0, 0), BuildingBlock: UVAHIK_clean_linker_0, # of connection points: 2
#     Edge 108, Type (0, 0), BuildingBlock: UVAHIK_clean_linker_0, # of connection points: 2
#     Edge 109, Type (0, 0), BuildingBlock: UVAHIK_clean_linker_0, # of connection points: 2
#     Edge 110, Type (0, 0), BuildingBlock: UVAHIK_clean_linker_0, # of connection points: 2
#     Edge 111, Type (0, 0), BuildingBlock: UVAHIK_clean_linker_0, # of connection points: 2
#     Edge 112, Type (0, 0), BuildingBlock: UVAHIK_clean_linker_0, # of connection points: 2
#     Edge 113, Type (0, 0), BuildingBlock: UVAHIK_clean_linker_0, # of connection points: 2
#     Edge 114, Type (0, 0), BuildingBlock: UVAHIK_clean_linker_0, # of connection points: 2
#     Edge 115, Type (0, 0), BuildingBlock: UVAHIK_clean_linker_0, # of connection points: 2
#     Edge 116, Type (0, 0), BuildingBlock: UVAHIK_clean_linker_0, # of connection points: 2
#     Edge 117, Type (0, 0), BuildingBlock: UVAHIK_clean_linker_0, # of connection points: 2
#     Edge 118, Type (0, 0), BuildingBlock: UVAHIK_clean_linker_0, # of connection points: 2
#     Edge 119, Type (0, 0), BuildingBlock: UVAHIK_clean_linker_0, # of connection points: 2
#     Edge 120, Type (0, 0), BuildingBlock: UVAHIK_clean_linker_0, # of connection points: 2
#     Edge 121, Type (0, 0), BuildingBlock: UVAHIK_clean_linker_0, # of connection points: 2
#     Edge 122, Type (0, 0), BuildingBlock: UVAHIK_clean_linker_0, # of connection points: 2
#     Edge 123, Type (0, 0), BuildingBlock: UVAHIK_clean_linker_0, # of connection points: 2
#     Edge 124, Type (0, 0), BuildingBlock: UVAHIK_clean_linker_0, # of connection points: 2
#     Edge 125, Type (0, 0), BuildingBlock: UVAHIK_clean_linker_0, # of connection points: 2
#     Edge 126, Type (0, 0), BuildingBlock: UVAHIK_clean_linker_0, # of connection points: 2
#     Edge 127, Type (0, 0), BuildingBlock: UVAHIK_clean_linker_0, # of connection points: 2
#     Edge 128, Type (0, 0), BuildingBlock: UVAHIK_clean_linker_0, # of connection points: 2
#     Edge 129, Type (0, 0), BuildingBlock: UVAHIK_clean_linker_0, # of connection points: 2
#     Edge 130, Type (0, 0), BuildingBlock: UVAHIK_clean_linker_0, # of connection points: 2
#     Edge 131, Type (0, 0), BuildingBlock: UVAHIK_clean_linker_0, # of connection points: 2
#     Edge 132, Type (0, 0), BuildingBlock: UVAHIK_clean_linker_0, # of connection points: 2
#     Edge 133, Type (0, 0), BuildingBlock: UVAHIK_clean_linker_0, # of connection points: 2
#     Edge 134, Type (0, 0), BuildingBlock: UVAHIK_clean_linker_0, # of connection points: 2
#     Edge 135, Type (0, 0), BuildingBlock: UVAHIK_clean_linker_0, # of connection points: 2
#     Edge 136, Type (0, 0), BuildingBlock: UVAHIK_clean_linker_0, # of connection points: 2
#     Edge 137, Type (0, 0), BuildingBlock: UVAHIK_clean_linker_0, # of connection points: 2
#     Edge 138, Type (0, 0), BuildingBlock: UVAHIK_clean_linker_0, # of connection points: 2
#     Edge 139, Type (0, 0), BuildingBlock: UVAHIK_clean_linker_0, # of connection points: 2
#     Edge 140, Type (0, 0), BuildingBlock: UVAHIK_clean_linker_0, # of connection points: 2
#     Edge 141, Type (0, 0), BuildingBlock: UVAHIK_clean_linker_0, # of connection points: 2
#     Edge 142, Type (0, 0), BuildingBlock: UVAHIK_clean_linker_0, # of connection points: 2
#     Edge 143, Type (0, 0), BuildingBlock: UVAHIK_clean_linker_0, # of connection points: 2
# Relax obj value: 0.077
# Max RMSD: 0.091
# Mean RMSD: 0.084
data_MOF--net-rho--node1-CEKHIL_clean_sbu_0--edge1-UVAHIK_clean_linker_0
_symmetry_space_group_name_H-M    P1
_symmetry_Int_Tables_number       1
_symmetry_cell_setting            triclinic
loop_
_symmetry_equiv_pos_as_xyz
'x, y, z'
_cell_length_a     93.081837
_cell_length_b     92.312104
_cell_length_c     92.290253
_cell_angle_alpha  90.200139
_cell_angle_beta   90.029278
_cell_angle_gamma 90.651576
loop_
_atom_site_label
_atom_site_type_symbol
_atom_site_fract_x
_atom_site_fract_y
_atom_site_fract_z
_atom_type_partial_charge
Co0 Co 0.10625 0.2472 0.39044 0.0
O1 O 0.1259 0.24109 0.39124 0.0
O2 O 0.10691 0.22638 0.39184 0.0
C3 C 0.10875 0.26299 0.3721 0.0
O4 O 0.08457 0.2493 0.38925 0.0
Co5 Co 0.09779 0.27904 0.39687 0.0
O6 O 0.07876 0.27286 0.38916 0.0
C7 C 0.10624 0.2599 0.42085 0.0
C8 C 0.12081 0.22795 0.39205 0.0
C9 C 0.07537 0.2595 0.38782 0.0
O10 O 0.1059 0.24896 0.41219 0.0
O11 O 0.1045 0.27296 0.41659 0.0
O12 O 0.10734 0.2492 0.36942 0.0
O13 O 0.11006 0.26651 0.38559 0.0
Co14 Co 0.74911 0.1 0.39005 0.0
O15 O 0.7433 0.09869 0.37019 0.0
O16 O 0.72841 0.09805 0.38891 0.0
C17 C 0.76438 0.11879 0.38715 0.0
O18 O 0.75136 0.10169 0.412 0.0
Co19 Co 0.78094 0.09454 0.39833 0.0
O20 O 0.775 0.10392 0.41672 0.0
C21 C 0.76211 0.06989 0.39043 0.0
C22 C 0.73021 0.09775 0.37492 0.0
C23 C 0.76189 0.10459 0.42065 0.0
O24 O 0.75121 0.07833 0.39068 0.0
O25 O 0.77506 0.07445 0.39215 0.0
O26 O 0.7507 0.12105 0.38863 0.0
O27 O 0.76807 0.10539 0.38612 0.0
Co28 Co 0.8869 0.74588 0.39203 0.0
O29 O 0.86718 0.75171 0.39282 0.0
O30 O 0.88593 0.76672 0.3937 0.0
C31 C 0.88455 0.73018 0.37348 0.0
O32 O 0.90865 0.74396 0.39095 0.0
Co33 Co 0.89543 0.714 0.3981 0.0
O34 O 0.91438 0.72037 0.39043 0.0
C35 C 0.88684 0.73299 0.42227 0.0
C36 C 0.87204 0.76492 0.39383 0.0
C37 C 0.91782 0.73374 0.38936 0.0
O38 O 0.88719 0.74399 0.41376 0.0
O39 O 0.88861 0.71996 0.41785 0.0
O40 O 0.8859 0.74399 0.37097 0.0
O41 O 0.88324 0.7266 0.38692 0.0
Co42 Co 0.24759 0.89184 0.38962 0.0
O43 O 0.25508 0.89194 0.37025 0.0
O44 O 0.26833 0.89369 0.39015 0.0
C45 C 0.23226 0.87307 0.38655 0.0
O46 O 0.2437 0.89156 0.41138 0.0
Co47 Co 0.21531 0.89803 0.39524 0.0
O48 O 0.21981 0.89105 0.41502 0.0
C49 C 0.23487 0.92198 0.38729 0.0
C50 C 0.26773 0.89331 0.37606 0.0
C51 C 0.23266 0.8902 0.41971 0.0
O52 O 0.24567 0.91355 0.38887 0.0
O53 O 0.22181 0.9176 0.38828 0.0
O54 O 0.24575 0.87071 0.3892 0.0
O55 O 0.2289 0.88643 0.38454 0.0
Co56 Co 0.10523 0.74201 0.6002 0.0
O57 O 0.12525 0.74731 0.59984 0.0
O58 O 0.10728 0.76284 0.59937 0.0
C59 C 0.10656 0.72579 0.61827 0.0
O60 O 0.08337 0.74061 0.60108 0.0
Co61 Co 0.09547 0.71067 0.59255 0.0
O62 O 0.07701 0.71704 0.60108 0.0
C63 C 0.10449 0.73037 0.56918 0.0
C64 C 0.12107 0.76067 0.59938 0.0
C65 C 0.07396 0.73039 0.60261 0.0
O66 O 0.10507 0.74085 0.5784 0.0
O67 O 0.10187 0.71723 0.57281 0.0
O68 O 0.1059 0.73956 0.62114 0.0
O69 O 0.10794 0.72246 0.60473 0.0
Co70 Co 0.25042 0.10483 0.60239 0.0
O71 O 0.24342 0.12432 0.6022 0.0
O72 O 0.22968 0.10457 0.60156 0.0
C73 C 0.26648 0.10795 0.62035 0.0
O74 O 0.25362 0.08307 0.60315 0.0
Co75 Co 0.28228 0.09793 0.59518 0.0
O76 O 0.27726 0.07839 0.60266 0.0
C77 C 0.26227 0.10601 0.57181 0.0
C78 C 0.2306 0.11864 0.60174 0.0
C79 C 0.26423 0.07431 0.60425 0.0
O80 O 0.25159 0.10488 0.58059 0.0
O81 O 0.27538 0.10487 0.57585 0.0
O82 O 0.25299 0.10576 0.62337 0.0
O83 O 0.26948 0.10956 0.6068 0.0
Co84 Co 0.89006 0.24868 0.60022 0.0
O85 O 0.86997 0.24396 0.59909 0.0
O86 O 0.88755 0.22802 0.5977 0.0
C87 C 0.88855 0.26343 0.61957 0.0
O88 O 0.9119 0.24951 0.60161 0.0
Co89 Co 0.90058 0.28017 0.59533 0.0
O90 O 0.91866 0.27285 0.6039 0.0
C91 C 0.89183 0.26249 0.57021 0.0
C92 C 0.87382 0.23056 0.59774 0.0
C93 C 0.92144 0.25937 0.60432 0.0
O94 O 0.89067 0.25145 0.57861 0.0
O95 O 0.89478 0.27526 0.57488 0.0
O96 O 0.88904 0.24948 0.62126 0.0
O97 O 0.88757 0.26788 0.60633 0.0
Co98 Co 0.74776 0.88876 0.6043 0.0
O99 O 0.75537 0.86955 0.60311 0.0
O100 O 0.76836 0.88978 0.60189 0.0
C101 C 0.7332 0.88487 0.62337 0.0
O102 O 0.74383 0.91036 0.60566 0.0
Co103 Co 0.71518 0.89443 0.59969 0.0
O104 O 0.72005 0.91407 0.60713 0.0
C105 C 0.73366 0.88767 0.57463 0.0
C106 C 0.76791 0.8757 0.6017 0.0
C107 C 0.733 0.91868 0.60768 0.0
O108 O 0.74493 0.88888 0.58265 0.0
O109 O 0.72085 0.88832 0.57964 0.0
O110 O 0.7468 0.88753 0.62545 0.0
O111 O 0.7293 0.88327 0.61004 0.0
Co112 Co 0.38785 0.10245 0.24151 0.0
O113 O 0.36785 0.10156 0.24628 0.0
O114 O 0.38564 0.09969 0.26214 0.0
C115 C 0.3866 0.122 0.22721 0.0
O116 O 0.40966 0.10348 0.24048 0.0
Co117 Co 0.39754 0.0979 0.20973 0.0
O118 O 0.41635 0.10506 0.21713 0.0
C119 C 0.38825 0.07275 0.22701 0.0
C120 C 0.37188 0.09996 0.25963 0.0
C121 C 0.41926 0.10549 0.23062 0.0
O122 O 0.38786 0.08089 0.23832 0.0
O123 O 0.39079 0.07765 0.21429 0.0
O124 O 0.38738 0.1235 0.24118 0.0
O125 O 0.38516 0.10885 0.22249 0.0
Co126 Co 0.88811 0.39369 0.24924 0.0
O127 O 0.86838 0.39311 0.24298 0.0
O128 O 0.88718 0.39526 0.2284 0.0
C129 C 0.88673 0.37496 0.26472 0.0
O130 O 0.90985 0.39392 0.25138 0.0
Co131 Co 0.89661 0.40016 0.28116 0.0
O132 O 0.91588 0.39353 0.27495 0.0
C133 C 0.8872 0.42401 0.26234 0.0
C134 C 0.87332 0.39425 0.22986 0.0
C135 C 0.9192 0.39273 0.26157 0.0
O136 O 0.88732 0.41541 0.25133 0.0
O137 O 0.88952 0.41976 0.27532 0.0
O138 O 0.88819 0.37263 0.25091 0.0
O139 O 0.88473 0.38827 0.26849 0.0
Co140 Co 0.60405 0.89192 0.24305 0.0
O141 O 0.62383 0.89331 0.24862 0.0
O142 O 0.60546 0.89487 0.26379 0.0
C143 C 0.60634 0.87226 0.22886 0.0
O144 O 0.58225 0.89035 0.24106 0.0
Co145 Co 0.59583 0.8962 0.21088 0.0
O146 O 0.57742 0.88732 0.21736 0.0
C147 C 0.60338 0.92168 0.22862 0.0
C148 C 0.61931 0.89491 0.2618 0.0
C149 C 0.57357 0.8872 0.23061 0.0
O150 O 0.6037 0.91346 0.23983 0.0
O151 O 0.60137 0.91679 0.21576 0.0
O152 O 0.605 0.87089 0.2428 0.0
O153 O 0.60772 0.8854 0.22418 0.0
Co154 Co 0.10697 0.60011 0.25039 0.0
O155 O 0.12674 0.60069 0.24427 0.0
O156 O 0.10801 0.59897 0.22952 0.0
C157 C 0.1083 0.61846 0.26644 0.0
O158 O 0.0852 0.59996 0.25237 0.0
Co159 Co 0.09821 0.59292 0.28203 0.0
O160 O 0.07906 0.59992 0.2759 0.0
C161 C 0.10748 0.56943 0.26255 0.0
C162 C 0.12188 0.59983 0.23109 0.0
C163 C 0.07581 0.60103 0.26253 0.0
O164 O 0.10763 0.57834 0.25185 0.0
O165 O 0.10501 0.57335 0.27563 0.0
O166 O 0.10698 0.62112 0.25268 0.0
O167 O 0.11023 0.60505 0.26981 0.0
Co168 Co 0.38883 0.89087 0.74827 0.0
O169 O 0.36913 0.89022 0.74197 0.0
O170 O 0.38795 0.89224 0.7274 0.0
C171 C 0.38731 0.87233 0.76401 0.0
O172 O 0.41058 0.89114 0.75053 0.0
Co173 Co 0.39717 0.89745 0.78029 0.0
O174 O 0.4165 0.89097 0.77414 0.0
C175 C 0.38732 0.92106 0.76132 0.0
C176 C 0.37407 0.89126 0.72885 0.0
C177 C 0.41988 0.89007 0.76079 0.0
O178 O 0.38797 0.91263 0.7502 0.0
O179 O 0.3894 0.9167 0.77431 0.0
O180 O 0.3889 0.86977 0.75024 0.0
O181 O 0.38535 0.88569 0.76751 0.0
Co182 Co 0.10422 0.39234 0.74199 0.0
O183 O 0.12422 0.39344 0.74687 0.0
O184 O 0.10635 0.39477 0.76268 0.0
C185 C 0.10572 0.37309 0.72718 0.0
O186 O 0.08238 0.39097 0.74095 0.0
Co187 Co 0.09445 0.39756 0.71045 0.0
O188 O 0.07617 0.38882 0.7175 0.0
C189 C 0.10319 0.42247 0.72842 0.0
C190 C 0.12012 0.39476 0.76024 0.0
C191 C 0.07307 0.38828 0.73095 0.0
O192 O 0.10394 0.41395 0.73937 0.0
O193 O 0.10045 0.41797 0.71556 0.0
O194 O 0.10499 0.37134 0.74112 0.0
O195 O 0.107 0.38634 0.72279 0.0
Co196 Co 0.60503 0.10102 0.74931 0.0
O197 O 0.6248 0.10002 0.74337 0.0
O198 O 0.60612 0.09932 0.72848 0.0
C199 C 0.60758 0.11961 0.76497 0.0
O200 O 0.5833 0.10244 0.75118 0.0
Co201 Co 0.59588 0.09518 0.78115 0.0
O202 O 0.57755 0.10393 0.77478 0.0
C203 C 0.60389 0.07072 0.76229 0.0
C204 C 0.61999 0.09912 0.73018 0.0
C205 C 0.57422 0.1048 0.76142 0.0
O206 O 0.60424 0.07928 0.7513 0.0
O207 O 0.60182 0.07516 0.77528 0.0
O208 O 0.60648 0.12208 0.75116 0.0
O209 O 0.60858 0.10617 0.7686 0.0
Co210 Co 0.88726 0.60215 0.74215 0.0
O211 O 0.86747 0.60066 0.74775 0.0
O212 O 0.88599 0.5988 0.76273 0.0
C213 C 0.88507 0.62199 0.72836 0.0
O214 O 0.90899 0.60366 0.7404 0.0
Co215 Co 0.89614 0.59867 0.71001 0.0
O216 O 0.91515 0.60575 0.71695 0.0
C217 C 0.88795 0.57286 0.72689 0.0
C218 C 0.87214 0.59875 0.76085 0.0
C219 C 0.91836 0.60592 0.73038 0.0
O220 O 0.88763 0.5807 0.73841 0.0
O221 O 0.89006 0.57813 0.71424 0.0
O222 O 0.88631 0.62319 0.74234 0.0
O223 O 0.88378 0.60892 0.72339 0.0
Co224 Co 0.24623 0.38762 0.10215 0.0
O225 O 0.25382 0.3684 0.1023 0.0
O226 O 0.26691 0.3885 0.10024 0.0
C227 C 0.23127 0.38479 0.12104 0.0
O228 O 0.24223 0.40924 0.10229 0.0
Co229 Co 0.21379 0.39278 0.09622 0.0
O230 O 0.21836 0.41268 0.10312 0.0
C231 C 0.23298 0.38465 0.07219 0.0
C232 C 0.26642 0.37443 0.101 0.0
C233 C 0.23124 0.41747 0.10384 0.0
O234 O 0.24398 0.38654 0.08046 0.0
O235 O 0.22002 0.38542 0.07676 0.0
O236 O 0.24482 0.38757 0.12326 0.0
O237 O 0.22764 0.38241 0.10774 0.0
Co238 Co 0.24961 0.60041 0.88864 0.0
O239 O 0.24369 0.60051 0.86876 0.0
O240 O 0.22887 0.59903 0.88749 0.0
C241 C 0.26533 0.61896 0.88686 0.0
O242 O 0.2519 0.60064 0.91063 0.0
Co243 Co 0.28128 0.59364 0.89647 0.0
O244 O 0.27552 0.601 0.91581 0.0
C245 C 0.26186 0.57004 0.88704 0.0
C246 C 0.23061 0.59959 0.8735 0.0
C247 C 0.26241 0.60202 0.91965 0.0
O248 O 0.25115 0.57869 0.88793 0.0
O249 O 0.27491 0.57419 0.88887 0.0
O250 O 0.25171 0.62147 0.88853 0.0
O251 O 0.2687 0.60556 0.88499 0.0
Co252 Co 0.38745 0.24879 0.88983 0.0
O253 O 0.36805 0.25536 0.89118 0.0
O254 O 0.38741 0.26947 0.89312 0.0
C255 C 0.38426 0.23475 0.87013 0.0
O256 O 0.40905 0.24596 0.88851 0.0
Co257 Co 0.39451 0.21613 0.89321 0.0
O258 O 0.41387 0.22223 0.8864 0.0
C259 C 0.38663 0.23346 0.91885 0.0
C260 C 0.37347 0.26823 0.89317 0.0
C261 C 0.41783 0.2355 0.88631 0.0
O262 O 0.38765 0.24513 0.91132 0.0
O263 O 0.38774 0.22077 0.91333 0.0
O264 O 0.38634 0.24863 0.86867 0.0
O265 O 0.38288 0.2302 0.88326 0.0
Co266 Co 0.74843 0.392 0.88897 0.0
O267 O 0.75556 0.39332 0.86952 0.0
O268 O 0.76919 0.39359 0.8892 0.0
C269 C 0.73286 0.3736 0.88493 0.0
O270 O 0.74483 0.3903 0.91072 0.0
Co271 Co 0.71626 0.39809 0.89542 0.0
O272 O 0.72095 0.38904 0.91429 0.0
C273 C 0.73605 0.42242 0.88924 0.0
C274 C 0.76833 0.39413 0.87513 0.0
C275 C 0.73382 0.388 0.91888 0.0
O276 O 0.74675 0.41373 0.88978 0.0
O277 O 0.72295 0.41814 0.89015 0.0
O278 O 0.74638 0.37096 0.88716 0.0
O279 O 0.72961 0.3871 0.88384 0.0
Co280 Co 0.60794 0.74823 0.8923 0.0
O281 O 0.62746 0.74175 0.89246 0.0
O282 O 0.60827 0.72738 0.89392 0.0
C283 C 0.61017 0.76373 0.87366 0.0
O284 O 0.58629 0.75085 0.89191 0.0
Co285 Co 0.60062 0.78047 0.89853 0.0
O286 O 0.58111 0.77458 0.89192 0.0
C287 C 0.60924 0.76136 0.92249 0.0
C288 C 0.62219 0.72871 0.89358 0.0
C289 C 0.57731 0.7613 0.89088 0.0
O290 O 0.60834 0.75028 0.91404 0.0
O291 O 0.60782 0.7744 0.91806 0.0
O292 O 0.60833 0.74995 0.87121 0.0
O293 O 0.61204 0.76736 0.88705 0.0
Co294 Co 0.74694 0.60382 0.1037 0.0
O295 O 0.73917 0.623 0.10345 0.0
O296 O 0.72627 0.6027 0.10204 0.0
C297 C 0.76222 0.60739 0.12227 0.0
O298 O 0.75101 0.58223 0.10415 0.0
Co299 Co 0.77927 0.59842 0.0975 0.0
O300 O 0.77481 0.57836 0.10389 0.0
C301 C 0.75983 0.60655 0.07371 0.0
C302 C 0.72663 0.61679 0.10223 0.0
C303 C 0.76189 0.57379 0.10506 0.0
O304 O 0.74891 0.60438 0.08198 0.0
O305 O 0.77282 0.60599 0.07823 0.0
O306 O 0.74874 0.60451 0.12481 0.0
O307 O 0.76559 0.60929 0.10886 0.0
Co308 Co 0.38958 0.74847 0.10163 0.0
O309 O 0.36972 0.74299 0.10032 0.0
O310 O 0.38784 0.7277 0.09882 0.0
C311 C 0.38733 0.76289 0.12116 0.0
O312 O 0.4114 0.75035 0.10312 0.0
Co313 Co 0.39837 0.78063 0.09719 0.0
O314 O 0.41664 0.77404 0.10593 0.0
C315 C 0.39046 0.76282 0.07186 0.0
C316 C 0.37402 0.72977 0.09876 0.0
C317 C 0.42026 0.76076 0.10613 0.0
O318 O 0.39012 0.75157 0.08004 0.0
O319 O 0.39256 0.77567 0.07677 0.0
O320 O 0.38844 0.74897 0.12272 0.0
O321 O 0.38619 0.76739 0.10797 0.0
Co322 Co 0.60479 0.24164 0.10044 0.0
O323 O 0.62491 0.24645 0.09957 0.0
O324 O 0.6073 0.2624 0.09922 0.0
C325 C 0.60623 0.22572 0.11879 0.0
O326 O 0.58294 0.24083 0.1018 0.0
Co327 Co 0.59402 0.21043 0.09373 0.0
O328 O 0.57595 0.21746 0.1026 0.0
C329 C 0.603 0.22941 0.06971 0.0
C330 C 0.62103 0.2599 0.09904 0.0
C331 C 0.5733 0.23093 0.10382 0.0
O332 O 0.60409 0.24009 0.07866 0.0
O333 O 0.60012 0.21643 0.07371 0.0
O334 O 0.60588 0.23956 0.12141 0.0
O335 O 0.60715 0.2221 0.10528 0.0
Co336 Co 0.89249 0.75168 0.60571 0.0
O337 O 0.87319 0.75857 0.60467 0.0
O338 O 0.89267 0.77252 0.60319 0.0
C339 C 0.88893 0.73706 0.62486 0.0
O340 O 0.91409 0.74831 0.60688 0.0
Co341 Co 0.89857 0.7189 0.60103 0.0
O342 O 0.91784 0.72434 0.60857 0.0
C343 C 0.89082 0.73724 0.57618 0.0
C344 C 0.87871 0.77144 0.60308 0.0
C345 C 0.92237 0.73742 0.60902 0.0
O346 O 0.89245 0.74866 0.58407 0.0
O347 O 0.89159 0.72437 0.58125 0.0
O348 O 0.89139 0.75081 0.6269 0.0
O349 O 0.8875 0.73303 0.61155 0.0
Co350 Co 0.24556 0.89107 0.60484 0.0
O351 O 0.25236 0.89005 0.62444 0.0
O352 O 0.26638 0.89196 0.60516 0.0
C353 C 0.22938 0.87282 0.60646 0.0
O354 O 0.24238 0.89169 0.58297 0.0
Co355 Co 0.21374 0.89886 0.59858 0.0
O356 O 0.21858 0.89211 0.57876 0.0
C357 C 0.23413 0.92175 0.60774 0.0
C358 C 0.26526 0.89088 0.61917 0.0
C359 C 0.2315 0.8909 0.57435 0.0
O360 O 0.24459 0.91285 0.60636 0.0
O361 O 0.22093 0.91795 0.6063 0.0
O362 O 0.24287 0.87005 0.60425 0.0
O363 O 0.22647 0.88621 0.60904 0.0
Co364 Co 0.10273 0.24165 0.60449 0.0
O365 O 0.12244 0.23589 0.6039 0.0
O366 O 0.10382 0.22077 0.60266 0.0
C367 C 0.10528 0.25712 0.62326 0.0
O368 O 0.08094 0.24368 0.60543 0.0
Co369 Co 0.09452 0.27379 0.59907 0.0
O370 O 0.07584 0.26738 0.60727 0.0
C371 C 0.1035 0.25524 0.57463 0.0
C372 C 0.11771 0.22265 0.60288 0.0
C373 C 0.07209 0.25406 0.60779 0.0
O374 O 0.10276 0.24394 0.58275 0.0
O375 O 0.10177 0.26814 0.57942 0.0
O376 O 0.10361 0.24333 0.62566 0.0
O377 O 0.10653 0.26077 0.60986 0.0
Co378 Co 0.74762 0.10271 0.60528 0.0
O379 O 0.74141 0.10187 0.62508 0.0
O380 O 0.72685 0.10143 0.60609 0.0
C381 C 0.76364 0.12093 0.60808 0.0
O382 O 0.75016 0.10399 0.58334 0.0
Co383 Co 0.77933 0.096 0.5973 0.0
O384 O 0.77388 0.10535 0.57879 0.0
C385 C 0.75952 0.07209 0.60489 0.0
C386 C 0.72838 0.10114 0.6201 0.0
C387 C 0.76083 0.10639 0.57476 0.0
O388 O 0.74893 0.08093 0.60478 0.0
O389 O 0.77262 0.07615 0.60318 0.0
O390 O 0.75007 0.12375 0.60657 0.0
O391 O 0.76674 0.10741 0.60933 0.0
Co392 Co 0.8946 0.24268 0.38588 0.0
O393 O 0.89514 0.24791 0.36578 0.0
O394 O 0.89692 0.26343 0.38409 0.0
C395 C 0.87555 0.22761 0.38427 0.0
O396 O 0.8939 0.24131 0.40791 0.0
Co397 Co 0.89968 0.2109 0.39526 0.0
O398 O 0.89245 0.21785 0.41424 0.0
C399 C 0.92423 0.22901 0.38596 0.0
C400 C 0.89654 0.26122 0.37015 0.0
C401 C 0.892 0.23129 0.41741 0.0
O402 O 0.91605 0.24014 0.3858 0.0
O403 O 0.91955 0.21614 0.38838 0.0
O404 O 0.87368 0.24151 0.38535 0.0
O405 O 0.8887 0.2235 0.38284 0.0
Co406 Co 0.7432 0.88654 0.39001 0.0
O407 O 0.74935 0.86677 0.3912 0.0
O408 O 0.76387 0.88597 0.39144 0.0
C409 C 0.72743 0.88347 0.37176 0.0
O410 O 0.74103 0.90837 0.38844 0.0
Co411 Co 0.71155 0.89517 0.39606 0.0
O412 O 0.71767 0.91423 0.38816 0.0
C413 C 0.73058 0.88727 0.42032 0.0
C414 C 0.76237 0.87196 0.39195 0.0
C415 C 0.73092 0.91762 0.38686 0.0
O416 O 0.74149 0.88739 0.41176 0.0
O417 O 0.71765 0.8889 0.4159 0.0
O418 O 0.74107 0.88493 0.36899 0.0
O419 O 0.72408 0.88249 0.38528 0.0
Co420 Co 0.09914 0.75204 0.38633 0.0
O421 O 0.09831 0.74599 0.36642 0.0
O422 O 0.09678 0.73125 0.38528 0.0
C423 C 0.11821 0.76699 0.38413 0.0
O424 O 0.10019 0.75423 0.40827 0.0
Co425 Co 0.09399 0.78401 0.39487 0.0
O426 O 0.10157 0.77788 0.41397 0.0
C427 C 0.06931 0.76549 0.3868 0.0
C428 C 0.09694 0.73286 0.37128 0.0
C429 C 0.10219 0.76456 0.41748 0.0
O430 O 0.07769 0.75451 0.38648 0.0
O431 O 0.07385 0.77846 0.38897 0.0
O432 O 0.12 0.75312 0.38553 0.0
O433 O 0.10506 0.77114 0.38265 0.0
Co434 Co 0.24811 0.10527 0.38816 0.0
O435 O 0.24161 0.12486 0.38952 0.0
O436 O 0.2274 0.10542 0.38974 0.0
C437 C 0.26359 0.10874 0.36981 0.0
O438 O 0.25095 0.08349 0.3864 0.0
Co439 Co 0.28013 0.09793 0.39414 0.0
O440 O 0.27463 0.07894 0.38554 0.0
C441 C 0.2609 0.10526 0.41841 0.0
C442 C 0.22869 0.11947 0.39032 0.0
C443 C 0.26154 0.07486 0.38435 0.0
O444 O 0.24998 0.10451 0.40988 0.0
O445 O 0.27389 0.10417 0.41398 0.0
O446 O 0.24997 0.10691 0.36715 0.0
O447 O 0.26704 0.10987 0.38331 0.0
Co448 Co 0.60087 0.8866 0.74323 0.0
O449 O 0.6003 0.8665 0.74836 0.0
O450 O 0.5986 0.88471 0.76397 0.0
C451 C 0.61996 0.88538 0.72844 0.0
O452 O 0.60163 0.90861 0.74187 0.0
Co453 Co 0.5955 0.89577 0.71143 0.0
O454 O 0.60267 0.91489 0.71837 0.0
C455 C 0.57099 0.88677 0.72953 0.0
C456 C 0.59897 0.87079 0.76168 0.0
C457 C 0.60334 0.91811 0.73181 0.0
O458 O 0.5794 0.88638 0.74057 0.0
O459 O 0.57548 0.88924 0.71665 0.0
O460 O 0.62173 0.88633 0.74238 0.0
O461 O 0.60684 0.88367 0.72408 0.0
Co462 Co 0.09923 0.60581 0.75199 0.0
O463 O 0.09867 0.62591 0.74655 0.0
O464 O 0.0981 0.60741 0.73119 0.0
C465 C 0.11728 0.60785 0.76807 0.0
O466 O 0.10023 0.58384 0.75327 0.0
Co467 Co 0.09254 0.59581 0.78335 0.0
O468 O 0.10055 0.57711 0.77663 0.0
C469 C 0.06886 0.60463 0.76418 0.0
C470 C 0.09808 0.62135 0.73323 0.0
C471 C 0.10178 0.57421 0.76318 0.0
O472 O 0.07765 0.60526 0.75344 0.0
O473 O 0.07287 0.60211 0.7772 0.0
O474 O 0.12003 0.60696 0.75429 0.0
O475 O 0.10388 0.60888 0.77149 0.0
Co476 Co 0.39273 0.10467 0.74692 0.0
O477 O 0.37284 0.1033 0.74187 0.0
O478 O 0.39081 0.10204 0.72617 0.0
C479 C 0.39059 0.12401 0.76156 0.0
O480 O 0.41456 0.10625 0.74839 0.0
Co481 Co 0.40181 0.10016 0.77893 0.0
O482 O 0.42023 0.10861 0.77199 0.0
C483 C 0.39286 0.07505 0.7612 0.0
C484 C 0.37702 0.10189 0.72855 0.0
C485 C 0.42364 0.109 0.75861 0.0
O486 O 0.39313 0.08308 0.74984 0.0
O487 O 0.39487 0.08004 0.77402 0.0
O488 O 0.39169 0.12575 0.74764 0.0
O489 O 0.3895 0.11077 0.76593 0.0
Co490 Co 0.89187 0.38897 0.74772 0.0
O491 O 0.87238 0.39081 0.75422 0.0
O492 O 0.89154 0.39209 0.76844 0.0
C493 C 0.88802 0.36948 0.73341 0.0
O494 O 0.91351 0.387 0.7451 0.0
Co495 Co 0.89989 0.39198 0.71511 0.0
O496 O 0.91841 0.38371 0.72148 0.0
C497 C 0.89254 0.41794 0.73229 0.0
C498 C 0.87763 0.3925 0.76716 0.0
C499 C 0.92222 0.38386 0.73475 0.0
O500 O 0.89289 0.41052 0.74408 0.0
O501 O 0.89391 0.41227 0.7197 0.0
O502 O 0.88987 0.36778 0.74727 0.0
O503 O 0.88739 0.38269 0.72905 0.0
Co504 Co 0.59972 0.10527 0.25258 0.0
O505 O 0.59989 0.1255 0.24757 0.0
O506 O 0.59864 0.10736 0.23181 0.0
C507 C 0.61783 0.10629 0.26868 0.0
O508 O 0.59996 0.08323 0.25339 0.0
Co509 Co 0.59269 0.09484 0.28374 0.0
O510 O 0.59974 0.0759 0.27658 0.0
C511 C 0.56939 0.10506 0.26485 0.0
C512 C 0.59915 0.12125 0.23415 0.0
C513 C 0.60099 0.07329 0.26306 0.0
O514 O 0.57814 0.10546 0.25407 0.0
O515 O 0.57335 0.1022 0.27781 0.0
O516 O 0.62055 0.10559 0.25488 0.0
O517 O 0.60449 0.10774 0.27213 0.0
Co518 Co 0.89504 0.60736 0.24225 0.0
O519 O 0.89595 0.62748 0.24744 0.0
O520 O 0.8969 0.6093 0.26302 0.0
C521 C 0.87631 0.609 0.22705 0.0
O522 O 0.89375 0.58537 0.2409 0.0
Co523 Co 0.90076 0.5977 0.21063 0.0
O524 O 0.89289 0.57885 0.21742 0.0
C525 C 0.92514 0.60633 0.22918 0.0
C526 C 0.89684 0.62321 0.26078 0.0
C527 C 0.8919 0.5758 0.23085 0.0
O528 O 0.91655 0.60705 0.24006 0.0
O529 O 0.92083 0.6038 0.21623 0.0
O530 O 0.87423 0.60812 0.24093 0.0
O531 O 0.88955 0.61032 0.22295 0.0
Co532 Co 0.39071 0.88902 0.2486 0.0
O533 O 0.37144 0.89055 0.25575 0.0
O534 O 0.39101 0.89223 0.26936 0.0
C535 C 0.38667 0.86937 0.23455 0.0
O536 O 0.41229 0.88742 0.24506 0.0
Co537 Co 0.39708 0.89213 0.21561 0.0
O538 O 0.41582 0.88381 0.22122 0.0
C539 C 0.39028 0.91801 0.23314 0.0
C540 C 0.37705 0.8924 0.26851 0.0
C541 C 0.42038 0.88414 0.23424 0.0
O542 O 0.39122 0.91057 0.24488 0.0
O543 O 0.39116 0.91237 0.22047 0.0
O544 O 0.38908 0.8678 0.24833 0.0
O545 O 0.38558 0.88255 0.23017 0.0
Co546 Co 0.09992 0.38604 0.24186 0.0
O547 O 0.09882 0.36596 0.247 0.0
O548 O 0.09784 0.38422 0.26262 0.0
C549 C 0.11877 0.38426 0.22685 0.0
O550 O 0.10135 0.40803 0.24044 0.0
Co551 Co 0.09448 0.3953 0.21006 0.0
O552 O 0.1028 0.414 0.21688 0.0
C553 C 0.06992 0.3872 0.22851 0.0
C554 C 0.09779 0.37029 0.26034 0.0
C555 C 0.10359 0.41733 0.23028 0.0
O556 O 0.07844 0.38648 0.23944 0.0
O557 O 0.07432 0.38956 0.21557 0.0
O558 O 0.12075 0.38514 0.24076 0.0
O559 O 0.10556 0.38292 0.22266 0.0
Co560 Co 0.74989 0.60642 0.89035 0.0
O561 O 0.74315 0.62596 0.88991 0.0
O562 O 0.72916 0.60643 0.89155 0.0
C563 C 0.76569 0.60838 0.87206 0.0
O564 O 0.75298 0.58463 0.89053 0.0
Co565 Co 0.78184 0.60005 0.89769 0.0
O566 O 0.77669 0.58022 0.89094 0.0
C567 C 0.76204 0.60914 0.9208 0.0
C568 C 0.73028 0.62049 0.891 0.0
C569 C 0.76368 0.57594 0.88969 0.0
O570 O 0.75135 0.60751 0.91209 0.0
O571 O 0.77515 0.60791 0.91679 0.0
O572 O 0.75212 0.60625 0.86931 0.0
O573 O 0.76888 0.61077 0.88547 0.0
Co574 Co 0.7463 0.38944 0.10415 0.0
O575 O 0.75281 0.38961 0.12386 0.0
O576 O 0.76711 0.39056 0.10471 0.0
C577 C 0.73028 0.37115 0.10662 0.0
O578 O 0.74335 0.38882 0.08222 0.0
Co579 Co 0.71444 0.39647 0.0971 0.0
O580 O 0.71954 0.38797 0.07804 0.0
C581 C 0.73454 0.42014 0.10497 0.0
C582 C 0.76578 0.39026 0.11875 0.0
C583 C 0.7325 0.38692 0.07372 0.0
O584 O 0.7451 0.41126 0.10441 0.0
O585 O 0.7214 0.41613 0.10348 0.0
O586 O 0.74381 0.36839 0.10472 0.0
O587 O 0.72722 0.38463 0.10839 0.0
Co588 Co 0.60292 0.74126 0.10661 0.0
O589 O 0.62209 0.73408 0.10518 0.0
O590 O 0.60239 0.72044 0.10385 0.0
C591 C 0.60704 0.75576 0.12589 0.0
O592 O 0.58139 0.74492 0.10813 0.0
Co593 Co 0.59716 0.77422 0.10273 0.0
O594 O 0.5781 0.76889 0.11084 0.0
C595 C 0.60428 0.75604 0.07738 0.0
C596 C 0.61636 0.72131 0.10355 0.0
C597 C 0.57337 0.75587 0.11091 0.0
O598 O 0.60265 0.74447 0.08499 0.0
O599 O 0.60376 0.76882 0.08279 0.0
O600 O 0.60439 0.74204 0.12783 0.0
O601 O 0.60827 0.75979 0.11261 0.0
Co602 Co 0.24796 0.60124 0.10417 0.0
O603 O 0.24189 0.60209 0.12402 0.0
O604 O 0.22716 0.60058 0.10522 0.0
C605 C 0.26439 0.61927 0.10554 0.0
O606 O 0.25037 0.60086 0.08218 0.0
Co607 Co 0.27944 0.59314 0.09665 0.0
O608 O 0.27404 0.60055 0.07727 0.0
C609 C 0.25908 0.57036 0.10595 0.0
C610 C 0.2288 0.60145 0.1192 0.0
C611 C 0.261 0.60187 0.07328 0.0
O612 O 0.24873 0.57946 0.10524 0.0
O613 O 0.27226 0.57396 0.10401 0.0
O614 O 0.25086 0.62223 0.10388 0.0
O615 O 0.26724 0.60581 0.10778 0.0
Co616 Co 0.39217 0.25042 0.10315 0.0
O617 O 0.3727 0.25686 0.10246 0.0
O618 O 0.39183 0.27122 0.10047 0.0
C619 C 0.3892 0.23599 0.12253 0.0
O620 O 0.41386 0.24764 0.10404 0.0
Co621 Co 0.39917 0.21774 0.09908 0.0
O622 O 0.41822 0.22387 0.10667 0.0
C623 C 0.39042 0.23536 0.07399 0.0
C624 C 0.3779 0.26986 0.10091 0.0
C625 C 0.4224 0.23708 0.10667 0.0
O626 O 0.39185 0.24705 0.08154 0.0
O627 O 0.39165 0.22266 0.07937 0.0
O628 O 0.39142 0.2498 0.12437 0.0
O629 O 0.38773 0.23175 0.1093 0.0
Co630 Co 0.24404 0.38727 0.88851 0.0
O631 O 0.25098 0.36777 0.88929 0.0
O632 O 0.26469 0.38757 0.89007 0.0
C633 C 0.2285 0.38412 0.87013 0.0
O634 O 0.24102 0.40898 0.8874 0.0
Co635 Co 0.21212 0.39449 0.89482 0.0
O636 O 0.21746 0.41401 0.88747 0.0
C637 C 0.23134 0.38625 0.91873 0.0
C638 C 0.26375 0.37351 0.89031 0.0
C639 C 0.23058 0.41789 0.8861 0.0
O640 O 0.24224 0.38748 0.91024 0.0
O641 O 0.21835 0.38736 0.91435 0.0
O642 O 0.24211 0.38611 0.86747 0.0
O643 O 0.2251 0.38262 0.8836 0.0
Co644 Co 0.59959 0.25253 0.88631 0.0
O645 O 0.59899 0.24706 0.86621 0.0
O646 O 0.59749 0.23176 0.88461 0.0
C647 C 0.61849 0.26778 0.88464 0.0
O648 O 0.60042 0.25404 0.90831 0.0
Co649 Co 0.59406 0.28415 0.89585 0.0
O650 O 0.60116 0.27747 0.91495 0.0
C651 C 0.56966 0.26564 0.88692 0.0
C652 C 0.59775 0.23379 0.87067 0.0
C653 C 0.60197 0.26404 0.91797 0.0
O654 O 0.57812 0.25474 0.88637 0.0
O655 O 0.57407 0.27859 0.88949 0.0
O656 O 0.62045 0.25391 0.88569 0.0
O657 O 0.6053 0.27181 0.88324 0.0
Co658 Co 0.39557 0.743 0.88794 0.0
O659 O 0.39688 0.74804 0.86782 0.0
O660 O 0.39749 0.76377 0.88603 0.0
C661 C 0.37696 0.7275 0.88574 0.0
O662 O 0.39393 0.74187 0.90992 0.0
Co663 Co 0.40109 0.71154 0.89796 0.0
O664 O 0.39314 0.7185 0.91665 0.0
C665 C 0.42557 0.73021 0.88974 0.0
C666 C 0.39778 0.76143 0.87212 0.0
C667 C 0.39209 0.73196 0.91955 0.0
O668 O 0.41704 0.74104 0.8889 0.0
O669 O 0.42119 0.71724 0.89214 0.0
O670 O 0.37476 0.74135 0.88651 0.0
O671 O 0.39024 0.72364 0.8849 0.0
C672 C 0.09843 0.3641 0.28679 0.0
C673 C 0.09723 0.35968 0.27226 0.0
C674 C 0.09904 0.35379 0.29786 0.0
C675 C 0.10841 0.31553 0.30366 0.0
H676 H 0.08887 0.32034 0.34041 0.0
C677 C 0.10529 0.26999 0.34618 0.0
C678 C 0.10746 0.27405 0.36069 0.0
C679 C 0.10379 0.28054 0.33548 0.0
C680 C 0.0945 0.31892 0.33025 0.0
H681 H 0.09512 0.34106 0.25796 0.0
H682 H 0.09594 0.32319 0.27719 0.0
H683 H 0.08638 0.33875 0.32166 0.0
H684 H 0.10982 0.2923 0.37541 0.0
H685 H 0.1073 0.31069 0.35673 0.0
H686 H 0.11653 0.29574 0.3122 0.0
C687 C 0.09675 0.33456 0.28006 0.0
C688 C 0.09308 0.32946 0.31952 0.0
C689 C 0.09618 0.34482 0.26904 0.0
C690 C 0.10813 0.28884 0.36431 0.0
C691 C 0.10659 0.29938 0.35363 0.0
C692 C 0.10981 0.305 0.31435 0.0
C693 C 0.09844 0.3389 0.29456 0.0
C694 C 0.09998 0.32785 0.30609 0.0
C695 C 0.10439 0.29535 0.3391 0.0
C696 C 0.10285 0.30656 0.32775 0.0
H697 H 0.09928 0.37548 0.28958 0.0
H698 H 0.10042 0.35747 0.30893 0.0
H699 H 0.1141 0.31411 0.29353 0.0
H700 H 0.10467 0.25867 0.34308 0.0
H701 H 0.10195 0.2771 0.32439 0.0
C702 C 0.70379 0.09802 0.36934 0.0
C703 C 0.71808 0.09687 0.36463 0.0
C704 C 0.69254 0.09824 0.35925 0.0
C705 C 0.68591 0.10692 0.32092 0.0
H706 H 0.64975 0.08644 0.32651 0.0
C707 C 0.64347 0.10262 0.27572 0.0
C708 C 0.6291 0.10463 0.27977 0.0
C709 C 0.65412 0.10117 0.28627 0.0
C710 C 0.65975 0.09232 0.32487 0.0
H711 H 0.73176 0.09442 0.34576 0.0
H712 H 0.71224 0.09462 0.32831 0.0
H713 H 0.66863 0.08467 0.34483 0.0
H714 H 0.61455 0.1066 0.29801 0.0
H715 H 0.63316 0.10422 0.31642 0.0
H716 H 0.67709 0.11462 0.30103 0.0
C717 C 0.70969 0.09567 0.33971 0.0
C718 C 0.67054 0.09131 0.33536 0.0
C719 C 0.72088 0.09548 0.34974 0.0
C720 C 0.62555 0.10505 0.29456 0.0
C721 C 0.63619 0.10359 0.30511 0.0
C722 C 0.67515 0.10792 0.31046 0.0
C723 C 0.69543 0.09732 0.34431 0.0
C724 C 0.68377 0.09853 0.33344 0.0
C725 C 0.6506 0.10171 0.30108 0.0
C726 C 0.66198 0.10059 0.31228 0.0
H727 H 0.70132 0.0991 0.38076 0.0
H728 H 0.68165 0.09958 0.36312 0.0
H729 H 0.69587 0.11285 0.31926 0.0
H730 H 0.64651 0.10217 0.2644 0.0
H731 H 0.66511 0.09953 0.28283 0.0
C732 C 0.88785 0.72327 0.34746 0.0
C733 C 0.8858 0.71917 0.36195 0.0
C734 C 0.88932 0.71274 0.33665 0.0
C735 C 0.89891 0.67448 0.3311 0.0
H736 H 0.87923 0.67911 0.29441 0.0
C737 C 0.89585 0.62938 0.28725 0.0
C738 C 0.89707 0.63384 0.27277 0.0
C739 C 0.89495 0.63965 0.2984 0.0
C740 C 0.88494 0.67774 0.30453 0.0
H741 H 0.88355 0.70087 0.3765 0.0
H742 H 0.88602 0.68254 0.35765 0.0
H743 H 0.87658 0.69742 0.31325 0.0
H744 H 0.89884 0.6525 0.25862 0.0
H745 H 0.89752 0.67033 0.278 0.0
H746 H 0.90729 0.65479 0.32235 0.0
C747 C 0.88667 0.69386 0.35465 0.0
C748 C 0.88341 0.68823 0.31532 0.0
C749 C 0.88517 0.70437 0.36543 0.0
C750 C 0.89779 0.64872 0.26967 0.0
C751 C 0.89693 0.65895 0.28077 0.0
C752 C 0.90046 0.66399 0.32029 0.0
C753 C 0.88879 0.69793 0.34015 0.0
C754 C 0.8904 0.68674 0.32871 0.0
C755 C 0.89528 0.65455 0.29523 0.0
C756 C 0.89354 0.66554 0.30686 0.0
H757 H 0.88842 0.7346 0.34447 0.0
H758 H 0.89108 0.71621 0.32559 0.0
H759 H 0.90456 0.67312 0.34126 0.0
H760 H 0.89524 0.61798 0.28996 0.0
H761 H 0.89359 0.63593 0.30943 0.0
C762 C 0.37337 0.89453 0.29546 0.0
C763 C 0.36777 0.8946 0.28131 0.0
C764 C 0.36424 0.89619 0.30742 0.0
C765 C 0.32823 0.90957 0.31733 0.0
H766 H 0.32969 0.88185 0.34877 0.0
C767 C 0.27912 0.89623 0.35182 0.0
C768 C 0.28067 0.89476 0.36688 0.0
C769 C 0.29113 0.89779 0.34295 0.0
C770 C 0.32931 0.88984 0.34021 0.0
H771 H 0.34828 0.89663 0.26859 0.0
H772 H 0.3325 0.89951 0.28928 0.0
H773 H 0.34857 0.88198 0.33029 0.0
H774 H 0.29608 0.89367 0.38445 0.0
H775 H 0.31726 0.89625 0.36878 0.0
H776 H 0.30877 0.91711 0.3269 0.0
C777 C 0.34391 0.89831 0.29122 0.0
C778 C 0.34011 0.88992 0.32964 0.0
C779 C 0.35296 0.89654 0.27934 0.0
C780 C 0.29456 0.89479 0.37288 0.0
C781 C 0.30666 0.89623 0.36393 0.0
C782 C 0.31747 0.90947 0.32784 0.0
C783 C 0.3494 0.89813 0.30539 0.0
C784 C 0.33941 0.89948 0.31784 0.0
C785 C 0.30504 0.89784 0.34887 0.0
C786 C 0.31764 0.89931 0.33912 0.0
H787 H 0.38475 0.89304 0.2973 0.0
H788 H 0.36877 0.89604 0.31823 0.0
H789 H 0.32757 0.91728 0.30854 0.0
H790 H 0.26858 0.89623 0.34684 0.0
H791 H 0.28953 0.89875 0.33136 0.0
C792 C 0.098 0.62658 0.7066 0.0
C793 C 0.09764 0.63161 0.72098 0.0
C794 C 0.09806 0.63636 0.69507 0.0
C795 C 0.08959 0.67419 0.68563 0.0
H796 H 0.11649 0.6682 0.65416 0.0
C797 C 0.10324 0.71882 0.6442 0.0
C798 C 0.10493 0.7147 0.62965 0.0
C799 C 0.10167 0.70836 0.65499 0.0
C800 C 0.10878 0.66993 0.66276 0.0
H801 H 0.09687 0.65082 0.73456 0.0
H802 H 0.09705 0.66786 0.71446 0.0
H803 H 0.11474 0.65043 0.67358 0.0
H804 H 0.10617 0.69639 0.61494 0.0
H805 H 0.10329 0.67809 0.63377 0.0
H806 H 0.08368 0.69374 0.67487 0.0
C807 C 0.09715 0.65636 0.71208 0.0
C808 C 0.10777 0.65975 0.67389 0.0
C809 C 0.09714 0.6466 0.7236 0.0
C810 C 0.10495 0.6999 0.62608 0.0
C811 C 0.10337 0.68941 0.63687 0.0
C812 C 0.09057 0.68437 0.6745 0.0
C813 C 0.09771 0.65137 0.69769 0.0
C814 C 0.09826 0.66183 0.68551 0.0
C815 C 0.10172 0.69353 0.65146 0.0
C816 C 0.10027 0.68242 0.66299 0.0
H817 H 0.09835 0.61508 0.70424 0.0
H818 H 0.09833 0.63218 0.6841 0.0
H819 H 0.08199 0.67599 0.69432 0.0
H820 H 0.1032 0.73016 0.64729 0.0
H821 H 0.10063 0.71189 0.66614 0.0
C822 C 0.29237 0.10871 0.62727 0.0
C823 C 0.2779 0.10713 0.63137 0.0
C824 C 0.30329 0.10761 0.63755 0.0
C825 C 0.31021 0.11073 0.67658 0.0
H826 H 0.34461 0.08903 0.66775 0.0
C827 C 0.35176 0.09865 0.72035 0.0
C828 C 0.36632 0.10067 0.71681 0.0
C829 C 0.34127 0.09869 0.7096 0.0
C830 C 0.33513 0.09524 0.6703 0.0
H831 H 0.26349 0.10318 0.64941 0.0
H832 H 0.28262 0.10124 0.66741 0.0
H833 H 0.3255 0.0907 0.64968 0.0
H834 H 0.38139 0.10381 0.69919 0.0
H835 H 0.36293 0.10406 0.68026 0.0
H836 H 0.31981 0.11536 0.69712 0.0
C837 C 0.28549 0.10344 0.65626 0.0
C838 C 0.3242 0.09619 0.65998 0.0
C839 C 0.27455 0.1045 0.64596 0.0
C840 C 0.37024 0.10223 0.70221 0.0
C841 C 0.35969 0.10234 0.6914 0.0
C842 C 0.32113 0.1098 0.68686 0.0
C843 C 0.29998 0.10495 0.65214 0.0
C844 C 0.3116 0.1039 0.66305 0.0
C845 C 0.34506 0.10084 0.69504 0.0
C846 C 0.33367 0.10198 0.68389 0.0
H847 H 0.29529 0.11079 0.61611 0.0
H848 H 0.31434 0.10903 0.63409 0.0
H849 H 0.30076 0.11697 0.67915 0.0
H850 H 0.3484 0.09723 0.7315 0.0
H851 H 0.33014 0.09716 0.71272 0.0
C852 C 0.88726 0.28843 0.62987 0.0
C853 C 0.88889 0.2735 0.63201 0.0
C854 C 0.88693 0.29789 0.6417 0.0
C855 C 0.89721 0.30184 0.67998 0.0
H856 H 0.86823 0.33168 0.67981 0.0
C857 C 0.88948 0.34294 0.72735 0.0
C858 C 0.88765 0.35735 0.72295 0.0
C859 C 0.88917 0.33169 0.71711 0.0
C860 C 0.87644 0.32345 0.67999 0.0
H861 H 0.89183 0.25676 0.64815 0.0
H862 H 0.89128 0.27333 0.66885 0.0
H863 H 0.86897 0.31411 0.6601 0.0
H864 H 0.88416 0.37131 0.70443 0.0
H865 H 0.88378 0.35189 0.68672 0.0
H866 H 0.90482 0.31141 0.6998 0.0
C867 C 0.89027 0.27771 0.65802 0.0
C868 C 0.87687 0.31342 0.66869 0.0
C869 C 0.89052 0.26823 0.64618 0.0
C870 C 0.88554 0.36031 0.7082 0.0
C871 C 0.88521 0.34915 0.69803 0.0
C872 C 0.89681 0.31195 0.69131 0.0
C873 C 0.8883 0.29261 0.65591 0.0
C874 C 0.88742 0.30267 0.66842 0.0
C875 C 0.88695 0.33471 0.70234 0.0
C876 C 0.88658 0.32303 0.69126 0.0
H877 H 0.88605 0.29281 0.61907 0.0
H878 H 0.88563 0.30936 0.63973 0.0
H879 H 0.90549 0.29368 0.68003 0.0
H880 H 0.89114 0.34036 0.73867 0.0
H881 H 0.8905 0.32064 0.72074 0.0
C882 C 0.72659 0.88813 0.64953 0.0
C883 C 0.7225 0.88537 0.63512 0.0
C884 C 0.71618 0.88912 0.66042 0.0
C885 C 0.6777 0.8964 0.66549 0.0
H886 H 0.6818 0.87576 0.70175 0.0
C887 C 0.62985 0.8855 0.7033 0.0
C888 C 0.63213 0.88658 0.7183 0.0
C889 C 0.64142 0.88642 0.69372 0.0
C890 C 0.68059 0.88177 0.69177 0.0
H891 H 0.70436 0.88122 0.62085 0.0
H892 H 0.68632 0.88291 0.63974 0.0
H893 H 0.70134 0.87547 0.68408 0.0
H894 H 0.64824 0.88964 0.73506 0.0
H895 H 0.66844 0.89137 0.71829 0.0
H896 H 0.65695 0.90261 0.67305 0.0
C897 C 0.69751 0.88451 0.64264 0.0
C898 C 0.69177 0.88159 0.68167 0.0
C899 C 0.70787 0.88345 0.63183 0.0
C900 C 0.64617 0.88871 0.72354 0.0
C901 C 0.65775 0.88963 0.71395 0.0
C902 C 0.66656 0.89661 0.67558 0.0
C903 C 0.70152 0.88746 0.65702 0.0
C904 C 0.69031 0.88868 0.66832 0.0
C905 C 0.6555 0.88846 0.69894 0.0
C906 C 0.66777 0.88909 0.68872 0.0
H907 H 0.7378 0.88966 0.65237 0.0
H908 H 0.71955 0.89143 0.67143 0.0
H909 H 0.67639 0.9022 0.6554 0.0
H910 H 0.61914 0.88383 0.69896 0.0
H911 H 0.63935 0.88526 0.68222 0.0
C912 C 0.3652 0.10011 0.28594 0.0
C913 C 0.36113 0.09909 0.27132 0.0
C914 C 0.35474 0.1005 0.29681 0.0
C915 C 0.31664 0.10966 0.30197 0.0
H916 H 0.32076 0.08962 0.33856 0.0
C917 C 0.27079 0.10566 0.34387 0.0
C918 C 0.27464 0.10787 0.35843 0.0
C919 C 0.2814 0.10438 0.33325 0.0
C920 C 0.31954 0.09538 0.32843 0.0
H921 H 0.34301 0.09702 0.25662 0.0
H922 H 0.32487 0.09743 0.27552 0.0
H923 H 0.3394 0.08736 0.3201 0.0
H924 H 0.29256 0.11063 0.37329 0.0
H925 H 0.31101 0.10846 0.35476 0.0
H926 H 0.29679 0.11766 0.31028 0.0
C927 C 0.33607 0.09829 0.27861 0.0
C928 C 0.3302 0.09409 0.31788 0.0
C929 C 0.34648 0.09796 0.26779 0.0
C930 C 0.28925 0.10888 0.36216 0.0
C931 C 0.29984 0.10754 0.35157 0.0
C932 C 0.30598 0.11091 0.31249 0.0
C933 C 0.34005 0.09983 0.29321 0.0
C934 C 0.32885 0.10119 0.30452 0.0
C935 C 0.29603 0.10523 0.33702 0.0
C936 C 0.30731 0.10378 0.32582 0.0
H937 H 0.37643 0.10101 0.28896 0.0
H938 H 0.35813 0.10177 0.30797 0.0
H939 H 0.31541 0.1155 0.2919 0.0
H940 H 0.25961 0.10481 0.34071 0.0
H941 H 0.27816 0.10248 0.32213 0.0
C942 C 0.8965 0.28772 0.36419 0.0
C943 C 0.8972 0.27321 0.35962 0.0
C944 C 0.89618 0.29891 0.354 0.0
C945 C 0.88701 0.3054 0.31564 0.0
H946 H 0.9072 0.34191 0.32152 0.0
C947 C 0.89062 0.34899 0.27116 0.0
C948 C 0.88838 0.36336 0.27555 0.0
C949 C 0.89221 0.33806 0.28145 0.0
C950 C 0.90141 0.33181 0.3198 0.0
H951 H 0.89868 0.25907 0.34086 0.0
H952 H 0.89838 0.27852 0.32319 0.0
H953 H 0.90931 0.32274 0.33955 0.0
H954 H 0.88611 0.3776 0.29414 0.0
H955 H 0.88881 0.3585 0.31209 0.0
H956 H 0.87913 0.31443 0.2959 0.0
C957 C 0.89773 0.28128 0.33458 0.0
C958 C 0.90261 0.32084 0.33013 0.0
C959 C 0.898 0.27014 0.34473 0.0
C960 C 0.88783 0.36662 0.29042 0.0
C961 C 0.88947 0.3557 0.30071 0.0
C962 C 0.88586 0.31633 0.30531 0.0
C963 C 0.89659 0.29579 0.33907 0.0
C964 C 0.89543 0.3075 0.32815 0.0
C965 C 0.89163 0.3413 0.29634 0.0
C966 C 0.89304 0.32965 0.30727 0.0
H967 H 0.89586 0.29041 0.3756 0.0
H968 H 0.89519 0.30996 0.35781 0.0
H969 H 0.88111 0.29536 0.31392 0.0
H970 H 0.89115 0.34617 0.25977 0.0
H971 H 0.89401 0.32708 0.27775 0.0
C972 C 0.71987 0.88756 0.34604 0.0
C973 C 0.71625 0.8847 0.36052 0.0
C974 C 0.70909 0.88936 0.33566 0.0
C975 C 0.67069 0.88147 0.32863 0.0
H976 H 0.67455 0.91214 0.30025 0.0
C977 C 0.62524 0.89468 0.28833 0.0
C978 C 0.62967 0.89608 0.27386 0.0
C979 C 0.63542 0.89445 0.29949 0.0
C980 C 0.67336 0.90349 0.30808 0.0
H981 H 0.69855 0.88132 0.37548 0.0
H982 H 0.67983 0.88458 0.35746 0.0
H983 H 0.69339 0.9088 0.31829 0.0
H984 H 0.64814 0.89894 0.25975 0.0
H985 H 0.66579 0.89853 0.27913 0.0
H986 H 0.65071 0.8761 0.31836 0.0
C987 C 0.69095 0.88529 0.35405 0.0
C988 C 0.68417 0.90154 0.31836 0.0
C989 C 0.70169 0.8835 0.36439 0.0
C990 C 0.64438 0.89779 0.2708 0.0
C991 C 0.65451 0.89766 0.28192 0.0
C992 C 0.65987 0.88344 0.31837 0.0
C993 C 0.69451 0.88831 0.33958 0.0
C994 C 0.683 0.89044 0.32869 0.0
C995 C 0.65018 0.89575 0.29636 0.0
C996 C 0.66114 0.8944 0.30791 0.0
H997 H 0.73101 0.88853 0.34275 0.0
H998 H 0.71217 0.8915 0.32455 0.0
H999 H 0.66956 0.87271 0.33634 0.0
H1000 H 0.61397 0.89336 0.29099 0.0
H1001 H 0.63177 0.89312 0.31055 0.0
C1002 C 0.10376 0.64416 0.27363 0.0
C1003 C 0.10633 0.62975 0.2776 0.0
C1004 C 0.10167 0.65477 0.28424 0.0
C1005 C 0.10859 0.66272 0.32287 0.0
H1006 H 0.08005 0.69244 0.31709 0.0
C1007 C 0.09661 0.70613 0.36638 0.0
C1008 C 0.09604 0.72041 0.36123 0.0
C1009 C 0.09664 0.69445 0.35667 0.0
C1010 C 0.08811 0.68424 0.31882 0.0
H1011 H 0.10866 0.61511 0.29576 0.0
H1012 H 0.10487 0.63358 0.31426 0.0
H1013 H 0.08269 0.67324 0.29908 0.0
H1014 H 0.09463 0.73366 0.34192 0.0
H1015 H 0.0947 0.71336 0.32504 0.0
H1016 H 0.11407 0.67379 0.34256 0.0
C1017 C 0.10466 0.63674 0.30297 0.0
C1018 C 0.08965 0.67328 0.30849 0.0
C1019 C 0.10677 0.62615 0.29237 0.0
C1020 C 0.09511 0.72278 0.34623 0.0
C1021 C 0.09505 0.71114 0.33655 0.0
C1022 C 0.10702 0.67366 0.33322 0.0
C1023 C 0.10209 0.65117 0.29904 0.0
C1024 C 0.10002 0.66248 0.31031 0.0
C1025 C 0.09599 0.69686 0.34165 0.0
C1026 C 0.09688 0.68464 0.33122 0.0
H1027 H 0.10338 0.64726 0.26233 0.0
H1028 H 0.09993 0.66583 0.28085 0.0
H1029 H 0.11681 0.65468 0.32452 0.0
H1030 H 0.09731 0.70397 0.37789 0.0
H1031 H 0.09723 0.68355 0.36091 0.0
C1032 C 0.36955 0.89289 0.70205 0.0
C1033 C 0.3643 0.89097 0.71621 0.0
C1034 C 0.36018 0.89223 0.69016 0.0
C1035 C 0.32469 0.8776 0.67951 0.0
H1036 H 0.32529 0.90706 0.64965 0.0
C1037 C 0.27593 0.88785 0.64371 0.0
C1038 C 0.27792 0.89038 0.62884 0.0
C1039 C 0.28767 0.88713 0.65304 0.0
C1040 C 0.32514 0.89862 0.65777 0.0
H1041 H 0.34512 0.88702 0.72902 0.0
H1042 H 0.32888 0.88588 0.7084 0.0
H1043 H 0.34379 0.90732 0.66854 0.0
H1044 H 0.29382 0.89429 0.6121 0.0
H1045 H 0.3145 0.89311 0.62857 0.0
H1046 H 0.30595 0.86904 0.66901 0.0
C1047 C 0.34022 0.88774 0.70642 0.0
C1048 C 0.33572 0.89877 0.66859 0.0
C1049 C 0.34953 0.88849 0.71825 0.0
C1050 C 0.29196 0.89231 0.62351 0.0
C1051 C 0.30378 0.89168 0.63293 0.0
C1052 C 0.31417 0.87743 0.66875 0.0
C1053 C 0.34544 0.8895 0.69224 0.0
C1054 C 0.33535 0.88849 0.67979 0.0
C1055 C 0.30173 0.88896 0.64778 0.0
C1056 C 0.31403 0.88817 0.65799 0.0
H1057 H 0.38088 0.89483 0.70014 0.0
H1058 H 0.3645 0.89359 0.67935 0.0
H1059 H 0.32432 0.86932 0.6878 0.0
H1060 H 0.26527 0.88636 0.64819 0.0
H1061 H 0.28571 0.88529 0.66445 0.0
C1062 C 0.1067 0.36284 0.70213 0.0
C1063 C 0.10518 0.36069 0.71709 0.0
C1064 C 0.10671 0.35101 0.69265 0.0
C1065 C 0.0958 0.3127 0.68919 0.0
H1066 H 0.12416 0.31259 0.65843 0.0
C1067 C 0.10343 0.26429 0.64947 0.0
C1068 C 0.10517 0.26814 0.63485 0.0
C1069 C 0.10359 0.27499 0.66027 0.0
C1070 C 0.11611 0.31251 0.6669 0.0
H1071 H 0.1022 0.34454 0.73389 0.0
H1072 H 0.10226 0.32388 0.71731 0.0
H1073 H 0.12386 0.33256 0.67571 0.0
H1074 H 0.10825 0.28615 0.62007 0.0
H1075 H 0.10838 0.30466 0.63878 0.0
H1076 H 0.08797 0.29266 0.68021 0.0
C1077 C 0.10337 0.3347 0.71291 0.0
C1078 C 0.11593 0.32396 0.67678 0.0
C1079 C 0.10341 0.34652 0.72239 0.0
C1080 C 0.10695 0.28281 0.63124 0.0
C1081 C 0.10713 0.29343 0.64198 0.0
C1082 C 0.09597 0.30122 0.67926 0.0
C1083 C 0.10516 0.33682 0.69796 0.0
C1084 C 0.10565 0.32429 0.68789 0.0
C1085 C 0.10556 0.28966 0.65662 0.0
C1086 C 0.10599 0.30114 0.66788 0.0
H1087 H 0.108 0.37364 0.69773 0.0
H1088 H 0.10789 0.35299 0.68115 0.0
H1089 H 0.0877 0.31271 0.69761 0.0
H1090 H 0.10203 0.25306 0.65255 0.0
H1091 H 0.10241 0.27176 0.67149 0.0
C1092 C 0.71847 0.09848 0.64504 0.0
C1093 C 0.71602 0.0998 0.63009 0.0
C1094 C 0.707 0.09711 0.65466 0.0
C1095 C 0.66872 0.10481 0.6591 0.0
H1096 H 0.6722 0.07826 0.69137 0.0
C1097 C 0.62475 0.09809 0.70341 0.0
C1098 C 0.62991 0.09795 0.71773 0.0
C1099 C 0.63428 0.09719 0.69172 0.0
C1100 C 0.67109 0.08577 0.68245 0.0
H1101 H 0.69959 0.10076 0.61347 0.0
H1102 H 0.6794 0.09838 0.6304 0.0
H1103 H 0.69055 0.07866 0.67257 0.0
H1104 H 0.64908 0.09671 0.73102 0.0
H1105 H 0.66565 0.09519 0.71072 0.0
H1106 H 0.64935 0.1121 0.6692 0.0
C1107 C 0.69026 0.09846 0.63463 0.0
C1108 C 0.6816 0.08599 0.67168 0.0
C1109 C 0.7018 0.09976 0.62495 0.0
C1110 C 0.64475 0.09681 0.72013 0.0
C1111 C 0.65425 0.09584 0.70848 0.0
C1112 C 0.65817 0.10458 0.66991 0.0
C1113 C 0.69277 0.09704 0.64959 0.0
C1114 C 0.68072 0.09575 0.66007 0.0
C1115 C 0.64914 0.09603 0.69414 0.0
C1116 C 0.65943 0.09528 0.68188 0.0
H1117 H 0.72929 0.09851 0.64938 0.0
H1118 H 0.7093 0.09631 0.66613 0.0
H1119 H 0.66779 0.1125 0.65033 0.0
H1120 H 0.61336 0.09895 0.70123 0.0
H1121 H 0.63003 0.09728 0.6808 0.0
C1122 C 0.88536 0.71184 0.63355 0.0
C1123 C 0.88824 0.72646 0.63676 0.0
C1124 C 0.88444 0.70163 0.64458 0.0
C1125 C 0.89553 0.69417 0.68182 0.0
H1126 H 0.86577 0.66452 0.67906 0.0
C1127 C 0.8875 0.6487 0.72449 0.0
C1128 C 0.88529 0.63471 0.71877 0.0
C1129 C 0.88745 0.66077 0.71539 0.0
C1130 C 0.87418 0.67268 0.67993 0.0
H1131 H 0.89254 0.74189 0.65402 0.0
H1132 H 0.89089 0.7239 0.67348 0.0
H1133 H 0.86621 0.68434 0.66171 0.0
H1134 H 0.88145 0.62235 0.69911 0.0
H1135 H 0.88138 0.64339 0.68324 0.0
H1136 H 0.90359 0.68233 0.69997 0.0
C1137 C 0.88941 0.7204 0.66236 0.0
C1138 C 0.87443 0.68403 0.67002 0.0
C1139 C 0.8903 0.73068 0.65126 0.0
C1140 C 0.88313 0.633 0.70382 0.0
C1141 C 0.883 0.64505 0.69475 0.0
C1142 C 0.89526 0.6828 0.69179 0.0
C1143 C 0.88636 0.70579 0.6591 0.0
C1144 C 0.88529 0.69471 0.67065 0.0
C1145 C 0.88508 0.65906 0.70045 0.0
C1146 C 0.88476 0.67178 0.69073 0.0
H1147 H 0.88379 0.70822 0.62248 0.0
H1148 H 0.88237 0.69042 0.64169 0.0
H1149 H 0.90408 0.70221 0.68251 0.0
H1150 H 0.88922 0.65033 0.73599 0.0
H1151 H 0.88901 0.67145 0.72007 0.0
C1152 C 0.29322 0.37182 0.09897 0.0
C1153 C 0.2795 0.36553 0.10078 0.0
C1154 C 0.3055 0.36318 0.0993 0.0
C1155 C 0.31776 0.32824 0.11335 0.0
H1156 H 0.34694 0.32969 0.08338 0.0
C1157 C 0.35336 0.28012 0.1019 0.0
C1158 C 0.36821 0.28241 0.10034 0.0
C1159 C 0.34403 0.29178 0.10232 0.0
C1160 C 0.33899 0.32935 0.09195 0.0
H1161 H 0.26789 0.34529 0.10406 0.0
H1162 H 0.28917 0.33036 0.10462 0.0
H1163 H 0.32769 0.34766 0.08355 0.0
H1164 H 0.38492 0.29872 0.09754 0.0
H1165 H 0.3684 0.3193 0.09815 0.0
H1166 H 0.32869 0.30977 0.12154 0.0
C1167 C 0.2905 0.34193 0.10313 0.0
C1168 C 0.328 0.3396 0.09205 0.0
C1169 C 0.27829 0.35049 0.10271 0.0
C1170 C 0.37352 0.29665 0.09879 0.0
C1171 C 0.36409 0.30839 0.09911 0.0
C1172 C 0.32866 0.31806 0.11325 0.0
C1173 C 0.30424 0.34818 0.10159 0.0
C1174 C 0.31703 0.33883 0.1025 0.0
C1175 C 0.34929 0.30604 0.10115 0.0
C1176 C 0.33912 0.31821 0.10229 0.0
H1177 H 0.29447 0.38339 0.09742 0.0
H1178 H 0.31598 0.36825 0.09807 0.0
H1179 H 0.30963 0.3276 0.12173 0.0
H1180 H 0.34888 0.2693 0.10303 0.0
H1181 H 0.33263 0.28963 0.10361 0.0
C1182 C 0.36794 0.70197 0.88492 0.0
C1183 C 0.36509 0.71682 0.88614 0.0
C1184 C 0.35671 0.69184 0.88502 0.0
C1185 C 0.31915 0.68649 0.89619 0.0
H1186 H 0.32015 0.6548 0.86852 0.0
C1187 C 0.27237 0.64512 0.88894 0.0
C1188 C 0.2763 0.63057 0.88724 0.0
C1189 C 0.28284 0.6561 0.88885 0.0
C1190 C 0.31979 0.66351 0.8764 0.0
H1191 H 0.3483 0.73275 0.88857 0.0
H1192 H 0.32863 0.71499 0.8887 0.0
H1193 H 0.33913 0.67316 0.86828 0.0
H1194 H 0.29424 0.61604 0.88438 0.0
H1195 H 0.31248 0.63513 0.88438 0.0
H1196 H 0.29983 0.67674 0.90437 0.0
C1197 C 0.33956 0.7112 0.88776 0.0
C1198 C 0.33065 0.67402 0.87626 0.0
C1199 C 0.35081 0.72135 0.88761 0.0
C1200 C 0.29087 0.62717 0.88564 0.0
C1201 C 0.30131 0.63811 0.88554 0.0
C1202 C 0.30827 0.67594 0.89635 0.0
C1203 C 0.34241 0.69635 0.88637 0.0
C1204 C 0.33053 0.68554 0.88624 0.0
C1205 C 0.29741 0.6527 0.88703 0.0
C1206 C 0.30857 0.66426 0.88655 0.0
H1207 H 0.37885 0.69815 0.88383 0.0
H1208 H 0.35924 0.68044 0.88415 0.0
H1209 H 0.31886 0.69519 0.90408 0.0
H1210 H 0.2612 0.64805 0.89019 0.0
H1211 H 0.2795 0.66725 0.88992 0.0
C1212 C 0.27491 0.34943 0.89421 0.0
C1213 C 0.27655 0.36442 0.89217 0.0
C1214 C 0.28688 0.34076 0.89632 0.0
C1215 C 0.32527 0.33847 0.88905 0.0
H1216 H 0.32314 0.30766 0.91747 0.0
C1217 C 0.36954 0.29503 0.89527 0.0
C1218 C 0.36404 0.28078 0.89537 0.0
C1219 C 0.36029 0.30679 0.89683 0.0
C1220 C 0.3239 0.31623 0.90951 0.0
H1221 H 0.29202 0.3821 0.89066 0.0
H1222 H 0.31306 0.36682 0.89423 0.0
H1223 H 0.30413 0.32558 0.91641 0.0
H1224 H 0.34467 0.26766 0.89749 0.0
H1225 H 0.32866 0.28805 0.90018 0.0
H1226 H 0.34483 0.32878 0.88183 0.0
C1227 C 0.30247 0.36184 0.89421 0.0
C1228 C 0.31303 0.32646 0.90889 0.0
C1229 C 0.29044 0.37057 0.8922 0.0
C1230 C 0.34924 0.27851 0.89735 0.0
C1231 C 0.34006 0.2902 0.89901 0.0
C1232 C 0.33618 0.32819 0.88966 0.0
C1233 C 0.30078 0.34687 0.89639 0.0
C1234 C 0.31337 0.3374 0.89836 0.0
C1235 C 0.34545 0.30446 0.89868 0.0
C1236 C 0.33534 0.31671 0.89959 0.0
H1237 H 0.26435 0.34437 0.89424 0.0
H1238 H 0.28527 0.32921 0.89771 0.0
H1239 H 0.32578 0.34678 0.8808 0.0
H1240 H 0.38092 0.29709 0.89377 0.0
H1241 H 0.36472 0.31769 0.89658 0.0
C1242 C 0.62807 0.29312 0.88342 0.0
C1243 C 0.63056 0.27825 0.88504 0.0
C1244 C 0.63954 0.30299 0.88335 0.0
C1245 C 0.67733 0.3077 0.89441 0.0
H1246 H 0.67719 0.33841 0.86585 0.0
C1247 C 0.72529 0.34751 0.88652 0.0
C1248 C 0.72172 0.36212 0.88465 0.0
C1249 C 0.71457 0.33677 0.88634 0.0
C1250 C 0.67733 0.32997 0.87397 0.0
H1251 H 0.64696 0.26202 0.88807 0.0
H1252 H 0.66702 0.27929 0.8879 0.0
H1253 H 0.6576 0.3207 0.86624 0.0
H1254 H 0.70416 0.37698 0.88119 0.0
H1255 H 0.68552 0.35834 0.88103 0.0
H1256 H 0.69702 0.31708 0.90221 0.0
C1257 C 0.6562 0.28332 0.88677 0.0
C1258 C 0.6661 0.31984 0.8742 0.0
C1259 C 0.64472 0.27344 0.8868 0.0
C1260 C 0.70727 0.3658 0.8826 0.0
C1261 C 0.69658 0.3551 0.88242 0.0
C1262 C 0.68857 0.31787 0.8942 0.0
C1263 C 0.65373 0.29819 0.88493 0.0
C1264 C 0.66591 0.30867 0.8845 0.0
C1265 C 0.7001 0.34046 0.88425 0.0
C1266 C 0.68861 0.3292 0.88406 0.0
H1267 H 0.61726 0.29715 0.88211 0.0
H1268 H 0.63729 0.31441 0.88213 0.0
H1269 H 0.6774 0.29928 0.90255 0.0
H1270 H 0.73636 0.34437 0.88811 0.0
H1271 H 0.71761 0.32556 0.88766 0.0
C1272 C 0.70361 0.62424 0.89238 0.0
C1273 C 0.71766 0.62998 0.89206 0.0
C1274 C 0.69182 0.63345 0.89375 0.0
C1275 C 0.68254 0.66993 0.90666 0.0
H1276 H 0.65015 0.66728 0.8803 0.0
C1277 C 0.64665 0.71824 0.89556 0.0
C1278 C 0.63173 0.71608 0.89456 0.0
C1279 C 0.65582 0.70647 0.89654 0.0
C1280 C 0.659 0.668 0.8879 0.0
H1281 H 0.73038 0.64982 0.89279 0.0
H1282 H 0.70994 0.66576 0.89516 0.0
H1283 H 0.6687 0.64867 0.87966 0.0
H1284 H 0.61469 0.69987 0.89375 0.0
H1285 H 0.63087 0.67916 0.89539 0.0
H1286 H 0.67313 0.68938 0.91469 0.0
C1287 C 0.70799 0.65418 0.89451 0.0
C1288 C 0.6696 0.65736 0.88753 0.0
C1289 C 0.7197 0.64504 0.89304 0.0
C1290 C 0.62616 0.70186 0.89452 0.0
C1291 C 0.6354 0.69002 0.89541 0.0
C1292 C 0.67199 0.68051 0.90704 0.0
C1293 C 0.69394 0.64851 0.89497 0.0
C1294 C 0.68169 0.65849 0.89662 0.0
C1295 C 0.65032 0.69224 0.89651 0.0
C1296 C 0.66034 0.6799 0.89738 0.0
H1297 H 0.70172 0.61266 0.89164 0.0
H1298 H 0.68109 0.6288 0.89409 0.0
H1299 H 0.69158 0.67089 0.91401 0.0
H1300 H 0.65128 0.72906 0.89558 0.0
H1301 H 0.66729 0.70853 0.89711 0.0
C1302 C 0.6199 0.69436 0.10171 0.0
C1303 C 0.62553 0.70855 0.10128 0.0
C1304 C 0.62897 0.68247 0.09988 0.0
C1305 C 0.6646 0.67274 0.08536 0.0
H1306 H 0.66439 0.64229 0.1142 0.0
C1307 C 0.71468 0.64052 0.0987 0.0
C1308 C 0.7135 0.62549 0.10072 0.0
C1309 C 0.70243 0.64889 0.09705 0.0
C1310 C 0.66441 0.65056 0.10591 0.0
H1311 H 0.64498 0.72141 0.09838 0.0
H1312 H 0.66063 0.70085 0.09519 0.0
H1313 H 0.64519 0.66023 0.11413 0.0
H1314 H 0.69854 0.60742 0.10268 0.0
H1315 H 0.67697 0.62222 0.09997 0.0
H1316 H 0.68406 0.66349 0.07748 0.0
C1317 C 0.64926 0.69883 0.09683 0.0
C1318 C 0.65342 0.66081 0.10586 0.0
C1319 C 0.64029 0.71063 0.09878 0.0
C1320 C 0.69977 0.61899 0.10113 0.0
C1321 C 0.68744 0.62744 0.09962 0.0
C1322 C 0.67555 0.66256 0.08543 0.0
C1323 C 0.64375 0.68462 0.09738 0.0
C1324 C 0.65372 0.67229 0.09589 0.0
C1325 C 0.68869 0.64246 0.09747 0.0
C1326 C 0.67584 0.65168 0.09601 0.0
H1327 H 0.60856 0.69245 0.10363 0.0
H1328 H 0.62445 0.67162 0.10034 0.0
H1329 H 0.66494 0.6813 0.07736 0.0
H1330 H 0.7251 0.64586 0.09834 0.0
H1331 H 0.70372 0.66049 0.09566 0.0
C1332 C 0.34884 0.72101 0.09566 0.0
C1333 C 0.36345 0.7178 0.09748 0.0
C1334 C 0.3385 0.71 0.09558 0.0
C1335 C 0.33288 0.67055 0.09155 0.0
H1336 H 0.29827 0.67829 0.11354 0.0
C1337 C 0.29035 0.62642 0.10511 0.0
C1338 C 0.27584 0.63033 0.10398 0.0
C1339 C 0.30123 0.63686 0.10371 0.0
C1340 C 0.30778 0.67602 0.10721 0.0
H1341 H 0.37874 0.70049 0.10015 0.0
H1342 H 0.36053 0.68111 0.1002 0.0
H1343 H 0.31708 0.69673 0.11206 0.0
H1344 H 0.26135 0.64817 0.10035 0.0
H1345 H 0.28037 0.66641 0.09787 0.0
H1346 H 0.32353 0.64974 0.08681 0.0
C1347 C 0.35714 0.69219 0.09872 0.0
C1348 C 0.31857 0.68658 0.10636 0.0
C1349 C 0.36755 0.70326 0.09873 0.0
C1350 C 0.27243 0.64485 0.10134 0.0
C1351 C 0.28332 0.6553 0.09998 0.0
C1352 C 0.32206 0.65994 0.09243 0.0
C1353 C 0.34247 0.69549 0.09741 0.0
C1354 C 0.33121 0.68402 0.09844 0.0
C1355 C 0.29784 0.65142 0.10121 0.0
C1356 C 0.30937 0.6626 0.10022 0.0
H1357 H 0.34534 0.73209 0.09448 0.0
H1358 H 0.32733 0.71288 0.0942 0.0
H1359 H 0.34242 0.6683 0.08526 0.0
H1360 H 0.29331 0.6153 0.10714 0.0
H1361 H 0.31231 0.63356 0.10487 0.0
C1362 C 0.72252 0.34529 0.10324 0.0
C1363 C 0.71897 0.35985 0.10556 0.0
C1364 C 0.71172 0.3347 0.10205 0.0
C1365 C 0.67355 0.32761 0.11098 0.0
H1366 H 0.67702 0.29696 0.0824 0.0
C1367 C 0.62771 0.2863 0.09962 0.0
C1368 C 0.63184 0.27174 0.0986 0.0
C1369 C 0.6381 0.29737 0.09984 0.0
C1370 C 0.67594 0.3054 0.0905 0.0
H1371 H 0.70135 0.37477 0.10843 0.0
H1372 H 0.68254 0.35636 0.10617 0.0
H1373 H 0.69574 0.31558 0.08422 0.0
H1374 H 0.65004 0.25737 0.09676 0.0
H1375 H 0.6681 0.27664 0.09716 0.0
H1376 H 0.65375 0.31741 0.11725 0.0
C1377 C 0.69365 0.35305 0.10548 0.0
C1378 C 0.68669 0.31605 0.09157 0.0
C1379 C 0.70443 0.36362 0.10669 0.0
C1380 C 0.64651 0.26848 0.09755 0.0
C1381 C 0.65687 0.27953 0.09769 0.0
C1382 C 0.66278 0.31699 0.10987 0.0
C1383 C 0.69716 0.33846 0.10314 0.0
C1384 C 0.68565 0.32724 0.10187 0.0
C1385 C 0.65279 0.29409 0.09895 0.0
C1386 C 0.66391 0.30573 0.09968 0.0
H1387 H 0.73364 0.34207 0.10236 0.0
H1388 H 0.7148 0.32353 0.10045 0.0
H1389 H 0.67251 0.33596 0.11917 0.0
H1390 H 0.61648 0.28913 0.10043 0.0
H1391 H 0.63463 0.3085 0.10067 0.0
C1392 C 0.59961 0.8646 0.78813 0.0
C1393 C 0.59849 0.86017 0.7736 0.0
C1394 C 0.60025 0.8543 0.7992 0.0
C1395 C 0.60958 0.81598 0.80502 0.0
H1396 H 0.59021 0.82098 0.84184 0.0
C1397 C 0.60629 0.77059 0.84775 0.0
C1398 C 0.60877 0.77472 0.8622 0.0
C1399 C 0.60475 0.7811 0.83701 0.0
C1400 C 0.59577 0.81951 0.83165 0.0
H1401 H 0.59653 0.84155 0.75928 0.0
H1402 H 0.59735 0.82369 0.77852 0.0
H1403 H 0.58774 0.83936 0.82305 0.0
H1404 H 0.6116 0.79305 0.87675 0.0
H1405 H 0.60896 0.81134 0.85801 0.0
H1406 H 0.61759 0.79614 0.81358 0.0
C1407 C 0.59811 0.83505 0.7814 0.0
C1408 C 0.59437 0.83003 0.82091 0.0
C1409 C 0.59754 0.84531 0.77037 0.0
C1410 C 0.60967 0.78953 0.86571 0.0
C1411 C 0.60807 0.80002 0.85499 0.0
C1412 C 0.61094 0.80546 0.81573 0.0
C1413 C 0.59972 0.8394 0.79591 0.0
C1414 C 0.60123 0.82836 0.80745 0.0
C1415 C 0.6056 0.79592 0.84053 0.0
C1416 C 0.60404 0.80709 0.82915 0.0
H1417 H 0.60038 0.87599 0.79092 0.0
H1418 H 0.60158 0.85799 0.81027 0.0
H1419 H 0.61525 0.8145 0.79489 0.0
H1420 H 0.6055 0.75926 0.84474 0.0
H1421 H 0.60271 0.77763 0.82597 0.0
C1422 C 0.22106 0.59955 0.8483 0.0
C1423 C 0.2184 0.59954 0.86328 0.0
C1424 C 0.20975 0.60022 0.83844 0.0
C1425 C 0.17079 0.59422 0.8343 0.0
H1426 H 0.17585 0.61945 0.80111 0.0
C1427 C 0.125 0.60678 0.79397 0.0
C1428 C 0.12861 0.60681 0.77919 0.0
C1429 C 0.13569 0.60579 0.80453 0.0
C1430 C 0.17433 0.61225 0.81024 0.0
H1431 H 0.20176 0.59992 0.8797 0.0
H1432 H 0.18188 0.60121 0.86238 0.0
H1433 H 0.19482 0.6179 0.81918 0.0
H1434 H 0.1462 0.60575 0.76385 0.0
H1435 H 0.16489 0.60398 0.7823 0.0
H1436 H 0.15025 0.58861 0.82529 0.0
C1437 C 0.19276 0.60059 0.8583 0.0
C1438 C 0.18519 0.61136 0.8206 0.0
C1439 C 0.20413 0.59991 0.86821 0.0
C1440 C 0.1431 0.6058 0.77516 0.0
C1441 C 0.1538 0.60486 0.78572 0.0
C1442 C 0.15989 0.59514 0.82392 0.0
C1443 C 0.19549 0.60093 0.84331 0.0
C1444 C 0.18361 0.60224 0.83267 0.0
C1445 C 0.15021 0.60488 0.80052 0.0
C1446 C 0.1616 0.60408 0.81172 0.0
H1447 H 0.23193 0.59916 0.84413 0.0
H1448 H 0.2122 0.60015 0.82697 0.0
H1449 H 0.16932 0.58699 0.84341 0.0
H1450 H 0.11391 0.60756 0.79741 0.0
H1451 H 0.13261 0.60598 0.81585 0.0
C1452 C 0.39184 0.15062 0.76673 0.0
C1453 C 0.39028 0.13633 0.77173 0.0
C1454 C 0.3909 0.16228 0.77637 0.0
C1455 C 0.37561 0.1718 0.81171 0.0
H1456 H 0.40359 0.20326 0.81193 0.0
C1457 C 0.38205 0.20975 0.86024 0.0
C1458 C 0.38434 0.22459 0.85778 0.0
C1459 C 0.38218 0.19994 0.84876 0.0
C1460 C 0.39556 0.19467 0.81183 0.0
H1461 H 0.38683 0.12298 0.79074 0.0
H1462 H 0.3852 0.14329 0.80754 0.0
H1463 H 0.40518 0.18417 0.79356 0.0
H1464 H 0.38859 0.24085 0.84139 0.0
H1465 H 0.38875 0.22359 0.82116 0.0
H1466 H 0.36605 0.18213 0.83 0.0
C1467 C 0.38698 0.14551 0.79616 0.0
C1468 C 0.3965 0.18375 0.80135 0.0
C1469 C 0.388 0.13388 0.78656 0.0
C1470 C 0.38679 0.22946 0.84358 0.0
C1471 C 0.38694 0.21959 0.83204 0.0
C1472 C 0.37465 0.1827 0.82212 0.0
C1473 C 0.38827 0.15982 0.79115 0.0
C1474 C 0.3867 0.17205 0.80141 0.0
C1475 C 0.38458 0.20473 0.83453 0.0
C1476 C 0.3848 0.19408 0.8225 0.0
H1477 H 0.39363 0.15281 0.75534 0.0
H1478 H 0.39189 0.17321 0.77223 0.0
H1479 H 0.36773 0.16307 0.81179 0.0
H1480 H 0.3802 0.20566 0.87108 0.0
H1481 H 0.3806 0.18854 0.85108 0.0
C1482 C 0.8533 0.39668 0.77754 0.0
C1483 C 0.86808 0.39472 0.77975 0.0
C1484 C 0.84407 0.39849 0.78928 0.0
C1485 C 0.83995 0.39025 0.82776 0.0
H1486 H 0.8088 0.41765 0.82495 0.0
C1487 C 0.79511 0.39543 0.87148 0.0
C1488 C 0.78111 0.39576 0.86576 0.0
C1489 C 0.80705 0.39684 0.86232 0.0
C1490 C 0.81743 0.40993 0.8259 0.0
H1491 H 0.88481 0.3932 0.79602 0.0
H1492 H 0.86854 0.39629 0.81667 0.0
H1493 H 0.82744 0.41745 0.80644 0.0
H1494 H 0.76867 0.3979 0.846 0.0
H1495 H 0.78934 0.40028 0.83016 0.0
H1496 H 0.82963 0.38246 0.84705 0.0
C1497 C 0.86416 0.3964 0.80579 0.0
C1498 C 0.8281 0.40982 0.8153 0.0
C1499 C 0.87346 0.3947 0.79399 0.0
C1500 C 0.7793 0.39762 0.85078 0.0
C1501 C 0.79116 0.39911 0.84169 0.0
C1502 C 0.82922 0.39035 0.8384 0.0
C1503 C 0.84937 0.39832 0.80354 0.0
C1504 C 0.83925 0.39971 0.81588 0.0
C1505 C 0.80517 0.39873 0.84732 0.0
C1506 C 0.81763 0.39992 0.83733 0.0
H1507 H 0.84881 0.39674 0.76671 0.0
H1508 H 0.8327 0.39971 0.78718 0.0
H1509 H 0.84837 0.38229 0.82846 0.0
H1510 H 0.79683 0.39402 0.88299 0.0
H1511 H 0.81773 0.39655 0.86696 0.0
C1512 C 0.60428 0.2193 0.14501 0.0
C1513 C 0.60503 0.21487 0.13046 0.0
C1514 C 0.60331 0.20906 0.15608 0.0
C1515 C 0.59331 0.17099 0.16341 0.0
H1516 H 0.61645 0.17672 0.19796 0.0
C1517 C 0.59905 0.12708 0.20764 0.0
C1518 C 0.59913 0.1318 0.22213 0.0
C1519 C 0.59945 0.13711 0.19632 0.0
C1520 C 0.60978 0.17504 0.18846 0.0
H1521 H 0.60523 0.19626 0.11606 0.0
H1522 H 0.60361 0.17835 0.13542 0.0
H1523 H 0.61771 0.19442 0.17848 0.0
H1524 H 0.59944 0.15073 0.23612 0.0
H1525 H 0.59997 0.1682 0.21641 0.0
H1526 H 0.58537 0.15161 0.17343 0.0
C1527 C 0.60366 0.18975 0.13826 0.0
C1528 C 0.61052 0.18519 0.1773 0.0
C1529 C 0.60467 0.2 0.12718 0.0
C1530 C 0.59944 0.14674 0.22507 0.0
C1531 C 0.59984 0.15675 0.21377 0.0
C1532 C 0.59256 0.16084 0.17461 0.0
C1533 C 0.60304 0.19417 0.15284 0.0
C1534 C 0.60227 0.1833 0.16466 0.0
C1535 C 0.59995 0.15207 0.19926 0.0
C1536 C 0.60076 0.16277 0.18728 0.0
H1537 H 0.60447 0.23069 0.14786 0.0
H1538 H 0.60265 0.21282 0.16719 0.0
H1539 H 0.5867 0.16933 0.15388 0.0
H1540 H 0.59883 0.11563 0.20503 0.0
H1541 H 0.59968 0.13313 0.18527 0.0
C1542 C 0.86679 0.61007 0.20177 0.0
C1543 C 0.86429 0.60833 0.21666 0.0
C1544 C 0.85533 0.60989 0.192 0.0
C1545 C 0.81777 0.59789 0.18752 0.0
H1546 H 0.81729 0.62711 0.15745 0.0
C1547 C 0.76968 0.60515 0.14828 0.0
C1548 C 0.77328 0.60757 0.13371 0.0
C1549 C 0.78036 0.60536 0.15896 0.0
C1550 C 0.81733 0.6188 0.1657 0.0
H1551 H 0.8479 0.60479 0.23302 0.0
H1552 H 0.82788 0.6045 0.21594 0.0
H1553 H 0.83693 0.62692 0.17488 0.0
H1554 H 0.79084 0.61198 0.11885 0.0
H1555 H 0.80938 0.61215 0.13733 0.0
H1556 H 0.79822 0.58968 0.17821 0.0
C1557 C 0.83869 0.60594 0.21182 0.0
C1558 C 0.82858 0.61869 0.17567 0.0
C1559 C 0.85015 0.60618 0.22159 0.0
C1560 C 0.7877 0.61015 0.13 0.0
C1561 C 0.79834 0.61034 0.14061 0.0
C1562 C 0.80651 0.59797 0.17749 0.0
C1563 C 0.84116 0.60792 0.19694 0.0
C1564 C 0.829 0.60816 0.1866 0.0
C1565 C 0.7948 0.60802 0.15522 0.0
C1566 C 0.80626 0.60834 0.16639 0.0
H1567 H 0.87759 0.61168 0.19766 0.0
H1568 H 0.85757 0.61124 0.18057 0.0
H1569 H 0.81787 0.58958 0.19577 0.0
H1570 H 0.75863 0.60314 0.15144 0.0
H1571 H 0.7773 0.60364 0.17015 0.0
C1572 C 0.38941 0.76769 0.14779 0.0
C1573 C 0.38744 0.77291 0.13365 0.0
C1574 C 0.38908 0.77716 0.15963 0.0
C1575 C 0.37503 0.81257 0.17051 0.0
H1576 H 0.40382 0.8115 0.20088 0.0
C1577 C 0.38359 0.85998 0.20947 0.0
C1578 C 0.38624 0.85718 0.22417 0.0
C1579 C 0.38324 0.84874 0.19939 0.0
C1580 C 0.39558 0.81177 0.19261 0.0
H1581 H 0.38385 0.79213 0.12076 0.0
H1582 H 0.38328 0.80865 0.14141 0.0
H1583 H 0.40439 0.79362 0.18124 0.0
H1584 H 0.39064 0.8404 0.23987 0.0
H1585 H 0.38993 0.82055 0.2221 0.0
H1586 H 0.36625 0.83072 0.18171 0.0
C1587 C 0.38492 0.79722 0.14337 0.0
C1588 C 0.39592 0.80157 0.18136 0.0
C1589 C 0.38533 0.78778 0.13154 0.0
C1590 C 0.38856 0.84285 0.2286 0.0
C1591 C 0.38822 0.83153 0.21844 0.0
C1592 C 0.37465 0.82269 0.18174 0.0
C1593 C 0.38668 0.792 0.15755 0.0
C1594 C 0.38582 0.80207 0.17005 0.0
C1595 C 0.38548 0.83438 0.20373 0.0
C1596 C 0.3851 0.82262 0.19274 0.0
H1597 H 0.3911 0.75627 0.14972 0.0
H1598 H 0.3904 0.77283 0.17044 0.0
H1599 H 0.36691 0.81301 0.16212 0.0
H1600 H 0.38182 0.87091 0.20568 0.0
H1601 H 0.38139 0.85136 0.18811 0.0
C1602 C 0.20581 0.38394 0.12923 0.0
C1603 C 0.22043 0.38569 0.13262 0.0
C1604 C 0.19541 0.38504 0.14001 0.0
C1605 C 0.18989 0.38151 0.17902 0.0
H1606 H 0.15477 0.40228 0.17105 0.0
C1607 C 0.14489 0.38769 0.22157 0.0
C1608 C 0.13078 0.38553 0.21653 0.0
C1609 C 0.15629 0.38883 0.21181 0.0
C1610 C 0.16447 0.39635 0.17339 0.0
H1611 H 0.23569 0.3899 0.14994 0.0
H1612 H 0.2174 0.39175 0.1689 0.0
H1613 H 0.17404 0.40228 0.15317 0.0
H1614 H 0.1175 0.38295 0.19737 0.0
H1615 H 0.13742 0.38474 0.18033 0.0
H1616 H 0.18021 0.37532 0.19912 0.0
C1617 C 0.21404 0.3895 0.15787 0.0
C1618 C 0.1755 0.39637 0.16318 0.0
C1619 C 0.22448 0.38848 0.14703 0.0
C1620 C 0.12826 0.38463 0.20156 0.0
C1621 C 0.13966 0.38576 0.1918 0.0
C1622 C 0.17883 0.38144 0.18923 0.0
C1623 C 0.1994 0.38785 0.15443 0.0
C1624 C 0.18823 0.38877 0.16579 0.0
C1625 C 0.15381 0.38785 0.19683 0.0
C1626 C 0.16592 0.38868 0.18643 0.0
H1627 H 0.20235 0.38172 0.11823 0.0
H1628 H 0.18422 0.38348 0.13708 0.0
H1629 H 0.19953 0.37544 0.18125 0.0
H1630 H 0.14713 0.3885 0.23307 0.0
H1631 H 0.16705 0.3906 0.216 0.0
C1632 C 0.77333 0.60322 0.84659 0.0
C1633 C 0.77694 0.60648 0.86101 0.0
C1634 C 0.78411 0.60109 0.83629 0.0
C1635 C 0.82239 0.60918 0.82928 0.0
H1636 H 0.81818 0.5792 0.79999 0.0
C1637 C 0.86682 0.59773 0.78742 0.0
C1638 C 0.86201 0.59708 0.77301 0.0
C1639 C 0.85696 0.59731 0.79884 0.0
C1640 C 0.81947 0.58763 0.8081 0.0
H1641 H 0.79461 0.61004 0.876 0.0
H1642 H 0.81335 0.60614 0.85812 0.0
H1643 H 0.79973 0.58186 0.81858 0.0
H1644 H 0.84321 0.59487 0.75923 0.0
H1645 H 0.82607 0.59413 0.77911 0.0
H1646 H 0.84206 0.61502 0.81873 0.0
C1647 C 0.80224 0.60543 0.85468 0.0
C1648 C 0.80889 0.5892 0.81869 0.0
C1649 C 0.79149 0.6076 0.86495 0.0
C1650 C 0.84724 0.59546 0.77023 0.0
C1651 C 0.83742 0.59493 0.78162 0.0
C1652 C 0.83298 0.60757 0.81873 0.0
C1653 C 0.79868 0.60217 0.84023 0.0
C1654 C 0.81016 0.6001 0.8293 0.0
C1655 C 0.84215 0.59609 0.79602 0.0
C1656 C 0.83155 0.5969 0.80793 0.0
H1657 H 0.7622 0.60231 0.84326 0.0
H1658 H 0.78102 0.5988 0.82519 0.0
H1659 H 0.82359 0.61782 0.83717 0.0
H1660 H 0.87816 0.59894 0.78987 0.0
H1661 H 0.8609 0.59809 0.80986 0.0
C1662 C 0.38807 0.86476 0.7899 0.0
C1663 C 0.38904 0.86105 0.77516 0.0
C1664 C 0.38989 0.85429 0.80058 0.0
C1665 C 0.40501 0.81806 0.80697 0.0
H1666 H 0.37971 0.81827 0.84035 0.0
C1667 C 0.40001 0.77022 0.84668 0.0
C1668 C 0.39864 0.77335 0.86152 0.0
C1669 C 0.39997 0.78132 0.83647 0.0
C1670 C 0.387 0.8182 0.83121 0.0
H1671 H 0.39266 0.84348 0.76001 0.0
H1672 H 0.39563 0.82505 0.77872 0.0
H1673 H 0.37706 0.83663 0.82168 0.0
H1674 H 0.39652 0.7906 0.87736 0.0
H1675 H 0.39645 0.81008 0.85945 0.0
H1676 H 0.41479 0.79946 0.81644 0.0
C1677 C 0.39366 0.83613 0.78201 0.0
C1678 C 0.38547 0.8287 0.82049 0.0
C1679 C 0.39186 0.84664 0.7713 0.0
C1680 C 0.39756 0.78786 0.86599 0.0
C1681 C 0.39744 0.79899 0.85574 0.0
C1682 C 0.40651 0.80752 0.81768 0.0
C1683 C 0.39267 0.83985 0.79678 0.0
C1684 C 0.39442 0.82872 0.80821 0.0
C1685 C 0.3985 0.79581 0.84086 0.0
C1686 C 0.39747 0.80744 0.82987 0.0
H1687 H 0.38596 0.8758 0.79323 0.0
H1688 H 0.38927 0.85757 0.81184 0.0
H1689 H 0.41224 0.81792 0.79777 0.0
H1690 H 0.40089 0.75914 0.8429 0.0
H1691 H 0.40065 0.77851 0.82509 0.0
C1692 C 0.2028 0.3842 0.86262 0.0
C1693 C 0.21738 0.38533 0.85883 0.0
C1694 C 0.19214 0.3859 0.85217 0.0
C1695 C 0.18568 0.40135 0.816 0.0
H1696 H 0.15206 0.37614 0.81658 0.0
C1697 C 0.14548 0.39689 0.7687 0.0
C1698 C 0.13079 0.39568 0.77203 0.0
C1699 C 0.15577 0.39675 0.77967 0.0
C1700 C 0.16129 0.3834 0.81641 0.0
H1701 H 0.23228 0.38893 0.84113 0.0
H1702 H 0.21359 0.39164 0.82274 0.0
H1703 H 0.17083 0.37309 0.83469 0.0
H1704 H 0.1153 0.39378 0.78948 0.0
H1705 H 0.13337 0.39352 0.80875 0.0
H1706 H 0.17618 0.4115 0.79755 0.0
C1707 C 0.21042 0.38969 0.83386 0.0
C1708 C 0.17206 0.38164 0.82676 0.0
C1709 C 0.22111 0.38803 0.84435 0.0
C1710 C 0.12656 0.3947 0.7866 0.0
C1711 C 0.13689 0.39447 0.7976 0.0
C1712 C 0.17492 0.40307 0.80561 0.0
C1713 C 0.19581 0.38869 0.83768 0.0
C1714 C 0.18439 0.39057 0.82665 0.0
C1715 C 0.1516 0.39533 0.79422 0.0
C1716 C 0.16265 0.39407 0.80569 0.0
H1717 H 0.19958 0.38217 0.8737 0.0
H1718 H 0.181 0.38526 0.85551 0.0
H1719 H 0.19494 0.40857 0.81577 0.0
H1720 H 0.14908 0.3977 0.75757 0.0
H1721 H 0.16702 0.39729 0.77672 0.0
C1722 C 0.60429 0.14565 0.77181 0.0
C1723 C 0.60618 0.13118 0.77596 0.0
C1724 C 0.60264 0.15648 0.78229 0.0
C1725 C 0.60953 0.16444 0.82098 0.0
H1726 H 0.58192 0.19499 0.81501 0.0
C1727 C 0.59743 0.20719 0.86504 0.0
C1728 C 0.59707 0.22161 0.86025 0.0
C1729 C 0.59759 0.19578 0.85504 0.0
C1730 C 0.58973 0.18657 0.81679 0.0
H1731 H 0.60781 0.11667 0.79431 0.0
H1732 H 0.60478 0.13549 0.81256 0.0
H1733 H 0.58433 0.17589 0.79687 0.0
H1734 H 0.59623 0.23538 0.84127 0.0
H1735 H 0.59655 0.21551 0.82387 0.0
H1736 H 0.61496 0.17516 0.84087 0.0
C1737 C 0.60476 0.13854 0.80124 0.0
C1738 C 0.59115 0.17566 0.80638 0.0
C1739 C 0.60643 0.12774 0.79077 0.0
C1740 C 0.59653 0.22438 0.8453 0.0
C1741 C 0.59662 0.21299 0.83533 0.0
C1742 C 0.60809 0.17533 0.8314 0.0
C1743 C 0.60284 0.15304 0.79713 0.0
C1744 C 0.60113 0.16451 0.80831 0.0
C1745 C 0.59731 0.19857 0.84007 0.0
C1746 C 0.59825 0.18658 0.82937 0.0
H1747 H 0.60407 0.14862 0.76047 0.0
H1748 H 0.60138 0.16757 0.77877 0.0
H1749 H 0.61746 0.15613 0.82271 0.0
H1750 H 0.59781 0.20473 0.8765 0.0
H1751 H 0.59796 0.18476 0.85901 0.0
C1752 C 0.8689 0.3954 0.20303 0.0
C1753 C 0.86356 0.39394 0.21721 0.0
C1754 C 0.85959 0.39452 0.19112 0.0
C1755 C 0.824 0.37993 0.18077 0.0
H1756 H 0.82544 0.40789 0.14951 0.0
C1757 C 0.77601 0.38885 0.14363 0.0
C1758 C 0.77828 0.39039 0.12867 0.0
C1759 C 0.78757 0.38862 0.1532 0.0
C1760 C 0.82506 0.39987 0.15804 0.0
H1761 H 0.84427 0.39067 0.23003 0.0
H1762 H 0.82811 0.38921 0.20935 0.0
H1763 H 0.84366 0.40885 0.16869 0.0
H1764 H 0.7945 0.39312 0.11201 0.0
H1765 H 0.81488 0.3928 0.12892 0.0
H1766 H 0.80532 0.37111 0.17037 0.0
C1767 C 0.83949 0.39084 0.20739 0.0
C1768 C 0.83547 0.40042 0.16902 0.0
C1769 C 0.84874 0.39178 0.21925 0.0
C1770 C 0.79242 0.39189 0.12349 0.0
C1771 C 0.80407 0.39175 0.13315 0.0
C1772 C 0.81366 0.37938 0.16985 0.0
C1773 C 0.8448 0.39206 0.19318 0.0
C1774 C 0.8348 0.39068 0.1807 0.0
C1775 C 0.80173 0.38997 0.1481 0.0
C1776 C 0.81383 0.38957 0.15857 0.0
H1777 H 0.88027 0.39708 0.20112 0.0
H1778 H 0.86399 0.39547 0.1803 0.0
H1779 H 0.82341 0.37205 0.18942 0.0
H1780 H 0.76526 0.38773 0.148 0.0
H1781 H 0.78539 0.38751 0.16468 0.0
C1782 C 0.60406 0.84559 0.22466 0.0
C1783 C 0.60633 0.85959 0.2191 0.0
C1784 C 0.60447 0.83351 0.21552 0.0
C1785 C 0.61912 0.82154 0.18063 0.0
H1786 H 0.58985 0.79134 0.18247 0.0
C1787 C 0.6107 0.78103 0.13453 0.0
C1788 C 0.60763 0.76647 0.13778 0.0
C1789 C 0.61116 0.79145 0.14544 0.0
C1790 C 0.59823 0.79955 0.182 0.0
H1791 H 0.61059 0.87197 0.19963 0.0
H1792 H 0.61131 0.85086 0.18364 0.0
H1793 H 0.58919 0.81159 0.19961 0.0
H1794 H 0.60265 0.75137 0.15504 0.0
H1795 H 0.60353 0.76975 0.17432 0.0
H1796 H 0.62813 0.80965 0.16301 0.0
C1797 C 0.60936 0.84922 0.19509 0.0
C1798 C 0.59783 0.81116 0.19177 0.0
C1799 C 0.60886 0.8613 0.20422 0.0
C1800 C 0.60505 0.76252 0.15224 0.0
C1801 C 0.60549 0.77303 0.16324 0.0
C1802 C 0.61956 0.80994 0.17093 0.0
C1803 C 0.60726 0.8352 0.20067 0.0
C1804 C 0.60811 0.82241 0.19098 0.0
C1805 C 0.6086 0.78761 0.15992 0.0
C1806 C 0.60895 0.79898 0.1713 0.0
H1807 H 0.60206 0.84394 0.2361 0.0
H1808 H 0.6029 0.82283 0.22012 0.0
H1809 H 0.62737 0.82987 0.17999 0.0
H1810 H 0.6127 0.78445 0.12349 0.0
H1811 H 0.6133 0.80261 0.14247 0.0
C1812 C 0.12641 0.59867 0.20429 0.0
C1813 C 0.1317 0.60015 0.2185 0.0
C1814 C 0.13578 0.59938 0.19243 0.0
C1815 C 0.17162 0.61335 0.18215 0.0
H1816 H 0.16958 0.58517 0.15091 0.0
C1817 C 0.21907 0.60381 0.14423 0.0
C1818 C 0.21651 0.60182 0.12935 0.0
C1819 C 0.20769 0.60434 0.15401 0.0
C1820 C 0.17014 0.59325 0.15944 0.0
H1821 H 0.15095 0.60336 0.23142 0.0
H1822 H 0.16722 0.60455 0.21083 0.0
H1823 H 0.15149 0.58463 0.17016 0.0
H1824 H 0.19997 0.5987 0.11306 0.0
H1825 H 0.17992 0.59959 0.1303 0.0
H1826 H 0.19033 0.62185 0.17163 0.0
C1827 C 0.15584 0.60301 0.2088 0.0
C1828 C 0.1598 0.59293 0.17046 0.0
C1829 C 0.14652 0.60223 0.22062 0.0
C1830 C 0.20226 0.60026 0.12446 0.0
C1831 C 0.19081 0.60072 0.13432 0.0
C1832 C 0.1819 0.61367 0.17116 0.0
C1833 C 0.15058 0.6017 0.19457 0.0
C1834 C 0.16064 0.60277 0.18211 0.0
C1835 C 0.19343 0.60286 0.1492 0.0
C1836 C 0.18149 0.60342 0.15987 0.0
H1837 H 0.11504 0.59704 0.20231 0.0
H1838 H 0.13141 0.59838 0.18159 0.0
H1839 H 0.17236 0.62129 0.19079 0.0
H1840 H 0.22991 0.605 0.14838 0.0
H1841 H 0.2101 0.60573 0.16542 0.0
C1842 C 0.39102 0.2299 0.14898 0.0
C1843 C 0.38892 0.22551 0.13454 0.0
C1844 C 0.39048 0.21969 0.16017 0.0
C1845 C 0.37621 0.18316 0.16816 0.0
H1846 H 0.40559 0.18205 0.19793 0.0
C1847 C 0.38535 0.13258 0.20242 0.0
C1848 C 0.38724 0.13453 0.21739 0.0
C1849 C 0.38536 0.14449 0.19318 0.0
C1850 C 0.39722 0.18234 0.18978 0.0
H1851 H 0.38479 0.20704 0.12044 0.0
H1852 H 0.38398 0.18939 0.13979 0.0
H1853 H 0.40568 0.20184 0.18034 0.0
H1854 H 0.39096 0.1504 0.23442 0.0
H1855 H 0.391 0.17126 0.21819 0.0
H1856 H 0.36788 0.16358 0.17737 0.0
C1857 C 0.38582 0.20067 0.14257 0.0
C1858 C 0.39726 0.19367 0.17975 0.0
C1859 C 0.38639 0.21079 0.13146 0.0
C1860 C 0.38944 0.14859 0.22291 0.0
C1861 C 0.38952 0.16052 0.21364 0.0
C1862 C 0.3762 0.17186 0.17813 0.0
C1863 C 0.38774 0.20499 0.15704 0.0
C1864 C 0.38692 0.194 0.16866 0.0
C1865 C 0.38732 0.15859 0.19871 0.0
C1866 C 0.38686 0.17118 0.18885 0.0
H1867 H 0.39301 0.24118 0.15163 0.0
H1868 H 0.39197 0.22331 0.17125 0.0
H1869 H 0.36792 0.1833 0.15992 0.0
H1870 H 0.3837 0.12186 0.19786 0.0
H1871 H 0.38387 0.14267 0.18167 0.0
C1872 C 0.85451 0.78174 0.59886 0.0
C1873 C 0.8693 0.78404 0.60097 0.0
C1874 C 0.84535 0.79338 0.59691 0.0
C1875 C 0.84098 0.83165 0.6051 0.0
H1876 H 0.81005 0.82797 0.57709 0.0
C1877 C 0.79473 0.87335 0.6001 0.0
C1878 C 0.78096 0.86693 0.59981 0.0
C1879 C 0.80699 0.86481 0.59854 0.0
C1880 C 0.81863 0.82917 0.58494 0.0
H1881 H 0.88613 0.80038 0.60266 0.0
H1882 H 0.86993 0.82095 0.59937 0.0
H1883 H 0.82918 0.81017 0.57729 0.0
H1884 H 0.76922 0.84661 0.59752 0.0
H1885 H 0.79047 0.83182 0.59481 0.0
H1886 H 0.83009 0.85042 0.61305 0.0
C1887 C 0.86552 0.81004 0.59921 0.0
C1888 C 0.82958 0.819 0.58505 0.0
C1889 C 0.87477 0.7983 0.60106 0.0
C1890 C 0.77967 0.85189 0.59779 0.0
C1891 C 0.79185 0.84342 0.59612 0.0
C1892 C 0.82998 0.84187 0.60498 0.0
C1893 C 0.85072 0.80766 0.59706 0.0
C1894 C 0.8406 0.81984 0.59544 0.0
C1895 C 0.80564 0.84976 0.59649 0.0
C1896 C 0.81845 0.84043 0.59521 0.0
H1897 H 0.84993 0.7709 0.59874 0.0
H1898 H 0.83397 0.7912 0.59554 0.0
H1899 H 0.84931 0.83253 0.61326 0.0
H1900 H 0.79604 0.88492 0.60164 0.0
H1901 H 0.81749 0.86997 0.59884 0.0
C1902 C 0.86617 0.20224 0.38365 0.0
C1903 C 0.86352 0.21713 0.3849 0.0
C1904 C 0.85483 0.19226 0.38384 0.0
C1905 C 0.81726 0.18723 0.39509 0.0
H1906 H 0.81822 0.15543 0.36753 0.0
C1907 C 0.77088 0.14515 0.38846 0.0
C1908 C 0.7751 0.13065 0.38709 0.0
C1909 C 0.78114 0.15632 0.38811 0.0
C1910 C 0.81786 0.16419 0.37537 0.0
H1911 H 0.84698 0.23328 0.38754 0.0
H1912 H 0.82707 0.21576 0.38781 0.0
H1913 H 0.83712 0.17387 0.36711 0.0
H1914 H 0.79331 0.11642 0.3845 0.0
H1915 H 0.81117 0.13585 0.384 0.0
H1916 H 0.798 0.17741 0.40341 0.0
C1917 C 0.83794 0.21183 0.38677 0.0
C1918 C 0.82868 0.17474 0.37513 0.0
C1919 C 0.84932 0.22185 0.38655 0.0
C1920 C 0.78973 0.1275 0.38551 0.0
C1921 C 0.79995 0.13864 0.38513 0.0
C1922 C 0.8064 0.17664 0.39533 0.0
C1923 C 0.84059 0.19695 0.38529 0.0
C1924 C 0.82861 0.18625 0.38512 0.0
C1925 C 0.79577 0.15317 0.38632 0.0
C1926 C 0.80672 0.1649 0.3856 0.0
H1927 H 0.87702 0.19828 0.38245 0.0
H1928 H 0.85722 0.18083 0.38294 0.0
H1929 H 0.81699 0.19593 0.40298 0.0
H1930 H 0.75966 0.14787 0.3897 0.0
H1931 H 0.7776 0.16743 0.38896 0.0
C1932 C 0.77261 0.84734 0.39528 0.0
C1933 C 0.77481 0.8623 0.39353 0.0
C1934 C 0.78426 0.83811 0.39685 0.0
C1935 C 0.8226 0.83475 0.38873 0.0
H1936 H 0.81994 0.80292 0.41596 0.0
C1937 C 0.8672 0.79161 0.39499 0.0
C1938 C 0.86212 0.77722 0.39521 0.0
C1939 C 0.85761 0.80314 0.39614 0.0
C1940 C 0.82083 0.81173 0.40828 0.0
H1941 H 0.79097 0.87935 0.39206 0.0
H1942 H 0.81141 0.86312 0.39475 0.0
H1943 H 0.80119 0.82112 0.41552 0.0
H1944 H 0.84304 0.76361 0.39691 0.0
H1945 H 0.82639 0.7836 0.39886 0.0
H1946 H 0.84211 0.82513 0.38129 0.0
C1947 C 0.80064 0.85857 0.39487 0.0
C1948 C 0.81009 0.82214 0.40802 0.0
C1949 C 0.78894 0.86785 0.39338 0.0
C1950 C 0.84731 0.77457 0.39672 0.0
C1951 C 0.83777 0.78604 0.39795 0.0
C1952 C 0.83337 0.8243 0.38899 0.0
C1953 C 0.7984 0.8436 0.39666 0.0
C1954 C 0.81066 0.83356 0.39801 0.0
C1955 C 0.84278 0.80044 0.39765 0.0
C1956 C 0.83239 0.81249 0.39852 0.0
H1957 H 0.76186 0.84272 0.39544 0.0
H1958 H 0.78218 0.82659 0.39797 0.0
H1959 H 0.8233 0.84339 0.38084 0.0
H1960 H 0.87857 0.79398 0.39386 0.0
H1961 H 0.86178 0.81413 0.39595 0.0
C1962 C 0.1281 0.79218 0.38251 0.0
C1963 C 0.13039 0.77733 0.38454 0.0
C1964 C 0.13967 0.80194 0.38261 0.0
C1965 C 0.17697 0.80666 0.39508 0.0
H1966 H 0.17807 0.83687 0.366 0.0
C1967 C 0.22494 0.84693 0.38874 0.0
C1968 C 0.22126 0.86144 0.38637 0.0
C1969 C 0.21437 0.83603 0.38835 0.0
C1970 C 0.17786 0.82857 0.37427 0.0
H1971 H 0.14652 0.76102 0.38847 0.0
H1972 H 0.16675 0.77811 0.38861 0.0
H1973 H 0.15854 0.81909 0.36578 0.0
H1974 H 0.20364 0.87597 0.38192 0.0
H1975 H 0.18528 0.85708 0.38141 0.0
H1976 H 0.19625 0.81627 0.40366 0.0
C1977 C 0.15601 0.7822 0.38701 0.0
C1978 C 0.16667 0.8184 0.37414 0.0
C1979 C 0.14444 0.77243 0.38685 0.0
C1980 C 0.20684 0.86487 0.38372 0.0
C1981 C 0.19632 0.85403 0.38332 0.0
C1982 C 0.18818 0.81688 0.39523 0.0
C1983 C 0.15375 0.79705 0.38479 0.0
C1984 C 0.166 0.80744 0.38464 0.0
C1985 C 0.19995 0.83948 0.38554 0.0
C1986 C 0.18863 0.82805 0.38493 0.0
H1987 H 0.11738 0.79628 0.38076 0.0
H1988 H 0.13757 0.81335 0.38108 0.0
H1989 H 0.17668 0.79839 0.40338 0.0
H1990 H 0.23598 0.84398 0.39081 0.0
H1991 H 0.2175 0.8249 0.39002 0.0
C1992 C 0.20206 0.12349 0.39169 0.0
C1993 C 0.21619 0.12903 0.39202 0.0
C1994 C 0.19037 0.13279 0.39322 0.0
C1995 C 0.18104 0.16921 0.40676 0.0
H1996 H 0.14957 0.16707 0.37927 0.0
C1997 C 0.14531 0.21773 0.39501 0.0
C1998 C 0.13047 0.21544 0.39335 0.0
C1999 C 0.15455 0.20602 0.39627 0.0
C2000 C 0.15815 0.16766 0.38718 0.0
H2001 H 0.22915 0.1486 0.39428 0.0
H2002 H 0.20888 0.16471 0.39688 0.0
H2003 H 0.16799 0.14838 0.37904 0.0
H2004 H 0.11363 0.19908 0.39169 0.0
H2005 H 0.12988 0.17852 0.3938 0.0
H2006 H 0.17148 0.18866 0.41465 0.0
C2007 C 0.20678 0.15321 0.3956 0.0
C2008 C 0.16869 0.15696 0.38705 0.0
C2009 C 0.2184 0.14397 0.39399 0.0
C2010 C 0.12503 0.20117 0.39295 0.0
C2011 C 0.13432 0.18941 0.39412 0.0
C2012 C 0.17056 0.17988 0.40688 0.0
C2013 C 0.19264 0.14775 0.39524 0.0
C2014 C 0.18044 0.15786 0.39659 0.0
C2015 C 0.14917 0.19174 0.39583 0.0
C2016 C 0.15922 0.17943 0.39683 0.0
H2017 H 0.20004 0.112 0.39019 0.0
H2018 H 0.17958 0.12829 0.39295 0.0
H2019 H 0.18982 0.17002 0.41445 0.0
H2020 H 0.14983 0.22859 0.39534 0.0
H2021 H 0.16597 0.20816 0.39734 0.0
C2022 C 0.21933 0.14298 0.60283 0.0
C2023 C 0.21773 0.12787 0.60171 0.0
C2024 C 0.20731 0.15183 0.60334 0.0
C2025 C 0.1691 0.15391 0.5941 0.0
H2026 H 0.17012 0.18563 0.62178 0.0
C2027 C 0.12305 0.19599 0.60154 0.0
C2028 C 0.12786 0.21046 0.60242 0.0
C2029 C 0.13293 0.18463 0.60177 0.0
C2030 C 0.16969 0.17685 0.61396 0.0
H2031 H 0.20227 0.1102 0.59994 0.0
H2032 H 0.18114 0.1258 0.6008 0.0
H2033 H 0.1894 0.16805 0.62162 0.0
H2034 H 0.14677 0.22437 0.60387 0.0
H2035 H 0.16383 0.20472 0.60422 0.0
H2036 H 0.14943 0.163 0.58629 0.0
C2037 C 0.19175 0.13072 0.60128 0.0
C2038 C 0.18073 0.16679 0.61386 0.0
C2039 C 0.20383 0.12181 0.60084 0.0
C2040 C 0.14268 0.21335 0.60327 0.0
C2041 C 0.15247 0.20208 0.60357 0.0
C2042 C 0.15799 0.16403 0.5942 0.0
C2043 C 0.19339 0.14582 0.60271 0.0
C2044 C 0.18077 0.15544 0.6037 0.0
C2045 C 0.14773 0.1876 0.60301 0.0
C2046 C 0.1584 0.17582 0.60388 0.0
H2047 H 0.22989 0.148 0.60345 0.0
H2048 H 0.20893 0.16344 0.60418 0.0
H2049 H 0.16887 0.14527 0.58614 0.0
H2050 H 0.11168 0.19344 0.60084 0.0
H2051 H 0.12898 0.17355 0.60132 0.0
C2052 C 0.7895 0.12825 0.60746 0.0
C2053 C 0.77498 0.13216 0.60677 0.0
C2054 C 0.80034 0.13866 0.60579 0.0
C2055 C 0.8073 0.17524 0.5912 0.0
H2056 H 0.84107 0.17382 0.61578 0.0
C2057 C 0.84831 0.22225 0.59594 0.0
C2058 C 0.86295 0.21883 0.59685 0.0
C2059 C 0.83784 0.21133 0.59608 0.0
C2060 C 0.8318 0.17423 0.6087 0.0
H2061 H 0.76038 0.15005 0.60391 0.0
H2062 H 0.77936 0.16836 0.60122 0.0
H2063 H 0.82206 0.15569 0.61863 0.0
H2064 H 0.87815 0.20127 0.59825 0.0
H2065 H 0.85978 0.1821 0.59849 0.0
H2066 H 0.817 0.19394 0.58142 0.0
C2067 C 0.78235 0.15718 0.60283 0.0
C2068 C 0.8209 0.16386 0.61034 0.0
C2069 C 0.77149 0.14672 0.60447 0.0
C2070 C 0.86694 0.20422 0.59756 0.0
C2071 C 0.85643 0.19327 0.59778 0.0
C2072 C 0.8182 0.18564 0.58959 0.0
C2073 C 0.7969 0.15325 0.60344 0.0
C2074 C 0.8085 0.16427 0.60164 0.0
C2075 C 0.84177 0.19673 0.5972 0.0
C2076 C 0.83054 0.18528 0.59836 0.0
H2077 H 0.79254 0.11709 0.60917 0.0
H2078 H 0.81142 0.13523 0.60612 0.0
H2079 H 0.798 0.17571 0.58417 0.0
H2080 H 0.84488 0.23341 0.59536 0.0
H2081 H 0.82663 0.21435 0.59577 0.0
C2082 C 0.20348 0.86542 0.60653 0.0
C2083 C 0.21799 0.86163 0.60513 0.0
C2084 C 0.19265 0.85491 0.60522 0.0
C2085 C 0.18546 0.81804 0.59089 0.0
H2086 H 0.15307 0.81889 0.61729 0.0
C2087 C 0.14636 0.7698 0.59779 0.0
C2088 C 0.13163 0.77273 0.59901 0.0
C2089 C 0.15648 0.78106 0.59777 0.0
C2090 C 0.16195 0.81862 0.60972 0.0
H2091 H 0.23255 0.84388 0.60128 0.0
H2092 H 0.21365 0.82545 0.59923 0.0
H2093 H 0.17167 0.83765 0.61891 0.0
H2094 H 0.11593 0.78979 0.60105 0.0
H2095 H 0.13369 0.80955 0.60104 0.0
H2096 H 0.17583 0.79887 0.58186 0.0
C2097 C 0.21062 0.83659 0.6011 0.0
C2098 C 0.17261 0.82936 0.61064 0.0
C2099 C 0.22146 0.84712 0.60238 0.0
C2100 C 0.12721 0.7872 0.60011 0.0
C2101 C 0.13737 0.79849 0.60017 0.0
C2102 C 0.17483 0.80727 0.59001 0.0
C2103 C 0.19608 0.84036 0.60252 0.0
C2104 C 0.18455 0.82915 0.6013 0.0
C2105 C 0.15212 0.79553 0.59903 0.0
C2106 C 0.16301 0.80739 0.59948 0.0
H2107 H 0.20046 0.87654 0.60859 0.0
H2108 H 0.18156 0.85823 0.60616 0.0
H2109 H 0.19436 0.8177 0.58334 0.0
H2110 H 0.15011 0.75876 0.59694 0.0
H2111 H 0.16776 0.77841 0.59706 0.0
C2112 C 0.11046 0.26908 0.44606 0.0
C2113 C 0.10851 0.25732 0.43651 0.0
C2114 C 0.11223 0.26677 0.46087 0.0
C2115 C 0.1036 0.24104 0.48957 0.0
H2116 H 0.13034 0.26486 0.51171 0.0
C2117 C 0.10644 0.23963 0.5524 0.0
C2118 C 0.10633 0.25343 0.55894 0.0
C2119 C 0.1087 0.2382 0.53747 0.0
C2120 C 0.12283 0.25812 0.50567 0.0
H2121 H 0.10709 0.23386 0.4351 0.0
H2122 H 0.11011 0.22988 0.46108 0.0
H2123 H 0.13071 0.26584 0.48531 0.0
H2124 H 0.10883 0.2765 0.55487 0.0
H2125 H 0.11264 0.27398 0.52904 0.0
H2126 H 0.0954 0.2337 0.50998 0.0
C2127 C 0.11022 0.24087 0.45701 0.0
C2128 C 0.12303 0.25869 0.49058 0.0
C2129 C 0.10854 0.24317 0.44214 0.0
C2130 C 0.1088 0.26569 0.55026 0.0
C2131 C 0.11113 0.26425 0.53542 0.0
C2132 C 0.10338 0.24048 0.50471 0.0
C2133 C 0.11205 0.25266 0.46652 0.0
C2134 C 0.11315 0.25048 0.48238 0.0
C2135 C 0.11103 0.25052 0.52884 0.0
C2136 C 0.11271 0.24935 0.5129 0.0
H2137 H 0.11052 0.28012 0.44213 0.0
H2138 H 0.11339 0.2761 0.46795 0.0
H2139 H 0.0958 0.23465 0.48353 0.0
H2140 H 0.10461 0.22995 0.55878 0.0
H2141 H 0.10863 0.22747 0.53267 0.0
C2142 C 0.74551 0.10502 0.5523 0.0
C2143 C 0.75813 0.10973 0.55933 0.0
C2144 C 0.74408 0.10651 0.53725 0.0
C2145 C 0.76742 0.10904 0.50528 0.0
H2146 H 0.7327 0.11808 0.48407 0.0
C2147 C 0.76951 0.11556 0.44417 0.0
C2148 C 0.75899 0.10816 0.43601 0.0
C2149 C 0.76782 0.1175 0.45904 0.0
C2150 C 0.74244 0.11545 0.48988 0.0
H2151 H 0.77856 0.12086 0.55636 0.0
H2152 H 0.77595 0.12375 0.53035 0.0
H2153 H 0.73253 0.11848 0.51069 0.0
H2154 H 0.738 0.09777 0.43691 0.0
H2155 H 0.73517 0.10092 0.46315 0.0
H2156 H 0.77735 0.10582 0.48473 0.0
C2157 C 0.76735 0.11845 0.53629 0.0
C2158 C 0.74234 0.11568 0.50509 0.0
C2159 C 0.76883 0.11683 0.55122 0.0
C2160 C 0.74632 0.10347 0.44294 0.0
C2161 C 0.74468 0.10531 0.45794 0.0
C2162 C 0.76752 0.10882 0.49021 0.0
C2163 C 0.75522 0.11284 0.52904 0.0
C2164 C 0.75491 0.11261 0.51294 0.0
C2165 C 0.75564 0.11196 0.4662 0.0
C2166 C 0.7551 0.11216 0.48229 0.0
H2167 H 0.73706 0.09953 0.55829 0.0
H2168 H 0.7346 0.10208 0.53198 0.0
H2169 H 0.77718 0.10619 0.51096 0.0
H2170 H 0.77926 0.11958 0.43911 0.0
H2171 H 0.77628 0.12303 0.46502 0.0
C2172 C 0.88474 0.74956 0.44381 0.0
C2173 C 0.88457 0.73546 0.43796 0.0
C2174 C 0.88319 0.75174 0.45873 0.0
C2175 C 0.87062 0.73377 0.49219 0.0
H2176 H 0.89885 0.75828 0.51153 0.0
C2177 C 0.88526 0.72662 0.55182 0.0
C2178 C 0.88804 0.73891 0.56047 0.0
C2179 C 0.88286 0.728 0.53699 0.0
C2180 C 0.89071 0.75162 0.50628 0.0
H2181 H 0.88228 0.71263 0.44322 0.0
H2182 H 0.87963 0.71645 0.46912 0.0
H2183 H 0.89805 0.75751 0.48509 0.0
H2184 H 0.89023 0.76235 0.56027 0.0
H2185 H 0.88606 0.76472 0.53423 0.0
H2186 H 0.86353 0.72757 0.51334 0.0
C2187 C 0.88086 0.72583 0.46218 0.0
C2188 C 0.89026 0.75118 0.49115 0.0
C2189 C 0.8825 0.72364 0.44732 0.0
C2190 C 0.88818 0.75265 0.55392 0.0
C2191 C 0.88583 0.75402 0.53902 0.0
C2192 C 0.87106 0.73423 0.50729 0.0
C2193 C 0.8813 0.73988 0.46806 0.0
C2194 C 0.88047 0.74193 0.48397 0.0
C2195 C 0.88318 0.74169 0.53041 0.0
C2196 C 0.88138 0.74284 0.51449 0.0
H2197 H 0.88629 0.75892 0.43691 0.0
H2198 H 0.88349 0.76269 0.46298 0.0
H2199 H 0.86277 0.72676 0.48694 0.0
H2200 H 0.88504 0.71586 0.55646 0.0
H2201 H 0.88109 0.71827 0.53062 0.0
C2202 C 0.24852 0.88914 0.44184 0.0
C2203 C 0.2348 0.888 0.43549 0.0
C2204 C 0.25024 0.88765 0.45685 0.0
C2205 C 0.23182 0.87341 0.48952 0.0
H2206 H 0.25427 0.90235 0.51038 0.0
C2207 C 0.22211 0.88598 0.54939 0.0
C2208 C 0.23388 0.88876 0.55858 0.0
C2209 C 0.22406 0.88429 0.53451 0.0
C2210 C 0.24816 0.89403 0.50471 0.0
H2211 H 0.21218 0.88411 0.44 0.0
H2212 H 0.21518 0.88161 0.46596 0.0
H2213 H 0.25444 0.90215 0.48389 0.0
H2214 H 0.25702 0.89182 0.55925 0.0
H2215 H 0.26042 0.8889 0.53308 0.0
H2216 H 0.22521 0.86554 0.51027 0.0
C2217 C 0.22464 0.88352 0.45938 0.0
C2218 C 0.24827 0.89391 0.48953 0.0
C2219 C 0.22291 0.88507 0.44446 0.0
C2220 C 0.24772 0.88969 0.55249 0.0
C2221 C 0.24966 0.88808 0.53751 0.0
C2222 C 0.23171 0.87354 0.50464 0.0
C2223 C 0.23829 0.88486 0.46578 0.0
C2224 C 0.23978 0.88384 0.48178 0.0
C2225 C 0.23783 0.88536 0.52837 0.0
C2226 C 0.23956 0.88409 0.51241 0.0
H2227 H 0.25791 0.89138 0.43526 0.0
H2228 H 0.2609 0.88866 0.46146 0.0
H2229 H 0.22541 0.86532 0.48387 0.0
H2230 H 0.21129 0.88517 0.55365 0.0
H2231 H 0.21469 0.88244 0.52775 0.0
C2232 C 0.1051 0.72288 0.54299 0.0
C2233 C 0.10653 0.73377 0.55361 0.0
C2234 C 0.10632 0.72624 0.52828 0.0
C2235 C 0.10247 0.75683 0.50323 0.0
H2236 H 0.12125 0.73138 0.4758 0.0
C2237 C 0.10782 0.77191 0.44306 0.0
C2238 C 0.10475 0.76091 0.4329 0.0
C2239 C 0.10948 0.76864 0.45772 0.0
C2240 C 0.11587 0.73854 0.48332 0.0
H2241 H 0.11087 0.7567 0.55702 0.0
H2242 H 0.11308 0.7625 0.53141 0.0
H2243 H 0.12164 0.72561 0.50161 0.0
H2244 H 0.10139 0.73775 0.43022 0.0
H2245 H 0.10409 0.73208 0.45584 0.0
H2246 H 0.09651 0.76965 0.485 0.0
C2247 C 0.11079 0.75139 0.53447 0.0
C2248 C 0.1161 0.73524 0.49809 0.0
C2249 C 0.10957 0.74804 0.54917 0.0
C2250 C 0.10374 0.7465 0.43773 0.0
C2251 C 0.10537 0.74323 0.45242 0.0
C2252 C 0.10223 0.76012 0.48848 0.0
C2253 C 0.109 0.74057 0.52385 0.0
C2254 C 0.10934 0.74431 0.50821 0.0
C2255 C 0.10808 0.75429 0.46261 0.0
C2256 C 0.10886 0.75098 0.47834 0.0
H2257 H 0.10277 0.71177 0.54599 0.0
H2258 H 0.10474 0.71768 0.52037 0.0
H2259 H 0.09694 0.76392 0.5107 0.0
H2260 H 0.10882 0.78312 0.43974 0.0
H2261 H 0.11182 0.77738 0.46525 0.0
C2262 C 0.27013 0.11035 0.44336 0.0
C2263 C 0.25845 0.10744 0.4341 0.0
C2264 C 0.26799 0.11234 0.45816 0.0
C2265 C 0.244 0.10284 0.48779 0.0
H2266 H 0.26601 0.13249 0.50813 0.0
C2267 C 0.24542 0.10742 0.55055 0.0
C2268 C 0.25942 0.10848 0.55624 0.0
C2269 C 0.243 0.10922 0.5357 0.0
C2270 C 0.25977 0.12417 0.5026 0.0
H2271 H 0.23529 0.10437 0.43321 0.0
H2272 H 0.23161 0.10773 0.45926 0.0
H2273 H 0.2659 0.13207 0.48172 0.0
H2274 H 0.2818 0.11261 0.55079 0.0
H2275 H 0.27758 0.11566 0.52508 0.0
H2276 H 0.23833 0.09462 0.50873 0.0
C2277 C 0.2424 0.10848 0.45493 0.0
C2278 C 0.2597 0.12394 0.4875 0.0
C2279 C 0.24453 0.1066 0.44003 0.0
C2280 C 0.27088 0.11168 0.54682 0.0
C2281 C 0.26845 0.11356 0.53207 0.0
C2282 C 0.24408 0.10306 0.50294 0.0
C2283 C 0.25413 0.11141 0.46411 0.0
C2284 C 0.25222 0.11299 0.47996 0.0
C2285 C 0.25452 0.11227 0.52632 0.0
C2286 C 0.25237 0.11345 0.51047 0.0
H2287 H 0.28099 0.11109 0.4392 0.0
H2288 H 0.27726 0.11433 0.46501 0.0
H2289 H 0.23817 0.09424 0.48223 0.0
H2290 H 0.23635 0.10498 0.55752 0.0
H2291 H 0.23215 0.10821 0.53155 0.0
C2292 C 0.89265 0.27142 0.54448 0.0
C2293 C 0.89008 0.26013 0.55439 0.0
C2294 C 0.89169 0.26889 0.52955 0.0
C2295 C 0.89404 0.23916 0.50301 0.0
H2296 H 0.87706 0.26649 0.47636 0.0
C2297 C 0.88617 0.22477 0.44308 0.0
C2298 C 0.88989 0.23539 0.43281 0.0
C2299 C 0.88514 0.2283 0.45775 0.0
C2300 C 0.88195 0.25882 0.48366 0.0
H2301 H 0.88396 0.23744 0.55628 0.0
H2302 H 0.8822 0.23311 0.53036 0.0
H2303 H 0.87721 0.27177 0.50236 0.0
H2304 H 0.89498 0.2582 0.42994 0.0
H2305 H 0.89337 0.26432 0.45565 0.0
H2306 H 0.89893 0.22627 0.48444 0.0
C2307 C 0.88521 0.24386 0.53412 0.0
C2308 C 0.88203 0.26184 0.49854 0.0
C2309 C 0.88617 0.24637 0.54901 0.0
C2310 C 0.8921 0.24975 0.43755 0.0
C2311 C 0.89112 0.25327 0.45228 0.0
C2312 C 0.89398 0.23616 0.48819 0.0
C2313 C 0.88816 0.25502 0.5242 0.0
C2314 C 0.88802 0.252 0.50838 0.0
C2315 C 0.88787 0.24252 0.46257 0.0
C2316 C 0.88788 0.2459 0.47833 0.0
H2317 H 0.89567 0.28216 0.54822 0.0
H2318 H 0.89412 0.2777 0.52219 0.0
H2319 H 0.89902 0.2315 0.51026 0.0
H2320 H 0.8842 0.21364 0.43982 0.0
H2321 H 0.8823 0.21982 0.46535 0.0
C2322 C 0.74693 0.88529 0.44193 0.0
C2323 C 0.73297 0.88533 0.43605 0.0
C2324 C 0.74899 0.88377 0.45687 0.0
C2325 C 0.73072 0.87087 0.48991 0.0
H2326 H 0.75531 0.89838 0.51026 0.0
C2327 C 0.72329 0.88362 0.54993 0.0
C2328 C 0.73544 0.88563 0.55881 0.0
C2329 C 0.72476 0.88196 0.53501 0.0
C2330 C 0.74861 0.89045 0.50472 0.0
H2331 H 0.71026 0.88366 0.44132 0.0
H2332 H 0.71388 0.88107 0.4672 0.0
H2333 H 0.75478 0.89831 0.48377 0.0
H2334 H 0.75873 0.88735 0.55886 0.0
H2335 H 0.76126 0.88444 0.53263 0.0
H2336 H 0.72426 0.86324 0.51078 0.0
C2337 C 0.72323 0.88207 0.46027 0.0
C2338 C 0.74831 0.89041 0.48956 0.0
C2339 C 0.72117 0.88367 0.44542 0.0
C2340 C 0.74914 0.88584 0.55235 0.0
C2341 C 0.7506 0.88422 0.53734 0.0
C2342 C 0.73104 0.87089 0.50501 0.0
C2343 C 0.73714 0.88213 0.46616 0.0
C2344 C 0.73905 0.88089 0.48204 0.0
C2345 C 0.73841 0.88225 0.52853 0.0
C2346 C 0.73967 0.88095 0.51258 0.0
H2347 H 0.75626 0.88654 0.43502 0.0
H2348 H 0.75983 0.8838 0.46114 0.0
H2349 H 0.7237 0.86321 0.48439 0.0
H2350 H 0.71256 0.88343 0.55448 0.0
H2351 H 0.71514 0.88073 0.52849 0.0
C2352 C 0.43838 0.10785 0.24974 0.0
C2353 C 0.43442 0.10788 0.23503 0.0
C2354 C 0.45279 0.10939 0.25377 0.0
C2355 C 0.48851 0.12122 0.24024 0.0
H2356 H 0.50281 0.09461 0.26914 0.0
C2357 C 0.54882 0.10961 0.24792 0.0
C2358 C 0.55392 0.10755 0.26211 0.0
C2359 C 0.53414 0.1112 0.2453 0.0
C2360 C 0.49896 0.10228 0.26122 0.0
H2361 H 0.44254 0.10993 0.21306 0.0
H2362 H 0.46759 0.11244 0.2201 0.0
H2363 H 0.47727 0.09476 0.26348 0.0
H2364 H 0.54756 0.10605 0.2847 0.0
H2365 H 0.52203 0.10898 0.2801 0.0
H2366 H 0.51027 0.12856 0.23782 0.0
C2367 C 0.45955 0.11138 0.22853 0.0
C2368 C 0.48432 0.10237 0.25798 0.0
C2369 C 0.44517 0.10983 0.22449 0.0
C2370 C 0.54403 0.1075 0.27362 0.0
C2371 C 0.52936 0.10911 0.27099 0.0
C2372 C 0.50317 0.12113 0.24349 0.0
C2373 C 0.46355 0.11103 0.2432 0.0
C2374 C 0.47895 0.11172 0.24734 0.0
C2375 C 0.52424 0.11081 0.25679 0.0
C2376 C 0.50858 0.11155 0.2539 0.0
H2377 H 0.43038 0.10645 0.25815 0.0
H2378 H 0.45552 0.10926 0.26518 0.0
H2379 H 0.48466 0.1287 0.23214 0.0
H2380 H 0.55611 0.10972 0.23879 0.0
H2381 H 0.53052 0.11234 0.23421 0.0
C2382 C 0.88698 0.54987 0.22421 0.0
C2383 C 0.88897 0.56054 0.23497 0.0
C2384 C 0.88483 0.53538 0.22799 0.0
C2385 C 0.89196 0.50976 0.25738 0.0
H2386 H 0.86586 0.48472 0.23581 0.0
C2387 C 0.88474 0.44945 0.2716 0.0
C2388 C 0.88489 0.43968 0.25987 0.0
C2389 C 0.88352 0.46432 0.26924 0.0
C2390 C 0.87325 0.49157 0.24188 0.0
H2391 H 0.88986 0.56433 0.25818 0.0
H2392 H 0.88602 0.539 0.26475 0.0
H2393 H 0.86674 0.51063 0.23059 0.0
H2394 H 0.88343 0.43793 0.23644 0.0
H2395 H 0.88146 0.46388 0.23235 0.0
H2396 H 0.89867 0.49071 0.26849 0.0
C2397 C 0.88631 0.54187 0.25338 0.0
C2398 C 0.87376 0.5064 0.2389 0.0
C2399 C 0.88845 0.5564 0.24961 0.0
C2400 C 0.88337 0.44512 0.24574 0.0
C2401 C 0.88215 0.46 0.24339 0.0
C2402 C 0.89146 0.49495 0.26037 0.0
C2403 C 0.88461 0.53118 0.2426 0.0
C2404 C 0.88325 0.51563 0.24649 0.0
C2405 C 0.88242 0.46978 0.2551 0.0
C2406 C 0.88222 0.48565 0.25253 0.0
H2407 H 0.88729 0.55263 0.21282 0.0
H2408 H 0.88375 0.5274 0.21941 0.0
H2409 H 0.89955 0.51654 0.26328 0.0
H2410 H 0.88578 0.44566 0.28264 0.0
H2411 H 0.88353 0.47155 0.27851 0.0
C2412 C 0.54983 0.87674 0.22332 0.0
C2413 C 0.55827 0.88399 0.23376 0.0
C2414 C 0.53507 0.87509 0.22525 0.0
C2415 C 0.50504 0.87732 0.25137 0.0
H2416 H 0.48356 0.88651 0.21665 0.0
C2417 C 0.44298 0.88665 0.24913 0.0
C2418 C 0.43586 0.88148 0.23665 0.0
C2419 C 0.45795 0.88566 0.25031 0.0
C2420 C 0.48937 0.88372 0.2264 0.0
H2421 H 0.55792 0.89445 0.25483 0.0
H2422 H 0.53189 0.89176 0.2581 0.0
H2423 H 0.50959 0.88709 0.21604 0.0
H2424 H 0.43874 0.87016 0.21622 0.0
H2425 H 0.46464 0.86825 0.2184 0.0
H2426 H 0.48458 0.8741 0.26172 0.0
C2427 C 0.5368 0.88728 0.24846 0.0
C2428 C 0.50431 0.88405 0.22606 0.0
C2429 C 0.55169 0.88886 0.24657 0.0
C2430 C 0.4439 0.87452 0.22585 0.0
C2431 C 0.45877 0.87346 0.22707 0.0
C2432 C 0.48997 0.87699 0.25173 0.0
C2433 C 0.5283 0.88075 0.2376 0.0
C2434 C 0.51235 0.88067 0.23845 0.0
C2435 C 0.46603 0.87943 0.23907 0.0
C2436 C 0.48199 0.88001 0.23916 0.0
H2437 H 0.5546 0.8726 0.21346 0.0
H2438 H 0.52888 0.86965 0.21686 0.0
H2439 H 0.51096 0.87467 0.2611 0.0
H2440 H 0.43707 0.89203 0.25766 0.0
H2441 H 0.46325 0.89036 0.25969 0.0
C2442 C 0.10815 0.54353 0.27066 0.0
C2443 C 0.10968 0.55382 0.25955 0.0
C2444 C 0.10929 0.52874 0.26766 0.0
C2445 C 0.10532 0.5029 0.23751 0.0
H2446 H 0.12319 0.47599 0.26401 0.0
C2447 C 0.11031 0.44267 0.22326 0.0
C2448 C 0.10658 0.43267 0.23413 0.0
C2449 C 0.1122 0.45732 0.22657 0.0
C2450 C 0.11807 0.48337 0.25656 0.0
H2451 H 0.11417 0.5566 0.23663 0.0
H2452 H 0.11631 0.53083 0.23147 0.0
H2453 H 0.12398 0.50196 0.2693 0.0
H2454 H 0.10239 0.43022 0.25713 0.0
H2455 H 0.10553 0.45591 0.26286 0.0
H2456 H 0.09927 0.48439 0.22486 0.0
C2457 C 0.11397 0.5342 0.24246 0.0
C2458 C 0.11853 0.49823 0.25958 0.0
C2459 C 0.1128 0.54899 0.24544 0.0
C2460 C 0.10524 0.43763 0.24849 0.0
C2461 C 0.10711 0.45234 0.25179 0.0
C2462 C 0.10488 0.48808 0.23449 0.0
C2463 C 0.11201 0.5239 0.25349 0.0
C2464 C 0.11211 0.50816 0.2501 0.0
C2465 C 0.11037 0.46237 0.24081 0.0
C2466 C 0.11121 0.47814 0.24399 0.0
H2467 H 0.10575 0.54683 0.28166 0.0
H2468 H 0.10758 0.52109 0.27638 0.0
H2469 H 0.10002 0.5102 0.23013 0.0
H2470 H 0.11162 0.43924 0.21211 0.0
H2471 H 0.11499 0.46473 0.21791 0.0
C2472 C 0.43956 0.88767 0.74235 0.0
C2473 C 0.4352 0.88804 0.75694 0.0
C2474 C 0.45405 0.88612 0.73876 0.0
C2475 C 0.48895 0.87427 0.75343 0.0
H2476 H 0.50494 0.89942 0.72383 0.0
C2477 C 0.54991 0.88324 0.7461 0.0
C2478 C 0.55534 0.88487 0.73197 0.0
C2479 C 0.53512 0.88231 0.74854 0.0
C2480 C 0.50061 0.89214 0.73195 0.0
H2481 H 0.44272 0.88686 0.77918 0.0
H2482 H 0.46795 0.88429 0.77289 0.0
H2483 H 0.47934 0.90023 0.72919 0.0
H2484 H 0.5494 0.8863 0.70927 0.0
H2485 H 0.52361 0.88447 0.71355 0.0
H2486 H 0.51025 0.86628 0.75629 0.0
C2487 C 0.46013 0.88505 0.76423 0.0
C2488 C 0.48593 0.89262 0.73503 0.0
C2489 C 0.44566 0.88663 0.76783 0.0
C2490 C 0.54561 0.88516 0.72031 0.0
C2491 C 0.53081 0.88419 0.72276 0.0
C2492 C 0.50362 0.87376 0.75032 0.0
C2493 C 0.4645 0.88488 0.74966 0.0
C2494 C 0.47996 0.8838 0.7459 0.0
C2495 C 0.52539 0.88292 0.73692 0.0
C2496 C 0.50966 0.8828 0.73965 0.0
H2497 H 0.4318 0.88866 0.73367 0.0
H2498 H 0.45706 0.88586 0.72743 0.0
H2499 H 0.48462 0.86717 0.76171 0.0
H2500 H 0.55705 0.88298 0.75537 0.0
H2501 H 0.53131 0.88152 0.7596 0.0
C2502 C 0.10267 0.44839 0.72001 0.0
C2503 C 0.10519 0.43823 0.73103 0.0
C2504 C 0.10378 0.46326 0.72289 0.0
C2505 C 0.10143 0.48888 0.75334 0.0
H2506 H 0.11845 0.51656 0.72671 0.0
C2507 C 0.10806 0.54862 0.76926 0.0
C2508 C 0.10437 0.55899 0.75882 0.0
C2509 C 0.10951 0.53408 0.76541 0.0
C2510 C 0.11356 0.50897 0.7342 0.0
H2511 H 0.11151 0.43581 0.75356 0.0
H2512 H 0.11351 0.46161 0.75847 0.0
H2513 H 0.11844 0.49073 0.72068 0.0
H2514 H 0.0998 0.56223 0.736 0.0
H2515 H 0.10207 0.53677 0.72934 0.0
H2516 H 0.09633 0.50697 0.76677 0.0
C2517 C 0.1104 0.4581 0.74769 0.0
C2518 C 0.11356 0.49419 0.73074 0.0
C2519 C 0.10929 0.44329 0.74484 0.0
C2520 C 0.10264 0.55453 0.74433 0.0
C2521 C 0.10401 0.53993 0.74048 0.0
C2522 C 0.1014 0.5036 0.75677 0.0
C2523 C 0.10742 0.46826 0.73683 0.0
C2524 C 0.10753 0.48398 0.74032 0.0
C2525 C 0.10722 0.5295 0.75103 0.0
C2526 C 0.1075 0.51383 0.74728 0.0
H2527 H 0.09952 0.44488 0.70925 0.0
H2528 H 0.10134 0.47083 0.71432 0.0
H2529 H 0.09643 0.48133 0.76081 0.0
H2530 H 0.10968 0.55169 0.78049 0.0
H2531 H 0.11231 0.52638 0.77374 0.0
C2532 C 0.44803 0.11814 0.76555 0.0
C2533 C 0.43884 0.11218 0.75496 0.0
C2534 C 0.46262 0.1201 0.76277 0.0
C2535 C 0.49152 0.10491 0.74111 0.0
H2536 H 0.51329 0.13668 0.75828 0.0
C2537 C 0.55379 0.10559 0.74361 0.0
C2538 C 0.55919 0.10829 0.75762 0.0
C2539 C 0.53935 0.10819 0.74039 0.0
C2540 C 0.50735 0.12777 0.75337 0.0
H2541 H 0.43773 0.10411 0.73287 0.0
H2542 H 0.46342 0.10749 0.72802 0.0
H2543 H 0.48712 0.13778 0.7574 0.0
H2544 H 0.5538 0.11635 0.77903 0.0
H2545 H 0.52874 0.12088 0.7734 0.0
H2546 H 0.51177 0.09469 0.73755 0.0
C2547 C 0.45924 0.11057 0.73852 0.0
C2548 C 0.49239 0.12839 0.75287 0.0
C2549 C 0.44453 0.1087 0.74128 0.0
C2550 C 0.54998 0.11406 0.76817 0.0
C2551 C 0.53563 0.11679 0.7649 0.0
C2552 C 0.50653 0.10431 0.74157 0.0
C2553 C 0.46846 0.11611 0.74932 0.0
C2554 C 0.48428 0.11673 0.74723 0.0
C2555 C 0.53011 0.11373 0.75104 0.0
C2556 C 0.51455 0.11551 0.74818 0.0
H2557 H 0.44401 0.12105 0.77617 0.0
H2558 H 0.46944 0.1242 0.77141 0.0
H2559 H 0.4856 0.0957 0.73678 0.0
H2560 H 0.56061 0.10116 0.73523 0.0
H2561 H 0.53538 0.10578 0.7296 0.0
C2562 C 0.88484 0.55066 0.74225 0.0
C2563 C 0.88623 0.55695 0.72844 0.0
C2564 C 0.88384 0.53563 0.74377 0.0
C2565 C 0.87548 0.50199 0.72359 0.0
H2566 H 0.89964 0.48371 0.75232 0.0
C2567 C 0.88995 0.44202 0.72031 0.0
C2568 C 0.89047 0.43383 0.73312 0.0
C2569 C 0.88801 0.45695 0.72085 0.0
C2570 C 0.89265 0.48865 0.74441 0.0
H2571 H 0.88738 0.55231 0.70539 0.0
H2572 H 0.8857 0.52613 0.70808 0.0
H2573 H 0.89869 0.5101 0.75112 0.0
H2574 H 0.88927 0.435 0.75659 0.0
H2575 H 0.88584 0.46123 0.75748 0.0
H2576 H 0.86961 0.48059 0.71671 0.0
C2577 C 0.88526 0.53285 0.71772 0.0
C2578 C 0.89211 0.50376 0.74372 0.0
C2579 C 0.88632 0.54786 0.71619 0.0
C2580 C 0.88897 0.44098 0.74651 0.0
C2581 C 0.88704 0.456 0.74704 0.0
C2582 C 0.87599 0.48691 0.7243 0.0
C2583 C 0.88413 0.52656 0.73153 0.0
C2584 C 0.88373 0.51058 0.73311 0.0
C2585 C 0.88651 0.46412 0.73419 0.0
C2586 C 0.88481 0.48008 0.73452 0.0
H2587 H 0.88467 0.55731 0.75193 0.0
H2588 H 0.88282 0.5311 0.75454 0.0
H2589 H 0.86871 0.50694 0.71548 0.0
H2590 H 0.89111 0.43695 0.70979 0.0
H2591 H 0.88793 0.46292 0.71077 0.0
C2592 C 0.26658 0.54455 0.10894 0.0
C2593 C 0.25559 0.55488 0.10855 0.0
C2594 C 0.26329 0.52985 0.1105 0.0
C2595 C 0.23409 0.50366 0.10393 0.0
H2596 H 0.25817 0.47791 0.1262 0.0
C2597 C 0.22185 0.44249 0.10806 0.0
C2598 C 0.2336 0.4332 0.10625 0.0
C2599 C 0.224 0.45736 0.10993 0.0
C2600 C 0.2514 0.48496 0.11987 0.0
H2601 H 0.23252 0.55782 0.11005 0.0
H2602 H 0.22683 0.53214 0.11286 0.0
H2603 H 0.26273 0.504 0.127 0.0
H2604 H 0.25688 0.43232 0.10528 0.0
H2605 H 0.26061 0.45831 0.1084 0.0
H2606 H 0.22291 0.48464 0.09661 0.0
C2607 C 0.23798 0.53545 0.11174 0.0
C2608 C 0.254 0.49989 0.12034 0.0
C2609 C 0.24126 0.55017 0.11019 0.0
C2610 C 0.24757 0.43914 0.10662 0.0
C2611 C 0.24972 0.45403 0.10851 0.0
C2612 C 0.23148 0.48874 0.10348 0.0
C2613 C 0.24895 0.52511 0.11172 0.0
C2614 C 0.24549 0.50938 0.11222 0.0
C2615 C 0.23796 0.46332 0.11007 0.0
C2616 C 0.24022 0.47921 0.11129 0.0
H2617 H 0.27774 0.54775 0.10774 0.0
H2618 H 0.27199 0.52216 0.11027 0.0
H2619 H 0.22748 0.51065 0.09738 0.0
H2620 H 0.21093 0.4383 0.10794 0.0
H2621 H 0.21473 0.46421 0.1113 0.0
C2622 C 0.24476 0.54912 0.88349 0.0
C2623 C 0.25895 0.55448 0.88421 0.0
C2624 C 0.24205 0.53431 0.8816 0.0
C2625 C 0.259 0.49912 0.88764 0.0
H2626 H 0.22732 0.48425 0.86446 0.0
C2627 C 0.24834 0.43798 0.88165 0.0
C2628 C 0.234 0.43336 0.88341 0.0
C2629 C 0.25168 0.45265 0.87993 0.0
C2630 C 0.23616 0.48827 0.87103 0.0
H2631 H 0.28141 0.54848 0.88291 0.0
H2632 H 0.27665 0.52273 0.87948 0.0
H2633 H 0.23269 0.51023 0.86462 0.0
H2634 H 0.21188 0.44055 0.88427 0.0
H2635 H 0.21776 0.46616 0.88146 0.0
H2636 H 0.26236 0.47726 0.89424 0.0
C2637 C 0.26763 0.52995 0.88065 0.0
C2638 C 0.23923 0.50312 0.87113 0.0
C2639 C 0.27035 0.54474 0.88256 0.0
C2640 C 0.22305 0.44372 0.88298 0.0
C2641 C 0.2264 0.4584 0.88127 0.0
C2642 C 0.25595 0.48429 0.88753 0.0
C2643 C 0.25346 0.52455 0.88037 0.0
C2644 C 0.25062 0.50872 0.87954 0.0
C2645 C 0.24077 0.46304 0.87994 0.0
C2646 C 0.24442 0.47871 0.87933 0.0
H2647 H 0.23571 0.5563 0.88468 0.0
H2648 H 0.23101 0.53048 0.88158 0.0
H2649 H 0.26769 0.5031 0.89444 0.0
H2650 H 0.25705 0.4303 0.88178 0.0
H2651 H 0.26284 0.45587 0.8787 0.0
C2652 C 0.43847 0.25325 0.88564 0.0
C2653 C 0.43329 0.23894 0.88426 0.0
C2654 C 0.45317 0.25632 0.88459 0.0
C2655 C 0.48824 0.23882 0.88888 0.0
H2656 H 0.50303 0.27318 0.86968 0.0
C2657 C 0.54886 0.24889 0.88184 0.0
C2658 C 0.55404 0.26294 0.88493 0.0
C2659 C 0.53413 0.24613 0.88068 0.0
C2660 C 0.49904 0.2636 0.87518 0.0
H2661 H 0.43953 0.2167 0.88014 0.0
H2662 H 0.46508 0.2221 0.87815 0.0
H2663 H 0.47722 0.26802 0.86944 0.0
H2664 H 0.54772 0.28518 0.88887 0.0
H2665 H 0.52199 0.28029 0.88696 0.0
H2666 H 0.50998 0.23443 0.89472 0.0
C2667 C 0.4578 0.23091 0.88032 0.0
C2668 C 0.48427 0.26065 0.87505 0.0
C2669 C 0.44312 0.22784 0.8814 0.0
C2670 C 0.54413 0.27423 0.88649 0.0
C2671 C 0.52937 0.27145 0.88532 0.0
C2672 C 0.50297 0.24176 0.889 0.0
C2673 C 0.46302 0.24515 0.88211 0.0
C2674 C 0.47871 0.24822 0.88191 0.0
C2675 C 0.52421 0.25734 0.88257 0.0
C2676 C 0.50855 0.25418 0.88217 0.0
H2677 H 0.43121 0.26208 0.88785 0.0
H2678 H 0.45685 0.26739 0.88614 0.0
H2679 H 0.48428 0.22931 0.89452 0.0
H2680 H 0.55616 0.23994 0.88045 0.0
H2681 H 0.5305 0.23518 0.87832 0.0
C2682 C 0.74669 0.55467 0.88789 0.0
C2683 C 0.76082 0.56023 0.8877 0.0
C2684 C 0.74412 0.53976 0.88674 0.0
C2685 C 0.76188 0.50491 0.89293 0.0
H2686 H 0.72997 0.48901 0.87076 0.0
C2687 C 0.75318 0.44338 0.88612 0.0
C2688 C 0.73902 0.43815 0.88773 0.0
C2689 C 0.75597 0.45823 0.88506 0.0
C2690 C 0.73886 0.4933 0.87709 0.0
H2691 H 0.78329 0.55447 0.88561 0.0
H2692 H 0.77876 0.52856 0.88349 0.0
H2693 H 0.73455 0.51511 0.8707 0.0
H2694 H 0.71667 0.44453 0.88929 0.0
H2695 H 0.7216 0.4704 0.88761 0.0
H2696 H 0.76613 0.48317 0.89945 0.0
C2697 C 0.7697 0.5357 0.8848 0.0
C2698 C 0.74148 0.50824 0.87705 0.0
C2699 C 0.77227 0.55057 0.88596 0.0
C2700 C 0.72771 0.44814 0.88805 0.0
C2701 C 0.73052 0.46299 0.88699 0.0
C2702 C 0.75927 0.48999 0.89297 0.0
C2703 C 0.75561 0.5301 0.88536 0.0
C2704 C 0.75299 0.51421 0.88502 0.0
C2705 C 0.74469 0.46821 0.88559 0.0
C2706 C 0.7477 0.48402 0.8851 0.0
H2707 H 0.73761 0.56178 0.88921 0.0
H2708 H 0.73315 0.53577 0.88735 0.0
H2709 H 0.77069 0.50918 0.89939 0.0
H2710 H 0.76214 0.43601 0.88572 0.0
H2711 H 0.76699 0.46191 0.88378 0.0
C2712 C 0.44647 0.74725 0.88657 0.0
C2713 C 0.44122 0.73302 0.88831 0.0
C2714 C 0.46121 0.75004 0.8859 0.0
C2715 C 0.49622 0.73316 0.87891 0.0
H2716 H 0.51095 0.76548 0.90164 0.0
C2717 C 0.55692 0.74332 0.88914 0.0
C2718 C 0.56184 0.75779 0.88904 0.0
C2719 C 0.54224 0.7401 0.88822 0.0
C2720 C 0.507 0.75653 0.89507 0.0
H2721 H 0.44743 0.71051 0.89036 0.0
H2722 H 0.4732 0.71545 0.88924 0.0
H2723 H 0.48528 0.7602 0.9015 0.0
H2724 H 0.55514 0.78019 0.88741 0.0
H2725 H 0.52963 0.77454 0.88565 0.0
H2726 H 0.518 0.7295 0.87251 0.0
C2727 C 0.46586 0.72441 0.88832 0.0
C2728 C 0.49229 0.7535 0.89501 0.0
C2729 C 0.45108 0.72161 0.88904 0.0
C2730 C 0.55176 0.76893 0.88764 0.0
C2731 C 0.5371 0.7657 0.88671 0.0
C2732 C 0.51097 0.73621 0.87895 0.0
C2733 C 0.47107 0.73868 0.88691 0.0
C2734 C 0.48673 0.74181 0.8869 0.0
C2735 C 0.53216 0.75127 0.88718 0.0
C2736 C 0.51651 0.74797 0.88701 0.0
H2737 H 0.43921 0.75631 0.88588 0.0
H2738 H 0.46491 0.76113 0.88459 0.0
H2739 H 0.49222 0.72416 0.87245 0.0
H2740 H 0.56437 0.73446 0.8902 0.0
H2741 H 0.53876 0.72888 0.88873 0.0
C2742 C 0.7708 0.54829 0.10707 0.0
C2743 C 0.75928 0.55803 0.10696 0.0
C2744 C 0.76827 0.53338 0.10809 0.0
C2745 C 0.74013 0.50598 0.10096 0.0
H2746 H 0.76423 0.48089 0.12394 0.0
C2747 C 0.72635 0.44571 0.1082 0.0
C2748 C 0.73766 0.43582 0.10691 0.0
C2749 C 0.72915 0.46055 0.10923 0.0
C2750 C 0.75749 0.48775 0.11738 0.0
H2751 H 0.73607 0.55968 0.10834 0.0
H2752 H 0.73171 0.53372 0.11025 0.0
H2753 H 0.76876 0.50703 0.12402 0.0
H2754 H 0.76087 0.43384 0.10607 0.0
H2755 H 0.76574 0.45983 0.1077 0.0
H2756 H 0.72893 0.48679 0.09421 0.0
C2757 C 0.74268 0.53761 0.1093 0.0
C2758 C 0.76008 0.50271 0.11743 0.0
C2759 C 0.7452 0.55251 0.10827 0.0
C2760 C 0.75189 0.44114 0.10704 0.0
C2761 C 0.75469 0.45603 0.10804 0.0
C2762 C 0.73755 0.49107 0.10091 0.0
C2763 C 0.75417 0.52786 0.10904 0.0
C2764 C 0.7514 0.51199 0.10923 0.0
C2765 C 0.74334 0.46591 0.10895 0.0
C2766 C 0.74617 0.48177 0.10913 0.0
H2767 H 0.78179 0.55214 0.1061 0.0
H2768 H 0.77735 0.52615 0.10773 0.0
H2769 H 0.73343 0.51279 0.09429 0.0
H2770 H 0.71526 0.44203 0.10828 0.0
H2771 H 0.72018 0.46785 0.11019 0.0
C2772 C 0.54971 0.76469 0.11979 0.0
C2773 C 0.55778 0.75361 0.11338 0.0
C2774 C 0.53479 0.76358 0.12055 0.0
C2775 C 0.50328 0.73904 0.11723 0.0
H2776 H 0.48463 0.7745 0.10554 0.0
C2777 C 0.44183 0.74453 0.10476 0.0
C2778 C 0.43549 0.75754 0.10931 0.0
C2779 C 0.45666 0.74251 0.10636 0.0
C2780 C 0.48963 0.76455 0.10901 0.0
H2781 H 0.55656 0.73227 0.10351 0.0
H2782 H 0.5303 0.73044 0.10467 0.0
H2783 H 0.51063 0.77367 0.10651 0.0
H2784 H 0.43953 0.77809 0.12016 0.0
H2785 H 0.46514 0.77447 0.12312 0.0
H2786 H 0.48204 0.72997 0.11961 0.0
C2787 C 0.5356 0.73994 0.10917 0.0
C2788 C 0.50456 0.76408 0.10957 0.0
C2789 C 0.55063 0.74101 0.10848 0.0
C2790 C 0.4441 0.76806 0.11625 0.0
C2791 C 0.45881 0.76601 0.11792 0.0
C2792 C 0.48822 0.73952 0.11667 0.0
C2793 C 0.52752 0.75143 0.11483 0.0
C2794 C 0.51158 0.75142 0.11389 0.0
C2795 C 0.46535 0.75343 0.11259 0.0
C2796 C 0.48126 0.75238 0.11275 0.0
H2797 H 0.55489 0.77442 0.12392 0.0
H2798 H 0.5289 0.77246 0.12533 0.0
H2799 H 0.5084 0.72913 0.12058 0.0
H2800 H 0.43546 0.7362 0.09941 0.0
H2801 H 0.4614 0.73269 0.10215 0.0
C2802 C 0.54868 0.22494 0.11294 0.0
C2803 C 0.55838 0.23519 0.10721 0.0
C2804 C 0.53437 0.22851 0.11536 0.0
C2805 C 0.50629 0.25205 0.102 0.0
H2806 H 0.48542 0.23685 0.1351 0.0
C2807 C 0.44408 0.25364 0.10585 0.0
C2808 C 0.43783 0.24015 0.10937 0.0
C2809 C 0.45889 0.25599 0.1076 0.0
C2810 C 0.4911 0.2412 0.12581 0.0
H2811 H 0.56069 0.25739 0.09984 0.0
H2812 H 0.53548 0.26359 0.10394 0.0
H2813 H 0.51159 0.23571 0.13463 0.0
H2814 H 0.44217 0.21879 0.11799 0.0
H2815 H 0.46777 0.22287 0.12097 0.0
H2816 H 0.48574 0.25696 0.09291 0.0
C2817 C 0.53906 0.25278 0.10655 0.0
C2818 C 0.50607 0.24056 0.12554 0.0
C2819 C 0.55348 0.24925 0.10427 0.0
C2820 C 0.44661 0.22928 0.11509 0.0
C2821 C 0.4613 0.23167 0.11694 0.0
C2822 C 0.49128 0.25267 0.10225 0.0
C2823 C 0.52934 0.2424 0.11202 0.0
C2824 C 0.51379 0.24551 0.11342 0.0
C2825 C 0.46766 0.24497 0.11307 0.0
C2826 C 0.48351 0.24678 0.11394 0.0
H2827 H 0.5521 0.21404 0.1154 0.0
H2828 H 0.52712 0.2202 0.1194 0.0
H2829 H 0.51195 0.25588 0.09248 0.0
H2830 H 0.43762 0.26225 0.10143 0.0
H2831 H 0.46348 0.26638 0.10459 0.0
C2832 C 0.61018 0.76715 0.05348 0.0
C2833 C 0.60652 0.75476 0.06154 0.0
C2834 C 0.61144 0.76642 0.03847 0.0
C2835 C 0.61628 0.74219 0.00725 0.0
H2836 H 0.59788 0.7736 0.98683 0.0
C2837 C 0.60925 0.74525 0.94442 0.0
C2838 C 0.6112 0.75905 0.93823 0.0
C2839 C 0.60959 0.74352 0.95948 0.0
C2840 C 0.60321 0.76484 0.99236 0.0
H2841 H 0.60193 0.73169 0.06014 0.0
H2842 H 0.60401 0.73047 0.03369 0.0
H2843 H 0.59659 0.77261 0.01307 0.0
H2844 H 0.61606 0.78163 0.94298 0.0
H2845 H 0.61682 0.77857 0.96907 0.0
H2846 H 0.62289 0.73447 0.98634 0.0
C2847 C 0.60593 0.74073 0.03912 0.0
C2848 C 0.60245 0.76426 0.0074 0.0
C2849 C 0.60468 0.74145 0.05424 0.0
C2850 C 0.61425 0.7709 0.94737 0.0
C2851 C 0.61465 0.76916 0.96234 0.0
C2852 C 0.61704 0.74277 0.9921 0.0
C2853 C 0.60903 0.75329 0.03109 0.0
C2854 C 0.60919 0.7531 0.01504 0.0
C2855 C 0.61192 0.75555 0.96859 0.0
C2856 C 0.61072 0.75427 0.98455 0.0
H2857 H 0.61192 0.77754 0.05871 0.0
H2858 H 0.61417 0.77621 0.03261 0.0
H2859 H 0.62158 0.73347 0.01288 0.0
H2860 H 0.60692 0.73588 0.93768 0.0
H2861 H 0.60745 0.7329 0.964 0.0
C2862 C 0.27058 0.60852 0.94467 0.0
C2863 C 0.25934 0.60454 0.93522 0.0
C2864 C 0.26805 0.61036 0.95944 0.0
C2865 C 0.24423 0.59876 0.98869 0.0
H2866 H 0.26438 0.62916 0.00984 0.0
C2867 C 0.24436 0.6026 0.05171 0.0
C2868 C 0.25819 0.60438 0.05767 0.0
C2869 C 0.24212 0.60437 0.0368 0.0
C2870 C 0.25866 0.62062 0.00409 0.0
H2871 H 0.23653 0.5996 0.93394 0.0
H2872 H 0.23213 0.60276 0.95994 0.0
H2873 H 0.26464 0.6292 0.98343 0.0
H2874 H 0.2804 0.60982 0.05265 0.0
H2875 H 0.27649 0.61286 0.02688 0.0
H2876 H 0.23867 0.58993 0.00943 0.0
C2877 C 0.24291 0.60441 0.9558 0.0
C2878 C 0.25882 0.62064 0.98897 0.0
C2879 C 0.24542 0.60267 0.94092 0.0
C2880 C 0.26961 0.60829 0.04846 0.0
C2881 C 0.26735 0.61017 0.03367 0.0
C2882 C 0.24407 0.59874 0.00386 0.0
C2883 C 0.25423 0.60825 0.96521 0.0
C2884 C 0.25201 0.60946 0.9811 0.0
C2885 C 0.25362 0.60815 0.02763 0.0
C2886 C 0.25169 0.60942 0.01171 0.0
H2887 H 0.28143 0.6101 0.94069 0.0
H2888 H 0.27705 0.61309 0.96641 0.0
H2889 H 0.23894 0.58996 0.98292 0.0
H2890 H 0.23534 0.59958 0.0585 0.0
H2891 H 0.23141 0.60279 0.03244 0.0
C2892 C 0.38421 0.22384 0.05026 0.0
C2893 C 0.38767 0.23641 0.05823 0.0
C2894 C 0.3826 0.2244 0.03528 0.0
C2895 C 0.37691 0.2485 0.00415 0.0
H2896 H 0.39635 0.21787 0.98332 0.0
C2897 C 0.38587 0.24817 0.94179 0.0
C2898 C 0.38463 0.23468 0.93471 0.0
C2899 C 0.38501 0.24905 0.9569 0.0
C2900 C 0.39069 0.22639 0.98895 0.0
H2901 H 0.39152 0.25959 0.05672 0.0
H2902 H 0.38886 0.26051 0.03035 0.0
H2903 H 0.39704 0.21834 0.0096 0.0
H2904 H 0.38072 0.21168 0.93794 0.0
H2905 H 0.37906 0.21327 0.96415 0.0
H2906 H 0.37062 0.25654 0.98333 0.0
C2907 C 0.38733 0.25024 0.03581 0.0
C2908 C 0.39111 0.22667 0.00403 0.0
C2909 C 0.38892 0.24969 0.05089 0.0
C2910 C 0.38194 0.22221 0.94302 0.0
C2911 C 0.38104 0.22311 0.95807 0.0
C2912 C 0.37648 0.24821 0.98898 0.0
C2913 C 0.38446 0.23753 0.02785 0.0
C2914 C 0.38413 0.23764 0.0118 0.0
C2915 C 0.38287 0.23648 0.9652 0.0
C2916 C 0.38328 0.23706 0.98125 0.0
H2917 H 0.38292 0.21345 0.05555 0.0
H2918 H 0.38006 0.21448 0.02947 0.0
H2919 H 0.37137 0.25704 0.00988 0.0
H2920 H 0.38789 0.258 0.93572 0.0
H2921 H 0.38654 0.25949 0.96209 0.0
C2922 C 0.74796 0.38775 0.05131 0.0
C2923 C 0.73488 0.38412 0.05809 0.0
C2924 C 0.74937 0.38656 0.03622 0.0
C2925 C 0.72648 0.38699 0.00376 0.0
H2926 H 0.76007 0.37351 0.9831 0.0
C2927 C 0.72444 0.37915 0.94262 0.0
C2928 C 0.73591 0.38486 0.93447 0.0
C2929 C 0.72562 0.37766 0.9576 0.0
C2930 C 0.75067 0.3774 0.98875 0.0
H2931 H 0.71343 0.37534 0.05449 0.0
H2932 H 0.71597 0.37307 0.02842 0.0
H2933 H 0.75986 0.3734 0.0097 0.0
H2934 H 0.75792 0.39276 0.93559 0.0
H2935 H 0.7599 0.39035 0.96194 0.0
H2936 H 0.71727 0.39112 0.98304 0.0
C2937 C 0.725 0.37724 0.03463 0.0
C2938 C 0.75055 0.37734 0.00395 0.0
C2939 C 0.72357 0.37851 0.0496 0.0
C2940 C 0.74888 0.38836 0.94157 0.0
C2941 C 0.75003 0.38694 0.95665 0.0
C2942 C 0.7266 0.38705 0.98868 0.0
C2943 C 0.73774 0.38166 0.02769 0.0
C2944 C 0.73836 0.38197 0.0116 0.0
C2945 C 0.73825 0.38196 0.96486 0.0
C2946 C 0.73859 0.38209 0.98096 0.0
H2947 H 0.75689 0.39206 0.05756 0.0
H2948 H 0.75932 0.39005 0.03118 0.0
H2949 H 0.71707 0.39102 0.0093 0.0
H2950 H 0.71439 0.37609 0.93748 0.0
H2951 H 0.71648 0.37342 0.96355 0.0
C2952 C 0.60398 0.24516 0.9374 0.0
C2953 C 0.60418 0.25983 0.9333 0.0
C2954 C 0.60531 0.24128 0.95197 0.0
C2955 C 0.61702 0.25506 0.98787 0.0
H2956 H 0.59049 0.22596 0.00256 0.0
C2957 C 0.6069 0.2466 0.04901 0.0
C2958 C 0.60476 0.23236 0.05401 0.0
C2959 C 0.608 0.24944 0.03418 0.0
C2960 C 0.59813 0.23395 -0.00139 0.0
H2961 H 0.60631 0.28189 0.94136 0.0
H2962 H 0.60851 0.2751 0.9667 0.0
H2963 H 0.59051 0.23172 0.97683 0.0
H2964 H 0.60248 0.20989 0.04725 0.0
H2965 H 0.60457 0.21485 0.02145 0.0
H2966 H 0.62454 0.25738 0.00968 0.0
C2967 C 0.60744 0.2666 0.95864 0.0
C2968 C 0.59814 0.23725 0.98385 0.0
C2969 C 0.60608 0.27048 0.94409 0.0
C2970 C 0.60403 0.22101 0.04382 0.0
C2971 C 0.60515 0.22385 0.029 0.0
C2972 C 0.61703 0.25174 0.00263 0.0
C2973 C 0.60691 0.25196 0.96276 0.0
C2974 C 0.60749 0.24793 0.97832 0.0
C2975 C 0.60702 0.23811 0.02399 0.0
C2976 C 0.6075 0.24122 0.0082 0.0
H2977 H 0.6026 0.23666 0.92939 0.0
H2978 H 0.60505 0.2299 0.95478 0.0
H2979 H 0.6245 0.2632 0.98391 0.0
H2980 H 0.60751 0.25563 0.05652 0.0
H2981 H 0.60926 0.26057 0.03069 0.0
C2982 C 0.76899 0.61374 0.04928 0.0
C2983 C 0.75739 0.60966 0.05818 0.0
C2984 C 0.76692 0.61633 0.03457 0.0
C2985 C 0.74356 0.60634 0.00441 0.0
H2986 H 0.76503 0.6367 0.98477 0.0
C2987 C 0.74514 0.61091 0.94193 0.0
C2988 C 0.75914 0.61215 0.93628 0.0
C2989 C 0.74264 0.61293 0.95674 0.0
C2990 C 0.75894 0.6282 0.99011 0.0
H2991 H 0.73441 0.60538 0.05858 0.0
H2992 H 0.73083 0.60983 0.03273 0.0
H2993 H 0.76465 0.63606 0.01119 0.0
H2994 H 0.78138 0.61701 0.9417 0.0
H2995 H 0.77703 0.62045 0.9674 0.0
H2996 H 0.73829 0.59817 0.98331 0.0
C2997 C 0.74153 0.61097 0.03723 0.0
C2998 C 0.75873 0.62782 0.00521 0.0
C2999 C 0.74359 0.60846 0.05203 0.0
C3000 C 0.77048 0.61589 0.94567 0.0
C3001 C 0.76797 0.61801 0.96041 0.0
C3002 C 0.74377 0.60671 0.98928 0.0
C3003 C 0.7532 0.61487 0.02836 0.0
C3004 C 0.75143 0.61662 0.01251 0.0
C3005 C 0.75407 0.61638 0.96613 0.0
C3006 C 0.75185 0.61738 0.98199 0.0
H3007 H 0.77977 0.61483 0.05363 0.0
H3008 H 0.77617 0.61908 0.02798 0.0
H3009 H 0.73792 0.59752 0.00974 0.0
H3010 H 0.73614 0.60807 0.93499 0.0
H3011 H 0.73181 0.61169 0.96086 0.0
C3012 C 0.38963 0.75097 0.93895 0.0
C3013 C 0.38931 0.7363 0.93478 0.0
C3014 C 0.38792 0.75491 0.95349 0.0
C3015 C 0.37521 0.74119 0.98903 0.0
H3016 H 0.40236 0.76929 0.00474 0.0
C3017 C 0.38624 0.7468 0.05022 0.0
C3018 C 0.38859 0.76074 0.05602 0.0
C3019 C 0.38488 0.74474 0.03528 0.0
C3020 C 0.39454 0.7616 0.00049 0.0
H3021 H 0.38648 0.7143 0.94265 0.0
H3022 H 0.38363 0.72117 0.96791 0.0
H3023 H 0.40228 0.76416 0.97882 0.0
H3024 H 0.39107 0.7835 0.05056 0.0
H3025 H 0.3886 0.77988 0.0245 0.0
H3026 H 0.36763 0.73845 0.01075 0.0
C3027 C 0.38509 0.72964 0.95994 0.0
C3028 C 0.39449 0.75866 0.98563 0.0
C3029 C 0.38683 0.7257 0.94544 0.0
C3030 C 0.38934 0.7726 0.04649 0.0
C3031 C 0.38799 0.77053 0.03154 0.0
C3032 C 0.37525 0.74413 0.00389 0.0
C3033 C 0.38579 0.74427 0.96417 0.0
C3034 C 0.38497 0.74827 0.97976 0.0
C3035 C 0.38583 0.75656 0.02575 0.0
C3036 C 0.38506 0.75421 0.00983 0.0
H3037 H 0.39145 0.75943 0.93103 0.0
H3038 H 0.38834 0.76628 0.95639 0.0
H3039 H 0.36758 0.7333 0.9848 0.0
H3040 H 0.3856 0.73741 0.05719 0.0
H3041 H 0.38343 0.73382 0.03117 0.0
C3042 C 0.22357 0.37828 0.04757 0.0
C3043 C 0.23529 0.38182 0.05656 0.0
C3044 C 0.2255 0.37627 0.03273 0.0
C3045 C 0.24896 0.38715 0.00297 0.0
H3046 H 0.22666 0.35829 0.98182 0.0
C3047 C 0.24781 0.38436 0.94022 0.0
C3048 C 0.23388 0.38354 0.93432 0.0
C3049 C 0.25002 0.38215 0.95504 0.0
C3050 C 0.23297 0.36639 0.98758 0.0
H3051 H 0.25835 0.38566 0.05701 0.0
H3052 H 0.26169 0.38217 0.03096 0.0
H3053 H 0.22706 0.35776 0.00824 0.0
H3054 H 0.21141 0.37942 0.93935 0.0
H3055 H 0.21528 0.37565 0.96507 0.0
H3056 H 0.2545 0.39605 0.98228 0.0
C3057 C 0.25099 0.38104 0.03547 0.0
C3058 C 0.2332 0.36609 0.00269 0.0
C3059 C 0.24908 0.38299 0.05039 0.0
C3060 C 0.22228 0.38019 0.94351 0.0
C3061 C 0.2245 0.37789 0.95825 0.0
C3062 C 0.24875 0.38744 0.98783 0.0
C3063 C 0.2392 0.37777 0.02649 0.0
C3064 C 0.24083 0.37673 0.01055 0.0
C3065 C 0.23837 0.37893 0.96419 0.0
C3066 C 0.24039 0.37733 0.98002 0.0
H3067 H 0.21281 0.37725 0.05193 0.0
H3068 H 0.21616 0.37398 0.02607 0.0
H3069 H 0.25486 0.39555 0.00873 0.0
H3070 H 0.25699 0.38688 0.93344 0.0
H3071 H 0.26083 0.38295 0.95933 0.0
C3072 C 0.04833 0.60892 0.74713 0.0
C3073 C 0.05333 0.60658 0.76131 0.0
C3074 C 0.03365 0.61029 0.74439 0.0
C3075 C -0.00166 0.60062 0.75967 0.0
H3076 H 0.98417 0.62828 0.7317 0.0
C3077 C 0.93781 0.60753 0.74918 0.0
C3078 C 0.9336 0.60813 0.73456 0.0
C3079 C 0.9523 0.6087 0.75301 0.0
C3080 C 0.98798 0.62045 0.73947 0.0
H3081 H 0.04676 0.60417 0.78376 0.0
H3082 H 0.02121 0.60669 0.77895 0.0
H3083 H 0.00979 0.62775 0.73733 0.0
H3084 H 0.94137 0.61087 0.71254 0.0
H3085 H 0.9666 0.61277 0.71923 0.0
H3086 H 0.9766 0.59319 0.76169 0.0
C3087 C 0.02864 0.60725 0.76994 0.0
C3088 C 0.00265 0.62013 0.74268 0.0
C3089 C 0.04331 0.60588 0.77269 0.0
C3090 C 0.9442 0.61033 0.7239 0.0
C3091 C 0.95868 0.61152 0.72774 0.0
C3092 C 0.9837 0.60094 0.75646 0.0
C3093 C 0.02364 0.60936 0.75575 0.0
C3094 C 0.008 0.61014 0.75274 0.0
C3095 C 0.9629 0.61053 0.74232 0.0
C3096 C 0.97836 0.61078 0.74625 0.0
H3097 H 0.05573 0.60953 0.73809 0.0
H3098 H 0.03013 0.61174 0.73331 0.0
H3099 H 0.00215 0.59264 0.76729 0.0
H3100 H 0.92995 0.60593 0.75769 0.0
H3101 H 0.95521 0.6081 0.76436 0.0
C3102 C 0.38233 0.94574 0.7712 0.0
C3103 C 0.38461 0.93669 0.75915 0.0
C3104 C 0.38075 0.96062 0.76945 0.0
C3105 C 0.39079 0.99016 0.74509 0.0
H3106 H 0.36536 0.01212 0.76993 0.0
C3107 C 0.3896 0.05297 0.74548 0.0
C3108 C 0.39013 0.0593 0.75938 0.0
C3109 C 0.38713 0.03808 0.74384 0.0
C3110 C 0.37252 0.00613 0.76293 0.0
H3111 H 0.38654 0.9362 0.73571 0.0
H3112 H 0.38375 0.96234 0.73268 0.0
H3113 H 0.36369 0.98574 0.76961 0.0
H3114 H 0.38829 0.05491 0.78241 0.0
H3115 H 0.38403 0.02903 0.77951 0.0
H3116 H 0.39983 0.01059 0.73868 0.0
C3117 C 0.38332 0.95783 0.74349 0.0
C3118 C 0.37157 0.99104 0.76274 0.0
C3119 C 0.38485 0.94286 0.74523 0.0
C3120 C 0.38798 0.05043 0.77155 0.0
C3121 C 0.38542 0.0356 0.76989 0.0
C3122 C 0.39171 0.00529 0.74525 0.0
C3123 C 0.38141 0.96688 0.75561 0.0
C3124 C 0.38096 0.98287 0.75413 0.0
C3125 C 0.38501 0.02926 0.75603 0.0
C3126 C 0.38285 0.01339 0.75448 0.0
H3127 H 0.38203 0.94139 0.78208 0.0
H3128 H 0.37951 0.96729 0.77904 0.0
H3129 H 0.39826 0.98418 0.73844 0.0
H3130 H 0.39118 0.05948 0.73586 0.0
H3131 H 0.3868 0.03349 0.73303 0.0
C3132 C 0.05274 0.38805 0.74892 0.0
C3133 C 0.05804 0.38481 0.73502 0.0
C3134 C 0.03825 0.38554 0.75227 0.0
C3135 C 0.00573 0.36555 0.73985 0.0
H3136 H 0.98478 0.39814 0.75545 0.0
C3137 C 0.94646 0.37494 0.72754 0.0
C3138 C 0.93747 0.38096 0.73816 0.0
C3139 C 0.96107 0.37316 0.73021 0.0
C3140 C 0.99048 0.38881 0.75139 0.0
H3141 H 0.05241 0.37585 0.71396 0.0
H3142 H 0.0273 0.37151 0.71979 0.0
H3143 H 0.01099 0.39904 0.75476 0.0
H3144 H 0.93677 0.38939 0.76013 0.0
H3145 H 0.96246 0.38635 0.76474 0.0
H3146 H 0.98523 0.35554 0.73597 0.0
C3147 C 0.03429 0.37594 0.72813 0.0
C3148 C 0.0055 0.38933 0.75099 0.0
C3149 C 0.04868 0.37857 0.72474 0.0
C3150 C 0.9434 0.38474 0.7517 0.0
C3151 C 0.95811 0.38306 0.75433 0.0
C3152 C 0.99074 0.36502 0.74026 0.0
C3153 C 0.02886 0.37955 0.74185 0.0
C3154 C 0.01324 0.37791 0.74474 0.0
C3155 C 0.96712 0.37741 0.74353 0.0
C3156 C 0.98294 0.37686 0.74556 0.0
H3157 H 0.05969 0.39285 0.75708 0.0
H3158 H 0.03436 0.38838 0.76295 0.0
H3159 H 0.01143 0.35647 0.73523 0.0
H3160 H 0.94226 0.37182 0.71702 0.0
H3161 H 0.96774 0.36896 0.72158 0.0
C3162 C 0.60761 0.94407 0.72505 0.0
C3163 C 0.60563 0.93353 0.73586 0.0
C3164 C 0.60904 0.9587 0.7287 0.0
C3165 C 0.5998 0.98457 0.75742 0.0
H3166 H 0.62583 0.01014 0.73657 0.0
C3167 C 0.60535 0.04526 0.77155 0.0
C3168 C 0.60567 0.05496 0.75982 0.0
C3169 C 0.6066 0.03037 0.76924 0.0
C3170 C 0.61843 0.00315 0.74241 0.0
H3171 H 0.604 0.93014 0.75907 0.0
H3172 H 0.60659 0.95572 0.76543 0.0
H3173 H 0.62605 0.98416 0.73165 0.0
H3174 H 0.60782 0.05653 0.73645 0.0
H3175 H 0.60982 0.03054 0.73244 0.0
H3176 H 0.59204 0.00356 0.76803 0.0
C3177 C 0.60685 0.95263 0.7541 0.0
C3178 C 0.61857 0.98827 0.73961 0.0
C3179 C 0.60544 0.93796 0.75045 0.0
C3180 C 0.60751 0.0494 0.74574 0.0
C3181 C 0.60876 0.03449 0.74344 0.0
C3182 C 0.59967 -0.00055 0.76022 0.0
C3183 C 0.60853 0.96317 0.74325 0.0
C3184 C 0.60914 0.97883 0.74696 0.0
C3185 C 0.60821 0.0248 0.75515 0.0
C3186 C 0.60888 0.00893 0.75265 0.0
H3187 H 0.60784 0.94109 0.71369 0.0
H3188 H 0.61013 0.96654 0.72006 0.0
H3189 H 0.59225 0.97763 0.76311 0.0
H3190 H 0.60404 0.04912 0.78256 0.0
H3191 H 0.60634 0.02321 0.77851 0.0
C3192 C 0.93879 0.39101 0.243 0.0
C3193 C 0.93447 0.39069 0.2576 0.0
C3194 C 0.95324 0.38944 0.23928 0.0
C3195 C 0.9879 0.37611 0.25303 0.0
H3196 H 0.00427 0.40251 0.22474 0.0
C3197 C 0.04899 0.38365 0.24527 0.0
C3198 C 0.05425 0.38577 0.23114 0.0
C3199 C 0.03422 0.38311 0.24793 0.0
C3200 C -0.00017 0.3949 0.23249 0.0
H3201 H 0.94201 0.38824 0.27972 0.0
H3202 H 0.96719 0.3856 0.2732 0.0
H3203 H 0.97876 0.40369 0.23044 0.0
H3204 H 0.04802 0.38857 0.20866 0.0
H3205 H 0.02227 0.38745 0.2133 0.0
H3206 H 0.009 0.36739 0.25516 0.0
C3207 C 0.95937 0.38695 0.26463 0.0
C3208 C 0.98521 0.39559 0.23577 0.0
C3209 C 0.94493 0.38856 0.26837 0.0
C3210 C 0.04437 0.387 0.21969 0.0
C3211 C 0.0296 0.38644 0.22235 0.0
C3212 C 0.00252 0.37539 0.24973 0.0
C3213 C 0.96369 0.38746 0.25006 0.0
C3214 C 0.9791 0.38629 0.24616 0.0
C3215 C 0.02436 0.38464 0.23652 0.0
C3216 C 0.00868 0.38486 0.23951 0.0
H3217 H 0.93104 0.39257 0.2344 0.0
H3218 H 0.95623 0.38972 0.22794 0.0
H3219 H 0.98346 0.36866 0.26093 0.0
H3220 H 0.05625 0.38266 0.25438 0.0
H3221 H 0.03056 0.38188 0.25899 0.0
C3222 C 0.60309 0.05436 0.24354 0.0
C3223 C 0.60328 0.05811 0.25833 0.0
C3224 C 0.60469 0.03994 0.23917 0.0
C3225 C 0.6175 0.00434 0.25176 0.0
H3226 H 0.59084 0.98876 0.22324 0.0
C3227 C 0.60737 0.94318 0.24484 0.0
C3228 C 0.6051 0.93754 0.23084 0.0
C3229 C 0.60853 0.9581 0.24713 0.0
C3230 C 0.59853 0.99298 0.23104 0.0
H3231 H 0.60559 0.04958 0.2801 0.0
H3232 H 0.60828 0.02452 0.27248 0.0
H3233 H 0.59049 0.01453 0.22913 0.0
H3234 H 0.60256 0.94327 0.20819 0.0
H3235 H 0.6047 0.96935 0.21221 0.0
H3236 H 0.62542 0.98278 0.25382 0.0
C3237 C 0.60702 0.03274 0.26425 0.0
C3238 C 0.59832 0.00775 0.23442 0.0
C3239 C 0.60536 0.04712 0.26862 0.0
C3240 C 0.60424 0.94722 0.21913 0.0
C3241 C 0.6054 0.96218 0.22144 0.0
C3242 C 0.61774 0.98959 0.24835 0.0
C3243 C 0.60659 0.02897 0.24949 0.0
C3244 C 0.60764 0.01354 0.245 0.0
C3245 C 0.60748 0.96779 0.23548 0.0
C3246 C 0.60808 0.98368 0.23814 0.0
H3247 H 0.60155 0.06253 0.23531 0.0
H3248 H 0.60445 0.03739 0.22771 0.0
H3249 H 0.62499 0.00853 0.25977 0.0
H3250 H 0.60808 0.93609 0.25414 0.0
H3251 H 0.6099 0.96205 0.25811 0.0
C3252 C 0.05631 0.6034 0.24391 0.0
C3253 C 0.06057 0.60328 0.25854 0.0
C3254 C 0.04188 0.6051 0.24017 0.0
C3255 C 0.00706 0.61785 0.25423 0.0
H3256 H 0.99098 0.59212 0.22498 0.0
C3257 C 0.94602 0.60986 0.24609 0.0
C3258 C 0.94079 0.60795 0.2319 0.0
C3259 C 0.96078 0.61056 0.24878 0.0
C3260 C 0.99534 0.59956 0.23301 0.0
H3261 H 0.05293 0.60514 0.28069 0.0
H3262 H 0.02778 0.60799 0.27414 0.0
H3263 H 0.01649 0.59103 0.23069 0.0
H3264 H 0.94708 0.60575 0.20935 0.0
H3265 H 0.97281 0.60716 0.21406 0.0
H3266 H 0.98587 0.62629 0.25663 0.0
C3267 C 0.03564 0.60688 0.26557 0.0
C3268 C 0.00996 0.59891 0.23629 0.0
C3269 C 0.05006 0.60514 0.26932 0.0
C3270 C 0.9507 0.60713 0.22043 0.0
C3271 C 0.96547 0.60785 0.22313 0.0
C3272 C 0.99243 0.61852 0.25092 0.0
C3273 C 0.03138 0.60677 0.25096 0.0
C3274 C 0.01597 0.60796 0.24703 0.0
C3275 C 0.97068 0.60941 0.23736 0.0
C3276 C 0.98637 0.60929 0.24036 0.0
H3277 H 0.06411 0.60206 0.23531 0.0
H3278 H 0.03895 0.60513 0.22881 0.0
H3279 H 0.01142 0.62511 0.26241 0.0
H3280 H 0.93873 0.61053 0.25521 0.0
H3281 H 0.96442 0.61159 0.25989 0.0
C3282 C 0.38497 0.05089 0.24283 0.0
C3283 C 0.3861 0.05693 0.22889 0.0
C3284 C 0.38358 0.03592 0.24463 0.0
C3285 C 0.3735 0.00225 0.2253 0.0
H3286 H 0.39863 0.98362 0.25293 0.0
C3287 C 0.38697 0.9421 0.22136 0.0
C3288 C 0.38818 0.93389 0.2341 0.0
C3289 C 0.38512 0.95703 0.22202 0.0
C3290 C 0.39136 0.98866 0.24536 0.0
H3291 H 0.38632 0.0519 0.20589 0.0
H3292 H 0.38392 0.02583 0.20905 0.0
H3293 H 0.39814 0.01002 0.25165 0.0
H3294 H 0.38826 0.93504 0.2576 0.0
H3295 H 0.38498 0.96128 0.25873 0.0
H3296 H 0.36689 0.98094 0.21883 0.0
C3297 C 0.38402 0.0327 0.21859 0.0
C3298 C 0.39109 0.00378 0.24461 0.0
C3299 C 0.3855 0.04765 0.21679 0.0
C3300 C 0.38741 0.94103 0.24757 0.0
C3301 C 0.38557 0.95606 0.24823 0.0
C3302 C 0.37374 0.98717 0.22608 0.0
C3303 C 0.38317 0.02666 0.23253 0.0
C3304 C 0.38239 0.01072 0.23435 0.0
C3305 C 0.3844 0.96421 0.23544 0.0
C3306 C 0.38292 0.98019 0.23587 0.0
H3307 H 0.38535 0.0577 0.25241 0.0
H3308 H 0.38282 0.03158 0.25549 0.0
H3309 H 0.36649 0.0073 0.21748 0.0
H3310 H 0.38755 0.93703 0.21078 0.0
H3311 H 0.38453 0.96301 0.21197 0.0
C3312 C 0.76762 0.04631 0.60614 0.0
C3313 C 0.75646 0.05643 0.6069 0.0
C3314 C 0.76475 0.03153 0.60781 0.0
C3315 C 0.73555 0.00456 0.6046 0.0
H3316 H 0.76184 0.98006 0.62569 0.0
C3317 C 0.72405 0.94374 0.61259 0.0
C3318 C 0.7356 0.93439 0.60999 0.0
C3319 C 0.72634 0.95867 0.61378 0.0
C3320 C 0.75445 0.98675 0.6197 0.0
H3321 H 0.73352 0.0589 0.61027 0.0
H3322 H 0.72857 0.0331 0.61327 0.0
H3323 H 0.76622 0.00616 0.62482 0.0
H3324 H 0.75871 0.93343 0.60707 0.0
H3325 H 0.76267 0.95948 0.60898 0.0
H3326 H 0.72389 0.98517 0.59931 0.0
C3327 C 0.73951 0.03662 0.6112 0.0
C3328 C 0.75696 0.00169 0.61919 0.0
C3329 C 0.74237 0.05142 0.60952 0.0
C3330 C 0.74956 0.94029 0.60905 0.0
C3331 C 0.75185 0.95524 0.61023 0.0
C3332 C 0.73305 0.98964 0.60511 0.0
C3333 C 0.75066 0.02651 0.61029 0.0
C3334 C 0.74761 0.01075 0.61152 0.0
C3335 C 0.74024 0.96461 0.61239 0.0
C3336 C 0.74253 0.98054 0.61256 0.0
H3337 H 0.77859 0.04975 0.60411 0.0
H3338 H 0.77355 0.02401 0.60684 0.0
H3339 H 0.72826 0.01121 0.59842 0.0
H3340 H 0.71316 0.93958 0.61351 0.0
H3341 H 0.71721 0.96558 0.61568 0.0
C3342 C 0.77116 0.04451 0.38776 0.0
C3343 C 0.75958 0.05416 0.38817 0.0
C3344 C 0.76876 0.02967 0.38581 0.0
C3345 C 0.74162 0.00284 0.37321 0.0
H3346 H 0.7626 0.97652 0.39787 0.0
C3347 C 0.72412 0.94351 0.38278 0.0
C3348 C 0.73484 0.93299 0.38421 0.0
C3349 C 0.7278 0.95815 0.38142 0.0
C3350 C 0.75682 0.98369 0.39073 0.0
H3351 H 0.73636 0.05571 0.38664 0.0
H3352 H 0.73219 0.02983 0.38346 0.0
H3353 H 0.76777 0.0024 0.39911 0.0
H3354 H 0.75789 0.92962 0.3847 0.0
H3355 H 0.76427 0.95517 0.38224 0.0
H3356 H 0.73048 0.9841 0.36503 0.0
C3357 C 0.74315 0.03378 0.38446 0.0
C3358 C 0.75978 -0.00147 0.39145 0.0
C3359 C 0.74555 0.04862 0.3864 0.0
C3360 C 0.74934 0.93742 0.38373 0.0
C3361 C 0.75301 0.95207 0.38239 0.0
C3362 C 0.73865 0.98798 0.3725 0.0
C3363 C 0.75472 0.02413 0.38423 0.0
C3364 C 0.7521 0.00829 0.38282 0.0
C3365 C 0.74228 0.96261 0.38146 0.0
C3366 C 0.74611 0.97826 0.38137 0.0
H3367 H 0.78212 0.04839 0.38898 0.0
H3368 H 0.77791 0.02254 0.38549 0.0
H3369 H 0.73569 0.01006 0.36625 0.0
H3370 H 0.71284 0.9405 0.38305 0.0
H3371 H 0.71927 0.96601 0.38086 0.0
C3372 C 0.93799 0.75201 0.38798 0.0
C3373 C 0.93312 0.73757 0.38685 0.0
C3374 C 0.95262 0.75541 0.3866 0.0
C3375 C 0.98808 0.73852 0.39045 0.0
H3376 H 0.00216 0.77298 0.3709 0.0
C3377 C 0.04841 0.74879 0.38205 0.0
C3378 C 0.05366 0.76283 0.38504 0.0
C3379 C 0.03366 0.74604 0.38117 0.0
C3380 C -0.00164 0.76338 0.37649 0.0
H3381 H 0.93978 0.71547 0.3827 0.0
H3382 H 0.96514 0.72142 0.38012 0.0
H3383 H 0.97638 0.76757 0.37118 0.0
H3384 H 0.04743 0.78509 0.38904 0.0
H3385 H 0.02165 0.78022 0.38762 0.0
H3386 H 0.00996 0.73435 0.39585 0.0
C3387 C 0.95772 0.73008 0.3824 0.0
C3388 C 0.98361 0.76028 0.37666 0.0
C3389 C 0.94314 0.72669 0.38382 0.0
C3390 C 0.04378 0.77414 0.38674 0.0
C3391 C 0.029 0.77137 0.38585 0.0
C3392 C 0.00278 0.74161 0.39026 0.0
C3393 C 0.96267 0.74444 0.38402 0.0
C3394 C 0.97831 0.74779 0.38362 0.0
C3395 C 0.02378 0.75725 0.38326 0.0
C3396 C 0.00811 0.75405 0.38327 0.0
H3397 H 0.93058 0.76068 0.3903 0.0
H3398 H 0.95609 0.76656 0.38801 0.0
H3399 H 0.98434 0.72899 0.39618 0.0
H3400 H 0.05568 0.73983 0.38054 0.0
H3401 H 0.02999 0.73509 0.3789 0.0
C3402 C 0.2445 0.05364 0.38224 0.0
C3403 C 0.25854 0.05935 0.38127 0.0
C3404 C 0.24197 0.03876 0.38058 0.0
C3405 C 0.26062 0.00429 0.38497 0.0
H3406 H 0.2272 0.98778 0.3657 0.0
C3407 C 0.25165 0.94264 0.38159 0.0
C3408 C 0.23765 0.93755 0.38446 0.0
C3409 C 0.25431 0.95739 0.37936 0.0
C3410 C 0.23654 0.99225 0.3712 0.0
H3411 H 0.28079 0.05398 0.37693 0.0
H3412 H 0.27633 0.02814 0.37394 0.0
H3413 H 0.23152 0.01394 0.36488 0.0
H3414 H 0.21542 0.944 0.38695 0.0
H3415 H 0.22012 0.9697 0.38335 0.0
H3416 H 0.26551 0.98276 0.39159 0.0
C3417 C 0.26733 0.03511 0.37629 0.0
C3418 C 0.23901 0.00721 0.37072 0.0
C3419 C 0.26987 0.04995 0.37796 0.0
C3420 C 0.22634 0.94752 0.38476 0.0
C3421 C 0.22901 0.96227 0.38259 0.0
C3422 C 0.25814 0.98938 0.38549 0.0
C3423 C 0.25341 0.02931 0.3779 0.0
C3424 C 0.25104 0.01339 0.37768 0.0
C3425 C 0.24305 0.9674 0.38001 0.0
C3426 C 0.24602 0.98318 0.37871 0.0
H3427 H 0.23552 0.06057 0.38473 0.0
H3428 H 0.23113 0.0346 0.38197 0.0
H3429 H 0.26985 0.00874 0.39068 0.0
H3430 H 0.2606 0.93525 0.38111 0.0
H3431 H 0.26522 0.96096 0.37716 0.0
C3432 C 0.05573 0.24092 0.38462 0.0
C3433 C 0.06014 0.25554 0.38505 0.0
C3434 C 0.04124 0.23722 0.38279 0.0
C3435 C 0.00626 0.25155 0.37078 0.0
H3436 H 0.99048 0.22267 0.3969 0.0
C3437 C 0.94556 0.24527 0.38167 0.0
C3438 C 0.93985 0.23124 0.38367 0.0
C3439 C 0.96036 0.24746 0.3802 0.0
C3440 C 0.99474 0.23058 0.38936 0.0
H3441 H 0.05278 0.27772 0.38344 0.0
H3442 H 0.02755 0.27124 0.38037 0.0
H3443 H 0.01618 0.22785 0.39713 0.0
H3444 H 0.94527 0.20847 0.38522 0.0
H3445 H 0.97105 0.21233 0.38251 0.0
H3446 H 0.98476 0.25443 0.36316 0.0
C3447 C 0.03531 0.26264 0.38134 0.0
C3448 C 0.00948 0.23355 0.38949 0.0
C3449 C 0.04978 0.26635 0.38321 0.0
C3450 C 0.94928 0.21944 0.3838 0.0
C3451 C 0.96408 0.22164 0.38232 0.0
C3452 C 0.99152 0.24856 0.37062 0.0
C3453 C 0.03086 0.24804 0.38129 0.0
C3454 C 0.01537 0.24419 0.38034 0.0
C3455 C 0.96979 0.2357 0.38066 0.0
C3456 C 0.98557 0.23817 0.38005 0.0
H3457 H 0.06341 0.2323 0.38592 0.0
H3458 H 0.03816 0.22587 0.38261 0.0
H3459 H 0.01053 0.25966 0.36345 0.0
H3460 H 0.93865 0.25462 0.38149 0.0
H3461 H 0.96442 0.25844 0.37912 0.0
C3462 C 0.24702 0.05388 0.60947 0.0
C3463 C 0.26117 0.05878 0.60703 0.0
C3464 C 0.24408 0.03915 0.6115 0.0
C3465 C 0.26092 0.00398 0.62009 0.0
H3466 H 0.22801 0.98815 0.59942 0.0
C3467 C 0.25166 0.94257 0.60995 0.0
C3468 C 0.23743 0.93728 0.61044 0.0
C3469 C 0.25456 0.95741 0.61128 0.0
C3470 C 0.23712 0.99241 0.60545 0.0
H3471 H 0.28337 0.052 0.60518 0.0
H3472 H 0.27817 0.02633 0.60847 0.0
H3473 H 0.23298 0.01403 0.59855 0.0
H3474 H 0.21518 0.94344 0.61351 0.0
H3475 H 0.22028 0.96921 0.61598 0.0
H3476 H 0.26516 0.98222 0.62676 0.0
C3477 C 0.26938 0.0339 0.609 0.0
C3478 C 0.23996 0.00727 0.60496 0.0
C3479 C 0.27233 0.04863 0.60701 0.0
C3480 C 0.22626 0.94712 0.61288 0.0
C3481 C 0.22916 0.96192 0.61424 0.0
C3482 C 0.25808 0.98908 0.62057 0.0
C3483 C 0.25519 0.02897 0.6111 0.0
C3484 C 0.25193 0.01323 0.61221 0.0
C3485 C 0.24331 0.96727 0.61316 0.0
C3486 C 0.24616 0.98313 0.6132 0.0
H3487 H 0.23817 0.06139 0.60971 0.0
H3488 H 0.23306 0.03573 0.61333 0.0
H3489 H 0.27013 0.00826 0.62593 0.0
H3490 H 0.26054 0.93531 0.60811 0.0
H3491 H 0.26557 0.96121 0.61031 0.0
C3492 C 0.94597 0.26518 0.61382 0.0
C3493 C 0.93637 0.25507 0.60762 0.0
C3494 C 0.96027 0.26158 0.61628 0.0
C3495 C 0.98857 0.2384 0.60257 0.0
H3496 H 0.00899 0.25292 0.63636 0.0
C3497 C 0.05071 0.23712 0.60694 0.0
C3498 C 0.05678 0.25065 0.61068 0.0
C3499 C 0.03594 0.23455 0.60863 0.0
C3500 C 0.00344 0.24875 0.62688 0.0
H3501 H 0.93421 0.23309 0.59944 0.0
H3502 H 0.95938 0.22685 0.60362 0.0
H3503 H 0.98283 0.254 0.63558 0.0
H3504 H 0.0522 0.27182 0.61977 0.0
H3505 H 0.02665 0.26736 0.62269 0.0
H3506 H 0.00924 0.23373 0.59361 0.0
C3507 C 0.95575 0.23756 0.60657 0.0
C3508 C 0.98847 0.24937 0.62643 0.0
C3509 C 0.94134 0.24113 0.60423 0.0
C3510 C 0.04789 0.26131 0.61667 0.0
C3511 C 0.03323 0.2587 0.61849 0.0
C3512 C 0.00357 0.23779 0.603 0.0
C3513 C 0.96537 0.24781 0.61253 0.0
C3514 C 0.98091 0.24468 0.61406 0.0
C3515 C 0.02703 0.24539 0.6143 0.0
C3516 C 0.01118 0.24345 0.61495 0.0
H3517 H 0.9425 0.27599 0.61664 0.0
H3518 H 0.96745 0.26979 0.6207 0.0
H3519 H 0.98304 0.23477 0.59285 0.0
H3520 H 0.05728 0.22868 0.6023 0.0
H3521 H 0.03146 0.22416 0.60537 0.0
C3522 C 0.04922 0.72328 0.61063 0.0
C3523 C 0.05887 0.73413 0.60597 0.0
C3524 C 0.03486 0.72647 0.61329 0.0
C3525 C 0.00646 0.75114 0.60277 0.0
H3526 H 0.98631 0.73309 0.63487 0.0
C3527 C 0.94444 0.7535 0.60885 0.0
C3528 C 0.93794 0.73994 0.61152 0.0
C3529 C 0.95936 0.75534 0.61021 0.0
C3530 C 0.99178 0.73822 0.62585 0.0
H3531 H 0.06097 0.75694 0.60067 0.0
H3532 H 0.03567 0.76247 0.60521 0.0
H3533 H 0.01241 0.73168 0.63349 0.0
H3534 H 0.94201 0.71783 0.61825 0.0
H3535 H 0.96778 0.72101 0.62051 0.0
H3536 H 0.98574 0.75717 0.59483 0.0
C3537 C 0.03934 0.7515 0.60679 0.0
C3538 C 0.00672 0.73742 0.62507 0.0
C3539 C 0.05382 0.74833 0.60425 0.0
C3540 C 0.94662 0.72842 0.61603 0.0
C3541 C 0.96143 0.73028 0.61747 0.0
C3542 C 0.99147 0.75191 0.60353 0.0
C3543 C 0.02972 0.74057 0.6113 0.0
C3544 C 0.01419 0.74347 0.61329 0.0
C3545 C 0.96802 0.74369 0.61442 0.0
C3546 C 0.98394 0.74504 0.61484 0.0
H3547 H 0.05273 0.71224 0.61213 0.0
H3548 H 0.02768 0.71776 0.61655 0.0
H3549 H 0.01192 0.75585 0.59352 0.0
H3550 H 0.93808 0.7626 0.60537 0.0
H3551 H 0.96412 0.76583 0.60787 0.0
loop_
_geom_bond_atom_site_label_1
_geom_bond_atom_site_label_2
_geom_bond_distance
_geom_bond_site_symmetry_2
_ccdc_geom_bond_type
Co0 O1 2.216 . S
Co0 O2 2.091 . S
Co0 O4 2.004 . S
Co0 O10 2.021 . S
Co0 O12 2.137 . S
Co0 O13 2.244 . S
O1 Co0 2.216 . S
O1 C8 1.247 . S
O2 Co0 2.091 . S
O2 C8 1.261 . S
C3 O12 1.247 . S
C3 O13 1.272 . S
O4 Co0 2.004 . S
O4 C9 1.259 . S
Co5 O6 2.061 . S
Co5 O11 2.052 . S
Co5 O13 2.135 . S
O6 Co5 2.061 . S
O6 C9 1.235 . S
C7 O10 1.238 . S
C7 O11 1.241 . S
C8 O1 1.247 . S
C8 O2 1.261 . S
C9 O4 1.259 . S
C9 O6 1.235 . S
O10 Co0 2.021 . S
O10 C7 1.238 . S
O11 Co5 2.052 . S
O11 C7 1.241 . S
O12 Co0 2.137 . S
O12 C3 1.247 . S
O13 Co0 2.244 . S
O13 C3 1.272 . S
O13 Co5 2.135 . S
Co14 O15 2.216 . S
Co14 O16 2.091 . S
Co14 O18 2.004 . S
Co14 O24 2.021 . S
Co14 O26 2.137 . S
Co14 O27 2.244 . S
O15 Co14 2.216 . S
O15 C22 1.247 . S
O16 Co14 2.091 . S
O16 C22 1.261 . S
C17 O26 1.247 . S
C17 O27 1.272 . S
O18 Co14 2.004 . S
O18 C23 1.259 . S
Co19 O20 2.061 . S
Co19 O25 2.052 . S
Co19 O27 2.135 . S
O20 Co19 2.061 . S
O20 C23 1.235 . S
C21 O24 1.238 . S
C21 O25 1.241 . S
C22 O15 1.247 . S
C22 O16 1.261 . S
C23 O18 1.259 . S
C23 O20 1.235 . S
O24 Co14 2.021 . S
O24 C21 1.238 . S
O25 Co19 2.052 . S
O25 C21 1.241 . S
O26 Co14 2.137 . S
O26 C17 1.247 . S
O27 Co14 2.244 . S
O27 C17 1.272 . S
O27 Co19 2.135 . S
Co28 O29 2.216 . S
Co28 O30 2.091 . S
Co28 O32 2.004 . S
Co28 O38 2.021 . S
Co28 O40 2.137 . S
Co28 O41 2.244 . S
O29 Co28 2.216 . S
O29 C36 1.247 . S
O30 Co28 2.091 . S
O30 C36 1.261 . S
C31 O40 1.247 . S
C31 O41 1.272 . S
O32 Co28 2.004 . S
O32 C37 1.259 . S
Co33 O34 2.061 . S
Co33 O39 2.052 . S
Co33 O41 2.135 . S
O34 Co33 2.061 . S
O34 C37 1.235 . S
C35 O38 1.238 . S
C35 O39 1.241 . S
C36 O29 1.247 . S
C36 O30 1.261 . S
C37 O32 1.259 . S
C37 O34 1.235 . S
O38 Co28 2.021 . S
O38 C35 1.238 . S
O39 Co33 2.052 . S
O39 C35 1.241 . S
O40 Co28 2.137 . S
O40 C31 1.247 . S
O41 Co28 2.244 . S
O41 C31 1.272 . S
O41 Co33 2.135 . S
Co42 O43 2.216 . S
Co42 O44 2.091 . S
Co42 O46 2.004 . S
Co42 O52 2.021 . S
Co42 O54 2.137 . S
Co42 O55 2.244 . S
O43 Co42 2.216 . S
O43 C50 1.247 . S
O44 Co42 2.091 . S
O44 C50 1.261 . S
C45 O54 1.247 . S
C45 O55 1.272 . S
O46 Co42 2.004 . S
O46 C51 1.259 . S
Co47 O48 2.061 . S
Co47 O53 2.052 . S
Co47 O55 2.135 . S
O48 Co47 2.061 . S
O48 C51 1.235 . S
C49 O52 1.238 . S
C49 O53 1.241 . S
C50 O43 1.247 . S
C50 O44 1.261 . S
C51 O46 1.259 . S
C51 O48 1.235 . S
O52 Co42 2.021 . S
O52 C49 1.238 . S
O53 Co47 2.052 . S
O53 C49 1.241 . S
O54 Co42 2.137 . S
O54 C45 1.247 . S
O55 Co42 2.244 . S
O55 C45 1.272 . S
O55 Co47 2.135 . S
Co56 O57 2.216 . S
Co56 O58 2.091 . S
Co56 O60 2.004 . S
Co56 O66 2.021 . S
Co56 O68 2.137 . S
Co56 O69 2.244 . S
O57 Co56 2.216 . S
O57 C64 1.247 . S
O58 Co56 2.091 . S
O58 C64 1.261 . S
C59 O68 1.247 . S
C59 O69 1.272 . S
O60 Co56 2.004 . S
O60 C65 1.259 . S
Co61 O62 2.061 . S
Co61 O67 2.052 . S
Co61 O69 2.135 . S
O62 Co61 2.061 . S
O62 C65 1.235 . S
C63 O66 1.238 . S
C63 O67 1.241 . S
C64 O57 1.247 . S
C64 O58 1.261 . S
C65 O60 1.259 . S
C65 O62 1.235 . S
O66 Co56 2.021 . S
O66 C63 1.238 . S
O67 Co61 2.052 . S
O67 C63 1.241 . S
O68 Co56 2.137 . S
O68 C59 1.247 . S
O69 Co56 2.244 . S
O69 C59 1.272 . S
O69 Co61 2.135 . S
Co70 O71 2.216 . S
Co70 O72 2.091 . S
Co70 O74 2.004 . S
Co70 O80 2.021 . S
Co70 O82 2.137 . S
Co70 O83 2.244 . S
O71 Co70 2.216 . S
O71 C78 1.247 . S
O72 Co70 2.091 . S
O72 C78 1.261 . S
C73 O82 1.247 . S
C73 O83 1.272 . S
O74 Co70 2.004 . S
O74 C79 1.259 . S
Co75 O76 2.061 . S
Co75 O81 2.052 . S
Co75 O83 2.135 . S
O76 Co75 2.061 . S
O76 C79 1.235 . S
C77 O80 1.238 . S
C77 O81 1.241 . S
C78 O71 1.247 . S
C78 O72 1.261 . S
C79 O74 1.259 . S
C79 O76 1.235 . S
O80 Co70 2.021 . S
O80 C77 1.238 . S
O81 Co75 2.052 . S
O81 C77 1.241 . S
O82 Co70 2.137 . S
O82 C73 1.247 . S
O83 Co70 2.244 . S
O83 C73 1.272 . S
O83 Co75 2.135 . S
Co84 O85 2.216 . S
Co84 O86 2.091 . S
Co84 O88 2.004 . S
Co84 O94 2.021 . S
Co84 O96 2.137 . S
Co84 O97 2.244 . S
O85 Co84 2.216 . S
O85 C92 1.247 . S
O86 Co84 2.091 . S
O86 C92 1.261 . S
C87 O96 1.247 . S
C87 O97 1.272 . S
O88 Co84 2.004 . S
O88 C93 1.259 . S
Co89 O90 2.061 . S
Co89 O95 2.052 . S
Co89 O97 2.135 . S
O90 Co89 2.061 . S
O90 C93 1.235 . S
C91 O94 1.238 . S
C91 O95 1.241 . S
C92 O85 1.247 . S
C92 O86 1.261 . S
C93 O88 1.259 . S
C93 O90 1.235 . S
O94 Co84 2.021 . S
O94 C91 1.238 . S
O95 Co89 2.052 . S
O95 C91 1.241 . S
O96 Co84 2.137 . S
O96 C87 1.247 . S
O97 Co84 2.244 . S
O97 C87 1.272 . S
O97 Co89 2.135 . S
Co98 O99 2.216 . S
Co98 O100 2.091 . S
Co98 O102 2.004 . S
Co98 O108 2.021 . S
Co98 O110 2.137 . S
Co98 O111 2.244 . S
O99 Co98 2.216 . S
O99 C106 1.247 . S
O100 Co98 2.091 . S
O100 C106 1.261 . S
C101 O110 1.247 . S
C101 O111 1.272 . S
O102 Co98 2.004 . S
O102 C107 1.259 . S
Co103 O104 2.061 . S
Co103 O109 2.052 . S
Co103 O111 2.135 . S
O104 Co103 2.061 . S
O104 C107 1.235 . S
C105 O108 1.238 . S
C105 O109 1.241 . S
C106 O99 1.247 . S
C106 O100 1.261 . S
C107 O102 1.259 . S
C107 O104 1.235 . S
O108 Co98 2.021 . S
O108 C105 1.238 . S
O109 Co103 2.052 . S
O109 C105 1.241 . S
O110 Co98 2.137 . S
O110 C101 1.247 . S
O111 Co98 2.244 . S
O111 C101 1.272 . S
O111 Co103 2.135 . S
Co112 O113 2.216 . S
Co112 O114 2.091 . S
Co112 O116 2.004 . S
Co112 O122 2.021 . S
Co112 O124 2.137 . S
Co112 O125 2.244 . S
O113 Co112 2.216 . S
O113 C120 1.247 . S
O114 Co112 2.091 . S
O114 C120 1.261 . S
C115 O124 1.247 . S
C115 O125 1.272 . S
O116 Co112 2.004 . S
O116 C121 1.259 . S
Co117 O118 2.061 . S
Co117 O123 2.052 . S
Co117 O125 2.135 . S
O118 Co117 2.061 . S
O118 C121 1.235 . S
C119 O122 1.238 . S
C119 O123 1.241 . S
C120 O113 1.247 . S
C120 O114 1.261 . S
C121 O116 1.259 . S
C121 O118 1.235 . S
O122 Co112 2.021 . S
O122 C119 1.238 . S
O123 Co117 2.052 . S
O123 C119 1.241 . S
O124 Co112 2.137 . S
O124 C115 1.247 . S
O125 Co112 2.244 . S
O125 C115 1.272 . S
O125 Co117 2.135 . S
Co126 O127 2.216 . S
Co126 O128 2.091 . S
Co126 O130 2.004 . S
Co126 O136 2.021 . S
Co126 O138 2.137 . S
Co126 O139 2.244 . S
O127 Co126 2.216 . S
O127 C134 1.247 . S
O128 Co126 2.091 . S
O128 C134 1.261 . S
C129 O138 1.247 . S
C129 O139 1.272 . S
O130 Co126 2.004 . S
O130 C135 1.259 . S
Co131 O132 2.061 . S
Co131 O137 2.052 . S
Co131 O139 2.135 . S
O132 Co131 2.061 . S
O132 C135 1.235 . S
C133 O136 1.238 . S
C133 O137 1.241 . S
C134 O127 1.247 . S
C134 O128 1.261 . S
C135 O130 1.259 . S
C135 O132 1.235 . S
O136 Co126 2.021 . S
O136 C133 1.238 . S
O137 Co131 2.052 . S
O137 C133 1.241 . S
O138 Co126 2.137 . S
O138 C129 1.247 . S
O139 Co126 2.244 . S
O139 C129 1.272 . S
O139 Co131 2.135 . S
Co140 O141 2.216 . S
Co140 O142 2.091 . S
Co140 O144 2.004 . S
Co140 O150 2.021 . S
Co140 O152 2.137 . S
Co140 O153 2.244 . S
O141 Co140 2.216 . S
O141 C148 1.247 . S
O142 Co140 2.091 . S
O142 C148 1.261 . S
C143 O152 1.247 . S
C143 O153 1.272 . S
O144 Co140 2.004 . S
O144 C149 1.259 . S
Co145 O146 2.061 . S
Co145 O151 2.052 . S
Co145 O153 2.135 . S
O146 Co145 2.061 . S
O146 C149 1.235 . S
C147 O150 1.238 . S
C147 O151 1.241 . S
C148 O141 1.247 . S
C148 O142 1.261 . S
C149 O144 1.259 . S
C149 O146 1.235 . S
O150 Co140 2.021 . S
O150 C147 1.238 . S
O151 Co145 2.052 . S
O151 C147 1.241 . S
O152 Co140 2.137 . S
O152 C143 1.247 . S
O153 Co140 2.244 . S
O153 C143 1.272 . S
O153 Co145 2.135 . S
Co154 O155 2.216 . S
Co154 O156 2.091 . S
Co154 O158 2.004 . S
Co154 O164 2.021 . S
Co154 O166 2.137 . S
Co154 O167 2.244 . S
O155 Co154 2.216 . S
O155 C162 1.247 . S
O156 Co154 2.091 . S
O156 C162 1.261 . S
C157 O166 1.247 . S
C157 O167 1.272 . S
O158 Co154 2.004 . S
O158 C163 1.259 . S
Co159 O160 2.061 . S
Co159 O165 2.052 . S
Co159 O167 2.135 . S
O160 Co159 2.061 . S
O160 C163 1.235 . S
C161 O164 1.238 . S
C161 O165 1.241 . S
C162 O155 1.247 . S
C162 O156 1.261 . S
C163 O158 1.259 . S
C163 O160 1.235 . S
O164 Co154 2.021 . S
O164 C161 1.238 . S
O165 Co159 2.052 . S
O165 C161 1.241 . S
O166 Co154 2.137 . S
O166 C157 1.247 . S
O167 Co154 2.244 . S
O167 C157 1.272 . S
O167 Co159 2.135 . S
Co168 O169 2.216 . S
Co168 O170 2.091 . S
Co168 O172 2.004 . S
Co168 O178 2.021 . S
Co168 O180 2.137 . S
Co168 O181 2.244 . S
O169 Co168 2.216 . S
O169 C176 1.247 . S
O170 Co168 2.091 . S
O170 C176 1.261 . S
C171 O180 1.247 . S
C171 O181 1.272 . S
O172 Co168 2.004 . S
O172 C177 1.259 . S
Co173 O174 2.061 . S
Co173 O179 2.052 . S
Co173 O181 2.135 . S
O174 Co173 2.061 . S
O174 C177 1.235 . S
C175 O178 1.238 . S
C175 O179 1.241 . S
C176 O169 1.247 . S
C176 O170 1.261 . S
C177 O172 1.259 . S
C177 O174 1.235 . S
O178 Co168 2.021 . S
O178 C175 1.238 . S
O179 Co173 2.052 . S
O179 C175 1.241 . S
O180 Co168 2.137 . S
O180 C171 1.247 . S
O181 Co168 2.244 . S
O181 C171 1.272 . S
O181 Co173 2.135 . S
Co182 O183 2.216 . S
Co182 O184 2.091 . S
Co182 O186 2.004 . S
Co182 O192 2.021 . S
Co182 O194 2.137 . S
Co182 O195 2.244 . S
O183 Co182 2.216 . S
O183 C190 1.247 . S
O184 Co182 2.091 . S
O184 C190 1.261 . S
C185 O194 1.247 . S
C185 O195 1.272 . S
O186 Co182 2.004 . S
O186 C191 1.259 . S
Co187 O188 2.061 . S
Co187 O193 2.052 . S
Co187 O195 2.135 . S
O188 Co187 2.061 . S
O188 C191 1.235 . S
C189 O192 1.238 . S
C189 O193 1.241 . S
C190 O183 1.247 . S
C190 O184 1.261 . S
C191 O186 1.259 . S
C191 O188 1.235 . S
O192 Co182 2.021 . S
O192 C189 1.238 . S
O193 Co187 2.052 . S
O193 C189 1.241 . S
O194 Co182 2.137 . S
O194 C185 1.247 . S
O195 Co182 2.244 . S
O195 C185 1.272 . S
O195 Co187 2.135 . S
Co196 O197 2.216 . S
Co196 O198 2.091 . S
Co196 O200 2.004 . S
Co196 O206 2.021 . S
Co196 O208 2.137 . S
Co196 O209 2.244 . S
O197 Co196 2.216 . S
O197 C204 1.247 . S
O198 Co196 2.091 . S
O198 C204 1.261 . S
C199 O208 1.247 . S
C199 O209 1.272 . S
O200 Co196 2.004 . S
O200 C205 1.259 . S
Co201 O202 2.061 . S
Co201 O207 2.052 . S
Co201 O209 2.135 . S
O202 Co201 2.061 . S
O202 C205 1.235 . S
C203 O206 1.238 . S
C203 O207 1.241 . S
C204 O197 1.247 . S
C204 O198 1.261 . S
C205 O200 1.259 . S
C205 O202 1.235 . S
O206 Co196 2.021 . S
O206 C203 1.238 . S
O207 Co201 2.052 . S
O207 C203 1.241 . S
O208 Co196 2.137 . S
O208 C199 1.247 . S
O209 Co196 2.244 . S
O209 C199 1.272 . S
O209 Co201 2.135 . S
Co210 O211 2.216 . S
Co210 O212 2.091 . S
Co210 O214 2.004 . S
Co210 O220 2.021 . S
Co210 O222 2.137 . S
Co210 O223 2.244 . S
O211 Co210 2.216 . S
O211 C218 1.247 . S
O212 Co210 2.091 . S
O212 C218 1.261 . S
C213 O222 1.247 . S
C213 O223 1.272 . S
O214 Co210 2.004 . S
O214 C219 1.259 . S
Co215 O216 2.061 . S
Co215 O221 2.052 . S
Co215 O223 2.135 . S
O216 Co215 2.061 . S
O216 C219 1.235 . S
C217 O220 1.238 . S
C217 O221 1.241 . S
C218 O211 1.247 . S
C218 O212 1.261 . S
C219 O214 1.259 . S
C219 O216 1.235 . S
O220 Co210 2.021 . S
O220 C217 1.238 . S
O221 Co215 2.052 . S
O221 C217 1.241 . S
O222 Co210 2.137 . S
O222 C213 1.247 . S
O223 Co210 2.244 . S
O223 C213 1.272 . S
O223 Co215 2.135 . S
Co224 O225 2.216 . S
Co224 O226 2.091 . S
Co224 O228 2.004 . S
Co224 O234 2.021 . S
Co224 O236 2.137 . S
Co224 O237 2.244 . S
O225 Co224 2.216 . S
O225 C232 1.247 . S
O226 Co224 2.091 . S
O226 C232 1.261 . S
C227 O236 1.247 . S
C227 O237 1.272 . S
O228 Co224 2.004 . S
O228 C233 1.259 . S
Co229 O230 2.061 . S
Co229 O235 2.052 . S
Co229 O237 2.135 . S
O230 Co229 2.061 . S
O230 C233 1.235 . S
C231 O234 1.238 . S
C231 O235 1.241 . S
C232 O225 1.247 . S
C232 O226 1.261 . S
C233 O228 1.259 . S
C233 O230 1.235 . S
O234 Co224 2.021 . S
O234 C231 1.238 . S
O235 Co229 2.052 . S
O235 C231 1.241 . S
O236 Co224 2.137 . S
O236 C227 1.247 . S
O237 Co224 2.244 . S
O237 C227 1.272 . S
O237 Co229 2.135 . S
Co238 O239 2.216 . S
Co238 O240 2.091 . S
Co238 O242 2.004 . S
Co238 O248 2.021 . S
Co238 O250 2.137 . S
Co238 O251 2.244 . S
O239 Co238 2.216 . S
O239 C246 1.247 . S
O240 Co238 2.091 . S
O240 C246 1.261 . S
C241 O250 1.247 . S
C241 O251 1.272 . S
O242 Co238 2.004 . S
O242 C247 1.259 . S
Co243 O244 2.061 . S
Co243 O249 2.052 . S
Co243 O251 2.135 . S
O244 Co243 2.061 . S
O244 C247 1.235 . S
C245 O248 1.238 . S
C245 O249 1.241 . S
C246 O239 1.247 . S
C246 O240 1.261 . S
C247 O242 1.259 . S
C247 O244 1.235 . S
O248 Co238 2.021 . S
O248 C245 1.238 . S
O249 Co243 2.052 . S
O249 C245 1.241 . S
O250 Co238 2.137 . S
O250 C241 1.247 . S
O251 Co238 2.244 . S
O251 C241 1.272 . S
O251 Co243 2.135 . S
Co252 O253 2.216 . S
Co252 O254 2.091 . S
Co252 O256 2.004 . S
Co252 O262 2.021 . S
Co252 O264 2.137 . S
Co252 O265 2.244 . S
O253 Co252 2.216 . S
O253 C260 1.247 . S
O254 Co252 2.091 . S
O254 C260 1.261 . S
C255 O264 1.247 . S
C255 O265 1.272 . S
O256 Co252 2.004 . S
O256 C261 1.259 . S
Co257 O258 2.061 . S
Co257 O263 2.052 . S
Co257 O265 2.135 . S
O258 Co257 2.061 . S
O258 C261 1.235 . S
C259 O262 1.238 . S
C259 O263 1.241 . S
C260 O253 1.247 . S
C260 O254 1.261 . S
C261 O256 1.259 . S
C261 O258 1.235 . S
O262 Co252 2.021 . S
O262 C259 1.238 . S
O263 Co257 2.052 . S
O263 C259 1.241 . S
O264 Co252 2.137 . S
O264 C255 1.247 . S
O265 Co252 2.244 . S
O265 C255 1.272 . S
O265 Co257 2.135 . S
Co266 O267 2.216 . S
Co266 O268 2.091 . S
Co266 O270 2.004 . S
Co266 O276 2.021 . S
Co266 O278 2.137 . S
Co266 O279 2.244 . S
O267 Co266 2.216 . S
O267 C274 1.247 . S
O268 Co266 2.091 . S
O268 C274 1.261 . S
C269 O278 1.247 . S
C269 O279 1.272 . S
O270 Co266 2.004 . S
O270 C275 1.259 . S
Co271 O272 2.061 . S
Co271 O277 2.052 . S
Co271 O279 2.135 . S
O272 Co271 2.061 . S
O272 C275 1.235 . S
C273 O276 1.238 . S
C273 O277 1.241 . S
C274 O267 1.247 . S
C274 O268 1.261 . S
C275 O270 1.259 . S
C275 O272 1.235 . S
O276 Co266 2.021 . S
O276 C273 1.238 . S
O277 Co271 2.052 . S
O277 C273 1.241 . S
O278 Co266 2.137 . S
O278 C269 1.247 . S
O279 Co266 2.244 . S
O279 C269 1.272 . S
O279 Co271 2.135 . S
Co280 O281 2.216 . S
Co280 O282 2.091 . S
Co280 O284 2.004 . S
Co280 O290 2.021 . S
Co280 O292 2.137 . S
Co280 O293 2.244 . S
O281 Co280 2.216 . S
O281 C288 1.247 . S
O282 Co280 2.091 . S
O282 C288 1.261 . S
C283 O292 1.247 . S
C283 O293 1.272 . S
O284 Co280 2.004 . S
O284 C289 1.259 . S
Co285 O286 2.061 . S
Co285 O291 2.052 . S
Co285 O293 2.135 . S
O286 Co285 2.061 . S
O286 C289 1.235 . S
C287 O290 1.238 . S
C287 O291 1.241 . S
C288 O281 1.247 . S
C288 O282 1.261 . S
C289 O284 1.259 . S
C289 O286 1.235 . S
O290 Co280 2.021 . S
O290 C287 1.238 . S
O291 Co285 2.052 . S
O291 C287 1.241 . S
O292 Co280 2.137 . S
O292 C283 1.247 . S
O293 Co280 2.244 . S
O293 C283 1.272 . S
O293 Co285 2.135 . S
Co294 O295 2.216 . S
Co294 O296 2.091 . S
Co294 O298 2.004 . S
Co294 O304 2.021 . S
Co294 O306 2.137 . S
Co294 O307 2.244 . S
O295 Co294 2.216 . S
O295 C302 1.247 . S
O296 Co294 2.091 . S
O296 C302 1.261 . S
C297 O306 1.247 . S
C297 O307 1.272 . S
O298 Co294 2.004 . S
O298 C303 1.259 . S
Co299 O300 2.061 . S
Co299 O305 2.052 . S
Co299 O307 2.135 . S
O300 Co299 2.061 . S
O300 C303 1.235 . S
C301 O304 1.238 . S
C301 O305 1.241 . S
C302 O295 1.247 . S
C302 O296 1.261 . S
C303 O298 1.259 . S
C303 O300 1.235 . S
O304 Co294 2.021 . S
O304 C301 1.238 . S
O305 Co299 2.052 . S
O305 C301 1.241 . S
O306 Co294 2.137 . S
O306 C297 1.247 . S
O307 Co294 2.244 . S
O307 C297 1.272 . S
O307 Co299 2.135 . S
Co308 O309 2.216 . S
Co308 O310 2.091 . S
Co308 O312 2.004 . S
Co308 O318 2.021 . S
Co308 O320 2.137 . S
Co308 O321 2.244 . S
O309 Co308 2.216 . S
O309 C316 1.247 . S
O310 Co308 2.091 . S
O310 C316 1.261 . S
C311 O320 1.247 . S
C311 O321 1.272 . S
O312 Co308 2.004 . S
O312 C317 1.259 . S
Co313 O314 2.061 . S
Co313 O319 2.052 . S
Co313 O321 2.135 . S
O314 Co313 2.061 . S
O314 C317 1.235 . S
C315 O318 1.238 . S
C315 O319 1.241 . S
C316 O309 1.247 . S
C316 O310 1.261 . S
C317 O312 1.259 . S
C317 O314 1.235 . S
O318 Co308 2.021 . S
O318 C315 1.238 . S
O319 Co313 2.052 . S
O319 C315 1.241 . S
O320 Co308 2.137 . S
O320 C311 1.247 . S
O321 Co308 2.244 . S
O321 C311 1.272 . S
O321 Co313 2.135 . S
Co322 O323 2.216 . S
Co322 O324 2.091 . S
Co322 O326 2.004 . S
Co322 O332 2.021 . S
Co322 O334 2.137 . S
Co322 O335 2.244 . S
O323 Co322 2.216 . S
O323 C330 1.247 . S
O324 Co322 2.091 . S
O324 C330 1.261 . S
C325 O334 1.247 . S
C325 O335 1.272 . S
O326 Co322 2.004 . S
O326 C331 1.259 . S
Co327 O328 2.061 . S
Co327 O333 2.052 . S
Co327 O335 2.135 . S
O328 Co327 2.061 . S
O328 C331 1.235 . S
C329 O332 1.238 . S
C329 O333 1.241 . S
C330 O323 1.247 . S
C330 O324 1.261 . S
C331 O326 1.259 . S
C331 O328 1.235 . S
O332 Co322 2.021 . S
O332 C329 1.238 . S
O333 Co327 2.052 . S
O333 C329 1.241 . S
O334 Co322 2.137 . S
O334 C325 1.247 . S
O335 Co322 2.244 . S
O335 C325 1.272 . S
O335 Co327 2.135 . S
Co336 O337 2.216 . S
Co336 O338 2.091 . S
Co336 O340 2.004 . S
Co336 O346 2.021 . S
Co336 O348 2.137 . S
Co336 O349 2.244 . S
O337 Co336 2.216 . S
O337 C344 1.247 . S
O338 Co336 2.091 . S
O338 C344 1.261 . S
C339 O348 1.247 . S
C339 O349 1.272 . S
O340 Co336 2.004 . S
O340 C345 1.259 . S
Co341 O342 2.061 . S
Co341 O347 2.052 . S
Co341 O349 2.135 . S
O342 Co341 2.061 . S
O342 C345 1.235 . S
C343 O346 1.238 . S
C343 O347 1.241 . S
C344 O337 1.247 . S
C344 O338 1.261 . S
C345 O340 1.259 . S
C345 O342 1.235 . S
O346 Co336 2.021 . S
O346 C343 1.238 . S
O347 Co341 2.052 . S
O347 C343 1.241 . S
O348 Co336 2.137 . S
O348 C339 1.247 . S
O349 Co336 2.244 . S
O349 C339 1.272 . S
O349 Co341 2.135 . S
Co350 O351 2.216 . S
Co350 O352 2.091 . S
Co350 O354 2.004 . S
Co350 O360 2.021 . S
Co350 O362 2.137 . S
Co350 O363 2.244 . S
O351 Co350 2.216 . S
O351 C358 1.247 . S
O352 Co350 2.091 . S
O352 C358 1.261 . S
C353 O362 1.247 . S
C353 O363 1.272 . S
O354 Co350 2.004 . S
O354 C359 1.259 . S
Co355 O356 2.061 . S
Co355 O361 2.052 . S
Co355 O363 2.135 . S
O356 Co355 2.061 . S
O356 C359 1.235 . S
C357 O360 1.238 . S
C357 O361 1.241 . S
C358 O351 1.247 . S
C358 O352 1.261 . S
C359 O354 1.259 . S
C359 O356 1.235 . S
O360 Co350 2.021 . S
O360 C357 1.238 . S
O361 Co355 2.052 . S
O361 C357 1.241 . S
O362 Co350 2.137 . S
O362 C353 1.247 . S
O363 Co350 2.244 . S
O363 C353 1.272 . S
O363 Co355 2.135 . S
Co364 O365 2.216 . S
Co364 O366 2.091 . S
Co364 O368 2.004 . S
Co364 O374 2.021 . S
Co364 O376 2.137 . S
Co364 O377 2.244 . S
O365 Co364 2.216 . S
O365 C372 1.247 . S
O366 Co364 2.091 . S
O366 C372 1.261 . S
C367 O376 1.247 . S
C367 O377 1.272 . S
O368 Co364 2.004 . S
O368 C373 1.259 . S
Co369 O370 2.061 . S
Co369 O375 2.052 . S
Co369 O377 2.135 . S
O370 Co369 2.061 . S
O370 C373 1.235 . S
C371 O374 1.238 . S
C371 O375 1.241 . S
C372 O365 1.247 . S
C372 O366 1.261 . S
C373 O368 1.259 . S
C373 O370 1.235 . S
O374 Co364 2.021 . S
O374 C371 1.238 . S
O375 Co369 2.052 . S
O375 C371 1.241 . S
O376 Co364 2.137 . S
O376 C367 1.247 . S
O377 Co364 2.244 . S
O377 C367 1.272 . S
O377 Co369 2.135 . S
Co378 O379 2.216 . S
Co378 O380 2.091 . S
Co378 O382 2.004 . S
Co378 O388 2.021 . S
Co378 O390 2.137 . S
Co378 O391 2.244 . S
O379 Co378 2.216 . S
O379 C386 1.247 . S
O380 Co378 2.091 . S
O380 C386 1.261 . S
C381 O390 1.247 . S
C381 O391 1.272 . S
O382 Co378 2.004 . S
O382 C387 1.259 . S
Co383 O384 2.061 . S
Co383 O389 2.052 . S
Co383 O391 2.135 . S
O384 Co383 2.061 . S
O384 C387 1.235 . S
C385 O388 1.238 . S
C385 O389 1.241 . S
C386 O379 1.247 . S
C386 O380 1.261 . S
C387 O382 1.259 . S
C387 O384 1.235 . S
O388 Co378 2.021 . S
O388 C385 1.238 . S
O389 Co383 2.052 . S
O389 C385 1.241 . S
O390 Co378 2.137 . S
O390 C381 1.247 . S
O391 Co378 2.244 . S
O391 C381 1.272 . S
O391 Co383 2.135 . S
Co392 O393 2.216 . S
Co392 O394 2.091 . S
Co392 O396 2.004 . S
Co392 O402 2.021 . S
Co392 O404 2.137 . S
Co392 O405 2.244 . S
O393 Co392 2.216 . S
O393 C400 1.247 . S
O394 Co392 2.091 . S
O394 C400 1.261 . S
C395 O404 1.247 . S
C395 O405 1.272 . S
O396 Co392 2.004 . S
O396 C401 1.259 . S
Co397 O398 2.061 . S
Co397 O403 2.052 . S
Co397 O405 2.135 . S
O398 Co397 2.061 . S
O398 C401 1.235 . S
C399 O402 1.238 . S
C399 O403 1.241 . S
C400 O393 1.247 . S
C400 O394 1.261 . S
C401 O396 1.259 . S
C401 O398 1.235 . S
O402 Co392 2.021 . S
O402 C399 1.238 . S
O403 Co397 2.052 . S
O403 C399 1.241 . S
O404 Co392 2.137 . S
O404 C395 1.247 . S
O405 Co392 2.244 . S
O405 C395 1.272 . S
O405 Co397 2.135 . S
Co406 O407 2.216 . S
Co406 O408 2.091 . S
Co406 O410 2.004 . S
Co406 O416 2.021 . S
Co406 O418 2.137 . S
Co406 O419 2.244 . S
O407 Co406 2.216 . S
O407 C414 1.247 . S
O408 Co406 2.091 . S
O408 C414 1.261 . S
C409 O418 1.247 . S
C409 O419 1.272 . S
O410 Co406 2.004 . S
O410 C415 1.259 . S
Co411 O412 2.061 . S
Co411 O417 2.052 . S
Co411 O419 2.135 . S
O412 Co411 2.061 . S
O412 C415 1.235 . S
C413 O416 1.238 . S
C413 O417 1.241 . S
C414 O407 1.247 . S
C414 O408 1.261 . S
C415 O410 1.259 . S
C415 O412 1.235 . S
O416 Co406 2.021 . S
O416 C413 1.238 . S
O417 Co411 2.052 . S
O417 C413 1.241 . S
O418 Co406 2.137 . S
O418 C409 1.247 . S
O419 Co406 2.244 . S
O419 C409 1.272 . S
O419 Co411 2.135 . S
Co420 O421 2.216 . S
Co420 O422 2.091 . S
Co420 O424 2.004 . S
Co420 O430 2.021 . S
Co420 O432 2.137 . S
Co420 O433 2.244 . S
O421 Co420 2.216 . S
O421 C428 1.247 . S
O422 Co420 2.091 . S
O422 C428 1.261 . S
C423 O432 1.247 . S
C423 O433 1.272 . S
O424 Co420 2.004 . S
O424 C429 1.259 . S
Co425 O426 2.061 . S
Co425 O431 2.052 . S
Co425 O433 2.135 . S
O426 Co425 2.061 . S
O426 C429 1.235 . S
C427 O430 1.238 . S
C427 O431 1.241 . S
C428 O421 1.247 . S
C428 O422 1.261 . S
C429 O424 1.259 . S
C429 O426 1.235 . S
O430 Co420 2.021 . S
O430 C427 1.238 . S
O431 Co425 2.052 . S
O431 C427 1.241 . S
O432 Co420 2.137 . S
O432 C423 1.247 . S
O433 Co420 2.244 . S
O433 C423 1.272 . S
O433 Co425 2.135 . S
Co434 O435 2.216 . S
Co434 O436 2.091 . S
Co434 O438 2.004 . S
Co434 O444 2.021 . S
Co434 O446 2.137 . S
Co434 O447 2.244 . S
O435 Co434 2.216 . S
O435 C442 1.247 . S
O436 Co434 2.091 . S
O436 C442 1.261 . S
C437 O446 1.247 . S
C437 O447 1.272 . S
O438 Co434 2.004 . S
O438 C443 1.259 . S
Co439 O440 2.061 . S
Co439 O445 2.052 . S
Co439 O447 2.135 . S
O440 Co439 2.061 . S
O440 C443 1.235 . S
C441 O444 1.238 . S
C441 O445 1.241 . S
C442 O435 1.247 . S
C442 O436 1.261 . S
C443 O438 1.259 . S
C443 O440 1.235 . S
O444 Co434 2.021 . S
O444 C441 1.238 . S
O445 Co439 2.052 . S
O445 C441 1.241 . S
O446 Co434 2.137 . S
O446 C437 1.247 . S
O447 Co434 2.244 . S
O447 C437 1.272 . S
O447 Co439 2.135 . S
Co448 O449 2.216 . S
Co448 O450 2.091 . S
Co448 O452 2.004 . S
Co448 O458 2.021 . S
Co448 O460 2.137 . S
Co448 O461 2.244 . S
O449 Co448 2.216 . S
O449 C456 1.247 . S
O450 Co448 2.091 . S
O450 C456 1.261 . S
C451 O460 1.247 . S
C451 O461 1.272 . S
O452 Co448 2.004 . S
O452 C457 1.259 . S
Co453 O454 2.061 . S
Co453 O459 2.052 . S
Co453 O461 2.135 . S
O454 Co453 2.061 . S
O454 C457 1.235 . S
C455 O458 1.238 . S
C455 O459 1.241 . S
C456 O449 1.247 . S
C456 O450 1.261 . S
C457 O452 1.259 . S
C457 O454 1.235 . S
O458 Co448 2.021 . S
O458 C455 1.238 . S
O459 Co453 2.052 . S
O459 C455 1.241 . S
O460 Co448 2.137 . S
O460 C451 1.247 . S
O461 Co448 2.244 . S
O461 C451 1.272 . S
O461 Co453 2.135 . S
Co462 O463 2.216 . S
Co462 O464 2.091 . S
Co462 O466 2.004 . S
Co462 O472 2.021 . S
Co462 O474 2.137 . S
Co462 O475 2.244 . S
O463 Co462 2.216 . S
O463 C470 1.247 . S
O464 Co462 2.091 . S
O464 C470 1.261 . S
C465 O474 1.247 . S
C465 O475 1.272 . S
O466 Co462 2.004 . S
O466 C471 1.259 . S
Co467 O468 2.061 . S
Co467 O473 2.052 . S
Co467 O475 2.135 . S
O468 Co467 2.061 . S
O468 C471 1.235 . S
C469 O472 1.238 . S
C469 O473 1.241 . S
C470 O463 1.247 . S
C470 O464 1.261 . S
C471 O466 1.259 . S
C471 O468 1.235 . S
O472 Co462 2.021 . S
O472 C469 1.238 . S
O473 Co467 2.052 . S
O473 C469 1.241 . S
O474 Co462 2.137 . S
O474 C465 1.247 . S
O475 Co462 2.244 . S
O475 C465 1.272 . S
O475 Co467 2.135 . S
Co476 O477 2.216 . S
Co476 O478 2.091 . S
Co476 O480 2.004 . S
Co476 O486 2.021 . S
Co476 O488 2.137 . S
Co476 O489 2.244 . S
O477 Co476 2.216 . S
O477 C484 1.247 . S
O478 Co476 2.091 . S
O478 C484 1.261 . S
C479 O488 1.247 . S
C479 O489 1.272 . S
O480 Co476 2.004 . S
O480 C485 1.259 . S
Co481 O482 2.061 . S
Co481 O487 2.052 . S
Co481 O489 2.135 . S
O482 Co481 2.061 . S
O482 C485 1.235 . S
C483 O486 1.238 . S
C483 O487 1.241 . S
C484 O477 1.247 . S
C484 O478 1.261 . S
C485 O480 1.259 . S
C485 O482 1.235 . S
O486 Co476 2.021 . S
O486 C483 1.238 . S
O487 Co481 2.052 . S
O487 C483 1.241 . S
O488 Co476 2.137 . S
O488 C479 1.247 . S
O489 Co476 2.244 . S
O489 C479 1.272 . S
O489 Co481 2.135 . S
Co490 O491 2.216 . S
Co490 O492 2.091 . S
Co490 O494 2.004 . S
Co490 O500 2.021 . S
Co490 O502 2.137 . S
Co490 O503 2.244 . S
O491 Co490 2.216 . S
O491 C498 1.247 . S
O492 Co490 2.091 . S
O492 C498 1.261 . S
C493 O502 1.247 . S
C493 O503 1.272 . S
O494 Co490 2.004 . S
O494 C499 1.259 . S
Co495 O496 2.061 . S
Co495 O501 2.052 . S
Co495 O503 2.135 . S
O496 Co495 2.061 . S
O496 C499 1.235 . S
C497 O500 1.238 . S
C497 O501 1.241 . S
C498 O491 1.247 . S
C498 O492 1.261 . S
C499 O494 1.259 . S
C499 O496 1.235 . S
O500 Co490 2.021 . S
O500 C497 1.238 . S
O501 Co495 2.052 . S
O501 C497 1.241 . S
O502 Co490 2.137 . S
O502 C493 1.247 . S
O503 Co490 2.244 . S
O503 C493 1.272 . S
O503 Co495 2.135 . S
Co504 O505 2.216 . S
Co504 O506 2.091 . S
Co504 O508 2.004 . S
Co504 O514 2.021 . S
Co504 O516 2.137 . S
Co504 O517 2.244 . S
O505 Co504 2.216 . S
O505 C512 1.247 . S
O506 Co504 2.091 . S
O506 C512 1.261 . S
C507 O516 1.247 . S
C507 O517 1.272 . S
O508 Co504 2.004 . S
O508 C513 1.259 . S
Co509 O510 2.061 . S
Co509 O515 2.052 . S
Co509 O517 2.135 . S
O510 Co509 2.061 . S
O510 C513 1.235 . S
C511 O514 1.238 . S
C511 O515 1.241 . S
C512 O505 1.247 . S
C512 O506 1.261 . S
C513 O508 1.259 . S
C513 O510 1.235 . S
O514 Co504 2.021 . S
O514 C511 1.238 . S
O515 Co509 2.052 . S
O515 C511 1.241 . S
O516 Co504 2.137 . S
O516 C507 1.247 . S
O517 Co504 2.244 . S
O517 C507 1.272 . S
O517 Co509 2.135 . S
Co518 O519 2.216 . S
Co518 O520 2.091 . S
Co518 O522 2.004 . S
Co518 O528 2.021 . S
Co518 O530 2.137 . S
Co518 O531 2.244 . S
O519 Co518 2.216 . S
O519 C526 1.247 . S
O520 Co518 2.091 . S
O520 C526 1.261 . S
C521 O530 1.247 . S
C521 O531 1.272 . S
O522 Co518 2.004 . S
O522 C527 1.259 . S
Co523 O524 2.061 . S
Co523 O529 2.052 . S
Co523 O531 2.135 . S
O524 Co523 2.061 . S
O524 C527 1.235 . S
C525 O528 1.238 . S
C525 O529 1.241 . S
C526 O519 1.247 . S
C526 O520 1.261 . S
C527 O522 1.259 . S
C527 O524 1.235 . S
O528 Co518 2.021 . S
O528 C525 1.238 . S
O529 Co523 2.052 . S
O529 C525 1.241 . S
O530 Co518 2.137 . S
O530 C521 1.247 . S
O531 Co518 2.244 . S
O531 C521 1.272 . S
O531 Co523 2.135 . S
Co532 O533 2.216 . S
Co532 O534 2.091 . S
Co532 O536 2.004 . S
Co532 O542 2.021 . S
Co532 O544 2.137 . S
Co532 O545 2.244 . S
O533 Co532 2.216 . S
O533 C540 1.247 . S
O534 Co532 2.091 . S
O534 C540 1.261 . S
C535 O544 1.247 . S
C535 O545 1.272 . S
O536 Co532 2.004 . S
O536 C541 1.259 . S
Co537 O538 2.061 . S
Co537 O543 2.052 . S
Co537 O545 2.135 . S
O538 Co537 2.061 . S
O538 C541 1.235 . S
C539 O542 1.238 . S
C539 O543 1.241 . S
C540 O533 1.247 . S
C540 O534 1.261 . S
C541 O536 1.259 . S
C541 O538 1.235 . S
O542 Co532 2.021 . S
O542 C539 1.238 . S
O543 Co537 2.052 . S
O543 C539 1.241 . S
O544 Co532 2.137 . S
O544 C535 1.247 . S
O545 Co532 2.244 . S
O545 C535 1.272 . S
O545 Co537 2.135 . S
Co546 O547 2.216 . S
Co546 O548 2.091 . S
Co546 O550 2.004 . S
Co546 O556 2.021 . S
Co546 O558 2.137 . S
Co546 O559 2.244 . S
O547 Co546 2.216 . S
O547 C554 1.247 . S
O548 Co546 2.091 . S
O548 C554 1.261 . S
C549 O558 1.247 . S
C549 O559 1.272 . S
O550 Co546 2.004 . S
O550 C555 1.259 . S
Co551 O552 2.061 . S
Co551 O557 2.052 . S
Co551 O559 2.135 . S
O552 Co551 2.061 . S
O552 C555 1.235 . S
C553 O556 1.238 . S
C553 O557 1.241 . S
C554 O547 1.247 . S
C554 O548 1.261 . S
C555 O550 1.259 . S
C555 O552 1.235 . S
O556 Co546 2.021 . S
O556 C553 1.238 . S
O557 Co551 2.052 . S
O557 C553 1.241 . S
O558 Co546 2.137 . S
O558 C549 1.247 . S
O559 Co546 2.244 . S
O559 C549 1.272 . S
O559 Co551 2.135 . S
Co560 O561 2.216 . S
Co560 O562 2.091 . S
Co560 O564 2.004 . S
Co560 O570 2.021 . S
Co560 O572 2.137 . S
Co560 O573 2.244 . S
O561 Co560 2.216 . S
O561 C568 1.247 . S
O562 Co560 2.091 . S
O562 C568 1.261 . S
C563 O572 1.247 . S
C563 O573 1.272 . S
O564 Co560 2.004 . S
O564 C569 1.259 . S
Co565 O566 2.061 . S
Co565 O571 2.052 . S
Co565 O573 2.135 . S
O566 Co565 2.061 . S
O566 C569 1.235 . S
C567 O570 1.238 . S
C567 O571 1.241 . S
C568 O561 1.247 . S
C568 O562 1.261 . S
C569 O564 1.259 . S
C569 O566 1.235 . S
O570 Co560 2.021 . S
O570 C567 1.238 . S
O571 Co565 2.052 . S
O571 C567 1.241 . S
O572 Co560 2.137 . S
O572 C563 1.247 . S
O573 Co560 2.244 . S
O573 C563 1.272 . S
O573 Co565 2.135 . S
Co574 O575 2.216 . S
Co574 O576 2.091 . S
Co574 O578 2.004 . S
Co574 O584 2.021 . S
Co574 O586 2.137 . S
Co574 O587 2.244 . S
O575 Co574 2.216 . S
O575 C582 1.247 . S
O576 Co574 2.091 . S
O576 C582 1.261 . S
C577 O586 1.247 . S
C577 O587 1.272 . S
O578 Co574 2.004 . S
O578 C583 1.259 . S
Co579 O580 2.061 . S
Co579 O585 2.052 . S
Co579 O587 2.135 . S
O580 Co579 2.061 . S
O580 C583 1.235 . S
C581 O584 1.238 . S
C581 O585 1.241 . S
C582 O575 1.247 . S
C582 O576 1.261 . S
C583 O578 1.259 . S
C583 O580 1.235 . S
O584 Co574 2.021 . S
O584 C581 1.238 . S
O585 Co579 2.052 . S
O585 C581 1.241 . S
O586 Co574 2.137 . S
O586 C577 1.247 . S
O587 Co574 2.244 . S
O587 C577 1.272 . S
O587 Co579 2.135 . S
Co588 O589 2.216 . S
Co588 O590 2.091 . S
Co588 O592 2.004 . S
Co588 O598 2.021 . S
Co588 O600 2.137 . S
Co588 O601 2.244 . S
O589 Co588 2.216 . S
O589 C596 1.247 . S
O590 Co588 2.091 . S
O590 C596 1.261 . S
C591 O600 1.247 . S
C591 O601 1.272 . S
O592 Co588 2.004 . S
O592 C597 1.259 . S
Co593 O594 2.061 . S
Co593 O599 2.052 . S
Co593 O601 2.135 . S
O594 Co593 2.061 . S
O594 C597 1.235 . S
C595 O598 1.238 . S
C595 O599 1.241 . S
C596 O589 1.247 . S
C596 O590 1.261 . S
C597 O592 1.259 . S
C597 O594 1.235 . S
O598 Co588 2.021 . S
O598 C595 1.238 . S
O599 Co593 2.052 . S
O599 C595 1.241 . S
O600 Co588 2.137 . S
O600 C591 1.247 . S
O601 Co588 2.244 . S
O601 C591 1.272 . S
O601 Co593 2.135 . S
Co602 O603 2.216 . S
Co602 O604 2.091 . S
Co602 O606 2.004 . S
Co602 O612 2.021 . S
Co602 O614 2.137 . S
Co602 O615 2.244 . S
O603 Co602 2.216 . S
O603 C610 1.247 . S
O604 Co602 2.091 . S
O604 C610 1.261 . S
C605 O614 1.247 . S
C605 O615 1.272 . S
O606 Co602 2.004 . S
O606 C611 1.259 . S
Co607 O608 2.061 . S
Co607 O613 2.052 . S
Co607 O615 2.135 . S
O608 Co607 2.061 . S
O608 C611 1.235 . S
C609 O612 1.238 . S
C609 O613 1.241 . S
C610 O603 1.247 . S
C610 O604 1.261 . S
C611 O606 1.259 . S
C611 O608 1.235 . S
O612 Co602 2.021 . S
O612 C609 1.238 . S
O613 Co607 2.052 . S
O613 C609 1.241 . S
O614 Co602 2.137 . S
O614 C605 1.247 . S
O615 Co602 2.244 . S
O615 C605 1.272 . S
O615 Co607 2.135 . S
Co616 O617 2.216 . S
Co616 O618 2.091 . S
Co616 O620 2.004 . S
Co616 O626 2.021 . S
Co616 O628 2.137 . S
Co616 O629 2.244 . S
O617 Co616 2.216 . S
O617 C624 1.247 . S
O618 Co616 2.091 . S
O618 C624 1.261 . S
C619 O628 1.247 . S
C619 O629 1.272 . S
O620 Co616 2.004 . S
O620 C625 1.259 . S
Co621 O622 2.061 . S
Co621 O627 2.052 . S
Co621 O629 2.135 . S
O622 Co621 2.061 . S
O622 C625 1.235 . S
C623 O626 1.238 . S
C623 O627 1.241 . S
C624 O617 1.247 . S
C624 O618 1.261 . S
C625 O620 1.259 . S
C625 O622 1.235 . S
O626 Co616 2.021 . S
O626 C623 1.238 . S
O627 Co621 2.052 . S
O627 C623 1.241 . S
O628 Co616 2.137 . S
O628 C619 1.247 . S
O629 Co616 2.244 . S
O629 C619 1.272 . S
O629 Co621 2.135 . S
Co630 O631 2.216 . S
Co630 O632 2.091 . S
Co630 O634 2.004 . S
Co630 O640 2.021 . S
Co630 O642 2.137 . S
Co630 O643 2.244 . S
O631 Co630 2.216 . S
O631 C638 1.247 . S
O632 Co630 2.091 . S
O632 C638 1.261 . S
C633 O642 1.247 . S
C633 O643 1.272 . S
O634 Co630 2.004 . S
O634 C639 1.259 . S
Co635 O636 2.061 . S
Co635 O641 2.052 . S
Co635 O643 2.135 . S
O636 Co635 2.061 . S
O636 C639 1.235 . S
C637 O640 1.238 . S
C637 O641 1.241 . S
C638 O631 1.247 . S
C638 O632 1.261 . S
C639 O634 1.259 . S
C639 O636 1.235 . S
O640 Co630 2.021 . S
O640 C637 1.238 . S
O641 Co635 2.052 . S
O641 C637 1.241 . S
O642 Co630 2.137 . S
O642 C633 1.247 . S
O643 Co630 2.244 . S
O643 C633 1.272 . S
O643 Co635 2.135 . S
Co644 O645 2.216 . S
Co644 O646 2.091 . S
Co644 O648 2.004 . S
Co644 O654 2.021 . S
Co644 O656 2.137 . S
Co644 O657 2.244 . S
O645 Co644 2.216 . S
O645 C652 1.247 . S
O646 Co644 2.091 . S
O646 C652 1.261 . S
C647 O656 1.247 . S
C647 O657 1.272 . S
O648 Co644 2.004 . S
O648 C653 1.259 . S
Co649 O650 2.061 . S
Co649 O655 2.052 . S
Co649 O657 2.135 . S
O650 Co649 2.061 . S
O650 C653 1.235 . S
C651 O654 1.238 . S
C651 O655 1.241 . S
C652 O645 1.247 . S
C652 O646 1.261 . S
C653 O648 1.259 . S
C653 O650 1.235 . S
O654 Co644 2.021 . S
O654 C651 1.238 . S
O655 Co649 2.052 . S
O655 C651 1.241 . S
O656 Co644 2.137 . S
O656 C647 1.247 . S
O657 Co644 2.244 . S
O657 C647 1.272 . S
O657 Co649 2.135 . S
Co658 O659 2.216 . S
Co658 O660 2.091 . S
Co658 O662 2.004 . S
Co658 O668 2.021 . S
Co658 O670 2.137 . S
Co658 O671 2.244 . S
O659 Co658 2.216 . S
O659 C666 1.247 . S
O660 Co658 2.091 . S
O660 C666 1.261 . S
C661 O670 1.247 . S
C661 O671 1.272 . S
O662 Co658 2.004 . S
O662 C667 1.259 . S
Co663 O664 2.061 . S
Co663 O669 2.052 . S
Co663 O671 2.135 . S
O664 Co663 2.061 . S
O664 C667 1.235 . S
C665 O668 1.238 . S
C665 O669 1.241 . S
C666 O659 1.247 . S
C666 O660 1.261 . S
C667 O662 1.259 . S
C667 O664 1.235 . S
O668 Co658 2.021 . S
O668 C665 1.238 . S
O669 Co663 2.052 . S
O669 C665 1.241 . S
O670 Co658 2.137 . S
O670 C661 1.247 . S
O671 Co658 2.244 . S
O671 C661 1.272 . S
O671 Co663 2.135 . S
C672 C673 1.349 . S
C672 C674 1.327 . S
C672 H697 0.950 . S
C673 C672 1.349 . S
C673 C689 1.349 . S
C674 C672 1.327 . S
C674 C693 1.429 . S
C674 H698 0.950 . S
C675 C692 1.574 . S
C675 C694 1.368 . S
C675 H699 0.949 . S
H676 C680 0.949 . S
C677 C678 1.349 . S
C677 C679 1.327 . S
C677 H700 0.950 . S
C678 C677 1.349 . S
C678 C690 1.349 . S
C679 C677 1.327 . S
C679 C695 1.429 . S
C679 H701 0.950 . S
C680 H676 0.949 . S
C680 C688 1.574 . S
C680 C696 1.368 . S
H681 C689 0.950 . S
H682 C687 0.950 . S
H683 C688 0.949 . S
H684 C690 0.950 . S
H685 C691 0.950 . S
H686 C692 0.949 . S
C687 H682 0.950 . S
C687 C689 1.327 . S
C687 C693 1.429 . S
C688 C680 1.574 . S
C688 H683 0.949 . S
C688 C694 1.368 . S
C689 C673 1.349 . S
C689 H681 0.950 . S
C689 C687 1.327 . S
C690 C678 1.349 . S
C690 H684 0.950 . S
C690 C691 1.327 . S
C691 H685 0.950 . S
C691 C690 1.327 . S
C691 C695 1.429 . S
C692 C675 1.574 . S
C692 H686 0.949 . S
C692 C696 1.368 . S
C693 C674 1.429 . S
C693 C687 1.429 . S
C693 C694 1.523 . S
C694 C675 1.368 . S
C694 C688 1.368 . S
C694 C693 1.523 . S
C695 C679 1.429 . S
C695 C691 1.429 . S
C695 C696 1.523 . S
C696 C680 1.368 . S
C696 C692 1.368 . S
C696 C695 1.523 . S
H697 C672 0.950 . S
H698 C674 0.950 . S
H699 C675 0.949 . S
H700 C677 0.950 . S
H701 C679 0.950 . S
C702 C703 1.349 . S
C702 C704 1.327 . S
C702 H727 0.950 . S
C703 C702 1.349 . S
C703 C719 1.349 . S
C704 C702 1.327 . S
C704 C723 1.429 . S
C704 H728 0.950 . S
C705 C722 1.574 . S
C705 C724 1.368 . S
C705 H729 0.949 . S
H706 C710 0.949 . S
C707 C708 1.349 . S
C707 C709 1.327 . S
C707 H730 0.950 . S
C708 C707 1.349 . S
C708 C720 1.349 . S
C709 C707 1.327 . S
C709 C725 1.429 . S
C709 H731 0.950 . S
C710 H706 0.949 . S
C710 C718 1.574 . S
C710 C726 1.368 . S
H711 C719 0.950 . S
H712 C717 0.950 . S
H713 C718 0.949 . S
H714 C720 0.950 . S
H715 C721 0.950 . S
H716 C722 0.949 . S
C717 H712 0.950 . S
C717 C719 1.327 . S
C717 C723 1.429 . S
C718 C710 1.574 . S
C718 H713 0.949 . S
C718 C724 1.368 . S
C719 C703 1.349 . S
C719 H711 0.950 . S
C719 C717 1.327 . S
C720 C708 1.349 . S
C720 H714 0.950 . S
C720 C721 1.327 . S
C721 H715 0.950 . S
C721 C720 1.327 . S
C721 C725 1.429 . S
C722 C705 1.574 . S
C722 H716 0.949 . S
C722 C726 1.368 . S
C723 C704 1.429 . S
C723 C717 1.429 . S
C723 C724 1.523 . S
C724 C705 1.368 . S
C724 C718 1.368 . S
C724 C723 1.523 . S
C725 C709 1.429 . S
C725 C721 1.429 . S
C725 C726 1.523 . S
C726 C710 1.368 . S
C726 C722 1.368 . S
C726 C725 1.523 . S
H727 C702 0.950 . S
H728 C704 0.950 . S
H729 C705 0.949 . S
H730 C707 0.950 . S
H731 C709 0.950 . S
C732 C733 1.349 . S
C732 C734 1.327 . S
C732 H757 0.950 . S
C733 C732 1.349 . S
C733 C749 1.349 . S
C734 C732 1.327 . S
C734 C753 1.429 . S
C734 H758 0.950 . S
C735 C752 1.574 . S
C735 C754 1.368 . S
C735 H759 0.949 . S
H736 C740 0.949 . S
C737 C738 1.349 . S
C737 C739 1.327 . S
C737 H760 0.950 . S
C738 C737 1.349 . S
C738 C750 1.349 . S
C739 C737 1.327 . S
C739 C755 1.429 . S
C739 H761 0.950 . S
C740 H736 0.949 . S
C740 C748 1.574 . S
C740 C756 1.368 . S
H741 C749 0.950 . S
H742 C747 0.950 . S
H743 C748 0.949 . S
H744 C750 0.950 . S
H745 C751 0.950 . S
H746 C752 0.949 . S
C747 H742 0.950 . S
C747 C749 1.327 . S
C747 C753 1.429 . S
C748 C740 1.574 . S
C748 H743 0.949 . S
C748 C754 1.368 . S
C749 C733 1.349 . S
C749 H741 0.950 . S
C749 C747 1.327 . S
C750 C738 1.349 . S
C750 H744 0.950 . S
C750 C751 1.327 . S
C751 H745 0.950 . S
C751 C750 1.327 . S
C751 C755 1.429 . S
C752 C735 1.574 . S
C752 H746 0.949 . S
C752 C756 1.368 . S
C753 C734 1.429 . S
C753 C747 1.429 . S
C753 C754 1.523 . S
C754 C735 1.368 . S
C754 C748 1.368 . S
C754 C753 1.523 . S
C755 C739 1.429 . S
C755 C751 1.429 . S
C755 C756 1.523 . S
C756 C740 1.368 . S
C756 C752 1.368 . S
C756 C755 1.523 . S
H757 C732 0.950 . S
H758 C734 0.950 . S
H759 C735 0.949 . S
H760 C737 0.950 . S
H761 C739 0.950 . S
C762 C763 1.349 . S
C762 C764 1.327 . S
C762 H787 0.950 . S
C763 C762 1.349 . S
C763 C779 1.349 . S
C764 C762 1.327 . S
C764 C783 1.429 . S
C764 H788 0.950 . S
C765 C782 1.574 . S
C765 C784 1.368 . S
C765 H789 0.949 . S
H766 C770 0.949 . S
C767 C768 1.349 . S
C767 C769 1.327 . S
C767 H790 0.950 . S
C768 C767 1.349 . S
C768 C780 1.349 . S
C769 C767 1.327 . S
C769 C785 1.429 . S
C769 H791 0.950 . S
C770 H766 0.949 . S
C770 C778 1.574 . S
C770 C786 1.368 . S
H771 C779 0.950 . S
H772 C777 0.950 . S
H773 C778 0.949 . S
H774 C780 0.950 . S
H775 C781 0.950 . S
H776 C782 0.949 . S
C777 H772 0.950 . S
C777 C779 1.327 . S
C777 C783 1.429 . S
C778 C770 1.574 . S
C778 H773 0.949 . S
C778 C784 1.368 . S
C779 C763 1.349 . S
C779 H771 0.950 . S
C779 C777 1.327 . S
C780 C768 1.349 . S
C780 H774 0.950 . S
C780 C781 1.327 . S
C781 H775 0.950 . S
C781 C780 1.327 . S
C781 C785 1.429 . S
C782 C765 1.574 . S
C782 H776 0.949 . S
C782 C786 1.368 . S
C783 C764 1.429 . S
C783 C777 1.429 . S
C783 C784 1.523 . S
C784 C765 1.368 . S
C784 C778 1.368 . S
C784 C783 1.523 . S
C785 C769 1.429 . S
C785 C781 1.429 . S
C785 C786 1.523 . S
C786 C770 1.368 . S
C786 C782 1.368 . S
C786 C785 1.523 . S
H787 C762 0.950 . S
H788 C764 0.950 . S
H789 C765 0.949 . S
H790 C767 0.950 . S
H791 C769 0.950 . S
C792 C793 1.349 . S
C792 C794 1.327 . S
C792 H817 0.950 . S
C793 C792 1.349 . S
C793 C809 1.349 . S
C794 C792 1.327 . S
C794 C813 1.429 . S
C794 H818 0.950 . S
C795 C812 1.574 . S
C795 C814 1.368 . S
C795 H819 0.949 . S
H796 C800 0.949 . S
C797 C798 1.349 . S
C797 C799 1.327 . S
C797 H820 0.950 . S
C798 C797 1.349 . S
C798 C810 1.349 . S
C799 C797 1.327 . S
C799 C815 1.429 . S
C799 H821 0.950 . S
C800 H796 0.949 . S
C800 C808 1.574 . S
C800 C816 1.368 . S
H801 C809 0.950 . S
H802 C807 0.950 . S
H803 C808 0.949 . S
H804 C810 0.950 . S
H805 C811 0.950 . S
H806 C812 0.949 . S
C807 H802 0.950 . S
C807 C809 1.327 . S
C807 C813 1.429 . S
C808 C800 1.574 . S
C808 H803 0.949 . S
C808 C814 1.368 . S
C809 C793 1.349 . S
C809 H801 0.950 . S
C809 C807 1.327 . S
C810 C798 1.349 . S
C810 H804 0.950 . S
C810 C811 1.327 . S
C811 H805 0.950 . S
C811 C810 1.327 . S
C811 C815 1.429 . S
C812 C795 1.574 . S
C812 H806 0.949 . S
C812 C816 1.368 . S
C813 C794 1.429 . S
C813 C807 1.429 . S
C813 C814 1.523 . S
C814 C795 1.368 . S
C814 C808 1.368 . S
C814 C813 1.523 . S
C815 C799 1.429 . S
C815 C811 1.429 . S
C815 C816 1.523 . S
C816 C800 1.368 . S
C816 C812 1.368 . S
C816 C815 1.523 . S
H817 C792 0.950 . S
H818 C794 0.950 . S
H819 C795 0.949 . S
H820 C797 0.950 . S
H821 C799 0.950 . S
C822 C823 1.349 . S
C822 C824 1.327 . S
C822 H847 0.950 . S
C823 C822 1.349 . S
C823 C839 1.349 . S
C824 C822 1.327 . S
C824 C843 1.429 . S
C824 H848 0.950 . S
C825 C842 1.574 . S
C825 C844 1.368 . S
C825 H849 0.949 . S
H826 C830 0.949 . S
C827 C828 1.349 . S
C827 C829 1.327 . S
C827 H850 0.950 . S
C828 C827 1.349 . S
C828 C840 1.349 . S
C829 C827 1.327 . S
C829 C845 1.429 . S
C829 H851 0.950 . S
C830 H826 0.949 . S
C830 C838 1.574 . S
C830 C846 1.368 . S
H831 C839 0.950 . S
H832 C837 0.950 . S
H833 C838 0.949 . S
H834 C840 0.950 . S
H835 C841 0.950 . S
H836 C842 0.949 . S
C837 H832 0.950 . S
C837 C839 1.327 . S
C837 C843 1.429 . S
C838 C830 1.574 . S
C838 H833 0.949 . S
C838 C844 1.368 . S
C839 C823 1.349 . S
C839 H831 0.950 . S
C839 C837 1.327 . S
C840 C828 1.349 . S
C840 H834 0.950 . S
C840 C841 1.327 . S
C841 H835 0.950 . S
C841 C840 1.327 . S
C841 C845 1.429 . S
C842 C825 1.574 . S
C842 H836 0.949 . S
C842 C846 1.368 . S
C843 C824 1.429 . S
C843 C837 1.429 . S
C843 C844 1.523 . S
C844 C825 1.368 . S
C844 C838 1.368 . S
C844 C843 1.523 . S
C845 C829 1.429 . S
C845 C841 1.429 . S
C845 C846 1.523 . S
C846 C830 1.368 . S
C846 C842 1.368 . S
C846 C845 1.523 . S
H847 C822 0.950 . S
H848 C824 0.950 . S
H849 C825 0.949 . S
H850 C827 0.950 . S
H851 C829 0.950 . S
C852 C853 1.349 . S
C852 C854 1.327 . S
C852 H877 0.950 . S
C853 C852 1.349 . S
C853 C869 1.349 . S
C854 C852 1.327 . S
C854 C873 1.429 . S
C854 H878 0.950 . S
C855 C872 1.574 . S
C855 C874 1.368 . S
C855 H879 0.949 . S
H856 C860 0.949 . S
C857 C858 1.349 . S
C857 C859 1.327 . S
C857 H880 0.950 . S
C858 C857 1.349 . S
C858 C870 1.349 . S
C859 C857 1.327 . S
C859 C875 1.429 . S
C859 H881 0.950 . S
C860 H856 0.949 . S
C860 C868 1.574 . S
C860 C876 1.368 . S
H861 C869 0.950 . S
H862 C867 0.950 . S
H863 C868 0.949 . S
H864 C870 0.950 . S
H865 C871 0.950 . S
H866 C872 0.949 . S
C867 H862 0.950 . S
C867 C869 1.327 . S
C867 C873 1.429 . S
C868 C860 1.574 . S
C868 H863 0.949 . S
C868 C874 1.368 . S
C869 C853 1.349 . S
C869 H861 0.950 . S
C869 C867 1.327 . S
C870 C858 1.349 . S
C870 H864 0.950 . S
C870 C871 1.327 . S
C871 H865 0.950 . S
C871 C870 1.327 . S
C871 C875 1.429 . S
C872 C855 1.574 . S
C872 H866 0.949 . S
C872 C876 1.368 . S
C873 C854 1.429 . S
C873 C867 1.429 . S
C873 C874 1.523 . S
C874 C855 1.368 . S
C874 C868 1.368 . S
C874 C873 1.523 . S
C875 C859 1.429 . S
C875 C871 1.429 . S
C875 C876 1.523 . S
C876 C860 1.368 . S
C876 C872 1.368 . S
C876 C875 1.523 . S
H877 C852 0.950 . S
H878 C854 0.950 . S
H879 C855 0.949 . S
H880 C857 0.950 . S
H881 C859 0.950 . S
C882 C883 1.349 . S
C882 C884 1.327 . S
C882 H907 0.950 . S
C883 C882 1.349 . S
C883 C899 1.349 . S
C884 C882 1.327 . S
C884 C903 1.429 . S
C884 H908 0.950 . S
C885 C902 1.574 . S
C885 C904 1.368 . S
C885 H909 0.949 . S
H886 C890 0.949 . S
C887 C888 1.349 . S
C887 C889 1.327 . S
C887 H910 0.950 . S
C888 C887 1.349 . S
C888 C900 1.349 . S
C889 C887 1.327 . S
C889 C905 1.429 . S
C889 H911 0.950 . S
C890 H886 0.949 . S
C890 C898 1.574 . S
C890 C906 1.368 . S
H891 C899 0.950 . S
H892 C897 0.950 . S
H893 C898 0.949 . S
H894 C900 0.950 . S
H895 C901 0.950 . S
H896 C902 0.949 . S
C897 H892 0.950 . S
C897 C899 1.327 . S
C897 C903 1.429 . S
C898 C890 1.574 . S
C898 H893 0.949 . S
C898 C904 1.368 . S
C899 C883 1.349 . S
C899 H891 0.950 . S
C899 C897 1.327 . S
C900 C888 1.349 . S
C900 H894 0.950 . S
C900 C901 1.327 . S
C901 H895 0.950 . S
C901 C900 1.327 . S
C901 C905 1.429 . S
C902 C885 1.574 . S
C902 H896 0.949 . S
C902 C906 1.368 . S
C903 C884 1.429 . S
C903 C897 1.429 . S
C903 C904 1.523 . S
C904 C885 1.368 . S
C904 C898 1.368 . S
C904 C903 1.523 . S
C905 C889 1.429 . S
C905 C901 1.429 . S
C905 C906 1.523 . S
C906 C890 1.368 . S
C906 C902 1.368 . S
C906 C905 1.523 . S
H907 C882 0.950 . S
H908 C884 0.950 . S
H909 C885 0.949 . S
H910 C887 0.950 . S
H911 C889 0.950 . S
C912 C913 1.349 . S
C912 C914 1.327 . S
C912 H937 0.950 . S
C913 C912 1.349 . S
C913 C929 1.349 . S
C914 C912 1.327 . S
C914 C933 1.429 . S
C914 H938 0.950 . S
C915 C932 1.574 . S
C915 C934 1.368 . S
C915 H939 0.949 . S
H916 C920 0.949 . S
C917 C918 1.349 . S
C917 C919 1.327 . S
C917 H940 0.950 . S
C918 C917 1.349 . S
C918 C930 1.349 . S
C919 C917 1.327 . S
C919 C935 1.429 . S
C919 H941 0.950 . S
C920 H916 0.949 . S
C920 C928 1.574 . S
C920 C936 1.368 . S
H921 C929 0.950 . S
H922 C927 0.950 . S
H923 C928 0.949 . S
H924 C930 0.950 . S
H925 C931 0.950 . S
H926 C932 0.949 . S
C927 H922 0.950 . S
C927 C929 1.327 . S
C927 C933 1.429 . S
C928 C920 1.574 . S
C928 H923 0.949 . S
C928 C934 1.368 . S
C929 C913 1.349 . S
C929 H921 0.950 . S
C929 C927 1.327 . S
C930 C918 1.349 . S
C930 H924 0.950 . S
C930 C931 1.327 . S
C931 H925 0.950 . S
C931 C930 1.327 . S
C931 C935 1.429 . S
C932 C915 1.574 . S
C932 H926 0.949 . S
C932 C936 1.368 . S
C933 C914 1.429 . S
C933 C927 1.429 . S
C933 C934 1.523 . S
C934 C915 1.368 . S
C934 C928 1.368 . S
C934 C933 1.523 . S
C935 C919 1.429 . S
C935 C931 1.429 . S
C935 C936 1.523 . S
C936 C920 1.368 . S
C936 C932 1.368 . S
C936 C935 1.523 . S
H937 C912 0.950 . S
H938 C914 0.950 . S
H939 C915 0.949 . S
H940 C917 0.950 . S
H941 C919 0.950 . S
C942 C943 1.349 . S
C942 C944 1.327 . S
C942 H967 0.950 . S
C943 C942 1.349 . S
C943 C959 1.349 . S
C944 C942 1.327 . S
C944 C963 1.429 . S
C944 H968 0.950 . S
C945 C962 1.574 . S
C945 C964 1.368 . S
C945 H969 0.949 . S
H946 C950 0.949 . S
C947 C948 1.349 . S
C947 C949 1.327 . S
C947 H970 0.950 . S
C948 C947 1.349 . S
C948 C960 1.349 . S
C949 C947 1.327 . S
C949 C965 1.429 . S
C949 H971 0.950 . S
C950 H946 0.949 . S
C950 C958 1.574 . S
C950 C966 1.368 . S
H951 C959 0.950 . S
H952 C957 0.950 . S
H953 C958 0.949 . S
H954 C960 0.950 . S
H955 C961 0.950 . S
H956 C962 0.949 . S
C957 H952 0.950 . S
C957 C959 1.327 . S
C957 C963 1.429 . S
C958 C950 1.574 . S
C958 H953 0.949 . S
C958 C964 1.368 . S
C959 C943 1.349 . S
C959 H951 0.950 . S
C959 C957 1.327 . S
C960 C948 1.349 . S
C960 H954 0.950 . S
C960 C961 1.327 . S
C961 H955 0.950 . S
C961 C960 1.327 . S
C961 C965 1.429 . S
C962 C945 1.574 . S
C962 H956 0.949 . S
C962 C966 1.368 . S
C963 C944 1.429 . S
C963 C957 1.429 . S
C963 C964 1.523 . S
C964 C945 1.368 . S
C964 C958 1.368 . S
C964 C963 1.523 . S
C965 C949 1.429 . S
C965 C961 1.429 . S
C965 C966 1.523 . S
C966 C950 1.368 . S
C966 C962 1.368 . S
C966 C965 1.523 . S
H967 C942 0.950 . S
H968 C944 0.950 . S
H969 C945 0.949 . S
H970 C947 0.950 . S
H971 C949 0.950 . S
C972 C973 1.349 . S
C972 C974 1.327 . S
C972 H997 0.950 . S
C973 C972 1.349 . S
C973 C989 1.349 . S
C974 C972 1.327 . S
C974 C993 1.429 . S
C974 H998 0.950 . S
C975 C992 1.574 . S
C975 C994 1.368 . S
C975 H999 0.949 . S
H976 C980 0.949 . S
C977 C978 1.349 . S
C977 C979 1.327 . S
C977 H1000 0.950 . S
C978 C977 1.349 . S
C978 C990 1.349 . S
C979 C977 1.327 . S
C979 C995 1.429 . S
C979 H1001 0.950 . S
C980 H976 0.949 . S
C980 C988 1.574 . S
C980 C996 1.368 . S
H981 C989 0.950 . S
H982 C987 0.950 . S
H983 C988 0.949 . S
H984 C990 0.950 . S
H985 C991 0.950 . S
H986 C992 0.949 . S
C987 H982 0.950 . S
C987 C989 1.327 . S
C987 C993 1.429 . S
C988 C980 1.574 . S
C988 H983 0.949 . S
C988 C994 1.368 . S
C989 C973 1.349 . S
C989 H981 0.950 . S
C989 C987 1.327 . S
C990 C978 1.349 . S
C990 H984 0.950 . S
C990 C991 1.327 . S
C991 H985 0.950 . S
C991 C990 1.327 . S
C991 C995 1.429 . S
C992 C975 1.574 . S
C992 H986 0.949 . S
C992 C996 1.368 . S
C993 C974 1.429 . S
C993 C987 1.429 . S
C993 C994 1.523 . S
C994 C975 1.368 . S
C994 C988 1.368 . S
C994 C993 1.523 . S
C995 C979 1.429 . S
C995 C991 1.429 . S
C995 C996 1.523 . S
C996 C980 1.368 . S
C996 C992 1.368 . S
C996 C995 1.523 . S
H997 C972 0.950 . S
H998 C974 0.950 . S
H999 C975 0.949 . S
H1000 C977 0.950 . S
H1001 C979 0.950 . S
C1002 C1003 1.349 . S
C1002 C1004 1.327 . S
C1002 H1027 0.950 . S
C1003 C1002 1.349 . S
C1003 C1019 1.349 . S
C1004 C1002 1.327 . S
C1004 C1023 1.429 . S
C1004 H1028 0.950 . S
C1005 C1022 1.574 . S
C1005 C1024 1.368 . S
C1005 H1029 0.949 . S
H1006 C1010 0.949 . S
C1007 C1008 1.349 . S
C1007 C1009 1.327 . S
C1007 H1030 0.950 . S
C1008 C1007 1.349 . S
C1008 C1020 1.349 . S
C1009 C1007 1.327 . S
C1009 C1025 1.429 . S
C1009 H1031 0.950 . S
C1010 H1006 0.949 . S
C1010 C1018 1.574 . S
C1010 C1026 1.368 . S
H1011 C1019 0.950 . S
H1012 C1017 0.950 . S
H1013 C1018 0.949 . S
H1014 C1020 0.950 . S
H1015 C1021 0.950 . S
H1016 C1022 0.949 . S
C1017 H1012 0.950 . S
C1017 C1019 1.327 . S
C1017 C1023 1.429 . S
C1018 C1010 1.574 . S
C1018 H1013 0.949 . S
C1018 C1024 1.368 . S
C1019 C1003 1.349 . S
C1019 H1011 0.950 . S
C1019 C1017 1.327 . S
C1020 C1008 1.349 . S
C1020 H1014 0.950 . S
C1020 C1021 1.327 . S
C1021 H1015 0.950 . S
C1021 C1020 1.327 . S
C1021 C1025 1.429 . S
C1022 C1005 1.574 . S
C1022 H1016 0.949 . S
C1022 C1026 1.368 . S
C1023 C1004 1.429 . S
C1023 C1017 1.429 . S
C1023 C1024 1.523 . S
C1024 C1005 1.368 . S
C1024 C1018 1.368 . S
C1024 C1023 1.523 . S
C1025 C1009 1.429 . S
C1025 C1021 1.429 . S
C1025 C1026 1.523 . S
C1026 C1010 1.368 . S
C1026 C1022 1.368 . S
C1026 C1025 1.523 . S
H1027 C1002 0.950 . S
H1028 C1004 0.950 . S
H1029 C1005 0.949 . S
H1030 C1007 0.950 . S
H1031 C1009 0.950 . S
C1032 C1033 1.349 . S
C1032 C1034 1.327 . S
C1032 H1057 0.950 . S
C1033 C1032 1.349 . S
C1033 C1049 1.349 . S
C1034 C1032 1.327 . S
C1034 C1053 1.429 . S
C1034 H1058 0.950 . S
C1035 C1052 1.574 . S
C1035 C1054 1.368 . S
C1035 H1059 0.949 . S
H1036 C1040 0.949 . S
C1037 C1038 1.349 . S
C1037 C1039 1.327 . S
C1037 H1060 0.950 . S
C1038 C1037 1.349 . S
C1038 C1050 1.349 . S
C1039 C1037 1.327 . S
C1039 C1055 1.429 . S
C1039 H1061 0.950 . S
C1040 H1036 0.949 . S
C1040 C1048 1.574 . S
C1040 C1056 1.368 . S
H1041 C1049 0.950 . S
H1042 C1047 0.950 . S
H1043 C1048 0.949 . S
H1044 C1050 0.950 . S
H1045 C1051 0.950 . S
H1046 C1052 0.949 . S
C1047 H1042 0.950 . S
C1047 C1049 1.327 . S
C1047 C1053 1.429 . S
C1048 C1040 1.574 . S
C1048 H1043 0.949 . S
C1048 C1054 1.368 . S
C1049 C1033 1.349 . S
C1049 H1041 0.950 . S
C1049 C1047 1.327 . S
C1050 C1038 1.349 . S
C1050 H1044 0.950 . S
C1050 C1051 1.327 . S
C1051 H1045 0.950 . S
C1051 C1050 1.327 . S
C1051 C1055 1.429 . S
C1052 C1035 1.574 . S
C1052 H1046 0.949 . S
C1052 C1056 1.368 . S
C1053 C1034 1.429 . S
C1053 C1047 1.429 . S
C1053 C1054 1.523 . S
C1054 C1035 1.368 . S
C1054 C1048 1.368 . S
C1054 C1053 1.523 . S
C1055 C1039 1.429 . S
C1055 C1051 1.429 . S
C1055 C1056 1.523 . S
C1056 C1040 1.368 . S
C1056 C1052 1.368 . S
C1056 C1055 1.523 . S
H1057 C1032 0.950 . S
H1058 C1034 0.950 . S
H1059 C1035 0.949 . S
H1060 C1037 0.950 . S
H1061 C1039 0.950 . S
C1062 C1063 1.349 . S
C1062 C1064 1.327 . S
C1062 H1087 0.950 . S
C1063 C1062 1.349 . S
C1063 C1079 1.349 . S
C1064 C1062 1.327 . S
C1064 C1083 1.429 . S
C1064 H1088 0.950 . S
C1065 C1082 1.574 . S
C1065 C1084 1.368 . S
C1065 H1089 0.949 . S
H1066 C1070 0.949 . S
C1067 C1068 1.349 . S
C1067 C1069 1.327 . S
C1067 H1090 0.950 . S
C1068 C1067 1.349 . S
C1068 C1080 1.349 . S
C1069 C1067 1.327 . S
C1069 C1085 1.429 . S
C1069 H1091 0.950 . S
C1070 H1066 0.949 . S
C1070 C1078 1.574 . S
C1070 C1086 1.368 . S
H1071 C1079 0.950 . S
H1072 C1077 0.950 . S
H1073 C1078 0.949 . S
H1074 C1080 0.950 . S
H1075 C1081 0.950 . S
H1076 C1082 0.949 . S
C1077 H1072 0.950 . S
C1077 C1079 1.327 . S
C1077 C1083 1.429 . S
C1078 C1070 1.574 . S
C1078 H1073 0.949 . S
C1078 C1084 1.368 . S
C1079 C1063 1.349 . S
C1079 H1071 0.950 . S
C1079 C1077 1.327 . S
C1080 C1068 1.349 . S
C1080 H1074 0.950 . S
C1080 C1081 1.327 . S
C1081 H1075 0.950 . S
C1081 C1080 1.327 . S
C1081 C1085 1.429 . S
C1082 C1065 1.574 . S
C1082 H1076 0.949 . S
C1082 C1086 1.368 . S
C1083 C1064 1.429 . S
C1083 C1077 1.429 . S
C1083 C1084 1.523 . S
C1084 C1065 1.368 . S
C1084 C1078 1.368 . S
C1084 C1083 1.523 . S
C1085 C1069 1.429 . S
C1085 C1081 1.429 . S
C1085 C1086 1.523 . S
C1086 C1070 1.368 . S
C1086 C1082 1.368 . S
C1086 C1085 1.523 . S
H1087 C1062 0.950 . S
H1088 C1064 0.950 . S
H1089 C1065 0.949 . S
H1090 C1067 0.950 . S
H1091 C1069 0.950 . S
C1092 C1093 1.349 . S
C1092 C1094 1.327 . S
C1092 H1117 0.950 . S
C1093 C1092 1.349 . S
C1093 C1109 1.349 . S
C1094 C1092 1.327 . S
C1094 C1113 1.429 . S
C1094 H1118 0.950 . S
C1095 C1112 1.574 . S
C1095 C1114 1.368 . S
C1095 H1119 0.949 . S
H1096 C1100 0.949 . S
C1097 C1098 1.349 . S
C1097 C1099 1.327 . S
C1097 H1120 0.950 . S
C1098 C1097 1.349 . S
C1098 C1110 1.349 . S
C1099 C1097 1.327 . S
C1099 C1115 1.429 . S
C1099 H1121 0.950 . S
C1100 H1096 0.949 . S
C1100 C1108 1.574 . S
C1100 C1116 1.368 . S
H1101 C1109 0.950 . S
H1102 C1107 0.950 . S
H1103 C1108 0.949 . S
H1104 C1110 0.950 . S
H1105 C1111 0.950 . S
H1106 C1112 0.949 . S
C1107 H1102 0.950 . S
C1107 C1109 1.327 . S
C1107 C1113 1.429 . S
C1108 C1100 1.574 . S
C1108 H1103 0.949 . S
C1108 C1114 1.368 . S
C1109 C1093 1.349 . S
C1109 H1101 0.950 . S
C1109 C1107 1.327 . S
C1110 C1098 1.349 . S
C1110 H1104 0.950 . S
C1110 C1111 1.327 . S
C1111 H1105 0.950 . S
C1111 C1110 1.327 . S
C1111 C1115 1.429 . S
C1112 C1095 1.574 . S
C1112 H1106 0.949 . S
C1112 C1116 1.368 . S
C1113 C1094 1.429 . S
C1113 C1107 1.429 . S
C1113 C1114 1.523 . S
C1114 C1095 1.368 . S
C1114 C1108 1.368 . S
C1114 C1113 1.523 . S
C1115 C1099 1.429 . S
C1115 C1111 1.429 . S
C1115 C1116 1.523 . S
C1116 C1100 1.368 . S
C1116 C1112 1.368 . S
C1116 C1115 1.523 . S
H1117 C1092 0.950 . S
H1118 C1094 0.950 . S
H1119 C1095 0.949 . S
H1120 C1097 0.950 . S
H1121 C1099 0.950 . S
C1122 C1123 1.349 . S
C1122 C1124 1.327 . S
C1122 H1147 0.950 . S
C1123 C1122 1.349 . S
C1123 C1139 1.349 . S
C1124 C1122 1.327 . S
C1124 C1143 1.429 . S
C1124 H1148 0.950 . S
C1125 C1142 1.574 . S
C1125 C1144 1.368 . S
C1125 H1149 0.949 . S
H1126 C1130 0.949 . S
C1127 C1128 1.349 . S
C1127 C1129 1.327 . S
C1127 H1150 0.950 . S
C1128 C1127 1.349 . S
C1128 C1140 1.349 . S
C1129 C1127 1.327 . S
C1129 C1145 1.429 . S
C1129 H1151 0.950 . S
C1130 H1126 0.949 . S
C1130 C1138 1.574 . S
C1130 C1146 1.368 . S
H1131 C1139 0.950 . S
H1132 C1137 0.950 . S
H1133 C1138 0.949 . S
H1134 C1140 0.950 . S
H1135 C1141 0.950 . S
H1136 C1142 0.949 . S
C1137 H1132 0.950 . S
C1137 C1139 1.327 . S
C1137 C1143 1.429 . S
C1138 C1130 1.574 . S
C1138 H1133 0.949 . S
C1138 C1144 1.368 . S
C1139 C1123 1.349 . S
C1139 H1131 0.950 . S
C1139 C1137 1.327 . S
C1140 C1128 1.349 . S
C1140 H1134 0.950 . S
C1140 C1141 1.327 . S
C1141 H1135 0.950 . S
C1141 C1140 1.327 . S
C1141 C1145 1.429 . S
C1142 C1125 1.574 . S
C1142 H1136 0.949 . S
C1142 C1146 1.368 . S
C1143 C1124 1.429 . S
C1143 C1137 1.429 . S
C1143 C1144 1.523 . S
C1144 C1125 1.368 . S
C1144 C1138 1.368 . S
C1144 C1143 1.523 . S
C1145 C1129 1.429 . S
C1145 C1141 1.429 . S
C1145 C1146 1.523 . S
C1146 C1130 1.368 . S
C1146 C1142 1.368 . S
C1146 C1145 1.523 . S
H1147 C1122 0.950 . S
H1148 C1124 0.950 . S
H1149 C1125 0.949 . S
H1150 C1127 0.950 . S
H1151 C1129 0.950 . S
C1152 C1153 1.349 . S
C1152 C1154 1.327 . S
C1152 H1177 0.950 . S
C1153 C1152 1.349 . S
C1153 C1169 1.349 . S
C1154 C1152 1.327 . S
C1154 C1173 1.429 . S
C1154 H1178 0.950 . S
C1155 C1172 1.574 . S
C1155 C1174 1.368 . S
C1155 H1179 0.949 . S
H1156 C1160 0.949 . S
C1157 C1158 1.349 . S
C1157 C1159 1.327 . S
C1157 H1180 0.950 . S
C1158 C1157 1.349 . S
C1158 C1170 1.349 . S
C1159 C1157 1.327 . S
C1159 C1175 1.429 . S
C1159 H1181 0.950 . S
C1160 H1156 0.949 . S
C1160 C1168 1.574 . S
C1160 C1176 1.368 . S
H1161 C1169 0.950 . S
H1162 C1167 0.950 . S
H1163 C1168 0.949 . S
H1164 C1170 0.950 . S
H1165 C1171 0.950 . S
H1166 C1172 0.949 . S
C1167 H1162 0.950 . S
C1167 C1169 1.327 . S
C1167 C1173 1.429 . S
C1168 C1160 1.574 . S
C1168 H1163 0.949 . S
C1168 C1174 1.368 . S
C1169 C1153 1.349 . S
C1169 H1161 0.950 . S
C1169 C1167 1.327 . S
C1170 C1158 1.349 . S
C1170 H1164 0.950 . S
C1170 C1171 1.327 . S
C1171 H1165 0.950 . S
C1171 C1170 1.327 . S
C1171 C1175 1.429 . S
C1172 C1155 1.574 . S
C1172 H1166 0.949 . S
C1172 C1176 1.368 . S
C1173 C1154 1.429 . S
C1173 C1167 1.429 . S
C1173 C1174 1.523 . S
C1174 C1155 1.368 . S
C1174 C1168 1.368 . S
C1174 C1173 1.523 . S
C1175 C1159 1.429 . S
C1175 C1171 1.429 . S
C1175 C1176 1.523 . S
C1176 C1160 1.368 . S
C1176 C1172 1.368 . S
C1176 C1175 1.523 . S
H1177 C1152 0.950 . S
H1178 C1154 0.950 . S
H1179 C1155 0.949 . S
H1180 C1157 0.950 . S
H1181 C1159 0.950 . S
C1182 C1183 1.349 . S
C1182 C1184 1.327 . S
C1182 H1207 0.950 . S
C1183 C1182 1.349 . S
C1183 C1199 1.349 . S
C1184 C1182 1.327 . S
C1184 C1203 1.429 . S
C1184 H1208 0.950 . S
C1185 C1202 1.574 . S
C1185 C1204 1.368 . S
C1185 H1209 0.949 . S
H1186 C1190 0.949 . S
C1187 C1188 1.349 . S
C1187 C1189 1.327 . S
C1187 H1210 0.950 . S
C1188 C1187 1.349 . S
C1188 C1200 1.349 . S
C1189 C1187 1.327 . S
C1189 C1205 1.429 . S
C1189 H1211 0.950 . S
C1190 H1186 0.949 . S
C1190 C1198 1.574 . S
C1190 C1206 1.368 . S
H1191 C1199 0.950 . S
H1192 C1197 0.950 . S
H1193 C1198 0.949 . S
H1194 C1200 0.950 . S
H1195 C1201 0.950 . S
H1196 C1202 0.949 . S
C1197 H1192 0.950 . S
C1197 C1199 1.327 . S
C1197 C1203 1.429 . S
C1198 C1190 1.574 . S
C1198 H1193 0.949 . S
C1198 C1204 1.368 . S
C1199 C1183 1.349 . S
C1199 H1191 0.950 . S
C1199 C1197 1.327 . S
C1200 C1188 1.349 . S
C1200 H1194 0.950 . S
C1200 C1201 1.327 . S
C1201 H1195 0.950 . S
C1201 C1200 1.327 . S
C1201 C1205 1.429 . S
C1202 C1185 1.574 . S
C1202 H1196 0.949 . S
C1202 C1206 1.368 . S
C1203 C1184 1.429 . S
C1203 C1197 1.429 . S
C1203 C1204 1.523 . S
C1204 C1185 1.368 . S
C1204 C1198 1.368 . S
C1204 C1203 1.523 . S
C1205 C1189 1.429 . S
C1205 C1201 1.429 . S
C1205 C1206 1.523 . S
C1206 C1190 1.368 . S
C1206 C1202 1.368 . S
C1206 C1205 1.523 . S
H1207 C1182 0.950 . S
H1208 C1184 0.950 . S
H1209 C1185 0.949 . S
H1210 C1187 0.950 . S
H1211 C1189 0.950 . S
C1212 C1213 1.349 . S
C1212 C1214 1.327 . S
C1212 H1237 0.950 . S
C1213 C1212 1.349 . S
C1213 C1229 1.349 . S
C1214 C1212 1.327 . S
C1214 C1233 1.429 . S
C1214 H1238 0.950 . S
C1215 C1232 1.574 . S
C1215 C1234 1.368 . S
C1215 H1239 0.949 . S
H1216 C1220 0.949 . S
C1217 C1218 1.349 . S
C1217 C1219 1.327 . S
C1217 H1240 0.950 . S
C1218 C1217 1.349 . S
C1218 C1230 1.349 . S
C1219 C1217 1.327 . S
C1219 C1235 1.429 . S
C1219 H1241 0.950 . S
C1220 H1216 0.949 . S
C1220 C1228 1.574 . S
C1220 C1236 1.368 . S
H1221 C1229 0.950 . S
H1222 C1227 0.950 . S
H1223 C1228 0.949 . S
H1224 C1230 0.950 . S
H1225 C1231 0.950 . S
H1226 C1232 0.949 . S
C1227 H1222 0.950 . S
C1227 C1229 1.327 . S
C1227 C1233 1.429 . S
C1228 C1220 1.574 . S
C1228 H1223 0.949 . S
C1228 C1234 1.368 . S
C1229 C1213 1.349 . S
C1229 H1221 0.950 . S
C1229 C1227 1.327 . S
C1230 C1218 1.349 . S
C1230 H1224 0.950 . S
C1230 C1231 1.327 . S
C1231 H1225 0.950 . S
C1231 C1230 1.327 . S
C1231 C1235 1.429 . S
C1232 C1215 1.574 . S
C1232 H1226 0.949 . S
C1232 C1236 1.368 . S
C1233 C1214 1.429 . S
C1233 C1227 1.429 . S
C1233 C1234 1.523 . S
C1234 C1215 1.368 . S
C1234 C1228 1.368 . S
C1234 C1233 1.523 . S
C1235 C1219 1.429 . S
C1235 C1231 1.429 . S
C1235 C1236 1.523 . S
C1236 C1220 1.368 . S
C1236 C1232 1.368 . S
C1236 C1235 1.523 . S
H1237 C1212 0.950 . S
H1238 C1214 0.950 . S
H1239 C1215 0.949 . S
H1240 C1217 0.950 . S
H1241 C1219 0.950 . S
C1242 C1243 1.349 . S
C1242 C1244 1.327 . S
C1242 H1267 0.950 . S
C1243 C1242 1.349 . S
C1243 C1259 1.349 . S
C1244 C1242 1.327 . S
C1244 C1263 1.429 . S
C1244 H1268 0.950 . S
C1245 C1262 1.574 . S
C1245 C1264 1.368 . S
C1245 H1269 0.949 . S
H1246 C1250 0.949 . S
C1247 C1248 1.349 . S
C1247 C1249 1.327 . S
C1247 H1270 0.950 . S
C1248 C1247 1.349 . S
C1248 C1260 1.349 . S
C1249 C1247 1.327 . S
C1249 C1265 1.429 . S
C1249 H1271 0.950 . S
C1250 H1246 0.949 . S
C1250 C1258 1.574 . S
C1250 C1266 1.368 . S
H1251 C1259 0.950 . S
H1252 C1257 0.950 . S
H1253 C1258 0.949 . S
H1254 C1260 0.950 . S
H1255 C1261 0.950 . S
H1256 C1262 0.949 . S
C1257 H1252 0.950 . S
C1257 C1259 1.327 . S
C1257 C1263 1.429 . S
C1258 C1250 1.574 . S
C1258 H1253 0.949 . S
C1258 C1264 1.368 . S
C1259 C1243 1.349 . S
C1259 H1251 0.950 . S
C1259 C1257 1.327 . S
C1260 C1248 1.349 . S
C1260 H1254 0.950 . S
C1260 C1261 1.327 . S
C1261 H1255 0.950 . S
C1261 C1260 1.327 . S
C1261 C1265 1.429 . S
C1262 C1245 1.574 . S
C1262 H1256 0.949 . S
C1262 C1266 1.368 . S
C1263 C1244 1.429 . S
C1263 C1257 1.429 . S
C1263 C1264 1.523 . S
C1264 C1245 1.368 . S
C1264 C1258 1.368 . S
C1264 C1263 1.523 . S
C1265 C1249 1.429 . S
C1265 C1261 1.429 . S
C1265 C1266 1.523 . S
C1266 C1250 1.368 . S
C1266 C1262 1.368 . S
C1266 C1265 1.523 . S
H1267 C1242 0.950 . S
H1268 C1244 0.950 . S
H1269 C1245 0.949 . S
H1270 C1247 0.950 . S
H1271 C1249 0.950 . S
C1272 C1273 1.349 . S
C1272 C1274 1.327 . S
C1272 H1297 0.950 . S
C1273 C1272 1.349 . S
C1273 C1289 1.349 . S
C1274 C1272 1.327 . S
C1274 C1293 1.429 . S
C1274 H1298 0.950 . S
C1275 C1292 1.574 . S
C1275 C1294 1.368 . S
C1275 H1299 0.949 . S
H1276 C1280 0.949 . S
C1277 C1278 1.349 . S
C1277 C1279 1.327 . S
C1277 H1300 0.950 . S
C1278 C1277 1.349 . S
C1278 C1290 1.349 . S
C1279 C1277 1.327 . S
C1279 C1295 1.429 . S
C1279 H1301 0.950 . S
C1280 H1276 0.949 . S
C1280 C1288 1.574 . S
C1280 C1296 1.368 . S
H1281 C1289 0.950 . S
H1282 C1287 0.950 . S
H1283 C1288 0.949 . S
H1284 C1290 0.950 . S
H1285 C1291 0.950 . S
H1286 C1292 0.949 . S
C1287 H1282 0.950 . S
C1287 C1289 1.327 . S
C1287 C1293 1.429 . S
C1288 C1280 1.574 . S
C1288 H1283 0.949 . S
C1288 C1294 1.368 . S
C1289 C1273 1.349 . S
C1289 H1281 0.950 . S
C1289 C1287 1.327 . S
C1290 C1278 1.349 . S
C1290 H1284 0.950 . S
C1290 C1291 1.327 . S
C1291 H1285 0.950 . S
C1291 C1290 1.327 . S
C1291 C1295 1.429 . S
C1292 C1275 1.574 . S
C1292 H1286 0.949 . S
C1292 C1296 1.368 . S
C1293 C1274 1.429 . S
C1293 C1287 1.429 . S
C1293 C1294 1.523 . S
C1294 C1275 1.368 . S
C1294 C1288 1.368 . S
C1294 C1293 1.523 . S
C1295 C1279 1.429 . S
C1295 C1291 1.429 . S
C1295 C1296 1.523 . S
C1296 C1280 1.368 . S
C1296 C1292 1.368 . S
C1296 C1295 1.523 . S
H1297 C1272 0.950 . S
H1298 C1274 0.950 . S
H1299 C1275 0.949 . S
H1300 C1277 0.950 . S
H1301 C1279 0.950 . S
C1302 C1303 1.349 . S
C1302 C1304 1.327 . S
C1302 H1327 0.950 . S
C1303 C1302 1.349 . S
C1303 C1319 1.349 . S
C1304 C1302 1.327 . S
C1304 C1323 1.429 . S
C1304 H1328 0.950 . S
C1305 C1322 1.574 . S
C1305 C1324 1.368 . S
C1305 H1329 0.949 . S
H1306 C1310 0.949 . S
C1307 C1308 1.349 . S
C1307 C1309 1.327 . S
C1307 H1330 0.950 . S
C1308 C1307 1.349 . S
C1308 C1320 1.349 . S
C1309 C1307 1.327 . S
C1309 C1325 1.429 . S
C1309 H1331 0.950 . S
C1310 H1306 0.949 . S
C1310 C1318 1.574 . S
C1310 C1326 1.368 . S
H1311 C1319 0.950 . S
H1312 C1317 0.950 . S
H1313 C1318 0.949 . S
H1314 C1320 0.950 . S
H1315 C1321 0.950 . S
H1316 C1322 0.949 . S
C1317 H1312 0.950 . S
C1317 C1319 1.327 . S
C1317 C1323 1.429 . S
C1318 C1310 1.574 . S
C1318 H1313 0.949 . S
C1318 C1324 1.368 . S
C1319 C1303 1.349 . S
C1319 H1311 0.950 . S
C1319 C1317 1.327 . S
C1320 C1308 1.349 . S
C1320 H1314 0.950 . S
C1320 C1321 1.327 . S
C1321 H1315 0.950 . S
C1321 C1320 1.327 . S
C1321 C1325 1.429 . S
C1322 C1305 1.574 . S
C1322 H1316 0.949 . S
C1322 C1326 1.368 . S
C1323 C1304 1.429 . S
C1323 C1317 1.429 . S
C1323 C1324 1.523 . S
C1324 C1305 1.368 . S
C1324 C1318 1.368 . S
C1324 C1323 1.523 . S
C1325 C1309 1.429 . S
C1325 C1321 1.429 . S
C1325 C1326 1.523 . S
C1326 C1310 1.368 . S
C1326 C1322 1.368 . S
C1326 C1325 1.523 . S
H1327 C1302 0.950 . S
H1328 C1304 0.950 . S
H1329 C1305 0.949 . S
H1330 C1307 0.950 . S
H1331 C1309 0.950 . S
C1332 C1333 1.349 . S
C1332 C1334 1.327 . S
C1332 H1357 0.950 . S
C1333 C1332 1.349 . S
C1333 C1349 1.349 . S
C1334 C1332 1.327 . S
C1334 C1353 1.429 . S
C1334 H1358 0.950 . S
C1335 C1352 1.574 . S
C1335 C1354 1.368 . S
C1335 H1359 0.949 . S
H1336 C1340 0.949 . S
C1337 C1338 1.349 . S
C1337 C1339 1.327 . S
C1337 H1360 0.950 . S
C1338 C1337 1.349 . S
C1338 C1350 1.349 . S
C1339 C1337 1.327 . S
C1339 C1355 1.429 . S
C1339 H1361 0.950 . S
C1340 H1336 0.949 . S
C1340 C1348 1.574 . S
C1340 C1356 1.368 . S
H1341 C1349 0.950 . S
H1342 C1347 0.950 . S
H1343 C1348 0.949 . S
H1344 C1350 0.950 . S
H1345 C1351 0.950 . S
H1346 C1352 0.949 . S
C1347 H1342 0.950 . S
C1347 C1349 1.327 . S
C1347 C1353 1.429 . S
C1348 C1340 1.574 . S
C1348 H1343 0.949 . S
C1348 C1354 1.368 . S
C1349 C1333 1.349 . S
C1349 H1341 0.950 . S
C1349 C1347 1.327 . S
C1350 C1338 1.349 . S
C1350 H1344 0.950 . S
C1350 C1351 1.327 . S
C1351 H1345 0.950 . S
C1351 C1350 1.327 . S
C1351 C1355 1.429 . S
C1352 C1335 1.574 . S
C1352 H1346 0.949 . S
C1352 C1356 1.368 . S
C1353 C1334 1.429 . S
C1353 C1347 1.429 . S
C1353 C1354 1.523 . S
C1354 C1335 1.368 . S
C1354 C1348 1.368 . S
C1354 C1353 1.523 . S
C1355 C1339 1.429 . S
C1355 C1351 1.429 . S
C1355 C1356 1.523 . S
C1356 C1340 1.368 . S
C1356 C1352 1.368 . S
C1356 C1355 1.523 . S
H1357 C1332 0.950 . S
H1358 C1334 0.950 . S
H1359 C1335 0.949 . S
H1360 C1337 0.950 . S
H1361 C1339 0.950 . S
C1362 C1363 1.349 . S
C1362 C1364 1.327 . S
C1362 H1387 0.950 . S
C1363 C1362 1.349 . S
C1363 C1379 1.349 . S
C1364 C1362 1.327 . S
C1364 C1383 1.429 . S
C1364 H1388 0.950 . S
C1365 C1382 1.574 . S
C1365 C1384 1.368 . S
C1365 H1389 0.949 . S
H1366 C1370 0.949 . S
C1367 C1368 1.349 . S
C1367 C1369 1.327 . S
C1367 H1390 0.950 . S
C1368 C1367 1.349 . S
C1368 C1380 1.349 . S
C1369 C1367 1.327 . S
C1369 C1385 1.429 . S
C1369 H1391 0.950 . S
C1370 H1366 0.949 . S
C1370 C1378 1.574 . S
C1370 C1386 1.368 . S
H1371 C1379 0.950 . S
H1372 C1377 0.950 . S
H1373 C1378 0.949 . S
H1374 C1380 0.950 . S
H1375 C1381 0.950 . S
H1376 C1382 0.949 . S
C1377 H1372 0.950 . S
C1377 C1379 1.327 . S
C1377 C1383 1.429 . S
C1378 C1370 1.574 . S
C1378 H1373 0.949 . S
C1378 C1384 1.368 . S
C1379 C1363 1.349 . S
C1379 H1371 0.950 . S
C1379 C1377 1.327 . S
C1380 C1368 1.349 . S
C1380 H1374 0.950 . S
C1380 C1381 1.327 . S
C1381 H1375 0.950 . S
C1381 C1380 1.327 . S
C1381 C1385 1.429 . S
C1382 C1365 1.574 . S
C1382 H1376 0.949 . S
C1382 C1386 1.368 . S
C1383 C1364 1.429 . S
C1383 C1377 1.429 . S
C1383 C1384 1.523 . S
C1384 C1365 1.368 . S
C1384 C1378 1.368 . S
C1384 C1383 1.523 . S
C1385 C1369 1.429 . S
C1385 C1381 1.429 . S
C1385 C1386 1.523 . S
C1386 C1370 1.368 . S
C1386 C1382 1.368 . S
C1386 C1385 1.523 . S
H1387 C1362 0.950 . S
H1388 C1364 0.950 . S
H1389 C1365 0.949 . S
H1390 C1367 0.950 . S
H1391 C1369 0.950 . S
C1392 C1393 1.349 . S
C1392 C1394 1.327 . S
C1392 H1417 0.950 . S
C1393 C1392 1.349 . S
C1393 C1409 1.349 . S
C1394 C1392 1.327 . S
C1394 C1413 1.429 . S
C1394 H1418 0.950 . S
C1395 C1412 1.574 . S
C1395 C1414 1.368 . S
C1395 H1419 0.949 . S
H1396 C1400 0.949 . S
C1397 C1398 1.349 . S
C1397 C1399 1.327 . S
C1397 H1420 0.950 . S
C1398 C1397 1.349 . S
C1398 C1410 1.349 . S
C1399 C1397 1.327 . S
C1399 C1415 1.429 . S
C1399 H1421 0.950 . S
C1400 H1396 0.949 . S
C1400 C1408 1.574 . S
C1400 C1416 1.368 . S
H1401 C1409 0.950 . S
H1402 C1407 0.950 . S
H1403 C1408 0.949 . S
H1404 C1410 0.950 . S
H1405 C1411 0.950 . S
H1406 C1412 0.949 . S
C1407 H1402 0.950 . S
C1407 C1409 1.327 . S
C1407 C1413 1.429 . S
C1408 C1400 1.574 . S
C1408 H1403 0.949 . S
C1408 C1414 1.368 . S
C1409 C1393 1.349 . S
C1409 H1401 0.950 . S
C1409 C1407 1.327 . S
C1410 C1398 1.349 . S
C1410 H1404 0.950 . S
C1410 C1411 1.327 . S
C1411 H1405 0.950 . S
C1411 C1410 1.327 . S
C1411 C1415 1.429 . S
C1412 C1395 1.574 . S
C1412 H1406 0.949 . S
C1412 C1416 1.368 . S
C1413 C1394 1.429 . S
C1413 C1407 1.429 . S
C1413 C1414 1.523 . S
C1414 C1395 1.368 . S
C1414 C1408 1.368 . S
C1414 C1413 1.523 . S
C1415 C1399 1.429 . S
C1415 C1411 1.429 . S
C1415 C1416 1.523 . S
C1416 C1400 1.368 . S
C1416 C1412 1.368 . S
C1416 C1415 1.523 . S
H1417 C1392 0.950 . S
H1418 C1394 0.950 . S
H1419 C1395 0.949 . S
H1420 C1397 0.950 . S
H1421 C1399 0.950 . S
C1422 C1423 1.349 . S
C1422 C1424 1.327 . S
C1422 H1447 0.950 . S
C1423 C1422 1.349 . S
C1423 C1439 1.349 . S
C1424 C1422 1.327 . S
C1424 C1443 1.429 . S
C1424 H1448 0.950 . S
C1425 C1442 1.574 . S
C1425 C1444 1.368 . S
C1425 H1449 0.949 . S
H1426 C1430 0.949 . S
C1427 C1428 1.349 . S
C1427 C1429 1.327 . S
C1427 H1450 0.950 . S
C1428 C1427 1.349 . S
C1428 C1440 1.349 . S
C1429 C1427 1.327 . S
C1429 C1445 1.429 . S
C1429 H1451 0.950 . S
C1430 H1426 0.949 . S
C1430 C1438 1.574 . S
C1430 C1446 1.368 . S
H1431 C1439 0.950 . S
H1432 C1437 0.950 . S
H1433 C1438 0.949 . S
H1434 C1440 0.950 . S
H1435 C1441 0.950 . S
H1436 C1442 0.949 . S
C1437 H1432 0.950 . S
C1437 C1439 1.327 . S
C1437 C1443 1.429 . S
C1438 C1430 1.574 . S
C1438 H1433 0.949 . S
C1438 C1444 1.368 . S
C1439 C1423 1.349 . S
C1439 H1431 0.950 . S
C1439 C1437 1.327 . S
C1440 C1428 1.349 . S
C1440 H1434 0.950 . S
C1440 C1441 1.327 . S
C1441 H1435 0.950 . S
C1441 C1440 1.327 . S
C1441 C1445 1.429 . S
C1442 C1425 1.574 . S
C1442 H1436 0.949 . S
C1442 C1446 1.368 . S
C1443 C1424 1.429 . S
C1443 C1437 1.429 . S
C1443 C1444 1.523 . S
C1444 C1425 1.368 . S
C1444 C1438 1.368 . S
C1444 C1443 1.523 . S
C1445 C1429 1.429 . S
C1445 C1441 1.429 . S
C1445 C1446 1.523 . S
C1446 C1430 1.368 . S
C1446 C1442 1.368 . S
C1446 C1445 1.523 . S
H1447 C1422 0.950 . S
H1448 C1424 0.950 . S
H1449 C1425 0.949 . S
H1450 C1427 0.950 . S
H1451 C1429 0.950 . S
C1452 C1453 1.349 . S
C1452 C1454 1.327 . S
C1452 H1477 0.950 . S
C1453 C1452 1.349 . S
C1453 C1469 1.349 . S
C1454 C1452 1.327 . S
C1454 C1473 1.429 . S
C1454 H1478 0.950 . S
C1455 C1472 1.574 . S
C1455 C1474 1.368 . S
C1455 H1479 0.949 . S
H1456 C1460 0.949 . S
C1457 C1458 1.349 . S
C1457 C1459 1.327 . S
C1457 H1480 0.950 . S
C1458 C1457 1.349 . S
C1458 C1470 1.349 . S
C1459 C1457 1.327 . S
C1459 C1475 1.429 . S
C1459 H1481 0.950 . S
C1460 H1456 0.949 . S
C1460 C1468 1.574 . S
C1460 C1476 1.368 . S
H1461 C1469 0.950 . S
H1462 C1467 0.950 . S
H1463 C1468 0.949 . S
H1464 C1470 0.950 . S
H1465 C1471 0.950 . S
H1466 C1472 0.949 . S
C1467 H1462 0.950 . S
C1467 C1469 1.327 . S
C1467 C1473 1.429 . S
C1468 C1460 1.574 . S
C1468 H1463 0.949 . S
C1468 C1474 1.368 . S
C1469 C1453 1.349 . S
C1469 H1461 0.950 . S
C1469 C1467 1.327 . S
C1470 C1458 1.349 . S
C1470 H1464 0.950 . S
C1470 C1471 1.327 . S
C1471 H1465 0.950 . S
C1471 C1470 1.327 . S
C1471 C1475 1.429 . S
C1472 C1455 1.574 . S
C1472 H1466 0.949 . S
C1472 C1476 1.368 . S
C1473 C1454 1.429 . S
C1473 C1467 1.429 . S
C1473 C1474 1.523 . S
C1474 C1455 1.368 . S
C1474 C1468 1.368 . S
C1474 C1473 1.523 . S
C1475 C1459 1.429 . S
C1475 C1471 1.429 . S
C1475 C1476 1.523 . S
C1476 C1460 1.368 . S
C1476 C1472 1.368 . S
C1476 C1475 1.523 . S
H1477 C1452 0.950 . S
H1478 C1454 0.950 . S
H1479 C1455 0.949 . S
H1480 C1457 0.950 . S
H1481 C1459 0.950 . S
C1482 C1483 1.349 . S
C1482 C1484 1.327 . S
C1482 H1507 0.950 . S
C1483 C1482 1.349 . S
C1483 C1499 1.349 . S
C1484 C1482 1.327 . S
C1484 C1503 1.429 . S
C1484 H1508 0.950 . S
C1485 C1502 1.574 . S
C1485 C1504 1.368 . S
C1485 H1509 0.949 . S
H1486 C1490 0.949 . S
C1487 C1488 1.349 . S
C1487 C1489 1.327 . S
C1487 H1510 0.950 . S
C1488 C1487 1.349 . S
C1488 C1500 1.349 . S
C1489 C1487 1.327 . S
C1489 C1505 1.429 . S
C1489 H1511 0.950 . S
C1490 H1486 0.949 . S
C1490 C1498 1.574 . S
C1490 C1506 1.368 . S
H1491 C1499 0.950 . S
H1492 C1497 0.950 . S
H1493 C1498 0.949 . S
H1494 C1500 0.950 . S
H1495 C1501 0.950 . S
H1496 C1502 0.949 . S
C1497 H1492 0.950 . S
C1497 C1499 1.327 . S
C1497 C1503 1.429 . S
C1498 C1490 1.574 . S
C1498 H1493 0.949 . S
C1498 C1504 1.368 . S
C1499 C1483 1.349 . S
C1499 H1491 0.950 . S
C1499 C1497 1.327 . S
C1500 C1488 1.349 . S
C1500 H1494 0.950 . S
C1500 C1501 1.327 . S
C1501 H1495 0.950 . S
C1501 C1500 1.327 . S
C1501 C1505 1.429 . S
C1502 C1485 1.574 . S
C1502 H1496 0.949 . S
C1502 C1506 1.368 . S
C1503 C1484 1.429 . S
C1503 C1497 1.429 . S
C1503 C1504 1.523 . S
C1504 C1485 1.368 . S
C1504 C1498 1.368 . S
C1504 C1503 1.523 . S
C1505 C1489 1.429 . S
C1505 C1501 1.429 . S
C1505 C1506 1.523 . S
C1506 C1490 1.368 . S
C1506 C1502 1.368 . S
C1506 C1505 1.523 . S
H1507 C1482 0.950 . S
H1508 C1484 0.950 . S
H1509 C1485 0.949 . S
H1510 C1487 0.950 . S
H1511 C1489 0.950 . S
C1512 C1513 1.349 . S
C1512 C1514 1.327 . S
C1512 H1537 0.950 . S
C1513 C1512 1.349 . S
C1513 C1529 1.349 . S
C1514 C1512 1.327 . S
C1514 C1533 1.429 . S
C1514 H1538 0.950 . S
C1515 C1532 1.574 . S
C1515 C1534 1.368 . S
C1515 H1539 0.949 . S
H1516 C1520 0.949 . S
C1517 C1518 1.349 . S
C1517 C1519 1.327 . S
C1517 H1540 0.950 . S
C1518 C1517 1.349 . S
C1518 C1530 1.349 . S
C1519 C1517 1.327 . S
C1519 C1535 1.429 . S
C1519 H1541 0.950 . S
C1520 H1516 0.949 . S
C1520 C1528 1.574 . S
C1520 C1536 1.368 . S
H1521 C1529 0.950 . S
H1522 C1527 0.950 . S
H1523 C1528 0.949 . S
H1524 C1530 0.950 . S
H1525 C1531 0.950 . S
H1526 C1532 0.949 . S
C1527 H1522 0.950 . S
C1527 C1529 1.327 . S
C1527 C1533 1.429 . S
C1528 C1520 1.574 . S
C1528 H1523 0.949 . S
C1528 C1534 1.368 . S
C1529 C1513 1.349 . S
C1529 H1521 0.950 . S
C1529 C1527 1.327 . S
C1530 C1518 1.349 . S
C1530 H1524 0.950 . S
C1530 C1531 1.327 . S
C1531 H1525 0.950 . S
C1531 C1530 1.327 . S
C1531 C1535 1.429 . S
C1532 C1515 1.574 . S
C1532 H1526 0.949 . S
C1532 C1536 1.368 . S
C1533 C1514 1.429 . S
C1533 C1527 1.429 . S
C1533 C1534 1.523 . S
C1534 C1515 1.368 . S
C1534 C1528 1.368 . S
C1534 C1533 1.523 . S
C1535 C1519 1.429 . S
C1535 C1531 1.429 . S
C1535 C1536 1.523 . S
C1536 C1520 1.368 . S
C1536 C1532 1.368 . S
C1536 C1535 1.523 . S
H1537 C1512 0.950 . S
H1538 C1514 0.950 . S
H1539 C1515 0.949 . S
H1540 C1517 0.950 . S
H1541 C1519 0.950 . S
C1542 C1543 1.349 . S
C1542 C1544 1.327 . S
C1542 H1567 0.950 . S
C1543 C1542 1.349 . S
C1543 C1559 1.349 . S
C1544 C1542 1.327 . S
C1544 C1563 1.429 . S
C1544 H1568 0.950 . S
C1545 C1562 1.574 . S
C1545 C1564 1.368 . S
C1545 H1569 0.949 . S
H1546 C1550 0.949 . S
C1547 C1548 1.349 . S
C1547 C1549 1.327 . S
C1547 H1570 0.950 . S
C1548 C1547 1.349 . S
C1548 C1560 1.349 . S
C1549 C1547 1.327 . S
C1549 C1565 1.429 . S
C1549 H1571 0.950 . S
C1550 H1546 0.949 . S
C1550 C1558 1.574 . S
C1550 C1566 1.368 . S
H1551 C1559 0.950 . S
H1552 C1557 0.950 . S
H1553 C1558 0.949 . S
H1554 C1560 0.950 . S
H1555 C1561 0.950 . S
H1556 C1562 0.949 . S
C1557 H1552 0.950 . S
C1557 C1559 1.327 . S
C1557 C1563 1.429 . S
C1558 C1550 1.574 . S
C1558 H1553 0.949 . S
C1558 C1564 1.368 . S
C1559 C1543 1.349 . S
C1559 H1551 0.950 . S
C1559 C1557 1.327 . S
C1560 C1548 1.349 . S
C1560 H1554 0.950 . S
C1560 C1561 1.327 . S
C1561 H1555 0.950 . S
C1561 C1560 1.327 . S
C1561 C1565 1.429 . S
C1562 C1545 1.574 . S
C1562 H1556 0.949 . S
C1562 C1566 1.368 . S
C1563 C1544 1.429 . S
C1563 C1557 1.429 . S
C1563 C1564 1.523 . S
C1564 C1545 1.368 . S
C1564 C1558 1.368 . S
C1564 C1563 1.523 . S
C1565 C1549 1.429 . S
C1565 C1561 1.429 . S
C1565 C1566 1.523 . S
C1566 C1550 1.368 . S
C1566 C1562 1.368 . S
C1566 C1565 1.523 . S
H1567 C1542 0.950 . S
H1568 C1544 0.950 . S
H1569 C1545 0.949 . S
H1570 C1547 0.950 . S
H1571 C1549 0.950 . S
C1572 C1573 1.349 . S
C1572 C1574 1.327 . S
C1572 H1597 0.950 . S
C1573 C1572 1.349 . S
C1573 C1589 1.349 . S
C1574 C1572 1.327 . S
C1574 C1593 1.429 . S
C1574 H1598 0.950 . S
C1575 C1592 1.574 . S
C1575 C1594 1.368 . S
C1575 H1599 0.949 . S
H1576 C1580 0.949 . S
C1577 C1578 1.349 . S
C1577 C1579 1.327 . S
C1577 H1600 0.950 . S
C1578 C1577 1.349 . S
C1578 C1590 1.349 . S
C1579 C1577 1.327 . S
C1579 C1595 1.429 . S
C1579 H1601 0.950 . S
C1580 H1576 0.949 . S
C1580 C1588 1.574 . S
C1580 C1596 1.368 . S
H1581 C1589 0.950 . S
H1582 C1587 0.950 . S
H1583 C1588 0.949 . S
H1584 C1590 0.950 . S
H1585 C1591 0.950 . S
H1586 C1592 0.949 . S
C1587 H1582 0.950 . S
C1587 C1589 1.327 . S
C1587 C1593 1.429 . S
C1588 C1580 1.574 . S
C1588 H1583 0.949 . S
C1588 C1594 1.368 . S
C1589 C1573 1.349 . S
C1589 H1581 0.950 . S
C1589 C1587 1.327 . S
C1590 C1578 1.349 . S
C1590 H1584 0.950 . S
C1590 C1591 1.327 . S
C1591 H1585 0.950 . S
C1591 C1590 1.327 . S
C1591 C1595 1.429 . S
C1592 C1575 1.574 . S
C1592 H1586 0.949 . S
C1592 C1596 1.368 . S
C1593 C1574 1.429 . S
C1593 C1587 1.429 . S
C1593 C1594 1.523 . S
C1594 C1575 1.368 . S
C1594 C1588 1.368 . S
C1594 C1593 1.523 . S
C1595 C1579 1.429 . S
C1595 C1591 1.429 . S
C1595 C1596 1.523 . S
C1596 C1580 1.368 . S
C1596 C1592 1.368 . S
C1596 C1595 1.523 . S
H1597 C1572 0.950 . S
H1598 C1574 0.950 . S
H1599 C1575 0.949 . S
H1600 C1577 0.950 . S
H1601 C1579 0.950 . S
C1602 C1603 1.349 . S
C1602 C1604 1.327 . S
C1602 H1627 0.950 . S
C1603 C1602 1.349 . S
C1603 C1619 1.349 . S
C1604 C1602 1.327 . S
C1604 C1623 1.429 . S
C1604 H1628 0.950 . S
C1605 C1622 1.574 . S
C1605 C1624 1.368 . S
C1605 H1629 0.949 . S
H1606 C1610 0.949 . S
C1607 C1608 1.349 . S
C1607 C1609 1.327 . S
C1607 H1630 0.950 . S
C1608 C1607 1.349 . S
C1608 C1620 1.349 . S
C1609 C1607 1.327 . S
C1609 C1625 1.429 . S
C1609 H1631 0.950 . S
C1610 H1606 0.949 . S
C1610 C1618 1.574 . S
C1610 C1626 1.368 . S
H1611 C1619 0.950 . S
H1612 C1617 0.950 . S
H1613 C1618 0.949 . S
H1614 C1620 0.950 . S
H1615 C1621 0.950 . S
H1616 C1622 0.949 . S
C1617 H1612 0.950 . S
C1617 C1619 1.327 . S
C1617 C1623 1.429 . S
C1618 C1610 1.574 . S
C1618 H1613 0.949 . S
C1618 C1624 1.368 . S
C1619 C1603 1.349 . S
C1619 H1611 0.950 . S
C1619 C1617 1.327 . S
C1620 C1608 1.349 . S
C1620 H1614 0.950 . S
C1620 C1621 1.327 . S
C1621 H1615 0.950 . S
C1621 C1620 1.327 . S
C1621 C1625 1.429 . S
C1622 C1605 1.574 . S
C1622 H1616 0.949 . S
C1622 C1626 1.368 . S
C1623 C1604 1.429 . S
C1623 C1617 1.429 . S
C1623 C1624 1.523 . S
C1624 C1605 1.368 . S
C1624 C1618 1.368 . S
C1624 C1623 1.523 . S
C1625 C1609 1.429 . S
C1625 C1621 1.429 . S
C1625 C1626 1.523 . S
C1626 C1610 1.368 . S
C1626 C1622 1.368 . S
C1626 C1625 1.523 . S
H1627 C1602 0.950 . S
H1628 C1604 0.950 . S
H1629 C1605 0.949 . S
H1630 C1607 0.950 . S
H1631 C1609 0.950 . S
C1632 C1633 1.349 . S
C1632 C1634 1.327 . S
C1632 H1657 0.950 . S
C1633 C1632 1.349 . S
C1633 C1649 1.349 . S
C1634 C1632 1.327 . S
C1634 C1653 1.429 . S
C1634 H1658 0.950 . S
C1635 C1652 1.574 . S
C1635 C1654 1.368 . S
C1635 H1659 0.949 . S
H1636 C1640 0.949 . S
C1637 C1638 1.349 . S
C1637 C1639 1.327 . S
C1637 H1660 0.950 . S
C1638 C1637 1.349 . S
C1638 C1650 1.349 . S
C1639 C1637 1.327 . S
C1639 C1655 1.429 . S
C1639 H1661 0.950 . S
C1640 H1636 0.949 . S
C1640 C1648 1.574 . S
C1640 C1656 1.368 . S
H1641 C1649 0.950 . S
H1642 C1647 0.950 . S
H1643 C1648 0.949 . S
H1644 C1650 0.950 . S
H1645 C1651 0.950 . S
H1646 C1652 0.949 . S
C1647 H1642 0.950 . S
C1647 C1649 1.327 . S
C1647 C1653 1.429 . S
C1648 C1640 1.574 . S
C1648 H1643 0.949 . S
C1648 C1654 1.368 . S
C1649 C1633 1.349 . S
C1649 H1641 0.950 . S
C1649 C1647 1.327 . S
C1650 C1638 1.349 . S
C1650 H1644 0.950 . S
C1650 C1651 1.327 . S
C1651 H1645 0.950 . S
C1651 C1650 1.327 . S
C1651 C1655 1.429 . S
C1652 C1635 1.574 . S
C1652 H1646 0.949 . S
C1652 C1656 1.368 . S
C1653 C1634 1.429 . S
C1653 C1647 1.429 . S
C1653 C1654 1.523 . S
C1654 C1635 1.368 . S
C1654 C1648 1.368 . S
C1654 C1653 1.523 . S
C1655 C1639 1.429 . S
C1655 C1651 1.429 . S
C1655 C1656 1.523 . S
C1656 C1640 1.368 . S
C1656 C1652 1.368 . S
C1656 C1655 1.523 . S
H1657 C1632 0.950 . S
H1658 C1634 0.950 . S
H1659 C1635 0.949 . S
H1660 C1637 0.950 . S
H1661 C1639 0.950 . S
C1662 C1663 1.349 . S
C1662 C1664 1.327 . S
C1662 H1687 0.950 . S
C1663 C1662 1.349 . S
C1663 C1679 1.349 . S
C1664 C1662 1.327 . S
C1664 C1683 1.429 . S
C1664 H1688 0.950 . S
C1665 C1682 1.574 . S
C1665 C1684 1.368 . S
C1665 H1689 0.949 . S
H1666 C1670 0.949 . S
C1667 C1668 1.349 . S
C1667 C1669 1.327 . S
C1667 H1690 0.950 . S
C1668 C1667 1.349 . S
C1668 C1680 1.349 . S
C1669 C1667 1.327 . S
C1669 C1685 1.429 . S
C1669 H1691 0.950 . S
C1670 H1666 0.949 . S
C1670 C1678 1.574 . S
C1670 C1686 1.368 . S
H1671 C1679 0.950 . S
H1672 C1677 0.950 . S
H1673 C1678 0.949 . S
H1674 C1680 0.950 . S
H1675 C1681 0.950 . S
H1676 C1682 0.949 . S
C1677 H1672 0.950 . S
C1677 C1679 1.327 . S
C1677 C1683 1.429 . S
C1678 C1670 1.574 . S
C1678 H1673 0.949 . S
C1678 C1684 1.368 . S
C1679 C1663 1.349 . S
C1679 H1671 0.950 . S
C1679 C1677 1.327 . S
C1680 C1668 1.349 . S
C1680 H1674 0.950 . S
C1680 C1681 1.327 . S
C1681 H1675 0.950 . S
C1681 C1680 1.327 . S
C1681 C1685 1.429 . S
C1682 C1665 1.574 . S
C1682 H1676 0.949 . S
C1682 C1686 1.368 . S
C1683 C1664 1.429 . S
C1683 C1677 1.429 . S
C1683 C1684 1.523 . S
C1684 C1665 1.368 . S
C1684 C1678 1.368 . S
C1684 C1683 1.523 . S
C1685 C1669 1.429 . S
C1685 C1681 1.429 . S
C1685 C1686 1.523 . S
C1686 C1670 1.368 . S
C1686 C1682 1.368 . S
C1686 C1685 1.523 . S
H1687 C1662 0.950 . S
H1688 C1664 0.950 . S
H1689 C1665 0.949 . S
H1690 C1667 0.950 . S
H1691 C1669 0.950 . S
C1692 C1693 1.349 . S
C1692 C1694 1.327 . S
C1692 H1717 0.950 . S
C1693 C1692 1.349 . S
C1693 C1709 1.349 . S
C1694 C1692 1.327 . S
C1694 C1713 1.429 . S
C1694 H1718 0.950 . S
C1695 C1712 1.574 . S
C1695 C1714 1.368 . S
C1695 H1719 0.949 . S
H1696 C1700 0.949 . S
C1697 C1698 1.349 . S
C1697 C1699 1.327 . S
C1697 H1720 0.950 . S
C1698 C1697 1.349 . S
C1698 C1710 1.349 . S
C1699 C1697 1.327 . S
C1699 C1715 1.429 . S
C1699 H1721 0.950 . S
C1700 H1696 0.949 . S
C1700 C1708 1.574 . S
C1700 C1716 1.368 . S
H1701 C1709 0.950 . S
H1702 C1707 0.950 . S
H1703 C1708 0.949 . S
H1704 C1710 0.950 . S
H1705 C1711 0.950 . S
H1706 C1712 0.949 . S
C1707 H1702 0.950 . S
C1707 C1709 1.327 . S
C1707 C1713 1.429 . S
C1708 C1700 1.574 . S
C1708 H1703 0.949 . S
C1708 C1714 1.368 . S
C1709 C1693 1.349 . S
C1709 H1701 0.950 . S
C1709 C1707 1.327 . S
C1710 C1698 1.349 . S
C1710 H1704 0.950 . S
C1710 C1711 1.327 . S
C1711 H1705 0.950 . S
C1711 C1710 1.327 . S
C1711 C1715 1.429 . S
C1712 C1695 1.574 . S
C1712 H1706 0.949 . S
C1712 C1716 1.368 . S
C1713 C1694 1.429 . S
C1713 C1707 1.429 . S
C1713 C1714 1.523 . S
C1714 C1695 1.368 . S
C1714 C1708 1.368 . S
C1714 C1713 1.523 . S
C1715 C1699 1.429 . S
C1715 C1711 1.429 . S
C1715 C1716 1.523 . S
C1716 C1700 1.368 . S
C1716 C1712 1.368 . S
C1716 C1715 1.523 . S
H1717 C1692 0.950 . S
H1718 C1694 0.950 . S
H1719 C1695 0.949 . S
H1720 C1697 0.950 . S
H1721 C1699 0.950 . S
C1722 C1723 1.349 . S
C1722 C1724 1.327 . S
C1722 H1747 0.950 . S
C1723 C1722 1.349 . S
C1723 C1739 1.349 . S
C1724 C1722 1.327 . S
C1724 C1743 1.429 . S
C1724 H1748 0.950 . S
C1725 C1742 1.574 . S
C1725 C1744 1.368 . S
C1725 H1749 0.949 . S
H1726 C1730 0.949 . S
C1727 C1728 1.349 . S
C1727 C1729 1.327 . S
C1727 H1750 0.950 . S
C1728 C1727 1.349 . S
C1728 C1740 1.349 . S
C1729 C1727 1.327 . S
C1729 C1745 1.429 . S
C1729 H1751 0.950 . S
C1730 H1726 0.949 . S
C1730 C1738 1.574 . S
C1730 C1746 1.368 . S
H1731 C1739 0.950 . S
H1732 C1737 0.950 . S
H1733 C1738 0.949 . S
H1734 C1740 0.950 . S
H1735 C1741 0.950 . S
H1736 C1742 0.949 . S
C1737 H1732 0.950 . S
C1737 C1739 1.327 . S
C1737 C1743 1.429 . S
C1738 C1730 1.574 . S
C1738 H1733 0.949 . S
C1738 C1744 1.368 . S
C1739 C1723 1.349 . S
C1739 H1731 0.950 . S
C1739 C1737 1.327 . S
C1740 C1728 1.349 . S
C1740 H1734 0.950 . S
C1740 C1741 1.327 . S
C1741 H1735 0.950 . S
C1741 C1740 1.327 . S
C1741 C1745 1.429 . S
C1742 C1725 1.574 . S
C1742 H1736 0.949 . S
C1742 C1746 1.368 . S
C1743 C1724 1.429 . S
C1743 C1737 1.429 . S
C1743 C1744 1.523 . S
C1744 C1725 1.368 . S
C1744 C1738 1.368 . S
C1744 C1743 1.523 . S
C1745 C1729 1.429 . S
C1745 C1741 1.429 . S
C1745 C1746 1.523 . S
C1746 C1730 1.368 . S
C1746 C1742 1.368 . S
C1746 C1745 1.523 . S
H1747 C1722 0.950 . S
H1748 C1724 0.950 . S
H1749 C1725 0.949 . S
H1750 C1727 0.950 . S
H1751 C1729 0.950 . S
C1752 C1753 1.349 . S
C1752 C1754 1.327 . S
C1752 H1777 0.950 . S
C1753 C1752 1.349 . S
C1753 C1769 1.349 . S
C1754 C1752 1.327 . S
C1754 C1773 1.429 . S
C1754 H1778 0.950 . S
C1755 C1772 1.574 . S
C1755 C1774 1.368 . S
C1755 H1779 0.949 . S
H1756 C1760 0.949 . S
C1757 C1758 1.349 . S
C1757 C1759 1.327 . S
C1757 H1780 0.950 . S
C1758 C1757 1.349 . S
C1758 C1770 1.349 . S
C1759 C1757 1.327 . S
C1759 C1775 1.429 . S
C1759 H1781 0.950 . S
C1760 H1756 0.949 . S
C1760 C1768 1.574 . S
C1760 C1776 1.368 . S
H1761 C1769 0.950 . S
H1762 C1767 0.950 . S
H1763 C1768 0.949 . S
H1764 C1770 0.950 . S
H1765 C1771 0.950 . S
H1766 C1772 0.949 . S
C1767 H1762 0.950 . S
C1767 C1769 1.327 . S
C1767 C1773 1.429 . S
C1768 C1760 1.574 . S
C1768 H1763 0.949 . S
C1768 C1774 1.368 . S
C1769 C1753 1.349 . S
C1769 H1761 0.950 . S
C1769 C1767 1.327 . S
C1770 C1758 1.349 . S
C1770 H1764 0.950 . S
C1770 C1771 1.327 . S
C1771 H1765 0.950 . S
C1771 C1770 1.327 . S
C1771 C1775 1.429 . S
C1772 C1755 1.574 . S
C1772 H1766 0.949 . S
C1772 C1776 1.368 . S
C1773 C1754 1.429 . S
C1773 C1767 1.429 . S
C1773 C1774 1.523 . S
C1774 C1755 1.368 . S
C1774 C1768 1.368 . S
C1774 C1773 1.523 . S
C1775 C1759 1.429 . S
C1775 C1771 1.429 . S
C1775 C1776 1.523 . S
C1776 C1760 1.368 . S
C1776 C1772 1.368 . S
C1776 C1775 1.523 . S
H1777 C1752 0.950 . S
H1778 C1754 0.950 . S
H1779 C1755 0.949 . S
H1780 C1757 0.950 . S
H1781 C1759 0.950 . S
C1782 C1783 1.349 . S
C1782 C1784 1.327 . S
C1782 H1807 0.950 . S
C1783 C1782 1.349 . S
C1783 C1799 1.349 . S
C1784 C1782 1.327 . S
C1784 C1803 1.429 . S
C1784 H1808 0.950 . S
C1785 C1802 1.574 . S
C1785 C1804 1.368 . S
C1785 H1809 0.949 . S
H1786 C1790 0.949 . S
C1787 C1788 1.349 . S
C1787 C1789 1.327 . S
C1787 H1810 0.950 . S
C1788 C1787 1.349 . S
C1788 C1800 1.349 . S
C1789 C1787 1.327 . S
C1789 C1805 1.429 . S
C1789 H1811 0.950 . S
C1790 H1786 0.949 . S
C1790 C1798 1.574 . S
C1790 C1806 1.368 . S
H1791 C1799 0.950 . S
H1792 C1797 0.950 . S
H1793 C1798 0.949 . S
H1794 C1800 0.950 . S
H1795 C1801 0.950 . S
H1796 C1802 0.949 . S
C1797 H1792 0.950 . S
C1797 C1799 1.327 . S
C1797 C1803 1.429 . S
C1798 C1790 1.574 . S
C1798 H1793 0.949 . S
C1798 C1804 1.368 . S
C1799 C1783 1.349 . S
C1799 H1791 0.950 . S
C1799 C1797 1.327 . S
C1800 C1788 1.349 . S
C1800 H1794 0.950 . S
C1800 C1801 1.327 . S
C1801 H1795 0.950 . S
C1801 C1800 1.327 . S
C1801 C1805 1.429 . S
C1802 C1785 1.574 . S
C1802 H1796 0.949 . S
C1802 C1806 1.368 . S
C1803 C1784 1.429 . S
C1803 C1797 1.429 . S
C1803 C1804 1.523 . S
C1804 C1785 1.368 . S
C1804 C1798 1.368 . S
C1804 C1803 1.523 . S
C1805 C1789 1.429 . S
C1805 C1801 1.429 . S
C1805 C1806 1.523 . S
C1806 C1790 1.368 . S
C1806 C1802 1.368 . S
C1806 C1805 1.523 . S
H1807 C1782 0.950 . S
H1808 C1784 0.950 . S
H1809 C1785 0.949 . S
H1810 C1787 0.950 . S
H1811 C1789 0.950 . S
C1812 C1813 1.349 . S
C1812 C1814 1.327 . S
C1812 H1837 0.950 . S
C1813 C1812 1.349 . S
C1813 C1829 1.349 . S
C1814 C1812 1.327 . S
C1814 C1833 1.429 . S
C1814 H1838 0.950 . S
C1815 C1832 1.574 . S
C1815 C1834 1.368 . S
C1815 H1839 0.949 . S
H1816 C1820 0.949 . S
C1817 C1818 1.349 . S
C1817 C1819 1.327 . S
C1817 H1840 0.950 . S
C1818 C1817 1.349 . S
C1818 C1830 1.349 . S
C1819 C1817 1.327 . S
C1819 C1835 1.429 . S
C1819 H1841 0.950 . S
C1820 H1816 0.949 . S
C1820 C1828 1.574 . S
C1820 C1836 1.368 . S
H1821 C1829 0.950 . S
H1822 C1827 0.950 . S
H1823 C1828 0.949 . S
H1824 C1830 0.950 . S
H1825 C1831 0.950 . S
H1826 C1832 0.949 . S
C1827 H1822 0.950 . S
C1827 C1829 1.327 . S
C1827 C1833 1.429 . S
C1828 C1820 1.574 . S
C1828 H1823 0.949 . S
C1828 C1834 1.368 . S
C1829 C1813 1.349 . S
C1829 H1821 0.950 . S
C1829 C1827 1.327 . S
C1830 C1818 1.349 . S
C1830 H1824 0.950 . S
C1830 C1831 1.327 . S
C1831 H1825 0.950 . S
C1831 C1830 1.327 . S
C1831 C1835 1.429 . S
C1832 C1815 1.574 . S
C1832 H1826 0.949 . S
C1832 C1836 1.368 . S
C1833 C1814 1.429 . S
C1833 C1827 1.429 . S
C1833 C1834 1.523 . S
C1834 C1815 1.368 . S
C1834 C1828 1.368 . S
C1834 C1833 1.523 . S
C1835 C1819 1.429 . S
C1835 C1831 1.429 . S
C1835 C1836 1.523 . S
C1836 C1820 1.368 . S
C1836 C1832 1.368 . S
C1836 C1835 1.523 . S
H1837 C1812 0.950 . S
H1838 C1814 0.950 . S
H1839 C1815 0.949 . S
H1840 C1817 0.950 . S
H1841 C1819 0.950 . S
C1842 C1843 1.349 . S
C1842 C1844 1.327 . S
C1842 H1867 0.950 . S
C1843 C1842 1.349 . S
C1843 C1859 1.349 . S
C1844 C1842 1.327 . S
C1844 C1863 1.429 . S
C1844 H1868 0.950 . S
C1845 C1862 1.574 . S
C1845 C1864 1.368 . S
C1845 H1869 0.949 . S
H1846 C1850 0.949 . S
C1847 C1848 1.349 . S
C1847 C1849 1.327 . S
C1847 H1870 0.950 . S
C1848 C1847 1.349 . S
C1848 C1860 1.349 . S
C1849 C1847 1.327 . S
C1849 C1865 1.429 . S
C1849 H1871 0.950 . S
C1850 H1846 0.949 . S
C1850 C1858 1.574 . S
C1850 C1866 1.368 . S
H1851 C1859 0.950 . S
H1852 C1857 0.950 . S
H1853 C1858 0.949 . S
H1854 C1860 0.950 . S
H1855 C1861 0.950 . S
H1856 C1862 0.949 . S
C1857 H1852 0.950 . S
C1857 C1859 1.327 . S
C1857 C1863 1.429 . S
C1858 C1850 1.574 . S
C1858 H1853 0.949 . S
C1858 C1864 1.368 . S
C1859 C1843 1.349 . S
C1859 H1851 0.950 . S
C1859 C1857 1.327 . S
C1860 C1848 1.349 . S
C1860 H1854 0.950 . S
C1860 C1861 1.327 . S
C1861 H1855 0.950 . S
C1861 C1860 1.327 . S
C1861 C1865 1.429 . S
C1862 C1845 1.574 . S
C1862 H1856 0.949 . S
C1862 C1866 1.368 . S
C1863 C1844 1.429 . S
C1863 C1857 1.429 . S
C1863 C1864 1.523 . S
C1864 C1845 1.368 . S
C1864 C1858 1.368 . S
C1864 C1863 1.523 . S
C1865 C1849 1.429 . S
C1865 C1861 1.429 . S
C1865 C1866 1.523 . S
C1866 C1850 1.368 . S
C1866 C1862 1.368 . S
C1866 C1865 1.523 . S
H1867 C1842 0.950 . S
H1868 C1844 0.950 . S
H1869 C1845 0.949 . S
H1870 C1847 0.950 . S
H1871 C1849 0.950 . S
C1872 C1873 1.349 . S
C1872 C1874 1.327 . S
C1872 H1897 0.950 . S
C1873 C1872 1.349 . S
C1873 C1889 1.349 . S
C1874 C1872 1.327 . S
C1874 C1893 1.429 . S
C1874 H1898 0.950 . S
C1875 C1892 1.574 . S
C1875 C1894 1.368 . S
C1875 H1899 0.949 . S
H1876 C1880 0.949 . S
C1877 C1878 1.349 . S
C1877 C1879 1.327 . S
C1877 H1900 0.950 . S
C1878 C1877 1.349 . S
C1878 C1890 1.349 . S
C1879 C1877 1.327 . S
C1879 C1895 1.429 . S
C1879 H1901 0.950 . S
C1880 H1876 0.949 . S
C1880 C1888 1.574 . S
C1880 C1896 1.368 . S
H1881 C1889 0.950 . S
H1882 C1887 0.950 . S
H1883 C1888 0.949 . S
H1884 C1890 0.950 . S
H1885 C1891 0.950 . S
H1886 C1892 0.949 . S
C1887 H1882 0.950 . S
C1887 C1889 1.327 . S
C1887 C1893 1.429 . S
C1888 C1880 1.574 . S
C1888 H1883 0.949 . S
C1888 C1894 1.368 . S
C1889 C1873 1.349 . S
C1889 H1881 0.950 . S
C1889 C1887 1.327 . S
C1890 C1878 1.349 . S
C1890 H1884 0.950 . S
C1890 C1891 1.327 . S
C1891 H1885 0.950 . S
C1891 C1890 1.327 . S
C1891 C1895 1.429 . S
C1892 C1875 1.574 . S
C1892 H1886 0.949 . S
C1892 C1896 1.368 . S
C1893 C1874 1.429 . S
C1893 C1887 1.429 . S
C1893 C1894 1.523 . S
C1894 C1875 1.368 . S
C1894 C1888 1.368 . S
C1894 C1893 1.523 . S
C1895 C1879 1.429 . S
C1895 C1891 1.429 . S
C1895 C1896 1.523 . S
C1896 C1880 1.368 . S
C1896 C1892 1.368 . S
C1896 C1895 1.523 . S
H1897 C1872 0.950 . S
H1898 C1874 0.950 . S
H1899 C1875 0.949 . S
H1900 C1877 0.950 . S
H1901 C1879 0.950 . S
C1902 C1903 1.349 . S
C1902 C1904 1.327 . S
C1902 H1927 0.950 . S
C1903 C1902 1.349 . S
C1903 C1919 1.349 . S
C1904 C1902 1.327 . S
C1904 C1923 1.429 . S
C1904 H1928 0.950 . S
C1905 C1922 1.574 . S
C1905 C1924 1.368 . S
C1905 H1929 0.949 . S
H1906 C1910 0.949 . S
C1907 C1908 1.349 . S
C1907 C1909 1.327 . S
C1907 H1930 0.950 . S
C1908 C1907 1.349 . S
C1908 C1920 1.349 . S
C1909 C1907 1.327 . S
C1909 C1925 1.429 . S
C1909 H1931 0.950 . S
C1910 H1906 0.949 . S
C1910 C1918 1.574 . S
C1910 C1926 1.368 . S
H1911 C1919 0.950 . S
H1912 C1917 0.950 . S
H1913 C1918 0.949 . S
H1914 C1920 0.950 . S
H1915 C1921 0.950 . S
H1916 C1922 0.949 . S
C1917 H1912 0.950 . S
C1917 C1919 1.327 . S
C1917 C1923 1.429 . S
C1918 C1910 1.574 . S
C1918 H1913 0.949 . S
C1918 C1924 1.368 . S
C1919 C1903 1.349 . S
C1919 H1911 0.950 . S
C1919 C1917 1.327 . S
C1920 C1908 1.349 . S
C1920 H1914 0.950 . S
C1920 C1921 1.327 . S
C1921 H1915 0.950 . S
C1921 C1920 1.327 . S
C1921 C1925 1.429 . S
C1922 C1905 1.574 . S
C1922 H1916 0.949 . S
C1922 C1926 1.368 . S
C1923 C1904 1.429 . S
C1923 C1917 1.429 . S
C1923 C1924 1.523 . S
C1924 C1905 1.368 . S
C1924 C1918 1.368 . S
C1924 C1923 1.523 . S
C1925 C1909 1.429 . S
C1925 C1921 1.429 . S
C1925 C1926 1.523 . S
C1926 C1910 1.368 . S
C1926 C1922 1.368 . S
C1926 C1925 1.523 . S
H1927 C1902 0.950 . S
H1928 C1904 0.950 . S
H1929 C1905 0.949 . S
H1930 C1907 0.950 . S
H1931 C1909 0.950 . S
C1932 C1933 1.349 . S
C1932 C1934 1.327 . S
C1932 H1957 0.950 . S
C1933 C1932 1.349 . S
C1933 C1949 1.349 . S
C1934 C1932 1.327 . S
C1934 C1953 1.429 . S
C1934 H1958 0.950 . S
C1935 C1952 1.574 . S
C1935 C1954 1.368 . S
C1935 H1959 0.949 . S
H1936 C1940 0.949 . S
C1937 C1938 1.349 . S
C1937 C1939 1.327 . S
C1937 H1960 0.950 . S
C1938 C1937 1.349 . S
C1938 C1950 1.349 . S
C1939 C1937 1.327 . S
C1939 C1955 1.429 . S
C1939 H1961 0.950 . S
C1940 H1936 0.949 . S
C1940 C1948 1.574 . S
C1940 C1956 1.368 . S
H1941 C1949 0.950 . S
H1942 C1947 0.950 . S
H1943 C1948 0.949 . S
H1944 C1950 0.950 . S
H1945 C1951 0.950 . S
H1946 C1952 0.949 . S
C1947 H1942 0.950 . S
C1947 C1949 1.327 . S
C1947 C1953 1.429 . S
C1948 C1940 1.574 . S
C1948 H1943 0.949 . S
C1948 C1954 1.368 . S
C1949 C1933 1.349 . S
C1949 H1941 0.950 . S
C1949 C1947 1.327 . S
C1950 C1938 1.349 . S
C1950 H1944 0.950 . S
C1950 C1951 1.327 . S
C1951 H1945 0.950 . S
C1951 C1950 1.327 . S
C1951 C1955 1.429 . S
C1952 C1935 1.574 . S
C1952 H1946 0.949 . S
C1952 C1956 1.368 . S
C1953 C1934 1.429 . S
C1953 C1947 1.429 . S
C1953 C1954 1.523 . S
C1954 C1935 1.368 . S
C1954 C1948 1.368 . S
C1954 C1953 1.523 . S
C1955 C1939 1.429 . S
C1955 C1951 1.429 . S
C1955 C1956 1.523 . S
C1956 C1940 1.368 . S
C1956 C1952 1.368 . S
C1956 C1955 1.523 . S
H1957 C1932 0.950 . S
H1958 C1934 0.950 . S
H1959 C1935 0.949 . S
H1960 C1937 0.950 . S
H1961 C1939 0.950 . S
C1962 C1963 1.349 . S
C1962 C1964 1.327 . S
C1962 H1987 0.950 . S
C1963 C1962 1.349 . S
C1963 C1979 1.349 . S
C1964 C1962 1.327 . S
C1964 C1983 1.429 . S
C1964 H1988 0.950 . S
C1965 C1982 1.574 . S
C1965 C1984 1.368 . S
C1965 H1989 0.949 . S
H1966 C1970 0.949 . S
C1967 C1968 1.349 . S
C1967 C1969 1.327 . S
C1967 H1990 0.950 . S
C1968 C1967 1.349 . S
C1968 C1980 1.349 . S
C1969 C1967 1.327 . S
C1969 C1985 1.429 . S
C1969 H1991 0.950 . S
C1970 H1966 0.949 . S
C1970 C1978 1.574 . S
C1970 C1986 1.368 . S
H1971 C1979 0.950 . S
H1972 C1977 0.950 . S
H1973 C1978 0.949 . S
H1974 C1980 0.950 . S
H1975 C1981 0.950 . S
H1976 C1982 0.949 . S
C1977 H1972 0.950 . S
C1977 C1979 1.327 . S
C1977 C1983 1.429 . S
C1978 C1970 1.574 . S
C1978 H1973 0.949 . S
C1978 C1984 1.368 . S
C1979 C1963 1.349 . S
C1979 H1971 0.950 . S
C1979 C1977 1.327 . S
C1980 C1968 1.349 . S
C1980 H1974 0.950 . S
C1980 C1981 1.327 . S
C1981 H1975 0.950 . S
C1981 C1980 1.327 . S
C1981 C1985 1.429 . S
C1982 C1965 1.574 . S
C1982 H1976 0.949 . S
C1982 C1986 1.368 . S
C1983 C1964 1.429 . S
C1983 C1977 1.429 . S
C1983 C1984 1.523 . S
C1984 C1965 1.368 . S
C1984 C1978 1.368 . S
C1984 C1983 1.523 . S
C1985 C1969 1.429 . S
C1985 C1981 1.429 . S
C1985 C1986 1.523 . S
C1986 C1970 1.368 . S
C1986 C1982 1.368 . S
C1986 C1985 1.523 . S
H1987 C1962 0.950 . S
H1988 C1964 0.950 . S
H1989 C1965 0.949 . S
H1990 C1967 0.950 . S
H1991 C1969 0.950 . S
C1992 C1993 1.349 . S
C1992 C1994 1.327 . S
C1992 H2017 0.950 . S
C1993 C1992 1.349 . S
C1993 C2009 1.349 . S
C1994 C1992 1.327 . S
C1994 C2013 1.429 . S
C1994 H2018 0.950 . S
C1995 C2012 1.574 . S
C1995 C2014 1.368 . S
C1995 H2019 0.949 . S
H1996 C2000 0.949 . S
C1997 C1998 1.349 . S
C1997 C1999 1.327 . S
C1997 H2020 0.950 . S
C1998 C1997 1.349 . S
C1998 C2010 1.349 . S
C1999 C1997 1.327 . S
C1999 C2015 1.429 . S
C1999 H2021 0.950 . S
C2000 H1996 0.949 . S
C2000 C2008 1.574 . S
C2000 C2016 1.368 . S
H2001 C2009 0.950 . S
H2002 C2007 0.950 . S
H2003 C2008 0.949 . S
H2004 C2010 0.950 . S
H2005 C2011 0.950 . S
H2006 C2012 0.949 . S
C2007 H2002 0.950 . S
C2007 C2009 1.327 . S
C2007 C2013 1.429 . S
C2008 C2000 1.574 . S
C2008 H2003 0.949 . S
C2008 C2014 1.368 . S
C2009 C1993 1.349 . S
C2009 H2001 0.950 . S
C2009 C2007 1.327 . S
C2010 C1998 1.349 . S
C2010 H2004 0.950 . S
C2010 C2011 1.327 . S
C2011 H2005 0.950 . S
C2011 C2010 1.327 . S
C2011 C2015 1.429 . S
C2012 C1995 1.574 . S
C2012 H2006 0.949 . S
C2012 C2016 1.368 . S
C2013 C1994 1.429 . S
C2013 C2007 1.429 . S
C2013 C2014 1.523 . S
C2014 C1995 1.368 . S
C2014 C2008 1.368 . S
C2014 C2013 1.523 . S
C2015 C1999 1.429 . S
C2015 C2011 1.429 . S
C2015 C2016 1.523 . S
C2016 C2000 1.368 . S
C2016 C2012 1.368 . S
C2016 C2015 1.523 . S
H2017 C1992 0.950 . S
H2018 C1994 0.950 . S
H2019 C1995 0.949 . S
H2020 C1997 0.950 . S
H2021 C1999 0.950 . S
C2022 C2023 1.349 . S
C2022 C2024 1.327 . S
C2022 H2047 0.950 . S
C2023 C2022 1.349 . S
C2023 C2039 1.349 . S
C2024 C2022 1.327 . S
C2024 C2043 1.429 . S
C2024 H2048 0.950 . S
C2025 C2042 1.574 . S
C2025 C2044 1.368 . S
C2025 H2049 0.949 . S
H2026 C2030 0.949 . S
C2027 C2028 1.349 . S
C2027 C2029 1.327 . S
C2027 H2050 0.950 . S
C2028 C2027 1.349 . S
C2028 C2040 1.349 . S
C2029 C2027 1.327 . S
C2029 C2045 1.429 . S
C2029 H2051 0.950 . S
C2030 H2026 0.949 . S
C2030 C2038 1.574 . S
C2030 C2046 1.368 . S
H2031 C2039 0.950 . S
H2032 C2037 0.950 . S
H2033 C2038 0.949 . S
H2034 C2040 0.950 . S
H2035 C2041 0.950 . S
H2036 C2042 0.949 . S
C2037 H2032 0.950 . S
C2037 C2039 1.327 . S
C2037 C2043 1.429 . S
C2038 C2030 1.574 . S
C2038 H2033 0.949 . S
C2038 C2044 1.368 . S
C2039 C2023 1.349 . S
C2039 H2031 0.950 . S
C2039 C2037 1.327 . S
C2040 C2028 1.349 . S
C2040 H2034 0.950 . S
C2040 C2041 1.327 . S
C2041 H2035 0.950 . S
C2041 C2040 1.327 . S
C2041 C2045 1.429 . S
C2042 C2025 1.574 . S
C2042 H2036 0.949 . S
C2042 C2046 1.368 . S
C2043 C2024 1.429 . S
C2043 C2037 1.429 . S
C2043 C2044 1.523 . S
C2044 C2025 1.368 . S
C2044 C2038 1.368 . S
C2044 C2043 1.523 . S
C2045 C2029 1.429 . S
C2045 C2041 1.429 . S
C2045 C2046 1.523 . S
C2046 C2030 1.368 . S
C2046 C2042 1.368 . S
C2046 C2045 1.523 . S
H2047 C2022 0.950 . S
H2048 C2024 0.950 . S
H2049 C2025 0.949 . S
H2050 C2027 0.950 . S
H2051 C2029 0.950 . S
C2052 C2053 1.349 . S
C2052 C2054 1.327 . S
C2052 H2077 0.950 . S
C2053 C2052 1.349 . S
C2053 C2069 1.349 . S
C2054 C2052 1.327 . S
C2054 C2073 1.429 . S
C2054 H2078 0.950 . S
C2055 C2072 1.574 . S
C2055 C2074 1.368 . S
C2055 H2079 0.949 . S
H2056 C2060 0.949 . S
C2057 C2058 1.349 . S
C2057 C2059 1.327 . S
C2057 H2080 0.950 . S
C2058 C2057 1.349 . S
C2058 C2070 1.349 . S
C2059 C2057 1.327 . S
C2059 C2075 1.429 . S
C2059 H2081 0.950 . S
C2060 H2056 0.949 . S
C2060 C2068 1.574 . S
C2060 C2076 1.368 . S
H2061 C2069 0.950 . S
H2062 C2067 0.950 . S
H2063 C2068 0.949 . S
H2064 C2070 0.950 . S
H2065 C2071 0.950 . S
H2066 C2072 0.949 . S
C2067 H2062 0.950 . S
C2067 C2069 1.327 . S
C2067 C2073 1.429 . S
C2068 C2060 1.574 . S
C2068 H2063 0.949 . S
C2068 C2074 1.368 . S
C2069 C2053 1.349 . S
C2069 H2061 0.950 . S
C2069 C2067 1.327 . S
C2070 C2058 1.349 . S
C2070 H2064 0.950 . S
C2070 C2071 1.327 . S
C2071 H2065 0.950 . S
C2071 C2070 1.327 . S
C2071 C2075 1.429 . S
C2072 C2055 1.574 . S
C2072 H2066 0.949 . S
C2072 C2076 1.368 . S
C2073 C2054 1.429 . S
C2073 C2067 1.429 . S
C2073 C2074 1.523 . S
C2074 C2055 1.368 . S
C2074 C2068 1.368 . S
C2074 C2073 1.523 . S
C2075 C2059 1.429 . S
C2075 C2071 1.429 . S
C2075 C2076 1.523 . S
C2076 C2060 1.368 . S
C2076 C2072 1.368 . S
C2076 C2075 1.523 . S
H2077 C2052 0.950 . S
H2078 C2054 0.950 . S
H2079 C2055 0.949 . S
H2080 C2057 0.950 . S
H2081 C2059 0.950 . S
C2082 C2083 1.349 . S
C2082 C2084 1.327 . S
C2082 H2107 0.950 . S
C2083 C2082 1.349 . S
C2083 C2099 1.349 . S
C2084 C2082 1.327 . S
C2084 C2103 1.429 . S
C2084 H2108 0.950 . S
C2085 C2102 1.574 . S
C2085 C2104 1.368 . S
C2085 H2109 0.949 . S
H2086 C2090 0.949 . S
C2087 C2088 1.349 . S
C2087 C2089 1.327 . S
C2087 H2110 0.950 . S
C2088 C2087 1.349 . S
C2088 C2100 1.349 . S
C2089 C2087 1.327 . S
C2089 C2105 1.429 . S
C2089 H2111 0.950 . S
C2090 H2086 0.949 . S
C2090 C2098 1.574 . S
C2090 C2106 1.368 . S
H2091 C2099 0.950 . S
H2092 C2097 0.950 . S
H2093 C2098 0.949 . S
H2094 C2100 0.950 . S
H2095 C2101 0.950 . S
H2096 C2102 0.949 . S
C2097 H2092 0.950 . S
C2097 C2099 1.327 . S
C2097 C2103 1.429 . S
C2098 C2090 1.574 . S
C2098 H2093 0.949 . S
C2098 C2104 1.368 . S
C2099 C2083 1.349 . S
C2099 H2091 0.950 . S
C2099 C2097 1.327 . S
C2100 C2088 1.349 . S
C2100 H2094 0.950 . S
C2100 C2101 1.327 . S
C2101 H2095 0.950 . S
C2101 C2100 1.327 . S
C2101 C2105 1.429 . S
C2102 C2085 1.574 . S
C2102 H2096 0.949 . S
C2102 C2106 1.368 . S
C2103 C2084 1.429 . S
C2103 C2097 1.429 . S
C2103 C2104 1.523 . S
C2104 C2085 1.368 . S
C2104 C2098 1.368 . S
C2104 C2103 1.523 . S
C2105 C2089 1.429 . S
C2105 C2101 1.429 . S
C2105 C2106 1.523 . S
C2106 C2090 1.368 . S
C2106 C2102 1.368 . S
C2106 C2105 1.523 . S
H2107 C2082 0.950 . S
H2108 C2084 0.950 . S
H2109 C2085 0.949 . S
H2110 C2087 0.950 . S
H2111 C2089 0.950 . S
C2112 C2113 1.349 . S
C2112 C2114 1.327 . S
C2112 H2137 0.950 . S
C2113 C2112 1.349 . S
C2113 C2129 1.349 . S
C2114 C2112 1.327 . S
C2114 C2133 1.429 . S
C2114 H2138 0.950 . S
C2115 C2132 1.574 . S
C2115 C2134 1.368 . S
C2115 H2139 0.949 . S
H2116 C2120 0.949 . S
C2117 C2118 1.349 . S
C2117 C2119 1.327 . S
C2117 H2140 0.950 . S
C2118 C2117 1.349 . S
C2118 C2130 1.349 . S
C2119 C2117 1.327 . S
C2119 C2135 1.429 . S
C2119 H2141 0.950 . S
C2120 H2116 0.949 . S
C2120 C2128 1.574 . S
C2120 C2136 1.368 . S
H2121 C2129 0.950 . S
H2122 C2127 0.950 . S
H2123 C2128 0.949 . S
H2124 C2130 0.950 . S
H2125 C2131 0.950 . S
H2126 C2132 0.949 . S
C2127 H2122 0.950 . S
C2127 C2129 1.327 . S
C2127 C2133 1.429 . S
C2128 C2120 1.574 . S
C2128 H2123 0.949 . S
C2128 C2134 1.368 . S
C2129 C2113 1.349 . S
C2129 H2121 0.950 . S
C2129 C2127 1.327 . S
C2130 C2118 1.349 . S
C2130 H2124 0.950 . S
C2130 C2131 1.327 . S
C2131 H2125 0.950 . S
C2131 C2130 1.327 . S
C2131 C2135 1.429 . S
C2132 C2115 1.574 . S
C2132 H2126 0.949 . S
C2132 C2136 1.368 . S
C2133 C2114 1.429 . S
C2133 C2127 1.429 . S
C2133 C2134 1.523 . S
C2134 C2115 1.368 . S
C2134 C2128 1.368 . S
C2134 C2133 1.523 . S
C2135 C2119 1.429 . S
C2135 C2131 1.429 . S
C2135 C2136 1.523 . S
C2136 C2120 1.368 . S
C2136 C2132 1.368 . S
C2136 C2135 1.523 . S
H2137 C2112 0.950 . S
H2138 C2114 0.950 . S
H2139 C2115 0.949 . S
H2140 C2117 0.950 . S
H2141 C2119 0.950 . S
C2142 C2143 1.349 . S
C2142 C2144 1.327 . S
C2142 H2167 0.950 . S
C2143 C2142 1.349 . S
C2143 C2159 1.349 . S
C2144 C2142 1.327 . S
C2144 C2163 1.429 . S
C2144 H2168 0.950 . S
C2145 C2162 1.574 . S
C2145 C2164 1.368 . S
C2145 H2169 0.949 . S
H2146 C2150 0.949 . S
C2147 C2148 1.349 . S
C2147 C2149 1.327 . S
C2147 H2170 0.950 . S
C2148 C2147 1.349 . S
C2148 C2160 1.349 . S
C2149 C2147 1.327 . S
C2149 C2165 1.429 . S
C2149 H2171 0.950 . S
C2150 H2146 0.949 . S
C2150 C2158 1.574 . S
C2150 C2166 1.368 . S
H2151 C2159 0.950 . S
H2152 C2157 0.950 . S
H2153 C2158 0.949 . S
H2154 C2160 0.950 . S
H2155 C2161 0.950 . S
H2156 C2162 0.949 . S
C2157 H2152 0.950 . S
C2157 C2159 1.327 . S
C2157 C2163 1.429 . S
C2158 C2150 1.574 . S
C2158 H2153 0.949 . S
C2158 C2164 1.368 . S
C2159 C2143 1.349 . S
C2159 H2151 0.950 . S
C2159 C2157 1.327 . S
C2160 C2148 1.349 . S
C2160 H2154 0.950 . S
C2160 C2161 1.327 . S
C2161 H2155 0.950 . S
C2161 C2160 1.327 . S
C2161 C2165 1.429 . S
C2162 C2145 1.574 . S
C2162 H2156 0.949 . S
C2162 C2166 1.368 . S
C2163 C2144 1.429 . S
C2163 C2157 1.429 . S
C2163 C2164 1.523 . S
C2164 C2145 1.368 . S
C2164 C2158 1.368 . S
C2164 C2163 1.523 . S
C2165 C2149 1.429 . S
C2165 C2161 1.429 . S
C2165 C2166 1.523 . S
C2166 C2150 1.368 . S
C2166 C2162 1.368 . S
C2166 C2165 1.523 . S
H2167 C2142 0.950 . S
H2168 C2144 0.950 . S
H2169 C2145 0.949 . S
H2170 C2147 0.950 . S
H2171 C2149 0.950 . S
C2172 C2173 1.349 . S
C2172 C2174 1.327 . S
C2172 H2197 0.950 . S
C2173 C2172 1.349 . S
C2173 C2189 1.349 . S
C2174 C2172 1.327 . S
C2174 C2193 1.429 . S
C2174 H2198 0.950 . S
C2175 C2192 1.574 . S
C2175 C2194 1.368 . S
C2175 H2199 0.949 . S
H2176 C2180 0.949 . S
C2177 C2178 1.349 . S
C2177 C2179 1.327 . S
C2177 H2200 0.950 . S
C2178 C2177 1.349 . S
C2178 C2190 1.349 . S
C2179 C2177 1.327 . S
C2179 C2195 1.429 . S
C2179 H2201 0.950 . S
C2180 H2176 0.949 . S
C2180 C2188 1.574 . S
C2180 C2196 1.368 . S
H2181 C2189 0.950 . S
H2182 C2187 0.950 . S
H2183 C2188 0.949 . S
H2184 C2190 0.950 . S
H2185 C2191 0.950 . S
H2186 C2192 0.949 . S
C2187 H2182 0.950 . S
C2187 C2189 1.327 . S
C2187 C2193 1.429 . S
C2188 C2180 1.574 . S
C2188 H2183 0.949 . S
C2188 C2194 1.368 . S
C2189 C2173 1.349 . S
C2189 H2181 0.950 . S
C2189 C2187 1.327 . S
C2190 C2178 1.349 . S
C2190 H2184 0.950 . S
C2190 C2191 1.327 . S
C2191 H2185 0.950 . S
C2191 C2190 1.327 . S
C2191 C2195 1.429 . S
C2192 C2175 1.574 . S
C2192 H2186 0.949 . S
C2192 C2196 1.368 . S
C2193 C2174 1.429 . S
C2193 C2187 1.429 . S
C2193 C2194 1.523 . S
C2194 C2175 1.368 . S
C2194 C2188 1.368 . S
C2194 C2193 1.523 . S
C2195 C2179 1.429 . S
C2195 C2191 1.429 . S
C2195 C2196 1.523 . S
C2196 C2180 1.368 . S
C2196 C2192 1.368 . S
C2196 C2195 1.523 . S
H2197 C2172 0.950 . S
H2198 C2174 0.950 . S
H2199 C2175 0.949 . S
H2200 C2177 0.950 . S
H2201 C2179 0.950 . S
C2202 C2203 1.349 . S
C2202 C2204 1.327 . S
C2202 H2227 0.950 . S
C2203 C2202 1.349 . S
C2203 C2219 1.349 . S
C2204 C2202 1.327 . S
C2204 C2223 1.429 . S
C2204 H2228 0.950 . S
C2205 C2222 1.574 . S
C2205 C2224 1.368 . S
C2205 H2229 0.949 . S
H2206 C2210 0.949 . S
C2207 C2208 1.349 . S
C2207 C2209 1.327 . S
C2207 H2230 0.950 . S
C2208 C2207 1.349 . S
C2208 C2220 1.349 . S
C2209 C2207 1.327 . S
C2209 C2225 1.429 . S
C2209 H2231 0.950 . S
C2210 H2206 0.949 . S
C2210 C2218 1.574 . S
C2210 C2226 1.368 . S
H2211 C2219 0.950 . S
H2212 C2217 0.950 . S
H2213 C2218 0.949 . S
H2214 C2220 0.950 . S
H2215 C2221 0.950 . S
H2216 C2222 0.949 . S
C2217 H2212 0.950 . S
C2217 C2219 1.327 . S
C2217 C2223 1.429 . S
C2218 C2210 1.574 . S
C2218 H2213 0.949 . S
C2218 C2224 1.368 . S
C2219 C2203 1.349 . S
C2219 H2211 0.950 . S
C2219 C2217 1.327 . S
C2220 C2208 1.349 . S
C2220 H2214 0.950 . S
C2220 C2221 1.327 . S
C2221 H2215 0.950 . S
C2221 C2220 1.327 . S
C2221 C2225 1.429 . S
C2222 C2205 1.574 . S
C2222 H2216 0.949 . S
C2222 C2226 1.368 . S
C2223 C2204 1.429 . S
C2223 C2217 1.429 . S
C2223 C2224 1.523 . S
C2224 C2205 1.368 . S
C2224 C2218 1.368 . S
C2224 C2223 1.523 . S
C2225 C2209 1.429 . S
C2225 C2221 1.429 . S
C2225 C2226 1.523 . S
C2226 C2210 1.368 . S
C2226 C2222 1.368 . S
C2226 C2225 1.523 . S
H2227 C2202 0.950 . S
H2228 C2204 0.950 . S
H2229 C2205 0.949 . S
H2230 C2207 0.950 . S
H2231 C2209 0.950 . S
C2232 C2233 1.349 . S
C2232 C2234 1.327 . S
C2232 H2257 0.950 . S
C2233 C2232 1.349 . S
C2233 C2249 1.349 . S
C2234 C2232 1.327 . S
C2234 C2253 1.429 . S
C2234 H2258 0.950 . S
C2235 C2252 1.574 . S
C2235 C2254 1.368 . S
C2235 H2259 0.949 . S
H2236 C2240 0.949 . S
C2237 C2238 1.349 . S
C2237 C2239 1.327 . S
C2237 H2260 0.950 . S
C2238 C2237 1.349 . S
C2238 C2250 1.349 . S
C2239 C2237 1.327 . S
C2239 C2255 1.429 . S
C2239 H2261 0.950 . S
C2240 H2236 0.949 . S
C2240 C2248 1.574 . S
C2240 C2256 1.368 . S
H2241 C2249 0.950 . S
H2242 C2247 0.950 . S
H2243 C2248 0.949 . S
H2244 C2250 0.950 . S
H2245 C2251 0.950 . S
H2246 C2252 0.949 . S
C2247 H2242 0.950 . S
C2247 C2249 1.327 . S
C2247 C2253 1.429 . S
C2248 C2240 1.574 . S
C2248 H2243 0.949 . S
C2248 C2254 1.368 . S
C2249 C2233 1.349 . S
C2249 H2241 0.950 . S
C2249 C2247 1.327 . S
C2250 C2238 1.349 . S
C2250 H2244 0.950 . S
C2250 C2251 1.327 . S
C2251 H2245 0.950 . S
C2251 C2250 1.327 . S
C2251 C2255 1.429 . S
C2252 C2235 1.574 . S
C2252 H2246 0.949 . S
C2252 C2256 1.368 . S
C2253 C2234 1.429 . S
C2253 C2247 1.429 . S
C2253 C2254 1.523 . S
C2254 C2235 1.368 . S
C2254 C2248 1.368 . S
C2254 C2253 1.523 . S
C2255 C2239 1.429 . S
C2255 C2251 1.429 . S
C2255 C2256 1.523 . S
C2256 C2240 1.368 . S
C2256 C2252 1.368 . S
C2256 C2255 1.523 . S
H2257 C2232 0.950 . S
H2258 C2234 0.950 . S
H2259 C2235 0.949 . S
H2260 C2237 0.950 . S
H2261 C2239 0.950 . S
C2262 C2263 1.349 . S
C2262 C2264 1.327 . S
C2262 H2287 0.950 . S
C2263 C2262 1.349 . S
C2263 C2279 1.349 . S
C2264 C2262 1.327 . S
C2264 C2283 1.429 . S
C2264 H2288 0.950 . S
C2265 C2282 1.574 . S
C2265 C2284 1.368 . S
C2265 H2289 0.949 . S
H2266 C2270 0.949 . S
C2267 C2268 1.349 . S
C2267 C2269 1.327 . S
C2267 H2290 0.950 . S
C2268 C2267 1.349 . S
C2268 C2280 1.349 . S
C2269 C2267 1.327 . S
C2269 C2285 1.429 . S
C2269 H2291 0.950 . S
C2270 H2266 0.949 . S
C2270 C2278 1.574 . S
C2270 C2286 1.368 . S
H2271 C2279 0.950 . S
H2272 C2277 0.950 . S
H2273 C2278 0.949 . S
H2274 C2280 0.950 . S
H2275 C2281 0.950 . S
H2276 C2282 0.949 . S
C2277 H2272 0.950 . S
C2277 C2279 1.327 . S
C2277 C2283 1.429 . S
C2278 C2270 1.574 . S
C2278 H2273 0.949 . S
C2278 C2284 1.368 . S
C2279 C2263 1.349 . S
C2279 H2271 0.950 . S
C2279 C2277 1.327 . S
C2280 C2268 1.349 . S
C2280 H2274 0.950 . S
C2280 C2281 1.327 . S
C2281 H2275 0.950 . S
C2281 C2280 1.327 . S
C2281 C2285 1.429 . S
C2282 C2265 1.574 . S
C2282 H2276 0.949 . S
C2282 C2286 1.368 . S
C2283 C2264 1.429 . S
C2283 C2277 1.429 . S
C2283 C2284 1.523 . S
C2284 C2265 1.368 . S
C2284 C2278 1.368 . S
C2284 C2283 1.523 . S
C2285 C2269 1.429 . S
C2285 C2281 1.429 . S
C2285 C2286 1.523 . S
C2286 C2270 1.368 . S
C2286 C2282 1.368 . S
C2286 C2285 1.523 . S
H2287 C2262 0.950 . S
H2288 C2264 0.950 . S
H2289 C2265 0.949 . S
H2290 C2267 0.950 . S
H2291 C2269 0.950 . S
C2292 C2293 1.349 . S
C2292 C2294 1.327 . S
C2292 H2317 0.950 . S
C2293 C2292 1.349 . S
C2293 C2309 1.349 . S
C2294 C2292 1.327 . S
C2294 C2313 1.429 . S
C2294 H2318 0.950 . S
C2295 C2312 1.574 . S
C2295 C2314 1.368 . S
C2295 H2319 0.949 . S
H2296 C2300 0.949 . S
C2297 C2298 1.349 . S
C2297 C2299 1.327 . S
C2297 H2320 0.950 . S
C2298 C2297 1.349 . S
C2298 C2310 1.349 . S
C2299 C2297 1.327 . S
C2299 C2315 1.429 . S
C2299 H2321 0.950 . S
C2300 H2296 0.949 . S
C2300 C2308 1.574 . S
C2300 C2316 1.368 . S
H2301 C2309 0.950 . S
H2302 C2307 0.950 . S
H2303 C2308 0.949 . S
H2304 C2310 0.950 . S
H2305 C2311 0.950 . S
H2306 C2312 0.949 . S
C2307 H2302 0.950 . S
C2307 C2309 1.327 . S
C2307 C2313 1.429 . S
C2308 C2300 1.574 . S
C2308 H2303 0.949 . S
C2308 C2314 1.368 . S
C2309 C2293 1.349 . S
C2309 H2301 0.950 . S
C2309 C2307 1.327 . S
C2310 C2298 1.349 . S
C2310 H2304 0.950 . S
C2310 C2311 1.327 . S
C2311 H2305 0.950 . S
C2311 C2310 1.327 . S
C2311 C2315 1.429 . S
C2312 C2295 1.574 . S
C2312 H2306 0.949 . S
C2312 C2316 1.368 . S
C2313 C2294 1.429 . S
C2313 C2307 1.429 . S
C2313 C2314 1.523 . S
C2314 C2295 1.368 . S
C2314 C2308 1.368 . S
C2314 C2313 1.523 . S
C2315 C2299 1.429 . S
C2315 C2311 1.429 . S
C2315 C2316 1.523 . S
C2316 C2300 1.368 . S
C2316 C2312 1.368 . S
C2316 C2315 1.523 . S
H2317 C2292 0.950 . S
H2318 C2294 0.950 . S
H2319 C2295 0.949 . S
H2320 C2297 0.950 . S
H2321 C2299 0.950 . S
C2322 C2323 1.349 . S
C2322 C2324 1.327 . S
C2322 H2347 0.950 . S
C2323 C2322 1.349 . S
C2323 C2339 1.349 . S
C2324 C2322 1.327 . S
C2324 C2343 1.429 . S
C2324 H2348 0.950 . S
C2325 C2342 1.574 . S
C2325 C2344 1.368 . S
C2325 H2349 0.949 . S
H2326 C2330 0.949 . S
C2327 C2328 1.349 . S
C2327 C2329 1.327 . S
C2327 H2350 0.950 . S
C2328 C2327 1.349 . S
C2328 C2340 1.349 . S
C2329 C2327 1.327 . S
C2329 C2345 1.429 . S
C2329 H2351 0.950 . S
C2330 H2326 0.949 . S
C2330 C2338 1.574 . S
C2330 C2346 1.368 . S
H2331 C2339 0.950 . S
H2332 C2337 0.950 . S
H2333 C2338 0.949 . S
H2334 C2340 0.950 . S
H2335 C2341 0.950 . S
H2336 C2342 0.949 . S
C2337 H2332 0.950 . S
C2337 C2339 1.327 . S
C2337 C2343 1.429 . S
C2338 C2330 1.574 . S
C2338 H2333 0.949 . S
C2338 C2344 1.368 . S
C2339 C2323 1.349 . S
C2339 H2331 0.950 . S
C2339 C2337 1.327 . S
C2340 C2328 1.349 . S
C2340 H2334 0.950 . S
C2340 C2341 1.327 . S
C2341 H2335 0.950 . S
C2341 C2340 1.327 . S
C2341 C2345 1.429 . S
C2342 C2325 1.574 . S
C2342 H2336 0.949 . S
C2342 C2346 1.368 . S
C2343 C2324 1.429 . S
C2343 C2337 1.429 . S
C2343 C2344 1.523 . S
C2344 C2325 1.368 . S
C2344 C2338 1.368 . S
C2344 C2343 1.523 . S
C2345 C2329 1.429 . S
C2345 C2341 1.429 . S
C2345 C2346 1.523 . S
C2346 C2330 1.368 . S
C2346 C2342 1.368 . S
C2346 C2345 1.523 . S
H2347 C2322 0.950 . S
H2348 C2324 0.950 . S
H2349 C2325 0.949 . S
H2350 C2327 0.950 . S
H2351 C2329 0.950 . S
C2352 C2353 1.349 . S
C2352 C2354 1.327 . S
C2352 H2377 0.950 . S
C2353 C2352 1.349 . S
C2353 C2369 1.349 . S
C2354 C2352 1.327 . S
C2354 C2373 1.429 . S
C2354 H2378 0.950 . S
C2355 C2372 1.574 . S
C2355 C2374 1.368 . S
C2355 H2379 0.949 . S
H2356 C2360 0.949 . S
C2357 C2358 1.349 . S
C2357 C2359 1.327 . S
C2357 H2380 0.950 . S
C2358 C2357 1.349 . S
C2358 C2370 1.349 . S
C2359 C2357 1.327 . S
C2359 C2375 1.429 . S
C2359 H2381 0.950 . S
C2360 H2356 0.949 . S
C2360 C2368 1.574 . S
C2360 C2376 1.368 . S
H2361 C2369 0.950 . S
H2362 C2367 0.950 . S
H2363 C2368 0.949 . S
H2364 C2370 0.950 . S
H2365 C2371 0.950 . S
H2366 C2372 0.949 . S
C2367 H2362 0.950 . S
C2367 C2369 1.327 . S
C2367 C2373 1.429 . S
C2368 C2360 1.574 . S
C2368 H2363 0.949 . S
C2368 C2374 1.368 . S
C2369 C2353 1.349 . S
C2369 H2361 0.950 . S
C2369 C2367 1.327 . S
C2370 C2358 1.349 . S
C2370 H2364 0.950 . S
C2370 C2371 1.327 . S
C2371 H2365 0.950 . S
C2371 C2370 1.327 . S
C2371 C2375 1.429 . S
C2372 C2355 1.574 . S
C2372 H2366 0.949 . S
C2372 C2376 1.368 . S
C2373 C2354 1.429 . S
C2373 C2367 1.429 . S
C2373 C2374 1.523 . S
C2374 C2355 1.368 . S
C2374 C2368 1.368 . S
C2374 C2373 1.523 . S
C2375 C2359 1.429 . S
C2375 C2371 1.429 . S
C2375 C2376 1.523 . S
C2376 C2360 1.368 . S
C2376 C2372 1.368 . S
C2376 C2375 1.523 . S
H2377 C2352 0.950 . S
H2378 C2354 0.950 . S
H2379 C2355 0.949 . S
H2380 C2357 0.950 . S
H2381 C2359 0.950 . S
C2382 C2383 1.349 . S
C2382 C2384 1.327 . S
C2382 H2407 0.950 . S
C2383 C2382 1.349 . S
C2383 C2399 1.349 . S
C2384 C2382 1.327 . S
C2384 C2403 1.429 . S
C2384 H2408 0.950 . S
C2385 C2402 1.574 . S
C2385 C2404 1.368 . S
C2385 H2409 0.949 . S
H2386 C2390 0.949 . S
C2387 C2388 1.349 . S
C2387 C2389 1.327 . S
C2387 H2410 0.950 . S
C2388 C2387 1.349 . S
C2388 C2400 1.349 . S
C2389 C2387 1.327 . S
C2389 C2405 1.429 . S
C2389 H2411 0.950 . S
C2390 H2386 0.949 . S
C2390 C2398 1.574 . S
C2390 C2406 1.368 . S
H2391 C2399 0.950 . S
H2392 C2397 0.950 . S
H2393 C2398 0.949 . S
H2394 C2400 0.950 . S
H2395 C2401 0.950 . S
H2396 C2402 0.949 . S
C2397 H2392 0.950 . S
C2397 C2399 1.327 . S
C2397 C2403 1.429 . S
C2398 C2390 1.574 . S
C2398 H2393 0.949 . S
C2398 C2404 1.368 . S
C2399 C2383 1.349 . S
C2399 H2391 0.950 . S
C2399 C2397 1.327 . S
C2400 C2388 1.349 . S
C2400 H2394 0.950 . S
C2400 C2401 1.327 . S
C2401 H2395 0.950 . S
C2401 C2400 1.327 . S
C2401 C2405 1.429 . S
C2402 C2385 1.574 . S
C2402 H2396 0.949 . S
C2402 C2406 1.368 . S
C2403 C2384 1.429 . S
C2403 C2397 1.429 . S
C2403 C2404 1.523 . S
C2404 C2385 1.368 . S
C2404 C2398 1.368 . S
C2404 C2403 1.523 . S
C2405 C2389 1.429 . S
C2405 C2401 1.429 . S
C2405 C2406 1.523 . S
C2406 C2390 1.368 . S
C2406 C2402 1.368 . S
C2406 C2405 1.523 . S
H2407 C2382 0.950 . S
H2408 C2384 0.950 . S
H2409 C2385 0.949 . S
H2410 C2387 0.950 . S
H2411 C2389 0.950 . S
C2412 C2413 1.349 . S
C2412 C2414 1.327 . S
C2412 H2437 0.950 . S
C2413 C2412 1.349 . S
C2413 C2429 1.349 . S
C2414 C2412 1.327 . S
C2414 C2433 1.429 . S
C2414 H2438 0.950 . S
C2415 C2432 1.574 . S
C2415 C2434 1.368 . S
C2415 H2439 0.949 . S
H2416 C2420 0.949 . S
C2417 C2418 1.349 . S
C2417 C2419 1.327 . S
C2417 H2440 0.950 . S
C2418 C2417 1.349 . S
C2418 C2430 1.349 . S
C2419 C2417 1.327 . S
C2419 C2435 1.429 . S
C2419 H2441 0.950 . S
C2420 H2416 0.949 . S
C2420 C2428 1.574 . S
C2420 C2436 1.368 . S
H2421 C2429 0.950 . S
H2422 C2427 0.950 . S
H2423 C2428 0.949 . S
H2424 C2430 0.950 . S
H2425 C2431 0.950 . S
H2426 C2432 0.949 . S
C2427 H2422 0.950 . S
C2427 C2429 1.327 . S
C2427 C2433 1.429 . S
C2428 C2420 1.574 . S
C2428 H2423 0.949 . S
C2428 C2434 1.368 . S
C2429 C2413 1.349 . S
C2429 H2421 0.950 . S
C2429 C2427 1.327 . S
C2430 C2418 1.349 . S
C2430 H2424 0.950 . S
C2430 C2431 1.327 . S
C2431 H2425 0.950 . S
C2431 C2430 1.327 . S
C2431 C2435 1.429 . S
C2432 C2415 1.574 . S
C2432 H2426 0.949 . S
C2432 C2436 1.368 . S
C2433 C2414 1.429 . S
C2433 C2427 1.429 . S
C2433 C2434 1.523 . S
C2434 C2415 1.368 . S
C2434 C2428 1.368 . S
C2434 C2433 1.523 . S
C2435 C2419 1.429 . S
C2435 C2431 1.429 . S
C2435 C2436 1.523 . S
C2436 C2420 1.368 . S
C2436 C2432 1.368 . S
C2436 C2435 1.523 . S
H2437 C2412 0.950 . S
H2438 C2414 0.950 . S
H2439 C2415 0.949 . S
H2440 C2417 0.950 . S
H2441 C2419 0.950 . S
C2442 C2443 1.349 . S
C2442 C2444 1.327 . S
C2442 H2467 0.950 . S
C2443 C2442 1.349 . S
C2443 C2459 1.349 . S
C2444 C2442 1.327 . S
C2444 C2463 1.429 . S
C2444 H2468 0.950 . S
C2445 C2462 1.574 . S
C2445 C2464 1.368 . S
C2445 H2469 0.949 . S
H2446 C2450 0.949 . S
C2447 C2448 1.349 . S
C2447 C2449 1.327 . S
C2447 H2470 0.950 . S
C2448 C2447 1.349 . S
C2448 C2460 1.349 . S
C2449 C2447 1.327 . S
C2449 C2465 1.429 . S
C2449 H2471 0.950 . S
C2450 H2446 0.949 . S
C2450 C2458 1.574 . S
C2450 C2466 1.368 . S
H2451 C2459 0.950 . S
H2452 C2457 0.950 . S
H2453 C2458 0.949 . S
H2454 C2460 0.950 . S
H2455 C2461 0.950 . S
H2456 C2462 0.949 . S
C2457 H2452 0.950 . S
C2457 C2459 1.327 . S
C2457 C2463 1.429 . S
C2458 C2450 1.574 . S
C2458 H2453 0.949 . S
C2458 C2464 1.368 . S
C2459 C2443 1.349 . S
C2459 H2451 0.950 . S
C2459 C2457 1.327 . S
C2460 C2448 1.349 . S
C2460 H2454 0.950 . S
C2460 C2461 1.327 . S
C2461 H2455 0.950 . S
C2461 C2460 1.327 . S
C2461 C2465 1.429 . S
C2462 C2445 1.574 . S
C2462 H2456 0.949 . S
C2462 C2466 1.368 . S
C2463 C2444 1.429 . S
C2463 C2457 1.429 . S
C2463 C2464 1.523 . S
C2464 C2445 1.368 . S
C2464 C2458 1.368 . S
C2464 C2463 1.523 . S
C2465 C2449 1.429 . S
C2465 C2461 1.429 . S
C2465 C2466 1.523 . S
C2466 C2450 1.368 . S
C2466 C2462 1.368 . S
C2466 C2465 1.523 . S
H2467 C2442 0.950 . S
H2468 C2444 0.950 . S
H2469 C2445 0.949 . S
H2470 C2447 0.950 . S
H2471 C2449 0.950 . S
C2472 C2473 1.349 . S
C2472 C2474 1.327 . S
C2472 H2497 0.950 . S
C2473 C2472 1.349 . S
C2473 C2489 1.349 . S
C2474 C2472 1.327 . S
C2474 C2493 1.429 . S
C2474 H2498 0.950 . S
C2475 C2492 1.574 . S
C2475 C2494 1.368 . S
C2475 H2499 0.949 . S
H2476 C2480 0.949 . S
C2477 C2478 1.349 . S
C2477 C2479 1.327 . S
C2477 H2500 0.950 . S
C2478 C2477 1.349 . S
C2478 C2490 1.349 . S
C2479 C2477 1.327 . S
C2479 C2495 1.429 . S
C2479 H2501 0.950 . S
C2480 H2476 0.949 . S
C2480 C2488 1.574 . S
C2480 C2496 1.368 . S
H2481 C2489 0.950 . S
H2482 C2487 0.950 . S
H2483 C2488 0.949 . S
H2484 C2490 0.950 . S
H2485 C2491 0.950 . S
H2486 C2492 0.949 . S
C2487 H2482 0.950 . S
C2487 C2489 1.327 . S
C2487 C2493 1.429 . S
C2488 C2480 1.574 . S
C2488 H2483 0.949 . S
C2488 C2494 1.368 . S
C2489 C2473 1.349 . S
C2489 H2481 0.950 . S
C2489 C2487 1.327 . S
C2490 C2478 1.349 . S
C2490 H2484 0.950 . S
C2490 C2491 1.327 . S
C2491 H2485 0.950 . S
C2491 C2490 1.327 . S
C2491 C2495 1.429 . S
C2492 C2475 1.574 . S
C2492 H2486 0.949 . S
C2492 C2496 1.368 . S
C2493 C2474 1.429 . S
C2493 C2487 1.429 . S
C2493 C2494 1.523 . S
C2494 C2475 1.368 . S
C2494 C2488 1.368 . S
C2494 C2493 1.523 . S
C2495 C2479 1.429 . S
C2495 C2491 1.429 . S
C2495 C2496 1.523 . S
C2496 C2480 1.368 . S
C2496 C2492 1.368 . S
C2496 C2495 1.523 . S
H2497 C2472 0.950 . S
H2498 C2474 0.950 . S
H2499 C2475 0.949 . S
H2500 C2477 0.950 . S
H2501 C2479 0.950 . S
C2502 C2503 1.349 . S
C2502 C2504 1.327 . S
C2502 H2527 0.950 . S
C2503 C2502 1.349 . S
C2503 C2519 1.349 . S
C2504 C2502 1.327 . S
C2504 C2523 1.429 . S
C2504 H2528 0.950 . S
C2505 C2522 1.574 . S
C2505 C2524 1.368 . S
C2505 H2529 0.949 . S
H2506 C2510 0.949 . S
C2507 C2508 1.349 . S
C2507 C2509 1.327 . S
C2507 H2530 0.950 . S
C2508 C2507 1.349 . S
C2508 C2520 1.349 . S
C2509 C2507 1.327 . S
C2509 C2525 1.429 . S
C2509 H2531 0.950 . S
C2510 H2506 0.949 . S
C2510 C2518 1.574 . S
C2510 C2526 1.368 . S
H2511 C2519 0.950 . S
H2512 C2517 0.950 . S
H2513 C2518 0.949 . S
H2514 C2520 0.950 . S
H2515 C2521 0.950 . S
H2516 C2522 0.949 . S
C2517 H2512 0.950 . S
C2517 C2519 1.327 . S
C2517 C2523 1.429 . S
C2518 C2510 1.574 . S
C2518 H2513 0.949 . S
C2518 C2524 1.368 . S
C2519 C2503 1.349 . S
C2519 H2511 0.950 . S
C2519 C2517 1.327 . S
C2520 C2508 1.349 . S
C2520 H2514 0.950 . S
C2520 C2521 1.327 . S
C2521 H2515 0.950 . S
C2521 C2520 1.327 . S
C2521 C2525 1.429 . S
C2522 C2505 1.574 . S
C2522 H2516 0.949 . S
C2522 C2526 1.368 . S
C2523 C2504 1.429 . S
C2523 C2517 1.429 . S
C2523 C2524 1.523 . S
C2524 C2505 1.368 . S
C2524 C2518 1.368 . S
C2524 C2523 1.523 . S
C2525 C2509 1.429 . S
C2525 C2521 1.429 . S
C2525 C2526 1.523 . S
C2526 C2510 1.368 . S
C2526 C2522 1.368 . S
C2526 C2525 1.523 . S
H2527 C2502 0.950 . S
H2528 C2504 0.950 . S
H2529 C2505 0.949 . S
H2530 C2507 0.950 . S
H2531 C2509 0.950 . S
C2532 C2533 1.349 . S
C2532 C2534 1.327 . S
C2532 H2557 0.950 . S
C2533 C2532 1.349 . S
C2533 C2549 1.349 . S
C2534 C2532 1.327 . S
C2534 C2553 1.429 . S
C2534 H2558 0.950 . S
C2535 C2552 1.574 . S
C2535 C2554 1.368 . S
C2535 H2559 0.949 . S
H2536 C2540 0.949 . S
C2537 C2538 1.349 . S
C2537 C2539 1.327 . S
C2537 H2560 0.950 . S
C2538 C2537 1.349 . S
C2538 C2550 1.349 . S
C2539 C2537 1.327 . S
C2539 C2555 1.429 . S
C2539 H2561 0.950 . S
C2540 H2536 0.949 . S
C2540 C2548 1.574 . S
C2540 C2556 1.368 . S
H2541 C2549 0.950 . S
H2542 C2547 0.950 . S
H2543 C2548 0.949 . S
H2544 C2550 0.950 . S
H2545 C2551 0.950 . S
H2546 C2552 0.949 . S
C2547 H2542 0.950 . S
C2547 C2549 1.327 . S
C2547 C2553 1.429 . S
C2548 C2540 1.574 . S
C2548 H2543 0.949 . S
C2548 C2554 1.368 . S
C2549 C2533 1.349 . S
C2549 H2541 0.950 . S
C2549 C2547 1.327 . S
C2550 C2538 1.349 . S
C2550 H2544 0.950 . S
C2550 C2551 1.327 . S
C2551 H2545 0.950 . S
C2551 C2550 1.327 . S
C2551 C2555 1.429 . S
C2552 C2535 1.574 . S
C2552 H2546 0.949 . S
C2552 C2556 1.368 . S
C2553 C2534 1.429 . S
C2553 C2547 1.429 . S
C2553 C2554 1.523 . S
C2554 C2535 1.368 . S
C2554 C2548 1.368 . S
C2554 C2553 1.523 . S
C2555 C2539 1.429 . S
C2555 C2551 1.429 . S
C2555 C2556 1.523 . S
C2556 C2540 1.368 . S
C2556 C2552 1.368 . S
C2556 C2555 1.523 . S
H2557 C2532 0.950 . S
H2558 C2534 0.950 . S
H2559 C2535 0.949 . S
H2560 C2537 0.950 . S
H2561 C2539 0.950 . S
C2562 C2563 1.349 . S
C2562 C2564 1.327 . S
C2562 H2587 0.950 . S
C2563 C2562 1.349 . S
C2563 C2579 1.349 . S
C2564 C2562 1.327 . S
C2564 C2583 1.429 . S
C2564 H2588 0.950 . S
C2565 C2582 1.574 . S
C2565 C2584 1.368 . S
C2565 H2589 0.949 . S
H2566 C2570 0.949 . S
C2567 C2568 1.349 . S
C2567 C2569 1.327 . S
C2567 H2590 0.950 . S
C2568 C2567 1.349 . S
C2568 C2580 1.349 . S
C2569 C2567 1.327 . S
C2569 C2585 1.429 . S
C2569 H2591 0.950 . S
C2570 H2566 0.949 . S
C2570 C2578 1.574 . S
C2570 C2586 1.368 . S
H2571 C2579 0.950 . S
H2572 C2577 0.950 . S
H2573 C2578 0.949 . S
H2574 C2580 0.950 . S
H2575 C2581 0.950 . S
H2576 C2582 0.949 . S
C2577 H2572 0.950 . S
C2577 C2579 1.327 . S
C2577 C2583 1.429 . S
C2578 C2570 1.574 . S
C2578 H2573 0.949 . S
C2578 C2584 1.368 . S
C2579 C2563 1.349 . S
C2579 H2571 0.950 . S
C2579 C2577 1.327 . S
C2580 C2568 1.349 . S
C2580 H2574 0.950 . S
C2580 C2581 1.327 . S
C2581 H2575 0.950 . S
C2581 C2580 1.327 . S
C2581 C2585 1.429 . S
C2582 C2565 1.574 . S
C2582 H2576 0.949 . S
C2582 C2586 1.368 . S
C2583 C2564 1.429 . S
C2583 C2577 1.429 . S
C2583 C2584 1.523 . S
C2584 C2565 1.368 . S
C2584 C2578 1.368 . S
C2584 C2583 1.523 . S
C2585 C2569 1.429 . S
C2585 C2581 1.429 . S
C2585 C2586 1.523 . S
C2586 C2570 1.368 . S
C2586 C2582 1.368 . S
C2586 C2585 1.523 . S
H2587 C2562 0.950 . S
H2588 C2564 0.950 . S
H2589 C2565 0.949 . S
H2590 C2567 0.950 . S
H2591 C2569 0.950 . S
C2592 C2593 1.349 . S
C2592 C2594 1.327 . S
C2592 H2617 0.950 . S
C2593 C2592 1.349 . S
C2593 C2609 1.349 . S
C2594 C2592 1.327 . S
C2594 C2613 1.429 . S
C2594 H2618 0.950 . S
C2595 C2612 1.574 . S
C2595 C2614 1.368 . S
C2595 H2619 0.949 . S
H2596 C2600 0.949 . S
C2597 C2598 1.349 . S
C2597 C2599 1.327 . S
C2597 H2620 0.950 . S
C2598 C2597 1.349 . S
C2598 C2610 1.349 . S
C2599 C2597 1.327 . S
C2599 C2615 1.429 . S
C2599 H2621 0.950 . S
C2600 H2596 0.949 . S
C2600 C2608 1.574 . S
C2600 C2616 1.368 . S
H2601 C2609 0.950 . S
H2602 C2607 0.950 . S
H2603 C2608 0.949 . S
H2604 C2610 0.950 . S
H2605 C2611 0.950 . S
H2606 C2612 0.949 . S
C2607 H2602 0.950 . S
C2607 C2609 1.327 . S
C2607 C2613 1.429 . S
C2608 C2600 1.574 . S
C2608 H2603 0.949 . S
C2608 C2614 1.368 . S
C2609 C2593 1.349 . S
C2609 H2601 0.950 . S
C2609 C2607 1.327 . S
C2610 C2598 1.349 . S
C2610 H2604 0.950 . S
C2610 C2611 1.327 . S
C2611 H2605 0.950 . S
C2611 C2610 1.327 . S
C2611 C2615 1.429 . S
C2612 C2595 1.574 . S
C2612 H2606 0.949 . S
C2612 C2616 1.368 . S
C2613 C2594 1.429 . S
C2613 C2607 1.429 . S
C2613 C2614 1.523 . S
C2614 C2595 1.368 . S
C2614 C2608 1.368 . S
C2614 C2613 1.523 . S
C2615 C2599 1.429 . S
C2615 C2611 1.429 . S
C2615 C2616 1.523 . S
C2616 C2600 1.368 . S
C2616 C2612 1.368 . S
C2616 C2615 1.523 . S
H2617 C2592 0.950 . S
H2618 C2594 0.950 . S
H2619 C2595 0.949 . S
H2620 C2597 0.950 . S
H2621 C2599 0.950 . S
C2622 C2623 1.349 . S
C2622 C2624 1.327 . S
C2622 H2647 0.950 . S
C2623 C2622 1.349 . S
C2623 C2639 1.349 . S
C2624 C2622 1.327 . S
C2624 C2643 1.429 . S
C2624 H2648 0.950 . S
C2625 C2642 1.574 . S
C2625 C2644 1.368 . S
C2625 H2649 0.949 . S
H2626 C2630 0.949 . S
C2627 C2628 1.349 . S
C2627 C2629 1.327 . S
C2627 H2650 0.950 . S
C2628 C2627 1.349 . S
C2628 C2640 1.349 . S
C2629 C2627 1.327 . S
C2629 C2645 1.429 . S
C2629 H2651 0.950 . S
C2630 H2626 0.949 . S
C2630 C2638 1.574 . S
C2630 C2646 1.368 . S
H2631 C2639 0.950 . S
H2632 C2637 0.950 . S
H2633 C2638 0.949 . S
H2634 C2640 0.950 . S
H2635 C2641 0.950 . S
H2636 C2642 0.949 . S
C2637 H2632 0.950 . S
C2637 C2639 1.327 . S
C2637 C2643 1.429 . S
C2638 C2630 1.574 . S
C2638 H2633 0.949 . S
C2638 C2644 1.368 . S
C2639 C2623 1.349 . S
C2639 H2631 0.950 . S
C2639 C2637 1.327 . S
C2640 C2628 1.349 . S
C2640 H2634 0.950 . S
C2640 C2641 1.327 . S
C2641 H2635 0.950 . S
C2641 C2640 1.327 . S
C2641 C2645 1.429 . S
C2642 C2625 1.574 . S
C2642 H2636 0.949 . S
C2642 C2646 1.368 . S
C2643 C2624 1.429 . S
C2643 C2637 1.429 . S
C2643 C2644 1.523 . S
C2644 C2625 1.368 . S
C2644 C2638 1.368 . S
C2644 C2643 1.523 . S
C2645 C2629 1.429 . S
C2645 C2641 1.429 . S
C2645 C2646 1.523 . S
C2646 C2630 1.368 . S
C2646 C2642 1.368 . S
C2646 C2645 1.523 . S
H2647 C2622 0.950 . S
H2648 C2624 0.950 . S
H2649 C2625 0.949 . S
H2650 C2627 0.950 . S
H2651 C2629 0.950 . S
C2652 C2653 1.349 . S
C2652 C2654 1.327 . S
C2652 H2677 0.950 . S
C2653 C2652 1.349 . S
C2653 C2669 1.349 . S
C2654 C2652 1.327 . S
C2654 C2673 1.429 . S
C2654 H2678 0.950 . S
C2655 C2672 1.574 . S
C2655 C2674 1.368 . S
C2655 H2679 0.949 . S
H2656 C2660 0.949 . S
C2657 C2658 1.349 . S
C2657 C2659 1.327 . S
C2657 H2680 0.950 . S
C2658 C2657 1.349 . S
C2658 C2670 1.349 . S
C2659 C2657 1.327 . S
C2659 C2675 1.429 . S
C2659 H2681 0.950 . S
C2660 H2656 0.949 . S
C2660 C2668 1.574 . S
C2660 C2676 1.368 . S
H2661 C2669 0.950 . S
H2662 C2667 0.950 . S
H2663 C2668 0.949 . S
H2664 C2670 0.950 . S
H2665 C2671 0.950 . S
H2666 C2672 0.949 . S
C2667 H2662 0.950 . S
C2667 C2669 1.327 . S
C2667 C2673 1.429 . S
C2668 C2660 1.574 . S
C2668 H2663 0.949 . S
C2668 C2674 1.368 . S
C2669 C2653 1.349 . S
C2669 H2661 0.950 . S
C2669 C2667 1.327 . S
C2670 C2658 1.349 . S
C2670 H2664 0.950 . S
C2670 C2671 1.327 . S
C2671 H2665 0.950 . S
C2671 C2670 1.327 . S
C2671 C2675 1.429 . S
C2672 C2655 1.574 . S
C2672 H2666 0.949 . S
C2672 C2676 1.368 . S
C2673 C2654 1.429 . S
C2673 C2667 1.429 . S
C2673 C2674 1.523 . S
C2674 C2655 1.368 . S
C2674 C2668 1.368 . S
C2674 C2673 1.523 . S
C2675 C2659 1.429 . S
C2675 C2671 1.429 . S
C2675 C2676 1.523 . S
C2676 C2660 1.368 . S
C2676 C2672 1.368 . S
C2676 C2675 1.523 . S
H2677 C2652 0.950 . S
H2678 C2654 0.950 . S
H2679 C2655 0.949 . S
H2680 C2657 0.950 . S
H2681 C2659 0.950 . S
C2682 C2683 1.349 . S
C2682 C2684 1.327 . S
C2682 H2707 0.950 . S
C2683 C2682 1.349 . S
C2683 C2699 1.349 . S
C2684 C2682 1.327 . S
C2684 C2703 1.429 . S
C2684 H2708 0.950 . S
C2685 C2702 1.574 . S
C2685 C2704 1.368 . S
C2685 H2709 0.949 . S
H2686 C2690 0.949 . S
C2687 C2688 1.349 . S
C2687 C2689 1.327 . S
C2687 H2710 0.950 . S
C2688 C2687 1.349 . S
C2688 C2700 1.349 . S
C2689 C2687 1.327 . S
C2689 C2705 1.429 . S
C2689 H2711 0.950 . S
C2690 H2686 0.949 . S
C2690 C2698 1.574 . S
C2690 C2706 1.368 . S
H2691 C2699 0.950 . S
H2692 C2697 0.950 . S
H2693 C2698 0.949 . S
H2694 C2700 0.950 . S
H2695 C2701 0.950 . S
H2696 C2702 0.949 . S
C2697 H2692 0.950 . S
C2697 C2699 1.327 . S
C2697 C2703 1.429 . S
C2698 C2690 1.574 . S
C2698 H2693 0.949 . S
C2698 C2704 1.368 . S
C2699 C2683 1.349 . S
C2699 H2691 0.950 . S
C2699 C2697 1.327 . S
C2700 C2688 1.349 . S
C2700 H2694 0.950 . S
C2700 C2701 1.327 . S
C2701 H2695 0.950 . S
C2701 C2700 1.327 . S
C2701 C2705 1.429 . S
C2702 C2685 1.574 . S
C2702 H2696 0.949 . S
C2702 C2706 1.368 . S
C2703 C2684 1.429 . S
C2703 C2697 1.429 . S
C2703 C2704 1.523 . S
C2704 C2685 1.368 . S
C2704 C2698 1.368 . S
C2704 C2703 1.523 . S
C2705 C2689 1.429 . S
C2705 C2701 1.429 . S
C2705 C2706 1.523 . S
C2706 C2690 1.368 . S
C2706 C2702 1.368 . S
C2706 C2705 1.523 . S
H2707 C2682 0.950 . S
H2708 C2684 0.950 . S
H2709 C2685 0.949 . S
H2710 C2687 0.950 . S
H2711 C2689 0.950 . S
C2712 C2713 1.349 . S
C2712 C2714 1.327 . S
C2712 H2737 0.950 . S
C2713 C2712 1.349 . S
C2713 C2729 1.349 . S
C2714 C2712 1.327 . S
C2714 C2733 1.429 . S
C2714 H2738 0.950 . S
C2715 C2732 1.574 . S
C2715 C2734 1.368 . S
C2715 H2739 0.949 . S
H2716 C2720 0.949 . S
C2717 C2718 1.349 . S
C2717 C2719 1.327 . S
C2717 H2740 0.950 . S
C2718 C2717 1.349 . S
C2718 C2730 1.349 . S
C2719 C2717 1.327 . S
C2719 C2735 1.429 . S
C2719 H2741 0.950 . S
C2720 H2716 0.949 . S
C2720 C2728 1.574 . S
C2720 C2736 1.368 . S
H2721 C2729 0.950 . S
H2722 C2727 0.950 . S
H2723 C2728 0.949 . S
H2724 C2730 0.950 . S
H2725 C2731 0.950 . S
H2726 C2732 0.949 . S
C2727 H2722 0.950 . S
C2727 C2729 1.327 . S
C2727 C2733 1.429 . S
C2728 C2720 1.574 . S
C2728 H2723 0.949 . S
C2728 C2734 1.368 . S
C2729 C2713 1.349 . S
C2729 H2721 0.950 . S
C2729 C2727 1.327 . S
C2730 C2718 1.349 . S
C2730 H2724 0.950 . S
C2730 C2731 1.327 . S
C2731 H2725 0.950 . S
C2731 C2730 1.327 . S
C2731 C2735 1.429 . S
C2732 C2715 1.574 . S
C2732 H2726 0.949 . S
C2732 C2736 1.368 . S
C2733 C2714 1.429 . S
C2733 C2727 1.429 . S
C2733 C2734 1.523 . S
C2734 C2715 1.368 . S
C2734 C2728 1.368 . S
C2734 C2733 1.523 . S
C2735 C2719 1.429 . S
C2735 C2731 1.429 . S
C2735 C2736 1.523 . S
C2736 C2720 1.368 . S
C2736 C2732 1.368 . S
C2736 C2735 1.523 . S
H2737 C2712 0.950 . S
H2738 C2714 0.950 . S
H2739 C2715 0.949 . S
H2740 C2717 0.950 . S
H2741 C2719 0.950 . S
C2742 C2743 1.349 . S
C2742 C2744 1.327 . S
C2742 H2767 0.950 . S
C2743 C2742 1.349 . S
C2743 C2759 1.349 . S
C2744 C2742 1.327 . S
C2744 C2763 1.429 . S
C2744 H2768 0.950 . S
C2745 C2762 1.574 . S
C2745 C2764 1.368 . S
C2745 H2769 0.949 . S
H2746 C2750 0.949 . S
C2747 C2748 1.349 . S
C2747 C2749 1.327 . S
C2747 H2770 0.950 . S
C2748 C2747 1.349 . S
C2748 C2760 1.349 . S
C2749 C2747 1.327 . S
C2749 C2765 1.429 . S
C2749 H2771 0.950 . S
C2750 H2746 0.949 . S
C2750 C2758 1.574 . S
C2750 C2766 1.368 . S
H2751 C2759 0.950 . S
H2752 C2757 0.950 . S
H2753 C2758 0.949 . S
H2754 C2760 0.950 . S
H2755 C2761 0.950 . S
H2756 C2762 0.949 . S
C2757 H2752 0.950 . S
C2757 C2759 1.327 . S
C2757 C2763 1.429 . S
C2758 C2750 1.574 . S
C2758 H2753 0.949 . S
C2758 C2764 1.368 . S
C2759 C2743 1.349 . S
C2759 H2751 0.950 . S
C2759 C2757 1.327 . S
C2760 C2748 1.349 . S
C2760 H2754 0.950 . S
C2760 C2761 1.327 . S
C2761 H2755 0.950 . S
C2761 C2760 1.327 . S
C2761 C2765 1.429 . S
C2762 C2745 1.574 . S
C2762 H2756 0.949 . S
C2762 C2766 1.368 . S
C2763 C2744 1.429 . S
C2763 C2757 1.429 . S
C2763 C2764 1.523 . S
C2764 C2745 1.368 . S
C2764 C2758 1.368 . S
C2764 C2763 1.523 . S
C2765 C2749 1.429 . S
C2765 C2761 1.429 . S
C2765 C2766 1.523 . S
C2766 C2750 1.368 . S
C2766 C2762 1.368 . S
C2766 C2765 1.523 . S
H2767 C2742 0.950 . S
H2768 C2744 0.950 . S
H2769 C2745 0.949 . S
H2770 C2747 0.950 . S
H2771 C2749 0.950 . S
C2772 C2773 1.349 . S
C2772 C2774 1.327 . S
C2772 H2797 0.950 . S
C2773 C2772 1.349 . S
C2773 C2789 1.349 . S
C2774 C2772 1.327 . S
C2774 C2793 1.429 . S
C2774 H2798 0.950 . S
C2775 C2792 1.574 . S
C2775 C2794 1.368 . S
C2775 H2799 0.949 . S
H2776 C2780 0.949 . S
C2777 C2778 1.349 . S
C2777 C2779 1.327 . S
C2777 H2800 0.950 . S
C2778 C2777 1.349 . S
C2778 C2790 1.349 . S
C2779 C2777 1.327 . S
C2779 C2795 1.429 . S
C2779 H2801 0.950 . S
C2780 H2776 0.949 . S
C2780 C2788 1.574 . S
C2780 C2796 1.368 . S
H2781 C2789 0.950 . S
H2782 C2787 0.950 . S
H2783 C2788 0.949 . S
H2784 C2790 0.950 . S
H2785 C2791 0.950 . S
H2786 C2792 0.949 . S
C2787 H2782 0.950 . S
C2787 C2789 1.327 . S
C2787 C2793 1.429 . S
C2788 C2780 1.574 . S
C2788 H2783 0.949 . S
C2788 C2794 1.368 . S
C2789 C2773 1.349 . S
C2789 H2781 0.950 . S
C2789 C2787 1.327 . S
C2790 C2778 1.349 . S
C2790 H2784 0.950 . S
C2790 C2791 1.327 . S
C2791 H2785 0.950 . S
C2791 C2790 1.327 . S
C2791 C2795 1.429 . S
C2792 C2775 1.574 . S
C2792 H2786 0.949 . S
C2792 C2796 1.368 . S
C2793 C2774 1.429 . S
C2793 C2787 1.429 . S
C2793 C2794 1.523 . S
C2794 C2775 1.368 . S
C2794 C2788 1.368 . S
C2794 C2793 1.523 . S
C2795 C2779 1.429 . S
C2795 C2791 1.429 . S
C2795 C2796 1.523 . S
C2796 C2780 1.368 . S
C2796 C2792 1.368 . S
C2796 C2795 1.523 . S
H2797 C2772 0.950 . S
H2798 C2774 0.950 . S
H2799 C2775 0.949 . S
H2800 C2777 0.950 . S
H2801 C2779 0.950 . S
C2802 C2803 1.349 . S
C2802 C2804 1.327 . S
C2802 H2827 0.950 . S
C2803 C2802 1.349 . S
C2803 C2819 1.349 . S
C2804 C2802 1.327 . S
C2804 C2823 1.429 . S
C2804 H2828 0.950 . S
C2805 C2822 1.574 . S
C2805 C2824 1.368 . S
C2805 H2829 0.949 . S
H2806 C2810 0.949 . S
C2807 C2808 1.349 . S
C2807 C2809 1.327 . S
C2807 H2830 0.950 . S
C2808 C2807 1.349 . S
C2808 C2820 1.349 . S
C2809 C2807 1.327 . S
C2809 C2825 1.429 . S
C2809 H2831 0.950 . S
C2810 H2806 0.949 . S
C2810 C2818 1.574 . S
C2810 C2826 1.368 . S
H2811 C2819 0.950 . S
H2812 C2817 0.950 . S
H2813 C2818 0.949 . S
H2814 C2820 0.950 . S
H2815 C2821 0.950 . S
H2816 C2822 0.949 . S
C2817 H2812 0.950 . S
C2817 C2819 1.327 . S
C2817 C2823 1.429 . S
C2818 C2810 1.574 . S
C2818 H2813 0.949 . S
C2818 C2824 1.368 . S
C2819 C2803 1.349 . S
C2819 H2811 0.950 . S
C2819 C2817 1.327 . S
C2820 C2808 1.349 . S
C2820 H2814 0.950 . S
C2820 C2821 1.327 . S
C2821 H2815 0.950 . S
C2821 C2820 1.327 . S
C2821 C2825 1.429 . S
C2822 C2805 1.574 . S
C2822 H2816 0.949 . S
C2822 C2826 1.368 . S
C2823 C2804 1.429 . S
C2823 C2817 1.429 . S
C2823 C2824 1.523 . S
C2824 C2805 1.368 . S
C2824 C2818 1.368 . S
C2824 C2823 1.523 . S
C2825 C2809 1.429 . S
C2825 C2821 1.429 . S
C2825 C2826 1.523 . S
C2826 C2810 1.368 . S
C2826 C2822 1.368 . S
C2826 C2825 1.523 . S
H2827 C2802 0.950 . S
H2828 C2804 0.950 . S
H2829 C2805 0.949 . S
H2830 C2807 0.950 . S
H2831 C2809 0.950 . S
C2832 C2833 1.349 . S
C2832 C2834 1.327 . S
C2832 H2857 0.950 . S
C2833 C2832 1.349 . S
C2833 C2849 1.349 . S
C2834 C2832 1.327 . S
C2834 C2853 1.429 . S
C2834 H2858 0.950 . S
C2835 C2852 1.574 1_554 S
C2835 C2854 1.368 . S
C2835 H2859 0.949 . S
H2836 C2840 0.949 . S
C2837 C2838 1.349 . S
C2837 C2839 1.327 . S
C2837 H2860 0.950 . S
C2838 C2837 1.349 . S
C2838 C2850 1.349 . S
C2839 C2837 1.327 . S
C2839 C2855 1.429 . S
C2839 H2861 0.950 . S
C2840 H2836 0.949 . S
C2840 C2848 1.574 1_556 S
C2840 C2856 1.368 . S
H2841 C2849 0.950 . S
H2842 C2847 0.950 . S
H2843 C2848 0.949 . S
H2844 C2850 0.950 . S
H2845 C2851 0.950 . S
H2846 C2852 0.949 . S
C2847 H2842 0.950 . S
C2847 C2849 1.327 . S
C2847 C2853 1.429 . S
C2848 C2840 1.574 1_554 S
C2848 H2843 0.949 . S
C2848 C2854 1.368 . S
C2849 C2833 1.349 . S
C2849 H2841 0.950 . S
C2849 C2847 1.327 . S
C2850 C2838 1.349 . S
C2850 H2844 0.950 . S
C2850 C2851 1.327 . S
C2851 H2845 0.950 . S
C2851 C2850 1.327 . S
C2851 C2855 1.429 . S
C2852 C2835 1.574 1_556 S
C2852 H2846 0.949 . S
C2852 C2856 1.368 . S
C2853 C2834 1.429 . S
C2853 C2847 1.429 . S
C2853 C2854 1.523 . S
C2854 C2835 1.368 . S
C2854 C2848 1.368 . S
C2854 C2853 1.523 . S
C2855 C2839 1.429 . S
C2855 C2851 1.429 . S
C2855 C2856 1.523 . S
C2856 C2840 1.368 . S
C2856 C2852 1.368 . S
C2856 C2855 1.523 . S
H2857 C2832 0.950 . S
H2858 C2834 0.950 . S
H2859 C2835 0.949 . S
H2860 C2837 0.950 . S
H2861 C2839 0.950 . S
C2862 C2863 1.349 . S
C2862 C2864 1.327 . S
C2862 H2887 0.950 . S
C2863 C2862 1.349 . S
C2863 C2879 1.349 . S
C2864 C2862 1.327 . S
C2864 C2883 1.429 . S
C2864 H2888 0.950 . S
C2865 C2882 1.574 1_556 S
C2865 C2884 1.368 . S
C2865 H2889 0.949 . S
H2866 C2870 0.949 . S
C2867 C2868 1.349 . S
C2867 C2869 1.327 . S
C2867 H2890 0.950 . S
C2868 C2867 1.349 . S
C2868 C2880 1.349 . S
C2869 C2867 1.327 . S
C2869 C2885 1.429 . S
C2869 H2891 0.950 . S
C2870 H2866 0.949 . S
C2870 C2878 1.574 1_554 S
C2870 C2886 1.368 . S
H2871 C2879 0.950 . S
H2872 C2877 0.950 . S
H2873 C2878 0.949 . S
H2874 C2880 0.950 . S
H2875 C2881 0.950 . S
H2876 C2882 0.949 . S
C2877 H2872 0.950 . S
C2877 C2879 1.327 . S
C2877 C2883 1.429 . S
C2878 C2870 1.574 1_556 S
C2878 H2873 0.949 . S
C2878 C2884 1.368 . S
C2879 C2863 1.349 . S
C2879 H2871 0.950 . S
C2879 C2877 1.327 . S
C2880 C2868 1.349 . S
C2880 H2874 0.950 . S
C2880 C2881 1.327 . S
C2881 H2875 0.950 . S
C2881 C2880 1.327 . S
C2881 C2885 1.429 . S
C2882 C2865 1.574 1_554 S
C2882 H2876 0.949 . S
C2882 C2886 1.368 . S
C2883 C2864 1.429 . S
C2883 C2877 1.429 . S
C2883 C2884 1.523 . S
C2884 C2865 1.368 . S
C2884 C2878 1.368 . S
C2884 C2883 1.523 . S
C2885 C2869 1.429 . S
C2885 C2881 1.429 . S
C2885 C2886 1.523 . S
C2886 C2870 1.368 . S
C2886 C2882 1.368 . S
C2886 C2885 1.523 . S
H2887 C2862 0.950 . S
H2888 C2864 0.950 . S
H2889 C2865 0.949 . S
H2890 C2867 0.950 . S
H2891 C2869 0.950 . S
C2892 C2893 1.349 . S
C2892 C2894 1.327 . S
C2892 H2917 0.950 . S
C2893 C2892 1.349 . S
C2893 C2909 1.349 . S
C2894 C2892 1.327 . S
C2894 C2913 1.429 . S
C2894 H2918 0.950 . S
C2895 C2912 1.574 1_554 S
C2895 C2914 1.368 . S
C2895 H2919 0.949 . S
H2896 C2900 0.949 . S
C2897 C2898 1.349 . S
C2897 C2899 1.327 . S
C2897 H2920 0.950 . S
C2898 C2897 1.349 . S
C2898 C2910 1.349 . S
C2899 C2897 1.327 . S
C2899 C2915 1.429 . S
C2899 H2921 0.950 . S
C2900 H2896 0.949 . S
C2900 C2908 1.574 1_556 S
C2900 C2916 1.368 . S
H2901 C2909 0.950 . S
H2902 C2907 0.950 . S
H2903 C2908 0.949 . S
H2904 C2910 0.950 . S
H2905 C2911 0.950 . S
H2906 C2912 0.949 . S
C2907 H2902 0.950 . S
C2907 C2909 1.327 . S
C2907 C2913 1.429 . S
C2908 C2900 1.574 1_554 S
C2908 H2903 0.949 . S
C2908 C2914 1.368 . S
C2909 C2893 1.349 . S
C2909 H2901 0.950 . S
C2909 C2907 1.327 . S
C2910 C2898 1.349 . S
C2910 H2904 0.950 . S
C2910 C2911 1.327 . S
C2911 H2905 0.950 . S
C2911 C2910 1.327 . S
C2911 C2915 1.429 . S
C2912 C2895 1.574 1_556 S
C2912 H2906 0.949 . S
C2912 C2916 1.368 . S
C2913 C2894 1.429 . S
C2913 C2907 1.429 . S
C2913 C2914 1.523 . S
C2914 C2895 1.368 . S
C2914 C2908 1.368 . S
C2914 C2913 1.523 . S
C2915 C2899 1.429 . S
C2915 C2911 1.429 . S
C2915 C2916 1.523 . S
C2916 C2900 1.368 . S
C2916 C2912 1.368 . S
C2916 C2915 1.523 . S
H2917 C2892 0.950 . S
H2918 C2894 0.950 . S
H2919 C2895 0.949 . S
H2920 C2897 0.950 . S
H2921 C2899 0.950 . S
C2922 C2923 1.349 . S
C2922 C2924 1.327 . S
C2922 H2947 0.950 . S
C2923 C2922 1.349 . S
C2923 C2939 1.349 . S
C2924 C2922 1.327 . S
C2924 C2943 1.429 . S
C2924 H2948 0.950 . S
C2925 C2942 1.574 1_554 S
C2925 C2944 1.368 . S
C2925 H2949 0.949 . S
H2926 C2930 0.949 . S
C2927 C2928 1.349 . S
C2927 C2929 1.327 . S
C2927 H2950 0.950 . S
C2928 C2927 1.349 . S
C2928 C2940 1.349 . S
C2929 C2927 1.327 . S
C2929 C2945 1.429 . S
C2929 H2951 0.950 . S
C2930 H2926 0.949 . S
C2930 C2938 1.574 1_556 S
C2930 C2946 1.368 . S
H2931 C2939 0.950 . S
H2932 C2937 0.950 . S
H2933 C2938 0.949 . S
H2934 C2940 0.950 . S
H2935 C2941 0.950 . S
H2936 C2942 0.949 . S
C2937 H2932 0.950 . S
C2937 C2939 1.327 . S
C2937 C2943 1.429 . S
C2938 C2930 1.574 1_554 S
C2938 H2933 0.949 . S
C2938 C2944 1.368 . S
C2939 C2923 1.349 . S
C2939 H2931 0.950 . S
C2939 C2937 1.327 . S
C2940 C2928 1.349 . S
C2940 H2934 0.950 . S
C2940 C2941 1.327 . S
C2941 H2935 0.950 . S
C2941 C2940 1.327 . S
C2941 C2945 1.429 . S
C2942 C2925 1.574 1_556 S
C2942 H2936 0.949 . S
C2942 C2946 1.368 . S
C2943 C2924 1.429 . S
C2943 C2937 1.429 . S
C2943 C2944 1.523 . S
C2944 C2925 1.368 . S
C2944 C2938 1.368 . S
C2944 C2943 1.523 . S
C2945 C2929 1.429 . S
C2945 C2941 1.429 . S
C2945 C2946 1.523 . S
C2946 C2930 1.368 . S
C2946 C2942 1.368 . S
C2946 C2945 1.523 . S
H2947 C2922 0.950 . S
H2948 C2924 0.950 . S
H2949 C2925 0.949 . S
H2950 C2927 0.950 . S
H2951 C2929 0.950 . S
C2952 C2953 1.349 . S
C2952 C2954 1.327 . S
C2952 H2977 0.950 . S
C2953 C2952 1.349 . S
C2953 C2969 1.349 . S
C2954 C2952 1.327 . S
C2954 C2973 1.429 . S
C2954 H2978 0.950 . S
C2955 C2972 1.574 1_556 S
C2955 C2974 1.368 . S
C2955 H2979 0.949 . S
H2956 C2960 0.949 . S
C2957 C2958 1.349 . S
C2957 C2959 1.327 . S
C2957 H2980 0.950 . S
C2958 C2957 1.349 . S
C2958 C2970 1.349 . S
C2959 C2957 1.327 . S
C2959 C2975 1.429 . S
C2959 H2981 0.950 . S
C2960 H2956 0.949 . S
C2960 C2968 1.574 1_554 S
C2960 C2976 1.368 . S
H2961 C2969 0.950 . S
H2962 C2967 0.950 . S
H2963 C2968 0.949 . S
H2964 C2970 0.950 . S
H2965 C2971 0.950 . S
H2966 C2972 0.949 . S
C2967 H2962 0.950 . S
C2967 C2969 1.327 . S
C2967 C2973 1.429 . S
C2968 C2960 1.574 1_556 S
C2968 H2963 0.949 . S
C2968 C2974 1.368 . S
C2969 C2953 1.349 . S
C2969 H2961 0.950 . S
C2969 C2967 1.327 . S
C2970 C2958 1.349 . S
C2970 H2964 0.950 . S
C2970 C2971 1.327 . S
C2971 H2965 0.950 . S
C2971 C2970 1.327 . S
C2971 C2975 1.429 . S
C2972 C2955 1.574 1_554 S
C2972 H2966 0.949 . S
C2972 C2976 1.368 . S
C2973 C2954 1.429 . S
C2973 C2967 1.429 . S
C2973 C2974 1.523 . S
C2974 C2955 1.368 . S
C2974 C2968 1.368 . S
C2974 C2973 1.523 . S
C2975 C2959 1.429 . S
C2975 C2971 1.429 . S
C2975 C2976 1.523 . S
C2976 C2960 1.368 . S
C2976 C2972 1.368 . S
C2976 C2975 1.523 . S
H2977 C2952 0.950 . S
H2978 C2954 0.950 . S
H2979 C2955 0.949 . S
H2980 C2957 0.950 . S
H2981 C2959 0.950 . S
C2982 C2983 1.349 . S
C2982 C2984 1.327 . S
C2982 H3007 0.950 . S
C2983 C2982 1.349 . S
C2983 C2999 1.349 . S
C2984 C2982 1.327 . S
C2984 C3003 1.429 . S
C2984 H3008 0.950 . S
C2985 C3002 1.574 1_554 S
C2985 C3004 1.368 . S
C2985 H3009 0.949 . S
H2986 C2990 0.949 . S
C2987 C2988 1.349 . S
C2987 C2989 1.327 . S
C2987 H3010 0.950 . S
C2988 C2987 1.349 . S
C2988 C3000 1.349 . S
C2989 C2987 1.327 . S
C2989 C3005 1.429 . S
C2989 H3011 0.950 . S
C2990 H2986 0.949 . S
C2990 C2998 1.574 1_556 S
C2990 C3006 1.368 . S
H2991 C2999 0.950 . S
H2992 C2997 0.950 . S
H2993 C2998 0.949 . S
H2994 C3000 0.950 . S
H2995 C3001 0.950 . S
H2996 C3002 0.949 . S
C2997 H2992 0.950 . S
C2997 C2999 1.327 . S
C2997 C3003 1.429 . S
C2998 C2990 1.574 1_554 S
C2998 H2993 0.949 . S
C2998 C3004 1.368 . S
C2999 C2983 1.349 . S
C2999 H2991 0.950 . S
C2999 C2997 1.327 . S
C3000 C2988 1.349 . S
C3000 H2994 0.950 . S
C3000 C3001 1.327 . S
C3001 H2995 0.950 . S
C3001 C3000 1.327 . S
C3001 C3005 1.429 . S
C3002 C2985 1.574 1_556 S
C3002 H2996 0.949 . S
C3002 C3006 1.368 . S
C3003 C2984 1.429 . S
C3003 C2997 1.429 . S
C3003 C3004 1.523 . S
C3004 C2985 1.368 . S
C3004 C2998 1.368 . S
C3004 C3003 1.523 . S
C3005 C2989 1.429 . S
C3005 C3001 1.429 . S
C3005 C3006 1.523 . S
C3006 C2990 1.368 . S
C3006 C3002 1.368 . S
C3006 C3005 1.523 . S
H3007 C2982 0.950 . S
H3008 C2984 0.950 . S
H3009 C2985 0.949 . S
H3010 C2987 0.950 . S
H3011 C2989 0.950 . S
C3012 C3013 1.349 . S
C3012 C3014 1.327 . S
C3012 H3037 0.950 . S
C3013 C3012 1.349 . S
C3013 C3029 1.349 . S
C3014 C3012 1.327 . S
C3014 C3033 1.429 . S
C3014 H3038 0.950 . S
C3015 C3032 1.574 1_556 S
C3015 C3034 1.368 . S
C3015 H3039 0.949 . S
H3016 C3020 0.949 . S
C3017 C3018 1.349 . S
C3017 C3019 1.327 . S
C3017 H3040 0.950 . S
C3018 C3017 1.349 . S
C3018 C3030 1.349 . S
C3019 C3017 1.327 . S
C3019 C3035 1.429 . S
C3019 H3041 0.950 . S
C3020 H3016 0.949 . S
C3020 C3028 1.574 1_554 S
C3020 C3036 1.368 . S
H3021 C3029 0.950 . S
H3022 C3027 0.950 . S
H3023 C3028 0.949 . S
H3024 C3030 0.950 . S
H3025 C3031 0.950 . S
H3026 C3032 0.949 . S
C3027 H3022 0.950 . S
C3027 C3029 1.327 . S
C3027 C3033 1.429 . S
C3028 C3020 1.574 1_556 S
C3028 H3023 0.949 . S
C3028 C3034 1.368 . S
C3029 C3013 1.349 . S
C3029 H3021 0.950 . S
C3029 C3027 1.327 . S
C3030 C3018 1.349 . S
C3030 H3024 0.950 . S
C3030 C3031 1.327 . S
C3031 H3025 0.950 . S
C3031 C3030 1.327 . S
C3031 C3035 1.429 . S
C3032 C3015 1.574 1_554 S
C3032 H3026 0.949 . S
C3032 C3036 1.368 . S
C3033 C3014 1.429 . S
C3033 C3027 1.429 . S
C3033 C3034 1.523 . S
C3034 C3015 1.368 . S
C3034 C3028 1.368 . S
C3034 C3033 1.523 . S
C3035 C3019 1.429 . S
C3035 C3031 1.429 . S
C3035 C3036 1.523 . S
C3036 C3020 1.368 . S
C3036 C3032 1.368 . S
C3036 C3035 1.523 . S
H3037 C3012 0.950 . S
H3038 C3014 0.950 . S
H3039 C3015 0.949 . S
H3040 C3017 0.950 . S
H3041 C3019 0.950 . S
C3042 C3043 1.349 . S
C3042 C3044 1.327 . S
C3042 H3067 0.950 . S
C3043 C3042 1.349 . S
C3043 C3059 1.349 . S
C3044 C3042 1.327 . S
C3044 C3063 1.429 . S
C3044 H3068 0.950 . S
C3045 C3062 1.574 1_554 S
C3045 C3064 1.368 . S
C3045 H3069 0.949 . S
H3046 C3050 0.949 . S
C3047 C3048 1.349 . S
C3047 C3049 1.327 . S
C3047 H3070 0.950 . S
C3048 C3047 1.349 . S
C3048 C3060 1.349 . S
C3049 C3047 1.327 . S
C3049 C3065 1.429 . S
C3049 H3071 0.950 . S
C3050 H3046 0.949 . S
C3050 C3058 1.574 1_556 S
C3050 C3066 1.368 . S
H3051 C3059 0.950 . S
H3052 C3057 0.950 . S
H3053 C3058 0.949 . S
H3054 C3060 0.950 . S
H3055 C3061 0.950 . S
H3056 C3062 0.949 . S
C3057 H3052 0.950 . S
C3057 C3059 1.327 . S
C3057 C3063 1.429 . S
C3058 C3050 1.574 1_554 S
C3058 H3053 0.949 . S
C3058 C3064 1.368 . S
C3059 C3043 1.349 . S
C3059 H3051 0.950 . S
C3059 C3057 1.327 . S
C3060 C3048 1.349 . S
C3060 H3054 0.950 . S
C3060 C3061 1.327 . S
C3061 H3055 0.950 . S
C3061 C3060 1.327 . S
C3061 C3065 1.429 . S
C3062 C3045 1.574 1_556 S
C3062 H3056 0.949 . S
C3062 C3066 1.368 . S
C3063 C3044 1.429 . S
C3063 C3057 1.429 . S
C3063 C3064 1.523 . S
C3064 C3045 1.368 . S
C3064 C3058 1.368 . S
C3064 C3063 1.523 . S
C3065 C3049 1.429 . S
C3065 C3061 1.429 . S
C3065 C3066 1.523 . S
C3066 C3050 1.368 . S
C3066 C3062 1.368 . S
C3066 C3065 1.523 . S
H3067 C3042 0.950 . S
H3068 C3044 0.950 . S
H3069 C3045 0.949 . S
H3070 C3047 0.950 . S
H3071 C3049 0.950 . S
C3072 C3073 1.349 . S
C3072 C3074 1.327 . S
C3072 H3097 0.950 . S
C3073 C3072 1.349 . S
C3073 C3089 1.349 . S
C3074 C3072 1.327 . S
C3074 C3093 1.429 . S
C3074 H3098 0.950 . S
C3075 C3092 1.574 1_455 S
C3075 C3094 1.368 . S
C3075 H3099 0.949 . S
H3076 C3080 0.949 . S
C3077 C3078 1.349 . S
C3077 C3079 1.327 . S
C3077 H3100 0.950 . S
C3078 C3077 1.349 . S
C3078 C3090 1.349 . S
C3079 C3077 1.327 . S
C3079 C3095 1.429 . S
C3079 H3101 0.950 . S
C3080 H3076 0.949 . S
C3080 C3088 1.574 1_655 S
C3080 C3096 1.368 . S
H3081 C3089 0.950 . S
H3082 C3087 0.950 . S
H3083 C3088 0.949 . S
H3084 C3090 0.950 . S
H3085 C3091 0.950 . S
H3086 C3092 0.949 . S
C3087 H3082 0.950 . S
C3087 C3089 1.327 . S
C3087 C3093 1.429 . S
C3088 C3080 1.574 1_455 S
C3088 H3083 0.949 . S
C3088 C3094 1.368 . S
C3089 C3073 1.349 . S
C3089 H3081 0.950 . S
C3089 C3087 1.327 . S
C3090 C3078 1.349 . S
C3090 H3084 0.950 . S
C3090 C3091 1.327 . S
C3091 H3085 0.950 . S
C3091 C3090 1.327 . S
C3091 C3095 1.429 . S
C3092 C3075 1.574 1_655 S
C3092 H3086 0.949 . S
C3092 C3096 1.368 . S
C3093 C3074 1.429 . S
C3093 C3087 1.429 . S
C3093 C3094 1.523 . S
C3094 C3075 1.368 . S
C3094 C3088 1.368 . S
C3094 C3093 1.523 . S
C3095 C3079 1.429 . S
C3095 C3091 1.429 . S
C3095 C3096 1.523 . S
C3096 C3080 1.368 . S
C3096 C3092 1.368 . S
C3096 C3095 1.523 . S
H3097 C3072 0.950 . S
H3098 C3074 0.950 . S
H3099 C3075 0.949 . S
H3100 C3077 0.950 . S
H3101 C3079 0.950 . S
C3102 C3103 1.349 . S
C3102 C3104 1.327 . S
C3102 H3127 0.950 . S
C3103 C3102 1.349 . S
C3103 C3119 1.349 . S
C3104 C3102 1.327 . S
C3104 C3123 1.429 . S
C3104 H3128 0.950 . S
C3105 C3122 1.574 1_565 S
C3105 C3124 1.368 . S
C3105 H3129 0.949 . S
H3106 C3110 0.949 . S
C3107 C3108 1.349 . S
C3107 C3109 1.327 . S
C3107 H3130 0.950 . S
C3108 C3107 1.349 . S
C3108 C3120 1.349 . S
C3109 C3107 1.327 . S
C3109 C3125 1.429 . S
C3109 H3131 0.950 . S
C3110 H3106 0.949 . S
C3110 C3118 1.574 1_545 S
C3110 C3126 1.368 . S
H3111 C3119 0.950 . S
H3112 C3117 0.950 . S
H3113 C3118 0.949 . S
H3114 C3120 0.950 . S
H3115 C3121 0.950 . S
H3116 C3122 0.949 . S
C3117 H3112 0.950 . S
C3117 C3119 1.327 . S
C3117 C3123 1.429 . S
C3118 C3110 1.574 1_565 S
C3118 H3113 0.949 . S
C3118 C3124 1.368 . S
C3119 C3103 1.349 . S
C3119 H3111 0.950 . S
C3119 C3117 1.327 . S
C3120 C3108 1.349 . S
C3120 H3114 0.950 . S
C3120 C3121 1.327 . S
C3121 H3115 0.950 . S
C3121 C3120 1.327 . S
C3121 C3125 1.429 . S
C3122 C3105 1.574 1_545 S
C3122 H3116 0.949 . S
C3122 C3126 1.368 . S
C3123 C3104 1.429 . S
C3123 C3117 1.429 . S
C3123 C3124 1.523 . S
C3124 C3105 1.368 . S
C3124 C3118 1.368 . S
C3124 C3123 1.523 . S
C3125 C3109 1.429 . S
C3125 C3121 1.429 . S
C3125 C3126 1.523 . S
C3126 C3110 1.368 . S
C3126 C3122 1.368 . S
C3126 C3125 1.523 . S
H3127 C3102 0.950 . S
H3128 C3104 0.950 . S
H3129 C3105 0.949 . S
H3130 C3107 0.950 . S
H3131 C3109 0.950 . S
C3132 C3133 1.349 . S
C3132 C3134 1.327 . S
C3132 H3157 0.950 . S
C3133 C3132 1.349 . S
C3133 C3149 1.349 . S
C3134 C3132 1.327 . S
C3134 C3153 1.429 . S
C3134 H3158 0.950 . S
C3135 C3152 1.574 1_455 S
C3135 C3154 1.368 . S
C3135 H3159 0.949 . S
H3136 C3140 0.949 . S
C3137 C3138 1.349 . S
C3137 C3139 1.327 . S
C3137 H3160 0.950 . S
C3138 C3137 1.349 . S
C3138 C3150 1.349 . S
C3139 C3137 1.327 . S
C3139 C3155 1.429 . S
C3139 H3161 0.950 . S
C3140 H3136 0.949 . S
C3140 C3148 1.574 1_655 S
C3140 C3156 1.368 . S
H3141 C3149 0.950 . S
H3142 C3147 0.950 . S
H3143 C3148 0.949 . S
H3144 C3150 0.950 . S
H3145 C3151 0.950 . S
H3146 C3152 0.949 . S
C3147 H3142 0.950 . S
C3147 C3149 1.327 . S
C3147 C3153 1.429 . S
C3148 C3140 1.574 1_455 S
C3148 H3143 0.949 . S
C3148 C3154 1.368 . S
C3149 C3133 1.349 . S
C3149 H3141 0.950 . S
C3149 C3147 1.327 . S
C3150 C3138 1.349 . S
C3150 H3144 0.950 . S
C3150 C3151 1.327 . S
C3151 H3145 0.950 . S
C3151 C3150 1.327 . S
C3151 C3155 1.429 . S
C3152 C3135 1.574 1_655 S
C3152 H3146 0.949 . S
C3152 C3156 1.368 . S
C3153 C3134 1.429 . S
C3153 C3147 1.429 . S
C3153 C3154 1.523 . S
C3154 C3135 1.368 . S
C3154 C3148 1.368 . S
C3154 C3153 1.523 . S
C3155 C3139 1.429 . S
C3155 C3151 1.429 . S
C3155 C3156 1.523 . S
C3156 C3140 1.368 . S
C3156 C3152 1.368 . S
C3156 C3155 1.523 . S
H3157 C3132 0.950 . S
H3158 C3134 0.950 . S
H3159 C3135 0.949 . S
H3160 C3137 0.950 . S
H3161 C3139 0.950 . S
C3162 C3163 1.349 . S
C3162 C3164 1.327 . S
C3162 H3187 0.950 . S
C3163 C3162 1.349 . S
C3163 C3179 1.349 . S
C3164 C3162 1.327 . S
C3164 C3183 1.429 . S
C3164 H3188 0.950 . S
C3165 C3182 1.574 1_565 S
C3165 C3184 1.368 . S
C3165 H3189 0.949 . S
H3166 C3170 0.949 . S
C3167 C3168 1.349 . S
C3167 C3169 1.327 . S
C3167 H3190 0.950 . S
C3168 C3167 1.349 . S
C3168 C3180 1.349 . S
C3169 C3167 1.327 . S
C3169 C3185 1.429 . S
C3169 H3191 0.950 . S
C3170 H3166 0.949 . S
C3170 C3178 1.574 1_545 S
C3170 C3186 1.368 . S
H3171 C3179 0.950 . S
H3172 C3177 0.950 . S
H3173 C3178 0.949 . S
H3174 C3180 0.950 . S
H3175 C3181 0.950 . S
H3176 C3182 0.949 . S
C3177 H3172 0.950 . S
C3177 C3179 1.327 . S
C3177 C3183 1.429 . S
C3178 C3170 1.574 1_565 S
C3178 H3173 0.949 . S
C3178 C3184 1.368 . S
C3179 C3163 1.349 . S
C3179 H3171 0.950 . S
C3179 C3177 1.327 . S
C3180 C3168 1.349 . S
C3180 H3174 0.950 . S
C3180 C3181 1.327 . S
C3181 H3175 0.950 . S
C3181 C3180 1.327 . S
C3181 C3185 1.429 . S
C3182 C3165 1.574 1_545 S
C3182 H3176 0.949 . S
C3182 C3186 1.368 . S
C3183 C3164 1.429 . S
C3183 C3177 1.429 . S
C3183 C3184 1.523 . S
C3184 C3165 1.368 . S
C3184 C3178 1.368 . S
C3184 C3183 1.523 . S
C3185 C3169 1.429 . S
C3185 C3181 1.429 . S
C3185 C3186 1.523 . S
C3186 C3170 1.368 . S
C3186 C3182 1.368 . S
C3186 C3185 1.523 . S
H3187 C3162 0.950 . S
H3188 C3164 0.950 . S
H3189 C3165 0.949 . S
H3190 C3167 0.950 . S
H3191 C3169 0.950 . S
C3192 C3193 1.349 . S
C3192 C3194 1.327 . S
C3192 H3217 0.950 . S
C3193 C3192 1.349 . S
C3193 C3209 1.349 . S
C3194 C3192 1.327 . S
C3194 C3213 1.429 . S
C3194 H3218 0.950 . S
C3195 C3212 1.574 1_655 S
C3195 C3214 1.368 . S
C3195 H3219 0.949 . S
H3196 C3200 0.949 . S
C3197 C3198 1.349 . S
C3197 C3199 1.327 . S
C3197 H3220 0.950 . S
C3198 C3197 1.349 . S
C3198 C3210 1.349 . S
C3199 C3197 1.327 . S
C3199 C3215 1.429 . S
C3199 H3221 0.950 . S
C3200 H3196 0.949 . S
C3200 C3208 1.574 1_455 S
C3200 C3216 1.368 . S
H3201 C3209 0.950 . S
H3202 C3207 0.950 . S
H3203 C3208 0.949 . S
H3204 C3210 0.950 . S
H3205 C3211 0.950 . S
H3206 C3212 0.949 . S
C3207 H3202 0.950 . S
C3207 C3209 1.327 . S
C3207 C3213 1.429 . S
C3208 C3200 1.574 1_655 S
C3208 H3203 0.949 . S
C3208 C3214 1.368 . S
C3209 C3193 1.349 . S
C3209 H3201 0.950 . S
C3209 C3207 1.327 . S
C3210 C3198 1.349 . S
C3210 H3204 0.950 . S
C3210 C3211 1.327 . S
C3211 H3205 0.950 . S
C3211 C3210 1.327 . S
C3211 C3215 1.429 . S
C3212 C3195 1.574 1_455 S
C3212 H3206 0.949 . S
C3212 C3216 1.368 . S
C3213 C3194 1.429 . S
C3213 C3207 1.429 . S
C3213 C3214 1.523 . S
C3214 C3195 1.368 . S
C3214 C3208 1.368 . S
C3214 C3213 1.523 . S
C3215 C3199 1.429 . S
C3215 C3211 1.429 . S
C3215 C3216 1.523 . S
C3216 C3200 1.368 . S
C3216 C3212 1.368 . S
C3216 C3215 1.523 . S
H3217 C3192 0.950 . S
H3218 C3194 0.950 . S
H3219 C3195 0.949 . S
H3220 C3197 0.950 . S
H3221 C3199 0.950 . S
C3222 C3223 1.349 . S
C3222 C3224 1.327 . S
C3222 H3247 0.950 . S
C3223 C3222 1.349 . S
C3223 C3239 1.349 . S
C3224 C3222 1.327 . S
C3224 C3243 1.429 . S
C3224 H3248 0.950 . S
C3225 C3242 1.574 1_545 S
C3225 C3244 1.368 . S
C3225 H3249 0.949 . S
H3226 C3230 0.949 . S
C3227 C3228 1.349 . S
C3227 C3229 1.327 . S
C3227 H3250 0.950 . S
C3228 C3227 1.349 . S
C3228 C3240 1.349 . S
C3229 C3227 1.327 . S
C3229 C3245 1.429 . S
C3229 H3251 0.950 . S
C3230 H3226 0.949 . S
C3230 C3238 1.574 1_565 S
C3230 C3246 1.368 . S
H3231 C3239 0.950 . S
H3232 C3237 0.950 . S
H3233 C3238 0.949 . S
H3234 C3240 0.950 . S
H3235 C3241 0.950 . S
H3236 C3242 0.949 . S
C3237 H3232 0.950 . S
C3237 C3239 1.327 . S
C3237 C3243 1.429 . S
C3238 C3230 1.574 1_545 S
C3238 H3233 0.949 . S
C3238 C3244 1.368 . S
C3239 C3223 1.349 . S
C3239 H3231 0.950 . S
C3239 C3237 1.327 . S
C3240 C3228 1.349 . S
C3240 H3234 0.950 . S
C3240 C3241 1.327 . S
C3241 H3235 0.950 . S
C3241 C3240 1.327 . S
C3241 C3245 1.429 . S
C3242 C3225 1.574 1_565 S
C3242 H3236 0.949 . S
C3242 C3246 1.368 . S
C3243 C3224 1.429 . S
C3243 C3237 1.429 . S
C3243 C3244 1.523 . S
C3244 C3225 1.368 . S
C3244 C3238 1.368 . S
C3244 C3243 1.523 . S
C3245 C3229 1.429 . S
C3245 C3241 1.429 . S
C3245 C3246 1.523 . S
C3246 C3230 1.368 . S
C3246 C3242 1.368 . S
C3246 C3245 1.523 . S
H3247 C3222 0.950 . S
H3248 C3224 0.950 . S
H3249 C3225 0.949 . S
H3250 C3227 0.950 . S
H3251 C3229 0.950 . S
C3252 C3253 1.349 . S
C3252 C3254 1.327 . S
C3252 H3277 0.950 . S
C3253 C3252 1.349 . S
C3253 C3269 1.349 . S
C3254 C3252 1.327 . S
C3254 C3273 1.429 . S
C3254 H3278 0.950 . S
C3255 C3272 1.574 1_455 S
C3255 C3274 1.368 . S
C3255 H3279 0.949 . S
H3256 C3260 0.949 . S
C3257 C3258 1.349 . S
C3257 C3259 1.327 . S
C3257 H3280 0.950 . S
C3258 C3257 1.349 . S
C3258 C3270 1.349 . S
C3259 C3257 1.327 . S
C3259 C3275 1.429 . S
C3259 H3281 0.950 . S
C3260 H3256 0.949 . S
C3260 C3268 1.574 1_655 S
C3260 C3276 1.368 . S
H3261 C3269 0.950 . S
H3262 C3267 0.950 . S
H3263 C3268 0.949 . S
H3264 C3270 0.950 . S
H3265 C3271 0.950 . S
H3266 C3272 0.949 . S
C3267 H3262 0.950 . S
C3267 C3269 1.327 . S
C3267 C3273 1.429 . S
C3268 C3260 1.574 1_455 S
C3268 H3263 0.949 . S
C3268 C3274 1.368 . S
C3269 C3253 1.349 . S
C3269 H3261 0.950 . S
C3269 C3267 1.327 . S
C3270 C3258 1.349 . S
C3270 H3264 0.950 . S
C3270 C3271 1.327 . S
C3271 H3265 0.950 . S
C3271 C3270 1.327 . S
C3271 C3275 1.429 . S
C3272 C3255 1.574 1_655 S
C3272 H3266 0.949 . S
C3272 C3276 1.368 . S
C3273 C3254 1.429 . S
C3273 C3267 1.429 . S
C3273 C3274 1.523 . S
C3274 C3255 1.368 . S
C3274 C3268 1.368 . S
C3274 C3273 1.523 . S
C3275 C3259 1.429 . S
C3275 C3271 1.429 . S
C3275 C3276 1.523 . S
C3276 C3260 1.368 . S
C3276 C3272 1.368 . S
C3276 C3275 1.523 . S
H3277 C3252 0.950 . S
H3278 C3254 0.950 . S
H3279 C3255 0.949 . S
H3280 C3257 0.950 . S
H3281 C3259 0.950 . S
C3282 C3283 1.349 . S
C3282 C3284 1.327 . S
C3282 H3307 0.950 . S
C3283 C3282 1.349 . S
C3283 C3299 1.349 . S
C3284 C3282 1.327 . S
C3284 C3303 1.429 . S
C3284 H3308 0.950 . S
C3285 C3302 1.574 1_545 S
C3285 C3304 1.368 . S
C3285 H3309 0.949 . S
H3286 C3290 0.949 . S
C3287 C3288 1.349 . S
C3287 C3289 1.327 . S
C3287 H3310 0.950 . S
C3288 C3287 1.349 . S
C3288 C3300 1.349 . S
C3289 C3287 1.327 . S
C3289 C3305 1.429 . S
C3289 H3311 0.950 . S
C3290 H3286 0.949 . S
C3290 C3298 1.574 1_565 S
C3290 C3306 1.368 . S
H3291 C3299 0.950 . S
H3292 C3297 0.950 . S
H3293 C3298 0.949 . S
H3294 C3300 0.950 . S
H3295 C3301 0.950 . S
H3296 C3302 0.949 . S
C3297 H3292 0.950 . S
C3297 C3299 1.327 . S
C3297 C3303 1.429 . S
C3298 C3290 1.574 1_545 S
C3298 H3293 0.949 . S
C3298 C3304 1.368 . S
C3299 C3283 1.349 . S
C3299 H3291 0.950 . S
C3299 C3297 1.327 . S
C3300 C3288 1.349 . S
C3300 H3294 0.950 . S
C3300 C3301 1.327 . S
C3301 H3295 0.950 . S
C3301 C3300 1.327 . S
C3301 C3305 1.429 . S
C3302 C3285 1.574 1_565 S
C3302 H3296 0.949 . S
C3302 C3306 1.368 . S
C3303 C3284 1.429 . S
C3303 C3297 1.429 . S
C3303 C3304 1.523 . S
C3304 C3285 1.368 . S
C3304 C3298 1.368 . S
C3304 C3303 1.523 . S
C3305 C3289 1.429 . S
C3305 C3301 1.429 . S
C3305 C3306 1.523 . S
C3306 C3290 1.368 . S
C3306 C3302 1.368 . S
C3306 C3305 1.523 . S
H3307 C3282 0.950 . S
H3308 C3284 0.950 . S
H3309 C3285 0.949 . S
H3310 C3287 0.950 . S
H3311 C3289 0.950 . S
C3312 C3313 1.349 . S
C3312 C3314 1.327 . S
C3312 H3337 0.950 . S
C3313 C3312 1.349 . S
C3313 C3329 1.349 . S
C3314 C3312 1.327 . S
C3314 C3333 1.429 . S
C3314 H3338 0.950 . S
C3315 C3332 1.574 1_545 S
C3315 C3334 1.368 . S
C3315 H3339 0.949 . S
H3316 C3320 0.949 . S
C3317 C3318 1.349 . S
C3317 C3319 1.327 . S
C3317 H3340 0.950 . S
C3318 C3317 1.349 . S
C3318 C3330 1.349 . S
C3319 C3317 1.327 . S
C3319 C3335 1.429 . S
C3319 H3341 0.950 . S
C3320 H3316 0.949 . S
C3320 C3328 1.574 1_565 S
C3320 C3336 1.368 . S
H3321 C3329 0.950 . S
H3322 C3327 0.950 . S
H3323 C3328 0.949 . S
H3324 C3330 0.950 . S
H3325 C3331 0.950 . S
H3326 C3332 0.949 . S
C3327 H3322 0.950 . S
C3327 C3329 1.327 . S
C3327 C3333 1.429 . S
C3328 C3320 1.574 1_545 S
C3328 H3323 0.949 . S
C3328 C3334 1.368 . S
C3329 C3313 1.349 . S
C3329 H3321 0.950 . S
C3329 C3327 1.327 . S
C3330 C3318 1.349 . S
C3330 H3324 0.950 . S
C3330 C3331 1.327 . S
C3331 H3325 0.950 . S
C3331 C3330 1.327 . S
C3331 C3335 1.429 . S
C3332 C3315 1.574 1_565 S
C3332 H3326 0.949 . S
C3332 C3336 1.368 . S
C3333 C3314 1.429 . S
C3333 C3327 1.429 . S
C3333 C3334 1.523 . S
C3334 C3315 1.368 . S
C3334 C3328 1.368 . S
C3334 C3333 1.523 . S
C3335 C3319 1.429 . S
C3335 C3331 1.429 . S
C3335 C3336 1.523 . S
C3336 C3320 1.368 . S
C3336 C3332 1.368 . S
C3336 C3335 1.523 . S
H3337 C3312 0.950 . S
H3338 C3314 0.950 . S
H3339 C3315 0.949 . S
H3340 C3317 0.950 . S
H3341 C3319 0.950 . S
C3342 C3343 1.349 . S
C3342 C3344 1.327 . S
C3342 H3367 0.950 . S
C3343 C3342 1.349 . S
C3343 C3359 1.349 . S
C3344 C3342 1.327 . S
C3344 C3363 1.429 . S
C3344 H3368 0.950 . S
C3345 C3362 1.574 1_545 S
C3345 C3364 1.368 . S
C3345 H3369 0.949 . S
H3346 C3350 0.949 . S
C3347 C3348 1.349 . S
C3347 C3349 1.327 . S
C3347 H3370 0.950 . S
C3348 C3347 1.349 . S
C3348 C3360 1.349 . S
C3349 C3347 1.327 . S
C3349 C3365 1.429 . S
C3349 H3371 0.950 . S
C3350 H3346 0.949 . S
C3350 C3358 1.574 1_565 S
C3350 C3366 1.368 . S
H3351 C3359 0.950 . S
H3352 C3357 0.950 . S
H3353 C3358 0.949 . S
H3354 C3360 0.950 . S
H3355 C3361 0.950 . S
H3356 C3362 0.949 . S
C3357 H3352 0.950 . S
C3357 C3359 1.327 . S
C3357 C3363 1.429 . S
C3358 C3350 1.574 1_545 S
C3358 H3353 0.949 . S
C3358 C3364 1.368 . S
C3359 C3343 1.349 . S
C3359 H3351 0.950 . S
C3359 C3357 1.327 . S
C3360 C3348 1.349 . S
C3360 H3354 0.950 . S
C3360 C3361 1.327 . S
C3361 H3355 0.950 . S
C3361 C3360 1.327 . S
C3361 C3365 1.429 . S
C3362 C3345 1.574 1_565 S
C3362 H3356 0.949 . S
C3362 C3366 1.368 . S
C3363 C3344 1.429 . S
C3363 C3357 1.429 . S
C3363 C3364 1.523 . S
C3364 C3345 1.368 . S
C3364 C3358 1.368 . S
C3364 C3363 1.523 . S
C3365 C3349 1.429 . S
C3365 C3361 1.429 . S
C3365 C3366 1.523 . S
C3366 C3350 1.368 . S
C3366 C3362 1.368 . S
C3366 C3365 1.523 . S
H3367 C3342 0.950 . S
H3368 C3344 0.950 . S
H3369 C3345 0.949 . S
H3370 C3347 0.950 . S
H3371 C3349 0.950 . S
C3372 C3373 1.349 . S
C3372 C3374 1.327 . S
C3372 H3397 0.950 . S
C3373 C3372 1.349 . S
C3373 C3389 1.349 . S
C3374 C3372 1.327 . S
C3374 C3393 1.429 . S
C3374 H3398 0.950 . S
C3375 C3392 1.574 1_655 S
C3375 C3394 1.368 . S
C3375 H3399 0.949 . S
H3376 C3380 0.949 . S
C3377 C3378 1.349 . S
C3377 C3379 1.327 . S
C3377 H3400 0.950 . S
C3378 C3377 1.349 . S
C3378 C3390 1.349 . S
C3379 C3377 1.327 . S
C3379 C3395 1.429 . S
C3379 H3401 0.950 . S
C3380 H3376 0.949 . S
C3380 C3388 1.574 1_455 S
C3380 C3396 1.368 . S
H3381 C3389 0.950 . S
H3382 C3387 0.950 . S
H3383 C3388 0.949 . S
H3384 C3390 0.950 . S
H3385 C3391 0.950 . S
H3386 C3392 0.949 . S
C3387 H3382 0.950 . S
C3387 C3389 1.327 . S
C3387 C3393 1.429 . S
C3388 C3380 1.574 1_655 S
C3388 H3383 0.949 . S
C3388 C3394 1.368 . S
C3389 C3373 1.349 . S
C3389 H3381 0.950 . S
C3389 C3387 1.327 . S
C3390 C3378 1.349 . S
C3390 H3384 0.950 . S
C3390 C3391 1.327 . S
C3391 H3385 0.950 . S
C3391 C3390 1.327 . S
C3391 C3395 1.429 . S
C3392 C3375 1.574 1_455 S
C3392 H3386 0.949 . S
C3392 C3396 1.368 . S
C3393 C3374 1.429 . S
C3393 C3387 1.429 . S
C3393 C3394 1.523 . S
C3394 C3375 1.368 . S
C3394 C3388 1.368 . S
C3394 C3393 1.523 . S
C3395 C3379 1.429 . S
C3395 C3391 1.429 . S
C3395 C3396 1.523 . S
C3396 C3380 1.368 . S
C3396 C3392 1.368 . S
C3396 C3395 1.523 . S
H3397 C3372 0.950 . S
H3398 C3374 0.950 . S
H3399 C3375 0.949 . S
H3400 C3377 0.950 . S
H3401 C3379 0.950 . S
C3402 C3403 1.349 . S
C3402 C3404 1.327 . S
C3402 H3427 0.950 . S
C3403 C3402 1.349 . S
C3403 C3419 1.349 . S
C3404 C3402 1.327 . S
C3404 C3423 1.429 . S
C3404 H3428 0.950 . S
C3405 C3422 1.574 1_545 S
C3405 C3424 1.368 . S
C3405 H3429 0.949 . S
H3406 C3410 0.949 . S
C3407 C3408 1.349 . S
C3407 C3409 1.327 . S
C3407 H3430 0.950 . S
C3408 C3407 1.349 . S
C3408 C3420 1.349 . S
C3409 C3407 1.327 . S
C3409 C3425 1.429 . S
C3409 H3431 0.950 . S
C3410 H3406 0.949 . S
C3410 C3418 1.574 1_565 S
C3410 C3426 1.368 . S
H3411 C3419 0.950 . S
H3412 C3417 0.950 . S
H3413 C3418 0.949 . S
H3414 C3420 0.950 . S
H3415 C3421 0.950 . S
H3416 C3422 0.949 . S
C3417 H3412 0.950 . S
C3417 C3419 1.327 . S
C3417 C3423 1.429 . S
C3418 C3410 1.574 1_545 S
C3418 H3413 0.949 . S
C3418 C3424 1.368 . S
C3419 C3403 1.349 . S
C3419 H3411 0.950 . S
C3419 C3417 1.327 . S
C3420 C3408 1.349 . S
C3420 H3414 0.950 . S
C3420 C3421 1.327 . S
C3421 H3415 0.950 . S
C3421 C3420 1.327 . S
C3421 C3425 1.429 . S
C3422 C3405 1.574 1_565 S
C3422 H3416 0.949 . S
C3422 C3426 1.368 . S
C3423 C3404 1.429 . S
C3423 C3417 1.429 . S
C3423 C3424 1.523 . S
C3424 C3405 1.368 . S
C3424 C3418 1.368 . S
C3424 C3423 1.523 . S
C3425 C3409 1.429 . S
C3425 C3421 1.429 . S
C3425 C3426 1.523 . S
C3426 C3410 1.368 . S
C3426 C3422 1.368 . S
C3426 C3425 1.523 . S
H3427 C3402 0.950 . S
H3428 C3404 0.950 . S
H3429 C3405 0.949 . S
H3430 C3407 0.950 . S
H3431 C3409 0.950 . S
C3432 C3433 1.349 . S
C3432 C3434 1.327 . S
C3432 H3457 0.950 . S
C3433 C3432 1.349 . S
C3433 C3449 1.349 . S
C3434 C3432 1.327 . S
C3434 C3453 1.429 . S
C3434 H3458 0.950 . S
C3435 C3452 1.574 1_455 S
C3435 C3454 1.368 . S
C3435 H3459 0.949 . S
H3436 C3440 0.949 . S
C3437 C3438 1.349 . S
C3437 C3439 1.327 . S
C3437 H3460 0.950 . S
C3438 C3437 1.349 . S
C3438 C3450 1.349 . S
C3439 C3437 1.327 . S
C3439 C3455 1.429 . S
C3439 H3461 0.950 . S
C3440 H3436 0.949 . S
C3440 C3448 1.574 1_655 S
C3440 C3456 1.368 . S
H3441 C3449 0.950 . S
H3442 C3447 0.950 . S
H3443 C3448 0.949 . S
H3444 C3450 0.950 . S
H3445 C3451 0.950 . S
H3446 C3452 0.949 . S
C3447 H3442 0.950 . S
C3447 C3449 1.327 . S
C3447 C3453 1.429 . S
C3448 C3440 1.574 1_455 S
C3448 H3443 0.949 . S
C3448 C3454 1.368 . S
C3449 C3433 1.349 . S
C3449 H3441 0.950 . S
C3449 C3447 1.327 . S
C3450 C3438 1.349 . S
C3450 H3444 0.950 . S
C3450 C3451 1.327 . S
C3451 H3445 0.950 . S
C3451 C3450 1.327 . S
C3451 C3455 1.429 . S
C3452 C3435 1.574 1_655 S
C3452 H3446 0.949 . S
C3452 C3456 1.368 . S
C3453 C3434 1.429 . S
C3453 C3447 1.429 . S
C3453 C3454 1.523 . S
C3454 C3435 1.368 . S
C3454 C3448 1.368 . S
C3454 C3453 1.523 . S
C3455 C3439 1.429 . S
C3455 C3451 1.429 . S
C3455 C3456 1.523 . S
C3456 C3440 1.368 . S
C3456 C3452 1.368 . S
C3456 C3455 1.523 . S
H3457 C3432 0.950 . S
H3458 C3434 0.950 . S
H3459 C3435 0.949 . S
H3460 C3437 0.950 . S
H3461 C3439 0.950 . S
C3462 C3463 1.349 . S
C3462 C3464 1.327 . S
C3462 H3487 0.950 . S
C3463 C3462 1.349 . S
C3463 C3479 1.349 . S
C3464 C3462 1.327 . S
C3464 C3483 1.429 . S
C3464 H3488 0.950 . S
C3465 C3482 1.574 1_545 S
C3465 C3484 1.368 . S
C3465 H3489 0.949 . S
H3466 C3470 0.949 . S
C3467 C3468 1.349 . S
C3467 C3469 1.327 . S
C3467 H3490 0.950 . S
C3468 C3467 1.349 . S
C3468 C3480 1.349 . S
C3469 C3467 1.327 . S
C3469 C3485 1.429 . S
C3469 H3491 0.950 . S
C3470 H3466 0.949 . S
C3470 C3478 1.574 1_565 S
C3470 C3486 1.368 . S
H3471 C3479 0.950 . S
H3472 C3477 0.950 . S
H3473 C3478 0.949 . S
H3474 C3480 0.950 . S
H3475 C3481 0.950 . S
H3476 C3482 0.949 . S
C3477 H3472 0.950 . S
C3477 C3479 1.327 . S
C3477 C3483 1.429 . S
C3478 C3470 1.574 1_545 S
C3478 H3473 0.949 . S
C3478 C3484 1.368 . S
C3479 C3463 1.349 . S
C3479 H3471 0.950 . S
C3479 C3477 1.327 . S
C3480 C3468 1.349 . S
C3480 H3474 0.950 . S
C3480 C3481 1.327 . S
C3481 H3475 0.950 . S
C3481 C3480 1.327 . S
C3481 C3485 1.429 . S
C3482 C3465 1.574 1_565 S
C3482 H3476 0.949 . S
C3482 C3486 1.368 . S
C3483 C3464 1.429 . S
C3483 C3477 1.429 . S
C3483 C3484 1.523 . S
C3484 C3465 1.368 . S
C3484 C3478 1.368 . S
C3484 C3483 1.523 . S
C3485 C3469 1.429 . S
C3485 C3481 1.429 . S
C3485 C3486 1.523 . S
C3486 C3470 1.368 . S
C3486 C3482 1.368 . S
C3486 C3485 1.523 . S
H3487 C3462 0.950 . S
H3488 C3464 0.950 . S
H3489 C3465 0.949 . S
H3490 C3467 0.950 . S
H3491 C3469 0.950 . S
C3492 C3493 1.349 . S
C3492 C3494 1.327 . S
C3492 H3517 0.950 . S
C3493 C3492 1.349 . S
C3493 C3509 1.349 . S
C3494 C3492 1.327 . S
C3494 C3513 1.429 . S
C3494 H3518 0.950 . S
C3495 C3512 1.574 1_655 S
C3495 C3514 1.368 . S
C3495 H3519 0.949 . S
H3496 C3500 0.949 . S
C3497 C3498 1.349 . S
C3497 C3499 1.327 . S
C3497 H3520 0.950 . S
C3498 C3497 1.349 . S
C3498 C3510 1.349 . S
C3499 C3497 1.327 . S
C3499 C3515 1.429 . S
C3499 H3521 0.950 . S
C3500 H3496 0.949 . S
C3500 C3508 1.574 1_455 S
C3500 C3516 1.368 . S
H3501 C3509 0.950 . S
H3502 C3507 0.950 . S
H3503 C3508 0.949 . S
H3504 C3510 0.950 . S
H3505 C3511 0.950 . S
H3506 C3512 0.949 . S
C3507 H3502 0.950 . S
C3507 C3509 1.327 . S
C3507 C3513 1.429 . S
C3508 C3500 1.574 1_655 S
C3508 H3503 0.949 . S
C3508 C3514 1.368 . S
C3509 C3493 1.349 . S
C3509 H3501 0.950 . S
C3509 C3507 1.327 . S
C3510 C3498 1.349 . S
C3510 H3504 0.950 . S
C3510 C3511 1.327 . S
C3511 H3505 0.950 . S
C3511 C3510 1.327 . S
C3511 C3515 1.429 . S
C3512 C3495 1.574 1_455 S
C3512 H3506 0.949 . S
C3512 C3516 1.368 . S
C3513 C3494 1.429 . S
C3513 C3507 1.429 . S
C3513 C3514 1.523 . S
C3514 C3495 1.368 . S
C3514 C3508 1.368 . S
C3514 C3513 1.523 . S
C3515 C3499 1.429 . S
C3515 C3511 1.429 . S
C3515 C3516 1.523 . S
C3516 C3500 1.368 . S
C3516 C3512 1.368 . S
C3516 C3515 1.523 . S
H3517 C3492 0.950 . S
H3518 C3494 0.950 . S
H3519 C3495 0.949 . S
H3520 C3497 0.950 . S
H3521 C3499 0.950 . S
C3522 C3523 1.349 . S
C3522 C3524 1.327 . S
C3522 H3547 0.950 . S
C3523 C3522 1.349 . S
C3523 C3539 1.349 . S
C3524 C3522 1.327 . S
C3524 C3543 1.429 . S
C3524 H3548 0.950 . S
C3525 C3542 1.574 1_455 S
C3525 C3544 1.368 . S
C3525 H3549 0.949 . S
H3526 C3530 0.949 . S
C3527 C3528 1.349 . S
C3527 C3529 1.327 . S
C3527 H3550 0.950 . S
C3528 C3527 1.349 . S
C3528 C3540 1.349 . S
C3529 C3527 1.327 . S
C3529 C3545 1.429 . S
C3529 H3551 0.950 . S
C3530 H3526 0.949 . S
C3530 C3538 1.574 1_655 S
C3530 C3546 1.368 . S
H3531 C3539 0.950 . S
H3532 C3537 0.950 . S
H3533 C3538 0.949 . S
H3534 C3540 0.950 . S
H3535 C3541 0.950 . S
H3536 C3542 0.949 . S
C3537 H3532 0.950 . S
C3537 C3539 1.327 . S
C3537 C3543 1.429 . S
C3538 C3530 1.574 1_455 S
C3538 H3533 0.949 . S
C3538 C3544 1.368 . S
C3539 C3523 1.349 . S
C3539 H3531 0.950 . S
C3539 C3537 1.327 . S
C3540 C3528 1.349 . S
C3540 H3534 0.950 . S
C3540 C3541 1.327 . S
C3541 H3535 0.950 . S
C3541 C3540 1.327 . S
C3541 C3545 1.429 . S
C3542 C3525 1.574 1_655 S
C3542 H3536 0.949 . S
C3542 C3546 1.368 . S
C3543 C3524 1.429 . S
C3543 C3537 1.429 . S
C3543 C3544 1.523 . S
C3544 C3525 1.368 . S
C3544 C3538 1.368 . S
C3544 C3543 1.523 . S
C3545 C3529 1.429 . S
C3545 C3541 1.429 . S
C3545 C3546 1.523 . S
C3546 C3530 1.368 . S
C3546 C3542 1.368 . S
C3546 C3545 1.523 . S
H3547 C3522 0.950 . S
H3548 C3524 0.950 . S
H3549 C3525 0.949 . S
H3550 C3527 0.950 . S
H3551 C3529 0.950 . S
C673 C554 1.207 . S
C678 C3 1.206 . S
C703 C22 1.233 . S
C708 C507 1.232 . S
C733 C31 1.200 . S
C738 C526 1.202 . S
C763 C540 1.191 . S
C768 C50 1.190 . S
C793 C470 1.102 . S
C798 C59 1.101 . S
C823 C73 1.243 . S
C828 C484 1.246 . S
C853 C87 1.130 . S
C858 C493 1.129 . S
C883 C101 1.283 . S
C888 C451 1.285 . S
C913 C120 1.291 . S
C918 C437 1.288 . S
C943 C400 1.152 . S
C948 C129 1.150 . S
C973 C409 1.226 . S
C978 C148 1.228 . S
C1003 C157 1.147 . S
C1008 C428 1.149 . S
C1033 C176 1.111 . S
C1038 C358 1.110 . S
C1063 C185 1.167 . S
C1068 C367 1.166 . S
C1093 C386 1.046 . S
C1098 C204 1.046 . S
C1123 C339 1.246 . S
C1128 C213 1.247 . S
C1153 C232 1.295 . S
C1158 C624 1.294 . S
C1183 C661 1.263 . S
C1188 C241 1.262 . S
C1213 C638 1.254 . S
C1218 C260 1.254 . S
C1243 C647 1.177 . S
C1248 C269 1.176 . S
C1273 C568 1.224 . S
C1278 C288 1.224 . S
C1303 C596 1.262 . S
C1308 C302 1.261 . S
C1333 C316 1.137 . S
C1338 C605 1.135 . S
C1363 C577 1.069 . S
C1368 C330 1.070 . S
C1393 C456 1.207 . S
C1398 C283 1.205 . S
C1423 C246 1.235 . S
C1428 C465 1.234 . S
C1453 C479 1.221 . S
C1458 C255 1.222 . S
C1483 C498 1.202 . S
C1488 C274 1.201 . S
C1513 C325 1.113 . S
C1518 C512 1.115 . S
C1543 C521 1.269 . S
C1548 C297 1.266 . S
C1573 C311 1.133 . S
C1578 C535 1.131 . S
C1603 C227 1.282 . S
C1608 C549 1.284 . S
C1633 C563 1.287 . S
C1638 C218 1.290 . S
C1663 C171 1.169 . S
C1668 C666 1.171 . S
C1693 C633 1.230 . S
C1698 C190 1.233 . S
C1723 C199 1.076 . S
C1728 C652 1.078 . S
C1753 C134 1.043 . S
C1758 C582 1.043 . S
C1783 C143 1.172 . S
C1788 C591 1.171 . S
C1813 C162 1.065 . S
C1818 C610 1.065 . S
C1843 C619 1.246 . S
C1848 C115 1.247 . S
C1873 C344 1.289 . S
C1878 C106 1.290 . S
C1903 C395 1.251 . S
C1908 C17 1.250 . S
C1933 C414 1.217 . S
C1938 C36 1.217 . S
C1963 C423 1.182 . S
C1968 C45 1.181 . S
C1993 C442 1.218 . S
C1998 C8 1.219 . S
C2023 C78 1.224 . S
C2028 C372 1.224 . S
C2053 C381 1.121 . S
C2058 C92 1.123 . S
C2083 C353 1.072 . S
C2088 C64 1.074 . S
C2113 C7 1.481 . S
C2118 C371 1.482 . S
C2143 C387 1.392 . S
C2148 C23 1.391 . S
C2173 C35 1.485 . S
C2178 C343 1.485 . S
C2203 C51 1.387 . S
C2208 C359 1.384 . S
C2233 C63 1.430 . S
C2238 C429 1.431 . S
C2263 C441 1.491 . S
C2268 C77 1.490 . S
C2293 C91 1.434 . S
C2298 C401 1.436 . S
C2323 C413 1.500 . S
C2328 C105 1.500 . S
C2353 C121 1.530 . S
C2358 C511 1.529 . S
C2383 C527 1.447 . S
C2388 C133 1.449 . S
C2413 C149 1.479 . S
C2418 C541 1.483 . S
C2443 C161 1.456 . S
C2448 C555 1.455 . S
C2473 C177 1.485 . S
C2478 C455 1.481 . S
C2503 C189 1.436 . S
C2508 C471 1.437 . S
C2533 C485 1.429 . S
C2538 C205 1.429 . S
C2563 C217 1.483 . S
C2568 C497 1.486 . S
C2593 C609 1.474 . S
C2598 C233 1.477 . S
C2623 C245 1.472 . S
C2628 C639 1.477 . S
C2653 C261 1.494 . S
C2658 C651 1.489 . S
C2683 C569 1.442 . S
C2688 C273 1.436 . S
C2713 C665 1.494 . S
C2718 C289 1.496 . S
C2743 C303 1.448 . S
C2748 C581 1.444 . S
C2773 C597 1.463 . S
C2778 C317 1.461 . S
C2803 C331 1.445 . S
C2808 C625 1.452 . S
C2833 C595 1.489 . S
C2838 C287 1.489 . S
C2863 C247 1.397 . S
C2868 C611 1.398 . S
C2893 C623 1.490 . S
C2898 C259 1.491 . S
C2923 C583 1.380 . S
C2928 C275 1.381 . S
C2953 C653 1.427 . S
C2958 C329 1.424 . S
C2983 C301 1.495 . S
C2988 C567 1.495 . S
C3013 C667 1.443 . S
C3018 C315 1.441 . S
C3043 C231 1.507 . S
C3048 C637 1.507 . S
C3073 C469 1.529 . S
C3078 C219 1.531 . S
C3103 C175 1.469 . S
C3108 C483 1.464 . S
C3133 C191 1.479 . S
C3138 C499 1.482 . S
C3163 C457 1.422 . S
C3168 C203 1.423 . S
C3193 C135 1.451 . S
C3198 C553 1.449 . S
C3223 C513 1.436 . S
C3228 C147 1.435 . S
C3253 C163 1.448 . S
C3258 C525 1.445 . S
C3283 C119 1.483 . S
C3288 C539 1.486 . S
C3313 C385 1.470 . S
C3318 C107 1.472 . S
C3343 C21 1.463 . S
C3348 C415 1.469 . S
C3373 C37 1.475 . S
C3378 C427 1.471 . S
C3403 C443 1.439 . S
C3408 C49 1.434 . S
C3433 C9 1.492 . S
C3438 C399 1.490 . S
C3463 C79 1.428 . S
C3468 C357 1.425 . S
C3493 C93 1.453 . S
C3498 C373 1.456 . S
C3523 C65 1.444 . S
C3528 C345 1.449 . S
