# Generated by pormake.
# Topology lcy, (6)-cn, num edge types: 1
# Building blocks:
#     Node 0, Type 0, BuildingBlock: OJICUG_clean_sbu_0, # of connection points: 6
#     Node 1, Type 0, BuildingBlock: OJICUG_clean_sbu_0, # of connection points: 6
#     Node 2, Type 0, BuildingBlock: OJICUG_clean_sbu_0, # of connection points: 6
#     Node 3, Type 0, BuildingBlock: OJICUG_clean_sbu_0, # of connection points: 6
#     Edge 4, Type (0, 0), BuildingBlock: ZUJKAS_clean_linker_0, # of connection points: 2
#     Edge 5, Type (0, 0), BuildingBlock: ZUJKAS_clean_linker_0, # of connection points: 2
#     Edge 6, Type (0, 0), BuildingBlock: ZUJKAS_clean_linker_0, # of connection points: 2
#     Edge 7, Type (0, 0), BuildingBlock: ZUJKAS_clean_linker_0, # of connection points: 2
#     Edge 8, Type (0, 0), BuildingBlock: ZUJKAS_clean_linker_0, # of connection points: 2
#     Edge 9, Type (0, 0), BuildingBlock: ZUJKAS_clean_linker_0, # of connection points: 2
#     Edge 10, Type (0, 0), BuildingBlock: ZUJKAS_clean_linker_0, # of connection points: 2
#     Edge 11, Type (0, 0), BuildingBlock: ZUJKAS_clean_linker_0, # of connection points: 2
#     Edge 12, Type (0, 0), BuildingBlock: ZUJKAS_clean_linker_0, # of connection points: 2
#     Edge 13, Type (0, 0), BuildingBlock: ZUJKAS_clean_linker_0, # of connection points: 2
#     Edge 14, Type (0, 0), BuildingBlock: ZUJKAS_clean_linker_0, # of connection points: 2
#     Edge 15, Type (0, 0), BuildingBlock: ZUJKAS_clean_linker_0, # of connection points: 2
# Relax obj value: 0.357
# Max RMSD: 0.279
# Mean RMSD: 0.279
data_MOF--net-lcy--node1-OJICUG_clean_sbu_0--edge1-ZUJKAS_clean_linker_0
_symmetry_space_group_name_H-M    P1
_symmetry_Int_Tables_number       1
_symmetry_cell_setting            triclinic
loop_
_symmetry_equiv_pos_as_xyz
'x, y, z'
_cell_length_a     33.076223
_cell_length_b     33.001646
_cell_length_c     33.010757
_cell_angle_alpha  89.997489
_cell_angle_beta   89.869873
_cell_angle_gamma 90.221225
loop_
_atom_site_label
_atom_site_type_symbol
_atom_site_fract_x
_atom_site_fract_y
_atom_site_fract_z
_atom_type_partial_charge
Sc0 Sc 0.32074 0.40252 0.36193 0.0
Sc1 Sc 0.38584 0.35109 0.4268 0.0
Sc2 Sc 0.41435 0.37153 0.32856 0.0
O3 O 0.37334 0.37502 0.37269 0.0
C4 C 0.33191 0.36439 0.2786 0.0
C5 C 0.29517 0.32621 0.41686 0.0
C6 C 0.4203 0.28591 0.3631 0.0
C7 C 0.33979 0.43338 0.44935 0.0
C8 C 0.38676 0.45904 0.31755 0.0
C9 C 0.47075 0.38074 0.40658 0.0
O10 O 0.30961 0.36551 0.30985 0.0
O11 O 0.33117 0.31671 0.42607 0.0
O12 O 0.4122 0.30722 0.33207 0.0
O13 O 0.32879 0.44113 0.41333 0.0
O14 O 0.41634 0.43585 0.32541 0.0
O15 O 0.44129 0.38437 0.43089 0.0
O16 O 0.34995 0.44892 0.32423 0.0
O17 O 0.35649 0.40011 0.45948 0.0
O18 O 0.46552 0.37151 0.36954 0.0
O19 O 0.28646 0.35856 0.39756 0.0
O20 O 0.3698 0.37094 0.28043 0.0
O21 O 0.41712 0.29949 0.39927 0.0
Sc22 Sc 0.90665 0.11875 0.66005 0.0
Sc23 Sc 0.81445 0.08393 0.62453 0.0
Sc24 Sc 0.87982 0.13774 0.56125 0.0
O25 O 0.86672 0.11327 0.61521 0.0
C26 C 0.91401 0.20346 0.62407 0.0
C27 C 0.8228 0.12373 0.70873 0.0
C28 C 0.78955 0.16214 0.57286 0.0
C29 C 0.88063 0.02934 0.67009 0.0
C30 C 0.96418 0.10904 0.58206 0.0
C31 C 0.83447 0.05556 0.53659 0.0
O32 O 0.90422 0.1831 0.65527 0.0
O33 O 0.80099 0.1186 0.67759 0.0
O34 O 0.82556 0.17206 0.5637 0.0
O35 O 0.90941 0.0546 0.66538 0.0
O36 O 0.93502 0.10458 0.55752 0.0
O37 O 0.824 0.04657 0.57248 0.0
O38 O 0.95831 0.1182 0.61913 0.0
O39 O 0.84393 0.0373 0.66102 0.0
O40 O 0.85021 0.08962 0.52725 0.0
O41 O 0.86113 0.12049 0.70749 0.0
O42 O 0.9119 0.18896 0.58829 0.0
O43 O 0.78027 0.12851 0.58977 0.0
Sc44 Sc 0.17019 0.58391 0.86024 0.0
Sc45 Sc 0.10636 0.63926 0.92289 0.0
Sc46 Sc 0.07521 0.61046 0.82768 0.0
O47 O 0.11743 0.61127 0.87047 0.0
C48 C 0.15655 0.61797 0.77549 0.0
C49 C 0.19581 0.66446 0.90803 0.0
C50 C 0.06744 0.69823 0.85625 0.0
C51 C 0.15364 0.55909 0.94954 0.0
C52 C 0.10504 0.52344 0.82076 0.0
C53 C 0.02159 0.606 0.90871 0.0
O54 O 0.1796 0.61836 0.80614 0.0
O55 O 0.15982 0.67493 0.91617 0.0
O56 O 0.07511 0.67492 0.82657 0.0
O57 O 0.16266 0.54829 0.91373 0.0
O58 O 0.07504 0.54601 0.82884 0.0
O59 O 0.05196 0.60526 0.93208 0.0
O60 O 0.14164 0.53513 0.82535 0.0
O61 O 0.13844 0.5936 0.95796 0.0
O62 O 0.0254 0.6116 0.87071 0.0
O63 O 0.20465 0.62992 0.89305 0.0
O64 O 0.11894 0.60988 0.77831 0.0
O65 O 0.07243 0.68756 0.89314 0.0
Sc66 Sc 0.6039 0.8513 0.06201 0.0
Sc67 Sc 0.66865 0.90085 0.12923 0.0
Sc68 Sc 0.57583 0.86482 0.16153 0.0
O69 O 0.61642 0.87257 0.11733 0.0
C70 C 0.51858 0.87634 0.08422 0.0
C71 C 0.64988 0.93491 0.0426 0.0
C72 C 0.60086 0.95333 0.17598 0.0
C73 C 0.69501 0.827 0.07167 0.0
C74 C 0.57173 0.78149 0.12189 0.0
C75 C 0.65829 0.85901 0.21148 0.0
O76 O 0.54777 0.8832 0.06023 0.0
O77 O 0.66147 0.94092 0.07876 0.0
O78 O 0.57206 0.9287 0.16872 0.0
O79 O 0.65919 0.81832 0.06076 0.0
O80 O 0.58009 0.80083 0.15416 0.0
O81 O 0.6805 0.86286 0.18041 0.0
O82 O 0.57369 0.79761 0.08672 0.0
O83 O 0.7036 0.85818 0.09298 0.0
O84 O 0.62017 0.86344 0.20986 0.0
O85 O 0.63207 0.90243 0.03152 0.0
O86 O 0.52443 0.86505 0.12061 0.0
O87 O 0.63786 0.94553 0.16753 0.0
H88 H 0.1767 0.57777 0.02654 0.0
H89 H 0.20007 0.53076 0.0787 0.0
H90 H 0.1735 0.42968 1e-05 0.0
H91 H 0.15222 0.47673 0.94699 0.0
H92 H 0.16708 0.47172 0.12014 0.0
H93 H 0.28896 0.40714 0.02414 0.0
H94 H 0.25986 0.45049 0.00875 0.0
H95 H 0.23922 0.40018 0.00376 0.0
C96 C 0.17566 0.54551 0.02053 0.0
C97 C 0.16323 0.53084 0.98265 0.0
C98 C 0.189 0.51866 0.05028 0.0
C99 C 0.18952 0.47671 0.04287 0.0
C100 C 0.17474 0.46193 0.0059 0.0
H101 H 0.25655 0.33593 0.25871 0.0
H102 H 0.21852 0.35243 0.19731 0.0
C103 C 0.16231 0.48881 0.97579 0.0
C104 C 0.2066 0.44893 0.07365 0.0
H105 H 0.28185 0.38028 0.08974 0.0
C106 C 0.19202 0.45151 0.11349 0.0
C107 C 0.23927 0.42269 0.06484 0.0
C108 C 0.25803 0.42014 0.02317 0.0
C109 C 0.21039 0.4302 0.1452 0.0
C110 C 0.24317 0.40406 0.13645 0.0
C111 C 0.25647 0.39997 0.09626 0.0
C112 C 0.26769 0.38557 0.16907 0.0
C113 C 0.1961 0.43811 0.18797 0.0
C114 C 0.3089 0.39545 0.1718 0.0
C115 C 0.33097 0.38497 0.20611 0.0
C116 C 0.31202 0.36496 0.23863 0.0
C117 C 0.27174 0.35188 0.23432 0.0
C118 C 0.24989 0.36163 0.19947 0.0
H119 H 0.17689 0.46559 0.18996 0.0
H120 H 0.1778 0.41196 0.19865 0.0
H121 H 0.22213 0.44207 0.2088 0.0
H122 H 0.32342 0.41362 0.14858 0.0
H123 H 0.36194 0.3955 0.20842 0.0
H124 H 0.73406 0.83147 0.22975 0.0
H125 H 0.77209 0.8455 0.29172 0.0
H126 H 0.66679 0.90277 0.34341 0.0
H127 H 0.62837 0.88691 0.2829 0.0
H128 H 0.79177 0.91603 0.31402 0.0
H129 H 0.70761 0.85124 0.44219 0.0
H130 H 0.69707 0.83642 0.39066 0.0
H131 H 0.67305 0.88037 0.41258 0.0
C132 C 0.71868 0.84564 0.25503 0.0
C133 C 0.67825 0.85811 0.25146 0.0
C134 C 0.74046 0.85379 0.29037 0.0
C135 C 0.72237 0.875 0.32253 0.0
C136 C 0.68128 0.88529 0.31977 0.0
H137 H 0.81837 0.07026 0.45694 0.0
H138 H 0.79736 0.0212 0.40573 0.0
C139 C 0.65928 0.87638 0.28487 0.0
C140 C 0.7474 0.89206 0.35579 0.0
H141 H 0.7443 0.9146 0.45652 0.0
C142 C 0.78191 0.9148 0.34536 0.0
C143 C 0.73542 0.88995 0.39692 0.0
C144 C 0.70151 0.86272 0.41116 0.0
C145 C 0.80285 0.93774 0.37431 0.0
C146 C 0.78791 0.9394 0.41446 0.0
C147 C 0.7553 0.91428 0.42554 0.0
C148 C 0.80376 0.96872 0.44471 0.0
C149 C 0.8405 0.96023 0.36125 0.0
C150 C 0.81339 0.95589 0.48405 0.0
C151 C 0.82424 0.98409 0.51368 0.0
C152 C 0.82617 0.02564 0.5044 0.0
C153 C 0.81769 0.03839 0.46477 0.0
C154 C 0.80598 0.01026 0.43539 0.0
H155 H 0.85631 0.94379 0.33652 0.0
H156 H 0.83195 0.99042 0.34927 0.0
H157 H 0.8619 0.96446 0.38678 0.0
H158 H 0.81179 0.92409 0.49207 0.0
H159 H 0.83078 0.9734 0.54399 0.0
H160 H 0.22802 0.65396 0.75397 0.0
H161 H 0.26568 0.64342 0.69097 0.0
H162 H 0.16719 0.57087 0.6447 0.0
H163 H 0.12889 0.58302 0.70632 0.0
H164 H 0.29337 0.5753 0.66924 0.0
H165 H 0.19775 0.62603 0.54351 0.0
H166 H 0.18733 0.64054 0.59519 0.0
H167 H 0.16802 0.5934 0.57508 0.0
C168 C 0.21392 0.63697 0.72969 0.0
C169 C 0.17555 0.61929 0.73503 0.0
C170 C 0.23548 0.6309 0.69376 0.0
C171 C 0.21923 0.60663 0.66279 0.0
C172 C 0.18001 0.59077 0.66739 0.0
H173 H 0.32836 0.42027 0.53015 0.0
H174 H 0.30561 0.4691 0.58065 0.0
C175 C 0.15814 0.59753 0.7029 0.0
C176 C 0.24509 0.59248 0.62887 0.0
H177 H 0.24117 0.56734 0.52883 0.0
C178 C 0.28238 0.57455 0.63831 0.0
C179 C 0.23156 0.59219 0.58824 0.0
C180 C 0.19418 0.61456 0.57497 0.0
C181 C 0.30477 0.55361 0.609 0.0
C182 C 0.28867 0.54909 0.5696 0.0
C183 C 0.25313 0.56984 0.5593 0.0
C184 C 0.30615 0.52049 0.53972 0.0
C185 C 0.34506 0.536 0.62091 0.0
C186 C 0.31324 0.53278 0.49963 0.0
C187 C 0.32523 0.50462 0.47045 0.0
C188 C 0.33071 0.46369 0.48093 0.0
C189 C 0.32488 0.45167 0.52131 0.0
C190 C 0.31217 0.47969 0.55029 0.0
H191 H 0.35991 0.55495 0.64444 0.0
H192 H 0.34028 0.50542 0.63408 0.0
H193 H 0.36579 0.53343 0.59454 0.0
H194 H 0.30865 0.56401 0.4907 0.0
H195 H 0.32968 0.51479 0.43955 0.0
H196 H 0.64195 0.92926 0.96018 0.0
H197 H 0.66795 0.97653 0.90929 0.0
H198 H 0.70786 0.05746 0.00364 0.0
H199 H 0.68203 0.01055 0.05495 0.0
H200 H 0.66712 0.09311 0.92539 0.0
H201 H 0.79829 0.98982 0.9054 0.0
H202 H 0.74899 0.96655 0.905 0.0
H203 H 0.76738 0.98973 0.95058 0.0
C204 C 0.65559 0.95739 0.97021 0.0
C205 C 0.66037 0.96581 0.0117 0.0
C206 C 0.67038 0.98435 0.94108 0.0
C207 C 0.68995 0.02018 0.95291 0.0
C208 C 0.69276 0.02989 0.99408 0.0
H209 H 0.85787 0.13034 0.78364 0.0
H210 H 0.82545 0.11643 0.8487 0.0
C211 C 0.67815 0.0029 0.02329 0.0
C212 C 0.71104 0.04523 0.92244 0.0
H213 H 0.79183 0.04327 0.85841 0.0
C214 C 0.6946 0.08258 0.91089 0.0
C215 C 0.74725 0.03162 0.90439 0.0
C216 C 0.76686 0.99239 0.91704 0.0
C217 C 0.7127 0.10596 0.88015 0.0
C218 C 0.74777 0.09122 0.86052 0.0
C219 C 0.76501 0.05466 0.87351 0.0
C220 C 0.7652 0.11054 0.82391 0.0
C221 C 0.69398 0.14596 0.86882 0.0
C222 C 0.7418 0.11374 0.78869 0.0
C223 C 0.76019 0.1219 0.75146 0.0
C224 C 0.80246 0.12634 0.74869 0.0
C225 C 0.82532 0.1267 0.78457 0.0
C226 C 0.80684 0.11877 0.82184 0.0
H227 H 0.67721 0.15927 0.89478 0.0
H228 H 0.71721 0.16801 0.85839 0.0
H229 H 0.67207 0.14105 0.84386 0.0
H230 H 0.70978 0.10681 0.78935 0.0
H231 H 0.74154 0.12162 0.72453 0.0
H232 H 0.03398 0.12775 0.62263 0.0
H233 H 0.09538 0.1561 0.5926 0.0
H234 H 0.04871 0.13227 0.4731 0.0
H235 H 0.98753 0.10316 0.5026 0.0
H236 H 0.13315 0.12326 0.47898 0.0
H237 H 0.07958 0.26948 0.54282 0.0
H238 H 0.08722 0.23025 0.57967 0.0
H239 H 0.04847 0.22449 0.54202 0.0
C240 C 0.0372 0.12733 0.58997 0.0
C241 C 0.00532 0.11411 0.56502 0.0
C242 C 0.07223 0.14383 0.5729 0.0
C243 C 0.07581 0.14744 0.53072 0.0
C244 C 0.04616 0.13021 0.50576 0.0
H245 H 0.21337 0.33363 0.40425 0.0
H246 H 0.15973 0.28848 0.42889 0.0
C247 C 0.0112 0.11353 0.52276 0.0
C248 C 0.1079 0.17297 0.51267 0.0
H249 H 0.14238 0.27048 0.50853 0.0
C250 C 0.13531 0.15542 0.48544 0.0
C251 C 0.10981 0.21513 0.52044 0.0
C252 C 0.07952 0.23613 0.54751 0.0
C253 C 0.16528 0.17885 0.46634 0.0
C254 C 0.1681 0.22071 0.47527 0.0
C255 C 0.14021 0.23834 0.50194 0.0
C256 C 0.20049 0.24666 0.45828 0.0
C257 C 0.19322 0.15873 0.43634 0.0
C258 C 0.24101 0.23815 0.46689 0.0
C259 C 0.27161 0.2637 0.45288 0.0
C260 C 0.26233 0.29862 0.43024 0.0
C261 C 0.22161 0.30703 0.42153 0.0
C262 C 0.19094 0.28128 0.43556 0.0
H263 H 0.17989 0.1303 0.42414 0.0
H264 H 0.20039 0.17927 0.41064 0.0
H265 H 0.22193 0.15085 0.45172 0.0
H266 H 0.24896 0.21215 0.4852 0.0
H267 H 0.30257 0.25627 0.46038 0.0
H268 H 0.07045 0.74037 0.78575 0.0
H269 H 0.02736 0.79659 0.76565 0.0
H270 H 0.97324 0.79835 0.88461 0.0
H271 H 0.01666 0.74181 0.90529 0.0
H272 H 0.93795 0.79013 0.77038 0.0
H273 H 0.00468 0.91974 0.85614 0.0
H274 H 0.03383 0.87491 0.84506 0.0
H275 H -0.00588 0.87276 0.88202 0.0
C276 C 0.0499 0.75311 0.80792 0.0
C277 C 0.04685 0.73666 0.84705 0.0
C278 C 0.02522 0.78508 0.79633 0.0
C279 C -0.00295 0.80121 0.82358 0.0
C280 C -0.00499 0.78624 0.86329 0.0
H281 H 0.82968 0.9789 0.71263 0.0
H282 H 0.84952 0.92118 0.75521 0.0
C283 C 0.01996 0.75419 0.87507 0.0
C284 C 0.96902 0.83255 0.809 0.0
H285 H 0.95698 0.93492 0.80585 0.0
C286 C 0.94123 0.82176 0.77874 0.0
C287 C 0.97356 0.87353 0.82026 0.0
C288 C 0.00316 0.8863 0.85258 0.0
C289 C 0.91987 0.85139 0.7573 0.0
C290 C 0.92652 0.89256 0.76668 0.0
C291 C 0.95208 0.90315 0.79892 0.0
C292 C 0.91292 0.92504 0.73938 0.0
C293 C 0.89273 0.83883 0.72281 0.0
C294 C 0.94192 0.94537 0.71596 0.0
C295 C 0.93083 0.97794 0.69178 0.0
C296 C 0.89043 0.99091 0.69059 0.0
C297 C 0.86098 0.96937 0.71274 0.0
C298 C 0.87223 0.93663 0.73719 0.0
H299 H 0.8922 0.80547 0.71836 0.0
H300 H 0.86143 0.84922 0.7289 0.0
H301 H 0.90303 0.85344 0.69427 0.0
H302 H 0.97342 0.93648 0.71705 0.0
H303 H 0.95419 0.99368 0.67486 0.0
H304 H 0.18999 0.74641 0.91377 0.0
H305 H 0.24174 0.79422 0.93622 0.0
H306 H 0.32618 0.6958 0.94981 0.0
H307 H 0.27486 0.64794 0.92587 0.0
H308 H 0.27568 0.79793 0.0073 0.0
H309 H 0.3961 0.77692 0.89315 0.0
H310 H 0.3457 0.75702 0.88625 0.0
H311 H 0.38222 0.72952 0.91582 0.0
C312 C 0.2198 0.73502 0.92097 0.0
C313 C 0.22842 0.69341 0.91811 0.0
C314 C 0.24933 0.7624 0.93378 0.0
C315 C 0.288 0.74874 0.94427 0.0
C316 C 0.29691 0.70725 0.94083 0.0
H317 H 0.45385 0.83674 0.11703 0.0
H318 H 0.39367 0.81413 0.08149 0.0
C319 C 0.2675 0.67986 0.92738 0.0
C320 C 0.31785 0.77736 0.96185 0.0
H321 H 0.41663 0.80668 0.95662 0.0
C322 C 0.30634 0.80034 -0.00421 0.0
C323 C 0.35757 0.78129 0.94639 0.0
C324 C 0.37097 0.76019 0.90812 0.0
C325 C 0.33404 0.8255 0.01589 0.0
C326 C 0.37463 0.82677 0.00243 0.0
C327 C 0.38559 0.80545 0.96726 0.0
C328 C 0.40707 0.8468 0.02612 0.0
C329 C 0.31948 0.85019 0.05148 0.0
C330 C 0.43457 0.8732 0.00711 0.0
C331 C 0.46958 0.88573 0.02724 0.0
C332 C 0.47762 0.87209 0.06678 0.0
C333 C 0.4485 0.84816 0.08676 0.0
C334 C 0.41383 0.83527 0.06646 0.0
H335 H 0.28705 0.85816 0.04811 0.0
H336 H 0.32242 0.83198 0.07957 0.0
H337 H 0.33727 0.87857 0.05502 0.0
H338 H 0.42996 0.88248 0.97599 0.0
H339 H 0.49137 0.90424 0.01105 0.0
H340 H 0.46995 0.24323 0.41407 0.0
H341 H 0.51219 0.18489 0.39564 0.0
H342 H 0.45761 0.18226 0.2772 0.0
H343 H 0.41539 0.2399 0.29513 0.0
H344 H 0.48624 0.1019 0.35572 0.0
H345 H 0.58682 0.20202 0.26513 0.0
H346 H 0.55638 0.22029 0.30685 0.0
H347 H 0.53367 0.21103 0.25832 0.0
C348 C 0.46625 0.22953 0.38449 0.0
C349 C 0.43963 0.24633 0.35588 0.0
C350 C 0.49057 0.19648 0.37398 0.0
C351 C 0.48838 0.1801 0.33487 0.0
C352 C 0.46002 0.1951 0.30733 0.0
H353 H 0.52633 0.98603 0.18685 0.0
H354 H 0.50744 0.04053 0.23255 0.0
C355 C 0.43587 0.22791 0.31769 0.0
C356 C 0.51647 0.14838 0.32125 0.0
H357 H 0.58684 0.13132 0.24763 0.0
C358 C 0.50907 0.10826 0.33292 0.0
C359 C 0.5466 0.15703 0.29204 0.0
C360 C 0.55672 0.19998 0.28002 0.0
C361 C 0.52865 0.07614 0.31332 0.0
C362 C 0.55562 0.08468 0.28105 0.0
C363 C 0.5658 0.12493 0.27209 0.0
C364 C 0.56849 0.0527 0.25265 0.0
C365 C 0.51878 0.03328 0.32584 0.0
C366 C 0.60941 0.043 0.2473 0.0
C367 C 0.62051 0.01179 0.22079 0.0
C368 C 0.59073 0.99021 0.19922 0.0
C369 C 0.55002 0.00163 0.20333 0.0
C370 C 0.53907 0.03257 0.2297 0.0
H371 H 0.50883 0.0319 0.35798 0.0
H372 H 0.49366 0.02165 0.30682 0.0
H373 H 0.54524 0.01307 0.32171 0.0
H374 H 0.63254 0.05881 0.26435 0.0
H375 H 0.65211 0.00364 0.21834 0.0
H376 H 0.7969 0.24387 0.57107 0.0
H377 H 0.74617 0.29336 0.55109 0.0
H378 H 0.66026 0.19667 0.53099 0.0
H379 H 0.71062 0.147 0.55278 0.0
H380 H 0.71311 0.30239 0.48086 0.0
H381 H 0.59115 0.27435 0.59198 0.0
H382 H 0.64109 0.25338 0.59787 0.0
H383 H 0.60431 0.22851 0.56612 0.0
C384 C 0.76699 0.2332 0.56288 0.0
C385 C 0.75761 0.19161 0.56336 0.0
C386 C 0.73805 0.26153 0.55151 0.0
C387 C 0.69926 0.24885 0.53999 0.0
C388 C 0.68964 0.2073 0.54085 0.0
H389 H 0.53715 0.34665 0.37174 0.0
H390 H 0.5975 0.32402 0.40654 0.0
C391 C 0.71845 0.1789 0.55301 0.0
C392 C 0.67005 0.27883 0.52416 0.0
H393 H 0.57168 0.30836 0.53037 0.0
C394 C 0.68235 0.30417 0.49217 0.0
C395 C 0.63025 0.28201 0.5395 0.0
C396 C 0.6161 0.25841 0.57607 0.0
C397 C 0.6553 0.33097 0.47367 0.0
C398 C 0.61456 0.33146 0.48665 0.0
C399 C 0.60285 0.30777 0.52009 0.0
C400 C 0.58258 0.35268 0.46367 0.0
C401 C 0.67069 0.35816 0.44023 0.0
C402 C 0.55427 0.37705 0.48388 0.0
C403 C 0.51911 0.38946 0.46416 0.0
C404 C 0.5118 0.37775 0.42386 0.0
C405 C 0.54189 0.35643 0.4027 0.0
C406 C 0.57669 0.34358 0.42258 0.0
H407 H 0.70298 0.36619 0.44507 0.0
H408 H 0.66866 0.34183 0.41092 0.0
H409 H 0.6529 0.38653 0.43808 0.0
H410 H 0.55826 0.38448 0.51559 0.0
H411 H 0.49659 0.40606 0.48122 0.0
H412 H 0.15122 0.4859 0.76305 0.0
H413 H 0.1282 0.43281 0.71613 0.0
H414 H 0.01579 0.4234 0.78195 0.0
H415 H 0.03822 0.47631 0.82844 0.0
H416 H 0.09478 0.35006 0.7276 0.0
H417 H 0.98481 0.45901 0.66438 0.0
H418 H 0.02777 0.47465 0.69438 0.0
H419 H 0.98261 0.45599 0.71865 0.0
C420 C 0.12211 0.47161 0.76815 0.0
C421 C 0.09627 0.4854 0.7991 0.0
C422 C 0.10893 0.4416 0.74119 0.0
C423 C 0.06995 0.42517 0.74511 0.0
C424 C 0.04564 0.43649 0.778 0.0
H425 H 0.90129 0.25612 0.68579 0.0
H426 H 0.9437 0.31388 0.70448 0.0
C427 C 0.05857 0.4665 0.80465 0.0
C428 C 0.05299 0.39794 0.714 0.0
H429 H 0.97009 0.38812 0.65349 0.0
C430 C 0.06821 0.35853 0.71043 0.0
C431 C 0.01871 0.40948 0.69125 0.0
C432 C 0.00274 0.45224 0.69197 0.0
C433 C 0.04767 0.32922 0.68742 0.0
C434 C 0.01129 0.33993 0.6678 0.0
C435 C -0.00206 0.38011 0.66879 0.0
C436 C 0.98333 0.30867 0.65254 0.0
C437 C 0.06314 0.28628 0.68662 0.0
C438 C 0.99093 0.2878 0.61636 0.0
C439 C 0.96637 0.25502 0.60531 0.0
C440 C 0.93437 0.24263 0.63068 0.0
C441 C 0.92577 0.26502 0.66578 0.0
C442 C 0.94994 0.29792 0.67647 0.0
H443 H 0.09166 0.28281 0.70396 0.0
H444 H 0.04001 0.26547 0.69954 0.0
H445 H 0.06865 0.27685 0.65481 0.0
H446 H 0.0166 0.29591 0.59755 0.0
H447 H 0.9739 0.23795 0.57831 0.0
H448 H 0.00155 0.60335 0.98929 0.0
H449 H 0.94061 0.63138 0.01984 0.0
H450 H 0.88896 0.64814 0.90125 0.0
H451 H 0.9499 0.62056 0.87022 0.0
H452 H 0.89903 0.71967 0.94635 0.0
H453 H 0.82068 0.60084 0.0366 0.0
H454 H 0.87434 0.60425 0.04453 0.0
H455 H 0.85533 0.58904 -0.0041 0.0
C456 C 0.97674 0.61166 0.96966 0.0
C457 C 0.98101 0.61042 0.92722 0.0
C458 C 0.94181 0.62758 0.98726 0.0
C459 C 0.91046 0.64201 0.96276 0.0
C460 C 0.91297 0.63722 0.92062 0.0
H461 H 0.68721 0.75685 0.02855 0.0
H462 H 0.7405 0.7122 0.00464 0.0
C463 C 0.94784 0.62131 0.90297 0.0
C464 C 0.87849 0.66777 0.98035 0.0
H465 H 0.80038 0.66906 0.04798 0.0
C466 C 0.87729 0.70858 0.96842 0.0
C467 C 0.85043 0.65316 0.00921 0.0
C468 C 0.84988 0.60935 0.02216 0.0
C469 C 0.84872 0.7353 0.98461 0.0
C470 C 0.82104 0.72091 0.01398 0.0
C471 C 0.82204 0.68003 0.0258 0.0
C472 C 0.78917 0.74732 0.03078 0.0
C473 C 0.84786 0.77848 0.96954 0.0
C474 C 0.79896 0.78167 0.05392 0.0
C475 C 0.76847 0.80759 0.06763 0.0
C476 C 0.72774 0.79943 0.05845 0.0
C477 C 0.71821 0.76436 0.03603 0.0
C478 C 0.74861 0.73859 0.02243 0.0
H479 H 0.86543 0.78232 0.94106 0.0
H480 H 0.81631 0.78846 0.96412 0.0
H481 H 0.86128 0.79867 0.99283 0.0
H482 H 0.83017 0.78854 0.0611 0.0
H483 H 0.77686 0.83412 0.08505 0.0
H484 H 0.51296 0.74728 0.07489 0.0
H485 H 0.47146 0.68784 0.09233 0.0
H486 H 0.54545 0.66703 0.19761 0.0
H487 H 0.58664 0.7263 0.18075 0.0
H488 H 0.51682 0.59378 0.14272 0.0
H489 H 0.39972 0.69906 0.20342 0.0
H490 H 0.42211 0.70741 0.1542 0.0
H491 H 0.45171 0.71535 0.19891 0.0
C492 C 0.52108 0.72923 0.10102 0.0
C493 C 0.55288 0.74132 0.12662 0.0
C494 C 0.49723 0.69557 0.11103 0.0
C495 C 0.50538 0.67354 0.14635 0.0
C496 C 0.53882 0.68387 0.17025 0.0
H497 H 0.45627 0.50267 0.31936 0.0
H498 H 0.47769 0.55457 0.27128 0.0
C499 C 0.56227 0.71763 0.1606 0.0
C500 C 0.47744 0.6421 0.16129 0.0
H501 H 0.39675 0.63112 0.22501 0.0
C502 C 0.48988 0.60165 0.15975 0.0
C503 C 0.44227 0.65267 0.18323 0.0
C504 C 0.42786 0.69594 0.18526 0.0
C505 C 0.46952 0.57175 0.18202 0.0
C506 C 0.43669 0.58301 0.2071 0.0
C507 C 0.42218 0.62282 0.20598 0.0
C508 C 0.42113 0.55521 0.23849 0.0
C509 C 0.48456 0.52868 0.18014 0.0
C510 C 0.38134 0.54041 0.23739 0.0
C511 C 0.36877 0.51093 0.26527 0.0
C512 C 0.39598 0.49611 0.29439 0.0
C513 C 0.43481 0.51323 0.29699 0.0
C514 C 0.44719 0.54263 0.2694 0.0
H515 H 0.50053 0.52261 0.15113 0.0
H516 H 0.50628 0.52358 0.20518 0.0
H517 H 0.45927 0.50669 0.18349 0.0
H518 H 0.36073 0.55027 0.21395 0.0
H519 H 0.33874 0.49804 0.26245 0.0
loop_
_geom_bond_atom_site_label_1
_geom_bond_atom_site_label_2
_geom_bond_distance
_geom_bond_site_symmetry_2
_ccdc_geom_bond_type
Sc0 O3 2.025 . S
Sc0 O10 2.105 . S
Sc0 O13 2.105 . S
Sc0 O16 2.105 . S
Sc0 O19 2.105 . S
Sc1 O3 2.025 . S
Sc1 O11 2.105 . S
Sc1 O15 2.105 . S
Sc1 O17 2.105 . S
Sc1 O21 2.105 . S
Sc2 O3 2.025 . S
Sc2 O12 2.105 . S
Sc2 O14 2.105 . S
Sc2 O18 2.105 . S
Sc2 O20 2.105 . S
O3 Sc0 2.025 . S
O3 Sc1 2.025 . S
O3 Sc2 2.025 . S
C4 O10 1.268 . S
C4 O20 1.268 . S
C5 O11 1.268 . S
C5 O19 1.268 . S
C6 O12 1.268 . S
C6 O21 1.268 . S
C7 O13 1.268 . S
C7 O17 1.268 . S
C8 O14 1.268 . S
C8 O16 1.268 . S
C9 O15 1.268 . S
C9 O18 1.268 . S
O10 Sc0 2.105 . S
O10 C4 1.268 . S
O11 Sc1 2.105 . S
O11 C5 1.268 . S
O12 Sc2 2.105 . S
O12 C6 1.268 . S
O13 Sc0 2.105 . S
O13 C7 1.268 . S
O14 Sc2 2.105 . S
O14 C8 1.268 . S
O15 Sc1 2.105 . S
O15 C9 1.268 . S
O16 Sc0 2.105 . S
O16 C8 1.268 . S
O17 Sc1 2.105 . S
O17 C7 1.268 . S
O18 Sc2 2.105 . S
O18 C9 1.268 . S
O19 Sc0 2.105 . S
O19 C5 1.268 . S
O20 Sc2 2.105 . S
O20 C4 1.268 . S
O21 Sc1 2.105 . S
O21 C6 1.268 . S
Sc22 O25 2.025 . S
Sc22 O32 2.105 . S
Sc22 O35 2.105 . S
Sc22 O38 2.105 . S
Sc22 O41 2.105 . S
Sc23 O25 2.025 . S
Sc23 O33 2.105 . S
Sc23 O37 2.105 . S
Sc23 O39 2.105 . S
Sc23 O43 2.105 . S
Sc24 O25 2.025 . S
Sc24 O34 2.105 . S
Sc24 O36 2.105 . S
Sc24 O40 2.105 . S
Sc24 O42 2.105 . S
O25 Sc22 2.025 . S
O25 Sc23 2.025 . S
O25 Sc24 2.025 . S
C26 O32 1.268 . S
C26 O42 1.268 . S
C27 O33 1.268 . S
C27 O41 1.268 . S
C28 O34 1.268 . S
C28 O43 1.268 . S
C29 O35 1.268 . S
C29 O39 1.268 . S
C30 O36 1.268 . S
C30 O38 1.268 . S
C31 O37 1.268 . S
C31 O40 1.268 . S
O32 Sc22 2.105 . S
O32 C26 1.268 . S
O33 Sc23 2.105 . S
O33 C27 1.268 . S
O34 Sc24 2.105 . S
O34 C28 1.268 . S
O35 Sc22 2.105 . S
O35 C29 1.268 . S
O36 Sc24 2.105 . S
O36 C30 1.268 . S
O37 Sc23 2.105 . S
O37 C31 1.268 . S
O38 Sc22 2.105 . S
O38 C30 1.268 . S
O39 Sc23 2.105 . S
O39 C29 1.268 . S
O40 Sc24 2.105 . S
O40 C31 1.268 . S
O41 Sc22 2.105 . S
O41 C27 1.268 . S
O42 Sc24 2.105 . S
O42 C26 1.268 . S
O43 Sc23 2.105 . S
O43 C28 1.268 . S
Sc44 O47 2.025 . S
Sc44 O54 2.105 . S
Sc44 O57 2.105 . S
Sc44 O60 2.105 . S
Sc44 O63 2.105 . S
Sc45 O47 2.025 . S
Sc45 O55 2.105 . S
Sc45 O59 2.105 . S
Sc45 O61 2.105 . S
Sc45 O65 2.105 . S
Sc46 O47 2.025 . S
Sc46 O56 2.105 . S
Sc46 O58 2.105 . S
Sc46 O62 2.105 . S
Sc46 O64 2.105 . S
O47 Sc44 2.025 . S
O47 Sc45 2.025 . S
O47 Sc46 2.025 . S
C48 O54 1.268 . S
C48 O64 1.268 . S
C49 O55 1.268 . S
C49 O63 1.268 . S
C50 O56 1.268 . S
C50 O65 1.268 . S
C51 O57 1.268 . S
C51 O61 1.268 . S
C52 O58 1.268 . S
C52 O60 1.268 . S
C53 O59 1.268 . S
C53 O62 1.268 . S
O54 Sc44 2.105 . S
O54 C48 1.268 . S
O55 Sc45 2.105 . S
O55 C49 1.268 . S
O56 Sc46 2.105 . S
O56 C50 1.268 . S
O57 Sc44 2.105 . S
O57 C51 1.268 . S
O58 Sc46 2.105 . S
O58 C52 1.268 . S
O59 Sc45 2.105 . S
O59 C53 1.268 . S
O60 Sc44 2.105 . S
O60 C52 1.268 . S
O61 Sc45 2.105 . S
O61 C51 1.268 . S
O62 Sc46 2.105 . S
O62 C53 1.268 . S
O63 Sc44 2.105 . S
O63 C49 1.268 . S
O64 Sc46 2.105 . S
O64 C48 1.268 . S
O65 Sc45 2.105 . S
O65 C50 1.268 . S
Sc66 O69 2.025 . S
Sc66 O76 2.105 . S
Sc66 O79 2.105 . S
Sc66 O82 2.105 . S
Sc66 O85 2.105 . S
Sc67 O69 2.025 . S
Sc67 O77 2.105 . S
Sc67 O81 2.105 . S
Sc67 O83 2.105 . S
Sc67 O87 2.105 . S
Sc68 O69 2.025 . S
Sc68 O78 2.105 . S
Sc68 O80 2.105 . S
Sc68 O84 2.105 . S
Sc68 O86 2.105 . S
O69 Sc66 2.025 . S
O69 Sc67 2.025 . S
O69 Sc68 2.025 . S
C70 O76 1.268 . S
C70 O86 1.268 . S
C71 O77 1.268 . S
C71 O85 1.268 . S
C72 O78 1.268 . S
C72 O87 1.268 . S
C73 O79 1.268 . S
C73 O83 1.268 . S
C74 O80 1.268 . S
C74 O82 1.268 . S
C75 O81 1.268 . S
C75 O84 1.268 . S
O76 Sc66 2.105 . S
O76 C70 1.268 . S
O77 Sc67 2.105 . S
O77 C71 1.268 . S
O78 Sc68 2.105 . S
O78 C72 1.268 . S
O79 Sc66 2.105 . S
O79 C73 1.268 . S
O80 Sc68 2.105 . S
O80 C74 1.268 . S
O81 Sc67 2.105 . S
O81 C75 1.268 . S
O82 Sc66 2.105 . S
O82 C74 1.268 . S
O83 Sc67 2.105 . S
O83 C73 1.268 . S
O84 Sc68 2.105 . S
O84 C75 1.268 . S
O85 Sc66 2.105 . S
O85 C71 1.268 . S
O86 Sc68 2.105 . S
O86 C70 1.268 . S
O87 Sc67 2.105 . S
O87 C72 1.268 . S
H88 C96 0.929 . S
H89 C98 0.930 . S
H90 C100 0.930 . S
H91 C103 0.929 . S
H92 C106 0.930 . S
H93 C108 0.960 . S
H94 C108 0.960 . S
H95 C108 0.960 . S
C96 H88 0.929 . S
C96 C97 1.377 . S
C96 C98 1.384 1_556 S
C97 C96 1.377 . S
C97 C103 1.390 1_556 S
C98 H89 0.930 . S
C98 C96 1.384 1_554 S
C98 C99 1.372 . S
C99 C98 1.372 . S
C99 C100 1.400 . S
C99 C104 1.490 . S
C100 H90 0.930 . S
C100 C99 1.400 . S
C100 C103 1.386 . S
H101 C117 0.930 . S
H102 C118 0.931 . S
C103 H91 0.929 . S
C103 C97 1.390 1_554 S
C103 C100 1.386 . S
C104 C99 1.490 . S
C104 C106 1.395 . S
C104 C107 1.403 . S
H105 C111 0.930 . S
C106 H92 0.930 . S
C106 C104 1.395 . S
C106 C109 1.403 . S
C107 C104 1.403 . S
C107 C108 1.524 . S
C107 C111 1.400 . S
C108 H93 0.960 . S
C108 H94 0.960 . S
C108 H95 0.960 . S
C108 C107 1.524 . S
C109 C106 1.403 . S
C109 C110 1.392 . S
C109 C113 1.495 . S
C110 C109 1.392 . S
C110 C111 1.385 . S
C110 C112 1.478 . S
C111 H105 0.930 . S
C111 C107 1.400 . S
C111 C110 1.385 . S
C112 C110 1.478 . S
C112 C114 1.381 . S
C112 C118 1.383 . S
C113 C109 1.495 . S
C113 H119 0.959 . S
C113 H120 0.961 . S
C113 H121 0.960 . S
C114 C112 1.381 . S
C114 C115 1.394 . S
C114 H122 0.930 . S
C115 C114 1.394 . S
C115 C116 1.383 . S
C115 H123 0.929 . S
C116 C115 1.383 . S
C116 C117 1.377 . S
C117 H101 0.930 . S
C117 C116 1.377 . S
C117 C118 1.379 . S
C118 H102 0.931 . S
C118 C112 1.383 . S
C118 C117 1.379 . S
H119 C113 0.959 . S
H120 C113 0.961 . S
H121 C113 0.960 . S
H122 C114 0.930 . S
H123 C115 0.929 . S
H124 C132 0.929 . S
H125 C134 0.930 . S
H126 C136 0.930 . S
H127 C139 0.929 . S
H128 C142 0.930 . S
H129 C144 0.960 . S
H130 C144 0.960 . S
H131 C144 0.960 . S
C132 H124 0.929 . S
C132 C133 1.377 . S
C132 C134 1.384 . S
C133 C132 1.377 . S
C133 C139 1.390 . S
C134 H125 0.930 . S
C134 C132 1.384 . S
C134 C135 1.372 . S
C135 C134 1.372 . S
C135 C136 1.400 . S
C135 C140 1.490 . S
C136 H126 0.930 . S
C136 C135 1.400 . S
C136 C139 1.386 . S
H137 C153 0.930 . S
H138 C154 0.931 . S
C139 H127 0.929 . S
C139 C133 1.390 . S
C139 C136 1.386 . S
C140 C135 1.490 . S
C140 C142 1.395 . S
C140 C143 1.403 . S
H141 C147 0.930 . S
C142 H128 0.930 . S
C142 C140 1.395 . S
C142 C145 1.414 . S
C143 C140 1.403 . S
C143 C144 1.524 . S
C143 C147 1.400 . S
C144 H129 0.960 . S
C144 H130 0.960 . S
C144 H131 0.960 . S
C144 C143 1.524 . S
C145 C142 1.414 . S
C145 C146 1.389 1_565 S
C145 C149 1.489 1_565 S
C146 C145 1.389 1_545 S
C146 C147 1.385 1_545 S
C146 C148 1.478 . S
C147 H141 0.930 . S
C147 C143 1.400 . S
C147 C146 1.385 1_565 S
C148 C146 1.478 . S
C148 C150 1.381 . S
C148 C154 1.383 . S
C149 C145 1.489 1_545 S
C149 H155 0.959 . S
C149 H156 0.961 . S
C149 H157 0.960 . S
C150 C148 1.381 . S
C150 C151 1.394 . S
C150 H158 0.930 1_545 S
C151 C150 1.394 . S
C151 C152 1.383 . S
C151 H159 0.929 . S
C152 C151 1.383 . S
C152 C153 1.377 . S
C153 H137 0.930 . S
C153 C152 1.377 . S
C153 C154 1.379 . S
C154 H138 0.931 . S
C154 C148 1.383 . S
C154 C153 1.379 . S
H155 C149 0.959 . S
H156 C149 0.961 . S
H157 C149 0.960 . S
H158 C150 0.930 1_565 S
H159 C151 0.929 . S
H160 C168 0.929 . S
H161 C170 0.930 . S
H162 C172 0.930 . S
H163 C175 0.929 . S
H164 C178 0.930 . S
H165 C180 0.960 . S
H166 C180 0.960 . S
H167 C180 0.960 . S
C168 H160 0.929 . S
C168 C169 1.377 . S
C168 C170 1.384 . S
C169 C168 1.377 . S
C169 C175 1.390 . S
C170 H161 0.930 . S
C170 C168 1.384 . S
C170 C171 1.372 . S
C171 C170 1.372 . S
C171 C172 1.400 . S
C171 C176 1.490 . S
C172 H162 0.930 . S
C172 C171 1.400 . S
C172 C175 1.386 . S
H173 C189 0.930 . S
H174 C190 0.931 . S
C175 H163 0.929 . S
C175 C169 1.390 . S
C175 C172 1.386 . S
C176 C171 1.490 . S
C176 C178 1.395 . S
C176 C179 1.403 . S
H177 C183 0.930 . S
C178 H164 0.930 . S
C178 C176 1.395 . S
C178 C181 1.403 . S
C179 C176 1.403 . S
C179 C180 1.524 . S
C179 C183 1.400 . S
C180 H165 0.960 . S
C180 H166 0.960 . S
C180 H167 0.960 . S
C180 C179 1.524 . S
C181 C178 1.403 . S
C181 C182 1.392 . S
C181 C185 1.495 . S
C182 C181 1.392 . S
C182 C183 1.385 . S
C182 C184 1.478 . S
C183 H177 0.930 . S
C183 C179 1.400 . S
C183 C182 1.385 . S
C184 C182 1.478 . S
C184 C186 1.381 . S
C184 C190 1.383 . S
C185 C181 1.495 . S
C185 H191 0.959 . S
C185 H192 0.961 . S
C185 H193 0.960 . S
C186 C184 1.381 . S
C186 C187 1.394 . S
C186 H194 0.930 . S
C187 C186 1.394 . S
C187 C188 1.383 . S
C187 H195 0.929 . S
C188 C187 1.383 . S
C188 C189 1.377 . S
C189 H173 0.930 . S
C189 C188 1.377 . S
C189 C190 1.379 . S
C190 H174 0.931 . S
C190 C184 1.383 . S
C190 C189 1.379 . S
H191 C185 0.959 . S
H192 C185 0.961 . S
H193 C185 0.960 . S
H194 C186 0.930 . S
H195 C187 0.929 . S
H196 C204 0.929 . S
H197 C206 0.930 . S
H198 C208 0.930 1_545 S
H199 C211 0.929 . S
H200 C214 0.930 . S
H201 C216 0.960 . S
H202 C216 0.960 . S
H203 C216 0.960 . S
C204 H196 0.929 . S
C204 C205 1.355 1_556 S
C204 C206 1.384 . S
C205 C204 1.355 1_554 S
C205 C211 1.395 . S
C206 H197 0.930 . S
C206 C204 1.384 . S
C206 C207 1.372 . S
C207 C206 1.372 . S
C207 C208 1.400 . S
C207 C212 1.490 . S
C208 H198 0.930 1_565 S
C208 C207 1.400 . S
C208 C211 1.386 1_556 S
H209 C225 0.930 . S
H210 C226 0.931 . S
C211 H199 0.929 . S
C211 C205 1.395 . S
C211 C208 1.386 1_554 S
C212 C207 1.490 . S
C212 C214 1.395 1_565 S
C212 C215 1.403 . S
H213 C219 0.930 . S
C214 H200 0.930 . S
C214 C212 1.395 1_545 S
C214 C217 1.403 . S
C215 C212 1.403 . S
C215 C216 1.524 . S
C215 C219 1.400 1_565 S
C216 H201 0.960 . S
C216 H202 0.960 . S
C216 H203 0.960 . S
C216 C215 1.524 . S
C217 C214 1.403 . S
C217 C218 1.392 . S
C217 C221 1.495 . S
C218 C217 1.392 . S
C218 C219 1.385 . S
C218 C220 1.478 . S
C219 H213 0.930 . S
C219 C215 1.400 1_545 S
C219 C218 1.385 . S
C220 C218 1.478 . S
C220 C222 1.381 . S
C220 C226 1.383 . S
C221 C217 1.495 . S
C221 H227 0.959 . S
C221 H228 0.961 . S
C221 H229 0.960 . S
C222 C220 1.381 . S
C222 C223 1.394 . S
C222 H230 0.930 . S
C223 C222 1.394 . S
C223 C224 1.383 . S
C223 H231 0.929 . S
C224 C223 1.383 . S
C224 C225 1.377 . S
C225 H209 0.930 . S
C225 C224 1.377 . S
C225 C226 1.379 . S
C226 H210 0.931 . S
C226 C220 1.383 . S
C226 C225 1.379 . S
H227 C221 0.959 . S
H228 C221 0.961 . S
H229 C221 0.960 . S
H230 C222 0.930 . S
H231 C223 0.929 . S
H232 C240 0.929 . S
H233 C242 0.930 . S
H234 C244 0.930 . S
H235 C247 0.929 . S
H236 C250 0.930 . S
H237 C252 0.960 . S
H238 C252 0.960 . S
H239 C252 0.960 . S
C240 H232 0.929 . S
C240 C241 1.355 1_455 S
C240 C242 1.384 . S
C241 C240 1.355 1_655 S
C241 C247 1.395 . S
C242 H233 0.930 . S
C242 C240 1.384 . S
C242 C243 1.372 . S
C243 C242 1.372 . S
C243 C244 1.400 . S
C243 C248 1.490 . S
C244 H234 0.930 . S
C244 C243 1.400 . S
C244 C247 1.386 1_455 S
H245 C261 0.930 . S
H246 C262 0.931 . S
C247 H235 0.929 . S
C247 C241 1.395 . S
C247 C244 1.386 1_655 S
C248 C243 1.490 . S
C248 C250 1.395 . S
C248 C251 1.403 . S
H249 C255 0.930 . S
C250 H236 0.930 . S
C250 C248 1.395 . S
C250 C253 1.403 . S
C251 C248 1.403 . S
C251 C252 1.524 . S
C251 C255 1.400 . S
C252 H237 0.960 . S
C252 H238 0.960 . S
C252 H239 0.960 . S
C252 C251 1.524 . S
C253 C250 1.403 . S
C253 C254 1.392 . S
C253 C257 1.495 . S
C254 C253 1.392 . S
C254 C255 1.385 . S
C254 C256 1.478 . S
C255 H249 0.930 . S
C255 C251 1.400 . S
C255 C254 1.385 . S
C256 C254 1.478 . S
C256 C258 1.381 . S
C256 C262 1.383 . S
C257 C253 1.495 . S
C257 H263 0.959 . S
C257 H264 0.961 . S
C257 H265 0.960 . S
C258 C256 1.381 . S
C258 C259 1.394 . S
C258 H266 0.930 . S
C259 C258 1.394 . S
C259 C260 1.383 . S
C259 H267 0.929 . S
C260 C259 1.383 . S
C260 C261 1.377 . S
C261 H245 0.930 . S
C261 C260 1.377 . S
C261 C262 1.379 . S
C262 H246 0.931 . S
C262 C256 1.383 . S
C262 C261 1.379 . S
H263 C257 0.959 . S
H264 C257 0.961 . S
H265 C257 0.960 . S
H266 C258 0.930 . S
H267 C259 0.929 . S
H268 C276 0.929 . S
H269 C278 0.930 . S
H270 C280 0.930 . S
H271 C283 0.929 . S
H272 C286 0.930 . S
H273 C288 0.960 . S
H274 C288 0.960 . S
H275 C288 0.960 . S
C276 H268 0.929 . S
C276 C277 1.377 . S
C276 C278 1.384 . S
C277 C276 1.377 . S
C277 C283 1.390 . S
C278 H269 0.930 . S
C278 C276 1.384 . S
C278 C279 1.372 . S
C279 C278 1.372 . S
C279 C280 1.400 . S
C279 C284 1.490 . S
C280 H270 0.930 . S
C280 C279 1.400 . S
C280 C283 1.386 . S
H281 C297 0.942 . S
H282 C298 0.931 . S
C283 H271 0.929 . S
C283 C277 1.390 . S
C283 C280 1.386 . S
C284 C279 1.490 . S
C284 C286 1.395 1_455 S
C284 C287 1.403 . S
H285 C291 0.930 . S
C286 H272 0.930 . S
C286 C284 1.395 1_655 S
C286 C289 1.403 . S
C287 C284 1.403 . S
C287 C288 1.524 . S
C287 C291 1.400 . S
C288 H273 0.960 . S
C288 H274 0.960 . S
C288 H275 0.960 . S
C288 C287 1.524 . S
C289 C286 1.403 . S
C289 C290 1.392 . S
C289 C293 1.495 . S
C290 C289 1.392 . S
C290 C291 1.385 1_655 S
C290 C292 1.478 . S
C291 H285 0.930 . S
C291 C287 1.400 . S
C291 C290 1.385 1_455 S
C292 C290 1.478 . S
C292 C294 1.381 . S
C292 C298 1.383 . S
C293 C289 1.495 . S
C293 H299 0.959 . S
C293 H300 0.961 . S
C293 H301 0.960 . S
C294 C292 1.381 . S
C294 C295 1.394 . S
C294 H302 0.930 . S
C295 C294 1.394 . S
C295 C296 1.398 . S
C295 H303 0.929 . S
C296 C295 1.398 . S
C296 C297 1.376 1_565 S
C297 H281 0.942 . S
C297 C296 1.376 1_545 S
C297 C298 1.368 1_545 S
C298 H282 0.931 . S
C298 C292 1.383 . S
C298 C297 1.368 1_565 S
H299 C293 0.959 . S
H300 C293 0.961 . S
H301 C293 0.960 . S
H302 C294 0.930 . S
H303 C295 0.929 . S
H304 C312 0.929 . S
H305 C314 0.930 . S
H306 C316 0.930 . S
H307 C319 0.929 . S
H308 C322 0.930 . S
H309 C324 0.960 1_554 S
H310 C324 0.960 . S
H311 C324 0.960 . S
C312 H304 0.929 . S
C312 C313 1.377 . S
C312 C314 1.384 . S
C313 C312 1.377 . S
C313 C319 1.390 . S
C314 H305 0.930 . S
C314 C312 1.384 . S
C314 C315 1.372 . S
C315 C314 1.372 . S
C315 C316 1.400 . S
C315 C320 1.490 . S
C316 H306 0.930 . S
C316 C315 1.400 . S
C316 C319 1.386 . S
H317 C333 0.930 . S
H318 C334 0.931 . S
C319 H307 0.929 . S
C319 C313 1.390 . S
C319 C316 1.386 . S
C320 C315 1.490 . S
C320 C322 1.395 . S
C320 C323 1.403 . S
H321 C327 0.930 . S
C322 H308 0.930 . S
C322 C320 1.395 . S
C322 C325 1.403 . S
C323 C320 1.403 . S
C323 C324 1.524 . S
C323 C327 1.400 1_556 S
C324 H309 0.960 1_556 S
C324 H310 0.960 . S
C324 H311 0.960 . S
C324 C323 1.524 . S
C325 C322 1.403 . S
C325 C326 1.392 1_556 S
C325 C329 1.495 . S
C326 C325 1.392 1_554 S
C326 C327 1.385 . S
C326 C328 1.478 . S
C327 H321 0.930 . S
C327 C323 1.400 1_554 S
C327 C326 1.385 . S
C328 C326 1.478 . S
C328 C330 1.381 . S
C328 C334 1.383 . S
C329 C325 1.495 . S
C329 H335 0.959 . S
C329 H336 0.961 1_556 S
C329 H337 0.960 . S
C330 C328 1.381 . S
C330 C331 1.394 . S
C330 H338 0.930 1_554 S
C331 C330 1.394 . S
C331 C332 1.383 . S
C331 H339 0.929 . S
C332 C331 1.383 . S
C332 C333 1.377 . S
C333 H317 0.930 . S
C333 C332 1.377 . S
C333 C334 1.379 . S
C334 H318 0.931 . S
C334 C328 1.383 . S
C334 C333 1.379 . S
H335 C329 0.959 . S
H336 C329 0.961 1_554 S
H337 C329 0.960 . S
H338 C330 0.930 1_556 S
H339 C331 0.929 . S
H340 C348 0.929 . S
H341 C350 0.930 . S
H342 C352 0.930 . S
H343 C355 0.929 . S
H344 C358 0.930 . S
H345 C360 0.960 . S
H346 C360 0.960 . S
H347 C360 0.960 . S
C348 H340 0.929 . S
C348 C349 1.377 . S
C348 C350 1.384 . S
C349 C348 1.377 . S
C349 C355 1.390 . S
C350 H341 0.930 . S
C350 C348 1.384 . S
C350 C351 1.372 . S
C351 C350 1.372 . S
C351 C352 1.400 . S
C351 C356 1.490 . S
C352 H342 0.930 . S
C352 C351 1.400 . S
C352 C355 1.386 . S
H353 C369 0.930 1_565 S
H354 C370 0.931 . S
C355 H343 0.929 . S
C355 C349 1.390 . S
C355 C352 1.386 . S
C356 C351 1.490 . S
C356 C358 1.395 . S
C356 C359 1.403 . S
H357 C363 0.930 . S
C358 H344 0.930 . S
C358 C356 1.395 . S
C358 C361 1.403 . S
C359 C356 1.403 . S
C359 C360 1.524 . S
C359 C363 1.400 . S
C360 H345 0.960 . S
C360 H346 0.960 . S
C360 H347 0.960 . S
C360 C359 1.524 . S
C361 C358 1.403 . S
C361 C362 1.392 . S
C361 C365 1.495 . S
C362 C361 1.392 . S
C362 C363 1.385 . S
C362 C364 1.478 . S
C363 H357 0.930 . S
C363 C359 1.400 . S
C363 C362 1.385 . S
C364 C362 1.478 . S
C364 C366 1.381 . S
C364 C370 1.383 . S
C365 C361 1.495 . S
C365 H371 0.959 . S
C365 H372 0.961 . S
C365 H373 0.960 . S
C366 C364 1.381 . S
C366 C367 1.394 . S
C366 H374 0.930 . S
C367 C366 1.394 . S
C367 C368 1.383 1_545 S
C367 H375 0.929 . S
C368 C367 1.383 1_565 S
C368 C369 1.377 1_565 S
C369 H353 0.930 1_545 S
C369 C368 1.377 1_545 S
C369 C370 1.379 . S
C370 H354 0.931 . S
C370 C364 1.383 . S
C370 C369 1.379 . S
H371 C365 0.959 . S
H372 C365 0.961 . S
H373 C365 0.960 . S
H374 C366 0.930 . S
H375 C367 0.929 . S
H376 C384 0.929 . S
H377 C386 0.930 . S
H378 C388 0.930 . S
H379 C391 0.929 . S
H380 C394 0.930 . S
H381 C396 0.960 . S
H382 C396 0.960 . S
H383 C396 0.960 . S
C384 H376 0.929 . S
C384 C385 1.377 . S
C384 C386 1.384 . S
C385 C384 1.377 . S
C385 C391 1.390 . S
C386 H377 0.930 . S
C386 C384 1.384 . S
C386 C387 1.372 . S
C387 C386 1.372 . S
C387 C388 1.400 . S
C387 C392 1.490 . S
C388 H378 0.930 . S
C388 C387 1.400 . S
C388 C391 1.386 . S
H389 C405 0.930 . S
H390 C406 0.931 . S
C391 H379 0.929 . S
C391 C385 1.390 . S
C391 C388 1.386 . S
C392 C387 1.490 . S
C392 C394 1.395 . S
C392 C395 1.403 . S
H393 C399 0.930 . S
C394 H380 0.930 . S
C394 C392 1.395 . S
C394 C397 1.403 . S
C395 C392 1.403 . S
C395 C396 1.524 . S
C395 C399 1.400 . S
C396 H381 0.960 . S
C396 H382 0.960 . S
C396 H383 0.960 . S
C396 C395 1.524 . S
C397 C394 1.403 . S
C397 C398 1.392 . S
C397 C401 1.495 . S
C398 C397 1.392 . S
C398 C399 1.385 . S
C398 C400 1.478 . S
C399 H393 0.930 . S
C399 C395 1.400 . S
C399 C398 1.385 . S
C400 C398 1.478 . S
C400 C402 1.381 . S
C400 C406 1.383 . S
C401 C397 1.495 . S
C401 H407 0.959 . S
C401 H408 0.961 . S
C401 H409 0.960 . S
C402 C400 1.381 . S
C402 C403 1.394 . S
C402 H410 0.930 . S
C403 C402 1.394 . S
C403 C404 1.383 . S
C403 H411 0.929 . S
C404 C403 1.383 . S
C404 C405 1.377 . S
C405 H389 0.930 . S
C405 C404 1.377 . S
C405 C406 1.379 . S
C406 H390 0.931 . S
C406 C400 1.383 . S
C406 C405 1.379 . S
H407 C401 0.959 . S
H408 C401 0.961 . S
H409 C401 0.960 . S
H410 C402 0.930 . S
H411 C403 0.929 . S
H412 C420 0.929 . S
H413 C422 0.930 . S
H414 C424 0.930 1_655 S
H415 C427 0.929 . S
H416 C430 0.930 . S
H417 C432 0.960 . S
H418 C432 0.960 . S
H419 C432 0.960 . S
C420 H412 0.929 . S
C420 C421 1.377 . S
C420 C422 1.384 . S
C421 C420 1.377 . S
C421 C427 1.390 . S
C422 H413 0.930 . S
C422 C420 1.384 . S
C422 C423 1.372 . S
C423 C422 1.372 . S
C423 C424 1.400 . S
C423 C428 1.490 . S
C424 H414 0.930 1_455 S
C424 C423 1.400 . S
C424 C427 1.386 . S
H425 C441 0.930 . S
H426 C442 0.931 . S
C427 H415 0.929 . S
C427 C421 1.390 . S
C427 C424 1.386 . S
C428 C423 1.490 . S
C428 C430 1.395 . S
C428 C431 1.403 1_455 S
H429 C435 0.930 . S
C430 H416 0.930 . S
C430 C428 1.395 . S
C430 C433 1.403 . S
C431 C428 1.403 1_655 S
C431 C432 1.524 . S
C431 C435 1.400 . S
C432 H417 0.960 . S
C432 H418 0.960 . S
C432 H419 0.960 . S
C432 C431 1.524 . S
C433 C430 1.403 . S
C433 C434 1.392 1_455 S
C433 C437 1.495 . S
C434 C433 1.392 1_655 S
C434 C435 1.385 . S
C434 C436 1.478 . S
C435 H429 0.930 . S
C435 C431 1.400 . S
C435 C434 1.385 . S
C436 C434 1.478 . S
C436 C438 1.381 . S
C436 C442 1.383 . S
C437 C433 1.495 . S
C437 H443 0.959 . S
C437 H444 0.961 . S
C437 H445 0.960 . S
C438 C436 1.381 . S
C438 C439 1.394 . S
C438 H446 0.930 . S
C439 C438 1.394 . S
C439 C440 1.383 . S
C439 H447 0.929 . S
C440 C439 1.383 . S
C440 C441 1.377 . S
C441 H425 0.930 . S
C441 C440 1.377 . S
C441 C442 1.379 . S
C442 H426 0.931 . S
C442 C436 1.383 . S
C442 C441 1.379 . S
H443 C437 0.959 . S
H444 C437 0.961 . S
H445 C437 0.960 . S
H446 C438 0.930 . S
H447 C439 0.929 . S
H448 C456 0.929 . S
H449 C458 0.930 1_554 S
H450 C460 0.930 . S
H451 C463 0.929 . S
H452 C466 0.930 . S
H453 C468 0.960 . S
H454 C468 0.960 . S
H455 C468 0.960 1_556 S
C456 H448 0.929 . S
C456 C457 1.377 . S
C456 C458 1.384 1_455 S
C457 C456 1.377 . S
C457 C463 1.390 1_455 S
C458 H449 0.930 1_556 S
C458 C456 1.384 1_655 S
C458 C459 1.372 . S
C459 C458 1.372 . S
C459 C460 1.400 . S
C459 C464 1.490 . S
C460 H450 0.930 . S
C460 C459 1.400 . S
C460 C463 1.386 . S
H461 C477 0.930 . S
H462 C478 0.931 . S
C463 H451 0.929 . S
C463 C457 1.390 1_655 S
C463 C460 1.386 . S
C464 C459 1.490 . S
C464 C466 1.395 . S
C464 C467 1.403 1_556 S
H465 C471 0.930 . S
C466 H452 0.930 . S
C466 C464 1.395 . S
C466 C469 1.403 1_556 S
C467 C464 1.403 1_554 S
C467 C468 1.524 . S
C467 C471 1.400 . S
C468 H453 0.960 . S
C468 H454 0.960 . S
C468 H455 0.960 1_554 S
C468 C467 1.524 . S
C469 C466 1.403 1_554 S
C469 C470 1.392 . S
C469 C473 1.495 . S
C470 C469 1.392 . S
C470 C471 1.385 . S
C470 C472 1.478 . S
C471 H465 0.930 . S
C471 C467 1.400 . S
C471 C470 1.385 . S
C472 C470 1.478 . S
C472 C474 1.381 . S
C472 C478 1.383 . S
C473 C469 1.495 . S
C473 H479 0.959 . S
C473 H480 0.961 . S
C473 H481 0.960 . S
C474 C472 1.381 . S
C474 C475 1.394 . S
C474 H482 0.930 . S
C475 C474 1.394 . S
C475 C476 1.383 . S
C475 H483 0.929 . S
C476 C475 1.383 . S
C476 C477 1.377 . S
C477 H461 0.930 . S
C477 C476 1.377 . S
C477 C478 1.379 . S
C478 H462 0.931 . S
C478 C472 1.383 . S
C478 C477 1.379 . S
H479 C473 0.959 . S
H480 C473 0.961 . S
H481 C473 0.960 . S
H482 C474 0.930 . S
H483 C475 0.929 . S
H484 C492 0.929 . S
H485 C494 0.930 . S
H486 C496 0.930 . S
H487 C499 0.929 . S
H488 C502 0.930 . S
H489 C504 0.960 . S
H490 C504 0.960 . S
H491 C504 0.960 . S
C492 H484 0.929 . S
C492 C493 1.377 . S
C492 C494 1.384 . S
C493 C492 1.377 . S
C493 C499 1.390 . S
C494 H485 0.930 . S
C494 C492 1.384 . S
C494 C495 1.372 . S
C495 C494 1.372 . S
C495 C496 1.400 . S
C495 C500 1.490 . S
C496 H486 0.930 . S
C496 C495 1.400 . S
C496 C499 1.386 . S
H497 C513 0.930 . S
H498 C514 0.931 . S
C499 H487 0.929 . S
C499 C493 1.390 . S
C499 C496 1.386 . S
C500 C495 1.490 . S
C500 C502 1.395 . S
C500 C503 1.403 . S
H501 C507 0.930 . S
C502 H488 0.930 . S
C502 C500 1.395 . S
C502 C505 1.403 . S
C503 C500 1.403 . S
C503 C504 1.524 . S
C503 C507 1.400 . S
C504 H489 0.960 . S
C504 H490 0.960 . S
C504 H491 0.960 . S
C504 C503 1.524 . S
C505 C502 1.403 . S
C505 C506 1.392 . S
C505 C509 1.495 . S
C506 C505 1.392 . S
C506 C507 1.385 . S
C506 C508 1.478 . S
C507 H501 0.930 . S
C507 C503 1.400 . S
C507 C506 1.385 . S
C508 C506 1.478 . S
C508 C510 1.381 . S
C508 C514 1.383 . S
C509 C505 1.495 . S
C509 H515 0.959 . S
C509 H516 0.961 . S
C509 H517 0.960 . S
C510 C508 1.381 . S
C510 C511 1.394 . S
C510 H518 0.930 . S
C511 C510 1.394 . S
C511 C512 1.383 . S
C511 H519 0.929 . S
C512 C511 1.383 . S
C512 C513 1.377 . S
C513 H497 0.930 . S
C513 C512 1.377 . S
C513 C514 1.379 . S
C514 H498 0.931 . S
C514 C508 1.383 . S
C514 C513 1.379 . S
H515 C509 0.959 . S
H516 C509 0.961 . S
H517 C509 0.960 . S
H518 C510 0.930 . S
H519 C511 0.929 . S
C97 C51 1.198 . S
C116 C4 1.163 . S
C133 C75 1.210 . S
C152 C31 1.235 . S
C169 C48 1.210 . S
C188 C7 1.223 . S
C205 C71 1.220 . S
C224 C27 1.214 . S
C241 C30 1.220 . S
C260 C5 1.215 . S
C277 C50 1.208 . S
C296 C29 1.193 1_565 S
C313 C49 1.209 . S
C332 C70 1.239 . S
C349 C6 1.195 . S
C368 C72 1.164 . S
C385 C28 1.210 . S
C404 C9 1.229 . S
C421 C52 1.195 . S
C440 C26 1.162 . S
C457 C53 1.206 . S
C476 C73 1.192 . S
C493 C74 1.194 . S
C512 C8 1.170 . S
