# Generated by pormake.
# Topology ulj, (4)-cn, num edge types: 1
# Building blocks:
#     Node 0, Type 0, BuildingBlock: KOZSID_clean_sbu_0, # of connection points: 4
#     Node 1, Type 0, BuildingBlock: KOZSID_clean_sbu_0, # of connection points: 4
#     Node 2, Type 0, BuildingBlock: KOZSID_clean_sbu_0, # of connection points: 4
#     Node 3, Type 0, BuildingBlock: KOZSID_clean_sbu_0, # of connection points: 4
#     Node 4, Type 0, BuildingBlock: KOZSID_clean_sbu_0, # of connection points: 4
#     Node 5, Type 0, BuildingBlock: KOZSID_clean_sbu_0, # of connection points: 4
#     Node 6, Type 0, BuildingBlock: KOZSID_clean_sbu_0, # of connection points: 4
#     Node 7, Type 0, BuildingBlock: KOZSID_clean_sbu_0, # of connection points: 4
#     Node 8, Type 0, BuildingBlock: KOZSID_clean_sbu_0, # of connection points: 4
#     Node 9, Type 0, BuildingBlock: KOZSID_clean_sbu_0, # of connection points: 4
#     Node 10, Type 0, BuildingBlock: KOZSID_clean_sbu_0, # of connection points: 4
#     Node 11, Type 0, BuildingBlock: KOZSID_clean_sbu_0, # of connection points: 4
#     Node 12, Type 0, BuildingBlock: KOZSID_clean_sbu_0, # of connection points: 4
#     Node 13, Type 0, BuildingBlock: KOZSID_clean_sbu_0, # of connection points: 4
#     Node 14, Type 0, BuildingBlock: KOZSID_clean_sbu_0, # of connection points: 4
#     Node 15, Type 0, BuildingBlock: KOZSID_clean_sbu_0, # of connection points: 4
#     Node 16, Type 0, BuildingBlock: KOZSID_clean_sbu_0, # of connection points: 4
#     Node 17, Type 0, BuildingBlock: KOZSID_clean_sbu_0, # of connection points: 4
#     Node 18, Type 0, BuildingBlock: KOZSID_clean_sbu_0, # of connection points: 4
#     Node 19, Type 0, BuildingBlock: KOZSID_clean_sbu_0, # of connection points: 4
#     Node 20, Type 0, BuildingBlock: KOZSID_clean_sbu_0, # of connection points: 4
#     Node 21, Type 0, BuildingBlock: KOZSID_clean_sbu_0, # of connection points: 4
#     Node 22, Type 0, BuildingBlock: KOZSID_clean_sbu_0, # of connection points: 4
#     Node 23, Type 0, BuildingBlock: KOZSID_clean_sbu_0, # of connection points: 4
#     Node 24, Type 0, BuildingBlock: KOZSID_clean_sbu_0, # of connection points: 4
#     Node 25, Type 0, BuildingBlock: KOZSID_clean_sbu_0, # of connection points: 4
#     Node 26, Type 0, BuildingBlock: KOZSID_clean_sbu_0, # of connection points: 4
#     Node 27, Type 0, BuildingBlock: KOZSID_clean_sbu_0, # of connection points: 4
#     Node 28, Type 0, BuildingBlock: KOZSID_clean_sbu_0, # of connection points: 4
#     Node 29, Type 0, BuildingBlock: KOZSID_clean_sbu_0, # of connection points: 4
#     Node 30, Type 0, BuildingBlock: KOZSID_clean_sbu_0, # of connection points: 4
#     Node 31, Type 0, BuildingBlock: KOZSID_clean_sbu_0, # of connection points: 4
#     Node 32, Type 0, BuildingBlock: KOZSID_clean_sbu_0, # of connection points: 4
#     Node 33, Type 0, BuildingBlock: KOZSID_clean_sbu_0, # of connection points: 4
#     Node 34, Type 0, BuildingBlock: KOZSID_clean_sbu_0, # of connection points: 4
#     Node 35, Type 0, BuildingBlock: KOZSID_clean_sbu_0, # of connection points: 4
#     Node 36, Type 0, BuildingBlock: KOZSID_clean_sbu_0, # of connection points: 4
#     Node 37, Type 0, BuildingBlock: KOZSID_clean_sbu_0, # of connection points: 4
#     Node 38, Type 0, BuildingBlock: KOZSID_clean_sbu_0, # of connection points: 4
#     Node 39, Type 0, BuildingBlock: KOZSID_clean_sbu_0, # of connection points: 4
#     Node 40, Type 0, BuildingBlock: KOZSID_clean_sbu_0, # of connection points: 4
#     Node 41, Type 0, BuildingBlock: KOZSID_clean_sbu_0, # of connection points: 4
#     Node 42, Type 0, BuildingBlock: KOZSID_clean_sbu_0, # of connection points: 4
#     Node 43, Type 0, BuildingBlock: KOZSID_clean_sbu_0, # of connection points: 4
#     Node 44, Type 0, BuildingBlock: KOZSID_clean_sbu_0, # of connection points: 4
#     Node 45, Type 0, BuildingBlock: KOZSID_clean_sbu_0, # of connection points: 4
#     Node 46, Type 0, BuildingBlock: KOZSID_clean_sbu_0, # of connection points: 4
#     Node 47, Type 0, BuildingBlock: KOZSID_clean_sbu_0, # of connection points: 4
#     Edge 48, Type (0, 0), None
#     Edge 49, Type (0, 0), None
#     Edge 50, Type (0, 0), None
#     Edge 51, Type (0, 0), None
#     Edge 52, Type (0, 0), None
#     Edge 53, Type (0, 0), None
#     Edge 54, Type (0, 0), None
#     Edge 55, Type (0, 0), None
#     Edge 56, Type (0, 0), None
#     Edge 57, Type (0, 0), None
#     Edge 58, Type (0, 0), None
#     Edge 59, Type (0, 0), None
#     Edge 60, Type (0, 0), None
#     Edge 61, Type (0, 0), None
#     Edge 62, Type (0, 0), None
#     Edge 63, Type (0, 0), None
#     Edge 64, Type (0, 0), None
#     Edge 65, Type (0, 0), None
#     Edge 66, Type (0, 0), None
#     Edge 67, Type (0, 0), None
#     Edge 68, Type (0, 0), None
#     Edge 69, Type (0, 0), None
#     Edge 70, Type (0, 0), None
#     Edge 71, Type (0, 0), None
#     Edge 72, Type (0, 0), None
#     Edge 73, Type (0, 0), None
#     Edge 74, Type (0, 0), None
#     Edge 75, Type (0, 0), None
#     Edge 76, Type (0, 0), None
#     Edge 77, Type (0, 0), None
#     Edge 78, Type (0, 0), None
#     Edge 79, Type (0, 0), None
#     Edge 80, Type (0, 0), None
#     Edge 81, Type (0, 0), None
#     Edge 82, Type (0, 0), None
#     Edge 83, Type (0, 0), None
#     Edge 84, Type (0, 0), None
#     Edge 85, Type (0, 0), None
#     Edge 86, Type (0, 0), None
#     Edge 87, Type (0, 0), None
#     Edge 88, Type (0, 0), None
#     Edge 89, Type (0, 0), None
#     Edge 90, Type (0, 0), None
#     Edge 91, Type (0, 0), None
#     Edge 92, Type (0, 0), None
#     Edge 93, Type (0, 0), None
#     Edge 94, Type (0, 0), None
#     Edge 95, Type (0, 0), None
#     Edge 96, Type (0, 0), None
#     Edge 97, Type (0, 0), None
#     Edge 98, Type (0, 0), None
#     Edge 99, Type (0, 0), None
#     Edge 100, Type (0, 0), None
#     Edge 101, Type (0, 0), None
#     Edge 102, Type (0, 0), None
#     Edge 103, Type (0, 0), None
#     Edge 104, Type (0, 0), None
#     Edge 105, Type (0, 0), None
#     Edge 106, Type (0, 0), None
#     Edge 107, Type (0, 0), None
#     Edge 108, Type (0, 0), None
#     Edge 109, Type (0, 0), None
#     Edge 110, Type (0, 0), None
#     Edge 111, Type (0, 0), None
#     Edge 112, Type (0, 0), None
#     Edge 113, Type (0, 0), None
#     Edge 114, Type (0, 0), None
#     Edge 115, Type (0, 0), None
#     Edge 116, Type (0, 0), None
#     Edge 117, Type (0, 0), None
#     Edge 118, Type (0, 0), None
#     Edge 119, Type (0, 0), None
#     Edge 120, Type (0, 0), None
#     Edge 121, Type (0, 0), None
#     Edge 122, Type (0, 0), None
#     Edge 123, Type (0, 0), None
#     Edge 124, Type (0, 0), None
#     Edge 125, Type (0, 0), None
#     Edge 126, Type (0, 0), None
#     Edge 127, Type (0, 0), None
#     Edge 128, Type (0, 0), None
#     Edge 129, Type (0, 0), None
#     Edge 130, Type (0, 0), None
#     Edge 131, Type (0, 0), None
#     Edge 132, Type (0, 0), None
#     Edge 133, Type (0, 0), None
#     Edge 134, Type (0, 0), None
#     Edge 135, Type (0, 0), None
#     Edge 136, Type (0, 0), None
#     Edge 137, Type (0, 0), None
#     Edge 138, Type (0, 0), None
#     Edge 139, Type (0, 0), None
#     Edge 140, Type (0, 0), None
#     Edge 141, Type (0, 0), None
#     Edge 142, Type (0, 0), None
#     Edge 143, Type (0, 0), None
# Relax obj value: 0.027
# Max RMSD: 0.196
# Mean RMSD: 0.196
data_MOF--net-ulj--node1-KOZSID_clean_sbu_0--edge1-none
_symmetry_space_group_name_H-M    P1
_symmetry_Int_Tables_number       1
_symmetry_cell_setting            triclinic
loop_
_symmetry_equiv_pos_as_xyz
'x, y, z'
_cell_length_a     42.618157
_cell_length_b     42.618045
_cell_length_c     42.61672
_cell_angle_alpha  89.99977
_cell_angle_beta   89.999697
_cell_angle_gamma 89.99988
loop_
_atom_site_label
_atom_site_type_symbol
_atom_site_fract_x
_atom_site_fract_y
_atom_site_fract_z
_atom_type_partial_charge
C0 C 0.15744 0.29267 0.2648 0.0
C1 C 0.14172 0.29283 0.23623 0.0
C2 C 0.11558 0.27464 0.24007 0.0
C3 C 0.11657 0.26492 0.27073 0.0
N4 N 0.14144 0.27616 0.28662 0.0
Co5 Co 0.14932 0.27113 0.33233 0.0
N6 N 0.11969 0.23494 0.3349 0.0
C7 C 0.10096 0.22445 0.31168 0.0
C8 C 0.08453 0.1979 0.31941 0.0
C9 C 0.09279 0.19156 0.34971 0.0
C10 C 0.11337 0.21511 0.35902 0.0
N11 N 0.15433 0.26798 0.37887 0.0
C12 C 0.14072 0.24824 0.40002 0.0
C13 C 0.14758 0.25721 0.43054 0.0
C14 C 0.16588 0.28357 0.42852 0.0
C15 C 0.16899 0.28938 0.39698 0.0
N16 N 0.18091 0.30535 0.32841 0.0
C17 C 0.19481 0.32053 0.35229 0.0
C18 C 0.21926 0.33916 0.34267 0.0
C19 C 0.22094 0.33536 0.31071 0.0
C20 C 0.19692 0.31498 0.30238 0.0
N21 N 0.1152 0.30182 0.34075 0.0
C22 C 0.07891 0.3475 0.37168 0.0
C23 C 0.10189 0.35633 0.34995 0.0
C24 C 0.1192 0.33309 0.33406 0.0
C25 C 0.07163 0.3156 0.37422 0.0
C26 C 0.08998 0.29329 0.35877 0.0
N27 N 0.18479 0.24151 0.32499 0.0
C28 C 0.23464 0.22 0.3424 0.0
C29 C 0.24133 0.20866 0.31244 0.0
C30 C 0.21832 0.21289 0.28915 0.0
C31 C 0.19001 0.22832 0.29611 0.0
C32 C 0.20707 0.23699 0.3479 0.0
H33 H 0.17276 0.22974 0.27773 0.0
H34 H 0.20466 0.24653 0.371 0.0
H35 H 0.13724 0.34072 0.31806 0.0
H36 H 0.08485 0.26925 0.36369 0.0
C37 C 0.09898 0.24039 0.2832 0.0
C38 C 0.18858 0.30611 0.26975 0.0
C39 C 0.11974 0.22202 0.39222 0.0
C40 C 0.18744 0.31291 0.38338 0.0
H41 H 0.14905 0.30383 0.21455 0.0
H42 H 0.099 0.26771 0.22211 0.0
H43 H 0.06782 0.18522 0.30509 0.0
H44 H 0.08291 0.17314 0.36413 0.0
H45 H 0.13983 0.24607 0.452 0.0
H46 H 0.17577 0.29688 0.44776 0.0
H47 H 0.23511 0.35257 0.35728 0.0
H48 H 0.23837 0.34598 0.29572 0.0
H49 H 0.10775 0.38084 0.34669 0.0
H50 H 0.05358 0.30767 0.39024 0.0
H51 H 0.25034 0.2155 0.36183 0.0
H52 H 0.22186 0.20357 0.26576 0.0
C53 C 0.56506 0.59109 0.98548 0.0
C54 C 0.58541 0.56705 0.97717 0.0
C55 C 0.58912 0.56861 0.94521 0.0
C56 C 0.57046 0.59303 0.93555 0.0
N57 N 0.55536 0.60703 0.95943 0.0
Co58 Co 0.52109 0.63858 0.95549 0.0
N59 N 0.51793 0.63351 0.90894 0.0
C60 C 0.53929 0.61879 0.89085 0.0
C61 C 0.53353 0.62191 0.85931 0.0
C62 C 0.50724 0.6403 0.85726 0.0
C63 C 0.49826 0.64719 0.88777 0.0
N64 N 0.48484 0.66814 0.95289 0.0
C65 C 0.46506 0.67448 0.92873 0.0
C66 C 0.44145 0.69499 0.93802 0.0
C67 C 0.44769 0.70318 0.96837 0.0
C68 C 0.47425 0.68679 0.97613 0.0
N69 N 0.52615 0.64653 1.00119 0.0
C70 C 0.5148 0.67136 1.01707 0.0
C71 C 0.52454 0.67242 0.04773 0.0
C72 C 0.54286 0.64637 0.05157 0.0
C73 C 0.54274 0.63063 0.02302 0.0
N74 N 0.55174 0.67273 0.94702 0.0
C75 C 0.59729 0.70918 0.91609 0.0
C76 C 0.56538 0.71646 0.9137 0.0
C77 C 0.54314 0.69802 0.92914 0.0
C78 C 0.60622 0.68612 0.93769 0.0
C79 C 0.58304 0.66873 0.95359 0.0
N80 N 0.49152 0.60309 0.96291 0.0
C81 C 0.46305 0.56954 0.99885 0.0
C82 C 0.45877 0.54652 0.97561 0.0
C83 C 0.47002 0.55319 0.9456 0.0
C84 C 0.48695 0.58078 0.94002 0.0
C85 C 0.47842 0.59787 0.99183 0.0
H86 H 0.4964 0.58321 0.91689 0.0
H87 H 0.47986 0.61513 1.01019 0.0
H88 H 0.51909 0.70319 0.92436 0.0
H89 H 0.59075 0.65066 0.96952 0.0
C90 C 0.56281 0.60033 0.90446 0.0
C91 C 0.55628 0.59951 1.01811 0.0
C92 C 0.47209 0.66824 0.89554 0.0
C93 C 0.49018 0.68882 1.00461 0.0
H94 H 0.59609 0.54967 0.9922 0.0
H95 H 0.60249 0.55271 0.93061 0.0
H96 H 0.54683 0.61199 0.84008 0.0
H97 H 0.49614 0.64809 0.83579 0.0
H98 H 0.42306 0.70488 0.92358 0.0
H99 H 0.43495 0.71985 0.98269 0.0
H100 H 0.51753 0.68897 0.06568 0.0
H101 H 0.5539 0.63911 0.07325 0.0
H102 H 0.55738 0.73458 0.89779 0.0
H103 H 0.63074 0.68026 0.94084 0.0
H104 H 0.4538 0.56601 0.02227 0.0
H105 H 0.46549 0.53746 0.9262 0.0
C106 C 0.88084 0.24562 0.2648 0.0
C107 C 0.89656 0.24545 0.23623 0.0
C108 C 0.9227 0.26364 0.24006 0.0
C109 C 0.92171 0.27336 0.27073 0.0
N110 N 0.89684 0.26212 0.28662 0.0
Co111 Co 0.88896 0.26716 0.33233 0.0
N112 N 0.91859 0.30335 0.3349 0.0
C113 C 0.93732 0.31383 0.31167 0.0
C114 C 0.95375 0.34038 0.31941 0.0
C115 C 0.94549 0.34672 0.34971 0.0
C116 C 0.92491 0.32317 0.35902 0.0
N117 N 0.88395 0.2703 0.37887 0.0
C118 C 0.89756 0.29004 0.40002 0.0
C119 C 0.8907 0.28107 0.43054 0.0
C120 C 0.8724 0.25471 0.42852 0.0
C121 C 0.86929 0.24891 0.39698 0.0
N122 N 0.85737 0.23293 0.32841 0.0
C123 C 0.84347 0.21775 0.3523 0.0
C124 C 0.81902 0.19912 0.34267 0.0
C125 C 0.81734 0.20292 0.31072 0.0
C126 C 0.84136 0.2233 0.30238 0.0
N127 N 0.92308 0.23647 0.34075 0.0
C128 C 0.95937 0.19079 0.37168 0.0
C129 C 0.93639 0.18195 0.34995 0.0
C130 C 0.91908 0.20519 0.33406 0.0
C131 C 0.96665 0.22268 0.37422 0.0
C132 C 0.94829 0.24499 0.35877 0.0
N133 N 0.85349 0.29678 0.32498 0.0
C134 C 0.80363 0.31828 0.34239 0.0
C135 C 0.79695 0.32962 0.31243 0.0
C136 C 0.81995 0.32539 0.28915 0.0
C137 C 0.84827 0.30996 0.29611 0.0
C138 C 0.83121 0.30129 0.3479 0.0
H139 H 0.86552 0.30854 0.27773 0.0
H140 H 0.83361 0.29175 0.371 0.0
H141 H 0.90104 0.19756 0.31806 0.0
H142 H 0.95343 0.26903 0.36369 0.0
C143 C 0.9393 0.29789 0.2832 0.0
C144 C 0.84969 0.23217 0.26975 0.0
C145 C 0.91854 0.31626 0.39221 0.0
C146 C 0.85084 0.22537 0.38338 0.0
H147 H 0.88923 0.23445 0.21455 0.0
H148 H 0.93928 0.27057 0.22211 0.0
H149 H 0.97046 0.35306 0.30508 0.0
H150 H 0.95537 0.36515 0.36412 0.0
H151 H 0.89845 0.29221 0.45199 0.0
H152 H 0.86251 0.24141 0.44776 0.0
H153 H 0.80317 0.18571 0.35729 0.0
H154 H 0.79991 0.1923 0.29572 0.0
H155 H 0.93053 0.15744 0.34669 0.0
H156 H 0.98469 0.23062 0.39024 0.0
H157 H 0.78794 0.32278 0.36183 0.0
H158 H 0.81642 0.33472 0.26576 0.0
C159 C 0.47321 0.94719 0.98548 0.0
C160 C 0.45286 0.97123 0.97717 0.0
C161 C 0.44916 0.96967 0.94521 0.0
C162 C 0.46782 0.94526 0.93555 0.0
N163 N 0.48291 0.93125 0.95943 0.0
Co164 Co 0.51718 0.8997 0.95549 0.0
N165 N 0.52034 0.90477 0.90894 0.0
C166 C 0.49898 0.91949 0.89085 0.0
C167 C 0.50474 0.91638 0.85931 0.0
C168 C 0.53104 0.89798 0.85726 0.0
C169 C 0.54001 0.89109 0.88777 0.0
N170 N 0.55343 0.87014 0.95289 0.0
C171 C 0.57321 0.8638 0.92873 0.0
C172 C 0.59683 0.84329 0.93802 0.0
C173 C 0.59059 0.8351 0.96837 0.0
C174 C 0.56403 0.85149 0.97613 0.0
N175 N 0.51212 0.89175 1.00119 0.0
C176 C 0.52347 0.86692 1.01707 0.0
C177 C 0.51374 0.86586 0.04773 0.0
C178 C 0.49542 0.89191 0.05157 0.0
C179 C 0.49553 0.90766 0.02302 0.0
N180 N 0.48653 0.86555 0.94702 0.0
C181 C 0.44099 0.8291 0.91609 0.0
C182 C 0.47289 0.82182 0.9137 0.0
C183 C 0.49514 0.84026 0.92914 0.0
C184 C 0.43206 0.85216 0.93769 0.0
C185 C 0.45524 0.86955 0.95359 0.0
N186 N 0.54676 0.93519 0.96291 0.0
C187 C 0.57523 0.96874 0.99885 0.0
C188 C 0.5795 0.99176 0.97561 0.0
C189 C 0.56826 0.98509 0.94561 0.0
C190 C 0.55132 0.9575 0.94002 0.0
C191 C 0.55986 0.94041 0.99183 0.0
H192 H 0.54187 0.95508 0.91689 0.0
H193 H 0.55842 0.92315 1.01019 0.0
H194 H 0.51919 0.83509 0.92436 0.0
H195 H 0.44752 0.88762 0.96952 0.0
C196 C 0.47547 0.93796 0.90446 0.0
C197 C 0.482 0.93877 1.01811 0.0
C198 C 0.56618 0.87005 0.89554 0.0
C199 C 0.5481 0.84946 1.00461 0.0
H200 H 0.44219 0.98861 0.9922 0.0
H201 H 0.43578 0.98557 0.93061 0.0
H202 H 0.49145 0.92629 0.84008 0.0
H203 H 0.54213 0.89019 0.83579 0.0
H204 H 0.61522 0.8334 0.92357 0.0
H205 H 0.60333 0.81843 0.98269 0.0
H206 H 0.52074 0.84931 0.06568 0.0
H207 H 0.48437 0.89917 0.07325 0.0
H208 H 0.48089 0.8037 0.89779 0.0
H209 H 0.40754 0.85802 0.94085 0.0
H210 H 0.58448 0.97227 0.02227 0.0
H211 H 0.57278 1.00083 0.9262 0.0
C212 C 0.15744 0.74562 0.27352 0.0
C213 C 0.14172 0.74545 0.30208 0.0
C214 C 0.11558 0.76364 0.29825 0.0
C215 C 0.11657 0.77336 0.26758 0.0
N216 N 0.14144 0.76212 0.25169 0.0
Co217 Co 0.14932 0.76715 0.20598 0.0
N218 N 0.11969 0.80334 0.20342 0.0
C219 C 0.10097 0.81383 0.22664 0.0
C220 C 0.08454 0.84038 0.21891 0.0
C221 C 0.0928 0.84672 0.1886 0.0
C222 C 0.11338 0.82317 0.17929 0.0
N223 N 0.15433 0.7703 0.15944 0.0
C224 C 0.14072 0.79004 0.1383 0.0
C225 C 0.14758 0.78107 0.10778 0.0
C226 C 0.16588 0.75471 0.1098 0.0
C227 C 0.16899 0.7489 0.14133 0.0
N228 N 0.18091 0.73293 0.20991 0.0
C229 C 0.19481 0.71775 0.18602 0.0
C230 C 0.21925 0.69912 0.19564 0.0
C231 C 0.22094 0.70292 0.2276 0.0
C232 C 0.19692 0.7233 0.23593 0.0
N233 N 0.1152 0.73646 0.19756 0.0
C234 C 0.0789 0.69078 0.16663 0.0
C235 C 0.10189 0.68195 0.18837 0.0
C236 C 0.1192 0.70519 0.20425 0.0
C237 C 0.07163 0.72268 0.1641 0.0
C238 C 0.08998 0.74499 0.17954 0.0
N239 N 0.18479 0.79677 0.21333 0.0
C240 C 0.23465 0.81828 0.19592 0.0
C241 C 0.24133 0.82962 0.22588 0.0
C242 C 0.21833 0.82539 0.24916 0.0
C243 C 0.19001 0.80996 0.2422 0.0
C244 C 0.20707 0.80129 0.19041 0.0
H245 H 0.17276 0.80854 0.26058 0.0
H246 H 0.20467 0.79175 0.16731 0.0
H247 H 0.13724 0.69756 0.22026 0.0
H248 H 0.08485 0.76903 0.17462 0.0
C249 C 0.09898 0.79789 0.25511 0.0
C250 C 0.18859 0.73217 0.26856 0.0
C251 C 0.11974 0.81626 0.1461 0.0
C252 C 0.18744 0.72537 0.15493 0.0
H253 H 0.14905 0.73445 0.32376 0.0
H254 H 0.09901 0.77058 0.3162 0.0
H255 H 0.06782 0.85306 0.23323 0.0
H256 H 0.08291 0.86514 0.17419 0.0
H257 H 0.13982 0.79221 0.08632 0.0
H258 H 0.17577 0.7414 0.09055 0.0
H259 H 0.23511 0.68571 0.18103 0.0
H260 H 0.23837 0.69229 0.24259 0.0
H261 H 0.10775 0.65744 0.19163 0.0
H262 H 0.05358 0.73061 0.14808 0.0
H263 H 0.25034 0.82278 0.17648 0.0
H264 H 0.22187 0.83471 0.27255 0.0
C265 C 0.97322 0.5911 0.05283 0.0
C266 C 0.95286 0.56705 0.06114 0.0
C267 C 0.94916 0.56862 0.0931 0.0
C268 C 0.96782 0.59303 0.10276 0.0
N269 N 0.98291 0.60703 0.07888 0.0
Co270 Co 1.01719 0.63858 0.08283 0.0
N271 N 0.02034 0.63351 0.12937 0.0
C272 C 0.99898 0.61879 0.14746 0.0
C273 C 1.00474 0.62191 0.17901 0.0
C274 C 0.03104 0.6403 0.18105 0.0
C275 C 0.04001 0.64719 0.15054 0.0
N276 N 0.05344 0.66814 0.08542 0.0
C277 C 0.07321 0.67448 0.10958 0.0
C278 C 0.09683 0.69499 0.10029 0.0
C279 C 0.09059 0.70319 0.06994 0.0
C280 C 0.06403 0.68679 0.06218 0.0
N281 N 1.01213 0.64653 0.03712 0.0
C282 C 0.02348 0.67136 0.02124 0.0
C283 C 1.01375 0.67242 0.99058 0.0
C284 C 0.99543 0.64637 0.98674 0.0
C285 C 0.99554 0.63063 1.01529 0.0
N286 N 0.98654 0.67273 0.09129 0.0
C287 C 0.94099 0.70919 0.12222 0.0
C288 C 0.9729 0.71646 0.12461 0.0
C289 C 0.99514 0.69803 0.10917 0.0
C290 C 0.93206 0.68612 0.10062 0.0
C291 C 0.95524 0.66873 0.08472 0.0
N292 N 0.04676 0.60309 0.0754 0.0
C293 C 0.07523 0.56954 0.03946 0.0
C294 C 0.0795 0.54651 0.06271 0.0
C295 C 0.06825 0.55319 0.09271 0.0
C296 C 0.05132 0.58078 0.09829 0.0
C297 C 0.05986 0.59787 0.04649 0.0
H298 H 0.04187 0.5832 0.12142 0.0
H299 H 0.05842 0.61513 0.02812 0.0
H300 H 0.01919 0.70319 0.11395 0.0
H301 H 0.94752 0.65066 0.06879 0.0
C302 C 0.97546 0.60033 0.13385 0.0
C303 C 0.982 0.59951 0.0202 0.0
C304 C 0.06618 0.66823 0.14277 0.0
C305 C 0.0481 0.68882 0.0337 0.0
H306 H 0.94219 0.54968 0.04611 0.0
H307 H 0.93578 0.55272 0.1077 0.0
H308 H 0.99144 0.61199 0.19823 0.0
H309 H 0.04213 0.64809 0.20252 0.0
H310 H 0.11522 0.70488 0.11474 0.0
H311 H 0.10333 0.71986 0.05563 0.0
H312 H 0.02075 0.68897 0.97263 0.0
H313 H 0.98438 0.63911 0.96506 0.0
H314 H 0.98089 0.73458 0.14052 0.0
H315 H 0.90754 0.68027 0.09746 0.0
H316 H 0.08448 0.56601 1.01604 0.0
H317 H 0.07278 0.53745 0.11211 0.0
C318 C 0.88084 0.79266 0.27352 0.0
C319 C 0.89655 0.79282 0.30208 0.0
C320 C 0.9227 0.77463 0.29825 0.0
C321 C 0.92171 0.76492 0.26758 0.0
N322 N 0.89683 0.77616 0.25169 0.0
Co323 Co 0.88896 0.77112 0.20598 0.0
N324 N 0.91859 0.73493 0.20342 0.0
C325 C 0.93732 0.72444 0.22664 0.0
C326 C 0.95375 0.6979 0.2189 0.0
C327 C 0.94549 0.69156 0.1886 0.0
C328 C 0.92491 0.7151 0.17929 0.0
N329 N 0.88395 0.76798 0.15944 0.0
C330 C 0.89755 0.74824 0.13829 0.0
C331 C 0.8907 0.75721 0.10777 0.0
C332 C 0.8724 0.78357 0.10979 0.0
C333 C 0.86929 0.78938 0.14133 0.0
N334 N 0.85737 0.80535 0.20991 0.0
C335 C 0.84347 0.82053 0.18602 0.0
C336 C 0.81902 0.83916 0.19565 0.0
C337 C 0.81734 0.83536 0.2276 0.0
C338 C 0.84136 0.81498 0.23593 0.0
N339 N 0.92308 0.80181 0.19756 0.0
C340 C 0.95937 0.84749 0.16663 0.0
C341 C 0.93639 0.85633 0.18837 0.0
C342 C 0.91907 0.83309 0.20425 0.0
C343 C 0.96665 0.8156 0.1641 0.0
C344 C 0.94829 0.79329 0.17954 0.0
N345 N 0.85349 0.7415 0.21332 0.0
C346 C 0.80363 0.72 0.19591 0.0
C347 C 0.79695 0.70865 0.22587 0.0
C348 C 0.81995 0.71289 0.24916 0.0
C349 C 0.84827 0.72831 0.2422 0.0
C350 C 0.8312 0.73699 0.19041 0.0
H351 H 0.86552 0.72973 0.26057 0.0
H352 H 0.83361 0.74653 0.16731 0.0
H353 H 0.90104 0.84072 0.22026 0.0
H354 H 0.95343 0.76925 0.17462 0.0
C355 C 0.9393 0.74039 0.25511 0.0
C356 C 0.84969 0.8061 0.26856 0.0
C357 C 0.91853 0.72202 0.1461 0.0
C358 C 0.85084 0.81291 0.15493 0.0
H359 H 0.88923 0.80382 0.32376 0.0
H360 H 0.93927 0.7677 0.3162 0.0
H361 H 0.97046 0.68522 0.23322 0.0
H362 H 0.95538 0.67314 0.17418 0.0
H363 H 0.89845 0.74607 0.08631 0.0
H364 H 0.86251 0.79688 0.09055 0.0
H365 H 0.80317 0.85257 0.18103 0.0
H366 H 0.79991 0.84598 0.24259 0.0
H367 H 0.93052 0.88084 0.19163 0.0
H368 H 0.98469 0.80766 0.14808 0.0
H369 H 0.78794 0.7155 0.17648 0.0
H370 H 0.81641 0.70356 0.27255 0.0
C371 C 0.06506 0.94718 0.05283 0.0
C372 C 0.08541 0.97123 0.06113 0.0
C373 C 0.08912 0.96966 0.0931 0.0
C374 C 0.07046 0.94524 0.10276 0.0
N375 N 0.05536 0.93124 0.07888 0.0
Co376 Co 0.02109 0.89969 0.08282 0.0
N377 N 1.01793 0.90476 0.12937 0.0
C378 C 0.0393 0.91948 0.14746 0.0
C379 C 0.03354 0.91637 0.179 0.0
C380 C 1.00724 0.89798 0.18105 0.0
C381 C 0.99826 0.89109 0.15054 0.0
N382 N 0.98484 0.87013 0.08542 0.0
C383 C 0.96506 0.86379 0.10958 0.0
C384 C 0.94144 0.84329 0.10029 0.0
C385 C 0.94768 0.83509 0.06994 0.0
C386 C 0.97424 0.85149 0.06218 0.0
N387 N 0.02615 0.89174 0.03712 0.0
C388 C 1.0148 0.86691 0.02124 0.0
C389 C 0.02453 0.86586 0.99058 0.0
C390 C 0.04285 0.89191 0.98674 0.0
C391 C 0.04273 0.90765 1.01529 0.0
N392 N 0.05174 0.86555 0.09128 0.0
C393 C 0.09728 0.8291 0.12222 0.0
C394 C 0.06538 0.82182 0.12461 0.0
C395 C 0.04313 0.84025 0.10917 0.0
C396 C 0.10621 0.85215 0.10061 0.0
C397 C 0.08303 0.86954 0.08471 0.0
N398 N 0.99152 0.93519 0.0754 0.0
C399 C 0.96304 0.96874 0.03946 0.0
C400 C 0.95877 0.99176 0.06271 0.0
C401 C 0.97002 0.98509 0.09271 0.0
C402 C 0.98696 0.9575 0.09829 0.0
C403 C 0.97841 0.94041 0.04649 0.0
H404 H 0.99641 0.95507 0.12142 0.0
H405 H 0.97985 0.92315 0.02812 0.0
H406 H 1.01908 0.83509 0.11395 0.0
H407 H 0.09075 0.88761 0.06878 0.0
C408 C 0.06281 0.93795 0.13385 0.0
C409 C 0.05627 0.93876 0.0202 0.0
C410 C 0.97209 0.87005 0.14277 0.0
C411 C 0.99017 0.84946 0.0337 0.0
H412 H 0.09609 0.9886 0.04611 0.0
H413 H 0.1025 0.98556 0.1077 0.0
H414 H 0.04684 0.92628 0.19823 0.0
H415 H 0.99615 0.89019 0.20252 0.0
H416 H 0.92305 0.8334 0.11474 0.0
H417 H 0.93494 0.81842 0.05563 0.0
H418 H 1.01752 0.84931 0.97263 0.0
H419 H 0.05389 0.89917 0.96506 0.0
H420 H 0.05738 0.8037 0.14052 0.0
H421 H 0.13073 0.85801 0.09745 0.0
H422 H 0.95379 0.97227 1.01604 0.0
H423 H 0.9655 1.00082 0.11211 0.0
C424 C 0.26478 0.15745 0.29268 0.0
C425 C 0.23622 0.14173 0.29285 0.0
C426 C 0.24005 0.11558 0.27465 0.0
C427 C 0.27071 0.11658 0.26494 0.0
N428 N 0.2866 0.14145 0.27618 0.0
Co429 Co 0.33231 0.14932 0.27114 0.0
N430 N 0.33487 0.1197 0.23495 0.0
C431 C 0.31165 0.10097 0.22446 0.0
C432 C 0.31938 0.08454 0.19791 0.0
C433 C 0.34969 0.0928 0.19157 0.0
C434 C 0.359 0.11338 0.21512 0.0
N435 N 0.37885 0.15434 0.26799 0.0
C436 C 0.39999 0.14073 0.24825 0.0
C437 C 0.43051 0.14759 0.25722 0.0
C438 C 0.42849 0.16589 0.28358 0.0
C439 C 0.39696 0.169 0.28939 0.0
N440 N 0.32839 0.18092 0.30536 0.0
C441 C 0.35227 0.19482 0.32054 0.0
C442 C 0.34265 0.21926 0.33917 0.0
C443 C 0.31069 0.22094 0.33538 0.0
C444 C 0.30236 0.19693 0.315 0.0
N445 N 0.34073 0.11521 0.30183 0.0
C446 C 0.37167 0.07891 0.34751 0.0
C447 C 0.34993 0.1019 0.35635 0.0
C448 C 0.33404 0.11921 0.33311 0.0
C449 C 0.3742 0.07164 0.31562 0.0
C450 C 0.35875 0.08999 0.29331 0.0
N451 N 0.32496 0.18479 0.24152 0.0
C452 C 0.34237 0.23465 0.22001 0.0
C453 C 0.31241 0.24134 0.20867 0.0
C454 C 0.28913 0.21833 0.2129 0.0
C455 C 0.29609 0.19002 0.22833 0.0
C456 C 0.34787 0.20708 0.237 0.0
H457 H 0.27771 0.17277 0.22976 0.0
H458 H 0.37098 0.20467 0.24653 0.0
H459 H 0.31804 0.13725 0.34074 0.0
H460 H 0.36367 0.08485 0.26927 0.0
C461 C 0.28318 0.09899 0.24041 0.0
C462 C 0.26973 0.18859 0.30613 0.0
C463 C 0.39219 0.11975 0.22204 0.0
C464 C 0.38336 0.18745 0.31292 0.0
H465 H 0.21454 0.14905 0.30385 0.0
H466 H 0.22209 0.09901 0.26772 0.0
H467 H 0.30506 0.06783 0.18523 0.0
H468 H 0.3641 0.08291 0.17315 0.0
H469 H 0.45197 0.13983 0.24608 0.0
H470 H 0.44773 0.17578 0.29688 0.0
H471 H 0.35727 0.23512 0.35258 0.0
H472 H 0.2957 0.23837 0.34601 0.0
H473 H 0.34668 0.10776 0.38086 0.0
H474 H 0.39021 0.05359 0.30768 0.0
H475 H 0.36181 0.25034 0.2155 0.0
H476 H 0.26574 0.22187 0.20358 0.0
C477 C 0.44719 0.48547 0.97323 0.0
C478 C 0.47124 0.47716 0.95288 0.0
C479 C 0.46967 0.44519 0.94918 0.0
C480 C 0.44526 0.43554 0.96784 0.0
N481 N 0.43126 0.45942 0.98293 0.0
Co482 Co 0.3997 0.45547 1.0172 0.0
N483 N 0.40477 0.40893 0.02036 0.0
C484 C 0.4195 0.39084 0.999 0.0
C485 C 0.41638 0.3593 1.00476 0.0
C486 C 0.39799 0.35725 0.03106 0.0
C487 C 0.3911 0.38776 0.04003 0.0
N488 N 0.37014 0.45288 0.05345 0.0
C489 C 0.3638 0.42872 0.07323 0.0
C490 C 0.3433 0.43801 0.09685 0.0
C491 C 0.33511 0.46836 0.09061 0.0
C492 C 0.3515 0.47612 0.06405 0.0
N493 N 0.39175 0.50117 1.01214 0.0
C494 C 0.36692 0.51706 0.02349 0.0
C495 C 0.36586 0.54772 1.01376 0.0
C496 C 0.39191 0.55155 0.99544 0.0
C497 C 0.40766 0.52301 0.99555 0.0
N498 N 0.36556 0.44701 0.98655 0.0
C499 C 0.3291 0.41607 0.94101 0.0
C500 C 0.32183 0.41369 0.97291 0.0
C501 C 0.34026 0.42913 0.99516 0.0
C502 C 0.35217 0.43767 0.93208 0.0
C503 C 0.36956 0.45357 0.95525 0.0
N504 N 0.4352 0.4629 0.04678 0.0
C505 C 0.46874 0.49884 0.07525 0.0
C506 C 0.49177 0.47559 0.07952 0.0
C507 C 0.48509 0.44559 0.06828 0.0
C508 C 0.4575 0.44001 0.05135 0.0
C509 C 0.44042 0.49182 0.05988 0.0
H510 H 0.45508 0.41688 0.0419 0.0
H511 H 0.42316 0.51018 0.05843 0.0
H512 H 0.33509 0.42435 0.01921 0.0
H513 H 0.38763 0.4695 0.94753 0.0
C514 C 0.43797 0.40445 0.97549 0.0
C515 C 0.43877 0.5181 0.98201 0.0
C516 C 0.37005 0.39553 0.0662 0.0
C517 C 0.34947 0.5046 0.04812 0.0
H518 H 0.48861 0.49219 0.9422 0.0
H519 H 0.48558 0.4306 0.9358 0.0
H520 H 0.4263 0.34007 0.99147 0.0
H521 H 0.39019 0.33578 0.04215 0.0
H522 H 0.33341 0.42356 0.11524 0.0
H523 H 0.31844 0.48267 0.10336 0.0
H524 H 0.34931 0.56566 0.02077 0.0
H525 H 0.39917 0.57323 0.98439 0.0
H526 H 0.3037 0.39778 0.98091 0.0
H527 H 0.35803 0.44083 0.90756 0.0
H528 H 0.47228 0.52226 0.08449 0.0
H529 H 0.50083 0.42619 0.07281 0.0
C530 C 0.7735 0.38084 0.29268 0.0
C531 C 0.80206 0.39655 0.29284 0.0
C532 C 0.79823 0.4227 0.27465 0.0
C533 C 0.76757 0.42171 0.26493 0.0
N534 N 0.75168 0.39683 0.27618 0.0
Co535 Co 0.70597 0.38896 0.27114 0.0
N536 N 0.7034 0.41858 0.23495 0.0
C537 C 0.72662 0.43731 0.22445 0.0
C538 C 0.71889 0.45374 0.19791 0.0
C539 C 0.68859 0.44548 0.19157 0.0
C540 C 0.67928 0.4249 0.21512 0.0
N541 N 0.65943 0.38394 0.26799 0.0
C542 C 0.63828 0.39755 0.24825 0.0
C543 C 0.60777 0.39069 0.25722 0.0
C544 C 0.60979 0.37239 0.28358 0.0
C545 C 0.64132 0.36929 0.28939 0.0
N546 N 0.70989 0.35736 0.30536 0.0
C547 C 0.686 0.34346 0.32054 0.0
C548 C 0.69563 0.31902 0.33917 0.0
C549 C 0.72758 0.31734 0.33538 0.0
C550 C 0.73592 0.34136 0.315 0.0
N551 N 0.69755 0.42307 0.30183 0.0
C552 C 0.66661 0.45937 0.34751 0.0
C553 C 0.68834 0.43638 0.35635 0.0
C554 C 0.70423 0.41907 0.3331 0.0
C555 C 0.66408 0.46665 0.31561 0.0
C556 C 0.67953 0.44829 0.29331 0.0
N557 N 0.71332 0.35349 0.24152 0.0
C558 C 0.6959 0.30363 0.22001 0.0
C559 C 0.72587 0.29694 0.20867 0.0
C560 C 0.74915 0.31995 0.2129 0.0
C561 C 0.74219 0.34826 0.22833 0.0
C562 C 0.6904 0.3312 0.237 0.0
H563 H 0.76057 0.36551 0.22976 0.0
H564 H 0.6673 0.33361 0.24653 0.0
H565 H 0.72024 0.40103 0.34074 0.0
H566 H 0.67461 0.45343 0.26926 0.0
C567 C 0.7551 0.43929 0.2404 0.0
C568 C 0.76855 0.34969 0.30613 0.0
C569 C 0.64609 0.41853 0.22204 0.0
C570 C 0.65492 0.35083 0.31292 0.0
H571 H 0.82374 0.38923 0.30385 0.0
H572 H 0.81619 0.43927 0.26771 0.0
H573 H 0.73321 0.47045 0.18523 0.0
H574 H 0.67417 0.45537 0.17315 0.0
H575 H 0.58631 0.39845 0.24608 0.0
H576 H 0.59054 0.3625 0.29689 0.0
H577 H 0.68101 0.30316 0.35258 0.0
H578 H 0.74258 0.29991 0.34601 0.0
H579 H 0.6916 0.43052 0.38086 0.0
H580 H 0.64807 0.48469 0.30768 0.0
H581 H 0.67647 0.28794 0.2155 0.0
H582 H 0.77254 0.31641 0.20358 0.0
C583 C 0.59109 0.05281 0.97323 0.0
C584 C 0.56704 0.06112 0.95288 0.0
C585 C 0.56861 0.09309 0.94918 0.0
C586 C 0.59302 0.10274 0.96784 0.0
N587 N 0.60702 0.07886 0.98293 0.0
Co588 Co 0.63858 0.0828 1.0172 0.0
N589 N 0.63351 0.12935 0.02036 0.0
C590 C 0.61878 0.14744 0.999 0.0
C591 C 0.6219 0.17898 1.00477 0.0
C592 C 0.64029 0.18103 0.03106 0.0
C593 C 0.64718 0.15052 0.04003 0.0
N594 N 0.66814 0.0854 0.05345 0.0
C595 C 0.67448 0.10956 0.07323 0.0
C596 C 0.69498 0.10027 0.09685 0.0
C597 C 0.70317 0.06992 0.09061 0.0
C598 C 0.68678 0.06216 0.06405 0.0
N599 N 0.64653 0.0371 1.01214 0.0
C600 C 0.67135 0.02122 0.02349 0.0
C601 C 0.67241 0.99056 1.01376 0.0
C602 C 0.64636 0.98673 0.99544 0.0
C603 C 0.63062 1.01527 0.99555 0.0
N604 N 0.67272 0.09127 0.98655 0.0
C605 C 0.70918 0.12221 0.94101 0.0
C606 C 0.71645 0.12459 0.97292 0.0
C607 C 0.69802 0.10914 0.99516 0.0
C608 C 0.68611 0.1006 0.93208 0.0
C609 C 0.66872 0.08471 0.95525 0.0
N610 N 0.60308 0.07538 0.04678 0.0
C611 C 0.56953 0.03944 0.07525 0.0
C612 C 0.54651 0.06268 0.07952 0.0
C613 C 0.55318 0.09269 0.06828 0.0
C614 C 0.58078 0.09827 0.05135 0.0
C615 C 0.59786 0.04646 0.05988 0.0
H616 H 0.5832 0.1214 0.0419 0.0
H617 H 0.61512 0.0281 0.05843 0.0
H618 H 0.70319 0.11392 0.01921 0.0
H619 H 0.65065 0.06878 0.94754 0.0
C620 C 0.60032 0.13383 0.97549 0.0
C621 C 0.59951 0.02019 0.98201 0.0
C622 C 0.66823 0.14275 0.0662 0.0
C623 C 0.68881 0.03368 0.04812 0.0
H624 H 0.54967 0.04609 0.9422 0.0
H625 H 0.5527 0.10769 0.9358 0.0
H626 H 0.61198 0.19821 0.99147 0.0
H627 H 0.64809 0.2025 0.04215 0.0
H628 H 0.70487 0.11471 0.11524 0.0
H629 H 0.71984 0.0556 0.10335 0.0
H630 H 0.68896 0.97261 0.02077 0.0
H631 H 0.63911 0.96504 0.98439 0.0
H632 H 0.73458 0.1405 0.98091 0.0
H633 H 0.68025 0.09745 0.90756 0.0
H634 H 0.566 1.01602 0.0845 0.0
H635 H 0.53745 0.11209 0.07281 0.0
C636 C 0.26478 0.88083 0.24563 0.0
C637 C 0.23622 0.89655 0.24547 0.0
C638 C 0.24005 0.92269 0.26366 0.0
C639 C 0.27071 0.9217 0.27338 0.0
N640 N 0.2866 0.89683 0.26213 0.0
Co641 Co 0.33231 0.88896 0.26717 0.0
N642 N 0.33487 0.91858 0.30336 0.0
C643 C 0.31165 0.93731 0.31385 0.0
C644 C 0.31938 0.95374 0.3404 0.0
C645 C 0.34969 0.94548 0.34674 0.0
C646 C 0.359 0.9249 0.32319 0.0
N647 N 0.37885 0.88394 0.27031 0.0
C648 C 0.39999 0.89755 0.29005 0.0
C649 C 0.43051 0.8907 0.28108 0.0
C650 C 0.42849 0.87239 0.25472 0.0
C651 C 0.39696 0.86929 0.24892 0.0
N652 N 0.32839 0.85736 0.23294 0.0
C653 C 0.35228 0.84347 0.21776 0.0
C654 C 0.34265 0.81902 0.19913 0.0
C655 C 0.3107 0.81734 0.20293 0.0
C656 C 0.30236 0.84136 0.22331 0.0
N657 N 0.34073 0.92307 0.23648 0.0
C658 C 0.37166 0.95937 0.1908 0.0
C659 C 0.34993 0.93639 0.18196 0.0
C660 C 0.33404 0.91907 0.2052 0.0
C661 C 0.37419 0.96665 0.2227 0.0
C662 C 0.35875 0.94829 0.245 0.0
N663 N 0.32497 0.85349 0.29679 0.0
C664 C 0.34238 0.80363 0.3183 0.0
C665 C 0.31242 0.79694 0.32964 0.0
C666 C 0.28914 0.81995 0.32541 0.0
C667 C 0.29609 0.84826 0.30998 0.0
C668 C 0.34788 0.8312 0.30131 0.0
H669 H 0.27772 0.86551 0.30856 0.0
H670 H 0.37098 0.83361 0.29177 0.0
H671 H 0.31804 0.90104 0.19757 0.0
H672 H 0.36367 0.95343 0.26904 0.0
C673 C 0.28318 0.93929 0.29791 0.0
C674 C 0.26973 0.84969 0.23218 0.0
C675 C 0.39219 0.91853 0.31627 0.0
C676 C 0.38336 0.85083 0.22538 0.0
H677 H 0.21454 0.88923 0.23446 0.0
H678 H 0.22209 0.93927 0.2706 0.0
H679 H 0.30506 0.97045 0.35308 0.0
H680 H 0.3641 0.95537 0.36516 0.0
H681 H 0.45197 0.89845 0.29222 0.0
H682 H 0.44774 0.86251 0.24142 0.0
H683 H 0.35727 0.80316 0.18572 0.0
H684 H 0.29571 0.79991 0.1923 0.0
H685 H 0.34667 0.93052 0.15745 0.0
H686 H 0.39021 0.98469 0.23063 0.0
H687 H 0.36181 0.78793 0.3228 0.0
H688 H 0.26575 0.81641 0.33473 0.0
C689 C 0.09109 0.48547 0.06509 0.0
C690 C 0.06704 0.47716 0.08544 0.0
C691 C 0.06861 0.44519 0.08914 0.0
C692 C 0.09302 0.43554 0.07048 0.0
N693 N 0.10702 0.45942 0.05538 0.0
Co694 Co 0.13858 0.45547 0.02111 0.0
N695 N 0.13351 0.40893 1.01795 0.0
C696 C 0.11878 0.39084 0.03931 0.0
C697 C 0.1219 0.3593 0.03355 0.0
C698 C 0.14029 0.35725 1.00726 0.0
C699 C 0.14718 0.38776 0.99828 0.0
N700 N 0.16813 0.45288 0.98486 0.0
C701 C 0.17447 0.42872 0.96508 0.0
C702 C 0.19498 0.43801 0.94146 0.0
C703 C 0.20317 0.46836 0.9477 0.0
C704 C 0.18678 0.47612 0.97426 0.0
N705 N 0.14652 0.50117 0.02617 0.0
C706 C 0.17135 0.51706 1.01482 0.0
C707 C 0.17241 0.54772 0.02455 0.0
C708 C 0.14637 0.55155 0.04288 0.0
C709 C 0.13062 0.523 0.04276 0.0
N710 N 0.17272 0.44701 0.05176 0.0
C711 C 0.20918 0.41607 0.0973 0.0
C712 C 0.21645 0.41369 0.0654 0.0
C713 C 0.19802 0.42913 0.04315 0.0
C714 C 0.18611 0.43768 0.10624 0.0
C715 C 0.16872 0.45357 0.08306 0.0
N716 N 0.10308 0.4629 0.99154 0.0
C717 C 0.06953 0.49884 0.96307 0.0
C718 C 0.04651 0.47559 0.95879 0.0
C719 C 0.05318 0.44559 0.97004 0.0
C720 C 0.08078 0.44001 0.98697 0.0
C721 C 0.09786 0.49181 0.97844 0.0
H722 H 0.0832 0.41688 0.99642 0.0
H723 H 0.11512 0.51018 0.97988 0.0
H724 H 0.20319 0.42435 1.0191 0.0
H725 H 0.15065 0.4695 0.09078 0.0
C726 C 0.10032 0.40445 0.06283 0.0
C727 C 0.09951 0.51809 0.05631 0.0
C728 C 0.16823 0.39553 0.97211 0.0
C729 C 0.18881 0.5046 0.99019 0.0
H730 H 0.04967 0.49219 0.09612 0.0
H731 H 0.05271 0.43059 0.10252 0.0
H732 H 0.11198 0.34007 0.04685 0.0
H733 H 0.14809 0.33578 0.99616 0.0
H734 H 0.20487 0.42356 0.92307 0.0
H735 H 0.21984 0.48267 0.93496 0.0
H736 H 0.18896 0.56566 1.01754 0.0
H737 H 0.13911 0.57323 0.05392 0.0
H738 H 0.23458 0.39778 0.0574 0.0
H739 H 0.18026 0.44083 0.13076 0.0
H740 H 0.066 0.52226 0.95382 0.0
H741 H 0.03745 0.42619 0.96551 0.0
C742 C 0.7735 0.65744 0.24563 0.0
C743 C 0.80206 0.64173 0.24546 0.0
C744 C 0.79823 0.61558 0.26366 0.0
C745 C 0.76757 0.61657 0.27337 0.0
N746 N 0.75167 0.64145 0.26213 0.0
Co747 Co 0.70596 0.64932 0.26717 0.0
N748 N 0.7034 0.6197 0.30336 0.0
C749 C 0.72662 0.60097 0.31385 0.0
C750 C 0.71889 0.58454 0.3404 0.0
C751 C 0.68858 0.5928 0.34674 0.0
C752 C 0.67927 0.61338 0.32319 0.0
N753 N 0.65943 0.65434 0.27031 0.0
C754 C 0.63828 0.64073 0.29005 0.0
C755 C 0.60776 0.64759 0.28108 0.0
C756 C 0.60978 0.66589 0.25472 0.0
C757 C 0.64132 0.66899 0.24892 0.0
N758 N 0.70989 0.68092 0.23294 0.0
C759 C 0.686 0.69481 0.21776 0.0
C760 C 0.69563 0.71926 0.19913 0.0
C761 C 0.72758 0.72094 0.20293 0.0
C762 C 0.73592 0.69692 0.22331 0.0
N763 N 0.69755 0.61521 0.23648 0.0
C764 C 0.66661 0.57891 0.1908 0.0
C765 C 0.68835 0.6019 0.18196 0.0
C766 C 0.70423 0.61921 0.2052 0.0
C767 C 0.66408 0.57164 0.22269 0.0
C768 C 0.67953 0.58999 0.245 0.0
N769 N 0.71331 0.68479 0.29679 0.0
C770 C 0.6959 0.73465 0.3183 0.0
C771 C 0.72586 0.74134 0.32964 0.0
C772 C 0.74914 0.71833 0.32541 0.0
C773 C 0.74219 0.69002 0.30998 0.0
C774 C 0.6904 0.70708 0.30131 0.0
H775 H 0.76056 0.67277 0.30855 0.0
H776 H 0.6673 0.70467 0.29177 0.0
H777 H 0.72024 0.63724 0.19757 0.0
H778 H 0.67461 0.58485 0.26904 0.0
C779 C 0.7551 0.59899 0.29791 0.0
C780 C 0.76855 0.68858 0.23218 0.0
C781 C 0.64608 0.61975 0.31627 0.0
C782 C 0.65492 0.68745 0.22538 0.0
H783 H 0.82374 0.64905 0.23446 0.0
H784 H 0.81618 0.59901 0.27059 0.0
H785 H 0.73321 0.56783 0.35308 0.0
H786 H 0.67417 0.58291 0.36516 0.0
H787 H 0.5863 0.63983 0.29222 0.0
H788 H 0.59054 0.67578 0.24142 0.0
H789 H 0.68101 0.73512 0.18572 0.0
H790 H 0.74257 0.73837 0.1923 0.0
H791 H 0.6916 0.60776 0.15745 0.0
H792 H 0.64806 0.55359 0.23063 0.0
H793 H 0.67647 0.75035 0.3228 0.0
H794 H 0.77253 0.72187 0.33473 0.0
C795 C 0.94719 0.05281 0.06509 0.0
C796 C 0.97124 0.06112 0.08544 0.0
C797 C 0.96967 0.09309 0.08914 0.0
C798 C 0.94526 0.10274 0.07048 0.0
N799 N 0.93125 0.07886 0.05538 0.0
Co800 Co 0.8997 0.0828 0.02111 0.0
N801 N 0.90477 0.12935 1.01795 0.0
C802 C 0.91949 0.14744 0.03931 0.0
C803 C 0.91638 0.17898 0.03355 0.0
C804 C 0.89798 0.18103 1.00726 0.0
C805 C 0.89109 0.15052 0.99828 0.0
N806 N 0.87014 0.0854 0.98486 0.0
C807 C 0.8638 0.10956 0.96508 0.0
C808 C 0.8433 0.10027 0.94147 0.0
C809 C 0.83511 0.06992 0.9477 0.0
C810 C 0.8515 0.06216 0.97426 0.0
N811 N 0.89175 0.0371 0.02618 0.0
C812 C 0.86692 0.02122 1.01482 0.0
C813 C 0.86586 0.99056 0.02456 0.0
C814 C 0.89191 0.98673 0.04288 0.0
C815 C 0.90766 1.01527 0.04277 0.0
N816 N 0.86555 0.09127 0.05176 0.0
C817 C 0.8291 0.12221 0.09731 0.0
C818 C 0.82182 0.12459 0.0654 0.0
C819 C 0.84026 0.10915 0.04316 0.0
C820 C 0.85217 0.1006 0.10624 0.0
C821 C 0.86956 0.08471 0.08306 0.0
N822 N 0.93519 0.07538 0.99154 0.0
C823 C 0.96874 0.03944 0.96307 0.0
C824 C 0.99177 0.06269 0.95879 0.0
C825 C 0.98509 0.09269 0.97004 0.0
C826 C 0.9575 0.09827 0.98697 0.0
C827 C 0.94042 0.04646 0.97844 0.0
H828 H 0.95508 0.1214 0.99642 0.0
H829 H 0.92316 0.0281 0.97988 0.0
H830 H 0.83509 0.11393 1.01911 0.0
H831 H 0.88763 0.06878 0.09078 0.0
C832 C 0.93796 0.13383 0.06283 0.0
C833 C 0.93876 0.02018 0.05631 0.0
C834 C 0.87004 0.14275 0.97211 0.0
C835 C 0.84947 0.03368 0.99019 0.0
H836 H 0.98861 0.04609 0.09612 0.0
H837 H 0.98557 0.10768 0.10252 0.0
H838 H 0.92629 0.19821 0.04685 0.0
H839 H 0.89019 0.2025 0.99616 0.0
H840 H 0.8334 0.11472 0.92307 0.0
H841 H 0.81844 0.0556 0.93496 0.0
H842 H 0.84931 0.97262 1.01755 0.0
H843 H 0.89917 0.96505 0.05393 0.0
H844 H 0.8037 0.1405 0.0574 0.0
H845 H 0.85802 0.09745 0.13076 0.0
H846 H 0.97227 1.01602 0.95382 0.0
H847 H 1.00082 0.11209 0.96551 0.0
C848 C 0.29266 0.26478 0.15745 0.0
C849 C 0.29282 0.23622 0.14174 0.0
C850 C 0.27463 0.24005 0.11559 0.0
C851 C 0.26492 0.27071 0.11658 0.0
N852 N 0.27616 0.28661 0.14146 0.0
Co853 Co 0.27112 0.33232 0.14933 0.0
N854 N 0.23493 0.33488 0.1197 0.0
C855 C 0.22444 0.31166 0.10097 0.0
C856 C 0.1979 0.31939 0.08454 0.0
C857 C 0.19155 0.3497 0.0928 0.0
C858 C 0.2151 0.359 0.11338 0.0
N859 N 0.26798 0.37885 0.15435 0.0
C860 C 0.24823 0.4 0.14074 0.0
C861 C 0.2572 0.43052 0.1476 0.0
C862 C 0.28357 0.4285 0.1659 0.0
C863 C 0.28937 0.39696 0.169 0.0
N864 N 0.30534 0.32839 0.18092 0.0
C865 C 0.32053 0.35228 0.19482 0.0
C866 C 0.33916 0.34265 0.21927 0.0
C867 C 0.33536 0.3107 0.22095 0.0
C868 C 0.31498 0.30237 0.19693 0.0
N869 N 0.30181 0.34074 0.11521 0.0
C870 C 0.34749 0.37167 0.07893 0.0
C871 C 0.35633 0.34993 0.1019 0.0
C872 C 0.33308 0.33404 0.11921 0.0
C873 C 0.31559 0.37421 0.07165 0.0
C874 C 0.29329 0.35876 0.09 0.0
N875 N 0.2415 0.32497 0.1848 0.0
C876 C 0.22 0.34238 0.23466 0.0
C877 C 0.20865 0.31242 0.24134 0.0
C878 C 0.21288 0.28914 0.21834 0.0
C879 C 0.22831 0.29609 0.19002 0.0
C880 C 0.23699 0.34788 0.20709 0.0
H881 H 0.22973 0.27772 0.17277 0.0
H882 H 0.24653 0.37098 0.20469 0.0
H883 H 0.34071 0.31803 0.13724 0.0
H884 H 0.26925 0.36369 0.08487 0.0
C885 C 0.24039 0.28318 0.09899 0.0
C886 C 0.30611 0.26973 0.1886 0.0
C887 C 0.22202 0.39219 0.11977 0.0
C888 C 0.31291 0.38336 0.18745 0.0
H889 H 0.30382 0.21454 0.14906 0.0
H890 H 0.2677 0.22209 0.09902 0.0
H891 H 0.18522 0.30507 0.06782 0.0
H892 H 0.17313 0.36411 0.08291 0.0
H893 H 0.24606 0.45198 0.13984 0.0
H894 H 0.29687 0.44774 0.17578 0.0
H895 H 0.35257 0.35727 0.23512 0.0
H896 H 0.34599 0.29571 0.23838 0.0
H897 H 0.38084 0.34666 0.10776 0.0
H898 H 0.30766 0.39023 0.0536 0.0
H899 H 0.2155 0.36181 0.25036 0.0
H900 H 0.20356 0.26575 0.22188 0.0
C901 C 0.29267 0.7735 0.38085 0.0
C902 C 0.29283 0.80206 0.39657 0.0
C903 C 0.27464 0.79823 0.42272 0.0
C904 C 0.26493 0.76756 0.42173 0.0
N905 N 0.27617 0.75167 0.39685 0.0
Co906 Co 0.27113 0.70596 0.38898 0.0
N907 N 0.23494 0.7034 0.4186 0.0
C908 C 0.22445 0.72662 0.43733 0.0
C909 C 0.1979 0.71889 0.45376 0.0
C910 C 0.19156 0.68859 0.4455 0.0
C911 C 0.21511 0.67928 0.42492 0.0
N912 N 0.26798 0.65943 0.38396 0.0
C913 C 0.24824 0.63828 0.39757 0.0
C914 C 0.2572 0.60776 0.39071 0.0
C915 C 0.28356 0.60978 0.37241 0.0
C916 C 0.28937 0.64131 0.36931 0.0
N917 N 0.30535 0.70989 0.35738 0.0
C918 C 0.32053 0.686 0.34348 0.0
C919 C 0.33916 0.69562 0.31904 0.0
C920 C 0.33536 0.72758 0.31736 0.0
C921 C 0.31499 0.73591 0.34137 0.0
N922 N 0.30182 0.69754 0.42309 0.0
C923 C 0.3475 0.66661 0.45938 0.0
C924 C 0.35633 0.68834 0.4364 0.0
C925 C 0.33309 0.70423 0.41909 0.0
C926 C 0.3156 0.66407 0.46666 0.0
C927 C 0.29329 0.67952 0.44831 0.0
N928 N 0.24151 0.71331 0.35351 0.0
C929 C 0.22 0.6959 0.30365 0.0
C930 C 0.20865 0.72586 0.29697 0.0
C931 C 0.21289 0.74914 0.31997 0.0
C932 C 0.22832 0.74219 0.34829 0.0
C933 C 0.23699 0.6904 0.33122 0.0
H934 H 0.22974 0.76056 0.36554 0.0
H935 H 0.24653 0.6673 0.33363 0.0
H936 H 0.34072 0.72024 0.40106 0.0
H937 H 0.26925 0.6746 0.45344 0.0
C938 C 0.2404 0.75509 0.43932 0.0
C939 C 0.30612 0.76854 0.34971 0.0
C940 C 0.22202 0.64608 0.41855 0.0
C941 C 0.31291 0.65491 0.35085 0.0
H942 H 0.30384 0.82374 0.38924 0.0
H943 H 0.26771 0.81618 0.43929 0.0
H944 H 0.18522 0.73321 0.47048 0.0
H945 H 0.17314 0.67418 0.45539 0.0
H946 H 0.24606 0.5863 0.39847 0.0
H947 H 0.29687 0.59054 0.36252 0.0
H948 H 0.35257 0.681 0.30318 0.0
H949 H 0.34599 0.74257 0.29992 0.0
H950 H 0.38084 0.6916 0.43054 0.0
H951 H 0.30767 0.64805 0.48471 0.0
H952 H 0.21549 0.67647 0.28795 0.0
H953 H 0.20357 0.77253 0.31643 0.0
C954 C 0.98546 0.47321 0.94721 0.0
C955 C 0.97715 0.45286 0.97125 0.0
C956 C 0.94518 0.44916 0.96969 0.0
C957 C 0.93553 0.46782 0.94528 0.0
N958 N 0.95941 0.48292 0.93127 0.0
Co959 Co 0.95547 0.51719 0.89972 0.0
N960 N 0.90893 0.52035 0.90479 0.0
C961 C 0.89083 0.49899 0.91951 0.0
C962 C 0.85929 0.50475 0.9164 0.0
C963 C 0.85724 0.53105 0.898 0.0
C964 C 0.88775 0.54002 0.89111 0.0
N965 N 0.95288 0.55343 0.87015 0.0
C966 C 0.92872 0.57321 0.86381 0.0
C967 C 0.93801 0.59683 0.8433 0.0
C968 C 0.96835 0.59059 0.83511 0.0
C969 C 0.97611 0.56403 0.85151 0.0
N970 N 1.00117 0.51212 0.89176 0.0
C971 C 1.01705 0.52347 0.86693 0.0
C972 C 0.04771 0.51374 0.86587 0.0
C973 C 0.05154 0.49542 0.89193 0.0
C974 C 0.023 0.49553 0.90767 0.0
N975 N 0.947 0.48654 0.86557 0.0
C976 C 0.91606 0.44099 0.82912 0.0
C977 C 0.91368 0.4729 0.82184 0.0
C978 C 0.92912 0.49514 0.84028 0.0
C979 C 0.93767 0.43206 0.85218 0.0
C980 C 0.95357 0.45524 0.86957 0.0
N981 N 0.9629 0.54676 0.93521 0.0
C982 C 0.99884 0.57523 0.96875 0.0
C983 C 0.97559 0.57951 0.99178 0.0
C984 C 0.94559 0.56826 0.98511 0.0
C985 C 0.94001 0.55133 0.95752 0.0
C986 C 0.99181 0.55986 0.94043 0.0
H987 H 0.91688 0.54188 0.9551 0.0
H988 H 1.01017 0.55842 0.92316 0.0
H989 H 0.92434 0.51919 0.83511 0.0
H990 H 0.96949 0.44752 0.88764 0.0
C991 C 0.90444 0.47547 0.93798 0.0
C992 C 1.01809 0.48199 0.93878 0.0
C993 C 0.89553 0.56619 0.87006 0.0
C994 C 1.00459 0.5481 0.84948 0.0
H995 H 0.99218 0.44218 0.98862 0.0
H996 H 0.93059 0.43578 0.98559 0.0
H997 H 0.84006 0.49146 0.92632 0.0
H998 H 0.83578 0.54214 0.89021 0.0
H999 H 0.92356 0.61522 0.83341 0.0
H1000 H 0.98267 0.60333 0.81844 0.0
H1001 H 0.06566 0.52074 0.84932 0.0
H1002 H 0.07323 0.48437 0.89919 0.0
H1003 H 0.89777 0.48089 0.80372 0.0
H1004 H 0.94082 0.40754 0.85804 0.0
H1005 H 0.02226 0.58448 0.97228 0.0
H1006 H 0.92619 0.57279 1.00085 0.0
C1007 C 0.74561 0.76478 0.38085 0.0
C1008 C 0.74545 0.73622 0.39657 0.0
C1009 C 0.76363 0.74005 0.42272 0.0
C1010 C 0.77335 0.77071 0.42173 0.0
N1011 N 0.76211 0.78661 0.39685 0.0
Co1012 Co 0.76715 0.83231 0.38898 0.0
N1013 N 0.80334 0.83488 0.41861 0.0
C1014 C 0.81383 0.81165 0.43734 0.0
C1015 C 0.84037 0.81938 0.45377 0.0
C1016 C 0.84672 0.84969 0.44551 0.0
C1017 C 0.82317 0.859 0.42492 0.0
N1018 N 0.7703 0.87885 0.38396 0.0
C1019 C 0.79004 0.9 0.39757 0.0
C1020 C 0.78108 0.93051 0.39071 0.0
C1021 C 0.75472 0.9285 0.37241 0.0
C1022 C 0.74891 0.89696 0.36931 0.0
N1023 N 0.73293 0.82839 0.35738 0.0
C1024 C 0.71775 0.85228 0.34349 0.0
C1025 C 0.69912 0.84266 0.31904 0.0
C1026 C 0.70292 0.8107 0.31736 0.0
C1027 C 0.72329 0.80237 0.34137 0.0
N1028 N 0.73646 0.84074 0.42309 0.0
C1029 C 0.69078 0.87167 0.45939 0.0
C1030 C 0.68194 0.84993 0.43641 0.0
C1031 C 0.70519 0.83404 0.41909 0.0
C1032 C 0.72268 0.8742 0.46666 0.0
C1033 C 0.74498 0.85876 0.44831 0.0
N1034 N 0.79677 0.82496 0.35351 0.0
C1035 C 0.81828 0.84237 0.30365 0.0
C1036 C 0.82963 0.81241 0.29697 0.0
C1037 C 0.82539 0.78913 0.31997 0.0
C1038 C 0.80996 0.79609 0.34829 0.0
C1039 C 0.80129 0.84787 0.33122 0.0
H1040 H 0.80854 0.77772 0.36554 0.0
H1041 H 0.79175 0.87098 0.33363 0.0
H1042 H 0.69756 0.81804 0.40106 0.0
H1043 H 0.76902 0.86368 0.45344 0.0
C1044 C 0.79788 0.78318 0.43932 0.0
C1045 C 0.73216 0.76974 0.34971 0.0
C1046 C 0.81626 0.89219 0.41855 0.0
C1047 C 0.72537 0.88336 0.35085 0.0
H1048 H 0.73444 0.71454 0.38925 0.0
H1049 H 0.77057 0.72209 0.43929 0.0
H1050 H 0.85305 0.80506 0.47048 0.0
H1051 H 0.86514 0.8641 0.4554 0.0
H1052 H 0.79222 0.95197 0.39847 0.0
H1053 H 0.74142 0.94774 0.36252 0.0
H1054 H 0.68571 0.85727 0.30318 0.0
H1055 H 0.69229 0.79571 0.29993 0.0
H1056 H 0.65744 0.84667 0.43054 0.0
H1057 H 0.73061 0.89022 0.48471 0.0
H1058 H 0.82278 0.8618 0.28795 0.0
H1059 H 0.83471 0.76574 0.31643 0.0
C1060 C 0.55281 0.56506 0.4472 0.0
C1061 C 0.56112 0.58541 0.47124 0.0
C1062 C 0.59308 0.58912 0.46967 0.0
C1063 C 0.60274 0.57046 0.44526 0.0
N1064 N 0.57886 0.55536 0.43126 0.0
Co1065 Co 0.58281 0.52109 0.39971 0.0
N1066 N 0.62935 0.51793 0.40478 0.0
C1067 C 0.64744 0.5393 0.4195 0.0
C1068 C 0.67898 0.53353 0.41639 0.0
C1069 C 0.68103 0.50723 0.398 0.0
C1070 C 0.65052 0.49826 0.39111 0.0
N1071 N 0.5854 0.48484 0.37014 0.0
C1072 C 0.60956 0.46506 0.3638 0.0
C1073 C 0.60027 0.44145 0.34329 0.0
C1074 C 0.56993 0.44769 0.3351 0.0
C1075 C 0.56216 0.47425 0.35149 0.0
N1076 N 0.53711 0.52615 0.39176 0.0
C1077 C 0.52122 0.5148 0.36692 0.0
C1078 C 0.49057 0.52453 0.36586 0.0
C1079 C 0.48673 0.54285 0.39192 0.0
C1080 C 0.51527 0.54273 0.40766 0.0
N1081 N 0.59127 0.55174 0.36556 0.0
C1082 C 0.6222 0.59728 0.32911 0.0
C1083 C 0.6246 0.56538 0.32183 0.0
C1084 C 0.60915 0.54313 0.34027 0.0
C1085 C 0.60059 0.60621 0.35217 0.0
C1086 C 0.5847 0.58304 0.36956 0.0
N1087 N 0.57538 0.49152 0.4352 0.0
C1088 C 0.53944 0.46304 0.46875 0.0
C1089 C 0.56269 0.45877 0.49178 0.0
C1090 C 0.59269 0.47002 0.4851 0.0
C1091 C 0.59827 0.48695 0.45751 0.0
C1092 C 0.54647 0.47841 0.44042 0.0
H1093 H 0.6214 0.4964 0.45509 0.0
H1094 H 0.5281 0.47985 0.42316 0.0
H1095 H 0.61394 0.51908 0.3351 0.0
H1096 H 0.56877 0.59075 0.38763 0.0
C1097 C 0.63383 0.56281 0.43796 0.0
C1098 C 0.52018 0.55627 0.43878 0.0
C1099 C 0.64275 0.47209 0.37006 0.0
C1100 C 0.53369 0.49018 0.34946 0.0
H1101 H 0.54609 0.59609 0.48862 0.0
H1102 H 0.60768 0.6025 0.48558 0.0
H1103 H 0.69821 0.54683 0.4263 0.0
H1104 H 0.7025 0.49614 0.39021 0.0
H1105 H 0.61472 0.42306 0.3334 0.0
H1106 H 0.55561 0.43495 0.31842 0.0
H1107 H 0.47262 0.51753 0.34931 0.0
H1108 H 0.46505 0.55389 0.39918 0.0
H1109 H 0.64051 0.55738 0.30371 0.0
H1110 H 0.59744 0.63073 0.35802 0.0
H1111 H 0.51602 0.45379 0.47228 0.0
H1112 H 0.61209 0.46549 0.50084 0.0
C1113 C 0.24561 0.7735 0.65746 0.0
C1114 C 0.24545 0.80206 0.64174 0.0
C1115 C 0.26363 0.79823 0.61559 0.0
C1116 C 0.27335 0.76757 0.61658 0.0
N1117 N 0.26211 0.75167 0.64146 0.0
Co1118 Co 0.26715 0.70597 0.64933 0.0
N1119 N 0.30334 0.7034 0.6197 0.0
C1120 C 0.31383 0.72662 0.60097 0.0
C1121 C 0.34037 0.71889 0.58454 0.0
C1122 C 0.34672 0.68859 0.5928 0.0
C1123 C 0.32317 0.67928 0.61339 0.0
N1124 N 0.2703 0.65943 0.65435 0.0
C1125 C 0.29004 0.63828 0.64074 0.0
C1126 C 0.28107 0.60776 0.6476 0.0
C1127 C 0.25471 0.60978 0.6659 0.0
C1128 C 0.24891 0.64132 0.66901 0.0
N1129 N 0.23293 0.70989 0.68093 0.0
C1130 C 0.21775 0.686 0.69483 0.0
C1131 C 0.19913 0.69563 0.71928 0.0
C1132 C 0.20292 0.72758 0.72096 0.0
C1133 C 0.2233 0.73592 0.69694 0.0
N1134 N 0.23646 0.69754 0.61522 0.0
C1135 C 0.19078 0.66661 0.57893 0.0
C1136 C 0.18194 0.68835 0.60191 0.0
C1137 C 0.20519 0.70424 0.61922 0.0
C1138 C 0.22268 0.66407 0.57165 0.0
C1139 C 0.24498 0.67952 0.59 0.0
N1140 N 0.29677 0.71331 0.6848 0.0
C1141 C 0.31829 0.69591 0.73466 0.0
C1142 C 0.32963 0.72587 0.74134 0.0
C1143 C 0.32539 0.74915 0.71834 0.0
C1144 C 0.30996 0.74219 0.69002 0.0
C1145 C 0.30129 0.6904 0.70709 0.0
H1146 H 0.30854 0.76056 0.67277 0.0
H1147 H 0.29176 0.6673 0.70468 0.0
H1148 H 0.19756 0.72024 0.63725 0.0
H1149 H 0.26902 0.6746 0.58487 0.0
C1150 C 0.29788 0.7551 0.59899 0.0
C1151 C 0.23217 0.76855 0.6886 0.0
C1152 C 0.31626 0.64609 0.61976 0.0
C1153 C 0.22537 0.65492 0.68746 0.0
H1154 H 0.23444 0.82374 0.64906 0.0
H1155 H 0.27057 0.81618 0.59901 0.0
H1156 H 0.35305 0.73321 0.56783 0.0
H1157 H 0.36514 0.67418 0.58291 0.0
H1158 H 0.29221 0.58631 0.63984 0.0
H1159 H 0.24141 0.59054 0.67579 0.0
H1160 H 0.18572 0.68101 0.73514 0.0
H1161 H 0.1923 0.74257 0.73839 0.0
H1162 H 0.15744 0.69161 0.60777 0.0
H1163 H 0.23061 0.64806 0.5536 0.0
H1164 H 0.32279 0.67647 0.75035 0.0
H1165 H 0.33471 0.77254 0.72188 0.0
C1166 C 0.98546 0.56506 0.59111 0.0
C1167 C 0.97716 0.58541 0.56706 0.0
C1168 C 0.94519 0.58911 0.56863 0.0
C1169 C 0.93554 0.57046 0.59304 0.0
N1170 N 0.95942 0.55536 0.60705 0.0
Co1171 Co 0.95547 0.52109 0.6386 0.0
N1172 N 0.90893 0.51793 0.63353 0.0
C1173 C 0.89083 0.53929 0.61881 0.0
C1174 C 0.85929 0.53353 0.62192 0.0
C1175 C 0.85725 0.50723 0.64031 0.0
C1176 C 0.88775 0.49826 0.64721 0.0
N1177 N 0.95288 0.48485 0.66817 0.0
C1178 C 0.92871 0.46507 0.67451 0.0
C1179 C 0.93801 0.44145 0.69501 0.0
C1180 C 0.96835 0.44769 0.70321 0.0
C1181 C 0.97611 0.47425 0.68681 0.0
N1182 N 1.00117 0.52616 0.64655 0.0
C1183 C 1.01705 0.51481 0.67139 0.0
C1184 C 0.04771 0.52454 0.67245 0.0
C1185 C 0.05154 0.54286 0.64639 0.0
C1186 C 0.023 0.54274 0.63065 0.0
N1187 N 0.947 0.55174 0.67275 0.0
C1188 C 0.91607 0.59729 0.7092 0.0
C1189 C 0.91368 0.56538 0.71648 0.0
C1190 C 0.92912 0.54314 0.69804 0.0
C1191 C 0.93767 0.60622 0.68613 0.0
C1192 C 0.95357 0.58304 0.66875 0.0
N1193 N 0.9629 0.49152 0.60311 0.0
C1194 C 0.99884 0.46305 0.56956 0.0
C1195 C 0.97559 0.45877 0.54654 0.0
C1196 C 0.94559 0.47001 0.55321 0.0
C1197 C 0.94001 0.48695 0.5808 0.0
C1198 C 0.99181 0.47842 0.59789 0.0
H1199 H 0.91687 0.49639 0.58323 0.0
H1200 H 1.01017 0.47986 0.61515 0.0
H1201 H 0.92434 0.51909 0.70321 0.0
H1202 H 0.9695 0.59075 0.65068 0.0
C1203 C 0.90445 0.56281 0.60034 0.0
C1204 C 1.01809 0.55628 0.59953 0.0
C1205 C 0.89553 0.47209 0.66826 0.0
C1206 C 1.00459 0.49018 0.68884 0.0
H1207 H 0.99218 0.59609 0.54969 0.0
H1208 H 0.93059 0.60249 0.55272 0.0
H1209 H 0.84006 0.54683 0.612 0.0
H1210 H 0.83578 0.49614 0.64811 0.0
H1211 H 0.92356 0.42306 0.70491 0.0
H1212 H 0.98267 0.43495 0.71988 0.0
H1213 H 0.06565 0.51754 0.689 0.0
H1214 H 0.07323 0.5539 0.63913 0.0
H1215 H 0.89777 0.55739 0.7346 0.0
H1216 H 0.94083 0.63074 0.68028 0.0
H1217 H 0.02226 0.4538 0.56603 0.0
H1218 H 0.92619 0.46548 0.53748 0.0
C1219 C 0.05282 0.97322 0.59111 0.0
C1220 C 0.06112 0.95287 0.56706 0.0
C1221 C 0.09309 0.94917 0.56863 0.0
C1222 C 0.10274 0.96782 0.59304 0.0
N1223 N 0.07886 0.98292 0.60705 0.0
Co1224 Co 0.08281 1.01719 0.6386 0.0
N1225 N 0.12935 0.02035 0.63353 0.0
C1226 C 0.14744 0.99899 0.61881 0.0
C1227 C 0.17898 1.00475 0.62192 0.0
C1228 C 0.18103 0.03105 0.64031 0.0
C1229 C 0.15052 0.04002 0.64721 0.0
N1230 N 0.0854 0.05343 0.66817 0.0
C1231 C 0.10956 0.07322 0.67451 0.0
C1232 C 0.10027 0.09683 0.69501 0.0
C1233 C 0.06993 0.09059 0.70321 0.0
C1234 C 0.06216 0.06403 0.68681 0.0
N1235 N 0.03711 1.01212 0.64655 0.0
C1236 C 0.02122 0.02347 0.67138 0.0
C1237 C 0.99057 1.01374 0.67244 0.0
C1238 C 0.98673 0.99542 0.64639 0.0
C1239 C 1.01528 0.99554 0.63064 0.0
N1240 N 0.09127 0.98654 0.67275 0.0
C1241 C 0.12221 0.94099 0.7092 0.0
C1242 C 0.1246 0.9729 0.71648 0.0
C1243 C 0.10915 0.99514 0.69804 0.0
C1244 C 0.1006 0.93206 0.68614 0.0
C1245 C 0.08471 0.95524 0.66875 0.0
N1246 N 0.07538 0.04676 0.60311 0.0
C1247 C 0.03944 0.07524 0.56956 0.0
C1248 C 0.06269 0.07951 0.54654 0.0
C1249 C 0.09269 0.06827 0.55321 0.0
C1250 C 0.09827 0.05133 0.5808 0.0
C1251 C 0.04647 0.05986 0.59789 0.0
H1252 H 0.1214 0.04189 0.58322 0.0
H1253 H 0.0281 0.05842 0.61515 0.0
H1254 H 0.11394 0.01919 0.70321 0.0
H1255 H 0.06878 0.94753 0.65068 0.0
C1256 C 0.13383 0.97548 0.60034 0.0
C1257 C 0.02019 0.982 0.59953 0.0
C1258 C 0.14275 0.06619 0.66826 0.0
C1259 C 0.03369 0.0481 0.68884 0.0
H1260 H 0.0461 0.9422 0.54969 0.0
H1261 H 0.10769 0.93579 0.55272 0.0
H1262 H 0.19821 0.99146 0.612 0.0
H1263 H 0.2025 0.04214 0.64811 0.0
H1264 H 0.11472 0.11522 0.70491 0.0
H1265 H 0.05561 0.10333 0.71988 0.0
H1266 H 0.97262 0.02074 0.689 0.0
H1267 H 0.96505 0.98438 0.63913 0.0
H1268 H 0.1405 0.98089 0.7346 0.0
H1269 H 0.09745 0.90754 0.68028 0.0
H1270 H 1.01602 0.08448 0.56603 0.0
H1271 H 0.11209 0.0728 0.53748 0.0
C1272 C 0.65744 0.79266 0.76479 0.0
C1273 C 0.64172 0.79282 0.73623 0.0
C1274 C 0.61557 0.77463 0.74006 0.0
C1275 C 0.61656 0.76492 0.77072 0.0
N1276 N 0.64144 0.77615 0.78661 0.0
Co1277 Co 0.64931 0.77112 0.83233 0.0
N1278 N 0.61969 0.73493 0.83489 0.0
C1279 C 0.60096 0.72444 0.81167 0.0
C1280 C 0.58452 0.6979 0.8194 0.0
C1281 C 0.59278 0.69155 0.84971 0.0
C1282 C 0.61337 0.7151 0.85901 0.0
N1283 N 0.65433 0.76798 0.87886 0.0
C1284 C 0.64072 0.74824 0.90001 0.0
C1285 C 0.64758 0.75721 0.93053 0.0
C1286 C 0.66588 0.78357 0.92851 0.0
C1287 C 0.66898 0.78937 0.89697 0.0
N1288 N 0.6809 0.80534 0.8284 0.0
C1289 C 0.6948 0.82053 0.85229 0.0
C1290 C 0.71925 0.83916 0.84266 0.0
C1291 C 0.72093 0.83536 0.8107 0.0
C1292 C 0.69691 0.81498 0.80237 0.0
N1293 N 0.6152 0.80181 0.84074 0.0
C1294 C 0.57891 0.84749 0.87168 0.0
C1295 C 0.60188 0.85633 0.84994 0.0
C1296 C 0.6192 0.83308 0.83405 0.0
C1297 C 0.57163 0.81559 0.87421 0.0
C1298 C 0.58998 0.79329 0.85877 0.0
N1299 N 0.68478 0.7415 0.82498 0.0
C1300 C 0.73464 0.71999 0.84239 0.0
C1301 C 0.74133 0.70865 0.81243 0.0
C1302 C 0.71832 0.71288 0.78915 0.0
C1303 C 0.69001 0.72831 0.7961 0.0
C1304 C 0.70707 0.73698 0.84789 0.0
H1305 H 0.67276 0.72973 0.77773 0.0
H1306 H 0.70466 0.74652 0.87099 0.0
H1307 H 0.63723 0.84072 0.81804 0.0
H1308 H 0.58485 0.76925 0.86369 0.0
C1309 C 0.59897 0.74039 0.78319 0.0
C1310 C 0.68858 0.8061 0.76974 0.0
C1311 C 0.61975 0.72202 0.89221 0.0
C1312 C 0.68743 0.81291 0.88337 0.0
H1313 H 0.64904 0.80382 0.71454 0.0
H1314 H 0.599 0.7677 0.7221 0.0
H1315 H 0.56781 0.68522 0.80509 0.0
H1316 H 0.5829 0.67313 0.86412 0.0
H1317 H 0.63983 0.74607 0.95199 0.0
H1318 H 0.67577 0.79688 0.94775 0.0
H1319 H 0.7351 0.85257 0.85728 0.0
H1320 H 0.73836 0.84598 0.79571 0.0
H1321 H 0.60775 0.88084 0.84667 0.0
H1322 H 0.55358 0.80766 0.89023 0.0
H1323 H 0.75033 0.71549 0.86182 0.0
H1324 H 0.72186 0.70356 0.76576 0.0
C1325 C 0.06506 0.0911 0.48549 0.0
C1326 C 0.08542 0.06706 0.47718 0.0
C1327 C 0.08912 0.06862 0.44521 0.0
C1328 C 0.07046 0.09303 0.43556 0.0
N1329 N 0.05536 0.10704 0.45944 0.0
Co1330 Co 0.02109 0.13859 0.45549 0.0
N1331 N 1.01794 0.13352 0.40895 0.0
C1332 C 0.0393 0.1188 0.39085 0.0
C1333 C 0.03354 0.12191 0.35931 0.0
C1334 C 1.00724 0.1403 0.35726 0.0
C1335 C 0.99827 0.14719 0.38777 0.0
N1336 N 0.98484 0.16814 0.4529 0.0
C1337 C 0.96506 0.17448 0.42874 0.0
C1338 C 0.94144 0.19499 0.43802 0.0
C1339 C 0.94768 0.20318 0.46837 0.0
C1340 C 0.97424 0.18679 0.47614 0.0
N1341 N 0.02615 0.14653 0.50119 0.0
C1342 C 1.01479 0.17136 0.51708 0.0
C1343 C 0.02452 0.17242 0.54774 0.0
C1344 C 0.04285 0.14637 0.55157 0.0
C1345 C 0.04274 0.13063 0.52303 0.0
N1346 N 0.05174 0.17273 0.44703 0.0
C1347 C 0.09728 0.20918 0.41609 0.0
C1348 C 0.06538 0.21646 0.4137 0.0
C1349 C 0.04313 0.19803 0.42915 0.0
C1350 C 0.10621 0.18613 0.4377 0.0
C1351 C 0.08304 0.16874 0.4536 0.0
N1352 N 0.99152 0.10309 0.46291 0.0
C1353 C 0.96305 0.06954 0.49885 0.0
C1354 C 0.95877 0.04651 0.4756 0.0
C1355 C 0.97002 0.05319 0.4456 0.0
C1356 C 0.98696 0.08078 0.44002 0.0
C1357 C 0.97842 0.09786 0.49183 0.0
H1358 H 0.9964 0.08321 0.41689 0.0
H1359 H 0.97986 0.11513 0.51019 0.0
H1360 H 1.01908 0.20319 0.42437 0.0
H1361 H 0.09075 0.15067 0.46953 0.0
C1362 C 0.06281 0.10033 0.40447 0.0
C1363 C 0.05628 0.09952 0.51811 0.0
C1364 C 0.9721 0.16823 0.39555 0.0
C1365 C 0.99017 0.18882 0.50462 0.0
H1366 H 0.0961 0.04969 0.49221 0.0
H1367 H 0.10251 0.05272 0.43061 0.0
H1368 H 0.04684 0.112 0.34008 0.0
H1369 H 0.99615 0.14809 0.33579 0.0
H1370 H 0.92305 0.20488 0.42358 0.0
H1371 H 0.93494 0.21985 0.48269 0.0
H1372 H 1.01752 0.18897 0.56569 0.0
H1373 H 0.05389 0.13911 0.57326 0.0
H1374 H 0.05738 0.23458 0.39779 0.0
H1375 H 0.13073 0.18027 0.44086 0.0
H1376 H 0.9538 0.06601 0.52227 0.0
H1377 H 0.9655 0.03746 0.4262 0.0
C1378 C 0.38084 0.74562 0.76479 0.0
C1379 C 0.39655 0.74546 0.73623 0.0
C1380 C 0.4227 0.76366 0.74006 0.0
C1381 C 0.42171 0.77337 0.77072 0.0
N1382 N 0.39683 0.76213 0.78662 0.0
Co1383 Co 0.38896 0.76716 0.83233 0.0
N1384 N 0.41858 0.80335 0.83489 0.0
C1385 C 0.43731 0.81384 0.81167 0.0
C1386 C 0.45374 0.84039 0.8194 0.0
C1387 C 0.44548 0.84673 0.84971 0.0
C1388 C 0.4249 0.82318 0.85902 0.0
N1389 N 0.38395 0.7703 0.87887 0.0
C1390 C 0.39755 0.79004 0.90001 0.0
C1391 C 0.3907 0.78107 0.93053 0.0
C1392 C 0.37239 0.75471 0.92851 0.0
C1393 C 0.36929 0.74891 0.89698 0.0
N1394 N 0.35737 0.73294 0.8284 0.0
C1395 C 0.34347 0.71775 0.85229 0.0
C1396 C 0.31903 0.69912 0.84266 0.0
C1397 C 0.31735 0.70292 0.81071 0.0
C1398 C 0.34136 0.7233 0.80238 0.0
N1399 N 0.42308 0.73647 0.84074 0.0
C1400 C 0.45937 0.69079 0.87168 0.0
C1401 C 0.43639 0.68195 0.84994 0.0
C1402 C 0.41908 0.7052 0.83405 0.0
C1403 C 0.46665 0.72269 0.87422 0.0
C1404 C 0.44829 0.745 0.85877 0.0
N1405 N 0.35349 0.79678 0.82498 0.0
C1406 C 0.30363 0.81828 0.84239 0.0
C1407 C 0.29694 0.82963 0.81243 0.0
C1408 C 0.31995 0.82539 0.78915 0.0
C1409 C 0.34826 0.80997 0.79611 0.0
C1410 C 0.3312 0.80129 0.84789 0.0
H1411 H 0.36551 0.80855 0.77773 0.0
H1412 H 0.33361 0.79175 0.871 0.0
H1413 H 0.40105 0.69757 0.81804 0.0
H1414 H 0.45343 0.76904 0.86369 0.0
C1415 C 0.4393 0.7979 0.78319 0.0
C1416 C 0.3497 0.73217 0.76974 0.0
C1417 C 0.41853 0.81626 0.89221 0.0
C1418 C 0.35084 0.72537 0.88338 0.0
H1419 H 0.38923 0.73446 0.71455 0.0
H1420 H 0.43927 0.77059 0.7221 0.0
H1421 H 0.47046 0.85307 0.80508 0.0
H1422 H 0.45537 0.86515 0.86412 0.0
H1423 H 0.39845 0.79221 0.95199 0.0
H1424 H 0.36251 0.74141 0.94776 0.0
H1425 H 0.30317 0.68571 0.85728 0.0
H1426 H 0.29992 0.69229 0.79572 0.0
H1427 H 0.43053 0.65745 0.84668 0.0
H1428 H 0.48469 0.73062 0.89024 0.0
H1429 H 0.28793 0.82278 0.86183 0.0
H1430 H 0.31641 0.83472 0.76576 0.0
C1431 C 0.97322 0.44718 0.48549 0.0
C1432 C 0.95286 0.47123 0.47718 0.0
C1433 C 0.94916 0.46966 0.44521 0.0
C1434 C 0.96782 0.44525 0.43556 0.0
N1435 N 0.98292 0.43125 0.45944 0.0
Co1436 Co 1.01719 0.3997 0.45549 0.0
N1437 N 0.02035 0.40477 0.40895 0.0
C1438 C 0.99898 0.41949 0.39085 0.0
C1439 C 1.00475 0.41637 0.35931 0.0
C1440 C 0.03104 0.39799 0.35726 0.0
C1441 C 0.04002 0.3911 0.38777 0.0
N1442 N 0.05344 0.37014 0.4529 0.0
C1443 C 0.07322 0.3638 0.42874 0.0
C1444 C 0.09683 0.34329 0.43803 0.0
C1445 C 0.0906 0.3351 0.46837 0.0
C1446 C 0.06404 0.35149 0.47614 0.0
N1447 N 1.01213 0.39175 0.50119 0.0
C1448 C 0.02348 0.36692 0.51708 0.0
C1449 C 1.01375 0.36586 0.54774 0.0
C1450 C 0.99543 0.39191 0.55157 0.0
C1451 C 0.99554 0.40765 0.52303 0.0
N1452 N 0.98654 0.36555 0.44703 0.0
C1453 C 0.941 0.3291 0.41609 0.0
C1454 C 0.9729 0.32182 0.4137 0.0
C1455 C 0.99515 0.34026 0.42915 0.0
C1456 C 0.93207 0.35216 0.4377 0.0
C1457 C 0.95524 0.36955 0.4536 0.0
N1458 N 0.04676 0.43519 0.46292 0.0
C1459 C 0.07523 0.46874 0.49886 0.0
C1460 C 0.07951 0.49177 0.47561 0.0
C1461 C 0.06826 0.48509 0.44561 0.0
C1462 C 0.05133 0.4575 0.44003 0.0
C1463 C 0.05986 0.44042 0.49183 0.0
H1464 H 0.04188 0.45508 0.41689 0.0
H1465 H 0.05842 0.42315 0.51019 0.0
H1466 H 0.0192 0.33509 0.42436 0.0
H1467 H 0.94753 0.38762 0.46953 0.0
C1468 C 0.97547 0.43795 0.40447 0.0
C1469 C 0.98199 0.43876 0.51811 0.0
C1470 C 0.06618 0.37005 0.39555 0.0
C1471 C 0.04811 0.34946 0.50462 0.0
H1472 H 0.94218 0.4886 0.49221 0.0
H1473 H 0.93578 0.48556 0.43061 0.0
H1474 H 0.99145 0.42629 0.34008 0.0
H1475 H 0.04214 0.39019 0.33579 0.0
H1476 H 0.11522 0.3334 0.42358 0.0
H1477 H 0.10334 0.31843 0.48269 0.0
H1478 H 0.02076 0.34931 0.56569 0.0
H1479 H 0.98438 0.39917 0.57326 0.0
H1480 H 0.9809 0.3037 0.39779 0.0
H1481 H 0.90754 0.35801 0.44086 0.0
H1482 H 0.08448 0.47227 0.52228 0.0
H1483 H 0.07279 0.50082 0.42621 0.0
C1484 C 0.65744 0.24562 0.77352 0.0
C1485 C 0.64172 0.24545 0.80208 0.0
C1486 C 0.61557 0.26364 0.79825 0.0
C1487 C 0.61656 0.27335 0.76759 0.0
N1488 N 0.64144 0.26212 0.75169 0.0
Co1489 Co 0.64932 0.26716 0.70598 0.0
N1490 N 0.61969 0.30334 0.70342 0.0
C1491 C 0.60096 0.31383 0.72664 0.0
C1492 C 0.58453 0.34038 0.71891 0.0
C1493 C 0.59279 0.34672 0.6886 0.0
C1494 C 0.61337 0.32317 0.67929 0.0
N1495 N 0.65433 0.2703 0.65945 0.0
C1496 C 0.64072 0.29004 0.6383 0.0
C1497 C 0.64758 0.28107 0.60778 0.0
C1498 C 0.66589 0.25471 0.6098 0.0
C1499 C 0.66899 0.24891 0.64133 0.0
N1500 N 0.68091 0.23293 0.70991 0.0
C1501 C 0.69481 0.21775 0.68602 0.0
C1502 C 0.71926 0.19913 0.69565 0.0
C1503 C 0.72094 0.20292 0.7276 0.0
C1504 C 0.69692 0.2233 0.73594 0.0
N1505 N 0.6152 0.23646 0.69756 0.0
C1506 C 0.57891 0.19078 0.66663 0.0
C1507 C 0.60189 0.18195 0.68836 0.0
C1508 C 0.6192 0.20519 0.70425 0.0
C1509 C 0.57163 0.22268 0.6641 0.0
C1510 C 0.58998 0.24499 0.67954 0.0
N1511 N 0.68478 0.29678 0.71333 0.0
C1512 C 0.73464 0.31829 0.69592 0.0
C1513 C 0.74133 0.32963 0.72589 0.0
C1514 C 0.71832 0.32539 0.74917 0.0
C1515 C 0.69001 0.30996 0.74221 0.0
C1516 C 0.70707 0.3013 0.69042 0.0
H1517 H 0.67276 0.30854 0.76058 0.0
H1518 H 0.70466 0.29176 0.66732 0.0
H1519 H 0.63724 0.19756 0.72026 0.0
H1520 H 0.58485 0.26903 0.67462 0.0
C1521 C 0.59897 0.29788 0.75512 0.0
C1522 C 0.68858 0.23217 0.76857 0.0
C1523 C 0.61974 0.31626 0.6461 0.0
C1524 C 0.68744 0.22537 0.65494 0.0
H1525 H 0.64904 0.23445 0.82376 0.0
H1526 H 0.599 0.27057 0.81621 0.0
H1527 H 0.56781 0.35306 0.73323 0.0
H1528 H 0.5829 0.36514 0.67419 0.0
H1529 H 0.63983 0.29221 0.58632 0.0
H1530 H 0.67577 0.24141 0.59056 0.0
H1531 H 0.73512 0.18572 0.68103 0.0
H1532 H 0.73837 0.1923 0.74259 0.0
H1533 H 0.60776 0.15744 0.69162 0.0
H1534 H 0.55358 0.23061 0.64808 0.0
H1535 H 0.75033 0.32279 0.67649 0.0
H1536 H 0.72186 0.33471 0.77256 0.0
C1537 C 0.47322 0.09109 0.55283 0.0
C1538 C 0.45287 0.06705 0.56113 0.0
C1539 C 0.44916 0.06861 0.5931 0.0
C1540 C 0.46782 0.09303 0.60276 0.0
N1541 N 0.48292 0.10703 0.57888 0.0
Co1542 Co 0.51719 0.13858 0.58282 0.0
N1543 N 0.52035 0.13351 0.62937 0.0
C1544 C 0.49898 0.11879 0.64746 0.0
C1545 C 0.50475 0.12191 0.679 0.0
C1546 C 0.53104 0.14029 0.68105 0.0
C1547 C 0.54001 0.14718 0.65054 0.0
N1548 N 0.55344 0.16814 0.58541 0.0
C1549 C 0.57322 0.17449 0.60958 0.0
C1550 C 0.59683 0.19499 0.60029 0.0
C1551 C 0.59059 0.20319 0.56994 0.0
C1552 C 0.56403 0.18679 0.56218 0.0
N1553 N 0.51213 0.14653 0.53712 0.0
C1554 C 0.52348 0.17136 0.52124 0.0
C1555 C 0.51374 0.17242 0.49058 0.0
C1556 C 0.49542 0.14637 0.48674 0.0
C1557 C 0.49554 0.13063 0.51529 0.0
N1558 N 0.48654 0.17273 0.59129 0.0
C1559 C 0.44099 0.20918 0.62222 0.0
C1560 C 0.4729 0.21646 0.62461 0.0
C1561 C 0.49514 0.19802 0.60916 0.0
C1562 C 0.43206 0.18612 0.60062 0.0
C1563 C 0.45524 0.16873 0.58472 0.0
N1564 N 0.54676 0.10309 0.5754 0.0
C1565 C 0.57523 0.06954 0.53946 0.0
C1566 C 0.57951 0.04652 0.5627 0.0
C1567 C 0.56826 0.05319 0.5927 0.0
C1568 C 0.55133 0.08078 0.59829 0.0
C1569 C 0.55986 0.09787 0.54648 0.0
H1570 H 0.54188 0.0832 0.62142 0.0
H1571 H 0.55842 0.11513 0.52812 0.0
H1572 H 0.51919 0.20319 0.61395 0.0
H1573 H 0.44753 0.15066 0.56879 0.0
C1574 C 0.47547 0.10032 0.63385 0.0
C1575 C 0.482 0.09951 0.5202 0.0
C1576 C 0.56618 0.16823 0.64276 0.0
C1577 C 0.5481 0.18882 0.5337 0.0
H1578 H 0.44219 0.04967 0.54611 0.0
H1579 H 0.43578 0.05271 0.6077 0.0
H1580 H 0.49145 0.11199 0.69823 0.0
H1581 H 0.54214 0.14809 0.70252 0.0
H1582 H 0.61522 0.20489 0.61474 0.0
H1583 H 0.60333 0.21986 0.55563 0.0
H1584 H 0.52075 0.18898 0.47263 0.0
H1585 H 0.48438 0.13911 0.46506 0.0
H1586 H 0.4809 0.23458 0.64052 0.0
H1587 H 0.40754 0.18026 0.59746 0.0
H1588 H 0.58448 0.06601 0.51604 0.0
H1589 H 0.57279 0.03746 0.61211 0.0
C1590 C 0.38084 0.29266 0.77352 0.0
C1591 C 0.39656 0.29282 0.80208 0.0
C1592 C 0.42271 0.27464 0.79825 0.0
C1593 C 0.42172 0.26492 0.76758 0.0
N1594 N 0.39684 0.27616 0.75169 0.0
Co1595 Co 0.38897 0.27112 0.70598 0.0
N1596 N 0.41859 0.23493 0.70342 0.0
C1597 C 0.43732 0.22444 0.72664 0.0
C1598 C 0.45376 0.1979 0.71891 0.0
C1599 C 0.4455 0.19156 0.6886 0.0
C1600 C 0.42491 0.2151 0.67929 0.0
N1601 N 0.38395 0.26798 0.65944 0.0
C1602 C 0.39756 0.24824 0.63829 0.0
C1603 C 0.3907 0.25721 0.60778 0.0
C1604 C 0.3724 0.28357 0.6098 0.0
C1605 C 0.36929 0.28937 0.64133 0.0
N1606 N 0.35737 0.30534 0.70991 0.0
C1607 C 0.34347 0.32053 0.68602 0.0
C1608 C 0.31903 0.33915 0.69565 0.0
C1609 C 0.31734 0.33535 0.7276 0.0
C1610 C 0.34136 0.31498 0.73593 0.0
N1611 N 0.42308 0.30181 0.69756 0.0
C1612 C 0.45937 0.34749 0.66663 0.0
C1613 C 0.43639 0.35633 0.68836 0.0
C1614 C 0.41908 0.33309 0.70425 0.0
C1615 C 0.46665 0.3156 0.66409 0.0
C1616 C 0.4483 0.29329 0.67954 0.0
N1617 N 0.3535 0.2415 0.71333 0.0
C1618 C 0.30364 0.21999 0.69592 0.0
C1619 C 0.29695 0.20865 0.72588 0.0
C1620 C 0.31996 0.21289 0.74916 0.0
C1621 C 0.34827 0.22831 0.74221 0.0
C1622 C 0.33121 0.23698 0.69042 0.0
H1623 H 0.36552 0.22974 0.76058 0.0
H1624 H 0.33362 0.24652 0.66731 0.0
H1625 H 0.40104 0.34072 0.72026 0.0
H1626 H 0.45343 0.26925 0.67462 0.0
C1627 C 0.43931 0.24039 0.75511 0.0
C1628 C 0.3497 0.3061 0.76857 0.0
C1629 C 0.41853 0.22202 0.6461 0.0
C1630 C 0.35084 0.31291 0.65493 0.0
H1631 H 0.38923 0.30383 0.82376 0.0
H1632 H 0.43928 0.2677 0.8162 0.0
H1633 H 0.47047 0.18522 0.73322 0.0
H1634 H 0.45539 0.17314 0.67419 0.0
H1635 H 0.39845 0.24607 0.58632 0.0
H1636 H 0.36251 0.29687 0.59055 0.0
H1637 H 0.30317 0.35256 0.68103 0.0
H1638 H 0.29991 0.34598 0.74259 0.0
H1639 H 0.43052 0.38084 0.69162 0.0
H1640 H 0.4847 0.30766 0.64808 0.0
H1641 H 0.28795 0.21549 0.67648 0.0
H1642 H 0.31642 0.20356 0.77255 0.0
C1643 C 0.56506 0.44718 0.55283 0.0
C1644 C 0.58542 0.47123 0.56113 0.0
C1645 C 0.58912 0.46966 0.5931 0.0
C1646 C 0.57046 0.44525 0.60275 0.0
N1647 N 0.55536 0.43125 0.57887 0.0
Co1648 Co 0.52109 0.3997 0.58282 0.0
N1649 N 0.51793 0.40477 0.62936 0.0
C1650 C 0.5393 0.41949 0.64746 0.0
C1651 C 0.53353 0.41637 0.679 0.0
C1652 C 0.50724 0.39798 0.68105 0.0
C1653 C 0.49826 0.39109 0.65054 0.0
N1654 N 0.48484 0.37014 0.58541 0.0
C1655 C 0.46506 0.3638 0.60958 0.0
C1656 C 0.44144 0.34329 0.60029 0.0
C1657 C 0.44768 0.3351 0.56994 0.0
C1658 C 0.47424 0.35149 0.56218 0.0
N1659 N 0.52615 0.39175 0.53712 0.0
C1660 C 0.5148 0.36692 0.52123 0.0
C1661 C 0.52453 0.36586 0.49058 0.0
C1662 C 0.54285 0.39191 0.48674 0.0
C1663 C 0.54274 0.40765 0.51529 0.0
N1664 N 0.55174 0.36555 0.59128 0.0
C1665 C 0.59728 0.3291 0.62222 0.0
C1666 C 0.56538 0.32182 0.62461 0.0
C1667 C 0.54313 0.34025 0.60916 0.0
C1668 C 0.60621 0.35216 0.60061 0.0
C1669 C 0.58303 0.36955 0.58472 0.0
N1670 N 0.49152 0.43519 0.57539 0.0
C1671 C 0.46304 0.46874 0.53945 0.0
C1672 C 0.45877 0.49176 0.5627 0.0
C1673 C 0.47002 0.48509 0.5927 0.0
C1674 C 0.48695 0.4575 0.59829 0.0
C1675 C 0.47842 0.44041 0.54648 0.0
H1676 H 0.4964 0.45507 0.62142 0.0
H1677 H 0.47986 0.42315 0.52811 0.0
H1678 H 0.51908 0.33509 0.61395 0.0
H1679 H 0.59075 0.38762 0.56878 0.0
C1680 C 0.56281 0.43795 0.63384 0.0
C1681 C 0.55628 0.43876 0.5202 0.0
C1682 C 0.47209 0.37005 0.64276 0.0
C1683 C 0.49017 0.34946 0.5337 0.0
H1684 H 0.59609 0.4886 0.5461 0.0
H1685 H 0.6025 0.48556 0.6077 0.0
H1686 H 0.54683 0.42629 0.69823 0.0
H1687 H 0.49614 0.39019 0.70252 0.0
H1688 H 0.42305 0.3334 0.61474 0.0
H1689 H 0.43494 0.31842 0.55562 0.0
H1690 H 0.51752 0.34931 0.47263 0.0
H1691 H 0.5539 0.39917 0.46506 0.0
H1692 H 0.55738 0.3037 0.64052 0.0
H1693 H 0.63073 0.35801 0.59746 0.0
H1694 H 0.4538 0.47227 0.51604 0.0
H1695 H 0.46549 0.50082 0.61211 0.0
C1696 C 0.76477 0.65744 0.79268 0.0
C1697 C 0.73621 0.64172 0.79284 0.0
C1698 C 0.74004 0.61558 0.77465 0.0
C1699 C 0.77071 0.61657 0.76493 0.0
N1700 N 0.7866 0.64144 0.77617 0.0
Co1701 Co 0.83231 0.64932 0.77114 0.0
N1702 N 0.83487 0.61969 0.73494 0.0
C1703 C 0.81165 0.60097 0.72445 0.0
C1704 C 0.81939 0.58453 0.69791 0.0
C1705 C 0.84969 0.59279 0.69157 0.0
C1706 C 0.859 0.61337 0.71512 0.0
N1707 N 0.87885 0.65434 0.76799 0.0
C1708 C 0.89999 0.64073 0.74825 0.0
C1709 C 0.93051 0.64759 0.75722 0.0
C1710 C 0.92849 0.66589 0.78359 0.0
C1711 C 0.89696 0.66899 0.78939 0.0
N1712 N 0.82838 0.68091 0.80536 0.0
C1713 C 0.85227 0.69481 0.82054 0.0
C1714 C 0.84264 0.71926 0.83917 0.0
C1715 C 0.81069 0.72094 0.83538 0.0
C1716 C 0.80236 0.69692 0.815 0.0
N1717 N 0.84073 0.6152 0.80183 0.0
C1718 C 0.87166 0.57891 0.84751 0.0
C1719 C 0.84992 0.60189 0.85635 0.0
C1720 C 0.83404 0.6192 0.8331 0.0
C1721 C 0.8742 0.57164 0.81561 0.0
C1722 C 0.85875 0.58999 0.7933 0.0
N1723 N 0.82496 0.68479 0.74152 0.0
C1724 C 0.84237 0.73465 0.72001 0.0
C1725 C 0.81241 0.74133 0.70867 0.0
C1726 C 0.78913 0.71833 0.7129 0.0
C1727 C 0.79609 0.69001 0.72833 0.0
C1728 C 0.84787 0.70708 0.737 0.0
H1729 H 0.77771 0.67276 0.72975 0.0
H1730 H 0.87097 0.70467 0.74654 0.0
H1731 H 0.81803 0.63724 0.84074 0.0
H1732 H 0.86367 0.58485 0.76926 0.0
C1733 C 0.78318 0.59898 0.7404 0.0
C1734 C 0.76973 0.68858 0.80613 0.0
C1735 C 0.89219 0.61975 0.72204 0.0
C1736 C 0.88335 0.68744 0.81293 0.0
H1737 H 0.71453 0.64905 0.80384 0.0
H1738 H 0.72209 0.59901 0.76771 0.0
H1739 H 0.80507 0.56782 0.68523 0.0
H1740 H 0.86411 0.5829 0.67315 0.0
H1741 H 0.95197 0.63983 0.74608 0.0
H1742 H 0.94773 0.67577 0.79689 0.0
H1743 H 0.85726 0.73511 0.85259 0.0
H1744 H 0.7957 0.73837 0.846 0.0
H1745 H 0.84666 0.60775 0.88085 0.0
H1746 H 0.89022 0.55359 0.80768 0.0
H1747 H 0.86181 0.75034 0.71551 0.0
H1748 H 0.76574 0.72187 0.70357 0.0
C1749 C 0.94719 0.98547 0.47323 0.0
C1750 C 0.97123 0.97716 0.45287 0.0
C1751 C 0.96967 0.94519 0.44917 0.0
C1752 C 0.94526 0.93554 0.46783 0.0
N1753 N 0.93125 0.95942 0.48293 0.0
Co1754 Co 0.8997 0.95547 0.5172 0.0
N1755 N 0.90477 0.90893 0.52036 0.0
C1756 C 0.9195 0.89084 0.499 0.0
C1757 C 0.91638 0.8593 0.50476 0.0
C1758 C 0.89799 0.85725 0.53106 0.0
C1759 C 0.8911 0.88776 0.54003 0.0
N1760 N 0.87014 0.95288 0.55345 0.0
C1761 C 0.86381 0.92872 0.57323 0.0
C1762 C 0.8433 0.93801 0.59685 0.0
C1763 C 0.83511 0.96836 0.59062 0.0
C1764 C 0.8515 0.97612 0.56405 0.0
N1765 N 0.89175 1.00117 0.51214 0.0
C1766 C 0.86692 1.01706 0.52349 0.0
C1767 C 0.86586 0.04772 0.51376 0.0
C1768 C 0.89191 0.05155 0.49543 0.0
C1769 C 0.90766 0.02301 0.49555 0.0
N1770 N 0.86556 0.94701 0.48655 0.0
C1771 C 0.82911 0.91607 0.44101 0.0
C1772 C 0.82183 0.91368 0.47292 0.0
C1773 C 0.84026 0.92913 0.49516 0.0
C1774 C 0.85216 0.93768 0.43208 0.0
C1775 C 0.86955 0.95357 0.45525 0.0
N1776 N 0.9352 0.9629 0.54677 0.0
C1777 C 0.96874 0.99884 0.57525 0.0
C1778 C 0.99177 0.9756 0.57953 0.0
C1779 C 0.9851 0.9456 0.56827 0.0
C1780 C 0.95751 0.94002 0.55134 0.0
C1781 C 0.94042 0.99182 0.55988 0.0
H1782 H 0.95509 0.91688 0.54189 0.0
H1783 H 0.92315 1.01018 0.55844 0.0
H1784 H 0.83509 0.92435 0.51921 0.0
H1785 H 0.88762 0.9695 0.44754 0.0
C1786 C 0.93796 0.90445 0.47548 0.0
C1787 C 0.93876 1.01809 0.482 0.0
C1788 C 0.87005 0.89553 0.5662 0.0
C1789 C 0.84947 1.0046 0.54812 0.0
H1790 H 0.9886 0.99219 0.44219 0.0
H1791 H 0.98557 0.93059 0.43579 0.0
H1792 H 0.9263 0.84007 0.49147 0.0
H1793 H 0.8902 0.83578 0.54215 0.0
H1794 H 0.83341 0.92356 0.61525 0.0
H1795 H 0.81844 0.98267 0.60336 0.0
H1796 H 0.84931 0.06566 0.52077 0.0
H1797 H 0.89917 0.07323 0.48439 0.0
H1798 H 0.80371 0.89778 0.48092 0.0
H1799 H 0.85802 0.94083 0.40756 0.0
H1800 H 0.97227 0.02226 0.5845 0.0
H1801 H 1.00083 0.9262 0.5728 0.0
C1802 C 0.2735 0.88084 0.79268 0.0
C1803 C 0.30206 0.89656 0.79285 0.0
C1804 C 0.29823 0.9227 0.77465 0.0
C1805 C 0.26756 0.92171 0.76494 0.0
N1806 N 0.25167 0.89683 0.77618 0.0
Co1807 Co 0.20596 0.88896 0.77114 0.0
N1808 N 0.2034 0.91859 0.73495 0.0
C1809 C 0.22662 0.93731 0.72446 0.0
C1810 C 0.21889 0.95375 0.69791 0.0
C1811 C 0.18858 0.94549 0.69157 0.0
C1812 C 0.17928 0.9249 0.71512 0.0
N1813 N 0.15942 0.88394 0.768 0.0
C1814 C 0.13828 0.89755 0.74826 0.0
C1815 C 0.10776 0.89069 0.75722 0.0
C1816 C 0.10978 0.87239 0.78359 0.0
C1817 C 0.14131 0.86929 0.78939 0.0
N1818 N 0.20989 0.85736 0.80537 0.0
C1819 C 0.186 0.84347 0.82055 0.0
C1820 C 0.19562 0.81902 0.83918 0.0
C1821 C 0.22758 0.81734 0.83538 0.0
C1822 C 0.23591 0.84136 0.815 0.0
N1823 N 0.19754 0.92307 0.80183 0.0
C1824 C 0.16661 0.95937 0.84751 0.0
C1825 C 0.18834 0.93639 0.85635 0.0
C1826 C 0.20423 0.91907 0.83311 0.0
C1827 C 0.16407 0.96665 0.81562 0.0
C1828 C 0.17952 0.94829 0.79331 0.0
N1829 N 0.21331 0.85349 0.74152 0.0
C1830 C 0.1959 0.80363 0.72001 0.0
C1831 C 0.22586 0.79695 0.70867 0.0
C1832 C 0.24914 0.81996 0.7129 0.0
C1833 C 0.24218 0.84827 0.72833 0.0
C1834 C 0.1904 0.8312 0.73701 0.0
H1835 H 0.26056 0.86552 0.72975 0.0
H1836 H 0.1673 0.83361 0.74655 0.0
H1837 H 0.22023 0.90104 0.84074 0.0
H1838 H 0.1746 0.95343 0.76927 0.0
C1839 C 0.25509 0.9393 0.74041 0.0
C1840 C 0.26854 0.8497 0.80613 0.0
C1841 C 0.14609 0.91853 0.72204 0.0
C1842 C 0.15491 0.85083 0.81293 0.0
H1843 H 0.32374 0.88923 0.80385 0.0
H1844 H 0.31618 0.93927 0.76772 0.0
H1845 H 0.23321 0.97046 0.68524 0.0
H1846 H 0.17417 0.95538 0.67315 0.0
H1847 H 0.0863 0.89845 0.74608 0.0
H1848 H 0.09054 0.8625 0.79689 0.0
H1849 H 0.18101 0.80316 0.85259 0.0
H1850 H 0.24257 0.79991 0.84601 0.0
H1851 H 0.1916 0.93052 0.88086 0.0
H1852 H 0.14806 0.98469 0.80768 0.0
H1853 H 0.17647 0.78793 0.71552 0.0
H1854 H 0.27253 0.81642 0.70358 0.0
C1855 C 0.09109 0.55281 0.47323 0.0
C1856 C 0.06705 0.56112 0.45288 0.0
C1857 C 0.06862 0.59309 0.44917 0.0
C1858 C 0.09303 0.60274 0.46783 0.0
N1859 N 0.10703 0.57886 0.48293 0.0
Co1860 Co 0.13858 0.58281 0.51721 0.0
N1861 N 0.13351 0.62935 0.52036 0.0
C1862 C 0.11879 0.64744 0.499 0.0
C1863 C 0.1219 0.67898 0.50476 0.0
C1864 C 0.14029 0.68103 0.53106 0.0
C1865 C 0.14718 0.65052 0.54003 0.0
N1866 N 0.16814 0.5854 0.55346 0.0
C1867 C 0.17448 0.60956 0.57324 0.0
C1868 C 0.19499 0.60027 0.59685 0.0
C1869 C 0.20318 0.56993 0.59062 0.0
C1870 C 0.18678 0.56216 0.56406 0.0
N1871 N 0.14653 0.53711 0.51214 0.0
C1872 C 0.17136 0.52122 0.5235 0.0
C1873 C 0.17242 0.49056 0.51377 0.0
C1874 C 0.14637 0.48673 0.49544 0.0
C1875 C 0.13062 0.51528 0.49556 0.0
N1876 N 0.17273 0.59127 0.48656 0.0
C1877 C 0.20918 0.62221 0.44102 0.0
C1878 C 0.21645 0.6246 0.47292 0.0
C1879 C 0.19802 0.60915 0.49516 0.0
C1880 C 0.18612 0.6006 0.43208 0.0
C1881 C 0.16873 0.5847 0.45526 0.0
N1882 N 0.10308 0.57538 0.54678 0.0
C1883 C 0.06954 0.53944 0.57526 0.0
C1884 C 0.04651 0.56269 0.57953 0.0
C1885 C 0.05318 0.59268 0.56828 0.0
C1886 C 0.08077 0.59827 0.55134 0.0
C1887 C 0.09786 0.54647 0.55988 0.0
H1888 H 0.08319 0.6214 0.54189 0.0
H1889 H 0.11513 0.5281 0.55844 0.0
H1890 H 0.20318 0.61393 0.51921 0.0
H1891 H 0.15066 0.56877 0.44754 0.0
C1892 C 0.10032 0.63383 0.47548 0.0
C1893 C 0.09952 0.52019 0.48201 0.0
C1894 C 0.16822 0.64275 0.5662 0.0
C1895 C 0.18881 0.53368 0.54813 0.0
H1896 H 0.04968 0.54609 0.4422 0.0
H1897 H 0.05272 0.60769 0.43579 0.0
H1898 H 0.11198 0.69821 0.49146 0.0
H1899 H 0.14808 0.7025 0.54216 0.0
H1900 H 0.20488 0.61472 0.61525 0.0
H1901 H 0.21985 0.55561 0.60336 0.0
H1902 H 0.18897 0.47262 0.52077 0.0
H1903 H 0.13911 0.46505 0.4844 0.0
H1904 H 0.23458 0.64051 0.48092 0.0
H1905 H 0.18027 0.59744 0.40756 0.0
H1906 H 0.06601 0.51602 0.58451 0.0
H1907 H 0.03744 0.61209 0.5728 0.0
C1908 C 0.76477 0.38084 0.74564 0.0
C1909 C 0.73621 0.39656 0.74548 0.0
C1910 C 0.74004 0.4227 0.76367 0.0
C1911 C 0.7707 0.42171 0.77339 0.0
N1912 N 0.7866 0.39684 0.76214 0.0
Co1913 Co 0.83231 0.38896 0.76718 0.0
N1914 N 0.83487 0.41859 0.80337 0.0
C1915 C 0.81165 0.43731 0.81386 0.0
C1916 C 0.81938 0.45375 0.84041 0.0
C1917 C 0.84969 0.44549 0.84675 0.0
C1918 C 0.85899 0.42491 0.8232 0.0
N1919 N 0.87884 0.38395 0.77032 0.0
C1920 C 0.89999 0.39755 0.79006 0.0
C1921 C 0.93051 0.39069 0.78109 0.0
C1922 C 0.92849 0.37239 0.75473 0.0
C1923 C 0.89695 0.36929 0.74893 0.0
N1924 N 0.82838 0.35737 0.73295 0.0
C1925 C 0.85227 0.34347 0.71777 0.0
C1926 C 0.84264 0.31903 0.69914 0.0
C1927 C 0.81069 0.31735 0.70294 0.0
C1928 C 0.80236 0.34136 0.72332 0.0
N1929 N 0.84073 0.42308 0.73649 0.0
C1930 C 0.87166 0.45937 0.69081 0.0
C1931 C 0.84992 0.43639 0.68197 0.0
C1932 C 0.83403 0.41908 0.70522 0.0
C1933 C 0.8742 0.46665 0.72271 0.0
C1934 C 0.85875 0.44829 0.74501 0.0
N1935 N 0.82496 0.35349 0.7968 0.0
C1936 C 0.84237 0.30363 0.81831 0.0
C1937 C 0.81241 0.29695 0.82965 0.0
C1938 C 0.78913 0.31995 0.82542 0.0
C1939 C 0.79609 0.34826 0.80999 0.0
C1940 C 0.84787 0.3312 0.80132 0.0
H1941 H 0.77771 0.36551 0.80857 0.0
H1942 H 0.87097 0.33361 0.79178 0.0
H1943 H 0.81803 0.40104 0.69758 0.0
H1944 H 0.86367 0.45343 0.76905 0.0
C1945 C 0.78318 0.4393 0.79792 0.0
C1946 C 0.76973 0.3497 0.73219 0.0
C1947 C 0.89218 0.41853 0.81628 0.0
C1948 C 0.88335 0.35084 0.72539 0.0
H1949 H 0.71453 0.38923 0.73447 0.0
H1950 H 0.72209 0.43927 0.77061 0.0
H1951 H 0.80506 0.47046 0.85309 0.0
H1952 H 0.8641 0.45538 0.86517 0.0
H1953 H 0.95197 0.39845 0.79223 0.0
H1954 H 0.94773 0.36251 0.74143 0.0
H1955 H 0.85726 0.30317 0.68573 0.0
H1956 H 0.7957 0.29992 0.69231 0.0
H1957 H 0.84666 0.43053 0.65746 0.0
H1958 H 0.89021 0.48469 0.73064 0.0
H1959 H 0.86181 0.28794 0.82281 0.0
H1960 H 0.76574 0.31641 0.83474 0.0
C1961 C 0.59109 0.98547 0.56508 0.0
C1962 C 0.56704 0.97716 0.58543 0.0
C1963 C 0.56861 0.94519 0.58913 0.0
C1964 C 0.59302 0.93554 0.57047 0.0
N1965 N 0.60702 0.95942 0.55538 0.0
Co1966 Co 0.63858 0.95547 0.52111 0.0
N1967 N 0.6335 0.90893 0.51795 0.0
C1968 C 0.61878 0.89084 0.53931 0.0
C1969 C 0.6219 0.85929 0.53355 0.0
C1970 C 0.64029 0.85725 0.50725 0.0
C1971 C 0.64718 0.88776 0.49828 0.0
N1972 N 0.66814 0.95288 0.48485 0.0
C1973 C 0.67448 0.92872 0.46508 0.0
C1974 C 0.69499 0.93801 0.44146 0.0
C1975 C 0.70318 0.96835 0.4477 0.0
C1976 C 0.68678 0.97612 0.47426 0.0
N1977 N 0.64653 1.00117 0.52617 0.0
C1978 C 0.67136 1.01706 0.51481 0.0
C1979 C 0.67242 0.04771 0.52455 0.0
C1980 C 0.64637 0.05155 0.54287 0.0
C1981 C 0.63062 0.023 0.54276 0.0
N1982 N 0.67272 0.94701 0.55176 0.0
C1983 C 0.70918 0.91607 0.5973 0.0
C1984 C 0.71645 0.91369 0.56539 0.0
C1985 C 0.69802 0.92913 0.54315 0.0
C1986 C 0.68611 0.93767 0.60623 0.0
C1987 C 0.66872 0.95357 0.58306 0.0
N1988 N 0.60308 0.9629 0.49153 0.0
C1989 C 0.56954 0.99884 0.46306 0.0
C1990 C 0.54651 0.97559 0.45878 0.0
C1991 C 0.55318 0.94559 0.47003 0.0
C1992 C 0.58078 0.94001 0.48696 0.0
C1993 C 0.59786 0.99181 0.47843 0.0
H1994 H 0.5832 0.91688 0.49641 0.0
H1995 H 0.61512 1.01018 0.47987 0.0
H1996 H 0.70319 0.92435 0.5191 0.0
H1997 H 0.65065 0.9695 0.59077 0.0
C1998 C 0.60031 0.90445 0.56282 0.0
C1999 C 0.59951 1.01809 0.5563 0.0
C2000 C 0.66822 0.89553 0.47211 0.0
C2001 C 0.68881 1.00459 0.49019 0.0
H2002 H 0.54967 0.99219 0.59611 0.0
H2003 H 0.5527 0.9306 0.60251 0.0
H2004 H 0.61198 0.84007 0.54685 0.0
H2005 H 0.64808 0.83578 0.49616 0.0
H2006 H 0.70488 0.92356 0.42307 0.0
H2007 H 0.71985 0.98267 0.43496 0.0
H2008 H 0.68897 0.06566 0.51754 0.0
H2009 H 0.63911 0.07323 0.55392 0.0
H2010 H 0.73458 0.89778 0.5574 0.0
H2011 H 0.68025 0.94082 0.63075 0.0
H2012 H 0.566 0.02226 0.45381 0.0
H2013 H 0.53745 0.92619 0.4655 0.0
C2014 C 0.27351 0.15744 0.74564 0.0
C2015 C 0.30207 0.14172 0.74547 0.0
C2016 C 0.29824 0.11558 0.76367 0.0
C2017 C 0.26757 0.11657 0.77338 0.0
N2018 N 0.25168 0.14145 0.76214 0.0
Co2019 Co 0.20597 0.14932 0.76718 0.0
N2020 N 0.20341 0.1197 0.80337 0.0
C2021 C 0.22663 0.10097 0.81386 0.0
C2022 C 0.21889 0.08454 0.84041 0.0
C2023 C 0.18859 0.0928 0.84675 0.0
C2024 C 0.17928 0.11338 0.8232 0.0
N2025 N 0.15943 0.15434 0.77032 0.0
C2026 C 0.13829 0.14073 0.79006 0.0
C2027 C 0.10777 0.14759 0.78109 0.0
C2028 C 0.10979 0.16589 0.75473 0.0
C2029 C 0.14132 0.16899 0.74893 0.0
N2030 N 0.2099 0.18091 0.73295 0.0
C2031 C 0.18601 0.19481 0.71777 0.0
C2032 C 0.19564 0.21926 0.69914 0.0
C2033 C 0.22759 0.22094 0.70293 0.0
C2034 C 0.23592 0.19692 0.72331 0.0
N2035 N 0.19755 0.11521 0.73649 0.0
C2036 C 0.16661 0.07892 0.69081 0.0
C2037 C 0.18835 0.10189 0.68197 0.0
C2038 C 0.20424 0.11921 0.70521 0.0
C2039 C 0.16408 0.07164 0.72271 0.0
C2040 C 0.17953 0.08999 0.74501 0.0
N2041 N 0.21332 0.18479 0.7968 0.0
C2042 C 0.19591 0.23465 0.81831 0.0
C2043 C 0.22587 0.24134 0.82965 0.0
C2044 C 0.24915 0.21833 0.82541 0.0
C2045 C 0.24219 0.19002 0.80998 0.0
C2046 C 0.19041 0.20708 0.80131 0.0
H2047 H 0.26057 0.17277 0.80856 0.0
H2048 H 0.16731 0.20467 0.79178 0.0
H2049 H 0.22025 0.13724 0.69758 0.0
H2050 H 0.17461 0.08485 0.76905 0.0
C2051 C 0.2551 0.09899 0.79792 0.0
C2052 C 0.26855 0.18858 0.73218 0.0
C2053 C 0.14609 0.11975 0.81628 0.0
C2054 C 0.15492 0.18745 0.72539 0.0
H2055 H 0.32375 0.14905 0.73447 0.0
H2056 H 0.31619 0.09901 0.77061 0.0
H2057 H 0.23321 0.06783 0.85309 0.0
H2058 H 0.17417 0.08291 0.86517 0.0
H2059 H 0.08631 0.13983 0.79223 0.0
H2060 H 0.09055 0.17578 0.74143 0.0
H2061 H 0.18102 0.23511 0.68573 0.0
H2062 H 0.24258 0.23837 0.69231 0.0
H2063 H 0.19161 0.10775 0.65746 0.0
H2064 H 0.14806 0.05359 0.73064 0.0
H2065 H 0.17647 0.25034 0.82281 0.0
H2066 H 0.27254 0.22187 0.83473 0.0
C2067 C 0.44719 0.55281 0.56508 0.0
C2068 C 0.47123 0.56112 0.58543 0.0
C2069 C 0.46966 0.59308 0.58914 0.0
C2070 C 0.44525 0.60274 0.57048 0.0
N2071 N 0.43125 0.57886 0.55538 0.0
Co2072 Co 0.3997 0.5828 0.52111 0.0
N2073 N 0.40477 0.62935 0.51795 0.0
C2074 C 0.41949 0.64744 0.53931 0.0
C2075 C 0.41638 0.67898 0.53354 0.0
C2076 C 0.39799 0.68103 0.50725 0.0
C2077 C 0.3911 0.65052 0.49828 0.0
N2078 N 0.37014 0.58539 0.48485 0.0
C2079 C 0.3638 0.60956 0.46507 0.0
C2080 C 0.34329 0.60027 0.44146 0.0
C2081 C 0.3351 0.56992 0.4477 0.0
C2082 C 0.35149 0.56216 0.47426 0.0
N2083 N 0.39175 0.5371 0.52617 0.0
C2084 C 0.36692 0.52122 0.51482 0.0
C2085 C 0.36586 0.49056 0.52455 0.0
C2086 C 0.39191 0.48673 0.54287 0.0
C2087 C 0.40765 0.51527 0.54276 0.0
N2088 N 0.36555 0.59127 0.55175 0.0
C2089 C 0.3291 0.62221 0.5973 0.0
C2090 C 0.32182 0.62459 0.56539 0.0
C2091 C 0.34026 0.60915 0.54315 0.0
C2092 C 0.35216 0.6006 0.60623 0.0
C2093 C 0.36955 0.5847 0.58305 0.0
N2094 N 0.43519 0.57538 0.49153 0.0
C2095 C 0.46873 0.53943 0.46306 0.0
C2096 C 0.49176 0.56268 0.45878 0.0
C2097 C 0.48509 0.59268 0.47003 0.0
C2098 C 0.4575 0.59826 0.48697 0.0
C2099 C 0.44041 0.54646 0.47843 0.0
H2100 H 0.45508 0.6214 0.49642 0.0
H2101 H 0.42315 0.5281 0.47987 0.0
H2102 H 0.33509 0.61393 0.5191 0.0
H2103 H 0.38762 0.56877 0.59077 0.0
C2104 C 0.43796 0.63383 0.56282 0.0
C2105 C 0.43876 0.52018 0.5563 0.0
C2106 C 0.37005 0.64274 0.47211 0.0
C2107 C 0.34946 0.53368 0.49019 0.0
H2108 H 0.4886 0.54609 0.59611 0.0
H2109 H 0.48556 0.60768 0.60252 0.0
H2110 H 0.42629 0.69821 0.54684 0.0
H2111 H 0.3902 0.7025 0.49615 0.0
H2112 H 0.3334 0.61472 0.42307 0.0
H2113 H 0.31843 0.55561 0.43496 0.0
H2114 H 0.34931 0.47262 0.51754 0.0
H2115 H 0.39917 0.46504 0.55392 0.0
H2116 H 0.3037 0.6405 0.55739 0.0
H2117 H 0.35801 0.59745 0.63075 0.0
H2118 H 0.47226 0.51601 0.45381 0.0
H2119 H 0.50083 0.61208 0.4655 0.0
C2120 C 0.79266 0.76478 0.65745 0.0
C2121 C 0.79283 0.73622 0.64173 0.0
C2122 C 0.77464 0.74005 0.61559 0.0
C2123 C 0.76492 0.77071 0.61658 0.0
N2124 N 0.77616 0.7866 0.64145 0.0
Co2125 Co 0.77112 0.83231 0.64933 0.0
N2126 N 0.73493 0.83488 0.6197 0.0
C2127 C 0.72445 0.81166 0.60097 0.0
C2128 C 0.6979 0.81939 0.58453 0.0
C2129 C 0.69156 0.84969 0.59279 0.0
C2130 C 0.7151 0.859 0.61338 0.0
N2131 N 0.76797 0.87885 0.65434 0.0
C2132 C 0.74823 0.9 0.64074 0.0
C2133 C 0.7572 0.93052 0.6476 0.0
C2134 C 0.78356 0.9285 0.6659 0.0
C2135 C 0.78937 0.89696 0.669 0.0
N2136 N 0.80534 0.82839 0.68092 0.0
C2137 C 0.82052 0.85228 0.69482 0.0
C2138 C 0.83915 0.84265 0.71927 0.0
C2139 C 0.83535 0.8107 0.72095 0.0
C2140 C 0.81498 0.80236 0.69693 0.0
N2141 N 0.80181 0.84074 0.61521 0.0
C2142 C 0.84749 0.87167 0.57893 0.0
C2143 C 0.85633 0.84993 0.6019 0.0
C2144 C 0.83308 0.83404 0.61921 0.0
C2145 C 0.8156 0.87421 0.57165 0.0
C2146 C 0.79329 0.85876 0.59 0.0
N2147 N 0.7415 0.82496 0.6848 0.0
C2148 C 0.71999 0.84237 0.73466 0.0
C2149 C 0.70864 0.81241 0.74134 0.0
C2150 C 0.71288 0.78913 0.71833 0.0
C2151 C 0.72831 0.79609 0.69002 0.0
C2152 C 0.73698 0.84787 0.70709 0.0
H2153 H 0.72973 0.77772 0.67277 0.0
H2154 H 0.74652 0.87097 0.70468 0.0
H2155 H 0.84071 0.81803 0.63725 0.0
H2156 H 0.76925 0.86369 0.58487 0.0
C2157 C 0.74039 0.78318 0.59898 0.0
C2158 C 0.80611 0.76973 0.68859 0.0
C2159 C 0.72202 0.89219 0.61976 0.0
C2160 C 0.8129 0.88336 0.68745 0.0
H2161 H 0.80383 0.71454 0.64906 0.0
H2162 H 0.76771 0.72209 0.59901 0.0
H2163 H 0.68523 0.80507 0.56781 0.0
H2164 H 0.67313 0.8641 0.5829 0.0
H2165 H 0.74606 0.95197 0.63984 0.0
H2166 H 0.79686 0.94774 0.67579 0.0
H2167 H 0.85256 0.85727 0.73513 0.0
H2168 H 0.84598 0.79571 0.73838 0.0
H2169 H 0.88084 0.84666 0.60777 0.0
H2170 H 0.80767 0.89023 0.5536 0.0
H2171 H 0.71549 0.8618 0.75035 0.0
H2172 H 0.70356 0.76574 0.72187 0.0
C2173 C 0.79266 0.2735 0.88086 0.0
C2174 C 0.79282 0.30206 0.89658 0.0
C2175 C 0.77463 0.29823 0.92273 0.0
C2176 C 0.76491 0.26756 0.92174 0.0
N2177 N 0.77615 0.25167 0.89686 0.0
Co2178 Co 0.77112 0.20596 0.88898 0.0
N2179 N 0.73493 0.2034 0.91861 0.0
C2180 C 0.72444 0.22662 0.93734 0.0
C2181 C 0.69789 0.21889 0.95377 0.0
C2182 C 0.69155 0.18858 0.94551 0.0
C2183 C 0.7151 0.17928 0.92493 0.0
N2184 N 0.76797 0.15943 0.88397 0.0
C2185 C 0.74823 0.13828 0.89757 0.0
C2186 C 0.7572 0.10776 0.89071 0.0
C2187 C 0.78357 0.10978 0.87241 0.0
C2188 C 0.78937 0.14132 0.86931 0.0
N2189 N 0.80534 0.20989 0.85739 0.0
C2190 C 0.82053 0.186 0.84349 0.0
C2191 C 0.83916 0.19563 0.81905 0.0
C2192 C 0.83536 0.22758 0.81737 0.0
C2193 C 0.81498 0.23591 0.84138 0.0
N2194 N 0.80181 0.19754 0.9231 0.0
C2195 C 0.84749 0.16661 0.95939 0.0
C2196 C 0.85633 0.18835 0.93642 0.0
C2197 C 0.83308 0.20424 0.9191 0.0
C2198 C 0.81559 0.16407 0.96667 0.0
C2199 C 0.79328 0.17952 0.94831 0.0
N2200 N 0.7415 0.21331 0.85351 0.0
C2201 C 0.71999 0.19591 0.80365 0.0
C2202 C 0.70865 0.22586 0.79697 0.0
C2203 C 0.71288 0.24914 0.81998 0.0
C2204 C 0.72831 0.24219 0.84829 0.0
C2205 C 0.73699 0.1904 0.83122 0.0
H2206 H 0.72973 0.26056 0.86554 0.0
H2207 H 0.74653 0.1673 0.83363 0.0
H2208 H 0.84071 0.22025 0.90107 0.0
H2209 H 0.76924 0.17459 0.95345 0.0
C2210 C 0.74039 0.25509 0.93933 0.0
C2211 C 0.80611 0.26855 0.84972 0.0
C2212 C 0.72201 0.14609 0.91855 0.0
C2213 C 0.81291 0.15492 0.85086 0.0
H2214 H 0.80383 0.32374 0.88926 0.0
H2215 H 0.7677 0.31618 0.9393 0.0
H2216 H 0.68522 0.2332 0.97049 0.0
H2217 H 0.67313 0.17417 0.9554 0.0
H2218 H 0.74606 0.0863 0.89847 0.0
H2219 H 0.79687 0.09054 0.86253 0.0
H2220 H 0.85257 0.18101 0.80319 0.0
H2221 H 0.84599 0.24257 0.79994 0.0
H2222 H 0.88083 0.19162 0.93055 0.0
H2223 H 0.80766 0.14805 0.98471 0.0
H2224 H 0.7155 0.17647 0.78795 0.0
H2225 H 0.70356 0.27253 0.81644 0.0
C2226 C 0.48546 0.97322 0.4472 0.0
C2227 C 0.47716 0.95286 0.47124 0.0
C2228 C 0.44519 0.94916 0.46968 0.0
C2229 C 0.43554 0.96782 0.44526 0.0
N2230 N 0.45942 0.98292 0.43126 0.0
Co2231 Co 0.45547 1.01719 0.39971 0.0
N2232 N 0.40893 0.02035 0.40478 0.0
C2233 C 0.39083 0.99899 0.4195 0.0
C2234 C 0.35929 1.00475 0.41639 0.0
C2235 C 0.35725 0.03105 0.398 0.0
C2236 C 0.38775 0.04002 0.39111 0.0
N2237 N 0.45288 0.05344 0.37015 0.0
C2238 C 0.42872 0.07322 0.36381 0.0
C2239 C 0.43801 0.09683 0.3433 0.0
C2240 C 0.46835 0.09059 0.3351 0.0
C2241 C 0.47611 0.06403 0.3515 0.0
N2242 N 0.50117 1.01213 0.39176 0.0
C2243 C 0.51706 0.02348 0.36693 0.0
C2244 C 0.54771 1.01375 0.36587 0.0
C2245 C 0.55155 0.99543 0.39192 0.0
C2246 C 0.523 0.99554 0.40767 0.0
N2247 N 0.44701 0.98654 0.36556 0.0
C2248 C 0.41607 0.941 0.32911 0.0
C2249 C 0.41368 0.9729 0.32184 0.0
C2250 C 0.42912 0.99515 0.34027 0.0
C2251 C 0.43768 0.93207 0.35217 0.0
C2252 C 0.45358 0.95524 0.36956 0.0
N2253 N 0.4629 0.04676 0.43521 0.0
C2254 C 0.49884 0.07524 0.46875 0.0
C2255 C 0.47559 0.07951 0.49178 0.0
C2256 C 0.44559 0.06826 0.48511 0.0
C2257 C 0.44001 0.05133 0.45751 0.0
C2258 C 0.49181 0.05986 0.44042 0.0
H2259 H 0.41688 0.04187 0.4551 0.0
H2260 H 0.51017 0.05842 0.42316 0.0
H2261 H 0.42433 0.0192 0.33511 0.0
H2262 H 0.46951 0.94753 0.38763 0.0
C2263 C 0.40445 0.97547 0.43797 0.0
C2264 C 0.51809 0.98199 0.43877 0.0
C2265 C 0.39553 0.06619 0.37007 0.0
C2266 C 0.50459 0.0481 0.34947 0.0
H2267 H 0.49218 0.94218 0.48861 0.0
H2268 H 0.43059 0.93578 0.48558 0.0
H2269 H 0.34006 0.99145 0.42631 0.0
H2270 H 0.33578 0.04214 0.39021 0.0
H2271 H 0.42356 0.11523 0.33341 0.0
H2272 H 0.48267 0.10333 0.31843 0.0
H2273 H 0.56566 0.02075 0.34932 0.0
H2274 H 0.57323 0.98438 0.39918 0.0
H2275 H 0.39776 0.9809 0.30372 0.0
H2276 H 0.44084 0.90755 0.35802 0.0
H2277 H 0.52226 0.08449 0.47228 0.0
H2278 H 0.42619 0.07278 0.50085 0.0
C2279 C 0.24562 0.26478 0.88086 0.0
C2280 C 0.24546 0.23622 0.89658 0.0
C2281 C 0.26365 0.24005 0.92272 0.0
C2282 C 0.27336 0.27072 0.92173 0.0
N2283 N 0.26212 0.28661 0.89686 0.0
Co2284 Co 0.26716 0.33232 0.88898 0.0
N2285 N 0.30335 0.33488 0.91861 0.0
C2286 C 0.31384 0.31166 0.93734 0.0
C2287 C 0.34038 0.31939 0.95378 0.0
C2288 C 0.34673 0.3497 0.94551 0.0
C2289 C 0.32318 0.359 0.92493 0.0
N2290 N 0.27031 0.37885 0.88397 0.0
C2291 C 0.29005 0.4 0.89757 0.0
C2292 C 0.28108 0.43052 0.89071 0.0
C2293 C 0.25472 0.4285 0.87241 0.0
C2294 C 0.24891 0.39696 0.86931 0.0
N2295 N 0.23294 0.32839 0.85739 0.0
C2296 C 0.21775 0.35228 0.84349 0.0
C2297 C 0.19912 0.34265 0.81905 0.0
C2298 C 0.20292 0.3107 0.81736 0.0
C2299 C 0.2233 0.30237 0.84138 0.0
N2300 N 0.23647 0.34074 0.9231 0.0
C2301 C 0.19079 0.37167 0.95939 0.0
C2302 C 0.18195 0.34993 0.93641 0.0
C2303 C 0.2052 0.33404 0.9191 0.0
C2304 C 0.22268 0.37421 0.96666 0.0
C2305 C 0.24499 0.35876 0.94831 0.0
N2306 N 0.29678 0.32497 0.85351 0.0
C2307 C 0.31829 0.34237 0.80365 0.0
C2308 C 0.32963 0.31241 0.79697 0.0
C2309 C 0.3254 0.28913 0.81998 0.0
C2310 C 0.30997 0.29609 0.84829 0.0
C2311 C 0.30129 0.34788 0.83122 0.0
H2312 H 0.30855 0.27772 0.86554 0.0
H2313 H 0.29175 0.37098 0.83363 0.0
H2314 H 0.19757 0.31803 0.90107 0.0
H2315 H 0.26903 0.36369 0.95344 0.0
C2316 C 0.29789 0.28319 0.93933 0.0
C2317 C 0.23217 0.26974 0.84972 0.0
C2318 C 0.31626 0.39219 0.91855 0.0
C2319 C 0.22537 0.38337 0.85086 0.0
H2320 H 0.23445 0.21454 0.88925 0.0
H2321 H 0.27058 0.2221 0.9393 0.0
H2322 H 0.35306 0.30507 0.97049 0.0
H2323 H 0.36515 0.36411 0.9554 0.0
H2324 H 0.29222 0.45198 0.89847 0.0
H2325 H 0.24141 0.44774 0.86253 0.0
H2326 H 0.18571 0.35727 0.80319 0.0
H2327 H 0.19229 0.29571 0.79993 0.0
H2328 H 0.15744 0.34666 0.93055 0.0
H2329 H 0.23062 0.39023 0.98471 0.0
H2330 H 0.32278 0.3618 0.78795 0.0
H2331 H 0.33472 0.26574 0.81644 0.0
C2332 C 0.05281 0.06506 0.9472 0.0
C2333 C 0.06112 0.08542 0.97125 0.0
C2334 C 0.09309 0.08912 0.96968 0.0
C2335 C 0.10274 0.07046 0.94527 0.0
N2336 N 0.07886 0.05536 0.93127 0.0
Co2337 Co 0.08281 0.02109 0.89971 0.0
N2338 N 0.12935 1.01793 0.90479 0.0
C2339 C 0.14744 0.03929 0.91951 0.0
C2340 C 0.17898 0.03353 0.91639 0.0
C2341 C 0.18103 1.00723 0.898 0.0
C2342 C 0.15052 0.99826 0.89111 0.0
N2343 N 0.0854 0.98484 0.87015 0.0
C2344 C 0.10956 0.96506 0.86381 0.0
C2345 C 0.10027 0.94145 0.8433 0.0
C2346 C 0.06992 0.94769 0.83511 0.0
C2347 C 0.06216 0.97425 0.8515 0.0
N2348 N 0.03711 0.02616 0.89176 0.0
C2349 C 0.02122 1.01481 0.86693 0.0
C2350 C 0.99056 0.02454 0.86587 0.0
C2351 C 0.98673 0.04286 0.89193 0.0
C2352 C 1.01527 0.04274 0.90767 0.0
N2353 N 0.09127 0.05174 0.86557 0.0
C2354 C 0.12221 0.09728 0.82912 0.0
C2355 C 0.1246 0.06538 0.82184 0.0
C2356 C 0.10915 0.04314 0.84027 0.0
C2357 C 0.1006 0.10622 0.85218 0.0
C2358 C 0.0847 0.08304 0.86956 0.0
N2359 N 0.07538 0.99152 0.93521 0.0
C2360 C 0.03943 0.96304 0.96875 0.0
C2361 C 0.06268 0.95877 0.99178 0.0
C2362 C 0.09268 0.97002 0.98511 0.0
C2363 C 0.09826 0.98695 0.95751 0.0
C2364 C 0.04646 0.97842 0.94043 0.0
H2365 H 0.1214 0.9964 0.9551 0.0
H2366 H 0.0281 0.97986 0.92316 0.0
H2367 H 0.11394 1.01908 0.83511 0.0
H2368 H 0.06877 0.09075 0.88763 0.0
C2369 C 0.13383 0.06281 0.93797 0.0
C2370 C 0.02019 0.05629 0.93878 0.0
C2371 C 0.14274 0.97209 0.87007 0.0
C2372 C 0.03368 0.99018 0.84947 0.0
H2373 H 0.04609 0.0961 0.98862 0.0
H2374 H 0.10769 0.1025 0.98558 0.0
H2375 H 0.19821 0.04683 0.92631 0.0
H2376 H 0.2025 0.99614 0.89021 0.0
H2377 H 0.11471 0.92306 0.83341 0.0
H2378 H 0.05561 0.93495 0.81843 0.0
H2379 H 0.97262 1.01753 0.84932 0.0
H2380 H 0.96505 0.0539 0.89919 0.0
H2381 H 0.14051 0.05739 0.80372 0.0
H2382 H 0.09744 0.13074 0.85803 0.0
H2383 H 1.01601 0.9538 0.97228 0.0
H2384 H 0.11208 0.96549 1.00084 0.0
C2385 C 0.74562 0.2735 0.15746 0.0
C2386 C 0.74546 0.30206 0.14174 0.0
C2387 C 0.76365 0.29823 0.11559 0.0
C2388 C 0.77336 0.26756 0.11658 0.0
N2389 N 0.76212 0.25167 0.14146 0.0
Co2390 Co 0.76716 0.20596 0.14933 0.0
N2391 N 0.80335 0.2034 0.11971 0.0
C2392 C 0.81384 0.22662 0.10098 0.0
C2393 C 0.84038 0.21889 0.08454 0.0
C2394 C 0.84672 0.18858 0.0928 0.0
C2395 C 0.82318 0.17928 0.11339 0.0
N2396 N 0.7703 0.15942 0.15435 0.0
C2397 C 0.79004 0.13828 0.14075 0.0
C2398 C 0.78107 0.10776 0.1476 0.0
C2399 C 0.75471 0.10978 0.1659 0.0
C2400 C 0.74891 0.14131 0.169 0.0
N2401 N 0.73293 0.20989 0.18093 0.0
C2402 C 0.71775 0.186 0.19482 0.0
C2403 C 0.69912 0.19563 0.21927 0.0
C2404 C 0.70292 0.22758 0.22095 0.0
C2405 C 0.7233 0.23591 0.19693 0.0
N2406 N 0.73647 0.19754 0.11522 0.0
C2407 C 0.69079 0.16661 0.07893 0.0
C2408 C 0.68195 0.18835 0.1019 0.0
C2409 C 0.7052 0.20424 0.11922 0.0
C2410 C 0.72268 0.16407 0.07165 0.0
C2411 C 0.74499 0.17952 0.09 0.0
N2412 N 0.79678 0.21331 0.1848 0.0
C2413 C 0.81828 0.1959 0.23467 0.0
C2414 C 0.82963 0.22586 0.24134 0.0
C2415 C 0.82539 0.24914 0.21834 0.0
C2416 C 0.80997 0.24219 0.19002 0.0
C2417 C 0.80129 0.1904 0.2071 0.0
H2418 H 0.80855 0.26056 0.17277 0.0
H2419 H 0.79175 0.1673 0.20469 0.0
H2420 H 0.69756 0.22025 0.13725 0.0
H2421 H 0.76903 0.17459 0.08487 0.0
C2422 C 0.79789 0.25509 0.09899 0.0
C2423 C 0.73217 0.26854 0.1886 0.0
C2424 C 0.81626 0.14609 0.11977 0.0
C2425 C 0.72537 0.15492 0.18746 0.0
H2426 H 0.73445 0.32374 0.14906 0.0
H2427 H 0.77058 0.31618 0.09902 0.0
H2428 H 0.85306 0.2332 0.06783 0.0
H2429 H 0.86515 0.17417 0.08291 0.0
H2430 H 0.79222 0.0863 0.13985 0.0
H2431 H 0.74141 0.09054 0.17579 0.0
H2432 H 0.68571 0.18101 0.23513 0.0
H2433 H 0.69229 0.24257 0.23838 0.0
H2434 H 0.65744 0.19162 0.10776 0.0
H2435 H 0.73062 0.14805 0.05361 0.0
H2436 H 0.82278 0.17647 0.25036 0.0
H2437 H 0.83472 0.27253 0.22188 0.0
C2438 C 0.48546 0.06506 0.09111 0.0
C2439 C 0.47716 0.08542 0.06707 0.0
C2440 C 0.44519 0.08912 0.06864 0.0
C2441 C 0.43554 0.07046 0.09305 0.0
N2442 N 0.45941 0.05536 0.10705 0.0
Co2443 Co 0.45547 0.02109 0.1386 0.0
N2444 N 0.40893 1.01793 0.13353 0.0
C2445 C 0.39083 0.0393 0.11881 0.0
C2446 C 0.35929 0.03353 0.12192 0.0
C2447 C 0.35724 1.00724 0.14031 0.0
C2448 C 0.38775 0.99826 0.1472 0.0
N2449 N 0.45288 0.98484 0.16816 0.0
C2450 C 0.42871 0.96506 0.1745 0.0
C2451 C 0.438 0.94145 0.19501 0.0
C2452 C 0.46835 0.94768 0.2032 0.0
C2453 C 0.47611 0.97424 0.18681 0.0
N2454 N 0.50117 0.02615 0.14655 0.0
C2455 C 0.51705 1.0148 0.17138 0.0
C2456 C 0.54771 0.02453 0.17244 0.0
C2457 C 0.55155 0.04285 0.14639 0.0
C2458 C 0.523 0.04274 0.13064 0.0
N2459 N 0.44701 0.05174 0.17275 0.0
C2460 C 0.41607 0.09728 0.2092 0.0
C2461 C 0.41368 0.06538 0.21647 0.0
C2462 C 0.42912 0.04313 0.19804 0.0
C2463 C 0.43768 0.10621 0.18614 0.0
C2464 C 0.45358 0.08304 0.16875 0.0
N2465 N 0.46289 0.99152 0.1031 0.0
C2466 C 0.49884 0.96304 0.06956 0.0
C2467 C 0.47559 0.95877 0.04653 0.0
C2468 C 0.44559 0.97002 0.0532 0.0
C2469 C 0.44001 0.98696 0.08079 0.0
C2470 C 0.49181 0.97842 0.09788 0.0
H2471 H 0.41688 0.99641 0.08321 0.0
H2472 H 0.51017 0.97985 0.11515 0.0
H2473 H 0.42434 1.01908 0.2032 0.0
H2474 H 0.46951 0.09075 0.15068 0.0
C2475 C 0.40445 0.06281 0.10034 0.0
C2476 C 0.51809 0.05628 0.09954 0.0
C2477 C 0.39553 0.97209 0.16824 0.0
C2478 C 0.50459 0.99017 0.18884 0.0
H2479 H 0.49218 0.0961 0.0497 0.0
H2480 H 0.43059 0.10251 0.05274 0.0
H2481 H 0.34006 0.04683 0.112 0.0
H2482 H 0.33577 0.99614 0.1481 0.0
H2483 H 0.42355 0.92305 0.2049 0.0
H2484 H 0.48266 0.93495 0.21988 0.0
H2485 H 0.56566 1.01752 0.18899 0.0
H2486 H 0.57323 0.05389 0.13913 0.0
H2487 H 0.39776 0.05738 0.23459 0.0
H2488 H 0.44084 0.13073 0.18029 0.0
H2489 H 0.52225 0.95379 0.06603 0.0
H2490 H 0.42619 0.9655 0.03746 0.0
C2491 C 0.55282 0.47322 0.09111 0.0
C2492 C 0.56112 0.45286 0.06707 0.0
C2493 C 0.59309 0.44916 0.06864 0.0
C2494 C 0.60274 0.46782 0.09305 0.0
N2495 N 0.57886 0.48292 0.10705 0.0
Co2496 Co 0.58281 0.51719 0.1386 0.0
N2497 N 0.62935 0.52035 0.13353 0.0
C2498 C 0.64745 0.49898 0.11881 0.0
C2499 C 0.67899 0.50475 0.12192 0.0
C2500 C 0.68103 0.53105 0.14031 0.0
C2501 C 0.65052 0.54002 0.1472 0.0
N2502 N 0.5854 0.55344 0.16816 0.0
C2503 C 0.60956 0.57322 0.1745 0.0
C2504 C 0.60027 0.59683 0.19501 0.0
C2505 C 0.56993 0.59059 0.2032 0.0
C2506 C 0.56216 0.56403 0.18681 0.0
N2507 N 0.53711 0.51213 0.14655 0.0
C2508 C 0.52122 0.52348 0.17138 0.0
C2509 C 0.49057 0.51375 0.17244 0.0
C2510 C 0.48673 0.49543 0.14639 0.0
C2511 C 0.51528 0.49554 0.13064 0.0
N2512 N 0.59127 0.48654 0.17275 0.0
C2513 C 0.62221 0.441 0.2092 0.0
C2514 C 0.6246 0.4729 0.21647 0.0
C2515 C 0.60916 0.49515 0.19804 0.0
C2516 C 0.6006 0.43207 0.18614 0.0
C2517 C 0.5847 0.45524 0.16875 0.0
N2518 N 0.57538 0.54676 0.1031 0.0
C2519 C 0.53944 0.57524 0.06956 0.0
C2520 C 0.56269 0.57951 0.04653 0.0
C2521 C 0.59269 0.56826 0.0532 0.0
C2522 C 0.59827 0.55132 0.08079 0.0
C2523 C 0.54647 0.55987 0.09788 0.0
H2524 H 0.6214 0.54187 0.08321 0.0
H2525 H 0.52811 0.55843 0.11515 0.0
H2526 H 0.61394 0.5192 0.2032 0.0
H2527 H 0.56877 0.44753 0.15068 0.0
C2528 C 0.63383 0.47547 0.10034 0.0
C2529 C 0.52019 0.482 0.09953 0.0
C2530 C 0.64275 0.56619 0.16824 0.0
C2531 C 0.53369 0.54811 0.18884 0.0
H2532 H 0.54609 0.44218 0.0497 0.0
H2533 H 0.60769 0.43577 0.05273 0.0
H2534 H 0.69821 0.49145 0.112 0.0
H2535 H 0.7025 0.54214 0.1481 0.0
H2536 H 0.61472 0.61523 0.2049 0.0
H2537 H 0.55561 0.60333 0.21988 0.0
H2538 H 0.47262 0.52075 0.18899 0.0
H2539 H 0.46505 0.48438 0.13913 0.0
H2540 H 0.64051 0.4809 0.23459 0.0
H2541 H 0.59744 0.40755 0.18029 0.0
H2542 H 0.51602 0.58449 0.06603 0.0
H2543 H 0.61209 0.57278 0.03746 0.0
loop_
_geom_bond_atom_site_label_1
_geom_bond_atom_site_label_2
_geom_bond_distance
_geom_bond_site_symmetry_2
_ccdc_geom_bond_type
C0 C1 1.443 . S
C0 N4 1.376 . S
C0 C38 1.389 . S
C1 C0 1.443 . S
C1 C2 1.340 . S
C1 H41 0.951 . S
C2 C1 1.340 . S
C2 C3 1.439 . S
C2 H42 0.950 . S
C3 C2 1.439 . S
C3 N4 1.374 . S
C3 C37 1.395 . S
N4 C0 1.376 . S
N4 C3 1.374 . S
N4 Co5 2.008 . S
Co5 N4 2.008 . S
Co5 N6 1.995 . S
Co5 N11 2.008 . S
Co5 N16 1.995 . S
Co5 N21 2.282 . S
Co5 N27 2.282 . S
N6 Co5 1.995 . S
N6 C7 1.376 . S
N6 C10 1.383 . S
C7 N6 1.376 . S
C7 C8 1.446 . S
C7 C37 1.391 . S
C8 C7 1.446 . S
C8 C9 1.339 . S
C8 H43 0.949 . S
C9 C8 1.339 . S
C9 C10 1.439 . S
C9 H44 0.950 . S
C10 N6 1.383 . S
C10 C9 1.439 . S
C10 C39 1.392 . S
N11 Co5 2.008 . S
N11 C12 1.376 . S
N11 C15 1.374 . S
C12 N11 1.376 . S
C12 C13 1.443 . S
C12 C39 1.389 . S
C13 C12 1.443 . S
C13 C14 1.340 . S
C13 H45 0.951 . S
C14 C13 1.340 . S
C14 C15 1.439 . S
C14 H46 0.950 . S
C15 N11 1.374 . S
C15 C14 1.439 . S
C15 C40 1.395 . S
N16 Co5 1.995 . S
N16 C17 1.376 . S
N16 C20 1.383 . S
C17 N16 1.376 . S
C17 C18 1.446 . S
C17 C40 1.391 . S
C18 C17 1.446 . S
C18 C19 1.339 . S
C18 H47 0.949 . S
C19 C18 1.339 . S
C19 C20 1.439 . S
C19 H48 0.950 . S
C20 N16 1.383 . S
C20 C19 1.439 . S
C20 C38 1.392 . S
N21 Co5 2.282 . S
N21 C24 1.332 . S
N21 C26 1.332 . S
C22 C23 1.386 . S
C22 C25 1.388 . S
C23 C22 1.386 . S
C23 C24 1.382 . S
C23 H49 0.950 . S
C24 N21 1.332 . S
C24 C23 1.382 . S
C24 H35 0.952 . S
C25 C22 1.388 . S
C25 C26 1.382 . S
C25 H50 0.950 . S
C26 N21 1.332 . S
C26 C25 1.382 . S
C26 H36 0.948 . S
N27 Co5 2.282 . S
N27 C31 1.332 . S
N27 C32 1.332 . S
C28 C29 1.388 . S
C28 C32 1.382 . S
C28 H51 0.950 . S
C29 C28 1.388 . S
C29 C30 1.386 . S
C30 C29 1.386 . S
C30 C31 1.382 . S
C30 H52 0.950 . S
C31 N27 1.332 . S
C31 C30 1.382 . S
C31 H33 0.952 . S
C32 N27 1.332 . S
C32 C28 1.382 . S
C32 H34 0.948 . S
H33 C31 0.952 . S
H34 C32 0.948 . S
H35 C24 0.952 . S
H36 C26 0.948 . S
C37 C3 1.395 . S
C37 C7 1.391 . S
C38 C0 1.389 . S
C38 C20 1.392 . S
C39 C10 1.392 . S
C39 C12 1.389 . S
C40 C15 1.395 . S
C40 C17 1.391 . S
H41 C1 0.951 . S
H42 C2 0.950 . S
H43 C8 0.949 . S
H44 C9 0.950 . S
H45 C13 0.951 . S
H46 C14 0.950 . S
H47 C18 0.949 . S
H48 C19 0.950 . S
H49 C23 0.950 . S
H50 C25 0.950 . S
H51 C28 0.950 . S
H52 C30 0.950 . S
C53 C54 1.443 . S
C53 N57 1.376 . S
C53 C91 1.389 . S
C54 C53 1.443 . S
C54 C55 1.340 . S
C54 H94 0.951 . S
C55 C54 1.340 . S
C55 C56 1.439 . S
C55 H95 0.950 . S
C56 C55 1.439 . S
C56 N57 1.374 . S
C56 C90 1.395 . S
N57 C53 1.376 . S
N57 C56 1.374 . S
N57 Co58 2.008 . S
Co58 N57 2.008 . S
Co58 N59 1.995 . S
Co58 N64 2.008 . S
Co58 N69 1.995 . S
Co58 N74 2.282 . S
Co58 N80 2.282 . S
N59 Co58 1.995 . S
N59 C60 1.376 . S
N59 C63 1.383 . S
C60 N59 1.376 . S
C60 C61 1.446 . S
C60 C90 1.391 . S
C61 C60 1.446 . S
C61 C62 1.339 . S
C61 H96 0.949 . S
C62 C61 1.339 . S
C62 C63 1.439 . S
C62 H97 0.950 . S
C63 N59 1.383 . S
C63 C62 1.439 . S
C63 C92 1.392 . S
N64 Co58 2.008 . S
N64 C65 1.376 . S
N64 C68 1.374 . S
C65 N64 1.376 . S
C65 C66 1.443 . S
C65 C92 1.389 . S
C66 C65 1.443 . S
C66 C67 1.340 . S
C66 H98 0.951 . S
C67 C66 1.340 . S
C67 C68 1.439 . S
C67 H99 0.950 . S
C68 N64 1.374 . S
C68 C67 1.439 . S
C68 C93 1.395 . S
N69 Co58 1.995 . S
N69 C70 1.376 . S
N69 C73 1.383 . S
C70 N69 1.376 . S
C70 C71 1.446 1_556 S
C70 C93 1.391 . S
C71 C70 1.446 1_554 S
C71 C72 1.339 . S
C71 H100 0.949 . S
C72 C71 1.339 . S
C72 C73 1.439 1_554 S
C72 H101 0.950 . S
C73 N69 1.383 . S
C73 C72 1.439 1_556 S
C73 C91 1.392 . S
N74 Co58 2.282 . S
N74 C77 1.332 . S
N74 C79 1.332 . S
C75 C76 1.386 . S
C75 C78 1.388 . S
C76 C75 1.386 . S
C76 C77 1.382 . S
C76 H102 0.950 . S
C77 N74 1.332 . S
C77 C76 1.382 . S
C77 H88 0.952 . S
C78 C75 1.388 . S
C78 C79 1.382 . S
C78 H103 0.950 . S
C79 N74 1.332 . S
C79 C78 1.382 . S
C79 H89 0.948 . S
N80 Co58 2.282 . S
N80 C84 1.332 . S
N80 C85 1.332 . S
C81 C82 1.388 . S
C81 C85 1.382 . S
C81 H104 0.950 1_556 S
C82 C81 1.388 . S
C82 C83 1.386 . S
C83 C82 1.386 . S
C83 C84 1.382 . S
C83 H105 0.950 . S
C84 N80 1.332 . S
C84 C83 1.382 . S
C84 H86 0.952 . S
C85 N80 1.332 . S
C85 C81 1.382 . S
C85 H87 0.948 . S
H86 C84 0.952 . S
H87 C85 0.948 . S
H88 C77 0.952 . S
H89 C79 0.948 . S
C90 C56 1.395 . S
C90 C60 1.391 . S
C91 C53 1.389 . S
C91 C73 1.392 . S
C92 C63 1.392 . S
C92 C65 1.389 . S
C93 C68 1.395 . S
C93 C70 1.391 . S
H94 C54 0.951 . S
H95 C55 0.950 . S
H96 C61 0.949 . S
H97 C62 0.950 . S
H98 C66 0.951 . S
H99 C67 0.950 . S
H100 C71 0.949 . S
H101 C72 0.950 . S
H102 C76 0.950 . S
H103 C78 0.950 . S
H104 C81 0.950 1_554 S
H105 C83 0.950 . S
C106 C107 1.443 . S
C106 N110 1.376 . S
C106 C144 1.389 . S
C107 C106 1.443 . S
C107 C108 1.340 . S
C107 H147 0.951 . S
C108 C107 1.340 . S
C108 C109 1.439 . S
C108 H148 0.950 . S
C109 C108 1.439 . S
C109 N110 1.374 . S
C109 C143 1.395 . S
N110 C106 1.376 . S
N110 C109 1.374 . S
N110 Co111 2.008 . S
Co111 N110 2.008 . S
Co111 N112 1.995 . S
Co111 N117 2.008 . S
Co111 N122 1.995 . S
Co111 N127 2.282 . S
Co111 N133 2.282 . S
N112 Co111 1.995 . S
N112 C113 1.376 . S
N112 C116 1.383 . S
C113 N112 1.376 . S
C113 C114 1.446 . S
C113 C143 1.391 . S
C114 C113 1.446 . S
C114 C115 1.339 . S
C114 H149 0.949 . S
C115 C114 1.339 . S
C115 C116 1.439 . S
C115 H150 0.950 . S
C116 N112 1.383 . S
C116 C115 1.439 . S
C116 C145 1.392 . S
N117 Co111 2.008 . S
N117 C118 1.376 . S
N117 C121 1.374 . S
C118 N117 1.376 . S
C118 C119 1.443 . S
C118 C145 1.389 . S
C119 C118 1.443 . S
C119 C120 1.340 . S
C119 H151 0.951 . S
C120 C119 1.340 . S
C120 C121 1.439 . S
C120 H152 0.950 . S
C121 N117 1.374 . S
C121 C120 1.439 . S
C121 C146 1.395 . S
N122 Co111 1.995 . S
N122 C123 1.376 . S
N122 C126 1.383 . S
C123 N122 1.376 . S
C123 C124 1.446 . S
C123 C146 1.391 . S
C124 C123 1.446 . S
C124 C125 1.339 . S
C124 H153 0.949 . S
C125 C124 1.339 . S
C125 C126 1.439 . S
C125 H154 0.950 . S
C126 N122 1.383 . S
C126 C125 1.439 . S
C126 C144 1.392 . S
N127 Co111 2.282 . S
N127 C130 1.332 . S
N127 C132 1.332 . S
C128 C129 1.386 . S
C128 C131 1.388 . S
C129 C128 1.386 . S
C129 C130 1.382 . S
C129 H155 0.950 . S
C130 N127 1.332 . S
C130 C129 1.382 . S
C130 H141 0.952 . S
C131 C128 1.388 . S
C131 C132 1.382 . S
C131 H156 0.950 . S
C132 N127 1.332 . S
C132 C131 1.382 . S
C132 H142 0.948 . S
N133 Co111 2.282 . S
N133 C137 1.332 . S
N133 C138 1.332 . S
C134 C135 1.388 . S
C134 C138 1.382 . S
C134 H157 0.950 . S
C135 C134 1.388 . S
C135 C136 1.386 . S
C136 C135 1.386 . S
C136 C137 1.382 . S
C136 H158 0.950 . S
C137 N133 1.332 . S
C137 C136 1.382 . S
C137 H139 0.952 . S
C138 N133 1.332 . S
C138 C134 1.382 . S
C138 H140 0.948 . S
H139 C137 0.952 . S
H140 C138 0.948 . S
H141 C130 0.952 . S
H142 C132 0.948 . S
C143 C109 1.395 . S
C143 C113 1.391 . S
C144 C106 1.389 . S
C144 C126 1.392 . S
C145 C116 1.392 . S
C145 C118 1.389 . S
C146 C121 1.395 . S
C146 C123 1.391 . S
H147 C107 0.951 . S
H148 C108 0.950 . S
H149 C114 0.949 . S
H150 C115 0.950 . S
H151 C119 0.951 . S
H152 C120 0.950 . S
H153 C124 0.949 . S
H154 C125 0.950 . S
H155 C129 0.950 . S
H156 C131 0.950 . S
H157 C134 0.950 . S
H158 C136 0.950 . S
C159 C160 1.443 . S
C159 N163 1.376 . S
C159 C197 1.389 . S
C160 C159 1.443 . S
C160 C161 1.340 . S
C160 H200 0.951 . S
C161 C160 1.340 . S
C161 C162 1.439 . S
C161 H201 0.950 . S
C162 C161 1.439 . S
C162 N163 1.374 . S
C162 C196 1.395 . S
N163 C159 1.376 . S
N163 C162 1.374 . S
N163 Co164 2.008 . S
Co164 N163 2.008 . S
Co164 N165 1.995 . S
Co164 N170 2.008 . S
Co164 N175 1.995 . S
Co164 N180 2.282 . S
Co164 N186 2.282 . S
N165 Co164 1.995 . S
N165 C166 1.376 . S
N165 C169 1.383 . S
C166 N165 1.376 . S
C166 C167 1.446 . S
C166 C196 1.391 . S
C167 C166 1.446 . S
C167 C168 1.339 . S
C167 H202 0.949 . S
C168 C167 1.339 . S
C168 C169 1.439 . S
C168 H203 0.950 . S
C169 N165 1.383 . S
C169 C168 1.439 . S
C169 C198 1.392 . S
N170 Co164 2.008 . S
N170 C171 1.376 . S
N170 C174 1.374 . S
C171 N170 1.376 . S
C171 C172 1.443 . S
C171 C198 1.389 . S
C172 C171 1.443 . S
C172 C173 1.340 . S
C172 H204 0.951 . S
C173 C172 1.340 . S
C173 C174 1.439 . S
C173 H205 0.950 . S
C174 N170 1.374 . S
C174 C173 1.439 . S
C174 C199 1.395 . S
N175 Co164 1.995 . S
N175 C176 1.376 . S
N175 C179 1.383 . S
C176 N175 1.376 . S
C176 C177 1.446 1_556 S
C176 C199 1.391 . S
C177 C176 1.446 1_554 S
C177 C178 1.339 . S
C177 H206 0.949 . S
C178 C177 1.339 . S
C178 C179 1.439 1_554 S
C178 H207 0.950 . S
C179 N175 1.383 . S
C179 C178 1.439 1_556 S
C179 C197 1.392 . S
N180 Co164 2.282 . S
N180 C183 1.332 . S
N180 C185 1.332 . S
C181 C182 1.386 . S
C181 C184 1.388 . S
C182 C181 1.386 . S
C182 C183 1.382 . S
C182 H208 0.950 . S
C183 N180 1.332 . S
C183 C182 1.382 . S
C183 H194 0.952 . S
C184 C181 1.388 . S
C184 C185 1.382 . S
C184 H209 0.950 . S
C185 N180 1.332 . S
C185 C184 1.382 . S
C185 H195 0.948 . S
N186 Co164 2.282 . S
N186 C190 1.332 . S
N186 C191 1.332 . S
C187 C188 1.388 . S
C187 C191 1.382 . S
C187 H210 0.950 1_556 S
C188 C187 1.388 . S
C188 C189 1.386 . S
C189 C188 1.386 . S
C189 C190 1.382 . S
C189 H211 0.950 . S
C190 N186 1.332 . S
C190 C189 1.382 . S
C190 H192 0.952 . S
C191 N186 1.332 . S
C191 C187 1.382 . S
C191 H193 0.948 . S
H192 C190 0.952 . S
H193 C191 0.948 . S
H194 C183 0.952 . S
H195 C185 0.948 . S
C196 C162 1.395 . S
C196 C166 1.391 . S
C197 C159 1.389 . S
C197 C179 1.392 . S
C198 C169 1.392 . S
C198 C171 1.389 . S
C199 C174 1.395 . S
C199 C176 1.391 . S
H200 C160 0.951 . S
H201 C161 0.950 . S
H202 C167 0.949 . S
H203 C168 0.950 . S
H204 C172 0.951 . S
H205 C173 0.950 . S
H206 C177 0.949 . S
H207 C178 0.950 . S
H208 C182 0.950 . S
H209 C184 0.950 . S
H210 C187 0.950 1_554 S
H211 C189 0.950 . S
C212 C213 1.443 . S
C212 N216 1.376 . S
C212 C250 1.389 . S
C213 C212 1.443 . S
C213 C214 1.340 . S
C213 H253 0.951 . S
C214 C213 1.340 . S
C214 C215 1.439 . S
C214 H254 0.950 . S
C215 C214 1.439 . S
C215 N216 1.374 . S
C215 C249 1.395 . S
N216 C212 1.376 . S
N216 C215 1.374 . S
N216 Co217 2.008 . S
Co217 N216 2.008 . S
Co217 N218 1.995 . S
Co217 N223 2.008 . S
Co217 N228 1.995 . S
Co217 N233 2.282 . S
Co217 N239 2.282 . S
N218 Co217 1.995 . S
N218 C219 1.376 . S
N218 C222 1.383 . S
C219 N218 1.376 . S
C219 C220 1.446 . S
C219 C249 1.391 . S
C220 C219 1.446 . S
C220 C221 1.339 . S
C220 H255 0.949 . S
C221 C220 1.339 . S
C221 C222 1.439 . S
C221 H256 0.950 . S
C222 N218 1.383 . S
C222 C221 1.439 . S
C222 C251 1.392 . S
N223 Co217 2.008 . S
N223 C224 1.376 . S
N223 C227 1.374 . S
C224 N223 1.376 . S
C224 C225 1.443 . S
C224 C251 1.389 . S
C225 C224 1.443 . S
C225 C226 1.340 . S
C225 H257 0.951 . S
C226 C225 1.340 . S
C226 C227 1.439 . S
C226 H258 0.950 . S
C227 N223 1.374 . S
C227 C226 1.439 . S
C227 C252 1.395 . S
N228 Co217 1.995 . S
N228 C229 1.376 . S
N228 C232 1.383 . S
C229 N228 1.376 . S
C229 C230 1.446 . S
C229 C252 1.391 . S
C230 C229 1.446 . S
C230 C231 1.339 . S
C230 H259 0.949 . S
C231 C230 1.339 . S
C231 C232 1.439 . S
C231 H260 0.950 . S
C232 N228 1.383 . S
C232 C231 1.439 . S
C232 C250 1.392 . S
N233 Co217 2.282 . S
N233 C236 1.332 . S
N233 C238 1.332 . S
C234 C235 1.386 . S
C234 C237 1.388 . S
C235 C234 1.386 . S
C235 C236 1.382 . S
C235 H261 0.950 . S
C236 N233 1.332 . S
C236 C235 1.382 . S
C236 H247 0.952 . S
C237 C234 1.388 . S
C237 C238 1.382 . S
C237 H262 0.950 . S
C238 N233 1.332 . S
C238 C237 1.382 . S
C238 H248 0.948 . S
N239 Co217 2.282 . S
N239 C243 1.332 . S
N239 C244 1.332 . S
C240 C241 1.388 . S
C240 C244 1.382 . S
C240 H263 0.950 . S
C241 C240 1.388 . S
C241 C242 1.386 . S
C242 C241 1.386 . S
C242 C243 1.382 . S
C242 H264 0.950 . S
C243 N239 1.332 . S
C243 C242 1.382 . S
C243 H245 0.952 . S
C244 N239 1.332 . S
C244 C240 1.382 . S
C244 H246 0.948 . S
H245 C243 0.952 . S
H246 C244 0.948 . S
H247 C236 0.952 . S
H248 C238 0.948 . S
C249 C215 1.395 . S
C249 C219 1.391 . S
C250 C212 1.389 . S
C250 C232 1.392 . S
C251 C222 1.392 . S
C251 C224 1.389 . S
C252 C227 1.395 . S
C252 C229 1.391 . S
H253 C213 0.951 . S
H254 C214 0.950 . S
H255 C220 0.949 . S
H256 C221 0.950 . S
H257 C225 0.951 . S
H258 C226 0.950 . S
H259 C230 0.949 . S
H260 C231 0.950 . S
H261 C235 0.950 . S
H262 C237 0.950 . S
H263 C240 0.950 . S
H264 C242 0.950 . S
C265 C266 1.443 . S
C265 N269 1.376 . S
C265 C303 1.389 . S
C266 C265 1.443 . S
C266 C267 1.340 . S
C266 H306 0.951 . S
C267 C266 1.340 . S
C267 C268 1.439 . S
C267 H307 0.950 . S
C268 C267 1.439 . S
C268 N269 1.374 . S
C268 C302 1.395 . S
N269 C265 1.376 . S
N269 C268 1.374 . S
N269 Co270 2.008 1_655 S
Co270 N269 2.008 1_455 S
Co270 N271 1.995 . S
Co270 N276 2.008 . S
Co270 N281 1.995 1_455 S
Co270 N286 2.282 1_455 S
Co270 N292 2.282 . S
N271 Co270 1.995 . S
N271 C272 1.376 . S
N271 C275 1.383 . S
C272 N271 1.376 . S
C272 C273 1.446 . S
C272 C302 1.391 1_455 S
C273 C272 1.446 . S
C273 C274 1.339 . S
C273 H308 0.949 . S
C274 C273 1.339 . S
C274 C275 1.439 . S
C274 H309 0.950 . S
C275 N271 1.383 . S
C275 C274 1.439 . S
C275 C304 1.392 . S
N276 Co270 2.008 . S
N276 C277 1.376 . S
N276 C280 1.374 . S
C277 N276 1.376 . S
C277 C278 1.443 . S
C277 C304 1.389 . S
C278 C277 1.443 . S
C278 C279 1.340 . S
C278 H310 0.951 . S
C279 C278 1.340 . S
C279 C280 1.439 . S
C279 H311 0.950 . S
C280 N276 1.374 . S
C280 C279 1.439 . S
C280 C305 1.395 . S
N281 Co270 1.995 1_655 S
N281 C282 1.377 1_655 S
N281 C285 1.383 . S
C282 N281 1.377 1_455 S
C282 C283 1.447 1_454 S
C282 C305 1.390 . S
C283 C282 1.447 1_656 S
C283 C284 1.339 . S
C283 H312 0.949 . S
C284 C283 1.339 . S
C284 C285 1.439 1_556 S
C284 H313 0.950 . S
C285 N281 1.383 . S
C285 C284 1.439 1_554 S
C285 C303 1.392 . S
N286 Co270 2.282 1_655 S
N286 C289 1.332 . S
N286 C291 1.332 . S
C287 C288 1.386 . S
C287 C290 1.388 . S
C288 C287 1.386 . S
C288 C289 1.382 . S
C288 H314 0.950 . S
C289 N286 1.332 . S
C289 C288 1.382 . S
C289 H300 0.952 . S
C290 C287 1.388 . S
C290 C291 1.382 . S
C290 H315 0.950 . S
C291 N286 1.332 . S
C291 C290 1.382 . S
C291 H301 0.948 . S
N292 Co270 2.282 . S
N292 C296 1.332 . S
N292 C297 1.332 . S
C293 C294 1.388 . S
C293 C297 1.382 . S
C293 H316 0.950 1_554 S
C294 C293 1.388 . S
C294 C295 1.386 . S
C295 C294 1.386 . S
C295 C296 1.382 . S
C295 H317 0.950 . S
C296 N292 1.332 . S
C296 C295 1.382 . S
C296 H298 0.952 . S
C297 N292 1.332 . S
C297 C293 1.382 . S
C297 H299 0.948 . S
H298 C296 0.952 . S
H299 C297 0.948 . S
H300 C289 0.952 . S
H301 C291 0.948 . S
C302 C268 1.395 . S
C302 C272 1.391 1_655 S
C303 C265 1.389 . S
C303 C285 1.392 . S
C304 C275 1.392 . S
C304 C277 1.389 . S
C305 C280 1.395 . S
C305 C282 1.390 . S
H306 C266 0.951 . S
H307 C267 0.950 . S
H308 C273 0.949 . S
H309 C274 0.950 . S
H310 C278 0.951 . S
H311 C279 0.950 . S
H312 C283 0.949 . S
H313 C284 0.950 . S
H314 C288 0.950 . S
H315 C290 0.950 . S
H316 C293 0.950 1_556 S
H317 C295 0.950 . S
C318 C319 1.443 . S
C318 N322 1.376 . S
C318 C356 1.389 . S
C319 C318 1.443 . S
C319 C320 1.340 . S
C319 H359 0.951 . S
C320 C319 1.340 . S
C320 C321 1.439 . S
C320 H360 0.950 . S
C321 C320 1.439 . S
C321 N322 1.374 . S
C321 C355 1.395 . S
N322 C318 1.376 . S
N322 C321 1.374 . S
N322 Co323 2.008 . S
Co323 N322 2.008 . S
Co323 N324 1.995 . S
Co323 N329 2.008 . S
Co323 N334 1.995 . S
Co323 N339 2.282 . S
Co323 N345 2.282 . S
N324 Co323 1.995 . S
N324 C325 1.376 . S
N324 C328 1.383 . S
C325 N324 1.376 . S
C325 C326 1.446 . S
C325 C355 1.391 . S
C326 C325 1.446 . S
C326 C327 1.339 . S
C326 H361 0.949 . S
C327 C326 1.339 . S
C327 C328 1.439 . S
C327 H362 0.950 . S
C328 N324 1.383 . S
C328 C327 1.439 . S
C328 C357 1.392 . S
N329 Co323 2.008 . S
N329 C330 1.376 . S
N329 C333 1.374 . S
C330 N329 1.376 . S
C330 C331 1.443 . S
C330 C357 1.389 . S
C331 C330 1.443 . S
C331 C332 1.340 . S
C331 H363 0.951 . S
C332 C331 1.340 . S
C332 C333 1.439 . S
C332 H364 0.950 . S
C333 N329 1.374 . S
C333 C332 1.439 . S
C333 C358 1.395 . S
N334 Co323 1.995 . S
N334 C335 1.376 . S
N334 C338 1.383 . S
C335 N334 1.376 . S
C335 C336 1.446 . S
C335 C358 1.391 . S
C336 C335 1.446 . S
C336 C337 1.339 . S
C336 H365 0.949 . S
C337 C336 1.339 . S
C337 C338 1.439 . S
C337 H366 0.950 . S
C338 N334 1.383 . S
C338 C337 1.439 . S
C338 C356 1.392 . S
N339 Co323 2.282 . S
N339 C342 1.332 . S
N339 C344 1.332 . S
C340 C341 1.386 . S
C340 C343 1.388 . S
C341 C340 1.386 . S
C341 C342 1.382 . S
C341 H367 0.950 . S
C342 N339 1.332 . S
C342 C341 1.382 . S
C342 H353 0.952 . S
C343 C340 1.388 . S
C343 C344 1.382 . S
C343 H368 0.950 . S
C344 N339 1.332 . S
C344 C343 1.382 . S
C344 H354 0.948 . S
N345 Co323 2.282 . S
N345 C349 1.332 . S
N345 C350 1.332 . S
C346 C347 1.388 . S
C346 C350 1.382 . S
C346 H369 0.950 . S
C347 C346 1.388 . S
C347 C348 1.386 . S
C348 C347 1.386 . S
C348 C349 1.382 . S
C348 H370 0.950 . S
C349 N345 1.332 . S
C349 C348 1.382 . S
C349 H351 0.952 . S
C350 N345 1.332 . S
C350 C346 1.382 . S
C350 H352 0.948 . S
H351 C349 0.952 . S
H352 C350 0.948 . S
H353 C342 0.952 . S
H354 C344 0.948 . S
C355 C321 1.395 . S
C355 C325 1.391 . S
C356 C318 1.389 . S
C356 C338 1.392 . S
C357 C328 1.392 . S
C357 C330 1.389 . S
C358 C333 1.395 . S
C358 C335 1.391 . S
H359 C319 0.951 . S
H360 C320 0.950 . S
H361 C326 0.949 . S
H362 C327 0.950 . S
H363 C331 0.951 . S
H364 C332 0.950 . S
H365 C336 0.949 . S
H366 C337 0.950 . S
H367 C341 0.950 . S
H368 C343 0.950 . S
H369 C346 0.950 . S
H370 C348 0.950 . S
C371 C372 1.443 . S
C371 N375 1.376 . S
C371 C409 1.389 . S
C372 C371 1.443 . S
C372 C373 1.340 . S
C372 H412 0.951 . S
C373 C372 1.340 . S
C373 C374 1.439 . S
C373 H413 0.950 . S
C374 C373 1.439 . S
C374 N375 1.374 . S
C374 C408 1.395 . S
N375 C371 1.376 . S
N375 C374 1.374 . S
N375 Co376 2.008 1_455 S
Co376 N375 2.008 1_655 S
Co376 N377 1.995 . S
Co376 N382 2.008 . S
Co376 N387 1.995 1_655 S
Co376 N392 2.282 1_655 S
Co376 N398 2.282 . S
N377 Co376 1.995 . S
N377 C378 1.376 . S
N377 C381 1.383 . S
C378 N377 1.376 . S
C378 C379 1.446 . S
C378 C408 1.391 1_655 S
C379 C378 1.446 . S
C379 C380 1.339 . S
C379 H414 0.949 . S
C380 C379 1.339 . S
C380 C381 1.439 . S
C380 H415 0.950 . S
C381 N377 1.383 . S
C381 C380 1.439 . S
C381 C410 1.392 . S
N382 Co376 2.008 . S
N382 C383 1.376 . S
N382 C386 1.374 . S
C383 N382 1.376 . S
C383 C384 1.443 . S
C383 C410 1.389 . S
C384 C383 1.443 . S
C384 C385 1.340 . S
C384 H416 0.951 . S
C385 C384 1.340 . S
C385 C386 1.439 . S
C385 H417 0.950 . S
C386 N382 1.374 . S
C386 C385 1.439 . S
C386 C411 1.395 . S
N387 Co376 1.995 1_455 S
N387 C388 1.377 1_455 S
N387 C391 1.383 . S
C388 N387 1.377 1_655 S
C388 C389 1.448 1_654 S
C388 C411 1.389 . S
C389 C388 1.448 1_456 S
C389 C390 1.339 . S
C389 H418 0.949 . S
C390 C389 1.339 . S
C390 C391 1.439 1_556 S
C390 H419 0.950 . S
C391 N387 1.383 . S
C391 C390 1.439 1_554 S
C391 C409 1.392 . S
N392 Co376 2.282 1_455 S
N392 C395 1.332 . S
N392 C397 1.332 . S
C393 C394 1.386 . S
C393 C396 1.388 . S
C394 C393 1.386 . S
C394 C395 1.382 . S
C394 H420 0.950 . S
C395 N392 1.332 . S
C395 C394 1.382 . S
C395 H406 0.952 . S
C396 C393 1.388 . S
C396 C397 1.382 . S
C396 H421 0.950 . S
C397 N392 1.332 . S
C397 C396 1.382 . S
C397 H407 0.948 . S
N398 Co376 2.282 . S
N398 C402 1.332 . S
N398 C403 1.332 . S
C399 C400 1.388 . S
C399 C403 1.382 . S
C399 H422 0.950 1_554 S
C400 C399 1.388 . S
C400 C401 1.386 . S
C401 C400 1.386 . S
C401 C402 1.382 . S
C401 H423 0.950 . S
C402 N398 1.332 . S
C402 C401 1.382 . S
C402 H404 0.952 . S
C403 N398 1.332 . S
C403 C399 1.382 . S
C403 H405 0.948 . S
H404 C402 0.952 . S
H405 C403 0.948 . S
H406 C395 0.952 . S
H407 C397 0.948 . S
C408 C374 1.395 . S
C408 C378 1.391 1_455 S
C409 C371 1.389 . S
C409 C391 1.392 . S
C410 C381 1.392 . S
C410 C383 1.389 . S
C411 C386 1.395 . S
C411 C388 1.389 . S
H412 C372 0.951 . S
H413 C373 0.950 . S
H414 C379 0.949 . S
H415 C380 0.950 . S
H416 C384 0.951 . S
H417 C385 0.950 . S
H418 C389 0.949 . S
H419 C390 0.950 . S
H420 C394 0.950 . S
H421 C396 0.950 . S
H422 C399 0.950 1_556 S
H423 C401 0.950 . S
C424 C425 1.443 . S
C424 N428 1.376 . S
C424 C462 1.389 . S
C425 C424 1.443 . S
C425 C426 1.340 . S
C425 H465 0.951 . S
C426 C425 1.340 . S
C426 C427 1.439 . S
C426 H466 0.950 . S
C427 C426 1.439 . S
C427 N428 1.374 . S
C427 C461 1.395 . S
N428 C424 1.376 . S
N428 C427 1.374 . S
N428 Co429 2.008 . S
Co429 N428 2.008 . S
Co429 N430 1.995 . S
Co429 N435 2.008 . S
Co429 N440 1.995 . S
Co429 N445 2.282 . S
Co429 N451 2.282 . S
N430 Co429 1.995 . S
N430 C431 1.376 . S
N430 C434 1.383 . S
C431 N430 1.376 . S
C431 C432 1.446 . S
C431 C461 1.391 . S
C432 C431 1.446 . S
C432 C433 1.339 . S
C432 H467 0.949 . S
C433 C432 1.339 . S
C433 C434 1.439 . S
C433 H468 0.950 . S
C434 N430 1.383 . S
C434 C433 1.439 . S
C434 C463 1.392 . S
N435 Co429 2.008 . S
N435 C436 1.376 . S
N435 C439 1.374 . S
C436 N435 1.376 . S
C436 C437 1.443 . S
C436 C463 1.389 . S
C437 C436 1.443 . S
C437 C438 1.340 . S
C437 H469 0.951 . S
C438 C437 1.340 . S
C438 C439 1.439 . S
C438 H470 0.950 . S
C439 N435 1.374 . S
C439 C438 1.439 . S
C439 C464 1.395 . S
N440 Co429 1.995 . S
N440 C441 1.376 . S
N440 C444 1.383 . S
C441 N440 1.376 . S
C441 C442 1.446 . S
C441 C464 1.391 . S
C442 C441 1.446 . S
C442 C443 1.339 . S
C442 H471 0.949 . S
C443 C442 1.339 . S
C443 C444 1.439 . S
C443 H472 0.950 . S
C444 N440 1.383 . S
C444 C443 1.439 . S
C444 C462 1.392 . S
N445 Co429 2.282 . S
N445 C448 1.332 . S
N445 C450 1.332 . S
C446 C447 1.386 . S
C446 C449 1.388 . S
C447 C446 1.386 . S
C447 C448 1.382 . S
C447 H473 0.950 . S
C448 N445 1.332 . S
C448 C447 1.382 . S
C448 H459 0.952 . S
C449 C446 1.388 . S
C449 C450 1.382 . S
C449 H474 0.950 . S
C450 N445 1.332 . S
C450 C449 1.382 . S
C450 H460 0.948 . S
N451 Co429 2.282 . S
N451 C455 1.332 . S
N451 C456 1.332 . S
C452 C453 1.388 . S
C452 C456 1.382 . S
C452 H475 0.950 . S
C453 C452 1.388 . S
C453 C454 1.386 . S
C454 C453 1.386 . S
C454 C455 1.382 . S
C454 H476 0.950 . S
C455 N451 1.332 . S
C455 C454 1.382 . S
C455 H457 0.952 . S
C456 N451 1.332 . S
C456 C452 1.382 . S
C456 H458 0.948 . S
H457 C455 0.952 . S
H458 C456 0.948 . S
H459 C448 0.952 . S
H460 C450 0.948 . S
C461 C427 1.395 . S
C461 C431 1.391 . S
C462 C424 1.389 . S
C462 C444 1.392 . S
C463 C434 1.392 . S
C463 C436 1.389 . S
C464 C439 1.395 . S
C464 C441 1.391 . S
H465 C425 0.951 . S
H466 C426 0.950 . S
H467 C432 0.949 . S
H468 C433 0.950 . S
H469 C437 0.951 . S
H470 C438 0.950 . S
H471 C442 0.949 . S
H472 C443 0.950 . S
H473 C447 0.950 . S
H474 C449 0.950 . S
H475 C452 0.950 . S
H476 C454 0.950 . S
C477 C478 1.443 . S
C477 N481 1.376 . S
C477 C515 1.389 . S
C478 C477 1.443 . S
C478 C479 1.340 . S
C478 H518 0.951 . S
C479 C478 1.340 . S
C479 C480 1.439 . S
C479 H519 0.950 . S
C480 C479 1.439 . S
C480 N481 1.374 . S
C480 C514 1.395 . S
N481 C477 1.376 . S
N481 C480 1.374 . S
N481 Co482 2.008 1_556 S
Co482 N481 2.008 1_554 S
Co482 N483 1.995 . S
Co482 N488 2.008 . S
Co482 N493 1.995 1_554 S
Co482 N498 2.282 1_554 S
Co482 N504 2.282 . S
N483 Co482 1.995 . S
N483 C484 1.376 . S
N483 C487 1.383 . S
C484 N483 1.376 . S
C484 C485 1.446 . S
C484 C514 1.391 1_554 S
C485 C484 1.446 . S
C485 C486 1.339 . S
C485 H520 0.949 . S
C486 C485 1.339 . S
C486 C487 1.439 . S
C486 H521 0.950 . S
C487 N483 1.383 . S
C487 C486 1.439 . S
C487 C516 1.392 . S
N488 Co482 2.008 . S
N488 C489 1.376 . S
N488 C492 1.374 . S
C489 N488 1.376 . S
C489 C490 1.443 . S
C489 C516 1.389 . S
C490 C489 1.443 . S
C490 C491 1.340 . S
C490 H522 0.951 . S
C491 C490 1.340 . S
C491 C492 1.439 . S
C491 H523 0.950 . S
C492 N488 1.374 . S
C492 C491 1.439 . S
C492 C517 1.395 . S
N493 Co482 1.995 1_556 S
N493 C494 1.377 1_556 S
N493 C497 1.383 . S
C494 N493 1.377 1_554 S
C494 C495 1.447 1_554 S
C494 C517 1.390 . S
C495 C494 1.447 1_556 S
C495 C496 1.339 . S
C495 H524 0.949 . S
C496 C495 1.339 . S
C496 C497 1.439 . S
C496 H525 0.950 . S
C497 N493 1.383 . S
C497 C496 1.439 . S
C497 C515 1.392 . S
N498 Co482 2.282 1_556 S
N498 C501 1.332 . S
N498 C503 1.332 . S
C499 C500 1.386 . S
C499 C502 1.388 . S
C500 C499 1.386 . S
C500 C501 1.382 . S
C500 H526 0.950 . S
C501 N498 1.332 . S
C501 C500 1.382 . S
C501 H512 0.952 . S
C502 C499 1.388 . S
C502 C503 1.382 . S
C502 H527 0.950 . S
C503 N498 1.332 . S
C503 C502 1.382 . S
C503 H513 0.948 . S
N504 Co482 2.282 . S
N504 C508 1.332 . S
N504 C509 1.332 . S
C505 C506 1.388 . S
C505 C509 1.382 . S
C505 H528 0.950 . S
C506 C505 1.388 . S
C506 C507 1.386 . S
C507 C506 1.386 . S
C507 C508 1.382 . S
C507 H529 0.950 . S
C508 N504 1.332 . S
C508 C507 1.382 . S
C508 H510 0.952 . S
C509 N504 1.332 . S
C509 C505 1.382 . S
C509 H511 0.948 . S
H510 C508 0.952 . S
H511 C509 0.948 . S
H512 C501 0.952 . S
H513 C503 0.948 . S
C514 C480 1.395 . S
C514 C484 1.391 1_556 S
C515 C477 1.389 . S
C515 C497 1.392 . S
C516 C487 1.392 . S
C516 C489 1.389 . S
C517 C492 1.395 . S
C517 C494 1.390 . S
H518 C478 0.951 . S
H519 C479 0.950 . S
H520 C485 0.949 . S
H521 C486 0.950 . S
H522 C490 0.951 . S
H523 C491 0.950 . S
H524 C495 0.949 . S
H525 C496 0.950 . S
H526 C500 0.950 . S
H527 C502 0.950 . S
H528 C505 0.950 . S
H529 C507 0.950 . S
C530 C531 1.443 . S
C530 N534 1.376 . S
C530 C568 1.389 . S
C531 C530 1.443 . S
C531 C532 1.340 . S
C531 H571 0.951 . S
C532 C531 1.340 . S
C532 C533 1.439 . S
C532 H572 0.950 . S
C533 C532 1.439 . S
C533 N534 1.374 . S
C533 C567 1.395 . S
N534 C530 1.376 . S
N534 C533 1.374 . S
N534 Co535 2.008 . S
Co535 N534 2.008 . S
Co535 N536 1.995 . S
Co535 N541 2.008 . S
Co535 N546 1.995 . S
Co535 N551 2.282 . S
Co535 N557 2.282 . S
N536 Co535 1.995 . S
N536 C537 1.376 . S
N536 C540 1.383 . S
C537 N536 1.376 . S
C537 C538 1.446 . S
C537 C567 1.391 . S
C538 C537 1.446 . S
C538 C539 1.339 . S
C538 H573 0.949 . S
C539 C538 1.339 . S
C539 C540 1.439 . S
C539 H574 0.950 . S
C540 N536 1.383 . S
C540 C539 1.439 . S
C540 C569 1.392 . S
N541 Co535 2.008 . S
N541 C542 1.376 . S
N541 C545 1.374 . S
C542 N541 1.376 . S
C542 C543 1.443 . S
C542 C569 1.389 . S
C543 C542 1.443 . S
C543 C544 1.340 . S
C543 H575 0.951 . S
C544 C543 1.340 . S
C544 C545 1.439 . S
C544 H576 0.950 . S
C545 N541 1.374 . S
C545 C544 1.439 . S
C545 C570 1.395 . S
N546 Co535 1.995 . S
N546 C547 1.376 . S
N546 C550 1.383 . S
C547 N546 1.376 . S
C547 C548 1.446 . S
C547 C570 1.391 . S
C548 C547 1.446 . S
C548 C549 1.339 . S
C548 H577 0.949 . S
C549 C548 1.339 . S
C549 C550 1.439 . S
C549 H578 0.950 . S
C550 N546 1.383 . S
C550 C549 1.439 . S
C550 C568 1.392 . S
N551 Co535 2.282 . S
N551 C554 1.332 . S
N551 C556 1.332 . S
C552 C553 1.386 . S
C552 C555 1.388 . S
C553 C552 1.386 . S
C553 C554 1.382 . S
C553 H579 0.950 . S
C554 N551 1.332 . S
C554 C553 1.382 . S
C554 H565 0.952 . S
C555 C552 1.388 . S
C555 C556 1.382 . S
C555 H580 0.950 . S
C556 N551 1.332 . S
C556 C555 1.382 . S
C556 H566 0.948 . S
N557 Co535 2.282 . S
N557 C561 1.332 . S
N557 C562 1.332 . S
C558 C559 1.388 . S
C558 C562 1.382 . S
C558 H581 0.950 . S
C559 C558 1.388 . S
C559 C560 1.386 . S
C560 C559 1.386 . S
C560 C561 1.382 . S
C560 H582 0.950 . S
C561 N557 1.332 . S
C561 C560 1.382 . S
C561 H563 0.952 . S
C562 N557 1.332 . S
C562 C558 1.382 . S
C562 H564 0.948 . S
H563 C561 0.952 . S
H564 C562 0.948 . S
H565 C554 0.952 . S
H566 C556 0.948 . S
C567 C533 1.395 . S
C567 C537 1.391 . S
C568 C530 1.389 . S
C568 C550 1.392 . S
C569 C540 1.392 . S
C569 C542 1.389 . S
C570 C545 1.395 . S
C570 C547 1.391 . S
H571 C531 0.951 . S
H572 C532 0.950 . S
H573 C538 0.949 . S
H574 C539 0.950 . S
H575 C543 0.951 . S
H576 C544 0.950 . S
H577 C548 0.949 . S
H578 C549 0.950 . S
H579 C553 0.950 . S
H580 C555 0.950 . S
H581 C558 0.950 . S
H582 C560 0.950 . S
C583 C584 1.443 . S
C583 N587 1.376 . S
C583 C621 1.389 . S
C584 C583 1.443 . S
C584 C585 1.340 . S
C584 H624 0.951 . S
C585 C584 1.340 . S
C585 C586 1.439 . S
C585 H625 0.950 . S
C586 C585 1.439 . S
C586 N587 1.374 . S
C586 C620 1.395 . S
N587 C583 1.376 . S
N587 C586 1.374 . S
N587 Co588 2.008 1_556 S
Co588 N587 2.008 1_554 S
Co588 N589 1.995 . S
Co588 N594 2.008 . S
Co588 N599 1.995 1_554 S
Co588 N604 2.282 1_554 S
Co588 N610 2.282 . S
N589 Co588 1.995 . S
N589 C590 1.376 . S
N589 C593 1.383 . S
C590 N589 1.376 . S
C590 C591 1.446 . S
C590 C620 1.391 1_554 S
C591 C590 1.446 . S
C591 C592 1.339 . S
C591 H626 0.949 . S
C592 C591 1.339 . S
C592 C593 1.439 . S
C592 H627 0.950 . S
C593 N589 1.383 . S
C593 C592 1.439 . S
C593 C622 1.392 . S
N594 Co588 2.008 . S
N594 C595 1.376 . S
N594 C598 1.374 . S
C595 N594 1.376 . S
C595 C596 1.443 . S
C595 C622 1.389 . S
C596 C595 1.443 . S
C596 C597 1.340 . S
C596 H628 0.951 . S
C597 C596 1.340 . S
C597 C598 1.439 . S
C597 H629 0.950 . S
C598 N594 1.374 . S
C598 C597 1.439 . S
C598 C623 1.395 . S
N599 Co588 1.995 1_556 S
N599 C600 1.377 1_556 S
N599 C603 1.383 . S
C600 N599 1.377 1_554 S
C600 C601 1.447 1_544 S
C600 C623 1.390 . S
C601 C600 1.447 1_566 S
C601 C602 1.339 . S
C601 H630 0.949 . S
C602 C601 1.339 . S
C602 C603 1.439 1_565 S
C602 H631 0.950 . S
C603 N599 1.383 . S
C603 C602 1.439 1_545 S
C603 C621 1.392 . S
N604 Co588 2.282 1_556 S
N604 C607 1.332 . S
N604 C609 1.332 . S
C605 C606 1.386 . S
C605 C608 1.388 . S
C606 C605 1.386 . S
C606 C607 1.382 . S
C606 H632 0.950 . S
C607 N604 1.332 . S
C607 C606 1.382 . S
C607 H618 0.952 . S
C608 C605 1.388 . S
C608 C609 1.382 . S
C608 H633 0.950 . S
C609 N604 1.332 . S
C609 C608 1.382 . S
C609 H619 0.948 . S
N610 Co588 2.282 . S
N610 C614 1.332 . S
N610 C615 1.332 . S
C611 C612 1.388 . S
C611 C615 1.382 . S
C611 H634 0.950 1_545 S
C612 C611 1.388 . S
C612 C613 1.386 . S
C613 C612 1.386 . S
C613 C614 1.382 . S
C613 H635 0.950 . S
C614 N610 1.332 . S
C614 C613 1.382 . S
C614 H616 0.952 . S
C615 N610 1.332 . S
C615 C611 1.382 . S
C615 H617 0.948 . S
H616 C614 0.952 . S
H617 C615 0.948 . S
H618 C607 0.952 . S
H619 C609 0.948 . S
C620 C586 1.395 . S
C620 C590 1.391 1_556 S
C621 C583 1.389 . S
C621 C603 1.392 . S
C622 C593 1.392 . S
C622 C595 1.389 . S
C623 C598 1.395 . S
C623 C600 1.390 . S
H624 C584 0.951 . S
H625 C585 0.950 . S
H626 C591 0.949 . S
H627 C592 0.950 . S
H628 C596 0.951 . S
H629 C597 0.950 . S
H630 C601 0.949 . S
H631 C602 0.950 . S
H632 C606 0.950 . S
H633 C608 0.950 . S
H634 C611 0.950 1_565 S
H635 C613 0.950 . S
C636 C637 1.443 . S
C636 N640 1.376 . S
C636 C674 1.389 . S
C637 C636 1.443 . S
C637 C638 1.340 . S
C637 H677 0.951 . S
C638 C637 1.340 . S
C638 C639 1.439 . S
C638 H678 0.950 . S
C639 C638 1.439 . S
C639 N640 1.374 . S
C639 C673 1.395 . S
N640 C636 1.376 . S
N640 C639 1.374 . S
N640 Co641 2.008 . S
Co641 N640 2.008 . S
Co641 N642 1.995 . S
Co641 N647 2.008 . S
Co641 N652 1.995 . S
Co641 N657 2.282 . S
Co641 N663 2.282 . S
N642 Co641 1.995 . S
N642 C643 1.376 . S
N642 C646 1.383 . S
C643 N642 1.376 . S
C643 C644 1.446 . S
C643 C673 1.391 . S
C644 C643 1.446 . S
C644 C645 1.339 . S
C644 H679 0.949 . S
C645 C644 1.339 . S
C645 C646 1.439 . S
C645 H680 0.950 . S
C646 N642 1.383 . S
C646 C645 1.439 . S
C646 C675 1.392 . S
N647 Co641 2.008 . S
N647 C648 1.376 . S
N647 C651 1.374 . S
C648 N647 1.376 . S
C648 C649 1.443 . S
C648 C675 1.389 . S
C649 C648 1.443 . S
C649 C650 1.340 . S
C649 H681 0.951 . S
C650 C649 1.340 . S
C650 C651 1.439 . S
C650 H682 0.950 . S
C651 N647 1.374 . S
C651 C650 1.439 . S
C651 C676 1.395 . S
N652 Co641 1.995 . S
N652 C653 1.376 . S
N652 C656 1.383 . S
C653 N652 1.376 . S
C653 C654 1.446 . S
C653 C676 1.391 . S
C654 C653 1.446 . S
C654 C655 1.339 . S
C654 H683 0.949 . S
C655 C654 1.339 . S
C655 C656 1.439 . S
C655 H684 0.950 . S
C656 N652 1.383 . S
C656 C655 1.439 . S
C656 C674 1.392 . S
N657 Co641 2.282 . S
N657 C660 1.332 . S
N657 C662 1.332 . S
C658 C659 1.386 . S
C658 C661 1.388 . S
C659 C658 1.386 . S
C659 C660 1.382 . S
C659 H685 0.950 . S
C660 N657 1.332 . S
C660 C659 1.382 . S
C660 H671 0.952 . S
C661 C658 1.388 . S
C661 C662 1.382 . S
C661 H686 0.950 . S
C662 N657 1.332 . S
C662 C661 1.382 . S
C662 H672 0.948 . S
N663 Co641 2.282 . S
N663 C667 1.332 . S
N663 C668 1.332 . S
C664 C665 1.388 . S
C664 C668 1.382 . S
C664 H687 0.950 . S
C665 C664 1.388 . S
C665 C666 1.386 . S
C666 C665 1.386 . S
C666 C667 1.382 . S
C666 H688 0.950 . S
C667 N663 1.332 . S
C667 C666 1.382 . S
C667 H669 0.952 . S
C668 N663 1.332 . S
C668 C664 1.382 . S
C668 H670 0.948 . S
H669 C667 0.952 . S
H670 C668 0.948 . S
H671 C660 0.952 . S
H672 C662 0.948 . S
C673 C639 1.395 . S
C673 C643 1.391 . S
C674 C636 1.389 . S
C674 C656 1.392 . S
C675 C646 1.392 . S
C675 C648 1.389 . S
C676 C651 1.395 . S
C676 C653 1.391 . S
H677 C637 0.951 . S
H678 C638 0.950 . S
H679 C644 0.949 . S
H680 C645 0.950 . S
H681 C649 0.951 . S
H682 C650 0.950 . S
H683 C654 0.949 . S
H684 C655 0.950 . S
H685 C659 0.950 . S
H686 C661 0.950 . S
H687 C664 0.950 . S
H688 C666 0.950 . S
C689 C690 1.443 . S
C689 N693 1.376 . S
C689 C727 1.389 . S
C690 C689 1.443 . S
C690 C691 1.340 . S
C690 H730 0.951 . S
C691 C690 1.340 . S
C691 C692 1.439 . S
C691 H731 0.950 . S
C692 C691 1.439 . S
C692 N693 1.374 . S
C692 C726 1.395 . S
N693 C689 1.376 . S
N693 C692 1.374 . S
N693 Co694 2.008 1_554 S
Co694 N693 2.008 1_556 S
Co694 N695 1.995 . S
Co694 N700 2.008 . S
Co694 N705 1.995 1_556 S
Co694 N710 2.282 1_556 S
Co694 N716 2.282 . S
N695 Co694 1.995 . S
N695 C696 1.376 . S
N695 C699 1.383 . S
C696 N695 1.376 . S
C696 C697 1.446 . S
C696 C726 1.391 1_556 S
C697 C696 1.446 . S
C697 C698 1.339 . S
C697 H732 0.949 . S
C698 C697 1.339 . S
C698 C699 1.439 . S
C698 H733 0.950 . S
C699 N695 1.383 . S
C699 C698 1.439 . S
C699 C728 1.392 . S
N700 Co694 2.008 . S
N700 C701 1.376 . S
N700 C704 1.374 . S
C701 N700 1.376 . S
C701 C702 1.443 . S
C701 C728 1.389 . S
C702 C701 1.443 . S
C702 C703 1.340 . S
C702 H734 0.951 . S
C703 C702 1.340 . S
C703 C704 1.439 . S
C703 H735 0.950 . S
C704 N700 1.374 . S
C704 C703 1.439 . S
C704 C729 1.395 . S
N705 Co694 1.995 1_554 S
N705 C706 1.377 1_554 S
N705 C709 1.383 . S
C706 N705 1.377 1_556 S
C706 C707 1.447 1_556 S
C706 C729 1.389 . S
C707 C706 1.447 1_554 S
C707 C708 1.339 . S
C707 H736 0.949 . S
C708 C707 1.339 . S
C708 C709 1.439 . S
C708 H737 0.950 . S
C709 N705 1.383 . S
C709 C708 1.439 . S
C709 C727 1.392 . S
N710 Co694 2.282 1_554 S
N710 C713 1.332 . S
N710 C715 1.332 . S
C711 C712 1.386 . S
C711 C714 1.388 . S
C712 C711 1.386 . S
C712 C713 1.382 . S
C712 H738 0.950 . S
C713 N710 1.332 . S
C713 C712 1.382 . S
C713 H724 0.952 . S
C714 C711 1.388 . S
C714 C715 1.382 . S
C714 H739 0.950 . S
C715 N710 1.332 . S
C715 C714 1.382 . S
C715 H725 0.948 . S
N716 Co694 2.282 . S
N716 C720 1.332 . S
N716 C721 1.332 . S
C717 C718 1.388 . S
C717 C721 1.382 . S
C717 H740 0.950 . S
C718 C717 1.388 . S
C718 C719 1.386 . S
C719 C718 1.386 . S
C719 C720 1.382 . S
C719 H741 0.950 . S
C720 N716 1.332 . S
C720 C719 1.382 . S
C720 H722 0.952 . S
C721 N716 1.332 . S
C721 C717 1.382 . S
C721 H723 0.948 . S
H722 C720 0.952 . S
H723 C721 0.948 . S
H724 C713 0.952 . S
H725 C715 0.948 . S
C726 C692 1.395 . S
C726 C696 1.391 1_554 S
C727 C689 1.389 . S
C727 C709 1.392 . S
C728 C699 1.392 . S
C728 C701 1.389 . S
C729 C704 1.395 . S
C729 C706 1.389 . S
H730 C690 0.951 . S
H731 C691 0.950 . S
H732 C697 0.949 . S
H733 C698 0.950 . S
H734 C702 0.951 . S
H735 C703 0.950 . S
H736 C707 0.949 . S
H737 C708 0.950 . S
H738 C712 0.950 . S
H739 C714 0.950 . S
H740 C717 0.950 . S
H741 C719 0.950 . S
C742 C743 1.443 . S
C742 N746 1.376 . S
C742 C780 1.389 . S
C743 C742 1.443 . S
C743 C744 1.340 . S
C743 H783 0.951 . S
C744 C743 1.340 . S
C744 C745 1.439 . S
C744 H784 0.950 . S
C745 C744 1.439 . S
C745 N746 1.374 . S
C745 C779 1.395 . S
N746 C742 1.376 . S
N746 C745 1.374 . S
N746 Co747 2.008 . S
Co747 N746 2.008 . S
Co747 N748 1.995 . S
Co747 N753 2.008 . S
Co747 N758 1.995 . S
Co747 N763 2.282 . S
Co747 N769 2.282 . S
N748 Co747 1.995 . S
N748 C749 1.376 . S
N748 C752 1.383 . S
C749 N748 1.376 . S
C749 C750 1.446 . S
C749 C779 1.391 . S
C750 C749 1.446 . S
C750 C751 1.339 . S
C750 H785 0.949 . S
C751 C750 1.339 . S
C751 C752 1.439 . S
C751 H786 0.950 . S
C752 N748 1.383 . S
C752 C751 1.439 . S
C752 C781 1.392 . S
N753 Co747 2.008 . S
N753 C754 1.376 . S
N753 C757 1.374 . S
C754 N753 1.376 . S
C754 C755 1.443 . S
C754 C781 1.389 . S
C755 C754 1.443 . S
C755 C756 1.340 . S
C755 H787 0.951 . S
C756 C755 1.340 . S
C756 C757 1.439 . S
C756 H788 0.950 . S
C757 N753 1.374 . S
C757 C756 1.439 . S
C757 C782 1.395 . S
N758 Co747 1.995 . S
N758 C759 1.376 . S
N758 C762 1.383 . S
C759 N758 1.376 . S
C759 C760 1.446 . S
C759 C782 1.391 . S
C760 C759 1.446 . S
C760 C761 1.339 . S
C760 H789 0.949 . S
C761 C760 1.339 . S
C761 C762 1.439 . S
C761 H790 0.950 . S
C762 N758 1.383 . S
C762 C761 1.439 . S
C762 C780 1.392 . S
N763 Co747 2.282 . S
N763 C766 1.332 . S
N763 C768 1.332 . S
C764 C765 1.386 . S
C764 C767 1.388 . S
C765 C764 1.386 . S
C765 C766 1.382 . S
C765 H791 0.950 . S
C766 N763 1.332 . S
C766 C765 1.382 . S
C766 H777 0.952 . S
C767 C764 1.388 . S
C767 C768 1.382 . S
C767 H792 0.950 . S
C768 N763 1.332 . S
C768 C767 1.382 . S
C768 H778 0.948 . S
N769 Co747 2.282 . S
N769 C773 1.332 . S
N769 C774 1.332 . S
C770 C771 1.388 . S
C770 C774 1.382 . S
C770 H793 0.950 . S
C771 C770 1.388 . S
C771 C772 1.386 . S
C772 C771 1.386 . S
C772 C773 1.382 . S
C772 H794 0.950 . S
C773 N769 1.332 . S
C773 C772 1.382 . S
C773 H775 0.952 . S
C774 N769 1.332 . S
C774 C770 1.382 . S
C774 H776 0.948 . S
H775 C773 0.952 . S
H776 C774 0.948 . S
H777 C766 0.952 . S
H778 C768 0.948 . S
C779 C745 1.395 . S
C779 C749 1.391 . S
C780 C742 1.389 . S
C780 C762 1.392 . S
C781 C752 1.392 . S
C781 C754 1.389 . S
C782 C757 1.395 . S
C782 C759 1.391 . S
H783 C743 0.951 . S
H784 C744 0.950 . S
H785 C750 0.949 . S
H786 C751 0.950 . S
H787 C755 0.951 . S
H788 C756 0.950 . S
H789 C760 0.949 . S
H790 C761 0.950 . S
H791 C765 0.950 . S
H792 C767 0.950 . S
H793 C770 0.950 . S
H794 C772 0.950 . S
C795 C796 1.443 . S
C795 N799 1.376 . S
C795 C833 1.389 . S
C796 C795 1.443 . S
C796 C797 1.340 . S
C796 H836 0.951 . S
C797 C796 1.340 . S
C797 C798 1.439 . S
C797 H837 0.950 . S
C798 C797 1.439 . S
C798 N799 1.374 . S
C798 C832 1.395 . S
N799 C795 1.376 . S
N799 C798 1.374 . S
N799 Co800 2.008 1_554 S
Co800 N799 2.008 1_556 S
Co800 N801 1.995 . S
Co800 N806 2.008 . S
Co800 N811 1.995 1_556 S
Co800 N816 2.282 1_556 S
Co800 N822 2.282 . S
N801 Co800 1.995 . S
N801 C802 1.376 . S
N801 C805 1.383 . S
C802 N801 1.376 . S
C802 C803 1.446 . S
C802 C832 1.391 1_556 S
C803 C802 1.446 . S
C803 C804 1.339 . S
C803 H838 0.949 . S
C804 C803 1.339 . S
C804 C805 1.439 . S
C804 H839 0.950 . S
C805 N801 1.383 . S
C805 C804 1.439 . S
C805 C834 1.392 . S
N806 Co800 2.008 . S
N806 C807 1.376 . S
N806 C810 1.374 . S
C807 N806 1.376 . S
C807 C808 1.443 . S
C807 C834 1.389 . S
C808 C807 1.443 . S
C808 C809 1.340 . S
C808 H840 0.951 . S
C809 C808 1.340 . S
C809 C810 1.439 . S
C809 H841 0.950 . S
C810 N806 1.374 . S
C810 C809 1.439 . S
C810 C835 1.395 . S
N811 Co800 1.995 1_554 S
N811 C812 1.377 1_554 S
N811 C815 1.383 . S
C812 N811 1.377 1_556 S
C812 C813 1.448 1_546 S
C812 C835 1.389 . S
C813 C812 1.448 1_564 S
C813 C814 1.339 . S
C813 H842 0.949 . S
C814 C813 1.339 . S
C814 C815 1.439 1_565 S
C814 H843 0.950 . S
C815 N811 1.383 . S
C815 C814 1.439 1_545 S
C815 C833 1.392 . S
N816 Co800 2.282 1_554 S
N816 C819 1.332 . S
N816 C821 1.332 . S
C817 C818 1.386 . S
C817 C820 1.388 . S
C818 C817 1.386 . S
C818 C819 1.382 . S
C818 H844 0.950 . S
C819 N816 1.332 . S
C819 C818 1.382 . S
C819 H830 0.952 . S
C820 C817 1.388 . S
C820 C821 1.382 . S
C820 H845 0.950 . S
C821 N816 1.332 . S
C821 C820 1.382 . S
C821 H831 0.948 . S
N822 Co800 2.282 . S
N822 C826 1.332 . S
N822 C827 1.332 . S
C823 C824 1.388 . S
C823 C827 1.382 . S
C823 H846 0.950 1_545 S
C824 C823 1.388 . S
C824 C825 1.386 . S
C825 C824 1.386 . S
C825 C826 1.382 . S
C825 H847 0.950 . S
C826 N822 1.332 . S
C826 C825 1.382 . S
C826 H828 0.952 . S
C827 N822 1.332 . S
C827 C823 1.382 . S
C827 H829 0.948 . S
H828 C826 0.952 . S
H829 C827 0.948 . S
H830 C819 0.952 . S
H831 C821 0.948 . S
C832 C798 1.395 . S
C832 C802 1.391 1_554 S
C833 C795 1.389 . S
C833 C815 1.392 . S
C834 C805 1.392 . S
C834 C807 1.389 . S
C835 C810 1.395 . S
C835 C812 1.389 . S
H836 C796 0.951 . S
H837 C797 0.950 . S
H838 C803 0.949 . S
H839 C804 0.950 . S
H840 C808 0.951 . S
H841 C809 0.950 . S
H842 C813 0.949 . S
H843 C814 0.950 . S
H844 C818 0.950 . S
H845 C820 0.950 . S
H846 C823 0.950 1_565 S
H847 C825 0.950 . S
C848 C849 1.443 . S
C848 N852 1.376 . S
C848 C886 1.389 . S
C849 C848 1.443 . S
C849 C850 1.340 . S
C849 H889 0.951 . S
C850 C849 1.340 . S
C850 C851 1.439 . S
C850 H890 0.950 . S
C851 C850 1.439 . S
C851 N852 1.374 . S
C851 C885 1.395 . S
N852 C848 1.376 . S
N852 C851 1.374 . S
N852 Co853 2.008 . S
Co853 N852 2.008 . S
Co853 N854 1.995 . S
Co853 N859 2.008 . S
Co853 N864 1.995 . S
Co853 N869 2.282 . S
Co853 N875 2.282 . S
N854 Co853 1.995 . S
N854 C855 1.376 . S
N854 C858 1.383 . S
C855 N854 1.376 . S
C855 C856 1.446 . S
C855 C885 1.391 . S
C856 C855 1.446 . S
C856 C857 1.339 . S
C856 H891 0.949 . S
C857 C856 1.339 . S
C857 C858 1.439 . S
C857 H892 0.950 . S
C858 N854 1.383 . S
C858 C857 1.439 . S
C858 C887 1.392 . S
N859 Co853 2.008 . S
N859 C860 1.376 . S
N859 C863 1.374 . S
C860 N859 1.376 . S
C860 C861 1.443 . S
C860 C887 1.389 . S
C861 C860 1.443 . S
C861 C862 1.340 . S
C861 H893 0.951 . S
C862 C861 1.340 . S
C862 C863 1.439 . S
C862 H894 0.950 . S
C863 N859 1.374 . S
C863 C862 1.439 . S
C863 C888 1.395 . S
N864 Co853 1.995 . S
N864 C865 1.376 . S
N864 C868 1.383 . S
C865 N864 1.376 . S
C865 C866 1.446 . S
C865 C888 1.391 . S
C866 C865 1.446 . S
C866 C867 1.339 . S
C866 H895 0.949 . S
C867 C866 1.339 . S
C867 C868 1.439 . S
C867 H896 0.950 . S
C868 N864 1.383 . S
C868 C867 1.439 . S
C868 C886 1.392 . S
N869 Co853 2.282 . S
N869 C872 1.332 . S
N869 C874 1.332 . S
C870 C871 1.386 . S
C870 C873 1.388 . S
C871 C870 1.386 . S
C871 C872 1.382 . S
C871 H897 0.950 . S
C872 N869 1.332 . S
C872 C871 1.382 . S
C872 H883 0.952 . S
C873 C870 1.388 . S
C873 C874 1.382 . S
C873 H898 0.950 . S
C874 N869 1.332 . S
C874 C873 1.382 . S
C874 H884 0.948 . S
N875 Co853 2.282 . S
N875 C879 1.332 . S
N875 C880 1.332 . S
C876 C877 1.388 . S
C876 C880 1.382 . S
C876 H899 0.950 . S
C877 C876 1.388 . S
C877 C878 1.386 . S
C878 C877 1.386 . S
C878 C879 1.382 . S
C878 H900 0.950 . S
C879 N875 1.332 . S
C879 C878 1.382 . S
C879 H881 0.952 . S
C880 N875 1.332 . S
C880 C876 1.382 . S
C880 H882 0.948 . S
H881 C879 0.952 . S
H882 C880 0.948 . S
H883 C872 0.952 . S
H884 C874 0.948 . S
C885 C851 1.395 . S
C885 C855 1.391 . S
C886 C848 1.389 . S
C886 C868 1.392 . S
C887 C858 1.392 . S
C887 C860 1.389 . S
C888 C863 1.395 . S
C888 C865 1.391 . S
H889 C849 0.951 . S
H890 C850 0.950 . S
H891 C856 0.949 . S
H892 C857 0.950 . S
H893 C861 0.951 . S
H894 C862 0.950 . S
H895 C866 0.949 . S
H896 C867 0.950 . S
H897 C871 0.950 . S
H898 C873 0.950 . S
H899 C876 0.950 . S
H900 C878 0.950 . S
C901 C902 1.443 . S
C901 N905 1.376 . S
C901 C939 1.389 . S
C902 C901 1.443 . S
C902 C903 1.340 . S
C902 H942 0.951 . S
C903 C902 1.340 . S
C903 C904 1.439 . S
C903 H943 0.950 . S
C904 C903 1.439 . S
C904 N905 1.374 . S
C904 C938 1.395 . S
N905 C901 1.376 . S
N905 C904 1.374 . S
N905 Co906 2.008 . S
Co906 N905 2.008 . S
Co906 N907 1.995 . S
Co906 N912 2.008 . S
Co906 N917 1.995 . S
Co906 N922 2.282 . S
Co906 N928 2.282 . S
N907 Co906 1.995 . S
N907 C908 1.376 . S
N907 C911 1.383 . S
C908 N907 1.376 . S
C908 C909 1.446 . S
C908 C938 1.391 . S
C909 C908 1.446 . S
C909 C910 1.339 . S
C909 H944 0.949 . S
C910 C909 1.339 . S
C910 C911 1.439 . S
C910 H945 0.950 . S
C911 N907 1.383 . S
C911 C910 1.439 . S
C911 C940 1.392 . S
N912 Co906 2.008 . S
N912 C913 1.376 . S
N912 C916 1.374 . S
C913 N912 1.376 . S
C913 C914 1.443 . S
C913 C940 1.389 . S
C914 C913 1.443 . S
C914 C915 1.340 . S
C914 H946 0.951 . S
C915 C914 1.340 . S
C915 C916 1.439 . S
C915 H947 0.950 . S
C916 N912 1.374 . S
C916 C915 1.439 . S
C916 C941 1.395 . S
N917 Co906 1.995 . S
N917 C918 1.376 . S
N917 C921 1.383 . S
C918 N917 1.376 . S
C918 C919 1.446 . S
C918 C941 1.391 . S
C919 C918 1.446 . S
C919 C920 1.339 . S
C919 H948 0.949 . S
C920 C919 1.339 . S
C920 C921 1.439 . S
C920 H949 0.950 . S
C921 N917 1.383 . S
C921 C920 1.439 . S
C921 C939 1.392 . S
N922 Co906 2.282 . S
N922 C925 1.332 . S
N922 C927 1.332 . S
C923 C924 1.386 . S
C923 C926 1.388 . S
C924 C923 1.386 . S
C924 C925 1.382 . S
C924 H950 0.950 . S
C925 N922 1.332 . S
C925 C924 1.382 . S
C925 H936 0.952 . S
C926 C923 1.388 . S
C926 C927 1.382 . S
C926 H951 0.950 . S
C927 N922 1.332 . S
C927 C926 1.382 . S
C927 H937 0.948 . S
N928 Co906 2.282 . S
N928 C932 1.332 . S
N928 C933 1.332 . S
C929 C930 1.388 . S
C929 C933 1.382 . S
C929 H952 0.950 . S
C930 C929 1.388 . S
C930 C931 1.386 . S
C931 C930 1.386 . S
C931 C932 1.382 . S
C931 H953 0.950 . S
C932 N928 1.332 . S
C932 C931 1.382 . S
C932 H934 0.952 . S
C933 N928 1.332 . S
C933 C929 1.382 . S
C933 H935 0.948 . S
H934 C932 0.952 . S
H935 C933 0.948 . S
H936 C925 0.952 . S
H937 C927 0.948 . S
C938 C904 1.395 . S
C938 C908 1.391 . S
C939 C901 1.389 . S
C939 C921 1.392 . S
C940 C911 1.392 . S
C940 C913 1.389 . S
C941 C916 1.395 . S
C941 C918 1.391 . S
H942 C902 0.951 . S
H943 C903 0.950 . S
H944 C909 0.949 . S
H945 C910 0.950 . S
H946 C914 0.951 . S
H947 C915 0.950 . S
H948 C919 0.949 . S
H949 C920 0.950 . S
H950 C924 0.950 . S
H951 C926 0.950 . S
H952 C929 0.950 . S
H953 C931 0.950 . S
C954 C955 1.443 . S
C954 N958 1.376 . S
C954 C992 1.389 . S
C955 C954 1.443 . S
C955 C956 1.340 . S
C955 H995 0.951 . S
C956 C955 1.340 . S
C956 C957 1.439 . S
C956 H996 0.950 . S
C957 C956 1.439 . S
C957 N958 1.374 . S
C957 C991 1.395 . S
N958 C954 1.376 . S
N958 C957 1.374 . S
N958 Co959 2.008 . S
Co959 N958 2.008 . S
Co959 N960 1.995 . S
Co959 N965 2.008 . S
Co959 N970 1.995 . S
Co959 N975 2.282 . S
Co959 N981 2.282 . S
N960 Co959 1.995 . S
N960 C961 1.376 . S
N960 C964 1.383 . S
C961 N960 1.376 . S
C961 C962 1.446 . S
C961 C991 1.391 . S
C962 C961 1.446 . S
C962 C963 1.339 . S
C962 H997 0.949 . S
C963 C962 1.339 . S
C963 C964 1.439 . S
C963 H998 0.950 . S
C964 N960 1.383 . S
C964 C963 1.439 . S
C964 C993 1.392 . S
N965 Co959 2.008 . S
N965 C966 1.376 . S
N965 C969 1.374 . S
C966 N965 1.376 . S
C966 C967 1.443 . S
C966 C993 1.389 . S
C967 C966 1.443 . S
C967 C968 1.340 . S
C967 H999 0.951 . S
C968 C967 1.340 . S
C968 C969 1.439 . S
C968 H1000 0.950 . S
C969 N965 1.374 . S
C969 C968 1.439 . S
C969 C994 1.395 . S
N970 Co959 1.995 . S
N970 C971 1.376 . S
N970 C974 1.383 . S
C971 N970 1.376 . S
C971 C972 1.446 1_655 S
C971 C994 1.391 . S
C972 C971 1.446 1_455 S
C972 C973 1.339 . S
C972 H1001 0.949 . S
C973 C972 1.339 . S
C973 C974 1.439 1_455 S
C973 H1002 0.950 . S
C974 N970 1.383 . S
C974 C973 1.439 1_655 S
C974 C992 1.392 . S
N975 Co959 2.282 . S
N975 C978 1.332 . S
N975 C980 1.332 . S
C976 C977 1.386 . S
C976 C979 1.388 . S
C977 C976 1.386 . S
C977 C978 1.382 . S
C977 H1003 0.950 . S
C978 N975 1.332 . S
C978 C977 1.382 . S
C978 H989 0.952 . S
C979 C976 1.388 . S
C979 C980 1.382 . S
C979 H1004 0.950 . S
C980 N975 1.332 . S
C980 C979 1.382 . S
C980 H990 0.948 . S
N981 Co959 2.282 . S
N981 C985 1.332 . S
N981 C986 1.332 . S
C982 C983 1.388 . S
C982 C986 1.382 . S
C982 H1005 0.950 1_655 S
C983 C982 1.388 . S
C983 C984 1.386 . S
C984 C983 1.386 . S
C984 C985 1.382 . S
C984 H1006 0.950 . S
C985 N981 1.332 . S
C985 C984 1.382 . S
C985 H987 0.952 . S
C986 N981 1.332 . S
C986 C982 1.382 . S
C986 H988 0.948 . S
H987 C985 0.952 . S
H988 C986 0.948 . S
H989 C978 0.952 . S
H990 C980 0.948 . S
C991 C957 1.395 . S
C991 C961 1.391 . S
C992 C954 1.389 . S
C992 C974 1.392 . S
C993 C964 1.392 . S
C993 C966 1.389 . S
C994 C969 1.395 . S
C994 C971 1.391 . S
H995 C955 0.951 . S
H996 C956 0.950 . S
H997 C962 0.949 . S
H998 C963 0.950 . S
H999 C967 0.951 . S
H1000 C968 0.950 . S
H1001 C972 0.949 . S
H1002 C973 0.950 . S
H1003 C977 0.950 . S
H1004 C979 0.950 . S
H1005 C982 0.950 1_455 S
H1006 C984 0.950 . S
C1007 C1008 1.443 . S
C1007 N1011 1.376 . S
C1007 C1045 1.389 . S
C1008 C1007 1.443 . S
C1008 C1009 1.340 . S
C1008 H1048 0.951 . S
C1009 C1008 1.340 . S
C1009 C1010 1.439 . S
C1009 H1049 0.950 . S
C1010 C1009 1.439 . S
C1010 N1011 1.374 . S
C1010 C1044 1.395 . S
N1011 C1007 1.376 . S
N1011 C1010 1.374 . S
N1011 Co1012 2.008 . S
Co1012 N1011 2.008 . S
Co1012 N1013 1.995 . S
Co1012 N1018 2.008 . S
Co1012 N1023 1.995 . S
Co1012 N1028 2.282 . S
Co1012 N1034 2.282 . S
N1013 Co1012 1.995 . S
N1013 C1014 1.376 . S
N1013 C1017 1.383 . S
C1014 N1013 1.376 . S
C1014 C1015 1.446 . S
C1014 C1044 1.391 . S
C1015 C1014 1.446 . S
C1015 C1016 1.339 . S
C1015 H1050 0.949 . S
C1016 C1015 1.339 . S
C1016 C1017 1.439 . S
C1016 H1051 0.950 . S
C1017 N1013 1.383 . S
C1017 C1016 1.439 . S
C1017 C1046 1.392 . S
N1018 Co1012 2.008 . S
N1018 C1019 1.376 . S
N1018 C1022 1.374 . S
C1019 N1018 1.376 . S
C1019 C1020 1.443 . S
C1019 C1046 1.389 . S
C1020 C1019 1.443 . S
C1020 C1021 1.340 . S
C1020 H1052 0.951 . S
C1021 C1020 1.340 . S
C1021 C1022 1.439 . S
C1021 H1053 0.950 . S
C1022 N1018 1.374 . S
C1022 C1021 1.439 . S
C1022 C1047 1.395 . S
N1023 Co1012 1.995 . S
N1023 C1024 1.376 . S
N1023 C1027 1.383 . S
C1024 N1023 1.376 . S
C1024 C1025 1.446 . S
C1024 C1047 1.391 . S
C1025 C1024 1.446 . S
C1025 C1026 1.339 . S
C1025 H1054 0.949 . S
C1026 C1025 1.339 . S
C1026 C1027 1.439 . S
C1026 H1055 0.950 . S
C1027 N1023 1.383 . S
C1027 C1026 1.439 . S
C1027 C1045 1.392 . S
N1028 Co1012 2.282 . S
N1028 C1031 1.332 . S
N1028 C1033 1.332 . S
C1029 C1030 1.386 . S
C1029 C1032 1.388 . S
C1030 C1029 1.386 . S
C1030 C1031 1.382 . S
C1030 H1056 0.950 . S
C1031 N1028 1.332 . S
C1031 C1030 1.382 . S
C1031 H1042 0.952 . S
C1032 C1029 1.388 . S
C1032 C1033 1.382 . S
C1032 H1057 0.950 . S
C1033 N1028 1.332 . S
C1033 C1032 1.382 . S
C1033 H1043 0.948 . S
N1034 Co1012 2.282 . S
N1034 C1038 1.332 . S
N1034 C1039 1.332 . S
C1035 C1036 1.388 . S
C1035 C1039 1.382 . S
C1035 H1058 0.950 . S
C1036 C1035 1.388 . S
C1036 C1037 1.386 . S
C1037 C1036 1.386 . S
C1037 C1038 1.382 . S
C1037 H1059 0.950 . S
C1038 N1034 1.332 . S
C1038 C1037 1.382 . S
C1038 H1040 0.952 . S
C1039 N1034 1.332 . S
C1039 C1035 1.382 . S
C1039 H1041 0.948 . S
H1040 C1038 0.952 . S
H1041 C1039 0.948 . S
H1042 C1031 0.952 . S
H1043 C1033 0.948 . S
C1044 C1010 1.395 . S
C1044 C1014 1.391 . S
C1045 C1007 1.389 . S
C1045 C1027 1.392 . S
C1046 C1017 1.392 . S
C1046 C1019 1.389 . S
C1047 C1022 1.395 . S
C1047 C1024 1.391 . S
H1048 C1008 0.951 . S
H1049 C1009 0.950 . S
H1050 C1015 0.949 . S
H1051 C1016 0.950 . S
H1052 C1020 0.951 . S
H1053 C1021 0.950 . S
H1054 C1025 0.949 . S
H1055 C1026 0.950 . S
H1056 C1030 0.950 . S
H1057 C1032 0.950 . S
H1058 C1035 0.950 . S
H1059 C1037 0.950 . S
C1060 C1061 1.443 . S
C1060 N1064 1.376 . S
C1060 C1098 1.389 . S
C1061 C1060 1.443 . S
C1061 C1062 1.340 . S
C1061 H1101 0.951 . S
C1062 C1061 1.340 . S
C1062 C1063 1.439 . S
C1062 H1102 0.950 . S
C1063 C1062 1.439 . S
C1063 N1064 1.374 . S
C1063 C1097 1.395 . S
N1064 C1060 1.376 . S
N1064 C1063 1.374 . S
N1064 Co1065 2.008 . S
Co1065 N1064 2.008 . S
Co1065 N1066 1.995 . S
Co1065 N1071 2.008 . S
Co1065 N1076 1.995 . S
Co1065 N1081 2.282 . S
Co1065 N1087 2.282 . S
N1066 Co1065 1.995 . S
N1066 C1067 1.376 . S
N1066 C1070 1.383 . S
C1067 N1066 1.376 . S
C1067 C1068 1.446 . S
C1067 C1097 1.391 . S
C1068 C1067 1.446 . S
C1068 C1069 1.339 . S
C1068 H1103 0.949 . S
C1069 C1068 1.339 . S
C1069 C1070 1.439 . S
C1069 H1104 0.950 . S
C1070 N1066 1.383 . S
C1070 C1069 1.439 . S
C1070 C1099 1.392 . S
N1071 Co1065 2.008 . S
N1071 C1072 1.376 . S
N1071 C1075 1.374 . S
C1072 N1071 1.376 . S
C1072 C1073 1.443 . S
C1072 C1099 1.389 . S
C1073 C1072 1.443 . S
C1073 C1074 1.340 . S
C1073 H1105 0.951 . S
C1074 C1073 1.340 . S
C1074 C1075 1.439 . S
C1074 H1106 0.950 . S
C1075 N1071 1.374 . S
C1075 C1074 1.439 . S
C1075 C1100 1.395 . S
N1076 Co1065 1.995 . S
N1076 C1077 1.376 . S
N1076 C1080 1.383 . S
C1077 N1076 1.376 . S
C1077 C1078 1.446 . S
C1077 C1100 1.391 . S
C1078 C1077 1.446 . S
C1078 C1079 1.339 . S
C1078 H1107 0.949 . S
C1079 C1078 1.339 . S
C1079 C1080 1.439 . S
C1079 H1108 0.950 . S
C1080 N1076 1.383 . S
C1080 C1079 1.439 . S
C1080 C1098 1.392 . S
N1081 Co1065 2.282 . S
N1081 C1084 1.332 . S
N1081 C1086 1.332 . S
C1082 C1083 1.386 . S
C1082 C1085 1.388 . S
C1083 C1082 1.386 . S
C1083 C1084 1.382 . S
C1083 H1109 0.950 . S
C1084 N1081 1.332 . S
C1084 C1083 1.382 . S
C1084 H1095 0.952 . S
C1085 C1082 1.388 . S
C1085 C1086 1.382 . S
C1085 H1110 0.950 . S
C1086 N1081 1.332 . S
C1086 C1085 1.382 . S
C1086 H1096 0.948 . S
N1087 Co1065 2.282 . S
N1087 C1091 1.332 . S
N1087 C1092 1.332 . S
C1088 C1089 1.388 . S
C1088 C1092 1.382 . S
C1088 H1111 0.950 . S
C1089 C1088 1.388 . S
C1089 C1090 1.386 . S
C1090 C1089 1.386 . S
C1090 C1091 1.382 . S
C1090 H1112 0.950 . S
C1091 N1087 1.332 . S
C1091 C1090 1.382 . S
C1091 H1093 0.952 . S
C1092 N1087 1.332 . S
C1092 C1088 1.382 . S
C1092 H1094 0.948 . S
H1093 C1091 0.952 . S
H1094 C1092 0.948 . S
H1095 C1084 0.952 . S
H1096 C1086 0.948 . S
C1097 C1063 1.395 . S
C1097 C1067 1.391 . S
C1098 C1060 1.389 . S
C1098 C1080 1.392 . S
C1099 C1070 1.392 . S
C1099 C1072 1.389 . S
C1100 C1075 1.395 . S
C1100 C1077 1.391 . S
H1101 C1061 0.951 . S
H1102 C1062 0.950 . S
H1103 C1068 0.949 . S
H1104 C1069 0.950 . S
H1105 C1073 0.951 . S
H1106 C1074 0.950 . S
H1107 C1078 0.949 . S
H1108 C1079 0.950 . S
H1109 C1083 0.950 . S
H1110 C1085 0.950 . S
H1111 C1088 0.950 . S
H1112 C1090 0.950 . S
C1113 C1114 1.443 . S
C1113 N1117 1.376 . S
C1113 C1151 1.389 . S
C1114 C1113 1.443 . S
C1114 C1115 1.340 . S
C1114 H1154 0.951 . S
C1115 C1114 1.340 . S
C1115 C1116 1.439 . S
C1115 H1155 0.950 . S
C1116 C1115 1.439 . S
C1116 N1117 1.374 . S
C1116 C1150 1.395 . S
N1117 C1113 1.376 . S
N1117 C1116 1.374 . S
N1117 Co1118 2.008 . S
Co1118 N1117 2.008 . S
Co1118 N1119 1.995 . S
Co1118 N1124 2.008 . S
Co1118 N1129 1.995 . S
Co1118 N1134 2.282 . S
Co1118 N1140 2.282 . S
N1119 Co1118 1.995 . S
N1119 C1120 1.376 . S
N1119 C1123 1.383 . S
C1120 N1119 1.376 . S
C1120 C1121 1.446 . S
C1120 C1150 1.391 . S
C1121 C1120 1.446 . S
C1121 C1122 1.339 . S
C1121 H1156 0.949 . S
C1122 C1121 1.339 . S
C1122 C1123 1.439 . S
C1122 H1157 0.950 . S
C1123 N1119 1.383 . S
C1123 C1122 1.439 . S
C1123 C1152 1.392 . S
N1124 Co1118 2.008 . S
N1124 C1125 1.376 . S
N1124 C1128 1.374 . S
C1125 N1124 1.376 . S
C1125 C1126 1.443 . S
C1125 C1152 1.389 . S
C1126 C1125 1.443 . S
C1126 C1127 1.340 . S
C1126 H1158 0.951 . S
C1127 C1126 1.340 . S
C1127 C1128 1.439 . S
C1127 H1159 0.950 . S
C1128 N1124 1.374 . S
C1128 C1127 1.439 . S
C1128 C1153 1.395 . S
N1129 Co1118 1.995 . S
N1129 C1130 1.376 . S
N1129 C1133 1.383 . S
C1130 N1129 1.376 . S
C1130 C1131 1.446 . S
C1130 C1153 1.391 . S
C1131 C1130 1.446 . S
C1131 C1132 1.339 . S
C1131 H1160 0.949 . S
C1132 C1131 1.339 . S
C1132 C1133 1.439 . S
C1132 H1161 0.950 . S
C1133 N1129 1.383 . S
C1133 C1132 1.439 . S
C1133 C1151 1.392 . S
N1134 Co1118 2.282 . S
N1134 C1137 1.332 . S
N1134 C1139 1.332 . S
C1135 C1136 1.386 . S
C1135 C1138 1.388 . S
C1136 C1135 1.386 . S
C1136 C1137 1.382 . S
C1136 H1162 0.950 . S
C1137 N1134 1.332 . S
C1137 C1136 1.382 . S
C1137 H1148 0.952 . S
C1138 C1135 1.388 . S
C1138 C1139 1.382 . S
C1138 H1163 0.950 . S
C1139 N1134 1.332 . S
C1139 C1138 1.382 . S
C1139 H1149 0.948 . S
N1140 Co1118 2.282 . S
N1140 C1144 1.332 . S
N1140 C1145 1.332 . S
C1141 C1142 1.388 . S
C1141 C1145 1.382 . S
C1141 H1164 0.950 . S
C1142 C1141 1.388 . S
C1142 C1143 1.386 . S
C1143 C1142 1.386 . S
C1143 C1144 1.382 . S
C1143 H1165 0.950 . S
C1144 N1140 1.332 . S
C1144 C1143 1.382 . S
C1144 H1146 0.952 . S
C1145 N1140 1.332 . S
C1145 C1141 1.382 . S
C1145 H1147 0.948 . S
H1146 C1144 0.952 . S
H1147 C1145 0.948 . S
H1148 C1137 0.952 . S
H1149 C1139 0.948 . S
C1150 C1116 1.395 . S
C1150 C1120 1.391 . S
C1151 C1113 1.389 . S
C1151 C1133 1.392 . S
C1152 C1123 1.392 . S
C1152 C1125 1.389 . S
C1153 C1128 1.395 . S
C1153 C1130 1.391 . S
H1154 C1114 0.951 . S
H1155 C1115 0.950 . S
H1156 C1121 0.949 . S
H1157 C1122 0.950 . S
H1158 C1126 0.951 . S
H1159 C1127 0.950 . S
H1160 C1131 0.949 . S
H1161 C1132 0.950 . S
H1162 C1136 0.950 . S
H1163 C1138 0.950 . S
H1164 C1141 0.950 . S
H1165 C1143 0.950 . S
C1166 C1167 1.443 . S
C1166 N1170 1.376 . S
C1166 C1204 1.389 . S
C1167 C1166 1.443 . S
C1167 C1168 1.340 . S
C1167 H1207 0.951 . S
C1168 C1167 1.340 . S
C1168 C1169 1.439 . S
C1168 H1208 0.950 . S
C1169 C1168 1.439 . S
C1169 N1170 1.374 . S
C1169 C1203 1.395 . S
N1170 C1166 1.376 . S
N1170 C1169 1.374 . S
N1170 Co1171 2.008 . S
Co1171 N1170 2.008 . S
Co1171 N1172 1.995 . S
Co1171 N1177 2.008 . S
Co1171 N1182 1.995 . S
Co1171 N1187 2.282 . S
Co1171 N1193 2.282 . S
N1172 Co1171 1.995 . S
N1172 C1173 1.376 . S
N1172 C1176 1.383 . S
C1173 N1172 1.376 . S
C1173 C1174 1.446 . S
C1173 C1203 1.391 . S
C1174 C1173 1.446 . S
C1174 C1175 1.339 . S
C1174 H1209 0.949 . S
C1175 C1174 1.339 . S
C1175 C1176 1.439 . S
C1175 H1210 0.950 . S
C1176 N1172 1.383 . S
C1176 C1175 1.439 . S
C1176 C1205 1.392 . S
N1177 Co1171 2.008 . S
N1177 C1178 1.376 . S
N1177 C1181 1.374 . S
C1178 N1177 1.376 . S
C1178 C1179 1.443 . S
C1178 C1205 1.389 . S
C1179 C1178 1.443 . S
C1179 C1180 1.340 . S
C1179 H1211 0.951 . S
C1180 C1179 1.340 . S
C1180 C1181 1.439 . S
C1180 H1212 0.950 . S
C1181 N1177 1.374 . S
C1181 C1180 1.439 . S
C1181 C1206 1.395 . S
N1182 Co1171 1.995 . S
N1182 C1183 1.376 . S
N1182 C1186 1.383 . S
C1183 N1182 1.376 . S
C1183 C1184 1.446 1_655 S
C1183 C1206 1.391 . S
C1184 C1183 1.446 1_455 S
C1184 C1185 1.339 . S
C1184 H1213 0.949 . S
C1185 C1184 1.339 . S
C1185 C1186 1.439 1_455 S
C1185 H1214 0.950 . S
C1186 N1182 1.383 . S
C1186 C1185 1.439 1_655 S
C1186 C1204 1.392 . S
N1187 Co1171 2.282 . S
N1187 C1190 1.332 . S
N1187 C1192 1.332 . S
C1188 C1189 1.386 . S
C1188 C1191 1.388 . S
C1189 C1188 1.386 . S
C1189 C1190 1.382 . S
C1189 H1215 0.950 . S
C1190 N1187 1.332 . S
C1190 C1189 1.382 . S
C1190 H1201 0.952 . S
C1191 C1188 1.388 . S
C1191 C1192 1.382 . S
C1191 H1216 0.950 . S
C1192 N1187 1.332 . S
C1192 C1191 1.382 . S
C1192 H1202 0.948 . S
N1193 Co1171 2.282 . S
N1193 C1197 1.332 . S
N1193 C1198 1.332 . S
C1194 C1195 1.388 . S
C1194 C1198 1.382 . S
C1194 H1217 0.950 1_655 S
C1195 C1194 1.388 . S
C1195 C1196 1.386 . S
C1196 C1195 1.386 . S
C1196 C1197 1.382 . S
C1196 H1218 0.950 . S
C1197 N1193 1.332 . S
C1197 C1196 1.382 . S
C1197 H1199 0.952 . S
C1198 N1193 1.332 . S
C1198 C1194 1.382 . S
C1198 H1200 0.948 . S
H1199 C1197 0.952 . S
H1200 C1198 0.948 . S
H1201 C1190 0.952 . S
H1202 C1192 0.948 . S
C1203 C1169 1.395 . S
C1203 C1173 1.391 . S
C1204 C1166 1.389 . S
C1204 C1186 1.392 . S
C1205 C1176 1.392 . S
C1205 C1178 1.389 . S
C1206 C1181 1.395 . S
C1206 C1183 1.391 . S
H1207 C1167 0.951 . S
H1208 C1168 0.950 . S
H1209 C1174 0.949 . S
H1210 C1175 0.950 . S
H1211 C1179 0.951 . S
H1212 C1180 0.950 . S
H1213 C1184 0.949 . S
H1214 C1185 0.950 . S
H1215 C1189 0.950 . S
H1216 C1191 0.950 . S
H1217 C1194 0.950 1_455 S
H1218 C1196 0.950 . S
C1219 C1220 1.443 . S
C1219 N1223 1.376 . S
C1219 C1257 1.389 . S
C1220 C1219 1.443 . S
C1220 C1221 1.340 . S
C1220 H1260 0.951 . S
C1221 C1220 1.340 . S
C1221 C1222 1.439 . S
C1221 H1261 0.950 . S
C1222 C1221 1.439 . S
C1222 N1223 1.374 . S
C1222 C1256 1.395 . S
N1223 C1219 1.376 . S
N1223 C1222 1.374 . S
N1223 Co1224 2.008 1_565 S
Co1224 N1223 2.008 1_545 S
Co1224 N1225 1.995 . S
Co1224 N1230 2.008 . S
Co1224 N1235 1.995 1_545 S
Co1224 N1240 2.282 1_545 S
Co1224 N1246 2.282 . S
N1225 Co1224 1.995 . S
N1225 C1226 1.376 . S
N1225 C1229 1.383 . S
C1226 N1225 1.376 . S
C1226 C1227 1.446 . S
C1226 C1256 1.391 1_545 S
C1227 C1226 1.446 . S
C1227 C1228 1.339 . S
C1227 H1262 0.949 . S
C1228 C1227 1.339 . S
C1228 C1229 1.439 . S
C1228 H1263 0.950 . S
C1229 N1225 1.383 . S
C1229 C1228 1.439 . S
C1229 C1258 1.392 . S
N1230 Co1224 2.008 . S
N1230 C1231 1.376 . S
N1230 C1234 1.374 . S
C1231 N1230 1.376 . S
C1231 C1232 1.443 . S
C1231 C1258 1.389 . S
C1232 C1231 1.443 . S
C1232 C1233 1.340 . S
C1232 H1264 0.951 . S
C1233 C1232 1.340 . S
C1233 C1234 1.439 . S
C1233 H1265 0.950 . S
C1234 N1230 1.374 . S
C1234 C1233 1.439 . S
C1234 C1259 1.395 . S
N1235 Co1224 1.995 1_565 S
N1235 C1236 1.377 1_565 S
N1235 C1239 1.383 . S
C1236 N1235 1.377 1_545 S
C1236 C1237 1.447 1_445 S
C1236 C1259 1.390 . S
C1237 C1236 1.447 1_665 S
C1237 C1238 1.339 . S
C1237 H1266 0.949 . S
C1238 C1237 1.339 . S
C1238 C1239 1.439 1_655 S
C1238 H1267 0.950 . S
C1239 N1235 1.383 . S
C1239 C1238 1.439 1_455 S
C1239 C1257 1.392 . S
N1240 Co1224 2.282 1_565 S
N1240 C1243 1.332 . S
N1240 C1245 1.332 . S
C1241 C1242 1.386 . S
C1241 C1244 1.388 . S
C1242 C1241 1.386 . S
C1242 C1243 1.382 . S
C1242 H1268 0.950 . S
C1243 N1240 1.332 . S
C1243 C1242 1.382 . S
C1243 H1254 0.952 . S
C1244 C1241 1.388 . S
C1244 C1245 1.382 . S
C1244 H1269 0.950 . S
C1245 N1240 1.332 . S
C1245 C1244 1.382 . S
C1245 H1255 0.948 . S
N1246 Co1224 2.282 . S
N1246 C1250 1.332 . S
N1246 C1251 1.332 . S
C1247 C1248 1.388 . S
C1247 C1251 1.382 . S
C1247 H1270 0.950 1_455 S
C1248 C1247 1.388 . S
C1248 C1249 1.386 . S
C1249 C1248 1.386 . S
C1249 C1250 1.382 . S
C1249 H1271 0.950 . S
C1250 N1246 1.332 . S
C1250 C1249 1.382 . S
C1250 H1252 0.952 . S
C1251 N1246 1.332 . S
C1251 C1247 1.382 . S
C1251 H1253 0.948 . S
H1252 C1250 0.952 . S
H1253 C1251 0.948 . S
H1254 C1243 0.952 . S
H1255 C1245 0.948 . S
C1256 C1222 1.395 . S
C1256 C1226 1.391 1_565 S
C1257 C1219 1.389 . S
C1257 C1239 1.392 . S
C1258 C1229 1.392 . S
C1258 C1231 1.389 . S
C1259 C1234 1.395 . S
C1259 C1236 1.390 . S
H1260 C1220 0.951 . S
H1261 C1221 0.950 . S
H1262 C1227 0.949 . S
H1263 C1228 0.950 . S
H1264 C1232 0.951 . S
H1265 C1233 0.950 . S
H1266 C1237 0.949 . S
H1267 C1238 0.950 . S
H1268 C1242 0.950 . S
H1269 C1244 0.950 . S
H1270 C1247 0.950 1_655 S
H1271 C1249 0.950 . S
C1272 C1273 1.443 . S
C1272 N1276 1.376 . S
C1272 C1310 1.389 . S
C1273 C1272 1.443 . S
C1273 C1274 1.340 . S
C1273 H1313 0.951 . S
C1274 C1273 1.340 . S
C1274 C1275 1.439 . S
C1274 H1314 0.950 . S
C1275 C1274 1.439 . S
C1275 N1276 1.374 . S
C1275 C1309 1.395 . S
N1276 C1272 1.376 . S
N1276 C1275 1.374 . S
N1276 Co1277 2.008 . S
Co1277 N1276 2.008 . S
Co1277 N1278 1.995 . S
Co1277 N1283 2.008 . S
Co1277 N1288 1.995 . S
Co1277 N1293 2.282 . S
Co1277 N1299 2.282 . S
N1278 Co1277 1.995 . S
N1278 C1279 1.376 . S
N1278 C1282 1.383 . S
C1279 N1278 1.376 . S
C1279 C1280 1.446 . S
C1279 C1309 1.391 . S
C1280 C1279 1.446 . S
C1280 C1281 1.339 . S
C1280 H1315 0.949 . S
C1281 C1280 1.339 . S
C1281 C1282 1.439 . S
C1281 H1316 0.950 . S
C1282 N1278 1.383 . S
C1282 C1281 1.439 . S
C1282 C1311 1.392 . S
N1283 Co1277 2.008 . S
N1283 C1284 1.376 . S
N1283 C1287 1.374 . S
C1284 N1283 1.376 . S
C1284 C1285 1.443 . S
C1284 C1311 1.389 . S
C1285 C1284 1.443 . S
C1285 C1286 1.340 . S
C1285 H1317 0.951 . S
C1286 C1285 1.340 . S
C1286 C1287 1.439 . S
C1286 H1318 0.950 . S
C1287 N1283 1.374 . S
C1287 C1286 1.439 . S
C1287 C1312 1.395 . S
N1288 Co1277 1.995 . S
N1288 C1289 1.376 . S
N1288 C1292 1.383 . S
C1289 N1288 1.376 . S
C1289 C1290 1.446 . S
C1289 C1312 1.391 . S
C1290 C1289 1.446 . S
C1290 C1291 1.339 . S
C1290 H1319 0.949 . S
C1291 C1290 1.339 . S
C1291 C1292 1.439 . S
C1291 H1320 0.950 . S
C1292 N1288 1.383 . S
C1292 C1291 1.439 . S
C1292 C1310 1.392 . S
N1293 Co1277 2.282 . S
N1293 C1296 1.332 . S
N1293 C1298 1.332 . S
C1294 C1295 1.386 . S
C1294 C1297 1.388 . S
C1295 C1294 1.386 . S
C1295 C1296 1.382 . S
C1295 H1321 0.950 . S
C1296 N1293 1.332 . S
C1296 C1295 1.382 . S
C1296 H1307 0.952 . S
C1297 C1294 1.388 . S
C1297 C1298 1.382 . S
C1297 H1322 0.950 . S
C1298 N1293 1.332 . S
C1298 C1297 1.382 . S
C1298 H1308 0.948 . S
N1299 Co1277 2.282 . S
N1299 C1303 1.332 . S
N1299 C1304 1.332 . S
C1300 C1301 1.388 . S
C1300 C1304 1.382 . S
C1300 H1323 0.950 . S
C1301 C1300 1.388 . S
C1301 C1302 1.386 . S
C1302 C1301 1.386 . S
C1302 C1303 1.382 . S
C1302 H1324 0.950 . S
C1303 N1299 1.332 . S
C1303 C1302 1.382 . S
C1303 H1305 0.952 . S
C1304 N1299 1.332 . S
C1304 C1300 1.382 . S
C1304 H1306 0.948 . S
H1305 C1303 0.952 . S
H1306 C1304 0.948 . S
H1307 C1296 0.952 . S
H1308 C1298 0.948 . S
C1309 C1275 1.395 . S
C1309 C1279 1.391 . S
C1310 C1272 1.389 . S
C1310 C1292 1.392 . S
C1311 C1282 1.392 . S
C1311 C1284 1.389 . S
C1312 C1287 1.395 . S
C1312 C1289 1.391 . S
H1313 C1273 0.951 . S
H1314 C1274 0.950 . S
H1315 C1280 0.949 . S
H1316 C1281 0.950 . S
H1317 C1285 0.951 . S
H1318 C1286 0.950 . S
H1319 C1290 0.949 . S
H1320 C1291 0.950 . S
H1321 C1295 0.950 . S
H1322 C1297 0.950 . S
H1323 C1300 0.950 . S
H1324 C1302 0.950 . S
C1325 C1326 1.443 . S
C1325 N1329 1.376 . S
C1325 C1363 1.389 . S
C1326 C1325 1.443 . S
C1326 C1327 1.340 . S
C1326 H1366 0.951 . S
C1327 C1326 1.340 . S
C1327 C1328 1.439 . S
C1327 H1367 0.950 . S
C1328 C1327 1.439 . S
C1328 N1329 1.374 . S
C1328 C1362 1.395 . S
N1329 C1325 1.376 . S
N1329 C1328 1.374 . S
N1329 Co1330 2.008 1_455 S
Co1330 N1329 2.008 1_655 S
Co1330 N1331 1.995 . S
Co1330 N1336 2.008 . S
Co1330 N1341 1.995 1_655 S
Co1330 N1346 2.282 1_655 S
Co1330 N1352 2.282 . S
N1331 Co1330 1.995 . S
N1331 C1332 1.376 . S
N1331 C1335 1.383 . S
C1332 N1331 1.376 . S
C1332 C1333 1.446 . S
C1332 C1362 1.391 1_655 S
C1333 C1332 1.446 . S
C1333 C1334 1.339 . S
C1333 H1368 0.949 . S
C1334 C1333 1.339 . S
C1334 C1335 1.439 . S
C1334 H1369 0.950 . S
C1335 N1331 1.383 . S
C1335 C1334 1.439 . S
C1335 C1364 1.392 . S
N1336 Co1330 2.008 . S
N1336 C1337 1.376 . S
N1336 C1340 1.374 . S
C1337 N1336 1.376 . S
C1337 C1338 1.443 . S
C1337 C1364 1.389 . S
C1338 C1337 1.443 . S
C1338 C1339 1.340 . S
C1338 H1370 0.951 . S
C1339 C1338 1.340 . S
C1339 C1340 1.439 . S
C1339 H1371 0.950 . S
C1340 N1336 1.374 . S
C1340 C1339 1.439 . S
C1340 C1365 1.395 . S
N1341 Co1330 1.995 1_455 S
N1341 C1342 1.377 1_455 S
N1341 C1345 1.383 . S
C1342 N1341 1.377 1_655 S
C1342 C1343 1.447 1_655 S
C1342 C1365 1.389 . S
C1343 C1342 1.447 1_455 S
C1343 C1344 1.339 . S
C1343 H1372 0.949 . S
C1344 C1343 1.339 . S
C1344 C1345 1.439 . S
C1344 H1373 0.950 . S
C1345 N1341 1.383 . S
C1345 C1344 1.439 . S
C1345 C1363 1.392 . S
N1346 Co1330 2.282 1_455 S
N1346 C1349 1.332 . S
N1346 C1351 1.332 . S
C1347 C1348 1.386 . S
C1347 C1350 1.388 . S
C1348 C1347 1.386 . S
C1348 C1349 1.382 . S
C1348 H1374 0.950 . S
C1349 N1346 1.332 . S
C1349 C1348 1.382 . S
C1349 H1360 0.952 . S
C1350 C1347 1.388 . S
C1350 C1351 1.382 . S
C1350 H1375 0.950 . S
C1351 N1346 1.332 . S
C1351 C1350 1.382 . S
C1351 H1361 0.948 . S
N1352 Co1330 2.282 . S
N1352 C1356 1.332 . S
N1352 C1357 1.332 . S
C1353 C1354 1.388 . S
C1353 C1357 1.382 . S
C1353 H1376 0.950 . S
C1354 C1353 1.388 . S
C1354 C1355 1.386 . S
C1355 C1354 1.386 . S
C1355 C1356 1.382 . S
C1355 H1377 0.950 . S
C1356 N1352 1.332 . S
C1356 C1355 1.382 . S
C1356 H1358 0.952 . S
C1357 N1352 1.332 . S
C1357 C1353 1.382 . S
C1357 H1359 0.948 . S
H1358 C1356 0.952 . S
H1359 C1357 0.948 . S
H1360 C1349 0.952 . S
H1361 C1351 0.948 . S
C1362 C1328 1.395 . S
C1362 C1332 1.391 1_455 S
C1363 C1325 1.389 . S
C1363 C1345 1.392 . S
C1364 C1335 1.392 . S
C1364 C1337 1.389 . S
C1365 C1340 1.395 . S
C1365 C1342 1.389 . S
H1366 C1326 0.951 . S
H1367 C1327 0.950 . S
H1368 C1333 0.949 . S
H1369 C1334 0.950 . S
H1370 C1338 0.951 . S
H1371 C1339 0.950 . S
H1372 C1343 0.949 . S
H1373 C1344 0.950 . S
H1374 C1348 0.950 . S
H1375 C1350 0.950 . S
H1376 C1353 0.950 . S
H1377 C1355 0.950 . S
C1378 C1379 1.443 . S
C1378 N1382 1.376 . S
C1378 C1416 1.389 . S
C1379 C1378 1.443 . S
C1379 C1380 1.340 . S
C1379 H1419 0.951 . S
C1380 C1379 1.340 . S
C1380 C1381 1.439 . S
C1380 H1420 0.950 . S
C1381 C1380 1.439 . S
C1381 N1382 1.374 . S
C1381 C1415 1.395 . S
N1382 C1378 1.376 . S
N1382 C1381 1.374 . S
N1382 Co1383 2.008 . S
Co1383 N1382 2.008 . S
Co1383 N1384 1.995 . S
Co1383 N1389 2.008 . S
Co1383 N1394 1.995 . S
Co1383 N1399 2.282 . S
Co1383 N1405 2.282 . S
N1384 Co1383 1.995 . S
N1384 C1385 1.376 . S
N1384 C1388 1.383 . S
C1385 N1384 1.376 . S
C1385 C1386 1.446 . S
C1385 C1415 1.391 . S
C1386 C1385 1.446 . S
C1386 C1387 1.339 . S
C1386 H1421 0.949 . S
C1387 C1386 1.339 . S
C1387 C1388 1.439 . S
C1387 H1422 0.950 . S
C1388 N1384 1.383 . S
C1388 C1387 1.439 . S
C1388 C1417 1.392 . S
N1389 Co1383 2.008 . S
N1389 C1390 1.376 . S
N1389 C1393 1.374 . S
C1390 N1389 1.376 . S
C1390 C1391 1.443 . S
C1390 C1417 1.389 . S
C1391 C1390 1.443 . S
C1391 C1392 1.340 . S
C1391 H1423 0.951 . S
C1392 C1391 1.340 . S
C1392 C1393 1.439 . S
C1392 H1424 0.950 . S
C1393 N1389 1.374 . S
C1393 C1392 1.439 . S
C1393 C1418 1.395 . S
N1394 Co1383 1.995 . S
N1394 C1395 1.376 . S
N1394 C1398 1.383 . S
C1395 N1394 1.376 . S
C1395 C1396 1.446 . S
C1395 C1418 1.391 . S
C1396 C1395 1.446 . S
C1396 C1397 1.339 . S
C1396 H1425 0.949 . S
C1397 C1396 1.339 . S
C1397 C1398 1.439 . S
C1397 H1426 0.950 . S
C1398 N1394 1.383 . S
C1398 C1397 1.439 . S
C1398 C1416 1.392 . S
N1399 Co1383 2.282 . S
N1399 C1402 1.332 . S
N1399 C1404 1.332 . S
C1400 C1401 1.386 . S
C1400 C1403 1.388 . S
C1401 C1400 1.386 . S
C1401 C1402 1.382 . S
C1401 H1427 0.950 . S
C1402 N1399 1.332 . S
C1402 C1401 1.382 . S
C1402 H1413 0.952 . S
C1403 C1400 1.388 . S
C1403 C1404 1.382 . S
C1403 H1428 0.950 . S
C1404 N1399 1.332 . S
C1404 C1403 1.382 . S
C1404 H1414 0.948 . S
N1405 Co1383 2.282 . S
N1405 C1409 1.332 . S
N1405 C1410 1.332 . S
C1406 C1407 1.388 . S
C1406 C1410 1.382 . S
C1406 H1429 0.950 . S
C1407 C1406 1.388 . S
C1407 C1408 1.386 . S
C1408 C1407 1.386 . S
C1408 C1409 1.382 . S
C1408 H1430 0.950 . S
C1409 N1405 1.332 . S
C1409 C1408 1.382 . S
C1409 H1411 0.952 . S
C1410 N1405 1.332 . S
C1410 C1406 1.382 . S
C1410 H1412 0.948 . S
H1411 C1409 0.952 . S
H1412 C1410 0.948 . S
H1413 C1402 0.952 . S
H1414 C1404 0.948 . S
C1415 C1381 1.395 . S
C1415 C1385 1.391 . S
C1416 C1378 1.389 . S
C1416 C1398 1.392 . S
C1417 C1388 1.392 . S
C1417 C1390 1.389 . S
C1418 C1393 1.395 . S
C1418 C1395 1.391 . S
H1419 C1379 0.951 . S
H1420 C1380 0.950 . S
H1421 C1386 0.949 . S
H1422 C1387 0.950 . S
H1423 C1391 0.951 . S
H1424 C1392 0.950 . S
H1425 C1396 0.949 . S
H1426 C1397 0.950 . S
H1427 C1401 0.950 . S
H1428 C1403 0.950 . S
H1429 C1406 0.950 . S
H1430 C1408 0.950 . S
C1431 C1432 1.443 . S
C1431 N1435 1.376 . S
C1431 C1469 1.389 . S
C1432 C1431 1.443 . S
C1432 C1433 1.340 . S
C1432 H1472 0.951 . S
C1433 C1432 1.340 . S
C1433 C1434 1.439 . S
C1433 H1473 0.950 . S
C1434 C1433 1.439 . S
C1434 N1435 1.374 . S
C1434 C1468 1.395 . S
N1435 C1431 1.376 . S
N1435 C1434 1.374 . S
N1435 Co1436 2.008 1_655 S
Co1436 N1435 2.008 1_455 S
Co1436 N1437 1.995 . S
Co1436 N1442 2.008 . S
Co1436 N1447 1.995 1_455 S
Co1436 N1452 2.282 1_455 S
Co1436 N1458 2.282 . S
N1437 Co1436 1.995 . S
N1437 C1438 1.376 . S
N1437 C1441 1.383 . S
C1438 N1437 1.376 . S
C1438 C1439 1.446 . S
C1438 C1468 1.391 1_455 S
C1439 C1438 1.446 . S
C1439 C1440 1.339 . S
C1439 H1474 0.949 . S
C1440 C1439 1.339 . S
C1440 C1441 1.439 . S
C1440 H1475 0.950 . S
C1441 N1437 1.383 . S
C1441 C1440 1.439 . S
C1441 C1470 1.392 . S
N1442 Co1436 2.008 . S
N1442 C1443 1.376 . S
N1442 C1446 1.374 . S
C1443 N1442 1.376 . S
C1443 C1444 1.443 . S
C1443 C1470 1.389 . S
C1444 C1443 1.443 . S
C1444 C1445 1.340 . S
C1444 H1476 0.951 . S
C1445 C1444 1.340 . S
C1445 C1446 1.439 . S
C1445 H1477 0.950 . S
C1446 N1442 1.374 . S
C1446 C1445 1.439 . S
C1446 C1471 1.395 . S
N1447 Co1436 1.995 1_655 S
N1447 C1448 1.377 1_655 S
N1447 C1451 1.383 . S
C1448 N1447 1.377 1_455 S
C1448 C1449 1.447 1_455 S
C1448 C1471 1.390 . S
C1449 C1448 1.447 1_655 S
C1449 C1450 1.339 . S
C1449 H1478 0.949 . S
C1450 C1449 1.339 . S
C1450 C1451 1.439 . S
C1450 H1479 0.950 . S
C1451 N1447 1.383 . S
C1451 C1450 1.439 . S
C1451 C1469 1.392 . S
N1452 Co1436 2.282 1_655 S
N1452 C1455 1.332 . S
N1452 C1457 1.332 . S
C1453 C1454 1.386 . S
C1453 C1456 1.388 . S
C1454 C1453 1.386 . S
C1454 C1455 1.382 . S
C1454 H1480 0.950 . S
C1455 N1452 1.332 . S
C1455 C1454 1.382 . S
C1455 H1466 0.952 . S
C1456 C1453 1.388 . S
C1456 C1457 1.382 . S
C1456 H1481 0.950 . S
C1457 N1452 1.332 . S
C1457 C1456 1.382 . S
C1457 H1467 0.948 . S
N1458 Co1436 2.282 . S
N1458 C1462 1.332 . S
N1458 C1463 1.332 . S
C1459 C1460 1.388 . S
C1459 C1463 1.382 . S
C1459 H1482 0.950 . S
C1460 C1459 1.388 . S
C1460 C1461 1.386 . S
C1461 C1460 1.386 . S
C1461 C1462 1.382 . S
C1461 H1483 0.950 . S
C1462 N1458 1.332 . S
C1462 C1461 1.382 . S
C1462 H1464 0.952 . S
C1463 N1458 1.332 . S
C1463 C1459 1.382 . S
C1463 H1465 0.948 . S
H1464 C1462 0.952 . S
H1465 C1463 0.948 . S
H1466 C1455 0.952 . S
H1467 C1457 0.948 . S
C1468 C1434 1.395 . S
C1468 C1438 1.391 1_655 S
C1469 C1431 1.389 . S
C1469 C1451 1.392 . S
C1470 C1441 1.392 . S
C1470 C1443 1.389 . S
C1471 C1446 1.395 . S
C1471 C1448 1.390 . S
H1472 C1432 0.951 . S
H1473 C1433 0.950 . S
H1474 C1439 0.949 . S
H1475 C1440 0.950 . S
H1476 C1444 0.951 . S
H1477 C1445 0.950 . S
H1478 C1449 0.949 . S
H1479 C1450 0.950 . S
H1480 C1454 0.950 . S
H1481 C1456 0.950 . S
H1482 C1459 0.950 . S
H1483 C1461 0.950 . S
C1484 C1485 1.443 . S
C1484 N1488 1.376 . S
C1484 C1522 1.389 . S
C1485 C1484 1.443 . S
C1485 C1486 1.340 . S
C1485 H1525 0.951 . S
C1486 C1485 1.340 . S
C1486 C1487 1.439 . S
C1486 H1526 0.950 . S
C1487 C1486 1.439 . S
C1487 N1488 1.374 . S
C1487 C1521 1.395 . S
N1488 C1484 1.376 . S
N1488 C1487 1.374 . S
N1488 Co1489 2.008 . S
Co1489 N1488 2.008 . S
Co1489 N1490 1.995 . S
Co1489 N1495 2.008 . S
Co1489 N1500 1.995 . S
Co1489 N1505 2.282 . S
Co1489 N1511 2.282 . S
N1490 Co1489 1.995 . S
N1490 C1491 1.376 . S
N1490 C1494 1.383 . S
C1491 N1490 1.376 . S
C1491 C1492 1.446 . S
C1491 C1521 1.391 . S
C1492 C1491 1.446 . S
C1492 C1493 1.339 . S
C1492 H1527 0.949 . S
C1493 C1492 1.339 . S
C1493 C1494 1.439 . S
C1493 H1528 0.950 . S
C1494 N1490 1.383 . S
C1494 C1493 1.439 . S
C1494 C1523 1.392 . S
N1495 Co1489 2.008 . S
N1495 C1496 1.376 . S
N1495 C1499 1.374 . S
C1496 N1495 1.376 . S
C1496 C1497 1.443 . S
C1496 C1523 1.389 . S
C1497 C1496 1.443 . S
C1497 C1498 1.340 . S
C1497 H1529 0.951 . S
C1498 C1497 1.340 . S
C1498 C1499 1.439 . S
C1498 H1530 0.950 . S
C1499 N1495 1.374 . S
C1499 C1498 1.439 . S
C1499 C1524 1.395 . S
N1500 Co1489 1.995 . S
N1500 C1501 1.376 . S
N1500 C1504 1.383 . S
C1501 N1500 1.376 . S
C1501 C1502 1.446 . S
C1501 C1524 1.391 . S
C1502 C1501 1.446 . S
C1502 C1503 1.339 . S
C1502 H1531 0.949 . S
C1503 C1502 1.339 . S
C1503 C1504 1.439 . S
C1503 H1532 0.950 . S
C1504 N1500 1.383 . S
C1504 C1503 1.439 . S
C1504 C1522 1.392 . S
N1505 Co1489 2.282 . S
N1505 C1508 1.332 . S
N1505 C1510 1.332 . S
C1506 C1507 1.386 . S
C1506 C1509 1.388 . S
C1507 C1506 1.386 . S
C1507 C1508 1.382 . S
C1507 H1533 0.950 . S
C1508 N1505 1.332 . S
C1508 C1507 1.382 . S
C1508 H1519 0.952 . S
C1509 C1506 1.388 . S
C1509 C1510 1.382 . S
C1509 H1534 0.950 . S
C1510 N1505 1.332 . S
C1510 C1509 1.382 . S
C1510 H1520 0.948 . S
N1511 Co1489 2.282 . S
N1511 C1515 1.332 . S
N1511 C1516 1.332 . S
C1512 C1513 1.388 . S
C1512 C1516 1.382 . S
C1512 H1535 0.950 . S
C1513 C1512 1.388 . S
C1513 C1514 1.386 . S
C1514 C1513 1.386 . S
C1514 C1515 1.382 . S
C1514 H1536 0.950 . S
C1515 N1511 1.332 . S
C1515 C1514 1.382 . S
C1515 H1517 0.952 . S
C1516 N1511 1.332 . S
C1516 C1512 1.382 . S
C1516 H1518 0.948 . S
H1517 C1515 0.952 . S
H1518 C1516 0.948 . S
H1519 C1508 0.952 . S
H1520 C1510 0.948 . S
C1521 C1487 1.395 . S
C1521 C1491 1.391 . S
C1522 C1484 1.389 . S
C1522 C1504 1.392 . S
C1523 C1494 1.392 . S
C1523 C1496 1.389 . S
C1524 C1499 1.395 . S
C1524 C1501 1.391 . S
H1525 C1485 0.951 . S
H1526 C1486 0.950 . S
H1527 C1492 0.949 . S
H1528 C1493 0.950 . S
H1529 C1497 0.951 . S
H1530 C1498 0.950 . S
H1531 C1502 0.949 . S
H1532 C1503 0.950 . S
H1533 C1507 0.950 . S
H1534 C1509 0.950 . S
H1535 C1512 0.950 . S
H1536 C1514 0.950 . S
C1537 C1538 1.443 . S
C1537 N1541 1.376 . S
C1537 C1575 1.389 . S
C1538 C1537 1.443 . S
C1538 C1539 1.340 . S
C1538 H1578 0.951 . S
C1539 C1538 1.340 . S
C1539 C1540 1.439 . S
C1539 H1579 0.950 . S
C1540 C1539 1.439 . S
C1540 N1541 1.374 . S
C1540 C1574 1.395 . S
N1541 C1537 1.376 . S
N1541 C1540 1.374 . S
N1541 Co1542 2.008 . S
Co1542 N1541 2.008 . S
Co1542 N1543 1.995 . S
Co1542 N1548 2.008 . S
Co1542 N1553 1.995 . S
Co1542 N1558 2.282 . S
Co1542 N1564 2.282 . S
N1543 Co1542 1.995 . S
N1543 C1544 1.376 . S
N1543 C1547 1.383 . S
C1544 N1543 1.376 . S
C1544 C1545 1.446 . S
C1544 C1574 1.391 . S
C1545 C1544 1.446 . S
C1545 C1546 1.339 . S
C1545 H1580 0.949 . S
C1546 C1545 1.339 . S
C1546 C1547 1.439 . S
C1546 H1581 0.950 . S
C1547 N1543 1.383 . S
C1547 C1546 1.439 . S
C1547 C1576 1.392 . S
N1548 Co1542 2.008 . S
N1548 C1549 1.376 . S
N1548 C1552 1.374 . S
C1549 N1548 1.376 . S
C1549 C1550 1.443 . S
C1549 C1576 1.389 . S
C1550 C1549 1.443 . S
C1550 C1551 1.340 . S
C1550 H1582 0.951 . S
C1551 C1550 1.340 . S
C1551 C1552 1.439 . S
C1551 H1583 0.950 . S
C1552 N1548 1.374 . S
C1552 C1551 1.439 . S
C1552 C1577 1.395 . S
N1553 Co1542 1.995 . S
N1553 C1554 1.376 . S
N1553 C1557 1.383 . S
C1554 N1553 1.376 . S
C1554 C1555 1.446 . S
C1554 C1577 1.391 . S
C1555 C1554 1.446 . S
C1555 C1556 1.339 . S
C1555 H1584 0.949 . S
C1556 C1555 1.339 . S
C1556 C1557 1.439 . S
C1556 H1585 0.950 . S
C1557 N1553 1.383 . S
C1557 C1556 1.439 . S
C1557 C1575 1.392 . S
N1558 Co1542 2.282 . S
N1558 C1561 1.332 . S
N1558 C1563 1.332 . S
C1559 C1560 1.386 . S
C1559 C1562 1.388 . S
C1560 C1559 1.386 . S
C1560 C1561 1.382 . S
C1560 H1586 0.950 . S
C1561 N1558 1.332 . S
C1561 C1560 1.382 . S
C1561 H1572 0.952 . S
C1562 C1559 1.388 . S
C1562 C1563 1.382 . S
C1562 H1587 0.950 . S
C1563 N1558 1.332 . S
C1563 C1562 1.382 . S
C1563 H1573 0.948 . S
N1564 Co1542 2.282 . S
N1564 C1568 1.332 . S
N1564 C1569 1.332 . S
C1565 C1566 1.388 . S
C1565 C1569 1.382 . S
C1565 H1588 0.950 . S
C1566 C1565 1.388 . S
C1566 C1567 1.386 . S
C1567 C1566 1.386 . S
C1567 C1568 1.382 . S
C1567 H1589 0.950 . S
C1568 N1564 1.332 . S
C1568 C1567 1.382 . S
C1568 H1570 0.952 . S
C1569 N1564 1.332 . S
C1569 C1565 1.382 . S
C1569 H1571 0.948 . S
H1570 C1568 0.952 . S
H1571 C1569 0.948 . S
H1572 C1561 0.952 . S
H1573 C1563 0.948 . S
C1574 C1540 1.395 . S
C1574 C1544 1.391 . S
C1575 C1537 1.389 . S
C1575 C1557 1.392 . S
C1576 C1547 1.392 . S
C1576 C1549 1.389 . S
C1577 C1552 1.395 . S
C1577 C1554 1.391 . S
H1578 C1538 0.951 . S
H1579 C1539 0.950 . S
H1580 C1545 0.949 . S
H1581 C1546 0.950 . S
H1582 C1550 0.951 . S
H1583 C1551 0.950 . S
H1584 C1555 0.949 . S
H1585 C1556 0.950 . S
H1586 C1560 0.950 . S
H1587 C1562 0.950 . S
H1588 C1565 0.950 . S
H1589 C1567 0.950 . S
C1590 C1591 1.443 . S
C1590 N1594 1.376 . S
C1590 C1628 1.389 . S
C1591 C1590 1.443 . S
C1591 C1592 1.340 . S
C1591 H1631 0.951 . S
C1592 C1591 1.340 . S
C1592 C1593 1.439 . S
C1592 H1632 0.950 . S
C1593 C1592 1.439 . S
C1593 N1594 1.374 . S
C1593 C1627 1.395 . S
N1594 C1590 1.376 . S
N1594 C1593 1.374 . S
N1594 Co1595 2.008 . S
Co1595 N1594 2.008 . S
Co1595 N1596 1.995 . S
Co1595 N1601 2.008 . S
Co1595 N1606 1.995 . S
Co1595 N1611 2.282 . S
Co1595 N1617 2.282 . S
N1596 Co1595 1.995 . S
N1596 C1597 1.376 . S
N1596 C1600 1.383 . S
C1597 N1596 1.376 . S
C1597 C1598 1.446 . S
C1597 C1627 1.391 . S
C1598 C1597 1.446 . S
C1598 C1599 1.339 . S
C1598 H1633 0.949 . S
C1599 C1598 1.339 . S
C1599 C1600 1.439 . S
C1599 H1634 0.950 . S
C1600 N1596 1.383 . S
C1600 C1599 1.439 . S
C1600 C1629 1.392 . S
N1601 Co1595 2.008 . S
N1601 C1602 1.376 . S
N1601 C1605 1.374 . S
C1602 N1601 1.376 . S
C1602 C1603 1.443 . S
C1602 C1629 1.389 . S
C1603 C1602 1.443 . S
C1603 C1604 1.340 . S
C1603 H1635 0.951 . S
C1604 C1603 1.340 . S
C1604 C1605 1.439 . S
C1604 H1636 0.950 . S
C1605 N1601 1.374 . S
C1605 C1604 1.439 . S
C1605 C1630 1.395 . S
N1606 Co1595 1.995 . S
N1606 C1607 1.376 . S
N1606 C1610 1.383 . S
C1607 N1606 1.376 . S
C1607 C1608 1.446 . S
C1607 C1630 1.391 . S
C1608 C1607 1.446 . S
C1608 C1609 1.339 . S
C1608 H1637 0.949 . S
C1609 C1608 1.339 . S
C1609 C1610 1.439 . S
C1609 H1638 0.950 . S
C1610 N1606 1.383 . S
C1610 C1609 1.439 . S
C1610 C1628 1.392 . S
N1611 Co1595 2.282 . S
N1611 C1614 1.332 . S
N1611 C1616 1.332 . S
C1612 C1613 1.386 . S
C1612 C1615 1.388 . S
C1613 C1612 1.386 . S
C1613 C1614 1.382 . S
C1613 H1639 0.950 . S
C1614 N1611 1.332 . S
C1614 C1613 1.382 . S
C1614 H1625 0.952 . S
C1615 C1612 1.388 . S
C1615 C1616 1.382 . S
C1615 H1640 0.950 . S
C1616 N1611 1.332 . S
C1616 C1615 1.382 . S
C1616 H1626 0.948 . S
N1617 Co1595 2.282 . S
N1617 C1621 1.332 . S
N1617 C1622 1.332 . S
C1618 C1619 1.388 . S
C1618 C1622 1.382 . S
C1618 H1641 0.950 . S
C1619 C1618 1.388 . S
C1619 C1620 1.386 . S
C1620 C1619 1.386 . S
C1620 C1621 1.382 . S
C1620 H1642 0.950 . S
C1621 N1617 1.332 . S
C1621 C1620 1.382 . S
C1621 H1623 0.952 . S
C1622 N1617 1.332 . S
C1622 C1618 1.382 . S
C1622 H1624 0.948 . S
H1623 C1621 0.952 . S
H1624 C1622 0.948 . S
H1625 C1614 0.952 . S
H1626 C1616 0.948 . S
C1627 C1593 1.395 . S
C1627 C1597 1.391 . S
C1628 C1590 1.389 . S
C1628 C1610 1.392 . S
C1629 C1600 1.392 . S
C1629 C1602 1.389 . S
C1630 C1605 1.395 . S
C1630 C1607 1.391 . S
H1631 C1591 0.951 . S
H1632 C1592 0.950 . S
H1633 C1598 0.949 . S
H1634 C1599 0.950 . S
H1635 C1603 0.951 . S
H1636 C1604 0.950 . S
H1637 C1608 0.949 . S
H1638 C1609 0.950 . S
H1639 C1613 0.950 . S
H1640 C1615 0.950 . S
H1641 C1618 0.950 . S
H1642 C1620 0.950 . S
C1643 C1644 1.443 . S
C1643 N1647 1.376 . S
C1643 C1681 1.389 . S
C1644 C1643 1.443 . S
C1644 C1645 1.340 . S
C1644 H1684 0.951 . S
C1645 C1644 1.340 . S
C1645 C1646 1.439 . S
C1645 H1685 0.950 . S
C1646 C1645 1.439 . S
C1646 N1647 1.374 . S
C1646 C1680 1.395 . S
N1647 C1643 1.376 . S
N1647 C1646 1.374 . S
N1647 Co1648 2.008 . S
Co1648 N1647 2.008 . S
Co1648 N1649 1.995 . S
Co1648 N1654 2.008 . S
Co1648 N1659 1.995 . S
Co1648 N1664 2.282 . S
Co1648 N1670 2.282 . S
N1649 Co1648 1.995 . S
N1649 C1650 1.376 . S
N1649 C1653 1.383 . S
C1650 N1649 1.376 . S
C1650 C1651 1.446 . S
C1650 C1680 1.391 . S
C1651 C1650 1.446 . S
C1651 C1652 1.339 . S
C1651 H1686 0.949 . S
C1652 C1651 1.339 . S
C1652 C1653 1.439 . S
C1652 H1687 0.950 . S
C1653 N1649 1.383 . S
C1653 C1652 1.439 . S
C1653 C1682 1.392 . S
N1654 Co1648 2.008 . S
N1654 C1655 1.376 . S
N1654 C1658 1.374 . S
C1655 N1654 1.376 . S
C1655 C1656 1.443 . S
C1655 C1682 1.389 . S
C1656 C1655 1.443 . S
C1656 C1657 1.340 . S
C1656 H1688 0.951 . S
C1657 C1656 1.340 . S
C1657 C1658 1.439 . S
C1657 H1689 0.950 . S
C1658 N1654 1.374 . S
C1658 C1657 1.439 . S
C1658 C1683 1.395 . S
N1659 Co1648 1.995 . S
N1659 C1660 1.376 . S
N1659 C1663 1.383 . S
C1660 N1659 1.376 . S
C1660 C1661 1.446 . S
C1660 C1683 1.391 . S
C1661 C1660 1.446 . S
C1661 C1662 1.339 . S
C1661 H1690 0.949 . S
C1662 C1661 1.339 . S
C1662 C1663 1.439 . S
C1662 H1691 0.950 . S
C1663 N1659 1.383 . S
C1663 C1662 1.439 . S
C1663 C1681 1.392 . S
N1664 Co1648 2.282 . S
N1664 C1667 1.332 . S
N1664 C1669 1.332 . S
C1665 C1666 1.386 . S
C1665 C1668 1.388 . S
C1666 C1665 1.386 . S
C1666 C1667 1.382 . S
C1666 H1692 0.950 . S
C1667 N1664 1.332 . S
C1667 C1666 1.382 . S
C1667 H1678 0.952 . S
C1668 C1665 1.388 . S
C1668 C1669 1.382 . S
C1668 H1693 0.950 . S
C1669 N1664 1.332 . S
C1669 C1668 1.382 . S
C1669 H1679 0.948 . S
N1670 Co1648 2.282 . S
N1670 C1674 1.332 . S
N1670 C1675 1.332 . S
C1671 C1672 1.388 . S
C1671 C1675 1.382 . S
C1671 H1694 0.950 . S
C1672 C1671 1.388 . S
C1672 C1673 1.386 . S
C1673 C1672 1.386 . S
C1673 C1674 1.382 . S
C1673 H1695 0.950 . S
C1674 N1670 1.332 . S
C1674 C1673 1.382 . S
C1674 H1676 0.952 . S
C1675 N1670 1.332 . S
C1675 C1671 1.382 . S
C1675 H1677 0.948 . S
H1676 C1674 0.952 . S
H1677 C1675 0.948 . S
H1678 C1667 0.952 . S
H1679 C1669 0.948 . S
C1680 C1646 1.395 . S
C1680 C1650 1.391 . S
C1681 C1643 1.389 . S
C1681 C1663 1.392 . S
C1682 C1653 1.392 . S
C1682 C1655 1.389 . S
C1683 C1658 1.395 . S
C1683 C1660 1.391 . S
H1684 C1644 0.951 . S
H1685 C1645 0.950 . S
H1686 C1651 0.949 . S
H1687 C1652 0.950 . S
H1688 C1656 0.951 . S
H1689 C1657 0.950 . S
H1690 C1661 0.949 . S
H1691 C1662 0.950 . S
H1692 C1666 0.950 . S
H1693 C1668 0.950 . S
H1694 C1671 0.950 . S
H1695 C1673 0.950 . S
C1696 C1697 1.443 . S
C1696 N1700 1.376 . S
C1696 C1734 1.389 . S
C1697 C1696 1.443 . S
C1697 C1698 1.340 . S
C1697 H1737 0.951 . S
C1698 C1697 1.340 . S
C1698 C1699 1.439 . S
C1698 H1738 0.950 . S
C1699 C1698 1.439 . S
C1699 N1700 1.374 . S
C1699 C1733 1.395 . S
N1700 C1696 1.376 . S
N1700 C1699 1.374 . S
N1700 Co1701 2.008 . S
Co1701 N1700 2.008 . S
Co1701 N1702 1.995 . S
Co1701 N1707 2.008 . S
Co1701 N1712 1.995 . S
Co1701 N1717 2.282 . S
Co1701 N1723 2.282 . S
N1702 Co1701 1.995 . S
N1702 C1703 1.376 . S
N1702 C1706 1.383 . S
C1703 N1702 1.376 . S
C1703 C1704 1.446 . S
C1703 C1733 1.391 . S
C1704 C1703 1.446 . S
C1704 C1705 1.339 . S
C1704 H1739 0.949 . S
C1705 C1704 1.339 . S
C1705 C1706 1.439 . S
C1705 H1740 0.950 . S
C1706 N1702 1.383 . S
C1706 C1705 1.439 . S
C1706 C1735 1.392 . S
N1707 Co1701 2.008 . S
N1707 C1708 1.376 . S
N1707 C1711 1.374 . S
C1708 N1707 1.376 . S
C1708 C1709 1.443 . S
C1708 C1735 1.389 . S
C1709 C1708 1.443 . S
C1709 C1710 1.340 . S
C1709 H1741 0.951 . S
C1710 C1709 1.340 . S
C1710 C1711 1.439 . S
C1710 H1742 0.950 . S
C1711 N1707 1.374 . S
C1711 C1710 1.439 . S
C1711 C1736 1.395 . S
N1712 Co1701 1.995 . S
N1712 C1713 1.376 . S
N1712 C1716 1.383 . S
C1713 N1712 1.376 . S
C1713 C1714 1.446 . S
C1713 C1736 1.391 . S
C1714 C1713 1.446 . S
C1714 C1715 1.339 . S
C1714 H1743 0.949 . S
C1715 C1714 1.339 . S
C1715 C1716 1.439 . S
C1715 H1744 0.950 . S
C1716 N1712 1.383 . S
C1716 C1715 1.439 . S
C1716 C1734 1.392 . S
N1717 Co1701 2.282 . S
N1717 C1720 1.332 . S
N1717 C1722 1.332 . S
C1718 C1719 1.386 . S
C1718 C1721 1.388 . S
C1719 C1718 1.386 . S
C1719 C1720 1.382 . S
C1719 H1745 0.950 . S
C1720 N1717 1.332 . S
C1720 C1719 1.382 . S
C1720 H1731 0.952 . S
C1721 C1718 1.388 . S
C1721 C1722 1.382 . S
C1721 H1746 0.950 . S
C1722 N1717 1.332 . S
C1722 C1721 1.382 . S
C1722 H1732 0.948 . S
N1723 Co1701 2.282 . S
N1723 C1727 1.332 . S
N1723 C1728 1.332 . S
C1724 C1725 1.388 . S
C1724 C1728 1.382 . S
C1724 H1747 0.950 . S
C1725 C1724 1.388 . S
C1725 C1726 1.386 . S
C1726 C1725 1.386 . S
C1726 C1727 1.382 . S
C1726 H1748 0.950 . S
C1727 N1723 1.332 . S
C1727 C1726 1.382 . S
C1727 H1729 0.952 . S
C1728 N1723 1.332 . S
C1728 C1724 1.382 . S
C1728 H1730 0.948 . S
H1729 C1727 0.952 . S
H1730 C1728 0.948 . S
H1731 C1720 0.952 . S
H1732 C1722 0.948 . S
C1733 C1699 1.395 . S
C1733 C1703 1.391 . S
C1734 C1696 1.389 . S
C1734 C1716 1.392 . S
C1735 C1706 1.392 . S
C1735 C1708 1.389 . S
C1736 C1711 1.395 . S
C1736 C1713 1.391 . S
H1737 C1697 0.951 . S
H1738 C1698 0.950 . S
H1739 C1704 0.949 . S
H1740 C1705 0.950 . S
H1741 C1709 0.951 . S
H1742 C1710 0.950 . S
H1743 C1714 0.949 . S
H1744 C1715 0.950 . S
H1745 C1719 0.950 . S
H1746 C1721 0.950 . S
H1747 C1724 0.950 . S
H1748 C1726 0.950 . S
C1749 C1750 1.443 . S
C1749 N1753 1.376 . S
C1749 C1787 1.389 . S
C1750 C1749 1.443 . S
C1750 C1751 1.340 . S
C1750 H1790 0.951 . S
C1751 C1750 1.340 . S
C1751 C1752 1.439 . S
C1751 H1791 0.950 . S
C1752 C1751 1.439 . S
C1752 N1753 1.374 . S
C1752 C1786 1.395 . S
N1753 C1749 1.376 . S
N1753 C1752 1.374 . S
N1753 Co1754 2.008 . S
Co1754 N1753 2.008 . S
Co1754 N1755 1.995 . S
Co1754 N1760 2.008 . S
Co1754 N1765 1.995 . S
Co1754 N1770 2.282 . S
Co1754 N1776 2.282 . S
N1755 Co1754 1.995 . S
N1755 C1756 1.376 . S
N1755 C1759 1.383 . S
C1756 N1755 1.376 . S
C1756 C1757 1.446 . S
C1756 C1786 1.391 . S
C1757 C1756 1.446 . S
C1757 C1758 1.339 . S
C1757 H1792 0.949 . S
C1758 C1757 1.339 . S
C1758 C1759 1.439 . S
C1758 H1793 0.950 . S
C1759 N1755 1.383 . S
C1759 C1758 1.439 . S
C1759 C1788 1.392 . S
N1760 Co1754 2.008 . S
N1760 C1761 1.376 . S
N1760 C1764 1.374 . S
C1761 N1760 1.376 . S
C1761 C1762 1.443 . S
C1761 C1788 1.389 . S
C1762 C1761 1.443 . S
C1762 C1763 1.340 . S
C1762 H1794 0.951 . S
C1763 C1762 1.340 . S
C1763 C1764 1.439 . S
C1763 H1795 0.950 . S
C1764 N1760 1.374 . S
C1764 C1763 1.439 . S
C1764 C1789 1.395 . S
N1765 Co1754 1.995 . S
N1765 C1766 1.376 . S
N1765 C1769 1.383 . S
C1766 N1765 1.376 . S
C1766 C1767 1.446 1_565 S
C1766 C1789 1.391 . S
C1767 C1766 1.446 1_545 S
C1767 C1768 1.339 . S
C1767 H1796 0.949 . S
C1768 C1767 1.339 . S
C1768 C1769 1.439 1_545 S
C1768 H1797 0.950 . S
C1769 N1765 1.383 . S
C1769 C1768 1.439 1_565 S
C1769 C1787 1.392 . S
N1770 Co1754 2.282 . S
N1770 C1773 1.332 . S
N1770 C1775 1.332 . S
C1771 C1772 1.386 . S
C1771 C1774 1.388 . S
C1772 C1771 1.386 . S
C1772 C1773 1.382 . S
C1772 H1798 0.950 . S
C1773 N1770 1.332 . S
C1773 C1772 1.382 . S
C1773 H1784 0.952 . S
C1774 C1771 1.388 . S
C1774 C1775 1.382 . S
C1774 H1799 0.950 . S
C1775 N1770 1.332 . S
C1775 C1774 1.382 . S
C1775 H1785 0.948 . S
N1776 Co1754 2.282 . S
N1776 C1780 1.332 . S
N1776 C1781 1.332 . S
C1777 C1778 1.388 . S
C1777 C1781 1.382 . S
C1777 H1800 0.950 1_565 S
C1778 C1777 1.388 . S
C1778 C1779 1.386 . S
C1779 C1778 1.386 . S
C1779 C1780 1.382 . S
C1779 H1801 0.950 . S
C1780 N1776 1.332 . S
C1780 C1779 1.382 . S
C1780 H1782 0.952 . S
C1781 N1776 1.332 . S
C1781 C1777 1.382 . S
C1781 H1783 0.948 . S
H1782 C1780 0.952 . S
H1783 C1781 0.948 . S
H1784 C1773 0.952 . S
H1785 C1775 0.948 . S
C1786 C1752 1.395 . S
C1786 C1756 1.391 . S
C1787 C1749 1.389 . S
C1787 C1769 1.392 . S
C1788 C1759 1.392 . S
C1788 C1761 1.389 . S
C1789 C1764 1.395 . S
C1789 C1766 1.391 . S
H1790 C1750 0.951 . S
H1791 C1751 0.950 . S
H1792 C1757 0.949 . S
H1793 C1758 0.950 . S
H1794 C1762 0.951 . S
H1795 C1763 0.950 . S
H1796 C1767 0.949 . S
H1797 C1768 0.950 . S
H1798 C1772 0.950 . S
H1799 C1774 0.950 . S
H1800 C1777 0.950 1_545 S
H1801 C1779 0.950 . S
C1802 C1803 1.443 . S
C1802 N1806 1.376 . S
C1802 C1840 1.389 . S
C1803 C1802 1.443 . S
C1803 C1804 1.340 . S
C1803 H1843 0.951 . S
C1804 C1803 1.340 . S
C1804 C1805 1.439 . S
C1804 H1844 0.950 . S
C1805 C1804 1.439 . S
C1805 N1806 1.374 . S
C1805 C1839 1.395 . S
N1806 C1802 1.376 . S
N1806 C1805 1.374 . S
N1806 Co1807 2.008 . S
Co1807 N1806 2.008 . S
Co1807 N1808 1.995 . S
Co1807 N1813 2.008 . S
Co1807 N1818 1.995 . S
Co1807 N1823 2.282 . S
Co1807 N1829 2.282 . S
N1808 Co1807 1.995 . S
N1808 C1809 1.376 . S
N1808 C1812 1.383 . S
C1809 N1808 1.376 . S
C1809 C1810 1.446 . S
C1809 C1839 1.391 . S
C1810 C1809 1.446 . S
C1810 C1811 1.339 . S
C1810 H1845 0.949 . S
C1811 C1810 1.339 . S
C1811 C1812 1.439 . S
C1811 H1846 0.950 . S
C1812 N1808 1.383 . S
C1812 C1811 1.439 . S
C1812 C1841 1.392 . S
N1813 Co1807 2.008 . S
N1813 C1814 1.376 . S
N1813 C1817 1.374 . S
C1814 N1813 1.376 . S
C1814 C1815 1.443 . S
C1814 C1841 1.389 . S
C1815 C1814 1.443 . S
C1815 C1816 1.340 . S
C1815 H1847 0.951 . S
C1816 C1815 1.340 . S
C1816 C1817 1.439 . S
C1816 H1848 0.950 . S
C1817 N1813 1.374 . S
C1817 C1816 1.439 . S
C1817 C1842 1.395 . S
N1818 Co1807 1.995 . S
N1818 C1819 1.376 . S
N1818 C1822 1.383 . S
C1819 N1818 1.376 . S
C1819 C1820 1.446 . S
C1819 C1842 1.391 . S
C1820 C1819 1.446 . S
C1820 C1821 1.339 . S
C1820 H1849 0.949 . S
C1821 C1820 1.339 . S
C1821 C1822 1.439 . S
C1821 H1850 0.950 . S
C1822 N1818 1.383 . S
C1822 C1821 1.439 . S
C1822 C1840 1.392 . S
N1823 Co1807 2.282 . S
N1823 C1826 1.332 . S
N1823 C1828 1.332 . S
C1824 C1825 1.386 . S
C1824 C1827 1.388 . S
C1825 C1824 1.386 . S
C1825 C1826 1.382 . S
C1825 H1851 0.950 . S
C1826 N1823 1.332 . S
C1826 C1825 1.382 . S
C1826 H1837 0.952 . S
C1827 C1824 1.388 . S
C1827 C1828 1.382 . S
C1827 H1852 0.950 . S
C1828 N1823 1.332 . S
C1828 C1827 1.382 . S
C1828 H1838 0.948 . S
N1829 Co1807 2.282 . S
N1829 C1833 1.332 . S
N1829 C1834 1.332 . S
C1830 C1831 1.388 . S
C1830 C1834 1.382 . S
C1830 H1853 0.950 . S
C1831 C1830 1.388 . S
C1831 C1832 1.386 . S
C1832 C1831 1.386 . S
C1832 C1833 1.382 . S
C1832 H1854 0.950 . S
C1833 N1829 1.332 . S
C1833 C1832 1.382 . S
C1833 H1835 0.952 . S
C1834 N1829 1.332 . S
C1834 C1830 1.382 . S
C1834 H1836 0.948 . S
H1835 C1833 0.952 . S
H1836 C1834 0.948 . S
H1837 C1826 0.952 . S
H1838 C1828 0.948 . S
C1839 C1805 1.395 . S
C1839 C1809 1.391 . S
C1840 C1802 1.389 . S
C1840 C1822 1.392 . S
C1841 C1812 1.392 . S
C1841 C1814 1.389 . S
C1842 C1817 1.395 . S
C1842 C1819 1.391 . S
H1843 C1803 0.951 . S
H1844 C1804 0.950 . S
H1845 C1810 0.949 . S
H1846 C1811 0.950 . S
H1847 C1815 0.951 . S
H1848 C1816 0.950 . S
H1849 C1820 0.949 . S
H1850 C1821 0.950 . S
H1851 C1825 0.950 . S
H1852 C1827 0.950 . S
H1853 C1830 0.950 . S
H1854 C1832 0.950 . S
C1855 C1856 1.443 . S
C1855 N1859 1.376 . S
C1855 C1893 1.389 . S
C1856 C1855 1.443 . S
C1856 C1857 1.340 . S
C1856 H1896 0.951 . S
C1857 C1856 1.340 . S
C1857 C1858 1.439 . S
C1857 H1897 0.950 . S
C1858 C1857 1.439 . S
C1858 N1859 1.374 . S
C1858 C1892 1.395 . S
N1859 C1855 1.376 . S
N1859 C1858 1.374 . S
N1859 Co1860 2.008 . S
Co1860 N1859 2.008 . S
Co1860 N1861 1.995 . S
Co1860 N1866 2.008 . S
Co1860 N1871 1.995 . S
Co1860 N1876 2.282 . S
Co1860 N1882 2.282 . S
N1861 Co1860 1.995 . S
N1861 C1862 1.376 . S
N1861 C1865 1.383 . S
C1862 N1861 1.376 . S
C1862 C1863 1.446 . S
C1862 C1892 1.391 . S
C1863 C1862 1.446 . S
C1863 C1864 1.339 . S
C1863 H1898 0.949 . S
C1864 C1863 1.339 . S
C1864 C1865 1.439 . S
C1864 H1899 0.950 . S
C1865 N1861 1.383 . S
C1865 C1864 1.439 . S
C1865 C1894 1.392 . S
N1866 Co1860 2.008 . S
N1866 C1867 1.376 . S
N1866 C1870 1.374 . S
C1867 N1866 1.376 . S
C1867 C1868 1.443 . S
C1867 C1894 1.389 . S
C1868 C1867 1.443 . S
C1868 C1869 1.340 . S
C1868 H1900 0.951 . S
C1869 C1868 1.340 . S
C1869 C1870 1.439 . S
C1869 H1901 0.950 . S
C1870 N1866 1.374 . S
C1870 C1869 1.439 . S
C1870 C1895 1.395 . S
N1871 Co1860 1.995 . S
N1871 C1872 1.376 . S
N1871 C1875 1.383 . S
C1872 N1871 1.376 . S
C1872 C1873 1.446 . S
C1872 C1895 1.391 . S
C1873 C1872 1.446 . S
C1873 C1874 1.339 . S
C1873 H1902 0.949 . S
C1874 C1873 1.339 . S
C1874 C1875 1.439 . S
C1874 H1903 0.950 . S
C1875 N1871 1.383 . S
C1875 C1874 1.439 . S
C1875 C1893 1.392 . S
N1876 Co1860 2.282 . S
N1876 C1879 1.332 . S
N1876 C1881 1.332 . S
C1877 C1878 1.386 . S
C1877 C1880 1.388 . S
C1878 C1877 1.386 . S
C1878 C1879 1.382 . S
C1878 H1904 0.950 . S
C1879 N1876 1.332 . S
C1879 C1878 1.382 . S
C1879 H1890 0.952 . S
C1880 C1877 1.388 . S
C1880 C1881 1.382 . S
C1880 H1905 0.950 . S
C1881 N1876 1.332 . S
C1881 C1880 1.382 . S
C1881 H1891 0.948 . S
N1882 Co1860 2.282 . S
N1882 C1886 1.332 . S
N1882 C1887 1.332 . S
C1883 C1884 1.388 . S
C1883 C1887 1.382 . S
C1883 H1906 0.950 . S
C1884 C1883 1.388 . S
C1884 C1885 1.386 . S
C1885 C1884 1.386 . S
C1885 C1886 1.382 . S
C1885 H1907 0.950 . S
C1886 N1882 1.332 . S
C1886 C1885 1.382 . S
C1886 H1888 0.952 . S
C1887 N1882 1.332 . S
C1887 C1883 1.382 . S
C1887 H1889 0.948 . S
H1888 C1886 0.952 . S
H1889 C1887 0.948 . S
H1890 C1879 0.952 . S
H1891 C1881 0.948 . S
C1892 C1858 1.395 . S
C1892 C1862 1.391 . S
C1893 C1855 1.389 . S
C1893 C1875 1.392 . S
C1894 C1865 1.392 . S
C1894 C1867 1.389 . S
C1895 C1870 1.395 . S
C1895 C1872 1.391 . S
H1896 C1856 0.951 . S
H1897 C1857 0.950 . S
H1898 C1863 0.949 . S
H1899 C1864 0.950 . S
H1900 C1868 0.951 . S
H1901 C1869 0.950 . S
H1902 C1873 0.949 . S
H1903 C1874 0.950 . S
H1904 C1878 0.950 . S
H1905 C1880 0.950 . S
H1906 C1883 0.950 . S
H1907 C1885 0.950 . S
C1908 C1909 1.443 . S
C1908 N1912 1.376 . S
C1908 C1946 1.389 . S
C1909 C1908 1.443 . S
C1909 C1910 1.340 . S
C1909 H1949 0.951 . S
C1910 C1909 1.340 . S
C1910 C1911 1.439 . S
C1910 H1950 0.950 . S
C1911 C1910 1.439 . S
C1911 N1912 1.374 . S
C1911 C1945 1.395 . S
N1912 C1908 1.376 . S
N1912 C1911 1.374 . S
N1912 Co1913 2.008 . S
Co1913 N1912 2.008 . S
Co1913 N1914 1.995 . S
Co1913 N1919 2.008 . S
Co1913 N1924 1.995 . S
Co1913 N1929 2.282 . S
Co1913 N1935 2.282 . S
N1914 Co1913 1.995 . S
N1914 C1915 1.376 . S
N1914 C1918 1.383 . S
C1915 N1914 1.376 . S
C1915 C1916 1.446 . S
C1915 C1945 1.391 . S
C1916 C1915 1.446 . S
C1916 C1917 1.339 . S
C1916 H1951 0.949 . S
C1917 C1916 1.339 . S
C1917 C1918 1.439 . S
C1917 H1952 0.950 . S
C1918 N1914 1.383 . S
C1918 C1917 1.439 . S
C1918 C1947 1.392 . S
N1919 Co1913 2.008 . S
N1919 C1920 1.376 . S
N1919 C1923 1.374 . S
C1920 N1919 1.376 . S
C1920 C1921 1.443 . S
C1920 C1947 1.389 . S
C1921 C1920 1.443 . S
C1921 C1922 1.340 . S
C1921 H1953 0.951 . S
C1922 C1921 1.340 . S
C1922 C1923 1.439 . S
C1922 H1954 0.950 . S
C1923 N1919 1.374 . S
C1923 C1922 1.439 . S
C1923 C1948 1.395 . S
N1924 Co1913 1.995 . S
N1924 C1925 1.376 . S
N1924 C1928 1.383 . S
C1925 N1924 1.376 . S
C1925 C1926 1.446 . S
C1925 C1948 1.391 . S
C1926 C1925 1.446 . S
C1926 C1927 1.339 . S
C1926 H1955 0.949 . S
C1927 C1926 1.339 . S
C1927 C1928 1.439 . S
C1927 H1956 0.950 . S
C1928 N1924 1.383 . S
C1928 C1927 1.439 . S
C1928 C1946 1.392 . S
N1929 Co1913 2.282 . S
N1929 C1932 1.332 . S
N1929 C1934 1.332 . S
C1930 C1931 1.386 . S
C1930 C1933 1.388 . S
C1931 C1930 1.386 . S
C1931 C1932 1.382 . S
C1931 H1957 0.950 . S
C1932 N1929 1.332 . S
C1932 C1931 1.382 . S
C1932 H1943 0.952 . S
C1933 C1930 1.388 . S
C1933 C1934 1.382 . S
C1933 H1958 0.950 . S
C1934 N1929 1.332 . S
C1934 C1933 1.382 . S
C1934 H1944 0.948 . S
N1935 Co1913 2.282 . S
N1935 C1939 1.332 . S
N1935 C1940 1.332 . S
C1936 C1937 1.388 . S
C1936 C1940 1.382 . S
C1936 H1959 0.950 . S
C1937 C1936 1.388 . S
C1937 C1938 1.386 . S
C1938 C1937 1.386 . S
C1938 C1939 1.382 . S
C1938 H1960 0.950 . S
C1939 N1935 1.332 . S
C1939 C1938 1.382 . S
C1939 H1941 0.952 . S
C1940 N1935 1.332 . S
C1940 C1936 1.382 . S
C1940 H1942 0.948 . S
H1941 C1939 0.952 . S
H1942 C1940 0.948 . S
H1943 C1932 0.952 . S
H1944 C1934 0.948 . S
C1945 C1911 1.395 . S
C1945 C1915 1.391 . S
C1946 C1908 1.389 . S
C1946 C1928 1.392 . S
C1947 C1918 1.392 . S
C1947 C1920 1.389 . S
C1948 C1923 1.395 . S
C1948 C1925 1.391 . S
H1949 C1909 0.951 . S
H1950 C1910 0.950 . S
H1951 C1916 0.949 . S
H1952 C1917 0.950 . S
H1953 C1921 0.951 . S
H1954 C1922 0.950 . S
H1955 C1926 0.949 . S
H1956 C1927 0.950 . S
H1957 C1931 0.950 . S
H1958 C1933 0.950 . S
H1959 C1936 0.950 . S
H1960 C1938 0.950 . S
C1961 C1962 1.443 . S
C1961 N1965 1.376 . S
C1961 C1999 1.389 . S
C1962 C1961 1.443 . S
C1962 C1963 1.340 . S
C1962 H2002 0.951 . S
C1963 C1962 1.340 . S
C1963 C1964 1.439 . S
C1963 H2003 0.950 . S
C1964 C1963 1.439 . S
C1964 N1965 1.374 . S
C1964 C1998 1.395 . S
N1965 C1961 1.376 . S
N1965 C1964 1.374 . S
N1965 Co1966 2.008 . S
Co1966 N1965 2.008 . S
Co1966 N1967 1.995 . S
Co1966 N1972 2.008 . S
Co1966 N1977 1.995 . S
Co1966 N1982 2.282 . S
Co1966 N1988 2.282 . S
N1967 Co1966 1.995 . S
N1967 C1968 1.376 . S
N1967 C1971 1.383 . S
C1968 N1967 1.376 . S
C1968 C1969 1.446 . S
C1968 C1998 1.391 . S
C1969 C1968 1.446 . S
C1969 C1970 1.339 . S
C1969 H2004 0.949 . S
C1970 C1969 1.339 . S
C1970 C1971 1.439 . S
C1970 H2005 0.950 . S
C1971 N1967 1.383 . S
C1971 C1970 1.439 . S
C1971 C2000 1.392 . S
N1972 Co1966 2.008 . S
N1972 C1973 1.376 . S
N1972 C1976 1.374 . S
C1973 N1972 1.376 . S
C1973 C1974 1.443 . S
C1973 C2000 1.389 . S
C1974 C1973 1.443 . S
C1974 C1975 1.340 . S
C1974 H2006 0.951 . S
C1975 C1974 1.340 . S
C1975 C1976 1.439 . S
C1975 H2007 0.950 . S
C1976 N1972 1.374 . S
C1976 C1975 1.439 . S
C1976 C2001 1.395 . S
N1977 Co1966 1.995 . S
N1977 C1978 1.376 . S
N1977 C1981 1.383 . S
C1978 N1977 1.376 . S
C1978 C1979 1.446 1_565 S
C1978 C2001 1.391 . S
C1979 C1978 1.446 1_545 S
C1979 C1980 1.339 . S
C1979 H2008 0.949 . S
C1980 C1979 1.339 . S
C1980 C1981 1.439 1_545 S
C1980 H2009 0.950 . S
C1981 N1977 1.383 . S
C1981 C1980 1.439 1_565 S
C1981 C1999 1.392 . S
N1982 Co1966 2.282 . S
N1982 C1985 1.332 . S
N1982 C1987 1.332 . S
C1983 C1984 1.386 . S
C1983 C1986 1.388 . S
C1984 C1983 1.386 . S
C1984 C1985 1.382 . S
C1984 H2010 0.950 . S
C1985 N1982 1.332 . S
C1985 C1984 1.382 . S
C1985 H1996 0.952 . S
C1986 C1983 1.388 . S
C1986 C1987 1.382 . S
C1986 H2011 0.950 . S
C1987 N1982 1.332 . S
C1987 C1986 1.382 . S
C1987 H1997 0.948 . S
N1988 Co1966 2.282 . S
N1988 C1992 1.332 . S
N1988 C1993 1.332 . S
C1989 C1990 1.388 . S
C1989 C1993 1.382 . S
C1989 H2012 0.950 1_565 S
C1990 C1989 1.388 . S
C1990 C1991 1.386 . S
C1991 C1990 1.386 . S
C1991 C1992 1.382 . S
C1991 H2013 0.950 . S
C1992 N1988 1.332 . S
C1992 C1991 1.382 . S
C1992 H1994 0.952 . S
C1993 N1988 1.332 . S
C1993 C1989 1.382 . S
C1993 H1995 0.948 . S
H1994 C1992 0.952 . S
H1995 C1993 0.948 . S
H1996 C1985 0.952 . S
H1997 C1987 0.948 . S
C1998 C1964 1.395 . S
C1998 C1968 1.391 . S
C1999 C1961 1.389 . S
C1999 C1981 1.392 . S
C2000 C1971 1.392 . S
C2000 C1973 1.389 . S
C2001 C1976 1.395 . S
C2001 C1978 1.391 . S
H2002 C1962 0.951 . S
H2003 C1963 0.950 . S
H2004 C1969 0.949 . S
H2005 C1970 0.950 . S
H2006 C1974 0.951 . S
H2007 C1975 0.950 . S
H2008 C1979 0.949 . S
H2009 C1980 0.950 . S
H2010 C1984 0.950 . S
H2011 C1986 0.950 . S
H2012 C1989 0.950 1_545 S
H2013 C1991 0.950 . S
C2014 C2015 1.443 . S
C2014 N2018 1.376 . S
C2014 C2052 1.389 . S
C2015 C2014 1.443 . S
C2015 C2016 1.340 . S
C2015 H2055 0.951 . S
C2016 C2015 1.340 . S
C2016 C2017 1.439 . S
C2016 H2056 0.950 . S
C2017 C2016 1.439 . S
C2017 N2018 1.374 . S
C2017 C2051 1.395 . S
N2018 C2014 1.376 . S
N2018 C2017 1.374 . S
N2018 Co2019 2.008 . S
Co2019 N2018 2.008 . S
Co2019 N2020 1.995 . S
Co2019 N2025 2.008 . S
Co2019 N2030 1.995 . S
Co2019 N2035 2.282 . S
Co2019 N2041 2.282 . S
N2020 Co2019 1.995 . S
N2020 C2021 1.376 . S
N2020 C2024 1.383 . S
C2021 N2020 1.376 . S
C2021 C2022 1.446 . S
C2021 C2051 1.391 . S
C2022 C2021 1.446 . S
C2022 C2023 1.339 . S
C2022 H2057 0.949 . S
C2023 C2022 1.339 . S
C2023 C2024 1.439 . S
C2023 H2058 0.950 . S
C2024 N2020 1.383 . S
C2024 C2023 1.439 . S
C2024 C2053 1.392 . S
N2025 Co2019 2.008 . S
N2025 C2026 1.376 . S
N2025 C2029 1.374 . S
C2026 N2025 1.376 . S
C2026 C2027 1.443 . S
C2026 C2053 1.389 . S
C2027 C2026 1.443 . S
C2027 C2028 1.340 . S
C2027 H2059 0.951 . S
C2028 C2027 1.340 . S
C2028 C2029 1.439 . S
C2028 H2060 0.950 . S
C2029 N2025 1.374 . S
C2029 C2028 1.439 . S
C2029 C2054 1.395 . S
N2030 Co2019 1.995 . S
N2030 C2031 1.376 . S
N2030 C2034 1.383 . S
C2031 N2030 1.376 . S
C2031 C2032 1.446 . S
C2031 C2054 1.391 . S
C2032 C2031 1.446 . S
C2032 C2033 1.339 . S
C2032 H2061 0.949 . S
C2033 C2032 1.339 . S
C2033 C2034 1.439 . S
C2033 H2062 0.950 . S
C2034 N2030 1.383 . S
C2034 C2033 1.439 . S
C2034 C2052 1.392 . S
N2035 Co2019 2.282 . S
N2035 C2038 1.332 . S
N2035 C2040 1.332 . S
C2036 C2037 1.386 . S
C2036 C2039 1.388 . S
C2037 C2036 1.386 . S
C2037 C2038 1.382 . S
C2037 H2063 0.950 . S
C2038 N2035 1.332 . S
C2038 C2037 1.382 . S
C2038 H2049 0.952 . S
C2039 C2036 1.388 . S
C2039 C2040 1.382 . S
C2039 H2064 0.950 . S
C2040 N2035 1.332 . S
C2040 C2039 1.382 . S
C2040 H2050 0.948 . S
N2041 Co2019 2.282 . S
N2041 C2045 1.332 . S
N2041 C2046 1.332 . S
C2042 C2043 1.388 . S
C2042 C2046 1.382 . S
C2042 H2065 0.950 . S
C2043 C2042 1.388 . S
C2043 C2044 1.386 . S
C2044 C2043 1.386 . S
C2044 C2045 1.382 . S
C2044 H2066 0.950 . S
C2045 N2041 1.332 . S
C2045 C2044 1.382 . S
C2045 H2047 0.952 . S
C2046 N2041 1.332 . S
C2046 C2042 1.382 . S
C2046 H2048 0.948 . S
H2047 C2045 0.952 . S
H2048 C2046 0.948 . S
H2049 C2038 0.952 . S
H2050 C2040 0.948 . S
C2051 C2017 1.395 . S
C2051 C2021 1.391 . S
C2052 C2014 1.389 . S
C2052 C2034 1.392 . S
C2053 C2024 1.392 . S
C2053 C2026 1.389 . S
C2054 C2029 1.395 . S
C2054 C2031 1.391 . S
H2055 C2015 0.951 . S
H2056 C2016 0.950 . S
H2057 C2022 0.949 . S
H2058 C2023 0.950 . S
H2059 C2027 0.951 . S
H2060 C2028 0.950 . S
H2061 C2032 0.949 . S
H2062 C2033 0.950 . S
H2063 C2037 0.950 . S
H2064 C2039 0.950 . S
H2065 C2042 0.950 . S
H2066 C2044 0.950 . S
C2067 C2068 1.443 . S
C2067 N2071 1.376 . S
C2067 C2105 1.389 . S
C2068 C2067 1.443 . S
C2068 C2069 1.340 . S
C2068 H2108 0.951 . S
C2069 C2068 1.340 . S
C2069 C2070 1.439 . S
C2069 H2109 0.950 . S
C2070 C2069 1.439 . S
C2070 N2071 1.374 . S
C2070 C2104 1.395 . S
N2071 C2067 1.376 . S
N2071 C2070 1.374 . S
N2071 Co2072 2.008 . S
Co2072 N2071 2.008 . S
Co2072 N2073 1.995 . S
Co2072 N2078 2.008 . S
Co2072 N2083 1.995 . S
Co2072 N2088 2.282 . S
Co2072 N2094 2.282 . S
N2073 Co2072 1.995 . S
N2073 C2074 1.376 . S
N2073 C2077 1.383 . S
C2074 N2073 1.376 . S
C2074 C2075 1.446 . S
C2074 C2104 1.391 . S
C2075 C2074 1.446 . S
C2075 C2076 1.339 . S
C2075 H2110 0.949 . S
C2076 C2075 1.339 . S
C2076 C2077 1.439 . S
C2076 H2111 0.950 . S
C2077 N2073 1.383 . S
C2077 C2076 1.439 . S
C2077 C2106 1.392 . S
N2078 Co2072 2.008 . S
N2078 C2079 1.376 . S
N2078 C2082 1.374 . S
C2079 N2078 1.376 . S
C2079 C2080 1.443 . S
C2079 C2106 1.389 . S
C2080 C2079 1.443 . S
C2080 C2081 1.340 . S
C2080 H2112 0.951 . S
C2081 C2080 1.340 . S
C2081 C2082 1.439 . S
C2081 H2113 0.950 . S
C2082 N2078 1.374 . S
C2082 C2081 1.439 . S
C2082 C2107 1.395 . S
N2083 Co2072 1.995 . S
N2083 C2084 1.376 . S
N2083 C2087 1.383 . S
C2084 N2083 1.376 . S
C2084 C2085 1.446 . S
C2084 C2107 1.391 . S
C2085 C2084 1.446 . S
C2085 C2086 1.339 . S
C2085 H2114 0.949 . S
C2086 C2085 1.339 . S
C2086 C2087 1.439 . S
C2086 H2115 0.950 . S
C2087 N2083 1.383 . S
C2087 C2086 1.439 . S
C2087 C2105 1.392 . S
N2088 Co2072 2.282 . S
N2088 C2091 1.332 . S
N2088 C2093 1.332 . S
C2089 C2090 1.386 . S
C2089 C2092 1.388 . S
C2090 C2089 1.386 . S
C2090 C2091 1.382 . S
C2090 H2116 0.950 . S
C2091 N2088 1.332 . S
C2091 C2090 1.382 . S
C2091 H2102 0.952 . S
C2092 C2089 1.388 . S
C2092 C2093 1.382 . S
C2092 H2117 0.950 . S
C2093 N2088 1.332 . S
C2093 C2092 1.382 . S
C2093 H2103 0.948 . S
N2094 Co2072 2.282 . S
N2094 C2098 1.332 . S
N2094 C2099 1.332 . S
C2095 C2096 1.388 . S
C2095 C2099 1.382 . S
C2095 H2118 0.950 . S
C2096 C2095 1.388 . S
C2096 C2097 1.386 . S
C2097 C2096 1.386 . S
C2097 C2098 1.382 . S
C2097 H2119 0.950 . S
C2098 N2094 1.332 . S
C2098 C2097 1.382 . S
C2098 H2100 0.952 . S
C2099 N2094 1.332 . S
C2099 C2095 1.382 . S
C2099 H2101 0.948 . S
H2100 C2098 0.952 . S
H2101 C2099 0.948 . S
H2102 C2091 0.952 . S
H2103 C2093 0.948 . S
C2104 C2070 1.395 . S
C2104 C2074 1.391 . S
C2105 C2067 1.389 . S
C2105 C2087 1.392 . S
C2106 C2077 1.392 . S
C2106 C2079 1.389 . S
C2107 C2082 1.395 . S
C2107 C2084 1.391 . S
H2108 C2068 0.951 . S
H2109 C2069 0.950 . S
H2110 C2075 0.949 . S
H2111 C2076 0.950 . S
H2112 C2080 0.951 . S
H2113 C2081 0.950 . S
H2114 C2085 0.949 . S
H2115 C2086 0.950 . S
H2116 C2090 0.950 . S
H2117 C2092 0.950 . S
H2118 C2095 0.950 . S
H2119 C2097 0.950 . S
C2120 C2121 1.443 . S
C2120 N2124 1.376 . S
C2120 C2158 1.389 . S
C2121 C2120 1.443 . S
C2121 C2122 1.340 . S
C2121 H2161 0.951 . S
C2122 C2121 1.340 . S
C2122 C2123 1.439 . S
C2122 H2162 0.950 . S
C2123 C2122 1.439 . S
C2123 N2124 1.374 . S
C2123 C2157 1.395 . S
N2124 C2120 1.376 . S
N2124 C2123 1.374 . S
N2124 Co2125 2.008 . S
Co2125 N2124 2.008 . S
Co2125 N2126 1.995 . S
Co2125 N2131 2.008 . S
Co2125 N2136 1.995 . S
Co2125 N2141 2.282 . S
Co2125 N2147 2.282 . S
N2126 Co2125 1.995 . S
N2126 C2127 1.376 . S
N2126 C2130 1.383 . S
C2127 N2126 1.376 . S
C2127 C2128 1.446 . S
C2127 C2157 1.391 . S
C2128 C2127 1.446 . S
C2128 C2129 1.339 . S
C2128 H2163 0.949 . S
C2129 C2128 1.339 . S
C2129 C2130 1.439 . S
C2129 H2164 0.950 . S
C2130 N2126 1.383 . S
C2130 C2129 1.439 . S
C2130 C2159 1.392 . S
N2131 Co2125 2.008 . S
N2131 C2132 1.376 . S
N2131 C2135 1.374 . S
C2132 N2131 1.376 . S
C2132 C2133 1.443 . S
C2132 C2159 1.389 . S
C2133 C2132 1.443 . S
C2133 C2134 1.340 . S
C2133 H2165 0.951 . S
C2134 C2133 1.340 . S
C2134 C2135 1.439 . S
C2134 H2166 0.950 . S
C2135 N2131 1.374 . S
C2135 C2134 1.439 . S
C2135 C2160 1.395 . S
N2136 Co2125 1.995 . S
N2136 C2137 1.376 . S
N2136 C2140 1.383 . S
C2137 N2136 1.376 . S
C2137 C2138 1.446 . S
C2137 C2160 1.391 . S
C2138 C2137 1.446 . S
C2138 C2139 1.339 . S
C2138 H2167 0.949 . S
C2139 C2138 1.339 . S
C2139 C2140 1.439 . S
C2139 H2168 0.950 . S
C2140 N2136 1.383 . S
C2140 C2139 1.439 . S
C2140 C2158 1.392 . S
N2141 Co2125 2.282 . S
N2141 C2144 1.332 . S
N2141 C2146 1.332 . S
C2142 C2143 1.386 . S
C2142 C2145 1.388 . S
C2143 C2142 1.386 . S
C2143 C2144 1.382 . S
C2143 H2169 0.950 . S
C2144 N2141 1.332 . S
C2144 C2143 1.382 . S
C2144 H2155 0.952 . S
C2145 C2142 1.388 . S
C2145 C2146 1.382 . S
C2145 H2170 0.950 . S
C2146 N2141 1.332 . S
C2146 C2145 1.382 . S
C2146 H2156 0.948 . S
N2147 Co2125 2.282 . S
N2147 C2151 1.332 . S
N2147 C2152 1.332 . S
C2148 C2149 1.388 . S
C2148 C2152 1.382 . S
C2148 H2171 0.950 . S
C2149 C2148 1.388 . S
C2149 C2150 1.386 . S
C2150 C2149 1.386 . S
C2150 C2151 1.382 . S
C2150 H2172 0.950 . S
C2151 N2147 1.332 . S
C2151 C2150 1.382 . S
C2151 H2153 0.952 . S
C2152 N2147 1.332 . S
C2152 C2148 1.382 . S
C2152 H2154 0.948 . S
H2153 C2151 0.952 . S
H2154 C2152 0.948 . S
H2155 C2144 0.952 . S
H2156 C2146 0.948 . S
C2157 C2123 1.395 . S
C2157 C2127 1.391 . S
C2158 C2120 1.389 . S
C2158 C2140 1.392 . S
C2159 C2130 1.392 . S
C2159 C2132 1.389 . S
C2160 C2135 1.395 . S
C2160 C2137 1.391 . S
H2161 C2121 0.951 . S
H2162 C2122 0.950 . S
H2163 C2128 0.949 . S
H2164 C2129 0.950 . S
H2165 C2133 0.951 . S
H2166 C2134 0.950 . S
H2167 C2138 0.949 . S
H2168 C2139 0.950 . S
H2169 C2143 0.950 . S
H2170 C2145 0.950 . S
H2171 C2148 0.950 . S
H2172 C2150 0.950 . S
C2173 C2174 1.443 . S
C2173 N2177 1.376 . S
C2173 C2211 1.389 . S
C2174 C2173 1.443 . S
C2174 C2175 1.340 . S
C2174 H2214 0.951 . S
C2175 C2174 1.340 . S
C2175 C2176 1.439 . S
C2175 H2215 0.950 . S
C2176 C2175 1.439 . S
C2176 N2177 1.374 . S
C2176 C2210 1.395 . S
N2177 C2173 1.376 . S
N2177 C2176 1.374 . S
N2177 Co2178 2.008 . S
Co2178 N2177 2.008 . S
Co2178 N2179 1.995 . S
Co2178 N2184 2.008 . S
Co2178 N2189 1.995 . S
Co2178 N2194 2.282 . S
Co2178 N2200 2.282 . S
N2179 Co2178 1.995 . S
N2179 C2180 1.376 . S
N2179 C2183 1.383 . S
C2180 N2179 1.376 . S
C2180 C2181 1.446 . S
C2180 C2210 1.391 . S
C2181 C2180 1.446 . S
C2181 C2182 1.339 . S
C2181 H2216 0.949 . S
C2182 C2181 1.339 . S
C2182 C2183 1.439 . S
C2182 H2217 0.950 . S
C2183 N2179 1.383 . S
C2183 C2182 1.439 . S
C2183 C2212 1.392 . S
N2184 Co2178 2.008 . S
N2184 C2185 1.376 . S
N2184 C2188 1.374 . S
C2185 N2184 1.376 . S
C2185 C2186 1.443 . S
C2185 C2212 1.389 . S
C2186 C2185 1.443 . S
C2186 C2187 1.340 . S
C2186 H2218 0.951 . S
C2187 C2186 1.340 . S
C2187 C2188 1.439 . S
C2187 H2219 0.950 . S
C2188 N2184 1.374 . S
C2188 C2187 1.439 . S
C2188 C2213 1.395 . S
N2189 Co2178 1.995 . S
N2189 C2190 1.376 . S
N2189 C2193 1.383 . S
C2190 N2189 1.376 . S
C2190 C2191 1.446 . S
C2190 C2213 1.391 . S
C2191 C2190 1.446 . S
C2191 C2192 1.339 . S
C2191 H2220 0.949 . S
C2192 C2191 1.339 . S
C2192 C2193 1.439 . S
C2192 H2221 0.950 . S
C2193 N2189 1.383 . S
C2193 C2192 1.439 . S
C2193 C2211 1.392 . S
N2194 Co2178 2.282 . S
N2194 C2197 1.332 . S
N2194 C2199 1.332 . S
C2195 C2196 1.386 . S
C2195 C2198 1.388 . S
C2196 C2195 1.386 . S
C2196 C2197 1.382 . S
C2196 H2222 0.950 . S
C2197 N2194 1.332 . S
C2197 C2196 1.382 . S
C2197 H2208 0.952 . S
C2198 C2195 1.388 . S
C2198 C2199 1.382 . S
C2198 H2223 0.950 . S
C2199 N2194 1.332 . S
C2199 C2198 1.382 . S
C2199 H2209 0.948 . S
N2200 Co2178 2.282 . S
N2200 C2204 1.332 . S
N2200 C2205 1.332 . S
C2201 C2202 1.388 . S
C2201 C2205 1.382 . S
C2201 H2224 0.950 . S
C2202 C2201 1.388 . S
C2202 C2203 1.386 . S
C2203 C2202 1.386 . S
C2203 C2204 1.382 . S
C2203 H2225 0.950 . S
C2204 N2200 1.332 . S
C2204 C2203 1.382 . S
C2204 H2206 0.952 . S
C2205 N2200 1.332 . S
C2205 C2201 1.382 . S
C2205 H2207 0.948 . S
H2206 C2204 0.952 . S
H2207 C2205 0.948 . S
H2208 C2197 0.952 . S
H2209 C2199 0.948 . S
C2210 C2176 1.395 . S
C2210 C2180 1.391 . S
C2211 C2173 1.389 . S
C2211 C2193 1.392 . S
C2212 C2183 1.392 . S
C2212 C2185 1.389 . S
C2213 C2188 1.395 . S
C2213 C2190 1.391 . S
H2214 C2174 0.951 . S
H2215 C2175 0.950 . S
H2216 C2181 0.949 . S
H2217 C2182 0.950 . S
H2218 C2186 0.951 . S
H2219 C2187 0.950 . S
H2220 C2191 0.949 . S
H2221 C2192 0.950 . S
H2222 C2196 0.950 . S
H2223 C2198 0.950 . S
H2224 C2201 0.950 . S
H2225 C2203 0.950 . S
C2226 C2227 1.443 . S
C2226 N2230 1.376 . S
C2226 C2264 1.389 . S
C2227 C2226 1.443 . S
C2227 C2228 1.340 . S
C2227 H2267 0.951 . S
C2228 C2227 1.340 . S
C2228 C2229 1.439 . S
C2228 H2268 0.950 . S
C2229 C2228 1.439 . S
C2229 N2230 1.374 . S
C2229 C2263 1.395 . S
N2230 C2226 1.376 . S
N2230 C2229 1.374 . S
N2230 Co2231 2.008 1_565 S
Co2231 N2230 2.008 1_545 S
Co2231 N2232 1.995 . S
Co2231 N2237 2.008 . S
Co2231 N2242 1.995 1_545 S
Co2231 N2247 2.282 1_545 S
Co2231 N2253 2.282 . S
N2232 Co2231 1.995 . S
N2232 C2233 1.376 . S
N2232 C2236 1.383 . S
C2233 N2232 1.376 . S
C2233 C2234 1.446 . S
C2233 C2263 1.391 1_545 S
C2234 C2233 1.446 . S
C2234 C2235 1.339 . S
C2234 H2269 0.949 . S
C2235 C2234 1.339 . S
C2235 C2236 1.439 . S
C2235 H2270 0.950 . S
C2236 N2232 1.383 . S
C2236 C2235 1.439 . S
C2236 C2265 1.392 . S
N2237 Co2231 2.008 . S
N2237 C2238 1.376 . S
N2237 C2241 1.374 . S
C2238 N2237 1.376 . S
C2238 C2239 1.443 . S
C2238 C2265 1.389 . S
C2239 C2238 1.443 . S
C2239 C2240 1.340 . S
C2239 H2271 0.951 . S
C2240 C2239 1.340 . S
C2240 C2241 1.439 . S
C2240 H2272 0.950 . S
C2241 N2237 1.374 . S
C2241 C2240 1.439 . S
C2241 C2266 1.395 . S
N2242 Co2231 1.995 1_565 S
N2242 C2243 1.377 1_565 S
N2242 C2246 1.383 . S
C2243 N2242 1.377 1_545 S
C2243 C2244 1.447 1_545 S
C2243 C2266 1.390 . S
C2244 C2243 1.447 1_565 S
C2244 C2245 1.339 . S
C2244 H2273 0.949 . S
C2245 C2244 1.339 . S
C2245 C2246 1.439 . S
C2245 H2274 0.950 . S
C2246 N2242 1.383 . S
C2246 C2245 1.439 . S
C2246 C2264 1.392 . S
N2247 Co2231 2.282 1_565 S
N2247 C2250 1.332 . S
N2247 C2252 1.332 . S
C2248 C2249 1.386 . S
C2248 C2251 1.388 . S
C2249 C2248 1.386 . S
C2249 C2250 1.382 . S
C2249 H2275 0.950 . S
C2250 N2247 1.332 . S
C2250 C2249 1.382 . S
C2250 H2261 0.952 . S
C2251 C2248 1.388 . S
C2251 C2252 1.382 . S
C2251 H2276 0.950 . S
C2252 N2247 1.332 . S
C2252 C2251 1.382 . S
C2252 H2262 0.948 . S
N2253 Co2231 2.282 . S
N2253 C2257 1.332 . S
N2253 C2258 1.332 . S
C2254 C2255 1.388 . S
C2254 C2258 1.382 . S
C2254 H2277 0.950 . S
C2255 C2254 1.388 . S
C2255 C2256 1.386 . S
C2256 C2255 1.386 . S
C2256 C2257 1.382 . S
C2256 H2278 0.950 . S
C2257 N2253 1.332 . S
C2257 C2256 1.382 . S
C2257 H2259 0.952 . S
C2258 N2253 1.332 . S
C2258 C2254 1.382 . S
C2258 H2260 0.948 . S
H2259 C2257 0.952 . S
H2260 C2258 0.948 . S
H2261 C2250 0.952 . S
H2262 C2252 0.948 . S
C2263 C2229 1.395 . S
C2263 C2233 1.391 1_565 S
C2264 C2226 1.389 . S
C2264 C2246 1.392 . S
C2265 C2236 1.392 . S
C2265 C2238 1.389 . S
C2266 C2241 1.395 . S
C2266 C2243 1.390 . S
H2267 C2227 0.951 . S
H2268 C2228 0.950 . S
H2269 C2234 0.949 . S
H2270 C2235 0.950 . S
H2271 C2239 0.951 . S
H2272 C2240 0.950 . S
H2273 C2244 0.949 . S
H2274 C2245 0.950 . S
H2275 C2249 0.950 . S
H2276 C2251 0.950 . S
H2277 C2254 0.950 . S
H2278 C2256 0.950 . S
C2279 C2280 1.443 . S
C2279 N2283 1.376 . S
C2279 C2317 1.389 . S
C2280 C2279 1.443 . S
C2280 C2281 1.340 . S
C2280 H2320 0.951 . S
C2281 C2280 1.340 . S
C2281 C2282 1.439 . S
C2281 H2321 0.950 . S
C2282 C2281 1.439 . S
C2282 N2283 1.374 . S
C2282 C2316 1.395 . S
N2283 C2279 1.376 . S
N2283 C2282 1.374 . S
N2283 Co2284 2.008 . S
Co2284 N2283 2.008 . S
Co2284 N2285 1.995 . S
Co2284 N2290 2.008 . S
Co2284 N2295 1.995 . S
Co2284 N2300 2.282 . S
Co2284 N2306 2.282 . S
N2285 Co2284 1.995 . S
N2285 C2286 1.376 . S
N2285 C2289 1.383 . S
C2286 N2285 1.376 . S
C2286 C2287 1.446 . S
C2286 C2316 1.391 . S
C2287 C2286 1.446 . S
C2287 C2288 1.339 . S
C2287 H2322 0.949 . S
C2288 C2287 1.339 . S
C2288 C2289 1.439 . S
C2288 H2323 0.950 . S
C2289 N2285 1.383 . S
C2289 C2288 1.439 . S
C2289 C2318 1.392 . S
N2290 Co2284 2.008 . S
N2290 C2291 1.376 . S
N2290 C2294 1.374 . S
C2291 N2290 1.376 . S
C2291 C2292 1.443 . S
C2291 C2318 1.389 . S
C2292 C2291 1.443 . S
C2292 C2293 1.340 . S
C2292 H2324 0.951 . S
C2293 C2292 1.340 . S
C2293 C2294 1.439 . S
C2293 H2325 0.950 . S
C2294 N2290 1.374 . S
C2294 C2293 1.439 . S
C2294 C2319 1.395 . S
N2295 Co2284 1.995 . S
N2295 C2296 1.376 . S
N2295 C2299 1.383 . S
C2296 N2295 1.376 . S
C2296 C2297 1.446 . S
C2296 C2319 1.391 . S
C2297 C2296 1.446 . S
C2297 C2298 1.339 . S
C2297 H2326 0.949 . S
C2298 C2297 1.339 . S
C2298 C2299 1.439 . S
C2298 H2327 0.950 . S
C2299 N2295 1.383 . S
C2299 C2298 1.439 . S
C2299 C2317 1.392 . S
N2300 Co2284 2.282 . S
N2300 C2303 1.332 . S
N2300 C2305 1.332 . S
C2301 C2302 1.386 . S
C2301 C2304 1.388 . S
C2302 C2301 1.386 . S
C2302 C2303 1.382 . S
C2302 H2328 0.950 . S
C2303 N2300 1.332 . S
C2303 C2302 1.382 . S
C2303 H2314 0.952 . S
C2304 C2301 1.388 . S
C2304 C2305 1.382 . S
C2304 H2329 0.950 . S
C2305 N2300 1.332 . S
C2305 C2304 1.382 . S
C2305 H2315 0.948 . S
N2306 Co2284 2.282 . S
N2306 C2310 1.332 . S
N2306 C2311 1.332 . S
C2307 C2308 1.388 . S
C2307 C2311 1.382 . S
C2307 H2330 0.950 . S
C2308 C2307 1.388 . S
C2308 C2309 1.386 . S
C2309 C2308 1.386 . S
C2309 C2310 1.382 . S
C2309 H2331 0.950 . S
C2310 N2306 1.332 . S
C2310 C2309 1.382 . S
C2310 H2312 0.952 . S
C2311 N2306 1.332 . S
C2311 C2307 1.382 . S
C2311 H2313 0.948 . S
H2312 C2310 0.952 . S
H2313 C2311 0.948 . S
H2314 C2303 0.952 . S
H2315 C2305 0.948 . S
C2316 C2282 1.395 . S
C2316 C2286 1.391 . S
C2317 C2279 1.389 . S
C2317 C2299 1.392 . S
C2318 C2289 1.392 . S
C2318 C2291 1.389 . S
C2319 C2294 1.395 . S
C2319 C2296 1.391 . S
H2320 C2280 0.951 . S
H2321 C2281 0.950 . S
H2322 C2287 0.949 . S
H2323 C2288 0.950 . S
H2324 C2292 0.951 . S
H2325 C2293 0.950 . S
H2326 C2297 0.949 . S
H2327 C2298 0.950 . S
H2328 C2302 0.950 . S
H2329 C2304 0.950 . S
H2330 C2307 0.950 . S
H2331 C2309 0.950 . S
C2332 C2333 1.443 . S
C2332 N2336 1.376 . S
C2332 C2370 1.389 . S
C2333 C2332 1.443 . S
C2333 C2334 1.340 . S
C2333 H2373 0.951 . S
C2334 C2333 1.340 . S
C2334 C2335 1.439 . S
C2334 H2374 0.950 . S
C2335 C2334 1.439 . S
C2335 N2336 1.374 . S
C2335 C2369 1.395 . S
N2336 C2332 1.376 . S
N2336 C2335 1.374 . S
N2336 Co2337 2.008 1_545 S
Co2337 N2336 2.008 1_565 S
Co2337 N2338 1.995 . S
Co2337 N2343 2.008 . S
Co2337 N2348 1.995 1_565 S
Co2337 N2353 2.282 1_565 S
Co2337 N2359 2.282 . S
N2338 Co2337 1.995 . S
N2338 C2339 1.376 . S
N2338 C2342 1.383 . S
C2339 N2338 1.376 . S
C2339 C2340 1.446 . S
C2339 C2369 1.391 1_565 S
C2340 C2339 1.446 . S
C2340 C2341 1.339 . S
C2340 H2375 0.949 . S
C2341 C2340 1.339 . S
C2341 C2342 1.439 . S
C2341 H2376 0.950 . S
C2342 N2338 1.383 . S
C2342 C2341 1.439 . S
C2342 C2371 1.392 . S
N2343 Co2337 2.008 . S
N2343 C2344 1.376 . S
N2343 C2347 1.374 . S
C2344 N2343 1.376 . S
C2344 C2345 1.443 . S
C2344 C2371 1.389 . S
C2345 C2344 1.443 . S
C2345 C2346 1.340 . S
C2345 H2377 0.951 . S
C2346 C2345 1.340 . S
C2346 C2347 1.439 . S
C2346 H2378 0.950 . S
C2347 N2343 1.374 . S
C2347 C2346 1.439 . S
C2347 C2372 1.395 . S
N2348 Co2337 1.995 1_545 S
N2348 C2349 1.377 1_545 S
N2348 C2352 1.383 . S
C2349 N2348 1.377 1_565 S
C2349 C2350 1.448 1_465 S
C2349 C2372 1.389 . S
C2350 C2349 1.448 1_645 S
C2350 C2351 1.339 . S
C2350 H2379 0.949 . S
C2351 C2350 1.339 . S
C2351 C2352 1.439 1_655 S
C2351 H2380 0.950 . S
C2352 N2348 1.383 . S
C2352 C2351 1.439 1_455 S
C2352 C2370 1.392 . S
N2353 Co2337 2.282 1_545 S
N2353 C2356 1.332 . S
N2353 C2358 1.332 . S
C2354 C2355 1.386 . S
C2354 C2357 1.388 . S
C2355 C2354 1.386 . S
C2355 C2356 1.382 . S
C2355 H2381 0.950 . S
C2356 N2353 1.332 . S
C2356 C2355 1.382 . S
C2356 H2367 0.952 . S
C2357 C2354 1.388 . S
C2357 C2358 1.382 . S
C2357 H2382 0.950 . S
C2358 N2353 1.332 . S
C2358 C2357 1.382 . S
C2358 H2368 0.948 . S
N2359 Co2337 2.282 . S
N2359 C2363 1.332 . S
N2359 C2364 1.332 . S
C2360 C2361 1.388 . S
C2360 C2364 1.382 . S
C2360 H2383 0.950 1_455 S
C2361 C2360 1.388 . S
C2361 C2362 1.386 . S
C2362 C2361 1.386 . S
C2362 C2363 1.382 . S
C2362 H2384 0.950 . S
C2363 N2359 1.332 . S
C2363 C2362 1.382 . S
C2363 H2365 0.952 . S
C2364 N2359 1.332 . S
C2364 C2360 1.382 . S
C2364 H2366 0.948 . S
H2365 C2363 0.952 . S
H2366 C2364 0.948 . S
H2367 C2356 0.952 . S
H2368 C2358 0.948 . S
C2369 C2335 1.395 . S
C2369 C2339 1.391 1_545 S
C2370 C2332 1.389 . S
C2370 C2352 1.392 . S
C2371 C2342 1.392 . S
C2371 C2344 1.389 . S
C2372 C2347 1.395 . S
C2372 C2349 1.389 . S
H2373 C2333 0.951 . S
H2374 C2334 0.950 . S
H2375 C2340 0.949 . S
H2376 C2341 0.950 . S
H2377 C2345 0.951 . S
H2378 C2346 0.950 . S
H2379 C2350 0.949 . S
H2380 C2351 0.950 . S
H2381 C2355 0.950 . S
H2382 C2357 0.950 . S
H2383 C2360 0.950 1_655 S
H2384 C2362 0.950 . S
C2385 C2386 1.443 . S
C2385 N2389 1.376 . S
C2385 C2423 1.389 . S
C2386 C2385 1.443 . S
C2386 C2387 1.340 . S
C2386 H2426 0.951 . S
C2387 C2386 1.340 . S
C2387 C2388 1.439 . S
C2387 H2427 0.950 . S
C2388 C2387 1.439 . S
C2388 N2389 1.374 . S
C2388 C2422 1.395 . S
N2389 C2385 1.376 . S
N2389 C2388 1.374 . S
N2389 Co2390 2.008 . S
Co2390 N2389 2.008 . S
Co2390 N2391 1.995 . S
Co2390 N2396 2.008 . S
Co2390 N2401 1.995 . S
Co2390 N2406 2.282 . S
Co2390 N2412 2.282 . S
N2391 Co2390 1.995 . S
N2391 C2392 1.376 . S
N2391 C2395 1.383 . S
C2392 N2391 1.376 . S
C2392 C2393 1.446 . S
C2392 C2422 1.391 . S
C2393 C2392 1.446 . S
C2393 C2394 1.339 . S
C2393 H2428 0.949 . S
C2394 C2393 1.339 . S
C2394 C2395 1.439 . S
C2394 H2429 0.950 . S
C2395 N2391 1.383 . S
C2395 C2394 1.439 . S
C2395 C2424 1.392 . S
N2396 Co2390 2.008 . S
N2396 C2397 1.376 . S
N2396 C2400 1.374 . S
C2397 N2396 1.376 . S
C2397 C2398 1.443 . S
C2397 C2424 1.389 . S
C2398 C2397 1.443 . S
C2398 C2399 1.340 . S
C2398 H2430 0.951 . S
C2399 C2398 1.340 . S
C2399 C2400 1.439 . S
C2399 H2431 0.950 . S
C2400 N2396 1.374 . S
C2400 C2399 1.439 . S
C2400 C2425 1.395 . S
N2401 Co2390 1.995 . S
N2401 C2402 1.376 . S
N2401 C2405 1.383 . S
C2402 N2401 1.376 . S
C2402 C2403 1.446 . S
C2402 C2425 1.391 . S
C2403 C2402 1.446 . S
C2403 C2404 1.339 . S
C2403 H2432 0.949 . S
C2404 C2403 1.339 . S
C2404 C2405 1.439 . S
C2404 H2433 0.950 . S
C2405 N2401 1.383 . S
C2405 C2404 1.439 . S
C2405 C2423 1.392 . S
N2406 Co2390 2.282 . S
N2406 C2409 1.332 . S
N2406 C2411 1.332 . S
C2407 C2408 1.386 . S
C2407 C2410 1.388 . S
C2408 C2407 1.386 . S
C2408 C2409 1.382 . S
C2408 H2434 0.950 . S
C2409 N2406 1.332 . S
C2409 C2408 1.382 . S
C2409 H2420 0.952 . S
C2410 C2407 1.388 . S
C2410 C2411 1.382 . S
C2410 H2435 0.950 . S
C2411 N2406 1.332 . S
C2411 C2410 1.382 . S
C2411 H2421 0.948 . S
N2412 Co2390 2.282 . S
N2412 C2416 1.332 . S
N2412 C2417 1.332 . S
C2413 C2414 1.388 . S
C2413 C2417 1.382 . S
C2413 H2436 0.950 . S
C2414 C2413 1.388 . S
C2414 C2415 1.386 . S
C2415 C2414 1.386 . S
C2415 C2416 1.382 . S
C2415 H2437 0.950 . S
C2416 N2412 1.332 . S
C2416 C2415 1.382 . S
C2416 H2418 0.952 . S
C2417 N2412 1.332 . S
C2417 C2413 1.382 . S
C2417 H2419 0.948 . S
H2418 C2416 0.952 . S
H2419 C2417 0.948 . S
H2420 C2409 0.952 . S
H2421 C2411 0.948 . S
C2422 C2388 1.395 . S
C2422 C2392 1.391 . S
C2423 C2385 1.389 . S
C2423 C2405 1.392 . S
C2424 C2395 1.392 . S
C2424 C2397 1.389 . S
C2425 C2400 1.395 . S
C2425 C2402 1.391 . S
H2426 C2386 0.951 . S
H2427 C2387 0.950 . S
H2428 C2393 0.949 . S
H2429 C2394 0.950 . S
H2430 C2398 0.951 . S
H2431 C2399 0.950 . S
H2432 C2403 0.949 . S
H2433 C2404 0.950 . S
H2434 C2408 0.950 . S
H2435 C2410 0.950 . S
H2436 C2413 0.950 . S
H2437 C2415 0.950 . S
C2438 C2439 1.443 . S
C2438 N2442 1.376 . S
C2438 C2476 1.389 . S
C2439 C2438 1.443 . S
C2439 C2440 1.340 . S
C2439 H2479 0.951 . S
C2440 C2439 1.340 . S
C2440 C2441 1.439 . S
C2440 H2480 0.950 . S
C2441 C2440 1.439 . S
C2441 N2442 1.374 . S
C2441 C2475 1.395 . S
N2442 C2438 1.376 . S
N2442 C2441 1.374 . S
N2442 Co2443 2.008 1_545 S
Co2443 N2442 2.008 1_565 S
Co2443 N2444 1.995 . S
Co2443 N2449 2.008 . S
Co2443 N2454 1.995 1_565 S
Co2443 N2459 2.282 1_565 S
Co2443 N2465 2.282 . S
N2444 Co2443 1.995 . S
N2444 C2445 1.376 . S
N2444 C2448 1.383 . S
C2445 N2444 1.376 . S
C2445 C2446 1.446 . S
C2445 C2475 1.391 1_565 S
C2446 C2445 1.446 . S
C2446 C2447 1.339 . S
C2446 H2481 0.949 . S
C2447 C2446 1.339 . S
C2447 C2448 1.439 . S
C2447 H2482 0.950 . S
C2448 N2444 1.383 . S
C2448 C2447 1.439 . S
C2448 C2477 1.392 . S
N2449 Co2443 2.008 . S
N2449 C2450 1.376 . S
N2449 C2453 1.374 . S
C2450 N2449 1.376 . S
C2450 C2451 1.443 . S
C2450 C2477 1.389 . S
C2451 C2450 1.443 . S
C2451 C2452 1.340 . S
C2451 H2483 0.951 . S
C2452 C2451 1.340 . S
C2452 C2453 1.439 . S
C2452 H2484 0.950 . S
C2453 N2449 1.374 . S
C2453 C2452 1.439 . S
C2453 C2478 1.395 . S
N2454 Co2443 1.995 1_545 S
N2454 C2455 1.377 1_545 S
N2454 C2458 1.383 . S
C2455 N2454 1.377 1_565 S
C2455 C2456 1.447 1_565 S
C2455 C2478 1.389 . S
C2456 C2455 1.447 1_545 S
C2456 C2457 1.339 . S
C2456 H2485 0.949 . S
C2457 C2456 1.339 . S
C2457 C2458 1.439 . S
C2457 H2486 0.950 . S
C2458 N2454 1.383 . S
C2458 C2457 1.439 . S
C2458 C2476 1.392 . S
N2459 Co2443 2.282 1_545 S
N2459 C2462 1.332 . S
N2459 C2464 1.332 . S
C2460 C2461 1.386 . S
C2460 C2463 1.388 . S
C2461 C2460 1.386 . S
C2461 C2462 1.382 . S
C2461 H2487 0.950 . S
C2462 N2459 1.332 . S
C2462 C2461 1.382 . S
C2462 H2473 0.952 . S
C2463 C2460 1.388 . S
C2463 C2464 1.382 . S
C2463 H2488 0.950 . S
C2464 N2459 1.332 . S
C2464 C2463 1.382 . S
C2464 H2474 0.948 . S
N2465 Co2443 2.282 . S
N2465 C2469 1.332 . S
N2465 C2470 1.332 . S
C2466 C2467 1.388 . S
C2466 C2470 1.382 . S
C2466 H2489 0.950 . S
C2467 C2466 1.388 . S
C2467 C2468 1.386 . S
C2468 C2467 1.386 . S
C2468 C2469 1.382 . S
C2468 H2490 0.950 . S
C2469 N2465 1.332 . S
C2469 C2468 1.382 . S
C2469 H2471 0.952 . S
C2470 N2465 1.332 . S
C2470 C2466 1.382 . S
C2470 H2472 0.948 . S
H2471 C2469 0.952 . S
H2472 C2470 0.948 . S
H2473 C2462 0.952 . S
H2474 C2464 0.948 . S
C2475 C2441 1.395 . S
C2475 C2445 1.391 1_545 S
C2476 C2438 1.389 . S
C2476 C2458 1.392 . S
C2477 C2448 1.392 . S
C2477 C2450 1.389 . S
C2478 C2453 1.395 . S
C2478 C2455 1.389 . S
H2479 C2439 0.951 . S
H2480 C2440 0.950 . S
H2481 C2446 0.949 . S
H2482 C2447 0.950 . S
H2483 C2451 0.951 . S
H2484 C2452 0.950 . S
H2485 C2456 0.949 . S
H2486 C2457 0.950 . S
H2487 C2461 0.950 . S
H2488 C2463 0.950 . S
H2489 C2466 0.950 . S
H2490 C2468 0.950 . S
C2491 C2492 1.443 . S
C2491 N2495 1.376 . S
C2491 C2529 1.389 . S
C2492 C2491 1.443 . S
C2492 C2493 1.340 . S
C2492 H2532 0.951 . S
C2493 C2492 1.340 . S
C2493 C2494 1.439 . S
C2493 H2533 0.950 . S
C2494 C2493 1.439 . S
C2494 N2495 1.374 . S
C2494 C2528 1.395 . S
N2495 C2491 1.376 . S
N2495 C2494 1.374 . S
N2495 Co2496 2.008 . S
Co2496 N2495 2.008 . S
Co2496 N2497 1.995 . S
Co2496 N2502 2.008 . S
Co2496 N2507 1.995 . S
Co2496 N2512 2.282 . S
Co2496 N2518 2.282 . S
N2497 Co2496 1.995 . S
N2497 C2498 1.376 . S
N2497 C2501 1.383 . S
C2498 N2497 1.376 . S
C2498 C2499 1.446 . S
C2498 C2528 1.391 . S
C2499 C2498 1.446 . S
C2499 C2500 1.339 . S
C2499 H2534 0.949 . S
C2500 C2499 1.339 . S
C2500 C2501 1.439 . S
C2500 H2535 0.950 . S
C2501 N2497 1.383 . S
C2501 C2500 1.439 . S
C2501 C2530 1.392 . S
N2502 Co2496 2.008 . S
N2502 C2503 1.376 . S
N2502 C2506 1.374 . S
C2503 N2502 1.376 . S
C2503 C2504 1.443 . S
C2503 C2530 1.389 . S
C2504 C2503 1.443 . S
C2504 C2505 1.340 . S
C2504 H2536 0.951 . S
C2505 C2504 1.340 . S
C2505 C2506 1.439 . S
C2505 H2537 0.950 . S
C2506 N2502 1.374 . S
C2506 C2505 1.439 . S
C2506 C2531 1.395 . S
N2507 Co2496 1.995 . S
N2507 C2508 1.376 . S
N2507 C2511 1.383 . S
C2508 N2507 1.376 . S
C2508 C2509 1.446 . S
C2508 C2531 1.391 . S
C2509 C2508 1.446 . S
C2509 C2510 1.339 . S
C2509 H2538 0.949 . S
C2510 C2509 1.339 . S
C2510 C2511 1.439 . S
C2510 H2539 0.950 . S
C2511 N2507 1.383 . S
C2511 C2510 1.439 . S
C2511 C2529 1.392 . S
N2512 Co2496 2.282 . S
N2512 C2515 1.332 . S
N2512 C2517 1.332 . S
C2513 C2514 1.386 . S
C2513 C2516 1.388 . S
C2514 C2513 1.386 . S
C2514 C2515 1.382 . S
C2514 H2540 0.950 . S
C2515 N2512 1.332 . S
C2515 C2514 1.382 . S
C2515 H2526 0.952 . S
C2516 C2513 1.388 . S
C2516 C2517 1.382 . S
C2516 H2541 0.950 . S
C2517 N2512 1.332 . S
C2517 C2516 1.382 . S
C2517 H2527 0.948 . S
N2518 Co2496 2.282 . S
N2518 C2522 1.332 . S
N2518 C2523 1.332 . S
C2519 C2520 1.388 . S
C2519 C2523 1.382 . S
C2519 H2542 0.950 . S
C2520 C2519 1.388 . S
C2520 C2521 1.386 . S
C2521 C2520 1.386 . S
C2521 C2522 1.382 . S
C2521 H2543 0.950 . S
C2522 N2518 1.332 . S
C2522 C2521 1.382 . S
C2522 H2524 0.952 . S
C2523 N2518 1.332 . S
C2523 C2519 1.382 . S
C2523 H2525 0.948 . S
H2524 C2522 0.952 . S
H2525 C2523 0.948 . S
H2526 C2515 0.952 . S
H2527 C2517 0.948 . S
C2528 C2494 1.395 . S
C2528 C2498 1.391 . S
C2529 C2491 1.389 . S
C2529 C2511 1.392 . S
C2530 C2501 1.392 . S
C2530 C2503 1.389 . S
C2531 C2506 1.395 . S
C2531 C2508 1.391 . S
H2532 C2492 0.951 . S
H2533 C2493 0.950 . S
H2534 C2499 0.949 . S
H2535 C2500 0.950 . S
H2536 C2504 0.951 . S
H2537 C2505 0.950 . S
H2538 C2509 0.949 . S
H2539 C2510 0.950 . S
H2540 C2514 0.950 . S
H2541 C2516 0.950 . S
H2542 C2519 0.950 . S
H2543 C2521 0.950 . S
C877 C38 2.240 . S
C2520 C91 2.288 1_554 S
C144 C2414 2.240 . S
C197 C2467 2.288 1_556 S
C930 C250 2.239 . S
C303 C983 2.287 1_554 S
C356 C1036 2.240 . S
C2361 C409 2.288 1_556 S
C462 C29 2.240 . S
C82 C515 2.288 . S
C135 C568 2.240 . S
C188 C621 2.287 1_565 S
C241 C674 2.240 . S
C727 C294 2.288 . S
C347 C780 2.240 . S
C833 C400 2.288 1_545 S
C886 C453 2.240 . S
C665 C939 2.240 . S
C992 C718 2.288 1_655 S
C1045 C771 2.240 . S
C2096 C1098 2.288 . S
C1151 C1831 2.240 . S
C1884 C1204 2.288 1_455 S
C1778 C1257 2.287 1_655 S
C2149 C1310 2.240 . S
C1363 C1248 2.288 . S
C1416 C1142 2.240 . S
C1469 C1195 2.288 . S
C1522 C2202 2.240 . S
C2255 C1575 2.288 . S
C1628 C2308 2.240 . S
C1089 C1681 2.288 . S
C1301 C1734 2.240 . S
C1787 C1354 2.288 1_565 S
C1840 C1407 2.240 . S
C1893 C1460 2.288 . S
C1946 C1513 2.240 . S
C1999 C1566 2.288 1_565 S
C1619 C2052 2.239 . S
C1672 C2105 2.288 . S
C1725 C2158 2.240 . S
C1937 C2211 2.240 . S
C1990 C2264 2.288 . S
C2317 C2043 2.240 . S
C2370 C824 2.288 1_455 S
C2423 C559 2.239 . S
C612 C2476 2.288 . S
C2529 C506 2.288 . S
C22 C1470 1.873 . S
C1311 C75 1.882 . S
C128 C1364 1.872 . S
C181 C1417 1.882 . S
C234 C304 1.873 . S
C357 C287 1.882 . S
C340 C410 1.873 . S
C393 C251 1.882 . S
C446 C2265 1.873 . S
C499 C2318 1.882 . S
C552 C1099 1.872 . S
C605 C2212 1.882 . S
C658 C2477 1.872 . S
C887 C711 1.882 . S
C764 C2530 1.872 . S
C2424 C817 1.882 . S
C516 C870 1.873 . S
C923 C2106 1.872 . S
C976 C1947 1.882 . S
C2000 C1029 1.873 . S
C1082 C781 1.882 . S
C1894 C1135 1.872 . S
C1735 C1188 1.882 . S
C1841 C1241 1.882 . S
C1294 C198 1.873 . S
C1347 C39 1.882 . S
C92 C1400 1.873 . S
C1453 C145 1.882 . S
C1506 C1576 1.872 . S
C1629 C1559 1.882 . S
C1682 C1612 1.872 . S
C1665 C1523 1.882 . S
C993 C1718 1.873 . S
C1771 C1046 1.882 . S
C1824 C2371 1.873 . S
C1877 C940 1.882 . S
C1930 C1205 1.873 . S
C1983 C2159 1.882 . S
C1258 C2036 1.873 . S
C2089 C1152 1.882 . S
C1788 C2142 1.873 . S
C834 C2195 1.873 . S
C675 C2248 1.882 . S
C2301 C728 1.872 . S
C2354 C2053 1.882 . S
C622 C2407 1.873 . S
C2460 C463 1.882 . S
C569 C2513 1.882 . S
