# Generated by pormake.
# Topology ula, (4)-cn, num edge types: 1
# Building blocks:
#     Node 0, Type 0, BuildingBlock: MUDLON_clean_sbu_0, # of connection points: 4
#     Node 1, Type 0, BuildingBlock: MUDLON_clean_sbu_0, # of connection points: 4
#     Node 2, Type 0, BuildingBlock: MUDLON_clean_sbu_0, # of connection points: 4
#     Node 3, Type 0, BuildingBlock: MUDLON_clean_sbu_0, # of connection points: 4
#     Node 4, Type 0, BuildingBlock: MUDLON_clean_sbu_0, # of connection points: 4
#     Node 5, Type 0, BuildingBlock: MUDLON_clean_sbu_0, # of connection points: 4
#     Node 6, Type 0, BuildingBlock: MUDLON_clean_sbu_0, # of connection points: 4
#     Node 7, Type 0, BuildingBlock: MUDLON_clean_sbu_0, # of connection points: 4
#     Node 8, Type 0, BuildingBlock: MUDLON_clean_sbu_0, # of connection points: 4
#     Node 9, Type 0, BuildingBlock: MUDLON_clean_sbu_0, # of connection points: 4
#     Node 10, Type 0, BuildingBlock: MUDLON_clean_sbu_0, # of connection points: 4
#     Node 11, Type 0, BuildingBlock: MUDLON_clean_sbu_0, # of connection points: 4
#     Node 12, Type 0, BuildingBlock: MUDLON_clean_sbu_0, # of connection points: 4
#     Node 13, Type 0, BuildingBlock: MUDLON_clean_sbu_0, # of connection points: 4
#     Node 14, Type 0, BuildingBlock: MUDLON_clean_sbu_0, # of connection points: 4
#     Node 15, Type 0, BuildingBlock: MUDLON_clean_sbu_0, # of connection points: 4
#     Node 16, Type 0, BuildingBlock: MUDLON_clean_sbu_0, # of connection points: 4
#     Node 17, Type 0, BuildingBlock: MUDLON_clean_sbu_0, # of connection points: 4
#     Node 18, Type 0, BuildingBlock: MUDLON_clean_sbu_0, # of connection points: 4
#     Node 19, Type 0, BuildingBlock: MUDLON_clean_sbu_0, # of connection points: 4
#     Node 20, Type 0, BuildingBlock: MUDLON_clean_sbu_0, # of connection points: 4
#     Node 21, Type 0, BuildingBlock: MUDLON_clean_sbu_0, # of connection points: 4
#     Node 22, Type 0, BuildingBlock: MUDLON_clean_sbu_0, # of connection points: 4
#     Node 23, Type 0, BuildingBlock: MUDLON_clean_sbu_0, # of connection points: 4
#     Node 24, Type 0, BuildingBlock: MUDLON_clean_sbu_0, # of connection points: 4
#     Node 25, Type 0, BuildingBlock: MUDLON_clean_sbu_0, # of connection points: 4
#     Node 26, Type 0, BuildingBlock: MUDLON_clean_sbu_0, # of connection points: 4
#     Node 27, Type 0, BuildingBlock: MUDLON_clean_sbu_0, # of connection points: 4
#     Node 28, Type 0, BuildingBlock: MUDLON_clean_sbu_0, # of connection points: 4
#     Node 29, Type 0, BuildingBlock: MUDLON_clean_sbu_0, # of connection points: 4
#     Node 30, Type 0, BuildingBlock: MUDLON_clean_sbu_0, # of connection points: 4
#     Node 31, Type 0, BuildingBlock: MUDLON_clean_sbu_0, # of connection points: 4
#     Node 32, Type 0, BuildingBlock: MUDLON_clean_sbu_0, # of connection points: 4
#     Node 33, Type 0, BuildingBlock: MUDLON_clean_sbu_0, # of connection points: 4
#     Node 34, Type 0, BuildingBlock: MUDLON_clean_sbu_0, # of connection points: 4
#     Node 35, Type 0, BuildingBlock: MUDLON_clean_sbu_0, # of connection points: 4
#     Node 36, Type 0, BuildingBlock: MUDLON_clean_sbu_0, # of connection points: 4
#     Node 37, Type 0, BuildingBlock: MUDLON_clean_sbu_0, # of connection points: 4
#     Node 38, Type 0, BuildingBlock: MUDLON_clean_sbu_0, # of connection points: 4
#     Node 39, Type 0, BuildingBlock: MUDLON_clean_sbu_0, # of connection points: 4
#     Node 40, Type 0, BuildingBlock: MUDLON_clean_sbu_0, # of connection points: 4
#     Node 41, Type 0, BuildingBlock: MUDLON_clean_sbu_0, # of connection points: 4
#     Node 42, Type 0, BuildingBlock: MUDLON_clean_sbu_0, # of connection points: 4
#     Node 43, Type 0, BuildingBlock: MUDLON_clean_sbu_0, # of connection points: 4
#     Node 44, Type 0, BuildingBlock: MUDLON_clean_sbu_0, # of connection points: 4
#     Node 45, Type 0, BuildingBlock: MUDLON_clean_sbu_0, # of connection points: 4
#     Node 46, Type 0, BuildingBlock: MUDLON_clean_sbu_0, # of connection points: 4
#     Node 47, Type 0, BuildingBlock: MUDLON_clean_sbu_0, # of connection points: 4
#     Node 48, Type 0, BuildingBlock: MUDLON_clean_sbu_0, # of connection points: 4
#     Node 49, Type 0, BuildingBlock: MUDLON_clean_sbu_0, # of connection points: 4
#     Node 50, Type 0, BuildingBlock: MUDLON_clean_sbu_0, # of connection points: 4
#     Node 51, Type 0, BuildingBlock: MUDLON_clean_sbu_0, # of connection points: 4
#     Node 52, Type 0, BuildingBlock: MUDLON_clean_sbu_0, # of connection points: 4
#     Node 53, Type 0, BuildingBlock: MUDLON_clean_sbu_0, # of connection points: 4
#     Node 54, Type 0, BuildingBlock: MUDLON_clean_sbu_0, # of connection points: 4
#     Node 55, Type 0, BuildingBlock: MUDLON_clean_sbu_0, # of connection points: 4
#     Node 56, Type 0, BuildingBlock: MUDLON_clean_sbu_0, # of connection points: 4
#     Node 57, Type 0, BuildingBlock: MUDLON_clean_sbu_0, # of connection points: 4
#     Node 58, Type 0, BuildingBlock: MUDLON_clean_sbu_0, # of connection points: 4
#     Node 59, Type 0, BuildingBlock: MUDLON_clean_sbu_0, # of connection points: 4
#     Node 60, Type 0, BuildingBlock: MUDLON_clean_sbu_0, # of connection points: 4
#     Node 61, Type 0, BuildingBlock: MUDLON_clean_sbu_0, # of connection points: 4
#     Node 62, Type 0, BuildingBlock: MUDLON_clean_sbu_0, # of connection points: 4
#     Node 63, Type 0, BuildingBlock: MUDLON_clean_sbu_0, # of connection points: 4
#     Node 64, Type 0, BuildingBlock: MUDLON_clean_sbu_0, # of connection points: 4
#     Node 65, Type 0, BuildingBlock: MUDLON_clean_sbu_0, # of connection points: 4
#     Node 66, Type 0, BuildingBlock: MUDLON_clean_sbu_0, # of connection points: 4
#     Node 67, Type 0, BuildingBlock: MUDLON_clean_sbu_0, # of connection points: 4
#     Node 68, Type 0, BuildingBlock: MUDLON_clean_sbu_0, # of connection points: 4
#     Node 69, Type 0, BuildingBlock: MUDLON_clean_sbu_0, # of connection points: 4
#     Node 70, Type 0, BuildingBlock: MUDLON_clean_sbu_0, # of connection points: 4
#     Node 71, Type 0, BuildingBlock: MUDLON_clean_sbu_0, # of connection points: 4
#     Node 72, Type 0, BuildingBlock: MUDLON_clean_sbu_0, # of connection points: 4
#     Node 73, Type 0, BuildingBlock: MUDLON_clean_sbu_0, # of connection points: 4
#     Node 74, Type 0, BuildingBlock: MUDLON_clean_sbu_0, # of connection points: 4
#     Node 75, Type 0, BuildingBlock: MUDLON_clean_sbu_0, # of connection points: 4
#     Node 76, Type 0, BuildingBlock: MUDLON_clean_sbu_0, # of connection points: 4
#     Node 77, Type 0, BuildingBlock: MUDLON_clean_sbu_0, # of connection points: 4
#     Node 78, Type 0, BuildingBlock: MUDLON_clean_sbu_0, # of connection points: 4
#     Node 79, Type 0, BuildingBlock: MUDLON_clean_sbu_0, # of connection points: 4
#     Node 80, Type 0, BuildingBlock: MUDLON_clean_sbu_0, # of connection points: 4
#     Node 81, Type 0, BuildingBlock: MUDLON_clean_sbu_0, # of connection points: 4
#     Node 82, Type 0, BuildingBlock: MUDLON_clean_sbu_0, # of connection points: 4
#     Node 83, Type 0, BuildingBlock: MUDLON_clean_sbu_0, # of connection points: 4
#     Node 84, Type 0, BuildingBlock: MUDLON_clean_sbu_0, # of connection points: 4
#     Node 85, Type 0, BuildingBlock: MUDLON_clean_sbu_0, # of connection points: 4
#     Node 86, Type 0, BuildingBlock: MUDLON_clean_sbu_0, # of connection points: 4
#     Node 87, Type 0, BuildingBlock: MUDLON_clean_sbu_0, # of connection points: 4
#     Node 88, Type 0, BuildingBlock: MUDLON_clean_sbu_0, # of connection points: 4
#     Node 89, Type 0, BuildingBlock: MUDLON_clean_sbu_0, # of connection points: 4
#     Node 90, Type 0, BuildingBlock: MUDLON_clean_sbu_0, # of connection points: 4
#     Node 91, Type 0, BuildingBlock: MUDLON_clean_sbu_0, # of connection points: 4
#     Node 92, Type 0, BuildingBlock: MUDLON_clean_sbu_0, # of connection points: 4
#     Node 93, Type 0, BuildingBlock: MUDLON_clean_sbu_0, # of connection points: 4
#     Node 94, Type 0, BuildingBlock: MUDLON_clean_sbu_0, # of connection points: 4
#     Node 95, Type 0, BuildingBlock: MUDLON_clean_sbu_0, # of connection points: 4
#     Edge 96, Type (0, 0), None
#     Edge 97, Type (0, 0), None
#     Edge 98, Type (0, 0), None
#     Edge 99, Type (0, 0), None
#     Edge 100, Type (0, 0), None
#     Edge 101, Type (0, 0), None
#     Edge 102, Type (0, 0), None
#     Edge 103, Type (0, 0), None
#     Edge 104, Type (0, 0), None
#     Edge 105, Type (0, 0), None
#     Edge 106, Type (0, 0), None
#     Edge 107, Type (0, 0), None
#     Edge 108, Type (0, 0), None
#     Edge 109, Type (0, 0), None
#     Edge 110, Type (0, 0), None
#     Edge 111, Type (0, 0), None
#     Edge 112, Type (0, 0), None
#     Edge 113, Type (0, 0), None
#     Edge 114, Type (0, 0), None
#     Edge 115, Type (0, 0), None
#     Edge 116, Type (0, 0), None
#     Edge 117, Type (0, 0), None
#     Edge 118, Type (0, 0), None
#     Edge 119, Type (0, 0), None
#     Edge 120, Type (0, 0), None
#     Edge 121, Type (0, 0), None
#     Edge 122, Type (0, 0), None
#     Edge 123, Type (0, 0), None
#     Edge 124, Type (0, 0), None
#     Edge 125, Type (0, 0), None
#     Edge 126, Type (0, 0), None
#     Edge 127, Type (0, 0), None
#     Edge 128, Type (0, 0), None
#     Edge 129, Type (0, 0), None
#     Edge 130, Type (0, 0), None
#     Edge 131, Type (0, 0), None
#     Edge 132, Type (0, 0), None
#     Edge 133, Type (0, 0), None
#     Edge 134, Type (0, 0), None
#     Edge 135, Type (0, 0), None
#     Edge 136, Type (0, 0), None
#     Edge 137, Type (0, 0), None
#     Edge 138, Type (0, 0), None
#     Edge 139, Type (0, 0), None
#     Edge 140, Type (0, 0), None
#     Edge 141, Type (0, 0), None
#     Edge 142, Type (0, 0), None
#     Edge 143, Type (0, 0), None
#     Edge 144, Type (0, 0), None
#     Edge 145, Type (0, 0), None
#     Edge 146, Type (0, 0), None
#     Edge 147, Type (0, 0), None
#     Edge 148, Type (0, 0), None
#     Edge 149, Type (0, 0), None
#     Edge 150, Type (0, 0), None
#     Edge 151, Type (0, 0), None
#     Edge 152, Type (0, 0), None
#     Edge 153, Type (0, 0), None
#     Edge 154, Type (0, 0), None
#     Edge 155, Type (0, 0), None
#     Edge 156, Type (0, 0), None
#     Edge 157, Type (0, 0), None
#     Edge 158, Type (0, 0), None
#     Edge 159, Type (0, 0), None
#     Edge 160, Type (0, 0), None
#     Edge 161, Type (0, 0), None
#     Edge 162, Type (0, 0), None
#     Edge 163, Type (0, 0), None
#     Edge 164, Type (0, 0), None
#     Edge 165, Type (0, 0), None
#     Edge 166, Type (0, 0), None
#     Edge 167, Type (0, 0), None
#     Edge 168, Type (0, 0), None
#     Edge 169, Type (0, 0), None
#     Edge 170, Type (0, 0), None
#     Edge 171, Type (0, 0), None
#     Edge 172, Type (0, 0), None
#     Edge 173, Type (0, 0), None
#     Edge 174, Type (0, 0), None
#     Edge 175, Type (0, 0), None
#     Edge 176, Type (0, 0), None
#     Edge 177, Type (0, 0), None
#     Edge 178, Type (0, 0), None
#     Edge 179, Type (0, 0), None
#     Edge 180, Type (0, 0), None
#     Edge 181, Type (0, 0), None
#     Edge 182, Type (0, 0), None
#     Edge 183, Type (0, 0), None
#     Edge 184, Type (0, 0), None
#     Edge 185, Type (0, 0), None
#     Edge 186, Type (0, 0), None
#     Edge 187, Type (0, 0), None
#     Edge 188, Type (0, 0), None
#     Edge 189, Type (0, 0), None
#     Edge 190, Type (0, 0), None
#     Edge 191, Type (0, 0), None
#     Edge 192, Type (0, 0), None
#     Edge 193, Type (0, 0), None
#     Edge 194, Type (0, 0), None
#     Edge 195, Type (0, 0), None
#     Edge 196, Type (0, 0), None
#     Edge 197, Type (0, 0), None
#     Edge 198, Type (0, 0), None
#     Edge 199, Type (0, 0), None
#     Edge 200, Type (0, 0), None
#     Edge 201, Type (0, 0), None
#     Edge 202, Type (0, 0), None
#     Edge 203, Type (0, 0), None
#     Edge 204, Type (0, 0), None
#     Edge 205, Type (0, 0), None
#     Edge 206, Type (0, 0), None
#     Edge 207, Type (0, 0), None
#     Edge 208, Type (0, 0), None
#     Edge 209, Type (0, 0), None
#     Edge 210, Type (0, 0), None
#     Edge 211, Type (0, 0), None
#     Edge 212, Type (0, 0), None
#     Edge 213, Type (0, 0), None
#     Edge 214, Type (0, 0), None
#     Edge 215, Type (0, 0), None
#     Edge 216, Type (0, 0), None
#     Edge 217, Type (0, 0), None
#     Edge 218, Type (0, 0), None
#     Edge 219, Type (0, 0), None
#     Edge 220, Type (0, 0), None
#     Edge 221, Type (0, 0), None
#     Edge 222, Type (0, 0), None
#     Edge 223, Type (0, 0), None
#     Edge 224, Type (0, 0), None
#     Edge 225, Type (0, 0), None
#     Edge 226, Type (0, 0), None
#     Edge 227, Type (0, 0), None
#     Edge 228, Type (0, 0), None
#     Edge 229, Type (0, 0), None
#     Edge 230, Type (0, 0), None
#     Edge 231, Type (0, 0), None
#     Edge 232, Type (0, 0), None
#     Edge 233, Type (0, 0), None
#     Edge 234, Type (0, 0), None
#     Edge 235, Type (0, 0), None
#     Edge 236, Type (0, 0), None
#     Edge 237, Type (0, 0), None
#     Edge 238, Type (0, 0), None
#     Edge 239, Type (0, 0), None
#     Edge 240, Type (0, 0), None
#     Edge 241, Type (0, 0), None
#     Edge 242, Type (0, 0), None
#     Edge 243, Type (0, 0), None
#     Edge 244, Type (0, 0), None
#     Edge 245, Type (0, 0), None
#     Edge 246, Type (0, 0), None
#     Edge 247, Type (0, 0), None
#     Edge 248, Type (0, 0), None
#     Edge 249, Type (0, 0), None
#     Edge 250, Type (0, 0), None
#     Edge 251, Type (0, 0), None
#     Edge 252, Type (0, 0), None
#     Edge 253, Type (0, 0), None
#     Edge 254, Type (0, 0), None
#     Edge 255, Type (0, 0), None
#     Edge 256, Type (0, 0), None
#     Edge 257, Type (0, 0), None
#     Edge 258, Type (0, 0), None
#     Edge 259, Type (0, 0), None
#     Edge 260, Type (0, 0), None
#     Edge 261, Type (0, 0), None
#     Edge 262, Type (0, 0), None
#     Edge 263, Type (0, 0), None
#     Edge 264, Type (0, 0), None
#     Edge 265, Type (0, 0), None
#     Edge 266, Type (0, 0), None
#     Edge 267, Type (0, 0), None
#     Edge 268, Type (0, 0), None
#     Edge 269, Type (0, 0), None
#     Edge 270, Type (0, 0), None
#     Edge 271, Type (0, 0), None
#     Edge 272, Type (0, 0), None
#     Edge 273, Type (0, 0), None
#     Edge 274, Type (0, 0), None
#     Edge 275, Type (0, 0), None
#     Edge 276, Type (0, 0), None
#     Edge 277, Type (0, 0), None
#     Edge 278, Type (0, 0), None
#     Edge 279, Type (0, 0), None
#     Edge 280, Type (0, 0), None
#     Edge 281, Type (0, 0), None
#     Edge 282, Type (0, 0), None
#     Edge 283, Type (0, 0), None
#     Edge 284, Type (0, 0), None
#     Edge 285, Type (0, 0), None
#     Edge 286, Type (0, 0), None
#     Edge 287, Type (0, 0), None
# Relax obj value: 0.032
# Max RMSD: 0.045
# Mean RMSD: 0.045
data_MOF--net-ula--node1-MUDLON_clean_sbu_0--edge1-none
_symmetry_space_group_name_H-M    P1
_symmetry_Int_Tables_number       1
_symmetry_cell_setting            triclinic
loop_
_symmetry_equiv_pos_as_xyz
'x, y, z'
_cell_length_a     33.662049
_cell_length_b     31.897937
_cell_length_c     31.895379
_cell_angle_alpha  90.149081
_cell_angle_beta   90.087568
_cell_angle_gamma 90.039893
loop_
_atom_site_label
_atom_site_type_symbol
_atom_site_fract_x
_atom_site_fract_y
_atom_site_fract_z
_atom_type_partial_charge
Mg0 Mg 0.03204 0.11717 0.36789 0.0
C1 C 0.11201 0.08775 0.33324 0.0
O2 O 0.09166 0.07582 0.3002 0.0
C3 C 0.96027 0.08771 0.41177 0.0
O4 O 0.94473 0.10612 0.37882 0.0
C5 C 1.0031 0.05549 0.30637 0.0
O6 O 1.00792 1.0329 0.34035 0.0
O7 O 1.00817 0.09514 0.30841 0.0
O8 O 0.09444 0.10198 0.36552 0.0
O9 O 0.0312 0.18143 0.39301 0.0
C10 C 0.06345 0.19702 0.40744 0.0
O11 O 0.09745 0.18157 0.39467 0.0
O12 O 0.99787 0.08504 0.4151 0.0
Mg13 Mg 0.18449 0.79315 0.61514 0.0
C14 C 0.1565 0.8662 0.56016 0.0
O15 O 0.19352 0.86443 0.54761 0.0
C16 C 0.20434 0.70089 0.61954 0.0
O17 O 0.23907 0.71444 0.60676 0.0
C18 C 0.24228 0.79028 0.54545 0.0
O19 O 0.20913 0.78099 0.52573 0.0
O20 O 0.24158 0.79845 0.58454 0.0
O21 O 0.14331 0.83768 0.58456 0.0
O22 O 0.18068 0.81303 0.68117 0.0
C23 C 0.17104 0.78912 0.71163 0.0
O24 O 0.16752 0.74862 0.70556 0.0
O25 O 0.17461 0.72577 0.61901 0.0
Mg26 Mg 0.49152 0.94857 0.8549 0.0
C27 C 0.4055 0.97968 0.84974 0.0
O28 O 0.41699 1.00941 0.87563 0.0
C29 C 0.55455 0.98478 0.90553 0.0
O30 O 0.57324 0.9666 0.87428 0.0
C31 C 0.51781 1.01594 0.79976 0.0
O32 O 0.50703 1.03522 0.83432 0.0
O33 O 0.51863 0.97583 0.79919 0.0
O34 O 0.43026 0.95297 0.83685 0.0
O35 O 0.49303 0.88705 0.88638 0.0
C36 C 0.46058 0.87362 0.90253 0.0
O37 O 0.42671 0.88874 0.88904 0.0
O38 O 0.51669 0.98534 0.90555 0.0
Mg39 Mg 0.33893 0.28159 0.1182 0.0
C40 C 0.36743 0.2109 0.05956 0.0
O41 O 0.33084 0.21356 0.04573 0.0
C42 C 0.31775 0.37382 0.12302 0.0
O43 O 0.28309 0.36026 0.10991 0.0
C44 C 0.28023 0.28632 0.04975 0.0
O45 O 0.3131 0.29742 1.03061 0.0
O46 O 0.28133 0.27605 0.0883 0.0
O47 O 0.38005 0.2381 0.08592 0.0
O48 O 0.34526 0.26196 0.18415 0.0
C49 C 0.35653 0.28604 0.21406 0.0
O50 O 0.36039 0.32641 0.2076 0.0
O51 O 0.34753 0.34904 0.12259 0.0
Mg52 Mg 0.02929 0.97424 0.20278 0.0
C53 C 0.11157 0.98099 0.23259 0.0
O54 O 0.0958 0.95427 0.25905 0.0
C55 C 0.95382 0.99655 0.16097 0.0
O56 O 0.94037 0.97786 0.19473 0.0
C57 C 1.00262 1.03434 0.26549 0.0
O58 O 1.00667 0.05691 0.23139 0.0
O59 O 1.00713 0.99466 0.26323 0.0
O60 O 0.08972 0.99741 0.20447 0.0
O61 O 0.03262 0.9093 0.17863 0.0
C62 C 0.0644 0.89976 0.15894 0.0
O63 O 0.0946 0.92543 0.16131 0.0
O64 O 0.99099 1.00247 0.15678 0.0
Mg65 Mg 0.3396 0.79128 0.45615 0.0
C66 C 0.36672 0.86357 0.51338 0.0
O67 O 0.32964 0.86156 0.52565 0.0
C68 C 0.31832 0.6984 0.45464 0.0
O69 O 0.28406 0.71148 0.46919 0.0
C70 C 0.27985 0.78933 0.52289 0.0
O71 O 0.31238 0.77806 0.54265 0.0
O72 O 0.28138 0.79832 0.48405 0.0
O73 O 0.38014 0.83538 0.48862 0.0
O74 O 0.34798 0.80992 0.3903 0.0
C75 C 0.36029 0.78565 0.36109 0.0
O76 O 0.36405 0.74535 0.368 0.0
O77 O 0.34773 0.72368 0.45339 0.0
Mg78 Mg 0.48584 0.1066 0.70426 0.0
C79 C 0.40544 0.08112 0.7403 0.0
O80 O 0.42627 0.06713 0.77211 0.0
C81 C 0.5562 0.08136 0.65655 0.0
O82 O 0.57182 0.09881 0.69008 0.0
C83 C 0.51803 0.03999 0.76053 0.0
O84 O 0.51615 1.01971 0.72471 0.0
O85 O 0.51034 0.07925 0.76139 0.0
O86 O 0.42269 0.09474 0.70761 0.0
O87 O 0.48838 0.17225 0.68321 0.0
C88 C 0.45657 0.18979 0.67001 0.0
O89 O 0.42216 0.17574 0.68311 0.0
O90 O 0.51862 0.07742 0.65394 0.0
Mg91 Mg 0.1831 0.29061 0.95931 0.0
C92 C 0.1559 0.21542 1.01162 0.0
O93 O 0.19317 0.2166 1.02345 0.0
C94 C 0.2067 0.38135 0.95912 0.0
O95 O 0.24138 0.36381 0.96569 0.0
C96 C 0.24252 0.28845 1.02737 0.0
O97 O 0.21009 0.29884 0.04774 0.0
O98 O 0.24089 0.28152 0.98806 0.0
O99 O 0.14221 0.2451 0.98894 0.0
O100 O 0.17624 0.27375 0.89272 0.0
C101 C 0.16558 0.29825 0.86308 0.0
O102 O 0.16278 0.33874 0.86986 0.0
O103 O 0.17547 0.35862 0.96002 0.0
Mg104 Mg 0.36805 0.07627 0.05654 0.0
C105 C 0.38768 0.17013 0.0555 0.0
O106 O 0.4144 0.15987 0.08367 0.0
C107 C 0.39681 0.991 0.04417 0.0
O108 O 0.3842 0.99219 0.0831 0.0
C109 C 0.28366 0.06452 1.02783 0.0
O110 O 0.30139 0.06894 0.99146 0.0
O111 O 0.30439 0.06463 0.0613 0.0
O112 O 0.37033 0.14125 1.03456 0.0
O113 O 0.3978 0.07702 0.11682 0.0
C114 C 0.4348 0.06901 0.11691 0.0
O115 O 0.45252 0.05913 0.0816 0.0
O116 O 0.39395 1.02389 1.02174 0.0
Mg117 Mg 0.23608 0.11774 0.36598 0.0
C118 C 0.15525 0.08819 0.33218 0.0
O119 O 0.17484 0.05748 0.3143 0.0
C120 C 0.30874 0.16093 0.33773 0.0
O121 O 0.32378 0.12775 0.35615 0.0
C122 C 0.26421 0.05592 0.304 0.0
O123 O 0.26107 0.09021 0.28157 0.0
O124 O 0.25832 0.05782 0.34352 0.0
O125 O 0.17355 0.11745 0.35119 0.0
O126 O 0.23762 0.14184 0.43056 0.0
C127 C 0.20553 0.15605 0.44657 0.0
O128 O 0.17138 0.1428 0.43178 0.0
O129 O 0.27121 0.1646 0.33455 0.0
Mg130 Mg 0.15477 1.00105 0.56116 0.0
C131 C 0.13607 0.90695 0.55724 0.0
O132 O 0.10894 0.91623 0.58529 0.0
C133 C 0.12658 0.08655 0.5492 0.0
O134 O 0.13862 0.0852 0.58836 0.0
C135 C 0.23932 1.01431 0.53575 0.0
O136 O 0.22216 1.01109 0.49888 0.0
O137 O 0.21807 1.01294 0.56872 0.0
O138 O 0.15351 0.93651 0.53758 0.0
O139 O 0.12306 0.99963 0.62001 0.0
C140 C 0.08615 1.00785 0.61847 0.0
O141 O 0.06979 1.0179 0.58248 0.0
O142 O 0.12977 0.05378 0.52648 0.0
Mg143 Mg 0.27758 0.97126 0.87344 0.0
C144 C 0.36334 0.97136 0.84284 0.0
O145 O 0.35196 0.93943 0.81966 0.0
C146 C 0.21385 0.92029 0.83887 0.0
O147 O 0.19534 0.9516 0.85717 0.0
C148 C 0.24971 1.02624 0.80697 0.0
O149 O 0.26034 0.99173 0.7875 0.0
O150 O 0.24941 1.02675 0.84708 0.0
O151 O 0.33845 0.9898 0.86591 0.0
O152 O 0.27768 0.94073 0.93548 0.0
C153 C 0.3103 0.9245 0.94836 0.0
O154 O 0.34387 0.93708 0.93181 0.0
O155 O 0.25169 0.92037 0.83763 0.0
Mg156 Mg 0.36729 0.99825 0.5129 0.0
C157 C 0.38689 0.90444 0.51684 0.0
O158 O 0.41433 0.91396 0.48925 0.0
C159 C 0.39626 0.08344 0.52598 0.0
O160 O 0.38499 0.08242 0.48655 0.0
C161 C 0.28288 1.01406 0.53881 0.0
O162 O 0.30007 1.01274 0.57578 0.0
O163 O 0.304 1.01045 0.5059 0.0
O164 O 0.36889 0.93384 0.53627 0.0
O165 O 0.39806 0.99664 0.45345 0.0
C166 C 0.43503 1.00474 0.45397 0.0
O167 O 0.45225 1.01518 0.48946 0.0
O168 O 0.39252 0.05053 0.5482 0.0
Mg169 Mg 0.28245 0.12178 0.71705 0.0
C170 C 0.36237 0.08484 0.74351 0.0
O171 O 0.34116 0.05364 0.75815 0.0
C172 C 0.21248 0.16981 0.74284 0.0
O173 O 0.19663 0.13647 0.72527 0.0
C174 C 0.24953 0.06555 0.78308 0.0
O175 O 0.2517 0.10124 0.80353 0.0
O176 O 0.25728 0.06479 0.74383 0.0
O177 O 0.34553 0.11747 0.72914 0.0
O178 O 0.28017 0.14332 0.65157 0.0
C179 C 0.31211 0.15649 0.63432 0.0
O180 O 0.34641 0.1432 0.64856 0.0
O181 O 0.25009 0.1722 0.74659 0.0
Mg182 Mg 0.15578 0.0807 1.00454 0.0
C183 C 0.13578 0.17442 1.01279 0.0
O184 O 0.10834 0.16621 0.98467 0.0
C185 C 0.12507 0.99516 1.01553 0.0
O186 O 0.13307 0.99685 0.97529 0.0
C187 C 0.24003 0.06463 1.03005 0.0
O188 O 0.22239 0.06455 0.06675 0.0
O189 O 0.21922 0.06927 0.99697 0.0
O190 O 0.15392 0.14417 1.03064 0.0
O191 O 0.1231 0.0837 0.94625 0.0
C192 C 0.08602 0.0765 0.94865 0.0
O193 O 0.0703 0.06672 0.98499 0.0
O194 O 0.1316 1.02727 0.03842 0.0
Mg195 Mg 0.23686 0.95314 0.22191 0.0
C196 C 0.15479 0.98378 0.22906 0.0
O197 O 0.17062 1.01054 0.20268 0.0
C198 C 0.31184 0.91108 0.24461 0.0
O199 O 0.32538 0.94498 0.22623 0.0
C200 C 0.26379 1.01518 0.28258 0.0
O201 O 0.25875 0.98105 0.30489 0.0
O202 O 0.25967 1.01324 0.24282 0.0
O203 O 0.17641 0.9551 0.24479 0.0
O204 O 0.23394 0.9292 0.15691 0.0
C205 C 0.20229 0.90941 0.14693 0.0
O206 O 0.17171 0.91195 0.17202 0.0
O207 O 0.27465 0.90679 0.25024 0.0
Mg208 Mg 0.08654 0.36297 0.03965 0.0
C209 C 0.1141 0.30839 0.11348 0.0
O210 O 0.07715 0.29562 0.11155 0.0
C211 C 0.0635 0.36515 0.94859 0.0
O212 O 0.0288 0.35716 0.96545 0.0
C213 C 0.02669 0.29505 0.03956 0.0
O214 O 0.0589 0.27446 1.02885 0.0
O215 O 0.02875 0.33411 0.04761 0.0
O216 O 0.12741 0.33255 0.08479 0.0
O217 O 0.09242 0.42935 0.05775 0.0
C218 C 0.10209 0.45954 1.03351 0.0
O219 O 0.10461 0.4533 0.99291 0.0
O220 O 0.09454 0.36404 0.97166 0.0
Mg221 Mg 0.58391 0.21015 1.0325 0.0
C222 C 0.61191 0.26497 0.95942 0.0
O223 O 0.57481 0.27733 0.96101 0.0
C224 C 0.56445 0.20568 0.12482 0.0
O225 O 0.52971 0.21865 0.11143 0.0
C226 C 0.52646 0.28039 1.03541 0.0
O227 O 0.55974 0.29997 0.04443 0.0
O228 O 0.52695 0.24125 1.02744 0.0
O229 O 0.62513 0.24063 0.988 0.0
O230 O 0.58737 0.14408 1.01251 0.0
C231 C 0.59731 0.11362 1.03632 0.0
O232 O 0.60141 0.11976 0.07676 0.0
O233 O 0.59408 0.20615 0.09984 0.0
Mg234 Mg 0.11519 0.31025 0.24863 0.0
C235 C 0.13422 0.30603 0.15449 0.0
O236 O 0.16131 0.3342 0.16374 0.0
C237 C 0.14329 0.29806 0.3342 0.0
O238 O 0.13158 0.33731 0.33282 0.0
C239 C 0.03031 0.2856 0.26299 0.0
O240 O 0.04701 0.24847 0.26078 0.0
O241 O 0.05192 0.31829 0.26049 0.0
O242 O 0.11656 0.28663 0.18408 0.0
O243 O 0.14731 0.36893 0.24735 0.0
C244 C 0.1842 0.36732 0.25575 0.0
O245 O 0.20041 0.33131 0.2659 0.0
O246 O 0.13992 0.27538 0.30141 0.0
Mg247 Mg 0.93222 0.86758 0.53324 0.0
C248 C 0.90307 0.80936 0.46246 0.0
O249 O 0.9396 0.79537 0.46492 0.0
C250 C 0.95466 0.8728 0.62507 0.0
O251 O 0.98947 0.86122 0.61069 0.0
C252 C 0.99078 0.79945 0.53706 0.0
O253 O 0.95801 0.7805 0.54883 0.0
O254 O 0.98973 0.83797 0.52675 0.0
O255 O 0.89068 0.83548 0.48994 0.0
O256 O 0.9256 0.93344 0.51375 0.0
C257 C 0.91358 0.96305 0.53771 0.0
O258 O 0.90906 0.95633 0.57797 0.0
O259 O 0.92446 0.8715 0.60082 0.0
Mg260 Mg 0.90176 0.26375 0.24916 0.0
C261 C 0.88164 0.26785 0.1554 0.0
O262 O 0.85421 0.24024 0.16499 0.0
C263 C 0.87438 0.27645 0.33483 0.0
O264 O 0.88633 0.23729 0.3335 0.0
C265 C 0.98676 0.28913 0.26309 0.0
O266 O 0.97001 0.32624 0.26092 0.0
O267 O 0.96518 0.25639 0.26073 0.0
O268 O 0.8998 0.28727 0.18478 0.0
O269 O 0.87057 0.20442 0.24773 0.0
C270 C 0.83379 0.20475 0.25669 0.0
O271 O 0.81676 0.24009 0.2678 0.0
O272 O 0.87715 0.29881 0.30191 0.0
Mg273 Mg 0.43047 0.70769 0.54361 0.0
C274 C 0.40209 0.76633 0.61429 0.0
O275 O 0.43874 0.77996 0.61174 0.0
C276 C 0.45195 0.70318 0.45142 0.0
O277 O 0.48662 0.71603 0.4652 0.0
C278 C 0.4894 0.77568 0.5393 0.0
O279 O 0.45663 0.79494 0.528 0.0
O280 O 0.48817 0.73714 0.54953 0.0
O281 O 0.38939 0.74011 0.58701 0.0
O282 O 0.42384 0.64179 0.5631 0.0
C283 C 0.41264 0.61193 0.53895 0.0
O284 O 0.40903 0.61839 0.49855 0.0
O285 O 0.4221 0.70363 0.47608 0.0
Mg286 Mg 0.114 0.7555 0.329 0.0
C287 C 0.13426 0.76338 0.42252 0.0
O288 O 0.16173 0.73546 0.41403 0.0
C289 C 0.14422 0.76601 0.24341 0.0
O290 O 0.13519 0.726 0.24512 0.0
C291 C 0.02988 0.78194 0.31441 0.0
O292 O 0.04782 0.8185 0.3154 0.0
O293 O 0.05045 0.74859 0.31777 0.0
O294 O 0.1162 0.78157 0.39242 0.0
O295 O 0.14594 0.6968 0.33199 0.0
C296 C 0.18297 0.69867 0.32446 0.0
O297 O 0.19911 0.73476 0.3144 0.0
O298 O 0.13848 0.78904 0.27557 0.0
Mg299 Mg 0.4016 0.31317 0.82713 0.0
C300 C 0.38204 0.30959 0.92092 0.0
O301 O 0.35472 0.3373 0.91127 0.0
C302 C 0.37296 0.3001 0.74186 0.0
O303 O 0.38442 0.33945 0.74294 0.0
C304 C 0.48595 0.28703 0.81144 0.0
O305 O 0.4687 0.25012 0.81275 0.0
O306 O 0.4649 0.32 0.81502 0.0
O307 O 0.39994 0.28995 0.8916 0.0
O308 O 0.37088 0.37268 0.82858 0.0
C309 C 0.33391 0.3722 0.82047 0.0
O310 O 0.31668 0.33673 0.81002 0.0
O311 O 0.37642 0.27788 0.7748 0.0
Mg312 Mg 0.98827 0.97747 0.70012 0.0
C313 C 0.90651 0.98738 0.7322 0.0
O314 O 0.92201 0.96187 0.76003 0.0
C315 C 0.06088 0.99987 0.6547 0.0
O316 O 0.07549 0.98055 0.6876 0.0
C317 C 0.01889 1.03395 0.76334 0.0
O318 O 0.01422 0.05804 0.73037 0.0
O319 O 0.01338 0.99464 0.75966 0.0
O320 O 0.92829 1.00149 0.7029 0.0
O321 O 0.98563 0.91225 0.67918 0.0
C322 C 0.95346 0.90161 0.66097 0.0
O323 O 0.92277 0.92648 0.66412 0.0
O324 O 0.02369 1.00592 0.65204 0.0
Mg325 Mg 0.84148 0.28759 0.46957 0.0
C326 C 0.90216 0.22117 0.49624 0.0
O327 O 0.92053 0.23393 0.46228 0.0
C328 C 0.81128 0.37786 0.4675 0.0
O329 O 0.77705 0.35851 0.47119 0.0
C330 C 0.77878 0.27038 0.52802 0.0
O331 O 0.8102 0.27442 0.55205 0.0
O332 O 0.78229 0.27327 0.48848 0.0
O333 O 0.87294 0.24238 0.50982 0.0
O334 O 0.85476 0.26872 0.4055 0.0
C335 C 0.85927 0.2934 0.37455 0.0
O336 O 0.85307 0.33378 0.3791 0.0
O337 O 0.84341 0.3567 0.4709 0.0
Mg338 Mg 0.53063 0.10206 0.2014 0.0
C339 C 0.61204 0.0934 0.23482 0.0
O340 O 0.59631 0.12025 0.26129 0.0
C341 C 0.45876 0.07756 0.15419 0.0
O342 O 0.44284 0.09691 0.18644 0.0
C343 C 0.50098 0.04639 0.26529 0.0
O344 O 0.50613 1.02198 0.23252 0.0
O345 O 0.50554 0.08578 0.2612 0.0
O346 O 0.59062 0.07819 0.20563 0.0
O347 O 0.53364 0.16697 0.1795 0.0
C348 C 0.56556 0.1765 0.16034 0.0
O349 O 0.59551 0.15058 0.16253 0.0
O350 O 0.49614 0.07233 0.15287 0.0
Mg351 Mg 0.67891 0.79305 0.9641 0.0
C352 C 0.61448 0.85497 0.99256 0.0
O353 O 0.59617 0.84098 0.95893 0.0
C354 C 0.70621 0.70163 0.95564 0.0
O355 O 0.74083 0.71714 0.96662 0.0
C356 C 0.73946 0.80275 1.02699 0.0
O357 O 0.70685 0.79888 0.04908 0.0
O358 O 0.73757 0.80319 0.98721 0.0
O359 O 0.64553 0.8361 1.00507 0.0
O360 O 0.66839 0.81578 0.90073 0.0
C361 C 0.65886 0.79162 0.87045 0.0
O362 O 0.65803 0.7509 0.87596 0.0
O363 O 0.67514 0.72453 0.95879 0.0
Mg364 Mg 0.98652 0.10688 0.86865 0.0
C365 C 0.90558 0.09729 0.83568 0.0
O366 O 0.92096 0.12555 0.81059 0.0
C367 C 0.06007 0.08487 0.91298 0.0
O368 O 0.07412 0.1044 0.87996 0.0
C369 C 0.01876 0.05293 0.80501 0.0
O370 O 0.01472 1.02859 0.83788 0.0
O371 O 0.01232 0.09207 0.80888 0.0
O372 O 0.9274 0.08077 0.86371 0.0
O373 O 0.98057 0.17111 0.8919 0.0
C374 C 0.94912 0.17705 0.91327 0.0
O375 O 0.92186 0.14784 0.91289 0.0
O376 O 0.02294 0.07861 0.91615 0.0
Mg377 Mg 0.67657 0.28606 0.60476 0.0
C378 C 0.61611 0.21946 0.57728 0.0
O379 O 0.59795 0.23172 0.6116 0.0
C380 C 0.70654 0.37665 0.60585 0.0
O381 O 0.74089 0.35771 0.60151 0.0
C382 C 0.73968 0.26984 0.54692 0.0
O383 O 0.70825 0.2737 0.52291 0.0
O384 O 0.73604 0.27212 0.5865 0.0
O385 O 0.64535 0.2408 0.56398 0.0
O386 O 0.66242 0.26787 0.66877 0.0
C387 C 0.65771 0.29291 0.69955 0.0
O388 O 0.6644 0.33317 0.6949 0.0
O389 O 0.67456 0.35512 0.60307 0.0
Mg390 Mg 0.53145 0.97095 0.3712 0.0
C391 C 0.61398 0.97924 0.34163 0.0
O392 O 0.59865 0.95477 0.31263 0.0
C393 C 0.45944 0.99579 0.41724 0.0
O394 O 0.44385 0.97629 0.38483 0.0
C395 C 0.50128 1.0278 0.30712 0.0
O396 O 0.50471 0.05235 0.34005 0.0
O397 O 0.50774 0.98869 0.31106 0.0
O398 O 0.59199 0.99272 0.37104 0.0
O399 O 0.53142 0.9058 0.39195 0.0
C400 C 0.56357 0.889 0.40469 0.0
O401 O 0.59753 0.90426 0.39187 0.0
O402 O 0.49679 1.00095 0.41917 0.0
Mg403 Mg 0.83937 0.78609 0.10781 0.0
C404 C 0.89836 0.85483 0.08154 0.0
O405 O 0.91698 0.8429 0.11569 0.0
C406 C 0.8122 0.69485 0.11045 0.0
O407 O 0.77749 0.71281 0.10517 0.0
C408 C 0.77777 0.80054 0.04771 0.0
O409 O 0.80993 0.79586 1.02503 0.0
O410 O 0.78 0.79836 0.08744 0.0
O411 O 0.86985 0.83252 0.06787 0.0
O412 O 0.85195 0.80528 0.17203 0.0
C413 C 0.85681 0.78046 0.20285 0.0
O414 O 0.85095 0.74005 0.19803 0.0
O415 O 0.84372 0.7171 0.10734 0.0
Mg416 Mg 0.64337 0.98711 1.00616 0.0
C417 C 0.5769 0.99622 0.94328 0.0
O418 O 0.55752 1.0059 0.97766 0.0
C419 C 0.73008 0.9938 1.03756 0.0
O420 O 0.71264 0.98933 0.07407 0.0
C421 C 0.61059 0.07377 1.01752 0.0
O422 O 0.61893 0.07294 0.97734 0.0
O423 O 0.61764 0.04126 0.03976 0.0
O424 O 0.61413 0.98891 0.94508 0.0
O425 O 0.63465 0.92011 1.02265 0.0
C426 C 0.60645 0.89836 1.00676 0.0
O427 O 0.57563 0.91773 0.9908 0.0
O428 O 0.70883 0.995 1.00428 0.0
Mg429 Mg 0.78233 0.95747 0.71916 0.0
C430 C 0.86336 0.99046 0.72829 0.0
O431 O 0.84797 1.0153 0.69979 0.0
C432 C 0.70916 0.91267 0.74123 0.0
O433 O 0.6949 0.9456 0.7217 0.0
C434 C 0.74999 1.02089 0.77339 0.0
O435 O 0.75426 0.98802 0.79769 0.0
O436 O 0.75629 1.01707 0.73422 0.0
O437 O 0.84156 0.96259 0.74505 0.0
O438 O 0.78796 0.9344 0.65482 0.0
C439 C 0.81942 0.91306 0.6488 0.0
O440 O 0.84668 0.91337 0.67803 0.0
O441 O 0.74632 0.90972 0.7475 0.0
Mg442 Mg 0.86772 0.08972 0.50741 0.0
C443 C 0.93523 0.07821 0.44792 0.0
O444 O 0.95229 0.06856 0.48367 0.0
C445 C 0.78024 0.08114 0.53598 0.0
O446 O 0.79677 0.08198 0.57329 0.0
C447 C 0.89901 1.00243 0.51916 0.0
O448 O 0.89035 1.00295 0.47903 0.0
O449 O 0.89226 1.03515 0.54136 0.0
O450 O 0.89825 0.08686 0.44723 0.0
O451 O 0.87813 0.15664 0.52419 0.0
C452 C 0.90776 0.17724 0.50987 0.0
O453 O 0.93827 0.15664 0.49484 0.0
O454 O 0.80228 0.08282 0.5034 0.0
Mg455 Mg 0.73734 0.121 0.22512 0.0
C456 C 0.65522 0.0893 0.23243 0.0
O457 O 0.67089 0.06236 0.206 0.0
C458 C 0.80927 0.1679 0.24824 0.0
O459 O 0.82444 0.13577 0.22802 0.0
C460 C 0.76786 0.05721 0.28111 0.0
O461 O 0.76341 0.09002 0.30561 0.0
O462 O 0.76226 0.0612 0.24184 0.0
O463 O 0.67701 0.11787 0.2482 0.0
O464 O 0.7353 0.14264 0.16006 0.0
C465 C 0.70307 0.1605 0.14919 0.0
O466 O 0.67218 0.15671 0.1736 0.0
O467 O 0.77208 0.16938 0.25466 0.0
Mg468 Mg 0.64884 0.0882 0.56062 0.0
C469 C 0.58101 0.07405 0.61965 0.0
O470 O 0.56382 0.06553 0.58363 0.0
C471 C 0.73635 0.08115 0.53213 0.0
O472 O 0.71984 0.08371 0.4949 0.0
C473 C 0.61902 1.00137 0.54647 0.0
O474 O 0.62904 1.00159 0.58627 0.0
O475 O 0.62449 1.03454 0.52474 0.0
O476 O 0.61791 0.08317 0.6205 0.0
O477 O 0.63891 0.15563 0.54637 0.0
C478 C 0.6099 0.17595 0.56239 0.0
O479 O 0.57966 0.15508 0.57763 0.0
O480 O 0.71426 0.08121 0.56473 0.0
Mg481 Mg 0.73868 0.95112 0.35601 0.0
C482 C 0.657 0.98226 0.34605 0.0
O483 O 0.6724 1.01048 0.37137 0.0
C484 C 0.8111 0.90527 0.33082 0.0
O485 O 0.82692 0.93779 0.34991 0.0
C486 C 0.76811 1.01538 0.2997 0.0
O487 O 0.76405 0.9825 0.27518 0.0
O488 O 0.76259 1.01133 0.33895 0.0
O489 O 0.67861 0.95243 0.33277 0.0
O490 O 0.73711 0.92978 0.42099 0.0
C491 C 0.70464 0.91633 0.43649 0.0
O492 O 0.67103 0.92768 0.41928 0.0
O493 O 0.77368 0.90329 0.32616 0.0
Mg494 Mg 0.86092 0.98571 0.06615 0.0
C495 C 0.9278 1.00208 0.12471 0.0
O496 O 0.944 1.0101 0.08818 0.0
C497 C 0.77406 0.99453 1.03517 0.0
O498 O 0.79156 0.99566 0.99843 0.0
C499 C 0.88998 0.07339 0.05331 0.0
O500 O 0.87906 0.07349 0.09281 0.0
O501 O 0.88506 0.04006 1.03143 0.0
O502 O 0.89119 0.99185 0.12642 0.0
O503 O 0.87296 0.91831 0.05209 0.0
C504 C 0.90279 0.89889 0.06763 0.0
O505 O 0.93242 0.92069 0.08308 0.0
O506 O 0.79527 0.9916 0.06836 0.0
Mg507 Mg 0.78083 0.12579 0.84849 0.0
C508 C 0.86243 0.09347 0.8388 0.0
O509 O 0.84696 0.06611 0.86481 0.0
C510 C 0.70811 0.17111 0.82596 0.0
O511 O 0.69354 0.13818 0.84523 0.0
C512 C 0.74982 0.06257 0.79238 0.0
O513 O 0.75434 0.09552 0.76825 0.0
O514 O 0.75554 0.06626 0.83167 0.0
O515 O 0.84065 0.12255 0.82419 0.0
O516 O 0.78412 0.14703 0.91361 0.0
C517 C 0.81614 0.16598 0.92343 0.0
O518 O 0.8462 0.16372 0.89764 0.0
O519 O 0.74531 0.17385 0.82002 0.0
Mg520 Mg 0.93045 0.71898 0.03903 0.0
C521 C 0.87105 0.74471 0.97058 0.0
O522 O 0.85276 0.71045 0.98272 0.0
C523 C 0.95924 0.71739 0.12957 0.0
O524 O 0.99364 0.72084 0.11056 0.0
C525 C 0.99199 0.77873 1.02365 0.0
O526 O 0.95995 0.80151 1.02888 0.0
O527 O 0.98966 0.73901 1.02565 0.0
O528 O 0.89955 0.7587 0.99274 0.0
O529 O 0.91749 0.65455 1.02076 0.0
C530 C 0.91223 0.62402 0.04584 0.0
O531 O 0.91767 0.62919 0.08628 0.0
O532 O 0.92729 0.72087 0.10804 0.0
Mg533 Mg 0.4309 0.85625 1.0351 0.0
C534 C 0.37085 0.83128 0.10292 0.0
O535 O 0.35283 0.86543 0.09007 0.0
C536 C 0.46116 0.85435 0.94458 0.0
O537 O 0.4954 0.85012 0.96383 0.0
C538 C 0.49257 0.79742 0.05232 0.0
O539 O 0.46074 0.7743 0.04686 0.0
O540 O 0.48999 0.83709 0.04991 0.0
O541 O 0.39956 0.81695 0.0814 0.0
O542 O 0.4174 0.92072 0.05261 0.0
C543 C 0.41263 0.9514 1.0276 0.0
O544 O 0.4189 0.94651 0.98727 0.0
O545 O 0.429 0.85298 0.966 0.0
Mg546 Mg 0.90795 0.75968 0.83963 0.0
C547 C 0.84101 0.70119 0.82314 0.0
O548 O 0.82477 0.73773 0.81516 0.0
C549 C 0.99474 0.79039 0.83084 0.0
O550 O 0.97723 0.82715 0.82991 0.0
C551 C 0.87895 0.77286 0.75208 0.0
O552 O 0.8898 0.73334 0.75192 0.0
O553 O 0.88389 0.79467 0.78545 0.0
O554 O 0.87761 0.69948 0.83342 0.0
O555 O 0.89608 0.774 0.90694 0.0
C556 C 0.86641 0.75834 0.92648 0.0
O557 O 0.83688 0.74251 0.90478 0.0
O558 O 0.97353 0.75723 0.83366 0.0
Mg559 Mg 0.09216 0.22092 0.53892 0.0
C560 C 0.15262 0.24894 0.60547 0.0
O561 O 0.17099 0.2147 0.59332 0.0
C562 C 0.06255 0.21921 0.44812 0.0
O563 O 0.02815 0.22438 0.46674 0.0
C564 C 0.02916 0.27908 0.55419 0.0
O565 O 0.06068 0.30286 0.55009 0.0
O566 O 0.03264 0.23946 0.55239 0.0
O567 O 0.12323 0.26194 0.58412 0.0
O568 O 0.10623 0.15702 0.55761 0.0
C569 C 0.11078 0.12611 0.5327 0.0
O570 O 0.10385 0.13057 0.49245 0.0
O571 O 0.09444 0.22184 0.46983 0.0
Mg572 Mg 0.12538 0.81942 0.83809 0.0
C573 C 0.19148 0.88242 0.82802 0.0
O574 O 0.21086 0.84802 0.81832 0.0
C575 C 0.03871 0.78798 0.83147 0.0
O576 O 0.05618 0.75143 0.83568 0.0
C577 C 0.1575 0.80782 0.75141 0.0
O578 O 0.14853 0.84786 0.75209 0.0
O579 O 0.151 0.78563 0.78406 0.0
O580 O 0.15434 0.88058 0.83578 0.0
O581 O 0.13463 0.80321 0.90505 0.0
C582 C 0.16295 0.81927 0.92649 0.0
O583 O 0.19352 0.83527 0.90675 0.0
O584 O 0.05992 0.82125 0.83041 0.0
Mg585 Mg 0.59154 0.35701 0.53803 0.0
C586 C 0.65243 0.32924 0.4719 0.0
O587 O 0.67113 0.36311 0.48466 0.0
C588 C 0.5626 0.35817 0.62899 0.0
O589 O 0.52813 0.35257 0.61051 0.0
C590 C 0.52901 0.2981 0.523 0.0
O591 O 0.56083 0.27479 0.52706 0.0
O592 O 0.53207 0.33778 0.52475 0.0
O593 O 0.62275 0.31632 0.49278 0.0
O594 O 0.60527 0.42096 0.51915 0.0
C595 C 0.60991 0.45195 0.54396 0.0
O596 O 0.60313 0.4476 0.58423 0.0
O597 O 0.59436 0.35611 0.60709 0.0
Mg598 Mg 0.90124 0.31938 0.73549 0.0
C599 C 0.8334 0.37834 0.74686 0.0
O600 O 0.81668 0.34244 0.7565 0.0
C601 C 0.98877 0.29099 0.74407 0.0
O602 O 0.97226 0.25368 0.74331 0.0
C603 C 0.87003 0.30788 0.82299 0.0
O604 O 0.8784 0.34807 0.82235 0.0
O605 O 0.87693 0.28562 0.79032 0.0
O606 O 0.87037 0.37936 0.73824 0.0
O607 O 0.89093 0.30259 0.66848 0.0
C608 C 0.86131 0.31683 0.64776 0.0
O609 O 0.83071 0.33177 0.66827 0.0
O610 O 0.96669 0.32356 0.74236 0.0
Mg611 Mg 0.62283 0.7597 0.23937 0.0
C612 C 0.68921 0.69851 0.25223 0.0
O613 O 0.70727 0.73383 0.26159 0.0
C614 C 0.53603 0.79018 0.24489 0.0
O615 O 0.55332 0.8269 0.24126 0.0
C616 C 0.65298 0.77308 0.32645 0.0
O617 O 0.64321 0.73323 0.32613 0.0
O618 O 0.64754 0.79483 0.29329 0.0
O619 O 0.65225 0.6989 0.24341 0.0
O620 O 0.63298 0.77479 0.17226 0.0
C621 C 0.66176 0.75871 0.15164 0.0
O622 O 0.692 0.74304 0.17223 0.0
O623 O 0.55741 0.75709 0.24602 0.0
Mg624 Mg 0.53228 0.60437 0.8724 0.0
C625 C 0.6142 0.59693 0.84167 0.0
O626 O 0.59833 0.62339 0.81499 0.0
C627 C 0.45737 0.58191 0.91439 0.0
O628 O 0.44388 0.60036 0.88048 0.0
C629 C 0.50451 0.54391 0.81038 0.0
O630 O 0.50857 0.52161 0.84467 0.0
O631 O 0.50946 0.58356 0.81225 0.0
O632 O 0.59264 0.58127 0.8704 0.0
O633 O 0.53526 0.66933 0.89648 0.0
C634 C 0.567 0.67917 0.91621 0.0
O635 O 0.59751 0.65401 0.91349 0.0
O636 O 0.49453 0.57611 0.9187 0.0
Mg637 Mg 0.6826 0.28837 0.11804 0.0
C638 C 0.65517 0.36225 0.06441 0.0
O639 O 0.69252 0.3611 0.05298 0.0
C640 C 0.70411 0.19664 0.12083 0.0
O641 O 0.73887 0.21129 0.10943 0.0
C642 C 0.74109 0.28819 0.04917 0.0
O643 O 0.70818 0.27843 1.02923 0.0
O644 O 0.74013 0.29551 0.08843 0.0
O645 O 0.6415 0.33293 0.08752 0.0
O646 O 0.6764 0.30683 0.18431 0.0
C647 C 0.66488 0.28271 0.21389 0.0
O648 O 0.66076 0.24238 0.20703 0.0
O649 O 0.67387 0.22079 0.12 0.0
Mg650 Mg 0.98676 0.46269 0.36775 0.0
C651 C 0.90716 0.48226 0.32907 0.0
O652 O 0.92806 0.4844 0.29447 0.0
C653 C 0.05783 0.49059 0.41375 0.0
O654 O 0.07356 0.47294 0.38045 0.0
C655 C 0.01367 0.5276 0.30899 0.0
O656 O 1.00719 0.54874 0.34369 0.0
O657 O 0.01072 0.48765 0.3095 0.0
O658 O 0.92431 0.47709 0.36425 0.0
O659 O 0.98759 0.39795 0.39153 0.0
C660 C 0.95542 0.38223 0.40592 0.0
O661 O 0.92132 0.39763 0.39336 0.0
O662 O 0.02022 0.49363 0.41655 0.0
Mg663 Mg 0.84126 0.78488 0.61819 0.0
C664 C 0.86769 0.71218 0.56123 0.0
O665 O 0.83051 0.71415 0.54921 0.0
C666 C 0.8195 0.87768 0.61932 0.0
O667 O 0.78531 0.86441 0.60465 0.0
C668 C 0.78051 0.78626 0.55214 0.0
O669 O 0.81273 0.79716 0.53171 0.0
O670 O 0.78269 0.77761 0.59103 0.0
O671 O 0.88141 0.74055 0.58567 0.0
O672 O 0.85043 0.76654 0.68403 0.0
C673 C 0.86291 0.79093 0.71312 0.0
O674 O 0.86644 0.83124 0.70613 0.0
O675 O 0.84905 0.85262 0.62063 0.0
Mg676 Mg 0.53193 0.45995 0.70872 0.0
C677 C 0.61223 0.48569 0.74432 0.0
O678 O 0.5923 0.49264 0.77895 0.0
C679 C 0.45972 0.4884 0.66473 0.0
O680 O 0.44438 0.4702 0.69787 0.0
C681 C 0.50445 0.52236 0.76971 0.0
O682 O 0.50965 0.54451 0.73551 0.0
O683 O 0.50859 0.48259 0.76804 0.0
O684 O 0.59422 0.47565 0.71068 0.0
O685 O 0.53131 0.39547 0.68426 0.0
C686 C 0.56358 0.3801 0.66979 0.0
O687 O 0.59756 0.39575 0.68254 0.0
O688 O 0.49729 0.49135 0.66136 0.0
Mg689 Mg 0.83692 0.29358 0.95793 0.0
C690 C 0.86582 0.36438 1.01626 0.0
O691 O 0.82917 0.36205 1.02987 0.0
C692 C 0.81504 0.20154 0.95267 0.0
O693 O 0.78027 0.21543 0.96496 0.0
C694 C 0.77856 0.28933 1.02638 0.0
O695 O 0.81147 0.278 0.04535 0.0
O696 O 0.77945 0.29954 0.98781 0.0
O697 O 0.87834 0.33689 0.99022 0.0
O698 O 0.84341 0.31321 0.89202 0.0
C699 C 0.85565 0.28932 0.86244 0.0
O700 O 0.86054 0.24913 0.86924 0.0
O701 O 0.84502 0.22607 0.95366 0.0
Mg702 Mg 0.98656 0.61481 0.20914 0.0
C703 C 0.90452 0.57047 0.216 0.0
O704 O 0.92293 0.53438 0.21247 0.0
C705 C 0.05585 0.5837 0.16275 0.0
O706 O 0.07243 0.60179 0.19542 0.0
C707 C 0.01413 0.55021 0.26893 0.0
O708 O 0.01098 0.52872 0.23392 0.0
O709 O 1.00896 0.5899 0.26819 0.0
O710 O 0.9237 0.6045 0.21382 0.0
O711 O 0.98967 0.6792 0.18472 0.0
C712 C 0.95794 0.69626 0.17068 0.0
O713 O 0.92342 0.68296 0.18426 0.0
O714 O 0.01814 0.58162 0.16046 0.0
Mg715 Mg 0.68264 0.78596 0.46264 0.0
C716 C 0.65528 0.71214 0.51725 0.0
O717 O 0.6923 0.714 0.52984 0.0
C718 C 0.70563 0.8771 0.4605 0.0
O719 O 0.74038 0.86034 0.46858 0.0
C720 C 0.74238 0.78633 0.53053 0.0
O721 O 0.71007 0.79691 0.55101 0.0
O722 O 0.74042 0.77816 0.49148 0.0
O723 O 0.64187 0.74087 0.49319 0.0
O724 O 0.67682 0.7676 0.39638 0.0
C725 C 0.6672 0.79174 0.36608 0.0
O726 O 0.66473 0.83236 0.37216 0.0
O727 O 0.67465 0.85396 0.46141 0.0
Mg728 Mg 0.86761 0.57748 0.56238 0.0
C729 C 0.88769 0.67121 0.55801 0.0
O730 O 0.91512 0.66173 0.58569 0.0
C731 C 0.89535 0.49191 0.54959 0.0
O732 O 0.88339 0.49307 0.58875 0.0
C733 C 0.78267 0.56297 0.53687 0.0
O734 O 0.79945 0.56476 0.49977 0.0
O735 O 0.8042 0.56579 0.56963 0.0
O736 O 0.86952 0.64178 0.5387 0.0
O737 O 0.89873 0.579 0.62179 0.0
C738 C 0.9355 0.56998 0.62157 0.0
O739 O 0.9526 0.55884 0.58629 0.0
O740 O 0.89244 0.52489 0.52732 0.0
Mg741 Mg 0.73979 0.6229 0.85084 0.0
C742 C 0.65741 0.59329 0.84433 0.0
O743 O 0.67324 0.56661 0.87083 0.0
C744 C 0.81504 0.66489 0.82855 0.0
O745 O 0.82857 0.6311 0.84715 0.0
C746 C 0.76523 0.56041 0.79005 0.0
O747 O 0.75988 0.59443 0.76763 0.0
O748 O 0.76188 0.56261 0.82986 0.0
O749 O 0.67923 0.62147 0.82803 0.0
O750 O 0.73701 0.64666 0.91596 0.0
C751 C 0.70522 0.66608 0.92601 0.0
O752 O 0.67466 0.66351 0.90082 0.0
O753 O 0.77786 0.66905 0.82263 0.0
Mg754 Mg 0.65513 0.49651 0.07014 0.0
C755 C 0.63484 0.40305 0.06233 0.0
O756 O 0.60738 0.4116 0.09024 0.0
C757 C 0.62536 0.58208 0.05937 0.0
O758 O 0.63455 0.58035 0.09935 0.0
C759 C 0.73926 0.51172 0.04414 0.0
O760 O 0.72141 0.51125 1.0075 0.0
O761 O 0.71863 0.50776 0.07736 0.0
O762 O 0.65293 0.43309 0.04413 0.0
O763 O 0.62302 0.49371 0.12871 0.0
C764 C 0.58602 0.50145 0.1268 0.0
O765 O 0.56994 0.51166 0.09071 0.0
O766 O 0.63083 0.54986 1.03636 0.0
Mg767 Mg 0.78291 0.45538 0.36413 0.0
C768 C 0.86398 0.4804 0.32702 0.0
O769 O 0.84424 0.50398 0.3006 0.0
C770 C 0.71132 0.41031 0.33602 0.0
O771 O 0.69584 0.44354 0.35408 0.0
C772 C 0.75441 0.51559 0.29985 0.0
O773 O 0.75566 0.48047 0.27833 0.0
O774 O 0.7613 0.51476 0.33927 0.0
O775 O 0.84583 0.45625 0.35206 0.0
O776 O 0.78032 0.43245 0.42907 0.0
C777 C 0.81218 0.41895 0.44627 0.0
O778 O 0.84655 0.4329 0.43289 0.0
O779 O 0.7489 0.40726 0.33285 0.0
Mg780 Mg 0.86698 0.49901 1.01775 0.0
C781 C 0.88628 0.4051 1.02003 0.0
O782 O 0.91315 0.41493 0.99195 0.0
C783 C 0.89656 0.58432 1.02927 0.0
O784 O 0.88448 0.58282 0.99012 0.0
C785 C 0.78289 0.51163 0.04623 0.0
O786 O 0.8008 0.50771 0.08261 0.0
O787 O 0.80342 0.51087 1.01271 0.0
O788 O 0.86898 0.43429 0.0405 0.0
O789 O 0.89678 0.49744 0.95767 0.0
C790 C 0.9339 0.5048 0.95809 0.0
O791 O 0.95142 0.51451 0.99363 0.0
O792 O 0.89306 0.55172 0.05202 0.0
Mg793 Mg 0.78258 0.61428 0.21278 0.0
C794 C 0.86128 0.5727 0.21843 0.0
O795 O 0.83957 0.54068 0.20631 0.0
C796 C 0.71316 0.66134 0.24308 0.0
O797 O 0.69644 0.62861 0.22524 0.0
C798 C 0.75578 0.55562 0.27724 0.0
O799 O 0.76386 0.59 0.29832 0.0
O800 O 0.75777 0.55622 0.23723 0.0
O801 O 0.84481 0.60771 0.22662 0.0
O802 O 0.7818 0.63944 0.1485 0.0
C803 C 0.81386 0.65463 0.13323 0.0
O804 O 0.84805 0.64311 0.14922 0.0
O805 O 0.75087 0.6634 0.24528 0.0
Mg806 Mg 0.65422 0.577 0.51535 0.0
C807 C 0.63514 0.67116 0.51967 0.0
O808 O 0.60796 0.66195 0.49156 0.0
C809 C 0.62572 0.49146 0.52734 0.0
O810 O 0.63753 0.49274 0.48814 0.0
C811 C 0.73911 0.56301 0.54032 0.0
O812 O 0.72237 0.56567 0.57739 0.0
O813 O 0.71752 0.56507 0.50755 0.0
O814 O 0.65286 0.64154 0.539 0.0
O815 O 0.62226 0.57843 0.45655 0.0
C816 C 0.58535 0.5702 0.4581 0.0
O817 O 0.56908 0.56017 0.4941 0.0
O818 O 0.62921 0.52424 0.55002 0.0
Mg819 Mg 0.7359 0.45721 0.70761 0.0
C820 C 0.65549 0.48467 0.74506 0.0
O821 O 0.67562 0.51091 0.76863 0.0
C822 C 0.80802 0.41421 0.73725 0.0
O823 O 0.82319 0.44714 0.71852 0.0
C824 C 0.76519 0.51953 0.76889 0.0
O825 O 0.76262 0.4854 0.79165 0.0
O826 O 0.75848 0.51733 0.72951 0.0
O827 O 0.67326 0.4586 0.72153 0.0
O828 O 0.73765 0.432 0.64342 0.0
C829 C 0.70557 0.41773 0.62726 0.0
O830 O 0.67139 0.43109 0.64171 0.0
O831 O 0.77046 0.41057 0.74011 0.0
Mg832 Mg 0.58658 0.86583 0.53544 0.0
C833 C 0.61388 0.8134 0.61057 0.0
O834 O 0.57668 0.80138 0.60927 0.0
C835 C 0.56268 0.86636 0.44471 0.0
O836 O 0.52803 0.8597 0.46227 0.0
C837 C 0.52715 0.79794 0.53742 0.0
O838 O 0.55955 0.77754 0.52696 0.0
O839 O 0.52881 0.8372 0.54451 0.0
O840 O 0.62751 0.83616 0.58094 0.0
O841 O 0.59332 0.93231 0.5525 0.0
C842 C 0.60399 0.96197 0.52807 0.0
O843 O 0.60686 0.95524 0.48758 0.0
O844 O 0.59397 0.86539 0.46738 0.0
Mg845 Mg 0.08659 0.70774 0.53718 0.0
C846 C 0.11394 0.7614 0.46333 0.0
O847 O 0.07658 0.77284 0.46445 0.0
C848 C 0.06544 0.70474 0.62917 0.0
O849 O 0.03073 0.7169 0.61497 0.0
C850 C 0.02825 0.77664 0.53773 0.0
O851 O 0.06125 0.79652 0.54724 0.0
O852 O 0.0291 0.7374 0.53038 0.0
O853 O 0.12764 0.7383 0.49266 0.0
O854 O 0.09254 0.64161 0.51829 0.0
C855 C 0.10414 0.61195 0.54228 0.0
O856 O 0.1085 0.6187 0.5826 0.0
O857 O 0.09547 0.7053 0.60473 0.0
Mg858 Mg 0.61386 0.82067 0.74537 0.0
C859 C 0.63391 0.81237 0.65165 0.0
O860 O 0.66129 0.84054 0.65988 0.0
C861 C 0.64481 0.80967 0.83092 0.0
O862 O 0.63686 0.84993 0.82928 0.0
C863 C 0.52954 0.79523 0.76117 0.0
O864 O 0.5471 0.75848 0.76112 0.0
O865 O 0.55041 0.82826 0.75673 0.0
O866 O 0.61576 0.79455 0.68189 0.0
O867 O 0.64634 0.87905 0.74237 0.0
C868 C 0.68343 0.87685 0.74959 0.0
O869 O 0.69936 0.8406 0.75939 0.0
O870 O 0.63815 0.78681 0.79881 0.0
Mg871 Mg 0.42952 0.37039 1.034 0.0
C872 C 0.40216 0.31302 0.96185 0.0
O873 O 0.43913 0.30038 0.96402 0.0
C874 C 0.45056 0.37183 0.12692 0.0
O875 O 0.48478 0.35709 0.11396 0.0
C876 C 0.48899 0.30321 1.0363 0.0
O877 O 0.45637 0.28368 0.04761 0.0
O878 O 0.48763 0.34203 1.02717 0.0
O879 O 0.38889 0.33807 0.98986 0.0
O880 O 0.42128 0.43633 1.01537 0.0
C881 C 0.40907 0.4656 0.03965 0.0
O882 O 0.40537 0.45871 0.07995 0.0
O883 O 0.42121 0.37324 0.10155 0.0
Mg884 Mg 0.40149 0.76911 0.74892 0.0
C885 C 0.38184 0.7704 0.65505 0.0
O886 O 0.35502 0.74234 0.66523 0.0
C887 C 0.37235 0.78174 0.83402 0.0
O888 O 0.38488 0.74276 0.83304 0.0
C889 C 0.4859 0.79758 0.76117 0.0
O890 O 0.46825 0.83402 0.75689 0.0
O891 O 0.46512 0.76417 0.76079 0.0
O892 O 0.3993 0.79117 0.68398 0.0
O893 O 0.37166 0.70891 0.74811 0.0
C894 C 0.33466 0.70898 0.75601 0.0
O895 O 0.317 0.74438 0.76575 0.0
O896 O 0.37546 0.80406 0.80108 0.0
Mg897 Mg 0.92777 0.20736 0.04166 0.0
C898 C 0.90159 0.26445 0.11442 0.0
O899 O 0.93878 0.27642 0.11239 0.0
C900 C 0.9491 0.20641 0.94876 0.0
O901 O 0.98331 0.22116 0.96191 0.0
C902 C 0.98852 0.27349 0.03997 0.0
O903 O 0.95623 0.29396 1.02928 0.0
O904 O 0.98638 0.2346 0.04863 0.0
O905 O 0.8878 0.23997 0.08613 0.0
O906 O 0.91851 0.14143 0.05986 0.0
C907 C 0.90611 0.11237 1.03537 0.0
O908 O 0.90275 0.1194 0.99505 0.0
O909 O 0.91969 0.20495 0.97396 0.0
Mg910 Mg 0.614 0.26447 0.82463 0.0
C911 C 0.63249 0.26809 0.91879 0.0
O912 O 0.65967 0.24009 0.90952 0.0
C913 C 0.642 0.27649 0.73916 0.0
O914 O 0.63001 0.23733 0.7406 0.0
C915 C 0.52952 0.28996 0.81124 0.0
O916 O 0.54674 0.32679 0.81446 0.0
O917 O 0.55072 0.25694 0.81266 0.0
O918 O 0.61515 0.28789 0.88923 0.0
O919 O 0.64583 0.20566 0.82603 0.0
C920 C 0.68275 0.20728 0.8179 0.0
O921 O 0.69903 0.24331 0.80788 0.0
O922 O 0.63887 0.29923 0.77192 0.0
Mg923 Mg 0.90223 0.80868 0.32777 0.0
C924 C 0.88277 0.80598 0.4216 0.0
O925 O 0.85601 0.83424 0.41183 0.0
C926 C 0.87253 0.79716 0.24247 0.0
O927 O 0.88472 0.83626 0.24381 0.0
C928 C 0.98624 0.78 0.31458 0.0
O929 O 0.96826 0.74363 0.31803 0.0
O930 O 0.96579 0.81359 0.31587 0.0
O931 O 0.90014 0.78566 0.39237 0.0
O932 O 0.87245 0.86879 0.32938 0.0
C933 C 0.83536 0.86841 0.32183 0.0
O934 O 0.81787 0.83291 0.31197 0.0
O935 O 0.87603 0.77449 0.27513 0.0
Mg936 Mg 0.48743 0.47108 0.20761 0.0
C937 C 0.40651 0.47951 0.24064 0.0
O938 O 0.42217 0.45117 0.26547 0.0
C939 C 0.56046 0.49312 0.16272 0.0
O940 O 0.57473 0.4732 0.19542 0.0
C941 C 0.51964 0.52506 0.27128 0.0
O942 O 0.51536 0.54941 0.23845 0.0
O943 O 0.51351 0.48587 0.26731 0.0
O944 O 0.42815 0.49659 0.21284 0.0
O945 O 0.48173 0.40692 0.1842 0.0
C946 C 0.45044 0.40115 0.16242 0.0
O947 O 0.4233 0.43047 0.16248 0.0
O948 O 0.52334 0.4997 0.15998 0.0
Mg949 Mg 0.33897 0.79219 0.96872 0.0
C950 C 0.39882 0.724 0.99371 0.0
O951 O 0.41683 0.73667 0.9595 0.0
C952 C 0.30975 0.88311 0.96908 0.0
O953 O 0.27543 0.86439 0.97458 0.0
C954 C 0.27737 0.77515 1.02804 0.0
O955 O 0.30933 0.77984 0.05115 0.0
O956 O 0.27983 0.77816 0.9884 0.0
O957 O 0.37027 0.74576 1.00805 0.0
O958 O 0.35194 0.77383 0.9044 0.0
C959 C 0.35652 0.79857 0.87349 0.0
O960 O 0.35015 0.83892 0.87804 0.0
O961 O 0.34172 0.86137 0.97052 0.0
Mg962 Mg 0.03186 0.60116 0.70565 0.0
C963 C 0.11398 0.59415 0.73726 0.0
O964 O 0.09844 0.62133 0.76353 0.0
C965 C 0.95996 0.57837 0.65851 0.0
O966 O 0.94478 0.59871 0.69055 0.0
C967 C 1.00112 0.5454 0.76937 0.0
O968 O 1.00558 0.52092 0.73654 0.0
O969 O 1.00676 0.58465 0.7654 0.0
O970 O 0.09205 0.57771 0.70918 0.0
O971 O 0.03442 0.66612 0.68377 0.0
C972 C 0.06644 0.67593 0.66495 0.0
O973 O 0.09661 0.65036 0.66757 0.0
O974 O 0.99713 0.57173 0.65718 0.0
Mg975 Mg 0.17737 0.28787 0.46876 0.0
C976 C 0.11649 0.35417 0.49569 0.0
O977 O 0.09811 0.34133 0.46164 0.0
C978 C 0.20655 0.19709 0.46804 0.0
O979 O 0.24099 0.21577 0.47302 0.0
C980 C 0.23998 0.30368 0.52753 0.0
O981 O 0.20824 0.29994 0.55098 0.0
O982 O 0.2368 0.30144 0.48788 0.0
O983 O 0.14597 0.33324 0.50907 0.0
O984 O 0.16374 0.30637 0.40468 0.0
C985 C 0.15889 0.28144 0.37382 0.0
O986 O 0.16523 0.24112 0.37841 0.0
O987 O 0.17471 0.21885 0.47025 0.0
Mg988 Mg 0.48724 0.59949 0.37599 0.0
C989 C 0.40596 0.5887 0.34296 0.0
O990 O 0.42143 0.61474 0.31564 0.0
C991 C 0.55999 0.57799 0.42182 0.0
O992 O 0.5745 0.59733 0.38891 0.0
C993 C 0.51939 0.54394 0.313 0.0
O994 O 0.51498 0.51966 0.34586 0.0
O995 O 0.51312 0.58311 0.3167 0.0
O996 O 0.42767 0.57442 0.37229 0.0
O997 O 0.48319 0.66457 0.397 0.0
C998 C 0.45106 0.67399 0.41582 0.0
O999 O 0.42123 0.64783 0.41349 0.0
O1000 O 0.52284 0.57162 0.42437 0.0
Mg1001 Mg 0.17761 0.78157 0.10998 0.0
C1002 C 0.11492 0.71782 0.08054 0.0
O1003 O 0.09611 0.73091 0.11416 0.0
C1004 C 0.20363 0.87357 0.11762 0.0
O1005 O 0.23843 0.8586 0.10673 0.0
C1006 C 0.23893 0.77237 0.04826 0.0
O1007 O 0.2065 0.77579 1.02571 0.0
O1008 O 0.23667 0.77211 0.08802 0.0
O1009 O 0.14552 0.73775 0.06848 0.0
O1010 O 0.16665 0.75918 0.17335 0.0
C1011 C 0.15858 0.78361 0.20384 0.0
O1012 O 0.15967 0.82436 0.19862 0.0
O1013 O 0.17289 0.8501 0.11471 0.0
Mg1014 Mg 0.0304 0.47019 0.87529 0.0
C1015 C 0.11196 0.48014 0.84393 0.0
O1016 O 0.09642 0.45499 0.81564 0.0
C1017 C 0.95811 0.49572 0.92123 0.0
O1018 O 0.94217 0.47692 0.88861 0.0
C1019 C 1.00092 0.52677 0.81118 0.0
O1020 O 1.0051 0.55122 0.84409 0.0
O1021 O 1.00637 0.48749 0.81517 0.0
O1022 O 0.09049 0.49328 0.87391 0.0
O1023 O 0.03194 0.4051 0.8963 0.0
C1024 C 0.06441 0.38933 0.90946 0.0
O1025 O 0.09806 0.40639 0.89805 0.0
O1026 O 0.99557 0.50003 0.92328 0.0
Mg1027 Mg 0.34078 0.28705 0.60721 0.0
C1028 C 0.40173 0.35348 0.58122 0.0
O1029 O 0.41964 0.34095 0.61558 0.0
C1030 C 0.31121 0.19677 0.61157 0.0
O1031 O 0.27694 0.21586 0.60704 0.0
C1032 C 0.27883 0.30329 0.54714 0.0
O1033 O 0.31061 0.29961 0.52371 0.0
O1034 O 0.2818 0.30051 0.58675 0.0
O1035 O 0.37273 0.33209 0.5672 0.0
O1036 O 0.35289 0.30705 0.6712 0.0
C1037 C 0.35808 0.28262 0.70225 0.0
O1038 O 0.35327 0.24202 0.69772 0.0
O1039 O 0.3433 0.21795 0.60765 0.0
Mg1040 Mg 0.14968 0.48565 0.51059 0.0
C1041 C 0.08257 0.49867 0.45062 0.0
O1042 O 0.06522 0.50738 0.48645 0.0
C1043 C 0.23659 0.49286 0.5411 0.0
O1044 O 0.21935 0.49041 0.57792 0.0
C1045 C 0.11883 0.57262 0.5236 0.0
O1046 O 0.1283 0.57242 0.48369 0.0
O1047 O 0.12495 0.53963 0.54544 0.0
O1048 O 0.11953 0.48984 0.45013 0.0
O1049 O 0.13944 0.41843 0.52565 0.0
C1050 C 0.11034 0.39789 0.50992 0.0
O1051 O 0.0801 0.41853 0.49437 0.0
O1052 O 0.21515 0.49264 0.50796 0.0
Mg1053 Mg 0.28228 0.44939 0.22667 0.0
C1054 C 0.36333 0.48276 0.23734 0.0
O1055 O 0.34761 0.50996 0.2113 0.0
C1056 C 0.20959 0.40357 0.24802 0.0
O1057 O 0.19512 0.43648 0.22864 0.0
C1058 C 0.25006 0.51241 0.28213 0.0
O1059 O 0.25458 0.47957 0.30643 0.0
O1060 O 0.25629 0.50867 0.24296 0.0
O1061 O 0.34184 0.45334 0.25173 0.0
O1062 O 0.28654 0.42831 0.16162 0.0
C1063 C 0.31862 0.40927 0.15241 0.0
O1064 O 0.3483 0.4113 0.17883 0.0
O1065 O 0.24673 0.40099 0.25451 0.0
Mg1066 Mg 0.36405 0.59213 1.00835 0.0
C1067 C 0.43133 0.57645 0.95053 0.0
O1068 O 0.44744 0.56877 0.98723 0.0
C1069 C 0.27732 0.58146 0.03785 0.0
O1070 O 0.29458 0.58035 0.07478 0.0
C1071 C 0.39339 0.50466 1.02144 0.0
O1072 O 0.38287 0.50458 0.9818 0.0
O1073 O 0.3882 0.53794 0.04331 0.0
O1074 O 0.39468 0.58633 0.94847 0.0
O1075 O 0.37486 0.65971 1.02283 0.0
C1076 C 0.40409 0.67986 1.00701 0.0
O1077 O 0.43377 0.65876 0.99084 0.0
O1078 O 0.2987 0.5851 1.00496 0.0
Mg1079 Mg 0.23849 0.62479 0.72337 0.0
C1080 C 0.15714 0.59158 0.73307 0.0
O1081 O 0.17273 0.56449 0.70674 0.0
C1082 C 0.31061 0.67176 0.74758 0.0
O1083 O 0.32644 0.6394 0.72831 0.0
C1084 C 0.26796 0.56082 0.77912 0.0
O1085 O 0.2629 0.59361 0.80351 0.0
O1086 O 0.26338 0.56489 0.73972 0.0
O1087 O 0.17862 0.62107 0.74754 0.0
O1088 O 0.23534 0.64646 0.6584 0.0
C1089 C 0.20329 0.66527 0.64858 0.0
O1090 O 0.17315 0.66273 0.67421 0.0
O1091 O 0.27325 0.67322 0.75286 0.0
Mg1092 Mg 0.14659 0.58639 0.06505 0.0
C1093 C 0.07997 0.57411 0.12584 0.0
O1094 O 0.06208 0.56467 0.09044 0.0
C1095 C 0.2334 0.5814 1.03495 0.0
O1096 O 0.21616 0.58579 0.99826 0.0
C1097 C 0.1163 0.49925 0.05203 0.0
O1098 O 0.12591 0.49976 0.09194 0.0
O1099 O 0.12188 0.53229 1.03013 0.0
O1100 O 0.11697 0.58274 0.12568 0.0
O1101 O 0.13677 0.65357 0.04988 0.0
C1102 C 0.10801 0.67438 0.06579 0.0
O1103 O 0.07752 0.65401 0.08114 0.0
O1104 O 0.21197 0.57961 0.06795 0.0
Mg1105 Mg 0.23755 0.45497 0.85463 0.0
C1106 C 0.15499 0.48456 0.84675 0.0
O1107 O 0.17041 0.51345 0.87128 0.0
C1108 C 0.3095 0.40893 0.82949 0.0
O1109 O 0.32515 0.44135 0.84891 0.0
C1110 C 0.26759 0.519 0.79772 0.0
O1111 O 0.26409 0.48607 0.77319 0.0
O1112 O 0.26122 0.51508 0.83684 0.0
O1113 O 0.17693 0.45521 0.83304 0.0
O1114 O 0.23775 0.43423 0.91978 0.0
C1115 C 0.20566 0.42145 0.93662 0.0
O1116 O 0.17163 0.43422 0.92146 0.0
O1117 O 0.27213 0.40699 0.8245 0.0
Mg1118 Mg 0.36745 0.48486 0.56866 0.0
C1119 C 0.43456 0.49725 0.62843 0.0
O1120 O 0.45154 0.50664 0.59262 0.0
C1121 C 0.28053 0.493 0.53835 0.0
O1122 O 0.29777 0.49216 0.50145 0.0
C1123 C 0.39805 0.57243 0.55724 0.0
O1124 O 0.38872 0.57188 0.59718 0.0
O1125 O 0.39198 0.53958 0.53497 0.0
O1126 O 0.39763 0.4883 0.62911 0.0
O1127 O 0.3781 0.41783 0.55242 0.0
C1128 C 0.40751 0.39735 0.56743 0.0
O1129 O 0.43781 0.41807 0.58292 0.0
O1130 O 0.30196 0.49148 0.57146 0.0
Mg1131 Mg 0.28166 0.6179 0.3551 0.0
C1132 C 0.3628 0.58523 0.34644 0.0
O1133 O 0.3474 0.56022 0.37475 0.0
C1134 C 0.20851 0.66273 0.33287 0.0
O1135 O 0.19419 0.63001 0.3527 0.0
C1136 C 0.24971 0.55414 0.30099 0.0
O1137 O 0.2539 0.58697 0.27662 0.0
O1138 O 0.25582 0.55813 0.34019 0.0
O1139 O 0.34095 0.61299 0.32955 0.0
O1140 O 0.28717 0.64124 0.41934 0.0
C1141 C 0.31848 0.6629 0.42531 0.0
O1142 O 0.34575 0.66275 0.39616 0.0
O1143 O 0.24564 0.66546 0.32645 0.0
Mg1144 Mg 0.42847 0.21796 0.53946 0.0
C1145 C 0.36744 0.24386 0.47291 0.0
O1146 O 0.34949 0.20958 0.48553 0.0
C1147 C 0.45771 0.21273 0.62983 0.0
O1148 O 0.49204 0.21705 0.61086 0.0
C1149 C 0.49023 0.27835 0.52338 0.0
O1150 O 0.45834 0.30169 0.52667 0.0
O1151 O 0.48741 0.23874 0.52638 0.0
O1152 O 0.39647 0.25786 0.49426 0.0
O1153 O 0.41661 0.15401 0.5192 0.0
C1154 C 0.41117 0.12297 0.54358 0.0
O1155 O 0.41568 0.12747 0.58422 0.0
O1156 O 0.42569 0.21708 0.60858 0.0
Mg1157 Mg 0.92753 0.35719 0.53727 0.0
C1158 C 0.86689 0.33041 0.60379 0.0
O1159 O 0.84827 0.36418 0.59089 0.0
C1160 C 0.95652 0.3599 0.44643 0.0
O1161 O 0.99099 0.35472 0.46499 0.0
C1162 C 0.99015 0.29821 0.55375 0.0
O1163 O 0.95857 0.27437 0.5503 0.0
O1164 O 0.9868 0.33777 0.55068 0.0
O1165 O 0.89625 0.31698 0.58268 0.0
O1166 O 0.91475 0.42112 0.5569 0.0
C1167 C 0.91048 0.4523 0.53245 0.0
O1168 O 0.91684 0.44803 0.49207 0.0
O1169 O 0.9247 0.35698 0.46814 0.0
Mg1170 Mg 0.40148 0.2563 0.34136 0.0
C1171 C 0.33416 0.19701 0.32892 0.0
O1172 O 0.31742 0.23297 0.31957 0.0
C1173 C 0.48839 0.28637 0.33308 0.0
O1174 O 0.47116 0.32329 0.33373 0.0
C1175 C 0.37095 0.26769 0.25363 0.0
O1176 O 0.38009 0.22769 0.25424 0.0
O1177 O 0.3771 0.28996 0.28647 0.0
O1178 O 0.37108 0.19602 0.33791 0.0
O1179 O 0.39095 0.27254 0.40845 0.0
C1180 C 0.3616 0.25756 0.429 0.0
O1181 O 0.33126 0.24206 0.40834 0.0
O1182 O 0.46696 0.2533 0.33477 0.0
Mg1183 Mg 0.5924 0.71562 0.04408 0.0
C1184 C 0.65504 0.74414 0.10811 0.0
O1185 O 0.67339 0.71015 0.09524 0.0
C1186 C 0.56584 0.70834 0.95217 0.0
O1187 O 0.53112 0.71924 0.96736 0.0
C1188 C 0.53106 0.77729 0.05485 0.0
O1189 O 0.56342 0.8 0.05192 0.0
O1190 O 0.53342 0.73754 0.05414 0.0
O1191 O 0.62484 0.75681 0.08785 0.0
O1192 O 0.60327 0.65222 0.06628 0.0
C1193 C 0.61111 0.62171 0.04181 0.0
O1194 O 0.60984 0.62694 1.00106 0.0
O1195 O 0.5967 0.71112 0.9755 0.0
Mg1196 Mg 0.61924 0.31398 0.34037 0.0
C1197 C 0.68637 0.3737 0.32762 0.0
O1198 O 0.70355 0.3378 0.31879 0.0
C1199 C 0.53234 0.28357 0.33325 0.0
O1200 O 0.54956 0.24675 0.3359 0.0
C1201 C 0.65009 0.30123 0.25328 0.0
O1202 O 0.64056 0.34113 0.25359 0.0
O1203 O 0.64402 0.27929 0.28622 0.0
O1204 O 0.64942 0.37438 0.33638 0.0
O1205 O 0.62941 0.2991 0.4077 0.0
C1206 C 0.65857 0.31469 0.42827 0.0
O1207 O 0.68898 0.32984 0.40765 0.0
O1208 O 0.55378 0.31669 0.33331 0.0
Mg1209 Mg 0.09104 0.86199 1.03197 0.0
C1210 C 0.15523 0.83364 0.96988 0.0
O1211 O 0.17334 0.86754 0.98346 0.0
C1212 C 0.06362 0.87007 0.12343 0.0
O1213 O 0.02907 0.85877 0.10796 0.0
C1214 C 0.03036 0.79929 1.02144 0.0
O1215 O 0.0629 0.77701 1.02508 0.0
O1216 O 0.03236 0.83907 1.02153 0.0
O1217 O 0.12448 0.82094 0.9891 0.0
O1218 O 0.10164 0.92534 1.00929 0.0
C1219 C 0.11105 0.95561 1.03351 0.0
O1220 O 0.11174 0.9501 0.07423 0.0
O1221 O 0.09469 0.86724 0.10051 0.0
Mg1222 Mg 0.40537 0.81706 0.23477 0.0
C1223 C 0.3379 0.87493 0.25023 0.0
O1224 O 0.32179 0.83826 0.258 0.0
C1225 C 0.4921 0.78738 0.24477 0.0
O1226 O 0.47482 0.75046 0.24513 0.0
C1227 C 0.37598 0.80386 0.32208 0.0
O1228 O 0.38641 0.84352 0.32216 0.0
O1229 O 0.38125 0.78201 0.28882 0.0
O1230 O 0.37456 0.87694 0.24042 0.0
O1231 O 0.39464 0.80228 0.16731 0.0
C1232 C 0.36545 0.81808 0.14705 0.0
O1233 O 0.33575 0.83437 0.16803 0.0
O1234 O 0.47074 0.82037 0.24183 0.0
Mg1235 Mg 0.12016 0.26612 0.73679 0.0
C1236 C 0.18784 0.20677 0.75052 0.0
O1237 O 0.20519 0.24267 0.7591 0.0
C1238 C 0.03266 0.29483 0.74398 0.0
O1239 O 0.04914 0.33204 0.7413 0.0
C1240 C 0.15044 0.27994 0.82365 0.0
O1241 O 0.1404 0.24016 0.82338 0.0
O1242 O 0.14485 0.30174 0.79053 0.0
O1243 O 0.15089 0.20611 0.74159 0.0
O1244 O 0.12989 0.28012 0.66923 0.0
C1245 C 0.15892 0.26414 0.64888 0.0
O1246 O 0.18932 0.2492 0.66974 0.0
O1247 O 0.05475 0.26222 0.74394 0.0
loop_
_geom_bond_atom_site_label_1
_geom_bond_atom_site_label_2
_geom_bond_distance
_geom_bond_site_symmetry_2
_ccdc_geom_bond_type
Mg0 O7 2.141 . S
Mg0 O8 2.048 . S
Mg0 O9 2.048 . S
Mg0 O12 2.141 1_455 S
C1 O2 1.313 . S
C1 O8 1.195 . S
O2 C1 1.313 . S
C3 O4 1.245 . S
C3 O12 1.289 . S
O4 C3 1.245 . S
C5 O6 1.245 1_545 S
C5 O7 1.289 . S
O6 C5 1.245 1_565 S
O7 Mg0 2.141 . S
O7 C5 1.289 . S
O8 Mg0 2.048 . S
O8 C1 1.195 . S
O9 Mg0 2.048 . S
O9 C10 1.195 . S
C10 O9 1.195 . S
C10 O11 1.313 . S
O11 C10 1.313 . S
O12 Mg0 2.141 1_655 S
O12 C3 1.289 . S
Mg13 O20 2.141 . S
Mg13 O21 2.048 . S
Mg13 O22 2.048 . S
Mg13 O25 2.141 . S
C14 O15 1.313 . S
C14 O21 1.195 . S
O15 C14 1.313 . S
C16 O17 1.245 . S
C16 O25 1.289 . S
O17 C16 1.245 . S
C18 O19 1.245 . S
C18 O20 1.289 . S
O19 C18 1.245 . S
O20 Mg13 2.141 . S
O20 C18 1.289 . S
O21 Mg13 2.048 . S
O21 C14 1.195 . S
O22 Mg13 2.048 . S
O22 C23 1.195 . S
C23 O22 1.195 . S
C23 O24 1.313 . S
O24 C23 1.313 . S
O25 Mg13 2.141 . S
O25 C16 1.289 . S
Mg26 O33 2.141 . S
Mg26 O34 2.048 . S
Mg26 O35 2.048 . S
Mg26 O38 2.141 . S
C27 O28 1.313 . S
C27 O34 1.195 . S
O28 C27 1.313 . S
C29 O30 1.245 . S
C29 O38 1.289 . S
O30 C29 1.245 . S
C31 O32 1.245 1_565 S
C31 O33 1.289 . S
O32 C31 1.245 1_545 S
O33 Mg26 2.141 . S
O33 C31 1.289 . S
O34 Mg26 2.048 . S
O34 C27 1.195 . S
O35 Mg26 2.048 . S
O35 C36 1.195 . S
C36 O35 1.195 . S
C36 O37 1.313 . S
O37 C36 1.313 . S
O38 Mg26 2.141 . S
O38 C29 1.289 . S
Mg39 O46 2.141 . S
Mg39 O47 2.048 . S
Mg39 O48 2.048 . S
Mg39 O51 2.141 . S
C40 O41 1.313 . S
C40 O47 1.195 . S
O41 C40 1.313 . S
C42 O43 1.245 . S
C42 O51 1.289 . S
O43 C42 1.245 . S
C44 O45 1.245 . S
C44 O46 1.289 . S
O45 C44 1.245 . S
O46 Mg39 2.141 . S
O46 C44 1.289 . S
O47 Mg39 2.048 . S
O47 C40 1.195 . S
O48 Mg39 2.048 . S
O48 C49 1.195 . S
C49 O48 1.195 . S
C49 O50 1.313 . S
O50 C49 1.313 . S
O51 Mg39 2.141 . S
O51 C42 1.289 . S
Mg52 O59 2.141 . S
Mg52 O60 2.048 . S
Mg52 O61 2.048 . S
Mg52 O64 2.141 1_455 S
C53 O54 1.313 . S
C53 O60 1.195 . S
O54 C53 1.313 . S
C55 O56 1.245 . S
C55 O64 1.289 . S
O56 C55 1.245 . S
C57 O58 1.245 1_565 S
C57 O59 1.289 . S
O58 C57 1.245 1_545 S
O59 Mg52 2.141 . S
O59 C57 1.289 . S
O60 Mg52 2.048 . S
O60 C53 1.195 . S
O61 Mg52 2.048 . S
O61 C62 1.195 . S
C62 O61 1.195 . S
C62 O63 1.313 . S
O63 C62 1.313 . S
O64 Mg52 2.141 1_655 S
O64 C55 1.289 . S
Mg65 O72 2.141 . S
Mg65 O73 2.048 . S
Mg65 O74 2.048 . S
Mg65 O77 2.141 . S
C66 O67 1.313 . S
C66 O73 1.195 . S
O67 C66 1.313 . S
C68 O69 1.245 . S
C68 O77 1.289 . S
O69 C68 1.245 . S
C70 O71 1.245 . S
C70 O72 1.289 . S
O71 C70 1.245 . S
O72 Mg65 2.141 . S
O72 C70 1.289 . S
O73 Mg65 2.048 . S
O73 C66 1.195 . S
O74 Mg65 2.048 . S
O74 C75 1.195 . S
C75 O74 1.195 . S
C75 O76 1.313 . S
O76 C75 1.313 . S
O77 Mg65 2.141 . S
O77 C68 1.289 . S
Mg78 O85 2.141 . S
Mg78 O86 2.048 . S
Mg78 O87 2.048 . S
Mg78 O90 2.141 . S
C79 O80 1.313 . S
C79 O86 1.195 . S
O80 C79 1.313 . S
C81 O82 1.245 . S
C81 O90 1.289 . S
O82 C81 1.245 . S
C83 O84 1.245 1_545 S
C83 O85 1.289 . S
O84 C83 1.245 1_565 S
O85 Mg78 2.141 . S
O85 C83 1.289 . S
O86 Mg78 2.048 . S
O86 C79 1.195 . S
O87 Mg78 2.048 . S
O87 C88 1.195 . S
C88 O87 1.195 . S
C88 O89 1.313 . S
O89 C88 1.313 . S
O90 Mg78 2.141 . S
O90 C81 1.289 . S
Mg91 O98 2.141 . S
Mg91 O99 2.048 . S
Mg91 O100 2.048 . S
Mg91 O103 2.141 . S
C92 O93 1.313 . S
C92 O99 1.195 . S
O93 C92 1.313 . S
C94 O95 1.245 . S
C94 O103 1.289 . S
O95 C94 1.245 . S
C96 O97 1.245 . S
C96 O98 1.289 . S
O97 C96 1.245 . S
O98 Mg91 2.141 . S
O98 C96 1.289 . S
O99 Mg91 2.048 . S
O99 C92 1.195 . S
O100 Mg91 2.048 . S
O100 C101 1.195 . S
C101 O100 1.195 . S
C101 O102 1.313 . S
O102 C101 1.313 . S
O103 Mg91 2.141 . S
O103 C94 1.289 . S
Mg104 O111 2.141 . S
Mg104 O112 2.048 . S
Mg104 O113 2.048 . S
Mg104 O116 2.141 1_545 S
C105 O106 1.313 . S
C105 O112 1.195 . S
O106 C105 1.313 . S
C107 O108 1.245 . S
C107 O116 1.289 . S
O108 C107 1.245 . S
C109 O110 1.245 1_554 S
C109 O111 1.289 . S
O110 C109 1.245 1_556 S
O111 Mg104 2.141 . S
O111 C109 1.289 . S
O112 Mg104 2.048 . S
O112 C105 1.195 . S
O113 Mg104 2.048 . S
O113 C114 1.195 . S
C114 O113 1.195 . S
C114 O115 1.313 . S
O115 C114 1.313 . S
O116 Mg104 2.141 1_565 S
O116 C107 1.289 . S
Mg117 O124 2.141 . S
Mg117 O125 2.048 . S
Mg117 O126 2.048 . S
Mg117 O129 2.141 . S
C118 O119 1.313 . S
C118 O125 1.195 . S
O119 C118 1.313 . S
C120 O121 1.245 . S
C120 O129 1.289 . S
O121 C120 1.245 . S
C122 O123 1.245 . S
C122 O124 1.289 . S
O123 C122 1.245 . S
O124 Mg117 2.141 . S
O124 C122 1.289 . S
O125 Mg117 2.048 . S
O125 C118 1.195 . S
O126 Mg117 2.048 . S
O126 C127 1.195 . S
C127 O126 1.195 . S
C127 O128 1.313 . S
O128 C127 1.313 . S
O129 Mg117 2.141 . S
O129 C120 1.289 . S
Mg130 O137 2.141 . S
Mg130 O138 2.048 . S
Mg130 O139 2.048 . S
Mg130 O142 2.141 1_565 S
C131 O132 1.313 . S
C131 O138 1.195 . S
O132 C131 1.313 . S
C133 O134 1.245 . S
C133 O142 1.289 . S
O134 C133 1.245 . S
C135 O136 1.245 . S
C135 O137 1.289 . S
O136 C135 1.245 . S
O137 Mg130 2.141 . S
O137 C135 1.289 . S
O138 Mg130 2.048 . S
O138 C131 1.195 . S
O139 Mg130 2.048 . S
O139 C140 1.195 . S
C140 O139 1.195 . S
C140 O141 1.313 . S
O141 C140 1.313 . S
O142 Mg130 2.141 1_545 S
O142 C133 1.289 . S
Mg143 O150 2.141 . S
Mg143 O151 2.048 . S
Mg143 O152 2.048 . S
Mg143 O155 2.141 . S
C144 O145 1.313 . S
C144 O151 1.195 . S
O145 C144 1.313 . S
C146 O147 1.245 . S
C146 O155 1.289 . S
O147 C146 1.245 . S
C148 O149 1.245 . S
C148 O150 1.289 . S
O149 C148 1.245 . S
O150 Mg143 2.141 . S
O150 C148 1.289 . S
O151 Mg143 2.048 . S
O151 C144 1.195 . S
O152 Mg143 2.048 . S
O152 C153 1.195 . S
C153 O152 1.195 . S
C153 O154 1.313 . S
O154 C153 1.313 . S
O155 Mg143 2.141 . S
O155 C146 1.289 . S
Mg156 O163 2.141 . S
Mg156 O164 2.048 . S
Mg156 O165 2.048 . S
Mg156 O168 2.141 1_565 S
C157 O158 1.313 . S
C157 O164 1.195 . S
O158 C157 1.313 . S
C159 O160 1.245 . S
C159 O168 1.289 . S
O160 C159 1.245 . S
C161 O162 1.245 . S
C161 O163 1.289 . S
O162 C161 1.245 . S
O163 Mg156 2.141 . S
O163 C161 1.289 . S
O164 Mg156 2.048 . S
O164 C157 1.195 . S
O165 Mg156 2.048 . S
O165 C166 1.195 . S
C166 O165 1.195 . S
C166 O167 1.313 . S
O167 C166 1.313 . S
O168 Mg156 2.141 1_545 S
O168 C159 1.289 . S
Mg169 O176 2.141 . S
Mg169 O177 2.048 . S
Mg169 O178 2.048 . S
Mg169 O181 2.141 . S
C170 O171 1.313 . S
C170 O177 1.195 . S
O171 C170 1.313 . S
C172 O173 1.245 . S
C172 O181 1.289 . S
O173 C172 1.245 . S
C174 O175 1.245 . S
C174 O176 1.289 . S
O175 C174 1.245 . S
O176 Mg169 2.141 . S
O176 C174 1.289 . S
O177 Mg169 2.048 . S
O177 C170 1.195 . S
O178 Mg169 2.048 . S
O178 C179 1.195 . S
C179 O178 1.195 . S
C179 O180 1.313 . S
O180 C179 1.313 . S
O181 Mg169 2.141 . S
O181 C172 1.289 . S
Mg182 O189 2.141 . S
Mg182 O190 2.048 . S
Mg182 O191 2.048 . S
Mg182 O194 2.141 1_545 S
C183 O184 1.313 . S
C183 O190 1.195 . S
O184 C183 1.313 . S
C185 O186 1.245 . S
C185 O194 1.289 . S
O186 C185 1.245 . S
C187 O188 1.245 1_556 S
C187 O189 1.289 . S
O188 C187 1.245 1_554 S
O189 Mg182 2.141 . S
O189 C187 1.289 . S
O190 Mg182 2.048 . S
O190 C183 1.195 . S
O191 Mg182 2.048 . S
O191 C192 1.195 . S
C192 O191 1.195 . S
C192 O193 1.313 . S
O193 C192 1.313 . S
O194 Mg182 2.141 1_565 S
O194 C185 1.289 . S
Mg195 O202 2.141 . S
Mg195 O203 2.048 . S
Mg195 O204 2.048 . S
Mg195 O207 2.141 . S
C196 O197 1.313 . S
C196 O203 1.195 . S
O197 C196 1.313 . S
C198 O199 1.245 . S
C198 O207 1.289 . S
O199 C198 1.245 . S
C200 O201 1.245 . S
C200 O202 1.289 . S
O201 C200 1.245 . S
O202 Mg195 2.141 . S
O202 C200 1.289 . S
O203 Mg195 2.048 . S
O203 C196 1.195 . S
O204 Mg195 2.048 . S
O204 C205 1.195 . S
C205 O204 1.195 . S
C205 O206 1.313 . S
O206 C205 1.313 . S
O207 Mg195 2.141 . S
O207 C198 1.289 . S
Mg208 O215 2.141 . S
Mg208 O216 2.048 . S
Mg208 O217 2.048 . S
Mg208 O220 2.141 1_554 S
C209 O210 1.313 . S
C209 O216 1.195 . S
O210 C209 1.313 . S
C211 O212 1.245 . S
C211 O220 1.289 . S
O212 C211 1.245 . S
C213 O214 1.245 1_455 S
C213 O215 1.289 . S
O214 C213 1.245 1_655 S
O215 Mg208 2.141 . S
O215 C213 1.289 . S
O216 Mg208 2.048 . S
O216 C209 1.195 . S
O217 Mg208 2.048 . S
O217 C218 1.195 . S
C218 O217 1.195 . S
C218 O219 1.313 . S
O219 C218 1.313 . S
O220 Mg208 2.141 1_556 S
O220 C211 1.289 . S
Mg221 O228 2.141 . S
Mg221 O229 2.048 . S
Mg221 O230 2.048 . S
Mg221 O233 2.141 1_556 S
C222 O223 1.313 . S
C222 O229 1.195 . S
O223 C222 1.313 . S
C224 O225 1.245 . S
C224 O233 1.289 . S
O225 C224 1.245 . S
C226 O227 1.245 . S
C226 O228 1.289 . S
O227 C226 1.245 . S
O228 Mg221 2.141 . S
O228 C226 1.289 . S
O229 Mg221 2.048 . S
O229 C222 1.195 . S
O230 Mg221 2.048 . S
O230 C231 1.195 . S
C231 O230 1.195 . S
C231 O232 1.313 . S
O232 C231 1.313 . S
O233 Mg221 2.141 1_554 S
O233 C224 1.289 . S
Mg234 O241 2.141 . S
Mg234 O242 2.048 . S
Mg234 O243 2.048 . S
Mg234 O246 2.141 . S
C235 O236 1.313 . S
C235 O242 1.195 . S
O236 C235 1.313 . S
C237 O238 1.245 . S
C237 O246 1.289 . S
O238 C237 1.245 . S
C239 O240 1.245 . S
C239 O241 1.289 . S
O240 C239 1.245 . S
O241 Mg234 2.141 . S
O241 C239 1.289 . S
O242 Mg234 2.048 . S
O242 C235 1.195 . S
O243 Mg234 2.048 . S
O243 C244 1.195 . S
C244 O243 1.195 . S
C244 O245 1.313 . S
O245 C244 1.313 . S
O246 Mg234 2.141 . S
O246 C237 1.289 . S
Mg247 O254 2.141 . S
Mg247 O255 2.048 . S
Mg247 O256 2.048 . S
Mg247 O259 2.141 . S
C248 O249 1.313 . S
C248 O255 1.195 . S
O249 C248 1.313 . S
C250 O251 1.245 . S
C250 O259 1.289 . S
O251 C250 1.245 . S
C252 O253 1.245 1_655 S
C252 O254 1.289 . S
O253 C252 1.245 1_455 S
O254 Mg247 2.141 . S
O254 C252 1.289 . S
O255 Mg247 2.048 . S
O255 C248 1.195 . S
O256 Mg247 2.048 . S
O256 C257 1.195 . S
C257 O256 1.195 . S
C257 O258 1.313 . S
O258 C257 1.313 . S
O259 Mg247 2.141 . S
O259 C250 1.289 . S
Mg260 O267 2.141 . S
Mg260 O268 2.048 . S
Mg260 O269 2.048 . S
Mg260 O272 2.141 . S
C261 O262 1.313 . S
C261 O268 1.195 . S
O262 C261 1.313 . S
C263 O264 1.245 . S
C263 O272 1.289 . S
O264 C263 1.245 . S
C265 O266 1.245 . S
C265 O267 1.289 . S
O266 C265 1.245 . S
O267 Mg260 2.141 . S
O267 C265 1.289 . S
O268 Mg260 2.048 . S
O268 C261 1.195 . S
O269 Mg260 2.048 . S
O269 C270 1.195 . S
C270 O269 1.195 . S
C270 O271 1.313 . S
O271 C270 1.313 . S
O272 Mg260 2.141 . S
O272 C263 1.289 . S
Mg273 O280 2.141 . S
Mg273 O281 2.048 . S
Mg273 O282 2.048 . S
Mg273 O285 2.141 . S
C274 O275 1.313 . S
C274 O281 1.195 . S
O275 C274 1.313 . S
C276 O277 1.245 . S
C276 O285 1.289 . S
O277 C276 1.245 . S
C278 O279 1.245 . S
C278 O280 1.289 . S
O279 C278 1.245 . S
O280 Mg273 2.141 . S
O280 C278 1.289 . S
O281 Mg273 2.048 . S
O281 C274 1.195 . S
O282 Mg273 2.048 . S
O282 C283 1.195 . S
C283 O282 1.195 . S
C283 O284 1.313 . S
O284 C283 1.313 . S
O285 Mg273 2.141 . S
O285 C276 1.289 . S
Mg286 O293 2.141 . S
Mg286 O294 2.048 . S
Mg286 O295 2.048 . S
Mg286 O298 2.141 . S
C287 O288 1.313 . S
C287 O294 1.195 . S
O288 C287 1.313 . S
C289 O290 1.245 . S
C289 O298 1.289 . S
O290 C289 1.245 . S
C291 O292 1.245 . S
C291 O293 1.289 . S
O292 C291 1.245 . S
O293 Mg286 2.141 . S
O293 C291 1.289 . S
O294 Mg286 2.048 . S
O294 C287 1.195 . S
O295 Mg286 2.048 . S
O295 C296 1.195 . S
C296 O295 1.195 . S
C296 O297 1.313 . S
O297 C296 1.313 . S
O298 Mg286 2.141 . S
O298 C289 1.289 . S
Mg299 O306 2.141 . S
Mg299 O307 2.048 . S
Mg299 O308 2.048 . S
Mg299 O311 2.141 . S
C300 O301 1.313 . S
C300 O307 1.195 . S
O301 C300 1.313 . S
C302 O303 1.245 . S
C302 O311 1.289 . S
O303 C302 1.245 . S
C304 O305 1.245 . S
C304 O306 1.289 . S
O305 C304 1.245 . S
O306 Mg299 2.141 . S
O306 C304 1.289 . S
O307 Mg299 2.048 . S
O307 C300 1.195 . S
O308 Mg299 2.048 . S
O308 C309 1.195 . S
C309 O308 1.195 . S
C309 O310 1.313 . S
O310 C309 1.313 . S
O311 Mg299 2.141 . S
O311 C302 1.289 . S
Mg312 O319 2.141 . S
Mg312 O320 2.048 . S
Mg312 O321 2.048 . S
Mg312 O324 2.141 1_655 S
C313 O314 1.313 . S
C313 O320 1.195 . S
O314 C313 1.313 . S
C315 O316 1.245 . S
C315 O324 1.289 . S
O316 C315 1.245 . S
C317 O318 1.245 . S
C317 O319 1.289 . S
O318 C317 1.245 . S
O319 Mg312 2.141 . S
O319 C317 1.289 . S
O320 Mg312 2.048 . S
O320 C313 1.195 . S
O321 Mg312 2.048 . S
O321 C322 1.195 . S
C322 O321 1.195 . S
C322 O323 1.313 . S
O323 C322 1.313 . S
O324 Mg312 2.141 1_455 S
O324 C315 1.289 . S
Mg325 O332 2.141 . S
Mg325 O333 2.048 . S
Mg325 O334 2.048 . S
Mg325 O337 2.141 . S
C326 O327 1.313 . S
C326 O333 1.195 . S
O327 C326 1.313 . S
C328 O329 1.245 . S
C328 O337 1.289 . S
O329 C328 1.245 . S
C330 O331 1.245 . S
C330 O332 1.289 . S
O331 C330 1.245 . S
O332 Mg325 2.141 . S
O332 C330 1.289 . S
O333 Mg325 2.048 . S
O333 C326 1.195 . S
O334 Mg325 2.048 . S
O334 C335 1.195 . S
C335 O334 1.195 . S
C335 O336 1.313 . S
O336 C335 1.313 . S
O337 Mg325 2.141 . S
O337 C328 1.289 . S
Mg338 O345 2.141 . S
Mg338 O346 2.048 . S
Mg338 O347 2.048 . S
Mg338 O350 2.141 . S
C339 O340 1.313 . S
C339 O346 1.195 . S
O340 C339 1.313 . S
C341 O342 1.245 . S
C341 O350 1.289 . S
O342 C341 1.245 . S
C343 O344 1.245 . S
C343 O345 1.289 . S
O344 C343 1.245 . S
O345 Mg338 2.141 . S
O345 C343 1.289 . S
O346 Mg338 2.048 . S
O346 C339 1.195 . S
O347 Mg338 2.048 . S
O347 C348 1.195 . S
C348 O347 1.195 . S
C348 O349 1.313 . S
O349 C348 1.313 . S
O350 Mg338 2.141 . S
O350 C341 1.289 . S
Mg351 O358 2.141 . S
Mg351 O359 2.048 . S
Mg351 O360 2.048 . S
Mg351 O363 2.141 . S
C352 O353 1.313 . S
C352 O359 1.195 . S
O353 C352 1.313 . S
C354 O355 1.245 . S
C354 O363 1.289 . S
O355 C354 1.245 . S
C356 O357 1.244 1_556 S
C356 O358 1.289 . S
O357 C356 1.244 1_554 S
O358 Mg351 2.141 . S
O358 C356 1.289 . S
O359 Mg351 2.048 . S
O359 C352 1.195 . S
O360 Mg351 2.048 . S
O360 C361 1.195 . S
C361 O360 1.195 . S
C361 O362 1.313 . S
O362 C361 1.313 . S
O363 Mg351 2.141 . S
O363 C354 1.289 . S
Mg364 O371 2.141 . S
Mg364 O372 2.048 . S
Mg364 O373 2.048 . S
Mg364 O376 2.141 1_655 S
C365 O366 1.313 . S
C365 O372 1.195 . S
O366 C365 1.313 . S
C367 O368 1.245 . S
C367 O376 1.289 . S
O368 C367 1.245 . S
C369 O370 1.245 . S
C369 O371 1.289 . S
O370 C369 1.245 . S
O371 Mg364 2.141 . S
O371 C369 1.289 . S
O372 Mg364 2.048 . S
O372 C365 1.195 . S
O373 Mg364 2.048 . S
O373 C374 1.195 . S
C374 O373 1.195 . S
C374 O375 1.313 . S
O375 C374 1.313 . S
O376 Mg364 2.141 1_455 S
O376 C367 1.289 . S
Mg377 O384 2.141 . S
Mg377 O385 2.048 . S
Mg377 O386 2.048 . S
Mg377 O389 2.141 . S
C378 O379 1.313 . S
C378 O385 1.195 . S
O379 C378 1.313 . S
C380 O381 1.245 . S
C380 O389 1.289 . S
O381 C380 1.245 . S
C382 O383 1.245 . S
C382 O384 1.289 . S
O383 C382 1.245 . S
O384 Mg377 2.141 . S
O384 C382 1.289 . S
O385 Mg377 2.048 . S
O385 C378 1.195 . S
O386 Mg377 2.048 . S
O386 C387 1.195 . S
C387 O386 1.195 . S
C387 O388 1.313 . S
O388 C387 1.313 . S
O389 Mg377 2.141 . S
O389 C380 1.289 . S
Mg390 O397 2.141 . S
Mg390 O398 2.048 . S
Mg390 O399 2.048 . S
Mg390 O402 2.141 . S
C391 O392 1.313 . S
C391 O398 1.195 . S
O392 C391 1.313 . S
C393 O394 1.245 . S
C393 O402 1.289 . S
O394 C393 1.245 . S
C395 O396 1.245 . S
C395 O397 1.289 . S
O396 C395 1.245 . S
O397 Mg390 2.141 . S
O397 C395 1.289 . S
O398 Mg390 2.048 . S
O398 C391 1.195 . S
O399 Mg390 2.048 . S
O399 C400 1.195 . S
C400 O399 1.195 . S
C400 O401 1.313 . S
O401 C400 1.313 . S
O402 Mg390 2.141 . S
O402 C393 1.289 . S
Mg403 O410 2.141 . S
Mg403 O411 2.048 . S
Mg403 O412 2.048 . S
Mg403 O415 2.141 . S
C404 O405 1.313 . S
C404 O411 1.195 . S
O405 C404 1.313 . S
C406 O407 1.245 . S
C406 O415 1.289 . S
O407 C406 1.245 . S
C408 O409 1.244 1_554 S
C408 O410 1.289 . S
O409 C408 1.244 1_556 S
O410 Mg403 2.141 . S
O410 C408 1.289 . S
O411 Mg403 2.048 . S
O411 C404 1.195 . S
O412 Mg403 2.048 . S
O412 C413 1.195 . S
C413 O412 1.195 . S
C413 O414 1.313 . S
O414 C413 1.313 . S
O415 Mg403 2.141 . S
O415 C406 1.289 . S
Mg416 O423 2.141 1_565 S
Mg416 O424 2.048 . S
Mg416 O425 2.048 . S
Mg416 O428 2.141 . S
C417 O418 1.313 . S
C417 O424 1.195 . S
O418 C417 1.313 . S
C419 O420 1.245 1_556 S
C419 O428 1.289 . S
O420 C419 1.245 1_554 S
C421 O422 1.245 . S
C421 O423 1.289 . S
O422 C421 1.245 . S
O423 Mg416 2.141 1_545 S
O423 C421 1.289 . S
O424 Mg416 2.048 . S
O424 C417 1.195 . S
O425 Mg416 2.048 . S
O425 C426 1.195 . S
C426 O425 1.195 . S
C426 O427 1.313 . S
O427 C426 1.313 . S
O428 Mg416 2.141 . S
O428 C419 1.289 . S
Mg429 O436 2.141 . S
Mg429 O437 2.048 . S
Mg429 O438 2.048 . S
Mg429 O441 2.141 . S
C430 O431 1.313 . S
C430 O437 1.195 . S
O431 C430 1.313 . S
C432 O433 1.245 . S
C432 O441 1.289 . S
O433 C432 1.245 . S
C434 O435 1.244 1_565 S
C434 O436 1.289 . S
O435 C434 1.244 1_545 S
O436 Mg429 2.141 . S
O436 C434 1.289 . S
O437 Mg429 2.048 . S
O437 C430 1.195 . S
O438 Mg429 2.048 . S
O438 C439 1.195 . S
C439 O438 1.195 . S
C439 O440 1.313 . S
O440 C439 1.313 . S
O441 Mg429 2.141 . S
O441 C432 1.289 . S
Mg442 O449 2.141 1_545 S
Mg442 O450 2.048 . S
Mg442 O451 2.048 . S
Mg442 O454 2.141 . S
C443 O444 1.313 . S
C443 O450 1.195 . S
O444 C443 1.313 . S
C445 O446 1.245 . S
C445 O454 1.289 . S
O446 C445 1.245 . S
C447 O448 1.245 . S
C447 O449 1.289 . S
O448 C447 1.245 . S
O449 Mg442 2.141 1_565 S
O449 C447 1.289 . S
O450 Mg442 2.048 . S
O450 C443 1.195 . S
O451 Mg442 2.048 . S
O451 C452 1.195 . S
C452 O451 1.195 . S
C452 O453 1.313 . S
O453 C452 1.313 . S
O454 Mg442 2.141 . S
O454 C445 1.289 . S
Mg455 O462 2.141 . S
Mg455 O463 2.048 . S
Mg455 O464 2.048 . S
Mg455 O467 2.141 . S
C456 O457 1.313 . S
C456 O463 1.195 . S
O457 C456 1.313 . S
C458 O459 1.245 . S
C458 O467 1.289 . S
O459 C458 1.245 . S
C460 O461 1.244 1_545 S
C460 O462 1.289 . S
O461 C460 1.244 1_565 S
O462 Mg455 2.141 . S
O462 C460 1.289 . S
O463 Mg455 2.048 . S
O463 C456 1.195 . S
O464 Mg455 2.048 . S
O464 C465 1.195 . S
C465 O464 1.195 . S
C465 O466 1.313 . S
O466 C465 1.313 . S
O467 Mg455 2.141 . S
O467 C458 1.289 . S
Mg468 O475 2.141 1_545 S
Mg468 O476 2.048 . S
Mg468 O477 2.048 . S
Mg468 O480 2.141 . S
C469 O470 1.313 . S
C469 O476 1.195 . S
O470 C469 1.313 . S
C471 O472 1.245 . S
C471 O480 1.289 . S
O472 C471 1.245 . S
C473 O474 1.245 . S
C473 O475 1.289 . S
O474 C473 1.245 . S
O475 Mg468 2.141 1_565 S
O475 C473 1.289 . S
O476 Mg468 2.048 . S
O476 C469 1.195 . S
O477 Mg468 2.048 . S
O477 C478 1.195 . S
C478 O477 1.195 . S
C478 O479 1.313 . S
O479 C478 1.313 . S
O480 Mg468 2.141 . S
O480 C471 1.289 . S
Mg481 O488 2.141 . S
Mg481 O489 2.048 . S
Mg481 O490 2.048 . S
Mg481 O493 2.141 . S
C482 O483 1.313 . S
C482 O489 1.195 . S
O483 C482 1.313 . S
C484 O485 1.245 . S
C484 O493 1.289 . S
O485 C484 1.245 . S
C486 O487 1.244 1_565 S
C486 O488 1.289 . S
O487 C486 1.244 1_545 S
O488 Mg481 2.141 . S
O488 C486 1.289 . S
O489 Mg481 2.048 . S
O489 C482 1.195 . S
O490 Mg481 2.048 . S
O490 C491 1.195 . S
C491 O490 1.195 . S
C491 O492 1.313 . S
O492 C491 1.313 . S
O493 Mg481 2.141 . S
O493 C484 1.289 . S
Mg494 O501 2.141 1_565 S
Mg494 O502 2.048 . S
Mg494 O503 2.048 . S
Mg494 O506 2.141 . S
C495 O496 1.313 . S
C495 O502 1.195 . S
O496 C495 1.313 . S
C497 O498 1.245 1_554 S
C497 O506 1.289 . S
O498 C497 1.245 1_556 S
C499 O500 1.245 . S
C499 O501 1.289 . S
O500 C499 1.245 . S
O501 Mg494 2.141 1_545 S
O501 C499 1.289 . S
O502 Mg494 2.048 . S
O502 C495 1.195 . S
O503 Mg494 2.048 . S
O503 C504 1.195 . S
C504 O503 1.195 . S
C504 O505 1.313 . S
O505 C504 1.313 . S
O506 Mg494 2.141 . S
O506 C497 1.289 . S
Mg507 O514 2.141 . S
Mg507 O515 2.048 . S
Mg507 O516 2.048 . S
Mg507 O519 2.141 . S
C508 O509 1.313 . S
C508 O515 1.195 . S
O509 C508 1.313 . S
C510 O511 1.245 . S
C510 O519 1.289 . S
O511 C510 1.245 . S
C512 O513 1.244 1_545 S
C512 O514 1.289 . S
O513 C512 1.244 1_565 S
O514 Mg507 2.141 . S
O514 C512 1.289 . S
O515 Mg507 2.048 . S
O515 C508 1.195 . S
O516 Mg507 2.048 . S
O516 C517 1.195 . S
C517 O516 1.195 . S
C517 O518 1.313 . S
O518 C517 1.313 . S
O519 Mg507 2.141 . S
O519 C510 1.289 . S
Mg520 O527 2.141 . S
Mg520 O528 2.048 . S
Mg520 O529 2.048 . S
Mg520 O532 2.141 1_556 S
C521 O522 1.313 . S
C521 O528 1.195 . S
O522 C521 1.313 . S
C523 O524 1.245 . S
C523 O532 1.289 . S
O524 C523 1.245 . S
C525 O526 1.245 . S
C525 O527 1.289 . S
O526 C525 1.245 . S
O527 Mg520 2.141 . S
O527 C525 1.289 . S
O528 Mg520 2.048 . S
O528 C521 1.195 . S
O529 Mg520 2.048 . S
O529 C530 1.195 . S
C530 O529 1.195 . S
C530 O531 1.313 . S
O531 C530 1.313 . S
O532 Mg520 2.141 1_554 S
O532 C523 1.289 . S
Mg533 O540 2.141 . S
Mg533 O541 2.048 . S
Mg533 O542 2.048 . S
Mg533 O545 2.141 1_554 S
C534 O535 1.313 . S
C534 O541 1.195 . S
O535 C534 1.313 . S
C536 O537 1.245 . S
C536 O545 1.289 . S
O537 C536 1.245 . S
C538 O539 1.245 . S
C538 O540 1.289 . S
O539 C538 1.245 . S
O540 Mg533 2.141 . S
O540 C538 1.289 . S
O541 Mg533 2.048 . S
O541 C534 1.195 . S
O542 Mg533 2.048 . S
O542 C543 1.195 . S
C543 O542 1.195 . S
C543 O544 1.313 . S
O544 C543 1.313 . S
O545 Mg533 2.141 1_556 S
O545 C536 1.289 . S
Mg546 O553 2.141 . S
Mg546 O554 2.048 . S
Mg546 O555 2.048 . S
Mg546 O558 2.141 . S
C547 O548 1.313 . S
C547 O554 1.195 . S
O548 C547 1.313 . S
C549 O550 1.245 . S
C549 O558 1.289 . S
O550 C549 1.245 . S
C551 O552 1.245 . S
C551 O553 1.289 . S
O552 C551 1.245 . S
O553 Mg546 2.141 . S
O553 C551 1.289 . S
O554 Mg546 2.048 . S
O554 C547 1.195 . S
O555 Mg546 2.048 . S
O555 C556 1.195 . S
C556 O555 1.195 . S
C556 O557 1.313 . S
O557 C556 1.313 . S
O558 Mg546 2.141 . S
O558 C549 1.289 . S
Mg559 O566 2.141 . S
Mg559 O567 2.048 . S
Mg559 O568 2.048 . S
Mg559 O571 2.141 . S
C560 O561 1.313 . S
C560 O567 1.195 . S
O561 C560 1.313 . S
C562 O563 1.245 . S
C562 O571 1.289 . S
O563 C562 1.245 . S
C564 O565 1.245 . S
C564 O566 1.289 . S
O565 C564 1.245 . S
O566 Mg559 2.141 . S
O566 C564 1.289 . S
O567 Mg559 2.048 . S
O567 C560 1.195 . S
O568 Mg559 2.048 . S
O568 C569 1.195 . S
C569 O568 1.195 . S
C569 O570 1.313 . S
O570 C569 1.313 . S
O571 Mg559 2.141 . S
O571 C562 1.289 . S
Mg572 O579 2.141 . S
Mg572 O580 2.048 . S
Mg572 O581 2.048 . S
Mg572 O584 2.141 . S
C573 O574 1.313 . S
C573 O580 1.195 . S
O574 C573 1.313 . S
C575 O576 1.245 . S
C575 O584 1.289 . S
O576 C575 1.245 . S
C577 O578 1.245 . S
C577 O579 1.289 . S
O578 C577 1.245 . S
O579 Mg572 2.141 . S
O579 C577 1.289 . S
O580 Mg572 2.048 . S
O580 C573 1.195 . S
O581 Mg572 2.048 . S
O581 C582 1.195 . S
C582 O581 1.195 . S
C582 O583 1.313 . S
O583 C582 1.313 . S
O584 Mg572 2.141 . S
O584 C575 1.289 . S
Mg585 O592 2.141 . S
Mg585 O593 2.048 . S
Mg585 O594 2.048 . S
Mg585 O597 2.141 . S
C586 O587 1.313 . S
C586 O593 1.195 . S
O587 C586 1.313 . S
C588 O589 1.245 . S
C588 O597 1.289 . S
O589 C588 1.245 . S
C590 O591 1.245 . S
C590 O592 1.289 . S
O591 C590 1.245 . S
O592 Mg585 2.141 . S
O592 C590 1.289 . S
O593 Mg585 2.048 . S
O593 C586 1.195 . S
O594 Mg585 2.048 . S
O594 C595 1.195 . S
C595 O594 1.195 . S
C595 O596 1.313 . S
O596 C595 1.313 . S
O597 Mg585 2.141 . S
O597 C588 1.289 . S
Mg598 O605 2.141 . S
Mg598 O606 2.048 . S
Mg598 O607 2.048 . S
Mg598 O610 2.141 . S
C599 O600 1.313 . S
C599 O606 1.195 . S
O600 C599 1.313 . S
C601 O602 1.245 . S
C601 O610 1.289 . S
O602 C601 1.245 . S
C603 O604 1.245 . S
C603 O605 1.289 . S
O604 C603 1.245 . S
O605 Mg598 2.141 . S
O605 C603 1.289 . S
O606 Mg598 2.048 . S
O606 C599 1.195 . S
O607 Mg598 2.048 . S
O607 C608 1.195 . S
C608 O607 1.195 . S
C608 O609 1.313 . S
O609 C608 1.313 . S
O610 Mg598 2.141 . S
O610 C601 1.289 . S
Mg611 O618 2.141 . S
Mg611 O619 2.048 . S
Mg611 O620 2.048 . S
Mg611 O623 2.141 . S
C612 O613 1.313 . S
C612 O619 1.195 . S
O613 C612 1.313 . S
C614 O615 1.245 . S
C614 O623 1.289 . S
O615 C614 1.245 . S
C616 O617 1.245 . S
C616 O618 1.289 . S
O617 C616 1.245 . S
O618 Mg611 2.141 . S
O618 C616 1.289 . S
O619 Mg611 2.048 . S
O619 C612 1.195 . S
O620 Mg611 2.048 . S
O620 C621 1.195 . S
C621 O620 1.195 . S
C621 O622 1.313 . S
O622 C621 1.313 . S
O623 Mg611 2.141 . S
O623 C614 1.289 . S
Mg624 O631 2.141 . S
Mg624 O632 2.048 . S
Mg624 O633 2.048 . S
Mg624 O636 2.141 . S
C625 O626 1.313 . S
C625 O632 1.195 . S
O626 C625 1.313 . S
C627 O628 1.245 . S
C627 O636 1.289 . S
O628 C627 1.245 . S
C629 O630 1.245 . S
C629 O631 1.289 . S
O630 C629 1.245 . S
O631 Mg624 2.141 . S
O631 C629 1.289 . S
O632 Mg624 2.048 . S
O632 C625 1.195 . S
O633 Mg624 2.048 . S
O633 C634 1.195 . S
C634 O633 1.195 . S
C634 O635 1.313 . S
O635 C634 1.313 . S
O636 Mg624 2.141 . S
O636 C627 1.289 . S
Mg637 O644 2.141 . S
Mg637 O645 2.048 . S
Mg637 O646 2.048 . S
Mg637 O649 2.141 . S
C638 O639 1.313 . S
C638 O645 1.195 . S
O639 C638 1.313 . S
C640 O641 1.245 . S
C640 O649 1.289 . S
O641 C640 1.245 . S
C642 O643 1.245 . S
C642 O644 1.289 . S
O643 C642 1.245 . S
O644 Mg637 2.141 . S
O644 C642 1.289 . S
O645 Mg637 2.048 . S
O645 C638 1.195 . S
O646 Mg637 2.048 . S
O646 C647 1.195 . S
C647 O646 1.195 . S
C647 O648 1.313 . S
O648 C647 1.313 . S
O649 Mg637 2.141 . S
O649 C640 1.289 . S
Mg650 O657 2.141 . S
Mg650 O658 2.048 . S
Mg650 O659 2.048 . S
Mg650 O662 2.141 1_655 S
C651 O652 1.313 . S
C651 O658 1.195 . S
O652 C651 1.313 . S
C653 O654 1.245 . S
C653 O662 1.289 . S
O654 C653 1.245 . S
C655 O656 1.245 . S
C655 O657 1.289 . S
O656 C655 1.245 . S
O657 Mg650 2.141 . S
O657 C655 1.289 . S
O658 Mg650 2.048 . S
O658 C651 1.195 . S
O659 Mg650 2.048 . S
O659 C660 1.195 . S
C660 O659 1.195 . S
C660 O661 1.313 . S
O661 C660 1.313 . S
O662 Mg650 2.141 1_455 S
O662 C653 1.289 . S
Mg663 O670 2.141 . S
Mg663 O671 2.048 . S
Mg663 O672 2.048 . S
Mg663 O675 2.141 . S
C664 O665 1.313 . S
C664 O671 1.195 . S
O665 C664 1.313 . S
C666 O667 1.245 . S
C666 O675 1.289 . S
O667 C666 1.245 . S
C668 O669 1.245 . S
C668 O670 1.289 . S
O669 C668 1.245 . S
O670 Mg663 2.141 . S
O670 C668 1.289 . S
O671 Mg663 2.048 . S
O671 C664 1.195 . S
O672 Mg663 2.048 . S
O672 C673 1.195 . S
C673 O672 1.195 . S
C673 O674 1.313 . S
O674 C673 1.313 . S
O675 Mg663 2.141 . S
O675 C666 1.289 . S
Mg676 O683 2.141 . S
Mg676 O684 2.048 . S
Mg676 O685 2.048 . S
Mg676 O688 2.141 . S
C677 O678 1.313 . S
C677 O684 1.195 . S
O678 C677 1.313 . S
C679 O680 1.245 . S
C679 O688 1.289 . S
O680 C679 1.245 . S
C681 O682 1.245 . S
C681 O683 1.289 . S
O682 C681 1.245 . S
O683 Mg676 2.141 . S
O683 C681 1.289 . S
O684 Mg676 2.048 . S
O684 C677 1.195 . S
O685 Mg676 2.048 . S
O685 C686 1.195 . S
C686 O685 1.195 . S
C686 O687 1.313 . S
O687 C686 1.313 . S
O688 Mg676 2.141 . S
O688 C679 1.289 . S
Mg689 O696 2.141 . S
Mg689 O697 2.048 . S
Mg689 O698 2.048 . S
Mg689 O701 2.141 . S
C690 O691 1.313 . S
C690 O697 1.195 . S
O691 C690 1.313 . S
C692 O693 1.245 . S
C692 O701 1.289 . S
O693 C692 1.245 . S
C694 O695 1.245 . S
C694 O696 1.289 . S
O695 C694 1.245 . S
O696 Mg689 2.141 . S
O696 C694 1.289 . S
O697 Mg689 2.048 . S
O697 C690 1.195 . S
O698 Mg689 2.048 . S
O698 C699 1.195 . S
C699 O698 1.195 . S
C699 O700 1.313 . S
O700 C699 1.313 . S
O701 Mg689 2.141 . S
O701 C692 1.289 . S
Mg702 O709 2.141 . S
Mg702 O710 2.048 . S
Mg702 O711 2.048 . S
Mg702 O714 2.141 1_655 S
C703 O704 1.313 . S
C703 O710 1.195 . S
O704 C703 1.313 . S
C705 O706 1.245 . S
C705 O714 1.289 . S
O706 C705 1.245 . S
C707 O708 1.245 . S
C707 O709 1.289 . S
O708 C707 1.245 . S
O709 Mg702 2.141 . S
O709 C707 1.289 . S
O710 Mg702 2.048 . S
O710 C703 1.195 . S
O711 Mg702 2.048 . S
O711 C712 1.195 . S
C712 O711 1.195 . S
C712 O713 1.313 . S
O713 C712 1.313 . S
O714 Mg702 2.141 1_455 S
O714 C705 1.289 . S
Mg715 O722 2.141 . S
Mg715 O723 2.048 . S
Mg715 O724 2.048 . S
Mg715 O727 2.141 . S
C716 O717 1.313 . S
C716 O723 1.195 . S
O717 C716 1.313 . S
C718 O719 1.245 . S
C718 O727 1.289 . S
O719 C718 1.245 . S
C720 O721 1.245 . S
C720 O722 1.289 . S
O721 C720 1.245 . S
O722 Mg715 2.141 . S
O722 C720 1.289 . S
O723 Mg715 2.048 . S
O723 C716 1.195 . S
O724 Mg715 2.048 . S
O724 C725 1.195 . S
C725 O724 1.195 . S
C725 O726 1.313 . S
O726 C725 1.313 . S
O727 Mg715 2.141 . S
O727 C718 1.289 . S
Mg728 O735 2.141 . S
Mg728 O736 2.048 . S
Mg728 O737 2.048 . S
Mg728 O740 2.141 . S
C729 O730 1.313 . S
C729 O736 1.195 . S
O730 C729 1.313 . S
C731 O732 1.245 . S
C731 O740 1.289 . S
O732 C731 1.245 . S
C733 O734 1.245 . S
C733 O735 1.289 . S
O734 C733 1.245 . S
O735 Mg728 2.141 . S
O735 C733 1.289 . S
O736 Mg728 2.048 . S
O736 C729 1.195 . S
O737 Mg728 2.048 . S
O737 C738 1.195 . S
C738 O737 1.195 . S
C738 O739 1.313 . S
O739 C738 1.313 . S
O740 Mg728 2.141 . S
O740 C731 1.289 . S
Mg741 O748 2.141 . S
Mg741 O749 2.048 . S
Mg741 O750 2.048 . S
Mg741 O753 2.141 . S
C742 O743 1.313 . S
C742 O749 1.195 . S
O743 C742 1.313 . S
C744 O745 1.245 . S
C744 O753 1.289 . S
O745 C744 1.245 . S
C746 O747 1.245 . S
C746 O748 1.289 . S
O747 C746 1.245 . S
O748 Mg741 2.141 . S
O748 C746 1.289 . S
O749 Mg741 2.048 . S
O749 C742 1.195 . S
O750 Mg741 2.048 . S
O750 C751 1.195 . S
C751 O750 1.195 . S
C751 O752 1.313 . S
O752 C751 1.313 . S
O753 Mg741 2.141 . S
O753 C744 1.289 . S
Mg754 O761 2.141 . S
Mg754 O762 2.048 . S
Mg754 O763 2.048 . S
Mg754 O766 2.141 . S
C755 O756 1.313 . S
C755 O762 1.195 . S
O756 C755 1.313 . S
C757 O758 1.245 . S
C757 O766 1.289 . S
O758 C757 1.245 . S
C759 O760 1.245 1_554 S
C759 O761 1.289 . S
O760 C759 1.245 1_556 S
O761 Mg754 2.141 . S
O761 C759 1.289 . S
O762 Mg754 2.048 . S
O762 C755 1.195 . S
O763 Mg754 2.048 . S
O763 C764 1.195 . S
C764 O763 1.195 . S
C764 O765 1.313 . S
O765 C764 1.313 . S
O766 Mg754 2.141 . S
O766 C757 1.289 . S
Mg767 O774 2.141 . S
Mg767 O775 2.048 . S
Mg767 O776 2.048 . S
Mg767 O779 2.141 . S
C768 O769 1.313 . S
C768 O775 1.195 . S
O769 C768 1.313 . S
C770 O771 1.245 . S
C770 O779 1.289 . S
O771 C770 1.245 . S
C772 O773 1.245 . S
C772 O774 1.289 . S
O773 C772 1.245 . S
O774 Mg767 2.141 . S
O774 C772 1.289 . S
O775 Mg767 2.048 . S
O775 C768 1.195 . S
O776 Mg767 2.048 . S
O776 C777 1.195 . S
C777 O776 1.195 . S
C777 O778 1.313 . S
O778 C777 1.313 . S
O779 Mg767 2.141 . S
O779 C770 1.289 . S
Mg780 O787 2.141 . S
Mg780 O788 2.048 . S
Mg780 O789 2.048 . S
Mg780 O792 2.141 . S
C781 O782 1.313 . S
C781 O788 1.195 . S
O782 C781 1.313 . S
C783 O784 1.245 . S
C783 O792 1.289 . S
O784 C783 1.245 . S
C785 O786 1.245 1_556 S
C785 O787 1.289 . S
O786 C785 1.245 1_554 S
O787 Mg780 2.141 . S
O787 C785 1.289 . S
O788 Mg780 2.048 . S
O788 C781 1.195 . S
O789 Mg780 2.048 . S
O789 C790 1.195 . S
C790 O789 1.195 . S
C790 O791 1.313 . S
O791 C790 1.313 . S
O792 Mg780 2.141 . S
O792 C783 1.289 . S
Mg793 O800 2.141 . S
Mg793 O801 2.048 . S
Mg793 O802 2.048 . S
Mg793 O805 2.141 . S
C794 O795 1.313 . S
C794 O801 1.195 . S
O795 C794 1.313 . S
C796 O797 1.245 . S
C796 O805 1.289 . S
O797 C796 1.245 . S
C798 O799 1.245 . S
C798 O800 1.289 . S
O799 C798 1.245 . S
O800 Mg793 2.141 . S
O800 C798 1.289 . S
O801 Mg793 2.048 . S
O801 C794 1.195 . S
O802 Mg793 2.048 . S
O802 C803 1.195 . S
C803 O802 1.195 . S
C803 O804 1.313 . S
O804 C803 1.313 . S
O805 Mg793 2.141 . S
O805 C796 1.289 . S
Mg806 O813 2.141 . S
Mg806 O814 2.048 . S
Mg806 O815 2.048 . S
Mg806 O818 2.141 . S
C807 O808 1.313 . S
C807 O814 1.195 . S
O808 C807 1.313 . S
C809 O810 1.245 . S
C809 O818 1.289 . S
O810 C809 1.245 . S
C811 O812 1.245 . S
C811 O813 1.289 . S
O812 C811 1.245 . S
O813 Mg806 2.141 . S
O813 C811 1.289 . S
O814 Mg806 2.048 . S
O814 C807 1.195 . S
O815 Mg806 2.048 . S
O815 C816 1.195 . S
C816 O815 1.195 . S
C816 O817 1.313 . S
O817 C816 1.313 . S
O818 Mg806 2.141 . S
O818 C809 1.289 . S
Mg819 O826 2.141 . S
Mg819 O827 2.048 . S
Mg819 O828 2.048 . S
Mg819 O831 2.141 . S
C820 O821 1.313 . S
C820 O827 1.195 . S
O821 C820 1.313 . S
C822 O823 1.245 . S
C822 O831 1.289 . S
O823 C822 1.245 . S
C824 O825 1.245 . S
C824 O826 1.289 . S
O825 C824 1.245 . S
O826 Mg819 2.141 . S
O826 C824 1.289 . S
O827 Mg819 2.048 . S
O827 C820 1.195 . S
O828 Mg819 2.048 . S
O828 C829 1.195 . S
C829 O828 1.195 . S
C829 O830 1.313 . S
O830 C829 1.313 . S
O831 Mg819 2.141 . S
O831 C822 1.289 . S
Mg832 O839 2.141 . S
Mg832 O840 2.048 . S
Mg832 O841 2.048 . S
Mg832 O844 2.141 . S
C833 O834 1.313 . S
C833 O840 1.195 . S
O834 C833 1.313 . S
C835 O836 1.245 . S
C835 O844 1.289 . S
O836 C835 1.245 . S
C837 O838 1.245 . S
C837 O839 1.289 . S
O838 C837 1.245 . S
O839 Mg832 2.141 . S
O839 C837 1.289 . S
O840 Mg832 2.048 . S
O840 C833 1.195 . S
O841 Mg832 2.048 . S
O841 C842 1.195 . S
C842 O841 1.195 . S
C842 O843 1.313 . S
O843 C842 1.313 . S
O844 Mg832 2.141 . S
O844 C835 1.289 . S
Mg845 O852 2.141 . S
Mg845 O853 2.048 . S
Mg845 O854 2.048 . S
Mg845 O857 2.141 . S
C846 O847 1.313 . S
C846 O853 1.195 . S
O847 C846 1.313 . S
C848 O849 1.245 . S
C848 O857 1.289 . S
O849 C848 1.245 . S
C850 O851 1.245 1_455 S
C850 O852 1.289 . S
O851 C850 1.245 1_655 S
O852 Mg845 2.141 . S
O852 C850 1.289 . S
O853 Mg845 2.048 . S
O853 C846 1.195 . S
O854 Mg845 2.048 . S
O854 C855 1.195 . S
C855 O854 1.195 . S
C855 O856 1.313 . S
O856 C855 1.313 . S
O857 Mg845 2.141 . S
O857 C848 1.289 . S
Mg858 O865 2.141 . S
Mg858 O866 2.048 . S
Mg858 O867 2.048 . S
Mg858 O870 2.141 . S
C859 O860 1.313 . S
C859 O866 1.195 . S
O860 C859 1.313 . S
C861 O862 1.245 . S
C861 O870 1.289 . S
O862 C861 1.245 . S
C863 O864 1.245 . S
C863 O865 1.289 . S
O864 C863 1.245 . S
O865 Mg858 2.141 . S
O865 C863 1.289 . S
O866 Mg858 2.048 . S
O866 C859 1.195 . S
O867 Mg858 2.048 . S
O867 C868 1.195 . S
C868 O867 1.195 . S
C868 O869 1.313 . S
O869 C868 1.313 . S
O870 Mg858 2.141 . S
O870 C861 1.289 . S
Mg871 O878 2.141 . S
Mg871 O879 2.048 . S
Mg871 O880 2.048 . S
Mg871 O883 2.141 1_556 S
C872 O873 1.313 . S
C872 O879 1.195 . S
O873 C872 1.313 . S
C874 O875 1.245 . S
C874 O883 1.289 . S
O875 C874 1.245 . S
C876 O877 1.245 . S
C876 O878 1.289 . S
O877 C876 1.245 . S
O878 Mg871 2.141 . S
O878 C876 1.289 . S
O879 Mg871 2.048 . S
O879 C872 1.195 . S
O880 Mg871 2.048 . S
O880 C881 1.195 . S
C881 O880 1.195 . S
C881 O882 1.313 . S
O882 C881 1.313 . S
O883 Mg871 2.141 1_554 S
O883 C874 1.289 . S
Mg884 O891 2.141 . S
Mg884 O892 2.048 . S
Mg884 O893 2.048 . S
Mg884 O896 2.141 . S
C885 O886 1.313 . S
C885 O892 1.195 . S
O886 C885 1.313 . S
C887 O888 1.245 . S
C887 O896 1.289 . S
O888 C887 1.245 . S
C889 O890 1.245 . S
C889 O891 1.289 . S
O890 C889 1.245 . S
O891 Mg884 2.141 . S
O891 C889 1.289 . S
O892 Mg884 2.048 . S
O892 C885 1.195 . S
O893 Mg884 2.048 . S
O893 C894 1.195 . S
C894 O893 1.195 . S
C894 O895 1.313 . S
O895 C894 1.313 . S
O896 Mg884 2.141 . S
O896 C887 1.289 . S
Mg897 O904 2.141 . S
Mg897 O905 2.048 . S
Mg897 O906 2.048 . S
Mg897 O909 2.141 1_554 S
C898 O899 1.313 . S
C898 O905 1.195 . S
O899 C898 1.313 . S
C900 O901 1.245 . S
C900 O909 1.289 . S
O901 C900 1.245 . S
C902 O903 1.245 1_655 S
C902 O904 1.289 . S
O903 C902 1.245 1_455 S
O904 Mg897 2.141 . S
O904 C902 1.289 . S
O905 Mg897 2.048 . S
O905 C898 1.195 . S
O906 Mg897 2.048 . S
O906 C907 1.195 . S
C907 O906 1.195 . S
C907 O908 1.313 . S
O908 C907 1.313 . S
O909 Mg897 2.141 1_556 S
O909 C900 1.289 . S
Mg910 O917 2.141 . S
Mg910 O918 2.048 . S
Mg910 O919 2.048 . S
Mg910 O922 2.141 . S
C911 O912 1.313 . S
C911 O918 1.195 . S
O912 C911 1.313 . S
C913 O914 1.245 . S
C913 O922 1.289 . S
O914 C913 1.245 . S
C915 O916 1.245 . S
C915 O917 1.289 . S
O916 C915 1.245 . S
O917 Mg910 2.141 . S
O917 C915 1.289 . S
O918 Mg910 2.048 . S
O918 C911 1.195 . S
O919 Mg910 2.048 . S
O919 C920 1.195 . S
C920 O919 1.195 . S
C920 O921 1.313 . S
O921 C920 1.313 . S
O922 Mg910 2.141 . S
O922 C913 1.289 . S
Mg923 O930 2.141 . S
Mg923 O931 2.048 . S
Mg923 O932 2.048 . S
Mg923 O935 2.141 . S
C924 O925 1.313 . S
C924 O931 1.195 . S
O925 C924 1.313 . S
C926 O927 1.245 . S
C926 O935 1.289 . S
O927 C926 1.245 . S
C928 O929 1.245 . S
C928 O930 1.289 . S
O929 C928 1.245 . S
O930 Mg923 2.141 . S
O930 C928 1.289 . S
O931 Mg923 2.048 . S
O931 C924 1.195 . S
O932 Mg923 2.048 . S
O932 C933 1.195 . S
C933 O932 1.195 . S
C933 O934 1.313 . S
O934 C933 1.313 . S
O935 Mg923 2.141 . S
O935 C926 1.289 . S
Mg936 O943 2.141 . S
Mg936 O944 2.048 . S
Mg936 O945 2.048 . S
Mg936 O948 2.141 . S
C937 O938 1.313 . S
C937 O944 1.195 . S
O938 C937 1.313 . S
C939 O940 1.245 . S
C939 O948 1.289 . S
O940 C939 1.245 . S
C941 O942 1.245 . S
C941 O943 1.289 . S
O942 C941 1.245 . S
O943 Mg936 2.141 . S
O943 C941 1.289 . S
O944 Mg936 2.048 . S
O944 C937 1.195 . S
O945 Mg936 2.048 . S
O945 C946 1.195 . S
C946 O945 1.195 . S
C946 O947 1.313 . S
O947 C946 1.313 . S
O948 Mg936 2.141 . S
O948 C939 1.289 . S
Mg949 O956 2.141 . S
Mg949 O957 2.048 . S
Mg949 O958 2.048 . S
Mg949 O961 2.141 . S
C950 O951 1.313 . S
C950 O957 1.195 . S
O951 C950 1.313 . S
C952 O953 1.245 . S
C952 O961 1.289 . S
O953 C952 1.245 . S
C954 O955 1.244 1_556 S
C954 O956 1.289 . S
O955 C954 1.244 1_554 S
O956 Mg949 2.141 . S
O956 C954 1.289 . S
O957 Mg949 2.048 . S
O957 C950 1.195 . S
O958 Mg949 2.048 . S
O958 C959 1.195 . S
C959 O958 1.195 . S
C959 O960 1.313 . S
O960 C959 1.313 . S
O961 Mg949 2.141 . S
O961 C952 1.289 . S
Mg962 O969 2.141 . S
Mg962 O970 2.048 . S
Mg962 O971 2.048 . S
Mg962 O974 2.141 1_455 S
C963 O964 1.313 . S
C963 O970 1.195 . S
O964 C963 1.313 . S
C965 O966 1.245 . S
C965 O974 1.289 . S
O966 C965 1.245 . S
C967 O968 1.245 . S
C967 O969 1.289 . S
O968 C967 1.245 . S
O969 Mg962 2.141 . S
O969 C967 1.289 . S
O970 Mg962 2.048 . S
O970 C963 1.195 . S
O971 Mg962 2.048 . S
O971 C972 1.195 . S
C972 O971 1.195 . S
C972 O973 1.313 . S
O973 C972 1.313 . S
O974 Mg962 2.141 1_655 S
O974 C965 1.289 . S
Mg975 O982 2.141 . S
Mg975 O983 2.048 . S
Mg975 O984 2.048 . S
Mg975 O987 2.141 . S
C976 O977 1.313 . S
C976 O983 1.195 . S
O977 C976 1.313 . S
C978 O979 1.245 . S
C978 O987 1.289 . S
O979 C978 1.245 . S
C980 O981 1.245 . S
C980 O982 1.289 . S
O981 C980 1.245 . S
O982 Mg975 2.141 . S
O982 C980 1.289 . S
O983 Mg975 2.048 . S
O983 C976 1.195 . S
O984 Mg975 2.048 . S
O984 C985 1.195 . S
C985 O984 1.195 . S
C985 O986 1.313 . S
O986 C985 1.313 . S
O987 Mg975 2.141 . S
O987 C978 1.289 . S
Mg988 O995 2.141 . S
Mg988 O996 2.048 . S
Mg988 O997 2.048 . S
Mg988 O1000 2.141 . S
C989 O990 1.313 . S
C989 O996 1.195 . S
O990 C989 1.313 . S
C991 O992 1.245 . S
C991 O1000 1.289 . S
O992 C991 1.245 . S
C993 O994 1.245 . S
C993 O995 1.289 . S
O994 C993 1.245 . S
O995 Mg988 2.141 . S
O995 C993 1.289 . S
O996 Mg988 2.048 . S
O996 C989 1.195 . S
O997 Mg988 2.048 . S
O997 C998 1.195 . S
C998 O997 1.195 . S
C998 O999 1.313 . S
O999 C998 1.313 . S
O1000 Mg988 2.141 . S
O1000 C991 1.289 . S
Mg1001 O1008 2.141 . S
Mg1001 O1009 2.048 . S
Mg1001 O1010 2.048 . S
Mg1001 O1013 2.141 . S
C1002 O1003 1.313 . S
C1002 O1009 1.195 . S
O1003 C1002 1.313 . S
C1004 O1005 1.245 . S
C1004 O1013 1.289 . S
O1005 C1004 1.245 . S
C1006 O1007 1.244 1_554 S
C1006 O1008 1.289 . S
O1007 C1006 1.244 1_556 S
O1008 Mg1001 2.141 . S
O1008 C1006 1.289 . S
O1009 Mg1001 2.048 . S
O1009 C1002 1.195 . S
O1010 Mg1001 2.048 . S
O1010 C1011 1.195 . S
C1011 O1010 1.195 . S
C1011 O1012 1.313 . S
O1012 C1011 1.313 . S
O1013 Mg1001 2.141 . S
O1013 C1004 1.289 . S
Mg1014 O1021 2.141 . S
Mg1014 O1022 2.048 . S
Mg1014 O1023 2.048 . S
Mg1014 O1026 2.141 1_455 S
C1015 O1016 1.313 . S
C1015 O1022 1.195 . S
O1016 C1015 1.313 . S
C1017 O1018 1.245 . S
C1017 O1026 1.289 . S
O1018 C1017 1.245 . S
C1019 O1020 1.245 . S
C1019 O1021 1.289 . S
O1020 C1019 1.245 . S
O1021 Mg1014 2.141 . S
O1021 C1019 1.289 . S
O1022 Mg1014 2.048 . S
O1022 C1015 1.195 . S
O1023 Mg1014 2.048 . S
O1023 C1024 1.195 . S
C1024 O1023 1.195 . S
C1024 O1025 1.313 . S
O1025 C1024 1.313 . S
O1026 Mg1014 2.141 1_655 S
O1026 C1017 1.289 . S
Mg1027 O1034 2.141 . S
Mg1027 O1035 2.048 . S
Mg1027 O1036 2.048 . S
Mg1027 O1039 2.141 . S
C1028 O1029 1.313 . S
C1028 O1035 1.195 . S
O1029 C1028 1.313 . S
C1030 O1031 1.245 . S
C1030 O1039 1.289 . S
O1031 C1030 1.245 . S
C1032 O1033 1.245 . S
C1032 O1034 1.289 . S
O1033 C1032 1.245 . S
O1034 Mg1027 2.141 . S
O1034 C1032 1.289 . S
O1035 Mg1027 2.048 . S
O1035 C1028 1.195 . S
O1036 Mg1027 2.048 . S
O1036 C1037 1.195 . S
C1037 O1036 1.195 . S
C1037 O1038 1.313 . S
O1038 C1037 1.313 . S
O1039 Mg1027 2.141 . S
O1039 C1030 1.289 . S
Mg1040 O1047 2.141 . S
Mg1040 O1048 2.048 . S
Mg1040 O1049 2.048 . S
Mg1040 O1052 2.141 . S
C1041 O1042 1.313 . S
C1041 O1048 1.195 . S
O1042 C1041 1.313 . S
C1043 O1044 1.245 . S
C1043 O1052 1.289 . S
O1044 C1043 1.245 . S
C1045 O1046 1.245 . S
C1045 O1047 1.289 . S
O1046 C1045 1.245 . S
O1047 Mg1040 2.141 . S
O1047 C1045 1.289 . S
O1048 Mg1040 2.048 . S
O1048 C1041 1.195 . S
O1049 Mg1040 2.048 . S
O1049 C1050 1.195 . S
C1050 O1049 1.195 . S
C1050 O1051 1.313 . S
O1051 C1050 1.313 . S
O1052 Mg1040 2.141 . S
O1052 C1043 1.289 . S
Mg1053 O1060 2.141 . S
Mg1053 O1061 2.048 . S
Mg1053 O1062 2.048 . S
Mg1053 O1065 2.141 . S
C1054 O1055 1.313 . S
C1054 O1061 1.195 . S
O1055 C1054 1.313 . S
C1056 O1057 1.245 . S
C1056 O1065 1.289 . S
O1057 C1056 1.245 . S
C1058 O1059 1.245 . S
C1058 O1060 1.289 . S
O1059 C1058 1.245 . S
O1060 Mg1053 2.141 . S
O1060 C1058 1.289 . S
O1061 Mg1053 2.048 . S
O1061 C1054 1.195 . S
O1062 Mg1053 2.048 . S
O1062 C1063 1.195 . S
C1063 O1062 1.195 . S
C1063 O1064 1.313 . S
O1064 C1063 1.313 . S
O1065 Mg1053 2.141 . S
O1065 C1056 1.289 . S
Mg1066 O1073 2.141 . S
Mg1066 O1074 2.048 . S
Mg1066 O1075 2.048 . S
Mg1066 O1078 2.141 . S
C1067 O1068 1.313 . S
C1067 O1074 1.195 . S
O1068 C1067 1.313 . S
C1069 O1070 1.245 1_556 S
C1069 O1078 1.289 . S
O1070 C1069 1.245 1_554 S
C1071 O1072 1.245 . S
C1071 O1073 1.289 . S
O1072 C1071 1.245 . S
O1073 Mg1066 2.141 . S
O1073 C1071 1.289 . S
O1074 Mg1066 2.048 . S
O1074 C1067 1.195 . S
O1075 Mg1066 2.048 . S
O1075 C1076 1.195 . S
C1076 O1075 1.195 . S
C1076 O1077 1.313 . S
O1077 C1076 1.313 . S
O1078 Mg1066 2.141 . S
O1078 C1069 1.289 . S
Mg1079 O1086 2.141 . S
Mg1079 O1087 2.048 . S
Mg1079 O1088 2.048 . S
Mg1079 O1091 2.141 . S
C1080 O1081 1.313 . S
C1080 O1087 1.195 . S
O1081 C1080 1.313 . S
C1082 O1083 1.245 . S
C1082 O1091 1.289 . S
O1083 C1082 1.245 . S
C1084 O1085 1.245 . S
C1084 O1086 1.289 . S
O1085 C1084 1.245 . S
O1086 Mg1079 2.141 . S
O1086 C1084 1.289 . S
O1087 Mg1079 2.048 . S
O1087 C1080 1.195 . S
O1088 Mg1079 2.048 . S
O1088 C1089 1.195 . S
C1089 O1088 1.195 . S
C1089 O1090 1.313 . S
O1090 C1089 1.313 . S
O1091 Mg1079 2.141 . S
O1091 C1082 1.289 . S
Mg1092 O1099 2.141 . S
Mg1092 O1100 2.048 . S
Mg1092 O1101 2.048 . S
Mg1092 O1104 2.141 . S
C1093 O1094 1.313 . S
C1093 O1100 1.195 . S
O1094 C1093 1.313 . S
C1095 O1096 1.245 1_554 S
C1095 O1104 1.289 . S
O1096 C1095 1.245 1_556 S
C1097 O1098 1.245 . S
C1097 O1099 1.289 . S
O1098 C1097 1.245 . S
O1099 Mg1092 2.141 . S
O1099 C1097 1.289 . S
O1100 Mg1092 2.048 . S
O1100 C1093 1.195 . S
O1101 Mg1092 2.048 . S
O1101 C1102 1.195 . S
C1102 O1101 1.195 . S
C1102 O1103 1.313 . S
O1103 C1102 1.313 . S
O1104 Mg1092 2.141 . S
O1104 C1095 1.289 . S
Mg1105 O1112 2.141 . S
Mg1105 O1113 2.048 . S
Mg1105 O1114 2.048 . S
Mg1105 O1117 2.141 . S
C1106 O1107 1.313 . S
C1106 O1113 1.195 . S
O1107 C1106 1.313 . S
C1108 O1109 1.245 . S
C1108 O1117 1.289 . S
O1109 C1108 1.245 . S
C1110 O1111 1.245 . S
C1110 O1112 1.289 . S
O1111 C1110 1.245 . S
O1112 Mg1105 2.141 . S
O1112 C1110 1.289 . S
O1113 Mg1105 2.048 . S
O1113 C1106 1.195 . S
O1114 Mg1105 2.048 . S
O1114 C1115 1.195 . S
C1115 O1114 1.195 . S
C1115 O1116 1.313 . S
O1116 C1115 1.313 . S
O1117 Mg1105 2.141 . S
O1117 C1108 1.289 . S
Mg1118 O1125 2.141 . S
Mg1118 O1126 2.048 . S
Mg1118 O1127 2.048 . S
Mg1118 O1130 2.141 . S
C1119 O1120 1.313 . S
C1119 O1126 1.195 . S
O1120 C1119 1.313 . S
C1121 O1122 1.245 . S
C1121 O1130 1.289 . S
O1122 C1121 1.245 . S
C1123 O1124 1.245 . S
C1123 O1125 1.289 . S
O1124 C1123 1.245 . S
O1125 Mg1118 2.141 . S
O1125 C1123 1.289 . S
O1126 Mg1118 2.048 . S
O1126 C1119 1.195 . S
O1127 Mg1118 2.048 . S
O1127 C1128 1.195 . S
C1128 O1127 1.195 . S
C1128 O1129 1.313 . S
O1129 C1128 1.313 . S
O1130 Mg1118 2.141 . S
O1130 C1121 1.289 . S
Mg1131 O1138 2.141 . S
Mg1131 O1139 2.048 . S
Mg1131 O1140 2.048 . S
Mg1131 O1143 2.141 . S
C1132 O1133 1.313 . S
C1132 O1139 1.195 . S
O1133 C1132 1.313 . S
C1134 O1135 1.245 . S
C1134 O1143 1.289 . S
O1135 C1134 1.245 . S
C1136 O1137 1.245 . S
C1136 O1138 1.289 . S
O1137 C1136 1.245 . S
O1138 Mg1131 2.141 . S
O1138 C1136 1.289 . S
O1139 Mg1131 2.048 . S
O1139 C1132 1.195 . S
O1140 Mg1131 2.048 . S
O1140 C1141 1.195 . S
C1141 O1140 1.195 . S
C1141 O1142 1.313 . S
O1142 C1141 1.313 . S
O1143 Mg1131 2.141 . S
O1143 C1134 1.289 . S
Mg1144 O1151 2.141 . S
Mg1144 O1152 2.048 . S
Mg1144 O1153 2.048 . S
Mg1144 O1156 2.141 . S
C1145 O1146 1.313 . S
C1145 O1152 1.195 . S
O1146 C1145 1.313 . S
C1147 O1148 1.245 . S
C1147 O1156 1.289 . S
O1148 C1147 1.245 . S
C1149 O1150 1.245 . S
C1149 O1151 1.289 . S
O1150 C1149 1.245 . S
O1151 Mg1144 2.141 . S
O1151 C1149 1.289 . S
O1152 Mg1144 2.048 . S
O1152 C1145 1.195 . S
O1153 Mg1144 2.048 . S
O1153 C1154 1.195 . S
C1154 O1153 1.195 . S
C1154 O1155 1.313 . S
O1155 C1154 1.313 . S
O1156 Mg1144 2.141 . S
O1156 C1147 1.289 . S
Mg1157 O1164 2.141 . S
Mg1157 O1165 2.048 . S
Mg1157 O1166 2.048 . S
Mg1157 O1169 2.141 . S
C1158 O1159 1.313 . S
C1158 O1165 1.195 . S
O1159 C1158 1.313 . S
C1160 O1161 1.245 . S
C1160 O1169 1.289 . S
O1161 C1160 1.245 . S
C1162 O1163 1.245 . S
C1162 O1164 1.289 . S
O1163 C1162 1.245 . S
O1164 Mg1157 2.141 . S
O1164 C1162 1.289 . S
O1165 Mg1157 2.048 . S
O1165 C1158 1.195 . S
O1166 Mg1157 2.048 . S
O1166 C1167 1.195 . S
C1167 O1166 1.195 . S
C1167 O1168 1.313 . S
O1168 C1167 1.313 . S
O1169 Mg1157 2.141 . S
O1169 C1160 1.289 . S
Mg1170 O1177 2.141 . S
Mg1170 O1178 2.048 . S
Mg1170 O1179 2.048 . S
Mg1170 O1182 2.141 . S
C1171 O1172 1.313 . S
C1171 O1178 1.195 . S
O1172 C1171 1.313 . S
C1173 O1174 1.245 . S
C1173 O1182 1.289 . S
O1174 C1173 1.245 . S
C1175 O1176 1.245 . S
C1175 O1177 1.289 . S
O1176 C1175 1.245 . S
O1177 Mg1170 2.141 . S
O1177 C1175 1.289 . S
O1178 Mg1170 2.048 . S
O1178 C1171 1.195 . S
O1179 Mg1170 2.048 . S
O1179 C1180 1.195 . S
C1180 O1179 1.195 . S
C1180 O1181 1.313 . S
O1181 C1180 1.313 . S
O1182 Mg1170 2.141 . S
O1182 C1173 1.289 . S
Mg1183 O1190 2.141 . S
Mg1183 O1191 2.048 . S
Mg1183 O1192 2.048 . S
Mg1183 O1195 2.141 1_554 S
C1184 O1185 1.313 . S
C1184 O1191 1.195 . S
O1185 C1184 1.313 . S
C1186 O1187 1.245 . S
C1186 O1195 1.289 . S
O1187 C1186 1.245 . S
C1188 O1189 1.245 . S
C1188 O1190 1.289 . S
O1189 C1188 1.245 . S
O1190 Mg1183 2.141 . S
O1190 C1188 1.289 . S
O1191 Mg1183 2.048 . S
O1191 C1184 1.195 . S
O1192 Mg1183 2.048 . S
O1192 C1193 1.195 . S
C1193 O1192 1.195 . S
C1193 O1194 1.313 . S
O1194 C1193 1.313 . S
O1195 Mg1183 2.141 1_556 S
O1195 C1186 1.289 . S
Mg1196 O1203 2.141 . S
Mg1196 O1204 2.048 . S
Mg1196 O1205 2.048 . S
Mg1196 O1208 2.141 . S
C1197 O1198 1.313 . S
C1197 O1204 1.195 . S
O1198 C1197 1.313 . S
C1199 O1200 1.245 . S
C1199 O1208 1.289 . S
O1200 C1199 1.245 . S
C1201 O1202 1.245 . S
C1201 O1203 1.289 . S
O1202 C1201 1.245 . S
O1203 Mg1196 2.141 . S
O1203 C1201 1.289 . S
O1204 Mg1196 2.048 . S
O1204 C1197 1.195 . S
O1205 Mg1196 2.048 . S
O1205 C1206 1.195 . S
C1206 O1205 1.195 . S
C1206 O1207 1.313 . S
O1207 C1206 1.313 . S
O1208 Mg1196 2.141 . S
O1208 C1199 1.289 . S
Mg1209 O1216 2.141 . S
Mg1209 O1217 2.048 . S
Mg1209 O1218 2.048 . S
Mg1209 O1221 2.141 1_556 S
C1210 O1211 1.313 . S
C1210 O1217 1.195 . S
O1211 C1210 1.313 . S
C1212 O1213 1.245 . S
C1212 O1221 1.289 . S
O1213 C1212 1.245 . S
C1214 O1215 1.245 . S
C1214 O1216 1.289 . S
O1215 C1214 1.245 . S
O1216 Mg1209 2.141 . S
O1216 C1214 1.289 . S
O1217 Mg1209 2.048 . S
O1217 C1210 1.195 . S
O1218 Mg1209 2.048 . S
O1218 C1219 1.195 . S
C1219 O1218 1.195 . S
C1219 O1220 1.313 . S
O1220 C1219 1.313 . S
O1221 Mg1209 2.141 1_554 S
O1221 C1212 1.289 . S
Mg1222 O1229 2.141 . S
Mg1222 O1230 2.048 . S
Mg1222 O1231 2.048 . S
Mg1222 O1234 2.141 . S
C1223 O1224 1.313 . S
C1223 O1230 1.195 . S
O1224 C1223 1.313 . S
C1225 O1226 1.245 . S
C1225 O1234 1.289 . S
O1226 C1225 1.245 . S
C1227 O1228 1.245 . S
C1227 O1229 1.289 . S
O1228 C1227 1.245 . S
O1229 Mg1222 2.141 . S
O1229 C1227 1.289 . S
O1230 Mg1222 2.048 . S
O1230 C1223 1.195 . S
O1231 Mg1222 2.048 . S
O1231 C1232 1.195 . S
C1232 O1231 1.195 . S
C1232 O1233 1.313 . S
O1233 C1232 1.313 . S
O1234 Mg1222 2.141 . S
O1234 C1225 1.289 . S
Mg1235 O1242 2.141 . S
Mg1235 O1243 2.048 . S
Mg1235 O1244 2.048 . S
Mg1235 O1247 2.141 . S
C1236 O1237 1.313 . S
C1236 O1243 1.195 . S
O1237 C1236 1.313 . S
C1238 O1239 1.245 . S
C1238 O1247 1.289 . S
O1239 C1238 1.245 . S
C1240 O1241 1.245 . S
C1240 O1242 1.289 . S
O1241 C1240 1.245 . S
O1242 Mg1235 2.141 . S
O1242 C1240 1.289 . S
O1243 Mg1235 2.048 . S
O1243 C1236 1.195 . S
O1244 Mg1235 2.048 . S
O1244 C1245 1.195 . S
C1245 O1244 1.195 . S
C1245 O1246 1.313 . S
O1246 C1245 1.313 . S
O1247 Mg1235 2.141 . S
O1247 C1238 1.289 . S
C10 C562 1.741 . S
C577 C23 1.569 . S
C36 C536 1.741 . S
C1175 C49 1.569 . S
C1212 C62 1.741 . S
C1227 C75 1.569 . S
C1147 C88 1.741 . S
C1240 C101 1.569 . S
C114 C341 1.741 . S
C978 C127 1.741 . S
C315 C140 1.741 . S
C952 C153 1.741 . S
C166 C393 1.741 . S
C179 C1030 1.741 . S
C192 C367 1.741 . S
C205 C1004 1.741 . S
C1097 C218 1.568 . S
C231 C421 1.568 . S
C244 C1056 1.741 . S
C447 C257 1.568 . S
C458 C270 1.741 . S
C1123 C283 1.569 . S
C296 C1134 1.741 . S
C1108 C309 1.741 . S
C250 C322 1.599 . S
C335 C263 1.599 . S
C348 C224 1.599 . S
C361 C861 1.599 . S
C900 C374 1.599 . S
C387 C913 1.599 . S
C835 C400 1.599 . S
C926 C413 1.599 . S
C417 C29 1.568 . S
C666 C439 1.599 . S
C443 C3 1.568 . S
C640 C465 1.599 . S
C469 C81 1.568 . S
C491 C718 1.599 . S
C55 C495 1.568 . S
C692 C517 1.599 . S
C783 C530 1.599 . S
C107 C543 1.599 . S
C744 C547 1.569 . S
C569 C133 1.599 . S
C573 C146 1.569 . S
C595 C809 1.599 . S
C599 C822 1.569 . S
C612 C796 1.569 . S
C1186 C634 1.741 . S
C1201 C647 1.569 . S
C1160 C660 1.741 . S
C673 C551 1.569 . S
C686 C588 1.741 . S
C699 C603 1.568 . S
C523 C712 1.741 . S
C616 C725 1.569 . S
C738 C965 1.741 . S
C354 C751 1.741 . S
C764 C939 1.741 . S
C328 C777 1.741 . S
C790 C1017 1.741 . S
C406 C803 1.741 . S
C816 C991 1.741 . S
C829 C380 1.741 . S
C842 C473 1.569 . S
C1045 C855 1.569 . S
C868 C432 1.741 . S
C881 C1071 1.568 . S
C894 C1082 1.741 . S
C499 C907 1.568 . S
C510 C920 1.741 . S
C933 C484 1.741 . S
C946 C874 1.599 . S
C959 C887 1.599 . S
C972 C848 1.599 . S
C237 C985 1.599 . S
C276 C998 1.599 . S
C1011 C289 1.599 . S
C211 C1024 1.599 . S
C302 C1037 1.599 . S
C1041 C653 1.569 . S
C42 C1063 1.599 . S
C1067 C627 1.569 . S
C16 C1089 1.599 . S
C705 C1093 1.568 . S
C94 C1115 1.599 . S
C1119 C679 1.569 . S
C68 C1141 1.599 . S
C159 C1154 1.599 . S
C1167 C731 1.599 . S
C1171 C120 1.569 . S
C1193 C757 1.599 . S
C770 C1197 1.569 . S
C1219 C185 1.599 . S
C198 C1223 1.569 . S
C1236 C172 1.568 . S
C57 C5 1.641 1_565 S
C18 C70 1.641 . S
C31 C83 1.641 1_565 S
C96 C44 1.641 1_556 S
C187 C109 1.641 1_556 S
C122 C200 1.641 1_545 S
C135 C161 1.641 . S
C174 C148 1.641 1_545 S
C902 C213 1.641 1_655 S
C226 C876 1.641 . S
C265 C239 1.641 1_655 S
C850 C252 1.641 1_455 S
C837 C278 1.641 . S
C291 C928 1.641 1_455 S
C915 C304 1.641 . S
C317 C369 1.967 1_565 S
C382 C330 1.967 . S
C395 C343 1.967 1_565 S
C408 C356 1.967 1_554 S
C419 C497 1.641 1_556 S
C512 C434 1.967 1_545 S
C471 C445 1.641 . S
C486 C460 1.967 1_565 S
C1214 C525 1.967 1_455 S
C538 C1188 1.967 . S
C575 C549 1.641 1_455 S
C564 C1162 1.967 1_455 S
C590 C1149 1.967 . S
C1238 C601 1.641 1_455 S
C614 C1225 1.641 . S
C629 C681 1.641 . S
C642 C694 1.641 1_554 S
C707 C655 1.641 . S
C668 C720 1.641 . S
C811 C733 1.641 . S
C824 C746 1.641 . S
C759 C785 1.641 1_554 S
C772 C798 1.641 . S
C889 C863 1.641 . S
C993 C941 1.967 . S
C954 C1006 1.967 1_556 S
C967 C1019 1.967 . S
C980 C1032 1.967 . S
C1043 C1121 1.641 . S
C1058 C1136 1.967 . S
C1069 C1095 1.641 1_556 S
C1084 C1110 1.967 . S
C1199 C1173 1.641 . S
C118 C1 1.722 . S
C131 C14 1.722 . S
C144 C27 1.722 . S
C40 C105 1.722 . S
C196 C53 1.722 . S
C157 C66 1.722 . S
C79 C170 1.722 . S
C92 C183 1.722 . S
C209 C235 1.722 . S
C222 C911 1.722 . S
C248 C924 1.722 . S
C898 C261 1.722 . S
C274 C885 1.722 . S
C287 C846 1.722 . S
C300 C872 1.722 . S
C313 C430 2.089 . S
C326 C452 1.898 . S
C339 C456 2.089 . S
C352 C426 1.898 . S
C365 C508 2.089 . S
C478 C378 1.898 . S
C391 C482 2.089 . S
C404 C504 1.898 . S
C521 C556 1.898 . S
C534 C1232 1.898 . S
C1245 C560 1.898 . S
C1210 C582 1.898 . S
C1206 C586 1.898 . S
C1158 C608 1.898 . S
C621 C1184 1.898 . S
C625 C742 1.722 . S
C638 C755 1.722 . S
C651 C768 1.722 . S
C729 C664 1.722 . S
C677 C820 1.722 . S
C690 C781 1.722 . S
C794 C703 1.722 . S
C807 C716 1.722 . S
C859 C833 1.722 . S
C1054 C937 2.090 . S
C950 C1076 1.898 . S
C1080 C963 2.089 . S
C1050 C976 1.898 . S
C1132 C989 2.090 . S
C1002 C1102 1.898 . S
C1106 C1015 2.089 . S
C1128 C1028 1.898 . S
C1180 C1145 1.898 . S
