# Generated by pormake.
# Topology uoc, (4)-cn, num edge types: 1
# Building blocks:
#     Node 0, Type 0, BuildingBlock: GALJAG_clean_sbu_0, # of connection points: 4
#     Node 1, Type 0, BuildingBlock: GALJAG_clean_sbu_0, # of connection points: 4
#     Node 2, Type 0, BuildingBlock: GALJAG_clean_sbu_0, # of connection points: 4
#     Node 3, Type 0, BuildingBlock: GALJAG_clean_sbu_0, # of connection points: 4
#     Node 4, Type 0, BuildingBlock: GALJAG_clean_sbu_0, # of connection points: 4
#     Node 5, Type 0, BuildingBlock: GALJAG_clean_sbu_0, # of connection points: 4
#     Node 6, Type 0, BuildingBlock: GALJAG_clean_sbu_0, # of connection points: 4
#     Node 7, Type 0, BuildingBlock: GALJAG_clean_sbu_0, # of connection points: 4
#     Edge 8, Type (0, 0), BuildingBlock: FUNLAD_clean_linker_0, # of connection points: 2
#     Edge 9, Type (0, 0), BuildingBlock: FUNLAD_clean_linker_0, # of connection points: 2
#     Edge 10, Type (0, 0), BuildingBlock: FUNLAD_clean_linker_0, # of connection points: 2
#     Edge 11, Type (0, 0), BuildingBlock: FUNLAD_clean_linker_0, # of connection points: 2
#     Edge 12, Type (0, 0), BuildingBlock: FUNLAD_clean_linker_0, # of connection points: 2
#     Edge 13, Type (0, 0), BuildingBlock: FUNLAD_clean_linker_0, # of connection points: 2
#     Edge 14, Type (0, 0), BuildingBlock: FUNLAD_clean_linker_0, # of connection points: 2
#     Edge 15, Type (0, 0), BuildingBlock: FUNLAD_clean_linker_0, # of connection points: 2
#     Edge 16, Type (0, 0), BuildingBlock: FUNLAD_clean_linker_0, # of connection points: 2
#     Edge 17, Type (0, 0), BuildingBlock: FUNLAD_clean_linker_0, # of connection points: 2
#     Edge 18, Type (0, 0), BuildingBlock: FUNLAD_clean_linker_0, # of connection points: 2
#     Edge 19, Type (0, 0), BuildingBlock: FUNLAD_clean_linker_0, # of connection points: 2
#     Edge 20, Type (0, 0), BuildingBlock: FUNLAD_clean_linker_0, # of connection points: 2
#     Edge 21, Type (0, 0), BuildingBlock: FUNLAD_clean_linker_0, # of connection points: 2
#     Edge 22, Type (0, 0), BuildingBlock: FUNLAD_clean_linker_0, # of connection points: 2
#     Edge 23, Type (0, 0), BuildingBlock: FUNLAD_clean_linker_0, # of connection points: 2
# Relax obj value: 0.017
# Max RMSD: 0.050
# Mean RMSD: 0.050
data_MOF--net-uoc--node1-GALJAG_clean_sbu_0--edge1-FUNLAD_clean_linker_0
_symmetry_space_group_name_H-M    P1
_symmetry_Int_Tables_number       1
_symmetry_cell_setting            triclinic
loop_
_symmetry_equiv_pos_as_xyz
'x, y, z'
_cell_length_a     32.320352
_cell_length_b     32.2983
_cell_length_c     64.360613
_cell_angle_alpha  90.094109
_cell_angle_beta   90.085844
_cell_angle_gamma 90.339189
loop_
_atom_site_label
_atom_site_type_symbol
_atom_site_fract_x
_atom_site_fract_y
_atom_site_fract_z
_atom_type_partial_charge
In0 In 0.10455 0.25841 0.11617 0.0
O1 O 0.04694 0.29841 0.11394 0.0
O2 O 0.10413 0.32477 0.10419 0.0
C3 C 0.06215 0.18928 0.12626 0.0
C4 C 0.14371 0.27642 0.15214 0.0
C5 C 0.14151 0.23687 0.08017 0.0
O6 O 0.0453 0.21994 0.11761 0.0
O7 O 0.10016 0.19389 0.1302 0.0
O8 O 0.15944 0.25951 0.09346 0.0
O9 O 0.10542 0.22576 0.08502 0.0
C10 C 0.06581 0.32971 0.10692 0.0
O11 O 0.16012 0.25423 0.13828 0.0
O12 O 0.10798 0.28921 0.1478 0.0
In13 In 0.76314 0.59738 0.37477 0.0
O14 O 0.77084 0.65288 0.353 0.0
O15 O 0.75481 0.59459 0.33978 0.0
C16 C 0.76265 0.63492 0.41226 0.0
C17 C 0.83678 0.55869 0.37321 0.0
C18 C 0.68869 0.55964 0.37662 0.0
O19 O 0.75747 0.65479 0.39559 0.0
O20 O 0.76842 0.59666 0.40989 0.0
O21 O 0.72225 0.54022 0.37852 0.0
O22 O 0.6927 0.59811 0.3738 0.0
C23 C 0.7627 0.63237 0.33676 0.0
O24 O 0.80275 0.53942 0.37241 0.0
O25 O 0.83367 0.59749 0.37475 0.0
In26 In 0.38202 0.25554 0.62258 0.0
O27 O 0.43691 0.21062 0.62097 0.0
O28 O 0.37633 0.1859 0.62503 0.0
C29 C 0.41601 0.33202 0.62151 0.0
C30 C 0.34749 0.25841 0.66058 0.0
C31 C 0.34627 0.25302 0.58484 0.0
O32 O 0.43763 0.30006 0.62458 0.0
O33 O 0.37795 0.32507 0.61881 0.0
O34 O 0.32543 0.25666 0.60134 0.0
O35 O 0.38491 0.2508 0.58746 0.0
C36 C 0.4144 0.1787 0.62303 0.0
O37 O 0.32607 0.25432 0.64425 0.0
O38 O 0.38599 0.26106 0.65763 0.0
In39 In 0.74814 0.8772 0.87252 0.0
O40 O 0.74795 0.82317 0.84939 0.0
O41 O 0.76002 0.88387 0.83804 0.0
C42 C 0.747 0.83838 0.90957 0.0
C43 C 0.67084 0.90801 0.87004 0.0
C44 C 0.82076 0.91818 0.87603 0.0
O45 O 0.75566 0.81967 0.8929 0.0
O46 O 0.73843 0.87616 0.90741 0.0
O47 O 0.78666 0.93681 0.87421 0.0
O48 O 0.81799 0.87921 0.8762 0.0
C49 C 0.756 0.84588 0.83392 0.0
O50 O 0.70205 0.93063 0.87368 0.0
O51 O 0.67873 0.8701 0.86765 0.0
In52 In 0.60977 0.7554 0.62216 0.0
O53 O 0.55426 0.79879 0.62422 0.0
O54 O 0.60872 0.821 0.60932 0.0
C55 C 0.5733 0.68212 0.63119 0.0
C56 C 0.65089 0.7743 0.65737 0.0
C57 C 0.64237 0.73726 0.5848 0.0
O58 O 0.55328 0.71234 0.62394 0.0
O59 O 0.61114 0.68941 0.63441 0.0
O60 O 0.66373 0.75377 0.59908 0.0
O61 O 0.60499 0.7307 0.58935 0.0
C62 C 0.57239 0.82864 0.61531 0.0
O63 O 0.66819 0.75547 0.64255 0.0
O64 O 0.61338 0.78294 0.65441 0.0
In65 In 0.24864 0.10738 0.86798 0.0
O66 O 0.2496 0.16444 0.84706 0.0
O67 O 0.23891 0.1056 0.83306 0.0
C68 C 0.25223 0.14279 0.90592 0.0
C69 C 0.32478 0.07384 0.86528 0.0
C70 C 0.17452 0.06864 0.87 0.0
O71 O 0.24491 0.16348 0.8897 0.0
O72 O 0.25783 0.10467 0.90289 0.0
O73 O 0.20792 0.0492 0.86738 0.0
O74 O 0.17866 0.10736 0.87164 0.0
C75 C 0.2428 0.14417 0.83059 0.0
O76 O 0.31817 0.11201 0.86306 0.0
O77 O 0.29281 0.05223 0.86872 0.0
In78 In 0.88939 0.75668 0.1242 0.0
O79 O 0.83717 0.74731 0.14774 0.0
O80 O 0.89876 0.75373 0.15906 0.0
C81 C 0.84776 0.76235 0.08797 0.0
C82 C 0.92665 0.68288 0.11945 0.0
C83 C 0.92453 0.8324 0.12647 0.0
O84 O 0.82953 0.76322 0.10531 0.0
O85 O 0.88652 0.75891 0.08905 0.0
O86 O 0.94537 0.80005 0.12333 0.0
O87 O 0.88607 0.82651 0.12822 0.0
C88 C 0.861 0.74864 0.16332 0.0
O89 O 0.94661 0.71661 0.11959 0.0
O90 O 0.88811 0.68647 0.12189 0.0
In91 In 0.26168 0.36914 0.36832 0.0
O92 O 0.25325 0.31651 0.34473 0.0
O93 O 0.27068 0.37605 0.33361 0.0
C94 C 0.26148 0.32699 0.4045 0.0
C95 C 0.18795 0.40746 0.36692 0.0
C96 C 0.3352 0.40823 0.37207 0.0
O97 O 0.25018 0.36411 0.40295 0.0
O98 O 0.2725 0.31048 0.38761 0.0
O99 O 0.30122 0.42645 0.37484 0.0
O100 O 0.33204 0.37037 0.36747 0.0
C101 C 0.26192 0.33897 0.32925 0.0
O102 O 0.22185 0.42705 0.36757 0.0
O103 O 0.19128 0.36854 0.367 0.0
C104 C 0.19633 0.24347 0.05276 0.0
C105 C 0.1609 0.22352 0.06058 0.0
C106 C 0.2136 0.23079 0.03385 0.0
C107 C 0.19591 0.1976 0.02269 0.0
C108 C 0.16113 0.17722 0.03083 0.0
C109 C 0.14353 0.1903 0.04944 0.0
C110 C 0.21288 0.18269 0.0027 0.0
C111 C 0.23108 0.20756 0.98861 0.0
C112 C 0.24174 0.19214 0.96757 0.0
C113 C 0.2364 0.2181 0.95031 0.0
C114 C 0.24111 0.20255 0.93015 0.0
C115 C 0.25168 0.16088 0.92698 0.0
H116 H 0.26061 0.13077 0.97737 0.0
C117 C 0.2596 0.1357 0.94429 0.0
C118 C 0.25482 0.15118 0.96438 0.0
H119 H 0.26846 0.10364 0.94234 0.0
H120 H 0.21038 0.26907 0.06113 0.0
H121 H 0.24098 0.24655 0.02818 0.0
H122 H 0.1471 0.15142 0.02259 0.0
H123 H 0.1164 0.17413 0.05517 0.0
H124 H 0.20626 0.15067 -0.0014 0.0
H125 H 0.23386 0.24056 0.99165 0.0
H126 H 0.22675 0.24991 0.9524 0.0
H127 H 0.23519 0.22276 0.91708 0.0
C128 C 0.77768 0.69121 0.31255 0.0
C129 C 0.76378 0.65044 0.31572 0.0
C130 C 0.78142 0.70703 0.29241 0.0
C131 C 0.77134 0.68223 0.27509 0.0
C132 C 0.75562 0.64221 0.27838 0.0
C133 C 0.75211 0.62636 0.29846 0.0
C134 C 0.77801 0.69633 0.2534 0.0
C135 C 0.80835 0.72304 0.24811 0.0
C136 C 0.82001 0.73169 0.22623 0.0
C137 C 0.86114 0.74278 0.22193 0.0
C138 C 0.87425 0.74863 0.2015 0.0
C139 C 0.84633 0.74402 0.1849 0.0
H140 H 0.75941 0.72107 0.21241 0.0
C141 C 0.80477 0.73442 0.18917 0.0
C142 C 0.79167 0.72832 0.20966 0.0
H143 H 0.78249 0.73114 0.17668 0.0
H144 H 0.78643 0.71064 0.32559 0.0
H145 H 0.79237 0.73852 0.29051 0.0
H146 H 0.74724 0.62261 0.26534 0.0
H147 H 0.7409 0.59493 0.30043 0.0
H148 H 0.7605 0.68062 0.24129 0.0
H149 H 0.82843 0.73565 0.26013 0.0
H150 H 0.88352 0.74592 0.2344 0.0
H151 H 0.90642 0.75639 0.19871 0.0
C152 C 0.35224 0.2486 0.54625 0.0
C153 C 0.32731 0.25296 0.56396 0.0
C154 C 0.33507 0.25142 0.5264 0.0
C155 C 0.29242 0.25844 0.52381 0.0
C156 C 0.2674 0.26185 0.54155 0.0
C157 C 0.2846 0.25894 0.56144 0.0
C158 C 0.27401 0.26689 0.50308 0.0
C159 C 0.29163 0.25534 0.48503 0.0
C160 C 0.27838 0.27128 0.46442 0.0
C161 C 0.29095 0.25038 0.44635 0.0
C162 C 0.28388 0.26747 0.42671 0.0
C163 C 0.26447 0.30606 0.42481 0.0
H164 H 0.24834 0.32707 0.47581 0.0
C165 C 0.25061 0.32629 0.4428 0.0
C166 C 0.25755 0.30923 0.46238 0.0
H167 H 0.23564 0.35615 0.44183 0.0
H168 H 0.3853 0.24408 0.54771 0.0
H169 H 0.35577 0.24986 0.51324 0.0
H170 H 0.23455 0.26768 0.54003 0.0
H171 H 0.26463 0.26242 0.57482 0.0
H172 H 0.24543 0.28438 0.50283 0.0
H173 H 0.31778 0.2344 0.48523 0.0
H174 H 0.30736 0.2213 0.44746 0.0
H175 H 0.29498 0.25123 0.41309 0.0
C176 C 0.76938 0.85699 0.79622 0.0
C177 C 0.75799 0.83014 0.8124 0.0
C178 C 0.76668 0.8441 0.77557 0.0
C179 C 0.7521 0.80416 0.77066 0.0
C180 C 0.74349 0.77636 0.78686 0.0
C181 C 0.74626 0.78927 0.8076 0.0
C182 C 0.74269 0.79197 0.74891 0.0
C183 C 0.72724 0.81941 0.73526 0.0
C184 C 0.70969 0.80751 0.71484 0.0
C185 C 0.67557 0.82967 0.70744 0.0
C186 C 0.65673 0.81874 0.68873 0.0
C187 C 0.67231 0.78606 0.67673 0.0
H188 H 0.75262 0.75795 0.70791 0.0
C189 C 0.7074 0.76466 0.68369 0.0
C190 C 0.7258 0.77505 0.70275 0.0
H191 H 0.72002 0.73941 0.67464 0.0
H192 H 0.77932 0.88844 0.79947 0.0
H193 H 0.77505 0.86582 0.76347 0.0
H194 H 0.73263 0.74527 0.78347 0.0
H195 H 0.73767 0.7678 0.81978 0.0
H196 H 0.74336 0.75927 0.74491 0.0
H197 H 0.72252 0.85124 0.74016 0.0
H198 H 0.66279 0.85497 0.7164 0.0
H199 H 0.62993 0.83599 0.68363 0.0
C200 C 0.26881 0.35141 0.29122 0.0
C201 C 0.25943 0.32419 0.30757 0.0
C202 C 0.26237 0.33942 0.27064 0.0
C203 C 0.24617 0.3 0.26597 0.0
C204 C 0.23923 0.27187 0.28223 0.0
C205 C 0.24558 0.28393 0.3029 0.0
C206 C 0.23428 0.28844 0.24445 0.0
C207 C 0.21806 0.31638 0.23129 0.0
C208 C 0.20043 0.30545 0.21074 0.0
C209 C 0.16717 0.3288 0.20325 0.0
C210 C 0.14889 0.31924 0.1842 0.0
C211 C 0.16411 0.28666 0.172 0.0
H212 H 0.24232 0.25508 0.20364 0.0
C213 C 0.19817 0.2639 0.17916 0.0
C214 C 0.21608 0.27304 0.19847 0.0
H215 H 0.21056 0.23871 0.16999 0.0
H216 H 0.28016 0.38244 0.29432 0.0
H217 H 0.26944 0.36136 0.25842 0.0
H218 H 0.22717 0.24115 0.279 0.0
H219 H 0.23842 0.2622 0.3152 0.0
H220 H 0.23467 0.25588 0.2402 0.0
H221 H 0.21374 0.34806 0.23655 0.0
H222 H 0.15477 0.35411 0.21234 0.0
H223 H 0.12285 0.33749 0.17899 0.0
C224 C 0.69822 0.7398 0.55774 0.0
C225 C 0.65964 0.72485 0.56454 0.0
C226 C 0.71429 0.72701 0.53859 0.0
C227 C 0.69218 0.69864 0.52614 0.0
C228 C 0.65386 0.6836 0.53309 0.0
C229 C 0.63752 0.6969 0.55195 0.0
C230 C 0.70868 0.68241 0.50632 0.0
C231 C 0.73243 0.70465 0.49325 0.0
C232 C 0.74478 0.68764 0.47278 0.0
C233 C 0.74459 0.71322 0.45517 0.0
C234 C 0.75155 0.69646 0.43541 0.0
C235 C 0.75944 0.65397 0.43306 0.0
H236 H 0.75648 0.62537 0.48387 0.0
C237 C 0.76209 0.62898 0.45084 0.0
C238 C 0.75486 0.64561 0.47049 0.0
H239 H 0.76865 0.59622 0.44956 0.0
H240 H 0.71592 0.76128 0.56721 0.0
H241 H 0.74434 0.73851 0.53381 0.0
H242 H 0.63639 0.66153 0.52383 0.0
H243 H 0.60783 0.68465 0.55685 0.0
H244 H 0.69811 0.65178 0.50159 0.0
H245 H 0.73955 0.73686 0.4967 0.0
H246 H 0.7373 0.7458 0.4566 0.0
H247 H 0.74966 0.71651 0.42197 0.0
C248 C 0.28744 0.24848 0.68465 0.0
C249 C 0.32944 0.25806 0.68162 0.0
C250 C 0.27152 0.24451 0.70476 0.0
C251 C 0.29743 0.25007 0.72216 0.0
C252 C 0.33879 0.2619 0.71904 0.0
C253 C 0.35473 0.26558 0.69899 0.0
C254 C 0.28331 0.24187 0.7437 0.0
C255 C 0.25429 0.21321 0.74825 0.0
C256 C 0.24721 0.19791 0.76969 0.0
C257 C 0.23473 0.1566 0.77239 0.0
C258 C 0.23225 0.13946 0.79225 0.0
C259 C 0.2417 0.16351 0.80984 0.0
H260 H 0.26295 0.25499 0.7859 0.0
C261 C 0.25188 0.20552 0.80727 0.0
C262 C 0.25459 0.22263 0.78737 0.0
H263 H 0.2588 0.22491 0.82059 0.0
H264 H 0.26712 0.24301 0.67152 0.0
H265 H 0.23913 0.23667 0.70658 0.0
H266 H 0.35931 0.26676 0.73216 0.0
H267 H 0.38714 0.27345 0.69713 0.0
H268 H 0.30127 0.25581 0.75618 0.0
H269 H 0.23914 0.19638 0.73572 0.0
H270 H 0.22847 0.13699 0.75906 0.0
H271 H 0.22388 0.10708 0.79376 0.0
C272 C 0.84814 0.76115 0.04927 0.0
C273 C 0.82599 0.76572 0.06787 0.0
C274 C 0.82853 0.7661 0.03013 0.0
C275 C 0.78614 0.77562 0.02913 0.0
C276 C 0.7639 0.77984 0.04775 0.0
C277 C 0.78355 0.77463 0.06696 0.0
C278 C 0.7656 0.78523 0.00906 0.0
C279 C 0.77902 0.77039 0.99069 0.0
C280 C 0.76474 0.78598 0.97019 0.0
C281 C 0.77327 0.76258 0.95228 0.0
C282 C 0.76577 0.77877 0.9325 0.0
C283 C 0.74992 0.81888 0.93025 0.0
H284 H 0.74112 0.84512 0.98114 0.0
C285 C 0.73985 0.84169 0.94812 0.0
C286 C 0.74724 0.82552 0.96787 0.0
H287 H 0.72765 0.87275 0.94687 0.0
H288 H 0.88095 0.75444 0.04947 0.0
H289 H 0.84718 0.76397 0.01622 0.0
H290 H 0.73136 0.78769 0.04743 0.0
H291 H 0.76573 0.77844 0.08107 0.0
H292 H 0.73922 0.80584 0.00954 0.0
H293 H 0.80265 0.74662 0.99052 0.0
H294 H 0.78701 0.73217 0.95359 0.0
H295 H 0.77386 0.76049 0.91899 0.0
C296 C 0.06046 0.11642 0.13922 0.0
C297 C 0.04004 0.14986 0.1299 0.0
C298 C 0.0409 0.07788 0.1409 0.0
C299 C 0.00059 0.07195 0.13307 0.0
C300 C 0.97958 0.10597 0.12464 0.0
C301 C -0.00088 0.14452 0.123 0.0
C302 C 0.97956 0.0309 0.13321 0.0
C303 C 0.00017 0.99471 0.13342 0.0
C304 C 0.97973 0.9534 0.13196 0.0
C305 C 0.00375 0.91911 0.12623 0.0
C306 C 0.98589 0.87976 0.12442 0.0
C307 C 0.94356 0.87388 0.12833 0.0
H308 H 0.91794 0.97229 0.14145 0.0
C309 C 0.91955 0.90793 0.13434 0.0
C310 C 0.93743 0.94723 0.13629 0.0
H311 H 0.88693 0.90419 0.13774 0.0
H312 H 0.09186 0.1198 0.14491 0.0
H313 H 0.05759 0.05297 0.14828 0.0
H314 H 0.94833 0.10245 0.11875 0.0
H315 H 0.98252 0.16982 0.11585 0.0
H316 H 0.94619 0.03089 0.13145 0.0
H317 H 0.03375 0.99509 0.13335 0.0
H318 H 0.03644 0.9228 0.12296 0.0
H319 H 0.00521 0.85401 0.11986 0.0
C320 C 0.1107 0.40522 0.36529 0.0
C321 C 0.14753 0.42843 0.36626 0.0
C322 C 0.07239 0.42501 0.36488 0.0
C323 C 0.07014 0.46853 0.3656 0.0
C324 C 0.10706 0.49163 0.36618 0.0
C325 C 0.14537 0.47183 0.36658 0.0
C326 C 0.03016 0.49104 0.36536 0.0
C327 C 0.99399 0.47412 0.37152 0.0
C328 C 0.95417 0.49688 0.37161 0.0
C329 C 0.91707 0.47408 0.37089 0.0
C330 C 0.87891 0.49414 0.37127 0.0
C331 C 0.87708 0.53748 0.37257 0.0
H332 H 0.98 0.55906 0.37443 0.0
C333 C 0.9141 0.56038 0.37352 0.0
C334 C 0.95227 0.54033 0.37311 0.0
H335 H 0.91361 0.59383 0.37473 0.0
H336 H 0.11145 0.37171 0.36478 0.0
H337 H 0.04486 0.40597 0.36368 0.0
H338 H 0.1063 0.52516 0.36654 0.0
H339 H 0.17327 0.49054 0.36722 0.0
H340 H 0.03107 0.52302 0.36023 0.0
H341 H 0.99298 0.44213 0.37662 0.0
H342 H 0.9176 0.44058 0.36994 0.0
H343 H 0.85086 0.47566 0.37062 0.0
C344 C 0.47397 0.38267 0.62796 0.0
C345 C 0.43313 0.37459 0.62157 0.0
C346 C 0.48911 0.4234 0.62869 0.0
C347 C 0.46362 0.45678 0.62298 0.0
C348 C 0.42318 0.44839 0.61616 0.0
C349 C 0.40799 0.40787 0.61561 0.0
C350 C 0.47817 0.50056 0.62319 0.0
C351 C 0.50852 0.51493 0.6357 0.0
C352 C 0.52322 0.55872 0.63554 0.0
C353 C 0.56356 0.56751 0.64242 0.0
C354 C 0.5794 0.60782 0.64157 0.0
C355 C 0.55505 0.6404 0.63399 0.0
H356 H 0.46643 0.58667 0.62411 0.0
C357 C 0.51407 0.63208 0.62796 0.0
C358 C 0.49822 0.5917 0.62877 0.0
H359 H 0.49444 0.65664 0.62224 0.0
H360 H 0.4941 0.35759 0.63255 0.0
H361 H 0.52088 0.42842 0.63342 0.0
H362 H 0.40301 0.47339 0.61146 0.0
H363 H 0.37643 0.40265 0.61051 0.0
H364 H 0.46253 0.52167 0.61273 0.0
H365 H 0.52421 0.49375 0.64611 0.0
H366 H 0.58333 0.54289 0.64798 0.0
H367 H 0.61106 0.61329 0.64644 0.0
C368 C 0.62016 0.96599 0.87347 0.0
C369 C 0.62828 0.92434 0.86883 0.0
C370 C 0.57972 0.98113 0.87266 0.0
C371 C 0.54654 0.95494 0.86692 0.0
C372 C 0.55486 0.91326 0.86239 0.0
C373 C 0.59523 0.89812 0.86331 0.0
C374 C 0.50279 0.96922 0.86618 0.0
C375 C 0.49172 0.00934 0.86491 0.0
C376 C 0.44808 0.02406 0.86445 0.0
C377 C 0.44073 0.0654 0.85887 0.0
C378 C 0.40066 0.08135 0.8589 0.0
C379 C 0.36686 0.05628 0.86451 0.0
H380 H 0.41805 0.96724 0.87503 0.0
C381 C 0.3739 0.01485 0.86997 0.0
C382 C 0.41407 0.99891 0.87008 0.0
H383 H 0.34845 0.99491 0.87455 0.0
H384 H 0.64499 0.98681 0.87799 0.0
H385 H 0.57481 0.01308 0.87697 0.0
H386 H 0.53001 0.89225 0.8581 0.0
H387 H 0.60049 0.86581 0.85969 0.0
H388 H 0.47913 0.9453 0.86594 0.0
H389 H 0.5156 0.0329 0.86352 0.0
H390 H 0.46616 0.08564 0.85457 0.0
H391 H 0.39622 0.11345 0.85463 0.0
C392 C 0.92274 0.60585 0.11675 0.0
C393 C 0.94657 0.64232 0.11642 0.0
C394 C 0.9413 0.56735 0.11384 0.0
C395 C 0.9842 0.56453 0.11035 0.0
C396 C 0.00801 0.60106 0.11021 0.0
C397 C 0.9894 0.63959 0.11314 0.0
C398 C 0.00552 0.52414 0.10789 0.0
C399 C 0.98616 0.48885 0.10213 0.0
C400 C 0.00705 0.44806 0.10166 0.0
C401 C 0.98347 0.41227 0.1055 0.0
C402 C 0.00239 0.37357 0.10668 0.0
C403 C 0.04525 0.36988 0.10373 0.0
H404 H 0.06865 0.4708 0.09406 0.0
C405 C 0.06859 0.40536 0.09886 0.0
C406 C 0.04971 0.44412 0.09782 0.0
H407 H 0.10164 0.40337 0.09631 0.0
H408 H 0.88968 0.60697 0.11943 0.0
H409 H 0.92189 0.54006 0.11485 0.0
H410 H 0.04115 0.59981 0.10779 0.0
H411 H 0.00858 0.6672 0.11286 0.0
H412 H 0.0384 0.52363 0.11136 0.0
H413 H 0.95329 0.48901 0.0987 0.0
H414 H 0.95048 0.41439 0.10827 0.0
H415 H 0.98356 0.3467 0.11031 0.0
C416 C 0.412 0.40916 0.36804 0.0
C417 C 0.37553 0.4296 0.37375 0.0
C418 C 0.45018 0.42948 0.36919 0.0
C419 C 0.45279 0.47063 0.37641 0.0
C420 C 0.41618 0.491 0.38205 0.0
C421 C 0.37794 0.47073 0.38075 0.0
C422 C 0.4926 0.49393 0.37746 0.0
C423 C 0.53003 0.47569 0.37753 0.0
C424 C 0.57005 0.49873 0.37781 0.0
C425 C 0.60632 0.4769 0.38256 0.0
C426 C 0.64484 0.49671 0.38231 0.0
C427 C 0.64794 0.53888 0.3773 0.0
H428 H 0.54657 0.55895 0.36827 0.0
C429 C 0.61182 0.56088 0.37257 0.0
C430 C 0.5733 0.54103 0.37268 0.0
H431 H 0.61335 0.59336 0.36845 0.0
H432 H 0.411 0.37757 0.36236 0.0
H433 H 0.4772 0.41292 0.36396 0.0
H434 H 0.41712 0.52277 0.38747 0.0
H435 H 0.35029 0.4873 0.38521 0.0
H436 H 0.49051 0.52731 0.37883 0.0
H437 H 0.5319 0.44218 0.37795 0.0
H438 H 0.60491 0.44427 0.38642 0.0
H439 H 0.6722 0.47893 0.38599 0.0
C440 C 0.47299 0.12807 0.62036 0.0
C441 C 0.43056 0.13594 0.62268 0.0
C442 C 0.48755 0.08729 0.61974 0.0
C443 C 0.45978 0.05356 0.62127 0.0
C444 C 0.41749 0.06173 0.62384 0.0
C445 C 0.40304 0.10233 0.62448 0.0
C446 C 0.47322 0.00948 0.62095 0.0
C447 C 0.50999 0.9965 0.61359 0.0
C448 C 0.52348 0.95233 0.61341 0.0
C449 C 0.55929 0.94201 0.60222 0.0
C450 C 0.57451 0.90159 0.60235 0.0
C451 C 0.55417 0.87039 0.61364 0.0
H452 H 0.47578 0.92697 0.63381 0.0
C453 C 0.51793 0.88026 0.62451 0.0
C454 C 0.50287 0.92078 0.62454 0.0
H455 H 0.50185 0.85694 0.63355 0.0
H456 H 0.49495 0.1534 0.61909 0.0
H457 H 0.52052 0.08261 0.61839 0.0
H458 H 0.39536 0.03655 0.62524 0.0
H459 H 0.37013 0.10731 0.62634 0.0
H460 H 0.45075 0.98693 0.62635 0.0
H461 H 0.53115 0.01893 0.60686 0.0
H462 H 0.57598 0.96546 0.59354 0.0
H463 H 0.60262 0.89494 0.59386 0.0
C464 C 0.8978 0.91722 0.879 0.0
C465 C 0.86103 0.93994 0.87731 0.0
C466 C 0.93612 0.93739 0.87961 0.0
C467 C 0.93853 0.98085 0.87839 0.0
C468 C 0.90165 0.00356 0.87722 0.0
C469 C 0.86327 0.98334 0.87658 0.0
C470 C 0.97873 0.00351 0.87872 0.0
C471 C 0.01457 0.98673 0.87216 0.0
C472 C 0.05515 0.00886 0.87206 0.0
C473 C 0.09143 0.98545 0.86988 0.0
C474 C 0.13025 0.00474 0.86932 0.0
C475 C 0.13364 0.04798 0.87084 0.0
H476 H 0.03173 0.07183 0.87451 0.0
C477 C 0.09748 0.07152 0.87292 0.0
C478 C 0.05865 0.05228 0.87344 0.0
H479 H 0.09909 0.10498 0.87394 0.0
H480 H 0.89703 0.88373 0.87983 0.0
H481 H 0.9636 0.91875 0.88132 0.0
H482 H 0.90256 0.03707 0.8765 0.0
H483 H 0.83542 0.00168 0.87538 0.0
H484 H 0.97809 0.03528 0.88416 0.0
H485 H 0.01456 0.95505 0.86649 0.0
H486 H 0.08978 0.95202 0.86864 0.0
H487 H 0.15758 0.98578 0.86765 0.0
loop_
_geom_bond_atom_site_label_1
_geom_bond_atom_site_label_2
_geom_bond_distance
_geom_bond_site_symmetry_2
_ccdc_geom_bond_type
In0 O1 2.294 . S
In0 O2 2.326 . S
In0 O6 2.266 . S
In0 O7 2.326 . S
In0 O8 2.266 . S
In0 O9 2.326 . S
In0 O11 2.294 . S
In0 O12 2.326 . S
O1 In0 2.294 . S
O1 C10 1.240 . S
O2 In0 2.326 . S
O2 C10 1.252 . S
C3 O6 1.252 . S
C3 O7 1.260 . S
C4 O11 1.240 . S
C4 O12 1.252 . S
C5 O8 1.252 . S
C5 O9 1.260 . S
O6 In0 2.266 . S
O6 C3 1.252 . S
O7 In0 2.326 . S
O7 C3 1.260 . S
O8 In0 2.266 . S
O8 C5 1.252 . S
O9 In0 2.326 . S
O9 C5 1.260 . S
C10 O1 1.240 . S
C10 O2 1.252 . S
O11 In0 2.294 . S
O11 C4 1.240 . S
O12 In0 2.326 . S
O12 C4 1.252 . S
In13 O14 2.294 . S
In13 O15 2.326 . S
In13 O19 2.266 . S
In13 O20 2.326 . S
In13 O21 2.266 . S
In13 O22 2.326 . S
In13 O24 2.294 . S
In13 O25 2.326 . S
O14 In13 2.294 . S
O14 C23 1.240 . S
O15 In13 2.326 . S
O15 C23 1.252 . S
C16 O19 1.252 . S
C16 O20 1.260 . S
C17 O24 1.240 . S
C17 O25 1.252 . S
C18 O21 1.252 . S
C18 O22 1.260 . S
O19 In13 2.266 . S
O19 C16 1.252 . S
O20 In13 2.326 . S
O20 C16 1.260 . S
O21 In13 2.266 . S
O21 C18 1.252 . S
O22 In13 2.326 . S
O22 C18 1.260 . S
C23 O14 1.240 . S
C23 O15 1.252 . S
O24 In13 2.294 . S
O24 C17 1.240 . S
O25 In13 2.326 . S
O25 C17 1.252 . S
In26 O27 2.294 . S
In26 O28 2.326 . S
In26 O32 2.266 . S
In26 O33 2.326 . S
In26 O34 2.266 . S
In26 O35 2.326 . S
In26 O37 2.294 . S
In26 O38 2.326 . S
O27 In26 2.294 . S
O27 C36 1.240 . S
O28 In26 2.326 . S
O28 C36 1.252 . S
C29 O32 1.252 . S
C29 O33 1.260 . S
C30 O37 1.240 . S
C30 O38 1.252 . S
C31 O34 1.252 . S
C31 O35 1.260 . S
O32 In26 2.266 . S
O32 C29 1.252 . S
O33 In26 2.326 . S
O33 C29 1.260 . S
O34 In26 2.266 . S
O34 C31 1.252 . S
O35 In26 2.326 . S
O35 C31 1.260 . S
C36 O27 1.240 . S
C36 O28 1.252 . S
O37 In26 2.294 . S
O37 C30 1.240 . S
O38 In26 2.326 . S
O38 C30 1.252 . S
In39 O40 2.294 . S
In39 O41 2.326 . S
In39 O45 2.266 . S
In39 O46 2.326 . S
In39 O47 2.266 . S
In39 O48 2.326 . S
In39 O50 2.294 . S
In39 O51 2.326 . S
O40 In39 2.294 . S
O40 C49 1.240 . S
O41 In39 2.326 . S
O41 C49 1.252 . S
C42 O45 1.252 . S
C42 O46 1.260 . S
C43 O50 1.240 . S
C43 O51 1.252 . S
C44 O47 1.252 . S
C44 O48 1.260 . S
O45 In39 2.266 . S
O45 C42 1.252 . S
O46 In39 2.326 . S
O46 C42 1.260 . S
O47 In39 2.266 . S
O47 C44 1.252 . S
O48 In39 2.326 . S
O48 C44 1.260 . S
C49 O40 1.240 . S
C49 O41 1.252 . S
O50 In39 2.294 . S
O50 C43 1.240 . S
O51 In39 2.326 . S
O51 C43 1.252 . S
In52 O53 2.294 . S
In52 O54 2.326 . S
In52 O58 2.266 . S
In52 O59 2.326 . S
In52 O60 2.266 . S
In52 O61 2.326 . S
In52 O63 2.294 . S
In52 O64 2.326 . S
O53 In52 2.294 . S
O53 C62 1.240 . S
O54 In52 2.326 . S
O54 C62 1.252 . S
C55 O58 1.252 . S
C55 O59 1.260 . S
C56 O63 1.240 . S
C56 O64 1.252 . S
C57 O60 1.252 . S
C57 O61 1.260 . S
O58 In52 2.266 . S
O58 C55 1.252 . S
O59 In52 2.326 . S
O59 C55 1.260 . S
O60 In52 2.266 . S
O60 C57 1.252 . S
O61 In52 2.326 . S
O61 C57 1.260 . S
C62 O53 1.240 . S
C62 O54 1.252 . S
O63 In52 2.294 . S
O63 C56 1.240 . S
O64 In52 2.326 . S
O64 C56 1.252 . S
In65 O66 2.294 . S
In65 O67 2.326 . S
In65 O71 2.266 . S
In65 O72 2.326 . S
In65 O73 2.266 . S
In65 O74 2.326 . S
In65 O76 2.294 . S
In65 O77 2.326 . S
O66 In65 2.294 . S
O66 C75 1.240 . S
O67 In65 2.326 . S
O67 C75 1.252 . S
C68 O71 1.252 . S
C68 O72 1.260 . S
C69 O76 1.240 . S
C69 O77 1.252 . S
C70 O73 1.252 . S
C70 O74 1.260 . S
O71 In65 2.266 . S
O71 C68 1.252 . S
O72 In65 2.326 . S
O72 C68 1.260 . S
O73 In65 2.266 . S
O73 C70 1.252 . S
O74 In65 2.326 . S
O74 C70 1.260 . S
C75 O66 1.240 . S
C75 O67 1.252 . S
O76 In65 2.294 . S
O76 C69 1.240 . S
O77 In65 2.326 . S
O77 C69 1.252 . S
In78 O79 2.294 . S
In78 O80 2.326 . S
In78 O84 2.266 . S
In78 O85 2.326 . S
In78 O86 2.266 . S
In78 O87 2.326 . S
In78 O89 2.294 . S
In78 O90 2.326 . S
O79 In78 2.294 . S
O79 C88 1.240 . S
O80 In78 2.326 . S
O80 C88 1.252 . S
C81 O84 1.252 . S
C81 O85 1.260 . S
C82 O89 1.240 . S
C82 O90 1.252 . S
C83 O86 1.252 . S
C83 O87 1.260 . S
O84 In78 2.266 . S
O84 C81 1.252 . S
O85 In78 2.326 . S
O85 C81 1.260 . S
O86 In78 2.266 . S
O86 C83 1.252 . S
O87 In78 2.326 . S
O87 C83 1.260 . S
C88 O79 1.240 . S
C88 O80 1.252 . S
O89 In78 2.294 . S
O89 C82 1.240 . S
O90 In78 2.326 . S
O90 C82 1.252 . S
In91 O92 2.294 . S
In91 O93 2.326 . S
In91 O97 2.266 . S
In91 O98 2.326 . S
In91 O99 2.266 . S
In91 O100 2.326 . S
In91 O102 2.294 . S
In91 O103 2.326 . S
O92 In91 2.294 . S
O92 C101 1.240 . S
O93 In91 2.326 . S
O93 C101 1.252 . S
C94 O97 1.252 . S
C94 O98 1.260 . S
C95 O102 1.240 . S
C95 O103 1.252 . S
C96 O99 1.252 . S
C96 O100 1.260 . S
O97 In91 2.266 . S
O97 C94 1.252 . S
O98 In91 2.326 . S
O98 C94 1.260 . S
O99 In91 2.266 . S
O99 C96 1.252 . S
O100 In91 2.326 . S
O100 C96 1.260 . S
C101 O92 1.240 . S
C101 O93 1.252 . S
O102 In91 2.294 . S
O102 C95 1.240 . S
O103 In91 2.326 . S
O103 C95 1.252 . S
C104 C105 1.386 . S
C104 C106 1.383 . S
C104 H120 0.951 . S
C105 C104 1.386 . S
C105 C109 1.383 . S
C106 C104 1.383 . S
C106 C107 1.402 . S
C106 H121 0.951 . S
C107 C106 1.402 . S
C107 C108 1.375 . S
C107 C110 1.481 . S
C108 C107 1.375 . S
C108 C109 1.367 . S
C108 H122 0.951 . S
C109 C105 1.383 . S
C109 C108 1.367 . S
C109 H123 0.950 . S
C110 C107 1.481 . S
C110 C111 1.297 1_554 S
C110 H124 0.950 . S
C111 C110 1.297 1_556 S
C111 C112 1.479 . S
C111 H125 0.950 1_556 S
C112 C111 1.479 . S
C112 C113 1.375 . S
C112 C118 1.404 . S
C113 C112 1.375 . S
C113 C114 1.369 . S
C113 H126 0.950 . S
C114 C113 1.369 . S
C114 C115 1.392 . S
C114 H127 0.951 . S
C115 C114 1.392 . S
C115 C117 1.384 . S
H116 C118 0.949 . S
C117 C115 1.384 . S
C117 C118 1.385 . S
C117 H119 0.950 . S
C118 C112 1.404 . S
C118 H116 0.949 . S
C118 C117 1.385 . S
H119 C117 0.950 . S
H120 C104 0.951 . S
H121 C106 0.951 . S
H122 C108 0.951 . S
H123 C109 0.950 . S
H124 C110 0.950 . S
H125 C111 0.950 1_554 S
H126 C113 0.950 . S
H127 C114 0.951 . S
C128 C129 1.386 . S
C128 C130 1.383 . S
C128 H144 0.951 . S
C129 C128 1.386 . S
C129 C133 1.383 . S
C130 C128 1.383 . S
C130 C131 1.402 . S
C130 H145 0.951 . S
C131 C130 1.402 . S
C131 C132 1.375 . S
C131 C134 1.481 . S
C132 C131 1.375 . S
C132 C133 1.367 . S
C132 H146 0.951 . S
C133 C129 1.383 . S
C133 C132 1.367 . S
C133 H147 0.950 . S
C134 C131 1.481 . S
C134 C135 1.297 . S
C134 H148 0.950 . S
C135 C134 1.297 . S
C135 C136 1.479 . S
C135 H149 0.950 . S
C136 C135 1.479 . S
C136 C137 1.375 . S
C136 C142 1.404 . S
C137 C136 1.375 . S
C137 C138 1.369 . S
C137 H150 0.950 . S
C138 C137 1.369 . S
C138 C139 1.392 . S
C138 H151 0.951 . S
C139 C138 1.392 . S
C139 C141 1.384 . S
H140 C142 0.949 . S
C141 C139 1.384 . S
C141 C142 1.385 . S
C141 H143 0.950 . S
C142 C136 1.404 . S
C142 H140 0.949 . S
C142 C141 1.385 . S
H143 C141 0.950 . S
H144 C128 0.951 . S
H145 C130 0.951 . S
H146 C132 0.951 . S
H147 C133 0.950 . S
H148 C134 0.950 . S
H149 C135 0.950 . S
H150 C137 0.950 . S
H151 C138 0.951 . S
C152 C153 1.386 . S
C152 C154 1.383 . S
C152 H168 0.951 . S
C153 C152 1.386 . S
C153 C157 1.383 . S
C154 C152 1.383 . S
C154 C155 1.402 . S
C154 H169 0.951 . S
C155 C154 1.402 . S
C155 C156 1.375 . S
C155 C158 1.481 . S
C156 C155 1.375 . S
C156 C157 1.367 . S
C156 H170 0.951 . S
C157 C153 1.383 . S
C157 C156 1.367 . S
C157 H171 0.950 . S
C158 C155 1.481 . S
C158 C159 1.297 . S
C158 H172 0.950 . S
C159 C158 1.297 . S
C159 C160 1.479 . S
C159 H173 0.950 . S
C160 C159 1.479 . S
C160 C161 1.375 . S
C160 C166 1.404 . S
C161 C160 1.375 . S
C161 C162 1.369 . S
C161 H174 0.950 . S
C162 C161 1.369 . S
C162 C163 1.392 . S
C162 H175 0.951 . S
C163 C162 1.392 . S
C163 C165 1.384 . S
H164 C166 0.949 . S
C165 C163 1.384 . S
C165 C166 1.385 . S
C165 H167 0.950 . S
C166 C160 1.404 . S
C166 H164 0.949 . S
C166 C165 1.385 . S
H167 C165 0.950 . S
H168 C152 0.951 . S
H169 C154 0.951 . S
H170 C156 0.951 . S
H171 C157 0.950 . S
H172 C158 0.950 . S
H173 C159 0.950 . S
H174 C161 0.950 . S
H175 C162 0.951 . S
C176 C177 1.386 . S
C176 C178 1.383 . S
C176 H192 0.951 . S
C177 C176 1.386 . S
C177 C181 1.383 . S
C178 C176 1.383 . S
C178 C179 1.402 . S
C178 H193 0.951 . S
C179 C178 1.402 . S
C179 C180 1.375 . S
C179 C182 1.481 . S
C180 C179 1.375 . S
C180 C181 1.367 . S
C180 H194 0.951 . S
C181 C177 1.383 . S
C181 C180 1.367 . S
C181 H195 0.950 . S
C182 C179 1.481 . S
C182 C183 1.297 . S
C182 H196 0.950 . S
C183 C182 1.297 . S
C183 C184 1.479 . S
C183 H197 0.950 . S
C184 C183 1.479 . S
C184 C185 1.375 . S
C184 C190 1.404 . S
C185 C184 1.375 . S
C185 C186 1.369 . S
C185 H198 0.950 . S
C186 C185 1.369 . S
C186 C187 1.392 . S
C186 H199 0.951 . S
C187 C186 1.392 . S
C187 C189 1.384 . S
H188 C190 0.949 . S
C189 C187 1.384 . S
C189 C190 1.385 . S
C189 H191 0.950 . S
C190 C184 1.404 . S
C190 H188 0.949 . S
C190 C189 1.385 . S
H191 C189 0.950 . S
H192 C176 0.951 . S
H193 C178 0.951 . S
H194 C180 0.951 . S
H195 C181 0.950 . S
H196 C182 0.950 . S
H197 C183 0.950 . S
H198 C185 0.950 . S
H199 C186 0.951 . S
C200 C201 1.386 . S
C200 C202 1.383 . S
C200 H216 0.951 . S
C201 C200 1.386 . S
C201 C205 1.383 . S
C202 C200 1.383 . S
C202 C203 1.402 . S
C202 H217 0.951 . S
C203 C202 1.402 . S
C203 C204 1.375 . S
C203 C206 1.481 . S
C204 C203 1.375 . S
C204 C205 1.367 . S
C204 H218 0.951 . S
C205 C201 1.383 . S
C205 C204 1.367 . S
C205 H219 0.950 . S
C206 C203 1.481 . S
C206 C207 1.297 . S
C206 H220 0.950 . S
C207 C206 1.297 . S
C207 C208 1.479 . S
C207 H221 0.950 . S
C208 C207 1.479 . S
C208 C209 1.375 . S
C208 C214 1.404 . S
C209 C208 1.375 . S
C209 C210 1.369 . S
C209 H222 0.950 . S
C210 C209 1.369 . S
C210 C211 1.392 . S
C210 H223 0.951 . S
C211 C210 1.392 . S
C211 C213 1.384 . S
H212 C214 0.949 . S
C213 C211 1.384 . S
C213 C214 1.385 . S
C213 H215 0.950 . S
C214 C208 1.404 . S
C214 H212 0.949 . S
C214 C213 1.385 . S
H215 C213 0.950 . S
H216 C200 0.951 . S
H217 C202 0.951 . S
H218 C204 0.951 . S
H219 C205 0.950 . S
H220 C206 0.950 . S
H221 C207 0.950 . S
H222 C209 0.950 . S
H223 C210 0.951 . S
C224 C225 1.386 . S
C224 C226 1.383 . S
C224 H240 0.951 . S
C225 C224 1.386 . S
C225 C229 1.383 . S
C226 C224 1.383 . S
C226 C227 1.402 . S
C226 H241 0.951 . S
C227 C226 1.402 . S
C227 C228 1.375 . S
C227 C230 1.481 . S
C228 C227 1.375 . S
C228 C229 1.367 . S
C228 H242 0.951 . S
C229 C225 1.383 . S
C229 C228 1.367 . S
C229 H243 0.950 . S
C230 C227 1.481 . S
C230 C231 1.297 . S
C230 H244 0.950 . S
C231 C230 1.297 . S
C231 C232 1.479 . S
C231 H245 0.950 . S
C232 C231 1.479 . S
C232 C233 1.375 . S
C232 C238 1.404 . S
C233 C232 1.375 . S
C233 C234 1.369 . S
C233 H246 0.950 . S
C234 C233 1.369 . S
C234 C235 1.392 . S
C234 H247 0.951 . S
C235 C234 1.392 . S
C235 C237 1.384 . S
H236 C238 0.949 . S
C237 C235 1.384 . S
C237 C238 1.385 . S
C237 H239 0.950 . S
C238 C232 1.404 . S
C238 H236 0.949 . S
C238 C237 1.385 . S
H239 C237 0.950 . S
H240 C224 0.951 . S
H241 C226 0.951 . S
H242 C228 0.951 . S
H243 C229 0.950 . S
H244 C230 0.950 . S
H245 C231 0.950 . S
H246 C233 0.950 . S
H247 C234 0.951 . S
C248 C249 1.386 . S
C248 C250 1.383 . S
C248 H264 0.951 . S
C249 C248 1.386 . S
C249 C253 1.383 . S
C250 C248 1.383 . S
C250 C251 1.402 . S
C250 H265 0.951 . S
C251 C250 1.402 . S
C251 C252 1.375 . S
C251 C254 1.481 . S
C252 C251 1.375 . S
C252 C253 1.367 . S
C252 H266 0.951 . S
C253 C249 1.383 . S
C253 C252 1.367 . S
C253 H267 0.950 . S
C254 C251 1.481 . S
C254 C255 1.297 . S
C254 H268 0.950 . S
C255 C254 1.297 . S
C255 C256 1.479 . S
C255 H269 0.950 . S
C256 C255 1.479 . S
C256 C257 1.375 . S
C256 C262 1.404 . S
C257 C256 1.375 . S
C257 C258 1.369 . S
C257 H270 0.950 . S
C258 C257 1.369 . S
C258 C259 1.392 . S
C258 H271 0.951 . S
C259 C258 1.392 . S
C259 C261 1.384 . S
H260 C262 0.949 . S
C261 C259 1.384 . S
C261 C262 1.385 . S
C261 H263 0.950 . S
C262 C256 1.404 . S
C262 H260 0.949 . S
C262 C261 1.385 . S
H263 C261 0.950 . S
H264 C248 0.951 . S
H265 C250 0.951 . S
H266 C252 0.951 . S
H267 C253 0.950 . S
H268 C254 0.950 . S
H269 C255 0.950 . S
H270 C257 0.950 . S
H271 C258 0.951 . S
C272 C273 1.386 . S
C272 C274 1.383 . S
C272 H288 0.951 . S
C273 C272 1.386 . S
C273 C277 1.383 . S
C274 C272 1.383 . S
C274 C275 1.402 . S
C274 H289 0.951 . S
C275 C274 1.402 . S
C275 C276 1.375 . S
C275 C278 1.481 . S
C276 C275 1.375 . S
C276 C277 1.367 . S
C276 H290 0.951 . S
C277 C273 1.383 . S
C277 C276 1.367 . S
C277 H291 0.950 . S
C278 C275 1.481 . S
C278 C279 1.297 1_554 S
C278 H292 0.950 . S
C279 C278 1.297 1_556 S
C279 C280 1.479 . S
C279 H293 0.960 . S
C280 C279 1.479 . S
C280 C281 1.375 . S
C280 C286 1.404 . S
C281 C280 1.375 . S
C281 C282 1.369 . S
C281 H294 0.950 . S
C282 C281 1.369 . S
C282 C283 1.392 . S
C282 H295 0.951 . S
C283 C282 1.392 . S
C283 C285 1.384 . S
H284 C286 0.949 . S
C285 C283 1.384 . S
C285 C286 1.385 . S
C285 H287 0.950 . S
C286 C280 1.404 . S
C286 H284 0.949 . S
C286 C285 1.385 . S
H287 C285 0.950 . S
H288 C272 0.951 . S
H289 C274 0.951 . S
H290 C276 0.951 . S
H291 C277 0.950 . S
H292 C278 0.950 . S
H293 C279 0.960 . S
H294 C281 0.950 . S
H295 C282 0.951 . S
C296 C297 1.386 . S
C296 C298 1.383 . S
C296 H312 0.951 . S
C297 C296 1.386 . S
C297 C301 1.383 . S
C298 C296 1.383 . S
C298 C299 1.402 . S
C298 H313 0.951 . S
C299 C298 1.402 . S
C299 C300 1.375 . S
C299 C302 1.481 . S
C300 C299 1.375 . S
C300 C301 1.367 . S
C300 H314 0.951 . S
C301 C297 1.383 . S
C301 C300 1.367 . S
C301 H315 0.950 . S
C302 C299 1.481 . S
C302 C303 1.297 1_545 S
C302 H316 0.950 1_455 S
C303 C302 1.297 1_565 S
C303 C304 1.479 1_455 S
C303 H317 0.950 . S
C304 C303 1.479 1_655 S
C304 C305 1.375 . S
C304 C310 1.404 . S
C305 C304 1.375 . S
C305 C306 1.369 . S
C305 H318 0.950 1_655 S
C306 C305 1.369 . S
C306 C307 1.392 . S
C306 H319 0.951 . S
C307 C306 1.392 . S
C307 C309 1.384 . S
H308 C310 0.949 . S
C309 C307 1.384 . S
C309 C310 1.385 . S
C309 H311 0.950 . S
C310 C304 1.404 . S
C310 H308 0.949 . S
C310 C309 1.385 . S
H311 C309 0.950 . S
H312 C296 0.951 . S
H313 C298 0.951 . S
H314 C300 0.951 . S
H315 C301 0.950 . S
H316 C302 0.950 1_655 S
H317 C303 0.950 . S
H318 C305 0.950 1_455 S
H319 C306 0.951 . S
C320 C321 1.386 . S
C320 C322 1.383 . S
C320 H336 0.951 . S
C321 C320 1.386 . S
C321 C325 1.383 . S
C322 C320 1.383 . S
C322 C323 1.402 . S
C322 H337 0.951 . S
C323 C322 1.402 . S
C323 C324 1.375 . S
C323 C326 1.481 . S
C324 C323 1.375 . S
C324 C325 1.367 . S
C324 H338 0.951 . S
C325 C321 1.383 . S
C325 C324 1.367 . S
C325 H339 0.950 . S
C326 C323 1.481 . S
C326 C327 1.297 1_455 S
C326 H340 0.950 . S
C327 C326 1.297 1_655 S
C327 C328 1.479 . S
C327 H341 0.950 . S
C328 C327 1.479 . S
C328 C329 1.375 . S
C328 C334 1.404 . S
C329 C328 1.375 . S
C329 C330 1.369 . S
C329 H342 0.950 . S
C330 C329 1.369 . S
C330 C331 1.392 . S
C330 H343 0.951 . S
C331 C330 1.392 . S
C331 C333 1.384 . S
H332 C334 0.949 . S
C333 C331 1.384 . S
C333 C334 1.385 . S
C333 H335 0.950 . S
C334 C328 1.404 . S
C334 H332 0.949 . S
C334 C333 1.385 . S
H335 C333 0.950 . S
H336 C320 0.951 . S
H337 C322 0.951 . S
H338 C324 0.951 . S
H339 C325 0.950 . S
H340 C326 0.950 . S
H341 C327 0.950 . S
H342 C329 0.950 . S
H343 C330 0.951 . S
C344 C345 1.386 . S
C344 C346 1.383 . S
C344 H360 0.951 . S
C345 C344 1.386 . S
C345 C349 1.383 . S
C346 C344 1.383 . S
C346 C347 1.402 . S
C346 H361 0.951 . S
C347 C346 1.402 . S
C347 C348 1.375 . S
C347 C350 1.481 . S
C348 C347 1.375 . S
C348 C349 1.367 . S
C348 H362 0.951 . S
C349 C345 1.383 . S
C349 C348 1.367 . S
C349 H363 0.950 . S
C350 C347 1.481 . S
C350 C351 1.297 . S
C350 H364 0.950 . S
C351 C350 1.297 . S
C351 C352 1.479 . S
C351 H365 0.950 . S
C352 C351 1.479 . S
C352 C353 1.375 . S
C352 C358 1.404 . S
C353 C352 1.375 . S
C353 C354 1.369 . S
C353 H366 0.950 . S
C354 C353 1.369 . S
C354 C355 1.392 . S
C354 H367 0.951 . S
C355 C354 1.392 . S
C355 C357 1.384 . S
H356 C358 0.949 . S
C357 C355 1.384 . S
C357 C358 1.385 . S
C357 H359 0.950 . S
C358 C352 1.404 . S
C358 H356 0.949 . S
C358 C357 1.385 . S
H359 C357 0.950 . S
H360 C344 0.951 . S
H361 C346 0.951 . S
H362 C348 0.951 . S
H363 C349 0.950 . S
H364 C350 0.950 . S
H365 C351 0.950 . S
H366 C353 0.950 . S
H367 C354 0.951 . S
C368 C369 1.386 . S
C368 C370 1.383 . S
C368 H384 0.951 . S
C369 C368 1.386 . S
C369 C373 1.383 . S
C370 C368 1.383 . S
C370 C371 1.402 . S
C370 H385 0.951 . S
C371 C370 1.402 . S
C371 C372 1.375 . S
C371 C374 1.481 . S
C372 C371 1.375 . S
C372 C373 1.367 . S
C372 H386 0.951 . S
C373 C369 1.383 . S
C373 C372 1.367 . S
C373 H387 0.950 . S
C374 C371 1.481 . S
C374 C375 1.297 . S
C374 H388 0.950 . S
C375 C374 1.297 . S
C375 C376 1.479 1_565 S
C375 H389 0.950 . S
C376 C375 1.479 1_545 S
C376 C377 1.375 . S
C376 C382 1.404 . S
C377 C376 1.375 . S
C377 C378 1.369 . S
C377 H390 0.950 . S
C378 C377 1.369 . S
C378 C379 1.392 . S
C378 H391 0.951 . S
C379 C378 1.392 . S
C379 C381 1.384 . S
H380 C382 0.949 . S
C381 C379 1.384 . S
C381 C382 1.385 . S
C381 H383 0.950 . S
C382 C376 1.404 . S
C382 H380 0.949 . S
C382 C381 1.385 . S
H383 C381 0.950 . S
H384 C368 0.951 . S
H385 C370 0.951 . S
H386 C372 0.951 . S
H387 C373 0.950 . S
H388 C374 0.950 . S
H389 C375 0.950 . S
H390 C377 0.950 . S
H391 C378 0.951 . S
C392 C393 1.386 . S
C392 C394 1.383 . S
C392 H408 0.951 . S
C393 C392 1.386 . S
C393 C397 1.383 . S
C394 C392 1.383 . S
C394 C395 1.402 . S
C394 H409 0.951 . S
C395 C394 1.402 . S
C395 C396 1.379 . S
C395 C398 1.481 1_655 S
C396 C395 1.379 . S
C396 C397 1.372 . S
C396 H410 0.941 1_655 S
C397 C393 1.383 . S
C397 C396 1.372 . S
C397 H411 0.950 . S
C398 C395 1.481 1_455 S
C398 C399 1.297 1_455 S
C398 H412 0.950 . S
C399 C398 1.297 1_655 S
C399 C400 1.479 1_655 S
C399 H413 0.950 . S
C400 C399 1.479 1_455 S
C400 C401 1.375 1_455 S
C400 C406 1.404 . S
C401 C400 1.375 1_655 S
C401 C402 1.369 1_655 S
C401 H414 0.950 . S
C402 C401 1.369 1_455 S
C402 C403 1.392 . S
C402 H415 0.951 . S
C403 C402 1.392 . S
C403 C405 1.384 . S
H404 C406 0.949 . S
C405 C403 1.384 . S
C405 C406 1.385 . S
C405 H407 0.950 . S
C406 C400 1.404 . S
C406 H404 0.949 . S
C406 C405 1.385 . S
H407 C405 0.950 . S
H408 C392 0.951 . S
H409 C394 0.951 . S
H410 C396 0.941 1_455 S
H411 C397 0.950 . S
H412 C398 0.950 . S
H413 C399 0.950 . S
H414 C401 0.950 . S
H415 C402 0.951 . S
C416 C417 1.386 . S
C416 C418 1.383 . S
C416 H432 0.951 . S
C417 C416 1.386 . S
C417 C421 1.383 . S
C418 C416 1.383 . S
C418 C419 1.402 . S
C418 H433 0.951 . S
C419 C418 1.402 . S
C419 C420 1.375 . S
C419 C422 1.481 . S
C420 C419 1.375 . S
C420 C421 1.367 . S
C420 H434 0.951 . S
C421 C417 1.383 . S
C421 C420 1.367 . S
C421 H435 0.950 . S
C422 C419 1.481 . S
C422 C423 1.297 . S
C422 H436 0.950 . S
C423 C422 1.297 . S
C423 C424 1.479 . S
C423 H437 0.950 . S
C424 C423 1.479 . S
C424 C425 1.375 . S
C424 C430 1.404 . S
C425 C424 1.375 . S
C425 C426 1.369 . S
C425 H438 0.950 . S
C426 C425 1.369 . S
C426 C427 1.392 . S
C426 H439 0.951 . S
C427 C426 1.392 . S
C427 C429 1.384 . S
H428 C430 0.949 . S
C429 C427 1.384 . S
C429 C430 1.385 . S
C429 H431 0.950 . S
C430 C424 1.404 . S
C430 H428 0.949 . S
C430 C429 1.385 . S
H431 C429 0.950 . S
H432 C416 0.951 . S
H433 C418 0.951 . S
H434 C420 0.951 . S
H435 C421 0.950 . S
H436 C422 0.950 . S
H437 C423 0.950 . S
H438 C425 0.950 . S
H439 C426 0.951 . S
C440 C441 1.386 . S
C440 C442 1.383 . S
C440 H456 0.951 . S
C441 C440 1.386 . S
C441 C445 1.383 . S
C442 C440 1.383 . S
C442 C443 1.402 . S
C442 H457 0.951 . S
C443 C442 1.402 . S
C443 C444 1.375 . S
C443 C446 1.481 . S
C444 C443 1.375 . S
C444 C445 1.367 . S
C444 H458 0.951 . S
C445 C441 1.383 . S
C445 C444 1.367 . S
C445 H459 0.950 . S
C446 C443 1.481 . S
C446 C447 1.297 1_545 S
C446 H460 0.950 1_545 S
C447 C446 1.297 1_565 S
C447 C448 1.479 . S
C447 H461 0.950 1_565 S
C448 C447 1.479 . S
C448 C449 1.375 . S
C448 C454 1.404 . S
C449 C448 1.375 . S
C449 C450 1.369 . S
C449 H462 0.950 . S
C450 C449 1.369 . S
C450 C451 1.392 . S
C450 H463 0.951 . S
C451 C450 1.392 . S
C451 C453 1.384 . S
H452 C454 0.949 . S
C453 C451 1.384 . S
C453 C454 1.385 . S
C453 H455 0.950 . S
C454 C448 1.404 . S
C454 H452 0.949 . S
C454 C453 1.385 . S
H455 C453 0.950 . S
H456 C440 0.951 . S
H457 C442 0.951 . S
H458 C444 0.951 . S
H459 C445 0.950 . S
H460 C446 0.950 1_565 S
H461 C447 0.950 1_545 S
H462 C449 0.950 . S
H463 C450 0.951 . S
C464 C465 1.386 . S
C464 C466 1.383 . S
C464 H480 0.951 . S
C465 C464 1.386 . S
C465 C469 1.383 . S
C466 C464 1.383 . S
C466 C467 1.402 . S
C466 H481 0.951 . S
C467 C466 1.402 . S
C467 C468 1.375 1_565 S
C467 C470 1.481 1_565 S
C468 C467 1.375 1_545 S
C468 C469 1.367 1_545 S
C468 H482 0.951 . S
C469 C465 1.383 . S
C469 C468 1.367 1_565 S
C469 H483 0.950 . S
C470 C467 1.481 1_545 S
C470 C471 1.297 1_655 S
C470 H484 0.950 . S
C471 C470 1.297 1_455 S
C471 C472 1.479 . S
C471 H485 0.950 1_545 S
C472 C471 1.479 . S
C472 C473 1.375 . S
C472 C478 1.404 . S
C473 C472 1.375 . S
C473 C474 1.369 . S
C473 H486 0.950 1_545 S
C474 C473 1.369 . S
C474 C475 1.392 . S
C474 H487 0.951 . S
C475 C474 1.392 . S
C475 C477 1.384 . S
H476 C478 0.949 . S
C477 C475 1.384 . S
C477 C478 1.385 . S
C477 H479 0.950 . S
C478 C472 1.404 . S
C478 H476 0.949 . S
C478 C477 1.385 . S
H479 C477 0.950 . S
H480 C464 0.951 . S
H481 C466 0.951 . S
H482 C468 0.951 . S
H483 C469 0.950 . S
H484 C470 0.950 . S
H485 C471 0.950 1_565 S
H486 C473 0.950 1_565 S
H487 C474 0.951 . S
C105 C5 1.288 . S
C115 C68 1.273 . S
C129 C23 1.287 . S
C139 C88 1.272 . S
C153 C31 1.296 . S
C163 C94 1.298 . S
C177 C49 1.308 . S
C187 C56 1.307 . S
C201 C101 1.302 . S
C211 C4 1.296 . S
C225 C57 1.295 . S
C235 C16 1.283 . S
C249 C30 1.286 . S
C259 C75 1.272 . S
C273 C81 1.295 . S
C283 C42 1.284 . S
C297 C3 1.535 . S
C307 C83 1.523 . S
C321 C95 1.525 . S
C331 C17 1.528 . S
C345 C29 1.530 . S
C355 C55 1.525 . S
C369 C43 1.532 . S
C379 C69 1.515 . S
C393 C82 1.530 . S
C403 C10 1.524 . S
C417 C96 1.532 . S
C427 C18 1.529 . S
C441 C36 1.529 . S
C451 C62 1.510 . S
C465 C44 1.532 . S
C475 C70 1.529 . S
