# Generated by pormake.
# Topology uoa, (4)-cn, num edge types: 1
# Building blocks:
#     Node 0, Type 0, BuildingBlock: MUDLON_clean_sbu_0, # of connection points: 4
#     Node 1, Type 0, BuildingBlock: MUDLON_clean_sbu_0, # of connection points: 4
#     Node 2, Type 0, BuildingBlock: MUDLON_clean_sbu_0, # of connection points: 4
#     Node 3, Type 0, BuildingBlock: MUDLON_clean_sbu_0, # of connection points: 4
#     Node 4, Type 0, BuildingBlock: MUDLON_clean_sbu_0, # of connection points: 4
#     Node 5, Type 0, BuildingBlock: MUDLON_clean_sbu_0, # of connection points: 4
#     Node 6, Type 0, BuildingBlock: MUDLON_clean_sbu_0, # of connection points: 4
#     Node 7, Type 0, BuildingBlock: MUDLON_clean_sbu_0, # of connection points: 4
#     Node 8, Type 0, BuildingBlock: MUDLON_clean_sbu_0, # of connection points: 4
#     Node 9, Type 0, BuildingBlock: MUDLON_clean_sbu_0, # of connection points: 4
#     Node 10, Type 0, BuildingBlock: MUDLON_clean_sbu_0, # of connection points: 4
#     Node 11, Type 0, BuildingBlock: MUDLON_clean_sbu_0, # of connection points: 4
#     Node 12, Type 0, BuildingBlock: MUDLON_clean_sbu_0, # of connection points: 4
#     Node 13, Type 0, BuildingBlock: MUDLON_clean_sbu_0, # of connection points: 4
#     Node 14, Type 0, BuildingBlock: MUDLON_clean_sbu_0, # of connection points: 4
#     Node 15, Type 0, BuildingBlock: MUDLON_clean_sbu_0, # of connection points: 4
#     Node 16, Type 0, BuildingBlock: MUDLON_clean_sbu_0, # of connection points: 4
#     Node 17, Type 0, BuildingBlock: MUDLON_clean_sbu_0, # of connection points: 4
#     Node 18, Type 0, BuildingBlock: MUDLON_clean_sbu_0, # of connection points: 4
#     Node 19, Type 0, BuildingBlock: MUDLON_clean_sbu_0, # of connection points: 4
#     Node 20, Type 0, BuildingBlock: MUDLON_clean_sbu_0, # of connection points: 4
#     Node 21, Type 0, BuildingBlock: MUDLON_clean_sbu_0, # of connection points: 4
#     Node 22, Type 0, BuildingBlock: MUDLON_clean_sbu_0, # of connection points: 4
#     Node 23, Type 0, BuildingBlock: MUDLON_clean_sbu_0, # of connection points: 4
#     Node 24, Type 0, BuildingBlock: MUDLON_clean_sbu_0, # of connection points: 4
#     Node 25, Type 0, BuildingBlock: MUDLON_clean_sbu_0, # of connection points: 4
#     Node 26, Type 0, BuildingBlock: MUDLON_clean_sbu_0, # of connection points: 4
#     Node 27, Type 0, BuildingBlock: MUDLON_clean_sbu_0, # of connection points: 4
#     Node 28, Type 0, BuildingBlock: MUDLON_clean_sbu_0, # of connection points: 4
#     Node 29, Type 0, BuildingBlock: MUDLON_clean_sbu_0, # of connection points: 4
#     Node 30, Type 0, BuildingBlock: MUDLON_clean_sbu_0, # of connection points: 4
#     Node 31, Type 0, BuildingBlock: MUDLON_clean_sbu_0, # of connection points: 4
#     Edge 32, Type (0, 0), BuildingBlock: AJUNOK_clean_linker_0, # of connection points: 2
#     Edge 33, Type (0, 0), BuildingBlock: AJUNOK_clean_linker_0, # of connection points: 2
#     Edge 34, Type (0, 0), BuildingBlock: AJUNOK_clean_linker_0, # of connection points: 2
#     Edge 35, Type (0, 0), BuildingBlock: AJUNOK_clean_linker_0, # of connection points: 2
#     Edge 36, Type (0, 0), BuildingBlock: AJUNOK_clean_linker_0, # of connection points: 2
#     Edge 37, Type (0, 0), BuildingBlock: AJUNOK_clean_linker_0, # of connection points: 2
#     Edge 38, Type (0, 0), BuildingBlock: AJUNOK_clean_linker_0, # of connection points: 2
#     Edge 39, Type (0, 0), BuildingBlock: AJUNOK_clean_linker_0, # of connection points: 2
#     Edge 40, Type (0, 0), BuildingBlock: AJUNOK_clean_linker_0, # of connection points: 2
#     Edge 41, Type (0, 0), BuildingBlock: AJUNOK_clean_linker_0, # of connection points: 2
#     Edge 42, Type (0, 0), BuildingBlock: AJUNOK_clean_linker_0, # of connection points: 2
#     Edge 43, Type (0, 0), BuildingBlock: AJUNOK_clean_linker_0, # of connection points: 2
#     Edge 44, Type (0, 0), BuildingBlock: AJUNOK_clean_linker_0, # of connection points: 2
#     Edge 45, Type (0, 0), BuildingBlock: AJUNOK_clean_linker_0, # of connection points: 2
#     Edge 46, Type (0, 0), BuildingBlock: AJUNOK_clean_linker_0, # of connection points: 2
#     Edge 47, Type (0, 0), BuildingBlock: AJUNOK_clean_linker_0, # of connection points: 2
#     Edge 48, Type (0, 0), BuildingBlock: AJUNOK_clean_linker_0, # of connection points: 2
#     Edge 49, Type (0, 0), BuildingBlock: AJUNOK_clean_linker_0, # of connection points: 2
#     Edge 50, Type (0, 0), BuildingBlock: AJUNOK_clean_linker_0, # of connection points: 2
#     Edge 51, Type (0, 0), BuildingBlock: AJUNOK_clean_linker_0, # of connection points: 2
#     Edge 52, Type (0, 0), BuildingBlock: AJUNOK_clean_linker_0, # of connection points: 2
#     Edge 53, Type (0, 0), BuildingBlock: AJUNOK_clean_linker_0, # of connection points: 2
#     Edge 54, Type (0, 0), BuildingBlock: AJUNOK_clean_linker_0, # of connection points: 2
#     Edge 55, Type (0, 0), BuildingBlock: AJUNOK_clean_linker_0, # of connection points: 2
#     Edge 56, Type (0, 0), BuildingBlock: AJUNOK_clean_linker_0, # of connection points: 2
#     Edge 57, Type (0, 0), BuildingBlock: AJUNOK_clean_linker_0, # of connection points: 2
#     Edge 58, Type (0, 0), BuildingBlock: AJUNOK_clean_linker_0, # of connection points: 2
#     Edge 59, Type (0, 0), BuildingBlock: AJUNOK_clean_linker_0, # of connection points: 2
#     Edge 60, Type (0, 0), BuildingBlock: AJUNOK_clean_linker_0, # of connection points: 2
#     Edge 61, Type (0, 0), BuildingBlock: AJUNOK_clean_linker_0, # of connection points: 2
#     Edge 62, Type (0, 0), BuildingBlock: AJUNOK_clean_linker_0, # of connection points: 2
#     Edge 63, Type (0, 0), BuildingBlock: AJUNOK_clean_linker_0, # of connection points: 2
#     Edge 64, Type (0, 0), BuildingBlock: AJUNOK_clean_linker_0, # of connection points: 2
#     Edge 65, Type (0, 0), BuildingBlock: AJUNOK_clean_linker_0, # of connection points: 2
#     Edge 66, Type (0, 0), BuildingBlock: AJUNOK_clean_linker_0, # of connection points: 2
#     Edge 67, Type (0, 0), BuildingBlock: AJUNOK_clean_linker_0, # of connection points: 2
#     Edge 68, Type (0, 0), BuildingBlock: AJUNOK_clean_linker_0, # of connection points: 2
#     Edge 69, Type (0, 0), BuildingBlock: AJUNOK_clean_linker_0, # of connection points: 2
#     Edge 70, Type (0, 0), BuildingBlock: AJUNOK_clean_linker_0, # of connection points: 2
#     Edge 71, Type (0, 0), BuildingBlock: AJUNOK_clean_linker_0, # of connection points: 2
#     Edge 72, Type (0, 0), BuildingBlock: AJUNOK_clean_linker_0, # of connection points: 2
#     Edge 73, Type (0, 0), BuildingBlock: AJUNOK_clean_linker_0, # of connection points: 2
#     Edge 74, Type (0, 0), BuildingBlock: AJUNOK_clean_linker_0, # of connection points: 2
#     Edge 75, Type (0, 0), BuildingBlock: AJUNOK_clean_linker_0, # of connection points: 2
#     Edge 76, Type (0, 0), BuildingBlock: AJUNOK_clean_linker_0, # of connection points: 2
#     Edge 77, Type (0, 0), BuildingBlock: AJUNOK_clean_linker_0, # of connection points: 2
#     Edge 78, Type (0, 0), BuildingBlock: AJUNOK_clean_linker_0, # of connection points: 2
#     Edge 79, Type (0, 0), BuildingBlock: AJUNOK_clean_linker_0, # of connection points: 2
#     Edge 80, Type (0, 0), BuildingBlock: AJUNOK_clean_linker_0, # of connection points: 2
#     Edge 81, Type (0, 0), BuildingBlock: AJUNOK_clean_linker_0, # of connection points: 2
#     Edge 82, Type (0, 0), BuildingBlock: AJUNOK_clean_linker_0, # of connection points: 2
#     Edge 83, Type (0, 0), BuildingBlock: AJUNOK_clean_linker_0, # of connection points: 2
#     Edge 84, Type (0, 0), BuildingBlock: AJUNOK_clean_linker_0, # of connection points: 2
#     Edge 85, Type (0, 0), BuildingBlock: AJUNOK_clean_linker_0, # of connection points: 2
#     Edge 86, Type (0, 0), BuildingBlock: AJUNOK_clean_linker_0, # of connection points: 2
#     Edge 87, Type (0, 0), BuildingBlock: AJUNOK_clean_linker_0, # of connection points: 2
#     Edge 88, Type (0, 0), BuildingBlock: AJUNOK_clean_linker_0, # of connection points: 2
#     Edge 89, Type (0, 0), BuildingBlock: AJUNOK_clean_linker_0, # of connection points: 2
#     Edge 90, Type (0, 0), BuildingBlock: AJUNOK_clean_linker_0, # of connection points: 2
#     Edge 91, Type (0, 0), BuildingBlock: AJUNOK_clean_linker_0, # of connection points: 2
#     Edge 92, Type (0, 0), BuildingBlock: AJUNOK_clean_linker_0, # of connection points: 2
#     Edge 93, Type (0, 0), BuildingBlock: AJUNOK_clean_linker_0, # of connection points: 2
#     Edge 94, Type (0, 0), BuildingBlock: AJUNOK_clean_linker_0, # of connection points: 2
#     Edge 95, Type (0, 0), BuildingBlock: AJUNOK_clean_linker_0, # of connection points: 2
# Relax obj value: 0.110
# Max RMSD: 0.248
# Mean RMSD: 0.248
data_MOF--net-uoa--node1-MUDLON_clean_sbu_0--edge1-AJUNOK_clean_linker_0
_symmetry_space_group_name_H-M    P1
_symmetry_Int_Tables_number       1
_symmetry_cell_setting            triclinic
loop_
_symmetry_equiv_pos_as_xyz
'x, y, z'
_cell_length_a     58.9921
_cell_length_b     59.279979
_cell_length_c     21.922362
_cell_angle_alpha  89.844528
_cell_angle_beta   90.043261
_cell_angle_gamma 90.138072
loop_
_atom_site_label
_atom_site_type_symbol
_atom_site_fract_x
_atom_site_fract_y
_atom_site_fract_z
_atom_type_partial_charge
Mg0 Mg 0.03327 0.08736 0.09278 0.0
C1 C 0.01273 0.04313 0.07151 0.0
O2 O 0.99563 0.05722 0.06714 0.0
C3 C 0.06759 0.12 0.13307 0.0
O4 O 0.04837 0.12939 0.14919 0.0
C5 C 0.03095 0.09695 0.96032 0.0
O6 O 0.05182 0.08963 0.96673 0.0
O7 O 0.01882 0.0993 1.00783 0.0
O8 O 0.03227 0.05106 0.08368 0.0
O9 O 0.01323 0.09524 0.17327 0.0
C10 C 0.02307 0.09288 0.22456 0.0
O11 O 0.04435 0.08638 0.22547 0.0
O12 O 0.06709 0.1013 0.10492 0.0
Mg13 Mg 0.16286 0.77967 0.31092 0.0
C14 C 0.14238 0.76587 0.43319 0.0
O15 O 0.12752 0.78141 0.41851 0.0
C16 C 0.15401 0.77515 0.18012 0.0
O17 O 0.16464 0.79456 0.18533 0.0
C18 C 0.14749 0.8245 0.36681 0.0
O19 O 0.16276 0.81972 0.40853 0.0
O20 O 0.14569 0.81172 0.32058 0.0
O21 O 0.1577 0.76062 0.3949 0.0
O22 O 0.19917 0.78149 0.2961 0.0
C23 C 0.20785 0.76277 0.28023 0.0
O24 O 0.19444 0.74512 0.27548 0.0
O25 O 0.14974 0.76402 0.22852 0.0
Mg26 Mg 0.47483 0.90934 0.5574 0.0
C27 C 0.49362 0.95357 0.52684 0.0
O28 O 0.51136 0.94028 0.53101 0.0
C29 C 0.43064 0.89393 0.61466 0.0
O30 O 0.43866 0.90579 0.6604 0.0
C31 C 0.48044 0.89571 0.4299 0.0
O32 O 0.45907 0.9017 0.43361 0.0
O33 O 0.49225 0.89561 0.47857 0.0
O34 O 0.47408 0.94513 0.53657 0.0
O35 O 0.49174 0.90745 0.64563 0.0
C36 C 0.49021 0.89155 0.68455 0.0
O37 O 0.48017 0.8726 0.66915 0.0
O38 O 0.44167 0.89355 0.56486 0.0
Mg39 Mg 0.34634 0.22687 0.81899 0.0
C40 C 0.35295 0.2349 0.94982 0.0
O41 O 0.34948 0.21308 0.94612 0.0
C42 C 0.35455 0.23 0.68859 0.0
O43 O 0.34597 0.20978 0.69733 0.0
C44 C 0.364 0.17776 0.85405 0.0
O45 O 0.34349 0.17204 0.87167 0.0
O46 O 0.36735 0.19703 0.83008 0.0
O47 O 0.35238 0.24657 0.90101 0.0
O48 O 0.30984 0.22426 0.8067 0.0
C49 C 0.30094 0.24332 0.79445 0.0
O50 O 0.31423 0.26115 0.79284 0.0
O51 O 0.35779 0.24246 0.73496 0.0
Mg52 Mg 0.03284 0.90417 0.48891 0.0
C53 C 0.01322 0.95061 0.48071 0.0
O54 O 0.99727 0.93855 0.45447 0.0
C55 C 0.06787 0.87409 0.43916 0.0
O56 O 0.04889 0.86383 0.42458 0.0
C57 C 0.00843 0.90319 0.6083 0.0
O58 O 1.00051 0.92171 0.58348 0.0
O59 O 0.0213 0.89058 0.57679 0.0
O60 O 0.0314 0.94078 0.49719 0.0
O61 O 0.01278 0.89506 0.40887 0.0
C62 C 0.02198 0.90025 0.35815 0.0
O63 O 0.04174 0.91052 0.35896 0.0
O64 O 0.06702 0.89209 0.47047 0.0
Mg65 Mg 0.34684 0.7794 0.69707 0.0
C66 C 0.36739 0.76391 0.57484 0.0
O67 O 0.3816 0.78066 0.58389 0.0
C68 C 0.35968 0.77686 0.8274 0.0
O69 O 0.35521 0.79841 0.8203 0.0
C70 C 0.36129 0.82498 0.6418 0.0
O71 O 0.34914 0.81826 0.59495 0.0
O72 O 0.36236 0.81255 0.68904 0.0
O73 O 0.35261 0.7594 0.61535 0.0
O74 O 0.31043 0.7798 0.71088 0.0
C75 C 0.30191 0.76072 0.72492 0.0
O76 O 0.31545 0.74318 0.72802 0.0
O77 O 0.35905 0.76413 0.78077 0.0
Mg78 Mg 0.47332 0.08762 0.95448 0.0
C79 C 0.49569 0.04556 0.98443 0.0
O80 O 0.51196 0.06058 0.9786 0.0
C81 C 0.44152 0.12357 0.93186 0.0
O82 O 0.46155 0.13299 0.93853 0.0
C83 C 0.47762 0.09999 0.08472 0.0
O84 O 0.45708 0.09142 0.0824 0.0
O85 O 0.48858 0.1023 0.03514 0.0
O86 O 0.47535 0.05181 0.97468 0.0
O87 O 0.49317 0.09384 0.87226 0.0
C88 C 0.48293 0.09709 0.82186 0.0
O89 O 0.46067 0.09719 0.82133 0.0
O90 O 0.43997 0.10236 0.9397 0.0
Mg91 Mg 0.16023 0.22481 0.21381 0.0
C92 C 0.14095 0.23582 0.08824 0.0
O93 O 0.13127 0.21603 0.09539 0.0
C94 C 0.14879 0.228 0.34361 0.0
O95 O 0.15435 0.20671 0.33694 0.0
C96 C 0.14626 0.17618 0.17344 0.0
O97 O 0.16223 0.17769 0.13188 0.0
O98 O 0.14358 0.19224 0.21093 0.0
O99 O 0.15285 0.24389 0.13143 0.0
O100 O 0.19667 0.22569 0.22601 0.0
C101 C 0.20373 0.24567 0.23602 0.0
O102 O 0.18886 0.26213 0.23528 0.0
O103 O 0.14836 0.2406 0.29654 0.0
Mg104 Mg 0.97475 0.90516 0.99216 0.0
C105 C 0.98872 0.88674 0.86497 0.0
O106 O 0.97669 0.86881 0.87924 0.0
C107 C 0.97967 0.89121 0.12016 0.0
O108 O 0.95813 0.89653 0.11574 0.0
C109 C 0.92901 0.89296 0.93757 0.0
O110 O 0.93704 0.90475 0.89153 0.0
O111 O 0.94083 0.89121 0.98582 0.0
O112 O 0.99171 0.90211 0.90457 0.0
O113 O 0.97587 0.941 1.01073 0.0
C114 C 0.99592 0.94795 0.0214 0.0
O115 O 0.01255 0.93328 0.01904 0.0
O116 O 0.99164 0.89134 0.07185 0.0
Mg117 Mg 0.84125 0.2185 0.68876 0.0
C118 C 0.79792 0.24064 0.719 0.0
O119 O 0.81291 0.2568 0.727 0.0
C120 C 0.8693 0.17572 0.70107 0.0
O121 O 0.87699 0.18625 0.74952 0.0
C122 C 0.84777 0.22255 0.82128 0.0
O123 O 0.83256 0.20644 0.81575 0.0
O124 O 0.85589 0.23131 0.77292 0.0
O125 O 0.80486 0.22145 0.70109 0.0
O126 O 0.8503 0.23735 0.60691 0.0
C127 C 0.85009 0.22584 0.55792 0.0
O128 O 0.84437 0.20446 0.56098 0.0
O129 O 0.85316 0.18445 0.67085 0.0
Mg130 Mg 0.53105 0.09233 0.45236 0.0
C131 C 0.52199 0.09805 0.3209 0.0
O132 O 0.54303 0.09087 0.32246 0.0
C133 C 0.52747 0.09744 0.58495 0.0
O134 O 0.54634 0.08608 0.57724 0.0
C135 C 0.56464 0.12588 0.41249 0.0
O136 O 0.54508 0.13507 0.39845 0.0
O137 O 0.56477 0.10686 0.43954 0.0
O138 O 0.5114 0.10045 0.37104 0.0
O139 O 0.52939 0.05591 0.46165 0.0
C140 C 0.50929 0.04864 0.47011 0.0
O141 O 0.49266 0.06334 0.47031 0.0
O142 O 0.51677 0.10405 0.53776 0.0
Mg143 Mg 0.663 0.77381 0.21585 0.0
C144 C 0.70806 0.7591 0.24297 0.0
O145 O 0.69476 0.7413 0.24378 0.0
C146 C 0.64419 0.82185 0.17918 0.0
O147 O 0.66507 0.82867 0.16931 0.0
C148 C 0.65391 0.76916 0.34745 0.0
O149 O 0.65865 0.79073 0.34166 0.0
O150 O 0.65292 0.75713 0.29957 0.0
O151 O 0.69933 0.77806 0.22883 0.0
O152 O 0.65832 0.75295 0.13526 0.0
C153 C 0.65511 0.7637 0.08568 0.0
O154 O 0.65533 0.78582 0.08691 0.0
O155 O 0.64054 0.80235 0.20141 0.0
Mg156 Mg 0.97654 0.08628 0.59274 0.0
C157 C 0.98763 0.0912 0.72275 0.0
O158 O 0.96638 0.08456 0.72293 0.0
C159 C 0.97865 0.09473 0.46021 0.0
O160 O 0.96006 0.08266 0.46599 0.0
C161 C 0.9332 0.11474 0.58929 0.0
O162 O 0.94193 0.12247 0.53824 0.0
O163 O 0.94314 0.09881 0.61734 0.0
O164 O 0.99766 0.09345 0.67171 0.0
O165 O 0.97779 0.05037 0.57517 0.0
C166 C 0.9974 0.04273 0.56285 0.0
O167 O 0.01486 0.05648 0.5662 0.0
O168 O 0.98926 0.10056 0.50823 0.0
Mg169 Mg 0.65923 0.22891 0.31262 0.0
C170 C 0.70359 0.24739 0.28422 0.0
O171 O 0.68965 0.26463 0.28398 0.0
C172 C 0.64235 0.18293 0.36213 0.0
O173 O 0.65711 0.18648 0.40602 0.0
C174 C 0.64931 0.2347 0.18185 0.0
O175 O 0.65495 0.21331 0.18576 0.0
O176 O 0.64775 0.24605 0.23083 0.0
O177 O 0.69561 0.22798 0.29754 0.0
O178 O 0.65389 0.24782 0.39632 0.0
C179 C 0.63886 0.24253 0.4355 0.0
O180 O 0.62446 0.22628 0.42287 0.0
O181 O 0.64127 0.19689 0.3181 0.0
Mg182 Mg 0.5337 0.90742 0.06192 0.0
C183 C 0.5242 0.89921 0.19242 0.0
O184 O 0.54559 0.90542 0.19192 0.0
C185 C 0.50898 0.90764 0.94221 0.0
O186 O 0.50123 0.92607 0.9676 0.0
C187 C 0.5666 0.87217 0.08657 0.0
O188 O 0.54699 0.86186 0.08046 0.0
O189 O 0.56718 0.89344 0.0792 0.0
O190 O 0.51369 0.89801 0.14173 0.0
O191 O 0.53313 0.94408 0.05448 0.0
C192 C 0.51513 0.95435 0.0702 0.0
O193 O 0.49869 0.94266 0.09566 0.0
O194 O 0.52173 0.89473 0.97347 0.0
Mg195 Mg 0.84747 0.78233 0.83654 0.0
C196 C 0.80572 0.75925 0.80344 0.0
O197 O 0.82158 0.74378 0.80032 0.0
C198 C 0.8581 0.8269 0.89799 0.0
O199 O 0.84589 0.8178 0.94174 0.0
C200 C 0.85939 0.77999 0.70628 0.0
O201 O 0.85047 0.8002 0.71122 0.0
O202 O 0.86213 0.76834 0.75453 0.0
O203 O 0.8114 0.77908 0.81975 0.0
O204 O 0.85422 0.76325 0.91946 0.0
C205 C 0.86969 0.76841 0.95746 0.0
O206 O 0.88411 0.78453 0.94358 0.0
O207 O 0.86002 0.81648 0.84768 0.0
Mg208 Mg 0.53014 0.59124 0.58657 0.0
C209 C 0.51233 0.54689 0.55758 0.0
O210 O 0.49476 0.56047 0.55578 0.0
C211 C 0.57764 0.60625 0.63231 0.0
O212 O 0.57519 0.59061 0.6744 0.0
C213 C 0.5255 0.60222 0.4561 0.0
O214 O 0.54672 0.59572 0.46056 0.0
O215 O 0.51371 0.60339 0.50456 0.0
O216 O 0.53156 0.55517 0.57162 0.0
O217 O 0.5104 0.59652 0.66905 0.0
C218 C 0.5166 0.60964 0.7118 0.0
O219 O 0.535 0.62187 0.70468 0.0
O220 O 0.56232 0.60869 0.59209 0.0
Mg221 Mg 0.66115 0.28282 0.8089 0.0
C222 C 0.65757 0.27559 0.9415 0.0
O223 O 0.66647 0.29585 0.93667 0.0
C224 C 0.65123 0.27992 0.67862 0.0
O225 O 0.66422 0.29785 0.68403 0.0
C226 C 0.62931 0.31716 0.84855 0.0
O227 O 0.61956 0.2978 0.8617 0.0
O228 O 0.64855 0.31696 0.82239 0.0
O229 O 0.65349 0.2646 0.89288 0.0
O230 O 0.69731 0.27948 0.79268 0.0
C231 C 0.70315 0.25979 0.77582 0.0
O232 O 0.68735 0.24422 0.77151 0.0
O233 O 0.64558 0.26936 0.7269 0.0
Mg234 Mg 0.97688 0.40902 0.06477 0.0
C235 C 0.99888 0.45173 0.03588 0.0
O236 O 0.01536 0.43689 0.03851 0.0
C237 C 0.94252 0.37559 0.10113 0.0
O238 O 0.9618 0.36643 0.11802 0.0
C239 C 0.98165 0.39912 0.93371 0.0
O240 O 0.96122 0.40781 0.93685 0.0
O241 O 0.99239 0.39559 0.98315 0.0
O242 O 0.97879 0.44507 0.04752 0.0
O243 O 0.99623 0.40206 0.1474 0.0
C244 C 0.98612 0.40407 0.19836 0.0
O245 O 0.96465 0.40993 0.19842 0.0
O246 O 0.94299 0.39481 0.0752 0.0
Mg247 Mg 0.8493 0.73097 0.3359 0.0
C248 C 0.85638 0.73949 0.46604 0.0
O249 O 0.84986 0.71833 0.46353 0.0
C250 C 0.85646 0.73346 0.20327 0.0
O251 O 0.84172 0.71698 0.20997 0.0
C252 C 0.87619 0.6864 0.32836 0.0
O253 O 0.88253 0.69399 0.27468 0.0
O254 O 0.86177 0.69747 0.35905 0.0
O255 O 0.85751 0.75076 0.41657 0.0
O256 O 0.81282 0.73227 0.32263 0.0
C257 C 0.80436 0.75034 0.30095 0.0
O258 O 0.81799 0.76732 0.28872 0.0
O259 O 0.86405 0.74307 0.25096 0.0
Mg260 Mg 0.52773 0.40932 0.96142 0.0
C261 C 0.50924 0.45284 0.99198 0.0
O262 O 0.49226 0.43848 0.99391 0.0
C263 C 0.57379 0.39461 0.90778 0.0
O264 O 0.56999 0.41047 0.86709 0.0
C265 C 0.52446 0.39803 0.09242 0.0
O266 O 0.54599 0.4032 0.08604 0.0
O267 O 0.512 0.39746 0.04503 0.0
O268 O 0.52865 0.44549 0.97626 0.0
O269 O 0.50735 0.40381 0.87994 0.0
C270 C 0.51278 0.38981 0.83856 0.0
O271 O 0.53045 0.37674 0.84701 0.0
O272 O 0.55995 0.39212 0.95176 0.0
Mg273 Mg 0.8444 0.27374 0.1883 0.0
C274 C 0.86295 0.25946 0.06402 0.0
O275 O 0.87785 0.27539 0.07541 0.0
C276 C 0.85433 0.26778 0.31844 0.0
O277 O 0.8479 0.28895 0.31439 0.0
C278 C 0.86281 0.31943 0.13977 0.0
O279 O 0.84723 0.31727 0.09732 0.0
O280 O 0.86388 0.30482 0.18227 0.0
O281 O 0.84825 0.25458 0.10445 0.0
O282 O 0.80822 0.27658 0.20467 0.0
C283 C 0.79907 0.25781 0.2191 0.0
O284 O 0.81191 0.23974 0.22076 0.0
O285 O 0.85596 0.25637 0.26957 0.0
Mg286 Mg 0.97811 0.59288 0.44296 0.0
C287 C 0.99804 0.54893 0.47417 0.0
O288 O 0.01486 0.56316 0.48256 0.0
C289 C 0.9384 0.62513 0.44696 0.0
O290 O 0.9516 0.63546 0.4863 0.0
C291 C 0.98149 0.60144 0.5759 0.0
O292 O 0.96128 0.59234 0.57004 0.0
O293 O 0.9929 0.60553 0.52773 0.0
O294 O 0.97916 0.55661 0.45529 0.0
O295 O 0.99487 0.60041 0.3563 0.0
C296 C 0.9825 0.59408 0.31177 0.0
O297 O 0.96339 0.58362 0.32424 0.0
O298 O 0.94424 0.60595 0.42671 0.0
Mg299 Mg 0.66804 0.71702 0.71726 0.0
C300 C 0.66412 0.72664 0.58513 0.0
O301 O 0.67271 0.70621 0.58612 0.0
C302 C 0.65869 0.7204 0.84883 0.0
O303 O 0.66978 0.70126 0.84467 0.0
C304 C 0.63593 0.68297 0.67511 0.0
O305 O 0.62674 0.70224 0.65888 0.0
O306 O 0.65455 0.68321 0.7043 0.0
O307 O 0.66013 0.73637 0.63563 0.0
O308 O 0.70435 0.71926 0.73041 0.0
C309 C 0.71125 0.73873 0.74644 0.0
O310 O 0.69625 0.75494 0.75221 0.0
O311 O 0.65404 0.73104 0.79998 0.0
Mg312 Mg 0.47424 0.40995 0.46436 0.0
C313 C 0.48406 0.40724 0.33273 0.0
O314 O 0.46422 0.41724 0.33482 0.0
C315 C 0.47484 0.40117 0.59531 0.0
O316 O 0.45703 0.41402 0.58634 0.0
C317 C 0.43818 0.38086 0.41652 0.0
O318 O 0.4569 0.3707 0.39968 0.0
O319 O 0.43959 0.39874 0.44821 0.0
O320 O 0.49361 0.40183 0.38276 0.0
O321 O 0.47767 0.44592 0.47896 0.0
C322 C 0.49734 0.45235 0.49545 0.0
O323 O 0.5134 0.43715 0.50047 0.0
O324 O 0.48625 0.39508 0.54896 0.0
Mg325 Mg 0.34717 0.72729 0.19846 0.0
C326 C 0.30403 0.75003 0.22842 0.0
O327 O 0.3191 0.76603 0.23728 0.0
C328 C 0.37341 0.68293 0.19902 0.0
O329 O 0.38207 0.69119 0.24948 0.0
C330 C 0.35396 0.72735 0.3313 0.0
O331 O 0.33886 0.71139 0.32214 0.0
O332 O 0.36205 0.73755 0.28497 0.0
O333 O 0.31088 0.73084 0.21032 0.0
O334 O 0.3567 0.74738 0.11936 0.0
C335 C 0.35186 0.7376 0.06937 0.0
O336 O 0.34165 0.7179 0.07166 0.0
O337 O 0.35742 0.69346 0.17271 0.0
Mg338 Mg 0.03592 0.59004 0.94571 0.0
C339 C 0.02489 0.59476 0.81387 0.0
O340 O 0.04568 0.58686 0.81356 0.0
C341 C 0.00479 0.60022 0.05313 0.0
O342 O 0.98944 0.59267 1.01481 0.0
C343 C 0.07014 0.62205 0.89991 0.0
O344 O 0.05083 0.63156 0.88501 0.0
O345 O 0.06981 0.60342 0.92881 0.0
O346 O 0.01531 0.59813 0.86517 0.0
O347 O 0.03477 0.55366 0.9586 0.0
C348 C 0.01556 0.54403 0.95335 0.0
O349 O 0.99819 0.55608 0.93483 0.0
O350 O 0.02498 0.60285 0.03422 0.0
Mg351 Mg 0.16073 0.27657 0.71551 0.0
C352 C 0.20492 0.25663 0.73898 0.0
O353 O 0.1904 0.2398 0.74047 0.0
C354 C 0.14733 0.32656 0.67853 0.0
O355 O 0.1677 0.3294 0.65562 0.0
C356 C 0.1505 0.27433 0.84548 0.0
O357 O 0.1592 0.29454 0.83733 0.0
O358 O 0.14805 0.2617 0.79911 0.0
O359 O 0.19736 0.27632 0.72738 0.0
O360 O 0.15279 0.25724 0.63414 0.0
C361 C 0.15406 0.26824 0.58435 0.0
O362 O 0.16001 0.28957 0.5865 0.0
O363 O 0.14244 0.30819 0.70565 0.0
Mg364 Mg 0.47574 0.5916 0.08613 0.0
C365 C 0.48396 0.59943 0.21625 0.0
O366 O 0.4626 0.59327 0.21355 0.0
C367 C 0.47767 0.59809 0.95376 0.0
O368 O 0.46071 0.58402 0.96218 0.0
C369 C 0.43293 0.62014 0.07812 0.0
O370 O 0.44321 0.62832 0.02975 0.0
O371 O 0.44181 0.60367 0.10649 0.0
O372 O 0.49535 0.60023 0.16695 0.0
O373 O 0.47767 0.55538 0.07401 0.0
C374 C 0.4962 0.54774 0.0528 0.0
O375 O 0.51275 0.56201 0.04139 0.0
O376 O 0.48794 0.60566 1.00054 0.0
Mg377 Mg 0.16232 0.72709 0.81044 0.0
C378 C 0.20618 0.74723 0.78298 0.0
O379 O 0.1917 0.76402 0.78206 0.0
C380 C 0.14797 0.67923 0.85571 0.0
O381 O 0.16307 0.68203 0.89914 0.0
C382 C 0.15419 0.73141 0.6803 0.0
O383 O 0.16546 0.71247 0.68722 0.0
O384 O 0.14914 0.74261 0.72784 0.0
O385 O 0.19872 0.72758 0.79565 0.0
O386 O 0.15611 0.74539 0.89498 0.0
C387 C 0.14265 0.73807 0.93591 0.0
O388 O 0.13015 0.72025 0.92428 0.0
O389 O 0.14594 0.6943 0.81472 0.0
Mg390 Mg 0.03453 0.41138 0.5658 0.0
C391 C 0.02599 0.40534 0.6979 0.0
O392 O 0.04713 0.41233 0.69641 0.0
C393 C 0.03133 0.4007 0.43409 0.0
O394 O 0.05182 0.40927 0.43845 0.0
C395 C 0.06846 0.37851 0.60422 0.0
O396 O 0.04886 0.36843 0.61296 0.0
O397 O 0.06853 0.39814 0.58067 0.0
O398 O 0.01522 0.40347 0.64782 0.0
O399 O 0.03247 0.44754 0.55166 0.0
C400 C 0.01301 0.45409 0.53384 0.0
O401 O 0.99685 0.43894 0.52829 0.0
O402 O 0.01991 0.39781 0.48271 0.0
Mg403 Mg 0.34336 0.28083 0.3205 0.0
C404 C 0.29886 0.26189 0.29522 0.0
O405 O 0.3127 0.24455 0.29476 0.0
C406 C 0.35815 0.32826 0.36521 0.0
O407 O 0.3424 0.32577 0.40705 0.0
C408 C 0.35304 0.2761 0.18992 0.0
O409 O 0.3454 0.29683 0.19431 0.0
O410 O 0.35538 0.26458 0.23856 0.0
O411 O 0.30701 0.28131 0.30698 0.0
O412 O 0.34978 0.26161 0.4033 0.0
C413 C 0.36293 0.26859 0.44529 0.0
O414 O 0.37444 0.28732 0.43688 0.0
O415 O 0.36052 0.31311 0.32485 0.0
C416 C 0.9865 0.09681 0.83545 0.0
C417 C 0.9994 0.09515 0.78162 0.0
C418 C 0.99686 0.09857 0.8927 0.0
C419 C 0.0206 0.09854 0.89871 0.0
H420 H 0.96815 0.09631 0.83366 0.0
H421 H 0.98609 0.09906 0.93269 0.0
S422 S 0.06217 0.09674 0.7716 0.0
N423 N 0.03723 0.09527 0.73762 0.0
N424 N 0.05678 0.09846 0.84534 0.0
C425 C 0.03375 0.09793 0.84507 0.0
C426 C 0.02314 0.09628 0.78655 0.0
C427 C 0.15434 0.76868 1.00779 0.0
C428 C 0.14318 0.74801 0.99813 0.0
C429 C 0.15711 0.7775 0.06654 0.0
C430 C 0.149 0.76598 0.11845 0.0
H431 H 0.1614 0.77802 0.96971 0.0
H432 H 0.1662 0.79329 0.07115 0.0
S433 S 0.11753 0.71166 0.1182 0.0
N434 N 0.12307 0.71661 0.04558 0.0
N435 N 0.12843 0.73316 0.15601 0.0
C436 C 0.13722 0.74558 0.10946 0.0
C437 C 0.13425 0.73663 0.04939 0.0
C438 C 0.52539 0.89589 0.30618 0.0
C439 C 0.5126 0.8954 0.25182 0.0
C440 C 0.51496 0.89473 0.36354 0.0
C441 C 0.49127 0.89315 0.3691 0.0
H442 H 0.54364 0.8978 0.30471 0.0
H443 H 0.52556 0.89604 0.40377 0.0
S444 S 0.45016 0.88861 0.24114 0.0
N445 N 0.47504 0.89125 0.2074 0.0
N446 N 0.45541 0.88908 0.3151 0.0
C447 C 0.47834 0.89143 0.31516 0.0
C448 C 0.48899 0.89255 0.25662 0.0
C449 C 0.36981 0.26953 0.55793 0.0
C450 C 0.3629 0.25743 0.50593 0.0
C451 C 0.36758 0.26035 0.61666 0.0
C452 C 0.35854 0.2386 0.62574 0.0
H453 H 0.37627 0.28658 0.55358 0.0
H454 H 0.37255 0.27061 0.65525 0.0
S455 S 0.34009 0.19905 0.5039 0.0
N456 N 0.34814 0.22198 0.4669 0.0
N457 N 0.34413 0.20457 0.57684 0.0
C458 C 0.35251 0.22593 0.5738 0.0
C459 C 0.35463 0.23537 0.51406 0.0
C460 C 0.99774 0.87291 0.75922 0.0
C461 C 0.99548 0.89092 0.8006 0.0
C462 C 1.0025 0.87681 0.69714 0.0
C463 C 0.00451 0.89889 0.67407 0.0
H464 H 0.99571 0.85567 0.77482 0.0
H465 H 0.00399 0.86251 0.66677 0.0
S466 S 1.00079 0.95192 0.76324 0.0
N467 N 0.99641 0.93171 0.81378 0.0
N468 N 0.0048 0.93894 0.69769 0.0
C469 C 1.00259 0.917 0.71505 0.0
C470 C 0.99823 0.91305 0.77815 0.0
C471 C 0.35763 0.74376 0.89797 0.0
C472 C 0.36116 0.76703 0.88964 0.0
C473 C 0.35538 0.73444 0.95639 0.0
C474 C 0.35674 0.74793 1.00906 0.0
H475 H 0.35562 0.7327 0.85907 0.0
H476 H 0.35201 0.71651 0.96004 0.0
S477 S 0.36847 0.80943 1.01263 0.0
N478 N 0.36787 0.80312 0.93933 0.0
N479 N 0.36374 0.7855 0.04925 0.0
C480 C 0.36156 0.77102 1.00167 0.0
C481 C 0.36372 0.78058 0.94196 0.0
C482 C 0.47638 0.1 0.19893 0.0
C483 C 0.48891 0.10313 0.14478 0.0
C484 C 0.48704 0.09945 0.25614 0.0
C485 C 0.51066 0.10179 0.2614 0.0
H486 H 0.45825 0.09717 0.19713 0.0
H487 H 0.47679 0.09615 0.29619 0.0
S488 S 0.55094 0.11348 0.13509 0.0
N489 N 0.52607 0.11097 0.10119 0.0
N490 N 0.54603 0.10973 0.20853 0.0
C491 C 0.52325 0.10622 0.20816 0.0
C492 C 0.51239 0.10699 0.14994 0.0
C493 C 0.15029 0.2709 0.47119 0.0
C494 C 0.15015 0.25744 0.52427 0.0
C495 C 0.14867 0.26131 0.4131 0.0
C496 C 0.14697 0.23783 0.40553 0.0
H497 H 0.1522 0.28903 0.4742 0.0
H498 H 0.14967 0.27241 0.37383 0.0
S499 S 0.14333 0.19521 0.52972 0.0
N500 N 0.14628 0.21949 0.56558 0.0
N501 N 0.14326 0.20142 0.45627 0.0
C502 C 0.14567 0.22422 0.45822 0.0
C503 C 0.14725 0.23402 0.51757 0.0
C504 C 0.0239 0.8967 0.24474 0.0
C505 C 0.01103 0.89515 0.29873 0.0
C506 C 0.01388 0.89402 0.18724 0.0
C507 C 0.99051 0.88988 0.18122 0.0
H508 H 0.04185 0.90051 0.24666 0.0
H509 H 0.02442 0.89625 0.14719 0.0
S510 S 0.94962 0.88191 0.30832 0.0
N511 N 0.97396 0.88735 0.34255 0.0
N512 N 0.95507 0.88243 0.23446 0.0
C513 C 0.97762 0.88715 0.23488 0.0
C514 C 0.98789 0.88974 0.29358 0.0
C515 C 0.84631 0.23099 0.99279 0.0
C516 C 0.86141 0.24904 1.00251 0.0
C517 C 0.84263 0.22221 0.9344 0.0
C518 C 0.85378 0.23113 0.88289 0.0
H519 H 0.83683 0.2238 0.03045 0.0
H520 H 0.83045 0.20863 0.92966 0.0
S521 S 0.89621 0.27751 0.88368 0.0
N522 N 0.88857 0.27481 0.95577 0.0
N523 N 0.88155 0.25832 0.84594 0.0
C524 C 0.86955 0.24867 0.89206 0.0
C525 C 0.87339 0.25759 0.9518 0.0
C526 C 0.48411 0.10648 0.71055 0.0
C527 C 0.49555 0.09924 0.76349 0.0
C528 C 0.49484 0.10678 0.65351 0.0
C529 C 0.51745 0.0997 0.64687 0.0
H530 H 0.46651 0.11157 0.71281 0.0
H531 H 0.48504 0.11192 0.61406 0.0
S532 S 0.55554 0.0807 0.77195 0.0
N533 N 0.53122 0.08601 0.80611 0.0
N534 N 0.55141 0.08652 0.69912 0.0
C535 C 0.52939 0.09325 0.69985 0.0
C536 C 0.51847 0.09305 0.75805 0.0
C537 C 0.66023 0.72504 0.47174 0.0
C538 C 0.65938 0.7378 0.5258 0.0
C539 C 0.65735 0.73515 0.41446 0.0
C540 C 0.65366 0.75849 0.40875 0.0
H541 H 0.66354 0.70708 0.4734 0.0
H542 H 0.65886 0.72465 0.3743 0.0
S543 S 0.64801 0.79923 0.53623 0.0
N544 N 0.65306 0.77485 0.57007 0.0
N545 N 0.64775 0.79389 0.46236 0.0
C546 C 0.65188 0.77134 0.46248 0.0
C547 C 0.65468 0.76099 0.52097 0.0
C548 C 0.01265 0.10041 0.39392 0.0
C549 C 0.98903 0.09777 0.39918 0.0
C550 C 0.02336 0.09955 0.33695 0.0
C551 C 0.01088 0.09632 0.28289 0.0
H552 H 0.02312 0.10207 0.43429 0.0
H553 H 0.04168 0.1009 0.33552 0.0
S554 S 0.94833 0.09114 0.27121 0.0
N555 N 0.95326 0.09364 0.34503 0.0
N556 N 0.97339 0.0923 0.23787 0.0
C557 C 0.98712 0.09501 0.28713 0.0
C558 C 0.97622 0.09564 0.34529 0.0
C559 C 0.64856 0.23251 0.06785 0.0
C560 C 0.64842 0.2458 0.12106 0.0
C561 C 0.65073 0.24229 1.0098 0.0
C562 C 0.65309 0.26575 1.00264 0.0
H563 H 0.64757 0.21429 0.071 0.0
H564 H 0.65136 0.23128 0.97047 0.0
S565 S 0.65159 0.30834 0.12664 0.0
N566 N 0.64919 0.28388 0.16223 0.0
N567 N 0.65333 0.30223 0.05339 0.0
C568 C 0.65198 0.27934 0.0552 0.0
C569 C 0.6496 0.26939 0.11429 0.0
C570 C 0.50033 0.87778 0.78991 0.0
C571 C 0.49638 0.89584 0.74931 0.0
C572 C 0.50478 0.88161 0.85216 0.0
C573 C 0.50484 0.90358 0.87631 0.0
H574 H 0.49994 0.86057 0.77352 0.0
H575 H 0.50771 0.86724 0.88176 0.0
S576 S 0.49584 0.95672 0.78943 0.0
N577 N 0.49332 0.93659 0.73804 0.0
N578 N 0.50121 0.94366 0.85437 0.0
C579 C 0.50107 0.92175 0.83611 0.0
C580 C 0.49698 0.91792 0.77283 0.0
C581 C 0.85861 0.78308 0.59232 0.0
C582 C 0.86237 0.76984 0.64492 0.0
C583 C 0.85782 0.77337 0.53405 0.0
C584 C 0.86056 0.75003 0.52622 0.0
H585 H 0.85545 0.801 0.5962 0.0
H586 H 0.854 0.7841 0.49531 0.0
S587 S 0.8739 0.70828 0.64763 0.0
N588 N 0.87117 0.73242 0.6842 0.0
N589 N 0.8696 0.71423 0.57496 0.0
C590 C 0.86567 0.73679 0.57786 0.0
C591 C 0.86663 0.74668 0.63711 0.0
C592 C 0.51815 0.60072 0.28398 0.0
C593 C 0.49466 0.60334 0.27649 0.0
C594 C 0.52809 0.60139 0.34209 0.0
C595 C 0.51494 0.60484 0.39494 0.0
H596 H 0.52885 0.59714 0.24505 0.0
H597 H 0.54615 0.5984 0.3456 0.0
S598 S 0.45304 0.61601 0.39872 0.0
N599 N 0.45879 0.61196 0.32591 0.0
N600 N 0.47742 0.61326 0.43491 0.0
C601 C 0.49161 0.60891 0.38755 0.0
C602 C 0.48149 0.60812 0.32842 0.0
C603 C 0.65271 0.27235 0.50685 0.0
C604 C 0.63947 0.25294 0.49709 0.0
C605 C 0.65566 0.2813 0.56535 0.0
C606 C 0.64566 0.27114 0.61692 0.0
H607 H 0.66131 0.28053 0.4691 0.0
H608 H 0.66645 0.29599 0.57013 0.0
S609 S 0.60813 0.22077 0.61599 0.0
N610 N 0.6152 0.22444 0.54379 0.0
N611 N 0.6209 0.24121 0.65388 0.0
C612 C 0.6317 0.25216 0.6077 0.0
C613 C 0.62854 0.2431 0.54783 0.0
C614 C 0.99113 0.40224 0.76258 0.0
C615 C 0.01483 0.40088 0.7573 0.0
C616 C 0.98048 0.40059 0.81962 0.0
C617 C 0.99308 0.39727 0.87355 0.0
H618 H 0.98077 0.40552 0.72274 0.0
H619 H 0.96226 0.40262 0.8215 0.0
S620 S 0.05546 0.38962 0.88319 0.0
N621 N 0.05046 0.3939 0.80999 0.0
N622 N 0.03049 0.39067 0.91696 0.0
C623 C 0.0167 0.39454 0.86836 0.0
C624 C 0.02755 0.39641 0.81033 0.0
C625 C 0.85255 0.73088 0.09002 0.0
C626 C 0.86239 0.74153 0.14097 0.0
C627 C 0.85579 0.73918 0.03083 0.0
C628 C 0.86916 0.75844 0.01972 0.0
H629 H 0.84167 0.71629 0.09579 0.0
H630 H 0.84728 0.73068 0.99359 0.0
S631 S 0.90009 0.79178 0.13661 0.0
N632 N 0.88714 0.77176 0.17593 0.0
N633 N 0.89332 0.78734 0.06454 0.0
C634 C 0.87995 0.76873 0.06986 0.0
C635 C 0.87654 0.76031 0.13044 0.0
C636 C 0.4909 0.40128 0.16142 0.0
C637 C 0.51422 0.3972 0.15422 0.0
C638 C 0.48133 0.40396 0.2194 0.0
C639 C 0.49461 0.40247 0.27269 0.0
H640 H 0.48005 0.40335 0.12193 0.0
H641 H 0.46339 0.40765 0.22224 0.0
S642 S 0.55612 0.38972 0.27915 0.0
N643 N 0.55011 0.39013 0.20558 0.0
N644 N 0.53204 0.39502 0.3146 0.0
C645 C 0.51774 0.39727 0.26637 0.0
C646 C 0.52755 0.3947 0.20716 0.0
C647 C 0.85313 0.26996 0.43243 0.0
C648 C 0.85643 0.25696 0.37941 0.0
C649 C 0.85208 0.25993 0.49036 0.0
C650 C 0.85417 0.23647 0.49759 0.0
H651 H 0.8506 0.28802 0.42921 0.0
H652 H 0.84871 0.27057 0.52939 0.0
S653 S 0.86598 0.1951 0.37467 0.0
N654 N 0.86393 0.21954 0.33888 0.0
N655 N 0.86196 0.2007 0.44756 0.0
C656 C 0.85871 0.22339 0.44544 0.0
C657 C 0.85987 0.23362 0.38644 0.0
C658 C 0.02612 0.60077 0.70085 0.0
C659 C 0.01322 0.59915 0.75482 0.0
C660 C 0.01577 0.60281 0.64345 0.0
C661 C 0.99204 0.60306 0.63743 0.0
H662 H 0.04445 0.6 0.70269 0.0
H663 H 0.02649 0.6032 0.60336 0.0
S664 S 0.95048 0.60141 0.76468 0.0
N665 N 0.9754 0.59961 0.7987 0.0
N666 N 0.9559 0.60323 0.69093 0.0
C667 C 0.97892 0.60247 0.69119 0.0
C668 C 0.9895 0.6006 0.74978 0.0
C669 C 0.66156 0.72987 0.01991 0.0
C670 C 0.65311 0.75186 0.0265 0.0
C671 C 0.66239 0.71949 0.96257 0.0
C672 C 0.65469 0.73065 0.90961 0.0
H673 H 0.66846 0.72092 0.05885 0.0
H674 H 0.66985 0.70286 0.95965 0.0
S675 S 0.62791 0.78727 0.90407 0.0
N676 N 0.63465 0.78359 0.97649 0.0
N677 N 0.63618 0.76413 0.86886 0.0
C678 C 0.64494 0.75215 0.91627 0.0
C679 C 0.64417 0.76274 0.97464 0.0
C680 C 0.51219 0.38149 0.72655 0.0
C681 C 0.50133 0.3905 0.77822 0.0
C682 C 0.50314 0.38433 0.66782 0.0
C683 C 0.48277 0.39616 0.65835 0.0
H684 H 0.52829 0.3729 0.73106 0.0
H685 H 0.51257 0.37774 0.62944 0.0
S686 S 0.4463 0.42072 0.77941 0.0
N687 N 0.46815 0.4101 0.81662 0.0
N688 N 0.45101 0.41529 0.70673 0.0
C689 C 0.47114 0.40424 0.71005 0.0
C690 C 0.48044 0.40146 0.76978 0.0
C691 C 0.37279 0.7542 0.40409 0.0
C692 C 0.35952 0.73476 0.39441 0.0
C693 C 0.37615 0.76291 0.46292 0.0
C694 C 0.36628 0.75261 0.51446 0.0
H695 H 0.38008 0.76323 0.36579 0.0
H696 H 0.38581 0.77837 0.46759 0.0
S697 S 0.33242 0.69974 0.51512 0.0
N698 N 0.33824 0.70425 0.44248 0.0
N699 N 0.34443 0.72073 0.55253 0.0
C700 C 0.35395 0.73253 0.50581 0.0
C701 C 0.3506 0.72359 0.446 0.0
C702 C 0.97734 0.59641 0.13934 0.0
C703 C 0.99937 0.60179 0.11942 0.0
C704 C 0.97216 0.59457 0.20143 0.0
C705 C 0.9887 0.5981 0.24683 0.0
H706 H 0.964 0.5929 0.10672 0.0
H707 H 0.955 0.58989 0.21372 0.0
S708 S 0.04859 0.61452 0.21976 0.0
N709 N 0.03766 0.61209 0.1507 0.0
N710 N 0.02777 0.60869 0.26764 0.0
C711 C 0.01057 0.60453 0.22796 0.0
C712 C 0.01593 0.60635 0.16432 0.0
C713 C 0.13803 0.24351 0.91653 0.0
C714 C 0.14577 0.26578 0.90798 0.0
C715 C 0.13554 0.23431 0.97513 0.0
C716 C 0.14085 0.24694 0.02757 0.0
H717 H 0.13443 0.23284 0.87768 0.0
H718 H 0.13025 0.21686 0.97909 0.0
S719 S 0.15932 0.30681 0.03081 0.0
N720 N 0.15686 0.30086 0.9576 0.0
N721 N 0.15237 0.28344 0.06741 0.0
C722 C 0.1476 0.26953 0.01988 0.0
C723 C 0.15 0.27897 0.96022 0.0
C724 C 0.51574 0.61771 0.82398 0.0
C725 C 0.50496 0.60888 0.77186 0.0
C726 C 0.50643 0.61487 0.88239 0.0
C727 C 0.4859 0.60313 0.89108 0.0
H728 H 0.53195 0.62621 0.82008 0.0
H729 H 0.51579 0.62132 0.92113 0.0
S730 S 0.44948 0.57918 0.76872 0.0
N731 N 0.4716 0.58966 0.73227 0.0
N732 N 0.45404 0.5844 0.84161 0.0
C733 C 0.47435 0.59524 0.83897 0.0
C734 C 0.48388 0.59808 0.77955 0.0
C735 C 0.15589 0.73693 0.50779 0.0
C736 C 0.14317 0.75648 0.49603 0.0
C737 C 0.15876 0.72875 0.56727 0.0
C738 C 0.14926 0.7399 0.61783 0.0
H739 H 0.16401 0.72797 0.47078 0.0
H740 H 0.16902 0.7138 0.57353 0.0
S741 S 0.11378 0.7915 0.61182 0.0
N742 N 0.12033 0.7865 0.53992 0.0
N743 N 0.12592 0.77121 0.65183 0.0
C744 C 0.13605 0.75922 0.60673 0.0
C745 C 0.13294 0.76746 0.54587 0.0
C746 C 0.98576 0.3998 0.31193 0.0
C747 C 0.99823 0.40077 0.2572 0.0
C748 C 0.99659 0.39857 0.36877 0.0
C749 C 0.02037 0.39847 0.37338 0.0
H750 H 0.96742 0.40047 0.31114 0.0
H751 H 0.98617 0.39864 0.40945 0.0
S752 S 0.06094 0.39863 0.24391 0.0
N753 N 0.03575 0.39991 0.21122 0.0
N754 N 0.05609 0.39776 0.31804 0.0
C755 C 0.03307 0.39846 0.31899 0.0
C756 C 0.02202 0.39955 0.26097 0.0
C757 C 0.35158 0.27858 0.07598 0.0
C758 C 0.35595 0.26571 0.12887 0.0
C759 C 0.35152 0.26872 0.01792 0.0
C760 C 0.35571 0.24558 1.01045 0.0
H761 H 0.3475 0.29633 0.07938 0.0
H762 H 0.34733 0.27919 0.97893 0.0
S763 S 0.37085 0.20489 0.13306 0.0
N764 N 0.3666 0.22892 0.1691 0.0
N765 N 0.36648 0.21042 0.06018 0.0
C766 C 0.36124 0.23272 0.06252 0.0
C767 C 0.36138 0.24278 0.12163 0.0
C768 C 0.98724 0.01085 0.04461 0.0
C769 C 0.00903 0.01869 0.06048 0.0
C770 C 0.98314 0.988 0.03248 0.0
C771 C 1.00064 0.97199 0.03561 0.0
H772 H 0.97314 0.02245 0.04107 0.0
H773 H 0.96609 0.98293 0.02011 0.0
S774 S 0.06071 0.98357 0.07696 0.0
N775 N 0.04829 0.00845 0.07988 0.0
N776 N 0.04065 0.96556 0.05722 0.0
C777 C 0.02251 0.97954 0.05205 0.0
C778 C 0.02668 0.00284 0.06445 0.0
C779 C 0.2409 0.7394 0.24767 0.0
C780 C 0.23243 0.76042 0.26691 0.0
C781 C 0.26394 0.73631 0.23497 0.0
C782 C 0.2796 0.75408 0.241 0.0
H783 H 0.22966 0.72506 0.24237 0.0
H784 H 0.26947 0.71974 0.22062 0.0
S785 S 0.26624 0.81265 0.28914 0.0
N786 N 0.24159 0.79943 0.29079 0.0
N787 N 0.28492 0.79368 0.26701 0.0
C788 C 0.2714 0.77527 0.25988 0.0
C789 C 0.24785 0.77843 0.27278 0.0
C790 C 0.52277 0.00919 0.4894 0.0
C791 C 0.50467 0.02438 0.48257 0.0
C792 C 0.51893 0.98642 0.50345 0.0
C793 C 0.49682 0.9778 0.51128 0.0
H794 H 0.54012 0.01493 0.48448 0.0
H795 H 0.53354 0.97555 0.50854 0.0
S796 S 0.4434 0.01031 0.49626 0.0
N797 N 0.46362 0.02899 0.48325 0.0
N798 N 0.45651 0.98624 0.50969 0.0
C799 C 0.47852 0.99272 0.50388 0.0
C800 C 0.48242 0.01596 0.48953 0.0
C801 C 0.26758 0.26756 0.76836 0.0
C802 C 0.27636 0.24592 0.78076 0.0
C803 C 0.2446 0.27084 0.75457 0.0
C804 C 0.22933 0.25262 0.75254 0.0
H805 H 0.27851 0.28226 0.76927 0.0
H806 H 0.2388 0.28786 0.74566 0.0
S807 S 0.24364 0.19237 0.78073 0.0
N808 N 0.2679 0.2059 0.78961 0.0
N809 N 0.22478 0.21192 0.76374 0.0
C810 C 0.23788 0.23082 0.76466 0.0
C811 C 0.26133 0.2275 0.77876 0.0
C812 C 0.02653 0.98773 0.52199 0.0
C813 C 0.00878 0.97431 0.49906 0.0
C814 C 0.02261 0.00973 0.54266 0.0
C815 C 1.00073 0.01918 0.54202 0.0
H816 H 0.04365 0.98119 0.52418 0.0
H817 H 0.03689 0.01935 0.55977 0.0
S818 S 0.94834 0.99134 0.48584 0.0
N819 N 0.96838 0.97231 0.47626 0.0
N820 N 0.96109 0.01354 0.51564 0.0
C821 C 0.9828 0.00601 0.51913 0.0
C822 C 0.98681 0.98366 0.49743 0.0
C823 C 0.24587 0.73315 0.76834 0.0
C824 C 0.23048 0.75123 0.76822 0.0
C825 C 0.26881 0.73645 0.75407 0.0
C826 C 0.2774 0.75797 0.73899 0.0
H827 H 0.24021 0.71625 0.77951 0.0
H828 H 0.27988 0.7219 0.75498 0.0
S829 S 0.24424 0.81106 0.73195 0.0
N830 N 0.22556 0.7916 0.75161 0.0
N831 N 0.26859 0.79769 0.72484 0.0
C832 C 0.26222 0.77623 0.73861 0.0
C833 C 0.23882 0.77289 0.7532 0.0
C834 C 0.48873 0.98666 0.05117 0.0
C835 C 0.51097 0.978 0.05056 0.0
C836 C 0.48387 0.00832 0.02887 0.0
C837 C 0.50108 0.02235 1.00561 0.0
H838 H 0.47479 0.97652 0.06812 0.0
H839 H 0.4665 0.01416 0.03041 0.0
S840 S 0.56223 0.00791 0.99427 0.0
N841 N 0.55041 0.98531 0.02491 0.0
N842 N 0.54138 0.026 0.98343 0.0
C843 C 0.52345 0.01399 1.00515 0.0
C844 C 0.52836 0.99186 0.02749 0.0
C845 C 0.24358 0.23261 0.25374 0.0
C846 C 0.2279 0.2504 0.25046 0.0
C847 C 0.26636 0.23657 0.26846 0.0
C848 C 0.27449 0.25849 0.2806 0.0
H849 H 0.23825 0.21542 0.24507 0.0
H850 H 0.27766 0.22222 0.27031 0.0
S851 S 0.24048 0.31108 0.27767 0.0
N852 N 0.22223 0.29095 0.26034 0.0
N853 N 0.265 0.29828 0.28799 0.0
C854 C 0.25904 0.27647 0.2774 0.0
C855 C 0.2358 0.27246 0.26233 0.0
C856 C 0.76677 0.26633 0.75316 0.0
C857 C 0.77358 0.24492 0.7323 0.0
C858 C 0.74406 0.27097 0.76703 0.0
C859 C 0.72712 0.2544 0.76072 0.0
H860 H 0.77908 0.27973 0.7591 0.0
H861 H 0.73981 0.28771 0.78297 0.0
S862 S 0.73586 0.19558 0.70712 0.0
N863 N 0.7614 0.20698 0.70559 0.0
N864 N 0.71878 0.21561 0.73154 0.0
C865 C 0.73365 0.2329 0.73967 0.0
C866 C 0.75682 0.22818 0.72551 0.0
C867 C 0.74776 0.7745 0.2484 0.0
C868 C 0.73244 0.75674 0.25918 0.0
C869 C 0.77089 0.77229 0.26236 0.0
C870 C 0.77966 0.75227 0.28796 0.0
H871 H 0.74193 0.79018 0.2284 0.0
H872 H 0.78198 0.78643 0.2526 0.0
S873 S 0.74645 0.70104 0.32802 0.0
N874 N 0.72762 0.71861 0.29912 0.0
N875 N 0.7709 0.71455 0.32516 0.0
C876 C 0.76445 0.73449 0.29983 0.0
C877 C 0.74092 0.7367 0.2855 0.0
C878 C 0.74296 0.23237 0.27046 0.0
C879 C 0.72785 0.25063 0.26771 0.0
C880 C 0.76584 0.23495 0.25456 0.0
C881 C 0.77464 0.25591 0.23515 0.0
H882 H 0.73713 0.21587 0.28505 0.0
H883 H 0.77669 0.22028 0.25772 0.0
S884 S 0.74217 0.30913 0.21899 0.0
N885 N 0.72336 0.29053 0.24333 0.0
N886 N 0.7663 0.29527 0.21363 0.0
C887 C 0.75974 0.27434 0.23205 0.0
C888 C 0.73639 0.27173 0.24825 0.0
C889 C 0.74202 0.76471 0.78188 0.0
C890 C 0.73551 0.74334 0.75981 0.0
C891 C 0.76468 0.7697 0.79569 0.0
C892 C 0.78184 0.75354 0.78806 0.0
H893 H 0.72951 0.77778 0.78894 0.0
H894 H 0.7687 0.78637 0.81274 0.0
S895 S 0.77396 0.69513 0.73006 0.0
N896 N 0.74823 0.70597 0.72998 0.0
N897 N 0.79078 0.71527 0.75575 0.0
C898 C 0.77562 0.73211 0.7656 0.0
C899 C 0.7525 0.72703 0.75154 0.0
C900 C 0.48777 0.51473 0.52469 0.0
C901 C 0.50936 0.52268 0.54207 0.0
C902 C 0.48414 0.4921 0.50933 0.0
C903 C 0.50192 0.47635 0.51073 0.0
H904 H 0.47341 0.52606 0.52282 0.0
H905 H 0.46716 0.48694 0.49654 0.0
S906 S 0.56183 0.48845 0.55253 0.0
N907 N 0.54887 0.51296 0.55934 0.0
N908 N 0.54212 0.4704 0.53055 0.0
C909 C 0.52366 0.48405 0.52782 0.0
C910 C 0.52736 0.50718 0.54345 0.0
C911 C 0.98571 0.48968 0.99976 0.0
C912 C 0.00364 0.47526 0.01595 0.0
C913 C 0.98982 0.51166 0.97863 0.0
C914 C 0.01203 0.52027 0.9732 0.0
H915 H 0.96831 0.48391 1.00286 0.0
H916 H 0.97535 0.52204 0.96703 0.0
S917 S 0.06503 0.48947 1.01013 0.0
N918 N 0.04459 0.47125 0.02528 0.0
N919 N 0.05222 0.51253 0.98588 0.0
C920 C 0.03014 0.50606 0.98936 0.0
C921 C 0.02597 0.48361 1.01062 0.0
C922 C 0.5228 0.49291 0.99867 0.0
C923 C 0.50563 0.47685 1.00867 0.0
C924 C 0.5196 0.51569 1.01345 0.0
C925 C 0.49912 0.52337 0.03907 0.0
H926 H 0.53883 0.48793 0.97879 0.0
H927 H 0.53335 0.52736 1.00432 0.0
S928 S 0.44902 0.48797 0.07676 0.0
N929 N 0.46749 0.47017 0.04752 0.0
N930 N 0.46156 0.51287 0.07516 0.0
C931 C 0.48188 0.50744 0.05002 0.0
C932 C 0.48511 0.48424 0.03486 0.0
C933 C 0.02579 0.49435 0.52623 0.0
C934 C 0.00863 0.47812 0.51832 0.0
C935 C 0.02216 0.51708 0.51158 0.0
C936 C 1.00121 0.52461 0.48831 0.0
H937 H 0.04222 0.48952 0.54399 0.0
H938 H 0.03598 0.52884 0.51881 0.0
S939 S 0.95066 0.4889 0.45817 0.0
N940 N 0.9698 0.4712 0.48503 0.0
N941 N 0.96306 0.51388 0.4576 0.0
C942 C 0.98389 0.50857 0.47995 0.0
C943 C 0.98757 0.48537 0.49492 0.0
C944 C 0.10723 0.13157 0.10625 0.0
C945 C 0.08917 0.13133 0.14802 0.0
C946 C 0.12645 0.14512 0.11641 0.0
C947 C 0.1283 0.15864 0.16901 0.0
H948 H 0.10597 0.12223 0.06397 0.0
H949 H 0.13936 0.14581 0.08136 0.0
S950 S 0.08731 0.16022 0.29769 0.0
N951 N 0.0755 0.14324 0.24722 0.0
N952 N 0.11164 0.16821 0.26734 0.0
C953 C 0.11108 0.15696 0.21336 0.0
C954 C 0.09148 0.14346 0.20255 0.0
C955 C 0.12772 0.85105 0.43823 0.0
C956 C 0.12908 0.84085 0.38026 0.0
C957 C 0.10832 0.86302 0.45622 0.0
C958 C 0.08955 0.8649 0.41712 0.0
H959 H 0.14126 0.84891 0.47113 0.0
H960 H 0.10751 0.86972 0.5021 0.0
S961 S 0.08577 0.8449 0.25741 0.0
N962 N 0.1109 0.83633 0.28108 0.0
N963 N 0.07441 0.85824 0.3158 0.0
C964 C 0.09123 0.85618 0.35787 0.0
C965 C 0.11103 0.84434 0.33915 0.0
C966 C 0.38343 0.85238 0.5783 0.0
C967 C 0.37653 0.84483 0.6363 0.0
C968 C 0.40033 0.8689 0.5718 0.0
C969 C 0.4108 0.87875 0.623 0.0
H970 H 0.37649 0.84479 0.53745 0.0
H971 H 0.40564 0.87353 0.52613 0.0
S972 S 0.39706 0.86653 0.78517 0.0
N973 N 0.38022 0.84966 0.74599 0.0
N974 N 0.41176 0.88083 0.73391 0.0
C975 C 0.40314 0.87224 0.68132 0.0
C976 C 0.38609 0.85524 0.68791 0.0
C977 C 0.39965 0.12861 0.91308 0.0
C978 C 0.4219 0.13727 0.91084 0.0
C979 C 0.38102 0.14157 0.89368 0.0
C980 C 0.38394 0.16359 0.87052 0.0
H981 H 0.39655 0.11179 0.93068 0.0
H982 H 0.36421 0.13432 0.89726 0.0
S983 S 0.43892 0.19383 0.85295 0.0
N984 N 0.44577 0.16912 0.88219 0.0
N985 N 0.41113 0.19324 0.8455 0.0
C986 C 0.4062 0.17224 0.86702 0.0
C987 C 0.42505 0.15917 0.88726 0.0
C988 C 0.88308 0.85821 0.86125 0.0
C989 C 0.87315 0.84645 0.91032 0.0
C990 C 0.90023 0.87421 0.87083 0.0
C991 C 0.90836 0.8789 0.92983 0.0
H992 H 0.87814 0.85445 0.81477 0.0
H993 H 0.90791 0.88212 0.83128 0.0
S994 S 0.8865 0.85443 0.07447 0.0
N995 N 0.87145 0.84198 0.02066 0.0
N996 N 0.90379 0.87191 0.03857 0.0
C997 C 0.89772 0.86819 0.97961 0.0
C998 C 0.88008 0.85203 0.96989 0.0
C999 C 0.8996 0.14028 0.58325 0.0
C1000 C 0.91435 0.12708 0.61887 0.0
C1001 C 0.88386 0.15482 0.6104 0.0
C1002 C 0.88262 0.15707 0.67426 0.0
H1003 H 0.90072 0.13994 0.53392 0.0
H1004 H 0.87355 0.16531 0.58094 0.0
S1005 S 0.91602 0.1249 0.78824 0.0
N1006 N 0.92538 0.11591 0.72167 0.0
N1007 N 0.89621 0.14366 0.77243 0.0
C1008 C 0.89646 0.14319 0.71045 0.0
C1009 C 0.9122 0.12806 0.68284 0.0
C1010 C 0.62314 0.1524 0.42324 0.0
C1011 C 0.62424 0.16559 0.36961 0.0
C1012 C 0.60432 0.13853 0.4357 0.0
C1013 C 0.58583 0.13764 0.39539 0.0
H1014 H 0.63649 0.15341 0.45705 0.0
H1015 H 0.60375 0.12938 0.47852 0.0
S1016 S 0.58151 0.1659 0.24475 0.0
N1017 N 0.60607 0.17447 0.27253 0.0
N1018 N 0.57069 0.14893 0.29698 0.0
C1019 C 0.58723 0.14962 0.34018 0.0
C1020 C 0.60645 0.16343 0.32698 0.0
C1021 C 0.60633 0.87051 0.12887 0.0
C1022 C 0.5869 0.8593 0.10662 0.0
C1023 C 0.62498 0.8584 0.15193 0.0
C1024 C 0.62472 0.83469 0.15422 0.0
H1025 H 0.607 0.88877 0.12951 0.0
H1026 H 0.63947 0.86766 0.16916 0.0
S1027 S 0.57928 0.79722 0.09471 0.0
N1028 N 0.56962 0.82298 0.08345 0.0
N1029 N 0.60429 0.80043 0.12722 0.0
C1030 C 0.60573 0.82331 0.13033 0.0
C1031 C 0.58693 0.83555 0.10644 0.0
C1032 C 0.60874 0.62529 0.6915 0.0
C1033 C 0.59561 0.62373 0.63787 0.0
C1034 C 0.62293 0.64396 0.7021 0.0
C1035 C 0.62425 0.66172 0.6597 0.0
H1036 H 0.60726 0.61259 0.72688 0.0
H1037 H 0.63191 0.64506 0.74512 0.0
S1038 S 0.59672 0.6641 0.50779 0.0
N1039 N 0.58752 0.64029 0.53829 0.0
N1040 N 0.61372 0.6754 0.55917 0.0
C1041 C 0.61251 0.65966 0.60431 0.0
C1042 C 0.59833 0.64063 0.5931 0.0
C1043 C 0.59011 0.35681 0.93167 0.0
C1044 C 0.59086 0.37669 0.89635 0.0
C1045 C 0.60321 0.33803 0.91666 0.0
C1046 C 0.61793 0.33835 0.86632 0.0
H1047 H 0.57859 0.35528 0.96992 0.0
H1048 H 0.60141 0.32292 0.9442 0.0
S1049 S 0.6283 0.38682 0.76282 0.0
N1050 N 0.60897 0.39605 0.81116 0.0
N1051 N 0.63396 0.36064 0.78377 0.0
C1052 C 0.62 0.35845 0.8327 0.0
C1053 C 0.60637 0.37763 0.84749 0.0
C1054 C 0.90123 0.33352 0.16893 0.0
C1055 C 0.88163 0.336 0.13288 0.0
C1056 C 0.92051 0.34679 0.15897 0.0
C1057 C 0.921 0.3634 0.11308 0.0
H1058 H 0.90211 0.32064 0.20403 0.0
H1059 H 0.9353 0.34374 0.1871 0.0
S1060 S 0.87361 0.37818 1.00918 0.0
N1061 N 0.86349 0.35737 0.05144 0.0
N1062 N 0.89977 0.3826 0.0334 0.0
C1063 C 0.90123 0.36689 0.07846 0.0
C1064 C 0.88156 0.35312 0.08813 0.0
C1065 C 0.90777 0.65405 0.45096 0.0
C1066 C 0.91971 0.63776 0.41756 0.0
C1067 C 0.89253 0.66876 0.42217 0.0
C1068 C 0.88914 0.66812 0.35854 0.0
H1069 H 0.91073 0.65591 0.49949 0.0
H1070 H 0.88435 0.68154 0.44961 0.0
S1071 S 0.9153 0.62772 0.25082 0.0
N1072 N 0.92605 0.62089 0.31792 0.0
N1073 N 0.89794 0.64901 0.26363 0.0
C1074 C 0.90031 0.65134 0.32496 0.0
C1075 C 0.91544 0.63602 0.35451 0.0
C1076 C 0.37854 0.35738 0.42787 0.0
C1077 C 0.37635 0.34541 0.37265 0.0
C1078 C 0.39809 0.37012 0.44068 0.0
C1079 C 0.41612 0.37109 0.39893 0.0
H1080 H 0.36566 0.35596 0.46287 0.0
H1081 H 0.39965 0.37811 0.48488 0.0
S1082 S 0.41717 0.34661 0.24357 0.0
N1083 N 0.39266 0.33835 0.27238 0.0
N1084 N 0.42942 0.36179 0.29733 0.0
C1085 C 0.41345 0.3607 0.34195 0.0
C1086 C 0.39353 0.34801 0.32852 0.0
C1087 C 0.3986 0.6491 0.20074 0.0
C1088 C 0.38512 0.66425 0.16723 0.0
C1089 C 0.41283 0.63366 0.17133 0.0
C1090 C 0.4145 0.63314 0.10725 0.0
H1091 H 0.39876 0.64971 0.25013 0.0
H1092 H 0.4236 0.62304 0.19922 0.0
S1093 S 0.38131 0.66776 0.99823 0.0
N1094 N 0.37296 0.67639 0.06612 0.0
N1095 N 0.40017 0.64778 1.01115 0.0
C1096 C 0.40028 0.64736 0.07315 0.0
C1097 C 0.38546 0.66279 0.10305 0.0
C1098 C 0.10974 0.63425 0.92541 0.0
C1099 C 0.09162 0.63345 0.88385 0.0
C1100 C 0.12866 0.64815 0.91445 0.0
C1101 C 0.13018 0.66149 0.8612 0.0
H1102 H 0.10873 0.62509 0.96817 0.0
H1103 H 0.14163 0.64921 0.94931 0.0
S1104 S 0.08879 0.66182 0.73316 0.0
N1105 N 0.07746 0.64478 0.78444 0.0
N1106 N 0.11304 0.67039 0.76278 0.0
C1107 C 0.11288 0.65929 0.81716 0.0
C1108 C 0.09357 0.64543 0.8288 0.0
C1109 C 0.08786 0.35023 0.66974 0.0
C1110 C 0.08952 0.3674 0.62562 0.0
C1111 C 0.10689 0.33812 0.68874 0.0
C1112 C 0.12852 0.34241 0.66407 0.0
H1113 H 0.0716 0.34583 0.68947 0.0
H1114 H 0.10438 0.32476 0.72188 0.0
S1115 S 0.14235 0.38689 0.55021 0.0
N1116 N 0.11471 0.38922 0.56042 0.0
N1117 N 0.15066 0.36618 0.5955 0.0
C1118 C 0.13066 0.36025 0.62174 0.0
C1119 C 0.11114 0.37278 0.60266 0.0
loop_
_geom_bond_atom_site_label_1
_geom_bond_atom_site_label_2
_geom_bond_distance
_geom_bond_site_symmetry_2
_ccdc_geom_bond_type
Mg0 O7 2.141 1_554 S
Mg0 O8 2.048 . S
Mg0 O9 2.048 . S
Mg0 O12 2.141 . S
C1 O2 1.313 . S
C1 O8 1.195 1_655 S
O2 C1 1.313 . S
C3 O4 1.245 . S
C3 O12 1.289 . S
O4 C3 1.245 . S
C5 O6 1.245 1_455 S
C5 O7 1.289 . S
O6 C5 1.245 1_655 S
O7 Mg0 2.141 1_556 S
O7 C5 1.289 . S
O8 Mg0 2.048 . S
O8 C1 1.195 1_455 S
O9 Mg0 2.048 . S
O9 C10 1.195 . S
C10 O9 1.195 . S
C10 O11 1.313 1_455 S
O11 C10 1.313 1_655 S
O12 Mg0 2.141 . S
O12 C3 1.289 . S
Mg13 O20 2.141 . S
Mg13 O21 2.048 . S
Mg13 O22 2.048 . S
Mg13 O25 2.141 . S
C14 O15 1.313 . S
C14 O21 1.195 . S
O15 C14 1.313 . S
C16 O17 1.245 . S
C16 O25 1.289 . S
O17 C16 1.245 . S
C18 O19 1.245 . S
C18 O20 1.289 . S
O19 C18 1.245 . S
O20 Mg13 2.141 . S
O20 C18 1.289 . S
O21 Mg13 2.048 . S
O21 C14 1.195 . S
O22 Mg13 2.048 . S
O22 C23 1.195 . S
C23 O22 1.195 . S
C23 O24 1.313 . S
O24 C23 1.313 . S
O25 Mg13 2.141 . S
O25 C16 1.289 . S
Mg26 O33 2.141 . S
Mg26 O34 2.048 . S
Mg26 O35 2.048 . S
Mg26 O38 2.141 . S
C27 O28 1.313 . S
C27 O34 1.195 . S
O28 C27 1.313 . S
C29 O30 1.245 . S
C29 O38 1.289 . S
O30 C29 1.245 . S
C31 O32 1.245 . S
C31 O33 1.289 . S
O32 C31 1.245 . S
O33 Mg26 2.141 . S
O33 C31 1.289 . S
O34 Mg26 2.048 . S
O34 C27 1.195 . S
O35 Mg26 2.048 . S
O35 C36 1.195 . S
C36 O35 1.195 . S
C36 O37 1.313 . S
O37 C36 1.313 . S
O38 Mg26 2.141 . S
O38 C29 1.289 . S
Mg39 O46 2.141 . S
Mg39 O47 2.048 . S
Mg39 O48 2.048 . S
Mg39 O51 2.141 . S
C40 O41 1.313 . S
C40 O47 1.195 . S
O41 C40 1.313 . S
C42 O43 1.245 . S
C42 O51 1.289 . S
O43 C42 1.245 . S
C44 O45 1.245 . S
C44 O46 1.289 . S
O45 C44 1.245 . S
O46 Mg39 2.141 . S
O46 C44 1.289 . S
O47 Mg39 2.048 . S
O47 C40 1.195 . S
O48 Mg39 2.048 . S
O48 C49 1.195 . S
C49 O48 1.195 . S
C49 O50 1.313 . S
O50 C49 1.313 . S
O51 Mg39 2.141 . S
O51 C42 1.289 . S
Mg52 O59 2.141 . S
Mg52 O60 2.048 . S
Mg52 O61 2.048 . S
Mg52 O64 2.141 . S
C53 O54 1.313 . S
C53 O60 1.195 1_655 S
O54 C53 1.313 . S
C55 O56 1.245 . S
C55 O64 1.289 . S
O56 C55 1.245 . S
C57 O58 1.245 1_455 S
C57 O59 1.289 . S
O58 C57 1.245 1_655 S
O59 Mg52 2.141 . S
O59 C57 1.289 . S
O60 Mg52 2.048 . S
O60 C53 1.195 1_455 S
O61 Mg52 2.048 . S
O61 C62 1.195 . S
C62 O61 1.195 . S
C62 O63 1.313 1_455 S
O63 C62 1.313 1_655 S
O64 Mg52 2.141 . S
O64 C55 1.289 . S
Mg65 O72 2.141 . S
Mg65 O73 2.048 . S
Mg65 O74 2.048 . S
Mg65 O77 2.141 . S
C66 O67 1.313 . S
C66 O73 1.195 . S
O67 C66 1.313 . S
C68 O69 1.245 . S
C68 O77 1.289 . S
O69 C68 1.245 . S
C70 O71 1.245 . S
C70 O72 1.289 . S
O71 C70 1.245 . S
O72 Mg65 2.141 . S
O72 C70 1.289 . S
O73 Mg65 2.048 . S
O73 C66 1.195 . S
O74 Mg65 2.048 . S
O74 C75 1.195 . S
C75 O74 1.195 . S
C75 O76 1.313 . S
O76 C75 1.313 . S
O77 Mg65 2.141 . S
O77 C68 1.289 . S
Mg78 O85 2.141 1_556 S
Mg78 O86 2.048 . S
Mg78 O87 2.048 . S
Mg78 O90 2.141 . S
C79 O80 1.313 . S
C79 O86 1.195 . S
O80 C79 1.313 . S
C81 O82 1.245 . S
C81 O90 1.289 . S
O82 C81 1.245 . S
C83 O84 1.245 . S
C83 O85 1.289 . S
O84 C83 1.245 . S
O85 Mg78 2.141 1_554 S
O85 C83 1.289 . S
O86 Mg78 2.048 . S
O86 C79 1.195 . S
O87 Mg78 2.048 . S
O87 C88 1.195 . S
C88 O87 1.195 . S
C88 O89 1.313 . S
O89 C88 1.313 . S
O90 Mg78 2.141 . S
O90 C81 1.289 . S
Mg91 O98 2.141 . S
Mg91 O99 2.048 . S
Mg91 O100 2.048 . S
Mg91 O103 2.141 . S
C92 O93 1.313 . S
C92 O99 1.195 . S
O93 C92 1.313 . S
C94 O95 1.245 . S
C94 O103 1.289 . S
O95 C94 1.245 . S
C96 O97 1.245 . S
C96 O98 1.289 . S
O97 C96 1.245 . S
O98 Mg91 2.141 . S
O98 C96 1.289 . S
O99 Mg91 2.048 . S
O99 C92 1.195 . S
O100 Mg91 2.048 . S
O100 C101 1.195 . S
C101 O100 1.195 . S
C101 O102 1.313 . S
O102 C101 1.313 . S
O103 Mg91 2.141 . S
O103 C94 1.289 . S
Mg104 O111 2.141 . S
Mg104 O112 2.048 . S
Mg104 O113 2.048 . S
Mg104 O116 2.141 1_556 S
C105 O106 1.313 1_655 S
C105 O112 1.195 . S
O106 C105 1.313 1_455 S
C107 O108 1.245 1_655 S
C107 O116 1.289 . S
O108 C107 1.245 1_455 S
C109 O110 1.245 . S
C109 O111 1.289 . S
O110 C109 1.245 . S
O111 Mg104 2.141 . S
O111 C109 1.289 . S
O112 Mg104 2.048 . S
O112 C105 1.195 . S
O113 Mg104 2.048 . S
O113 C114 1.195 1_655 S
C114 O113 1.195 1_455 S
C114 O115 1.313 . S
O115 C114 1.313 . S
O116 Mg104 2.141 1_554 S
O116 C107 1.289 . S
Mg117 O124 2.141 . S
Mg117 O125 2.048 . S
Mg117 O126 2.048 . S
Mg117 O129 2.141 . S
C118 O119 1.313 . S
C118 O125 1.195 . S
O119 C118 1.313 . S
C120 O121 1.245 . S
C120 O129 1.289 . S
O121 C120 1.245 . S
C122 O123 1.245 . S
C122 O124 1.289 . S
O123 C122 1.245 . S
O124 Mg117 2.141 . S
O124 C122 1.289 . S
O125 Mg117 2.048 . S
O125 C118 1.195 . S
O126 Mg117 2.048 . S
O126 C127 1.195 . S
C127 O126 1.195 . S
C127 O128 1.313 . S
O128 C127 1.313 . S
O129 Mg117 2.141 . S
O129 C120 1.289 . S
Mg130 O137 2.141 . S
Mg130 O138 2.048 . S
Mg130 O139 2.048 . S
Mg130 O142 2.141 . S
C131 O132 1.313 . S
C131 O138 1.195 . S
O132 C131 1.313 . S
C133 O134 1.245 . S
C133 O142 1.289 . S
O134 C133 1.245 . S
C135 O136 1.245 . S
C135 O137 1.289 . S
O136 C135 1.245 . S
O137 Mg130 2.141 . S
O137 C135 1.289 . S
O138 Mg130 2.048 . S
O138 C131 1.195 . S
O139 Mg130 2.048 . S
O139 C140 1.195 . S
C140 O139 1.195 . S
C140 O141 1.313 . S
O141 C140 1.313 . S
O142 Mg130 2.141 . S
O142 C133 1.289 . S
Mg143 O150 2.141 . S
Mg143 O151 2.048 . S
Mg143 O152 2.048 . S
Mg143 O155 2.141 . S
C144 O145 1.313 . S
C144 O151 1.195 . S
O145 C144 1.313 . S
C146 O147 1.245 . S
C146 O155 1.289 . S
O147 C146 1.245 . S
C148 O149 1.245 . S
C148 O150 1.289 . S
O149 C148 1.245 . S
O150 Mg143 2.141 . S
O150 C148 1.289 . S
O151 Mg143 2.048 . S
O151 C144 1.195 . S
O152 Mg143 2.048 . S
O152 C153 1.195 . S
C153 O152 1.195 . S
C153 O154 1.313 . S
O154 C153 1.313 . S
O155 Mg143 2.141 . S
O155 C146 1.289 . S
Mg156 O163 2.141 . S
Mg156 O164 2.048 . S
Mg156 O165 2.048 . S
Mg156 O168 2.141 . S
C157 O158 1.313 1_655 S
C157 O164 1.195 . S
O158 C157 1.313 1_455 S
C159 O160 1.245 1_655 S
C159 O168 1.289 . S
O160 C159 1.245 1_455 S
C161 O162 1.245 . S
C161 O163 1.289 . S
O162 C161 1.245 . S
O163 Mg156 2.141 . S
O163 C161 1.289 . S
O164 Mg156 2.048 . S
O164 C157 1.195 . S
O165 Mg156 2.048 . S
O165 C166 1.195 1_655 S
C166 O165 1.195 1_455 S
C166 O167 1.313 . S
O167 C166 1.313 . S
O168 Mg156 2.141 . S
O168 C159 1.289 . S
Mg169 O176 2.141 . S
Mg169 O177 2.048 . S
Mg169 O178 2.048 . S
Mg169 O181 2.141 . S
C170 O171 1.313 . S
C170 O177 1.195 . S
O171 C170 1.313 . S
C172 O173 1.245 . S
C172 O181 1.289 . S
O173 C172 1.245 . S
C174 O175 1.245 . S
C174 O176 1.289 . S
O175 C174 1.245 . S
O176 Mg169 2.141 . S
O176 C174 1.289 . S
O177 Mg169 2.048 . S
O177 C170 1.195 . S
O178 Mg169 2.048 . S
O178 C179 1.195 . S
C179 O178 1.195 . S
C179 O180 1.313 . S
O180 C179 1.313 . S
O181 Mg169 2.141 . S
O181 C172 1.289 . S
Mg182 O189 2.141 . S
Mg182 O190 2.048 . S
Mg182 O191 2.048 . S
Mg182 O194 2.141 1_554 S
C183 O184 1.313 . S
C183 O190 1.195 . S
O184 C183 1.313 . S
C185 O186 1.245 . S
C185 O194 1.289 . S
O186 C185 1.245 . S
C187 O188 1.245 . S
C187 O189 1.289 . S
O188 C187 1.245 . S
O189 Mg182 2.141 . S
O189 C187 1.289 . S
O190 Mg182 2.048 . S
O190 C183 1.195 . S
O191 Mg182 2.048 . S
O191 C192 1.195 . S
C192 O191 1.195 . S
C192 O193 1.313 . S
O193 C192 1.313 . S
O194 Mg182 2.141 1_556 S
O194 C185 1.289 . S
Mg195 O202 2.141 . S
Mg195 O203 2.048 . S
Mg195 O204 2.048 . S
Mg195 O207 2.141 . S
C196 O197 1.313 . S
C196 O203 1.195 . S
O197 C196 1.313 . S
C198 O199 1.245 . S
C198 O207 1.289 . S
O199 C198 1.245 . S
C200 O201 1.245 . S
C200 O202 1.289 . S
O201 C200 1.245 . S
O202 Mg195 2.141 . S
O202 C200 1.289 . S
O203 Mg195 2.048 . S
O203 C196 1.195 . S
O204 Mg195 2.048 . S
O204 C205 1.195 . S
C205 O204 1.195 . S
C205 O206 1.313 . S
O206 C205 1.313 . S
O207 Mg195 2.141 . S
O207 C198 1.289 . S
Mg208 O215 2.141 . S
Mg208 O216 2.048 . S
Mg208 O217 2.048 . S
Mg208 O220 2.141 . S
C209 O210 1.313 . S
C209 O216 1.195 . S
O210 C209 1.313 . S
C211 O212 1.245 . S
C211 O220 1.289 . S
O212 C211 1.245 . S
C213 O214 1.245 . S
C213 O215 1.289 . S
O214 C213 1.245 . S
O215 Mg208 2.141 . S
O215 C213 1.289 . S
O216 Mg208 2.048 . S
O216 C209 1.195 . S
O217 Mg208 2.048 . S
O217 C218 1.195 . S
C218 O217 1.195 . S
C218 O219 1.313 . S
O219 C218 1.313 . S
O220 Mg208 2.141 . S
O220 C211 1.289 . S
Mg221 O228 2.141 . S
Mg221 O229 2.048 . S
Mg221 O230 2.048 . S
Mg221 O233 2.141 . S
C222 O223 1.313 . S
C222 O229 1.195 . S
O223 C222 1.313 . S
C224 O225 1.245 . S
C224 O233 1.289 . S
O225 C224 1.245 . S
C226 O227 1.245 . S
C226 O228 1.289 . S
O227 C226 1.245 . S
O228 Mg221 2.141 . S
O228 C226 1.289 . S
O229 Mg221 2.048 . S
O229 C222 1.195 . S
O230 Mg221 2.048 . S
O230 C231 1.195 . S
C231 O230 1.195 . S
C231 O232 1.313 . S
O232 C231 1.313 . S
O233 Mg221 2.141 . S
O233 C224 1.289 . S
Mg234 O241 2.141 1_554 S
Mg234 O242 2.048 . S
Mg234 O243 2.048 . S
Mg234 O246 2.141 . S
C235 O236 1.313 . S
C235 O242 1.195 1_455 S
O236 C235 1.313 . S
C237 O238 1.245 . S
C237 O246 1.289 . S
O238 C237 1.245 . S
C239 O240 1.245 1_655 S
C239 O241 1.289 . S
O240 C239 1.245 1_455 S
O241 Mg234 2.141 1_556 S
O241 C239 1.289 . S
O242 Mg234 2.048 . S
O242 C235 1.195 1_655 S
O243 Mg234 2.048 . S
O243 C244 1.195 . S
C244 O243 1.195 . S
C244 O245 1.313 1_655 S
O245 C244 1.313 1_455 S
O246 Mg234 2.141 . S
O246 C237 1.289 . S
Mg247 O254 2.141 . S
Mg247 O255 2.048 . S
Mg247 O256 2.048 . S
Mg247 O259 2.141 . S
C248 O249 1.313 . S
C248 O255 1.195 . S
O249 C248 1.313 . S
C250 O251 1.245 . S
C250 O259 1.289 . S
O251 C250 1.245 . S
C252 O253 1.245 . S
C252 O254 1.289 . S
O253 C252 1.245 . S
O254 Mg247 2.141 . S
O254 C252 1.289 . S
O255 Mg247 2.048 . S
O255 C248 1.195 . S
O256 Mg247 2.048 . S
O256 C257 1.195 . S
C257 O256 1.195 . S
C257 O258 1.313 . S
O258 C257 1.313 . S
O259 Mg247 2.141 . S
O259 C250 1.289 . S
Mg260 O267 2.141 1_556 S
Mg260 O268 2.048 . S
Mg260 O269 2.048 . S
Mg260 O272 2.141 . S
C261 O262 1.313 . S
C261 O268 1.195 . S
O262 C261 1.313 . S
C263 O264 1.245 . S
C263 O272 1.289 . S
O264 C263 1.245 . S
C265 O266 1.245 . S
C265 O267 1.289 . S
O266 C265 1.245 . S
O267 Mg260 2.141 1_554 S
O267 C265 1.289 . S
O268 Mg260 2.048 . S
O268 C261 1.195 . S
O269 Mg260 2.048 . S
O269 C270 1.195 . S
C270 O269 1.195 . S
C270 O271 1.313 . S
O271 C270 1.313 . S
O272 Mg260 2.141 . S
O272 C263 1.289 . S
Mg273 O280 2.141 . S
Mg273 O281 2.048 . S
Mg273 O282 2.048 . S
Mg273 O285 2.141 . S
C274 O275 1.313 . S
C274 O281 1.195 . S
O275 C274 1.313 . S
C276 O277 1.245 . S
C276 O285 1.289 . S
O277 C276 1.245 . S
C278 O279 1.245 . S
C278 O280 1.289 . S
O279 C278 1.245 . S
O280 Mg273 2.141 . S
O280 C278 1.289 . S
O281 Mg273 2.048 . S
O281 C274 1.195 . S
O282 Mg273 2.048 . S
O282 C283 1.195 . S
C283 O282 1.195 . S
C283 O284 1.313 . S
O284 C283 1.313 . S
O285 Mg273 2.141 . S
O285 C276 1.289 . S
Mg286 O293 2.141 . S
Mg286 O294 2.048 . S
Mg286 O295 2.048 . S
Mg286 O298 2.141 . S
C287 O288 1.313 . S
C287 O294 1.195 1_455 S
O288 C287 1.313 . S
C289 O290 1.245 . S
C289 O298 1.289 . S
O290 C289 1.245 . S
C291 O292 1.245 1_655 S
C291 O293 1.289 . S
O292 C291 1.245 1_455 S
O293 Mg286 2.141 . S
O293 C291 1.289 . S
O294 Mg286 2.048 . S
O294 C287 1.195 1_655 S
O295 Mg286 2.048 . S
O295 C296 1.195 . S
C296 O295 1.195 . S
C296 O297 1.313 1_655 S
O297 C296 1.313 1_455 S
O298 Mg286 2.141 . S
O298 C289 1.289 . S
Mg299 O306 2.141 . S
Mg299 O307 2.048 . S
Mg299 O308 2.048 . S
Mg299 O311 2.141 . S
C300 O301 1.313 . S
C300 O307 1.195 . S
O301 C300 1.313 . S
C302 O303 1.245 . S
C302 O311 1.289 . S
O303 C302 1.245 . S
C304 O305 1.245 . S
C304 O306 1.289 . S
O305 C304 1.245 . S
O306 Mg299 2.141 . S
O306 C304 1.289 . S
O307 Mg299 2.048 . S
O307 C300 1.195 . S
O308 Mg299 2.048 . S
O308 C309 1.195 . S
C309 O308 1.195 . S
C309 O310 1.313 . S
O310 C309 1.313 . S
O311 Mg299 2.141 . S
O311 C302 1.289 . S
Mg312 O319 2.141 . S
Mg312 O320 2.048 . S
Mg312 O321 2.048 . S
Mg312 O324 2.141 . S
C313 O314 1.313 . S
C313 O320 1.195 . S
O314 C313 1.313 . S
C315 O316 1.245 . S
C315 O324 1.289 . S
O316 C315 1.245 . S
C317 O318 1.245 . S
C317 O319 1.289 . S
O318 C317 1.245 . S
O319 Mg312 2.141 . S
O319 C317 1.289 . S
O320 Mg312 2.048 . S
O320 C313 1.195 . S
O321 Mg312 2.048 . S
O321 C322 1.195 . S
C322 O321 1.195 . S
C322 O323 1.313 . S
O323 C322 1.313 . S
O324 Mg312 2.141 . S
O324 C315 1.289 . S
Mg325 O332 2.141 . S
Mg325 O333 2.048 . S
Mg325 O334 2.048 . S
Mg325 O337 2.141 . S
C326 O327 1.313 . S
C326 O333 1.195 . S
O327 C326 1.313 . S
C328 O329 1.245 . S
C328 O337 1.289 . S
O329 C328 1.245 . S
C330 O331 1.245 . S
C330 O332 1.289 . S
O331 C330 1.245 . S
O332 Mg325 2.141 . S
O332 C330 1.289 . S
O333 Mg325 2.048 . S
O333 C326 1.195 . S
O334 Mg325 2.048 . S
O334 C335 1.195 . S
C335 O334 1.195 . S
C335 O336 1.313 . S
O336 C335 1.313 . S
O337 Mg325 2.141 . S
O337 C328 1.289 . S
Mg338 O345 2.141 . S
Mg338 O346 2.048 . S
Mg338 O347 2.048 . S
Mg338 O350 2.141 1_556 S
C339 O340 1.313 1_455 S
C339 O346 1.195 . S
O340 C339 1.313 1_655 S
C341 O342 1.245 1_455 S
C341 O350 1.289 . S
O342 C341 1.245 1_655 S
C343 O344 1.245 . S
C343 O345 1.289 . S
O344 C343 1.245 . S
O345 Mg338 2.141 . S
O345 C343 1.289 . S
O346 Mg338 2.048 . S
O346 C339 1.195 . S
O347 Mg338 2.048 . S
O347 C348 1.195 1_455 S
C348 O347 1.195 1_655 S
C348 O349 1.313 . S
O349 C348 1.313 . S
O350 Mg338 2.141 1_554 S
O350 C341 1.289 . S
Mg351 O358 2.141 . S
Mg351 O359 2.048 . S
Mg351 O360 2.048 . S
Mg351 O363 2.141 . S
C352 O353 1.313 . S
C352 O359 1.195 . S
O353 C352 1.313 . S
C354 O355 1.245 . S
C354 O363 1.289 . S
O355 C354 1.245 . S
C356 O357 1.245 . S
C356 O358 1.289 . S
O357 C356 1.245 . S
O358 Mg351 2.141 . S
O358 C356 1.289 . S
O359 Mg351 2.048 . S
O359 C352 1.195 . S
O360 Mg351 2.048 . S
O360 C361 1.195 . S
C361 O360 1.195 . S
C361 O362 1.313 . S
O362 C361 1.313 . S
O363 Mg351 2.141 . S
O363 C354 1.289 . S
Mg364 O371 2.141 . S
Mg364 O372 2.048 . S
Mg364 O373 2.048 . S
Mg364 O376 2.141 1_554 S
C365 O366 1.313 . S
C365 O372 1.195 . S
O366 C365 1.313 . S
C367 O368 1.245 . S
C367 O376 1.289 . S
O368 C367 1.245 . S
C369 O370 1.245 . S
C369 O371 1.289 . S
O370 C369 1.245 . S
O371 Mg364 2.141 . S
O371 C369 1.289 . S
O372 Mg364 2.048 . S
O372 C365 1.195 . S
O373 Mg364 2.048 . S
O373 C374 1.195 . S
C374 O373 1.195 . S
C374 O375 1.313 . S
O375 C374 1.313 . S
O376 Mg364 2.141 1_556 S
O376 C367 1.289 . S
Mg377 O384 2.141 . S
Mg377 O385 2.048 . S
Mg377 O386 2.048 . S
Mg377 O389 2.141 . S
C378 O379 1.313 . S
C378 O385 1.195 . S
O379 C378 1.313 . S
C380 O381 1.245 . S
C380 O389 1.289 . S
O381 C380 1.245 . S
C382 O383 1.245 . S
C382 O384 1.289 . S
O383 C382 1.245 . S
O384 Mg377 2.141 . S
O384 C382 1.289 . S
O385 Mg377 2.048 . S
O385 C378 1.195 . S
O386 Mg377 2.048 . S
O386 C387 1.195 . S
C387 O386 1.195 . S
C387 O388 1.313 . S
O388 C387 1.313 . S
O389 Mg377 2.141 . S
O389 C380 1.289 . S
Mg390 O397 2.141 . S
Mg390 O398 2.048 . S
Mg390 O399 2.048 . S
Mg390 O402 2.141 . S
C391 O392 1.313 1_455 S
C391 O398 1.195 . S
O392 C391 1.313 1_655 S
C393 O394 1.245 1_455 S
C393 O402 1.289 . S
O394 C393 1.245 1_655 S
C395 O396 1.245 . S
C395 O397 1.289 . S
O396 C395 1.245 . S
O397 Mg390 2.141 . S
O397 C395 1.289 . S
O398 Mg390 2.048 . S
O398 C391 1.195 . S
O399 Mg390 2.048 . S
O399 C400 1.195 1_455 S
C400 O399 1.195 1_655 S
C400 O401 1.313 . S
O401 C400 1.313 . S
O402 Mg390 2.141 . S
O402 C393 1.289 . S
Mg403 O410 2.141 . S
Mg403 O411 2.048 . S
Mg403 O412 2.048 . S
Mg403 O415 2.141 . S
C404 O405 1.313 . S
C404 O411 1.195 . S
O405 C404 1.313 . S
C406 O407 1.245 . S
C406 O415 1.289 . S
O407 C406 1.245 . S
C408 O409 1.245 . S
C408 O410 1.289 . S
O409 C408 1.245 . S
O410 Mg403 2.141 . S
O410 C408 1.289 . S
O411 Mg403 2.048 . S
O411 C404 1.195 . S
O412 Mg403 2.048 . S
O412 C413 1.195 . S
C413 O412 1.195 . S
C413 O414 1.313 . S
O414 C413 1.313 . S
O415 Mg403 2.141 . S
O415 C406 1.289 . S
C416 C417 1.360 1_455 S
C416 C418 1.431 . S
C416 H420 0.926 1_455 S
C417 C416 1.360 1_655 S
C417 C426 1.429 . S
C418 C416 1.431 . S
C418 C419 1.363 . S
C418 H421 0.929 . S
C419 C418 1.363 . S
C419 C425 1.428 . S
H420 C416 0.926 1_655 S
H421 C418 0.929 . S
S422 N423 1.610 1_455 S
S422 N424 1.615 . S
N423 S422 1.610 1_655 S
N423 C426 1.350 . S
N424 S422 1.615 . S
N424 C425 1.351 . S
C425 C419 1.428 . S
C425 N424 1.351 . S
C425 C426 1.434 1_455 S
C426 C417 1.429 . S
C426 N423 1.350 . S
C426 C425 1.434 1_655 S
C427 C428 1.369 1_554 S
C427 C429 1.419 . S
C427 H431 0.930 . S
C428 C427 1.369 1_556 S
C428 C437 1.429 1_556 S
C429 C427 1.419 . S
C429 C430 1.363 . S
C429 H432 0.929 . S
C430 C429 1.363 . S
C430 C436 1.428 . S
H431 C427 0.930 . S
H432 C429 0.929 . S
S433 N434 1.605 1_554 S
S433 N435 1.610 . S
N434 S433 1.605 1_556 S
N434 C437 1.345 1_556 S
N435 S433 1.610 . S
N435 C436 1.351 . S
C436 C430 1.428 . S
C436 N435 1.351 . S
C436 C437 1.434 . S
C437 C428 1.429 1_554 S
C437 N434 1.345 1_554 S
C437 C436 1.434 . S
C438 C439 1.369 . S
C438 C440 1.419 . S
C438 H442 0.930 . S
C439 C438 1.369 . S
C439 C448 1.429 . S
C440 C438 1.419 . S
C440 C441 1.363 . S
C440 H443 0.929 . S
C441 C440 1.363 . S
C441 C447 1.428 . S
H442 C438 0.930 . S
H443 C440 0.929 . S
S444 N445 1.613 . S
S444 N446 1.610 . S
N445 S444 1.613 . S
N445 C448 1.350 . S
N446 S444 1.610 . S
N446 C447 1.351 . S
C447 C441 1.428 . S
C447 N446 1.351 . S
C447 C448 1.434 . S
C448 C439 1.429 . S
C448 N445 1.350 . S
C448 C447 1.434 . S
C449 C450 1.369 . S
C449 C451 1.419 . S
C449 H453 0.930 . S
C450 C449 1.369 . S
C450 C459 1.429 . S
C451 C449 1.419 . S
C451 C452 1.363 . S
C451 H454 0.929 . S
C452 C451 1.363 . S
C452 C458 1.428 . S
H453 C449 0.930 . S
H454 C451 0.929 . S
S455 N456 1.613 . S
S455 N457 1.610 . S
N456 S455 1.613 . S
N456 C459 1.350 . S
N457 S455 1.610 . S
N457 C458 1.351 . S
C458 C452 1.428 . S
C458 N457 1.351 . S
C458 C459 1.434 . S
C459 C450 1.429 . S
C459 N456 1.350 . S
C459 C458 1.434 . S
C460 C461 1.369 1_455 S
C460 C462 1.419 . S
C460 H464 0.930 . S
C461 C460 1.369 1_655 S
C461 C470 1.429 . S
C462 C460 1.419 . S
C462 C463 1.363 . S
C462 H465 0.929 . S
C463 C462 1.363 . S
C463 C469 1.428 1_455 S
H464 C460 0.930 . S
H465 C462 0.929 . S
S466 N467 1.613 . S
S466 N468 1.610 . S
N467 S466 1.613 . S
N467 C470 1.350 . S
N468 S466 1.610 . S
N468 C469 1.351 . S
C469 C463 1.428 1_655 S
C469 N468 1.351 . S
C469 C470 1.434 . S
C470 C461 1.429 . S
C470 N467 1.350 . S
C470 C469 1.434 . S
C471 C472 1.369 . S
C471 C473 1.419 . S
C471 H475 0.930 . S
C472 C471 1.369 . S
C472 C481 1.429 . S
C473 C471 1.419 . S
C473 C474 1.363 1_556 S
C473 H476 0.929 . S
C474 C473 1.363 1_554 S
C474 C480 1.428 1_554 S
H475 C471 0.930 . S
H476 C473 0.929 . S
S477 N478 1.613 . S
S477 N479 1.610 1_556 S
N478 S477 1.613 . S
N478 C481 1.350 . S
N479 S477 1.610 1_554 S
N479 C480 1.351 1_554 S
C480 C474 1.428 1_556 S
C480 N479 1.351 1_556 S
C480 C481 1.434 . S
C481 C472 1.429 . S
C481 N478 1.350 . S
C481 C480 1.434 . S
C482 C483 1.369 . S
C482 C484 1.419 . S
C482 H486 0.930 . S
C483 C482 1.369 . S
C483 C492 1.429 . S
C484 C482 1.419 . S
C484 C485 1.363 . S
C484 H487 0.929 . S
C485 C484 1.363 . S
C485 C491 1.428 . S
H486 C482 0.930 . S
H487 C484 0.929 . S
S488 N489 1.613 . S
S488 N490 1.610 . S
N489 S488 1.613 . S
N489 C492 1.350 . S
N490 S488 1.610 . S
N490 C491 1.351 . S
C491 C485 1.428 . S
C491 N490 1.351 . S
C491 C492 1.434 . S
C492 C483 1.429 . S
C492 N489 1.350 . S
C492 C491 1.434 . S
C493 C494 1.369 . S
C493 C495 1.419 . S
C493 H497 0.930 . S
C494 C493 1.369 . S
C494 C503 1.429 . S
C495 C493 1.419 . S
C495 C496 1.363 . S
C495 H498 0.929 . S
C496 C495 1.363 . S
C496 C502 1.428 . S
H497 C493 0.930 . S
H498 C495 0.929 . S
S499 N500 1.613 . S
S499 N501 1.610 . S
N500 S499 1.613 . S
N500 C503 1.350 . S
N501 S499 1.610 . S
N501 C502 1.351 . S
C502 C496 1.428 . S
C502 N501 1.351 . S
C502 C503 1.434 . S
C503 C494 1.429 . S
C503 N500 1.350 . S
C503 C502 1.434 . S
C504 C505 1.369 . S
C504 C506 1.419 1_455 S
C504 H508 0.930 . S
C505 C504 1.369 . S
C505 C514 1.437 . S
C506 C504 1.419 1_655 S
C506 C507 1.363 . S
C506 H509 0.929 . S
C507 C506 1.363 . S
C507 C513 1.428 . S
H508 C504 0.930 . S
H509 C506 0.929 . S
S510 N511 1.613 1_655 S
S510 N512 1.610 . S
N511 S510 1.613 1_455 S
N511 C514 1.357 . S
N512 S510 1.610 . S
N512 C513 1.351 . S
C513 C507 1.428 . S
C513 N512 1.351 . S
C513 C514 1.420 1_655 S
C514 C505 1.437 . S
C514 N511 1.357 . S
C514 C513 1.420 1_455 S
C515 C516 1.369 1_556 S
C515 C517 1.419 . S
C515 H519 0.937 . S
C516 C515 1.369 1_554 S
C516 C525 1.429 1_554 S
C517 C515 1.419 . S
C517 C518 1.363 . S
C517 H520 0.929 . S
C518 C517 1.363 . S
C518 C524 1.428 . S
H519 C515 0.937 . S
H520 C517 0.929 . S
S521 N522 1.613 . S
S521 N523 1.610 . S
N522 S521 1.613 . S
N522 C525 1.350 . S
N523 S521 1.610 . S
N523 C524 1.351 . S
C524 C518 1.428 . S
C524 N523 1.351 . S
C524 C525 1.434 . S
C525 C516 1.429 1_556 S
C525 N522 1.350 . S
C525 C524 1.434 . S
C526 C527 1.369 . S
C526 C528 1.419 . S
C526 H530 0.930 . S
C527 C526 1.369 . S
C527 C536 1.429 . S
C528 C526 1.419 . S
C528 C529 1.363 . S
C528 H531 0.929 . S
C529 C528 1.363 . S
C529 C535 1.428 . S
H530 C526 0.930 . S
H531 C528 0.929 . S
S532 N533 1.613 . S
S532 N534 1.610 . S
N533 S532 1.613 . S
N533 C536 1.350 . S
N534 S532 1.610 . S
N534 C535 1.351 . S
C535 C529 1.428 . S
C535 N534 1.351 . S
C535 C536 1.434 . S
C536 C527 1.429 . S
C536 N533 1.350 . S
C536 C535 1.434 . S
C537 C538 1.369 . S
C537 C539 1.419 . S
C537 H541 0.930 . S
C538 C537 1.369 . S
C538 C547 1.429 . S
C539 C537 1.419 . S
C539 C540 1.363 . S
C539 H542 0.929 . S
C540 C539 1.363 . S
C540 C546 1.428 . S
H541 C537 0.930 . S
H542 C539 0.929 . S
S543 N544 1.613 . S
S543 N545 1.610 . S
N544 S543 1.613 . S
N544 C547 1.350 . S
N545 S543 1.610 . S
N545 C546 1.351 . S
C546 C540 1.428 . S
C546 N545 1.351 . S
C546 C547 1.434 . S
C547 C538 1.429 . S
C547 N544 1.350 . S
C547 C546 1.434 . S
C548 C549 1.369 . S
C548 C550 1.419 . S
C548 H552 0.930 . S
C549 C548 1.369 . S
C549 C558 1.429 1_655 S
C550 C548 1.419 . S
C550 C551 1.363 1_655 S
C550 H553 0.929 . S
C551 C550 1.363 1_455 S
C551 C557 1.428 . S
H552 C548 0.930 . S
H553 C550 0.929 . S
S554 N555 1.613 . S
S554 N556 1.610 . S
N555 S554 1.613 . S
N555 C558 1.350 . S
N556 S554 1.610 . S
N556 C557 1.351 . S
C557 C551 1.428 . S
C557 N556 1.351 . S
C557 C558 1.434 . S
C558 C549 1.429 1_455 S
C558 N555 1.350 . S
C558 C557 1.434 . S
C559 C560 1.369 . S
C559 C561 1.419 . S
C559 H563 0.930 . S
C560 C559 1.369 . S
C560 C569 1.429 . S
C561 C559 1.419 . S
C561 C562 1.363 1_554 S
C561 H564 0.929 1_554 S
C562 C561 1.363 1_556 S
C562 C568 1.428 1_556 S
H563 C559 0.930 . S
H564 C561 0.929 1_556 S
S565 N566 1.613 . S
S565 N567 1.610 . S
N566 S565 1.613 . S
N566 C569 1.350 . S
N567 S565 1.610 . S
N567 C568 1.351 . S
C568 C562 1.428 1_554 S
C568 N567 1.351 . S
C568 C569 1.434 . S
C569 C560 1.429 . S
C569 N566 1.350 . S
C569 C568 1.434 . S
C570 C571 1.369 . S
C570 C572 1.419 . S
C570 H574 0.930 . S
C571 C570 1.369 . S
C571 C580 1.429 . S
C572 C570 1.419 . S
C572 C573 1.363 . S
C572 H575 0.929 . S
C573 C572 1.363 . S
C573 C579 1.428 . S
H574 C570 0.930 . S
H575 C572 0.929 . S
S576 N577 1.613 . S
S576 N578 1.610 . S
N577 S576 1.613 . S
N577 C580 1.350 . S
N578 S576 1.610 . S
N578 C579 1.351 . S
C579 C573 1.428 . S
C579 N578 1.351 . S
C579 C580 1.434 . S
C580 C571 1.429 . S
C580 N577 1.350 . S
C580 C579 1.434 . S
C581 C582 1.369 . S
C581 C583 1.419 . S
C581 H585 0.930 . S
C582 C581 1.369 . S
C582 C591 1.429 . S
C583 C581 1.419 . S
C583 C584 1.363 . S
C583 H586 0.929 . S
C584 C583 1.363 . S
C584 C590 1.428 . S
H585 C581 0.930 . S
H586 C583 0.929 . S
S587 N588 1.613 . S
S587 N589 1.610 . S
N588 S587 1.613 . S
N588 C591 1.350 . S
N589 S587 1.610 . S
N589 C590 1.351 . S
C590 C584 1.428 . S
C590 N589 1.351 . S
C590 C591 1.434 . S
C591 C582 1.429 . S
C591 N588 1.350 . S
C591 C590 1.434 . S
C592 C593 1.369 . S
C592 C594 1.419 . S
C592 H596 0.930 . S
C593 C592 1.369 . S
C593 C602 1.429 . S
C594 C592 1.419 . S
C594 C595 1.363 . S
C594 H597 0.929 . S
C595 C594 1.363 . S
C595 C601 1.428 . S
H596 C592 0.930 . S
H597 C594 0.929 . S
S598 N599 1.613 . S
S598 N600 1.610 . S
N599 S598 1.613 . S
N599 C602 1.350 . S
N600 S598 1.610 . S
N600 C601 1.351 . S
C601 C595 1.428 . S
C601 N600 1.351 . S
C601 C602 1.434 . S
C602 C593 1.429 . S
C602 N599 1.350 . S
C602 C601 1.434 . S
C603 C604 1.369 . S
C603 C605 1.419 . S
C603 H607 0.930 . S
C604 C603 1.369 . S
C604 C613 1.429 . S
C605 C603 1.419 . S
C605 C606 1.363 . S
C605 H608 0.929 . S
C606 C605 1.363 . S
C606 C612 1.428 . S
H607 C603 0.930 . S
H608 C605 0.929 . S
S609 N610 1.613 . S
S609 N611 1.610 . S
N610 S609 1.613 . S
N610 C613 1.350 . S
N611 S609 1.610 . S
N611 C612 1.351 . S
C612 C606 1.428 . S
C612 N611 1.351 . S
C612 C613 1.434 . S
C613 C604 1.429 . S
C613 N610 1.350 . S
C613 C612 1.434 . S
C614 C615 1.369 . S
C614 C616 1.419 . S
C614 H618 0.930 . S
C615 C614 1.369 . S
C615 C624 1.429 1_455 S
C616 C614 1.419 . S
C616 C617 1.363 1_455 S
C616 H619 0.929 . S
C617 C616 1.363 1_655 S
C617 C623 1.428 . S
H618 C614 0.930 . S
H619 C616 0.929 . S
S620 N621 1.613 . S
S620 N622 1.610 . S
N621 S620 1.613 . S
N621 C624 1.350 . S
N622 S620 1.610 . S
N622 C623 1.351 . S
C623 C617 1.428 . S
C623 N622 1.351 . S
C623 C624 1.434 . S
C624 C615 1.429 1_655 S
C624 N621 1.350 . S
C624 C623 1.434 . S
C625 C626 1.369 . S
C625 C627 1.419 . S
C625 H629 0.930 . S
C626 C625 1.369 . S
C626 C635 1.429 . S
C627 C625 1.419 . S
C627 C628 1.363 1_554 S
C627 H630 0.929 1_554 S
C628 C627 1.363 1_556 S
C628 C634 1.428 1_556 S
H629 C625 0.930 . S
H630 C627 0.929 1_556 S
S631 N632 1.613 . S
S631 N633 1.610 . S
N632 S631 1.613 . S
N632 C635 1.350 . S
N633 S631 1.610 . S
N633 C634 1.351 . S
C634 C628 1.428 1_554 S
C634 N633 1.351 . S
C634 C635 1.434 . S
C635 C626 1.429 . S
C635 N632 1.350 . S
C635 C634 1.434 . S
C636 C637 1.369 . S
C636 C638 1.419 . S
C636 H640 0.930 . S
C637 C636 1.369 . S
C637 C646 1.429 . S
C638 C636 1.419 . S
C638 C639 1.363 . S
C638 H641 0.929 . S
C639 C638 1.363 . S
C639 C645 1.428 . S
H640 C636 0.930 . S
H641 C638 0.929 . S
S642 N643 1.613 . S
S642 N644 1.610 . S
N643 S642 1.613 . S
N643 C646 1.350 . S
N644 S642 1.610 . S
N644 C645 1.351 . S
C645 C639 1.428 . S
C645 N644 1.351 . S
C645 C646 1.434 . S
C646 C637 1.429 . S
C646 N643 1.350 . S
C646 C645 1.434 . S
C647 C648 1.369 . S
C647 C649 1.419 . S
C647 H651 0.930 . S
C648 C647 1.369 . S
C648 C657 1.429 . S
C649 C647 1.419 . S
C649 C650 1.363 . S
C649 H652 0.929 . S
C650 C649 1.363 . S
C650 C656 1.428 . S
H651 C647 0.930 . S
H652 C649 0.929 . S
S653 N654 1.613 . S
S653 N655 1.610 . S
N654 S653 1.613 . S
N654 C657 1.350 . S
N655 S653 1.610 . S
N655 C656 1.351 . S
C656 C650 1.428 . S
C656 N655 1.351 . S
C656 C657 1.434 . S
C657 C648 1.429 . S
C657 N654 1.350 . S
C657 C656 1.434 . S
C658 C659 1.369 1_655 S
C658 C660 1.419 . S
C658 H662 0.930 . S
C659 C658 1.369 1_455 S
C659 C668 1.429 . S
C660 C658 1.419 . S
C660 C661 1.363 . S
C660 H663 0.929 . S
C661 C660 1.363 . S
C661 C667 1.428 1_655 S
H662 C658 0.930 . S
H663 C660 0.929 . S
S664 N665 1.613 . S
S664 N666 1.610 . S
N665 S664 1.613 . S
N665 C668 1.350 . S
N666 S664 1.610 . S
N666 C667 1.351 . S
C667 C661 1.428 1_455 S
C667 N666 1.351 . S
C667 C668 1.434 . S
C668 C659 1.429 . S
C668 N665 1.350 . S
C668 C667 1.434 . S
C669 C670 1.369 1_556 S
C669 C671 1.419 . S
C669 H673 0.930 1_556 S
C670 C669 1.369 1_554 S
C670 C679 1.429 1_554 S
C671 C669 1.419 . S
C671 C672 1.363 . S
C671 H674 0.929 . S
C672 C671 1.363 . S
C672 C678 1.428 . S
H673 C669 0.930 1_554 S
H674 C671 0.929 . S
S675 N676 1.613 . S
S675 N677 1.610 . S
N676 S675 1.613 . S
N676 C679 1.350 . S
N677 S675 1.610 . S
N677 C678 1.351 . S
C678 C672 1.428 . S
C678 N677 1.351 . S
C678 C679 1.434 . S
C679 C670 1.429 1_556 S
C679 N676 1.350 . S
C679 C678 1.434 . S
C680 C681 1.369 . S
C680 C682 1.419 . S
C680 H684 0.930 . S
C681 C680 1.369 . S
C681 C690 1.429 . S
C682 C680 1.419 . S
C682 C683 1.363 . S
C682 H685 0.929 . S
C683 C682 1.363 . S
C683 C689 1.428 . S
H684 C680 0.930 . S
H685 C682 0.929 . S
S686 N687 1.613 . S
S686 N688 1.610 . S
N687 S686 1.613 . S
N687 C690 1.350 . S
N688 S686 1.610 . S
N688 C689 1.351 . S
C689 C683 1.428 . S
C689 N688 1.351 . S
C689 C690 1.434 . S
C690 C681 1.429 . S
C690 N687 1.350 . S
C690 C689 1.434 . S
C691 C692 1.369 . S
C691 C693 1.419 . S
C691 H695 0.930 . S
C692 C691 1.369 . S
C692 C701 1.429 . S
C693 C691 1.419 . S
C693 C694 1.363 . S
C693 H696 0.929 . S
C694 C693 1.363 . S
C694 C700 1.428 . S
H695 C691 0.930 . S
H696 C693 0.929 . S
S697 N698 1.613 . S
S697 N699 1.610 . S
N698 S697 1.613 . S
N698 C701 1.350 . S
N699 S697 1.610 . S
N699 C700 1.351 . S
C700 C694 1.428 . S
C700 N699 1.351 . S
C700 C701 1.434 . S
C701 C692 1.429 . S
C701 N698 1.350 . S
C701 C700 1.434 . S
C702 C703 1.369 1_655 S
C702 C704 1.419 . S
C702 H706 0.930 . S
C703 C702 1.369 1_455 S
C703 C712 1.429 . S
C704 C702 1.419 . S
C704 C705 1.363 . S
C704 H707 0.929 . S
C705 C704 1.363 . S
C705 C711 1.428 1_655 S
H706 C702 0.930 . S
H707 C704 0.929 . S
S708 N709 1.613 . S
S708 N710 1.610 . S
N709 S708 1.613 . S
N709 C712 1.350 . S
N710 S708 1.610 . S
N710 C711 1.351 . S
C711 C705 1.428 1_455 S
C711 N710 1.351 . S
C711 C712 1.434 . S
C712 C703 1.429 . S
C712 N709 1.350 . S
C712 C711 1.434 . S
C713 C714 1.369 . S
C713 C715 1.419 . S
C713 H717 0.930 . S
C714 C713 1.369 . S
C714 C723 1.429 . S
C715 C713 1.419 . S
C715 C716 1.363 1_556 S
C715 H718 0.929 . S
C716 C715 1.363 1_554 S
C716 C722 1.428 1_554 S
H717 C713 0.930 . S
H718 C715 0.929 . S
S719 N720 1.613 1_554 S
S719 N721 1.610 . S
N720 S719 1.613 1_556 S
N720 C723 1.350 . S
N721 S719 1.610 . S
N721 C722 1.351 1_554 S
C722 C716 1.428 1_556 S
C722 N721 1.351 1_556 S
C722 C723 1.434 . S
C723 C714 1.429 . S
C723 N720 1.350 . S
C723 C722 1.434 . S
C724 C725 1.369 . S
C724 C726 1.419 . S
C724 H728 0.930 . S
C725 C724 1.369 . S
C725 C734 1.429 . S
C726 C724 1.419 . S
C726 C727 1.363 . S
C726 H729 0.929 . S
C727 C726 1.363 . S
C727 C733 1.428 . S
H728 C724 0.930 . S
H729 C726 0.929 . S
S730 N731 1.613 . S
S730 N732 1.610 . S
N731 S730 1.613 . S
N731 C734 1.350 . S
N732 S730 1.610 . S
N732 C733 1.351 . S
C733 C727 1.428 . S
C733 N732 1.351 . S
C733 C734 1.434 . S
C734 C725 1.429 . S
C734 N731 1.350 . S
C734 C733 1.434 . S
C735 C736 1.369 . S
C735 C737 1.419 . S
C735 H739 0.930 . S
C736 C735 1.369 . S
C736 C745 1.429 . S
C737 C735 1.419 . S
C737 C738 1.363 . S
C737 H740 0.929 . S
C738 C737 1.363 . S
C738 C744 1.428 . S
H739 C735 0.930 . S
H740 C737 0.929 . S
S741 N742 1.613 . S
S741 N743 1.610 . S
N742 S741 1.613 . S
N742 C745 1.350 . S
N743 S741 1.610 . S
N743 C744 1.351 . S
C744 C738 1.428 . S
C744 N743 1.351 . S
C744 C745 1.434 . S
C745 C736 1.429 . S
C745 N742 1.350 . S
C745 C744 1.434 . S
C746 C747 1.369 1_455 S
C746 C748 1.419 . S
C746 H750 0.930 . S
C747 C746 1.369 1_655 S
C747 C756 1.429 . S
C748 C746 1.419 . S
C748 C749 1.363 . S
C748 H751 0.929 . S
C749 C748 1.363 . S
C749 C755 1.428 1_455 S
H750 C746 0.930 . S
H751 C748 0.929 . S
S752 N753 1.613 . S
S752 N754 1.610 . S
N753 S752 1.613 . S
N753 C756 1.350 . S
N754 S752 1.610 . S
N754 C755 1.351 . S
C755 C749 1.428 1_655 S
C755 N754 1.351 . S
C755 C756 1.434 . S
C756 C747 1.429 . S
C756 N753 1.350 . S
C756 C755 1.434 . S
C757 C758 1.369 . S
C757 C759 1.419 . S
C757 H761 0.930 . S
C758 C757 1.369 . S
C758 C767 1.429 . S
C759 C757 1.419 . S
C759 C760 1.363 1_554 S
C759 H762 0.929 . S
C760 C759 1.363 1_556 S
C760 C766 1.428 1_556 S
H761 C757 0.930 . S
H762 C759 0.929 . S
S763 N764 1.613 . S
S763 N765 1.610 . S
N764 S763 1.613 . S
N764 C767 1.350 . S
N765 S763 1.610 . S
N765 C766 1.351 . S
C766 C760 1.428 1_554 S
C766 N765 1.351 . S
C766 C767 1.434 . S
C767 C758 1.429 . S
C767 N764 1.350 . S
C767 C766 1.434 . S
C768 C769 1.369 . S
C768 C770 1.419 1_544 S
C768 H772 0.930 . S
C769 C768 1.369 . S
C769 C778 1.429 1_655 S
C770 C768 1.419 1_566 S
C770 C771 1.363 1_655 S
C770 H773 0.929 . S
C771 C770 1.363 1_455 S
C771 C777 1.428 . S
H772 C768 0.930 . S
H773 C770 0.929 . S
S774 N775 1.613 1_556 S
S774 N776 1.610 1_545 S
N775 S774 1.613 1_554 S
N775 C778 1.350 . S
N776 S774 1.610 1_565 S
N776 C777 1.351 . S
C777 C771 1.428 . S
C777 N776 1.351 . S
C777 C778 1.434 1_566 S
C778 C769 1.429 1_455 S
C778 N775 1.350 . S
C778 C777 1.434 1_544 S
C779 C780 1.369 . S
C779 C781 1.419 . S
C779 H783 0.930 . S
C780 C779 1.369 . S
C780 C789 1.429 . S
C781 C779 1.419 . S
C781 C782 1.363 . S
C781 H784 0.929 . S
C782 C781 1.363 . S
C782 C788 1.428 . S
H783 C779 0.930 . S
H784 C781 0.929 . S
S785 N786 1.613 . S
S785 N787 1.610 . S
N786 S785 1.613 . S
N786 C789 1.350 . S
N787 S785 1.610 . S
N787 C788 1.351 . S
C788 C782 1.428 . S
C788 N787 1.351 . S
C788 C789 1.434 . S
C789 C780 1.429 . S
C789 N786 1.350 . S
C789 C788 1.434 . S
C790 C791 1.369 . S
C790 C792 1.419 1_545 S
C790 H794 0.930 . S
C791 C790 1.369 . S
C791 C800 1.429 . S
C792 C790 1.419 1_565 S
C792 C793 1.363 . S
C792 H795 0.929 . S
C793 C792 1.363 . S
C793 C799 1.428 . S
H794 C790 0.930 . S
H795 C792 0.929 . S
S796 N797 1.613 1_565 S
S796 N798 1.610 . S
N797 S796 1.613 1_545 S
N797 C800 1.350 . S
N798 S796 1.610 . S
N798 C799 1.351 . S
C799 C793 1.428 . S
C799 N798 1.351 . S
C799 C800 1.434 1_565 S
C800 C791 1.429 . S
C800 N797 1.350 . S
C800 C799 1.434 1_545 S
C801 C802 1.369 . S
C801 C803 1.419 . S
C801 H805 0.930 . S
C802 C801 1.369 . S
C802 C811 1.429 . S
C803 C801 1.419 . S
C803 C804 1.363 . S
C803 H806 0.929 . S
C804 C803 1.363 . S
C804 C810 1.428 . S
H805 C801 0.930 . S
H806 C803 0.929 . S
S807 N808 1.613 . S
S807 N809 1.610 . S
N808 S807 1.613 . S
N808 C811 1.350 . S
N809 S807 1.610 . S
N809 C810 1.351 . S
C810 C804 1.428 . S
C810 N809 1.351 . S
C810 C811 1.434 . S
C811 C802 1.429 . S
C811 N808 1.350 . S
C811 C810 1.434 . S
C812 C813 1.369 1_455 S
C812 C814 1.419 1_565 S
C812 H816 0.930 . S
C813 C812 1.369 1_655 S
C813 C822 1.429 . S
C814 C812 1.419 1_545 S
C814 C815 1.363 . S
C814 H817 0.929 . S
C815 C814 1.363 . S
C815 C821 1.428 1_455 S
H816 C812 0.930 . S
H817 C814 0.929 . S
S818 N819 1.613 1_545 S
S818 N820 1.610 . S
N819 S818 1.613 1_565 S
N819 C822 1.350 . S
N820 S818 1.610 . S
N820 C821 1.351 . S
C821 C815 1.428 1_655 S
C821 N820 1.351 . S
C821 C822 1.434 1_545 S
C822 C813 1.429 . S
C822 N819 1.350 . S
C822 C821 1.434 1_565 S
C823 C824 1.369 . S
C823 C825 1.419 . S
C823 H827 0.930 . S
C824 C823 1.369 . S
C824 C833 1.429 . S
C825 C823 1.419 . S
C825 C826 1.363 . S
C825 H828 0.929 . S
C826 C825 1.363 . S
C826 C832 1.428 . S
H827 C823 0.930 . S
H828 C825 0.929 . S
S829 N830 1.613 . S
S829 N831 1.610 . S
N830 S829 1.613 . S
N830 C833 1.350 . S
N831 S829 1.610 . S
N831 C832 1.351 . S
C832 C826 1.428 . S
C832 N831 1.351 . S
C832 C833 1.434 . S
C833 C824 1.429 . S
C833 N830 1.350 . S
C833 C832 1.434 . S
C834 C835 1.369 1_556 S
C834 C836 1.419 1_565 S
C834 H838 0.930 . S
C835 C834 1.369 1_554 S
C835 C844 1.429 . S
C836 C834 1.419 1_545 S
C836 C837 1.363 . S
C836 H839 0.929 . S
C837 C836 1.363 . S
C837 C843 1.428 1_556 S
H838 C834 0.930 . S
H839 C836 0.929 . S
S840 N841 1.613 1_545 S
S840 N842 1.610 . S
N841 S840 1.613 1_565 S
N841 C844 1.350 . S
N842 S840 1.610 . S
N842 C843 1.351 . S
C843 C837 1.428 1_554 S
C843 N842 1.351 . S
C843 C844 1.434 1_545 S
C844 C835 1.429 . S
C844 N841 1.350 . S
C844 C843 1.434 1_565 S
C845 C846 1.369 . S
C845 C847 1.419 . S
C845 H849 0.930 . S
C846 C845 1.369 . S
C846 C855 1.429 . S
C847 C845 1.419 . S
C847 C848 1.363 . S
C847 H850 0.929 . S
C848 C847 1.363 . S
C848 C854 1.428 . S
H849 C845 0.930 . S
H850 C847 0.929 . S
S851 N852 1.613 . S
S851 N853 1.610 . S
N852 S851 1.613 . S
N852 C855 1.350 . S
N853 S851 1.610 . S
N853 C854 1.351 . S
C854 C848 1.428 . S
C854 N853 1.351 . S
C854 C855 1.434 . S
C855 C846 1.429 . S
C855 N852 1.350 . S
C855 C854 1.434 . S
C856 C857 1.369 . S
C856 C858 1.419 . S
C856 H860 0.930 . S
C857 C856 1.369 . S
C857 C866 1.429 . S
C858 C856 1.419 . S
C858 C859 1.363 . S
C858 H861 0.929 . S
C859 C858 1.363 . S
C859 C865 1.428 . S
H860 C856 0.930 . S
H861 C858 0.929 . S
S862 N863 1.613 . S
S862 N864 1.610 . S
N863 S862 1.613 . S
N863 C866 1.350 . S
N864 S862 1.610 . S
N864 C865 1.351 . S
C865 C859 1.428 . S
C865 N864 1.351 . S
C865 C866 1.434 . S
C866 C857 1.429 . S
C866 N863 1.350 . S
C866 C865 1.434 . S
C867 C868 1.369 . S
C867 C869 1.419 . S
C867 H871 0.930 . S
C868 C867 1.369 . S
C868 C877 1.429 . S
C869 C867 1.419 . S
C869 C870 1.363 . S
C869 H872 0.929 . S
C870 C869 1.363 . S
C870 C876 1.428 . S
H871 C867 0.930 . S
H872 C869 0.929 . S
S873 N874 1.613 . S
S873 N875 1.610 . S
N874 S873 1.613 . S
N874 C877 1.350 . S
N875 S873 1.610 . S
N875 C876 1.351 . S
C876 C870 1.428 . S
C876 N875 1.351 . S
C876 C877 1.434 . S
C877 C868 1.429 . S
C877 N874 1.350 . S
C877 C876 1.434 . S
C878 C879 1.369 . S
C878 C880 1.419 . S
C878 H882 0.930 . S
C879 C878 1.369 . S
C879 C888 1.429 . S
C880 C878 1.419 . S
C880 C881 1.363 . S
C880 H883 0.929 . S
C881 C880 1.363 . S
C881 C887 1.428 . S
H882 C878 0.930 . S
H883 C880 0.929 . S
S884 N885 1.613 . S
S884 N886 1.610 . S
N885 S884 1.613 . S
N885 C888 1.350 . S
N886 S884 1.610 . S
N886 C887 1.351 . S
C887 C881 1.428 . S
C887 N886 1.351 . S
C887 C888 1.434 . S
C888 C879 1.429 . S
C888 N885 1.350 . S
C888 C887 1.434 . S
C889 C890 1.369 . S
C889 C891 1.419 . S
C889 H893 0.930 . S
C890 C889 1.369 . S
C890 C899 1.429 . S
C891 C889 1.419 . S
C891 C892 1.363 . S
C891 H894 0.929 . S
C892 C891 1.363 . S
C892 C898 1.428 . S
H893 C889 0.930 . S
H894 C891 0.929 . S
S895 N896 1.613 . S
S895 N897 1.610 . S
N896 S895 1.613 . S
N896 C899 1.350 . S
N897 S895 1.610 . S
N897 C898 1.351 . S
C898 C892 1.428 . S
C898 N897 1.351 . S
C898 C899 1.434 . S
C899 C890 1.429 . S
C899 N896 1.350 . S
C899 C898 1.434 . S
C900 C901 1.369 . S
C900 C902 1.419 . S
C900 H904 0.930 . S
C901 C900 1.369 . S
C901 C910 1.429 . S
C902 C900 1.419 . S
C902 C903 1.363 . S
C902 H905 0.929 . S
C903 C902 1.363 . S
C903 C909 1.428 . S
H904 C900 0.930 . S
H905 C902 0.929 . S
S906 N907 1.613 . S
S906 N908 1.610 . S
N907 S906 1.613 . S
N907 C910 1.350 . S
N908 S906 1.610 . S
N908 C909 1.351 . S
C909 C903 1.428 . S
C909 N908 1.351 . S
C909 C910 1.434 . S
C910 C901 1.429 . S
C910 N907 1.350 . S
C910 C909 1.434 . S
C911 C912 1.369 1_656 S
C911 C913 1.419 . S
C911 H915 0.930 . S
C912 C911 1.369 1_454 S
C912 C921 1.429 . S
C913 C911 1.419 . S
C913 C914 1.363 . S
C913 H916 0.929 . S
C914 C913 1.363 . S
C914 C920 1.428 1_656 S
H915 C911 0.930 . S
H916 C913 0.929 . S
S917 N918 1.613 . S
S917 N919 1.610 . S
N918 S917 1.613 . S
N918 C921 1.350 . S
N919 S917 1.610 . S
N919 C920 1.351 . S
C920 C914 1.428 1_454 S
C920 N919 1.351 . S
C920 C921 1.434 . S
C921 C912 1.429 . S
C921 N918 1.350 . S
C921 C920 1.434 . S
C922 C923 1.369 . S
C922 C924 1.419 . S
C922 H926 0.930 . S
C923 C922 1.369 . S
C923 C932 1.429 1_556 S
C924 C922 1.419 . S
C924 C925 1.363 1_556 S
C924 H927 0.929 . S
C925 C924 1.363 1_554 S
C925 C931 1.428 . S
H926 C922 0.930 . S
H927 C924 0.929 . S
S928 N929 1.613 . S
S928 N930 1.610 . S
N929 S928 1.613 . S
N929 C932 1.350 . S
N930 S928 1.610 . S
N930 C931 1.351 . S
C931 C925 1.428 . S
C931 N930 1.351 . S
C931 C932 1.434 . S
C932 C923 1.429 1_554 S
C932 N929 1.350 . S
C932 C931 1.434 . S
C933 C934 1.369 1_455 S
C933 C935 1.419 . S
C933 H937 0.930 . S
C934 C933 1.369 1_655 S
C934 C943 1.429 . S
C935 C933 1.419 . S
C935 C936 1.363 . S
C935 H938 0.929 . S
C936 C935 1.363 . S
C936 C942 1.428 1_455 S
H937 C933 0.930 . S
H938 C935 0.929 . S
S939 N940 1.613 . S
S939 N941 1.610 . S
N940 S939 1.613 . S
N940 C943 1.350 . S
N941 S939 1.610 . S
N941 C942 1.351 . S
C942 C936 1.428 1_655 S
C942 N941 1.351 . S
C942 C943 1.434 . S
C943 C934 1.429 . S
C943 N940 1.350 . S
C943 C942 1.434 . S
C944 C945 1.369 . S
C944 C946 1.419 . S
C944 H948 0.930 . S
C945 C944 1.369 . S
C945 C954 1.429 . S
C946 C944 1.419 . S
C946 C947 1.363 . S
C946 H949 0.929 . S
C947 C946 1.363 . S
C947 C953 1.428 . S
H948 C944 0.930 . S
H949 C946 0.929 . S
S950 N951 1.613 . S
S950 N952 1.610 . S
N951 S950 1.613 . S
N951 C954 1.350 . S
N952 S950 1.610 . S
N952 C953 1.351 . S
C953 C947 1.428 . S
C953 N952 1.351 . S
C953 C954 1.434 . S
C954 C945 1.429 . S
C954 N951 1.350 . S
C954 C953 1.434 . S
C955 C956 1.369 . S
C955 C957 1.419 . S
C955 H959 0.930 . S
C956 C955 1.369 . S
C956 C965 1.429 . S
C957 C955 1.419 . S
C957 C958 1.363 . S
C957 H960 0.929 . S
C958 C957 1.363 . S
C958 C964 1.428 . S
H959 C955 0.930 . S
H960 C957 0.929 . S
S961 N962 1.613 . S
S961 N963 1.610 . S
N962 S961 1.613 . S
N962 C965 1.350 . S
N963 S961 1.610 . S
N963 C964 1.351 . S
C964 C958 1.428 . S
C964 N963 1.351 . S
C964 C965 1.434 . S
C965 C956 1.429 . S
C965 N962 1.350 . S
C965 C964 1.434 . S
C966 C967 1.369 . S
C966 C968 1.419 . S
C966 H970 0.930 . S
C967 C966 1.369 . S
C967 C976 1.429 . S
C968 C966 1.419 . S
C968 C969 1.363 . S
C968 H971 0.929 . S
C969 C968 1.363 . S
C969 C975 1.428 . S
H970 C966 0.930 . S
H971 C968 0.929 . S
S972 N973 1.613 . S
S972 N974 1.610 . S
N973 S972 1.613 . S
N973 C976 1.350 . S
N974 S972 1.610 . S
N974 C975 1.351 . S
C975 C969 1.428 . S
C975 N974 1.351 . S
C975 C976 1.434 . S
C976 C967 1.429 . S
C976 N973 1.350 . S
C976 C975 1.434 . S
C977 C978 1.369 . S
C977 C979 1.419 . S
C977 H981 0.930 . S
C978 C977 1.369 . S
C978 C987 1.429 . S
C979 C977 1.419 . S
C979 C980 1.363 . S
C979 H982 0.929 . S
C980 C979 1.363 . S
C980 C986 1.428 . S
H981 C977 0.930 . S
H982 C979 0.929 . S
S983 N984 1.613 . S
S983 N985 1.610 . S
N984 S983 1.613 . S
N984 C987 1.350 . S
N985 S983 1.610 . S
N985 C986 1.351 . S
C986 C980 1.428 . S
C986 N985 1.351 . S
C986 C987 1.434 . S
C987 C978 1.429 . S
C987 N984 1.350 . S
C987 C986 1.434 . S
C988 C989 1.369 . S
C988 C990 1.419 . S
C988 H992 0.930 . S
C989 C988 1.369 . S
C989 C998 1.429 . S
C990 C988 1.419 . S
C990 C991 1.363 . S
C990 H993 0.929 . S
C991 C990 1.363 . S
C991 C997 1.428 . S
H992 C988 0.930 . S
H993 C990 0.929 . S
S994 N995 1.613 . S
S994 N996 1.610 . S
N995 S994 1.613 . S
N995 C998 1.350 . S
N996 S994 1.610 . S
N996 C997 1.351 . S
C997 C991 1.428 . S
C997 N996 1.351 . S
C997 C998 1.434 . S
C998 C989 1.429 . S
C998 N995 1.350 . S
C998 C997 1.434 . S
C999 C1000 1.369 . S
C999 C1001 1.419 . S
C999 H1003 0.930 . S
C1000 C999 1.369 . S
C1000 C1009 1.429 . S
C1001 C999 1.419 . S
C1001 C1002 1.363 . S
C1001 H1004 0.929 . S
C1002 C1001 1.363 . S
C1002 C1008 1.428 . S
H1003 C999 0.930 . S
H1004 C1001 0.929 . S
S1005 N1006 1.613 . S
S1005 N1007 1.610 . S
N1006 S1005 1.613 . S
N1006 C1009 1.350 . S
N1007 S1005 1.610 . S
N1007 C1008 1.351 . S
C1008 C1002 1.428 . S
C1008 N1007 1.351 . S
C1008 C1009 1.434 . S
C1009 C1000 1.429 . S
C1009 N1006 1.350 . S
C1009 C1008 1.434 . S
C1010 C1011 1.369 . S
C1010 C1012 1.419 . S
C1010 H1014 0.930 . S
C1011 C1010 1.369 . S
C1011 C1020 1.429 . S
C1012 C1010 1.419 . S
C1012 C1013 1.363 . S
C1012 H1015 0.929 . S
C1013 C1012 1.363 . S
C1013 C1019 1.428 . S
H1014 C1010 0.930 . S
H1015 C1012 0.929 . S
S1016 N1017 1.613 . S
S1016 N1018 1.610 . S
N1017 S1016 1.613 . S
N1017 C1020 1.350 . S
N1018 S1016 1.610 . S
N1018 C1019 1.351 . S
C1019 C1013 1.428 . S
C1019 N1018 1.351 . S
C1019 C1020 1.434 . S
C1020 C1011 1.429 . S
C1020 N1017 1.350 . S
C1020 C1019 1.434 . S
C1021 C1022 1.369 . S
C1021 C1023 1.419 . S
C1021 H1025 0.930 . S
C1022 C1021 1.369 . S
C1022 C1031 1.429 . S
C1023 C1021 1.419 . S
C1023 C1024 1.363 . S
C1023 H1026 0.929 . S
C1024 C1023 1.363 . S
C1024 C1030 1.428 . S
H1025 C1021 0.930 . S
H1026 C1023 0.929 . S
S1027 N1028 1.613 . S
S1027 N1029 1.610 . S
N1028 S1027 1.613 . S
N1028 C1031 1.350 . S
N1029 S1027 1.610 . S
N1029 C1030 1.351 . S
C1030 C1024 1.428 . S
C1030 N1029 1.351 . S
C1030 C1031 1.434 . S
C1031 C1022 1.429 . S
C1031 N1028 1.350 . S
C1031 C1030 1.434 . S
C1032 C1033 1.369 . S
C1032 C1034 1.419 . S
C1032 H1036 0.930 . S
C1033 C1032 1.369 . S
C1033 C1042 1.429 . S
C1034 C1032 1.419 . S
C1034 C1035 1.363 . S
C1034 H1037 0.929 . S
C1035 C1034 1.363 . S
C1035 C1041 1.428 . S
H1036 C1032 0.930 . S
H1037 C1034 0.929 . S
S1038 N1039 1.613 . S
S1038 N1040 1.610 . S
N1039 S1038 1.613 . S
N1039 C1042 1.350 . S
N1040 S1038 1.610 . S
N1040 C1041 1.351 . S
C1041 C1035 1.428 . S
C1041 N1040 1.351 . S
C1041 C1042 1.434 . S
C1042 C1033 1.429 . S
C1042 N1039 1.350 . S
C1042 C1041 1.434 . S
C1043 C1044 1.369 . S
C1043 C1045 1.419 . S
C1043 H1047 0.930 . S
C1044 C1043 1.369 . S
C1044 C1053 1.429 . S
C1045 C1043 1.419 . S
C1045 C1046 1.363 . S
C1045 H1048 0.929 . S
C1046 C1045 1.363 . S
C1046 C1052 1.428 . S
H1047 C1043 0.930 . S
H1048 C1045 0.929 . S
S1049 N1050 1.613 . S
S1049 N1051 1.610 . S
N1050 S1049 1.613 . S
N1050 C1053 1.350 . S
N1051 S1049 1.610 . S
N1051 C1052 1.351 . S
C1052 C1046 1.428 . S
C1052 N1051 1.351 . S
C1052 C1053 1.434 . S
C1053 C1044 1.429 . S
C1053 N1050 1.350 . S
C1053 C1052 1.434 . S
C1054 C1055 1.369 . S
C1054 C1056 1.419 . S
C1054 H1058 0.930 . S
C1055 C1054 1.369 . S
C1055 C1064 1.429 . S
C1056 C1054 1.419 . S
C1056 C1057 1.363 . S
C1056 H1059 0.929 . S
C1057 C1056 1.363 . S
C1057 C1063 1.428 . S
H1058 C1054 0.930 . S
H1059 C1056 0.929 . S
S1060 N1061 1.613 1_556 S
S1060 N1062 1.610 1_556 S
N1061 S1060 1.613 1_554 S
N1061 C1064 1.350 . S
N1062 S1060 1.610 1_554 S
N1062 C1063 1.351 . S
C1063 C1057 1.428 . S
C1063 N1062 1.351 . S
C1063 C1064 1.434 . S
C1064 C1055 1.429 . S
C1064 N1061 1.350 . S
C1064 C1063 1.434 . S
C1065 C1066 1.369 . S
C1065 C1067 1.419 . S
C1065 H1069 0.930 . S
C1066 C1065 1.369 . S
C1066 C1075 1.429 . S
C1067 C1065 1.419 . S
C1067 C1068 1.363 . S
C1067 H1070 0.929 . S
C1068 C1067 1.363 . S
C1068 C1074 1.428 . S
H1069 C1065 0.930 . S
H1070 C1067 0.929 . S
S1071 N1072 1.613 . S
S1071 N1073 1.610 . S
N1072 S1071 1.613 . S
N1072 C1075 1.350 . S
N1073 S1071 1.610 . S
N1073 C1074 1.351 . S
C1074 C1068 1.428 . S
C1074 N1073 1.351 . S
C1074 C1075 1.434 . S
C1075 C1066 1.429 . S
C1075 N1072 1.350 . S
C1075 C1074 1.434 . S
C1076 C1077 1.369 . S
C1076 C1078 1.419 . S
C1076 H1080 0.930 . S
C1077 C1076 1.369 . S
C1077 C1086 1.429 . S
C1078 C1076 1.419 . S
C1078 C1079 1.363 . S
C1078 H1081 0.929 . S
C1079 C1078 1.363 . S
C1079 C1085 1.428 . S
H1080 C1076 0.930 . S
H1081 C1078 0.929 . S
S1082 N1083 1.613 . S
S1082 N1084 1.610 . S
N1083 S1082 1.613 . S
N1083 C1086 1.350 . S
N1084 S1082 1.610 . S
N1084 C1085 1.351 . S
C1085 C1079 1.428 . S
C1085 N1084 1.351 . S
C1085 C1086 1.434 . S
C1086 C1077 1.429 . S
C1086 N1083 1.350 . S
C1086 C1085 1.434 . S
C1087 C1088 1.369 . S
C1087 C1089 1.419 . S
C1087 H1091 0.930 . S
C1088 C1087 1.369 . S
C1088 C1097 1.429 . S
C1089 C1087 1.419 . S
C1089 C1090 1.363 . S
C1089 H1092 0.929 . S
C1090 C1089 1.363 . S
C1090 C1096 1.428 . S
H1091 C1087 0.930 . S
H1092 C1089 0.929 . S
S1093 N1094 1.613 . S
S1093 N1095 1.610 . S
N1094 S1093 1.613 . S
N1094 C1097 1.350 . S
N1095 S1093 1.610 . S
N1095 C1096 1.351 . S
C1096 C1090 1.428 . S
C1096 N1095 1.351 . S
C1096 C1097 1.434 . S
C1097 C1088 1.429 . S
C1097 N1094 1.350 . S
C1097 C1096 1.434 . S
C1098 C1099 1.369 . S
C1098 C1100 1.419 . S
C1098 H1102 0.930 . S
C1099 C1098 1.369 . S
C1099 C1108 1.429 . S
C1100 C1098 1.419 . S
C1100 C1101 1.363 . S
C1100 H1103 0.929 . S
C1101 C1100 1.363 . S
C1101 C1107 1.428 . S
H1102 C1098 0.930 . S
H1103 C1100 0.929 . S
S1104 N1105 1.613 . S
S1104 N1106 1.610 . S
N1105 S1104 1.613 . S
N1105 C1108 1.350 . S
N1106 S1104 1.610 . S
N1106 C1107 1.351 . S
C1107 C1101 1.428 . S
C1107 N1106 1.351 . S
C1107 C1108 1.434 . S
C1108 C1099 1.429 . S
C1108 N1105 1.350 . S
C1108 C1107 1.434 . S
C1109 C1110 1.369 . S
C1109 C1111 1.419 . S
C1109 H1113 0.930 . S
C1110 C1109 1.369 . S
C1110 C1119 1.429 . S
C1111 C1109 1.419 . S
C1111 C1112 1.363 . S
C1111 H1114 0.929 . S
C1112 C1111 1.363 . S
C1112 C1118 1.428 . S
H1113 C1109 0.930 . S
H1114 C1111 0.929 . S
S1115 N1116 1.613 . S
S1115 N1117 1.610 . S
N1116 S1115 1.613 . S
N1116 C1119 1.350 . S
N1117 S1115 1.610 . S
N1117 C1118 1.351 . S
C1118 C1112 1.428 . S
C1118 N1117 1.351 . S
C1118 C1119 1.434 . S
C1119 C1110 1.429 . S
C1119 N1116 1.350 . S
C1119 C1118 1.434 . S
C417 C157 1.396 . S
C419 C5 1.396 . S
C428 C387 1.448 . S
C430 C16 1.435 . S
C439 C183 1.398 . S
C441 C31 1.394 . S
C450 C413 1.448 . S
C452 C42 1.435 . S
C461 C105 1.403 . S
C463 C57 1.391 . S
C472 C68 1.434 . S
C474 C335 1.449 . S
C483 C83 1.399 . S
C485 C131 1.396 . S
C494 C361 1.449 . S
C496 C94 1.434 . S
C505 C62 1.399 . S
C507 C107 1.394 . S
C516 C274 1.450 . S
C518 C122 1.433 . S
C527 C88 1.405 . S
C529 C133 1.390 . S
C538 C300 1.448 . S
C540 C148 1.435 . S
C549 C159 1.389 . S
C551 C10 1.404 . S
C560 C174 1.430 . S
C562 C222 1.451 . S
C571 C36 1.405 . S
C573 C185 1.390 . S
C582 C200 1.430 . S
C584 C248 1.451 . S
C593 C365 1.402 . S
C595 C213 1.395 . S
C604 C179 1.448 . S
C606 C224 1.436 . S
C615 C391 1.402 . S
C617 C239 1.394 . S
C626 C250 1.433 . S
C628 C205 1.450 . S
C637 C265 1.394 . S
C639 C313 1.398 . S
C648 C276 1.433 . S
C650 C127 1.450 . S
C659 C339 1.405 . S
C661 C291 1.391 . S
C670 C153 1.451 . S
C672 C302 1.432 . S
C681 C270 1.403 . S
C683 C315 1.393 . S
C692 C330 1.432 . S
C694 C66 1.449 . S
C703 C341 1.397 . S
C705 C296 1.399 . S
C714 C356 1.435 . S
C716 C92 1.448 . S
C725 C218 1.404 . S
C727 C367 1.392 . S
C736 C14 1.451 . S
C738 C382 1.432 . S
C747 C244 1.402 . S
C749 C393 1.392 . S
C758 C408 1.436 . S
C760 C40 1.449 . S
C769 C1 2.047 . S
C771 C114 2.053 . S
C780 C23 1.930 . S
C782 C326 1.928 . S
C791 C140 2.054 . S
C793 C27 2.048 . S
C802 C49 1.933 . S
C804 C352 1.925 . S
C813 C53 2.053 . S
C815 C166 2.048 . S
C824 C378 1.931 . S
C826 C75 1.927 . S
C835 C192 2.050 . S
C837 C79 2.051 . S
C846 C101 1.923 . S
C848 C404 1.932 . S
C857 C118 1.923 . S
C859 C231 1.932 . S
C868 C144 1.934 . S
C870 C257 1.925 . S
C879 C170 1.934 . S
C881 C283 1.925 . S
C890 C309 1.923 . S
C892 C196 1.933 . S
C901 C209 2.047 . S
C903 C322 2.053 . S
C912 C235 2.052 . S
C914 C348 2.049 . S
C923 C261 2.053 . S
C925 C374 2.048 . S
C934 C400 2.053 . S
C936 C287 2.048 . S
C945 C3 1.873 . S
C947 C96 1.810 . S
C956 C18 1.811 . S
C958 C55 1.873 . S
C967 C70 1.810 . S
C969 C29 1.872 . S
C978 C81 1.874 . S
C980 C44 1.808 . S
C989 C198 1.803 . S
C991 C109 1.872 . S
C1000 C161 1.871 . S
C1002 C120 1.806 . S
C1011 C172 1.807 . S
C1013 C135 1.874 . S
C1022 C187 1.874 . S
C1024 C146 1.809 . S
C1033 C211 1.873 . S
C1035 C304 1.804 . S
C1044 C263 1.872 . S
C1046 C226 1.809 . S
C1055 C278 1.807 . S
C1057 C237 1.874 . S
C1066 C289 1.871 . S
C1068 C252 1.808 . S
C1077 C406 1.810 . S
C1079 C317 1.873 . S
C1088 C328 1.807 . S
C1090 C369 1.874 . S
C1099 C343 1.873 . S
C1101 C380 1.810 . S
C1110 C395 1.874 . S
C1112 C354 1.807 . S
