# Generated by pormake.
# Topology sst, (4)-cn, num edge types: 1
# Building blocks:
#     Node 0, Type 0, BuildingBlock: ESEHIV_clean_sbu_0, # of connection points: 4
#     Node 1, Type 0, BuildingBlock: ESEHIV_clean_sbu_0, # of connection points: 4
#     Node 2, Type 0, BuildingBlock: ESEHIV_clean_sbu_0, # of connection points: 4
#     Node 3, Type 0, BuildingBlock: ESEHIV_clean_sbu_0, # of connection points: 4
#     Node 4, Type 0, BuildingBlock: ESEHIV_clean_sbu_0, # of connection points: 4
#     Node 5, Type 0, BuildingBlock: ESEHIV_clean_sbu_0, # of connection points: 4
#     Node 6, Type 0, BuildingBlock: ESEHIV_clean_sbu_0, # of connection points: 4
#     Node 7, Type 0, BuildingBlock: ESEHIV_clean_sbu_0, # of connection points: 4
#     Node 8, Type 0, BuildingBlock: ESEHIV_clean_sbu_0, # of connection points: 4
#     Node 9, Type 0, BuildingBlock: ESEHIV_clean_sbu_0, # of connection points: 4
#     Node 10, Type 0, BuildingBlock: ESEHIV_clean_sbu_0, # of connection points: 4
#     Node 11, Type 0, BuildingBlock: ESEHIV_clean_sbu_0, # of connection points: 4
#     Node 12, Type 0, BuildingBlock: ESEHIV_clean_sbu_0, # of connection points: 4
#     Node 13, Type 0, BuildingBlock: ESEHIV_clean_sbu_0, # of connection points: 4
#     Node 14, Type 0, BuildingBlock: ESEHIV_clean_sbu_0, # of connection points: 4
#     Node 15, Type 0, BuildingBlock: ESEHIV_clean_sbu_0, # of connection points: 4
#     Node 16, Type 0, BuildingBlock: ESEHIV_clean_sbu_0, # of connection points: 4
#     Node 17, Type 0, BuildingBlock: ESEHIV_clean_sbu_0, # of connection points: 4
#     Node 18, Type 0, BuildingBlock: ESEHIV_clean_sbu_0, # of connection points: 4
#     Node 19, Type 0, BuildingBlock: ESEHIV_clean_sbu_0, # of connection points: 4
#     Node 20, Type 0, BuildingBlock: ESEHIV_clean_sbu_0, # of connection points: 4
#     Node 21, Type 0, BuildingBlock: ESEHIV_clean_sbu_0, # of connection points: 4
#     Node 22, Type 0, BuildingBlock: ESEHIV_clean_sbu_0, # of connection points: 4
#     Node 23, Type 0, BuildingBlock: ESEHIV_clean_sbu_0, # of connection points: 4
#     Node 24, Type 0, BuildingBlock: ESEHIV_clean_sbu_0, # of connection points: 4
#     Node 25, Type 0, BuildingBlock: ESEHIV_clean_sbu_0, # of connection points: 4
#     Node 26, Type 0, BuildingBlock: ESEHIV_clean_sbu_0, # of connection points: 4
#     Node 27, Type 0, BuildingBlock: ESEHIV_clean_sbu_0, # of connection points: 4
#     Node 28, Type 0, BuildingBlock: ESEHIV_clean_sbu_0, # of connection points: 4
#     Node 29, Type 0, BuildingBlock: ESEHIV_clean_sbu_0, # of connection points: 4
#     Node 30, Type 0, BuildingBlock: ESEHIV_clean_sbu_0, # of connection points: 4
#     Node 31, Type 0, BuildingBlock: ESEHIV_clean_sbu_0, # of connection points: 4
#     Node 32, Type 0, BuildingBlock: ESEHIV_clean_sbu_0, # of connection points: 4
#     Node 33, Type 0, BuildingBlock: ESEHIV_clean_sbu_0, # of connection points: 4
#     Node 34, Type 0, BuildingBlock: ESEHIV_clean_sbu_0, # of connection points: 4
#     Node 35, Type 0, BuildingBlock: ESEHIV_clean_sbu_0, # of connection points: 4
#     Node 36, Type 0, BuildingBlock: ESEHIV_clean_sbu_0, # of connection points: 4
#     Node 37, Type 0, BuildingBlock: ESEHIV_clean_sbu_0, # of connection points: 4
#     Node 38, Type 0, BuildingBlock: ESEHIV_clean_sbu_0, # of connection points: 4
#     Node 39, Type 0, BuildingBlock: ESEHIV_clean_sbu_0, # of connection points: 4
#     Node 40, Type 0, BuildingBlock: ESEHIV_clean_sbu_0, # of connection points: 4
#     Node 41, Type 0, BuildingBlock: ESEHIV_clean_sbu_0, # of connection points: 4
#     Node 42, Type 0, BuildingBlock: ESEHIV_clean_sbu_0, # of connection points: 4
#     Node 43, Type 0, BuildingBlock: ESEHIV_clean_sbu_0, # of connection points: 4
#     Node 44, Type 0, BuildingBlock: ESEHIV_clean_sbu_0, # of connection points: 4
#     Node 45, Type 0, BuildingBlock: ESEHIV_clean_sbu_0, # of connection points: 4
#     Node 46, Type 0, BuildingBlock: ESEHIV_clean_sbu_0, # of connection points: 4
#     Node 47, Type 0, BuildingBlock: ESEHIV_clean_sbu_0, # of connection points: 4
#     Edge 48, Type (0, 0), BuildingBlock: EZIPEK_clean_linker_0, # of connection points: 2
#     Edge 49, Type (0, 0), BuildingBlock: EZIPEK_clean_linker_0, # of connection points: 2
#     Edge 50, Type (0, 0), BuildingBlock: EZIPEK_clean_linker_0, # of connection points: 2
#     Edge 51, Type (0, 0), BuildingBlock: EZIPEK_clean_linker_0, # of connection points: 2
#     Edge 52, Type (0, 0), BuildingBlock: EZIPEK_clean_linker_0, # of connection points: 2
#     Edge 53, Type (0, 0), BuildingBlock: EZIPEK_clean_linker_0, # of connection points: 2
#     Edge 54, Type (0, 0), BuildingBlock: EZIPEK_clean_linker_0, # of connection points: 2
#     Edge 55, Type (0, 0), BuildingBlock: EZIPEK_clean_linker_0, # of connection points: 2
#     Edge 56, Type (0, 0), BuildingBlock: EZIPEK_clean_linker_0, # of connection points: 2
#     Edge 57, Type (0, 0), BuildingBlock: EZIPEK_clean_linker_0, # of connection points: 2
#     Edge 58, Type (0, 0), BuildingBlock: EZIPEK_clean_linker_0, # of connection points: 2
#     Edge 59, Type (0, 0), BuildingBlock: EZIPEK_clean_linker_0, # of connection points: 2
#     Edge 60, Type (0, 0), BuildingBlock: EZIPEK_clean_linker_0, # of connection points: 2
#     Edge 61, Type (0, 0), BuildingBlock: EZIPEK_clean_linker_0, # of connection points: 2
#     Edge 62, Type (0, 0), BuildingBlock: EZIPEK_clean_linker_0, # of connection points: 2
#     Edge 63, Type (0, 0), BuildingBlock: EZIPEK_clean_linker_0, # of connection points: 2
#     Edge 64, Type (0, 0), BuildingBlock: EZIPEK_clean_linker_0, # of connection points: 2
#     Edge 65, Type (0, 0), BuildingBlock: EZIPEK_clean_linker_0, # of connection points: 2
#     Edge 66, Type (0, 0), BuildingBlock: EZIPEK_clean_linker_0, # of connection points: 2
#     Edge 67, Type (0, 0), BuildingBlock: EZIPEK_clean_linker_0, # of connection points: 2
#     Edge 68, Type (0, 0), BuildingBlock: EZIPEK_clean_linker_0, # of connection points: 2
#     Edge 69, Type (0, 0), BuildingBlock: EZIPEK_clean_linker_0, # of connection points: 2
#     Edge 70, Type (0, 0), BuildingBlock: EZIPEK_clean_linker_0, # of connection points: 2
#     Edge 71, Type (0, 0), BuildingBlock: EZIPEK_clean_linker_0, # of connection points: 2
#     Edge 72, Type (0, 0), BuildingBlock: EZIPEK_clean_linker_0, # of connection points: 2
#     Edge 73, Type (0, 0), BuildingBlock: EZIPEK_clean_linker_0, # of connection points: 2
#     Edge 74, Type (0, 0), BuildingBlock: EZIPEK_clean_linker_0, # of connection points: 2
#     Edge 75, Type (0, 0), BuildingBlock: EZIPEK_clean_linker_0, # of connection points: 2
#     Edge 76, Type (0, 0), BuildingBlock: EZIPEK_clean_linker_0, # of connection points: 2
#     Edge 77, Type (0, 0), BuildingBlock: EZIPEK_clean_linker_0, # of connection points: 2
#     Edge 78, Type (0, 0), BuildingBlock: EZIPEK_clean_linker_0, # of connection points: 2
#     Edge 79, Type (0, 0), BuildingBlock: EZIPEK_clean_linker_0, # of connection points: 2
#     Edge 80, Type (0, 0), BuildingBlock: EZIPEK_clean_linker_0, # of connection points: 2
#     Edge 81, Type (0, 0), BuildingBlock: EZIPEK_clean_linker_0, # of connection points: 2
#     Edge 82, Type (0, 0), BuildingBlock: EZIPEK_clean_linker_0, # of connection points: 2
#     Edge 83, Type (0, 0), BuildingBlock: EZIPEK_clean_linker_0, # of connection points: 2
#     Edge 84, Type (0, 0), BuildingBlock: EZIPEK_clean_linker_0, # of connection points: 2
#     Edge 85, Type (0, 0), BuildingBlock: EZIPEK_clean_linker_0, # of connection points: 2
#     Edge 86, Type (0, 0), BuildingBlock: EZIPEK_clean_linker_0, # of connection points: 2
#     Edge 87, Type (0, 0), BuildingBlock: EZIPEK_clean_linker_0, # of connection points: 2
#     Edge 88, Type (0, 0), BuildingBlock: EZIPEK_clean_linker_0, # of connection points: 2
#     Edge 89, Type (0, 0), BuildingBlock: EZIPEK_clean_linker_0, # of connection points: 2
#     Edge 90, Type (0, 0), BuildingBlock: EZIPEK_clean_linker_0, # of connection points: 2
#     Edge 91, Type (0, 0), BuildingBlock: EZIPEK_clean_linker_0, # of connection points: 2
#     Edge 92, Type (0, 0), BuildingBlock: EZIPEK_clean_linker_0, # of connection points: 2
#     Edge 93, Type (0, 0), BuildingBlock: EZIPEK_clean_linker_0, # of connection points: 2
#     Edge 94, Type (0, 0), BuildingBlock: EZIPEK_clean_linker_0, # of connection points: 2
#     Edge 95, Type (0, 0), BuildingBlock: EZIPEK_clean_linker_0, # of connection points: 2
#     Edge 96, Type (0, 0), BuildingBlock: EZIPEK_clean_linker_0, # of connection points: 2
#     Edge 97, Type (0, 0), BuildingBlock: EZIPEK_clean_linker_0, # of connection points: 2
#     Edge 98, Type (0, 0), BuildingBlock: EZIPEK_clean_linker_0, # of connection points: 2
#     Edge 99, Type (0, 0), BuildingBlock: EZIPEK_clean_linker_0, # of connection points: 2
#     Edge 100, Type (0, 0), BuildingBlock: EZIPEK_clean_linker_0, # of connection points: 2
#     Edge 101, Type (0, 0), BuildingBlock: EZIPEK_clean_linker_0, # of connection points: 2
#     Edge 102, Type (0, 0), BuildingBlock: EZIPEK_clean_linker_0, # of connection points: 2
#     Edge 103, Type (0, 0), BuildingBlock: EZIPEK_clean_linker_0, # of connection points: 2
#     Edge 104, Type (0, 0), BuildingBlock: EZIPEK_clean_linker_0, # of connection points: 2
#     Edge 105, Type (0, 0), BuildingBlock: EZIPEK_clean_linker_0, # of connection points: 2
#     Edge 106, Type (0, 0), BuildingBlock: EZIPEK_clean_linker_0, # of connection points: 2
#     Edge 107, Type (0, 0), BuildingBlock: EZIPEK_clean_linker_0, # of connection points: 2
#     Edge 108, Type (0, 0), BuildingBlock: EZIPEK_clean_linker_0, # of connection points: 2
#     Edge 109, Type (0, 0), BuildingBlock: EZIPEK_clean_linker_0, # of connection points: 2
#     Edge 110, Type (0, 0), BuildingBlock: EZIPEK_clean_linker_0, # of connection points: 2
#     Edge 111, Type (0, 0), BuildingBlock: EZIPEK_clean_linker_0, # of connection points: 2
#     Edge 112, Type (0, 0), BuildingBlock: EZIPEK_clean_linker_0, # of connection points: 2
#     Edge 113, Type (0, 0), BuildingBlock: EZIPEK_clean_linker_0, # of connection points: 2
#     Edge 114, Type (0, 0), BuildingBlock: EZIPEK_clean_linker_0, # of connection points: 2
#     Edge 115, Type (0, 0), BuildingBlock: EZIPEK_clean_linker_0, # of connection points: 2
#     Edge 116, Type (0, 0), BuildingBlock: EZIPEK_clean_linker_0, # of connection points: 2
#     Edge 117, Type (0, 0), BuildingBlock: EZIPEK_clean_linker_0, # of connection points: 2
#     Edge 118, Type (0, 0), BuildingBlock: EZIPEK_clean_linker_0, # of connection points: 2
#     Edge 119, Type (0, 0), BuildingBlock: EZIPEK_clean_linker_0, # of connection points: 2
#     Edge 120, Type (0, 0), BuildingBlock: EZIPEK_clean_linker_0, # of connection points: 2
#     Edge 121, Type (0, 0), BuildingBlock: EZIPEK_clean_linker_0, # of connection points: 2
#     Edge 122, Type (0, 0), BuildingBlock: EZIPEK_clean_linker_0, # of connection points: 2
#     Edge 123, Type (0, 0), BuildingBlock: EZIPEK_clean_linker_0, # of connection points: 2
#     Edge 124, Type (0, 0), BuildingBlock: EZIPEK_clean_linker_0, # of connection points: 2
#     Edge 125, Type (0, 0), BuildingBlock: EZIPEK_clean_linker_0, # of connection points: 2
#     Edge 126, Type (0, 0), BuildingBlock: EZIPEK_clean_linker_0, # of connection points: 2
#     Edge 127, Type (0, 0), BuildingBlock: EZIPEK_clean_linker_0, # of connection points: 2
#     Edge 128, Type (0, 0), BuildingBlock: EZIPEK_clean_linker_0, # of connection points: 2
#     Edge 129, Type (0, 0), BuildingBlock: EZIPEK_clean_linker_0, # of connection points: 2
#     Edge 130, Type (0, 0), BuildingBlock: EZIPEK_clean_linker_0, # of connection points: 2
#     Edge 131, Type (0, 0), BuildingBlock: EZIPEK_clean_linker_0, # of connection points: 2
#     Edge 132, Type (0, 0), BuildingBlock: EZIPEK_clean_linker_0, # of connection points: 2
#     Edge 133, Type (0, 0), BuildingBlock: EZIPEK_clean_linker_0, # of connection points: 2
#     Edge 134, Type (0, 0), BuildingBlock: EZIPEK_clean_linker_0, # of connection points: 2
#     Edge 135, Type (0, 0), BuildingBlock: EZIPEK_clean_linker_0, # of connection points: 2
#     Edge 136, Type (0, 0), BuildingBlock: EZIPEK_clean_linker_0, # of connection points: 2
#     Edge 137, Type (0, 0), BuildingBlock: EZIPEK_clean_linker_0, # of connection points: 2
#     Edge 138, Type (0, 0), BuildingBlock: EZIPEK_clean_linker_0, # of connection points: 2
#     Edge 139, Type (0, 0), BuildingBlock: EZIPEK_clean_linker_0, # of connection points: 2
#     Edge 140, Type (0, 0), BuildingBlock: EZIPEK_clean_linker_0, # of connection points: 2
#     Edge 141, Type (0, 0), BuildingBlock: EZIPEK_clean_linker_0, # of connection points: 2
#     Edge 142, Type (0, 0), BuildingBlock: EZIPEK_clean_linker_0, # of connection points: 2
#     Edge 143, Type (0, 0), BuildingBlock: EZIPEK_clean_linker_0, # of connection points: 2
# Relax obj value: 0.001
# Max RMSD: 0.134
# Mean RMSD: 0.095
data_MOF--net-sst--node1-ESEHIV_clean_sbu_0--edge1-EZIPEK_clean_linker_0
_symmetry_space_group_name_H-M    P1
_symmetry_Int_Tables_number       1
_symmetry_cell_setting            triclinic
loop_
_symmetry_equiv_pos_as_xyz
'x, y, z'
_cell_length_a     42.534218
_cell_length_b     52.02496
_cell_length_c     47.50153
_cell_angle_alpha  103.19296
_cell_angle_beta   104.65778
_cell_angle_gamma 103.28322
loop_
_atom_site_label
_atom_site_type_symbol
_atom_site_fract_x
_atom_site_fract_y
_atom_site_fract_z
_atom_type_partial_charge
Cu0 Cu 0.1667 0.15517 0.40773 0.0
N1 N 0.16803 0.1204 0.38625 0.0
N2 N 0.16785 0.07608 0.37615 0.0
C3 C 0.16663 0.09824 0.39676 0.0
C4 C 0.1701 0.08454 0.35174 0.0
C5 C 0.17062 0.11193 0.35816 0.0
O6 O 0.20589 0.17003 0.44514 0.0
C7 C 0.11363 0.16913 0.42967 0.0
O8 O 0.13578 0.194 0.4426 0.0
H9 H 0.16491 0.09838 0.41914 0.0
H10 H 0.1733 0.12477 0.34346 0.0
N11 N 0.16571 0.18046 0.38493 0.0
N12 N 0.15966 0.21922 0.37418 0.0
C13 C 0.17074 0.20795 0.39628 0.0
C14 C 0.15065 0.17434 0.35459 0.0
C15 C 0.14716 0.19819 0.3479 0.0
C16 C 0.23786 0.1733 0.45028 0.0
O17 O 0.25805 0.18314 0.47877 0.0
H18 H 0.17985 0.21909 0.42043 0.0
H19 H 0.13996 0.15363 0.33873 0.0
O20 O 0.12316 0.14935 0.41661 0.0
H21 H 0.17202 0.07196 0.33106 0.0
H22 H 0.13424 0.19964 0.32581 0.0
Cu23 Cu 0.90293 0.15242 0.39448 0.0
N24 N 0.8984 0.17704 0.37102 0.0
N25 N 0.89239 0.21555 0.35963 0.0
C26 C 0.89729 0.20311 0.38171 0.0
C27 C 0.89039 0.1967 0.33397 0.0
C28 C 0.89419 0.17299 0.34107 0.0
O29 O 0.86522 0.15067 0.4115 0.0
C30 C 0.97395 0.17084 0.40931 0.0
O31 O 0.96508 0.17806 0.38443 0.0
H32 H 0.89957 0.21275 0.40515 0.0
H33 H 0.89375 0.15414 0.32541 0.0
N34 N 0.89469 0.11545 0.37175 0.0
N35 N 0.89425 0.07122 0.36409 0.0
C36 C 0.90517 0.09681 0.38434 0.0
C37 C 0.87624 0.10098 0.34246 0.0
C38 C 0.87608 0.07364 0.33763 0.0
C39 C 0.85987 0.16941 0.43057 0.0
O40 O 0.88506 0.19187 0.44762 0.0
H41 H 0.91994 0.10179 0.40814 0.0
H42 H 0.86295 0.10939 0.32601 0.0
O43 O 0.95084 0.16226 0.42076 0.0
H44 H 0.88608 0.19979 0.3117 0.0
H45 H 0.86295 0.05674 0.31664 0.0
Cu46 Cu 0.90145 0.89185 0.37458 0.0
N47 N 0.91451 0.93072 0.39066 0.0
N48 N 0.91716 0.97469 0.39311 0.0
C49 C 0.90355 0.94788 0.37579 0.0
C50 C 0.93754 0.97454 0.41987 0.0
C51 C 0.93588 0.94734 0.41829 0.0
O52 O 0.85319 0.87941 0.35091 0.0
C53 C 0.94053 0.89156 0.33292 0.0
O54 O 0.92229 0.90538 0.31976 0.0
H55 H 0.88576 0.94085 0.35278 0.0
H56 H 0.94921 0.94017 0.43604 0.0
N57 N 0.90352 0.87272 0.40369 0.0
N58 N 0.89146 0.83375 0.41682 0.0
C59 C 0.90087 0.84551 0.39646 0.0
C60 C 0.89658 0.87862 0.43015 0.0
C61 C 0.88895 0.85457 0.43821 0.0
C62 C 0.8352 0.88788 0.3666 0.0
O63 O 0.85054 0.90451 0.39462 0.0
H64 H 0.90248 0.83395 0.37508 0.0
H65 H 0.89421 0.89832 0.44135 0.0
O66 O 0.93304 0.88243 0.35379 0.0
H67 H 0.9524 0.99276 0.43913 0.0
H68 H 0.88021 0.85217 0.45724 0.0
Cu69 Cu 0.14163 0.88666 0.35771 0.0
N70 N 0.13928 0.86276 0.3819 0.0
N71 N 0.13349 0.82344 0.39453 0.0
C72 C 0.1387 0.836 0.37345 0.0
C73 C 0.13075 0.84296 0.41714 0.0
C74 C 0.13433 0.86719 0.40929 0.0
O75 O 0.17255 0.87911 0.33496 0.0
C76 C 0.07645 0.8899 0.3481 0.0
O77 O 0.08999 0.90156 0.37775 0.0
H78 H 0.14089 0.82567 0.35183 0.0
H79 H 0.13242 0.88644 0.42224 0.0
N80 N 0.15911 0.92433 0.38062 0.0
N81 N 0.16855 0.97008 0.39116 0.0
C82 C 0.15484 0.9453 0.36933 0.0
C83 C 0.17655 0.9364 0.4106 0.0
C84 C 0.18243 0.96474 0.41718 0.0
C85 C 0.2021 0.87996 0.35084 0.0
O86 O 0.20922 0.88471 0.38046 0.0
H87 H 0.14183 0.94245 0.34559 0.0
H88 H 0.18422 0.92539 0.42657 0.0
O89 O 0.0948 0.88117 0.33297 0.0
H90 H 0.12581 0.83969 0.43752 0.0
H91 H 0.19561 0.98019 0.43927 0.0
Cu92 Cu 0.18458 0.91791 0.66246 0.0
N93 N 0.18696 0.89084 0.68323 0.0
N94 N 0.17524 0.84705 0.68579 0.0
C95 C 0.17936 0.86363 0.66795 0.0
C96 C 0.18093 0.8646 0.71362 0.0
C97 C 0.18823 0.89152 0.71203 0.0
O98 O 0.21383 0.91417 0.63709 0.0
C99 C 0.12499 0.91961 0.66886 0.0
O100 O 0.14659 0.92899 0.69676 0.0
H101 H 0.17484 0.85596 0.64364 0.0
H102 H 0.19218 0.91002 0.73014 0.0
N103 N 0.20043 0.9566 0.68204 0.0
N104 N 0.20578 1.00063 0.68228 0.0
C105 C 0.19256 0.97368 0.66568 0.0
C106 C 0.21963 0.97349 0.71028 0.0
C107 C 0.22294 1.00079 0.71048 0.0
C108 C 0.24426 0.91903 0.65452 0.0
O109 O 0.24953 0.92321 0.68391 0.0
H110 H 0.17731 0.96638 0.64177 0.0
H111 H 0.23046 0.96655 0.72926 0.0
O112 O 0.13574 0.91198 0.64641 0.0
H113 H 0.17871 0.8583 0.73342 0.0
H114 H 0.23676 1.01923 0.72974 0.0
Cu115 Cu 0.1636 0.16075 0.63882 0.0
N116 N 0.17235 0.18806 0.61917 0.0
N117 N 0.17383 0.22927 0.61121 0.0
C118 C 0.1695 0.21357 0.62976 0.0
C119 C 0.17987 0.21306 0.58785 0.0
C120 C 0.17869 0.18756 0.5927 0.0
O121 O 0.11432 0.15273 0.63239 0.0
C122 C 0.2228 0.17862 0.69466 0.0
O123 O 0.23598 0.1905 0.72432 0.0
H124 H 0.16445 0.22067 0.65089 0.0
H125 H 0.18175 0.16989 0.57777 0.0
N126 N 0.17293 0.12697 0.6262 0.0
N127 N 0.18326 0.08733 0.63074 0.0
C128 C 0.17658 0.11038 0.64417 0.0
C129 C 0.17707 0.11374 0.60014 0.0
C130 C 0.18327 0.0892 0.60283 0.0
C131 C 0.10183 0.16956 0.64657 0.0
O132 O 0.12259 0.19141 0.66912 0.0
H133 H 0.17425 0.11511 0.6668 0.0
H134 H 0.17563 0.12128 0.58059 0.0
O135 O 0.1919 0.17741 0.68157 0.0
H136 H 0.1844 0.21911 0.56853 0.0
H137 H 0.18774 0.07403 0.58576 0.0
Cu138 Cu 0.91143 0.17693 0.65374 0.0
N139 N 0.93127 0.2144 0.6786 0.0
N140 N 0.94954 0.26086 0.69009 0.0
C141 C 0.92884 0.23666 0.66896 0.0
C142 C 0.96549 0.25357 0.71402 0.0
C143 C 0.9542 0.225 0.70692 0.0
O144 O 0.86166 0.16963 0.63632 0.0
C145 C 0.96995 0.17251 0.64261 0.0
O146 O 0.9782 0.17836 0.67241 0.0
H147 H 0.91337 0.23508 0.64633 0.0
H148 H 0.96327 0.2128 0.72091 0.0
N149 N 0.91472 0.14925 0.67286 0.0
N150 N 0.91653 0.10684 0.67419 0.0
C151 C 0.91074 0.12317 0.65646 0.0
C152 C 0.92294 0.14932 0.70221 0.0
C153 C 0.92409 0.12303 0.70308 0.0
C154 C 0.84686 0.17727 0.6557 0.0
O155 O 0.8659 0.1915 0.68395 0.0
H156 H 0.90436 0.11643 0.63187 0.0
H157 H 0.92841 0.16722 0.72158 0.0
O158 O 0.93981 0.17124 0.62724 0.0
H159 H 0.98472 0.26787 0.73477 0.0
H160 H 0.93075 0.11652 0.72329 0.0
Cu161 Cu 0.93022 0.92697 0.64588 0.0
N162 N 0.92172 0.95348 0.626 0.0
N163 N 0.91635 0.99529 0.62536 0.0
C164 C 0.93285 0.98096 0.64082 0.0
C165 C 0.89513 0.97632 0.59883 0.0
C166 C 0.89857 0.95053 0.59924 0.0
O167 O 0.90375 0.9268 0.67432 0.0
C168 C 0.99741 0.92974 0.68231 0.0
O169 O 0.98454 0.92207 0.70255 0.0
H170 H 0.95106 0.99014 0.66361 0.0
H171 H 0.883 0.93082 0.58254 0.0
N172 N 0.9165 0.88961 0.62138 0.0
N173 N 0.91884 0.846 0.61548 0.0
C174 C 0.93674 0.87316 0.62482 0.0
C175 C 0.88452 0.87189 0.60861 0.0
C176 C 0.88592 0.84503 0.60491 0.0
C177 C 0.89615 0.94788 0.68694 0.0
O178 O 0.91735 0.97276 0.69391 0.0
H179 H 0.96378 0.88098 0.63676 0.0
H180 H 0.86157 0.87801 0.60538 0.0
O181 O 0.9792 0.93606 0.66097 0.0
H182 H 0.87657 0.98046 0.5816 0.0
H183 H 0.86434 0.82652 0.59773 0.0
Cu184 Cu 0.39842 0.1653 0.12377 0.0
N185 N 0.427 0.14316 0.1295 0.0
N186 N 0.43833 0.10338 0.12989 0.0
C187 C 0.41603 0.11773 0.13232 0.0
C188 C 0.4645 0.12029 0.12535 0.0
C189 C 0.45733 0.14486 0.12494 0.0
O190 O 0.37644 0.16509 0.15602 0.0
C191 C 0.35132 0.15733 0.06213 0.0
O192 O 0.33324 0.17126 0.07401 0.0
H193 H 0.39106 0.10917 0.13395 0.0
H194 H 0.47198 0.16174 0.11938 0.0
N195 N 0.42124 0.20217 0.12867 0.0
N196 N 0.42596 0.24348 0.12107 0.0
C197 C 0.40456 0.21962 0.12016 0.0
C198 C 0.45464 0.21581 0.13591 0.0
C199 C 0.45763 0.24148 0.13126 0.0
C200 C 0.39767 0.1759 0.18328 0.0
O201 O 0.43006 0.18639 0.18657 0.0
H202 H 0.37711 0.21472 0.11266 0.0
H203 H 0.47531 0.20751 0.14312 0.0
O204 O 0.37381 0.15022 0.07942 0.0
H205 H 0.48604 0.1146 0.12074 0.0
H206 H 0.481 0.25705 0.1342 0.0
Cu207 Cu 0.91686 0.42592 0.14776 0.0
N208 N 0.92999 0.44179 0.19088 0.0
N209 N 0.93718 0.44612 0.24054 0.0
C210 C 0.92797 0.42844 0.21207 0.0
C211 C 0.94531 0.47167 0.23735 0.0
C212 C 0.94106 0.46894 0.20682 0.0
O213 O 0.86761 0.40638 0.13174 0.0
C214 C 0.96593 0.39513 0.15384 0.0
O215 O 0.95748 0.39002 0.17715 0.0
H216 H 0.91886 0.4062 0.20686 0.0
H217 H 0.94465 0.48563 0.19676 0.0
N218 N 0.91984 0.45275 0.12691 0.0
N219 N 0.92043 0.46652 0.08533 0.0
C220 C 0.93352 0.45272 0.10406 0.0
C221 C 0.89791 0.46758 0.12277 0.0
C222 C 0.89812 0.47596 0.09725 0.0
C223 C 0.84957 0.39204 0.14375 0.0
O224 O 0.8643 0.38277 0.16535 0.0
H225 H 0.95004 0.44043 0.09937 0.0
H226 H 0.88037 0.46972 0.13546 0.0
O227 O 0.94879 0.40657 0.13733 0.0
H228 H 0.95234 0.49085 0.25557 0.0
H229 H 0.88145 0.48657 0.087 0.0
Cu230 Cu 0.65096 0.90122 0.12272 0.0
N231 N 0.64036 0.8619 0.11217 0.0
N232 N 0.63559 0.81971 0.11897 0.0
C233 C 0.62702 0.84358 0.12567 0.0
C234 C 0.65453 0.82326 0.10054 0.0
C235 C 0.65734 0.84877 0.09649 0.0
O236 O 0.66806 0.91412 0.16766 0.0
C237 C 0.66979 0.90531 0.07257 0.0
O238 O 0.63789 0.88947 0.0606 0.0
H239 H 0.61338 0.84834 0.14158 0.0
H240 H 0.67354 0.85799 0.0851 0.0
N241 N 0.61573 0.91653 0.10901 0.0
N242 N 0.59527 0.95141 0.10101 0.0
C243 C 0.62267 0.94205 0.10537 0.0
C244 C 0.58237 0.90922 0.10641 0.0
C245 C 0.56971 0.93074 0.10151 0.0
C246 C 0.65508 0.92935 0.18339 0.0
O247 O 0.63328 0.94031 0.16976 0.0
H248 H 0.64801 0.95441 0.10807 0.0
H249 H 0.56875 0.89042 0.10967 0.0
O250 O 0.68334 0.9136 0.10165 0.0
H251 H 0.66706 0.80883 0.09183 0.0
H252 H 0.54413 0.93163 0.09969 0.0
Cu253 Cu 0.15274 0.60419 0.14072 0.0
N254 N 0.13727 0.577 0.10217 0.0
N255 N 0.12709 0.56687 0.05144 0.0
C256 C 0.15003 0.58042 0.07948 0.0
C257 C 0.09887 0.55354 0.05648 0.0
C258 C 0.10526 0.55971 0.08771 0.0
O259 O 0.19573 0.62952 0.1426 0.0
C260 C 0.0909 0.60748 0.14925 0.0
O261 O 0.09262 0.58506 0.15704 0.0
H262 H 0.1739 0.59555 0.08308 0.0
H263 H 0.08651 0.55467 0.09885 0.0
N264 N 0.16221 0.592 0.17558 0.0
N265 N 0.16871 0.59286 0.22418 0.0
C266 C 0.16155 0.60598 0.20304 0.0
C267 C 0.17061 0.56935 0.17964 0.0
C268 C 0.17472 0.56987 0.20969 0.0
C269 C 0.21796 0.61731 0.13918 0.0
O270 O 0.21029 0.59081 0.13684 0.0
H271 H 0.15501 0.62511 0.20725 0.0
H272 H 0.17316 0.55346 0.16198 0.0
O273 O 0.11531 0.62012 0.14148 0.0
H274 H 0.07447 0.54234 0.03898 0.0
H275 H 0.18067 0.55424 0.21988 0.0
Cu276 Cu 0.44394 0.91149 0.89747 0.0
N277 N 0.41748 0.87412 0.88435 0.0
N278 N 0.40759 0.82823 0.87336 0.0
C279 C 0.42983 0.85346 0.89 0.0
C280 C 0.38001 0.83309 0.85679 0.0
C281 C 0.38619 0.86143 0.86359 0.0
O282 O 0.47274 0.91947 0.93944 0.0
C283 C 0.44623 0.91265 0.84094 0.0
O284 O 0.41374 0.90894 0.83742 0.0
H285 H 0.45534 0.85685 0.9048 0.0
H286 H 0.36973 0.87195 0.85295 0.0
N287 N 0.41954 0.93731 0.89849 0.0
N288 N 0.41148 0.97868 0.90153 0.0
C289 C 0.43435 0.96454 0.90377 0.0
C290 C 0.386 0.93416 0.89309 0.0
C291 C 0.38093 0.95978 0.89488 0.0
C292 C 0.45547 0.91433 0.95699 0.0
O293 O 0.42207 0.90464 0.94546 0.0
H294 H 0.46135 0.97376 0.90876 0.0
H295 H 0.36657 0.91464 0.8877 0.0
O296 O 0.46657 0.91516 0.867 0.0
H297 H 0.35753 0.81726 0.84027 0.0
H298 H 0.35677 0.96414 0.89105 0.0
Cu299 Cu 0.1836 0.4503 0.90056 0.0
N300 N 0.19175 0.46761 0.87102 0.0
N301 N 0.19681 0.47246 0.82648 0.0
C302 C 0.18377 0.45506 0.84076 0.0
C303 C 0.21315 0.49703 0.84833 0.0
C304 C 0.20989 0.49402 0.87574 0.0
O305 O 0.21794 0.43025 0.90904 0.0
C306 C 0.11645 0.41411 0.89718 0.0
O307 O 0.13266 0.40237 0.91534 0.0
H308 H 0.17005 0.43327 0.82965 0.0
H309 H 0.22119 0.50971 0.89779 0.0
N310 N 0.19427 0.47652 0.93884 0.0
N311 N 0.19585 0.4896 0.98772 0.0
C312 C 0.17648 0.47485 0.95858 0.0
C313 C 0.22567 0.49363 0.95608 0.0
C314 C 0.22671 0.5017 0.98614 0.0
C315 C 0.2347 0.42279 0.89141 0.0
O316 O 0.22358 0.42146 0.8626 0.0
H317 H 0.15108 0.46083 0.95232 0.0
H318 H 0.24729 0.49771 0.94796 0.0
O319 O 0.13361 0.43171 0.88751 0.0
H320 H 0.22744 0.51549 0.84488 0.0
H321 H 0.24912 0.51369 1.00564 0.0
Cu322 Cu 0.63078 0.15386 0.89868 0.0
N323 N 0.599 0.1191 0.89005 0.0
N324 N 0.58238 0.07395 0.8859 0.0
C325 C 0.60695 0.09852 0.90026 0.0
C326 C 0.55774 0.07921 0.86594 0.0
C327 C 0.56801 0.10714 0.86862 0.0
O328 O 0.6595 0.16305 0.94144 0.0
C329 C 0.63456 0.14373 0.8403 0.0
O330 O 0.60332 0.14513 0.83563 0.0
H331 H 0.63132 0.10108 0.91641 0.0
H332 H 0.55474 0.11753 0.8546 0.0
N333 N 0.61038 0.18191 0.89413 0.0
N334 N 0.60294 0.22112 0.88565 0.0
C335 C 0.6251 0.20642 0.8906 0.0
C336 C 0.57789 0.18126 0.89148 0.0
C337 C 0.57322 0.20538 0.8862 0.0
C338 C 0.64343 0.16326 0.96084 0.0
O339 O 0.6104 0.15934 0.95131 0.0
H340 H 0.65129 0.21308 0.89095 0.0
H341 H 0.55878 0.16424 0.8928 0.0
O342 O 0.65345 0.14813 0.86762 0.0
H343 H 0.53468 0.06377 0.84978 0.0
H344 H 0.5498 0.21091 0.88278 0.0
Cu345 Cu 0.91995 0.67268 0.88563 0.0
N346 N 0.91996 0.6522 0.91334 0.0
N347 N 0.92328 0.64642 0.95901 0.0
C348 C 0.92386 0.66442 0.94273 0.0
C349 C 0.91921 0.62176 0.93934 0.0
C350 C 0.91719 0.6254 0.91097 0.0
O351 O 0.88835 0.69392 0.89284 0.0
C352 C 0.98511 0.67445 0.88846 0.0
O353 O 0.96839 0.64787 0.87704 0.0
H354 H 0.92692 0.68621 0.95202 0.0
H355 H 0.91401 0.60968 0.89027 0.0
N356 N 0.90338 0.65225 0.84393 0.0
N357 N 0.89595 0.6439 0.79391 0.0
C358 C 0.90894 0.66307 0.82173 0.0
C359 C 0.88597 0.62526 0.82958 0.0
C360 C 0.88148 0.62002 0.79867 0.0
C361 C 0.85903 0.67843 0.89045 0.0
O362 O 0.85332 0.65148 0.88305 0.0
H363 H 0.92321 0.68446 0.82601 0.0
H364 H 0.87766 0.61034 0.84079 0.0
O365 O 0.96862 0.69158 0.89443 0.0
H366 H 0.91752 0.6026 0.94502 0.0
H367 H 0.86924 0.60017 0.78115 0.0
Cu368 Cu 0.16978 0.44249 0.16215 0.0
N369 N 0.17034 0.46838 0.14022 0.0
N370 N 0.17206 0.48407 0.1002 0.0
C371 C 0.18327 0.46823 0.117 0.0
C372 C 0.15151 0.49481 0.11351 0.0
C373 C 0.1505 0.48512 0.13815 0.0
O374 O 0.2049 0.42575 0.1555 0.0
C375 C 0.1069 0.40544 0.16126 0.0
O376 O 0.12482 0.4012 0.18563 0.0
H377 H 0.19831 0.45497 0.11095 0.0
H378 H 0.13437 0.48837 0.15208 0.0
N379 N 0.18114 0.45929 0.20446 0.0
N380 N 0.18661 0.46154 0.25319 0.0
C381 C 0.18599 0.4462 0.22594 0.0
C382 C 0.17961 0.48421 0.21903 0.0
C383 C 0.18278 0.48559 0.2491 0.0
C384 C 0.21346 0.40652 0.16484 0.0
O385 O 0.19473 0.39218 0.17745 0.0
H386 H 0.18606 0.42491 0.22123 0.0
H387 H 0.1739 0.49941 0.20805 0.0
O388 O 0.12208 0.41877 0.14658 0.0
H389 H 0.13682 0.50749 0.10498 0.0
H390 H 0.1797 0.50195 0.2659 0.0
Cu391 Cu 0.16836 0.64034 0.8938 0.0
N392 N 0.15788 0.62863 0.85104 0.0
N393 N 0.15676 0.62915 0.80379 0.0
C394 C 0.16869 0.6438 0.83377 0.0
C395 C 0.13789 0.60385 0.80211 0.0
C396 C 0.13868 0.60356 0.83129 0.0
O397 O 0.21806 0.65774 0.9116 0.0
C398 C 0.1087 0.65511 0.89082 0.0
O399 O 0.09576 0.62989 0.87163 0.0
H400 H 0.18477 0.66516 0.84292 0.0
H401 H 0.12608 0.58632 0.83768 0.0
N402 N 0.15826 0.61025 0.90934 0.0
N403 N 0.14866 0.58823 0.94333 0.0
C404 C 0.14382 0.60893 0.93148 0.0
C405 C 0.17191 0.58924 0.90669 0.0
C406 C 0.16628 0.57582 0.92767 0.0
C407 C 0.23657 0.64511 0.90026 0.0
O408 O 0.22186 0.62278 0.87655 0.0
H409 H 0.1324 0.62414 0.94042 0.0
H410 H 0.18694 0.58501 0.89198 0.0
O411 O 0.141 0.66481 0.90377 0.0
H412 H 0.12437 0.58688 0.78122 0.0
H413 H 0.17589 0.55911 0.93217 0.0
Cu414 Cu 0.4099 0.16158 0.90713 0.0
N415 N 0.43233 0.13454 0.90982 0.0
N416 N 0.44037 0.09361 0.91027 0.0
C417 C 0.41726 0.10727 0.90449 0.0
C418 C 0.47118 0.11281 0.91949 0.0
C419 C 0.46614 0.13809 0.91917 0.0
O420 O 0.38573 0.16273 0.93764 0.0
C421 C 0.40042 0.15065 0.84428 0.0
O422 O 0.42177 0.13636 0.84974 0.0
H423 H 0.38995 0.09763 0.89692 0.0
H424 H 0.48575 0.15775 0.92572 0.0
N425 N 0.44007 0.19738 0.91867 0.0
N426 N 0.45523 0.24139 0.9184 0.0
C427 C 0.43314 0.2158 0.9041 0.0
C428 C 0.4677 0.21194 0.94333 0.0
C429 C 0.47715 0.23928 0.94322 0.0
C430 C 0.36242 0.14338 0.93951 0.0
O431 O 0.34702 0.12071 0.91625 0.0
H432 H 0.41101 0.21098 0.88428 0.0
H433 H 0.47901 0.20367 0.96091 0.0
O434 O 0.38609 0.15776 0.86421 0.0
H435 H 0.49545 0.10884 0.92625 0.0
H436 H 0.49735 0.25645 0.96066 0.0
Cu437 Cu 0.91578 0.42517 0.88124 0.0
N438 N 0.92421 0.45392 0.91725 0.0
N439 N 0.93231 0.46922 0.96767 0.0
C440 C 0.91289 0.45002 0.94061 0.0
C441 C 0.95678 0.48609 0.9611 0.0
C442 C 0.95175 0.47663 0.93011 0.0
O443 O 0.87705 0.39418 0.87935 0.0
C444 C 0.96953 0.40129 0.86863 0.0
O445 O 0.94655 0.38425 0.84305 0.0
H446 H 0.89343 0.43167 0.93865 0.0
H447 H 0.9691 0.484 0.91848 0.0
N448 N 0.90455 0.43248 0.84279 0.0
N449 N 0.90626 0.43501 0.7963 0.0
C450 C 0.92479 0.43881 0.82567 0.0
C451 C 0.87254 0.42369 0.82291 0.0
C452 C 0.87349 0.42572 0.79483 0.0
C453 C 0.84856 0.38682 0.8848 0.0
O454 O 0.83335 0.36001 0.87673 0.0
H455 H 0.9523 0.44394 0.83382 0.0
H456 H 0.84999 0.41349 0.82732 0.0
O457 O 0.96034 0.41759 0.88721 0.0
H458 H 0.97816 0.50283 0.97785 0.0
H459 H 0.85185 0.4185 0.77408 0.0
Cu460 Cu 0.63314 0.90685 0.89789 0.0
N461 N 0.60708 0.86928 0.88351 0.0
N462 N 0.59736 0.82337 0.86722 0.0
C463 C 0.62031 0.84816 0.88451 0.0
C464 C 0.56847 0.82903 0.85487 0.0
C465 C 0.5745 0.85739 0.86506 0.0
O466 O 0.66613 0.91406 0.93816 0.0
C467 C 0.63383 0.90782 0.84015 0.0
O468 O 0.60096 0.90241 0.83598 0.0
H469 H 0.64682 0.85103 0.89628 0.0
H470 H 0.557 0.86864 0.85812 0.0
N471 N 0.60753 0.93167 0.90321 0.0
N472 N 0.59311 0.97075 0.90463 0.0
C473 C 0.6047 0.95154 0.88953 0.0
C474 C 0.59686 0.93846 0.9275 0.0
C475 C 0.58826 0.96254 0.92857 0.0
C476 C 0.65533 0.90368 0.95708 0.0
O477 O 0.62385 0.88731 0.94824 0.0
H478 H 0.6135 0.95326 0.87038 0.0
H479 H 0.59766 0.92786 0.94462 0.0
O480 O 0.65413 0.91203 0.86677 0.0
H481 H 0.54511 0.81384 0.83886 0.0
H482 H 0.58043 0.97385 0.9463 0.0
Cu483 Cu 0.91825 0.65985 0.15721 0.0
N484 N 0.92654 0.67839 0.12921 0.0
N485 N 0.93063 0.68097 0.08395 0.0
C486 C 0.92252 0.66414 0.1004 0.0
C487 C 0.94023 0.707 0.103 0.0
C488 C 0.93775 0.70536 0.13113 0.0
O489 O 0.94576 0.63463 0.15295 0.0
C490 C 0.85103 0.65976 0.14013 0.0
O491 O 0.86655 0.68425 0.13902 0.0
H492 H 0.91391 0.64172 0.09166 0.0
H493 H 0.94363 0.72255 0.15134 0.0
N494 N 0.93214 0.6816 0.19828 0.0
N495 N 0.93803 0.69052 0.24802 0.0
C496 C 0.92292 0.67193 0.21997 0.0
C497 C 0.95382 0.70737 0.21321 0.0
C498 C 0.95759 0.7129 0.24402 0.0
C499 C 0.97713 0.64352 0.16953 0.0
O500 O 0.98747 0.66567 0.19333 0.0
H501 H 0.90577 0.65143 0.21533 0.0
H502 H 0.96681 0.72085 0.20269 0.0
O503 O 0.86866 0.64364 0.14603 0.0
H504 H 0.94843 0.72571 0.09699 0.0
H505 H 0.9735 0.73174 0.26208 0.0
Cu506 Cu 0.44475 0.92378 0.12752 0.0
N507 N 0.42003 0.88597 0.11509 0.0
N508 N 0.41036 0.84136 0.11277 0.0
C509 C 0.43297 0.86698 0.1247 0.0
C510 C 0.38206 0.84407 0.09472 0.0
C511 C 0.38811 0.8717 0.09614 0.0
O512 O 0.46445 0.934 0.1718 0.0
C513 C 0.45838 0.92037 0.07469 0.0
O514 O 0.42497 0.91065 0.06595 0.0
H515 H 0.4585 0.87187 0.1403 0.0
H516 H 0.37055 0.88058 0.084 0.0
N517 N 0.41906 0.94786 0.12048 0.0
N518 N 0.41033 0.98836 0.11938 0.0
C519 C 0.43368 0.9751 0.12565 0.0
C520 C 0.38515 0.94382 0.11076 0.0
C521 C 0.37969 0.9689 0.10999 0.0
C522 C 0.44099 0.93087 0.18413 0.0
O523 O 0.40898 0.92167 0.16649 0.0
H524 H 0.46099 0.98505 0.13396 0.0
H525 H 0.36575 0.92424 0.10502 0.0
O526 O 0.47516 0.92803 0.10313 0.0
H527 H 0.3588 0.82731 0.08156 0.0
H528 H 0.35528 0.97263 0.10321 0.0
Cu529 Cu 0.63203 0.14326 0.12497 0.0
N530 N 0.6051 0.10612 0.1025 0.0
N531 N 0.5948 0.05975 0.09078 0.0
C532 C 0.60254 0.08391 0.11318 0.0
C533 C 0.5919 0.06702 0.06498 0.0
C534 C 0.59783 0.09526 0.07214 0.0
O535 O 0.65411 0.1432 0.16671 0.0
C536 C 0.64658 0.16042 0.07721 0.0
O537 O 0.61501 0.16098 0.07255 0.0
H538 H 0.6096 0.08556 0.13718 0.0
H539 H 0.60013 0.10718 0.05652 0.0
N540 N 0.60918 0.17031 0.13022 0.0
N541 N 0.60486 0.21324 0.14473 0.0
C542 C 0.62531 0.19781 0.13866 0.0
C543 C 0.57718 0.16823 0.13072 0.0
C544 C 0.57451 0.1947 0.13983 0.0
C545 C 0.63314 0.13718 0.18109 0.0
O546 O 0.60043 0.1318 0.1671 0.0
H547 H 0.65198 0.20642 0.1413 0.0
H548 H 0.55754 0.14894 0.12588 0.0
O549 O 0.66131 0.15421 0.10067 0.0
H550 H 0.58787 0.05309 0.04274 0.0
H551 H 0.55222 0.19995 0.14311 0.0
Cu552 Cu 0.65843 0.66409 0.88521 0.0
N553 N 0.64406 0.68508 0.8601 0.0
N554 N 0.62685 0.71993 0.84825 0.0
C555 C 0.63909 0.70964 0.87084 0.0
C556 C 0.62414 0.70127 0.82215 0.0
C557 C 0.63488 0.67975 0.82954 0.0
O558 O 0.62928 0.66551 0.91105 0.0
C559 C 0.7248 0.6771 0.88503 0.0
O560 O 0.70754 0.66495 0.8559 0.0
H561 H 0.64394 0.71967 0.89478 0.0
H562 H 0.63566 0.66149 0.81374 0.0
N563 N 0.64914 0.62634 0.86424 0.0
N564 N 0.64925 0.58217 0.85595 0.0
C565 C 0.66332 0.60836 0.87515 0.0
C566 C 0.62526 0.61087 0.83729 0.0
C567 C 0.62535 0.58364 0.83209 0.0
C568 C 0.63409 0.68314 0.9364 0.0
O569 O 0.66467 0.70057 0.9519 0.0
H570 H 0.68266 0.61415 0.89722 0.0
H571 H 0.60808 0.6186 0.82294 0.0
O572 O 0.70813 0.67998 0.90389 0.0
H573 H 0.61497 0.70307 0.79947 0.0
H574 H 0.60838 0.56609 0.81285 0.0
Cu575 Cu 0.42985 0.65657 0.89662 0.0
N576 N 0.42842 0.68166 0.87402 0.0
N577 N 0.42376 0.7206 0.86333 0.0
C578 C 0.43011 0.70837 0.88544 0.0
C579 C 0.41808 0.70095 0.83698 0.0
C580 C 0.42097 0.6769 0.84364 0.0
O581 O 0.40068 0.66481 0.92143 0.0
C582 C 0.49925 0.68116 0.94003 0.0
O583 O 0.48873 0.69972 0.95571 0.0
H584 H 0.43428 0.71827 0.90931 0.0
H585 H 0.41655 0.65706 0.8274 0.0
N586 N 0.41141 0.61964 0.87108 0.0
N587 N 0.40319 0.5739 0.85519 0.0
C588 C 0.42436 0.59874 0.87447 0.0
C589 C 0.38121 0.6076 0.84856 0.0
C590 C 0.37597 0.57936 0.83888 0.0
C591 C 0.37457 0.64653 0.92091 0.0
O592 O 0.37235 0.62022 0.91168 0.0
H593 H 0.44815 0.60149 0.89165 0.0
H594 H 0.3636 0.6184 0.84056 0.0
O595 O 0.47794 0.66163 0.91702 0.0
H596 H 0.41122 0.70359 0.8145 0.0
H597 H 0.35359 0.56392 0.82173 0.0
Cu598 Cu 0.42646 0.41015 0.89358 0.0
N599 N 0.42553 0.42991 0.86516 0.0
N600 N 0.42329 0.468 0.85127 0.0
C601 C 0.40913 0.44913 0.86347 0.0
C602 C 0.44906 0.45995 0.84428 0.0
C603 C 0.4504 0.4365 0.85288 0.0
O604 O 0.38457 0.41005 0.90465 0.0
C605 C 0.49158 0.41921 0.94137 0.0
O606 O 0.47635 0.40472 0.95608 0.0
H607 H 0.38983 0.45116 0.87411 0.0
H608 H 0.47049 0.42692 0.85343 0.0
N609 N 0.42436 0.37333 0.87698 0.0
N610 N 0.43166 0.33215 0.87706 0.0
C611 C 0.42905 0.35587 0.89356 0.0
C612 C 0.42378 0.36007 0.84887 0.0
C613 C 0.42808 0.33448 0.8488 0.0
C614 C 0.37859 0.4282 0.92393 0.0
O615 O 0.40422 0.44871 0.94437 0.0
H616 H 0.43138 0.36066 0.91751 0.0
H617 H 0.42176 0.36883 0.83015 0.0
O618 O 0.47377 0.42717 0.92107 0.0
H619 H 0.46739 0.47159 0.83606 0.0
H620 H 0.42952 0.31916 0.82986 0.0
Cu621 Cu 0.66418 0.40879 0.89389 0.0
N622 N 0.65827 0.43528 0.87264 0.0
N623 N 0.65645 0.47583 0.86378 0.0
C624 C 0.67028 0.46339 0.88381 0.0
C625 C 0.63559 0.45478 0.83889 0.0
C626 C 0.63688 0.43004 0.8443 0.0
O627 O 0.63694 0.41108 0.92202 0.0
C628 C 0.73927 0.42767 0.90852 0.0
O629 O 0.73704 0.45243 0.90865 0.0
H630 H 0.68802 0.47457 0.90649 0.0
H631 H 0.62256 0.40965 0.82864 0.0
N632 N 0.64101 0.3718 0.86943 0.0
N633 N 0.62249 0.32595 0.86202 0.0
C634 C 0.6483 0.3498 0.87704 0.0
C635 C 0.60916 0.36132 0.84917 0.0
C636 C 0.59788 0.33306 0.84433 0.0
C637 C 0.63041 0.43244 0.93552 0.0
O638 O 0.65105 0.45711 0.9402 0.0
H639 H 0.67062 0.35166 0.8954 0.0
H640 H 0.59365 0.37356 0.84104 0.0
O641 O 0.71278 0.40884 0.90674 0.0
H642 H 0.62023 0.45718 0.81826 0.0
H643 H 0.57251 0.31925 0.83099 0.0
Cu644 Cu 0.66011 0.40217 0.16064 0.0
N645 N 0.67797 0.44054 0.18281 0.0
N646 N 0.68357 0.48591 0.1898 0.0
C647 C 0.66257 0.45962 0.17661 0.0
C648 C 0.71367 0.48341 0.20484 0.0
C649 C 0.71015 0.4555 0.20053 0.0
O650 O 0.612 0.39642 0.13992 0.0
C651 C 0.71806 0.39253 0.15116 0.0
O652 O 0.72395 0.39415 0.1801 0.0
H653 H 0.63708 0.45439 0.16088 0.0
H654 H 0.73033 0.44679 0.20812 0.0
N655 N 0.65825 0.37571 0.18195 0.0
N656 N 0.64497 0.33237 0.18513 0.0
C657 C 0.65187 0.34856 0.16759 0.0
C658 C 0.65547 0.37679 0.20979 0.0
C659 C 0.64724 0.35002 0.2118 0.0
C660 C 0.59664 0.40451 0.15855 0.0
O661 O 0.61442 0.41491 0.18774 0.0
H662 H 0.65035 0.34063 0.14398 0.0
H663 H 0.65738 0.39542 0.22675 0.0
O664 O 0.68991 0.395 0.13619 0.0
H665 H 0.73689 0.50047 0.21703 0.0
H666 H 0.64202 0.34389 0.23085 0.0
Cu667 Cu 0.64523 0.64519 0.13533 0.0
N668 N 0.64178 0.61986 0.15834 0.0
N669 N 0.64759 0.5833 0.17462 0.0
C670 C 0.65414 0.59796 0.15549 0.0
C671 C 0.63024 0.59641 0.19003 0.0
C672 C 0.62702 0.61904 0.18021 0.0
O673 O 0.68722 0.64633 0.12458 0.0
C674 C 0.57522 0.62949 0.10467 0.0
O675 O 0.57481 0.62968 0.13224 0.0
H676 H 0.66779 0.59284 0.13969 0.0
H677 H 0.61474 0.63384 0.18846 0.0
N678 N 0.64895 0.68206 0.1562 0.0
N679 N 0.64561 0.72505 0.15795 0.0
C680 C 0.63039 0.6974 0.14454 0.0
C681 C 0.67613 0.70074 0.17878 0.0
C682 C 0.67425 0.72709 0.17979 0.0
C683 C 0.71406 0.64856 0.1458 0.0
O684 O 0.71242 0.65032 0.17338 0.0
H685 H 0.60786 0.68868 0.12463 0.0
H686 H 0.69732 0.69579 0.19196 0.0
O687 O 0.60384 0.63377 0.09976 0.0
H688 H 0.62093 0.59023 0.20743 0.0
H689 H 0.69367 0.74634 0.19409 0.0
Cu690 Cu 0.41241 0.66076 0.11752 0.0
N691 N 0.42593 0.64208 0.14551 0.0
N692 N 0.42224 0.60019 0.15176 0.0
C693 C 0.43125 0.61749 0.1359 0.0
C694 C 0.41297 0.6152 0.17361 0.0
C695 C 0.41544 0.64107 0.16982 0.0
O696 O 0.43153 0.64845 0.08519 0.0
C697 C 0.34858 0.66059 0.12373 0.0
O698 O 0.36791 0.68177 0.14766 0.0
H699 H 0.43616 0.61073 0.11467 0.0
H700 H 0.4052 0.65617 0.1809 0.0
N701 N 0.42847 0.69947 0.13399 0.0
N702 N 0.4331 0.74393 0.13839 0.0
C703 C 0.41845 0.71751 0.12016 0.0
C704 C 0.45019 0.71507 0.16191 0.0
C705 C 0.45311 0.74262 0.16469 0.0
C706 C 0.46299 0.66016 0.08969 0.0
O707 O 0.4793 0.68241 0.11331 0.0
H708 H 0.40022 0.71138 0.09746 0.0
H709 H 0.46251 0.70692 0.17917 0.0
O710 O 0.36234 0.64883 0.10563 0.0
H711 H 0.40143 0.60699 0.18886 0.0
H712 H 0.46821 0.76027 0.18453 0.0
Cu713 Cu 0.39426 0.40817 0.1243 0.0
N714 N 0.38705 0.4374 0.10907 0.0
N715 N 0.3887 0.48144 0.11232 0.0
C716 C 0.406 0.46438 0.1214 0.0
C717 C 0.35784 0.46446 0.09325 0.0
C718 C 0.35698 0.43742 0.09116 0.0
O719 O 0.36203 0.40004 0.14655 0.0
C720 C 0.46396 0.42302 0.13327 0.0
O721 O 0.45509 0.43403 0.11139 0.0
H722 H 0.43086 0.47154 0.1387 0.0
H723 H 0.33489 0.41926 0.07971 0.0
N724 N 0.38505 0.37457 0.09468 0.0
N725 N 0.38605 0.33072 0.08314 0.0
C726 C 0.40234 0.35688 0.10124 0.0
C727 C 0.35677 0.35903 0.07107 0.0
C728 C 0.35733 0.33179 0.06387 0.0
C729 C 0.34684 0.41715 0.15561 0.0
O730 O 0.35834 0.44315 0.15685 0.0
H731 H 0.4242 0.36232 0.12147 0.0
H732 H 0.33562 0.36626 0.06202 0.0
O733 O 0.44214 0.41496 0.14605 0.0
H734 H 0.33681 0.47125 0.08279 0.0
H735 H 0.33679 0.31389 0.04799 0.0
Cu736 Cu 0.95318 0.68006 0.64742 0.0
N737 N 0.98646 0.66281 0.66 0.0
N738 N 1.00531 0.62818 0.67099 0.0
C739 C 0.98002 0.63506 0.6537 0.0
C740 C 1.02911 0.6525 0.68842 0.0
C741 C 1.01744 0.67384 0.68156 0.0
O742 O 0.92614 0.67775 0.67532 0.0
C743 C 0.91674 0.67191 0.58485 0.0
O744 O 0.91131 0.69551 0.5952 0.0
H745 H 0.95617 0.62015 0.63827 0.0
H746 H 1.02955 0.69578 0.69311 0.0
N747 N 0.97151 0.71803 0.65127 0.0
N748 N 0.97094 0.75974 0.64572 0.0
C749 C 0.95382 0.7366 0.6504 0.0
C750 C 1.00122 0.73035 0.64783 0.0
C751 C 1.00096 0.75603 0.64441 0.0
C752 C 0.91311 0.6552 0.6802 0.0
O753 O 0.91059 0.63148 0.66139 0.0
H754 H 0.92771 0.73223 0.65049 0.0
H755 H 1.02052 0.72042 0.64542 0.0
O756 O 0.93057 0.66053 0.6036 0.0
H757 H 0.05225 0.65469 0.70608 0.0
H758 H 1.02026 0.77004 0.63928 0.0
Cu759 Cu 0.44383 0.93242 0.6511 0.0
N760 N 0.45267 0.91258 0.67893 0.0
N761 N 0.46174 0.90363 0.7236 0.0
C762 C 0.44764 0.91789 0.70628 0.0
C763 C 0.47631 0.88879 0.70665 0.0
C764 C 0.47054 0.89428 0.679 0.0
O765 O 0.40226 0.94215 0.65083 0.0
C766 C 0.50982 0.95552 0.65619 0.0
O767 O 0.50477 0.92911 0.6434 0.0
H768 H 0.43513 0.93278 0.71387 0.0
H769 H 0.47995 0.88632 0.66079 0.0
N770 N 0.43612 0.91216 0.61098 0.0
N771 N 0.43169 0.90544 0.56205 0.0
C772 C 0.43659 0.92406 0.58874 0.0
C773 C 0.43049 0.88495 0.59786 0.0
C774 C 0.42776 0.88073 0.56739 0.0
C775 C 0.37571 0.92195 0.6453 0.0
O776 O 0.37867 0.89688 0.64138 0.0
H777 H 0.44086 0.94604 0.59214 0.0
H778 H 0.42876 0.86942 0.60961 0.0
O779 O 0.48528 0.96332 0.66215 0.0
H780 H 0.49059 0.87544 0.71402 0.0
H781 H 0.42334 0.86122 0.55053 0.0
Cu782 Cu 0.17702 0.42338 0.6381 0.0
N783 N 0.1805 0.38685 0.63252 0.0
N784 N 0.17939 0.34234 0.62617 0.0
C785 C 0.1613 0.36078 0.62908 0.0
C786 C 0.21057 0.35731 0.62809 0.0
C787 C 0.2112 0.38431 0.63223 0.0
O788 O 0.19674 0.44358 0.68205 0.0
C789 C 0.18817 0.4222 0.58381 0.0
O790 O 0.16091 0.40081 0.57624 0.0
H791 H 0.13523 0.35551 0.62924 0.0
H792 H 0.23303 0.4014 0.63519 0.0
N793 N 0.13468 0.4303 0.62574 0.0
N794 N 0.10937 0.4633 0.61997 0.0
C795 C 0.13248 0.45103 0.61325 0.0
C796 C 0.111 0.42883 0.64007 0.0
C797 C 0.09545 0.4491 0.63658 0.0
C798 C 0.18493 0.43243 0.70011 0.0
O799 O 0.16267 0.40756 0.68894 0.0
H800 H 0.15098 0.45979 0.6034 0.0
H801 H 0.10842 0.41666 0.65547 0.0
O802 O 0.2016 0.43701 0.61183 0.0
H803 H 0.23178 0.34926 0.62738 0.0
H804 H 0.07791 0.4548 0.648 0.0
Cu805 Cu 0.63512 0.12445 0.64098 0.0
N806 N 0.61865 0.09668 0.60308 0.0
N807 N 0.60945 0.08046 0.55279 0.0
C808 C 0.63174 0.09725 0.58008 0.0
C809 C 0.5813 0.06844 0.55884 0.0
C810 C 0.58712 0.07837 0.58987 0.0
O811 O 0.68074 0.14758 0.64408 0.0
C812 C 0.57285 0.13126 0.64839 0.0
O813 O 0.57218 0.1087 0.65654 0.0
H814 H 0.6557 0.11181 0.58263 0.0
H815 H 0.56859 0.07433 0.60149 0.0
N816 N 0.64216 0.11057 0.67453 0.0
N817 N 0.6494 0.1092 0.72245 0.0
C818 C 0.64198 0.12346 0.70255 0.0
C819 C 0.65031 0.08744 0.67693 0.0
C820 C 0.65493 0.08659 0.70655 0.0
C821 C 0.70266 0.13467 0.64146 0.0
O822 O 0.69338 0.10776 0.63683 0.0
H823 H 0.63629 0.14287 0.70823 0.0
H824 H 0.65283 0.07231 0.65848 0.0
O825 O 0.59883 0.1426 0.64147 0.0
H826 H 0.55752 0.05493 0.54179 0.0
H827 H 0.66126 0.07046 0.71562 0.0
Cu828 Cu 0.90271 0.40723 0.39753 0.0
N829 N 0.88113 0.36853 0.38249 0.0
N830 N 0.87332 0.3227 0.37067 0.0
C831 C 0.89525 0.34834 0.38676 0.0
C832 C 0.84431 0.32697 0.35595 0.0
C833 C 0.84907 0.35514 0.3635 0.0
O834 O 0.92894 0.41704 0.44159 0.0
C835 C 0.91105 0.40881 0.34059 0.0
O836 O 0.88231 0.38852 0.33091 0.0
H837 H 0.92126 0.35233 0.40088 0.0
H838 H 0.83074 0.36523 0.35507 0.0
N839 N 0.87136 0.42744 0.39626 0.0
N840 N 0.85228 0.46377 0.39314 0.0
C841 C 0.87444 0.45024 0.38694 0.0
C842 C 0.84631 0.42652 0.40894 0.0
C843 C 0.83456 0.44898 0.40712 0.0
C844 C 0.91398 0.40656 0.45852 0.0
O845 O 0.88362 0.38816 0.44555 0.0
H846 H 0.89393 0.45775 0.37734 0.0
H847 H 0.83825 0.41141 0.42001 0.0
O848 O 0.92683 0.41887 0.36945 0.0
H849 H 0.82137 0.31079 0.34068 0.0
H850 H 0.81526 0.45452 0.41617 0.0
Cu851 Cu 0.64485 0.89691 0.36873 0.0
N852 N 0.66209 0.91675 0.41053 0.0
N853 N 0.67139 0.92642 0.46082 0.0
C854 C 0.65485 0.9074 0.43314 0.0
C855 C 0.68983 0.94856 0.45563 0.0
C856 C 0.68413 0.9425 0.42455 0.0
O857 O 0.59811 0.87438 0.36112 0.0
C858 C 0.70432 0.89068 0.36023 0.0
O859 O 0.7113 0.91775 0.36783 0.0
H860 H 0.63787 0.88706 0.42942 0.0
H861 H 0.69555 0.95586 0.41306 0.0
N862 N 0.6452 0.92044 0.34421 0.0
N863 N 0.65024 0.93394 0.30385 0.0
C864 C 0.6461 0.91262 0.31548 0.0
C865 C 0.6484 0.94772 0.35083 0.0
C866 C 0.6515 0.95614 0.32578 0.0
C867 C 0.57263 0.87501 0.34058 0.0
O868 O 0.57767 0.88693 0.31991 0.0
H869 H 0.64396 0.89165 0.30338 0.0
H870 H 0.64908 0.96066 0.37245 0.0
O871 O 0.6754 0.87596 0.35934 0.0
H872 H 0.70642 0.96755 0.4731 0.0
H873 H 0.65469 0.97685 0.32385 0.0
Cu874 Cu 0.14008 0.6408 0.39701 0.0
N875 N 0.10674 0.60675 0.38741 0.0
N876 N 0.08836 0.56165 0.38286 0.0
C877 C 0.11193 0.58636 0.39928 0.0
C878 C 0.06698 0.56675 0.36 0.0
C879 C 0.0782 0.59467 0.36303 0.0
O880 O 0.16803 0.6496 0.44009 0.0
C881 C 0.14718 0.6315 0.33884 0.0
O882 O 0.11661 0.63449 0.3326 0.0
H883 H 0.13443 0.589 0.41782 0.0
H884 H 0.06785 0.60489 0.34714 0.0
N885 N 0.12012 0.6691 0.39367 0.0
N886 N 0.11366 0.71033 0.39225 0.0
C887 C 0.13445 0.69422 0.39136 0.0
C888 C 0.08923 0.66936 0.39584 0.0
C889 C 0.08521 0.69476 0.39504 0.0
C890 C 0.15176 0.64973 0.45935 0.0
O891 O 0.11856 0.64479 0.44954 0.0
H892 H 0.1599 0.70086 0.38992 0.0
H893 H 0.07123 0.65245 0.39858 0.0
O894 O 0.16392 0.63489 0.36659 0.0
H895 H 0.04611 0.55113 0.34141 0.0
H896 H 0.06334 0.70151 0.39683 0.0
Cu897 Cu 0.40051 0.18204 0.38872 0.0
N898 N 0.39397 0.19457 0.35363 0.0
N899 N 0.38905 0.19454 0.30518 0.0
C900 C 0.38726 0.17897 0.32444 0.0
C901 C 0.39674 0.22088 0.32293 0.0
C902 C 0.39972 0.22084 0.35263 0.0
O903 O 0.43602 0.16305 0.38892 0.0
C904 C 0.32831 0.16492 0.3776 0.0
O905 O 0.32592 0.17464 0.35419 0.0
H906 H 0.38296 0.15679 0.31773 0.0
H907 H 0.40711 0.23885 0.37237 0.0
N908 N 0.41718 0.20994 0.42698 0.0
N909 N 0.42581 0.22438 0.47765 0.0
C910 C 0.40353 0.20876 0.44973 0.0
C911 C 0.44905 0.2275 0.44109 0.0
C912 C 0.45444 0.23636 0.4722 0.0
C913 C 0.46195 0.17401 0.38175 0.0
O914 O 0.46283 0.19644 0.37331 0.0
H915 H 0.37891 0.19462 0.44634 0.0
H916 H 0.46802 0.2317 0.42997 0.0
O917 O 0.35646 0.16127 0.39062 0.0
H918 H 0.40117 0.23898 0.31515 0.0
H919 H 0.47827 0.24919 0.48967 0.0
Cu920 Cu 0.69071 0.94136 0.66836 0.0
N921 N 0.67513 0.92244 0.6263 0.0
N922 N 0.66648 0.91428 0.57625 0.0
C923 C 0.68204 0.93293 0.60427 0.0
C924 C 0.64904 0.89122 0.58062 0.0
C925 C 0.65441 0.89632 0.61156 0.0
O926 O 0.74022 0.95611 0.68115 0.0
C927 C 0.6349 0.95875 0.66527 0.0
O928 O 0.62143 0.93183 0.65259 0.0
H929 H 0.69802 0.95381 0.60864 0.0
H930 H 0.64367 0.88207 0.62251 0.0
N931 N 0.68023 0.91788 0.69155 0.0
N932 N 0.67004 0.90484 0.73089 0.0
C933 C 0.6727 0.92519 0.71758 0.0
C934 C 0.68208 0.89189 0.68825 0.0
C935 C 0.67603 0.88387 0.7126 0.0
C936 C 0.75529 0.93797 0.67553 0.0
O937 O 0.73693 0.91209 0.66091 0.0
H938 H 0.66999 0.94525 0.72699 0.0
H939 H 0.68793 0.8797 0.66972 0.0
O940 O 0.66723 0.96915 0.6747 0.0
H941 H 0.63356 0.87217 0.5627 0.0
H942 H 0.67598 0.86421 0.71664 0.0
Cu943 Cu 0.64333 0.12664 0.38259 0.0
N944 N 0.63751 0.11413 0.34064 0.0
N945 N 0.63862 0.11448 0.29384 0.0
C946 C 0.64809 0.12956 0.32353 0.0
C947 C 0.62183 0.08856 0.29228 0.0
C948 C 0.6213 0.08837 0.32119 0.0
O949 O 0.69161 0.1488 0.40396 0.0
C950 C 0.57816 0.13491 0.37155 0.0
O951 O 0.57067 0.1133 0.34764 0.0
H952 H 0.66167 0.15154 0.33246 0.0
H953 H 0.60936 0.07083 0.32751 0.0
N954 N 0.63563 0.0976 0.39963 0.0
N955 N 0.62863 0.08052 0.43762 0.0
C956 C 0.62127 0.09818 0.42192 0.0
C957 C 0.65167 0.07815 0.40056 0.0
C958 C 0.64758 0.06772 0.42411 0.0
C959 C 0.71423 0.13832 0.39729 0.0
O960 O 0.70428 0.11437 0.37597 0.0
H961 H 0.60887 0.11342 0.42872 0.0
H962 H 0.66774 0.07358 0.38699 0.0
O963 O 0.6092 0.1455 0.38912 0.0
H964 H 0.61024 0.07117 0.27158 0.0
H965 H 0.65966 0.05338 0.43212 0.0
Cu966 Cu 0.8854 0.65008 0.39667 0.0
N967 N 0.85899 0.61263 0.37829 0.0
N968 N 0.84627 0.5668 0.37104 0.0
C969 C 0.86252 0.59239 0.39111 0.0
C970 C 0.8318 0.57102 0.34443 0.0
C971 C 0.83957 0.59928 0.34898 0.0
O972 O 0.9083 0.65367 0.43933 0.0
C973 C 0.89896 0.66394 0.34702 0.0
O974 O 0.86588 0.65973 0.33947 0.0
H975 H 0.87895 0.59626 0.41407 0.0
H976 H 0.8331 0.6092 0.33162 0.0
N977 N 0.86094 0.6757 0.39852 0.0
N978 N 0.854 0.71764 0.40437 0.0
C979 C 0.87639 0.70306 0.40563 0.0
C980 C 0.82744 0.67276 0.39281 0.0
C981 C 0.82307 0.69878 0.39651 0.0
C982 C 0.88848 0.65052 0.45537 0.0
O983 O 0.85554 0.64496 0.44218 0.0
H984 H 0.90359 0.71208 0.41084 0.0
H985 H 0.80765 0.65315 0.38594 0.0
O986 O 0.91442 0.66054 0.37214 0.0
H987 H 0.8178 0.55484 0.32299 0.0
H988 H 0.7991 0.70343 0.39286 0.0
Cu989 Cu 0.39978 0.90427 0.36068 0.0
N990 N 0.40846 0.92769 0.33679 0.0
N991 N 0.42356 0.9421 0.29982 0.0
C992 C 0.43026 0.92842 0.32047 0.0
C993 C 0.39759 0.95144 0.30415 0.0
C994 C 0.38853 0.94272 0.32713 0.0
O995 O 0.42544 0.87763 0.3584 0.0
C996 C 0.32759 0.88135 0.32611 0.0
O997 O 0.33598 0.87936 0.3011 0.0
H998 H 0.44858 0.91706 0.32141 0.0
H999 H 0.36702 0.94514 0.33447 0.0
N1000 N 0.41617 0.92447 0.40176 0.0
N1001 N 0.42849 0.93175 0.45185 0.0
C1002 C 0.41388 0.91293 0.42403 0.0
C1003 C 0.43293 0.9516 0.41597 0.0
C1004 C 0.44053 0.9562 0.44715 0.0
C1005 C 0.43446 0.86846 0.33554 0.0
O1006 O 0.41587 0.86688 0.30817 0.0
H1007 H 0.40177 0.8911 0.41992 0.0
H1008 H 0.43927 0.96682 0.4045 0.0
O1009 O 0.35074 0.88898 0.35196 0.0
H1010 H 0.38418 0.96162 0.28988 0.0
H1011 H 0.45381 0.97578 0.46493 0.0
Cu1012 Cu 0.15746 0.40812 0.40231 0.0
N1013 N 0.14057 0.36912 0.38864 0.0
N1014 N 0.13707 0.32427 0.38055 0.0
C1015 C 0.15752 0.35077 0.39394 0.0
C1016 C 0.10619 0.326 0.36646 0.0
C1017 C 0.10839 0.35364 0.37158 0.0
O1018 O 0.18757 0.42087 0.44478 0.0
C1019 C 0.16541 0.41058 0.34545 0.0
O1020 O 0.14181 0.38636 0.33517 0.0
H1021 H 0.18416 0.35666 0.40743 0.0
H1022 H 0.08797 0.36194 0.36342 0.0
N1023 N 0.12236 0.42415 0.40279 0.0
N1024 N 0.09946 0.45866 0.40106 0.0
C1025 C 0.11789 0.44382 0.3894 0.0
C1026 C 0.1054 0.4262 0.42322 0.0
C1027 C 0.09137 0.44757 0.42228 0.0
C1028 C 0.1775 0.4094 0.46331 0.0
O1029 O 0.14971 0.38808 0.45275 0.0
H1030 H 0.13134 0.44946 0.37413 0.0
H1031 H 0.10593 0.41491 0.43971 0.0
O1032 O 0.1783 0.42242 0.37424 0.0
H1033 H 0.08364 0.30847 0.35361 0.0
H1034 H 0.07855 0.45572 0.43759 0.0
Cu1035 Cu 0.39861 0.1859 0.65747 0.0
N1036 N 0.40532 0.21223 0.63623 0.0
N1037 N 0.40921 0.22534 0.59483 0.0
C1038 C 0.41835 0.20968 0.61283 0.0
C1039 C 0.39005 0.23849 0.60768 0.0
C1040 C 0.38768 0.23039 0.63304 0.0
O1041 O 0.42694 0.1622 0.64708 0.0
C1042 C 0.32959 0.15064 0.64973 0.0
O1043 O 0.34032 0.12889 0.64958 0.0
H1044 H 0.43149 0.19467 0.60734 0.0
H1045 H 0.37153 0.23533 0.64642 0.0
N1046 N 0.41134 0.19989 0.70035 0.0
N1047 N 0.41203 0.19898 0.74752 0.0
C1048 C 0.40545 0.18383 0.71836 0.0
C1049 C 0.42185 0.22618 0.71885 0.0
C1050 C 0.42253 0.22567 0.74806 0.0
C1051 C 0.45892 0.17208 0.66224 0.0
O1052 O 0.46925 0.19471 0.68553 0.0
H1053 H 0.39564 0.16143 0.71004 0.0
H1054 H 0.42749 0.2444 0.71145 0.0
O1055 O 0.34888 0.17234 0.64766 0.0
H1056 H 0.37686 0.25162 0.59822 0.0
H1057 H 0.4296 0.24345 0.76801 0.0
Cu1058 Cu 0.95692 0.43574 0.653 0.0
N1059 N 0.97511 0.4109 0.67046 0.0
N1060 N 0.97892 0.37179 0.68158 0.0
C1061 C 0.9586 0.38408 0.66633 0.0
C1062 C 1.00951 0.39136 0.6955 0.0
C1063 C 1.00713 0.41539 0.68853 0.0
O1064 O 0.9106 0.43093 0.65531 0.0
C1065 C 0.93647 0.43351 0.589 0.0
O1066 O 0.91514 0.44641 0.59627 0.0
H1067 H 0.93245 0.37359 0.65194 0.0
H1068 H 1.02754 0.43466 0.69582 0.0
N1069 N 0.98256 0.47351 0.67264 0.0
N1070 N 0.99933 0.51969 0.68194 0.0
C1071 C 0.97996 0.49488 0.66136 0.0
C1072 C 1.0043 0.48543 0.70141 0.0
C1073 C 1.01465 0.51388 0.7072 0.0
C1074 C 0.89563 0.42957 0.6755 0.0
O1075 O 0.86266 0.42599 0.66705 0.0
H1076 H 0.96316 0.49246 0.639 0.0
H1077 H 1.01096 0.47437 0.71759 0.0
O1078 O 0.956 0.42699 0.60968 0.0
H1079 H 1.03194 0.3884 0.70955 0.0
H1080 H 1.0312 0.52918 0.72857 0.0
Cu1081 Cu 0.14814 0.65276 0.63331 0.0
N1082 N 0.1175 0.61607 0.61575 0.0
N1083 N 0.10327 0.5696 0.60617 0.0
C1084 C 0.12057 0.59477 0.62709 0.0
C1085 C 0.08859 0.57525 0.58055 0.0
C1086 C 0.09727 0.60373 0.5865 0.0
O1087 O 0.17226 0.65474 0.67533 0.0
C1088 C 0.15884 0.6613 0.58052 0.0
O1089 O 0.1287 0.66481 0.57745 0.0
H1090 H 0.13736 0.59749 0.64954 0.0
H1091 H 0.09148 0.6145 0.56984 0.0
N1092 N 0.12951 0.68276 0.63796 0.0
N1093 N 0.13008 0.72738 0.65052 0.0
C1094 C 0.14755 0.7095 0.64335 0.0
C1095 C 0.09941 0.6838 0.64166 0.0
C1096 C 0.09977 0.71123 0.64951 0.0
C1097 C 0.15202 0.65014 0.69075 0.0
O1098 O 0.11925 0.64523 0.67748 0.0
H1099 H 0.17359 0.71586 0.64322 0.0
H1100 H 0.07914 0.66605 0.64003 0.0
O1101 O 0.17447 0.65699 0.60501 0.0
H1102 H 0.07418 0.55987 0.55863 0.0
H1103 H 0.07966 0.71882 0.65483 0.0
C1104 C 0.19619 1.01302 0.38171 0.0
C1105 C 0.16829 0.99677 0.38734 0.0
C1106 C 0.13873 1.03177 0.38284 0.0
C1107 C 0.16789 0.04918 0.37978 0.0
N1108 N 0.22587 0.05796 0.37965 0.0
N1109 N 0.11438 0.99092 0.39617 0.0
C1110 C 0.197 0.04014 0.37998 0.0
C1111 C 0.13992 1.00627 0.38876 0.0
N1112 N 0.22157 1.00213 0.37746 0.0
N1113 N 0.10946 0.03913 0.37864 0.0
H1114 H 0.11443 0.97193 0.39988 0.0
H1115 H 0.09437 0.99769 0.40052 0.0
H1116 H 0.10766 0.05726 0.37343 0.0
H1117 H 0.08624 1.02632 0.37773 0.0
H1118 H 0.24101 1.01145 0.37004 0.0
H1119 H 0.22181 0.98257 0.37931 0.0
H1120 H 0.24904 0.05375 0.38259 0.0
H1121 H 0.22736 0.07799 0.37875 0.0
C1122 C 0.05139 0.15295 0.39687 0.0
C1123 C 0.07665 0.16561 0.42616 0.0
C1124 C 1.03308 0.17962 0.44666 0.0
C1125 C 1.00789 0.16575 0.41765 0.0
N1126 N 0.99136 0.1313 0.36866 0.0
N1127 N 0.08938 0.18527 0.48047 0.0
C1128 C 1.01656 0.14973 0.39402 0.0
C1129 C 0.06679 0.17717 0.45158 0.0
N1130 N 0.06048 0.14605 0.37118 0.0
N1131 N 1.02533 0.19604 0.46907 0.0
H1132 H 0.11373 0.183 0.4849 0.0
H1133 H 0.08288 0.19163 0.50007 0.0
H1134 H 1.00084 0.19774 0.46632 0.0
H1135 H 0.04354 0.20921 0.48952 0.0
H1136 H 0.04302 0.13945 0.3492 0.0
H1137 H 0.08564 0.14997 0.3713 0.0
H1138 H 0.99619 0.11729 0.35201 0.0
H1139 H 0.96549 0.12785 0.36611 0.0
C1140 C 0.88084 1.00536 0.38674 0.0
C1141 C 0.91087 0.99861 0.38492 0.0
C1142 C 0.92987 0.03992 0.36933 0.0
C1143 C 0.89939 0.04624 0.37026 0.0
N1144 N 0.84451 0.03456 0.37719 0.0
N1145 N 0.96225 1.00699 0.37165 0.0
C1146 C 0.8744 1.02872 0.37814 0.0
C1147 C 0.93497 1.0153 0.37546 0.0
N1148 N 0.85916 0.98979 0.39767 0.0
N1149 N 0.95403 0.05786 0.36295 0.0
H1150 H 0.96647 0.98917 0.37623 0.0
H1151 H 0.97958 1.01662 0.3624 0.0
H1152 H 0.95005 0.07527 0.35711 0.0
H1153 H 0.97836 0.05636 0.36465 0.0
H1154 H 0.83811 0.99451 0.40214 0.0
H1155 H 0.86338 0.97259 0.40392 0.0
H1156 H 0.82367 1.02161 0.37996 0.0
H1157 H 0.83987 0.05207 0.37208 0.0
C1158 C 1.00049 0.91552 0.33569 0.0
C1159 C 0.97349 0.89054 0.32799 0.0
C1160 C 1.01381 0.86362 0.32524 0.0
C1161 C 0.04064 0.88864 0.33352 0.0
N1162 N 0.05808 0.93683 0.33692 0.0
N1163 N 0.95261 0.84075 0.30781 0.0
C1164 C 1.0333 0.91403 0.33526 0.0
C1165 C 0.9796 0.86452 0.32013 0.0
N1166 N 0.99581 0.9407 0.34596 0.0
N1167 N 1.02126 0.83928 0.32401 0.0
H1168 H 0.92738 0.84095 0.30365 0.0
H1169 H 0.95494 0.82125 0.2992 0.0
H1170 H 0.04586 0.83789 0.32663 0.0
H1171 H 1.00352 0.82083 0.32183 0.0
H1172 H 1.01572 0.95926 0.35541 0.0
H1173 H 0.97265 0.94311 0.34759 0.0
H1174 H 0.05366 0.95547 0.33558 0.0
H1175 H 0.08217 0.936 0.33632 0.0
C1176 C 0.17054 1.03058 0.66852 0.0
C1177 C 0.20141 1.02388 0.67139 0.0
C1178 C 0.22136 0.06035 0.64908 0.0
C1179 C 0.18927 0.06551 0.64389 0.0
N1180 N 0.13128 0.05224 0.64392 0.0
N1181 N 0.25484 1.02991 0.66166 0.0
C1182 C 0.16335 0.0498 0.65252 0.0
C1183 C 0.22649 0.03817 0.66094 0.0
N1184 N 0.14833 1.01872 0.6816 0.0
N1185 N 0.24728 0.07726 0.64358 0.0
H1186 H 0.25949 1.01431 0.67099 0.0
H1187 H 0.27254 0.03716 0.65144 0.0
H1188 H 0.24441 0.09361 0.63502 0.0
H1189 H 0.27228 0.07654 0.64964 0.0
H1190 H 0.12685 1.02458 0.68314 0.0
H1191 H 0.15299 1.00446 0.69315 0.0
H1192 H 0.11031 0.03958 0.64686 0.0
H1193 H 0.12494 0.06525 0.63116 0.0
C1194 C 1.00451 0.14274 0.6271 0.0
C1195 C 0.9969 0.16804 0.62902 0.0
C1196 C 0.05475 0.19005 0.62976 0.0
C1197 C 0.0646 0.16692 0.63568 0.0
N1198 N 0.04811 0.12019 0.63851 0.0
N1199 N 1.01312 0.21525 0.62899 0.0
C1200 C 0.03912 0.14263 0.63316 0.0
C1201 C 1.02143 0.19141 0.62879 0.0
N1202 N 0.97842 0.11898 0.61973 0.0
N1203 N 0.07703 0.21034 0.62434 0.0
H1204 H 0.98817 0.21584 0.62609 0.0
H1205 H 1.03082 0.23427 0.63284 0.0
H1206 H 0.10092 0.2092 0.62347 0.0
H1207 H 0.07061 0.22664 0.61756 0.0
H1208 H 0.98137 0.09928 0.61521 0.0
H1209 H 0.95312 0.11907 0.61493 0.0
H1210 H 1.03113 0.1029 0.63976 0.0
H1211 H 0.0731 0.11939 0.64354 0.0
C1212 C 0.94737 0.07326 0.66093 0.0
C1213 C 0.91695 0.07856 0.66385 0.0
C1214 C 0.88701 1.02851 0.64441 0.0
C1215 C 0.91631 1.02345 0.63798 0.0
N1216 N 0.9734 0.04108 0.63735 0.0
N1217 N 0.857 0.06202 0.6561 0.0
C1218 C 0.94634 0.0459 0.64569 0.0
C1219 C 0.8865 0.05635 0.65489 0.0
N1220 N 0.97731 0.09443 0.67324 0.0
N1221 N 0.86045 1.00674 0.6421 0.0
H1222 H 0.85631 0.08215 0.66469 0.0
H1223 H 0.83309 0.04711 0.64686 0.0
H1224 H 0.86064 0.98626 0.63579 0.0
H1225 H 0.83976 1.00906 0.64923 0.0
H1226 H 1.00108 0.09151 0.67518 0.0
H1227 H 0.97849 0.11476 0.6836 0.0
H1228 H 0.99499 0.05675 0.6397 0.0
H1229 H 0.97302 1.02133 0.62575 0.0
C1230 C 0.07869 0.94136 0.66121 0.0
C1231 C 0.08917 0.9183 0.66559 0.0
C1232 C 0.03875 0.90144 0.68025 0.0
C1233 C 1.03072 0.92658 0.67989 0.0
N1234 N 0.04766 0.97287 0.67584 0.0
N1235 N 0.082 0.87801 0.683 0.0
C1236 C 0.05194 0.94717 0.67183 0.0
C1237 C 0.06994 0.89879 0.67613 0.0
N1238 N 0.09458 0.95788 0.64715 0.0
N1239 N 1.01621 0.87948 0.68301 0.0
H1240 H 0.1038 0.87455 0.67876 0.0
H1241 H 0.07163 0.86537 0.69461 0.0
H1242 H 0.99296 0.87979 0.68603 0.0
H1243 H 1.01918 0.85978 0.67946 0.0
H1244 H 0.08596 0.97351 0.64066 0.0
H1245 H 0.1143 0.95403 0.63923 0.0
H1246 H 0.0643 0.98946 0.67301 0.0
H1247 H 1.02968 0.9785 0.68529 0.0
C1248 C 0.35121 0.17501 1.01608 0.0
C1249 C 0.34924 0.15274 0.02911 0.0
C1250 C 0.35631 0.12421 0.98336 0.0
C1251 C 0.35531 0.14562 0.96932 0.0
N1252 N 0.34278 0.18856 0.96979 0.0
N1253 N 0.34107 0.10388 0.02105 0.0
C1254 C 0.34987 0.1701 0.9849 0.0
C1255 C 0.34897 0.12663 1.0114 0.0
N1256 N 0.35672 0.20137 0.03375 0.0
N1257 N 0.36643 0.10232 0.97118 0.0
H1258 H 0.33456 0.10465 0.04092 0.0
H1259 H 0.3373 0.08383 1.0077 0.0
H1260 H 0.37376 0.10013 0.95166 0.0
H1261 H 0.37105 0.0878 0.98229 0.0
H1262 H 0.36187 0.21861 0.02605 0.0
H1263 H 0.35983 0.20669 0.05696 0.0
H1264 H 0.33521 0.20536 0.97903 0.0
H1265 H 0.34081 0.1854 0.94684 0.0
C1266 C 0.92905 0.44434 1.0065 0.0
C1267 C 0.93068 0.46888 0.99783 0.0
C1268 C 0.93131 0.49286 0.04913 0.0
C1269 C 0.92461 0.46733 0.056 0.0
N1270 N 0.90713 0.41734 0.03635 0.0
N1271 N 0.92649 0.51527 1.0094 0.0
C1272 C 0.92074 0.44261 0.03334 0.0
C1273 C 0.92996 0.49287 0.01879 0.0
N1274 N 0.93681 0.42303 0.98989 0.0
N1275 N 0.93995 0.5172 0.07178 0.0
H1276 H 0.92387 0.5155 0.98704 0.0
H1277 H 0.92263 0.53235 0.02284 0.0
H1278 H 0.94276 0.51801 0.09445 0.0
H1279 H 0.9478 0.53655 0.06867 0.0
H1280 H 0.9385 0.40558 0.99671 0.0
H1281 H 0.9457 0.42439 0.97157 0.0
H1282 H 0.90124 0.39881 0.01912 0.0
H1283 H 0.89769 0.41505 0.05414 0.0
C1284 C 0.68786 0.89047 1.00019 0.0
C1285 C 0.67615 0.91105 0.98965 0.0
C1286 C 0.68311 0.93671 0.0422 0.0
C1287 C 0.6874 0.91334 0.05114 0.0
N1288 N 0.70783 0.87411 0.04365 0.0
N1289 N 0.66793 0.95608 1.00043 0.0
C1290 C 0.69468 0.89227 0.03164 0.0
C1291 C 0.67639 0.93536 1.01081 0.0
N1292 N 0.69057 0.86861 0.97968 0.0
N1293 N 0.68496 0.95975 0.06392 0.0
H1294 H 0.66429 0.95588 0.97781 0.0
H1295 H 0.66427 0.97324 1.01382 0.0
H1296 H 0.69159 0.96081 0.08696 0.0
H1297 H 0.68299 0.97822 0.05984 0.0
H1298 H 0.69598 0.85143 0.98493 0.0
H1299 H 0.68698 0.86771 0.95685 0.0
H1300 H 0.71476 0.8583 0.03141 0.0
H1301 H 0.71469 0.87689 0.0671 0.0
C1302 C 0.15135 0.60469 0.9977 0.0
C1303 C 0.14137 0.58282 0.97006 0.0
C1304 C 0.12331 0.54965 0.99679 0.0
C1305 C 0.12965 0.57194 0.02318 0.0
N1306 N 0.13879 0.62092 0.04414 0.0
N1307 N 0.11039 0.53493 0.9418 0.0
C1308 C 0.14032 0.59957 0.02222 0.0
C1309 C 0.12511 0.55535 0.96915 0.0
N1310 N 0.17313 0.62991 1.00146 0.0
N1311 N 0.11695 0.52318 0.99837 0.0
H1312 H 0.10964 0.53876 0.92107 0.0
H1313 H 0.09583 0.51504 0.93953 0.0
H1314 H 0.1165 0.51844 0.01847 0.0
H1315 H 0.11557 0.50644 0.98066 0.0
H1316 H 0.18315 0.64569 0.02225 0.0
H1317 H 0.1846 0.6338 0.98528 0.0
H1318 H 0.14407 0.64121 0.04311 0.0
H1319 H 0.12813 0.61774 0.06104 0.0
C1320 C 0.48305 0.9039 0.03405 0.0
C1321 C 0.47406 0.92546 0.0512 0.0
C1322 C 0.4655 0.94532 1.00889 0.0
C1323 C 0.47096 0.92219 0.99059 0.0
N1324 N 0.49368 0.88382 0.98704 0.0
N1325 N 0.46749 0.97082 0.05944 0.0
C1326 C 0.4831 0.90306 1.00381 0.0
C1327 C 0.46919 0.94772 0.04006 0.0
N1328 N 0.48948 0.88351 0.04619 0.0
N1329 N 0.45534 0.96422 0.99593 0.0
H1330 H 0.471 0.97286 0.08248 0.0
H1331 H 0.46585 0.98871 0.05368 0.0
H1332 H 0.45442 0.96375 0.97364 0.0
H1333 H 0.44715 0.97989 1.0068 0.0
H1334 H 0.4929 0.86556 0.03414 0.0
H1335 H 0.49073 0.88454 0.06868 0.0
H1336 H 0.50475 0.87016 0.99562 0.0
H1337 H 0.49369 0.88305 0.96489 0.0
C1338 C 0.17766 0.46215 0.02069 0.0
C1339 C 0.18813 0.48813 1.01546 0.0
C1340 C 0.19057 0.5116 0.06747 0.0
C1341 C 0.17657 0.4856 0.0713 0.0
N1342 N 0.14788 0.43666 0.04776 0.0
N1343 N 0.19805 0.53742 0.03182 0.0
C1344 C 0.16741 0.46101 0.04673 0.0
C1345 C 0.19264 0.51285 0.0383 0.0
N1346 N 0.17947 0.43876 1.00195 0.0
N1347 N 0.2034 0.53493 0.09203 0.0
H1348 H 0.19857 0.53875 1.01034 0.0
H1349 H 0.19847 0.55579 0.04658 0.0
H1350 H 0.20324 0.53457 0.11385 0.0
H1351 H 0.21716 0.55396 0.09127 0.0
H1352 H 0.17487 0.41978 1.00642 0.0
H1353 H 0.18951 0.43896 0.98412 0.0
H1354 H 0.138 0.41861 0.02924 0.0
H1355 H 0.13827 0.43538 0.0657 0.0
C1356 C 0.66613 0.14281 0.03254 0.0
C1357 C 0.66226 0.16533 0.05336 0.0
C1358 C 0.66018 0.19103 1.01581 0.0
C1359 C 0.66018 0.16739 0.99392 0.0
N1360 N 0.67479 0.12504 0.98393 0.0
N1361 N 0.6668 0.2136 0.06881 0.0
C1362 C 0.66739 0.14477 1.00328 0.0
C1363 C 0.66337 0.19049 0.04628 0.0
N1364 N 0.66612 0.11891 0.03988 0.0
N1365 N 0.65549 0.21343 1.00689 0.0
H1366 H 0.66942 0.21337 0.09121 0.0
H1367 H 0.67002 0.23325 0.06614 0.0
H1368 H 0.65499 0.21477 0.98519 0.0
H1369 H 0.65123 0.23019 0.02044 0.0
H1370 H 0.66428 0.10046 0.02439 0.0
H1371 H 0.66681 0.1173 0.06148 0.0
H1372 H 0.68253 0.10888 0.98986 0.0
H1373 H 0.67653 0.12659 0.96284 0.0
C1374 C 0.89483 0.65007 0.99836 0.0
C1375 C 0.92524 0.65286 0.99068 0.0
C1376 C 0.95932 0.6728 0.04499 0.0
C1377 C 0.92899 0.67227 0.0524 0.0
N1378 N 0.86825 0.6633 0.03676 0.0
N1379 N 0.98634 0.6681 1.00546 0.0
C1380 C 0.89678 0.66153 0.02921 0.0
C1381 C 0.95752 0.66456 1.01373 0.0
N1382 N 0.86419 0.63619 0.97601 0.0
N1383 N 0.98958 0.6803 0.06799 0.0
H1384 H 0.9855 0.66096 0.98281 0.0
H1385 H 1.01073 0.67911 0.02059 0.0
H1386 H 0.99142 0.68636 0.09101 0.0
H1387 H 1.01234 0.67875 0.06447 0.0
H1388 H 0.84107 0.63097 0.98023 0.0
H1389 H 0.86219 0.6283 0.95316 0.0
H1390 H 0.84422 0.65831 0.02081 0.0
H1391 H 0.86917 0.67183 0.0592 0.0
C1392 C 0.0453 0.37596 0.14466 0.0
C1393 C 0.07017 0.40254 0.15686 0.0
C1394 C 1.02678 0.42372 0.16778 0.0
C1395 C 1.00145 0.39742 0.15383 0.0
N1396 N 0.98512 0.34904 0.12602 0.0
N1397 N 0.08417 0.45231 0.17705 0.0
C1398 C 1.01031 0.37365 0.14142 0.0
C1399 C 0.06069 0.42658 0.16733 0.0
N1400 N 0.05531 0.35293 0.13669 0.0
N1401 N 1.01885 0.44577 0.183 0.0
H1402 H 0.10993 0.45555 0.17963 0.0
H1403 H 0.07783 0.47069 0.1808 0.0
H1404 H 0.99436 0.44486 0.18375 0.0
H1405 H 0.03695 0.46446 0.19707 0.0
H1406 H 0.03939 0.33274 0.13074 0.0
H1407 H 0.08038 0.35405 0.13762 0.0
H1408 H 0.98908 0.33143 0.11379 0.0
H1409 H 0.95948 0.34675 0.12375 0.0
C1410 C 0.06644 0.67857 0.87066 0.0
C1411 C 0.08491 0.67156 0.89568 0.0
C1412 C 0.04324 0.67899 0.9218 0.0
C1413 C 1.0228 0.68265 0.89526 0.0
N1414 N 1.01849 0.69402 0.84864 0.0
N1415 N 0.09675 0.67276 0.94828 0.0
C1416 C 0.03589 0.6854 0.87117 0.0
C1417 C 0.07539 0.67465 0.92252 0.0
N1418 N 0.07756 0.67751 0.84596 0.0
N1419 N 1.03074 0.67811 0.94549 0.0
H1420 H 0.1203 0.66966 0.94918 0.0
H1421 H 0.09263 0.67639 0.96931 0.0
H1422 H 1.0081 0.68258 0.94583 0.0
H1423 H 0.04206 0.6725 0.96431 0.0
H1424 H 0.0638 0.67936 0.82544 0.0
H1425 H 0.10088 0.67423 0.84601 0.0
H1426 H 1.02716 0.69816 0.83106 0.0
H1427 H 0.99619 0.69908 0.84903 0.0
C1428 C 0.42221 1.01635 0.87819 0.0
C1429 C 0.41839 1.00768 0.90368 0.0
C1430 C 0.42881 0.05588 0.93345 0.0
C1431 C 0.43346 0.06462 0.90822 0.0
N1432 N 0.43825 0.05461 0.85793 0.0
N1433 N 0.42145 1.01838 0.95632 0.0
C1434 C 0.43122 0.04518 0.88093 0.0
C1435 C 0.42256 1.02728 0.93155 0.0
N1436 N 0.41637 0.99674 0.85125 0.0
N1437 N 0.43018 0.0751 0.95906 0.0
H1438 H 0.41658 0.99752 0.95519 0.0
H1439 H 0.42701 1.03148 0.97824 0.0
H1440 H 0.43591 0.09621 0.96125 0.0
H1441 H 0.42428 0.07028 0.97756 0.0
H1442 H 0.416 1.00104 0.83085 0.0
H1443 H 0.40998 0.97559 0.84887 0.0
H1444 H 0.4402 0.04219 0.83831 0.0
H1445 H 0.44398 0.07554 0.85925 0.0
C1446 C 0.05766 0.40396 0.85901 0.0
C1447 C 0.07825 0.40856 0.88949 0.0
C1448 C 1.02609 0.40292 0.9046 0.0
C1449 C 1.00666 0.40264 0.87532 0.0
N1450 N 1.00672 0.4083 0.82612 0.0
N1451 N 0.08175 0.41751 0.94277 0.0
C1452 C 1.02316 0.40451 0.85286 0.0
C1453 C 0.06237 0.4093 0.91269 0.0
N1454 N 0.07059 0.39806 0.83557 0.0
N1455 N 1.00986 0.39608 0.9245 0.0
H1456 H 0.10823 0.42303 0.95034 0.0
H1457 H 0.07164 0.42151 0.96055 0.0
H1458 H 0.98339 0.39029 0.91917 0.0
H1459 H 1.02234 0.39313 0.94486 0.0
H1460 H 0.05573 0.39179 0.81265 0.0
H1461 H 0.09512 0.39635 0.83886 0.0
H1462 H 1.01883 0.41272 0.8105 0.0
H1463 H 0.98213 0.40998 0.82085 0.0
C1464 C 0.61205 0.03805 0.88513 0.0
C1465 C 0.5841 0.04725 0.88908 0.0
C1466 C 0.55969 1.00371 0.89837 0.0
C1467 C 0.58991 0.99635 0.89869 0.0
N1468 N 0.64877 1.01115 0.9006 0.0
N1469 N 0.53433 0.04102 0.90522 0.0
C1470 C 0.61722 1.01475 0.89424 0.0
C1471 C 0.55868 1.03066 0.89732 0.0
N1472 N 0.63314 0.05106 0.87186 0.0
N1473 N 0.53153 0.98464 0.89803 0.0
H1474 H 0.53357 0.06099 0.90561 0.0
H1475 H 0.51705 1.03095 0.91427 0.0
H1476 H 0.53038 0.96409 0.89637 0.0
H1477 H 0.50827 0.98847 0.89593 0.0
H1478 H 0.65218 0.04365 0.86609 0.0
H1479 H 0.62903 0.06728 0.86349 0.0
H1480 H 0.67013 1.0254 0.90006 0.0
H1481 H 0.65453 0.99595 0.91011 0.0
C1482 C 0.06318 0.6456 0.16003 0.0
C1483 C 0.06034 0.61704 0.14965 0.0
C1484 C 1.00112 0.60496 0.1505 0.0
C1485 C 1.00358 0.63343 0.15908 0.0
N1486 N 1.03258 0.67935 0.15946 0.0
N1487 N 1.02211 0.57028 0.12466 0.0
C1488 C 1.03321 0.65329 0.1598 0.0
C1489 C 1.02787 0.5969 0.14166 0.0
N1490 N 0.09428 0.66549 0.17208 0.0
N1491 N 0.97414 0.58565 0.1518 0.0
H1492 H 0.03979 0.56413 0.1152 0.0
H1493 H 0.99836 0.55528 0.1168 0.0
H1494 H 0.95425 0.59071 0.15849 0.0
H1495 H 0.97309 0.56495 0.1488 0.0
H1496 H 0.09717 0.68625 0.18235 0.0
H1497 H 0.11738 0.66114 0.17518 0.0
H1498 H 0.05276 0.69376 0.15743 0.0
H1499 H 1.01044 0.68525 0.15725 0.0
C1500 C 0.41975 0.05445 0.0979 0.0
C1501 C 0.43216 0.07437 0.12722 0.0
C1502 C 0.42761 0.03719 0.15119 0.0
C1503 C 0.41717 1.01739 0.12199 0.0
N1504 N 0.40785 1.00663 0.06806 0.0
N1505 N 0.45142 0.08576 0.1818 0.0
C1506 C 0.41448 1.0259 0.09544 0.0
C1507 C 0.43708 0.06599 0.15393 0.0
N1508 N 0.41192 0.06289 0.07249 0.0
N1509 N 0.42757 1.02821 0.17605 0.0
H1510 H 0.45837 0.10692 0.18413 0.0
H1511 H 0.4585 0.08142 0.2024 0.0
H1512 H 0.42073 1.00721 0.17446 0.0
H1513 H 0.43207 0.04124 0.19778 0.0
H1514 H 0.39958 0.04932 0.05047 0.0
H1515 H 0.41557 0.08368 0.07367 0.0
H1516 H 0.409 1.01161 0.04825 0.0
H1517 H 0.40366 0.98557 0.06571 0.0
C1518 C 0.56867 1.00829 0.07294 0.0
C1519 C 0.59461 1.03245 0.09383 0.0
C1520 C 0.61792 1.00308 0.12174 0.0
C1521 C 0.59456 0.97875 0.09885 0.0
N1522 N 0.554 0.95893 0.0482 0.0
N1523 N 0.65067 0.05061 0.13176 0.0
C1524 C 0.57166 0.98155 0.07311 0.0
C1525 C 0.62117 1.0293 0.11657 0.0
N1526 N 0.54061 1.01079 0.05357 0.0
N1527 N 0.63645 1.00139 0.14884 0.0
H1528 H 0.65577 0.06904 0.1262 0.0
H1529 H 0.67175 0.04849 0.14685 0.0
H1530 H 0.63335 0.9828 0.15405 0.0
H1531 H 0.65173 1.01883 0.1672 0.0
H1532 H 0.52056 0.99385 0.03835 0.0
H1533 H 0.53581 1.02972 0.05488 0.0
H1534 H 0.54021 0.96041 0.02745 0.0
H1535 H 0.55646 0.93929 0.04727 0.0
C1536 C 0.67501 0.51661 0.84637 0.0
C1537 C 0.66165 0.50516 0.86691 0.0
C1538 C 0.64234 0.54584 0.88174 0.0
C1539 C 0.6554 0.55712 0.8611 0.0
N1540 N 0.68927 0.55635 0.82777 0.0
N1541 N 0.64255 0.51334 0.91086 0.0
C1542 C 0.67339 0.54339 0.84464 0.0
C1543 C 0.64848 0.5212 0.88675 0.0
N1544 N 0.68905 0.50156 0.82842 0.0
N1545 N 0.62257 0.55801 0.89546 0.0
H1546 H 0.6486 0.49649 0.91623 0.0
H1547 H 0.63566 0.52533 0.92762 0.0
H1548 H 0.61749 0.57598 0.89216 0.0
H1549 H 0.60888 0.54909 0.90797 0.0
H1550 H 0.69597 0.50684 0.81051 0.0
H1551 H 0.69315 0.48315 0.83123 0.0
H1552 H 0.70514 0.54882 0.81689 0.0
H1553 H 0.68829 0.5759 0.82638 0.0
C1554 C 0.59284 0.70969 0.94558 0.0
C1555 C 0.60347 0.68565 0.9456 0.0
C1556 C 0.54909 0.66248 0.95149 0.0
C1557 C 0.53644 0.6845 0.94614 0.0
N1558 N 0.54541 0.72844 0.9357 0.0
N1559 N 0.59235 0.63928 0.94949 0.0
C1560 C 0.55829 0.70821 0.94319 0.0
C1561 C 0.58181 0.66216 0.94909 0.0
N1562 N 0.61536 0.7338 0.94705 0.0
N1563 N 0.53 0.64217 0.95953 0.0
H1564 H 0.61703 0.63913 0.95023 0.0
H1565 H 0.5764 0.6202 0.94795 0.0
H1566 H 0.50625 0.64214 0.96189 0.0
H1567 H 0.53879 0.62683 0.96655 0.0
H1568 H 0.61044 0.75278 0.95089 0.0
H1569 H 0.64027 0.73575 0.94721 0.0
H1570 H 0.55904 0.74484 0.93029 0.0
H1571 H 0.52012 0.72797 0.93248 0.0
C1572 C 0.40879 0.50177 0.82482 0.0
C1573 C 0.41764 0.49454 0.85214 0.0
C1574 C 0.41223 0.53816 0.88048 0.0
C1575 C 0.40751 0.54689 0.85395 0.0
N1576 N 0.40758 0.53891 0.80201 0.0
N1577 N 0.43655 0.5094 0.90725 0.0
C1578 C 0.40743 0.52916 0.82634 0.0
C1579 C 0.42177 0.51371 0.88039 0.0
N1580 N 0.40084 0.48221 0.79738 0.0
N1581 N 0.40634 0.55264 0.90541 0.0
H1582 H 0.44603 0.49273 0.9082 0.0
H1583 H 0.44282 0.52398 0.92849 0.0
H1584 H 0.39767 0.56985 0.90569 0.0
H1585 H 0.40638 0.54571 0.92434 0.0
H1586 H 0.39107 0.48541 0.77648 0.0
H1587 H 0.40106 0.4619 0.79566 0.0
H1588 H 0.41069 0.52783 0.78221 0.0
H1589 H 0.40797 0.55918 0.80282 0.0
C1590 C 0.54538 0.40301 0.94873 0.0
C1591 C 0.52899 0.42377 0.9449 0.0
C1592 C 0.57708 0.4474 0.93119 0.0
C1593 C 0.59594 0.42958 0.93983 0.0
N1594 N 0.59943 0.3934 0.96338 0.0
N1595 N 0.53649 0.47051 0.94196 0.0
C1596 C 0.58061 0.4084 0.95084 0.0
C1597 C 0.54734 0.44761 0.93948 0.0
N1598 N 0.52728 0.37733 0.94787 0.0
N1599 N 0.58517 0.46208 0.91227 0.0
H1600 H 0.51607 0.47224 0.94986 0.0
H1601 H 0.55047 0.48883 0.93977 0.0
H1602 H 0.60266 0.45862 0.9011 0.0
H1603 H 0.57063 0.474 0.90393 0.0
H1604 H 0.5378 0.36108 0.94771 0.0
H1605 H 0.50104 0.3709 0.94343 0.0
H1606 H 0.59015 0.37934 0.97408 0.0
H1607 H 0.62532 0.39715 0.96595 0.0
C1608 C 0.64879 0.53524 0.15282 0.0
C1609 C 0.65764 0.55905 0.17834 0.0
C1610 C 0.68148 0.53366 0.21183 0.0
C1611 C 0.67599 0.51104 0.18598 0.0
N1612 N 0.66277 0.49412 0.13138 0.0
N1613 N 0.69048 0.58299 0.23119 0.0
C1614 C 0.66205 0.51294 0.15628 0.0
C1615 C 0.67635 0.55886 0.20763 0.0
N1616 N 0.62649 0.53329 0.12555 0.0
N1617 N 0.69012 0.53076 0.24036 0.0
H1618 H 0.68892 0.60204 0.22849 0.0
H1619 H 0.7069 0.58452 0.25234 0.0
H1620 H 0.69248 0.51224 0.2442 0.0
H1621 H 0.69137 0.54573 0.25974 0.0
H1622 H 0.6168 0.5153 0.10697 0.0
H1623 H 0.6148 0.54848 0.12261 0.0
H1624 H 0.65554 0.49588 0.10942 0.0
H1625 H 0.67438 0.47869 0.13323 0.0
C1626 C 0.51189 0.61067 0.0797 0.0
C1627 C 0.54327 0.62964 0.0826 0.0
C1628 C 0.51368 0.66303 0.07136 0.0
C1629 C 0.48403 0.64622 0.07433 0.0
N1630 N 0.45006 0.59898 0.06326 0.0
N1631 N 0.56952 0.66662 0.06545 0.0
C1632 C 0.48136 0.61818 0.07233 0.0
C1633 C 0.54266 0.65339 0.07289 0.0
N1634 N 0.51175 0.58612 0.08541 0.0
N1635 N 0.51444 0.68868 0.06857 0.0
H1636 H 0.59011 0.65905 0.0651 0.0
H1637 H 0.5696 0.68307 0.05641 0.0
H1638 H 0.49267 0.69519 0.06551 0.0
H1639 H 0.53647 0.70348 0.07008 0.0
H1640 H 0.49054 0.5728 0.08733 0.0
H1641 H 0.53359 0.57972 0.08917 0.0
H1642 H 0.44655 0.57789 0.05992 0.0
H1643 H 0.42758 0.60382 0.05557 0.0
C1644 C 0.41344 0.52683 0.15425 0.0
C1645 C 0.39912 0.51153 0.12262 0.0
C1646 C 0.39536 0.55444 0.11112 0.0
C1647 C 0.41454 0.57025 0.14194 0.0
N1648 N 0.44822 0.57113 0.19142 0.0
N1649 N 0.38595 0.513 0.07068 0.0
C1650 C 0.42562 0.55632 0.16309 0.0
C1651 C 0.3931 0.52606 0.10096 0.0
N1652 N 0.41345 0.51362 0.17596 0.0
N1653 N 0.37726 0.56574 0.09199 0.0
H1654 H 0.38623 0.49268 0.06261 0.0
H1655 H 0.38391 0.52348 0.05433 0.0
H1656 H 0.3747 0.58537 0.09934 0.0
H1657 H 0.36104 0.55415 0.06999 0.0
H1658 H 0.42107 0.52422 0.1992 0.0
H1659 H 0.40197 0.49243 0.17067 0.0
H1660 H 0.45933 0.56177 0.20679 0.0
H1661 H 0.45849 0.59265 0.19817 0.0
C1662 C 0.54465 0.40939 0.12127 0.0
C1663 C 0.56037 0.40466 0.14899 0.0
C1664 C 0.51399 0.4138 0.16757 0.0
C1665 C 0.49652 0.41561 0.13874 0.0
N1666 N 0.49011 0.40175 0.08462 0.0
N1667 N 0.55091 0.39106 0.19241 0.0
C1668 C 0.51018 0.40936 0.1144 0.0
C1669 C 0.54213 0.40321 0.17021 0.0
N1670 N 0.56227 0.41525 0.10198 0.0
N1671 N 0.5052 0.42324 0.19284 0.0
H1672 H 0.56931 0.38074 0.19339 0.0
H1673 H 0.53673 0.38807 0.20703 0.0
H1674 H 0.48684 0.43347 0.19284 0.0
H1675 H 0.51929 0.42393 0.21459 0.0
H1676 H 0.55164 0.4209 0.08289 0.0
H1677 H 0.58818 0.41768 0.10654 0.0
H1678 H 0.49904 0.39543 0.06648 0.0
H1679 H 0.4637 0.39764 0.0781 0.0
C1680 C 0.88342 0.63277 0.49958 0.0
C1681 C 0.90106 0.65299 0.4885 0.0
C1682 C 0.93641 0.67946 0.54126 0.0
C1683 C 0.91416 0.66252 0.55213 0.0
N1684 N 0.86588 0.62301 0.54188 0.0
N1685 N 0.9421 0.6979 0.49993 0.0
C1686 C 0.8877 0.63893 0.53138 0.0
C1687 C 0.92737 0.67679 0.50958 0.0
N1688 N 0.86313 0.60745 0.47977 0.0
N1689 N 0.96651 0.69786 0.56124 0.0
H1690 H 0.93565 0.6976 0.47718 0.0
H1691 H 0.95852 0.71695 0.51496 0.0
H1692 H 0.97416 0.69969 0.58447 0.0
H1693 H 0.9852 0.70902 0.55431 0.0
H1694 H 0.85216 0.59103 0.48679 0.0
H1695 H 0.86011 0.60192 0.45652 0.0
H1696 H 0.84358 0.60748 0.52757 0.0
H1697 H 0.86906 0.62649 0.56509 0.0
C1698 C 0.39989 0.91221 0.51476 0.0
C1699 C 0.43086 0.91137 0.53386 0.0
C1700 C 0.46048 0.92408 0.49871 0.0
C1701 C 0.4299 0.92632 0.4804 0.0
N1702 N 0.37182 0.92621 0.47212 0.0
N1703 N 0.49144 0.91976 0.54711 0.0
C1704 C 0.39989 0.92137 0.48875 0.0
C1705 C 0.46146 0.91825 0.5267 0.0
N1706 N 0.37054 0.90389 0.52151 0.0
N1707 N 0.48807 0.92655 0.48865 0.0
H1708 H 0.49253 0.91492 0.56745 0.0
H1709 H 0.51527 0.92739 0.54498 0.0
H1710 H 0.4879 0.93091 0.4682 0.0
H1711 H 0.51019 0.92257 0.4993 0.0
H1712 H 0.34639 0.90153 0.50728 0.0
H1713 H 0.37021 0.89757 0.54083 0.0
H1714 H 0.34985 0.92532 0.47816 0.0
H1715 H 0.37149 0.93319 0.45311 0.0
C1716 C 0.20975 0.40323 0.51158 0.0
C1717 C 0.19473 0.4203 0.4969 0.0
C1718 C 0.19497 0.4482 0.54631 0.0
C1719 C 0.20203 0.42727 0.55907 0.0
N1720 N 0.22179 0.3874 0.55637 0.0
N1721 N 0.17562 0.46069 0.50004 0.0
C1722 C 0.21194 0.40589 0.54258 0.0
C1723 C 0.18898 0.44379 0.51437 0.0
N1724 N 0.22125 0.38424 0.49547 0.0
N1725 N 0.19342 0.47188 0.56472 0.0
H1726 H 0.17214 0.45854 0.47699 0.0
H1727 H 0.16688 0.47615 0.51057 0.0
H1728 H 0.19887 0.47553 0.58822 0.0
H1729 H 0.19034 0.48885 0.55751 0.0
H1730 H 0.23439 0.37206 0.50494 0.0
H1731 H 0.21992 0.38233 0.47279 0.0
H1732 H 0.2256 0.36933 0.54508 0.0
H1733 H 0.22569 0.39024 0.57958 0.0
C1734 C 0.60711 0.05456 0.50079 0.0
C1735 C 0.61281 0.08 0.5231 0.0
C1736 C 0.63396 0.10519 0.4907 0.0
C1737 C 0.62382 0.08007 0.46663 0.0
N1738 N 0.59454 1.03099 0.44705 0.0
N1739 N 0.62155 0.12927 0.53428 0.0
C1740 C 0.60857 0.05471 0.47117 0.0
C1741 C 0.62324 0.10529 0.51658 0.0
N1742 N 0.6017 1.03044 0.50821 0.0
N1743 N 0.65533 0.12872 0.48971 0.0
H1744 H 0.61093 0.12975 0.55185 0.0
H1745 H 0.62661 0.14783 0.52894 0.0
H1746 H 0.66639 0.12892 0.47249 0.0
H1747 H 0.66541 0.14698 0.50797 0.0
H1748 H 0.60046 1.01164 0.49365 0.0
H1749 H 0.60187 1.02978 0.53002 0.0
H1750 H 0.58044 1.01239 0.4485 0.0
H1751 H 0.59414 1.03067 0.42493 0.0
C1752 C 0.93131 0.39467 0.5075 0.0
C1753 C 0.92851 0.41535 0.49279 0.0
C1754 C 0.94103 0.44915 0.54303 0.0
C1755 C 0.93777 0.42744 0.55675 0.0
N1756 N 0.92669 0.37852 0.55078 0.0
N1757 N 0.92786 0.46225 0.49654 0.0
C1758 C 0.93263 0.39996 0.53877 0.0
C1759 C 0.9331 0.44271 0.51061 0.0
N1760 N 0.9329 0.36987 0.49146 0.0
N1761 N 0.95243 0.4761 0.56111 0.0
H1762 H 0.92238 0.45864 0.47307 0.0
H1763 H 0.9265 0.48143 0.50785 0.0
H1764 H 0.95946 0.4816 0.58487 0.0
H1765 H 0.95846 0.49292 0.55292 0.0
H1766 H 0.93823 0.35482 0.50143 0.0
H1767 H 0.93235 0.36556 0.46874 0.0
H1768 H 0.91882 0.35776 0.53779 0.0
H1769 H 0.9268 0.38121 0.57322 0.0
C1770 C 0.64314 0.92717 0.53016 0.0
C1771 C 0.66819 0.91799 0.54744 0.0
C1772 C 0.6961 0.91541 0.50793 0.0
C1773 C 0.67026 0.92351 0.49007 0.0
N1774 N 0.61838 0.93577 0.48232 0.0
N1775 N 0.71725 0.90191 0.55328 0.0
C1776 C 0.64351 0.92904 0.50073 0.0
C1777 C 0.69445 0.91179 0.53646 0.0
N1778 N 0.61949 0.93451 0.54241 0.0
N1779 N 0.72221 0.91137 0.4974 0.0
H1780 H 0.7167 0.89958 0.57441 0.0
H1781 H 0.73584 0.89499 0.54613 0.0
H1782 H 0.72312 0.91289 0.47608 0.0
H1783 H 0.74356 0.90755 0.5099 0.0
H1784 H 0.60178 0.94336 0.53246 0.0
H1785 H 0.61864 0.9329 0.56372 0.0
H1786 H 0.59648 0.93803 0.48716 0.0
H1787 H 0.61884 0.93806 0.46116 0.0
C1788 C 0.17568 0.685 0.54411 0.0
C1789 C 0.1721 0.66117 0.55423 0.0
C1790 C 0.17302 0.63412 0.50481 0.0
C1791 C 0.16875 0.65613 0.49283 0.0
N1792 N 0.16922 0.70351 0.50104 0.0
N1793 N 0.16885 0.61297 0.54491 0.0
C1794 C 0.17179 0.6821 0.5127 0.0
C1795 C 0.17216 0.63585 0.53506 0.0
N1796 N 0.18232 0.71026 0.56469 0.0
N1797 N 0.17733 0.61149 0.48695 0.0
H1798 H 0.1691 0.61368 0.56707 0.0
H1799 H 0.16439 0.59308 0.53083 0.0
H1800 H 0.17876 0.61039 0.46513 0.0
H1801 H 0.18296 0.59539 0.49471 0.0
H1802 H 0.1876 0.72893 0.55967 0.0
H1803 H 0.18551 0.71263 0.58777 0.0
H1804 H 0.16716 0.72208 0.51315 0.0
H1805 H 0.16812 0.7022 0.47853 0.0
C1806 C 0.40365 0.19966 0.54151 0.0
C1807 C 0.414 0.22499 0.56543 0.0
C1808 C 0.42827 0.25007 0.52988 0.0
C1809 C 0.422 0.2246 0.50735 0.0
N1810 N 0.41263 0.17528 0.4958 0.0
N1811 N 0.44262 0.27412 0.58379 0.0
C1812 C 0.41221 0.19939 0.51432 0.0
C1813 C 0.42817 0.25019 0.55998 0.0
N1814 N 0.38411 0.17601 0.54394 0.0
N1815 N 0.433 0.27408 0.52221 0.0
H1816 H 0.44412 0.27468 0.60619 0.0
H1817 H 0.45611 0.29269 0.5818 0.0
H1818 H 0.43187 0.27454 0.50016 0.0
H1819 H 0.43453 0.29293 0.53683 0.0
H1820 H 0.37342 0.15753 0.52598 0.0
H1821 H 0.3752 0.1757 0.56242 0.0
H1822 H 0.40848 0.15677 0.50128 0.0
H1823 H 0.42117 0.17454 0.477 0.0
C1824 C 0.55593 0.97706 0.63875 0.0
C1825 C 0.54447 0.97452 0.66372 0.0
C1826 C 0.60269 0.98093 0.69495 0.0
C1827 C 0.61141 0.97553 0.66784 0.0
N1828 N 0.60062 0.9748 0.61561 0.0
N1829 N 0.55687 0.98001 0.71722 0.0
C1830 C 0.58962 0.97651 0.6404 0.0
C1831 C 0.56822 0.97936 0.69272 0.0
N1832 N 0.53359 0.97817 0.6131 0.0
N1833 N 0.62707 0.98611 0.72225 0.0
H1834 H 0.53179 0.97952 0.71567 0.0
H1835 H 0.57176 0.98082 0.73866 0.0
H1836 H 0.65233 0.98746 0.72368 0.0
H1837 H 0.62314 0.99112 0.7433 0.0
H1838 H 0.53991 0.98068 0.59392 0.0
H1839 H 0.50881 0.97831 0.61214 0.0
H1840 H 0.58541 0.97295 0.59387 0.0
H1841 H 0.62567 0.97515 0.61715 0.0
C1842 C 0.48822 0.13446 0.37212 0.0
C1843 C 0.49212 0.16313 0.38364 0.0
C1844 C 0.55303 0.17383 0.38767 0.0
C1845 C 0.54971 0.14513 0.37839 0.0
N1846 N 0.51597 0.09875 0.37238 0.0
N1847 N 0.53161 0.20874 0.41243 0.0
C1848 C 0.51785 0.12562 0.37388 0.0
C1849 C 0.5256 0.18238 0.39455 0.0
N1850 N 0.45651 0.11562 0.35797 0.0
N1851 N 0.5814 0.19307 0.38844 0.0
H1852 H 0.51288 0.21526 0.41983 0.0
H1853 H 0.55604 0.22282 0.42301 0.0
H1854 H 0.60145 0.18792 0.38219 0.0
H1855 H 0.58327 0.21399 0.39215 0.0
H1856 H 0.45272 0.09496 0.34653 0.0
H1857 H 0.43405 0.12102 0.35488 0.0
H1858 H 0.494 0.08434 0.37167 0.0
H1859 H 0.53739 0.09183 0.37577 0.0
C1860 C 0.81701 0.51877 0.36907 0.0
C1861 C 0.84755 0.54059 0.37622 0.0
C1862 C 0.88019 0.51304 0.39896 0.0
C1863 C 0.85033 0.4899 0.38813 0.0
N1864 N 0.79132 0.46924 0.35681 0.0
N1865 N 0.90898 0.5549 0.39044 0.0
C1866 C 0.81893 0.49232 0.37146 0.0
C1867 C 0.87943 0.53672 0.38905 0.0
N1868 N 0.78621 0.52354 0.36117 0.0
N1869 N 0.90893 0.51291 0.41969 0.0
H1870 H 0.90928 0.57128 0.38121 0.0
H1871 H 0.93268 0.55168 0.39732 0.0
H1872 H 0.90967 0.4967 0.42907 0.0
H1873 H 0.93052 0.53023 0.43016 0.0
H1874 H 0.76332 0.50903 0.35836 0.0
H1875 H 0.78397 0.54297 0.36062 0.0
H1876 H 0.7687 0.46949 0.34205 0.0
H1877 H 0.7923 0.44942 0.35688 0.0
C1878 C 0.49825 0.88949 0.36258 0.0
C1879 C 0.47014 0.86722 0.34058 0.0
C1880 C 0.51045 0.84729 0.32112 0.0
C1881 C 0.53815 0.86885 0.34392 0.0
N1882 N 0.55829 0.90584 0.39167 0.0
N1883 N 0.45014 0.82165 0.30396 0.0
C1884 C 0.53195 0.88808 0.36664 0.0
C1885 C 0.47648 0.84505 0.32141 0.0
N1886 N 0.49359 0.91339 0.37762 0.0
N1887 N 0.5166 0.82931 0.29881 0.0
H1888 H 0.42519 0.81912 0.30427 0.0
H1889 H 0.45352 0.80381 0.29154 0.0
H1890 H 0.54124 0.82945 0.29902 0.0
H1891 H 0.49743 0.81527 0.27945 0.0
H1892 H 0.51371 0.93119 0.39097 0.0
H1893 H 0.47022 0.9172 0.37426 0.0
H1894 H 0.55446 0.91786 0.41055 0.0
H1895 H 0.58372 0.90677 0.39512 0.0
C1896 C 0.06153 0.51559 0.3876 0.0
C1897 C 0.09003 0.53492 0.38588 0.0
C1898 C 0.12534 0.50575 0.3991 0.0
C1899 C 0.0961 0.48464 0.39669 0.0
N1900 N 0.03486 0.46755 0.38263 0.0
N1901 N 0.14596 0.54328 0.38017 0.0
C1902 C 0.06364 0.48898 0.38918 0.0
C1903 C 0.12105 0.52846 0.38866 0.0
N1904 N 1.03305 0.52296 0.38901 0.0
N1905 N 0.15729 0.50498 0.41282 0.0
H1906 H 0.14253 0.55856 0.36987 0.0
H1907 H 0.16803 0.53789 0.37978 0.0
H1908 H 0.16152 0.4901 0.42352 0.0
H1909 H 0.17926 0.52113 0.41699 0.0
H1910 H 1.01272 0.5105 0.393 0.0
H1911 H 1.03125 0.54265 0.38922 0.0
H1912 H 1.01035 0.46893 0.37437 0.0
H1913 H 0.03556 0.44765 0.38263 0.0
C1914 C 0.48213 0.13204 0.64447 0.0
C1915 C 0.48567 0.1608 0.65299 0.0
C1916 C 0.54663 0.17095 0.65735 0.0
C1917 C 0.54268 0.14216 0.64694 0.0
N1918 N 0.5027 0.09635 0.61989 0.0
N1919 N 0.51858 0.20631 0.65544 0.0
C1920 C 0.50918 0.12301 0.63717 0.0
C1921 C 0.51707 0.17983 0.65558 0.0
N1922 N 0.45397 0.11325 0.64469 0.0
N1923 N 0.57831 0.18995 0.67064 0.0
H1924 H 0.49703 0.21307 0.65191 0.0
H1925 H 0.54016 0.22025 0.65482 0.0
H1926 H 0.60084 0.18466 0.67425 0.0
H1927 H 0.58203 0.21083 0.68113 0.0
H1928 H 0.45206 0.09239 0.64166 0.0
H1929 H 0.43402 0.11878 0.65074 0.0
H1930 H 0.4782 0.08227 0.61018 0.0
H1931 H 0.52096 0.08947 0.61197 0.0
C1932 C 0.9775 0.56024 0.68761 0.0
C1933 C 1.00068 0.54697 0.67892 0.0
C1934 C 1.02594 0.58698 0.66377 0.0
C1935 C 1.00418 0.60094 0.67416 0.0
N1936 N 0.96372 0.60323 0.70123 0.0
N1937 N 0.05047 0.54909 0.66345 0.0
C1938 C 0.98108 0.58815 0.68749 0.0
C1939 C 1.02595 0.56079 0.66835 0.0
N1940 N 0.95184 0.54594 0.69568 0.0
N1941 N 0.04558 0.59835 0.64842 0.0
H1942 H 0.05029 0.52955 0.66564 0.0
H1943 H 0.07208 0.55952 0.65941 0.0
H1944 H 0.04597 0.61742 0.64473 0.0
H1945 H 0.05915 0.58787 0.63727 0.0
H1946 H 0.93189 0.5532 0.69932 0.0
H1947 H 0.94923 0.52577 0.69659 0.0
H1948 H 0.94886 0.59625 0.71394 0.0
H1949 H 0.96672 0.62387 0.70219 0.0
C1950 C 0.07381 0.52041 0.60137 0.0
C1951 C 0.10441 0.54256 0.60932 0.0
C1952 C 0.13703 0.51353 0.62909 0.0
C1953 C 0.10721 0.49023 0.61732 0.0
N1954 N 0.04754 0.47068 0.58819 0.0
N1955 N 0.16578 0.55667 0.62296 0.0
C1956 C 0.07561 0.49347 0.60233 0.0
C1957 C 0.13623 0.53813 0.62102 0.0
N1958 N 0.04306 0.52531 0.59417 0.0
N1959 N 0.16582 0.51271 0.64916 0.0
H1960 H 0.16612 0.57367 0.6148 0.0
H1961 H 0.18941 0.55318 0.62902 0.0
H1962 H 0.16663 0.49589 0.65745 0.0
H1963 H 0.18735 0.53 0.66035 0.0
H1964 H 1.02027 0.5108 0.5915 0.0
H1965 H 0.04074 0.54482 0.5942 0.0
H1966 H 1.02456 0.47125 0.57435 0.0
H1967 H 0.04822 0.45077 0.58815 0.0
C1968 C 0.13181 0.2541 0.39136 0.0
C1969 C 0.15598 0.24664 0.37801 0.0
C1970 C 0.16799 0.29081 0.3663 0.0
C1971 C 0.14551 0.29901 0.3815 0.0
N1972 N 0.11182 0.29122 0.41415 0.0
N1973 N 0.20126 0.25932 0.35749 0.0
C1974 C 0.12921 0.28144 0.3958 0.0
C1975 C 0.1754 0.26553 0.36695 0.0
N1976 N 0.1101 0.23461 0.39829 0.0
N1977 N 0.18083 0.3065 0.34999 0.0
H1978 H 0.20708 0.24095 0.35786 0.0
H1979 H 0.21857 0.27322 0.35179 0.0
H1980 H 0.17532 0.32478 0.34861 0.0
H1981 H 0.19463 0.30031 0.33588 0.0
H1982 H 0.08975 0.238 0.40539 0.0
H1983 H 0.11043 0.21413 0.39416 0.0
H1984 H 0.10192 0.28039 0.42749 0.0
H1985 H 0.11025 0.31139 0.4183 0.0
C1986 C 0.80661 0.18496 0.42263 0.0
C1987 C 0.82396 0.16603 0.43099 0.0
C1988 C 0.76934 0.13511 0.42867 0.0
C1989 C 0.75158 0.15107 0.41425 0.0
N1990 N 0.75299 0.19128 0.39709 0.0
N1991 N 0.82218 0.12389 0.44437 0.0
C1992 C 0.77012 0.17638 0.41178 0.0
C1993 C 0.80537 0.14144 0.43499 0.0
N1994 N 0.82469 0.21104 0.42468 0.0
N1995 N 0.7516 0.11415 0.43679 0.0
H1996 H 0.84875 0.12903 0.45177 0.0
H1997 H 0.80991 0.10395 0.4439 0.0
H1998 H 0.72543 0.10973 0.43322 0.0
H1999 H 0.76303 0.10304 0.44964 0.0
H2000 H 0.81354 0.22669 0.42283 0.0
H2001 H 0.85113 0.21804 0.43084 0.0
H2002 H 0.76494 0.20793 0.39092 0.0
H2003 H 0.72645 0.18596 0.38933 0.0
C2004 C 0.85586 0.78513 0.38701 0.0
C2005 C 0.88119 0.80443 0.41392 0.0
C2006 C 0.88405 0.76641 0.43613 0.0
C2007 C 0.86194 0.74697 0.40794 0.0
N2008 N 0.83306 0.73753 0.35438 0.0
N2009 N 0.92398 0.81254 0.46193 0.0
C2010 C 0.84952 0.75624 0.38275 0.0
C2011 C 0.89649 0.79482 0.43799 0.0
N2012 N 0.83676 0.79425 0.36603 0.0
N2013 N 0.89252 0.75771 0.46127 0.0
H2014 H 0.93466 0.83311 0.46328 0.0
H2015 H 0.9382 0.80616 0.47879 0.0
H2016 H 0.88321 0.73712 0.46058 0.0
H2017 H 0.90601 0.77124 0.48317 0.0
H2018 H 0.81576 0.78102 0.34757 0.0
H2019 H 0.83952 0.81514 0.36873 0.0
H2020 H 0.82661 0.74336 0.33462 0.0
H2021 H 0.82911 0.71629 0.35019 0.0
C2022 C 0.24313 0.85464 0.3398 0.0
C2023 C 0.22931 0.87667 0.33713 0.0
C2024 C 0.27465 0.89656 0.31781 0.0
C2025 C 0.29141 0.87709 0.32522 0.0
N2026 N 0.29177 0.83717 0.34272 0.0
N2027 N 0.23268 0.91976 0.32548 0.0
C2028 C 0.2755 0.85584 0.33582 0.0
C2029 C 0.24486 0.89766 0.32604 0.0
N2030 N 0.22487 0.83236 0.3457 0.0
N2031 N 0.28742 0.91435 0.30339 0.0
H2032 H 0.2108 0.92126 0.33095 0.0
H2033 H 0.24546 0.93758 0.32165 0.0
H2034 H 0.30977 0.9151 0.29798 0.0
H2035 H 0.27438 0.92684 0.29441 0.0
H2036 H 0.23179 0.81439 0.34533 0.0
H2037 H 0.20095 0.83084 0.34831 0.0
H2038 H 0.28392 0.82338 0.35418 0.0
H2039 H 0.31422 0.83622 0.33801 0.0
C2040 C 0.13249 0.80131 0.65314 0.0
C2041 C 0.16404 0.81681 0.67653 0.0
C2042 C 0.17129 0.7731 0.68478 0.0
C2043 C 0.14184 0.75755 0.65914 0.0
N2044 N 0.0982 0.7571 0.61531 0.0
N2045 N 0.21662 0.81674 0.71047 0.0
C2046 C 0.12351 0.77178 0.64231 0.0
C2047 C 0.18433 0.80245 0.69118 0.0
N2048 N 0.11028 0.81466 0.64222 0.0
N2049 N 0.18589 0.76005 0.7039 0.0
H2050 H 0.22727 0.83798 0.71482 0.0
H2051 H 0.23388 0.80711 0.71963 0.0
H2052 H 0.17608 0.73892 0.70073 0.0
H2053 H 0.20542 0.77062 0.72454 0.0
H2054 H 0.08549 0.8043 0.62748 0.0
H2055 H 0.11537 0.83604 0.65034 0.0
H2056 H 0.08601 0.76643 0.60051 0.0
H2057 H 0.09182 0.73564 0.60626 0.0
C2058 C 0.25938 0.14729 0.68823 0.0
C2059 C 0.24469 0.1669 0.67826 0.0
C2060 C 0.27784 0.16764 0.64278 0.0
C2061 C 0.29732 0.15237 0.65682 0.0
N2062 N 0.30905 0.13149 0.69769 0.0
N2063 N 0.24713 0.20083 0.6512 0.0
C2064 C 0.28854 0.14288 0.68061 0.0
C2065 C 0.25553 0.17825 0.65663 0.0
N2066 N 0.24575 0.13307 0.7054 0.0
N2067 N 0.28052 0.17203 0.61611 0.0
H2068 H 0.23313 0.2105 0.66273 0.0
H2069 H 0.25712 0.21154 0.63779 0.0
H2070 H 0.29549 0.16362 0.60463 0.0
H2071 H 0.26489 0.18122 0.60384 0.0
H2072 H 0.25276 0.11628 0.71038 0.0
H2073 H 0.22491 0.13615 0.71192 0.0
H2074 H 0.30509 0.12648 0.71679 0.0
H2075 H 0.33215 0.12973 0.69537 0.0
C2076 C 0.97014 0.29534 0.66475 0.0
C2077 C 0.95576 0.28864 0.68709 0.0
C2078 C 0.95892 0.33755 0.70695 0.0
C2079 C 0.97014 0.34357 0.68287 0.0
N2080 N 0.98298 0.328 0.63677 0.0
N2081 N 0.93129 0.30241 0.72629 0.0
C2082 C 0.97451 0.32229 0.66103 0.0
C2083 C 0.94881 0.30955 0.70739 0.0
N2084 N 0.98154 0.27648 0.64842 0.0
N2085 N 0.95893 0.35879 0.72991 0.0
H2086 H 0.92275 0.282 0.72647 0.0
H2087 H 0.92257 0.31618 0.73962 0.0
H2088 H 0.96506 0.37931 0.72961 0.0
H2089 H 0.95553 0.35631 0.75021 0.0
H2090 H 0.99513 0.28081 0.63377 0.0
H2091 H 0.98029 0.25725 0.65182 0.0
H2092 H 0.98327 0.31288 0.61829 0.0
H2093 H 0.98735 0.34776 0.63416 0.0
C2094 C 0.8164 0.95151 0.70928 0.0
C2095 C 0.7923 0.94558 0.68007 0.0
C2096 C 0.83481 0.93798 0.65567 0.0
C2097 C 0.85994 0.94537 0.68489 0.0
N2098 N 0.87595 0.96327 0.73972 0.0
N2099 N 0.78093 0.94123 0.62676 0.0
C2100 C 0.85116 0.95361 0.71181 0.0
C2101 C 0.80236 0.9414 0.65372 0.0
N2102 N 0.80578 0.95401 0.73434 0.0
N2103 N 0.84129 0.92702 0.62957 0.0
H2104 H 0.7571 0.94416 0.62479 0.0
H2105 H 0.7882 0.94131 0.60741 0.0
H2106 H 0.8644 0.92393 0.62933 0.0
H2107 H 0.82258 0.91841 0.60818 0.0
H2108 H 0.8211 0.95516 0.75578 0.0
H2109 H 0.7808 0.95345 0.73324 0.0
H2110 H 0.87196 0.97238 0.7599 0.0
H2111 H 0.90117 0.96356 0.7425 0.0
C2112 C 0.40799 0.16446 0.23272 0.0
C2113 C 0.38845 0.17496 0.21172 0.0
C2114 C 0.36305 0.19191 0.25078 0.0
C2115 C 0.38708 0.18585 0.27315 0.0
N2116 N 0.43636 0.17003 0.28577 0.0
N2117 N 0.34838 0.20041 0.20153 0.0
C2118 C 0.41035 0.17278 0.26415 0.0
C2119 C 0.36585 0.18886 0.2208 0.0
N2120 N 0.42418 0.14626 0.22249 0.0
N2121 N 0.33717 0.20015 0.25816 0.0
H2122 H 0.34938 0.19826 0.17944 0.0
H2123 H 0.33463 0.21354 0.2081 0.0
H2124 H 0.33423 0.20192 0.27961 0.0
H2125 H 0.317 0.20257 0.24232 0.0
H2126 H 0.43627 0.13591 0.23603 0.0
H2127 H 0.42219 0.13922 0.19951 0.0
H2128 H 0.45611 0.16323 0.2808 0.0
H2129 H 0.4403 0.17727 0.30909 0.0
C2130 C 0.89559 0.43055 0.29879 0.0
C2131 C 0.9206 0.42219 0.31775 0.0
C2132 C 0.95876 0.43395 0.28802 0.0
C2133 C 0.93223 0.43909 0.26728 0.0
N2134 N 0.87435 0.43978 0.25081 0.0
N2135 N 0.9751 0.41368 0.32876 0.0
C2136 C 0.90043 0.43681 0.27222 0.0
C2137 C 0.9522 0.42362 0.31217 0.0
N2138 N 0.86749 0.4333 0.30666 0.0
N2139 N 0.99026 0.43909 0.28452 0.0
H2140 H 0.97126 0.40621 0.3466 0.0
H2141 H 0.99694 0.41133 0.3238 0.0
H2142 H 0.99515 0.4459 0.26657 0.0
H2143 H 1.01187 0.43855 0.30037 0.0
H2144 H 0.85049 0.44238 0.29597 0.0
H2145 H 0.86259 0.42881 0.32566 0.0
H2146 H 0.8492 0.43494 0.25082 0.0
H2147 H 0.87734 0.4452 0.2316 0.0
C2148 C 0.68551 0.94291 0.24011 0.0
C2149 C 0.65593 0.92817 0.21444 0.0
C2150 C 0.62254 0.91897 0.2482 0.0
C2151 C 0.65226 0.93259 0.27378 0.0
N2152 N 0.71312 0.95298 0.29462 0.0
N2153 N 0.59862 0.89648 0.19363 0.0
C2154 C 0.68415 0.94327 0.26989 0.0
C2155 C 0.62511 0.91446 0.21839 0.0
N2156 N 0.7144 0.95725 0.23609 0.0
N2157 N 0.59163 0.91121 0.25256 0.0
H2158 H 0.59987 0.89211 0.17145 0.0
H2159 H 0.57677 0.88384 0.19534 0.0
H2160 H 0.58903 0.91461 0.27425 0.0
H2161 H 0.56844 0.90373 0.23489 0.0
H2162 H 0.73563 0.97082 0.25403 0.0
H2163 H 0.71633 0.95676 0.21452 0.0
H2164 H 0.73761 0.95855 0.29308 0.0
H2165 H 0.71264 0.95338 0.31657 0.0
C2166 C 0.14064 0.58455 0.26261 0.0
C2167 C 0.16683 0.60083 0.25487 0.0
C2168 C 0.18418 0.63635 0.30486 0.0
C2169 C 0.1584 0.61966 0.31273 0.0
N2170 N 0.11883 0.5748 0.30277 0.0
N2171 N 0.21784 0.63918 0.27049 0.0
C2172 C 0.13885 0.59272 0.29273 0.0
C2173 C 0.19 0.62582 0.27669 0.0
N2174 N 0.11612 0.56222 0.24063 0.0
N2175 N 0.20206 0.66262 0.32366 0.0
H2176 H 0.22266 0.63163 0.25021 0.0
H2177 H 0.23746 0.6562 0.28629 0.0
H2178 H 0.19903 0.67051 0.34473 0.0
H2179 H 0.21848 0.67703 0.31774 0.0
H2180 H 0.09434 0.55126 0.24403 0.0
H2181 H 0.11584 0.5562 0.21806 0.0
H2182 H 0.10631 0.55403 0.29034 0.0
H2183 H 0.1178 0.57999 0.32499 0.0
C2184 C 0.44565 0.88344 0.79126 0.0
C2185 C 0.45686 0.90994 0.81331 0.0
C2186 C 0.47832 0.93083 0.77791 0.0
C2187 C 0.46239 0.90516 0.75445 0.0
N2188 N 0.42719 0.85759 0.73754 0.0
N2189 N 0.47942 0.95958 0.8263 0.0
C2190 C 0.44543 0.88146 0.76086 0.0
C2191 C 0.47236 0.93388 0.80645 0.0
N2192 N 0.43488 0.86021 0.79938 0.0
N2193 N 0.49947 0.95213 0.77292 0.0
H2194 H 0.47414 0.96244 0.84685 0.0
H2195 H 0.48763 0.97792 0.82122 0.0
H2196 H 0.50484 0.95011 0.75241 0.0
H2197 H 0.51418 0.97063 0.78999 0.0
H2198 H 0.42953 0.84016 0.78523 0.0
H2199 H 0.43421 0.8611 0.82137 0.0
H2200 H 0.41132 0.84048 0.74023 0.0
H2201 H 0.42548 0.85573 0.71485 0.0
C2202 C 0.17443 0.47249 0.77295 0.0
C2203 C 0.19693 0.46533 0.79522 0.0
C2204 C 0.21584 0.44014 0.7555 0.0
C2205 C 0.19345 0.44743 0.73314 0.0
N2206 N 0.1564 0.47485 0.72098 0.0
N2207 N 0.24433 0.44803 0.80943 0.0
C2208 C 0.17444 0.46514 0.74208 0.0
C2209 C 0.21929 0.45086 0.78696 0.0
N2210 N 0.1521 0.48533 0.78125 0.0
N2211 N 0.2331 0.42235 0.74651 0.0
H2212 H 0.24758 0.45612 0.83256 0.0
H2213 H 0.26356 0.43991 0.80546 0.0
H2214 H 0.2325 0.41532 0.72391 0.0
H2215 H 0.24666 0.41355 0.76104 0.0
H2216 H 0.13246 0.48873 0.76583 0.0
H2217 H 0.15189 0.49105 0.80372 0.0
H2218 H 0.1442 0.48959 0.72631 0.0
H2219 H 0.15603 0.46985 0.69834 0.0
C2220 C 0.6731 0.14081 0.77561 0.0
C2221 C 0.64931 0.11615 0.75369 0.0
C2222 C 0.62457 0.10615 0.79281 0.0
C2223 C 0.64447 0.13287 0.81313 0.0
N2224 N 0.68684 0.17653 0.82376 0.0
N2225 N 0.59944 0.07694 0.74021 0.0
C2226 C 0.66889 0.15037 0.80468 0.0
C2227 C 0.62449 0.09903 0.76206 0.0
N2228 N 0.7 0.15472 0.76864 0.0
N2229 N 0.6059 0.08752 0.80308 0.0
H2230 H 0.5977 0.07174 0.71723 0.0
H2231 H 0.57858 0.06535 0.74432 0.0
H2232 H 0.60597 0.09204 0.82566 0.0
H2233 H 0.59335 0.06685 0.79026 0.0
H2234 H 0.72 0.17151 0.78438 0.0
H2235 H 0.70379 0.1478 0.7477 0.0
H2236 H 0.70212 0.19144 0.81749 0.0
H2237 H 0.6849 0.18385 0.84541 0.0
C2238 C 0.87095 0.6446 0.74086 0.0
C2239 C 0.89988 0.6477 0.76559 0.0
C2240 C 0.93724 0.66175 0.73643 0.0
C2241 C 0.90821 0.6555 0.71031 0.0
N2242 N 0.84716 0.6386 0.68669 0.0
N2243 N 0.95984 0.65343 0.78456 0.0
C2244 C 0.87492 0.64618 0.71225 0.0
C2245 C 0.93287 0.65486 0.76278 0.0
N2246 N 0.83988 0.64108 0.74515 0.0
N2247 N 0.96911 0.67427 0.7362 0.0
H2248 H 0.95726 0.64737 0.80354 0.0
H2249 H 0.9839 0.65536 0.78222 0.0
H2250 H 0.97373 0.67921 0.71731 0.0
H2251 H 0.99063 0.68186 0.75562 0.0
H2252 H 0.81821 0.64129 0.7291 0.0
H2253 H 0.83649 0.64028 0.76596 0.0
H2254 H 0.82247 0.62874 0.68568 0.0
H2255 H 0.84912 0.64084 0.66586 0.0
C2256 C 0.27557 0.4141 0.19084 0.0
C2257 C 0.24676 0.40262 0.16387 0.0
C2258 C 0.28378 0.3923 0.13347 0.0
C2259 C 0.31293 0.40752 0.15962 0.0
N2260 N 0.3374 0.43208 0.21331 0.0
N2261 N 0.22239 0.38026 0.1097 0.0
C2262 C 0.309 0.41783 0.18845 0.0
C2263 C 0.25057 0.39117 0.1353 0.0
N2264 N 0.27092 0.42178 0.21864 0.0
N2265 N 0.28782 0.37928 0.10677 0.0
H2266 H 0.19762 0.37762 0.11057 0.0
H2267 H 0.22336 0.37486 0.08753 0.0
H2268 H 0.31152 0.3805 0.10395 0.0
H2269 H 0.26782 0.36552 0.08787 0.0
H2270 H 0.29033 0.42795 0.23945 0.0
H2271 H 0.24697 0.42019 0.22116 0.0
H2272 H 0.33687 0.4432 0.23428 0.0
H2273 H 0.36208 0.43356 0.21263 0.0
C2274 C 0.29189 0.64766 0.93769 0.0
C2275 C 0.27448 0.65477 0.91232 0.0
C2276 C 0.32487 0.66115 0.89561 0.0
C2277 C 0.34249 0.6537 0.92074 0.0
N2278 N 0.34581 0.64589 0.96923 0.0
N2279 N 0.27719 0.67617 0.87295 0.0
C2280 C 0.32697 0.64905 0.94305 0.0
C2281 C 0.29214 0.66435 0.89341 0.0
N2282 N 0.27435 0.63813 0.95557 0.0
N2283 N 0.33793 0.66288 0.87238 0.0
H2284 H 0.25313 0.67865 0.87101 0.0
H2285 H 0.28993 0.68597 0.86039 0.0
H2286 H 0.36175 0.66084 0.87269 0.0
H2287 H 0.32407 0.66442 0.85168 0.0
H2288 H 0.28416 0.62945 0.97218 0.0
H2289 H 0.24913 0.63786 0.95279 0.0
H2290 H 0.33711 0.64473 0.98765 0.0
H2291 H 0.37142 0.64679 0.97351 0.0
C2292 C 0.4749 0.28032 0.89877 0.0
C2293 C 0.45156 0.26612 0.91085 0.0
C2294 C 0.41418 0.29429 0.89855 0.0
C2295 C 0.43844 0.3097 0.8882 0.0
N2296 N 0.49497 0.32137 0.88426 0.0
N2297 N 0.40315 0.26341 0.9286 0.0
C2298 C 0.46976 0.30385 0.88996 0.0
C2299 C 0.42243 0.27434 0.91268 0.0
N2300 N 0.50121 0.27066 0.89474 0.0
N2301 N 0.3827 0.29797 0.89366 0.0
H2302 H 0.40925 0.24931 0.93987 0.0
H2303 H 0.38331 0.27032 0.93318 0.0
H2304 H 0.37561 0.31189 0.88255 0.0
H2305 H 0.36268 0.2855 0.89799 0.0
H2306 H 0.5172 0.27834 0.88322 0.0
H2307 H 0.50549 0.25353 0.90109 0.0
H2308 H 0.51954 0.31975 0.88791 0.0
H2309 H 0.49221 0.33913 0.8786 0.0
C2310 C 0.81511 0.39763 0.92087 0.0
C2311 C 0.83029 0.40539 0.89925 0.0
C2312 C 0.78749 0.42895 0.88558 0.0
C2313 C 0.77157 0.42088 0.90661 0.0
N2314 N 0.77639 0.40386 0.95013 0.0
N2315 N 0.84049 0.44038 0.8747 0.0
C2316 C 0.78727 0.40709 0.92608 0.0
C2317 C 0.81948 0.42476 0.88581 0.0
N2318 N 0.82746 0.38107 0.9364 0.0
N2319 N 0.77133 0.43905 0.86387 0.0
H2320 H 0.86525 0.43961 0.87789 0.0
H2321 H 0.83511 0.45648 0.8667 0.0
H2322 H 0.74674 0.44049 0.86081 0.0
H2323 H 0.78087 0.44286 0.84655 0.0
H2324 H 0.81528 0.37152 0.94944 0.0
H2325 H 0.8499 0.37645 0.93554 0.0
H2326 H 0.78858 0.39631 0.96686 0.0
H2327 H 0.75683 0.4111 0.95494 0.0
C2328 C 0.63836 0.76802 0.84546 0.0
C2329 C 0.61827 0.74556 0.85163 0.0
C2330 C 0.58473 0.7748 0.86897 0.0
C2331 C 0.60357 0.79673 0.86105 0.0
N2332 N 0.64254 0.81192 0.83497 0.0
N2333 N 0.56885 0.7256 0.86421 0.0
C2334 C 0.62879 0.79268 0.84735 0.0
C2335 C 0.59031 0.74838 0.86187 0.0
N2336 N 0.66739 0.76613 0.83896 0.0
N2337 N 0.56245 0.77965 0.88427 0.0
H2338 H 0.57231 0.70607 0.85886 0.0
H2339 H 0.54621 0.7254 0.86892 0.0
H2340 H 0.55921 0.79911 0.89115 0.0
H2341 H 0.54875 0.76507 0.89194 0.0
H2342 H 0.68506 0.78282 0.83733 0.0
H2343 H 0.67531 0.74849 0.83788 0.0
H2344 H 0.65867 0.80898 0.82211 0.0
H2345 H 0.63501 0.82961 0.83486 0.0
C2346 C 0.78778 0.63299 0.1192 0.0
C2347 C 0.81568 0.65471 0.14169 0.0
C2348 C 0.77582 0.67477 0.16131 0.0
C2349 C 0.74801 0.65161 0.14124 0.0
N2350 N 0.72785 0.60649 0.10362 0.0
N2351 N 0.83629 0.69223 0.1889 0.0
C2352 C 0.754 0.63009 0.12073 0.0
C2353 C 0.80967 0.67439 0.16414 0.0
N2354 N 0.79338 0.61569 0.09596 0.0
N2355 N 0.7699 0.69772 0.17692 0.0
H2356 H 0.86143 0.69194 0.1925 0.0
H2357 H 0.83295 0.70514 0.20746 0.0
H2358 H 0.74541 0.69936 0.17412 0.0
H2359 H 0.7892 0.7162 0.1897 0.0
H2360 H 0.77381 0.6014 0.07705 0.0
H2361 H 0.81776 0.61696 0.09458 0.0
H2362 H 0.73135 0.58888 0.09084 0.0
H2363 H 0.70287 0.60377 0.10387 0.0
C2364 C 0.4439 0.78032 0.11341 0.0
C2365 C 0.42711 0.76838 0.13168 0.0
C2366 C 0.40041 0.80544 0.13855 0.0
C2367 C 0.41549 0.8164 0.11872 0.0
N2368 N 0.44809 0.81308 0.08426 0.0
N2369 N 0.38605 0.7667 0.15834 0.0
C2370 C 0.43635 0.80348 0.10532 0.0
C2371 C 0.4044 0.78018 0.14336 0.0
N2372 N 0.46767 0.76977 0.10455 0.0
N2373 N 0.38328 0.81981 0.15351 0.0
H2374 H 0.38868 0.74825 0.1622 0.0
H2375 H 0.36656 0.7726 0.16495 0.0
H2376 H 0.38004 0.83832 0.15033 0.0
H2377 H 0.37453 0.8146 0.17067 0.0
H2378 H 0.48336 0.77891 0.0936 0.0
H2379 H 0.47331 0.75269 0.11005 0.0
H2380 H 0.46095 0.80329 0.07145 0.0
H2381 H 0.44277 0.82996 0.07799 0.0
C2382 C 0.65367 0.288 0.19124 0.0
C2383 C 0.63399 0.30228 0.17587 0.0
C2384 C 0.59641 0.25772 0.13863 0.0
C2385 C 0.6142 0.24329 0.15559 0.0
N2386 N 0.65507 0.24481 0.20195 0.0
N2387 N 0.58202 0.30029 0.13924 0.0
C2388 C 0.64155 0.2585 0.18305 0.0
C2389 C 0.60397 0.28698 0.15078 0.0
N2390 N 0.6846 0.30256 0.21285 0.0
N2391 N 0.57336 0.24367 0.11028 0.0
H2392 H 0.58614 0.32146 0.14847 0.0
H2393 H 0.55817 0.28991 0.12281 0.0
H2394 H 0.56826 0.22249 0.1002 0.0
H2395 H 0.56194 0.25347 0.09562 0.0
H2396 H 0.7017 0.29313 0.22272 0.0
H2397 H 0.69449 0.32406 0.21881 0.0
H2398 H 0.67289 0.2549 0.22362 0.0
H2399 H 0.64581 0.2234 0.19727 0.0
C2400 C 0.95428 0.80218 0.6612 0.0
C2401 C 0.9574 0.78134 0.63797 0.0
C2402 C 0.93637 0.80404 0.60004 0.0
C2403 C 0.9314 0.82392 0.62297 0.0
N2404 N 0.93012 0.83955 0.67424 0.0
N2405 N 0.94653 0.75964 0.58461 0.0
C2406 C 0.93884 0.82231 0.65329 0.0
C2407 C 0.94712 0.78155 0.60715 0.0
N2408 N 0.96707 0.8031 0.69095 0.0
N2409 N 0.93143 0.80714 0.57162 0.0
H2410 H 0.95379 0.74287 0.58926 0.0
H2411 H 0.93639 0.75696 0.56139 0.0
H2412 H 0.92307 0.82321 0.56592 0.0
H2413 H 0.9377 0.7951 0.55444 0.0
H2414 H 0.96899 0.81933 0.70942 0.0
H2415 H 0.97822 0.78847 0.69717 0.0
H2416 H 0.93175 0.83783 0.69593 0.0
H2417 H 0.91875 0.85438 0.66908 0.0
C2418 C 0.3031 0.94744 0.66261 0.0
C2419 C 0.2749 0.92379 0.64438 0.0
C2420 C 0.3123 0.90588 0.61902 0.0
C2421 C 0.34139 0.92564 0.6426 0.0
N2422 N 0.36369 0.96438 0.68919 0.0
N2423 N 0.25262 0.87973 0.60486 0.0
C2424 C 0.33672 0.94662 0.66473 0.0
C2425 C 0.27926 0.90296 0.62202 0.0
N2426 N 0.29759 0.97056 0.67827 0.0
N2427 N 0.3162 0.89028 0.59354 0.0
H2428 H 0.228 0.87706 0.60604 0.0
H2429 H 0.2555 0.86244 0.59085 0.0
H2430 H 0.33982 0.89291 0.58998 0.0
H2431 H 0.29568 0.87718 0.5746 0.0
H2432 H 0.31693 0.98928 0.68992 0.0
H2433 H 0.27305 0.97175 0.6766 0.0
H2434 H 0.3607 0.97793 0.70748 0.0
H2435 H 0.38871 0.96392 0.69294 0.0
C2436 C 0.14986 0.29238 0.59714 0.0
C2437 C 0.17103 0.3133 0.62469 0.0
C2438 C 0.19435 0.2788 0.64287 0.0
C2439 C 0.17227 0.25753 0.61589 0.0
N2440 N 0.12296 0.24305 0.57098 0.0
N2441 N 0.20633 0.3251 0.67668 0.0
C2442 C 0.14812 0.26402 0.59408 0.0
C2443 C 0.19071 0.30587 0.64857 0.0
N2444 N 0.1327 0.29976 0.57341 0.0
N2445 N 0.22036 0.27368 0.66207 0.0
H2446 H 0.20361 0.34494 0.68122 0.0
H2447 H 0.21882 0.32053 0.69592 0.0
H2448 H 0.22524 0.25469 0.65755 0.0
H2449 H 0.23922 0.28902 0.68064 0.0
H2450 H 0.11984 0.28594 0.55156 0.0
H2451 H 0.13317 0.32022 0.57526 0.0
H2452 H 0.10285 0.24626 0.55586 0.0
H2453 H 0.12042 0.22221 0.56884 0.0
C2454 C 0.74931 0.16282 0.62592 0.0
C2455 C 0.73936 0.14891 0.64631 0.0
C2456 C 0.79854 0.14933 0.66776 0.0
C2457 C 0.80929 0.16549 0.64957 0.0
N2458 N 0.7956 0.19073 0.61395 0.0
N2459 N 0.7562 0.13499 0.69146 0.0
C2460 C 0.78483 0.17309 0.6293 0.0
C2461 C 0.76456 0.14402 0.66866 0.0
N2462 N 0.72486 0.16532 0.60266 0.0
N2463 N 0.82052 0.13801 0.68335 0.0
H2464 H 0.73184 0.13176 0.6935 0.0
H2465 H 0.77419 0.13365 0.71012 0.0
H2466 H 0.84521 0.14044 0.68234 0.0
H2467 H 0.8131 0.12376 0.69449 0.0
H2468 H 0.73008 0.1723 0.58497 0.0
H2469 H 0.69892 0.15876 0.60002 0.0
H2470 H 0.77968 0.19952 0.60143 0.0
H2471 H 0.82114 0.19801 0.61542 0.0
C2472 C 0.90604 0.28983 0.35869 0.0
C2473 C 0.87921 0.29606 0.3689 0.0
C2474 C 0.85895 0.24792 0.36906 0.0
C2475 C 0.88795 0.2427 0.36252 0.0
N2476 N 0.94216 0.25993 0.35584 0.0
N2477 N 0.83458 0.28242 0.39013 0.0
C2478 C 0.91245 0.26408 0.35873 0.0
C2479 C 0.85688 0.27545 0.37585 0.0
N2480 N 0.92419 0.30779 0.3474 0.0
N2481 N 0.8326 0.22634 0.36741 0.0
H2482 H 0.8337 0.3027 0.39691 0.0
H2483 H 0.81973 0.26875 0.3981 0.0
H2484 H 0.8331 0.20588 0.36197 0.0
H2485 H 0.80912 0.2285 0.36843 0.0
H2486 H 0.94192 0.30321 0.33704 0.0
H2487 H 0.91902 0.32608 0.34554 0.0
H2488 H 0.96251 0.27561 0.35596 0.0
H2489 H 0.94754 0.24139 0.35607 0.0
C2490 C 0.77871 0.88712 0.33316 0.0
C2491 C 0.79745 0.87792 0.35584 0.0
C2492 C 0.74856 0.86709 0.37429 0.0
C2493 C 0.73097 0.87867 0.35347 0.0
N2494 N 0.72375 0.89074 0.30684 0.0
N2495 N 0.79761 0.85147 0.39127 0.0
C2496 C 0.74424 0.88549 0.33064 0.0
C2497 C 0.78119 0.86502 0.3739 0.0
N2498 N 0.79454 0.89926 0.31569 0.0
N2499 N 0.73544 0.86023 0.39599 0.0
H2500 H 0.82193 0.85042 0.39186 0.0
H2501 H 0.78624 0.83943 0.40287 0.0
H2502 H 0.71123 0.86073 0.39644 0.0
H2503 H 0.74903 0.85518 0.41435 0.0
H2504 H 0.78361 0.90961 0.30149 0.0
H2505 H 0.81946 0.90004 0.31645 0.0
H2506 H 0.73077 0.89394 0.28815 0.0
H2507 H 0.69827 0.88908 0.30448 0.0
C2508 C 0.14672 0.76026 0.41583 0.0
C2509 C 0.12039 0.73872 0.39169 0.0
C2510 C 0.10166 0.77338 0.37008 0.0
C2511 C 0.12969 0.79472 0.39278 0.0
N2512 N 0.18275 0.80811 0.43349 0.0
N2513 N 0.07717 0.72424 0.34261 0.0
C2514 C 0.15341 0.788 0.41455 0.0
C2515 C 0.09916 0.74517 0.3678 0.0
N2516 N 0.16413 0.75443 0.44075 0.0
N2517 N 0.07656 0.78012 0.35171 0.0
H2518 H 0.07549 0.70347 0.34008 0.0
H2519 H 0.06314 0.72761 0.32313 0.0
H2520 H 0.07705 0.80057 0.35352 0.0
H2521 H 0.05381 0.76556 0.33674 0.0
H2522 H 0.18128 0.76965 0.46043 0.0
H2523 H 0.15905 0.73453 0.44289 0.0
H2524 H 0.20261 0.80405 0.44796 0.0
H2525 H 0.18853 0.82844 0.43256 0.0
C2526 C 0.28804 0.14221 0.40261 0.0
C2527 C 0.30194 0.16532 0.39351 0.0
C2528 C 0.26593 0.18998 0.41467 0.0
C2529 C 0.25406 0.16793 0.42591 0.0
N2530 N 0.25559 0.12395 0.43318 0.0
N2531 N 0.31066 0.21403 0.39865 0.0
C2532 C 0.26557 0.1442 0.42048 0.0
C2533 C 0.29226 0.18984 0.40117 0.0
N2534 N 0.2963 0.11839 0.39403 0.0
N2535 N 0.25302 0.21181 0.41807 0.0
H2536 H 0.33234 0.21596 0.39191 0.0
H2537 H 0.30715 0.23315 0.40681 0.0
H2538 H 0.2361 0.21383 0.43029 0.0
H2539 H 0.25709 0.22673 0.40692 0.0
H2540 H 0.28734 0.10054 0.39957 0.0
H2541 H 0.31134 0.11592 0.37996 0.0
H2542 H 0.26579 0.10763 0.43352 0.0
H2543 H 0.2377 0.1241 0.44469 0.0
C2544 C 0.68343 0.92575 0.78666 0.0
C2545 C 0.66218 0.90528 0.7588 0.0
C2546 C 0.62798 0.88353 0.78626 0.0
C2547 C 0.64582 0.90634 0.81317 0.0
N2548 N 0.68748 0.95174 0.83742 0.0
N2549 N 0.60996 0.86806 0.73109 0.0
C2550 C 0.6729 0.92816 0.81307 0.0
C2551 C 0.63328 0.88505 0.75833 0.0
N2552 N 0.71416 0.94225 0.78811 0.0
N2553 N 0.60686 0.85996 0.78751 0.0
H2554 H 0.61215 0.86954 0.7101 0.0
H2555 H 0.58672 0.85469 0.72942 0.0
H2556 H 0.6036 0.85736 0.80783 0.0
H2557 H 0.59574 0.84189 0.76905 0.0
H2558 H 0.73214 0.95582 0.80849 0.0
H2559 H 0.72309 0.94026 0.76945 0.0
H2560 H 0.70486 0.96934 0.83711 0.0
H2561 H 0.67994 0.95473 0.85685 0.0
C2562 C 0.18036 0.6265 0.76092 0.0
C2563 C 0.16185 0.63845 0.77833 0.0
C2564 C 0.15049 0.66611 0.7437 0.0
C2565 C 0.16327 0.6504 0.72326 0.0
N2566 N 0.19034 0.61504 0.71212 0.0
N2567 N 0.12637 0.66779 0.78488 0.0
C2568 C 0.17882 0.63074 0.73199 0.0
C2569 C 0.14656 0.65812 0.76962 0.0
N2570 N 0.19963 0.61129 0.77237 0.0
N2571 N 0.14202 0.68868 0.73812 0.0
H2572 H 0.12215 0.66171 0.80338 0.0
H2573 H 0.11146 0.67982 0.77758 0.0
H2574 H 0.14531 0.69525 0.71957 0.0
H2575 H 0.1352 0.70239 0.7534 0.0
H2576 H 0.21623 0.60395 0.76231 0.0
H2577 H 0.20125 0.60821 0.79359 0.0
H2578 H 0.19773 0.59794 0.71548 0.0
H2579 H 0.19109 0.61833 0.69145 0.0
C2580 C 0.43501 0.18067 0.82104 0.0
C2581 C 0.40233 0.16549 0.82075 0.0
C2582 C 0.37594 0.17745 0.77496 0.0
C2583 C 0.40867 0.18862 0.77282 0.0
N2584 N 0.46937 0.1981 0.79178 0.0
N2585 N 0.34141 0.14803 0.79606 0.0
C2586 C 0.4382 0.18954 0.79539 0.0
C2587 C 0.37262 0.16371 0.79746 0.0
N2588 N 0.46293 0.1878 0.84641 0.0
N2589 N 0.34819 0.18073 0.75595 0.0
H2590 H 0.33809 0.13789 0.81215 0.0
H2591 H 0.31924 0.14354 0.77787 0.0
H2592 H 0.35011 0.19059 0.73935 0.0
H2593 H 0.32399 0.17571 0.7582 0.0
H2594 H 0.48648 0.2013 0.84909 0.0
H2595 H 0.46179 0.18282 0.86624 0.0
H2596 H 0.49159 0.19638 0.80565 0.0
H2597 H 0.47251 0.20474 0.77325 0.0
C2598 C 0.90525 0.40629 0.7164 0.0
C2599 C 0.91245 0.43096 0.70787 0.0
C2600 C 0.92671 0.45881 0.7616 0.0
C2601 C 0.91696 0.43418 0.76945 0.0
N2602 N 0.90499 0.38504 0.7572 0.0
N2603 N 0.93573 0.48046 0.72266 0.0
C2604 C 0.90946 0.40809 0.74769 0.0
C2605 C 0.9257 0.45716 0.73082 0.0
N2606 N 0.89214 0.38122 0.69413 0.0
N2607 N 0.93451 0.48367 0.78324 0.0
H2608 H 0.93371 0.47957 0.7001 0.0
H2609 H 0.94787 0.50022 0.73809 0.0
H2610 H 0.93586 0.48505 0.80581 0.0
H2611 H 0.93876 0.5027 0.779 0.0
H2612 H 0.88352 0.36233 0.69791 0.0
H2613 H 0.88866 0.37939 0.67115 0.0
H2614 H 0.89986 0.36501 0.74324 0.0
H2615 H 0.90868 0.38637 0.78013 0.0
C2616 C 0.62666 0.14318 0.2596 0.0
C2617 C 0.64298 0.12402 0.26831 0.0
C2618 C 0.65965 0.11711 0.22177 0.0
C2619 C 0.64363 0.13661 0.21335 0.0
N2620 N 0.62118 0.17406 0.22863 0.0
N2621 N 0.68203 0.0981 0.26204 0.0
C2622 C 0.63036 0.15165 0.23389 0.0
C2623 C 0.66181 0.11275 0.25073 0.0
N2624 N 0.60558 0.15178 0.27449 0.0
N2625 N 0.67099 0.10161 0.20156 0.0
H2626 H 0.68429 0.09505 0.28335 0.0
H2627 H 0.6988 0.09132 0.25178 0.0
H2628 H 0.67067 0.10467 0.18058 0.0
H2629 H 0.67892 0.0847 0.20484 0.0
H2630 H 0.59014 0.16343 0.26709 0.0
H2631 H 0.60095 0.14509 0.29254 0.0
H2632 H 0.61422 0.18741 0.24416 0.0
H2633 H 0.62401 0.18089 0.21013 0.0
C2634 C 0.91037 0.69767 0.31814 0.0
C2635 C 0.91691 0.67449 0.32675 0.0
C2636 C 0.94548 0.66693 0.28797 0.0
C2637 C 0.93353 0.68687 0.27618 0.0
N2638 N 0.90131 0.71925 0.27788 0.0
N2639 N 0.93944 0.63586 0.31875 0.0
C2640 C 0.91544 0.70197 0.29091 0.0
C2641 C 0.93467 0.65901 0.31171 0.0
N2642 N 0.89967 0.7158 0.3363 0.0
N2643 N 0.96744 0.65584 0.27652 0.0
H2644 H 0.93224 0.62956 0.33611 0.0
H2645 H 0.94863 0.62194 0.30618 0.0
H2646 H 0.97575 0.66154 0.25931 0.0
H2647 H 0.9797 0.64309 0.28584 0.0
H2648 H 0.89732 0.7344 0.33274 0.0
H2649 H 0.89672 0.71364 0.35683 0.0
H2650 H 0.8846 0.72851 0.2857 0.0
H2651 H 0.90391 0.72242 0.25759 0.0
C2652 C 0.43416 0.91004 0.22471 0.0
C2653 C 0.44768 0.93398 0.21707 0.0
C2654 C 0.4529 0.96289 0.26773 0.0
C2655 C 0.43363 0.93926 0.27274 0.0
N2656 N 0.40005 0.89101 0.25292 0.0
N2657 N 0.46979 0.98364 0.23072 0.0
C2658 C 0.42307 0.91288 0.25061 0.0
C2659 C 0.45762 0.96061 0.23864 0.0
N2660 N 0.43126 0.88453 0.20668 0.0
N2661 N 0.46645 0.98737 0.29081 0.0
H2662 H 0.47443 0.98241 0.20998 0.0
H2663 H 0.47385 1.00376 0.24401 0.0
H2664 H 0.46291 0.9893 0.31207 0.0
H2665 H 0.48312 1.00493 0.28969 0.0
H2666 H 0.42418 0.8664 0.21249 0.0
H2667 H 0.43967 0.88211 0.18771 0.0
H2668 H 0.38914 0.87193 0.23591 0.0
H2669 H 0.38879 0.89282 0.27007 0.0
C2670 C 0.14371 0.4297 0.30286 0.0
C2671 C 0.17185 0.42587 0.32338 0.0
C2672 C 0.21041 0.44975 0.30008 0.0
C2673 C 0.18188 0.45088 0.27785 0.0
N2674 N 0.12106 0.43844 0.25496 0.0
N2675 N 0.23174 0.4299 0.33986 0.0
C2676 C 0.14845 0.43998 0.27847 0.0
C2677 C 0.20528 0.43552 0.32176 0.0
N2678 N 0.11258 0.4245 0.30726 0.0
N2679 N 0.2424 0.46249 0.30033 0.0
H2680 H 0.22887 0.41942 0.35576 0.0
H2681 H 0.25601 0.43384 0.33774 0.0
H2682 H 0.24645 0.47247 0.28424 0.0
H2683 H 0.26464 0.4649 0.31747 0.0
H2684 H 0.09236 0.43002 0.29532 0.0
H2685 H 0.10764 0.41701 0.32475 0.0
H2686 H 0.09601 0.42758 0.25197 0.0
H2687 H 0.12353 0.44612 0.23694 0.0
C2688 C 0.77856 0.70032 0.87637 0.0
C2689 C 0.76299 0.68653 0.89433 0.0
C2690 C 0.81849 0.68209 0.9198 0.0
C2691 C 0.83104 0.68916 0.89676 0.0
N2692 N 0.82352 0.70612 0.85324 0.0
N2693 N 0.76888 0.66349 0.93341 0.0
C2694 C 0.81152 0.69921 0.87545 0.0
C2695 C 0.78333 0.67781 0.91673 0.0
N2696 N 0.76172 0.7145 0.86026 0.0
N2697 N 0.84039 0.67929 0.94458 0.0
H2698 H 0.74334 0.65956 0.93202 0.0
H2699 H 0.78183 0.65375 0.94719 0.0
H2700 H 0.86627 0.68268 0.94726 0.0
H2701 H 0.83377 0.6769 0.96371 0.0
H2702 H 0.77267 0.72678 0.84864 0.0
H2703 H 0.73805 0.71626 0.86129 0.0
H2704 H 0.80874 0.71027 0.83473 0.0
H2705 H 0.84793 0.70638 0.85263 0.0
C2706 C 0.75376 0.36608 0.13013 0.0
C2707 C 0.74661 0.39153 0.1387 0.0
C2708 C 0.80603 0.41726 0.14779 0.0
C2709 C 0.81342 0.39182 0.13897 0.0
N2710 N 0.79299 0.34234 0.11566 0.0
N2711 N 0.76277 0.4407 0.14721 0.0
C2712 C 0.78675 0.36628 0.12809 0.0
C2713 C 0.7717 0.41687 0.14431 0.0
N2714 N 0.72934 0.34182 0.12519 0.0
N2715 N 0.83198 0.44163 0.16205 0.0
H2716 H 0.73777 0.44087 0.145 0.0
H2717 H 0.77915 0.45956 0.14862 0.0
H2718 H 0.85769 0.44294 0.16694 0.0
H2719 H 0.82825 0.46026 0.17191 0.0
H2720 H 0.73391 0.32273 0.12251 0.0
H2721 H 0.70455 0.34111 0.125 0.0
H2722 H 0.77404 0.32332 0.10489 0.0
H2723 H 0.81686 0.34197 0.11392 0.0
C2724 C 0.63856 0.77231 0.16948 0.0
C2725 C 0.63718 0.74782 0.14782 0.0
C2726 C 0.62013 0.76894 0.10754 0.0
C2727 C 0.62955 0.79531 0.12946 0.0
N2728 N 0.65224 0.82227 0.18295 0.0
N2729 N 0.63443 0.72645 0.09592 0.0
C2730 C 0.63956 0.79711 0.16099 0.0
C2731 C 0.62954 0.74684 0.1166 0.0
N2732 N 0.6386 0.77182 0.19807 0.0
N2733 N 0.60311 0.76535 0.07775 0.0
H2734 H 0.64569 0.71189 0.10199 0.0
H2735 H 0.63159 0.72634 0.07343 0.0
H2736 H 0.59537 0.78118 0.07077 0.0
H2737 H 0.59357 0.74602 0.0611 0.0
H2738 H 0.63677 0.7884 0.21403 0.0
H2739 H 0.63656 0.75374 0.20442 0.0
H2740 H 0.66288 0.82457 0.20604 0.0
H2741 H 0.65515 0.84099 0.17806 0.0
C2742 C 0.25425 0.64813 0.1166 0.0
C2743 C 0.25134 0.63096 0.13595 0.0
C2744 C 0.30826 0.62725 0.13816 0.0
C2745 C 0.31323 0.64738 0.12282 0.0
N2746 N 0.29248 0.67999 0.10072 0.0
N2747 N 0.28059 0.61142 0.17222 0.0
C2748 C 0.2867 0.65883 0.11312 0.0
C2749 C 0.27988 0.62268 0.14882 0.0
N2750 N 0.22614 0.65313 0.10026 0.0
N2751 N 0.33036 0.6121 0.14221 0.0
H2752 H 0.26144 0.60964 0.18237 0.0
H2753 H 0.30206 0.60713 0.18395 0.0
H2754 H 0.35 0.61366 0.13274 0.0
H2755 H 0.32641 0.59567 0.15133 0.0
H2756 H 0.22646 0.66286 0.0834 0.0
H2757 H 0.20182 0.64559 0.10145 0.0
H2758 H 0.27548 0.6913 0.09641 0.0
H2759 H 0.31528 0.68725 0.09646 0.0
C2760 C 0.41966 0.26972 0.08354 0.0
C2761 C 0.41597 0.26546 0.11115 0.0
C2762 C 0.3861 0.30044 0.1162 0.0
C2763 C 0.39297 0.30675 0.09045 0.0
N2764 N 0.4187 0.29971 0.05103 0.0
N2765 N 0.39982 0.27875 0.15592 0.0
C2766 C 0.41036 0.29193 0.07442 0.0
C2767 C 0.40016 0.28133 0.12801 0.0
N2768 N 0.43085 0.25186 0.06558 0.0
N2769 N 0.36566 0.31254 0.12899 0.0
H2770 H 0.41056 0.26524 0.1653 0.0
H2771 H 0.39163 0.29154 0.17087 0.0
H2772 H 0.35484 0.32646 0.12059 0.0
H2773 H 0.357 0.30704 0.14606 0.0
H2774 H 0.43111 0.25215 0.0438 0.0
H2775 H 0.4372 0.23515 0.07145 0.0
H2776 H 0.43447 0.29179 0.04029 0.0
H2777 H 0.41132 0.31547 0.0436 0.0
C2778 C 0.33175 0.45132 0.91552 0.0
C2779 C 0.34217 0.42798 0.92004 0.0
C2780 C 0.28161 0.40131 0.90805 0.0
C2781 C 0.27158 0.42491 0.90461 0.0
N2782 N 0.28759 0.47393 0.91106 0.0
N2783 N 0.32754 0.38268 0.92668 0.0
C2784 C 0.29689 0.45039 0.91042 0.0
C2785 C 0.31717 0.40351 0.91806 0.0
N2786 N 0.35449 0.47383 0.91388 0.0
N2787 N 0.25708 0.37656 0.90091 0.0
H2788 H 0.35321 0.38387 0.93471 0.0
H2789 H 0.31111 0.36542 0.92858 0.0
H2790 H 0.23108 0.37461 0.89473 0.0
H2791 H 0.26226 0.35777 0.89937 0.0
H2792 H 0.34738 0.48961 0.9064 0.0
H2793 H 0.3802 0.47594 0.91742 0.0
H2794 H 0.30502 0.49374 0.91889 0.0
H2795 H 0.26233 0.47396 0.90626 0.0
C2796 C 0.61557 0.25055 0.85289 0.0
C2797 C 0.60914 0.24782 0.88014 0.0
C2798 C 0.60952 0.29644 0.89448 0.0
C2799 C 0.61864 0.29974 0.8685 0.0
N2800 N 0.63433 0.28146 0.82483 0.0
N2801 N 0.60536 0.26899 0.92922 0.0
C2802 C 0.62287 0.27717 0.84826 0.0
C2803 C 0.60756 0.27104 0.90158 0.0
N2804 N 0.6131 0.22741 0.83087 0.0
N2805 N 0.60167 0.31734 0.91176 0.0
H2806 H 0.60466 0.25084 0.93523 0.0
H2807 H 0.60728 0.28578 0.94708 0.0
H2808 H 0.60302 0.33616 0.90717 0.0
H2809 H 0.59124 0.31526 0.92904 0.0
H2810 H 0.61431 0.22741 0.80926 0.0
H2811 H 0.607 0.20764 0.83334 0.0
H2812 H 0.64122 0.26675 0.81083 0.0
H2813 H 0.63928 0.30068 0.82085 0.0
C2814 C 0.44404 0.76826 0.86057 0.0
C2815 C 0.42037 0.74807 0.86672 0.0
C2816 C 0.39147 0.78227 0.88126 0.0
C2817 C 0.41278 0.80151 0.87197 0.0
N2818 N 0.45623 0.81157 0.84847 0.0
N2819 N 0.36812 0.73419 0.87795 0.0
C2820 C 0.43838 0.79421 0.86054 0.0
C2821 C 0.39316 0.75466 0.87582 0.0
N2822 N 0.47239 0.76279 0.85556 0.0
N2823 N 0.37034 0.79075 0.89615 0.0
H2824 H 0.36822 0.71368 0.87318 0.0
H2825 H 0.34582 0.73699 0.88157 0.0
H2826 H 0.36921 0.81104 0.90103 0.0
H2827 H 0.35648 0.77852 0.90615 0.0
H2828 H 0.49235 0.77752 0.85371 0.0
H2829 H 0.47728 0.74409 0.85587 0.0
H2830 H 0.47285 0.80631 0.83704 0.0
H2831 H 0.45224 0.8304 0.84757 0.0
loop_
_geom_bond_atom_site_label_1
_geom_bond_atom_site_label_2
_geom_bond_distance
_geom_bond_site_symmetry_2
_ccdc_geom_bond_type
Cu0 N1 1.999 . S
Cu0 O6 1.974 . S
Cu0 N11 1.985 . S
Cu0 O20 1.959 . S
N1 Cu0 1.999 . S
N1 C3 1.263 . S
N1 C5 1.389 . S
N2 C3 1.358 . S
N2 C4 1.400 . S
C3 N1 1.263 . S
C3 N2 1.358 . S
C3 H9 0.930 . S
C4 N2 1.400 . S
C4 C5 1.351 . S
C4 H21 0.930 . S
C5 N1 1.389 . S
C5 C4 1.351 . S
C5 H10 0.930 . S
O6 Cu0 1.974 . S
O6 C16 1.282 . S
C7 O8 1.261 . S
C7 O20 1.251 . S
O8 C7 1.261 . S
H9 C3 0.930 . S
H10 C5 0.930 . S
N11 Cu0 1.985 . S
N11 C13 1.335 . S
N11 C14 1.390 . S
N12 C13 1.345 . S
N12 C15 1.336 . S
C13 N11 1.335 . S
C13 N12 1.345 . S
C13 H18 0.930 . S
C14 N11 1.390 . S
C14 C15 1.346 . S
C14 H19 0.930 . S
C15 N12 1.336 . S
C15 C14 1.346 . S
C15 H22 0.929 . S
C16 O6 1.282 . S
C16 O17 1.216 . S
O17 C16 1.216 . S
H18 C13 0.930 . S
H19 C14 0.930 . S
O20 Cu0 1.959 . S
O20 C7 1.251 . S
H21 C4 0.930 . S
H22 C15 0.929 . S
Cu23 N24 1.999 . S
Cu23 O29 1.974 . S
Cu23 N34 1.985 . S
Cu23 O43 1.959 . S
N24 Cu23 1.999 . S
N24 C26 1.263 . S
N24 C28 1.389 . S
N25 C26 1.358 . S
N25 C27 1.400 . S
C26 N24 1.263 . S
C26 N25 1.358 . S
C26 H32 0.930 . S
C27 N25 1.400 . S
C27 C28 1.351 . S
C27 H44 0.930 . S
C28 N24 1.389 . S
C28 C27 1.351 . S
C28 H33 0.930 . S
O29 Cu23 1.974 . S
O29 C39 1.282 . S
C30 O31 1.261 . S
C30 O43 1.251 . S
O31 C30 1.261 . S
H32 C26 0.930 . S
H33 C28 0.930 . S
N34 Cu23 1.985 . S
N34 C36 1.335 . S
N34 C37 1.390 . S
N35 C36 1.345 . S
N35 C38 1.336 . S
C36 N34 1.335 . S
C36 N35 1.345 . S
C36 H41 0.930 . S
C37 N34 1.390 . S
C37 C38 1.346 . S
C37 H42 0.930 . S
C38 N35 1.336 . S
C38 C37 1.346 . S
C38 H45 0.929 . S
C39 O29 1.282 . S
C39 O40 1.216 . S
O40 C39 1.216 . S
H41 C36 0.930 . S
H42 C37 0.930 . S
O43 Cu23 1.959 . S
O43 C30 1.251 . S
H44 C27 0.930 . S
H45 C38 0.929 . S
Cu46 N47 1.999 . S
Cu46 O52 1.974 . S
Cu46 N57 1.985 . S
Cu46 O66 1.959 . S
N47 Cu46 1.999 . S
N47 C49 1.263 . S
N47 C51 1.389 . S
N48 C49 1.358 . S
N48 C50 1.400 . S
C49 N47 1.263 . S
C49 N48 1.358 . S
C49 H55 0.930 . S
C50 N48 1.400 . S
C50 C51 1.351 . S
C50 H67 0.930 . S
C51 N47 1.389 . S
C51 C50 1.351 . S
C51 H56 0.930 . S
O52 Cu46 1.974 . S
O52 C62 1.282 . S
C53 O54 1.261 . S
C53 O66 1.251 . S
O54 C53 1.261 . S
H55 C49 0.930 . S
H56 C51 0.930 . S
N57 Cu46 1.985 . S
N57 C59 1.335 . S
N57 C60 1.390 . S
N58 C59 1.345 . S
N58 C61 1.336 . S
C59 N57 1.335 . S
C59 N58 1.345 . S
C59 H64 0.930 . S
C60 N57 1.390 . S
C60 C61 1.346 . S
C60 H65 0.930 . S
C61 N58 1.336 . S
C61 C60 1.346 . S
C61 H68 0.929 . S
C62 O52 1.282 . S
C62 O63 1.216 . S
O63 C62 1.216 . S
H64 C59 0.930 . S
H65 C60 0.930 . S
O66 Cu46 1.959 . S
O66 C53 1.251 . S
H67 C50 0.930 . S
H68 C61 0.929 . S
Cu69 N70 1.999 . S
Cu69 O75 1.974 . S
Cu69 N80 1.985 . S
Cu69 O89 1.959 . S
N70 Cu69 1.999 . S
N70 C72 1.263 . S
N70 C74 1.389 . S
N71 C72 1.358 . S
N71 C73 1.400 . S
C72 N70 1.263 . S
C72 N71 1.358 . S
C72 H78 0.930 . S
C73 N71 1.400 . S
C73 C74 1.351 . S
C73 H90 0.930 . S
C74 N70 1.389 . S
C74 C73 1.351 . S
C74 H79 0.930 . S
O75 Cu69 1.974 . S
O75 C85 1.282 . S
C76 O77 1.261 . S
C76 O89 1.251 . S
O77 C76 1.261 . S
H78 C72 0.930 . S
H79 C74 0.930 . S
N80 Cu69 1.985 . S
N80 C82 1.335 . S
N80 C83 1.390 . S
N81 C82 1.345 . S
N81 C84 1.336 . S
C82 N80 1.335 . S
C82 N81 1.345 . S
C82 H87 0.930 . S
C83 N80 1.390 . S
C83 C84 1.346 . S
C83 H88 0.930 . S
C84 N81 1.336 . S
C84 C83 1.346 . S
C84 H91 0.929 . S
C85 O75 1.282 . S
C85 O86 1.216 . S
O86 C85 1.216 . S
H87 C82 0.930 . S
H88 C83 0.930 . S
O89 Cu69 1.959 . S
O89 C76 1.251 . S
H90 C73 0.930 . S
H91 C84 0.929 . S
Cu92 N93 1.999 . S
Cu92 O98 1.974 . S
Cu92 N103 1.985 . S
Cu92 O112 1.959 . S
N93 Cu92 1.999 . S
N93 C95 1.263 . S
N93 C97 1.389 . S
N94 C95 1.358 . S
N94 C96 1.400 . S
C95 N93 1.263 . S
C95 N94 1.358 . S
C95 H101 0.930 . S
C96 N94 1.400 . S
C96 C97 1.351 . S
C96 H113 0.930 . S
C97 N93 1.389 . S
C97 C96 1.351 . S
C97 H102 0.930 . S
O98 Cu92 1.974 . S
O98 C108 1.282 . S
C99 O100 1.261 . S
C99 O112 1.251 . S
O100 C99 1.261 . S
H101 C95 0.930 . S
H102 C97 0.930 . S
N103 Cu92 1.985 . S
N103 C105 1.335 . S
N103 C106 1.390 . S
N104 C105 1.345 . S
N104 C107 1.336 . S
C105 N103 1.335 . S
C105 N104 1.345 . S
C105 H110 0.930 . S
C106 N103 1.390 . S
C106 C107 1.346 . S
C106 H111 0.930 . S
C107 N104 1.336 . S
C107 C106 1.346 . S
C107 H114 0.929 . S
C108 O98 1.282 . S
C108 O109 1.216 . S
O109 C108 1.216 . S
H110 C105 0.930 . S
H111 C106 0.930 . S
O112 Cu92 1.959 . S
O112 C99 1.251 . S
H113 C96 0.930 . S
H114 C107 0.929 . S
Cu115 N116 1.999 . S
Cu115 O121 1.974 . S
Cu115 N126 1.985 . S
Cu115 O135 1.959 . S
N116 Cu115 1.999 . S
N116 C118 1.263 . S
N116 C120 1.389 . S
N117 C118 1.358 . S
N117 C119 1.400 . S
C118 N116 1.263 . S
C118 N117 1.358 . S
C118 H124 0.930 . S
C119 N117 1.400 . S
C119 C120 1.351 . S
C119 H136 0.930 . S
C120 N116 1.389 . S
C120 C119 1.351 . S
C120 H125 0.930 . S
O121 Cu115 1.974 . S
O121 C131 1.282 . S
C122 O123 1.261 . S
C122 O135 1.251 . S
O123 C122 1.261 . S
H124 C118 0.930 . S
H125 C120 0.930 . S
N126 Cu115 1.985 . S
N126 C128 1.335 . S
N126 C129 1.390 . S
N127 C128 1.345 . S
N127 C130 1.336 . S
C128 N126 1.335 . S
C128 N127 1.345 . S
C128 H133 0.930 . S
C129 N126 1.390 . S
C129 C130 1.346 . S
C129 H134 0.930 . S
C130 N127 1.336 . S
C130 C129 1.346 . S
C130 H137 0.929 . S
C131 O121 1.282 . S
C131 O132 1.216 . S
O132 C131 1.216 . S
H133 C128 0.930 . S
H134 C129 0.930 . S
O135 Cu115 1.959 . S
O135 C122 1.251 . S
H136 C119 0.930 . S
H137 C130 0.929 . S
Cu138 N139 1.999 . S
Cu138 O144 1.974 . S
Cu138 N149 1.985 . S
Cu138 O158 1.959 . S
N139 Cu138 1.999 . S
N139 C141 1.263 . S
N139 C143 1.389 . S
N140 C141 1.358 . S
N140 C142 1.400 . S
C141 N139 1.263 . S
C141 N140 1.358 . S
C141 H147 0.930 . S
C142 N140 1.400 . S
C142 C143 1.351 . S
C142 H159 0.930 . S
C143 N139 1.389 . S
C143 C142 1.351 . S
C143 H148 0.930 . S
O144 Cu138 1.974 . S
O144 C154 1.282 . S
C145 O146 1.261 . S
C145 O158 1.251 . S
O146 C145 1.261 . S
H147 C141 0.930 . S
H148 C143 0.930 . S
N149 Cu138 1.985 . S
N149 C151 1.335 . S
N149 C152 1.390 . S
N150 C151 1.345 . S
N150 C153 1.336 . S
C151 N149 1.335 . S
C151 N150 1.345 . S
C151 H156 0.930 . S
C152 N149 1.390 . S
C152 C153 1.346 . S
C152 H157 0.930 . S
C153 N150 1.336 . S
C153 C152 1.346 . S
C153 H160 0.929 . S
C154 O144 1.282 . S
C154 O155 1.216 . S
O155 C154 1.216 . S
H156 C151 0.930 . S
H157 C152 0.930 . S
O158 Cu138 1.959 . S
O158 C145 1.251 . S
H159 C142 0.930 . S
H160 C153 0.929 . S
Cu161 N162 1.999 . S
Cu161 O167 1.974 . S
Cu161 N172 1.985 . S
Cu161 O181 1.959 . S
N162 Cu161 1.999 . S
N162 C164 1.263 . S
N162 C166 1.389 . S
N163 C164 1.358 . S
N163 C165 1.400 . S
C164 N162 1.263 . S
C164 N163 1.358 . S
C164 H170 0.930 . S
C165 N163 1.400 . S
C165 C166 1.351 . S
C165 H182 0.930 . S
C166 N162 1.389 . S
C166 C165 1.351 . S
C166 H171 0.930 . S
O167 Cu161 1.974 . S
O167 C177 1.282 . S
C168 O169 1.261 . S
C168 O181 1.251 . S
O169 C168 1.261 . S
H170 C164 0.930 . S
H171 C166 0.930 . S
N172 Cu161 1.985 . S
N172 C174 1.335 . S
N172 C175 1.390 . S
N173 C174 1.345 . S
N173 C176 1.336 . S
C174 N172 1.335 . S
C174 N173 1.345 . S
C174 H179 0.930 . S
C175 N172 1.390 . S
C175 C176 1.346 . S
C175 H180 0.930 . S
C176 N173 1.336 . S
C176 C175 1.346 . S
C176 H183 0.929 . S
C177 O167 1.282 . S
C177 O178 1.216 . S
O178 C177 1.216 . S
H179 C174 0.930 . S
H180 C175 0.930 . S
O181 Cu161 1.959 . S
O181 C168 1.251 . S
H182 C165 0.930 . S
H183 C176 0.929 . S
Cu184 N185 1.999 . S
Cu184 O190 1.974 . S
Cu184 N195 1.985 . S
Cu184 O204 1.959 . S
N185 Cu184 1.999 . S
N185 C187 1.263 . S
N185 C189 1.389 . S
N186 C187 1.358 . S
N186 C188 1.400 . S
C187 N185 1.263 . S
C187 N186 1.358 . S
C187 H193 0.930 . S
C188 N186 1.400 . S
C188 C189 1.351 . S
C188 H205 0.930 . S
C189 N185 1.389 . S
C189 C188 1.351 . S
C189 H194 0.930 . S
O190 Cu184 1.974 . S
O190 C200 1.282 . S
C191 O192 1.261 . S
C191 O204 1.251 . S
O192 C191 1.261 . S
H193 C187 0.930 . S
H194 C189 0.930 . S
N195 Cu184 1.985 . S
N195 C197 1.335 . S
N195 C198 1.390 . S
N196 C197 1.345 . S
N196 C199 1.336 . S
C197 N195 1.335 . S
C197 N196 1.345 . S
C197 H202 0.930 . S
C198 N195 1.390 . S
C198 C199 1.346 . S
C198 H203 0.930 . S
C199 N196 1.336 . S
C199 C198 1.346 . S
C199 H206 0.929 . S
C200 O190 1.282 . S
C200 O201 1.216 . S
O201 C200 1.216 . S
H202 C197 0.930 . S
H203 C198 0.930 . S
O204 Cu184 1.959 . S
O204 C191 1.251 . S
H205 C188 0.930 . S
H206 C199 0.929 . S
Cu207 N208 1.999 . S
Cu207 O213 1.974 . S
Cu207 N218 1.985 . S
Cu207 O227 1.959 . S
N208 Cu207 1.999 . S
N208 C210 1.263 . S
N208 C212 1.389 . S
N209 C210 1.358 . S
N209 C211 1.400 . S
C210 N208 1.263 . S
C210 N209 1.358 . S
C210 H216 0.930 . S
C211 N209 1.400 . S
C211 C212 1.351 . S
C211 H228 0.930 . S
C212 N208 1.389 . S
C212 C211 1.351 . S
C212 H217 0.930 . S
O213 Cu207 1.974 . S
O213 C223 1.282 . S
C214 O215 1.261 . S
C214 O227 1.251 . S
O215 C214 1.261 . S
H216 C210 0.930 . S
H217 C212 0.930 . S
N218 Cu207 1.985 . S
N218 C220 1.335 . S
N218 C221 1.390 . S
N219 C220 1.345 . S
N219 C222 1.336 . S
C220 N218 1.335 . S
C220 N219 1.345 . S
C220 H225 0.930 . S
C221 N218 1.390 . S
C221 C222 1.346 . S
C221 H226 0.930 . S
C222 N219 1.336 . S
C222 C221 1.346 . S
C222 H229 0.929 . S
C223 O213 1.282 . S
C223 O224 1.216 . S
O224 C223 1.216 . S
H225 C220 0.930 . S
H226 C221 0.930 . S
O227 Cu207 1.959 . S
O227 C214 1.251 . S
H228 C211 0.930 . S
H229 C222 0.929 . S
Cu230 N231 1.999 . S
Cu230 O236 1.974 . S
Cu230 N241 1.985 . S
Cu230 O250 1.959 . S
N231 Cu230 1.999 . S
N231 C233 1.263 . S
N231 C235 1.389 . S
N232 C233 1.358 . S
N232 C234 1.400 . S
C233 N231 1.263 . S
C233 N232 1.358 . S
C233 H239 0.930 . S
C234 N232 1.400 . S
C234 C235 1.351 . S
C234 H251 0.930 . S
C235 N231 1.389 . S
C235 C234 1.351 . S
C235 H240 0.930 . S
O236 Cu230 1.974 . S
O236 C246 1.282 . S
C237 O238 1.261 . S
C237 O250 1.251 . S
O238 C237 1.261 . S
H239 C233 0.930 . S
H240 C235 0.930 . S
N241 Cu230 1.985 . S
N241 C243 1.335 . S
N241 C244 1.390 . S
N242 C243 1.345 . S
N242 C245 1.336 . S
C243 N241 1.335 . S
C243 N242 1.345 . S
C243 H248 0.930 . S
C244 N241 1.390 . S
C244 C245 1.346 . S
C244 H249 0.930 . S
C245 N242 1.336 . S
C245 C244 1.346 . S
C245 H252 0.929 . S
C246 O236 1.282 . S
C246 O247 1.216 . S
O247 C246 1.216 . S
H248 C243 0.930 . S
H249 C244 0.930 . S
O250 Cu230 1.959 . S
O250 C237 1.251 . S
H251 C234 0.930 . S
H252 C245 0.929 . S
Cu253 N254 1.999 . S
Cu253 O259 1.974 . S
Cu253 N264 1.985 . S
Cu253 O273 1.959 . S
N254 Cu253 1.999 . S
N254 C256 1.263 . S
N254 C258 1.389 . S
N255 C256 1.358 . S
N255 C257 1.400 . S
C256 N254 1.263 . S
C256 N255 1.358 . S
C256 H262 0.930 . S
C257 N255 1.400 . S
C257 C258 1.351 . S
C257 H274 0.930 . S
C258 N254 1.389 . S
C258 C257 1.351 . S
C258 H263 0.930 . S
O259 Cu253 1.974 . S
O259 C269 1.282 . S
C260 O261 1.261 . S
C260 O273 1.251 . S
O261 C260 1.261 . S
H262 C256 0.930 . S
H263 C258 0.930 . S
N264 Cu253 1.985 . S
N264 C266 1.335 . S
N264 C267 1.390 . S
N265 C266 1.345 . S
N265 C268 1.336 . S
C266 N264 1.335 . S
C266 N265 1.345 . S
C266 H271 0.930 . S
C267 N264 1.390 . S
C267 C268 1.346 . S
C267 H272 0.930 . S
C268 N265 1.336 . S
C268 C267 1.346 . S
C268 H275 0.929 . S
C269 O259 1.282 . S
C269 O270 1.216 . S
O270 C269 1.216 . S
H271 C266 0.930 . S
H272 C267 0.930 . S
O273 Cu253 1.959 . S
O273 C260 1.251 . S
H274 C257 0.930 . S
H275 C268 0.929 . S
Cu276 N277 1.999 . S
Cu276 O282 1.974 . S
Cu276 N287 1.985 . S
Cu276 O296 1.959 . S
N277 Cu276 1.999 . S
N277 C279 1.263 . S
N277 C281 1.389 . S
N278 C279 1.358 . S
N278 C280 1.400 . S
C279 N277 1.263 . S
C279 N278 1.358 . S
C279 H285 0.930 . S
C280 N278 1.400 . S
C280 C281 1.351 . S
C280 H297 0.930 . S
C281 N277 1.389 . S
C281 C280 1.351 . S
C281 H286 0.930 . S
O282 Cu276 1.974 . S
O282 C292 1.282 . S
C283 O284 1.261 . S
C283 O296 1.251 . S
O284 C283 1.261 . S
H285 C279 0.930 . S
H286 C281 0.930 . S
N287 Cu276 1.985 . S
N287 C289 1.335 . S
N287 C290 1.390 . S
N288 C289 1.345 . S
N288 C291 1.336 . S
C289 N287 1.335 . S
C289 N288 1.345 . S
C289 H294 0.930 . S
C290 N287 1.390 . S
C290 C291 1.346 . S
C290 H295 0.930 . S
C291 N288 1.336 . S
C291 C290 1.346 . S
C291 H298 0.929 . S
C292 O282 1.282 . S
C292 O293 1.216 . S
O293 C292 1.216 . S
H294 C289 0.930 . S
H295 C290 0.930 . S
O296 Cu276 1.959 . S
O296 C283 1.251 . S
H297 C280 0.930 . S
H298 C291 0.929 . S
Cu299 N300 1.999 . S
Cu299 O305 1.974 . S
Cu299 N310 1.985 . S
Cu299 O319 1.959 . S
N300 Cu299 1.999 . S
N300 C302 1.263 . S
N300 C304 1.389 . S
N301 C302 1.358 . S
N301 C303 1.400 . S
C302 N300 1.263 . S
C302 N301 1.358 . S
C302 H308 0.930 . S
C303 N301 1.400 . S
C303 C304 1.351 . S
C303 H320 0.930 . S
C304 N300 1.389 . S
C304 C303 1.351 . S
C304 H309 0.930 . S
O305 Cu299 1.974 . S
O305 C315 1.282 . S
C306 O307 1.261 . S
C306 O319 1.251 . S
O307 C306 1.261 . S
H308 C302 0.930 . S
H309 C304 0.930 . S
N310 Cu299 1.985 . S
N310 C312 1.335 . S
N310 C313 1.390 . S
N311 C312 1.345 . S
N311 C314 1.336 . S
C312 N310 1.335 . S
C312 N311 1.345 . S
C312 H317 0.930 . S
C313 N310 1.390 . S
C313 C314 1.346 . S
C313 H318 0.930 . S
C314 N311 1.336 . S
C314 C313 1.346 . S
C314 H321 0.929 . S
C315 O305 1.282 . S
C315 O316 1.216 . S
O316 C315 1.216 . S
H317 C312 0.930 . S
H318 C313 0.930 . S
O319 Cu299 1.959 . S
O319 C306 1.251 . S
H320 C303 0.930 . S
H321 C314 0.929 . S
Cu322 N323 1.999 . S
Cu322 O328 1.974 . S
Cu322 N333 1.985 . S
Cu322 O342 1.959 . S
N323 Cu322 1.999 . S
N323 C325 1.263 . S
N323 C327 1.389 . S
N324 C325 1.358 . S
N324 C326 1.400 . S
C325 N323 1.263 . S
C325 N324 1.358 . S
C325 H331 0.930 . S
C326 N324 1.400 . S
C326 C327 1.351 . S
C326 H343 0.930 . S
C327 N323 1.389 . S
C327 C326 1.351 . S
C327 H332 0.930 . S
O328 Cu322 1.974 . S
O328 C338 1.282 . S
C329 O330 1.261 . S
C329 O342 1.251 . S
O330 C329 1.261 . S
H331 C325 0.930 . S
H332 C327 0.930 . S
N333 Cu322 1.985 . S
N333 C335 1.335 . S
N333 C336 1.390 . S
N334 C335 1.345 . S
N334 C337 1.336 . S
C335 N333 1.335 . S
C335 N334 1.345 . S
C335 H340 0.930 . S
C336 N333 1.390 . S
C336 C337 1.346 . S
C336 H341 0.930 . S
C337 N334 1.336 . S
C337 C336 1.346 . S
C337 H344 0.929 . S
C338 O328 1.282 . S
C338 O339 1.216 . S
O339 C338 1.216 . S
H340 C335 0.930 . S
H341 C336 0.930 . S
O342 Cu322 1.959 . S
O342 C329 1.251 . S
H343 C326 0.930 . S
H344 C337 0.929 . S
Cu345 N346 1.999 . S
Cu345 O351 1.974 . S
Cu345 N356 1.985 . S
Cu345 O365 1.959 . S
N346 Cu345 1.999 . S
N346 C348 1.263 . S
N346 C350 1.389 . S
N347 C348 1.358 . S
N347 C349 1.400 . S
C348 N346 1.263 . S
C348 N347 1.358 . S
C348 H354 0.930 . S
C349 N347 1.400 . S
C349 C350 1.351 . S
C349 H366 0.930 . S
C350 N346 1.389 . S
C350 C349 1.351 . S
C350 H355 0.930 . S
O351 Cu345 1.974 . S
O351 C361 1.282 . S
C352 O353 1.261 . S
C352 O365 1.251 . S
O353 C352 1.261 . S
H354 C348 0.930 . S
H355 C350 0.930 . S
N356 Cu345 1.985 . S
N356 C358 1.335 . S
N356 C359 1.390 . S
N357 C358 1.345 . S
N357 C360 1.336 . S
C358 N356 1.335 . S
C358 N357 1.345 . S
C358 H363 0.930 . S
C359 N356 1.390 . S
C359 C360 1.346 . S
C359 H364 0.930 . S
C360 N357 1.336 . S
C360 C359 1.346 . S
C360 H367 0.929 . S
C361 O351 1.282 . S
C361 O362 1.216 . S
O362 C361 1.216 . S
H363 C358 0.930 . S
H364 C359 0.930 . S
O365 Cu345 1.959 . S
O365 C352 1.251 . S
H366 C349 0.930 . S
H367 C360 0.929 . S
Cu368 N369 1.999 . S
Cu368 O374 1.974 . S
Cu368 N379 1.985 . S
Cu368 O388 1.959 . S
N369 Cu368 1.999 . S
N369 C371 1.263 . S
N369 C373 1.389 . S
N370 C371 1.358 . S
N370 C372 1.400 . S
C371 N369 1.263 . S
C371 N370 1.358 . S
C371 H377 0.930 . S
C372 N370 1.400 . S
C372 C373 1.351 . S
C372 H389 0.930 . S
C373 N369 1.389 . S
C373 C372 1.351 . S
C373 H378 0.930 . S
O374 Cu368 1.974 . S
O374 C384 1.282 . S
C375 O376 1.261 . S
C375 O388 1.251 . S
O376 C375 1.261 . S
H377 C371 0.930 . S
H378 C373 0.930 . S
N379 Cu368 1.985 . S
N379 C381 1.335 . S
N379 C382 1.390 . S
N380 C381 1.345 . S
N380 C383 1.336 . S
C381 N379 1.335 . S
C381 N380 1.345 . S
C381 H386 0.930 . S
C382 N379 1.390 . S
C382 C383 1.346 . S
C382 H387 0.930 . S
C383 N380 1.336 . S
C383 C382 1.346 . S
C383 H390 0.929 . S
C384 O374 1.282 . S
C384 O385 1.216 . S
O385 C384 1.216 . S
H386 C381 0.930 . S
H387 C382 0.930 . S
O388 Cu368 1.959 . S
O388 C375 1.251 . S
H389 C372 0.930 . S
H390 C383 0.929 . S
Cu391 N392 1.999 . S
Cu391 O397 1.974 . S
Cu391 N402 1.985 . S
Cu391 O411 1.959 . S
N392 Cu391 1.999 . S
N392 C394 1.263 . S
N392 C396 1.389 . S
N393 C394 1.358 . S
N393 C395 1.400 . S
C394 N392 1.263 . S
C394 N393 1.358 . S
C394 H400 0.930 . S
C395 N393 1.400 . S
C395 C396 1.351 . S
C395 H412 0.930 . S
C396 N392 1.389 . S
C396 C395 1.351 . S
C396 H401 0.930 . S
O397 Cu391 1.974 . S
O397 C407 1.282 . S
C398 O399 1.261 . S
C398 O411 1.251 . S
O399 C398 1.261 . S
H400 C394 0.930 . S
H401 C396 0.930 . S
N402 Cu391 1.985 . S
N402 C404 1.335 . S
N402 C405 1.390 . S
N403 C404 1.345 . S
N403 C406 1.336 . S
C404 N402 1.335 . S
C404 N403 1.345 . S
C404 H409 0.930 . S
C405 N402 1.390 . S
C405 C406 1.346 . S
C405 H410 0.930 . S
C406 N403 1.336 . S
C406 C405 1.346 . S
C406 H413 0.929 . S
C407 O397 1.282 . S
C407 O408 1.216 . S
O408 C407 1.216 . S
H409 C404 0.930 . S
H410 C405 0.930 . S
O411 Cu391 1.959 . S
O411 C398 1.251 . S
H412 C395 0.930 . S
H413 C406 0.929 . S
Cu414 N415 1.999 . S
Cu414 O420 1.974 . S
Cu414 N425 1.985 . S
Cu414 O434 1.959 . S
N415 Cu414 1.999 . S
N415 C417 1.263 . S
N415 C419 1.389 . S
N416 C417 1.358 . S
N416 C418 1.400 . S
C417 N415 1.263 . S
C417 N416 1.358 . S
C417 H423 0.930 . S
C418 N416 1.400 . S
C418 C419 1.351 . S
C418 H435 0.930 . S
C419 N415 1.389 . S
C419 C418 1.351 . S
C419 H424 0.930 . S
O420 Cu414 1.974 . S
O420 C430 1.282 . S
C421 O422 1.261 . S
C421 O434 1.251 . S
O422 C421 1.261 . S
H423 C417 0.930 . S
H424 C419 0.930 . S
N425 Cu414 1.985 . S
N425 C427 1.335 . S
N425 C428 1.390 . S
N426 C427 1.345 . S
N426 C429 1.336 . S
C427 N425 1.335 . S
C427 N426 1.345 . S
C427 H432 0.930 . S
C428 N425 1.390 . S
C428 C429 1.346 . S
C428 H433 0.930 . S
C429 N426 1.336 . S
C429 C428 1.346 . S
C429 H436 0.929 . S
C430 O420 1.282 . S
C430 O431 1.216 . S
O431 C430 1.216 . S
H432 C427 0.930 . S
H433 C428 0.930 . S
O434 Cu414 1.959 . S
O434 C421 1.251 . S
H435 C418 0.930 . S
H436 C429 0.929 . S
Cu437 N438 1.999 . S
Cu437 O443 1.974 . S
Cu437 N448 1.985 . S
Cu437 O457 1.959 . S
N438 Cu437 1.999 . S
N438 C440 1.263 . S
N438 C442 1.389 . S
N439 C440 1.358 . S
N439 C441 1.400 . S
C440 N438 1.263 . S
C440 N439 1.358 . S
C440 H446 0.930 . S
C441 N439 1.400 . S
C441 C442 1.351 . S
C441 H458 0.930 . S
C442 N438 1.389 . S
C442 C441 1.351 . S
C442 H447 0.930 . S
O443 Cu437 1.974 . S
O443 C453 1.282 . S
C444 O445 1.261 . S
C444 O457 1.251 . S
O445 C444 1.261 . S
H446 C440 0.930 . S
H447 C442 0.930 . S
N448 Cu437 1.985 . S
N448 C450 1.335 . S
N448 C451 1.390 . S
N449 C450 1.345 . S
N449 C452 1.336 . S
C450 N448 1.335 . S
C450 N449 1.345 . S
C450 H455 0.930 . S
C451 N448 1.390 . S
C451 C452 1.346 . S
C451 H456 0.930 . S
C452 N449 1.336 . S
C452 C451 1.346 . S
C452 H459 0.929 . S
C453 O443 1.282 . S
C453 O454 1.216 . S
O454 C453 1.216 . S
H455 C450 0.930 . S
H456 C451 0.930 . S
O457 Cu437 1.959 . S
O457 C444 1.251 . S
H458 C441 0.930 . S
H459 C452 0.929 . S
Cu460 N461 1.999 . S
Cu460 O466 1.974 . S
Cu460 N471 1.985 . S
Cu460 O480 1.959 . S
N461 Cu460 1.999 . S
N461 C463 1.263 . S
N461 C465 1.389 . S
N462 C463 1.358 . S
N462 C464 1.400 . S
C463 N461 1.263 . S
C463 N462 1.358 . S
C463 H469 0.930 . S
C464 N462 1.400 . S
C464 C465 1.351 . S
C464 H481 0.930 . S
C465 N461 1.389 . S
C465 C464 1.351 . S
C465 H470 0.930 . S
O466 Cu460 1.974 . S
O466 C476 1.282 . S
C467 O468 1.261 . S
C467 O480 1.251 . S
O468 C467 1.261 . S
H469 C463 0.930 . S
H470 C465 0.930 . S
N471 Cu460 1.985 . S
N471 C473 1.335 . S
N471 C474 1.390 . S
N472 C473 1.345 . S
N472 C475 1.336 . S
C473 N471 1.335 . S
C473 N472 1.345 . S
C473 H478 0.930 . S
C474 N471 1.390 . S
C474 C475 1.346 . S
C474 H479 0.930 . S
C475 N472 1.336 . S
C475 C474 1.346 . S
C475 H482 0.929 . S
C476 O466 1.282 . S
C476 O477 1.216 . S
O477 C476 1.216 . S
H478 C473 0.930 . S
H479 C474 0.930 . S
O480 Cu460 1.959 . S
O480 C467 1.251 . S
H481 C464 0.930 . S
H482 C475 0.929 . S
Cu483 N484 1.999 . S
Cu483 O489 1.974 . S
Cu483 N494 1.985 . S
Cu483 O503 1.959 . S
N484 Cu483 1.999 . S
N484 C486 1.263 . S
N484 C488 1.389 . S
N485 C486 1.358 . S
N485 C487 1.400 . S
C486 N484 1.263 . S
C486 N485 1.358 . S
C486 H492 0.930 . S
C487 N485 1.400 . S
C487 C488 1.351 . S
C487 H504 0.930 . S
C488 N484 1.389 . S
C488 C487 1.351 . S
C488 H493 0.930 . S
O489 Cu483 1.974 . S
O489 C499 1.282 . S
C490 O491 1.261 . S
C490 O503 1.251 . S
O491 C490 1.261 . S
H492 C486 0.930 . S
H493 C488 0.930 . S
N494 Cu483 1.985 . S
N494 C496 1.335 . S
N494 C497 1.390 . S
N495 C496 1.345 . S
N495 C498 1.336 . S
C496 N494 1.335 . S
C496 N495 1.345 . S
C496 H501 0.930 . S
C497 N494 1.390 . S
C497 C498 1.346 . S
C497 H502 0.930 . S
C498 N495 1.336 . S
C498 C497 1.346 . S
C498 H505 0.929 . S
C499 O489 1.282 . S
C499 O500 1.216 . S
O500 C499 1.216 . S
H501 C496 0.930 . S
H502 C497 0.930 . S
O503 Cu483 1.959 . S
O503 C490 1.251 . S
H504 C487 0.930 . S
H505 C498 0.929 . S
Cu506 N507 1.999 . S
Cu506 O512 1.974 . S
Cu506 N517 1.985 . S
Cu506 O526 1.959 . S
N507 Cu506 1.999 . S
N507 C509 1.263 . S
N507 C511 1.389 . S
N508 C509 1.358 . S
N508 C510 1.400 . S
C509 N507 1.263 . S
C509 N508 1.358 . S
C509 H515 0.930 . S
C510 N508 1.400 . S
C510 C511 1.351 . S
C510 H527 0.930 . S
C511 N507 1.389 . S
C511 C510 1.351 . S
C511 H516 0.930 . S
O512 Cu506 1.974 . S
O512 C522 1.282 . S
C513 O514 1.261 . S
C513 O526 1.251 . S
O514 C513 1.261 . S
H515 C509 0.930 . S
H516 C511 0.930 . S
N517 Cu506 1.985 . S
N517 C519 1.335 . S
N517 C520 1.390 . S
N518 C519 1.345 . S
N518 C521 1.336 . S
C519 N517 1.335 . S
C519 N518 1.345 . S
C519 H524 0.930 . S
C520 N517 1.390 . S
C520 C521 1.346 . S
C520 H525 0.930 . S
C521 N518 1.336 . S
C521 C520 1.346 . S
C521 H528 0.929 . S
C522 O512 1.282 . S
C522 O523 1.216 . S
O523 C522 1.216 . S
H524 C519 0.930 . S
H525 C520 0.930 . S
O526 Cu506 1.959 . S
O526 C513 1.251 . S
H527 C510 0.930 . S
H528 C521 0.929 . S
Cu529 N530 1.999 . S
Cu529 O535 1.974 . S
Cu529 N540 1.985 . S
Cu529 O549 1.959 . S
N530 Cu529 1.999 . S
N530 C532 1.263 . S
N530 C534 1.389 . S
N531 C532 1.358 . S
N531 C533 1.400 . S
C532 N530 1.263 . S
C532 N531 1.358 . S
C532 H538 0.930 . S
C533 N531 1.400 . S
C533 C534 1.351 . S
C533 H550 0.930 . S
C534 N530 1.389 . S
C534 C533 1.351 . S
C534 H539 0.930 . S
O535 Cu529 1.974 . S
O535 C545 1.282 . S
C536 O537 1.261 . S
C536 O549 1.251 . S
O537 C536 1.261 . S
H538 C532 0.930 . S
H539 C534 0.930 . S
N540 Cu529 1.985 . S
N540 C542 1.335 . S
N540 C543 1.390 . S
N541 C542 1.345 . S
N541 C544 1.336 . S
C542 N540 1.335 . S
C542 N541 1.345 . S
C542 H547 0.930 . S
C543 N540 1.390 . S
C543 C544 1.346 . S
C543 H548 0.930 . S
C544 N541 1.336 . S
C544 C543 1.346 . S
C544 H551 0.929 . S
C545 O535 1.282 . S
C545 O546 1.216 . S
O546 C545 1.216 . S
H547 C542 0.930 . S
H548 C543 0.930 . S
O549 Cu529 1.959 . S
O549 C536 1.251 . S
H550 C533 0.930 . S
H551 C544 0.929 . S
Cu552 N553 1.999 . S
Cu552 O558 1.974 . S
Cu552 N563 1.985 . S
Cu552 O572 1.959 . S
N553 Cu552 1.999 . S
N553 C555 1.263 . S
N553 C557 1.389 . S
N554 C555 1.358 . S
N554 C556 1.400 . S
C555 N553 1.263 . S
C555 N554 1.358 . S
C555 H561 0.930 . S
C556 N554 1.400 . S
C556 C557 1.351 . S
C556 H573 0.930 . S
C557 N553 1.389 . S
C557 C556 1.351 . S
C557 H562 0.930 . S
O558 Cu552 1.974 . S
O558 C568 1.282 . S
C559 O560 1.261 . S
C559 O572 1.251 . S
O560 C559 1.261 . S
H561 C555 0.930 . S
H562 C557 0.930 . S
N563 Cu552 1.985 . S
N563 C565 1.335 . S
N563 C566 1.390 . S
N564 C565 1.345 . S
N564 C567 1.336 . S
C565 N563 1.335 . S
C565 N564 1.345 . S
C565 H570 0.930 . S
C566 N563 1.390 . S
C566 C567 1.346 . S
C566 H571 0.930 . S
C567 N564 1.336 . S
C567 C566 1.346 . S
C567 H574 0.929 . S
C568 O558 1.282 . S
C568 O569 1.216 . S
O569 C568 1.216 . S
H570 C565 0.930 . S
H571 C566 0.930 . S
O572 Cu552 1.959 . S
O572 C559 1.251 . S
H573 C556 0.930 . S
H574 C567 0.929 . S
Cu575 N576 1.999 . S
Cu575 O581 1.974 . S
Cu575 N586 1.985 . S
Cu575 O595 1.959 . S
N576 Cu575 1.999 . S
N576 C578 1.263 . S
N576 C580 1.389 . S
N577 C578 1.358 . S
N577 C579 1.400 . S
C578 N576 1.263 . S
C578 N577 1.358 . S
C578 H584 0.930 . S
C579 N577 1.400 . S
C579 C580 1.351 . S
C579 H596 0.930 . S
C580 N576 1.389 . S
C580 C579 1.351 . S
C580 H585 0.930 . S
O581 Cu575 1.974 . S
O581 C591 1.282 . S
C582 O583 1.261 . S
C582 O595 1.251 . S
O583 C582 1.261 . S
H584 C578 0.930 . S
H585 C580 0.930 . S
N586 Cu575 1.985 . S
N586 C588 1.335 . S
N586 C589 1.390 . S
N587 C588 1.345 . S
N587 C590 1.336 . S
C588 N586 1.335 . S
C588 N587 1.345 . S
C588 H593 0.930 . S
C589 N586 1.390 . S
C589 C590 1.346 . S
C589 H594 0.930 . S
C590 N587 1.336 . S
C590 C589 1.346 . S
C590 H597 0.929 . S
C591 O581 1.282 . S
C591 O592 1.216 . S
O592 C591 1.216 . S
H593 C588 0.930 . S
H594 C589 0.930 . S
O595 Cu575 1.959 . S
O595 C582 1.251 . S
H596 C579 0.930 . S
H597 C590 0.929 . S
Cu598 N599 1.999 . S
Cu598 O604 1.974 . S
Cu598 N609 1.985 . S
Cu598 O618 1.959 . S
N599 Cu598 1.999 . S
N599 C601 1.263 . S
N599 C603 1.389 . S
N600 C601 1.358 . S
N600 C602 1.400 . S
C601 N599 1.263 . S
C601 N600 1.358 . S
C601 H607 0.930 . S
C602 N600 1.400 . S
C602 C603 1.351 . S
C602 H619 0.930 . S
C603 N599 1.389 . S
C603 C602 1.351 . S
C603 H608 0.930 . S
O604 Cu598 1.974 . S
O604 C614 1.282 . S
C605 O606 1.261 . S
C605 O618 1.251 . S
O606 C605 1.261 . S
H607 C601 0.930 . S
H608 C603 0.930 . S
N609 Cu598 1.985 . S
N609 C611 1.335 . S
N609 C612 1.390 . S
N610 C611 1.345 . S
N610 C613 1.336 . S
C611 N609 1.335 . S
C611 N610 1.345 . S
C611 H616 0.930 . S
C612 N609 1.390 . S
C612 C613 1.346 . S
C612 H617 0.930 . S
C613 N610 1.336 . S
C613 C612 1.346 . S
C613 H620 0.929 . S
C614 O604 1.282 . S
C614 O615 1.216 . S
O615 C614 1.216 . S
H616 C611 0.930 . S
H617 C612 0.930 . S
O618 Cu598 1.959 . S
O618 C605 1.251 . S
H619 C602 0.930 . S
H620 C613 0.929 . S
Cu621 N622 1.999 . S
Cu621 O627 1.974 . S
Cu621 N632 1.985 . S
Cu621 O641 1.959 . S
N622 Cu621 1.999 . S
N622 C624 1.263 . S
N622 C626 1.389 . S
N623 C624 1.358 . S
N623 C625 1.400 . S
C624 N622 1.263 . S
C624 N623 1.358 . S
C624 H630 0.930 . S
C625 N623 1.400 . S
C625 C626 1.351 . S
C625 H642 0.930 . S
C626 N622 1.389 . S
C626 C625 1.351 . S
C626 H631 0.930 . S
O627 Cu621 1.974 . S
O627 C637 1.282 . S
C628 O629 1.261 . S
C628 O641 1.251 . S
O629 C628 1.261 . S
H630 C624 0.930 . S
H631 C626 0.930 . S
N632 Cu621 1.985 . S
N632 C634 1.335 . S
N632 C635 1.390 . S
N633 C634 1.345 . S
N633 C636 1.336 . S
C634 N632 1.335 . S
C634 N633 1.345 . S
C634 H639 0.930 . S
C635 N632 1.390 . S
C635 C636 1.346 . S
C635 H640 0.930 . S
C636 N633 1.336 . S
C636 C635 1.346 . S
C636 H643 0.929 . S
C637 O627 1.282 . S
C637 O638 1.216 . S
O638 C637 1.216 . S
H639 C634 0.930 . S
H640 C635 0.930 . S
O641 Cu621 1.959 . S
O641 C628 1.251 . S
H642 C625 0.930 . S
H643 C636 0.929 . S
Cu644 N645 1.999 . S
Cu644 O650 1.974 . S
Cu644 N655 1.985 . S
Cu644 O664 1.959 . S
N645 Cu644 1.999 . S
N645 C647 1.263 . S
N645 C649 1.389 . S
N646 C647 1.358 . S
N646 C648 1.400 . S
C647 N645 1.263 . S
C647 N646 1.358 . S
C647 H653 0.930 . S
C648 N646 1.400 . S
C648 C649 1.351 . S
C648 H665 0.930 . S
C649 N645 1.389 . S
C649 C648 1.351 . S
C649 H654 0.930 . S
O650 Cu644 1.974 . S
O650 C660 1.282 . S
C651 O652 1.261 . S
C651 O664 1.251 . S
O652 C651 1.261 . S
H653 C647 0.930 . S
H654 C649 0.930 . S
N655 Cu644 1.985 . S
N655 C657 1.335 . S
N655 C658 1.390 . S
N656 C657 1.345 . S
N656 C659 1.336 . S
C657 N655 1.335 . S
C657 N656 1.345 . S
C657 H662 0.930 . S
C658 N655 1.390 . S
C658 C659 1.346 . S
C658 H663 0.930 . S
C659 N656 1.336 . S
C659 C658 1.346 . S
C659 H666 0.929 . S
C660 O650 1.282 . S
C660 O661 1.216 . S
O661 C660 1.216 . S
H662 C657 0.930 . S
H663 C658 0.930 . S
O664 Cu644 1.959 . S
O664 C651 1.251 . S
H665 C648 0.930 . S
H666 C659 0.929 . S
Cu667 N668 1.999 . S
Cu667 O673 1.974 . S
Cu667 N678 1.985 . S
Cu667 O687 1.959 . S
N668 Cu667 1.999 . S
N668 C670 1.263 . S
N668 C672 1.389 . S
N669 C670 1.358 . S
N669 C671 1.400 . S
C670 N668 1.263 . S
C670 N669 1.358 . S
C670 H676 0.930 . S
C671 N669 1.400 . S
C671 C672 1.351 . S
C671 H688 0.930 . S
C672 N668 1.389 . S
C672 C671 1.351 . S
C672 H677 0.930 . S
O673 Cu667 1.974 . S
O673 C683 1.282 . S
C674 O675 1.261 . S
C674 O687 1.251 . S
O675 C674 1.261 . S
H676 C670 0.930 . S
H677 C672 0.930 . S
N678 Cu667 1.985 . S
N678 C680 1.335 . S
N678 C681 1.390 . S
N679 C680 1.345 . S
N679 C682 1.336 . S
C680 N678 1.335 . S
C680 N679 1.345 . S
C680 H685 0.930 . S
C681 N678 1.390 . S
C681 C682 1.346 . S
C681 H686 0.930 . S
C682 N679 1.336 . S
C682 C681 1.346 . S
C682 H689 0.929 . S
C683 O673 1.282 . S
C683 O684 1.216 . S
O684 C683 1.216 . S
H685 C680 0.930 . S
H686 C681 0.930 . S
O687 Cu667 1.959 . S
O687 C674 1.251 . S
H688 C671 0.930 . S
H689 C682 0.929 . S
Cu690 N691 1.999 . S
Cu690 O696 1.974 . S
Cu690 N701 1.985 . S
Cu690 O710 1.959 . S
N691 Cu690 1.999 . S
N691 C693 1.263 . S
N691 C695 1.389 . S
N692 C693 1.358 . S
N692 C694 1.400 . S
C693 N691 1.263 . S
C693 N692 1.358 . S
C693 H699 0.930 . S
C694 N692 1.400 . S
C694 C695 1.351 . S
C694 H711 0.930 . S
C695 N691 1.389 . S
C695 C694 1.351 . S
C695 H700 0.930 . S
O696 Cu690 1.974 . S
O696 C706 1.282 . S
C697 O698 1.261 . S
C697 O710 1.251 . S
O698 C697 1.261 . S
H699 C693 0.930 . S
H700 C695 0.930 . S
N701 Cu690 1.985 . S
N701 C703 1.335 . S
N701 C704 1.390 . S
N702 C703 1.345 . S
N702 C705 1.336 . S
C703 N701 1.335 . S
C703 N702 1.345 . S
C703 H708 0.930 . S
C704 N701 1.390 . S
C704 C705 1.346 . S
C704 H709 0.930 . S
C705 N702 1.336 . S
C705 C704 1.346 . S
C705 H712 0.929 . S
C706 O696 1.282 . S
C706 O707 1.216 . S
O707 C706 1.216 . S
H708 C703 0.930 . S
H709 C704 0.930 . S
O710 Cu690 1.959 . S
O710 C697 1.251 . S
H711 C694 0.930 . S
H712 C705 0.929 . S
Cu713 N714 1.999 . S
Cu713 O719 1.974 . S
Cu713 N724 1.985 . S
Cu713 O733 1.959 . S
N714 Cu713 1.999 . S
N714 C716 1.263 . S
N714 C718 1.389 . S
N715 C716 1.358 . S
N715 C717 1.400 . S
C716 N714 1.263 . S
C716 N715 1.358 . S
C716 H722 0.930 . S
C717 N715 1.400 . S
C717 C718 1.351 . S
C717 H734 0.930 . S
C718 N714 1.389 . S
C718 C717 1.351 . S
C718 H723 0.930 . S
O719 Cu713 1.974 . S
O719 C729 1.282 . S
C720 O721 1.261 . S
C720 O733 1.251 . S
O721 C720 1.261 . S
H722 C716 0.930 . S
H723 C718 0.930 . S
N724 Cu713 1.985 . S
N724 C726 1.335 . S
N724 C727 1.390 . S
N725 C726 1.345 . S
N725 C728 1.336 . S
C726 N724 1.335 . S
C726 N725 1.345 . S
C726 H731 0.930 . S
C727 N724 1.390 . S
C727 C728 1.346 . S
C727 H732 0.930 . S
C728 N725 1.336 . S
C728 C727 1.346 . S
C728 H735 0.929 . S
C729 O719 1.282 . S
C729 O730 1.216 . S
O730 C729 1.216 . S
H731 C726 0.930 . S
H732 C727 0.930 . S
O733 Cu713 1.959 . S
O733 C720 1.251 . S
H734 C717 0.930 . S
H735 C728 0.929 . S
Cu736 N737 1.999 . S
Cu736 O742 1.974 . S
Cu736 N747 1.985 . S
Cu736 O756 1.959 . S
N737 Cu736 1.999 . S
N737 C739 1.263 . S
N737 C741 1.389 . S
N738 C739 1.358 . S
N738 C740 1.400 . S
C739 N737 1.263 . S
C739 N738 1.358 . S
C739 H745 0.930 . S
C740 N738 1.400 . S
C740 C741 1.351 . S
C740 H757 0.930 . S
C741 N737 1.389 . S
C741 C740 1.351 . S
C741 H746 0.930 . S
O742 Cu736 1.974 . S
O742 C752 1.282 . S
C743 O744 1.261 . S
C743 O756 1.251 . S
O744 C743 1.261 . S
H745 C739 0.930 . S
H746 C741 0.930 . S
N747 Cu736 1.985 . S
N747 C749 1.335 . S
N747 C750 1.390 . S
N748 C749 1.345 . S
N748 C751 1.336 . S
C749 N747 1.335 . S
C749 N748 1.345 . S
C749 H754 0.930 . S
C750 N747 1.390 . S
C750 C751 1.346 . S
C750 H755 0.930 . S
C751 N748 1.336 . S
C751 C750 1.346 . S
C751 H758 0.929 . S
C752 O742 1.282 . S
C752 O753 1.216 . S
O753 C752 1.216 . S
H754 C749 0.930 . S
H755 C750 0.930 . S
O756 Cu736 1.959 . S
O756 C743 1.251 . S
H757 C740 0.930 . S
H758 C751 0.929 . S
Cu759 N760 1.999 . S
Cu759 O765 1.974 . S
Cu759 N770 1.985 . S
Cu759 O779 1.959 . S
N760 Cu759 1.999 . S
N760 C762 1.263 . S
N760 C764 1.389 . S
N761 C762 1.358 . S
N761 C763 1.400 . S
C762 N760 1.263 . S
C762 N761 1.358 . S
C762 H768 0.930 . S
C763 N761 1.400 . S
C763 C764 1.351 . S
C763 H780 0.930 . S
C764 N760 1.389 . S
C764 C763 1.351 . S
C764 H769 0.930 . S
O765 Cu759 1.974 . S
O765 C775 1.282 . S
C766 O767 1.261 . S
C766 O779 1.251 . S
O767 C766 1.261 . S
H768 C762 0.930 . S
H769 C764 0.930 . S
N770 Cu759 1.985 . S
N770 C772 1.335 . S
N770 C773 1.390 . S
N771 C772 1.345 . S
N771 C774 1.336 . S
C772 N770 1.335 . S
C772 N771 1.345 . S
C772 H777 0.930 . S
C773 N770 1.390 . S
C773 C774 1.346 . S
C773 H778 0.930 . S
C774 N771 1.336 . S
C774 C773 1.346 . S
C774 H781 0.929 . S
C775 O765 1.282 . S
C775 O776 1.216 . S
O776 C775 1.216 . S
H777 C772 0.930 . S
H778 C773 0.930 . S
O779 Cu759 1.959 . S
O779 C766 1.251 . S
H780 C763 0.930 . S
H781 C774 0.929 . S
Cu782 N783 1.999 . S
Cu782 O788 1.974 . S
Cu782 N793 1.985 . S
Cu782 O802 1.959 . S
N783 Cu782 1.999 . S
N783 C785 1.263 . S
N783 C787 1.389 . S
N784 C785 1.358 . S
N784 C786 1.400 . S
C785 N783 1.263 . S
C785 N784 1.358 . S
C785 H791 0.930 . S
C786 N784 1.400 . S
C786 C787 1.351 . S
C786 H803 0.930 . S
C787 N783 1.389 . S
C787 C786 1.351 . S
C787 H792 0.930 . S
O788 Cu782 1.974 . S
O788 C798 1.282 . S
C789 O790 1.261 . S
C789 O802 1.251 . S
O790 C789 1.261 . S
H791 C785 0.930 . S
H792 C787 0.930 . S
N793 Cu782 1.985 . S
N793 C795 1.335 . S
N793 C796 1.390 . S
N794 C795 1.345 . S
N794 C797 1.336 . S
C795 N793 1.335 . S
C795 N794 1.345 . S
C795 H800 0.930 . S
C796 N793 1.390 . S
C796 C797 1.346 . S
C796 H801 0.930 . S
C797 N794 1.336 . S
C797 C796 1.346 . S
C797 H804 0.929 . S
C798 O788 1.282 . S
C798 O799 1.216 . S
O799 C798 1.216 . S
H800 C795 0.930 . S
H801 C796 0.930 . S
O802 Cu782 1.959 . S
O802 C789 1.251 . S
H803 C786 0.930 . S
H804 C797 0.929 . S
Cu805 N806 1.999 . S
Cu805 O811 1.974 . S
Cu805 N816 1.985 . S
Cu805 O825 1.959 . S
N806 Cu805 1.999 . S
N806 C808 1.263 . S
N806 C810 1.389 . S
N807 C808 1.358 . S
N807 C809 1.400 . S
C808 N806 1.263 . S
C808 N807 1.358 . S
C808 H814 0.930 . S
C809 N807 1.400 . S
C809 C810 1.351 . S
C809 H826 0.930 . S
C810 N806 1.389 . S
C810 C809 1.351 . S
C810 H815 0.930 . S
O811 Cu805 1.974 . S
O811 C821 1.282 . S
C812 O813 1.261 . S
C812 O825 1.251 . S
O813 C812 1.261 . S
H814 C808 0.930 . S
H815 C810 0.930 . S
N816 Cu805 1.985 . S
N816 C818 1.335 . S
N816 C819 1.390 . S
N817 C818 1.345 . S
N817 C820 1.336 . S
C818 N816 1.335 . S
C818 N817 1.345 . S
C818 H823 0.930 . S
C819 N816 1.390 . S
C819 C820 1.346 . S
C819 H824 0.930 . S
C820 N817 1.336 . S
C820 C819 1.346 . S
C820 H827 0.929 . S
C821 O811 1.282 . S
C821 O822 1.216 . S
O822 C821 1.216 . S
H823 C818 0.930 . S
H824 C819 0.930 . S
O825 Cu805 1.959 . S
O825 C812 1.251 . S
H826 C809 0.930 . S
H827 C820 0.929 . S
Cu828 N829 1.999 . S
Cu828 O834 1.974 . S
Cu828 N839 1.985 . S
Cu828 O848 1.959 . S
N829 Cu828 1.999 . S
N829 C831 1.263 . S
N829 C833 1.389 . S
N830 C831 1.358 . S
N830 C832 1.400 . S
C831 N829 1.263 . S
C831 N830 1.358 . S
C831 H837 0.930 . S
C832 N830 1.400 . S
C832 C833 1.351 . S
C832 H849 0.930 . S
C833 N829 1.389 . S
C833 C832 1.351 . S
C833 H838 0.930 . S
O834 Cu828 1.974 . S
O834 C844 1.282 . S
C835 O836 1.261 . S
C835 O848 1.251 . S
O836 C835 1.261 . S
H837 C831 0.930 . S
H838 C833 0.930 . S
N839 Cu828 1.985 . S
N839 C841 1.335 . S
N839 C842 1.390 . S
N840 C841 1.345 . S
N840 C843 1.336 . S
C841 N839 1.335 . S
C841 N840 1.345 . S
C841 H846 0.930 . S
C842 N839 1.390 . S
C842 C843 1.346 . S
C842 H847 0.930 . S
C843 N840 1.336 . S
C843 C842 1.346 . S
C843 H850 0.929 . S
C844 O834 1.282 . S
C844 O845 1.216 . S
O845 C844 1.216 . S
H846 C841 0.930 . S
H847 C842 0.930 . S
O848 Cu828 1.959 . S
O848 C835 1.251 . S
H849 C832 0.930 . S
H850 C843 0.929 . S
Cu851 N852 1.999 . S
Cu851 O857 1.974 . S
Cu851 N862 1.985 . S
Cu851 O871 1.959 . S
N852 Cu851 1.999 . S
N852 C854 1.263 . S
N852 C856 1.389 . S
N853 C854 1.358 . S
N853 C855 1.400 . S
C854 N852 1.263 . S
C854 N853 1.358 . S
C854 H860 0.930 . S
C855 N853 1.400 . S
C855 C856 1.351 . S
C855 H872 0.930 . S
C856 N852 1.389 . S
C856 C855 1.351 . S
C856 H861 0.930 . S
O857 Cu851 1.974 . S
O857 C867 1.282 . S
C858 O859 1.261 . S
C858 O871 1.251 . S
O859 C858 1.261 . S
H860 C854 0.930 . S
H861 C856 0.930 . S
N862 Cu851 1.985 . S
N862 C864 1.335 . S
N862 C865 1.390 . S
N863 C864 1.345 . S
N863 C866 1.336 . S
C864 N862 1.335 . S
C864 N863 1.345 . S
C864 H869 0.930 . S
C865 N862 1.390 . S
C865 C866 1.346 . S
C865 H870 0.930 . S
C866 N863 1.336 . S
C866 C865 1.346 . S
C866 H873 0.929 . S
C867 O857 1.282 . S
C867 O868 1.216 . S
O868 C867 1.216 . S
H869 C864 0.930 . S
H870 C865 0.930 . S
O871 Cu851 1.959 . S
O871 C858 1.251 . S
H872 C855 0.930 . S
H873 C866 0.929 . S
Cu874 N875 1.999 . S
Cu874 O880 1.974 . S
Cu874 N885 1.985 . S
Cu874 O894 1.959 . S
N875 Cu874 1.999 . S
N875 C877 1.263 . S
N875 C879 1.389 . S
N876 C877 1.358 . S
N876 C878 1.400 . S
C877 N875 1.263 . S
C877 N876 1.358 . S
C877 H883 0.930 . S
C878 N876 1.400 . S
C878 C879 1.351 . S
C878 H895 0.930 . S
C879 N875 1.389 . S
C879 C878 1.351 . S
C879 H884 0.930 . S
O880 Cu874 1.974 . S
O880 C890 1.282 . S
C881 O882 1.261 . S
C881 O894 1.251 . S
O882 C881 1.261 . S
H883 C877 0.930 . S
H884 C879 0.930 . S
N885 Cu874 1.985 . S
N885 C887 1.335 . S
N885 C888 1.390 . S
N886 C887 1.345 . S
N886 C889 1.336 . S
C887 N885 1.335 . S
C887 N886 1.345 . S
C887 H892 0.930 . S
C888 N885 1.390 . S
C888 C889 1.346 . S
C888 H893 0.930 . S
C889 N886 1.336 . S
C889 C888 1.346 . S
C889 H896 0.929 . S
C890 O880 1.282 . S
C890 O891 1.216 . S
O891 C890 1.216 . S
H892 C887 0.930 . S
H893 C888 0.930 . S
O894 Cu874 1.959 . S
O894 C881 1.251 . S
H895 C878 0.930 . S
H896 C889 0.929 . S
Cu897 N898 1.999 . S
Cu897 O903 1.974 . S
Cu897 N908 1.985 . S
Cu897 O917 1.959 . S
N898 Cu897 1.999 . S
N898 C900 1.263 . S
N898 C902 1.389 . S
N899 C900 1.358 . S
N899 C901 1.400 . S
C900 N898 1.263 . S
C900 N899 1.358 . S
C900 H906 0.930 . S
C901 N899 1.400 . S
C901 C902 1.351 . S
C901 H918 0.930 . S
C902 N898 1.389 . S
C902 C901 1.351 . S
C902 H907 0.930 . S
O903 Cu897 1.974 . S
O903 C913 1.282 . S
C904 O905 1.261 . S
C904 O917 1.251 . S
O905 C904 1.261 . S
H906 C900 0.930 . S
H907 C902 0.930 . S
N908 Cu897 1.985 . S
N908 C910 1.335 . S
N908 C911 1.390 . S
N909 C910 1.345 . S
N909 C912 1.336 . S
C910 N908 1.335 . S
C910 N909 1.345 . S
C910 H915 0.930 . S
C911 N908 1.390 . S
C911 C912 1.346 . S
C911 H916 0.930 . S
C912 N909 1.336 . S
C912 C911 1.346 . S
C912 H919 0.929 . S
C913 O903 1.282 . S
C913 O914 1.216 . S
O914 C913 1.216 . S
H915 C910 0.930 . S
H916 C911 0.930 . S
O917 Cu897 1.959 . S
O917 C904 1.251 . S
H918 C901 0.930 . S
H919 C912 0.929 . S
Cu920 N921 1.999 . S
Cu920 O926 1.974 . S
Cu920 N931 1.985 . S
Cu920 O940 1.959 . S
N921 Cu920 1.999 . S
N921 C923 1.263 . S
N921 C925 1.389 . S
N922 C923 1.358 . S
N922 C924 1.400 . S
C923 N921 1.263 . S
C923 N922 1.358 . S
C923 H929 0.930 . S
C924 N922 1.400 . S
C924 C925 1.351 . S
C924 H941 0.930 . S
C925 N921 1.389 . S
C925 C924 1.351 . S
C925 H930 0.930 . S
O926 Cu920 1.974 . S
O926 C936 1.282 . S
C927 O928 1.261 . S
C927 O940 1.251 . S
O928 C927 1.261 . S
H929 C923 0.930 . S
H930 C925 0.930 . S
N931 Cu920 1.985 . S
N931 C933 1.335 . S
N931 C934 1.390 . S
N932 C933 1.345 . S
N932 C935 1.336 . S
C933 N931 1.335 . S
C933 N932 1.345 . S
C933 H938 0.930 . S
C934 N931 1.390 . S
C934 C935 1.346 . S
C934 H939 0.930 . S
C935 N932 1.336 . S
C935 C934 1.346 . S
C935 H942 0.929 . S
C936 O926 1.282 . S
C936 O937 1.216 . S
O937 C936 1.216 . S
H938 C933 0.930 . S
H939 C934 0.930 . S
O940 Cu920 1.959 . S
O940 C927 1.251 . S
H941 C924 0.930 . S
H942 C935 0.929 . S
Cu943 N944 1.999 . S
Cu943 O949 1.974 . S
Cu943 N954 1.985 . S
Cu943 O963 1.959 . S
N944 Cu943 1.999 . S
N944 C946 1.263 . S
N944 C948 1.389 . S
N945 C946 1.358 . S
N945 C947 1.400 . S
C946 N944 1.263 . S
C946 N945 1.358 . S
C946 H952 0.930 . S
C947 N945 1.400 . S
C947 C948 1.351 . S
C947 H964 0.930 . S
C948 N944 1.389 . S
C948 C947 1.351 . S
C948 H953 0.930 . S
O949 Cu943 1.974 . S
O949 C959 1.282 . S
C950 O951 1.261 . S
C950 O963 1.251 . S
O951 C950 1.261 . S
H952 C946 0.930 . S
H953 C948 0.930 . S
N954 Cu943 1.985 . S
N954 C956 1.335 . S
N954 C957 1.390 . S
N955 C956 1.345 . S
N955 C958 1.336 . S
C956 N954 1.335 . S
C956 N955 1.345 . S
C956 H961 0.930 . S
C957 N954 1.390 . S
C957 C958 1.346 . S
C957 H962 0.930 . S
C958 N955 1.336 . S
C958 C957 1.346 . S
C958 H965 0.929 . S
C959 O949 1.282 . S
C959 O960 1.216 . S
O960 C959 1.216 . S
H961 C956 0.930 . S
H962 C957 0.930 . S
O963 Cu943 1.959 . S
O963 C950 1.251 . S
H964 C947 0.930 . S
H965 C958 0.929 . S
Cu966 N967 1.999 . S
Cu966 O972 1.974 . S
Cu966 N977 1.985 . S
Cu966 O986 1.959 . S
N967 Cu966 1.999 . S
N967 C969 1.263 . S
N967 C971 1.389 . S
N968 C969 1.358 . S
N968 C970 1.400 . S
C969 N967 1.263 . S
C969 N968 1.358 . S
C969 H975 0.930 . S
C970 N968 1.400 . S
C970 C971 1.351 . S
C970 H987 0.930 . S
C971 N967 1.389 . S
C971 C970 1.351 . S
C971 H976 0.930 . S
O972 Cu966 1.974 . S
O972 C982 1.282 . S
C973 O974 1.261 . S
C973 O986 1.251 . S
O974 C973 1.261 . S
H975 C969 0.930 . S
H976 C971 0.930 . S
N977 Cu966 1.985 . S
N977 C979 1.335 . S
N977 C980 1.390 . S
N978 C979 1.345 . S
N978 C981 1.336 . S
C979 N977 1.335 . S
C979 N978 1.345 . S
C979 H984 0.930 . S
C980 N977 1.390 . S
C980 C981 1.346 . S
C980 H985 0.930 . S
C981 N978 1.336 . S
C981 C980 1.346 . S
C981 H988 0.929 . S
C982 O972 1.282 . S
C982 O983 1.216 . S
O983 C982 1.216 . S
H984 C979 0.930 . S
H985 C980 0.930 . S
O986 Cu966 1.959 . S
O986 C973 1.251 . S
H987 C970 0.930 . S
H988 C981 0.929 . S
Cu989 N990 1.999 . S
Cu989 O995 1.974 . S
Cu989 N1000 1.985 . S
Cu989 O1009 1.959 . S
N990 Cu989 1.999 . S
N990 C992 1.263 . S
N990 C994 1.389 . S
N991 C992 1.358 . S
N991 C993 1.400 . S
C992 N990 1.263 . S
C992 N991 1.358 . S
C992 H998 0.930 . S
C993 N991 1.400 . S
C993 C994 1.351 . S
C993 H1010 0.930 . S
C994 N990 1.389 . S
C994 C993 1.351 . S
C994 H999 0.930 . S
O995 Cu989 1.974 . S
O995 C1005 1.282 . S
C996 O997 1.261 . S
C996 O1009 1.251 . S
O997 C996 1.261 . S
H998 C992 0.930 . S
H999 C994 0.930 . S
N1000 Cu989 1.985 . S
N1000 C1002 1.335 . S
N1000 C1003 1.390 . S
N1001 C1002 1.345 . S
N1001 C1004 1.336 . S
C1002 N1000 1.335 . S
C1002 N1001 1.345 . S
C1002 H1007 0.930 . S
C1003 N1000 1.390 . S
C1003 C1004 1.346 . S
C1003 H1008 0.930 . S
C1004 N1001 1.336 . S
C1004 C1003 1.346 . S
C1004 H1011 0.929 . S
C1005 O995 1.282 . S
C1005 O1006 1.216 . S
O1006 C1005 1.216 . S
H1007 C1002 0.930 . S
H1008 C1003 0.930 . S
O1009 Cu989 1.959 . S
O1009 C996 1.251 . S
H1010 C993 0.930 . S
H1011 C1004 0.929 . S
Cu1012 N1013 1.999 . S
Cu1012 O1018 1.974 . S
Cu1012 N1023 1.985 . S
Cu1012 O1032 1.959 . S
N1013 Cu1012 1.999 . S
N1013 C1015 1.263 . S
N1013 C1017 1.389 . S
N1014 C1015 1.358 . S
N1014 C1016 1.400 . S
C1015 N1013 1.263 . S
C1015 N1014 1.358 . S
C1015 H1021 0.930 . S
C1016 N1014 1.400 . S
C1016 C1017 1.351 . S
C1016 H1033 0.930 . S
C1017 N1013 1.389 . S
C1017 C1016 1.351 . S
C1017 H1022 0.930 . S
O1018 Cu1012 1.974 . S
O1018 C1028 1.282 . S
C1019 O1020 1.261 . S
C1019 O1032 1.251 . S
O1020 C1019 1.261 . S
H1021 C1015 0.930 . S
H1022 C1017 0.930 . S
N1023 Cu1012 1.985 . S
N1023 C1025 1.335 . S
N1023 C1026 1.390 . S
N1024 C1025 1.345 . S
N1024 C1027 1.336 . S
C1025 N1023 1.335 . S
C1025 N1024 1.345 . S
C1025 H1030 0.930 . S
C1026 N1023 1.390 . S
C1026 C1027 1.346 . S
C1026 H1031 0.930 . S
C1027 N1024 1.336 . S
C1027 C1026 1.346 . S
C1027 H1034 0.929 . S
C1028 O1018 1.282 . S
C1028 O1029 1.216 . S
O1029 C1028 1.216 . S
H1030 C1025 0.930 . S
H1031 C1026 0.930 . S
O1032 Cu1012 1.959 . S
O1032 C1019 1.251 . S
H1033 C1016 0.930 . S
H1034 C1027 0.929 . S
Cu1035 N1036 1.999 . S
Cu1035 O1041 1.974 . S
Cu1035 N1046 1.985 . S
Cu1035 O1055 1.959 . S
N1036 Cu1035 1.999 . S
N1036 C1038 1.263 . S
N1036 C1040 1.389 . S
N1037 C1038 1.358 . S
N1037 C1039 1.400 . S
C1038 N1036 1.263 . S
C1038 N1037 1.358 . S
C1038 H1044 0.930 . S
C1039 N1037 1.400 . S
C1039 C1040 1.351 . S
C1039 H1056 0.930 . S
C1040 N1036 1.389 . S
C1040 C1039 1.351 . S
C1040 H1045 0.930 . S
O1041 Cu1035 1.974 . S
O1041 C1051 1.282 . S
C1042 O1043 1.261 . S
C1042 O1055 1.251 . S
O1043 C1042 1.261 . S
H1044 C1038 0.930 . S
H1045 C1040 0.930 . S
N1046 Cu1035 1.985 . S
N1046 C1048 1.335 . S
N1046 C1049 1.390 . S
N1047 C1048 1.345 . S
N1047 C1050 1.336 . S
C1048 N1046 1.335 . S
C1048 N1047 1.345 . S
C1048 H1053 0.930 . S
C1049 N1046 1.390 . S
C1049 C1050 1.346 . S
C1049 H1054 0.930 . S
C1050 N1047 1.336 . S
C1050 C1049 1.346 . S
C1050 H1057 0.929 . S
C1051 O1041 1.282 . S
C1051 O1052 1.216 . S
O1052 C1051 1.216 . S
H1053 C1048 0.930 . S
H1054 C1049 0.930 . S
O1055 Cu1035 1.959 . S
O1055 C1042 1.251 . S
H1056 C1039 0.930 . S
H1057 C1050 0.929 . S
Cu1058 N1059 1.999 . S
Cu1058 O1064 1.974 . S
Cu1058 N1069 1.985 . S
Cu1058 O1078 1.959 . S
N1059 Cu1058 1.999 . S
N1059 C1061 1.263 . S
N1059 C1063 1.389 . S
N1060 C1061 1.358 . S
N1060 C1062 1.400 . S
C1061 N1059 1.263 . S
C1061 N1060 1.358 . S
C1061 H1067 0.930 . S
C1062 N1060 1.400 . S
C1062 C1063 1.351 . S
C1062 H1079 0.930 . S
C1063 N1059 1.389 . S
C1063 C1062 1.351 . S
C1063 H1068 0.930 . S
O1064 Cu1058 1.974 . S
O1064 C1074 1.282 . S
C1065 O1066 1.261 . S
C1065 O1078 1.251 . S
O1066 C1065 1.261 . S
H1067 C1061 0.930 . S
H1068 C1063 0.930 . S
N1069 Cu1058 1.985 . S
N1069 C1071 1.335 . S
N1069 C1072 1.390 . S
N1070 C1071 1.345 . S
N1070 C1073 1.336 . S
C1071 N1069 1.335 . S
C1071 N1070 1.345 . S
C1071 H1076 0.930 . S
C1072 N1069 1.390 . S
C1072 C1073 1.346 . S
C1072 H1077 0.930 . S
C1073 N1070 1.336 . S
C1073 C1072 1.346 . S
C1073 H1080 0.929 . S
C1074 O1064 1.282 . S
C1074 O1075 1.216 . S
O1075 C1074 1.216 . S
H1076 C1071 0.930 . S
H1077 C1072 0.930 . S
O1078 Cu1058 1.959 . S
O1078 C1065 1.251 . S
H1079 C1062 0.930 . S
H1080 C1073 0.929 . S
Cu1081 N1082 1.999 . S
Cu1081 O1087 1.974 . S
Cu1081 N1092 1.985 . S
Cu1081 O1101 1.959 . S
N1082 Cu1081 1.999 . S
N1082 C1084 1.263 . S
N1082 C1086 1.389 . S
N1083 C1084 1.358 . S
N1083 C1085 1.400 . S
C1084 N1082 1.263 . S
C1084 N1083 1.358 . S
C1084 H1090 0.930 . S
C1085 N1083 1.400 . S
C1085 C1086 1.351 . S
C1085 H1102 0.930 . S
C1086 N1082 1.389 . S
C1086 C1085 1.351 . S
C1086 H1091 0.930 . S
O1087 Cu1081 1.974 . S
O1087 C1097 1.282 . S
C1088 O1089 1.261 . S
C1088 O1101 1.251 . S
O1089 C1088 1.261 . S
H1090 C1084 0.930 . S
H1091 C1086 0.930 . S
N1092 Cu1081 1.985 . S
N1092 C1094 1.335 . S
N1092 C1095 1.390 . S
N1093 C1094 1.345 . S
N1093 C1096 1.336 . S
C1094 N1092 1.335 . S
C1094 N1093 1.345 . S
C1094 H1099 0.930 . S
C1095 N1092 1.390 . S
C1095 C1096 1.346 . S
C1095 H1100 0.930 . S
C1096 N1093 1.336 . S
C1096 C1095 1.346 . S
C1096 H1103 0.929 . S
C1097 O1087 1.282 . S
C1097 O1098 1.216 . S
O1098 C1097 1.216 . S
H1099 C1094 0.930 . S
H1100 C1095 0.930 . S
O1101 Cu1081 1.959 . S
O1101 C1088 1.251 . S
H1102 C1085 0.930 . S
H1103 C1096 0.929 . S
C1104 C1105 1.363 . S
C1104 C1110 1.379 1_565 S
C1104 N1112 1.356 . S
C1105 C1104 1.363 . S
C1105 C1111 1.363 . S
C1106 C1107 1.363 . S
C1106 C1111 1.379 1_545 S
C1106 N1113 1.356 . S
C1107 C1106 1.363 . S
C1107 C1110 1.363 . S
N1108 C1110 1.356 . S
N1108 H1120 0.984 . S
N1108 H1121 0.985 . S
N1109 C1111 1.356 . S
N1109 H1114 0.984 . S
N1109 H1115 0.985 . S
C1110 C1104 1.379 1_545 S
C1110 C1107 1.363 . S
C1110 N1108 1.356 . S
C1111 C1105 1.363 . S
C1111 C1106 1.379 1_565 S
C1111 N1109 1.356 . S
N1112 C1104 1.356 . S
N1112 H1118 0.984 . S
N1112 H1119 0.984 . S
N1113 C1106 1.356 . S
N1113 H1116 0.984 . S
N1113 H1117 0.985 . S
H1114 N1109 0.984 . S
H1115 N1109 0.985 . S
H1116 N1113 0.984 . S
H1117 N1113 0.985 . S
H1118 N1112 0.984 . S
H1119 N1112 0.984 . S
H1120 N1108 0.984 . S
H1121 N1108 0.985 . S
C1122 C1123 1.363 . S
C1122 C1128 1.379 1_455 S
C1122 N1130 1.356 . S
C1123 C1122 1.363 . S
C1123 C1129 1.363 . S
C1124 C1125 1.363 . S
C1124 C1129 1.379 1_655 S
C1124 N1131 1.356 . S
C1125 C1124 1.363 . S
C1125 C1128 1.363 . S
N1126 C1128 1.356 . S
N1126 H1138 0.984 . S
N1126 H1139 0.985 . S
N1127 C1129 1.356 . S
N1127 H1132 0.984 . S
N1127 H1133 0.985 . S
C1128 C1122 1.379 1_655 S
C1128 C1125 1.363 . S
C1128 N1126 1.356 . S
C1129 C1123 1.363 . S
C1129 C1124 1.379 1_455 S
C1129 N1127 1.356 . S
N1130 C1122 1.356 . S
N1130 H1136 0.984 . S
N1130 H1137 0.984 . S
N1131 C1124 1.356 . S
N1131 H1134 0.984 . S
N1131 H1135 0.985 . S
H1132 N1127 0.984 . S
H1133 N1127 0.985 . S
H1134 N1131 0.984 . S
H1135 N1131 0.985 . S
H1136 N1130 0.984 . S
H1137 N1130 0.984 . S
H1138 N1126 0.984 . S
H1139 N1126 0.985 . S
C1140 C1141 1.363 . S
C1140 C1146 1.379 1_565 S
C1140 N1148 1.356 . S
C1141 C1140 1.363 . S
C1141 C1147 1.363 . S
C1142 C1143 1.363 . S
C1142 C1147 1.379 1_545 S
C1142 N1149 1.356 . S
C1143 C1142 1.363 . S
C1143 C1146 1.363 . S
N1144 C1146 1.356 . S
N1144 H1156 0.984 . S
N1144 H1157 0.985 . S
N1145 C1147 1.356 . S
N1145 H1150 0.984 . S
N1145 H1151 0.985 . S
C1146 C1140 1.379 1_545 S
C1146 C1143 1.363 . S
C1146 N1144 1.356 . S
C1147 C1141 1.363 . S
C1147 C1142 1.379 1_565 S
C1147 N1145 1.356 . S
N1148 C1140 1.356 . S
N1148 H1154 0.984 . S
N1148 H1155 0.984 . S
N1149 C1142 1.356 . S
N1149 H1152 0.984 . S
N1149 H1153 0.985 . S
H1150 N1145 0.984 . S
H1151 N1145 0.985 . S
H1152 N1149 0.984 . S
H1153 N1149 0.985 . S
H1154 N1148 0.984 . S
H1155 N1148 0.984 . S
H1156 N1144 0.984 . S
H1157 N1144 0.985 . S
C1158 C1159 1.363 . S
C1158 C1164 1.379 1_655 S
C1158 N1166 1.356 . S
C1159 C1158 1.363 . S
C1159 C1165 1.363 . S
C1160 C1161 1.363 . S
C1160 C1165 1.379 1_455 S
C1160 N1167 1.356 . S
C1161 C1160 1.363 . S
C1161 C1164 1.363 . S
N1162 C1164 1.356 . S
N1162 H1174 0.984 . S
N1162 H1175 0.985 . S
N1163 C1165 1.356 . S
N1163 H1168 0.984 . S
N1163 H1169 0.985 . S
C1164 C1158 1.379 1_455 S
C1164 C1161 1.363 . S
C1164 N1162 1.356 . S
C1165 C1159 1.363 . S
C1165 C1160 1.379 1_655 S
C1165 N1163 1.356 . S
N1166 C1158 1.356 . S
N1166 H1172 0.984 . S
N1166 H1173 0.984 . S
N1167 C1160 1.356 . S
N1167 H1170 0.984 . S
N1167 H1171 0.985 . S
H1168 N1163 0.984 . S
H1169 N1163 0.985 . S
H1170 N1167 0.984 . S
H1171 N1167 0.985 . S
H1172 N1166 0.984 . S
H1173 N1166 0.984 . S
H1174 N1162 0.984 . S
H1175 N1162 0.985 . S
C1176 C1177 1.363 . S
C1176 C1182 1.379 1_565 S
C1176 N1184 1.356 . S
C1177 C1176 1.363 . S
C1177 C1183 1.363 . S
C1178 C1179 1.363 . S
C1178 C1183 1.379 1_545 S
C1178 N1185 1.356 . S
C1179 C1178 1.363 . S
C1179 C1182 1.363 . S
N1180 C1182 1.356 . S
N1180 H1192 0.984 . S
N1180 H1193 0.985 . S
N1181 C1183 1.356 . S
N1181 H1186 0.984 . S
N1181 H1187 0.985 . S
C1182 C1176 1.379 1_545 S
C1182 C1179 1.363 . S
C1182 N1180 1.356 . S
C1183 C1177 1.363 . S
C1183 C1178 1.379 1_565 S
C1183 N1181 1.356 . S
N1184 C1176 1.356 . S
N1184 H1190 0.984 . S
N1184 H1191 0.984 . S
N1185 C1178 1.356 . S
N1185 H1188 0.984 . S
N1185 H1189 0.985 . S
H1186 N1181 0.984 . S
H1187 N1181 0.985 . S
H1188 N1185 0.984 . S
H1189 N1185 0.985 . S
H1190 N1184 0.984 . S
H1191 N1184 0.984 . S
H1192 N1180 0.984 . S
H1193 N1180 0.985 . S
C1194 C1195 1.363 . S
C1194 C1200 1.379 1_655 S
C1194 N1202 1.356 . S
C1195 C1194 1.363 . S
C1195 C1201 1.363 . S
C1196 C1197 1.363 . S
C1196 C1201 1.379 1_455 S
C1196 N1203 1.356 . S
C1197 C1196 1.363 . S
C1197 C1200 1.363 . S
N1198 C1200 1.356 . S
N1198 H1210 0.984 . S
N1198 H1211 0.985 . S
N1199 C1201 1.356 . S
N1199 H1204 0.984 . S
N1199 H1205 0.985 . S
C1200 C1194 1.379 1_455 S
C1200 C1197 1.363 . S
C1200 N1198 1.356 . S
C1201 C1195 1.363 . S
C1201 C1196 1.379 1_655 S
C1201 N1199 1.356 . S
N1202 C1194 1.356 . S
N1202 H1208 0.984 . S
N1202 H1209 0.984 . S
N1203 C1196 1.356 . S
N1203 H1206 0.984 . S
N1203 H1207 0.985 . S
H1204 N1199 0.984 . S
H1205 N1199 0.985 . S
H1206 N1203 0.984 . S
H1207 N1203 0.985 . S
H1208 N1202 0.984 . S
H1209 N1202 0.984 . S
H1210 N1198 0.984 . S
H1211 N1198 0.985 . S
C1212 C1213 1.363 . S
C1212 C1218 1.379 1_545 S
C1212 N1220 1.356 . S
C1213 C1212 1.363 . S
C1213 C1219 1.363 . S
C1214 C1215 1.363 . S
C1214 C1219 1.379 1_565 S
C1214 N1221 1.356 . S
C1215 C1214 1.363 . S
C1215 C1218 1.363 . S
N1216 C1218 1.356 . S
N1216 H1228 0.984 . S
N1216 H1229 0.985 . S
N1217 C1219 1.356 . S
N1217 H1222 0.984 . S
N1217 H1223 0.985 . S
C1218 C1212 1.379 1_565 S
C1218 C1215 1.363 . S
C1218 N1216 1.356 . S
C1219 C1213 1.363 . S
C1219 C1214 1.379 1_545 S
C1219 N1217 1.356 . S
N1220 C1212 1.356 . S
N1220 H1226 0.984 . S
N1220 H1227 0.984 . S
N1221 C1214 1.356 . S
N1221 H1224 0.984 . S
N1221 H1225 0.985 . S
H1222 N1217 0.984 . S
H1223 N1217 0.985 . S
H1224 N1221 0.984 . S
H1225 N1221 0.985 . S
H1226 N1220 0.984 . S
H1227 N1220 0.984 . S
H1228 N1216 0.984 . S
H1229 N1216 0.985 . S
C1230 C1231 1.363 . S
C1230 C1236 1.379 1_455 S
C1230 N1238 1.356 . S
C1231 C1230 1.363 . S
C1231 C1237 1.363 . S
C1232 C1233 1.363 . S
C1232 C1237 1.379 1_655 S
C1232 N1239 1.356 . S
C1233 C1232 1.363 . S
C1233 C1236 1.363 . S
N1234 C1236 1.356 . S
N1234 H1246 0.984 . S
N1234 H1247 0.985 . S
N1235 C1237 1.356 . S
N1235 H1240 0.984 . S
N1235 H1241 0.985 . S
C1236 C1230 1.379 1_655 S
C1236 C1233 1.363 . S
C1236 N1234 1.356 . S
C1237 C1231 1.363 . S
C1237 C1232 1.379 1_455 S
C1237 N1235 1.356 . S
N1238 C1230 1.356 . S
N1238 H1244 0.984 . S
N1238 H1245 0.984 . S
N1239 C1232 1.356 . S
N1239 H1242 0.984 . S
N1239 H1243 0.985 . S
H1240 N1235 0.984 . S
H1241 N1235 0.985 . S
H1242 N1239 0.984 . S
H1243 N1239 0.985 . S
H1244 N1238 0.984 . S
H1245 N1238 0.984 . S
H1246 N1234 0.984 . S
H1247 N1234 0.985 . S
C1248 C1249 1.363 . S
C1248 C1254 1.379 1_554 S
C1248 N1256 1.356 . S
C1249 C1248 1.363 . S
C1249 C1255 1.363 . S
C1250 C1251 1.363 . S
C1250 C1255 1.379 1_556 S
C1250 N1257 1.356 . S
C1251 C1250 1.363 . S
C1251 C1254 1.363 . S
N1252 C1254 1.356 . S
N1252 H1264 0.984 . S
N1252 H1265 0.985 . S
N1253 C1255 1.356 . S
N1253 H1258 0.984 . S
N1253 H1259 0.985 . S
C1254 C1248 1.379 1_556 S
C1254 C1251 1.363 . S
C1254 N1252 1.356 . S
C1255 C1249 1.363 . S
C1255 C1250 1.379 1_554 S
C1255 N1253 1.356 . S
N1256 C1248 1.356 . S
N1256 H1262 0.984 . S
N1256 H1263 0.984 . S
N1257 C1250 1.356 . S
N1257 H1260 0.984 . S
N1257 H1261 0.985 . S
H1258 N1253 0.984 . S
H1259 N1253 0.985 . S
H1260 N1257 0.984 . S
H1261 N1257 0.985 . S
H1262 N1256 0.984 . S
H1263 N1256 0.984 . S
H1264 N1252 0.984 . S
H1265 N1252 0.985 . S
C1266 C1267 1.363 . S
C1266 C1272 1.379 1_556 S
C1266 N1274 1.356 . S
C1267 C1266 1.363 . S
C1267 C1273 1.363 . S
C1268 C1269 1.363 . S
C1268 C1273 1.379 1_554 S
C1268 N1275 1.356 . S
C1269 C1268 1.363 . S
C1269 C1272 1.363 . S
N1270 C1272 1.356 . S
N1270 H1282 0.984 . S
N1270 H1283 0.985 . S
N1271 C1273 1.356 . S
N1271 H1276 0.984 . S
N1271 H1277 0.985 . S
C1272 C1266 1.379 1_554 S
C1272 C1269 1.363 . S
C1272 N1270 1.356 . S
C1273 C1267 1.363 . S
C1273 C1268 1.379 1_556 S
C1273 N1271 1.356 . S
N1274 C1266 1.356 . S
N1274 H1280 0.984 . S
N1274 H1281 0.984 . S
N1275 C1268 1.356 . S
N1275 H1278 0.984 . S
N1275 H1279 0.985 . S
H1276 N1271 0.984 . S
H1277 N1271 0.985 . S
H1278 N1275 0.984 . S
H1279 N1275 0.985 . S
H1280 N1274 0.984 . S
H1281 N1274 0.984 . S
H1282 N1270 0.984 . S
H1283 N1270 0.985 . S
C1284 C1285 1.363 . S
C1284 C1290 1.379 1_556 S
C1284 N1292 1.356 . S
C1285 C1284 1.363 . S
C1285 C1291 1.363 . S
C1286 C1287 1.363 . S
C1286 C1291 1.379 1_554 S
C1286 N1293 1.356 . S
C1287 C1286 1.363 . S
C1287 C1290 1.363 . S
N1288 C1290 1.356 . S
N1288 H1300 0.986 . S
N1288 H1301 0.985 . S
N1289 C1291 1.356 . S
N1289 H1294 0.984 . S
N1289 H1295 0.994 . S
C1290 C1284 1.379 1_554 S
C1290 C1287 1.363 . S
C1290 N1288 1.356 . S
C1291 C1285 1.363 . S
C1291 C1286 1.379 1_556 S
C1291 N1289 1.356 . S
N1292 C1284 1.356 . S
N1292 H1298 0.984 . S
N1292 H1299 0.984 . S
N1293 C1286 1.356 . S
N1293 H1296 0.984 . S
N1293 H1297 0.985 . S
H1294 N1289 0.984 . S
H1295 N1289 0.994 . S
H1296 N1293 0.984 . S
H1297 N1293 0.985 . S
H1298 N1292 0.984 . S
H1299 N1292 0.984 . S
H1300 N1288 0.986 . S
H1301 N1288 0.985 . S
C1302 C1303 1.383 . S
C1302 C1308 1.339 1_556 S
C1302 N1310 1.388 . S
C1303 C1302 1.383 . S
C1303 C1309 1.363 . S
C1304 C1305 1.363 . S
C1304 C1309 1.379 1_554 S
C1304 N1311 1.356 . S
C1305 C1304 1.363 . S
C1305 C1308 1.363 . S
N1306 C1308 1.356 . S
N1306 H1318 0.984 . S
N1306 H1319 0.985 . S
N1307 C1309 1.356 . S
N1307 H1312 0.984 . S
N1307 H1313 0.985 . S
C1308 C1302 1.339 1_554 S
C1308 C1305 1.363 . S
C1308 N1306 1.356 . S
C1309 C1303 1.363 . S
C1309 C1304 1.379 1_556 S
C1309 N1307 1.356 . S
N1310 C1302 1.388 . S
N1310 H1316 0.984 . S
N1310 H1317 0.984 . S
N1311 C1304 1.356 . S
N1311 H1314 0.984 . S
N1311 H1315 0.985 . S
H1312 N1307 0.984 . S
H1313 N1307 0.985 . S
H1314 N1311 0.984 . S
H1315 N1311 0.985 . S
H1316 N1310 0.984 . S
H1317 N1310 0.984 . S
H1318 N1306 0.984 . S
H1319 N1306 0.985 . S
C1320 C1321 1.363 . S
C1320 C1326 1.379 1_554 S
C1320 N1328 1.356 . S
C1321 C1320 1.363 . S
C1321 C1327 1.363 . S
C1322 C1323 1.363 . S
C1322 C1327 1.379 1_556 S
C1322 N1329 1.356 . S
C1323 C1322 1.363 . S
C1323 C1326 1.363 . S
N1324 C1326 1.356 . S
N1324 H1336 0.984 . S
N1324 H1337 0.985 . S
N1325 C1327 1.356 . S
N1325 H1330 0.984 . S
N1325 H1331 0.985 . S
C1326 C1320 1.379 1_556 S
C1326 C1323 1.363 . S
C1326 N1324 1.356 . S
C1327 C1321 1.363 . S
C1327 C1322 1.379 1_554 S
C1327 N1325 1.356 . S
N1328 C1320 1.356 . S
N1328 H1334 0.984 . S
N1328 H1335 0.984 . S
N1329 C1322 1.356 . S
N1329 H1332 0.984 . S
N1329 H1333 0.985 . S
H1330 N1325 0.984 . S
H1331 N1325 0.985 . S
H1332 N1329 0.984 . S
H1333 N1329 0.985 . S
H1334 N1328 0.984 . S
H1335 N1328 0.984 . S
H1336 N1324 0.984 . S
H1337 N1324 0.985 . S
C1338 C1339 1.363 . S
C1338 C1344 1.379 1_556 S
C1338 N1346 1.356 . S
C1339 C1338 1.363 . S
C1339 C1345 1.363 1_556 S
C1340 C1341 1.363 . S
C1340 C1345 1.379 . S
C1340 N1347 1.356 . S
C1341 C1340 1.363 . S
C1341 C1344 1.363 . S
N1342 C1344 1.356 . S
N1342 H1354 0.984 . S
N1342 H1355 0.985 . S
N1343 C1345 1.356 1_556 S
N1343 H1348 0.984 . S
N1343 H1349 0.985 . S
C1344 C1338 1.379 1_554 S
C1344 C1341 1.363 . S
C1344 N1342 1.356 . S
C1345 C1339 1.363 1_554 S
C1345 C1340 1.379 . S
C1345 N1343 1.356 1_554 S
N1346 C1338 1.356 . S
N1346 H1352 0.984 . S
N1346 H1353 0.984 . S
N1347 C1340 1.356 . S
N1347 H1350 0.984 . S
N1347 H1351 0.985 . S
H1348 N1343 0.984 . S
H1349 N1343 0.985 . S
H1350 N1347 0.984 . S
H1351 N1347 0.985 . S
H1352 N1346 0.984 . S
H1353 N1346 0.984 . S
H1354 N1342 0.984 . S
H1355 N1342 0.985 . S
C1356 C1357 1.363 . S
C1356 C1362 1.379 1_554 S
C1356 N1364 1.356 . S
C1357 C1356 1.363 . S
C1357 C1363 1.363 . S
C1358 C1359 1.363 . S
C1358 C1363 1.379 1_556 S
C1358 N1365 1.356 . S
C1359 C1358 1.363 . S
C1359 C1362 1.363 . S
N1360 C1362 1.356 . S
N1360 H1372 0.984 . S
N1360 H1373 0.985 . S
N1361 C1363 1.356 . S
N1361 H1366 0.984 . S
N1361 H1367 0.985 . S
C1362 C1356 1.379 1_556 S
C1362 C1359 1.363 . S
C1362 N1360 1.356 . S
C1363 C1357 1.363 . S
C1363 C1358 1.379 1_554 S
C1363 N1361 1.356 . S
N1364 C1356 1.356 . S
N1364 H1370 0.984 . S
N1364 H1371 0.984 . S
N1365 C1358 1.356 . S
N1365 H1368 0.984 . S
N1365 H1369 0.985 . S
H1366 N1361 0.984 . S
H1367 N1361 0.985 . S
H1368 N1365 0.984 . S
H1369 N1365 0.985 . S
H1370 N1364 0.984 . S
H1371 N1364 0.984 . S
H1372 N1360 0.984 . S
H1373 N1360 0.985 . S
C1374 C1375 1.363 . S
C1374 C1380 1.379 1_556 S
C1374 N1382 1.356 . S
C1375 C1374 1.363 . S
C1375 C1381 1.363 . S
C1376 C1377 1.363 . S
C1376 C1381 1.379 1_554 S
C1376 N1383 1.356 . S
C1377 C1376 1.363 . S
C1377 C1380 1.363 . S
N1378 C1380 1.356 . S
N1378 H1390 0.984 . S
N1378 H1391 0.985 . S
N1379 C1381 1.356 . S
N1379 H1384 0.984 . S
N1379 H1385 0.985 . S
C1380 C1374 1.379 1_554 S
C1380 C1377 1.363 . S
C1380 N1378 1.356 . S
C1381 C1375 1.363 . S
C1381 C1376 1.379 1_556 S
C1381 N1379 1.356 . S
N1382 C1374 1.356 . S
N1382 H1388 0.984 . S
N1382 H1389 0.984 . S
N1383 C1376 1.356 . S
N1383 H1386 0.984 . S
N1383 H1387 0.985 . S
H1384 N1379 0.984 . S
H1385 N1379 0.985 . S
H1386 N1383 0.984 . S
H1387 N1383 0.985 . S
H1388 N1382 0.984 . S
H1389 N1382 0.984 . S
H1390 N1378 0.984 . S
H1391 N1378 0.985 . S
C1392 C1393 1.363 . S
C1392 C1398 1.379 1_455 S
C1392 N1400 1.356 . S
C1393 C1392 1.363 . S
C1393 C1399 1.363 . S
C1394 C1395 1.363 . S
C1394 C1399 1.379 1_655 S
C1394 N1401 1.356 . S
C1395 C1394 1.363 . S
C1395 C1398 1.363 . S
N1396 C1398 1.356 . S
N1396 H1408 0.984 . S
N1396 H1409 0.985 . S
N1397 C1399 1.356 . S
N1397 H1402 0.984 . S
N1397 H1403 0.985 . S
C1398 C1392 1.379 1_655 S
C1398 C1395 1.363 . S
C1398 N1396 1.356 . S
C1399 C1393 1.363 . S
C1399 C1394 1.379 1_455 S
C1399 N1397 1.356 . S
N1400 C1392 1.356 . S
N1400 H1406 0.984 . S
N1400 H1407 0.984 . S
N1401 C1394 1.356 . S
N1401 H1404 0.984 . S
N1401 H1405 0.985 . S
H1402 N1397 0.984 . S
H1403 N1397 0.985 . S
H1404 N1401 0.984 . S
H1405 N1401 0.985 . S
H1406 N1400 0.984 . S
H1407 N1400 0.984 . S
H1408 N1396 0.984 . S
H1409 N1396 0.985 . S
C1410 C1411 1.363 1_655 S
C1410 C1416 1.379 . S
C1410 N1418 1.356 1_655 S
C1411 C1410 1.363 1_455 S
C1411 C1417 1.363 . S
C1412 C1413 1.363 . S
C1412 C1417 1.379 1_655 S
C1412 N1419 1.356 . S
C1413 C1412 1.363 . S
C1413 C1416 1.363 . S
N1414 C1416 1.356 . S
N1414 H1426 0.984 . S
N1414 H1427 0.985 . S
N1415 C1417 1.356 . S
N1415 H1420 0.984 . S
N1415 H1421 0.985 . S
C1416 C1410 1.379 . S
C1416 C1413 1.363 . S
C1416 N1414 1.356 . S
C1417 C1411 1.363 . S
C1417 C1412 1.379 1_455 S
C1417 N1415 1.356 . S
N1418 C1410 1.356 1_455 S
N1418 H1424 0.986 . S
N1418 H1425 0.984 . S
N1419 C1412 1.356 . S
N1419 H1422 0.984 . S
N1419 H1423 0.985 . S
H1420 N1415 0.984 . S
H1421 N1415 0.985 . S
H1422 N1419 0.984 . S
H1423 N1419 0.985 . S
H1424 N1418 0.986 . S
H1425 N1418 0.984 . S
H1426 N1414 0.984 . S
H1427 N1414 0.985 . S
C1428 C1429 1.363 . S
C1428 C1434 1.379 1_565 S
C1428 N1436 1.356 . S
C1429 C1428 1.363 . S
C1429 C1435 1.363 1_565 S
C1430 C1431 1.363 . S
C1430 C1435 1.379 . S
C1430 N1437 1.356 . S
C1431 C1430 1.363 . S
C1431 C1434 1.363 . S
N1432 C1434 1.356 . S
N1432 H1444 0.984 . S
N1432 H1445 0.985 . S
N1433 C1435 1.356 1_565 S
N1433 H1438 0.984 . S
N1433 H1439 0.981 1_565 S
C1434 C1428 1.379 1_545 S
C1434 C1431 1.363 . S
C1434 N1432 1.356 . S
C1435 C1429 1.363 1_545 S
C1435 C1430 1.379 . S
C1435 N1433 1.356 1_545 S
N1436 C1428 1.356 . S
N1436 H1442 0.984 . S
N1436 H1443 0.984 . S
N1437 C1430 1.356 . S
N1437 H1440 0.984 . S
N1437 H1441 0.985 . S
H1438 N1433 0.984 . S
H1439 N1433 0.981 1_545 S
H1440 N1437 0.984 . S
H1441 N1437 0.985 . S
H1442 N1436 0.984 . S
H1443 N1436 0.984 . S
H1444 N1432 0.984 . S
H1445 N1432 0.985 . S
C1446 C1447 1.363 1_655 S
C1446 C1452 1.379 . S
C1446 N1454 1.356 1_655 S
C1447 C1446 1.363 1_455 S
C1447 C1453 1.363 . S
C1448 C1449 1.363 . S
C1448 C1453 1.379 1_655 S
C1448 N1455 1.356 . S
C1449 C1448 1.363 . S
C1449 C1452 1.363 . S
N1450 C1452 1.356 . S
N1450 H1462 0.984 . S
N1450 H1463 0.985 . S
N1451 C1453 1.356 . S
N1451 H1456 0.984 . S
N1451 H1457 0.985 . S
C1452 C1446 1.379 . S
C1452 C1449 1.363 . S
C1452 N1450 1.356 . S
C1453 C1447 1.363 . S
C1453 C1448 1.379 1_455 S
C1453 N1451 1.356 . S
N1454 C1446 1.356 1_455 S
N1454 H1460 0.984 1_455 S
N1454 H1461 0.984 . S
N1455 C1448 1.356 . S
N1455 H1458 0.984 . S
N1455 H1459 0.985 . S
H1456 N1451 0.984 . S
H1457 N1451 0.985 . S
H1458 N1455 0.984 . S
H1459 N1455 0.985 . S
H1460 N1454 0.984 1_655 S
H1461 N1454 0.984 . S
H1462 N1450 0.984 . S
H1463 N1450 0.985 . S
C1464 C1465 1.363 . S
C1464 C1470 1.379 . S
C1464 N1472 1.356 . S
C1465 C1464 1.363 . S
C1465 C1471 1.363 . S
C1466 C1467 1.363 . S
C1466 C1471 1.379 1_565 S
C1466 N1473 1.356 . S
C1467 C1466 1.363 . S
C1467 C1470 1.363 1_565 S
N1468 C1470 1.356 1_565 S
N1468 H1480 0.984 1_565 S
N1468 H1481 0.985 . S
N1469 C1471 1.356 . S
N1469 H1474 0.984 . S
N1469 H1475 0.985 . S
C1470 C1464 1.379 . S
C1470 C1467 1.363 1_545 S
C1470 N1468 1.356 1_545 S
C1471 C1465 1.363 . S
C1471 C1466 1.379 1_545 S
C1471 N1469 1.356 . S
N1472 C1464 1.356 . S
N1472 H1478 0.984 . S
N1472 H1479 0.984 . S
N1473 C1466 1.356 . S
N1473 H1476 0.984 . S
N1473 H1477 0.985 . S
H1474 N1469 0.984 . S
H1475 N1469 0.985 . S
H1476 N1473 0.984 . S
H1477 N1473 0.985 . S
H1478 N1472 0.984 . S
H1479 N1472 0.984 . S
H1480 N1468 0.984 1_545 S
H1481 N1468 0.985 . S
C1482 C1483 1.363 . S
C1482 C1488 1.379 1_455 S
C1482 N1490 1.356 . S
C1483 C1482 1.363 . S
C1483 C1489 1.363 . S
C1484 C1485 1.363 . S
C1484 C1489 1.379 1_655 S
C1484 N1491 1.356 . S
C1485 C1484 1.363 . S
C1485 C1488 1.363 . S
N1486 C1488 1.356 . S
N1486 H1498 0.984 . S
N1486 H1499 0.985 . S
N1487 C1489 1.356 . S
N1487 H1492 0.984 . S
N1487 H1493 0.985 . S
C1488 C1482 1.379 1_655 S
C1488 C1485 1.363 . S
C1488 N1486 1.356 . S
C1489 C1483 1.363 . S
C1489 C1484 1.379 1_455 S
C1489 N1487 1.356 . S
N1490 C1482 1.356 . S
N1490 H1496 0.984 . S
N1490 H1497 0.984 . S
N1491 C1484 1.356 . S
N1491 H1494 0.984 . S
N1491 H1495 0.985 . S
H1492 N1487 0.984 . S
H1493 N1487 0.985 . S
H1494 N1491 0.984 . S
H1495 N1491 0.985 . S
H1496 N1490 0.984 . S
H1497 N1490 0.984 . S
H1498 N1486 0.984 . S
H1499 N1486 0.985 . S
C1500 C1501 1.352 1_565 S
C1500 C1506 1.400 . S
C1500 N1508 1.341 1_565 S
C1501 C1500 1.352 1_545 S
C1501 C1507 1.363 . S
C1502 C1503 1.363 . S
C1502 C1507 1.379 1_565 S
C1502 N1509 1.356 . S
C1503 C1502 1.363 . S
C1503 C1506 1.363 . S
N1504 C1506 1.356 . S
N1504 H1516 0.984 . S
N1504 H1517 0.985 . S
N1505 C1507 1.356 . S
N1505 H1510 0.984 . S
N1505 H1511 0.985 . S
C1506 C1500 1.400 . S
C1506 C1503 1.363 . S
C1506 N1504 1.356 . S
C1507 C1501 1.363 . S
C1507 C1502 1.379 1_545 S
C1507 N1505 1.356 . S
N1508 C1500 1.341 1_545 S
N1508 H1514 0.984 1_545 S
N1508 H1515 0.984 . S
N1509 C1502 1.356 . S
N1509 H1512 0.984 . S
N1509 H1513 0.985 . S
H1510 N1505 0.984 . S
H1511 N1505 0.985 . S
H1512 N1509 0.984 . S
H1513 N1509 0.985 . S
H1514 N1508 0.984 1_565 S
H1515 N1508 0.984 . S
H1516 N1504 0.984 . S
H1517 N1504 0.985 . S
C1518 C1519 1.379 . S
C1518 C1524 1.352 1_545 S
C1518 N1526 1.375 . S
C1519 C1518 1.379 . S
C1519 C1525 1.363 . S
C1520 C1521 1.363 . S
C1520 C1525 1.379 1_565 S
C1520 N1527 1.356 . S
C1521 C1520 1.363 . S
C1521 C1524 1.363 . S
N1522 C1524 1.356 . S
N1522 H1534 0.984 . S
N1522 H1535 0.985 . S
N1523 C1525 1.356 . S
N1523 H1528 0.984 . S
N1523 H1529 0.985 . S
C1524 C1518 1.352 1_565 S
C1524 C1521 1.363 . S
C1524 N1522 1.356 . S
C1525 C1519 1.363 . S
C1525 C1520 1.379 1_545 S
C1525 N1523 1.356 . S
N1526 C1518 1.375 . S
N1526 H1532 0.984 1_545 S
N1526 H1533 0.984 . S
N1527 C1520 1.356 . S
N1527 H1530 0.984 . S
N1527 H1531 0.974 1_565 S
H1528 N1523 0.984 . S
H1529 N1523 0.985 . S
H1530 N1527 0.984 . S
H1531 N1527 0.974 1_545 S
H1532 N1526 0.984 1_565 S
H1533 N1526 0.984 . S
H1534 N1522 0.984 . S
H1535 N1522 0.985 . S
C1536 C1537 1.363 . S
C1536 C1542 1.379 . S
C1536 N1544 1.356 . S
C1537 C1536 1.363 . S
C1537 C1543 1.363 . S
C1538 C1539 1.363 . S
C1538 C1543 1.379 . S
C1538 N1545 1.356 . S
C1539 C1538 1.363 . S
C1539 C1542 1.363 . S
N1540 C1542 1.356 . S
N1540 H1552 0.984 . S
N1540 H1553 0.985 . S
N1541 C1543 1.356 . S
N1541 H1546 0.984 . S
N1541 H1547 0.985 . S
C1542 C1536 1.379 . S
C1542 C1539 1.363 . S
C1542 N1540 1.356 . S
C1543 C1537 1.363 . S
C1543 C1538 1.379 . S
C1543 N1541 1.356 . S
N1544 C1536 1.356 . S
N1544 H1550 0.984 . S
N1544 H1551 0.984 . S
N1545 C1538 1.356 . S
N1545 H1548 0.984 . S
N1545 H1549 0.985 . S
H1546 N1541 0.984 . S
H1547 N1541 0.985 . S
H1548 N1545 0.984 . S
H1549 N1545 0.985 . S
H1550 N1544 0.984 . S
H1551 N1544 0.984 . S
H1552 N1540 0.984 . S
H1553 N1540 0.985 . S
C1554 C1555 1.363 . S
C1554 C1560 1.379 . S
C1554 N1562 1.356 . S
C1555 C1554 1.363 . S
C1555 C1561 1.363 . S
C1556 C1557 1.363 . S
C1556 C1561 1.379 . S
C1556 N1563 1.356 . S
C1557 C1556 1.363 . S
C1557 C1560 1.363 . S
N1558 C1560 1.356 . S
N1558 H1570 0.984 . S
N1558 H1571 0.985 . S
N1559 C1561 1.356 . S
N1559 H1564 0.984 . S
N1559 H1565 0.985 . S
C1560 C1554 1.379 . S
C1560 C1557 1.363 . S
C1560 N1558 1.356 . S
C1561 C1555 1.363 . S
C1561 C1556 1.379 . S
C1561 N1559 1.356 . S
N1562 C1554 1.356 . S
N1562 H1568 0.984 . S
N1562 H1569 0.984 . S
N1563 C1556 1.356 . S
N1563 H1566 0.984 . S
N1563 H1567 0.985 . S
H1564 N1559 0.984 . S
H1565 N1559 0.985 . S
H1566 N1563 0.984 . S
H1567 N1563 0.985 . S
H1568 N1562 0.984 . S
H1569 N1562 0.984 . S
H1570 N1558 0.984 . S
H1571 N1558 0.985 . S
C1572 C1573 1.363 . S
C1572 C1578 1.379 . S
C1572 N1580 1.356 . S
C1573 C1572 1.363 . S
C1573 C1579 1.363 . S
C1574 C1575 1.363 . S
C1574 C1579 1.379 . S
C1574 N1581 1.356 . S
C1575 C1574 1.363 . S
C1575 C1578 1.363 . S
N1576 C1578 1.356 . S
N1576 H1588 0.984 . S
N1576 H1589 0.985 . S
N1577 C1579 1.356 . S
N1577 H1582 0.984 . S
N1577 H1583 0.985 . S
C1578 C1572 1.379 . S
C1578 C1575 1.363 . S
C1578 N1576 1.356 . S
C1579 C1573 1.363 . S
C1579 C1574 1.379 . S
C1579 N1577 1.356 . S
N1580 C1572 1.356 . S
N1580 H1586 0.984 . S
N1580 H1587 0.984 . S
N1581 C1574 1.356 . S
N1581 H1584 0.984 . S
N1581 H1585 0.985 . S
H1582 N1577 0.984 . S
H1583 N1577 0.985 . S
H1584 N1581 0.984 . S
H1585 N1581 0.985 . S
H1586 N1580 0.984 . S
H1587 N1580 0.984 . S
H1588 N1576 0.984 . S
H1589 N1576 0.985 . S
C1590 C1591 1.363 . S
C1590 C1596 1.379 . S
C1590 N1598 1.356 . S
C1591 C1590 1.363 . S
C1591 C1597 1.363 . S
C1592 C1593 1.363 . S
C1592 C1597 1.379 . S
C1592 N1599 1.356 . S
C1593 C1592 1.363 . S
C1593 C1596 1.363 . S
N1594 C1596 1.356 . S
N1594 H1606 0.984 . S
N1594 H1607 0.985 . S
N1595 C1597 1.356 . S
N1595 H1600 0.984 . S
N1595 H1601 0.985 . S
C1596 C1590 1.379 . S
C1596 C1593 1.363 . S
C1596 N1594 1.356 . S
C1597 C1591 1.363 . S
C1597 C1592 1.379 . S
C1597 N1595 1.356 . S
N1598 C1590 1.356 . S
N1598 H1604 0.984 . S
N1598 H1605 0.984 . S
N1599 C1592 1.356 . S
N1599 H1602 0.984 . S
N1599 H1603 0.985 . S
H1600 N1595 0.984 . S
H1601 N1595 0.985 . S
H1602 N1599 0.984 . S
H1603 N1599 0.985 . S
H1604 N1598 0.984 . S
H1605 N1598 0.984 . S
H1606 N1594 0.984 . S
H1607 N1594 0.985 . S
C1608 C1609 1.363 . S
C1608 C1614 1.379 . S
C1608 N1616 1.356 . S
C1609 C1608 1.363 . S
C1609 C1615 1.363 . S
C1610 C1611 1.363 . S
C1610 C1615 1.379 . S
C1610 N1617 1.356 . S
C1611 C1610 1.363 . S
C1611 C1614 1.363 . S
N1612 C1614 1.356 . S
N1612 H1624 0.984 . S
N1612 H1625 0.985 . S
N1613 C1615 1.356 . S
N1613 H1618 0.984 . S
N1613 H1619 0.985 . S
C1614 C1608 1.379 . S
C1614 C1611 1.363 . S
C1614 N1612 1.356 . S
C1615 C1609 1.363 . S
C1615 C1610 1.379 . S
C1615 N1613 1.356 . S
N1616 C1608 1.356 . S
N1616 H1622 0.984 . S
N1616 H1623 0.984 . S
N1617 C1610 1.356 . S
N1617 H1620 0.984 . S
N1617 H1621 0.985 . S
H1618 N1613 0.984 . S
H1619 N1613 0.985 . S
H1620 N1617 0.984 . S
H1621 N1617 0.985 . S
H1622 N1616 0.984 . S
H1623 N1616 0.984 . S
H1624 N1612 0.984 . S
H1625 N1612 0.985 . S
C1626 C1627 1.363 . S
C1626 C1632 1.379 . S
C1626 N1634 1.356 . S
C1627 C1626 1.363 . S
C1627 C1633 1.363 . S
C1628 C1629 1.363 . S
C1628 C1633 1.379 . S
C1628 N1635 1.356 . S
C1629 C1628 1.363 . S
C1629 C1632 1.363 . S
N1630 C1632 1.356 . S
N1630 H1642 0.984 . S
N1630 H1643 0.985 . S
N1631 C1633 1.356 . S
N1631 H1636 0.984 . S
N1631 H1637 0.985 . S
C1632 C1626 1.379 . S
C1632 C1629 1.363 . S
C1632 N1630 1.356 . S
C1633 C1627 1.363 . S
C1633 C1628 1.379 . S
C1633 N1631 1.356 . S
N1634 C1626 1.356 . S
N1634 H1640 0.984 . S
N1634 H1641 0.984 . S
N1635 C1628 1.356 . S
N1635 H1638 0.984 . S
N1635 H1639 0.985 . S
H1636 N1631 0.984 . S
H1637 N1631 0.985 . S
H1638 N1635 0.984 . S
H1639 N1635 0.985 . S
H1640 N1634 0.984 . S
H1641 N1634 0.984 . S
H1642 N1630 0.984 . S
H1643 N1630 0.985 . S
C1644 C1645 1.363 . S
C1644 C1650 1.379 . S
C1644 N1652 1.356 . S
C1645 C1644 1.363 . S
C1645 C1651 1.363 . S
C1646 C1647 1.363 . S
C1646 C1651 1.379 . S
C1646 N1653 1.356 . S
C1647 C1646 1.363 . S
C1647 C1650 1.363 . S
N1648 C1650 1.356 . S
N1648 H1660 0.984 . S
N1648 H1661 0.985 . S
N1649 C1651 1.356 . S
N1649 H1654 0.984 . S
N1649 H1655 0.985 . S
C1650 C1644 1.379 . S
C1650 C1647 1.363 . S
C1650 N1648 1.356 . S
C1651 C1645 1.363 . S
C1651 C1646 1.379 . S
C1651 N1649 1.356 . S
N1652 C1644 1.356 . S
N1652 H1658 0.984 . S
N1652 H1659 0.984 . S
N1653 C1646 1.356 . S
N1653 H1656 0.984 . S
N1653 H1657 0.985 . S
H1654 N1649 0.984 . S
H1655 N1649 0.985 . S
H1656 N1653 0.984 . S
H1657 N1653 0.985 . S
H1658 N1652 0.984 . S
H1659 N1652 0.984 . S
H1660 N1648 0.984 . S
H1661 N1648 0.985 . S
C1662 C1663 1.363 . S
C1662 C1668 1.379 . S
C1662 N1670 1.356 . S
C1663 C1662 1.363 . S
C1663 C1669 1.363 . S
C1664 C1665 1.363 . S
C1664 C1669 1.379 . S
C1664 N1671 1.356 . S
C1665 C1664 1.363 . S
C1665 C1668 1.363 . S
N1666 C1668 1.356 . S
N1666 H1678 0.984 . S
N1666 H1679 0.985 . S
N1667 C1669 1.356 . S
N1667 H1672 0.984 . S
N1667 H1673 0.985 . S
C1668 C1662 1.379 . S
C1668 C1665 1.363 . S
C1668 N1666 1.356 . S
C1669 C1663 1.363 . S
C1669 C1664 1.379 . S
C1669 N1667 1.356 . S
N1670 C1662 1.356 . S
N1670 H1676 0.984 . S
N1670 H1677 0.984 . S
N1671 C1664 1.356 . S
N1671 H1674 0.984 . S
N1671 H1675 0.985 . S
H1672 N1667 0.984 . S
H1673 N1667 0.985 . S
H1674 N1671 0.984 . S
H1675 N1671 0.985 . S
H1676 N1670 0.984 . S
H1677 N1670 0.984 . S
H1678 N1666 0.984 . S
H1679 N1666 0.985 . S
C1680 C1681 1.363 . S
C1680 C1686 1.379 . S
C1680 N1688 1.356 . S
C1681 C1680 1.363 . S
C1681 C1687 1.363 . S
C1682 C1683 1.363 . S
C1682 C1687 1.379 . S
C1682 N1689 1.356 . S
C1683 C1682 1.363 . S
C1683 C1686 1.363 . S
N1684 C1686 1.356 . S
N1684 H1696 0.984 . S
N1684 H1697 0.985 . S
N1685 C1687 1.356 . S
N1685 H1690 0.984 . S
N1685 H1691 0.985 . S
C1686 C1680 1.379 . S
C1686 C1683 1.363 . S
C1686 N1684 1.356 . S
C1687 C1681 1.363 . S
C1687 C1682 1.379 . S
C1687 N1685 1.356 . S
N1688 C1680 1.356 . S
N1688 H1694 0.984 . S
N1688 H1695 0.984 . S
N1689 C1682 1.356 . S
N1689 H1692 0.984 . S
N1689 H1693 0.985 . S
H1690 N1685 0.984 . S
H1691 N1685 0.985 . S
H1692 N1689 0.984 . S
H1693 N1689 0.985 . S
H1694 N1688 0.984 . S
H1695 N1688 0.984 . S
H1696 N1684 0.984 . S
H1697 N1684 0.985 . S
C1698 C1699 1.363 . S
C1698 C1704 1.379 . S
C1698 N1706 1.356 . S
C1699 C1698 1.363 . S
C1699 C1705 1.363 . S
C1700 C1701 1.363 . S
C1700 C1705 1.379 . S
C1700 N1707 1.356 . S
C1701 C1700 1.363 . S
C1701 C1704 1.363 . S
N1702 C1704 1.356 . S
N1702 H1714 0.984 . S
N1702 H1715 0.985 . S
N1703 C1705 1.356 . S
N1703 H1708 0.984 . S
N1703 H1709 0.985 . S
C1704 C1698 1.379 . S
C1704 C1701 1.363 . S
C1704 N1702 1.356 . S
C1705 C1699 1.363 . S
C1705 C1700 1.379 . S
C1705 N1703 1.356 . S
N1706 C1698 1.356 . S
N1706 H1712 0.984 . S
N1706 H1713 0.984 . S
N1707 C1700 1.356 . S
N1707 H1710 0.984 . S
N1707 H1711 0.985 . S
H1708 N1703 0.984 . S
H1709 N1703 0.985 . S
H1710 N1707 0.984 . S
H1711 N1707 0.985 . S
H1712 N1706 0.984 . S
H1713 N1706 0.984 . S
H1714 N1702 0.984 . S
H1715 N1702 0.985 . S
C1716 C1717 1.363 . S
C1716 C1722 1.379 . S
C1716 N1724 1.356 . S
C1717 C1716 1.363 . S
C1717 C1723 1.363 . S
C1718 C1719 1.363 . S
C1718 C1723 1.379 . S
C1718 N1725 1.356 . S
C1719 C1718 1.363 . S
C1719 C1722 1.363 . S
N1720 C1722 1.356 . S
N1720 H1732 0.984 . S
N1720 H1733 0.985 . S
N1721 C1723 1.356 . S
N1721 H1726 0.984 . S
N1721 H1727 0.985 . S
C1722 C1716 1.379 . S
C1722 C1719 1.363 . S
C1722 N1720 1.356 . S
C1723 C1717 1.363 . S
C1723 C1718 1.379 . S
C1723 N1721 1.356 . S
N1724 C1716 1.356 . S
N1724 H1730 0.984 . S
N1724 H1731 0.984 . S
N1725 C1718 1.356 . S
N1725 H1728 0.984 . S
N1725 H1729 0.985 . S
H1726 N1721 0.984 . S
H1727 N1721 0.985 . S
H1728 N1725 0.984 . S
H1729 N1725 0.985 . S
H1730 N1724 0.984 . S
H1731 N1724 0.984 . S
H1732 N1720 0.984 . S
H1733 N1720 0.985 . S
C1734 C1735 1.363 . S
C1734 C1740 1.379 . S
C1734 N1742 1.356 . S
C1735 C1734 1.363 . S
C1735 C1741 1.363 . S
C1736 C1737 1.363 . S
C1736 C1741 1.379 . S
C1736 N1743 1.356 . S
C1737 C1736 1.363 . S
C1737 C1740 1.363 . S
N1738 C1740 1.356 . S
N1738 H1750 0.984 . S
N1738 H1751 0.985 . S
N1739 C1741 1.356 . S
N1739 H1744 0.984 . S
N1739 H1745 0.985 . S
C1740 C1734 1.379 . S
C1740 C1737 1.363 . S
C1740 N1738 1.356 . S
C1741 C1735 1.363 . S
C1741 C1736 1.379 . S
C1741 N1739 1.356 . S
N1742 C1734 1.356 . S
N1742 H1748 0.984 . S
N1742 H1749 0.984 . S
N1743 C1736 1.356 . S
N1743 H1746 0.984 . S
N1743 H1747 0.985 . S
H1744 N1739 0.984 . S
H1745 N1739 0.985 . S
H1746 N1743 0.984 . S
H1747 N1743 0.985 . S
H1748 N1742 0.984 . S
H1749 N1742 0.984 . S
H1750 N1738 0.984 . S
H1751 N1738 0.985 . S
C1752 C1753 1.363 . S
C1752 C1758 1.379 . S
C1752 N1760 1.356 . S
C1753 C1752 1.363 . S
C1753 C1759 1.363 . S
C1754 C1755 1.363 . S
C1754 C1759 1.379 . S
C1754 N1761 1.356 . S
C1755 C1754 1.363 . S
C1755 C1758 1.363 . S
N1756 C1758 1.356 . S
N1756 H1768 0.984 . S
N1756 H1769 0.985 . S
N1757 C1759 1.356 . S
N1757 H1762 0.984 . S
N1757 H1763 0.985 . S
C1758 C1752 1.379 . S
C1758 C1755 1.363 . S
C1758 N1756 1.356 . S
C1759 C1753 1.363 . S
C1759 C1754 1.379 . S
C1759 N1757 1.356 . S
N1760 C1752 1.356 . S
N1760 H1766 0.984 . S
N1760 H1767 0.984 . S
N1761 C1754 1.356 . S
N1761 H1764 0.984 . S
N1761 H1765 0.985 . S
H1762 N1757 0.984 . S
H1763 N1757 0.985 . S
H1764 N1761 0.984 . S
H1765 N1761 0.985 . S
H1766 N1760 0.984 . S
H1767 N1760 0.984 . S
H1768 N1756 0.984 . S
H1769 N1756 0.985 . S
C1770 C1771 1.363 . S
C1770 C1776 1.379 . S
C1770 N1778 1.356 . S
C1771 C1770 1.363 . S
C1771 C1777 1.363 . S
C1772 C1773 1.363 . S
C1772 C1777 1.379 . S
C1772 N1779 1.356 . S
C1773 C1772 1.363 . S
C1773 C1776 1.363 . S
N1774 C1776 1.356 . S
N1774 H1786 0.984 . S
N1774 H1787 0.985 . S
N1775 C1777 1.356 . S
N1775 H1780 0.984 . S
N1775 H1781 0.985 . S
C1776 C1770 1.379 . S
C1776 C1773 1.363 . S
C1776 N1774 1.356 . S
C1777 C1771 1.363 . S
C1777 C1772 1.379 . S
C1777 N1775 1.356 . S
N1778 C1770 1.356 . S
N1778 H1784 0.984 . S
N1778 H1785 0.984 . S
N1779 C1772 1.356 . S
N1779 H1782 0.984 . S
N1779 H1783 0.985 . S
H1780 N1775 0.984 . S
H1781 N1775 0.985 . S
H1782 N1779 0.984 . S
H1783 N1779 0.985 . S
H1784 N1778 0.984 . S
H1785 N1778 0.984 . S
H1786 N1774 0.984 . S
H1787 N1774 0.985 . S
C1788 C1789 1.363 . S
C1788 C1794 1.379 . S
C1788 N1796 1.356 . S
C1789 C1788 1.363 . S
C1789 C1795 1.363 . S
C1790 C1791 1.363 . S
C1790 C1795 1.379 . S
C1790 N1797 1.356 . S
C1791 C1790 1.363 . S
C1791 C1794 1.363 . S
N1792 C1794 1.356 . S
N1792 H1804 0.984 . S
N1792 H1805 0.985 . S
N1793 C1795 1.356 . S
N1793 H1798 0.984 . S
N1793 H1799 0.985 . S
C1794 C1788 1.379 . S
C1794 C1791 1.363 . S
C1794 N1792 1.356 . S
C1795 C1789 1.363 . S
C1795 C1790 1.379 . S
C1795 N1793 1.356 . S
N1796 C1788 1.356 . S
N1796 H1802 0.984 . S
N1796 H1803 0.984 . S
N1797 C1790 1.356 . S
N1797 H1800 0.984 . S
N1797 H1801 0.985 . S
H1798 N1793 0.984 . S
H1799 N1793 0.985 . S
H1800 N1797 0.984 . S
H1801 N1797 0.985 . S
H1802 N1796 0.984 . S
H1803 N1796 0.984 . S
H1804 N1792 0.984 . S
H1805 N1792 0.985 . S
C1806 C1807 1.363 . S
C1806 C1812 1.379 . S
C1806 N1814 1.356 . S
C1807 C1806 1.363 . S
C1807 C1813 1.363 . S
C1808 C1809 1.363 . S
C1808 C1813 1.379 . S
C1808 N1815 1.356 . S
C1809 C1808 1.363 . S
C1809 C1812 1.363 . S
N1810 C1812 1.356 . S
N1810 H1822 0.984 . S
N1810 H1823 0.985 . S
N1811 C1813 1.356 . S
N1811 H1816 0.984 . S
N1811 H1817 0.985 . S
C1812 C1806 1.379 . S
C1812 C1809 1.363 . S
C1812 N1810 1.356 . S
C1813 C1807 1.363 . S
C1813 C1808 1.379 . S
C1813 N1811 1.356 . S
N1814 C1806 1.356 . S
N1814 H1820 0.984 . S
N1814 H1821 0.984 . S
N1815 C1808 1.356 . S
N1815 H1818 0.984 . S
N1815 H1819 0.985 . S
H1816 N1811 0.984 . S
H1817 N1811 0.985 . S
H1818 N1815 0.984 . S
H1819 N1815 0.985 . S
H1820 N1814 0.984 . S
H1821 N1814 0.984 . S
H1822 N1810 0.984 . S
H1823 N1810 0.985 . S
C1824 C1825 1.363 . S
C1824 C1830 1.379 . S
C1824 N1832 1.356 . S
C1825 C1824 1.363 . S
C1825 C1831 1.363 . S
C1826 C1827 1.363 . S
C1826 C1831 1.379 . S
C1826 N1833 1.356 . S
C1827 C1826 1.363 . S
C1827 C1830 1.363 . S
N1828 C1830 1.356 . S
N1828 H1840 0.984 . S
N1828 H1841 0.985 . S
N1829 C1831 1.356 . S
N1829 H1834 0.984 . S
N1829 H1835 0.985 . S
C1830 C1824 1.379 . S
C1830 C1827 1.363 . S
C1830 N1828 1.356 . S
C1831 C1825 1.363 . S
C1831 C1826 1.379 . S
C1831 N1829 1.356 . S
N1832 C1824 1.356 . S
N1832 H1838 0.984 . S
N1832 H1839 0.984 . S
N1833 C1826 1.356 . S
N1833 H1836 0.984 . S
N1833 H1837 0.985 . S
H1834 N1829 0.984 . S
H1835 N1829 0.985 . S
H1836 N1833 0.984 . S
H1837 N1833 0.985 . S
H1838 N1832 0.984 . S
H1839 N1832 0.984 . S
H1840 N1828 0.984 . S
H1841 N1828 0.985 . S
C1842 C1843 1.363 . S
C1842 C1848 1.379 . S
C1842 N1850 1.356 . S
C1843 C1842 1.363 . S
C1843 C1849 1.363 . S
C1844 C1845 1.363 . S
C1844 C1849 1.379 . S
C1844 N1851 1.356 . S
C1845 C1844 1.363 . S
C1845 C1848 1.363 . S
N1846 C1848 1.356 . S
N1846 H1858 0.984 . S
N1846 H1859 0.985 . S
N1847 C1849 1.356 . S
N1847 H1852 0.984 . S
N1847 H1853 0.985 . S
C1848 C1842 1.379 . S
C1848 C1845 1.363 . S
C1848 N1846 1.356 . S
C1849 C1843 1.363 . S
C1849 C1844 1.379 . S
C1849 N1847 1.356 . S
N1850 C1842 1.356 . S
N1850 H1856 0.984 . S
N1850 H1857 0.984 . S
N1851 C1844 1.356 . S
N1851 H1854 0.984 . S
N1851 H1855 0.985 . S
H1852 N1847 0.984 . S
H1853 N1847 0.985 . S
H1854 N1851 0.984 . S
H1855 N1851 0.985 . S
H1856 N1850 0.984 . S
H1857 N1850 0.984 . S
H1858 N1846 0.984 . S
H1859 N1846 0.985 . S
C1860 C1861 1.363 . S
C1860 C1866 1.379 . S
C1860 N1868 1.356 . S
C1861 C1860 1.363 . S
C1861 C1867 1.363 . S
C1862 C1863 1.363 . S
C1862 C1867 1.379 . S
C1862 N1869 1.356 . S
C1863 C1862 1.363 . S
C1863 C1866 1.363 . S
N1864 C1866 1.356 . S
N1864 H1876 0.984 . S
N1864 H1877 0.985 . S
N1865 C1867 1.356 . S
N1865 H1870 0.984 . S
N1865 H1871 0.985 . S
C1866 C1860 1.379 . S
C1866 C1863 1.363 . S
C1866 N1864 1.356 . S
C1867 C1861 1.363 . S
C1867 C1862 1.379 . S
C1867 N1865 1.356 . S
N1868 C1860 1.356 . S
N1868 H1874 0.984 . S
N1868 H1875 0.984 . S
N1869 C1862 1.356 . S
N1869 H1872 0.984 . S
N1869 H1873 0.985 . S
H1870 N1865 0.984 . S
H1871 N1865 0.985 . S
H1872 N1869 0.984 . S
H1873 N1869 0.985 . S
H1874 N1868 0.984 . S
H1875 N1868 0.984 . S
H1876 N1864 0.984 . S
H1877 N1864 0.985 . S
C1878 C1879 1.363 . S
C1878 C1884 1.379 . S
C1878 N1886 1.356 . S
C1879 C1878 1.363 . S
C1879 C1885 1.363 . S
C1880 C1881 1.363 . S
C1880 C1885 1.379 . S
C1880 N1887 1.356 . S
C1881 C1880 1.363 . S
C1881 C1884 1.363 . S
N1882 C1884 1.356 . S
N1882 H1894 0.984 . S
N1882 H1895 0.985 . S
N1883 C1885 1.356 . S
N1883 H1888 0.984 . S
N1883 H1889 0.985 . S
C1884 C1878 1.379 . S
C1884 C1881 1.363 . S
C1884 N1882 1.356 . S
C1885 C1879 1.363 . S
C1885 C1880 1.379 . S
C1885 N1883 1.356 . S
N1886 C1878 1.356 . S
N1886 H1892 0.984 . S
N1886 H1893 0.984 . S
N1887 C1880 1.356 . S
N1887 H1890 0.984 . S
N1887 H1891 0.985 . S
H1888 N1883 0.984 . S
H1889 N1883 0.985 . S
H1890 N1887 0.984 . S
H1891 N1887 0.985 . S
H1892 N1886 0.984 . S
H1893 N1886 0.984 . S
H1894 N1882 0.984 . S
H1895 N1882 0.985 . S
C1896 C1897 1.363 . S
C1896 C1902 1.379 . S
C1896 N1904 1.356 . S
C1897 C1896 1.363 . S
C1897 C1903 1.363 . S
C1898 C1899 1.363 . S
C1898 C1903 1.379 . S
C1898 N1905 1.356 . S
C1899 C1898 1.363 . S
C1899 C1902 1.363 . S
N1900 C1902 1.356 . S
N1900 H1912 0.984 . S
N1900 H1913 0.985 . S
N1901 C1903 1.356 . S
N1901 H1906 0.984 . S
N1901 H1907 0.985 . S
C1902 C1896 1.379 . S
C1902 C1899 1.363 . S
C1902 N1900 1.356 . S
C1903 C1897 1.363 . S
C1903 C1898 1.379 . S
C1903 N1901 1.356 . S
N1904 C1896 1.356 . S
N1904 H1910 0.984 . S
N1904 H1911 0.984 . S
N1905 C1898 1.356 . S
N1905 H1908 0.984 . S
N1905 H1909 0.985 . S
H1906 N1901 0.984 . S
H1907 N1901 0.985 . S
H1908 N1905 0.984 . S
H1909 N1905 0.985 . S
H1910 N1904 0.984 . S
H1911 N1904 0.984 . S
H1912 N1900 0.984 . S
H1913 N1900 0.985 . S
C1914 C1915 1.363 . S
C1914 C1920 1.379 . S
C1914 N1922 1.356 . S
C1915 C1914 1.363 . S
C1915 C1921 1.363 . S
C1916 C1917 1.363 . S
C1916 C1921 1.379 . S
C1916 N1923 1.356 . S
C1917 C1916 1.363 . S
C1917 C1920 1.363 . S
N1918 C1920 1.356 . S
N1918 H1930 0.984 . S
N1918 H1931 0.985 . S
N1919 C1921 1.356 . S
N1919 H1924 0.984 . S
N1919 H1925 0.985 . S
C1920 C1914 1.379 . S
C1920 C1917 1.363 . S
C1920 N1918 1.356 . S
C1921 C1915 1.363 . S
C1921 C1916 1.379 . S
C1921 N1919 1.356 . S
N1922 C1914 1.356 . S
N1922 H1928 0.984 . S
N1922 H1929 0.984 . S
N1923 C1916 1.356 . S
N1923 H1926 0.984 . S
N1923 H1927 0.985 . S
H1924 N1919 0.984 . S
H1925 N1919 0.985 . S
H1926 N1923 0.984 . S
H1927 N1923 0.985 . S
H1928 N1922 0.984 . S
H1929 N1922 0.984 . S
H1930 N1918 0.984 . S
H1931 N1918 0.985 . S
C1932 C1933 1.363 . S
C1932 C1938 1.379 . S
C1932 N1940 1.356 . S
C1933 C1932 1.363 . S
C1933 C1939 1.363 . S
C1934 C1935 1.363 . S
C1934 C1939 1.379 . S
C1934 N1941 1.356 . S
C1935 C1934 1.363 . S
C1935 C1938 1.363 . S
N1936 C1938 1.356 . S
N1936 H1948 0.984 . S
N1936 H1949 0.985 . S
N1937 C1939 1.356 . S
N1937 H1942 0.984 . S
N1937 H1943 0.985 . S
C1938 C1932 1.379 . S
C1938 C1935 1.363 . S
C1938 N1936 1.356 . S
C1939 C1933 1.363 . S
C1939 C1934 1.379 . S
C1939 N1937 1.356 . S
N1940 C1932 1.356 . S
N1940 H1946 0.984 . S
N1940 H1947 0.984 . S
N1941 C1934 1.356 . S
N1941 H1944 0.984 . S
N1941 H1945 0.985 . S
H1942 N1937 0.984 . S
H1943 N1937 0.985 . S
H1944 N1941 0.984 . S
H1945 N1941 0.985 . S
H1946 N1940 0.984 . S
H1947 N1940 0.984 . S
H1948 N1936 0.984 . S
H1949 N1936 0.985 . S
C1950 C1951 1.363 . S
C1950 C1956 1.379 . S
C1950 N1958 1.356 . S
C1951 C1950 1.363 . S
C1951 C1957 1.363 . S
C1952 C1953 1.363 . S
C1952 C1957 1.379 . S
C1952 N1959 1.356 . S
C1953 C1952 1.363 . S
C1953 C1956 1.363 . S
N1954 C1956 1.356 . S
N1954 H1966 0.984 . S
N1954 H1967 0.985 . S
N1955 C1957 1.356 . S
N1955 H1960 0.984 . S
N1955 H1961 0.985 . S
C1956 C1950 1.379 . S
C1956 C1953 1.363 . S
C1956 N1954 1.356 . S
C1957 C1951 1.363 . S
C1957 C1952 1.379 . S
C1957 N1955 1.356 . S
N1958 C1950 1.356 . S
N1958 H1964 0.984 . S
N1958 H1965 0.984 . S
N1959 C1952 1.356 . S
N1959 H1962 0.984 . S
N1959 H1963 0.985 . S
H1960 N1955 0.984 . S
H1961 N1955 0.985 . S
H1962 N1959 0.984 . S
H1963 N1959 0.985 . S
H1964 N1958 0.984 . S
H1965 N1958 0.984 . S
H1966 N1954 0.984 . S
H1967 N1954 0.985 . S
C1968 C1969 1.363 . S
C1968 C1974 1.379 . S
C1968 N1976 1.356 . S
C1969 C1968 1.363 . S
C1969 C1975 1.363 . S
C1970 C1971 1.363 . S
C1970 C1975 1.379 . S
C1970 N1977 1.356 . S
C1971 C1970 1.363 . S
C1971 C1974 1.363 . S
N1972 C1974 1.356 . S
N1972 H1984 0.984 . S
N1972 H1985 0.985 . S
N1973 C1975 1.356 . S
N1973 H1978 0.984 . S
N1973 H1979 0.985 . S
C1974 C1968 1.379 . S
C1974 C1971 1.363 . S
C1974 N1972 1.356 . S
C1975 C1969 1.363 . S
C1975 C1970 1.379 . S
C1975 N1973 1.356 . S
N1976 C1968 1.356 . S
N1976 H1982 0.984 . S
N1976 H1983 0.984 . S
N1977 C1970 1.356 . S
N1977 H1980 0.984 . S
N1977 H1981 0.985 . S
H1978 N1973 0.984 . S
H1979 N1973 0.985 . S
H1980 N1977 0.984 . S
H1981 N1977 0.985 . S
H1982 N1976 0.984 . S
H1983 N1976 0.984 . S
H1984 N1972 0.984 . S
H1985 N1972 0.985 . S
C1986 C1987 1.363 . S
C1986 C1992 1.379 . S
C1986 N1994 1.356 . S
C1987 C1986 1.363 . S
C1987 C1993 1.363 . S
C1988 C1989 1.363 . S
C1988 C1993 1.379 . S
C1988 N1995 1.356 . S
C1989 C1988 1.363 . S
C1989 C1992 1.363 . S
N1990 C1992 1.356 . S
N1990 H2002 0.984 . S
N1990 H2003 0.985 . S
N1991 C1993 1.356 . S
N1991 H1996 0.984 . S
N1991 H1997 0.985 . S
C1992 C1986 1.379 . S
C1992 C1989 1.363 . S
C1992 N1990 1.356 . S
C1993 C1987 1.363 . S
C1993 C1988 1.379 . S
C1993 N1991 1.356 . S
N1994 C1986 1.356 . S
N1994 H2000 0.984 . S
N1994 H2001 0.984 . S
N1995 C1988 1.356 . S
N1995 H1998 0.984 . S
N1995 H1999 0.985 . S
H1996 N1991 0.984 . S
H1997 N1991 0.985 . S
H1998 N1995 0.984 . S
H1999 N1995 0.985 . S
H2000 N1994 0.984 . S
H2001 N1994 0.984 . S
H2002 N1990 0.984 . S
H2003 N1990 0.985 . S
C2004 C2005 1.363 . S
C2004 C2010 1.379 . S
C2004 N2012 1.356 . S
C2005 C2004 1.363 . S
C2005 C2011 1.363 . S
C2006 C2007 1.363 . S
C2006 C2011 1.379 . S
C2006 N2013 1.356 . S
C2007 C2006 1.363 . S
C2007 C2010 1.363 . S
N2008 C2010 1.356 . S
N2008 H2020 0.984 . S
N2008 H2021 0.985 . S
N2009 C2011 1.356 . S
N2009 H2014 0.984 . S
N2009 H2015 0.985 . S
C2010 C2004 1.379 . S
C2010 C2007 1.363 . S
C2010 N2008 1.356 . S
C2011 C2005 1.363 . S
C2011 C2006 1.379 . S
C2011 N2009 1.356 . S
N2012 C2004 1.356 . S
N2012 H2018 0.984 . S
N2012 H2019 0.984 . S
N2013 C2006 1.356 . S
N2013 H2016 0.984 . S
N2013 H2017 0.985 . S
H2014 N2009 0.984 . S
H2015 N2009 0.985 . S
H2016 N2013 0.984 . S
H2017 N2013 0.985 . S
H2018 N2012 0.984 . S
H2019 N2012 0.984 . S
H2020 N2008 0.984 . S
H2021 N2008 0.985 . S
C2022 C2023 1.363 . S
C2022 C2028 1.379 . S
C2022 N2030 1.356 . S
C2023 C2022 1.363 . S
C2023 C2029 1.363 . S
C2024 C2025 1.363 . S
C2024 C2029 1.379 . S
C2024 N2031 1.356 . S
C2025 C2024 1.363 . S
C2025 C2028 1.363 . S
N2026 C2028 1.356 . S
N2026 H2038 0.984 . S
N2026 H2039 0.985 . S
N2027 C2029 1.356 . S
N2027 H2032 0.984 . S
N2027 H2033 0.985 . S
C2028 C2022 1.379 . S
C2028 C2025 1.363 . S
C2028 N2026 1.356 . S
C2029 C2023 1.363 . S
C2029 C2024 1.379 . S
C2029 N2027 1.356 . S
N2030 C2022 1.356 . S
N2030 H2036 0.984 . S
N2030 H2037 0.984 . S
N2031 C2024 1.356 . S
N2031 H2034 0.984 . S
N2031 H2035 0.985 . S
H2032 N2027 0.984 . S
H2033 N2027 0.985 . S
H2034 N2031 0.984 . S
H2035 N2031 0.985 . S
H2036 N2030 0.984 . S
H2037 N2030 0.984 . S
H2038 N2026 0.984 . S
H2039 N2026 0.985 . S
C2040 C2041 1.363 . S
C2040 C2046 1.379 . S
C2040 N2048 1.356 . S
C2041 C2040 1.363 . S
C2041 C2047 1.363 . S
C2042 C2043 1.363 . S
C2042 C2047 1.379 . S
C2042 N2049 1.356 . S
C2043 C2042 1.363 . S
C2043 C2046 1.363 . S
N2044 C2046 1.356 . S
N2044 H2056 0.984 . S
N2044 H2057 0.985 . S
N2045 C2047 1.356 . S
N2045 H2050 0.984 . S
N2045 H2051 0.985 . S
C2046 C2040 1.379 . S
C2046 C2043 1.363 . S
C2046 N2044 1.356 . S
C2047 C2041 1.363 . S
C2047 C2042 1.379 . S
C2047 N2045 1.356 . S
N2048 C2040 1.356 . S
N2048 H2054 0.984 . S
N2048 H2055 0.984 . S
N2049 C2042 1.356 . S
N2049 H2052 0.984 . S
N2049 H2053 0.985 . S
H2050 N2045 0.984 . S
H2051 N2045 0.985 . S
H2052 N2049 0.984 . S
H2053 N2049 0.985 . S
H2054 N2048 0.984 . S
H2055 N2048 0.984 . S
H2056 N2044 0.984 . S
H2057 N2044 0.985 . S
C2058 C2059 1.363 . S
C2058 C2064 1.379 . S
C2058 N2066 1.356 . S
C2059 C2058 1.363 . S
C2059 C2065 1.363 . S
C2060 C2061 1.363 . S
C2060 C2065 1.379 . S
C2060 N2067 1.356 . S
C2061 C2060 1.363 . S
C2061 C2064 1.363 . S
N2062 C2064 1.356 . S
N2062 H2074 0.984 . S
N2062 H2075 0.985 . S
N2063 C2065 1.356 . S
N2063 H2068 0.984 . S
N2063 H2069 0.985 . S
C2064 C2058 1.379 . S
C2064 C2061 1.363 . S
C2064 N2062 1.356 . S
C2065 C2059 1.363 . S
C2065 C2060 1.379 . S
C2065 N2063 1.356 . S
N2066 C2058 1.356 . S
N2066 H2072 0.984 . S
N2066 H2073 0.984 . S
N2067 C2060 1.356 . S
N2067 H2070 0.984 . S
N2067 H2071 0.985 . S
H2068 N2063 0.984 . S
H2069 N2063 0.985 . S
H2070 N2067 0.984 . S
H2071 N2067 0.985 . S
H2072 N2066 0.984 . S
H2073 N2066 0.984 . S
H2074 N2062 0.984 . S
H2075 N2062 0.985 . S
C2076 C2077 1.363 . S
C2076 C2082 1.379 . S
C2076 N2084 1.356 . S
C2077 C2076 1.363 . S
C2077 C2083 1.363 . S
C2078 C2079 1.363 . S
C2078 C2083 1.379 . S
C2078 N2085 1.356 . S
C2079 C2078 1.363 . S
C2079 C2082 1.363 . S
N2080 C2082 1.356 . S
N2080 H2092 0.984 . S
N2080 H2093 0.985 . S
N2081 C2083 1.356 . S
N2081 H2086 0.984 . S
N2081 H2087 0.985 . S
C2082 C2076 1.379 . S
C2082 C2079 1.363 . S
C2082 N2080 1.356 . S
C2083 C2077 1.363 . S
C2083 C2078 1.379 . S
C2083 N2081 1.356 . S
N2084 C2076 1.356 . S
N2084 H2090 0.984 . S
N2084 H2091 0.984 . S
N2085 C2078 1.356 . S
N2085 H2088 0.984 . S
N2085 H2089 0.985 . S
H2086 N2081 0.984 . S
H2087 N2081 0.985 . S
H2088 N2085 0.984 . S
H2089 N2085 0.985 . S
H2090 N2084 0.984 . S
H2091 N2084 0.984 . S
H2092 N2080 0.984 . S
H2093 N2080 0.985 . S
C2094 C2095 1.363 . S
C2094 C2100 1.379 . S
C2094 N2102 1.356 . S
C2095 C2094 1.363 . S
C2095 C2101 1.363 . S
C2096 C2097 1.363 . S
C2096 C2101 1.379 . S
C2096 N2103 1.356 . S
C2097 C2096 1.363 . S
C2097 C2100 1.363 . S
N2098 C2100 1.356 . S
N2098 H2110 0.984 . S
N2098 H2111 0.985 . S
N2099 C2101 1.356 . S
N2099 H2104 0.984 . S
N2099 H2105 0.985 . S
C2100 C2094 1.379 . S
C2100 C2097 1.363 . S
C2100 N2098 1.356 . S
C2101 C2095 1.363 . S
C2101 C2096 1.379 . S
C2101 N2099 1.356 . S
N2102 C2094 1.356 . S
N2102 H2108 0.984 . S
N2102 H2109 0.984 . S
N2103 C2096 1.356 . S
N2103 H2106 0.984 . S
N2103 H2107 0.985 . S
H2104 N2099 0.984 . S
H2105 N2099 0.985 . S
H2106 N2103 0.984 . S
H2107 N2103 0.985 . S
H2108 N2102 0.984 . S
H2109 N2102 0.984 . S
H2110 N2098 0.984 . S
H2111 N2098 0.985 . S
C2112 C2113 1.363 . S
C2112 C2118 1.379 . S
C2112 N2120 1.356 . S
C2113 C2112 1.363 . S
C2113 C2119 1.363 . S
C2114 C2115 1.363 . S
C2114 C2119 1.379 . S
C2114 N2121 1.356 . S
C2115 C2114 1.363 . S
C2115 C2118 1.363 . S
N2116 C2118 1.356 . S
N2116 H2128 0.984 . S
N2116 H2129 0.985 . S
N2117 C2119 1.356 . S
N2117 H2122 0.984 . S
N2117 H2123 0.985 . S
C2118 C2112 1.379 . S
C2118 C2115 1.363 . S
C2118 N2116 1.356 . S
C2119 C2113 1.363 . S
C2119 C2114 1.379 . S
C2119 N2117 1.356 . S
N2120 C2112 1.356 . S
N2120 H2126 0.984 . S
N2120 H2127 0.984 . S
N2121 C2114 1.356 . S
N2121 H2124 0.984 . S
N2121 H2125 0.985 . S
H2122 N2117 0.984 . S
H2123 N2117 0.985 . S
H2124 N2121 0.984 . S
H2125 N2121 0.985 . S
H2126 N2120 0.984 . S
H2127 N2120 0.984 . S
H2128 N2116 0.984 . S
H2129 N2116 0.985 . S
C2130 C2131 1.363 . S
C2130 C2136 1.379 . S
C2130 N2138 1.356 . S
C2131 C2130 1.363 . S
C2131 C2137 1.363 . S
C2132 C2133 1.363 . S
C2132 C2137 1.379 . S
C2132 N2139 1.356 . S
C2133 C2132 1.363 . S
C2133 C2136 1.363 . S
N2134 C2136 1.356 . S
N2134 H2146 0.984 . S
N2134 H2147 0.985 . S
N2135 C2137 1.356 . S
N2135 H2140 0.984 . S
N2135 H2141 0.985 . S
C2136 C2130 1.379 . S
C2136 C2133 1.363 . S
C2136 N2134 1.356 . S
C2137 C2131 1.363 . S
C2137 C2132 1.379 . S
C2137 N2135 1.356 . S
N2138 C2130 1.356 . S
N2138 H2144 0.984 . S
N2138 H2145 0.984 . S
N2139 C2132 1.356 . S
N2139 H2142 0.984 . S
N2139 H2143 0.985 . S
H2140 N2135 0.984 . S
H2141 N2135 0.985 . S
H2142 N2139 0.984 . S
H2143 N2139 0.985 . S
H2144 N2138 0.984 . S
H2145 N2138 0.984 . S
H2146 N2134 0.984 . S
H2147 N2134 0.985 . S
C2148 C2149 1.363 . S
C2148 C2154 1.379 . S
C2148 N2156 1.356 . S
C2149 C2148 1.363 . S
C2149 C2155 1.363 . S
C2150 C2151 1.363 . S
C2150 C2155 1.379 . S
C2150 N2157 1.356 . S
C2151 C2150 1.363 . S
C2151 C2154 1.363 . S
N2152 C2154 1.356 . S
N2152 H2164 0.984 . S
N2152 H2165 0.985 . S
N2153 C2155 1.356 . S
N2153 H2158 0.984 . S
N2153 H2159 0.985 . S
C2154 C2148 1.379 . S
C2154 C2151 1.363 . S
C2154 N2152 1.356 . S
C2155 C2149 1.363 . S
C2155 C2150 1.379 . S
C2155 N2153 1.356 . S
N2156 C2148 1.356 . S
N2156 H2162 0.984 . S
N2156 H2163 0.984 . S
N2157 C2150 1.356 . S
N2157 H2160 0.984 . S
N2157 H2161 0.985 . S
H2158 N2153 0.984 . S
H2159 N2153 0.985 . S
H2160 N2157 0.984 . S
H2161 N2157 0.985 . S
H2162 N2156 0.984 . S
H2163 N2156 0.984 . S
H2164 N2152 0.984 . S
H2165 N2152 0.985 . S
C2166 C2167 1.363 . S
C2166 C2172 1.379 . S
C2166 N2174 1.356 . S
C2167 C2166 1.363 . S
C2167 C2173 1.363 . S
C2168 C2169 1.363 . S
C2168 C2173 1.379 . S
C2168 N2175 1.356 . S
C2169 C2168 1.363 . S
C2169 C2172 1.363 . S
N2170 C2172 1.356 . S
N2170 H2182 0.984 . S
N2170 H2183 0.985 . S
N2171 C2173 1.356 . S
N2171 H2176 0.984 . S
N2171 H2177 0.985 . S
C2172 C2166 1.379 . S
C2172 C2169 1.363 . S
C2172 N2170 1.356 . S
C2173 C2167 1.363 . S
C2173 C2168 1.379 . S
C2173 N2171 1.356 . S
N2174 C2166 1.356 . S
N2174 H2180 0.984 . S
N2174 H2181 0.984 . S
N2175 C2168 1.356 . S
N2175 H2178 0.984 . S
N2175 H2179 0.985 . S
H2176 N2171 0.984 . S
H2177 N2171 0.985 . S
H2178 N2175 0.984 . S
H2179 N2175 0.985 . S
H2180 N2174 0.984 . S
H2181 N2174 0.984 . S
H2182 N2170 0.984 . S
H2183 N2170 0.985 . S
C2184 C2185 1.363 . S
C2184 C2190 1.379 . S
C2184 N2192 1.356 . S
C2185 C2184 1.363 . S
C2185 C2191 1.363 . S
C2186 C2187 1.363 . S
C2186 C2191 1.379 . S
C2186 N2193 1.356 . S
C2187 C2186 1.363 . S
C2187 C2190 1.363 . S
N2188 C2190 1.356 . S
N2188 H2200 0.984 . S
N2188 H2201 0.985 . S
N2189 C2191 1.356 . S
N2189 H2194 0.984 . S
N2189 H2195 0.985 . S
C2190 C2184 1.379 . S
C2190 C2187 1.363 . S
C2190 N2188 1.356 . S
C2191 C2185 1.363 . S
C2191 C2186 1.379 . S
C2191 N2189 1.356 . S
N2192 C2184 1.356 . S
N2192 H2198 0.984 . S
N2192 H2199 0.984 . S
N2193 C2186 1.356 . S
N2193 H2196 0.984 . S
N2193 H2197 0.985 . S
H2194 N2189 0.984 . S
H2195 N2189 0.985 . S
H2196 N2193 0.984 . S
H2197 N2193 0.985 . S
H2198 N2192 0.984 . S
H2199 N2192 0.984 . S
H2200 N2188 0.984 . S
H2201 N2188 0.985 . S
C2202 C2203 1.363 . S
C2202 C2208 1.379 . S
C2202 N2210 1.356 . S
C2203 C2202 1.363 . S
C2203 C2209 1.363 . S
C2204 C2205 1.363 . S
C2204 C2209 1.379 . S
C2204 N2211 1.356 . S
C2205 C2204 1.363 . S
C2205 C2208 1.363 . S
N2206 C2208 1.356 . S
N2206 H2218 0.984 . S
N2206 H2219 0.985 . S
N2207 C2209 1.356 . S
N2207 H2212 0.984 . S
N2207 H2213 0.985 . S
C2208 C2202 1.379 . S
C2208 C2205 1.363 . S
C2208 N2206 1.356 . S
C2209 C2203 1.363 . S
C2209 C2204 1.379 . S
C2209 N2207 1.356 . S
N2210 C2202 1.356 . S
N2210 H2216 0.984 . S
N2210 H2217 0.984 . S
N2211 C2204 1.356 . S
N2211 H2214 0.984 . S
N2211 H2215 0.985 . S
H2212 N2207 0.984 . S
H2213 N2207 0.985 . S
H2214 N2211 0.984 . S
H2215 N2211 0.985 . S
H2216 N2210 0.984 . S
H2217 N2210 0.984 . S
H2218 N2206 0.984 . S
H2219 N2206 0.985 . S
C2220 C2221 1.363 . S
C2220 C2226 1.379 . S
C2220 N2228 1.356 . S
C2221 C2220 1.363 . S
C2221 C2227 1.363 . S
C2222 C2223 1.363 . S
C2222 C2227 1.379 . S
C2222 N2229 1.356 . S
C2223 C2222 1.363 . S
C2223 C2226 1.363 . S
N2224 C2226 1.356 . S
N2224 H2236 0.984 . S
N2224 H2237 0.985 . S
N2225 C2227 1.356 . S
N2225 H2230 0.984 . S
N2225 H2231 0.985 . S
C2226 C2220 1.379 . S
C2226 C2223 1.363 . S
C2226 N2224 1.356 . S
C2227 C2221 1.363 . S
C2227 C2222 1.379 . S
C2227 N2225 1.356 . S
N2228 C2220 1.356 . S
N2228 H2234 0.984 . S
N2228 H2235 0.984 . S
N2229 C2222 1.356 . S
N2229 H2232 0.984 . S
N2229 H2233 0.985 . S
H2230 N2225 0.984 . S
H2231 N2225 0.985 . S
H2232 N2229 0.984 . S
H2233 N2229 0.985 . S
H2234 N2228 0.984 . S
H2235 N2228 0.984 . S
H2236 N2224 0.984 . S
H2237 N2224 0.985 . S
C2238 C2239 1.363 . S
C2238 C2244 1.379 . S
C2238 N2246 1.356 . S
C2239 C2238 1.363 . S
C2239 C2245 1.363 . S
C2240 C2241 1.363 . S
C2240 C2245 1.379 . S
C2240 N2247 1.356 . S
C2241 C2240 1.363 . S
C2241 C2244 1.363 . S
N2242 C2244 1.356 . S
N2242 H2254 0.984 . S
N2242 H2255 0.985 . S
N2243 C2245 1.356 . S
N2243 H2248 0.984 . S
N2243 H2249 0.985 . S
C2244 C2238 1.379 . S
C2244 C2241 1.363 . S
C2244 N2242 1.356 . S
C2245 C2239 1.363 . S
C2245 C2240 1.379 . S
C2245 N2243 1.356 . S
N2246 C2238 1.356 . S
N2246 H2252 0.984 . S
N2246 H2253 0.984 . S
N2247 C2240 1.356 . S
N2247 H2250 0.984 . S
N2247 H2251 0.985 . S
H2248 N2243 0.984 . S
H2249 N2243 0.985 . S
H2250 N2247 0.984 . S
H2251 N2247 0.985 . S
H2252 N2246 0.984 . S
H2253 N2246 0.984 . S
H2254 N2242 0.984 . S
H2255 N2242 0.985 . S
C2256 C2257 1.363 . S
C2256 C2262 1.379 . S
C2256 N2264 1.356 . S
C2257 C2256 1.363 . S
C2257 C2263 1.363 . S
C2258 C2259 1.363 . S
C2258 C2263 1.379 . S
C2258 N2265 1.356 . S
C2259 C2258 1.363 . S
C2259 C2262 1.363 . S
N2260 C2262 1.356 . S
N2260 H2272 0.984 . S
N2260 H2273 0.985 . S
N2261 C2263 1.356 . S
N2261 H2266 0.984 . S
N2261 H2267 0.985 . S
C2262 C2256 1.379 . S
C2262 C2259 1.363 . S
C2262 N2260 1.356 . S
C2263 C2257 1.363 . S
C2263 C2258 1.379 . S
C2263 N2261 1.356 . S
N2264 C2256 1.356 . S
N2264 H2270 0.984 . S
N2264 H2271 0.984 . S
N2265 C2258 1.356 . S
N2265 H2268 0.984 . S
N2265 H2269 0.985 . S
H2266 N2261 0.984 . S
H2267 N2261 0.985 . S
H2268 N2265 0.984 . S
H2269 N2265 0.985 . S
H2270 N2264 0.984 . S
H2271 N2264 0.984 . S
H2272 N2260 0.984 . S
H2273 N2260 0.985 . S
C2274 C2275 1.363 . S
C2274 C2280 1.379 . S
C2274 N2282 1.356 . S
C2275 C2274 1.363 . S
C2275 C2281 1.363 . S
C2276 C2277 1.363 . S
C2276 C2281 1.379 . S
C2276 N2283 1.356 . S
C2277 C2276 1.363 . S
C2277 C2280 1.363 . S
N2278 C2280 1.356 . S
N2278 H2290 0.984 . S
N2278 H2291 0.985 . S
N2279 C2281 1.356 . S
N2279 H2284 0.984 . S
N2279 H2285 0.985 . S
C2280 C2274 1.379 . S
C2280 C2277 1.363 . S
C2280 N2278 1.356 . S
C2281 C2275 1.363 . S
C2281 C2276 1.379 . S
C2281 N2279 1.356 . S
N2282 C2274 1.356 . S
N2282 H2288 0.984 . S
N2282 H2289 0.984 . S
N2283 C2276 1.356 . S
N2283 H2286 0.984 . S
N2283 H2287 0.985 . S
H2284 N2279 0.984 . S
H2285 N2279 0.985 . S
H2286 N2283 0.984 . S
H2287 N2283 0.985 . S
H2288 N2282 0.984 . S
H2289 N2282 0.984 . S
H2290 N2278 0.984 . S
H2291 N2278 0.985 . S
C2292 C2293 1.363 . S
C2292 C2298 1.379 . S
C2292 N2300 1.356 . S
C2293 C2292 1.363 . S
C2293 C2299 1.363 . S
C2294 C2295 1.363 . S
C2294 C2299 1.379 . S
C2294 N2301 1.356 . S
C2295 C2294 1.363 . S
C2295 C2298 1.363 . S
N2296 C2298 1.356 . S
N2296 H2308 0.984 . S
N2296 H2309 0.985 . S
N2297 C2299 1.356 . S
N2297 H2302 0.984 . S
N2297 H2303 0.985 . S
C2298 C2292 1.379 . S
C2298 C2295 1.363 . S
C2298 N2296 1.356 . S
C2299 C2293 1.363 . S
C2299 C2294 1.379 . S
C2299 N2297 1.356 . S
N2300 C2292 1.356 . S
N2300 H2306 0.984 . S
N2300 H2307 0.984 . S
N2301 C2294 1.356 . S
N2301 H2304 0.984 . S
N2301 H2305 0.985 . S
H2302 N2297 0.984 . S
H2303 N2297 0.985 . S
H2304 N2301 0.984 . S
H2305 N2301 0.985 . S
H2306 N2300 0.984 . S
H2307 N2300 0.984 . S
H2308 N2296 0.984 . S
H2309 N2296 0.985 . S
C2310 C2311 1.363 . S
C2310 C2316 1.379 . S
C2310 N2318 1.356 . S
C2311 C2310 1.363 . S
C2311 C2317 1.363 . S
C2312 C2313 1.363 . S
C2312 C2317 1.379 . S
C2312 N2319 1.356 . S
C2313 C2312 1.363 . S
C2313 C2316 1.363 . S
N2314 C2316 1.356 . S
N2314 H2326 0.984 . S
N2314 H2327 0.985 . S
N2315 C2317 1.356 . S
N2315 H2320 0.984 . S
N2315 H2321 0.985 . S
C2316 C2310 1.379 . S
C2316 C2313 1.363 . S
C2316 N2314 1.356 . S
C2317 C2311 1.363 . S
C2317 C2312 1.379 . S
C2317 N2315 1.356 . S
N2318 C2310 1.356 . S
N2318 H2324 0.984 . S
N2318 H2325 0.984 . S
N2319 C2312 1.356 . S
N2319 H2322 0.984 . S
N2319 H2323 0.985 . S
H2320 N2315 0.984 . S
H2321 N2315 0.985 . S
H2322 N2319 0.984 . S
H2323 N2319 0.985 . S
H2324 N2318 0.984 . S
H2325 N2318 0.984 . S
H2326 N2314 0.984 . S
H2327 N2314 0.985 . S
C2328 C2329 1.363 . S
C2328 C2334 1.379 . S
C2328 N2336 1.356 . S
C2329 C2328 1.363 . S
C2329 C2335 1.363 . S
C2330 C2331 1.363 . S
C2330 C2335 1.379 . S
C2330 N2337 1.356 . S
C2331 C2330 1.363 . S
C2331 C2334 1.363 . S
N2332 C2334 1.356 . S
N2332 H2344 0.984 . S
N2332 H2345 0.985 . S
N2333 C2335 1.356 . S
N2333 H2338 0.984 . S
N2333 H2339 0.985 . S
C2334 C2328 1.379 . S
C2334 C2331 1.363 . S
C2334 N2332 1.356 . S
C2335 C2329 1.363 . S
C2335 C2330 1.379 . S
C2335 N2333 1.356 . S
N2336 C2328 1.356 . S
N2336 H2342 0.984 . S
N2336 H2343 0.984 . S
N2337 C2330 1.356 . S
N2337 H2340 0.984 . S
N2337 H2341 0.985 . S
H2338 N2333 0.984 . S
H2339 N2333 0.985 . S
H2340 N2337 0.984 . S
H2341 N2337 0.985 . S
H2342 N2336 0.984 . S
H2343 N2336 0.984 . S
H2344 N2332 0.984 . S
H2345 N2332 0.985 . S
C2346 C2347 1.363 . S
C2346 C2352 1.379 . S
C2346 N2354 1.356 . S
C2347 C2346 1.363 . S
C2347 C2353 1.363 . S
C2348 C2349 1.363 . S
C2348 C2353 1.379 . S
C2348 N2355 1.356 . S
C2349 C2348 1.363 . S
C2349 C2352 1.363 . S
N2350 C2352 1.356 . S
N2350 H2362 0.984 . S
N2350 H2363 0.985 . S
N2351 C2353 1.356 . S
N2351 H2356 0.984 . S
N2351 H2357 0.985 . S
C2352 C2346 1.379 . S
C2352 C2349 1.363 . S
C2352 N2350 1.356 . S
C2353 C2347 1.363 . S
C2353 C2348 1.379 . S
C2353 N2351 1.356 . S
N2354 C2346 1.356 . S
N2354 H2360 0.984 . S
N2354 H2361 0.984 . S
N2355 C2348 1.356 . S
N2355 H2358 0.984 . S
N2355 H2359 0.985 . S
H2356 N2351 0.984 . S
H2357 N2351 0.985 . S
H2358 N2355 0.984 . S
H2359 N2355 0.985 . S
H2360 N2354 0.984 . S
H2361 N2354 0.984 . S
H2362 N2350 0.984 . S
H2363 N2350 0.985 . S
C2364 C2365 1.363 . S
C2364 C2370 1.379 . S
C2364 N2372 1.356 . S
C2365 C2364 1.363 . S
C2365 C2371 1.363 . S
C2366 C2367 1.363 . S
C2366 C2371 1.379 . S
C2366 N2373 1.356 . S
C2367 C2366 1.363 . S
C2367 C2370 1.363 . S
N2368 C2370 1.356 . S
N2368 H2380 0.984 . S
N2368 H2381 0.985 . S
N2369 C2371 1.356 . S
N2369 H2374 0.984 . S
N2369 H2375 0.985 . S
C2370 C2364 1.379 . S
C2370 C2367 1.363 . S
C2370 N2368 1.356 . S
C2371 C2365 1.363 . S
C2371 C2366 1.379 . S
C2371 N2369 1.356 . S
N2372 C2364 1.356 . S
N2372 H2378 0.984 . S
N2372 H2379 0.984 . S
N2373 C2366 1.356 . S
N2373 H2376 0.984 . S
N2373 H2377 0.985 . S
H2374 N2369 0.984 . S
H2375 N2369 0.985 . S
H2376 N2373 0.984 . S
H2377 N2373 0.985 . S
H2378 N2372 0.984 . S
H2379 N2372 0.984 . S
H2380 N2368 0.984 . S
H2381 N2368 0.985 . S
C2382 C2383 1.363 . S
C2382 C2388 1.379 . S
C2382 N2390 1.356 . S
C2383 C2382 1.363 . S
C2383 C2389 1.363 . S
C2384 C2385 1.363 . S
C2384 C2389 1.379 . S
C2384 N2391 1.356 . S
C2385 C2384 1.363 . S
C2385 C2388 1.363 . S
N2386 C2388 1.356 . S
N2386 H2398 0.984 . S
N2386 H2399 0.985 . S
N2387 C2389 1.356 . S
N2387 H2392 0.984 . S
N2387 H2393 0.985 . S
C2388 C2382 1.379 . S
C2388 C2385 1.363 . S
C2388 N2386 1.356 . S
C2389 C2383 1.363 . S
C2389 C2384 1.379 . S
C2389 N2387 1.356 . S
N2390 C2382 1.356 . S
N2390 H2396 0.984 . S
N2390 H2397 0.984 . S
N2391 C2384 1.356 . S
N2391 H2394 0.984 . S
N2391 H2395 0.985 . S
H2392 N2387 0.984 . S
H2393 N2387 0.985 . S
H2394 N2391 0.984 . S
H2395 N2391 0.985 . S
H2396 N2390 0.984 . S
H2397 N2390 0.984 . S
H2398 N2386 0.984 . S
H2399 N2386 0.985 . S
C2400 C2401 1.363 . S
C2400 C2406 1.379 . S
C2400 N2408 1.356 . S
C2401 C2400 1.363 . S
C2401 C2407 1.363 . S
C2402 C2403 1.363 . S
C2402 C2407 1.379 . S
C2402 N2409 1.356 . S
C2403 C2402 1.363 . S
C2403 C2406 1.363 . S
N2404 C2406 1.356 . S
N2404 H2416 0.984 . S
N2404 H2417 0.985 . S
N2405 C2407 1.356 . S
N2405 H2410 0.984 . S
N2405 H2411 0.985 . S
C2406 C2400 1.379 . S
C2406 C2403 1.363 . S
C2406 N2404 1.356 . S
C2407 C2401 1.363 . S
C2407 C2402 1.379 . S
C2407 N2405 1.356 . S
N2408 C2400 1.356 . S
N2408 H2414 0.984 . S
N2408 H2415 0.984 . S
N2409 C2402 1.356 . S
N2409 H2412 0.984 . S
N2409 H2413 0.985 . S
H2410 N2405 0.984 . S
H2411 N2405 0.985 . S
H2412 N2409 0.984 . S
H2413 N2409 0.985 . S
H2414 N2408 0.984 . S
H2415 N2408 0.984 . S
H2416 N2404 0.984 . S
H2417 N2404 0.985 . S
C2418 C2419 1.363 . S
C2418 C2424 1.379 . S
C2418 N2426 1.356 . S
C2419 C2418 1.363 . S
C2419 C2425 1.363 . S
C2420 C2421 1.363 . S
C2420 C2425 1.379 . S
C2420 N2427 1.356 . S
C2421 C2420 1.363 . S
C2421 C2424 1.363 . S
N2422 C2424 1.356 . S
N2422 H2434 0.984 . S
N2422 H2435 0.985 . S
N2423 C2425 1.356 . S
N2423 H2428 0.984 . S
N2423 H2429 0.985 . S
C2424 C2418 1.379 . S
C2424 C2421 1.363 . S
C2424 N2422 1.356 . S
C2425 C2419 1.363 . S
C2425 C2420 1.379 . S
C2425 N2423 1.356 . S
N2426 C2418 1.356 . S
N2426 H2432 0.984 . S
N2426 H2433 0.984 . S
N2427 C2420 1.356 . S
N2427 H2430 0.984 . S
N2427 H2431 0.985 . S
H2428 N2423 0.984 . S
H2429 N2423 0.985 . S
H2430 N2427 0.984 . S
H2431 N2427 0.985 . S
H2432 N2426 0.984 . S
H2433 N2426 0.984 . S
H2434 N2422 0.984 . S
H2435 N2422 0.985 . S
C2436 C2437 1.363 . S
C2436 C2442 1.379 . S
C2436 N2444 1.356 . S
C2437 C2436 1.363 . S
C2437 C2443 1.363 . S
C2438 C2439 1.363 . S
C2438 C2443 1.379 . S
C2438 N2445 1.356 . S
C2439 C2438 1.363 . S
C2439 C2442 1.363 . S
N2440 C2442 1.356 . S
N2440 H2452 0.984 . S
N2440 H2453 0.985 . S
N2441 C2443 1.356 . S
N2441 H2446 0.984 . S
N2441 H2447 0.985 . S
C2442 C2436 1.379 . S
C2442 C2439 1.363 . S
C2442 N2440 1.356 . S
C2443 C2437 1.363 . S
C2443 C2438 1.379 . S
C2443 N2441 1.356 . S
N2444 C2436 1.356 . S
N2444 H2450 0.984 . S
N2444 H2451 0.984 . S
N2445 C2438 1.356 . S
N2445 H2448 0.984 . S
N2445 H2449 0.985 . S
H2446 N2441 0.984 . S
H2447 N2441 0.985 . S
H2448 N2445 0.984 . S
H2449 N2445 0.985 . S
H2450 N2444 0.984 . S
H2451 N2444 0.984 . S
H2452 N2440 0.984 . S
H2453 N2440 0.985 . S
C2454 C2455 1.363 . S
C2454 C2460 1.379 . S
C2454 N2462 1.356 . S
C2455 C2454 1.363 . S
C2455 C2461 1.363 . S
C2456 C2457 1.363 . S
C2456 C2461 1.379 . S
C2456 N2463 1.356 . S
C2457 C2456 1.363 . S
C2457 C2460 1.363 . S
N2458 C2460 1.356 . S
N2458 H2470 0.984 . S
N2458 H2471 0.985 . S
N2459 C2461 1.356 . S
N2459 H2464 0.984 . S
N2459 H2465 0.985 . S
C2460 C2454 1.379 . S
C2460 C2457 1.363 . S
C2460 N2458 1.356 . S
C2461 C2455 1.363 . S
C2461 C2456 1.379 . S
C2461 N2459 1.356 . S
N2462 C2454 1.356 . S
N2462 H2468 0.984 . S
N2462 H2469 0.984 . S
N2463 C2456 1.356 . S
N2463 H2466 0.984 . S
N2463 H2467 0.985 . S
H2464 N2459 0.984 . S
H2465 N2459 0.985 . S
H2466 N2463 0.984 . S
H2467 N2463 0.985 . S
H2468 N2462 0.984 . S
H2469 N2462 0.984 . S
H2470 N2458 0.984 . S
H2471 N2458 0.985 . S
C2472 C2473 1.363 . S
C2472 C2478 1.379 . S
C2472 N2480 1.356 . S
C2473 C2472 1.363 . S
C2473 C2479 1.363 . S
C2474 C2475 1.363 . S
C2474 C2479 1.379 . S
C2474 N2481 1.356 . S
C2475 C2474 1.363 . S
C2475 C2478 1.363 . S
N2476 C2478 1.356 . S
N2476 H2488 0.984 . S
N2476 H2489 0.985 . S
N2477 C2479 1.356 . S
N2477 H2482 0.984 . S
N2477 H2483 0.985 . S
C2478 C2472 1.379 . S
C2478 C2475 1.363 . S
C2478 N2476 1.356 . S
C2479 C2473 1.363 . S
C2479 C2474 1.379 . S
C2479 N2477 1.356 . S
N2480 C2472 1.356 . S
N2480 H2486 0.984 . S
N2480 H2487 0.984 . S
N2481 C2474 1.356 . S
N2481 H2484 0.984 . S
N2481 H2485 0.985 . S
H2482 N2477 0.984 . S
H2483 N2477 0.985 . S
H2484 N2481 0.984 . S
H2485 N2481 0.985 . S
H2486 N2480 0.984 . S
H2487 N2480 0.984 . S
H2488 N2476 0.984 . S
H2489 N2476 0.985 . S
C2490 C2491 1.363 . S
C2490 C2496 1.379 . S
C2490 N2498 1.356 . S
C2491 C2490 1.363 . S
C2491 C2497 1.363 . S
C2492 C2493 1.363 . S
C2492 C2497 1.379 . S
C2492 N2499 1.356 . S
C2493 C2492 1.363 . S
C2493 C2496 1.363 . S
N2494 C2496 1.356 . S
N2494 H2506 0.984 . S
N2494 H2507 0.985 . S
N2495 C2497 1.356 . S
N2495 H2500 0.984 . S
N2495 H2501 0.985 . S
C2496 C2490 1.379 . S
C2496 C2493 1.363 . S
C2496 N2494 1.356 . S
C2497 C2491 1.363 . S
C2497 C2492 1.379 . S
C2497 N2495 1.356 . S
N2498 C2490 1.356 . S
N2498 H2504 0.984 . S
N2498 H2505 0.984 . S
N2499 C2492 1.356 . S
N2499 H2502 0.984 . S
N2499 H2503 0.985 . S
H2500 N2495 0.984 . S
H2501 N2495 0.985 . S
H2502 N2499 0.984 . S
H2503 N2499 0.985 . S
H2504 N2498 0.984 . S
H2505 N2498 0.984 . S
H2506 N2494 0.984 . S
H2507 N2494 0.985 . S
C2508 C2509 1.363 . S
C2508 C2514 1.379 . S
C2508 N2516 1.356 . S
C2509 C2508 1.363 . S
C2509 C2515 1.363 . S
C2510 C2511 1.363 . S
C2510 C2515 1.379 . S
C2510 N2517 1.356 . S
C2511 C2510 1.363 . S
C2511 C2514 1.363 . S
N2512 C2514 1.356 . S
N2512 H2524 0.984 . S
N2512 H2525 0.985 . S
N2513 C2515 1.356 . S
N2513 H2518 0.984 . S
N2513 H2519 0.985 . S
C2514 C2508 1.379 . S
C2514 C2511 1.363 . S
C2514 N2512 1.356 . S
C2515 C2509 1.363 . S
C2515 C2510 1.379 . S
C2515 N2513 1.356 . S
N2516 C2508 1.356 . S
N2516 H2522 0.984 . S
N2516 H2523 0.984 . S
N2517 C2510 1.356 . S
N2517 H2520 0.984 . S
N2517 H2521 0.985 . S
H2518 N2513 0.984 . S
H2519 N2513 0.985 . S
H2520 N2517 0.984 . S
H2521 N2517 0.985 . S
H2522 N2516 0.984 . S
H2523 N2516 0.984 . S
H2524 N2512 0.984 . S
H2525 N2512 0.985 . S
C2526 C2527 1.363 . S
C2526 C2532 1.379 . S
C2526 N2534 1.356 . S
C2527 C2526 1.363 . S
C2527 C2533 1.363 . S
C2528 C2529 1.363 . S
C2528 C2533 1.379 . S
C2528 N2535 1.356 . S
C2529 C2528 1.363 . S
C2529 C2532 1.363 . S
N2530 C2532 1.356 . S
N2530 H2542 0.984 . S
N2530 H2543 0.985 . S
N2531 C2533 1.356 . S
N2531 H2536 0.984 . S
N2531 H2537 0.985 . S
C2532 C2526 1.379 . S
C2532 C2529 1.363 . S
C2532 N2530 1.356 . S
C2533 C2527 1.363 . S
C2533 C2528 1.379 . S
C2533 N2531 1.356 . S
N2534 C2526 1.356 . S
N2534 H2540 0.984 . S
N2534 H2541 0.984 . S
N2535 C2528 1.356 . S
N2535 H2538 0.984 . S
N2535 H2539 0.985 . S
H2536 N2531 0.984 . S
H2537 N2531 0.985 . S
H2538 N2535 0.984 . S
H2539 N2535 0.985 . S
H2540 N2534 0.984 . S
H2541 N2534 0.984 . S
H2542 N2530 0.984 . S
H2543 N2530 0.985 . S
C2544 C2545 1.363 . S
C2544 C2550 1.379 . S
C2544 N2552 1.356 . S
C2545 C2544 1.363 . S
C2545 C2551 1.363 . S
C2546 C2547 1.363 . S
C2546 C2551 1.379 . S
C2546 N2553 1.356 . S
C2547 C2546 1.363 . S
C2547 C2550 1.363 . S
N2548 C2550 1.356 . S
N2548 H2560 0.984 . S
N2548 H2561 0.985 . S
N2549 C2551 1.356 . S
N2549 H2554 0.984 . S
N2549 H2555 0.985 . S
C2550 C2544 1.379 . S
C2550 C2547 1.363 . S
C2550 N2548 1.356 . S
C2551 C2545 1.363 . S
C2551 C2546 1.379 . S
C2551 N2549 1.356 . S
N2552 C2544 1.356 . S
N2552 H2558 0.984 . S
N2552 H2559 0.984 . S
N2553 C2546 1.356 . S
N2553 H2556 0.984 . S
N2553 H2557 0.985 . S
H2554 N2549 0.984 . S
H2555 N2549 0.985 . S
H2556 N2553 0.984 . S
H2557 N2553 0.985 . S
H2558 N2552 0.984 . S
H2559 N2552 0.984 . S
H2560 N2548 0.984 . S
H2561 N2548 0.985 . S
C2562 C2563 1.363 . S
C2562 C2568 1.379 . S
C2562 N2570 1.356 . S
C2563 C2562 1.363 . S
C2563 C2569 1.363 . S
C2564 C2565 1.363 . S
C2564 C2569 1.379 . S
C2564 N2571 1.356 . S
C2565 C2564 1.363 . S
C2565 C2568 1.363 . S
N2566 C2568 1.356 . S
N2566 H2578 0.984 . S
N2566 H2579 0.985 . S
N2567 C2569 1.356 . S
N2567 H2572 0.984 . S
N2567 H2573 0.985 . S
C2568 C2562 1.379 . S
C2568 C2565 1.363 . S
C2568 N2566 1.356 . S
C2569 C2563 1.363 . S
C2569 C2564 1.379 . S
C2569 N2567 1.356 . S
N2570 C2562 1.356 . S
N2570 H2576 0.984 . S
N2570 H2577 0.984 . S
N2571 C2564 1.356 . S
N2571 H2574 0.984 . S
N2571 H2575 0.985 . S
H2572 N2567 0.984 . S
H2573 N2567 0.985 . S
H2574 N2571 0.984 . S
H2575 N2571 0.985 . S
H2576 N2570 0.984 . S
H2577 N2570 0.984 . S
H2578 N2566 0.984 . S
H2579 N2566 0.985 . S
C2580 C2581 1.363 . S
C2580 C2586 1.379 . S
C2580 N2588 1.356 . S
C2581 C2580 1.363 . S
C2581 C2587 1.363 . S
C2582 C2583 1.363 . S
C2582 C2587 1.379 . S
C2582 N2589 1.356 . S
C2583 C2582 1.363 . S
C2583 C2586 1.363 . S
N2584 C2586 1.356 . S
N2584 H2596 0.984 . S
N2584 H2597 0.985 . S
N2585 C2587 1.356 . S
N2585 H2590 0.984 . S
N2585 H2591 0.985 . S
C2586 C2580 1.379 . S
C2586 C2583 1.363 . S
C2586 N2584 1.356 . S
C2587 C2581 1.363 . S
C2587 C2582 1.379 . S
C2587 N2585 1.356 . S
N2588 C2580 1.356 . S
N2588 H2594 0.984 . S
N2588 H2595 0.984 . S
N2589 C2582 1.356 . S
N2589 H2592 0.984 . S
N2589 H2593 0.985 . S
H2590 N2585 0.984 . S
H2591 N2585 0.985 . S
H2592 N2589 0.984 . S
H2593 N2589 0.985 . S
H2594 N2588 0.984 . S
H2595 N2588 0.984 . S
H2596 N2584 0.984 . S
H2597 N2584 0.985 . S
C2598 C2599 1.363 . S
C2598 C2604 1.379 . S
C2598 N2606 1.356 . S
C2599 C2598 1.363 . S
C2599 C2605 1.363 . S
C2600 C2601 1.363 . S
C2600 C2605 1.379 . S
C2600 N2607 1.356 . S
C2601 C2600 1.363 . S
C2601 C2604 1.363 . S
N2602 C2604 1.356 . S
N2602 H2614 0.984 . S
N2602 H2615 0.985 . S
N2603 C2605 1.356 . S
N2603 H2608 0.984 . S
N2603 H2609 0.985 . S
C2604 C2598 1.379 . S
C2604 C2601 1.363 . S
C2604 N2602 1.356 . S
C2605 C2599 1.363 . S
C2605 C2600 1.379 . S
C2605 N2603 1.356 . S
N2606 C2598 1.356 . S
N2606 H2612 0.984 . S
N2606 H2613 0.984 . S
N2607 C2600 1.356 . S
N2607 H2610 0.984 . S
N2607 H2611 0.985 . S
H2608 N2603 0.984 . S
H2609 N2603 0.985 . S
H2610 N2607 0.984 . S
H2611 N2607 0.985 . S
H2612 N2606 0.984 . S
H2613 N2606 0.984 . S
H2614 N2602 0.984 . S
H2615 N2602 0.985 . S
C2616 C2617 1.363 . S
C2616 C2622 1.379 . S
C2616 N2624 1.356 . S
C2617 C2616 1.363 . S
C2617 C2623 1.363 . S
C2618 C2619 1.363 . S
C2618 C2623 1.379 . S
C2618 N2625 1.356 . S
C2619 C2618 1.363 . S
C2619 C2622 1.363 . S
N2620 C2622 1.356 . S
N2620 H2632 0.984 . S
N2620 H2633 0.985 . S
N2621 C2623 1.356 . S
N2621 H2626 0.984 . S
N2621 H2627 0.985 . S
C2622 C2616 1.379 . S
C2622 C2619 1.363 . S
C2622 N2620 1.356 . S
C2623 C2617 1.363 . S
C2623 C2618 1.379 . S
C2623 N2621 1.356 . S
N2624 C2616 1.356 . S
N2624 H2630 0.984 . S
N2624 H2631 0.984 . S
N2625 C2618 1.356 . S
N2625 H2628 0.984 . S
N2625 H2629 0.985 . S
H2626 N2621 0.984 . S
H2627 N2621 0.985 . S
H2628 N2625 0.984 . S
H2629 N2625 0.985 . S
H2630 N2624 0.984 . S
H2631 N2624 0.984 . S
H2632 N2620 0.984 . S
H2633 N2620 0.985 . S
C2634 C2635 1.363 . S
C2634 C2640 1.379 . S
C2634 N2642 1.356 . S
C2635 C2634 1.363 . S
C2635 C2641 1.363 . S
C2636 C2637 1.363 . S
C2636 C2641 1.379 . S
C2636 N2643 1.356 . S
C2637 C2636 1.363 . S
C2637 C2640 1.363 . S
N2638 C2640 1.356 . S
N2638 H2650 0.984 . S
N2638 H2651 0.985 . S
N2639 C2641 1.356 . S
N2639 H2644 0.984 . S
N2639 H2645 0.985 . S
C2640 C2634 1.379 . S
C2640 C2637 1.363 . S
C2640 N2638 1.356 . S
C2641 C2635 1.363 . S
C2641 C2636 1.379 . S
C2641 N2639 1.356 . S
N2642 C2634 1.356 . S
N2642 H2648 0.984 . S
N2642 H2649 0.984 . S
N2643 C2636 1.356 . S
N2643 H2646 0.984 . S
N2643 H2647 0.985 . S
H2644 N2639 0.984 . S
H2645 N2639 0.985 . S
H2646 N2643 0.984 . S
H2647 N2643 0.985 . S
H2648 N2642 0.984 . S
H2649 N2642 0.984 . S
H2650 N2638 0.984 . S
H2651 N2638 0.985 . S
C2652 C2653 1.363 . S
C2652 C2658 1.379 . S
C2652 N2660 1.356 . S
C2653 C2652 1.363 . S
C2653 C2659 1.363 . S
C2654 C2655 1.363 . S
C2654 C2659 1.379 . S
C2654 N2661 1.356 . S
C2655 C2654 1.363 . S
C2655 C2658 1.363 . S
N2656 C2658 1.356 . S
N2656 H2668 0.984 . S
N2656 H2669 0.985 . S
N2657 C2659 1.356 . S
N2657 H2662 0.984 . S
N2657 H2663 0.985 . S
C2658 C2652 1.379 . S
C2658 C2655 1.363 . S
C2658 N2656 1.356 . S
C2659 C2653 1.363 . S
C2659 C2654 1.379 . S
C2659 N2657 1.356 . S
N2660 C2652 1.356 . S
N2660 H2666 0.984 . S
N2660 H2667 0.984 . S
N2661 C2654 1.356 . S
N2661 H2664 0.984 . S
N2661 H2665 0.985 . S
H2662 N2657 0.984 . S
H2663 N2657 0.985 . S
H2664 N2661 0.984 . S
H2665 N2661 0.985 . S
H2666 N2660 0.984 . S
H2667 N2660 0.984 . S
H2668 N2656 0.984 . S
H2669 N2656 0.985 . S
C2670 C2671 1.363 . S
C2670 C2676 1.379 . S
C2670 N2678 1.356 . S
C2671 C2670 1.363 . S
C2671 C2677 1.363 . S
C2672 C2673 1.363 . S
C2672 C2677 1.379 . S
C2672 N2679 1.356 . S
C2673 C2672 1.363 . S
C2673 C2676 1.363 . S
N2674 C2676 1.356 . S
N2674 H2686 0.984 . S
N2674 H2687 0.985 . S
N2675 C2677 1.356 . S
N2675 H2680 0.984 . S
N2675 H2681 0.985 . S
C2676 C2670 1.379 . S
C2676 C2673 1.363 . S
C2676 N2674 1.356 . S
C2677 C2671 1.363 . S
C2677 C2672 1.379 . S
C2677 N2675 1.356 . S
N2678 C2670 1.356 . S
N2678 H2684 0.984 . S
N2678 H2685 0.984 . S
N2679 C2672 1.356 . S
N2679 H2682 0.984 . S
N2679 H2683 0.985 . S
H2680 N2675 0.984 . S
H2681 N2675 0.985 . S
H2682 N2679 0.984 . S
H2683 N2679 0.985 . S
H2684 N2678 0.984 . S
H2685 N2678 0.984 . S
H2686 N2674 0.984 . S
H2687 N2674 0.985 . S
C2688 C2689 1.363 . S
C2688 C2694 1.379 . S
C2688 N2696 1.356 . S
C2689 C2688 1.363 . S
C2689 C2695 1.363 . S
C2690 C2691 1.363 . S
C2690 C2695 1.379 . S
C2690 N2697 1.356 . S
C2691 C2690 1.363 . S
C2691 C2694 1.363 . S
N2692 C2694 1.356 . S
N2692 H2704 0.984 . S
N2692 H2705 0.985 . S
N2693 C2695 1.356 . S
N2693 H2698 0.984 . S
N2693 H2699 0.985 . S
C2694 C2688 1.379 . S
C2694 C2691 1.363 . S
C2694 N2692 1.356 . S
C2695 C2689 1.363 . S
C2695 C2690 1.379 . S
C2695 N2693 1.356 . S
N2696 C2688 1.356 . S
N2696 H2702 0.984 . S
N2696 H2703 0.984 . S
N2697 C2690 1.356 . S
N2697 H2700 0.984 . S
N2697 H2701 0.985 . S
H2698 N2693 0.984 . S
H2699 N2693 0.985 . S
H2700 N2697 0.984 . S
H2701 N2697 0.985 . S
H2702 N2696 0.984 . S
H2703 N2696 0.984 . S
H2704 N2692 0.984 . S
H2705 N2692 0.985 . S
C2706 C2707 1.363 . S
C2706 C2712 1.379 . S
C2706 N2714 1.356 . S
C2707 C2706 1.363 . S
C2707 C2713 1.363 . S
C2708 C2709 1.363 . S
C2708 C2713 1.379 . S
C2708 N2715 1.356 . S
C2709 C2708 1.363 . S
C2709 C2712 1.363 . S
N2710 C2712 1.356 . S
N2710 H2722 0.984 . S
N2710 H2723 0.985 . S
N2711 C2713 1.356 . S
N2711 H2716 0.984 . S
N2711 H2717 0.985 . S
C2712 C2706 1.379 . S
C2712 C2709 1.363 . S
C2712 N2710 1.356 . S
C2713 C2707 1.363 . S
C2713 C2708 1.379 . S
C2713 N2711 1.356 . S
N2714 C2706 1.356 . S
N2714 H2720 0.984 . S
N2714 H2721 0.984 . S
N2715 C2708 1.356 . S
N2715 H2718 0.984 . S
N2715 H2719 0.985 . S
H2716 N2711 0.984 . S
H2717 N2711 0.985 . S
H2718 N2715 0.984 . S
H2719 N2715 0.985 . S
H2720 N2714 0.984 . S
H2721 N2714 0.984 . S
H2722 N2710 0.984 . S
H2723 N2710 0.985 . S
C2724 C2725 1.363 . S
C2724 C2730 1.379 . S
C2724 N2732 1.356 . S
C2725 C2724 1.363 . S
C2725 C2731 1.363 . S
C2726 C2727 1.363 . S
C2726 C2731 1.379 . S
C2726 N2733 1.356 . S
C2727 C2726 1.363 . S
C2727 C2730 1.363 . S
N2728 C2730 1.356 . S
N2728 H2740 0.984 . S
N2728 H2741 0.985 . S
N2729 C2731 1.356 . S
N2729 H2734 0.984 . S
N2729 H2735 0.985 . S
C2730 C2724 1.379 . S
C2730 C2727 1.363 . S
C2730 N2728 1.356 . S
C2731 C2725 1.363 . S
C2731 C2726 1.379 . S
C2731 N2729 1.356 . S
N2732 C2724 1.356 . S
N2732 H2738 0.984 . S
N2732 H2739 0.984 . S
N2733 C2726 1.356 . S
N2733 H2736 0.984 . S
N2733 H2737 0.985 . S
H2734 N2729 0.984 . S
H2735 N2729 0.985 . S
H2736 N2733 0.984 . S
H2737 N2733 0.985 . S
H2738 N2732 0.984 . S
H2739 N2732 0.984 . S
H2740 N2728 0.984 . S
H2741 N2728 0.985 . S
C2742 C2743 1.363 . S
C2742 C2748 1.379 . S
C2742 N2750 1.356 . S
C2743 C2742 1.363 . S
C2743 C2749 1.363 . S
C2744 C2745 1.363 . S
C2744 C2749 1.379 . S
C2744 N2751 1.356 . S
C2745 C2744 1.363 . S
C2745 C2748 1.363 . S
N2746 C2748 1.356 . S
N2746 H2758 0.984 . S
N2746 H2759 0.985 . S
N2747 C2749 1.356 . S
N2747 H2752 0.984 . S
N2747 H2753 0.985 . S
C2748 C2742 1.379 . S
C2748 C2745 1.363 . S
C2748 N2746 1.356 . S
C2749 C2743 1.363 . S
C2749 C2744 1.379 . S
C2749 N2747 1.356 . S
N2750 C2742 1.356 . S
N2750 H2756 0.984 . S
N2750 H2757 0.984 . S
N2751 C2744 1.356 . S
N2751 H2754 0.984 . S
N2751 H2755 0.985 . S
H2752 N2747 0.984 . S
H2753 N2747 0.985 . S
H2754 N2751 0.984 . S
H2755 N2751 0.985 . S
H2756 N2750 0.984 . S
H2757 N2750 0.984 . S
H2758 N2746 0.984 . S
H2759 N2746 0.985 . S
C2760 C2761 1.363 . S
C2760 C2766 1.379 . S
C2760 N2768 1.356 . S
C2761 C2760 1.363 . S
C2761 C2767 1.363 . S
C2762 C2763 1.363 . S
C2762 C2767 1.379 . S
C2762 N2769 1.356 . S
C2763 C2762 1.363 . S
C2763 C2766 1.363 . S
N2764 C2766 1.356 . S
N2764 H2776 0.984 . S
N2764 H2777 0.985 . S
N2765 C2767 1.356 . S
N2765 H2770 0.984 . S
N2765 H2771 0.985 . S
C2766 C2760 1.379 . S
C2766 C2763 1.363 . S
C2766 N2764 1.356 . S
C2767 C2761 1.363 . S
C2767 C2762 1.379 . S
C2767 N2765 1.356 . S
N2768 C2760 1.356 . S
N2768 H2774 0.984 . S
N2768 H2775 0.984 . S
N2769 C2762 1.356 . S
N2769 H2772 0.984 . S
N2769 H2773 0.985 . S
H2770 N2765 0.984 . S
H2771 N2765 0.985 . S
H2772 N2769 0.984 . S
H2773 N2769 0.985 . S
H2774 N2768 0.984 . S
H2775 N2768 0.984 . S
H2776 N2764 0.984 . S
H2777 N2764 0.985 . S
C2778 C2779 1.363 . S
C2778 C2784 1.379 . S
C2778 N2786 1.356 . S
C2779 C2778 1.363 . S
C2779 C2785 1.363 . S
C2780 C2781 1.363 . S
C2780 C2785 1.379 . S
C2780 N2787 1.356 . S
C2781 C2780 1.363 . S
C2781 C2784 1.363 . S
N2782 C2784 1.356 . S
N2782 H2794 0.984 . S
N2782 H2795 0.985 . S
N2783 C2785 1.356 . S
N2783 H2788 0.984 . S
N2783 H2789 0.985 . S
C2784 C2778 1.379 . S
C2784 C2781 1.363 . S
C2784 N2782 1.356 . S
C2785 C2779 1.363 . S
C2785 C2780 1.379 . S
C2785 N2783 1.356 . S
N2786 C2778 1.356 . S
N2786 H2792 0.984 . S
N2786 H2793 0.984 . S
N2787 C2780 1.356 . S
N2787 H2790 0.984 . S
N2787 H2791 0.985 . S
H2788 N2783 0.984 . S
H2789 N2783 0.985 . S
H2790 N2787 0.984 . S
H2791 N2787 0.985 . S
H2792 N2786 0.984 . S
H2793 N2786 0.984 . S
H2794 N2782 0.984 . S
H2795 N2782 0.985 . S
C2796 C2797 1.363 . S
C2796 C2802 1.379 . S
C2796 N2804 1.356 . S
C2797 C2796 1.363 . S
C2797 C2803 1.363 . S
C2798 C2799 1.363 . S
C2798 C2803 1.379 . S
C2798 N2805 1.356 . S
C2799 C2798 1.363 . S
C2799 C2802 1.363 . S
N2800 C2802 1.356 . S
N2800 H2812 0.984 . S
N2800 H2813 0.985 . S
N2801 C2803 1.356 . S
N2801 H2806 0.984 . S
N2801 H2807 0.985 . S
C2802 C2796 1.379 . S
C2802 C2799 1.363 . S
C2802 N2800 1.356 . S
C2803 C2797 1.363 . S
C2803 C2798 1.379 . S
C2803 N2801 1.356 . S
N2804 C2796 1.356 . S
N2804 H2810 0.984 . S
N2804 H2811 0.984 . S
N2805 C2798 1.356 . S
N2805 H2808 0.984 . S
N2805 H2809 0.985 . S
H2806 N2801 0.984 . S
H2807 N2801 0.985 . S
H2808 N2805 0.984 . S
H2809 N2805 0.985 . S
H2810 N2804 0.984 . S
H2811 N2804 0.984 . S
H2812 N2800 0.984 . S
H2813 N2800 0.985 . S
C2814 C2815 1.363 . S
C2814 C2820 1.379 . S
C2814 N2822 1.356 . S
C2815 C2814 1.363 . S
C2815 C2821 1.363 . S
C2816 C2817 1.363 . S
C2816 C2821 1.379 . S
C2816 N2823 1.356 . S
C2817 C2816 1.363 . S
C2817 C2820 1.363 . S
N2818 C2820 1.356 . S
N2818 H2830 0.984 . S
N2818 H2831 0.985 . S
N2819 C2821 1.356 . S
N2819 H2824 0.984 . S
N2819 H2825 0.985 . S
C2820 C2814 1.379 . S
C2820 C2817 1.363 . S
C2820 N2818 1.356 . S
C2821 C2815 1.363 . S
C2821 C2816 1.379 . S
C2821 N2819 1.356 . S
N2822 C2814 1.356 . S
N2822 H2828 0.984 . S
N2822 H2829 0.984 . S
N2823 C2816 1.356 . S
N2823 H2826 0.984 . S
N2823 H2827 0.985 . S
H2824 N2819 0.984 . S
H2825 N2819 0.985 . S
H2826 N2823 0.984 . S
H2827 N2823 0.985 . S
H2828 N2822 0.984 . S
H2829 N2822 0.984 . S
H2830 N2818 0.984 . S
H2831 N2818 0.985 . S
C1105 N81 1.474 . S
C1107 N2 1.480 . S
C1123 C7 1.523 . S
C1125 C30 1.524 . S
C1141 N48 1.467 . S
C1143 N35 1.465 . S
C1159 C53 1.527 . S
C1161 C76 1.528 . S
C1177 N104 1.434 . S
C1179 N127 1.430 . S
C1195 C145 1.482 . S
C1197 C131 1.473 . S
C1213 N150 1.453 . S
C1215 N163 1.448 . S
C1231 C99 1.501 . S
C1233 C168 1.499 . S
C1249 C191 1.566 . S
C1251 C430 1.554 . S
C1267 N439 1.424 . S
C1269 N219 1.425 . S
C1285 C476 1.532 . S
C1287 C237 1.550 . S
C1303 N403 1.407 . S
C1305 N255 1.409 . S
C1321 C513 1.596 . S
C1323 C292 1.577 . S
C1339 N311 1.428 . S
C1341 N370 1.437 . S
C1357 C536 1.570 . S
C1359 C338 1.552 . S
C1375 N347 1.421 . S
C1377 N485 1.431 . S
C1393 C375 1.493 . S
C1395 C214 1.494 . S
C1411 C398 1.496 . S
C1413 C352 1.495 . S
C1429 N288 1.489 . S
C1431 N416 1.479 . S
C1447 C306 1.496 . S
C1449 C444 1.495 . S
C1465 N324 1.486 . S
C1467 N472 1.492 . S
C1483 C260 1.480 . S
C1485 C499 1.476 . S
C1501 N186 1.475 . S
C1503 N518 1.477 . S
C1519 N531 1.471 . S
C1521 N242 1.475 . S
C1537 N623 1.471 . S
C1539 N564 1.469 . S
C1555 C568 1.505 . S
C1557 C582 1.510 . S
C1573 N600 1.470 . S
C1575 N587 1.469 . S
C1591 C605 1.516 . S
C1593 C637 1.510 . S
C1609 N669 1.456 . S
C1611 N646 1.444 . S
C1627 C674 1.509 . S
C1629 C706 1.504 . S
C1645 N715 1.439 . S
C1647 N692 1.436 . S
C1663 C660 1.477 . S
C1665 C720 1.486 . S
C1681 C982 1.533 . S
C1683 C743 1.540 . S
C1699 N771 1.400 . S
C1701 N1001 1.412 . S
C1717 C1028 1.538 . S
C1719 C789 1.550 . S
C1735 N807 1.438 . S
C1737 N955 1.433 . S
C1753 C844 1.548 . S
C1755 C1065 1.561 . S
C1771 N922 1.465 . S
C1773 N853 1.438 . S
C1789 C1088 1.567 . S
C1791 C890 1.553 . S
C1807 N1037 1.432 . S
C1809 N909 1.433 . S
C1825 C766 1.522 . S
C1827 C927 1.521 . S
C1843 C913 1.480 . S
C1845 C950 1.487 . S
C1861 N968 1.467 . S
C1863 N840 1.475 . S
C1879 C1005 1.448 . S
C1881 C867 1.452 . S
C1897 N876 1.482 . S
C1899 N1024 1.486 . S
C1915 C1051 1.495 . S
C1917 C812 1.503 . S
C1933 N1070 1.474 . S
C1935 N738 1.478 . S
C1951 N1083 1.479 . S
C1953 N794 1.482 . S
C1969 N12 1.501 . S
C1971 N1014 1.519 . S
C1987 C39 1.531 . S
C1989 C959 1.529 . S
C2005 N58 1.483 . S
C2007 N978 1.503 . S
C2023 C85 1.556 . S
C2025 C996 1.552 . S
C2041 N94 1.461 . S
C2043 N1093 1.447 . S
C2059 C122 1.525 . S
C2061 C1042 1.522 . S
C2077 N140 1.456 . S
C2079 N1060 1.472 . S
C2095 C936 1.486 . S
C2097 C177 1.476 . S
C2113 C200 1.519 . S
C2115 N899 1.477 . S
C2131 C835 1.539 . S
C2133 N209 1.525 . S
C2149 C246 1.499 . S
C2151 N863 1.451 . S
C2167 N265 1.487 . S
C2169 C881 1.520 . S
C2185 C283 1.541 . S
C2187 N761 1.523 . S
C2203 N301 1.477 . S
C2205 C798 1.509 . S
C2221 N817 1.473 . S
C2223 C329 1.514 . S
C2239 N357 1.457 . S
C2241 C752 1.505 . S
C2257 C384 1.490 . S
C2259 C729 1.485 . S
C2275 C407 1.513 . S
C2277 C591 1.516 . S
C2293 N426 1.495 . S
C2295 N610 1.469 . S
C2311 C453 1.534 . S
C2313 C628 1.529 . S
C2329 N554 1.552 . S
C2331 N462 1.538 . S
C2347 C490 1.512 . S
C2349 C683 1.513 . S
C2365 N702 1.467 . S
C2367 N508 1.479 . S
C2383 N656 1.469 . S
C2385 N541 1.449 . S
C2401 N748 1.459 . S
C2403 N173 1.476 . S
C2419 C108 1.492 . S
C2421 C775 1.491 . S
C2437 N784 1.504 . S
C2439 N117 1.487 . S
C2455 C821 1.515 . S
C2457 C154 1.501 . S
C2473 N830 1.518 . S
C2475 N25 1.550 . S
C2491 C62 1.534 . S
C2493 C858 1.526 . S
C2509 N886 1.545 . S
C2511 N71 1.569 . S
C2527 C904 1.549 . S
C2529 C16 1.555 . S
C2545 N932 1.480 . S
C2547 C467 1.526 . S
C2563 N393 1.468 . S
C2565 C1097 1.505 . S
C2581 C421 1.537 . S
C2583 N1047 1.493 . S
C2599 C1074 1.515 . S
C2601 N449 1.458 . S
C2617 N945 1.474 . S
C2619 C545 1.516 . S
C2635 C973 1.518 . S
C2637 N495 1.483 . S
C2653 C522 1.544 . S
C2655 N991 1.506 . S
C2671 C1019 1.533 . S
C2673 N380 1.489 . S
C2689 C559 1.555 . S
C2691 C361 1.562 . S
C2707 C651 1.522 . S
C2709 C223 1.519 . S
C2725 N679 1.466 . S
C2727 N232 1.503 . S
C2743 C269 1.517 . S
C2745 C697 1.511 . S
C2761 N196 1.454 . S
C2763 N725 1.471 . S
C2779 C614 1.527 . S
C2781 C315 1.518 . S
C2797 N334 1.530 . S
C2799 N633 1.512 . S
C2815 N577 1.560 . S
C2817 N278 1.538 . S
