# Generated by pormake.
# Topology ana, (4)-cn, num edge types: 1
# Building blocks:
#     Node 0, Type 0, BuildingBlock: QUQFOY_clean_sbu_3, # of connection points: 4
#     Node 1, Type 0, BuildingBlock: QUQFOY_clean_sbu_3, # of connection points: 4
#     Node 2, Type 0, BuildingBlock: QUQFOY_clean_sbu_3, # of connection points: 4
#     Node 3, Type 0, BuildingBlock: QUQFOY_clean_sbu_3, # of connection points: 4
#     Node 4, Type 0, BuildingBlock: QUQFOY_clean_sbu_3, # of connection points: 4
#     Node 5, Type 0, BuildingBlock: QUQFOY_clean_sbu_3, # of connection points: 4
#     Node 6, Type 0, BuildingBlock: QUQFOY_clean_sbu_3, # of connection points: 4
#     Node 7, Type 0, BuildingBlock: QUQFOY_clean_sbu_3, # of connection points: 4
#     Node 8, Type 0, BuildingBlock: QUQFOY_clean_sbu_3, # of connection points: 4
#     Node 9, Type 0, BuildingBlock: QUQFOY_clean_sbu_3, # of connection points: 4
#     Node 10, Type 0, BuildingBlock: QUQFOY_clean_sbu_3, # of connection points: 4
#     Node 11, Type 0, BuildingBlock: QUQFOY_clean_sbu_3, # of connection points: 4
#     Node 12, Type 0, BuildingBlock: QUQFOY_clean_sbu_3, # of connection points: 4
#     Node 13, Type 0, BuildingBlock: QUQFOY_clean_sbu_3, # of connection points: 4
#     Node 14, Type 0, BuildingBlock: QUQFOY_clean_sbu_3, # of connection points: 4
#     Node 15, Type 0, BuildingBlock: QUQFOY_clean_sbu_3, # of connection points: 4
#     Node 16, Type 0, BuildingBlock: QUQFOY_clean_sbu_3, # of connection points: 4
#     Node 17, Type 0, BuildingBlock: QUQFOY_clean_sbu_3, # of connection points: 4
#     Node 18, Type 0, BuildingBlock: QUQFOY_clean_sbu_3, # of connection points: 4
#     Node 19, Type 0, BuildingBlock: QUQFOY_clean_sbu_3, # of connection points: 4
#     Node 20, Type 0, BuildingBlock: QUQFOY_clean_sbu_3, # of connection points: 4
#     Node 21, Type 0, BuildingBlock: QUQFOY_clean_sbu_3, # of connection points: 4
#     Node 22, Type 0, BuildingBlock: QUQFOY_clean_sbu_3, # of connection points: 4
#     Node 23, Type 0, BuildingBlock: QUQFOY_clean_sbu_3, # of connection points: 4
#     Node 24, Type 0, BuildingBlock: QUQFOY_clean_sbu_3, # of connection points: 4
#     Node 25, Type 0, BuildingBlock: QUQFOY_clean_sbu_3, # of connection points: 4
#     Node 26, Type 0, BuildingBlock: QUQFOY_clean_sbu_3, # of connection points: 4
#     Node 27, Type 0, BuildingBlock: QUQFOY_clean_sbu_3, # of connection points: 4
#     Node 28, Type 0, BuildingBlock: QUQFOY_clean_sbu_3, # of connection points: 4
#     Node 29, Type 0, BuildingBlock: QUQFOY_clean_sbu_3, # of connection points: 4
#     Node 30, Type 0, BuildingBlock: QUQFOY_clean_sbu_3, # of connection points: 4
#     Node 31, Type 0, BuildingBlock: QUQFOY_clean_sbu_3, # of connection points: 4
#     Node 32, Type 0, BuildingBlock: QUQFOY_clean_sbu_3, # of connection points: 4
#     Node 33, Type 0, BuildingBlock: QUQFOY_clean_sbu_3, # of connection points: 4
#     Node 34, Type 0, BuildingBlock: QUQFOY_clean_sbu_3, # of connection points: 4
#     Node 35, Type 0, BuildingBlock: QUQFOY_clean_sbu_3, # of connection points: 4
#     Node 36, Type 0, BuildingBlock: QUQFOY_clean_sbu_3, # of connection points: 4
#     Node 37, Type 0, BuildingBlock: QUQFOY_clean_sbu_3, # of connection points: 4
#     Node 38, Type 0, BuildingBlock: QUQFOY_clean_sbu_3, # of connection points: 4
#     Node 39, Type 0, BuildingBlock: QUQFOY_clean_sbu_3, # of connection points: 4
#     Node 40, Type 0, BuildingBlock: QUQFOY_clean_sbu_3, # of connection points: 4
#     Node 41, Type 0, BuildingBlock: QUQFOY_clean_sbu_3, # of connection points: 4
#     Node 42, Type 0, BuildingBlock: QUQFOY_clean_sbu_3, # of connection points: 4
#     Node 43, Type 0, BuildingBlock: QUQFOY_clean_sbu_3, # of connection points: 4
#     Node 44, Type 0, BuildingBlock: QUQFOY_clean_sbu_3, # of connection points: 4
#     Node 45, Type 0, BuildingBlock: QUQFOY_clean_sbu_3, # of connection points: 4
#     Node 46, Type 0, BuildingBlock: QUQFOY_clean_sbu_3, # of connection points: 4
#     Node 47, Type 0, BuildingBlock: QUQFOY_clean_sbu_3, # of connection points: 4
#     Edge 48, Type (0, 0), BuildingBlock: XIVTED_clean_linker_0, # of connection points: 2
#     Edge 49, Type (0, 0), BuildingBlock: XIVTED_clean_linker_0, # of connection points: 2
#     Edge 50, Type (0, 0), BuildingBlock: XIVTED_clean_linker_0, # of connection points: 2
#     Edge 51, Type (0, 0), BuildingBlock: XIVTED_clean_linker_0, # of connection points: 2
#     Edge 52, Type (0, 0), BuildingBlock: XIVTED_clean_linker_0, # of connection points: 2
#     Edge 53, Type (0, 0), BuildingBlock: XIVTED_clean_linker_0, # of connection points: 2
#     Edge 54, Type (0, 0), BuildingBlock: XIVTED_clean_linker_0, # of connection points: 2
#     Edge 55, Type (0, 0), BuildingBlock: XIVTED_clean_linker_0, # of connection points: 2
#     Edge 56, Type (0, 0), BuildingBlock: XIVTED_clean_linker_0, # of connection points: 2
#     Edge 57, Type (0, 0), BuildingBlock: XIVTED_clean_linker_0, # of connection points: 2
#     Edge 58, Type (0, 0), BuildingBlock: XIVTED_clean_linker_0, # of connection points: 2
#     Edge 59, Type (0, 0), BuildingBlock: XIVTED_clean_linker_0, # of connection points: 2
#     Edge 60, Type (0, 0), BuildingBlock: XIVTED_clean_linker_0, # of connection points: 2
#     Edge 61, Type (0, 0), BuildingBlock: XIVTED_clean_linker_0, # of connection points: 2
#     Edge 62, Type (0, 0), BuildingBlock: XIVTED_clean_linker_0, # of connection points: 2
#     Edge 63, Type (0, 0), BuildingBlock: XIVTED_clean_linker_0, # of connection points: 2
#     Edge 64, Type (0, 0), BuildingBlock: XIVTED_clean_linker_0, # of connection points: 2
#     Edge 65, Type (0, 0), BuildingBlock: XIVTED_clean_linker_0, # of connection points: 2
#     Edge 66, Type (0, 0), BuildingBlock: XIVTED_clean_linker_0, # of connection points: 2
#     Edge 67, Type (0, 0), BuildingBlock: XIVTED_clean_linker_0, # of connection points: 2
#     Edge 68, Type (0, 0), BuildingBlock: XIVTED_clean_linker_0, # of connection points: 2
#     Edge 69, Type (0, 0), BuildingBlock: XIVTED_clean_linker_0, # of connection points: 2
#     Edge 70, Type (0, 0), BuildingBlock: XIVTED_clean_linker_0, # of connection points: 2
#     Edge 71, Type (0, 0), BuildingBlock: XIVTED_clean_linker_0, # of connection points: 2
#     Edge 72, Type (0, 0), BuildingBlock: XIVTED_clean_linker_0, # of connection points: 2
#     Edge 73, Type (0, 0), BuildingBlock: XIVTED_clean_linker_0, # of connection points: 2
#     Edge 74, Type (0, 0), BuildingBlock: XIVTED_clean_linker_0, # of connection points: 2
#     Edge 75, Type (0, 0), BuildingBlock: XIVTED_clean_linker_0, # of connection points: 2
#     Edge 76, Type (0, 0), BuildingBlock: XIVTED_clean_linker_0, # of connection points: 2
#     Edge 77, Type (0, 0), BuildingBlock: XIVTED_clean_linker_0, # of connection points: 2
#     Edge 78, Type (0, 0), BuildingBlock: XIVTED_clean_linker_0, # of connection points: 2
#     Edge 79, Type (0, 0), BuildingBlock: XIVTED_clean_linker_0, # of connection points: 2
#     Edge 80, Type (0, 0), BuildingBlock: XIVTED_clean_linker_0, # of connection points: 2
#     Edge 81, Type (0, 0), BuildingBlock: XIVTED_clean_linker_0, # of connection points: 2
#     Edge 82, Type (0, 0), BuildingBlock: XIVTED_clean_linker_0, # of connection points: 2
#     Edge 83, Type (0, 0), BuildingBlock: XIVTED_clean_linker_0, # of connection points: 2
#     Edge 84, Type (0, 0), BuildingBlock: XIVTED_clean_linker_0, # of connection points: 2
#     Edge 85, Type (0, 0), BuildingBlock: XIVTED_clean_linker_0, # of connection points: 2
#     Edge 86, Type (0, 0), BuildingBlock: XIVTED_clean_linker_0, # of connection points: 2
#     Edge 87, Type (0, 0), BuildingBlock: XIVTED_clean_linker_0, # of connection points: 2
#     Edge 88, Type (0, 0), BuildingBlock: XIVTED_clean_linker_0, # of connection points: 2
#     Edge 89, Type (0, 0), BuildingBlock: XIVTED_clean_linker_0, # of connection points: 2
#     Edge 90, Type (0, 0), BuildingBlock: XIVTED_clean_linker_0, # of connection points: 2
#     Edge 91, Type (0, 0), BuildingBlock: XIVTED_clean_linker_0, # of connection points: 2
#     Edge 92, Type (0, 0), BuildingBlock: XIVTED_clean_linker_0, # of connection points: 2
#     Edge 93, Type (0, 0), BuildingBlock: XIVTED_clean_linker_0, # of connection points: 2
#     Edge 94, Type (0, 0), BuildingBlock: XIVTED_clean_linker_0, # of connection points: 2
#     Edge 95, Type (0, 0), BuildingBlock: XIVTED_clean_linker_0, # of connection points: 2
#     Edge 96, Type (0, 0), BuildingBlock: XIVTED_clean_linker_0, # of connection points: 2
#     Edge 97, Type (0, 0), BuildingBlock: XIVTED_clean_linker_0, # of connection points: 2
#     Edge 98, Type (0, 0), BuildingBlock: XIVTED_clean_linker_0, # of connection points: 2
#     Edge 99, Type (0, 0), BuildingBlock: XIVTED_clean_linker_0, # of connection points: 2
#     Edge 100, Type (0, 0), BuildingBlock: XIVTED_clean_linker_0, # of connection points: 2
#     Edge 101, Type (0, 0), BuildingBlock: XIVTED_clean_linker_0, # of connection points: 2
#     Edge 102, Type (0, 0), BuildingBlock: XIVTED_clean_linker_0, # of connection points: 2
#     Edge 103, Type (0, 0), BuildingBlock: XIVTED_clean_linker_0, # of connection points: 2
#     Edge 104, Type (0, 0), BuildingBlock: XIVTED_clean_linker_0, # of connection points: 2
#     Edge 105, Type (0, 0), BuildingBlock: XIVTED_clean_linker_0, # of connection points: 2
#     Edge 106, Type (0, 0), BuildingBlock: XIVTED_clean_linker_0, # of connection points: 2
#     Edge 107, Type (0, 0), BuildingBlock: XIVTED_clean_linker_0, # of connection points: 2
#     Edge 108, Type (0, 0), BuildingBlock: XIVTED_clean_linker_0, # of connection points: 2
#     Edge 109, Type (0, 0), BuildingBlock: XIVTED_clean_linker_0, # of connection points: 2
#     Edge 110, Type (0, 0), BuildingBlock: XIVTED_clean_linker_0, # of connection points: 2
#     Edge 111, Type (0, 0), BuildingBlock: XIVTED_clean_linker_0, # of connection points: 2
#     Edge 112, Type (0, 0), BuildingBlock: XIVTED_clean_linker_0, # of connection points: 2
#     Edge 113, Type (0, 0), BuildingBlock: XIVTED_clean_linker_0, # of connection points: 2
#     Edge 114, Type (0, 0), BuildingBlock: XIVTED_clean_linker_0, # of connection points: 2
#     Edge 115, Type (0, 0), BuildingBlock: XIVTED_clean_linker_0, # of connection points: 2
#     Edge 116, Type (0, 0), BuildingBlock: XIVTED_clean_linker_0, # of connection points: 2
#     Edge 117, Type (0, 0), BuildingBlock: XIVTED_clean_linker_0, # of connection points: 2
#     Edge 118, Type (0, 0), BuildingBlock: XIVTED_clean_linker_0, # of connection points: 2
#     Edge 119, Type (0, 0), BuildingBlock: XIVTED_clean_linker_0, # of connection points: 2
#     Edge 120, Type (0, 0), BuildingBlock: XIVTED_clean_linker_0, # of connection points: 2
#     Edge 121, Type (0, 0), BuildingBlock: XIVTED_clean_linker_0, # of connection points: 2
#     Edge 122, Type (0, 0), BuildingBlock: XIVTED_clean_linker_0, # of connection points: 2
#     Edge 123, Type (0, 0), BuildingBlock: XIVTED_clean_linker_0, # of connection points: 2
#     Edge 124, Type (0, 0), BuildingBlock: XIVTED_clean_linker_0, # of connection points: 2
#     Edge 125, Type (0, 0), BuildingBlock: XIVTED_clean_linker_0, # of connection points: 2
#     Edge 126, Type (0, 0), BuildingBlock: XIVTED_clean_linker_0, # of connection points: 2
#     Edge 127, Type (0, 0), BuildingBlock: XIVTED_clean_linker_0, # of connection points: 2
#     Edge 128, Type (0, 0), BuildingBlock: XIVTED_clean_linker_0, # of connection points: 2
#     Edge 129, Type (0, 0), BuildingBlock: XIVTED_clean_linker_0, # of connection points: 2
#     Edge 130, Type (0, 0), BuildingBlock: XIVTED_clean_linker_0, # of connection points: 2
#     Edge 131, Type (0, 0), BuildingBlock: XIVTED_clean_linker_0, # of connection points: 2
#     Edge 132, Type (0, 0), BuildingBlock: XIVTED_clean_linker_0, # of connection points: 2
#     Edge 133, Type (0, 0), BuildingBlock: XIVTED_clean_linker_0, # of connection points: 2
#     Edge 134, Type (0, 0), BuildingBlock: XIVTED_clean_linker_0, # of connection points: 2
#     Edge 135, Type (0, 0), BuildingBlock: XIVTED_clean_linker_0, # of connection points: 2
#     Edge 136, Type (0, 0), BuildingBlock: XIVTED_clean_linker_0, # of connection points: 2
#     Edge 137, Type (0, 0), BuildingBlock: XIVTED_clean_linker_0, # of connection points: 2
#     Edge 138, Type (0, 0), BuildingBlock: XIVTED_clean_linker_0, # of connection points: 2
#     Edge 139, Type (0, 0), BuildingBlock: XIVTED_clean_linker_0, # of connection points: 2
#     Edge 140, Type (0, 0), BuildingBlock: XIVTED_clean_linker_0, # of connection points: 2
#     Edge 141, Type (0, 0), BuildingBlock: XIVTED_clean_linker_0, # of connection points: 2
#     Edge 142, Type (0, 0), BuildingBlock: XIVTED_clean_linker_0, # of connection points: 2
#     Edge 143, Type (0, 0), BuildingBlock: XIVTED_clean_linker_0, # of connection points: 2
# Relax obj value: 0.102
# Max RMSD: 0.128
# Mean RMSD: 0.114
data_MOF--net-ana--node1-QUQFOY_clean_sbu_3--edge1-XIVTED_clean_linker_0
_symmetry_space_group_name_H-M    P1
_symmetry_Int_Tables_number       1
_symmetry_cell_setting            triclinic
loop_
_symmetry_equiv_pos_as_xyz
'x, y, z'
_cell_length_a     65.407595
_cell_length_b     66.497049
_cell_length_c     66.393879
_cell_angle_alpha  90.28864
_cell_angle_beta   90.281481
_cell_angle_gamma 90.930277
loop_
_atom_site_label
_atom_site_type_symbol
_atom_site_fract_x
_atom_site_fract_y
_atom_site_fract_z
_atom_type_partial_charge
C0 C 0.13942 0.13166 0.36521 0.0
O1 O 0.12348 0.12051 0.36602 0.0
Cd2 Cd 0.09038 0.13196 0.37712 0.0
O3 O 0.13911 0.14984 0.37129 0.0
Cd4 Cd 0.11555 0.17357 0.38664 0.0
C5 C 0.10131 0.14376 0.42594 0.0
O6 O 0.08642 0.1657 0.3649 0.0
O7 O 0.08143 0.18687 0.38899 0.0
O8 O 0.13362 0.20263 0.37264 0.0
C9 C 0.07417 0.17706 0.37415 0.0
O10 O 0.09098 0.13246 0.414 0.0
C11 C 0.13656 0.21106 0.38968 0.0
O12 O 0.11234 0.15815 0.41929 0.0
O13 O 0.13024 0.20168 0.40508 0.0
C14 C 0.08369 0.89158 0.6873 0.0
O15 O 0.06558 0.89721 0.68363 0.0
Cd16 Cd 0.04496 0.88543 0.65592 0.0
O17 O 0.09299 0.8799 0.67528 0.0
Cd18 Cd 0.08605 0.8643 0.64209 0.0
C19 C 0.07224 0.90768 0.61892 0.0
O20 O 0.05363 0.85067 0.65339 0.0
O21 O 0.06076 0.84437 0.62243 0.0
O22 O 0.11179 0.8395 0.65042 0.0
C23 C 0.04886 0.84167 0.63721 0.0
O24 O 0.05498 0.90644 0.62762 0.0
C25 C 0.12028 0.84011 0.63325 0.0
O26 O 0.08618 0.89517 0.62281 0.0
O27 O 0.11327 0.85255 0.62065 0.0
C28 C 0.3354 0.86409 0.87289 0.0
O29 O 0.35028 0.87661 0.87266 0.0
Cd30 Cd 0.38523 0.86677 0.88001 0.0
O31 O 0.33819 0.84586 0.87766 0.0
Cd32 Cd 0.36453 0.82294 0.88841 0.0
C33 C 0.3808 0.85118 0.92853 0.0
O34 O 0.39113 0.83408 0.86522 0.0
O35 O 0.39923 0.81158 0.88709 0.0
O36 O 0.34662 0.79471 0.8723 0.0
C37 C 0.40472 0.82288 0.87274 0.0
O38 O 0.38855 0.86414 0.91661 0.0
C39 C 0.34428 0.78494 0.88856 0.0
O40 O 0.37043 0.83621 0.92186 0.0
O41 O 0.35135 0.79297 0.90457 0.0
C42 C 0.40708 0.11265 0.20839 0.0
O43 O 0.42538 0.10781 0.20457 0.0
Cd44 Cd 0.44244 0.11095 0.17311 0.0
O45 O 0.39549 0.11966 0.19466 0.0
Cd46 Cd 0.39843 0.12809 0.15828 0.0
C47 C 0.41116 0.08066 0.14421 0.0
O48 O 0.43154 0.14348 0.16348 0.0
O49 O 0.42168 0.14306 0.13265 0.0
O50 O 0.37307 0.154 0.16384 0.0
C51 C 0.43511 0.14836 0.1455 0.0
O52 O 0.42886 0.0837 0.15182 0.0
C53 C 0.36349 0.15063 0.14744 0.0
O54 O 0.3974 0.09387 0.14565 0.0
O55 O 0.36964 0.13617 0.13664 0.0
C56 C 0.09514 0.88203 0.11865 0.0
O57 O 0.1094 0.87927 0.13133 0.0
Cd58 Cd 0.13887 0.86001 0.123 0.0
O59 O 0.09645 0.87511 0.10079 0.0
Cd60 Cd 0.12037 0.85625 0.07964 0.0
C61 C 0.11523 0.8157 0.10932 0.0
O62 O 0.15204 0.87216 0.09132 0.0
O63 O 0.15499 0.845 0.07368 0.0
O64 O 0.11136 0.87661 0.05071 0.0
C65 C 0.16355 0.86008 0.08208 0.0
O66 O 0.12625 0.825 0.12234 0.0
C67 C 0.10747 0.86171 0.03919 0.0
O68 O 0.11018 0.8241 0.09295 0.0
O69 O 0.10914 0.84431 0.04671 0.0
C70 C 0.44861 0.85659 0.33056 0.0
O71 O 0.44512 0.84505 0.31556 0.0
Cd72 Cd 0.41266 0.83715 0.30116 0.0
O73 O 0.43404 0.86487 0.3401 0.0
Cd74 Cd 0.39602 0.86703 0.33846 0.0
C75 C 0.38839 0.8167 0.34275 0.0
O76 O 0.39958 0.86976 0.30335 0.0
O77 O 0.36831 0.87179 0.31244 0.0
O78 O 0.40386 0.89948 0.35357 0.0
C79 C 0.38121 0.87189 0.29827 0.0
O80 O 0.39529 0.81495 0.32493 0.0
C81 C 0.38716 0.90079 0.36309 0.0
O82 O 0.38815 0.83368 0.3517 0.0
O83 O 0.37474 0.88596 0.36175 0.0
C84 C 0.39515 0.10344 0.64207 0.0
O85 O 0.38394 0.10732 0.65707 0.0
Cd86 Cd 0.35422 0.12753 0.65296 0.0
O87 O 0.38985 0.10897 0.62451 0.0
Cd88 Cd 0.36108 0.12649 0.60882 0.0
C89 C 0.37552 0.1692 0.63147 0.0
O90 O 0.33118 0.11421 0.62728 0.0
O91 O 0.3282 0.14243 0.61155 0.0
O92 O 0.35771 0.10353 0.58023 0.0
C93 C 0.31961 0.1276 0.62016 0.0
O94 O 0.36742 0.16188 0.64728 0.0
C95 C 0.36069 0.11705 0.56707 0.0
O96 O 0.37622 0.15892 0.61536 0.0
O97 O 0.36468 0.13469 0.57345 0.0
C98 C 0.03367 0.13875 0.82998 0.0
O99 O 0.03553 0.14658 0.81264 0.0
Cd100 Cd 0.06632 0.14876 0.79378 0.0
O101 O 0.04902 0.13143 0.83917 0.0
Cd102 Cd 0.08603 0.12598 0.83373 0.0
C103 C 0.0959 0.17582 0.82776 0.0
O104 O 0.07817 0.11596 0.80025 0.0
O105 O 0.11024 0.11501 0.8068 0.0
O106 O 0.07992 0.09763 0.85584 0.0
C107 C 0.09588 0.11208 0.79419 0.0
O108 O 0.08705 0.17483 0.81064 0.0
C109 C 0.09738 0.09849 0.86426 0.0
O110 O 0.0966 0.16059 0.83923 0.0
O111 O 0.10946 0.11255 0.8588 0.0
C112 C 0.21517 0.4247 0.10942 0.0
O113 O 0.21234 0.44041 0.09904 0.0
Cd114 Cd 0.17995 0.45687 0.09731 0.0
O115 O 0.20074 0.41704 0.11983 0.0
Cd116 Cd 0.16493 0.42306 0.12888 0.0
C117 C 0.14849 0.4179 0.08109 0.0
O118 O 0.16929 0.45915 0.13145 0.0
O119 O 0.13823 0.44834 0.13384 0.0
O120 O 0.17433 0.41083 0.16196 0.0
C121 C 0.15066 0.46316 0.13406 0.0
O122 O 0.15646 0.43519 0.07787 0.0
C123 C 0.15909 0.3989 0.16357 0.0
O124 O 0.15069 0.40922 0.09796 0.0
O125 O 0.14655 0.39816 0.14892 0.0
C126 C 0.68426 0.08643 0.89213 0.0
O127 O 0.67816 0.06867 0.89613 0.0
Cd128 Cd 0.64601 0.05482 0.88612 0.0
O129 O 0.67339 0.09812 0.88147 0.0
Cd130 Cd 0.64018 0.09667 0.86304 0.0
C131 C 0.61587 0.09105 0.90728 0.0
O132 O 0.64508 0.06331 0.85135 0.0
O133 O 0.61435 0.07331 0.84727 0.0
O134 O 0.65565 0.11626 0.83614 0.0
C135 C 0.62752 0.05989 0.8441 0.0
O136 O 0.6217 0.07287 0.90725 0.0
C137 C 0.64048 0.12772 0.8339 0.0
O138 O 0.62127 0.10304 0.89336 0.0
O139 O 0.62566 0.12535 0.84598 0.0
C140 C 0.81724 0.89809 0.39414 0.0
O141 O 0.82328 0.91453 0.40215 0.0
Cd142 Cd 0.8566 0.92828 0.39898 0.0
O143 O 0.82928 0.88745 0.38355 0.0
Cd144 Cd 0.86533 0.88919 0.37124 0.0
C145 C 0.88279 0.88854 0.41907 0.0
O146 O 0.86023 0.92319 0.36381 0.0
O147 O 0.89166 0.91541 0.36072 0.0
O148 O 0.85148 0.8716 0.34196 0.0
C149 C 0.87791 0.92843 0.35841 0.0
O150 O 0.8774 0.90682 0.42042 0.0
C151 C 0.86749 0.86168 0.33842 0.0
O152 O 0.87928 0.87834 0.40315 0.0
O153 O 0.8823 0.86398 0.3507 0.0
C154 C 0.82152 0.02393 0.13796 0.0
O155 O 0.80466 0.02704 0.14676 0.0
Cd156 Cd 0.7853 0.0572 0.14506 0.0
O157 O 0.83071 0.03781 0.12819 0.0
Cd158 Cd 0.82549 0.07408 0.12196 0.0
C159 C 0.81874 0.08732 0.17099 0.0
O160 O 0.79027 0.0687 0.11151 0.0
O161 O 0.80041 0.09957 0.1124 0.0
O162 O 0.8467 0.07035 0.09209 0.0
C163 C 0.7862 0.08695 0.10855 0.0
O164 O 0.80081 0.07966 0.16987 0.0
C165 C 0.8566 0.08675 0.09479 0.0
O166 O 0.83117 0.0858 0.1564 0.0
O167 O 0.8525 0.09682 0.11049 0.0
C168 C 0.31621 0.51342 0.62697 0.0
O169 O 0.29815 0.51579 0.63345 0.0
Cd170 Cd 0.28061 0.54715 0.63498 0.0
O171 O 0.32688 0.52834 0.62075 0.0
Cd172 Cd 0.32345 0.56502 0.61621 0.0
C173 C 0.31314 0.57421 0.66561 0.0
O174 O 0.28912 0.56144 0.60313 0.0
O175 O 0.30027 0.5919 0.60537 0.0
O176 O 0.348 0.56247 0.58883 0.0
C177 C 0.28581 0.57991 0.60057 0.0
O178 O 0.29545 0.56619 0.66338 0.0
C179 C 0.3583 0.57801 0.59412 0.0
O180 O 0.32589 0.57443 0.65123 0.0
O181 O 0.35255 0.58718 0.60985 0.0
C182 C 0.15129 0.56049 0.34813 0.0
O183 O 0.16879 0.56246 0.3401 0.0
Cd184 Cd 0.19099 0.59092 0.34632 0.0
O185 O 0.14403 0.57434 0.35915 0.0
Cd186 Cd 0.15368 0.60841 0.37055 0.0
C187 C 0.16237 0.62623 0.32351 0.0
O188 O 0.18681 0.59716 0.38173 0.0
O189 O 0.18132 0.6288 0.38584 0.0
O190 O 0.13028 0.60005 0.39756 0.0
C191 C 0.19276 0.61392 0.38891 0.0
O192 O 0.17916 0.61686 0.32352 0.0
C193 C 0.12293 0.61754 0.39904 0.0
O194 O 0.15004 0.62458 0.33818 0.0
O195 O 0.12944 0.63068 0.38673 0.0
C196 C 0.31322 0.40321 0.88695 0.0
O197 O 0.3195 0.42051 0.89259 0.0
Cd198 Cd 0.35311 0.43283 0.88761 0.0
O199 O 0.32496 0.39126 0.87752 0.0
Cd200 Cd 0.3606 0.39173 0.86416 0.0
C201 C 0.37814 0.39461 0.91165 0.0
O202 O 0.35704 0.425 0.85286 0.0
O203 O 0.38832 0.41609 0.85333 0.0
O204 O 0.34696 0.37278 0.83564 0.0
C205 C 0.37527 0.42902 0.84822 0.0
O206 O 0.37333 0.41309 0.9113 0.0
C207 C 0.3627 0.36212 0.83332 0.0
O208 O 0.37432 0.38313 0.89668 0.0
O209 O 0.37706 0.36451 0.84609 0.0
C210 C 0.84736 0.84611 0.60533 0.0
O211 O 0.86429 0.85475 0.60964 0.0
Cd212 Cd 0.89699 0.83961 0.60477 0.0
O213 O 0.84675 0.82811 0.59867 0.0
Cd214 Cd 0.86929 0.79997 0.59033 0.0
C215 C 0.89076 0.82877 0.55399 0.0
O216 O 0.89438 0.80593 0.61638 0.0
O217 O 0.90303 0.78479 0.59345 0.0
O218 O 0.84516 0.77852 0.60775 0.0
C219 C 0.90774 0.79417 0.60952 0.0
O220 O 0.89955 0.83864 0.56818 0.0
C221 C 0.84371 0.76522 0.59402 0.0
O222 O 0.87804 0.81452 0.5577 0.0
O223 O 0.85363 0.76848 0.5779 0.0
C224 C 0.85793 0.14537 0.3836 0.0
O225 O 0.86442 0.13531 0.39843 0.0
Cd226 Cd 0.8892 0.10969 0.39238 0.0
O227 O 0.8641 0.14153 0.36589 0.0
Cd228 Cd 0.88583 0.11847 0.34721 0.0
C229 C 0.92782 0.13665 0.36996 0.0
O230 O 0.87766 0.08773 0.36527 0.0
O231 O 0.90395 0.0869 0.34561 0.0
O232 O 0.85905 0.11733 0.32192 0.0
C233 C 0.89119 0.07745 0.35647 0.0
O234 O 0.92163 0.1273 0.38553 0.0
C235 C 0.87065 0.12149 0.30721 0.0
O236 O 0.91708 0.13683 0.35398 0.0
O237 O 0.88948 0.12444 0.31113 0.0
C238 C 0.64191 0.13259 0.09458 0.0
O239 O 0.62661 0.12193 0.09995 0.0
Cd240 Cd 0.59231 0.13377 0.09421 0.0
O241 O 0.63939 0.15001 0.08731 0.0
Cd242 Cd 0.61427 0.17525 0.07897 0.0
C243 C 0.59593 0.14348 0.04325 0.0
O244 O 0.59008 0.16799 0.10553 0.0
O245 O 0.57978 0.18756 0.08173 0.0
O246 O 0.63732 0.19788 0.09653 0.0
C247 C 0.57597 0.17867 0.09817 0.0
O248 O 0.58878 0.13284 0.05758 0.0
C249 C 0.63851 0.21089 0.08265 0.0
O250 O 0.60671 0.15927 0.04675 0.0
O251 O 0.62841 0.20723 0.06657 0.0
C252 C 0.621 0.84698 0.86637 0.0
O253 O 0.6159 0.8588 0.88045 0.0
Cd254 Cd 0.59326 0.88577 0.87269 0.0
O255 O 0.61436 0.84956 0.84855 0.0
Cd256 Cd 0.5938 0.87224 0.8281 0.0
C257 C 0.55103 0.86103 0.85326 0.0
O258 O 0.60672 0.90299 0.84349 0.0
O259 O 0.58065 0.90604 0.82361 0.0
O260 O 0.62014 0.86718 0.80328 0.0
C261 C 0.59486 0.91439 0.83382 0.0
O262 O 0.55908 0.87078 0.86791 0.0
C263 C 0.60805 0.86379 0.78864 0.0
O264 O 0.56076 0.85841 0.83697 0.0
O265 O 0.58903 0.86393 0.7924 0.0
C266 C 0.89287 0.13349 0.88669 0.0
O267 O 0.87724 0.12965 0.87585 0.0
Cd268 Cd 0.84364 0.1384 0.88652 0.0
O269 O 0.89099 0.14093 0.90426 0.0
Cd270 Cd 0.86482 0.15101 0.92856 0.0
C271 C 0.85403 0.18867 0.89712 0.0
O272 O 0.8388 0.12628 0.91988 0.0
O273 O 0.82848 0.15179 0.93701 0.0
O274 O 0.88349 0.13106 0.95228 0.0
C275 C 0.82436 0.13484 0.92902 0.0
O276 O 0.84537 0.17506 0.88634 0.0
C277 C 0.88375 0.14396 0.96641 0.0
O278 O 0.86348 0.18422 0.9133 0.0
O279 O 0.87579 0.16089 0.96271 0.0
C280 C 0.62005 0.11197 0.63866 0.0
O281 O 0.63274 0.12628 0.63557 0.0
Cd282 Cd 0.62462 0.16089 0.64354 0.0
O283 O 0.60236 0.11553 0.64548 0.0
Cd284 Cd 0.57984 0.14228 0.6561 0.0
C285 C 0.61293 0.156 0.69359 0.0
O286 O 0.59042 0.16787 0.63227 0.0
O287 O 0.57005 0.17711 0.65598 0.0
O288 O 0.55187 0.12463 0.63916 0.0
C289 C 0.58073 0.18193 0.64082 0.0
O290 O 0.62527 0.16267 0.68032 0.0
C291 C 0.54109 0.12241 0.65488 0.0
O292 O 0.59621 0.14716 0.68864 0.0
O293 O 0.54826 0.12977 0.67121 0.0
C294 C 0.59475 0.8721 0.36744 0.0
O295 O 0.60879 0.8747 0.35455 0.0
Cd296 Cd 0.64224 0.86148 0.36058 0.0
O297 O 0.59864 0.86395 0.38426 0.0
Cd298 Cd 0.62704 0.851 0.4041 0.0
C299 C 0.62793 0.81256 0.37188 0.0
O300 O 0.65561 0.87188 0.39273 0.0
O301 O 0.66288 0.84382 0.40737 0.0
O302 O 0.61537 0.87338 0.4298 0.0
C303 C 0.66905 0.8604 0.40006 0.0
O304 O 0.63628 0.82517 0.35996 0.0
C305 C 0.61537 0.8607 0.444 0.0
O306 O 0.62173 0.81796 0.38921 0.0
O307 O 0.62021 0.84276 0.43955 0.0
C308 C 0.87153 0.88353 0.14513 0.0
O309 O 0.85931 0.86899 0.14106 0.0
Cd310 Cd 0.86759 0.83409 0.14611 0.0
O311 O 0.88992 0.88051 0.15052 0.0
Cd312 Cd 0.91499 0.85392 0.15541 0.0
C313 C 0.88649 0.8367 0.19495 0.0
O314 O 0.90032 0.83116 0.13124 0.0
O315 O 0.92657 0.81994 0.14693 0.0
O316 O 0.93953 0.87495 0.1378 0.0
C317 C 0.91191 0.8165 0.13476 0.0
O318 O 0.87241 0.83114 0.18267 0.0
C319 C 0.95277 0.87498 0.15187 0.0
O320 O 0.90273 0.84555 0.18885 0.0
O321 O 0.94832 0.86519 0.16771 0.0
C322 C 0.85852 0.59913 0.8563 0.0
O323 O 0.87112 0.59993 0.87091 0.0
Cd324 Cd 0.86381 0.58694 0.90369 0.0
O325 O 0.84046 0.59215 0.85877 0.0
Cd326 Cd 0.81813 0.57874 0.88558 0.0
C327 C 0.84916 0.5388 0.88943 0.0
O328 O 0.83125 0.59967 0.91275 0.0
O329 O 0.81154 0.57508 0.92166 0.0
O330 O 0.79157 0.59906 0.87102 0.0
C331 C 0.82232 0.59027 0.92681 0.0
O332 O 0.86204 0.55055 0.89815 0.0
C333 C 0.77814 0.58507 0.87009 0.0
O334 O 0.83233 0.54536 0.88257 0.0
O335 O 0.78332 0.56786 0.87637 0.0
C336 C 0.3798 0.86625 0.07614 0.0
O337 O 0.37691 0.85106 0.08733 0.0
Cd338 Cd 0.35834 0.85344 0.1183 0.0
O339 O 0.37395 0.88354 0.08169 0.0
Cd340 Cd 0.35784 0.9002 0.11031 0.0
C341 C 0.31431 0.87473 0.10039 0.0
O342 O 0.37138 0.88099 0.13825 0.0
O343 O 0.3452 0.89949 0.14447 0.0
O344 O 0.38369 0.92669 0.10927 0.0
C345 C 0.35906 0.88814 0.15105 0.0
O346 O 0.32315 0.85947 0.10776 0.0
C347 C 0.37113 0.94092 0.10737 0.0
O348 O 0.32379 0.89147 0.09853 0.0
O349 O 0.35226 0.93612 0.10642 0.0
C350 C 0.10597 0.12154 0.5736 0.0
O351 O 0.10663 0.13545 0.58676 0.0
Cd352 Cd 0.11969 0.12912 0.62022 0.0
O353 O 0.11182 0.10397 0.5779 0.0
Cd354 Cd 0.12499 0.08406 0.60549 0.0
C355 C 0.16781 0.11247 0.60916 0.0
O356 O 0.10603 0.09812 0.63364 0.0
O357 O 0.13154 0.07895 0.6407 0.0
O358 O 0.1011 0.05777 0.59562 0.0
C359 C 0.11667 0.08924 0.64689 0.0
O360 O 0.15659 0.12602 0.61673 0.0
C361 C 0.11446 0.04445 0.59275 0.0
O362 O 0.16007 0.09603 0.60248 0.0
O363 O 0.13304 0.04963 0.59569 0.0
C364 C 0.12406 0.8871 0.89466 0.0
O365 O 0.12471 0.87352 0.88114 0.0
Cd366 Cd 0.13809 0.88046 0.84794 0.0
O367 O 0.13091 0.90477 0.89129 0.0
Cd368 Cd 0.14653 0.92688 0.86628 0.0
C369 C 0.18735 0.89655 0.85966 0.0
O370 O 0.12526 0.91292 0.84018 0.0
O371 O 0.14536 0.93708 0.83073 0.0
O372 O 0.1263 0.95201 0.88293 0.0
C373 C 0.13208 0.92376 0.82603 0.0
O374 O 0.17513 0.8835 0.85193 0.0
C375 C 0.1406 0.96507 0.8844 0.0
O376 O 0.18081 0.91304 0.86683 0.0
O377 O 0.15798 0.96026 0.87756 0.0
C378 C 0.62719 0.38337 0.40007 0.0
O379 O 0.62574 0.36883 0.38766 0.0
Cd380 Cd 0.63665 0.3735 0.35325 0.0
O381 O 0.63414 0.40037 0.39444 0.0
Cd382 Cd 0.64672 0.41867 0.36521 0.0
C383 C 0.68688 0.38853 0.35934 0.0
O384 O 0.62287 0.40439 0.34054 0.0
O385 O 0.64819 0.4221 0.32894 0.0
O386 O 0.62693 0.44618 0.37806 0.0
C387 C 0.63176 0.41229 0.32551 0.0
O388 O 0.67405 0.37521 0.35324 0.0
C389 C 0.64144 0.45907 0.37801 0.0
O390 O 0.68093 0.40541 0.36602 0.0
O391 O 0.65873 0.45316 0.37188 0.0
C392 C 0.89114 0.37318 0.63184 0.0
O393 O 0.90824 0.37363 0.62288 0.0
Cd394 Cd 0.91227 0.38992 0.59066 0.0
O395 O 0.87553 0.38081 0.62365 0.0
Cd396 Cd 0.86644 0.39823 0.59289 0.0
C397 C 0.89822 0.4364 0.60537 0.0
O398 O 0.88545 0.37947 0.56774 0.0
O399 O 0.87385 0.40839 0.55866 0.0
O400 O 0.83498 0.3787 0.59215 0.0
C401 C 0.88198 0.3919 0.55373 0.0
O402 O 0.91253 0.42615 0.59773 0.0
C403 C 0.82325 0.39372 0.59256 0.0
O404 O 0.88024 0.42911 0.6071 0.0
O405 O 0.83167 0.41107 0.59293 0.0
C406 C 0.59646 0.62282 0.06575 0.0
O407 O 0.59726 0.63696 0.07864 0.0
Cd408 Cd 0.61113 0.63168 0.11192 0.0
O409 O 0.60251 0.60536 0.07028 0.0
Cd410 Cd 0.61636 0.58662 0.09842 0.0
C411 C 0.65909 0.61518 0.10022 0.0
O412 O 0.59837 0.60115 0.12709 0.0
O413 O 0.62504 0.58323 0.13328 0.0
O414 O 0.5926 0.55925 0.09125 0.0
C415 C 0.61003 0.59298 0.13997 0.0
O416 O 0.64794 0.62881 0.10774 0.0
C417 C 0.60619 0.54613 0.08843 0.0
O418 O 0.65133 0.59856 0.09406 0.0
O419 O 0.62474 0.55198 0.08991 0.0
C420 C 0.63512 0.62694 0.8598 0.0
O421 O 0.619 0.616 0.86 0.0
Cd422 Cd 0.58569 0.62889 0.86916 0.0
O423 O 0.63462 0.64529 0.86519 0.0
Cd424 Cd 0.6112 0.67034 0.87798 0.0
C425 C 0.59471 0.64259 0.91793 0.0
O426 O 0.58242 0.66234 0.8557 0.0
O427 O 0.57773 0.68495 0.87857 0.0
O428 O 0.63066 0.69749 0.86228 0.0
C429 C 0.5704 0.67459 0.86413 0.0
O430 O 0.58492 0.63088 0.90595 0.0
C431 C 0.63411 0.70684 0.87873 0.0
O432 O 0.60614 0.65669 0.91128 0.0
O433 O 0.62719 0.6989 0.8947 0.0
C434 C 0.58289 0.38413 0.18517 0.0
O435 O 0.56405 0.38656 0.18132 0.0
Cd436 Cd 0.54653 0.37715 0.15122 0.0
O437 O 0.59474 0.37616 0.17225 0.0
Cd438 Cd 0.59118 0.36183 0.1376 0.0
C439 C 0.5742 0.40559 0.118 0.0
O440 O 0.56012 0.34452 0.1463 0.0
O441 O 0.56756 0.34208 0.11503 0.0
O442 O 0.61844 0.33833 0.14495 0.0
C443 C 0.55584 0.33699 0.12932 0.0
O444 O 0.557 0.40223 0.12632 0.0
C445 C 0.62713 0.34041 0.12798 0.0
O446 O 0.58905 0.39381 0.12073 0.0
O447 O 0.61972 0.35334 0.11613 0.0
C448 C 0.83671 0.36248 0.35534 0.0
O449 O 0.85056 0.37588 0.35269 0.0
Cd450 Cd 0.88702 0.37084 0.35767 0.0
O451 O 0.84115 0.34499 0.3615 0.0
Cd452 Cd 0.86926 0.32402 0.37226 0.0
C453 C 0.88601 0.3589 0.40778 0.0
O454 O 0.89189 0.33682 0.34736 0.0
O455 O 0.90314 0.31122 0.36329 0.0
O456 O 0.84891 0.29469 0.36222 0.0
C457 C 0.90678 0.32549 0.35118 0.0
O458 O 0.8911 0.37152 0.39424 0.0
C459 C 0.85006 0.28636 0.3794 0.0
O460 O 0.87777 0.34197 0.40325 0.0
O461 O 0.86027 0.2956 0.39301 0.0
C462 C 0.90945 0.61504 0.71583 0.0
O463 O 0.92847 0.61208 0.71362 0.0
Cd464 Cd 0.94719 0.61202 0.68302 0.0
O465 O 0.89792 0.61863 0.70072 0.0
Cd466 Cd 0.90141 0.62323 0.66359 0.0
C467 C 0.91955 0.57596 0.65663 0.0
O468 O 0.93337 0.64098 0.66774 0.0
O469 O 0.92352 0.63789 0.63703 0.0
O470 O 0.87399 0.64728 0.6667 0.0
C471 C 0.93692 0.64431 0.64939 0.0
O472 O 0.93586 0.58114 0.66596 0.0
C473 C 0.86505 0.64216 0.65039 0.0
O474 O 0.9049 0.5881 0.65422 0.0
O475 O 0.87249 0.6275 0.64072 0.0
C476 C 0.59947 0.39075 0.62635 0.0
O477 O 0.61262 0.38805 0.64015 0.0
Cd478 Cd 0.64344 0.36995 0.63373 0.0
O479 O 0.60259 0.38427 0.60858 0.0
Cd480 Cd 0.62886 0.36622 0.58975 0.0
C481 C 0.62317 0.32494 0.61836 0.0
O482 O 0.65967 0.38275 0.60352 0.0
O483 O 0.6638 0.35549 0.58626 0.0
O484 O 0.62209 0.38588 0.55958 0.0
C485 C 0.67176 0.37074 0.5949 0.0
O486 O 0.63289 0.33433 0.63225 0.0
C487 C 0.6186 0.37063 0.54841 0.0
O488 O 0.61886 0.33356 0.6019 0.0
O489 O 0.6196 0.3535 0.55662 0.0
C490 C 0.95263 0.35452 0.8259 0.0
O491 O 0.95144 0.34195 0.81143 0.0
Cd492 Cd 0.92199 0.33352 0.79206 0.0
O493 O 0.93691 0.36384 0.83209 0.0
Cd494 Cd 0.8999 0.3665 0.82327 0.0
C495 C 0.89006 0.31683 0.8301 0.0
O496 O 0.9099 0.36644 0.7893 0.0
O497 O 0.87746 0.36862 0.79221 0.0
O498 O 0.90554 0.4001 0.8368 0.0
C499 C 0.89283 0.36777 0.78071 0.0
O500 O 0.89977 0.31355 0.81385 0.0
C501 C 0.88781 0.40177 0.84422 0.0
O502 O 0.889 0.33443 0.83761 0.0
O503 O 0.87558 0.38688 0.84202 0.0
C504 C 0.88272 0.60867 0.14964 0.0
O505 O 0.87118 0.61578 0.16313 0.0
Cd506 Cd 0.84074 0.63395 0.15458 0.0
O507 O 0.87859 0.61136 0.13114 0.0
Cd508 Cd 0.8526 0.62958 0.11234 0.0
C509 C 0.86295 0.67427 0.13299 0.0
O510 O 0.82077 0.618 0.12807 0.0
O511 O 0.8195 0.64541 0.11075 0.0
O512 O 0.85188 0.60537 0.08466 0.0
C513 C 0.81003 0.63085 0.11895 0.0
O514 O 0.85077 0.66871 0.14685 0.0
C515 C 0.8559 0.61828 0.07117 0.0
O516 O 0.86841 0.66197 0.11944 0.0
O517 O 0.85941 0.6362 0.07704 0.0
C518 C 0.53232 0.63345 0.32801 0.0
O519 O 0.53269 0.64175 0.31081 0.0
Cd520 Cd 0.5624 0.64634 0.29073 0.0
O521 O 0.5486 0.62687 0.33615 0.0
Cd522 Cd 0.58552 0.62344 0.32891 0.0
C523 C 0.59211 0.67377 0.3246 0.0
O524 O 0.57666 0.61426 0.29542 0.0
O525 O 0.60904 0.61512 0.30057 0.0
O526 O 0.58099 0.5942 0.35003 0.0
C527 C 0.59432 0.61181 0.28846 0.0
O528 O 0.58242 0.67271 0.30792 0.0
C529 C 0.59892 0.59479 0.35744 0.0
O530 O 0.59441 0.65831 0.33554 0.0
O531 O 0.61061 0.60916 0.35196 0.0
C532 C 0.71725 0.92304 0.60381 0.0
O533 O 0.71609 0.93924 0.59384 0.0
Cd534 Cd 0.68553 0.95865 0.59146 0.0
O535 O 0.70193 0.91631 0.61361 0.0
Cd536 Cd 0.66651 0.92549 0.62141 0.0
C537 C 0.65192 0.92279 0.57282 0.0
O538 O 0.67406 0.96117 0.62539 0.0
O539 O 0.64213 0.95274 0.62616 0.0
O540 O 0.67248 0.91114 0.65443 0.0
C541 C 0.65572 0.96648 0.62764 0.0
O542 O 0.66125 0.93955 0.57029 0.0
C543 C 0.65604 0.90072 0.65462 0.0
O544 O 0.65272 0.91369 0.58958 0.0
O545 O 0.6445 0.90178 0.63925 0.0
C546 C 0.34972 0.35611 0.10508 0.0
O547 O 0.36672 0.36507 0.1083 0.0
Cd548 Cd 0.39864 0.34965 0.09987 0.0
O549 O 0.34909 0.33833 0.09793 0.0
Cd550 Cd 0.37089 0.31079 0.08702 0.0
C551 C 0.38852 0.34024 0.04957 0.0
O552 O 0.39842 0.31551 0.11113 0.0
O553 O 0.40462 0.29589 0.08598 0.0
O554 O 0.34843 0.28957 0.10653 0.0
C555 C 0.41079 0.30394 0.1023 0.0
O556 O 0.39839 0.3499 0.06321 0.0
C557 C 0.34538 0.27635 0.09296 0.0
O558 O 0.3763 0.32581 0.05402 0.0
O559 O 0.35376 0.27945 0.07598 0.0
C560 C 0.35458 0.64403 0.87729 0.0
O561 O 0.36179 0.6339 0.89173 0.0
Cd562 Cd 0.38743 0.60956 0.88447 0.0
O563 O 0.36011 0.64043 0.85932 0.0
Cd564 Cd 0.38123 0.617 0.8403 0.0
C565 C 0.42389 0.63715 0.85931 0.0
O566 O 0.37579 0.58598 0.8589 0.0
O567 O 0.40203 0.58709 0.83914 0.0
O568 O 0.35287 0.61192 0.81707 0.0
C569 C 0.38983 0.5767 0.84977 0.0
O570 O 0.41872 0.62812 0.87541 0.0
C571 C 0.36293 0.61636 0.80139 0.0
O572 O 0.41234 0.63662 0.84387 0.0
O573 O 0.38154 0.62158 0.80386 0.0
C574 C 0.14319 0.62971 0.58591 0.0
O575 O 0.1277 0.6184 0.58902 0.0
Cd576 Cd 0.0933 0.6308 0.5861 0.0
O577 O 0.14098 0.64824 0.58204 0.0
Cd578 Cd 0.11492 0.67383 0.57839 0.0
C579 C 0.09525 0.64937 0.53788 0.0
O580 O 0.09128 0.66217 0.604 0.0
O581 O 0.08022 0.68481 0.58355 0.0
O582 O 0.13622 0.69611 0.5987 0.0
C583 C 0.07701 0.67381 0.59879 0.0
O584 O 0.08827 0.63621 0.55004 0.0
C585 C 0.1374 0.71003 0.58574 0.0
O586 O 0.10638 0.66404 0.54413 0.0
O587 O 0.12828 0.70697 0.56902 0.0
C588 C 0.12064 0.35194 0.37928 0.0
O589 O 0.11194 0.36285 0.39233 0.0
Cd590 Cd 0.09189 0.3915 0.38209 0.0
O591 O 0.11798 0.35513 0.36061 0.0
Cd592 Cd 0.09972 0.37723 0.33811 0.0
C593 C 0.05241 0.36922 0.3568 0.0
O594 O 0.11 0.40835 0.35537 0.0
O595 O 0.08986 0.41114 0.32957 0.0
O596 O 0.12746 0.37211 0.3145 0.0
C597 C 0.10077 0.41961 0.34306 0.0
O598 O 0.05765 0.38046 0.37158 0.0
C599 C 0.11592 0.36683 0.29991 0.0
O600 O 0.06536 0.36412 0.34359 0.0
O601 O 0.09684 0.36601 0.30329 0.0
C602 C 0.39689 0.62817 0.39521 0.0
O603 O 0.38028 0.62504 0.38563 0.0
Cd604 Cd 0.34787 0.63501 0.39854 0.0
O605 O 0.39687 0.63576 0.41285 0.0
Cd606 Cd 0.37405 0.64737 0.43963 0.0
C607 C 0.36153 0.685 0.40848 0.0
O608 O 0.34673 0.62401 0.43244 0.0
O609 O 0.33877 0.64839 0.45214 0.0
O610 O 0.39483 0.62721 0.46129 0.0
C611 C 0.33323 0.63243 0.44296 0.0
O612 O 0.35164 0.67163 0.39841 0.0
C613 C 0.39649 0.64005 0.47543 0.0
O614 O 0.37202 0.68036 0.42398 0.0
O615 O 0.38838 0.65707 0.47254 0.0
C616 C 0.10586 0.60622 0.13551 0.0
O617 O 0.1176 0.62065 0.13024 0.0
Cd618 Cd 0.11066 0.65544 0.13782 0.0
O619 O 0.08912 0.60963 0.14446 0.0
Cd620 Cd 0.06779 0.63692 0.15671 0.0
C621 C 0.1058 0.65101 0.18914 0.0
O622 O 0.0753 0.66141 0.13089 0.0
O623 O 0.0585 0.67208 0.15657 0.0
O624 O 0.03802 0.61855 0.14424 0.0
C625 C 0.0671 0.67604 0.13996 0.0
O626 O 0.11608 0.65757 0.17423 0.0
C627 C 0.02887 0.61801 0.16107 0.0
O628 O 0.08853 0.64216 0.18665 0.0
O629 O 0.03786 0.6264 0.17598 0.0
C630 C 0.09489 0.37124 0.8746 0.0
O631 O 0.10959 0.37427 0.86251 0.0
Cd632 Cd 0.14334 0.36252 0.86929 0.0
O633 O 0.09799 0.36311 0.89162 0.0
Cd634 Cd 0.12601 0.35082 0.91272 0.0
C635 C 0.13049 0.31297 0.87978 0.0
O636 O 0.15342 0.37335 0.90223 0.0
O637 O 0.16234 0.34638 0.91783 0.0
O638 O 0.11157 0.37125 0.93875 0.0
C639 C 0.16753 0.36304 0.91005 0.0
O640 O 0.13882 0.32597 0.86825 0.0
C641 C 0.11219 0.35806 0.95246 0.0
O642 O 0.12333 0.318 0.89686 0.0
O643 O 0.11861 0.34078 0.9475 0.0
C644 C 0.37449 0.37581 0.63457 0.0
O645 O 0.36381 0.35974 0.6329 0.0
Cd646 Cd 0.37613 0.32686 0.64177 0.0
O647 O 0.39285 0.37535 0.64094 0.0
Cd648 Cd 0.41902 0.35223 0.65267 0.0
C649 C 0.38871 0.33616 0.69129 0.0
O650 O 0.41062 0.32482 0.63013 0.0
O651 O 0.43326 0.31867 0.65285 0.0
O652 O 0.44478 0.3719 0.63508 0.0
C653 C 0.42224 0.31216 0.6384 0.0
O654 O 0.37701 0.32722 0.67858 0.0
C655 C 0.45569 0.37551 0.65061 0.0
O656 O 0.404 0.3468 0.68563 0.0
O657 O 0.44942 0.36831 0.66721 0.0
C658 C 0.36162 0.09802 0.3513 0.0
O659 O 0.37425 0.09987 0.36581 0.0
Cd660 Cd 0.36659 0.09075 0.39998 0.0
O661 O 0.34343 0.09171 0.35436 0.0
Cd662 Cd 0.32094 0.08096 0.38196 0.0
C663 C 0.35145 0.0415 0.39158 0.0
O664 O 0.33381 0.10367 0.40796 0.0
O665 O 0.31333 0.07997 0.41768 0.0
O666 O 0.29447 0.10064 0.36653 0.0
C667 C 0.32444 0.0951 0.4223 0.0
O668 O 0.36426 0.05412 0.39909 0.0
C669 C 0.28112 0.08658 0.36591 0.0
O670 O 0.33495 0.04729 0.38329 0.0
O671 O 0.28639 0.06953 0.37254 0.0
H672 H 0.12031 0.33213 0.41553 0.0
H673 H 0.15428 0.23409 0.36034 0.0
H674 H 0.14749 0.3311 0.35642 0.0
H675 H 0.13636 0.23553 0.4228 0.0
H676 H 0.15944 0.27047 0.36139 0.0
H677 H 0.13333 0.29838 0.42154 0.0
C678 C 0.12943 0.32501 0.40402 0.0
C679 C 0.13228 0.33411 0.38522 0.0
C680 C 0.15478 0.26282 0.37502 0.0
C681 C 0.14698 0.29557 0.39185 0.0
C682 C 0.15182 0.24203 0.37439 0.0
C683 C 0.14436 0.23191 0.39134 0.0
C684 C 0.14978 0.27355 0.39258 0.0
C685 C 0.14176 0.24285 0.40926 0.0
C686 C 0.13685 0.30573 0.40743 0.0
C687 C 0.14441 0.32434 0.37093 0.0
N688 N 0.14398 0.26318 0.40929 0.0
N689 N 0.15096 0.30545 0.37438 0.0
H690 H 0.01861 0.83829 0.66513 0.0
H691 H 0.94169 0.77947 0.59095 0.0
H692 H 0.0344 0.81996 0.6048 0.0
H693 H 0.92262 0.81282 0.64337 0.0
H694 H 0.97734 0.78732 0.59954 0.0
H695 H 0.98501 0.82232 0.66072 0.0
C696 C 0.01506 0.83075 0.65099 0.0
C697 C 0.02921 0.83066 0.63516 0.0
C698 C 0.96534 0.7927 0.60928 0.0
C699 C 0.99084 0.81233 0.63011 0.0
C700 C 0.94501 0.78815 0.60446 0.0
C701 C 0.92919 0.79576 0.61634 0.0
C702 C 0.96982 0.8048 0.62615 0.0
C703 C 0.93436 0.80685 0.63369 0.0
C704 C -0.00411 0.82166 0.64851 0.0
C705 C 0.02387 0.82056 0.61725 0.0
N706 N 0.95425 0.81119 0.63799 0.0
N707 N 0.00502 0.81189 0.61516 0.0
H708 H 0.32784 0.76366 0.85686 0.0
H709 H 0.34695 0.66219 0.91363 0.0
H710 H 0.34087 0.75938 0.92048 0.0
H711 H 0.33399 0.66677 0.85001 0.0
H712 H 0.33458 0.69633 0.91835 0.0
H713 H 0.32009 0.72765 0.85604 0.0
C714 C 0.32874 0.7552 0.87073 0.0
C715 C 0.3356 0.76436 0.88863 0.0
C716 C 0.33401 0.6897 0.90342 0.0
C717 C 0.32701 0.72317 0.88778 0.0
C718 C 0.34103 0.67017 0.90073 0.0
C719 C 0.34216 0.66192 0.88129 0.0
C720 C 0.3283 0.701 0.88652 0.0
C721 C 0.33397 0.6728 0.86519 0.0
C722 C 0.32427 0.73464 0.87028 0.0
C723 C 0.33609 0.7528 0.90624 0.0
N724 N 0.32781 0.69196 0.86809 0.0
N725 N 0.3323 0.73269 0.90529 0.0
H726 H 0.4688 0.15348 0.16936 0.0
H727 H 0.54096 0.19207 0.08051 0.0
H728 H 0.44739 0.16155 0.10835 0.0
H729 H 0.56349 0.16374 0.13444 0.0
H730 H 0.50602 0.18776 0.09293 0.0
H731 H 0.50302 0.1641 0.15897 0.0
C732 C 0.47125 0.15767 0.1538 0.0
C733 C 0.4553 0.15644 0.13962 0.0
C734 C 0.51865 0.18265 0.10209 0.0
C735 C 0.49438 0.16865 0.12772 0.0
C736 C 0.53857 0.18516 0.09508 0.0
C737 C 0.55511 0.17807 0.10642 0.0
C738 C 0.5153 0.1732 0.12064 0.0
C739 C 0.55116 0.16927 0.12517 0.0
C740 C 0.4908 0.16367 0.1479 0.0
C741 C 0.45933 0.16212 0.1197 0.0
N742 N 0.53161 0.16702 0.13168 0.0
N743 N 0.47854 0.16793 0.1143 0.0
H744 H 0.06234 0.70962 0.16305 0.0
H745 H 0.10309 0.78737 0.08171 0.0
H746 H 0.08287 0.69018 0.10449 0.0
H747 H 0.11057 0.79708 0.14568 0.0
H748 H 0.09002 0.75336 0.08842 0.0
H749 H 0.07373 0.74383 0.15525 0.0
C750 C 0.06901 0.71259 0.14843 0.0
C751 C 0.07176 0.69703 0.13439 0.0
C752 C 0.09457 0.76296 0.10094 0.0
C753 C 0.08476 0.73609 0.12547 0.0
C754 C 0.10196 0.78235 0.09716 0.0
C755 C 0.10793 0.79502 0.11319 0.0
C756 C 0.09276 0.7564 0.12088 0.0
C757 C 0.10624 0.78774 0.13291 0.0
C758 C 0.07563 0.73207 0.14409 0.0
C759 C 0.08055 0.70175 0.11574 0.0
N760 N 0.09864 0.76893 0.13622 0.0
N761 N 0.08675 0.72093 0.11178 0.0
H762 H 0.48232 0.85163 0.30731 0.0
H763 H 0.56253 0.8761 0.39305 0.0
H764 H 0.46359 0.87327 0.36571 0.0
H765 H 0.57804 0.8765 0.32992 0.0
H766 H 0.52629 0.87572 0.38389 0.0
H767 H 0.51763 0.86021 0.31582 0.0
C768 C 0.48565 0.85812 0.32199 0.0
C769 C 0.47001 0.86154 0.33593 0.0
C770 C 0.53763 0.87626 0.37206 0.0
C771 C 0.51047 0.87151 0.3457 0.0
C772 C 0.5583 0.87647 0.37726 0.0
C773 C 0.57328 0.87606 0.3622 0.0
C774 C 0.53197 0.87526 0.35168 0.0
C775 C 0.56699 0.87672 0.342 0.0
C776 C 0.5058 0.86322 0.32674 0.0
C777 C 0.47521 0.87029 0.35458 0.0
N778 N 0.54677 0.87591 0.33732 0.0
N779 N 0.49508 0.87478 0.35903 0.0
H780 H 0.38194 0.19359 0.59917 0.0
H781 H 0.43514 0.28183 0.66261 0.0
H782 H 0.38855 0.19168 0.66386 0.0
H783 H 0.40154 0.293 0.60775 0.0
H784 H 0.42534 0.24629 0.66021 0.0
H785 H 0.39582 0.22799 0.59946 0.0
C786 C 0.3864 0.20038 0.61342 0.0
C787 C 0.38402 0.18985 0.63156 0.0
C788 C 0.42029 0.25653 0.64863 0.0
C789 C 0.40011 0.22892 0.63188 0.0
C790 C 0.42597 0.27676 0.64988 0.0
C791 C 0.41898 0.29039 0.63541 0.0
C792 C 0.40781 0.24985 0.63265 0.0
C793 C 0.40713 0.28298 0.61927 0.0
C794 C 0.39426 0.21998 0.61355 0.0
C795 C 0.38999 0.19935 0.64959 0.0
N796 N 0.40186 0.26315 0.61833 0.0
N797 N 0.39787 0.21837 0.64929 0.0
H798 H 0.02378 0.12929 0.86893 0.0
H799 H 0.90355 0.12752 0.84735 0.0
H800 H -0.00314 0.14384 0.81138 0.0
H801 H 0.92923 0.13378 0.90716 0.0
H802 H 0.93813 0.12724 0.83363 0.0
H803 H 0.98939 0.12544 0.88297 0.0
C804 C 0.01066 0.1317 0.85927 0.0
C805 C 0.01317 0.13702 0.83899 0.0
C806 C 0.93616 0.12855 0.84976 0.0
C807 C 0.97397 0.13234 0.85483 0.0
C808 C 0.91645 0.12857 0.85762 0.0
C809 C 0.91352 0.13086 0.87841 0.0
C810 C 0.95302 0.13063 0.86281 0.0
C811 C 0.9308 0.13219 0.89101 0.0
C812 C 0.99108 0.12948 0.86728 0.0
C813 C -0.00435 0.1399 0.82713 0.0
N814 N 0.94985 0.13212 0.883 0.0
N815 N 0.97679 0.13745 0.83522 0.0
H816 H 0.36784 0.11675 0.2223 0.0
H817 H 0.40053 0.10511 0.3378 0.0
H818 H 0.42947 0.10498 0.24217 0.0
H819 H 0.33783 0.10034 0.31737 0.0
H820 H 0.41135 0.10958 0.30295 0.0
H821 H 0.35645 0.11468 0.25734 0.0
C822 C 0.37896 0.11371 0.23399 0.0
C823 C 0.39962 0.11095 0.22928 0.0
C824 C 0.39522 0.10761 0.30611 0.0
C825 C 0.38676 0.10881 0.26928 0.0
C826 C 0.38902 0.10515 0.32601 0.0
C827 C 0.36826 0.10222 0.3305 0.0
C828 C 0.38054 0.10727 0.2906 0.0
C829 C 0.35402 0.10241 0.31459 0.0
C830 C 0.37245 0.11253 0.25396 0.0
C831 C 0.41337 0.10709 0.24505 0.0
N832 N 0.36043 0.10486 0.29532 0.0
N833 N 0.4067 0.10619 0.26433 0.0
H834 H 0.1141 0.16984 0.45539 0.0
H835 H 0.0928 0.09467 0.54513 0.0
H836 H 0.08447 0.11191 0.4466 0.0
H837 H 0.10624 0.15784 0.55425 0.0
H838 H 0.0887 0.10073 0.50916 0.0
H839 H 0.11121 0.16564 0.49166 0.0
C840 C 0.10702 0.15619 0.46108 0.0
C841 C 0.0997 0.14109 0.44793 0.0
C842 C 0.09226 0.11332 0.51904 0.0
C843 C 0.09625 0.13627 0.48952 0.0
C844 C 0.09462 0.10989 0.53957 0.0
C845 C 0.10011 0.12577 0.55262 0.0
C846 C 0.09573 0.13272 0.51147 0.0
C847 C 0.10207 0.14518 0.54469 0.0
C848 C 0.10522 0.15389 0.48182 0.0
C849 C 0.09043 0.12387 0.45619 0.0
N850 N 0.1002 0.14807 0.52452 0.0
N851 N 0.08913 0.12184 0.4765 0.0
H852 H 0.13015 0.95089 0.79543 0.0
H853 H 0.11078 0.87016 0.70943 0.0
H854 H 0.12079 0.88804 0.80901 0.0
H855 H 0.07848 0.92625 0.70874 0.0
H856 H 0.12406 0.87868 0.74307 0.0
H857 H 0.11996 0.94396 0.7603 0.0
C858 C 0.12604 0.93566 0.79095 0.0
C859 C 0.12612 0.92 0.80501 0.0
C860 C 0.11423 0.88915 0.73539 0.0
C861 C 0.11517 0.91201 0.76521 0.0
C862 C 0.10677 0.8844 0.71623 0.0
C863 C 0.09345 0.89751 0.70646 0.0
C864 C 0.10872 0.90732 0.74449 0.0
C865 C 0.0886 0.91571 0.71593 0.0
C866 C 0.12024 0.93176 0.77105 0.0
C867 C 0.1207 0.90052 0.7986 0.0
N868 N 0.09631 0.92015 0.73448 0.0
N869 N 0.1156 0.89701 0.77905 0.0
H870 H 0.375 0.8221 0.95677 0.0
H871 H 0.39165 0.89542 0.04956 0.0
H872 H 0.39561 0.88372 0.95005 0.0
H873 H 0.38434 0.83104 0.05523 0.0
H874 H 0.39637 0.89123 0.01337 0.0
H875 H 0.38056 0.82487 0.99291 0.0
C876 C 0.38069 0.83625 0.9629 0.0
C877 C 0.38457 0.85281 0.9504 0.0
C878 C 0.3941 0.878 0.02257 0.0
C879 C 0.39106 0.85605 0.99187 0.0
C880 C 0.39142 0.88036 0.04325 0.0
C881 C 0.3872 0.86357 0.05537 0.0
C882 C 0.39228 0.85874 0.01396 0.0
C883 C 0.38733 0.84442 0.04643 0.0
C884 C 0.38404 0.83776 0.98356 0.0
C885 C 0.39226 0.87064 0.95917 0.0
N886 N 0.38943 0.84256 0.02619 0.0
N887 N 0.39503 0.87187 0.97944 0.0
H888 H 0.34489 0.88326 0.28087 0.0
H889 H 0.38739 0.86481 0.16951 0.0
H890 H 0.40475 0.86071 0.26695 0.0
H891 H 0.334 0.90021 0.18153 0.0
H892 H 0.39072 0.85834 0.20545 0.0
H893 H 0.3375 0.88502 0.24453 0.0
C894 C 0.35635 0.87855 0.27019 0.0
C895 C 0.37549 0.87202 0.27684 0.0
C896 C 0.37822 0.86747 0.20024 0.0
C897 C 0.3672 0.87384 0.23567 0.0
C898 C 0.37632 0.87115 0.17972 0.0
C899 C 0.36055 0.88324 0.17259 0.0
C900 C 0.36426 0.87594 0.21373 0.0
C901 C 0.34651 0.89095 0.18647 0.0
C902 C 0.35217 0.87959 0.24954 0.0
C903 C 0.38986 0.86605 0.26248 0.0
N904 N 0.34876 0.88726 0.20645 0.0
N905 N 0.38543 0.86714 0.24261 0.0
H906 H 0.34606 0.08253 0.54942 0.0
H907 H 0.34877 0.12564 0.43735 0.0
H908 H 0.36834 0.14232 0.53553 0.0
H909 H 0.31219 0.07426 0.45547 0.0
H910 H 0.35926 0.13069 0.47252 0.0
H911 H 0.33758 0.07739 0.5139 0.0
C912 C 0.34939 0.09449 0.53886 0.0
C913 C 0.35781 0.11291 0.54542 0.0
C914 C 0.34887 0.11838 0.46875 0.0
C915 C 0.348 0.10721 0.50484 0.0
C916 C 0.34284 0.11552 0.44873 0.0
C917 C 0.3296 0.09951 0.44351 0.0
C918 C 0.34175 0.10499 0.48353 0.0
C919 C 0.32241 0.08681 0.45882 0.0
C920 C 0.34441 0.09161 0.51862 0.0
C921 C 0.36177 0.12791 0.53109 0.0
N922 N 0.32868 0.08976 0.47812 0.0
N923 N 0.35677 0.12476 0.51144 0.0
H924 H 0.13181 0.10162 0.77588 0.0
H925 H 0.08403 0.10673 0.66519 0.0
H926 H 0.06801 0.11245 0.76378 0.0
H927 H 0.1415 0.07823 0.67791 0.0
H928 H 0.07908 0.11169 0.70135 0.0
H929 H 0.13696 0.09545 0.73978 0.0
C930 C 0.11892 0.10264 0.76566 0.0
C931 C 0.09949 0.10757 0.77278 0.0
C932 C 0.09273 0.10428 0.69621 0.0
C933 C 0.10524 0.10076 0.73173 0.0
C934 C 0.09557 0.1015 0.6756 0.0
C935 C 0.11316 0.09204 0.66859 0.0
C936 C 0.1077 0.09776 0.70984 0.0
C937 C 0.12766 0.08554 0.6827 0.0
C938 C 0.12184 0.0991 0.74512 0.0
C939 C 0.08327 0.10868 0.75894 0.0
N940 N 0.12466 0.08861 0.70268 0.0
N941 N 0.08653 0.10542 0.73907 0.0
H942 H 0.1038 0.83272 0.00993 0.0
H943 H 0.1114 0.91401 0.9227 0.0
H944 H 0.10156 0.89694 0.01927 0.0
H945 H 0.11751 0.85024 0.91235 0.0
H946 H 0.1013 0.90724 0.95719 0.0
H947 H 0.10229 0.83811 0.97356 0.0
C948 C 0.10265 0.84793 0.00434 0.0
C949 C 0.10316 0.86445 0.01759 0.0
C950 C 0.10466 0.89467 0.94739 0.0
C951 C 0.10154 0.87069 0.9761 0.0
C952 C 0.1105 0.89853 0.92767 0.0
C953 C 0.1157 0.88267 0.91476 0.0
C954 C 0.10423 0.8748 0.9544 0.0
C955 C 0.11383 0.86291 0.9219 0.0
C956 C 0.10183 0.85099 0.98358 0.0
C957 C 0.1015 0.8838 0.00957 0.0
N958 N 0.10853 0.85953 0.94139 0.0
N959 N 0.101 0.88639 0.98933 0.0
H960 H 0.31215 0.33912 0.1111 0.0
H961 H 0.2518 0.44058 0.09666 0.0
H962 H 0.34316 0.3967 0.10655 0.0
H963 H 0.22468 0.38739 0.12321 0.0
H964 H 0.2852 0.42445 0.09771 0.0
H965 H 0.27958 0.35629 0.11351 0.0
C966 C 0.3121 0.35541 0.11075 0.0
C967 C 0.33034 0.36653 0.10856 0.0
C968 C 0.27192 0.4164 0.10339 0.0
C969 C 0.29312 0.38624 0.11103 0.0
C970 C 0.25286 0.42552 0.10267 0.0
C971 C 0.23543 0.41527 0.10978 0.0
C972 C 0.27345 0.39683 0.111 0.0
C973 C 0.2377 0.39585 0.11756 0.0
C974 C 0.29352 0.36519 0.11217 0.0
C975 C 0.32942 0.38759 0.10829 0.0
N976 N 0.25634 0.3872 0.11782 0.0
N977 N 0.31105 0.3968 0.10927 0.0
H978 H 0.71548 0.06339 0.9058 0.0
H979 H 0.78919 0.15588 0.93421 0.0
H980 H 0.69889 0.12513 0.89563 0.0
H981 H 0.81142 0.09708 0.91856 0.0
H982 H 0.75424 0.14397 0.92706 0.0
H983 H 0.74921 0.07493 0.91732 0.0
C984 C 0.71889 0.07938 0.9061 0.0
C985 C 0.70442 0.09334 0.89964 0.0
C986 C 0.7668 0.13369 0.92534 0.0
C987 C 0.74285 0.10656 0.91295 0.0
C988 C 0.78668 0.1404 0.92952 0.0
C989 C 0.80316 0.12744 0.92683 0.0
C990 C 0.76344 0.11383 0.91876 0.0
C991 C 0.79911 0.10757 0.92067 0.0
C992 C 0.73814 0.08592 0.91262 0.0
C993 C 0.70967 0.11387 0.90032 0.0
N994 N 0.77962 0.10135 0.91683 0.0
N995 N 0.7285 0.11989 0.90691 0.0
H996 H 0.11163 0.47655 0.1388 0.0
H997 H 0.14316 0.59231 0.1234 0.0
H998 H 0.17363 0.49736 0.12899 0.0
H999 H 0.08292 0.57211 0.14147 0.0
H1000 H 0.15393 0.55728 0.12221 0.0
H1001 H 0.10024 0.51135 0.13734 0.0
C1002 C 0.12284 0.48845 0.13641 0.0
C1003 C 0.1436 0.48409 0.13407 0.0
C1004 C 0.13833 0.56054 0.12635 0.0
C1005 C 0.1307 0.52387 0.13221 0.0
C1006 C 0.13215 0.58052 0.12692 0.0
C1007 C 0.11216 0.58516 0.13267 0.0
C1008 C 0.1244 0.54512 0.13149 0.0
C1009 C 0.09854 0.56926 0.1371 0.0
C1010 C 0.11634 0.5083 0.13553 0.0
C1011 C 0.15748 0.50007 0.13094 0.0
N1012 N 0.10494 0.54997 0.13649 0.0
N1013 N 0.15078 0.51925 0.13007 0.0
H1014 H 0.70105 0.83498 0.40424 0.0
H1015 H 0.78559 0.92175 0.40523 0.0
H1016 H 0.68682 0.89727 0.39396 0.0
H1017 H 0.79948 0.861 0.38718 0.0
H1018 H 0.74945 0.91237 0.4067 0.0
H1019 H 0.73752 0.84374 0.40315 0.0
C1020 C 0.70562 0.8505 0.40178 0.0
C1021 C 0.69098 0.86546 0.39918 0.0
C1022 C 0.76043 0.90111 0.40244 0.0
C1023 C 0.73245 0.87551 0.39815 0.0
C1024 C 0.78106 0.90638 0.40173 0.0
C1025 C 0.79555 0.8921 0.39606 0.0
C1026 C 0.75425 0.88136 0.39776 0.0
C1027 C 0.78878 0.87246 0.39155 0.0
C1028 C 0.72638 0.85544 0.40109 0.0
C1029 C 0.69766 0.8853 0.39596 0.0
N1030 N 0.76855 0.86761 0.39259 0.0
N1031 N 0.71797 0.8898 0.39568 0.0
H1032 H 0.88008 0.91382 0.17143 0.0
H1033 H 0.83942 0.00314 0.10747 0.0
H1034 H 0.84713 0.9003 0.11644 0.0
H1035 H 0.823 -0.00101 0.17018 0.0
H1036 H 0.85174 0.96835 0.10879 0.0
H1037 H 0.86835 0.94867 0.16962 0.0
C1038 C 0.87045 0.91826 0.15895 0.0
C1039 C 0.86441 0.90431 0.1441 0.0
C1040 C 0.8455 0.97521 0.1222 0.0
C1041 C 0.85161 0.94389 0.1417 0.0
C1042 C 0.83866 -0.00504 0.12153 0.0
C1043 C 0.83022 0.00375 0.13875 0.0
C1044 C 0.84445 0.96463 0.14038 0.0
C1045 C 0.82935 0.9926 0.15659 0.0
C1046 C 0.86378 0.93801 0.15798 0.0
C1047 C 0.85191 0.91068 0.12823 0.0
N1048 N 0.83661 0.9736 0.15702 0.0
N1049 N 0.84607 0.93019 0.12729 0.0
H1050 H 0.15475 0.59055 0.59152 0.0
H1051 H 0.27407 0.61861 0.59415 0.0
H1052 H 0.17926 0.65047 0.58212 0.0
H1053 H 0.25059 0.55761 0.59634 0.0
H1054 H 0.23928 0.63045 0.58912 0.0
H1055 H 0.18969 0.57798 0.59311 0.0
C1056 C 0.16744 0.60105 0.58978 0.0
C1057 C 0.16406 0.6216 0.58677 0.0
C1058 C 0.24174 0.61446 0.59057 0.0
C1059 C 0.20398 0.60735 0.58854 0.0
C1060 C 0.2616 0.60771 0.59342 0.0
C1061 C 0.26518 0.58713 0.59577 0.0
C1062 C 0.22534 0.60054 0.5902 0.0
C1063 C 0.24849 0.57363 0.59464 0.0
C1064 C 0.18737 0.59386 0.59062 0.0
C1065 C 0.1811 0.63451 0.58452 0.0
N1066 N 0.22925 0.58059 0.59209 0.0
N1067 N 0.20029 0.62718 0.58553 0.0
H1068 H 0.10003 0.44502 0.31101 0.0
H1069 H 0.12428 0.54398 0.37462 0.0
H1070 H 0.10979 0.4436 0.37531 0.0
H1071 H 0.15278 0.53335 0.31712 0.0
H1072 H 0.10856 0.51031 0.37283 0.0
H1073 H 0.10934 0.48097 0.31116 0.0
C1074 C 0.10382 0.45237 0.32517 0.0
C1075 C 0.10432 0.44145 0.34317 0.0
C1076 C 0.11806 0.51554 0.36053 0.0
C1077 C 0.1145 0.48222 0.34344 0.0
C1078 C 0.12693 0.5347 0.36147 0.0
C1079 C 0.13995 0.5413 0.34605 0.0
C1080 C 0.12188 0.50319 0.34387 0.0
C1081 C 0.14298 0.52867 0.32938 0.0
C1082 C 0.10918 0.47275 0.32521 0.0
C1083 C 0.10941 0.45155 0.36112 0.0
N1084 N 0.13397 0.51014 0.32871 0.0
N1085 N 0.11427 0.47146 0.36082 0.0
H1086 H 0.42199 0.55261 0.84006 0.0
H1087 H 0.35046 0.45618 0.83136 0.0
H1088 H 0.35861 0.55076 0.85791 0.0
H1089 H 0.41216 0.44927 0.85338 0.0
H1090 H 0.35604 0.49243 0.83022 0.0
H1091 H 0.42098 0.51569 0.83641 0.0
C1092 C 0.40795 0.54442 0.84332 0.0
C1093 C 0.39034 0.55463 0.84932 0.0
C1094 C 0.36844 0.48294 0.83503 0.0
C1095 C 0.38901 0.51304 0.84457 0.0
C1096 C 0.36535 0.46229 0.83558 0.0
C1097 C 0.38075 0.44983 0.84288 0.0
C1098 C 0.3871 0.49119 0.84168 0.0
C1099 C 0.39986 0.45846 0.84783 0.0
C1100 C 0.40742 0.5235 0.84121 0.0
C1101 C 0.37254 0.54346 0.85336 0.0
N1102 N 0.40247 0.47882 0.8474 0.0
N1103 N 0.37226 0.52326 0.85067 0.0
H1104 H 0.84178 0.67029 0.66918 0.0
H1105 H 0.84377 0.7311 0.57062 0.0
H1106 H 0.85293 0.64363 0.61099 0.0
H1107 H 0.82172 0.75429 0.62717 0.0
H1108 H 0.83743 0.69697 0.58269 0.0
H1109 H 0.8246 0.69802 0.65269 0.0
C1110 C 0.84011 0.67001 0.65294 0.0
C1111 C 0.84933 0.65501 0.64139 0.0
C1112 C 0.83343 0.70951 0.59228 0.0
C1113 C 0.83028 0.68698 0.62233 0.0
C1114 C 0.83702 0.72904 0.58535 0.0
C1115 C 0.83398 0.7455 0.59821 0.0
C1116 C 0.82707 0.70655 0.61227 0.0
C1117 C 0.82489 0.74198 0.61699 0.0
C1118 C 0.8303 0.68587 0.64348 0.0
C1119 C 0.84639 0.65515 0.62044 0.0
N1120 N 0.82227 0.72287 0.62367 0.0
N1121 N 0.83766 0.67125 0.61151 0.0
H1122 H 0.95064 0.14912 0.40242 0.0
H1123 H 0.05346 0.15948 0.34256 0.0
H1124 H 0.95147 0.14593 0.33746 0.0
H1125 H 0.04426 0.19038 0.39907 0.0
H1126 H 0.01652 0.15287 0.34039 0.0
H1127 H 0.98566 0.16265 0.402 0.0
C1128 C 0.95815 0.1514 0.38809 0.0
C1129 C 0.94823 0.14633 0.36996 0.0
C1130 C 0.02262 0.16136 0.35309 0.0
C1131 C 0.98819 0.16149 0.36939 0.0
C1132 C 0.04364 0.16509 0.35434 0.0
C1133 C 0.0519 0.17534 0.37108 0.0
C1134 C 0.00995 0.16757 0.36888 0.0
C1135 C 0.03853 0.18234 0.38593 0.0
C1136 C 0.97805 0.1592 0.38785 0.0
C1137 C 0.95859 0.14967 0.35178 0.0
N1138 N 0.01823 0.17804 0.38465 0.0
N1139 N 0.97816 0.15678 0.35196 0.0
H1140 H 0.66128 0.22218 0.11548 0.0
H1141 H 0.64175 0.33576 0.08976 0.0
H1142 H 0.63957 0.24405 0.05826 0.0
H1143 H 0.64627 0.31123 0.14965 0.0
H1144 H 0.65609 0.30488 0.07622 0.0
H1145 H 0.67062 0.25655 0.12521 0.0
C1146 C 0.65891 0.23416 0.10476 0.0
C1147 C 0.64897 0.23039 0.0863 0.0
C1148 C 0.65453 0.30651 0.09237 0.0
C1149 C 0.65956 0.26967 0.09741 0.0
C1150 C 0.6464 0.32417 0.10015 0.0
C1151 C 0.64212 0.32571 0.1208 0.0
C1152 C 0.65834 0.29041 0.10537 0.0
C1153 C 0.64879 0.3104 0.13356 0.0
C1154 C 0.66429 0.25377 0.11033 0.0
C1155 C 0.64673 0.24638 0.07284 0.0
N1156 N 0.65613 0.29315 0.12559 0.0
N1157 N 0.65154 0.26544 0.07885 0.0
H1158 H 0.43717 0.8094 0.89429 0.0
H1159 H 0.52364 0.85367 0.82282 0.0
H1160 H 0.42203 0.84269 0.84071 0.0
H1161 H 0.53039 0.85091 0.88745 0.0
H1162 H 0.48791 0.84236 0.82614 0.0
H1163 H 0.4733 0.81691 0.88857 0.0
C1164 C 0.44145 0.81808 0.88116 0.0
C1165 C 0.42658 0.82558 0.86801 0.0
C1166 C 0.49731 0.84417 0.83953 0.0
C1167 C 0.46786 0.83406 0.86141 0.0
C1168 C 0.51765 0.8505 0.83767 0.0
C1169 C 0.52989 0.85328 0.85492 0.0
C1170 C 0.48941 0.84017 0.8587 0.0
C1171 C 0.5214 0.84908 0.8738 0.0
C1172 C 0.46205 0.82243 0.87801 0.0
C1173 C 0.43303 0.83675 0.85127 0.0
N1174 N 0.50167 0.84263 0.87519 0.0
N1175 N 0.45328 0.84068 0.84841 0.0
H1176 H 0.87041 0.22256 0.91541 0.0
H1177 H 0.87579 0.2819 0.81347 0.0
H1178 H 0.8393 0.20229 0.86126 0.0
H1179 H 0.8829 0.31268 0.87051 0.0
H1180 H 0.86289 0.25227 0.8311 0.0
H1181 H 0.8754 0.25569 0.90001 0.0
C1182 C 0.86439 0.22512 0.90043 0.0
C1183 C 0.85469 0.20952 0.8895 0.0
C1184 C 0.86703 0.26557 0.83978 0.0
C1185 C 0.86054 0.24718 0.87184 0.0
C1186 C 0.8745 0.28243 0.82972 0.0
C1187 C 0.88054 0.29965 0.84059 0.0
C1188 C 0.86603 0.26576 0.86089 0.0
C1189 C 0.87838 0.29965 0.86162 0.0
C1190 C 0.86721 0.24403 0.89169 0.0
C1191 C 0.84708 0.21375 0.8702 0.0
N1192 N 0.87159 0.28278 0.87117 0.0
N1193 N 0.85044 0.23207 0.86188 0.0
H1194 H 0.4153 0.09809 0.67792 0.0
H1195 H 0.52228 0.10492 0.62223 0.0
H1196 H 0.42302 0.09258 0.61358 0.0
H1197 H 0.51379 0.11694 0.68557 0.0
H1198 H 0.48723 0.09188 0.62021 0.0
H1199 H 0.45225 0.09566 0.68225 0.0
C1200 C 0.42468 0.09583 0.66473 0.0
C1201 C 0.41611 0.09612 0.64531 0.0
C1202 C 0.49311 0.09713 0.63461 0.0
C1203 C 0.45839 0.09364 0.65016 0.0
C1204 C 0.5131 0.10464 0.63576 0.0
C1205 C 0.52079 0.11243 0.654 0.0
C1206 C 0.48068 0.09753 0.65179 0.0
C1207 C 0.50834 0.11138 0.67113 0.0
C1208 C 0.44581 0.09457 0.66721 0.0
C1209 C 0.42902 0.09291 0.62881 0.0
N1210 N 0.48879 0.10435 0.66954 0.0
N1211 N 0.44956 0.09221 0.63158 0.0
H1212 H 0.63217 0.79764 0.33379 0.0
H1213 H 0.60394 0.68436 0.36285 0.0
H1214 H 0.6168 0.77969 0.39438 0.0
H1215 H 0.59803 0.708 0.30267 0.0
H1216 H 0.61471 0.7178 0.37474 0.0
H1217 H 0.62569 0.76322 0.32235 0.0
C1218 C 0.62754 0.78644 0.34473 0.0
C1219 C 0.62488 0.79158 0.36507 0.0
C1220 C 0.61112 0.71559 0.35893 0.0
C1221 C 0.61753 0.75217 0.35202 0.0
C1222 C 0.60508 0.69653 0.35211 0.0
C1223 C 0.59996 0.69345 0.33176 0.0
C1224 C 0.61229 0.73156 0.34525 0.0
C1225 C 0.60166 0.70975 0.31851 0.0
C1226 C 0.6238 0.76682 0.33815 0.0
C1227 C 0.61887 0.77642 0.37854 0.0
N1228 N 0.60769 0.72812 0.3255 0.0
N1229 N 0.61539 0.75735 0.37177 0.0
H1230 H 0.08195 0.88827 0.15727 0.0
H1231 H 0.96705 0.89538 0.11906 0.0
H1232 H 0.06376 0.89518 0.09512 0.0
H1233 H 0.98477 0.87625 0.17859 0.0
H1234 H 0.00239 0.90576 0.11269 0.0
H1235 H 0.04677 0.89456 0.16749 0.0
C1236 C 0.07069 0.89161 0.1458 0.0
C1237 C 0.07564 0.89067 0.12527 0.0
C1238 C -0.00152 0.89959 0.12727 0.0
C1239 C 0.03546 0.89771 0.13686 0.0
C1240 C 0.97831 0.89365 0.13091 0.0
C1241 C 0.9731 0.88448 0.1492 0.0
C1242 C 0.01352 0.89624 0.14198 0.0
C1243 C 0.98823 0.88291 0.16413 0.0
C1244 C 0.05059 0.89511 0.15165 0.0
C1245 C 0.06049 0.89529 0.11108 0.0
N1246 N 0.00785 0.88842 0.16007 0.0
N1247 N 0.04099 0.89828 0.11713 0.0
H1248 H 0.61943 0.88162 0.6617 0.0
H1249 H 0.64783 0.86222 0.77673 0.0
H1250 H 0.67895 0.89311 0.68811 0.0
H1251 H 0.58606 0.86112 0.75347 0.0
H1252 H 0.66063 0.86518 0.74244 0.0
H1253 H 0.60837 0.86613 0.69325 0.0
C1254 C 0.63026 0.88063 0.67404 0.0
C1255 C 0.65002 0.88898 0.67245 0.0
C1256 C 0.64428 0.86402 0.7448 0.0
C1257 C 0.6375 0.87132 0.70846 0.0
C1258 C 0.63695 0.8623 0.76437 0.0
C1259 C 0.61584 0.86185 0.76795 0.0
C1260 C 0.63038 0.86541 0.72871 0.0
C1261 C 0.60246 0.8617 0.75137 0.0
C1262 C 0.62393 0.87181 0.69203 0.0
C1263 C 0.66347 0.88714 0.68882 0.0
N1264 N 0.60996 0.86379 0.73244 0.0
N1265 N 0.65689 0.87869 0.70622 0.0
H1266 H 0.87772 0.81012 0.5191 0.0
H1267 H 0.89957 0.90589 0.45283 0.0
H1268 H 0.91229 0.86173 0.54097 0.0
H1269 H 0.8833 0.84819 0.42674 0.0
H1270 H 0.90629 0.8894 0.48487 0.0
H1271 H 0.8811 0.82297 0.4848 0.0
C1272 C 0.88619 0.82403 0.51669 0.0
C1273 C 0.89447 0.835 0.53297 0.0
C1274 C 0.90159 0.88028 0.47205 0.0
C1275 C 0.89829 0.8498 0.49385 0.0
C1276 C 0.89774 0.88971 0.45376 0.0
C1277 C 0.89062 0.87843 0.43719 0.0
C1278 C 0.89791 0.8595 0.47387 0.0
C1279 C 0.88867 0.85747 0.43918 0.0
C1280 C 0.88819 0.83131 0.4971 0.0
C1281 C 0.90546 0.85284 0.52892 0.0
N1282 N 0.89192 0.84872 0.45732 0.0
N1283 N 0.90679 0.85983 0.50981 0.0
H1284 H 0.79564 0.09585 0.20406 0.0
H1285 H 0.89225 0.12589 0.27222 0.0
H1286 H 0.85716 0.10125 0.18111 0.0
H1287 H 0.83098 0.11731 0.29488 0.0
H1288 H 0.87901 0.12205 0.23787 0.0
H1289 H 0.80766 0.10884 0.23643 0.0
C1290 C 0.81167 0.0999 0.20577 0.0
C1291 C 0.82548 0.09714 0.18993 0.0
C1292 C 0.86845 0.12122 0.25036 0.0
C1293 C 0.83937 0.11196 0.22705 0.0
C1294 C 0.87599 0.12343 0.26995 0.0
C1295 C 0.86272 0.12161 0.2864 0.0
C1296 C 0.84752 0.11715 0.24727 0.0
C1297 C 0.84179 0.11856 0.28263 0.0
C1298 C 0.81852 0.10735 0.22428 0.0
C1299 C 0.84601 0.10293 0.19297 0.0
N1300 N 0.83486 0.11624 0.26346 0.0
N1301 N 0.85239 0.10985 0.21126 0.0
H1302 H 0.60636 0.13019 0.9153 0.0
H1303 H 0.58045 0.1072 0.03016 0.0
H1304 H 0.60128 0.07031 0.93993 0.0
H1305 H 0.6037 0.16426 0.00854 0.0
H1306 H 0.57869 0.09491 -0.00454 0.0
H1307 H 0.59549 0.14391 0.94758 0.0
C1308 C 0.60258 0.11988 0.92735 0.0
C1309 C 0.60519 0.09907 0.92505 0.0
C1310 C 0.58393 0.11019 -0.00167 0.0
C1311 C 0.59284 0.11474 0.96199 0.0
C1312 C 0.58494 0.11724 0.01812 0.0
C1313 C 0.59259 0.13669 0.02227 0.0
C1314 C 0.59047 0.12271 0.98262 0.0
C1315 C 0.59803 0.14906 0.00605 0.0
C1316 C 0.59646 0.12775 0.94579 0.0
C1317 C 0.59984 0.08646 0.94114 0.0
N1318 N 0.59703 0.1418 0.98693 0.0
N1319 N 0.59418 0.09453 0.95905 0.0
H1320 H 0.60732 0.14908 0.82184 0.0
H1321 H 0.65071 0.16261 0.71063 0.0
H1322 H 0.6693 0.13547 0.80508 0.0
H1323 H 0.5869 0.15481 0.72549 0.0
H1324 H 0.65904 0.16317 0.74668 0.0
H1325 H 0.60157 0.16267 0.78824 0.0
C1326 C 0.61989 0.14942 0.81128 0.0
C1327 C 0.63866 0.14069 0.81606 0.0
C1328 C 0.64321 0.16162 0.74198 0.0
C1329 C 0.6321 0.15601 0.77765 0.0
C1330 C 0.63844 0.16128 0.72147 0.0
C1331 C 0.61813 0.15827 0.71511 0.0
C1332 C 0.62751 0.1592 0.75613 0.0
C1333 C 0.60281 0.15676 0.72975 0.0
C1334 C 0.61655 0.15707 0.79207 0.0
C1335 C 0.65446 0.14173 0.80186 0.0
N1336 N 0.60783 0.15711 0.74959 0.0
N1337 N 0.65072 0.14892 0.78312 0.0
H1338 H 0.62246 0.83981 0.47886 0.0
H1339 H 0.63757 0.94105 0.539 0.0
H1340 H 0.60247 0.89724 0.45683 0.0
H1341 H 0.64068 0.88321 0.568 0.0
H1342 H 0.62191 0.92485 0.50963 0.0
H1343 H 0.62574 0.85442 0.51268 0.0
C1344 C 0.61828 0.85533 0.48123 0.0
C1345 C 0.61264 0.86747 0.46497 0.0
C1346 C 0.62575 0.91569 0.5225 0.0
C1347 C 0.61665 0.88429 0.50336 0.0
C1348 C 0.63482 0.92494 0.53922 0.0
C1349 C 0.6407 0.91341 0.55581 0.0
C1350 C 0.62291 0.8947 0.52219 0.0
C1351 C 0.63651 0.89263 0.55543 0.0
C1352 C 0.62021 0.86369 0.50051 0.0
C1353 C 0.60729 0.88745 0.46887 0.0
N1354 N 0.62818 0.88386 0.53871 0.0
N1355 N 0.6098 0.89534 0.48759 0.0
H1356 H 0.90224 0.84553 0.3229 0.0
H1357 H 0.85092 0.82763 0.21485 0.0
H1358 H 0.83781 0.85212 0.31072 0.0
H1359 H 0.91536 0.83916 0.22479 0.0
H1360 H 0.84587 0.82703 0.25133 0.0
H1361 H 0.90684 0.83316 0.28851 0.0
C1362 C 0.88899 0.84396 0.31314 0.0
C1363 C 0.86968 0.85022 0.31951 0.0
C1364 C 0.86114 0.82942 0.24548 0.0
C1365 C 0.87487 0.83624 0.28023 0.0
C1366 C 0.86405 0.82974 0.22468 0.0
C1367 C 0.88354 0.83382 0.21678 0.0
C1368 C 0.87785 0.83303 0.25842 0.0
C1369 C 0.90001 0.83633 0.23023 0.0
C1370 C 0.89165 0.837 0.2935 0.0
C1371 C 0.85302 0.84775 0.30629 0.0
N1372 N 0.89676 0.83606 0.2504 0.0
N1373 N 0.85604 0.84119 0.28715 0.0
H1374 H 0.88126 0.166 0.00135 0.0
H1375 H 0.87315 0.06688 0.06282 0.0
H1376 H 0.90044 0.10858 0.97819 0.0
H1377 H 0.87057 0.12546 0.09085 0.0
H1378 H 0.88898 0.0822 0.03333 0.0
H1379 H 0.88331 0.15263 0.03551 0.0
C1380 C 0.88641 0.15075 0.00348 0.0
C1381 C 0.89013 0.1382 0.98691 0.0
C1382 C 0.88538 0.09169 0.04609 0.0
C1383 C 0.89217 0.12272 0.02582 0.0
C1384 C 0.8763 0.08293 0.06291 0.0
C1385 C 0.87017 0.09498 0.07908 0.0
C1386 C 0.88787 0.11271 0.04526 0.0
C1387 C 0.87483 0.11565 0.07856 0.0
C1388 C 0.88756 0.1431 0.02299 0.0
C1389 C 0.89696 0.11864 0.99053 0.0
N1390 N 0.88297 0.12396 0.06169 0.0
N1391 N 0.89731 0.11136 0.00957 0.0
H1392 H 0.76453 0.61889 0.85174 0.0
H1393 H 0.64675 0.58742 0.86165 0.0
H1394 H 0.74412 0.56047 0.87228 0.0
H1395 H 0.66914 0.64698 0.8471 0.0
H1396 H 0.6818 0.57503 0.85919 0.0
H1397 H 0.72931 0.62706 0.8436 0.0
C1398 C 0.75263 0.6077 0.85439 0.0
C1399 C 0.7572 0.5891 0.863 0.0
C1400 C 0.67895 0.59074 0.85624 0.0
C1401 C 0.71674 0.59842 0.85386 0.0
C1402 C 0.65896 0.59778 0.85754 0.0
C1403 C 0.65513 0.6183 0.8549 0.0
C1404 C 0.69507 0.60434 0.85216 0.0
C1405 C 0.67147 0.6311 0.84961 0.0
C1406 C 0.7325 0.61237 0.84971 0.0
C1407 C 0.74121 0.57508 0.86583 0.0
N1408 N 0.69072 0.62394 0.84861 0.0
N1409 N 0.7216 0.58013 0.86152 0.0
H1410 H 0.28762 0.90535 0.09416 0.0
H1411 H 0.19204 0.8326 0.07116 0.0
H1412 H 0.29135 0.84056 0.09407 0.0
H1413 H 0.18594 0.89319 0.09376 0.0
H1414 H 0.22923 0.83656 0.07317 0.0
H1415 H 0.25088 0.90228 0.0875 0.0
C1416 C 0.28076 0.89049 0.09254 0.0
C1417 C 0.2925 0.87316 0.09482 0.0
C1418 C 0.21972 0.84899 0.07762 0.0
C1419 C 0.25064 0.86961 0.08717 0.0
C1420 C 0.19854 0.84677 0.07644 0.0
C1421 C 0.18595 0.86256 0.08246 0.0
C1422 C 0.22833 0.86719 0.08462 0.0
C1423 C 0.19513 0.8806 0.08914 0.0
C1424 C 0.25981 0.88877 0.08885 0.0
C1425 C 0.28282 0.85429 0.09261 0.0
N1426 N 0.21582 0.88244 0.09004 0.0
N1427 N 0.26242 0.85301 0.08891 0.0
H1428 H 0.88598 0.52093 0.89589 0.0
H1429 H 0.84913 0.41323 0.85424 0.0
H1430 H 0.82421 0.50807 0.87579 0.0
H1431 H 0.91229 0.43298 0.85685 0.0
H1432 H 0.83907 0.44571 0.86835 0.0
H1433 H 0.89503 0.48634 0.88793 0.0
C1434 C 0.87426 0.5108 0.88998 0.0
C1435 C 0.85435 0.51748 0.88629 0.0
C1436 C 0.85513 0.44284 0.86594 0.0
C1437 C 0.86464 0.47788 0.87719 0.0
C1438 C 0.86088 0.42432 0.85797 0.0
C1439 C 0.88155 0.42052 0.85421 0.0
C1440 C 0.87019 0.4575 0.87037 0.0
C1441 C 0.89616 0.43538 0.85933 0.0
C1442 C 0.87947 0.49108 0.88538 0.0
C1443 C 0.8398 0.50363 0.87867 0.0
N1444 N 0.89019 0.45324 0.8671 0.0
N1445 N 0.84526 0.48449 0.87429 0.0
H1446 H 0.18957 0.1476 0.61406 0.0
H1447 H 0.29664 0.09375 0.62756 0.0
H1448 H 0.19698 0.08366 0.60591 0.0
H1449 H 0.29166 0.15665 0.61286 0.0
H1450 H 0.25942 0.09008 0.62453 0.0
H1451 H 0.22663 0.15151 0.61772 0.0
C1452 C 0.199 0.13441 0.61292 0.0
C1453 C 0.19021 0.11528 0.60965 0.0
C1454 C 0.26652 0.10468 0.62203 0.0
C1455 C 0.23247 0.11962 0.61416 0.0
C1456 C 0.28769 0.10682 0.62393 0.0
C1457 C 0.29718 0.12551 0.62041 0.0
C1458 C 0.25483 0.12142 0.61686 0.0
C1459 C 0.28492 0.14195 0.61562 0.0
C1460 C 0.22012 0.13665 0.61502 0.0
C1461 C 0.20314 0.0987 0.6083 0.0
N1462 N 0.26435 0.13953 0.614 0.0
N1463 N 0.22365 0.10123 0.61073 0.0
H1464 H 0.16693 -0.00246 0.8859 0.0
H1465 H 0.07383 0.06996 0.88286 0.0
H1466 H 0.10481 0.97941 0.89921 0.0
H1467 H 0.13647 0.08989 0.8757 0.0
H1468 H 0.08583 0.03872 0.89746 0.0
H1469 H 0.15748 0.03263 0.89056 0.0
C1470 C 0.1514 0.00091 0.89021 0.0
C1471 C 0.13647 0.98562 0.89157 0.0
C1472 C 0.097 0.05007 0.8931 0.0
C1473 C 0.1255 0.02566 0.89669 0.0
C1474 C 0.09012 0.06792 0.88476 0.0
C1475 C 0.1042 0.08224 0.87757 0.0
C1476 C 0.11808 0.04637 0.89382 0.0
C1477 C 0.12511 0.07904 0.88074 0.0
C1478 C 0.14601 0.02096 0.89289 0.0
C1479 C 0.11669 0.99079 0.89752 0.0
N1480 N 0.13146 0.06119 0.88818 0.0
N1481 N 0.11167 0.01041 0.89945 0.0
H1482 H 0.81898 0.39965 0.35423 0.0
H1483 H 0.70535 0.35333 0.34915 0.0
H1484 H 0.80484 0.33607 0.35074 0.0
H1485 H 0.71879 0.41509 0.36562 0.0
H1486 H 0.74188 0.34757 0.34567 0.0
H1487 H 0.78224 0.4065 0.35384 0.0
C1488 C 0.80817 0.38718 0.35311 0.0
C1489 C 0.81493 0.36727 0.35268 0.0
C1490 C 0.73684 0.36238 0.35006 0.0
C1491 C 0.7731 0.37494 0.35235 0.0
C1492 C 0.71598 0.36568 0.35208 0.0
C1493 C 0.70899 0.38469 0.3578 0.0
C1494 C 0.75085 0.37823 0.35368 0.0
C1495 C 0.72349 0.40014 0.36132 0.0
C1496 C 0.78725 0.39107 0.35304 0.0
C1497 C 0.8003 0.35165 0.35131 0.0
N1498 N 0.74376 0.39657 0.35919 0.0
N1499 N 0.78009 0.35582 0.35127 0.0
H1500 H 0.88702 0.4519 0.64135 0.0
H1501 H 0.90404 0.56452 0.62016 0.0
H1502 H 0.91903 0.46682 0.58666 0.0
H1503 H 0.93043 0.5411 0.67472 0.0
H1504 H 0.90047 0.52993 0.60703 0.0
H1505 H 0.89384 0.4862 0.65396 0.0
C1506 C 0.89544 0.46246 0.63203 0.0
C1507 C 0.90255 0.45673 0.61302 0.0
C1508 C 0.9071 0.53251 0.62182 0.0
C1509 C 0.90982 0.49563 0.62701 0.0
C1510 C 0.90902 0.55207 0.62933 0.0
C1511 C 0.91754 0.55547 0.64848 0.0
C1512 C 0.91309 0.5164 0.63388 0.0
C1513 C 0.92388 0.53897 0.65983 0.0
C1514 C 0.89937 0.48185 0.63924 0.0
C1515 C 0.91345 0.4708 0.60145 0.0
N1516 N 0.92121 0.52001 0.65249 0.0
N1517 N 0.9165 0.48984 0.60851 0.0
H1518 H 0.56783 0.52946 0.086 0.0
H1519 H 0.60941 0.41853 0.09971 0.0
H1520 H 0.6317 0.51416 0.08431 0.0
H1521 H 0.54693 0.43555 0.11042 0.0
H1522 H 0.61641 0.45185 0.08597 0.0
H1523 H 0.55882 0.49372 0.0868 0.0
C1524 C 0.57996 0.51857 0.08549 0.0
C1525 C 0.60057 0.52477 0.08549 0.0
C1526 C 0.6011 0.4482 0.09108 0.0
C1527 C 0.59036 0.4839 0.08652 0.0
C1528 C 0.59707 0.42916 0.09892 0.0
C1529 C 0.57765 0.42438 0.10664 0.0
C1530 C 0.58563 0.46257 0.09099 0.0
C1531 C 0.56221 0.43868 0.10494 0.0
C1532 C 0.5748 0.49817 0.08597 0.0
C1533 C 0.61563 0.51003 0.0846 0.0
N1534 N 0.56661 0.45724 0.09755 0.0
N1535 N 0.61023 0.49025 0.08543 0.0
H1536 H 0.65109 0.7276 0.84737 0.0
H1537 H 0.62878 0.82952 0.90295 0.0
H1538 H 0.63781 0.73257 0.9108 0.0
H1539 H 0.64103 0.82356 0.83939 0.0
H1540 H 0.64226 0.79585 0.9082 0.0
H1541 H 0.65805 0.76372 0.84645 0.0
C1542 C 0.65005 0.73623 0.8612 0.0
C1543 C 0.64323 0.72724 0.87903 0.0
C1544 C 0.64241 0.80209 0.89317 0.0
C1545 C 0.65076 0.76856 0.87804 0.0
C1546 C 0.63473 0.82132 0.89018 0.0
C1547 C 0.63317 0.82902 0.87062 0.0
C1548 C 0.64843 0.79059 0.87645 0.0
C1549 C 0.64137 0.81791 0.85465 0.0
C1550 C 0.65401 0.75687 0.86068 0.0
C1551 C 0.64256 0.73902 0.8966 0.0
N1552 N 0.64829 0.7991 0.85787 0.0
N1553 N 0.64576 0.7592 0.89557 0.0
H1554 H 0.53975 0.32225 0.09379 0.0
H1555 H 0.42797 0.31612 0.13791 0.0
H1556 H 0.52663 0.32856 0.15716 0.0
H1557 H 0.443 0.29112 0.07982 0.0
H1558 H 0.4644 0.31957 0.14557 0.0
H1559 H 0.5048 0.30944 0.08831 0.0
C1560 C 0.52962 0.3207 0.10656 0.0
C1561 C 0.53596 0.32676 0.12588 0.0
C1562 C 0.45975 0.31306 0.13125 0.0
C1563 C 0.49612 0.31234 0.11975 0.0
C1564 C 0.43896 0.31114 0.12688 0.0
C1565 C 0.43251 0.30353 0.10815 0.0
C1566 C 0.47416 0.30767 0.11664 0.0
C1567 C 0.44736 0.29716 0.09442 0.0
C1568 C 0.50971 0.31336 0.10345 0.0
C1569 C 0.52229 0.32431 0.14195 0.0
N1570 N 0.46754 0.29968 0.09881 0.0
N1571 N 0.50293 0.31756 0.13848 0.0
H1572 H 0.85308 0.16694 0.41852 0.0
H1573 H 0.82855 0.26222 0.35305 0.0
H1574 H 0.83518 0.16529 0.35587 0.0
H1575 H 0.8518 0.26438 0.414 0.0
H1576 H 0.8202 0.2266 0.35741 0.0
H1577 H 0.84155 0.20166 0.42064 0.0
C1578 C 0.84617 0.17367 0.40538 0.0
C1579 C 0.8457 0.16351 0.38682 0.0
C1580 C 0.82678 0.23495 0.36997 0.0
C1581 C 0.83281 0.20317 0.38904 0.0
C1582 C 0.83159 0.25528 0.36746 0.0
C1583 C 0.84145 0.26608 0.38298 0.0
C1584 C 0.83211 0.22536 0.38802 0.0
C1585 C 0.84466 0.25646 0.40147 0.0
C1586 C 0.83968 0.19353 0.40656 0.0
C1587 C 0.83638 0.17284 0.37033 0.0
N1588 N 0.84038 0.23653 0.40335 0.0
N1589 N 0.8307 0.19231 0.37171 0.0
H1590 H 0.94763 0.65739 0.61188 0.0
H1591 H 0.06642 0.65585 0.63425 0.0
H1592 H 0.97189 0.64825 0.67166 0.0
H1593 H 0.04117 0.68829 0.58401 0.0
H1594 H 0.03189 0.65131 0.64771 0.0
H1595 H 0.9819 0.66731 0.60056 0.0
C1596 C 0.96014 0.65762 0.62263 0.0
C1597 C 0.957 0.65191 0.64268 0.0
C1598 C 0.03397 0.6596 0.63385 0.0
C1599 C -0.00391 0.66296 0.62985 0.0
C1600 C 0.05363 0.66213 0.62615 0.0
C1601 C 0.0566 0.67237 0.60797 0.0
C1602 C 0.0172 0.66704 0.62308 0.0
C1603 C 0.03953 0.68028 0.59808 0.0
C1604 C 0.97964 0.66333 0.61619 0.0
C1605 C 0.97368 0.65253 0.65605 0.0
N1606 N 0.0205 0.67724 0.60565 0.0
N1607 N 0.99259 0.65771 0.64933 0.0
H1608 H 0.61503 0.29693 0.58916 0.0
H1609 H 0.57213 0.21437 0.66426 0.0
H1610 H 0.61671 0.3049 0.65372 0.0
H1611 H 0.5996 0.19797 0.60763 0.0
H1612 H 0.58228 0.24934 0.65853 0.0
H1613 H 0.60377 0.26199 0.59386 0.0
C1614 C 0.61299 0.29133 0.60432 0.0
C1615 C 0.6168 0.30378 0.62111 0.0
C1616 C 0.586 0.23808 0.64735 0.0
C1617 C 0.60369 0.26408 0.62648 0.0
C1618 C 0.5801 0.21815 0.65051 0.0
C1619 C 0.5851 0.20325 0.6364 0.0
C1620 C 0.59667 0.2432 0.62982 0.0
C1621 C 0.59552 0.20902 0.61889 0.0
C1622 C 0.60665 0.27142 0.60695 0.0
C1623 C 0.61403 0.29576 0.6404 0.0
N1624 N 0.60094 0.22862 0.61604 0.0
N1625 N 0.60746 0.27641 0.64257 0.0
H1626 H 0.08123 0.3791 0.83653 0.0
H1627 H 0.96249 0.37078 0.86297 0.0
H1628 H 0.06025 0.37124 0.89762 0.0
H1629 H 0.98904 0.35064 0.80713 0.0
H1630 H -0.00295 0.37958 0.87542 0.0
H1631 H 0.04573 0.37859 0.82503 0.0
C1632 C 0.06917 0.37766 0.84758 0.0
C1633 C 0.0737 0.37484 0.86802 0.0
C1634 C -0.00485 0.3733 0.86043 0.0
C1635 C 0.03316 0.37417 0.85493 0.0
C1636 C 0.97555 0.36826 0.85337 0.0
C1637 C 0.97299 0.35973 0.83413 0.0
C1638 C 0.01207 0.37023 0.84791 0.0
C1639 C 0.99034 0.35687 0.82218 0.0
C1640 C 0.04894 0.37724 0.84098 0.0
C1641 C 0.05741 0.37314 0.88167 0.0
N1642 N 0.00913 0.36217 0.82925 0.0
N1643 N 0.0378 0.37263 0.87485 0.0
H1644 H 0.84367 0.70777 0.14651 0.0
H1645 H 0.93576 0.78323 0.13414 0.0
H1646 H 0.89878 0.68843 0.11719 0.0
H1647 H 0.87365 0.80235 0.12512 0.0
H1648 H 0.92389 0.7481 0.13177 0.0
H1649 H 0.85573 0.74275 0.1437 0.0
C1650 C 0.85835 0.7109 0.1396 0.0
C1651 C 0.8703 0.69528 0.1321 0.0
C1652 C 0.91297 0.76005 0.13006 0.0
C1653 C 0.88411 0.73498 0.12898 0.0
C1654 C 0.91969 0.78003 0.13139 0.0
C1655 C 0.90563 0.79566 0.12997 0.0
C1656 C 0.89201 0.7558 0.12785 0.0
C1657 C 0.88498 0.79075 0.12638 0.0
C1658 C 0.8651 0.7308 0.13784 0.0
C1659 C 0.88912 0.70011 0.12311 0.0
N1660 N 0.87871 0.7712 0.12584 0.0
N1661 N 0.89559 0.71958 0.12199 0.0
H1662 H 0.40397 0.62169 0.35513 0.0
H1663 H 0.52557 0.62282 0.36727 0.0
H1664 H 0.43474 0.62687 0.41269 0.0
H1665 H 0.4941 0.63724 0.31198 0.0
H1666 H 0.49245 0.61804 0.38372 0.0
H1667 H 0.43724 0.62044 0.33862 0.0
C1668 C 0.4177 0.62228 0.36432 0.0
C1669 C 0.41662 0.62463 0.38529 0.0
C1670 C 0.49286 0.62221 0.36797 0.0
C1671 C 0.45459 0.6233 0.36652 0.0
C1672 C 0.51172 0.62495 0.35859 0.0
C1673 C 0.51258 0.63062 0.33828 0.0
C1674 C 0.4748 0.62493 0.35688 0.0
C1675 C 0.49416 0.6331 0.32772 0.0
C1676 C 0.43666 0.62169 0.35488 0.0
C1677 C 0.4349 0.62529 0.39645 0.0
N1678 N 0.47601 0.63022 0.33715 0.0
N1679 N 0.45317 0.62474 0.38691 0.0
H1680 H 0.89661 0.61196 0.84472 0.0
H1681 H 0.86906 0.61502 0.72722 0.0
H1682 H 0.83589 0.59961 0.82141 0.0
H1683 H 0.93052 0.61468 0.75133 0.0
H1684 H 0.85581 0.614 0.76169 0.0
H1685 H 0.90836 0.61822 0.81053 0.0
C1686 C 0.88569 0.61073 0.83245 0.0
C1687 C 0.86528 0.60502 0.83594 0.0
C1688 C 0.87218 0.61421 0.75937 0.0
C1689 C 0.87869 0.61207 0.79669 0.0
C1690 C 0.87975 0.61479 0.73973 0.0
C1691 C 0.90092 0.61476 0.73638 0.0
C1692 C 0.88591 0.61378 0.77569 0.0
C1693 C 0.91408 0.61452 0.75315 0.0
C1694 C 0.89243 0.61424 0.8129 0.0
C1695 C 0.85181 0.6038 0.81941 0.0
N1696 N 0.90635 0.61402 0.77204 0.0
N1697 N 0.85879 0.60716 0.80046 0.0
H1698 H 0.58364 0.5955 0.03752 0.0
H1699 H 0.60603 0.66956 0.94719 0.0
H1700 H 0.59627 0.65889 0.04603 0.0
H1701 H 0.57729 0.61117 0.9387 0.0
H1702 H 0.60203 0.66602 0.98346 0.0
H1703 H 0.57986 0.6011 0.00143 0.0
C1704 C 0.58532 0.61066 0.03181 0.0
C1705 C 0.59052 0.62674 0.04472 0.0
C1706 C 0.59646 0.65404 0.97367 0.0
C1707 C 0.58654 0.63318 0.00344 0.0
C1708 C 0.59889 0.65596 0.95295 0.0
C1709 C 0.59218 0.64052 0.9399 0.0
C1710 C 0.58749 0.63645 0.98146 0.0
C1711 C 0.5828 0.62338 0.94823 0.0
C1712 C 0.58315 0.61385 0.01121 0.0
C1713 C 0.59233 0.64609 0.03658 0.0
N1714 N 0.58091 0.62172 0.96852 0.0
N1715 N 0.59068 0.64873 0.01636 0.0
H1716 H 0.62283 0.38835 0.19772 0.0
H1717 H 0.59419 0.39813 0.31356 0.0
H1718 H 0.56061 0.39214 0.21874 0.0
H1719 H 0.65242 0.41868 0.29043 0.0
H1720 H 0.58238 0.39209 0.27901 0.0
H1721 H 0.63492 0.396 0.23199 0.0
C1722 C 0.61174 0.39085 0.20949 0.0
C1723 C 0.5907 0.38962 0.20538 0.0
C1724 C 0.59771 0.398 0.28152 0.0
C1725 C 0.60436 0.39808 0.24444 0.0
C1726 C 0.60447 0.40138 0.30121 0.0
C1727 C 0.62427 0.40893 0.30481 0.0
C1728 C 0.61098 0.40192 0.2654 0.0
C1729 C 0.63698 0.41292 0.28827 0.0
C1730 C 0.61863 0.39525 0.22898 0.0
C1731 C 0.57697 0.39302 0.22119 0.0
N1732 N 0.63016 0.40923 0.26924 0.0
N1733 N 0.58405 0.39693 0.24005 0.0
H1734 H 0.89257 0.35566 0.5376 0.0
H1735 H 0.89418 0.396 0.42437 0.0
H1736 H 0.88178 0.41749 0.52172 0.0
H1737 H 0.88509 0.33352 0.43998 0.0
H1738 H 0.8968 0.40435 0.46024 0.0
H1739 H 0.89708 0.34767 0.5019 0.0
C1740 C 0.89137 0.36759 0.52662 0.0
C1741 C 0.88658 0.38721 0.53255 0.0
C1742 C 0.89436 0.38881 0.45576 0.0
C1743 C 0.89176 0.37821 0.49185 0.0
C1744 C 0.89292 0.38402 0.43532 0.0
C1745 C 0.88917 0.36407 0.42921 0.0
C1746 C 0.89225 0.3735 0.47012 0.0
C1747 C 0.88772 0.34914 0.44403 0.0
C1748 C 0.89388 0.36301 0.50628 0.0
C1749 C 0.88524 0.40211 0.51774 0.0
N1750 N 0.8892 0.35418 0.46382 0.0
N1751 N 0.88774 0.39728 0.49803 0.0
H1752 H 0.92343 0.35817 0.75525 0.0
H1753 H 0.85708 0.37132 0.65558 0.0
H1754 H 0.85892 0.37097 0.7561 0.0
H1755 H 0.92193 0.36005 0.65638 0.0
H1756 H 0.85616 0.36646 0.69196 0.0
H1757 H 0.92184 0.35462 0.71894 0.0
C1758 C 0.90886 0.36023 0.74778 0.0
C1759 C 0.89129 0.36511 0.7587 0.0
C1760 C 0.87052 0.36479 0.68414 0.0
C1761 C 0.88941 0.36106 0.71688 0.0
C1762 C 0.87108 0.3675 0.66334 0.0
C1763 C 0.88971 0.36642 0.65294 0.0
C1764 C 0.88871 0.36102 0.6946 0.0
C1765 C 0.90728 0.36124 0.66377 0.0
C1766 C 0.90797 0.35811 0.72699 0.0
C1767 C 0.87283 0.36735 0.7482 0.0
N1768 N 0.90638 0.35898 0.68405 0.0
N1769 N 0.8724 0.36547 0.72777 0.0
H1770 H 0.811 0.56834 0.95971 0.0
H1771 H 0.86546 0.64222 0.0391 0.0
H1772 H 0.84539 0.62138 0.94231 0.0
H1773 H 0.84213 0.5831 0.05413 0.0
H1774 H 0.85807 0.63524 0.00361 0.0
H1775 H 0.82123 0.57428 0.99466 0.0
C1776 C 0.82062 0.5813 0.96326 0.0
C1777 C 0.82736 0.5944 0.94811 0.0
C1778 C 0.85476 0.62373 0.01465 0.0
C1779 C 0.83921 0.60122 0.98804 0.0
C1780 C 0.85903 0.62768 0.0349 0.0
C1781 C 0.85431 0.61325 0.04957 0.0
C1782 C 0.84551 0.6053 0.00911 0.0
C1783 C 0.846 0.59466 0.04331 0.0
C1784 C 0.82657 0.58461 0.9832 0.0
C1785 C 0.83985 0.61091 0.95355 0.0
N1786 N 0.84167 0.5913 0.02355 0.0
N1787 N 0.84536 0.61389 0.9731 0.0
H1788 H 0.62995 0.60385 0.26844 0.0
H1789 H 0.57754 0.6093 0.15969 0.0
H1790 H 0.56529 0.6124 0.25911 0.0
H1791 H 0.63673 0.58324 0.16984 0.0
H1792 H 0.57392 0.61384 0.1961 0.0
H1793 H 0.63396 0.59929 0.23199 0.0
C1794 C 0.61664 0.60473 0.25874 0.0
C1795 C 0.59728 0.60848 0.26675 0.0
C1796 C 0.58767 0.60709 0.19032 0.0
C1797 C 0.60173 0.60349 0.22529 0.0
C1798 C 0.58975 0.60455 0.16958 0.0
C1799 C 0.6074 0.59584 0.16179 0.0
C1800 C 0.60347 0.60106 0.20327 0.0
C1801 C 0.6228 0.58995 0.17524 0.0
C1802 C 0.61891 0.60211 0.238 0.0
C1803 C 0.5805 0.60948 0.25356 0.0
N1804 N 0.62051 0.59273 0.19535 0.0
N1805 N 0.58313 0.60709 0.23347 0.0
H1806 H 0.61498 0.40519 0.52669 0.0
H1807 H 0.61856 0.34832 0.42046 0.0
H1808 H 0.61389 0.34052 0.52049 0.0
H1809 H 0.6224 0.41281 0.42817 0.0
H1810 H 0.61204 0.34498 0.45663 0.0
H1811 H 0.61272 0.40811 0.49015 0.0
C1812 C 0.61407 0.3916 0.51764 0.0
C1813 C 0.61489 0.3726 0.5266 0.0
C1814 C 0.61414 0.35985 0.45032 0.0
C1815 C 0.61248 0.37579 0.48476 0.0
C1816 C 0.61783 0.36176 0.4297 0.0
C1817 C 0.62134 0.38084 0.42136 0.0
C1818 C 0.61391 0.37715 0.46257 0.0
C1819 C 0.62012 0.39776 0.43399 0.0
C1820 C 0.6128 0.39326 0.49677 0.0
C1821 C 0.61348 0.35548 0.51416 0.0
N1822 N 0.61666 0.3955 0.45396 0.0
N1823 N 0.61257 0.35748 0.49383 0.0
H1824 H 0.75546 0.93666 0.59336 0.0
H1825 H 0.80838 0.83081 0.60662 0.0
H1826 H 0.72314 0.88429 0.61575 0.0
H1827 H 0.84262 0.88688 0.60743 0.0
H1828 H 0.77664 0.84969 0.60694 0.0
H1829 H 0.78741 0.91807 0.59503 0.0
C1830 C 0.75508 0.92125 0.59857 0.0
C1831 C 0.73663 0.91199 0.60441 0.0
C1832 C 0.79111 0.85784 0.60719 0.0
C1833 C 0.77302 0.89071 0.60629 0.0
C1834 C 0.80922 0.84709 0.60697 0.0
C1835 C 0.82815 0.85731 0.60698 0.0
C1836 C 0.79194 0.87893 0.60708 0.0
C1837 C 0.82834 0.87842 0.60749 0.0
C1838 C 0.77331 0.91071 0.59963 0.0
C1839 C 0.73703 0.89203 0.61115 0.0
N1840 N 0.81048 0.88856 0.60733 0.0
N1841 N 0.75493 0.882 0.61178 0.0
H1842 H 0.2083 0.64702 0.40876 0.0
H1843 H 0.31696 0.59833 0.42611 0.0
H1844 H 0.22156 0.58525 0.39417 0.0
H1845 H 0.30005 0.65515 0.4524 0.0
H1846 H 0.28148 0.59256 0.4159 0.0
H1847 H 0.2414 0.65003 0.42594 0.0
C1848 C 0.21815 0.63409 0.40923 0.0
C1849 C 0.21231 0.61593 0.39988 0.0
C1850 C 0.28545 0.60617 0.42414 0.0
C1851 C 0.25006 0.61923 0.41946 0.0
C1852 C 0.3057 0.60946 0.42999 0.0
C1853 C 0.31145 0.62734 0.4399 0.0
C1854 C 0.27092 0.62101 0.42799 0.0
C1855 C 0.29626 0.6412 0.44468 0.0
C1856 C 0.23698 0.63577 0.41912 0.0
C1857 C 0.22554 0.59958 0.40107 0.0
N1858 N 0.2767 0.63788 0.4384 0.0
N1859 N 0.24387 0.60168 0.41053 0.0
H1860 H 0.65797 0.09685 0.63004 0.0
H1861 H 0.61774 0.9824 0.63192 0.0
H1862 H 0.59506 0.07882 0.63976 0.0
H1863 H 0.68152 -0.00077 0.62683 0.0
H1864 H 0.60912 0.01794 0.63342 0.0
H1865 H 0.6669 0.06132 0.62692 0.0
C1866 C 0.64604 0.08546 0.63137 0.0
C1867 C 0.62577 0.09082 0.63526 0.0
C1868 C 0.62501 0.01388 0.63199 0.0
C1869 C 0.63586 0.05026 0.63183 0.0
C1870 C 0.62993 0.99359 0.63117 0.0
C1871 C 0.65036 0.98787 0.62928 0.0
C1872 C 0.64064 0.02859 0.63086 0.0
C1873 C 0.66556 0.003 0.62834 0.0
C1874 C 0.65115 0.0652 0.62968 0.0
C1875 C 0.61092 0.07543 0.63689 0.0
N1876 N 0.66039 0.02269 0.62912 0.0
N1877 N 0.61627 0.05589 0.63521 0.0
H1878 H 0.20087 0.33938 0.91508 0.0
H1879 H 0.28175 0.42771 0.89659 0.0
H1880 H 0.18335 0.39974 0.8997 0.0
H1881 H 0.29608 0.3653 0.8865 0.0
H1882 H 0.24628 0.41792 0.90297 0.0
H1883 H 0.23672 0.34898 0.90986 0.0
C1884 C 0.20459 0.35468 0.91072 0.0
C1885 C 0.18918 0.36881 0.90776 0.0
C1886 C 0.2572 0.40639 0.89934 0.0
C1887 C 0.22998 0.37981 0.90191 0.0
C1888 C 0.27745 0.41192 0.89579 0.0
C1889 C 0.29186 0.39727 0.89099 0.0
C1890 C 0.25137 0.38604 0.89838 0.0
C1891 C 0.28541 0.37706 0.89007 0.0
C1892 C 0.22499 0.36008 0.90765 0.0
C1893 C 0.19479 0.38839 0.90205 0.0
N1894 N 0.2656 0.372 0.89384 0.0
N1895 N 0.21479 0.39335 0.89938 0.0
H1896 H 0.33392 0.38472 0.62987 0.0
H1897 H 0.35557 0.50288 0.6186 0.0
H1898 H 0.39438 0.41181 0.62968 0.0
H1899 H 0.29642 0.47747 0.63362 0.0
H1900 H 0.36949 0.46905 0.61784 0.0
H1901 H 0.31934 0.41819 0.62609 0.0
C1902 C 0.34412 0.39766 0.62881 0.0
C1903 C 0.36538 0.3955 0.63026 0.0
C1904 C 0.35346 0.47089 0.62128 0.0
C1905 C 0.34885 0.43371 0.62601 0.0
C1906 C 0.34549 0.4902 0.62171 0.0
C1907 C 0.32482 0.49303 0.62633 0.0
C1908 C 0.34064 0.45428 0.62534 0.0
C1909 C 0.31248 0.47601 0.63016 0.0
C1910 C 0.3358 0.41675 0.62677 0.0
C1911 C 0.37789 0.41279 0.62882 0.0
N1912 N 0.32059 0.45735 0.62959 0.0
N1913 N 0.36943 0.43116 0.62684 0.0
H1914 H 0.77311 0.12487 0.10068 0.0
H1915 H 0.65435 0.09463 0.10498 0.0
H1916 H 0.75136 0.06369 0.10786 0.0
H1917 H 0.67744 0.15349 0.08846 0.0
H1918 H 0.68965 0.08294 0.10724 0.0
H1919 H 0.73783 0.13563 0.09683 0.0
C1920 C 0.7609 0.11369 0.10132 0.0
C1921 C 0.76513 0.09339 0.10464 0.0
C1922 C 0.68691 0.09839 0.10309 0.0
C1923 C 0.72472 0.10557 0.10045 0.0
C1924 C 0.6668 0.10508 0.10188 0.0
C1925 C 0.66293 0.12506 0.09653 0.0
C1926 C 0.70318 0.11182 0.09904 0.0
C1927 C 0.67964 0.13794 0.0926 0.0
C1928 C 0.74076 0.11982 0.09914 0.0
C1929 C 0.74874 0.07951 0.10531 0.0
N1930 N 0.69899 0.13111 0.09398 0.0
N1931 N 0.72921 0.08588 0.10336 0.0
H1932 H 0.6534 0.03006 0.83452 0.0
H1933 H 0.56854 0.94368 0.8216 0.0
H1934 H 0.58909 0.04316 0.83834 0.0
H1935 H 0.62957 0.93465 0.84454 0.0
H1936 H 0.57581 0.98008 0.82027 0.0
H1937 H 0.64478 -0.00528 0.82921 0.0
C1938 C 0.63742 0.02552 0.834 0.0
C1939 C 0.62193 0.03945 0.83728 0.0
C1940 C 0.58753 0.97003 0.82555 0.0
C1941 C 0.61201 -0.00099 0.83134 0.0
C1942 C 0.58343 0.94936 0.82633 0.0
C1943 C 0.59847 0.93624 0.8333 0.0
C1944 C 0.60689 0.97737 0.83138 0.0
C1945 C 0.61749 0.94426 0.83923 0.0
C1946 C 0.63254 0.00534 0.83104 0.0
C1947 C 0.60148 0.03281 0.83608 0.0
N1948 N 0.62119 0.9643 0.83804 0.0
N1949 N 0.59706 0.0129 0.83342 0.0
H1950 H 0.86063 0.05318 0.37031 0.0
H1951 H 0.91519 0.94878 0.35781 0.0
H1952 H 0.92102 0.05154 0.3444 0.0
H1953 H 0.85019 0.9569 0.35058 0.0
H1954 H 0.92 0.98567 0.35689 0.0
H1955 H 0.85894 0.01658 0.36903 0.0
C1956 C 0.87361 0.0451 0.36451 0.0
C1957 C 0.89092 0.05535 0.35733 0.0
C1958 C 0.90478 0.9792 0.35529 0.0
C1959 C 0.88906 0.01353 0.35578 0.0
C1960 C 0.90204 0.95826 0.35573 0.0
C1961 C 0.88224 0.94986 0.35459 0.0
C1962 C 0.88756 0.99149 0.354 0.0
C1963 C 0.86569 0.96274 0.35187 0.0
C1964 C 0.87258 0.02424 0.36364 0.0
C1965 C 0.90733 0.04412 0.34996 0.0
N1966 N 0.8687 0.98288 0.35195 0.0
N1967 N 0.90604 0.02369 0.3494 0.0
H1968 H 0.34238 0.24219 0.06971 0.0
H1969 H 0.34433 0.18059 0.16803 0.0
H1970 H 0.32593 0.26623 0.1278 0.0
H1971 H 0.34882 0.15367 0.10899 0.0
H1972 H 0.3282 0.20973 0.153 0.0
H1973 H 0.33542 0.20832 0.08223 0.0
C1974 C 0.33675 0.24039 0.08492 0.0
C1975 C 0.33543 0.25696 0.09797 0.0
C1976 C 0.33222 0.19725 0.14333 0.0
C1977 C 0.32782 0.21831 0.11251 0.0
C1978 C 0.34144 0.18059 0.15195 0.0
C1979 C 0.34849 0.16501 0.13966 0.0
C1980 C 0.33057 0.19852 0.12225 0.0
C1981 C 0.34401 0.16559 0.11897 0.0
C1982 C 0.33279 0.22102 0.0921 0.0
C1983 C 0.32774 0.25379 0.11741 0.0
N1984 N 0.33587 0.18237 0.11082 0.0
N1985 N 0.32474 0.2348 0.12426 0.0
H1986 H 0.54082 0.69233 0.88646 0.0
H1987 H 0.44697 0.6436 0.82572 0.0
H1988 H 0.54929 0.65493 0.83387 0.0
H1989 H 0.44694 0.65286 0.89012 0.0
H1990 H 0.48229 0.65654 0.8246 0.0
H1991 H 0.50394 0.68691 0.88352 0.0
C1992 C 0.53492 0.68324 0.87408 0.0
C1993 C 0.54815 0.67381 0.86052 0.0
C1994 C 0.47439 0.65593 0.83889 0.0
C1995 C 0.50601 0.66775 0.8571 0.0
C1996 C 0.45427 0.64867 0.83956 0.0
C1997 C 0.44414 0.64704 0.85809 0.0
C1998 C 0.48418 0.66195 0.8568 0.0
C1999 C 0.4543 0.65371 0.87557 0.0
C2000 C 0.51389 0.68012 0.8725 0.0
C2001 C 0.53961 0.66229 0.84475 0.0
N2002 N 0.47381 0.66088 0.87451 0.0
N2003 N 0.51901 0.65946 0.84352 0.0
H2004 H 0.14191 0.74304 0.56156 0.0
H2005 H 0.13797 0.81122 0.6565 0.0
H2006 H 0.15381 0.72203 0.62183 0.0
H2007 H 0.13598 0.83385 0.59573 0.0
H2008 H 0.15343 0.78051 0.64396 0.0
H2009 H 0.14913 0.77739 0.57288 0.0
C2010 C 0.14648 0.74561 0.57708 0.0
C2011 C 0.14659 0.72978 0.59094 0.0
C2012 C 0.1501 0.79238 0.63339 0.0
C2013 C 0.15454 0.76903 0.60408 0.0
C2014 C 0.14128 0.80994 0.64057 0.0
C2015 C 0.13503 0.82476 0.62703 0.0
C2016 C 0.15225 0.78953 0.61251 0.0
C2017 C 0.14006 0.82254 0.60663 0.0
C2018 C 0.15064 0.76524 0.58355 0.0
C2019 C 0.15301 0.73389 0.61075 0.0
N2020 N 0.14786 0.80497 0.5999 0.0
N2021 N 0.15624 0.75318 0.61686 0.0
H2022 H 0.01848 0.38852 0.36989 0.0
H2023 H 0.9398 0.30119 0.34905 0.0
H2024 H 0.03753 0.33542 0.33788 0.0
H2025 H 0.92215 0.3632 0.34391 0.0
H2026 H 0.97582 0.31196 0.34799 0.0
H2027 H 0.98274 0.37808 0.36466 0.0
C2028 C 0.01512 0.37461 0.36187 0.0
C2029 C 0.0309 0.36275 0.35436 0.0
C2030 C 0.96401 0.32313 0.34677 0.0
C2031 C 0.99027 0.35078 0.34845 0.0
C2032 C 0.94353 0.31702 0.34735 0.0
C2033 C 0.92805 0.33136 0.34666 0.0
C2034 C 0.96893 0.34371 0.34609 0.0
C2035 C 0.93362 0.35168 0.34449 0.0
C2036 C -0.00522 0.3688 0.35872 0.0
C2037 C 0.02575 0.34498 0.34388 0.0
N2038 N 0.95367 0.35732 0.3447 0.0
N2039 N 0.00582 0.33937 0.34143 0.0
H2040 H 0.37445 0.78171 0.32589 0.0
H2041 H 0.3788 0.7187 0.42629 0.0
H2042 H 0.38596 0.81027 0.38345 0.0
H2043 H 0.3455 0.69885 0.37326 0.0
H2044 H 0.38244 0.7522 0.41134 0.0
H2045 H 0.36482 0.75077 0.3432 0.0
C2046 C 0.37485 0.78148 0.3422 0.0
C2047 C 0.38113 0.7985 0.35327 0.0
C2048 C 0.37412 0.74053 0.40315 0.0
C2049 C 0.3703 0.7631 0.37318 0.0
C2050 C 0.37209 0.72141 0.41163 0.0
C2051 C 0.36203 0.70587 0.40092 0.0
C2052 C 0.3663 0.74396 0.38377 0.0
C2053 C 0.35352 0.71028 0.38203 0.0
C2054 C 0.36925 0.76385 0.35208 0.0
C2055 C 0.3812 0.79744 0.37438 0.0
N2056 N 0.35607 0.72883 0.37397 0.0
N2057 N 0.37613 0.7799 0.38369 0.0
H2058 H 0.00338 0.6187 0.1937 0.0
H2059 H 0.90822 0.58691 0.12585 0.0
H2060 H 0.00714 0.59714 0.13242 0.0
H2061 H 0.90321 0.61207 0.18564 0.0
H2062 H 0.94456 0.58182 0.13173 0.0
H2063 H 0.96734 0.60835 0.19436 0.0
C2064 C -0.00329 0.61152 0.18049 0.0
C2065 C 0.00812 0.60919 0.16281 0.0
C2066 C 0.93546 0.5881 0.14373 0.0
C2067 C 0.96698 0.59734 0.16347 0.0
C2068 C 0.91468 0.59096 0.1404 0.0
C2069 C 0.9028 0.60042 0.15509 0.0
C2070 C 0.94448 0.59503 0.16176 0.0
C2071 C 0.91189 0.60501 0.17378 0.0
C2072 C 0.97615 0.60559 0.18089 0.0
C2073 C -0.0012 0.59958 0.14623 0.0
N2074 N 0.93233 0.6027 0.17643 0.0
N2075 N 0.9787 0.59426 0.14687 0.0
H2076 H 0.11981 0.2797 0.90176 0.0
H2077 H 0.10383 0.20972 0.80576 0.0
H2078 H 0.13619 0.29844 0.84169 0.0
H2079 H 0.10705 0.18624 0.86621 0.0
H2080 H 0.11503 0.2426 0.8186 0.0
H2081 H 0.11426 0.24544 0.88911 0.0
C2082 C 0.12234 0.27659 0.88595 0.0
C2083 C 0.12833 0.29197 0.87273 0.0
C2084 C 0.11348 0.23019 0.82901 0.0
C2085 C 0.1219 0.25293 0.85818 0.0
C2086 C 0.10702 0.21145 0.8217 0.0
C2087 C 0.10436 0.19527 0.83496 0.0
C2088 C 0.11698 0.23283 0.84974 0.0
C2089 C 0.10886 0.19832 0.85546 0.0
C2090 C 0.11925 0.25704 0.87876 0.0
C2091 C 0.13152 0.28707 0.85241 0.0
N2092 N 0.11473 0.21682 0.86226 0.0
N2093 N 0.12806 0.268 0.84571 0.0
H2094 H 0.57029 0.4043 0.60043 0.0
H2095 H 0.48387 0.38278 0.68053 0.0
H2096 H 0.58211 0.39458 0.66363 0.0
H2097 H 0.47283 0.39241 0.61718 0.0
H2098 H 0.51895 0.39516 0.67627 0.0
H2099 H 0.53421 0.40867 0.60795 0.0
C2100 C 0.56535 0.40349 0.61597 0.0
C2101 C 0.57911 0.39854 0.63137 0.0
C2102 C 0.50876 0.39489 0.66337 0.0
C2103 C 0.53777 0.40313 0.64003 0.0
C2104 C 0.48873 0.38781 0.66579 0.0
C2105 C 0.4756 0.38611 0.64907 0.0
C2106 C 0.51568 0.40018 0.64408 0.0
C2107 C 0.48258 0.39309 0.6304 0.0
C2108 C 0.54473 0.40596 0.62026 0.0
C2109 C 0.57196 0.39806 0.65125 0.0
N2110 N 0.50225 0.39951 0.62834 0.0
N2111 N 0.55166 0.39985 0.65497 0.0
H2112 H 0.0949 0.35579 0.2658 0.0
H2113 H 0.18458 0.39539 0.19601 0.0
H2114 H 0.15547 0.37141 0.28748 0.0
H2115 H 0.12514 0.37668 0.17365 0.0
H2116 H 0.17617 0.38083 0.22864 0.0
H2117 H 0.10753 0.35725 0.2313 0.0
C2118 C 0.11094 0.3592 0.26331 0.0
C2119 C 0.12407 0.36392 0.27948 0.0
C2120 C 0.16505 0.37964 0.21653 0.0
C2121 C 0.13856 0.36583 0.24009 0.0
C2122 C 0.16984 0.38799 0.1979 0.0
C2123 C 0.15537 0.38758 0.18226 0.0
C2124 C 0.14556 0.37105 0.21958 0.0
C2125 C 0.13664 0.37756 0.18542 0.0
C2126 C 0.11815 0.36004 0.24361 0.0
C2127 C 0.14475 0.36798 0.27542 0.0
N2128 N 0.13213 0.36997 0.20385 0.0
N2129 N 0.15129 0.36918 0.2561 0.0
H2130 H 0.39307 0.41439 0.945 0.0
H2131 H 0.37513 0.3205 0.01549 0.0
H2132 H 0.37976 0.35484 0.92166 0.0
H2133 H 0.40714 0.37439 0.03544 0.0
H2134 H 0.37723 0.33255 0.98082 0.0
H2135 H 0.39947 0.39986 0.97809 0.0
C2136 C 0.3918 0.39824 0.94676 0.0
C2137 C 0.38563 0.38584 0.93062 0.0
C2138 C 0.38399 0.34161 0.99278 0.0
C2139 C 0.39258 0.36917 0.96846 0.0
C2140 C 0.38269 0.3348 0.01258 0.0
C2141 C 0.39079 0.34654 0.0284 0.0
C2142 C 0.39317 0.36042 0.98886 0.0
C2143 C 0.40059 0.36487 0.02373 0.0
C2144 C 0.39546 0.38994 0.96565 0.0
C2145 C 0.38437 0.36498 0.93372 0.0
N2146 N 0.40129 0.37135 0.00441 0.0
N2147 N 0.38747 0.35733 0.95237 0.0
H2148 H 0.34848 0.59486 0.67454 0.0
H2149 H 0.3239 0.60441 0.79177 0.0
H2150 H 0.29166 0.57454 0.70107 0.0
H2151 H 0.38117 0.62291 0.765 0.0
H2152 H 0.31028 0.59693 0.7582 0.0
H2153 H 0.35918 0.60846 0.70707 0.0
C2154 C 0.3382 0.59329 0.6872 0.0
C2155 C 0.31921 0.58332 0.68511 0.0
C2156 C 0.32577 0.60279 0.75966 0.0
C2157 C 0.33144 0.59893 0.72248 0.0
C2158 C 0.33354 0.6071 0.77881 0.0
C2159 C 0.35378 0.61409 0.78117 0.0
C2160 C 0.33834 0.60544 0.74278 0.0
C2161 C 0.36554 0.61741 0.76387 0.0
C2162 C 0.34432 0.60112 0.70578 0.0
C2163 C 0.30649 0.58197 0.70202 0.0
N2164 N 0.3577 0.61288 0.74541 0.0
N2165 N 0.3129 0.58956 0.72005 0.0
H2166 H 0.10255 0.67661 0.50791 0.0
H2167 H 0.10345 0.59225 0.42523 0.0
H2168 H 0.07967 0.61626 0.51813 0.0
H2169 H 0.11294 0.65517 0.41195 0.0
H2170 H 0.0891 0.60153 0.45775 0.0
H2171 H 0.10132 0.67025 0.47172 0.0
C2172 C 0.09703 0.6621 0.50253 0.0
C2173 C 0.09165 0.64679 0.51606 0.0
C2174 C 0.0939 0.61335 0.44757 0.0
C2175 C 0.09034 0.63935 0.47467 0.0
C2176 C 0.1021 0.60804 0.42899 0.0
C2177 C 0.10981 0.62296 0.41612 0.0
C2178 C 0.09381 0.63368 0.45341 0.0
C2179 C 0.10744 0.64318 0.42158 0.0
C2180 C 0.09622 0.6585 0.48185 0.0
C2181 C 0.08426 0.6284 0.50825 0.0
N2182 N 0.10006 0.64795 0.44005 0.0
N2183 N 0.08419 0.62506 0.48806 0.0
H2184 H 0.08519 0.64867 0.22467 0.0
H2185 H 0.1847 0.63396 0.28948 0.0
H2186 H 0.14566 0.65796 0.20028 0.0
H2187 H 0.12514 0.64265 0.31567 0.0
H2188 H 0.17143 0.64555 0.2572 0.0
H2189 H 0.09982 0.64877 0.2585 0.0
C2190 C 0.10155 0.65087 0.22646 0.0
C2191 C 0.11428 0.65302 0.20966 0.0
C2192 C 0.16138 0.64527 0.27011 0.0
C2193 C 0.13115 0.65304 0.24832 0.0
C2194 C 0.16894 0.63863 0.28855 0.0
C2195 C 0.15589 0.63693 0.3052 0.0
C2196 C 0.1406 0.64995 0.2683 0.0
C2197 C 0.13568 0.64343 0.30317 0.0
C2198 C 0.10989 0.65106 0.24579 0.0
C2199 C 0.13532 0.65612 0.21285 0.0
N2200 N 0.12855 0.64929 0.28494 0.0
N2201 N 0.14317 0.65571 0.23182 0.0
H2202 H 0.13989 0.37759 0.077 0.0
H2203 H 0.09495 0.39236 0.96641 0.0
H2204 H 0.13085 0.43482 0.04815 0.0
H2205 H 0.12167 0.33701 0.9866 0.0
H2206 H 0.09753 0.40562 0.00063 0.0
H2207 H 0.12378 0.36074 0.04791 0.0
C2208 C 0.13427 0.38662 0.06469 0.0
C2209 C 0.13703 0.4076 0.06477 0.0
C2210 C 0.10248 0.39043 -0.00235 0.0
C2211 C 0.11843 0.3885 0.03179 0.0
C2212 C 0.10095 0.38281 0.97815 0.0
C2213 C 0.1086 0.36375 0.9736 0.0
C2214 C 0.11184 0.37896 0.01266 0.0
C2215 C 0.11588 0.35191 0.98944 0.0
C2216 C 0.12509 0.37699 0.04815 0.0
C2217 C 0.12937 0.41859 0.04852 0.0
N2218 N 0.11772 0.35987 0.00827 0.0
N2219 N 0.12054 0.40889 0.03263 0.0
H2220 H 0.39775 0.34493 0.81986 0.0
H2221 H 0.35251 0.32586 0.70941 0.0
H2222 H 0.3341 0.35237 0.80455 0.0
H2223 H 0.41541 0.34197 0.72251 0.0
H2224 H 0.34551 0.32541 0.74567 0.0
H2225 H 0.40394 0.3327 0.7857 0.0
C2226 C 0.38497 0.34351 0.80949 0.0
C2227 C 0.36546 0.35007 0.81488 0.0
C2228 C 0.36087 0.3288 0.74054 0.0
C2229 C 0.3725 0.33626 0.77588 0.0
C2230 C 0.36488 0.32907 0.71991 0.0
C2231 C 0.38449 0.33429 0.71299 0.0
C2232 C 0.37667 0.33347 0.75424 0.0
C2233 C 0.39999 0.33822 0.7272 0.0
C2234 C 0.38855 0.33666 0.78998 0.0
C2235 C 0.34944 0.34778 0.80087 0.0
N2236 N 0.39572 0.33781 0.74717 0.0
N2237 N 0.35337 0.34132 0.78186 0.0
H2238 H 0.39501 0.66106 0.51103 0.0
H2239 H 0.37849 0.5593 0.56356 0.0
H2240 H 0.41444 0.60474 0.48553 0.0
H2241 H 0.37499 0.61591 0.59529 0.0
H2242 H 0.39929 0.57563 0.53783 0.0
H2243 H 0.39596 0.64601 0.54445 0.0
C2244 C 0.40011 0.64572 0.51252 0.0
C2245 C 0.40388 0.63388 0.49545 0.0
C2246 C 0.39441 0.58444 0.55064 0.0
C2247 C 0.40456 0.61645 0.53349 0.0
C2248 C 0.38246 0.5751 0.5653 0.0
C2249 C 0.37456 0.58641 0.58123 0.0
C2250 C 0.39798 0.60533 0.55167 0.0
C2251 C 0.38047 0.60673 0.583 0.0
C2252 C 0.4006 0.63708 0.53163 0.0
C2253 C 0.41077 0.61422 0.49827 0.0
N2254 N 0.39138 0.61569 0.56808 0.0
N2255 N 0.41031 0.60592 0.51688 0.0
H2256 H 0.1724 0.1523 0.3508 0.0
H2257 H 0.24747 0.06149 0.36806 0.0
H2258 H 0.15117 0.09221 0.36475 0.0
H2259 H 0.26666 0.12077 0.34893 0.0
H2260 H 0.21185 0.07064 0.36201 0.0
H2261 H 0.20647 0.13941 0.34497 0.0
C2262 C 0.17489 0.13632 0.35242 0.0
C2263 C 0.15905 0.12334 0.35859 0.0
C2264 C 0.22389 0.08152 0.35884 0.0
C2265 C 0.19815 0.10847 0.35224 0.0
C2266 C 0.24421 0.07631 0.36228 0.0
C2267 C 0.25999 0.09053 0.35935 0.0
C2268 C 0.21941 0.10111 0.35252 0.0
C2269 C 0.25495 0.10944 0.35171 0.0
C2270 C 0.19436 0.12894 0.34905 0.0
C2271 C 0.16302 0.10274 0.36015 0.0
N2272 N 0.23509 0.11425 0.34881 0.0
N2273 N 0.18232 0.09596 0.35735 0.0
H2274 H 0.79415 0.4223 0.59854 0.0
H2275 H 0.70092 0.34488 0.58223 0.0
H2276 H 0.80144 0.35881 0.58735 0.0
H2277 H 0.69334 0.40415 0.60769 0.0
H2278 H 0.73778 0.3507 0.58165 0.0
H2279 H 0.75702 0.41695 0.59952 0.0
C2280 C 0.78794 0.40726 0.59624 0.0
C2281 C 0.80086 0.39097 0.59286 0.0
C2282 C 0.72808 0.36242 0.58743 0.0
C2283 C 0.75857 0.38478 0.59393 0.0
C2284 C 0.70703 0.35913 0.58774 0.0
C2285 C 0.69408 0.37407 0.59504 0.0
C2286 C 0.73627 0.38086 0.59431 0.0
C2287 C 0.70282 0.39223 0.60199 0.0
C2288 C 0.76678 0.40421 0.59688 0.0
C2289 C 0.79204 0.37179 0.59004 0.0
N2290 N 0.72342 0.39517 0.60139 0.0
N2291 N 0.77144 0.36924 0.59058 0.0
H2292 H 0.3492 0.91264 0.37489 0.0
H2293 H 0.38766 0.02422 0.40184 0.0
H2294 H 0.41254 0.93187 0.37421 0.0
H2295 H 0.32607 0.0095 0.38239 0.0
H2296 H 0.39601 0.98862 0.40004 0.0
H2297 H 0.33978 0.94632 0.3863 0.0
C2298 C 0.36115 0.92382 0.37754 0.0
C2299 C 0.38165 0.9196 0.37336 0.0
C2300 C 0.38063 0.99319 0.39633 0.0
C2301 C 0.371 0.95797 0.3863 0.0
C2302 C 0.37583 0.0135 0.39735 0.0
C2303 C 0.3562 0.01988 0.39197 0.0
C2304 C 0.36568 0.97914 0.39003 0.0
C2305 C 0.34147 0.00528 0.3864 0.0
C2306 C 0.35575 0.94303 0.38391 0.0
C2307 C 0.39653 0.93461 0.37702 0.0
N2308 N 0.34655 0.98557 0.38547 0.0
N2309 N 0.39089 0.9532 0.38314 0.0
H2310 H 0.78643 0.59731 0.12577 0.0
H2311 H 0.68081 0.6505 0.10346 0.0
H2312 H 0.78296 0.65932 0.1073 0.0
H2313 H 0.68826 0.58627 0.09842 0.0
H2314 H 0.71776 0.65451 0.10804 0.0
H2315 H 0.74959 0.59344 0.11979 0.0
C2316 C 0.77788 0.61014 0.12064 0.0
C2317 C 0.78769 0.62865 0.11702 0.0
C2318 C 0.7113 0.63957 0.10576 0.0
C2319 C 0.74577 0.62433 0.11012 0.0
C2320 C 0.69025 0.63727 0.10313 0.0
C2321 C 0.68148 0.61802 0.10057 0.0
C2322 C 0.7236 0.62248 0.10618 0.0
C2323 C 0.69441 0.60139 0.10025 0.0
C2324 C 0.75694 0.60787 0.11707 0.0
C2325 C 0.77596 0.64477 0.11024 0.0
N2326 N 0.71483 0.60398 0.10325 0.0
N2327 N 0.75557 0.64225 0.10707 0.0
H2328 H 0.57634 0.56651 0.37736 0.0
H2329 H 0.66799 0.49126 0.3752 0.0
H2330 H 0.6386 0.58479 0.365 0.0
H2331 H 0.60649 0.47508 0.39286 0.0
H2332 H 0.65936 0.52677 0.37841 0.0
H2333 H 0.58866 0.53475 0.3905 0.0
C2334 C 0.59266 0.56397 0.37779 0.0
C2335 C 0.60646 0.57804 0.36967 0.0
C2336 C 0.64787 0.51545 0.38195 0.0
C2337 C 0.62065 0.54158 0.38423 0.0
C2338 C 0.65279 0.49518 0.38008 0.0
C2339 C 0.63777 0.48025 0.38326 0.0
C2340 C 0.62777 0.52073 0.38686 0.0
C2341 C 0.61841 0.48613 0.38982 0.0
C2342 C 0.59971 0.54582 0.38528 0.0
C2343 C 0.62744 0.57418 0.37088 0.0
N2344 N 0.61387 0.50591 0.39108 0.0
N2345 N 0.6339 0.55607 0.37757 0.0
H2346 H 0.20635 0.86214 0.84811 0.0
H2347 H 0.31965 0.90227 0.87348 0.0
H2348 H 0.21888 0.92165 0.87199 0.0
H2349 H 0.30322 0.84009 0.86204 0.0
H2350 H 0.28362 0.91121 0.86873 0.0
H2351 H 0.24275 0.85534 0.84905 0.0
C2352 C 0.21675 0.87381 0.85355 0.0
C2353 C 0.2095 0.89245 0.86011 0.0
C2354 C 0.28801 0.89565 0.86717 0.0
C2355 C 0.25135 0.88474 0.86119 0.0
C2356 C 0.30853 0.89057 0.86976 0.0
C2357 C 0.31437 0.87041 0.8683 0.0
C2358 C 0.27341 0.88045 0.8629 0.0
C2359 C 0.29937 0.85581 0.86352 0.0
C2360 C 0.23757 0.86991 0.85409 0.0
C2361 C 0.22378 0.90701 0.86692 0.0
N2362 N 0.27963 0.86112 0.86104 0.0
N2363 N 0.24406 0.90283 0.86731 0.0
H2364 H 0.4103 0.95544 0.11095 0.0
H2365 H 0.37482 0.06866 0.12701 0.0
H2366 H 0.34782 0.97462 0.10498 0.0
H2367 H 0.43604 0.04826 0.13903 0.0
H2368 H 0.36588 0.03541 0.11372 0.0
H2369 H 0.42109 0.99043 0.11591 0.0
C2370 C 0.39887 0.96704 0.11046 0.0
C2371 C 0.37809 0.96211 0.10782 0.0
C2372 C 0.38131 0.03826 0.11912 0.0
C2373 C 0.39033 0.00214 0.11359 0.0
C2374 C 0.38645 0.05725 0.12673 0.0
C2375 C 0.40615 0.06119 0.13442 0.0
C2376 C 0.39596 0.02306 0.11922 0.0
C2377 C 0.42061 0.04585 0.13346 0.0
C2378 C 0.40505 0.98701 0.11332 0.0
C2379 C 0.36398 0.97775 0.10716 0.0
N2380 N 0.41516 0.0274 0.12617 0.0
N2381 N 0.37034 -0.00294 0.11023 0.0
H2382 H 0.04635 0.93711 0.60629 0.0
H2383 H 0.13916 0.0119 0.58805 0.0
H2384 H 0.10923 0.91857 0.60288 0.0
H2385 H 0.07588 0.02933 0.58684 0.0
H2386 H 0.12819 0.97665 0.58638 0.0
H2387 H 0.05626 0.96947 0.59195 0.0
C2388 C 0.06219 0.9397 0.6022 0.0
C2389 C 0.07707 0.92532 0.6063 0.0
C2390 C 0.1167 0.98819 0.58612 0.0
C2391 C 0.08858 0.96242 0.59014 0.0
C2392 C 0.12297 0.00832 0.58709 0.0
C2393 C 0.10839 0.02351 0.58808 0.0
C2394 C 0.09572 0.98328 0.58635 0.0
C2395 C 0.08763 0.01805 0.58652 0.0
C2396 C 0.06785 0.9582 0.594 0.0
C2397 C 0.09729 0.92937 0.60035 0.0
N2398 N 0.0819 -0.00163 0.58609 0.0
N2399 N 0.10253 0.94772 0.59295 0.0
loop_
_geom_bond_atom_site_label_1
_geom_bond_atom_site_label_2
_geom_bond_distance
_geom_bond_site_symmetry_2
_ccdc_geom_bond_type
C0 O1 1.306 . S
C0 O3 1.160 . S
O1 C0 1.306 . S
O1 Cd2 2.228 . S
Cd2 O1 2.228 . S
Cd2 O6 2.273 . S
Cd2 O10 2.277 . S
O3 C0 1.160 . S
O3 Cd4 2.203 . S
Cd4 O3 2.203 . S
Cd4 O6 2.411 . S
Cd4 O7 2.333 . S
Cd4 O8 2.352 . S
Cd4 O12 2.277 . S
Cd4 O13 2.356 . S
C5 O10 1.209 . S
C5 O12 1.226 . S
O6 Cd2 2.273 . S
O6 Cd4 2.411 . S
O6 C9 1.320 . S
O7 Cd4 2.333 . S
O7 C9 1.214 . S
O8 Cd4 2.352 . S
O8 C11 1.258 . S
C9 O6 1.320 . S
C9 O7 1.214 . S
O10 Cd2 2.277 . S
O10 C5 1.209 . S
C11 O8 1.258 . S
C11 O13 1.282 . S
O12 Cd4 2.277 . S
O12 C5 1.226 . S
O13 Cd4 2.356 . S
O13 C11 1.282 . S
C14 O15 1.306 . S
C14 O17 1.160 . S
O15 C14 1.306 . S
O15 Cd16 2.228 . S
Cd16 O15 2.228 . S
Cd16 O20 2.273 . S
Cd16 O24 2.277 . S
O17 C14 1.160 . S
O17 Cd18 2.203 . S
Cd18 O17 2.203 . S
Cd18 O20 2.411 . S
Cd18 O21 2.333 . S
Cd18 O22 2.352 . S
Cd18 O26 2.277 . S
Cd18 O27 2.356 . S
C19 O24 1.209 . S
C19 O26 1.226 . S
O20 Cd16 2.273 . S
O20 Cd18 2.411 . S
O20 C23 1.320 . S
O21 Cd18 2.333 . S
O21 C23 1.214 . S
O22 Cd18 2.352 . S
O22 C25 1.258 . S
C23 O20 1.320 . S
C23 O21 1.214 . S
O24 Cd16 2.277 . S
O24 C19 1.209 . S
C25 O22 1.258 . S
C25 O27 1.282 . S
O26 Cd18 2.277 . S
O26 C19 1.226 . S
O27 Cd18 2.356 . S
O27 C25 1.282 . S
C28 O29 1.306 . S
C28 O31 1.160 . S
O29 C28 1.306 . S
O29 Cd30 2.228 . S
Cd30 O29 2.228 . S
Cd30 O34 2.273 . S
Cd30 O38 2.277 . S
O31 C28 1.160 . S
O31 Cd32 2.203 . S
Cd32 O31 2.203 . S
Cd32 O34 2.411 . S
Cd32 O35 2.333 . S
Cd32 O36 2.352 . S
Cd32 O40 2.277 . S
Cd32 O41 2.356 . S
C33 O38 1.209 . S
C33 O40 1.226 . S
O34 Cd30 2.273 . S
O34 Cd32 2.411 . S
O34 C37 1.320 . S
O35 Cd32 2.333 . S
O35 C37 1.214 . S
O36 Cd32 2.352 . S
O36 C39 1.258 . S
C37 O34 1.320 . S
C37 O35 1.214 . S
O38 Cd30 2.277 . S
O38 C33 1.209 . S
C39 O36 1.258 . S
C39 O41 1.282 . S
O40 Cd32 2.277 . S
O40 C33 1.226 . S
O41 Cd32 2.356 . S
O41 C39 1.282 . S
C42 O43 1.306 . S
C42 O45 1.160 . S
O43 C42 1.306 . S
O43 Cd44 2.228 . S
Cd44 O43 2.228 . S
Cd44 O48 2.273 . S
Cd44 O52 2.277 . S
O45 C42 1.160 . S
O45 Cd46 2.203 . S
Cd46 O45 2.203 . S
Cd46 O48 2.411 . S
Cd46 O49 2.333 . S
Cd46 O50 2.352 . S
Cd46 O54 2.277 . S
Cd46 O55 2.356 . S
C47 O52 1.209 . S
C47 O54 1.226 . S
O48 Cd44 2.273 . S
O48 Cd46 2.411 . S
O48 C51 1.320 . S
O49 Cd46 2.333 . S
O49 C51 1.214 . S
O50 Cd46 2.352 . S
O50 C53 1.258 . S
C51 O48 1.320 . S
C51 O49 1.214 . S
O52 Cd44 2.277 . S
O52 C47 1.209 . S
C53 O50 1.258 . S
C53 O55 1.282 . S
O54 Cd46 2.277 . S
O54 C47 1.226 . S
O55 Cd46 2.356 . S
O55 C53 1.282 . S
C56 O57 1.306 . S
C56 O59 1.160 . S
O57 C56 1.306 . S
O57 Cd58 2.228 . S
Cd58 O57 2.228 . S
Cd58 O62 2.273 . S
Cd58 O66 2.277 . S
O59 C56 1.160 . S
O59 Cd60 2.203 . S
Cd60 O59 2.203 . S
Cd60 O62 2.411 . S
Cd60 O63 2.333 . S
Cd60 O64 2.352 . S
Cd60 O68 2.277 . S
Cd60 O69 2.356 . S
C61 O66 1.209 . S
C61 O68 1.226 . S
O62 Cd58 2.273 . S
O62 Cd60 2.411 . S
O62 C65 1.320 . S
O63 Cd60 2.333 . S
O63 C65 1.214 . S
O64 Cd60 2.352 . S
O64 C67 1.258 . S
C65 O62 1.320 . S
C65 O63 1.214 . S
O66 Cd58 2.277 . S
O66 C61 1.209 . S
C67 O64 1.258 . S
C67 O69 1.282 . S
O68 Cd60 2.277 . S
O68 C61 1.226 . S
O69 Cd60 2.356 . S
O69 C67 1.282 . S
C70 O71 1.306 . S
C70 O73 1.160 . S
O71 C70 1.306 . S
O71 Cd72 2.228 . S
Cd72 O71 2.228 . S
Cd72 O76 2.273 . S
Cd72 O80 2.277 . S
O73 C70 1.160 . S
O73 Cd74 2.203 . S
Cd74 O73 2.203 . S
Cd74 O76 2.411 . S
Cd74 O77 2.333 . S
Cd74 O78 2.352 . S
Cd74 O82 2.277 . S
Cd74 O83 2.356 . S
C75 O80 1.209 . S
C75 O82 1.226 . S
O76 Cd72 2.273 . S
O76 Cd74 2.411 . S
O76 C79 1.320 . S
O77 Cd74 2.333 . S
O77 C79 1.214 . S
O78 Cd74 2.352 . S
O78 C81 1.258 . S
C79 O76 1.320 . S
C79 O77 1.214 . S
O80 Cd72 2.277 . S
O80 C75 1.209 . S
C81 O78 1.258 . S
C81 O83 1.282 . S
O82 Cd74 2.277 . S
O82 C75 1.226 . S
O83 Cd74 2.356 . S
O83 C81 1.282 . S
C84 O85 1.306 . S
C84 O87 1.160 . S
O85 C84 1.306 . S
O85 Cd86 2.228 . S
Cd86 O85 2.228 . S
Cd86 O90 2.273 . S
Cd86 O94 2.277 . S
O87 C84 1.160 . S
O87 Cd88 2.203 . S
Cd88 O87 2.203 . S
Cd88 O90 2.411 . S
Cd88 O91 2.333 . S
Cd88 O92 2.352 . S
Cd88 O96 2.277 . S
Cd88 O97 2.356 . S
C89 O94 1.209 . S
C89 O96 1.226 . S
O90 Cd86 2.273 . S
O90 Cd88 2.411 . S
O90 C93 1.320 . S
O91 Cd88 2.333 . S
O91 C93 1.214 . S
O92 Cd88 2.352 . S
O92 C95 1.258 . S
C93 O90 1.320 . S
C93 O91 1.214 . S
O94 Cd86 2.277 . S
O94 C89 1.209 . S
C95 O92 1.258 . S
C95 O97 1.282 . S
O96 Cd88 2.277 . S
O96 C89 1.226 . S
O97 Cd88 2.356 . S
O97 C95 1.282 . S
C98 O99 1.306 . S
C98 O101 1.160 . S
O99 C98 1.306 . S
O99 Cd100 2.228 . S
Cd100 O99 2.228 . S
Cd100 O104 2.273 . S
Cd100 O108 2.277 . S
O101 C98 1.160 . S
O101 Cd102 2.203 . S
Cd102 O101 2.203 . S
Cd102 O104 2.411 . S
Cd102 O105 2.333 . S
Cd102 O106 2.352 . S
Cd102 O110 2.277 . S
Cd102 O111 2.356 . S
C103 O108 1.209 . S
C103 O110 1.226 . S
O104 Cd100 2.273 . S
O104 Cd102 2.411 . S
O104 C107 1.320 . S
O105 Cd102 2.333 . S
O105 C107 1.214 . S
O106 Cd102 2.352 . S
O106 C109 1.258 . S
C107 O104 1.320 . S
C107 O105 1.214 . S
O108 Cd100 2.277 . S
O108 C103 1.209 . S
C109 O106 1.258 . S
C109 O111 1.282 . S
O110 Cd102 2.277 . S
O110 C103 1.226 . S
O111 Cd102 2.356 . S
O111 C109 1.282 . S
C112 O113 1.306 . S
C112 O115 1.160 . S
O113 C112 1.306 . S
O113 Cd114 2.228 . S
Cd114 O113 2.228 . S
Cd114 O118 2.273 . S
Cd114 O122 2.277 . S
O115 C112 1.160 . S
O115 Cd116 2.203 . S
Cd116 O115 2.203 . S
Cd116 O118 2.411 . S
Cd116 O119 2.333 . S
Cd116 O120 2.352 . S
Cd116 O124 2.277 . S
Cd116 O125 2.356 . S
C117 O122 1.209 . S
C117 O124 1.226 . S
O118 Cd114 2.273 . S
O118 Cd116 2.411 . S
O118 C121 1.320 . S
O119 Cd116 2.333 . S
O119 C121 1.214 . S
O120 Cd116 2.352 . S
O120 C123 1.258 . S
C121 O118 1.320 . S
C121 O119 1.214 . S
O122 Cd114 2.277 . S
O122 C117 1.209 . S
C123 O120 1.258 . S
C123 O125 1.282 . S
O124 Cd116 2.277 . S
O124 C117 1.226 . S
O125 Cd116 2.356 . S
O125 C123 1.282 . S
C126 O127 1.306 . S
C126 O129 1.160 . S
O127 C126 1.306 . S
O127 Cd128 2.228 . S
Cd128 O127 2.228 . S
Cd128 O132 2.273 . S
Cd128 O136 2.277 . S
O129 C126 1.160 . S
O129 Cd130 2.203 . S
Cd130 O129 2.203 . S
Cd130 O132 2.411 . S
Cd130 O133 2.333 . S
Cd130 O134 2.352 . S
Cd130 O138 2.277 . S
Cd130 O139 2.356 . S
C131 O136 1.209 . S
C131 O138 1.226 . S
O132 Cd128 2.273 . S
O132 Cd130 2.411 . S
O132 C135 1.320 . S
O133 Cd130 2.333 . S
O133 C135 1.214 . S
O134 Cd130 2.352 . S
O134 C137 1.258 . S
C135 O132 1.320 . S
C135 O133 1.214 . S
O136 Cd128 2.277 . S
O136 C131 1.209 . S
C137 O134 1.258 . S
C137 O139 1.282 . S
O138 Cd130 2.277 . S
O138 C131 1.226 . S
O139 Cd130 2.356 . S
O139 C137 1.282 . S
C140 O141 1.306 . S
C140 O143 1.160 . S
O141 C140 1.306 . S
O141 Cd142 2.228 . S
Cd142 O141 2.228 . S
Cd142 O146 2.273 . S
Cd142 O150 2.277 . S
O143 C140 1.160 . S
O143 Cd144 2.203 . S
Cd144 O143 2.203 . S
Cd144 O146 2.411 . S
Cd144 O147 2.333 . S
Cd144 O148 2.352 . S
Cd144 O152 2.277 . S
Cd144 O153 2.356 . S
C145 O150 1.209 . S
C145 O152 1.226 . S
O146 Cd142 2.273 . S
O146 Cd144 2.411 . S
O146 C149 1.320 . S
O147 Cd144 2.333 . S
O147 C149 1.214 . S
O148 Cd144 2.352 . S
O148 C151 1.258 . S
C149 O146 1.320 . S
C149 O147 1.214 . S
O150 Cd142 2.277 . S
O150 C145 1.209 . S
C151 O148 1.258 . S
C151 O153 1.282 . S
O152 Cd144 2.277 . S
O152 C145 1.226 . S
O153 Cd144 2.356 . S
O153 C151 1.282 . S
C154 O155 1.306 . S
C154 O157 1.160 . S
O155 C154 1.306 . S
O155 Cd156 2.228 . S
Cd156 O155 2.228 . S
Cd156 O160 2.273 . S
Cd156 O164 2.277 . S
O157 C154 1.160 . S
O157 Cd158 2.203 . S
Cd158 O157 2.203 . S
Cd158 O160 2.411 . S
Cd158 O161 2.333 . S
Cd158 O162 2.352 . S
Cd158 O166 2.277 . S
Cd158 O167 2.356 . S
C159 O164 1.209 . S
C159 O166 1.226 . S
O160 Cd156 2.273 . S
O160 Cd158 2.411 . S
O160 C163 1.320 . S
O161 Cd158 2.333 . S
O161 C163 1.214 . S
O162 Cd158 2.352 . S
O162 C165 1.258 . S
C163 O160 1.320 . S
C163 O161 1.214 . S
O164 Cd156 2.277 . S
O164 C159 1.209 . S
C165 O162 1.258 . S
C165 O167 1.282 . S
O166 Cd158 2.277 . S
O166 C159 1.226 . S
O167 Cd158 2.356 . S
O167 C165 1.282 . S
C168 O169 1.306 . S
C168 O171 1.160 . S
O169 C168 1.306 . S
O169 Cd170 2.228 . S
Cd170 O169 2.228 . S
Cd170 O174 2.273 . S
Cd170 O178 2.277 . S
O171 C168 1.160 . S
O171 Cd172 2.203 . S
Cd172 O171 2.203 . S
Cd172 O174 2.411 . S
Cd172 O175 2.333 . S
Cd172 O176 2.352 . S
Cd172 O180 2.277 . S
Cd172 O181 2.356 . S
C173 O178 1.209 . S
C173 O180 1.226 . S
O174 Cd170 2.273 . S
O174 Cd172 2.411 . S
O174 C177 1.320 . S
O175 Cd172 2.333 . S
O175 C177 1.214 . S
O176 Cd172 2.352 . S
O176 C179 1.258 . S
C177 O174 1.320 . S
C177 O175 1.214 . S
O178 Cd170 2.277 . S
O178 C173 1.209 . S
C179 O176 1.258 . S
C179 O181 1.282 . S
O180 Cd172 2.277 . S
O180 C173 1.226 . S
O181 Cd172 2.356 . S
O181 C179 1.282 . S
C182 O183 1.306 . S
C182 O185 1.160 . S
O183 C182 1.306 . S
O183 Cd184 2.228 . S
Cd184 O183 2.228 . S
Cd184 O188 2.273 . S
Cd184 O192 2.277 . S
O185 C182 1.160 . S
O185 Cd186 2.203 . S
Cd186 O185 2.203 . S
Cd186 O188 2.411 . S
Cd186 O189 2.333 . S
Cd186 O190 2.352 . S
Cd186 O194 2.277 . S
Cd186 O195 2.356 . S
C187 O192 1.209 . S
C187 O194 1.226 . S
O188 Cd184 2.273 . S
O188 Cd186 2.411 . S
O188 C191 1.320 . S
O189 Cd186 2.333 . S
O189 C191 1.214 . S
O190 Cd186 2.352 . S
O190 C193 1.258 . S
C191 O188 1.320 . S
C191 O189 1.214 . S
O192 Cd184 2.277 . S
O192 C187 1.209 . S
C193 O190 1.258 . S
C193 O195 1.282 . S
O194 Cd186 2.277 . S
O194 C187 1.226 . S
O195 Cd186 2.356 . S
O195 C193 1.282 . S
C196 O197 1.306 . S
C196 O199 1.160 . S
O197 C196 1.306 . S
O197 Cd198 2.228 . S
Cd198 O197 2.228 . S
Cd198 O202 2.273 . S
Cd198 O206 2.277 . S
O199 C196 1.160 . S
O199 Cd200 2.203 . S
Cd200 O199 2.203 . S
Cd200 O202 2.411 . S
Cd200 O203 2.333 . S
Cd200 O204 2.352 . S
Cd200 O208 2.277 . S
Cd200 O209 2.356 . S
C201 O206 1.209 . S
C201 O208 1.226 . S
O202 Cd198 2.273 . S
O202 Cd200 2.411 . S
O202 C205 1.320 . S
O203 Cd200 2.333 . S
O203 C205 1.214 . S
O204 Cd200 2.352 . S
O204 C207 1.258 . S
C205 O202 1.320 . S
C205 O203 1.214 . S
O206 Cd198 2.277 . S
O206 C201 1.209 . S
C207 O204 1.258 . S
C207 O209 1.282 . S
O208 Cd200 2.277 . S
O208 C201 1.226 . S
O209 Cd200 2.356 . S
O209 C207 1.282 . S
C210 O211 1.306 . S
C210 O213 1.160 . S
O211 C210 1.306 . S
O211 Cd212 2.228 . S
Cd212 O211 2.228 . S
Cd212 O216 2.273 . S
Cd212 O220 2.277 . S
O213 C210 1.160 . S
O213 Cd214 2.203 . S
Cd214 O213 2.203 . S
Cd214 O216 2.411 . S
Cd214 O217 2.333 . S
Cd214 O218 2.352 . S
Cd214 O222 2.277 . S
Cd214 O223 2.356 . S
C215 O220 1.209 . S
C215 O222 1.226 . S
O216 Cd212 2.273 . S
O216 Cd214 2.411 . S
O216 C219 1.320 . S
O217 Cd214 2.333 . S
O217 C219 1.214 . S
O218 Cd214 2.352 . S
O218 C221 1.258 . S
C219 O216 1.320 . S
C219 O217 1.214 . S
O220 Cd212 2.277 . S
O220 C215 1.209 . S
C221 O218 1.258 . S
C221 O223 1.282 . S
O222 Cd214 2.277 . S
O222 C215 1.226 . S
O223 Cd214 2.356 . S
O223 C221 1.282 . S
C224 O225 1.306 . S
C224 O227 1.160 . S
O225 C224 1.306 . S
O225 Cd226 2.228 . S
Cd226 O225 2.228 . S
Cd226 O230 2.273 . S
Cd226 O234 2.277 . S
O227 C224 1.160 . S
O227 Cd228 2.203 . S
Cd228 O227 2.203 . S
Cd228 O230 2.411 . S
Cd228 O231 2.333 . S
Cd228 O232 2.352 . S
Cd228 O236 2.277 . S
Cd228 O237 2.356 . S
C229 O234 1.209 . S
C229 O236 1.226 . S
O230 Cd226 2.273 . S
O230 Cd228 2.411 . S
O230 C233 1.320 . S
O231 Cd228 2.333 . S
O231 C233 1.214 . S
O232 Cd228 2.352 . S
O232 C235 1.258 . S
C233 O230 1.320 . S
C233 O231 1.214 . S
O234 Cd226 2.277 . S
O234 C229 1.209 . S
C235 O232 1.258 . S
C235 O237 1.282 . S
O236 Cd228 2.277 . S
O236 C229 1.226 . S
O237 Cd228 2.356 . S
O237 C235 1.282 . S
C238 O239 1.306 . S
C238 O241 1.160 . S
O239 C238 1.306 . S
O239 Cd240 2.228 . S
Cd240 O239 2.228 . S
Cd240 O244 2.273 . S
Cd240 O248 2.277 . S
O241 C238 1.160 . S
O241 Cd242 2.203 . S
Cd242 O241 2.203 . S
Cd242 O244 2.411 . S
Cd242 O245 2.333 . S
Cd242 O246 2.352 . S
Cd242 O250 2.277 . S
Cd242 O251 2.356 . S
C243 O248 1.209 . S
C243 O250 1.226 . S
O244 Cd240 2.273 . S
O244 Cd242 2.411 . S
O244 C247 1.320 . S
O245 Cd242 2.333 . S
O245 C247 1.214 . S
O246 Cd242 2.352 . S
O246 C249 1.258 . S
C247 O244 1.320 . S
C247 O245 1.214 . S
O248 Cd240 2.277 . S
O248 C243 1.209 . S
C249 O246 1.258 . S
C249 O251 1.282 . S
O250 Cd242 2.277 . S
O250 C243 1.226 . S
O251 Cd242 2.356 . S
O251 C249 1.282 . S
C252 O253 1.306 . S
C252 O255 1.160 . S
O253 C252 1.306 . S
O253 Cd254 2.228 . S
Cd254 O253 2.228 . S
Cd254 O258 2.273 . S
Cd254 O262 2.277 . S
O255 C252 1.160 . S
O255 Cd256 2.203 . S
Cd256 O255 2.203 . S
Cd256 O258 2.411 . S
Cd256 O259 2.333 . S
Cd256 O260 2.352 . S
Cd256 O264 2.277 . S
Cd256 O265 2.356 . S
C257 O262 1.209 . S
C257 O264 1.226 . S
O258 Cd254 2.273 . S
O258 Cd256 2.411 . S
O258 C261 1.320 . S
O259 Cd256 2.333 . S
O259 C261 1.214 . S
O260 Cd256 2.352 . S
O260 C263 1.258 . S
C261 O258 1.320 . S
C261 O259 1.214 . S
O262 Cd254 2.277 . S
O262 C257 1.209 . S
C263 O260 1.258 . S
C263 O265 1.282 . S
O264 Cd256 2.277 . S
O264 C257 1.226 . S
O265 Cd256 2.356 . S
O265 C263 1.282 . S
C266 O267 1.306 . S
C266 O269 1.160 . S
O267 C266 1.306 . S
O267 Cd268 2.228 . S
Cd268 O267 2.228 . S
Cd268 O272 2.273 . S
Cd268 O276 2.277 . S
O269 C266 1.160 . S
O269 Cd270 2.203 . S
Cd270 O269 2.203 . S
Cd270 O272 2.411 . S
Cd270 O273 2.333 . S
Cd270 O274 2.352 . S
Cd270 O278 2.277 . S
Cd270 O279 2.356 . S
C271 O276 1.209 . S
C271 O278 1.226 . S
O272 Cd268 2.273 . S
O272 Cd270 2.411 . S
O272 C275 1.320 . S
O273 Cd270 2.333 . S
O273 C275 1.214 . S
O274 Cd270 2.352 . S
O274 C277 1.258 . S
C275 O272 1.320 . S
C275 O273 1.214 . S
O276 Cd268 2.277 . S
O276 C271 1.209 . S
C277 O274 1.258 . S
C277 O279 1.282 . S
O278 Cd270 2.277 . S
O278 C271 1.226 . S
O279 Cd270 2.356 . S
O279 C277 1.282 . S
C280 O281 1.306 . S
C280 O283 1.160 . S
O281 C280 1.306 . S
O281 Cd282 2.228 . S
Cd282 O281 2.228 . S
Cd282 O286 2.273 . S
Cd282 O290 2.277 . S
O283 C280 1.160 . S
O283 Cd284 2.203 . S
Cd284 O283 2.203 . S
Cd284 O286 2.411 . S
Cd284 O287 2.333 . S
Cd284 O288 2.352 . S
Cd284 O292 2.277 . S
Cd284 O293 2.356 . S
C285 O290 1.209 . S
C285 O292 1.226 . S
O286 Cd282 2.273 . S
O286 Cd284 2.411 . S
O286 C289 1.320 . S
O287 Cd284 2.333 . S
O287 C289 1.214 . S
O288 Cd284 2.352 . S
O288 C291 1.258 . S
C289 O286 1.320 . S
C289 O287 1.214 . S
O290 Cd282 2.277 . S
O290 C285 1.209 . S
C291 O288 1.258 . S
C291 O293 1.282 . S
O292 Cd284 2.277 . S
O292 C285 1.226 . S
O293 Cd284 2.356 . S
O293 C291 1.282 . S
C294 O295 1.306 . S
C294 O297 1.160 . S
O295 C294 1.306 . S
O295 Cd296 2.228 . S
Cd296 O295 2.228 . S
Cd296 O300 2.273 . S
Cd296 O304 2.277 . S
O297 C294 1.160 . S
O297 Cd298 2.203 . S
Cd298 O297 2.203 . S
Cd298 O300 2.411 . S
Cd298 O301 2.333 . S
Cd298 O302 2.352 . S
Cd298 O306 2.277 . S
Cd298 O307 2.356 . S
C299 O304 1.209 . S
C299 O306 1.226 . S
O300 Cd296 2.273 . S
O300 Cd298 2.411 . S
O300 C303 1.320 . S
O301 Cd298 2.333 . S
O301 C303 1.214 . S
O302 Cd298 2.352 . S
O302 C305 1.258 . S
C303 O300 1.320 . S
C303 O301 1.214 . S
O304 Cd296 2.277 . S
O304 C299 1.209 . S
C305 O302 1.258 . S
C305 O307 1.282 . S
O306 Cd298 2.277 . S
O306 C299 1.226 . S
O307 Cd298 2.356 . S
O307 C305 1.282 . S
C308 O309 1.306 . S
C308 O311 1.160 . S
O309 C308 1.306 . S
O309 Cd310 2.228 . S
Cd310 O309 2.228 . S
Cd310 O314 2.273 . S
Cd310 O318 2.277 . S
O311 C308 1.160 . S
O311 Cd312 2.203 . S
Cd312 O311 2.203 . S
Cd312 O314 2.411 . S
Cd312 O315 2.333 . S
Cd312 O316 2.352 . S
Cd312 O320 2.277 . S
Cd312 O321 2.356 . S
C313 O318 1.209 . S
C313 O320 1.226 . S
O314 Cd310 2.273 . S
O314 Cd312 2.411 . S
O314 C317 1.320 . S
O315 Cd312 2.333 . S
O315 C317 1.214 . S
O316 Cd312 2.352 . S
O316 C319 1.258 . S
C317 O314 1.320 . S
C317 O315 1.214 . S
O318 Cd310 2.277 . S
O318 C313 1.209 . S
C319 O316 1.258 . S
C319 O321 1.282 . S
O320 Cd312 2.277 . S
O320 C313 1.226 . S
O321 Cd312 2.356 . S
O321 C319 1.282 . S
C322 O323 1.306 . S
C322 O325 1.160 . S
O323 C322 1.306 . S
O323 Cd324 2.228 . S
Cd324 O323 2.228 . S
Cd324 O328 2.273 . S
Cd324 O332 2.277 . S
O325 C322 1.160 . S
O325 Cd326 2.203 . S
Cd326 O325 2.203 . S
Cd326 O328 2.411 . S
Cd326 O329 2.333 . S
Cd326 O330 2.352 . S
Cd326 O334 2.277 . S
Cd326 O335 2.356 . S
C327 O332 1.209 . S
C327 O334 1.226 . S
O328 Cd324 2.273 . S
O328 Cd326 2.411 . S
O328 C331 1.320 . S
O329 Cd326 2.333 . S
O329 C331 1.214 . S
O330 Cd326 2.352 . S
O330 C333 1.258 . S
C331 O328 1.320 . S
C331 O329 1.214 . S
O332 Cd324 2.277 . S
O332 C327 1.209 . S
C333 O330 1.258 . S
C333 O335 1.282 . S
O334 Cd326 2.277 . S
O334 C327 1.226 . S
O335 Cd326 2.356 . S
O335 C333 1.282 . S
C336 O337 1.306 . S
C336 O339 1.160 . S
O337 C336 1.306 . S
O337 Cd338 2.228 . S
Cd338 O337 2.228 . S
Cd338 O342 2.273 . S
Cd338 O346 2.277 . S
O339 C336 1.160 . S
O339 Cd340 2.203 . S
Cd340 O339 2.203 . S
Cd340 O342 2.411 . S
Cd340 O343 2.333 . S
Cd340 O344 2.352 . S
Cd340 O348 2.277 . S
Cd340 O349 2.356 . S
C341 O346 1.209 . S
C341 O348 1.226 . S
O342 Cd338 2.273 . S
O342 Cd340 2.411 . S
O342 C345 1.320 . S
O343 Cd340 2.333 . S
O343 C345 1.214 . S
O344 Cd340 2.352 . S
O344 C347 1.258 . S
C345 O342 1.320 . S
C345 O343 1.214 . S
O346 Cd338 2.277 . S
O346 C341 1.209 . S
C347 O344 1.258 . S
C347 O349 1.282 . S
O348 Cd340 2.277 . S
O348 C341 1.226 . S
O349 Cd340 2.356 . S
O349 C347 1.282 . S
C350 O351 1.306 . S
C350 O353 1.160 . S
O351 C350 1.306 . S
O351 Cd352 2.228 . S
Cd352 O351 2.228 . S
Cd352 O356 2.273 . S
Cd352 O360 2.277 . S
O353 C350 1.160 . S
O353 Cd354 2.203 . S
Cd354 O353 2.203 . S
Cd354 O356 2.411 . S
Cd354 O357 2.333 . S
Cd354 O358 2.352 . S
Cd354 O362 2.277 . S
Cd354 O363 2.356 . S
C355 O360 1.209 . S
C355 O362 1.226 . S
O356 Cd352 2.273 . S
O356 Cd354 2.411 . S
O356 C359 1.320 . S
O357 Cd354 2.333 . S
O357 C359 1.214 . S
O358 Cd354 2.352 . S
O358 C361 1.258 . S
C359 O356 1.320 . S
C359 O357 1.214 . S
O360 Cd352 2.277 . S
O360 C355 1.209 . S
C361 O358 1.258 . S
C361 O363 1.282 . S
O362 Cd354 2.277 . S
O362 C355 1.226 . S
O363 Cd354 2.356 . S
O363 C361 1.282 . S
C364 O365 1.306 . S
C364 O367 1.160 . S
O365 C364 1.306 . S
O365 Cd366 2.228 . S
Cd366 O365 2.228 . S
Cd366 O370 2.273 . S
Cd366 O374 2.277 . S
O367 C364 1.160 . S
O367 Cd368 2.203 . S
Cd368 O367 2.203 . S
Cd368 O370 2.411 . S
Cd368 O371 2.333 . S
Cd368 O372 2.352 . S
Cd368 O376 2.277 . S
Cd368 O377 2.356 . S
C369 O374 1.209 . S
C369 O376 1.226 . S
O370 Cd366 2.273 . S
O370 Cd368 2.411 . S
O370 C373 1.320 . S
O371 Cd368 2.333 . S
O371 C373 1.214 . S
O372 Cd368 2.352 . S
O372 C375 1.258 . S
C373 O370 1.320 . S
C373 O371 1.214 . S
O374 Cd366 2.277 . S
O374 C369 1.209 . S
C375 O372 1.258 . S
C375 O377 1.282 . S
O376 Cd368 2.277 . S
O376 C369 1.226 . S
O377 Cd368 2.356 . S
O377 C375 1.282 . S
C378 O379 1.306 . S
C378 O381 1.160 . S
O379 C378 1.306 . S
O379 Cd380 2.228 . S
Cd380 O379 2.228 . S
Cd380 O384 2.273 . S
Cd380 O388 2.277 . S
O381 C378 1.160 . S
O381 Cd382 2.203 . S
Cd382 O381 2.203 . S
Cd382 O384 2.411 . S
Cd382 O385 2.333 . S
Cd382 O386 2.352 . S
Cd382 O390 2.277 . S
Cd382 O391 2.356 . S
C383 O388 1.209 . S
C383 O390 1.226 . S
O384 Cd380 2.273 . S
O384 Cd382 2.411 . S
O384 C387 1.320 . S
O385 Cd382 2.333 . S
O385 C387 1.214 . S
O386 Cd382 2.352 . S
O386 C389 1.258 . S
C387 O384 1.320 . S
C387 O385 1.214 . S
O388 Cd380 2.277 . S
O388 C383 1.209 . S
C389 O386 1.258 . S
C389 O391 1.282 . S
O390 Cd382 2.277 . S
O390 C383 1.226 . S
O391 Cd382 2.356 . S
O391 C389 1.282 . S
C392 O393 1.306 . S
C392 O395 1.160 . S
O393 C392 1.306 . S
O393 Cd394 2.228 . S
Cd394 O393 2.228 . S
Cd394 O398 2.273 . S
Cd394 O402 2.277 . S
O395 C392 1.160 . S
O395 Cd396 2.203 . S
Cd396 O395 2.203 . S
Cd396 O398 2.411 . S
Cd396 O399 2.333 . S
Cd396 O400 2.352 . S
Cd396 O404 2.277 . S
Cd396 O405 2.356 . S
C397 O402 1.209 . S
C397 O404 1.226 . S
O398 Cd394 2.273 . S
O398 Cd396 2.411 . S
O398 C401 1.320 . S
O399 Cd396 2.333 . S
O399 C401 1.214 . S
O400 Cd396 2.352 . S
O400 C403 1.258 . S
C401 O398 1.320 . S
C401 O399 1.214 . S
O402 Cd394 2.277 . S
O402 C397 1.209 . S
C403 O400 1.258 . S
C403 O405 1.282 . S
O404 Cd396 2.277 . S
O404 C397 1.226 . S
O405 Cd396 2.356 . S
O405 C403 1.282 . S
C406 O407 1.306 . S
C406 O409 1.160 . S
O407 C406 1.306 . S
O407 Cd408 2.228 . S
Cd408 O407 2.228 . S
Cd408 O412 2.273 . S
Cd408 O416 2.277 . S
O409 C406 1.160 . S
O409 Cd410 2.203 . S
Cd410 O409 2.203 . S
Cd410 O412 2.411 . S
Cd410 O413 2.333 . S
Cd410 O414 2.352 . S
Cd410 O418 2.277 . S
Cd410 O419 2.356 . S
C411 O416 1.209 . S
C411 O418 1.226 . S
O412 Cd408 2.273 . S
O412 Cd410 2.411 . S
O412 C415 1.320 . S
O413 Cd410 2.333 . S
O413 C415 1.214 . S
O414 Cd410 2.352 . S
O414 C417 1.258 . S
C415 O412 1.320 . S
C415 O413 1.214 . S
O416 Cd408 2.277 . S
O416 C411 1.209 . S
C417 O414 1.258 . S
C417 O419 1.282 . S
O418 Cd410 2.277 . S
O418 C411 1.226 . S
O419 Cd410 2.356 . S
O419 C417 1.282 . S
C420 O421 1.306 . S
C420 O423 1.160 . S
O421 C420 1.306 . S
O421 Cd422 2.228 . S
Cd422 O421 2.228 . S
Cd422 O426 2.273 . S
Cd422 O430 2.277 . S
O423 C420 1.160 . S
O423 Cd424 2.203 . S
Cd424 O423 2.203 . S
Cd424 O426 2.411 . S
Cd424 O427 2.333 . S
Cd424 O428 2.352 . S
Cd424 O432 2.277 . S
Cd424 O433 2.356 . S
C425 O430 1.209 . S
C425 O432 1.226 . S
O426 Cd422 2.273 . S
O426 Cd424 2.411 . S
O426 C429 1.320 . S
O427 Cd424 2.333 . S
O427 C429 1.214 . S
O428 Cd424 2.352 . S
O428 C431 1.258 . S
C429 O426 1.320 . S
C429 O427 1.214 . S
O430 Cd422 2.277 . S
O430 C425 1.209 . S
C431 O428 1.258 . S
C431 O433 1.282 . S
O432 Cd424 2.277 . S
O432 C425 1.226 . S
O433 Cd424 2.356 . S
O433 C431 1.282 . S
C434 O435 1.306 . S
C434 O437 1.160 . S
O435 C434 1.306 . S
O435 Cd436 2.228 . S
Cd436 O435 2.228 . S
Cd436 O440 2.273 . S
Cd436 O444 2.277 . S
O437 C434 1.160 . S
O437 Cd438 2.203 . S
Cd438 O437 2.203 . S
Cd438 O440 2.411 . S
Cd438 O441 2.333 . S
Cd438 O442 2.352 . S
Cd438 O446 2.277 . S
Cd438 O447 2.356 . S
C439 O444 1.209 . S
C439 O446 1.226 . S
O440 Cd436 2.273 . S
O440 Cd438 2.411 . S
O440 C443 1.320 . S
O441 Cd438 2.333 . S
O441 C443 1.214 . S
O442 Cd438 2.352 . S
O442 C445 1.258 . S
C443 O440 1.320 . S
C443 O441 1.214 . S
O444 Cd436 2.277 . S
O444 C439 1.209 . S
C445 O442 1.258 . S
C445 O447 1.282 . S
O446 Cd438 2.277 . S
O446 C439 1.226 . S
O447 Cd438 2.356 . S
O447 C445 1.282 . S
C448 O449 1.306 . S
C448 O451 1.160 . S
O449 C448 1.306 . S
O449 Cd450 2.228 . S
Cd450 O449 2.228 . S
Cd450 O454 2.273 . S
Cd450 O458 2.277 . S
O451 C448 1.160 . S
O451 Cd452 2.203 . S
Cd452 O451 2.203 . S
Cd452 O454 2.411 . S
Cd452 O455 2.333 . S
Cd452 O456 2.352 . S
Cd452 O460 2.277 . S
Cd452 O461 2.356 . S
C453 O458 1.209 . S
C453 O460 1.226 . S
O454 Cd450 2.273 . S
O454 Cd452 2.411 . S
O454 C457 1.320 . S
O455 Cd452 2.333 . S
O455 C457 1.214 . S
O456 Cd452 2.352 . S
O456 C459 1.258 . S
C457 O454 1.320 . S
C457 O455 1.214 . S
O458 Cd450 2.277 . S
O458 C453 1.209 . S
C459 O456 1.258 . S
C459 O461 1.282 . S
O460 Cd452 2.277 . S
O460 C453 1.226 . S
O461 Cd452 2.356 . S
O461 C459 1.282 . S
C462 O463 1.306 . S
C462 O465 1.160 . S
O463 C462 1.306 . S
O463 Cd464 2.228 . S
Cd464 O463 2.228 . S
Cd464 O468 2.273 . S
Cd464 O472 2.277 . S
O465 C462 1.160 . S
O465 Cd466 2.203 . S
Cd466 O465 2.203 . S
Cd466 O468 2.411 . S
Cd466 O469 2.333 . S
Cd466 O470 2.352 . S
Cd466 O474 2.277 . S
Cd466 O475 2.356 . S
C467 O472 1.209 . S
C467 O474 1.226 . S
O468 Cd464 2.273 . S
O468 Cd466 2.411 . S
O468 C471 1.320 . S
O469 Cd466 2.333 . S
O469 C471 1.214 . S
O470 Cd466 2.352 . S
O470 C473 1.258 . S
C471 O468 1.320 . S
C471 O469 1.214 . S
O472 Cd464 2.277 . S
O472 C467 1.209 . S
C473 O470 1.258 . S
C473 O475 1.282 . S
O474 Cd466 2.277 . S
O474 C467 1.226 . S
O475 Cd466 2.356 . S
O475 C473 1.282 . S
C476 O477 1.306 . S
C476 O479 1.160 . S
O477 C476 1.306 . S
O477 Cd478 2.228 . S
Cd478 O477 2.228 . S
Cd478 O482 2.273 . S
Cd478 O486 2.277 . S
O479 C476 1.160 . S
O479 Cd480 2.203 . S
Cd480 O479 2.203 . S
Cd480 O482 2.411 . S
Cd480 O483 2.333 . S
Cd480 O484 2.352 . S
Cd480 O488 2.277 . S
Cd480 O489 2.356 . S
C481 O486 1.209 . S
C481 O488 1.226 . S
O482 Cd478 2.273 . S
O482 Cd480 2.411 . S
O482 C485 1.320 . S
O483 Cd480 2.333 . S
O483 C485 1.214 . S
O484 Cd480 2.352 . S
O484 C487 1.258 . S
C485 O482 1.320 . S
C485 O483 1.214 . S
O486 Cd478 2.277 . S
O486 C481 1.209 . S
C487 O484 1.258 . S
C487 O489 1.282 . S
O488 Cd480 2.277 . S
O488 C481 1.226 . S
O489 Cd480 2.356 . S
O489 C487 1.282 . S
C490 O491 1.306 . S
C490 O493 1.160 . S
O491 C490 1.306 . S
O491 Cd492 2.228 . S
Cd492 O491 2.228 . S
Cd492 O496 2.273 . S
Cd492 O500 2.277 . S
O493 C490 1.160 . S
O493 Cd494 2.203 . S
Cd494 O493 2.203 . S
Cd494 O496 2.411 . S
Cd494 O497 2.333 . S
Cd494 O498 2.352 . S
Cd494 O502 2.277 . S
Cd494 O503 2.356 . S
C495 O500 1.209 . S
C495 O502 1.226 . S
O496 Cd492 2.273 . S
O496 Cd494 2.411 . S
O496 C499 1.320 . S
O497 Cd494 2.333 . S
O497 C499 1.214 . S
O498 Cd494 2.352 . S
O498 C501 1.258 . S
C499 O496 1.320 . S
C499 O497 1.214 . S
O500 Cd492 2.277 . S
O500 C495 1.209 . S
C501 O498 1.258 . S
C501 O503 1.282 . S
O502 Cd494 2.277 . S
O502 C495 1.226 . S
O503 Cd494 2.356 . S
O503 C501 1.282 . S
C504 O505 1.306 . S
C504 O507 1.160 . S
O505 C504 1.306 . S
O505 Cd506 2.228 . S
Cd506 O505 2.228 . S
Cd506 O510 2.273 . S
Cd506 O514 2.277 . S
O507 C504 1.160 . S
O507 Cd508 2.203 . S
Cd508 O507 2.203 . S
Cd508 O510 2.411 . S
Cd508 O511 2.333 . S
Cd508 O512 2.352 . S
Cd508 O516 2.277 . S
Cd508 O517 2.356 . S
C509 O514 1.209 . S
C509 O516 1.226 . S
O510 Cd506 2.273 . S
O510 Cd508 2.411 . S
O510 C513 1.320 . S
O511 Cd508 2.333 . S
O511 C513 1.214 . S
O512 Cd508 2.352 . S
O512 C515 1.258 . S
C513 O510 1.320 . S
C513 O511 1.214 . S
O514 Cd506 2.277 . S
O514 C509 1.209 . S
C515 O512 1.258 . S
C515 O517 1.282 . S
O516 Cd508 2.277 . S
O516 C509 1.226 . S
O517 Cd508 2.356 . S
O517 C515 1.282 . S
C518 O519 1.306 . S
C518 O521 1.160 . S
O519 C518 1.306 . S
O519 Cd520 2.228 . S
Cd520 O519 2.228 . S
Cd520 O524 2.273 . S
Cd520 O528 2.277 . S
O521 C518 1.160 . S
O521 Cd522 2.203 . S
Cd522 O521 2.203 . S
Cd522 O524 2.411 . S
Cd522 O525 2.333 . S
Cd522 O526 2.352 . S
Cd522 O530 2.277 . S
Cd522 O531 2.356 . S
C523 O528 1.209 . S
C523 O530 1.226 . S
O524 Cd520 2.273 . S
O524 Cd522 2.411 . S
O524 C527 1.320 . S
O525 Cd522 2.333 . S
O525 C527 1.214 . S
O526 Cd522 2.352 . S
O526 C529 1.258 . S
C527 O524 1.320 . S
C527 O525 1.214 . S
O528 Cd520 2.277 . S
O528 C523 1.209 . S
C529 O526 1.258 . S
C529 O531 1.282 . S
O530 Cd522 2.277 . S
O530 C523 1.226 . S
O531 Cd522 2.356 . S
O531 C529 1.282 . S
C532 O533 1.306 . S
C532 O535 1.160 . S
O533 C532 1.306 . S
O533 Cd534 2.228 . S
Cd534 O533 2.228 . S
Cd534 O538 2.273 . S
Cd534 O542 2.277 . S
O535 C532 1.160 . S
O535 Cd536 2.203 . S
Cd536 O535 2.203 . S
Cd536 O538 2.411 . S
Cd536 O539 2.333 . S
Cd536 O540 2.352 . S
Cd536 O544 2.277 . S
Cd536 O545 2.356 . S
C537 O542 1.209 . S
C537 O544 1.226 . S
O538 Cd534 2.273 . S
O538 Cd536 2.411 . S
O538 C541 1.320 . S
O539 Cd536 2.333 . S
O539 C541 1.214 . S
O540 Cd536 2.352 . S
O540 C543 1.258 . S
C541 O538 1.320 . S
C541 O539 1.214 . S
O542 Cd534 2.277 . S
O542 C537 1.209 . S
C543 O540 1.258 . S
C543 O545 1.282 . S
O544 Cd536 2.277 . S
O544 C537 1.226 . S
O545 Cd536 2.356 . S
O545 C543 1.282 . S
C546 O547 1.306 . S
C546 O549 1.160 . S
O547 C546 1.306 . S
O547 Cd548 2.228 . S
Cd548 O547 2.228 . S
Cd548 O552 2.273 . S
Cd548 O556 2.277 . S
O549 C546 1.160 . S
O549 Cd550 2.203 . S
Cd550 O549 2.203 . S
Cd550 O552 2.411 . S
Cd550 O553 2.333 . S
Cd550 O554 2.352 . S
Cd550 O558 2.277 . S
Cd550 O559 2.356 . S
C551 O556 1.209 . S
C551 O558 1.226 . S
O552 Cd548 2.273 . S
O552 Cd550 2.411 . S
O552 C555 1.320 . S
O553 Cd550 2.333 . S
O553 C555 1.214 . S
O554 Cd550 2.352 . S
O554 C557 1.258 . S
C555 O552 1.320 . S
C555 O553 1.214 . S
O556 Cd548 2.277 . S
O556 C551 1.209 . S
C557 O554 1.258 . S
C557 O559 1.282 . S
O558 Cd550 2.277 . S
O558 C551 1.226 . S
O559 Cd550 2.356 . S
O559 C557 1.282 . S
C560 O561 1.306 . S
C560 O563 1.160 . S
O561 C560 1.306 . S
O561 Cd562 2.228 . S
Cd562 O561 2.228 . S
Cd562 O566 2.273 . S
Cd562 O570 2.277 . S
O563 C560 1.160 . S
O563 Cd564 2.203 . S
Cd564 O563 2.203 . S
Cd564 O566 2.411 . S
Cd564 O567 2.333 . S
Cd564 O568 2.352 . S
Cd564 O572 2.277 . S
Cd564 O573 2.356 . S
C565 O570 1.209 . S
C565 O572 1.226 . S
O566 Cd562 2.273 . S
O566 Cd564 2.411 . S
O566 C569 1.320 . S
O567 Cd564 2.333 . S
O567 C569 1.214 . S
O568 Cd564 2.352 . S
O568 C571 1.258 . S
C569 O566 1.320 . S
C569 O567 1.214 . S
O570 Cd562 2.277 . S
O570 C565 1.209 . S
C571 O568 1.258 . S
C571 O573 1.282 . S
O572 Cd564 2.277 . S
O572 C565 1.226 . S
O573 Cd564 2.356 . S
O573 C571 1.282 . S
C574 O575 1.306 . S
C574 O577 1.160 . S
O575 C574 1.306 . S
O575 Cd576 2.228 . S
Cd576 O575 2.228 . S
Cd576 O580 2.273 . S
Cd576 O584 2.277 . S
O577 C574 1.160 . S
O577 Cd578 2.203 . S
Cd578 O577 2.203 . S
Cd578 O580 2.411 . S
Cd578 O581 2.333 . S
Cd578 O582 2.352 . S
Cd578 O586 2.277 . S
Cd578 O587 2.356 . S
C579 O584 1.209 . S
C579 O586 1.226 . S
O580 Cd576 2.273 . S
O580 Cd578 2.411 . S
O580 C583 1.320 . S
O581 Cd578 2.333 . S
O581 C583 1.214 . S
O582 Cd578 2.352 . S
O582 C585 1.258 . S
C583 O580 1.320 . S
C583 O581 1.214 . S
O584 Cd576 2.277 . S
O584 C579 1.209 . S
C585 O582 1.258 . S
C585 O587 1.282 . S
O586 Cd578 2.277 . S
O586 C579 1.226 . S
O587 Cd578 2.356 . S
O587 C585 1.282 . S
C588 O589 1.306 . S
C588 O591 1.160 . S
O589 C588 1.306 . S
O589 Cd590 2.228 . S
Cd590 O589 2.228 . S
Cd590 O594 2.273 . S
Cd590 O598 2.277 . S
O591 C588 1.160 . S
O591 Cd592 2.203 . S
Cd592 O591 2.203 . S
Cd592 O594 2.411 . S
Cd592 O595 2.333 . S
Cd592 O596 2.352 . S
Cd592 O600 2.277 . S
Cd592 O601 2.356 . S
C593 O598 1.209 . S
C593 O600 1.226 . S
O594 Cd590 2.273 . S
O594 Cd592 2.411 . S
O594 C597 1.320 . S
O595 Cd592 2.333 . S
O595 C597 1.214 . S
O596 Cd592 2.352 . S
O596 C599 1.258 . S
C597 O594 1.320 . S
C597 O595 1.214 . S
O598 Cd590 2.277 . S
O598 C593 1.209 . S
C599 O596 1.258 . S
C599 O601 1.282 . S
O600 Cd592 2.277 . S
O600 C593 1.226 . S
O601 Cd592 2.356 . S
O601 C599 1.282 . S
C602 O603 1.306 . S
C602 O605 1.160 . S
O603 C602 1.306 . S
O603 Cd604 2.228 . S
Cd604 O603 2.228 . S
Cd604 O608 2.273 . S
Cd604 O612 2.277 . S
O605 C602 1.160 . S
O605 Cd606 2.203 . S
Cd606 O605 2.203 . S
Cd606 O608 2.411 . S
Cd606 O609 2.333 . S
Cd606 O610 2.352 . S
Cd606 O614 2.277 . S
Cd606 O615 2.356 . S
C607 O612 1.209 . S
C607 O614 1.226 . S
O608 Cd604 2.273 . S
O608 Cd606 2.411 . S
O608 C611 1.320 . S
O609 Cd606 2.333 . S
O609 C611 1.214 . S
O610 Cd606 2.352 . S
O610 C613 1.258 . S
C611 O608 1.320 . S
C611 O609 1.214 . S
O612 Cd604 2.277 . S
O612 C607 1.209 . S
C613 O610 1.258 . S
C613 O615 1.282 . S
O614 Cd606 2.277 . S
O614 C607 1.226 . S
O615 Cd606 2.356 . S
O615 C613 1.282 . S
C616 O617 1.306 . S
C616 O619 1.160 . S
O617 C616 1.306 . S
O617 Cd618 2.228 . S
Cd618 O617 2.228 . S
Cd618 O622 2.273 . S
Cd618 O626 2.277 . S
O619 C616 1.160 . S
O619 Cd620 2.203 . S
Cd620 O619 2.203 . S
Cd620 O622 2.411 . S
Cd620 O623 2.333 . S
Cd620 O624 2.352 . S
Cd620 O628 2.277 . S
Cd620 O629 2.356 . S
C621 O626 1.209 . S
C621 O628 1.226 . S
O622 Cd618 2.273 . S
O622 Cd620 2.411 . S
O622 C625 1.320 . S
O623 Cd620 2.333 . S
O623 C625 1.214 . S
O624 Cd620 2.352 . S
O624 C627 1.258 . S
C625 O622 1.320 . S
C625 O623 1.214 . S
O626 Cd618 2.277 . S
O626 C621 1.209 . S
C627 O624 1.258 . S
C627 O629 1.282 . S
O628 Cd620 2.277 . S
O628 C621 1.226 . S
O629 Cd620 2.356 . S
O629 C627 1.282 . S
C630 O631 1.306 . S
C630 O633 1.160 . S
O631 C630 1.306 . S
O631 Cd632 2.228 . S
Cd632 O631 2.228 . S
Cd632 O636 2.273 . S
Cd632 O640 2.277 . S
O633 C630 1.160 . S
O633 Cd634 2.203 . S
Cd634 O633 2.203 . S
Cd634 O636 2.411 . S
Cd634 O637 2.333 . S
Cd634 O638 2.352 . S
Cd634 O642 2.277 . S
Cd634 O643 2.356 . S
C635 O640 1.209 . S
C635 O642 1.226 . S
O636 Cd632 2.273 . S
O636 Cd634 2.411 . S
O636 C639 1.320 . S
O637 Cd634 2.333 . S
O637 C639 1.214 . S
O638 Cd634 2.352 . S
O638 C641 1.258 . S
C639 O636 1.320 . S
C639 O637 1.214 . S
O640 Cd632 2.277 . S
O640 C635 1.209 . S
C641 O638 1.258 . S
C641 O643 1.282 . S
O642 Cd634 2.277 . S
O642 C635 1.226 . S
O643 Cd634 2.356 . S
O643 C641 1.282 . S
C644 O645 1.306 . S
C644 O647 1.160 . S
O645 C644 1.306 . S
O645 Cd646 2.228 . S
Cd646 O645 2.228 . S
Cd646 O650 2.273 . S
Cd646 O654 2.277 . S
O647 C644 1.160 . S
O647 Cd648 2.203 . S
Cd648 O647 2.203 . S
Cd648 O650 2.411 . S
Cd648 O651 2.333 . S
Cd648 O652 2.352 . S
Cd648 O656 2.277 . S
Cd648 O657 2.356 . S
C649 O654 1.209 . S
C649 O656 1.226 . S
O650 Cd646 2.273 . S
O650 Cd648 2.411 . S
O650 C653 1.320 . S
O651 Cd648 2.333 . S
O651 C653 1.214 . S
O652 Cd648 2.352 . S
O652 C655 1.258 . S
C653 O650 1.320 . S
C653 O651 1.214 . S
O654 Cd646 2.277 . S
O654 C649 1.209 . S
C655 O652 1.258 . S
C655 O657 1.282 . S
O656 Cd648 2.277 . S
O656 C649 1.226 . S
O657 Cd648 2.356 . S
O657 C655 1.282 . S
C658 O659 1.306 . S
C658 O661 1.160 . S
O659 C658 1.306 . S
O659 Cd660 2.228 . S
Cd660 O659 2.228 . S
Cd660 O664 2.273 . S
Cd660 O668 2.277 . S
O661 C658 1.160 . S
O661 Cd662 2.203 . S
Cd662 O661 2.203 . S
Cd662 O664 2.411 . S
Cd662 O665 2.333 . S
Cd662 O666 2.352 . S
Cd662 O670 2.277 . S
Cd662 O671 2.356 . S
C663 O668 1.209 . S
C663 O670 1.226 . S
O664 Cd660 2.273 . S
O664 Cd662 2.411 . S
O664 C667 1.320 . S
O665 Cd662 2.333 . S
O665 C667 1.214 . S
O666 Cd662 2.352 . S
O666 C669 1.258 . S
C667 O664 1.320 . S
C667 O665 1.214 . S
O668 Cd660 2.277 . S
O668 C663 1.209 . S
C669 O666 1.258 . S
C669 O671 1.282 . S
O670 Cd662 2.277 . S
O670 C663 1.226 . S
O671 Cd662 2.356 . S
O671 C669 1.282 . S
H672 C678 0.930 . S
H673 C682 0.930 . S
H674 C687 0.929 . S
H675 C685 0.929 . S
H676 C680 0.929 . S
H677 C686 0.929 . S
C678 H672 0.930 . S
C678 C679 1.367 . S
C678 C686 1.378 . S
C679 C678 1.367 . S
C679 C687 1.433 . S
C680 H676 0.929 . S
C680 C682 1.378 . S
C680 C684 1.350 . S
C681 C684 1.463 . S
C681 C686 1.350 . S
C681 N689 1.427 . S
C682 H673 0.930 . S
C682 C680 1.378 . S
C682 C683 1.367 . S
C683 C682 1.367 . S
C683 C685 1.433 . S
C684 C680 1.350 . S
C684 C681 1.463 . S
C684 N688 1.427 . S
C685 H675 0.929 . S
C685 C683 1.433 . S
C685 N688 1.384 . S
C686 H677 0.929 . S
C686 C678 1.378 . S
C686 C681 1.350 . S
C687 H674 0.929 . S
C687 C679 1.433 . S
C687 N689 1.384 . S
N688 C684 1.427 . S
N688 C685 1.384 . S
N689 C681 1.427 . S
N689 C687 1.384 . S
H690 C696 0.930 . S
H691 C700 0.930 . S
H692 C705 0.929 . S
H693 C703 0.929 . S
H694 C698 0.929 . S
H695 C704 0.929 1_655 S
C696 H690 0.930 . S
C696 C697 1.367 . S
C696 C704 1.378 . S
C697 C696 1.367 . S
C697 C705 1.433 . S
C698 H694 0.929 . S
C698 C700 1.378 . S
C698 C702 1.350 . S
C699 C702 1.463 . S
C699 C704 1.350 1_655 S
C699 N707 1.427 1_655 S
C700 H691 0.930 . S
C700 C698 1.378 . S
C700 C701 1.367 . S
C701 C700 1.367 . S
C701 C703 1.433 . S
C702 C698 1.350 . S
C702 C699 1.463 . S
C702 N706 1.427 . S
C703 H693 0.929 . S
C703 C701 1.433 . S
C703 N706 1.384 . S
C704 H695 0.929 1_455 S
C704 C696 1.378 . S
C704 C699 1.350 1_455 S
C705 H692 0.929 . S
C705 C697 1.433 . S
C705 N707 1.384 . S
N706 C702 1.427 . S
N706 C703 1.384 . S
N707 C699 1.427 1_455 S
N707 C705 1.384 . S
H708 C714 0.930 . S
H709 C718 0.930 . S
H710 C723 0.929 . S
H711 C721 0.929 . S
H712 C716 0.929 . S
H713 C722 0.929 . S
C714 H708 0.930 . S
C714 C715 1.367 . S
C714 C722 1.378 . S
C715 C714 1.367 . S
C715 C723 1.433 . S
C716 H712 0.929 . S
C716 C718 1.378 . S
C716 C720 1.350 . S
C717 C720 1.463 . S
C717 C722 1.350 . S
C717 N725 1.427 . S
C718 H709 0.930 . S
C718 C716 1.378 . S
C718 C719 1.367 . S
C719 C718 1.367 . S
C719 C721 1.433 . S
C720 C716 1.350 . S
C720 C717 1.463 . S
C720 N724 1.427 . S
C721 H711 0.929 . S
C721 C719 1.433 . S
C721 N724 1.384 . S
C722 H713 0.929 . S
C722 C714 1.378 . S
C722 C717 1.350 . S
C723 H710 0.929 . S
C723 C715 1.433 . S
C723 N725 1.384 . S
N724 C720 1.427 . S
N724 C721 1.384 . S
N725 C717 1.427 . S
N725 C723 1.384 . S
H726 C732 0.930 . S
H727 C736 0.930 . S
H728 C741 0.929 . S
H729 C739 0.929 . S
H730 C734 0.929 . S
H731 C740 0.929 . S
C732 H726 0.930 . S
C732 C733 1.367 . S
C732 C740 1.378 . S
C733 C732 1.367 . S
C733 C741 1.433 . S
C734 H730 0.929 . S
C734 C736 1.378 . S
C734 C738 1.350 . S
C735 C738 1.463 . S
C735 C740 1.350 . S
C735 N743 1.427 . S
C736 H727 0.930 . S
C736 C734 1.378 . S
C736 C737 1.367 . S
C737 C736 1.367 . S
C737 C739 1.433 . S
C738 C734 1.350 . S
C738 C735 1.463 . S
C738 N742 1.427 . S
C739 H729 0.929 . S
C739 C737 1.433 . S
C739 N742 1.384 . S
C740 H731 0.929 . S
C740 C732 1.378 . S
C740 C735 1.350 . S
C741 H728 0.929 . S
C741 C733 1.433 . S
C741 N743 1.384 . S
N742 C738 1.427 . S
N742 C739 1.384 . S
N743 C735 1.427 . S
N743 C741 1.384 . S
H744 C750 0.930 . S
H745 C754 0.930 . S
H746 C759 0.929 . S
H747 C757 0.929 . S
H748 C752 0.929 . S
H749 C758 0.929 . S
C750 H744 0.930 . S
C750 C751 1.367 . S
C750 C758 1.378 . S
C751 C750 1.367 . S
C751 C759 1.433 . S
C752 H748 0.929 . S
C752 C754 1.378 . S
C752 C756 1.350 . S
C753 C756 1.463 . S
C753 C758 1.350 . S
C753 N761 1.427 . S
C754 H745 0.930 . S
C754 C752 1.378 . S
C754 C755 1.367 . S
C755 C754 1.367 . S
C755 C757 1.433 . S
C756 C752 1.350 . S
C756 C753 1.463 . S
C756 N760 1.427 . S
C757 H747 0.929 . S
C757 C755 1.433 . S
C757 N760 1.384 . S
C758 H749 0.929 . S
C758 C750 1.378 . S
C758 C753 1.350 . S
C759 H746 0.929 . S
C759 C751 1.433 . S
C759 N761 1.384 . S
N760 C756 1.427 . S
N760 C757 1.384 . S
N761 C753 1.427 . S
N761 C759 1.384 . S
H762 C768 0.930 . S
H763 C772 0.930 . S
H764 C777 0.929 . S
H765 C775 0.929 . S
H766 C770 0.929 . S
H767 C776 0.929 . S
C768 H762 0.930 . S
C768 C769 1.367 . S
C768 C776 1.378 . S
C769 C768 1.367 . S
C769 C777 1.433 . S
C770 H766 0.929 . S
C770 C772 1.378 . S
C770 C774 1.350 . S
C771 C774 1.463 . S
C771 C776 1.350 . S
C771 N779 1.427 . S
C772 H763 0.930 . S
C772 C770 1.378 . S
C772 C773 1.367 . S
C773 C772 1.367 . S
C773 C775 1.433 . S
C774 C770 1.350 . S
C774 C771 1.463 . S
C774 N778 1.427 . S
C775 H765 0.929 . S
C775 C773 1.433 . S
C775 N778 1.384 . S
C776 H767 0.929 . S
C776 C768 1.378 . S
C776 C771 1.350 . S
C777 H764 0.929 . S
C777 C769 1.433 . S
C777 N779 1.384 . S
N778 C774 1.427 . S
N778 C775 1.384 . S
N779 C771 1.427 . S
N779 C777 1.384 . S
H780 C786 0.930 . S
H781 C790 0.930 . S
H782 C795 0.929 . S
H783 C793 0.929 . S
H784 C788 0.929 . S
H785 C794 0.929 . S
C786 H780 0.930 . S
C786 C787 1.367 . S
C786 C794 1.378 . S
C787 C786 1.367 . S
C787 C795 1.433 . S
C788 H784 0.929 . S
C788 C790 1.378 . S
C788 C792 1.350 . S
C789 C792 1.463 . S
C789 C794 1.350 . S
C789 N797 1.427 . S
C790 H781 0.930 . S
C790 C788 1.378 . S
C790 C791 1.367 . S
C791 C790 1.367 . S
C791 C793 1.433 . S
C792 C788 1.350 . S
C792 C789 1.463 . S
C792 N796 1.427 . S
C793 H783 0.929 . S
C793 C791 1.433 . S
C793 N796 1.384 . S
C794 H785 0.929 . S
C794 C786 1.378 . S
C794 C789 1.350 . S
C795 H782 0.929 . S
C795 C787 1.433 . S
C795 N797 1.384 . S
N796 C792 1.427 . S
N796 C793 1.384 . S
N797 C789 1.427 . S
N797 C795 1.384 . S
H798 C804 0.930 . S
H799 C808 0.930 . S
H800 C813 0.929 . S
H801 C811 0.929 . S
H802 C806 0.929 . S
H803 C812 0.929 . S
C804 H798 0.930 . S
C804 C805 1.367 . S
C804 C812 1.378 . S
C805 C804 1.367 . S
C805 C813 1.433 . S
C806 H802 0.929 . S
C806 C808 1.378 . S
C806 C810 1.350 . S
C807 C810 1.463 . S
C807 C812 1.350 1_655 S
C807 N815 1.427 1_655 S
C808 H799 0.930 . S
C808 C806 1.378 . S
C808 C809 1.367 . S
C809 C808 1.367 . S
C809 C811 1.433 . S
C810 C806 1.350 . S
C810 C807 1.463 . S
C810 N814 1.427 . S
C811 H801 0.929 . S
C811 C809 1.433 . S
C811 N814 1.384 . S
C812 H803 0.929 . S
C812 C804 1.378 . S
C812 C807 1.350 1_455 S
C813 H800 0.929 . S
C813 C805 1.433 . S
C813 N815 1.384 . S
N814 C810 1.427 . S
N814 C811 1.384 . S
N815 C807 1.427 1_455 S
N815 C813 1.384 . S
H816 C822 0.930 . S
H817 C826 0.930 . S
H818 C831 0.929 . S
H819 C829 0.929 . S
H820 C824 0.929 . S
H821 C830 0.929 . S
C822 H816 0.930 . S
C822 C823 1.367 . S
C822 C830 1.378 . S
C823 C822 1.367 . S
C823 C831 1.433 . S
C824 H820 0.929 . S
C824 C826 1.378 . S
C824 C828 1.350 . S
C825 C828 1.463 . S
C825 C830 1.350 . S
C825 N833 1.427 . S
C826 H817 0.930 . S
C826 C824 1.378 . S
C826 C827 1.367 . S
C827 C826 1.367 . S
C827 C829 1.433 . S
C828 C824 1.350 . S
C828 C825 1.463 . S
C828 N832 1.427 . S
C829 H819 0.929 . S
C829 C827 1.433 . S
C829 N832 1.384 . S
C830 H821 0.929 . S
C830 C822 1.378 . S
C830 C825 1.350 . S
C831 H818 0.929 . S
C831 C823 1.433 . S
C831 N833 1.384 . S
N832 C828 1.427 . S
N832 C829 1.384 . S
N833 C825 1.427 . S
N833 C831 1.384 . S
H834 C840 0.930 . S
H835 C844 0.930 . S
H836 C849 0.929 . S
H837 C847 0.929 . S
H838 C842 0.929 . S
H839 C848 0.929 . S
C840 H834 0.930 . S
C840 C841 1.367 . S
C840 C848 1.378 . S
C841 C840 1.367 . S
C841 C849 1.433 . S
C842 H838 0.929 . S
C842 C844 1.378 . S
C842 C846 1.350 . S
C843 C846 1.463 . S
C843 C848 1.350 . S
C843 N851 1.427 . S
C844 H835 0.930 . S
C844 C842 1.378 . S
C844 C845 1.367 . S
C845 C844 1.367 . S
C845 C847 1.433 . S
C846 C842 1.350 . S
C846 C843 1.463 . S
C846 N850 1.427 . S
C847 H837 0.929 . S
C847 C845 1.433 . S
C847 N850 1.384 . S
C848 H839 0.929 . S
C848 C840 1.378 . S
C848 C843 1.350 . S
C849 H836 0.929 . S
C849 C841 1.433 . S
C849 N851 1.384 . S
N850 C846 1.427 . S
N850 C847 1.384 . S
N851 C843 1.427 . S
N851 C849 1.384 . S
H852 C858 0.930 . S
H853 C862 0.930 . S
H854 C867 0.929 . S
H855 C865 0.929 . S
H856 C860 0.929 . S
H857 C866 0.929 . S
C858 H852 0.930 . S
C858 C859 1.367 . S
C858 C866 1.378 . S
C859 C858 1.367 . S
C859 C867 1.433 . S
C860 H856 0.929 . S
C860 C862 1.378 . S
C860 C864 1.350 . S
C861 C864 1.463 . S
C861 C866 1.350 . S
C861 N869 1.427 . S
C862 H853 0.930 . S
C862 C860 1.378 . S
C862 C863 1.367 . S
C863 C862 1.367 . S
C863 C865 1.433 . S
C864 C860 1.350 . S
C864 C861 1.463 . S
C864 N868 1.427 . S
C865 H855 0.929 . S
C865 C863 1.433 . S
C865 N868 1.384 . S
C866 H857 0.929 . S
C866 C858 1.378 . S
C866 C861 1.350 . S
C867 H854 0.929 . S
C867 C859 1.433 . S
C867 N869 1.384 . S
N868 C864 1.427 . S
N868 C865 1.384 . S
N869 C861 1.427 . S
N869 C867 1.384 . S
H870 C876 0.930 . S
H871 C880 0.930 . S
H872 C885 0.929 . S
H873 C883 0.929 . S
H874 C878 0.929 . S
H875 C884 0.960 . S
C876 H870 0.930 . S
C876 C877 1.367 . S
C876 C884 1.332 1_556 S
C877 C876 1.367 . S
C877 C885 1.433 . S
C878 H874 0.929 . S
C878 C880 1.378 . S
C878 C882 1.350 . S
C879 C882 1.463 . S
C879 C884 1.365 . S
C879 N887 1.427 1_554 S
C880 H871 0.930 . S
C880 C878 1.378 . S
C880 C881 1.367 . S
C881 C880 1.367 . S
C881 C883 1.433 . S
C882 C878 1.350 . S
C882 C879 1.463 . S
C882 N886 1.427 . S
C883 H873 0.929 . S
C883 C881 1.433 . S
C883 N886 1.384 . S
C884 H875 0.960 . S
C884 C876 1.332 1_554 S
C884 C879 1.365 . S
C885 H872 0.929 . S
C885 C877 1.433 . S
C885 N887 1.384 . S
N886 C882 1.427 . S
N886 C883 1.384 . S
N887 C879 1.427 1_556 S
N887 C885 1.384 . S
H888 C894 0.930 . S
H889 C898 0.930 . S
H890 C903 0.929 . S
H891 C901 0.929 . S
H892 C896 0.929 . S
H893 C902 0.929 . S
C894 H888 0.930 . S
C894 C895 1.367 . S
C894 C902 1.378 . S
C895 C894 1.367 . S
C895 C903 1.433 . S
C896 H892 0.929 . S
C896 C898 1.378 . S
C896 C900 1.350 . S
C897 C900 1.463 . S
C897 C902 1.350 . S
C897 N905 1.427 . S
C898 H889 0.930 . S
C898 C896 1.378 . S
C898 C899 1.367 . S
C899 C898 1.367 . S
C899 C901 1.433 . S
C900 C896 1.350 . S
C900 C897 1.463 . S
C900 N904 1.427 . S
C901 H891 0.929 . S
C901 C899 1.433 . S
C901 N904 1.384 . S
C902 H893 0.929 . S
C902 C894 1.378 . S
C902 C897 1.350 . S
C903 H890 0.929 . S
C903 C895 1.433 . S
C903 N905 1.384 . S
N904 C900 1.427 . S
N904 C901 1.384 . S
N905 C897 1.427 . S
N905 C903 1.384 . S
H906 C912 0.930 . S
H907 C916 0.930 . S
H908 C921 0.929 . S
H909 C919 0.929 . S
H910 C914 0.929 . S
H911 C920 0.929 . S
C912 H906 0.930 . S
C912 C913 1.367 . S
C912 C920 1.378 . S
C913 C912 1.367 . S
C913 C921 1.433 . S
C914 H910 0.929 . S
C914 C916 1.378 . S
C914 C918 1.350 . S
C915 C918 1.463 . S
C915 C920 1.350 . S
C915 N923 1.427 . S
C916 H907 0.930 . S
C916 C914 1.378 . S
C916 C917 1.367 . S
C917 C916 1.367 . S
C917 C919 1.433 . S
C918 C914 1.350 . S
C918 C915 1.463 . S
C918 N922 1.427 . S
C919 H909 0.929 . S
C919 C917 1.433 . S
C919 N922 1.384 . S
C920 H911 0.929 . S
C920 C912 1.378 . S
C920 C915 1.350 . S
C921 H908 0.929 . S
C921 C913 1.433 . S
C921 N923 1.384 . S
N922 C918 1.427 . S
N922 C919 1.384 . S
N923 C915 1.427 . S
N923 C921 1.384 . S
H924 C930 0.930 . S
H925 C934 0.930 . S
H926 C939 0.929 . S
H927 C937 0.929 . S
H928 C932 0.929 . S
H929 C938 0.929 . S
C930 H924 0.930 . S
C930 C931 1.367 . S
C930 C938 1.378 . S
C931 C930 1.367 . S
C931 C939 1.433 . S
C932 H928 0.929 . S
C932 C934 1.378 . S
C932 C936 1.350 . S
C933 C936 1.463 . S
C933 C938 1.350 . S
C933 N941 1.427 . S
C934 H925 0.930 . S
C934 C932 1.378 . S
C934 C935 1.367 . S
C935 C934 1.367 . S
C935 C937 1.433 . S
C936 C932 1.350 . S
C936 C933 1.463 . S
C936 N940 1.427 . S
C937 H927 0.929 . S
C937 C935 1.433 . S
C937 N940 1.384 . S
C938 H929 0.929 . S
C938 C930 1.378 . S
C938 C933 1.350 . S
C939 H926 0.929 . S
C939 C931 1.433 . S
C939 N941 1.384 . S
N940 C936 1.427 . S
N940 C937 1.384 . S
N941 C933 1.427 . S
N941 C939 1.384 . S
H942 C948 0.930 . S
H943 C952 0.930 . S
H944 C957 0.929 . S
H945 C955 0.929 . S
H946 C950 0.929 . S
H947 C956 0.929 . S
C948 H942 0.930 . S
C948 C949 1.367 . S
C948 C956 1.378 1_554 S
C949 C948 1.367 . S
C949 C957 1.433 . S
C950 H946 0.929 . S
C950 C952 1.378 . S
C950 C954 1.350 . S
C951 C954 1.463 . S
C951 C956 1.350 . S
C951 N959 1.427 1_556 S
C952 H943 0.930 . S
C952 C950 1.378 . S
C952 C953 1.367 . S
C953 C952 1.367 . S
C953 C955 1.433 . S
C954 C950 1.350 . S
C954 C951 1.463 . S
C954 N958 1.427 . S
C955 H945 0.929 . S
C955 C953 1.433 . S
C955 N958 1.384 . S
C956 H947 0.929 . S
C956 C948 1.378 1_556 S
C956 C951 1.350 . S
C957 H944 0.929 . S
C957 C949 1.433 . S
C957 N959 1.384 . S
N958 C954 1.427 . S
N958 C955 1.384 . S
N959 C951 1.427 1_554 S
N959 C957 1.384 . S
H960 C966 0.930 . S
H961 C970 0.930 . S
H962 C975 0.929 . S
H963 C973 0.929 . S
H964 C968 0.929 . S
H965 C974 0.929 . S
C966 H960 0.930 . S
C966 C967 1.367 . S
C966 C974 1.378 . S
C967 C966 1.367 . S
C967 C975 1.433 . S
C968 H964 0.929 . S
C968 C970 1.378 . S
C968 C972 1.350 . S
C969 C972 1.463 . S
C969 C974 1.350 . S
C969 N977 1.427 . S
C970 H961 0.930 . S
C970 C968 1.378 . S
C970 C971 1.367 . S
C971 C970 1.367 . S
C971 C973 1.433 . S
C972 C968 1.350 . S
C972 C969 1.463 . S
C972 N976 1.427 . S
C973 H963 0.929 . S
C973 C971 1.433 . S
C973 N976 1.384 . S
C974 H965 0.929 . S
C974 C966 1.378 . S
C974 C969 1.350 . S
C975 H962 0.929 . S
C975 C967 1.433 . S
C975 N977 1.384 . S
N976 C972 1.427 . S
N976 C973 1.384 . S
N977 C969 1.427 . S
N977 C975 1.384 . S
H978 C984 0.930 . S
H979 C988 0.930 . S
H980 C993 0.929 . S
H981 C991 0.929 . S
H982 C986 0.929 . S
H983 C992 0.929 . S
C984 H978 0.930 . S
C984 C985 1.367 . S
C984 C992 1.378 . S
C985 C984 1.367 . S
C985 C993 1.433 . S
C986 H982 0.929 . S
C986 C988 1.378 . S
C986 C990 1.350 . S
C987 C990 1.463 . S
C987 C992 1.350 . S
C987 N995 1.427 . S
C988 H979 0.930 . S
C988 C986 1.378 . S
C988 C989 1.367 . S
C989 C988 1.367 . S
C989 C991 1.433 . S
C990 C986 1.350 . S
C990 C987 1.463 . S
C990 N994 1.427 . S
C991 H981 0.929 . S
C991 C989 1.433 . S
C991 N994 1.384 . S
C992 H983 0.929 . S
C992 C984 1.378 . S
C992 C987 1.350 . S
C993 H980 0.929 . S
C993 C985 1.433 . S
C993 N995 1.384 . S
N994 C990 1.427 . S
N994 C991 1.384 . S
N995 C987 1.427 . S
N995 C993 1.384 . S
H996 C1002 0.930 . S
H997 C1006 0.930 . S
H998 C1011 0.929 . S
H999 C1009 0.929 . S
H1000 C1004 0.929 . S
H1001 C1010 0.929 . S
C1002 H996 0.930 . S
C1002 C1003 1.367 . S
C1002 C1010 1.378 . S
C1003 C1002 1.367 . S
C1003 C1011 1.433 . S
C1004 H1000 0.929 . S
C1004 C1006 1.378 . S
C1004 C1008 1.350 . S
C1005 C1008 1.463 . S
C1005 C1010 1.350 . S
C1005 N1013 1.427 . S
C1006 H997 0.930 . S
C1006 C1004 1.378 . S
C1006 C1007 1.367 . S
C1007 C1006 1.367 . S
C1007 C1009 1.433 . S
C1008 C1004 1.350 . S
C1008 C1005 1.463 . S
C1008 N1012 1.427 . S
C1009 H999 0.929 . S
C1009 C1007 1.433 . S
C1009 N1012 1.384 . S
C1010 H1001 0.929 . S
C1010 C1002 1.378 . S
C1010 C1005 1.350 . S
C1011 H998 0.929 . S
C1011 C1003 1.433 . S
C1011 N1013 1.384 . S
N1012 C1008 1.427 . S
N1012 C1009 1.384 . S
N1013 C1005 1.427 . S
N1013 C1011 1.384 . S
H1014 C1020 0.930 . S
H1015 C1024 0.930 . S
H1016 C1029 0.929 . S
H1017 C1027 0.929 . S
H1018 C1022 0.929 . S
H1019 C1028 0.929 . S
C1020 H1014 0.930 . S
C1020 C1021 1.367 . S
C1020 C1028 1.378 . S
C1021 C1020 1.367 . S
C1021 C1029 1.433 . S
C1022 H1018 0.929 . S
C1022 C1024 1.378 . S
C1022 C1026 1.350 . S
C1023 C1026 1.463 . S
C1023 C1028 1.350 . S
C1023 N1031 1.427 . S
C1024 H1015 0.930 . S
C1024 C1022 1.378 . S
C1024 C1025 1.367 . S
C1025 C1024 1.367 . S
C1025 C1027 1.433 . S
C1026 C1022 1.350 . S
C1026 C1023 1.463 . S
C1026 N1030 1.427 . S
C1027 H1017 0.929 . S
C1027 C1025 1.433 . S
C1027 N1030 1.384 . S
C1028 H1019 0.929 . S
C1028 C1020 1.378 . S
C1028 C1023 1.350 . S
C1029 H1016 0.929 . S
C1029 C1021 1.433 . S
C1029 N1031 1.384 . S
N1030 C1026 1.427 . S
N1030 C1027 1.384 . S
N1031 C1023 1.427 . S
N1031 C1029 1.384 . S
H1032 C1038 0.930 . S
H1033 C1042 0.930 . S
H1034 C1047 0.929 . S
H1035 C1045 0.929 . S
H1036 C1040 0.943 . S
H1037 C1046 0.929 . S
C1038 H1032 0.930 . S
C1038 C1039 1.367 . S
C1038 C1046 1.378 . S
C1039 C1038 1.367 . S
C1039 C1047 1.433 . S
C1040 H1036 0.943 . S
C1040 C1042 1.353 1_565 S
C1040 C1044 1.360 . S
C1041 C1044 1.463 . S
C1041 C1046 1.350 . S
C1041 N1049 1.427 . S
C1042 H1033 0.930 . S
C1042 C1040 1.353 1_545 S
C1042 C1043 1.367 . S
C1043 C1042 1.367 . S
C1043 C1045 1.433 . S
C1044 C1040 1.360 . S
C1044 C1041 1.463 . S
C1044 N1048 1.427 1_565 S
C1045 H1035 0.929 . S
C1045 C1043 1.433 . S
C1045 N1048 1.384 . S
C1046 H1037 0.929 . S
C1046 C1038 1.378 . S
C1046 C1041 1.350 . S
C1047 H1034 0.929 . S
C1047 C1039 1.433 . S
C1047 N1049 1.384 . S
N1048 C1044 1.427 1_545 S
N1048 C1045 1.384 . S
N1049 C1041 1.427 . S
N1049 C1047 1.384 . S
H1050 C1056 0.930 . S
H1051 C1060 0.930 . S
H1052 C1065 0.929 . S
H1053 C1063 0.929 . S
H1054 C1058 0.929 . S
H1055 C1064 0.929 . S
C1056 H1050 0.930 . S
C1056 C1057 1.367 . S
C1056 C1064 1.378 . S
C1057 C1056 1.367 . S
C1057 C1065 1.433 . S
C1058 H1054 0.929 . S
C1058 C1060 1.378 . S
C1058 C1062 1.350 . S
C1059 C1062 1.463 . S
C1059 C1064 1.350 . S
C1059 N1067 1.427 . S
C1060 H1051 0.930 . S
C1060 C1058 1.378 . S
C1060 C1061 1.367 . S
C1061 C1060 1.367 . S
C1061 C1063 1.433 . S
C1062 C1058 1.350 . S
C1062 C1059 1.463 . S
C1062 N1066 1.427 . S
C1063 H1053 0.929 . S
C1063 C1061 1.433 . S
C1063 N1066 1.384 . S
C1064 H1055 0.929 . S
C1064 C1056 1.378 . S
C1064 C1059 1.350 . S
C1065 H1052 0.929 . S
C1065 C1057 1.433 . S
C1065 N1067 1.384 . S
N1066 C1062 1.427 . S
N1066 C1063 1.384 . S
N1067 C1059 1.427 . S
N1067 C1065 1.384 . S
H1068 C1074 0.930 . S
H1069 C1078 0.930 . S
H1070 C1083 0.929 . S
H1071 C1081 0.929 . S
H1072 C1076 0.929 . S
H1073 C1082 0.929 . S
C1074 H1068 0.930 . S
C1074 C1075 1.367 . S
C1074 C1082 1.378 . S
C1075 C1074 1.367 . S
C1075 C1083 1.433 . S
C1076 H1072 0.929 . S
C1076 C1078 1.378 . S
C1076 C1080 1.350 . S
C1077 C1080 1.463 . S
C1077 C1082 1.350 . S
C1077 N1085 1.427 . S
C1078 H1069 0.930 . S
C1078 C1076 1.378 . S
C1078 C1079 1.367 . S
C1079 C1078 1.367 . S
C1079 C1081 1.433 . S
C1080 C1076 1.350 . S
C1080 C1077 1.463 . S
C1080 N1084 1.427 . S
C1081 H1071 0.929 . S
C1081 C1079 1.433 . S
C1081 N1084 1.384 . S
C1082 H1073 0.929 . S
C1082 C1074 1.378 . S
C1082 C1077 1.350 . S
C1083 H1070 0.929 . S
C1083 C1075 1.433 . S
C1083 N1085 1.384 . S
N1084 C1080 1.427 . S
N1084 C1081 1.384 . S
N1085 C1077 1.427 . S
N1085 C1083 1.384 . S
H1086 C1092 0.930 . S
H1087 C1096 0.930 . S
H1088 C1101 0.929 . S
H1089 C1099 0.929 . S
H1090 C1094 0.929 . S
H1091 C1100 0.929 . S
C1092 H1086 0.930 . S
C1092 C1093 1.367 . S
C1092 C1100 1.378 . S
C1093 C1092 1.367 . S
C1093 C1101 1.433 . S
C1094 H1090 0.929 . S
C1094 C1096 1.378 . S
C1094 C1098 1.350 . S
C1095 C1098 1.463 . S
C1095 C1100 1.350 . S
C1095 N1103 1.427 . S
C1096 H1087 0.930 . S
C1096 C1094 1.378 . S
C1096 C1097 1.367 . S
C1097 C1096 1.367 . S
C1097 C1099 1.433 . S
C1098 C1094 1.350 . S
C1098 C1095 1.463 . S
C1098 N1102 1.427 . S
C1099 H1089 0.929 . S
C1099 C1097 1.433 . S
C1099 N1102 1.384 . S
C1100 H1091 0.929 . S
C1100 C1092 1.378 . S
C1100 C1095 1.350 . S
C1101 H1088 0.929 . S
C1101 C1093 1.433 . S
C1101 N1103 1.384 . S
N1102 C1098 1.427 . S
N1102 C1099 1.384 . S
N1103 C1095 1.427 . S
N1103 C1101 1.384 . S
H1104 C1110 0.930 . S
H1105 C1114 0.930 . S
H1106 C1119 0.929 . S
H1107 C1117 0.929 . S
H1108 C1112 0.929 . S
H1109 C1118 0.929 . S
C1110 H1104 0.930 . S
C1110 C1111 1.367 . S
C1110 C1118 1.378 . S
C1111 C1110 1.367 . S
C1111 C1119 1.433 . S
C1112 H1108 0.929 . S
C1112 C1114 1.378 . S
C1112 C1116 1.350 . S
C1113 C1116 1.463 . S
C1113 C1118 1.350 . S
C1113 N1121 1.427 . S
C1114 H1105 0.930 . S
C1114 C1112 1.378 . S
C1114 C1115 1.367 . S
C1115 C1114 1.367 . S
C1115 C1117 1.433 . S
C1116 C1112 1.350 . S
C1116 C1113 1.463 . S
C1116 N1120 1.427 . S
C1117 H1107 0.929 . S
C1117 C1115 1.433 . S
C1117 N1120 1.384 . S
C1118 H1109 0.929 . S
C1118 C1110 1.378 . S
C1118 C1113 1.350 . S
C1119 H1106 0.929 . S
C1119 C1111 1.433 . S
C1119 N1121 1.384 . S
N1120 C1116 1.427 . S
N1120 C1117 1.384 . S
N1121 C1113 1.427 . S
N1121 C1119 1.384 . S
H1122 C1128 0.930 . S
H1123 C1132 0.930 . S
H1124 C1137 0.929 . S
H1125 C1135 0.929 . S
H1126 C1130 0.929 . S
H1127 C1136 0.929 . S
C1128 H1122 0.930 . S
C1128 C1129 1.367 . S
C1128 C1136 1.378 . S
C1129 C1128 1.367 . S
C1129 C1137 1.433 . S
C1130 H1126 0.929 . S
C1130 C1132 1.378 . S
C1130 C1134 1.350 . S
C1131 C1134 1.510 . S
C1131 C1136 1.318 1_455 S
C1131 N1139 1.416 1_455 S
C1132 H1123 0.930 . S
C1132 C1130 1.378 . S
C1132 C1133 1.367 . S
C1133 C1132 1.367 . S
C1133 C1135 1.433 . S
C1134 C1130 1.350 . S
C1134 C1131 1.510 . S
C1134 N1138 1.427 . S
C1135 H1125 0.929 . S
C1135 C1133 1.433 . S
C1135 N1138 1.384 . S
C1136 H1127 0.929 . S
C1136 C1128 1.378 . S
C1136 C1131 1.318 1_655 S
C1137 H1124 0.929 . S
C1137 C1129 1.433 . S
C1137 N1139 1.384 . S
N1138 C1134 1.427 . S
N1138 C1135 1.384 . S
N1139 C1131 1.416 1_655 S
N1139 C1137 1.384 . S
H1140 C1146 0.930 . S
H1141 C1150 0.930 . S
H1142 C1155 0.929 . S
H1143 C1153 0.929 . S
H1144 C1148 0.929 . S
H1145 C1154 0.929 . S
C1146 H1140 0.930 . S
C1146 C1147 1.367 . S
C1146 C1154 1.378 . S
C1147 C1146 1.367 . S
C1147 C1155 1.433 . S
C1148 H1144 0.929 . S
C1148 C1150 1.378 . S
C1148 C1152 1.350 . S
C1149 C1152 1.463 . S
C1149 C1154 1.350 . S
C1149 N1157 1.427 . S
C1150 H1141 0.930 . S
C1150 C1148 1.378 . S
C1150 C1151 1.367 . S
C1151 C1150 1.367 . S
C1151 C1153 1.433 . S
C1152 C1148 1.350 . S
C1152 C1149 1.463 . S
C1152 N1156 1.427 . S
C1153 H1143 0.929 . S
C1153 C1151 1.433 . S
C1153 N1156 1.384 . S
C1154 H1145 0.929 . S
C1154 C1146 1.378 . S
C1154 C1149 1.350 . S
C1155 H1142 0.929 . S
C1155 C1147 1.433 . S
C1155 N1157 1.384 . S
N1156 C1152 1.427 . S
N1156 C1153 1.384 . S
N1157 C1149 1.427 . S
N1157 C1155 1.384 . S
H1158 C1164 0.930 . S
H1159 C1168 0.930 . S
H1160 C1173 0.929 . S
H1161 C1171 0.929 . S
H1162 C1166 0.929 . S
H1163 C1172 0.929 . S
C1164 H1158 0.930 . S
C1164 C1165 1.367 . S
C1164 C1172 1.378 . S
C1165 C1164 1.367 . S
C1165 C1173 1.433 . S
C1166 H1162 0.929 . S
C1166 C1168 1.378 . S
C1166 C1170 1.350 . S
C1167 C1170 1.463 . S
C1167 C1172 1.350 . S
C1167 N1175 1.427 . S
C1168 H1159 0.930 . S
C1168 C1166 1.378 . S
C1168 C1169 1.367 . S
C1169 C1168 1.367 . S
C1169 C1171 1.433 . S
C1170 C1166 1.350 . S
C1170 C1167 1.463 . S
C1170 N1174 1.427 . S
C1171 H1161 0.929 . S
C1171 C1169 1.433 . S
C1171 N1174 1.384 . S
C1172 H1163 0.929 . S
C1172 C1164 1.378 . S
C1172 C1167 1.350 . S
C1173 H1160 0.929 . S
C1173 C1165 1.433 . S
C1173 N1175 1.384 . S
N1174 C1170 1.427 . S
N1174 C1171 1.384 . S
N1175 C1167 1.427 . S
N1175 C1173 1.384 . S
H1176 C1182 0.930 . S
H1177 C1186 0.930 . S
H1178 C1191 0.929 . S
H1179 C1189 0.929 . S
H1180 C1184 0.929 . S
H1181 C1190 0.929 . S
C1182 H1176 0.930 . S
C1182 C1183 1.367 . S
C1182 C1190 1.378 . S
C1183 C1182 1.367 . S
C1183 C1191 1.433 . S
C1184 H1180 0.929 . S
C1184 C1186 1.378 . S
C1184 C1188 1.350 . S
C1185 C1188 1.463 . S
C1185 C1190 1.350 . S
C1185 N1193 1.427 . S
C1186 H1177 0.930 . S
C1186 C1184 1.378 . S
C1186 C1187 1.367 . S
C1187 C1186 1.367 . S
C1187 C1189 1.433 . S
C1188 C1184 1.350 . S
C1188 C1185 1.463 . S
C1188 N1192 1.427 . S
C1189 H1179 0.929 . S
C1189 C1187 1.433 . S
C1189 N1192 1.384 . S
C1190 H1181 0.929 . S
C1190 C1182 1.378 . S
C1190 C1185 1.350 . S
C1191 H1178 0.929 . S
C1191 C1183 1.433 . S
C1191 N1193 1.384 . S
N1192 C1188 1.427 . S
N1192 C1189 1.384 . S
N1193 C1185 1.427 . S
N1193 C1191 1.384 . S
H1194 C1200 0.930 . S
H1195 C1204 0.930 . S
H1196 C1209 0.929 . S
H1197 C1207 0.929 . S
H1198 C1202 0.929 . S
H1199 C1208 0.929 . S
C1200 H1194 0.930 . S
C1200 C1201 1.367 . S
C1200 C1208 1.378 . S
C1201 C1200 1.367 . S
C1201 C1209 1.433 . S
C1202 H1198 0.929 . S
C1202 C1204 1.378 . S
C1202 C1206 1.350 . S
C1203 C1206 1.463 . S
C1203 C1208 1.350 . S
C1203 N1211 1.427 . S
C1204 H1195 0.930 . S
C1204 C1202 1.378 . S
C1204 C1205 1.367 . S
C1205 C1204 1.367 . S
C1205 C1207 1.433 . S
C1206 C1202 1.350 . S
C1206 C1203 1.463 . S
C1206 N1210 1.427 . S
C1207 H1197 0.929 . S
C1207 C1205 1.433 . S
C1207 N1210 1.384 . S
C1208 H1199 0.929 . S
C1208 C1200 1.378 . S
C1208 C1203 1.350 . S
C1209 H1196 0.929 . S
C1209 C1201 1.433 . S
C1209 N1211 1.384 . S
N1210 C1206 1.427 . S
N1210 C1207 1.384 . S
N1211 C1203 1.427 . S
N1211 C1209 1.384 . S
H1212 C1218 0.930 . S
H1213 C1222 0.930 . S
H1214 C1227 0.929 . S
H1215 C1225 0.929 . S
H1216 C1220 0.929 . S
H1217 C1226 0.929 . S
C1218 H1212 0.930 . S
C1218 C1219 1.367 . S
C1218 C1226 1.378 . S
C1219 C1218 1.367 . S
C1219 C1227 1.433 . S
C1220 H1216 0.929 . S
C1220 C1222 1.378 . S
C1220 C1224 1.350 . S
C1221 C1224 1.463 . S
C1221 C1226 1.350 . S
C1221 N1229 1.427 . S
C1222 H1213 0.930 . S
C1222 C1220 1.378 . S
C1222 C1223 1.367 . S
C1223 C1222 1.367 . S
C1223 C1225 1.433 . S
C1224 C1220 1.350 . S
C1224 C1221 1.463 . S
C1224 N1228 1.427 . S
C1225 H1215 0.929 . S
C1225 C1223 1.433 . S
C1225 N1228 1.384 . S
C1226 H1217 0.929 . S
C1226 C1218 1.378 . S
C1226 C1221 1.350 . S
C1227 H1214 0.929 . S
C1227 C1219 1.433 . S
C1227 N1229 1.384 . S
N1228 C1224 1.427 . S
N1228 C1225 1.384 . S
N1229 C1221 1.427 . S
N1229 C1227 1.384 . S
H1230 C1236 0.930 . S
H1231 C1240 0.930 . S
H1232 C1245 0.929 . S
H1233 C1243 0.929 . S
H1234 C1238 0.929 . S
H1235 C1244 0.929 . S
C1236 H1230 0.930 . S
C1236 C1237 1.367 . S
C1236 C1244 1.378 . S
C1237 C1236 1.367 . S
C1237 C1245 1.433 . S
C1238 H1234 0.929 . S
C1238 C1240 1.378 1_455 S
C1238 C1242 1.350 . S
C1239 C1242 1.463 . S
C1239 C1244 1.350 . S
C1239 N1247 1.427 . S
C1240 H1231 0.930 . S
C1240 C1238 1.378 1_655 S
C1240 C1241 1.367 . S
C1241 C1240 1.367 . S
C1241 C1243 1.433 . S
C1242 C1238 1.350 . S
C1242 C1239 1.463 . S
C1242 N1246 1.427 1_455 S
C1243 H1233 0.929 . S
C1243 C1241 1.433 . S
C1243 N1246 1.384 . S
C1244 H1235 0.929 . S
C1244 C1236 1.378 . S
C1244 C1239 1.350 . S
C1245 H1232 0.929 . S
C1245 C1237 1.433 . S
C1245 N1247 1.384 . S
N1246 C1242 1.427 1_655 S
N1246 C1243 1.384 . S
N1247 C1239 1.427 . S
N1247 C1245 1.384 . S
H1248 C1254 0.930 . S
H1249 C1258 0.930 . S
H1250 C1263 0.929 . S
H1251 C1261 0.929 . S
H1252 C1256 0.929 . S
H1253 C1262 0.929 . S
C1254 H1248 0.930 . S
C1254 C1255 1.367 . S
C1254 C1262 1.378 . S
C1255 C1254 1.367 . S
C1255 C1263 1.433 . S
C1256 H1252 0.929 . S
C1256 C1258 1.378 . S
C1256 C1260 1.350 . S
C1257 C1260 1.463 . S
C1257 C1262 1.350 . S
C1257 N1265 1.427 . S
C1258 H1249 0.930 . S
C1258 C1256 1.378 . S
C1258 C1259 1.367 . S
C1259 C1258 1.367 . S
C1259 C1261 1.433 . S
C1260 C1256 1.350 . S
C1260 C1257 1.463 . S
C1260 N1264 1.427 . S
C1261 H1251 0.929 . S
C1261 C1259 1.433 . S
C1261 N1264 1.384 . S
C1262 H1253 0.929 . S
C1262 C1254 1.378 . S
C1262 C1257 1.350 . S
C1263 H1250 0.929 . S
C1263 C1255 1.433 . S
C1263 N1265 1.384 . S
N1264 C1260 1.427 . S
N1264 C1261 1.384 . S
N1265 C1257 1.427 . S
N1265 C1263 1.384 . S
H1266 C1272 0.930 . S
H1267 C1276 0.930 . S
H1268 C1281 0.929 . S
H1269 C1279 0.929 . S
H1270 C1274 0.929 . S
H1271 C1280 0.929 . S
C1272 H1266 0.930 . S
C1272 C1273 1.367 . S
C1272 C1280 1.378 . S
C1273 C1272 1.367 . S
C1273 C1281 1.433 . S
C1274 H1270 0.929 . S
C1274 C1276 1.378 . S
C1274 C1278 1.350 . S
C1275 C1278 1.463 . S
C1275 C1280 1.350 . S
C1275 N1283 1.427 . S
C1276 H1267 0.930 . S
C1276 C1274 1.378 . S
C1276 C1277 1.367 . S
C1277 C1276 1.367 . S
C1277 C1279 1.433 . S
C1278 C1274 1.350 . S
C1278 C1275 1.463 . S
C1278 N1282 1.427 . S
C1279 H1269 0.929 . S
C1279 C1277 1.433 . S
C1279 N1282 1.384 . S
C1280 H1271 0.929 . S
C1280 C1272 1.378 . S
C1280 C1275 1.350 . S
C1281 H1268 0.929 . S
C1281 C1273 1.433 . S
C1281 N1283 1.384 . S
N1282 C1278 1.427 . S
N1282 C1279 1.384 . S
N1283 C1275 1.427 . S
N1283 C1281 1.384 . S
H1284 C1290 0.930 . S
H1285 C1294 0.930 . S
H1286 C1299 0.929 . S
H1287 C1297 0.929 . S
H1288 C1292 0.929 . S
H1289 C1298 0.929 . S
C1290 H1284 0.930 . S
C1290 C1291 1.367 . S
C1290 C1298 1.378 . S
C1291 C1290 1.367 . S
C1291 C1299 1.433 . S
C1292 H1288 0.929 . S
C1292 C1294 1.378 . S
C1292 C1296 1.350 . S
C1293 C1296 1.463 . S
C1293 C1298 1.350 . S
C1293 N1301 1.427 . S
C1294 H1285 0.930 . S
C1294 C1292 1.378 . S
C1294 C1295 1.367 . S
C1295 C1294 1.367 . S
C1295 C1297 1.433 . S
C1296 C1292 1.350 . S
C1296 C1293 1.463 . S
C1296 N1300 1.427 . S
C1297 H1287 0.929 . S
C1297 C1295 1.433 . S
C1297 N1300 1.384 . S
C1298 H1289 0.929 . S
C1298 C1290 1.378 . S
C1298 C1293 1.350 . S
C1299 H1286 0.929 . S
C1299 C1291 1.433 . S
C1299 N1301 1.384 . S
N1300 C1296 1.427 . S
N1300 C1297 1.384 . S
N1301 C1293 1.427 . S
N1301 C1299 1.384 . S
H1302 C1308 0.930 . S
H1303 C1312 0.930 . S
H1304 C1317 0.929 . S
H1305 C1315 0.929 . S
H1306 C1310 0.929 . S
H1307 C1316 0.929 . S
C1308 H1302 0.930 . S
C1308 C1309 1.367 . S
C1308 C1316 1.378 . S
C1309 C1308 1.367 . S
C1309 C1317 1.433 . S
C1310 H1306 0.929 . S
C1310 C1312 1.378 . S
C1310 C1314 1.350 1_554 S
C1311 C1314 1.463 . S
C1311 C1316 1.350 . S
C1311 N1319 1.427 . S
C1312 H1303 0.930 . S
C1312 C1310 1.378 . S
C1312 C1313 1.367 . S
C1313 C1312 1.367 . S
C1313 C1315 1.433 . S
C1314 C1310 1.350 1_556 S
C1314 C1311 1.463 . S
C1314 N1318 1.427 1_556 S
C1315 H1305 0.929 . S
C1315 C1313 1.433 . S
C1315 N1318 1.384 . S
C1316 H1307 0.929 . S
C1316 C1308 1.378 . S
C1316 C1311 1.350 . S
C1317 H1304 0.929 . S
C1317 C1309 1.433 . S
C1317 N1319 1.384 . S
N1318 C1314 1.427 1_554 S
N1318 C1315 1.384 . S
N1319 C1311 1.427 . S
N1319 C1317 1.384 . S
H1320 C1326 0.930 . S
H1321 C1330 0.930 . S
H1322 C1335 0.929 . S
H1323 C1333 0.929 . S
H1324 C1328 0.929 . S
H1325 C1334 0.929 . S
C1326 H1320 0.930 . S
C1326 C1327 1.367 . S
C1326 C1334 1.378 . S
C1327 C1326 1.367 . S
C1327 C1335 1.433 . S
C1328 H1324 0.929 . S
C1328 C1330 1.378 . S
C1328 C1332 1.350 . S
C1329 C1332 1.463 . S
C1329 C1334 1.350 . S
C1329 N1337 1.427 . S
C1330 H1321 0.930 . S
C1330 C1328 1.378 . S
C1330 C1331 1.367 . S
C1331 C1330 1.367 . S
C1331 C1333 1.433 . S
C1332 C1328 1.350 . S
C1332 C1329 1.463 . S
C1332 N1336 1.427 . S
C1333 H1323 0.929 . S
C1333 C1331 1.433 . S
C1333 N1336 1.384 . S
C1334 H1325 0.929 . S
C1334 C1326 1.378 . S
C1334 C1329 1.350 . S
C1335 H1322 0.929 . S
C1335 C1327 1.433 . S
C1335 N1337 1.384 . S
N1336 C1332 1.427 . S
N1336 C1333 1.384 . S
N1337 C1329 1.427 . S
N1337 C1335 1.384 . S
H1338 C1344 0.930 . S
H1339 C1348 0.930 . S
H1340 C1353 0.929 . S
H1341 C1351 0.929 . S
H1342 C1346 0.929 . S
H1343 C1352 0.929 . S
C1344 H1338 0.930 . S
C1344 C1345 1.367 . S
C1344 C1352 1.378 . S
C1345 C1344 1.367 . S
C1345 C1353 1.433 . S
C1346 H1342 0.929 . S
C1346 C1348 1.378 . S
C1346 C1350 1.350 . S
C1347 C1350 1.463 . S
C1347 C1352 1.350 . S
C1347 N1355 1.427 . S
C1348 H1339 0.930 . S
C1348 C1346 1.378 . S
C1348 C1349 1.367 . S
C1349 C1348 1.367 . S
C1349 C1351 1.433 . S
C1350 C1346 1.350 . S
C1350 C1347 1.463 . S
C1350 N1354 1.427 . S
C1351 H1341 0.929 . S
C1351 C1349 1.433 . S
C1351 N1354 1.384 . S
C1352 H1343 0.929 . S
C1352 C1344 1.378 . S
C1352 C1347 1.350 . S
C1353 H1340 0.929 . S
C1353 C1345 1.433 . S
C1353 N1355 1.384 . S
N1354 C1350 1.427 . S
N1354 C1351 1.384 . S
N1355 C1347 1.427 . S
N1355 C1353 1.384 . S
H1356 C1362 0.930 . S
H1357 C1366 0.930 . S
H1358 C1371 0.929 . S
H1359 C1369 0.929 . S
H1360 C1364 0.929 . S
H1361 C1370 0.929 . S
C1362 H1356 0.930 . S
C1362 C1363 1.367 . S
C1362 C1370 1.378 . S
C1363 C1362 1.367 . S
C1363 C1371 1.433 . S
C1364 H1360 0.929 . S
C1364 C1366 1.378 . S
C1364 C1368 1.350 . S
C1365 C1368 1.463 . S
C1365 C1370 1.350 . S
C1365 N1373 1.427 . S
C1366 H1357 0.930 . S
C1366 C1364 1.378 . S
C1366 C1367 1.367 . S
C1367 C1366 1.367 . S
C1367 C1369 1.433 . S
C1368 C1364 1.350 . S
C1368 C1365 1.463 . S
C1368 N1372 1.427 . S
C1369 H1359 0.929 . S
C1369 C1367 1.433 . S
C1369 N1372 1.384 . S
C1370 H1361 0.929 . S
C1370 C1362 1.378 . S
C1370 C1365 1.350 . S
C1371 H1358 0.929 . S
C1371 C1363 1.433 . S
C1371 N1373 1.384 . S
N1372 C1368 1.427 . S
N1372 C1369 1.384 . S
N1373 C1365 1.427 . S
N1373 C1371 1.384 . S
H1374 C1380 0.930 . S
H1375 C1384 0.930 . S
H1376 C1389 0.929 . S
H1377 C1387 0.929 . S
H1378 C1382 0.929 . S
H1379 C1388 0.929 1_554 S
C1380 H1374 0.930 . S
C1380 C1381 1.367 . S
C1380 C1388 1.378 . S
C1381 C1380 1.367 . S
C1381 C1389 1.433 . S
C1382 H1378 0.929 . S
C1382 C1384 1.378 . S
C1382 C1386 1.350 . S
C1383 C1386 1.463 . S
C1383 C1388 1.350 1_554 S
C1383 N1391 1.427 1_554 S
C1384 H1375 0.930 . S
C1384 C1382 1.378 . S
C1384 C1385 1.367 . S
C1385 C1384 1.367 . S
C1385 C1387 1.433 . S
C1386 C1382 1.350 . S
C1386 C1383 1.463 . S
C1386 N1390 1.427 . S
C1387 H1377 0.929 . S
C1387 C1385 1.433 . S
C1387 N1390 1.384 . S
C1388 H1379 0.929 1_556 S
C1388 C1380 1.378 . S
C1388 C1383 1.350 1_556 S
C1389 H1376 0.929 . S
C1389 C1381 1.433 . S
C1389 N1391 1.384 . S
N1390 C1386 1.427 . S
N1390 C1387 1.384 . S
N1391 C1383 1.427 1_556 S
N1391 C1389 1.384 . S
H1392 C1398 0.930 . S
H1393 C1402 0.930 . S
H1394 C1407 0.929 . S
H1395 C1405 0.929 . S
H1396 C1400 0.929 . S
H1397 C1406 0.929 . S
C1398 H1392 0.930 . S
C1398 C1399 1.367 . S
C1398 C1406 1.378 . S
C1399 C1398 1.367 . S
C1399 C1407 1.433 . S
C1400 H1396 0.929 . S
C1400 C1402 1.378 . S
C1400 C1404 1.350 . S
C1401 C1404 1.463 . S
C1401 C1406 1.350 . S
C1401 N1409 1.427 . S
C1402 H1393 0.930 . S
C1402 C1400 1.378 . S
C1402 C1403 1.367 . S
C1403 C1402 1.367 . S
C1403 C1405 1.433 . S
C1404 C1400 1.350 . S
C1404 C1401 1.463 . S
C1404 N1408 1.427 . S
C1405 H1395 0.929 . S
C1405 C1403 1.433 . S
C1405 N1408 1.384 . S
C1406 H1397 0.929 . S
C1406 C1398 1.378 . S
C1406 C1401 1.350 . S
C1407 H1394 0.929 . S
C1407 C1399 1.433 . S
C1407 N1409 1.384 . S
N1408 C1404 1.427 . S
N1408 C1405 1.384 . S
N1409 C1401 1.427 . S
N1409 C1407 1.384 . S
H1410 C1416 0.930 . S
H1411 C1420 0.930 . S
H1412 C1425 0.929 . S
H1413 C1423 0.929 . S
H1414 C1418 0.929 . S
H1415 C1424 0.929 . S
C1416 H1410 0.930 . S
C1416 C1417 1.367 . S
C1416 C1424 1.378 . S
C1417 C1416 1.367 . S
C1417 C1425 1.433 . S
C1418 H1414 0.929 . S
C1418 C1420 1.378 . S
C1418 C1422 1.350 . S
C1419 C1422 1.463 . S
C1419 C1424 1.350 . S
C1419 N1427 1.427 . S
C1420 H1411 0.930 . S
C1420 C1418 1.378 . S
C1420 C1421 1.367 . S
C1421 C1420 1.367 . S
C1421 C1423 1.433 . S
C1422 C1418 1.350 . S
C1422 C1419 1.463 . S
C1422 N1426 1.427 . S
C1423 H1413 0.929 . S
C1423 C1421 1.433 . S
C1423 N1426 1.384 . S
C1424 H1415 0.929 . S
C1424 C1416 1.378 . S
C1424 C1419 1.350 . S
C1425 H1412 0.929 . S
C1425 C1417 1.433 . S
C1425 N1427 1.384 . S
N1426 C1422 1.427 . S
N1426 C1423 1.384 . S
N1427 C1419 1.427 . S
N1427 C1425 1.384 . S
H1428 C1434 0.930 . S
H1429 C1438 0.930 . S
H1430 C1443 0.929 . S
H1431 C1441 0.929 . S
H1432 C1436 0.929 . S
H1433 C1442 0.929 . S
C1434 H1428 0.930 . S
C1434 C1435 1.367 . S
C1434 C1442 1.378 . S
C1435 C1434 1.367 . S
C1435 C1443 1.433 . S
C1436 H1432 0.929 . S
C1436 C1438 1.378 . S
C1436 C1440 1.350 . S
C1437 C1440 1.463 . S
C1437 C1442 1.350 . S
C1437 N1445 1.427 . S
C1438 H1429 0.930 . S
C1438 C1436 1.378 . S
C1438 C1439 1.367 . S
C1439 C1438 1.367 . S
C1439 C1441 1.433 . S
C1440 C1436 1.350 . S
C1440 C1437 1.463 . S
C1440 N1444 1.427 . S
C1441 H1431 0.929 . S
C1441 C1439 1.433 . S
C1441 N1444 1.384 . S
C1442 H1433 0.929 . S
C1442 C1434 1.378 . S
C1442 C1437 1.350 . S
C1443 H1430 0.929 . S
C1443 C1435 1.433 . S
C1443 N1445 1.384 . S
N1444 C1440 1.427 . S
N1444 C1441 1.384 . S
N1445 C1437 1.427 . S
N1445 C1443 1.384 . S
H1446 C1452 0.930 . S
H1447 C1456 0.930 . S
H1448 C1461 0.929 . S
H1449 C1459 0.929 . S
H1450 C1454 0.929 . S
H1451 C1460 0.929 . S
C1452 H1446 0.930 . S
C1452 C1453 1.367 . S
C1452 C1460 1.378 . S
C1453 C1452 1.367 . S
C1453 C1461 1.433 . S
C1454 H1450 0.929 . S
C1454 C1456 1.378 . S
C1454 C1458 1.350 . S
C1455 C1458 1.463 . S
C1455 C1460 1.350 . S
C1455 N1463 1.427 . S
C1456 H1447 0.930 . S
C1456 C1454 1.378 . S
C1456 C1457 1.367 . S
C1457 C1456 1.367 . S
C1457 C1459 1.433 . S
C1458 C1454 1.350 . S
C1458 C1455 1.463 . S
C1458 N1462 1.427 . S
C1459 H1449 0.929 . S
C1459 C1457 1.433 . S
C1459 N1462 1.384 . S
C1460 H1451 0.929 . S
C1460 C1452 1.378 . S
C1460 C1455 1.350 . S
C1461 H1448 0.929 . S
C1461 C1453 1.433 . S
C1461 N1463 1.384 . S
N1462 C1458 1.427 . S
N1462 C1459 1.384 . S
N1463 C1455 1.427 . S
N1463 C1461 1.384 . S
H1464 C1470 0.930 . S
H1465 C1474 0.930 . S
H1466 C1479 0.929 . S
H1467 C1477 0.929 . S
H1468 C1472 0.929 . S
H1469 C1478 0.929 . S
C1470 H1464 0.930 . S
C1470 C1471 1.367 . S
C1470 C1478 1.378 1_565 S
C1471 C1470 1.367 . S
C1471 C1479 1.433 . S
C1472 H1468 0.929 . S
C1472 C1474 1.378 . S
C1472 C1476 1.350 . S
C1473 C1476 1.463 . S
C1473 C1478 1.350 . S
C1473 N1481 1.427 1_545 S
C1474 H1465 0.930 . S
C1474 C1472 1.378 . S
C1474 C1475 1.367 . S
C1475 C1474 1.367 . S
C1475 C1477 1.433 . S
C1476 C1472 1.350 . S
C1476 C1473 1.463 . S
C1476 N1480 1.427 . S
C1477 H1467 0.929 . S
C1477 C1475 1.433 . S
C1477 N1480 1.384 . S
C1478 H1469 0.929 . S
C1478 C1470 1.378 1_545 S
C1478 C1473 1.350 . S
C1479 H1466 0.929 . S
C1479 C1471 1.433 . S
C1479 N1481 1.384 . S
N1480 C1476 1.427 . S
N1480 C1477 1.384 . S
N1481 C1473 1.427 1_565 S
N1481 C1479 1.384 . S
H1482 C1488 0.930 . S
H1483 C1492 0.930 . S
H1484 C1497 0.929 . S
H1485 C1495 0.929 . S
H1486 C1490 0.929 . S
H1487 C1496 0.929 . S
C1488 H1482 0.930 . S
C1488 C1489 1.367 . S
C1488 C1496 1.378 . S
C1489 C1488 1.367 . S
C1489 C1497 1.433 . S
C1490 H1486 0.929 . S
C1490 C1492 1.378 . S
C1490 C1494 1.350 . S
C1491 C1494 1.463 . S
C1491 C1496 1.350 . S
C1491 N1499 1.427 . S
C1492 H1483 0.930 . S
C1492 C1490 1.378 . S
C1492 C1493 1.367 . S
C1493 C1492 1.367 . S
C1493 C1495 1.433 . S
C1494 C1490 1.350 . S
C1494 C1491 1.463 . S
C1494 N1498 1.427 . S
C1495 H1485 0.929 . S
C1495 C1493 1.433 . S
C1495 N1498 1.384 . S
C1496 H1487 0.929 . S
C1496 C1488 1.378 . S
C1496 C1491 1.350 . S
C1497 H1484 0.929 . S
C1497 C1489 1.433 . S
C1497 N1499 1.384 . S
N1498 C1494 1.427 . S
N1498 C1495 1.384 . S
N1499 C1491 1.427 . S
N1499 C1497 1.384 . S
H1500 C1506 0.930 . S
H1501 C1510 0.930 . S
H1502 C1515 0.929 . S
H1503 C1513 0.929 . S
H1504 C1508 0.929 . S
H1505 C1514 0.929 . S
C1506 H1500 0.930 . S
C1506 C1507 1.367 . S
C1506 C1514 1.378 . S
C1507 C1506 1.367 . S
C1507 C1515 1.433 . S
C1508 H1504 0.929 . S
C1508 C1510 1.378 . S
C1508 C1512 1.350 . S
C1509 C1512 1.463 . S
C1509 C1514 1.350 . S
C1509 N1517 1.427 . S
C1510 H1501 0.930 . S
C1510 C1508 1.378 . S
C1510 C1511 1.367 . S
C1511 C1510 1.367 . S
C1511 C1513 1.433 . S
C1512 C1508 1.350 . S
C1512 C1509 1.463 . S
C1512 N1516 1.427 . S
C1513 H1503 0.929 . S
C1513 C1511 1.433 . S
C1513 N1516 1.384 . S
C1514 H1505 0.929 . S
C1514 C1506 1.378 . S
C1514 C1509 1.350 . S
C1515 H1502 0.929 . S
C1515 C1507 1.433 . S
C1515 N1517 1.384 . S
N1516 C1512 1.427 . S
N1516 C1513 1.384 . S
N1517 C1509 1.427 . S
N1517 C1515 1.384 . S
H1518 C1524 0.930 . S
H1519 C1528 0.930 . S
H1520 C1533 0.929 . S
H1521 C1531 0.929 . S
H1522 C1526 0.929 . S
H1523 C1532 0.929 . S
C1524 H1518 0.930 . S
C1524 C1525 1.367 . S
C1524 C1532 1.378 . S
C1525 C1524 1.367 . S
C1525 C1533 1.433 . S
C1526 H1522 0.929 . S
C1526 C1528 1.378 . S
C1526 C1530 1.350 . S
C1527 C1530 1.463 . S
C1527 C1532 1.350 . S
C1527 N1535 1.427 . S
C1528 H1519 0.930 . S
C1528 C1526 1.378 . S
C1528 C1529 1.367 . S
C1529 C1528 1.367 . S
C1529 C1531 1.433 . S
C1530 C1526 1.350 . S
C1530 C1527 1.463 . S
C1530 N1534 1.427 . S
C1531 H1521 0.929 . S
C1531 C1529 1.433 . S
C1531 N1534 1.384 . S
C1532 H1523 0.929 . S
C1532 C1524 1.378 . S
C1532 C1527 1.350 . S
C1533 H1520 0.929 . S
C1533 C1525 1.433 . S
C1533 N1535 1.384 . S
N1534 C1530 1.427 . S
N1534 C1531 1.384 . S
N1535 C1527 1.427 . S
N1535 C1533 1.384 . S
H1536 C1542 0.930 . S
H1537 C1546 0.930 . S
H1538 C1551 0.929 . S
H1539 C1549 0.929 . S
H1540 C1544 0.929 . S
H1541 C1550 0.929 . S
C1542 H1536 0.930 . S
C1542 C1543 1.367 . S
C1542 C1550 1.378 . S
C1543 C1542 1.367 . S
C1543 C1551 1.433 . S
C1544 H1540 0.929 . S
C1544 C1546 1.378 . S
C1544 C1548 1.350 . S
C1545 C1548 1.463 . S
C1545 C1550 1.350 . S
C1545 N1553 1.427 . S
C1546 H1537 0.930 . S
C1546 C1544 1.378 . S
C1546 C1547 1.367 . S
C1547 C1546 1.367 . S
C1547 C1549 1.433 . S
C1548 C1544 1.350 . S
C1548 C1545 1.463 . S
C1548 N1552 1.427 . S
C1549 H1539 0.929 . S
C1549 C1547 1.433 . S
C1549 N1552 1.384 . S
C1550 H1541 0.929 . S
C1550 C1542 1.378 . S
C1550 C1545 1.350 . S
C1551 H1538 0.929 . S
C1551 C1543 1.433 . S
C1551 N1553 1.384 . S
N1552 C1548 1.427 . S
N1552 C1549 1.384 . S
N1553 C1545 1.427 . S
N1553 C1551 1.384 . S
H1554 C1560 0.930 . S
H1555 C1564 0.930 . S
H1556 C1569 0.929 . S
H1557 C1567 0.929 . S
H1558 C1562 0.929 . S
H1559 C1568 0.929 . S
C1560 H1554 0.930 . S
C1560 C1561 1.367 . S
C1560 C1568 1.378 . S
C1561 C1560 1.367 . S
C1561 C1569 1.433 . S
C1562 H1558 0.929 . S
C1562 C1564 1.378 . S
C1562 C1566 1.350 . S
C1563 C1566 1.463 . S
C1563 C1568 1.350 . S
C1563 N1571 1.427 . S
C1564 H1555 0.930 . S
C1564 C1562 1.378 . S
C1564 C1565 1.367 . S
C1565 C1564 1.367 . S
C1565 C1567 1.433 . S
C1566 C1562 1.350 . S
C1566 C1563 1.463 . S
C1566 N1570 1.427 . S
C1567 H1557 0.929 . S
C1567 C1565 1.433 . S
C1567 N1570 1.384 . S
C1568 H1559 0.929 . S
C1568 C1560 1.378 . S
C1568 C1563 1.350 . S
C1569 H1556 0.929 . S
C1569 C1561 1.433 . S
C1569 N1571 1.384 . S
N1570 C1566 1.427 . S
N1570 C1567 1.384 . S
N1571 C1563 1.427 . S
N1571 C1569 1.384 . S
H1572 C1578 0.930 . S
H1573 C1582 0.930 . S
H1574 C1587 0.929 . S
H1575 C1585 0.929 . S
H1576 C1580 0.929 . S
H1577 C1586 0.929 . S
C1578 H1572 0.930 . S
C1578 C1579 1.367 . S
C1578 C1586 1.378 . S
C1579 C1578 1.367 . S
C1579 C1587 1.433 . S
C1580 H1576 0.929 . S
C1580 C1582 1.378 . S
C1580 C1584 1.350 . S
C1581 C1584 1.463 . S
C1581 C1586 1.350 . S
C1581 N1589 1.427 . S
C1582 H1573 0.930 . S
C1582 C1580 1.378 . S
C1582 C1583 1.367 . S
C1583 C1582 1.367 . S
C1583 C1585 1.433 . S
C1584 C1580 1.350 . S
C1584 C1581 1.463 . S
C1584 N1588 1.427 . S
C1585 H1575 0.929 . S
C1585 C1583 1.433 . S
C1585 N1588 1.384 . S
C1586 H1577 0.929 . S
C1586 C1578 1.378 . S
C1586 C1581 1.350 . S
C1587 H1574 0.929 . S
C1587 C1579 1.433 . S
C1587 N1589 1.384 . S
N1588 C1584 1.427 . S
N1588 C1585 1.384 . S
N1589 C1581 1.427 . S
N1589 C1587 1.384 . S
H1590 C1596 0.930 . S
H1591 C1600 0.930 . S
H1592 C1605 0.929 . S
H1593 C1603 0.929 . S
H1594 C1598 0.929 . S
H1595 C1604 0.929 1_455 S
C1596 H1590 0.930 . S
C1596 C1597 1.367 . S
C1596 C1604 1.378 . S
C1597 C1596 1.367 . S
C1597 C1605 1.433 . S
C1598 H1594 0.929 . S
C1598 C1600 1.378 . S
C1598 C1602 1.350 . S
C1599 C1602 1.463 . S
C1599 C1604 1.350 1_455 S
C1599 N1607 1.427 1_455 S
C1600 H1591 0.930 . S
C1600 C1598 1.378 . S
C1600 C1601 1.367 . S
C1601 C1600 1.367 . S
C1601 C1603 1.433 . S
C1602 C1598 1.350 . S
C1602 C1599 1.463 . S
C1602 N1606 1.427 . S
C1603 H1593 0.929 . S
C1603 C1601 1.433 . S
C1603 N1606 1.384 . S
C1604 H1595 0.929 1_655 S
C1604 C1596 1.378 . S
C1604 C1599 1.350 1_655 S
C1605 H1592 0.929 . S
C1605 C1597 1.433 . S
C1605 N1607 1.384 . S
N1606 C1602 1.427 . S
N1606 C1603 1.384 . S
N1607 C1599 1.427 1_655 S
N1607 C1605 1.384 . S
H1608 C1614 0.930 . S
H1609 C1618 0.930 . S
H1610 C1623 0.929 . S
H1611 C1621 0.929 . S
H1612 C1616 0.929 . S
H1613 C1622 0.929 . S
C1614 H1608 0.930 . S
C1614 C1615 1.367 . S
C1614 C1622 1.378 . S
C1615 C1614 1.367 . S
C1615 C1623 1.433 . S
C1616 H1612 0.929 . S
C1616 C1618 1.378 . S
C1616 C1620 1.350 . S
C1617 C1620 1.463 . S
C1617 C1622 1.350 . S
C1617 N1625 1.427 . S
C1618 H1609 0.930 . S
C1618 C1616 1.378 . S
C1618 C1619 1.367 . S
C1619 C1618 1.367 . S
C1619 C1621 1.433 . S
C1620 C1616 1.350 . S
C1620 C1617 1.463 . S
C1620 N1624 1.427 . S
C1621 H1611 0.929 . S
C1621 C1619 1.433 . S
C1621 N1624 1.384 . S
C1622 H1613 0.929 . S
C1622 C1614 1.378 . S
C1622 C1617 1.350 . S
C1623 H1610 0.929 . S
C1623 C1615 1.433 . S
C1623 N1625 1.384 . S
N1624 C1620 1.427 . S
N1624 C1621 1.384 . S
N1625 C1617 1.427 . S
N1625 C1623 1.384 . S
H1626 C1632 0.930 . S
H1627 C1636 0.930 . S
H1628 C1641 0.929 . S
H1629 C1639 0.929 . S
H1630 C1634 0.929 . S
H1631 C1640 0.929 . S
C1632 H1626 0.930 . S
C1632 C1633 1.367 . S
C1632 C1640 1.378 . S
C1633 C1632 1.367 . S
C1633 C1641 1.433 . S
C1634 H1630 0.929 . S
C1634 C1636 1.378 . S
C1634 C1638 1.350 1_655 S
C1635 C1638 1.463 . S
C1635 C1640 1.350 . S
C1635 N1643 1.427 . S
C1636 H1627 0.930 . S
C1636 C1634 1.378 . S
C1636 C1637 1.367 . S
C1637 C1636 1.367 . S
C1637 C1639 1.433 . S
C1638 C1634 1.350 1_455 S
C1638 C1635 1.463 . S
C1638 N1642 1.427 . S
C1639 H1629 0.929 . S
C1639 C1637 1.433 . S
C1639 N1642 1.386 1_655 S
C1640 H1631 0.929 . S
C1640 C1632 1.378 . S
C1640 C1635 1.350 . S
C1641 H1628 0.929 . S
C1641 C1633 1.433 . S
C1641 N1643 1.384 . S
N1642 C1638 1.427 . S
N1642 C1639 1.386 1_455 S
N1643 C1635 1.427 . S
N1643 C1641 1.384 . S
H1644 C1650 0.930 . S
H1645 C1654 0.930 . S
H1646 C1659 0.929 . S
H1647 C1657 0.929 . S
H1648 C1652 0.929 . S
H1649 C1658 0.929 . S
C1650 H1644 0.930 . S
C1650 C1651 1.367 . S
C1650 C1658 1.378 . S
C1651 C1650 1.367 . S
C1651 C1659 1.433 . S
C1652 H1648 0.929 . S
C1652 C1654 1.378 . S
C1652 C1656 1.350 . S
C1653 C1656 1.463 . S
C1653 C1658 1.350 . S
C1653 N1661 1.427 . S
C1654 H1645 0.930 . S
C1654 C1652 1.378 . S
C1654 C1655 1.367 . S
C1655 C1654 1.367 . S
C1655 C1657 1.433 . S
C1656 C1652 1.350 . S
C1656 C1653 1.463 . S
C1656 N1660 1.427 . S
C1657 H1647 0.929 . S
C1657 C1655 1.433 . S
C1657 N1660 1.384 . S
C1658 H1649 0.929 . S
C1658 C1650 1.378 . S
C1658 C1653 1.350 . S
C1659 H1646 0.929 . S
C1659 C1651 1.433 . S
C1659 N1661 1.384 . S
N1660 C1656 1.427 . S
N1660 C1657 1.384 . S
N1661 C1653 1.427 . S
N1661 C1659 1.384 . S
H1662 C1668 0.930 . S
H1663 C1672 0.930 . S
H1664 C1677 0.929 . S
H1665 C1675 0.929 . S
H1666 C1670 0.929 . S
H1667 C1676 0.929 . S
C1668 H1662 0.930 . S
C1668 C1669 1.367 . S
C1668 C1676 1.378 . S
C1669 C1668 1.367 . S
C1669 C1677 1.433 . S
C1670 H1666 0.929 . S
C1670 C1672 1.378 . S
C1670 C1674 1.350 . S
C1671 C1674 1.463 . S
C1671 C1676 1.350 . S
C1671 N1679 1.427 . S
C1672 H1663 0.930 . S
C1672 C1670 1.378 . S
C1672 C1673 1.367 . S
C1673 C1672 1.367 . S
C1673 C1675 1.433 . S
C1674 C1670 1.350 . S
C1674 C1671 1.463 . S
C1674 N1678 1.427 . S
C1675 H1665 0.929 . S
C1675 C1673 1.433 . S
C1675 N1678 1.384 . S
C1676 H1667 0.929 . S
C1676 C1668 1.378 . S
C1676 C1671 1.350 . S
C1677 H1664 0.929 . S
C1677 C1669 1.433 . S
C1677 N1679 1.384 . S
N1678 C1674 1.427 . S
N1678 C1675 1.384 . S
N1679 C1671 1.427 . S
N1679 C1677 1.384 . S
H1680 C1686 0.930 . S
H1681 C1690 0.930 . S
H1682 C1695 0.929 . S
H1683 C1693 0.929 . S
H1684 C1688 0.929 . S
H1685 C1694 0.929 . S
C1686 H1680 0.930 . S
C1686 C1687 1.367 . S
C1686 C1694 1.378 . S
C1687 C1686 1.367 . S
C1687 C1695 1.433 . S
C1688 H1684 0.929 . S
C1688 C1690 1.378 . S
C1688 C1692 1.350 . S
C1689 C1692 1.463 . S
C1689 C1694 1.350 . S
C1689 N1697 1.427 . S
C1690 H1681 0.930 . S
C1690 C1688 1.378 . S
C1690 C1691 1.367 . S
C1691 C1690 1.367 . S
C1691 C1693 1.433 . S
C1692 C1688 1.350 . S
C1692 C1689 1.463 . S
C1692 N1696 1.427 . S
C1693 H1683 0.929 . S
C1693 C1691 1.433 . S
C1693 N1696 1.384 . S
C1694 H1685 0.929 . S
C1694 C1686 1.378 . S
C1694 C1689 1.350 . S
C1695 H1682 0.929 . S
C1695 C1687 1.433 . S
C1695 N1697 1.384 . S
N1696 C1692 1.427 . S
N1696 C1693 1.384 . S
N1697 C1689 1.427 . S
N1697 C1695 1.384 . S
H1698 C1704 0.930 . S
H1699 C1708 0.930 . S
H1700 C1713 0.929 . S
H1701 C1711 0.929 . S
H1702 C1706 0.937 . S
H1703 C1712 0.929 . S
C1704 H1698 0.930 . S
C1704 C1705 1.367 . S
C1704 C1712 1.378 . S
C1705 C1704 1.367 . S
C1705 C1713 1.433 . S
C1706 H1702 0.937 . S
C1706 C1708 1.365 1_554 S
C1706 C1710 1.355 . S
C1707 C1710 1.463 . S
C1707 C1712 1.350 . S
C1707 N1715 1.427 . S
C1708 H1699 0.930 . S
C1708 C1706 1.365 1_556 S
C1708 C1709 1.367 . S
C1709 C1708 1.367 . S
C1709 C1711 1.433 . S
C1710 C1706 1.355 . S
C1710 C1707 1.463 . S
C1710 N1714 1.427 1_554 S
C1711 H1701 0.929 . S
C1711 C1709 1.433 . S
C1711 N1714 1.384 . S
C1712 H1703 0.929 . S
C1712 C1704 1.378 . S
C1712 C1707 1.350 . S
C1713 H1700 0.929 . S
C1713 C1705 1.433 . S
C1713 N1715 1.384 . S
N1714 C1710 1.427 1_556 S
N1714 C1711 1.384 . S
N1715 C1707 1.427 . S
N1715 C1713 1.384 . S
H1716 C1722 0.930 . S
H1717 C1726 0.930 . S
H1718 C1731 0.929 . S
H1719 C1729 0.929 . S
H1720 C1724 0.929 . S
H1721 C1730 0.929 . S
C1722 H1716 0.930 . S
C1722 C1723 1.367 . S
C1722 C1730 1.378 . S
C1723 C1722 1.367 . S
C1723 C1731 1.433 . S
C1724 H1720 0.929 . S
C1724 C1726 1.378 . S
C1724 C1728 1.350 . S
C1725 C1728 1.463 . S
C1725 C1730 1.350 . S
C1725 N1733 1.427 . S
C1726 H1717 0.930 . S
C1726 C1724 1.378 . S
C1726 C1727 1.367 . S
C1727 C1726 1.367 . S
C1727 C1729 1.433 . S
C1728 C1724 1.350 . S
C1728 C1725 1.463 . S
C1728 N1732 1.427 . S
C1729 H1719 0.929 . S
C1729 C1727 1.433 . S
C1729 N1732 1.384 . S
C1730 H1721 0.929 . S
C1730 C1722 1.378 . S
C1730 C1725 1.350 . S
C1731 H1718 0.929 . S
C1731 C1723 1.433 . S
C1731 N1733 1.384 . S
N1732 C1728 1.427 . S
N1732 C1729 1.384 . S
N1733 C1725 1.427 . S
N1733 C1731 1.384 . S
H1734 C1740 0.930 . S
H1735 C1744 0.930 . S
H1736 C1749 0.929 . S
H1737 C1747 0.929 . S
H1738 C1742 0.929 . S
H1739 C1748 0.929 . S
C1740 H1734 0.930 . S
C1740 C1741 1.367 . S
C1740 C1748 1.378 . S
C1741 C1740 1.367 . S
C1741 C1749 1.433 . S
C1742 H1738 0.929 . S
C1742 C1744 1.378 . S
C1742 C1746 1.350 . S
C1743 C1746 1.463 . S
C1743 C1748 1.350 . S
C1743 N1751 1.427 . S
C1744 H1735 0.930 . S
C1744 C1742 1.378 . S
C1744 C1745 1.367 . S
C1745 C1744 1.367 . S
C1745 C1747 1.433 . S
C1746 C1742 1.350 . S
C1746 C1743 1.463 . S
C1746 N1750 1.427 . S
C1747 H1737 0.929 . S
C1747 C1745 1.433 . S
C1747 N1750 1.384 . S
C1748 H1739 0.929 . S
C1748 C1740 1.378 . S
C1748 C1743 1.350 . S
C1749 H1736 0.929 . S
C1749 C1741 1.433 . S
C1749 N1751 1.384 . S
N1750 C1746 1.427 . S
N1750 C1747 1.384 . S
N1751 C1743 1.427 . S
N1751 C1749 1.384 . S
H1752 C1758 0.930 . S
H1753 C1762 0.930 . S
H1754 C1767 0.929 . S
H1755 C1765 0.929 . S
H1756 C1760 0.929 . S
H1757 C1766 0.929 . S
C1758 H1752 0.930 . S
C1758 C1759 1.367 . S
C1758 C1766 1.378 . S
C1759 C1758 1.367 . S
C1759 C1767 1.433 . S
C1760 H1756 0.929 . S
C1760 C1762 1.378 . S
C1760 C1764 1.350 . S
C1761 C1764 1.463 . S
C1761 C1766 1.350 . S
C1761 N1769 1.427 . S
C1762 H1753 0.930 . S
C1762 C1760 1.378 . S
C1762 C1763 1.367 . S
C1763 C1762 1.367 . S
C1763 C1765 1.433 . S
C1764 C1760 1.350 . S
C1764 C1761 1.463 . S
C1764 N1768 1.427 . S
C1765 H1755 0.929 . S
C1765 C1763 1.433 . S
C1765 N1768 1.384 . S
C1766 H1757 0.929 . S
C1766 C1758 1.378 . S
C1766 C1761 1.350 . S
C1767 H1754 0.929 . S
C1767 C1759 1.433 . S
C1767 N1769 1.384 . S
N1768 C1764 1.427 . S
N1768 C1765 1.384 . S
N1769 C1761 1.427 . S
N1769 C1767 1.384 . S
H1770 C1776 0.930 . S
H1771 C1780 0.930 . S
H1772 C1785 0.929 . S
H1773 C1783 0.929 . S
H1774 C1778 0.929 . S
H1775 C1784 0.929 . S
C1776 H1770 0.930 . S
C1776 C1777 1.367 . S
C1776 C1784 1.378 . S
C1777 C1776 1.367 . S
C1777 C1785 1.433 . S
C1778 H1774 0.929 . S
C1778 C1780 1.378 1_556 S
C1778 C1782 1.350 . S
C1779 C1782 1.463 . S
C1779 C1784 1.350 . S
C1779 N1787 1.427 . S
C1780 H1771 0.930 . S
C1780 C1778 1.378 1_554 S
C1780 C1781 1.367 . S
C1781 C1780 1.367 . S
C1781 C1783 1.433 . S
C1782 C1778 1.350 . S
C1782 C1779 1.463 . S
C1782 N1786 1.427 1_556 S
C1783 H1773 0.929 . S
C1783 C1781 1.433 . S
C1783 N1786 1.384 . S
C1784 H1775 0.929 . S
C1784 C1776 1.378 . S
C1784 C1779 1.350 . S
C1785 H1772 0.929 . S
C1785 C1777 1.433 . S
C1785 N1787 1.384 . S
N1786 C1782 1.427 1_554 S
N1786 C1783 1.384 . S
N1787 C1779 1.427 . S
N1787 C1785 1.384 . S
H1788 C1794 0.930 . S
H1789 C1798 0.930 . S
H1790 C1803 0.929 . S
H1791 C1801 0.929 . S
H1792 C1796 0.929 . S
H1793 C1802 0.929 . S
C1794 H1788 0.930 . S
C1794 C1795 1.367 . S
C1794 C1802 1.378 . S
C1795 C1794 1.367 . S
C1795 C1803 1.433 . S
C1796 H1792 0.929 . S
C1796 C1798 1.378 . S
C1796 C1800 1.350 . S
C1797 C1800 1.463 . S
C1797 C1802 1.350 . S
C1797 N1805 1.427 . S
C1798 H1789 0.930 . S
C1798 C1796 1.378 . S
C1798 C1799 1.367 . S
C1799 C1798 1.367 . S
C1799 C1801 1.433 . S
C1800 C1796 1.350 . S
C1800 C1797 1.463 . S
C1800 N1804 1.427 . S
C1801 H1791 0.929 . S
C1801 C1799 1.433 . S
C1801 N1804 1.384 . S
C1802 H1793 0.929 . S
C1802 C1794 1.378 . S
C1802 C1797 1.350 . S
C1803 H1790 0.929 . S
C1803 C1795 1.433 . S
C1803 N1805 1.384 . S
N1804 C1800 1.427 . S
N1804 C1801 1.384 . S
N1805 C1797 1.427 . S
N1805 C1803 1.384 . S
H1806 C1812 0.930 . S
H1807 C1816 0.930 . S
H1808 C1821 0.929 . S
H1809 C1819 0.929 . S
H1810 C1814 0.929 . S
H1811 C1820 0.929 . S
C1812 H1806 0.930 . S
C1812 C1813 1.367 . S
C1812 C1820 1.378 . S
C1813 C1812 1.367 . S
C1813 C1821 1.433 . S
C1814 H1810 0.929 . S
C1814 C1816 1.378 . S
C1814 C1818 1.350 . S
C1815 C1818 1.463 . S
C1815 C1820 1.350 . S
C1815 N1823 1.427 . S
C1816 H1807 0.930 . S
C1816 C1814 1.378 . S
C1816 C1817 1.367 . S
C1817 C1816 1.367 . S
C1817 C1819 1.433 . S
C1818 C1814 1.350 . S
C1818 C1815 1.463 . S
C1818 N1822 1.427 . S
C1819 H1809 0.929 . S
C1819 C1817 1.433 . S
C1819 N1822 1.384 . S
C1820 H1811 0.929 . S
C1820 C1812 1.378 . S
C1820 C1815 1.350 . S
C1821 H1808 0.929 . S
C1821 C1813 1.433 . S
C1821 N1823 1.384 . S
N1822 C1818 1.427 . S
N1822 C1819 1.384 . S
N1823 C1815 1.427 . S
N1823 C1821 1.384 . S
H1824 C1830 0.930 . S
H1825 C1834 0.930 . S
H1826 C1839 0.929 . S
H1827 C1837 0.929 . S
H1828 C1832 0.929 . S
H1829 C1838 0.929 . S
C1830 H1824 0.930 . S
C1830 C1831 1.367 . S
C1830 C1838 1.378 . S
C1831 C1830 1.367 . S
C1831 C1839 1.433 . S
C1832 H1828 0.929 . S
C1832 C1834 1.378 . S
C1832 C1836 1.350 . S
C1833 C1836 1.463 . S
C1833 C1838 1.350 . S
C1833 N1841 1.427 . S
C1834 H1825 0.930 . S
C1834 C1832 1.378 . S
C1834 C1835 1.367 . S
C1835 C1834 1.367 . S
C1835 C1837 1.433 . S
C1836 C1832 1.350 . S
C1836 C1833 1.463 . S
C1836 N1840 1.427 . S
C1837 H1827 0.929 . S
C1837 C1835 1.433 . S
C1837 N1840 1.384 . S
C1838 H1829 0.929 . S
C1838 C1830 1.378 . S
C1838 C1833 1.350 . S
C1839 H1826 0.929 . S
C1839 C1831 1.433 . S
C1839 N1841 1.384 . S
N1840 C1836 1.427 . S
N1840 C1837 1.384 . S
N1841 C1833 1.427 . S
N1841 C1839 1.384 . S
H1842 C1848 0.930 . S
H1843 C1852 0.930 . S
H1844 C1857 0.929 . S
H1845 C1855 0.929 . S
H1846 C1850 0.929 . S
H1847 C1856 0.929 . S
C1848 H1842 0.930 . S
C1848 C1849 1.367 . S
C1848 C1856 1.378 . S
C1849 C1848 1.367 . S
C1849 C1857 1.433 . S
C1850 H1846 0.929 . S
C1850 C1852 1.378 . S
C1850 C1854 1.350 . S
C1851 C1854 1.463 . S
C1851 C1856 1.350 . S
C1851 N1859 1.427 . S
C1852 H1843 0.930 . S
C1852 C1850 1.378 . S
C1852 C1853 1.367 . S
C1853 C1852 1.367 . S
C1853 C1855 1.433 . S
C1854 C1850 1.350 . S
C1854 C1851 1.463 . S
C1854 N1858 1.427 . S
C1855 H1845 0.929 . S
C1855 C1853 1.433 . S
C1855 N1858 1.384 . S
C1856 H1847 0.929 . S
C1856 C1848 1.378 . S
C1856 C1851 1.350 . S
C1857 H1844 0.929 . S
C1857 C1849 1.433 . S
C1857 N1859 1.384 . S
N1858 C1854 1.427 . S
N1858 C1855 1.384 . S
N1859 C1851 1.427 . S
N1859 C1857 1.384 . S
H1860 C1866 0.930 . S
H1861 C1870 0.930 . S
H1862 C1875 0.929 . S
H1863 C1873 0.929 . S
H1864 C1868 0.915 1_545 S
H1865 C1874 0.929 . S
C1866 H1860 0.930 . S
C1866 C1867 1.367 . S
C1866 C1874 1.378 . S
C1867 C1866 1.367 . S
C1867 C1875 1.433 . S
C1868 H1864 0.915 1_565 S
C1868 C1870 1.402 . S
C1868 C1872 1.340 1_565 S
C1869 C1872 1.463 . S
C1869 C1874 1.350 . S
C1869 N1877 1.427 . S
C1870 H1861 0.930 . S
C1870 C1868 1.402 . S
C1870 C1871 1.367 . S
C1871 C1870 1.367 . S
C1871 C1873 1.433 . S
C1872 C1868 1.340 1_545 S
C1872 C1869 1.463 . S
C1872 N1876 1.427 1_545 S
C1873 H1863 0.929 . S
C1873 C1871 1.433 . S
C1873 N1876 1.384 . S
C1874 H1865 0.929 . S
C1874 C1866 1.378 . S
C1874 C1869 1.350 . S
C1875 H1862 0.929 . S
C1875 C1867 1.433 . S
C1875 N1877 1.384 . S
N1876 C1872 1.427 1_565 S
N1876 C1873 1.384 . S
N1877 C1869 1.427 . S
N1877 C1875 1.384 . S
H1878 C1884 0.930 . S
H1879 C1888 0.930 . S
H1880 C1893 0.929 . S
H1881 C1891 0.929 . S
H1882 C1886 0.929 . S
H1883 C1892 0.929 . S
C1884 H1878 0.930 . S
C1884 C1885 1.367 . S
C1884 C1892 1.378 . S
C1885 C1884 1.367 . S
C1885 C1893 1.433 . S
C1886 H1882 0.929 . S
C1886 C1888 1.378 . S
C1886 C1890 1.350 . S
C1887 C1890 1.463 . S
C1887 C1892 1.350 . S
C1887 N1895 1.427 . S
C1888 H1879 0.930 . S
C1888 C1886 1.378 . S
C1888 C1889 1.367 . S
C1889 C1888 1.367 . S
C1889 C1891 1.433 . S
C1890 C1886 1.350 . S
C1890 C1887 1.463 . S
C1890 N1894 1.427 . S
C1891 H1881 0.929 . S
C1891 C1889 1.433 . S
C1891 N1894 1.384 . S
C1892 H1883 0.929 . S
C1892 C1884 1.378 . S
C1892 C1887 1.350 . S
C1893 H1880 0.929 . S
C1893 C1885 1.433 . S
C1893 N1895 1.384 . S
N1894 C1890 1.427 . S
N1894 C1891 1.384 . S
N1895 C1887 1.427 . S
N1895 C1893 1.384 . S
H1896 C1902 0.930 . S
H1897 C1906 0.930 . S
H1898 C1911 0.929 . S
H1899 C1909 0.929 . S
H1900 C1904 0.929 . S
H1901 C1910 0.929 . S
C1902 H1896 0.930 . S
C1902 C1903 1.367 . S
C1902 C1910 1.378 . S
C1903 C1902 1.367 . S
C1903 C1911 1.433 . S
C1904 H1900 0.929 . S
C1904 C1906 1.378 . S
C1904 C1908 1.350 . S
C1905 C1908 1.463 . S
C1905 C1910 1.350 . S
C1905 N1913 1.427 . S
C1906 H1897 0.930 . S
C1906 C1904 1.378 . S
C1906 C1907 1.367 . S
C1907 C1906 1.367 . S
C1907 C1909 1.433 . S
C1908 C1904 1.350 . S
C1908 C1905 1.463 . S
C1908 N1912 1.427 . S
C1909 H1899 0.929 . S
C1909 C1907 1.433 . S
C1909 N1912 1.384 . S
C1910 H1901 0.929 . S
C1910 C1902 1.378 . S
C1910 C1905 1.350 . S
C1911 H1898 0.929 . S
C1911 C1903 1.433 . S
C1911 N1913 1.384 . S
N1912 C1908 1.427 . S
N1912 C1909 1.384 . S
N1913 C1905 1.427 . S
N1913 C1911 1.384 . S
H1914 C1920 0.930 . S
H1915 C1924 0.930 . S
H1916 C1929 0.929 . S
H1917 C1927 0.929 . S
H1918 C1922 0.929 . S
H1919 C1928 0.929 . S
C1920 H1914 0.930 . S
C1920 C1921 1.367 . S
C1920 C1928 1.378 . S
C1921 C1920 1.367 . S
C1921 C1929 1.433 . S
C1922 H1918 0.929 . S
C1922 C1924 1.378 . S
C1922 C1926 1.350 . S
C1923 C1926 1.463 . S
C1923 C1928 1.350 . S
C1923 N1931 1.427 . S
C1924 H1915 0.930 . S
C1924 C1922 1.378 . S
C1924 C1925 1.367 . S
C1925 C1924 1.367 . S
C1925 C1927 1.433 . S
C1926 C1922 1.350 . S
C1926 C1923 1.463 . S
C1926 N1930 1.427 . S
C1927 H1917 0.929 . S
C1927 C1925 1.433 . S
C1927 N1930 1.384 . S
C1928 H1919 0.929 . S
C1928 C1920 1.378 . S
C1928 C1923 1.350 . S
C1929 H1916 0.929 . S
C1929 C1921 1.433 . S
C1929 N1931 1.384 . S
N1930 C1926 1.427 . S
N1930 C1927 1.384 . S
N1931 C1923 1.427 . S
N1931 C1929 1.384 . S
H1932 C1938 0.930 . S
H1933 C1942 0.930 . S
H1934 C1947 0.929 . S
H1935 C1945 0.929 . S
H1936 C1940 0.929 . S
H1937 C1946 0.931 . S
C1938 H1932 0.930 . S
C1938 C1939 1.367 . S
C1938 C1946 1.378 . S
C1939 C1938 1.367 . S
C1939 C1947 1.433 . S
C1940 H1936 0.929 . S
C1940 C1942 1.378 . S
C1940 C1944 1.350 . S
C1941 C1944 1.507 . S
C1941 C1946 1.331 1_565 S
C1941 N1949 1.404 1_565 S
C1942 H1933 0.930 . S
C1942 C1940 1.378 . S
C1942 C1943 1.367 . S
C1943 C1942 1.367 . S
C1943 C1945 1.433 . S
C1944 C1940 1.350 . S
C1944 C1941 1.507 . S
C1944 N1948 1.427 . S
C1945 H1935 0.929 . S
C1945 C1943 1.433 . S
C1945 N1948 1.384 . S
C1946 H1937 0.931 . S
C1946 C1938 1.378 . S
C1946 C1941 1.331 1_545 S
C1947 H1934 0.929 . S
C1947 C1939 1.433 . S
C1947 N1949 1.384 . S
N1948 C1944 1.427 . S
N1948 C1945 1.384 . S
N1949 C1941 1.404 1_545 S
N1949 C1947 1.384 . S
H1950 C1956 0.930 . S
H1951 C1960 0.930 . S
H1952 C1965 0.929 . S
H1953 C1963 0.929 . S
H1954 C1958 0.929 . S
H1955 C1964 0.929 . S
C1956 H1950 0.930 . S
C1956 C1957 1.367 . S
C1956 C1964 1.378 . S
C1957 C1956 1.367 . S
C1957 C1965 1.433 . S
C1958 H1954 0.929 . S
C1958 C1960 1.378 . S
C1958 C1962 1.350 1_565 S
C1959 C1962 1.463 . S
C1959 C1964 1.350 . S
C1959 N1967 1.427 . S
C1960 H1951 0.930 . S
C1960 C1958 1.378 . S
C1960 C1961 1.367 . S
C1961 C1960 1.367 . S
C1961 C1963 1.433 . S
C1962 C1958 1.350 1_545 S
C1962 C1959 1.463 . S
C1962 N1966 1.427 1_545 S
C1963 H1953 0.929 . S
C1963 C1961 1.433 . S
C1963 N1966 1.384 . S
C1964 H1955 0.929 . S
C1964 C1956 1.378 . S
C1964 C1959 1.350 . S
C1965 H1952 0.929 . S
C1965 C1957 1.433 . S
C1965 N1967 1.384 . S
N1966 C1962 1.427 1_565 S
N1966 C1963 1.384 . S
N1967 C1959 1.427 . S
N1967 C1965 1.384 . S
H1968 C1974 0.930 . S
H1969 C1978 0.930 . S
H1970 C1983 0.929 . S
H1971 C1981 0.929 . S
H1972 C1976 0.929 . S
H1973 C1982 0.929 . S
C1974 H1968 0.930 . S
C1974 C1975 1.367 . S
C1974 C1982 1.378 . S
C1975 C1974 1.367 . S
C1975 C1983 1.433 . S
C1976 H1972 0.929 . S
C1976 C1978 1.378 . S
C1976 C1980 1.350 . S
C1977 C1980 1.463 . S
C1977 C1982 1.350 . S
C1977 N1985 1.427 . S
C1978 H1969 0.930 . S
C1978 C1976 1.378 . S
C1978 C1979 1.367 . S
C1979 C1978 1.367 . S
C1979 C1981 1.433 . S
C1980 C1976 1.350 . S
C1980 C1977 1.463 . S
C1980 N1984 1.427 . S
C1981 H1971 0.929 . S
C1981 C1979 1.433 . S
C1981 N1984 1.384 . S
C1982 H1973 0.929 . S
C1982 C1974 1.378 . S
C1982 C1977 1.350 . S
C1983 H1970 0.929 . S
C1983 C1975 1.433 . S
C1983 N1985 1.384 . S
N1984 C1980 1.427 . S
N1984 C1981 1.384 . S
N1985 C1977 1.427 . S
N1985 C1983 1.384 . S
H1986 C1992 0.930 . S
H1987 C1996 0.930 . S
H1988 C2001 0.929 . S
H1989 C1999 0.929 . S
H1990 C1994 0.929 . S
H1991 C2000 0.929 . S
C1992 H1986 0.930 . S
C1992 C1993 1.367 . S
C1992 C2000 1.378 . S
C1993 C1992 1.367 . S
C1993 C2001 1.433 . S
C1994 H1990 0.929 . S
C1994 C1996 1.378 . S
C1994 C1998 1.350 . S
C1995 C1998 1.463 . S
C1995 C2000 1.350 . S
C1995 N2003 1.427 . S
C1996 H1987 0.930 . S
C1996 C1994 1.378 . S
C1996 C1997 1.367 . S
C1997 C1996 1.367 . S
C1997 C1999 1.433 . S
C1998 C1994 1.350 . S
C1998 C1995 1.463 . S
C1998 N2002 1.427 . S
C1999 H1989 0.929 . S
C1999 C1997 1.433 . S
C1999 N2002 1.384 . S
C2000 H1991 0.929 . S
C2000 C1992 1.378 . S
C2000 C1995 1.350 . S
C2001 H1988 0.929 . S
C2001 C1993 1.433 . S
C2001 N2003 1.384 . S
N2002 C1998 1.427 . S
N2002 C1999 1.384 . S
N2003 C1995 1.427 . S
N2003 C2001 1.384 . S
H2004 C2010 0.930 . S
H2005 C2014 0.930 . S
H2006 C2019 0.929 . S
H2007 C2017 0.929 . S
H2008 C2012 0.929 . S
H2009 C2018 0.929 . S
C2010 H2004 0.930 . S
C2010 C2011 1.367 . S
C2010 C2018 1.378 . S
C2011 C2010 1.367 . S
C2011 C2019 1.433 . S
C2012 H2008 0.929 . S
C2012 C2014 1.378 . S
C2012 C2016 1.350 . S
C2013 C2016 1.463 . S
C2013 C2018 1.350 . S
C2013 N2021 1.427 . S
C2014 H2005 0.930 . S
C2014 C2012 1.378 . S
C2014 C2015 1.367 . S
C2015 C2014 1.367 . S
C2015 C2017 1.433 . S
C2016 C2012 1.350 . S
C2016 C2013 1.463 . S
C2016 N2020 1.427 . S
C2017 H2007 0.929 . S
C2017 C2015 1.433 . S
C2017 N2020 1.384 . S
C2018 H2009 0.929 . S
C2018 C2010 1.378 . S
C2018 C2013 1.350 . S
C2019 H2006 0.929 . S
C2019 C2011 1.433 . S
C2019 N2021 1.384 . S
N2020 C2016 1.427 . S
N2020 C2017 1.384 . S
N2021 C2013 1.427 . S
N2021 C2019 1.384 . S
H2022 C2028 0.930 . S
H2023 C2032 0.930 . S
H2024 C2037 0.929 . S
H2025 C2035 0.929 . S
H2026 C2030 0.929 . S
H2027 C2036 0.929 1_655 S
C2028 H2022 0.930 . S
C2028 C2029 1.367 . S
C2028 C2036 1.378 . S
C2029 C2028 1.367 . S
C2029 C2037 1.433 . S
C2030 H2026 0.929 . S
C2030 C2032 1.378 . S
C2030 C2034 1.350 . S
C2031 C2034 1.463 . S
C2031 C2036 1.350 1_655 S
C2031 N2039 1.427 1_655 S
C2032 H2023 0.930 . S
C2032 C2030 1.378 . S
C2032 C2033 1.367 . S
C2033 C2032 1.367 . S
C2033 C2035 1.433 . S
C2034 C2030 1.350 . S
C2034 C2031 1.463 . S
C2034 N2038 1.427 . S
C2035 H2025 0.929 . S
C2035 C2033 1.433 . S
C2035 N2038 1.384 . S
C2036 H2027 0.929 1_455 S
C2036 C2028 1.378 . S
C2036 C2031 1.350 1_455 S
C2037 H2024 0.929 . S
C2037 C2029 1.433 . S
C2037 N2039 1.384 . S
N2038 C2034 1.427 . S
N2038 C2035 1.384 . S
N2039 C2031 1.427 1_455 S
N2039 C2037 1.384 . S
H2040 C2046 0.930 . S
H2041 C2050 0.930 . S
H2042 C2055 0.929 . S
H2043 C2053 0.929 . S
H2044 C2048 0.929 . S
H2045 C2054 0.929 . S
C2046 H2040 0.930 . S
C2046 C2047 1.367 . S
C2046 C2054 1.378 . S
C2047 C2046 1.367 . S
C2047 C2055 1.433 . S
C2048 H2044 0.929 . S
C2048 C2050 1.378 . S
C2048 C2052 1.350 . S
C2049 C2052 1.463 . S
C2049 C2054 1.350 . S
C2049 N2057 1.427 . S
C2050 H2041 0.930 . S
C2050 C2048 1.378 . S
C2050 C2051 1.367 . S
C2051 C2050 1.367 . S
C2051 C2053 1.433 . S
C2052 C2048 1.350 . S
C2052 C2049 1.463 . S
C2052 N2056 1.427 . S
C2053 H2043 0.929 . S
C2053 C2051 1.433 . S
C2053 N2056 1.384 . S
C2054 H2045 0.929 . S
C2054 C2046 1.378 . S
C2054 C2049 1.350 . S
C2055 H2042 0.929 . S
C2055 C2047 1.433 . S
C2055 N2057 1.384 . S
N2056 C2052 1.427 . S
N2056 C2053 1.384 . S
N2057 C2049 1.427 . S
N2057 C2055 1.384 . S
H2058 C2064 0.930 . S
H2059 C2068 0.930 . S
H2060 C2073 0.929 . S
H2061 C2071 0.929 . S
H2062 C2066 0.929 . S
H2063 C2072 0.912 1_655 S
C2064 H2058 0.930 . S
C2064 C2065 1.367 . S
C2064 C2072 1.378 . S
C2065 C2064 1.367 . S
C2065 C2073 1.433 . S
C2066 H2062 0.929 . S
C2066 C2068 1.378 . S
C2066 C2070 1.350 . S
C2067 C2070 1.463 . S
C2067 C2072 1.350 1_655 S
C2067 N2075 1.427 1_655 S
C2068 H2059 0.930 . S
C2068 C2066 1.378 . S
C2068 C2069 1.367 . S
C2069 C2068 1.367 . S
C2069 C2071 1.433 . S
C2070 C2066 1.350 . S
C2070 C2067 1.463 . S
C2070 N2074 1.427 . S
C2071 H2061 0.929 . S
C2071 C2069 1.433 . S
C2071 N2074 1.384 . S
C2072 H2063 0.912 1_455 S
C2072 C2064 1.378 . S
C2072 C2067 1.350 1_455 S
C2073 H2060 0.929 . S
C2073 C2065 1.433 . S
C2073 N2075 1.384 . S
N2074 C2070 1.427 . S
N2074 C2071 1.384 . S
N2075 C2067 1.427 1_455 S
N2075 C2073 1.384 . S
H2076 C2082 0.930 . S
H2077 C2086 0.930 . S
H2078 C2091 0.929 . S
H2079 C2089 0.929 . S
H2080 C2084 0.929 . S
H2081 C2090 0.929 . S
C2082 H2076 0.930 . S
C2082 C2083 1.367 . S
C2082 C2090 1.378 . S
C2083 C2082 1.367 . S
C2083 C2091 1.433 . S
C2084 H2080 0.929 . S
C2084 C2086 1.378 . S
C2084 C2088 1.350 . S
C2085 C2088 1.463 . S
C2085 C2090 1.350 . S
C2085 N2093 1.427 . S
C2086 H2077 0.930 . S
C2086 C2084 1.378 . S
C2086 C2087 1.367 . S
C2087 C2086 1.367 . S
C2087 C2089 1.433 . S
C2088 C2084 1.350 . S
C2088 C2085 1.463 . S
C2088 N2092 1.427 . S
C2089 H2079 0.929 . S
C2089 C2087 1.433 . S
C2089 N2092 1.384 . S
C2090 H2081 0.929 . S
C2090 C2082 1.378 . S
C2090 C2085 1.350 . S
C2091 H2078 0.929 . S
C2091 C2083 1.433 . S
C2091 N2093 1.384 . S
N2092 C2088 1.427 . S
N2092 C2089 1.384 . S
N2093 C2085 1.427 . S
N2093 C2091 1.384 . S
H2094 C2100 0.930 . S
H2095 C2104 0.930 . S
H2096 C2109 0.929 . S
H2097 C2107 0.929 . S
H2098 C2102 0.929 . S
H2099 C2108 0.929 . S
C2100 H2094 0.930 . S
C2100 C2101 1.367 . S
C2100 C2108 1.378 . S
C2101 C2100 1.367 . S
C2101 C2109 1.433 . S
C2102 H2098 0.929 . S
C2102 C2104 1.378 . S
C2102 C2106 1.350 . S
C2103 C2106 1.463 . S
C2103 C2108 1.350 . S
C2103 N2111 1.427 . S
C2104 H2095 0.930 . S
C2104 C2102 1.378 . S
C2104 C2105 1.367 . S
C2105 C2104 1.367 . S
C2105 C2107 1.433 . S
C2106 C2102 1.350 . S
C2106 C2103 1.463 . S
C2106 N2110 1.427 . S
C2107 H2097 0.929 . S
C2107 C2105 1.433 . S
C2107 N2110 1.384 . S
C2108 H2099 0.929 . S
C2108 C2100 1.378 . S
C2108 C2103 1.350 . S
C2109 H2096 0.929 . S
C2109 C2101 1.433 . S
C2109 N2111 1.384 . S
N2110 C2106 1.427 . S
N2110 C2107 1.384 . S
N2111 C2103 1.427 . S
N2111 C2109 1.384 . S
H2112 C2118 0.930 . S
H2113 C2122 0.930 . S
H2114 C2127 0.929 . S
H2115 C2125 0.929 . S
H2116 C2120 0.929 . S
H2117 C2126 0.929 . S
C2118 H2112 0.930 . S
C2118 C2119 1.367 . S
C2118 C2126 1.378 . S
C2119 C2118 1.367 . S
C2119 C2127 1.433 . S
C2120 H2116 0.929 . S
C2120 C2122 1.378 . S
C2120 C2124 1.350 . S
C2121 C2124 1.463 . S
C2121 C2126 1.350 . S
C2121 N2129 1.427 . S
C2122 H2113 0.930 . S
C2122 C2120 1.378 . S
C2122 C2123 1.367 . S
C2123 C2122 1.367 . S
C2123 C2125 1.433 . S
C2124 C2120 1.350 . S
C2124 C2121 1.463 . S
C2124 N2128 1.427 . S
C2125 H2115 0.929 . S
C2125 C2123 1.433 . S
C2125 N2128 1.384 . S
C2126 H2117 0.929 . S
C2126 C2118 1.378 . S
C2126 C2121 1.350 . S
C2127 H2114 0.929 . S
C2127 C2119 1.433 . S
C2127 N2129 1.384 . S
N2128 C2124 1.427 . S
N2128 C2125 1.384 . S
N2129 C2121 1.427 . S
N2129 C2127 1.384 . S
H2130 C2136 0.930 . S
H2131 C2140 0.930 . S
H2132 C2145 0.929 . S
H2133 C2143 0.929 . S
H2134 C2138 0.929 1_556 S
H2135 C2144 0.929 . S
C2136 H2130 0.930 . S
C2136 C2137 1.367 . S
C2136 C2144 1.378 . S
C2137 C2136 1.367 . S
C2137 C2145 1.433 . S
C2138 H2134 0.929 1_554 S
C2138 C2140 1.378 . S
C2138 C2142 1.350 1_554 S
C2139 C2142 1.463 . S
C2139 C2144 1.350 . S
C2139 N2147 1.427 . S
C2140 H2131 0.930 . S
C2140 C2138 1.378 . S
C2140 C2141 1.367 . S
C2141 C2140 1.367 . S
C2141 C2143 1.433 . S
C2142 C2138 1.350 1_556 S
C2142 C2139 1.463 . S
C2142 N2146 1.427 1_556 S
C2143 H2133 0.929 . S
C2143 C2141 1.433 . S
C2143 N2146 1.384 . S
C2144 H2135 0.929 . S
C2144 C2136 1.378 . S
C2144 C2139 1.350 . S
C2145 H2132 0.929 . S
C2145 C2137 1.433 . S
C2145 N2147 1.384 . S
N2146 C2142 1.427 1_554 S
N2146 C2143 1.384 . S
N2147 C2139 1.427 . S
N2147 C2145 1.384 . S
H2148 C2154 0.930 . S
H2149 C2158 0.930 . S
H2150 C2163 0.929 . S
H2151 C2161 0.929 . S
H2152 C2156 0.929 . S
H2153 C2162 0.929 . S
C2154 H2148 0.930 . S
C2154 C2155 1.367 . S
C2154 C2162 1.378 . S
C2155 C2154 1.367 . S
C2155 C2163 1.433 . S
C2156 H2152 0.929 . S
C2156 C2158 1.378 . S
C2156 C2160 1.350 . S
C2157 C2160 1.463 . S
C2157 C2162 1.350 . S
C2157 N2165 1.427 . S
C2158 H2149 0.930 . S
C2158 C2156 1.378 . S
C2158 C2159 1.367 . S
C2159 C2158 1.367 . S
C2159 C2161 1.433 . S
C2160 C2156 1.350 . S
C2160 C2157 1.463 . S
C2160 N2164 1.427 . S
C2161 H2151 0.929 . S
C2161 C2159 1.433 . S
C2161 N2164 1.384 . S
C2162 H2153 0.929 . S
C2162 C2154 1.378 . S
C2162 C2157 1.350 . S
C2163 H2150 0.929 . S
C2163 C2155 1.433 . S
C2163 N2165 1.384 . S
N2164 C2160 1.427 . S
N2164 C2161 1.384 . S
N2165 C2157 1.427 . S
N2165 C2163 1.384 . S
H2166 C2172 0.930 . S
H2167 C2176 0.930 . S
H2168 C2181 0.929 . S
H2169 C2179 0.929 . S
H2170 C2174 0.929 . S
H2171 C2180 0.929 . S
C2172 H2166 0.930 . S
C2172 C2173 1.367 . S
C2172 C2180 1.378 . S
C2173 C2172 1.367 . S
C2173 C2181 1.433 . S
C2174 H2170 0.929 . S
C2174 C2176 1.378 . S
C2174 C2178 1.350 . S
C2175 C2178 1.463 . S
C2175 C2180 1.350 . S
C2175 N2183 1.427 . S
C2176 H2167 0.930 . S
C2176 C2174 1.378 . S
C2176 C2177 1.367 . S
C2177 C2176 1.367 . S
C2177 C2179 1.433 . S
C2178 C2174 1.350 . S
C2178 C2175 1.463 . S
C2178 N2182 1.427 . S
C2179 H2169 0.929 . S
C2179 C2177 1.433 . S
C2179 N2182 1.384 . S
C2180 H2171 0.929 . S
C2180 C2172 1.378 . S
C2180 C2175 1.350 . S
C2181 H2168 0.929 . S
C2181 C2173 1.433 . S
C2181 N2183 1.384 . S
N2182 C2178 1.427 . S
N2182 C2179 1.384 . S
N2183 C2175 1.427 . S
N2183 C2181 1.384 . S
H2184 C2190 0.930 . S
H2185 C2194 0.930 . S
H2186 C2199 0.929 . S
H2187 C2197 0.929 . S
H2188 C2192 0.929 . S
H2189 C2198 0.929 . S
C2190 H2184 0.930 . S
C2190 C2191 1.367 . S
C2190 C2198 1.378 . S
C2191 C2190 1.367 . S
C2191 C2199 1.433 . S
C2192 H2188 0.929 . S
C2192 C2194 1.378 . S
C2192 C2196 1.350 . S
C2193 C2196 1.463 . S
C2193 C2198 1.350 . S
C2193 N2201 1.427 . S
C2194 H2185 0.930 . S
C2194 C2192 1.378 . S
C2194 C2195 1.367 . S
C2195 C2194 1.367 . S
C2195 C2197 1.433 . S
C2196 C2192 1.350 . S
C2196 C2193 1.463 . S
C2196 N2200 1.427 . S
C2197 H2187 0.929 . S
C2197 C2195 1.433 . S
C2197 N2200 1.384 . S
C2198 H2189 0.929 . S
C2198 C2190 1.378 . S
C2198 C2193 1.350 . S
C2199 H2186 0.929 . S
C2199 C2191 1.433 . S
C2199 N2201 1.384 . S
N2200 C2196 1.427 . S
N2200 C2197 1.384 . S
N2201 C2193 1.427 . S
N2201 C2199 1.384 . S
H2202 C2208 0.930 . S
H2203 C2212 0.930 . S
H2204 C2217 0.929 . S
H2205 C2215 0.929 . S
H2206 C2210 0.929 . S
H2207 C2216 0.929 . S
C2208 H2202 0.930 . S
C2208 C2209 1.367 . S
C2208 C2216 1.378 . S
C2209 C2208 1.367 . S
C2209 C2217 1.433 . S
C2210 H2206 0.929 . S
C2210 C2212 1.378 . S
C2210 C2214 1.350 1_556 S
C2211 C2214 1.463 . S
C2211 C2216 1.350 . S
C2211 N2219 1.427 . S
C2212 H2203 0.930 . S
C2212 C2210 1.378 . S
C2212 C2213 1.367 . S
C2213 C2212 1.367 . S
C2213 C2215 1.433 . S
C2214 C2210 1.350 1_554 S
C2214 C2211 1.463 . S
C2214 N2218 1.427 1_554 S
C2215 H2205 0.929 . S
C2215 C2213 1.433 . S
C2215 N2218 1.384 . S
C2216 H2207 0.929 . S
C2216 C2208 1.378 . S
C2216 C2211 1.350 . S
C2217 H2204 0.929 . S
C2217 C2209 1.433 . S
C2217 N2219 1.384 . S
N2218 C2214 1.427 1_556 S
N2218 C2215 1.384 . S
N2219 C2211 1.427 . S
N2219 C2217 1.384 . S
H2220 C2226 0.930 . S
H2221 C2230 0.930 . S
H2222 C2235 0.929 . S
H2223 C2233 0.929 . S
H2224 C2228 0.929 . S
H2225 C2234 0.929 . S
C2226 H2220 0.930 . S
C2226 C2227 1.367 . S
C2226 C2234 1.378 . S
C2227 C2226 1.367 . S
C2227 C2235 1.433 . S
C2228 H2224 0.929 . S
C2228 C2230 1.378 . S
C2228 C2232 1.350 . S
C2229 C2232 1.463 . S
C2229 C2234 1.350 . S
C2229 N2237 1.427 . S
C2230 H2221 0.930 . S
C2230 C2228 1.378 . S
C2230 C2231 1.367 . S
C2231 C2230 1.367 . S
C2231 C2233 1.433 . S
C2232 C2228 1.350 . S
C2232 C2229 1.463 . S
C2232 N2236 1.427 . S
C2233 H2223 0.929 . S
C2233 C2231 1.433 . S
C2233 N2236 1.384 . S
C2234 H2225 0.929 . S
C2234 C2226 1.378 . S
C2234 C2229 1.350 . S
C2235 H2222 0.929 . S
C2235 C2227 1.433 . S
C2235 N2237 1.384 . S
N2236 C2232 1.427 . S
N2236 C2233 1.384 . S
N2237 C2229 1.427 . S
N2237 C2235 1.384 . S
H2238 C2244 0.930 . S
H2239 C2248 0.930 . S
H2240 C2253 0.929 . S
H2241 C2251 0.929 . S
H2242 C2246 0.929 . S
H2243 C2252 0.929 . S
C2244 H2238 0.930 . S
C2244 C2245 1.367 . S
C2244 C2252 1.378 . S
C2245 C2244 1.367 . S
C2245 C2253 1.433 . S
C2246 H2242 0.929 . S
C2246 C2248 1.378 . S
C2246 C2250 1.350 . S
C2247 C2250 1.463 . S
C2247 C2252 1.350 . S
C2247 N2255 1.427 . S
C2248 H2239 0.930 . S
C2248 C2246 1.378 . S
C2248 C2249 1.367 . S
C2249 C2248 1.367 . S
C2249 C2251 1.433 . S
C2250 C2246 1.350 . S
C2250 C2247 1.463 . S
C2250 N2254 1.427 . S
C2251 H2241 0.929 . S
C2251 C2249 1.433 . S
C2251 N2254 1.384 . S
C2252 H2243 0.929 . S
C2252 C2244 1.378 . S
C2252 C2247 1.350 . S
C2253 H2240 0.929 . S
C2253 C2245 1.433 . S
C2253 N2255 1.384 . S
N2254 C2250 1.427 . S
N2254 C2251 1.384 . S
N2255 C2247 1.427 . S
N2255 C2253 1.384 . S
H2256 C2262 0.930 . S
H2257 C2266 0.930 . S
H2258 C2271 0.929 . S
H2259 C2269 0.929 . S
H2260 C2264 0.929 . S
H2261 C2270 0.929 . S
C2262 H2256 0.930 . S
C2262 C2263 1.367 . S
C2262 C2270 1.378 . S
C2263 C2262 1.367 . S
C2263 C2271 1.433 . S
C2264 H2260 0.929 . S
C2264 C2266 1.378 . S
C2264 C2268 1.350 . S
C2265 C2268 1.463 . S
C2265 C2270 1.350 . S
C2265 N2273 1.427 . S
C2266 H2257 0.930 . S
C2266 C2264 1.378 . S
C2266 C2267 1.367 . S
C2267 C2266 1.367 . S
C2267 C2269 1.433 . S
C2268 C2264 1.350 . S
C2268 C2265 1.463 . S
C2268 N2272 1.427 . S
C2269 H2259 0.929 . S
C2269 C2267 1.433 . S
C2269 N2272 1.384 . S
C2270 H2261 0.929 . S
C2270 C2262 1.378 . S
C2270 C2265 1.350 . S
C2271 H2258 0.929 . S
C2271 C2263 1.433 . S
C2271 N2273 1.384 . S
N2272 C2268 1.427 . S
N2272 C2269 1.384 . S
N2273 C2265 1.427 . S
N2273 C2271 1.384 . S
H2274 C2280 0.930 . S
H2275 C2284 0.930 . S
H2276 C2289 0.929 . S
H2277 C2287 0.929 . S
H2278 C2282 0.929 . S
H2279 C2288 0.929 . S
C2280 H2274 0.930 . S
C2280 C2281 1.367 . S
C2280 C2288 1.378 . S
C2281 C2280 1.367 . S
C2281 C2289 1.433 . S
C2282 H2278 0.929 . S
C2282 C2284 1.378 . S
C2282 C2286 1.350 . S
C2283 C2286 1.463 . S
C2283 C2288 1.350 . S
C2283 N2291 1.427 . S
C2284 H2275 0.930 . S
C2284 C2282 1.378 . S
C2284 C2285 1.367 . S
C2285 C2284 1.367 . S
C2285 C2287 1.433 . S
C2286 C2282 1.350 . S
C2286 C2283 1.463 . S
C2286 N2290 1.427 . S
C2287 H2277 0.929 . S
C2287 C2285 1.433 . S
C2287 N2290 1.384 . S
C2288 H2279 0.929 . S
C2288 C2280 1.378 . S
C2288 C2283 1.350 . S
C2289 H2276 0.929 . S
C2289 C2281 1.433 . S
C2289 N2291 1.384 . S
N2290 C2286 1.427 . S
N2290 C2287 1.384 . S
N2291 C2283 1.427 . S
N2291 C2289 1.384 . S
H2292 C2298 0.930 . S
H2293 C2302 0.930 . S
H2294 C2307 0.929 . S
H2295 C2305 0.929 . S
H2296 C2300 0.929 . S
H2297 C2306 0.929 . S
C2298 H2292 0.930 . S
C2298 C2299 1.367 . S
C2298 C2306 1.378 . S
C2299 C2298 1.367 . S
C2299 C2307 1.433 . S
C2300 H2296 0.929 . S
C2300 C2302 1.378 . S
C2300 C2304 1.350 1_545 S
C2301 C2304 1.463 . S
C2301 C2306 1.350 . S
C2301 N2309 1.427 . S
C2302 H2293 0.930 . S
C2302 C2300 1.378 . S
C2302 C2303 1.367 . S
C2303 C2302 1.367 . S
C2303 C2305 1.433 . S
C2304 C2300 1.350 1_565 S
C2304 C2301 1.463 . S
C2304 N2308 1.427 1_565 S
C2305 H2295 0.929 . S
C2305 C2303 1.433 . S
C2305 N2308 1.384 . S
C2306 H2297 0.929 . S
C2306 C2298 1.378 . S
C2306 C2301 1.350 . S
C2307 H2294 0.929 . S
C2307 C2299 1.433 . S
C2307 N2309 1.384 . S
N2308 C2304 1.427 1_545 S
N2308 C2305 1.384 . S
N2309 C2301 1.427 . S
N2309 C2307 1.384 . S
H2310 C2316 0.930 . S
H2311 C2320 0.930 . S
H2312 C2325 0.929 . S
H2313 C2323 0.929 . S
H2314 C2318 0.929 . S
H2315 C2324 0.929 . S
C2316 H2310 0.930 . S
C2316 C2317 1.367 . S
C2316 C2324 1.378 . S
C2317 C2316 1.367 . S
C2317 C2325 1.433 . S
C2318 H2314 0.929 . S
C2318 C2320 1.378 . S
C2318 C2322 1.350 . S
C2319 C2322 1.463 . S
C2319 C2324 1.350 . S
C2319 N2327 1.427 . S
C2320 H2311 0.930 . S
C2320 C2318 1.378 . S
C2320 C2321 1.367 . S
C2321 C2320 1.367 . S
C2321 C2323 1.433 . S
C2322 C2318 1.350 . S
C2322 C2319 1.463 . S
C2322 N2326 1.427 . S
C2323 H2313 0.929 . S
C2323 C2321 1.433 . S
C2323 N2326 1.384 . S
C2324 H2315 0.929 . S
C2324 C2316 1.378 . S
C2324 C2319 1.350 . S
C2325 H2312 0.929 . S
C2325 C2317 1.433 . S
C2325 N2327 1.384 . S
N2326 C2322 1.427 . S
N2326 C2323 1.384 . S
N2327 C2319 1.427 . S
N2327 C2325 1.384 . S
H2328 C2334 0.930 . S
H2329 C2338 0.930 . S
H2330 C2343 0.929 . S
H2331 C2341 0.929 . S
H2332 C2336 0.929 . S
H2333 C2342 0.929 . S
C2334 H2328 0.930 . S
C2334 C2335 1.367 . S
C2334 C2342 1.378 . S
C2335 C2334 1.367 . S
C2335 C2343 1.433 . S
C2336 H2332 0.929 . S
C2336 C2338 1.378 . S
C2336 C2340 1.350 . S
C2337 C2340 1.463 . S
C2337 C2342 1.350 . S
C2337 N2345 1.427 . S
C2338 H2329 0.930 . S
C2338 C2336 1.378 . S
C2338 C2339 1.367 . S
C2339 C2338 1.367 . S
C2339 C2341 1.433 . S
C2340 C2336 1.350 . S
C2340 C2337 1.463 . S
C2340 N2344 1.427 . S
C2341 H2331 0.929 . S
C2341 C2339 1.433 . S
C2341 N2344 1.384 . S
C2342 H2333 0.929 . S
C2342 C2334 1.378 . S
C2342 C2337 1.350 . S
C2343 H2330 0.929 . S
C2343 C2335 1.433 . S
C2343 N2345 1.384 . S
N2344 C2340 1.427 . S
N2344 C2341 1.384 . S
N2345 C2337 1.427 . S
N2345 C2343 1.384 . S
H2346 C2352 0.930 . S
H2347 C2356 0.930 . S
H2348 C2361 0.929 . S
H2349 C2359 0.929 . S
H2350 C2354 0.929 . S
H2351 C2360 0.929 . S
C2352 H2346 0.930 . S
C2352 C2353 1.367 . S
C2352 C2360 1.378 . S
C2353 C2352 1.367 . S
C2353 C2361 1.433 . S
C2354 H2350 0.929 . S
C2354 C2356 1.378 . S
C2354 C2358 1.350 . S
C2355 C2358 1.463 . S
C2355 C2360 1.350 . S
C2355 N2363 1.427 . S
C2356 H2347 0.930 . S
C2356 C2354 1.378 . S
C2356 C2357 1.367 . S
C2357 C2356 1.367 . S
C2357 C2359 1.433 . S
C2358 C2354 1.350 . S
C2358 C2355 1.463 . S
C2358 N2362 1.427 . S
C2359 H2349 0.929 . S
C2359 C2357 1.433 . S
C2359 N2362 1.384 . S
C2360 H2351 0.929 . S
C2360 C2352 1.378 . S
C2360 C2355 1.350 . S
C2361 H2348 0.929 . S
C2361 C2353 1.433 . S
C2361 N2363 1.384 . S
N2362 C2358 1.427 . S
N2362 C2359 1.384 . S
N2363 C2355 1.427 . S
N2363 C2361 1.384 . S
H2364 C2370 0.930 . S
H2365 C2374 0.930 . S
H2366 C2379 0.929 . S
H2367 C2377 0.929 . S
H2368 C2372 0.929 . S
H2369 C2378 0.929 . S
C2370 H2364 0.930 . S
C2370 C2371 1.367 . S
C2370 C2378 1.378 . S
C2371 C2370 1.367 . S
C2371 C2379 1.433 . S
C2372 H2368 0.929 . S
C2372 C2374 1.378 . S
C2372 C2376 1.350 . S
C2373 C2376 1.463 . S
C2373 C2378 1.350 1_545 S
C2373 N2381 1.427 1_545 S
C2374 H2365 0.930 . S
C2374 C2372 1.378 . S
C2374 C2375 1.367 . S
C2375 C2374 1.367 . S
C2375 C2377 1.433 . S
C2376 C2372 1.350 . S
C2376 C2373 1.463 . S
C2376 N2380 1.427 . S
C2377 H2367 0.929 . S
C2377 C2375 1.433 . S
C2377 N2380 1.384 . S
C2378 H2369 0.929 . S
C2378 C2370 1.378 . S
C2378 C2373 1.350 1_565 S
C2379 H2366 0.929 . S
C2379 C2371 1.433 . S
C2379 N2381 1.384 . S
N2380 C2376 1.427 . S
N2380 C2377 1.384 . S
N2381 C2373 1.427 1_565 S
N2381 C2379 1.384 . S
H2382 C2388 0.930 . S
H2383 C2392 0.930 . S
H2384 C2397 0.929 . S
H2385 C2395 0.929 . S
H2386 C2390 0.927 . S
H2387 C2396 0.929 . S
C2388 H2382 0.930 . S
C2388 C2389 1.367 . S
C2388 C2396 1.378 . S
C2389 C2388 1.367 . S
C2389 C2397 1.433 . S
C2390 H2386 0.927 . S
C2390 C2392 1.378 . S
C2390 C2394 1.350 1_545 S
C2391 C2394 1.463 . S
C2391 C2396 1.350 . S
C2391 N2399 1.427 . S
C2392 H2383 0.930 . S
C2392 C2390 1.378 . S
C2392 C2393 1.367 . S
C2393 C2392 1.367 . S
C2393 C2395 1.433 . S
C2394 C2390 1.350 1_565 S
C2394 C2391 1.463 . S
C2394 N2398 1.427 1_565 S
C2395 H2385 0.929 . S
C2395 C2393 1.433 . S
C2395 N2398 1.384 . S
C2396 H2387 0.929 . S
C2396 C2388 1.378 . S
C2396 C2391 1.350 . S
C2397 H2384 0.929 . S
C2397 C2389 1.433 . S
C2397 N2399 1.384 . S
N2398 C2394 1.427 1_545 S
N2398 C2395 1.384 . S
N2399 C2391 1.427 . S
N2399 C2397 1.384 . S
C679 C588 1.334 . S
C683 C11 1.344 . S
C697 C23 1.413 . S
C701 C219 1.376 . S
C715 C39 1.366 . S
C719 C560 1.363 . S
C733 C51 1.394 . S
C737 C247 1.369 . S
C751 C625 1.386 . S
C755 C61 1.409 . S
C769 C70 1.387 . S
C773 C294 1.395 . S
C787 C89 1.413 . S
C791 C653 1.385 . S
C805 C98 1.377 . S
C809 C266 1.378 . S
C823 C42 1.397 . S
C827 C658 1.387 . S
C841 C5 1.416 . S
C845 C350 1.410 . S
C859 C373 1.358 . S
C863 C14 1.384 . S
C877 C33 1.407 . S
C881 C336 1.397 . S
C895 C79 1.371 . S
C899 C345 1.346 . S
C913 C95 1.349 . S
C917 C667 1.335 . S
C931 C107 1.390 . S
C935 C359 1.362 . S
C949 C67 1.341 . S
C953 C364 1.342 . S
C967 C546 1.352 . S
C971 C112 1.358 . S
C985 C126 1.418 . S
C989 C275 1.388 . S
C1003 C121 1.369 . S
C1007 C616 1.357 . S
C1021 C303 1.373 . S
C1025 C140 1.383 . S
C1039 C308 1.377 . S
C1043 C154 1.384 . S
C1057 C574 1.355 . S
C1061 C177 1.373 . S
C1075 C597 1.338 . S
C1079 C182 1.369 . S
C1093 C569 1.349 . S
C1097 C205 1.377 . S
C1111 C473 1.399 . S
C1115 C221 1.387 . S
C1129 C229 1.365 . S
C1133 C9 1.347 . S
C1147 C249 1.356 . S
C1151 C445 1.370 . S
C1165 C37 1.372 . S
C1169 C257 1.385 . S
C1183 C271 1.413 . S
C1187 C495 1.409 . S
C1201 C84 1.321 . S
C1205 C291 1.310 . S
C1219 C299 1.401 . S
C1223 C523 1.390 . S
C1237 C56 1.326 . S
C1241 C319 1.328 . S
C1255 C543 1.304 . S
C1259 C263 1.305 . S
C1273 C215 1.440 . S
C1277 C145 1.436 . S
C1291 C159 1.365 . S
C1295 C235 1.356 . S
C1309 C131 1.478 . S
C1313 C243 1.483 . S
C1327 C137 1.399 . S
C1331 C285 1.405 . S
C1345 C305 1.345 . S
C1349 C537 1.351 . S
C1363 C151 1.360 . S
C1367 C313 1.366 . S
C1381 C277 1.298 . S
C1385 C165 1.307 . S
C1399 C333 1.306 . S
C1403 C420 1.301 . S
C1417 C341 1.352 . S
C1421 C65 1.323 . S
C1435 C327 1.345 . S
C1439 C501 1.337 . S
C1453 C355 1.393 . S
C1457 C93 1.365 . S
C1471 C375 1.309 . S
C1475 C109 1.315 . S
C1489 C448 1.381 . S
C1493 C383 1.383 . S
C1507 C397 1.434 . S
C1511 C467 1.430 . S
C1525 C417 1.380 . S
C1529 C439 1.381 . S
C1543 C431 1.348 . S
C1547 C252 1.340 . S
C1561 C443 1.406 . S
C1565 C555 1.372 . S
C1579 C224 1.385 . S
C1583 C459 1.392 . S
C1597 C471 1.393 . S
C1601 C583 1.357 . S
C1615 C481 1.389 . S
C1619 C289 1.356 . S
C1633 C630 1.359 . S
C1637 C490 1.357 . S
C1651 C509 1.413 . S
C1655 C317 1.379 . S
C1669 C602 1.382 . S
C1673 C518 1.390 . S
C1687 C322 1.396 . S
C1691 C462 1.395 . S
C1705 C406 1.405 . S
C1709 C425 1.409 . S
C1723 C434 1.386 . S
C1727 C387 1.362 . S
C1741 C401 1.405 . S
C1745 C453 1.444 . S
C1759 C499 1.371 . S
C1763 C392 1.367 . S
C1777 C331 1.334 . S
C1781 C515 1.355 . S
C1795 C527 1.385 . S
C1799 C415 1.358 . S
C1813 C487 1.326 . S
C1817 C378 1.314 . S
C1831 C532 1.367 . S
C1835 C210 1.374 . S
C1849 C191 1.416 . S
C1853 C611 1.383 . S
C1867 C280 1.367 . S
C1871 C541 1.382 . S
C1885 C639 1.342 . S
C1889 C196 1.369 . S
C1903 C644 1.376 . S
C1907 C168 1.383 . S
C1921 C163 1.370 . S
C1925 C238 1.355 . S
C1939 C135 1.402 . S
C1943 C261 1.377 . S
C1957 C233 1.364 . S
C1961 C149 1.384 . S
C1975 C557 1.358 . S
C1979 C53 1.370 . S
C1993 C429 1.355 . S
C1997 C565 1.374 . S
C2011 C585 1.334 . S
C2015 C25 1.350 . S
C2029 C593 1.361 . S
C2033 C457 1.334 . S
C2047 C75 1.396 . S
C2051 C607 1.407 . S
C2065 C627 1.346 . S
C2069 C504 1.357 . S
C2083 C635 1.403 . S
C2087 C103 1.394 . S
C2101 C476 1.304 . S
C2105 C655 1.292 . S
C2119 C599 1.265 . S
C2123 C123 1.265 . S
C2137 C201 1.430 . S
C2141 C551 1.439 . S
C2155 C173 1.365 . S
C2159 C571 1.367 . S
C2173 C579 1.412 . S
C2177 C193 1.415 . S
C2191 C621 1.451 . S
C2195 C187 1.442 . S
C2209 C117 1.346 . S
C2213 C641 1.340 . S
C2227 C207 1.356 . S
C2231 C649 1.361 . S
C2245 C613 1.344 . S
C2249 C179 1.355 . S
C2263 C0 1.304 . S
C2267 C669 1.292 . S
C2281 C403 1.289 . S
C2285 C485 1.274 . S
C2299 C81 1.361 . S
C2303 C663 1.369 . S
C2317 C513 1.381 . S
C2321 C411 1.406 . S
C2335 C529 1.312 . S
C2339 C389 1.300 . S
C2353 C369 1.363 . S
C2357 C28 1.358 . S
C2371 C347 1.345 . S
C2375 C47 1.349 . S
C2389 C19 1.385 . S
C2393 C361 1.376 . S
