# Generated by pormake.
# Topology uoi, (4)-cn, num edge types: 1
# Building blocks:
#     Node 0, Type 0, BuildingBlock: GALJAG_clean_sbu_0, # of connection points: 4
#     Node 1, Type 0, BuildingBlock: GALJAG_clean_sbu_0, # of connection points: 4
#     Node 2, Type 0, BuildingBlock: GALJAG_clean_sbu_0, # of connection points: 4
#     Node 3, Type 0, BuildingBlock: GALJAG_clean_sbu_0, # of connection points: 4
#     Node 4, Type 0, BuildingBlock: GALJAG_clean_sbu_0, # of connection points: 4
#     Node 5, Type 0, BuildingBlock: GALJAG_clean_sbu_0, # of connection points: 4
#     Node 6, Type 0, BuildingBlock: GALJAG_clean_sbu_0, # of connection points: 4
#     Node 7, Type 0, BuildingBlock: GALJAG_clean_sbu_0, # of connection points: 4
#     Node 8, Type 0, BuildingBlock: GALJAG_clean_sbu_0, # of connection points: 4
#     Node 9, Type 0, BuildingBlock: GALJAG_clean_sbu_0, # of connection points: 4
#     Node 10, Type 0, BuildingBlock: GALJAG_clean_sbu_0, # of connection points: 4
#     Node 11, Type 0, BuildingBlock: GALJAG_clean_sbu_0, # of connection points: 4
#     Node 12, Type 0, BuildingBlock: GALJAG_clean_sbu_0, # of connection points: 4
#     Node 13, Type 0, BuildingBlock: GALJAG_clean_sbu_0, # of connection points: 4
#     Node 14, Type 0, BuildingBlock: GALJAG_clean_sbu_0, # of connection points: 4
#     Node 15, Type 0, BuildingBlock: GALJAG_clean_sbu_0, # of connection points: 4
#     Node 16, Type 0, BuildingBlock: GALJAG_clean_sbu_0, # of connection points: 4
#     Node 17, Type 0, BuildingBlock: GALJAG_clean_sbu_0, # of connection points: 4
#     Node 18, Type 0, BuildingBlock: GALJAG_clean_sbu_0, # of connection points: 4
#     Node 19, Type 0, BuildingBlock: GALJAG_clean_sbu_0, # of connection points: 4
#     Node 20, Type 0, BuildingBlock: GALJAG_clean_sbu_0, # of connection points: 4
#     Node 21, Type 0, BuildingBlock: GALJAG_clean_sbu_0, # of connection points: 4
#     Node 22, Type 0, BuildingBlock: GALJAG_clean_sbu_0, # of connection points: 4
#     Node 23, Type 0, BuildingBlock: GALJAG_clean_sbu_0, # of connection points: 4
#     Node 24, Type 0, BuildingBlock: GALJAG_clean_sbu_0, # of connection points: 4
#     Node 25, Type 0, BuildingBlock: GALJAG_clean_sbu_0, # of connection points: 4
#     Node 26, Type 0, BuildingBlock: GALJAG_clean_sbu_0, # of connection points: 4
#     Node 27, Type 0, BuildingBlock: GALJAG_clean_sbu_0, # of connection points: 4
#     Node 28, Type 0, BuildingBlock: GALJAG_clean_sbu_0, # of connection points: 4
#     Node 29, Type 0, BuildingBlock: GALJAG_clean_sbu_0, # of connection points: 4
#     Node 30, Type 0, BuildingBlock: GALJAG_clean_sbu_0, # of connection points: 4
#     Node 31, Type 0, BuildingBlock: GALJAG_clean_sbu_0, # of connection points: 4
#     Edge 32, Type (0, 0), BuildingBlock: AJUNOK_clean_linker_0, # of connection points: 2
#     Edge 33, Type (0, 0), BuildingBlock: AJUNOK_clean_linker_0, # of connection points: 2
#     Edge 34, Type (0, 0), BuildingBlock: AJUNOK_clean_linker_0, # of connection points: 2
#     Edge 35, Type (0, 0), BuildingBlock: AJUNOK_clean_linker_0, # of connection points: 2
#     Edge 36, Type (0, 0), BuildingBlock: AJUNOK_clean_linker_0, # of connection points: 2
#     Edge 37, Type (0, 0), BuildingBlock: AJUNOK_clean_linker_0, # of connection points: 2
#     Edge 38, Type (0, 0), BuildingBlock: AJUNOK_clean_linker_0, # of connection points: 2
#     Edge 39, Type (0, 0), BuildingBlock: AJUNOK_clean_linker_0, # of connection points: 2
#     Edge 40, Type (0, 0), BuildingBlock: AJUNOK_clean_linker_0, # of connection points: 2
#     Edge 41, Type (0, 0), BuildingBlock: AJUNOK_clean_linker_0, # of connection points: 2
#     Edge 42, Type (0, 0), BuildingBlock: AJUNOK_clean_linker_0, # of connection points: 2
#     Edge 43, Type (0, 0), BuildingBlock: AJUNOK_clean_linker_0, # of connection points: 2
#     Edge 44, Type (0, 0), BuildingBlock: AJUNOK_clean_linker_0, # of connection points: 2
#     Edge 45, Type (0, 0), BuildingBlock: AJUNOK_clean_linker_0, # of connection points: 2
#     Edge 46, Type (0, 0), BuildingBlock: AJUNOK_clean_linker_0, # of connection points: 2
#     Edge 47, Type (0, 0), BuildingBlock: AJUNOK_clean_linker_0, # of connection points: 2
#     Edge 48, Type (0, 0), BuildingBlock: AJUNOK_clean_linker_0, # of connection points: 2
#     Edge 49, Type (0, 0), BuildingBlock: AJUNOK_clean_linker_0, # of connection points: 2
#     Edge 50, Type (0, 0), BuildingBlock: AJUNOK_clean_linker_0, # of connection points: 2
#     Edge 51, Type (0, 0), BuildingBlock: AJUNOK_clean_linker_0, # of connection points: 2
#     Edge 52, Type (0, 0), BuildingBlock: AJUNOK_clean_linker_0, # of connection points: 2
#     Edge 53, Type (0, 0), BuildingBlock: AJUNOK_clean_linker_0, # of connection points: 2
#     Edge 54, Type (0, 0), BuildingBlock: AJUNOK_clean_linker_0, # of connection points: 2
#     Edge 55, Type (0, 0), BuildingBlock: AJUNOK_clean_linker_0, # of connection points: 2
#     Edge 56, Type (0, 0), BuildingBlock: AJUNOK_clean_linker_0, # of connection points: 2
#     Edge 57, Type (0, 0), BuildingBlock: AJUNOK_clean_linker_0, # of connection points: 2
#     Edge 58, Type (0, 0), BuildingBlock: AJUNOK_clean_linker_0, # of connection points: 2
#     Edge 59, Type (0, 0), BuildingBlock: AJUNOK_clean_linker_0, # of connection points: 2
#     Edge 60, Type (0, 0), BuildingBlock: AJUNOK_clean_linker_0, # of connection points: 2
#     Edge 61, Type (0, 0), BuildingBlock: AJUNOK_clean_linker_0, # of connection points: 2
#     Edge 62, Type (0, 0), BuildingBlock: AJUNOK_clean_linker_0, # of connection points: 2
#     Edge 63, Type (0, 0), BuildingBlock: AJUNOK_clean_linker_0, # of connection points: 2
#     Edge 64, Type (0, 0), BuildingBlock: AJUNOK_clean_linker_0, # of connection points: 2
#     Edge 65, Type (0, 0), BuildingBlock: AJUNOK_clean_linker_0, # of connection points: 2
#     Edge 66, Type (0, 0), BuildingBlock: AJUNOK_clean_linker_0, # of connection points: 2
#     Edge 67, Type (0, 0), BuildingBlock: AJUNOK_clean_linker_0, # of connection points: 2
#     Edge 68, Type (0, 0), BuildingBlock: AJUNOK_clean_linker_0, # of connection points: 2
#     Edge 69, Type (0, 0), BuildingBlock: AJUNOK_clean_linker_0, # of connection points: 2
#     Edge 70, Type (0, 0), BuildingBlock: AJUNOK_clean_linker_0, # of connection points: 2
#     Edge 71, Type (0, 0), BuildingBlock: AJUNOK_clean_linker_0, # of connection points: 2
#     Edge 72, Type (0, 0), BuildingBlock: AJUNOK_clean_linker_0, # of connection points: 2
#     Edge 73, Type (0, 0), BuildingBlock: AJUNOK_clean_linker_0, # of connection points: 2
#     Edge 74, Type (0, 0), BuildingBlock: AJUNOK_clean_linker_0, # of connection points: 2
#     Edge 75, Type (0, 0), BuildingBlock: AJUNOK_clean_linker_0, # of connection points: 2
#     Edge 76, Type (0, 0), BuildingBlock: AJUNOK_clean_linker_0, # of connection points: 2
#     Edge 77, Type (0, 0), BuildingBlock: AJUNOK_clean_linker_0, # of connection points: 2
#     Edge 78, Type (0, 0), BuildingBlock: AJUNOK_clean_linker_0, # of connection points: 2
#     Edge 79, Type (0, 0), BuildingBlock: AJUNOK_clean_linker_0, # of connection points: 2
#     Edge 80, Type (0, 0), BuildingBlock: AJUNOK_clean_linker_0, # of connection points: 2
#     Edge 81, Type (0, 0), BuildingBlock: AJUNOK_clean_linker_0, # of connection points: 2
#     Edge 82, Type (0, 0), BuildingBlock: AJUNOK_clean_linker_0, # of connection points: 2
#     Edge 83, Type (0, 0), BuildingBlock: AJUNOK_clean_linker_0, # of connection points: 2
#     Edge 84, Type (0, 0), BuildingBlock: AJUNOK_clean_linker_0, # of connection points: 2
#     Edge 85, Type (0, 0), BuildingBlock: AJUNOK_clean_linker_0, # of connection points: 2
#     Edge 86, Type (0, 0), BuildingBlock: AJUNOK_clean_linker_0, # of connection points: 2
#     Edge 87, Type (0, 0), BuildingBlock: AJUNOK_clean_linker_0, # of connection points: 2
#     Edge 88, Type (0, 0), BuildingBlock: AJUNOK_clean_linker_0, # of connection points: 2
#     Edge 89, Type (0, 0), BuildingBlock: AJUNOK_clean_linker_0, # of connection points: 2
#     Edge 90, Type (0, 0), BuildingBlock: AJUNOK_clean_linker_0, # of connection points: 2
#     Edge 91, Type (0, 0), BuildingBlock: AJUNOK_clean_linker_0, # of connection points: 2
#     Edge 92, Type (0, 0), BuildingBlock: AJUNOK_clean_linker_0, # of connection points: 2
#     Edge 93, Type (0, 0), BuildingBlock: AJUNOK_clean_linker_0, # of connection points: 2
#     Edge 94, Type (0, 0), BuildingBlock: AJUNOK_clean_linker_0, # of connection points: 2
#     Edge 95, Type (0, 0), BuildingBlock: AJUNOK_clean_linker_0, # of connection points: 2
# Relax obj value: 0.180
# Max RMSD: 0.417
# Mean RMSD: 0.267
data_MOF--net-uoi--node1-GALJAG_clean_sbu_0--edge1-AJUNOK_clean_linker_0
_symmetry_space_group_name_H-M    P1
_symmetry_Int_Tables_number       1
_symmetry_cell_setting            triclinic
loop_
_symmetry_equiv_pos_as_xyz
'x, y, z'
_cell_length_a     33.129522
_cell_length_b     50.710802
_cell_length_c     17.551387
_cell_angle_alpha  90.155382
_cell_angle_beta   90.038116
_cell_angle_gamma 90.030068
loop_
_atom_site_label
_atom_site_type_symbol
_atom_site_fract_x
_atom_site_fract_y
_atom_site_fract_z
_atom_type_partial_charge
In0 In 0.32593 0.19171 0.26235 0.0
O1 O 0.26862 0.18787 0.19722 0.0
O2 O 0.31379 0.15711 0.18477 0.0
C3 C 0.35934 0.22152 0.36847 0.0
C4 C 0.34595 0.22224 0.14644 0.0
C5 C 0.28976 0.1637 0.36859 0.0
O6 O 0.3252 0.22658 0.33893 0.0
O7 O 0.37776 0.20115 0.34325 0.0
O8 O 0.32532 0.15755 0.34645 0.0
O9 O 0.2739 0.18385 0.33765 0.0
C10 C 0.27903 0.16612 0.16669 0.0
O11 O 0.36678 0.2015 0.15999 0.0
O12 O 0.31874 0.22766 0.19489 0.0
In13 In 0.08301 0.90548 0.60459 0.0
O14 O 0.12819 0.87275 0.57702 0.0
O15 O 0.12385 0.90572 0.50235 0.0
C16 C 0.04623 0.88928 0.73115 0.0
C17 C 0.02745 0.89885 0.49765 0.0
C18 C 0.11093 0.95186 0.66113 0.0
O19 O 0.08309 0.88428 0.7194 0.0
O20 O 0.02826 0.90142 0.67859 0.0
O21 O 0.08256 0.95037 0.61322 0.0
O22 O 0.1264 0.92999 0.67857 0.0
C23 C 0.14064 0.88415 0.51741 0.0
O24 O 0.04294 0.92111 0.51252 0.0
O25 O 0.03801 0.88006 0.54045 0.0
In26 In 0.17255 0.8103 0.75814 0.0
O27 O 0.128 0.80617 0.65817 0.0
O28 O 0.17546 0.77741 0.67339 0.0
C29 C 0.21199 0.83705 0.86392 0.0
C30 C 0.22335 0.83808 0.6758 0.0
C31 C 0.14231 0.77836 0.86726 0.0
O32 O 0.17684 0.84501 0.84391 0.0
O33 O 0.22475 0.81622 0.83094 0.0
O34 O 0.17423 0.77303 0.83011 0.0
O35 O 0.12452 0.79959 0.84737 0.0
C36 C 0.14585 0.78543 0.63383 0.0
O37 O 0.23184 0.81518 0.70101 0.0
O38 O 0.18761 0.8465 0.68907 0.0
In39 In 0.39438 0.09693 0.10275 0.0
O40 O 0.43462 0.08054 0.01163 0.0
O41 O 0.43534 0.12222 0.02759 0.0
C42 C 0.37277 0.05014 0.16147 0.0
C43 C 0.33336 0.11662 0.02084 0.0
C44 C 0.43729 0.11157 0.22511 0.0
O45 O 0.39605 0.05259 0.10495 0.0
O46 O 0.35849 0.07156 0.18683 0.0
O47 O 0.40073 0.11853 0.2183 0.0
O48 O 0.45155 0.09905 0.16932 0.0
C49 C 0.44829 0.1026 0.99039 0.0
O50 O 0.35341 0.13034 0.06781 0.0
O51 O 0.34137 0.09236 0.02103 0.0
In52 In 0.32131 0.81641 0.24034 0.0
O53 O 0.3701 0.81192 0.33478 0.0
O54 O 0.32478 0.78205 0.31739 0.0
C55 C 0.30564 0.85484 0.1339 0.0
C56 C 0.26467 0.83668 0.32994 0.0
C57 C 0.33704 0.77947 0.13278 0.0
O58 O 0.34135 0.84661 0.14725 0.0
O59 O 0.28066 0.84602 0.18122 0.0
O60 O 0.30294 0.78141 0.16605 0.0
O61 O 0.36328 0.79609 0.15464 0.0
C62 C 0.35525 0.78968 0.35507 0.0
O63 O 0.25736 0.81727 0.28542 0.0
O64 O 0.30122 0.84463 0.33096 0.0
In65 In 0.40461 0.9069 0.3849 0.0
O66 O 0.3661 0.87271 0.42804 0.0
O67 O 0.35441 0.91167 0.46923 0.0
C68 C 0.44615 0.8924 0.26206 0.0
C69 C 0.45938 0.90038 0.49323 0.0
C70 C 0.37681 0.95187 0.32483 0.0
O71 O 0.41011 0.88452 0.27129 0.0
O72 O 0.4602 0.90656 0.31494 0.0
O73 O 0.40252 0.95155 0.37812 0.0
O74 O 0.3646 0.92952 0.30254 0.0
C75 C 0.347 0.88739 0.47394 0.0
O76 O 0.44449 0.9227 0.47734 0.0
O77 O 0.44797 0.88139 0.45187 0.0
In78 In 0.16644 0.19367 0.73887 0.0
O79 O 0.11955 0.19478 0.83718 0.0
O80 O 0.16633 0.22423 0.83013 0.0
C81 C 0.19905 0.16627 0.62761 0.0
C82 C 0.22219 0.16713 0.81398 0.0
C83 C 0.14272 0.22988 0.6378 0.0
O84 O 0.16375 0.15999 0.65161 0.0
O85 O 0.21508 0.18666 0.65702 0.0
O86 O 0.17468 0.23183 0.67752 0.0
O87 O 0.12092 0.20973 0.65194 0.0
C88 C 0.13617 0.21528 0.86611 0.0
O89 O 0.22727 0.19071 0.79117 0.0
O90 O 0.18741 0.15719 0.80158 0.0
In91 In 0.09784 0.09649 0.88917 0.0
O92 O 0.14321 0.12925 0.91651 0.0
O93 O 0.14975 0.09268 0.9738 0.0
C94 C 0.05545 0.11332 0.76706 0.0
C95 C 0.04319 0.10484 -5e-05 0.0
C96 C 0.12087 0.05041 0.82493 0.0
O97 O 0.09301 0.11753 0.77319 0.0
O98 O 0.03957 0.1021 0.82356 0.0
O99 O 0.10314 0.05134 0.88874 0.0
O100 O 0.1282 0.07255 0.79554 0.0
C101 C 0.16177 0.11613 0.96682 0.0
O102 O 0.04978 0.08208 0.97254 0.0
O103 O 0.06371 0.12317 0.97056 0.0
In104 In 0.66858 0.81188 0.72796 0.0
O105 O 0.72642 0.8167 0.78944 0.0
O106 O 0.68138 0.84777 0.79915 0.0
C107 C 0.63332 0.77912 0.62986 0.0
C108 C 0.64796 0.78644 0.85305 0.0
C109 C 0.70512 0.8386 0.6196 0.0
O110 O 0.66761 0.77446 0.65937 0.0
O111 O 0.6162 0.80047 0.65094 0.0
O112 O 0.66988 0.84544 0.64185 0.0
O113 O 0.72 0.81806 0.65017 0.0
C114 C 0.71627 0.83897 0.81724 0.0
O115 O 0.62717 0.80638 0.8317 0.0
O116 O 0.67635 0.77951 0.80864 0.0
In117 In 0.9004 0.09833 0.38872 0.0
O118 O 0.95006 0.08509 0.46997 0.0
O119 O 0.93015 0.12509 0.47667 0.0
C120 C 0.8799 0.05048 0.33538 0.0
C121 C 0.83532 0.11717 0.46256 0.0
C122 C 0.93985 0.11464 0.26274 0.0
O123 O 0.90287 0.05367 0.39226 0.0
O124 O 0.86583 0.0715 0.30775 0.0
O125 O 0.90201 0.11689 0.26894 0.0
O126 O 0.95737 0.10567 0.32068 0.0
C127 C 0.9534 0.10742 0.50174 0.0
O128 O 0.85609 0.13102 0.41727 0.0
O129 O 0.84604 0.09336 0.46699 0.0
In130 In 0.82532 0.19187 0.23683 0.0
O131 O 0.87337 0.19569 0.33236 0.0
O132 O 0.82456 0.22364 0.3212 0.0
C133 C 0.78705 0.16516 0.1295 0.0
C134 C 0.77494 0.16683 0.32574 0.0
C135 C 0.84622 0.22879 0.13739 0.0
O136 O 0.82313 0.15856 0.14787 0.0
O137 O 0.77279 0.1853 0.16306 0.0
O138 O 0.81432 0.22927 0.17723 0.0
O139 O 0.86964 0.20923 0.14951 0.0
C140 C 0.8555 0.21631 0.35788 0.0
O141 O 0.76829 0.19008 0.30193 0.0
O142 O 0.80818 0.15617 0.30564 0.0
In143 In 0.59867 0.9078 0.88739 0.0
O144 O 0.56101 0.9211 0.98735 0.0
O145 O 0.55413 0.88131 0.94804 0.0
C146 C 0.62319 0.95323 0.82433 0.0
C147 C 0.65831 0.88622 0.96796 0.0
C148 C 0.55318 0.89486 0.76831 0.0
O149 O 0.60095 0.95255 0.88279 0.0
O150 O 0.63451 0.93101 0.79955 0.0
O151 O 0.5883 0.88512 0.77549 0.0
O152 O 0.54206 0.9099 0.82166 0.0
C153 C 0.544 0.89892 0.99509 0.0
O154 O 0.63984 0.87355 0.91644 0.0
O155 O 0.64911 0.91025 0.97316 0.0
In156 In 0.67248 0.19276 0.76108 0.0
O157 O 0.62378 0.19684 0.66828 0.0
O158 O 0.67306 0.22463 0.67538 0.0
C159 C 0.69881 0.1613 0.86892 0.0
C160 C 0.72382 0.167 0.67322 0.0
C161 C 0.65045 0.22739 0.86715 0.0
O162 O 0.6629 0.15846 0.84305 0.0
O163 O 0.71958 0.17996 0.84094 0.0
O164 O 0.68327 0.22945 0.82998 0.0
O165 O 0.62768 0.20823 0.84808 0.0
C166 C 0.64165 0.21699 0.64045 0.0
O167 O 0.73233 0.18929 0.70286 0.0
O168 O 0.6887 0.15796 0.68726 0.0
In169 In 0.59413 0.0987 0.60162 0.0
O170 O 0.63796 0.13167 0.57207 0.0
O171 O 0.64431 0.09475 0.51535 0.0
C172 C 0.54978 0.11238 0.72327 0.0
C173 C 0.53977 0.10412 0.49018 0.0
C174 C 0.61539 0.0513 0.65773 0.0
O175 O 0.58699 0.11814 0.72074 0.0
O176 O 0.53578 0.10224 0.66343 0.0
O177 O 0.59176 0.05433 0.60208 0.0
O178 O 0.63034 0.07246 0.68357 0.0
C179 C 0.65578 0.11832 0.52105 0.0
O180 O 0.553 0.08208 0.51255 0.0
O181 O 0.55407 0.12394 0.52488 0.0
In182 In 0.8247 0.80898 0.251 0.0
O183 O 0.87485 0.80971 0.1595 0.0
O184 O 0.82838 0.77982 0.15811 0.0
C185 C 0.79538 0.8385 0.362 0.0
C186 C 0.76942 0.83353 0.17015 0.0
C187 C 0.84526 0.77068 0.34722 0.0
O188 O 0.8311 0.84302 0.33725 0.0
O189 O 0.77723 0.81882 0.33343 0.0
O190 O 0.81242 0.77095 0.30982 0.0
O191 O 0.86925 0.78973 0.33393 0.0
C192 C 0.85963 0.78936 0.12719 0.0
O193 O 0.76423 0.81004 0.19352 0.0
O194 O 0.8034 0.84404 0.18533 0.0
In195 In 0.89173 0.90754 0.1017 0.0
O196 O 0.84505 0.87599 0.07765 0.0
O197 O 0.84056 0.91237 0.0175 0.0
C198 C 0.9388 0.89221 0.21714 0.0
C199 C 0.94591 0.89801 0.99298 0.0
C200 C 0.86898 0.95234 0.16936 0.0
O201 O 0.90297 0.88354 0.21092 0.0
O202 O 0.94996 0.90729 0.16434 0.0
O203 O 0.88529 0.95216 0.10421 0.0
O204 O 0.86204 0.92996 0.19783 0.0
C205 C 0.82725 0.88929 0.02669 0.0
O206 O 0.93967 0.92103 0.01849 0.0
O207 O 0.92427 0.88003 0.02118 0.0
In208 In 0.82846 0.69317 0.7644 0.0
O209 O 0.87075 0.69595 0.65994 0.0
O210 O 0.8231 0.72433 0.67884 0.0
C211 C 0.7937 0.66633 0.87449 0.0
C212 C 0.77645 0.66753 0.67988 0.0
C213 C 0.86113 0.72764 0.86025 0.0
O214 O 0.82881 0.65961 0.85095 0.0
O215 O 0.7783 0.68679 0.84454 0.0
O216 O 0.82751 0.73164 0.82742 0.0
O217 O 0.879 0.70611 0.84346 0.0
C218 C 0.85075 0.71578 0.63527 0.0
O219 O 0.76879 0.69007 0.70879 0.0
O220 O 0.81093 0.65755 0.69502 0.0
In221 In 0.59717 0.40729 0.10552 0.0
O222 O 0.63477 0.37309 0.05975 0.0
O223 O 0.64748 0.41169 0.01842 0.0
C224 C 0.55963 0.3906 0.2313 0.0
C225 C 0.54152 0.40075 -0.00151 0.0
C226 C 0.61691 0.4548 0.16237 0.0
O227 O 0.59738 0.38737 0.2234 0.0
O228 O 0.54195 0.40103 0.17557 0.0
O229 O 0.58792 0.45112 0.11668 0.0
O230 O 0.63746 0.43443 0.17743 0.0
C231 C 0.65358 0.38727 0.01241 0.0
O232 O 0.55824 0.42276 0.01161 0.0
O233 O 0.55173 0.38207 0.04175 0.0
In234 In 0.67303 0.31186 0.2652 0.0
O235 O 0.62742 0.30954 0.16729 0.0
O236 O 0.67618 0.28123 0.17567 0.0
C237 C 0.70688 0.33936 0.37464 0.0
C238 C 0.7277 0.33819 0.18765 0.0
C239 C 0.64589 0.27584 0.36252 0.0
O240 O 0.67185 0.34612 0.35047 0.0
O241 O 0.72177 0.31836 0.34679 0.0
O242 O 0.67873 0.2738 0.32562 0.0
O243 O 0.62503 0.29639 0.34815 0.0
C244 C 0.64568 0.28951 0.13934 0.0
O245 O 0.7342 0.31528 0.21446 0.0
O246 O 0.69209 0.34734 0.19684 0.0
In247 In 0.89305 0.5973 0.612 0.0
O248 O 0.85086 0.63079 0.58049 0.0
O249 O 0.84175 0.59349 0.52735 0.0
C250 C 0.93744 0.61178 0.73161 0.0
C251 C 0.94725 0.60675 0.50468 0.0
C252 C 0.8701 0.55177 0.67519 0.0
O253 O 0.90083 0.6189 0.72579 0.0
O254 O 0.95084 0.59818 0.67697 0.0
O255 O 0.89085 0.55252 0.61474 0.0
O256 O 0.85924 0.5739 0.70125 0.0
C257 C 0.83208 0.61747 0.53079 0.0
O258 O 0.93343 0.58383 0.51654 0.0
O259 O 0.93409 0.62483 0.5474 0.0
In260 In 0.82234 0.30958 0.73508 0.0
O261 O 0.86787 0.30868 0.8334 0.0
O262 O 0.8206 0.27936 0.82455 0.0
C263 C 0.79726 0.34043 0.62549 0.0
C264 C 0.76562 0.33563 0.8107 0.0
C265 C 0.85253 0.27452 0.63719 0.0
O266 O 0.8316 0.34488 0.65648 0.0
O267 O 0.7783 0.32003 0.64733 0.0
O268 O 0.8182 0.27152 0.66841 0.0
O269 O 0.87188 0.29515 0.65658 0.0
C270 C 0.85027 0.28856 0.86181 0.0
O271 O 0.75898 0.31304 0.78109 0.0
O272 O 0.80166 0.34423 0.80493 0.0
In273 In 0.89667 0.40604 0.89027 0.0
O274 O 0.9377 0.42046 0.98232 0.0
O275 O 0.94244 0.37992 0.94888 0.0
C276 C 0.8739 0.45279 0.83483 0.0
C277 C 0.83978 0.38686 0.98221 0.0
C278 C 0.93241 0.3913 0.76245 0.0
O279 O 0.89915 0.45041 0.88844 0.0
O280 O 0.8589 0.43141 0.81049 0.0
O281 O 0.89658 0.38404 0.7768 0.0
O282 O 0.94964 0.40487 0.81317 0.0
C283 C 0.95385 0.39817 0.99279 0.0
O284 O 0.85901 0.37223 0.93643 0.0
O285 O 0.84582 0.41121 0.97499 0.0
In286 In 0.66882 0.69502 0.2409 0.0
O287 O 0.72896 0.69266 0.29895 0.0
O288 O 0.6889 0.6591 0.30522 0.0
C289 C 0.64572 0.73089 0.14058 0.0
C290 C 0.63353 0.71842 0.35948 0.0
C291 C 0.7009 0.66722 0.12969 0.0
O292 O 0.67856 0.73251 0.17776 0.0
O293 O 0.62355 0.71102 0.15553 0.0
O294 O 0.66542 0.66135 0.15346 0.0
O295 O 0.71741 0.68741 0.15927 0.0
C296 C 0.72335 0.66899 0.32052 0.0
O297 O 0.61868 0.69699 0.33292 0.0
O298 O 0.66524 0.72666 0.32692 0.0
In299 In 0.60074 0.59815 0.39239 0.0
O300 O 0.5573 0.58431 0.48329 0.0
O301 O 0.56443 0.62593 0.4661 0.0
C302 C 0.62572 0.55214 0.33355 0.0
C303 C 0.6624 0.61938 0.47063 0.0
C304 C 0.55157 0.60961 0.27531 0.0
O305 O 0.60294 0.55363 0.39109 0.0
O306 O 0.63771 0.574 0.30752 0.0
O307 O 0.58712 0.61901 0.27757 0.0
O308 O 0.54196 0.59602 0.33223 0.0
C309 C 0.54726 0.60752 0.50196 0.0
O310 O 0.64474 0.63163 0.41729 0.0
O311 O 0.65088 0.59589 0.47983 0.0
In312 In 0.17242 0.31169 0.23416 0.0
O313 O 0.23048 0.31835 0.29277 0.0
O314 O 0.18611 0.34982 0.29745 0.0
C315 C 0.13928 0.27816 0.1353 0.0
C316 C 0.14431 0.29006 0.36121 0.0
C317 C 0.21435 0.33389 0.12392 0.0
O318 O 0.17065 0.27265 0.17388 0.0
O319 O 0.12349 0.30068 0.14847 0.0
O320 O 0.17979 0.34313 0.14286 0.0
O321 O 0.2256 0.31306 0.15838 0.0
C322 C 0.22165 0.3417 0.31394 0.0
O323 O 0.12539 0.30917 0.32999 0.0
O324 O 0.17586 0.28211 0.32714 0.0
In325 In 0.40405 0.5961 0.88489 0.0
O326 O 0.37022 0.63129 0.93226 0.0
O327 O 0.34413 0.5932 0.94646 0.0
C328 C 0.44461 0.61231 0.76211 0.0
C329 C 0.45437 0.60153 0.00255 0.0
C330 C 0.38271 0.54898 0.8288 0.0
O331 O 0.40724 0.61704 0.76889 0.0
O332 O 0.46051 0.60009 0.81672 0.0
O333 O 0.40916 0.5518 0.88032 0.0
O334 O 0.36643 0.57012 0.80631 0.0
C335 C 0.34291 0.6174 0.962 0.0
O336 O 0.43599 0.58016 0.98855 0.0
O337 O 0.44881 0.6198 0.9551 0.0
In338 In 0.34215 0.69312 0.72648 0.0
O339 O 0.38189 0.70283 0.83211 0.0
O340 O 0.33583 0.72936 0.79262 0.0
C341 C 0.29346 0.66884 0.62813 0.0
C342 C 0.30198 0.66512 0.82681 0.0
C343 C 0.37178 0.72449 0.61916 0.0
O344 O 0.32946 0.66063 0.63902 0.0
O345 O 0.28357 0.68946 0.66506 0.0
O346 O 0.33939 0.72919 0.6551 0.0
O347 O 0.39062 0.70343 0.6381 0.0
C348 C 0.36108 0.72367 0.84432 0.0
O349 O 0.29046 0.68742 0.80236 0.0
O350 O 0.33525 0.65611 0.80024 0.0
In351 In 0.08496 0.40473 0.39166 0.0
O352 O 0.12885 0.37172 0.4177 0.0
O353 O 0.12244 0.40358 0.4971 0.0
C354 C 0.04252 0.39062 0.27047 0.0
C355 C 0.02571 0.39902 0.49072 0.0
C356 C 0.11883 0.44895 0.33364 0.0
O357 O 0.07675 0.38028 0.28267 0.0
O358 O 0.03076 0.40697 0.31988 0.0
O359 O 0.09805 0.44901 0.3939 0.0
O360 O 0.12433 0.42643 0.3048 0.0
C361 C 0.13958 0.38225 0.48006 0.0
O362 O 0.03806 0.42149 0.46958 0.0
O363 O 0.04259 0.37945 0.45944 0.0
In364 In 0.17097 0.68674 0.25763 0.0
O365 O 0.12297 0.69576 0.16359 0.0
O366 O 0.17085 0.72319 0.18682 0.0
C367 C 0.19801 0.65813 0.37233 0.0
C368 C 0.22373 0.66043 0.16809 0.0
C369 C 0.14668 0.72068 0.36503 0.0
O370 O 0.16219 0.65428 0.34679 0.0
O371 O 0.21859 0.67592 0.33946 0.0
O372 O 0.17938 0.72356 0.32779 0.0
O373 O 0.12549 0.70054 0.34707 0.0
C374 C 0.13954 0.71795 0.14789 0.0
O375 O 0.23206 0.68165 0.20371 0.0
O376 O 0.18752 0.65228 0.17657 0.0
In377 In 0.08404 0.59339 0.11494 0.0
O378 O 0.12378 0.62853 0.08364 0.0
O379 O 0.13124 0.59189 0.02481 0.0
C380 C 0.04348 0.60937 0.2369 0.0
C381 C 0.03043 0.60068 0.00397 0.0
C382 C 0.11115 0.54764 0.17473 0.0
O383 O 0.07967 0.61669 0.22651 0.0
O384 O 0.02881 0.59459 0.1859 0.0
O385 O 0.08366 0.54869 0.12482 0.0
O386 O 0.12583 0.56972 0.19347 0.0
C387 C 0.14033 0.61584 0.03003 0.0
O388 O 0.05039 0.57954 0.01005 0.0
O389 O 0.03585 0.6175 0.05596 0.0
In390 In 0.32199 0.31235 0.74671 0.0
O391 O 0.37048 0.30825 0.6525 0.0
O392 O 0.32524 0.27819 0.66828 0.0
C393 C 0.30039 0.34407 0.85873 0.0
C394 C 0.26541 0.3365 0.66492 0.0
C395 C 0.34026 0.27843 0.85722 0.0
O396 O 0.33601 0.34582 0.83067 0.0
O397 O 0.27735 0.32694 0.82908 0.0
O398 O 0.30823 0.27698 0.81736 0.0
O399 O 0.36533 0.29611 0.83708 0.0
C400 C 0.35565 0.28614 0.63113 0.0
O401 O 0.25942 0.31443 0.69741 0.0
O402 O 0.30114 0.3456 0.6706 0.0
In403 In 0.40502 0.40693 0.60209 0.0
O404 O 0.45326 0.42037 0.51959 0.0
O405 O 0.43875 0.37914 0.52502 0.0
C406 C 0.37603 0.45102 0.66474 0.0
C407 C 0.34542 0.38973 0.5168 0.0
C408 C 0.44894 0.39333 0.72216 0.0
O409 O 0.39875 0.45133 0.60677 0.0
O410 O 0.36706 0.42842 0.68978 0.0
O411 O 0.41373 0.38383 0.71377 0.0
O412 O 0.46091 0.40804 0.66903 0.0
C413 C 0.45973 0.39717 0.49546 0.0
O414 O 0.36216 0.37477 0.56513 0.0
O415 O 0.35659 0.4135 0.51636 0.0
C416 C 0.20298 0.14881 0.49547 0.0
C417 C 0.22118 0.15241 0.56685 0.0
C418 C 0.2267 0.14833 0.42923 0.0
C419 C 0.26899 0.15114 0.43311 0.0
H420 H 0.17045 0.14988 0.48981 0.0
H421 H 0.21162 0.14883 0.37444 0.0
S422 S 0.33089 0.15346 0.60861 0.0
N423 N 0.28376 0.15285 0.63919 0.0
N424 N 0.32822 0.15186 0.51467 0.0
C425 C 0.2876 0.15024 0.50474 0.0
C426 C 0.26353 0.15089 0.57196 0.0
C427 C 0.11109 1.00099 0.66485 0.0
C428 C 0.12137 0.97699 0.69978 0.0
C429 C 0.11374 0.02493 0.70463 0.0
C430 C 0.12573 0.02565 0.78146 0.0
H431 H 0.09953 1.0012 0.60709 0.0
H432 H 0.10397 0.0428 0.67634 0.0
S433 S 0.16183 0.96913 0.89586 0.0
N434 N 0.14924 0.95597 0.8129 0.0
N435 N 0.15229 1.001 0.88858 0.0
C436 C 0.13836 1.00212 0.81585 0.0
C437 C 0.13679 0.97776 0.77465 0.0
C438 C 0.27924 0.82986 0.03022 0.0
C439 C 0.28947 0.85502 0.05537 0.0
C440 C 0.25083 0.82585 0.97439 0.0
C441 C 0.23451 0.84619 0.93193 0.0
H442 H 0.29008 0.81285 0.05984 0.0
H443 H 0.24045 0.80636 0.9646 0.0
S444 S 0.25143 0.91722 0.97019 0.0
N445 N 0.27854 0.90212 0.0364 0.0
N446 N 0.23023 0.89384 0.91755 0.0
C447 C 0.24478 0.87215 0.95318 0.0
C448 C 0.2715 0.87662 0.01726 0.0
C449 C 0.38835 0.00237 0.17083 0.0
C450 C 0.36738 0.02438 0.19966 0.0
C451 C 0.38931 0.97852 0.21044 0.0
C452 C 0.36951 0.97582 0.28043 0.0
H453 H 0.40558 0.00377 0.11856 0.0
H454 H 0.40721 0.96243 0.18775 0.0
S455 S 0.30631 0.02588 0.37707 0.0
N456 N 0.32305 0.04093 0.29982 0.0
N457 N 0.32562 0.99584 0.37475 0.0
C458 C 0.34685 0.99701 0.30866 0.0
C459 C 0.34549 0.02139 0.26797 0.0
C460 C 0.79378 0.85307 0.49649 0.0
C461 C 0.7755 0.85288 0.42448 0.0
C462 C 0.76994 0.85237 0.56249 0.0
C463 C 0.72748 0.85171 0.55785 0.0
H464 H 0.82601 0.84999 0.50182 0.0
H465 H 0.78477 0.84926 0.61679 0.0
S466 S 0.6662 0.85936 0.38303 0.0
N467 N 0.71338 0.85853 0.35262 0.0
N468 N 0.66865 0.85726 0.47688 0.0
C469 C 0.70929 0.8563 0.48709 0.0
C470 C 0.7335 0.85692 0.41999 0.0
C471 C 0.84995 0.02263 0.23177 0.0
C472 C 0.8734 0.02452 0.29873 0.0
C473 C 0.84749 0.99892 0.19056 0.0
C474 C 0.86763 0.97631 0.21607 0.0
H475 H 0.83446 0.03977 0.20957 0.0
H476 H 0.8303 0.99837 0.13805 0.0
S477 S 0.93351 0.97065 0.38594 0.0
N478 N 0.91757 1.0015 0.38735 0.0
N479 N 0.912 0.95697 0.31075 0.0
C480 C 0.89026 0.97765 0.28354 0.0
C481 C 0.89334 1.00178 0.3248 0.0
C482 C 0.69655 0.1539 0.00651 0.0
C483 C 0.71456 0.14783 0.93651 0.0
C484 C 0.72016 0.15608 0.07238 0.0
C485 C 0.76233 0.15217 0.07004 0.0
H486 H 0.66553 0.16068 0.00857 0.0
H487 H 0.70595 0.16367 0.12355 0.0
S488 S 0.82032 0.1269 0.90511 0.0
N489 N 0.77411 0.13123 0.87191 0.0
N490 N 0.81876 0.13522 0.99622 0.0
C491 C 0.7791 0.14153 0.0034 0.0
C492 C 0.75496 0.13935 0.93625 0.0
C493 C 0.64909 0.99877 0.79877 0.0
C494 C 0.6255 0.97702 0.77706 0.0
C495 C 0.64719 0.02255 0.75775 0.0
C496 C 0.62118 0.02529 0.69459 0.0
H497 H 0.66841 0.99755 0.84846 0.0
H498 H 0.66527 0.03908 0.77704 0.0
S499 S 0.55242 0.97375 0.61756 0.0
N500 N 0.57553 0.9594 0.68972 0.0
N501 N 0.57126 0.00384 0.61326 0.0
C502 C 0.59799 0.00331 0.67209 0.0
C503 C 0.60027 0.97922 0.71331 0.0
C504 C 0.72952 0.65121 0.93102 0.0
C505 C 0.77188 0.6532 0.93679 0.0
C506 C 0.70511 0.65115 0.99633 0.0
C507 C 0.72269 0.65324 0.06873 0.0
H508 H 0.71505 0.65286 0.87583 0.0
H509 H 0.67274 0.65309 0.98959 0.0
S510 S 0.83191 0.65131 0.11439 0.0
N511 N 0.83022 0.6514 0.02028 0.0
N512 N 0.78445 0.65111 0.14321 0.0
C513 C 0.76489 0.65069 0.07509 0.0
C514 C 0.78966 0.65072 0.00875 0.0
C515 C 0.59169 0.52125 0.24684 0.0
C516 C 0.6267 0.52807 0.2872 0.0
C517 C 0.58969 0.49795 0.2045 0.0
C518 C 0.62245 0.48034 0.20193 0.0
H519 H 0.56539 0.53397 0.2487 0.0
H520 H 0.56165 0.49337 0.17552 0.0
S521 S 0.7219 0.49009 0.29557 0.0
N522 N 0.69558 0.5165 0.31986 0.0
N523 N 0.69175 0.47193 0.2416 0.0
C524 C 0.65809 0.4872 0.24119 0.0
C525 C 0.66025 0.51132 0.2835 0.0
C526 C 0.77289 0.35254 0.42649 0.0
C527 C 0.73046 0.35372 0.43247 0.0
C528 C 0.79736 0.35366 0.49146 0.0
C529 C 0.7798 0.35604 0.56363 0.0
H530 H 0.78687 0.3473 0.3727 0.0
H531 H 0.82901 0.34859 0.48597 0.0
S532 S 0.67226 0.36915 0.60661 0.0
N533 N 0.6733 0.36424 0.51346 0.0
N534 N 0.71955 0.36686 0.63582 0.0
C535 C 0.73857 0.36245 0.5684 0.0
C536 C 0.71357 0.36109 0.50237 0.0
C537 C 0.85621 0.47943 0.72009 0.0
C538 C 0.86639 0.47841 0.79792 0.0
C539 C 0.85617 0.50346 0.68064 0.0
C540 C 0.86474 0.52724 0.71852 0.0
H541 H 0.85049 0.46144 0.68846 0.0
H542 H 0.8503 0.50338 0.6199 0.0
S543 S 0.89024 0.53537 0.92303 0.0
N544 N 0.88353 0.50332 0.91193 0.0
N545 N 0.88183 0.54854 0.83855 0.0
C546 C 0.87267 0.52664 0.79713 0.0
C547 C 0.87384 0.50217 0.83671 0.0
C548 C 0.30499 0.34259 -0.00312 0.0
C549 C 0.28828 0.35489 0.9328 0.0
C550 C 0.28141 0.33782 0.06154 0.0
C551 C 0.24063 0.34568 0.0648 0.0
H552 H 0.33436 0.33324 0.99313 0.0
H553 H 0.29436 0.32598 0.10666 0.0
S554 S 0.18739 0.3861 0.92074 0.0
N555 N 0.232 0.38002 0.88242 0.0
N556 N 0.18788 0.37196 0.00549 0.0
C557 C 0.2258 0.36178 0.00613 0.0
C558 C 0.24976 0.36629 0.93973 0.0
C559 C 0.3966 0.47756 0.77502 0.0
C560 C 0.37111 0.4746 0.71187 0.0
C561 C 0.39849 0.5014 0.81474 0.0
C562 C 0.37485 0.52311 0.79273 0.0
H563 H 0.41673 0.46171 0.79152 0.0
H564 H 0.42 0.50309 0.86102 0.0
S565 S 0.29842 0.52355 0.63761 0.0
N566 N 0.31867 0.4938 0.63317 0.0
N567 N 0.32143 0.53892 0.70862 0.0
C568 C 0.3471 0.51974 0.73245 0.0
C569 C 0.34551 0.49537 0.69156 0.0
C570 C 0.19865 0.66045 0.5114 0.0
C571 C 0.21309 0.648 0.44549 0.0
C572 C 0.2242 0.6651 0.57366 0.0
C573 C 0.26484 0.65688 0.57269 0.0
H574 H 0.16928 0.66966 0.51103 0.0
H575 H 0.21285 0.67709 0.62011 0.0
S576 S 0.31207 0.6149 0.42422 0.0
N577 N 0.2668 0.62178 0.39001 0.0
N578 N 0.31467 0.62943 0.50852 0.0
C579 C 0.27735 0.64042 0.51257 0.0
C580 C 0.25138 0.63616 0.44853 0.0
C581 C 0.11781 0.47441 0.21305 0.0
C582 C 0.12705 0.47347 0.29119 0.0
C583 C 0.11488 0.49855 0.17474 0.0
C584 C 0.12213 0.52256 0.21265 0.0
H585 H 0.10975 0.45655 0.18259 0.0
H586 H 0.10519 0.49847 0.11577 0.0
S587 S 0.15454 0.53018 0.41408 0.0
N588 N 0.148 0.49809 0.40312 0.0
N589 N 0.14416 0.54356 0.33055 0.0
C590 C 0.13512 0.52168 0.28906 0.0
C591 C 0.1371 0.49708 0.32853 0.0
C592 C 0.20355 0.15463 0.00896 0.0
C593 C 0.19316 0.12789 0.01718 0.0
C594 C 0.23179 0.16674 0.05703 0.0
C595 C 0.2515 0.15238 0.11419 0.0
H596 H 0.18991 0.16636 0.96455 0.0
H597 H 0.23845 0.18747 0.04899 0.0
S598 S 0.23607 0.08199 0.16075 0.0
N599 N 0.20519 0.08746 0.08852 0.0
N600 N 0.25919 0.11027 0.17747 0.0
C601 C 0.24218 0.12561 0.12284 0.0
C602 C 0.21277 0.11334 0.07476 0.0
C603 C 0.2427 0.87253 0.41877 0.0
C604 C 0.23259 0.85059 0.37378 0.0
C605 C 0.2183 0.88398 0.48138 0.0
C606 C 0.1755 0.87449 0.47233 0.0
H607 H 0.27204 0.88024 0.40434 0.0
H608 H 0.24617 0.91469 0.58541 0.0
S609 S 0.12882 0.83006 0.32747 0.0
N610 N 0.17779 0.82744 0.31266 0.0
N611 N 0.12423 0.85081 0.39944 0.0
C612 C 0.16364 0.85673 0.41415 0.0
C613 C 0.19226 0.84409 0.36713 0.0
C614 C 0.32269 0.85465 0.57178 0.0
C615 C 0.31706 0.87753 0.52776 0.0
C616 C 0.29314 0.84338 0.62112 0.0
C617 C 0.25376 0.85359 0.63422 0.0
H618 H 0.35127 0.84469 0.56723 0.0
H619 H 0.30163 0.82517 0.64899 0.0
S620 S 0.20289 0.9278 0.51898 0.0
N621 N 0.26388 0.91695 0.48654 0.0
N622 N 0.20126 0.89469 0.60114 0.0
C623 C 0.24468 0.87745 0.6011 0.0
C624 C 0.28145 0.89071 0.53615 0.0
C625 C 0.25016 0.12601 0.87401 0.0
C626 C 0.25416 0.15295 0.85615 0.0
C627 C 0.27632 0.11396 0.92663 0.0
C628 C 0.30705 0.12858 0.96262 0.0
H629 H 0.22555 0.11454 0.85032 0.0
H630 H 0.27134 0.09351 0.94161 0.0
S631 S 0.33911 0.19617 0.91268 0.0
N632 N 0.29755 0.19149 0.86303 0.0
N633 N 0.34617 0.16898 0.96196 0.0
C634 C 0.31407 0.15445 0.93818 0.0
C635 C 0.28789 0.16656 0.88444 0.0
C636 C 0.79175 0.8501 0.97436 0.0
C637 C 0.79679 0.87757 0.97525 0.0
C638 C 0.76614 0.83787 0.92189 0.0
C639 C 0.74326 0.85278 0.87036 0.0
H640 H 0.80765 0.83784 0.0147 0.0
H641 H 0.76346 0.81657 0.92314 0.0
S642 S 0.74347 0.92545 0.85107 0.0
N643 N 0.77614 0.9195 0.92011 0.0
N644 N 0.72628 0.89637 0.8235 0.0
C645 C 0.74706 0.8803 0.87133 0.0
C646 C 0.77417 0.89277 0.92346 0.0
C647 C 0.78112 0.1681 0.58224 0.0
C648 C 0.75258 0.15324 0.62277 0.0
C649 C 0.80641 0.15622 0.52852 0.0
C650 C 0.80534 0.12892 0.51509 0.0
H651 H 0.78298 0.18927 0.58988 0.0
H652 H 0.82684 0.16861 0.49687 0.0
S653 S 0.73702 0.08093 0.60908 0.0
N654 N 0.72505 0.10963 0.64763 0.0
N655 N 0.77358 0.08713 0.54764 0.0
C656 C 0.77756 0.11363 0.55662 0.0
C657 C 0.7511 0.12583 0.61051 0.0
C658 C 0.69522 0.15669 0.47516 0.0
C659 C 0.68629 0.12976 0.4694 0.0
C660 C 0.72399 0.16841 0.42801 0.0
C661 C 0.74521 0.15352 0.37395 0.0
H662 H 0.68013 0.16865 0.5174 0.0
H663 H 0.73057 0.18918 0.4351 0.0
S664 S 0.72942 0.08305 0.32767 0.0
N665 N 0.69821 0.08892 0.39914 0.0
N666 N 0.75312 0.11113 0.31137 0.0
C667 C 0.73591 0.12674 0.36536 0.0
C668 C 0.70611 0.1148 0.4128 0.0
C669 C 0.68564 0.84578 0.02921 0.0
C670 C 0.68554 0.87342 0.02302 0.0
C671 C 0.71143 0.83301 0.0803 0.0
C672 C 0.73839 0.84747 0.12596 0.0
H673 H 0.66618 0.83385 0.99339 0.0
H674 H 0.71161 0.81165 0.08125 0.0
S675 S 0.74598 0.92029 0.13944 0.0
N676 N 0.71161 0.91496 0.07296 0.0
N677 N 0.76031 0.89082 0.1687 0.0
C678 C 0.73687 0.87513 0.12394 0.0
C679 C 0.71038 0.88816 0.07238 0.0
C680 C 0.71307 0.61641 0.57649 0.0
C681 C 0.69216 0.63187 0.52257 0.0
C682 C 0.74084 0.62781 0.62737 0.0
C683 C 0.7478 0.6551 0.62696 0.0
H684 H 0.70826 0.5953 0.57903 0.0
H685 H 0.75659 0.61533 0.66759 0.0
S686 S 0.70391 0.70401 0.4954 0.0
N687 N 0.68234 0.67586 0.47096 0.0
N688 N 0.73359 0.697 0.56761 0.0
C689 C 0.72717 0.67067 0.57413 0.0
C690 C 0.69955 0.65915 0.52168 0.0
C691 C 0.71584 0.38804 0.93284 0.0
C692 C 0.67914 0.37611 0.95185 0.0
C693 C 0.74364 0.37508 0.88564 0.0
C694 C 0.73394 0.3508 0.85115 0.0
H695 H 0.72353 0.40703 0.9568 0.0
H696 H 0.77295 0.38401 0.87695 0.0
S697 S 0.63065 0.3226 0.84158 0.0
N698 N 0.62789 0.34542 0.9087 0.0
N699 N 0.67812 0.32245 0.81246 0.0
C700 C 0.69378 0.34192 0.8568 0.0
C701 C 0.66655 0.35436 0.90861 0.0
C702 C 0.75086 0.37735 0.11322 0.0
C703 C 0.75947 0.35282 0.14661 0.0
C704 C 0.77884 0.38945 0.06477 0.0
C705 C 0.81419 0.37628 0.04307 0.0
H706 H 0.72222 0.38702 0.12339 0.0
H707 H 0.77212 0.40867 0.04154 0.0
S708 S 0.8594 0.31964 0.1441 0.0
N709 N 0.8132 0.32192 0.17891 0.0
N710 N 0.86295 0.34288 0.07871 0.0
C711 C 0.82564 0.35386 0.084 0.0
C712 C 0.79867 0.34251 0.1378 0.0
C713 C 0.78232 0.66932 0.40822 0.0
C714 C 0.7537 0.65482 0.36633 0.0
C715 C 0.80707 0.65704 0.46203 0.0
C716 C 0.80492 0.6297 0.47435 0.0
H717 H 0.78429 0.69053 0.40227 0.0
H718 H 0.82784 0.66914 0.49457 0.0
S719 S 0.7401 0.58222 0.36905 0.0
N720 N 0.72801 0.6113 0.33356 0.0
N721 N 0.77515 0.58802 0.43396 0.0
C722 C 0.77856 0.61466 0.42867 0.0
C723 C 0.75289 0.62727 0.37456 0.0
C724 C 0.32137 0.35921 0.41432 0.0
C725 C 0.31494 0.38047 0.46406 0.0
C726 C 0.29173 0.3482 0.36474 0.0
C727 C 0.25158 0.35761 0.35597 0.0
H728 H 0.35101 0.3507 0.41413 0.0
H729 H 0.30096 0.331 0.33243 0.0
S730 S 0.19928 0.42834 0.48719 0.0
N731 N 0.261 0.41792 0.51544 0.0
N732 N 0.19799 0.39702 0.39916 0.0
C733 C 0.24182 0.38047 0.39453 0.0
C734 C 0.2788 0.39293 0.46059 0.0
C735 C 0.32258 0.64798 0.06558 0.0
C736 C 0.31251 0.62842 0.01283 0.0
C737 C 0.2935 0.6578 0.11542 0.0
C738 C 0.25337 0.64868 0.11318 0.0
H739 H 0.35331 0.65514 0.0698 0.0
H740 H 0.30275 0.67244 0.15695 0.0
S741 S 0.20409 0.64624 0.87445 0.0
N742 N 0.23876 0.63209 0.97514 0.0
N743 N 0.23931 0.63187 0.97561 0.0
C744 C 0.24191 0.6292 0.05643 0.0
C745 C 0.27166 0.61922 0.00767 0.0
C746 C 0.25516 0.61372 0.86055 0.0
C747 C 0.27548 0.65147 0.8802 0.0
C748 C 0.20265 0.60117 0.91187 0.0
C749 C 0.17101 0.62674 0.98107 0.0
H750 H 0.27057 0.60111 0.82021 0.0
H751 H 0.1921 0.58119 0.90356 0.0
S752 S 0.21543 0.70654 0.0357 0.0
N753 N 0.25412 0.69936 0.97578 0.0
N754 N 0.17896 0.68302 0.04356 0.0
C755 C 0.19232 0.66416 -0.0024 0.0
C756 C 0.2437 0.67571 0.94987 0.0
C757 C 0.24202 0.3727 0.57803 0.0
C758 C 0.23299 0.35035 0.62195 0.0
C759 C 0.21676 0.38415 0.51638 0.0
C760 C 0.1749 0.37295 0.52344 0.0
H761 H 0.27139 0.38055 0.59207 0.0
H762 H 0.24234 0.41737 0.41697 0.0
S763 S 0.13109 0.32394 0.65771 0.0
N764 N 0.17985 0.32388 0.67644 0.0
N765 N 0.12546 0.34534 0.58804 0.0
C766 C 0.16425 0.35367 0.5777 0.0
C767 C 0.19333 0.34199 0.62529 0.0
C768 C 0.38185 0.24085 0.0299 0.0
C769 C 0.34647 0.23669 0.07295 0.0
C770 C 0.38042 0.25481 0.9601 0.0
C771 C 0.34341 0.26413 0.93061 0.0
H772 H 0.41054 0.23343 0.05025 0.0
H773 H 0.40807 0.25774 0.92831 0.0
S774 S 0.24279 0.25859 0.02209 0.0
N775 N 0.27382 0.2434 0.0807 0.0
N776 N 0.27136 0.26904 0.95154 0.0
C777 C 0.30828 0.26014 0.97369 0.0
C778 C 0.30975 0.24652 0.04422 0.0
C779 C 0.94738 0.8794 0.35418 0.0
C780 C 0.96404 0.88906 0.28588 0.0
C781 C 0.96851 0.88173 0.42335 0.0
C782 C 0.0063 0.89423 0.42577 0.0
H783 H 0.91721 0.87117 0.35486 0.0
H784 H 0.95453 0.87486 0.47542 0.0
S785 S 0.06634 0.91813 0.26205 0.0
N786 N 0.02351 0.90779 0.22429 0.0
N787 N 0.06202 0.91294 0.35443 0.0
C788 C 0.02438 0.90223 0.35763 0.0
C789 C 0.00354 0.89939 0.28747 0.0
C790 C 0.14769 0.76536 0.42644 0.0
C791 C 0.13661 0.73854 0.42966 0.0
C792 C 0.14642 0.78157 0.49173 0.0
C793 C 0.13491 0.77131 0.56284 0.0
H794 H 0.15926 0.77351 0.37382 0.0
H795 H 0.1575 0.80162 0.48776 0.0
S796 S 0.10094 0.70309 0.60148 0.0
N797 N 0.11028 0.7033 0.509 0.0
N798 N 0.11072 0.73324 0.63217 0.0
C799 C 0.12198 0.74499 0.56603 0.0
C800 C 0.12198 0.72873 0.49926 0.0
C801 C 0.52224 0.13125 0.84595 0.0
C802 C 0.52652 0.11021 0.79439 0.0
C803 C 0.49685 0.1288 0.90997 0.0
C804 C 0.47586 0.1051 0.92462 0.0
H805 H 0.53757 0.14977 0.83564 0.0
H806 H 0.49351 0.14554 0.94793 0.0
S807 S 0.47934 0.04399 0.80786 0.0
N808 N 0.50931 0.06484 0.7634 0.0
N809 N 0.46219 0.0602 0.88267 0.0
C810 C 0.48097 0.08387 0.87405 0.0
C811 C 0.50621 0.08645 0.80922 0.0
C812 C 0.36596 0.72949 0.48012 0.0
C813 C 0.38026 0.73966 0.54932 0.0
C814 C 0.36089 0.74575 0.41647 0.0
C815 C 0.3701 0.77292 0.41891 0.0
H816 H 0.35565 0.70923 0.47677 0.0
H817 H 0.34758 0.73713 0.36578 0.0
S818 S 0.41396 0.80827 0.58485 0.0
N819 N 0.40666 0.77792 0.616 0.0
N820 N 0.39872 0.80852 0.49501 0.0
C821 C 0.38736 0.78296 0.48636 0.0
C822 C 0.39181 0.76634 0.55201 0.0
C823 C 0.47176 0.91065 0.62743 0.0
C824 C 0.48298 0.89638 0.56258 0.0
C825 C 0.49347 0.90846 0.69473 0.0
C826 C 0.52802 0.8924 0.69944 0.0
H827 H 0.44596 0.92379 0.62617 0.0
H828 H 0.48378 0.92041 0.74258 0.0
S829 S 0.56693 0.84841 0.54708 0.0
N830 N 0.52775 0.86337 0.50799 0.0
N831 N 0.5703 0.85998 0.63505 0.0
C832 C 0.5385 0.87688 0.63592 0.0
C833 C 0.51551 0.87869 0.56722 0.0
C834 C 0.11764 0.25653 0.93344 0.0
C835 C 0.12281 0.229 0.93663 0.0
C836 C 0.11878 0.27222 -0.00047 0.0
C837 C 0.1266 0.261 0.0711 0.0
H838 H 0.11547 0.26625 0.87868 0.0
H839 H 0.11716 0.29345 0.99351 0.0
S840 S 0.13601 0.18974 0.11292 0.0
N841 N 0.12942 0.19092 0.01955 0.0
N842 N 0.13515 0.22061 0.14297 0.0
C843 C 0.12894 0.23339 0.07605 0.0
C844 C 0.12608 0.21731 0.009 0.0
C845 C 0.98234 0.09185 0.07525 0.0
C846 C 0.01423 0.10962 0.0627 0.0
C847 C 0.95605 0.09503 0.13726 0.0
C848 C 0.9612 0.11581 0.18946 0.0
H849 H 0.97808 0.07508 0.03772 0.0
H850 H 0.93288 0.0803 0.14678 0.0
S851 S 0.03916 0.16795 0.18213 0.0
N852 N 0.04837 0.14942 0.10652 0.0
N853 N -0.00023 0.15455 0.22474 0.0
C854 C 0.99231 0.13398 0.17703 0.0
C855 C 0.01859 0.13114 0.11303 0.0
C856 C 0.66978 0.75159 0.94197 0.0
C857 C 0.64298 0.77249 0.92673 0.0
C858 C 0.66938 0.73836 0.01117 0.0
C859 C 0.64198 0.74514 0.0684 0.0
H860 H 0.69207 0.74543 0.90047 0.0
H861 H 0.69111 0.72268 0.0202 0.0
S862 S 0.56576 0.79848 0.06074 0.0
N863 N 0.58835 0.79974 0.97676 0.0
N864 N 0.58736 0.77404 0.10787 0.0
C865 C 0.61456 0.76574 0.05518 0.0
C866 C 0.61514 0.77964 0.98403 0.0
C867 C 0.99153 0.12419 0.69906 0.0
C868 C 0.03244 0.11678 0.69564 0.0
C869 C 0.96653 0.12243 0.63462 0.0
C870 C 0.9813 0.11222 0.5656 0.0
H871 H 0.97846 0.13059 0.75258 0.0
H872 H 0.93497 0.12776 0.63994 0.0
S873 S 0.08625 0.09141 0.52538 0.0
N874 N 0.08705 0.10054 0.61584 0.0
N875 N 0.03942 0.09601 0.49584 0.0
C876 C 0.02227 0.10553 0.5606 0.0
C877 C 0.04806 0.10816 0.62541 0.0
C878 C 0.85346 0.27215 0.4977 0.0
C879 C 0.86266 0.26002 0.56705 0.0
C880 C 0.85537 0.25814 0.42932 0.0
C881 C 0.86676 0.23139 0.42721 0.0
H882 H 0.84232 0.29226 0.49672 0.0
H883 H 0.8454 0.268 0.37792 0.0
S884 S 0.90101 0.19198 0.59293 0.0
N885 N 0.88791 0.22075 0.63012 0.0
N886 N 0.89344 0.19446 0.5 0.0
C887 C 0.87974 0.21963 0.49559 0.0
C888 C 0.8769 0.2339 0.56613 0.0
C889 C 0.51227 0.89133 0.19807 0.0
C890 C 0.47016 0.88815 0.19267 0.0
C891 C 0.53602 0.89397 0.13308 0.0
C892 C 0.51856 0.89307 0.0606 0.0
H893 H 0.52683 0.89314 0.25315 0.0
H894 H 0.56812 0.89748 0.1396 0.0
S895 S 0.41078 0.88241 0.01419 0.0
N896 N 0.4124 0.88246 0.10836 0.0
N897 N 0.45785 0.88656 0.98528 0.0
C898 C 0.47713 0.88798 0.05351 0.0
C899 C 0.45264 0.88563 0.12003 0.0
C900 C 0.66644 0.23804 0.44233 0.0
C901 C 0.63704 0.25716 0.4255 0.0
C902 C 0.66568 0.22414 0.51059 0.0
C903 C 0.63428 0.22724 0.56317 0.0
H904 H 0.69235 0.23522 0.40557 0.0
H905 H 0.6917 0.21234 0.52517 0.0
S906 S 0.54695 0.27224 0.54375 0.0
N907 N 0.57366 0.27728 0.46552 0.0
N908 N 0.57124 0.24936 0.59261 0.0
C909 C 0.60274 0.24461 0.54509 0.0
C910 C 0.60418 0.25981 0.47615 0.0
C911 C 0.47163 0.13319 0.33684 0.0
C912 C 0.45851 0.11045 0.29838 0.0
C913 C 0.49739 0.13112 0.40041 0.0
C914 C 0.51042 0.10627 0.42699 0.0
H915 H 0.46332 0.15253 0.316 0.0
H916 H 0.50792 0.14905 0.42761 0.0
S917 S 0.48108 0.041 0.34779 0.0
N918 N 0.45804 0.06265 0.29297 0.0
N919 N 0.50587 0.0586 0.4117 0.0
C920 C 0.49591 0.08351 0.39019 0.0
C921 C 0.47007 0.08567 0.326 0.0
C922 C 0.88006 0.74855 0.06214 0.0
C923 C 0.8759 0.77614 0.0588 0.0
C924 C 0.87959 0.73305 0.99601 0.0
C925 C 0.87389 0.74457 0.92427 0.0
H926 H 0.88026 0.73868 0.11684 0.0
H927 H 0.87978 0.71178 0.00185 0.0
S928 S 0.86922 0.81609 0.88267 0.0
N929 N 0.8731 0.8146 0.97655 0.0
N930 N 0.86919 0.78524 0.85211 0.0
C931 C 0.87302 0.77222 0.91927 0.0
C932 C 0.87495 0.78811 0.98669 0.0
C933 C 0.99015 0.87235 0.80973 0.0
C934 C 0.02678 0.88616 0.8052 0.0
C935 C 0.96509 0.8751 0.87342 0.0
C936 C 0.9753 0.89257 0.93262 0.0
H937 H 0.97997 0.86039 0.7622 0.0
H938 H 0.93641 0.86482 0.87404 0.0
S939 S 0.0693 0.93169 0.94971 0.0
N940 N 0.07364 0.91617 0.8672 0.0
N941 N 0.02558 0.92227 0.98581 0.0
C942 C 0.01266 0.90555 0.93027 0.0
C943 C 0.03873 0.90209 0.86661 0.0
C944 C 0.81441 0.74724 0.4545 0.0
C945 C 0.84963 0.75312 0.41386 0.0
C946 C 0.81604 0.7346 0.5245 0.0
C947 C 0.8527 0.72616 0.55647 0.0
H948 H 0.78518 0.75388 0.43448 0.0
H949 H 0.78804 0.7323 0.55523 0.0
S950 S 0.95356 0.73296 0.46717 0.0
N951 N 0.92256 0.7477 0.4068 0.0
N952 N 0.92521 0.72199 0.53796 0.0
C953 C 0.88824 0.72999 0.51402 0.0
C954 C 0.88679 0.74399 0.4429 0.0
C955 C 0.50837 0.40693 0.79629 0.0
C956 C 0.47326 0.39135 0.79217 0.0
C957 C 0.52972 0.40968 0.86375 0.0
C958 C 0.51761 0.39646 0.92961 0.0
H959 H 0.51897 0.41804 0.74762 0.0
H960 H 0.5561 0.42235 0.86416 0.0
S961 S 0.43103 0.35058 0.94821 0.0
N962 N 0.42883 0.36089 0.85898 0.0
N963 N 0.47077 0.36525 0.98663 0.0
C964 C 0.48417 0.37941 0.92612 0.0
C965 C 0.46151 0.37705 0.85707 0.0
C966 C 0.65708 0.2859 0.00114 0.0
C967 C 0.63588 0.27733 0.0656 0.0
C968 C 0.66047 0.26984 0.93631 0.0
C969 C 0.64152 0.24508 0.93236 0.0
H970 H 0.67381 0.30425 0.00305 0.0
H971 H 0.67956 0.27638 0.89006 0.0
S972 S 0.58361 0.21332 0.08798 0.0
N973 N 0.59703 0.24223 0.12347 0.0
N974 N 0.60106 0.21261 -0.0002 0.0
C975 C 0.61879 0.23672 0.9956 0.0
C976 C 0.61648 0.25277 0.06262 0.0
C977 C 0.95421 0.61123 0.36665 0.0
C978 C 0.97215 0.61248 0.43865 0.0
C979 C 0.97771 0.61273 0.3011 0.0
C980 C 0.01993 0.61518 0.3057 0.0
H981 H 0.92198 0.60801 0.36103 0.0
H982 H 0.96286 0.61047 0.24642 0.0
S983 S 0.08028 0.62274 0.4825 0.0
N984 N 0.03329 0.61923 0.51252 0.0
N985 N 0.07824 0.6216 0.3884 0.0
C986 C 0.03789 0.61855 0.3777 0.0
C987 C 0.0137 0.61719 0.44473 0.0
C988 C 0.88846 0.26317 0.96118 0.0
C989 C 0.85606 0.27956 0.94054 0.0
C990 C 0.88659 0.24778 0.02799 0.0
C991 C 0.85211 0.24827 0.0752 0.0
H992 H 0.9139 0.26082 0.92302 0.0
H993 H 0.91118 0.23438 0.0403 0.0
S994 S 0.76048 0.28936 0.04546 0.0
N995 N 0.79027 0.29679 0.97356 0.0
N996 N 0.78594 0.26799 0.0972 0.0
C997 C 0.82075 0.26592 0.05655 0.0
C998 C 0.82298 0.28157 0.98968 0.0
C999 C 0.95968 0.40165 0.13058 0.0
C1000 C 0.97634 0.39275 0.0621 0.0
C1001 C 0.98029 0.39857 0.19866 0.0
C1002 C 0.0189 0.38708 0.2005 0.0
H1003 H 0.9306 0.41146 0.13145 0.0
H1004 H 0.9665 0.4065 0.24979 0.0
S1005 S 0.07314 0.35735 0.03659 0.0
N1006 N 0.03089 0.36907 -0.00044 0.0
N1007 N 0.0713 0.36419 0.12872 0.0
C1008 C 0.03489 0.37642 0.13287 0.0
C1009 C 0.01316 0.37911 0.06308 0.0
C1010 C 0.62259 0.76102 0.42414 0.0
C1011 C 0.6178 0.73343 0.42584 0.0
C1012 C 0.62321 0.77606 0.49108 0.0
C1013 C 0.6199 0.76402 0.56253 0.0
H1014 H 0.62923 0.77087 0.37085 0.0
H1015 H 0.63008 0.79692 0.48709 0.0
S1016 S 0.60022 0.69321 0.59875 0.0
N1017 N 0.6025 0.69533 0.50483 0.0
N1018 N 0.60754 0.72341 0.63173 0.0
C1019 C 0.61178 0.73682 0.56533 0.0
C1020 C 0.60927 0.72158 0.49649 0.0
C1021 C 0.47855 0.60652 0.55865 0.0
C1022 C 0.51971 0.61278 0.56499 0.0
C1023 C 0.45278 0.60903 0.62168 0.0
C1024 C 0.46798 0.61724 0.6927 0.0
H1025 H 0.46659 0.5989 0.50548 0.0
H1026 H 0.42166 0.60272 0.61624 0.0
S1027 S 0.57321 0.63705 0.73634 0.0
N1028 N 0.57405 0.62887 0.64519 0.0
N1029 N 0.52605 0.63291 0.76442 0.0
C1030 C 0.50874 0.6246 0.69834 0.0
C1031 C 0.53462 0.62249 0.63411 0.0
C1032 C 0.16219 0.26962 0.56317 0.0
C1033 C 0.13528 0.24839 0.57341 0.0
C1034 C 0.16193 0.28478 0.49665 0.0
C1035 C 0.13475 0.27945 0.43731 0.0
H1036 H 0.18527 0.27379 0.60525 0.0
H1037 H 0.18492 0.2998 0.48963 0.0
S1038 S 0.05603 0.22758 0.43597 0.0
N1039 N 0.07863 0.22404 0.51936 0.0
N1040 N 0.07868 0.25262 0.39364 0.0
C1041 C 0.10604 0.25942 0.4479 0.0
C1042 C 0.10615 0.24387 0.51615 0.0
C1043 C 0.53652 0.62315 0.14016 0.0
C1044 C 0.52434 0.61093 0.20834 0.0
C1045 C 0.51315 0.62076 0.07352 0.0
C1046 C 0.47758 0.60558 0.07295 0.0
H1047 H 0.56475 0.63389 0.13764 0.0
H1048 H 0.52372 0.62997 0.02159 0.0
S1049 S 0.42904 0.57339 0.2383 0.0
N1050 N 0.47117 0.5861 0.27256 0.0
N1051 N 0.42868 0.58104 0.14705 0.0
C1052 C 0.46399 0.5946 0.14128 0.0
C1053 C 0.48702 0.59746 0.20912 0.0
C1054 C 0.38216 0.75328 0.04282 0.0
C1055 C 0.34339 0.7625 0.06406 0.0
C1056 C 0.38854 0.73984 0.97285 0.0
C1057 C 0.35682 0.73676 0.92007 0.0
H1058 H 0.40765 0.75655 0.08037 0.0
H1059 H 0.41848 0.73273 0.95899 0.0
S1060 S 0.2504 0.75727 0.94709 0.0
N1061 N 0.27275 0.76527 0.02799 0.0
N1062 N 0.28586 0.7443 0.89393 0.0
C1063 C 0.31839 0.74608 0.94096 0.0
C1064 C 0.31136 0.75779 0.01349 0.0
C1065 C 0.99518 0.37188 0.59356 0.0
C1066 C 0.99667 0.39581 0.55292 0.0
C1067 C 0.97192 0.36961 0.65985 0.0
C1068 C 0.94926 0.39109 0.68604 0.0
H1069 H 0.01368 0.35529 0.57641 0.0
H1070 H 0.97321 0.35154 0.69257 0.0
S1071 S 0.94187 0.45745 0.59979 0.0
N1072 N 0.97243 0.44095 0.54278 0.0
N1073 N 0.9289 0.43654 0.66741 0.0
C1074 C 0.94944 0.41468 0.64479 0.0
C1075 C 0.9731 0.41709 0.57792 0.0
C1076 C 0.11523 0.72409 0.01086 0.0
C1077 C 0.12946 0.73491 0.08026 0.0
C1078 C 0.11799 0.73837 0.9416 0.0
C1079 C 0.13299 0.76442 0.94 0.0
H1080 H 0.10508 0.7038 0.00881 0.0
H1081 H 0.10957 0.7287 0.88882 0.0
S1082 S 0.16983 0.80269 0.10609 0.0
N1083 N 0.15661 0.77395 0.14226 0.0
N1084 N 0.1595 0.80079 0.01422 0.0
C1085 C 0.14429 0.77595 0.00949 0.0
C1086 C 0.14275 0.76131 0.07903 0.0
C1087 C 0.94263 0.61437 0.873 0.0
C1088 C 0.96156 0.61494 0.80131 0.0
C1089 C 0.96529 0.61049 0.93957 0.0
C1090 C 0.00722 0.60689 0.93565 0.0
H1091 H 0.91004 0.61527 0.87729 0.0
H1092 H 0.94983 0.6091 0.99379 0.0
S1093 S 0.07178 0.6122 0.76424 0.0
N1094 N 0.02522 0.61567 0.73201 0.0
N1095 N 0.06753 0.60798 0.8572 0.0
C1096 C 0.02677 0.60942 0.86535 0.0
C1097 C 0.00393 0.61362 0.79796 0.0
C1098 C 0.36687 0.24236 0.57223 0.0
C1099 C 0.37043 0.26999 0.56631 0.0
C1100 C 0.36824 0.22605 0.5077 0.0
C1101 C 0.37295 0.23684 0.43489 0.0
H1102 H 0.36004 0.2334 0.62672 0.0
H1103 H 0.36196 0.20522 0.51421 0.0
S1104 S 0.39271 0.30656 0.38855 0.0
N1105 N 0.38576 0.30673 0.482 0.0
N1106 N 0.3872 0.27574 0.36042 0.0
C1107 C 0.38032 0.26393 0.42849 0.0
C1108 C 0.37954 0.28064 0.49438 0.0
C1109 C 0.47093 0.38354 0.36238 0.0
C1110 C 0.48707 0.39174 0.43228 0.0
C1111 C 0.49565 0.38118 0.29826 0.0
C1112 C 0.53735 0.38635 0.30265 0.0
H1113 H 0.43873 0.38029 0.35635 0.0
H1114 H 0.48169 0.37647 0.24402 0.0
S1115 S 0.5942 0.40553 0.47605 0.0
N1116 N 0.54688 0.40313 0.5049 0.0
N1117 N 0.594 0.39793 0.38439 0.0
C1118 C 0.55417 0.39274 0.37383 0.0
C1119 C 0.52874 0.39574 0.43879 0.0
loop_
_geom_bond_atom_site_label_1
_geom_bond_atom_site_label_2
_geom_bond_distance
_geom_bond_site_symmetry_2
_ccdc_geom_bond_type
In0 O1 2.294 . S
In0 O2 2.326 . S
In0 O6 2.266 . S
In0 O7 2.326 . S
In0 O8 2.266 . S
In0 O9 2.326 . S
In0 O11 2.294 . S
In0 O12 2.326 . S
O1 In0 2.294 . S
O1 C10 1.240 . S
O2 In0 2.326 . S
O2 C10 1.252 . S
C3 O6 1.252 . S
C3 O7 1.260 . S
C4 O11 1.240 . S
C4 O12 1.252 . S
C5 O8 1.252 . S
C5 O9 1.260 . S
O6 In0 2.266 . S
O6 C3 1.252 . S
O7 In0 2.326 . S
O7 C3 1.260 . S
O8 In0 2.266 . S
O8 C5 1.252 . S
O9 In0 2.326 . S
O9 C5 1.260 . S
C10 O1 1.240 . S
C10 O2 1.252 . S
O11 In0 2.294 . S
O11 C4 1.240 . S
O12 In0 2.326 . S
O12 C4 1.252 . S
In13 O14 2.294 . S
In13 O15 2.326 . S
In13 O19 2.266 . S
In13 O20 2.326 . S
In13 O21 2.266 . S
In13 O22 2.326 . S
In13 O24 2.294 . S
In13 O25 2.326 . S
O14 In13 2.294 . S
O14 C23 1.240 . S
O15 In13 2.326 . S
O15 C23 1.252 . S
C16 O19 1.252 . S
C16 O20 1.260 . S
C17 O24 1.240 . S
C17 O25 1.252 . S
C18 O21 1.252 . S
C18 O22 1.260 . S
O19 In13 2.266 . S
O19 C16 1.252 . S
O20 In13 2.326 . S
O20 C16 1.260 . S
O21 In13 2.266 . S
O21 C18 1.252 . S
O22 In13 2.326 . S
O22 C18 1.260 . S
C23 O14 1.240 . S
C23 O15 1.252 . S
O24 In13 2.294 . S
O24 C17 1.240 . S
O25 In13 2.326 . S
O25 C17 1.252 . S
In26 O27 2.294 . S
In26 O28 2.326 . S
In26 O32 2.266 . S
In26 O33 2.326 . S
In26 O34 2.266 . S
In26 O35 2.326 . S
In26 O37 2.294 . S
In26 O38 2.326 . S
O27 In26 2.294 . S
O27 C36 1.240 . S
O28 In26 2.326 . S
O28 C36 1.252 . S
C29 O32 1.252 . S
C29 O33 1.260 . S
C30 O37 1.240 . S
C30 O38 1.252 . S
C31 O34 1.252 . S
C31 O35 1.260 . S
O32 In26 2.266 . S
O32 C29 1.252 . S
O33 In26 2.326 . S
O33 C29 1.260 . S
O34 In26 2.266 . S
O34 C31 1.252 . S
O35 In26 2.326 . S
O35 C31 1.260 . S
C36 O27 1.240 . S
C36 O28 1.252 . S
O37 In26 2.294 . S
O37 C30 1.240 . S
O38 In26 2.326 . S
O38 C30 1.252 . S
In39 O40 2.294 . S
In39 O41 2.326 . S
In39 O45 2.266 . S
In39 O46 2.326 . S
In39 O47 2.266 . S
In39 O48 2.326 . S
In39 O50 2.294 . S
In39 O51 2.326 . S
O40 In39 2.294 . S
O40 C49 1.240 1_554 S
O41 In39 2.326 . S
O41 C49 1.252 1_554 S
C42 O45 1.252 . S
C42 O46 1.260 . S
C43 O50 1.240 . S
C43 O51 1.252 . S
C44 O47 1.252 . S
C44 O48 1.260 . S
O45 In39 2.266 . S
O45 C42 1.252 . S
O46 In39 2.326 . S
O46 C42 1.260 . S
O47 In39 2.266 . S
O47 C44 1.252 . S
O48 In39 2.326 . S
O48 C44 1.260 . S
C49 O40 1.240 1_556 S
C49 O41 1.252 1_556 S
O50 In39 2.294 . S
O50 C43 1.240 . S
O51 In39 2.326 . S
O51 C43 1.252 . S
In52 O53 2.294 . S
In52 O54 2.326 . S
In52 O58 2.266 . S
In52 O59 2.326 . S
In52 O60 2.266 . S
In52 O61 2.326 . S
In52 O63 2.294 . S
In52 O64 2.326 . S
O53 In52 2.294 . S
O53 C62 1.240 . S
O54 In52 2.326 . S
O54 C62 1.252 . S
C55 O58 1.252 . S
C55 O59 1.260 . S
C56 O63 1.240 . S
C56 O64 1.252 . S
C57 O60 1.252 . S
C57 O61 1.260 . S
O58 In52 2.266 . S
O58 C55 1.252 . S
O59 In52 2.326 . S
O59 C55 1.260 . S
O60 In52 2.266 . S
O60 C57 1.252 . S
O61 In52 2.326 . S
O61 C57 1.260 . S
C62 O53 1.240 . S
C62 O54 1.252 . S
O63 In52 2.294 . S
O63 C56 1.240 . S
O64 In52 2.326 . S
O64 C56 1.252 . S
In65 O66 2.294 . S
In65 O67 2.326 . S
In65 O71 2.266 . S
In65 O72 2.326 . S
In65 O73 2.266 . S
In65 O74 2.326 . S
In65 O76 2.294 . S
In65 O77 2.326 . S
O66 In65 2.294 . S
O66 C75 1.240 . S
O67 In65 2.326 . S
O67 C75 1.252 . S
C68 O71 1.252 . S
C68 O72 1.260 . S
C69 O76 1.240 . S
C69 O77 1.252 . S
C70 O73 1.252 . S
C70 O74 1.260 . S
O71 In65 2.266 . S
O71 C68 1.252 . S
O72 In65 2.326 . S
O72 C68 1.260 . S
O73 In65 2.266 . S
O73 C70 1.252 . S
O74 In65 2.326 . S
O74 C70 1.260 . S
C75 O66 1.240 . S
C75 O67 1.252 . S
O76 In65 2.294 . S
O76 C69 1.240 . S
O77 In65 2.326 . S
O77 C69 1.252 . S
In78 O79 2.294 . S
In78 O80 2.326 . S
In78 O84 2.266 . S
In78 O85 2.326 . S
In78 O86 2.266 . S
In78 O87 2.326 . S
In78 O89 2.294 . S
In78 O90 2.326 . S
O79 In78 2.294 . S
O79 C88 1.240 . S
O80 In78 2.326 . S
O80 C88 1.252 . S
C81 O84 1.252 . S
C81 O85 1.260 . S
C82 O89 1.240 . S
C82 O90 1.252 . S
C83 O86 1.252 . S
C83 O87 1.260 . S
O84 In78 2.266 . S
O84 C81 1.252 . S
O85 In78 2.326 . S
O85 C81 1.260 . S
O86 In78 2.266 . S
O86 C83 1.252 . S
O87 In78 2.326 . S
O87 C83 1.260 . S
C88 O79 1.240 . S
C88 O80 1.252 . S
O89 In78 2.294 . S
O89 C82 1.240 . S
O90 In78 2.326 . S
O90 C82 1.252 . S
In91 O92 2.294 . S
In91 O93 2.326 . S
In91 O97 2.266 . S
In91 O98 2.326 . S
In91 O99 2.266 . S
In91 O100 2.326 . S
In91 O102 2.294 . S
In91 O103 2.326 . S
O92 In91 2.294 . S
O92 C101 1.240 . S
O93 In91 2.326 . S
O93 C101 1.252 . S
C94 O97 1.252 . S
C94 O98 1.260 . S
C95 O102 1.240 1_554 S
C95 O103 1.252 1_554 S
C96 O99 1.252 . S
C96 O100 1.260 . S
O97 In91 2.266 . S
O97 C94 1.252 . S
O98 In91 2.326 . S
O98 C94 1.260 . S
O99 In91 2.266 . S
O99 C96 1.252 . S
O100 In91 2.326 . S
O100 C96 1.260 . S
C101 O92 1.240 . S
C101 O93 1.252 . S
O102 In91 2.294 . S
O102 C95 1.240 1_556 S
O103 In91 2.326 . S
O103 C95 1.252 1_556 S
In104 O105 2.294 . S
In104 O106 2.326 . S
In104 O110 2.266 . S
In104 O111 2.326 . S
In104 O112 2.266 . S
In104 O113 2.326 . S
In104 O115 2.294 . S
In104 O116 2.326 . S
O105 In104 2.294 . S
O105 C114 1.240 . S
O106 In104 2.326 . S
O106 C114 1.252 . S
C107 O110 1.252 . S
C107 O111 1.260 . S
C108 O115 1.240 . S
C108 O116 1.252 . S
C109 O112 1.252 . S
C109 O113 1.260 . S
O110 In104 2.266 . S
O110 C107 1.252 . S
O111 In104 2.326 . S
O111 C107 1.260 . S
O112 In104 2.266 . S
O112 C109 1.252 . S
O113 In104 2.326 . S
O113 C109 1.260 . S
C114 O105 1.240 . S
C114 O106 1.252 . S
O115 In104 2.294 . S
O115 C108 1.240 . S
O116 In104 2.326 . S
O116 C108 1.252 . S
In117 O118 2.294 . S
In117 O119 2.326 . S
In117 O123 2.266 . S
In117 O124 2.326 . S
In117 O125 2.266 . S
In117 O126 2.326 . S
In117 O128 2.294 . S
In117 O129 2.326 . S
O118 In117 2.294 . S
O118 C127 1.240 . S
O119 In117 2.326 . S
O119 C127 1.252 . S
C120 O123 1.252 . S
C120 O124 1.260 . S
C121 O128 1.240 . S
C121 O129 1.252 . S
C122 O125 1.252 . S
C122 O126 1.260 . S
O123 In117 2.266 . S
O123 C120 1.252 . S
O124 In117 2.326 . S
O124 C120 1.260 . S
O125 In117 2.266 . S
O125 C122 1.252 . S
O126 In117 2.326 . S
O126 C122 1.260 . S
C127 O118 1.240 . S
C127 O119 1.252 . S
O128 In117 2.294 . S
O128 C121 1.240 . S
O129 In117 2.326 . S
O129 C121 1.252 . S
In130 O131 2.294 . S
In130 O132 2.326 . S
In130 O136 2.266 . S
In130 O137 2.326 . S
In130 O138 2.266 . S
In130 O139 2.326 . S
In130 O141 2.294 . S
In130 O142 2.326 . S
O131 In130 2.294 . S
O131 C140 1.240 . S
O132 In130 2.326 . S
O132 C140 1.252 . S
C133 O136 1.252 . S
C133 O137 1.260 . S
C134 O141 1.240 . S
C134 O142 1.252 . S
C135 O138 1.252 . S
C135 O139 1.260 . S
O136 In130 2.266 . S
O136 C133 1.252 . S
O137 In130 2.326 . S
O137 C133 1.260 . S
O138 In130 2.266 . S
O138 C135 1.252 . S
O139 In130 2.326 . S
O139 C135 1.260 . S
C140 O131 1.240 . S
C140 O132 1.252 . S
O141 In130 2.294 . S
O141 C134 1.240 . S
O142 In130 2.326 . S
O142 C134 1.252 . S
In143 O144 2.294 . S
In143 O145 2.326 . S
In143 O149 2.266 . S
In143 O150 2.326 . S
In143 O151 2.266 . S
In143 O152 2.326 . S
In143 O154 2.294 . S
In143 O155 2.326 . S
O144 In143 2.294 . S
O144 C153 1.240 1_556 S
O145 In143 2.326 . S
O145 C153 1.252 1_556 S
C146 O149 1.252 . S
C146 O150 1.260 . S
C147 O154 1.240 . S
C147 O155 1.252 . S
C148 O151 1.252 . S
C148 O152 1.260 . S
O149 In143 2.266 . S
O149 C146 1.252 . S
O150 In143 2.326 . S
O150 C146 1.260 . S
O151 In143 2.266 . S
O151 C148 1.252 . S
O152 In143 2.326 . S
O152 C148 1.260 . S
C153 O144 1.240 1_554 S
C153 O145 1.252 1_554 S
O154 In143 2.294 . S
O154 C147 1.240 . S
O155 In143 2.326 . S
O155 C147 1.252 . S
In156 O157 2.294 . S
In156 O158 2.326 . S
In156 O162 2.266 . S
In156 O163 2.326 . S
In156 O164 2.266 . S
In156 O165 2.326 . S
In156 O167 2.294 . S
In156 O168 2.326 . S
O157 In156 2.294 . S
O157 C166 1.240 . S
O158 In156 2.326 . S
O158 C166 1.252 . S
C159 O162 1.252 . S
C159 O163 1.260 . S
C160 O167 1.240 . S
C160 O168 1.252 . S
C161 O164 1.252 . S
C161 O165 1.260 . S
O162 In156 2.266 . S
O162 C159 1.252 . S
O163 In156 2.326 . S
O163 C159 1.260 . S
O164 In156 2.266 . S
O164 C161 1.252 . S
O165 In156 2.326 . S
O165 C161 1.260 . S
C166 O157 1.240 . S
C166 O158 1.252 . S
O167 In156 2.294 . S
O167 C160 1.240 . S
O168 In156 2.326 . S
O168 C160 1.252 . S
In169 O170 2.294 . S
In169 O171 2.326 . S
In169 O175 2.266 . S
In169 O176 2.326 . S
In169 O177 2.266 . S
In169 O178 2.326 . S
In169 O180 2.294 . S
In169 O181 2.326 . S
O170 In169 2.294 . S
O170 C179 1.240 . S
O171 In169 2.326 . S
O171 C179 1.252 . S
C172 O175 1.252 . S
C172 O176 1.260 . S
C173 O180 1.240 . S
C173 O181 1.252 . S
C174 O177 1.252 . S
C174 O178 1.260 . S
O175 In169 2.266 . S
O175 C172 1.252 . S
O176 In169 2.326 . S
O176 C172 1.260 . S
O177 In169 2.266 . S
O177 C174 1.252 . S
O178 In169 2.326 . S
O178 C174 1.260 . S
C179 O170 1.240 . S
C179 O171 1.252 . S
O180 In169 2.294 . S
O180 C173 1.240 . S
O181 In169 2.326 . S
O181 C173 1.252 . S
In182 O183 2.294 . S
In182 O184 2.326 . S
In182 O188 2.266 . S
In182 O189 2.326 . S
In182 O190 2.266 . S
In182 O191 2.326 . S
In182 O193 2.294 . S
In182 O194 2.326 . S
O183 In182 2.294 . S
O183 C192 1.240 . S
O184 In182 2.326 . S
O184 C192 1.252 . S
C185 O188 1.252 . S
C185 O189 1.260 . S
C186 O193 1.240 . S
C186 O194 1.252 . S
C187 O190 1.252 . S
C187 O191 1.260 . S
O188 In182 2.266 . S
O188 C185 1.252 . S
O189 In182 2.326 . S
O189 C185 1.260 . S
O190 In182 2.266 . S
O190 C187 1.252 . S
O191 In182 2.326 . S
O191 C187 1.260 . S
C192 O183 1.240 . S
C192 O184 1.252 . S
O193 In182 2.294 . S
O193 C186 1.240 . S
O194 In182 2.326 . S
O194 C186 1.252 . S
In195 O196 2.294 . S
In195 O197 2.326 . S
In195 O201 2.266 . S
In195 O202 2.326 . S
In195 O203 2.266 . S
In195 O204 2.326 . S
In195 O206 2.294 . S
In195 O207 2.326 . S
O196 In195 2.294 . S
O196 C205 1.240 . S
O197 In195 2.326 . S
O197 C205 1.252 . S
C198 O201 1.252 . S
C198 O202 1.260 . S
C199 O206 1.240 1_556 S
C199 O207 1.252 1_556 S
C200 O203 1.252 . S
C200 O204 1.260 . S
O201 In195 2.266 . S
O201 C198 1.252 . S
O202 In195 2.326 . S
O202 C198 1.260 . S
O203 In195 2.266 . S
O203 C200 1.252 . S
O204 In195 2.326 . S
O204 C200 1.260 . S
C205 O196 1.240 . S
C205 O197 1.252 . S
O206 In195 2.294 . S
O206 C199 1.240 1_554 S
O207 In195 2.326 . S
O207 C199 1.252 1_554 S
In208 O209 2.294 . S
In208 O210 2.326 . S
In208 O214 2.266 . S
In208 O215 2.326 . S
In208 O216 2.266 . S
In208 O217 2.326 . S
In208 O219 2.294 . S
In208 O220 2.326 . S
O209 In208 2.294 . S
O209 C218 1.240 . S
O210 In208 2.326 . S
O210 C218 1.252 . S
C211 O214 1.252 . S
C211 O215 1.260 . S
C212 O219 1.240 . S
C212 O220 1.252 . S
C213 O216 1.252 . S
C213 O217 1.260 . S
O214 In208 2.266 . S
O214 C211 1.252 . S
O215 In208 2.326 . S
O215 C211 1.260 . S
O216 In208 2.266 . S
O216 C213 1.252 . S
O217 In208 2.326 . S
O217 C213 1.260 . S
C218 O209 1.240 . S
C218 O210 1.252 . S
O219 In208 2.294 . S
O219 C212 1.240 . S
O220 In208 2.326 . S
O220 C212 1.252 . S
In221 O222 2.294 . S
In221 O223 2.326 . S
In221 O227 2.266 . S
In221 O228 2.326 . S
In221 O229 2.266 . S
In221 O230 2.326 . S
In221 O232 2.294 . S
In221 O233 2.326 . S
O222 In221 2.294 . S
O222 C231 1.240 . S
O223 In221 2.326 . S
O223 C231 1.252 . S
C224 O227 1.252 . S
C224 O228 1.260 . S
C225 O232 1.240 1_556 S
C225 O233 1.252 1_556 S
C226 O229 1.252 . S
C226 O230 1.260 . S
O227 In221 2.266 . S
O227 C224 1.252 . S
O228 In221 2.326 . S
O228 C224 1.260 . S
O229 In221 2.266 . S
O229 C226 1.252 . S
O230 In221 2.326 . S
O230 C226 1.260 . S
C231 O222 1.240 . S
C231 O223 1.252 . S
O232 In221 2.294 . S
O232 C225 1.240 1_554 S
O233 In221 2.326 . S
O233 C225 1.252 1_554 S
In234 O235 2.294 . S
In234 O236 2.326 . S
In234 O240 2.266 . S
In234 O241 2.326 . S
In234 O242 2.266 . S
In234 O243 2.326 . S
In234 O245 2.294 . S
In234 O246 2.326 . S
O235 In234 2.294 . S
O235 C244 1.240 . S
O236 In234 2.326 . S
O236 C244 1.252 . S
C237 O240 1.252 . S
C237 O241 1.260 . S
C238 O245 1.240 . S
C238 O246 1.252 . S
C239 O242 1.252 . S
C239 O243 1.260 . S
O240 In234 2.266 . S
O240 C237 1.252 . S
O241 In234 2.326 . S
O241 C237 1.260 . S
O242 In234 2.266 . S
O242 C239 1.252 . S
O243 In234 2.326 . S
O243 C239 1.260 . S
C244 O235 1.240 . S
C244 O236 1.252 . S
O245 In234 2.294 . S
O245 C238 1.240 . S
O246 In234 2.326 . S
O246 C238 1.252 . S
In247 O248 2.294 . S
In247 O249 2.326 . S
In247 O253 2.266 . S
In247 O254 2.326 . S
In247 O255 2.266 . S
In247 O256 2.326 . S
In247 O258 2.294 . S
In247 O259 2.326 . S
O248 In247 2.294 . S
O248 C257 1.240 . S
O249 In247 2.326 . S
O249 C257 1.252 . S
C250 O253 1.252 . S
C250 O254 1.260 . S
C251 O258 1.240 . S
C251 O259 1.252 . S
C252 O255 1.252 . S
C252 O256 1.260 . S
O253 In247 2.266 . S
O253 C250 1.252 . S
O254 In247 2.326 . S
O254 C250 1.260 . S
O255 In247 2.266 . S
O255 C252 1.252 . S
O256 In247 2.326 . S
O256 C252 1.260 . S
C257 O248 1.240 . S
C257 O249 1.252 . S
O258 In247 2.294 . S
O258 C251 1.240 . S
O259 In247 2.326 . S
O259 C251 1.252 . S
In260 O261 2.294 . S
In260 O262 2.326 . S
In260 O266 2.266 . S
In260 O267 2.326 . S
In260 O268 2.266 . S
In260 O269 2.326 . S
In260 O271 2.294 . S
In260 O272 2.326 . S
O261 In260 2.294 . S
O261 C270 1.240 . S
O262 In260 2.326 . S
O262 C270 1.252 . S
C263 O266 1.252 . S
C263 O267 1.260 . S
C264 O271 1.240 . S
C264 O272 1.252 . S
C265 O268 1.252 . S
C265 O269 1.260 . S
O266 In260 2.266 . S
O266 C263 1.252 . S
O267 In260 2.326 . S
O267 C263 1.260 . S
O268 In260 2.266 . S
O268 C265 1.252 . S
O269 In260 2.326 . S
O269 C265 1.260 . S
C270 O261 1.240 . S
C270 O262 1.252 . S
O271 In260 2.294 . S
O271 C264 1.240 . S
O272 In260 2.326 . S
O272 C264 1.252 . S
In273 O274 2.294 . S
In273 O275 2.326 . S
In273 O279 2.266 . S
In273 O280 2.326 . S
In273 O281 2.266 . S
In273 O282 2.326 . S
In273 O284 2.294 . S
In273 O285 2.326 . S
O274 In273 2.294 . S
O274 C283 1.240 1_556 S
O275 In273 2.326 . S
O275 C283 1.252 1_556 S
C276 O279 1.252 . S
C276 O280 1.260 . S
C277 O284 1.240 . S
C277 O285 1.252 . S
C278 O281 1.252 . S
C278 O282 1.260 . S
O279 In273 2.266 . S
O279 C276 1.252 . S
O280 In273 2.326 . S
O280 C276 1.260 . S
O281 In273 2.266 . S
O281 C278 1.252 . S
O282 In273 2.326 . S
O282 C278 1.260 . S
C283 O274 1.240 1_554 S
C283 O275 1.252 1_554 S
O284 In273 2.294 . S
O284 C277 1.240 . S
O285 In273 2.326 . S
O285 C277 1.252 . S
In286 O287 2.294 . S
In286 O288 2.326 . S
In286 O292 2.266 . S
In286 O293 2.326 . S
In286 O294 2.266 . S
In286 O295 2.326 . S
In286 O297 2.294 . S
In286 O298 2.326 . S
O287 In286 2.294 . S
O287 C296 1.240 . S
O288 In286 2.326 . S
O288 C296 1.252 . S
C289 O292 1.252 . S
C289 O293 1.260 . S
C290 O297 1.240 . S
C290 O298 1.252 . S
C291 O294 1.252 . S
C291 O295 1.260 . S
O292 In286 2.266 . S
O292 C289 1.252 . S
O293 In286 2.326 . S
O293 C289 1.260 . S
O294 In286 2.266 . S
O294 C291 1.252 . S
O295 In286 2.326 . S
O295 C291 1.260 . S
C296 O287 1.240 . S
C296 O288 1.252 . S
O297 In286 2.294 . S
O297 C290 1.240 . S
O298 In286 2.326 . S
O298 C290 1.252 . S
In299 O300 2.294 . S
In299 O301 2.326 . S
In299 O305 2.266 . S
In299 O306 2.326 . S
In299 O307 2.266 . S
In299 O308 2.326 . S
In299 O310 2.294 . S
In299 O311 2.326 . S
O300 In299 2.294 . S
O300 C309 1.240 . S
O301 In299 2.326 . S
O301 C309 1.252 . S
C302 O305 1.252 . S
C302 O306 1.260 . S
C303 O310 1.240 . S
C303 O311 1.252 . S
C304 O307 1.252 . S
C304 O308 1.260 . S
O305 In299 2.266 . S
O305 C302 1.252 . S
O306 In299 2.326 . S
O306 C302 1.260 . S
O307 In299 2.266 . S
O307 C304 1.252 . S
O308 In299 2.326 . S
O308 C304 1.260 . S
C309 O300 1.240 . S
C309 O301 1.252 . S
O310 In299 2.294 . S
O310 C303 1.240 . S
O311 In299 2.326 . S
O311 C303 1.252 . S
In312 O313 2.294 . S
In312 O314 2.326 . S
In312 O318 2.266 . S
In312 O319 2.326 . S
In312 O320 2.266 . S
In312 O321 2.326 . S
In312 O323 2.294 . S
In312 O324 2.326 . S
O313 In312 2.294 . S
O313 C322 1.240 . S
O314 In312 2.326 . S
O314 C322 1.252 . S
C315 O318 1.252 . S
C315 O319 1.260 . S
C316 O323 1.240 . S
C316 O324 1.252 . S
C317 O320 1.252 . S
C317 O321 1.260 . S
O318 In312 2.266 . S
O318 C315 1.252 . S
O319 In312 2.326 . S
O319 C315 1.260 . S
O320 In312 2.266 . S
O320 C317 1.252 . S
O321 In312 2.326 . S
O321 C317 1.260 . S
C322 O313 1.240 . S
C322 O314 1.252 . S
O323 In312 2.294 . S
O323 C316 1.240 . S
O324 In312 2.326 . S
O324 C316 1.252 . S
In325 O326 2.294 . S
In325 O327 2.326 . S
In325 O331 2.266 . S
In325 O332 2.326 . S
In325 O333 2.266 . S
In325 O334 2.326 . S
In325 O336 2.294 . S
In325 O337 2.326 . S
O326 In325 2.294 . S
O326 C335 1.240 . S
O327 In325 2.326 . S
O327 C335 1.252 . S
C328 O331 1.252 . S
C328 O332 1.260 . S
C329 O336 1.240 1_554 S
C329 O337 1.252 1_554 S
C330 O333 1.252 . S
C330 O334 1.260 . S
O331 In325 2.266 . S
O331 C328 1.252 . S
O332 In325 2.326 . S
O332 C328 1.260 . S
O333 In325 2.266 . S
O333 C330 1.252 . S
O334 In325 2.326 . S
O334 C330 1.260 . S
C335 O326 1.240 . S
C335 O327 1.252 . S
O336 In325 2.294 . S
O336 C329 1.240 1_556 S
O337 In325 2.326 . S
O337 C329 1.252 1_556 S
In338 O339 2.294 . S
In338 O340 2.326 . S
In338 O344 2.266 . S
In338 O345 2.326 . S
In338 O346 2.266 . S
In338 O347 2.326 . S
In338 O349 2.294 . S
In338 O350 2.326 . S
O339 In338 2.294 . S
O339 C348 1.240 . S
O340 In338 2.326 . S
O340 C348 1.252 . S
C341 O344 1.252 . S
C341 O345 1.260 . S
C342 O349 1.240 . S
C342 O350 1.252 . S
C343 O346 1.252 . S
C343 O347 1.260 . S
O344 In338 2.266 . S
O344 C341 1.252 . S
O345 In338 2.326 . S
O345 C341 1.260 . S
O346 In338 2.266 . S
O346 C343 1.252 . S
O347 In338 2.326 . S
O347 C343 1.260 . S
C348 O339 1.240 . S
C348 O340 1.252 . S
O349 In338 2.294 . S
O349 C342 1.240 . S
O350 In338 2.326 . S
O350 C342 1.252 . S
In351 O352 2.294 . S
In351 O353 2.326 . S
In351 O357 2.266 . S
In351 O358 2.326 . S
In351 O359 2.266 . S
In351 O360 2.326 . S
In351 O362 2.294 . S
In351 O363 2.326 . S
O352 In351 2.294 . S
O352 C361 1.240 . S
O353 In351 2.326 . S
O353 C361 1.252 . S
C354 O357 1.252 . S
C354 O358 1.260 . S
C355 O362 1.240 . S
C355 O363 1.252 . S
C356 O359 1.252 . S
C356 O360 1.260 . S
O357 In351 2.266 . S
O357 C354 1.252 . S
O358 In351 2.326 . S
O358 C354 1.260 . S
O359 In351 2.266 . S
O359 C356 1.252 . S
O360 In351 2.326 . S
O360 C356 1.260 . S
C361 O352 1.240 . S
C361 O353 1.252 . S
O362 In351 2.294 . S
O362 C355 1.240 . S
O363 In351 2.326 . S
O363 C355 1.252 . S
In364 O365 2.294 . S
In364 O366 2.326 . S
In364 O370 2.266 . S
In364 O371 2.326 . S
In364 O372 2.266 . S
In364 O373 2.326 . S
In364 O375 2.294 . S
In364 O376 2.326 . S
O365 In364 2.294 . S
O365 C374 1.240 . S
O366 In364 2.326 . S
O366 C374 1.252 . S
C367 O370 1.252 . S
C367 O371 1.260 . S
C368 O375 1.240 . S
C368 O376 1.252 . S
C369 O372 1.252 . S
C369 O373 1.260 . S
O370 In364 2.266 . S
O370 C367 1.252 . S
O371 In364 2.326 . S
O371 C367 1.260 . S
O372 In364 2.266 . S
O372 C369 1.252 . S
O373 In364 2.326 . S
O373 C369 1.260 . S
C374 O365 1.240 . S
C374 O366 1.252 . S
O375 In364 2.294 . S
O375 C368 1.240 . S
O376 In364 2.326 . S
O376 C368 1.252 . S
In377 O378 2.294 . S
In377 O379 2.326 . S
In377 O383 2.266 . S
In377 O384 2.326 . S
In377 O385 2.266 . S
In377 O386 2.326 . S
In377 O388 2.294 . S
In377 O389 2.326 . S
O378 In377 2.294 . S
O378 C387 1.240 . S
O379 In377 2.326 . S
O379 C387 1.252 . S
C380 O383 1.252 . S
C380 O384 1.260 . S
C381 O388 1.240 1_556 S
C381 O389 1.252 1_556 S
C382 O385 1.252 . S
C382 O386 1.260 . S
O383 In377 2.266 . S
O383 C380 1.252 . S
O384 In377 2.326 . S
O384 C380 1.260 . S
O385 In377 2.266 . S
O385 C382 1.252 . S
O386 In377 2.326 . S
O386 C382 1.260 . S
C387 O378 1.240 . S
C387 O379 1.252 . S
O388 In377 2.294 . S
O388 C381 1.240 1_554 S
O389 In377 2.326 . S
O389 C381 1.252 1_554 S
In390 O391 2.294 . S
In390 O392 2.326 . S
In390 O396 2.266 . S
In390 O397 2.326 . S
In390 O398 2.266 . S
In390 O399 2.326 . S
In390 O401 2.294 . S
In390 O402 2.326 . S
O391 In390 2.294 . S
O391 C400 1.240 . S
O392 In390 2.326 . S
O392 C400 1.252 . S
C393 O396 1.252 . S
C393 O397 1.260 . S
C394 O401 1.240 . S
C394 O402 1.252 . S
C395 O398 1.252 . S
C395 O399 1.260 . S
O396 In390 2.266 . S
O396 C393 1.252 . S
O397 In390 2.326 . S
O397 C393 1.260 . S
O398 In390 2.266 . S
O398 C395 1.252 . S
O399 In390 2.326 . S
O399 C395 1.260 . S
C400 O391 1.240 . S
C400 O392 1.252 . S
O401 In390 2.294 . S
O401 C394 1.240 . S
O402 In390 2.326 . S
O402 C394 1.252 . S
In403 O404 2.294 . S
In403 O405 2.326 . S
In403 O409 2.266 . S
In403 O410 2.326 . S
In403 O411 2.266 . S
In403 O412 2.326 . S
In403 O414 2.294 . S
In403 O415 2.326 . S
O404 In403 2.294 . S
O404 C413 1.240 . S
O405 In403 2.326 . S
O405 C413 1.252 . S
C406 O409 1.252 . S
C406 O410 1.260 . S
C407 O414 1.240 . S
C407 O415 1.252 . S
C408 O411 1.252 . S
C408 O412 1.260 . S
O409 In403 2.266 . S
O409 C406 1.252 . S
O410 In403 2.326 . S
O410 C406 1.260 . S
O411 In403 2.266 . S
O411 C408 1.252 . S
O412 In403 2.326 . S
O412 C408 1.260 . S
C413 O404 1.240 . S
C413 O405 1.252 . S
O414 In403 2.294 . S
O414 C407 1.240 . S
O415 In403 2.326 . S
O415 C407 1.252 . S
C416 C417 1.369 . S
C416 C418 1.419 . S
C416 H420 0.930 . S
C417 C416 1.369 . S
C417 C426 1.429 . S
C418 C416 1.419 . S
C418 C419 1.363 . S
C418 H421 0.929 . S
C419 C418 1.363 . S
C419 C425 1.428 . S
H420 C416 0.930 . S
H421 C418 0.929 . S
S422 N423 1.613 . S
S422 N424 1.610 . S
N423 S422 1.613 . S
N423 C426 1.350 . S
N424 S422 1.610 . S
N424 C425 1.351 . S
C425 C419 1.428 . S
C425 N424 1.351 . S
C425 C426 1.434 . S
C426 C417 1.429 . S
C426 N423 1.350 . S
C426 C425 1.434 . S
C427 C428 1.369 . S
C427 C429 1.419 1_565 S
C427 H431 0.930 . S
C428 C427 1.369 . S
C428 C437 1.429 . S
C429 C427 1.419 1_545 S
C429 C430 1.363 . S
C429 H432 0.929 . S
C430 C429 1.363 . S
C430 C436 1.428 . S
H431 C427 0.930 . S
H432 C429 0.929 . S
S433 N434 1.613 . S
S433 N435 1.610 1_565 S
N434 S433 1.613 . S
N434 C437 1.350 . S
N435 S433 1.610 1_545 S
N435 C436 1.351 . S
C436 C430 1.428 . S
C436 N435 1.351 . S
C436 C437 1.434 1_545 S
C437 C428 1.429 . S
C437 N434 1.350 . S
C437 C436 1.434 1_565 S
C438 C439 1.369 . S
C438 C440 1.419 1_554 S
C438 H442 0.930 . S
C439 C438 1.369 . S
C439 C448 1.429 . S
C440 C438 1.419 1_556 S
C440 C441 1.363 . S
C440 H443 0.929 . S
C441 C440 1.363 . S
C441 C447 1.428 . S
H442 C438 0.930 . S
H443 C440 0.929 . S
S444 N445 1.613 1_556 S
S444 N446 1.610 . S
N445 S444 1.613 1_554 S
N445 C448 1.350 . S
N446 S444 1.610 . S
N446 C447 1.351 . S
C447 C441 1.428 . S
C447 N446 1.351 . S
C447 C448 1.434 1_556 S
C448 C439 1.429 . S
C448 N445 1.350 . S
C448 C447 1.434 1_554 S
C449 C450 1.369 . S
C449 C451 1.419 1_545 S
C449 H453 0.930 . S
C450 C449 1.369 . S
C450 C459 1.429 . S
C451 C449 1.419 1_565 S
C451 C452 1.363 . S
C451 H454 0.929 . S
C452 C451 1.363 . S
C452 C458 1.428 . S
H453 C449 0.930 . S
H454 C451 0.929 . S
S455 N456 1.613 . S
S455 N457 1.610 1_545 S
N456 S455 1.613 . S
N456 C459 1.350 . S
N457 S455 1.610 1_565 S
N457 C458 1.351 . S
C458 C452 1.428 . S
C458 N457 1.351 . S
C458 C459 1.434 1_565 S
C459 C450 1.429 . S
C459 N456 1.350 . S
C459 C458 1.434 1_545 S
C460 C461 1.369 . S
C460 C462 1.419 . S
C460 H464 0.930 . S
C461 C460 1.369 . S
C461 C470 1.429 . S
C462 C460 1.419 . S
C462 C463 1.363 . S
C462 H465 0.929 . S
C463 C462 1.363 . S
C463 C469 1.428 . S
H464 C460 0.930 . S
H465 C462 0.929 . S
S466 N467 1.613 . S
S466 N468 1.610 . S
N467 S466 1.613 . S
N467 C470 1.350 . S
N468 S466 1.610 . S
N468 C469 1.351 . S
C469 C463 1.428 . S
C469 N468 1.351 . S
C469 C470 1.434 . S
C470 C461 1.429 . S
C470 N467 1.350 . S
C470 C469 1.434 . S
C471 C472 1.369 . S
C471 C473 1.419 1_545 S
C471 H475 0.930 . S
C472 C471 1.369 . S
C472 C481 1.429 . S
C473 C471 1.419 1_565 S
C473 C474 1.363 . S
C473 H476 0.929 . S
C474 C473 1.363 . S
C474 C480 1.428 . S
H475 C471 0.930 . S
H476 C473 0.929 . S
S477 N478 1.613 1_565 S
S477 N479 1.610 . S
N478 S477 1.613 1_545 S
N478 C481 1.350 . S
N479 S477 1.610 . S
N479 C480 1.351 . S
C480 C474 1.428 . S
C480 N479 1.351 . S
C480 C481 1.434 1_565 S
C481 C472 1.429 . S
C481 N478 1.350 . S
C481 C480 1.434 1_545 S
C482 C483 1.369 1_554 S
C482 C484 1.419 . S
C482 H486 0.930 . S
C483 C482 1.369 1_556 S
C483 C492 1.429 . S
C484 C482 1.419 . S
C484 C485 1.363 . S
C484 H487 0.929 . S
C485 C484 1.363 . S
C485 C491 1.428 1_554 S
H486 C482 0.930 . S
H487 C484 0.929 . S
S488 N489 1.613 . S
S488 N490 1.610 . S
N489 S488 1.613 . S
N489 C492 1.350 . S
N490 S488 1.610 . S
N490 C491 1.351 . S
C491 C485 1.428 1_556 S
C491 N490 1.351 . S
C491 C492 1.434 . S
C492 C483 1.429 . S
C492 N489 1.350 . S
C492 C491 1.434 . S
C493 C494 1.369 . S
C493 C495 1.419 1_565 S
C493 H497 0.930 . S
C494 C493 1.369 . S
C494 C503 1.429 . S
C495 C493 1.419 1_545 S
C495 C496 1.363 . S
C495 H498 0.929 . S
C496 C495 1.363 . S
C496 C502 1.428 . S
H497 C493 0.930 . S
H498 C495 0.929 . S
S499 N500 1.613 . S
S499 N501 1.610 1_565 S
N500 S499 1.613 . S
N500 C503 1.350 . S
N501 S499 1.610 1_545 S
N501 C502 1.351 . S
C502 C496 1.428 . S
C502 N501 1.351 . S
C502 C503 1.434 1_545 S
C503 C494 1.429 . S
C503 N500 1.350 . S
C503 C502 1.434 1_565 S
C504 C505 1.369 . S
C504 C506 1.419 . S
C504 H508 0.930 . S
C505 C504 1.369 . S
C505 C514 1.429 1_556 S
C506 C504 1.419 . S
C506 C507 1.363 1_556 S
C506 H509 0.929 . S
C507 C506 1.363 1_554 S
C507 C513 1.428 . S
H508 C504 0.930 . S
H509 C506 0.929 . S
S510 N511 1.613 . S
S510 N512 1.610 . S
N511 S510 1.613 . S
N511 C514 1.350 . S
N512 S510 1.610 . S
N512 C513 1.351 . S
C513 C507 1.428 . S
C513 N512 1.351 . S
C513 C514 1.434 . S
C514 C505 1.429 1_554 S
C514 N511 1.350 . S
C514 C513 1.434 . S
C515 C516 1.369 . S
C515 C517 1.419 . S
C515 H519 0.930 . S
C516 C515 1.369 . S
C516 C525 1.429 . S
C517 C515 1.419 . S
C517 C518 1.363 . S
C517 H520 0.929 . S
C518 C517 1.363 . S
C518 C524 1.428 . S
H519 C515 0.930 . S
H520 C517 0.929 . S
S521 N522 1.613 . S
S521 N523 1.610 . S
N522 S521 1.613 . S
N522 C525 1.350 . S
N523 S521 1.610 . S
N523 C524 1.351 . S
C524 C518 1.428 . S
C524 N523 1.351 . S
C524 C525 1.434 . S
C525 C516 1.429 . S
C525 N522 1.350 . S
C525 C524 1.434 . S
C526 C527 1.369 . S
C526 C528 1.419 . S
C526 H530 0.930 . S
C527 C526 1.369 . S
C527 C536 1.429 . S
C528 C526 1.419 . S
C528 C529 1.363 . S
C528 H531 0.929 . S
C529 C528 1.363 . S
C529 C535 1.428 . S
H530 C526 0.930 . S
H531 C528 0.929 . S
S532 N533 1.613 . S
S532 N534 1.610 . S
N533 S532 1.613 . S
N533 C536 1.350 . S
N534 S532 1.610 . S
N534 C535 1.351 . S
C535 C529 1.428 . S
C535 N534 1.351 . S
C535 C536 1.434 . S
C536 C527 1.429 . S
C536 N533 1.350 . S
C536 C535 1.434 . S
C537 C538 1.369 . S
C537 C539 1.419 . S
C537 H541 0.930 . S
C538 C537 1.369 . S
C538 C547 1.429 . S
C539 C537 1.419 . S
C539 C540 1.363 . S
C539 H542 0.929 . S
C540 C539 1.363 . S
C540 C546 1.428 . S
H541 C537 0.930 . S
H542 C539 0.929 . S
S543 N544 1.613 . S
S543 N545 1.610 . S
N544 S543 1.613 . S
N544 C547 1.350 . S
N545 S543 1.610 . S
N545 C546 1.351 . S
C546 C540 1.428 . S
C546 N545 1.351 . S
C546 C547 1.434 . S
C547 C538 1.429 . S
C547 N544 1.350 . S
C547 C546 1.434 . S
C548 C549 1.369 1_554 S
C548 C550 1.419 . S
C548 H552 0.930 . S
C549 C548 1.369 1_556 S
C549 C558 1.429 . S
C550 C548 1.419 . S
C550 C551 1.363 . S
C550 H553 0.929 . S
C551 C550 1.363 . S
C551 C557 1.428 1_554 S
H552 C548 0.930 . S
H553 C550 0.929 . S
S554 N555 1.613 . S
S554 N556 1.610 . S
N555 S554 1.613 . S
N555 C558 1.350 . S
N556 S554 1.610 . S
N556 C557 1.351 . S
C557 C551 1.428 1_556 S
C557 N556 1.351 . S
C557 C558 1.434 . S
C558 C549 1.429 . S
C558 N555 1.350 . S
C558 C557 1.434 . S
C559 C560 1.369 . S
C559 C561 1.419 . S
C559 H563 0.930 . S
C560 C559 1.369 . S
C560 C569 1.429 . S
C561 C559 1.419 . S
C561 C562 1.363 . S
C561 H564 0.929 . S
C562 C561 1.363 . S
C562 C568 1.428 . S
H563 C559 0.930 . S
H564 C561 0.929 . S
S565 N566 1.613 . S
S565 N567 1.610 . S
N566 S565 1.613 . S
N566 C569 1.350 . S
N567 S565 1.610 . S
N567 C568 1.351 . S
C568 C562 1.428 . S
C568 N567 1.351 . S
C568 C569 1.434 . S
C569 C560 1.429 . S
C569 N566 1.350 . S
C569 C568 1.434 . S
C570 C571 1.369 . S
C570 C572 1.419 . S
C570 H574 0.930 . S
C571 C570 1.369 . S
C571 C580 1.429 . S
C572 C570 1.419 . S
C572 C573 1.363 . S
C572 H575 0.929 . S
C573 C572 1.363 . S
C573 C579 1.428 . S
H574 C570 0.930 . S
H575 C572 0.929 . S
S576 N577 1.613 . S
S576 N578 1.610 . S
N577 S576 1.613 . S
N577 C580 1.350 . S
N578 S576 1.610 . S
N578 C579 1.351 . S
C579 C573 1.428 . S
C579 N578 1.351 . S
C579 C580 1.434 . S
C580 C571 1.429 . S
C580 N577 1.350 . S
C580 C579 1.434 . S
C581 C582 1.369 . S
C581 C583 1.419 . S
C581 H585 0.930 . S
C582 C581 1.369 . S
C582 C591 1.429 . S
C583 C581 1.419 . S
C583 C584 1.363 . S
C583 H586 0.929 . S
C584 C583 1.363 . S
C584 C590 1.428 . S
H585 C581 0.930 . S
H586 C583 0.929 . S
S587 N588 1.613 . S
S587 N589 1.610 . S
N588 S587 1.613 . S
N588 C591 1.350 . S
N589 S587 1.610 . S
N589 C590 1.351 . S
C590 C584 1.428 . S
C590 N589 1.351 . S
C590 C591 1.434 . S
C591 C582 1.429 . S
C591 N588 1.350 . S
C591 C590 1.434 . S
C592 C593 1.369 . S
C592 C594 1.419 1_556 S
C592 H596 0.930 . S
C593 C592 1.369 . S
C593 C602 1.429 1_556 S
C594 C592 1.419 1_554 S
C594 C595 1.363 . S
C594 H597 0.929 . S
C595 C594 1.363 . S
C595 C601 1.428 . S
H596 C592 0.930 . S
H597 C594 0.929 . S
S598 N599 1.613 . S
S598 N600 1.610 . S
N599 S598 1.613 . S
N599 C602 1.350 . S
N600 S598 1.610 . S
N600 C601 1.351 . S
C601 C595 1.428 . S
C601 N600 1.351 . S
C601 C602 1.434 . S
C602 C593 1.429 1_554 S
C602 N599 1.350 . S
C602 C601 1.434 . S
C603 C604 1.369 . S
C603 C605 1.419 . S
C603 H607 0.930 . S
C604 C603 1.369 . S
C604 C613 1.429 . S
C605 C603 1.419 . S
C605 C606 1.363 . S
C605 H608 0.929 . S
C606 C605 1.363 . S
C606 C612 1.428 . S
H607 C603 0.930 . S
H608 C605 0.929 . S
S609 N610 1.613 . S
S609 N611 1.610 . S
N610 S609 1.613 . S
N610 C613 1.350 . S
N611 S609 1.610 . S
N611 C612 1.351 . S
C612 C606 1.428 . S
C612 N611 1.351 . S
C612 C613 1.434 . S
C613 C604 1.429 . S
C613 N610 1.350 . S
C613 C612 1.434 . S
C614 C615 1.369 . S
C614 C616 1.419 . S
C614 H618 0.930 . S
C615 C614 1.369 . S
C615 C624 1.429 . S
C616 C614 1.419 . S
C616 C617 1.363 . S
C616 H619 0.929 . S
C617 C616 1.363 . S
C617 C623 1.428 . S
H618 C614 0.930 . S
H619 C616 0.929 . S
S620 N621 1.613 . S
S620 N622 1.610 . S
N621 S620 1.613 . S
N621 C624 1.350 . S
N622 S620 1.610 . S
N622 C623 1.351 . S
C623 C617 1.428 . S
C623 N622 1.351 . S
C623 C624 1.434 . S
C624 C615 1.429 . S
C624 N621 1.350 . S
C624 C623 1.434 . S
C625 C626 1.369 . S
C625 C627 1.419 . S
C625 H629 0.930 . S
C626 C625 1.369 . S
C626 C635 1.429 . S
C627 C625 1.419 . S
C627 C628 1.363 1_556 S
C627 H630 0.929 . S
C628 C627 1.363 1_554 S
C628 C634 1.428 . S
H629 C625 0.930 . S
H630 C627 0.929 . S
S631 N632 1.613 1_554 S
S631 N633 1.610 . S
N632 S631 1.613 1_556 S
N632 C635 1.350 . S
N633 S631 1.610 . S
N633 C634 1.351 . S
C634 C628 1.428 . S
C634 N633 1.351 . S
C634 C635 1.434 1_554 S
C635 C626 1.429 . S
C635 N632 1.350 . S
C635 C634 1.434 1_556 S
C636 C637 1.369 1_556 S
C636 C638 1.419 . S
C636 H640 0.930 1_556 S
C637 C636 1.369 1_554 S
C637 C646 1.429 1_554 S
C638 C636 1.419 . S
C638 C639 1.363 . S
C638 H641 0.929 . S
C639 C638 1.363 . S
C639 C645 1.428 . S
H640 C636 0.930 1_554 S
H641 C638 0.929 . S
S642 N643 1.613 . S
S642 N644 1.610 . S
N643 S642 1.613 . S
N643 C646 1.350 . S
N644 S642 1.610 . S
N644 C645 1.351 . S
C645 C639 1.428 . S
C645 N644 1.351 . S
C645 C646 1.434 . S
C646 C637 1.429 1_556 S
C646 N643 1.350 . S
C646 C645 1.434 . S
C647 C648 1.369 . S
C647 C649 1.419 . S
C647 H651 0.930 . S
C648 C647 1.369 . S
C648 C657 1.429 . S
C649 C647 1.419 . S
C649 C650 1.363 . S
C649 H652 0.929 . S
C650 C649 1.363 . S
C650 C656 1.428 . S
H651 C647 0.930 . S
H652 C649 0.929 . S
S653 N654 1.613 . S
S653 N655 1.610 . S
N654 S653 1.613 . S
N654 C657 1.350 . S
N655 S653 1.610 . S
N655 C656 1.351 . S
C656 C650 1.428 . S
C656 N655 1.351 . S
C656 C657 1.434 . S
C657 C648 1.429 . S
C657 N654 1.350 . S
C657 C656 1.434 . S
C658 C659 1.369 . S
C658 C660 1.419 . S
C658 H662 0.930 . S
C659 C658 1.369 . S
C659 C668 1.429 . S
C660 C658 1.419 . S
C660 C661 1.363 . S
C660 H663 0.929 . S
C661 C660 1.363 . S
C661 C667 1.428 . S
H662 C658 0.930 . S
H663 C660 0.929 . S
S664 N665 1.613 . S
S664 N666 1.610 . S
N665 S664 1.613 . S
N665 C668 1.350 . S
N666 S664 1.610 . S
N666 C667 1.351 . S
C667 C661 1.428 . S
C667 N666 1.351 . S
C667 C668 1.434 . S
C668 C659 1.429 . S
C668 N665 1.350 . S
C668 C667 1.434 . S
C669 C670 1.369 . S
C669 C671 1.419 1_556 S
C669 H673 0.930 . S
C670 C669 1.369 . S
C670 C679 1.429 1_556 S
C671 C669 1.419 1_554 S
C671 C672 1.363 . S
C671 H674 0.929 . S
C672 C671 1.363 . S
C672 C678 1.428 . S
H673 C669 0.930 . S
H674 C671 0.929 . S
S675 N676 1.613 . S
S675 N677 1.610 . S
N676 S675 1.613 . S
N676 C679 1.350 . S
N677 S675 1.610 . S
N677 C678 1.351 . S
C678 C672 1.428 . S
C678 N677 1.351 . S
C678 C679 1.434 . S
C679 C670 1.429 1_554 S
C679 N676 1.350 . S
C679 C678 1.434 . S
C680 C681 1.369 . S
C680 C682 1.419 . S
C680 H684 0.930 . S
C681 C680 1.369 . S
C681 C690 1.429 . S
C682 C680 1.419 . S
C682 C683 1.363 . S
C682 H685 0.929 . S
C683 C682 1.363 . S
C683 C689 1.428 . S
H684 C680 0.930 . S
H685 C682 0.929 . S
S686 N687 1.613 . S
S686 N688 1.610 . S
N687 S686 1.613 . S
N687 C690 1.350 . S
N688 S686 1.610 . S
N688 C689 1.351 . S
C689 C683 1.428 . S
C689 N688 1.351 . S
C689 C690 1.434 . S
C690 C681 1.429 . S
C690 N687 1.350 . S
C690 C689 1.434 . S
C691 C692 1.369 . S
C691 C693 1.419 1_554 S
C691 H695 0.930 . S
C692 C691 1.369 . S
C692 C701 1.429 1_554 S
C693 C691 1.419 1_556 S
C693 C694 1.363 . S
C693 H696 0.929 . S
C694 C693 1.363 . S
C694 C700 1.428 . S
H695 C691 0.930 . S
H696 C693 0.929 . S
S697 N698 1.613 . S
S697 N699 1.610 . S
N698 S697 1.613 . S
N698 C701 1.350 . S
N699 S697 1.610 . S
N699 C700 1.351 . S
C700 C694 1.428 . S
C700 N699 1.351 . S
C700 C701 1.434 . S
C701 C692 1.429 1_556 S
C701 N698 1.350 . S
C701 C700 1.434 . S
C702 C703 1.369 . S
C702 C704 1.419 1_554 S
C702 H706 0.930 . S
C703 C702 1.369 . S
C703 C712 1.429 . S
C704 C702 1.419 1_556 S
C704 C705 1.363 . S
C704 H707 0.929 . S
C705 C704 1.363 . S
C705 C711 1.428 1_556 S
H706 C702 0.930 . S
H707 C704 0.929 . S
S708 N709 1.613 . S
S708 N710 1.610 . S
N709 S708 1.613 . S
N709 C712 1.350 . S
N710 S708 1.610 . S
N710 C711 1.351 . S
C711 C705 1.428 1_554 S
C711 N710 1.351 . S
C711 C712 1.434 . S
C712 C703 1.429 . S
C712 N709 1.350 . S
C712 C711 1.434 . S
C713 C714 1.369 . S
C713 C715 1.419 . S
C713 H717 0.930 . S
C714 C713 1.369 . S
C714 C723 1.429 . S
C715 C713 1.419 . S
C715 C716 1.363 . S
C715 H718 0.929 . S
C716 C715 1.363 . S
C716 C722 1.428 . S
H717 C713 0.930 . S
H718 C715 0.929 . S
S719 N720 1.613 . S
S719 N721 1.610 . S
N720 S719 1.613 . S
N720 C723 1.350 . S
N721 S719 1.610 . S
N721 C722 1.351 . S
C722 C716 1.428 . S
C722 N721 1.351 . S
C722 C723 1.434 . S
C723 C714 1.429 . S
C723 N720 1.350 . S
C723 C722 1.434 . S
C724 C725 1.369 . S
C724 C726 1.419 . S
C724 H728 0.930 . S
C725 C724 1.369 . S
C725 C734 1.429 . S
C726 C724 1.419 . S
C726 C727 1.363 . S
C726 H729 0.929 . S
C727 C726 1.363 . S
C727 C733 1.428 . S
H728 C724 0.930 . S
H729 C726 0.929 . S
S730 N731 1.613 . S
S730 N732 1.610 . S
N731 S730 1.613 . S
N731 C734 1.350 . S
N732 S730 1.610 . S
N732 C733 1.351 . S
C733 C727 1.428 . S
C733 N732 1.351 . S
C733 C734 1.434 . S
C734 C725 1.429 . S
C734 N731 1.350 . S
C734 C733 1.434 . S
C735 C736 1.369 1_554 S
C735 C737 1.419 . S
C735 H739 0.930 . S
C736 C735 1.369 1_556 S
C736 C745 1.429 . S
C737 C735 1.419 . S
C737 C738 1.363 . S
C737 H740 0.929 . S
C738 C737 1.363 . S
C738 C744 1.428 . S
H739 C735 0.930 . S
H740 C737 0.929 . S
S741 N742 1.613 . S
S741 N743 1.610 1_556 S
N742 S741 1.613 . S
N742 C745 1.350 . S
N743 S741 1.610 1_554 S
N743 C744 1.351 . S
C744 C738 1.428 . S
C744 N743 1.351 . S
C744 C745 1.434 1_554 S
C745 C736 1.429 . S
C745 N742 1.350 . S
C745 C744 1.434 1_556 S
C746 C747 1.369 . S
C746 C748 1.419 . S
C746 H750 0.930 . S
C747 C746 1.369 . S
C747 C756 1.429 . S
C748 C746 1.419 . S
C748 C749 1.363 1_556 S
C748 H751 0.929 . S
C749 C748 1.363 1_554 S
C749 C755 1.428 . S
H750 C746 0.930 . S
H751 C748 0.929 . S
S752 N753 1.613 . S
S752 N754 1.610 . S
N753 S752 1.613 . S
N753 C756 1.350 1_554 S
N754 S752 1.610 . S
N754 C755 1.351 . S
C755 C749 1.428 . S
C755 N754 1.351 . S
C755 C756 1.434 1_554 S
C756 C747 1.429 . S
C756 N753 1.350 1_556 S
C756 C755 1.434 1_556 S
C757 C758 1.369 . S
C757 C759 1.419 . S
C757 H761 0.930 . S
C758 C757 1.369 . S
C758 C767 1.429 . S
C759 C757 1.419 . S
C759 C760 1.363 . S
C759 H762 0.929 . S
C760 C759 1.363 . S
C760 C766 1.428 . S
H761 C757 0.930 . S
H762 C759 0.929 . S
S763 N764 1.613 . S
S763 N765 1.610 . S
N764 S763 1.613 . S
N764 C767 1.350 . S
N765 S763 1.610 . S
N765 C766 1.351 . S
C766 C760 1.428 . S
C766 N765 1.351 . S
C766 C767 1.434 . S
C767 C758 1.429 . S
C767 N764 1.350 . S
C767 C766 1.434 . S
C768 C769 1.369 1_556 S
C768 C770 1.419 . S
C768 H772 0.930 . S
C769 C768 1.369 1_554 S
C769 C778 1.429 . S
C770 C768 1.419 . S
C770 C771 1.363 . S
C770 H773 0.929 . S
C771 C770 1.363 . S
C771 C777 1.428 . S
H772 C768 0.930 . S
H773 C770 0.929 . S
S774 N775 1.613 . S
S774 N776 1.610 1_554 S
N775 S774 1.613 . S
N775 C778 1.350 . S
N776 S774 1.610 1_556 S
N776 C777 1.351 . S
C777 C771 1.428 . S
C777 N776 1.351 . S
C777 C778 1.434 1_556 S
C778 C769 1.429 . S
C778 N775 1.350 . S
C778 C777 1.434 1_554 S
C779 C780 1.369 . S
C779 C781 1.419 . S
C779 H783 0.930 . S
C780 C779 1.369 . S
C780 C789 1.429 1_655 S
C781 C779 1.419 . S
C781 C782 1.363 1_655 S
C781 H784 0.929 . S
C782 C781 1.363 1_455 S
C782 C788 1.428 . S
H783 C779 0.930 . S
H784 C781 0.929 . S
S785 N786 1.613 . S
S785 N787 1.610 . S
N786 S785 1.613 . S
N786 C789 1.350 . S
N787 S785 1.610 . S
N787 C788 1.351 . S
C788 C782 1.428 . S
C788 N787 1.351 . S
C788 C789 1.434 . S
C789 C780 1.429 1_455 S
C789 N786 1.350 . S
C789 C788 1.434 . S
C790 C791 1.369 . S
C790 C792 1.419 . S
C790 H794 0.930 . S
C791 C790 1.369 . S
C791 C800 1.429 . S
C792 C790 1.419 . S
C792 C793 1.363 . S
C792 H795 0.929 . S
C793 C792 1.363 . S
C793 C799 1.428 . S
H794 C790 0.930 . S
H795 C792 0.929 . S
S796 N797 1.613 . S
S796 N798 1.610 . S
N797 S796 1.613 . S
N797 C800 1.350 . S
N798 S796 1.610 . S
N798 C799 1.351 . S
C799 C793 1.428 . S
C799 N798 1.351 . S
C799 C800 1.434 . S
C800 C791 1.429 . S
C800 N797 1.350 . S
C800 C799 1.434 . S
C801 C802 1.369 . S
C801 C803 1.419 . S
C801 H805 0.930 . S
C802 C801 1.369 . S
C802 C811 1.429 . S
C803 C801 1.419 . S
C803 C804 1.363 . S
C803 H806 0.929 . S
C804 C803 1.363 . S
C804 C810 1.428 . S
H805 C801 0.930 . S
H806 C803 0.929 . S
S807 N808 1.613 . S
S807 N809 1.610 . S
N808 S807 1.613 . S
N808 C811 1.350 . S
N809 S807 1.610 . S
N809 C810 1.351 . S
C810 C804 1.428 . S
C810 N809 1.351 . S
C810 C811 1.434 . S
C811 C802 1.429 . S
C811 N808 1.350 . S
C811 C810 1.434 . S
C812 C813 1.369 . S
C812 C814 1.419 . S
C812 H816 0.930 . S
C813 C812 1.369 . S
C813 C822 1.429 . S
C814 C812 1.419 . S
C814 C815 1.363 . S
C814 H817 0.929 . S
C815 C814 1.363 . S
C815 C821 1.428 . S
H816 C812 0.930 . S
H817 C814 0.929 . S
S818 N819 1.613 . S
S818 N820 1.610 . S
N819 S818 1.613 . S
N819 C822 1.350 . S
N820 S818 1.610 . S
N820 C821 1.351 . S
C821 C815 1.428 . S
C821 N820 1.351 . S
C821 C822 1.434 . S
C822 C813 1.429 . S
C822 N819 1.350 . S
C822 C821 1.434 . S
C823 C824 1.369 . S
C823 C825 1.419 . S
C823 H827 0.930 . S
C824 C823 1.369 . S
C824 C833 1.429 . S
C825 C823 1.419 . S
C825 C826 1.363 . S
C825 H828 0.929 . S
C826 C825 1.363 . S
C826 C832 1.428 . S
H827 C823 0.930 . S
H828 C825 0.929 . S
S829 N830 1.613 . S
S829 N831 1.610 . S
N830 S829 1.613 . S
N830 C833 1.350 . S
N831 S829 1.610 . S
N831 C832 1.351 . S
C832 C826 1.428 . S
C832 N831 1.351 . S
C832 C833 1.434 . S
C833 C824 1.429 . S
C833 N830 1.350 . S
C833 C832 1.434 . S
C834 C835 1.369 . S
C834 C836 1.419 1_556 S
C834 H838 0.930 . S
C835 C834 1.369 . S
C835 C844 1.429 1_556 S
C836 C834 1.419 1_554 S
C836 C837 1.363 . S
C836 H839 0.929 . S
C837 C836 1.363 . S
C837 C843 1.428 . S
H838 C834 0.930 . S
H839 C836 0.929 . S
S840 N841 1.613 . S
S840 N842 1.610 . S
N841 S840 1.613 . S
N841 C844 1.350 . S
N842 S840 1.610 . S
N842 C843 1.351 . S
C843 C837 1.428 . S
C843 N842 1.351 . S
C843 C844 1.434 . S
C844 C835 1.429 1_554 S
C844 N841 1.350 . S
C844 C843 1.434 . S
C845 C846 1.380 . S
C845 C847 1.408 1_455 S
C845 H849 0.929 1_455 S
C846 C845 1.380 . S
C846 C855 1.429 . S
C847 C845 1.408 1_655 S
C847 C848 1.363 . S
C847 H850 0.929 . S
C848 C847 1.363 . S
C848 C854 1.412 1_655 S
H849 C845 0.929 1_655 S
H850 C847 0.929 . S
S851 N852 1.613 . S
S851 N853 1.610 . S
N852 S851 1.613 . S
N852 C855 1.350 . S
N853 S851 1.610 . S
N853 C854 1.354 . S
C854 C848 1.412 1_455 S
C854 N853 1.354 . S
C854 C855 1.450 . S
C855 C846 1.429 . S
C855 N852 1.350 . S
C855 C854 1.450 . S
C856 C857 1.369 . S
C856 C858 1.419 1_556 S
C856 H860 0.930 . S
C857 C856 1.369 . S
C857 C866 1.429 1_556 S
C858 C856 1.419 1_554 S
C858 C859 1.363 . S
C858 H861 0.929 1_554 S
C859 C858 1.363 . S
C859 C865 1.428 . S
H860 C856 0.930 . S
H861 C858 0.929 1_556 S
S862 N863 1.613 . S
S862 N864 1.610 . S
N863 S862 1.613 . S
N863 C866 1.350 . S
N864 S862 1.610 . S
N864 C865 1.351 . S
C865 C859 1.428 . S
C865 N864 1.351 . S
C865 C866 1.434 . S
C866 C857 1.429 1_554 S
C866 N863 1.350 . S
C866 C865 1.434 . S
C867 C868 1.369 1_655 S
C867 C869 1.419 . S
C867 H871 0.930 . S
C868 C867 1.369 1_455 S
C868 C877 1.429 . S
C869 C867 1.419 . S
C869 C870 1.363 . S
C869 H872 0.929 . S
C870 C869 1.363 . S
C870 C876 1.428 1_655 S
H871 C867 0.930 . S
H872 C869 0.929 . S
S873 N874 1.613 . S
S873 N875 1.610 . S
N874 S873 1.613 . S
N874 C877 1.350 . S
N875 S873 1.610 . S
N875 C876 1.351 . S
C876 C870 1.428 1_455 S
C876 N875 1.351 . S
C876 C877 1.434 . S
C877 C868 1.429 . S
C877 N874 1.350 . S
C877 C876 1.434 . S
C878 C879 1.369 . S
C878 C880 1.419 . S
C878 H882 0.930 . S
C879 C878 1.369 . S
C879 C888 1.429 . S
C880 C878 1.419 . S
C880 C881 1.363 . S
C880 H883 0.929 . S
C881 C880 1.363 . S
C881 C887 1.428 . S
H882 C878 0.930 . S
H883 C880 0.929 . S
S884 N885 1.613 . S
S884 N886 1.610 . S
N885 S884 1.613 . S
N885 C888 1.350 . S
N886 S884 1.610 . S
N886 C887 1.351 . S
C887 C881 1.428 . S
C887 N886 1.351 . S
C887 C888 1.434 . S
C888 C879 1.429 . S
C888 N885 1.350 . S
C888 C887 1.434 . S
C889 C890 1.369 . S
C889 C891 1.419 . S
C889 H893 0.930 . S
C890 C889 1.369 . S
C890 C899 1.429 . S
C891 C889 1.419 . S
C891 C892 1.363 . S
C891 H894 0.929 . S
C892 C891 1.363 . S
C892 C898 1.428 . S
H893 C889 0.930 . S
H894 C891 0.929 . S
S895 N896 1.613 . S
S895 N897 1.610 1_554 S
N896 S895 1.613 . S
N896 C899 1.350 . S
N897 S895 1.610 1_556 S
N897 C898 1.351 1_556 S
C898 C892 1.428 . S
C898 N897 1.351 1_554 S
C898 C899 1.434 . S
C899 C890 1.429 . S
C899 N896 1.350 . S
C899 C898 1.434 . S
C900 C901 1.369 . S
C900 C902 1.419 . S
C900 H904 0.930 . S
C901 C900 1.369 . S
C901 C910 1.429 . S
C902 C900 1.419 . S
C902 C903 1.363 . S
C902 H905 0.929 . S
C903 C902 1.363 . S
C903 C909 1.428 . S
H904 C900 0.930 . S
H905 C902 0.929 . S
S906 N907 1.613 . S
S906 N908 1.610 . S
N907 S906 1.613 . S
N907 C910 1.350 . S
N908 S906 1.610 . S
N908 C909 1.351 . S
C909 C903 1.428 . S
C909 N908 1.351 . S
C909 C910 1.434 . S
C910 C901 1.429 . S
C910 N907 1.350 . S
C910 C909 1.434 . S
C911 C912 1.369 . S
C911 C913 1.419 . S
C911 H915 0.930 . S
C912 C911 1.369 . S
C912 C921 1.429 . S
C913 C911 1.419 . S
C913 C914 1.363 . S
C913 H916 0.929 . S
C914 C913 1.363 . S
C914 C920 1.428 . S
H915 C911 0.930 . S
H916 C913 0.929 . S
S917 N918 1.613 . S
S917 N919 1.610 . S
N918 S917 1.613 . S
N918 C921 1.350 . S
N919 S917 1.610 . S
N919 C920 1.351 . S
C920 C914 1.428 . S
C920 N919 1.351 . S
C920 C921 1.434 . S
C921 C912 1.429 . S
C921 N918 1.350 . S
C921 C920 1.434 . S
C922 C923 1.369 . S
C922 C924 1.419 1_554 S
C922 H926 0.930 . S
C923 C922 1.369 . S
C923 C932 1.429 1_554 S
C924 C922 1.419 1_556 S
C924 C925 1.363 . S
C924 H927 0.929 1_556 S
C925 C924 1.363 . S
C925 C931 1.428 . S
H926 C922 0.930 . S
H927 C924 0.929 1_554 S
S928 N929 1.613 . S
S928 N930 1.610 . S
N929 S928 1.613 . S
N929 C932 1.350 . S
N930 S928 1.610 . S
N930 C931 1.351 . S
C931 C925 1.428 . S
C931 N930 1.351 . S
C931 C932 1.434 . S
C932 C923 1.429 1_556 S
C932 N929 1.350 . S
C932 C931 1.434 . S
C933 C934 1.369 1_655 S
C933 C935 1.419 . S
C933 H937 0.930 . S
C934 C933 1.369 1_455 S
C934 C943 1.429 . S
C935 C933 1.419 . S
C935 C936 1.363 . S
C935 H938 0.929 . S
C936 C935 1.363 . S
C936 C942 1.428 1_655 S
H937 C933 0.930 . S
H938 C935 0.929 . S
S939 N940 1.613 . S
S939 N941 1.610 . S
N940 S939 1.613 . S
N940 C943 1.350 . S
N941 S939 1.610 . S
N941 C942 1.351 . S
C942 C936 1.428 1_455 S
C942 N941 1.351 . S
C942 C943 1.434 . S
C943 C934 1.429 . S
C943 N940 1.350 . S
C943 C942 1.434 . S
C944 C945 1.369 . S
C944 C946 1.419 . S
C944 H948 0.930 . S
C945 C944 1.369 . S
C945 C954 1.429 . S
C946 C944 1.419 . S
C946 C947 1.363 . S
C946 H949 0.929 . S
C947 C946 1.363 . S
C947 C953 1.428 . S
H948 C944 0.930 . S
H949 C946 0.929 . S
S950 N951 1.613 . S
S950 N952 1.610 . S
N951 S950 1.613 . S
N951 C954 1.350 . S
N952 S950 1.610 . S
N952 C953 1.351 . S
C953 C947 1.428 . S
C953 N952 1.351 . S
C953 C954 1.434 . S
C954 C945 1.429 . S
C954 N951 1.350 . S
C954 C953 1.434 . S
C955 C956 1.369 . S
C955 C957 1.419 . S
C955 H959 0.930 . S
C956 C955 1.369 . S
C956 C965 1.429 . S
C957 C955 1.419 . S
C957 C958 1.363 . S
C957 H960 0.929 . S
C958 C957 1.363 . S
C958 C964 1.428 . S
H959 C955 0.930 . S
H960 C957 0.929 . S
S961 N962 1.613 . S
S961 N963 1.610 . S
N962 S961 1.613 . S
N962 C965 1.350 . S
N963 S961 1.610 . S
N963 C964 1.351 . S
C964 C958 1.428 . S
C964 N963 1.351 . S
C964 C965 1.434 . S
C965 C956 1.429 . S
C965 N962 1.350 . S
C965 C964 1.434 . S
C966 C967 1.369 1_556 S
C966 C968 1.419 . S
C966 H970 0.930 . S
C967 C966 1.369 1_554 S
C967 C976 1.429 . S
C968 C966 1.419 . S
C968 C969 1.363 . S
C968 H971 0.929 . S
C969 C968 1.363 . S
C969 C975 1.428 . S
H970 C966 0.930 . S
H971 C968 0.929 . S
S972 N973 1.613 . S
S972 N974 1.610 . S
N973 S972 1.613 . S
N973 C976 1.350 . S
N974 S972 1.610 . S
N974 C975 1.351 1_554 S
C975 C969 1.428 . S
C975 N974 1.351 1_556 S
C975 C976 1.434 1_556 S
C976 C967 1.429 . S
C976 N973 1.350 . S
C976 C975 1.434 1_554 S
C977 C978 1.369 . S
C977 C979 1.419 . S
C977 H981 0.930 . S
C978 C977 1.369 . S
C978 C987 1.429 1_655 S
C979 C977 1.419 . S
C979 C980 1.363 1_655 S
C979 H982 0.929 . S
C980 C979 1.363 1_455 S
C980 C986 1.428 . S
H981 C977 0.930 . S
H982 C979 0.929 . S
S983 N984 1.613 . S
S983 N985 1.610 . S
N984 S983 1.613 . S
N984 C987 1.350 . S
N985 S983 1.610 . S
N985 C986 1.351 . S
C986 C980 1.428 . S
C986 N985 1.351 . S
C986 C987 1.434 . S
C987 C978 1.429 1_455 S
C987 N984 1.350 . S
C987 C986 1.434 . S
C988 C989 1.369 . S
C988 C990 1.419 1_556 S
C988 H992 0.930 . S
C989 C988 1.369 . S
C989 C998 1.429 1_556 S
C990 C988 1.419 1_554 S
C990 C991 1.363 . S
C990 H993 0.929 . S
C991 C990 1.363 . S
C991 C997 1.428 . S
H992 C988 0.930 . S
H993 C990 0.929 . S
S994 N995 1.613 . S
S994 N996 1.610 . S
N995 S994 1.613 . S
N995 C998 1.350 . S
N996 S994 1.610 . S
N996 C997 1.351 . S
C997 C991 1.428 . S
C997 N996 1.351 . S
C997 C998 1.434 . S
C998 C989 1.429 1_554 S
C998 N995 1.350 . S
C998 C997 1.434 . S
C999 C1000 1.369 . S
C999 C1001 1.419 . S
C999 H1003 0.930 . S
C1000 C999 1.369 . S
C1000 C1009 1.429 1_655 S
C1001 C999 1.419 . S
C1001 C1002 1.363 1_655 S
C1001 H1004 0.929 . S
C1002 C1001 1.363 1_455 S
C1002 C1008 1.428 . S
H1003 C999 0.930 . S
H1004 C1001 0.929 . S
S1005 N1006 1.613 1_554 S
S1005 N1007 1.610 . S
N1006 S1005 1.613 1_556 S
N1006 C1009 1.350 1_556 S
N1007 S1005 1.610 . S
N1007 C1008 1.351 . S
C1008 C1002 1.428 . S
C1008 N1007 1.351 . S
C1008 C1009 1.434 . S
C1009 C1000 1.429 1_455 S
C1009 N1006 1.350 1_554 S
C1009 C1008 1.434 . S
C1010 C1011 1.369 . S
C1010 C1012 1.419 . S
C1010 H1014 0.930 . S
C1011 C1010 1.369 . S
C1011 C1020 1.429 . S
C1012 C1010 1.419 . S
C1012 C1013 1.363 . S
C1012 H1015 0.929 . S
C1013 C1012 1.363 . S
C1013 C1019 1.428 . S
H1014 C1010 0.930 . S
H1015 C1012 0.929 . S
S1016 N1017 1.613 . S
S1016 N1018 1.610 . S
N1017 S1016 1.613 . S
N1017 C1020 1.350 . S
N1018 S1016 1.610 . S
N1018 C1019 1.351 . S
C1019 C1013 1.428 . S
C1019 N1018 1.351 . S
C1019 C1020 1.434 . S
C1020 C1011 1.429 . S
C1020 N1017 1.350 . S
C1020 C1019 1.434 . S
C1021 C1022 1.369 . S
C1021 C1023 1.419 . S
C1021 H1025 0.930 . S
C1022 C1021 1.369 . S
C1022 C1031 1.429 . S
C1023 C1021 1.419 . S
C1023 C1024 1.363 . S
C1023 H1026 0.929 . S
C1024 C1023 1.363 . S
C1024 C1030 1.428 . S
H1025 C1021 0.930 . S
H1026 C1023 0.929 . S
S1027 N1028 1.613 . S
S1027 N1029 1.610 . S
N1028 S1027 1.613 . S
N1028 C1031 1.350 . S
N1029 S1027 1.610 . S
N1029 C1030 1.351 . S
C1030 C1024 1.428 . S
C1030 N1029 1.351 . S
C1030 C1031 1.434 . S
C1031 C1022 1.429 . S
C1031 N1028 1.350 . S
C1031 C1030 1.434 . S
C1032 C1033 1.369 . S
C1032 C1034 1.419 . S
C1032 H1036 0.930 . S
C1033 C1032 1.369 . S
C1033 C1042 1.429 . S
C1034 C1032 1.419 . S
C1034 C1035 1.363 . S
C1034 H1037 0.929 . S
C1035 C1034 1.363 . S
C1035 C1041 1.428 . S
H1036 C1032 0.930 . S
H1037 C1034 0.929 . S
S1038 N1039 1.613 . S
S1038 N1040 1.610 . S
N1039 S1038 1.613 . S
N1039 C1042 1.350 . S
N1040 S1038 1.610 . S
N1040 C1041 1.351 . S
C1041 C1035 1.428 . S
C1041 N1040 1.351 . S
C1041 C1042 1.434 . S
C1042 C1033 1.429 . S
C1042 N1039 1.350 . S
C1042 C1041 1.434 . S
C1043 C1044 1.369 . S
C1043 C1045 1.419 . S
C1043 H1047 0.930 . S
C1044 C1043 1.369 . S
C1044 C1053 1.429 . S
C1045 C1043 1.419 . S
C1045 C1046 1.363 . S
C1045 H1048 0.929 . S
C1046 C1045 1.363 . S
C1046 C1052 1.428 . S
H1047 C1043 0.930 . S
H1048 C1045 0.929 . S
S1049 N1050 1.613 . S
S1049 N1051 1.610 . S
N1050 S1049 1.613 . S
N1050 C1053 1.350 . S
N1051 S1049 1.610 . S
N1051 C1052 1.351 . S
C1052 C1046 1.428 . S
C1052 N1051 1.351 . S
C1052 C1053 1.434 . S
C1053 C1044 1.429 . S
C1053 N1050 1.350 . S
C1053 C1052 1.434 . S
C1054 C1055 1.369 . S
C1054 C1056 1.419 1_554 S
C1054 H1058 0.930 . S
C1055 C1054 1.369 . S
C1055 C1064 1.429 . S
C1056 C1054 1.419 1_556 S
C1056 C1057 1.363 . S
C1056 H1059 0.929 . S
C1057 C1056 1.363 . S
C1057 C1063 1.428 . S
H1058 C1054 0.930 . S
H1059 C1056 0.929 . S
S1060 N1061 1.613 . S
S1060 N1062 1.610 1_554 S
N1061 S1060 1.613 . S
N1061 C1064 1.350 . S
N1062 S1060 1.610 1_556 S
N1062 C1063 1.351 . S
C1063 C1057 1.428 . S
C1063 N1062 1.351 . S
C1063 C1064 1.434 1_556 S
C1064 C1055 1.429 . S
C1064 N1061 1.350 . S
C1064 C1063 1.434 1_554 S
C1065 C1066 1.369 . S
C1065 C1067 1.419 1_455 S
C1065 H1069 0.930 . S
C1066 C1065 1.369 . S
C1066 C1075 1.429 . S
C1067 C1065 1.419 1_655 S
C1067 C1068 1.363 . S
C1067 H1070 0.929 . S
C1068 C1067 1.363 . S
C1068 C1074 1.428 . S
H1069 C1065 0.930 . S
H1070 C1067 0.929 . S
S1071 N1072 1.613 1_655 S
S1071 N1073 1.610 . S
N1072 S1071 1.613 1_455 S
N1072 C1075 1.350 . S
N1073 S1071 1.610 . S
N1073 C1074 1.351 . S
C1074 C1068 1.428 . S
C1074 N1073 1.351 . S
C1074 C1075 1.434 1_655 S
C1075 C1066 1.429 . S
C1075 N1072 1.350 . S
C1075 C1074 1.434 1_455 S
C1076 C1077 1.369 1_556 S
C1076 C1078 1.419 . S
C1076 H1080 0.930 . S
C1077 C1076 1.369 1_554 S
C1077 C1086 1.429 . S
C1078 C1076 1.419 . S
C1078 C1079 1.363 . S
C1078 H1081 0.929 . S
C1079 C1078 1.363 . S
C1079 C1085 1.428 1_556 S
H1080 C1076 0.930 . S
H1081 C1078 0.929 . S
S1082 N1083 1.613 . S
S1082 N1084 1.610 . S
N1083 S1082 1.613 . S
N1083 C1086 1.350 . S
N1084 S1082 1.610 . S
N1084 C1085 1.351 . S
C1085 C1079 1.428 1_554 S
C1085 N1084 1.351 . S
C1085 C1086 1.434 . S
C1086 C1077 1.429 . S
C1086 N1083 1.350 . S
C1086 C1085 1.434 . S
C1087 C1088 1.369 . S
C1087 C1089 1.419 . S
C1087 H1091 0.930 . S
C1088 C1087 1.369 . S
C1088 C1097 1.429 1_655 S
C1089 C1087 1.419 . S
C1089 C1090 1.363 1_655 S
C1089 H1092 0.929 . S
C1090 C1089 1.363 1_455 S
C1090 C1096 1.428 . S
H1091 C1087 0.930 . S
H1092 C1089 0.929 . S
S1093 N1094 1.613 . S
S1093 N1095 1.610 . S
N1094 S1093 1.613 . S
N1094 C1097 1.350 . S
N1095 S1093 1.610 . S
N1095 C1096 1.351 . S
C1096 C1090 1.428 . S
C1096 N1095 1.351 . S
C1096 C1097 1.434 . S
C1097 C1088 1.429 1_455 S
C1097 N1094 1.350 . S
C1097 C1096 1.434 . S
C1098 C1099 1.369 . S
C1098 C1100 1.419 . S
C1098 H1102 0.930 . S
C1099 C1098 1.369 . S
C1099 C1108 1.429 . S
C1100 C1098 1.419 . S
C1100 C1101 1.363 . S
C1100 H1103 0.929 . S
C1101 C1100 1.363 . S
C1101 C1107 1.428 . S
H1102 C1098 0.930 . S
H1103 C1100 0.929 . S
S1104 N1105 1.613 . S
S1104 N1106 1.610 . S
N1105 S1104 1.613 . S
N1105 C1108 1.350 . S
N1106 S1104 1.610 . S
N1106 C1107 1.351 . S
C1107 C1101 1.428 . S
C1107 N1106 1.351 . S
C1107 C1108 1.434 . S
C1108 C1099 1.429 . S
C1108 N1105 1.350 . S
C1108 C1107 1.434 . S
C1109 C1110 1.369 . S
C1109 C1111 1.419 . S
C1109 H1113 0.930 . S
C1110 C1109 1.369 . S
C1110 C1119 1.429 . S
C1111 C1109 1.419 . S
C1111 C1112 1.363 . S
C1111 H1114 0.929 . S
C1112 C1111 1.363 . S
C1112 C1118 1.428 . S
H1113 C1109 0.930 . S
H1114 C1111 0.929 . S
S1115 N1116 1.613 . S
S1115 N1117 1.610 . S
N1116 S1115 1.613 . S
N1116 C1119 1.350 . S
N1117 S1115 1.610 . S
N1117 C1118 1.351 . S
C1118 C1112 1.428 . S
C1118 N1117 1.351 . S
C1118 C1119 1.434 . S
C1119 C1110 1.429 . S
C1119 N1116 1.350 . S
C1119 C1118 1.434 . S
C417 C81 2.320 . S
C419 C5 2.327 . S
C428 C18 1.495 . S
C430 C96 1.493 . S
C439 C55 2.328 . S
C441 C29 2.329 . S
C450 C42 1.496 . S
C452 C70 1.494 . S
C461 C185 2.323 . S
C463 C109 2.330 . S
C472 C120 1.491 . S
C474 C200 1.493 . S
C483 C159 2.326 . S
C485 C133 2.330 . S
C494 C146 1.494 . S
C496 C174 1.492 . S
C505 C211 2.330 . S
C507 C291 2.323 . S
C516 C302 1.497 . S
C518 C226 1.496 . S
C527 C237 2.331 . S
C529 C263 2.325 . S
C538 C276 1.493 . S
C540 C252 1.495 . S
C549 C393 2.327 . S
C551 C317 2.329 . S
C560 C406 1.494 . S
C562 C330 1.496 . S
C571 C367 2.328 . S
C573 C341 2.329 . S
C582 C356 1.493 . S
C584 C382 1.495 . S
C593 C101 1.342 . S
C595 C10 1.356 . S
C604 C56 1.357 . S
C606 C23 1.342 . S
C615 C75 1.346 . S
C617 C30 1.356 . S
C626 C82 1.356 . S
C628 C43 1.344 . S
C637 C205 1.345 . S
C639 C114 1.356 . S
C648 C160 1.356 . S
C650 C121 1.345 . S
C659 C179 1.344 . S
C661 C134 1.356 . S
C670 C147 1.345 . S
C672 C186 1.356 . S
C681 C303 1.346 . S
C683 C212 1.356 . S
C692 C231 1.343 . S
C694 C264 1.356 . S
C703 C238 1.357 . S
C705 C277 1.342 . S
C714 C296 1.356 . S
C716 C257 1.344 . S
C725 C407 1.347 . S
C727 C322 1.356 . S
C736 C335 1.347 . S
C738 C368 1.356 . S
C747 C342 1.355 . S
C749 C387 1.346 . S
C758 C394 1.356 . S
C760 C361 1.343 . S
C769 C4 1.806 . S
C771 C395 2.042 . S
C780 C198 1.408 . S
C782 C17 1.415 . S
C791 C369 2.038 . S
C793 C36 1.811 . S
C802 C172 1.407 . S
C804 C49 1.414 . S
C813 C343 2.041 . S
C815 C62 1.813 . S
C824 C69 1.416 . S
C826 C148 1.411 . S
C835 C88 1.813 . S
C837 C315 2.041 . S
C846 C95 1.417 . S
C848 C122 1.410 . S
C857 C108 1.816 . S
C859 C289 2.039 . S
C868 C94 1.411 . S
C870 C127 1.415 . S
C879 C265 2.039 . S
C881 C140 1.815 . S
C890 C68 1.412 . S
C892 C153 1.415 . S
C901 C239 2.038 . S
C903 C166 1.812 . S
C912 C44 1.408 . S
C914 C173 1.414 . S
C923 C192 1.809 . S
C925 C213 2.041 . S
C934 C16 1.410 . S
C936 C199 1.414 . S
C945 C187 2.039 . S
C947 C218 1.816 . S
C956 C408 1.411 . S
C958 C225 1.415 . S
C967 C244 1.808 . S
C969 C161 2.039 . S
C978 C251 1.415 . S
C980 C380 1.411 . S
C989 C270 1.810 . S
C991 C135 2.041 . S
C1000 C283 1.416 . S
C1002 C354 1.411 . S
C1011 C290 1.816 . S
C1013 C107 2.040 . S
C1022 C309 1.416 . S
C1024 C328 1.409 . S
C1033 C83 2.038 . S
C1035 C316 1.811 . S
C1044 C304 1.407 . S
C1046 C329 1.414 . S
C1055 C57 2.042 . S
C1057 C348 1.809 . S
C1066 C355 1.413 . S
C1068 C278 1.408 . S
C1077 C374 1.807 . S
C1079 C31 2.039 . S
C1088 C250 1.407 . S
C1090 C381 1.415 . S
C1099 C400 1.810 . S
C1101 C3 2.042 . S
C1110 C413 1.413 . S
C1112 C224 1.410 . S
