# Generated by pormake.
# Topology vbr, (6)-cn, num edge types: 1
# Building blocks:
#     Node 0, Type 0, BuildingBlock: OJICUG_clean_sbu_0, # of connection points: 6
#     Node 1, Type 0, BuildingBlock: OJICUG_clean_sbu_0, # of connection points: 6
#     Node 2, Type 0, BuildingBlock: OJICUG_clean_sbu_0, # of connection points: 6
#     Node 3, Type 0, BuildingBlock: OJICUG_clean_sbu_0, # of connection points: 6
#     Node 4, Type 0, BuildingBlock: OJICUG_clean_sbu_0, # of connection points: 6
#     Node 5, Type 0, BuildingBlock: OJICUG_clean_sbu_0, # of connection points: 6
#     Node 6, Type 0, BuildingBlock: OJICUG_clean_sbu_0, # of connection points: 6
#     Node 7, Type 0, BuildingBlock: OJICUG_clean_sbu_0, # of connection points: 6
#     Node 8, Type 0, BuildingBlock: OJICUG_clean_sbu_0, # of connection points: 6
#     Node 9, Type 0, BuildingBlock: OJICUG_clean_sbu_0, # of connection points: 6
#     Node 10, Type 0, BuildingBlock: OJICUG_clean_sbu_0, # of connection points: 6
#     Node 11, Type 0, BuildingBlock: OJICUG_clean_sbu_0, # of connection points: 6
#     Node 12, Type 0, BuildingBlock: OJICUG_clean_sbu_0, # of connection points: 6
#     Node 13, Type 0, BuildingBlock: OJICUG_clean_sbu_0, # of connection points: 6
#     Node 14, Type 0, BuildingBlock: OJICUG_clean_sbu_0, # of connection points: 6
#     Node 15, Type 0, BuildingBlock: OJICUG_clean_sbu_0, # of connection points: 6
#     Edge 16, Type (0, 0), BuildingBlock: OJICUG_clean_linker_0, # of connection points: 2
#     Edge 17, Type (0, 0), BuildingBlock: OJICUG_clean_linker_0, # of connection points: 2
#     Edge 18, Type (0, 0), BuildingBlock: OJICUG_clean_linker_0, # of connection points: 2
#     Edge 19, Type (0, 0), BuildingBlock: OJICUG_clean_linker_0, # of connection points: 2
#     Edge 20, Type (0, 0), BuildingBlock: OJICUG_clean_linker_0, # of connection points: 2
#     Edge 21, Type (0, 0), BuildingBlock: OJICUG_clean_linker_0, # of connection points: 2
#     Edge 22, Type (0, 0), BuildingBlock: OJICUG_clean_linker_0, # of connection points: 2
#     Edge 23, Type (0, 0), BuildingBlock: OJICUG_clean_linker_0, # of connection points: 2
#     Edge 24, Type (0, 0), BuildingBlock: OJICUG_clean_linker_0, # of connection points: 2
#     Edge 25, Type (0, 0), BuildingBlock: OJICUG_clean_linker_0, # of connection points: 2
#     Edge 26, Type (0, 0), BuildingBlock: OJICUG_clean_linker_0, # of connection points: 2
#     Edge 27, Type (0, 0), BuildingBlock: OJICUG_clean_linker_0, # of connection points: 2
#     Edge 28, Type (0, 0), BuildingBlock: OJICUG_clean_linker_0, # of connection points: 2
#     Edge 29, Type (0, 0), BuildingBlock: OJICUG_clean_linker_0, # of connection points: 2
#     Edge 30, Type (0, 0), BuildingBlock: OJICUG_clean_linker_0, # of connection points: 2
#     Edge 31, Type (0, 0), BuildingBlock: OJICUG_clean_linker_0, # of connection points: 2
#     Edge 32, Type (0, 0), BuildingBlock: OJICUG_clean_linker_0, # of connection points: 2
#     Edge 33, Type (0, 0), BuildingBlock: OJICUG_clean_linker_0, # of connection points: 2
#     Edge 34, Type (0, 0), BuildingBlock: OJICUG_clean_linker_0, # of connection points: 2
#     Edge 35, Type (0, 0), BuildingBlock: OJICUG_clean_linker_0, # of connection points: 2
#     Edge 36, Type (0, 0), BuildingBlock: OJICUG_clean_linker_0, # of connection points: 2
#     Edge 37, Type (0, 0), BuildingBlock: OJICUG_clean_linker_0, # of connection points: 2
#     Edge 38, Type (0, 0), BuildingBlock: OJICUG_clean_linker_0, # of connection points: 2
#     Edge 39, Type (0, 0), BuildingBlock: OJICUG_clean_linker_0, # of connection points: 2
#     Edge 40, Type (0, 0), BuildingBlock: OJICUG_clean_linker_0, # of connection points: 2
#     Edge 41, Type (0, 0), BuildingBlock: OJICUG_clean_linker_0, # of connection points: 2
#     Edge 42, Type (0, 0), BuildingBlock: OJICUG_clean_linker_0, # of connection points: 2
#     Edge 43, Type (0, 0), BuildingBlock: OJICUG_clean_linker_0, # of connection points: 2
#     Edge 44, Type (0, 0), BuildingBlock: OJICUG_clean_linker_0, # of connection points: 2
#     Edge 45, Type (0, 0), BuildingBlock: OJICUG_clean_linker_0, # of connection points: 2
#     Edge 46, Type (0, 0), BuildingBlock: OJICUG_clean_linker_0, # of connection points: 2
#     Edge 47, Type (0, 0), BuildingBlock: OJICUG_clean_linker_0, # of connection points: 2
#     Edge 48, Type (0, 0), BuildingBlock: OJICUG_clean_linker_0, # of connection points: 2
#     Edge 49, Type (0, 0), BuildingBlock: OJICUG_clean_linker_0, # of connection points: 2
#     Edge 50, Type (0, 0), BuildingBlock: OJICUG_clean_linker_0, # of connection points: 2
#     Edge 51, Type (0, 0), BuildingBlock: OJICUG_clean_linker_0, # of connection points: 2
#     Edge 52, Type (0, 0), BuildingBlock: OJICUG_clean_linker_0, # of connection points: 2
#     Edge 53, Type (0, 0), BuildingBlock: OJICUG_clean_linker_0, # of connection points: 2
#     Edge 54, Type (0, 0), BuildingBlock: OJICUG_clean_linker_0, # of connection points: 2
#     Edge 55, Type (0, 0), BuildingBlock: OJICUG_clean_linker_0, # of connection points: 2
#     Edge 56, Type (0, 0), BuildingBlock: OJICUG_clean_linker_0, # of connection points: 2
#     Edge 57, Type (0, 0), BuildingBlock: OJICUG_clean_linker_0, # of connection points: 2
#     Edge 58, Type (0, 0), BuildingBlock: OJICUG_clean_linker_0, # of connection points: 2
#     Edge 59, Type (0, 0), BuildingBlock: OJICUG_clean_linker_0, # of connection points: 2
#     Edge 60, Type (0, 0), BuildingBlock: OJICUG_clean_linker_0, # of connection points: 2
#     Edge 61, Type (0, 0), BuildingBlock: OJICUG_clean_linker_0, # of connection points: 2
#     Edge 62, Type (0, 0), BuildingBlock: OJICUG_clean_linker_0, # of connection points: 2
#     Edge 63, Type (0, 0), BuildingBlock: OJICUG_clean_linker_0, # of connection points: 2
# Relax obj value: 0.306
# Max RMSD: 0.281
# Mean RMSD: 0.281
data_MOF--net-vbr--node1-OJICUG_clean_sbu_0--edge1-OJICUG_clean_linker_0
_symmetry_space_group_name_H-M    P1
_symmetry_Int_Tables_number       1
_symmetry_cell_setting            triclinic
loop_
_symmetry_equiv_pos_as_xyz
'x, y, z'
_cell_length_a     33.166137
_cell_length_b     22.112091
_cell_length_c     42.654057
_cell_angle_alpha  89.713529
_cell_angle_beta   89.92816
_cell_angle_gamma 90.095397
loop_
_atom_site_label
_atom_site_type_symbol
_atom_site_fract_x
_atom_site_fract_y
_atom_site_fract_z
_atom_type_partial_charge
Sc0 Sc 0.35492 0.1869 0.09844 0.0
Sc1 Sc 0.26049 0.16224 0.131 0.0
Sc2 Sc 0.33458 0.05008 0.13725 0.0
O3 O 0.31696 0.133 0.12276 0.0
C4 C 0.36661 0.05943 0.06585 0.0
C5 C 0.27157 0.20679 0.06309 0.0
C6 C 0.24437 0.02112 0.12326 0.0
C7 C 0.31242 0.2851 0.1362 0.0
C8 C 0.41533 0.12338 0.14667 0.0
C9 C 0.28316 0.10435 0.19543 0.0
O10 O 0.36493 0.1168 0.06489 0.0
O11 O 0.24992 0.17596 0.08194 0.0
O12 O 0.28124 0.00772 0.12082 0.0
O13 O 0.34615 0.26209 0.12902 0.0
O14 O 0.39174 0.0812 0.15537 0.0
O15 O 0.26922 0.14887 0.17983 0.0
O16 O 0.40622 0.16148 0.12554 0.0
O17 O 0.27951 0.25558 0.13502 0.0
O18 O 0.30581 0.06338 0.18345 0.0
O19 O 0.30819 0.2198 0.06849 0.0
O20 O 0.36056 0.02919 0.09113 0.0
O21 O 0.23199 0.07411 0.12908 0.0
Sc22 Sc 0.13237 0.80125 0.59977 0.0
Sc23 Sc 0.22824 0.83348 0.62916 0.0
Sc24 Sc 0.15055 0.94071 0.63627 0.0
O25 O 0.17027 0.85863 0.62214 0.0
C26 C 0.11739 0.92815 0.56535 0.0
C27 C 0.2148 0.78765 0.56139 0.0
C28 C 0.24175 0.97586 0.62403 0.0
C29 C 0.18136 0.70573 0.63607 0.0
C30 C 0.07046 0.86298 0.64666 0.0
C31 C 0.20116 0.88659 0.69486 0.0
O32 O 0.11607 0.87076 0.56692 0.0
O33 O 0.23755 0.81702 0.57997 0.0
O34 O 0.20452 0.9878 0.62472 0.0
O35 O 0.14652 0.72464 0.62877 0.0
O36 O 0.09196 0.90955 0.6512 0.0
O37 O 0.22069 0.84882 0.67823 0.0
O38 O 0.08172 0.81979 0.62931 0.0
O39 O 0.21239 0.73955 0.63533 0.0
O40 O 0.17509 0.92392 0.68365 0.0
O41 O 0.17824 0.77529 0.56756 0.0
O42 O 0.12823 0.96101 0.58863 0.0
O43 O 0.25536 0.92239 0.62517 0.0
Sc44 Sc 0.34033 0.80383 0.91738 0.0
Sc45 Sc 0.24252 0.82212 0.88774 0.0
Sc46 Sc 0.31399 0.93802 0.87872 0.0
O47 O 0.29915 0.85443 0.89425 0.0
C48 C 0.3551 0.93329 0.94724 0.0
C49 C 0.25936 0.78399 0.95712 0.0
C50 C 0.22466 0.96235 0.89717 0.0
C51 C 0.29633 0.70162 0.88144 0.0
C52 C 0.39444 0.8666 0.86424 0.0
C53 C 0.26025 0.88113 0.82235 0.0
O54 O 0.35484 0.87603 0.9485 0.0
O55 O 0.23451 0.80576 0.93732 0.0
O56 O 0.2615 0.97668 0.89865 0.0
O57 O 0.32945 0.72449 0.89021 0.0
O58 O 0.36964 0.90858 0.85776 0.0
O59 O 0.24764 0.83631 0.83843 0.0
O60 O 0.38814 0.82744 0.88562 0.0
O61 O 0.2632 0.73048 0.8817 0.0
O62 O 0.28245 0.92317 0.8338 0.0
O63 O 0.29665 0.77626 0.95151 0.0
O64 O 0.34399 0.96244 0.92277 0.0
O65 O 0.21262 0.90925 0.89091 0.0
Sc66 Sc 0.15481 0.02783 0.3728 0.0
Sc67 Sc 0.22637 0.13887 0.38412 0.0
Sc68 Sc 0.12875 0.16452 0.40812 0.0
O69 O 0.16921 0.11056 0.38757 0.0
C70 C 0.07631 0.10163 0.35474 0.0
C71 C 0.20952 0.09187 0.31803 0.0
C72 C 0.17879 0.26469 0.38154 0.0
C73 C 0.24206 -0.00193 0.38663 0.0
C74 C 0.11269 0.0372 0.44095 0.0
C75 C 0.20689 0.1721 0.45127 0.0
O76 O 0.10013 0.05753 0.35025 0.0
O77 O 0.21986 0.13676 0.3349 0.0
O78 O 0.14418 0.24093 0.37925 0.0
O79 O 0.20607 0.98875 0.39478 0.0
O80 O 0.1118 0.09454 0.44023 0.0
O81 O 0.22986 0.13997 0.43402 0.0
O82 O 0.12395 0.00573 0.41731 0.0
O83 O 0.2544 0.05058 0.37973 0.0
O84 O 0.17239 0.19106 0.44251 0.0
O85 O 0.18898 0.04641 0.32862 0.0
O86 O 0.08235 0.14183 0.37541 0.0
O87 O 0.21005 0.23301 0.38638 0.0
Sc88 Sc 0.63824 0.97542 0.85763 0.0
Sc89 Sc 0.71779 0.87913 0.87523 0.0
Sc90 Sc 0.62103 0.84924 0.90462 0.0
O91 O 0.65927 0.90035 0.87875 0.0
C92 C 0.6054 0.98149 0.92718 0.0
C93 C 0.7281 0.01785 0.87215 0.0
C94 C 0.6979 0.8468 0.94689 0.0
C95 C 0.69308 0.91979 0.80511 0.0
C96 C 0.56217 0.8871 0.85263 0.0
C97 C 0.67685 0.7495 0.87378 0.0
O98 O 0.62365 0.0084 0.90461 0.0
O99 O 0.73949 0.96933 0.88544 0.0
O100 O 0.65987 0.84878 0.94416 0.0
O101 O 0.65867 0.94348 0.81162 0.0
O102 O 0.57956 0.84372 0.86655 0.0
O103 O 0.70336 0.78697 0.86426 0.0
O104 O 0.5778 0.9396 0.85112 0.0
O105 O 0.71722 0.89947 0.82587 0.0
O106 O 0.64636 0.76467 0.88988 0.0
O107 O 0.69367 0.02338 0.85983 0.0
O108 O 0.59189 0.92789 0.9243 0.0
O109 O 0.72214 0.85555 0.92411 0.0
Sc110 Sc 0.85474 0.15677 0.40035 0.0
Sc111 Sc 0.75773 0.1288 0.37473 0.0
Sc112 Sc 0.83249 0.02142 0.36185 0.0
O113 O 0.81542 0.10222 0.37837 0.0
C114 C 0.91133 0.09913 0.34832 0.0
C115 C 0.80406 0.25641 0.37306 0.0
C116 C 0.77857 0.08579 0.30716 0.0
C117 C 0.77568 0.16198 0.44259 0.0
C118 C 0.87034 0.02758 0.43169 0.0
C119 C 0.74368 0.98691 0.37459 0.0
O120 O 0.90289 0.13864 0.3687 0.0
O121 O 0.77306 0.22332 0.3765 0.0
O122 O 0.80177 0.04266 0.31674 0.0
O123 O 0.81042 0.18061 0.43435 0.0
O124 O 0.85969 -0.00288 0.40749 0.0
O125 O 0.73043 0.04014 0.37134 0.0
O126 O 0.87155 0.08502 0.4316 0.0
O127 O 0.75268 0.13107 0.42479 0.0
O128 O 0.78054 0.97567 0.37875 0.0
O129 O 0.8393 0.2345 0.37244 0.0
O130 O 0.88876 0.05406 0.34276 0.0
O131 O 0.76413 0.12631 0.32518 0.0
Sc132 Sc 0.66258 0.06026 0.1213 0.0
Sc133 Sc 0.73451 0.17497 0.12019 0.0
Sc134 Sc 0.63877 0.20329 0.09098 0.0
O135 O 0.67808 0.14626 0.1113 0.0
C136 C 0.6241 0.08201 0.05252 0.0
C137 C 0.75156 0.03522 0.10845 0.0
C138 C 0.72147 0.22777 0.05438 0.0
C139 C 0.71337 0.10838 0.18178 0.0
C140 C 0.58237 0.1298 0.1388 0.0
C141 C 0.68421 0.29811 0.1288 0.0
O142 O 0.63333 0.04681 0.07537 0.0
O143 O 0.7629 0.08648 0.11828 0.0
O144 O 0.68475 0.23859 0.06093 0.0
O145 O 0.69349 0.06677 0.16746 0.0
O146 O 0.58969 0.17306 0.11986 0.0
O147 O 0.71649 0.26778 0.12592 0.0
O148 O 0.60645 0.08585 0.14318 0.0
O149 O 0.72463 0.15731 0.16851 0.0
O150 O 0.64976 0.27552 0.12336 0.0
O151 O 0.71578 0.02598 0.09957 0.0
O152 O 0.62537 0.13918 0.05491 0.0
O153 O 0.7442 0.19446 0.07135 0.0
Sc154 Sc 0.82272 0.9353 0.62462 0.0
Sc155 Sc 0.75006 0.82206 0.62256 0.0
Sc156 Sc 0.84562 0.79368 0.59305 0.0
O157 O 0.80668 0.8502 0.61399 0.0
C158 C 0.86125 0.91611 0.55558 0.0
C159 C 0.734 0.96131 0.6089 0.0
C160 C 0.76364 0.77265 0.55603 0.0
C161 C 0.76866 0.88786 0.68415 0.0
C162 C 0.90235 0.86357 0.64145 0.0
C163 C 0.80026 0.69865 0.6312 0.0
O164 O 0.85331 0.94982 0.57916 0.0
O165 O 0.72221 0.91071 0.61961 0.0
O166 O 0.7998 0.75925 0.56297 0.0
O167 O 0.78951 0.92903 0.67003 0.0
O168 O 0.89491 0.82262 0.62149 0.0
O169 O 0.76798 0.72911 0.62837 0.0
O170 O 0.87823 0.90696 0.64715 0.0
O171 O 0.75864 0.83836 0.67115 0.0
O172 O 0.8347 0.72121 0.62557 0.0
O173 O 0.77052 0.97169 0.60222 0.0
O174 O 0.85871 0.8589 0.55705 0.0
O175 O 0.74111 0.80503 0.57346 0.0
Sc176 Sc 0.85105 0.70534 0.0869 0.0
Sc177 Sc 0.7579 0.67546 0.12049 0.0
Sc178 Sc 0.83087 0.5624 0.11888 0.0
O179 O 0.81382 0.64776 0.10925 0.0
C180 C 0.86372 0.58452 0.04819 0.0
C181 C 0.76576 0.72969 0.05453 0.0
C182 C 0.7413 0.53516 0.10912 0.0
C183 C 0.80885 0.7988 0.1273 0.0
C184 C 0.91224 0.63326 0.13136 0.0
C185 C 0.78184 0.60812 0.18098 0.0
O186 O 0.86103 0.64163 0.05012 0.0
O187 O 0.74461 0.69517 0.07216 0.0
O188 O 0.77676 0.52646 0.09925 0.0
O189 O 0.84282 0.77625 0.12037 0.0
O190 O 0.88837 0.59003 0.13839 0.0
O191 O 0.77074 0.65768 0.16838 0.0
O192 O 0.90293 0.67519 0.11224 0.0
O193 O 0.77629 0.76855 0.12568 0.0
O194 O 0.80168 0.56733 0.16599 0.0
O195 O 0.80271 0.74128 0.05965 0.0
O196 O 0.85765 0.54962 0.07185 0.0
O197 O 0.73004 0.58626 0.11925 0.0
Sc198 Sc 0.6345 0.29586 0.5913 0.0
Sc199 Sc 0.73068 0.32096 0.61972 0.0
Sc200 Sc 0.66095 0.43704 0.62068 0.0
O201 O 0.67457 0.35108 0.61123 0.0
C202 C 0.62112 0.41741 0.55247 0.0
C203 C 0.71604 0.27452 0.55344 0.0
C204 C 0.7489 0.46001 0.60856 0.0
C205 C 0.67939 0.19844 0.62616 0.0
C206 C 0.58046 0.37002 0.63974 0.0
C207 C 0.71158 0.38549 0.68094 0.0
O208 O 0.62152 0.36019 0.55486 0.0
O209 O 0.73914 0.30715 0.57042 0.0
O210 O 0.71418 0.46659 0.59706 0.0
O211 O 0.64548 0.22451 0.62457 0.0
O212 O 0.60508 0.4135 0.64377 0.0
O213 O 0.72035 0.33489 0.6684 0.0
O214 O 0.58663 0.32715 0.62058 0.0
O215 O 0.71209 0.22739 0.6221 0.0
O216 O 0.69332 0.42831 0.66609 0.0
O217 O 0.67989 0.26121 0.56084 0.0
O218 O 0.63074 0.45185 0.57535 0.0
O219 O 0.75957 0.40961 0.62004 0.0
Sc220 Sc 0.85749 0.35033 0.90059 0.0
Sc221 Sc 0.75957 0.37895 0.87373 0.0
Sc222 Sc 0.83815 0.47651 0.85441 0.0
O223 O 0.81808 0.40115 0.87593 0.0
C224 C 0.8746 0.48262 0.92266 0.0
C225 C 0.78248 0.34749 0.94489 0.0
C226 C 0.74881 0.51789 0.87121 0.0
C227 C 0.80053 0.24971 0.87165 0.0
C228 C 0.91283 0.38802 0.84586 0.0
C229 C 0.78219 0.41918 0.80318 0.0
O230 O 0.88778 0.42901 0.91931 0.0
O231 O 0.75725 0.35563 0.92275 0.0
O232 O 0.78292 0.52412 0.85839 0.0
O233 O 0.83155 0.26534 0.88696 0.0
O234 O 0.8978 0.44084 0.8456 0.0
O235 O 0.75856 0.39857 0.82431 0.0
O236 O 0.8968 0.3449 0.86107 0.0
O237 O 0.77375 0.28691 0.86256 0.0
O238 O 0.81624 0.44439 0.80912 0.0
O239 O 0.82038 0.35021 0.94116 0.0
O240 O 0.85507 0.50945 0.90081 0.0
O241 O 0.73775 0.46887 0.88426 0.0
Sc242 Sc 0.65287 0.52203 0.35795 0.0
Sc243 Sc 0.72753 0.63159 0.37243 0.0
Sc244 Sc 0.62834 0.65686 0.39738 0.0
O245 O 0.66949 0.60364 0.37541 0.0
C246 C 0.5723 0.59744 0.34559 0.0
C247 C 0.70981 0.57983 0.30409 0.0
C248 C 0.67776 0.75569 0.3625 0.0
C249 C 0.74252 0.491 0.37931 0.0
C250 C 0.61507 0.52603 0.42793 0.0
C251 C 0.7058 0.6751 0.44008 0.0
O252 O 0.59453 0.55165 0.34093 0.0
O253 O 0.72785 0.61403 0.32345 0.0
O254 O 0.64341 0.73646 0.37107 0.0
O255 O 0.70675 0.4776 0.37194 0.0
O256 O 0.61126 0.58322 0.42745 0.0
O257 O 0.73086 0.65056 0.42153 0.0
O258 O 0.62819 0.4962 0.40426 0.0
O259 O 0.75529 0.54485 0.38101 0.0
O260 O 0.66912 0.68351 0.43321 0.0
O261 O 0.68101 0.54365 0.31197 0.0
O262 O 0.58162 0.63883 0.36462 0.0
O263 O 0.70939 0.72326 0.36312 0.0
Sc264 Sc 0.15769 0.43441 0.86598 0.0
Sc265 Sc 0.22804 0.32152 0.87674 0.0
Sc266 Sc 0.13073 0.29926 0.90274 0.0
O267 O 0.17146 0.35148 0.88105 0.0
C268 C 0.11608 0.42656 0.93385 0.0
C269 C 0.2445 0.46192 0.88308 0.0
C270 C 0.20955 0.28696 0.9446 0.0
C271 C 0.21438 0.37551 0.81172 0.0
C272 C 0.07858 0.36371 0.84913 0.0
C273 C 0.17667 0.19815 0.87368 0.0
O274 O 0.12437 0.45623 0.90882 0.0
O275 O 0.25664 0.41027 0.8745 0.0
O276 O 0.17472 0.26844 0.93637 0.0
O277 O 0.19377 0.4196 0.82303 0.0
O278 O 0.0834 0.32622 0.87151 0.0
O279 O 0.20925 0.22745 0.87798 0.0
O280 O 0.10432 0.40424 0.84211 0.0
O281 O 0.22205 0.32747 0.82729 0.0
O282 O 0.14287 0.22444 0.87264 0.0
O283 O 0.20806 0.4717 0.88971 0.0
O284 O 0.11751 0.36933 0.93521 0.0
O285 O 0.23258 0.31768 0.92659 0.0
Sc286 Sc 0.35159 0.66658 0.40297 0.0
Sc287 Sc 0.25201 0.6405 0.37985 0.0
Sc288 Sc 0.32525 0.52916 0.36653 0.0
O289 O 0.30979 0.61216 0.38258 0.0
C290 C 0.40526 0.60258 0.35046 0.0
C291 C 0.30207 0.76424 0.3683 0.0
C292 C 0.26689 0.5842 0.31268 0.0
C293 C 0.27451 0.68708 0.44636 0.0
C294 C 0.36647 0.53798 0.43514 0.0
C295 C 0.23658 0.50015 0.38978 0.0
O296 O 0.39801 0.64405 0.37011 0.0
O297 O 0.27024 0.73237 0.37071 0.0
O298 O 0.29394 0.54598 0.32137 0.0
O299 O 0.31088 0.69713 0.43861 0.0
O300 O 0.35375 0.50687 0.41182 0.0
O301 O 0.22357 0.55387 0.38815 0.0
O302 O 0.3684 0.59535 0.43446 0.0
O303 O 0.24973 0.65917 0.4289 0.0
O304 O 0.27281 0.48605 0.38445 0.0
O305 O 0.33685 0.74409 0.37489 0.0
O306 O 0.38162 0.55826 0.34611 0.0
O307 O 0.25131 0.6228 0.33105 0.0
Sc308 Sc 0.1616 0.54512 0.12337 0.0
Sc309 Sc 0.23116 0.65837 0.13572 0.0
Sc310 Sc 0.1444 0.68293 0.08032 0.0
O311 O 0.17977 0.63008 0.11127 0.0
C312 C 0.12947 0.55239 0.05175 0.0
C313 C 0.25139 0.5202 0.12509 0.0
C314 C 0.23528 0.66811 0.07457 0.0
C315 C 0.19292 0.59726 0.18982 0.0
C316 C 0.08189 0.62288 0.1301 0.0
C317 C 0.185 0.78466 0.12269 0.0
O318 O 0.14028 0.52315 0.07618 0.0
O319 O 0.25656 0.56789 0.14114 0.0
O320 O 0.20282 0.64742 0.08689 0.0
O321 O 0.18322 0.55202 0.17275 0.0
O322 O 0.09412 0.66399 0.1112 0.0
O323 O 0.21318 0.75197 0.13379 0.0
O324 O 0.10241 0.57592 0.1369 0.0
O325 O 0.198 0.64897 0.17774 0.0
O326 O 0.15723 0.76477 0.10511 0.0
O327 O 0.2193 0.51081 0.10976 0.0
O328 O 0.12911 0.60948 0.05064 0.0
O329 O 0.26458 0.6697 0.09311 0.0
Sc330 Sc 0.33431 0.44391 0.6292 0.0
Sc331 Sc 0.26147 0.33082 0.62683 0.0
Sc332 Sc 0.35618 0.30322 0.5958 0.0
O333 O 0.31787 0.35928 0.61775 0.0
C334 C 0.36915 0.42756 0.55904 0.0
C335 C 0.24484 0.47186 0.61899 0.0
C336 C 0.27258 0.28409 0.56027 0.0
C337 C 0.28666 0.38878 0.68947 0.0
C338 C 0.41465 0.37195 0.64323 0.0
C339 C 0.31098 0.20644 0.63282 0.0
O340 O 0.36069 0.46099 0.5826 0.0
O341 O 0.23327 0.41956 0.62732 0.0
O342 O 0.30913 0.27122 0.56624 0.0
O343 O 0.30607 0.43221 0.67603 0.0
O344 O 0.40632 0.32997 0.62406 0.0
O345 O 0.27885 0.23728 0.63048 0.0
O346 O 0.39126 0.41612 0.64858 0.0
O347 O 0.27314 0.34284 0.67503 0.0
O348 O 0.34553 0.2285 0.62708 0.0
O349 O 0.28061 0.48216 0.61038 0.0
O350 O 0.36869 0.37022 0.56065 0.0
O351 O 0.25078 0.31717 0.5779 0.0
C352 C 0.27674 0.26969 0.01488 0.0
C353 C 0.25439 0.22906 0.03356 0.0
H354 H 0.28004 0.32003 0.97224 0.0
C355 C 0.21643 0.20952 0.02335 0.0
H356 H 0.30598 0.28622 0.02225 0.0
C357 C 0.20153 0.22915 0.99457 0.0
C358 C 0.22439 0.26863 0.97559 0.0
H359 H 0.19856 0.17835 0.03729 0.0
H360 H 0.17239 0.21255 0.98703 0.0
C361 C 0.26189 0.28924 0.98619 0.0
C362 C 0.21886 0.70867 0.48359 0.0
C363 C 0.25994 0.71201 0.47618 0.0
H364 H 0.17246 0.73085 0.51576 0.0
C365 C 0.28645 0.74175 0.49679 0.0
H366 H 0.19757 0.68658 0.46815 0.0
C367 C 0.27197 0.76751 0.5244 0.0
C368 C 0.23081 0.76391 0.53174 0.0
H369 H 0.31835 0.74522 0.49162 0.0
H370 H 0.29299 0.78963 0.54003 0.0
C371 C 0.20446 0.73444 0.51095 0.0
C372 C 0.26455 0.75122 0.04264 0.0
C373 C 0.2358 0.70497 0.04579 0.0
H374 H 0.29354 0.81398 0.01176 0.0
C375 C 0.20996 0.69217 0.0206 0.0
H376 H 0.28445 0.7628 0.06183 0.0
C377 C 0.2148 0.72237 0.9919 0.0
C378 C 0.2457 0.76523 0.9883 0.0
H379 H 0.18798 0.65625 0.02235 0.0
H380 H 0.19665 0.70891 0.97201 0.0
C381 C 0.26949 0.78098 0.01414 0.0
C382 C 0.21425 0.26266 0.52532 0.0
C383 C 0.25499 0.25497 0.53277 0.0
H384 H 0.16667 0.24096 0.49388 0.0
C385 C 0.27908 0.21647 0.51442 0.0
H386 H 0.19491 0.29139 0.53928 0.0
C387 C 0.26298 0.18721 0.48869 0.0
C388 C 0.22257 0.19616 0.48068 0.0
H389 H 0.31061 0.20895 0.51972 0.0
H390 H 0.28255 0.15896 0.47465 0.0
C391 C 0.19811 0.23335 0.49947 0.0
C392 C 0.68906 0.79479 0.99852 0.0
C393 C 0.71438 0.82386 0.97656 0.0
H394 H 0.68549 0.74075 0.04026 0.0
C395 C 0.75615 0.82318 0.98112 0.0
H396 H 0.65663 0.79427 0.99553 0.0
C397 C 0.77248 0.79208 0.00636 0.0
C398 C 0.74741 0.76106 0.02772 0.0
H399 H 0.77642 0.84509 0.96466 0.0
H400 H 0.80499 0.79174 0.00876 0.0
C401 C 0.7055 0.76336 0.02387 0.0
C402 C 0.77323 0.24179 0.51992 0.0
C403 C 0.73172 0.2458 0.52516 0.0
H404 H 0.81982 0.20959 0.49002 0.0
C405 C 0.70472 0.21814 0.50414 0.0
H406 H 0.79464 0.26167 0.53604 0.0
C407 C 0.71901 0.18783 0.47799 0.0
C408 C 0.76047 0.18504 0.47236 0.0
H409 H 0.67241 0.22029 0.50768 0.0
H410 H 0.69755 0.16853 0.46171 0.0
C411 C 0.78752 0.2114 0.49377 0.0
C412 C 0.77954 0.26513 0.02233 0.0
C413 C 0.73788 0.25924 0.02683 0.0
H414 H 0.82658 0.29985 0.99319 0.0
C415 C 0.71123 0.2874 0.00571 0.0
H416 H 0.80071 0.24484 0.03857 0.0
C417 C 0.72584 0.31947 0.98009 0.0
C418 C 0.76744 0.32388 0.97493 0.0
H419 H 0.67884 0.28415 0.00865 0.0
H420 H 0.70443 0.33914 0.96383 0.0
C421 C 0.79425 0.29749 0.99662 0.0
C422 C 0.76049 0.69151 0.47882 0.0
C423 C 0.71997 0.69793 0.47037 0.0
H424 H 0.80601 0.71055 0.51223 0.0
C425 C 0.69343 0.72891 0.49047 0.0
H426 H 0.78167 0.66804 0.46386 0.0
C427 C 0.7074 0.7537 0.51838 0.0
C428 C 0.74806 0.74766 0.52662 0.0
H429 H 0.66192 0.73468 0.48455 0.0
H430 H 0.68643 0.77744 0.53341 0.0
C431 C 0.77439 0.71612 0.50662 0.0
C432 C 0.36525 0.02961 0.97796 0.0
C433 C 0.36464 0.96617 0.97686 0.0
H434 H 0.36722 0.10862 0.00659 0.0
C435 C 0.36939 0.93376 0.00525 0.0
H436 H 0.36177 0.05616 0.95673 0.0
C437 C 0.37217 0.9638 0.03403 0.0
C438 C 0.3707 0.02719 0.0353 0.0
H439 H 0.36914 0.88479 0.00552 0.0
H440 H 0.37391 0.93716 0.05536 0.0
C441 C 0.36846 0.05968 0.00673 0.0
C442 C 0.10628 0.01872 0.5298 0.0
C443 C 0.11 0.95597 0.53377 0.0
H444 H 0.10285 0.0931 0.4978 0.0
C445 C 0.10991 0.91943 0.50661 0.0
H446 H 0.10611 0.04832 0.54995 0.0
C447 C 0.10853 0.94508 0.47643 0.0
C448 C 0.10658 0.00804 0.47243 0.0
H449 H 0.11281 0.87077 0.50852 0.0
H450 H 0.11057 0.91562 0.45628 0.0
C451 C 0.10423 0.04429 0.49965 0.0
C452 C 0.59988 0.9722 0.98606 0.0
C453 C 0.6045 0.0092 0.95915 0.0
H454 H 0.60282 0.96527 0.03633 0.0
C455 C 0.61305 0.07076 0.96358 0.0
H456 H 0.59383 0.92428 0.98372 0.0
C457 C 0.61769 0.09432 0.99388 0.0
C458 C 0.61476 0.05685 0.02075 0.0
H459 H 0.61715 0.10056 0.94359 0.0
H460 H 0.62517 0.14181 0.99609 0.0
C461 C 0.60531 -0.00447 0.01638 0.0
C462 C 0.86841 0.90794 0.49666 0.0
C463 C 0.86998 0.94369 0.52405 0.0
H464 H 0.86746 0.90551 0.44628 0.0
C465 C 0.8765 0.00607 0.52043 0.0
H466 H 0.86338 0.85962 0.49829 0.0
C467 C 0.8795 0.03222 0.49044 0.0
C468 C 0.87548 -0.00297 0.46297 0.0
H469 H 0.87803 0.03515 0.54076 0.0
H470 H 0.88302 0.08084 0.48892 0.0
C471 C 0.87087 0.93421 0.46661 0.0
C472 C 0.86633 0.59599 0.98935 0.0
C473 C 0.8711 0.55894 0.0162 0.0
H474 H 0.86368 0.60162 0.93913 0.0
C475 C 0.88055 0.49769 0.01167 0.0
H476 H 0.85885 0.64343 0.99167 0.0
C477 C 0.88408 0.474 0.98125 0.0
C478 C 0.87758 0.51061 0.95446 0.0
H479 H 0.88444 0.46774 0.0316 0.0
H480 H 0.89014 0.42614 0.97882 0.0
C481 C 0.86915 0.57212 0.95901 0.0
C482 C 0.61542 0.43326 0.4633 0.0
C483 C 0.60965 0.49575 0.45924 0.0
H484 H 0.62288 0.35965 0.4956 0.0
C485 C 0.60373 0.53123 0.48639 0.0
H486 H 0.6203 0.40441 0.44321 0.0
C487 C 0.60594 0.50582 0.51655 0.0
C488 C 0.61337 0.44386 0.52064 0.0
H489 H 0.59928 0.57962 0.48454 0.0
H490 H 0.60292 0.53514 0.53668 0.0
C491 C 0.61693 0.40765 0.49353 0.0
C492 C 0.11607 0.55256 0.99376 0.0
C493 C 0.11979 0.51996 0.02218 0.0
H494 H 0.11151 0.54911 0.9437 0.0
C495 C 0.11675 0.45673 0.02135 0.0
H496 H 0.11805 0.60145 0.99336 0.0
C497 C 0.11231 0.42676 0.99271 0.0
C498 C 0.11136 0.4592 0.96409 0.0
H499 H 0.11912 0.4302 0.04268 0.0
H500 H 0.11185 0.37778 0.993 0.0
C501 C 0.11211 0.52259 0.96512 0.0
C502 C 0.37962 0.51792 0.52336 0.0
C503 C 0.37511 0.45524 0.52727 0.0
H504 H 0.38162 0.59272 0.49154 0.0
C505 C 0.37231 0.41912 0.50009 0.0
H506 H 0.38195 0.5472 0.54356 0.0
C507 C 0.37157 0.44523 0.47002 0.0
C508 C 0.37419 0.50822 0.46618 0.0
H509 H 0.36868 0.37055 0.50199 0.0
H510 H 0.3674 0.41619 0.4499 0.0
C511 C 0.3795 0.54394 0.4933 0.0
C512 C 0.25618 0.15155 0.24361 0.0
C513 C 0.26801 0.09876 0.22798 0.0
H514 H 0.22713 0.19039 0.28317 0.0
C515 C 0.25884 0.04224 0.24165 0.0
H516 H 0.26236 0.19579 0.23364 0.0
C517 C 0.23789 0.03903 0.27036 0.0
C518 C 0.22604 0.09232 0.28574 0.0
H519 H 0.26679 0.00076 0.22976 0.0
H520 H 0.23176 -0.0048 0.28079 0.0
C521 C 0.2355 0.14839 0.27192 0.0
C522 C 0.23793 0.94012 0.77443 0.0
C523 C 0.24596 0.88452 0.78941 0.0
H524 H 0.21577 0.98468 0.73281 0.0
C525 C 0.2363 0.83069 0.7737 0.0
H526 H 0.24438 0.98235 0.78618 0.0
C527 C 0.21984 0.83207 0.74366 0.0
C528 C 0.21189 0.8873 0.72853 0.0
H529 H 0.2418 0.78709 0.78458 0.0
H530 H 0.21385 0.78959 0.73196 0.0
C531 C 0.22074 0.9415 0.74426 0.0
C532 C 0.74226 0.84862 0.73507 0.0
C533 C 0.75096 0.8986 0.7157 0.0
H534 H 0.71615 0.81644 0.77791 0.0
C535 C 0.73725 0.95612 0.72496 0.0
H536 H 0.75196 0.80361 0.72858 0.0
C537 C 0.71546 0.96316 0.75312 0.0
C538 C 0.70728 0.91283 0.77243 0.0
H539 H 0.7427 -0.00469 0.71021 0.0
H540 H 0.7063 0.00799 0.76032 0.0
C541 C 0.72108 0.85573 0.76308 0.0
C542 C 0.73771 0.04233 0.22673 0.0
C543 C 0.72758 0.09965 0.2145 0.0
H544 H 0.76319 0.99259 0.26557 0.0
C545 C 0.73628 0.15113 0.23246 0.0
H546 H 0.73205 0.00188 0.21321 0.0
C547 C 0.75454 0.14595 0.26167 0.0
C548 C 0.76483 0.08909 0.27409 0.0
H549 H 0.72919 0.19602 0.22379 0.0
H550 H 0.76031 0.18693 0.27476 0.0
C551 C 0.75637 0.0371 0.25631 0.0
C552 C 0.73832 0.64136 0.26072 0.0
C553 C 0.72494 0.58448 0.27133 0.0
H554 H 0.76792 0.69259 0.22503 0.0
C555 C 0.73257 0.53354 0.25256 0.0
H556 H 0.73339 0.6815 0.27469 0.0
C557 C 0.75334 0.53989 0.22378 0.0
C558 C 0.76653 0.59728 0.21336 0.0
H559 H 0.72349 0.48893 0.26047 0.0
H560 H 0.75815 0.50034 0.2094 0.0
C561 C 0.75868 0.64764 0.23234 0.0
C562 C 0.76362 0.46051 0.75009 0.0
C563 C 0.76804 0.41119 0.77068 0.0
H564 H 0.7407 0.49163 0.7057 0.0
C565 C 0.75243 0.35464 0.76201 0.0
H566 H 0.77453 0.50488 0.75664 0.0
C567 C 0.7331 0.3471 0.73328 0.0
C568 C 0.72805 0.39625 0.7127 0.0
H569 H 0.75484 0.31614 0.77773 0.0
H570 H 0.72195 0.30259 0.72719 0.0
C571 C 0.74347 0.45318 0.72136 0.0
C572 C 0.25653 0.33296 0.76874 0.0
C573 C 0.23433 0.38188 0.78069 0.0
H574 H 0.29198 0.2983 0.73116 0.0
C575 C 0.23429 0.43687 0.76381 0.0
H576 H 0.25791 0.29011 0.7811 0.0
C577 C 0.25468 0.44166 0.73498 0.0
C578 C 0.27535 0.39158 0.72278 0.0
H579 H 0.21813 0.47578 0.77261 0.0
H580 H 0.25238 0.48315 0.72148 0.0
C581 C 0.27671 0.33782 0.74028 0.0
C582 C 0.21317 0.6416 0.24074 0.0
C583 C 0.20816 0.58957 0.2224 0.0
H584 H 0.23708 0.68091 0.28212 0.0
C585 C 0.22385 0.53437 0.23371 0.0
H586 H 0.20173 0.685 0.23293 0.0
C587 C 0.24491 0.53203 0.26245 0.0
C588 C 0.25023 0.58481 0.28033 0.0
H589 H 0.22063 0.49348 0.22011 0.0
H590 H 0.25619 0.48904 0.27093 0.0
C591 C 0.23396 0.63934 0.26897 0.0
C592 C 0.47958 0.07036 0.15923 0.0
C593 C 0.4574 0.12433 0.1575 0.0
H594 H 0.53794 0.02972 0.15482 0.0
C595 C 0.47792 0.17987 0.15806 0.0
H596 H 0.46439 0.02696 0.15879 0.0
C597 C 0.51975 0.1815 0.15568 0.0
C598 C 0.54168 0.12759 0.1527 0.0
H599 H 0.46143 0.22211 0.15718 0.0
H600 H 0.53454 0.22501 0.15324 0.0
C601 C 0.52169 0.07198 0.15684 0.0
C602 C 0.00674 0.91776 0.65984 0.0
C603 C 0.02798 0.86296 0.65713 0.0
H604 H 0.949 0.96107 0.65732 0.0
C605 C 0.00641 0.80832 0.65786 0.0
H606 H 0.02258 0.96064 0.65952 0.0
C607 C 0.96445 0.80865 0.65677 0.0
C608 C 0.94335 0.86359 0.65482 0.0
H609 H 0.02196 0.76536 0.65643 0.0
H610 H 0.94873 0.76589 0.65447 0.0
C611 C 0.96454 0.91808 0.65865 0.0
C612 C 0.49442 0.92948 0.83901 0.0
C613 C 0.5192 0.87894 0.84438 0.0
H614 H 0.43447 0.96495 0.84065 0.0
C615 C 0.50112 0.82177 0.8481 0.0
H616 H 0.50735 0.97404 0.83558 0.0
C617 C 0.45943 0.81668 0.85121 0.0
C618 C 0.4351 0.86852 0.85025 0.0
H619 H 0.51927 0.78159 0.85152 0.0
H620 H 0.44662 0.77289 0.85696 0.0
C621 C 0.45256 0.92426 0.84185 0.0
C622 C 0.97418 0.04646 0.33224 0.0
C623 C 0.95253 0.10063 0.33553 0.0
H624 H 0.0321 0.00433 0.33548 0.0
C625 C 0.97347 0.15586 0.33507 0.0
H626 H 0.95873 0.00326 0.33227 0.0
C627 C 0.01534 0.15646 0.33703 0.0
C628 C 0.03666 0.10185 0.33933 0.0
H629 H 0.9574 0.19834 0.33689 0.0
H630 H 0.03056 0.1994 0.3402 0.0
C631 C 0.01626 0.04708 0.33414 0.0
C632 C 0.97455 0.5762 0.14653 0.0
C633 C 0.95472 0.63161 0.14182 0.0
H634 H 0.03127 0.52989 0.14682 0.0
C635 C 0.97768 0.68508 0.14067 0.0
H636 H 0.95765 0.53428 0.14757 0.0
C637 C 0.01964 0.68259 0.14006 0.0
C638 C 0.03951 0.62661 0.14075 0.0
H639 H 0.96321 0.72862 0.13763 0.0
H640 H 0.03638 0.72424 0.13664 0.0
C641 C 0.01677 0.57372 0.14604 0.0
C642 C 0.51949 0.42773 0.65573 0.0
C643 C 0.54016 0.37247 0.654 0.0
H644 H 0.46178 0.47092 0.65412 0.0
C645 C 0.51879 0.31821 0.65832 0.0
H646 H 0.53539 0.47018 0.65262 0.0
C647 C 0.47688 0.31859 0.65904 0.0
C648 C 0.45594 0.37325 0.65561 0.0
H649 H 0.53422 0.27506 0.65771 0.0
H650 H 0.46093 0.27577 0.65898 0.0
C651 C 0.47734 0.42812 0.65657 0.0
C652 C 0.02097 0.42307 0.82823 0.0
C653 C 0.03818 0.36658 0.83511 0.0
H654 H 0.96654 0.47443 0.82593 0.0
C655 C 0.01341 0.3151 0.83618 0.0
H656 H 0.03947 0.46343 0.82695 0.0
C657 C 0.97168 0.32129 0.83556 0.0
C658 C 0.95427 0.37914 0.83416 0.0
H659 H 0.02612 0.2708 0.84074 0.0
H660 H 0.95329 0.28141 0.83946 0.0
C661 C 0.97909 0.42937 0.82781 0.0
C662 C 0.46806 0.65551 0.33409 0.0
C663 C 0.44604 0.60144 0.33652 0.0
H664 H 0.52638 0.69649 0.33374 0.0
C665 C 0.46621 0.5461 0.33249 0.0
H666 H 0.45319 0.69884 0.33651 0.0
C667 C 0.5084 0.5447 0.33102 0.0
C668 C 0.5306 0.59865 0.3335 0.0
H669 H 0.44994 0.50368 0.33407 0.0
H670 H 0.52345 0.50128 0.33165 0.0
C671 C 0.51001 0.65412 0.33245 0.0
C672 C 0.22092 0.93347 0.15331 0.0
C673 C 0.21694 0.96982 0.12645 0.0
H674 H 0.2134 0.84524 0.17328 0.0
C675 C 0.19526 0.94848 0.10065 0.0
H676 H 0.238 0.94933 0.17332 0.0
C677 C 0.18069 0.88907 0.10077 0.0
C678 C 0.18865 0.85049 0.1264 0.0
H679 H 0.19262 0.9757 0.07956 0.0
H680 H 0.16679 0.87173 0.07966 0.0
C681 C 0.20709 0.87402 0.15324 0.0
C682 C 0.29896 0.04507 0.60869 0.0
C683 C 0.26885 0.0272 0.62991 0.0
H684 H 0.3376 0.11786 0.5937 0.0
C685 C 0.26045 0.06358 0.656 0.0
H686 H 0.30581 0.01756 0.58844 0.0
C687 C 0.27857 0.11996 0.65915 0.0
C688 C 0.30565 0.14086 0.63636 0.0
H689 H 0.23765 0.0501 0.6729 0.0
H690 H 0.2688 0.14938 0.67794 0.0
C691 C 0.31738 0.10197 0.61194 0.0
C692 C 0.16855 0.08845 0.86034 0.0
C693 C 0.17741 0.13382 0.88209 0.0
H694 H 0.17566 -0.00544 0.84906 0.0
C695 C 0.19152 0.11785 0.91201 0.0
H696 H 0.15745 0.10008 0.83721 0.0
C697 C 0.20101 0.05811 0.91899 0.0
C698 C 0.19679 0.0135 0.89607 0.0
H699 H 0.19805 0.15221 0.92928 0.0
H700 H 0.21578 0.04793 0.94105 0.0
C701 C 0.17826 0.02817 0.86735 0.0
C702 C 0.31697 0.87023 0.38433 0.0
C703 C 0.2962 0.82982 0.36461 0.0
H704 H 0.31558 0.95678 0.40726 0.0
C705 C 0.26246 0.85035 0.34795 0.0
H706 H 0.34286 0.8552 0.3977 0.0
C707 C 0.24689 0.90754 0.3537 0.0
C708 C 0.26486 0.94525 0.37607 0.0
H709 H 0.24604 0.82021 0.33258 0.0
H710 H 0.21911 0.92078 0.3422 0.0
C711 C 0.30124 0.92795 0.39009 0.0
C712 C 0.76773 0.16627 0.84293 0.0
C713 C 0.79162 0.185 0.86808 0.0
H714 H 0.72984 0.09752 0.82437 0.0
C715 C 0.80045 0.1438 0.89242 0.0
H716 H 0.76093 0.19688 0.82373 0.0
C717 C 0.78209 0.08667 0.89309 0.0
C718 C 0.75495 0.07063 0.86936 0.0
H719 H 0.81877 0.15748 0.91218 0.0
H720 H 0.78676 0.05719 0.91311 0.0
C721 C 0.74977 0.10955 0.84348 0.0
C722 C 0.68395 0.91929 0.38343 0.0
C723 C 0.71829 0.93533 0.36615 0.0
H724 H 0.64271 0.84775 0.39498 0.0
C725 C 0.73221 0.89707 0.34233 0.0
H726 H 0.67275 0.94857 0.40175 0.0
C727 C 0.71511 0.84029 0.33824 0.0
C728 C 0.68384 0.82091 0.35797 0.0
H729 H 0.75828 0.90944 0.32833 0.0
H730 H 0.72873 0.80953 0.32161 0.0
C731 C 0.66664 0.86201 0.37928 0.0
C732 C 0.7585 0.94587 0.14243 0.0
C733 C 0.77439 0.98146 0.11803 0.0
H734 H 0.75837 0.85976 0.16539 0.0
C735 C 0.80804 0.96095 0.10132 0.0
H736 H 0.73259 0.9611 0.15568 0.0
C737 C 0.82322 0.90275 0.10718 0.0
C738 C 0.80452 0.86487 0.12957 0.0
H739 H 0.82059 0.98786 0.08239 0.0
H740 H 0.84682 0.88541 0.09214 0.0
C741 C 0.77342 0.88812 0.14818 0.0
C742 C 0.6951 0.11484 0.59049 0.0
C743 C 0.68146 0.13324 0.62013 0.0
H744 H 0.72193 0.04434 0.56346 0.0
C745 C 0.67717 0.09028 0.64417 0.0
H746 H 0.69866 0.14725 0.5716 0.0
C747 C 0.68983 0.03056 0.63921 0.0
C748 C 0.70733 0.01408 0.61038 0.0
H749 H 0.66708 0.10381 0.66725 0.0
H750 H 0.6897 -0.00088 0.65878 0.0
C751 C 0.70817 0.0559 0.5857 0.0
C752 C 0.72179 0.38659 0.14839 0.0
C753 C 0.68904 0.36415 0.13126 0.0
H754 H 0.76381 0.45878 0.15426 0.0
C755 C 0.66884 0.40291 0.11018 0.0
H756 H 0.738 0.35762 0.16459 0.0
C757 C 0.6839 0.46124 0.10408 0.0
C758 C 0.71907 0.48088 0.11913 0.0
H759 H 0.64392 0.38625 0.09627 0.0
H760 H 0.66993 0.48894 0.08613 0.0
C761 C 0.7367 0.44428 0.1423 0.0
C762 C 0.74713 0.55169 0.64089 0.0
C763 C 0.76861 0.51516 0.61992 0.0
H764 H 0.74182 0.63822 0.66236 0.0
C765 C 0.8058 0.53518 0.60817 0.0
H766 H 0.71845 0.53695 0.65039 0.0
C767 C 0.81928 0.59388 0.615 0.0
C768 C 0.79554 0.63253 0.63362 0.0
H769 H 0.8228 0.50741 0.59203 0.0
H770 H 0.84613 0.61074 0.60339 0.0
C771 C 0.76063 0.60955 0.64791 0.0
C772 C 0.67743 0.64316 0.8939 0.0
C773 C 0.68551 0.68491 0.86962 0.0
H774 H 0.69164 0.5561 0.91374 0.0
C775 C 0.70841 0.66675 0.84379 0.0
H776 H 0.65985 0.65638 0.91416 0.0
C777 C 0.72623 0.61003 0.84357 0.0
C778 C 0.72188 0.57054 0.86932 0.0
H779 H 0.71461 0.69781 0.82463 0.0
H780 H 0.74546 0.59843 0.82393 0.0
C781 C 0.69565 0.58601 0.89378 0.0
C782 C 0.76015 0.39717 0.40668 0.0
C783 C 0.76995 0.44002 0.38369 0.0
H784 H 0.76424 0.30498 0.42122 0.0
C785 C 0.79732 0.42489 0.35977 0.0
H786 H 0.73865 0.40781 0.42501 0.0
C787 C 0.81168 0.36545 0.35726 0.0
C788 C 0.79836 0.32128 0.37858 0.0
H789 H 0.80442 0.45724 0.3414 0.0
H790 H 0.83022 0.35304 0.33738 0.0
C791 C 0.77436 0.33832 0.40421 0.0
C792 C 0.26817 0.61487 0.85239 0.0
C793 C 0.2943 0.63639 0.87555 0.0
H794 H 0.23312 0.54017 0.83625 0.0
C795 C 0.31115 0.59556 0.89729 0.0
H796 H 0.25486 0.64561 0.83546 0.0
C797 C 0.29814 0.53528 0.89811 0.0
C798 C 0.26894 0.51566 0.87677 0.0
H799 H 0.33105 0.61156 0.9156 0.0
H800 H 0.30809 0.50585 0.91693 0.0
C801 C 0.25583 0.55474 0.85285 0.0
C802 C 0.21773 0.40685 0.41727 0.0
C803 C 0.20874 0.44944 0.39398 0.0
H804 H 0.21443 0.31436 0.43141 0.0
C805 C 0.18277 0.43352 0.36928 0.0
H806 H 0.23813 0.41809 0.43622 0.0
C807 C 0.16958 0.37354 0.36616 0.0
C808 C 0.1826 0.32968 0.38769 0.0
H809 H 0.17628 0.46566 0.35071 0.0
H810 H 0.15245 0.36059 0.34565 0.0
C811 C 0.20467 0.34746 0.41419 0.0
C812 C 0.29538 0.43949 0.10414 0.0
C813 C 0.27802 0.46827 0.13 0.0
H814 H 0.32215 0.35833 0.08668 0.0
C815 C 0.27912 0.44011 0.15956 0.0
H816 H 0.29422 0.46024 0.08109 0.0
C817 C 0.29379 0.38113 0.1626 0.0
C818 C 0.30895 0.35102 0.1363 0.0
H819 H 0.26531 0.46147 0.17964 0.0
H820 H 0.2909 0.35776 0.18488 0.0
C821 C 0.31141 0.38151 0.10741 0.0
C822 C 0.22183 0.62019 0.6564 0.0
C823 C 0.18857 0.64015 0.63897 0.0
H824 H 0.26528 0.5503 0.66349 0.0
C825 C 0.16921 0.59944 0.61854 0.0
H826 H 0.23726 0.6505 0.67229 0.0
C827 C 0.18561 0.54187 0.61324 0.0
C828 C 0.22126 0.52486 0.62847 0.0
H829 H 0.14377 0.614 0.60452 0.0
H830 H 0.17226 0.51277 0.59572 0.0
C831 C 0.23801 0.56312 0.65117 0.0
loop_
_geom_bond_atom_site_label_1
_geom_bond_atom_site_label_2
_geom_bond_distance
_geom_bond_site_symmetry_2
_ccdc_geom_bond_type
Sc0 O3 2.025 . S
Sc0 O10 2.105 . S
Sc0 O13 2.105 . S
Sc0 O16 2.105 . S
Sc0 O19 2.105 . S
Sc1 O3 2.025 . S
Sc1 O11 2.105 . S
Sc1 O15 2.105 . S
Sc1 O17 2.105 . S
Sc1 O21 2.105 . S
Sc2 O3 2.025 . S
Sc2 O12 2.105 . S
Sc2 O14 2.105 . S
Sc2 O18 2.105 . S
Sc2 O20 2.105 . S
O3 Sc0 2.025 . S
O3 Sc1 2.025 . S
O3 Sc2 2.025 . S
C4 O10 1.268 . S
C4 O20 1.268 . S
C5 O11 1.268 . S
C5 O19 1.268 . S
C6 O12 1.268 . S
C6 O21 1.268 . S
C7 O13 1.268 . S
C7 O17 1.268 . S
C8 O14 1.268 . S
C8 O16 1.268 . S
C9 O15 1.268 . S
C9 O18 1.268 . S
O10 Sc0 2.105 . S
O10 C4 1.268 . S
O11 Sc1 2.105 . S
O11 C5 1.268 . S
O12 Sc2 2.105 . S
O12 C6 1.268 . S
O13 Sc0 2.105 . S
O13 C7 1.268 . S
O14 Sc2 2.105 . S
O14 C8 1.268 . S
O15 Sc1 2.105 . S
O15 C9 1.268 . S
O16 Sc0 2.105 . S
O16 C8 1.268 . S
O17 Sc1 2.105 . S
O17 C7 1.268 . S
O18 Sc2 2.105 . S
O18 C9 1.268 . S
O19 Sc0 2.105 . S
O19 C5 1.268 . S
O20 Sc2 2.105 . S
O20 C4 1.268 . S
O21 Sc1 2.105 . S
O21 C6 1.268 . S
Sc22 O25 2.025 . S
Sc22 O32 2.105 . S
Sc22 O35 2.105 . S
Sc22 O38 2.105 . S
Sc22 O41 2.105 . S
Sc23 O25 2.025 . S
Sc23 O33 2.105 . S
Sc23 O37 2.105 . S
Sc23 O39 2.105 . S
Sc23 O43 2.105 . S
Sc24 O25 2.025 . S
Sc24 O34 2.105 . S
Sc24 O36 2.105 . S
Sc24 O40 2.105 . S
Sc24 O42 2.105 . S
O25 Sc22 2.025 . S
O25 Sc23 2.025 . S
O25 Sc24 2.025 . S
C26 O32 1.268 . S
C26 O42 1.268 . S
C27 O33 1.268 . S
C27 O41 1.268 . S
C28 O34 1.268 . S
C28 O43 1.268 . S
C29 O35 1.268 . S
C29 O39 1.268 . S
C30 O36 1.268 . S
C30 O38 1.268 . S
C31 O37 1.268 . S
C31 O40 1.268 . S
O32 Sc22 2.105 . S
O32 C26 1.268 . S
O33 Sc23 2.105 . S
O33 C27 1.268 . S
O34 Sc24 2.105 . S
O34 C28 1.268 . S
O35 Sc22 2.105 . S
O35 C29 1.268 . S
O36 Sc24 2.105 . S
O36 C30 1.268 . S
O37 Sc23 2.105 . S
O37 C31 1.268 . S
O38 Sc22 2.105 . S
O38 C30 1.268 . S
O39 Sc23 2.105 . S
O39 C29 1.268 . S
O40 Sc24 2.105 . S
O40 C31 1.268 . S
O41 Sc22 2.105 . S
O41 C27 1.268 . S
O42 Sc24 2.105 . S
O42 C26 1.268 . S
O43 Sc23 2.105 . S
O43 C28 1.268 . S
Sc44 O47 2.025 . S
Sc44 O54 2.105 . S
Sc44 O57 2.105 . S
Sc44 O60 2.105 . S
Sc44 O63 2.105 . S
Sc45 O47 2.025 . S
Sc45 O55 2.105 . S
Sc45 O59 2.105 . S
Sc45 O61 2.105 . S
Sc45 O65 2.105 . S
Sc46 O47 2.025 . S
Sc46 O56 2.105 . S
Sc46 O58 2.105 . S
Sc46 O62 2.105 . S
Sc46 O64 2.105 . S
O47 Sc44 2.025 . S
O47 Sc45 2.025 . S
O47 Sc46 2.025 . S
C48 O54 1.268 . S
C48 O64 1.268 . S
C49 O55 1.268 . S
C49 O63 1.268 . S
C50 O56 1.268 . S
C50 O65 1.268 . S
C51 O57 1.268 . S
C51 O61 1.268 . S
C52 O58 1.268 . S
C52 O60 1.268 . S
C53 O59 1.268 . S
C53 O62 1.268 . S
O54 Sc44 2.105 . S
O54 C48 1.268 . S
O55 Sc45 2.105 . S
O55 C49 1.268 . S
O56 Sc46 2.105 . S
O56 C50 1.268 . S
O57 Sc44 2.105 . S
O57 C51 1.268 . S
O58 Sc46 2.105 . S
O58 C52 1.268 . S
O59 Sc45 2.105 . S
O59 C53 1.268 . S
O60 Sc44 2.105 . S
O60 C52 1.268 . S
O61 Sc45 2.105 . S
O61 C51 1.268 . S
O62 Sc46 2.105 . S
O62 C53 1.268 . S
O63 Sc44 2.105 . S
O63 C49 1.268 . S
O64 Sc46 2.105 . S
O64 C48 1.268 . S
O65 Sc45 2.105 . S
O65 C50 1.268 . S
Sc66 O69 2.025 . S
Sc66 O76 2.105 . S
Sc66 O79 2.105 . S
Sc66 O82 2.105 . S
Sc66 O85 2.105 . S
Sc67 O69 2.025 . S
Sc67 O77 2.105 . S
Sc67 O81 2.105 . S
Sc67 O83 2.105 . S
Sc67 O87 2.105 . S
Sc68 O69 2.025 . S
Sc68 O78 2.105 . S
Sc68 O80 2.105 . S
Sc68 O84 2.105 . S
Sc68 O86 2.105 . S
O69 Sc66 2.025 . S
O69 Sc67 2.025 . S
O69 Sc68 2.025 . S
C70 O76 1.268 . S
C70 O86 1.268 . S
C71 O77 1.268 . S
C71 O85 1.268 . S
C72 O78 1.268 . S
C72 O87 1.268 . S
C73 O79 1.268 . S
C73 O83 1.268 . S
C74 O80 1.268 . S
C74 O82 1.268 . S
C75 O81 1.268 . S
C75 O84 1.268 . S
O76 Sc66 2.105 . S
O76 C70 1.268 . S
O77 Sc67 2.105 . S
O77 C71 1.268 . S
O78 Sc68 2.105 . S
O78 C72 1.268 . S
O79 Sc66 2.105 . S
O79 C73 1.268 . S
O80 Sc68 2.105 . S
O80 C74 1.268 . S
O81 Sc67 2.105 . S
O81 C75 1.268 . S
O82 Sc66 2.105 . S
O82 C74 1.268 . S
O83 Sc67 2.105 . S
O83 C73 1.268 . S
O84 Sc68 2.105 . S
O84 C75 1.268 . S
O85 Sc66 2.105 . S
O85 C71 1.268 . S
O86 Sc68 2.105 . S
O86 C70 1.268 . S
O87 Sc67 2.105 . S
O87 C72 1.268 . S
Sc88 O91 2.025 . S
Sc88 O98 2.105 . S
Sc88 O101 2.105 . S
Sc88 O104 2.105 . S
Sc88 O107 2.105 . S
Sc89 O91 2.025 . S
Sc89 O99 2.105 . S
Sc89 O103 2.105 . S
Sc89 O105 2.105 . S
Sc89 O109 2.105 . S
Sc90 O91 2.025 . S
Sc90 O100 2.105 . S
Sc90 O102 2.105 . S
Sc90 O106 2.105 . S
Sc90 O108 2.105 . S
O91 Sc88 2.025 . S
O91 Sc89 2.025 . S
O91 Sc90 2.025 . S
C92 O98 1.268 . S
C92 O108 1.268 . S
C93 O99 1.268 . S
C93 O107 1.268 . S
C94 O100 1.268 . S
C94 O109 1.268 . S
C95 O101 1.268 . S
C95 O105 1.268 . S
C96 O102 1.268 . S
C96 O104 1.268 . S
C97 O103 1.268 . S
C97 O106 1.268 . S
O98 Sc88 2.105 . S
O98 C92 1.268 . S
O99 Sc89 2.105 . S
O99 C93 1.268 . S
O100 Sc90 2.105 . S
O100 C94 1.268 . S
O101 Sc88 2.105 . S
O101 C95 1.268 . S
O102 Sc90 2.105 . S
O102 C96 1.268 . S
O103 Sc89 2.105 . S
O103 C97 1.268 . S
O104 Sc88 2.105 . S
O104 C96 1.268 . S
O105 Sc89 2.105 . S
O105 C95 1.268 . S
O106 Sc90 2.105 . S
O106 C97 1.268 . S
O107 Sc88 2.105 . S
O107 C93 1.268 . S
O108 Sc90 2.105 . S
O108 C92 1.268 . S
O109 Sc89 2.105 . S
O109 C94 1.268 . S
Sc110 O113 2.025 . S
Sc110 O120 2.105 . S
Sc110 O123 2.105 . S
Sc110 O126 2.105 . S
Sc110 O129 2.105 . S
Sc111 O113 2.025 . S
Sc111 O121 2.105 . S
Sc111 O125 2.105 . S
Sc111 O127 2.105 . S
Sc111 O131 2.105 . S
Sc112 O113 2.025 . S
Sc112 O122 2.105 . S
Sc112 O124 2.105 . S
Sc112 O128 2.105 . S
Sc112 O130 2.105 . S
O113 Sc110 2.025 . S
O113 Sc111 2.025 . S
O113 Sc112 2.025 . S
C114 O120 1.268 . S
C114 O130 1.268 . S
C115 O121 1.268 . S
C115 O129 1.268 . S
C116 O122 1.268 . S
C116 O131 1.268 . S
C117 O123 1.268 . S
C117 O127 1.268 . S
C118 O124 1.268 . S
C118 O126 1.268 . S
C119 O125 1.268 . S
C119 O128 1.268 . S
O120 Sc110 2.105 . S
O120 C114 1.268 . S
O121 Sc111 2.105 . S
O121 C115 1.268 . S
O122 Sc112 2.105 . S
O122 C116 1.268 . S
O123 Sc110 2.105 . S
O123 C117 1.268 . S
O124 Sc112 2.105 . S
O124 C118 1.268 . S
O125 Sc111 2.105 . S
O125 C119 1.268 . S
O126 Sc110 2.105 . S
O126 C118 1.268 . S
O127 Sc111 2.105 . S
O127 C117 1.268 . S
O128 Sc112 2.105 . S
O128 C119 1.268 . S
O129 Sc110 2.105 . S
O129 C115 1.268 . S
O130 Sc112 2.105 . S
O130 C114 1.268 . S
O131 Sc111 2.105 . S
O131 C116 1.268 . S
Sc132 O135 2.025 . S
Sc132 O142 2.105 . S
Sc132 O145 2.105 . S
Sc132 O148 2.105 . S
Sc132 O151 2.105 . S
Sc133 O135 2.025 . S
Sc133 O143 2.105 . S
Sc133 O147 2.105 . S
Sc133 O149 2.105 . S
Sc133 O153 2.105 . S
Sc134 O135 2.025 . S
Sc134 O144 2.105 . S
Sc134 O146 2.105 . S
Sc134 O150 2.105 . S
Sc134 O152 2.105 . S
O135 Sc132 2.025 . S
O135 Sc133 2.025 . S
O135 Sc134 2.025 . S
C136 O142 1.268 . S
C136 O152 1.268 . S
C137 O143 1.268 . S
C137 O151 1.268 . S
C138 O144 1.268 . S
C138 O153 1.268 . S
C139 O145 1.268 . S
C139 O149 1.268 . S
C140 O146 1.268 . S
C140 O148 1.268 . S
C141 O147 1.268 . S
C141 O150 1.268 . S
O142 Sc132 2.105 . S
O142 C136 1.268 . S
O143 Sc133 2.105 . S
O143 C137 1.268 . S
O144 Sc134 2.105 . S
O144 C138 1.268 . S
O145 Sc132 2.105 . S
O145 C139 1.268 . S
O146 Sc134 2.105 . S
O146 C140 1.268 . S
O147 Sc133 2.105 . S
O147 C141 1.268 . S
O148 Sc132 2.105 . S
O148 C140 1.268 . S
O149 Sc133 2.105 . S
O149 C139 1.268 . S
O150 Sc134 2.105 . S
O150 C141 1.268 . S
O151 Sc132 2.105 . S
O151 C137 1.268 . S
O152 Sc134 2.105 . S
O152 C136 1.268 . S
O153 Sc133 2.105 . S
O153 C138 1.268 . S
Sc154 O157 2.025 . S
Sc154 O164 2.105 . S
Sc154 O167 2.105 . S
Sc154 O170 2.105 . S
Sc154 O173 2.105 . S
Sc155 O157 2.025 . S
Sc155 O165 2.105 . S
Sc155 O169 2.105 . S
Sc155 O171 2.105 . S
Sc155 O175 2.105 . S
Sc156 O157 2.025 . S
Sc156 O166 2.105 . S
Sc156 O168 2.105 . S
Sc156 O172 2.105 . S
Sc156 O174 2.105 . S
O157 Sc154 2.025 . S
O157 Sc155 2.025 . S
O157 Sc156 2.025 . S
C158 O164 1.268 . S
C158 O174 1.268 . S
C159 O165 1.268 . S
C159 O173 1.268 . S
C160 O166 1.268 . S
C160 O175 1.268 . S
C161 O167 1.268 . S
C161 O171 1.268 . S
C162 O168 1.268 . S
C162 O170 1.268 . S
C163 O169 1.268 . S
C163 O172 1.268 . S
O164 Sc154 2.105 . S
O164 C158 1.268 . S
O165 Sc155 2.105 . S
O165 C159 1.268 . S
O166 Sc156 2.105 . S
O166 C160 1.268 . S
O167 Sc154 2.105 . S
O167 C161 1.268 . S
O168 Sc156 2.105 . S
O168 C162 1.268 . S
O169 Sc155 2.105 . S
O169 C163 1.268 . S
O170 Sc154 2.105 . S
O170 C162 1.268 . S
O171 Sc155 2.105 . S
O171 C161 1.268 . S
O172 Sc156 2.105 . S
O172 C163 1.268 . S
O173 Sc154 2.105 . S
O173 C159 1.268 . S
O174 Sc156 2.105 . S
O174 C158 1.268 . S
O175 Sc155 2.105 . S
O175 C160 1.268 . S
Sc176 O179 2.025 . S
Sc176 O186 2.105 . S
Sc176 O189 2.105 . S
Sc176 O192 2.105 . S
Sc176 O195 2.105 . S
Sc177 O179 2.025 . S
Sc177 O187 2.105 . S
Sc177 O191 2.105 . S
Sc177 O193 2.105 . S
Sc177 O197 2.105 . S
Sc178 O179 2.025 . S
Sc178 O188 2.105 . S
Sc178 O190 2.105 . S
Sc178 O194 2.105 . S
Sc178 O196 2.105 . S
O179 Sc176 2.025 . S
O179 Sc177 2.025 . S
O179 Sc178 2.025 . S
C180 O186 1.268 . S
C180 O196 1.268 . S
C181 O187 1.268 . S
C181 O195 1.268 . S
C182 O188 1.268 . S
C182 O197 1.268 . S
C183 O189 1.268 . S
C183 O193 1.268 . S
C184 O190 1.268 . S
C184 O192 1.268 . S
C185 O191 1.268 . S
C185 O194 1.268 . S
O186 Sc176 2.105 . S
O186 C180 1.268 . S
O187 Sc177 2.105 . S
O187 C181 1.268 . S
O188 Sc178 2.105 . S
O188 C182 1.268 . S
O189 Sc176 2.105 . S
O189 C183 1.268 . S
O190 Sc178 2.105 . S
O190 C184 1.268 . S
O191 Sc177 2.105 . S
O191 C185 1.268 . S
O192 Sc176 2.105 . S
O192 C184 1.268 . S
O193 Sc177 2.105 . S
O193 C183 1.268 . S
O194 Sc178 2.105 . S
O194 C185 1.268 . S
O195 Sc176 2.105 . S
O195 C181 1.268 . S
O196 Sc178 2.105 . S
O196 C180 1.268 . S
O197 Sc177 2.105 . S
O197 C182 1.268 . S
Sc198 O201 2.025 . S
Sc198 O208 2.105 . S
Sc198 O211 2.105 . S
Sc198 O214 2.105 . S
Sc198 O217 2.105 . S
Sc199 O201 2.025 . S
Sc199 O209 2.105 . S
Sc199 O213 2.105 . S
Sc199 O215 2.105 . S
Sc199 O219 2.105 . S
Sc200 O201 2.025 . S
Sc200 O210 2.105 . S
Sc200 O212 2.105 . S
Sc200 O216 2.105 . S
Sc200 O218 2.105 . S
O201 Sc198 2.025 . S
O201 Sc199 2.025 . S
O201 Sc200 2.025 . S
C202 O208 1.268 . S
C202 O218 1.268 . S
C203 O209 1.268 . S
C203 O217 1.268 . S
C204 O210 1.268 . S
C204 O219 1.268 . S
C205 O211 1.268 . S
C205 O215 1.268 . S
C206 O212 1.268 . S
C206 O214 1.268 . S
C207 O213 1.268 . S
C207 O216 1.268 . S
O208 Sc198 2.105 . S
O208 C202 1.268 . S
O209 Sc199 2.105 . S
O209 C203 1.268 . S
O210 Sc200 2.105 . S
O210 C204 1.268 . S
O211 Sc198 2.105 . S
O211 C205 1.268 . S
O212 Sc200 2.105 . S
O212 C206 1.268 . S
O213 Sc199 2.105 . S
O213 C207 1.268 . S
O214 Sc198 2.105 . S
O214 C206 1.268 . S
O215 Sc199 2.105 . S
O215 C205 1.268 . S
O216 Sc200 2.105 . S
O216 C207 1.268 . S
O217 Sc198 2.105 . S
O217 C203 1.268 . S
O218 Sc200 2.105 . S
O218 C202 1.268 . S
O219 Sc199 2.105 . S
O219 C204 1.268 . S
Sc220 O223 2.025 . S
Sc220 O230 2.105 . S
Sc220 O233 2.105 . S
Sc220 O236 2.105 . S
Sc220 O239 2.105 . S
Sc221 O223 2.025 . S
Sc221 O231 2.105 . S
Sc221 O235 2.105 . S
Sc221 O237 2.105 . S
Sc221 O241 2.105 . S
Sc222 O223 2.025 . S
Sc222 O232 2.105 . S
Sc222 O234 2.105 . S
Sc222 O238 2.105 . S
Sc222 O240 2.105 . S
O223 Sc220 2.025 . S
O223 Sc221 2.025 . S
O223 Sc222 2.025 . S
C224 O230 1.268 . S
C224 O240 1.268 . S
C225 O231 1.268 . S
C225 O239 1.268 . S
C226 O232 1.268 . S
C226 O241 1.268 . S
C227 O233 1.268 . S
C227 O237 1.268 . S
C228 O234 1.268 . S
C228 O236 1.268 . S
C229 O235 1.268 . S
C229 O238 1.268 . S
O230 Sc220 2.105 . S
O230 C224 1.268 . S
O231 Sc221 2.105 . S
O231 C225 1.268 . S
O232 Sc222 2.105 . S
O232 C226 1.268 . S
O233 Sc220 2.105 . S
O233 C227 1.268 . S
O234 Sc222 2.105 . S
O234 C228 1.268 . S
O235 Sc221 2.105 . S
O235 C229 1.268 . S
O236 Sc220 2.105 . S
O236 C228 1.268 . S
O237 Sc221 2.105 . S
O237 C227 1.268 . S
O238 Sc222 2.105 . S
O238 C229 1.268 . S
O239 Sc220 2.105 . S
O239 C225 1.268 . S
O240 Sc222 2.105 . S
O240 C224 1.268 . S
O241 Sc221 2.105 . S
O241 C226 1.268 . S
Sc242 O245 2.025 . S
Sc242 O252 2.105 . S
Sc242 O255 2.105 . S
Sc242 O258 2.105 . S
Sc242 O261 2.105 . S
Sc243 O245 2.025 . S
Sc243 O253 2.105 . S
Sc243 O257 2.105 . S
Sc243 O259 2.105 . S
Sc243 O263 2.105 . S
Sc244 O245 2.025 . S
Sc244 O254 2.105 . S
Sc244 O256 2.105 . S
Sc244 O260 2.105 . S
Sc244 O262 2.105 . S
O245 Sc242 2.025 . S
O245 Sc243 2.025 . S
O245 Sc244 2.025 . S
C246 O252 1.268 . S
C246 O262 1.268 . S
C247 O253 1.268 . S
C247 O261 1.268 . S
C248 O254 1.268 . S
C248 O263 1.268 . S
C249 O255 1.268 . S
C249 O259 1.268 . S
C250 O256 1.268 . S
C250 O258 1.268 . S
C251 O257 1.268 . S
C251 O260 1.268 . S
O252 Sc242 2.105 . S
O252 C246 1.268 . S
O253 Sc243 2.105 . S
O253 C247 1.268 . S
O254 Sc244 2.105 . S
O254 C248 1.268 . S
O255 Sc242 2.105 . S
O255 C249 1.268 . S
O256 Sc244 2.105 . S
O256 C250 1.268 . S
O257 Sc243 2.105 . S
O257 C251 1.268 . S
O258 Sc242 2.105 . S
O258 C250 1.268 . S
O259 Sc243 2.105 . S
O259 C249 1.268 . S
O260 Sc244 2.105 . S
O260 C251 1.268 . S
O261 Sc242 2.105 . S
O261 C247 1.268 . S
O262 Sc244 2.105 . S
O262 C246 1.268 . S
O263 Sc243 2.105 . S
O263 C248 1.268 . S
Sc264 O267 2.025 . S
Sc264 O274 2.105 . S
Sc264 O277 2.105 . S
Sc264 O280 2.105 . S
Sc264 O283 2.105 . S
Sc265 O267 2.025 . S
Sc265 O275 2.105 . S
Sc265 O279 2.105 . S
Sc265 O281 2.105 . S
Sc265 O285 2.105 . S
Sc266 O267 2.025 . S
Sc266 O276 2.105 . S
Sc266 O278 2.105 . S
Sc266 O282 2.105 . S
Sc266 O284 2.105 . S
O267 Sc264 2.025 . S
O267 Sc265 2.025 . S
O267 Sc266 2.025 . S
C268 O274 1.268 . S
C268 O284 1.268 . S
C269 O275 1.268 . S
C269 O283 1.268 . S
C270 O276 1.268 . S
C270 O285 1.268 . S
C271 O277 1.268 . S
C271 O281 1.268 . S
C272 O278 1.268 . S
C272 O280 1.268 . S
C273 O279 1.268 . S
C273 O282 1.268 . S
O274 Sc264 2.105 . S
O274 C268 1.268 . S
O275 Sc265 2.105 . S
O275 C269 1.268 . S
O276 Sc266 2.105 . S
O276 C270 1.268 . S
O277 Sc264 2.105 . S
O277 C271 1.268 . S
O278 Sc266 2.105 . S
O278 C272 1.268 . S
O279 Sc265 2.105 . S
O279 C273 1.268 . S
O280 Sc264 2.105 . S
O280 C272 1.268 . S
O281 Sc265 2.105 . S
O281 C271 1.268 . S
O282 Sc266 2.105 . S
O282 C273 1.268 . S
O283 Sc264 2.105 . S
O283 C269 1.268 . S
O284 Sc266 2.105 . S
O284 C268 1.268 . S
O285 Sc265 2.105 . S
O285 C270 1.268 . S
Sc286 O289 2.025 . S
Sc286 O296 2.105 . S
Sc286 O299 2.105 . S
Sc286 O302 2.105 . S
Sc286 O305 2.105 . S
Sc287 O289 2.025 . S
Sc287 O297 2.105 . S
Sc287 O301 2.105 . S
Sc287 O303 2.105 . S
Sc287 O307 2.105 . S
Sc288 O289 2.025 . S
Sc288 O298 2.105 . S
Sc288 O300 2.105 . S
Sc288 O304 2.105 . S
Sc288 O306 2.105 . S
O289 Sc286 2.025 . S
O289 Sc287 2.025 . S
O289 Sc288 2.025 . S
C290 O296 1.268 . S
C290 O306 1.268 . S
C291 O297 1.268 . S
C291 O305 1.268 . S
C292 O298 1.268 . S
C292 O307 1.268 . S
C293 O299 1.268 . S
C293 O303 1.268 . S
C294 O300 1.268 . S
C294 O302 1.268 . S
C295 O301 1.268 . S
C295 O304 1.268 . S
O296 Sc286 2.105 . S
O296 C290 1.268 . S
O297 Sc287 2.105 . S
O297 C291 1.268 . S
O298 Sc288 2.105 . S
O298 C292 1.268 . S
O299 Sc286 2.105 . S
O299 C293 1.268 . S
O300 Sc288 2.105 . S
O300 C294 1.268 . S
O301 Sc287 2.105 . S
O301 C295 1.268 . S
O302 Sc286 2.105 . S
O302 C294 1.268 . S
O303 Sc287 2.105 . S
O303 C293 1.268 . S
O304 Sc288 2.105 . S
O304 C295 1.268 . S
O305 Sc286 2.105 . S
O305 C291 1.268 . S
O306 Sc288 2.105 . S
O306 C290 1.268 . S
O307 Sc287 2.105 . S
O307 C292 1.268 . S
Sc308 O311 2.025 . S
Sc308 O318 2.105 . S
Sc308 O321 2.105 . S
Sc308 O324 2.105 . S
Sc308 O327 2.105 . S
Sc309 O311 2.025 . S
Sc309 O319 2.105 . S
Sc309 O323 2.105 . S
Sc309 O325 2.105 . S
Sc309 O329 2.105 . S
Sc310 O311 2.025 . S
Sc310 O320 2.105 . S
Sc310 O322 2.105 . S
Sc310 O326 2.105 . S
Sc310 O328 2.105 . S
O311 Sc308 2.025 . S
O311 Sc309 2.025 . S
O311 Sc310 2.025 . S
C312 O318 1.268 . S
C312 O328 1.268 . S
C313 O319 1.268 . S
C313 O327 1.268 . S
C314 O320 1.268 . S
C314 O329 1.268 . S
C315 O321 1.268 . S
C315 O325 1.268 . S
C316 O322 1.268 . S
C316 O324 1.268 . S
C317 O323 1.268 . S
C317 O326 1.268 . S
O318 Sc308 2.105 . S
O318 C312 1.268 . S
O319 Sc309 2.105 . S
O319 C313 1.268 . S
O320 Sc310 2.105 . S
O320 C314 1.268 . S
O321 Sc308 2.105 . S
O321 C315 1.268 . S
O322 Sc310 2.105 . S
O322 C316 1.268 . S
O323 Sc309 2.105 . S
O323 C317 1.268 . S
O324 Sc308 2.105 . S
O324 C316 1.268 . S
O325 Sc309 2.105 . S
O325 C315 1.268 . S
O326 Sc310 2.105 . S
O326 C317 1.268 . S
O327 Sc308 2.105 . S
O327 C313 1.268 . S
O328 Sc310 2.105 . S
O328 C312 1.268 . S
O329 Sc309 2.105 . S
O329 C314 1.268 . S
Sc330 O333 2.025 . S
Sc330 O340 2.105 . S
Sc330 O343 2.105 . S
Sc330 O346 2.105 . S
Sc330 O349 2.105 . S
Sc331 O333 2.025 . S
Sc331 O341 2.105 . S
Sc331 O345 2.105 . S
Sc331 O347 2.105 . S
Sc331 O351 2.105 . S
Sc332 O333 2.025 . S
Sc332 O342 2.105 . S
Sc332 O344 2.105 . S
Sc332 O348 2.105 . S
Sc332 O350 2.105 . S
O333 Sc330 2.025 . S
O333 Sc331 2.025 . S
O333 Sc332 2.025 . S
C334 O340 1.268 . S
C334 O350 1.268 . S
C335 O341 1.268 . S
C335 O349 1.268 . S
C336 O342 1.268 . S
C336 O351 1.268 . S
C337 O343 1.268 . S
C337 O347 1.268 . S
C338 O344 1.268 . S
C338 O346 1.268 . S
C339 O345 1.268 . S
C339 O348 1.268 . S
O340 Sc330 2.105 . S
O340 C334 1.268 . S
O341 Sc331 2.105 . S
O341 C335 1.268 . S
O342 Sc332 2.105 . S
O342 C336 1.268 . S
O343 Sc330 2.105 . S
O343 C337 1.268 . S
O344 Sc332 2.105 . S
O344 C338 1.268 . S
O345 Sc331 2.105 . S
O345 C339 1.268 . S
O346 Sc330 2.105 . S
O346 C338 1.268 . S
O347 Sc331 2.105 . S
O347 C337 1.268 . S
O348 Sc332 2.105 . S
O348 C339 1.268 . S
O349 Sc330 2.105 . S
O349 C335 1.268 . S
O350 Sc332 2.105 . S
O350 C334 1.268 . S
O351 Sc331 2.105 . S
O351 C336 1.268 . S
C352 C353 1.387 . S
C352 H356 0.950 . S
C352 C361 1.390 1_554 S
C353 C352 1.387 . S
C353 C355 1.387 . S
H354 C361 0.950 . S
C355 C353 1.387 . S
C355 C357 1.390 1_554 S
C355 H359 0.950 . S
H356 C352 0.950 . S
C357 C355 1.390 1_556 S
C357 C358 1.387 . S
C357 H360 0.950 . S
C358 C357 1.387 . S
C358 C361 1.387 . S
H359 C355 0.950 . S
H360 C357 0.950 . S
C361 C352 1.390 1_556 S
C361 H354 0.950 . S
C361 C358 1.387 . S
C362 C363 1.387 . S
C362 H366 0.950 . S
C362 C371 1.390 . S
C363 C362 1.387 . S
C363 C365 1.387 . S
H364 C371 0.950 . S
C365 C363 1.387 . S
C365 C367 1.390 . S
C365 H369 0.950 . S
H366 C362 0.950 . S
C367 C365 1.390 . S
C367 C368 1.387 . S
C367 H370 0.950 . S
C368 C367 1.387 . S
C368 C371 1.387 . S
H369 C365 0.950 . S
H370 C367 0.950 . S
C371 C362 1.390 . S
C371 H364 0.950 . S
C371 C368 1.387 . S
C372 C373 1.387 . S
C372 H376 0.950 . S
C372 C381 1.390 1_554 S
C373 C372 1.387 . S
C373 C375 1.387 . S
H374 C381 0.950 . S
C375 C373 1.387 . S
C375 C377 1.390 1_554 S
C375 H379 0.950 . S
H376 C372 0.950 . S
C377 C375 1.390 1_556 S
C377 C378 1.387 . S
C377 H380 0.950 . S
C378 C377 1.387 . S
C378 C381 1.387 . S
H379 C375 0.950 . S
H380 C377 0.950 . S
C381 C372 1.390 1_556 S
C381 H374 0.950 . S
C381 C378 1.387 . S
C382 C383 1.387 . S
C382 H386 0.950 . S
C382 C391 1.390 . S
C383 C382 1.387 . S
C383 C385 1.387 . S
H384 C391 0.950 . S
C385 C383 1.387 . S
C385 C387 1.390 . S
C385 H389 0.950 . S
H386 C382 0.950 . S
C387 C385 1.390 . S
C387 C388 1.387 . S
C387 H390 0.950 . S
C388 C387 1.387 . S
C388 C391 1.387 . S
H389 C385 0.950 . S
H390 C387 0.950 . S
C391 C382 1.390 . S
C391 H384 0.950 . S
C391 C388 1.387 . S
C392 C393 1.387 . S
C392 H396 0.950 . S
C392 C401 1.390 1_556 S
C393 C392 1.387 . S
C393 C395 1.387 . S
H394 C401 0.950 . S
C395 C393 1.387 . S
C395 C397 1.390 1_556 S
C395 H399 0.950 . S
H396 C392 0.950 . S
C397 C395 1.390 1_554 S
C397 C398 1.387 . S
C397 H400 0.950 . S
C398 C397 1.387 . S
C398 C401 1.387 . S
H399 C395 0.950 . S
H400 C397 0.950 . S
C401 C392 1.390 1_554 S
C401 H394 0.950 . S
C401 C398 1.387 . S
C402 C403 1.387 . S
C402 H406 0.950 . S
C402 C411 1.390 . S
C403 C402 1.387 . S
C403 C405 1.387 . S
H404 C411 0.950 . S
C405 C403 1.387 . S
C405 C407 1.390 . S
C405 H409 0.950 . S
H406 C402 0.950 . S
C407 C405 1.390 . S
C407 C408 1.387 . S
C407 H410 0.950 . S
C408 C407 1.387 . S
C408 C411 1.387 . S
H409 C405 0.950 . S
H410 C407 0.950 . S
C411 C402 1.390 . S
C411 H404 0.950 . S
C411 C408 1.387 . S
C412 C413 1.387 . S
C412 H416 0.950 . S
C412 C421 1.390 1_554 S
C413 C412 1.387 . S
C413 C415 1.387 . S
H414 C421 0.950 . S
C415 C413 1.387 . S
C415 C417 1.390 1_554 S
C415 H419 0.950 . S
H416 C412 0.950 . S
C417 C415 1.390 1_556 S
C417 C418 1.387 . S
C417 H420 0.950 . S
C418 C417 1.387 . S
C418 C421 1.387 . S
H419 C415 0.950 . S
H420 C417 0.950 . S
C421 C412 1.390 1_556 S
C421 H414 0.950 . S
C421 C418 1.387 . S
C422 C423 1.387 . S
C422 H426 0.950 . S
C422 C431 1.390 . S
C423 C422 1.387 . S
C423 C425 1.387 . S
H424 C431 0.950 . S
C425 C423 1.387 . S
C425 C427 1.390 . S
C425 H429 0.950 . S
H426 C422 0.950 . S
C427 C425 1.390 . S
C427 C428 1.387 . S
C427 H430 0.950 . S
C428 C427 1.387 . S
C428 C431 1.387 . S
H429 C425 0.950 . S
H430 C427 0.950 . S
C431 C422 1.390 . S
C431 H424 0.950 . S
C431 C428 1.387 . S
C432 C433 1.387 . S
C432 H436 0.950 . S
C432 C441 1.390 1_566 S
C433 C432 1.387 . S
C433 C435 1.387 . S
H434 C441 0.950 . S
C435 C433 1.387 . S
C435 C437 1.390 1_566 S
C435 H439 0.950 . S
H436 C432 0.950 . S
C437 C435 1.390 1_544 S
C437 C438 1.387 . S
C437 H440 0.950 . S
C438 C437 1.387 . S
C438 C441 1.387 . S
H439 C435 0.950 . S
H440 C437 0.950 . S
C441 C432 1.390 1_544 S
C441 H434 0.950 . S
C441 C438 1.387 . S
C442 C443 1.387 . S
C442 H446 0.950 . S
C442 C451 1.390 1_565 S
C443 C442 1.387 . S
C443 C445 1.387 . S
H444 C451 0.950 . S
C445 C443 1.387 . S
C445 C447 1.390 1_565 S
C445 H449 0.950 . S
H446 C442 0.950 . S
C447 C445 1.390 1_545 S
C447 C448 1.387 . S
C447 H450 0.950 . S
C448 C447 1.387 . S
C448 C451 1.387 . S
H449 C445 0.950 . S
H450 C447 0.950 . S
C451 C442 1.390 1_545 S
C451 H444 0.950 . S
C451 C448 1.387 . S
C452 C453 1.387 . S
C452 H456 0.950 . S
C452 C461 1.390 1_566 S
C453 C452 1.387 . S
C453 C455 1.387 . S
H454 C461 0.950 . S
C455 C453 1.387 . S
C455 C457 1.390 1_566 S
C455 H459 0.950 . S
H456 C452 0.950 . S
C457 C455 1.390 1_544 S
C457 C458 1.387 . S
C457 H460 0.950 . S
C458 C457 1.387 . S
C458 C461 1.387 . S
H459 C455 0.950 . S
H460 C457 0.950 . S
C461 C452 1.390 1_544 S
C461 H454 0.950 . S
C461 C458 1.387 . S
C462 C463 1.387 . S
C462 H466 0.950 . S
C462 C471 1.390 1_565 S
C463 C462 1.387 . S
C463 C465 1.387 . S
H464 C471 0.950 . S
C465 C463 1.387 . S
C465 C467 1.390 1_565 S
C465 H469 0.950 . S
H466 C462 0.950 . S
C467 C465 1.390 1_545 S
C467 C468 1.387 . S
C467 H470 0.950 . S
C468 C467 1.387 . S
C468 C471 1.387 . S
H469 C465 0.950 . S
H470 C467 0.950 . S
C471 C462 1.390 1_545 S
C471 H464 0.950 . S
C471 C468 1.387 . S
C472 C473 1.387 . S
C472 H476 0.950 . S
C472 C481 1.390 1_554 S
C473 C472 1.387 . S
C473 C475 1.387 . S
H474 C481 0.950 . S
C475 C473 1.387 . S
C475 C477 1.390 1_554 S
C475 H479 0.950 . S
H476 C472 0.950 . S
C477 C475 1.390 1_556 S
C477 C478 1.387 . S
C477 H480 0.950 . S
C478 C477 1.387 . S
C478 C481 1.387 . S
H479 C475 0.950 . S
H480 C477 0.950 . S
C481 C472 1.390 1_556 S
C481 H474 0.950 . S
C481 C478 1.387 . S
C482 C483 1.387 . S
C482 H486 0.950 . S
C482 C491 1.390 . S
C483 C482 1.387 . S
C483 C485 1.387 . S
H484 C491 0.950 . S
C485 C483 1.387 . S
C485 C487 1.390 . S
C485 H489 0.950 . S
H486 C482 0.950 . S
C487 C485 1.390 . S
C487 C488 1.387 . S
C487 H490 0.950 . S
C488 C487 1.387 . S
C488 C491 1.387 . S
H489 C485 0.950 . S
H490 C487 0.950 . S
C491 C482 1.390 . S
C491 H484 0.950 . S
C491 C488 1.387 . S
C492 C493 1.387 . S
C492 H496 0.950 . S
C492 C501 1.390 1_554 S
C493 C492 1.387 . S
C493 C495 1.387 . S
H494 C501 0.950 . S
C495 C493 1.387 . S
C495 C497 1.390 1_554 S
C495 H499 0.950 . S
H496 C492 0.950 . S
C497 C495 1.390 1_556 S
C497 C498 1.387 . S
C497 H500 0.950 . S
C498 C497 1.387 . S
C498 C501 1.387 . S
H499 C495 0.950 . S
H500 C497 0.950 . S
C501 C492 1.390 1_556 S
C501 H494 0.950 . S
C501 C498 1.387 . S
C502 C503 1.387 . S
C502 H506 0.950 . S
C502 C511 1.390 . S
C503 C502 1.387 . S
C503 C505 1.387 . S
H504 C511 0.950 . S
C505 C503 1.387 . S
C505 C507 1.390 . S
C505 H509 0.950 . S
H506 C502 0.950 . S
C507 C505 1.390 . S
C507 C508 1.387 . S
C507 H510 0.950 . S
C508 C507 1.387 . S
C508 C511 1.387 . S
H509 C505 0.950 . S
H510 C507 0.950 . S
C511 C502 1.390 . S
C511 H504 0.950 . S
C511 C508 1.387 . S
C512 C513 1.387 . S
C512 H516 0.950 . S
C512 C521 1.390 . S
C513 C512 1.387 . S
C513 C515 1.387 . S
H514 C521 0.950 . S
C515 C513 1.387 . S
C515 C517 1.390 . S
C515 H519 0.950 . S
H516 C512 0.950 . S
C517 C515 1.390 . S
C517 C518 1.387 . S
C517 H520 0.950 . S
C518 C517 1.387 . S
C518 C521 1.387 . S
H519 C515 0.950 . S
H520 C517 0.950 . S
C521 C512 1.390 . S
C521 H514 0.950 . S
C521 C518 1.387 . S
C522 C523 1.387 . S
C522 H526 0.950 . S
C522 C531 1.390 . S
C523 C522 1.387 . S
C523 C525 1.387 . S
H524 C531 0.950 . S
C525 C523 1.387 . S
C525 C527 1.390 . S
C525 H529 0.950 . S
H526 C522 0.950 . S
C527 C525 1.390 . S
C527 C528 1.387 . S
C527 H530 0.950 . S
C528 C527 1.387 . S
C528 C531 1.387 . S
H529 C525 0.950 . S
H530 C527 0.950 . S
C531 C522 1.390 . S
C531 H524 0.950 . S
C531 C528 1.387 . S
C532 C533 1.387 . S
C532 H536 0.950 . S
C532 C541 1.390 . S
C533 C532 1.387 . S
C533 C535 1.387 . S
H534 C541 0.950 . S
C535 C533 1.387 . S
C535 C537 1.390 . S
C535 H539 0.950 . S
H536 C532 0.950 . S
C537 C535 1.390 . S
C537 C538 1.387 . S
C537 H540 0.950 . S
C538 C537 1.387 . S
C538 C541 1.387 . S
H539 C535 0.950 . S
H540 C537 0.950 . S
C541 C532 1.390 . S
C541 H534 0.950 . S
C541 C538 1.387 . S
C542 C543 1.387 . S
C542 H546 0.950 . S
C542 C551 1.390 . S
C543 C542 1.387 . S
C543 C545 1.387 . S
H544 C551 0.950 . S
C545 C543 1.387 . S
C545 C547 1.390 . S
C545 H549 0.950 . S
H546 C542 0.950 . S
C547 C545 1.390 . S
C547 C548 1.387 . S
C547 H550 0.950 . S
C548 C547 1.387 . S
C548 C551 1.387 . S
H549 C545 0.950 . S
H550 C547 0.950 . S
C551 C542 1.390 . S
C551 H544 0.950 . S
C551 C548 1.387 . S
C552 C553 1.387 . S
C552 H556 0.950 . S
C552 C561 1.390 . S
C553 C552 1.387 . S
C553 C555 1.387 . S
H554 C561 0.950 . S
C555 C553 1.387 . S
C555 C557 1.390 . S
C555 H559 0.950 . S
H556 C552 0.950 . S
C557 C555 1.390 . S
C557 C558 1.387 . S
C557 H560 0.950 . S
C558 C557 1.387 . S
C558 C561 1.387 . S
H559 C555 0.950 . S
H560 C557 0.950 . S
C561 C552 1.390 . S
C561 H554 0.950 . S
C561 C558 1.387 . S
C562 C563 1.387 . S
C562 H566 0.950 . S
C562 C571 1.390 . S
C563 C562 1.387 . S
C563 C565 1.387 . S
H564 C571 0.950 . S
C565 C563 1.387 . S
C565 C567 1.390 . S
C565 H569 0.950 . S
H566 C562 0.950 . S
C567 C565 1.390 . S
C567 C568 1.387 . S
C567 H570 0.950 . S
C568 C567 1.387 . S
C568 C571 1.387 . S
H569 C565 0.950 . S
H570 C567 0.950 . S
C571 C562 1.390 . S
C571 H564 0.950 . S
C571 C568 1.387 . S
C572 C573 1.387 . S
C572 H576 0.950 . S
C572 C581 1.390 . S
C573 C572 1.387 . S
C573 C575 1.387 . S
H574 C581 0.950 . S
C575 C573 1.387 . S
C575 C577 1.390 . S
C575 H579 0.950 . S
H576 C572 0.950 . S
C577 C575 1.390 . S
C577 C578 1.387 . S
C577 H580 0.950 . S
C578 C577 1.387 . S
C578 C581 1.387 . S
H579 C575 0.950 . S
H580 C577 0.950 . S
C581 C572 1.390 . S
C581 H574 0.950 . S
C581 C578 1.387 . S
C582 C583 1.387 . S
C582 H586 0.950 . S
C582 C591 1.390 . S
C583 C582 1.387 . S
C583 C585 1.387 . S
H584 C591 0.950 . S
C585 C583 1.387 . S
C585 C587 1.390 . S
C585 H589 0.950 . S
H586 C582 0.950 . S
C587 C585 1.390 . S
C587 C588 1.387 . S
C587 H590 0.950 . S
C588 C587 1.387 . S
C588 C591 1.387 . S
H589 C585 0.950 . S
H590 C587 0.950 . S
C591 C582 1.390 . S
C591 H584 0.950 . S
C591 C588 1.387 . S
C592 C593 1.387 . S
C592 H596 0.950 . S
C592 C601 1.390 . S
C593 C592 1.387 . S
C593 C595 1.387 . S
H594 C601 0.950 . S
C595 C593 1.387 . S
C595 C597 1.390 . S
C595 H599 0.950 . S
H596 C592 0.950 . S
C597 C595 1.390 . S
C597 C598 1.387 . S
C597 H600 0.950 . S
C598 C597 1.387 . S
C598 C601 1.387 . S
H599 C595 0.950 . S
H600 C597 0.950 . S
C601 C592 1.390 . S
C601 H594 0.950 . S
C601 C598 1.387 . S
C602 C603 1.387 . S
C602 H606 0.950 . S
C602 C611 1.390 1_455 S
C603 C602 1.387 . S
C603 C605 1.387 . S
H604 C611 0.950 . S
C605 C603 1.387 . S
C605 C607 1.390 1_455 S
C605 H609 0.950 . S
H606 C602 0.950 . S
C607 C605 1.390 1_655 S
C607 C608 1.387 . S
C607 H610 0.950 . S
C608 C607 1.387 . S
C608 C611 1.387 . S
H609 C605 0.950 . S
H610 C607 0.950 . S
C611 C602 1.390 1_655 S
C611 H604 0.950 . S
C611 C608 1.387 . S
C612 C613 1.387 . S
C612 H616 0.950 . S
C612 C621 1.390 . S
C613 C612 1.387 . S
C613 C615 1.387 . S
H614 C621 0.950 . S
C615 C613 1.387 . S
C615 C617 1.390 . S
C615 H619 0.950 . S
H616 C612 0.950 . S
C617 C615 1.390 . S
C617 C618 1.387 . S
C617 H620 0.950 . S
C618 C617 1.387 . S
C618 C621 1.387 . S
H619 C615 0.950 . S
H620 C617 0.950 . S
C621 C612 1.390 . S
C621 H614 0.950 . S
C621 C618 1.387 . S
C622 C623 1.387 . S
C622 H626 0.950 . S
C622 C631 1.390 1_655 S
C623 C622 1.387 . S
C623 C625 1.387 . S
H624 C631 0.950 . S
C625 C623 1.387 . S
C625 C627 1.390 1_655 S
C625 H629 0.950 . S
H626 C622 0.950 . S
C627 C625 1.390 1_455 S
C627 C628 1.387 . S
C627 H630 0.950 . S
C628 C627 1.387 . S
C628 C631 1.387 . S
H629 C625 0.950 . S
H630 C627 0.950 . S
C631 C622 1.390 1_455 S
C631 H624 0.950 . S
C631 C628 1.387 . S
C632 C633 1.387 . S
C632 H636 0.950 . S
C632 C641 1.390 1_655 S
C633 C632 1.387 . S
C633 C635 1.387 . S
H634 C641 0.950 . S
C635 C633 1.387 . S
C635 C637 1.390 1_655 S
C635 H639 0.950 . S
H636 C632 0.950 . S
C637 C635 1.390 1_455 S
C637 C638 1.387 . S
C637 H640 0.950 . S
C638 C637 1.387 . S
C638 C641 1.387 . S
H639 C635 0.950 . S
H640 C637 0.950 . S
C641 C632 1.390 1_455 S
C641 H634 0.950 . S
C641 C638 1.387 . S
C642 C643 1.387 . S
C642 H646 0.950 . S
C642 C651 1.390 . S
C643 C642 1.387 . S
C643 C645 1.387 . S
H644 C651 0.950 . S
C645 C643 1.387 . S
C645 C647 1.390 . S
C645 H649 0.950 . S
H646 C642 0.950 . S
C647 C645 1.390 . S
C647 C648 1.387 . S
C647 H650 0.950 . S
C648 C647 1.387 . S
C648 C651 1.387 . S
H649 C645 0.950 . S
H650 C647 0.950 . S
C651 C642 1.390 . S
C651 H644 0.950 . S
C651 C648 1.387 . S
C652 C653 1.387 . S
C652 H656 0.950 . S
C652 C661 1.390 1_455 S
C653 C652 1.387 . S
C653 C655 1.387 . S
H654 C661 0.950 . S
C655 C653 1.387 . S
C655 C657 1.390 1_455 S
C655 H659 0.950 . S
H656 C652 0.950 . S
C657 C655 1.390 1_655 S
C657 C658 1.387 . S
C657 H660 0.950 . S
C658 C657 1.387 . S
C658 C661 1.387 . S
H659 C655 0.950 . S
H660 C657 0.950 . S
C661 C652 1.390 1_655 S
C661 H654 0.950 . S
C661 C658 1.387 . S
C662 C663 1.387 . S
C662 H666 0.950 . S
C662 C671 1.390 . S
C663 C662 1.387 . S
C663 C665 1.387 . S
H664 C671 0.950 . S
C665 C663 1.387 . S
C665 C667 1.390 . S
C665 H669 0.950 . S
H666 C662 0.950 . S
C667 C665 1.390 . S
C667 C668 1.387 . S
C667 H670 0.950 . S
C668 C667 1.387 . S
C668 C671 1.387 . S
H669 C665 0.950 . S
H670 C667 0.950 . S
C671 C662 1.390 . S
C671 H664 0.950 . S
C671 C668 1.387 . S
C672 C673 1.387 1_565 S
C672 H676 0.950 1_565 S
C672 C681 1.390 . S
C673 C672 1.387 1_545 S
C673 C675 1.387 1_545 S
H674 C681 0.950 . S
C675 C673 1.387 1_565 S
C675 C677 1.390 . S
C675 H679 0.950 . S
H676 C672 0.950 1_545 S
C677 C675 1.390 . S
C677 C678 1.387 . S
C677 H680 0.950 . S
C678 C677 1.387 . S
C678 C681 1.387 . S
H679 C675 0.950 . S
H680 C677 0.950 . S
C681 C672 1.390 . S
C681 H674 0.950 . S
C681 C678 1.387 . S
C682 C683 1.387 1_545 S
C682 H686 0.950 . S
C682 C691 1.390 . S
C683 C682 1.387 1_565 S
C683 C685 1.387 1_565 S
H684 C691 0.950 . S
C685 C683 1.387 1_545 S
C685 C687 1.390 . S
C685 H689 0.950 1_545 S
H686 C682 0.950 . S
C687 C685 1.390 . S
C687 C688 1.387 . S
C687 H690 0.950 . S
C688 C687 1.387 . S
C688 C691 1.387 . S
H689 C685 0.950 1_565 S
H690 C687 0.950 . S
C691 C682 1.390 . S
C691 H684 0.950 . S
C691 C688 1.387 . S
C692 C693 1.387 . S
C692 H696 0.950 . S
C692 C701 1.390 . S
C693 C692 1.387 . S
C693 C695 1.387 . S
H694 C701 0.943 1_565 S
C695 C693 1.387 . S
C695 C697 1.390 . S
C695 H699 0.950 . S
H696 C692 0.950 . S
C697 C695 1.390 . S
C697 C698 1.387 1_545 S
C697 H700 0.950 . S
C698 C697 1.387 1_565 S
C698 C701 1.387 1_565 S
H699 C695 0.950 . S
H700 C697 0.950 . S
C701 C692 1.390 . S
C701 H694 0.943 1_545 S
C701 C698 1.387 1_545 S
C702 C703 1.387 . S
C702 H706 0.950 . S
C702 C711 1.390 . S
C703 C702 1.387 . S
C703 C705 1.387 . S
H704 C711 0.950 . S
C705 C703 1.387 . S
C705 C707 1.390 . S
C705 H709 0.950 . S
H706 C702 0.950 . S
C707 C705 1.390 . S
C707 C708 1.387 1_565 S
C707 H710 0.950 1_565 S
C708 C707 1.387 1_545 S
C708 C711 1.387 1_545 S
H709 C705 0.950 . S
H710 C707 0.950 1_545 S
C711 C702 1.390 . S
C711 H704 0.950 . S
C711 C708 1.387 1_565 S
C712 C713 1.387 . S
C712 H716 0.950 . S
C712 C721 1.390 . S
C713 C712 1.387 . S
C713 C715 1.387 . S
H714 C721 0.950 1_565 S
C715 C713 1.387 . S
C715 C717 1.390 . S
C715 H719 0.950 . S
H716 C712 0.950 . S
C717 C715 1.390 . S
C717 C718 1.387 1_545 S
C717 H720 0.950 . S
C718 C717 1.387 1_565 S
C718 C721 1.387 1_565 S
H719 C715 0.950 . S
H720 C717 0.950 . S
C721 C712 1.390 . S
C721 H714 0.950 1_545 S
C721 C718 1.387 1_545 S
C722 C723 1.387 1_565 S
C722 H726 0.950 . S
C722 C731 1.390 . S
C723 C722 1.387 1_545 S
C723 C725 1.387 1_545 S
H724 C731 0.950 . S
C725 C723 1.387 1_565 S
C725 C727 1.390 . S
C725 H729 0.950 . S
H726 C722 0.950 . S
C727 C725 1.390 . S
C727 C728 1.387 . S
C727 H730 0.950 . S
C728 C727 1.387 . S
C728 C731 1.387 . S
H729 C725 0.950 . S
H730 C727 0.950 . S
C731 C722 1.390 . S
C731 H724 0.950 . S
C731 C728 1.387 . S
C732 C733 1.387 1_565 S
C732 H736 0.950 1_565 S
C732 C741 1.390 . S
C733 C732 1.387 1_545 S
C733 C735 1.387 1_545 S
H734 C741 0.950 . S
C735 C733 1.387 1_565 S
C735 C737 1.390 . S
C735 H739 0.950 . S
H736 C732 0.950 1_545 S
C737 C735 1.390 . S
C737 C738 1.387 . S
C737 H740 0.950 . S
C738 C737 1.387 . S
C738 C741 1.387 . S
H739 C735 0.950 . S
H740 C737 0.950 . S
C741 C732 1.390 . S
C741 H734 0.950 . S
C741 C738 1.387 . S
C742 C743 1.387 . S
C742 H746 0.950 . S
C742 C751 1.390 . S
C743 C742 1.387 . S
C743 C745 1.387 . S
H744 C751 0.950 1_565 S
C745 C743 1.387 . S
C745 C747 1.390 . S
C745 H749 0.950 . S
H746 C742 0.950 . S
C747 C745 1.390 . S
C747 C748 1.387 1_545 S
C747 H750 0.950 . S
C748 C747 1.387 1_565 S
C748 C751 1.387 1_565 S
H749 C745 0.950 . S
H750 C747 0.950 . S
C751 C742 1.390 . S
C751 H744 0.950 1_545 S
C751 C748 1.387 1_545 S
C752 C753 1.387 . S
C752 H756 0.950 . S
C752 C761 1.390 . S
C753 C752 1.387 . S
C753 C755 1.387 . S
H754 C761 0.950 . S
C755 C753 1.387 . S
C755 C757 1.390 . S
C755 H759 0.950 . S
H756 C752 0.950 . S
C757 C755 1.390 . S
C757 C758 1.387 . S
C757 H760 0.950 . S
C758 C757 1.387 . S
C758 C761 1.387 . S
H759 C755 0.950 . S
H760 C757 0.950 . S
C761 C752 1.390 . S
C761 H754 0.950 . S
C761 C758 1.387 . S
C762 C763 1.387 . S
C762 H766 0.950 . S
C762 C771 1.390 . S
C763 C762 1.387 . S
C763 C765 1.387 . S
H764 C771 0.950 . S
C765 C763 1.387 . S
C765 C767 1.390 . S
C765 H769 0.950 . S
H766 C762 0.950 . S
C767 C765 1.390 . S
C767 C768 1.387 . S
C767 H770 0.950 . S
C768 C767 1.387 . S
C768 C771 1.387 . S
H769 C765 0.950 . S
H770 C767 0.950 . S
C771 C762 1.390 . S
C771 H764 0.950 . S
C771 C768 1.387 . S
C772 C773 1.387 . S
C772 H776 0.950 . S
C772 C781 1.390 . S
C773 C772 1.387 . S
C773 C775 1.387 . S
H774 C781 0.950 . S
C775 C773 1.387 . S
C775 C777 1.390 . S
C775 H779 0.950 . S
H776 C772 0.950 . S
C777 C775 1.390 . S
C777 C778 1.387 . S
C777 H780 0.950 . S
C778 C777 1.387 . S
C778 C781 1.387 . S
H779 C775 0.950 . S
H780 C777 0.950 . S
C781 C772 1.390 . S
C781 H774 0.950 . S
C781 C778 1.387 . S
C782 C783 1.387 . S
C782 H786 0.950 . S
C782 C791 1.390 . S
C783 C782 1.387 . S
C783 C785 1.387 . S
H784 C791 0.950 . S
C785 C783 1.387 . S
C785 C787 1.390 . S
C785 H789 0.950 . S
H786 C782 0.950 . S
C787 C785 1.390 . S
C787 C788 1.387 . S
C787 H790 0.950 . S
C788 C787 1.387 . S
C788 C791 1.387 . S
H789 C785 0.950 . S
H790 C787 0.950 . S
C791 C782 1.390 . S
C791 H784 0.950 . S
C791 C788 1.387 . S
C792 C793 1.387 . S
C792 H796 0.950 . S
C792 C801 1.390 . S
C793 C792 1.387 . S
C793 C795 1.387 . S
H794 C801 0.950 . S
C795 C793 1.387 . S
C795 C797 1.390 . S
C795 H799 0.950 . S
H796 C792 0.950 . S
C797 C795 1.390 . S
C797 C798 1.387 . S
C797 H800 0.950 . S
C798 C797 1.387 . S
C798 C801 1.387 . S
H799 C795 0.950 . S
H800 C797 0.950 . S
C801 C792 1.390 . S
C801 H794 0.950 . S
C801 C798 1.387 . S
C802 C803 1.387 . S
C802 H806 0.950 . S
C802 C811 1.390 . S
C803 C802 1.387 . S
C803 C805 1.387 . S
H804 C811 0.950 . S
C805 C803 1.387 . S
C805 C807 1.390 . S
C805 H809 0.950 . S
H806 C802 0.950 . S
C807 C805 1.390 . S
C807 C808 1.387 . S
C807 H810 0.950 . S
C808 C807 1.387 . S
C808 C811 1.387 . S
H809 C805 0.950 . S
H810 C807 0.950 . S
C811 C802 1.390 . S
C811 H804 0.950 . S
C811 C808 1.387 . S
C812 C813 1.387 . S
C812 H816 0.950 . S
C812 C821 1.390 . S
C813 C812 1.387 . S
C813 C815 1.387 . S
H814 C821 0.950 . S
C815 C813 1.387 . S
C815 C817 1.390 . S
C815 H819 0.950 . S
H816 C812 0.950 . S
C817 C815 1.390 . S
C817 C818 1.387 . S
C817 H820 0.950 . S
C818 C817 1.387 . S
C818 C821 1.387 . S
H819 C815 0.950 . S
H820 C817 0.950 . S
C821 C812 1.390 . S
C821 H814 0.950 . S
C821 C818 1.387 . S
C822 C823 1.387 . S
C822 H826 0.950 . S
C822 C831 1.390 . S
C823 C822 1.387 . S
C823 C825 1.387 . S
H824 C831 0.950 . S
C825 C823 1.387 . S
C825 C827 1.390 . S
C825 H829 0.950 . S
H826 C822 0.950 . S
C827 C825 1.390 . S
C827 C828 1.387 . S
C827 H830 0.950 . S
C828 C827 1.387 . S
C828 C831 1.387 . S
H829 C825 0.950 . S
H830 C827 0.950 . S
C831 C822 1.390 . S
C831 H824 0.950 . S
C831 C828 1.387 . S
C353 C5 1.087 . S
C358 C270 1.087 . S
C363 C293 1.083 . S
C368 C27 1.083 . S
C373 C314 1.082 . S
C378 C49 1.082 . S
C383 C336 1.087 . S
C388 C75 1.087 . S
C393 C94 1.084 . S
C398 C181 1.084 . S
C403 C203 1.086 . S
C408 C117 1.086 . S
C413 C138 1.082 . S
C418 C225 1.082 . S
C423 C251 1.084 . S
C428 C160 1.084 . S
C433 C48 1.855 . S
C438 C4 1.855 . S
C443 C26 1.855 . S
C448 C74 1.855 . S
C453 C92 1.855 . S
C458 C136 1.855 . S
C463 C158 1.855 . S
C468 C118 1.855 . S
C473 C180 1.855 . S
C478 C224 1.855 . S
C483 C250 1.855 . S
C488 C202 1.855 . S
C493 C312 1.855 . S
C498 C268 1.855 . S
C503 C334 1.855 . S
C508 C294 1.855 . S
C513 C9 1.776 . S
C518 C71 1.776 . S
C523 C53 1.773 . S
C528 C31 1.773 . S
C533 C161 1.773 . S
C538 C95 1.773 . S
C543 C139 1.776 . S
C548 C116 1.776 . S
C553 C247 1.776 . S
C558 C185 1.776 . S
C563 C229 1.773 . S
C568 C207 1.773 . S
C573 C271 1.773 . S
C578 C337 1.773 . S
C583 C315 1.773 . S
C588 C292 1.773 . S
C593 C8 1.491 . S
C598 C140 1.488 . S
C603 C30 1.491 . S
C608 C162 1.488 . S
C613 C96 1.488 . S
C618 C52 1.491 . S
C623 C114 1.488 . S
C628 C70 1.491 . S
C633 C184 1.491 . S
C638 C316 1.488 . S
C643 C206 1.491 . S
C648 C338 1.488 . S
C653 C272 1.488 . S
C658 C228 1.491 . S
C663 C290 1.491 . S
C668 C246 1.488 . S
C673 C6 1.378 . S
C678 C317 1.327 . S
C683 C28 1.380 . S
C688 C339 1.324 . S
C693 C273 1.327 . S
C698 C50 1.378 . S
C703 C291 1.324 . S
C708 C73 1.380 . S
C713 C227 1.324 . S
C718 C93 1.380 . S
C723 C119 1.378 . S
C728 C248 1.328 . S
C733 C137 1.380 . S
C738 C183 1.324 . S
C743 C205 1.328 . S
C748 C159 1.379 . S
C753 C141 1.327 . S
C758 C182 1.378 . S
C763 C204 1.380 . S
C768 C163 1.327 . S
C773 C97 1.324 . S
C778 C226 1.380 . S
C783 C249 1.380 . S
C788 C115 1.324 . S
C793 C51 1.324 . S
C798 C269 1.380 . S
C803 C295 1.378 . S
C808 C72 1.327 . S
C813 C313 1.378 . S
C818 C7 1.327 . S
C823 C29 1.324 . S
C828 C335 1.380 . S
