# Generated by pormake.
# Topology lcy, (6)-cn, num edge types: 1
# Building blocks:
#     Node 0, Type 0, BuildingBlock: FUNLAD_clean_sbu_0, # of connection points: 6
#     Node 1, Type 0, BuildingBlock: FUNLAD_clean_sbu_0, # of connection points: 6
#     Node 2, Type 0, BuildingBlock: FUNLAD_clean_sbu_0, # of connection points: 6
#     Node 3, Type 0, BuildingBlock: FUNLAD_clean_sbu_0, # of connection points: 6
#     Edge 4, Type (0, 0), BuildingBlock: XUDNAN_clean_linker_2, # of connection points: 2
#     Edge 5, Type (0, 0), BuildingBlock: XUDNAN_clean_linker_2, # of connection points: 2
#     Edge 6, Type (0, 0), BuildingBlock: XUDNAN_clean_linker_2, # of connection points: 2
#     Edge 7, Type (0, 0), BuildingBlock: XUDNAN_clean_linker_2, # of connection points: 2
#     Edge 8, Type (0, 0), BuildingBlock: XUDNAN_clean_linker_2, # of connection points: 2
#     Edge 9, Type (0, 0), BuildingBlock: XUDNAN_clean_linker_2, # of connection points: 2
#     Edge 10, Type (0, 0), BuildingBlock: XUDNAN_clean_linker_2, # of connection points: 2
#     Edge 11, Type (0, 0), BuildingBlock: XUDNAN_clean_linker_2, # of connection points: 2
#     Edge 12, Type (0, 0), BuildingBlock: XUDNAN_clean_linker_2, # of connection points: 2
#     Edge 13, Type (0, 0), BuildingBlock: XUDNAN_clean_linker_2, # of connection points: 2
#     Edge 14, Type (0, 0), BuildingBlock: XUDNAN_clean_linker_2, # of connection points: 2
#     Edge 15, Type (0, 0), BuildingBlock: XUDNAN_clean_linker_2, # of connection points: 2
# Relax obj value: 0.647
# Max RMSD: 0.352
# Mean RMSD: 0.319
data_MOF--net-lcy--node1-FUNLAD_clean_sbu_0--edge1-XUDNAN_clean_linker_2
_symmetry_space_group_name_H-M    P1
_symmetry_Int_Tables_number       1
_symmetry_cell_setting            triclinic
loop_
_symmetry_equiv_pos_as_xyz
'x, y, z'
_cell_length_a     27.660702
_cell_length_b     27.640024
_cell_length_c     26.539268
_cell_angle_alpha  80.517461
_cell_angle_beta   79.850435
_cell_angle_gamma 70.931613
loop_
_atom_site_label
_atom_site_type_symbol
_atom_site_fract_x
_atom_site_fract_y
_atom_site_fract_z
_atom_type_partial_charge
C0 C 0.31123 0.46626 0.34969 0.0
N1 N 0.44639 0.4962 0.37202 0.0
C2 C 0.44255 0.52179 0.32369 0.0
C3 C 0.45979 0.56505 0.30913 0.0
C4 C 0.48235 0.58108 0.34415 0.0
C5 C 0.48944 0.55184 0.39206 0.0
C6 C 0.47047 0.50983 0.40557 0.0
Zn7 Zn 0.40424 0.446 0.4021 0.0
C8 C 0.3308 0.48782 0.49677 0.0
N9 N 0.31226 0.3502 0.47449 0.0
C10 C 0.28704 0.33416 0.44409 0.0
C11 C 0.30111 0.34447 0.52669 0.0
C12 C 0.26037 0.3259 0.55 0.0
C13 C 0.23048 0.31363 0.51927 0.0
C14 C 0.24569 0.31575 0.46579 0.0
Zn15 Zn 0.35756 0.39536 0.44162 0.0
O16 O 0.34795 0.48438 0.34996 0.0
C17 C 0.43279 0.34934 0.35283 0.0
O18 O 0.30461 0.43123 0.38541 0.0
H19 H 0.32159 0.35746 0.55018 0.0
H20 H 0.42325 0.51081 0.29746 0.0
H21 H 0.29662 0.3389 0.40265 0.0
O22 O 0.44328 0.39187 0.34681 0.0
O23 O 0.39939 0.3411 0.38994 0.0
H24 H 0.47193 0.49055 0.44437 0.0
O25 O 0.41257 0.35939 0.4956 0.0
O26 O 0.46046 0.40533 0.451 0.0
O27 O 0.3164 0.44912 0.49485 0.0
O28 O 0.36518 0.49757 0.46142 0.0
C29 C 0.45405 0.37165 0.48801 0.0
H30 H 0.45348 0.58712 0.27185 0.0
H31 H 0.50588 0.56372 0.42028 0.0
H32 H 0.25079 0.32366 0.59151 0.0
H33 H 0.22376 0.30679 0.44058 0.0
C34 C 0.77301 0.22262 0.64589 0.0
N35 N 0.88117 0.09489 0.58084 0.0
C36 C 0.84565 0.07838 0.56526 0.0
C37 C 0.86044 0.04643 0.52612 0.0
C38 C 0.91217 0.03156 0.50314 0.0
C39 C 0.94744 0.05069 0.51866 0.0
C40 C 0.93109 0.0823 0.55792 0.0
Zn41 Zn 0.86491 0.13079 0.64496 0.0
C42 C 0.92332 0.20258 0.63881 0.0
N43 N 0.84095 0.19757 0.78324 0.0
C44 C 0.79528 0.23121 0.80114 0.0
C45 C 0.88564 0.19408 0.80035 0.0
C46 C 0.88651 0.22837 0.83284 0.0
C47 C 0.84093 0.26695 0.84798 0.0
C48 C 0.79438 0.26646 0.83387 0.0
Zn49 Zn 0.84937 0.1626 0.71872 0.0
O50 O 0.79942 0.18668 0.61879 0.0
C51 C 0.7925 0.09151 0.72846 0.0
O52 O 0.78737 0.22497 0.68832 0.0
H53 H 0.9217 0.16789 0.78499 0.0
H54 H 0.80633 0.08868 0.58425 0.0
H55 H 0.76015 0.2334 0.78707 0.0
O56 O 0.81805 0.0827 0.68422 0.0
O57 O 0.79655 0.12663 0.75106 0.0
H58 H 0.95907 0.09491 0.57154 0.0
O59 O 0.90906 0.09442 0.74882 0.0
O60 O 0.92829 0.07431 0.67016 0.0
O61 O 0.90353 0.20102 0.6856 0.0
O62 O 0.91215 0.17753 0.60901 0.0
C63 C 0.93617 0.06333 0.71667 0.0
H64 H 0.83187 0.03315 0.51425 0.0
H65 H 0.98759 0.03992 0.50187 0.0
H66 H 0.92351 0.22749 0.84179 0.0
H67 H 0.75823 0.29509 0.84523 0.0
C68 C 0.18762 0.56249 1.00775 0.0
N69 N 0.19257 0.70952 0.9424 0.0
C70 C 0.20685 0.71236 0.98803 0.0
C71 C 0.23473 0.74563 0.99077 0.0
C72 C 0.24694 0.77743 0.94639 0.0
C73 C 0.23057 0.77429 0.90016 0.0
C74 C 0.20423 0.73944 0.89884 0.0
Zn75 Zn 0.15392 0.65937 0.93688 0.0
C76 C 0.20567 0.59447 0.84718 0.0
N77 N 0.07415 0.55613 0.91967 0.0
C78 C 0.0562 0.5294 0.96263 0.0
C79 C 0.06103 0.55582 0.8727 0.0
C80 C 0.02674 0.52986 0.86801 0.0
C81 C 0.00626 0.5035 0.91196 0.0
C82 C 0.02231 0.50233 0.95954 0.0
Zn83 Zn 0.11448 0.60428 0.92659 0.0
O84 O 0.1972 0.60442 0.99026 0.0
C85 C 0.0567 0.67001 1.00886 0.0
O86 O 0.15608 0.54973 0.98664 0.0
H87 H 0.07586 0.57714 0.83902 0.0
H88 H 0.19724 0.6883 0.02226 0.0
H89 H 0.0666 0.53065 0.9997 0.0
O90 O 0.09391 0.68934 0.99935 0.0
O91 O 0.05748 0.63457 0.98395 0.0
H92 H 0.19319 0.73632 0.8627 0.0
O93 O 0.07181 0.66339 0.87002 0.0
O94 O 0.11055 0.71474 0.88818 0.0
O95 O 0.17096 0.57343 0.86611 0.0
O96 O 0.20979 0.62999 0.87001 0.0
C97 C 0.07821 0.70771 0.86453 0.0
H98 H 0.24731 0.74546 0.02717 0.0
H99 H 0.23788 0.79847 0.86509 0.0
H100 H 0.01581 0.53093 0.8305 0.0
H101 H 0.00718 0.48248 0.99427 0.0
C102 C 0.58633 0.02799 0.19267 0.0
N103 N 0.73186 0.92225 0.21501 0.0
C104 C 0.75357 0.9609 0.20641 0.0
C105 C 0.7992 0.95418 0.22591 0.0
C106 C 0.82276 0.90708 0.25414 0.0
C107 C 0.79961 0.8678 0.26205 0.0
C108 C 0.75378 0.87636 0.24236 0.0
Zn109 Zn 0.67095 0.92865 0.17948 0.0
C110 C 0.59669 0.88059 0.23925 0.0
N111 N 0.55115 0.94008 0.09529 0.0
C112 C 0.52507 0.98316 0.06645 0.0
C113 C 0.54041 0.89489 0.09893 0.0
C114 C 0.50165 0.8919 0.07379 0.0
C115 C 0.47448 0.93545 0.04368 0.0
C116 C 0.48651 0.98151 0.03957 0.0
Zn117 Zn 0.60905 0.93901 0.13369 0.0
O118 O 0.63161 1.00226 0.20244 0.0
C119 C 0.68136 0.98353 0.0706 0.0
O120 O 0.56319 0.00943 0.16679 0.0
H121 H 0.5622 0.86085 0.12114 0.0
H122 H 0.73565 0.99683 0.18412 0.0
H123 H 0.53444 0.0186 0.06397 0.0
O124 O 0.70605 0.96294 0.10893 0.0
O125 O 0.63582 0.98245 0.07254 0.0
H126 H 0.73619 0.84588 0.24816 0.0
O127 O 0.66043 0.86887 0.0987 0.0
O128 O 0.71089 0.85796 0.15702 0.0
O129 O 0.58024 0.89517 0.19599 0.0
O130 O 0.63577 0.89148 0.24719 0.0
C131 C 0.70089 0.84263 0.11919 0.0
H132 H 0.81499 0.98603 0.22012 0.0
H133 H 0.81652 0.83099 0.28363 0.0
H134 H 0.49357 0.8556 0.07702 0.0
H135 H 0.4662 0.01564 0.01622 0.0
H136 H 0.25803 0.57955 0.05874 0.0
H137 H 0.15623 0.48607 0.07225 0.0
H138 H 0.17445 0.45359 0.16184 0.0
H139 H 0.35355 0.48728 0.1363 0.0
H140 H 0.36445 0.5374 0.16421 0.0
H141 H 0.34572 0.55013 0.10049 0.0
H142 H 0.26835 0.62742 0.12933 0.0
H143 H 0.28625 0.61434 0.19339 0.0
H144 H 0.22237 0.61719 0.18397 0.0
H145 H 0.1996 0.43599 0.25309 0.0
H146 H 0.23675 0.42689 0.33346 0.0
H147 H 0.32272 0.53166 0.2602 0.0
C148 C 0.24034 0.55135 0.08 0.0
C149 C 0.20588 0.53511 0.05782 0.0
C150 C 0.18325 0.49866 0.0877 0.0
C151 C 0.19305 0.48034 0.13895 0.0
C152 C 0.22581 0.49855 0.16002 0.0
C153 C 0.24979 0.53261 0.13108 0.0
C154 C 0.28293 0.54676 0.16278 0.0
C155 C 0.34005 0.52934 0.13956 0.0
C156 C 0.26382 0.60488 0.16764 0.0
C157 C 0.27369 0.51565 0.21433 0.0
C158 C 0.24038 0.48832 0.21204 0.0
C159 C 0.22588 0.45709 0.25502 0.0
C160 C 0.24699 0.45247 0.30083 0.0
C161 C 0.28259 0.47875 0.3038 0.0
C162 C 0.29531 0.51137 0.2598 0.0
H163 H 0.83573 0.86555 0.35219 0.0
H164 H 0.90722 0.94006 0.21711 0.0
H165 H 0.96321 0.95654 0.27042 0.0
H166 H 0.81321 0.94838 0.42441 0.0
H167 H 0.82716 0.91051 0.48528 0.0
H168 H 0.81123 0.88279 0.4368 0.0
H169 H 0.89672 0.80793 0.43851 0.0
H170 H 0.91276 0.83484 0.48846 0.0
H171 H 0.95722 0.82159 0.43034 0.0
H172 H 0.98458 0.99294 0.33745 0.0
H173 H 0.97191 0.04187 0.41082 0.0
H174 H 0.88861 0.94357 0.50471 0.0
C175 C 0.86555 0.88226 0.33338 0.0
C176 C 0.86703 0.90189 0.28087 0.0
C177 C 0.90524 0.92518 0.25757 0.0
C178 C 0.93762 0.93414 0.28752 0.0
C179 C 0.93176 0.91883 0.34044 0.0
C180 C 0.89757 0.89187 0.36307 0.0
C181 C 0.88968 0.88992 0.42117 0.0
C182 C 0.83196 0.90913 0.44306 0.0
C183 C 0.91567 0.83533 0.44608 0.0
C184 C 0.91819 0.92645 0.42696 0.0
C185 C 0.94457 0.94052 0.38042 0.0
C186 C 0.96592 0.98074 0.37446 0.0
C187 C 0.95828 0.00858 0.41622 0.0
C188 C 0.92894 0.99641 0.46296 0.0
C189 C 0.9111 0.95335 0.46909 0.0
H190 H 0.20028 0.52384 0.78815 0.0
H191 H 0.27515 0.63978 0.7866 0.0
H192 H 0.31331 0.62769 0.69597 0.0
H193 H 0.30364 0.43935 0.70804 0.0
H194 H 0.2594 0.42322 0.67631 0.0
H195 H 0.24087 0.43959 0.74138 0.0
H196 H 0.15962 0.51095 0.7132 0.0
H197 H 0.17838 0.49532 0.64789 0.0
H198 H 0.1669 0.56024 0.66141 0.0
H199 H 0.34103 0.6041 0.60252 0.0
H200 H 0.35994 0.56756 0.51942 0.0
H201 H 0.26497 0.46869 0.58298 0.0
C202 C 0.22541 0.5462 0.76926 0.0
C203 C 0.23495 0.58255 0.79516 0.0
C204 C 0.26759 0.61129 0.76819 0.0
C205 C 0.28919 0.6049 0.71643 0.0
C206 C 0.27786 0.56962 0.69181 0.0
C207 C 0.24706 0.54043 0.71771 0.0
C208 C 0.23997 0.50563 0.68273 0.0
C209 C 0.26232 0.44857 0.70335 0.0
C210 C 0.18282 0.51884 0.67592 0.0
C211 C 0.27148 0.51967 0.63293 0.0
C212 C 0.29304 0.55672 0.63872 0.0
C213 C 0.3242 0.57512 0.59781 0.0
C214 C 0.33448 0.55434 0.55047 0.0
C215 C 0.31367 0.51548 0.544 0.0
C216 C 0.28114 0.49873 0.58598 0.0
H217 H 0.64098 0.05896 0.99583 0.0
H218 H 0.77903 0.93662 0.03081 0.0
H219 H 0.81244 0.93747 0.93732 0.0
H220 H 0.62698 0.02454 0.87694 0.0
H221 H 0.60882 0.08959 0.84535 0.0
H222 H 0.59432 0.07761 0.91432 0.0
H223 H 0.64401 0.13853 0.92828 0.0
H224 H 0.65563 0.15282 0.85951 0.0
H225 H 0.70908 0.12944 0.89658 0.0
H226 H 0.82634 0.94802 0.84073 0.0
H227 H 0.84135 0.99088 0.75289 0.0
H228 H 0.69701 0.11165 0.78194 0.0
C229 C 0.67879 0.03319 0.98376 0.0
C230 C 0.70759 0.9968 0.01978 0.0
C231 C 0.7569 0.96414 1.00308 0.0
C232 C 0.7754 0.96383 0.95037 0.0
C233 C 0.74434 0.99765 0.9154 0.0
C234 C 0.69839 0.03356 0.93157 0.0
C235 C 0.67561 0.07018 0.8868 0.0
C236 C 0.62333 0.06515 0.88051 0.0
C237 C 0.67086 0.12602 0.89315 0.0
C238 C 0.71644 0.04977 0.84285 0.0
C239 C 0.75446 0.00646 0.85992 0.0
C240 C 0.79745 0.9822 0.82689 0.0
C241 C 0.8049 1.00606 0.77659 0.0
C242 C 0.77004 0.05425 0.76096 0.0
C243 C 0.72341 0.07412 0.79288 0.0
H244 H 0.00412 0.18378 0.56038 0.0
H245 H 0.92857 0.28411 0.67959 0.0
H246 H 0.9973 0.32548 0.65904 0.0
H247 H 0.13007 0.16124 0.5863 0.0
H248 H 0.15987 0.16063 0.52019 0.0
H249 H 0.10174 0.14266 0.53932 0.0
H250 H 0.05654 0.21217 0.47006 0.0
H251 H 0.11478 0.22999 0.45023 0.0
H252 H 0.05486 0.27809 0.46897 0.0
H253 H 0.07593 0.35173 0.63069 0.0
H254 H 0.15982 0.36373 0.59406 0.0
H255 H 0.18778 0.24403 0.4953 0.0
C256 C 0.00147 0.21539 0.58109 0.0
C257 C 0.96091 0.23117 0.62122 0.0
C258 C 0.95929 0.27166 0.64856 0.0
C259 C 0.99808 0.2954 0.63717 0.0
C260 C 0.03835 0.27803 0.59849 0.0
C261 C 0.04036 0.23919 0.57061 0.0
C262 C 0.08988 0.2257 0.53341 0.0
C263 C 0.12229 0.16921 0.54556 0.0
C264 C 0.07831 0.23719 0.47734 0.0
C265 C 0.11555 0.2625 0.54543 0.0
C266 C 0.08487 0.29246 0.58285 0.0
C267 C 0.10037 0.32857 0.60129 0.0
C268 C 0.14844 0.33461 0.58065 0.0
C269 C 0.18082 0.3044 0.5422 0.0
C270 C 0.1639 0.26788 0.52443 0.0
H271 H 0.01621 0.79646 0.89904 0.0
H272 H 0.07978 0.7224 0.76 0.0
H273 H 0.05412 0.80765 0.70762 0.0
H274 H 0.9073 0.89193 0.84886 0.0
H275 H 0.90876 0.94489 0.87991 0.0
H276 H 0.93058 0.8798 0.91026 0.0
H277 H 0.01981 0.88348 0.91613 0.0
H278 H 0.00051 0.95032 0.88994 0.0
H279 H 0.05735 0.90558 0.85986 0.0
H280 H 0.03367 0.90111 0.67256 0.0
H281 H -0.00015 0.9949 0.65292 0.0
H282 H 0.94303 0.00926 0.81492 0.0
C283 C 0.02262 0.79808 0.85743 0.0
C284 C 0.04857 0.75296 0.8332 0.0
C285 C 0.05834 0.7564 0.77892 0.0
C286 C 0.04477 0.80472 0.74913 0.0
C287 C 0.02141 0.84879 0.77446 0.0
C288 C 0.00914 0.8458 0.82732 0.0
C289 C 0.98431 0.89894 0.84513 0.0
C290 C 0.92941 0.90433 0.87263 0.0
C291 C 0.01749 0.91022 0.87982 0.0
C292 C 0.9842 0.93261 0.79385 0.0
C293 C 0.00715 0.90275 0.7539 0.0
C294 C 0.01459 0.92473 0.70335 0.0
C295 C 0.99555 0.97833 0.69277 0.0
C296 C 0.96809 0.00981 0.73228 0.0
C297 C 0.96381 0.98655 0.78385 0.0
H298 H 0.24939 0.82685 0.02785 0.0
H299 H 0.31639 0.8062 0.86886 0.0
H300 H 0.37006 0.86043 0.8727 0.0
H301 H 0.25708 0.9576 0.02948 0.0
H302 H 0.27647 0.94192 0.09307 0.0
H303 H 0.23511 0.91074 0.07508 0.0
H304 H 0.29991 0.82119 0.09918 0.0
H305 H 0.34096 0.85208 0.11769 0.0
H306 H 0.36635 0.80718 0.07029 0.0
H307 H 0.42379 0.90846 0.89601 0.0
H308 H 0.47959 0.93719 0.9403 0.0
H309 H 0.38369 0.91928 0.08537 0.0
C310 C 0.27498 0.83379 0.99357 0.0
C311 C 0.27769 0.81247 0.94784 0.0
C312 C 0.31193 0.82314 0.90401 0.0
C313 C 0.34291 0.8539 0.90578 0.0
C314 C 0.33973 0.8735 0.95171 0.0
C315 C 0.30702 0.86338 0.99499 0.0
C316 C 0.31603 0.88265 0.04159 0.0
C317 C 0.26832 0.9258 0.06093 0.0
C318 C 0.33177 0.83813 0.08469 0.0
C319 C 0.36029 0.90339 0.01818 0.0
C320 C 0.37239 0.89924 0.96592 0.0
C321 C 0.41418 0.91272 0.9367 0.0
C322 C 0.44547 0.92917 0.96195 0.0
C323 C 0.43507 0.93096 0.01577 0.0
C324 C 0.3914 0.91917 0.04392 0.0
H325 H 0.40741 0.26257 0.34674 0.0
H326 H 0.51898 0.34328 0.28132 0.0
H327 H 0.56641 0.2721 0.22861 0.0
H328 H 0.49509 0.13735 0.35737 0.0
H329 H 0.45314 0.10644 0.34014 0.0
H330 H 0.42604 0.16515 0.36994 0.0
H331 H 0.37392 0.2078 0.2936 0.0
H332 H 0.40081 0.14914 0.26352 0.0
H333 H 0.40719 0.209 0.22879 0.0
H334 H 0.60609 0.18882 0.18986 0.0
H335 H 0.63351 0.10093 0.16422 0.0
H336 H 0.4942 0.07517 0.25091 0.0
C337 C 0.44154 0.26563 0.32093 0.0
C338 C 0.45954 0.30864 0.31826 0.0
C339 C 0.50433 0.31096 0.28394 0.0
C340 C 0.53151 0.27067 0.25387 0.0
C341 C 0.51305 0.2286 0.25802 0.0
C342 C 0.4688 0.22603 0.29029 0.0
C343 C 0.45802 0.17582 0.28868 0.0
C344 C 0.4581 0.14434 0.34221 0.0
C345 C 0.40695 0.18607 0.26737 0.0
C346 C 0.50386 0.14986 0.25133 0.0
C347 C 0.53505 0.18114 0.23416 0.0
C348 C 0.58151 0.16447 0.2023 0.0
C349 C 0.59678 0.11452 0.18801 0.0
C350 C 0.56553 0.08183 0.2049 0.0
C351 C 0.51809 0.09995 0.23644 0.0
H352 H 0.74426 0.25393 0.54934 0.0
H353 H 0.68562 0.26175 0.7114 0.0
H354 H 0.59656 0.29965 0.68929 0.0
H355 H 0.65094 0.37674 0.50305 0.0
H356 H 0.6471 0.35208 0.44558 0.0
H357 H 0.7058 0.32852 0.47474 0.0
H358 H 0.70248 0.23519 0.47978 0.0
H359 H 0.64319 0.25853 0.45174 0.0
H360 H 0.64605 0.21919 0.51313 0.0
H361 H 0.5127 0.32644 0.64923 0.0
H362 H 0.44272 0.35552 0.59354 0.0
H363 H 0.55728 0.33689 0.45802 0.0
C364 C 0.71276 0.26487 0.58004 0.0
C365 C 0.72182 0.25521 0.63205 0.0
C366 C 0.67961 0.26958 0.67124 0.0
C367 C 0.62885 0.29061 0.65906 0.0
C368 C 0.62108 0.29799 0.60745 0.0
C369 C 0.66208 0.28694 0.56849 0.0
C370 C 0.64359 0.29884 0.51609 0.0
C371 C 0.663 0.3416 0.48292 0.0
C372 C 0.6598 0.25002 0.48859 0.0
C373 C 0.58577 0.31739 0.5316 0.0
C374 C 0.57335 0.3159 0.58449 0.0
C375 C 0.52207 0.32856 0.60775 0.0
C376 C 0.48262 0.34451 0.57599 0.0
C377 C 0.49483 0.34848 0.52173 0.0
C378 C 0.54703 0.33446 0.49949 0.0
H379 H 0.0056 0.40536 0.94976 0.0
H380 H 0.91966 0.54575 0.86461 0.0
H381 H 0.857 0.50322 0.85336 0.0
H382 H 0.99676 0.32274 0.87049 0.0
H383 H 0.99078 0.27162 0.92061 0.0
H384 H 0.02327 0.31558 0.92966 0.0
H385 H 0.96123 0.33801 1.01379 0.0
H386 H 0.92825 0.2942 1.00471 0.0
H387 H 0.89251 0.3606 1.01214 0.0
H388 H 0.81084 0.44323 0.84175 0.0
H389 H 0.78913 0.36887 0.8239 0.0
H390 H 0.9033 0.26679 0.91832 0.0
C391 C 0.97276 0.42742 0.92999 0.0
C392 C 0.96714 0.4788 0.90825 0.0
C393 C 0.9246 0.50622 0.88136 0.0
C394 C 0.88858 0.48259 0.87528 0.0
C395 C 0.89556 0.43156 0.89649 0.0
C396 C 0.93667 0.40422 0.92322 0.0
C397 C 0.93891 0.34818 0.93666 0.0
C398 C 0.99046 0.31246 0.91292 0.0
C399 C 0.92966 0.33445 0.99532 0.0
C400 C 0.89407 0.34781 0.91134 0.0
C401 C 0.86884 0.39654 0.88946 0.0
C402 C 0.82949 0.40506 0.85967 0.0
C403 C 0.8171 0.36243 0.85008 0.0
C404 C 0.8443 0.31178 0.86987 0.0
C405 C 0.88168 0.30494 0.90274 0.0
H406 H 0.98726 0.76283 0.98729 0.0
H407 H 0.01346 0.62433 0.09532 0.0
H408 H 0.92014 0.64869 0.12824 0.0
H409 H 0.88045 0.84951 0.06845 0.0
H410 H 0.85445 0.87978 1.00934 0.0
H411 H 0.92224 0.84965 1.00805 0.0
H412 H 0.91044 0.7987 0.93621 0.0
H413 H 0.84132 0.82662 0.94704 0.0
H414 H 0.86994 0.75759 0.95438 0.0
H415 H 0.8231 0.68659 0.14587 0.0
H416 H 0.73259 0.74241 0.15796 0.0
H417 H 0.76853 0.85324 0.03397 0.0
C418 C 0.97357 0.73901 0.01954 0.0
C419 C 0.00766 0.69293 0.04044 0.0
C420 C 0.98808 0.66094 0.08046 0.0
C421 C 0.93504 0.67395 0.09853 0.0
C422 C 0.90199 0.71848 0.07525 0.0
C423 C 0.92063 0.75082 0.03712 0.0
C424 C 0.87718 0.7958 0.01762 0.0
C425 C 0.88388 0.84666 0.02659 0.0
C426 C 0.87459 0.79461 0.96042 0.0
C427 C 0.83084 0.78456 0.05158 0.0
C428 C 0.84606 0.7392 0.08393 0.0
C429 C 0.81066 0.72182 0.12035 0.0
C430 C 0.75902 0.75319 0.12624 0.0
C431 C 0.74307 0.80121 0.09568 0.0
C432 C 0.77912 0.81582 0.05637 0.0
H433 H 0.64229 0.78254 0.28155 0.0
H434 H 0.49532 0.90158 0.27299 0.0
H435 H 0.44981 0.8374 0.30683 0.0
H436 H 0.6112 0.69256 0.23467 0.0
H437 H 0.6442 0.63652 0.27494 0.0
H438 H 0.66635 0.69224 0.26236 0.0
H439 H 0.65745 0.69795 0.3601 0.0
H440 H 0.63673 0.64114 0.37325 0.0
H441 H 0.59709 0.69949 0.39986 0.0
H442 H 0.42105 0.76003 0.32231 0.0
H443 H 0.40962 0.67373 0.33286 0.0
H444 H 0.5742 0.60273 0.33448 0.0
C445 C 0.60061 0.79534 0.29002 0.0
C446 C 0.5721 0.84712 0.27626 0.0
C447 C 0.51758 0.8623 0.28477 0.0
C448 C 0.49147 0.82603 0.30354 0.0
C449 C 0.52049 0.77468 0.31379 0.0
C450 C 0.57385 0.7593 0.3087 0.0
C451 C 0.59557 0.70092 0.31729 0.0
C452 C 0.63143 0.67933 0.26946 0.0
C453 C 0.62335 0.68387 0.36551 0.0
C454 C 0.54629 0.68607 0.32564 0.0
C455 C 0.50351 0.72935 0.32352 0.0
C456 C 0.45407 0.72585 0.3254 0.0
C457 C 0.44799 0.67683 0.33076 0.0
C458 C 0.49099 0.632 0.33446 0.0
C459 C 0.54075 0.63663 0.3321 0.0
loop_
_geom_bond_atom_site_label_1
_geom_bond_atom_site_label_2
_geom_bond_distance
_geom_bond_site_symmetry_2
_ccdc_geom_bond_type
C0 O16 1.251 . S
C0 O18 1.254 . S
N1 C2 1.333 . S
N1 C6 1.307 . S
N1 Zn7 2.020 . S
C2 N1 1.333 . S
C2 C3 1.379 . S
C2 H20 0.952 . S
C3 C2 1.379 . S
C3 C4 1.390 . S
C3 H30 0.949 . S
C4 C3 1.390 . S
C4 C5 1.357 . S
C5 C4 1.357 . S
C5 C6 1.370 . S
C5 H31 0.950 . S
C6 N1 1.307 . S
C6 C5 1.370 . S
C6 H24 0.948 . S
Zn7 N1 2.020 . S
Zn7 O16 2.039 . S
Zn7 O22 2.034 . S
Zn7 O26 2.025 . S
Zn7 O28 2.024 . S
C8 O27 1.246 . S
C8 O28 1.249 . S
N9 C10 1.307 . S
N9 C11 1.333 . S
N9 Zn15 2.020 . S
C10 N9 1.307 . S
C10 C14 1.370 . S
C10 H21 0.948 . S
C11 N9 1.333 . S
C11 C12 1.379 . S
C11 H19 0.952 . S
C12 C11 1.379 . S
C12 C13 1.390 . S
C12 H32 0.949 . S
C13 C12 1.390 . S
C13 C14 1.357 . S
C14 C10 1.370 . S
C14 C13 1.357 . S
C14 H33 0.950 . S
Zn15 N9 2.020 . S
Zn15 O18 2.025 . S
Zn15 O23 2.024 . S
Zn15 O25 2.039 . S
Zn15 O27 2.034 . S
O16 C0 1.251 . S
O16 Zn7 2.039 . S
C17 O22 1.246 . S
C17 O23 1.249 . S
O18 C0 1.254 . S
O18 Zn15 2.025 . S
H19 C11 0.952 . S
H20 C2 0.952 . S
H21 C10 0.948 . S
O22 Zn7 2.034 . S
O22 C17 1.246 . S
O23 Zn15 2.024 . S
O23 C17 1.249 . S
H24 C6 0.948 . S
O25 Zn15 2.039 . S
O25 C29 1.251 . S
O26 Zn7 2.025 . S
O26 C29 1.254 . S
O27 C8 1.246 . S
O27 Zn15 2.034 . S
O28 Zn7 2.024 . S
O28 C8 1.249 . S
C29 O25 1.251 . S
C29 O26 1.254 . S
H30 C3 0.949 . S
H31 C5 0.950 . S
H32 C12 0.949 . S
H33 C14 0.950 . S
C34 O50 1.251 . S
C34 O52 1.254 . S
N35 C36 1.333 . S
N35 C40 1.307 . S
N35 Zn41 2.020 . S
C36 N35 1.333 . S
C36 C37 1.379 . S
C36 H54 0.952 . S
C37 C36 1.379 . S
C37 C38 1.390 1_545 S
C37 H64 0.949 . S
C38 C37 1.390 1_565 S
C38 C39 1.357 . S
C39 C38 1.357 . S
C39 C40 1.370 1_565 S
C39 H65 0.950 . S
C40 N35 1.307 . S
C40 C39 1.370 1_545 S
C40 H58 0.948 . S
Zn41 N35 2.020 . S
Zn41 O50 2.039 . S
Zn41 O56 2.034 . S
Zn41 O60 2.025 . S
Zn41 O62 2.024 . S
C42 O61 1.246 . S
C42 O62 1.249 . S
N43 C44 1.307 . S
N43 C45 1.333 . S
N43 Zn49 2.020 . S
C44 N43 1.307 . S
C44 C48 1.370 . S
C44 H55 0.948 . S
C45 N43 1.333 . S
C45 C46 1.379 . S
C45 H53 0.952 . S
C46 C45 1.379 . S
C46 C47 1.390 . S
C46 H66 0.949 . S
C47 C46 1.390 . S
C47 C48 1.357 . S
C48 C44 1.370 . S
C48 C47 1.357 . S
C48 H67 0.950 . S
Zn49 N43 2.020 . S
Zn49 O52 2.025 . S
Zn49 O57 2.024 . S
Zn49 O59 2.039 . S
Zn49 O61 2.034 . S
O50 C34 1.251 . S
O50 Zn41 2.039 . S
C51 O56 1.246 . S
C51 O57 1.249 . S
O52 C34 1.254 . S
O52 Zn49 2.025 . S
H53 C45 0.952 . S
H54 C36 0.952 . S
H55 C44 0.948 . S
O56 Zn41 2.034 . S
O56 C51 1.246 . S
O57 Zn49 2.024 . S
O57 C51 1.249 . S
H58 C40 0.948 . S
O59 Zn49 2.039 . S
O59 C63 1.251 . S
O60 Zn41 2.025 . S
O60 C63 1.254 . S
O61 C42 1.246 . S
O61 Zn49 2.034 . S
O62 Zn41 2.024 . S
O62 C42 1.249 . S
C63 O59 1.251 . S
C63 O60 1.254 . S
H64 C37 0.949 . S
H65 C39 0.950 . S
H66 C46 0.949 . S
H67 C48 0.950 . S
C68 O84 1.251 . S
C68 O86 1.254 . S
N69 C70 1.333 . S
N69 C74 1.307 . S
N69 Zn75 2.020 . S
C70 N69 1.333 . S
C70 C71 1.379 . S
C70 H88 0.952 . S
C71 C70 1.379 . S
C71 C72 1.390 . S
C71 H98 0.949 1_556 S
C72 C71 1.390 . S
C72 C73 1.357 . S
C73 C72 1.357 . S
C73 C74 1.370 . S
C73 H99 0.950 . S
C74 N69 1.307 . S
C74 C73 1.370 . S
C74 H92 0.948 . S
Zn75 N69 2.020 . S
Zn75 O84 2.039 . S
Zn75 O90 2.034 . S
Zn75 O94 2.025 . S
Zn75 O96 2.024 . S
C76 O95 1.246 . S
C76 O96 1.249 . S
N77 C78 1.307 . S
N77 C79 1.333 . S
N77 Zn83 2.020 . S
C78 N77 1.307 . S
C78 C82 1.371 . S
C78 H89 0.948 . S
C79 N77 1.333 . S
C79 C80 1.379 . S
C79 H87 0.952 . S
C80 C79 1.379 . S
C80 C81 1.390 1_455 S
C80 H100 0.949 1_455 S
C81 C80 1.390 1_655 S
C81 C82 1.356 1_655 S
C82 C78 1.371 . S
C82 C81 1.356 1_455 S
C82 H101 0.950 1_455 S
Zn83 N77 2.020 . S
Zn83 O86 2.025 . S
Zn83 O91 2.024 . S
Zn83 O93 2.039 . S
Zn83 O95 2.034 . S
O84 C68 1.251 . S
O84 Zn75 2.039 . S
C85 O90 1.246 . S
C85 O91 1.249 . S
O86 C68 1.254 . S
O86 Zn83 2.025 . S
H87 C79 0.952 . S
H88 C70 0.952 . S
H89 C78 0.948 . S
O90 Zn75 2.034 . S
O90 C85 1.246 . S
O91 Zn83 2.024 . S
O91 C85 1.249 . S
H92 C74 0.948 . S
O93 Zn83 2.039 . S
O93 C97 1.251 . S
O94 Zn75 2.025 . S
O94 C97 1.254 . S
O95 C76 1.246 . S
O95 Zn83 2.034 . S
O96 Zn75 2.024 . S
O96 C76 1.249 . S
C97 O93 1.251 . S
C97 O94 1.254 . S
H98 C71 0.949 1_554 S
H99 C73 0.950 . S
H100 C80 0.949 1_655 S
H101 C82 0.950 1_655 S
C102 O118 1.251 . S
C102 O120 1.254 . S
N103 C104 1.333 . S
N103 C108 1.307 . S
N103 Zn109 2.020 . S
C104 N103 1.333 . S
C104 C105 1.379 . S
C104 H122 0.952 1_565 S
C105 C104 1.379 . S
C105 C106 1.390 . S
C105 H132 0.949 1_565 S
C106 C105 1.390 . S
C106 C107 1.357 . S
C107 C106 1.357 . S
C107 C108 1.370 . S
C107 H133 0.950 . S
C108 N103 1.307 . S
C108 C107 1.370 . S
C108 H126 0.948 . S
Zn109 N103 2.020 . S
Zn109 O118 2.039 . S
Zn109 O124 2.034 . S
Zn109 O128 2.025 . S
Zn109 O130 2.024 . S
C110 O129 1.246 . S
C110 O130 1.249 . S
N111 C112 1.307 . S
N111 C113 1.333 . S
N111 Zn117 2.020 . S
C112 N111 1.307 . S
C112 C116 1.370 1_554 S
C112 H123 0.948 . S
C113 N111 1.333 . S
C113 C114 1.382 . S
C113 H121 0.952 . S
C114 C113 1.382 . S
C114 C115 1.388 1_554 S
C114 H134 0.948 1_554 S
C115 C114 1.388 1_556 S
C115 C116 1.357 . S
C116 C112 1.370 1_556 S
C116 C115 1.357 . S
C116 H135 0.950 . S
Zn117 N111 2.020 . S
Zn117 O120 2.025 . S
Zn117 O125 2.024 . S
Zn117 O127 2.039 . S
Zn117 O129 2.034 . S
O118 C102 1.251 . S
O118 Zn109 2.039 . S
C119 O124 1.246 . S
C119 O125 1.249 . S
O120 C102 1.254 . S
O120 Zn117 2.025 . S
H121 C113 0.952 . S
H122 C104 0.952 1_545 S
H123 C112 0.948 . S
O124 Zn109 2.034 . S
O124 C119 1.246 . S
O125 Zn117 2.024 . S
O125 C119 1.249 . S
H126 C108 0.948 . S
O127 Zn117 2.039 . S
O127 C131 1.251 . S
O128 Zn109 2.025 . S
O128 C131 1.254 . S
O129 C110 1.246 . S
O129 Zn117 2.034 . S
O130 Zn109 2.024 . S
O130 C110 1.249 . S
C131 O127 1.251 . S
C131 O128 1.254 . S
H132 C105 0.949 1_545 S
H133 C107 0.950 . S
H134 C114 0.948 1_556 S
H135 C116 0.950 . S
H136 C148 0.930 . S
H137 C150 0.930 . S
H138 C151 0.930 . S
H139 C155 0.959 . S
H140 C155 0.959 . S
H141 C155 0.961 . S
H142 C156 0.960 . S
H143 C156 0.961 . S
H144 C156 0.959 . S
H145 C159 0.929 . S
H146 C160 0.931 . S
H147 C162 0.930 . S
C148 H136 0.930 . S
C148 C149 1.399 . S
C148 C153 1.399 . S
C149 C148 1.399 . S
C149 C150 1.376 . S
C150 H137 0.930 . S
C150 C149 1.376 . S
C150 C151 1.388 . S
C151 H138 0.930 . S
C151 C150 1.388 . S
C151 C152 1.390 . S
C152 C151 1.390 . S
C152 C153 1.394 . S
C152 C158 1.465 . S
C153 C148 1.399 . S
C153 C152 1.394 . S
C153 C154 1.516 . S
C154 C153 1.516 . S
C154 C155 1.502 . S
C154 C156 1.561 . S
C154 C157 1.526 . S
C155 H139 0.959 . S
C155 H140 0.959 . S
C155 H141 0.961 . S
C155 C154 1.502 . S
C156 H142 0.960 . S
C156 H143 0.961 . S
C156 H144 0.959 . S
C156 C154 1.561 . S
C157 C154 1.526 . S
C157 C158 1.396 . S
C157 C162 1.390 . S
C158 C152 1.465 . S
C158 C157 1.396 . S
C158 C159 1.399 . S
C159 H145 0.929 . S
C159 C158 1.399 . S
C159 C160 1.385 . S
C160 H146 0.931 . S
C160 C159 1.385 . S
C160 C161 1.389 . S
C161 C160 1.389 . S
C161 C162 1.387 . S
C162 H147 0.930 . S
C162 C157 1.390 . S
C162 C161 1.387 . S
H163 C175 0.930 . S
H164 C177 0.930 . S
H165 C178 0.930 . S
H166 C182 0.959 . S
H167 C182 0.959 . S
H168 C182 0.961 . S
H169 C183 0.960 . S
H170 C183 0.961 . S
H171 C183 0.959 . S
H172 C186 0.929 . S
H173 C187 0.931 . S
H174 C189 0.930 . S
C175 H163 0.930 . S
C175 C176 1.399 . S
C175 C180 1.399 . S
C176 C175 1.399 . S
C176 C177 1.376 1_565 S
C177 H164 0.930 . S
C177 C176 1.376 1_545 S
C177 C178 1.388 . S
C178 H165 0.930 . S
C178 C177 1.388 . S
C178 C179 1.390 1_545 S
C179 C178 1.390 1_565 S
C179 C180 1.394 . S
C179 C185 1.465 . S
C180 C175 1.399 . S
C180 C179 1.394 . S
C180 C181 1.516 . S
C181 C180 1.516 . S
C181 C182 1.502 . S
C181 C183 1.561 . S
C181 C184 1.526 . S
C182 H166 0.959 . S
C182 H167 0.959 . S
C182 H168 0.961 . S
C182 C181 1.502 . S
C183 H169 0.960 . S
C183 H170 0.961 . S
C183 H171 0.959 . S
C183 C181 1.561 . S
C184 C181 1.526 . S
C184 C185 1.396 . S
C184 C189 1.390 . S
C185 C179 1.465 . S
C185 C184 1.396 . S
C185 C186 1.399 1_565 S
C186 H172 0.929 . S
C186 C185 1.399 1_545 S
C186 C187 1.385 . S
C187 H173 0.931 . S
C187 C186 1.385 . S
C187 C188 1.389 1_545 S
C188 C187 1.389 1_565 S
C188 C189 1.387 . S
C189 H174 0.930 . S
C189 C184 1.390 . S
C189 C188 1.387 . S
H190 C202 0.930 . S
H191 C204 0.930 . S
H192 C205 0.930 . S
H193 C209 0.959 . S
H194 C209 0.959 . S
H195 C209 0.961 . S
H196 C210 0.960 . S
H197 C210 0.961 . S
H198 C210 0.959 . S
H199 C213 0.929 . S
H200 C214 0.931 . S
H201 C216 0.930 . S
C202 H190 0.930 . S
C202 C203 1.399 . S
C202 C207 1.399 . S
C203 C202 1.399 . S
C203 C204 1.376 . S
C204 H191 0.930 . S
C204 C203 1.376 . S
C204 C205 1.388 . S
C205 H192 0.930 . S
C205 C204 1.388 . S
C205 C206 1.390 . S
C206 C205 1.390 . S
C206 C207 1.394 . S
C206 C212 1.465 . S
C207 C202 1.399 . S
C207 C206 1.394 . S
C207 C208 1.516 . S
C208 C207 1.516 . S
C208 C209 1.502 . S
C208 C210 1.561 . S
C208 C211 1.526 . S
C209 H193 0.959 . S
C209 H194 0.959 . S
C209 H195 0.961 . S
C209 C208 1.502 . S
C210 H196 0.960 . S
C210 H197 0.961 . S
C210 H198 0.959 . S
C210 C208 1.561 . S
C211 C208 1.526 . S
C211 C212 1.396 . S
C211 C216 1.390 . S
C212 C206 1.465 . S
C212 C211 1.396 . S
C212 C213 1.399 . S
C213 H199 0.929 . S
C213 C212 1.399 . S
C213 C214 1.385 . S
C214 H200 0.931 . S
C214 C213 1.385 . S
C214 C215 1.389 . S
C215 C214 1.389 . S
C215 C216 1.387 . S
C216 H201 0.930 . S
C216 C211 1.390 . S
C216 C215 1.387 . S
H217 C229 0.930 . S
H218 C231 0.930 . S
H219 C232 0.930 . S
H220 C236 0.959 . S
H221 C236 0.959 . S
H222 C236 0.961 . S
H223 C237 0.960 . S
H224 C237 0.961 . S
H225 C237 0.959 . S
H226 C240 0.929 1_565 S
H227 C241 0.931 . S
H228 C243 0.930 . S
C229 H217 0.930 . S
C229 C230 1.399 1_545 S
C229 C234 1.399 1_554 S
C230 C229 1.399 1_565 S
C230 C231 1.376 . S
C231 H218 0.930 . S
C231 C230 1.376 . S
C231 C232 1.388 1_554 S
C232 H219 0.930 . S
C232 C231 1.388 1_556 S
C232 C233 1.390 1_565 S
C233 C232 1.390 1_545 S
C233 C234 1.394 . S
C233 C239 1.465 . S
C234 C229 1.399 1_556 S
C234 C233 1.394 . S
C234 C235 1.516 . S
C235 C234 1.516 . S
C235 C236 1.502 . S
C235 C237 1.561 . S
C235 C238 1.526 . S
C236 H220 0.959 . S
C236 H221 0.959 . S
C236 H222 0.961 . S
C236 C235 1.502 . S
C237 H223 0.960 . S
C237 H224 0.961 . S
C237 H225 0.959 . S
C237 C235 1.561 . S
C238 C235 1.526 . S
C238 C239 1.396 . S
C238 C243 1.390 . S
C239 C233 1.465 . S
C239 C238 1.396 . S
C239 C240 1.399 . S
C240 H226 0.929 1_545 S
C240 C239 1.399 . S
C240 C241 1.385 . S
C241 H227 0.931 . S
C241 C240 1.385 . S
C241 C242 1.389 . S
C242 C241 1.389 . S
C242 C243 1.387 . S
C243 H228 0.930 . S
C243 C238 1.390 . S
C243 C242 1.387 . S
H244 C256 0.930 . S
H245 C258 0.930 . S
H246 C259 0.930 . S
H247 C263 0.959 . S
H248 C263 0.959 . S
H249 C263 0.961 . S
H250 C264 0.960 . S
H251 C264 0.961 . S
H252 C264 0.959 . S
H253 C267 0.929 . S
H254 C268 0.931 . S
H255 C270 0.930 . S
C256 H244 0.930 . S
C256 C257 1.399 1_455 S
C256 C261 1.399 . S
C257 C256 1.399 1_655 S
C257 C258 1.376 . S
C258 H245 0.930 . S
C258 C257 1.376 . S
C258 C259 1.388 . S
C259 H246 0.930 . S
C259 C258 1.388 . S
C259 C260 1.390 1_655 S
C260 C259 1.390 1_455 S
C260 C261 1.394 . S
C260 C266 1.465 . S
C261 C256 1.399 . S
C261 C260 1.394 . S
C261 C262 1.516 . S
C262 C261 1.516 . S
C262 C263 1.502 . S
C262 C264 1.561 . S
C262 C265 1.526 . S
C263 H247 0.959 . S
C263 H248 0.959 . S
C263 H249 0.961 . S
C263 C262 1.502 . S
C264 H250 0.960 . S
C264 H251 0.961 . S
C264 H252 0.959 . S
C264 C262 1.561 . S
C265 C262 1.526 . S
C265 C266 1.396 . S
C265 C270 1.390 . S
C266 C260 1.465 . S
C266 C265 1.396 . S
C266 C267 1.399 . S
C267 H253 0.929 . S
C267 C266 1.399 . S
C267 C268 1.385 . S
C268 H254 0.931 . S
C268 C267 1.385 . S
C268 C269 1.389 . S
C269 C268 1.389 . S
C269 C270 1.387 . S
C270 H255 0.930 . S
C270 C265 1.390 . S
C270 C269 1.387 . S
H271 C283 0.930 . S
H272 C285 0.930 . S
H273 C286 0.930 . S
H274 C290 0.959 . S
H275 C290 0.959 . S
H276 C290 0.961 . S
H277 C291 0.960 . S
H278 C291 0.961 1_655 S
H279 C291 0.959 . S
H280 C294 0.929 . S
H281 C295 0.926 1_545 S
H282 C297 0.930 1_545 S
C283 H271 0.930 . S
C283 C284 1.399 . S
C283 C288 1.399 . S
C284 C283 1.399 . S
C284 C285 1.376 . S
C285 H272 0.930 . S
C285 C284 1.376 . S
C285 C286 1.388 . S
C286 H273 0.930 . S
C286 C285 1.388 . S
C286 C287 1.390 . S
C287 C286 1.390 . S
C287 C288 1.394 . S
C287 C293 1.465 . S
C288 C283 1.399 . S
C288 C287 1.394 . S
C288 C289 1.516 1_455 S
C289 C288 1.516 1_655 S
C289 C290 1.502 . S
C289 C291 1.561 1_655 S
C289 C292 1.526 . S
C290 H274 0.959 . S
C290 H275 0.959 . S
C290 H276 0.961 . S
C290 C289 1.502 . S
C291 H277 0.960 . S
C291 H278 0.961 1_455 S
C291 H279 0.959 . S
C291 C289 1.561 1_455 S
C292 C289 1.526 . S
C292 C293 1.396 1_655 S
C292 C297 1.390 . S
C293 C287 1.465 . S
C293 C292 1.396 1_455 S
C293 C294 1.399 . S
C294 H280 0.929 . S
C294 C293 1.399 . S
C294 C295 1.394 1_455 S
C295 H281 0.926 1_565 S
C295 C294 1.394 1_655 S
C295 C296 1.385 1_565 S
C296 C295 1.385 1_545 S
C296 C297 1.387 1_545 S
C297 H282 0.930 1_565 S
C297 C292 1.390 . S
C297 C296 1.387 1_565 S
H298 C310 0.930 1_554 S
H299 C312 0.930 . S
H300 C313 0.930 . S
H301 C317 0.959 . S
H302 C317 0.959 . S
H303 C317 0.961 . S
H304 C318 0.960 . S
H305 C318 0.961 . S
H306 C318 0.959 . S
H307 C321 0.929 . S
H308 C322 0.931 . S
H309 C324 0.930 1_554 S
C310 H298 0.930 1_556 S
C310 C311 1.399 . S
C310 C315 1.399 . S
C311 C310 1.399 . S
C311 C312 1.376 . S
C312 H299 0.930 . S
C312 C311 1.376 . S
C312 C313 1.388 . S
C313 H300 0.930 . S
C313 C312 1.388 . S
C313 C314 1.390 . S
C314 C313 1.390 . S
C314 C315 1.394 . S
C314 C320 1.465 . S
C315 C310 1.399 . S
C315 C314 1.394 . S
C315 C316 1.516 1_556 S
C316 C315 1.516 1_554 S
C316 C317 1.502 . S
C316 C318 1.561 . S
C316 C319 1.526 1_554 S
C317 H301 0.959 . S
C317 H302 0.959 . S
C317 H303 0.961 . S
C317 C316 1.502 . S
C318 H304 0.960 . S
C318 H305 0.961 . S
C318 H306 0.959 . S
C318 C316 1.561 . S
C319 C316 1.526 1_556 S
C319 C320 1.396 . S
C319 C324 1.390 . S
C320 C314 1.465 . S
C320 C319 1.396 . S
C320 C321 1.399 . S
C321 H307 0.929 . S
C321 C320 1.399 . S
C321 C322 1.385 . S
C322 H308 0.931 . S
C322 C321 1.385 . S
C322 C323 1.389 . S
C323 C322 1.389 . S
C323 C324 1.387 . S
C324 H309 0.930 1_556 S
C324 C319 1.390 . S
C324 C323 1.387 . S
H325 C337 0.930 . S
H326 C339 0.930 . S
H327 C340 0.930 . S
H328 C344 0.959 . S
H329 C344 0.959 . S
H330 C344 0.961 . S
H331 C345 0.960 . S
H332 C345 0.961 . S
H333 C345 0.959 . S
H334 C348 0.929 . S
H335 C349 0.931 . S
H336 C351 0.930 . S
C337 H325 0.930 . S
C337 C338 1.399 . S
C337 C342 1.399 . S
C338 C337 1.399 . S
C338 C339 1.376 . S
C339 H326 0.930 . S
C339 C338 1.376 . S
C339 C340 1.388 . S
C340 H327 0.930 . S
C340 C339 1.388 . S
C340 C341 1.390 . S
C341 C340 1.390 . S
C341 C342 1.394 . S
C341 C347 1.465 . S
C342 C337 1.399 . S
C342 C341 1.394 . S
C342 C343 1.516 . S
C343 C342 1.516 . S
C343 C344 1.502 . S
C343 C345 1.561 . S
C343 C346 1.526 . S
C344 H328 0.959 . S
C344 H329 0.959 . S
C344 H330 0.961 . S
C344 C343 1.502 . S
C345 H331 0.960 . S
C345 H332 0.961 . S
C345 H333 0.959 . S
C345 C343 1.561 . S
C346 C343 1.526 . S
C346 C347 1.396 . S
C346 C351 1.390 . S
C347 C341 1.465 . S
C347 C346 1.396 . S
C347 C348 1.399 . S
C348 H334 0.929 . S
C348 C347 1.399 . S
C348 C349 1.385 . S
C349 H335 0.931 . S
C349 C348 1.385 . S
C349 C350 1.389 . S
C350 C349 1.389 . S
C350 C351 1.387 . S
C351 H336 0.930 . S
C351 C346 1.390 . S
C351 C350 1.387 . S
H352 C364 0.930 . S
H353 C366 0.930 . S
H354 C367 0.930 . S
H355 C371 0.959 . S
H356 C371 0.959 . S
H357 C371 0.961 . S
H358 C372 0.960 . S
H359 C372 0.961 . S
H360 C372 0.959 . S
H361 C375 0.929 . S
H362 C376 0.931 . S
H363 C378 0.930 . S
C364 H352 0.930 . S
C364 C365 1.399 . S
C364 C369 1.399 . S
C365 C364 1.399 . S
C365 C366 1.376 . S
C366 H353 0.930 . S
C366 C365 1.376 . S
C366 C367 1.388 . S
C367 H354 0.930 . S
C367 C366 1.388 . S
C367 C368 1.390 . S
C368 C367 1.390 . S
C368 C369 1.394 . S
C368 C374 1.465 . S
C369 C364 1.399 . S
C369 C368 1.394 . S
C369 C370 1.516 . S
C370 C369 1.516 . S
C370 C371 1.502 . S
C370 C372 1.561 . S
C370 C373 1.526 . S
C371 H355 0.959 . S
C371 H356 0.959 . S
C371 H357 0.961 . S
C371 C370 1.502 . S
C372 H358 0.960 . S
C372 H359 0.961 . S
C372 H360 0.959 . S
C372 C370 1.561 . S
C373 C370 1.526 . S
C373 C374 1.396 . S
C373 C378 1.390 . S
C374 C368 1.465 . S
C374 C373 1.396 . S
C374 C375 1.399 . S
C375 H361 0.929 . S
C375 C374 1.399 . S
C375 C376 1.385 . S
C376 H362 0.931 . S
C376 C375 1.385 . S
C376 C377 1.389 . S
C377 C376 1.389 . S
C377 C378 1.387 . S
C378 H363 0.930 . S
C378 C373 1.390 . S
C378 C377 1.387 . S
H379 C391 0.930 . S
H380 C393 0.930 . S
H381 C394 0.930 . S
H382 C398 0.959 1_455 S
H383 C398 0.959 . S
H384 C398 0.961 . S
H385 C399 0.960 . S
H386 C399 0.961 . S
H387 C399 0.959 . S
H388 C402 0.929 . S
H389 C403 0.931 . S
H390 C405 0.930 . S
C391 H379 0.930 . S
C391 C392 1.399 . S
C391 C396 1.399 . S
C392 C391 1.399 . S
C392 C393 1.376 . S
C393 H380 0.930 . S
C393 C392 1.376 . S
C393 C394 1.388 . S
C394 H381 0.930 . S
C394 C393 1.388 . S
C394 C395 1.390 . S
C395 C394 1.390 . S
C395 C396 1.394 . S
C395 C401 1.465 . S
C396 C391 1.399 . S
C396 C395 1.394 . S
C396 C397 1.516 . S
C397 C396 1.516 . S
C397 C398 1.502 . S
C397 C399 1.561 . S
C397 C400 1.526 . S
C398 H382 0.959 1_655 S
C398 H383 0.959 . S
C398 H384 0.961 . S
C398 C397 1.502 . S
C399 H385 0.960 . S
C399 H386 0.961 . S
C399 H387 0.959 . S
C399 C397 1.561 . S
C400 C397 1.526 . S
C400 C401 1.396 . S
C400 C405 1.390 . S
C401 C395 1.465 . S
C401 C400 1.396 . S
C401 C402 1.399 . S
C402 H388 0.929 . S
C402 C401 1.399 . S
C402 C403 1.385 . S
C403 H389 0.931 . S
C403 C402 1.385 . S
C403 C404 1.389 . S
C404 C403 1.389 . S
C404 C405 1.387 . S
C405 H390 0.930 . S
C405 C400 1.390 . S
C405 C404 1.387 . S
H406 C418 0.930 . S
H407 C420 0.930 1_455 S
H408 C421 0.930 . S
H409 C425 0.959 1_554 S
H410 C425 0.959 . S
H411 C425 0.961 . S
H412 C426 0.960 . S
H413 C426 0.961 . S
H414 C426 0.959 . S
H415 C429 0.929 . S
H416 C430 0.931 . S
H417 C432 0.930 . S
C418 H406 0.930 . S
C418 C419 1.399 1_655 S
C418 C423 1.402 . S
C419 C418 1.399 1_455 S
C419 C420 1.376 1_456 S
C420 H407 0.930 1_655 S
C420 C419 1.376 1_654 S
C420 C421 1.388 . S
C421 H408 0.930 . S
C421 C420 1.388 . S
C421 C422 1.390 . S
C422 C421 1.390 . S
C422 C423 1.387 1_554 S
C422 C428 1.465 . S
C423 C418 1.402 . S
C423 C422 1.387 1_556 S
C423 C424 1.519 . S
C424 C423 1.519 . S
C424 C425 1.502 . S
C424 C426 1.561 . S
C424 C427 1.526 1_556 S
C425 H409 0.959 1_556 S
C425 H410 0.959 . S
C425 H411 0.961 . S
C425 C424 1.502 . S
C426 H412 0.960 . S
C426 H413 0.961 . S
C426 H414 0.959 . S
C426 C424 1.561 . S
C427 C424 1.526 1_554 S
C427 C428 1.396 . S
C427 C432 1.390 . S
C428 C422 1.465 . S
C428 C427 1.396 . S
C428 C429 1.399 . S
C429 H415 0.929 . S
C429 C428 1.399 . S
C429 C430 1.385 . S
C430 H416 0.931 . S
C430 C429 1.385 . S
C430 C431 1.389 . S
C431 C430 1.389 . S
C431 C432 1.387 . S
C432 H417 0.930 . S
C432 C427 1.390 . S
C432 C431 1.387 . S
H433 C445 0.930 . S
H434 C447 0.930 . S
H435 C448 0.930 . S
H436 C452 0.959 . S
H437 C452 0.959 . S
H438 C452 0.961 . S
H439 C453 0.960 . S
H440 C453 0.961 . S
H441 C453 0.959 . S
H442 C456 0.929 . S
H443 C457 0.931 . S
H444 C459 0.930 . S
C445 H433 0.930 . S
C445 C446 1.399 . S
C445 C450 1.399 . S
C446 C445 1.399 . S
C446 C447 1.376 . S
C447 H434 0.930 . S
C447 C446 1.376 . S
C447 C448 1.388 . S
C448 H435 0.930 . S
C448 C447 1.388 . S
C448 C449 1.390 . S
C449 C448 1.390 . S
C449 C450 1.394 . S
C449 C455 1.465 . S
C450 C445 1.399 . S
C450 C449 1.394 . S
C450 C451 1.516 . S
C451 C450 1.516 . S
C451 C452 1.502 . S
C451 C453 1.561 . S
C451 C454 1.526 . S
C452 H436 0.959 . S
C452 H437 0.959 . S
C452 H438 0.961 . S
C452 C451 1.502 . S
C453 H439 0.960 . S
C453 H440 0.961 . S
C453 H441 0.959 . S
C453 C451 1.561 . S
C454 C451 1.526 . S
C454 C455 1.396 . S
C454 C459 1.390 . S
C455 C449 1.465 . S
C455 C454 1.396 . S
C455 C456 1.399 . S
C456 H442 0.929 . S
C456 C455 1.399 . S
C456 C457 1.385 . S
C457 H443 0.931 . S
C457 C456 1.385 . S
C457 C458 1.389 . S
C458 C457 1.389 . S
C458 C459 1.387 . S
C459 H444 0.930 . S
C459 C454 1.390 . S
C459 C458 1.387 . S
C149 C68 2.310 1_554 S
C161 C0 2.362 . S
C176 C106 0.867 . S
C188 C38 0.722 . S
C203 C76 2.226 . S
C215 C8 2.295 . S
C230 C119 0.872 . S
C242 C51 0.917 . S
C257 C42 1.657 . S
C269 C13 1.615 . S
C284 C97 1.102 . S
C296 C63 1.092 . S
C311 C72 0.955 . S
C323 C115 1.033 . S
C338 C17 2.045 . S
C350 C102 1.973 1_545 S
C365 C34 1.984 . S
C377 C29 2.058 . S
C392 C81 1.101 . S
C404 C47 0.954 . S
C419 C85 1.060 . S
C431 C131 1.102 . S
C446 C110 1.541 . S
C458 C4 1.598 . S
