# Generated by pormake.
# Topology pcb, (4)-cn, num edge types: 1
# Building blocks:
#     Node 0, Type 0, BuildingBlock: KUFVIS_clean_sbu_0, # of connection points: 4
#     Node 1, Type 0, BuildingBlock: KUFVIS_clean_sbu_0, # of connection points: 4
#     Node 2, Type 0, BuildingBlock: KUFVIS_clean_sbu_0, # of connection points: 4
#     Node 3, Type 0, BuildingBlock: KUFVIS_clean_sbu_0, # of connection points: 4
#     Node 4, Type 0, BuildingBlock: KUFVIS_clean_sbu_0, # of connection points: 4
#     Node 5, Type 0, BuildingBlock: KUFVIS_clean_sbu_0, # of connection points: 4
#     Node 6, Type 0, BuildingBlock: KUFVIS_clean_sbu_0, # of connection points: 4
#     Node 7, Type 0, BuildingBlock: KUFVIS_clean_sbu_0, # of connection points: 4
#     Node 8, Type 0, BuildingBlock: KUFVIS_clean_sbu_0, # of connection points: 4
#     Node 9, Type 0, BuildingBlock: KUFVIS_clean_sbu_0, # of connection points: 4
#     Node 10, Type 0, BuildingBlock: KUFVIS_clean_sbu_0, # of connection points: 4
#     Node 11, Type 0, BuildingBlock: KUFVIS_clean_sbu_0, # of connection points: 4
#     Node 12, Type 0, BuildingBlock: KUFVIS_clean_sbu_0, # of connection points: 4
#     Node 13, Type 0, BuildingBlock: KUFVIS_clean_sbu_0, # of connection points: 4
#     Node 14, Type 0, BuildingBlock: KUFVIS_clean_sbu_0, # of connection points: 4
#     Node 15, Type 0, BuildingBlock: KUFVIS_clean_sbu_0, # of connection points: 4
#     Edge 16, Type (0, 0), BuildingBlock: XIVTED_clean_linker_0, # of connection points: 2
#     Edge 17, Type (0, 0), BuildingBlock: XIVTED_clean_linker_0, # of connection points: 2
#     Edge 18, Type (0, 0), BuildingBlock: XIVTED_clean_linker_0, # of connection points: 2
#     Edge 19, Type (0, 0), BuildingBlock: XIVTED_clean_linker_0, # of connection points: 2
#     Edge 20, Type (0, 0), BuildingBlock: XIVTED_clean_linker_0, # of connection points: 2
#     Edge 21, Type (0, 0), BuildingBlock: XIVTED_clean_linker_0, # of connection points: 2
#     Edge 22, Type (0, 0), BuildingBlock: XIVTED_clean_linker_0, # of connection points: 2
#     Edge 23, Type (0, 0), BuildingBlock: XIVTED_clean_linker_0, # of connection points: 2
#     Edge 24, Type (0, 0), BuildingBlock: XIVTED_clean_linker_0, # of connection points: 2
#     Edge 25, Type (0, 0), BuildingBlock: XIVTED_clean_linker_0, # of connection points: 2
#     Edge 26, Type (0, 0), BuildingBlock: XIVTED_clean_linker_0, # of connection points: 2
#     Edge 27, Type (0, 0), BuildingBlock: XIVTED_clean_linker_0, # of connection points: 2
#     Edge 28, Type (0, 0), BuildingBlock: XIVTED_clean_linker_0, # of connection points: 2
#     Edge 29, Type (0, 0), BuildingBlock: XIVTED_clean_linker_0, # of connection points: 2
#     Edge 30, Type (0, 0), BuildingBlock: XIVTED_clean_linker_0, # of connection points: 2
#     Edge 31, Type (0, 0), BuildingBlock: XIVTED_clean_linker_0, # of connection points: 2
#     Edge 32, Type (0, 0), BuildingBlock: XIVTED_clean_linker_0, # of connection points: 2
#     Edge 33, Type (0, 0), BuildingBlock: XIVTED_clean_linker_0, # of connection points: 2
#     Edge 34, Type (0, 0), BuildingBlock: XIVTED_clean_linker_0, # of connection points: 2
#     Edge 35, Type (0, 0), BuildingBlock: XIVTED_clean_linker_0, # of connection points: 2
#     Edge 36, Type (0, 0), BuildingBlock: XIVTED_clean_linker_0, # of connection points: 2
#     Edge 37, Type (0, 0), BuildingBlock: XIVTED_clean_linker_0, # of connection points: 2
#     Edge 38, Type (0, 0), BuildingBlock: XIVTED_clean_linker_0, # of connection points: 2
#     Edge 39, Type (0, 0), BuildingBlock: XIVTED_clean_linker_0, # of connection points: 2
#     Edge 40, Type (0, 0), BuildingBlock: XIVTED_clean_linker_0, # of connection points: 2
#     Edge 41, Type (0, 0), BuildingBlock: XIVTED_clean_linker_0, # of connection points: 2
#     Edge 42, Type (0, 0), BuildingBlock: XIVTED_clean_linker_0, # of connection points: 2
#     Edge 43, Type (0, 0), BuildingBlock: XIVTED_clean_linker_0, # of connection points: 2
#     Edge 44, Type (0, 0), BuildingBlock: XIVTED_clean_linker_0, # of connection points: 2
#     Edge 45, Type (0, 0), BuildingBlock: XIVTED_clean_linker_0, # of connection points: 2
#     Edge 46, Type (0, 0), BuildingBlock: XIVTED_clean_linker_0, # of connection points: 2
#     Edge 47, Type (0, 0), BuildingBlock: XIVTED_clean_linker_0, # of connection points: 2
# Relax obj value: 0.289
# Max RMSD: 0.149
# Mean RMSD: 0.149
data_MOF--net-pcb--node1-KUFVIS_clean_sbu_0--edge1-XIVTED_clean_linker_0
_symmetry_space_group_name_H-M    P1
_symmetry_Int_Tables_number       1
_symmetry_cell_setting            triclinic
loop_
_symmetry_equiv_pos_as_xyz
'x, y, z'
_cell_length_a     38.960374
_cell_length_b     49.123619
_cell_length_c     49.115037
_cell_angle_alpha  89.99816
_cell_angle_beta   89.998952
_cell_angle_gamma 89.9992
loop_
_atom_site_label
_atom_site_type_symbol
_atom_site_fract_x
_atom_site_fract_y
_atom_site_fract_z
_atom_type_partial_charge
Mn0 Mn 0.18323 0.15471 0.14198 0.0
Mn1 Mn 0.14077 0.20695 0.11235 0.0
C2 C 0.12761 0.16498 0.15496 0.0
C3 C 0.20084 0.10938 0.14371 0.0
C4 C 0.19646 0.21479 0.15466 0.0
O5 O 0.21021 0.16115 0.10699 0.0
O6 O 0.17769 0.19398 0.0877 0.0
C7 C 0.10924 0.17732 0.06616 0.0
N8 N 0.1058 0.19307 0.08882 0.0
C9 C 0.04436 0.19425 0.08375 0.0
C10 C 0.04728 0.17818 0.06027 0.0
C11 C 0.07986 0.16964 0.05148 0.0
C12 C 0.07456 0.20134 0.0975 0.0
H13 H 0.13419 0.1706 0.05935 0.0
C14 C 0.20256 0.1769 0.08718 0.0
O15 O 0.21802 0.12855 0.15569 0.0
O16 O 0.17353 0.11655 0.13031 0.0
N17 N 0.10377 0.22085 0.13395 0.0
C18 C 0.1052 0.23521 0.15767 0.0
C19 C 0.07469 0.24483 0.16948 0.0
C20 C 0.04307 0.23973 0.15673 0.0
C21 C 0.04224 0.2251 0.13223 0.0
C22 C 0.0735 0.21621 0.1213 0.0
H23 H 0.1294 0.23924 0.16757 0.0
O24 O 0.14756 0.15149 0.17129 0.0
O25 O 0.14083 0.17199 0.13176 0.0
O26 O 0.20153 0.18958 0.15907 0.0
O27 O 0.17545 0.2236 0.13676 0.0
C28 C 0.01158 0.21858 0.11849 0.0
C29 C 0.01263 0.2031 0.09432 0.0
H30 H 0.02468 0.17211 0.04896 0.0
H31 H 0.08231 0.15712 0.03345 0.0
H32 H 0.07554 0.25608 0.18841 0.0
H33 H 0.01956 0.24695 0.16605 0.0
H34 H 0.98701 0.22504 0.12655 0.0
H35 H 0.98885 0.19789 0.08415 0.0
Mn36 Mn 0.81699 0.14157 0.15534 0.0
Mn37 Mn 0.85939 0.11154 0.20738 0.0
C38 C 0.87271 0.15431 0.16559 0.0
C39 C 0.79948 0.14345 0.11 0.0
C40 C 0.80391 0.15398 0.21549 0.0
O41 O 0.78976 0.10667 0.16172 0.0
O42 O 0.82242 0.08704 0.19427 0.0
C43 C 0.89083 0.0655 0.17746 0.0
N44 N 0.89432 0.08805 0.19337 0.0
C45 C 0.95574 0.0829 0.19451 0.0
C46 C 0.95277 0.05953 0.17829 0.0
C47 C 0.92017 0.05084 0.16969 0.0
C48 C 0.92557 0.09664 0.20169 0.0
H49 H 0.86585 0.05878 0.1707 0.0
C50 C 0.79744 0.08672 0.1773 0.0
O51 O 0.78238 0.15557 0.12913 0.0
O52 O 0.8266 0.12984 0.1172 0.0
N53 N 0.89644 0.13301 0.22141 0.0
C54 C 0.89505 0.15664 0.23591 0.0
C55 C 0.92559 0.16835 0.2456 0.0
C56 C 0.95719 0.1556 0.24042 0.0
C57 C 0.95796 0.13118 0.22565 0.0
C58 C 0.92668 0.12034 0.2167 0.0
H59 H 0.87087 0.16655 0.23999 0.0
O60 O 0.85284 0.17074 0.15214 0.0
O61 O 0.85936 0.13115 0.17254 0.0
O62 O 0.79889 0.15868 0.19032 0.0
O63 O 0.82475 0.13588 0.22415 0.0
C64 C 0.98859 0.11745 0.21904 0.0
C65 C 0.98749 0.09337 0.20341 0.0
H66 H 0.97535 0.04823 0.17214 0.0
H67 H 0.91768 0.0329 0.15705 0.0
H68 H 0.92478 0.18722 0.25695 0.0
H69 H 0.98071 0.16484 0.24768 0.0
H70 H 0.01318 0.12544 0.22554 0.0
H71 H 0.01125 0.08321 0.19813 0.0
Mn72 Mn 0.81654 0.84556 0.14184 0.0
Mn73 Mn 0.85794 0.7933 0.11142 0.0
C74 C 0.87241 0.83501 0.15396 0.0
C75 C 0.79966 0.89106 0.14342 0.0
C76 C 0.80295 0.78555 0.15438 0.0
O77 O 0.78863 0.8392 0.10728 0.0
O78 O 0.82092 0.80673 0.08714 0.0
C79 C 0.8893 0.82301 0.0652 0.0
N80 N 0.89282 0.8071 0.08774 0.0
C81 C 0.95422 0.80584 0.08245 0.0
C82 C 0.95121 0.82206 0.05908 0.0
C83 C 0.91861 0.83072 0.05046 0.0
C84 C 0.92408 0.79871 0.09626 0.0
H85 H 0.86433 0.82984 0.05854 0.0
C86 C 0.79603 0.82379 0.08714 0.0
O87 O 0.78252 0.87222 0.15599 0.0
O88 O 0.82647 0.88345 0.12966 0.0
N89 N 0.89502 0.77906 0.13271 0.0
C90 C 0.89369 0.76461 0.15638 0.0
C91 C 0.92423 0.75487 0.16802 0.0
C92 C 0.9558 0.75997 0.15518 0.0
C93 C 0.95653 0.77473 0.13076 0.0
C94 C 0.92523 0.78371 0.11997 0.0
H95 H 0.86954 0.76059 0.16636 0.0
O96 O 0.85302 0.84866 0.17057 0.0
O97 O 0.85847 0.82806 0.13102 0.0
O98 O 0.79839 0.81075 0.15929 0.0
O99 O 0.82331 0.7768 0.13596 0.0
C100 C 0.98713 0.7813 0.11696 0.0
C101 C 0.98599 0.79691 0.09287 0.0
H102 H 0.97377 0.82818 0.04774 0.0
H103 H 0.9161 0.84336 0.03252 0.0
H104 H 0.92346 0.74353 0.1869 0.0
H105 H 0.97933 0.75266 0.16437 0.0
H106 H 0.01173 0.77479 0.12492 0.0
H107 H 0.00973 0.80217 0.08267 0.0
Mn108 Mn 0.18345 0.85919 0.1538 0.0
Mn109 Mn 0.1409 0.88884 0.20594 0.0
C110 C 0.12757 0.84658 0.16378 0.0
C111 C 0.20085 0.85789 0.1084 0.0
C112 C 0.19641 0.84637 0.21388 0.0
O113 O 0.21077 0.89398 0.16057 0.0
O114 O 0.17793 0.91342 0.19314 0.0
C115 C 0.10957 0.9351 0.17628 0.0
N116 N 0.10602 0.91241 0.19197 0.0
C117 C 0.04456 0.91741 0.19278 0.0
C118 C 0.0476 0.94092 0.17678 0.0
C119 C 0.08025 0.94976 0.16845 0.0
C120 C 0.07471 0.90366 0.20001 0.0
H121 H 0.13459 0.94194 0.16973 0.0
C122 C 0.20303 0.9138 0.17629 0.0
O123 O 0.21797 0.84544 0.12732 0.0
O124 O 0.17381 0.87144 0.11587 0.0
N125 N 0.1038 0.86721 0.21962 0.0
C126 C 0.10514 0.84345 0.23391 0.0
C127 C 0.07455 0.83156 0.24328 0.0
C128 C 0.04295 0.84427 0.23799 0.0
C129 C 0.04222 0.86882 0.22344 0.0
C130 C 0.07355 0.87982 0.2148 0.0
H131 H 0.12932 0.83358 0.23808 0.0
O132 O 0.14737 0.83018 0.15024 0.0
O133 O 0.14116 0.86955 0.17101 0.0
O134 O 0.20145 0.84173 0.18868 0.0
O135 O 0.17552 0.86442 0.22259 0.0
C136 C 0.0116 0.88256 0.2168 0.0
C137 C 0.01277 0.90679 0.20141 0.0
H138 H 0.02504 0.95221 0.17059 0.0
H139 H 0.08279 0.96781 0.15597 0.0
H140 H 0.07532 0.8126 0.25448 0.0
H141 H 0.01939 0.8349 0.24503 0.0
H142 H 0.98699 0.87445 0.22308 0.0
H143 H 0.98902 0.91695 0.19608 0.0
Mn144 Mn 0.18313 0.84645 0.8584 0.0
Mn145 Mn 0.14113 0.79405 0.88806 0.0
C146 C 0.12718 0.83641 0.84605 0.0
C147 C 0.20058 0.89182 0.85721 0.0
C148 C 0.19609 0.78651 0.84506 0.0
O149 O 0.21084 0.83955 0.89296 0.0
O150 O 0.17834 0.80686 0.91251 0.0
C151 C 0.11019 0.82338 0.9347 0.0
N152 N 0.10645 0.80779 0.91196 0.0
C153 C 0.04505 0.80688 0.91732 0.0
C154 C 0.04828 0.82277 0.94089 0.0
C155 C 0.08099 0.8311 0.94958 0.0
C156 C 0.07508 0.79973 0.90337 0.0
H157 H 0.13525 0.82994 0.94142 0.0
C158 C 0.20334 0.82382 0.91283 0.0
O159 O 0.21752 0.87295 0.84456 0.0
O160 O 0.17363 0.88434 0.87088 0.0
N161 N 0.10385 0.78036 0.86663 0.0
C162 C 0.10498 0.76618 0.84279 0.0
C163 C 0.07431 0.75676 0.83109 0.0
C164 C 0.04283 0.76191 0.84404 0.0
C165 C 0.04231 0.77638 0.86864 0.0
C166 C 0.07372 0.78504 0.87948 0.0
H167 H 0.12907 0.76213 0.83273 0.0
O168 O 0.14679 0.8501 0.82962 0.0
O169 O 0.14096 0.82911 0.86894 0.0
O170 O 0.20099 0.81175 0.84061 0.0
O171 O 0.17553 0.77761 0.86325 0.0
C172 C 0.01181 0.78297 0.88257 0.0
C173 C 0.01317 0.79828 0.90684 0.0
H174 H 0.02581 0.82889 0.95235 0.0
H175 H 0.08368 0.84348 0.96768 0.0
H176 H 0.07492 0.74565 0.81207 0.0
H177 H 0.0192 0.75486 0.8348 0.0
H178 H 0.98713 0.77671 0.87457 0.0
H179 H 0.98951 0.80356 0.91715 0.0
Mn180 Mn 0.18343 0.14147 0.84606 0.0
Mn181 Mn 0.14193 0.11153 0.79357 0.0
C182 C 0.12738 0.15339 0.83591 0.0
C183 C 0.20059 0.14279 0.89149 0.0
C184 C 0.19648 0.15487 0.78613 0.0
O185 O 0.21154 0.1071 0.83923 0.0
O186 O 0.17938 0.08737 0.80643 0.0
C187 C 0.11146 0.06466 0.82283 0.0
N188 N 0.10749 0.0874 0.80727 0.0
C189 C 0.04615 0.08161 0.80631 0.0
C190 C 0.04963 0.05804 0.82217 0.0
C191 C 0.08242 0.04957 0.83051 0.0
C192 C 0.07604 0.09578 0.79921 0.0
H193 H 0.13659 0.0581 0.8294 0.0
C194 C 0.20431 0.08721 0.82346 0.0
O195 O 0.21752 0.15556 0.87268 0.0
O196 O 0.17386 0.12893 0.8839 0.0
N197 N 0.10443 0.13272 0.77987 0.0
C198 C 0.10531 0.15659 0.76573 0.0
C199 C 0.07451 0.16814 0.7564 0.0
C200 C 0.04316 0.15501 0.76157 0.0
C201 C 0.0429 0.13036 0.77595 0.0
C202 C 0.07443 0.11969 0.78456 0.0
H203 H 0.1293 0.16681 0.76168 0.0
O204 O 0.14674 0.16998 0.84961 0.0
O205 O 0.14148 0.13063 0.82863 0.0
O206 O 0.20126 0.15936 0.81138 0.0
O207 O 0.1761 0.13658 0.77719 0.0
C208 C 0.01255 0.1162 0.78248 0.0
C209 C 0.01416 0.09188 0.79771 0.0
H210 H 0.02727 0.04642 0.82826 0.0
H211 H 0.0853 0.03148 0.84287 0.0
H212 H 0.07492 0.18718 0.74532 0.0
H213 H 0.01943 0.16412 0.75456 0.0
H214 H 0.98778 0.12404 0.77623 0.0
H215 H 0.99061 0.0814 0.80294 0.0
Mn216 Mn 0.81645 0.15401 0.85937 0.0
Mn217 Mn 0.85854 0.20637 0.889 0.0
C218 C 0.8722 0.16426 0.84667 0.0
C219 C 0.79912 0.10862 0.85816 0.0
C220 C 0.80297 0.21396 0.8465 0.0
O221 O 0.78912 0.16069 0.89415 0.0
O222 O 0.82183 0.19323 0.91374 0.0
C223 C 0.89046 0.17691 0.93514 0.0
N224 N 0.89371 0.19264 0.91244 0.0
C225 C 0.9552 0.19375 0.91714 0.0
C226 C 0.95247 0.17772 0.94066 0.0
C227 C 0.91996 0.16923 0.94966 0.0
C228 C 0.92488 0.20087 0.90357 0.0
H229 H 0.86556 0.17021 0.94209 0.0
C230 C 0.79689 0.17621 0.91412 0.0
O231 O 0.78198 0.12751 0.84569 0.0
O232 O 0.82623 0.1161 0.87163 0.0
N233 N 0.89537 0.22033 0.86724 0.0
C234 C 0.89375 0.23461 0.84348 0.0
C235 C 0.92417 0.24417 0.83148 0.0
C236 C 0.9559 0.23908 0.84406 0.0
C237 C 0.95692 0.2245 0.86859 0.0
C238 C 0.92575 0.21569 0.87973 0.0
H239 H 0.86947 0.23862 0.83369 0.0
O240 O 0.85248 0.15058 0.83032 0.0
O241 O 0.85864 0.17142 0.86968 0.0
O242 O 0.79826 0.18874 0.84188 0.0
O243 O 0.82362 0.22283 0.86464 0.0
C244 C 0.9877 0.21794 0.88215 0.0
C245 C 0.98685 0.20251 0.90636 0.0
H246 H 0.97517 0.17163 0.95184 0.0
H247 H 0.91765 0.15673 0.96772 0.0
H248 H 0.92317 0.25537 0.81252 0.0
H249 H 0.97932 0.24626 0.8346 0.0
H250 H 0.01221 0.22433 0.87392 0.0
H251 H 0.01071 0.19727 0.91638 0.0
Mn252 Mn 0.81574 0.85885 0.8463 0.0
Mn253 Mn 0.85767 0.88947 0.7944 0.0
C254 C 0.8719 0.84709 0.83629 0.0
C255 C 0.79803 0.85684 0.89158 0.0
C256 C 0.80315 0.84628 0.78614 0.0
O257 O 0.78769 0.89332 0.83977 0.0
O258 O 0.82014 0.91347 0.8074 0.0
C259 C 0.88798 0.93594 0.82439 0.0
N260 N 0.89203 0.91341 0.80854 0.0
C261 C 0.95337 0.91925 0.80777 0.0
C262 C 0.94981 0.94261 0.82393 0.0
C263 C 0.91698 0.95094 0.83232 0.0
C264 C 0.92352 0.90515 0.80044 0.0
H265 H 0.86283 0.94239 0.83098 0.0
C266 C 0.79505 0.9134 0.82428 0.0
O267 O 0.78135 0.84438 0.87243 0.0
O268 O 0.82486 0.87083 0.88443 0.0
N269 N 0.89524 0.86845 0.78056 0.0
C270 C 0.89442 0.84478 0.76609 0.0
C271 C 0.92526 0.83338 0.75665 0.0
C272 C 0.95658 0.84648 0.76204 0.0
C273 C 0.95677 0.87093 0.77676 0.0
C274 C 0.92521 0.88144 0.78548 0.0
H275 H 0.87046 0.83461 0.76185 0.0
O276 O 0.85242 0.83031 0.84968 0.0
O277 O 0.85785 0.86994 0.82923 0.0
O278 O 0.79824 0.84144 0.8113 0.0
O279 O 0.82359 0.86469 0.77752 0.0
C280 C 0.98708 0.88503 0.78352 0.0
C281 C 0.98539 0.90914 0.79907 0.0
H282 H 0.97213 0.95417 0.8302 0.0
H283 H 0.91405 0.96887 0.84491 0.0
H284 H 0.92491 0.8145 0.74531 0.0
H285 H 0.98034 0.83749 0.75494 0.0
H286 H 0.01187 0.87731 0.77719 0.0
H287 H 0.00891 0.91958 0.80447 0.0
Mn288 Mn 0.68206 0.65429 0.64243 0.0
Mn289 Mn 0.64034 0.7069 0.6129 0.0
C290 C 0.62625 0.6646 0.65493 0.0
C291 C 0.69913 0.60883 0.64352 0.0
C292 C 0.69563 0.71416 0.65568 0.0
O293 O 0.70967 0.66107 0.60781 0.0
O294 O 0.67733 0.69392 0.58834 0.0
C295 C 0.60894 0.67774 0.56635 0.0
N296 N 0.60543 0.69332 0.58912 0.0
C297 C 0.544 0.69444 0.58401 0.0
C298 C 0.547 0.67856 0.56041 0.0
C299 C 0.57961 0.67014 0.55158 0.0
C300 C 0.57416 0.70149 0.59784 0.0
H301 H 0.63392 0.6711 0.55953 0.0
C302 C 0.70221 0.67685 0.58797 0.0
O303 O 0.71629 0.6276 0.65614 0.0
O304 O 0.67217 0.61647 0.62996 0.0
N305 N 0.60327 0.72074 0.63447 0.0
C306 C 0.60463 0.73487 0.65833 0.0
C307 C 0.57409 0.74436 0.67018 0.0
C308 C 0.5425 0.73933 0.65735 0.0
C309 C 0.54174 0.72489 0.63274 0.0
C310 C 0.57304 0.71616 0.62175 0.0
H311 H 0.62881 0.73882 0.6683 0.0
O312 O 0.64581 0.65082 0.67131 0.0
O313 O 0.64001 0.67184 0.63201 0.0
O314 O 0.7003 0.6889 0.66014 0.0
O315 O 0.67501 0.72316 0.63758 0.0
C316 C 0.51111 0.71841 0.61893 0.0
C317 C 0.51223 0.70313 0.59463 0.0
H318 H 0.52442 0.67253 0.54904 0.0
H319 H 0.58211 0.65776 0.53346 0.0
H320 H 0.57488 0.75544 0.68921 0.0
H321 H 0.51896 0.74644 0.6667 0.0
H322 H 0.48651 0.72473 0.62704 0.0
H323 H 0.48848 0.69793 0.58442 0.0
Mn324 Mn 0.31509 0.64115 0.65403 0.0
Mn325 Mn 0.35665 0.61093 0.70634 0.0
C326 C 0.37102 0.65326 0.66444 0.0
C327 C 0.2982 0.64276 0.60852 0.0
C328 C 0.30165 0.65387 0.71405 0.0
O329 O 0.28725 0.60655 0.66047 0.0
O330 O 0.31952 0.58666 0.69311 0.0
C331 C 0.38779 0.56455 0.67673 0.0
N332 N 0.39142 0.58716 0.69253 0.0
C333 C 0.45281 0.58175 0.69371 0.0
C334 C 0.44968 0.55832 0.6776 0.0
C335 C 0.41704 0.54973 0.66903 0.0
C336 C 0.42274 0.59566 0.70081 0.0
H337 H 0.36277 0.55791 0.66999 0.0
C338 C 0.29462 0.58654 0.67606 0.0
O339 O 0.28104 0.65529 0.62737 0.0
O340 O 0.32498 0.62897 0.61611 0.0
N341 N 0.39384 0.63223 0.72038 0.0
C342 C 0.39261 0.65595 0.73474 0.0
C343 C 0.42323 0.6676 0.74434 0.0
C344 C 0.45475 0.65471 0.73918 0.0
C345 C 0.45536 0.63021 0.72456 0.0
C346 C 0.424 0.61944 0.71569 0.0
H347 H 0.36849 0.66597 0.73879 0.0
O348 O 0.35158 0.66987 0.65083 0.0
O349 O 0.35706 0.63037 0.67148 0.0
O350 O 0.29696 0.65865 0.68884 0.0
O351 O 0.32213 0.63556 0.72283 0.0
C352 C 0.4859 0.6163 0.71804 0.0
C353 C 0.48463 0.59213 0.70257 0.0
H354 H 0.47219 0.5469 0.6715 0.0
H355 H 0.41443 0.53174 0.65647 0.0
H356 H 0.42255 0.68653 0.7556 0.0
H357 H 0.47834 0.6639 0.74639 0.0
H358 H 0.51054 0.62423 0.72448 0.0
H359 H 0.50832 0.58184 0.69734 0.0
Mn360 Mn 0.31677 0.34573 0.64145 0.0
Mn361 Mn 0.35944 0.2935 0.61208 0.0
C362 C 0.3723 0.33551 0.65476 0.0
C363 C 0.29936 0.39112 0.64249 0.0
C364 C 0.30314 0.28576 0.65397 0.0
O365 O 0.28992 0.339 0.60642 0.0
O366 O 0.32328 0.30684 0.58694 0.0
C367 C 0.39238 0.32307 0.56646 0.0
N368 N 0.39512 0.30721 0.58911 0.0
C369 C 0.45664 0.30561 0.58494 0.0
C370 C 0.45445 0.32178 0.56148 0.0
C371 C 0.42218 0.33058 0.55224 0.0
C372 C 0.42606 0.29869 0.59822 0.0
H373 H 0.36766 0.32998 0.55932 0.0
C374 C 0.29819 0.32371 0.5864 0.0
O375 O 0.28205 0.37222 0.6548 0.0
O376 O 0.32667 0.38365 0.62928 0.0
N377 N 0.39579 0.27932 0.6342 0.0
C378 C 0.39365 0.26499 0.65791 0.0
C379 C 0.42378 0.25517 0.67016 0.0
C380 C 0.45575 0.26005 0.65787 0.0
C381 C 0.45729 0.27467 0.63339 0.0
C382 C 0.42639 0.28377 0.622 0.0
H383 H 0.36919 0.26112 0.66746 0.0
O384 O 0.35229 0.3492 0.67087 0.0
O385 O 0.35921 0.32838 0.63156 0.0
O386 O 0.2984 0.31095 0.65876 0.0
O387 O 0.324 0.27702 0.63591 0.0
C388 C 0.48834 0.281 0.62011 0.0
C389 C 0.48803 0.29653 0.59595 0.0
H390 H 0.47738 0.32773 0.55052 0.0
H391 H 0.42029 0.34318 0.53422 0.0
H392 H 0.42237 0.24394 0.68908 0.0
H393 H 0.47895 0.25268 0.66753 0.0
H394 H 0.51265 0.27437 0.62853 0.0
H395 H 0.5121 0.30161 0.58616 0.0
Mn396 Mn 0.68279 0.35825 0.65564 0.0
Mn397 Mn 0.64067 0.38861 0.70765 0.0
C398 C 0.62717 0.34553 0.66626 0.0
C399 C 0.7 0.35593 0.61021 0.0
C400 C 0.69626 0.34631 0.71587 0.0
O401 O 0.70992 0.39327 0.66154 0.0
O402 O 0.67765 0.41298 0.69429 0.0
C403 C 0.60924 0.43453 0.67753 0.0
N404 N 0.60575 0.41207 0.69356 0.0
C405 C 0.54434 0.41729 0.69477 0.0
C406 C 0.54731 0.44057 0.67842 0.0
C407 C 0.5799 0.44919 0.66972 0.0
C408 C 0.5745 0.40356 0.70198 0.0
H409 H 0.63421 0.4412 0.67069 0.0
C410 C 0.70244 0.41325 0.67714 0.0
O411 O 0.71731 0.34413 0.62943 0.0
O412 O 0.67283 0.36949 0.6174 0.0
N413 N 0.60363 0.36729 0.72189 0.0
C414 C 0.60501 0.34374 0.73652 0.0
C415 C 0.57448 0.33211 0.74632 0.0
C416 C 0.54289 0.34486 0.74111 0.0
C417 C 0.54212 0.36919 0.72619 0.0
C418 C 0.5734 0.37995 0.71714 0.0
H419 H 0.62919 0.33383 0.74063 0.0
O420 O 0.64699 0.32898 0.65292 0.0
O421 O 0.64053 0.36877 0.67294 0.0
O422 O 0.70125 0.34154 0.6907 0.0
O423 O 0.67531 0.36434 0.7245 0.0
C424 C 0.51149 0.38292 0.71955 0.0
C425 C 0.51259 0.4069 0.70378 0.0
H426 H 0.52473 0.45186 0.67225 0.0
H427 H 0.58239 0.46706 0.65699 0.0
H428 H 0.57529 0.31331 0.75779 0.0
H429 H 0.51937 0.33568 0.74846 0.0
H430 H 0.48691 0.37498 0.72613 0.0
H431 H 0.48884 0.41706 0.69848 0.0
Mn432 Mn 0.68384 0.34626 0.35941 0.0
Mn433 Mn 0.64054 0.29377 0.38773 0.0
C434 C 0.62833 0.33643 0.34573 0.0
C435 C 0.70129 0.39164 0.3588 0.0
C436 C 0.69703 0.28635 0.34599 0.0
O437 O 0.71022 0.3391 0.39458 0.0
O438 O 0.67698 0.30624 0.41306 0.0
C439 C 0.60813 0.32289 0.43387 0.0
N440 N 0.60511 0.30749 0.41094 0.0
C441 C 0.54353 0.30683 0.41489 0.0
C442 C 0.54602 0.32253 0.43864 0.0
C443 C 0.57846 0.33064 0.44813 0.0
C444 C 0.57401 0.29964 0.40158 0.0
H445 H 0.63299 0.32929 0.4412 0.0
C446 C 0.70202 0.32314 0.41409 0.0
O447 O 0.71874 0.37282 0.34649 0.0
O448 O 0.6739 0.38408 0.37185 0.0
N449 N 0.60395 0.2804 0.36537 0.0
C450 C 0.60585 0.26639 0.34146 0.0
C451 C 0.57555 0.2572 0.32899 0.0
C452 C 0.54365 0.26239 0.34126 0.0
C453 C 0.54234 0.27669 0.36595 0.0
C454 C 0.57341 0.28513 0.37756 0.0
H455 H 0.63026 0.26231 0.33191 0.0
O456 O 0.64858 0.35013 0.32982 0.0
O457 O 0.64127 0.32895 0.36887 0.0
O458 O 0.70227 0.3116 0.34186 0.0
O459 O 0.6757 0.27739 0.36359 0.0
C460 C 0.51139 0.28331 0.37923 0.0
C461 C 0.51198 0.29844 0.40363 0.0
H462 H 0.52319 0.32867 0.44963 0.0
H463 H 0.58058 0.34289 0.46637 0.0
H464 H 0.57677 0.24622 0.30992 0.0
H465 H 0.52032 0.2555 0.33145 0.0
H466 H 0.48697 0.27721 0.37064 0.0
H467 H 0.48799 0.30375 0.41344 0.0
Mn468 Mn 0.68292 0.64169 0.34677 0.0
Mn469 Mn 0.64171 0.61186 0.29405 0.0
C470 C 0.62729 0.65424 0.33602 0.0
C471 C 0.69962 0.64307 0.39231 0.0
C472 C 0.69697 0.65467 0.28689 0.0
O473 O 0.71058 0.60704 0.34038 0.0
O474 O 0.67861 0.58741 0.30741 0.0
C475 C 0.61009 0.56544 0.32326 0.0
N476 N 0.60671 0.5881 0.3075 0.0
C477 C 0.54534 0.58273 0.30572 0.0
C478 C 0.54821 0.55924 0.32178 0.0
C479 C 0.58072 0.5506 0.33063 0.0
C480 C 0.57553 0.59664 0.29893 0.0
H481 H 0.635 0.55875 0.33022 0.0
C482 C 0.70331 0.58713 0.32465 0.0
O483 O 0.71695 0.65556 0.37354 0.0
O484 O 0.6727 0.62947 0.38463 0.0
N485 N 0.60475 0.63326 0.27977 0.0
C486 C 0.60621 0.65702 0.26548 0.0
C487 C 0.57576 0.66869 0.25559 0.0
C488 C 0.54416 0.65579 0.26037 0.0
C489 C 0.54331 0.63125 0.27494 0.0
C490 C 0.57452 0.62045 0.2841 0.0
H491 H 0.63039 0.66705 0.26171 0.0
O492 O 0.64677 0.67064 0.34985 0.0
O493 O 0.64096 0.63121 0.32902 0.0
O494 O 0.70149 0.65922 0.31216 0.0
O495 O 0.67646 0.63651 0.27787 0.0
C496 C 0.51266 0.61736 0.28115 0.0
C497 C 0.51366 0.59316 0.2966 0.0
H498 H 0.5256 0.54781 0.32762 0.0
H499 H 0.58312 0.53256 0.34314 0.0
H500 H 0.57662 0.68765 0.24439 0.0
H501 H 0.52069 0.665 0.25296 0.0
H502 H 0.48813 0.62532 0.27449 0.0
H503 H 0.48989 0.58287 0.30157 0.0
Mn504 Mn 0.31654 0.65475 0.35817 0.0
Mn505 Mn 0.35895 0.70709 0.38764 0.0
C506 C 0.3723 0.66477 0.34539 0.0
C507 C 0.29877 0.60949 0.35673 0.0
C508 C 0.30358 0.71475 0.34502 0.0
O509 O 0.28928 0.66156 0.39297 0.0
O510 O 0.32193 0.69429 0.41228 0.0
C511 C 0.39026 0.6777 0.43409 0.0
N512 N 0.39381 0.69332 0.41135 0.0
C513 C 0.45523 0.69444 0.41654 0.0
C514 C 0.45219 0.67851 0.44011 0.0
C515 C 0.41956 0.67006 0.44888 0.0
C516 C 0.4251 0.70149 0.40268 0.0
H517 H 0.36526 0.67106 0.44088 0.0
C518 C 0.29696 0.6773 0.41278 0.0
O519 O 0.28181 0.62858 0.34442 0.0
O520 O 0.32594 0.6167 0.37028 0.0
N521 N 0.39607 0.72082 0.36605 0.0
C522 C 0.39476 0.73503 0.34223 0.0
C523 C 0.42533 0.74453 0.33043 0.0
C524 C 0.4569 0.73947 0.34329 0.0
C525 C 0.4576 0.72499 0.36788 0.0
C526 C 0.42628 0.71621 0.3788 0.0
H527 H 0.3706 0.73902 0.33224 0.0
O528 O 0.35244 0.65118 0.32908 0.0
O529 O 0.35892 0.672 0.36847 0.0
O530 O 0.29857 0.68952 0.34067 0.0
O531 O 0.32438 0.72364 0.36304 0.0
C532 C 0.48819 0.71851 0.38173 0.0
C533 C 0.48702 0.70318 0.406 0.0
H534 H 0.47474 0.67247 0.45151 0.0
H535 H 0.41702 0.65765 0.46697 0.0
H536 H 0.42458 0.75565 0.31142 0.0
H537 H 0.48045 0.74659 0.33398 0.0
H538 H 0.5128 0.72489 0.37369 0.0
H539 H 0.51075 0.69799 0.41625 0.0
Mn540 Mn 0.31737 0.35963 0.34512 0.0
Mn541 Mn 0.35805 0.39037 0.29271 0.0
C542 C 0.37332 0.34797 0.33435 0.0
C543 C 0.30086 0.35804 0.3907 0.0
C544 C 0.30338 0.34712 0.28518 0.0
O545 O 0.28901 0.39396 0.33888 0.0
O546 O 0.32094 0.41443 0.30638 0.0
C547 C 0.38927 0.43673 0.32229 0.0
N548 N 0.39285 0.4142 0.30636 0.0
C549 C 0.45419 0.4198 0.3048 0.0
C550 C 0.45112 0.44315 0.32103 0.0
C551 C 0.41852 0.45161 0.32985 0.0
C552 C 0.42411 0.40584 0.29783 0.0
H553 H 0.3643 0.44326 0.32923 0.0
C554 C 0.29614 0.41421 0.32353 0.0
O555 O 0.28373 0.34527 0.372 0.0
O556 O 0.32746 0.37195 0.38293 0.0
N557 N 0.39519 0.36926 0.27829 0.0
C558 C 0.39394 0.34557 0.26389 0.0
C559 C 0.42452 0.33403 0.25409 0.0
C560 C 0.45602 0.34699 0.25909 0.0
C561 C 0.45666 0.37146 0.27377 0.0
C562 C 0.42534 0.38213 0.28284 0.0
H563 H 0.36983 0.33549 0.25996 0.0
O564 O 0.35424 0.3312 0.34809 0.0
O565 O 0.35901 0.37076 0.32745 0.0
O566 O 0.29916 0.34206 0.31039 0.0
O567 O 0.32346 0.36569 0.27637 0.0
C568 C 0.4872 0.38542 0.28018 0.0
C569 C 0.48598 0.40954 0.29573 0.0
H570 H 0.47364 0.45461 0.32704 0.0
H571 H 0.41596 0.46953 0.34251 0.0
H572 H 0.42381 0.31512 0.24279 0.0
H573 H 0.47958 0.33788 0.25173 0.0
H574 H 0.51182 0.37756 0.27358 0.0
H575 H 0.50967 0.41987 0.30086 0.0
H576 H 0.2931 0.35585 0.23038 0.0
H577 H 0.22873 0.20469 0.20297 0.0
H578 H 0.27461 0.29723 0.29426 0.0
H579 H 0.20372 0.27021 0.14777 0.0
H580 H 0.254 0.23762 0.23412 0.0
H581 H 0.26741 0.32413 0.19752 0.0
C582 C 0.28351 0.33643 0.23753 0.0
C583 C 0.28596 0.32925 0.26517 0.0
C584 C 0.24304 0.2448 0.21517 0.0
C585 C 0.25726 0.29285 0.22767 0.0
C586 C 0.22881 0.22598 0.19722 0.0
C587 C 0.21401 0.23465 0.17263 0.0
C588 C 0.24299 0.27254 0.20845 0.0
C589 C 0.21475 0.26261 0.16651 0.0
C590 C 0.26886 0.3184 0.21878 0.0
C591 C 0.27312 0.30378 0.27324 0.0
N592 N 0.22912 0.2806 0.18428 0.0
N593 N 0.25964 0.28645 0.25457 0.0
H594 H 0.72915 0.2965 0.29761 0.0
H595 H 0.7948 0.14562 0.2705 0.0
H596 H 0.70484 0.23104 0.35306 0.0
H597 H 0.77429 0.20351 0.20636 0.0
H598 H 0.76929 0.17742 0.3034 0.0
H599 H 0.75457 0.26355 0.26648 0.0
C600 C 0.72944 0.27523 0.30342 0.0
C601 C 0.71477 0.26656 0.32805 0.0
C602 C 0.77026 0.18297 0.28207 0.0
C603 C 0.74391 0.22868 0.2923 0.0
C604 C 0.7848 0.1649 0.2633 0.0
C605 C 0.78661 0.17185 0.23558 0.0
C606 C 0.75815 0.20835 0.2731 0.0
C607 C 0.77328 0.19714 0.22744 0.0
C608 C 0.74375 0.25641 0.28549 0.0
C609 C 0.71576 0.23863 0.33427 0.0
N610 N 0.75993 0.21453 0.24613 0.0
N611 N 0.7302 0.22065 0.31653 0.0
H612 H 0.79369 0.73059 0.14601 0.0
H613 H 0.72804 0.7035 0.297 0.0
H614 H 0.77358 0.79467 0.20405 0.0
H615 H 0.70543 0.64747 0.23164 0.0
H616 H 0.75316 0.73478 0.26406 0.0
H617 H 0.7684 0.69768 0.17786 0.0
C618 C 0.78382 0.73778 0.16533 0.0
C619 C 0.78569 0.76549 0.1723 0.0
C620 C 0.74277 0.71561 0.25693 0.0
C621 C 0.75744 0.72793 0.20888 0.0
C622 C 0.72863 0.6976 0.27576 0.0
C623 C 0.71453 0.67275 0.26712 0.0
C624 C 0.74332 0.70868 0.22923 0.0
C625 C 0.71591 0.66642 0.23922 0.0
C626 C 0.7694 0.71899 0.18344 0.0
C627 C 0.77252 0.7736 0.19766 0.0
N628 N 0.73015 0.68425 0.22124 0.0
N629 N 0.75926 0.7549 0.21508 0.0
H630 H 0.27252 0.70453 0.29626 0.0
H631 H 0.20545 0.85488 0.26884 0.0
H632 H 0.29547 0.7701 0.35195 0.0
H633 H 0.2266 0.79702 0.20481 0.0
H634 H 0.23136 0.82337 0.30179 0.0
H635 H 0.24728 0.73731 0.26492 0.0
C636 C 0.272 0.72579 0.30207 0.0
C637 C 0.28619 0.73453 0.32686 0.0
C638 C 0.23045 0.81776 0.28048 0.0
C639 C 0.25724 0.77225 0.29083 0.0
C640 C 0.21567 0.83567 0.26168 0.0
C641 C 0.2139 0.82863 0.23397 0.0
C642 C 0.24286 0.79246 0.27157 0.0
C643 C 0.22754 0.80344 0.22588 0.0
C644 C 0.25779 0.74453 0.28402 0.0
C645 C 0.28491 0.76246 0.33305 0.0
N646 N 0.24113 0.7862 0.2446 0.0
N647 N 0.27055 0.78036 0.31519 0.0
H648 H 0.29241 0.64556 0.76903 0.0
H649 H 0.22677 0.79651 0.79605 0.0
H650 H 0.27211 0.70347 0.70486 0.0
H651 H 0.2042 0.73122 0.85217 0.0
H652 H 0.25163 0.76351 0.7647 0.0
H653 H 0.26701 0.6774 0.8019 0.0
C654 C 0.28248 0.66485 0.76181 0.0
C655 C 0.28434 0.6718 0.73409 0.0
C656 C 0.24129 0.75641 0.7839 0.0
C657 C 0.25594 0.70835 0.77161 0.0
C658 C 0.22731 0.77526 0.80195 0.0
C659 C 0.21333 0.76667 0.82686 0.0
C660 C 0.24182 0.72871 0.79084 0.0
C661 C 0.2146 0.73876 0.83318 0.0
C662 C 0.26799 0.68295 0.78057 0.0
C663 C 0.27107 0.6971 0.72594 0.0
N664 N 0.22872 0.72076 0.81531 0.0
N665 N 0.25775 0.71451 0.74462 0.0
H666 H 0.22647 0.20413 0.7961 0.0
H667 H 0.29451 0.23069 0.64577 0.0
H668 H 0.2053 0.14754 0.73093 0.0
H669 H 0.27226 0.29505 0.70302 0.0
H670 H 0.26871 0.19785 0.67745 0.0
H671 H 0.25149 0.23544 0.76314 0.0
C672 C 0.22734 0.19813 0.77489 0.0
C673 C 0.21371 0.17309 0.76631 0.0
C674 C 0.26934 0.21921 0.68288 0.0
C675 C 0.2424 0.20905 0.7284 0.0
C676 C 0.28405 0.23795 0.66487 0.0
C677 C 0.2855 0.26572 0.67169 0.0
C678 C 0.25667 0.22825 0.70807 0.0
C679 C 0.27157 0.27393 0.69676 0.0
C680 C 0.24142 0.21615 0.75606 0.0
C681 C 0.21541 0.16663 0.73845 0.0
N682 N 0.25806 0.25527 0.71409 0.0
N683 N 0.22963 0.18447 0.72046 0.0
H684 H 0.77201 0.20406 0.79762 0.0
H685 H 0.70473 0.35452 0.77098 0.0
H686 H 0.79447 0.2692 0.85393 0.0
H687 H 0.72693 0.29718 0.7067 0.0
H688 H 0.73037 0.32281 0.8039 0.0
H689 H 0.74681 0.23707 0.76649 0.0
C690 C 0.77138 0.22527 0.80361 0.0
C691 C 0.78545 0.23382 0.8285 0.0
C692 C 0.72975 0.31737 0.78254 0.0
C693 C 0.75656 0.2718 0.79272 0.0
C694 C 0.71513 0.3354 0.76375 0.0
C695 C 0.71373 0.32856 0.73598 0.0
C696 C 0.74235 0.29216 0.77353 0.0
C697 C 0.72759 0.30346 0.72781 0.0
C698 C 0.75719 0.24414 0.78568 0.0
C699 C 0.78402 0.2617 0.83494 0.0
N700 N 0.74099 0.28612 0.74651 0.0
N701 N 0.76971 0.27973 0.81719 0.0
H702 H 0.79417 0.85458 0.7311 0.0
H703 H 0.72691 0.70399 0.70439 0.0
H704 H 0.77364 0.7967 0.79526 0.0
H705 H 0.70421 0.76939 0.64843 0.0
H706 H 0.7526 0.73682 0.73547 0.0
H707 H 0.76846 0.82284 0.69824 0.0
C708 C 0.78415 0.83531 0.7383 0.0
C709 C 0.786 0.82835 0.76602 0.0
C710 C 0.74206 0.74399 0.71636 0.0
C711 C 0.75726 0.79194 0.72855 0.0
C712 C 0.72758 0.72522 0.69847 0.0
C713 C 0.71331 0.7339 0.6737 0.0
C714 C 0.74278 0.77167 0.7094 0.0
C715 C 0.71481 0.76179 0.66734 0.0
C716 C 0.76948 0.81728 0.71956 0.0
C717 C 0.77263 0.80308 0.77417 0.0
N718 N 0.7294 0.77971 0.68505 0.0
N719 N 0.75912 0.78575 0.75552 0.0
H720 H 0.18382 0.10862 0.93339 0.0
H721 H 0.21785 0.21396 0.04757 0.0
H722 H 0.23905 0.1826 0.91547 0.0
H723 H 0.21973 0.12796 0.06508 0.0
H724 H 0.2265 0.20374 0.99924 0.0
H725 H 0.19582 0.11541 0.98192 0.0
C726 C 0.19872 0.12615 0.93967 0.0
C727 C 0.21026 0.14518 0.92047 0.0
C728 C 0.22598 0.18715 0.01376 0.0
C729 C 0.22368 0.15322 0.97579 0.0
C730 C 0.22121 0.19298 0.04132 0.0
C731 C 0.21814 0.17178 0.06029 0.0
C732 C 0.22653 0.15992 0.00509 0.0
C733 C 0.22226 0.14491 0.05112 0.0
C734 C 0.20577 0.12991 0.96729 0.0
C735 C 0.22965 0.16746 0.92965 0.0
N736 N 0.22534 0.13968 0.02404 0.0
N737 N 0.23521 0.17116 0.95673 0.0
H738 H 0.77948 0.12699 0.93547 0.0
H739 H 0.76057 0.18356 0.08708 0.0
H740 H 0.78206 0.21269 0.95444 0.0
H741 H 0.81578 0.11003 0.06731 0.0
H742 H 0.74894 0.19051 0.03848 0.0
H743 H 0.77189 0.11695 0.98402 0.0
C744 C 0.77704 0.14374 0.9497 0.0
C745 C 0.78146 0.17073 0.941 0.0
C746 C 0.76314 0.17267 0.04491 0.0
C747 C 0.77307 0.15935 0.9963 0.0
C748 C 0.76977 0.16865 0.07256 0.0
C749 C 0.78948 0.14633 0.08113 0.0
C750 C 0.77566 0.15391 0.02582 0.0
C751 C 0.80081 0.12767 0.06148 0.0
C752 C 0.77318 0.13796 0.97738 0.0
C753 C 0.77879 0.19162 0.96037 0.0
N754 N 0.79376 0.13188 0.03468 0.0
N755 N 0.77502 0.18549 0.98719 0.0
H756 H 0.75922 0.81664 0.91445 0.0
H757 H 0.77872 0.87316 0.06608 0.0
H758 H 0.81389 0.89041 0.93426 0.0
H759 H 0.78017 0.78749 0.04693 0.0
H760 H 0.77071 0.88335 0.0176 0.0
H761 H 0.74741 0.80973 0.96303 0.0
C762 C 0.76826 0.8316 0.92898 0.0
C763 C 0.78789 0.85398 0.92042 0.0
C764 C 0.77183 0.86232 0.02419 0.0
C765 C 0.77388 0.84644 0.9757 0.0
C766 C 0.77592 0.85646 0.05184 0.0
C767 C 0.78018 0.82943 0.06045 0.0
C768 C 0.77135 0.84096 0.00523 0.0
C769 C 0.77705 0.80859 0.04106 0.0
C770 C 0.76153 0.82761 0.95661 0.0
C771 C 0.799 0.87273 0.94007 0.0
N772 N 0.77309 0.81479 0.01428 0.0
N773 N 0.79189 0.86852 0.96686 0.0
H774 H 0.18386 0.89188 0.06643 0.0
H775 H 0.21903 0.78677 0.95236 0.0
H776 H 0.23985 0.81832 0.08455 0.0
H777 H 0.2205 0.87278 0.93487 0.0
H778 H 0.2276 0.79702 0.0007 0.0
H779 H 0.19611 0.88513 0.01793 0.0
C780 C 0.19899 0.87445 0.0602 0.0
C781 C 0.21067 0.85552 0.07945 0.0
C782 C 0.22703 0.81361 0.98618 0.0
C783 C 0.22437 0.84752 0.02416 0.0
C784 C 0.22232 0.80776 0.95862 0.0
C785 C 0.21914 0.82895 0.93964 0.0
C786 C 0.2274 0.84083 0.99486 0.0
C787 C 0.22313 0.85583 0.94882 0.0
C788 C 0.20617 0.87072 0.03259 0.0
C789 C 0.23034 0.83337 0.07034 0.0
N790 N 0.22614 0.86107 0.97591 0.0
N791 N 0.23603 0.82968 0.04326 0.0
H792 H 0.09013 0.18469 0.19804 0.0
H793 H 0.91021 0.19722 0.18558 0.0
H794 H 0.08101 0.1426 0.12142 0.0
H795 H 0.91929 0.12084 0.14309 0.0
H796 H 0.97335 0.20142 0.18524 0.0
H797 H 0.02699 0.1843 0.20228 0.0
C798 C 0.07473 0.1755 0.18215 0.0
C799 C 0.0903 0.16449 0.15893 0.0
C800 C 0.96144 0.18362 0.17634 0.0
C801 C 0.01905 0.16376 0.16357 0.0
C802 C 0.92561 0.18137 0.17632 0.0
C803 C 0.91002 0.15822 0.16519 0.0
C804 C 0.98128 0.16283 0.16451 0.0
C805 C 0.93065 0.13857 0.15263 0.0
C806 C 0.0389 0.1755 0.18441 0.0
C807 C 0.06967 0.15203 0.13921 0.0
N808 N 0.96525 0.14132 0.1526 0.0
N809 N 0.03506 0.15198 0.14198 0.0
H810 H 0.81676 0.93292 0.10934 0.0
H811 H 0.78144 0.04727 0.2143 0.0
H812 H 0.76093 0.91508 0.18306 0.0
H813 H 0.78081 0.06461 0.12825 0.0
H814 H 0.77289 0.99893 0.2041 0.0
H815 H 0.80467 0.98144 0.11598 0.0
C816 C 0.80171 0.93922 0.12678 0.0
C817 C 0.79003 0.92004 0.14579 0.0
C818 C 0.77365 0.01341 0.18748 0.0
C819 C 0.77648 0.97537 0.15366 0.0
C820 C 0.77834 0.04098 0.1933 0.0
C821 C 0.78174 0.0599 0.17209 0.0
C822 C 0.7735 0.00469 0.16027 0.0
C823 C 0.778 0.05068 0.1452 0.0
C824 C 0.79461 0.96684 0.13045 0.0
C825 C 0.77045 0.92924 0.16795 0.0
N826 N 0.77499 0.02359 0.14 0.0
N827 N 0.76482 0.95633 0.17158 0.0
H828 H 0.9122 0.81491 0.19562 0.0
H829 H 0.08368 0.88082 0.13944 0.0
H830 H 0.91698 0.85835 0.1195 0.0
H831 H 0.08719 0.80515 0.18372 0.0
H832 H 0.02117 0.87758 0.13761 0.0
H833 H 0.97559 0.8163 0.19815 0.0
C834 C 0.92668 0.8247 0.17954 0.0
C835 C 0.90984 0.83587 0.15695 0.0
C836 C 0.03555 0.86162 0.14768 0.0
C837 C 0.98118 0.83808 0.15994 0.0
C838 C 0.07109 0.86352 0.14881 0.0
C839 C 0.09019 0.84353 0.16228 0.0
C840 C 0.01897 0.8397 0.16037 0.0
C841 C 0.07301 0.82115 0.17356 0.0
C842 C 0.96258 0.82536 0.18089 0.0
C843 C 0.9293 0.84892 0.13688 0.0
N844 N 0.03807 0.81999 0.17275 0.0
N845 N 0.96396 0.84969 0.13884 0.0
H846 H 0.24676 0.08759 0.17965 0.0
H847 H 0.2206 0.95201 0.21402 0.0
H848 H 0.17826 0.06552 0.11422 0.0
H849 H 0.21814 0.93713 0.12754 0.0
H850 H 0.22943 0.00047 0.20505 0.0
H851 H 0.25918 0.03928 0.1871 0.0
C852 C 0.23457 0.0726 0.16669 0.0
C853 C 0.211 0.08053 0.14656 0.0
C854 C 0.22825 0.98651 0.18802 0.0
C855 C 0.2251 0.02538 0.15502 0.0
C856 C 0.22326 0.95886 0.19315 0.0
C857 C 0.21896 0.94059 0.17149 0.0
C858 C 0.22799 0.99599 0.16104 0.0
C859 C 0.22186 0.95053 0.1448 0.0
C860 C 0.24156 0.04508 0.17107 0.0
C861 C 0.19619 0.06026 0.13022 0.0
N862 N 0.22523 0.97772 0.1403 0.0
N863 N 0.20343 0.03357 0.13486 0.0
H864 H 0.91549 0.88163 0.86063 0.0
H865 H 0.08757 0.81694 0.804 0.0
H866 H 0.91274 0.80615 0.81598 0.0
H867 H 0.08246 0.8595 0.88059 0.0
H868 H 0.0242 0.81837 0.80131 0.0
H869 H 0.97807 0.87886 0.86229 0.0
C870 C 0.92825 0.86448 0.85113 0.0
C871 C 0.90935 0.84439 0.83762 0.0
C872 C 0.03713 0.82725 0.81869 0.0
C873 C 0.98063 0.84112 0.83933 0.0
C874 C 0.07303 0.82657 0.82014 0.0
C875 C 0.08977 0.83744 0.84292 0.0
C876 C 0.01844 0.8397 0.83975 0.0
C877 C 0.07023 0.8503 0.86307 0.0
C878 C 0.96383 0.86285 0.85216 0.0
C879 C 0.92676 0.82222 0.82618 0.0
N880 N 0.03557 0.85108 0.86103 0.0
N881 N 0.96172 0.82133 0.82689 0.0
H882 H 0.18357 0.9338 0.89123 0.0
H883 H 0.22076 0.04781 0.78649 0.0
H884 H 0.24004 0.91559 0.8179 0.0
H885 H 0.22096 0.0652 0.87254 0.0
H886 H 0.22908 0.99947 0.79677 0.0
H887 H 0.19632 0.98224 0.88468 0.0
C888 C 0.1989 0.93999 0.8739 0.0
C889 C 0.21056 0.92074 0.85496 0.0
C890 C 0.2283 0.01396 0.81337 0.0
C891 C 0.22486 0.97597 0.84721 0.0
C892 C 0.22375 0.04153 0.80751 0.0
C893 C 0.22024 0.06048 0.8287 0.0
C894 C 0.22819 0.00525 0.8406 0.0
C895 C 0.22384 0.05127 0.85561 0.0
C896 C 0.20637 0.96757 0.87028 0.0
C897 C 0.23051 0.92981 0.83294 0.0
N898 N 0.22669 0.02418 0.86084 0.0
N899 N 0.2365 0.95685 0.82937 0.0
H900 H 0.08379 0.11847 0.85968 0.0
H901 H 0.91149 0.18401 0.80453 0.0
H902 H 0.08653 0.19458 0.81611 0.0
H903 H 0.91716 0.14093 0.88082 0.0
H904 H 0.97484 0.18249 0.80148 0.0
H905 H 0.02122 0.12128 0.86148 0.0
C906 C 0.07102 0.13576 0.85043 0.0
C907 C 0.08993 0.15603 0.8372 0.0
C908 C 0.96203 0.17352 0.81887 0.0
C909 C 0.01866 0.15935 0.83909 0.0
C910 C 0.92615 0.17426 0.82053 0.0
C911 C 0.90959 0.16324 0.84332 0.0
C912 C 0.98087 0.16087 0.83973 0.0
C913 C 0.92927 0.15024 0.86328 0.0
C914 C 0.03545 0.1374 0.85155 0.0
C915 C 0.07251 0.17838 0.82609 0.0
N916 N 0.9639 0.1494 0.86104 0.0
N917 N 0.03756 0.17929 0.82689 0.0
H918 H 0.77796 0.95277 0.78749 0.0
H919 H 0.81664 0.06661 0.89197 0.0
H920 H 0.77891 0.93524 0.87351 0.0
H921 H 0.75907 0.08491 0.8192 0.0
H922 H 0.80374 0.01819 0.88551 0.0
H923 H 0.76969 0.00109 0.7979 0.0
C924 C 0.77522 0.95901 0.80854 0.0
C925 C 0.77903 0.94005 0.82967 0.0
C926 C 0.79348 0.03288 0.87122 0.0
C927 C 0.77118 0.99524 0.84171 0.0
C928 C 0.80105 0.06044 0.87478 0.0
C929 C 0.78912 0.07971 0.85597 0.0
C930 C 0.77462 0.02451 0.84832 0.0
C931 C 0.76882 0.07067 0.83414 0.0
C932 C 0.77071 0.98657 0.81448 0.0
C933 C 0.77577 0.9492 0.85662 0.0
N934 N 0.76274 0.04365 0.83061 0.0
N935 N 0.77297 0.97628 0.86192 0.0
H936 H 0.68203 0.60917 0.43423 0.0
H937 H 0.71819 0.71387 0.5485 0.0
H938 H 0.73873 0.68245 0.41631 0.0
H939 H 0.71886 0.62783 0.56585 0.0
H940 H 0.7266 0.70365 0.50015 0.0
H941 H 0.69424 0.61578 0.48275 0.0
C942 C 0.69728 0.62651 0.4405 0.0
C943 C 0.70919 0.6454 0.42131 0.0
C944 C 0.72588 0.68704 0.51464 0.0
C945 C 0.72287 0.65322 0.47662 0.0
C946 C 0.72127 0.69287 0.54221 0.0
C947 C 0.71791 0.67166 0.56115 0.0
C948 C 0.72598 0.65983 0.50592 0.0
C949 C 0.72163 0.64478 0.55192 0.0
C950 C 0.70446 0.63015 0.46813 0.0
C951 C 0.72903 0.66743 0.43048 0.0
N952 N 0.72455 0.63957 0.52483 0.0
N953 N 0.73472 0.67103 0.45756 0.0
H954 H 0.31513 0.60875 0.56655 0.0
H955 H 0.28193 0.71439 0.45245 0.0
H956 H 0.26003 0.68277 0.58455 0.0
H957 H 0.27943 0.62842 0.43484 0.0
H958 H 0.2732 0.70414 0.50077 0.0
H959 H 0.3034 0.61574 0.518 0.0
C960 C 0.30031 0.62633 0.56028 0.0
C961 C 0.28872 0.64531 0.57951 0.0
C962 C 0.27361 0.68756 0.48622 0.0
C963 C 0.27562 0.65357 0.52417 0.0
C964 C 0.27841 0.69341 0.45867 0.0
C965 C 0.28132 0.67222 0.43966 0.0
C966 C 0.27286 0.66033 0.49486 0.0
C967 C 0.27702 0.64536 0.44881 0.0
C968 C 0.29342 0.6302 0.53264 0.0
C969 C 0.26946 0.66766 0.57034 0.0
N970 N 0.27391 0.64012 0.47589 0.0
N971 N 0.26405 0.67147 0.54325 0.0
H972 H 0.31736 0.39286 0.43203 0.0
H973 H 0.27437 0.37218 0.56672 0.0
H974 H 0.2633 0.31806 0.41536 0.0
H975 H 0.28946 0.28814 0.54415 0.0
H976 H 0.26653 0.38363 0.51856 0.0
H977 H 0.30556 0.38677 0.48062 0.0
C978 C 0.30262 0.37535 0.4386 0.0
C979 C 0.29135 0.3559 0.41973 0.0
C980 C 0.271 0.36263 0.52426 0.0
C981 C 0.27767 0.34883 0.47514 0.0
C982 C 0.2749 0.35599 0.55175 0.0
C983 C 0.28296 0.32919 0.55939 0.0
C984 C 0.27489 0.34228 0.50442 0.0
C985 C 0.28364 0.30909 0.53907 0.0
C986 C 0.29555 0.37204 0.46627 0.0
C987 C 0.27236 0.33357 0.42928 0.0
N988 N 0.28 0.31608 0.51246 0.0
N989 N 0.26672 0.33033 0.45642 0.0
H990 H 0.71758 0.28504 0.45253 0.0
H991 H 0.74462 0.31899 0.58835 0.0
H992 H 0.71784 0.37157 0.43784 0.0
H993 H 0.67791 0.38557 0.56632 0.0
H994 H 0.75646 0.31113 0.53999 0.0
H995 H 0.72607 0.29375 0.50111 0.0
C996 C 0.72071 0.30584 0.45946 0.0
C997 C 0.71732 0.32761 0.44118 0.0
C998 C 0.73936 0.3275 0.5458 0.0
C999 C 0.72601 0.33777 0.4967 0.0
C1000 C 0.73271 0.33211 0.57336 0.0
C1001 C 0.70982 0.35272 0.58131 0.0
C1002 C 0.72328 0.3438 0.52611 0.0
C1003 C 0.69532 0.36922 0.56103 0.0
C1004 C 0.72551 0.31082 0.48717 0.0
C1005 C 0.72084 0.35421 0.45123 0.0
N1006 N 0.70226 0.36438 0.53433 0.0
N1007 N 0.72405 0.35859 0.47846 0.0
H1008 H 0.58657 0.68407 0.69697 0.0
H1009 H 0.41488 0.61878 0.64038 0.0
H1010 H 0.5816 0.64151 0.62036 0.0
H1011 H 0.41157 0.69438 0.68478 0.0
H1012 H 0.47744 0.62176 0.63883 0.0
H1013 H 0.52319 0.68252 0.69965 0.0
C1014 C 0.57206 0.67443 0.68082 0.0
C1015 C 0.58883 0.66357 0.65805 0.0
C1016 C 0.46308 0.63775 0.64888 0.0
C1017 C 0.51751 0.66117 0.66121 0.0
C1018 C 0.42752 0.636 0.64985 0.0
C1019 C 0.40846 0.65606 0.66325 0.0
C1020 C 0.47972 0.65959 0.66165 0.0
C1021 C 0.42572 0.67833 0.67467 0.0
C1022 C 0.53616 0.67367 0.68226 0.0
C1023 C 0.56933 0.6507 0.63789 0.0
N1024 N 0.46067 0.67934 0.67401 0.0
N1025 N 0.53468 0.64984 0.63993 0.0
H1026 H 0.27753 0.54715 0.71282 0.0
H1027 H 0.31716 0.43309 0.60873 0.0
H1028 H 0.27908 0.5645 0.62678 0.0
H1029 H 0.259 0.41489 0.68122 0.0
H1030 H 0.30424 0.48153 0.61507 0.0
H1031 H 0.26953 0.49879 0.70247 0.0
C1032 C 0.27499 0.54086 0.69178 0.0
C1033 C 0.27887 0.55979 0.67063 0.0
C1034 C 0.29386 0.46686 0.62932 0.0
C1035 C 0.27132 0.50455 0.65866 0.0
C1036 C 0.30143 0.43929 0.62583 0.0
C1037 C 0.28933 0.42004 0.6446 0.0
C1038 C 0.27483 0.47526 0.65212 0.0
C1039 C 0.26887 0.42911 0.66632 0.0
C1040 C 0.27063 0.51328 0.68587 0.0
C1041 C 0.27587 0.55057 0.64368 0.0
N1042 N 0.26279 0.45615 0.66979 0.0
N1043 N 0.2732 0.52347 0.63843 0.0
H1044 H 0.58939 0.30284 0.68647 0.0
H1045 H 0.40934 0.31562 0.69799 0.0
H1046 H 0.58081 0.37901 0.64351 0.0
H1047 H 0.41924 0.35786 0.62152 0.0
H1048 H 0.47245 0.3159 0.70257 0.0
H1049 H 0.52623 0.29883 0.68602 0.0
C1050 C 0.5741 0.31869 0.67709 0.0
C1051 C 0.58984 0.34172 0.66583 0.0
C1052 C 0.46072 0.32476 0.68466 0.0
C1053 C 0.51856 0.33734 0.66505 0.0
C1054 C 0.42491 0.32481 0.6822 0.0
C1055 C 0.40957 0.3359 0.65892 0.0
C1056 C 0.48078 0.3365 0.66395 0.0
C1057 C 0.4304 0.34837 0.63935 0.0
C1058 C 0.53826 0.31656 0.67706 0.0
C1059 C 0.56935 0.36137 0.65313 0.0
N1060 N 0.46498 0.34835 0.64231 0.0
N1061 N 0.53473 0.35873 0.65306 0.0
H1062 H 0.68145 0.56699 0.60956 0.0
H1063 H 0.7192 0.45267 0.71396 0.0
H1064 H 0.73878 0.58482 0.68256 0.0
H1065 H 0.71815 0.43534 0.6279 0.0
H1066 H 0.72751 0.501 0.70365 0.0
H1067 H 0.69387 0.51848 0.61597 0.0
C1068 C 0.6969 0.5607 0.62679 0.0
C1069 C 0.7089 0.57986 0.64567 0.0
C1070 C 0.72643 0.48652 0.68704 0.0
C1071 C 0.72283 0.52456 0.65327 0.0
C1072 C 0.72188 0.45896 0.69292 0.0
C1073 C 0.71808 0.44004 0.67175 0.0
C1074 C 0.72601 0.49525 0.65983 0.0
C1075 C 0.72128 0.44926 0.64481 0.0
C1076 C 0.70418 0.53308 0.63032 0.0
C1077 C 0.72898 0.57067 0.66756 0.0
N1078 N 0.72416 0.47635 0.63958 0.0
N1079 N 0.73479 0.5436 0.67106 0.0
H1080 H 0.41687 0.38279 0.35827 0.0
H1081 H 0.58946 0.3175 0.30296 0.0
H1082 H 0.41426 0.30722 0.31377 0.0
H1083 H 0.58319 0.3599 0.37959 0.0
H1084 H 0.52616 0.31948 0.29938 0.0
H1085 H 0.47946 0.38015 0.35983 0.0
C1086 C 0.42968 0.36567 0.34874 0.0
C1087 C 0.4108 0.34549 0.33536 0.0
C1088 C 0.53884 0.32823 0.31695 0.0
C1089 C 0.48208 0.34235 0.33699 0.0
C1090 C 0.57469 0.32722 0.3189 0.0
C1091 C 0.59104 0.33788 0.34196 0.0
C1092 C 0.51985 0.34077 0.33778 0.0
C1093 C 0.57123 0.35086 0.36186 0.0
C1094 C 0.46525 0.36412 0.34972 0.0
C1095 C 0.42826 0.32335 0.32388 0.0
N1096 N 0.53665 0.35194 0.35933 0.0
N1097 N 0.46321 0.32251 0.32459 0.0
H1098 H 0.68322 0.43352 0.39256 0.0
H1099 H 0.71978 0.54755 0.28787 0.0
H1100 H 0.74126 0.41561 0.31994 0.0
H1101 H 0.71959 0.56523 0.37386 0.0
H1102 H 0.72852 0.49928 0.29833 0.0
H1103 H 0.69533 0.48206 0.38598 0.0
C1104 C 0.69878 0.4398 0.3754 0.0
C1105 C 0.71107 0.4206 0.35666 0.0
C1106 C 0.72754 0.51383 0.31488 0.0
C1107 C 0.72459 0.47593 0.34884 0.0
C1108 C 0.72273 0.54135 0.30891 0.0
C1109 C 0.71905 0.56035 0.33003 0.0
C1110 C 0.7275 0.50522 0.34213 0.0
C1111 C 0.72261 0.55125 0.35698 0.0
C1112 C 0.70587 0.46743 0.37176 0.0
C1113 C 0.73127 0.42979 0.33483 0.0
N1114 N 0.72573 0.5242 0.36231 0.0
N1115 N 0.73686 0.45687 0.33121 0.0
H1116 H 0.58981 0.69711 0.31594 0.0
H1117 H 0.41002 0.68423 0.30235 0.0
H1118 H 0.58058 0.62038 0.3578 0.0
H1119 H 0.4187 0.64251 0.3792 0.0
H1120 H 0.47319 0.68371 0.29829 0.0
H1121 H 0.52665 0.70113 0.31585 0.0
C1122 C 0.57438 0.68114 0.32496 0.0
C1123 C 0.58994 0.65796 0.33606 0.0
C1124 C 0.46117 0.67501 0.31615 0.0
C1125 C 0.51867 0.66239 0.33628 0.0
C1126 C 0.42533 0.67509 0.31833 0.0
C1127 C 0.40963 0.66423 0.34156 0.0
C1128 C 0.48089 0.66333 0.3371 0.0
C1129 C 0.43015 0.65183 0.36139 0.0
C1130 C 0.53854 0.68328 0.32469 0.0
C1131 C 0.56926 0.63814 0.3483 0.0
N1132 N 0.46476 0.65168 0.35871 0.0
N1133 N 0.53464 0.64082 0.34813 0.0
H1134 H 0.27972 0.43502 0.37317 0.0
H1135 H 0.2587 0.58669 0.31731 0.0
H1136 H 0.27925 0.45441 0.28752 0.0
H1137 H 0.31564 0.56678 0.38998 0.0
H1138 H 0.24662 0.53816 0.31058 0.0
H1139 H 0.27186 0.48345 0.3836 0.0
C1140 C 0.2765 0.4493 0.35654 0.0
C1141 C 0.2802 0.44078 0.32942 0.0
C1142 C 0.2613 0.54454 0.32819 0.0
C1143 C 0.27153 0.49593 0.34124 0.0
C1144 C 0.26819 0.57215 0.33208 0.0
C1145 C 0.28853 0.58067 0.35408 0.0
C1146 C 0.27422 0.52543 0.34675 0.0
C1147 C 0.3002 0.56099 0.37259 0.0
C1148 C 0.2725 0.47692 0.36254 0.0
C1149 C 0.27657 0.46021 0.30868 0.0
N1150 N 0.29292 0.53422 0.36848 0.0
N1151 N 0.2727 0.48697 0.31502 0.0
loop_
_geom_bond_atom_site_label_1
_geom_bond_atom_site_label_2
_geom_bond_distance
_geom_bond_site_symmetry_2
_ccdc_geom_bond_type
Mn0 O5 2.095 . S
Mn0 O15 2.162 . S
Mn0 O16 2.297 . S
Mn0 O24 2.385 . S
Mn0 O25 2.209 . S
Mn0 O26 2.094 . S
Mn1 O6 2.121 . S
Mn1 N8 2.257 . S
Mn1 N17 2.282 . S
Mn1 O25 2.215 . S
Mn1 O27 2.117 . S
C2 O24 1.234 . S
C2 O25 1.283 . S
C3 O15 1.281 . S
C3 O16 1.236 . S
C4 O26 1.240 . S
C4 O27 1.264 . S
O5 Mn0 2.095 . S
O5 C14 1.250 . S
O6 Mn1 2.121 . S
O6 C14 1.258 . S
C7 N8 1.326 . S
C7 C11 1.460 . S
C7 H13 0.929 . S
N8 Mn1 2.257 . S
N8 C7 1.326 . S
N8 C12 1.362 . S
C9 C10 1.258 . S
C9 C12 1.431 . S
C9 C29 1.449 . S
C10 C9 1.258 . S
C10 C11 1.477 . S
C10 H30 0.931 . S
C11 C7 1.460 . S
C11 C10 1.477 . S
C11 H31 0.930 . S
C12 N8 1.362 . S
C12 C9 1.431 . S
C12 C22 1.476 . S
H13 C7 0.929 . S
C14 O5 1.250 . S
C14 O6 1.258 . S
O15 Mn0 2.162 . S
O15 C3 1.281 . S
O16 Mn0 2.297 . S
O16 C3 1.236 . S
N17 Mn1 2.282 . S
N17 C18 1.328 . S
N17 C22 1.318 . S
C18 N17 1.328 . S
C18 C19 1.457 . S
C18 H23 0.929 . S
C19 C18 1.457 . S
C19 C20 1.291 . S
C19 H32 0.931 . S
C20 C19 1.291 . S
C20 C21 1.373 . S
C20 H33 0.929 . S
C21 C20 1.373 . S
C21 C22 1.396 . S
C21 C28 1.403 . S
C22 C12 1.476 . S
C22 N17 1.318 . S
C22 C21 1.396 . S
H23 C18 0.929 . S
O24 Mn0 2.385 . S
O24 C2 1.234 . S
O25 Mn0 2.209 . S
O25 Mn1 2.215 . S
O25 C2 1.283 . S
O26 Mn0 2.094 . S
O26 C4 1.240 . S
O27 Mn1 2.117 . S
O27 C4 1.264 . S
C28 C21 1.403 . S
C28 C29 1.399 . S
C28 H34 0.929 . S
C29 C9 1.449 . S
C29 C28 1.399 . S
C29 H35 0.930 . S
H30 C10 0.931 . S
H31 C11 0.930 . S
H32 C19 0.931 . S
H33 C20 0.929 . S
H34 C28 0.929 . S
H35 C29 0.930 . S
Mn36 O41 2.095 . S
Mn36 O51 2.162 . S
Mn36 O52 2.297 . S
Mn36 O60 2.385 . S
Mn36 O61 2.209 . S
Mn36 O62 2.094 . S
Mn37 O42 2.121 . S
Mn37 N44 2.257 . S
Mn37 N53 2.282 . S
Mn37 O61 2.215 . S
Mn37 O63 2.117 . S
C38 O60 1.234 . S
C38 O61 1.283 . S
C39 O51 1.281 . S
C39 O52 1.236 . S
C40 O62 1.240 . S
C40 O63 1.264 . S
O41 Mn36 2.095 . S
O41 C50 1.250 . S
O42 Mn37 2.121 . S
O42 C50 1.258 . S
C43 N44 1.326 . S
C43 C47 1.460 . S
C43 H49 0.929 . S
N44 Mn37 2.257 . S
N44 C43 1.326 . S
N44 C48 1.362 . S
C45 C46 1.258 . S
C45 C48 1.431 . S
C45 C65 1.449 . S
C46 C45 1.258 . S
C46 C47 1.477 . S
C46 H66 0.931 . S
C47 C43 1.460 . S
C47 C46 1.477 . S
C47 H67 0.930 . S
C48 N44 1.362 . S
C48 C45 1.431 . S
C48 C58 1.476 . S
H49 C43 0.929 . S
C50 O41 1.250 . S
C50 O42 1.258 . S
O51 Mn36 2.162 . S
O51 C39 1.281 . S
O52 Mn36 2.297 . S
O52 C39 1.236 . S
N53 Mn37 2.282 . S
N53 C54 1.328 . S
N53 C58 1.318 . S
C54 N53 1.328 . S
C54 C55 1.457 . S
C54 H59 0.929 . S
C55 C54 1.457 . S
C55 C56 1.291 . S
C55 H68 0.931 . S
C56 C55 1.291 . S
C56 C57 1.373 . S
C56 H69 0.929 . S
C57 C56 1.373 . S
C57 C58 1.396 . S
C57 C64 1.403 . S
C58 C48 1.476 . S
C58 N53 1.318 . S
C58 C57 1.396 . S
H59 C54 0.929 . S
O60 Mn36 2.385 . S
O60 C38 1.234 . S
O61 Mn36 2.209 . S
O61 Mn37 2.215 . S
O61 C38 1.283 . S
O62 Mn36 2.094 . S
O62 C40 1.240 . S
O63 Mn37 2.117 . S
O63 C40 1.264 . S
C64 C57 1.403 . S
C64 C65 1.399 . S
C64 H70 0.929 . S
C65 C45 1.449 . S
C65 C64 1.399 . S
C65 H71 0.930 . S
H66 C46 0.931 . S
H67 C47 0.930 . S
H68 C55 0.931 . S
H69 C56 0.929 . S
H70 C64 0.929 . S
H71 C65 0.930 . S
Mn72 O77 2.095 . S
Mn72 O87 2.162 . S
Mn72 O88 2.297 . S
Mn72 O96 2.385 . S
Mn72 O97 2.209 . S
Mn72 O98 2.094 . S
Mn73 O78 2.121 . S
Mn73 N80 2.257 . S
Mn73 N89 2.282 . S
Mn73 O97 2.215 . S
Mn73 O99 2.117 . S
C74 O96 1.234 . S
C74 O97 1.283 . S
C75 O87 1.281 . S
C75 O88 1.236 . S
C76 O98 1.240 . S
C76 O99 1.264 . S
O77 Mn72 2.095 . S
O77 C86 1.250 . S
O78 Mn73 2.121 . S
O78 C86 1.258 . S
C79 N80 1.326 . S
C79 C83 1.460 . S
C79 H85 0.929 . S
N80 Mn73 2.257 . S
N80 C79 1.326 . S
N80 C84 1.362 . S
C81 C82 1.258 . S
C81 C84 1.431 . S
C81 C101 1.449 . S
C82 C81 1.258 . S
C82 C83 1.477 . S
C82 H102 0.931 . S
C83 C79 1.460 . S
C83 C82 1.477 . S
C83 H103 0.930 . S
C84 N80 1.362 . S
C84 C81 1.431 . S
C84 C94 1.476 . S
H85 C79 0.929 . S
C86 O77 1.250 . S
C86 O78 1.258 . S
O87 Mn72 2.162 . S
O87 C75 1.281 . S
O88 Mn72 2.297 . S
O88 C75 1.236 . S
N89 Mn73 2.282 . S
N89 C90 1.328 . S
N89 C94 1.318 . S
C90 N89 1.328 . S
C90 C91 1.457 . S
C90 H95 0.929 . S
C91 C90 1.457 . S
C91 C92 1.291 . S
C91 H104 0.931 . S
C92 C91 1.291 . S
C92 C93 1.373 . S
C92 H105 0.929 . S
C93 C92 1.373 . S
C93 C94 1.396 . S
C93 C100 1.403 . S
C94 C84 1.476 . S
C94 N89 1.318 . S
C94 C93 1.396 . S
H95 C90 0.929 . S
O96 Mn72 2.385 . S
O96 C74 1.234 . S
O97 Mn72 2.209 . S
O97 Mn73 2.215 . S
O97 C74 1.283 . S
O98 Mn72 2.094 . S
O98 C76 1.240 . S
O99 Mn73 2.117 . S
O99 C76 1.264 . S
C100 C93 1.403 . S
C100 C101 1.399 . S
C100 H106 0.929 . S
C101 C81 1.449 . S
C101 C100 1.399 . S
C101 H107 0.930 . S
H102 C82 0.931 . S
H103 C83 0.930 . S
H104 C91 0.931 . S
H105 C92 0.929 . S
H106 C100 0.929 . S
H107 C101 0.930 . S
Mn108 O113 2.095 . S
Mn108 O123 2.162 . S
Mn108 O124 2.297 . S
Mn108 O132 2.385 . S
Mn108 O133 2.209 . S
Mn108 O134 2.094 . S
Mn109 O114 2.121 . S
Mn109 N116 2.257 . S
Mn109 N125 2.282 . S
Mn109 O133 2.215 . S
Mn109 O135 2.117 . S
C110 O132 1.234 . S
C110 O133 1.283 . S
C111 O123 1.281 . S
C111 O124 1.236 . S
C112 O134 1.240 . S
C112 O135 1.264 . S
O113 Mn108 2.095 . S
O113 C122 1.250 . S
O114 Mn109 2.121 . S
O114 C122 1.258 . S
C115 N116 1.326 . S
C115 C119 1.460 . S
C115 H121 0.929 . S
N116 Mn109 2.257 . S
N116 C115 1.326 . S
N116 C120 1.362 . S
C117 C118 1.258 . S
C117 C120 1.431 . S
C117 C137 1.449 . S
C118 C117 1.258 . S
C118 C119 1.477 . S
C118 H138 0.931 . S
C119 C115 1.460 . S
C119 C118 1.477 . S
C119 H139 0.930 . S
C120 N116 1.362 . S
C120 C117 1.431 . S
C120 C130 1.476 . S
H121 C115 0.929 . S
C122 O113 1.250 . S
C122 O114 1.258 . S
O123 Mn108 2.162 . S
O123 C111 1.281 . S
O124 Mn108 2.297 . S
O124 C111 1.236 . S
N125 Mn109 2.282 . S
N125 C126 1.328 . S
N125 C130 1.318 . S
C126 N125 1.328 . S
C126 C127 1.457 . S
C126 H131 0.929 . S
C127 C126 1.457 . S
C127 C128 1.291 . S
C127 H140 0.931 . S
C128 C127 1.291 . S
C128 C129 1.373 . S
C128 H141 0.929 . S
C129 C128 1.373 . S
C129 C130 1.396 . S
C129 C136 1.403 . S
C130 C120 1.476 . S
C130 N125 1.318 . S
C130 C129 1.396 . S
H131 C126 0.929 . S
O132 Mn108 2.385 . S
O132 C110 1.234 . S
O133 Mn108 2.209 . S
O133 Mn109 2.215 . S
O133 C110 1.283 . S
O134 Mn108 2.094 . S
O134 C112 1.240 . S
O135 Mn109 2.117 . S
O135 C112 1.264 . S
C136 C129 1.403 . S
C136 C137 1.399 . S
C136 H142 0.929 . S
C137 C117 1.449 . S
C137 C136 1.399 . S
C137 H143 0.930 . S
H138 C118 0.931 . S
H139 C119 0.930 . S
H140 C127 0.931 . S
H141 C128 0.929 . S
H142 C136 0.929 . S
H143 C137 0.930 . S
Mn144 O149 2.095 . S
Mn144 O159 2.162 . S
Mn144 O160 2.297 . S
Mn144 O168 2.385 . S
Mn144 O169 2.209 . S
Mn144 O170 2.094 . S
Mn145 O150 2.121 . S
Mn145 N152 2.257 . S
Mn145 N161 2.282 . S
Mn145 O169 2.215 . S
Mn145 O171 2.117 . S
C146 O168 1.234 . S
C146 O169 1.283 . S
C147 O159 1.281 . S
C147 O160 1.236 . S
C148 O170 1.240 . S
C148 O171 1.264 . S
O149 Mn144 2.095 . S
O149 C158 1.250 . S
O150 Mn145 2.121 . S
O150 C158 1.258 . S
C151 N152 1.326 . S
C151 C155 1.460 . S
C151 H157 0.929 . S
N152 Mn145 2.257 . S
N152 C151 1.326 . S
N152 C156 1.362 . S
C153 C154 1.258 . S
C153 C156 1.431 . S
C153 C173 1.449 . S
C154 C153 1.258 . S
C154 C155 1.477 . S
C154 H174 0.931 . S
C155 C151 1.460 . S
C155 C154 1.477 . S
C155 H175 0.930 . S
C156 N152 1.362 . S
C156 C153 1.431 . S
C156 C166 1.476 . S
H157 C151 0.929 . S
C158 O149 1.250 . S
C158 O150 1.258 . S
O159 Mn144 2.162 . S
O159 C147 1.281 . S
O160 Mn144 2.297 . S
O160 C147 1.236 . S
N161 Mn145 2.282 . S
N161 C162 1.328 . S
N161 C166 1.318 . S
C162 N161 1.328 . S
C162 C163 1.457 . S
C162 H167 0.929 . S
C163 C162 1.457 . S
C163 C164 1.291 . S
C163 H176 0.931 . S
C164 C163 1.291 . S
C164 C165 1.373 . S
C164 H177 0.929 . S
C165 C164 1.373 . S
C165 C166 1.396 . S
C165 C172 1.403 . S
C166 C156 1.476 . S
C166 N161 1.318 . S
C166 C165 1.396 . S
H167 C162 0.929 . S
O168 Mn144 2.385 . S
O168 C146 1.234 . S
O169 Mn144 2.209 . S
O169 Mn145 2.215 . S
O169 C146 1.283 . S
O170 Mn144 2.094 . S
O170 C148 1.240 . S
O171 Mn145 2.117 . S
O171 C148 1.264 . S
C172 C165 1.403 . S
C172 C173 1.399 . S
C172 H178 0.929 . S
C173 C153 1.449 . S
C173 C172 1.399 . S
C173 H179 0.930 . S
H174 C154 0.931 . S
H175 C155 0.930 . S
H176 C163 0.931 . S
H177 C164 0.929 . S
H178 C172 0.929 . S
H179 C173 0.930 . S
Mn180 O185 2.095 . S
Mn180 O195 2.162 . S
Mn180 O196 2.297 . S
Mn180 O204 2.385 . S
Mn180 O205 2.209 . S
Mn180 O206 2.094 . S
Mn181 O186 2.121 . S
Mn181 N188 2.257 . S
Mn181 N197 2.282 . S
Mn181 O205 2.215 . S
Mn181 O207 2.117 . S
C182 O204 1.234 . S
C182 O205 1.283 . S
C183 O195 1.281 . S
C183 O196 1.236 . S
C184 O206 1.240 . S
C184 O207 1.264 . S
O185 Mn180 2.095 . S
O185 C194 1.250 . S
O186 Mn181 2.121 . S
O186 C194 1.258 . S
C187 N188 1.326 . S
C187 C191 1.460 . S
C187 H193 0.929 . S
N188 Mn181 2.257 . S
N188 C187 1.326 . S
N188 C192 1.362 . S
C189 C190 1.258 . S
C189 C192 1.431 . S
C189 C209 1.449 . S
C190 C189 1.258 . S
C190 C191 1.477 . S
C190 H210 0.931 . S
C191 C187 1.460 . S
C191 C190 1.477 . S
C191 H211 0.930 . S
C192 N188 1.362 . S
C192 C189 1.431 . S
C192 C202 1.476 . S
H193 C187 0.929 . S
C194 O185 1.250 . S
C194 O186 1.258 . S
O195 Mn180 2.162 . S
O195 C183 1.281 . S
O196 Mn180 2.297 . S
O196 C183 1.236 . S
N197 Mn181 2.282 . S
N197 C198 1.328 . S
N197 C202 1.318 . S
C198 N197 1.328 . S
C198 C199 1.457 . S
C198 H203 0.929 . S
C199 C198 1.457 . S
C199 C200 1.291 . S
C199 H212 0.931 . S
C200 C199 1.291 . S
C200 C201 1.373 . S
C200 H213 0.929 . S
C201 C200 1.373 . S
C201 C202 1.396 . S
C201 C208 1.403 . S
C202 C192 1.476 . S
C202 N197 1.318 . S
C202 C201 1.396 . S
H203 C198 0.929 . S
O204 Mn180 2.385 . S
O204 C182 1.234 . S
O205 Mn180 2.209 . S
O205 Mn181 2.215 . S
O205 C182 1.283 . S
O206 Mn180 2.094 . S
O206 C184 1.240 . S
O207 Mn181 2.117 . S
O207 C184 1.264 . S
C208 C201 1.403 . S
C208 C209 1.399 . S
C208 H214 0.929 . S
C209 C189 1.449 . S
C209 C208 1.399 . S
C209 H215 0.930 . S
H210 C190 0.931 . S
H211 C191 0.930 . S
H212 C199 0.931 . S
H213 C200 0.929 . S
H214 C208 0.929 . S
H215 C209 0.930 . S
Mn216 O221 2.095 . S
Mn216 O231 2.162 . S
Mn216 O232 2.297 . S
Mn216 O240 2.385 . S
Mn216 O241 2.209 . S
Mn216 O242 2.094 . S
Mn217 O222 2.121 . S
Mn217 N224 2.257 . S
Mn217 N233 2.282 . S
Mn217 O241 2.215 . S
Mn217 O243 2.117 . S
C218 O240 1.234 . S
C218 O241 1.283 . S
C219 O231 1.281 . S
C219 O232 1.236 . S
C220 O242 1.240 . S
C220 O243 1.264 . S
O221 Mn216 2.095 . S
O221 C230 1.250 . S
O222 Mn217 2.121 . S
O222 C230 1.258 . S
C223 N224 1.326 . S
C223 C227 1.460 . S
C223 H229 0.929 . S
N224 Mn217 2.257 . S
N224 C223 1.326 . S
N224 C228 1.362 . S
C225 C226 1.258 . S
C225 C228 1.431 . S
C225 C245 1.449 . S
C226 C225 1.258 . S
C226 C227 1.477 . S
C226 H246 0.931 . S
C227 C223 1.460 . S
C227 C226 1.477 . S
C227 H247 0.930 . S
C228 N224 1.362 . S
C228 C225 1.431 . S
C228 C238 1.476 . S
H229 C223 0.929 . S
C230 O221 1.250 . S
C230 O222 1.258 . S
O231 Mn216 2.162 . S
O231 C219 1.281 . S
O232 Mn216 2.297 . S
O232 C219 1.236 . S
N233 Mn217 2.282 . S
N233 C234 1.328 . S
N233 C238 1.318 . S
C234 N233 1.328 . S
C234 C235 1.457 . S
C234 H239 0.929 . S
C235 C234 1.457 . S
C235 C236 1.291 . S
C235 H248 0.931 . S
C236 C235 1.291 . S
C236 C237 1.373 . S
C236 H249 0.929 . S
C237 C236 1.373 . S
C237 C238 1.396 . S
C237 C244 1.403 . S
C238 C228 1.476 . S
C238 N233 1.318 . S
C238 C237 1.396 . S
H239 C234 0.929 . S
O240 Mn216 2.385 . S
O240 C218 1.234 . S
O241 Mn216 2.209 . S
O241 Mn217 2.215 . S
O241 C218 1.283 . S
O242 Mn216 2.094 . S
O242 C220 1.240 . S
O243 Mn217 2.117 . S
O243 C220 1.264 . S
C244 C237 1.403 . S
C244 C245 1.399 . S
C244 H250 0.929 . S
C245 C225 1.449 . S
C245 C244 1.399 . S
C245 H251 0.930 . S
H246 C226 0.931 . S
H247 C227 0.930 . S
H248 C235 0.931 . S
H249 C236 0.929 . S
H250 C244 0.929 . S
H251 C245 0.930 . S
Mn252 O257 2.095 . S
Mn252 O267 2.162 . S
Mn252 O268 2.297 . S
Mn252 O276 2.385 . S
Mn252 O277 2.209 . S
Mn252 O278 2.094 . S
Mn253 O258 2.121 . S
Mn253 N260 2.257 . S
Mn253 N269 2.282 . S
Mn253 O277 2.215 . S
Mn253 O279 2.117 . S
C254 O276 1.234 . S
C254 O277 1.283 . S
C255 O267 1.281 . S
C255 O268 1.236 . S
C256 O278 1.240 . S
C256 O279 1.264 . S
O257 Mn252 2.095 . S
O257 C266 1.250 . S
O258 Mn253 2.121 . S
O258 C266 1.258 . S
C259 N260 1.326 . S
C259 C263 1.460 . S
C259 H265 0.929 . S
N260 Mn253 2.257 . S
N260 C259 1.326 . S
N260 C264 1.362 . S
C261 C262 1.258 . S
C261 C264 1.431 . S
C261 C281 1.449 . S
C262 C261 1.258 . S
C262 C263 1.477 . S
C262 H282 0.931 . S
C263 C259 1.460 . S
C263 C262 1.477 . S
C263 H283 0.930 . S
C264 N260 1.362 . S
C264 C261 1.431 . S
C264 C274 1.476 . S
H265 C259 0.929 . S
C266 O257 1.250 . S
C266 O258 1.258 . S
O267 Mn252 2.162 . S
O267 C255 1.281 . S
O268 Mn252 2.297 . S
O268 C255 1.236 . S
N269 Mn253 2.282 . S
N269 C270 1.328 . S
N269 C274 1.318 . S
C270 N269 1.328 . S
C270 C271 1.457 . S
C270 H275 0.929 . S
C271 C270 1.457 . S
C271 C272 1.291 . S
C271 H284 0.931 . S
C272 C271 1.291 . S
C272 C273 1.373 . S
C272 H285 0.929 . S
C273 C272 1.373 . S
C273 C274 1.396 . S
C273 C280 1.403 . S
C274 C264 1.476 . S
C274 N269 1.318 . S
C274 C273 1.396 . S
H275 C270 0.929 . S
O276 Mn252 2.385 . S
O276 C254 1.234 . S
O277 Mn252 2.209 . S
O277 Mn253 2.215 . S
O277 C254 1.283 . S
O278 Mn252 2.094 . S
O278 C256 1.240 . S
O279 Mn253 2.117 . S
O279 C256 1.264 . S
C280 C273 1.403 . S
C280 C281 1.399 . S
C280 H286 0.929 . S
C281 C261 1.449 . S
C281 C280 1.399 . S
C281 H287 0.930 . S
H282 C262 0.931 . S
H283 C263 0.930 . S
H284 C271 0.931 . S
H285 C272 0.929 . S
H286 C280 0.929 . S
H287 C281 0.930 . S
Mn288 O293 2.095 . S
Mn288 O303 2.162 . S
Mn288 O304 2.297 . S
Mn288 O312 2.385 . S
Mn288 O313 2.209 . S
Mn288 O314 2.094 . S
Mn289 O294 2.121 . S
Mn289 N296 2.257 . S
Mn289 N305 2.282 . S
Mn289 O313 2.215 . S
Mn289 O315 2.117 . S
C290 O312 1.234 . S
C290 O313 1.283 . S
C291 O303 1.281 . S
C291 O304 1.236 . S
C292 O314 1.240 . S
C292 O315 1.264 . S
O293 Mn288 2.095 . S
O293 C302 1.250 . S
O294 Mn289 2.121 . S
O294 C302 1.258 . S
C295 N296 1.326 . S
C295 C299 1.460 . S
C295 H301 0.929 . S
N296 Mn289 2.257 . S
N296 C295 1.326 . S
N296 C300 1.362 . S
C297 C298 1.258 . S
C297 C300 1.431 . S
C297 C317 1.449 . S
C298 C297 1.258 . S
C298 C299 1.477 . S
C298 H318 0.931 . S
C299 C295 1.460 . S
C299 C298 1.477 . S
C299 H319 0.930 . S
C300 N296 1.362 . S
C300 C297 1.431 . S
C300 C310 1.476 . S
H301 C295 0.929 . S
C302 O293 1.250 . S
C302 O294 1.258 . S
O303 Mn288 2.162 . S
O303 C291 1.281 . S
O304 Mn288 2.297 . S
O304 C291 1.236 . S
N305 Mn289 2.282 . S
N305 C306 1.328 . S
N305 C310 1.318 . S
C306 N305 1.328 . S
C306 C307 1.457 . S
C306 H311 0.929 . S
C307 C306 1.457 . S
C307 C308 1.291 . S
C307 H320 0.931 . S
C308 C307 1.291 . S
C308 C309 1.373 . S
C308 H321 0.929 . S
C309 C308 1.373 . S
C309 C310 1.396 . S
C309 C316 1.403 . S
C310 C300 1.476 . S
C310 N305 1.318 . S
C310 C309 1.396 . S
H311 C306 0.929 . S
O312 Mn288 2.385 . S
O312 C290 1.234 . S
O313 Mn288 2.209 . S
O313 Mn289 2.215 . S
O313 C290 1.283 . S
O314 Mn288 2.094 . S
O314 C292 1.240 . S
O315 Mn289 2.117 . S
O315 C292 1.264 . S
C316 C309 1.403 . S
C316 C317 1.399 . S
C316 H322 0.929 . S
C317 C297 1.449 . S
C317 C316 1.399 . S
C317 H323 0.930 . S
H318 C298 0.931 . S
H319 C299 0.930 . S
H320 C307 0.931 . S
H321 C308 0.929 . S
H322 C316 0.929 . S
H323 C317 0.930 . S
Mn324 O329 2.095 . S
Mn324 O339 2.162 . S
Mn324 O340 2.297 . S
Mn324 O348 2.385 . S
Mn324 O349 2.209 . S
Mn324 O350 2.094 . S
Mn325 O330 2.121 . S
Mn325 N332 2.257 . S
Mn325 N341 2.282 . S
Mn325 O349 2.215 . S
Mn325 O351 2.117 . S
C326 O348 1.234 . S
C326 O349 1.283 . S
C327 O339 1.281 . S
C327 O340 1.236 . S
C328 O350 1.240 . S
C328 O351 1.264 . S
O329 Mn324 2.095 . S
O329 C338 1.250 . S
O330 Mn325 2.121 . S
O330 C338 1.258 . S
C331 N332 1.326 . S
C331 C335 1.460 . S
C331 H337 0.929 . S
N332 Mn325 2.257 . S
N332 C331 1.326 . S
N332 C336 1.362 . S
C333 C334 1.258 . S
C333 C336 1.431 . S
C333 C353 1.449 . S
C334 C333 1.258 . S
C334 C335 1.477 . S
C334 H354 0.931 . S
C335 C331 1.460 . S
C335 C334 1.477 . S
C335 H355 0.930 . S
C336 N332 1.362 . S
C336 C333 1.431 . S
C336 C346 1.476 . S
H337 C331 0.929 . S
C338 O329 1.250 . S
C338 O330 1.258 . S
O339 Mn324 2.162 . S
O339 C327 1.281 . S
O340 Mn324 2.297 . S
O340 C327 1.236 . S
N341 Mn325 2.282 . S
N341 C342 1.328 . S
N341 C346 1.318 . S
C342 N341 1.328 . S
C342 C343 1.457 . S
C342 H347 0.929 . S
C343 C342 1.457 . S
C343 C344 1.291 . S
C343 H356 0.931 . S
C344 C343 1.291 . S
C344 C345 1.373 . S
C344 H357 0.929 . S
C345 C344 1.373 . S
C345 C346 1.396 . S
C345 C352 1.403 . S
C346 C336 1.476 . S
C346 N341 1.318 . S
C346 C345 1.396 . S
H347 C342 0.929 . S
O348 Mn324 2.385 . S
O348 C326 1.234 . S
O349 Mn324 2.209 . S
O349 Mn325 2.215 . S
O349 C326 1.283 . S
O350 Mn324 2.094 . S
O350 C328 1.240 . S
O351 Mn325 2.117 . S
O351 C328 1.264 . S
C352 C345 1.403 . S
C352 C353 1.399 . S
C352 H358 0.929 . S
C353 C333 1.449 . S
C353 C352 1.399 . S
C353 H359 0.930 . S
H354 C334 0.931 . S
H355 C335 0.930 . S
H356 C343 0.931 . S
H357 C344 0.929 . S
H358 C352 0.929 . S
H359 C353 0.930 . S
Mn360 O365 2.095 . S
Mn360 O375 2.162 . S
Mn360 O376 2.297 . S
Mn360 O384 2.385 . S
Mn360 O385 2.209 . S
Mn360 O386 2.094 . S
Mn361 O366 2.121 . S
Mn361 N368 2.257 . S
Mn361 N377 2.282 . S
Mn361 O385 2.215 . S
Mn361 O387 2.117 . S
C362 O384 1.234 . S
C362 O385 1.283 . S
C363 O375 1.281 . S
C363 O376 1.236 . S
C364 O386 1.240 . S
C364 O387 1.264 . S
O365 Mn360 2.095 . S
O365 C374 1.250 . S
O366 Mn361 2.121 . S
O366 C374 1.258 . S
C367 N368 1.326 . S
C367 C371 1.460 . S
C367 H373 0.929 . S
N368 Mn361 2.257 . S
N368 C367 1.326 . S
N368 C372 1.362 . S
C369 C370 1.258 . S
C369 C372 1.431 . S
C369 C389 1.449 . S
C370 C369 1.258 . S
C370 C371 1.477 . S
C370 H390 0.931 . S
C371 C367 1.460 . S
C371 C370 1.477 . S
C371 H391 0.930 . S
C372 N368 1.362 . S
C372 C369 1.431 . S
C372 C382 1.476 . S
H373 C367 0.929 . S
C374 O365 1.250 . S
C374 O366 1.258 . S
O375 Mn360 2.162 . S
O375 C363 1.281 . S
O376 Mn360 2.297 . S
O376 C363 1.236 . S
N377 Mn361 2.282 . S
N377 C378 1.328 . S
N377 C382 1.318 . S
C378 N377 1.328 . S
C378 C379 1.457 . S
C378 H383 0.929 . S
C379 C378 1.457 . S
C379 C380 1.291 . S
C379 H392 0.931 . S
C380 C379 1.291 . S
C380 C381 1.373 . S
C380 H393 0.929 . S
C381 C380 1.373 . S
C381 C382 1.396 . S
C381 C388 1.403 . S
C382 C372 1.476 . S
C382 N377 1.318 . S
C382 C381 1.396 . S
H383 C378 0.929 . S
O384 Mn360 2.385 . S
O384 C362 1.234 . S
O385 Mn360 2.209 . S
O385 Mn361 2.215 . S
O385 C362 1.283 . S
O386 Mn360 2.094 . S
O386 C364 1.240 . S
O387 Mn361 2.117 . S
O387 C364 1.264 . S
C388 C381 1.403 . S
C388 C389 1.399 . S
C388 H394 0.929 . S
C389 C369 1.449 . S
C389 C388 1.399 . S
C389 H395 0.930 . S
H390 C370 0.931 . S
H391 C371 0.930 . S
H392 C379 0.931 . S
H393 C380 0.929 . S
H394 C388 0.929 . S
H395 C389 0.930 . S
Mn396 O401 2.095 . S
Mn396 O411 2.162 . S
Mn396 O412 2.297 . S
Mn396 O420 2.385 . S
Mn396 O421 2.209 . S
Mn396 O422 2.094 . S
Mn397 O402 2.121 . S
Mn397 N404 2.257 . S
Mn397 N413 2.282 . S
Mn397 O421 2.215 . S
Mn397 O423 2.117 . S
C398 O420 1.234 . S
C398 O421 1.283 . S
C399 O411 1.281 . S
C399 O412 1.236 . S
C400 O422 1.240 . S
C400 O423 1.264 . S
O401 Mn396 2.095 . S
O401 C410 1.250 . S
O402 Mn397 2.121 . S
O402 C410 1.258 . S
C403 N404 1.326 . S
C403 C407 1.460 . S
C403 H409 0.929 . S
N404 Mn397 2.257 . S
N404 C403 1.326 . S
N404 C408 1.362 . S
C405 C406 1.258 . S
C405 C408 1.431 . S
C405 C425 1.449 . S
C406 C405 1.258 . S
C406 C407 1.477 . S
C406 H426 0.931 . S
C407 C403 1.460 . S
C407 C406 1.477 . S
C407 H427 0.930 . S
C408 N404 1.362 . S
C408 C405 1.431 . S
C408 C418 1.476 . S
H409 C403 0.929 . S
C410 O401 1.250 . S
C410 O402 1.258 . S
O411 Mn396 2.162 . S
O411 C399 1.281 . S
O412 Mn396 2.297 . S
O412 C399 1.236 . S
N413 Mn397 2.282 . S
N413 C414 1.328 . S
N413 C418 1.318 . S
C414 N413 1.328 . S
C414 C415 1.457 . S
C414 H419 0.929 . S
C415 C414 1.457 . S
C415 C416 1.291 . S
C415 H428 0.931 . S
C416 C415 1.291 . S
C416 C417 1.373 . S
C416 H429 0.929 . S
C417 C416 1.373 . S
C417 C418 1.396 . S
C417 C424 1.403 . S
C418 C408 1.476 . S
C418 N413 1.318 . S
C418 C417 1.396 . S
H419 C414 0.929 . S
O420 Mn396 2.385 . S
O420 C398 1.234 . S
O421 Mn396 2.209 . S
O421 Mn397 2.215 . S
O421 C398 1.283 . S
O422 Mn396 2.094 . S
O422 C400 1.240 . S
O423 Mn397 2.117 . S
O423 C400 1.264 . S
C424 C417 1.403 . S
C424 C425 1.399 . S
C424 H430 0.929 . S
C425 C405 1.449 . S
C425 C424 1.399 . S
C425 H431 0.930 . S
H426 C406 0.931 . S
H427 C407 0.930 . S
H428 C415 0.931 . S
H429 C416 0.929 . S
H430 C424 0.929 . S
H431 C425 0.930 . S
Mn432 O437 2.095 . S
Mn432 O447 2.162 . S
Mn432 O448 2.297 . S
Mn432 O456 2.385 . S
Mn432 O457 2.209 . S
Mn432 O458 2.094 . S
Mn433 O438 2.121 . S
Mn433 N440 2.257 . S
Mn433 N449 2.282 . S
Mn433 O457 2.215 . S
Mn433 O459 2.117 . S
C434 O456 1.234 . S
C434 O457 1.283 . S
C435 O447 1.281 . S
C435 O448 1.236 . S
C436 O458 1.240 . S
C436 O459 1.264 . S
O437 Mn432 2.095 . S
O437 C446 1.250 . S
O438 Mn433 2.121 . S
O438 C446 1.258 . S
C439 N440 1.326 . S
C439 C443 1.460 . S
C439 H445 0.929 . S
N440 Mn433 2.257 . S
N440 C439 1.326 . S
N440 C444 1.362 . S
C441 C442 1.258 . S
C441 C444 1.431 . S
C441 C461 1.449 . S
C442 C441 1.258 . S
C442 C443 1.477 . S
C442 H462 0.931 . S
C443 C439 1.460 . S
C443 C442 1.477 . S
C443 H463 0.930 . S
C444 N440 1.362 . S
C444 C441 1.431 . S
C444 C454 1.476 . S
H445 C439 0.929 . S
C446 O437 1.250 . S
C446 O438 1.258 . S
O447 Mn432 2.162 . S
O447 C435 1.281 . S
O448 Mn432 2.297 . S
O448 C435 1.236 . S
N449 Mn433 2.282 . S
N449 C450 1.328 . S
N449 C454 1.318 . S
C450 N449 1.328 . S
C450 C451 1.457 . S
C450 H455 0.929 . S
C451 C450 1.457 . S
C451 C452 1.291 . S
C451 H464 0.931 . S
C452 C451 1.291 . S
C452 C453 1.373 . S
C452 H465 0.929 . S
C453 C452 1.373 . S
C453 C454 1.396 . S
C453 C460 1.403 . S
C454 C444 1.476 . S
C454 N449 1.318 . S
C454 C453 1.396 . S
H455 C450 0.929 . S
O456 Mn432 2.385 . S
O456 C434 1.234 . S
O457 Mn432 2.209 . S
O457 Mn433 2.215 . S
O457 C434 1.283 . S
O458 Mn432 2.094 . S
O458 C436 1.240 . S
O459 Mn433 2.117 . S
O459 C436 1.264 . S
C460 C453 1.403 . S
C460 C461 1.399 . S
C460 H466 0.929 . S
C461 C441 1.449 . S
C461 C460 1.399 . S
C461 H467 0.930 . S
H462 C442 0.931 . S
H463 C443 0.930 . S
H464 C451 0.931 . S
H465 C452 0.929 . S
H466 C460 0.929 . S
H467 C461 0.930 . S
Mn468 O473 2.095 . S
Mn468 O483 2.162 . S
Mn468 O484 2.297 . S
Mn468 O492 2.385 . S
Mn468 O493 2.209 . S
Mn468 O494 2.094 . S
Mn469 O474 2.121 . S
Mn469 N476 2.257 . S
Mn469 N485 2.282 . S
Mn469 O493 2.215 . S
Mn469 O495 2.117 . S
C470 O492 1.234 . S
C470 O493 1.283 . S
C471 O483 1.281 . S
C471 O484 1.236 . S
C472 O494 1.240 . S
C472 O495 1.264 . S
O473 Mn468 2.095 . S
O473 C482 1.250 . S
O474 Mn469 2.121 . S
O474 C482 1.258 . S
C475 N476 1.326 . S
C475 C479 1.460 . S
C475 H481 0.929 . S
N476 Mn469 2.257 . S
N476 C475 1.326 . S
N476 C480 1.362 . S
C477 C478 1.258 . S
C477 C480 1.431 . S
C477 C497 1.449 . S
C478 C477 1.258 . S
C478 C479 1.477 . S
C478 H498 0.931 . S
C479 C475 1.460 . S
C479 C478 1.477 . S
C479 H499 0.930 . S
C480 N476 1.362 . S
C480 C477 1.431 . S
C480 C490 1.476 . S
H481 C475 0.929 . S
C482 O473 1.250 . S
C482 O474 1.258 . S
O483 Mn468 2.162 . S
O483 C471 1.281 . S
O484 Mn468 2.297 . S
O484 C471 1.236 . S
N485 Mn469 2.282 . S
N485 C486 1.328 . S
N485 C490 1.318 . S
C486 N485 1.328 . S
C486 C487 1.457 . S
C486 H491 0.929 . S
C487 C486 1.457 . S
C487 C488 1.291 . S
C487 H500 0.931 . S
C488 C487 1.291 . S
C488 C489 1.373 . S
C488 H501 0.929 . S
C489 C488 1.373 . S
C489 C490 1.396 . S
C489 C496 1.403 . S
C490 C480 1.476 . S
C490 N485 1.318 . S
C490 C489 1.396 . S
H491 C486 0.929 . S
O492 Mn468 2.385 . S
O492 C470 1.234 . S
O493 Mn468 2.209 . S
O493 Mn469 2.215 . S
O493 C470 1.283 . S
O494 Mn468 2.094 . S
O494 C472 1.240 . S
O495 Mn469 2.117 . S
O495 C472 1.264 . S
C496 C489 1.403 . S
C496 C497 1.399 . S
C496 H502 0.929 . S
C497 C477 1.449 . S
C497 C496 1.399 . S
C497 H503 0.930 . S
H498 C478 0.931 . S
H499 C479 0.930 . S
H500 C487 0.931 . S
H501 C488 0.929 . S
H502 C496 0.929 . S
H503 C497 0.930 . S
Mn504 O509 2.095 . S
Mn504 O519 2.162 . S
Mn504 O520 2.297 . S
Mn504 O528 2.385 . S
Mn504 O529 2.209 . S
Mn504 O530 2.094 . S
Mn505 O510 2.121 . S
Mn505 N512 2.257 . S
Mn505 N521 2.282 . S
Mn505 O529 2.215 . S
Mn505 O531 2.117 . S
C506 O528 1.234 . S
C506 O529 1.283 . S
C507 O519 1.281 . S
C507 O520 1.236 . S
C508 O530 1.240 . S
C508 O531 1.264 . S
O509 Mn504 2.095 . S
O509 C518 1.250 . S
O510 Mn505 2.121 . S
O510 C518 1.258 . S
C511 N512 1.326 . S
C511 C515 1.460 . S
C511 H517 0.929 . S
N512 Mn505 2.257 . S
N512 C511 1.326 . S
N512 C516 1.362 . S
C513 C514 1.258 . S
C513 C516 1.431 . S
C513 C533 1.449 . S
C514 C513 1.258 . S
C514 C515 1.477 . S
C514 H534 0.931 . S
C515 C511 1.460 . S
C515 C514 1.477 . S
C515 H535 0.930 . S
C516 N512 1.362 . S
C516 C513 1.431 . S
C516 C526 1.476 . S
H517 C511 0.929 . S
C518 O509 1.250 . S
C518 O510 1.258 . S
O519 Mn504 2.162 . S
O519 C507 1.281 . S
O520 Mn504 2.297 . S
O520 C507 1.236 . S
N521 Mn505 2.282 . S
N521 C522 1.328 . S
N521 C526 1.318 . S
C522 N521 1.328 . S
C522 C523 1.457 . S
C522 H527 0.929 . S
C523 C522 1.457 . S
C523 C524 1.291 . S
C523 H536 0.931 . S
C524 C523 1.291 . S
C524 C525 1.373 . S
C524 H537 0.929 . S
C525 C524 1.373 . S
C525 C526 1.396 . S
C525 C532 1.403 . S
C526 C516 1.476 . S
C526 N521 1.318 . S
C526 C525 1.396 . S
H527 C522 0.929 . S
O528 Mn504 2.385 . S
O528 C506 1.234 . S
O529 Mn504 2.209 . S
O529 Mn505 2.215 . S
O529 C506 1.283 . S
O530 Mn504 2.094 . S
O530 C508 1.240 . S
O531 Mn505 2.117 . S
O531 C508 1.264 . S
C532 C525 1.403 . S
C532 C533 1.399 . S
C532 H538 0.929 . S
C533 C513 1.449 . S
C533 C532 1.399 . S
C533 H539 0.930 . S
H534 C514 0.931 . S
H535 C515 0.930 . S
H536 C523 0.931 . S
H537 C524 0.929 . S
H538 C532 0.929 . S
H539 C533 0.930 . S
Mn540 O545 2.095 . S
Mn540 O555 2.162 . S
Mn540 O556 2.297 . S
Mn540 O564 2.385 . S
Mn540 O565 2.209 . S
Mn540 O566 2.094 . S
Mn541 O546 2.121 . S
Mn541 N548 2.257 . S
Mn541 N557 2.282 . S
Mn541 O565 2.215 . S
Mn541 O567 2.117 . S
C542 O564 1.234 . S
C542 O565 1.283 . S
C543 O555 1.281 . S
C543 O556 1.236 . S
C544 O566 1.240 . S
C544 O567 1.264 . S
O545 Mn540 2.095 . S
O545 C554 1.250 . S
O546 Mn541 2.121 . S
O546 C554 1.258 . S
C547 N548 1.326 . S
C547 C551 1.460 . S
C547 H553 0.929 . S
N548 Mn541 2.257 . S
N548 C547 1.326 . S
N548 C552 1.362 . S
C549 C550 1.258 . S
C549 C552 1.431 . S
C549 C569 1.449 . S
C550 C549 1.258 . S
C550 C551 1.477 . S
C550 H570 0.931 . S
C551 C547 1.460 . S
C551 C550 1.477 . S
C551 H571 0.930 . S
C552 N548 1.362 . S
C552 C549 1.431 . S
C552 C562 1.476 . S
H553 C547 0.929 . S
C554 O545 1.250 . S
C554 O546 1.258 . S
O555 Mn540 2.162 . S
O555 C543 1.281 . S
O556 Mn540 2.297 . S
O556 C543 1.236 . S
N557 Mn541 2.282 . S
N557 C558 1.328 . S
N557 C562 1.318 . S
C558 N557 1.328 . S
C558 C559 1.457 . S
C558 H563 0.929 . S
C559 C558 1.457 . S
C559 C560 1.291 . S
C559 H572 0.931 . S
C560 C559 1.291 . S
C560 C561 1.373 . S
C560 H573 0.929 . S
C561 C560 1.373 . S
C561 C562 1.396 . S
C561 C568 1.403 . S
C562 C552 1.476 . S
C562 N557 1.318 . S
C562 C561 1.396 . S
H563 C558 0.929 . S
O564 Mn540 2.385 . S
O564 C542 1.234 . S
O565 Mn540 2.209 . S
O565 Mn541 2.215 . S
O565 C542 1.283 . S
O566 Mn540 2.094 . S
O566 C544 1.240 . S
O567 Mn541 2.117 . S
O567 C544 1.264 . S
C568 C561 1.403 . S
C568 C569 1.399 . S
C568 H574 0.929 . S
C569 C549 1.449 . S
C569 C568 1.399 . S
C569 H575 0.930 . S
H570 C550 0.931 . S
H571 C551 0.930 . S
H572 C559 0.931 . S
H573 C560 0.929 . S
H574 C568 0.929 . S
H575 C569 0.930 . S
H576 C582 0.930 . S
H577 C586 0.930 . S
H578 C591 0.929 . S
H579 C589 0.929 . S
H580 C584 0.929 . S
H581 C590 0.929 . S
C582 H576 0.930 . S
C582 C583 1.367 . S
C582 C590 1.378 . S
C583 C582 1.367 . S
C583 C591 1.433 . S
C584 H580 0.929 . S
C584 C586 1.378 . S
C584 C588 1.350 . S
C585 C588 1.463 . S
C585 C590 1.350 . S
C585 N593 1.427 . S
C586 H577 0.930 . S
C586 C584 1.378 . S
C586 C587 1.367 . S
C587 C586 1.367 . S
C587 C589 1.433 . S
C588 C584 1.350 . S
C588 C585 1.463 . S
C588 N592 1.427 . S
C589 H579 0.929 . S
C589 C587 1.433 . S
C589 N592 1.384 . S
C590 H581 0.929 . S
C590 C582 1.378 . S
C590 C585 1.350 . S
C591 H578 0.929 . S
C591 C583 1.433 . S
C591 N593 1.384 . S
N592 C588 1.427 . S
N592 C589 1.384 . S
N593 C585 1.427 . S
N593 C591 1.384 . S
H594 C600 0.930 . S
H595 C604 0.930 . S
H596 C609 0.929 . S
H597 C607 0.929 . S
H598 C602 0.929 . S
H599 C608 0.929 . S
C600 H594 0.930 . S
C600 C601 1.367 . S
C600 C608 1.378 . S
C601 C600 1.367 . S
C601 C609 1.433 . S
C602 H598 0.929 . S
C602 C604 1.378 . S
C602 C606 1.350 . S
C603 C606 1.463 . S
C603 C608 1.350 . S
C603 N611 1.427 . S
C604 H595 0.930 . S
C604 C602 1.378 . S
C604 C605 1.367 . S
C605 C604 1.367 . S
C605 C607 1.433 . S
C606 C602 1.350 . S
C606 C603 1.463 . S
C606 N610 1.427 . S
C607 H597 0.929 . S
C607 C605 1.433 . S
C607 N610 1.384 . S
C608 H599 0.929 . S
C608 C600 1.378 . S
C608 C603 1.350 . S
C609 H596 0.929 . S
C609 C601 1.433 . S
C609 N611 1.384 . S
N610 C606 1.427 . S
N610 C607 1.384 . S
N611 C603 1.427 . S
N611 C609 1.384 . S
H612 C618 0.930 . S
H613 C622 0.930 . S
H614 C627 0.929 . S
H615 C625 0.929 . S
H616 C620 0.929 . S
H617 C626 0.929 . S
C618 H612 0.930 . S
C618 C619 1.367 . S
C618 C626 1.378 . S
C619 C618 1.367 . S
C619 C627 1.433 . S
C620 H616 0.929 . S
C620 C622 1.378 . S
C620 C624 1.350 . S
C621 C624 1.463 . S
C621 C626 1.350 . S
C621 N629 1.427 . S
C622 H613 0.930 . S
C622 C620 1.378 . S
C622 C623 1.367 . S
C623 C622 1.367 . S
C623 C625 1.433 . S
C624 C620 1.350 . S
C624 C621 1.463 . S
C624 N628 1.427 . S
C625 H615 0.929 . S
C625 C623 1.433 . S
C625 N628 1.384 . S
C626 H617 0.929 . S
C626 C618 1.378 . S
C626 C621 1.350 . S
C627 H614 0.929 . S
C627 C619 1.433 . S
C627 N629 1.384 . S
N628 C624 1.427 . S
N628 C625 1.384 . S
N629 C621 1.427 . S
N629 C627 1.384 . S
H630 C636 0.930 . S
H631 C640 0.930 . S
H632 C645 0.929 . S
H633 C643 0.929 . S
H634 C638 0.929 . S
H635 C644 0.929 . S
C636 H630 0.930 . S
C636 C637 1.367 . S
C636 C644 1.378 . S
C637 C636 1.367 . S
C637 C645 1.433 . S
C638 H634 0.929 . S
C638 C640 1.378 . S
C638 C642 1.350 . S
C639 C642 1.463 . S
C639 C644 1.350 . S
C639 N647 1.427 . S
C640 H631 0.930 . S
C640 C638 1.378 . S
C640 C641 1.367 . S
C641 C640 1.367 . S
C641 C643 1.433 . S
C642 C638 1.350 . S
C642 C639 1.463 . S
C642 N646 1.427 . S
C643 H633 0.929 . S
C643 C641 1.433 . S
C643 N646 1.384 . S
C644 H635 0.929 . S
C644 C636 1.378 . S
C644 C639 1.350 . S
C645 H632 0.929 . S
C645 C637 1.433 . S
C645 N647 1.384 . S
N646 C642 1.427 . S
N646 C643 1.384 . S
N647 C639 1.427 . S
N647 C645 1.384 . S
H648 C654 0.930 . S
H649 C658 0.930 . S
H650 C663 0.929 . S
H651 C661 0.929 . S
H652 C656 0.929 . S
H653 C662 0.929 . S
C654 H648 0.930 . S
C654 C655 1.367 . S
C654 C662 1.378 . S
C655 C654 1.367 . S
C655 C663 1.433 . S
C656 H652 0.929 . S
C656 C658 1.378 . S
C656 C660 1.350 . S
C657 C660 1.463 . S
C657 C662 1.350 . S
C657 N665 1.427 . S
C658 H649 0.930 . S
C658 C656 1.378 . S
C658 C659 1.367 . S
C659 C658 1.367 . S
C659 C661 1.433 . S
C660 C656 1.350 . S
C660 C657 1.463 . S
C660 N664 1.427 . S
C661 H651 0.929 . S
C661 C659 1.433 . S
C661 N664 1.384 . S
C662 H653 0.929 . S
C662 C654 1.378 . S
C662 C657 1.350 . S
C663 H650 0.929 . S
C663 C655 1.433 . S
C663 N665 1.384 . S
N664 C660 1.427 . S
N664 C661 1.384 . S
N665 C657 1.427 . S
N665 C663 1.384 . S
H666 C672 0.930 . S
H667 C676 0.930 . S
H668 C681 0.929 . S
H669 C679 0.929 . S
H670 C674 0.929 . S
H671 C680 0.929 . S
C672 H666 0.930 . S
C672 C673 1.367 . S
C672 C680 1.378 . S
C673 C672 1.367 . S
C673 C681 1.433 . S
C674 H670 0.929 . S
C674 C676 1.378 . S
C674 C678 1.350 . S
C675 C678 1.463 . S
C675 C680 1.350 . S
C675 N683 1.427 . S
C676 H667 0.930 . S
C676 C674 1.378 . S
C676 C677 1.367 . S
C677 C676 1.367 . S
C677 C679 1.433 . S
C678 C674 1.350 . S
C678 C675 1.463 . S
C678 N682 1.427 . S
C679 H669 0.929 . S
C679 C677 1.433 . S
C679 N682 1.384 . S
C680 H671 0.929 . S
C680 C672 1.378 . S
C680 C675 1.350 . S
C681 H668 0.929 . S
C681 C673 1.433 . S
C681 N683 1.384 . S
N682 C678 1.427 . S
N682 C679 1.384 . S
N683 C675 1.427 . S
N683 C681 1.384 . S
H684 C690 0.930 . S
H685 C694 0.930 . S
H686 C699 0.929 . S
H687 C697 0.929 . S
H688 C692 0.929 . S
H689 C698 0.929 . S
C690 H684 0.930 . S
C690 C691 1.367 . S
C690 C698 1.378 . S
C691 C690 1.367 . S
C691 C699 1.433 . S
C692 H688 0.929 . S
C692 C694 1.378 . S
C692 C696 1.350 . S
C693 C696 1.463 . S
C693 C698 1.350 . S
C693 N701 1.427 . S
C694 H685 0.930 . S
C694 C692 1.378 . S
C694 C695 1.367 . S
C695 C694 1.367 . S
C695 C697 1.433 . S
C696 C692 1.350 . S
C696 C693 1.463 . S
C696 N700 1.427 . S
C697 H687 0.929 . S
C697 C695 1.433 . S
C697 N700 1.384 . S
C698 H689 0.929 . S
C698 C690 1.378 . S
C698 C693 1.350 . S
C699 H686 0.929 . S
C699 C691 1.433 . S
C699 N701 1.384 . S
N700 C696 1.427 . S
N700 C697 1.384 . S
N701 C693 1.427 . S
N701 C699 1.384 . S
H702 C708 0.930 . S
H703 C712 0.930 . S
H704 C717 0.929 . S
H705 C715 0.929 . S
H706 C710 0.929 . S
H707 C716 0.929 . S
C708 H702 0.930 . S
C708 C709 1.367 . S
C708 C716 1.378 . S
C709 C708 1.367 . S
C709 C717 1.433 . S
C710 H706 0.929 . S
C710 C712 1.378 . S
C710 C714 1.350 . S
C711 C714 1.463 . S
C711 C716 1.350 . S
C711 N719 1.427 . S
C712 H703 0.930 . S
C712 C710 1.378 . S
C712 C713 1.367 . S
C713 C712 1.367 . S
C713 C715 1.433 . S
C714 C710 1.350 . S
C714 C711 1.463 . S
C714 N718 1.427 . S
C715 H705 0.929 . S
C715 C713 1.433 . S
C715 N718 1.384 . S
C716 H707 0.929 . S
C716 C708 1.378 . S
C716 C711 1.350 . S
C717 H704 0.929 . S
C717 C709 1.433 . S
C717 N719 1.384 . S
N718 C714 1.427 . S
N718 C715 1.384 . S
N719 C711 1.427 . S
N719 C717 1.384 . S
H720 C726 0.930 . S
H721 C730 0.930 . S
H722 C735 0.929 . S
H723 C733 0.929 . S
H724 C728 0.929 . S
H725 C734 0.929 . S
C726 H720 0.930 . S
C726 C727 1.367 . S
C726 C734 1.378 . S
C727 C726 1.367 . S
C727 C735 1.433 . S
C728 H724 0.929 . S
C728 C730 1.378 . S
C728 C732 1.350 . S
C729 C732 1.463 1_556 S
C729 C734 1.350 . S
C729 N737 1.427 . S
C730 H721 0.930 . S
C730 C728 1.378 . S
C730 C731 1.367 . S
C731 C730 1.367 . S
C731 C733 1.433 . S
C732 C728 1.350 . S
C732 C729 1.463 1_554 S
C732 N736 1.427 . S
C733 H723 0.929 . S
C733 C731 1.433 . S
C733 N736 1.384 . S
C734 H725 0.929 . S
C734 C726 1.378 . S
C734 C729 1.350 . S
C735 H722 0.929 . S
C735 C727 1.433 . S
C735 N737 1.384 . S
N736 C732 1.427 . S
N736 C733 1.384 . S
N737 C729 1.427 . S
N737 C735 1.384 . S
H738 C744 0.930 . S
H739 C748 0.930 . S
H740 C753 0.929 . S
H741 C751 0.929 . S
H742 C746 0.929 . S
H743 C752 0.929 . S
C744 H738 0.930 . S
C744 C745 1.367 . S
C744 C752 1.378 . S
C745 C744 1.367 . S
C745 C753 1.433 . S
C746 H742 0.929 . S
C746 C748 1.378 . S
C746 C750 1.350 . S
C747 C750 1.463 1_556 S
C747 C752 1.350 . S
C747 N755 1.427 . S
C748 H739 0.930 . S
C748 C746 1.378 . S
C748 C749 1.367 . S
C749 C748 1.367 . S
C749 C751 1.433 . S
C750 C746 1.350 . S
C750 C747 1.463 1_554 S
C750 N754 1.427 . S
C751 H741 0.929 . S
C751 C749 1.433 . S
C751 N754 1.384 . S
C752 H743 0.929 . S
C752 C744 1.378 . S
C752 C747 1.350 . S
C753 H740 0.929 . S
C753 C745 1.433 . S
C753 N755 1.384 . S
N754 C750 1.427 . S
N754 C751 1.384 . S
N755 C747 1.427 . S
N755 C753 1.384 . S
H756 C762 0.930 . S
H757 C766 0.930 . S
H758 C771 0.929 . S
H759 C769 0.929 . S
H760 C764 0.929 . S
H761 C770 0.929 . S
C762 H756 0.930 . S
C762 C763 1.367 . S
C762 C770 1.378 . S
C763 C762 1.367 . S
C763 C771 1.433 . S
C764 H760 0.929 . S
C764 C766 1.378 . S
C764 C768 1.350 . S
C765 C768 1.463 1_556 S
C765 C770 1.350 . S
C765 N773 1.427 . S
C766 H757 0.930 . S
C766 C764 1.378 . S
C766 C767 1.367 . S
C767 C766 1.367 . S
C767 C769 1.433 . S
C768 C764 1.350 . S
C768 C765 1.463 1_554 S
C768 N772 1.427 . S
C769 H759 0.929 . S
C769 C767 1.433 . S
C769 N772 1.384 . S
C770 H761 0.929 . S
C770 C762 1.378 . S
C770 C765 1.350 . S
C771 H758 0.929 . S
C771 C763 1.433 . S
C771 N773 1.384 . S
N772 C768 1.427 . S
N772 C769 1.384 . S
N773 C765 1.427 . S
N773 C771 1.384 . S
H774 C780 0.930 . S
H775 C784 0.930 . S
H776 C789 0.929 . S
H777 C787 0.929 . S
H778 C782 0.929 . S
H779 C788 0.929 . S
C780 H774 0.930 . S
C780 C781 1.367 . S
C780 C788 1.378 . S
C781 C780 1.367 . S
C781 C789 1.433 . S
C782 H778 0.929 . S
C782 C784 1.378 . S
C782 C786 1.350 . S
C783 C786 1.463 1_554 S
C783 C788 1.350 . S
C783 N791 1.427 . S
C784 H775 0.930 . S
C784 C782 1.378 . S
C784 C785 1.367 . S
C785 C784 1.367 . S
C785 C787 1.433 . S
C786 C782 1.350 . S
C786 C783 1.463 1_556 S
C786 N790 1.427 . S
C787 H777 0.929 . S
C787 C785 1.433 . S
C787 N790 1.384 . S
C788 H779 0.929 . S
C788 C780 1.378 . S
C788 C783 1.350 . S
C789 H776 0.929 . S
C789 C781 1.433 . S
C789 N791 1.384 . S
N790 C786 1.427 . S
N790 C787 1.384 . S
N791 C783 1.427 . S
N791 C789 1.384 . S
H792 C798 0.930 . S
H793 C802 0.930 . S
H794 C807 0.929 . S
H795 C805 0.929 . S
H796 C800 0.929 . S
H797 C806 0.929 . S
C798 H792 0.930 . S
C798 C799 1.367 . S
C798 C806 1.378 . S
C799 C798 1.367 . S
C799 C807 1.433 . S
C800 H796 0.929 . S
C800 C802 1.378 . S
C800 C804 1.350 . S
C801 C804 1.463 1_455 S
C801 C806 1.350 . S
C801 N809 1.427 . S
C802 H793 0.930 . S
C802 C800 1.378 . S
C802 C803 1.367 . S
C803 C802 1.367 . S
C803 C805 1.433 . S
C804 C800 1.350 . S
C804 C801 1.463 1_655 S
C804 N808 1.427 . S
C805 H795 0.929 . S
C805 C803 1.433 . S
C805 N808 1.384 . S
C806 H797 0.929 . S
C806 C798 1.378 . S
C806 C801 1.350 . S
C807 H794 0.929 . S
C807 C799 1.433 . S
C807 N809 1.384 . S
N808 C804 1.427 . S
N808 C805 1.384 . S
N809 C801 1.427 . S
N809 C807 1.384 . S
H810 C816 0.930 . S
H811 C820 0.930 . S
H812 C825 0.929 . S
H813 C823 0.929 . S
H814 C818 0.929 . S
H815 C824 0.929 . S
C816 H810 0.930 . S
C816 C817 1.367 . S
C816 C824 1.378 . S
C817 C816 1.367 . S
C817 C825 1.433 . S
C818 H814 0.929 . S
C818 C820 1.378 . S
C818 C822 1.350 . S
C819 C822 1.463 1_565 S
C819 C824 1.350 . S
C819 N827 1.427 . S
C820 H811 0.930 . S
C820 C818 1.378 . S
C820 C821 1.367 . S
C821 C820 1.367 . S
C821 C823 1.433 . S
C822 C818 1.350 . S
C822 C819 1.463 1_545 S
C822 N826 1.427 . S
C823 H813 0.929 . S
C823 C821 1.433 . S
C823 N826 1.384 . S
C824 H815 0.929 . S
C824 C816 1.378 . S
C824 C819 1.350 . S
C825 H812 0.929 . S
C825 C817 1.433 . S
C825 N827 1.384 . S
N826 C822 1.427 . S
N826 C823 1.384 . S
N827 C819 1.427 . S
N827 C825 1.384 . S
H828 C834 0.930 . S
H829 C838 0.930 . S
H830 C843 0.929 . S
H831 C841 0.929 . S
H832 C836 0.929 . S
H833 C842 0.929 . S
C834 H828 0.930 . S
C834 C835 1.367 . S
C834 C842 1.378 . S
C835 C834 1.367 . S
C835 C843 1.433 . S
C836 H832 0.929 . S
C836 C838 1.378 . S
C836 C840 1.350 . S
C837 C840 1.463 1_655 S
C837 C842 1.350 . S
C837 N845 1.427 . S
C838 H829 0.930 . S
C838 C836 1.378 . S
C838 C839 1.367 . S
C839 C838 1.367 . S
C839 C841 1.433 . S
C840 C836 1.350 . S
C840 C837 1.463 1_455 S
C840 N844 1.427 . S
C841 H831 0.929 . S
C841 C839 1.433 . S
C841 N844 1.384 . S
C842 H833 0.929 . S
C842 C834 1.378 . S
C842 C837 1.350 . S
C843 H830 0.929 . S
C843 C835 1.433 . S
C843 N845 1.384 . S
N844 C840 1.427 . S
N844 C841 1.384 . S
N845 C837 1.427 . S
N845 C843 1.384 . S
H846 C852 0.930 . S
H847 C856 0.930 . S
H848 C861 0.929 . S
H849 C859 0.929 . S
H850 C854 0.929 . S
H851 C860 0.929 . S
C852 H846 0.930 . S
C852 C853 1.367 . S
C852 C860 1.378 . S
C853 C852 1.367 . S
C853 C861 1.433 . S
C854 H850 0.929 . S
C854 C856 1.378 . S
C854 C858 1.350 . S
C855 C858 1.463 1_545 S
C855 C860 1.350 . S
C855 N863 1.427 . S
C856 H847 0.930 . S
C856 C854 1.378 . S
C856 C857 1.367 . S
C857 C856 1.367 . S
C857 C859 1.433 . S
C858 C854 1.350 . S
C858 C855 1.463 1_565 S
C858 N862 1.427 . S
C859 H849 0.929 . S
C859 C857 1.433 . S
C859 N862 1.384 . S
C860 H851 0.929 . S
C860 C852 1.378 . S
C860 C855 1.350 . S
C861 H848 0.929 . S
C861 C853 1.433 . S
C861 N863 1.384 . S
N862 C858 1.427 . S
N862 C859 1.384 . S
N863 C855 1.427 . S
N863 C861 1.384 . S
H864 C870 0.930 . S
H865 C874 0.930 . S
H866 C879 0.929 . S
H867 C877 0.929 . S
H868 C872 0.929 . S
H869 C878 0.929 . S
C870 H864 0.930 . S
C870 C871 1.367 . S
C870 C878 1.378 . S
C871 C870 1.367 . S
C871 C879 1.433 . S
C872 H868 0.929 . S
C872 C874 1.378 . S
C872 C876 1.350 . S
C873 C876 1.463 1_655 S
C873 C878 1.350 . S
C873 N881 1.427 . S
C874 H865 0.930 . S
C874 C872 1.378 . S
C874 C875 1.367 . S
C875 C874 1.367 . S
C875 C877 1.433 . S
C876 C872 1.350 . S
C876 C873 1.463 1_455 S
C876 N880 1.427 . S
C877 H867 0.929 . S
C877 C875 1.433 . S
C877 N880 1.384 . S
C878 H869 0.929 . S
C878 C870 1.378 . S
C878 C873 1.350 . S
C879 H866 0.929 . S
C879 C871 1.433 . S
C879 N881 1.384 . S
N880 C876 1.427 . S
N880 C877 1.384 . S
N881 C873 1.427 . S
N881 C879 1.384 . S
H882 C888 0.930 . S
H883 C892 0.930 . S
H884 C897 0.929 . S
H885 C895 0.929 . S
H886 C890 0.929 . S
H887 C896 0.929 . S
C888 H882 0.930 . S
C888 C889 1.367 . S
C888 C896 1.378 . S
C889 C888 1.367 . S
C889 C897 1.433 . S
C890 H886 0.929 . S
C890 C892 1.378 . S
C890 C894 1.350 . S
C891 C894 1.463 1_565 S
C891 C896 1.350 . S
C891 N899 1.427 . S
C892 H883 0.930 . S
C892 C890 1.378 . S
C892 C893 1.367 . S
C893 C892 1.367 . S
C893 C895 1.433 . S
C894 C890 1.350 . S
C894 C891 1.463 1_545 S
C894 N898 1.427 . S
C895 H885 0.929 . S
C895 C893 1.433 . S
C895 N898 1.384 . S
C896 H887 0.929 . S
C896 C888 1.378 . S
C896 C891 1.350 . S
C897 H884 0.929 . S
C897 C889 1.433 . S
C897 N899 1.384 . S
N898 C894 1.427 . S
N898 C895 1.384 . S
N899 C891 1.427 . S
N899 C897 1.384 . S
H900 C906 0.930 . S
H901 C910 0.930 . S
H902 C915 0.929 . S
H903 C913 0.929 . S
H904 C908 0.929 . S
H905 C914 0.929 . S
C906 H900 0.930 . S
C906 C907 1.367 . S
C906 C914 1.378 . S
C907 C906 1.367 . S
C907 C915 1.433 . S
C908 H904 0.929 . S
C908 C910 1.378 . S
C908 C912 1.350 . S
C909 C912 1.463 1_455 S
C909 C914 1.350 . S
C909 N917 1.427 . S
C910 H901 0.930 . S
C910 C908 1.378 . S
C910 C911 1.367 . S
C911 C910 1.367 . S
C911 C913 1.433 . S
C912 C908 1.350 . S
C912 C909 1.463 1_655 S
C912 N916 1.427 . S
C913 H903 0.929 . S
C913 C911 1.433 . S
C913 N916 1.384 . S
C914 H905 0.929 . S
C914 C906 1.378 . S
C914 C909 1.350 . S
C915 H902 0.929 . S
C915 C907 1.433 . S
C915 N917 1.384 . S
N916 C912 1.427 . S
N916 C913 1.384 . S
N917 C909 1.427 . S
N917 C915 1.384 . S
H918 C924 0.930 . S
H919 C928 0.930 . S
H920 C933 0.929 . S
H921 C931 0.929 . S
H922 C926 0.929 . S
H923 C932 0.929 . S
C924 H918 0.930 . S
C924 C925 1.367 . S
C924 C932 1.378 . S
C925 C924 1.367 . S
C925 C933 1.433 . S
C926 H922 0.929 . S
C926 C928 1.378 . S
C926 C930 1.350 . S
C927 C930 1.463 1_565 S
C927 C932 1.350 . S
C927 N935 1.427 . S
C928 H919 0.930 . S
C928 C926 1.378 . S
C928 C929 1.367 . S
C929 C928 1.367 . S
C929 C931 1.433 . S
C930 C926 1.350 . S
C930 C927 1.463 1_545 S
C930 N934 1.427 . S
C931 H921 0.929 . S
C931 C929 1.433 . S
C931 N934 1.384 . S
C932 H923 0.929 . S
C932 C924 1.378 . S
C932 C927 1.350 . S
C933 H920 0.929 . S
C933 C925 1.433 . S
C933 N935 1.384 . S
N934 C930 1.427 . S
N934 C931 1.384 . S
N935 C927 1.427 . S
N935 C933 1.384 . S
H936 C942 0.930 . S
H937 C946 0.930 . S
H938 C951 0.929 . S
H939 C949 0.929 . S
H940 C944 0.929 . S
H941 C950 0.929 . S
C942 H936 0.930 . S
C942 C943 1.367 . S
C942 C950 1.378 . S
C943 C942 1.367 . S
C943 C951 1.433 . S
C944 H940 0.929 . S
C944 C946 1.378 . S
C944 C948 1.350 . S
C945 C948 1.463 . S
C945 C950 1.350 . S
C945 N953 1.427 . S
C946 H937 0.930 . S
C946 C944 1.378 . S
C946 C947 1.367 . S
C947 C946 1.367 . S
C947 C949 1.433 . S
C948 C944 1.350 . S
C948 C945 1.463 . S
C948 N952 1.427 . S
C949 H939 0.929 . S
C949 C947 1.433 . S
C949 N952 1.384 . S
C950 H941 0.929 . S
C950 C942 1.378 . S
C950 C945 1.350 . S
C951 H938 0.929 . S
C951 C943 1.433 . S
C951 N953 1.384 . S
N952 C948 1.427 . S
N952 C949 1.384 . S
N953 C945 1.427 . S
N953 C951 1.384 . S
H954 C960 0.930 . S
H955 C964 0.930 . S
H956 C969 0.929 . S
H957 C967 0.929 . S
H958 C962 0.929 . S
H959 C968 0.929 . S
C960 H954 0.930 . S
C960 C961 1.367 . S
C960 C968 1.378 . S
C961 C960 1.367 . S
C961 C969 1.433 . S
C962 H958 0.929 . S
C962 C964 1.378 . S
C962 C966 1.350 . S
C963 C966 1.463 . S
C963 C968 1.350 . S
C963 N971 1.427 . S
C964 H955 0.930 . S
C964 C962 1.378 . S
C964 C965 1.367 . S
C965 C964 1.367 . S
C965 C967 1.433 . S
C966 C962 1.350 . S
C966 C963 1.463 . S
C966 N970 1.427 . S
C967 H957 0.929 . S
C967 C965 1.433 . S
C967 N970 1.384 . S
C968 H959 0.929 . S
C968 C960 1.378 . S
C968 C963 1.350 . S
C969 H956 0.929 . S
C969 C961 1.433 . S
C969 N971 1.384 . S
N970 C966 1.427 . S
N970 C967 1.384 . S
N971 C963 1.427 . S
N971 C969 1.384 . S
H972 C978 0.930 . S
H973 C982 0.930 . S
H974 C987 0.929 . S
H975 C985 0.929 . S
H976 C980 0.929 . S
H977 C986 0.929 . S
C978 H972 0.930 . S
C978 C979 1.367 . S
C978 C986 1.378 . S
C979 C978 1.367 . S
C979 C987 1.433 . S
C980 H976 0.929 . S
C980 C982 1.378 . S
C980 C984 1.350 . S
C981 C984 1.463 . S
C981 C986 1.350 . S
C981 N989 1.427 . S
C982 H973 0.930 . S
C982 C980 1.378 . S
C982 C983 1.367 . S
C983 C982 1.367 . S
C983 C985 1.433 . S
C984 C980 1.350 . S
C984 C981 1.463 . S
C984 N988 1.427 . S
C985 H975 0.929 . S
C985 C983 1.433 . S
C985 N988 1.384 . S
C986 H977 0.929 . S
C986 C978 1.378 . S
C986 C981 1.350 . S
C987 H974 0.929 . S
C987 C979 1.433 . S
C987 N989 1.384 . S
N988 C984 1.427 . S
N988 C985 1.384 . S
N989 C981 1.427 . S
N989 C987 1.384 . S
H990 C996 0.930 . S
H991 C1000 0.930 . S
H992 C1005 0.929 . S
H993 C1003 0.929 . S
H994 C998 0.929 . S
H995 C1004 0.929 . S
C996 H990 0.930 . S
C996 C997 1.367 . S
C996 C1004 1.378 . S
C997 C996 1.367 . S
C997 C1005 1.433 . S
C998 H994 0.929 . S
C998 C1000 1.378 . S
C998 C1002 1.350 . S
C999 C1002 1.463 . S
C999 C1004 1.350 . S
C999 N1007 1.427 . S
C1000 H991 0.930 . S
C1000 C998 1.378 . S
C1000 C1001 1.367 . S
C1001 C1000 1.367 . S
C1001 C1003 1.433 . S
C1002 C998 1.350 . S
C1002 C999 1.463 . S
C1002 N1006 1.427 . S
C1003 H993 0.929 . S
C1003 C1001 1.433 . S
C1003 N1006 1.384 . S
C1004 H995 0.929 . S
C1004 C996 1.378 . S
C1004 C999 1.350 . S
C1005 H992 0.929 . S
C1005 C997 1.433 . S
C1005 N1007 1.384 . S
N1006 C1002 1.427 . S
N1006 C1003 1.384 . S
N1007 C999 1.427 . S
N1007 C1005 1.384 . S
H1008 C1014 0.930 . S
H1009 C1018 0.930 . S
H1010 C1023 0.929 . S
H1011 C1021 0.929 . S
H1012 C1016 0.929 . S
H1013 C1022 0.929 . S
C1014 H1008 0.930 . S
C1014 C1015 1.367 . S
C1014 C1022 1.378 . S
C1015 C1014 1.367 . S
C1015 C1023 1.433 . S
C1016 H1012 0.929 . S
C1016 C1018 1.378 . S
C1016 C1020 1.350 . S
C1017 C1020 1.463 . S
C1017 C1022 1.350 . S
C1017 N1025 1.427 . S
C1018 H1009 0.930 . S
C1018 C1016 1.378 . S
C1018 C1019 1.367 . S
C1019 C1018 1.367 . S
C1019 C1021 1.433 . S
C1020 C1016 1.350 . S
C1020 C1017 1.463 . S
C1020 N1024 1.427 . S
C1021 H1011 0.929 . S
C1021 C1019 1.433 . S
C1021 N1024 1.384 . S
C1022 H1013 0.929 . S
C1022 C1014 1.378 . S
C1022 C1017 1.350 . S
C1023 H1010 0.929 . S
C1023 C1015 1.433 . S
C1023 N1025 1.384 . S
N1024 C1020 1.427 . S
N1024 C1021 1.384 . S
N1025 C1017 1.427 . S
N1025 C1023 1.384 . S
H1026 C1032 0.930 . S
H1027 C1036 0.930 . S
H1028 C1041 0.929 . S
H1029 C1039 0.929 . S
H1030 C1034 0.929 . S
H1031 C1040 0.929 . S
C1032 H1026 0.930 . S
C1032 C1033 1.367 . S
C1032 C1040 1.378 . S
C1033 C1032 1.367 . S
C1033 C1041 1.433 . S
C1034 H1030 0.929 . S
C1034 C1036 1.378 . S
C1034 C1038 1.350 . S
C1035 C1038 1.463 . S
C1035 C1040 1.350 . S
C1035 N1043 1.427 . S
C1036 H1027 0.930 . S
C1036 C1034 1.378 . S
C1036 C1037 1.367 . S
C1037 C1036 1.367 . S
C1037 C1039 1.433 . S
C1038 C1034 1.350 . S
C1038 C1035 1.463 . S
C1038 N1042 1.427 . S
C1039 H1029 0.929 . S
C1039 C1037 1.433 . S
C1039 N1042 1.384 . S
C1040 H1031 0.929 . S
C1040 C1032 1.378 . S
C1040 C1035 1.350 . S
C1041 H1028 0.929 . S
C1041 C1033 1.433 . S
C1041 N1043 1.384 . S
N1042 C1038 1.427 . S
N1042 C1039 1.384 . S
N1043 C1035 1.427 . S
N1043 C1041 1.384 . S
H1044 C1050 0.930 . S
H1045 C1054 0.930 . S
H1046 C1059 0.929 . S
H1047 C1057 0.929 . S
H1048 C1052 0.929 . S
H1049 C1058 0.929 . S
C1050 H1044 0.930 . S
C1050 C1051 1.367 . S
C1050 C1058 1.378 . S
C1051 C1050 1.367 . S
C1051 C1059 1.433 . S
C1052 H1048 0.929 . S
C1052 C1054 1.378 . S
C1052 C1056 1.350 . S
C1053 C1056 1.463 . S
C1053 C1058 1.350 . S
C1053 N1061 1.427 . S
C1054 H1045 0.930 . S
C1054 C1052 1.378 . S
C1054 C1055 1.367 . S
C1055 C1054 1.367 . S
C1055 C1057 1.433 . S
C1056 C1052 1.350 . S
C1056 C1053 1.463 . S
C1056 N1060 1.427 . S
C1057 H1047 0.929 . S
C1057 C1055 1.433 . S
C1057 N1060 1.384 . S
C1058 H1049 0.929 . S
C1058 C1050 1.378 . S
C1058 C1053 1.350 . S
C1059 H1046 0.929 . S
C1059 C1051 1.433 . S
C1059 N1061 1.384 . S
N1060 C1056 1.427 . S
N1060 C1057 1.384 . S
N1061 C1053 1.427 . S
N1061 C1059 1.384 . S
H1062 C1068 0.930 . S
H1063 C1072 0.930 . S
H1064 C1077 0.929 . S
H1065 C1075 0.929 . S
H1066 C1070 0.929 . S
H1067 C1076 0.929 . S
C1068 H1062 0.930 . S
C1068 C1069 1.367 . S
C1068 C1076 1.378 . S
C1069 C1068 1.367 . S
C1069 C1077 1.433 . S
C1070 H1066 0.929 . S
C1070 C1072 1.378 . S
C1070 C1074 1.350 . S
C1071 C1074 1.463 . S
C1071 C1076 1.350 . S
C1071 N1079 1.427 . S
C1072 H1063 0.930 . S
C1072 C1070 1.378 . S
C1072 C1073 1.367 . S
C1073 C1072 1.367 . S
C1073 C1075 1.433 . S
C1074 C1070 1.350 . S
C1074 C1071 1.463 . S
C1074 N1078 1.427 . S
C1075 H1065 0.929 . S
C1075 C1073 1.433 . S
C1075 N1078 1.384 . S
C1076 H1067 0.929 . S
C1076 C1068 1.378 . S
C1076 C1071 1.350 . S
C1077 H1064 0.929 . S
C1077 C1069 1.433 . S
C1077 N1079 1.384 . S
N1078 C1074 1.427 . S
N1078 C1075 1.384 . S
N1079 C1071 1.427 . S
N1079 C1077 1.384 . S
H1080 C1086 0.930 . S
H1081 C1090 0.930 . S
H1082 C1095 0.929 . S
H1083 C1093 0.929 . S
H1084 C1088 0.929 . S
H1085 C1094 0.929 . S
C1086 H1080 0.930 . S
C1086 C1087 1.367 . S
C1086 C1094 1.378 . S
C1087 C1086 1.367 . S
C1087 C1095 1.433 . S
C1088 H1084 0.929 . S
C1088 C1090 1.378 . S
C1088 C1092 1.350 . S
C1089 C1092 1.463 . S
C1089 C1094 1.350 . S
C1089 N1097 1.427 . S
C1090 H1081 0.930 . S
C1090 C1088 1.378 . S
C1090 C1091 1.367 . S
C1091 C1090 1.367 . S
C1091 C1093 1.433 . S
C1092 C1088 1.350 . S
C1092 C1089 1.463 . S
C1092 N1096 1.427 . S
C1093 H1083 0.929 . S
C1093 C1091 1.433 . S
C1093 N1096 1.384 . S
C1094 H1085 0.929 . S
C1094 C1086 1.378 . S
C1094 C1089 1.350 . S
C1095 H1082 0.929 . S
C1095 C1087 1.433 . S
C1095 N1097 1.384 . S
N1096 C1092 1.427 . S
N1096 C1093 1.384 . S
N1097 C1089 1.427 . S
N1097 C1095 1.384 . S
H1098 C1104 0.930 . S
H1099 C1108 0.930 . S
H1100 C1113 0.929 . S
H1101 C1111 0.929 . S
H1102 C1106 0.929 . S
H1103 C1112 0.929 . S
C1104 H1098 0.930 . S
C1104 C1105 1.367 . S
C1104 C1112 1.378 . S
C1105 C1104 1.367 . S
C1105 C1113 1.433 . S
C1106 H1102 0.929 . S
C1106 C1108 1.378 . S
C1106 C1110 1.350 . S
C1107 C1110 1.463 . S
C1107 C1112 1.350 . S
C1107 N1115 1.427 . S
C1108 H1099 0.930 . S
C1108 C1106 1.378 . S
C1108 C1109 1.367 . S
C1109 C1108 1.367 . S
C1109 C1111 1.433 . S
C1110 C1106 1.350 . S
C1110 C1107 1.463 . S
C1110 N1114 1.427 . S
C1111 H1101 0.929 . S
C1111 C1109 1.433 . S
C1111 N1114 1.384 . S
C1112 H1103 0.929 . S
C1112 C1104 1.378 . S
C1112 C1107 1.350 . S
C1113 H1100 0.929 . S
C1113 C1105 1.433 . S
C1113 N1115 1.384 . S
N1114 C1110 1.427 . S
N1114 C1111 1.384 . S
N1115 C1107 1.427 . S
N1115 C1113 1.384 . S
H1116 C1122 0.930 . S
H1117 C1126 0.930 . S
H1118 C1131 0.929 . S
H1119 C1129 0.929 . S
H1120 C1124 0.929 . S
H1121 C1130 0.929 . S
C1122 H1116 0.930 . S
C1122 C1123 1.367 . S
C1122 C1130 1.378 . S
C1123 C1122 1.367 . S
C1123 C1131 1.433 . S
C1124 H1120 0.929 . S
C1124 C1126 1.378 . S
C1124 C1128 1.350 . S
C1125 C1128 1.463 . S
C1125 C1130 1.350 . S
C1125 N1133 1.427 . S
C1126 H1117 0.930 . S
C1126 C1124 1.378 . S
C1126 C1127 1.367 . S
C1127 C1126 1.367 . S
C1127 C1129 1.433 . S
C1128 C1124 1.350 . S
C1128 C1125 1.463 . S
C1128 N1132 1.427 . S
C1129 H1119 0.929 . S
C1129 C1127 1.433 . S
C1129 N1132 1.384 . S
C1130 H1121 0.929 . S
C1130 C1122 1.378 . S
C1130 C1125 1.350 . S
C1131 H1118 0.929 . S
C1131 C1123 1.433 . S
C1131 N1133 1.384 . S
N1132 C1128 1.427 . S
N1132 C1129 1.384 . S
N1133 C1125 1.427 . S
N1133 C1131 1.384 . S
H1134 C1140 0.930 . S
H1135 C1144 0.930 . S
H1136 C1149 0.929 . S
H1137 C1147 0.929 . S
H1138 C1142 0.929 . S
H1139 C1148 0.929 . S
C1140 H1134 0.930 . S
C1140 C1141 1.367 . S
C1140 C1148 1.378 . S
C1141 C1140 1.367 . S
C1141 C1149 1.433 . S
C1142 H1138 0.929 . S
C1142 C1144 1.378 . S
C1142 C1146 1.350 . S
C1143 C1146 1.463 . S
C1143 C1148 1.350 . S
C1143 N1151 1.427 . S
C1144 H1135 0.930 . S
C1144 C1142 1.378 . S
C1144 C1145 1.367 . S
C1145 C1144 1.367 . S
C1145 C1147 1.433 . S
C1146 C1142 1.350 . S
C1146 C1143 1.463 . S
C1146 N1150 1.427 . S
C1147 H1137 0.929 . S
C1147 C1145 1.433 . S
C1147 N1150 1.384 . S
C1148 H1139 0.929 . S
C1148 C1140 1.378 . S
C1148 C1143 1.350 . S
C1149 H1136 0.929 . S
C1149 C1141 1.433 . S
C1149 N1151 1.384 . S
N1150 C1146 1.427 . S
N1150 C1147 1.384 . S
N1151 C1143 1.427 . S
N1151 C1149 1.384 . S
C583 C544 0.994 . S
C587 C4 0.993 . S
C601 C436 1.000 . S
C605 C40 1.001 . S
C619 C76 0.994 . S
C623 C472 0.993 . S
C637 C508 1.002 . S
C641 C112 1.002 . S
C655 C328 0.996 . S
C659 C148 0.995 . S
C673 C184 1.001 . S
C677 C364 1.002 . S
C691 C220 1.003 . S
C695 C400 1.004 . S
C709 C256 0.996 . S
C713 C292 0.995 . S
C727 C183 1.446 . S
C731 C14 1.378 . S
C745 C230 1.380 . S
C749 C39 1.447 . S
C763 C255 1.448 . S
C767 C86 1.391 . S
C781 C111 1.446 . S
C785 C158 1.378 . S
C799 C2 1.547 . S
C803 C38 1.549 . S
C817 C75 1.446 . S
C821 C50 1.377 . S
C835 C74 1.549 . S
C839 C110 1.547 . S
C853 C3 1.446 . S
C857 C122 1.376 . S
C871 C254 1.547 . S
C875 C146 1.549 . S
C889 C147 1.447 . S
C893 C194 1.385 . S
C907 C182 1.547 . S
C911 C218 1.550 . S
C925 C266 1.393 . S
C929 C219 1.448 . S
C943 C471 1.446 . S
C947 C302 1.379 . S
C961 C327 1.448 . S
C965 C518 1.393 . S
C979 C543 1.448 . S
C983 C374 1.393 . S
C997 C446 1.376 . S
C1001 C399 1.446 . S
C1015 C290 1.549 . S
C1019 C326 1.547 . S
C1033 C338 1.383 . S
C1037 C363 1.447 . S
C1051 C398 1.548 . S
C1055 C362 1.548 . S
C1069 C291 1.447 . S
C1073 C410 1.382 . S
C1087 C542 1.547 . S
C1091 C434 1.550 . S
C1105 C435 1.448 . S
C1109 C482 1.391 . S
C1123 C470 1.547 . S
C1127 C506 1.548 . S
C1141 C554 1.382 . S
C1145 C507 1.447 . S
