# Generated by pormake.
# Topology smc, (6)-cn, num edge types: 1
# Building blocks:
#     Node 0, Type 0, BuildingBlock: PAMTUU_clean_sbu_0, # of connection points: 6
#     Node 1, Type 0, BuildingBlock: PAMTUU_clean_sbu_0, # of connection points: 6
#     Node 2, Type 0, BuildingBlock: PAMTUU_clean_sbu_0, # of connection points: 6
#     Node 3, Type 0, BuildingBlock: PAMTUU_clean_sbu_0, # of connection points: 6
#     Node 4, Type 0, BuildingBlock: PAMTUU_clean_sbu_0, # of connection points: 6
#     Node 5, Type 0, BuildingBlock: PAMTUU_clean_sbu_0, # of connection points: 6
#     Node 6, Type 0, BuildingBlock: PAMTUU_clean_sbu_0, # of connection points: 6
#     Node 7, Type 0, BuildingBlock: PAMTUU_clean_sbu_0, # of connection points: 6
#     Node 8, Type 0, BuildingBlock: PAMTUU_clean_sbu_0, # of connection points: 6
#     Edge 9, Type (0, 0), BuildingBlock: OJICUG_clean_linker_0, # of connection points: 2
#     Edge 10, Type (0, 0), BuildingBlock: OJICUG_clean_linker_0, # of connection points: 2
#     Edge 11, Type (0, 0), BuildingBlock: OJICUG_clean_linker_0, # of connection points: 2
#     Edge 12, Type (0, 0), BuildingBlock: OJICUG_clean_linker_0, # of connection points: 2
#     Edge 13, Type (0, 0), BuildingBlock: OJICUG_clean_linker_0, # of connection points: 2
#     Edge 14, Type (0, 0), BuildingBlock: OJICUG_clean_linker_0, # of connection points: 2
#     Edge 15, Type (0, 0), BuildingBlock: OJICUG_clean_linker_0, # of connection points: 2
#     Edge 16, Type (0, 0), BuildingBlock: OJICUG_clean_linker_0, # of connection points: 2
#     Edge 17, Type (0, 0), BuildingBlock: OJICUG_clean_linker_0, # of connection points: 2
#     Edge 18, Type (0, 0), BuildingBlock: OJICUG_clean_linker_0, # of connection points: 2
#     Edge 19, Type (0, 0), BuildingBlock: OJICUG_clean_linker_0, # of connection points: 2
#     Edge 20, Type (0, 0), BuildingBlock: OJICUG_clean_linker_0, # of connection points: 2
#     Edge 21, Type (0, 0), BuildingBlock: OJICUG_clean_linker_0, # of connection points: 2
#     Edge 22, Type (0, 0), BuildingBlock: OJICUG_clean_linker_0, # of connection points: 2
#     Edge 23, Type (0, 0), BuildingBlock: OJICUG_clean_linker_0, # of connection points: 2
#     Edge 24, Type (0, 0), BuildingBlock: OJICUG_clean_linker_0, # of connection points: 2
#     Edge 25, Type (0, 0), BuildingBlock: OJICUG_clean_linker_0, # of connection points: 2
#     Edge 26, Type (0, 0), BuildingBlock: OJICUG_clean_linker_0, # of connection points: 2
#     Edge 27, Type (0, 0), BuildingBlock: OJICUG_clean_linker_0, # of connection points: 2
#     Edge 28, Type (0, 0), BuildingBlock: OJICUG_clean_linker_0, # of connection points: 2
#     Edge 29, Type (0, 0), BuildingBlock: OJICUG_clean_linker_0, # of connection points: 2
#     Edge 30, Type (0, 0), BuildingBlock: OJICUG_clean_linker_0, # of connection points: 2
#     Edge 31, Type (0, 0), BuildingBlock: OJICUG_clean_linker_0, # of connection points: 2
#     Edge 32, Type (0, 0), BuildingBlock: OJICUG_clean_linker_0, # of connection points: 2
#     Edge 33, Type (0, 0), BuildingBlock: OJICUG_clean_linker_0, # of connection points: 2
#     Edge 34, Type (0, 0), BuildingBlock: OJICUG_clean_linker_0, # of connection points: 2
#     Edge 35, Type (0, 0), BuildingBlock: OJICUG_clean_linker_0, # of connection points: 2
# Relax obj value: 0.411
# Max RMSD: 0.388
# Mean RMSD: 0.339
data_MOF--net-smc--node1-PAMTUU_clean_sbu_0--edge1-OJICUG_clean_linker_0
_symmetry_space_group_name_H-M    P1
_symmetry_Int_Tables_number       1
_symmetry_cell_setting            triclinic
loop_
_symmetry_equiv_pos_as_xyz
'x, y, z'
_cell_length_a     33.867112
_cell_length_b     23.50316
_cell_length_c     28.184435
_cell_angle_alpha  92.280045
_cell_angle_beta   89.153738
_cell_angle_gamma 118.82801
loop_
_atom_site_label
_atom_site_type_symbol
_atom_site_fract_x
_atom_site_fract_y
_atom_site_fract_z
_atom_type_partial_charge
Tb0 Tb 0.10641 0.39825 0.02214 0.0
Tb1 Tb 1.08659 0.50788 0.06723 0.0
C2 C 1.0414 0.43539 0.96916 0.0
C3 C 0.16996 0.33247 0.96001 0.0
C4 C 0.24755 0.38775 0.9046 0.0
C5 C 0.2084 0.33458 0.88621 0.0
C6 C 0.16944 0.30716 0.91388 0.0
C7 C 0.21039 0.38233 0.97931 0.0
C8 C 0.24886 0.40971 0.95175 0.0
C9 C 0.12758 0.3184 0.98327 0.0
O10 O 0.17066 0.49195 0.02074 0.0
O11 O 0.1373 0.5546 0.01381 0.0
O12 O 0.14057 0.5047 0.10899 0.0
O13 O 0.11413 0.39671 0.09846 0.0
O14 O 1.07799 0.59022 0.0635 0.0
O15 O 1.08548 0.55606 0.13105 0.0
O16 O 1.03337 0.41957 0.09569 0.0
O17 O 1.03571 0.34427 0.04282 0.0
O18 O 1.07601 0.42471 0.96523 0.0
O19 O 1.03555 0.46246 1.00894 0.0
C20 C 0.17354 0.54851 1.01158 0.0
O21 O 0.12956 0.33045 0.02892 0.0
O22 O 0.10526 0.34204 0.96198 0.0
C23 C 0.13833 0.45055 0.12332 0.0
C24 C 1.04315 0.61054 0.13026 0.0
C25 C 0.97924 0.64552 0.16448 0.0
C26 C 1.02306 0.67588 0.18364 0.0
C27 C 1.05482 0.65854 0.1665 0.0
C28 C 0.99878 0.57699 0.11328 0.0
C29 C 0.96708 0.59449 0.13014 0.0
C30 C 1.07819 0.59809 0.1096 0.0
C31 C 1.01501 0.36079 0.07604 0.0
H32 H 0.20732 0.31664 0.85004 0.0
H33 H 0.13831 0.26926 0.89831 0.0
H34 H 0.21165 0.40333 0.01456 0.0
H35 H 0.27928 0.45012 0.96659 0.0
H36 H 1.03329 0.71475 0.21045 0.0
H37 H 1.08891 0.68411 0.18043 0.0
H38 H 0.98916 0.53919 0.08567 0.0
H39 H 0.93388 0.57066 0.11401 0.0
Tb40 Tb 0.6944 0.70859 0.01956 0.0
Tb41 Tb 0.61049 0.65248 0.98198 0.0
C42 C 0.62896 0.67334 0.09672 0.0
C43 C 0.80747 0.76705 0.07008 0.0
C44 C 0.86303 0.74709 0.13259 0.0
C45 C 0.81684 0.72159 0.14215 0.0
C46 C 0.78919 0.73134 0.11098 0.0
C47 C 0.85378 0.79579 0.0619 0.0
C48 C 0.88142 0.78598 0.09291 0.0
C49 C 0.77815 0.77106 0.03442 0.0
O50 O 0.67133 0.59749 0.02733 0.0
O51 O 0.59924 0.55689 1.00229 0.0
O52 O 0.67921 0.69213 0.9459 0.0
O53 O 0.67595 0.69001 0.9439 0.0
O54 O 0.55015 0.57768 0.95439 0.0
O55 O 0.59038 0.66514 0.91473 0.0
O56 O 0.59864 0.733 1.00082 0.0
O57 O 0.67236 0.79056 0.0217 0.0
O58 O 0.6657 0.67248 0.08551 0.0
O59 O 0.60184 0.67122 0.06147 0.0
C60 C 0.63036 0.54476 0.01828 0.0
O61 O 0.75889 0.72103 1.00496 0.0
O62 O 0.74983 0.78968 0.05061 0.0
C63 C 0.69372 0.70392 0.90094 0.0
C64 C 0.51388 0.5993 0.89268 0.0
C65 C 0.42578 0.55027 0.8598 0.0
C66 C 0.4568 0.53959 0.83277 0.0
C67 C 0.50079 0.56423 0.84918 0.0
C68 C 0.48454 0.61599 0.91722 0.0
C69 C 0.44058 0.59183 0.9006 0.0
C70 C 0.55488 0.60757 0.91476 0.0
C71 C 0.6322 0.78923 0.01419 0.0
H72 H 0.8018 0.6918 0.17252 0.0
H73 H 0.75335 0.70907 0.11785 0.0
H74 H 0.86826 0.82345 0.03044 0.0
H75 H 0.91667 0.80534 0.08392 0.0
H76 H 0.44598 0.50768 0.8013 0.0
H77 H 0.52345 0.55131 0.82991 0.0
H78 H 0.49445 0.64309 0.9509 0.0
H79 H 0.41705 0.60012 0.92232 0.0
Tb80 Tb 0.51879 0.08391 0.0352 0.0
Tb81 Tb 0.615 0.15995 0.05211 0.0
C82 C 0.57186 0.12842 0.94576 0.0
C83 C 0.40073 0.93885 0.03578 0.0
C84 C 0.33253 0.80591 0.02082 0.0
C85 C 0.34728 0.84973 0.98341 0.0
C86 C 0.38079 0.91505 0.99075 0.0
C87 C 0.38626 0.89497 0.07306 0.0
C88 C 0.35297 0.82967 0.06568 0.0
C89 C 0.43448 1.00927 0.04532 0.0
O90 O 0.54321 1.00657 0.03214 0.0
O91 O 0.61886 1.07285 0.02778 0.0
O92 O 0.55395 0.1232 0.10052 0.0
O93 O 0.55626 0.12517 0.10167 0.0
O94 O 0.68203 0.23322 0.05326 0.0
O95 O 0.65529 0.1646 0.1101 0.0
O96 O 0.60998 0.24766 0.05356 0.0
O97 O 0.53686 0.19521 0.02739 0.0
O98 O 0.53797 1.07853 0.96394 0.0
O99 O 0.60566 0.17058 0.9739 0.0
C100 C 0.58508 1.01329 0.02788 0.0
O101 O 0.46479 1.0214 0.07771 0.0
O102 O 0.45205 1.0473 1.00951 0.0
C103 C 0.54442 0.12555 0.14649 0.0
C104 C 0.73345 0.20867 0.09183 0.0
C105 C 0.82239 0.22744 0.09405 0.0
C106 C 0.79827 0.22121 0.1364 0.0
C107 C 0.75436 0.21232 0.13526 0.0
C108 C 0.75599 0.20952 0.04938 0.0
C109 C 0.80004 0.21902 0.05048 0.0
C110 C 0.69116 0.21245 0.09181 0.0
C111 C 0.57562 0.25246 0.0382 0.0
H112 H 0.3328 0.83359 0.94823 0.0
H113 H 0.39063 0.94707 0.96116 0.0
H114 H 0.40019 0.91144 0.10844 0.0
H115 H 0.34222 0.79833 0.09569 0.0
H116 H 0.814 0.22605 0.17058 0.0
H117 H 0.73754 0.21144 0.16844 0.0
H118 H 0.74057 0.2064 0.01529 0.0
H119 H 0.81746 0.22399 0.01711 0.0
Tb120 Tb 0.77809 0.79098 0.35118 0.0
Tb121 Tb 0.70862 0.85169 0.39214 0.0
C122 C 0.70138 0.77862 0.2829 0.0
C123 C 0.91309 0.83371 0.33853 0.0
C124 C 1.01391 0.8833 0.3347 0.0
C125 C 0.98084 0.81598 0.3287 0.0
C126 C 0.93254 0.79224 0.33036 0.0
C127 C 0.94601 0.90078 0.34417 0.0
C128 C 0.99411 0.92453 0.34208 0.0
C129 C 0.86044 0.80964 0.34373 0.0
O130 O 0.78896 0.88084 0.32035 0.0
O131 O 0.77504 0.92936 0.3842 0.0
O132 O 0.75969 0.86818 0.45009 0.0
O133 O 0.76752 0.78052 0.42669 0.0
O134 O 0.69139 0.92516 0.38016 0.0
O135 O 0.65618 0.85519 0.43328 0.0
O136 O 0.67936 0.75522 0.41709 0.0
O137 O 0.70492 0.70676 0.36047 0.0
O138 O 0.73652 0.76833 0.2878 0.0
O139 O 0.68864 0.80869 0.31672 0.0
C140 C 0.79577 0.93329 0.34454 0.0
O141 O 0.84764 0.84902 0.3644 0.0
O142 O 0.82498 0.75567 0.32701 0.0
C143 C 0.77762 0.82923 0.45691 0.0
C144 C 0.6175 0.91218 0.40119 0.0
C145 C 0.54283 0.9393 0.39008 0.0
C146 C 0.58363 0.97311 0.36496 0.0
C147 C 0.62 0.95998 0.37045 0.0
C148 C 0.57692 0.87853 0.42657 0.0
C149 C 0.54044 0.89155 0.42102 0.0
C150 C 0.65916 0.90531 0.41151 0.0
C151 C 0.67148 0.70564 0.38874 0.0
H152 H 0.99211 0.78045 0.32226 0.0
H153 H 0.91027 0.74047 0.32572 0.0
H154 H 0.93453 0.93612 0.35066 0.0
H155 H 1.01595 0.97627 0.34736 0.0
H156 H 0.58758 1.00979 0.34046 0.0
H157 H 0.65071 0.98853 0.35098 0.0
H158 H 0.5736 0.84289 0.45176 0.0
H159 H 0.51056 0.86484 0.44211 0.0
Tb160 Tb 0.33101 1.06848 0.33507 0.0
Tb161 Tb 0.29173 0.93405 0.31915 0.0
C162 C 0.36982 1.0314 0.24797 0.0
C163 C 0.35315 0.21901 0.3969 0.0
C164 C 0.30358 0.25684 0.45783 0.0
C165 C 0.3247 0.29295 0.41767 0.0
C166 C 0.34903 0.27368 0.38704 0.0
C167 C 0.33685 0.18818 0.44016 0.0
C168 C 0.31126 0.20607 0.4701 0.0
C169 C 0.36629 0.18721 0.35893 0.0
O170 O 0.25523 1.03438 0.31962 0.0
O171 O 0.23282 0.93805 0.3498 0.0
O172 O 0.30006 0.93928 0.39798 0.0
O173 O 0.30172 1.03639 0.40408 0.0
O174 O 0.25051 0.90492 0.25931 0.0
O175 O 0.25712 0.83434 0.30414 0.0
O176 O 0.34809 0.92625 0.34336 0.0
O177 O 0.38484 1.03761 0.3523 0.0
O178 O 0.3585 1.07458 0.26346 0.0
O179 O 0.34928 0.97419 0.26732 0.0
C180 C 0.22064 0.97926 0.33506 0.0
O181 O 0.38103 0.14877 0.37299 0.0
O182 O 0.33718 0.16045 0.32424 0.0
C183 C 0.30292 0.98875 0.42484 0.0
C184 C 0.24262 0.80949 0.22207 0.0
C185 C 0.23211 0.69329 0.1909 0.0
C186 C 0.27602 0.74645 0.1899 0.0
C187 C 0.2816 0.80471 0.21124 0.0
C188 C 0.202 0.766 0.19935 0.0
C189 C 0.19843 0.70883 0.17852 0.0
C190 C 0.24036 0.84406 0.26499 0.0
C191 C 0.38493 0.98027 0.35466 0.0
H192 H 0.31859 0.33206 0.40751 0.0
H193 H 0.36145 0.29815 0.35396 0.0
H194 H 0.34103 0.14722 0.44905 0.0
H195 H 0.29512 0.17777 0.50086 0.0
H196 H 0.30487 0.73825 0.18825 0.0
H197 H 0.3143 0.84032 0.22515 0.0
H198 H 0.17211 0.77141 0.20355 0.0
H199 H 0.16551 0.67142 0.1667 0.0
Tb200 Tb 0.14536 0.38559 0.36247 0.0
Tb201 Tb 0.24768 0.4958 0.40604 0.0
C202 C 0.2248 0.44127 0.29991 0.0
C203 C 1.03106 0.27064 0.31055 0.0
C204 C 0.94024 0.17903 0.30783 0.0
C205 C 0.96345 0.20278 0.26539 0.0
C206 C 1.00885 0.24858 0.26681 0.0
C207 C 1.00756 0.2504 0.35307 0.0
C208 C 0.96214 0.2046 0.35172 0.0
C209 C 1.07891 0.31419 0.31058 0.0
O210 O 0.15699 0.33802 0.4207 0.0
O211 O 0.23199 0.39548 0.40619 0.0
O212 O 0.19495 0.47943 0.46497 0.0
O213 O 0.12451 0.41172 0.42848 0.0
O214 O 0.31226 0.57845 0.39784 0.0
O215 O 0.30279 0.50997 0.45018 0.0
O216 O 0.21657 0.55503 0.39265 0.0
O217 O 0.1646 0.48158 0.33882 0.0
O218 O 0.20105 0.3889 0.32299 0.0
O219 O 0.24793 0.4943 0.32653 0.0
C220 C 0.19846 0.35268 0.4309 0.0
O221 O 0.09092 0.37453 0.32209 0.0
O222 O 0.10452 0.29405 0.33005 0.0
C223 C 0.14886 0.44635 0.4654 0.0
C224 C 0.37952 0.56839 0.41604 0.0
C225 C 0.47319 0.59559 0.40068 0.0
C226 C 0.44466 0.55142 0.43481 0.0
C227 C 0.39928 0.53834 0.44231 0.0
C228 C 0.4077 0.61193 0.38159 0.0
C229 C 0.45301 0.62488 0.37397 0.0
C230 C 0.33258 0.5609 0.42829 0.0
C231 C 0.18863 0.54095 0.35663 0.0
H232 H 0.94704 0.18362 0.23131 0.0
H233 H 1.02701 0.26512 0.2338 0.0
H234 H 1.02467 0.2681 0.38698 0.0
H235 H 0.94503 0.18612 0.38493 0.0
H236 H 0.45731 0.5265 0.45627 0.0
H237 H 0.37983 0.50523 0.46967 0.0
H238 H 0.39508 0.63767 0.36095 0.0
H239 H 0.4727 0.65996 0.34785 0.0
Tb240 Tb 0.45497 1.06391 0.67274 0.0
Tb241 Tb 0.43745 0.18175 0.69825 0.0
C242 C 0.40131 0.09624 0.60321 0.0
C243 C 0.50021 0.97603 0.60061 0.0
C244 C 0.56712 1.00723 0.53056 0.0
C245 C 0.52964 1.01609 0.52246 0.0
C246 C 0.49705 1.0019 0.55759 0.0
C247 C 0.53413 0.959 0.60602 0.0
C248 C 0.56736 0.97451 0.57141 0.0
C249 C 0.47373 0.97718 0.64234 0.0
O250 O 0.52085 0.15703 0.67184 0.0
O251 O 0.48973 0.21493 0.64585 0.0
O252 O 0.48619 0.18149 0.75102 0.0
O253 O 0.46055 1.07267 0.74938 0.0
O254 O 0.4348 0.26392 0.67581 0.0
O255 O 0.43589 0.24648 0.75043 0.0
O256 O 0.37813 0.10453 0.7291 0.0
O257 O 0.38193 1.01768 0.69289 0.0
O258 O 0.43856 0.09272 0.60701 0.0
O259 O 0.39031 0.12465 0.63865 0.0
C260 C 0.52594 0.21161 0.65461 0.0
O261 O 0.49666 1.02064 0.67539 0.0
O262 O 0.4357 0.97612 0.63386 0.0
C263 C 0.48466 0.12998 0.77031 0.0
C264 C 0.39988 0.30603 0.72819 0.0
C265 C 0.33846 0.35271 0.74399 0.0
C266 C 0.37393 0.38278 0.71166 0.0
C267 C 0.40449 0.35977 0.70404 0.0
C268 C 0.36485 0.27614 0.76096 0.0
C269 C 0.33448 0.29957 0.76896 0.0
C270 C 0.43283 0.28361 0.7192 0.0
C271 C 0.35927 1.04251 0.71695 0.0
H272 H 0.52766 1.03959 0.49097 0.0
H273 H 0.47157 1.01607 0.55248 0.0
H274 H 0.53721 0.93892 0.63884 0.0
H275 H 0.59557 0.96683 0.57935 0.0
H276 H 0.37749 0.42308 0.69128 0.0
H277 H 0.43153 0.38357 0.67883 0.0
H278 H 0.36085 0.23475 0.78026 0.0
H279 H 0.30785 0.27601 0.79459 0.0
Tb280 Tb 1.00834 0.38443 0.69582 0.0
Tb281 Tb 0.91594 0.32006 0.67778 0.0
C282 C 0.95625 0.35345 0.78676 0.0
C283 C 0.13153 0.44773 0.70843 0.0
C284 C 0.20385 0.43343 0.74038 0.0
C285 C 0.20956 0.4738 0.70249 0.0
C286 C 0.1735 0.48078 0.68657 0.0
C287 C 0.12627 0.41075 0.74818 0.0
C288 C 0.16239 0.40382 0.76423 0.0
C289 C 0.09273 0.44711 0.68658 0.0
O290 O 0.98782 0.27423 0.70112 0.0
O291 O 0.91291 0.23556 0.71028 0.0
O292 O 0.97704 0.36268 0.62858 0.0
O293 O 0.97406 0.36071 0.62702 0.0
O294 O 0.84751 0.29043 0.66594 0.0
O295 O 0.88266 0.24769 0.62521 0.0
O296 O 0.91311 0.40991 0.6792 0.0
O297 O 0.98721 0.46615 0.70006 0.0
O298 O 0.99457 0.36495 0.76834 0.0
O299 O 0.92049 0.33783 0.75852 0.0
C300 C 0.94642 0.22283 0.70824 0.0
O301 O 1.06662 0.39403 0.66235 0.0
O302 O 1.06985 0.46653 0.71384 0.0
C303 C 0.98761 0.37126 0.58246 0.0
C304 C 0.81727 0.24091 0.58919 0.0
C305 C 0.74592 0.18511 0.52275 0.0
C306 C 0.78412 0.17694 0.51633 0.0
C307 C 0.8194 0.20436 0.5494 0.0
C308 C 0.78187 0.25577 0.59225 0.0
C309 C 0.74666 0.22842 0.55926 0.0
C310 C 0.84491 0.24938 0.63164 0.0
C311 C 0.94779 0.46576 0.6911 0.0
H312 H 0.24094 0.49645 0.68305 0.0
H313 H 0.17775 0.50928 0.65572 0.0
H314 H 0.0938 0.38503 0.76534 0.0
H315 H 0.15736 0.37293 0.79379 0.0
H316 H 0.78496 0.14478 0.4882 0.0
H317 H 0.84631 0.19204 0.54596 0.0
H318 H 0.77913 0.28356 0.6225 0.0
H319 H 0.71781 0.23576 0.56575 0.0
Tb320 Tb 0.8425 0.76517 0.71069 0.0
Tb321 Tb 0.9427 0.84563 0.71574 0.0
C322 C 0.88369 0.82048 0.61808 0.0
C323 C 0.72963 0.61416 0.71182 0.0
C324 C 0.66934 0.47923 0.68847 0.0
C325 C 0.65666 0.52767 0.68217 0.0
C326 C 0.68621 0.59375 0.69369 0.0
C327 C 0.7426 0.56608 0.71801 0.0
C328 C 0.71294 0.49983 0.70671 0.0
C329 C 0.76008 0.6847 0.72561 0.0
O330 O 0.86662 0.68882 0.70352 0.0
O331 O 0.94238 0.75383 0.69669 0.0
O332 O 0.88614 0.80692 0.77108 0.0
O333 O 0.88748 0.80811 0.77219 0.0
O334 O 1.00889 0.9088 0.69507 0.0
O335 O 0.99537 0.8716 0.76616 0.0
O336 O 0.93411 0.92973 0.72755 0.0
O337 O 0.85841 0.87593 0.7094 0.0
O338 O 0.85464 0.76618 0.63634 0.0
O339 O 0.92055 0.86116 0.64329 0.0
C340 C 0.90801 0.69493 0.69854 0.0
O341 O 0.79293 0.69735 0.75493 0.0
O342 O 0.77355 0.72698 0.69212 0.0
C343 C 0.87894 0.80709 0.81804 0.0
C344 C 1.07088 0.90611 0.73411 0.0
C345 C 0.16293 0.93125 0.73222 0.0
C346 C 0.14035 0.92784 0.77548 0.0
C347 C 0.09532 0.91578 0.77635 0.0
C348 C 0.0926 0.90651 0.69087 0.0
C349 C 0.13771 0.91864 0.68996 0.0
C350 C 1.02649 0.9066 0.73553 0.0
C351 C 0.89776 0.93326 0.71785 0.0
H352 H 0.62333 0.51448 0.66911 0.0
H353 H 0.67483 0.62902 0.68881 0.0
H354 H 0.77575 0.57955 0.73183 0.0
H355 H 0.72448 0.46481 0.7118 0.0
H356 H 0.15779 0.93593 0.809 0.0
H357 H 1.08014 0.91658 0.8103 0.0
H358 H 1.07541 0.90011 0.65739 0.0
H359 H 0.15343 0.92127 0.6558 0.0
C360 C 0.34691 0.5309 0.85734 0.0
C361 C 0.37726 0.50642 0.85336 0.0
H362 H 0.27986 0.50996 0.87571 0.0
C363 C 0.36115 0.43901 0.85488 0.0
H364 H 0.35872 0.58266 0.85625 0.0
C365 C 0.3163 0.3977 0.86615 0.0
C366 C 0.28739 0.42356 0.8755 0.0
H367 H 0.38407 0.41908 0.85228 0.0
H368 H 0.30546 0.34701 0.87207 0.0
C369 C 0.30204 0.48949 0.86831 0.0
C370 C 0.56418 0.8885 0.02005 0.0
C371 C 0.59669 0.95527 0.02475 0.0
H372 H 0.549 0.78792 1.01321 0.0
C373 C 0.64218 0.96635 0.02718 0.0
H374 H 0.52887 0.87529 0.01808 0.0
C375 C 0.65423 0.91496 0.02495 0.0
C376 C 0.62165 0.84818 0.01967 0.0
H377 H 0.66931 1.01586 0.03102 0.0
H378 H 0.68952 0.92808 0.02678 0.0
C379 C 0.57623 0.83731 0.01732 0.0
C380 C 0.25657 0.72429 0.98592 0.0
C381 C 0.29428 0.73718 0.01391 0.0
H382 H 0.18979 0.65516 0.96278 0.0
C383 C 0.29368 0.68439 0.03695 0.0
H384 H 0.25512 0.76316 0.96801 0.0
C385 C 0.25597 0.62149 0.03337 0.0
C386 C 0.21755 0.60981 1.00717 0.0
H387 H 0.3221 0.69189 0.05853 0.0
H388 H 0.25596 0.58296 0.05322 0.0
C389 C 0.21886 0.66197 0.9829 0.0
C390 C 0.55805 0.34918 0.01489 0.0
C391 C 0.58661 0.32646 0.03324 0.0
H392 H 0.5482 0.43038 0.99623 0.0
C393 C 0.63041 0.37882 0.04686 0.0
H394 H 0.52441 0.31389 1.0033 0.0
C395 C 0.64465 0.44712 0.04256 0.0
C396 C 0.6163 0.46992 0.02429 0.0
H397 H 0.65503 0.36724 0.06121 0.0
H398 H 0.67847 0.4823 0.05375 0.0
C399 C 0.57234 0.41794 1.01075 0.0
C400 C 0.89313 0.23167 0.05971 0.0
C401 C 0.87197 0.25135 0.09511 0.0
H402 H 0.95524 0.25021 0.02617 0.0
C403 C 0.89919 0.30042 0.12849 0.0
H404 H 0.87327 0.19324 0.03393 0.0
C405 C 0.94604 0.33238 0.1244 0.0
C406 C 0.96699 0.31642 0.08671 0.0
H407 H 0.8844 0.31752 0.15601 0.0
H408 H 0.96564 0.3723 0.14929 0.0
C409 C 0.94018 0.26388 0.05555 0.0
C410 C 0.9017 0.63244 0.1737 0.0
C411 C 0.9486 0.67316 0.17382 0.0
H412 H 0.83732 0.62428 0.16046 0.0
C413 C 0.96566 0.74082 0.17327 0.0
H414 H 0.88752 0.58026 0.17551 0.0
C415 C 0.93676 0.76631 0.16568 0.0
C416 C 0.89053 0.72452 0.15809 0.0
H417 H 1.0016 0.77381 0.17372 0.0
H418 H 0.95112 0.81813 0.16134 0.0
C419 C 0.87285 0.65787 0.16565 0.0
C420 C 1.08709 0.86951 0.34308 0.0
C421 C 1.06739 0.90966 0.33401 0.0
H422 H 0.14627 0.85792 0.35096 0.0
C423 C 0.10051 0.97544 0.32486 0.0
H424 H 1.06532 0.81911 0.35092 0.0
C425 C 0.14886 0.99855 0.32459 0.0
C426 C 0.16816 0.95797 0.33414 0.0
H427 H 1.0892 1.00998 0.31718 0.0
H428 H 0.1712 1.04894 0.31707 0.0
C429 C 0.13505 0.89266 0.34338 0.0
C430 C 0.24654 0.34853 0.49239 0.0
C431 C 0.20884 0.31416 0.46258 0.0
H432 H 0.30841 0.35502 0.51561 0.0
C433 C 0.19456 0.24895 0.45002 0.0
H434 H 0.25751 0.39879 0.50298 0.0
C435 C 0.22326 0.22329 0.45841 0.0
C436 C 0.26611 0.2636 0.47841 0.0
H437 H 0.16548 0.22174 0.42711 0.0
H438 H 0.21548 0.1767 0.44168 0.0
C439 C 0.27557 0.32346 0.49996 0.0
C440 C 0.8632 0.11403 0.33941 0.0
C441 C 0.8966 0.11986 0.30705 0.0
H442 H 0.80433 1.04915 0.37666 0.0
C443 C 0.89208 1.06486 0.28097 0.0
H444 H 0.86597 0.15615 0.3594 0.0
C445 C 0.85711 1.00372 0.29091 0.0
C446 C 0.82655 0.99729 0.32703 0.0
H447 H 0.91774 1.06829 0.25604 0.0
H448 H 0.85606 0.96145 0.27283 0.0
C449 C 0.8283 1.05292 0.34942 0.0
C450 C 0.25329 0.66926 0.27116 0.0
C451 C 0.22101 0.65332 0.23444 0.0
H452 H 0.26758 0.64953 0.34026 0.0
C453 C 0.17612 0.60642 0.24359 0.0
H454 H 0.28825 0.70528 0.26712 0.0
C455 C 0.16423 0.57641 0.28699 0.0
C456 C 0.19699 0.59059 0.32216 0.0
H457 H 0.14996 0.59177 0.21702 0.0
H458 H 0.12986 0.53823 0.29166 0.0
C459 C 0.2413 0.6388 0.31443 0.0
C460 C 0.54726 0.63482 0.35105 0.0
C461 C 0.52353 0.61284 0.39436 0.0
H462 H 0.6109 0.67711 0.31401 0.0
C463 C 0.54963 0.61055 0.43239 0.0
H464 H 0.52966 0.63736 0.32018 0.0
C465 C 0.59675 0.6325 0.42826 0.0
C466 C 0.62087 0.65696 0.38568 0.0
H467 H 0.53436 0.59538 0.4668 0.0
H468 H 0.61518 0.63461 0.45996 0.0
C469 C 0.59448 0.6563 0.34691 0.0
C470 C 0.42095 0.91244 0.37872 0.0
C471 C 0.4264 0.97389 0.36721 0.0
H472 H 0.45116 0.85331 0.39416 0.0
C473 C 0.47115 1.0251 0.36484 0.0
H474 H 0.38747 0.87118 0.38106 0.0
C475 C 0.50862 1.01454 0.37257 0.0
C476 C 0.50294 0.95245 0.38335 0.0
H477 H 0.47735 1.07308 0.35589 0.0
H478 H 0.5422 1.05545 0.37012 0.0
C479 C 0.45804 0.90204 0.38669 0.0
C480 C 0.68847 1.0711 0.50034 0.0
C481 C 0.70196 0.13795 0.50068 0.0
H482 H 0.63352 0.97506 0.50723 0.0
C483 C 0.66911 0.15675 0.49285 0.0
H484 H 0.71278 1.05435 0.50521 0.0
C485 C 0.62347 0.11117 0.49515 0.0
C486 C 0.61012 1.04599 0.50478 0.0
H487 H 0.67852 0.20769 0.49109 0.0
H488 H 0.59948 0.12922 0.49583 0.0
C489 C 0.64277 1.02537 0.50204 0.0
C490 C 0.97328 0.59221 0.69747 0.0
C491 C 0.93925 0.52616 0.69426 0.0
H492 H 0.99097 0.69412 0.70066 0.0
C493 C 0.8944 0.51727 0.69241 0.0
H494 H 1.00823 0.60344 0.69887 0.0
C495 C 0.88414 0.56997 0.69378 0.0
C496 C 0.91805 0.63596 0.69642 0.0
H497 H 0.86627 0.46841 0.68999 0.0
H498 H 0.84914 0.55857 0.69252 0.0
C499 C 0.963 0.64512 0.69827 0.0
C500 C 0.63387 0.35722 0.70401 0.0
C501 C 0.63696 0.40812 0.67625 0.0
H502 H 0.59719 0.25504 0.71886 0.0
C503 C 0.60714 0.39054 0.63737 0.0
H504 H 0.65587 0.36817 0.73441 0.0
C505 C 0.57388 0.32575 0.62835 0.0
C506 C 0.56901 0.27544 0.65755 0.0
H507 H 0.60873 0.42724 0.6142 0.0
H508 H 0.5504 0.3154 0.5994 0.0
C509 C 0.60034 0.29187 0.69487 0.0
C510 C 0.87519 1.02862 0.71298 0.0
C511 C 0.90737 1.00641 0.71467 0.0
H512 H 0.86131 0.10955 0.71041 0.0
C513 C 0.9532 1.05841 0.71422 0.0
H514 H 0.83971 0.99328 0.71316 0.0
C515 C 0.96604 0.12632 0.71234 0.0
C516 C 0.9341 0.14869 0.71125 0.0
H517 H 0.98047 1.04682 0.71506 0.0
H518 H 1.00155 0.16151 0.71183 0.0
C519 C 0.88814 0.09708 0.71158 0.0
C520 C 0.2326 0.92958 0.69595 0.0
C521 C 0.21309 0.95277 0.73119 0.0
H522 H 0.29355 0.9378 0.66429 0.0
C523 C 0.24262 1.00018 0.7644 0.0
H524 H 0.2114 0.89273 0.66986 0.0
C525 C 0.28954 1.02536 0.7614 0.0
C526 C 0.3092 1.00416 0.72526 0.0
H527 H 0.22978 1.02054 0.79169 0.0
H528 H 0.31071 1.06379 0.7866 0.0
C529 C 0.27989 0.95469 0.69314 0.0
C530 C 0.31712 0.44098 0.74836 0.0
C531 C 0.30441 0.3746 0.74942 0.0
H532 H 0.29501 0.51214 0.74655 0.0
C533 C 0.25859 0.3288 0.75289 0.0
H534 H 0.35228 0.47752 0.74678 0.0
C535 C 0.226 0.34866 0.7529 0.0
C536 C 0.23861 0.41467 0.74963 0.0
H537 H 0.24765 0.27726 0.75312 0.0
H538 H 0.19083 0.31185 0.75281 0.0
C539 C 0.28447 0.46086 0.74857 0.0
C540 C 0.22262 0.50311 0.22777 0.0
C541 C 0.20794 0.44439 0.25119 0.0
H542 H 0.21281 0.55135 0.16895 0.0
C543 C 0.17244 0.38778 0.22984 0.0
H544 H 0.2503 0.5475 0.24233 0.0
C545 C 0.15064 0.39019 0.18857 0.0
C546 C 0.16355 0.44925 0.16654 0.0
H547 H 0.16021 0.3412 0.24592 0.0
H548 H 0.12271 0.34552 0.17455 0.0
C549 C 0.20077 0.50545 0.18596 0.0
C550 C 0.65908 0.78255 0.20836 0.0
C551 C 0.67234 0.74821 0.23873 0.0
H552 H 0.63313 0.78526 0.13918 0.0
C553 C 0.65979 0.68344 0.22493 0.0
H554 H 0.66808 0.83255 0.21745 0.0
C555 C 0.63757 0.65527 0.18145 0.0
C556 C 0.62788 0.69091 0.14872 0.0
H557 H 0.66876 0.65486 0.24721 0.0
H558 H 0.63211 0.60707 0.17118 0.0
C559 C 0.63788 0.75471 0.1637 0.0
C560 C 0.4704 0.1285 0.16299 0.0
C561 C 0.49598 0.09563 0.16473 0.0
H562 H 0.41168 0.13511 0.18696 0.0
C563 C 0.47785 1.03933 0.19191 0.0
H564 H 0.48336 0.1729 0.14374 0.0
C565 C 0.4361 1.01674 0.21614 0.0
C566 C 0.41106 1.0506 0.21576 0.0
H567 H 0.49668 1.01334 0.1955 0.0
H568 H 0.42455 0.97413 0.23726 0.0
C569 C 0.42906 0.10676 0.18818 0.0
C570 C 0.54525 0.08496 0.86349 0.0
C571 C 0.56403 0.13937 0.89531 0.0
H572 H 0.50593 1.0391 0.8009 0.0
C573 C 0.5597 0.19395 0.8834 0.0
H574 H 0.5467 1.04137 0.87179 0.0
C575 C 0.53539 0.19248 0.84225 0.0
C576 C 0.51404 0.13596 0.81234 0.0
H577 H 0.57207 0.23588 0.90772 0.0
H578 H 0.53146 0.23444 0.8352 0.0
C579 C 0.52083 0.08322 0.82306 0.0
C580 C 0.99367 0.34614 0.9097 0.0
C581 C 1.00735 0.40932 0.9288 0.0
H582 H 0.96365 0.27709 0.85142 0.0
C583 C 0.99297 0.44764 0.9047 0.0
H584 H 1.00399 0.31498 0.92693 0.0
C585 C 0.9693 0.42533 0.86068 0.0
C586 C 0.95833 0.3635 0.84001 0.0
H587 H 1.0032 0.49678 0.9177 0.0
H588 H 0.96341 0.45895 0.84067 0.0
C589 C 0.96955 0.32367 0.86653 0.0
C590 C 0.81794 0.73848 0.8785 0.0
C591 C 0.83137 0.78011 0.83946 0.0
H592 H 0.7648 0.67819 0.92639 0.0
C593 C 0.79999 0.79912 0.82449 0.0
H594 H 0.84062 0.72223 0.89151 0.0
C595 C 0.75724 0.77666 0.84674 0.0
C596 C 0.74347 0.73475 0.8856 0.0
H597 H 0.80843 0.83157 0.79531 0.0
H598 H 0.73421 0.79162 0.83268 0.0
C599 C 0.77457 0.71474 0.90008 0.0
C600 C 0.82286 0.88192 0.53599 0.0
C601 C 0.80938 0.83564 0.49763 0.0
H602 H 0.85827 0.91546 0.60349 0.0
C603 C 0.82755 0.79236 0.49727 0.0
H604 H 0.81034 0.9165 0.53817 0.0
C605 C 0.85544 0.79257 0.53396 0.0
C606 C 0.86782 0.83684 0.57301 0.0
H607 H 0.81925 0.75601 0.46882 0.0
H608 H 0.86564 0.75535 0.53287 0.0
C609 C 0.85134 0.88218 0.57317 0.0
C610 C 0.35227 0.98719 0.49053 0.0
C611 C 0.31899 1.00198 0.4757 0.0
H612 H 0.40322 1.00435 0.54153 0.0
C613 C 0.30985 1.04377 0.50597 0.0
H614 H 0.36089 0.95613 0.46833 0.0
C615 C 0.33534 1.0734 0.5478 0.0
C616 C 0.37094 1.06224 0.56072 0.0
H617 H 0.28442 1.05644 0.49586 0.0
H618 H 0.32827 0.10691 0.56892 0.0
C619 C 0.3776 1.01665 0.53221 0.0
C620 C 1.05621 0.45808 0.53906 0.0
C621 C 1.03651 0.40006 0.56452 0.0
H622 H 0.10768 0.52022 0.49044 0.0
C623 C 1.05967 0.36344 0.56187 0.0
H624 H 1.03898 0.48665 0.53784 0.0
C625 C 0.1 0.38354 0.5349 0.0
C626 C 0.11928 0.441 0.50862 0.0
H627 H 1.0451 0.31687 0.57845 0.0
H628 H 0.11417 0.35095 0.53151 0.0
C629 C 0.09641 0.47801 0.51194 0.0
loop_
_geom_bond_atom_site_label_1
_geom_bond_atom_site_label_2
_geom_bond_distance
_geom_bond_site_symmetry_2
_ccdc_geom_bond_type
Tb0 C9 2.765 . S
Tb0 O10 2.325 1_554 S
Tb0 O13 2.303 . S
Tb0 O17 2.322 1_455 S
Tb0 O18 2.349 1_554 S
Tb0 O21 2.415 . S
Tb0 O22 2.399 1_554 S
Tb1 O11 2.322 1_655 S
Tb1 O12 2.340 1_655 S
Tb1 O14 2.415 1_554 S
Tb1 O15 2.399 . S
Tb1 O16 2.325 . S
Tb1 O19 2.303 1_554 S
Tb1 C30 2.764 . S
C2 O18 1.261 1_655 S
C2 O19 1.257 . S
C3 C6 1.349 1_554 S
C3 C7 1.340 . S
C3 C9 1.504 . S
C4 C5 1.364 1_554 S
C4 C8 1.317 . S
C5 C4 1.364 1_556 S
C5 C6 1.429 . S
C5 H32 0.932 . S
C6 C3 1.349 1_556 S
C6 C5 1.429 . S
C6 H33 0.930 . S
C7 C3 1.340 . S
C7 C8 1.394 . S
C7 H34 0.932 . S
C8 C4 1.317 . S
C8 C7 1.394 . S
C8 H35 0.929 . S
C9 Tb0 2.765 . S
C9 C3 1.504 . S
C9 O21 1.252 . S
C9 O22 1.250 1_554 S
O10 Tb0 2.325 1_556 S
O10 C20 1.236 1_556 S
O11 Tb1 2.322 1_455 S
O11 C20 1.257 . S
O12 Tb1 2.340 1_455 S
O12 C23 1.285 . S
O13 Tb0 2.303 . S
O13 C23 1.257 . S
O14 Tb1 2.415 1_556 S
O14 C30 1.239 1_556 S
O15 Tb1 2.399 . S
O15 C30 1.263 . S
O16 Tb1 2.325 . S
O16 C31 1.236 . S
O17 Tb0 2.322 1_655 S
O17 C31 1.257 . S
O18 Tb0 2.349 1_556 S
O18 C2 1.261 1_455 S
O19 Tb1 2.303 1_556 S
O19 C2 1.257 . S
C20 O10 1.236 1_554 S
C20 O11 1.257 . S
O21 Tb0 2.415 . S
O21 C9 1.252 . S
O22 Tb0 2.399 1_556 S
O22 C9 1.250 1_556 S
C23 O12 1.285 . S
C23 O13 1.257 . S
C24 C27 1.358 . S
C24 C28 1.338 . S
C24 C30 1.504 . S
C25 C26 1.373 . S
C25 C29 1.324 . S
C26 C25 1.373 . S
C26 C27 1.429 . S
C26 H36 0.932 . S
C27 C24 1.358 . S
C27 C26 1.429 . S
C27 H37 0.930 . S
C28 C24 1.338 . S
C28 C29 1.394 . S
C28 H38 0.925 1_554 S
C29 C25 1.324 . S
C29 C28 1.394 . S
C29 H39 0.913 1_554 S
C30 Tb1 2.764 . S
C30 O14 1.239 1_554 S
C30 O15 1.263 . S
C30 C24 1.504 . S
C31 O16 1.236 . S
C31 O17 1.257 . S
H32 C5 0.932 . S
H33 C6 0.930 . S
H34 C7 0.932 . S
H35 C8 0.929 . S
H36 C26 0.932 . S
H37 C27 0.930 . S
H38 C28 0.925 1_556 S
H39 C29 0.913 1_556 S
Tb40 C49 2.764 . S
Tb40 O50 2.325 . S
Tb40 O53 2.303 1_554 S
Tb40 O57 2.322 . S
Tb40 O58 2.349 . S
Tb40 O61 2.415 1_554 S
Tb40 O62 2.399 . S
Tb41 O51 2.322 . S
Tb41 O52 2.349 . S
Tb41 O54 2.415 1_556 S
Tb41 O55 2.399 . S
Tb41 O56 2.325 . S
Tb41 O59 2.303 1_556 S
Tb41 C70 2.764 . S
C42 O58 1.261 . S
C42 O59 1.257 . S
C43 C46 1.358 . S
C43 C47 1.332 1_554 S
C43 C49 1.504 . S
C44 C45 1.373 . S
C44 C48 1.308 1_554 S
C45 C44 1.373 . S
C45 C46 1.429 . S
C45 H72 0.932 . S
C46 C43 1.358 . S
C46 C45 1.429 . S
C46 H73 0.930 . S
C47 C43 1.332 1_556 S
C47 C48 1.394 . S
C47 H74 0.932 . S
C48 C44 1.308 1_556 S
C48 C47 1.394 . S
C48 H75 0.929 . S
C49 Tb40 2.764 . S
C49 C43 1.504 . S
C49 O61 1.239 1_554 S
C49 O62 1.263 . S
O50 Tb40 2.325 . S
O50 C60 1.236 . S
O51 Tb41 2.322 . S
O51 C60 1.257 1_556 S
O52 Tb41 2.349 . S
O52 C63 1.261 . S
O53 Tb40 2.303 1_556 S
O53 C63 1.257 . S
O54 Tb41 2.415 1_554 S
O54 C70 1.239 1_554 S
O55 Tb41 2.399 . S
O55 C70 1.263 . S
O56 Tb41 2.325 . S
O56 C71 1.236 . S
O57 Tb40 2.322 . S
O57 C71 1.257 1_554 S
O58 Tb40 2.349 . S
O58 C42 1.261 . S
O59 Tb41 2.303 1_554 S
O59 C42 1.257 . S
C60 O50 1.236 . S
C60 O51 1.257 1_554 S
O61 Tb40 2.415 1_556 S
O61 C49 1.239 1_556 S
O62 Tb40 2.399 . S
O62 C49 1.263 . S
C63 O52 1.261 . S
C63 O53 1.257 . S
C64 C67 1.358 . S
C64 C68 1.332 1_556 S
C64 C70 1.504 . S
C65 C66 1.373 . S
C65 C69 1.308 1_556 S
C66 C65 1.373 . S
C66 C67 1.429 . S
C66 H76 0.932 . S
C67 C64 1.358 . S
C67 C66 1.429 . S
C67 H77 0.930 . S
C68 C64 1.332 1_554 S
C68 C69 1.394 . S
C68 H78 0.932 . S
C69 C65 1.308 1_554 S
C69 C68 1.394 . S
C69 H79 0.929 . S
C70 Tb41 2.764 . S
C70 O54 1.239 1_556 S
C70 O55 1.263 . S
C70 C64 1.504 . S
C71 O56 1.236 . S
C71 O57 1.257 1_556 S
H72 C45 0.932 . S
H73 C46 0.930 . S
H74 C47 0.932 . S
H75 C48 0.929 . S
H76 C66 0.932 . S
H77 C67 0.930 . S
H78 C68 0.932 . S
H79 C69 0.929 . S
Tb80 C89 2.764 . S
Tb80 O90 2.325 . S
Tb80 O93 2.301 1_556 S
Tb80 O97 2.322 1_566 S
Tb80 O98 2.352 . S
Tb80 O101 2.414 1_556 S
Tb80 O102 2.400 . S
Tb81 O91 2.322 1_545 S
Tb81 O92 2.349 . S
Tb81 O94 2.415 1_554 S
Tb81 O95 2.399 . S
Tb81 O96 2.325 . S
Tb81 O99 2.303 1_554 S
Tb81 C110 2.764 . S
C82 O98 1.261 1_545 S
C82 O99 1.257 . S
C83 C86 1.376 . S
C83 C87 1.314 1_556 S
C83 C89 1.505 . S
C84 C85 1.374 1_554 S
C84 C88 1.307 . S
C85 C84 1.374 1_556 S
C85 C86 1.429 . S
C85 H112 0.932 . S
C86 C83 1.376 . S
C86 C85 1.429 . S
C86 H113 0.930 . S
C87 C83 1.314 1_554 S
C87 C88 1.394 . S
C87 H114 0.932 . S
C88 C84 1.307 . S
C88 C87 1.394 . S
C88 H115 0.929 . S
C89 Tb80 2.764 . S
C89 C83 1.505 . S
C89 O101 1.239 1_556 S
C89 O102 1.263 . S
O90 Tb80 2.325 . S
O90 C100 1.236 1_556 S
O91 Tb81 2.322 1_565 S
O91 C100 1.257 . S
O92 Tb81 2.349 . S
O92 C103 1.261 1_545 S
O93 Tb80 2.301 1_554 S
O93 C103 1.257 . S
O94 Tb81 2.415 1_556 S
O94 C110 1.239 1_556 S
O95 Tb81 2.399 . S
O95 C110 1.263 . S
O96 Tb81 2.325 . S
O96 C111 1.236 . S
O97 Tb80 2.322 1_544 S
O97 C111 1.257 . S
O98 Tb80 2.352 . S
O98 C82 1.261 1_565 S
O99 Tb81 2.303 1_556 S
O99 C82 1.257 . S
C100 O90 1.236 1_554 S
C100 O91 1.257 . S
O101 Tb80 2.414 1_554 S
O101 C89 1.239 1_554 S
O102 Tb80 2.400 . S
O102 C89 1.263 . S
C103 O92 1.261 1_565 S
C103 O93 1.257 . S
C104 C107 1.358 . S
C104 C108 1.332 1_554 S
C104 C110 1.504 . S
C105 C106 1.373 . S
C105 C109 1.308 1_554 S
C106 C105 1.373 . S
C106 C107 1.429 . S
C106 H116 0.932 . S
C107 C104 1.358 . S
C107 C106 1.429 . S
C107 H117 0.930 . S
C108 C104 1.332 1_556 S
C108 C109 1.394 . S
C108 H118 0.932 . S
C109 C105 1.308 1_556 S
C109 C108 1.394 . S
C109 H119 0.929 . S
C110 Tb81 2.764 . S
C110 O94 1.239 1_554 S
C110 O95 1.263 . S
C110 C104 1.504 . S
C111 O96 1.236 . S
C111 O97 1.257 . S
H112 C85 0.932 . S
H113 C86 0.930 . S
H114 C87 0.932 . S
H115 C88 0.929 . S
H116 C106 0.932 . S
H117 C107 0.930 . S
H118 C108 0.932 . S
H119 C109 0.929 . S
Tb120 C129 2.764 . S
Tb120 O130 2.325 . S
Tb120 O133 2.303 . S
Tb120 O137 2.322 . S
Tb120 O138 2.349 . S
Tb120 O141 2.415 . S
Tb120 O142 2.399 . S
Tb121 O131 2.322 . S
Tb121 O132 2.349 . S
Tb121 O134 2.415 . S
Tb121 O135 2.399 . S
Tb121 O136 2.325 . S
Tb121 O139 2.303 . S
Tb121 C150 2.764 . S
C122 O138 1.261 . S
C122 O139 1.257 . S
C123 C126 1.358 . S
C123 C127 1.332 . S
C123 C129 1.504 . S
C124 C125 1.373 . S
C124 C128 1.308 . S
C125 C124 1.373 . S
C125 C126 1.429 . S
C125 H152 0.932 . S
C126 C123 1.358 . S
C126 C125 1.429 . S
C126 H153 0.930 . S
C127 C123 1.332 . S
C127 C128 1.394 . S
C127 H154 0.932 . S
C128 C124 1.308 . S
C128 C127 1.394 . S
C128 H155 0.929 . S
C129 Tb120 2.764 . S
C129 C123 1.504 . S
C129 O141 1.239 . S
C129 O142 1.263 . S
O130 Tb120 2.325 . S
O130 C140 1.236 . S
O131 Tb121 2.322 . S
O131 C140 1.257 . S
O132 Tb121 2.349 . S
O132 C143 1.261 . S
O133 Tb120 2.303 . S
O133 C143 1.257 . S
O134 Tb121 2.415 . S
O134 C150 1.239 . S
O135 Tb121 2.399 . S
O135 C150 1.263 . S
O136 Tb121 2.325 . S
O136 C151 1.236 . S
O137 Tb120 2.322 . S
O137 C151 1.257 . S
O138 Tb120 2.349 . S
O138 C122 1.261 . S
O139 Tb121 2.303 . S
O139 C122 1.257 . S
C140 O130 1.236 . S
C140 O131 1.257 . S
O141 Tb120 2.415 . S
O141 C129 1.239 . S
O142 Tb120 2.399 . S
O142 C129 1.263 . S
C143 O132 1.261 . S
C143 O133 1.257 . S
C144 C147 1.358 . S
C144 C148 1.332 . S
C144 C150 1.504 . S
C145 C146 1.373 . S
C145 C149 1.308 . S
C146 C145 1.373 . S
C146 C147 1.429 . S
C146 H156 0.932 . S
C147 C144 1.358 . S
C147 C146 1.429 . S
C147 H157 0.930 . S
C148 C144 1.332 . S
C148 C149 1.394 . S
C148 H158 0.932 . S
C149 C145 1.308 . S
C149 C148 1.394 . S
C149 H159 0.929 . S
C150 Tb121 2.764 . S
C150 O134 1.239 . S
C150 O135 1.263 . S
C150 C144 1.504 . S
C151 O136 1.236 . S
C151 O137 1.257 . S
H152 C125 0.932 . S
H153 C126 0.930 . S
H154 C127 0.932 . S
H155 C128 0.929 . S
H156 C146 0.932 . S
H157 C147 0.930 . S
H158 C148 0.932 . S
H159 C149 0.929 . S
Tb160 C169 2.764 1_565 S
Tb160 O170 2.325 . S
Tb160 O173 2.303 . S
Tb160 O177 2.322 . S
Tb160 O178 2.349 . S
Tb160 O181 2.415 1_565 S
Tb160 O182 2.399 1_565 S
Tb161 O171 2.322 . S
Tb161 O172 2.349 . S
Tb161 O174 2.415 . S
Tb161 O175 2.399 . S
Tb161 O176 2.325 . S
Tb161 O179 2.303 . S
Tb161 C190 2.764 . S
C162 O178 1.261 . S
C162 O179 1.257 . S
C163 C166 1.358 . S
C163 C167 1.332 . S
C163 C169 1.504 . S
C164 C165 1.373 . S
C164 C168 1.308 . S
C165 C164 1.373 . S
C165 C166 1.429 . S
C165 H192 0.932 . S
C166 C163 1.358 . S
C166 C165 1.429 . S
C166 H193 0.930 . S
C167 C163 1.332 . S
C167 C168 1.394 . S
C167 H194 0.932 . S
C168 C164 1.308 . S
C168 C167 1.394 . S
C168 H195 0.929 . S
C169 Tb160 2.764 1_545 S
C169 C163 1.504 . S
C169 O181 1.239 . S
C169 O182 1.263 . S
O170 Tb160 2.325 . S
O170 C180 1.236 . S
O171 Tb161 2.322 . S
O171 C180 1.257 . S
O172 Tb161 2.349 . S
O172 C183 1.261 . S
O173 Tb160 2.303 . S
O173 C183 1.257 . S
O174 Tb161 2.415 . S
O174 C190 1.239 . S
O175 Tb161 2.399 . S
O175 C190 1.263 . S
O176 Tb161 2.325 . S
O176 C191 1.236 . S
O177 Tb160 2.322 . S
O177 C191 1.257 . S
O178 Tb160 2.349 . S
O178 C162 1.261 . S
O179 Tb161 2.303 . S
O179 C162 1.257 . S
C180 O170 1.236 . S
C180 O171 1.257 . S
O181 Tb160 2.415 1_545 S
O181 C169 1.239 . S
O182 Tb160 2.399 1_545 S
O182 C169 1.263 . S
C183 O172 1.261 . S
C183 O173 1.257 . S
C184 C187 1.358 . S
C184 C188 1.332 . S
C184 C190 1.504 . S
C185 C186 1.373 . S
C185 C189 1.308 . S
C186 C185 1.373 . S
C186 C187 1.429 . S
C186 H196 0.932 . S
C187 C184 1.358 . S
C187 C186 1.429 . S
C187 H197 0.930 . S
C188 C184 1.332 . S
C188 C189 1.394 . S
C188 H198 0.932 . S
C189 C185 1.308 . S
C189 C188 1.394 . S
C189 H199 0.929 . S
C190 Tb161 2.764 . S
C190 O174 1.239 . S
C190 O175 1.263 . S
C190 C184 1.504 . S
C191 O176 1.236 . S
C191 O177 1.257 . S
H192 C165 0.932 . S
H193 C166 0.930 . S
H194 C167 0.932 . S
H195 C168 0.929 . S
H196 C186 0.932 . S
H197 C187 0.930 . S
H198 C188 0.932 . S
H199 C189 0.929 . S
Tb200 C209 2.764 1_455 S
Tb200 O210 2.325 . S
Tb200 O213 2.303 . S
Tb200 O217 2.322 . S
Tb200 O218 2.349 . S
Tb200 O221 2.415 . S
Tb200 O222 2.399 . S
Tb201 O211 2.322 . S
Tb201 O212 2.349 . S
Tb201 O214 2.415 . S
Tb201 O215 2.399 . S
Tb201 O216 2.325 . S
Tb201 O219 2.303 . S
Tb201 C230 2.764 . S
C202 O218 1.261 . S
C202 O219 1.257 . S
C203 C206 1.358 . S
C203 C207 1.332 . S
C203 C209 1.504 . S
C204 C205 1.373 . S
C204 C208 1.308 . S
C205 C204 1.373 . S
C205 C206 1.429 . S
C205 H232 0.932 . S
C206 C203 1.358 . S
C206 C205 1.429 . S
C206 H233 0.930 . S
C207 C203 1.332 . S
C207 C208 1.394 . S
C207 H234 0.932 . S
C208 C204 1.308 . S
C208 C207 1.394 . S
C208 H235 0.929 . S
C209 Tb200 2.764 1_655 S
C209 C203 1.504 . S
C209 O221 1.239 1_655 S
C209 O222 1.263 1_655 S
O210 Tb200 2.325 . S
O210 C220 1.236 . S
O211 Tb201 2.322 . S
O211 C220 1.257 . S
O212 Tb201 2.349 . S
O212 C223 1.261 . S
O213 Tb200 2.303 . S
O213 C223 1.257 . S
O214 Tb201 2.415 . S
O214 C230 1.239 . S
O215 Tb201 2.399 . S
O215 C230 1.263 . S
O216 Tb201 2.325 . S
O216 C231 1.236 . S
O217 Tb200 2.322 . S
O217 C231 1.257 . S
O218 Tb200 2.349 . S
O218 C202 1.261 . S
O219 Tb201 2.303 . S
O219 C202 1.257 . S
C220 O210 1.236 . S
C220 O211 1.257 . S
O221 Tb200 2.415 . S
O221 C209 1.239 1_455 S
O222 Tb200 2.399 . S
O222 C209 1.263 1_455 S
C223 O212 1.261 . S
C223 O213 1.257 . S
C224 C227 1.358 . S
C224 C228 1.332 . S
C224 C230 1.504 . S
C225 C226 1.373 . S
C225 C229 1.308 . S
C226 C225 1.373 . S
C226 C227 1.429 . S
C226 H236 0.932 . S
C227 C224 1.358 . S
C227 C226 1.429 . S
C227 H237 0.930 . S
C228 C224 1.332 . S
C228 C229 1.394 . S
C228 H238 0.932 . S
C229 C225 1.308 . S
C229 C228 1.394 . S
C229 H239 0.929 . S
C230 Tb201 2.764 . S
C230 O214 1.239 . S
C230 O215 1.263 . S
C230 C224 1.504 . S
C231 O216 1.236 . S
C231 O217 1.257 . S
H232 C205 0.932 . S
H233 C206 0.930 . S
H234 C207 0.932 . S
H235 C208 0.929 . S
H236 C226 0.932 . S
H237 C227 0.930 . S
H238 C228 0.932 . S
H239 C229 0.929 . S
Tb240 C249 2.764 . S
Tb240 O250 2.325 . S
Tb240 O253 2.303 . S
Tb240 O257 2.322 . S
Tb240 O258 2.349 . S
Tb240 O261 2.415 . S
Tb240 O262 2.399 . S
Tb241 O251 2.322 . S
Tb241 O252 2.349 . S
Tb241 O254 2.415 . S
Tb241 O255 2.399 . S
Tb241 O256 2.325 . S
Tb241 O259 2.303 . S
Tb241 C270 2.764 . S
C242 O258 1.261 . S
C242 O259 1.257 . S
C243 C246 1.358 . S
C243 C247 1.332 . S
C243 C249 1.504 . S
C244 C245 1.373 . S
C244 C248 1.308 . S
C245 C244 1.373 . S
C245 C246 1.429 . S
C245 H272 0.932 . S
C246 C243 1.358 . S
C246 C245 1.429 . S
C246 H273 0.930 . S
C247 C243 1.332 . S
C247 C248 1.394 . S
C247 H274 0.932 . S
C248 C244 1.308 . S
C248 C247 1.394 . S
C248 H275 0.929 . S
C249 Tb240 2.764 . S
C249 C243 1.504 . S
C249 O261 1.239 . S
C249 O262 1.263 . S
O250 Tb240 2.325 . S
O250 C260 1.236 . S
O251 Tb241 2.322 . S
O251 C260 1.257 . S
O252 Tb241 2.349 . S
O252 C263 1.261 . S
O253 Tb240 2.303 . S
O253 C263 1.257 . S
O254 Tb241 2.415 . S
O254 C270 1.239 . S
O255 Tb241 2.399 . S
O255 C270 1.263 . S
O256 Tb241 2.325 . S
O256 C271 1.236 . S
O257 Tb240 2.322 . S
O257 C271 1.257 . S
O258 Tb240 2.349 . S
O258 C242 1.261 . S
O259 Tb241 2.303 . S
O259 C242 1.257 . S
C260 O250 1.236 . S
C260 O251 1.257 . S
O261 Tb240 2.415 . S
O261 C249 1.239 . S
O262 Tb240 2.399 . S
O262 C249 1.263 . S
C263 O252 1.261 . S
C263 O253 1.257 . S
C264 C267 1.358 . S
C264 C268 1.332 . S
C264 C270 1.504 . S
C265 C266 1.373 . S
C265 C269 1.308 . S
C266 C265 1.373 . S
C266 C267 1.429 . S
C266 H276 0.932 . S
C267 C264 1.358 . S
C267 C266 1.429 . S
C267 H277 0.930 . S
C268 C264 1.332 . S
C268 C269 1.394 . S
C268 H278 0.932 . S
C269 C265 1.308 . S
C269 C268 1.394 . S
C269 H279 0.929 . S
C270 Tb241 2.764 . S
C270 O254 1.239 . S
C270 O255 1.263 . S
C270 C264 1.504 . S
C271 O256 1.236 . S
C271 O257 1.257 . S
H272 C245 0.932 . S
H273 C246 0.930 . S
H274 C247 0.932 . S
H275 C248 0.929 . S
H276 C266 0.932 . S
H277 C267 0.930 . S
H278 C268 0.932 . S
H279 C269 0.929 . S
Tb280 C289 2.764 1_655 S
Tb280 O290 2.325 . S
Tb280 O293 2.303 . S
Tb280 O297 2.322 . S
Tb280 O298 2.349 . S
Tb280 O301 2.415 . S
Tb280 O302 2.399 1_655 S
Tb281 O291 2.322 . S
Tb281 O292 2.349 . S
Tb281 O294 2.415 . S
Tb281 O295 2.399 . S
Tb281 O296 2.325 . S
Tb281 O299 2.303 . S
Tb281 C310 2.764 . S
C282 O298 1.261 . S
C282 O299 1.257 . S
C283 C286 1.358 . S
C283 C287 1.332 . S
C283 C289 1.504 . S
C284 C285 1.373 . S
C284 C288 1.308 . S
C285 C284 1.373 . S
C285 C286 1.429 . S
C285 H312 0.932 . S
C286 C283 1.358 . S
C286 C285 1.429 . S
C286 H313 0.930 . S
C287 C283 1.332 . S
C287 C288 1.394 . S
C287 H314 0.932 . S
C288 C284 1.308 . S
C288 C287 1.394 . S
C288 H315 0.929 . S
C289 Tb280 2.764 1_455 S
C289 C283 1.504 . S
C289 O301 1.239 1_455 S
C289 O302 1.263 . S
O290 Tb280 2.325 . S
O290 C300 1.236 . S
O291 Tb281 2.322 . S
O291 C300 1.257 . S
O292 Tb281 2.349 . S
O292 C303 1.261 . S
O293 Tb280 2.303 . S
O293 C303 1.257 . S
O294 Tb281 2.415 . S
O294 C310 1.239 . S
O295 Tb281 2.399 . S
O295 C310 1.263 . S
O296 Tb281 2.325 . S
O296 C311 1.236 . S
O297 Tb280 2.322 . S
O297 C311 1.257 . S
O298 Tb280 2.349 . S
O298 C282 1.261 . S
O299 Tb281 2.303 . S
O299 C282 1.257 . S
C300 O290 1.236 . S
C300 O291 1.257 . S
O301 Tb280 2.415 . S
O301 C289 1.239 1_655 S
O302 Tb280 2.399 1_455 S
O302 C289 1.263 . S
C303 O292 1.261 . S
C303 O293 1.257 . S
C304 C307 1.358 . S
C304 C308 1.332 . S
C304 C310 1.504 . S
C305 C306 1.373 . S
C305 C309 1.308 . S
C306 C305 1.373 . S
C306 C307 1.429 . S
C306 H316 0.932 . S
C307 C304 1.358 . S
C307 C306 1.429 . S
C307 H317 0.930 . S
C308 C304 1.332 . S
C308 C309 1.394 . S
C308 H318 0.932 . S
C309 C305 1.308 . S
C309 C308 1.394 . S
C309 H319 0.929 . S
C310 Tb281 2.764 . S
C310 O294 1.239 . S
C310 O295 1.263 . S
C310 C304 1.504 . S
C311 O296 1.236 . S
C311 O297 1.257 . S
H312 C285 0.932 . S
H313 C286 0.930 . S
H314 C287 0.932 . S
H315 C288 0.929 . S
H316 C306 0.932 . S
H317 C307 0.930 . S
H318 C308 0.932 . S
H319 C309 0.929 . S
Tb320 C329 2.764 . S
Tb320 O330 2.325 . S
Tb320 O333 2.303 . S
Tb320 O337 2.322 . S
Tb320 O338 2.349 . S
Tb320 O341 2.415 . S
Tb320 O342 2.399 . S
Tb321 O331 2.322 . S
Tb321 O332 2.349 . S
Tb321 O334 2.415 . S
Tb321 O335 2.399 . S
Tb321 O336 2.325 . S
Tb321 O339 2.303 . S
Tb321 C350 2.764 . S
C322 O338 1.261 . S
C322 O339 1.257 . S
C323 C326 1.358 . S
C323 C327 1.332 . S
C323 C329 1.504 . S
C324 C325 1.373 . S
C324 C328 1.308 . S
C325 C324 1.373 . S
C325 C326 1.429 . S
C325 H352 0.932 . S
C326 C323 1.358 . S
C326 C325 1.429 . S
C326 H353 0.930 . S
C327 C323 1.332 . S
C327 C328 1.394 . S
C327 H354 0.932 . S
C328 C324 1.308 . S
C328 C327 1.394 . S
C328 H355 0.929 . S
C329 Tb320 2.764 . S
C329 C323 1.504 . S
C329 O341 1.239 . S
C329 O342 1.263 . S
O330 Tb320 2.325 . S
O330 C340 1.236 . S
O331 Tb321 2.322 . S
O331 C340 1.257 . S
O332 Tb321 2.349 . S
O332 C343 1.261 . S
O333 Tb320 2.303 . S
O333 C343 1.257 . S
O334 Tb321 2.415 . S
O334 C350 1.239 . S
O335 Tb321 2.399 . S
O335 C350 1.263 . S
O336 Tb321 2.325 . S
O336 C351 1.236 . S
O337 Tb320 2.322 . S
O337 C351 1.257 . S
O338 Tb320 2.349 . S
O338 C322 1.261 . S
O339 Tb321 2.303 . S
O339 C322 1.257 . S
C340 O330 1.236 . S
C340 O331 1.257 . S
O341 Tb320 2.415 . S
O341 C329 1.239 . S
O342 Tb320 2.399 . S
O342 C329 1.263 . S
C343 O332 1.261 . S
C343 O333 1.257 . S
C344 C347 1.355 1_655 S
C344 C348 1.332 . S
C344 C350 1.504 . S
C345 C346 1.373 . S
C345 C349 1.308 . S
C346 C345 1.373 . S
C346 C347 1.432 . S
C346 H356 0.932 . S
C347 C344 1.355 1_455 S
C347 C346 1.432 . S
C347 H357 0.930 1_455 S
C348 C344 1.332 . S
C348 C349 1.394 1_655 S
C348 H358 0.932 . S
C349 C345 1.308 . S
C349 C348 1.394 1_455 S
C349 H359 0.929 . S
C350 Tb321 2.764 . S
C350 O334 1.239 . S
C350 O335 1.263 . S
C350 C344 1.504 . S
C351 O336 1.236 . S
C351 O337 1.257 . S
H352 C325 0.932 . S
H353 C326 0.930 . S
H354 C327 0.932 . S
H355 C328 0.929 . S
H356 C346 0.932 . S
H357 C347 0.930 1_655 S
H358 C348 0.932 . S
H359 C349 0.929 . S
C360 C361 1.387 1_554 S
C360 H364 0.950 . S
C360 C369 1.390 . S
C361 C360 1.387 1_556 S
C361 C363 1.387 . S
H362 C369 0.950 . S
C363 C361 1.387 . S
C363 C365 1.390 . S
C363 H367 0.950 . S
H364 C360 0.950 . S
C365 C363 1.390 . S
C365 C366 1.387 . S
C365 H368 0.950 . S
C366 C365 1.387 . S
C366 C369 1.387 1_556 S
H367 C363 0.950 . S
H368 C365 0.950 . S
C369 C360 1.390 . S
C369 H362 0.950 . S
C369 C366 1.387 1_554 S
C370 C371 1.387 1_556 S
C370 H374 0.950 . S
C370 C379 1.390 . S
C371 C370 1.387 1_554 S
C371 C373 1.387 . S
H372 C379 0.950 . S
C373 C371 1.387 . S
C373 C375 1.390 . S
C373 H377 0.950 . S
H374 C370 0.950 . S
C375 C373 1.390 . S
C375 C376 1.377 1_554 S
C375 H378 0.950 . S
C376 C375 1.377 1_556 S
C376 C379 1.398 . S
H377 C373 0.950 . S
H378 C375 0.950 . S
C379 C370 1.390 . S
C379 H372 0.950 . S
C379 C376 1.398 . S
C380 C381 1.391 . S
C380 H384 0.950 . S
C380 C389 1.390 . S
C381 C380 1.391 . S
C381 C383 1.382 1_556 S
H382 C389 0.950 . S
C383 C381 1.382 1_554 S
C383 C385 1.390 . S
C383 H387 0.950 . S
H384 C380 0.950 . S
C385 C383 1.390 . S
C385 C386 1.387 . S
C385 H388 0.950 . S
C386 C385 1.387 . S
C386 C389 1.387 1_554 S
H387 C383 0.950 . S
H388 C385 0.950 . S
C389 C380 1.390 . S
C389 H382 0.950 . S
C389 C386 1.387 1_556 S
C390 C391 1.387 1_556 S
C390 H394 0.950 . S
C390 C399 1.390 . S
C391 C390 1.387 1_554 S
C391 C393 1.387 . S
H392 C399 0.950 . S
C393 C391 1.387 . S
C393 C395 1.390 . S
C393 H397 0.950 . S
H394 C390 0.950 . S
C395 C393 1.390 . S
C395 C396 1.387 . S
C395 H398 0.950 . S
C396 C395 1.387 . S
C396 C399 1.387 1_554 S
H397 C393 0.950 . S
H398 C395 0.950 . S
C399 C390 1.390 . S
C399 H392 0.950 . S
C399 C396 1.387 1_556 S
C400 C401 1.387 . S
C400 H404 0.950 1_554 S
C400 C409 1.390 . S
C401 C400 1.387 . S
C401 C403 1.387 . S
H402 C409 0.950 1_556 S
C403 C401 1.387 . S
C403 C405 1.390 . S
C403 H407 0.950 . S
H404 C400 0.950 1_556 S
C405 C403 1.390 . S
C405 C406 1.387 . S
C405 H408 0.950 . S
C406 C405 1.387 . S
C406 C409 1.387 . S
H407 C403 0.950 . S
H408 C405 0.950 . S
C409 C400 1.390 . S
C409 H402 0.950 1_554 S
C409 C406 1.387 . S
C410 C411 1.387 . S
C410 H414 0.950 . S
C410 C419 1.390 . S
C411 C410 1.387 . S
C411 C413 1.387 . S
H412 C419 0.950 . S
C413 C411 1.387 . S
C413 C415 1.390 . S
C413 H417 0.950 . S
H414 C410 0.950 . S
C415 C413 1.390 . S
C415 C416 1.387 . S
C415 H418 0.950 . S
C416 C415 1.387 . S
C416 C419 1.387 . S
H417 C413 0.950 . S
H418 C415 0.950 . S
C419 C410 1.390 . S
C419 H412 0.950 . S
C419 C416 1.387 . S
C420 C421 1.387 . S
C420 H424 0.950 . S
C420 C429 1.390 1_655 S
C421 C420 1.387 . S
C421 C423 1.387 . S
H422 C429 0.950 . S
C423 C421 1.387 . S
C423 C425 1.390 1_655 S
C423 H427 0.950 . S
H424 C420 0.950 . S
C425 C423 1.390 1_455 S
C425 C426 1.387 . S
C425 H428 0.950 . S
C426 C425 1.387 . S
C426 C429 1.387 . S
H427 C423 0.950 . S
H428 C425 0.950 . S
C429 C420 1.390 1_455 S
C429 H422 0.950 . S
C429 C426 1.387 . S
C430 C431 1.387 . S
C430 H434 0.950 . S
C430 C439 1.390 . S
C431 C430 1.387 . S
C431 C433 1.387 . S
H432 C439 0.950 . S
C433 C431 1.387 . S
C433 C435 1.390 . S
C433 H437 0.950 . S
H434 C430 0.950 . S
C435 C433 1.390 . S
C435 C436 1.387 . S
C435 H438 0.950 . S
C436 C435 1.387 . S
C436 C439 1.387 . S
H437 C433 0.950 . S
H438 C435 0.950 . S
C439 C430 1.390 . S
C439 H432 0.950 . S
C439 C436 1.387 . S
C440 C441 1.387 1_565 S
C440 H444 0.950 1_565 S
C440 C449 1.390 . S
C441 C440 1.387 1_545 S
C441 C443 1.387 1_545 S
H442 C449 0.950 . S
C443 C441 1.387 1_565 S
C443 C445 1.390 . S
C443 H447 0.950 . S
H444 C440 0.950 1_545 S
C445 C443 1.390 . S
C445 C446 1.387 . S
C445 H448 0.950 . S
C446 C445 1.387 . S
C446 C449 1.387 . S
H447 C443 0.950 . S
H448 C445 0.950 . S
C449 C440 1.390 . S
C449 H442 0.950 . S
C449 C446 1.387 . S
C450 C451 1.387 . S
C450 H454 0.950 . S
C450 C459 1.390 . S
C451 C450 1.387 . S
C451 C453 1.387 . S
H452 C459 0.950 . S
C453 C451 1.387 . S
C453 C455 1.390 . S
C453 H457 0.950 . S
H454 C450 0.950 . S
C455 C453 1.390 . S
C455 C456 1.387 . S
C455 H458 0.950 . S
C456 C455 1.387 . S
C456 C459 1.387 . S
H457 C453 0.950 . S
H458 C455 0.950 . S
C459 C450 1.390 . S
C459 H452 0.950 . S
C459 C456 1.387 . S
C460 C461 1.387 . S
C460 H464 0.950 . S
C460 C469 1.390 . S
C461 C460 1.387 . S
C461 C463 1.387 . S
H462 C469 0.950 . S
C463 C461 1.387 . S
C463 C465 1.390 . S
C463 H467 0.950 . S
H464 C460 0.950 . S
C465 C463 1.390 . S
C465 C466 1.387 . S
C465 H468 0.950 . S
C466 C465 1.387 . S
C466 C469 1.387 . S
H467 C463 0.950 . S
H468 C465 0.950 . S
C469 C460 1.390 . S
C469 H462 0.950 . S
C469 C466 1.387 . S
C470 C471 1.387 . S
C470 H474 0.950 . S
C470 C479 1.390 . S
C471 C470 1.387 . S
C471 C473 1.387 . S
H472 C479 0.950 . S
C473 C471 1.387 . S
C473 C475 1.390 . S
C473 H477 0.950 . S
H474 C470 0.950 . S
C475 C473 1.390 . S
C475 C476 1.387 . S
C475 H478 0.950 . S
C476 C475 1.387 . S
C476 C479 1.387 . S
H477 C473 0.950 . S
H478 C475 0.950 . S
C479 C470 1.390 . S
C479 H472 0.950 . S
C479 C476 1.387 . S
C480 C481 1.387 . S
C480 H484 0.950 . S
C480 C489 1.390 . S
C481 C480 1.387 . S
C481 C483 1.387 . S
H482 C489 0.950 . S
C483 C481 1.387 . S
C483 C485 1.390 . S
C483 H487 0.950 . S
H484 C480 0.950 . S
C485 C483 1.390 . S
C485 C486 1.387 . S
C485 H488 0.950 . S
C486 C485 1.387 . S
C486 C489 1.387 . S
H487 C483 0.950 . S
H488 C485 0.950 . S
C489 C480 1.390 . S
C489 H482 0.950 . S
C489 C486 1.387 . S
C490 C491 1.387 . S
C490 H494 0.950 . S
C490 C499 1.390 . S
C491 C490 1.387 . S
C491 C493 1.387 . S
H492 C499 0.950 . S
C493 C491 1.387 . S
C493 C495 1.390 . S
C493 H497 0.950 . S
H494 C490 0.950 . S
C495 C493 1.390 . S
C495 C496 1.387 . S
C495 H498 0.950 . S
C496 C495 1.387 . S
C496 C499 1.387 . S
H497 C493 0.950 . S
H498 C495 0.950 . S
C499 C490 1.390 . S
C499 H492 0.950 . S
C499 C496 1.387 . S
C500 C501 1.387 . S
C500 H504 0.950 . S
C500 C509 1.390 . S
C501 C500 1.387 . S
C501 C503 1.387 . S
H502 C509 0.950 . S
C503 C501 1.387 . S
C503 C505 1.390 . S
C503 H507 0.950 . S
H504 C500 0.950 . S
C505 C503 1.390 . S
C505 C506 1.387 . S
C505 H508 0.950 . S
C506 C505 1.387 . S
C506 C509 1.387 . S
H507 C503 0.950 . S
H508 C505 0.950 . S
C509 C500 1.390 . S
C509 H502 0.950 . S
C509 C506 1.387 . S
C510 C511 1.387 . S
C510 H514 0.950 . S
C510 C519 1.390 . S
C511 C510 1.387 . S
C511 C513 1.387 . S
H512 C519 0.950 . S
C513 C511 1.387 . S
C513 C515 1.390 . S
C513 H517 0.950 . S
H514 C510 0.950 . S
C515 C513 1.390 . S
C515 C516 1.387 1_565 S
C515 H518 0.950 1_565 S
C516 C515 1.387 1_545 S
C516 C519 1.387 1_545 S
H517 C513 0.950 . S
H518 C515 0.950 1_545 S
C519 C510 1.390 . S
C519 H512 0.950 . S
C519 C516 1.387 1_565 S
C520 C521 1.387 . S
C520 H524 0.950 . S
C520 C529 1.390 . S
C521 C520 1.387 . S
C521 C523 1.387 1_565 S
H522 C529 0.950 . S
C523 C521 1.387 1_545 S
C523 C525 1.390 . S
C523 H527 0.950 . S
H524 C520 0.950 . S
C525 C523 1.390 . S
C525 C526 1.387 1_545 S
C525 H528 0.950 . S
C526 C525 1.387 1_565 S
C526 C529 1.387 . S
H527 C523 0.950 . S
H528 C525 0.950 . S
C529 C520 1.390 . S
C529 H522 0.950 . S
C529 C526 1.387 . S
C530 C531 1.387 . S
C530 H534 0.950 . S
C530 C539 1.390 . S
C531 C530 1.387 . S
C531 C533 1.387 . S
H532 C539 0.950 . S
C533 C531 1.387 . S
C533 C535 1.390 . S
C533 H537 0.950 . S
H534 C530 0.950 . S
C535 C533 1.390 . S
C535 C536 1.387 . S
C535 H538 0.950 . S
C536 C535 1.387 . S
C536 C539 1.387 . S
H537 C533 0.950 . S
H538 C535 0.950 . S
C539 C530 1.390 . S
C539 H532 0.950 . S
C539 C536 1.387 . S
C540 C541 1.387 . S
C540 H544 0.950 . S
C540 C549 1.390 . S
C541 C540 1.387 . S
C541 C543 1.387 . S
H542 C549 0.950 . S
C543 C541 1.387 . S
C543 C545 1.390 . S
C543 H547 0.950 . S
H544 C540 0.950 . S
C545 C543 1.390 . S
C545 C546 1.387 . S
C545 H548 0.950 . S
C546 C545 1.387 . S
C546 C549 1.387 . S
H547 C543 0.950 . S
H548 C545 0.950 . S
C549 C540 1.390 . S
C549 H542 0.950 . S
C549 C546 1.387 . S
C550 C551 1.387 . S
C550 H554 0.950 . S
C550 C559 1.390 . S
C551 C550 1.387 . S
C551 C553 1.387 . S
H552 C559 0.950 . S
C553 C551 1.387 . S
C553 C555 1.390 . S
C553 H557 0.950 . S
H554 C550 0.950 . S
C555 C553 1.390 . S
C555 C556 1.387 . S
C555 H558 0.950 . S
C556 C555 1.387 . S
C556 C559 1.387 . S
H557 C553 0.950 . S
H558 C555 0.950 . S
C559 C550 1.390 . S
C559 H552 0.950 . S
C559 C556 1.387 . S
C560 C561 1.387 . S
C560 H564 0.950 1_565 S
C560 C569 1.390 . S
C561 C560 1.387 . S
C561 C563 1.387 . S
H562 C569 0.950 . S
C563 C561 1.387 . S
C563 C565 1.390 . S
C563 H567 0.950 . S
H564 C560 0.950 1_545 S
C565 C563 1.390 . S
C565 C566 1.387 . S
C565 H568 0.950 . S
C566 C565 1.387 . S
C566 C569 1.387 . S
H567 C563 0.950 . S
H568 C565 0.950 . S
C569 C560 1.390 . S
C569 H562 0.950 . S
C569 C566 1.387 . S
C570 C571 1.387 . S
C570 H574 0.950 1_545 S
C570 C579 1.390 . S
C571 C570 1.387 . S
C571 C573 1.387 . S
H572 C579 0.950 . S
C573 C571 1.387 . S
C573 C575 1.390 . S
C573 H577 0.950 . S
H574 C570 0.950 1_565 S
C575 C573 1.390 . S
C575 C576 1.387 . S
C575 H578 0.950 . S
C576 C575 1.387 . S
C576 C579 1.387 . S
H577 C573 0.950 . S
H578 C575 0.950 . S
C579 C570 1.390 . S
C579 H572 0.950 . S
C579 C576 1.387 . S
C580 C581 1.387 . S
C580 H584 0.950 . S
C580 C589 1.390 . S
C581 C580 1.387 . S
C581 C583 1.387 . S
H582 C589 0.950 . S
C583 C581 1.387 . S
C583 C585 1.390 . S
C583 H587 0.950 . S
H584 C580 0.950 . S
C585 C583 1.390 . S
C585 C586 1.387 . S
C585 H588 0.950 . S
C586 C585 1.387 . S
C586 C589 1.387 . S
H587 C583 0.950 . S
H588 C585 0.950 . S
C589 C580 1.390 . S
C589 H582 0.950 . S
C589 C586 1.387 . S
C590 C591 1.387 . S
C590 H594 0.950 . S
C590 C599 1.390 . S
C591 C590 1.387 . S
C591 C593 1.387 . S
H592 C599 0.950 . S
C593 C591 1.387 . S
C593 C595 1.390 . S
C593 H597 0.950 . S
H594 C590 0.950 . S
C595 C593 1.390 . S
C595 C596 1.387 . S
C595 H598 0.950 . S
C596 C595 1.387 . S
C596 C599 1.387 . S
H597 C593 0.950 . S
H598 C595 0.950 . S
C599 C590 1.390 . S
C599 H592 0.950 . S
C599 C596 1.387 . S
C600 C601 1.387 . S
C600 H604 0.950 . S
C600 C609 1.390 . S
C601 C600 1.387 . S
C601 C603 1.387 . S
H602 C609 0.950 . S
C603 C601 1.387 . S
C603 C605 1.390 . S
C603 H607 0.950 . S
H604 C600 0.950 . S
C605 C603 1.390 . S
C605 C606 1.387 . S
C605 H608 0.950 . S
C606 C605 1.387 . S
C606 C609 1.387 . S
H607 C603 0.950 . S
H608 C605 0.950 . S
C609 C600 1.390 . S
C609 H602 0.950 . S
C609 C606 1.387 . S
C610 C611 1.387 . S
C610 H614 0.950 . S
C610 C619 1.390 1_565 S
C611 C610 1.387 . S
C611 C613 1.387 . S
H612 C619 0.950 . S
C613 C611 1.387 . S
C613 C615 1.390 1_565 S
C613 H617 0.950 . S
H614 C610 0.950 . S
C615 C613 1.390 1_545 S
C615 C616 1.387 . S
C615 H618 0.950 . S
C616 C615 1.387 . S
C616 C619 1.387 . S
H617 C613 0.950 . S
H618 C615 0.950 . S
C619 C610 1.390 1_545 S
C619 H612 0.950 . S
C619 C616 1.387 . S
C620 C621 1.387 1_455 S
C620 H624 0.950 . S
C620 C629 1.390 . S
C621 C620 1.387 1_655 S
C621 C623 1.387 . S
H622 C629 0.950 . S
C623 C621 1.387 . S
C623 C625 1.390 1_655 S
C623 H627 0.950 . S
H624 C620 0.950 . S
C625 C623 1.390 1_455 S
C625 C626 1.387 . S
C625 H628 0.950 . S
C626 C625 1.387 . S
C626 C629 1.387 . S
H627 C623 0.950 . S
H628 C625 0.950 . S
C629 C620 1.390 . S
C629 H622 0.950 . S
C629 C626 1.387 . S
C361 C65 1.018 . S
C366 C4 0.931 1_556 S
C371 C100 3.506 . S
C376 C71 3.558 . S
C381 C84 1.068 1_556 S
C386 C20 1.069 . S
C391 C111 3.125 . S
C396 C60 3.097 . S
C401 C105 2.331 . S
C406 C31 2.331 . S
C411 C25 0.794 . S
C416 C44 0.852 . S
C421 C124 2.964 . S
C426 C180 3.013 . S
C431 C220 1.198 . S
C436 C164 1.238 . S
C441 C204 0.898 . S
C446 C140 0.898 . S
C451 C185 0.705 . S
C456 C231 0.689 . S
C461 C225 2.385 . S
C466 C151 2.385 . S
C471 C191 2.401 . S
C476 C145 2.407 . S
C481 C305 0.991 . S
C486 C244 0.906 . S
C491 C311 3.590 . S
C496 C340 3.539 . S
C501 C324 1.090 . S
C506 C260 1.091 . S
C511 C351 3.061 . S
C516 C300 3.033 . S
C521 C345 2.352 . S
C526 C271 2.352 1_565 S
C531 C265 0.796 . S
C536 C284 0.862 . S
C541 C202 2.366 . S
C546 C23 2.752 . S
C551 C122 2.019 . S
C556 C42 1.953 . S
C561 C103 3.193 . S
C566 C162 2.946 . S
C571 C82 2.376 . S
C576 C263 2.757 . S
C581 C2 1.971 . S
C586 C282 1.899 . S
C591 C343 3.166 . S
C596 C63 3.197 . S
C601 C143 2.823 . S
C606 C322 2.442 . S
C611 C183 2.170 . S
C616 C242 1.988 . S
C621 C303 3.154 . S
C626 C223 3.118 . S
