# Generated by pormake.
# Topology whw, (6)-cn, num edge types: 1
# Building blocks:
#     Node 0, Type 0, BuildingBlock: GEDQOX_clean_sbu_0, # of connection points: 6
#     Node 1, Type 0, BuildingBlock: GEDQOX_clean_sbu_0, # of connection points: 6
#     Node 2, Type 0, BuildingBlock: GEDQOX_clean_sbu_0, # of connection points: 6
#     Node 3, Type 0, BuildingBlock: GEDQOX_clean_sbu_0, # of connection points: 6
#     Node 4, Type 0, BuildingBlock: GEDQOX_clean_sbu_0, # of connection points: 6
#     Node 5, Type 0, BuildingBlock: GEDQOX_clean_sbu_0, # of connection points: 6
#     Node 6, Type 0, BuildingBlock: GEDQOX_clean_sbu_0, # of connection points: 6
#     Node 7, Type 0, BuildingBlock: GEDQOX_clean_sbu_0, # of connection points: 6
#     Node 8, Type 0, BuildingBlock: GEDQOX_clean_sbu_0, # of connection points: 6
#     Node 9, Type 0, BuildingBlock: GEDQOX_clean_sbu_0, # of connection points: 6
#     Node 10, Type 0, BuildingBlock: GEDQOX_clean_sbu_0, # of connection points: 6
#     Node 11, Type 0, BuildingBlock: GEDQOX_clean_sbu_0, # of connection points: 6
#     Node 12, Type 0, BuildingBlock: GEDQOX_clean_sbu_0, # of connection points: 6
#     Node 13, Type 0, BuildingBlock: GEDQOX_clean_sbu_0, # of connection points: 6
#     Node 14, Type 0, BuildingBlock: GEDQOX_clean_sbu_0, # of connection points: 6
#     Node 15, Type 0, BuildingBlock: GEDQOX_clean_sbu_0, # of connection points: 6
#     Edge 16, Type (0, 0), BuildingBlock: KIFKEQ_clean_linker_1, # of connection points: 2
#     Edge 17, Type (0, 0), BuildingBlock: KIFKEQ_clean_linker_1, # of connection points: 2
#     Edge 18, Type (0, 0), BuildingBlock: KIFKEQ_clean_linker_1, # of connection points: 2
#     Edge 19, Type (0, 0), BuildingBlock: KIFKEQ_clean_linker_1, # of connection points: 2
#     Edge 20, Type (0, 0), BuildingBlock: KIFKEQ_clean_linker_1, # of connection points: 2
#     Edge 21, Type (0, 0), BuildingBlock: KIFKEQ_clean_linker_1, # of connection points: 2
#     Edge 22, Type (0, 0), BuildingBlock: KIFKEQ_clean_linker_1, # of connection points: 2
#     Edge 23, Type (0, 0), BuildingBlock: KIFKEQ_clean_linker_1, # of connection points: 2
#     Edge 24, Type (0, 0), BuildingBlock: KIFKEQ_clean_linker_1, # of connection points: 2
#     Edge 25, Type (0, 0), BuildingBlock: KIFKEQ_clean_linker_1, # of connection points: 2
#     Edge 26, Type (0, 0), BuildingBlock: KIFKEQ_clean_linker_1, # of connection points: 2
#     Edge 27, Type (0, 0), BuildingBlock: KIFKEQ_clean_linker_1, # of connection points: 2
#     Edge 28, Type (0, 0), BuildingBlock: KIFKEQ_clean_linker_1, # of connection points: 2
#     Edge 29, Type (0, 0), BuildingBlock: KIFKEQ_clean_linker_1, # of connection points: 2
#     Edge 30, Type (0, 0), BuildingBlock: KIFKEQ_clean_linker_1, # of connection points: 2
#     Edge 31, Type (0, 0), BuildingBlock: KIFKEQ_clean_linker_1, # of connection points: 2
#     Edge 32, Type (0, 0), BuildingBlock: KIFKEQ_clean_linker_1, # of connection points: 2
#     Edge 33, Type (0, 0), BuildingBlock: KIFKEQ_clean_linker_1, # of connection points: 2
#     Edge 34, Type (0, 0), BuildingBlock: KIFKEQ_clean_linker_1, # of connection points: 2
#     Edge 35, Type (0, 0), BuildingBlock: KIFKEQ_clean_linker_1, # of connection points: 2
#     Edge 36, Type (0, 0), BuildingBlock: KIFKEQ_clean_linker_1, # of connection points: 2
#     Edge 37, Type (0, 0), BuildingBlock: KIFKEQ_clean_linker_1, # of connection points: 2
#     Edge 38, Type (0, 0), BuildingBlock: KIFKEQ_clean_linker_1, # of connection points: 2
#     Edge 39, Type (0, 0), BuildingBlock: KIFKEQ_clean_linker_1, # of connection points: 2
#     Edge 40, Type (0, 0), BuildingBlock: KIFKEQ_clean_linker_1, # of connection points: 2
#     Edge 41, Type (0, 0), BuildingBlock: KIFKEQ_clean_linker_1, # of connection points: 2
#     Edge 42, Type (0, 0), BuildingBlock: KIFKEQ_clean_linker_1, # of connection points: 2
#     Edge 43, Type (0, 0), BuildingBlock: KIFKEQ_clean_linker_1, # of connection points: 2
#     Edge 44, Type (0, 0), BuildingBlock: KIFKEQ_clean_linker_1, # of connection points: 2
#     Edge 45, Type (0, 0), BuildingBlock: KIFKEQ_clean_linker_1, # of connection points: 2
#     Edge 46, Type (0, 0), BuildingBlock: KIFKEQ_clean_linker_1, # of connection points: 2
#     Edge 47, Type (0, 0), BuildingBlock: KIFKEQ_clean_linker_1, # of connection points: 2
#     Edge 48, Type (0, 0), BuildingBlock: KIFKEQ_clean_linker_1, # of connection points: 2
#     Edge 49, Type (0, 0), BuildingBlock: KIFKEQ_clean_linker_1, # of connection points: 2
#     Edge 50, Type (0, 0), BuildingBlock: KIFKEQ_clean_linker_1, # of connection points: 2
#     Edge 51, Type (0, 0), BuildingBlock: KIFKEQ_clean_linker_1, # of connection points: 2
#     Edge 52, Type (0, 0), BuildingBlock: KIFKEQ_clean_linker_1, # of connection points: 2
#     Edge 53, Type (0, 0), BuildingBlock: KIFKEQ_clean_linker_1, # of connection points: 2
#     Edge 54, Type (0, 0), BuildingBlock: KIFKEQ_clean_linker_1, # of connection points: 2
#     Edge 55, Type (0, 0), BuildingBlock: KIFKEQ_clean_linker_1, # of connection points: 2
#     Edge 56, Type (0, 0), BuildingBlock: KIFKEQ_clean_linker_1, # of connection points: 2
#     Edge 57, Type (0, 0), BuildingBlock: KIFKEQ_clean_linker_1, # of connection points: 2
#     Edge 58, Type (0, 0), BuildingBlock: KIFKEQ_clean_linker_1, # of connection points: 2
#     Edge 59, Type (0, 0), BuildingBlock: KIFKEQ_clean_linker_1, # of connection points: 2
#     Edge 60, Type (0, 0), BuildingBlock: KIFKEQ_clean_linker_1, # of connection points: 2
#     Edge 61, Type (0, 0), BuildingBlock: KIFKEQ_clean_linker_1, # of connection points: 2
#     Edge 62, Type (0, 0), BuildingBlock: KIFKEQ_clean_linker_1, # of connection points: 2
#     Edge 63, Type (0, 0), BuildingBlock: KIFKEQ_clean_linker_1, # of connection points: 2
# Relax obj value: 0.230
# Max RMSD: 0.193
# Mean RMSD: 0.193
data_MOF--net-whw--node1-GEDQOX_clean_sbu_0--edge1-KIFKEQ_clean_linker_1
_symmetry_space_group_name_H-M    P1
_symmetry_Int_Tables_number       1
_symmetry_cell_setting            triclinic
loop_
_symmetry_equiv_pos_as_xyz
'x, y, z'
_cell_length_a     47.673911
_cell_length_b     47.674584
_cell_length_c     35.496822
_cell_angle_alpha  89.904596
_cell_angle_beta   90.028329
_cell_angle_gamma 89.91813
loop_
_atom_site_label
_atom_site_type_symbol
_atom_site_fract_x
_atom_site_fract_y
_atom_site_fract_z
_atom_type_partial_charge
Nd0 Nd 0.98248 0.09293 0.13406 0.0
Nd1 Nd 0.04073 0.09403 0.17468 0.0
C2 C 0.94203 0.08498 0.08399 0.0
C3 C 0.93456 0.09667 0.04652 0.0
C4 C 0.93179 0.07867 1.01545 0.0
C5 C 0.92509 0.08936 0.97973 0.0
C6 C 0.92083 0.11831 0.97433 0.0
C7 C 0.92368 0.1363 1.0055 0.0
C8 C 0.93055 0.12564 0.04112 0.0
C9 C -0.00615 0.14112 0.17138 0.0
C10 C 0.04058 0.1116 0.08672 0.0
C11 C 0.08282 0.10241 0.22222 0.0
C12 C 0.08852 0.11349 0.26064 0.0
C13 C 0.08861 0.1425 0.2678 0.0
C14 C 0.09582 0.15279 0.30343 0.0
C15 C 0.10313 0.13441 0.33298 0.0
C16 C 0.1028 0.10537 0.32585 0.0
C17 C 0.09567 0.09507 0.29012 0.0
C18 C 0.02738 0.04509 0.13823 0.0
C19 C 0.98199 0.08398 0.22289 0.0
O20 O 0.96471 0.06957 0.08548 0.0
O21 O 0.93947 0.10154 0.11318 0.0
O22 O 0.96862 0.13147 0.16697 0.0
O23 O 0.0116 0.1273 0.15264 0.0
O24 O 0.01351 0.10533 0.08672 0.0
O25 O 0.056 0.11048 0.11766 0.0
O26 O 0.07538 0.12043 0.19613 0.0
O27 O 0.06943 0.07851 0.21957 0.0
O28 O 0.05272 0.05506 0.13975 0.0
O29 O 0.01092 0.05994 0.15745 0.0
O30 O 0.00764 0.09456 0.22193 0.0
O31 O 0.96867 0.07628 0.19181 0.0
H32 H 0.93482 0.05627 1.01881 0.0
H33 H 0.92284 0.07488 0.95645 0.0
H34 H 0.92096 0.15873 1.00227 0.0
H35 H 0.93282 0.14016 0.06435 0.0
H36 H 0.08353 0.1574 0.24575 0.0
H37 H 0.09627 0.17529 0.3075 0.0
H38 H 0.10795 0.09052 0.34791 0.0
H39 H 0.09603 0.07262 0.28545 0.0
Nd40 Nd 0.14269 0.72364 0.37638 0.0
Nd41 Nd 0.13459 0.78115 0.41775 0.0
C42 C 0.15611 0.68522 0.3256 0.0
C43 C 0.14585 0.6789 0.28719 0.0
C44 C 0.16326 0.66528 0.26111 0.0
C45 C 0.15323 0.65856 0.22504 0.0
C46 C 0.12551 0.66521 0.21449 0.0
C47 C 0.10839 0.67945 0.24052 0.0
C48 C 0.11848 0.68633 0.27637 0.0
C49 C 0.09279 0.72963 0.41176 0.0
C50 C 0.1191 0.78046 0.32919 0.0
C51 C 0.12314 0.82238 0.46545 0.0
C52 C 0.1136 0.82776 0.50466 0.0
C53 C 0.08663 0.82005 0.51689 0.0
C54 C 0.07717 0.8276 0.55286 0.0
C55 C 0.09443 0.84294 0.57757 0.0
C56 C 0.12169 0.84989 0.56572 0.0
C57 C 0.13109 0.84251 0.52962 0.0
C58 C 0.18457 0.77311 0.38081 0.0
C59 C 0.14875 0.72298 0.46602 0.0
O60 O 0.17002 0.70866 0.32967 0.0
O61 O 0.1383 0.68083 0.35302 0.0
O62 O 0.10491 0.7055 0.40708 0.0
O63 O 0.10518 0.74897 0.39403 0.0
O64 O 0.12876 0.75434 0.32897 0.0
O65 O 0.11694 0.79514 0.36068 0.0
O66 O 0.10489 0.81225 0.44142 0.0
O67 O 0.14836 0.81198 0.46091 0.0
O68 O 0.17149 0.79701 0.38188 0.0
O69 O 0.17191 0.75528 0.40066 0.0
O70 O 0.13627 0.7478 0.46468 0.0
O71 O 0.15838 0.71053 0.4352 0.0
H72 H 0.18452 0.65957 0.26877 0.0
H73 H 0.16694 0.64753 0.20576 0.0
H74 H 0.08714 0.68535 0.23313 0.0
H75 H 0.10478 0.69726 0.29579 0.0
H76 H 0.0726 0.8086 0.4985 0.0
H77 H 0.0562 0.82152 0.56127 0.0
H78 H 0.13546 0.86185 0.58387 0.0
H79 H 0.15189 0.84891 0.52088 0.0
Nd80 Nd 0.51131 0.88473 0.63679 0.0
Nd81 Nd 0.45277 0.88007 0.67569 0.0
C82 C 0.5516 0.8942 0.58705 0.0
C83 C 0.55855 0.8832 0.5489 0.0
C84 C 0.55158 0.89853 0.51628 0.0
C85 C 0.55781 0.88794 0.48036 0.0
C86 C 0.57131 0.86183 0.47615 0.0
C87 C 0.57833 0.84662 0.50885 0.0
C88 C 0.57213 0.85717 0.54466 0.0
C89 C 0.50317 0.83684 0.67665 0.0
C90 C 0.45562 0.86063 0.58882 0.0
C91 C 0.40895 0.87129 0.72008 0.0
C92 C 0.40123 0.86345 0.75887 0.0
C93 C 0.42153 0.85601 0.78577 0.0
C94 C 0.41333 0.8475 0.822 0.0
C95 C 0.38471 0.84617 0.83182 0.0
C96 C 0.3646 0.85419 0.80482 0.0
C97 C 0.3728 0.86273 0.76878 0.0
C98 C 0.46253 0.92774 0.63424 0.0
C99 C 0.50961 0.89593 0.72529 0.0
O100 O 0.52928 0.91009 0.58999 0.0
O101 O 0.55422 0.8768 0.61539 0.0
O102 O 0.52755 0.84858 0.67277 0.0
O103 O 0.48474 0.84859 0.65647 0.0
O104 O 0.4819 0.86965 0.58893 0.0
O105 O 0.44013 0.86021 0.61968 0.0
O106 O 0.42046 0.85172 0.69934 0.0
O107 O 0.42035 0.896 0.71513 0.0
O108 O 0.43841 0.91517 0.63556 0.0
O109 O 0.47964 0.91596 0.65617 0.0
O110 O 0.48456 0.88399 0.72425 0.0
O111 O 0.52304 0.90344 0.69417 0.0
H112 H 0.54129 0.91874 0.5185 0.0
H113 H 0.55238 0.90043 0.45591 0.0
H114 H 0.58834 0.82628 0.50685 0.0
H115 H 0.57789 0.84474 0.56903 0.0
H116 H 0.44361 0.85639 0.77858 0.0
H117 H 0.42936 0.84124 0.84197 0.0
H118 H 0.34245 0.85384 0.81152 0.0
H119 H 0.35685 0.8685 0.74843 0.0
Nd120 Nd 0.34831 0.25476 0.88107 0.0
Nd121 Nd 0.35595 0.19709 0.92254 0.0
C122 C 0.33401 0.29313 0.83044 0.0
C123 C 0.34431 0.3015 0.79253 0.0
C124 C 0.32608 0.30112 0.76141 0.0
C125 C 0.33565 0.30874 0.72542 0.0
C126 C 0.36372 0.31698 0.71969 0.0
C127 C 0.38184 0.31738 0.75105 0.0
C128 C 0.37233 0.30966 0.78688 0.0
C129 C 0.39834 0.249 0.91621 0.0
C130 C 0.37308 0.19848 0.83435 0.0
C131 C 0.36598 0.15505 0.9698 0.0
C132 C 0.37689 0.14848 1.00816 0.0
C133 C 0.40546 0.14235 1.01378 0.0
C134 C 0.41525 0.13342 0.04905 0.0
C135 C 0.39675 0.13024 0.07968 0.0
C136 C 0.36827 0.13696 0.07425 0.0
C137 C 0.35846 0.14583 0.03893 0.0
C138 C 0.30626 0.20541 0.88473 0.0
C139 C 0.34311 0.25509 0.97097 0.0
O140 O 0.3217 0.26869 0.83296 0.0
O141 O 0.35041 0.29827 0.8592 0.0
O142 O 0.38674 0.27319 0.90979 0.0
O143 O 0.38572 0.22934 0.89944 0.0
O144 O 0.36358 0.22465 0.83389 0.0
O145 O 0.37439 0.18354 0.86578 0.0
O146 O 0.38388 0.16339 0.94412 0.0
O147 O 0.34167 0.16776 0.96719 0.0
O148 O 0.31924 0.1815 0.88611 0.0
O149 O 0.31882 0.2231 0.90483 0.0
O150 O 0.35563 0.23032 0.96942 0.0
O151 O 0.33305 0.2675 0.94027 0.0
H152 H 0.30441 0.29478 0.76489 0.0
H153 H 0.32111 0.30778 0.70202 0.0
H154 H 0.40343 0.32404 0.7481 0.0
H155 H 0.38701 0.31014 0.81016 0.0
H156 H 0.42026 0.14395 0.99074 0.0
H157 H 0.43739 0.1289 0.05227 0.0
H158 H 0.35334 0.13452 0.097 0.0
H159 H 0.33625 0.14998 0.03554 0.0
Nd160 Nd 0.94823 0.8839 0.87985 0.0
Nd161 Nd 0.00481 0.88946 0.92299 0.0
C162 C 0.90523 0.87524 0.83396 0.0
C163 C 0.89765 0.86384 0.7966 0.0
C164 C 0.91653 0.86409 0.76628 0.0
C165 C 0.90856 0.85345 0.73102 0.0
C166 C 0.88144 0.84246 0.7253 0.0
C167 C 0.86259 0.84251 0.75586 0.0
C168 C 0.87065 0.853 0.79105 0.0
C169 C 0.95721 0.93372 0.91769 0.0
C170 C 0.00749 0.88922 0.83097 0.0
C171 C 0.04893 0.90104 0.96508 0.0
C172 C 0.05838 0.88992 1.0023 0.0
C173 C 0.05849 0.90733 0.03427 0.0
C174 C 0.06554 0.89654 0.0699 0.0
C175 C 0.07282 0.86808 0.07447 0.0
C176 C 0.07302 0.85081 0.04233 0.0
C177 C 0.06587 0.86153 1.00682 0.0
C178 C 0.98795 0.8355 0.90963 0.0
C179 C 0.948 0.87178 0.96886 0.0
O180 O 0.91304 0.85722 0.8599 0.0
O181 O 0.91972 0.8986 0.83465 0.0
O182 O 0.93321 0.92108 0.91614 0.0
O183 O 0.9749 0.9205 0.89837 0.0
O184 O 0.98032 0.88354 0.83173 0.0
O185 O 0.02177 0.89501 0.86214 0.0
O186 O 0.0261 0.91642 0.96528 0.0
O187 O 0.04991 0.88381 0.93633 0.0
O188 O 0.00016 0.84352 0.94039 0.0
O189 O 0.9856 0.85566 0.88707 0.0
O190 O 0.97143 0.88662 0.96982 0.0
O191 O 0.9369 0.86351 0.93657 0.0
H192 H 0.93738 0.87257 0.76986 0.0
H193 H 0.92381 0.85351 0.70842 0.0
H194 H 0.84141 0.83474 0.75254 0.0
H195 H 0.85564 0.85282 0.81396 0.0
H196 H 0.05276 0.92926 0.03178 0.0
H197 H 0.06543 0.91058 0.09385 0.0
H198 H 0.07808 0.82872 0.0447 0.0
H199 H 0.06578 0.84735 0.98302 0.0
Nd200 Nd 0.35439 0.6973 0.12885 0.0
Nd201 Nd 0.35135 0.7543 0.17206 0.0
C202 C 0.36285 0.65591 0.08019 0.0
C203 C 0.37419 0.64971 0.04203 0.0
C204 C 0.40318 0.64629 0.03613 0.0
C205 C 0.41348 0.63768 1.00105 0.0
C206 C 0.3951 0.63218 0.9709 0.0
C207 C 0.36616 0.63624 0.97654 0.0
C208 C 0.35584 0.64475 1.01171 0.0
C209 C 0.30513 0.70816 0.16611 0.0
C210 C 0.34296 0.75678 0.0829 0.0
C211 C 0.34115 0.7935 0.22325 0.0
C212 C 0.35075 0.79927 0.26209 0.0
C213 C 0.35886 0.77735 0.28626 0.0
C214 C 0.36939 0.7831 0.32226 0.0
C215 C 0.37173 0.81092 0.33505 0.0
C216 C 0.36307 0.83281 0.31101 0.0
C217 C 0.35281 0.82702 0.27483 0.0
C218 C 0.39983 0.74614 0.13377 0.0
C219 C 0.37288 0.69581 0.21647 0.0
O220 O 0.38068 0.66267 0.10674 0.0
O221 O 0.33924 0.66989 0.08248 0.0
O222 O 0.31614 0.6833 0.16393 0.0
O223 O 0.31929 0.72556 0.14749 0.0
O224 O 0.35414 0.73133 0.08273 0.0
O225 O 0.33502 0.7692 0.11455 0.0
O226 O 0.32537 0.77135 0.21851 0.0
O227 O 0.36 0.79624 0.19676 0.0
O228 O 0.3891 0.77076 0.13994 0.0
O229 O 0.38683 0.72714 0.15147 0.0
O230 O 0.36547 0.72259 0.21785 0.0
O231 O 0.37198 0.68117 0.18491 0.0
H232 H 0.41798 0.64977 0.05881 0.0
H233 H 0.43591 0.63521 0.9976 0.0
H234 H 0.35137 0.63199 0.95411 0.0
H235 H 0.33338 0.64682 1.0154 0.0
H236 H 0.35717 0.75576 0.27726 0.0
H237 H 0.37552 0.76573 0.34019 0.0
H238 H 0.36483 0.85447 0.31984 0.0
H239 H 0.34676 0.84426 0.25663 0.0
Nd240 Nd 0.54209 0.09028 0.37768 0.0
Nd241 Nd 0.48477 0.08769 0.41934 0.0
C242 C 0.58396 0.09937 0.32996 0.0
C243 C 0.59034 0.11007 0.29148 0.0
C244 C 0.59553 0.13876 0.28541 0.0
C245 C 0.60409 0.14854 0.25004 0.0
C246 C 0.60789 0.12991 0.21973 0.0
C247 C 0.60218 0.10127 0.22558 0.0
C248 C 0.59364 0.09146 0.26105 0.0
C249 C 0.5305 0.04086 0.4142 0.0
C250 C 0.48307 0.07954 0.33027 0.0
C251 C 0.4454 0.07955 0.47099 0.0
C252 C 0.43899 0.09147 0.50871 0.0
C253 C 0.43407 0.07354 0.53943 0.0
C254 C 0.42814 0.08446 0.57526 0.0
C255 C 0.42686 0.11367 0.58131 0.0
C256 C 0.43193 0.13155 0.55038 0.0
C257 C 0.43802 0.12062 0.51466 0.0
C258 C 0.49468 0.13656 0.38228 0.0
C259 C 0.54307 0.10747 0.46557 0.0
O260 O 0.57578 0.11757 0.35532 0.0
O261 O 0.57112 0.0752 0.33305 0.0
O262 O 0.55546 0.05168 0.41252 0.0
O263 O 0.51336 0.05524 0.39531 0.0
O264 O 0.5086 0.09045 0.33086 0.0
O265 O 0.47022 0.07148 0.36161 0.0
O266 O 0.46794 0.06398 0.46848 0.0
O267 O 0.44219 0.0961 0.44184 0.0
O268 O 0.46987 0.12583 0.38641 0.0
O269 O 0.51282 0.12303 0.40083 0.0
O270 O 0.5162 0.10042 0.46618 0.0
O271 O 0.55795 0.10697 0.43419 0.0
H272 H 0.59344 0.15371 0.30818 0.0
H273 H 0.60782 0.17079 0.24649 0.0
H274 H 0.6051 0.08626 0.20305 0.0
H275 H 0.59021 0.06918 0.26482 0.0
H276 H 0.43493 0.051 0.53573 0.0
H277 H 0.42487 0.06993 0.59831 0.0
H278 H 0.43078 0.1541 0.55352 0.0
H279 H 0.44188 0.13507 0.49166 0.0
Nd280 Nd 0.14034 0.28273 0.63049 0.0
Nd281 Nd 0.14455 0.22502 0.67189 0.0
C282 C 0.13008 0.32461 0.58313 0.0
C283 C 0.11912 0.3306 0.54468 0.0
C284 C 0.0901 0.33195 0.53771 0.0
C285 C 0.07993 0.33973 0.50219 0.0
C286 C 0.09844 0.34642 0.4726 0.0
C287 C 0.12748 0.34482 0.47953 0.0
C288 C 0.13767 0.3371 0.51513 0.0
C289 C 0.19035 0.27167 0.66589 0.0
C290 C 0.15141 0.22411 0.58252 0.0
C291 C 0.15508 0.18547 0.72252 0.0
C292 C 0.14408 0.17863 0.76043 0.0
C293 C 0.1624 0.16943 0.78882 0.0
C294 C 0.15231 0.1633 0.82501 0.0
C295 C 0.12358 0.16618 0.83362 0.0
C296 C 0.10534 0.17558 0.80498 0.0
C297 C 0.11548 0.18187 0.76893 0.0
C298 C 0.09515 0.23425 0.63615 0.0
C299 C 0.12422 0.28283 0.71881 0.0
O300 O 0.1122 0.31602 0.60869 0.0
O301 O 0.15457 0.31228 0.58595 0.0
O302 O 0.1791 0.29648 0.66451 0.0
O303 O 0.17604 0.25441 0.64723 0.0
O304 O 0.14003 0.24944 0.58362 0.0
O305 O 0.16024 0.21124 0.61352 0.0
O306 O 0.16973 0.20855 0.71984 0.0
O307 O 0.13793 0.18205 0.6941 0.0
O308 O 0.10593 0.20944 0.64054 0.0
O309 O 0.10866 0.25261 0.65417 0.0
O310 O 0.13172 0.25604 0.71917 0.0
O311 O 0.12405 0.29788 0.68752 0.0
H312 H 0.07514 0.32748 0.55987 0.0
H313 H 0.05744 0.34116 0.49824 0.0
H314 H 0.1424 0.34948 0.4574 0.0
H315 H 0.16014 0.33655 0.51964 0.0
H316 H 0.1846 0.16712 0.78304 0.0
H317 H 0.16714 0.15663 0.84634 0.0
H318 H 0.08307 0.17773 0.81016 0.0
H319 H 0.1009 0.18923 0.74768 0.0
Nd320 Nd 0.8543 0.1991 0.6305 0.0
Nd321 Nd 0.84769 0.25703 0.67038 0.0
C322 C 0.86659 0.1571 0.58446 0.0
C323 C 0.87711 0.15106 0.54589 0.0
C324 C 0.90556 0.14455 0.54023 0.0
C325 C 0.9154 0.13688 0.50459 0.0
C326 C 0.89704 0.13534 0.4736 0.0
C327 C 0.86857 0.14195 0.47919 0.0
C328 C 0.85872 0.1497 0.51491 0.0
C329 C 0.80384 0.20846 0.66533 0.0
C330 C 0.83978 0.25652 0.58136 0.0
C331 C 0.83673 0.29662 0.72044 0.0
C332 C 0.84877 0.30406 0.75773 0.0
C333 C 0.83218 0.30215 0.79035 0.0
C334 C 0.8436 0.30801 0.82589 0.0
C335 C 0.87185 0.31611 0.82961 0.0
C336 C 0.88836 0.31818 0.79687 0.0
C337 C 0.877 0.31218 0.76142 0.0
C338 C 0.89756 0.24923 0.63519 0.0
C339 C 0.86934 0.20049 0.71908 0.0
O340 O 0.88442 0.16761 0.60874 0.0
O341 O 0.84132 0.16762 0.58794 0.0
O342 O 0.8161 0.18411 0.66457 0.0
O343 O 0.81744 0.22614 0.64635 0.0
O344 O 0.85242 0.23179 0.58271 0.0
O345 O 0.83071 0.26931 0.61218 0.0
O346 O 0.8228 0.27303 0.71876 0.0
O347 O 0.85258 0.30066 0.69082 0.0
O348 O 0.88579 0.27363 0.63869 0.0
O349 O 0.88469 0.23064 0.65368 0.0
O350 O 0.8606 0.22687 0.71859 0.0
O351 O 0.87079 0.18521 0.68812 0.0
H352 H 0.92023 0.1449 0.56355 0.0
H353 H 0.93736 0.13149 0.50154 0.0
H354 H 0.8539 0.14124 0.45592 0.0
H355 H 0.83661 0.1543 0.51828 0.0
H356 H 0.81038 0.29592 0.78838 0.0
H357 H 0.83019 0.30648 0.85043 0.0
H358 H 0.91028 0.32395 0.79868 0.0
H359 H 0.89051 0.31365 0.73698 0.0
Nd360 Nd 0.63675 0.78115 0.13346 0.0
Nd361 Nd 0.64878 0.724 0.17357 0.0
C362 C 0.62312 0.82297 0.08759 0.0
C363 C 0.61274 0.82943 0.04901 0.0
C364 C 0.58426 0.83569 0.04306 0.0
C365 C 0.57474 0.8446 1.00769 0.0
C366 C 0.59347 0.84768 0.97731 0.0
C367 C 0.62188 0.84082 0.98306 0.0
C368 C 0.63141 0.83191 1.01848 0.0
C369 C 0.68708 0.77625 0.17076 0.0
C370 C 0.65492 0.7251 0.08401 0.0
C371 C 0.66444 0.68676 0.22476 0.0
C372 C 0.65275 0.67946 0.26217 0.0
C373 C 0.67062 0.67373 0.29269 0.0
C374 C 0.65951 0.66749 0.32835 0.0
C375 C 0.63028 0.66673 0.33411 0.0
C376 C 0.61251 0.67282 0.30351 0.0
C377 C 0.62359 0.67926 0.26806 0.0
C378 C 0.59843 0.72623 0.13851 0.0
C379 C 0.62075 0.77812 0.22145 0.0
O380 O 0.60551 0.81163 0.1115 0.0
O381 O 0.64871 0.81326 0.09118 0.0
O382 O 0.67212 0.799 0.17041 0.0
O383 O 0.67589 0.75787 0.15031 0.0
O384 O 0.64053 0.74882 0.08583 0.0
O385 O 0.66543 0.71291 0.11457 0.0
O386 O 0.67587 0.71159 0.22191 0.0
O387 O 0.64899 0.68045 0.1955 0.0
O388 O 0.61199 0.70301 0.14422 0.0
O389 O 0.6094 0.74655 0.15596 0.0
O390 O 0.63258 0.75294 0.22137 0.0
O391 O 0.6174 0.79285 0.1902 0.0
H392 H 0.56933 0.83423 0.06597 0.0
H393 H 0.55264 0.84921 1.00421 0.0
H394 H 0.63696 0.84317 0.96048 0.0
H395 H 0.65357 0.82761 1.02209 0.0
H396 H 0.69317 0.67413 0.28895 0.0
H397 H 0.67378 0.66283 0.35127 0.0
H398 H 0.58995 0.67298 0.30708 0.0
H399 H 0.60929 0.6842 0.24526 0.0
Nd400 Nd 0.64342 0.21976 0.87973 0.0
Nd401 Nd 0.63564 0.27706 0.92213 0.0
C402 C 0.65714 0.1813 0.82902 0.0
C403 C 0.64934 0.17531 0.78946 0.0
C404 C 0.6425 0.19701 0.76422 0.0
C405 C 0.63282 0.19086 0.72785 0.0
C406 C 0.63009 0.16286 0.71578 0.0
C407 C 0.63772 0.14124 0.74085 0.0
C408 C 0.64712 0.14741 0.77732 0.0
C409 C 0.59459 0.22426 0.91811 0.0
C410 C 0.6177 0.27624 0.8343 0.0
C411 C 0.62589 0.31867 0.96997 0.0
C412 C 0.61683 0.32399 1.00913 0.0
C413 C 0.60243 0.30368 0.03026 0.0
C414 C 0.59323 0.30977 0.06692 0.0
C415 C 0.59839 0.33624 0.08324 0.0
C416 C 0.61332 0.35624 0.06204 0.0
C417 C 0.62239 0.35017 1.02543 0.0
C418 C 0.68452 0.27 0.88245 0.0
C419 C 0.65169 0.21892 0.96915 0.0
O420 O 0.67208 0.20385 0.83529 0.0
O421 O 0.63727 0.1778 0.85394 0.0
O422 O 0.60693 0.20044 0.91173 0.0
O423 O 0.60599 0.24423 0.90031 0.0
O424 O 0.62765 0.25026 0.83335 0.0
O425 O 0.6164 0.29091 0.86588 0.0
O426 O 0.60704 0.30894 0.94655 0.0
O427 O 0.6506 0.30718 0.96537 0.0
O428 O 0.67111 0.29366 0.88433 0.0
O429 O 0.67272 0.25188 0.90274 0.0
O430 O 0.63903 0.24365 0.96882 0.0
O431 O 0.66036 0.20659 0.93775 0.0
H432 H 0.64429 0.21871 0.77277 0.0
H433 H 0.62746 0.20804 0.70917 0.0
H434 H 0.63564 0.11947 0.73267 0.0
H435 H 0.65216 0.13033 0.79634 0.0
H436 H 0.59814 0.28323 1.01835 0.0
H437 H 0.58213 0.29372 0.08252 0.0
H438 H 0.61738 0.37692 0.07334 0.0
H439 H 0.63348 0.36613 1.00961 0.0
Nd440 Nd 0.84967 0.75386 0.38294 0.0
Nd441 Nd 0.85391 0.69523 0.42213 0.0
C442 C 0.83991 0.79559 0.33525 0.0
C443 C 0.84848 0.80318 0.29634 0.0
C444 C 0.84132 0.78645 0.26515 0.0
C445 C 0.85016 0.79387 0.2288 0.0
C446 C 0.86644 0.81811 0.22272 0.0
C447 C 0.87347 0.83476 0.25408 0.0
C448 C 0.86449 0.82745 0.29031 0.0
C449 C 0.89862 0.74388 0.41937 0.0
C450 C 0.86931 0.69711 0.33338 0.0
C451 C 0.86446 0.65231 0.46768 0.0
C452 C 0.87466 0.64536 0.50623 0.0
C453 C 0.90244 0.63628 0.51158 0.0
C454 C 0.91175 0.62742 0.54707 0.0
C455 C 0.89349 0.62717 0.57822 0.0
C456 C 0.86579 0.63671 0.57301 0.0
C457 C 0.85646 0.64561 0.53745 0.0
C458 C 0.80406 0.70701 0.38673 0.0
C459 C 0.84201 0.75278 0.47234 0.0
O460 O 0.82302 0.77419 0.33947 0.0
O461 O 0.85957 0.79634 0.36094 0.0
O462 O 0.88757 0.76867 0.41644 0.0
O463 O 0.88551 0.72594 0.40009 0.0
O464 O 0.86122 0.72374 0.33397 0.0
O465 O 0.87032 0.68164 0.36433 0.0
O466 O 0.88274 0.66233 0.44362 0.0
O467 O 0.83962 0.66384 0.46421 0.0
O468 O 0.81535 0.68218 0.38715 0.0
O469 O 0.81826 0.7238 0.40629 0.0
O470 O 0.85328 0.7274 0.47058 0.0
O471 O 0.83361 0.76629 0.44163 0.0
H472 H 0.82897 0.76759 0.26875 0.0
H473 H 0.84397 0.78069 0.20542 0.0
H474 H 0.88638 0.85327 0.25084 0.0
H475 H 0.87036 0.8407 0.31379 0.0
H476 H 0.91697 0.63561 0.48814 0.0
H477 H 0.93336 0.62073 0.55003 0.0
H478 H 0.85103 0.63659 0.59619 0.0
H479 H 0.83482 0.65217 0.53434 0.0
Nd480 Nd 0.48523 0.59363 0.63239 0.0
Nd481 Nd 0.54292 0.5992 0.67403 0.0
C482 C 0.44649 0.58235 0.5811 0.0
C483 C 0.44104 0.59231 0.54223 0.0
C484 C 0.42999 0.57397 0.51516 0.0
C485 C 0.42443 0.5834 0.47843 0.0
C486 C 0.42981 0.61143 0.46795 0.0
C487 C 0.44131 0.62957 0.49517 0.0
C488 C 0.44699 0.6201 0.53174 0.0
C489 C 0.49229 0.64226 0.67056 0.0
C490 C 0.54227 0.61702 0.58631 0.0
C491 C 0.58462 0.60947 0.72152 0.0
C492 C 0.59049 0.61968 0.76034 0.0
C493 C 0.58972 0.64847 0.76888 0.0
C494 C 0.59747 0.6581 0.80464 0.0
C495 C 0.60619 0.63926 0.83297 0.0
C496 C 0.60666 0.61043 0.82449 0.0
C497 C 0.599 0.60079 0.78862 0.0
C498 C 0.53392 0.55043 0.63471 0.0
C499 C 0.48459 0.58488 0.72156 0.0
O500 O 0.4689 0.56689 0.58595 0.0
O501 O 0.44302 0.60074 0.60804 0.0
O502 O 0.46795 0.63064 0.66563 0.0
O503 O 0.5113 0.63007 0.65196 0.0
O504 O 0.51592 0.60816 0.5856 0.0
O505 O 0.55711 0.61775 0.61775 0.0
O506 O 0.57538 0.6277 0.69676 0.0
O507 O 0.57304 0.5847 0.71783 0.0
O508 O 0.55814 0.56278 0.63668 0.0
O509 O 0.51637 0.563 0.65505 0.0
O510 O 0.50966 0.59681 0.72099 0.0
O511 O 0.4719 0.57656 0.69024 0.0
H512 H 0.42559 0.55234 0.52246 0.0
H513 H 0.4161 0.56862 0.4582 0.0
H514 H 0.44546 0.65135 0.48855 0.0
H515 H 0.45582 0.63462 0.55196 0.0
H516 H 0.58364 0.66372 0.74775 0.0
H517 H 0.59727 0.68049 0.80972 0.0
H518 H 0.61291 0.59522 0.84559 0.0
H519 H 0.60009 0.57851 0.78286 0.0
Nd520 Nd 0.01337 0.38686 0.13225 0.0
Nd521 Nd 0.95548 0.37748 0.17186 0.0
C522 C 0.052 0.40011 0.08179 0.0
C523 C 0.05848 0.38917 0.04372 0.0
C524 C 0.0659 0.40757 1.0145 0.0
C525 C 0.07168 0.39728 0.97829 0.0
C526 C 0.07016 0.36832 0.97051 0.0
C527 C 0.06248 0.35004 0.99997 0.0
C528 C 0.05655 0.36034 0.03598 0.0
C529 C 0.00824 0.33701 0.1684 0.0
C530 C 0.95833 0.3613 0.08391 0.0
C531 C 0.91321 0.36463 0.21718 0.0
C532 C 0.90625 0.35537 0.25606 0.0
C533 C 0.89794 0.32752 0.26257 0.0
C534 C 0.8888 0.31898 0.29822 0.0
C535 C 0.88746 0.33811 0.32833 0.0
C536 C 0.89631 0.36589 0.32201 0.0
C537 C 0.90552 0.37444 0.28628 0.0
C538 C 0.9622 0.42708 0.13348 0.0
C539 C 0.01192 0.39481 0.22146 0.0
O540 O 0.02839 0.41388 0.08522 0.0
O541 O 0.05663 0.38307 0.11007 0.0
O542 O 0.03201 0.34994 0.16464 0.0
O543 O -0.01106 0.34873 0.14973 0.0
O544 O 0.98402 0.37192 0.08416 0.0
O545 O 0.94332 0.35872 0.115 0.0
O546 O 0.92542 0.34642 0.19492 0.0
O547 O 0.92241 0.39027 0.21228 0.0
O548 O 0.93877 0.41323 0.13453 0.0
O549 O 0.98017 0.41543 0.15429 0.0
O550 O 0.98759 0.3815 0.21991 0.0
O551 O 0.02472 0.40411 0.1907 0.0
H552 H 0.06711 0.42993 1.01964 0.0
H553 H 0.07702 0.41211 0.9563 0.0
H554 H 0.06142 0.32762 0.99545 0.0
H555 H 0.05053 0.34566 0.05785 0.0
H556 H 0.89804 0.31236 0.23987 0.0
H557 H 0.88268 0.2973 0.30212 0.0
H558 H 0.89537 0.38127 0.34438 0.0
H559 H 0.91149 0.39614 0.28223 0.0
Nd560 Nd 0.44982 0.38902 0.37927 0.0
Nd561 Nd 0.50503 0.38847 0.42574 0.0
C562 C 0.40865 0.38272 0.32977 0.0
C563 C 0.40298 0.37072 0.29184 0.0
C564 C 0.40661 0.342 0.2843 0.0
C565 C 0.39958 0.33091 0.24896 0.0
C566 C 0.38884 0.34823 0.22009 0.0
C567 C 0.3856 0.37705 0.22764 0.0
C568 C 0.39251 0.3881 0.26306 0.0
C569 C 0.464 0.43861 0.41443 0.0
C570 C 0.51062 0.38843 0.33386 0.0
C571 C 0.5499 0.39451 0.46869 0.0
C572 C 0.55802 0.38274 0.50597 0.0
C573 C 0.56568 0.40074 0.53554 0.0
C574 C 0.57204 0.38998 0.57139 0.0
C575 C 0.57103 0.36092 0.57847 0.0
C576 C 0.56345 0.34295 0.54873 0.0
C577 C 0.55692 0.35371 0.51302 0.0
C578 C 0.48195 0.33672 0.41291 0.0
C579 C 0.44556 0.37939 0.46912 0.0
O580 O 0.41335 0.3652 0.35764 0.0
O581 O 0.42438 0.40521 0.33136 0.0
O582 O 0.43847 0.4294 0.41196 0.0
O583 O 0.48045 0.42236 0.39751 0.0
O584 O 0.48301 0.38599 0.33269 0.0
O585 O 0.52439 0.3916 0.36607 0.0
O586 O 0.52899 0.41237 0.46877 0.0
O587 O 0.54882 0.37701 0.44025 0.0
O588 O 0.49343 0.34415 0.44442 0.0
O589 O 0.48316 0.35645 0.3895 0.0
O590 O 0.4704 0.39169 0.47066 0.0
O591 O 0.43423 0.37216 0.43648 0.0
H592 H 0.41455 0.32794 0.30583 0.0
H593 H 0.40203 0.30857 0.24462 0.0
H594 H 0.37785 0.3912 0.20613 0.0
H595 H 0.38943 0.4103 0.26806 0.0
H596 H 0.56653 0.4232 0.53098 0.0
H597 H 0.578 0.40443 0.5935 0.0
H598 H 0.56202 0.32053 0.55322 0.0
H599 H 0.55067 0.33924 0.49108 0.0
Nd600 Nd 0.03979 0.59002 0.87523 0.0
Nd601 Nd 0.98221 0.58861 0.91817 0.0
C602 C 0.08084 0.599 0.82619 0.0
C603 C 0.08613 0.6102 0.78763 0.0
C604 C 0.0847 0.63913 0.77999 0.0
C605 C 0.09185 0.64963 0.74438 0.0
C606 C 0.1006 0.63154 0.71528 0.0
C607 C 0.10169 0.60255 0.72287 0.0
C608 C 0.09463 0.59205 0.75859 0.0
C609 C 0.02776 0.54125 0.91287 0.0
C610 C 0.97997 0.57936 0.82923 0.0
C611 C 0.9422 0.58074 0.96925 0.0
C612 C 0.93568 0.59111 1.00764 0.0
C613 C 0.9569 0.60105 0.03159 0.0
C614 C 0.95033 0.61189 0.06723 0.0
C615 C 0.92235 0.61275 0.07993 0.0
C616 C 0.90119 0.60235 0.05602 0.0
C617 C 0.9078 0.59178 1.02023 0.0
C618 C -0.00714 0.6366 0.87949 0.0
C619 C 0.04128 0.60815 0.96296 0.0
O620 O 0.07362 0.61689 0.85245 0.0
O621 O 0.06772 0.57496 0.8292 0.0
O622 O 0.05299 0.55131 0.90994 0.0
O623 O 0.01061 0.55583 0.89426 0.0
O624 O 0.00572 0.58977 0.82907 0.0
O625 O 0.96716 0.57208 0.86093 0.0
O626 O 0.96411 0.56438 0.96577 0.0
O627 O 0.94033 0.59911 0.94197 0.0
O628 O 0.96777 0.62665 0.88438 0.0
O629 O 0.01077 0.62292 0.89817 0.0
O630 O 0.01423 0.60181 0.96399 0.0
O631 O 0.0562 0.60662 0.93163 0.0
H632 H 0.07854 0.65383 0.8017 0.0
H633 H 0.09116 0.6721 0.74002 0.0
H634 H 0.10795 0.58788 0.70118 0.0
H635 H 0.09617 0.56968 0.76363 0.0
H636 H 0.97857 0.60047 1.0227 0.0
H637 H 0.96721 0.61935 0.085 0.0
H638 H 0.87942 0.60293 0.06466 0.0
H639 H 0.89105 0.5843 1.00224 0.0
H640 H 0.09663 0.11696 0.06978 0.0
H641 H 0.01395 0.1265 1.02142 0.0
H642 H 0.11753 0.13094 1.00961 0.0
H643 H 0.03482 0.14042 0.96166 0.0
H644 H 0.08159 0.19267 0.87321 0.0
H645 H 0.0623 0.18013 0.93451 0.0
H646 H 0.12168 0.11206 0.94355 0.0
H647 H 0.14057 0.12399 0.8817 0.0
C648 C 0.08291 0.12212 0.04644 0.0
C649 C 0.0536 0.12059 0.05055 0.0
C650 C 0.09489 0.12997 1.0119 0.0
C651 C 0.07785 0.13685 0.98083 0.0
C652 C 0.04856 0.13556 0.9851 0.0
C653 C 0.03661 0.12741 1.0194 0.0
C654 C 0.09041 0.17482 0.88794 0.0
C655 C 0.1126 0.15927 0.87207 0.0
C656 C 0.07938 0.16771 0.92324 0.0
C657 C 0.09039 0.14504 0.94391 0.0
C658 C 0.11293 0.12984 0.92855 0.0
C659 C 0.1238 0.13677 0.89305 0.0
H660 H 0.11797 0.75591 0.25943 0.0
H661 H 0.10223 0.8348 0.31533 0.0
H662 H 0.1065 0.7773 0.19915 0.0
H663 H 0.09139 0.85646 0.25464 0.0
H664 H 0.04761 0.87914 0.14265 0.0
H665 H 0.058 0.85842 0.20404 0.0
H666 H 0.1245 0.80947 0.15393 0.0
H667 H 0.11396 0.82999 0.09269 0.0
C668 C 0.1121 0.77787 0.25896 0.0
C669 C 0.11106 0.79357 0.29249 0.0
C670 C 0.1057 0.79025 0.22416 0.0
C671 C 0.09816 0.81877 0.22169 0.0
C672 C 0.0968 0.8344 0.25531 0.0
C673 C 0.10314 0.82198 0.29021 0.0
C674 C 0.06464 0.86416 0.14478 0.0
C675 C 0.07983 0.85622 0.11249 0.0
C676 C 0.07062 0.85223 0.18009 0.0
C677 C 0.09203 0.83204 0.18419 0.0
C678 C 0.10746 0.82444 0.15194 0.0
C679 C 0.10144 0.8363 0.11669 0.0
H680 H 0.41807 0.78764 0.36844 0.0
H681 H 0.35225 0.84825 0.3876 0.0
H682 H 0.43794 0.79825 0.43028 0.0
H683 H 0.37231 0.85908 0.44929 0.0
H684 H 0.40038 0.84949 0.57302 0.0
H685 H 0.37986 0.83662 0.51236 0.0
H686 H 0.46204 0.83853 0.46141 0.0
H687 H 0.48261 0.85137 0.52186 0.0
C688 C 0.40774 0.80311 0.38594 0.0
C689 C 0.38357 0.8171 0.37304 0.0
C690 C 0.41927 0.80936 0.42125 0.0
C691 C 0.40673 0.82953 0.44473 0.0
C692 C 0.38235 0.84327 0.43204 0.0
C693 C 0.37101 0.83725 0.39655 0.0
C694 C 0.41412 0.84698 0.54897 0.0
C695 C 0.44317 0.85143 0.55245 0.0
C696 C 0.40232 0.83979 0.51413 0.0
C697 C 0.4193 0.83657 0.48202 0.0
C698 C 0.44839 0.84057 0.48564 0.0
C699 C 0.46016 0.84806 0.52034 0.0
H700 H 0.38122 0.22472 0.76647 0.0
H701 H 0.38567 0.14323 0.81958 0.0
H702 H 0.3949 0.20388 0.70657 0.0
H703 H 0.39944 0.1224 0.75942 0.0
H704 H 0.39044 0.09293 0.6349 0.0
H705 H 0.37885 0.11271 0.69628 0.0
H706 H 0.43571 0.18138 0.67577 0.0
H707 H 0.44791 0.16135 0.61482 0.0
C708 C 0.38523 0.20236 0.7655 0.0
C709 C 0.38237 0.1857 0.79807 0.0
C710 C 0.39323 0.19042 0.73107 0.0
C711 C 0.39831 0.16143 0.72806 0.0
C712 C 0.39546 0.14475 0.76061 0.0
C713 C 0.38774 0.15675 0.7952 0.0
C714 C 0.40086 0.11201 0.64358 0.0
C715 C 0.42011 0.12548 0.61947 0.0
C716 C 0.39412 0.12341 0.67887 0.0
C717 C 0.40624 0.14873 0.69101 0.0
C718 C 0.42562 0.16209 0.66713 0.0
C719 C 0.43255 0.15059 0.632 0.0
H720 H 0.88361 0.78324 0.16528 0.0
H721 H 0.87179 0.87087 0.19214 0.0
H722 H 0.90132 0.79636 0.1032 0.0
H723 H 0.89026 0.88382 0.13057 0.0
H724 H 0.95795 0.89428 0.03827 0.0
H725 H 0.93681 0.88133 0.09827 0.0
H726 H 0.88605 0.81922 0.04211 0.0
H727 H 0.90722 0.83224 0.9817 0.0
C728 C 0.88445 0.80527 0.15794 0.0
C729 C 0.87635 0.82595 0.18409 0.0
C730 C 0.8947 0.81277 0.1223 0.0
C731 C 0.89735 0.84114 0.11201 0.0
C732 C 0.88889 0.86179 0.13784 0.0
C733 C 0.87839 0.85432 0.17327 0.0
C734 C 0.94222 0.87792 0.03857 0.0
C735 C 0.93429 0.86431 1.00509 0.0
C736 C 0.92998 0.8706 0.07301 0.0
C737 C 0.90972 0.84925 0.075 0.0
C738 C 0.90174 0.83562 0.04154 0.0
C739 C 0.91374 0.8432 1.00692 0.0
H740 H 0.88338 0.14572 0.73496 0.0
H741 H 0.87433 0.22712 0.78697 0.0
H742 H 0.89554 0.12547 0.79606 0.0
H743 H 0.88723 0.20713 0.84752 0.0
H744 H 0.88172 0.15851 0.95738 0.0
H745 H 0.86958 0.17765 0.89586 0.0
H746 H 0.93104 0.12348 0.84377 0.0
H747 H 0.94283 0.10402 0.90546 0.0
C748 C 0.88419 0.15935 0.75931 0.0
C749 C 0.87775 0.18805 0.75591 0.0
C750 C 0.89132 0.14776 0.79439 0.0
C751 C 0.89229 0.16457 0.82697 0.0
C752 C 0.88619 0.19335 0.82335 0.0
C753 C 0.87896 0.20489 0.7884 0.0
C754 C 0.89278 0.1508 0.93284 0.0
C755 C 0.91332 0.12977 0.93646 0.0
C756 C 0.88585 0.16183 0.89746 0.0
C757 C 0.8994 0.15229 0.86463 0.0
C758 C 0.91985 0.13111 0.86824 0.0
C759 C 0.92667 0.11996 0.90367 0.0
H760 H 0.64877 0.12348 0.66528 0.0
H761 H 0.58498 0.18686 0.6802 0.0
H762 H 0.62832 0.11096 0.6044 0.0
H763 H 0.56477 0.17459 0.61915 0.0
H764 H 0.51739 0.12 0.53246 0.0
H765 H 0.53908 0.13428 0.59155 0.0
H766 H 0.62081 0.13005 0.53957 0.0
H767 H 0.59912 0.11566 0.48019 0.0
C768 C 0.63042 0.13479 0.65554 0.0
C769 C 0.6185 0.15614 0.67773 0.0
C770 C 0.61884 0.12777 0.62048 0.0
C771 C 0.59484 0.14171 0.60688 0.0
C772 C 0.58309 0.16325 0.6289 0.0
C773 C 0.59485 0.17047 0.66376 0.0
C774 C 0.54 0.12213 0.53347 0.0
C775 C 0.55649 0.11663 0.50141 0.0
C776 C 0.55242 0.13051 0.56739 0.0
C777 C 0.5817 0.13337 0.57036 0.0
C778 C 0.59822 0.12784 0.53835 0.0
C779 C 0.58576 0.11974 0.50424 0.0
H780 H 0.61875 0.83355 0.4543 0.0
H781 H 0.53962 0.86413 0.41129 0.0
H782 H 0.62952 0.8135 0.39299 0.0
H783 H 0.55057 0.84417 0.34966 0.0
H784 H 0.59448 0.82859 0.23479 0.0
H785 H 0.58223 0.84918 0.29561 0.0
H786 H 0.61442 0.77562 0.35222 0.0
H787 H 0.62701 0.75524 0.29177 0.0
C788 C 0.6035 0.83584 0.43188 0.0
C789 C 0.57819 0.85037 0.43801 0.0
C790 C 0.60971 0.82431 0.39661 0.0
C791 C 0.59086 0.82701 0.36632 0.0
C792 C 0.56572 0.8419 0.3722 0.0
C793 C 0.55946 0.8534 0.40759 0.0
C794 C 0.59884 0.81674 0.26019 0.0
C795 C 0.61181 0.79025 0.25821 0.0
C796 C 0.59169 0.82852 0.2951 0.0
C797 C 0.59746 0.81417 0.32894 0.0
C798 C 0.61006 0.78751 0.32685 0.0
C799 C 0.6171 0.77571 0.29203 0.0
H800 H 0.58613 0.63195 0.34932 0.0
H801 H 0.64696 0.68509 0.40398 0.0
H802 H 0.56551 0.62064 0.41014 0.0
H803 H 0.62594 0.67432 0.46506 0.0
H804 H 0.59794 0.62729 0.57188 0.0
H805 H 0.61959 0.63912 0.51167 0.0
H806 H 0.53787 0.6394 0.45889 0.0
H807 H 0.51647 0.62662 0.51859 0.0
C808 C 0.59495 0.64145 0.37436 0.0
C809 C 0.61816 0.65951 0.37169 0.0
C810 C 0.58304 0.63504 0.40935 0.0
C811 C 0.59382 0.64669 0.44279 0.0
C812 C 0.61722 0.66462 0.44012 0.0
C813 C 0.62929 0.67086 0.40505 0.0
C814 C 0.58459 0.62999 0.54745 0.0
C815 C 0.55545 0.62589 0.55019 0.0
C816 C 0.59701 0.63692 0.51284 0.0
C817 C 0.58061 0.64011 0.48008 0.0
C818 C 0.55137 0.63655 0.48314 0.0
C819 C 0.539 0.6294 0.5176 0.0
H820 H 0.60328 0.24963 0.769 0.0
H821 H 0.61142 0.33222 0.81736 0.0
H822 H 0.59157 0.27031 0.7084 0.0
H823 H 0.60023 0.35315 0.75626 0.0
H824 H 0.55518 0.38123 0.64777 0.0
H825 H 0.565 0.36132 0.70983 0.0
H826 H 0.61229 0.29452 0.65756 0.0
H827 H 0.60203 0.31416 0.59574 0.0
C828 C 0.60275 0.27226 0.76667 0.0
C829 C 0.60856 0.28922 0.7981 0.0
C830 C 0.59611 0.2842 0.73172 0.0
C831 C 0.59523 0.31352 0.72698 0.0
C832 C 0.60042 0.33051 0.75871 0.0
C833 C 0.60691 0.31851 0.79383 0.0
C834 C 0.56784 0.3624 0.64957 0.0
C835 C 0.57769 0.34927 0.61663 0.0
C836 C 0.57353 0.35096 0.68525 0.0
C837 C 0.58935 0.32612 0.68901 0.0
C838 C 0.5995 0.31327 0.65599 0.0
C839 C 0.59368 0.3246 0.62039 0.0
H840 H 0.90532 0.34129 0.06985 0.0
H841 H 0.98313 0.3625 1.01431 0.0
H842 H 0.88436 0.33019 1.00899 0.0
H843 H 0.9624 0.35079 0.95374 0.0
H844 H 0.90763 0.35872 0.84874 0.0
H845 H 0.92841 0.36858 0.90999 0.0
H846 H 0.88506 0.29729 0.95745 0.0
H847 H 0.86409 0.28757 0.89609 0.0
C848 C 0.91807 0.34333 0.04476 0.0
C849 C 0.94593 0.35287 0.04714 0.0
C850 C 0.90606 0.33683 1.00979 0.0
C851 C 0.92159 0.33969 0.97627 0.0
C852 C 0.9496 0.34879 0.97879 0.0
C853 C 0.96159 0.35531 1.01369 0.0
C854 C 0.90267 0.34501 0.87216 0.0
C855 C 0.88419 0.32231 0.86737 0.0
C856 C 0.91465 0.35063 0.90735 0.0
C857 C 0.90857 0.33368 0.9388 0.0
C858 C 0.88996 0.31105 0.93407 0.0
C859 C 0.87791 0.30546 0.89884 0.0
H860 H 0.88031 0.64176 0.31734 0.0
H861 H 0.8772 0.72383 0.26567 0.0
H862 H 0.89353 0.62127 0.25681 0.0
H863 H 0.89036 0.7033 0.20532 0.0
H864 H 0.94309 0.66044 0.11301 0.0
H865 H 0.93096 0.68037 0.17427 0.0
H866 H 0.87293 0.61244 0.19357 0.0
H867 H 0.88533 0.59229 0.1325 0.0
C868 C 0.88247 0.65547 0.29317 0.0
C869 C 0.87768 0.68449 0.29659 0.0
C870 C 0.88991 0.64367 0.25836 0.0
C871 C 0.89305 0.6606 0.2261 0.0
C872 C 0.88844 0.68965 0.2296 0.0
C873 C 0.88073 0.7014 0.26427 0.0
C874 C 0.92791 0.64961 0.13043 0.0
C875 C 0.9152 0.62473 0.1177 0.0
C876 C 0.92075 0.6612 0.16544 0.0
C877 C 0.90091 0.64807 0.18892 0.0
C878 C 0.88844 0.62301 0.1764 0.0
C879 C 0.89537 0.61159 0.1412 0.0
H880 H 0.39253 0.35778 0.4802 0.0
H881 H 0.46715 0.38325 0.54018 0.0
H882 H 0.37154 0.34236 0.53981 0.0
H883 H 0.44629 0.36787 0.59914 0.0
H884 H 0.41531 0.30624 0.68837 0.0
H885 H 0.43354 0.32192 0.62789 0.0
H886 H 0.35422 0.36138 0.60259 0.0
H887 H 0.336 0.34631 0.66375 0.0
C888 C 0.40438 0.36029 0.50601 0.0
C889 C 0.43157 0.37176 0.50523 0.0
C890 C 0.39232 0.35151 0.54017 0.0
C891 C 0.40734 0.35364 0.57421 0.0
C892 C 0.43429 0.36554 0.57341 0.0
C893 C 0.44617 0.37457 0.5395 0.0
C894 C 0.40174 0.31851 0.67024 0.0
C895 C 0.37421 0.32524 0.68144 0.0
C896 C 0.41222 0.32744 0.63541 0.0
C897 C 0.39544 0.34313 0.61049 0.0
C898 C 0.36764 0.34918 0.62102 0.0
C899 C 0.35719 0.34045 0.65611 0.0
H900 H 0.45904 0.64958 0.42491 0.0
H901 H 0.38507 0.5973 0.42261 0.0
H902 H 0.44639 0.66887 0.3636 0.0
H903 H 0.37291 0.61617 0.36079 0.0
H904 H 0.37407 0.63966 0.23411 0.0
H905 H 0.38896 0.61795 0.2935 0.0
H906 H 0.409 0.69972 0.33804 0.0
H907 H 0.39453 0.72125 0.27889 0.0
C908 C 0.44003 0.64221 0.4115 0.0
C909 C 0.423 0.62196 0.42917 0.0
C910 C 0.43284 0.65324 0.37619 0.0
C911 C 0.40856 0.64417 0.35729 0.0
C912 C 0.39192 0.62341 0.37436 0.0
C913 C 0.39897 0.61253 0.40987 0.0
C914 C 0.38181 0.65295 0.25652 0.0
C915 C 0.38285 0.68223 0.2518 0.0
C916 C 0.39016 0.64053 0.29064 0.0
C917 C 0.40015 0.65708 0.3206 0.0
C918 C 0.40165 0.6863 0.31552 0.0
C919 C 0.39304 0.69869 0.28167 0.0
H920 H 0.15085 0.66914 0.14503 0.0
H921 H 0.07445 0.64196 0.19898 0.0
H922 H 0.13142 0.65629 0.08369 0.0
H923 H 0.05529 0.6285 0.13818 0.0
H924 H 0.01617 0.63347 1.02286 0.0
H925 H 0.03702 0.64749 0.0823 0.0
H926 H 0.11798 0.6187 0.04338 0.0
H927 H 0.09691 0.60523 0.98318 0.0
C928 C 0.13 0.66017 0.14383 0.0
C929 C 0.11413 0.65681 0.17694 0.0
C930 C 0.11885 0.65271 0.10863 0.0
C931 C 0.09161 0.64149 0.10565 0.0
C932 C 0.07603 0.6377 0.13898 0.0
C933 C 0.08706 0.64537 0.17402 0.0
C934 C 0.03838 0.62991 0.02703 0.0
C935 C 0.05476 0.61781 0.99842 0.0
C936 C 0.05041 0.63794 0.06128 0.0
C937 C 0.07923 0.63393 0.06818 0.0
C938 C 0.09578 0.62236 0.03916 0.0
C939 C 0.08371 0.61453 1.00463 0.0
H940 H 0.11663 0.33882 0.73411 0.0
H941 H 0.11187 0.25675 0.78554 0.0
H942 H 0.10277 0.36023 0.79387 0.0
H943 H 0.09805 0.27817 0.84502 0.0
H944 H 0.04505 0.32444 0.93321 0.0
H945 H 0.05759 0.30439 0.87241 0.0
H946 H 0.12233 0.36676 0.85902 0.0
H947 H 0.1104 0.38647 0.92039 0.0
C948 C 0.11256 0.32533 0.75805 0.0
C949 C 0.11538 0.29604 0.7549 0.0
C950 C 0.10477 0.33763 0.79237 0.0
C951 C 0.09925 0.32093 0.82423 0.0
C952 C 0.10184 0.29164 0.82096 0.0
C953 C 0.10995 0.27937 0.78684 0.0
C954 C 0.06217 0.33379 0.91761 0.0
C955 C 0.07682 0.35703 0.93215 0.0
C956 C 0.06929 0.3223 0.88261 0.0
C957 C 0.09105 0.33387 0.86089 0.0
C958 C 0.10528 0.3575 0.87487 0.0
C959 C 0.09834 0.36886 0.91008 0.0
H960 H 0.96223 0.30364 0.17081 0.0
H961 H 0.04804 0.30974 0.20903 0.0
H962 H 0.96064 0.25512 0.19142 0.0
H963 H 0.04646 0.261 0.23019 0.0
H964 H 0.95934 0.169 0.21875 0.0
H965 H 0.96401 0.21775 0.23841 0.0
H966 H 0.0461 0.22099 0.18681 0.0
H967 H 0.04163 0.17214 0.16811 0.0
C968 C 0.98046 0.29477 0.18464 0.0
C969 C 0.00548 0.30993 0.18737 0.0
C970 C 0.97951 0.26707 0.1969 0.0
C971 C 0.00362 0.25419 0.21201 0.0
C972 C 0.02775 0.27035 0.21818 0.0
C973 C 0.02867 0.2981 0.2059 0.0
C974 C 0.97868 0.18 0.21262 0.0
C975 C -0.00028 0.16747 0.19074 0.0
C976 C 0.98139 0.20777 0.22402 0.0
C977 C 0.00504 0.22331 0.21327 0.0
C978 C 0.02758 0.20956 0.19552 0.0
C979 C 0.02494 0.18169 0.18438 0.0
H980 H 0.93043 0.6966 0.41686 0.0
H981 H 0.92611 0.77931 0.466 0.0
H982 H 0.9792 0.69276 0.43598 0.0
H983 H 0.97494 0.77536 0.48591 0.0
H984 H 0.06019 0.7763 0.41566 0.0
H985 H 0.01233 0.77851 0.43884 0.0
H986 H 0.01911 0.69317 0.47942 0.0
H987 H 0.06704 0.69091 0.45554 0.0
C988 C 0.93972 0.71354 0.43288 0.0
C989 C 0.92515 0.73864 0.43872 0.0
C990 C 0.96756 0.71126 0.4443 0.0
C991 C 0.98101 0.73409 0.46172 0.0
C992 C 0.96518 0.75772 0.47186 0.0
C993 C 0.93738 0.76003 0.46027 0.0
C994 C 0.05167 0.75833 0.43043 0.0
C995 C 0.06664 0.73313 0.43264 0.0
C996 C 0.02438 0.75965 0.4442 0.0
C997 C 0.01185 0.73576 0.46032 0.0
C998 C 0.02816 0.71167 0.46651 0.0
C999 C 0.05542 0.71034 0.45262 0.0
H1000 H 0.45448 0.66766 0.71606 0.0
H1001 H 0.53884 0.67506 0.6729 0.0
H1002 H 0.45674 0.71569 0.73944 0.0
H1003 H 0.54099 0.7231 0.6954 0.0
H1004 H 0.54071 0.80997 0.72136 0.0
H1005 H 0.53847 0.76104 0.74143 0.0
H1006 H 0.45451 0.7552 0.69587 0.0
H1007 H 0.45667 0.80401 0.67658 0.0
C1008 C 0.47371 0.67943 0.71232 0.0
C1009 C 0.49613 0.66832 0.69153 0.0
C1010 C 0.47504 0.70677 0.72589 0.0
C1011 C 0.49873 0.72331 0.71849 0.0
C1012 C 0.52241 0.71089 0.70165 0.0
C1013 C 0.52112 0.68349 0.68828 0.0
C1014 C 0.52153 0.79833 0.71664 0.0
C1015 C 0.49921 0.81017 0.69628 0.0
C1016 C 0.52021 0.77045 0.72829 0.0
C1017 C 0.49662 0.75417 0.71947 0.0
C1018 C 0.47301 0.76718 0.70319 0.0
C1019 C 0.47431 0.79506 0.69168 0.0
H1020 H 0.57292 0.26858 0.95628 0.0
H1021 H 0.55543 0.18372 0.92196 0.0
H1022 H 0.52465 0.27393 0.97778 0.0
H1023 H 0.50697 0.18936 0.93999 0.0
H1024 H 0.41937 0.20316 0.95219 0.0
H1025 H 0.46733 0.19677 0.97458 0.0
H1026 H 0.48611 0.28228 0.94146 0.0
H1027 H 0.43803 0.2888 0.92232 0.0
C1028 C 0.55866 0.25112 0.95353 0.0
C1029 C 0.56728 0.2262 0.93635 0.0
C1030 C 0.53106 0.25407 0.96578 0.0
C1031 C 0.51149 0.2325 0.95936 0.0
C1032 C 0.52116 0.20654 0.9456 0.0
C1033 C 0.54895 0.20336 0.93462 0.0
C1034 C 0.43383 0.22055 0.95054 0.0
C1035 C 0.42561 0.24606 0.9344 0.0
C1036 C 0.46124 0.21701 0.96336 0.0
C1037 C 0.48101 0.23867 0.95875 0.0
C1038 C 0.47174 0.26503 0.9458 0.0
C1039 C 0.44418 0.26874 0.93415 0.0
H1040 H 0.97304 0.81508 0.84084 0.0
H1041 H 0.00709 0.79099 0.94914 0.0
H1042 H 0.98044 0.76717 0.81773 0.0
H1043 H 0.01451 0.74367 0.92616 0.0
H1044 H 0.95547 0.66959 0.84295 0.0
H1045 H 0.95819 0.72041 0.83811 0.0
H1046 H 0.04406 0.71769 0.87692 0.0
H1047 H 0.04122 0.66673 0.88236 0.0
C1048 C 0.98201 0.79952 0.85962 0.0
C1049 C -0.01051 0.8065 0.89673 0.0
C1050 C 0.98651 0.77238 0.84628 0.0
C1051 C -0.00119 0.75217 0.86984 0.0
C1052 C 0.0059 0.7592 0.90703 0.0
C1053 C 0.00118 0.78609 0.92041 0.0
C1054 C 0.97523 0.6798 0.84916 0.0
C1055 C -0.00225 0.6647 0.8646 0.0
C1056 C 0.97686 0.70882 0.84599 0.0
C1057 C 0.00105 0.72275 0.85825 0.0
C1058 C 0.02502 0.7072 0.86805 0.0
C1059 C 0.02338 0.67817 0.87125 0.0
H1060 H 0.57528 0.76727 0.09534 0.0
H1061 H 0.55946 0.68581 0.14366 0.0
H1062 H 0.52675 0.7698 0.07364 0.0
H1063 H 0.51081 0.68888 0.12529 0.0
H1064 H 0.42325 0.69785 0.10725 0.0
H1065 H 0.47197 0.69125 0.08826 0.0
H1066 H 0.48679 0.78001 0.10547 0.0
H1067 H 0.43808 0.78652 0.12079 0.0
C1068 C 0.56124 0.75003 0.10137 0.0
C1069 C 0.57045 0.72683 0.12211 0.0
C1070 C 0.53352 0.75134 0.08896 0.0
C1071 C 0.51444 0.72994 0.09858 0.0
C1072 C 0.52462 0.70575 0.11687 0.0
C1073 C 0.55249 0.70411 0.12807 0.0
C1074 C 0.43696 0.71588 0.10588 0.0
C1075 C 0.4274 0.74246 0.1166 0.0
C1076 C 0.46486 0.71219 0.09519 0.0
C1077 C 0.48375 0.73488 0.09663 0.0
C1078 C 0.47318 0.76192 0.10381 0.0
C1079 C 0.44518 0.76567 0.11325 0.0
H1080 H 0.54006 0.17014 0.39309 0.0
H1081 H 0.45774 0.16759 0.34215 0.0
H1082 H 0.53923 0.22131 0.39 0.0
H1083 H 0.45689 0.21868 0.33937 0.0
H1084 H 0.4933 0.29172 0.45655 0.0
H1085 H 0.50202 0.2441 0.43548 0.0
H1086 H 0.48011 0.26759 0.32161 0.0
H1087 H 0.47158 0.3159 0.34269 0.0
C1088 C 0.52231 0.18049 0.37996 0.0
C1089 C 0.4985 0.16532 0.36919 0.0
C1090 C 0.52185 0.20964 0.37816 0.0
C1091 C 0.49766 0.22359 0.36543 0.0
C1092 C 0.47564 0.20824 0.34951 0.0
C1093 C 0.47607 0.17911 0.35142 0.0
C1094 C 0.49014 0.28675 0.42708 0.0
C1095 C 0.48204 0.30739 0.40114 0.0
C1096 C 0.49558 0.25967 0.41493 0.0
C1097 C 0.49269 0.2527 0.37676 0.0
C1098 C 0.48304 0.27286 0.35103 0.0
C1099 C 0.47789 0.30022 0.36315 0.0
H1100 H 0.0668 0.19763 0.59234 0.0
H1101 H 0.06315 0.2815 0.63793 0.0
H1102 H 0.01782 0.20123 0.57307 0.0
H1103 H 0.01411 0.28497 0.61949 0.0
H1104 H 0.93027 0.20251 0.63679 0.0
H1105 H 0.97936 0.19974 0.61869 0.0
H1106 H 0.97519 0.2842 0.57435 0.0
H1107 H 0.92605 0.28705 0.59313 0.0
C1108 C 0.05561 0.21704 0.59752 0.0
C1109 C 0.06817 0.23897 0.61768 0.0
C1110 C 0.0277 0.21912 0.58636 0.0
C1111 C 0.01206 0.24309 0.59549 0.0
C1112 C 0.02566 0.26623 0.61194 0.0
C1113 C 0.05364 0.26418 0.62291 0.0
C1114 C 0.93969 0.22016 0.6223 0.0
C1115 C 0.92489 0.24527 0.61738 0.0
C1116 C 0.96771 0.21853 0.61152 0.0
C1117 C 0.98117 0.24199 0.59562 0.0
C1118 C 0.9654 0.26603 0.58711 0.0
C1119 C 0.9374 0.26767 0.59799 0.0
H1120 H 0.05843 0.02002 0.08319 0.0
H1121 H 0.97497 0.02386 0.12979 0.0
H1122 H 0.04112 -0.00831 0.03115 0.0
H1123 H 0.95694 -0.00189 0.07618 0.0
H1124 H 0.93351 0.93512 0.98719 0.0
H1125 H 0.95174 0.95796 0.04304 0.0
H1126 H 0.01701 -0.00363 0.97565 0.0
H1127 H -2e-05 0.97116 0.92054 0.0
C1128 C 0.03635 0.01475 0.08224 0.0
C1129 C 0.01788 0.02464 0.10994 0.0
C1130 C 0.02626 -0.00108 0.05205 0.0
C1131 C -0.00261 -0.00683 0.04854 0.0
C1132 C 0.97929 0.00182 0.07766 0.0
C1133 C -0.01044 0.01687 0.10837 0.0
C1134 C 0.9516 0.94869 0.98437 0.0
C1135 C 0.96542 0.95143 0.94969 0.0
C1136 C 0.9621 0.9619 1.01644 0.0
C1137 C 0.9861 0.97902 1.01429 0.0
C1138 C -0.00096 0.98275 0.97892 0.0
C1139 C -0.01098 0.96876 0.94709 0.0
H1140 H 0.22577 0.73384 0.38085 0.0
H1141 H 0.18279 0.7932 0.30936 0.0
H1142 H 0.25302 0.71746 0.32697 0.0
H1143 H 0.20827 0.77569 0.25495 0.0
H1144 H 0.27989 0.75891 0.17307 0.0
H1145 H 0.25097 0.77512 0.22493 0.0
H1146 H 0.25091 0.69125 0.27186 0.0
H1147 H 0.28182 0.67577 0.22125 0.0
C1148 C 0.22231 0.74338 0.35351 0.0
C1149 C 0.20262 0.76497 0.34918 0.0
C1150 C 0.23751 0.73373 0.32248 0.0
C1151 C 0.23279 0.74505 0.28631 0.0
C1152 C 0.21297 0.76678 0.2823 0.0
C1153 C 0.19832 0.77687 0.31349 0.0
C1154 C 0.27358 0.74396 0.19447 0.0
C1155 C 0.28362 0.71632 0.19376 0.0
C1156 C 0.25676 0.75317 0.22413 0.0
C1157 C 0.24887 0.73466 0.25317 0.0
C1158 C 0.25731 0.70638 0.25078 0.0
C1159 C 0.27468 0.69735 0.22149 0.0
H1160 H 0.47896 0.01761 0.42269 0.0
H1161 H 0.56268 0.01676 0.46898 0.0
H1162 H 0.46235 -0.01015 0.47558 0.0
H1163 H 0.54665 0.98716 0.52075 0.0
H1164 H 0.50333 0.96731 0.63176 0.0
H1165 H 0.52062 -0.00782 0.57627 0.0
H1166 H 0.46112 0.94719 0.5069 0.0
H1167 H 0.44287 0.92393 0.56276 0.0
C1168 C 0.49393 0.01091 0.44386 0.0
C1169 C 0.52191 0.01984 0.44231 0.0
C1170 C 0.48448 -0.00522 0.47411 0.0
C1171 C 0.50304 0.98658 0.50295 0.0
C1172 C 0.53156 -0.00617 0.49975 0.0
C1173 C 0.54087 0.01046 0.46983 0.0
C1174 C 0.49377 0.96321 0.60461 0.0
C1175 C 0.47159 0.94414 0.60143 0.0
C1176 C 0.50391 0.97706 0.57271 0.0
C1177 C 0.49242 0.97162 0.53688 0.0
C1178 C 0.47018 0.95237 0.53397 0.0
C1179 C 0.45967 0.93902 0.56598 0.0
H1180 H 0.26516 0.24484 0.88306 0.0
H1181 H 0.30943 0.1854 0.81344 0.0
H1182 H 0.23927 0.2615 0.828 0.0
H1183 H 0.28526 0.20312 0.75797 0.0
H1184 H 0.2152 0.22068 0.67336 0.0
H1185 H 0.24311 0.20409 0.72617 0.0
H1186 H 0.24327 0.28788 0.77293 0.0
H1187 H 0.21344 0.30377 0.72133 0.0
C1188 C 0.26919 0.23533 0.85589 0.0
C1189 C 0.28888 0.21367 0.8524 0.0
C1190 C 0.25477 0.24513 0.8242 0.0
C1191 C 0.26028 0.23387 0.78825 0.0
C1192 C 0.28001 0.21201 0.7851 0.0
C1193 C 0.2939 0.2018 0.81691 0.0
C1194 C 0.22138 0.23554 0.69488 0.0
C1195 C 0.21161 0.26328 0.69384 0.0
C1196 C 0.23758 0.22611 0.72511 0.0
C1197 C 0.2451 0.24449 0.75442 0.0
C1198 C 0.23709 0.27286 0.75165 0.0
C1199 C 0.22034 0.28212 0.72179 0.0
H1200 H 0.68066 0.28997 0.8111 0.0
H1201 H 0.72698 0.2322 0.88119 0.0
H1202 H 0.70588 0.27339 0.75584 0.0
H1203 H 0.75379 0.21674 0.82643 0.0
H1204 H 0.78119 0.17547 0.72013 0.0
H1205 H 0.7505 0.19025 0.77126 0.0
H1206 H 0.7488 0.27431 0.72507 0.0
H1207 H 0.77774 0.25883 0.6727 0.0
C1208 C 0.69682 0.27418 0.8147 0.0
C1209 C 0.70217 0.26243 0.85022 0.0
C1210 C 0.71129 0.26464 0.78306 0.0
C1211 C 0.73188 0.24361 0.78649 0.0
C1212 C 0.73765 0.23247 0.82246 0.0
C1213 C 0.72269 0.24158 0.85396 0.0
C1214 C 0.77373 0.19694 0.7206 0.0
C1215 C 0.7822 0.21619 0.69296 0.0
C1216 C 0.75646 0.20555 0.75018 0.0
C1217 C 0.74766 0.23367 0.75292 0.0
C1218 C 0.75497 0.25246 0.72394 0.0
C1219 C 0.77175 0.24367 0.694 0.0
H1220 H 0.78273 0.67678 0.32829 0.0
H1221 H 0.7779 0.75757 0.38255 0.0
H1222 H 0.75323 0.69404 0.27718 0.0
H1223 H 0.75024 0.77564 0.33027 0.0
H1224 H 0.68321 0.7946 0.24291 0.0
H1225 H 0.70823 0.77643 0.2975 0.0
H1226 H 0.75751 0.72302 0.22443 0.0
H1227 H 0.73088 0.73999 0.17024 0.0
C1228 C 0.77523 0.69822 0.32931 0.0
C1229 C 0.78302 0.71606 0.35888 0.0
C1230 C 0.75869 0.70829 0.29974 0.0
C1231 C 0.74993 0.73651 0.29893 0.0
C1232 C 0.75646 0.7538 0.32979 0.0
C1233 C 0.7725 0.74353 0.3597 0.0
C1234 C 0.6997 0.77927 0.23859 0.0
C1235 C 0.70535 0.76874 0.20251 0.0
C1236 C 0.71405 0.76879 0.26989 0.0
C1237 C 0.73482 0.74802 0.26559 0.0
C1238 C 0.74117 0.73843 0.22905 0.0
C1239 C 0.72633 0.74845 0.19788 0.0
H1240 H 0.49263 0.51139 0.63247 0.0
H1241 H 0.55543 0.55186 0.56396 0.0
H1242 H 0.47535 0.48626 0.57723 0.0
H1243 H 0.53737 0.52818 0.50831 0.0
H1244 H 0.51673 0.45853 0.42438 0.0
H1245 H 0.53439 0.48512 0.47769 0.0
H1246 H 0.44991 0.49277 0.521 0.0
H1247 H 0.43266 0.46442 0.46872 0.0
C1248 C 0.50279 0.5147 0.60552 0.0
C1249 C 0.52548 0.5332 0.60238 0.0
C1250 C 0.49267 0.50071 0.57376 0.0
C1251 C 0.50475 0.50535 0.53808 0.0
C1252 C 0.52777 0.5237 0.53528 0.0
C1253 C 0.53819 0.53727 0.56717 0.0
C1254 C 0.50195 0.46605 0.44524 0.0
C1255 C 0.47346 0.45897 0.44291 0.0
C1256 C 0.51203 0.48149 0.47573 0.0
C1257 C 0.49367 0.49078 0.50414 0.0
C1258 C 0.4648 0.48524 0.50032 0.0
C1259 C 0.45481 0.46935 0.47008 0.0
H1260 H 0.05994 0.51823 0.96847 0.0
H1261 H 0.97635 0.51786 0.92177 0.0
H1262 H 0.04399 0.48913 1.02082 0.0
H1263 H 0.95981 0.49055 0.97516 0.0
H1264 H 0.94192 0.42368 0.06228 0.0
H1265 H 0.9593 0.44783 1.00663 0.0
H1266 H 0.01752 0.49427 0.07622 0.0
H1267 H 0.00112 0.46854 0.13155 0.0
C1268 C 0.03817 0.51178 0.96937 0.0
C1269 C 0.01922 0.52065 0.94154 0.0
C1270 C 0.0289 0.49546 0.99962 0.0
C1271 C 0.00044 0.48798 1.00279 0.0
C1272 C 0.98189 0.49571 0.97372 0.0
C1273 C -0.00871 0.51156 0.94319 0.0
C1274 C 0.95819 0.43932 0.06564 0.0
C1275 C 0.97012 0.4445 0.10108 0.0
C1276 C 0.9682 0.45318 0.03374 0.0
C1277 C -0.01007 0.47299 0.03675 0.0
C1278 C 0.00122 0.47871 0.07261 0.0
C1279 C -0.00842 0.46437 0.10442 0.0
H1280 H 0.08065 0.17927 0.3707 0.0
H1281 H 0.1442 0.11502 0.38135 0.0
H1282 H 0.09549 0.19933 0.43037 0.0
H1283 H 0.15876 0.13501 0.44171 0.0
H1284 H 0.15295 0.16712 0.56843 0.0
H1285 H 0.14247 0.14385 0.50836 0.0
H1286 H 0.13671 0.22465 0.45379 0.0
H1287 H 0.1469 0.24768 0.51314 0.0
C1288 C 0.09791 0.16947 0.38559 0.0
C1289 C 0.11137 0.14565 0.37075 0.0
C1290 C 0.10642 0.18098 0.41993 0.0
C1291 C 0.12858 0.169 0.44067 0.0
C1292 C 0.14156 0.1447 0.42655 0.0
C1293 C 0.13313 0.13321 0.39194 0.0
C1294 C 0.15005 0.17982 0.5434 0.0
C1295 C 0.15053 0.20927 0.54572 0.0
C1296 C 0.14394 0.16651 0.50901 0.0
C1297 C 0.13815 0.18242 0.47642 0.0
C1298 C 0.14032 0.21176 0.47849 0.0
C1299 C 0.14639 0.22497 0.51258 0.0
H1300 H 0.12111 0.84232 0.64654 0.0
H1301 H 0.04323 0.86582 0.59302 0.0
H1302 H 0.10192 0.85617 0.7078 0.0
H1303 H 0.02434 0.88014 0.65359 0.0
H1304 H 0.98596 0.86579 0.76768 0.0
H1305 H 0.0082 0.85688 0.70818 0.0
H1306 H 0.08495 0.89387 0.74932 0.0
H1307 H 0.06229 0.90258 0.81052 0.0
C1308 C 0.10002 0.85072 0.64778 0.0
C1309 C 0.08354 0.85248 0.6149 0.0
C1310 C 0.08906 0.8588 0.6829 0.0
C1311 C 0.0614 0.86897 0.68591 0.0
C1312 C 0.04544 0.87173 0.65269 0.0
C1313 C 0.05627 0.86348 0.61783 0.0
C1314 C 0.0074 0.87264 0.76426 0.0
C1315 C 0.02203 0.8855 0.79404 0.0
C1316 C 0.02026 0.86746 0.72974 0.0
C1317 C 0.04832 0.87502 0.72341 0.0
C1318 C 0.06329 0.88772 0.75317 0.0
C1319 C 0.05027 0.89289 0.78817 0.0
H1320 H 0.34019 0.73456 1.01272 0.0
H1321 H 0.3467 0.81369 0.07103 0.0
H1322 H 0.34791 0.75818 0.95287 0.0
H1323 H 0.35444 0.83758 1.01057 0.0
H1324 H 0.40752 0.85743 0.90141 0.0
H1325 H 0.39347 0.83811 0.96249 0.0
H1326 H 0.32701 0.7918 0.90835 0.0
H1327 H 0.34136 0.8105 0.84744 0.0
C1328 C 0.34275 0.75714 1.01266 0.0
C1329 C 0.34276 0.77226 0.04663 0.0
C1330 C 0.34711 0.77071 0.97828 0.0
C1331 C 0.35192 0.79977 0.9769 0.0
C1332 C 0.35103 0.81512 1.01075 0.0
C1333 C 0.34627 0.80151 0.04529 0.0
C1334 C 0.38993 0.84311 0.90257 0.0
C1335 C 0.37564 0.83547 0.86944 0.0
C1336 C 0.38166 0.83231 0.93763 0.0
C1337 C 0.3591 0.81341 0.94032 0.0
C1338 C 0.34457 0.80616 0.90727 0.0
C1339 C 0.35269 0.81707 0.87235 0.0
H1340 H 0.42613 0.0822 0.31687 0.0
H1341 H 0.50631 0.07945 0.26051 0.0
H1342 H 0.40304 0.09145 0.25626 0.0
H1343 H 0.48359 0.08902 0.20068 0.0
H1344 H 0.43462 0.08798 0.09257 0.0
H1345 H 0.45285 0.07122 0.15264 0.0
H1346 H 0.40038 0.13075 0.21126 0.0
H1347 H 0.38205 0.14753 0.15101 0.0
C1348 C 0.43874 0.08295 0.29151 0.0
C1349 C 0.46806 0.08006 0.29356 0.0
C1350 C 0.42558 0.08861 0.25684 0.0
C1351 C 0.44143 0.09117 0.22349 0.0
C1352 C 0.47058 0.08693 0.22553 0.0
C1353 C 0.48368 0.08153 0.26001 0.0
C1354 C 0.42704 0.09764 0.11822 0.0
C1355 C 0.40707 0.11938 0.11677 0.0
C1356 C 0.43744 0.08793 0.15276 0.0
C1357 C 0.42824 0.09969 0.18694 0.0
C1358 C 0.4077 0.12092 0.1856 0.0
C1359 C 0.39725 0.13063 0.15098 0.0
H1360 H 0.83694 0.80925 0.48812 0.0
H1361 H 0.84878 0.72849 0.54116 0.0
H1362 H 0.84394 0.83219 0.54917 0.0
H1363 H 0.85635 0.75118 0.60133 0.0
H1364 H 0.84855 0.79639 0.71143 0.0
H1365 H 0.83475 0.77682 0.65105 0.0
H1366 H 0.88205 0.84112 0.59356 0.0
H1367 H 0.8948 0.86162 0.65418 0.0
C1368 C 0.84058 0.79637 0.5128 0.0
C1369 C 0.84225 0.76701 0.50963 0.0
C1370 C 0.84494 0.80953 0.54774 0.0
C1371 C 0.85085 0.7936 0.58031 0.0
C1372 C 0.85152 0.76421 0.57715 0.0
C1373 C 0.84729 0.75115 0.54242 0.0
C1374 C 0.85568 0.80672 0.686 0.0
C1375 C 0.87288 0.83065 0.68794 0.0
C1376 C 0.84799 0.79525 0.65123 0.0
C1377 C 0.85736 0.80724 0.61724 0.0
C1378 C 0.87418 0.83144 0.61907 0.0
C1379 C 0.88186 0.84298 0.65393 0.0
H1380 H 0.94616 0.15055 0.43954 0.0
H1381 H 0.87202 0.10028 0.42199 0.0
H1382 H 0.96486 0.13473 0.37952 0.0
H1383 H 0.89086 0.08433 0.36157 0.0
H1384 H 0.92536 0.0887 0.23681 0.0
H1385 H 0.90329 0.09985 0.29737 0.0
H1386 H 0.98381 0.09252 0.35239 0.0
H1387 H 0.00572 0.08206 0.29226 0.0
C1388 C 0.93392 0.13593 0.423 0.0
C1389 C 0.90769 0.12652 0.43587 0.0
C1390 C 0.94467 0.12679 0.38853 0.0
C1391 C 0.92957 0.10789 0.36586 0.0
C1392 C 0.90301 0.09896 0.37821 0.0
C1393 C 0.8922 0.10815 0.41283 0.0
C1394 C 0.93815 0.08882 0.26203 0.0
C1395 C 0.96731 0.08469 0.2597 0.0
C1396 C 0.92554 0.09532 0.29673 0.0
C1397 C 0.94187 0.0977 0.32968 0.0
C1398 C 0.9707 0.09168 0.32749 0.0
C1399 C 0.98324 0.08539 0.29301 0.0
H1400 H 0.65302 0.16194 0.98225 0.0
H1401 H 0.65068 0.24195 0.03899 0.0
H1402 H 0.64572 0.1381 0.04281 0.0
H1403 H 0.64316 0.21842 0.09881 0.0
H1404 H 0.64865 0.16914 0.2064 0.0
H1405 H 0.66398 0.18824 0.14617 0.0
H1406 H 0.6064 0.13339 0.08818 0.0
H1407 H 0.59095 0.11426 0.14862 0.0
C1408 C 0.65161 0.17438 1.00768 0.0
C1409 C 0.6525 0.20383 1.00578 0.0
C1410 C 0.64708 0.16077 0.04231 0.0
C1411 C 0.6437 0.17632 0.07574 0.0
C1412 C 0.64595 0.20569 0.07385 0.0
C1413 C 0.65019 0.21922 0.03941 0.0
C1414 C 0.63913 0.16119 0.18086 0.0
C1415 C 0.61825 0.14039 0.18253 0.0
C1416 C 0.64802 0.17209 0.14625 0.0
C1417 C 0.63633 0.16251 0.11224 0.0
C1418 C 0.61612 0.14104 0.11375 0.0
C1419 C 0.60719 0.13012 0.14846 0.0
H1420 H 0.48521 0.89643 0.79442 0.0
H1421 H 0.56624 0.89541 0.74015 0.0
H1422 H 0.50738 0.88779 0.85496 0.0
H1423 H 0.58869 0.88705 0.80133 0.0
H1424 H 0.60874 0.83039 0.90628 0.0
H1425 H 0.59084 0.84713 0.84581 0.0
H1426 H 0.5377 0.90649 0.90363 0.0
H1427 H 0.55562 0.88989 0.96398 0.0
C1428 C 0.50789 0.89501 0.79555 0.0
C1429 C 0.52395 0.89662 0.7624 0.0
C1430 C 0.52064 0.89012 0.83038 0.0
C1431 C 0.54984 0.88651 0.83309 0.0
C1432 C 0.56611 0.88939 0.80017 0.0
C1433 C 0.5533 0.89456 0.76519 0.0
C1434 C 0.59352 0.84728 0.9061 0.0
C1435 C 0.58343 0.85854 0.94014 0.0
C1436 C 0.58331 0.85695 0.87137 0.0
C1437 C 0.56274 0.87812 0.86978 0.0
C1438 C 0.55321 0.88986 0.90378 0.0
C1439 C 0.56341 0.88023 0.93844 0.0
H1440 H 0.58342 0.68252 0.87363 0.0
H1441 H 0.64903 0.61999 0.87866 0.0
H1442 H 0.59926 0.70169 0.93335 0.0
H1443 H 0.66454 0.63903 0.9392 0.0
H1444 H 0.65893 0.6685 0.06814 0.0
H1445 H 0.64888 0.64603 1.00732 0.0
H1446 H 0.64099 0.72762 0.95542 0.0
H1447 H 0.65082 0.74983 1.01548 0.0
C1448 C 0.60134 0.67291 0.88728 0.0
C1449 C 0.61508 0.64985 0.87084 0.0
C1450 C 0.61042 0.68391 0.92166 0.0
C1451 C 0.63344 0.67214 0.94087 0.0
C1452 C 0.64671 0.64854 0.92519 0.0
C1453 C 0.63772 0.6376 0.89051 0.0
C1454 C 0.65581 0.68155 0.04348 0.0
C1455 C 0.65545 0.71095 0.04676 0.0
C1456 C 0.6499 0.6687 1.00869 0.0
C1457 C 0.64348 0.68506 0.9767 0.0
C1458 C 0.6451 0.71439 0.97965 0.0
C1459 C 0.65098 0.72712 1.01411 0.0
H1460 H 0.56676 0.37647 0.3224 0.0
H1461 H 0.489 0.39111 0.26295 0.0
H1462 H 0.58936 0.36373 0.26272 0.0
H1463 H 0.51145 0.37884 0.20396 0.0
H1464 H 0.54734 0.32275 0.1137 0.0
H1465 H 0.52826 0.33636 0.17458 0.0
H1466 H 0.60478 0.38077 0.20024 0.0
H1467 H 0.62431 0.36633 0.13958 0.0
C1468 C 0.55462 0.37747 0.29664 0.0
C1469 C 0.52598 0.38462 0.29767 0.0
C1470 C 0.56755 0.37012 0.26241 0.0
C1471 C 0.5521 0.36973 0.22852 0.0
C1472 C 0.52385 0.37814 0.22952 0.0
C1473 C 0.51101 0.38543 0.26349 0.0
C1474 C 0.56032 0.33505 0.13247 0.0
C1475 C 0.58737 0.34346 0.1215 0.0
C1476 C 0.54922 0.3432 0.16729 0.0
C1477 C 0.56482 0.36 0.19227 0.0
C1478 C 0.59217 0.36781 0.18181 0.0
C1479 C 0.60326 0.35973 0.14683 0.0
H1480 H 0.84321 0.30313 0.34308 0.0
H1481 H 0.90653 0.3528 0.39883 0.0
H1482 H 0.82689 0.28606 0.40396 0.0
H1483 H 0.88989 0.3359 0.45985 0.0
H1484 H 0.84145 0.31314 0.56675 0.0
H1485 H 0.84967 0.33556 0.50542 0.0
H1486 H 0.84674 0.25442 0.45164 0.0
H1487 H 0.8385 0.23227 0.51236 0.0
C1488 C 0.85373 0.31039 0.36829 0.0
C1489 C 0.87648 0.32908 0.36587 0.0
C1490 C 0.84424 0.30069 0.40324 0.0
C1491 C 0.85714 0.30951 0.43681 0.0
C1492 C 0.87925 0.32895 0.43458 0.0
C1493 C 0.88884 0.3386 0.39954 0.0
C1494 C 0.84183 0.30026 0.54164 0.0
C1495 C 0.83928 0.27096 0.54436 0.0
C1496 C 0.84688 0.31304 0.50661 0.0
C1497 C 0.84902 0.29677 0.47363 0.0
C1498 C 0.84497 0.26764 0.47632 0.0
C1499 C 0.84031 0.25492 0.5112 0.0
H1500 H 0.00239 0.57642 0.75909 0.0
H1501 H 0.92313 0.58404 0.81695 0.0
H1502 H 0.97921 0.58512 0.69922 0.0
H1503 H 0.89964 0.59266 0.75645 0.0
H1504 H 0.88123 0.64781 0.64879 0.0
H1505 H 0.89927 0.63169 0.70952 0.0
H1506 H 0.94603 0.56639 0.65338 0.0
H1507 H 0.92786 0.58225 0.59283 0.0
C1508 C 0.97985 0.5794 0.75893 0.0
C1509 C 0.96461 0.5795 0.79283 0.0
C1510 C 0.96652 0.58432 0.72449 0.0
C1511 C 0.93755 0.58974 0.72294 0.0
C1512 C 0.92204 0.58882 0.75671 0.0
C1513 C 0.93541 0.58355 0.7913 0.0
C1514 C 0.89501 0.62975 0.6494 0.0
C1515 C 0.90331 0.6166 0.6157 0.0
C1516 C 0.90532 0.62046 0.68429 0.0
C1517 C 0.92424 0.59782 0.68638 0.0
C1518 C 0.93186 0.58417 0.6528 0.0
C1519 C 0.92152 0.59338 0.61801 0.0
H1520 H 0.34458 0.36303 0.17376 0.0
H1521 H 0.41502 0.3061 0.18064 0.0
H1522 H 0.33096 0.3421 0.11363 0.0
H1523 H 0.40103 0.28498 0.12124 0.0
H1524 H 0.35245 0.23191 0.03982 0.0
H1525 H 0.36215 0.25552 0.09886 0.0
H1526 H 0.34661 0.33563 0.04595 0.0
H1527 H 0.33675 0.31176 0.98606 0.0
C1528 C 0.35735 0.34626 0.16243 0.0
C1529 C 0.38085 0.33618 0.18254 0.0
C1530 C 0.34945 0.33422 0.12791 0.0
C1531 C 0.36467 0.31162 0.11275 0.0
C1532 C 0.38843 0.30194 0.13245 0.0
C1533 C 0.39643 0.31406 0.1667 0.0
C1534 C 0.35075 0.25457 0.04062 0.0
C1535 C 0.34401 0.26991 1.00791 0.0
C1536 C 0.35655 0.26813 0.07457 0.0
C1537 C 0.35575 0.29752 0.07707 0.0
C1538 C 0.34746 0.31294 0.04499 0.0
C1539 C 0.34171 0.29927 1.01069 0.0
H1540 H 0.37884 0.64724 0.89924 0.0
H1541 H 0.4361 0.59288 0.9591 0.0
H1542 H 0.39833 0.6312 0.83937 0.0
H1543 H 0.4554 0.5767 0.89945 0.0
H1544 H 0.50781 0.58693 0.79134 0.0
H1545 H 0.48454 0.59564 0.8509 0.0
H1546 H 0.40399 0.59213 0.79531 0.0
H1547 H 0.42762 0.58389 0.73494 0.0
C1548 C 0.39533 0.63161 0.89965 0.0
C1549 C 0.40611 0.62164 0.9341 0.0
C1550 C 0.40645 0.6223 0.86527 0.0
C1551 C 0.42858 0.60272 0.86443 0.0
C1552 C 0.43875 0.59217 0.89891 0.0
C1553 C 0.42771 0.60153 0.9332 0.0
C1554 C 0.48509 0.58752 0.79178 0.0
C1555 C 0.4696 0.58471 0.75827 0.0
C1556 C 0.47168 0.59242 0.82613 0.0
C1557 C 0.44232 0.59475 0.82809 0.0
C1558 C 0.42666 0.5908 0.7948 0.0
C1559 C 0.44016 0.5857 0.76026 0.0
H1560 H 0.15246 0.66605 0.48059 0.0
H1561 H 0.14233 0.74631 0.53521 0.0
H1562 H 0.14203 0.64238 0.54053 0.0
H1563 H 0.13214 0.72291 0.59437 0.0
H1564 H 0.07682 0.67538 0.67641 0.0
H1565 H 0.09166 0.69592 0.61697 0.0
H1566 H 0.15764 0.63425 0.60785 0.0
H1567 H 0.14312 0.61382 0.66803 0.0
C1568 C 0.14869 0.67863 0.50545 0.0
C1569 C 0.14804 0.70809 0.50293 0.0
C1570 C 0.14259 0.66508 0.53978 0.0
C1571 C 0.13565 0.68075 0.57212 0.0
C1572 C 0.13665 0.71015 0.56988 0.0
C1573 C 0.14275 0.72359 0.53588 0.0
C1574 C 0.09468 0.66626 0.66209 0.0
C1575 C 0.10889 0.64305 0.67754 0.0
C1576 C 0.10319 0.67806 0.62784 0.0
C1577 C 0.1261 0.66697 0.60776 0.0
C1578 C 0.13986 0.64325 0.62248 0.0
C1579 C 0.13143 0.6315 0.65699 0.0
H1580 H 0.98721 0.39274 0.29019 0.0
H1581 H 0.06857 0.39671 0.23706 0.0
H1582 H 0.00931 0.38314 0.35053 0.0
H1583 H 0.0909 0.38674 0.29799 0.0
H1584 H 0.11904 0.38714 0.42475 0.0
H1585 H 0.0996 0.40263 0.36438 0.0
H1586 H 0.03328 0.34159 0.37508 0.0
H1587 H 0.05275 0.32588 0.43479 0.0
C1588 C 0.00991 0.39201 0.29151 0.0
C1589 C 0.02612 0.39531 0.2587 0.0
C1590 C 0.02258 0.38625 0.32612 0.0
C1591 C 0.05185 0.3835 0.329 0.0
C1592 C 0.06828 0.38868 0.29673 0.0
C1593 C 0.05551 0.39453 0.26185 0.0
C1594 C 0.1005 0.37678 0.41402 0.0
C1595 C 0.08737 0.35536 0.43499 0.0
C1596 C 0.08932 0.38575 0.37943 0.0
C1597 C 0.06466 0.37365 0.36509 0.0
C1598 C 0.05191 0.35188 0.38568 0.0
C1599 C 0.0631 0.34285 0.42004 0.0
loop_
_geom_bond_atom_site_label_1
_geom_bond_atom_site_label_2
_geom_bond_distance
_geom_bond_site_symmetry_2
_ccdc_geom_bond_type
Nd0 C2 2.836 . S
Nd0 O20 2.500 . S
Nd0 O21 2.492 . S
Nd0 O22 2.487 . S
Nd0 O23 2.682 1_655 S
Nd0 O24 2.410 1_655 S
Nd0 O29 2.414 . S
Nd0 O31 2.424 . S
Nd1 C11 2.836 . S
Nd1 O23 2.414 . S
Nd1 O25 2.424 . S
Nd1 O26 2.500 . S
Nd1 O27 2.492 . S
Nd1 O28 2.487 . S
Nd1 O29 2.682 1_455 S
Nd1 O30 2.410 1_455 S
C2 Nd0 2.836 . S
C2 C3 1.498 1_554 S
C2 O20 1.258 . S
C2 O21 1.239 . S
C3 C2 1.498 1_556 S
C3 C4 1.366 . S
C3 C8 1.407 . S
C4 C3 1.366 . S
C4 C5 1.392 . S
C4 H32 0.930 . S
C5 C4 1.392 . S
C5 C6 1.398 . S
C5 H33 0.929 . S
C6 C5 1.398 . S
C6 C7 1.352 . S
C7 C6 1.352 . S
C7 C8 1.384 . S
C7 H34 0.930 . S
C8 C3 1.407 . S
C8 C7 1.384 . S
C8 H35 0.929 . S
C9 O22 1.241 . S
C9 O23 1.273 1_655 S
C10 O24 1.251 . S
C10 O25 1.268 . S
C11 Nd1 2.836 . S
C11 C12 1.498 . S
C11 O26 1.258 . S
C11 O27 1.239 . S
C12 C11 1.498 . S
C12 C13 1.366 . S
C12 C17 1.407 . S
C13 C12 1.366 . S
C13 C14 1.392 . S
C13 H36 0.930 . S
C14 C13 1.392 . S
C14 C15 1.398 . S
C14 H37 0.929 . S
C15 C14 1.398 . S
C15 C16 1.352 . S
C16 C15 1.352 . S
C16 C17 1.384 . S
C16 H38 0.930 . S
C17 C12 1.407 . S
C17 C16 1.384 . S
C17 H39 0.929 . S
C18 O28 1.241 . S
C18 O29 1.273 1_455 S
C19 O30 1.251 . S
C19 O31 1.268 . S
O20 Nd0 2.500 . S
O20 C2 1.258 . S
O21 Nd0 2.492 . S
O21 C2 1.239 . S
O22 Nd0 2.487 . S
O22 C9 1.241 . S
O23 Nd0 2.682 1_455 S
O23 Nd1 2.414 . S
O23 C9 1.273 1_455 S
O24 Nd0 2.410 1_455 S
O24 C10 1.251 . S
O25 Nd1 2.424 . S
O25 C10 1.268 . S
O26 Nd1 2.500 . S
O26 C11 1.258 . S
O27 Nd1 2.492 . S
O27 C11 1.239 . S
O28 Nd1 2.487 . S
O28 C18 1.241 . S
O29 Nd0 2.414 . S
O29 Nd1 2.682 1_655 S
O29 C18 1.273 1_655 S
O30 Nd1 2.410 1_655 S
O30 C19 1.251 . S
O31 Nd0 2.424 . S
O31 C19 1.268 . S
H32 C4 0.930 . S
H33 C5 0.929 . S
H34 C7 0.930 . S
H35 C8 0.929 . S
H36 C13 0.930 . S
H37 C14 0.929 . S
H38 C16 0.930 . S
H39 C17 0.929 . S
Nd40 C42 2.836 . S
Nd40 O60 2.500 . S
Nd40 O61 2.492 . S
Nd40 O62 2.487 . S
Nd40 O63 2.682 . S
Nd40 O64 2.410 . S
Nd40 O69 2.414 . S
Nd40 O71 2.424 . S
Nd41 C51 2.836 . S
Nd41 O63 2.414 . S
Nd41 O65 2.424 . S
Nd41 O66 2.500 . S
Nd41 O67 2.492 . S
Nd41 O68 2.487 . S
Nd41 O69 2.682 . S
Nd41 O70 2.410 . S
C42 Nd40 2.836 . S
C42 C43 1.498 . S
C42 O60 1.258 . S
C42 O61 1.239 . S
C43 C42 1.498 . S
C43 C44 1.366 . S
C43 C48 1.407 . S
C44 C43 1.366 . S
C44 C45 1.392 . S
C44 H72 0.930 . S
C45 C44 1.392 . S
C45 C46 1.398 . S
C45 H73 0.929 . S
C46 C45 1.398 . S
C46 C47 1.352 . S
C47 C46 1.352 . S
C47 C48 1.384 . S
C47 H74 0.930 . S
C48 C43 1.407 . S
C48 C47 1.384 . S
C48 H75 0.929 . S
C49 O62 1.241 . S
C49 O63 1.273 . S
C50 O64 1.251 . S
C50 O65 1.268 . S
C51 Nd41 2.836 . S
C51 C52 1.498 . S
C51 O66 1.258 . S
C51 O67 1.239 . S
C52 C51 1.498 . S
C52 C53 1.366 . S
C52 C57 1.407 . S
C53 C52 1.366 . S
C53 C54 1.392 . S
C53 H76 0.930 . S
C54 C53 1.392 . S
C54 C55 1.398 . S
C54 H77 0.929 . S
C55 C54 1.398 . S
C55 C56 1.352 . S
C56 C55 1.352 . S
C56 C57 1.384 . S
C56 H78 0.930 . S
C57 C52 1.407 . S
C57 C56 1.384 . S
C57 H79 0.929 . S
C58 O68 1.241 . S
C58 O69 1.273 . S
C59 O70 1.251 . S
C59 O71 1.268 . S
O60 Nd40 2.500 . S
O60 C42 1.258 . S
O61 Nd40 2.492 . S
O61 C42 1.239 . S
O62 Nd40 2.487 . S
O62 C49 1.241 . S
O63 Nd40 2.682 . S
O63 Nd41 2.414 . S
O63 C49 1.273 . S
O64 Nd40 2.410 . S
O64 C50 1.251 . S
O65 Nd41 2.424 . S
O65 C50 1.268 . S
O66 Nd41 2.500 . S
O66 C51 1.258 . S
O67 Nd41 2.492 . S
O67 C51 1.239 . S
O68 Nd41 2.487 . S
O68 C58 1.241 . S
O69 Nd40 2.414 . S
O69 Nd41 2.682 . S
O69 C58 1.273 . S
O70 Nd41 2.410 . S
O70 C59 1.251 . S
O71 Nd40 2.424 . S
O71 C59 1.268 . S
H72 C44 0.930 . S
H73 C45 0.929 . S
H74 C47 0.930 . S
H75 C48 0.929 . S
H76 C53 0.930 . S
H77 C54 0.929 . S
H78 C56 0.930 . S
H79 C57 0.929 . S
Nd80 C82 2.836 . S
Nd80 O100 2.500 . S
Nd80 O101 2.492 . S
Nd80 O102 2.487 . S
Nd80 O103 2.682 . S
Nd80 O104 2.410 . S
Nd80 O109 2.414 . S
Nd80 O111 2.424 . S
Nd81 C91 2.836 . S
Nd81 O103 2.414 . S
Nd81 O105 2.424 . S
Nd81 O106 2.500 . S
Nd81 O107 2.492 . S
Nd81 O108 2.487 . S
Nd81 O109 2.682 . S
Nd81 O110 2.410 . S
C82 Nd80 2.836 . S
C82 C83 1.498 . S
C82 O100 1.258 . S
C82 O101 1.239 . S
C83 C82 1.498 . S
C83 C84 1.366 . S
C83 C88 1.407 . S
C84 C83 1.366 . S
C84 C85 1.392 . S
C84 H112 0.930 . S
C85 C84 1.392 . S
C85 C86 1.398 . S
C85 H113 0.929 . S
C86 C85 1.398 . S
C86 C87 1.352 . S
C87 C86 1.352 . S
C87 C88 1.384 . S
C87 H114 0.930 . S
C88 C83 1.407 . S
C88 C87 1.384 . S
C88 H115 0.929 . S
C89 O102 1.241 . S
C89 O103 1.273 . S
C90 O104 1.251 . S
C90 O105 1.268 . S
C91 Nd81 2.836 . S
C91 C92 1.498 . S
C91 O106 1.258 . S
C91 O107 1.239 . S
C92 C91 1.498 . S
C92 C93 1.366 . S
C92 C97 1.407 . S
C93 C92 1.366 . S
C93 C94 1.392 . S
C93 H116 0.930 . S
C94 C93 1.392 . S
C94 C95 1.398 . S
C94 H117 0.929 . S
C95 C94 1.398 . S
C95 C96 1.352 . S
C96 C95 1.352 . S
C96 C97 1.384 . S
C96 H118 0.930 . S
C97 C92 1.407 . S
C97 C96 1.384 . S
C97 H119 0.929 . S
C98 O108 1.241 . S
C98 O109 1.273 . S
C99 O110 1.251 . S
C99 O111 1.268 . S
O100 Nd80 2.500 . S
O100 C82 1.258 . S
O101 Nd80 2.492 . S
O101 C82 1.239 . S
O102 Nd80 2.487 . S
O102 C89 1.241 . S
O103 Nd80 2.682 . S
O103 Nd81 2.414 . S
O103 C89 1.273 . S
O104 Nd80 2.410 . S
O104 C90 1.251 . S
O105 Nd81 2.424 . S
O105 C90 1.268 . S
O106 Nd81 2.500 . S
O106 C91 1.258 . S
O107 Nd81 2.492 . S
O107 C91 1.239 . S
O108 Nd81 2.487 . S
O108 C98 1.241 . S
O109 Nd80 2.414 . S
O109 Nd81 2.682 . S
O109 C98 1.273 . S
O110 Nd81 2.410 . S
O110 C99 1.251 . S
O111 Nd80 2.424 . S
O111 C99 1.268 . S
H112 C84 0.930 . S
H113 C85 0.929 . S
H114 C87 0.930 . S
H115 C88 0.929 . S
H116 C93 0.930 . S
H117 C94 0.929 . S
H118 C96 0.930 . S
H119 C97 0.929 . S
Nd120 C122 2.836 . S
Nd120 O140 2.500 . S
Nd120 O141 2.492 . S
Nd120 O142 2.487 . S
Nd120 O143 2.682 . S
Nd120 O144 2.410 . S
Nd120 O149 2.414 . S
Nd120 O151 2.424 . S
Nd121 C131 2.836 . S
Nd121 O143 2.414 . S
Nd121 O145 2.424 . S
Nd121 O146 2.500 . S
Nd121 O147 2.492 . S
Nd121 O148 2.487 . S
Nd121 O149 2.682 . S
Nd121 O150 2.410 . S
C122 Nd120 2.836 . S
C122 C123 1.498 . S
C122 O140 1.258 . S
C122 O141 1.239 . S
C123 C122 1.498 . S
C123 C124 1.366 . S
C123 C128 1.407 . S
C124 C123 1.366 . S
C124 C125 1.392 . S
C124 H152 0.930 . S
C125 C124 1.392 . S
C125 C126 1.398 . S
C125 H153 0.929 . S
C126 C125 1.398 . S
C126 C127 1.352 . S
C127 C126 1.352 . S
C127 C128 1.384 . S
C127 H154 0.930 . S
C128 C123 1.407 . S
C128 C127 1.384 . S
C128 H155 0.929 . S
C129 O142 1.241 . S
C129 O143 1.273 . S
C130 O144 1.251 . S
C130 O145 1.268 . S
C131 Nd121 2.836 . S
C131 C132 1.498 . S
C131 O146 1.258 . S
C131 O147 1.239 . S
C132 C131 1.498 . S
C132 C133 1.367 1_556 S
C132 C137 1.407 1_556 S
C133 C132 1.367 1_554 S
C133 C134 1.392 . S
C133 H156 0.930 . S
C134 C133 1.392 . S
C134 C135 1.398 . S
C134 H157 0.929 . S
C135 C134 1.398 . S
C135 C136 1.352 . S
C136 C135 1.352 . S
C136 C137 1.384 . S
C136 H158 0.930 . S
C137 C132 1.407 1_554 S
C137 C136 1.384 . S
C137 H159 0.929 1_554 S
C138 O148 1.241 . S
C138 O149 1.273 . S
C139 O150 1.251 . S
C139 O151 1.268 . S
O140 Nd120 2.500 . S
O140 C122 1.258 . S
O141 Nd120 2.492 . S
O141 C122 1.239 . S
O142 Nd120 2.487 . S
O142 C129 1.241 . S
O143 Nd120 2.682 . S
O143 Nd121 2.414 . S
O143 C129 1.273 . S
O144 Nd120 2.410 . S
O144 C130 1.251 . S
O145 Nd121 2.424 . S
O145 C130 1.268 . S
O146 Nd121 2.500 . S
O146 C131 1.258 . S
O147 Nd121 2.492 . S
O147 C131 1.239 . S
O148 Nd121 2.487 . S
O148 C138 1.241 . S
O149 Nd120 2.414 . S
O149 Nd121 2.682 . S
O149 C138 1.273 . S
O150 Nd121 2.410 . S
O150 C139 1.251 . S
O151 Nd120 2.424 . S
O151 C139 1.268 . S
H152 C124 0.930 . S
H153 C125 0.929 . S
H154 C127 0.930 . S
H155 C128 0.929 . S
H156 C133 0.930 . S
H157 C134 0.929 . S
H158 C136 0.930 . S
H159 C137 0.929 1_556 S
Nd160 C162 2.836 . S
Nd160 O180 2.500 . S
Nd160 O181 2.492 . S
Nd160 O182 2.487 . S
Nd160 O183 2.682 1_655 S
Nd160 O184 2.410 1_655 S
Nd160 O189 2.414 1_655 S
Nd160 O191 2.424 . S
Nd161 C171 2.836 . S
Nd161 O183 2.414 . S
Nd161 O185 2.424 . S
Nd161 O186 2.500 . S
Nd161 O187 2.492 . S
Nd161 O188 2.487 . S
Nd161 O189 2.682 . S
Nd161 O190 2.410 . S
C162 Nd160 2.836 . S
C162 C163 1.498 . S
C162 O180 1.258 . S
C162 O181 1.239 . S
C163 C162 1.498 . S
C163 C164 1.366 . S
C163 C168 1.407 . S
C164 C163 1.366 . S
C164 C165 1.392 . S
C164 H192 0.930 . S
C165 C164 1.392 . S
C165 C166 1.398 . S
C165 H193 0.929 . S
C166 C165 1.398 . S
C166 C167 1.352 . S
C167 C166 1.352 . S
C167 C168 1.384 . S
C167 H194 0.930 . S
C168 C163 1.407 . S
C168 C167 1.384 . S
C168 H195 0.929 . S
C169 O182 1.241 1_455 S
C169 O183 1.273 . S
C170 O184 1.251 . S
C170 O185 1.268 . S
C171 Nd161 2.836 . S
C171 C172 1.498 1_556 S
C171 O186 1.258 . S
C171 O187 1.239 . S
C172 C171 1.498 1_554 S
C172 C173 1.366 . S
C172 C177 1.407 . S
C173 C172 1.366 . S
C173 C174 1.392 . S
C173 H196 0.930 . S
C174 C173 1.392 . S
C174 C175 1.398 . S
C174 H197 0.929 . S
C175 C174 1.398 . S
C175 C176 1.352 . S
C176 C175 1.352 . S
C176 C177 1.384 . S
C176 H198 0.930 . S
C177 C172 1.407 . S
C177 C176 1.384 . S
C177 H199 0.929 . S
C178 O188 1.241 . S
C178 O189 1.273 . S
C179 O190 1.251 1_655 S
C179 O191 1.268 . S
O180 Nd160 2.500 . S
O180 C162 1.258 . S
O181 Nd160 2.492 . S
O181 C162 1.239 . S
O182 Nd160 2.487 . S
O182 C169 1.241 1_655 S
O183 Nd160 2.682 1_455 S
O183 Nd161 2.414 . S
O183 C169 1.273 . S
O184 Nd160 2.410 1_455 S
O184 C170 1.251 . S
O185 Nd161 2.424 . S
O185 C170 1.268 . S
O186 Nd161 2.500 . S
O186 C171 1.258 . S
O187 Nd161 2.492 . S
O187 C171 1.239 . S
O188 Nd161 2.487 . S
O188 C178 1.241 . S
O189 Nd160 2.414 1_455 S
O189 Nd161 2.682 . S
O189 C178 1.273 . S
O190 Nd161 2.410 . S
O190 C179 1.251 1_455 S
O191 Nd160 2.424 . S
O191 C179 1.268 . S
H192 C164 0.930 . S
H193 C165 0.929 . S
H194 C167 0.930 . S
H195 C168 0.929 . S
H196 C173 0.930 . S
H197 C174 0.929 . S
H198 C176 0.930 . S
H199 C177 0.929 . S
Nd200 C202 2.836 . S
Nd200 O220 2.500 . S
Nd200 O221 2.492 . S
Nd200 O222 2.487 . S
Nd200 O223 2.682 . S
Nd200 O224 2.410 . S
Nd200 O229 2.414 . S
Nd200 O231 2.424 . S
Nd201 C211 2.836 . S
Nd201 O223 2.414 . S
Nd201 O225 2.424 . S
Nd201 O226 2.500 . S
Nd201 O227 2.492 . S
Nd201 O228 2.487 . S
Nd201 O229 2.682 . S
Nd201 O230 2.410 . S
C202 Nd200 2.836 . S
C202 C203 1.498 . S
C202 O220 1.258 . S
C202 O221 1.239 . S
C203 C202 1.498 . S
C203 C204 1.367 1_554 S
C203 C208 1.407 1_554 S
C204 C203 1.367 1_556 S
C204 C205 1.392 . S
C204 H232 0.930 . S
C205 C204 1.392 . S
C205 C206 1.398 . S
C205 H233 0.929 . S
C206 C205 1.398 . S
C206 C207 1.352 . S
C207 C206 1.352 . S
C207 C208 1.384 . S
C207 H234 0.930 . S
C208 C203 1.407 1_556 S
C208 C207 1.384 . S
C208 H235 0.929 1_556 S
C209 O222 1.241 . S
C209 O223 1.273 . S
C210 O224 1.251 . S
C210 O225 1.268 . S
C211 Nd201 2.836 . S
C211 C212 1.498 . S
C211 O226 1.258 . S
C211 O227 1.239 . S
C212 C211 1.498 . S
C212 C213 1.366 . S
C212 C217 1.407 . S
C213 C212 1.366 . S
C213 C214 1.392 . S
C213 H236 0.930 . S
C214 C213 1.392 . S
C214 C215 1.398 . S
C214 H237 0.929 . S
C215 C214 1.398 . S
C215 C216 1.352 . S
C216 C215 1.352 . S
C216 C217 1.384 . S
C216 H238 0.930 . S
C217 C212 1.407 . S
C217 C216 1.384 . S
C217 H239 0.929 . S
C218 O228 1.241 . S
C218 O229 1.273 . S
C219 O230 1.251 . S
C219 O231 1.268 . S
O220 Nd200 2.500 . S
O220 C202 1.258 . S
O221 Nd200 2.492 . S
O221 C202 1.239 . S
O222 Nd200 2.487 . S
O222 C209 1.241 . S
O223 Nd200 2.682 . S
O223 Nd201 2.414 . S
O223 C209 1.273 . S
O224 Nd200 2.410 . S
O224 C210 1.251 . S
O225 Nd201 2.424 . S
O225 C210 1.268 . S
O226 Nd201 2.500 . S
O226 C211 1.258 . S
O227 Nd201 2.492 . S
O227 C211 1.239 . S
O228 Nd201 2.487 . S
O228 C218 1.241 . S
O229 Nd200 2.414 . S
O229 Nd201 2.682 . S
O229 C218 1.273 . S
O230 Nd201 2.410 . S
O230 C219 1.251 . S
O231 Nd200 2.424 . S
O231 C219 1.268 . S
H232 C204 0.930 . S
H233 C205 0.929 . S
H234 C207 0.930 . S
H235 C208 0.929 1_554 S
H236 C213 0.930 . S
H237 C214 0.929 . S
H238 C216 0.930 . S
H239 C217 0.929 . S
Nd240 C242 2.836 . S
Nd240 O260 2.500 . S
Nd240 O261 2.492 . S
Nd240 O262 2.487 . S
Nd240 O263 2.682 . S
Nd240 O264 2.410 . S
Nd240 O269 2.414 . S
Nd240 O271 2.424 . S
Nd241 C251 2.836 . S
Nd241 O263 2.414 . S
Nd241 O265 2.424 . S
Nd241 O266 2.500 . S
Nd241 O267 2.492 . S
Nd241 O268 2.487 . S
Nd241 O269 2.682 . S
Nd241 O270 2.410 . S
C242 Nd240 2.836 . S
C242 C243 1.498 . S
C242 O260 1.258 . S
C242 O261 1.239 . S
C243 C242 1.498 . S
C243 C244 1.366 . S
C243 C248 1.407 . S
C244 C243 1.366 . S
C244 C245 1.392 . S
C244 H272 0.930 . S
C245 C244 1.392 . S
C245 C246 1.398 . S
C245 H273 0.929 . S
C246 C245 1.398 . S
C246 C247 1.352 . S
C247 C246 1.352 . S
C247 C248 1.384 . S
C247 H274 0.930 . S
C248 C243 1.407 . S
C248 C247 1.384 . S
C248 H275 0.929 . S
C249 O262 1.241 . S
C249 O263 1.273 . S
C250 O264 1.251 . S
C250 O265 1.268 . S
C251 Nd241 2.836 . S
C251 C252 1.498 . S
C251 O266 1.258 . S
C251 O267 1.239 . S
C252 C251 1.498 . S
C252 C253 1.366 . S
C252 C257 1.407 . S
C253 C252 1.366 . S
C253 C254 1.392 . S
C253 H276 0.930 . S
C254 C253 1.392 . S
C254 C255 1.398 . S
C254 H277 0.929 . S
C255 C254 1.398 . S
C255 C256 1.352 . S
C256 C255 1.352 . S
C256 C257 1.384 . S
C256 H278 0.930 . S
C257 C252 1.407 . S
C257 C256 1.384 . S
C257 H279 0.929 . S
C258 O268 1.241 . S
C258 O269 1.273 . S
C259 O270 1.251 . S
C259 O271 1.268 . S
O260 Nd240 2.500 . S
O260 C242 1.258 . S
O261 Nd240 2.492 . S
O261 C242 1.239 . S
O262 Nd240 2.487 . S
O262 C249 1.241 . S
O263 Nd240 2.682 . S
O263 Nd241 2.414 . S
O263 C249 1.273 . S
O264 Nd240 2.410 . S
O264 C250 1.251 . S
O265 Nd241 2.424 . S
O265 C250 1.268 . S
O266 Nd241 2.500 . S
O266 C251 1.258 . S
O267 Nd241 2.492 . S
O267 C251 1.239 . S
O268 Nd241 2.487 . S
O268 C258 1.241 . S
O269 Nd240 2.414 . S
O269 Nd241 2.682 . S
O269 C258 1.273 . S
O270 Nd241 2.410 . S
O270 C259 1.251 . S
O271 Nd240 2.424 . S
O271 C259 1.268 . S
H272 C244 0.930 . S
H273 C245 0.929 . S
H274 C247 0.930 . S
H275 C248 0.929 . S
H276 C253 0.930 . S
H277 C254 0.929 . S
H278 C256 0.930 . S
H279 C257 0.929 . S
Nd280 C282 2.836 . S
Nd280 O300 2.500 . S
Nd280 O301 2.492 . S
Nd280 O302 2.487 . S
Nd280 O303 2.682 . S
Nd280 O304 2.410 . S
Nd280 O309 2.414 . S
Nd280 O311 2.424 . S
Nd281 C291 2.836 . S
Nd281 O303 2.414 . S
Nd281 O305 2.424 . S
Nd281 O306 2.500 . S
Nd281 O307 2.492 . S
Nd281 O308 2.487 . S
Nd281 O309 2.682 . S
Nd281 O310 2.410 . S
C282 Nd280 2.836 . S
C282 C283 1.498 . S
C282 O300 1.258 . S
C282 O301 1.239 . S
C283 C282 1.498 . S
C283 C284 1.366 . S
C283 C288 1.407 . S
C284 C283 1.366 . S
C284 C285 1.392 . S
C284 H312 0.930 . S
C285 C284 1.392 . S
C285 C286 1.398 . S
C285 H313 0.929 . S
C286 C285 1.398 . S
C286 C287 1.352 . S
C287 C286 1.352 . S
C287 C288 1.384 . S
C287 H314 0.930 . S
C288 C283 1.407 . S
C288 C287 1.384 . S
C288 H315 0.929 . S
C289 O302 1.241 . S
C289 O303 1.273 . S
C290 O304 1.251 . S
C290 O305 1.268 . S
C291 Nd281 2.836 . S
C291 C292 1.498 . S
C291 O306 1.258 . S
C291 O307 1.239 . S
C292 C291 1.498 . S
C292 C293 1.366 . S
C292 C297 1.407 . S
C293 C292 1.366 . S
C293 C294 1.392 . S
C293 H316 0.930 . S
C294 C293 1.392 . S
C294 C295 1.398 . S
C294 H317 0.929 . S
C295 C294 1.398 . S
C295 C296 1.352 . S
C296 C295 1.352 . S
C296 C297 1.384 . S
C296 H318 0.930 . S
C297 C292 1.407 . S
C297 C296 1.384 . S
C297 H319 0.929 . S
C298 O308 1.241 . S
C298 O309 1.273 . S
C299 O310 1.251 . S
C299 O311 1.268 . S
O300 Nd280 2.500 . S
O300 C282 1.258 . S
O301 Nd280 2.492 . S
O301 C282 1.239 . S
O302 Nd280 2.487 . S
O302 C289 1.241 . S
O303 Nd280 2.682 . S
O303 Nd281 2.414 . S
O303 C289 1.273 . S
O304 Nd280 2.410 . S
O304 C290 1.251 . S
O305 Nd281 2.424 . S
O305 C290 1.268 . S
O306 Nd281 2.500 . S
O306 C291 1.258 . S
O307 Nd281 2.492 . S
O307 C291 1.239 . S
O308 Nd281 2.487 . S
O308 C298 1.241 . S
O309 Nd280 2.414 . S
O309 Nd281 2.682 . S
O309 C298 1.273 . S
O310 Nd281 2.410 . S
O310 C299 1.251 . S
O311 Nd280 2.424 . S
O311 C299 1.268 . S
H312 C284 0.930 . S
H313 C285 0.929 . S
H314 C287 0.930 . S
H315 C288 0.929 . S
H316 C293 0.930 . S
H317 C294 0.929 . S
H318 C296 0.930 . S
H319 C297 0.929 . S
Nd320 C322 2.836 . S
Nd320 O340 2.500 . S
Nd320 O341 2.492 . S
Nd320 O342 2.487 . S
Nd320 O343 2.682 . S
Nd320 O344 2.410 . S
Nd320 O349 2.414 . S
Nd320 O351 2.424 . S
Nd321 C331 2.836 . S
Nd321 O343 2.414 . S
Nd321 O345 2.424 . S
Nd321 O346 2.500 . S
Nd321 O347 2.492 . S
Nd321 O348 2.487 . S
Nd321 O349 2.682 . S
Nd321 O350 2.410 . S
C322 Nd320 2.836 . S
C322 C323 1.498 . S
C322 O340 1.258 . S
C322 O341 1.239 . S
C323 C322 1.498 . S
C323 C324 1.366 . S
C323 C328 1.407 . S
C324 C323 1.366 . S
C324 C325 1.392 . S
C324 H352 0.930 . S
C325 C324 1.392 . S
C325 C326 1.398 . S
C325 H353 0.929 . S
C326 C325 1.398 . S
C326 C327 1.352 . S
C327 C326 1.352 . S
C327 C328 1.384 . S
C327 H354 0.930 . S
C328 C323 1.407 . S
C328 C327 1.384 . S
C328 H355 0.929 . S
C329 O342 1.241 . S
C329 O343 1.273 . S
C330 O344 1.251 . S
C330 O345 1.268 . S
C331 Nd321 2.836 . S
C331 C332 1.498 . S
C331 O346 1.258 . S
C331 O347 1.239 . S
C332 C331 1.498 . S
C332 C333 1.366 . S
C332 C337 1.407 . S
C333 C332 1.366 . S
C333 C334 1.392 . S
C333 H356 0.930 . S
C334 C333 1.392 . S
C334 C335 1.398 . S
C334 H357 0.929 . S
C335 C334 1.398 . S
C335 C336 1.352 . S
C336 C335 1.352 . S
C336 C337 1.384 . S
C336 H358 0.930 . S
C337 C332 1.407 . S
C337 C336 1.384 . S
C337 H359 0.929 . S
C338 O348 1.241 . S
C338 O349 1.273 . S
C339 O350 1.251 . S
C339 O351 1.268 . S
O340 Nd320 2.500 . S
O340 C322 1.258 . S
O341 Nd320 2.492 . S
O341 C322 1.239 . S
O342 Nd320 2.487 . S
O342 C329 1.241 . S
O343 Nd320 2.682 . S
O343 Nd321 2.414 . S
O343 C329 1.273 . S
O344 Nd320 2.410 . S
O344 C330 1.251 . S
O345 Nd321 2.424 . S
O345 C330 1.268 . S
O346 Nd321 2.500 . S
O346 C331 1.258 . S
O347 Nd321 2.492 . S
O347 C331 1.239 . S
O348 Nd321 2.487 . S
O348 C338 1.241 . S
O349 Nd320 2.414 . S
O349 Nd321 2.682 . S
O349 C338 1.273 . S
O350 Nd321 2.410 . S
O350 C339 1.251 . S
O351 Nd320 2.424 . S
O351 C339 1.268 . S
H352 C324 0.930 . S
H353 C325 0.929 . S
H354 C327 0.930 . S
H355 C328 0.929 . S
H356 C333 0.930 . S
H357 C334 0.929 . S
H358 C336 0.930 . S
H359 C337 0.929 . S
Nd360 C362 2.836 . S
Nd360 O380 2.500 . S
Nd360 O381 2.492 . S
Nd360 O382 2.487 . S
Nd360 O383 2.682 . S
Nd360 O384 2.410 . S
Nd360 O389 2.414 . S
Nd360 O391 2.424 . S
Nd361 C371 2.836 . S
Nd361 O383 2.414 . S
Nd361 O385 2.424 . S
Nd361 O386 2.500 . S
Nd361 O387 2.492 . S
Nd361 O388 2.487 . S
Nd361 O389 2.682 . S
Nd361 O390 2.410 . S
C362 Nd360 2.836 . S
C362 C363 1.498 . S
C362 O380 1.258 . S
C362 O381 1.239 . S
C363 C362 1.498 . S
C363 C364 1.367 1_554 S
C363 C368 1.407 1_554 S
C364 C363 1.367 1_556 S
C364 C365 1.392 . S
C364 H392 0.930 . S
C365 C364 1.392 . S
C365 C366 1.398 . S
C365 H393 0.929 . S
C366 C365 1.398 . S
C366 C367 1.352 . S
C367 C366 1.352 . S
C367 C368 1.384 . S
C367 H394 0.930 . S
C368 C363 1.407 1_556 S
C368 C367 1.384 . S
C368 H395 0.929 1_556 S
C369 O382 1.241 . S
C369 O383 1.273 . S
C370 O384 1.251 . S
C370 O385 1.268 . S
C371 Nd361 2.836 . S
C371 C372 1.498 . S
C371 O386 1.258 . S
C371 O387 1.239 . S
C372 C371 1.498 . S
C372 C373 1.366 . S
C372 C377 1.407 . S
C373 C372 1.366 . S
C373 C374 1.392 . S
C373 H396 0.930 . S
C374 C373 1.392 . S
C374 C375 1.398 . S
C374 H397 0.929 . S
C375 C374 1.398 . S
C375 C376 1.352 . S
C376 C375 1.352 . S
C376 C377 1.384 . S
C376 H398 0.930 . S
C377 C372 1.407 . S
C377 C376 1.384 . S
C377 H399 0.929 . S
C378 O388 1.241 . S
C378 O389 1.273 . S
C379 O390 1.251 . S
C379 O391 1.268 . S
O380 Nd360 2.500 . S
O380 C362 1.258 . S
O381 Nd360 2.492 . S
O381 C362 1.239 . S
O382 Nd360 2.487 . S
O382 C369 1.241 . S
O383 Nd360 2.682 . S
O383 Nd361 2.414 . S
O383 C369 1.273 . S
O384 Nd360 2.410 . S
O384 C370 1.251 . S
O385 Nd361 2.424 . S
O385 C370 1.268 . S
O386 Nd361 2.500 . S
O386 C371 1.258 . S
O387 Nd361 2.492 . S
O387 C371 1.239 . S
O388 Nd361 2.487 . S
O388 C378 1.241 . S
O389 Nd360 2.414 . S
O389 Nd361 2.682 . S
O389 C378 1.273 . S
O390 Nd361 2.410 . S
O390 C379 1.251 . S
O391 Nd360 2.424 . S
O391 C379 1.268 . S
H392 C364 0.930 . S
H393 C365 0.929 . S
H394 C367 0.930 . S
H395 C368 0.929 1_554 S
H396 C373 0.930 . S
H397 C374 0.929 . S
H398 C376 0.930 . S
H399 C377 0.929 . S
Nd400 C402 2.836 . S
Nd400 O420 2.500 . S
Nd400 O421 2.492 . S
Nd400 O422 2.487 . S
Nd400 O423 2.682 . S
Nd400 O424 2.410 . S
Nd400 O429 2.414 . S
Nd400 O431 2.424 . S
Nd401 C411 2.836 . S
Nd401 O423 2.414 . S
Nd401 O425 2.424 . S
Nd401 O426 2.500 . S
Nd401 O427 2.492 . S
Nd401 O428 2.487 . S
Nd401 O429 2.682 . S
Nd401 O430 2.410 . S
C402 Nd400 2.836 . S
C402 C403 1.498 . S
C402 O420 1.258 . S
C402 O421 1.239 . S
C403 C402 1.498 . S
C403 C404 1.366 . S
C403 C408 1.407 . S
C404 C403 1.366 . S
C404 C405 1.392 . S
C404 H432 0.930 . S
C405 C404 1.392 . S
C405 C406 1.398 . S
C405 H433 0.929 . S
C406 C405 1.398 . S
C406 C407 1.352 . S
C407 C406 1.352 . S
C407 C408 1.384 . S
C407 H434 0.930 . S
C408 C403 1.407 . S
C408 C407 1.384 . S
C408 H435 0.929 . S
C409 O422 1.241 . S
C409 O423 1.273 . S
C410 O424 1.251 . S
C410 O425 1.268 . S
C411 Nd401 2.836 . S
C411 C412 1.498 . S
C411 O426 1.258 . S
C411 O427 1.239 . S
C412 C411 1.498 . S
C412 C413 1.367 1_556 S
C412 C417 1.407 1_556 S
C413 C412 1.367 1_554 S
C413 C414 1.392 . S
C413 H436 0.930 . S
C414 C413 1.392 . S
C414 C415 1.398 . S
C414 H437 0.929 . S
C415 C414 1.398 . S
C415 C416 1.352 . S
C416 C415 1.352 . S
C416 C417 1.384 . S
C416 H438 0.930 . S
C417 C412 1.407 1_554 S
C417 C416 1.384 . S
C417 H439 0.929 1_554 S
C418 O428 1.241 . S
C418 O429 1.273 . S
C419 O430 1.251 . S
C419 O431 1.268 . S
O420 Nd400 2.500 . S
O420 C402 1.258 . S
O421 Nd400 2.492 . S
O421 C402 1.239 . S
O422 Nd400 2.487 . S
O422 C409 1.241 . S
O423 Nd400 2.682 . S
O423 Nd401 2.414 . S
O423 C409 1.273 . S
O424 Nd400 2.410 . S
O424 C410 1.251 . S
O425 Nd401 2.424 . S
O425 C410 1.268 . S
O426 Nd401 2.500 . S
O426 C411 1.258 . S
O427 Nd401 2.492 . S
O427 C411 1.239 . S
O428 Nd401 2.487 . S
O428 C418 1.241 . S
O429 Nd400 2.414 . S
O429 Nd401 2.682 . S
O429 C418 1.273 . S
O430 Nd401 2.410 . S
O430 C419 1.251 . S
O431 Nd400 2.424 . S
O431 C419 1.268 . S
H432 C404 0.930 . S
H433 C405 0.929 . S
H434 C407 0.930 . S
H435 C408 0.929 . S
H436 C413 0.930 . S
H437 C414 0.929 . S
H438 C416 0.930 . S
H439 C417 0.929 1_556 S
Nd440 C442 2.836 . S
Nd440 O460 2.500 . S
Nd440 O461 2.492 . S
Nd440 O462 2.487 . S
Nd440 O463 2.682 . S
Nd440 O464 2.410 . S
Nd440 O469 2.414 . S
Nd440 O471 2.424 . S
Nd441 C451 2.836 . S
Nd441 O463 2.414 . S
Nd441 O465 2.424 . S
Nd441 O466 2.500 . S
Nd441 O467 2.492 . S
Nd441 O468 2.487 . S
Nd441 O469 2.682 . S
Nd441 O470 2.410 . S
C442 Nd440 2.836 . S
C442 C443 1.498 . S
C442 O460 1.258 . S
C442 O461 1.239 . S
C443 C442 1.498 . S
C443 C444 1.366 . S
C443 C448 1.407 . S
C444 C443 1.366 . S
C444 C445 1.392 . S
C444 H472 0.930 . S
C445 C444 1.392 . S
C445 C446 1.398 . S
C445 H473 0.929 . S
C446 C445 1.398 . S
C446 C447 1.352 . S
C447 C446 1.352 . S
C447 C448 1.384 . S
C447 H474 0.930 . S
C448 C443 1.407 . S
C448 C447 1.384 . S
C448 H475 0.929 . S
C449 O462 1.241 . S
C449 O463 1.273 . S
C450 O464 1.251 . S
C450 O465 1.268 . S
C451 Nd441 2.836 . S
C451 C452 1.498 . S
C451 O466 1.258 . S
C451 O467 1.239 . S
C452 C451 1.498 . S
C452 C453 1.366 . S
C452 C457 1.407 . S
C453 C452 1.366 . S
C453 C454 1.392 . S
C453 H476 0.930 . S
C454 C453 1.392 . S
C454 C455 1.398 . S
C454 H477 0.929 . S
C455 C454 1.398 . S
C455 C456 1.352 . S
C456 C455 1.352 . S
C456 C457 1.384 . S
C456 H478 0.930 . S
C457 C452 1.407 . S
C457 C456 1.384 . S
C457 H479 0.929 . S
C458 O468 1.241 . S
C458 O469 1.273 . S
C459 O470 1.251 . S
C459 O471 1.268 . S
O460 Nd440 2.500 . S
O460 C442 1.258 . S
O461 Nd440 2.492 . S
O461 C442 1.239 . S
O462 Nd440 2.487 . S
O462 C449 1.241 . S
O463 Nd440 2.682 . S
O463 Nd441 2.414 . S
O463 C449 1.273 . S
O464 Nd440 2.410 . S
O464 C450 1.251 . S
O465 Nd441 2.424 . S
O465 C450 1.268 . S
O466 Nd441 2.500 . S
O466 C451 1.258 . S
O467 Nd441 2.492 . S
O467 C451 1.239 . S
O468 Nd441 2.487 . S
O468 C458 1.241 . S
O469 Nd440 2.414 . S
O469 Nd441 2.682 . S
O469 C458 1.273 . S
O470 Nd441 2.410 . S
O470 C459 1.251 . S
O471 Nd440 2.424 . S
O471 C459 1.268 . S
H472 C444 0.930 . S
H473 C445 0.929 . S
H474 C447 0.930 . S
H475 C448 0.929 . S
H476 C453 0.930 . S
H477 C454 0.929 . S
H478 C456 0.930 . S
H479 C457 0.929 . S
Nd480 C482 2.836 . S
Nd480 O500 2.500 . S
Nd480 O501 2.492 . S
Nd480 O502 2.487 . S
Nd480 O503 2.682 . S
Nd480 O504 2.410 . S
Nd480 O509 2.414 . S
Nd480 O511 2.424 . S
Nd481 C491 2.836 . S
Nd481 O503 2.414 . S
Nd481 O505 2.424 . S
Nd481 O506 2.500 . S
Nd481 O507 2.492 . S
Nd481 O508 2.487 . S
Nd481 O509 2.682 . S
Nd481 O510 2.410 . S
C482 Nd480 2.836 . S
C482 C483 1.498 . S
C482 O500 1.258 . S
C482 O501 1.239 . S
C483 C482 1.498 . S
C483 C484 1.366 . S
C483 C488 1.407 . S
C484 C483 1.366 . S
C484 C485 1.392 . S
C484 H512 0.930 . S
C485 C484 1.392 . S
C485 C486 1.398 . S
C485 H513 0.929 . S
C486 C485 1.398 . S
C486 C487 1.352 . S
C487 C486 1.352 . S
C487 C488 1.384 . S
C487 H514 0.930 . S
C488 C483 1.407 . S
C488 C487 1.384 . S
C488 H515 0.929 . S
C489 O502 1.241 . S
C489 O503 1.273 . S
C490 O504 1.251 . S
C490 O505 1.268 . S
C491 Nd481 2.836 . S
C491 C492 1.498 . S
C491 O506 1.258 . S
C491 O507 1.239 . S
C492 C491 1.498 . S
C492 C493 1.366 . S
C492 C497 1.407 . S
C493 C492 1.366 . S
C493 C494 1.392 . S
C493 H516 0.930 . S
C494 C493 1.392 . S
C494 C495 1.398 . S
C494 H517 0.929 . S
C495 C494 1.398 . S
C495 C496 1.352 . S
C496 C495 1.352 . S
C496 C497 1.384 . S
C496 H518 0.930 . S
C497 C492 1.407 . S
C497 C496 1.384 . S
C497 H519 0.929 . S
C498 O508 1.241 . S
C498 O509 1.273 . S
C499 O510 1.251 . S
C499 O511 1.268 . S
O500 Nd480 2.500 . S
O500 C482 1.258 . S
O501 Nd480 2.492 . S
O501 C482 1.239 . S
O502 Nd480 2.487 . S
O502 C489 1.241 . S
O503 Nd480 2.682 . S
O503 Nd481 2.414 . S
O503 C489 1.273 . S
O504 Nd480 2.410 . S
O504 C490 1.251 . S
O505 Nd481 2.424 . S
O505 C490 1.268 . S
O506 Nd481 2.500 . S
O506 C491 1.258 . S
O507 Nd481 2.492 . S
O507 C491 1.239 . S
O508 Nd481 2.487 . S
O508 C498 1.241 . S
O509 Nd480 2.414 . S
O509 Nd481 2.682 . S
O509 C498 1.273 . S
O510 Nd481 2.410 . S
O510 C499 1.251 . S
O511 Nd480 2.424 . S
O511 C499 1.268 . S
H512 C484 0.930 . S
H513 C485 0.929 . S
H514 C487 0.930 . S
H515 C488 0.929 . S
H516 C493 0.930 . S
H517 C494 0.929 . S
H518 C496 0.930 . S
H519 C497 0.929 . S
Nd520 C522 2.836 . S
Nd520 O540 2.500 . S
Nd520 O541 2.492 . S
Nd520 O542 2.487 . S
Nd520 O543 2.682 . S
Nd520 O544 2.410 . S
Nd520 O549 2.414 . S
Nd520 O551 2.424 . S
Nd521 C531 2.836 . S
Nd521 O543 2.414 1_655 S
Nd521 O545 2.424 . S
Nd521 O546 2.500 . S
Nd521 O547 2.492 . S
Nd521 O548 2.487 . S
Nd521 O549 2.682 1_655 S
Nd521 O550 2.410 1_655 S
C522 Nd520 2.836 . S
C522 C523 1.498 1_554 S
C522 O540 1.258 . S
C522 O541 1.239 . S
C523 C522 1.498 1_556 S
C523 C524 1.366 . S
C523 C528 1.407 . S
C524 C523 1.366 . S
C524 C525 1.392 . S
C524 H552 0.930 . S
C525 C524 1.392 . S
C525 C526 1.398 . S
C525 H553 0.929 . S
C526 C525 1.398 . S
C526 C527 1.352 . S
C527 C526 1.352 . S
C527 C528 1.384 . S
C527 H554 0.930 . S
C528 C523 1.407 . S
C528 C527 1.384 . S
C528 H555 0.929 . S
C529 O542 1.241 . S
C529 O543 1.273 . S
C530 O544 1.251 1_655 S
C530 O545 1.268 . S
C531 Nd521 2.836 . S
C531 C532 1.498 . S
C531 O546 1.258 . S
C531 O547 1.239 . S
C532 C531 1.498 . S
C532 C533 1.366 . S
C532 C537 1.407 . S
C533 C532 1.366 . S
C533 C534 1.392 . S
C533 H556 0.930 . S
C534 C533 1.392 . S
C534 C535 1.398 . S
C534 H557 0.929 . S
C535 C534 1.398 . S
C535 C536 1.352 . S
C536 C535 1.352 . S
C536 C537 1.384 . S
C536 H558 0.930 . S
C537 C532 1.407 . S
C537 C536 1.384 . S
C537 H559 0.929 . S
C538 O548 1.241 1_455 S
C538 O549 1.273 . S
C539 O550 1.251 . S
C539 O551 1.268 . S
O540 Nd520 2.500 . S
O540 C522 1.258 . S
O541 Nd520 2.492 . S
O541 C522 1.239 . S
O542 Nd520 2.487 . S
O542 C529 1.241 . S
O543 Nd520 2.682 . S
O543 Nd521 2.414 1_455 S
O543 C529 1.273 . S
O544 Nd520 2.410 . S
O544 C530 1.251 1_455 S
O545 Nd521 2.424 . S
O545 C530 1.268 . S
O546 Nd521 2.500 . S
O546 C531 1.258 . S
O547 Nd521 2.492 . S
O547 C531 1.239 . S
O548 Nd521 2.487 . S
O548 C538 1.241 1_655 S
O549 Nd520 2.414 . S
O549 Nd521 2.682 1_455 S
O549 C538 1.273 . S
O550 Nd521 2.410 1_455 S
O550 C539 1.251 . S
O551 Nd520 2.424 . S
O551 C539 1.268 . S
H552 C524 0.930 . S
H553 C525 0.929 . S
H554 C527 0.930 . S
H555 C528 0.929 . S
H556 C533 0.930 . S
H557 C534 0.929 . S
H558 C536 0.930 . S
H559 C537 0.929 . S
Nd560 C562 2.836 . S
Nd560 O580 2.500 . S
Nd560 O581 2.492 . S
Nd560 O582 2.487 . S
Nd560 O583 2.682 . S
Nd560 O584 2.410 . S
Nd560 O589 2.414 . S
Nd560 O591 2.424 . S
Nd561 C571 2.836 . S
Nd561 O583 2.414 . S
Nd561 O585 2.424 . S
Nd561 O586 2.500 . S
Nd561 O587 2.492 . S
Nd561 O588 2.487 . S
Nd561 O589 2.682 . S
Nd561 O590 2.410 . S
C562 Nd560 2.836 . S
C562 C563 1.498 . S
C562 O580 1.258 . S
C562 O581 1.239 . S
C563 C562 1.498 . S
C563 C564 1.366 . S
C563 C568 1.407 . S
C564 C563 1.366 . S
C564 C565 1.392 . S
C564 H592 0.930 . S
C565 C564 1.392 . S
C565 C566 1.398 . S
C565 H593 0.929 . S
C566 C565 1.398 . S
C566 C567 1.352 . S
C567 C566 1.352 . S
C567 C568 1.384 . S
C567 H594 0.930 . S
C568 C563 1.407 . S
C568 C567 1.384 . S
C568 H595 0.929 . S
C569 O582 1.241 . S
C569 O583 1.273 . S
C570 O584 1.251 . S
C570 O585 1.268 . S
C571 Nd561 2.836 . S
C571 C572 1.498 . S
C571 O586 1.258 . S
C571 O587 1.239 . S
C572 C571 1.498 . S
C572 C573 1.366 . S
C572 C577 1.407 . S
C573 C572 1.366 . S
C573 C574 1.392 . S
C573 H596 0.930 . S
C574 C573 1.392 . S
C574 C575 1.398 . S
C574 H597 0.929 . S
C575 C574 1.398 . S
C575 C576 1.352 . S
C576 C575 1.352 . S
C576 C577 1.384 . S
C576 H598 0.930 . S
C577 C572 1.407 . S
C577 C576 1.384 . S
C577 H599 0.929 . S
C578 O588 1.241 . S
C578 O589 1.273 . S
C579 O590 1.251 . S
C579 O591 1.268 . S
O580 Nd560 2.500 . S
O580 C562 1.258 . S
O581 Nd560 2.492 . S
O581 C562 1.239 . S
O582 Nd560 2.487 . S
O582 C569 1.241 . S
O583 Nd560 2.682 . S
O583 Nd561 2.414 . S
O583 C569 1.273 . S
O584 Nd560 2.410 . S
O584 C570 1.251 . S
O585 Nd561 2.424 . S
O585 C570 1.268 . S
O586 Nd561 2.500 . S
O586 C571 1.258 . S
O587 Nd561 2.492 . S
O587 C571 1.239 . S
O588 Nd561 2.487 . S
O588 C578 1.241 . S
O589 Nd560 2.414 . S
O589 Nd561 2.682 . S
O589 C578 1.273 . S
O590 Nd561 2.410 . S
O590 C579 1.251 . S
O591 Nd560 2.424 . S
O591 C579 1.268 . S
H592 C564 0.930 . S
H593 C565 0.929 . S
H594 C567 0.930 . S
H595 C568 0.929 . S
H596 C573 0.930 . S
H597 C574 0.929 . S
H598 C576 0.930 . S
H599 C577 0.929 . S
Nd600 C602 2.836 . S
Nd600 O620 2.500 . S
Nd600 O621 2.492 . S
Nd600 O622 2.487 . S
Nd600 O623 2.682 1_455 S
Nd600 O624 2.410 1_455 S
Nd600 O629 2.414 . S
Nd600 O631 2.424 . S
Nd601 C611 2.836 . S
Nd601 O623 2.414 . S
Nd601 O625 2.424 . S
Nd601 O626 2.500 . S
Nd601 O627 2.492 . S
Nd601 O628 2.487 . S
Nd601 O629 2.682 1_655 S
Nd601 O630 2.410 1_655 S
C602 Nd600 2.836 . S
C602 C603 1.498 . S
C602 O620 1.258 . S
C602 O621 1.239 . S
C603 C602 1.498 . S
C603 C604 1.366 . S
C603 C608 1.407 . S
C604 C603 1.366 . S
C604 C605 1.392 . S
C604 H632 0.930 . S
C605 C604 1.392 . S
C605 C606 1.398 . S
C605 H633 0.929 . S
C606 C605 1.398 . S
C606 C607 1.352 . S
C607 C606 1.352 . S
C607 C608 1.384 . S
C607 H634 0.930 . S
C608 C603 1.407 . S
C608 C607 1.384 . S
C608 H635 0.929 . S
C609 O622 1.241 . S
C609 O623 1.273 1_455 S
C610 O624 1.251 . S
C610 O625 1.268 . S
C611 Nd601 2.836 . S
C611 C612 1.498 1_556 S
C611 O626 1.258 . S
C611 O627 1.239 . S
C612 C611 1.498 1_554 S
C612 C613 1.366 . S
C612 C617 1.407 . S
C613 C612 1.366 . S
C613 C614 1.392 . S
C613 H636 0.930 . S
C614 C613 1.392 . S
C614 C615 1.398 . S
C614 H637 0.929 . S
C615 C614 1.398 . S
C615 C616 1.352 . S
C616 C615 1.352 . S
C616 C617 1.384 . S
C616 H638 0.930 . S
C617 C612 1.407 . S
C617 C616 1.384 . S
C617 H639 0.929 . S
C618 O628 1.241 . S
C618 O629 1.273 1_655 S
C619 O630 1.251 . S
C619 O631 1.268 . S
O620 Nd600 2.500 . S
O620 C602 1.258 . S
O621 Nd600 2.492 . S
O621 C602 1.239 . S
O622 Nd600 2.487 . S
O622 C609 1.241 . S
O623 Nd600 2.682 1_655 S
O623 Nd601 2.414 . S
O623 C609 1.273 1_655 S
O624 Nd600 2.410 1_655 S
O624 C610 1.251 . S
O625 Nd601 2.424 . S
O625 C610 1.268 . S
O626 Nd601 2.500 . S
O626 C611 1.258 . S
O627 Nd601 2.492 . S
O627 C611 1.239 . S
O628 Nd601 2.487 . S
O628 C618 1.241 . S
O629 Nd600 2.414 . S
O629 Nd601 2.682 1_455 S
O629 C618 1.273 1_455 S
O630 Nd601 2.410 1_455 S
O630 C619 1.251 . S
O631 Nd600 2.424 . S
O631 C619 1.268 . S
H632 C604 0.930 . S
H633 C605 0.929 . S
H634 C607 0.930 . S
H635 C608 0.929 . S
H636 C613 0.930 . S
H637 C614 0.929 . S
H638 C616 0.930 . S
H639 C617 0.929 . S
H640 C648 0.950 . S
H641 C653 0.950 . S
H642 C650 0.950 . S
H643 C652 0.950 . S
H644 C654 0.950 . S
H645 C656 0.950 . S
H646 C658 0.950 . S
H647 C659 0.950 . S
C648 H640 0.950 . S
C648 C649 1.386 . S
C648 C650 1.391 1_554 S
C649 C648 1.386 . S
C649 C653 1.393 . S
C650 H642 0.950 . S
C650 C648 1.391 1_556 S
C650 C651 1.400 . S
C651 C650 1.400 . S
C651 C652 1.398 . S
C651 C657 1.491 . S
C652 H643 0.950 . S
C652 C651 1.398 . S
C652 C653 1.391 1_556 S
C653 H641 0.950 . S
C653 C649 1.393 . S
C653 C652 1.391 1_554 S
C654 H644 0.950 . S
C654 C655 1.386 . S
C654 C656 1.391 . S
C655 C654 1.386 . S
C655 C659 1.393 . S
C656 H645 0.950 . S
C656 C654 1.391 . S
C656 C657 1.400 . S
C657 C651 1.491 . S
C657 C656 1.400 . S
C657 C658 1.398 . S
C658 H646 0.950 . S
C658 C657 1.398 . S
C658 C659 1.391 . S
C659 H647 0.950 . S
C659 C655 1.393 . S
C659 C658 1.391 . S
H660 C668 0.950 . S
H661 C673 0.950 . S
H662 C670 0.950 . S
H663 C672 0.950 . S
H664 C674 0.950 . S
H665 C676 0.950 . S
H666 C678 0.950 . S
H667 C679 0.950 . S
C668 H660 0.950 . S
C668 C669 1.386 . S
C668 C670 1.391 . S
C669 C668 1.386 . S
C669 C673 1.393 . S
C670 H662 0.950 . S
C670 C668 1.391 . S
C670 C671 1.400 . S
C671 C670 1.400 . S
C671 C672 1.398 . S
C671 C677 1.491 . S
C672 H663 0.950 . S
C672 C671 1.398 . S
C672 C673 1.391 . S
C673 H661 0.950 . S
C673 C669 1.393 . S
C673 C672 1.391 . S
C674 H664 0.950 . S
C674 C675 1.386 . S
C674 C676 1.391 . S
C675 C674 1.386 . S
C675 C679 1.393 . S
C676 H665 0.950 . S
C676 C674 1.391 . S
C676 C677 1.400 . S
C677 C671 1.491 . S
C677 C676 1.400 . S
C677 C678 1.398 . S
C678 H666 0.950 . S
C678 C677 1.398 . S
C678 C679 1.391 . S
C679 H667 0.950 . S
C679 C675 1.393 . S
C679 C678 1.391 . S
H680 C688 0.950 . S
H681 C693 0.950 . S
H682 C690 0.950 . S
H683 C692 0.950 . S
H684 C694 0.950 . S
H685 C696 0.950 . S
H686 C698 0.950 . S
H687 C699 0.950 . S
C688 H680 0.950 . S
C688 C689 1.386 . S
C688 C690 1.391 . S
C689 C688 1.386 . S
C689 C693 1.393 . S
C690 H682 0.950 . S
C690 C688 1.391 . S
C690 C691 1.400 . S
C691 C690 1.400 . S
C691 C692 1.398 . S
C691 C697 1.491 . S
C692 H683 0.950 . S
C692 C691 1.398 . S
C692 C693 1.391 . S
C693 H681 0.950 . S
C693 C689 1.393 . S
C693 C692 1.391 . S
C694 H684 0.950 . S
C694 C695 1.386 . S
C694 C696 1.391 . S
C695 C694 1.386 . S
C695 C699 1.393 . S
C696 H685 0.950 . S
C696 C694 1.391 . S
C696 C697 1.400 . S
C697 C691 1.491 . S
C697 C696 1.400 . S
C697 C698 1.398 . S
C698 H686 0.950 . S
C698 C697 1.398 . S
C698 C699 1.391 . S
C699 H687 0.950 . S
C699 C695 1.393 . S
C699 C698 1.391 . S
H700 C708 0.950 . S
H701 C713 0.950 . S
H702 C710 0.950 . S
H703 C712 0.950 . S
H704 C714 0.950 . S
H705 C716 0.950 . S
H706 C718 0.950 . S
H707 C719 0.950 . S
C708 H700 0.950 . S
C708 C709 1.386 . S
C708 C710 1.391 . S
C709 C708 1.386 . S
C709 C713 1.393 . S
C710 H702 0.950 . S
C710 C708 1.391 . S
C710 C711 1.400 . S
C711 C710 1.400 . S
C711 C712 1.398 . S
C711 C717 1.491 . S
C712 H703 0.950 . S
C712 C711 1.398 . S
C712 C713 1.391 . S
C713 H701 0.950 . S
C713 C709 1.393 . S
C713 C712 1.391 . S
C714 H704 0.950 . S
C714 C715 1.386 . S
C714 C716 1.391 . S
C715 C714 1.386 . S
C715 C719 1.393 . S
C716 H705 0.950 . S
C716 C714 1.391 . S
C716 C717 1.400 . S
C717 C711 1.491 . S
C717 C716 1.400 . S
C717 C718 1.398 . S
C718 H706 0.950 . S
C718 C717 1.398 . S
C718 C719 1.391 . S
C719 H707 0.950 . S
C719 C715 1.393 . S
C719 C718 1.391 . S
H720 C728 0.950 . S
H721 C733 0.950 . S
H722 C730 0.950 . S
H723 C732 0.950 . S
H724 C734 0.949 1_556 S
H725 C736 0.950 . S
H726 C738 0.950 . S
H727 C739 0.950 . S
C728 H720 0.950 . S
C728 C729 1.386 . S
C728 C730 1.391 . S
C729 C728 1.386 . S
C729 C733 1.393 . S
C730 H722 0.950 . S
C730 C728 1.391 . S
C730 C731 1.400 . S
C731 C730 1.400 . S
C731 C732 1.398 . S
C731 C737 1.491 . S
C732 H723 0.950 . S
C732 C731 1.398 . S
C732 C733 1.391 . S
C733 H721 0.950 . S
C733 C729 1.393 . S
C733 C732 1.391 . S
C734 H724 0.949 1_554 S
C734 C735 1.386 1_554 S
C734 C736 1.391 . S
C735 C734 1.386 1_556 S
C735 C739 1.393 . S
C736 H725 0.950 . S
C736 C734 1.391 . S
C736 C737 1.400 . S
C737 C731 1.491 . S
C737 C736 1.400 . S
C737 C738 1.398 . S
C738 H726 0.950 . S
C738 C737 1.398 . S
C738 C739 1.391 1_554 S
C739 H727 0.950 . S
C739 C735 1.393 . S
C739 C738 1.391 1_556 S
H740 C748 0.950 . S
H741 C753 0.950 . S
H742 C750 0.950 . S
H743 C752 0.950 . S
H744 C754 0.950 . S
H745 C756 0.950 . S
H746 C758 0.950 . S
H747 C759 0.950 . S
C748 H740 0.950 . S
C748 C749 1.386 . S
C748 C750 1.391 . S
C749 C748 1.386 . S
C749 C753 1.393 . S
C750 H742 0.950 . S
C750 C748 1.391 . S
C750 C751 1.400 . S
C751 C750 1.400 . S
C751 C752 1.398 . S
C751 C757 1.491 . S
C752 H743 0.950 . S
C752 C751 1.398 . S
C752 C753 1.391 . S
C753 H741 0.950 . S
C753 C749 1.393 . S
C753 C752 1.391 . S
C754 H744 0.950 . S
C754 C755 1.386 . S
C754 C756 1.391 . S
C755 C754 1.386 . S
C755 C759 1.393 . S
C756 H745 0.950 . S
C756 C754 1.391 . S
C756 C757 1.400 . S
C757 C751 1.491 . S
C757 C756 1.400 . S
C757 C758 1.398 . S
C758 H746 0.950 . S
C758 C757 1.398 . S
C758 C759 1.391 . S
C759 H747 0.950 . S
C759 C755 1.393 . S
C759 C758 1.391 . S
H760 C768 0.950 . S
H761 C773 0.950 . S
H762 C770 0.950 . S
H763 C772 0.950 . S
H764 C774 0.950 . S
H765 C776 0.950 . S
H766 C778 0.950 . S
H767 C779 0.950 . S
C768 H760 0.950 . S
C768 C769 1.386 . S
C768 C770 1.391 . S
C769 C768 1.386 . S
C769 C773 1.393 . S
C770 H762 0.950 . S
C770 C768 1.391 . S
C770 C771 1.400 . S
C771 C770 1.400 . S
C771 C772 1.398 . S
C771 C777 1.491 . S
C772 H763 0.950 . S
C772 C771 1.398 . S
C772 C773 1.391 . S
C773 H761 0.950 . S
C773 C769 1.393 . S
C773 C772 1.391 . S
C774 H764 0.950 . S
C774 C775 1.386 . S
C774 C776 1.391 . S
C775 C774 1.386 . S
C775 C779 1.393 . S
C776 H765 0.950 . S
C776 C774 1.391 . S
C776 C777 1.400 . S
C777 C771 1.491 . S
C777 C776 1.400 . S
C777 C778 1.398 . S
C778 H766 0.950 . S
C778 C777 1.398 . S
C778 C779 1.391 . S
C779 H767 0.950 . S
C779 C775 1.393 . S
C779 C778 1.391 . S
H780 C788 0.950 . S
H781 C793 0.950 . S
H782 C790 0.950 . S
H783 C792 0.950 . S
H784 C794 0.950 . S
H785 C796 0.950 . S
H786 C798 0.950 . S
H787 C799 0.950 . S
C788 H780 0.950 . S
C788 C789 1.386 . S
C788 C790 1.391 . S
C789 C788 1.386 . S
C789 C793 1.393 . S
C790 H782 0.950 . S
C790 C788 1.391 . S
C790 C791 1.400 . S
C791 C790 1.400 . S
C791 C792 1.398 . S
C791 C797 1.491 . S
C792 H783 0.950 . S
C792 C791 1.398 . S
C792 C793 1.391 . S
C793 H781 0.950 . S
C793 C789 1.393 . S
C793 C792 1.391 . S
C794 H784 0.950 . S
C794 C795 1.386 . S
C794 C796 1.391 . S
C795 C794 1.386 . S
C795 C799 1.393 . S
C796 H785 0.950 . S
C796 C794 1.391 . S
C796 C797 1.400 . S
C797 C791 1.491 . S
C797 C796 1.400 . S
C797 C798 1.398 . S
C798 H786 0.950 . S
C798 C797 1.398 . S
C798 C799 1.391 . S
C799 H787 0.950 . S
C799 C795 1.393 . S
C799 C798 1.391 . S
H800 C808 0.950 . S
H801 C813 0.950 . S
H802 C810 0.950 . S
H803 C812 0.950 . S
H804 C814 0.950 . S
H805 C816 0.950 . S
H806 C818 0.950 . S
H807 C819 0.950 . S
C808 H800 0.950 . S
C808 C809 1.386 . S
C808 C810 1.391 . S
C809 C808 1.386 . S
C809 C813 1.393 . S
C810 H802 0.950 . S
C810 C808 1.391 . S
C810 C811 1.400 . S
C811 C810 1.400 . S
C811 C812 1.398 . S
C811 C817 1.491 . S
C812 H803 0.950 . S
C812 C811 1.398 . S
C812 C813 1.391 . S
C813 H801 0.950 . S
C813 C809 1.393 . S
C813 C812 1.391 . S
C814 H804 0.950 . S
C814 C815 1.386 . S
C814 C816 1.391 . S
C815 C814 1.386 . S
C815 C819 1.393 . S
C816 H805 0.950 . S
C816 C814 1.391 . S
C816 C817 1.400 . S
C817 C811 1.491 . S
C817 C816 1.400 . S
C817 C818 1.398 . S
C818 H806 0.950 . S
C818 C817 1.398 . S
C818 C819 1.391 . S
C819 H807 0.950 . S
C819 C815 1.393 . S
C819 C818 1.391 . S
H820 C828 0.950 . S
H821 C833 0.950 . S
H822 C830 0.950 . S
H823 C832 0.950 . S
H824 C834 0.950 . S
H825 C836 0.950 . S
H826 C838 0.950 . S
H827 C839 0.950 . S
C828 H820 0.950 . S
C828 C829 1.386 . S
C828 C830 1.391 . S
C829 C828 1.386 . S
C829 C833 1.393 . S
C830 H822 0.950 . S
C830 C828 1.391 . S
C830 C831 1.400 . S
C831 C830 1.400 . S
C831 C832 1.398 . S
C831 C837 1.491 . S
C832 H823 0.950 . S
C832 C831 1.398 . S
C832 C833 1.391 . S
C833 H821 0.950 . S
C833 C829 1.393 . S
C833 C832 1.391 . S
C834 H824 0.950 . S
C834 C835 1.386 . S
C834 C836 1.391 . S
C835 C834 1.386 . S
C835 C839 1.393 . S
C836 H825 0.950 . S
C836 C834 1.391 . S
C836 C837 1.400 . S
C837 C831 1.491 . S
C837 C836 1.400 . S
C837 C838 1.398 . S
C838 H826 0.950 . S
C838 C837 1.398 . S
C838 C839 1.391 . S
C839 H827 0.950 . S
C839 C835 1.393 . S
C839 C838 1.391 . S
H840 C848 0.950 . S
H841 C853 0.950 . S
H842 C850 0.950 . S
H843 C852 0.950 . S
H844 C854 0.950 . S
H845 C856 0.950 . S
H846 C858 0.950 . S
H847 C859 0.950 . S
C848 H840 0.950 . S
C848 C849 1.386 . S
C848 C850 1.391 1_554 S
C849 C848 1.386 . S
C849 C853 1.393 1_554 S
C850 H842 0.950 . S
C850 C848 1.391 1_556 S
C850 C851 1.400 . S
C851 C850 1.400 . S
C851 C852 1.398 . S
C851 C857 1.491 . S
C852 H843 0.950 . S
C852 C851 1.398 . S
C852 C853 1.391 . S
C853 H841 0.950 . S
C853 C849 1.393 1_556 S
C853 C852 1.391 . S
C854 H844 0.950 . S
C854 C855 1.386 . S
C854 C856 1.391 . S
C855 C854 1.386 . S
C855 C859 1.393 . S
C856 H845 0.950 . S
C856 C854 1.391 . S
C856 C857 1.400 . S
C857 C851 1.491 . S
C857 C856 1.400 . S
C857 C858 1.398 . S
C858 H846 0.950 . S
C858 C857 1.398 . S
C858 C859 1.391 . S
C859 H847 0.950 . S
C859 C855 1.393 . S
C859 C858 1.391 . S
H860 C868 0.950 . S
H861 C873 0.950 . S
H862 C870 0.950 . S
H863 C872 0.950 . S
H864 C874 0.950 . S
H865 C876 0.950 . S
H866 C878 0.950 . S
H867 C879 0.950 . S
C868 H860 0.950 . S
C868 C869 1.386 . S
C868 C870 1.391 . S
C869 C868 1.386 . S
C869 C873 1.393 . S
C870 H862 0.950 . S
C870 C868 1.391 . S
C870 C871 1.400 . S
C871 C870 1.400 . S
C871 C872 1.398 . S
C871 C877 1.491 . S
C872 H863 0.950 . S
C872 C871 1.398 . S
C872 C873 1.391 . S
C873 H861 0.950 . S
C873 C869 1.393 . S
C873 C872 1.391 . S
C874 H864 0.950 . S
C874 C875 1.386 . S
C874 C876 1.391 . S
C875 C874 1.386 . S
C875 C879 1.393 . S
C876 H865 0.950 . S
C876 C874 1.391 . S
C876 C877 1.400 . S
C877 C871 1.491 . S
C877 C876 1.400 . S
C877 C878 1.398 . S
C878 H866 0.950 . S
C878 C877 1.398 . S
C878 C879 1.391 . S
C879 H867 0.950 . S
C879 C875 1.393 . S
C879 C878 1.391 . S
H880 C888 0.950 . S
H881 C893 0.950 . S
H882 C890 0.950 . S
H883 C892 0.950 . S
H884 C894 0.950 . S
H885 C896 0.950 . S
H886 C898 0.950 . S
H887 C899 0.950 . S
C888 H880 0.950 . S
C888 C889 1.386 . S
C888 C890 1.391 . S
C889 C888 1.386 . S
C889 C893 1.393 . S
C890 H882 0.950 . S
C890 C888 1.391 . S
C890 C891 1.400 . S
C891 C890 1.400 . S
C891 C892 1.398 . S
C891 C897 1.491 . S
C892 H883 0.950 . S
C892 C891 1.398 . S
C892 C893 1.391 . S
C893 H881 0.950 . S
C893 C889 1.393 . S
C893 C892 1.391 . S
C894 H884 0.950 . S
C894 C895 1.386 . S
C894 C896 1.391 . S
C895 C894 1.386 . S
C895 C899 1.393 . S
C896 H885 0.950 . S
C896 C894 1.391 . S
C896 C897 1.400 . S
C897 C891 1.491 . S
C897 C896 1.400 . S
C897 C898 1.398 . S
C898 H886 0.950 . S
C898 C897 1.398 . S
C898 C899 1.391 . S
C899 H887 0.950 . S
C899 C895 1.393 . S
C899 C898 1.391 . S
H900 C908 0.950 . S
H901 C913 0.950 . S
H902 C910 0.950 . S
H903 C912 0.950 . S
H904 C914 0.950 . S
H905 C916 0.950 . S
H906 C918 0.950 . S
H907 C919 0.950 . S
C908 H900 0.950 . S
C908 C909 1.386 . S
C908 C910 1.391 . S
C909 C908 1.386 . S
C909 C913 1.393 . S
C910 H902 0.950 . S
C910 C908 1.391 . S
C910 C911 1.400 . S
C911 C910 1.400 . S
C911 C912 1.398 . S
C911 C917 1.491 . S
C912 H903 0.950 . S
C912 C911 1.398 . S
C912 C913 1.391 . S
C913 H901 0.950 . S
C913 C909 1.393 . S
C913 C912 1.391 . S
C914 H904 0.950 . S
C914 C915 1.386 . S
C914 C916 1.391 . S
C915 C914 1.386 . S
C915 C919 1.393 . S
C916 H905 0.950 . S
C916 C914 1.391 . S
C916 C917 1.400 . S
C917 C911 1.491 . S
C917 C916 1.400 . S
C917 C918 1.398 . S
C918 H906 0.950 . S
C918 C917 1.398 . S
C918 C919 1.391 . S
C919 H907 0.950 . S
C919 C915 1.393 . S
C919 C918 1.391 . S
H920 C928 0.950 . S
H921 C933 0.950 . S
H922 C930 0.950 . S
H923 C932 0.950 . S
H924 C934 0.950 . S
H925 C936 0.950 . S
H926 C938 0.950 . S
H927 C939 0.950 . S
C928 H920 0.950 . S
C928 C929 1.386 . S
C928 C930 1.391 . S
C929 C928 1.386 . S
C929 C933 1.393 . S
C930 H922 0.950 . S
C930 C928 1.391 . S
C930 C931 1.400 . S
C931 C930 1.400 . S
C931 C932 1.398 . S
C931 C937 1.491 . S
C932 H923 0.950 . S
C932 C931 1.398 . S
C932 C933 1.391 . S
C933 H921 0.950 . S
C933 C929 1.393 . S
C933 C932 1.391 . S
C934 H924 0.950 . S
C934 C935 1.386 1_554 S
C934 C936 1.391 . S
C935 C934 1.386 1_556 S
C935 C939 1.393 . S
C936 H925 0.950 . S
C936 C934 1.391 . S
C936 C937 1.400 . S
C937 C931 1.491 . S
C937 C936 1.400 . S
C937 C938 1.398 . S
C938 H926 0.950 . S
C938 C937 1.398 . S
C938 C939 1.391 1_554 S
C939 H927 0.950 . S
C939 C935 1.393 . S
C939 C938 1.391 1_556 S
H940 C948 0.950 . S
H941 C953 0.950 . S
H942 C950 0.950 . S
H943 C952 0.950 . S
H944 C954 0.950 . S
H945 C956 0.950 . S
H946 C958 0.950 . S
H947 C959 0.950 . S
C948 H940 0.950 . S
C948 C949 1.386 . S
C948 C950 1.391 . S
C949 C948 1.386 . S
C949 C953 1.393 . S
C950 H942 0.950 . S
C950 C948 1.391 . S
C950 C951 1.400 . S
C951 C950 1.400 . S
C951 C952 1.398 . S
C951 C957 1.491 . S
C952 H943 0.950 . S
C952 C951 1.398 . S
C952 C953 1.391 . S
C953 H941 0.950 . S
C953 C949 1.393 . S
C953 C952 1.391 . S
C954 H944 0.950 . S
C954 C955 1.386 . S
C954 C956 1.391 . S
C955 C954 1.386 . S
C955 C959 1.393 . S
C956 H945 0.950 . S
C956 C954 1.391 . S
C956 C957 1.400 . S
C957 C951 1.491 . S
C957 C956 1.400 . S
C957 C958 1.398 . S
C958 H946 0.950 . S
C958 C957 1.398 . S
C958 C959 1.391 . S
C959 H947 0.950 . S
C959 C955 1.393 . S
C959 C958 1.391 . S
H960 C968 0.950 . S
H961 C973 0.950 . S
H962 C970 0.950 . S
H963 C972 0.950 . S
H964 C974 0.949 . S
H965 C976 0.950 . S
H966 C978 0.950 . S
H967 C979 0.952 . S
C968 H960 0.950 . S
C968 C969 1.386 . S
C968 C970 1.391 . S
C969 C968 1.386 . S
C969 C973 1.393 . S
C970 H962 0.950 . S
C970 C968 1.391 . S
C970 C971 1.400 . S
C971 C970 1.400 . S
C971 C972 1.398 . S
C971 C977 1.491 . S
C972 H963 0.950 . S
C972 C971 1.398 . S
C972 C973 1.391 . S
C973 H961 0.950 . S
C973 C969 1.393 . S
C973 C972 1.391 . S
C974 H964 0.949 . S
C974 C975 1.386 . S
C974 C976 1.391 . S
C975 C974 1.386 . S
C975 C979 1.393 . S
C976 H965 0.950 . S
C976 C974 1.391 . S
C976 C977 1.400 . S
C977 C971 1.491 . S
C977 C976 1.400 . S
C977 C978 1.398 . S
C978 H966 0.950 . S
C978 C977 1.398 . S
C978 C979 1.391 . S
C979 H967 0.952 . S
C979 C975 1.393 . S
C979 C978 1.391 . S
H980 C988 0.950 . S
H981 C993 0.950 . S
H982 C990 0.950 . S
H983 C992 0.950 . S
H984 C994 0.950 . S
H985 C996 0.950 . S
H986 C998 0.950 . S
H987 C999 0.950 . S
C988 H980 0.950 . S
C988 C989 1.386 . S
C988 C990 1.391 . S
C989 C988 1.386 . S
C989 C993 1.393 . S
C990 H982 0.950 . S
C990 C988 1.391 . S
C990 C991 1.400 . S
C991 C990 1.400 . S
C991 C992 1.398 . S
C991 C997 1.491 1_655 S
C992 H983 0.950 . S
C992 C991 1.398 . S
C992 C993 1.391 . S
C993 H981 0.950 . S
C993 C989 1.393 . S
C993 C992 1.391 . S
C994 H984 0.950 . S
C994 C995 1.386 . S
C994 C996 1.391 . S
C995 C994 1.386 . S
C995 C999 1.393 . S
C996 H985 0.950 . S
C996 C994 1.391 . S
C996 C997 1.400 . S
C997 C991 1.491 1_455 S
C997 C996 1.400 . S
C997 C998 1.398 . S
C998 H986 0.950 . S
C998 C997 1.398 . S
C998 C999 1.391 . S
C999 H987 0.950 . S
C999 C995 1.393 . S
C999 C998 1.391 . S
H1000 C1008 0.950 . S
H1001 C1013 0.950 . S
H1002 C1010 0.950 . S
H1003 C1012 0.950 . S
H1004 C1014 0.950 . S
H1005 C1016 0.950 . S
H1006 C1018 0.950 . S
H1007 C1019 0.950 . S
C1008 H1000 0.950 . S
C1008 C1009 1.386 . S
C1008 C1010 1.391 . S
C1009 C1008 1.386 . S
C1009 C1013 1.393 . S
C1010 H1002 0.950 . S
C1010 C1008 1.391 . S
C1010 C1011 1.400 . S
C1011 C1010 1.400 . S
C1011 C1012 1.398 . S
C1011 C1017 1.491 . S
C1012 H1003 0.950 . S
C1012 C1011 1.398 . S
C1012 C1013 1.391 . S
C1013 H1001 0.950 . S
C1013 C1009 1.393 . S
C1013 C1012 1.391 . S
C1014 H1004 0.950 . S
C1014 C1015 1.386 . S
C1014 C1016 1.391 . S
C1015 C1014 1.386 . S
C1015 C1019 1.393 . S
C1016 H1005 0.950 . S
C1016 C1014 1.391 . S
C1016 C1017 1.400 . S
C1017 C1011 1.491 . S
C1017 C1016 1.400 . S
C1017 C1018 1.398 . S
C1018 H1006 0.950 . S
C1018 C1017 1.398 . S
C1018 C1019 1.391 . S
C1019 H1007 0.950 . S
C1019 C1015 1.393 . S
C1019 C1018 1.391 . S
H1020 C1028 0.950 . S
H1021 C1033 0.950 . S
H1022 C1030 0.950 . S
H1023 C1032 0.950 . S
H1024 C1034 0.950 . S
H1025 C1036 0.950 . S
H1026 C1038 0.950 . S
H1027 C1039 0.950 . S
C1028 H1020 0.950 . S
C1028 C1029 1.386 . S
C1028 C1030 1.391 . S
C1029 C1028 1.386 . S
C1029 C1033 1.393 . S
C1030 H1022 0.950 . S
C1030 C1028 1.391 . S
C1030 C1031 1.400 . S
C1031 C1030 1.400 . S
C1031 C1032 1.398 . S
C1031 C1037 1.491 . S
C1032 H1023 0.950 . S
C1032 C1031 1.398 . S
C1032 C1033 1.391 . S
C1033 H1021 0.950 . S
C1033 C1029 1.393 . S
C1033 C1032 1.391 . S
C1034 H1024 0.950 . S
C1034 C1035 1.386 . S
C1034 C1036 1.391 . S
C1035 C1034 1.386 . S
C1035 C1039 1.393 . S
C1036 H1025 0.950 . S
C1036 C1034 1.391 . S
C1036 C1037 1.400 . S
C1037 C1031 1.491 . S
C1037 C1036 1.400 . S
C1037 C1038 1.398 . S
C1038 H1026 0.950 . S
C1038 C1037 1.398 . S
C1038 C1039 1.391 . S
C1039 H1027 0.950 . S
C1039 C1035 1.393 . S
C1039 C1038 1.391 . S
H1040 C1048 0.950 . S
H1041 C1053 0.950 . S
H1042 C1050 0.950 . S
H1043 C1052 0.950 . S
H1044 C1054 0.950 . S
H1045 C1056 0.950 . S
H1046 C1058 0.950 . S
H1047 C1059 0.950 . S
C1048 H1040 0.950 . S
C1048 C1049 1.386 . S
C1048 C1050 1.391 . S
C1049 C1048 1.386 . S
C1049 C1053 1.393 1_455 S
C1050 H1042 0.950 . S
C1050 C1048 1.391 . S
C1050 C1051 1.400 . S
C1051 C1050 1.400 . S
C1051 C1052 1.398 1_455 S
C1051 C1057 1.491 . S
C1052 H1043 0.950 . S
C1052 C1051 1.398 1_655 S
C1052 C1053 1.391 . S
C1053 H1041 0.950 . S
C1053 C1049 1.393 1_655 S
C1053 C1052 1.391 . S
C1054 H1044 0.950 . S
C1054 C1055 1.386 1_655 S
C1054 C1056 1.391 . S
C1055 C1054 1.386 1_455 S
C1055 C1059 1.393 . S
C1056 H1045 0.950 . S
C1056 C1054 1.391 . S
C1056 C1057 1.400 1_655 S
C1057 C1051 1.491 . S
C1057 C1056 1.400 1_455 S
C1057 C1058 1.398 . S
C1058 H1046 0.950 . S
C1058 C1057 1.398 . S
C1058 C1059 1.391 . S
C1059 H1047 0.950 . S
C1059 C1055 1.393 . S
C1059 C1058 1.391 . S
H1060 C1068 0.950 . S
H1061 C1073 0.950 . S
H1062 C1070 0.950 . S
H1063 C1072 0.950 . S
H1064 C1074 0.950 . S
H1065 C1076 0.950 . S
H1066 C1078 0.950 . S
H1067 C1079 0.950 . S
C1068 H1060 0.950 . S
C1068 C1069 1.386 . S
C1068 C1070 1.391 . S
C1069 C1068 1.386 . S
C1069 C1073 1.393 . S
C1070 H1062 0.950 . S
C1070 C1068 1.391 . S
C1070 C1071 1.400 . S
C1071 C1070 1.400 . S
C1071 C1072 1.398 . S
C1071 C1077 1.491 . S
C1072 H1063 0.950 . S
C1072 C1071 1.398 . S
C1072 C1073 1.391 . S
C1073 H1061 0.950 . S
C1073 C1069 1.393 . S
C1073 C1072 1.391 . S
C1074 H1064 0.950 . S
C1074 C1075 1.386 . S
C1074 C1076 1.391 . S
C1075 C1074 1.386 . S
C1075 C1079 1.393 . S
C1076 H1065 0.950 . S
C1076 C1074 1.391 . S
C1076 C1077 1.400 . S
C1077 C1071 1.491 . S
C1077 C1076 1.400 . S
C1077 C1078 1.398 . S
C1078 H1066 0.950 . S
C1078 C1077 1.398 . S
C1078 C1079 1.391 . S
C1079 H1067 0.950 . S
C1079 C1075 1.393 . S
C1079 C1078 1.391 . S
H1080 C1088 0.950 . S
H1081 C1093 0.950 . S
H1082 C1090 0.950 . S
H1083 C1092 0.950 . S
H1084 C1094 0.950 . S
H1085 C1096 0.950 . S
H1086 C1098 0.950 . S
H1087 C1099 0.950 . S
C1088 H1080 0.950 . S
C1088 C1089 1.386 . S
C1088 C1090 1.391 . S
C1089 C1088 1.386 . S
C1089 C1093 1.393 . S
C1090 H1082 0.950 . S
C1090 C1088 1.391 . S
C1090 C1091 1.400 . S
C1091 C1090 1.400 . S
C1091 C1092 1.398 . S
C1091 C1097 1.491 . S
C1092 H1083 0.950 . S
C1092 C1091 1.398 . S
C1092 C1093 1.391 . S
C1093 H1081 0.950 . S
C1093 C1089 1.393 . S
C1093 C1092 1.391 . S
C1094 H1084 0.950 . S
C1094 C1095 1.386 . S
C1094 C1096 1.391 . S
C1095 C1094 1.386 . S
C1095 C1099 1.393 . S
C1096 H1085 0.950 . S
C1096 C1094 1.391 . S
C1096 C1097 1.400 . S
C1097 C1091 1.491 . S
C1097 C1096 1.400 . S
C1097 C1098 1.398 . S
C1098 H1086 0.950 . S
C1098 C1097 1.398 . S
C1098 C1099 1.391 . S
C1099 H1087 0.950 . S
C1099 C1095 1.393 . S
C1099 C1098 1.391 . S
H1100 C1108 0.950 . S
H1101 C1113 0.950 . S
H1102 C1110 0.950 . S
H1103 C1112 0.950 . S
H1104 C1114 0.950 . S
H1105 C1116 0.950 . S
H1106 C1118 0.950 . S
H1107 C1119 0.950 . S
C1108 H1100 0.950 . S
C1108 C1109 1.386 . S
C1108 C1110 1.391 . S
C1109 C1108 1.386 . S
C1109 C1113 1.393 . S
C1110 H1102 0.950 . S
C1110 C1108 1.391 . S
C1110 C1111 1.400 . S
C1111 C1110 1.400 . S
C1111 C1112 1.398 . S
C1111 C1117 1.491 1_455 S
C1112 H1103 0.950 . S
C1112 C1111 1.398 . S
C1112 C1113 1.391 . S
C1113 H1101 0.950 . S
C1113 C1109 1.393 . S
C1113 C1112 1.391 . S
C1114 H1104 0.950 . S
C1114 C1115 1.386 . S
C1114 C1116 1.391 . S
C1115 C1114 1.386 . S
C1115 C1119 1.393 . S
C1116 H1105 0.950 . S
C1116 C1114 1.391 . S
C1116 C1117 1.400 . S
C1117 C1111 1.491 1_655 S
C1117 C1116 1.400 . S
C1117 C1118 1.398 . S
C1118 H1106 0.950 . S
C1118 C1117 1.398 . S
C1118 C1119 1.391 . S
C1119 H1107 0.950 . S
C1119 C1115 1.393 . S
C1119 C1118 1.391 . S
H1120 C1128 0.950 . S
H1121 C1133 0.950 . S
H1122 C1130 0.950 1_565 S
H1123 C1132 0.952 1_556 S
H1124 C1134 0.950 . S
H1125 C1136 0.950 1_545 S
H1126 C1138 0.951 1_554 S
H1127 C1139 0.950 . S
C1128 H1120 0.950 . S
C1128 C1129 1.386 . S
C1128 C1130 1.391 . S
C1129 C1128 1.386 . S
C1129 C1133 1.393 1_455 S
C1130 H1122 0.950 1_545 S
C1130 C1128 1.391 . S
C1130 C1131 1.400 . S
C1131 C1130 1.400 . S
C1131 C1132 1.398 1_455 S
C1131 C1137 1.491 1_544 S
C1132 H1123 0.952 1_554 S
C1132 C1131 1.398 1_655 S
C1132 C1133 1.391 . S
C1133 H1121 0.950 . S
C1133 C1129 1.393 1_655 S
C1133 C1132 1.391 . S
C1134 H1124 0.950 . S
C1134 C1135 1.386 1_655 S
C1134 C1136 1.391 . S
C1135 C1134 1.386 1_455 S
C1135 C1139 1.393 . S
C1136 H1125 0.950 1_565 S
C1136 C1134 1.391 . S
C1136 C1137 1.400 1_655 S
C1137 C1131 1.491 1_566 S
C1137 C1136 1.400 1_455 S
C1137 C1138 1.398 . S
C1138 H1126 0.951 1_556 S
C1138 C1137 1.398 . S
C1138 C1139 1.391 . S
C1139 H1127 0.950 . S
C1139 C1135 1.393 . S
C1139 C1138 1.391 . S
H1140 C1148 0.950 . S
H1141 C1153 0.950 . S
H1142 C1150 0.950 . S
H1143 C1152 0.950 . S
H1144 C1154 0.950 . S
H1145 C1156 0.950 . S
H1146 C1158 0.950 . S
H1147 C1159 0.950 . S
C1148 H1140 0.950 . S
C1148 C1149 1.386 . S
C1148 C1150 1.391 . S
C1149 C1148 1.386 . S
C1149 C1153 1.393 . S
C1150 H1142 0.950 . S
C1150 C1148 1.391 . S
C1150 C1151 1.400 . S
C1151 C1150 1.400 . S
C1151 C1152 1.398 . S
C1151 C1157 1.491 . S
C1152 H1143 0.950 . S
C1152 C1151 1.398 . S
C1152 C1153 1.391 . S
C1153 H1141 0.950 . S
C1153 C1149 1.393 . S
C1153 C1152 1.391 . S
C1154 H1144 0.950 . S
C1154 C1155 1.386 . S
C1154 C1156 1.391 . S
C1155 C1154 1.386 . S
C1155 C1159 1.393 . S
C1156 H1145 0.950 . S
C1156 C1154 1.391 . S
C1156 C1157 1.400 . S
C1157 C1151 1.491 . S
C1157 C1156 1.400 . S
C1157 C1158 1.398 . S
C1158 H1146 0.950 . S
C1158 C1157 1.398 . S
C1158 C1159 1.391 . S
C1159 H1147 0.950 . S
C1159 C1155 1.393 . S
C1159 C1158 1.391 . S
H1160 C1168 0.950 . S
H1161 C1173 0.950 . S
H1162 C1170 0.950 . S
H1163 C1172 0.976 . S
H1164 C1174 0.950 . S
H1165 C1176 0.950 . S
H1166 C1178 0.978 . S
H1167 C1179 0.950 . S
C1168 H1160 0.950 . S
C1168 C1169 1.386 . S
C1168 C1170 1.391 . S
C1169 C1168 1.386 . S
C1169 C1173 1.393 . S
C1170 H1162 0.950 . S
C1170 C1168 1.391 . S
C1170 C1171 1.400 . S
C1171 C1170 1.400 . S
C1171 C1172 1.389 1_545 S
C1171 C1177 1.491 1_545 S
C1172 H1163 0.976 . S
C1172 C1171 1.389 1_565 S
C1172 C1173 1.374 1_565 S
C1173 H1161 0.950 . S
C1173 C1169 1.393 . S
C1173 C1172 1.374 1_545 S
C1174 H1164 0.950 . S
C1174 C1175 1.386 . S
C1174 C1176 1.391 . S
C1175 C1174 1.386 . S
C1175 C1179 1.393 . S
C1176 H1165 0.950 . S
C1176 C1174 1.391 . S
C1176 C1177 1.400 . S
C1177 C1171 1.491 1_565 S
C1177 C1176 1.400 . S
C1177 C1178 1.389 1_565 S
C1178 H1166 0.978 . S
C1178 C1177 1.389 1_545 S
C1178 C1179 1.374 1_545 S
C1179 H1167 0.950 . S
C1179 C1175 1.393 . S
C1179 C1178 1.374 1_565 S
H1180 C1188 0.950 . S
H1181 C1193 0.950 . S
H1182 C1190 0.950 . S
H1183 C1192 0.950 . S
H1184 C1194 0.950 . S
H1185 C1196 0.950 . S
H1186 C1198 0.950 . S
H1187 C1199 0.950 . S
C1188 H1180 0.950 . S
C1188 C1189 1.386 . S
C1188 C1190 1.391 . S
C1189 C1188 1.386 . S
C1189 C1193 1.393 . S
C1190 H1182 0.950 . S
C1190 C1188 1.391 . S
C1190 C1191 1.400 . S
C1191 C1190 1.400 . S
C1191 C1192 1.398 . S
C1191 C1197 1.491 . S
C1192 H1183 0.950 . S
C1192 C1191 1.398 . S
C1192 C1193 1.391 . S
C1193 H1181 0.950 . S
C1193 C1189 1.393 . S
C1193 C1192 1.391 . S
C1194 H1184 0.950 . S
C1194 C1195 1.386 . S
C1194 C1196 1.391 . S
C1195 C1194 1.386 . S
C1195 C1199 1.393 . S
C1196 H1185 0.950 . S
C1196 C1194 1.391 . S
C1196 C1197 1.400 . S
C1197 C1191 1.491 . S
C1197 C1196 1.400 . S
C1197 C1198 1.398 . S
C1198 H1186 0.950 . S
C1198 C1197 1.398 . S
C1198 C1199 1.391 . S
C1199 H1187 0.950 . S
C1199 C1195 1.393 . S
C1199 C1198 1.391 . S
H1200 C1208 0.950 . S
H1201 C1213 0.950 . S
H1202 C1210 0.950 . S
H1203 C1212 0.950 . S
H1204 C1214 0.950 . S
H1205 C1216 0.950 . S
H1206 C1218 0.950 . S
H1207 C1219 0.950 . S
C1208 H1200 0.950 . S
C1208 C1209 1.386 . S
C1208 C1210 1.391 . S
C1209 C1208 1.386 . S
C1209 C1213 1.393 . S
C1210 H1202 0.950 . S
C1210 C1208 1.391 . S
C1210 C1211 1.400 . S
C1211 C1210 1.400 . S
C1211 C1212 1.398 . S
C1211 C1217 1.491 . S
C1212 H1203 0.950 . S
C1212 C1211 1.398 . S
C1212 C1213 1.391 . S
C1213 H1201 0.950 . S
C1213 C1209 1.393 . S
C1213 C1212 1.391 . S
C1214 H1204 0.950 . S
C1214 C1215 1.386 . S
C1214 C1216 1.391 . S
C1215 C1214 1.386 . S
C1215 C1219 1.393 . S
C1216 H1205 0.950 . S
C1216 C1214 1.391 . S
C1216 C1217 1.400 . S
C1217 C1211 1.491 . S
C1217 C1216 1.400 . S
C1217 C1218 1.398 . S
C1218 H1206 0.950 . S
C1218 C1217 1.398 . S
C1218 C1219 1.391 . S
C1219 H1207 0.950 . S
C1219 C1215 1.393 . S
C1219 C1218 1.391 . S
H1220 C1228 0.950 . S
H1221 C1233 0.950 . S
H1222 C1230 0.950 . S
H1223 C1232 0.950 . S
H1224 C1234 0.950 . S
H1225 C1236 0.950 . S
H1226 C1238 0.950 . S
H1227 C1239 0.950 . S
C1228 H1220 0.950 . S
C1228 C1229 1.386 . S
C1228 C1230 1.391 . S
C1229 C1228 1.386 . S
C1229 C1233 1.393 . S
C1230 H1222 0.950 . S
C1230 C1228 1.391 . S
C1230 C1231 1.400 . S
C1231 C1230 1.400 . S
C1231 C1232 1.398 . S
C1231 C1237 1.491 . S
C1232 H1223 0.950 . S
C1232 C1231 1.398 . S
C1232 C1233 1.391 . S
C1233 H1221 0.950 . S
C1233 C1229 1.393 . S
C1233 C1232 1.391 . S
C1234 H1224 0.950 . S
C1234 C1235 1.386 . S
C1234 C1236 1.391 . S
C1235 C1234 1.386 . S
C1235 C1239 1.393 . S
C1236 H1225 0.950 . S
C1236 C1234 1.391 . S
C1236 C1237 1.400 . S
C1237 C1231 1.491 . S
C1237 C1236 1.400 . S
C1237 C1238 1.398 . S
C1238 H1226 0.950 . S
C1238 C1237 1.398 . S
C1238 C1239 1.391 . S
C1239 H1227 0.950 . S
C1239 C1235 1.393 . S
C1239 C1238 1.391 . S
H1240 C1248 0.950 . S
H1241 C1253 0.950 . S
H1242 C1250 0.950 . S
H1243 C1252 0.950 . S
H1244 C1254 0.950 . S
H1245 C1256 0.950 . S
H1246 C1258 0.950 . S
H1247 C1259 0.950 . S
C1248 H1240 0.950 . S
C1248 C1249 1.386 . S
C1248 C1250 1.391 . S
C1249 C1248 1.386 . S
C1249 C1253 1.393 . S
C1250 H1242 0.950 . S
C1250 C1248 1.391 . S
C1250 C1251 1.400 . S
C1251 C1250 1.400 . S
C1251 C1252 1.398 . S
C1251 C1257 1.491 . S
C1252 H1243 0.950 . S
C1252 C1251 1.398 . S
C1252 C1253 1.391 . S
C1253 H1241 0.950 . S
C1253 C1249 1.393 . S
C1253 C1252 1.391 . S
C1254 H1244 0.950 . S
C1254 C1255 1.386 . S
C1254 C1256 1.391 . S
C1255 C1254 1.386 . S
C1255 C1259 1.393 . S
C1256 H1245 0.950 . S
C1256 C1254 1.391 . S
C1256 C1257 1.400 . S
C1257 C1251 1.491 . S
C1257 C1256 1.400 . S
C1257 C1258 1.398 . S
C1258 H1246 0.950 . S
C1258 C1257 1.398 . S
C1258 C1259 1.391 . S
C1259 H1247 0.950 . S
C1259 C1255 1.393 . S
C1259 C1258 1.391 . S
H1260 C1268 0.950 . S
H1261 C1273 0.950 . S
H1262 C1270 0.950 . S
H1263 C1272 0.950 . S
H1264 C1274 0.950 . S
H1265 C1276 0.950 . S
H1266 C1278 0.950 . S
H1267 C1279 0.950 . S
C1268 H1260 0.950 . S
C1268 C1269 1.386 . S
C1268 C1270 1.391 . S
C1269 C1268 1.386 . S
C1269 C1273 1.393 1_455 S
C1270 H1262 0.950 . S
C1270 C1268 1.391 . S
C1270 C1271 1.400 . S
C1271 C1270 1.400 . S
C1271 C1272 1.398 1_455 S
C1271 C1277 1.491 1_556 S
C1272 H1263 0.950 . S
C1272 C1271 1.398 1_655 S
C1272 C1273 1.391 . S
C1273 H1261 0.950 . S
C1273 C1269 1.393 1_655 S
C1273 C1272 1.391 . S
C1274 H1264 0.950 . S
C1274 C1275 1.386 1_655 S
C1274 C1276 1.391 . S
C1275 C1274 1.386 1_455 S
C1275 C1279 1.393 . S
C1276 H1265 0.950 . S
C1276 C1274 1.391 . S
C1276 C1277 1.400 1_655 S
C1277 C1271 1.491 1_554 S
C1277 C1276 1.400 1_455 S
C1277 C1278 1.398 . S
C1278 H1266 0.950 . S
C1278 C1277 1.398 . S
C1278 C1279 1.391 . S
C1279 H1267 0.950 . S
C1279 C1275 1.393 . S
C1279 C1278 1.391 . S
H1280 C1288 0.950 . S
H1281 C1293 0.950 . S
H1282 C1290 0.950 . S
H1283 C1292 0.950 . S
H1284 C1294 0.950 . S
H1285 C1296 0.950 . S
H1286 C1298 0.950 . S
H1287 C1299 0.950 . S
C1288 H1280 0.950 . S
C1288 C1289 1.386 . S
C1288 C1290 1.391 . S
C1289 C1288 1.386 . S
C1289 C1293 1.393 . S
C1290 H1282 0.950 . S
C1290 C1288 1.391 . S
C1290 C1291 1.400 . S
C1291 C1290 1.400 . S
C1291 C1292 1.398 . S
C1291 C1297 1.491 . S
C1292 H1283 0.950 . S
C1292 C1291 1.398 . S
C1292 C1293 1.391 . S
C1293 H1281 0.950 . S
C1293 C1289 1.393 . S
C1293 C1292 1.391 . S
C1294 H1284 0.950 . S
C1294 C1295 1.386 . S
C1294 C1296 1.391 . S
C1295 C1294 1.386 . S
C1295 C1299 1.393 . S
C1296 H1285 0.950 . S
C1296 C1294 1.391 . S
C1296 C1297 1.400 . S
C1297 C1291 1.491 . S
C1297 C1296 1.400 . S
C1297 C1298 1.398 . S
C1298 H1286 0.950 . S
C1298 C1297 1.398 . S
C1298 C1299 1.391 . S
C1299 H1287 0.950 . S
C1299 C1295 1.393 . S
C1299 C1298 1.391 . S
H1300 C1308 0.950 . S
H1301 C1313 0.950 . S
H1302 C1310 0.950 . S
H1303 C1312 0.950 . S
H1304 C1314 0.950 . S
H1305 C1316 0.950 . S
H1306 C1318 0.950 . S
H1307 C1319 0.950 . S
C1308 H1300 0.950 . S
C1308 C1309 1.386 . S
C1308 C1310 1.391 . S
C1309 C1308 1.386 . S
C1309 C1313 1.393 . S
C1310 H1302 0.950 . S
C1310 C1308 1.391 . S
C1310 C1311 1.400 . S
C1311 C1310 1.400 . S
C1311 C1312 1.398 . S
C1311 C1317 1.491 . S
C1312 H1303 0.950 . S
C1312 C1311 1.398 . S
C1312 C1313 1.391 . S
C1313 H1301 0.950 . S
C1313 C1309 1.393 . S
C1313 C1312 1.391 . S
C1314 H1304 0.950 . S
C1314 C1315 1.386 . S
C1314 C1316 1.391 . S
C1315 C1314 1.386 . S
C1315 C1319 1.393 . S
C1316 H1305 0.950 . S
C1316 C1314 1.391 . S
C1316 C1317 1.400 . S
C1317 C1311 1.491 . S
C1317 C1316 1.400 . S
C1317 C1318 1.398 . S
C1318 H1306 0.950 . S
C1318 C1317 1.398 . S
C1318 C1319 1.391 . S
C1319 H1307 0.950 . S
C1319 C1315 1.393 . S
C1319 C1318 1.391 . S
H1320 C1328 0.954 . S
H1321 C1333 0.950 . S
H1322 C1330 0.950 . S
H1323 C1332 0.950 . S
H1324 C1334 0.950 . S
H1325 C1336 0.950 . S
H1326 C1338 0.950 . S
H1327 C1339 0.950 . S
C1328 H1320 0.954 . S
C1328 C1329 1.402 . S
C1328 C1330 1.371 1_554 S
C1329 C1328 1.402 . S
C1329 C1333 1.393 . S
C1330 H1322 0.950 . S
C1330 C1328 1.371 1_556 S
C1330 C1331 1.400 . S
C1331 C1330 1.400 . S
C1331 C1332 1.398 . S
C1331 C1337 1.491 . S
C1332 H1323 0.950 . S
C1332 C1331 1.398 . S
C1332 C1333 1.391 1_556 S
C1333 H1321 0.950 . S
C1333 C1329 1.393 . S
C1333 C1332 1.391 1_554 S
C1334 H1324 0.950 . S
C1334 C1335 1.386 . S
C1334 C1336 1.391 . S
C1335 C1334 1.386 . S
C1335 C1339 1.393 . S
C1336 H1325 0.950 . S
C1336 C1334 1.391 . S
C1336 C1337 1.400 . S
C1337 C1331 1.491 . S
C1337 C1336 1.400 . S
C1337 C1338 1.398 . S
C1338 H1326 0.950 . S
C1338 C1337 1.398 . S
C1338 C1339 1.391 . S
C1339 H1327 0.950 . S
C1339 C1335 1.393 . S
C1339 C1338 1.391 . S
H1340 C1348 0.950 . S
H1341 C1353 0.950 . S
H1342 C1350 0.950 . S
H1343 C1352 0.950 . S
H1344 C1354 0.950 . S
H1345 C1356 0.950 . S
H1346 C1358 0.950 . S
H1347 C1359 0.950 . S
C1348 H1340 0.950 . S
C1348 C1349 1.386 . S
C1348 C1350 1.391 . S
C1349 C1348 1.386 . S
C1349 C1353 1.393 . S
C1350 H1342 0.950 . S
C1350 C1348 1.391 . S
C1350 C1351 1.400 . S
C1351 C1350 1.400 . S
C1351 C1352 1.398 . S
C1351 C1357 1.491 . S
C1352 H1343 0.950 . S
C1352 C1351 1.398 . S
C1352 C1353 1.391 . S
C1353 H1341 0.950 . S
C1353 C1349 1.393 . S
C1353 C1352 1.391 . S
C1354 H1344 0.950 . S
C1354 C1355 1.386 . S
C1354 C1356 1.391 . S
C1355 C1354 1.386 . S
C1355 C1359 1.393 . S
C1356 H1345 0.950 . S
C1356 C1354 1.391 . S
C1356 C1357 1.400 . S
C1357 C1351 1.491 . S
C1357 C1356 1.400 . S
C1357 C1358 1.398 . S
C1358 H1346 0.950 . S
C1358 C1357 1.398 . S
C1358 C1359 1.391 . S
C1359 H1347 0.950 . S
C1359 C1355 1.393 . S
C1359 C1358 1.391 . S
H1360 C1368 0.950 . S
H1361 C1373 0.950 . S
H1362 C1370 0.950 . S
H1363 C1372 0.950 . S
H1364 C1374 0.950 . S
H1365 C1376 0.950 . S
H1366 C1378 0.950 . S
H1367 C1379 0.950 . S
C1368 H1360 0.950 . S
C1368 C1369 1.386 . S
C1368 C1370 1.391 . S
C1369 C1368 1.386 . S
C1369 C1373 1.393 . S
C1370 H1362 0.950 . S
C1370 C1368 1.391 . S
C1370 C1371 1.400 . S
C1371 C1370 1.400 . S
C1371 C1372 1.398 . S
C1371 C1377 1.491 . S
C1372 H1363 0.950 . S
C1372 C1371 1.398 . S
C1372 C1373 1.391 . S
C1373 H1361 0.950 . S
C1373 C1369 1.393 . S
C1373 C1372 1.391 . S
C1374 H1364 0.950 . S
C1374 C1375 1.386 . S
C1374 C1376 1.391 . S
C1375 C1374 1.386 . S
C1375 C1379 1.393 . S
C1376 H1365 0.950 . S
C1376 C1374 1.391 . S
C1376 C1377 1.400 . S
C1377 C1371 1.491 . S
C1377 C1376 1.400 . S
C1377 C1378 1.398 . S
C1378 H1366 0.950 . S
C1378 C1377 1.398 . S
C1378 C1379 1.391 . S
C1379 H1367 0.950 . S
C1379 C1375 1.393 . S
C1379 C1378 1.391 . S
H1380 C1388 0.950 . S
H1381 C1393 0.950 . S
H1382 C1390 0.950 . S
H1383 C1392 0.950 . S
H1384 C1394 0.950 . S
H1385 C1396 0.950 . S
H1386 C1398 0.950 . S
H1387 C1399 0.950 . S
C1388 H1380 0.950 . S
C1388 C1389 1.386 . S
C1388 C1390 1.391 . S
C1389 C1388 1.386 . S
C1389 C1393 1.393 . S
C1390 H1382 0.950 . S
C1390 C1388 1.391 . S
C1390 C1391 1.400 . S
C1391 C1390 1.400 . S
C1391 C1392 1.398 . S
C1391 C1397 1.491 . S
C1392 H1383 0.950 . S
C1392 C1391 1.398 . S
C1392 C1393 1.391 . S
C1393 H1381 0.950 . S
C1393 C1389 1.393 . S
C1393 C1392 1.391 . S
C1394 H1384 0.950 . S
C1394 C1395 1.386 . S
C1394 C1396 1.391 . S
C1395 C1394 1.386 . S
C1395 C1399 1.393 . S
C1396 H1385 0.950 . S
C1396 C1394 1.391 . S
C1396 C1397 1.400 . S
C1397 C1391 1.491 . S
C1397 C1396 1.400 . S
C1397 C1398 1.398 . S
C1398 H1386 0.950 . S
C1398 C1397 1.398 . S
C1398 C1399 1.391 . S
C1399 H1387 0.950 . S
C1399 C1395 1.393 . S
C1399 C1398 1.391 . S
H1400 C1408 0.950 . S
H1401 C1413 0.950 . S
H1402 C1410 0.950 . S
H1403 C1412 0.950 . S
H1404 C1414 0.950 . S
H1405 C1416 0.950 . S
H1406 C1418 0.950 . S
H1407 C1419 0.950 . S
C1408 H1400 0.950 . S
C1408 C1409 1.386 . S
C1408 C1410 1.391 1_556 S
C1409 C1408 1.386 . S
C1409 C1413 1.393 1_556 S
C1410 H1402 0.950 . S
C1410 C1408 1.391 1_554 S
C1410 C1411 1.400 . S
C1411 C1410 1.400 . S
C1411 C1412 1.398 . S
C1411 C1417 1.491 . S
C1412 H1403 0.950 . S
C1412 C1411 1.398 . S
C1412 C1413 1.391 . S
C1413 H1401 0.950 . S
C1413 C1409 1.393 1_554 S
C1413 C1412 1.391 . S
C1414 H1404 0.950 . S
C1414 C1415 1.386 . S
C1414 C1416 1.391 . S
C1415 C1414 1.386 . S
C1415 C1419 1.393 . S
C1416 H1405 0.950 . S
C1416 C1414 1.391 . S
C1416 C1417 1.400 . S
C1417 C1411 1.491 . S
C1417 C1416 1.400 . S
C1417 C1418 1.398 . S
C1418 H1406 0.950 . S
C1418 C1417 1.398 . S
C1418 C1419 1.391 . S
C1419 H1407 0.950 . S
C1419 C1415 1.393 . S
C1419 C1418 1.391 . S
H1420 C1428 0.950 . S
H1421 C1433 0.950 . S
H1422 C1430 0.950 . S
H1423 C1432 0.950 . S
H1424 C1434 0.950 . S
H1425 C1436 0.950 . S
H1426 C1438 0.950 . S
H1427 C1439 0.950 . S
C1428 H1420 0.950 . S
C1428 C1429 1.386 . S
C1428 C1430 1.391 . S
C1429 C1428 1.386 . S
C1429 C1433 1.393 . S
C1430 H1422 0.950 . S
C1430 C1428 1.391 . S
C1430 C1431 1.400 . S
C1431 C1430 1.400 . S
C1431 C1432 1.398 . S
C1431 C1437 1.491 . S
C1432 H1423 0.950 . S
C1432 C1431 1.398 . S
C1432 C1433 1.391 . S
C1433 H1421 0.950 . S
C1433 C1429 1.393 . S
C1433 C1432 1.391 . S
C1434 H1424 0.950 . S
C1434 C1435 1.386 . S
C1434 C1436 1.391 . S
C1435 C1434 1.386 . S
C1435 C1439 1.393 . S
C1436 H1425 0.950 . S
C1436 C1434 1.391 . S
C1436 C1437 1.400 . S
C1437 C1431 1.491 . S
C1437 C1436 1.400 . S
C1437 C1438 1.398 . S
C1438 H1426 0.950 . S
C1438 C1437 1.398 . S
C1438 C1439 1.391 . S
C1439 H1427 0.950 . S
C1439 C1435 1.393 . S
C1439 C1438 1.391 . S
H1440 C1448 0.950 . S
H1441 C1453 0.950 . S
H1442 C1450 0.950 . S
H1443 C1452 0.950 . S
H1444 C1454 0.950 . S
H1445 C1456 0.950 . S
H1446 C1458 0.950 . S
H1447 C1459 0.950 . S
C1448 H1440 0.950 . S
C1448 C1449 1.386 . S
C1448 C1450 1.391 . S
C1449 C1448 1.386 . S
C1449 C1453 1.393 . S
C1450 H1442 0.950 . S
C1450 C1448 1.391 . S
C1450 C1451 1.400 . S
C1451 C1450 1.400 . S
C1451 C1452 1.398 . S
C1451 C1457 1.491 . S
C1452 H1443 0.950 . S
C1452 C1451 1.398 . S
C1452 C1453 1.391 . S
C1453 H1441 0.950 . S
C1453 C1449 1.393 . S
C1453 C1452 1.391 . S
C1454 H1444 0.950 . S
C1454 C1455 1.386 . S
C1454 C1456 1.391 1_554 S
C1455 C1454 1.386 . S
C1455 C1459 1.393 . S
C1456 H1445 0.950 . S
C1456 C1454 1.391 1_556 S
C1456 C1457 1.400 . S
C1457 C1451 1.491 . S
C1457 C1456 1.400 . S
C1457 C1458 1.398 . S
C1458 H1446 0.950 . S
C1458 C1457 1.398 . S
C1458 C1459 1.391 1_556 S
C1459 H1447 0.950 . S
C1459 C1455 1.393 . S
C1459 C1458 1.391 1_554 S
H1460 C1468 0.950 . S
H1461 C1473 0.950 . S
H1462 C1470 0.950 . S
H1463 C1472 0.950 . S
H1464 C1474 0.950 . S
H1465 C1476 0.950 . S
H1466 C1478 0.950 . S
H1467 C1479 0.950 . S
C1468 H1460 0.950 . S
C1468 C1469 1.386 . S
C1468 C1470 1.391 . S
C1469 C1468 1.386 . S
C1469 C1473 1.393 . S
C1470 H1462 0.950 . S
C1470 C1468 1.391 . S
C1470 C1471 1.400 . S
C1471 C1470 1.400 . S
C1471 C1472 1.398 . S
C1471 C1477 1.491 . S
C1472 H1463 0.950 . S
C1472 C1471 1.398 . S
C1472 C1473 1.391 . S
C1473 H1461 0.950 . S
C1473 C1469 1.393 . S
C1473 C1472 1.391 . S
C1474 H1464 0.950 . S
C1474 C1475 1.386 . S
C1474 C1476 1.391 . S
C1475 C1474 1.386 . S
C1475 C1479 1.393 . S
C1476 H1465 0.950 . S
C1476 C1474 1.391 . S
C1476 C1477 1.400 . S
C1477 C1471 1.491 . S
C1477 C1476 1.400 . S
C1477 C1478 1.398 . S
C1478 H1466 0.950 . S
C1478 C1477 1.398 . S
C1478 C1479 1.391 . S
C1479 H1467 0.950 . S
C1479 C1475 1.393 . S
C1479 C1478 1.391 . S
H1480 C1488 0.950 . S
H1481 C1493 0.950 . S
H1482 C1490 0.950 . S
H1483 C1492 0.950 . S
H1484 C1494 0.950 . S
H1485 C1496 0.950 . S
H1486 C1498 0.950 . S
H1487 C1499 0.950 . S
C1488 H1480 0.950 . S
C1488 C1489 1.386 . S
C1488 C1490 1.391 . S
C1489 C1488 1.386 . S
C1489 C1493 1.393 . S
C1490 H1482 0.950 . S
C1490 C1488 1.391 . S
C1490 C1491 1.400 . S
C1491 C1490 1.400 . S
C1491 C1492 1.398 . S
C1491 C1497 1.491 . S
C1492 H1483 0.950 . S
C1492 C1491 1.398 . S
C1492 C1493 1.391 . S
C1493 H1481 0.950 . S
C1493 C1489 1.393 . S
C1493 C1492 1.391 . S
C1494 H1484 0.950 . S
C1494 C1495 1.386 . S
C1494 C1496 1.391 . S
C1495 C1494 1.386 . S
C1495 C1499 1.393 . S
C1496 H1485 0.950 . S
C1496 C1494 1.391 . S
C1496 C1497 1.400 . S
C1497 C1491 1.491 . S
C1497 C1496 1.400 . S
C1497 C1498 1.398 . S
C1498 H1486 0.950 . S
C1498 C1497 1.398 . S
C1498 C1499 1.391 . S
C1499 H1487 0.950 . S
C1499 C1495 1.393 . S
C1499 C1498 1.391 . S
H1500 C1508 0.950 . S
H1501 C1513 0.950 . S
H1502 C1510 0.950 . S
H1503 C1512 0.950 . S
H1504 C1514 0.950 . S
H1505 C1516 0.950 . S
H1506 C1518 0.950 . S
H1507 C1519 0.950 . S
C1508 H1500 0.950 . S
C1508 C1509 1.386 . S
C1508 C1510 1.391 . S
C1509 C1508 1.386 . S
C1509 C1513 1.393 . S
C1510 H1502 0.950 . S
C1510 C1508 1.391 . S
C1510 C1511 1.400 . S
C1511 C1510 1.400 . S
C1511 C1512 1.398 . S
C1511 C1517 1.491 . S
C1512 H1503 0.950 . S
C1512 C1511 1.398 . S
C1512 C1513 1.391 . S
C1513 H1501 0.950 . S
C1513 C1509 1.393 . S
C1513 C1512 1.391 . S
C1514 H1504 0.950 . S
C1514 C1515 1.386 . S
C1514 C1516 1.391 . S
C1515 C1514 1.386 . S
C1515 C1519 1.393 . S
C1516 H1505 0.950 . S
C1516 C1514 1.391 . S
C1516 C1517 1.400 . S
C1517 C1511 1.491 . S
C1517 C1516 1.400 . S
C1517 C1518 1.398 . S
C1518 H1506 0.950 . S
C1518 C1517 1.398 . S
C1518 C1519 1.391 . S
C1519 H1507 0.950 . S
C1519 C1515 1.393 . S
C1519 C1518 1.391 . S
H1520 C1528 0.950 . S
H1521 C1533 0.950 . S
H1522 C1530 0.950 . S
H1523 C1532 0.950 . S
H1524 C1534 0.950 . S
H1525 C1536 0.950 . S
H1526 C1538 0.950 . S
H1527 C1539 0.950 . S
C1528 H1520 0.950 . S
C1528 C1529 1.386 . S
C1528 C1530 1.391 . S
C1529 C1528 1.386 . S
C1529 C1533 1.393 . S
C1530 H1522 0.950 . S
C1530 C1528 1.391 . S
C1530 C1531 1.400 . S
C1531 C1530 1.400 . S
C1531 C1532 1.398 . S
C1531 C1537 1.491 . S
C1532 H1523 0.950 . S
C1532 C1531 1.398 . S
C1532 C1533 1.391 . S
C1533 H1521 0.950 . S
C1533 C1529 1.393 . S
C1533 C1532 1.391 . S
C1534 H1524 0.950 . S
C1534 C1535 1.386 . S
C1534 C1536 1.391 1_556 S
C1535 C1534 1.386 . S
C1535 C1539 1.393 . S
C1536 H1525 0.950 . S
C1536 C1534 1.391 1_554 S
C1536 C1537 1.400 . S
C1537 C1531 1.491 . S
C1537 C1536 1.400 . S
C1537 C1538 1.398 . S
C1538 H1526 0.950 . S
C1538 C1537 1.398 . S
C1538 C1539 1.391 1_554 S
C1539 H1527 0.950 . S
C1539 C1535 1.393 . S
C1539 C1538 1.391 1_556 S
H1540 C1548 0.950 . S
H1541 C1553 0.950 . S
H1542 C1550 0.950 . S
H1543 C1552 0.950 . S
H1544 C1554 0.950 . S
H1545 C1556 0.950 . S
H1546 C1558 0.950 . S
H1547 C1559 0.950 . S
C1548 H1540 0.950 . S
C1548 C1549 1.386 . S
C1548 C1550 1.391 . S
C1549 C1548 1.386 . S
C1549 C1553 1.393 . S
C1550 H1542 0.950 . S
C1550 C1548 1.391 . S
C1550 C1551 1.400 . S
C1551 C1550 1.400 . S
C1551 C1552 1.398 . S
C1551 C1557 1.491 . S
C1552 H1543 0.950 . S
C1552 C1551 1.398 . S
C1552 C1553 1.391 . S
C1553 H1541 0.950 . S
C1553 C1549 1.393 . S
C1553 C1552 1.391 . S
C1554 H1544 0.950 . S
C1554 C1555 1.386 . S
C1554 C1556 1.391 . S
C1555 C1554 1.386 . S
C1555 C1559 1.393 . S
C1556 H1545 0.950 . S
C1556 C1554 1.391 . S
C1556 C1557 1.400 . S
C1557 C1551 1.491 . S
C1557 C1556 1.400 . S
C1557 C1558 1.398 . S
C1558 H1546 0.950 . S
C1558 C1557 1.398 . S
C1558 C1559 1.391 . S
C1559 H1547 0.950 . S
C1559 C1555 1.393 . S
C1559 C1558 1.391 . S
H1560 C1568 0.950 . S
H1561 C1573 0.950 . S
H1562 C1570 0.950 . S
H1563 C1572 0.950 . S
H1564 C1574 0.950 . S
H1565 C1576 0.950 . S
H1566 C1578 0.950 . S
H1567 C1579 0.950 . S
C1568 H1560 0.950 . S
C1568 C1569 1.386 . S
C1568 C1570 1.391 . S
C1569 C1568 1.386 . S
C1569 C1573 1.393 . S
C1570 H1562 0.950 . S
C1570 C1568 1.391 . S
C1570 C1571 1.400 . S
C1571 C1570 1.400 . S
C1571 C1572 1.398 . S
C1571 C1577 1.491 . S
C1572 H1563 0.950 . S
C1572 C1571 1.398 . S
C1572 C1573 1.391 . S
C1573 H1561 0.950 . S
C1573 C1569 1.393 . S
C1573 C1572 1.391 . S
C1574 H1564 0.950 . S
C1574 C1575 1.386 . S
C1574 C1576 1.391 . S
C1575 C1574 1.386 . S
C1575 C1579 1.393 . S
C1576 H1565 0.950 . S
C1576 C1574 1.391 . S
C1576 C1577 1.400 . S
C1577 C1571 1.491 . S
C1577 C1576 1.400 . S
C1577 C1578 1.398 . S
C1578 H1566 0.950 . S
C1578 C1577 1.398 . S
C1578 C1579 1.391 . S
C1579 H1567 0.950 . S
C1579 C1575 1.393 . S
C1579 C1578 1.391 . S
H1580 C1588 0.950 . S
H1581 C1593 0.950 . S
H1582 C1590 0.950 . S
H1583 C1592 0.950 . S
H1584 C1594 0.950 . S
H1585 C1596 0.950 . S
H1586 C1598 0.950 . S
H1587 C1599 0.950 . S
C1588 H1580 0.950 . S
C1588 C1589 1.386 . S
C1588 C1590 1.391 . S
C1589 C1588 1.386 . S
C1589 C1593 1.393 . S
C1590 H1582 0.950 . S
C1590 C1588 1.391 . S
C1590 C1591 1.400 . S
C1591 C1590 1.400 . S
C1591 C1592 1.398 . S
C1591 C1597 1.491 . S
C1592 H1583 0.950 . S
C1592 C1591 1.398 . S
C1592 C1593 1.391 . S
C1593 H1581 0.950 . S
C1593 C1589 1.393 . S
C1593 C1592 1.391 . S
C1594 H1584 0.950 . S
C1594 C1595 1.386 . S
C1594 C1596 1.391 . S
C1595 C1594 1.386 . S
C1595 C1599 1.393 . S
C1596 H1585 0.950 . S
C1596 C1594 1.391 . S
C1596 C1597 1.400 . S
C1597 C1591 1.491 . S
C1597 C1596 1.400 . S
C1597 C1598 1.398 . S
C1598 H1586 0.950 . S
C1598 C1597 1.398 . S
C1598 C1599 1.391 . S
C1599 H1587 0.950 . S
C1599 C1595 1.393 . S
C1599 C1598 1.391 . S
C649 C10 1.042 . S
C655 C295 1.028 . S
C669 C50 1.021 . S
C675 C175 1.025 . S
C689 C215 1.006 . S
C695 C90 1.020 . S
C709 C130 1.018 . S
C715 C255 1.016 . S
C729 C446 1.034 . S
C735 C179 1.032 . S
C749 C339 1.030 . S
C755 C6 1.034 . S
C769 C406 1.000 . S
C775 C259 1.025 . S
C789 C86 0.998 . S
C795 C379 1.031 . S
C809 C375 1.032 . S
C815 C490 1.027 . S
C829 C410 1.029 . S
C835 C575 1.033 . S
C849 C530 1.034 . S
C855 C335 1.000 . S
C869 C450 1.037 . S
C875 C615 1.033 . S
C889 C579 1.019 . S
C895 C126 1.008 . S
C909 C486 1.012 . S
C915 C219 1.042 . S
C929 C46 1.027 . S
C935 C619 1.022 . S
C949 C299 1.019 . S
C955 C526 1.022 . S
C969 C529 0.418 . S
C975 C9 0.401 1_455 S
C989 C449 0.402 . S
C995 C49 0.423 . S
C1009 C489 0.483 . S
C1015 C89 0.415 . S
C1029 C409 0.395 . S
C1035 C129 0.439 . S
C1049 C178 0.429 . S
C1055 C618 0.485 1_455 S
C1069 C378 0.440 . S
C1075 C218 0.394 . S
C1089 C258 0.485 . S
C1095 C578 0.424 . S
C1109 C298 0.394 . S
C1115 C338 0.440 . S
C1129 C18 1.535 . S
C1135 C169 1.535 . S
C1149 C58 1.517 . S
C1155 C209 1.517 . S
C1169 C249 1.535 . S
C1175 C98 1.535 . S
C1189 C138 1.507 . S
C1195 C289 1.507 . S
C1209 C418 1.535 . S
C1215 C329 1.535 . S
C1229 C458 1.527 . S
C1235 C369 1.528 . S
C1249 C498 1.510 . S
C1255 C569 1.510 . S
C1269 C609 1.509 . S
C1275 C538 1.509 . S
C1289 C15 1.900 . S
C1295 C290 1.965 . S
C1309 C55 1.889 . S
C1315 C170 1.956 . S
C1329 C210 1.957 . S
C1335 C95 1.883 . S
C1349 C250 1.958 . S
C1355 C135 1.897 . S
C1369 C459 1.959 . S
C1375 C166 1.883 . S
C1389 C326 1.891 . S
C1395 C19 1.956 . S
C1409 C419 1.962 . S
C1415 C246 1.889 . S
C1429 C99 1.958 . S
C1435 C366 1.897 . S
C1449 C495 1.903 . S
C1455 C370 1.965 . S
C1469 C570 1.961 . S
C1475 C415 1.902 . S
C1489 C535 1.888 . S
C1495 C330 1.962 . S
C1509 C610 1.961 . S
C1515 C455 1.888 . S
C1529 C566 1.900 . S
C1535 C139 1.965 . S
C1549 C206 1.885 . S
C1555 C499 1.960 . S
C1569 C59 1.964 . S
C1575 C606 1.902 . S
C1589 C539 1.956 . S
C1595 C286 1.885 . S
