# Generated by pormake.
# Topology umb, (4)-cn, num edge types: 1
# Building blocks:
#     Node 0, Type 0, BuildingBlock: MUDLON_clean_sbu_0, # of connection points: 4
#     Node 1, Type 0, BuildingBlock: MUDLON_clean_sbu_0, # of connection points: 4
#     Node 2, Type 0, BuildingBlock: MUDLON_clean_sbu_0, # of connection points: 4
#     Node 3, Type 0, BuildingBlock: MUDLON_clean_sbu_0, # of connection points: 4
#     Node 4, Type 0, BuildingBlock: MUDLON_clean_sbu_0, # of connection points: 4
#     Node 5, Type 0, BuildingBlock: MUDLON_clean_sbu_0, # of connection points: 4
#     Node 6, Type 0, BuildingBlock: MUDLON_clean_sbu_0, # of connection points: 4
#     Node 7, Type 0, BuildingBlock: MUDLON_clean_sbu_0, # of connection points: 4
#     Node 8, Type 0, BuildingBlock: MUDLON_clean_sbu_0, # of connection points: 4
#     Node 9, Type 0, BuildingBlock: MUDLON_clean_sbu_0, # of connection points: 4
#     Node 10, Type 0, BuildingBlock: MUDLON_clean_sbu_0, # of connection points: 4
#     Node 11, Type 0, BuildingBlock: MUDLON_clean_sbu_0, # of connection points: 4
#     Edge 12, Type (0, 0), BuildingBlock: XIVTED_clean_linker_0, # of connection points: 2
#     Edge 13, Type (0, 0), BuildingBlock: XIVTED_clean_linker_0, # of connection points: 2
#     Edge 14, Type (0, 0), BuildingBlock: XIVTED_clean_linker_0, # of connection points: 2
#     Edge 15, Type (0, 0), BuildingBlock: XIVTED_clean_linker_0, # of connection points: 2
#     Edge 16, Type (0, 0), BuildingBlock: XIVTED_clean_linker_0, # of connection points: 2
#     Edge 17, Type (0, 0), BuildingBlock: XIVTED_clean_linker_0, # of connection points: 2
#     Edge 18, Type (0, 0), BuildingBlock: XIVTED_clean_linker_0, # of connection points: 2
#     Edge 19, Type (0, 0), BuildingBlock: XIVTED_clean_linker_0, # of connection points: 2
#     Edge 20, Type (0, 0), BuildingBlock: XIVTED_clean_linker_0, # of connection points: 2
#     Edge 21, Type (0, 0), BuildingBlock: XIVTED_clean_linker_0, # of connection points: 2
#     Edge 22, Type (0, 0), BuildingBlock: XIVTED_clean_linker_0, # of connection points: 2
#     Edge 23, Type (0, 0), BuildingBlock: XIVTED_clean_linker_0, # of connection points: 2
#     Edge 24, Type (0, 0), BuildingBlock: XIVTED_clean_linker_0, # of connection points: 2
#     Edge 25, Type (0, 0), BuildingBlock: XIVTED_clean_linker_0, # of connection points: 2
#     Edge 26, Type (0, 0), BuildingBlock: XIVTED_clean_linker_0, # of connection points: 2
#     Edge 27, Type (0, 0), BuildingBlock: XIVTED_clean_linker_0, # of connection points: 2
#     Edge 28, Type (0, 0), BuildingBlock: XIVTED_clean_linker_0, # of connection points: 2
#     Edge 29, Type (0, 0), BuildingBlock: XIVTED_clean_linker_0, # of connection points: 2
#     Edge 30, Type (0, 0), BuildingBlock: XIVTED_clean_linker_0, # of connection points: 2
#     Edge 31, Type (0, 0), BuildingBlock: XIVTED_clean_linker_0, # of connection points: 2
#     Edge 32, Type (0, 0), BuildingBlock: XIVTED_clean_linker_0, # of connection points: 2
#     Edge 33, Type (0, 0), BuildingBlock: XIVTED_clean_linker_0, # of connection points: 2
#     Edge 34, Type (0, 0), BuildingBlock: XIVTED_clean_linker_0, # of connection points: 2
#     Edge 35, Type (0, 0), BuildingBlock: XIVTED_clean_linker_0, # of connection points: 2
# Relax obj value: 0.249
# Max RMSD: 0.216
# Mean RMSD: 0.216
data_MOF--net-umb--node1-MUDLON_clean_sbu_0--edge1-XIVTED_clean_linker_0
_symmetry_space_group_name_H-M    P1
_symmetry_Int_Tables_number       1
_symmetry_cell_setting            triclinic
loop_
_symmetry_equiv_pos_as_xyz
'x, y, z'
_cell_length_a     48.915842
_cell_length_b     48.703287
_cell_length_c     40.976776
_cell_angle_alpha  90.068631
_cell_angle_beta   89.955231
_cell_angle_gamma 119.8822
loop_
_atom_site_label
_atom_site_type_symbol
_atom_site_fract_x
_atom_site_fract_y
_atom_site_fract_z
_atom_type_partial_charge
Mg0 Mg 0.52851 0.16965 0.34679 0.0
C1 C 0.58845 0.16598 0.35117 0.0
O2 O 0.57221 0.14408 0.37296 0.0
C3 C 0.49935 0.10635 0.31362 0.0
O4 O 0.5118 0.12463 0.28803 0.0
C5 C 0.53209 0.20116 0.28332 0.0
O6 O 0.55287 0.19178 0.27976 0.0
O7 O 0.51717 0.19547 0.31027 0.0
O8 O 0.57575 0.17973 0.33643 0.0
O9 O 0.5315 0.18327 0.39826 0.0
C10 C 0.52738 0.1621 0.41904 0.0
O11 O 0.51742 0.13312 0.4086 0.0
O12 O 0.50067 0.11893 0.34117 0.0
Mg13 Mg 0.36034 0.53563 0.67808 0.0
C14 C 0.37063 0.51499 0.74399 0.0
O15 O 0.39238 0.51293 0.72715 0.0
C16 C 0.33688 0.52958 0.61112 0.0
O17 O 0.36779 0.54581 0.60899 0.0
C18 C 0.42805 0.55396 0.66849 0.0
O19 O 0.43148 0.57828 0.68566 0.0
O20 O 0.40043 0.53215 0.66104 0.0
O21 O 0.3497 0.51806 0.72855 0.0
O22 O 0.37758 0.58521 0.68681 0.0
C23 C 0.36576 0.59155 0.7113 0.0
O24 O 0.34154 0.56842 0.72634 0.0
O25 O 0.32461 0.52006 0.63924 0.0
Mg26 Mg 0.80808 0.38811 1.01491 0.0
C27 C 0.78139 0.43071 0.98957 0.0
O28 O 0.78197 0.42077 0.9599 0.0
C29 C 0.86961 0.4387 0.98643 0.0
O30 O 0.85291 0.45265 0.98149 0.0
C31 C 0.78459 0.35084 0.95329 0.0
O32 O 0.80976 0.37672 0.94328 0.0
O33 O 0.77795 0.34782 0.98361 0.0
O34 O 0.79071 0.42094 1.01343 0.0
O35 O 0.80847 0.38054 0.06755 0.0
C36 C 0.81851 0.40631 0.08352 0.0
O37 O 0.82794 0.43274 0.06723 0.0
O38 O 0.85646 0.41118 0.99891 0.0
Mg39 Mg 0.4338 0.81934 0.33402 0.0
C40 C 0.37382 0.79233 0.29259 0.0
O41 O 0.39265 0.79528 0.26832 0.0
C42 C 0.45015 0.88132 0.30171 0.0
O43 O 0.42976 0.86207 0.28014 0.0
C44 C 0.45897 0.80081 0.27457 0.0
O45 O 0.46476 0.82891 0.26489 0.0
O46 O 0.4486 0.79183 0.30343 0.0
O47 O 0.38526 0.8016 0.3209 0.0
O48 O 0.43111 0.81167 0.38716 0.0
C49 C 0.41119 0.81719 0.40158 0.0
O50 O 0.3952 0.8269 0.38397 0.0
O51 O 0.45788 0.86987 0.32549 0.0
Mg52 Mg 0.59987 0.43157 0.66635 0.0
C53 C 0.59791 0.40717 0.73476 0.0
O54 O 0.5936 0.38239 0.71785 0.0
C55 C 0.65078 0.42182 0.63588 0.0
O56 O 0.63732 0.39665 0.65467 0.0
C57 C 0.58782 0.48673 0.66719 0.0
O58 O 0.60785 0.49588 0.69162 0.0
O59 O 0.58132 0.46155 0.65186 0.0
O60 O 0.60417 0.43249 0.71958 0.0
O61 O 0.56305 0.38403 0.65594 0.0
C62 C 0.53769 0.37289 0.67239 0.0
O63 O 0.53392 0.39156 0.69282 0.0
O64 O 0.64104 0.44162 0.63704 0.0
Mg65 Mg 0.16691 0.62298 1.01133 0.0
C66 C 0.17816 0.57172 0.97729 0.0
O67 O 0.16643 0.57565 0.95005 0.0
C68 C 0.10224 0.57056 1.00669 0.0
O69 O 0.11663 0.55834 1.02318 0.0
C70 C 0.18588 0.65959 0.94957 0.0
O71 O 0.16081 0.63272 0.94152 0.0
O72 O 0.19464 0.66391 0.97935 0.0
O73 O 0.18115 0.58848 1.00222 0.0
O74 O 0.16947 0.62607 0.06497 0.0
C75 C 0.18726 0.61771 0.07945 0.0
O76 O 0.20758 0.61379 0.06198 0.0
O77 O 0.11779 0.59941 0.99811 0.0
Mg78 Mg 0.81644 0.41604 0.39462 0.0
C79 C 0.84024 0.42753 0.3273 0.0
O80 O 0.85581 0.41549 0.34191 0.0
C81 C 0.78997 0.41744 0.45816 0.0
O82 O 0.80408 0.40078 0.46268 0.0
C83 C 0.88353 0.45792 0.41707 0.0
O84 O 0.87704 0.48032 0.40975 0.0
O85 O 0.86231 0.42917 0.41375 0.0
O86 O 0.82228 0.43372 0.34456 0.0
O87 O 0.7915 0.36473 0.39078 0.0
C88 C 0.7803 0.35186 0.36333 0.0
O89 O 0.78248 0.36971 0.33842 0.0
O90 O 0.79116 0.42883 0.4299 0.0
Mg91 Mg 0.36252 0.82154 0.71197 0.0
C92 C 0.39585 0.79588 0.7551 0.0
O93 O 0.38037 0.79999 0.77901 0.0
C94 C 0.40962 0.88617 0.73842 0.0
O95 O 0.41602 0.86914 0.75851 0.0
C96 C 0.32182 0.80777 0.77219 0.0
O97 O 0.34572 0.83565 0.77978 0.0
O98 O 0.32101 0.79662 0.7438 0.0
O99 O 0.39359 0.80429 0.72639 0.0
O100 O 0.35683 0.81201 0.65913 0.0
C101 C 0.38202 0.81686 0.64473 0.0
O102 O 0.40769 0.82656 0.66226 0.0
O103 O 0.3874 0.87233 0.71787 0.0
Mg104 Mg 0.52574 0.3641 0.03889 0.0
C105 C 0.59383 0.41136 0.06211 0.0
O106 O 0.58551 0.39736 0.09069 0.0
C107 C 0.50833 0.40638 0.07423 0.0
O108 O 0.5354 0.41388 0.08797 0.0
C109 C 0.50644 0.32383 0.10008 0.0
O110 O 0.49227 0.34031 0.10534 0.0
O111 O 0.52124 0.32772 0.07333 0.0
O112 O 0.57383 0.40224 0.03915 0.0
O113 O 0.52187 0.35354 0.98669 0.0
C114 C 0.52896 0.37815 0.96976 0.0
O115 O 0.53327 0.40374 0.98506 0.0
O116 O 0.49711 0.38465 0.05275 0.0
Mg117 Mg 0.16489 0.53023 0.37342 0.0
C118 C 0.14218 0.52833 0.30722 0.0
O119 O 0.1276 0.53926 0.32544 0.0
C120 C 0.21801 0.52894 0.41117 0.0
O121 O 0.23496 0.55238 0.39111 0.0
C122 C 0.10178 0.49712 0.40889 0.0
O123 O 0.10861 0.47441 0.41264 0.0
O124 O 0.12103 0.52227 0.39404 0.0
O125 O 0.15763 0.51706 0.32153 0.0
O126 O 0.19299 0.58075 0.3674 0.0
C127 C 0.21112 0.58914 0.34274 0.0
O128 O 0.21506 0.56781 0.3271 0.0
O129 O 0.18815 0.51383 0.40788 0.0
Mg130 Mg 0.59781 0.18555 0.71973 0.0
C131 C 0.53751 0.18629 0.71198 0.0
O132 O 0.53287 0.16401 0.69095 0.0
C133 C 0.56203 0.11664 0.7057 0.0
O134 O 0.56519 0.12861 0.67632 0.0
C135 C 0.63199 0.20813 0.7829 0.0
O136 O 0.60352 0.18678 0.79231 0.0
O137 O 0.63759 0.21284 0.75245 0.0
O138 O 0.56258 0.19891 0.72899 0.0
O139 O 0.60661 0.19254 0.66715 0.0
C140 C 0.60161 0.21221 0.65151 0.0
O141 O 0.59646 0.23237 0.66795 0.0
O142 O 0.57499 0.13526 0.72966 0.0
Mg143 Mg 0.41959 0.60543 0.04024 0.0
C144 C 0.35585 0.5548 1.02018 0.0
O145 O 0.37353 0.54894 1.00051 0.0
C146 C 0.41948 0.54977 0.07224 0.0
O147 O 0.38953 0.54089 0.07579 0.0
C148 C 0.43021 0.64077 0.10254 0.0
O149 O 0.41827 0.61119 0.1119 0.0
O150 O 0.43429 0.64686 0.07208 0.0
O151 O 0.36886 0.57697 0.0411 0.0
O152 O 0.42777 0.61171 0.98738 0.0
C153 C 0.43772 0.59522 0.97283 0.0
O154 O 0.44881 0.58048 0.99051 0.0
O155 O 0.43795 0.57635 0.05913 0.0
H156 H 0.53007 0.12357 0.46558 0.0
H157 H 0.59151 0.25048 0.60992 0.0
H158 H 0.54918 0.21931 0.45104 0.0
H159 H 0.59622 0.16432 0.6119 0.0
H160 H 0.57407 0.23952 0.55295 0.0
H161 H 0.55077 0.13747 0.52079 0.0
C162 C 0.5384 0.14752 0.47404 0.0
C163 C 0.53778 0.17028 0.4535 0.0
C164 C 0.57923 0.22321 0.56579 0.0
C165 C 0.56185 0.18646 0.51713 0.0
C166 C 0.58929 0.22947 0.5983 0.0
C167 C 0.59535 0.20827 0.61584 0.0
C168 C 0.57478 0.19533 0.5508 0.0
C169 C 0.59192 0.1814 0.59945 0.0
C170 C 0.55047 0.1555 0.5056 0.0
C171 C 0.54912 0.20097 0.46599 0.0
N172 N 0.5816 0.17558 0.56804 0.0
N173 N 0.56062 0.20816 0.49704 0.0
H174 H 0.34337 0.54018 0.78431 0.0
H175 H 0.4595 0.56485 0.93372 0.0
H176 H 0.41143 0.50837 0.78425 0.0
H177 H 0.3973 0.60382 0.93274 0.0
H178 H 0.44115 0.54327 0.87926 0.0
H179 H 0.36032 0.56115 0.83958 0.0
C180 C 0.36147 0.53708 0.79605 0.0
C181 C 0.37603 0.52251 0.77942 0.0
C182 C 0.43161 0.55672 0.89078 0.0
C183 C 0.39587 0.54692 0.84262 0.0
C184 C 0.44225 0.56924 0.92189 0.0
C185 C 0.43007 0.58633 0.93791 0.0
C186 C 0.40834 0.56101 0.8754 0.0
C187 C 0.4076 0.59107 0.92128 0.0
C188 C 0.37134 0.54935 0.82754 0.0
C189 C 0.39953 0.51944 0.79596 0.0
N190 N 0.39733 0.57832 0.89104 0.0
N191 N 0.40876 0.53164 0.82645 0.0
H192 H 0.81673 0.45602 0.28687 0.0
H193 H 0.82035 0.36383 0.12669 0.0
H194 H 0.85756 0.39528 0.28551 0.0
H195 H 0.8192 0.45178 0.12256 0.0
H196 H 0.82553 0.36927 0.18642 0.0
H197 H 0.80983 0.44976 0.2274 0.0
C198 C 0.82443 0.44159 0.27408 0.0
C199 C 0.83798 0.4264 0.29118 0.0
C200 C 0.82406 0.38729 0.17232 0.0
C201 C 0.82943 0.41847 0.22348 0.0
C202 C 0.82093 0.38409 0.13834 0.0
C203 C 0.81957 0.40747 0.11965 0.0
C204 C 0.82523 0.41373 0.18765 0.0
C205 C 0.82049 0.43332 0.13599 0.0
C206 C 0.82042 0.43795 0.24021 0.0
C207 C 0.8473 0.40773 0.27336 0.0
N208 N 0.82315 0.43571 0.169 0.0
N209 N 0.84263 0.4041 0.24058 0.0
H210 H 0.44589 0.80773 0.44892 0.0
H211 H 0.33839 0.8086 0.59731 0.0
H212 H 0.36398 0.81817 0.43611 0.0
H213 H 0.42947 0.81623 0.61031 0.0
H214 H 0.3441 0.80566 0.53804 0.0
H215 H 0.43708 0.80448 0.50816 0.0
C216 C 0.42598 0.80915 0.45849 0.0
C217 C 0.40581 0.81346 0.43745 0.0
C218 C 0.36276 0.80785 0.55393 0.0
C219 C 0.39548 0.80966 0.5052 0.0
C220 C 0.35944 0.80942 0.58777 0.0
C221 C 0.38355 0.8129 0.60888 0.0
C222 C 0.39026 0.8095 0.54109 0.0
C223 C 0.41035 0.81383 0.59505 0.0
C224 C 0.42099 0.80737 0.49232 0.0
C225 C 0.38034 0.81512 0.45133 0.0
N226 N 0.41299 0.81221 0.56215 0.0
N227 N 0.37596 0.81326 0.4842 0.0
H228 H 0.53201 0.33362 0.93032 0.0
H229 H 0.59827 0.4514 0.77668 0.0
H230 H 0.54436 0.42776 0.92874 0.0
H231 H 0.57949 0.35493 0.7735 0.0
H232 H 0.58062 0.44346 0.83342 0.0
H233 H 0.55001 0.34067 0.87336 0.0
C234 C 0.53818 0.3556 0.91796 0.0
C235 C 0.53665 0.38011 0.93443 0.0
C236 C 0.58047 0.42403 0.82039 0.0
C237 C 0.55768 0.38853 0.86946 0.0
C238 C 0.59075 0.42864 0.78798 0.0
C239 C 0.59043 0.40384 0.77019 0.0
C240 C 0.56975 0.39439 0.83529 0.0
C241 C 0.58024 0.37479 0.78621 0.0
C242 C 0.54862 0.35969 0.88551 0.0
C243 C 0.54517 0.40818 0.91718 0.0
N244 N 0.57023 0.37084 0.81777 0.0
N245 N 0.55538 0.41163 0.88583 0.0
H246 H 0.18661 0.5298 0.26449 0.0
H247 H 0.141 0.61287 0.12151 0.0
H248 H 0.10853 0.54734 0.26987 0.0
H249 H 0.21984 0.59649 0.11601 0.0
H250 H 0.12877 0.58889 0.17592 0.0
H251 H 0.19814 0.55234 0.20931 0.0
C252 C 0.17152 0.5378 0.25389 0.0
C253 C 0.14652 0.53658 0.27192 0.0
C254 C 0.14885 0.59067 0.16287 0.0
C255 C 0.15996 0.56304 0.20894 0.0
C256 C 0.15598 0.6046 0.13184 0.0
C257 C 0.18153 0.60682 0.11403 0.0
C258 C 0.16733 0.57874 0.17629 0.0
C259 C 0.19991 0.59537 0.12873 0.0
C260 C 0.17831 0.55099 0.22248 0.0
C261 C 0.12808 0.54779 0.25697 0.0
N262 N 0.19241 0.58179 0.15883 0.0
N263 N 0.13524 0.56063 0.22656 0.0
H264 H 0.76302 0.31796 0.30689 0.0
H265 H 0.62902 0.17005 0.39917 0.0
H266 H 0.75641 0.30684 0.41159 0.0
H267 H 0.62584 0.19476 0.29876 0.0
H268 H 0.68566 0.2081 0.4002 0.0
H269 H 0.72401 0.26207 0.30088 0.0
C270 C 0.75369 0.30361 0.32864 0.0
C271 C 0.76204 0.3172 0.35981 0.0
C272 C 0.67273 0.20443 0.37766 0.0
C273 C 0.71731 0.25338 0.35307 0.0
C274 C 0.64048 0.18262 0.37699 0.0
C275 C 0.6228 0.18009 0.34908 0.0
C276 C 0.68705 0.22348 0.35018 0.0
C277 C 0.63866 0.19672 0.32098 0.0
C278 C 0.73155 0.27168 0.32517 0.0
C279 C 0.74999 0.29738 0.38711 0.0
N280 N 0.66985 0.2182 0.32242 0.0
N281 N 0.72758 0.26651 0.38313 0.0
H282 H 0.43554 0.78801 0.71437 0.0
H283 H 0.3543 0.6104 0.76982 0.0
H284 H 0.38277 0.7527 0.80378 0.0
H285 H 0.41032 0.64646 0.68236 0.0
H286 H 0.37518 0.66446 0.78928 0.0
H287 H 0.43931 0.7401 0.71027 0.0
C288 C 0.42553 0.77055 0.73366 0.0
C289 C 0.40784 0.77371 0.75883 0.0
C290 C 0.38323 0.66061 0.766 0.0
C291 C 0.41136 0.71863 0.75387 0.0
C292 C 0.37106 0.62974 0.75471 0.0
C293 C 0.3799 0.62406 0.72398 0.0
C294 C 0.40404 0.686 0.74621 0.0
C295 C 0.40238 0.64989 0.7059 0.0
C296 C 0.42757 0.74311 0.73123 0.0
C297 C 0.396 0.75083 0.78355 0.0
N298 N 0.41329 0.67982 0.71704 0.0
N299 N 0.39718 0.72374 0.77997 0.0
H300 H 0.6457 0.43053 0.10141 0.0
H301 H 0.74218 0.44075 0.94952 0.0
H302 H 0.61836 0.44128 1.00418 0.0
H303 H 0.78121 0.45917 0.0468 0.0
H304 H 0.7026 0.45388 0.96794 0.0
H305 H 0.7001 0.45364 0.08273 0.0
C306 C 0.65123 0.43842 0.07634 0.0
C307 C 0.62731 0.43282 0.05403 0.0
C308 C 0.72035 0.4559 0.98509 0.0
C309 C 0.68929 0.45872 0.03231 0.0
C310 C 0.74299 0.44842 0.9745 0.0
C311 C 0.76414 0.44763 0.99699 0.0
C312 C 0.71871 0.46205 1.01839 0.0
C313 C 0.76453 0.45834 0.02892 0.0
C314 C 0.68235 0.45168 0.06562 0.0
C315 C 0.63594 0.44417 1.02199 0.0
N316 N 0.74154 0.46425 0.03893 0.0
N317 N 0.6661 0.45576 1.01184 0.0
H318 H 0.34155 0.7515 0.24263 0.0
H319 H 0.21589 0.64182 0.37253 0.0
H320 H 0.32812 0.78338 0.33651 0.0
H321 H 0.23831 0.60998 0.28333 0.0
H322 H 0.24426 0.69619 0.35193 0.0
H323 H 0.29029 0.70374 0.24836 0.0
C324 C 0.3274 0.74896 0.26398 0.0
C325 C 0.33963 0.77064 0.28983 0.0
C326 C 0.24254 0.67721 0.33669 0.0
C327 C 0.28155 0.71594 0.29685 0.0
C328 C 0.22658 0.64626 0.34854 0.0
C329 C 0.2258 0.62164 0.33008 0.0
C330 C 0.25776 0.68339 0.30626 0.0
C331 C 0.23932 0.62847 0.29885 0.0
C332 C 0.29819 0.72156 0.26735 0.0
C333 C 0.31999 0.76654 0.31655 0.0
N334 N 0.25514 0.65878 0.28812 0.0
N335 N 0.29223 0.73916 0.31985 0.0
H336 H 0.52656 0.32808 0.62637 0.0
H337 H 0.53024 0.22242 0.75832 0.0
H338 H 0.50584 0.33934 0.7262 0.0
H339 H 0.50321 0.1874 0.66006 0.0
H340 H 0.51234 0.26036 0.74853 0.0
H341 H 0.50877 0.27242 0.63726 0.0
C342 C 0.5173 0.31852 0.6503 0.0
C343 C 0.51822 0.33832 0.67559 0.0
C344 C 0.50937 0.24372 0.72941 0.0
C345 C 0.4988 0.27515 0.68853 0.0
C346 C 0.5197 0.22216 0.73499 0.0
C347 C 0.51885 0.20235 0.70972 0.0
C348 C 0.49909 0.24606 0.69806 0.0
C349 C 0.50466 0.20261 0.68007 0.0
C350 C 0.50708 0.28674 0.65654 0.0
C351 C 0.50578 0.32485 0.70611 0.0
N352 N 0.4962 0.22487 0.67469 0.0
N353 N 0.49749 0.29424 0.71206 0.0
H354 H 0.20767 0.55695 0.92907 0.0
H355 H 0.30991 0.54395 0.06418 0.0
H356 H 0.17941 0.53921 0.03006 0.0
H357 H 0.32484 0.53263 0.96246 0.0
H358 H 0.25599 0.53055 0.05164 0.0
H359 H 0.24341 0.53611 0.93853 0.0
C360 C 0.2082 0.54763 0.9529 0.0
C361 C 0.19151 0.55066 0.97911 0.0
C362 C 0.27072 0.53024 0.03206 0.0
C363 C 0.23233 0.52743 0.99026 0.0
C364 C 0.30153 0.538 0.03929 0.0
C365 C 0.32184 0.54001 1.01421 0.0
C366 C 0.26061 0.52558 0.99936 0.0
C367 C 0.30986 0.53166 0.98242 0.0
C368 C 0.22864 0.53582 0.95837 0.0
C369 C 0.19273 0.5381 1.00947 0.0
N370 N 0.2802 0.52566 0.97568 0.0
N371 N 0.21338 0.52768 1.01442 0.0
H372 H 0.48751 0.06515 0.36392 0.0
H373 H 0.4442 0.91526 0.25179 0.0
H374 H 0.48847 0.07025 0.25868 0.0
H375 H 0.47736 0.92438 0.35101 0.0
H376 H 0.45489 0.97001 0.25403 0.0
H377 H 0.47655 0.01059 0.36009 0.0
C378 C 0.48503 0.05468 0.33999 0.0
C379 C 0.48899 0.0723 0.31155 0.0
C380 C 0.46002 0.96003 0.27518 0.0
C381 C 0.47671 0.00996 0.30706 0.0
C382 C 0.45399 0.92886 0.27392 0.0
C383 C 0.45988 0.91526 0.30127 0.0
C384 C 0.47151 0.97746 0.30415 0.0
C385 C 0.47256 0.93393 0.32931 0.0
C386 C 0.47907 0.02363 0.33784 0.0
C387 C 0.48569 0.05753 0.28121 0.0
N388 N 0.47767 0.96399 0.33013 0.0
N389 N 0.47972 0.02715 0.27974 0.0
H390 H 0.48814 0.58945 0.69188 0.0
H391 H 0.54256 0.4716 0.62058 0.0
H392 H 0.43043 0.50925 0.63006 0.0
H393 H 0.59104 0.53807 0.69857 0.0
H394 H 0.5072 0.49305 0.615 0.0
H395 H 0.53146 0.57841 0.68582 0.0
C396 C 0.4847 0.56977 0.67668 0.0
C397 C 0.45549 0.54995 0.66179 0.0
C398 C 0.52578 0.50317 0.63311 0.0
C399 C 0.50492 0.53727 0.6548 0.0
C400 C 0.54605 0.49098 0.63629 0.0
C401 C 0.56949 0.50272 0.66047 0.0
C402 C 0.52893 0.52727 0.65423 0.0
C403 C 0.57307 0.52807 0.67985 0.0
C404 C 0.50941 0.56345 0.67332 0.0
C405 C 0.45242 0.52489 0.64229 0.0
N406 N 0.55275 0.5393 0.67655 0.0
N407 N 0.47676 0.51912 0.63955 0.0
H408 H 0.91108 0.41728 0.99579 0.0
H409 H 0.06343 0.58889 0.97742 0.0
H410 H 0.90675 0.50035 0.96717 0.0
H411 H 0.06445 0.5073 1.01709 0.0
H412 H 0.00702 0.55563 0.96624 0.0
H413 H 0.96842 0.44864 0.99555 0.0
C414 C 0.92219 0.44206 0.98911 0.0
C415 C 0.9041 0.45634 0.98194 0.0
C416 C 0.01968 0.54503 0.97723 0.0
C417 C 0.96978 0.49245 0.98189 0.0
C418 C 0.05183 0.56398 0.98364 0.0
C419 C 0.06855 0.55089 0.99852 0.0
C420 C 0.00427 0.5128 0.98568 0.0
C421 C 0.05243 0.51846 1.00589 0.0
C422 C 0.95496 0.45998 0.98907 0.0
C423 C 0.91979 0.48846 0.97316 0.0
N424 N 0.02118 0.50059 0.99952 0.0
N425 N 0.95179 0.50555 0.97371 0.0
H426 H 0.05084 0.4434 0.43293 0.0
H427 H 0.93689 0.51636 0.41782 0.0
H428 H 0.08219 0.54069 0.40763 0.0
H429 H 0.90427 0.41722 0.43431 0.0
H430 H -0.00882 0.52752 0.42376 0.0
H431 H -0.00197 0.43527 0.44308 0.0
C432 C 0.04673 0.46314 0.42987 0.0
C433 C 0.07082 0.49262 0.41892 0.0
C434 C 0.97212 0.50337 0.42643 0.0
C435 C 0.01054 0.48349 0.43039 0.0
C436 C 0.94111 0.497 0.42311 0.0
C437 C 0.91605 0.46575 0.42504 0.0
C438 C 0.97806 0.4783 0.43167 0.0
C439 C 0.9229 0.44162 0.43217 0.0
C440 C 0.01657 0.45848 0.43563 0.0
C441 C 0.06421 0.51743 0.4156 0.0
N442 N 0.95328 0.44836 0.43487 0.0
N443 N 0.03463 0.51221 0.421 0.0
H444 H 0.52288 0.07315 0.66133 0.0
H445 H 0.4573 0.92453 0.78029 0.0
H446 H 0.55219 0.08235 0.76205 0.0
H447 H 0.41014 0.9266 0.69204 0.0
H448 H 0.49504 0.98108 0.77332 0.0
H449 H 0.485 0.01754 0.67084 0.0
C450 C 0.52152 0.06343 0.68544 0.0
C451 C 0.5407 0.08245 0.71097 0.0
C452 C 0.47625 0.96912 0.75568 0.0
C453 C 0.49717 0.0187 0.72203 0.0
C454 C 0.45472 0.9369 0.75963 0.0
C455 C 0.43061 0.9208 0.73664 0.0
C456 C 0.47383 0.98511 0.72834 0.0
C457 C 0.42833 0.938 0.71037 0.0
C458 C 0.4997 0.03169 0.69089 0.0
C459 C 0.53779 0.06852 0.74171 0.0
N460 N 0.44984 0.96914 0.7068 0.0
N461 N 0.51641 0.03738 0.7464 0.0
H462 H 0.38453 0.48555 0.07866 0.0
H463 H 0.53368 0.46317 0.10576 0.0
H464 H 0.48017 0.56357 0.08258 0.0
H465 H 0.44858 0.39299 0.05807 0.0
H466 H 0.51048 0.49724 0.1115 0.0
H467 H 0.40444 0.44862 0.08512 0.0
C468 C 0.40967 0.49492 0.08139 0.0
C469 C 0.43082 0.52761 0.07982 0.0
C470 C 0.49683 0.47424 0.10008 0.0
C471 C 0.45352 0.48565 0.08741 0.0
C472 C 0.50995 0.45473 0.09688 0.0
C473 C 0.49312 0.42536 0.08106 0.0
C474 C 0.46655 0.46412 0.08777 0.0
C475 C 0.46246 0.41562 0.0701 0.0
C476 C 0.42095 0.47385 0.08491 0.0
C477 C 0.46313 0.5385 0.08336 0.0
N478 N 0.45014 0.43504 0.07356 0.0
N479 N 0.47353 0.51753 0.08695 0.0
H480 H 0.55809 0.21247 0.22251 0.0
H481 H 0.477 0.31043 0.15961 0.0
H482 H 0.49359 0.22769 0.28138 0.0
H483 H 0.53814 0.29046 0.10054 0.0
H484 H 0.48151 0.27937 0.20393 0.0
H485 H 0.55003 0.2402 0.17754 0.0
C486 C 0.54217 0.22163 0.22605 0.0
C487 C 0.52656 0.21777 0.25594 0.0
C488 C 0.49381 0.28164 0.18123 0.0
C489 C 0.51721 0.24979 0.20409 0.0
C490 C 0.49123 0.29936 0.15584 0.0
C491 C 0.50728 0.30317 0.12623 0.0
C492 C 0.51267 0.26764 0.17714 0.0
C493 C 0.52534 0.28822 0.12286 0.0
C494 C 0.53754 0.23748 0.20021 0.0
C495 C 0.50615 0.23013 0.25883 0.0
N496 N 0.52764 0.27127 0.14802 0.0
N497 N 0.50214 0.24568 0.23326 0.0
H498 H 0.19076 0.49503 0.46744 0.0
H499 H 0.3581 0.54426 0.54867 0.0
H500 H 0.28074 0.55029 0.41986 0.0
H501 H 0.27206 0.5035 0.60487 0.0
H502 H 0.32824 0.5399 0.49976 0.0
H503 H 0.21821 0.49134 0.51607 0.0
C504 C 0.21621 0.50601 0.46701 0.0
C505 C 0.23347 0.52312 0.43948 0.0
C506 C 0.31573 0.53177 0.52268 0.0
C507 C 0.26495 0.51905 0.49506 0.0
C508 C 0.33282 0.53423 0.55079 0.0
C509 C 0.31768 0.52449 0.58117 0.0
C510 C 0.28302 0.51948 0.52459 0.0
C511 C 0.28476 0.51143 0.58204 0.0
C512 C 0.23185 0.50404 0.49486 0.0
C513 C 0.26641 0.53701 0.44047 0.0
N514 N 0.26852 0.50946 0.55418 0.0
N515 N 0.28098 0.53472 0.46771 0.0
H516 H 0.72757 0.29673 0.9638 0.0
H517 H 0.69261 0.25689 0.773 0.0
H518 H 0.79289 0.35106 0.88725 0.0
H519 H 0.62668 0.20333 0.84941 0.0
H520 H 0.73091 0.28979 0.81465 0.0
H521 H 0.69155 0.26031 0.92248 0.0
C522 C 0.73446 0.3009 0.93837 0.0
C523 C 0.76329 0.32711 0.92904 0.0
C524 C 0.7081 0.27074 0.8223 0.0
C525 C 0.72206 0.28556 0.88152 0.0
C526 C 0.68623 0.25192 0.79849 0.0
C527 C 0.65629 0.22736 0.80764 0.0
C528 C 0.70003 0.26503 0.85554 0.0
C529 C 0.6494 0.22206 0.84113 0.0
C530 C 0.71385 0.28012 0.91475 0.0
C531 C 0.7709 0.33127 0.89565 0.0
N532 N 0.671 0.24076 0.86379 0.0
N533 N 0.75041 0.31085 0.87316 0.0
H534 H 0.4536 0.70492 0.09343 0.0
H535 H 0.4432 0.73865 0.2838 0.0
H536 H 0.42401 0.63384 0.16873 0.0
H537 H 0.47528 0.81116 0.20981 0.0
H538 H 0.4388 0.70064 0.24213 0.0
H539 H 0.46397 0.74482 0.13562 0.0
C540 C 0.44938 0.6977 0.11877 0.0
C541 C 0.43778 0.66588 0.12743 0.0
C542 C 0.44703 0.72493 0.23502 0.0
C543 C 0.44959 0.71144 0.17592 0.0
C544 C 0.44966 0.74671 0.25889 0.0
C545 C 0.45956 0.77822 0.25041 0.0
C546 C 0.4542 0.73458 0.20227 0.0
C547 C 0.4675 0.78715 0.21759 0.0
C548 C 0.45532 0.72049 0.14288 0.0
C549 C 0.43282 0.65799 0.16075 0.0
N550 N 0.46446 0.76545 0.19475 0.0
N551 N 0.43863 0.6805 0.18364 0.0
H552 H 0.67379 0.46274 0.58375 0.0
H553 H 0.7811 0.39244 0.51928 0.0
H554 H 0.68168 0.38815 0.63171 0.0
H555 H 0.7579 0.45083 0.45938 0.0
H556 H 0.74998 0.39631 0.56348 0.0
H557 H 0.70968 0.46428 0.54101 0.0
C558 C 0.6833 0.44692 0.5855 0.0
C559 C 0.67459 0.42518 0.61134 0.0
C560 C 0.75168 0.40836 0.54073 0.0
C561 C 0.71561 0.42684 0.5625 0.0
C562 C 0.76955 0.40622 0.51539 0.0
C563 C 0.77203 0.42118 0.48538 0.0
C564 C 0.73613 0.42572 0.53631 0.0
C565 C 0.75654 0.43879 0.48202 0.0
C566 C 0.70365 0.44772 0.56099 0.0
C567 C 0.68757 0.40518 0.61223 0.0
N568 N 0.73918 0.44053 0.50717 0.0
N569 N 0.70735 0.40649 0.5882 0.0
H570 H 0.17506 0.65332 0.8839 0.0
H571 H 0.32259 0.82187 0.83705 0.0
H572 H 0.23854 0.71911 0.95564 0.0
H573 H 0.26986 0.74805 0.76673 0.0
H574 H 0.28858 0.78724 0.88037 0.0
H575 H 0.20609 0.69021 0.84081 0.0
C576 C 0.19546 0.67563 0.8907 0.0
C577 C 0.20419 0.683 0.92361 0.0
C578 C 0.28433 0.77866 0.85546 0.0
C579 C 0.24001 0.72561 0.87394 0.0
C580 C 0.30366 0.79849 0.83059 0.0
C581 C 0.29919 0.7879 0.79804 0.0
C582 C 0.26011 0.74797 0.84787 0.0
C583 C 0.27426 0.75728 0.79138 0.0
C584 C 0.21324 0.69669 0.86594 0.0
C585 C 0.23092 0.71235 0.93067 0.0
N586 N 0.25575 0.73842 0.81605 0.0
N587 N 0.24789 0.73255 0.90606 0.0
loop_
_geom_bond_atom_site_label_1
_geom_bond_atom_site_label_2
_geom_bond_distance
_geom_bond_site_symmetry_2
_ccdc_geom_bond_type
Mg0 O7 2.141 . S
Mg0 O8 2.048 . S
Mg0 O9 2.048 . S
Mg0 O12 2.141 . S
C1 O2 1.313 . S
C1 O8 1.195 . S
O2 C1 1.313 . S
C3 O4 1.245 . S
C3 O12 1.289 . S
O4 C3 1.245 . S
C5 O6 1.245 . S
C5 O7 1.289 . S
O6 C5 1.245 . S
O7 Mg0 2.141 . S
O7 C5 1.289 . S
O8 Mg0 2.048 . S
O8 C1 1.195 . S
O9 Mg0 2.048 . S
O9 C10 1.195 . S
C10 O9 1.195 . S
C10 O11 1.313 . S
O11 C10 1.313 . S
O12 Mg0 2.141 . S
O12 C3 1.289 . S
Mg13 O20 2.141 . S
Mg13 O21 2.048 . S
Mg13 O22 2.048 . S
Mg13 O25 2.141 . S
C14 O15 1.313 . S
C14 O21 1.195 . S
O15 C14 1.313 . S
C16 O17 1.245 . S
C16 O25 1.289 . S
O17 C16 1.245 . S
C18 O19 1.245 . S
C18 O20 1.289 . S
O19 C18 1.245 . S
O20 Mg13 2.141 . S
O20 C18 1.289 . S
O21 Mg13 2.048 . S
O21 C14 1.195 . S
O22 Mg13 2.048 . S
O22 C23 1.195 . S
C23 O22 1.195 . S
C23 O24 1.313 . S
O24 C23 1.313 . S
O25 Mg13 2.141 . S
O25 C16 1.289 . S
Mg26 O33 2.141 1_554 S
Mg26 O34 2.048 . S
Mg26 O35 2.048 . S
Mg26 O38 2.141 1_554 S
C27 O28 1.313 . S
C27 O34 1.195 . S
O28 C27 1.313 . S
C29 O30 1.245 . S
C29 O38 1.289 . S
O30 C29 1.245 . S
C31 O32 1.245 . S
C31 O33 1.289 . S
O32 C31 1.245 . S
O33 Mg26 2.141 1_556 S
O33 C31 1.289 . S
O34 Mg26 2.048 . S
O34 C27 1.195 . S
O35 Mg26 2.048 . S
O35 C36 1.195 . S
C36 O35 1.195 . S
C36 O37 1.313 . S
O37 C36 1.313 . S
O38 Mg26 2.141 1_556 S
O38 C29 1.289 . S
Mg39 O46 2.141 . S
Mg39 O47 2.048 . S
Mg39 O48 2.048 . S
Mg39 O51 2.141 . S
C40 O41 1.313 . S
C40 O47 1.195 . S
O41 C40 1.313 . S
C42 O43 1.245 . S
C42 O51 1.289 . S
O43 C42 1.245 . S
C44 O45 1.245 . S
C44 O46 1.289 . S
O45 C44 1.245 . S
O46 Mg39 2.141 . S
O46 C44 1.289 . S
O47 Mg39 2.048 . S
O47 C40 1.195 . S
O48 Mg39 2.048 . S
O48 C49 1.195 . S
C49 O48 1.195 . S
C49 O50 1.313 . S
O50 C49 1.313 . S
O51 Mg39 2.141 . S
O51 C42 1.289 . S
Mg52 O59 2.141 . S
Mg52 O60 2.048 . S
Mg52 O61 2.048 . S
Mg52 O64 2.141 . S
C53 O54 1.313 . S
C53 O60 1.195 . S
O54 C53 1.313 . S
C55 O56 1.245 . S
C55 O64 1.289 . S
O56 C55 1.245 . S
C57 O58 1.245 . S
C57 O59 1.289 . S
O58 C57 1.245 . S
O59 Mg52 2.141 . S
O59 C57 1.289 . S
O60 Mg52 2.048 . S
O60 C53 1.195 . S
O61 Mg52 2.048 . S
O61 C62 1.195 . S
C62 O61 1.195 . S
C62 O63 1.313 . S
O63 C62 1.313 . S
O64 Mg52 2.141 . S
O64 C55 1.289 . S
Mg65 O72 2.141 1_554 S
Mg65 O73 2.048 . S
Mg65 O74 2.048 . S
Mg65 O77 2.141 1_554 S
C66 O67 1.313 . S
C66 O73 1.195 . S
O67 C66 1.313 . S
C68 O69 1.245 . S
C68 O77 1.289 . S
O69 C68 1.245 . S
C70 O71 1.245 . S
C70 O72 1.289 . S
O71 C70 1.245 . S
O72 Mg65 2.141 1_556 S
O72 C70 1.289 . S
O73 Mg65 2.048 . S
O73 C66 1.195 . S
O74 Mg65 2.048 . S
O74 C75 1.195 . S
C75 O74 1.195 . S
C75 O76 1.313 . S
O76 C75 1.313 . S
O77 Mg65 2.141 1_556 S
O77 C68 1.289 . S
Mg78 O85 2.141 . S
Mg78 O86 2.048 . S
Mg78 O87 2.048 . S
Mg78 O90 2.141 . S
C79 O80 1.313 . S
C79 O86 1.195 . S
O80 C79 1.313 . S
C81 O82 1.245 . S
C81 O90 1.289 . S
O82 C81 1.245 . S
C83 O84 1.245 . S
C83 O85 1.289 . S
O84 C83 1.245 . S
O85 Mg78 2.141 . S
O85 C83 1.289 . S
O86 Mg78 2.048 . S
O86 C79 1.195 . S
O87 Mg78 2.048 . S
O87 C88 1.195 . S
C88 O87 1.195 . S
C88 O89 1.313 . S
O89 C88 1.313 . S
O90 Mg78 2.141 . S
O90 C81 1.289 . S
Mg91 O98 2.141 . S
Mg91 O99 2.048 . S
Mg91 O100 2.048 . S
Mg91 O103 2.141 . S
C92 O93 1.313 . S
C92 O99 1.195 . S
O93 C92 1.313 . S
C94 O95 1.245 . S
C94 O103 1.289 . S
O95 C94 1.245 . S
C96 O97 1.245 . S
C96 O98 1.289 . S
O97 C96 1.245 . S
O98 Mg91 2.141 . S
O98 C96 1.289 . S
O99 Mg91 2.048 . S
O99 C92 1.195 . S
O100 Mg91 2.048 . S
O100 C101 1.195 . S
C101 O100 1.195 . S
C101 O102 1.313 . S
O102 C101 1.313 . S
O103 Mg91 2.141 . S
O103 C94 1.289 . S
Mg104 O111 2.141 1_556 S
Mg104 O112 2.048 . S
Mg104 O113 2.048 . S
Mg104 O116 2.141 1_556 S
C105 O106 1.317 . S
C105 O112 1.195 . S
O106 C105 1.317 . S
C107 O108 1.245 . S
C107 O116 1.289 . S
O108 C107 1.245 . S
C109 O110 1.245 . S
C109 O111 1.289 . S
O110 C109 1.245 . S
O111 Mg104 2.141 1_554 S
O111 C109 1.289 . S
O112 Mg104 2.048 . S
O112 C105 1.195 . S
O113 Mg104 2.048 . S
O113 C114 1.195 . S
C114 O113 1.195 . S
C114 O115 1.313 . S
O115 C114 1.313 . S
O116 Mg104 2.141 1_554 S
O116 C107 1.289 . S
Mg117 O124 2.141 . S
Mg117 O125 2.048 . S
Mg117 O126 2.048 . S
Mg117 O129 2.141 . S
C118 O119 1.313 . S
C118 O125 1.195 . S
O119 C118 1.313 . S
C120 O121 1.245 . S
C120 O129 1.289 . S
O121 C120 1.245 . S
C122 O123 1.245 . S
C122 O124 1.289 . S
O123 C122 1.245 . S
O124 Mg117 2.141 . S
O124 C122 1.289 . S
O125 Mg117 2.048 . S
O125 C118 1.195 . S
O126 Mg117 2.048 . S
O126 C127 1.195 . S
C127 O126 1.195 . S
C127 O128 1.313 . S
O128 C127 1.313 . S
O129 Mg117 2.141 . S
O129 C120 1.289 . S
Mg130 O137 2.141 . S
Mg130 O138 2.048 . S
Mg130 O139 2.048 . S
Mg130 O142 2.141 . S
C131 O132 1.313 . S
C131 O138 1.195 . S
O132 C131 1.313 . S
C133 O134 1.245 . S
C133 O142 1.289 . S
O134 C133 1.245 . S
C135 O136 1.245 . S
C135 O137 1.289 . S
O136 C135 1.245 . S
O137 Mg130 2.141 . S
O137 C135 1.289 . S
O138 Mg130 2.048 . S
O138 C131 1.195 . S
O139 Mg130 2.048 . S
O139 C140 1.195 . S
C140 O139 1.195 . S
C140 O141 1.313 . S
O141 C140 1.313 . S
O142 Mg130 2.141 . S
O142 C133 1.289 . S
Mg143 O150 2.141 1_556 S
Mg143 O151 2.048 . S
Mg143 O152 2.048 . S
Mg143 O155 2.141 1_556 S
C144 O145 1.317 . S
C144 O151 1.195 . S
O145 C144 1.317 . S
C146 O147 1.245 . S
C146 O155 1.289 . S
O147 C146 1.245 . S
C148 O149 1.245 . S
C148 O150 1.289 . S
O149 C148 1.245 . S
O150 Mg143 2.141 1_554 S
O150 C148 1.289 . S
O151 Mg143 2.048 . S
O151 C144 1.195 . S
O152 Mg143 2.048 . S
O152 C153 1.195 . S
C153 O152 1.195 . S
C153 O154 1.313 . S
O154 C153 1.313 . S
O155 Mg143 2.141 1_554 S
O155 C146 1.289 . S
H156 C162 0.930 . S
H157 C166 0.930 . S
H158 C171 0.929 . S
H159 C169 0.929 . S
H160 C164 0.929 . S
H161 C170 0.929 . S
C162 H156 0.930 . S
C162 C163 1.367 . S
C162 C170 1.378 . S
C163 C162 1.367 . S
C163 C171 1.433 . S
C164 H160 0.929 . S
C164 C166 1.378 . S
C164 C168 1.350 . S
C165 C168 1.463 . S
C165 C170 1.350 . S
C165 N173 1.427 . S
C166 H157 0.930 . S
C166 C164 1.378 . S
C166 C167 1.367 . S
C167 C166 1.367 . S
C167 C169 1.433 . S
C168 C164 1.350 . S
C168 C165 1.463 . S
C168 N172 1.427 . S
C169 H159 0.929 . S
C169 C167 1.433 . S
C169 N172 1.384 . S
C170 H161 0.929 . S
C170 C162 1.378 . S
C170 C165 1.350 . S
C171 H158 0.929 . S
C171 C163 1.433 . S
C171 N173 1.384 . S
N172 C168 1.427 . S
N172 C169 1.384 . S
N173 C165 1.427 . S
N173 C171 1.384 . S
H174 C180 0.930 . S
H175 C184 0.930 . S
H176 C189 0.929 . S
H177 C187 0.929 . S
H178 C182 0.929 . S
H179 C188 0.929 . S
C180 H174 0.930 . S
C180 C181 1.367 . S
C180 C188 1.378 . S
C181 C180 1.367 . S
C181 C189 1.433 . S
C182 H178 0.929 . S
C182 C184 1.378 . S
C182 C186 1.350 . S
C183 C186 1.463 . S
C183 C188 1.350 . S
C183 N191 1.427 . S
C184 H175 0.930 . S
C184 C182 1.378 . S
C184 C185 1.367 . S
C185 C184 1.367 . S
C185 C187 1.433 . S
C186 C182 1.350 . S
C186 C183 1.463 . S
C186 N190 1.427 . S
C187 H177 0.929 . S
C187 C185 1.433 . S
C187 N190 1.384 . S
C188 H179 0.929 . S
C188 C180 1.378 . S
C188 C183 1.350 . S
C189 H176 0.929 . S
C189 C181 1.433 . S
C189 N191 1.384 . S
N190 C186 1.427 . S
N190 C187 1.384 . S
N191 C183 1.427 . S
N191 C189 1.384 . S
H192 C198 0.930 . S
H193 C202 0.930 . S
H194 C207 0.929 . S
H195 C205 0.929 . S
H196 C200 0.929 . S
H197 C206 0.929 . S
C198 H192 0.930 . S
C198 C199 1.367 . S
C198 C206 1.378 . S
C199 C198 1.367 . S
C199 C207 1.433 . S
C200 H196 0.929 . S
C200 C202 1.378 . S
C200 C204 1.350 . S
C201 C204 1.463 . S
C201 C206 1.350 . S
C201 N209 1.427 . S
C202 H193 0.930 . S
C202 C200 1.378 . S
C202 C203 1.367 . S
C203 C202 1.367 . S
C203 C205 1.433 . S
C204 C200 1.350 . S
C204 C201 1.463 . S
C204 N208 1.427 . S
C205 H195 0.929 . S
C205 C203 1.433 . S
C205 N208 1.384 . S
C206 H197 0.929 . S
C206 C198 1.378 . S
C206 C201 1.350 . S
C207 H194 0.929 . S
C207 C199 1.433 . S
C207 N209 1.384 . S
N208 C204 1.427 . S
N208 C205 1.384 . S
N209 C201 1.427 . S
N209 C207 1.384 . S
H210 C216 0.930 . S
H211 C220 0.930 . S
H212 C225 0.929 . S
H213 C223 0.929 . S
H214 C218 0.929 . S
H215 C224 0.929 . S
C216 H210 0.930 . S
C216 C217 1.367 . S
C216 C224 1.378 . S
C217 C216 1.367 . S
C217 C225 1.433 . S
C218 H214 0.929 . S
C218 C220 1.378 . S
C218 C222 1.350 . S
C219 C222 1.463 . S
C219 C224 1.350 . S
C219 N227 1.427 . S
C220 H211 0.930 . S
C220 C218 1.378 . S
C220 C221 1.367 . S
C221 C220 1.367 . S
C221 C223 1.433 . S
C222 C218 1.350 . S
C222 C219 1.463 . S
C222 N226 1.427 . S
C223 H213 0.929 . S
C223 C221 1.433 . S
C223 N226 1.384 . S
C224 H215 0.929 . S
C224 C216 1.378 . S
C224 C219 1.350 . S
C225 H212 0.929 . S
C225 C217 1.433 . S
C225 N227 1.384 . S
N226 C222 1.427 . S
N226 C223 1.384 . S
N227 C219 1.427 . S
N227 C225 1.384 . S
H228 C234 0.930 . S
H229 C238 0.930 . S
H230 C243 0.929 . S
H231 C241 0.929 . S
H232 C236 0.929 . S
H233 C242 0.929 . S
C234 H228 0.930 . S
C234 C235 1.367 . S
C234 C242 1.378 . S
C235 C234 1.367 . S
C235 C243 1.433 . S
C236 H232 0.929 . S
C236 C238 1.378 . S
C236 C240 1.350 . S
C237 C240 1.463 . S
C237 C242 1.350 . S
C237 N245 1.427 . S
C238 H229 0.930 . S
C238 C236 1.378 . S
C238 C239 1.367 . S
C239 C238 1.367 . S
C239 C241 1.433 . S
C240 C236 1.350 . S
C240 C237 1.463 . S
C240 N244 1.427 . S
C241 H231 0.929 . S
C241 C239 1.433 . S
C241 N244 1.384 . S
C242 H233 0.929 . S
C242 C234 1.378 . S
C242 C237 1.350 . S
C243 H230 0.929 . S
C243 C235 1.433 . S
C243 N245 1.384 . S
N244 C240 1.427 . S
N244 C241 1.384 . S
N245 C237 1.427 . S
N245 C243 1.384 . S
H246 C252 0.930 . S
H247 C256 0.930 . S
H248 C261 0.929 . S
H249 C259 0.929 . S
H250 C254 0.929 . S
H251 C260 0.929 . S
C252 H246 0.930 . S
C252 C253 1.367 . S
C252 C260 1.378 . S
C253 C252 1.367 . S
C253 C261 1.433 . S
C254 H250 0.929 . S
C254 C256 1.378 . S
C254 C258 1.350 . S
C255 C258 1.463 . S
C255 C260 1.350 . S
C255 N263 1.427 . S
C256 H247 0.930 . S
C256 C254 1.378 . S
C256 C257 1.367 . S
C257 C256 1.367 . S
C257 C259 1.433 . S
C258 C254 1.350 . S
C258 C255 1.463 . S
C258 N262 1.427 . S
C259 H249 0.929 . S
C259 C257 1.433 . S
C259 N262 1.384 . S
C260 H251 0.929 . S
C260 C252 1.378 . S
C260 C255 1.350 . S
C261 H248 0.929 . S
C261 C253 1.433 . S
C261 N263 1.384 . S
N262 C258 1.427 . S
N262 C259 1.384 . S
N263 C255 1.427 . S
N263 C261 1.384 . S
H264 C270 0.930 . S
H265 C274 0.930 . S
H266 C279 0.929 . S
H267 C277 0.929 . S
H268 C272 0.929 . S
H269 C278 0.929 . S
C270 H264 0.930 . S
C270 C271 1.367 . S
C270 C278 1.378 . S
C271 C270 1.367 . S
C271 C279 1.433 . S
C272 H268 0.929 . S
C272 C274 1.378 . S
C272 C276 1.350 . S
C273 C276 1.463 . S
C273 C278 1.350 . S
C273 N281 1.427 . S
C274 H265 0.930 . S
C274 C272 1.378 . S
C274 C275 1.367 . S
C275 C274 1.367 . S
C275 C277 1.433 . S
C276 C272 1.350 . S
C276 C273 1.463 . S
C276 N280 1.427 . S
C277 H267 0.929 . S
C277 C275 1.433 . S
C277 N280 1.384 . S
C278 H269 0.929 . S
C278 C270 1.378 . S
C278 C273 1.350 . S
C279 H266 0.929 . S
C279 C271 1.433 . S
C279 N281 1.384 . S
N280 C276 1.427 . S
N280 C277 1.384 . S
N281 C273 1.427 . S
N281 C279 1.384 . S
H282 C288 0.930 . S
H283 C292 0.930 . S
H284 C297 0.929 . S
H285 C295 0.929 . S
H286 C290 0.929 . S
H287 C296 0.929 . S
C288 H282 0.930 . S
C288 C289 1.367 . S
C288 C296 1.378 . S
C289 C288 1.367 . S
C289 C297 1.433 . S
C290 H286 0.929 . S
C290 C292 1.378 . S
C290 C294 1.350 . S
C291 C294 1.463 . S
C291 C296 1.350 . S
C291 N299 1.427 . S
C292 H283 0.930 . S
C292 C290 1.378 . S
C292 C293 1.367 . S
C293 C292 1.367 . S
C293 C295 1.433 . S
C294 C290 1.350 . S
C294 C291 1.463 . S
C294 N298 1.427 . S
C295 H285 0.929 . S
C295 C293 1.433 . S
C295 N298 1.384 . S
C296 H287 0.929 . S
C296 C288 1.378 . S
C296 C291 1.350 . S
C297 H284 0.929 . S
C297 C289 1.433 . S
C297 N299 1.384 . S
N298 C294 1.427 . S
N298 C295 1.384 . S
N299 C291 1.427 . S
N299 C297 1.384 . S
H300 C306 0.930 . S
H301 C310 0.930 . S
H302 C315 0.929 . S
H303 C313 0.929 . S
H304 C308 0.929 . S
H305 C314 0.929 . S
C306 H300 0.930 . S
C306 C307 1.367 1_554 S
C306 C314 1.378 . S
C307 C306 1.367 1_556 S
C307 C315 1.433 . S
C308 H304 0.929 . S
C308 C310 1.378 . S
C308 C312 1.350 1_556 S
C309 C312 1.462 1_556 S
C309 C314 1.350 1_556 S
C309 N317 1.428 . S
C310 H301 0.930 . S
C310 C308 1.378 . S
C310 C311 1.367 1_556 S
C311 C310 1.367 1_554 S
C311 C313 1.433 . S
C312 C308 1.350 1_554 S
C312 C309 1.462 1_554 S
C312 N316 1.427 . S
C313 H303 0.929 . S
C313 C311 1.433 . S
C313 N316 1.384 . S
C314 H305 0.929 . S
C314 C306 1.378 . S
C314 C309 1.350 1_554 S
C315 H302 0.929 . S
C315 C307 1.433 . S
C315 N317 1.384 . S
N316 C312 1.427 . S
N316 C313 1.384 . S
N317 C309 1.428 . S
N317 C315 1.384 . S
H318 C324 0.930 . S
H319 C328 0.930 . S
H320 C333 0.929 . S
H321 C331 0.929 . S
H322 C326 0.929 . S
H323 C332 0.929 . S
C324 H318 0.930 . S
C324 C325 1.367 . S
C324 C332 1.378 . S
C325 C324 1.367 . S
C325 C333 1.433 . S
C326 H322 0.929 . S
C326 C328 1.378 . S
C326 C330 1.350 . S
C327 C330 1.463 . S
C327 C332 1.350 . S
C327 N335 1.427 . S
C328 H319 0.930 . S
C328 C326 1.378 . S
C328 C329 1.367 . S
C329 C328 1.367 . S
C329 C331 1.433 . S
C330 C326 1.350 . S
C330 C327 1.463 . S
C330 N334 1.427 . S
C331 H321 0.929 . S
C331 C329 1.433 . S
C331 N334 1.384 . S
C332 H323 0.929 . S
C332 C324 1.378 . S
C332 C327 1.350 . S
C333 H320 0.929 . S
C333 C325 1.433 . S
C333 N335 1.384 . S
N334 C330 1.427 . S
N334 C331 1.384 . S
N335 C327 1.427 . S
N335 C333 1.384 . S
H336 C342 0.930 . S
H337 C346 0.930 . S
H338 C351 0.929 . S
H339 C349 0.929 . S
H340 C344 0.929 . S
H341 C350 0.929 . S
C342 H336 0.930 . S
C342 C343 1.367 . S
C342 C350 1.378 . S
C343 C342 1.367 . S
C343 C351 1.433 . S
C344 H340 0.929 . S
C344 C346 1.378 . S
C344 C348 1.350 . S
C345 C348 1.463 . S
C345 C350 1.350 . S
C345 N353 1.427 . S
C346 H337 0.930 . S
C346 C344 1.378 . S
C346 C347 1.367 . S
C347 C346 1.367 . S
C347 C349 1.433 . S
C348 C344 1.350 . S
C348 C345 1.463 . S
C348 N352 1.427 . S
C349 H339 0.929 . S
C349 C347 1.433 . S
C349 N352 1.384 . S
C350 H341 0.929 . S
C350 C342 1.378 . S
C350 C345 1.350 . S
C351 H338 0.929 . S
C351 C343 1.433 . S
C351 N353 1.384 . S
N352 C348 1.427 . S
N352 C349 1.384 . S
N353 C345 1.427 . S
N353 C351 1.384 . S
H354 C360 0.930 . S
H355 C364 0.930 . S
H356 C369 0.929 . S
H357 C367 0.929 . S
H358 C362 0.929 . S
H359 C368 0.929 . S
C360 H354 0.930 . S
C360 C361 1.367 . S
C360 C368 1.378 . S
C361 C360 1.367 . S
C361 C369 1.433 1_554 S
C362 H358 0.929 . S
C362 C364 1.378 . S
C362 C366 1.350 . S
C363 C366 1.463 1_554 S
C363 C368 1.350 . S
C363 N371 1.427 1_554 S
C364 H355 0.930 . S
C364 C362 1.378 . S
C364 C365 1.367 . S
C365 C364 1.367 . S
C365 C367 1.433 1_556 S
C366 C362 1.350 . S
C366 C363 1.463 1_556 S
C366 N370 1.427 1_556 S
C367 H357 0.929 . S
C367 C365 1.433 1_554 S
C367 N370 1.384 . S
C368 H359 0.929 . S
C368 C360 1.378 . S
C368 C363 1.350 . S
C369 H356 0.929 . S
C369 C361 1.433 1_556 S
C369 N371 1.384 . S
N370 C366 1.427 1_554 S
N370 C367 1.384 . S
N371 C363 1.427 1_556 S
N371 C369 1.384 . S
H372 C378 0.930 . S
H373 C382 0.930 . S
H374 C387 0.929 . S
H375 C385 0.929 . S
H376 C380 0.929 . S
H377 C386 0.929 . S
C378 H372 0.930 . S
C378 C379 1.367 . S
C378 C386 1.378 . S
C379 C378 1.367 . S
C379 C387 1.433 . S
C380 H376 0.929 . S
C380 C382 1.378 . S
C380 C384 1.350 . S
C381 C384 1.463 1_545 S
C381 C386 1.350 . S
C381 N389 1.427 . S
C382 H373 0.930 . S
C382 C380 1.378 . S
C382 C383 1.367 . S
C383 C382 1.367 . S
C383 C385 1.433 . S
C384 C380 1.350 . S
C384 C381 1.463 1_565 S
C384 N388 1.427 . S
C385 H375 0.929 . S
C385 C383 1.433 . S
C385 N388 1.384 . S
C386 H377 0.929 . S
C386 C378 1.378 . S
C386 C381 1.350 . S
C387 H374 0.929 . S
C387 C379 1.433 . S
C387 N389 1.384 . S
N388 C384 1.427 . S
N388 C385 1.384 . S
N389 C381 1.427 . S
N389 C387 1.384 . S
H390 C396 0.930 . S
H391 C400 0.930 . S
H392 C405 0.929 . S
H393 C403 0.929 . S
H394 C398 0.929 . S
H395 C404 0.929 . S
C396 H390 0.930 . S
C396 C397 1.367 . S
C396 C404 1.378 . S
C397 C396 1.367 . S
C397 C405 1.433 . S
C398 H394 0.929 . S
C398 C400 1.378 . S
C398 C402 1.350 . S
C399 C402 1.463 . S
C399 C404 1.350 . S
C399 N407 1.427 . S
C400 H391 0.930 . S
C400 C398 1.378 . S
C400 C401 1.367 . S
C401 C400 1.367 . S
C401 C403 1.433 . S
C402 C398 1.350 . S
C402 C399 1.463 . S
C402 N406 1.427 . S
C403 H393 0.929 . S
C403 C401 1.433 . S
C403 N406 1.384 . S
C404 H395 0.929 . S
C404 C396 1.378 . S
C404 C399 1.350 . S
C405 H392 0.929 . S
C405 C397 1.433 . S
C405 N407 1.384 . S
N406 C402 1.427 . S
N406 C403 1.384 . S
N407 C399 1.427 . S
N407 C405 1.384 . S
H408 C414 0.930 . S
H409 C418 0.930 . S
H410 C423 0.929 . S
H411 C421 0.929 . S
H412 C416 0.929 1_655 S
H413 C422 0.929 1_455 S
C414 H408 0.930 . S
C414 C415 1.367 1_554 S
C414 C422 1.378 . S
C415 C414 1.367 1_556 S
C415 C423 1.433 . S
C416 H412 0.929 1_455 S
C416 C418 1.378 . S
C416 C420 1.350 . S
C417 C420 1.463 1_655 S
C417 C422 1.350 1_556 S
C417 N425 1.427 . S
C418 H409 0.930 . S
C418 C416 1.378 . S
C418 C419 1.367 . S
C419 C418 1.367 . S
C419 C421 1.433 1_556 S
C420 C416 1.350 . S
C420 C417 1.463 1_455 S
C420 N424 1.427 1_556 S
C421 H411 0.929 . S
C421 C419 1.433 1_554 S
C421 N424 1.384 . S
C422 H413 0.929 1_655 S
C422 C414 1.378 . S
C422 C417 1.350 1_554 S
C423 H410 0.929 . S
C423 C415 1.433 . S
C423 N425 1.384 . S
N424 C420 1.427 1_554 S
N424 C421 1.384 . S
N425 C417 1.427 . S
N425 C423 1.384 . S
H426 C432 0.930 . S
H427 C436 0.930 . S
H428 C441 0.929 . S
H429 C439 0.929 . S
H430 C434 0.929 . S
H431 C440 0.929 . S
C432 H426 0.930 . S
C432 C433 1.367 . S
C432 C440 1.378 . S
C433 C432 1.367 . S
C433 C441 1.433 . S
C434 H430 0.929 . S
C434 C436 1.378 . S
C434 C438 1.350 . S
C435 C438 1.463 1_455 S
C435 C440 1.350 . S
C435 N443 1.427 . S
C436 H427 0.930 . S
C436 C434 1.378 . S
C436 C437 1.367 . S
C437 C436 1.367 . S
C437 C439 1.433 . S
C438 C434 1.350 . S
C438 C435 1.463 1_655 S
C438 N442 1.427 . S
C439 H429 0.929 . S
C439 C437 1.433 . S
C439 N442 1.384 . S
C440 H431 0.929 . S
C440 C432 1.378 . S
C440 C435 1.350 . S
C441 H428 0.929 . S
C441 C433 1.433 . S
C441 N443 1.384 . S
N442 C438 1.427 . S
N442 C439 1.384 . S
N443 C435 1.427 . S
N443 C441 1.384 . S
H444 C450 0.930 . S
H445 C454 0.930 . S
H446 C459 0.929 . S
H447 C457 0.929 . S
H448 C452 0.929 . S
H449 C458 0.929 . S
C450 H444 0.930 . S
C450 C451 1.367 . S
C450 C458 1.378 . S
C451 C450 1.367 . S
C451 C459 1.433 . S
C452 H448 0.929 . S
C452 C454 1.378 . S
C452 C456 1.350 . S
C453 C456 1.463 1_545 S
C453 C458 1.350 . S
C453 N461 1.427 . S
C454 H445 0.930 . S
C454 C452 1.378 . S
C454 C455 1.367 . S
C455 C454 1.367 . S
C455 C457 1.433 . S
C456 C452 1.350 . S
C456 C453 1.463 1_565 S
C456 N460 1.427 . S
C457 H447 0.929 . S
C457 C455 1.433 . S
C457 N460 1.384 . S
C458 H449 0.929 . S
C458 C450 1.378 . S
C458 C453 1.350 . S
C459 H446 0.929 . S
C459 C451 1.433 . S
C459 N461 1.384 . S
N460 C456 1.427 . S
N460 C457 1.384 . S
N461 C453 1.427 . S
N461 C459 1.384 . S
H462 C468 0.930 . S
H463 C472 0.930 . S
H464 C477 0.929 . S
H465 C475 0.929 . S
H466 C470 0.929 . S
H467 C476 0.929 . S
C468 H462 0.930 . S
C468 C469 1.367 . S
C468 C476 1.378 . S
C469 C468 1.367 . S
C469 C477 1.433 1_554 S
C470 H466 0.929 . S
C470 C472 1.378 . S
C470 C474 1.350 1_556 S
C471 C474 1.463 . S
C471 C476 1.350 . S
C471 N479 1.427 1_554 S
C472 H463 0.930 . S
C472 C470 1.378 . S
C472 C473 1.367 1_556 S
C473 C472 1.367 1_554 S
C473 C475 1.433 . S
C474 C470 1.350 1_554 S
C474 C471 1.463 . S
C474 N478 1.427 . S
C475 H465 0.929 . S
C475 C473 1.433 . S
C475 N478 1.384 . S
C476 H467 0.929 . S
C476 C468 1.378 . S
C476 C471 1.350 . S
C477 H464 0.929 . S
C477 C469 1.433 1_556 S
C477 N479 1.384 . S
N478 C474 1.427 . S
N478 C475 1.384 . S
N479 C471 1.427 1_556 S
N479 C477 1.384 . S
H480 C486 0.930 . S
H481 C490 0.930 . S
H482 C495 0.929 . S
H483 C493 0.929 . S
H484 C488 0.929 . S
H485 C494 0.929 . S
C486 H480 0.930 . S
C486 C487 1.367 . S
C486 C494 1.378 . S
C487 C486 1.367 . S
C487 C495 1.433 . S
C488 H484 0.929 . S
C488 C490 1.378 . S
C488 C492 1.350 . S
C489 C492 1.463 . S
C489 C494 1.350 . S
C489 N497 1.427 . S
C490 H481 0.930 . S
C490 C488 1.378 . S
C490 C491 1.367 . S
C491 C490 1.367 . S
C491 C493 1.433 . S
C492 C488 1.350 . S
C492 C489 1.463 . S
C492 N496 1.427 . S
C493 H483 0.929 . S
C493 C491 1.433 . S
C493 N496 1.384 . S
C494 H485 0.929 . S
C494 C486 1.378 . S
C494 C489 1.350 . S
C495 H482 0.929 . S
C495 C487 1.433 . S
C495 N497 1.384 . S
N496 C492 1.427 . S
N496 C493 1.384 . S
N497 C489 1.427 . S
N497 C495 1.384 . S
H498 C504 0.930 . S
H499 C508 0.930 . S
H500 C513 0.929 . S
H501 C511 0.929 . S
H502 C506 0.929 . S
H503 C512 0.929 . S
C504 H498 0.930 . S
C504 C505 1.367 . S
C504 C512 1.378 . S
C505 C504 1.367 . S
C505 C513 1.433 . S
C506 H502 0.929 . S
C506 C508 1.378 . S
C506 C510 1.350 . S
C507 C510 1.463 . S
C507 C512 1.350 . S
C507 N515 1.427 . S
C508 H499 0.930 . S
C508 C506 1.378 . S
C508 C509 1.367 . S
C509 C508 1.367 . S
C509 C511 1.433 . S
C510 C506 1.350 . S
C510 C507 1.463 . S
C510 N514 1.427 . S
C511 H501 0.929 . S
C511 C509 1.433 . S
C511 N514 1.384 . S
C512 H503 0.929 . S
C512 C504 1.378 . S
C512 C507 1.350 . S
C513 H500 0.929 . S
C513 C505 1.433 . S
C513 N515 1.384 . S
N514 C510 1.427 . S
N514 C511 1.384 . S
N515 C507 1.427 . S
N515 C513 1.384 . S
H516 C522 0.930 . S
H517 C526 0.930 . S
H518 C531 0.929 . S
H519 C529 0.929 . S
H520 C524 0.929 . S
H521 C530 0.929 . S
C522 H516 0.930 . S
C522 C523 1.367 . S
C522 C530 1.378 . S
C523 C522 1.367 . S
C523 C531 1.433 . S
C524 H520 0.929 . S
C524 C526 1.378 . S
C524 C528 1.350 . S
C525 C528 1.463 . S
C525 C530 1.350 . S
C525 N533 1.427 . S
C526 H517 0.930 . S
C526 C524 1.378 . S
C526 C527 1.367 . S
C527 C526 1.367 . S
C527 C529 1.433 . S
C528 C524 1.350 . S
C528 C525 1.463 . S
C528 N532 1.427 . S
C529 H519 0.929 . S
C529 C527 1.433 . S
C529 N532 1.384 . S
C530 H521 0.929 . S
C530 C522 1.378 . S
C530 C525 1.350 . S
C531 H518 0.929 . S
C531 C523 1.433 . S
C531 N533 1.384 . S
N532 C528 1.427 . S
N532 C529 1.384 . S
N533 C525 1.427 . S
N533 C531 1.384 . S
H534 C540 0.930 . S
H535 C544 0.930 . S
H536 C549 0.929 . S
H537 C547 0.929 . S
H538 C542 0.929 . S
H539 C548 0.929 . S
C540 H534 0.930 . S
C540 C541 1.367 . S
C540 C548 1.378 . S
C541 C540 1.367 . S
C541 C549 1.433 . S
C542 H538 0.929 . S
C542 C544 1.378 . S
C542 C546 1.350 . S
C543 C546 1.463 . S
C543 C548 1.350 . S
C543 N551 1.427 . S
C544 H535 0.930 . S
C544 C542 1.378 . S
C544 C545 1.367 . S
C545 C544 1.367 . S
C545 C547 1.433 . S
C546 C542 1.350 . S
C546 C543 1.463 . S
C546 N550 1.427 . S
C547 H537 0.929 . S
C547 C545 1.433 . S
C547 N550 1.384 . S
C548 H539 0.929 . S
C548 C540 1.378 . S
C548 C543 1.350 . S
C549 H536 0.929 . S
C549 C541 1.433 . S
C549 N551 1.384 . S
N550 C546 1.427 . S
N550 C547 1.384 . S
N551 C543 1.427 . S
N551 C549 1.384 . S
H552 C558 0.930 . S
H553 C562 0.930 . S
H554 C567 0.929 . S
H555 C565 0.929 . S
H556 C560 0.929 . S
H557 C566 0.929 . S
C558 H552 0.930 . S
C558 C559 1.367 . S
C558 C566 1.378 . S
C559 C558 1.367 . S
C559 C567 1.433 . S
C560 H556 0.929 . S
C560 C562 1.378 . S
C560 C564 1.350 . S
C561 C564 1.463 . S
C561 C566 1.350 . S
C561 N569 1.427 . S
C562 H553 0.930 . S
C562 C560 1.378 . S
C562 C563 1.367 . S
C563 C562 1.367 . S
C563 C565 1.433 . S
C564 C560 1.350 . S
C564 C561 1.463 . S
C564 N568 1.427 . S
C565 H555 0.929 . S
C565 C563 1.433 . S
C565 N568 1.384 . S
C566 H557 0.929 . S
C566 C558 1.378 . S
C566 C561 1.350 . S
C567 H554 0.929 . S
C567 C559 1.433 . S
C567 N569 1.384 . S
N568 C564 1.427 . S
N568 C565 1.384 . S
N569 C561 1.427 . S
N569 C567 1.384 . S
H570 C576 0.930 . S
H571 C580 0.930 . S
H572 C585 0.929 . S
H573 C583 0.929 . S
H574 C578 0.929 . S
H575 C584 0.929 . S
C576 H570 0.930 . S
C576 C577 1.367 . S
C576 C584 1.378 . S
C577 C576 1.367 . S
C577 C585 1.433 . S
C578 H574 0.929 . S
C578 C580 1.378 . S
C578 C582 1.350 . S
C579 C582 1.463 . S
C579 C584 1.350 . S
C579 N587 1.427 . S
C580 H571 0.930 . S
C580 C578 1.378 . S
C580 C581 1.367 . S
C581 C580 1.367 . S
C581 C583 1.433 . S
C582 C578 1.350 . S
C582 C579 1.463 . S
C582 N586 1.427 . S
C583 H573 0.929 . S
C583 C581 1.433 . S
C583 N586 1.384 . S
C584 H575 0.929 . S
C584 C576 1.378 . S
C584 C579 1.350 . S
C585 H572 0.929 . S
C585 C577 1.433 . S
C585 N587 1.384 . S
N586 C582 1.427 . S
N586 C583 1.384 . S
N587 C579 1.427 . S
N587 C585 1.384 . S
C163 C10 1.644 . S
C167 C140 1.640 . S
C181 C14 1.663 . S
C185 C153 1.640 . S
C199 C79 1.666 . S
C203 C36 1.641 . S
C217 C49 1.645 . S
C221 C101 1.648 . S
C235 C114 1.640 . S
C239 C53 1.664 . S
C253 C118 1.661 . S
C257 C75 1.644 . S
C271 C88 0.998 . S
C275 C1 0.969 . S
C289 C92 0.963 . S
C293 C23 1.000 . S
C307 C105 0.975 . S
C311 C27 0.954 . S
C325 C40 0.966 . S
C329 C127 0.995 . S
C343 C62 0.991 . S
C347 C131 0.978 . S
C361 C66 0.977 . S
C365 C144 0.959 . S
C379 C3 2.218 . S
C383 C42 2.217 . S
C397 C18 2.396 . S
C401 C57 2.398 . S
C415 C29 2.226 . S
C419 C68 2.225 . S
C433 C122 2.398 . S
C437 C83 2.396 . S
C451 C133 2.218 . S
C455 C94 2.217 . S
C469 C146 2.216 . S
C473 C107 2.217 . S
C487 C5 1.803 . S
C491 C109 1.796 . S
C505 C120 1.791 . S
C509 C16 1.791 . S
C523 C31 1.796 . S
C527 C135 1.797 . S
C541 C148 1.802 . S
C545 C44 1.794 . S
C559 C55 1.791 . S
C563 C81 1.791 . S
C577 C70 1.803 . S
C581 C96 1.797 . S
