# Generated by pormake.
# Topology dia, (4)-cn, num edge types: 1
# Building blocks:
#     Node 0, Type 0, BuildingBlock: QUQFOY_clean_sbu_3, # of connection points: 4
#     Node 1, Type 0, BuildingBlock: QUQFOY_clean_sbu_3, # of connection points: 4
#     Node 2, Type 0, BuildingBlock: QUQFOY_clean_sbu_3, # of connection points: 4
#     Node 3, Type 0, BuildingBlock: QUQFOY_clean_sbu_3, # of connection points: 4
#     Node 4, Type 0, BuildingBlock: QUQFOY_clean_sbu_3, # of connection points: 4
#     Node 5, Type 0, BuildingBlock: QUQFOY_clean_sbu_3, # of connection points: 4
#     Node 6, Type 0, BuildingBlock: QUQFOY_clean_sbu_3, # of connection points: 4
#     Node 7, Type 0, BuildingBlock: QUQFOY_clean_sbu_3, # of connection points: 4
#     Edge 8, Type (0, 0), BuildingBlock: CIFDUS_clean_linker_0, # of connection points: 2
#     Edge 9, Type (0, 0), BuildingBlock: CIFDUS_clean_linker_0, # of connection points: 2
#     Edge 10, Type (0, 0), BuildingBlock: CIFDUS_clean_linker_0, # of connection points: 2
#     Edge 11, Type (0, 0), BuildingBlock: CIFDUS_clean_linker_0, # of connection points: 2
#     Edge 12, Type (0, 0), BuildingBlock: CIFDUS_clean_linker_0, # of connection points: 2
#     Edge 13, Type (0, 0), BuildingBlock: CIFDUS_clean_linker_0, # of connection points: 2
#     Edge 14, Type (0, 0), BuildingBlock: CIFDUS_clean_linker_0, # of connection points: 2
#     Edge 15, Type (0, 0), BuildingBlock: CIFDUS_clean_linker_0, # of connection points: 2
#     Edge 16, Type (0, 0), BuildingBlock: CIFDUS_clean_linker_0, # of connection points: 2
#     Edge 17, Type (0, 0), BuildingBlock: CIFDUS_clean_linker_0, # of connection points: 2
#     Edge 18, Type (0, 0), BuildingBlock: CIFDUS_clean_linker_0, # of connection points: 2
#     Edge 19, Type (0, 0), BuildingBlock: CIFDUS_clean_linker_0, # of connection points: 2
#     Edge 20, Type (0, 0), BuildingBlock: CIFDUS_clean_linker_0, # of connection points: 2
#     Edge 21, Type (0, 0), BuildingBlock: CIFDUS_clean_linker_0, # of connection points: 2
#     Edge 22, Type (0, 0), BuildingBlock: CIFDUS_clean_linker_0, # of connection points: 2
#     Edge 23, Type (0, 0), BuildingBlock: CIFDUS_clean_linker_0, # of connection points: 2
# Relax obj value: 0.120
# Max RMSD: 0.163
# Mean RMSD: 0.163
data_MOF--net-dia--node1-QUQFOY_clean_sbu_3--edge1-CIFDUS_clean_linker_0
_symmetry_space_group_name_H-M    P1
_symmetry_Int_Tables_number       1
_symmetry_cell_setting            triclinic
loop_
_symmetry_equiv_pos_as_xyz
'x, y, z'
_cell_length_a     30.184617
_cell_length_b     30.656375
_cell_length_c     35.187659
_cell_angle_alpha  88.839172
_cell_angle_beta   89.489374
_cell_angle_gamma 92.181571
loop_
_atom_site_label
_atom_site_type_symbol
_atom_site_fract_x
_atom_site_fract_y
_atom_site_fract_z
_atom_type_partial_charge
C0 C 0.04184 0.15833 0.64398 0.0
O1 O 0.02154 0.15774 0.61246 0.0
Cd2 Cd 0.04078 0.11212 0.55998 0.0
O3 O 0.07613 0.13598 0.64902 0.0
Cd4 Cd 0.12485 0.08584 0.61565 0.0
C5 C 0.14574 0.15367 0.53851 0.0
O6 O 0.0618 0.04654 0.591 0.0
O7 O 0.12424 0.01926 0.57684 0.0
O8 O 0.13539 0.0623 0.68109 0.0
C9 C 0.08247 0.01781 0.57356 0.0
O10 O 0.10585 0.14606 0.5283 0.0
C11 C 0.17621 0.05473 0.67729 0.0
O12 O 0.15995 0.13896 0.57014 0.0
O13 O 0.19359 0.06201 0.64464 0.0
C14 C 0.80665 0.42985 0.82816 0.0
O15 O 0.80572 0.44897 0.85989 0.0
Cd16 Cd 0.85264 0.43113 0.91296 0.0
O17 O 0.83151 0.39771 0.82323 0.0
Cd18 Cd 0.88531 0.35202 0.85685 0.0
C19 C 0.81695 0.32484 0.93255 0.0
O20 O 0.92114 0.4157 0.88323 0.0
O21 O 0.95199 0.35561 0.89755 0.0
O22 O 0.90962 0.34507 0.79107 0.0
C23 C 0.95103 0.39656 0.90133 0.0
O24 O 0.8224 0.3641 0.94328 0.0
C25 C 0.92103 0.30581 0.79462 0.0
O26 O 0.83262 0.31258 0.90085 0.0
O27 O 0.91566 0.28765 0.82721 0.0
C28 C 0.53883 0.17476 0.14169 0.0
O29 O 0.52056 0.17608 0.10927 0.0
Cd30 Cd 0.53729 0.1285 0.05807 0.0
O31 O 0.57044 0.14923 0.14828 0.0
Cd32 Cd 0.61601 0.09433 0.11676 0.0
C33 C 0.64669 0.15938 0.04 0.0
O34 O 0.54923 0.06275 0.0923 0.0
O35 O 0.60698 0.02795 0.07744 0.0
O36 O 0.62227 0.07093 0.18291 0.0
C37 C 0.5654 0.03132 0.07502 0.0
O38 O 0.60684 0.15513 0.02864 0.0
C39 C 0.66057 0.05569 0.17958 0.0
O40 O 0.65829 0.14408 0.07227 0.0
O41 O 0.67897 0.05925 0.14699 0.0
C42 C 0.79965 0.92477 0.33299 0.0
O43 O 0.79559 0.94273 0.36504 0.0
Cd44 Cd 0.83751 0.92866 0.42126 0.0
O45 O 0.82615 0.89372 0.32855 0.0
Cd46 Cd 0.8781 0.85065 0.3679 0.0
C47 C 0.80391 0.82212 0.43925 0.0
O48 O 0.90793 0.91645 0.39448 0.0
O49 O 0.93943 0.85902 0.41466 0.0
O50 O 0.91617 0.83892 0.30761 0.0
C51 C 0.93662 0.90009 0.41573 0.0
O52 O 0.80738 0.86123 0.45068 0.0
C53 C 0.92376 0.79907 0.31449 0.0
O54 O 0.82255 0.81079 0.40851 0.0
O55 O 0.90957 0.78302 0.34606 0.0
C56 C 0.03776 0.6824 0.1404 0.0
O57 O 0.0247 0.68687 0.10633 0.0
Cd58 Cd 0.04052 0.64148 0.05366 0.0
O59 O 0.06496 0.65311 0.14956 0.0
Cd60 Cd 0.10805 0.59835 0.11432 0.0
C61 C 0.14954 0.67046 0.04592 0.0
O62 O 0.04214 0.57109 0.08301 0.0
O63 O 0.10108 0.53899 0.06701 0.0
O64 O 0.11882 0.56099 0.17626 0.0
C65 C 0.05962 0.5421 0.06355 0.0
O66 O 0.11252 0.66757 0.02898 0.0
C67 C 0.1584 0.55096 0.16872 0.0
O68 O 0.1548 0.65218 0.0783 0.0
O69 O 0.17411 0.56347 0.13659 0.0
C70 C 0.28974 0.43821 0.33784 0.0
O71 O 0.29359 0.45313 0.37116 0.0
Cd72 Cd 0.34693 0.43133 0.41778 0.0
O73 O 0.31358 0.40728 0.32679 0.0
Cd74 Cd 0.37092 0.35875 0.35283 0.0
C75 C 0.31065 0.32491 0.43167 0.0
O76 O 0.4116 0.41806 0.38167 0.0
O77 O 0.44024 0.35552 0.38975 0.0
O78 O 0.39467 0.35524 0.28631 0.0
C79 C 0.44191 0.39597 0.39625 0.0
O80 O 0.31906 0.36239 0.44541 0.0
C81 C 0.40461 0.31539 0.28844 0.0
O82 O 0.32173 0.31615 0.39764 0.0
O83 O 0.39718 0.29541 0.31995 0.0
C84 C 0.33063 0.93575 0.82642 0.0
O85 O 0.32498 0.94959 0.85989 0.0
Cd86 Cd 0.36174 0.92456 0.91624 0.0
O87 O 0.35564 0.904 0.82022 0.0
Cd88 Cd 0.40023 0.85214 0.85704 0.0
C89 C 0.31903 0.81975 0.92165 0.0
O90 O 0.43334 0.90851 0.89353 0.0
O91 O 0.45495 0.84431 0.90884 0.0
O92 O 0.45687 0.84437 0.80794 0.0
C93 C 0.45721 0.8851 0.91433 0.0
O94 O 0.32348 0.85685 0.93708 0.0
C95 C 0.44481 0.80549 0.80021 0.0
O96 O 0.34024 0.81113 0.89141 0.0
O97 O 0.41212 0.78842 0.81881 0.0
C98 C 0.52489 0.65825 0.63148 0.0
O99 O 0.50555 0.65388 0.59977 0.0
Cd100 Cd 0.52687 0.60766 0.55006 0.0
O101 O 0.55929 0.63705 0.63973 0.0
Cd102 Cd 0.6068 0.58044 0.61172 0.0
C103 C 0.63527 0.64614 0.53529 0.0
O104 O 0.54174 0.54621 0.58831 0.0
O105 O 0.5996 0.51403 0.57045 0.0
O106 O 0.61473 0.55926 0.67865 0.0
C107 C 0.55776 0.51597 0.56959 0.0
O108 O 0.59612 0.63946 0.52285 0.0
C109 C 0.65392 0.54613 0.67521 0.0
O110 O 0.64678 0.6313 0.56771 0.0
O111 O 0.67147 0.54928 0.64227 0.0
H112 H 0.24902 0.26372 0.41008 0.0
H113 H 0.31864 0.31275 0.50777 0.0
H114 H 0.27603 0.26165 0.54937 0.0
H115 H 0.2161 0.20583 0.55844 0.0
H116 H 0.14181 0.16151 0.46149 0.0
H117 H 0.18895 0.20774 0.4192 0.0
C118 C 0.25511 0.26274 0.44042 0.0
C119 C 0.2869 0.29171 0.4559 0.0
C120 C 0.22941 0.23434 0.46433 0.0
C121 C 0.29415 0.29074 0.4953 0.0
C122 C 0.26983 0.26158 0.51908 0.0
C123 C 0.21054 0.20605 0.52802 0.0
C124 C 0.17562 0.18034 0.5131 0.0
C125 C 0.23693 0.23366 0.504 0.0
C126 C 0.16839 0.18128 0.47367 0.0
C127 C 0.19535 0.20762 0.44946 0.0
H128 H 0.72287 0.49202 0.6734 0.0
H129 H 0.63775 0.5584 0.7505 0.0
H130 H 0.67724 0.52821 0.80482 0.0
H131 H 0.73659 0.48345 0.83036 0.0
H132 H 0.81891 0.41401 0.75295 0.0
H133 H 0.77969 0.44458 0.69894 0.0
C134 C 0.71308 0.49995 0.70211 0.0
C135 C 0.67773 0.52765 0.70796 0.0
C136 C 0.7353 0.48176 0.73317 0.0
C137 C 0.66492 0.53715 0.74529 0.0
C138 C 0.68749 0.51993 0.77635 0.0
C139 C 0.74585 0.47492 0.80167 0.0
C140 C 0.78076 0.44661 0.79577 0.0
C141 C 0.72279 0.49223 0.77063 0.0
C142 C 0.79207 0.43559 0.75839 0.0
C143 C 0.76979 0.4532 0.72742 0.0
H144 H 0.58575 0.95509 0.04155 0.0
H145 H 0.48486 0.05097 0.04768 0.0
H146 H 0.44243 0.01341 -0.00104 0.0
H147 H 0.43548 0.95584 0.95265 0.0
H148 H 0.53296 0.85691 0.94754 0.0
H149 H 0.57533 0.893 -0.00191 0.0
C150 C 0.55436 0.96748 0.0323 0.0
C151 C 0.53868 0.00593 0.04786 0.0
C152 C 0.5297 0.94537 0.00447 0.0
C153 C 0.4977 0.02147 0.03608 0.0
C154 C 0.47344 0.00012 0.00814 0.0
C155 C 0.46598 0.94212 0.96266 0.0
C156 C 0.48159 0.90429 0.94625 0.0
C157 C 0.48943 0.96249 -0.00817 0.0
C158 C 0.52056 0.88621 0.95986 0.0
C159 C 0.54474 0.90687 -0.0114 0.0
H160 H 0.94399 0.82004 0.24098 0.0
H161 H 0.95786 0.71871 0.32647 0.0
H162 H -0.0026 0.67484 0.28091 0.0
H163 H 0.0259 0.66424 0.21596 0.0
H164 H 0.00783 0.76415 0.12995 0.0
H165 H 0.9725 0.80971 0.17656 0.0
C166 C 0.9558 0.78843 0.2497 0.0
C167 C 0.94797 0.77266 0.28702 0.0
C168 C 0.97787 0.76313 0.22324 0.0
C169 C 0.96329 0.73152 0.29782 0.0
C170 C 0.986 0.70645 0.27182 0.0
C171 C 0.01465 0.6962 0.20761 0.0
C172 C 0.01955 0.71086 0.16963 0.0
C173 C -0.00674 0.72181 0.23436 0.0
C174 C 0.0043 0.75208 0.15902 0.0
C175 C 0.98407 0.77815 0.18563 0.0
H176 H 0.25832 -0.01455 0.82987 0.0
H177 H 0.35123 0.93245 0.75083 0.0
H178 H 0.31298 0.96659 0.69773 0.0
H179 H 0.25215 0.01031 0.67367 0.0
H180 H 0.15684 0.05937 0.75264 0.0
H181 H 0.19719 0.02818 0.8059 0.0
C182 C 0.27034 -0.01847 0.80104 0.0
C183 C 0.30761 0.95657 0.79432 0.0
C184 C 0.24777 0.00056 0.77065 0.0
C185 C 0.32249 0.9514 0.75676 0.0
C186 C 0.30071 0.97098 0.72639 0.0
C187 C 0.24046 0.0144 0.70258 0.0
C188 C 0.20175 0.03721 0.7093 0.0
C189 C 0.26322 -0.0045 0.73299 0.0
C190 C 0.18657 0.04185 0.7468 0.0
C191 C 0.2096 0.02405 0.77724 0.0
H192 H 0.93184 0.47079 0.93679 0.0
H193 H 0.0301 0.37262 0.9308 0.0
H194 H 0.07324 0.40938 0.98031 0.0
H195 H 0.08218 0.46923 0.02596 0.0
H196 H 0.9805 0.56397 0.03415 0.0
H197 H 0.93936 0.52858 0.98331 0.0
C198 C 0.96287 0.45762 0.94612 0.0
C199 C 0.97806 0.41936 0.93002 0.0
C200 C 0.98666 0.47814 0.97519 0.0
C201 C 0.01789 0.40219 0.94279 0.0
C202 C 0.04248 0.42313 0.97109 0.0
C203 C 0.051 0.48201 0.01657 0.0
C204 C 0.03445 0.51916 0.03371 0.0
C205 C 0.02705 0.46105 -0.01237 0.0
C206 C -0.00614 0.53527 0.02153 0.0
C207 C 0.97037 0.51519 -0.00765 0.0
H208 H 0.46129 0.24958 0.29282 0.0
H209 H 0.3974 0.33426 0.21269 0.0
H210 H 0.43446 0.29909 0.15988 0.0
H211 H 0.48409 0.24328 0.1367 0.0
H212 H 0.55117 0.1618 0.21765 0.0
H213 H 0.51434 0.19723 0.26997 0.0
C214 C 0.45532 0.26012 0.26375 0.0
C215 C 0.42623 0.29392 0.25649 0.0
C216 C 0.47763 0.24064 0.23377 0.0
C217 C 0.41949 0.30805 0.21885 0.0
C218 C 0.44071 0.28803 0.18872 0.0
C219 C 0.49088 0.2335 0.1658 0.0
C220 C 0.52017 0.19977 0.17319 0.0
C221 C 0.4698 0.25422 0.19586 0.0
C222 C 0.52892 0.18776 0.21109 0.0
C223 C 0.50765 0.2078 0.24108 0.0
H224 H 0.75065 0.75562 0.41422 0.0
H225 H 0.7983 0.81663 0.51614 0.0
H226 H 0.75307 0.76493 0.55517 0.0
H227 H 0.69731 0.70451 0.56023 0.0
H228 H 0.64364 0.64854 0.45828 0.0
H229 H 0.69383 0.6958 0.41929 0.0
C230 C 0.75131 0.75722 0.44498 0.0
C231 C 0.77777 0.78962 0.46238 0.0
C232 C 0.72403 0.72838 0.46717 0.0
C233 C 0.77798 0.79196 0.5022 0.0
C234 C 0.75221 0.76242 0.52451 0.0
C235 C 0.69703 0.70243 0.52949 0.0
C236 C 0.66719 0.67303 0.51207 0.0
C237 C 0.72475 0.73079 0.5073 0.0
C238 C 0.66642 0.67106 0.47223 0.0
C239 C 0.69507 0.69803 0.44996 0.0
H240 H 0.1473 0.54169 0.24547 0.0
H241 H 0.23011 0.50379 0.15213 0.0
H242 H 0.27619 0.46312 0.19589 0.0
H243 H 0.29468 0.44034 0.26084 0.0
H244 H 0.21553 0.48242 0.35496 0.0
H245 H 0.16629 0.51919 0.31088 0.0
C246 C 0.17529 0.5243 0.23477 0.0
C247 C 0.18526 0.52571 0.19565 0.0
C248 C 0.20237 0.50176 0.26025 0.0
C249 C 0.22187 0.50338 0.18217 0.0
C250 C 0.24821 0.48004 0.20715 0.0
C251 C 0.2664 0.4572 0.27167 0.0
C252 C 0.25865 0.45848 0.31107 0.0
C253 C 0.23899 0.47926 0.24627 0.0
C254 C 0.22225 0.48103 0.32472 0.0
C255 C 0.19408 0.50206 0.29954 0.0
H256 H 0.76063 0.25847 0.91176 0.0
H257 H 0.81636 0.32177 0.00965 0.0
H258 H 0.77172 0.27314 0.05194 0.0
H259 H 0.7134 0.2154 0.06109 0.0
H260 H 0.6521 0.15751 0.96308 0.0
H261 H 0.70227 0.20076 0.92091 0.0
C262 C 0.76326 0.26118 0.94236 0.0
C263 C 0.79173 0.29347 0.95762 0.0
C264 C 0.73631 0.23415 0.96648 0.0
C265 C 0.79446 0.29721 -0.00271 0.0
C266 C 0.769 0.26941 0.02148 0.0
C267 C 0.71152 0.21196 0.03052 0.0
C268 C 0.67937 0.18329 0.01514 0.0
C269 C 0.73933 0.23816 0.00641 0.0
C270 C 0.67662 0.17954 0.97549 0.0
C271 C 0.70526 0.20423 0.95138 0.0
H272 H 0.73088 0.97923 0.33422 0.0
H273 H 0.81488 0.91086 0.25743 0.0
H274 H 0.77988 0.94605 0.20308 0.0
H275 H 0.72694 -0.00182 0.17746 0.0
H276 H 0.64147 0.06423 0.25461 0.0
H277 H 0.67586 0.02827 0.30875 0.0
C278 C 0.74143 0.9718 0.30561 0.0
C279 C 0.77563 0.94262 0.29997 0.0
C280 C 0.72119 -0.00793 0.27455 0.0
C281 C 0.78855 0.9331 0.26264 0.0
C282 C 0.76874 0.9534 0.23152 0.0
C283 C 0.71603 0.00478 0.20615 0.0
C284 C 0.68204 0.03411 0.21208 0.0
C285 C 0.73538 -0.01666 0.23716 0.0
C286 C 0.66768 0.04186 0.24934 0.0
C287 C 0.68727 0.02129 0.2803 0.0
H288 H 0.01141 0.88126 0.45453 0.0
H289 H 0.91216 0.97815 0.442 0.0
H290 H 0.94724 0.02161 0.49132 0.0
H291 H 0.00613 0.03268 0.53748 0.0
H292 H 0.10927 0.93971 0.54737 0.0
H293 H 0.07259 0.8939 0.49976 0.0
C294 C -0.00241 0.91189 0.46269 0.0
C295 C 0.95926 0.92643 0.44479 0.0
C296 C 0.01848 0.93728 0.49062 0.0
C297 C 0.94178 0.96634 0.45527 0.0
C298 C 0.96169 -0.00883 0.48356 0.0
C299 C 0.0204 0.00222 0.52942 0.0
C300 C 0.06 -0.01074 0.54603 0.0
C301 C -2e-05 0.97697 0.50139 0.0
C302 C 0.07864 0.95017 0.53491 0.0
C303 C 0.05774 0.92407 0.50773 0.0
H304 H 0.97601 0.23798 0.79761 0.0
H305 H 0.90915 0.32246 0.71921 0.0
H306 H 0.94048 0.28431 0.66545 0.0
H307 H 0.98659 0.22651 0.64076 0.0
H308 H 0.05718 0.14526 0.7194 0.0
H309 H 0.02503 0.18275 0.77293 0.0
C310 C 0.96822 0.24787 0.76873 0.0
C311 C 0.94006 0.28264 0.76232 0.0
C312 C 0.9872 0.22653 0.738 0.0
C313 C 0.93076 0.29569 0.72481 0.0
C314 C 0.94863 0.27391 0.69408 0.0
C315 C -0.00502 0.21711 0.66962 0.0
C316 C 0.02408 0.18304 0.67605 0.0
C317 C 0.97688 0.23925 0.70033 0.0
C318 C 0.03501 0.17151 0.71361 0.0
C319 C 0.01649 0.19279 0.74429 0.0
H320 H 0.56568 0.71151 0.68246 0.0
H321 H 0.4373 0.66369 0.64534 0.0
H322 H 0.40122 0.70387 0.69531 0.0
H323 H 0.40608 0.75182 0.75001 0.0
H324 H 0.5331 0.80631 0.78358 0.0
H325 H 0.57004 0.76446 0.73462 0.0
C326 C 0.52984 0.71014 0.6854 0.0
C327 C 0.50409 0.6847 0.66056 0.0
C328 C 0.5092 0.73437 0.71353 0.0
C329 C 0.45768 0.68336 0.66413 0.0
C330 C 0.43705 0.70613 0.69274 0.0
C331 C 0.44185 0.75437 0.74654 0.0
C332 C 0.46706 0.78143 0.77037 0.0
C333 C 0.46247 0.73155 0.71767 0.0
C334 C 0.51323 0.78542 0.76538 0.0
C335 C 0.53427 0.76152 0.73752 0.0
H336 H 0.16893 0.68104 0.97087 0.0
H337 H 0.21205 0.71987 0.08214 0.0
H338 H 0.2689 0.76941 0.05339 0.0
H339 H 0.30387 0.80417 -0.00348 0.0
H340 H 0.26492 0.76136 0.88533 0.0
H341 H 0.20896 0.71058 0.91404 0.0
C342 C 0.19099 0.70022 -0.01127 0.0
C343 C 0.18616 0.69728 0.02847 0.0
C344 C 0.22415 0.72789 0.97203 0.0
C345 C 0.21528 0.72165 0.05145 0.0
C346 C 0.24761 0.75007 0.03505 0.0
C347 C 0.28321 0.78352 0.97867 0.0
C348 C 0.28796 0.78669 0.93896 0.0
C349 C 0.25195 0.75385 -0.00462 0.0
C350 C 0.2617 0.75936 0.91601 0.0
C351 C 0.22967 0.73051 0.93239 0.0
H352 H 0.4209 0.4572 0.44588 0.0
H353 H 0.52602 0.37345 0.4144 0.0
H354 H 0.57196 0.40243 0.46611 0.0
H355 H 0.58173 0.45261 0.5202 0.0
H356 H 0.47216 0.53072 0.55338 0.0
H357 H 0.42821 0.50228 0.50152 0.0
C358 C 0.45397 0.44547 0.45019 0.0
C359 C 0.47048 0.4139 0.42621 0.0
C360 C 0.47917 0.46094 0.48055 0.0
C361 C 0.51293 0.39815 0.43252 0.0
C362 C 0.53904 0.41457 0.46208 0.0
C363 C 0.54814 0.46303 0.51619 0.0
C364 C 0.53055 0.4941 0.54041 0.0
C365 C 0.52243 0.44602 0.48636 0.0
C366 C 0.48676 0.50703 0.5351 0.0
C367 C 0.46151 0.49095 0.50531 0.0
loop_
_geom_bond_atom_site_label_1
_geom_bond_atom_site_label_2
_geom_bond_distance
_geom_bond_site_symmetry_2
_ccdc_geom_bond_type
C0 O1 1.306 . S
C0 O3 1.160 . S
O1 C0 1.306 . S
O1 Cd2 2.228 . S
Cd2 O1 2.228 . S
Cd2 O6 2.273 . S
Cd2 O10 2.277 . S
O3 C0 1.160 . S
O3 Cd4 2.203 . S
Cd4 O3 2.203 . S
Cd4 O6 2.411 . S
Cd4 O7 2.333 . S
Cd4 O8 2.352 . S
Cd4 O12 2.277 . S
Cd4 O13 2.356 . S
C5 O10 1.209 . S
C5 O12 1.226 . S
O6 Cd2 2.273 . S
O6 Cd4 2.411 . S
O6 C9 1.320 . S
O7 Cd4 2.333 . S
O7 C9 1.214 . S
O8 Cd4 2.352 . S
O8 C11 1.258 . S
C9 O6 1.320 . S
C9 O7 1.214 . S
O10 Cd2 2.277 . S
O10 C5 1.209 . S
C11 O8 1.258 . S
C11 O13 1.282 . S
O12 Cd4 2.277 . S
O12 C5 1.226 . S
O13 Cd4 2.356 . S
O13 C11 1.282 . S
C14 O15 1.306 . S
C14 O17 1.160 . S
O15 C14 1.306 . S
O15 Cd16 2.228 . S
Cd16 O15 2.228 . S
Cd16 O20 2.273 . S
Cd16 O24 2.277 . S
O17 C14 1.160 . S
O17 Cd18 2.203 . S
Cd18 O17 2.203 . S
Cd18 O20 2.411 . S
Cd18 O21 2.333 . S
Cd18 O22 2.352 . S
Cd18 O26 2.277 . S
Cd18 O27 2.356 . S
C19 O24 1.209 . S
C19 O26 1.226 . S
O20 Cd16 2.273 . S
O20 Cd18 2.411 . S
O20 C23 1.320 . S
O21 Cd18 2.333 . S
O21 C23 1.214 . S
O22 Cd18 2.352 . S
O22 C25 1.258 . S
C23 O20 1.320 . S
C23 O21 1.214 . S
O24 Cd16 2.277 . S
O24 C19 1.209 . S
C25 O22 1.258 . S
C25 O27 1.282 . S
O26 Cd18 2.277 . S
O26 C19 1.226 . S
O27 Cd18 2.356 . S
O27 C25 1.282 . S
C28 O29 1.306 . S
C28 O31 1.160 . S
O29 C28 1.306 . S
O29 Cd30 2.228 . S
Cd30 O29 2.228 . S
Cd30 O34 2.273 . S
Cd30 O38 2.277 . S
O31 C28 1.160 . S
O31 Cd32 2.203 . S
Cd32 O31 2.203 . S
Cd32 O34 2.411 . S
Cd32 O35 2.333 . S
Cd32 O36 2.352 . S
Cd32 O40 2.277 . S
Cd32 O41 2.356 . S
C33 O38 1.209 . S
C33 O40 1.226 . S
O34 Cd30 2.273 . S
O34 Cd32 2.411 . S
O34 C37 1.320 . S
O35 Cd32 2.333 . S
O35 C37 1.214 . S
O36 Cd32 2.352 . S
O36 C39 1.258 . S
C37 O34 1.320 . S
C37 O35 1.214 . S
O38 Cd30 2.277 . S
O38 C33 1.209 . S
C39 O36 1.258 . S
C39 O41 1.282 . S
O40 Cd32 2.277 . S
O40 C33 1.226 . S
O41 Cd32 2.356 . S
O41 C39 1.282 . S
C42 O43 1.306 . S
C42 O45 1.160 . S
O43 C42 1.306 . S
O43 Cd44 2.228 . S
Cd44 O43 2.228 . S
Cd44 O48 2.273 . S
Cd44 O52 2.277 . S
O45 C42 1.160 . S
O45 Cd46 2.203 . S
Cd46 O45 2.203 . S
Cd46 O48 2.411 . S
Cd46 O49 2.333 . S
Cd46 O50 2.352 . S
Cd46 O54 2.277 . S
Cd46 O55 2.356 . S
C47 O52 1.209 . S
C47 O54 1.226 . S
O48 Cd44 2.273 . S
O48 Cd46 2.411 . S
O48 C51 1.320 . S
O49 Cd46 2.333 . S
O49 C51 1.214 . S
O50 Cd46 2.352 . S
O50 C53 1.258 . S
C51 O48 1.320 . S
C51 O49 1.214 . S
O52 Cd44 2.277 . S
O52 C47 1.209 . S
C53 O50 1.258 . S
C53 O55 1.282 . S
O54 Cd46 2.277 . S
O54 C47 1.226 . S
O55 Cd46 2.356 . S
O55 C53 1.282 . S
C56 O57 1.306 . S
C56 O59 1.160 . S
O57 C56 1.306 . S
O57 Cd58 2.228 . S
Cd58 O57 2.228 . S
Cd58 O62 2.273 . S
Cd58 O66 2.277 . S
O59 C56 1.160 . S
O59 Cd60 2.203 . S
Cd60 O59 2.203 . S
Cd60 O62 2.411 . S
Cd60 O63 2.333 . S
Cd60 O64 2.352 . S
Cd60 O68 2.277 . S
Cd60 O69 2.356 . S
C61 O66 1.209 . S
C61 O68 1.226 . S
O62 Cd58 2.273 . S
O62 Cd60 2.411 . S
O62 C65 1.320 . S
O63 Cd60 2.333 . S
O63 C65 1.214 . S
O64 Cd60 2.352 . S
O64 C67 1.258 . S
C65 O62 1.320 . S
C65 O63 1.214 . S
O66 Cd58 2.277 . S
O66 C61 1.209 . S
C67 O64 1.258 . S
C67 O69 1.282 . S
O68 Cd60 2.277 . S
O68 C61 1.226 . S
O69 Cd60 2.356 . S
O69 C67 1.282 . S
C70 O71 1.306 . S
C70 O73 1.160 . S
O71 C70 1.306 . S
O71 Cd72 2.228 . S
Cd72 O71 2.228 . S
Cd72 O76 2.273 . S
Cd72 O80 2.277 . S
O73 C70 1.160 . S
O73 Cd74 2.203 . S
Cd74 O73 2.203 . S
Cd74 O76 2.411 . S
Cd74 O77 2.333 . S
Cd74 O78 2.352 . S
Cd74 O82 2.277 . S
Cd74 O83 2.356 . S
C75 O80 1.209 . S
C75 O82 1.226 . S
O76 Cd72 2.273 . S
O76 Cd74 2.411 . S
O76 C79 1.320 . S
O77 Cd74 2.333 . S
O77 C79 1.214 . S
O78 Cd74 2.352 . S
O78 C81 1.258 . S
C79 O76 1.320 . S
C79 O77 1.214 . S
O80 Cd72 2.277 . S
O80 C75 1.209 . S
C81 O78 1.258 . S
C81 O83 1.282 . S
O82 Cd74 2.277 . S
O82 C75 1.226 . S
O83 Cd74 2.356 . S
O83 C81 1.282 . S
C84 O85 1.306 . S
C84 O87 1.160 . S
O85 C84 1.306 . S
O85 Cd86 2.228 . S
Cd86 O85 2.228 . S
Cd86 O90 2.273 . S
Cd86 O94 2.277 . S
O87 C84 1.160 . S
O87 Cd88 2.203 . S
Cd88 O87 2.203 . S
Cd88 O90 2.411 . S
Cd88 O91 2.333 . S
Cd88 O92 2.352 . S
Cd88 O96 2.277 . S
Cd88 O97 2.356 . S
C89 O94 1.209 . S
C89 O96 1.226 . S
O90 Cd86 2.273 . S
O90 Cd88 2.411 . S
O90 C93 1.320 . S
O91 Cd88 2.333 . S
O91 C93 1.214 . S
O92 Cd88 2.352 . S
O92 C95 1.258 . S
C93 O90 1.320 . S
C93 O91 1.214 . S
O94 Cd86 2.277 . S
O94 C89 1.209 . S
C95 O92 1.258 . S
C95 O97 1.282 . S
O96 Cd88 2.277 . S
O96 C89 1.226 . S
O97 Cd88 2.356 . S
O97 C95 1.282 . S
C98 O99 1.306 . S
C98 O101 1.160 . S
O99 C98 1.306 . S
O99 Cd100 2.228 . S
Cd100 O99 2.228 . S
Cd100 O104 2.273 . S
Cd100 O108 2.277 . S
O101 C98 1.160 . S
O101 Cd102 2.203 . S
Cd102 O101 2.203 . S
Cd102 O104 2.411 . S
Cd102 O105 2.333 . S
Cd102 O106 2.352 . S
Cd102 O110 2.277 . S
Cd102 O111 2.356 . S
C103 O108 1.209 . S
C103 O110 1.226 . S
O104 Cd100 2.273 . S
O104 Cd102 2.411 . S
O104 C107 1.320 . S
O105 Cd102 2.333 . S
O105 C107 1.214 . S
O106 Cd102 2.352 . S
O106 C109 1.258 . S
C107 O104 1.320 . S
C107 O105 1.214 . S
O108 Cd100 2.277 . S
O108 C103 1.209 . S
C109 O106 1.258 . S
C109 O111 1.282 . S
O110 Cd102 2.277 . S
O110 C103 1.226 . S
O111 Cd102 2.356 . S
O111 C109 1.282 . S
H112 C118 0.930 . S
H113 C121 0.930 . S
H114 C122 0.930 . S
H115 C123 0.930 . S
H116 C126 0.930 . S
H117 C127 0.930 . S
C118 H112 0.930 . S
C118 C119 1.355 . S
C118 C120 1.415 . S
C119 C118 1.355 . S
C119 C121 1.419 . S
C120 C118 1.415 . S
C120 C125 1.425 . S
C120 C127 1.409 . S
C121 H113 0.930 . S
C121 C119 1.419 . S
C121 C122 1.362 . S
C122 H114 0.930 . S
C122 C121 1.362 . S
C122 C125 1.409 . S
C123 H115 0.930 . S
C123 C124 1.355 . S
C123 C125 1.415 . S
C124 C123 1.355 . S
C124 C126 1.419 . S
C125 C120 1.425 . S
C125 C122 1.409 . S
C125 C123 1.415 . S
C126 H116 0.930 . S
C126 C124 1.419 . S
C126 C127 1.362 . S
C127 H117 0.930 . S
C127 C120 1.409 . S
C127 C126 1.362 . S
H128 C134 0.930 . S
H129 C137 0.930 . S
H130 C138 0.930 . S
H131 C139 0.930 . S
H132 C142 0.930 . S
H133 C143 0.930 . S
C134 H128 0.930 . S
C134 C135 1.355 . S
C134 C136 1.415 . S
C135 C134 1.355 . S
C135 C137 1.419 . S
C136 C134 1.415 . S
C136 C141 1.425 . S
C136 C143 1.409 . S
C137 H129 0.930 . S
C137 C135 1.419 . S
C137 C138 1.362 . S
C138 H130 0.930 . S
C138 C137 1.362 . S
C138 C141 1.409 . S
C139 H131 0.930 . S
C139 C140 1.355 . S
C139 C141 1.415 . S
C140 C139 1.355 . S
C140 C142 1.419 . S
C141 C136 1.425 . S
C141 C138 1.409 . S
C141 C139 1.415 . S
C142 H132 0.930 . S
C142 C140 1.419 . S
C142 C143 1.362 . S
C143 H133 0.930 . S
C143 C136 1.409 . S
C143 C142 1.362 . S
H144 C150 0.930 . S
H145 C153 0.930 . S
H146 C154 0.930 . S
H147 C155 0.930 . S
H148 C158 0.930 . S
H149 C159 0.930 . S
C150 H144 0.930 . S
C150 C151 1.355 . S
C150 C152 1.415 1_544 S
C151 C150 1.355 . S
C151 C153 1.419 . S
C152 C150 1.415 1_566 S
C152 C157 1.425 1_556 S
C152 C159 1.409 . S
C153 H145 0.930 . S
C153 C151 1.419 . S
C153 C154 1.362 . S
C154 H146 0.930 . S
C154 C153 1.362 . S
C154 C157 1.409 1_545 S
C155 H147 0.930 . S
C155 C156 1.355 . S
C155 C157 1.415 1_556 S
C156 C155 1.355 . S
C156 C158 1.419 . S
C157 C152 1.425 1_554 S
C157 C154 1.409 1_565 S
C157 C155 1.415 1_554 S
C158 H148 0.930 . S
C158 C156 1.419 . S
C158 C159 1.362 . S
C159 H149 0.930 . S
C159 C152 1.409 . S
C159 C158 1.362 . S
H160 C166 0.930 . S
H161 C169 0.930 . S
H162 C170 0.930 . S
H163 C171 0.930 . S
H164 C174 0.930 . S
H165 C175 0.930 . S
C166 H160 0.930 . S
C166 C167 1.355 . S
C166 C168 1.415 1_655 S
C167 C166 1.355 . S
C167 C169 1.419 . S
C168 C166 1.415 1_455 S
C168 C173 1.425 . S
C168 C175 1.409 . S
C169 H161 0.930 . S
C169 C167 1.419 . S
C169 C170 1.362 1_655 S
C170 H162 0.930 . S
C170 C169 1.362 1_455 S
C170 C173 1.409 . S
C171 H163 0.930 . S
C171 C172 1.355 . S
C171 C173 1.415 . S
C172 C171 1.355 . S
C172 C174 1.419 . S
C173 C168 1.425 . S
C173 C170 1.409 . S
C173 C171 1.415 . S
C174 H164 0.930 . S
C174 C172 1.419 . S
C174 C175 1.362 . S
C175 H165 0.930 . S
C175 C168 1.409 . S
C175 C174 1.362 . S
H176 C182 0.930 . S
H177 C185 0.930 . S
H178 C186 0.930 . S
H179 C187 0.930 . S
H180 C190 0.930 . S
H181 C191 0.930 . S
C182 H176 0.930 . S
C182 C183 1.355 . S
C182 C184 1.415 . S
C183 C182 1.355 . S
C183 C185 1.419 . S
C184 C182 1.415 . S
C184 C189 1.425 . S
C184 C191 1.409 1_565 S
C185 H177 0.930 . S
C185 C183 1.419 . S
C185 C186 1.362 . S
C186 H178 0.930 . S
C186 C185 1.362 . S
C186 C189 1.409 . S
C187 H179 0.930 . S
C187 C188 1.355 . S
C187 C189 1.415 1_545 S
C188 C187 1.355 . S
C188 C190 1.419 . S
C189 C184 1.425 . S
C189 C186 1.409 . S
C189 C187 1.415 1_565 S
C190 H180 0.930 . S
C190 C188 1.419 . S
C190 C191 1.362 . S
C191 H181 0.930 . S
C191 C184 1.409 1_545 S
C191 C190 1.362 . S
H192 C198 0.930 . S
H193 C201 0.930 . S
H194 C202 0.930 . S
H195 C203 0.930 . S
H196 C206 0.930 . S
H197 C207 0.930 . S
C198 H192 0.930 . S
C198 C199 1.355 . S
C198 C200 1.415 . S
C199 C198 1.355 . S
C199 C201 1.419 1_655 S
C200 C198 1.415 . S
C200 C205 1.425 1_656 S
C200 C207 1.409 1_556 S
C201 H193 0.930 . S
C201 C199 1.419 1_455 S
C201 C202 1.362 . S
C202 H194 0.930 . S
C202 C201 1.362 . S
C202 C205 1.409 1_556 S
C203 H195 0.930 . S
C203 C204 1.355 . S
C203 C205 1.415 . S
C204 C203 1.355 . S
C204 C206 1.419 . S
C205 C200 1.425 1_454 S
C205 C202 1.409 1_554 S
C205 C203 1.415 . S
C206 H196 0.930 . S
C206 C204 1.419 . S
C206 C207 1.362 1_455 S
C207 H197 0.930 . S
C207 C200 1.409 1_554 S
C207 C206 1.362 1_655 S
H208 C214 0.930 . S
H209 C217 0.930 . S
H210 C218 0.930 . S
H211 C219 0.930 . S
H212 C222 0.930 . S
H213 C223 0.930 . S
C214 H208 0.930 . S
C214 C215 1.355 . S
C214 C216 1.415 . S
C215 C214 1.355 . S
C215 C217 1.419 . S
C216 C214 1.415 . S
C216 C221 1.425 . S
C216 C223 1.409 . S
C217 H209 0.930 . S
C217 C215 1.419 . S
C217 C218 1.362 . S
C218 H210 0.930 . S
C218 C217 1.362 . S
C218 C221 1.409 . S
C219 H211 0.930 . S
C219 C220 1.355 . S
C219 C221 1.415 . S
C220 C219 1.355 . S
C220 C222 1.419 . S
C221 C216 1.425 . S
C221 C218 1.409 . S
C221 C219 1.415 . S
C222 H212 0.930 . S
C222 C220 1.419 . S
C222 C223 1.362 . S
C223 H213 0.930 . S
C223 C216 1.409 . S
C223 C222 1.362 . S
H224 C230 0.930 . S
H225 C233 0.930 . S
H226 C234 0.930 . S
H227 C235 0.930 . S
H228 C238 0.930 . S
H229 C239 0.930 . S
C230 H224 0.930 . S
C230 C231 1.355 . S
C230 C232 1.415 . S
C231 C230 1.355 . S
C231 C233 1.419 . S
C232 C230 1.415 . S
C232 C237 1.425 . S
C232 C239 1.409 . S
C233 H225 0.930 . S
C233 C231 1.419 . S
C233 C234 1.362 . S
C234 H226 0.930 . S
C234 C233 1.362 . S
C234 C237 1.409 . S
C235 H227 0.930 . S
C235 C236 1.355 . S
C235 C237 1.415 . S
C236 C235 1.355 . S
C236 C238 1.419 . S
C237 C232 1.425 . S
C237 C234 1.409 . S
C237 C235 1.415 . S
C238 H228 0.930 . S
C238 C236 1.419 . S
C238 C239 1.362 . S
C239 H229 0.930 . S
C239 C232 1.409 . S
C239 C238 1.362 . S
H240 C246 0.930 . S
H241 C249 0.930 . S
H242 C250 0.930 . S
H243 C251 0.930 . S
H244 C254 0.930 . S
H245 C255 0.930 . S
C246 H240 0.930 . S
C246 C247 1.355 . S
C246 C248 1.415 . S
C247 C246 1.355 . S
C247 C249 1.419 . S
C248 C246 1.415 . S
C248 C253 1.425 . S
C248 C255 1.409 . S
C249 H241 0.930 . S
C249 C247 1.419 . S
C249 C250 1.362 . S
C250 H242 0.930 . S
C250 C249 1.362 . S
C250 C253 1.409 . S
C251 H243 0.930 . S
C251 C252 1.355 . S
C251 C253 1.415 . S
C252 C251 1.355 . S
C252 C254 1.419 . S
C253 C248 1.425 . S
C253 C250 1.409 . S
C253 C251 1.415 . S
C254 H244 0.930 . S
C254 C252 1.419 . S
C254 C255 1.362 . S
C255 H245 0.930 . S
C255 C248 1.409 . S
C255 C254 1.362 . S
H256 C262 0.930 . S
H257 C265 0.930 . S
H258 C266 0.930 . S
H259 C267 0.930 . S
H260 C270 0.930 . S
H261 C271 0.930 . S
C262 H256 0.930 . S
C262 C263 1.355 . S
C262 C264 1.415 . S
C263 C262 1.355 . S
C263 C265 1.419 . S
C264 C262 1.415 . S
C264 C269 1.425 1_556 S
C264 C271 1.409 . S
C265 H257 0.930 . S
C265 C263 1.419 . S
C265 C266 1.362 1_556 S
C266 H258 0.930 . S
C266 C265 1.362 1_554 S
C266 C269 1.409 . S
C267 H259 0.930 . S
C267 C268 1.355 . S
C267 C269 1.415 . S
C268 C267 1.355 . S
C268 C270 1.419 . S
C269 C264 1.425 1_554 S
C269 C266 1.409 . S
C269 C267 1.415 . S
C270 H260 0.930 . S
C270 C268 1.419 . S
C270 C271 1.362 1_554 S
C271 H261 0.930 . S
C271 C264 1.409 . S
C271 C270 1.362 1_556 S
H272 C278 0.930 . S
H273 C281 0.930 . S
H274 C282 0.930 . S
H275 C283 0.930 . S
H276 C286 0.930 . S
H277 C287 0.930 . S
C278 H272 0.930 . S
C278 C279 1.355 . S
C278 C280 1.415 . S
C279 C278 1.355 . S
C279 C281 1.419 . S
C280 C278 1.415 . S
C280 C285 1.414 1_565 S
C280 C287 1.409 . S
C281 H273 0.930 . S
C281 C279 1.419 . S
C281 C282 1.362 1_565 S
C282 H274 0.930 . S
C282 C281 1.362 1_545 S
C282 C285 1.409 . S
C283 H275 0.930 . S
C283 C284 1.355 . S
C283 C285 1.426 . S
C284 C283 1.355 . S
C284 C286 1.419 1_545 S
C285 C280 1.414 1_545 S
C285 C282 1.409 . S
C285 C283 1.426 . S
C286 H276 0.930 . S
C286 C284 1.419 1_565 S
C286 C287 1.362 . S
C287 H277 0.930 . S
C287 C280 1.409 . S
C287 C286 1.362 . S
H288 C294 0.930 . S
H289 C297 0.931 . S
H290 C298 0.930 . S
H291 C299 0.930 . S
H292 C302 0.930 . S
H293 C303 0.930 . S
C294 H288 0.930 . S
C294 C295 1.355 . S
C294 C296 1.415 1_655 S
C295 C294 1.355 . S
C295 C297 1.419 . S
C296 C294 1.415 1_455 S
C296 C301 1.425 1_565 S
C296 C303 1.409 . S
C297 H289 0.931 . S
C297 C295 1.419 . S
C297 C298 1.362 1_565 S
C298 H290 0.930 . S
C298 C297 1.362 1_545 S
C298 C301 1.409 1_655 S
C299 H291 0.930 . S
C299 C300 1.355 . S
C299 C301 1.415 . S
C300 C299 1.355 . S
C300 C302 1.419 1_545 S
C301 C296 1.425 1_545 S
C301 C298 1.409 1_455 S
C301 C299 1.415 . S
C302 H292 0.930 . S
C302 C300 1.419 1_565 S
C302 C303 1.362 . S
C303 H293 0.930 . S
C303 C296 1.409 . S
C303 C302 1.362 . S
H304 C310 0.930 . S
H305 C313 0.930 . S
H306 C314 0.930 . S
H307 C315 0.930 . S
H308 C318 0.930 . S
H309 C319 0.930 . S
C310 H304 0.930 . S
C310 C311 1.355 . S
C310 C312 1.415 1_655 S
C311 C310 1.355 . S
C311 C313 1.419 . S
C312 C310 1.415 1_455 S
C312 C317 1.425 . S
C312 C319 1.409 . S
C313 H305 0.930 . S
C313 C311 1.419 . S
C313 C314 1.362 1_655 S
C314 H306 0.930 . S
C314 C313 1.362 1_455 S
C314 C317 1.409 . S
C315 H307 0.930 . S
C315 C316 1.355 . S
C315 C317 1.415 . S
C316 C315 1.355 . S
C316 C318 1.419 . S
C317 C312 1.425 . S
C317 C314 1.409 . S
C317 C315 1.415 . S
C318 H308 0.930 . S
C318 C316 1.419 . S
C318 C319 1.362 . S
C319 H309 0.930 . S
C319 C312 1.409 . S
C319 C318 1.362 . S
H320 C326 0.930 . S
H321 C329 0.930 . S
H322 C330 0.930 . S
H323 C331 0.930 . S
H324 C334 0.930 . S
H325 C335 0.930 . S
C326 H320 0.930 . S
C326 C327 1.355 . S
C326 C328 1.415 . S
C327 C326 1.355 . S
C327 C329 1.419 . S
C328 C326 1.415 . S
C328 C333 1.425 . S
C328 C335 1.409 . S
C329 H321 0.930 . S
C329 C327 1.419 . S
C329 C330 1.362 . S
C330 H322 0.930 . S
C330 C329 1.362 . S
C330 C333 1.409 . S
C331 H323 0.930 . S
C331 C332 1.355 . S
C331 C333 1.415 . S
C332 C331 1.355 . S
C332 C334 1.419 . S
C333 C328 1.425 . S
C333 C330 1.409 . S
C333 C331 1.415 . S
C334 H324 0.930 . S
C334 C332 1.419 . S
C334 C335 1.362 . S
C335 H325 0.930 . S
C335 C328 1.409 . S
C335 C334 1.362 . S
H336 C342 0.930 . S
H337 C345 0.930 . S
H338 C346 0.930 . S
H339 C347 0.930 . S
H340 C350 0.930 . S
H341 C351 0.930 . S
C342 H336 0.930 . S
C342 C343 1.355 . S
C342 C344 1.415 1_554 S
C343 C342 1.355 . S
C343 C345 1.419 . S
C344 C342 1.415 1_556 S
C344 C349 1.425 1_556 S
C344 C351 1.409 . S
C345 H337 0.930 . S
C345 C343 1.419 . S
C345 C346 1.362 . S
C346 H338 0.930 . S
C346 C345 1.362 . S
C346 C349 1.409 . S
C347 H339 0.930 . S
C347 C348 1.355 . S
C347 C349 1.415 1_556 S
C348 C347 1.355 . S
C348 C350 1.419 . S
C349 C344 1.425 1_554 S
C349 C346 1.409 . S
C349 C347 1.415 1_554 S
C350 H340 0.930 . S
C350 C348 1.419 . S
C350 C351 1.362 . S
C351 H341 0.930 . S
C351 C344 1.409 . S
C351 C350 1.362 . S
H352 C358 0.930 . S
H353 C361 0.930 . S
H354 C362 0.930 . S
H355 C363 0.930 . S
H356 C366 0.930 . S
H357 C367 0.930 . S
C358 H352 0.930 . S
C358 C359 1.355 . S
C358 C360 1.415 . S
C359 C358 1.355 . S
C359 C361 1.419 . S
C360 C358 1.415 . S
C360 C365 1.425 . S
C360 C367 1.409 . S
C361 H353 0.930 . S
C361 C359 1.419 . S
C361 C362 1.362 . S
C362 H354 0.930 . S
C362 C361 1.362 . S
C362 C365 1.409 . S
C363 H355 0.930 . S
C363 C364 1.355 . S
C363 C365 1.415 . S
C364 C363 1.355 . S
C364 C366 1.419 . S
C365 C360 1.425 . S
C365 C362 1.409 . S
C365 C363 1.415 . S
C366 H356 0.930 . S
C366 C364 1.419 . S
C366 C367 1.362 . S
C367 H357 0.930 . S
C367 C360 1.409 . S
C367 C366 1.362 . S
C119 C75 1.553 . S
C124 C5 1.546 . S
C135 C109 1.543 . S
C140 C14 1.532 . S
C151 C37 1.527 . S
C156 C93 1.525 . S
C167 C53 1.510 . S
C172 C56 1.526 . S
C183 C84 1.542 . S
C188 C11 1.534 . S
C199 C23 1.524 . S
C204 C65 1.526 . S
C215 C81 1.534 . S
C220 C28 1.514 . S
C231 C47 1.547 . S
C236 C103 1.552 . S
C247 C67 1.513 . S
C252 C70 1.539 . S
C263 C19 1.548 . S
C268 C33 1.551 . S
C279 C42 1.529 . S
C284 C39 1.544 . S
C295 C51 1.527 . S
C300 C9 1.525 . S
C311 C25 1.544 . S
C316 C0 1.529 . S
C327 C98 1.517 . S
C332 C95 1.540 . S
C343 C61 1.541 . S
C348 C89 1.558 . S
C359 C79 1.525 . S
C364 C107 1.526 . S
