# Generated by pormake.
# Topology vbm, (6)-cn, num edge types: 1
# Building blocks:
#     Node 0, Type 0, BuildingBlock: BETDEL_clean_sbu_0, # of connection points: 6
#     Node 1, Type 0, BuildingBlock: BETDEL_clean_sbu_0, # of connection points: 6
#     Node 2, Type 0, BuildingBlock: BETDEL_clean_sbu_0, # of connection points: 6
#     Node 3, Type 0, BuildingBlock: BETDEL_clean_sbu_0, # of connection points: 6
#     Node 4, Type 0, BuildingBlock: BETDEL_clean_sbu_0, # of connection points: 6
#     Node 5, Type 0, BuildingBlock: BETDEL_clean_sbu_0, # of connection points: 6
#     Node 6, Type 0, BuildingBlock: BETDEL_clean_sbu_0, # of connection points: 6
#     Node 7, Type 0, BuildingBlock: BETDEL_clean_sbu_0, # of connection points: 6
#     Node 8, Type 0, BuildingBlock: BETDEL_clean_sbu_0, # of connection points: 6
#     Node 9, Type 0, BuildingBlock: BETDEL_clean_sbu_0, # of connection points: 6
#     Node 10, Type 0, BuildingBlock: BETDEL_clean_sbu_0, # of connection points: 6
#     Node 11, Type 0, BuildingBlock: BETDEL_clean_sbu_0, # of connection points: 6
#     Node 12, Type 0, BuildingBlock: BETDEL_clean_sbu_0, # of connection points: 6
#     Node 13, Type 0, BuildingBlock: BETDEL_clean_sbu_0, # of connection points: 6
#     Node 14, Type 0, BuildingBlock: BETDEL_clean_sbu_0, # of connection points: 6
#     Node 15, Type 0, BuildingBlock: BETDEL_clean_sbu_0, # of connection points: 6
#     Edge 16, Type (0, 0), BuildingBlock: CIFDUS_clean_linker_0, # of connection points: 2
#     Edge 17, Type (0, 0), BuildingBlock: CIFDUS_clean_linker_0, # of connection points: 2
#     Edge 18, Type (0, 0), BuildingBlock: CIFDUS_clean_linker_0, # of connection points: 2
#     Edge 19, Type (0, 0), BuildingBlock: CIFDUS_clean_linker_0, # of connection points: 2
#     Edge 20, Type (0, 0), BuildingBlock: CIFDUS_clean_linker_0, # of connection points: 2
#     Edge 21, Type (0, 0), BuildingBlock: CIFDUS_clean_linker_0, # of connection points: 2
#     Edge 22, Type (0, 0), BuildingBlock: CIFDUS_clean_linker_0, # of connection points: 2
#     Edge 23, Type (0, 0), BuildingBlock: CIFDUS_clean_linker_0, # of connection points: 2
#     Edge 24, Type (0, 0), BuildingBlock: CIFDUS_clean_linker_0, # of connection points: 2
#     Edge 25, Type (0, 0), BuildingBlock: CIFDUS_clean_linker_0, # of connection points: 2
#     Edge 26, Type (0, 0), BuildingBlock: CIFDUS_clean_linker_0, # of connection points: 2
#     Edge 27, Type (0, 0), BuildingBlock: CIFDUS_clean_linker_0, # of connection points: 2
#     Edge 28, Type (0, 0), BuildingBlock: CIFDUS_clean_linker_0, # of connection points: 2
#     Edge 29, Type (0, 0), BuildingBlock: CIFDUS_clean_linker_0, # of connection points: 2
#     Edge 30, Type (0, 0), BuildingBlock: CIFDUS_clean_linker_0, # of connection points: 2
#     Edge 31, Type (0, 0), BuildingBlock: CIFDUS_clean_linker_0, # of connection points: 2
#     Edge 32, Type (0, 0), BuildingBlock: CIFDUS_clean_linker_0, # of connection points: 2
#     Edge 33, Type (0, 0), BuildingBlock: CIFDUS_clean_linker_0, # of connection points: 2
#     Edge 34, Type (0, 0), BuildingBlock: CIFDUS_clean_linker_0, # of connection points: 2
#     Edge 35, Type (0, 0), BuildingBlock: CIFDUS_clean_linker_0, # of connection points: 2
#     Edge 36, Type (0, 0), BuildingBlock: CIFDUS_clean_linker_0, # of connection points: 2
#     Edge 37, Type (0, 0), BuildingBlock: CIFDUS_clean_linker_0, # of connection points: 2
#     Edge 38, Type (0, 0), BuildingBlock: CIFDUS_clean_linker_0, # of connection points: 2
#     Edge 39, Type (0, 0), BuildingBlock: CIFDUS_clean_linker_0, # of connection points: 2
#     Edge 40, Type (0, 0), BuildingBlock: CIFDUS_clean_linker_0, # of connection points: 2
#     Edge 41, Type (0, 0), BuildingBlock: CIFDUS_clean_linker_0, # of connection points: 2
#     Edge 42, Type (0, 0), BuildingBlock: CIFDUS_clean_linker_0, # of connection points: 2
#     Edge 43, Type (0, 0), BuildingBlock: CIFDUS_clean_linker_0, # of connection points: 2
#     Edge 44, Type (0, 0), BuildingBlock: CIFDUS_clean_linker_0, # of connection points: 2
#     Edge 45, Type (0, 0), BuildingBlock: CIFDUS_clean_linker_0, # of connection points: 2
#     Edge 46, Type (0, 0), BuildingBlock: CIFDUS_clean_linker_0, # of connection points: 2
#     Edge 47, Type (0, 0), BuildingBlock: CIFDUS_clean_linker_0, # of connection points: 2
#     Edge 48, Type (0, 0), BuildingBlock: CIFDUS_clean_linker_0, # of connection points: 2
#     Edge 49, Type (0, 0), BuildingBlock: CIFDUS_clean_linker_0, # of connection points: 2
#     Edge 50, Type (0, 0), BuildingBlock: CIFDUS_clean_linker_0, # of connection points: 2
#     Edge 51, Type (0, 0), BuildingBlock: CIFDUS_clean_linker_0, # of connection points: 2
#     Edge 52, Type (0, 0), BuildingBlock: CIFDUS_clean_linker_0, # of connection points: 2
#     Edge 53, Type (0, 0), BuildingBlock: CIFDUS_clean_linker_0, # of connection points: 2
#     Edge 54, Type (0, 0), BuildingBlock: CIFDUS_clean_linker_0, # of connection points: 2
#     Edge 55, Type (0, 0), BuildingBlock: CIFDUS_clean_linker_0, # of connection points: 2
#     Edge 56, Type (0, 0), BuildingBlock: CIFDUS_clean_linker_0, # of connection points: 2
#     Edge 57, Type (0, 0), BuildingBlock: CIFDUS_clean_linker_0, # of connection points: 2
#     Edge 58, Type (0, 0), BuildingBlock: CIFDUS_clean_linker_0, # of connection points: 2
#     Edge 59, Type (0, 0), BuildingBlock: CIFDUS_clean_linker_0, # of connection points: 2
#     Edge 60, Type (0, 0), BuildingBlock: CIFDUS_clean_linker_0, # of connection points: 2
#     Edge 61, Type (0, 0), BuildingBlock: CIFDUS_clean_linker_0, # of connection points: 2
#     Edge 62, Type (0, 0), BuildingBlock: CIFDUS_clean_linker_0, # of connection points: 2
#     Edge 63, Type (0, 0), BuildingBlock: CIFDUS_clean_linker_0, # of connection points: 2
# Relax obj value: 0.063
# Max RMSD: 0.119
# Mean RMSD: 0.119
data_MOF--net-vbm--node1-BETDEL_clean_sbu_0--edge1-CIFDUS_clean_linker_0
_symmetry_space_group_name_H-M    P1
_symmetry_Int_Tables_number       1
_symmetry_cell_setting            triclinic
loop_
_symmetry_equiv_pos_as_xyz
'x, y, z'
_cell_length_a     51.195153
_cell_length_b     16.351548
_cell_length_c     49.356536
_cell_angle_alpha  89.82772
_cell_angle_beta   89.807253
_cell_angle_gamma 90.015726
loop_
_atom_site_label
_atom_site_type_symbol
_atom_site_fract_x
_atom_site_fract_y
_atom_site_fract_z
_atom_type_partial_charge
Dy0 Dy 0.12975 0.03822 0.14269 0.0
C1 C 0.10833 0.38593 0.14509 0.0
C2 C 0.13299 0.87068 0.14721 0.0
Dy3 Dy 0.1117 0.21834 0.14943 0.0
O4 O 0.12631 0.91068 0.12555 0.0
O5 O 0.1389 0.92251 0.16619 0.0
O6 O 0.14676 0.06942 0.10212 0.0
O7 O 0.11334 0.1317 0.11568 0.0
C8 C 0.13024 0.12794 0.09696 0.0
C9 C 0.11025 0.12753 0.19457 0.0
O10 O 0.07271 0.16323 0.14031 0.0
O11 O 0.08635 0.02958 0.14822 0.0
O12 O 0.11519 0.34578 0.16665 0.0
O13 O 0.10236 0.33422 0.12609 0.0
O14 O 0.09473 0.18935 0.19052 0.0
O15 O 0.12727 0.12383 0.17608 0.0
O16 O 0.16869 0.0932 0.15163 0.0
O17 O 0.15518 0.22693 0.14361 0.0
C18 C 0.06771 0.08407 0.14363 0.0
C19 C 0.17378 0.17221 0.1482 0.0
Dy20 Dy 0.85381 0.02462 0.14435 0.0
C21 C 0.87507 0.67847 0.14149 0.0
C22 C 0.85122 0.19268 0.14884 0.0
Dy23 Dy 0.87256 0.84658 0.14574 0.0
O24 O 0.8561 0.15231 0.12681 0.0
O25 O 0.84678 0.14088 0.16844 0.0
O26 O 0.82995 0.99897 0.10785 0.0
O27 O 0.86544 0.93545 0.11299 0.0
C28 C 0.8452 0.94219 0.09837 0.0
C29 C 0.88034 0.93107 0.19151 0.0
O30 O 0.91017 0.9023 0.13217 0.0
O31 O 0.89752 0.03412 0.14387 0.0
O32 O 0.86992 0.71908 0.16341 0.0
O33 O 0.87985 0.73003 0.12191 0.0
O34 O 0.89606 0.87413 0.18303 0.0
O35 O 0.86053 0.93544 0.17644 0.0
O36 O 0.81649 0.96772 0.15887 0.0
O37 O 0.82893 0.83682 0.14606 0.0
C38 C 0.9155 0.98078 0.1361 0.0
C39 C 0.81108 0.88928 0.15471 0.0
Dy40 Dy 0.12415 1.0083 0.39365 0.0
C41 C 0.12229 0.65535 0.38484 0.0
C42 C 0.12223 0.17045 0.38234 0.0
Dy43 Dy 0.11606 0.82012 0.38551 0.0
O44 O 0.14128 0.13487 0.39524 0.0
O45 O 0.10482 0.11722 0.37514 0.0
O46 O 0.1223 1.01473 0.43923 0.0
O47 O 0.11726 0.90344 0.41964 0.0
C48 C 0.11785 0.93717 0.44256 0.0
C49 C 0.11514 0.91251 0.34007 0.0
O50 O 0.07563 0.85429 0.3974 0.0
O51 O 0.08131 0.9917 0.38683 0.0
O52 O 0.10127 0.69229 0.39325 0.0
O53 O 0.13951 0.70801 0.37673 0.0
O54 O 0.10252 0.84412 0.34261 0.0
O55 O 0.12932 0.92272 0.36051 0.0
O56 O 0.16541 0.96572 0.38811 0.0
O57 O 0.15652 0.83216 0.40122 0.0
C58 C 0.06621 0.92846 0.39299 0.0
C59 C 0.17321 0.89135 0.39532 0.0
Dy60 Dy 0.85913 0.03018 0.39068 0.0
C61 C 0.87359 0.37735 0.39218 0.0
C62 C 0.85776 0.86355 0.38425 0.0
Dy63 Dy 0.87238 0.21036 0.38649 0.0
O64 O 0.85855 0.91667 0.36463 0.0
O65 O 0.85708 0.90162 0.40727 0.0
O66 O 0.84016 0.05168 0.4306 0.0
O67 O 0.87332 0.12121 0.41997 0.0
C68 C 0.85575 0.11039 0.43782 0.0
C69 C 0.8739 0.12718 0.33954 0.0
O70 O 0.91204 0.1674 0.39665 0.0
O71 O 0.90312 0.03122 0.38736 0.0
O72 O 0.87279 0.3249 0.41198 0.0
O73 O 0.87437 0.33846 0.36931 0.0
O74 O 0.89007 0.1859 0.34528 0.0
O75 O 0.85733 0.11957 0.35826 0.0
O76 O 0.8191 0.07572 0.38101 0.0
O77 O 0.8289 0.21096 0.39084 0.0
C78 C 0.91977 0.09126 0.39269 0.0
C79 C 0.81187 0.15249 0.38527 0.0
Dy80 Dy 0.87278 0.81684 0.88776 0.0
C81 C 0.85577 0.1647 0.88908 0.0
C82 C 0.87507 0.64979 0.89224 0.0
Dy83 Dy 0.85853 0.99757 0.89305 0.0
O84 O 0.88355 0.70107 0.91028 0.0
O85 O 0.86586 0.68988 0.87166 0.0
O86 O 0.89109 0.83843 0.84672 0.0
O87 O 0.85999 0.9123 0.85965 0.0
C88 C 0.8773 0.90338 0.84166 0.0
C89 C 0.85406 0.9125 0.93952 0.0
O90 O 0.81881 0.94818 0.88349 0.0
O91 O 0.82963 0.81397 0.89387 0.0
O92 O 0.84667 0.11366 0.87132 0.0
O93 O 0.86581 0.12434 0.90917 0.0
O94 O 0.83885 0.97251 0.93251 0.0
O95 O 0.87189 0.90367 0.92188 0.0
O96 O 0.91233 0.86292 0.8973 0.0
O97 O 0.9023 0.99867 0.88796 0.0
C98 C 0.81221 0.87077 0.88784 0.0
C99 C 0.91939 0.93983 0.89335 0.0
Dy100 Dy 0.10827 0.24876 0.88686 0.0
C101 C 0.12382 0.89813 0.88181 0.0
C102 C 0.10646 0.41493 0.88937 0.0
Dy103 Dy 0.12309 0.06277 0.88995 0.0
O104 O 0.09619 0.36585 0.9073 0.0
O105 O 0.11739 0.37318 0.87011 0.0
O106 O 0.08548 0.22306 0.84877 0.0
O107 O 0.1187 0.15332 0.85767 0.0
C108 C 0.09984 0.16133 0.8416 0.0
C109 C 0.12675 0.12821 0.93984 0.0
O110 O 0.16256 0.11346 0.88055 0.0
O111 O 0.15189 0.24998 0.88904 0.0
O112 O 0.1399 0.94937 0.87019 0.0
O113 O 0.10771 0.93712 0.89736 0.0
O114 O 0.13342 0.05374 0.93412 0.0
O115 O 0.11973 0.16328 0.91828 0.0
O116 O 0.07122 0.19846 0.90329 0.0
O117 O 0.07939 0.06818 0.88691 0.0
C118 C 0.16909 0.19159 0.88353 0.0
C119 C 0.06333 0.12385 0.89709 0.0
Dy120 Dy 0.86796 0.17561 0.64592 0.0
C121 C 0.84814 0.82805 0.64513 0.0
C122 C 0.87045 0.34308 0.64138 0.0
Dy123 Dy 0.85117 0.99568 0.6418 0.0
O124 O 0.86217 0.30283 0.6624 0.0
O125 O 0.87811 0.29164 0.62291 0.0
O126 O 0.88809 0.15238 0.6858 0.0
O127 O 0.8557 0.08136 0.67481 0.0
C128 C 0.87396 0.08864 0.69172 0.0
C129 C 0.84389 0.08228 0.59623 0.0
O130 O 0.81272 0.04936 0.65458 0.0
O131 O 0.82443 0.18256 0.6435 0.0
O132 O 0.83937 0.87867 0.66331 0.0
O133 O 0.85783 0.86921 0.62496 0.0
O134 O 0.829 0.02248 0.60421 0.0
O135 O 0.8633 0.08925 0.61199 0.0
O136 O 0.90667 0.12397 0.63441 0.0
O137 O 0.89497 0.99016 0.64476 0.0
C138 C 0.80675 0.12766 0.6508 0.0
C139 C 0.91274 0.04604 0.63831 0.0
Dy140 Dy 0.10963 0.83964 0.65464 0.0
C141 C 0.13365 0.18964 0.65246 0.0
C142 C 0.10641 0.67193 0.65377 0.0
Dy143 Dy 0.12806 0.02447 0.6454 0.0
O144 O 0.09356 0.71941 0.67015 0.0
O145 O 0.12025 0.71634 0.63723 0.0
O146 O 0.09319 0.87705 0.6951 0.0
O147 O 0.12582 0.9386 0.67941 0.0
C148 C 0.10921 0.93787 0.69832 0.0
C149 C 0.12058 0.94854 0.59747 0.0
O150 O 0.16682 0.96676 0.65467 0.0
O151 O 0.15336 0.82989 0.65621 0.0
O152 O 0.14892 0.14393 0.63774 0.0
O153 O 0.11606 0.14425 0.66425 0.0
O154 O 0.12869 0.02346 0.59948 0.0
O155 O 0.11759 0.92033 0.62099 0.0
O156 O 0.07325 0.89424 0.63752 0.0
O157 O 0.08425 0.02899 0.64786 0.0
C158 C 0.17186 0.88698 0.65645 0.0
C159 C 0.06695 0.97247 0.64073 0.0
Dy160 Dy 0.63247 0.50927 0.14798 0.0
C161 C 0.6129 0.86389 0.14552 0.0
C162 C 0.63503 0.34594 0.16009 0.0
Dy163 Dy 0.61425 0.69671 0.14957 0.0
O164 O 0.64805 0.38225 0.14085 0.0
O165 O 0.62155 0.39969 0.17359 0.0
O166 O 0.64059 0.50168 0.10302 0.0
O167 O 0.62554 0.60747 0.11967 0.0
C168 C 0.63264 0.57535 0.09768 0.0
C169 C 0.60722 0.6075 0.19475 0.0
O170 O 0.57792 0.6414 0.1331 0.0
O171 O 0.58868 0.50622 0.14414 0.0
O172 O 0.61291 0.82253 0.16802 0.0
O173 O 0.61266 0.81365 0.12508 0.0
O174 O 0.59146 0.66559 0.18717 0.0
O175 O 0.62659 0.60326 0.17887 0.0
O176 O 0.67066 0.56773 0.15913 0.0
O177 O 0.65785 0.703 0.15094 0.0
C178 C 0.57174 0.56293 0.1361 0.0
C179 C 0.67588 0.64728 0.15661 0.0
Dy180 Dy 0.35588 0.53512 0.14029 0.0
C181 C 0.37669 0.19045 0.14785 0.0
C182 C 0.3523 0.70401 0.14179 0.0
Dy183 Dy 0.37324 0.3594 0.1489 0.0
O184 O 0.34173 0.6568 0.12374 0.0
O185 O 0.36404 0.65854 0.15962 0.0
O186 O 0.34151 0.50239 0.09892 0.0
O187 O 0.37443 0.44288 0.11392 0.0
C188 C 0.35875 0.44601 0.09422 0.0
C189 C 0.37146 0.4508 0.19425 0.0
O190 O 0.41183 0.41022 0.13596 0.0
O191 O 0.39972 0.54494 0.14336 0.0
O192 O 0.38738 0.23799 0.16574 0.0
O193 O 0.36493 0.2356 0.12995 0.0
O194 O 0.38829 0.39283 0.19014 0.0
O195 O 0.3552 0.45264 0.17509 0.0
O196 O 0.31695 0.48256 0.15194 0.0
O197 O 0.32977 0.34841 0.14489 0.0
C198 C 0.41787 0.48864 0.13882 0.0
C199 C 0.31134 0.4038 0.14897 0.0
Dy200 Dy 0.62537 0.48198 0.39524 0.0
C201 C 0.60701 0.13749 0.38752 0.0
C202 C 0.6285 0.65069 0.39432 0.0
Dy203 Dy 0.60998 0.30631 0.38713 0.0
O204 O 0.63866 0.60304 0.41254 0.0
O205 O 0.61722 0.60592 0.37607 0.0
O206 O 0.64275 0.45008 0.4351 0.0
O207 O 0.60907 0.38734 0.42288 0.0
C208 C 0.62629 0.39263 0.44122 0.0
C209 C 0.61055 0.39819 0.34144 0.0
O210 O 0.57117 0.35152 0.40061 0.0
O211 O 0.58158 0.48727 0.39267 0.0
O212 O 0.59624 0.18561 0.36982 0.0
O213 O 0.6188 0.18185 0.40552 0.0
O214 O 0.59394 0.33983 0.346 0.0
O215 O 0.62684 0.40075 0.36045 0.0
O216 O 0.66421 0.43458 0.38181 0.0
O217 O 0.65355 0.29925 0.3902 0.0
C218 C 0.56421 0.42885 0.39749 0.0
C219 C 0.67103 0.35696 0.38511 0.0
Dy220 Dy 0.3612 0.56692 0.39006 0.0
C221 C 0.37779 0.91375 0.39043 0.0
C222 C 0.35916 0.39975 0.3848 0.0
Dy223 Dy 0.37557 0.74629 0.38642 0.0
O224 O 0.36545 0.43897 0.40662 0.0
O225 O 0.35338 0.45202 0.36582 0.0
O226 O 0.34143 0.58797 0.42969 0.0
O227 O 0.37479 0.65723 0.41994 0.0
C228 C 0.35688 0.64649 0.4374 0.0
C229 C 0.38014 0.6631 0.33981 0.0
O230 O 0.41488 0.70009 0.39718 0.0
O231 O 0.40496 0.56589 0.38611 0.0
O232 O 0.37065 0.87334 0.36913 0.0
O233 O 0.3843 0.86255 0.40946 0.0
O234 O 0.39593 0.72141 0.34684 0.0
O235 O 0.36202 0.65539 0.35702 0.0
O236 O 0.32143 0.61558 0.38156 0.0
O237 O 0.33233 0.74893 0.39271 0.0
C238 C 0.42198 0.62357 0.39269 0.0
C239 C 0.31482 0.69219 0.38691 0.0
Dy240 Dy 0.37033 0.33892 0.88322 0.0
C241 C 0.34824 0.69251 0.88363 0.0
C242 C 0.37532 0.17359 0.89152 0.0
Dy243 Dy 0.35639 0.52733 0.88722 0.0
O244 O 0.39277 0.22032 0.88013 0.0
O245 O 0.35584 0.21813 0.89961 0.0
O246 O 0.37174 0.32849 0.83753 0.0
O247 O 0.36365 0.43949 0.8555 0.0
C248 C 0.36647 0.40482 0.83296 0.0
C249 C 0.36867 0.45108 0.93463 0.0
O250 O 0.31687 0.47561 0.87747 0.0
O251 O 0.32697 0.33684 0.8826 0.0
O252 O 0.33503 0.64285 0.89916 0.0
O253 O 0.3648 0.65106 0.86915 0.0
O254 O 0.37356 0.52709 0.92916 0.0
O255 O 0.35607 0.42158 0.91508 0.0
O256 O 0.40873 0.39813 0.89388 0.0
O257 O 0.39832 0.5261 0.87651 0.0
C258 C 0.31007 0.39706 0.87865 0.0
C259 C 0.41551 0.47289 0.88579 0.0
Dy260 Dy 0.61305 0.70074 0.88845 0.0
C261 C 0.63244 0.35016 0.89183 0.0
C262 C 0.61114 0.8664 0.89584 0.0
Dy263 Dy 0.6299 0.51715 0.89334 0.0
O264 O 0.59279 0.81581 0.90351 0.0
O265 O 0.63002 0.82613 0.88462 0.0
O266 O 0.60898 0.70912 0.84287 0.0
O267 O 0.62085 0.60105 0.86083 0.0
C268 C 0.61645 0.63461 0.83831 0.0
C269 C 0.6322 0.60408 0.93995 0.0
O270 O 0.66751 0.57321 0.88023 0.0
O271 O 0.65601 0.70059 0.89677 0.0
O272 O 0.61854 0.3926 0.90871 0.0
O273 O 0.6455 0.39906 0.87588 0.0
O274 O 0.64805 0.54508 0.93359 0.0
O275 O 0.61506 0.61059 0.92169 0.0
O276 O 0.57351 0.6446 0.89348 0.0
O277 O 0.58706 0.51059 0.88525 0.0
C278 C 0.67362 0.64901 0.88714 0.0
C279 C 0.56851 0.5658 0.88931 0.0
Dy280 Dy 0.37127 0.71488 0.64228 0.0
C281 C 0.35149 0.36012 0.64557 0.0
C282 C 0.37463 0.87823 0.63003 0.0
Dy283 Dy 0.35305 0.52772 0.64201 0.0
O284 O 0.38736 0.84144 0.64928 0.0
O285 O 0.36116 0.82475 0.61647 0.0
O286 O 0.37541 0.72814 0.68785 0.0
O287 O 0.36394 0.61869 0.67109 0.0
C288 C 0.36851 0.65347 0.69325 0.0
C289 C 0.34568 0.61277 0.59609 0.0
O290 O 0.31657 0.58527 0.65816 0.0
O291 O 0.32748 0.71833 0.64476 0.0
O292 O 0.35288 0.40214 0.62327 0.0
O293 O 0.34996 0.40993 0.66608 0.0
O294 O 0.33013 0.55563 0.60496 0.0
O295 O 0.36539 0.6192 0.61147 0.0
O296 O 0.40998 0.6559 0.63335 0.0
O297 O 0.39668 0.5208 0.64128 0.0
C298 C 0.31046 0.66343 0.654 0.0
C299 C 0.41494 0.57629 0.63607 0.0
Dy300 Dy 0.6096 0.31814 0.64884 0.0
C301 C 0.63085 0.66831 0.64767 0.0
C302 C 0.60822 0.15204 0.6417 0.0
Dy303 Dy 0.62847 0.50112 0.64609 0.0
O304 O 0.62585 0.19257 0.6547 0.0
O305 O 0.59078 0.20265 0.63206 0.0
O306 O 0.60266 0.30971 0.69425 0.0
O307 O 0.61672 0.41606 0.67711 0.0
C308 C 0.61095 0.38303 0.69936 0.0
C309 C 0.63486 0.4156 0.59991 0.0
O310 O 0.66486 0.44105 0.66119 0.0
O311 O 0.65308 0.31496 0.64365 0.0
O312 O 0.61854 0.62556 0.62968 0.0
O313 O 0.64253 0.61954 0.66474 0.0
O314 O 0.65012 0.47412 0.6079 0.0
O315 O 0.61564 0.40897 0.61604 0.0
O316 O 0.57072 0.37758 0.64161 0.0
O317 O 0.58515 0.50956 0.65148 0.0
C318 C 0.67062 0.36463 0.65441 0.0
C319 C 0.56624 0.45665 0.64605 0.0
H320 H 0.19022 0.33034 0.14979 0.0
H321 H 0.21885 0.08181 0.14935 0.0
H322 H 0.26377 0.13231 0.15023 0.0
H323 H 0.29469 0.24625 0.15016 0.0
H324 H 0.2663 0.495 0.15084 0.0
H325 H 0.22127 0.44464 0.15096 0.0
C326 C 0.20624 0.28695 0.14985 0.0
C327 C 0.2011 0.20216 0.14933 0.0
C328 C 0.23199 0.3164 0.15043 0.0
C329 C 0.22217 0.14721 0.14971 0.0
C330 C 0.24788 0.17609 0.15019 0.0
C331 C 0.27872 0.28982 0.15037 0.0
C332 C 0.28394 0.37454 0.15035 0.0
C333 C 0.25298 0.26048 0.15041 0.0
C334 C 0.2629 0.42963 0.15085 0.0
C335 C 0.23715 0.40082 0.15085 0.0
H336 H 0.79614 0.73016 0.15659 0.0
H337 H 0.76563 0.97596 0.16173 0.0
H338 H 0.72119 0.92133 0.16453 0.0
H339 H 0.69122 0.80494 0.16281 0.0
H340 H 0.7216 0.55913 0.15694 0.0
H341 H 0.76621 0.61318 0.1574 0.0
C342 C 0.77982 0.77211 0.15839 0.0
C343 C 0.78423 0.85734 0.15864 0.0
C344 C 0.7544 0.7403 0.15983 0.0
C345 C 0.76283 0.91032 0.16142 0.0
C346 C 0.73742 0.87906 0.16294 0.0
C347 C 0.70753 0.76278 0.16171 0.0
C348 C 0.70301 0.67787 0.15953 0.0
C349 C 0.73301 0.79429 0.16174 0.0
C350 C 0.72447 0.62455 0.15859 0.0
C351 C 0.74997 0.65552 0.15873 0.0
H352 H 0.29524 0.84615 0.38802 0.0
H353 H 0.27206 0.592 0.38779 0.0
H354 H 0.22627 0.63251 0.39139 0.0
H355 H 0.19329 0.73894 0.39479 0.0
H356 H 0.2158 0.99358 0.39362 0.0
H357 H 0.26185 0.9535 0.39064 0.0
C358 C 0.2802 0.79946 0.38876 0.0
C359 C 0.28705 0.71605 0.38772 0.0
C360 C 0.25398 0.82317 0.39076 0.0
C361 C 0.26731 0.65651 0.38845 0.0
C362 C 0.24116 0.67962 0.39063 0.0
C363 C 0.20819 0.78607 0.39412 0.0
C364 C 0.20115 0.86931 0.39468 0.0
C365 C 0.23435 0.76266 0.39192 0.0
C366 C 0.22075 0.92919 0.39333 0.0
C367 C 0.24702 0.90627 0.39157 0.0
H368 H 0.79261 0.30592 0.38191 0.0
H369 H 0.76893 0.05238 0.38417 0.0
H370 H 0.72303 0.09415 0.38323 0.0
H371 H 0.69007 0.20246 0.38361 0.0
H372 H 0.71399 0.45588 0.38143 0.0
H373 H 0.75977 0.41377 0.38038 0.0
C374 C 0.77746 0.25952 0.38222 0.0
C375 C 0.78414 0.17608 0.3834 0.0
C376 C 0.7513 0.28391 0.3817 0.0
C377 C 0.76427 0.11695 0.38334 0.0
C378 C 0.73807 0.14081 0.38286 0.0
C379 C 0.70525 0.24871 0.38284 0.0
C380 C 0.69864 0.33232 0.38282 0.0
C381 C 0.73142 0.22412 0.38233 0.0
C382 C 0.71856 0.39121 0.38152 0.0
C383 C 0.74471 0.36718 0.38098 0.0
H384 H 0.69081 0.80575 0.88902 0.0
H385 H 0.71778 0.55675 0.8807 0.0
H386 H 0.76298 0.60479 0.87939 0.0
H387 H 0.79457 0.71626 0.88204 0.0
H388 H 0.76798 0.96572 0.88981 0.0
H389 H 0.72255 0.91838 0.88971 0.0
C390 C 0.70655 0.76182 0.88696 0.0
C391 C 0.70095 0.67758 0.88524 0.0
C392 C 0.73243 0.7899 0.88611 0.0
C393 C 0.72156 0.62177 0.88212 0.0
C394 C 0.74739 0.64921 0.88142 0.0
C395 C 0.77888 0.76056 0.88375 0.0
C396 C 0.78464 0.84446 0.88624 0.0
C397 C 0.753 0.73297 0.88364 0.0
C398 C 0.76406 0.9009 0.88792 0.0
C399 C 0.73812 0.8738 0.88795 0.0
H400 H 0.29057 0.24351 0.87502 0.0
H401 H 0.26694 0.49702 0.87831 0.0
H402 H 0.22108 0.45494 0.87933 0.0
H403 H 0.18818 0.34642 0.88148 0.0
H404 H 0.21214 0.09308 0.87893 0.0
H405 H 0.25778 0.13556 0.87553 0.0
C406 C 0.27548 0.28998 0.87587 0.0
C407 C 0.28224 0.37349 0.87682 0.0
C408 C 0.24932 0.2654 0.87678 0.0
C409 C 0.26232 0.43243 0.8776 0.0
C410 C 0.23611 0.40837 0.87829 0.0
C411 C 0.20333 0.30021 0.8802 0.0
C412 C 0.19673 0.21649 0.88071 0.0
C413 C 0.22946 0.32501 0.87829 0.0
C414 C 0.21664 0.15781 0.87868 0.0
C415 C 0.24273 0.18206 0.87674 0.0
H416 H 0.68611 0.20608 0.65359 0.0
H417 H 0.71585 0.45208 0.66124 0.0
H418 H 0.76055 0.39906 0.66201 0.0
H419 H 0.79097 0.28403 0.65816 0.0
H420 H 0.76139 0.03782 0.65079 0.0
H421 H 0.71656 0.09007 0.65247 0.0
C422 C 0.70234 0.2483 0.65549 0.0
C423 C 0.69764 0.33321 0.65705 0.0
C424 C 0.72791 0.21737 0.65592 0.0
C425 C 0.7189 0.38666 0.65996 0.0
C426 C 0.74445 0.35634 0.66031 0.0
C427 C 0.77475 0.24151 0.65697 0.0
C428 C 0.77954 0.15703 0.65403 0.0
C429 C 0.74915 0.27199 0.65792 0.0
C430 C 0.75827 0.10296 0.65301 0.0
C431 C 0.73265 0.1329 0.65387 0.0
H432 H 0.1894 0.73084 0.66341 0.0
H433 H 0.21638 0.97987 0.65415 0.0
H434 H 0.26156 0.9323 0.65424 0.0
H435 H 0.29312 0.82026 0.65445 0.0
H436 H 0.26644 0.57087 0.66305 0.0
H437 H 0.22126 0.61893 0.66599 0.0
C438 C 0.2051 0.77504 0.66155 0.0
C439 C 0.19937 0.85901 0.65856 0.0
C440 C 0.23106 0.74724 0.66145 0.0
C441 C 0.22011 0.91501 0.6564 0.0
C442 C 0.24598 0.88782 0.6564 0.0
C443 C 0.2775 0.77609 0.65707 0.0
C444 C 0.28323 0.6918 0.65826 0.0
C445 C 0.25164 0.80405 0.65851 0.0
C446 C 0.26266 0.63596 0.66202 0.0
C447 C 0.2368 0.66344 0.66361 0.0
H448 H 0.09678 0.87346 0.29014 0.0
H449 H 0.13678 0.06366 0.33383 0.0
H450 H 0.13844 0.14799 0.29281 0.0
H451 H 0.12842 0.16776 0.24418 0.0
H452 H 0.0914 0.97346 0.19985 0.0
H453 H 0.08888 0.89016 0.24114 0.0
C454 C 0.10582 0.93344 0.29065 0.0
C455 C 0.11629 0.96287 0.31508 0.0
C456 C 0.10738 0.98053 0.26676 0.0
C457 C 0.12828 0.04015 0.31537 0.0
C458 C 0.12933 0.08824 0.29188 0.0
C459 C 0.11994 0.10698 0.24369 0.0
C460 C 0.11008 0.07642 0.2192 0.0
C461 C 0.11894 0.05912 0.26745 0.0
C462 C 0.09917 0.9978 0.21854 0.0
C463 C 0.09767 0.95037 0.24215 0.0
H464 H 0.91164 0.10311 0.30136 0.0
H465 H 0.82957 0.06695 0.31713 0.0
H466 H 0.82384 1.00876 0.27199 0.0
H467 H 0.84223 0.96641 0.22796 0.0
H468 H 0.92504 0.98777 0.21394 0.0
H469 H 0.9305 0.05385 0.25811 0.0
C470 C 0.89255 0.08247 0.29482 0.0
C471 C 0.87104 0.08981 0.31243 0.0
C472 C 0.88954 0.04668 0.26906 0.0
C473 C 0.84643 0.06188 0.30393 0.0
C474 C 0.84312 0.02882 0.27808 0.0
C475 C 0.8614 0.98614 0.23459 0.0
C476 C 0.88319 0.97325 0.21775 0.0
C477 C 0.86451 1.02088 0.26045 0.0
C478 C 0.90802 0.99743 0.22665 0.0
C479 C 0.91113 0.03507 0.25188 0.0
H480 H 0.87864 0.14961 0.74255 0.0
H481 H 0.87323 0.92405 0.69822 0.0
H482 H 0.87474 0.84583 0.74059 0.0
H483 H 0.87691 0.84196 0.79066 0.0
H484 H 0.87972 0.0678 0.83511 0.0
H485 H 0.87994 0.14584 0.79266 0.0
C486 C 0.87788 0.08332 0.74228 0.0
C487 C 0.87557 0.04232 0.71741 0.0
C488 C 0.87822 0.03905 0.76683 0.0
C489 C 0.87443 0.95663 0.7172 0.0
C490 C 0.87551 0.91201 0.74141 0.0
C491 C 0.87764 0.90825 0.79093 0.0
C492 C 0.87803 0.94946 0.81588 0.0
C493 C 0.87723 0.95253 0.76639 0.0
C494 C 0.87883 0.03519 0.81611 0.0
C495 C 0.87917 0.07966 0.79184 0.0
H496 H 0.13852 0.12232 0.80639 0.0
H497 H 0.05534 0.10526 0.81857 0.0
H498 H 0.05074 0.03337 0.77528 0.0
H499 H 0.07063 0.97475 0.73396 0.0
H500 H 0.15314 1.00568 0.71958 0.0
H501 H 0.15785 0.07359 0.76344 0.0
C502 C 0.11944 0.10248 0.79951 0.0
C503 C 0.0973 0.11779 0.81562 0.0
C504 C 0.11687 0.06431 0.77413 0.0
C505 C 0.0726 0.0936 0.80641 0.0
C506 C 0.07 0.05265 0.78171 0.0
C507 C 0.08958 0.99681 0.74045 0.0
C508 C 0.11155 0.98477 0.72375 0.0
C509 C 0.092 0.03769 0.76538 0.0
C510 C 0.13596 1.01441 0.73212 0.0
C511 C 0.13868 0.05286 0.75724 0.0
H512 H 0.57402 0.42485 0.3026 0.0
H513 H 0.65555 0.46138 0.32039 0.0
H514 H 0.66234 0.52278 0.27562 0.0
H515 H 0.64487 0.56848 0.23138 0.0
H516 H 0.56248 0.54564 0.21571 0.0
H517 H 0.5562 0.47593 0.25927 0.0
C518 C 0.59324 0.44633 0.29661 0.0
C519 C 0.61427 0.43824 0.3147 0.0
C520 C 0.59685 0.48362 0.27108 0.0
C521 C 0.63903 0.46711 0.30685 0.0
C522 C 0.64295 0.50194 0.2812 0.0
C523 C 0.62563 0.54739 0.23748 0.0
C524 C 0.60419 0.56108 0.22033 0.0
C525 C 0.62201 0.5106 0.26311 0.0
C526 C 0.57925 0.53528 0.22861 0.0
C527 C 0.57566 0.49565 0.25352 0.0
H528 H 0.34167 0.63566 0.3029 0.0
H529 H 0.42321 0.59232 0.31867 0.0
H530 H 0.42765 0.52094 0.27532 0.0
H531 H 0.40849 0.47255 0.23256 0.0
H532 H 0.3281 0.52768 0.2144 0.0
H533 H 0.32304 0.59369 0.25866 0.0
C534 C 0.36031 0.61002 0.2968 0.0
C535 C 0.38205 0.61814 0.31396 0.0
C536 C 0.36294 0.57199 0.2713 0.0
C537 C 0.40625 0.58639 0.30573 0.0
C538 C 0.40878 0.54575 0.28097 0.0
C539 C 0.38988 0.49915 0.23831 0.0
C540 C 0.36864 0.4947 0.22035 0.0
C541 C 0.38731 0.53856 0.26351 0.0
C542 C 0.34473 0.53028 0.22789 0.0
C543 C 0.34181 0.56775 0.25324 0.0
H544 H 0.36583 0.56676 0.81831 0.0
H545 H 0.36242 0.32239 0.78594 0.0
H546 H 0.36142 0.37657 0.73989 0.0
H547 H 0.36359 0.49345 0.70839 0.0
H548 H 0.36883 0.73765 0.74036 0.0
H549 H 0.36709 0.6842 0.7866 0.0
C550 C 0.36462 0.52571 0.80115 0.0
C551 C 0.36419 0.44083 0.80553 0.0
C552 C 0.36454 0.5573 0.77451 0.0
C553 C 0.36284 0.38811 0.7831 0.0
C554 C 0.36228 0.41896 0.75671 0.0
C555 C 0.36405 0.53473 0.72548 0.0
C556 C 0.36624 0.61916 0.72095 0.0
C557 C 0.36342 0.50342 0.7521 0.0
C558 C 0.36719 0.67218 0.74332 0.0
C559 C 0.36618 0.64172 0.76981 0.0
H560 H 0.61489 0.47244 0.82416 0.0
H561 H 0.62104 0.71571 0.79089 0.0
H562 H 0.62116 0.66075 0.74496 0.0
H563 H 0.61781 0.5434 0.71375 0.0
H564 H 0.6087 0.3009 0.74692 0.0
H565 H 0.61139 0.35498 0.79289 0.0
C566 C 0.61649 0.51307 0.80682 0.0
C567 C 0.61805 0.59792 0.81092 0.0
C568 C 0.61582 0.48111 0.78027 0.0
C569 C 0.61979 0.65007 0.78826 0.0
C570 C 0.61983 0.61873 0.76194 0.0
C571 C 0.61653 0.50261 0.73108 0.0
C572 C 0.61306 0.41836 0.72692 0.0
C573 C 0.61757 0.53439 0.75762 0.0
C574 C 0.61126 0.36616 0.74957 0.0
C575 C 0.61284 0.39698 0.77592 0.0
H576 H 0.09145 0.17874 0.97757 0.0
H577 H 0.17377 0.14959 0.96236 0.0
H578 H 0.18278 0.15773 1.01083 0.0
H579 H 0.16641 0.147 0.05754 0.0
H580 H 0.08409 0.17393 0.07353 0.0
H581 H 0.07583 0.19367 0.02507 0.0
C582 C 0.1114 0.17812 0.9849 0.0
C583 C 0.132 0.16468 0.96651 0.0
C584 C 0.11633 0.18014 1.01303 0.0
C585 C 0.15772 0.1613 0.97619 0.0
C586 C 0.16282 0.16481 1.00393 0.0
C587 C 0.14676 0.15914 0.05043 0.0
C588 C 0.12587 0.15768 0.06895 0.0
C589 C 0.14218 0.1701 0.02257 0.0
C590 C 0.1005 0.17436 0.05961 0.0
C591 C 0.09575 0.18527 0.03187 0.0
H592 H 0.81544 0.90704 0.97625 0.0
H593 H 0.89835 0.87019 0.96778 0.0
H594 H 0.90292 0.86511 1.01728 0.0
H595 H 0.88377 0.89159 0.06301 0.0
H596 H 0.80073 0.93174 0.06996 0.0
H597 H 0.79571 0.9139 0.02129 0.0
C598 C 0.83443 0.89603 0.98526 0.0
C599 C 0.85653 0.88981 0.96848 0.0
C600 C 0.8369 0.89466 1.01358 0.0
C601 C 0.88102 0.87503 0.98032 0.0
C602 C 0.88365 0.87284 1.00864 0.0
C603 C 0.86455 0.89438 0.05387 0.0
C604 C 0.84267 0.91403 0.07 0.0
C605 C 0.86182 0.88556 0.02552 0.0
C606 C 0.81789 0.91761 0.05793 0.0
C607 C 0.81499 0.9076 0.03007 0.0
H608 H 0.07965 0.92438 0.48019 0.0
H609 H 0.16063 0.86976 0.46519 0.0
H610 H 0.16814 0.85297 0.51386 0.0
H611 H 0.15341 0.88286 0.56057 0.0
H612 H 0.07248 0.93805 0.5756 0.0
H613 H 0.06286 0.92389 0.52727 0.0
C614 C 0.0986 0.90494 0.4876 0.0
C615 C 0.11952 0.89727 0.46927 0.0
C616 C 0.10279 0.89683 0.51568 0.0
C617 C 0.14418 0.8743 0.47898 0.0
C618 C 0.14852 0.8658 0.50683 0.0
C619 C 0.13349 0.88791 0.55332 0.0
C620 C 0.11359 0.91047 0.57149 0.0
C621 C 0.12826 0.88087 0.52542 0.0
C622 C 0.08795 0.91908 0.56196 0.0
C623 C 0.08254 0.91201 0.53428 0.0
H624 H 0.88383 0.1287 0.56172 0.0
H625 H 0.80018 0.1015 0.56733 0.0
H626 H 0.79619 0.11975 0.51854 0.0
H627 H 0.81673 0.12195 0.47384 0.0
H628 H 0.90021 0.14648 0.46663 0.0
H629 H 0.90409 0.15198 0.51621 0.0
C630 C 0.86474 0.12915 0.55226 0.0
C631 C 0.84231 0.11292 0.56804 0.0
C632 C 0.8626 0.13797 0.52383 0.0
C633 C 0.8177 0.11318 0.55556 0.0
C634 C 0.8154 0.12329 0.52763 0.0
C635 C 0.83572 0.1304 0.48314 0.0
C636 C 0.85814 0.13296 0.46672 0.0
C637 C 0.83775 0.13237 0.51148 0.0
C638 C 0.88263 0.14449 0.47891 0.0
C639 C 0.88486 0.14696 0.50727 0.0
H640 H 0.59599 0.62906 0.0616 0.0
H641 H 0.67878 0.60002 0.07338 0.0
H642 H 0.68648 0.61739 0.02487 0.0
H643 H 0.66908 0.61639 0.97861 0.0
H644 H 0.58634 0.64326 0.96579 0.0
H645 H 0.57914 0.6522 1.01484 0.0
C646 C 0.61574 0.63023 0.05358 0.0
C647 C 0.63687 0.61438 0.07101 0.0
C648 C 0.61995 0.63784 0.02533 0.0
C649 C 0.66232 0.6134 0.06035 0.0
C650 C 0.66669 0.62234 0.03256 0.0
C651 C 0.64955 0.62624 0.98657 0.0
C652 C 0.62827 0.62815 0.96866 0.0
C653 C 0.64559 0.63081 1.01475 0.0
C654 C 0.60307 0.64148 0.97916 0.0
C655 C 0.59893 0.6461 1.00726 0.0
H656 H 0.40329 0.46519 0.97574 0.0
H657 H 0.32576 0.37985 0.95723 0.0
H658 H 0.31624 0.36384 1.0056 0.0
H659 H 0.32829 0.39116 0.05329 0.0
H660 H 0.40689 0.46634 0.07181 0.0
H661 H 0.41787 0.46818 0.02351 0.0
C662 C 0.38457 0.44112 0.98237 0.0
C663 C 0.3652 0.42421 0.96306 0.0
C664 C 0.37938 0.43094 1.01023 0.0
C665 C 0.34102 0.39289 0.97176 0.0
C666 C 0.3355 0.38433 0.99942 0.0
C667 C 0.34799 0.40581 0.04669 0.0
C668 C 0.36672 0.42892 0.06598 0.0
C669 C 0.35426 0.40558 0.01887 0.0
C670 C 0.39219 0.44781 0.05732 0.0
C671 C 0.39842 0.44951 0.02968 0.0
H672 H 0.66393 0.37034 0.478 0.0
H673 H 0.58031 0.36578 0.46915 0.0
H674 H 0.5751 0.36038 0.51866 0.0
H675 H 0.59475 0.37834 0.56464 0.0
H676 H 0.67864 0.3871 0.57178 0.0
H677 H 0.68336 0.36798 0.52309 0.0
C678 C 0.64456 0.36609 0.48692 0.0
C679 C 0.62257 0.369 0.47002 0.0
C680 C 0.6418 0.36453 0.51524 0.0
C681 C 0.59757 0.36324 0.48176 0.0
C682 C 0.59461 0.36093 0.5101 0.0
C683 C 0.614 0.37361 0.55554 0.0
C684 C 0.63637 0.38465 0.57175 0.0
C685 C 0.6166 0.36455 0.52712 0.0
C686 C 0.66118 0.37923 0.5597 0.0
C687 C 0.66391 0.36864 0.53182 0.0
H688 H 0.38506 0.66253 0.56143 0.0
H689 H 0.30167 0.62824 0.56721 0.0
H690 H 0.29742 0.64694 0.51847 0.0
H691 H 0.31781 0.65243 0.47367 0.0
H692 H 0.40103 0.68459 0.46639 0.0
H693 H 0.40498 0.68851 0.51596 0.0
C694 C 0.36595 0.6614 0.55203 0.0
C695 C 0.34372 0.64305 0.56785 0.0
C696 C 0.36365 0.67065 0.52363 0.0
C697 C 0.31908 0.64145 0.55542 0.0
C698 C 0.31662 0.65185 0.52751 0.0
C699 C 0.33674 0.6621 0.48296 0.0
C700 C 0.35909 0.66734 0.46649 0.0
C701 C 0.33884 0.66324 0.51132 0.0
C702 C 0.38351 0.68046 0.47869 0.0
C703 C 0.38578 0.68207 0.50704 0.0
H704 H 0.96047 0.89314 0.1404 0.0
H705 H 0.93124 0.13745 0.12726 0.0
H706 H 0.97562 0.19154 0.12801 0.0
H707 H 0.02279 0.17044 0.13427 0.0
H708 H 0.0516 0.92588 0.1488 0.0
H709 H 0.00758 0.87171 0.14572 0.0
C710 C 0.96387 0.95799 0.13733 0.0
C711 C 0.94261 1.01101 0.13377 0.0
C712 C 0.98943 0.98912 0.13832 0.0
C713 C 0.94729 0.09519 0.13015 0.0
C714 C 0.97267 0.12634 0.13062 0.0
C715 C 0.01945 0.10536 0.13676 0.0
C716 C 0.04058 0.05279 0.14185 0.0
C717 C -0.0061 0.07406 0.13509 0.0
C718 C 0.0358 0.96835 0.14494 0.0
C719 C 0.01056 0.9369 0.14313 0.0
H720 H 0.94306 0.94134 0.39278 0.0
H721 H 0.95979 0.20029 0.39587 0.0
H722 H 0.00637 0.17161 0.397 0.0
H723 H 0.04217 0.07459 0.39604 0.0
H724 H 0.02653 0.81526 0.39327 0.0
H725 H 0.97948 0.84279 0.39333 0.0
C726 C 0.95689 0.99149 0.39372 0.0
C727 C 0.94793 0.07285 0.3941 0.0
C728 C 0.98376 0.97464 0.39445 0.0
C729 C 0.96611 0.13708 0.39555 0.0
C730 C -0.00722 0.12083 0.39617 0.0
C731 C 0.02855 0.02381 0.39541 0.0
C732 C 0.03782 0.94301 0.39439 0.0
C733 C 0.00177 0.04002 0.39544 0.0
C734 C 0.01986 0.87806 0.39403 0.0
C735 C -0.00701 0.89378 0.39398 0.0
H736 H 0.04182 0.973 0.89475 0.0
H737 H 0.02197 0.22807 0.90398 0.0
H738 H 0.97553 0.19332 0.90377 0.0
H739 H 0.94067 0.09089 0.89933 0.0
H740 H 0.96093 0.83583 0.89083 0.0
H741 H 0.00723 0.87052 0.89231 0.0
C742 C 0.02737 1.02112 0.89679 0.0
C743 C 0.03534 0.10306 0.89918 0.0
C744 C 0.0008 1.00079 0.89664 0.0
C745 C 0.01636 0.16447 0.90214 0.0
C746 C 0.9898 0.1447 0.9019 0.0
C747 C 0.95522 0.0429 0.89776 0.0
C748 C 0.94737 0.96098 0.89477 0.0
C749 C 0.98182 0.06315 0.89885 0.0
C750 C 0.96644 0.89939 0.89314 0.0
C751 C -0.00708 0.91913 0.89395 0.0
H752 H 0.95632 0.14188 0.63482 0.0
H753 H 0.93134 0.88971 0.6378 0.0
H754 H 0.97665 0.84452 0.6372 0.0
H755 H 0.02352 0.87616 0.63795 0.0
H756 H 0.0485 0.12837 0.63626 0.0
H757 H 0.00321 0.1734 0.63407 0.0
C758 C 0.96076 0.07704 0.63514 0.0
C759 C 0.94038 1.01952 0.63649 0.0
C760 C 0.98695 0.05118 0.6351 0.0
C761 C 0.94658 0.93563 0.63696 0.0
C762 C 0.97254 0.90952 0.63658 0.0
C763 C 0.01908 0.94093 0.63684 0.0
C764 C 0.03944 0.9986 0.6374 0.0
C765 C -0.0071 0.96672 0.63596 0.0
C766 C 0.03326 0.08241 0.63607 0.0
C767 C 0.00732 0.10841 0.6348 0.0
H768 H 0.46122 0.39366 0.1323 0.0
H769 H 0.43638 0.64518 0.13927 0.0
H770 H 0.48159 0.69073 0.13677 0.0
H771 H 0.52838 0.65928 0.13513 0.0
H772 H 0.55337 0.40772 0.12949 0.0
H773 H 0.508 0.36258 0.12867 0.0
C774 C 0.46566 0.45845 0.13312 0.0
C775 C 0.44538 0.51564 0.13615 0.0
C776 C 0.4918 0.48449 0.13191 0.0
C777 C 0.45155 0.59949 0.13713 0.0
C778 C 0.47745 0.62582 0.13566 0.0
C779 C 0.52392 0.59468 0.13333 0.0
C780 C 0.54427 0.5371 0.13247 0.0
C781 C 0.49775 0.56885 0.13337 0.0
C782 C 0.5381 0.45349 0.13035 0.0
C783 C 0.51213 0.42748 0.12992 0.0
H784 H 0.44209 0.47066 0.39565 0.0
H785 H 0.46416 0.72566 0.39494 0.0
H786 H 0.51018 0.68731 0.39744 0.0
H787 H 0.54395 0.58181 0.39845 0.0
H788 H 0.52193 0.32673 0.39947 0.0
H789 H 0.47585 0.3651 0.39846 0.0
C790 C 0.45695 0.51796 0.39602 0.0
C791 C 0.44974 0.60088 0.3949 0.0
C792 C 0.48329 0.49556 0.39758 0.0
C793 C 0.4692 0.66137 0.39575 0.0
C794 C 0.49551 0.63953 0.39715 0.0
C795 C 0.52911 0.53444 0.39855 0.0
C796 C 0.53637 0.4515 0.39887 0.0
C797 C 0.50274 0.55684 0.39789 0.0
C798 C 0.51687 0.39103 0.39923 0.0
C799 C 0.49053 0.41289 0.39856 0.0
H800 H 0.46003 0.38111 0.88883 0.0
H801 H 0.43211 0.63022 0.88712 0.0
H802 H 0.47664 0.68115 0.88851 0.0
H803 H 0.52373 0.65596 0.8892 0.0
H804 H 0.55202 0.40713 0.88979 0.0
H805 H 0.50743 0.35587 0.88981 0.0
C806 C 0.46375 0.44641 0.88892 0.0
C807 C 0.44279 0.50147 0.88772 0.0
C808 C 0.48956 0.47578 0.88938 0.0
C809 C 0.4479 0.58616 0.88773 0.0
C810 C 0.47339 0.61563 0.88859 0.0
C811 C 0.52015 0.59057 0.88938 0.0
C812 C 0.54124 0.53586 0.88938 0.0
C813 C 0.4944 0.5611 0.8892 0.0
C814 C 0.5362 0.45108 0.88958 0.0
C815 C 0.51065 0.4214 0.88967 0.0
H816 H 0.46048 0.65744 0.64641 0.0
H817 H 0.43011 0.42349 0.62142 0.0
H818 H 0.47387 0.36511 0.62224 0.0
H819 H 0.52088 0.37859 0.63161 0.0
H820 H 0.55089 0.61243 0.65763 0.0
H821 H 0.50754 0.67157 0.65495 0.0
C822 C 0.46353 0.59406 0.64079 0.0
C823 C 0.44204 0.54513 0.63391 0.0
C824 C 0.48878 0.5601 0.64178 0.0
C825 C 0.44629 0.46265 0.62698 0.0
C826 C 0.47134 0.42896 0.62747 0.0
C827 C 0.51794 0.44235 0.63676 0.0
C828 C 0.53928 0.49034 0.64488 0.0
C829 C 0.49274 0.47672 0.63521 0.0
C830 C 0.53498 0.5733 0.65133 0.0
C831 C 0.51009 0.60769 0.64976 0.0
H832 H 0.11451 0.75956 0.111 0.0
H833 H 0.14625 0.77961 0.19151 0.0
H834 H 0.14074 0.63219 0.19831 0.0
H835 H 0.1267 0.49708 0.18141 0.0
H836 H 0.09483 0.47723 0.10095 0.0
H837 H 0.10031 0.62464 0.09418 0.0
C838 C 0.12038 0.73153 0.12996 0.0
C839 C 0.13097 0.78052 0.15065 0.0
C840 C 0.11689 0.64669 0.13382 0.0
C841 C 0.13823 0.74332 0.1752 0.0
C842 C 0.13498 0.659 0.17913 0.0
C843 C 0.12079 0.52516 0.16246 0.0
C844 C 0.11022 0.47617 0.14175 0.0
C845 C 0.12423 0.61005 0.15863 0.0
C846 C 0.10287 0.51347 0.11725 0.0
C847 C 0.1061 0.59779 0.11334 0.0
H848 H 0.86663 0.3029 0.11041 0.0
H849 H 0.84135 0.28579 0.19364 0.0
H850 H 0.84706 0.43366 0.19892 0.0
H851 H 0.85954 0.56833 0.17993 0.0
H852 H 0.88493 0.58529 0.09673 0.0
H853 H 0.87913 0.43749 0.09144 0.0
C854 C 0.86222 0.33162 0.12967 0.0
C855 C 0.85342 0.28319 0.15159 0.0
C856 C 0.8658 0.41679 0.13261 0.0
C857 C 0.84801 0.32146 0.17643 0.0
C858 C 0.85137 0.40609 0.17947 0.0
C859 C 0.86396 0.53958 0.16068 0.0
C860 C 0.87282 0.58796 0.13877 0.0
C861 C 0.86037 0.45441 0.15774 0.0
C862 C 0.87823 0.54966 0.11394 0.0
C863 C 0.87482 0.46507 0.11089 0.0
H864 H 0.15901 0.28842 0.38727 0.0
H865 H 0.07695 0.25006 0.37247 0.0
H866 H 0.06935 0.39745 0.37297 0.0
H867 H 0.0859 0.5374 0.37893 0.0
H868 H 0.16844 0.57669 0.38983 0.0
H869 H 0.1761 0.42899 0.38973 0.0
C870 C 0.13956 0.31268 0.38394 0.0
C871 C 0.11856 0.25912 0.37998 0.0
C872 C 0.13541 0.39744 0.38381 0.0
C873 C 0.09343 0.29061 0.37547 0.0
C874 C 0.08903 0.37471 0.37591 0.0
C875 C 0.10549 0.51322 0.38134 0.0
C876 C 0.12654 0.56683 0.38471 0.0
C877 C 0.10982 0.42865 0.38035 0.0
C878 C 0.15197 0.53579 0.38731 0.0
C879 C 0.15635 0.45161 0.38723 0.0
H880 H 0.87109 0.49157 0.35207 0.0
H881 H 0.87075 0.46438 0.439 0.0
H882 H 0.86513 0.61204 0.44424 0.0
H883 H 0.86017 0.74913 0.42412 0.0
H884 H 0.86055 0.77684 0.33722 0.0
H885 H 0.86612 0.62902 0.33191 0.0
C886 C 0.86992 0.51813 0.37215 0.0
C887 C 0.87145 0.46721 0.39513 0.0
C888 C 0.86652 0.60315 0.37499 0.0
C889 C 0.86975 0.50233 0.42101 0.0
C890 C 0.86645 0.58674 0.42401 0.0
C891 C 0.86134 0.72269 0.40403 0.0
C892 C 0.85984 0.77374 0.38109 0.0
C893 C 0.86473 0.63774 0.40116 0.0
C894 C 0.86153 0.73875 0.35518 0.0
C895 C 0.8648 0.65427 0.35215 0.0
H896 H 0.87726 0.27466 0.92354 0.0
H897 H 0.8365 0.25631 0.84748 0.0
H898 H 0.8393 0.40474 0.84148 0.0
H899 H 0.85354 0.53983 0.85781 0.0
H900 H 0.89426 0.55818 0.93389 0.0
H901 H 0.89145 0.40975 0.93989 0.0
C902 C 0.86889 0.30328 0.90571 0.0
C903 C 0.85658 0.25473 0.88602 0.0
C904 C 0.87073 0.38857 0.90235 0.0
C905 C 0.84596 0.29247 0.86297 0.0
C906 C 0.84763 0.37728 0.8595 0.0
C907 C 0.86189 0.51122 0.87564 0.0
C908 C 0.87418 0.55978 0.89535 0.0
C909 C 0.86003 0.42593 0.87901 0.0
C910 C 0.88478 0.52203 0.91841 0.0
C911 C 0.88312 0.43722 0.92187 0.0
H912 H 0.13447 0.52022 0.8583 0.0
H913 H 0.07884 0.51046 0.9241 0.0
H914 H 0.07912 0.65973 0.927 0.0
H915 H 0.09534 0.79204 0.91112 0.0
H916 H 0.15223 0.80369 0.84658 0.0
H917 H 0.15139 0.65398 0.84281 0.0
C918 C 0.12237 0.55097 0.8732 0.0
C919 C 0.10655 0.50483 0.89091 0.0
C920 C 0.12293 0.63667 0.87496 0.0
C921 C 0.09113 0.54495 0.91028 0.0
C922 C 0.09129 0.63013 0.91192 0.0
C923 C 0.10754 0.76185 0.89617 0.0
C924 C 0.12378 0.80845 0.87907 0.0
C925 C 0.10713 0.67643 0.89441 0.0
C926 C 0.13959 0.76878 0.85993 0.0
C927 C 0.13908 0.6834 0.8578 0.0
H928 H 0.86934 0.71891 0.60985 0.0
H929 H 0.83027 0.73474 0.68719 0.0
H930 H 0.83423 0.58654 0.69311 0.0
H931 H 0.84911 0.45229 0.67644 0.0
H932 H 0.88799 0.43612 0.59902 0.0
H933 H 0.884 0.58437 0.59304 0.0
C934 C 0.86157 0.6898 0.62793 0.0
C935 C 0.84941 0.73775 0.64801 0.0
C936 C 0.86407 0.60451 0.63125 0.0
C937 C 0.83958 0.69921 0.67138 0.0
C938 C 0.84193 0.61447 0.67481 0.0
C939 C 0.85682 0.48131 0.65832 0.0
C940 C 0.86897 0.43329 0.63825 0.0
C941 C 0.85424 0.56652 0.65494 0.0
C942 C 0.87867 0.47171 0.6148 0.0
C943 C 0.87632 0.55647 0.61136 0.0
H944 H 0.09923 0.29173 0.67754 0.0
H945 H 0.16707 0.29118 0.62551 0.0
H946 H 0.16419 0.43982 0.62061 0.0
H947 H 0.14171 0.57008 0.63016 0.0
H948 H 0.07442 0.57127 0.6829 0.0
H949 H 0.07754 0.42266 0.68824 0.0
C950 C 0.11354 0.32431 0.66536 0.0
C951 C 0.13339 0.28042 0.65196 0.0
C952 C 0.11163 0.40991 0.66247 0.0
C953 C 0.15168 0.32348 0.63614 0.0
C954 C 0.14995 0.40849 0.6332 0.0
C955 C 0.12763 0.53764 0.64267 0.0
C956 C 0.10767 0.58149 0.65589 0.0
C957 C 0.12985 0.45229 0.64602 0.0
C958 C 0.08984 0.53884 0.67237 0.0
C959 C 0.09168 0.45388 0.67551 0.0
H960 H 0.60907 0.97551 0.18614 0.0
H961 H 0.62597 0.95313 0.10083 0.0
H962 H 0.63624 0.0991 0.09833 0.0
H963 H 0.64062 0.23332 0.12042 0.0
H964 H 0.6205 0.25858 0.20483 0.0
H965 H 0.61164 0.11138 0.20785 0.0
C966 C 0.61482 1.00284 0.16698 0.0
C967 C 0.61673 0.95361 0.14368 0.0
C968 C 0.62045 0.08714 0.16565 0.0
C969 C 0.62418 0.98977 0.119 0.0
C970 C 0.63022 0.07316 0.1176 0.0
C971 C 0.63459 0.2063 0.13955 0.0
C972 C 0.63164 0.25629 0.16252 0.0
C973 C 0.62859 0.12234 0.14082 0.0
C974 C 0.62318 0.22104 0.18698 0.0
C975 C 0.61799 0.13703 0.18866 0.0
H976 H 0.38027 0.80934 0.17359 0.0
H977 H 0.32712 0.80374 0.10607 0.0
H978 H 0.33037 0.9524 0.1014 0.0
H979 H 0.34861 0.08508 0.11625 0.0
H980 H 0.40179 0.09083 0.18373 0.0
H981 H 0.39847 0.94215 0.18848 0.0
C982 C 0.36927 0.84077 0.15798 0.0
C983 C 0.35334 0.79518 0.14029 0.0
C984 C 0.37144 0.92668 0.15522 0.0
C985 C 0.33942 0.83706 0.12003 0.0
C986 C 0.34135 0.92225 0.11728 0.0
C987 C 0.3596 0.05369 0.13187 0.0
C988 C 0.37557 0.0993 0.14951 0.0
C989 C 0.3574 0.96782 0.13465 0.0
C990 C 0.38946 0.05748 0.1698 0.0
C991 C 0.3875 0.97229 0.17259 0.0
H992 H 0.63372 0.03053 0.41984 0.0
H993 H 0.58238 0.04018 0.35087 0.0
H994 H 0.58493 0.89145 0.34624 0.0
H995 H 0.60191 0.75756 0.36173 0.0
H996 H 0.65314 0.74816 0.43081 0.0
H997 H 0.65067 0.89684 0.43531 0.0
C998 C 0.62298 0.99997 0.4039 0.0
C999 C 0.60777 0.04657 0.3858 0.0
C1000 C 0.62469 0.91413 0.40124 0.0
C1001 C 0.59414 1.00593 0.36514 0.0
C1002 C 0.59566 0.92075 0.36243 0.0
C1003 C 0.61265 0.78819 0.37765 0.0
C1004 C 0.6278 0.74164 0.39583 0.0
C1005 C 0.61095 0.87408 0.38029 0.0
C1006 C 0.64142 0.78235 0.41648 0.0
C1007 C 0.63996 0.86752 0.41913 0.0
H1008 H 0.36091 0.0247 0.3532 0.0
H1009 H 0.39167 1.00498 0.43419 0.0
H1010 H 0.38814 0.15323 0.43976 0.0
H1011 H 0.37606 0.28861 0.42173 0.0
H1012 H 0.34553 0.30898 0.34068 0.0
H1013 H 0.34903 0.16057 0.33504 0.0
C1014 C 0.36695 0.05299 0.37202 0.0
C1015 C 0.37662 1.00395 0.39324 0.0
C1016 C 0.36473 0.13835 0.37511 0.0
C1017 C 0.38425 0.04138 0.41753 0.0
C1018 C 0.38216 0.12614 0.42075 0.0
C1019 C 0.37007 0.26048 0.40287 0.0
C1020 C 0.36044 0.30967 0.38168 0.0
C1021 C 0.37235 0.17522 0.39973 0.0
C1022 C 0.35292 0.27243 0.35731 0.0
C1023 C 0.35498 0.18759 0.35407 0.0
H1024 H 0.38602 0.79648 0.86649 0.0
H1025 H 0.31154 0.79042 0.90743 0.0
H1026 H 0.31378 0.93862 0.91458 0.0
H1027 H 0.33715 0.07011 0.90924 0.0
H1028 H 0.41241 0.07412 0.86972 0.0
H1029 H 0.40991 0.92649 0.86243 0.0
C1030 C 0.37015 0.82777 0.87673 0.0
C1031 C 0.34846 0.78281 0.8861 0.0
C1032 C 0.37195 0.91245 0.8814 0.0
C1033 C 0.32831 0.82387 0.89981 0.0
C1034 C 0.32967 0.90849 0.90403 0.0
C1035 C 0.35313 0.03843 0.89932 0.0
C1036 C 0.37501 0.08301 0.89013 0.0
C1037 C 0.35148 0.95338 0.89506 0.0
C1038 C 0.39546 0.04122 0.87714 0.0
C1039 C 0.39395 0.95684 0.8728 0.0
H1040 H 0.59839 0.24623 0.91641 0.0
H1041 H 0.66567 0.25205 0.8636 0.0
H1042 H 0.66508 0.10265 0.86074 0.0
H1043 H 0.64535 0.97105 0.87298 0.0
H1044 H 0.57687 0.96373 0.92403 0.0
H1045 H 0.5779 0.11345 0.92788 0.0
C1046 C 0.61296 0.21463 0.90436 0.0
C1047 C 0.63219 0.25988 0.89034 0.0
C1048 C 0.6122 0.12879 0.90247 0.0
C1049 C 0.65076 0.21846 0.87458 0.0
C1050 C 0.6504 0.13313 0.87295 0.0
C1051 C 0.63063 1.00217 0.88499 0.0
C1052 C 0.61109 0.95654 0.89831 0.0
C1053 C 0.63121 0.08779 0.88676 0.0
C1054 C 0.59208 0.99764 0.91362 0.0
C1055 C 0.59271 0.0831 0.91582 0.0
H1056 H 0.37857 0.98975 0.67032 0.0
H1057 H 0.36164 0.96717 0.58521 0.0
H1058 H 0.35275 0.11438 0.58245 0.0
H1059 H 0.3493 0.24956 0.60453 0.0
H1060 H 0.3628 0.26939 0.69044 0.0
H1061 H 0.37313 0.12336 0.69277 0.0
C1062 C 0.37324 1.01736 0.65111 0.0
C1063 C 0.37124 0.96806 0.62785 0.0
C1064 C 0.36717 0.10136 0.64996 0.0
C1065 C 0.36362 1.00411 0.60327 0.0
C1066 C 0.35841 0.08815 0.60175 0.0
C1067 C 0.35432 0.22168 0.62378 0.0
C1068 C 0.35526 0.27025 0.6473 0.0
C1069 C 0.35995 0.13733 0.625 0.0
C1070 C 0.36175 0.2333 0.6721 0.0
C1071 C 0.36783 0.14986 0.6734 0.0
H1072 H 0.59867 0.77129 0.62024 0.0
H1073 H 0.66112 0.76791 0.67868 0.0
H1074 H 0.65967 0.91731 0.68147 0.0
H1075 H 0.64057 0.04826 0.66756 0.0
H1076 H 0.57682 0.05316 0.6107 0.0
H1077 H 0.57873 0.90344 0.60703 0.0
C1078 C 0.61202 0.8034 0.63351 0.0
C1079 C 0.63014 0.75874 0.64913 0.0
C1080 C 0.61073 0.88928 0.63533 0.0
C1081 C 0.64709 0.80093 0.66645 0.0
C1082 C 0.64623 0.88629 0.66804 0.0
C1083 C 0.62706 1.01665 0.65433 0.0
C1084 C 0.60859 0.06169 0.63933 0.0
C1085 C 0.62813 0.93098 0.65262 0.0
C1086 C 0.59117 1.01982 0.62243 0.0
C1087 C 0.59231 0.93432 0.62033 0.0
loop_
_geom_bond_atom_site_label_1
_geom_bond_atom_site_label_2
_geom_bond_distance
_geom_bond_site_symmetry_2
_ccdc_geom_bond_type
Dy0 O4 2.398 . S
Dy0 O5 2.491 . S
Dy0 O6 2.403 1_565 S
Dy0 O7 2.664 1_565 S
Dy0 O11 2.326 . S
Dy0 O15 2.310 1_565 S
Dy0 O16 2.351 1_565 S
C1 O12 1.185 . S
C1 O13 1.355 . S
C2 O4 1.185 . S
C2 O5 1.355 . S
Dy3 O7 2.310 . S
Dy3 O10 2.351 . S
Dy3 O12 2.398 . S
Dy3 O13 2.491 . S
Dy3 O14 2.403 . S
Dy3 O15 2.664 . S
Dy3 O17 2.326 . S
O4 Dy0 2.398 . S
O4 C2 1.185 . S
O5 Dy0 2.491 . S
O5 C2 1.355 . S
O6 Dy0 2.403 1_545 S
O6 C8 1.254 . S
O7 Dy0 2.664 1_545 S
O7 Dy3 2.310 . S
O7 C8 1.268 . S
C8 O6 1.254 . S
C8 O7 1.268 . S
C9 O14 1.254 . S
C9 O15 1.268 . S
O10 Dy3 2.351 . S
O10 C18 1.249 . S
O11 Dy0 2.326 . S
O11 C18 1.267 1_565 S
O12 C1 1.185 . S
O12 Dy3 2.398 . S
O13 C1 1.355 . S
O13 Dy3 2.491 . S
O14 Dy3 2.403 . S
O14 C9 1.254 . S
O15 Dy0 2.310 1_545 S
O15 Dy3 2.664 . S
O15 C9 1.268 . S
O16 Dy0 2.351 1_545 S
O16 C19 1.249 . S
O17 Dy3 2.326 . S
O17 C19 1.267 . S
C18 O10 1.249 . S
C18 O11 1.267 1_545 S
C19 O16 1.249 . S
C19 O17 1.267 . S
Dy20 O24 2.398 . S
Dy20 O25 2.491 . S
Dy20 O26 2.403 1_545 S
Dy20 O27 2.664 1_545 S
Dy20 O31 2.326 . S
Dy20 O35 2.310 1_545 S
Dy20 O36 2.351 1_545 S
C21 O32 1.185 . S
C21 O33 1.355 . S
C22 O24 1.185 . S
C22 O25 1.355 . S
Dy23 O27 2.310 . S
Dy23 O30 2.351 . S
Dy23 O32 2.398 . S
Dy23 O33 2.491 . S
Dy23 O34 2.403 . S
Dy23 O35 2.664 . S
Dy23 O37 2.326 . S
O24 Dy20 2.398 . S
O24 C22 1.185 . S
O25 Dy20 2.491 . S
O25 C22 1.355 . S
O26 Dy20 2.403 1_565 S
O26 C28 1.254 . S
O27 Dy20 2.664 1_565 S
O27 Dy23 2.310 . S
O27 C28 1.268 . S
C28 O26 1.254 . S
C28 O27 1.268 . S
C29 O34 1.254 . S
C29 O35 1.268 . S
O30 Dy23 2.351 . S
O30 C38 1.249 . S
O31 Dy20 2.326 . S
O31 C38 1.267 1_545 S
O32 C21 1.185 . S
O32 Dy23 2.398 . S
O33 C21 1.355 . S
O33 Dy23 2.491 . S
O34 Dy23 2.403 . S
O34 C29 1.254 . S
O35 Dy20 2.310 1_565 S
O35 Dy23 2.664 . S
O35 C29 1.268 . S
O36 Dy20 2.351 1_565 S
O36 C39 1.249 . S
O37 Dy23 2.326 . S
O37 C39 1.267 . S
C38 O30 1.249 . S
C38 O31 1.267 1_565 S
C39 O36 1.249 . S
C39 O37 1.267 . S
Dy40 O44 2.398 . S
Dy40 O45 2.491 . S
Dy40 O46 2.403 1_545 S
Dy40 O47 2.664 1_545 S
Dy40 O51 2.326 . S
Dy40 O55 2.310 1_545 S
Dy40 O56 2.351 1_545 S
C41 O52 1.185 . S
C41 O53 1.355 . S
C42 O44 1.185 . S
C42 O45 1.355 . S
Dy43 O47 2.310 . S
Dy43 O50 2.351 . S
Dy43 O52 2.398 . S
Dy43 O53 2.491 . S
Dy43 O54 2.403 . S
Dy43 O55 2.664 . S
Dy43 O57 2.326 . S
O44 Dy40 2.398 . S
O44 C42 1.185 . S
O45 Dy40 2.491 . S
O45 C42 1.355 . S
O46 Dy40 2.403 1_565 S
O46 C48 1.254 . S
O47 Dy40 2.664 1_565 S
O47 Dy43 2.310 . S
O47 C48 1.268 . S
C48 O46 1.254 . S
C48 O47 1.268 . S
C49 O54 1.254 . S
C49 O55 1.268 . S
O50 Dy43 2.351 . S
O50 C58 1.249 . S
O51 Dy40 2.326 . S
O51 C58 1.267 1_545 S
O52 C41 1.185 . S
O52 Dy43 2.398 . S
O53 C41 1.355 . S
O53 Dy43 2.491 . S
O54 Dy43 2.403 . S
O54 C49 1.254 . S
O55 Dy40 2.310 1_565 S
O55 Dy43 2.664 . S
O55 C49 1.268 . S
O56 Dy40 2.351 1_565 S
O56 C59 1.249 . S
O57 Dy43 2.326 . S
O57 C59 1.267 . S
C58 O50 1.249 . S
C58 O51 1.267 1_565 S
C59 O56 1.249 . S
C59 O57 1.267 . S
Dy60 O64 2.398 . S
Dy60 O65 2.491 . S
Dy60 O66 2.403 1_565 S
Dy60 O67 2.664 1_565 S
Dy60 O71 2.326 . S
Dy60 O75 2.310 1_565 S
Dy60 O76 2.351 1_565 S
C61 O72 1.185 . S
C61 O73 1.355 . S
C62 O64 1.185 . S
C62 O65 1.355 . S
Dy63 O67 2.310 . S
Dy63 O70 2.351 . S
Dy63 O72 2.398 . S
Dy63 O73 2.491 . S
Dy63 O74 2.403 . S
Dy63 O75 2.664 . S
Dy63 O77 2.326 . S
O64 Dy60 2.398 . S
O64 C62 1.185 . S
O65 Dy60 2.491 . S
O65 C62 1.355 . S
O66 Dy60 2.403 1_545 S
O66 C68 1.254 . S
O67 Dy60 2.664 1_545 S
O67 Dy63 2.310 . S
O67 C68 1.268 . S
C68 O66 1.254 . S
C68 O67 1.268 . S
C69 O74 1.254 . S
C69 O75 1.268 . S
O70 Dy63 2.351 . S
O70 C78 1.249 . S
O71 Dy60 2.326 . S
O71 C78 1.267 1_565 S
O72 C61 1.185 . S
O72 Dy63 2.398 . S
O73 C61 1.355 . S
O73 Dy63 2.491 . S
O74 Dy63 2.403 . S
O74 C69 1.254 . S
O75 Dy60 2.310 1_545 S
O75 Dy63 2.664 . S
O75 C69 1.268 . S
O76 Dy60 2.351 1_545 S
O76 C79 1.249 . S
O77 Dy63 2.326 . S
O77 C79 1.267 . S
C78 O70 1.249 . S
C78 O71 1.267 1_545 S
C79 O76 1.249 . S
C79 O77 1.267 . S
Dy80 O84 2.398 . S
Dy80 O85 2.491 . S
Dy80 O86 2.403 . S
Dy80 O87 2.664 . S
Dy80 O91 2.326 . S
Dy80 O95 2.310 . S
Dy80 O96 2.351 . S
C81 O92 1.185 . S
C81 O93 1.355 . S
C82 O84 1.185 . S
C82 O85 1.355 . S
Dy83 O87 2.310 1_545 S
Dy83 O90 2.351 1_545 S
Dy83 O92 2.398 . S
Dy83 O93 2.491 . S
Dy83 O94 2.403 1_545 S
Dy83 O95 2.664 1_545 S
Dy83 O97 2.326 . S
O84 Dy80 2.398 . S
O84 C82 1.185 . S
O85 Dy80 2.491 . S
O85 C82 1.355 . S
O86 Dy80 2.403 . S
O86 C88 1.254 . S
O87 Dy80 2.664 . S
O87 Dy83 2.310 1_565 S
O87 C88 1.268 . S
C88 O86 1.254 . S
C88 O87 1.268 . S
C89 O94 1.254 . S
C89 O95 1.268 . S
O90 Dy83 2.351 1_565 S
O90 C98 1.249 . S
O91 Dy80 2.326 . S
O91 C98 1.267 . S
O92 C81 1.185 . S
O92 Dy83 2.398 . S
O93 C81 1.355 . S
O93 Dy83 2.491 . S
O94 Dy83 2.403 1_565 S
O94 C89 1.254 . S
O95 Dy80 2.310 . S
O95 Dy83 2.664 1_565 S
O95 C89 1.268 . S
O96 Dy80 2.351 . S
O96 C99 1.249 . S
O97 Dy83 2.326 . S
O97 C99 1.267 1_545 S
C98 O90 1.249 . S
C98 O91 1.267 . S
C99 O96 1.249 . S
C99 O97 1.267 1_565 S
Dy100 O104 2.398 . S
Dy100 O105 2.491 . S
Dy100 O106 2.403 . S
Dy100 O107 2.664 . S
Dy100 O111 2.326 . S
Dy100 O115 2.310 . S
Dy100 O116 2.351 . S
C101 O112 1.185 . S
C101 O113 1.355 . S
C102 O104 1.185 . S
C102 O105 1.355 . S
Dy103 O107 2.310 1_565 S
Dy103 O110 2.351 1_565 S
Dy103 O112 2.398 . S
Dy103 O113 2.491 . S
Dy103 O114 2.403 1_565 S
Dy103 O115 2.664 1_565 S
Dy103 O117 2.326 . S
O104 Dy100 2.398 . S
O104 C102 1.185 . S
O105 Dy100 2.491 . S
O105 C102 1.355 . S
O106 Dy100 2.403 . S
O106 C108 1.254 . S
O107 Dy100 2.664 . S
O107 Dy103 2.310 1_545 S
O107 C108 1.268 . S
C108 O106 1.254 . S
C108 O107 1.268 . S
C109 O114 1.254 . S
C109 O115 1.268 . S
O110 Dy103 2.351 1_545 S
O110 C118 1.249 . S
O111 Dy100 2.326 . S
O111 C118 1.267 . S
O112 C101 1.185 . S
O112 Dy103 2.398 . S
O113 C101 1.355 . S
O113 Dy103 2.491 . S
O114 Dy103 2.403 1_545 S
O114 C109 1.254 . S
O115 Dy100 2.310 . S
O115 Dy103 2.664 1_545 S
O115 C109 1.268 . S
O116 Dy100 2.351 . S
O116 C119 1.249 . S
O117 Dy103 2.326 . S
O117 C119 1.267 1_565 S
C118 O110 1.249 . S
C118 O111 1.267 . S
C119 O116 1.249 . S
C119 O117 1.267 1_545 S
Dy120 O124 2.398 . S
Dy120 O125 2.491 . S
Dy120 O126 2.403 . S
Dy120 O127 2.664 . S
Dy120 O131 2.326 . S
Dy120 O135 2.310 . S
Dy120 O136 2.351 . S
C121 O132 1.185 . S
C121 O133 1.355 . S
C122 O124 1.185 . S
C122 O125 1.355 . S
Dy123 O127 2.310 1_565 S
Dy123 O130 2.351 1_565 S
Dy123 O132 2.398 . S
Dy123 O133 2.491 . S
Dy123 O134 2.403 1_565 S
Dy123 O135 2.664 1_565 S
Dy123 O137 2.326 . S
O124 Dy120 2.398 . S
O124 C122 1.185 . S
O125 Dy120 2.491 . S
O125 C122 1.355 . S
O126 Dy120 2.403 . S
O126 C128 1.254 . S
O127 Dy120 2.664 . S
O127 Dy123 2.310 1_545 S
O127 C128 1.268 . S
C128 O126 1.254 . S
C128 O127 1.268 . S
C129 O134 1.254 . S
C129 O135 1.268 . S
O130 Dy123 2.351 1_545 S
O130 C138 1.249 . S
O131 Dy120 2.326 . S
O131 C138 1.267 . S
O132 C121 1.185 . S
O132 Dy123 2.398 . S
O133 C121 1.355 . S
O133 Dy123 2.491 . S
O134 Dy123 2.403 1_545 S
O134 C129 1.254 . S
O135 Dy120 2.310 . S
O135 Dy123 2.664 1_545 S
O135 C129 1.268 . S
O136 Dy120 2.351 . S
O136 C139 1.249 . S
O137 Dy123 2.326 . S
O137 C139 1.267 1_565 S
C138 O130 1.249 . S
C138 O131 1.267 . S
C139 O136 1.249 . S
C139 O137 1.267 1_545 S
Dy140 O144 2.398 . S
Dy140 O145 2.491 . S
Dy140 O146 2.403 . S
Dy140 O147 2.664 . S
Dy140 O151 2.326 . S
Dy140 O155 2.310 . S
Dy140 O156 2.351 . S
C141 O152 1.185 . S
C141 O153 1.355 . S
C142 O144 1.185 . S
C142 O145 1.355 . S
Dy143 O147 2.310 1_545 S
Dy143 O150 2.351 1_545 S
Dy143 O152 2.398 . S
Dy143 O153 2.491 . S
Dy143 O154 2.403 1_545 S
Dy143 O155 2.664 1_545 S
Dy143 O157 2.326 . S
O144 Dy140 2.398 . S
O144 C142 1.185 . S
O145 Dy140 2.491 . S
O145 C142 1.355 . S
O146 Dy140 2.403 . S
O146 C148 1.254 . S
O147 Dy140 2.664 . S
O147 Dy143 2.310 1_565 S
O147 C148 1.268 . S
C148 O146 1.254 . S
C148 O147 1.268 . S
C149 O154 1.254 . S
C149 O155 1.268 . S
O150 Dy143 2.351 1_565 S
O150 C158 1.249 . S
O151 Dy140 2.326 . S
O151 C158 1.267 . S
O152 C141 1.185 . S
O152 Dy143 2.398 . S
O153 C141 1.355 . S
O153 Dy143 2.491 . S
O154 Dy143 2.403 1_565 S
O154 C149 1.254 . S
O155 Dy140 2.310 . S
O155 Dy143 2.664 1_565 S
O155 C149 1.268 . S
O156 Dy140 2.351 . S
O156 C159 1.249 . S
O157 Dy143 2.326 . S
O157 C159 1.267 1_545 S
C158 O150 1.249 . S
C158 O151 1.267 . S
C159 O156 1.249 . S
C159 O157 1.267 1_565 S
Dy160 O164 2.398 . S
Dy160 O165 2.491 . S
Dy160 O166 2.403 . S
Dy160 O167 2.664 . S
Dy160 O171 2.326 . S
Dy160 O175 2.310 . S
Dy160 O176 2.351 . S
C161 O172 1.185 . S
C161 O173 1.355 . S
C162 O164 1.185 . S
C162 O165 1.355 . S
Dy163 O167 2.310 . S
Dy163 O170 2.351 . S
Dy163 O172 2.398 . S
Dy163 O173 2.491 . S
Dy163 O174 2.403 . S
Dy163 O175 2.664 . S
Dy163 O177 2.326 . S
O164 Dy160 2.398 . S
O164 C162 1.185 . S
O165 Dy160 2.491 . S
O165 C162 1.355 . S
O166 Dy160 2.403 . S
O166 C168 1.254 . S
O167 Dy160 2.664 . S
O167 Dy163 2.310 . S
O167 C168 1.268 . S
C168 O166 1.254 . S
C168 O167 1.268 . S
C169 O174 1.254 . S
C169 O175 1.268 . S
O170 Dy163 2.351 . S
O170 C178 1.249 . S
O171 Dy160 2.326 . S
O171 C178 1.267 . S
O172 C161 1.185 . S
O172 Dy163 2.398 . S
O173 C161 1.355 . S
O173 Dy163 2.491 . S
O174 Dy163 2.403 . S
O174 C169 1.254 . S
O175 Dy160 2.310 . S
O175 Dy163 2.664 . S
O175 C169 1.268 . S
O176 Dy160 2.351 . S
O176 C179 1.249 . S
O177 Dy163 2.326 . S
O177 C179 1.267 . S
C178 O170 1.249 . S
C178 O171 1.267 . S
C179 O176 1.249 . S
C179 O177 1.267 . S
Dy180 O184 2.398 . S
Dy180 O185 2.491 . S
Dy180 O186 2.403 . S
Dy180 O187 2.664 . S
Dy180 O191 2.326 . S
Dy180 O195 2.310 . S
Dy180 O196 2.351 . S
C181 O192 1.185 . S
C181 O193 1.355 . S
C182 O184 1.185 . S
C182 O185 1.355 . S
Dy183 O187 2.310 . S
Dy183 O190 2.351 . S
Dy183 O192 2.398 . S
Dy183 O193 2.491 . S
Dy183 O194 2.403 . S
Dy183 O195 2.664 . S
Dy183 O197 2.326 . S
O184 Dy180 2.398 . S
O184 C182 1.185 . S
O185 Dy180 2.491 . S
O185 C182 1.355 . S
O186 Dy180 2.403 . S
O186 C188 1.254 . S
O187 Dy180 2.664 . S
O187 Dy183 2.310 . S
O187 C188 1.268 . S
C188 O186 1.254 . S
C188 O187 1.268 . S
C189 O194 1.254 . S
C189 O195 1.268 . S
O190 Dy183 2.351 . S
O190 C198 1.249 . S
O191 Dy180 2.326 . S
O191 C198 1.267 . S
O192 C181 1.185 . S
O192 Dy183 2.398 . S
O193 C181 1.355 . S
O193 Dy183 2.491 . S
O194 Dy183 2.403 . S
O194 C189 1.254 . S
O195 Dy180 2.310 . S
O195 Dy183 2.664 . S
O195 C189 1.268 . S
O196 Dy180 2.351 . S
O196 C199 1.249 . S
O197 Dy183 2.326 . S
O197 C199 1.267 . S
C198 O190 1.249 . S
C198 O191 1.267 . S
C199 O196 1.249 . S
C199 O197 1.267 . S
Dy200 O204 2.398 . S
Dy200 O205 2.491 . S
Dy200 O206 2.403 . S
Dy200 O207 2.664 . S
Dy200 O211 2.326 . S
Dy200 O215 2.310 . S
Dy200 O216 2.351 . S
C201 O212 1.185 . S
C201 O213 1.355 . S
C202 O204 1.185 . S
C202 O205 1.355 . S
Dy203 O207 2.310 . S
Dy203 O210 2.351 . S
Dy203 O212 2.398 . S
Dy203 O213 2.491 . S
Dy203 O214 2.403 . S
Dy203 O215 2.664 . S
Dy203 O217 2.326 . S
O204 Dy200 2.398 . S
O204 C202 1.185 . S
O205 Dy200 2.491 . S
O205 C202 1.355 . S
O206 Dy200 2.403 . S
O206 C208 1.254 . S
O207 Dy200 2.664 . S
O207 Dy203 2.310 . S
O207 C208 1.268 . S
C208 O206 1.254 . S
C208 O207 1.268 . S
C209 O214 1.254 . S
C209 O215 1.268 . S
O210 Dy203 2.351 . S
O210 C218 1.249 . S
O211 Dy200 2.326 . S
O211 C218 1.267 . S
O212 C201 1.185 . S
O212 Dy203 2.398 . S
O213 C201 1.355 . S
O213 Dy203 2.491 . S
O214 Dy203 2.403 . S
O214 C209 1.254 . S
O215 Dy200 2.310 . S
O215 Dy203 2.664 . S
O215 C209 1.268 . S
O216 Dy200 2.351 . S
O216 C219 1.249 . S
O217 Dy203 2.326 . S
O217 C219 1.267 . S
C218 O210 1.249 . S
C218 O211 1.267 . S
C219 O216 1.249 . S
C219 O217 1.267 . S
Dy220 O224 2.398 . S
Dy220 O225 2.491 . S
Dy220 O226 2.403 . S
Dy220 O227 2.664 . S
Dy220 O231 2.326 . S
Dy220 O235 2.310 . S
Dy220 O236 2.351 . S
C221 O232 1.185 . S
C221 O233 1.355 . S
C222 O224 1.185 . S
C222 O225 1.355 . S
Dy223 O227 2.310 . S
Dy223 O230 2.351 . S
Dy223 O232 2.398 . S
Dy223 O233 2.491 . S
Dy223 O234 2.403 . S
Dy223 O235 2.664 . S
Dy223 O237 2.326 . S
O224 Dy220 2.398 . S
O224 C222 1.185 . S
O225 Dy220 2.491 . S
O225 C222 1.355 . S
O226 Dy220 2.403 . S
O226 C228 1.254 . S
O227 Dy220 2.664 . S
O227 Dy223 2.310 . S
O227 C228 1.268 . S
C228 O226 1.254 . S
C228 O227 1.268 . S
C229 O234 1.254 . S
C229 O235 1.268 . S
O230 Dy223 2.351 . S
O230 C238 1.249 . S
O231 Dy220 2.326 . S
O231 C238 1.267 . S
O232 C221 1.185 . S
O232 Dy223 2.398 . S
O233 C221 1.355 . S
O233 Dy223 2.491 . S
O234 Dy223 2.403 . S
O234 C229 1.254 . S
O235 Dy220 2.310 . S
O235 Dy223 2.664 . S
O235 C229 1.268 . S
O236 Dy220 2.351 . S
O236 C239 1.249 . S
O237 Dy223 2.326 . S
O237 C239 1.267 . S
C238 O230 1.249 . S
C238 O231 1.267 . S
C239 O236 1.249 . S
C239 O237 1.267 . S
Dy240 O244 2.398 . S
Dy240 O245 2.491 . S
Dy240 O246 2.403 . S
Dy240 O247 2.664 . S
Dy240 O251 2.326 . S
Dy240 O255 2.310 . S
Dy240 O256 2.351 . S
C241 O252 1.185 . S
C241 O253 1.355 . S
C242 O244 1.185 . S
C242 O245 1.355 . S
Dy243 O247 2.310 . S
Dy243 O250 2.351 . S
Dy243 O252 2.398 . S
Dy243 O253 2.491 . S
Dy243 O254 2.403 . S
Dy243 O255 2.664 . S
Dy243 O257 2.326 . S
O244 Dy240 2.398 . S
O244 C242 1.185 . S
O245 Dy240 2.491 . S
O245 C242 1.355 . S
O246 Dy240 2.403 . S
O246 C248 1.254 . S
O247 Dy240 2.664 . S
O247 Dy243 2.310 . S
O247 C248 1.268 . S
C248 O246 1.254 . S
C248 O247 1.268 . S
C249 O254 1.254 . S
C249 O255 1.268 . S
O250 Dy243 2.351 . S
O250 C258 1.249 . S
O251 Dy240 2.326 . S
O251 C258 1.267 . S
O252 C241 1.185 . S
O252 Dy243 2.398 . S
O253 C241 1.355 . S
O253 Dy243 2.491 . S
O254 Dy243 2.403 . S
O254 C249 1.254 . S
O255 Dy240 2.310 . S
O255 Dy243 2.664 . S
O255 C249 1.268 . S
O256 Dy240 2.351 . S
O256 C259 1.249 . S
O257 Dy243 2.326 . S
O257 C259 1.267 . S
C258 O250 1.249 . S
C258 O251 1.267 . S
C259 O256 1.249 . S
C259 O257 1.267 . S
Dy260 O264 2.398 . S
Dy260 O265 2.491 . S
Dy260 O266 2.403 . S
Dy260 O267 2.664 . S
Dy260 O271 2.326 . S
Dy260 O275 2.310 . S
Dy260 O276 2.351 . S
C261 O272 1.185 . S
C261 O273 1.355 . S
C262 O264 1.185 . S
C262 O265 1.355 . S
Dy263 O267 2.310 . S
Dy263 O270 2.351 . S
Dy263 O272 2.398 . S
Dy263 O273 2.491 . S
Dy263 O274 2.403 . S
Dy263 O275 2.664 . S
Dy263 O277 2.326 . S
O264 Dy260 2.398 . S
O264 C262 1.185 . S
O265 Dy260 2.491 . S
O265 C262 1.355 . S
O266 Dy260 2.403 . S
O266 C268 1.254 . S
O267 Dy260 2.664 . S
O267 Dy263 2.310 . S
O267 C268 1.268 . S
C268 O266 1.254 . S
C268 O267 1.268 . S
C269 O274 1.254 . S
C269 O275 1.268 . S
O270 Dy263 2.351 . S
O270 C278 1.249 . S
O271 Dy260 2.326 . S
O271 C278 1.267 . S
O272 C261 1.185 . S
O272 Dy263 2.398 . S
O273 C261 1.355 . S
O273 Dy263 2.491 . S
O274 Dy263 2.403 . S
O274 C269 1.254 . S
O275 Dy260 2.310 . S
O275 Dy263 2.664 . S
O275 C269 1.268 . S
O276 Dy260 2.351 . S
O276 C279 1.249 . S
O277 Dy263 2.326 . S
O277 C279 1.267 . S
C278 O270 1.249 . S
C278 O271 1.267 . S
C279 O276 1.249 . S
C279 O277 1.267 . S
Dy280 O284 2.398 . S
Dy280 O285 2.491 . S
Dy280 O286 2.403 . S
Dy280 O287 2.664 . S
Dy280 O291 2.326 . S
Dy280 O295 2.310 . S
Dy280 O296 2.351 . S
C281 O292 1.185 . S
C281 O293 1.355 . S
C282 O284 1.185 . S
C282 O285 1.355 . S
Dy283 O287 2.310 . S
Dy283 O290 2.351 . S
Dy283 O292 2.398 . S
Dy283 O293 2.491 . S
Dy283 O294 2.403 . S
Dy283 O295 2.664 . S
Dy283 O297 2.326 . S
O284 Dy280 2.398 . S
O284 C282 1.185 . S
O285 Dy280 2.491 . S
O285 C282 1.355 . S
O286 Dy280 2.403 . S
O286 C288 1.254 . S
O287 Dy280 2.664 . S
O287 Dy283 2.310 . S
O287 C288 1.268 . S
C288 O286 1.254 . S
C288 O287 1.268 . S
C289 O294 1.254 . S
C289 O295 1.268 . S
O290 Dy283 2.351 . S
O290 C298 1.249 . S
O291 Dy280 2.326 . S
O291 C298 1.267 . S
O292 C281 1.185 . S
O292 Dy283 2.398 . S
O293 C281 1.355 . S
O293 Dy283 2.491 . S
O294 Dy283 2.403 . S
O294 C289 1.254 . S
O295 Dy280 2.310 . S
O295 Dy283 2.664 . S
O295 C289 1.268 . S
O296 Dy280 2.351 . S
O296 C299 1.249 . S
O297 Dy283 2.326 . S
O297 C299 1.267 . S
C298 O290 1.249 . S
C298 O291 1.267 . S
C299 O296 1.249 . S
C299 O297 1.267 . S
Dy300 O304 2.398 . S
Dy300 O305 2.491 . S
Dy300 O306 2.403 . S
Dy300 O307 2.664 . S
Dy300 O311 2.326 . S
Dy300 O315 2.310 . S
Dy300 O316 2.351 . S
C301 O312 1.185 . S
C301 O313 1.355 . S
C302 O304 1.185 . S
C302 O305 1.355 . S
Dy303 O307 2.310 . S
Dy303 O310 2.351 . S
Dy303 O312 2.398 . S
Dy303 O313 2.491 . S
Dy303 O314 2.403 . S
Dy303 O315 2.664 . S
Dy303 O317 2.326 . S
O304 Dy300 2.398 . S
O304 C302 1.185 . S
O305 Dy300 2.491 . S
O305 C302 1.355 . S
O306 Dy300 2.403 . S
O306 C308 1.254 . S
O307 Dy300 2.664 . S
O307 Dy303 2.310 . S
O307 C308 1.268 . S
C308 O306 1.254 . S
C308 O307 1.268 . S
C309 O314 1.254 . S
C309 O315 1.268 . S
O310 Dy303 2.351 . S
O310 C318 1.249 . S
O311 Dy300 2.326 . S
O311 C318 1.267 . S
O312 C301 1.185 . S
O312 Dy303 2.398 . S
O313 C301 1.355 . S
O313 Dy303 2.491 . S
O314 Dy303 2.403 . S
O314 C309 1.254 . S
O315 Dy300 2.310 . S
O315 Dy303 2.664 . S
O315 C309 1.268 . S
O316 Dy300 2.351 . S
O316 C319 1.249 . S
O317 Dy303 2.326 . S
O317 C319 1.267 . S
C318 O310 1.249 . S
C318 O311 1.267 . S
C319 O316 1.249 . S
C319 O317 1.267 . S
H320 C326 0.930 . S
H321 C329 0.930 . S
H322 C330 0.930 . S
H323 C331 0.930 . S
H324 C334 0.930 . S
H325 C335 0.930 . S
C326 H320 0.930 . S
C326 C327 1.355 . S
C326 C328 1.415 . S
C327 C326 1.355 . S
C327 C329 1.419 . S
C328 C326 1.415 . S
C328 C333 1.425 . S
C328 C335 1.409 . S
C329 H321 0.930 . S
C329 C327 1.419 . S
C329 C330 1.362 . S
C330 H322 0.930 . S
C330 C329 1.362 . S
C330 C333 1.409 . S
C331 H323 0.930 . S
C331 C332 1.355 . S
C331 C333 1.415 . S
C332 C331 1.355 . S
C332 C334 1.419 . S
C333 C328 1.425 . S
C333 C330 1.409 . S
C333 C331 1.415 . S
C334 H324 0.930 . S
C334 C332 1.419 . S
C334 C335 1.362 . S
C335 H325 0.930 . S
C335 C328 1.409 . S
C335 C334 1.362 . S
H336 C342 0.930 . S
H337 C345 0.930 . S
H338 C346 0.930 . S
H339 C347 0.930 . S
H340 C350 0.930 . S
H341 C351 0.930 . S
C342 H336 0.930 . S
C342 C343 1.355 . S
C342 C344 1.415 . S
C343 C342 1.355 . S
C343 C345 1.419 . S
C344 C342 1.415 . S
C344 C349 1.425 . S
C344 C351 1.409 . S
C345 H337 0.930 . S
C345 C343 1.419 . S
C345 C346 1.362 . S
C346 H338 0.930 . S
C346 C345 1.362 . S
C346 C349 1.409 . S
C347 H339 0.930 . S
C347 C348 1.355 . S
C347 C349 1.415 . S
C348 C347 1.355 . S
C348 C350 1.419 . S
C349 C344 1.425 . S
C349 C346 1.409 . S
C349 C347 1.415 . S
C350 H340 0.930 . S
C350 C348 1.419 . S
C350 C351 1.362 . S
C351 H341 0.930 . S
C351 C344 1.409 . S
C351 C350 1.362 . S
H352 C358 0.930 . S
H353 C361 0.930 . S
H354 C362 0.930 . S
H355 C363 0.930 . S
H356 C366 0.930 . S
H357 C367 0.930 . S
C358 H352 0.930 . S
C358 C359 1.355 . S
C358 C360 1.415 . S
C359 C358 1.355 . S
C359 C361 1.419 . S
C360 C358 1.415 . S
C360 C365 1.425 . S
C360 C367 1.409 . S
C361 H353 0.930 . S
C361 C359 1.419 . S
C361 C362 1.362 . S
C362 H354 0.930 . S
C362 C361 1.362 . S
C362 C365 1.409 . S
C363 H355 0.930 . S
C363 C364 1.355 . S
C363 C365 1.415 . S
C364 C363 1.355 . S
C364 C366 1.419 . S
C365 C360 1.425 . S
C365 C362 1.409 . S
C365 C363 1.415 . S
C366 H356 0.930 . S
C366 C364 1.419 . S
C366 C367 1.362 . S
C367 H357 0.930 . S
C367 C360 1.409 . S
C367 C366 1.362 . S
H368 C374 0.930 . S
H369 C377 0.930 . S
H370 C378 0.930 . S
H371 C379 0.930 . S
H372 C382 0.930 . S
H373 C383 0.930 . S
C374 H368 0.930 . S
C374 C375 1.355 . S
C374 C376 1.415 . S
C375 C374 1.355 . S
C375 C377 1.419 . S
C376 C374 1.415 . S
C376 C381 1.425 . S
C376 C383 1.409 . S
C377 H369 0.930 . S
C377 C375 1.419 . S
C377 C378 1.362 . S
C378 H370 0.930 . S
C378 C377 1.362 . S
C378 C381 1.409 . S
C379 H371 0.930 . S
C379 C380 1.355 . S
C379 C381 1.415 . S
C380 C379 1.355 . S
C380 C382 1.419 . S
C381 C376 1.425 . S
C381 C378 1.409 . S
C381 C379 1.415 . S
C382 H372 0.930 . S
C382 C380 1.419 . S
C382 C383 1.362 . S
C383 H373 0.930 . S
C383 C376 1.409 . S
C383 C382 1.362 . S
H384 C390 0.930 . S
H385 C393 0.930 . S
H386 C394 0.930 . S
H387 C395 0.930 . S
H388 C398 0.930 . S
H389 C399 0.930 . S
C390 H384 0.930 . S
C390 C391 1.355 . S
C390 C392 1.415 . S
C391 C390 1.355 . S
C391 C393 1.419 . S
C392 C390 1.415 . S
C392 C397 1.425 . S
C392 C399 1.409 . S
C393 H385 0.930 . S
C393 C391 1.419 . S
C393 C394 1.362 . S
C394 H386 0.930 . S
C394 C393 1.362 . S
C394 C397 1.409 . S
C395 H387 0.930 . S
C395 C396 1.355 . S
C395 C397 1.415 . S
C396 C395 1.355 . S
C396 C398 1.419 . S
C397 C392 1.425 . S
C397 C394 1.409 . S
C397 C395 1.415 . S
C398 H388 0.930 . S
C398 C396 1.419 . S
C398 C399 1.362 . S
C399 H389 0.930 . S
C399 C392 1.409 . S
C399 C398 1.362 . S
H400 C406 0.930 . S
H401 C409 0.930 . S
H402 C410 0.930 . S
H403 C411 0.930 . S
H404 C414 0.930 . S
H405 C415 0.930 . S
C406 H400 0.930 . S
C406 C407 1.355 . S
C406 C408 1.415 . S
C407 C406 1.355 . S
C407 C409 1.419 . S
C408 C406 1.415 . S
C408 C413 1.425 . S
C408 C415 1.409 . S
C409 H401 0.930 . S
C409 C407 1.419 . S
C409 C410 1.362 . S
C410 H402 0.930 . S
C410 C409 1.362 . S
C410 C413 1.409 . S
C411 H403 0.930 . S
C411 C412 1.355 . S
C411 C413 1.415 . S
C412 C411 1.355 . S
C412 C414 1.419 . S
C413 C408 1.425 . S
C413 C410 1.409 . S
C413 C411 1.415 . S
C414 H404 0.930 . S
C414 C412 1.419 . S
C414 C415 1.362 . S
C415 H405 0.930 . S
C415 C408 1.409 . S
C415 C414 1.362 . S
H416 C422 0.930 . S
H417 C425 0.930 . S
H418 C426 0.930 . S
H419 C427 0.930 . S
H420 C430 0.930 . S
H421 C431 0.930 . S
C422 H416 0.930 . S
C422 C423 1.355 . S
C422 C424 1.415 . S
C423 C422 1.355 . S
C423 C425 1.419 . S
C424 C422 1.415 . S
C424 C429 1.425 . S
C424 C431 1.409 . S
C425 H417 0.930 . S
C425 C423 1.419 . S
C425 C426 1.362 . S
C426 H418 0.930 . S
C426 C425 1.362 . S
C426 C429 1.409 . S
C427 H419 0.930 . S
C427 C428 1.355 . S
C427 C429 1.415 . S
C428 C427 1.355 . S
C428 C430 1.419 . S
C429 C424 1.425 . S
C429 C426 1.409 . S
C429 C427 1.415 . S
C430 H420 0.930 . S
C430 C428 1.419 . S
C430 C431 1.362 . S
C431 H421 0.930 . S
C431 C424 1.409 . S
C431 C430 1.362 . S
H432 C438 0.930 . S
H433 C441 0.930 . S
H434 C442 0.930 . S
H435 C443 0.930 . S
H436 C446 0.930 . S
H437 C447 0.930 . S
C438 H432 0.930 . S
C438 C439 1.355 . S
C438 C440 1.415 . S
C439 C438 1.355 . S
C439 C441 1.419 . S
C440 C438 1.415 . S
C440 C445 1.425 . S
C440 C447 1.409 . S
C441 H433 0.930 . S
C441 C439 1.419 . S
C441 C442 1.362 . S
C442 H434 0.930 . S
C442 C441 1.362 . S
C442 C445 1.409 . S
C443 H435 0.930 . S
C443 C444 1.355 . S
C443 C445 1.415 . S
C444 C443 1.355 . S
C444 C446 1.419 . S
C445 C440 1.425 . S
C445 C442 1.409 . S
C445 C443 1.415 . S
C446 H436 0.930 . S
C446 C444 1.419 . S
C446 C447 1.362 . S
C447 H437 0.930 . S
C447 C440 1.409 . S
C447 C446 1.362 . S
H448 C454 0.930 1_545 S
H449 C457 0.930 . S
H450 C458 0.930 . S
H451 C459 0.930 1_565 S
H452 C462 0.930 . S
H453 C463 0.930 . S
C454 H448 0.930 1_565 S
C454 C455 1.355 . S
C454 C456 1.415 1_565 S
C455 C454 1.355 . S
C455 C457 1.419 . S
C456 C454 1.415 1_545 S
C456 C461 1.425 1_545 S
C456 C463 1.409 . S
C457 H449 0.930 . S
C457 C455 1.419 . S
C457 C458 1.362 . S
C458 H450 0.930 . S
C458 C457 1.362 . S
C458 C461 1.409 . S
C459 H451 0.930 1_545 S
C459 C460 1.355 . S
C459 C461 1.415 1_545 S
C460 C459 1.355 . S
C460 C462 1.419 . S
C461 C456 1.425 1_565 S
C461 C458 1.409 . S
C461 C459 1.415 1_565 S
C462 H452 0.930 . S
C462 C460 1.419 . S
C462 C463 1.362 . S
C463 H453 0.930 . S
C463 C456 1.409 . S
C463 C462 1.362 . S
H464 C470 0.930 . S
H465 C473 0.930 . S
H466 C474 0.930 . S
H467 C475 0.930 . S
H468 C478 0.930 . S
H469 C479 0.930 . S
C470 H464 0.930 . S
C470 C471 1.355 . S
C470 C472 1.415 . S
C471 C470 1.355 . S
C471 C473 1.419 1_545 S
C472 C470 1.415 . S
C472 C477 1.425 1_545 S
C472 C479 1.409 . S
C473 H465 0.930 . S
C473 C471 1.419 1_565 S
C473 C474 1.362 . S
C474 H466 0.930 . S
C474 C473 1.362 . S
C474 C477 1.409 . S
C475 H467 0.930 . S
C475 C476 1.355 . S
C475 C477 1.415 . S
C476 C475 1.355 . S
C476 C478 1.419 1_565 S
C477 C472 1.425 1_565 S
C477 C474 1.409 . S
C477 C475 1.415 . S
C478 H468 0.930 . S
C478 C476 1.419 1_545 S
C478 C479 1.362 . S
C479 H469 0.930 . S
C479 C472 1.409 . S
C479 C478 1.362 . S
H480 C486 0.930 . S
H481 C489 0.930 . S
H482 C490 0.930 . S
H483 C491 0.930 . S
H484 C494 0.930 . S
H485 C495 0.930 . S
C486 H480 0.930 . S
C486 C487 1.355 . S
C486 C488 1.415 . S
C487 C486 1.355 . S
C487 C489 1.419 1_545 S
C488 C486 1.415 . S
C488 C493 1.425 1_545 S
C488 C495 1.409 . S
C489 H481 0.930 . S
C489 C487 1.419 1_565 S
C489 C490 1.362 . S
C490 H482 0.930 . S
C490 C489 1.362 . S
C490 C493 1.409 . S
C491 H483 0.930 . S
C491 C492 1.355 . S
C491 C493 1.415 . S
C492 C491 1.355 . S
C492 C494 1.419 1_565 S
C493 C488 1.425 1_565 S
C493 C490 1.409 . S
C493 C491 1.415 . S
C494 H484 0.930 . S
C494 C492 1.419 1_545 S
C494 C495 1.362 . S
C495 H485 0.930 . S
C495 C488 1.409 . S
C495 C494 1.362 . S
H496 C502 0.930 . S
H497 C505 0.930 . S
H498 C506 0.930 . S
H499 C507 0.930 . S
H500 C510 0.930 . S
H501 C511 0.930 . S
C502 H496 0.930 . S
C502 C503 1.355 1_565 S
C502 C504 1.415 . S
C503 C502 1.355 1_545 S
C503 C505 1.419 . S
C504 C502 1.415 . S
C504 C509 1.425 1_565 S
C504 C511 1.409 . S
C505 H497 0.930 . S
C505 C503 1.419 . S
C505 C506 1.362 . S
C506 H498 0.930 . S
C506 C505 1.362 . S
C506 C509 1.409 . S
C507 H499 0.930 . S
C507 C508 1.355 1_545 S
C507 C509 1.415 . S
C508 C507 1.355 1_565 S
C508 C510 1.419 . S
C509 C504 1.425 1_545 S
C509 C506 1.409 . S
C509 C507 1.415 . S
C510 H500 0.930 . S
C510 C508 1.419 . S
C510 C511 1.362 . S
C511 H501 0.930 . S
C511 C504 1.409 . S
C511 C510 1.362 . S
H512 C518 0.930 . S
H513 C521 0.930 . S
H514 C522 0.930 . S
H515 C523 0.930 . S
H516 C526 0.930 . S
H517 C527 0.930 . S
C518 H512 0.930 . S
C518 C519 1.355 . S
C518 C520 1.415 . S
C519 C518 1.355 . S
C519 C521 1.419 . S
C520 C518 1.415 . S
C520 C525 1.425 . S
C520 C527 1.409 . S
C521 H513 0.930 . S
C521 C519 1.419 . S
C521 C522 1.362 . S
C522 H514 0.930 . S
C522 C521 1.362 . S
C522 C525 1.409 . S
C523 H515 0.930 . S
C523 C524 1.355 . S
C523 C525 1.415 . S
C524 C523 1.355 . S
C524 C526 1.419 . S
C525 C520 1.425 . S
C525 C522 1.409 . S
C525 C523 1.415 . S
C526 H516 0.930 . S
C526 C524 1.419 . S
C526 C527 1.362 . S
C527 H517 0.930 . S
C527 C520 1.409 . S
C527 C526 1.362 . S
H528 C534 0.930 . S
H529 C537 0.930 . S
H530 C538 0.930 . S
H531 C539 0.930 . S
H532 C542 0.930 . S
H533 C543 0.930 . S
C534 H528 0.930 . S
C534 C535 1.355 . S
C534 C536 1.415 . S
C535 C534 1.355 . S
C535 C537 1.419 . S
C536 C534 1.415 . S
C536 C541 1.425 . S
C536 C543 1.409 . S
C537 H529 0.930 . S
C537 C535 1.419 . S
C537 C538 1.362 . S
C538 H530 0.930 . S
C538 C537 1.362 . S
C538 C541 1.409 . S
C539 H531 0.930 . S
C539 C540 1.355 . S
C539 C541 1.415 . S
C540 C539 1.355 . S
C540 C542 1.419 . S
C541 C536 1.425 . S
C541 C538 1.409 . S
C541 C539 1.415 . S
C542 H532 0.930 . S
C542 C540 1.419 . S
C542 C543 1.362 . S
C543 H533 0.930 . S
C543 C536 1.409 . S
C543 C542 1.362 . S
H544 C550 0.930 . S
H545 C553 0.930 . S
H546 C554 0.930 . S
H547 C555 0.930 . S
H548 C558 0.930 . S
H549 C559 0.930 . S
C550 H544 0.930 . S
C550 C551 1.355 . S
C550 C552 1.415 . S
C551 C550 1.355 . S
C551 C553 1.419 . S
C552 C550 1.415 . S
C552 C557 1.425 . S
C552 C559 1.409 . S
C553 H545 0.930 . S
C553 C551 1.419 . S
C553 C554 1.362 . S
C554 H546 0.930 . S
C554 C553 1.362 . S
C554 C557 1.409 . S
C555 H547 0.930 . S
C555 C556 1.355 . S
C555 C557 1.415 . S
C556 C555 1.355 . S
C556 C558 1.419 . S
C557 C552 1.425 . S
C557 C554 1.409 . S
C557 C555 1.415 . S
C558 H548 0.930 . S
C558 C556 1.419 . S
C558 C559 1.362 . S
C559 H549 0.930 . S
C559 C552 1.409 . S
C559 C558 1.362 . S
H560 C566 0.930 . S
H561 C569 0.930 . S
H562 C570 0.930 . S
H563 C571 0.930 . S
H564 C574 0.930 . S
H565 C575 0.930 . S
C566 H560 0.930 . S
C566 C567 1.355 . S
C566 C568 1.415 . S
C567 C566 1.355 . S
C567 C569 1.419 . S
C568 C566 1.415 . S
C568 C573 1.425 . S
C568 C575 1.409 . S
C569 H561 0.930 . S
C569 C567 1.419 . S
C569 C570 1.362 . S
C570 H562 0.930 . S
C570 C569 1.362 . S
C570 C573 1.409 . S
C571 H563 0.930 . S
C571 C572 1.355 . S
C571 C573 1.415 . S
C572 C571 1.355 . S
C572 C574 1.419 . S
C573 C568 1.425 . S
C573 C570 1.409 . S
C573 C571 1.415 . S
C574 H564 0.930 . S
C574 C572 1.419 . S
C574 C575 1.362 . S
C575 H565 0.930 . S
C575 C568 1.409 . S
C575 C574 1.362 . S
H576 C582 0.930 . S
H577 C585 0.930 . S
H578 C586 0.930 . S
H579 C587 0.930 . S
H580 C590 0.930 . S
H581 C591 0.930 . S
C582 H576 0.930 . S
C582 C583 1.355 . S
C582 C584 1.415 . S
C583 C582 1.355 . S
C583 C585 1.419 . S
C584 C582 1.415 . S
C584 C589 1.425 1_556 S
C584 C591 1.409 1_556 S
C585 H577 0.930 . S
C585 C583 1.419 . S
C585 C586 1.362 . S
C586 H578 0.930 . S
C586 C585 1.362 . S
C586 C589 1.409 1_556 S
C587 H579 0.930 . S
C587 C588 1.355 . S
C587 C589 1.415 . S
C588 C587 1.355 . S
C588 C590 1.419 . S
C589 C584 1.425 1_554 S
C589 C586 1.409 1_554 S
C589 C587 1.415 . S
C590 H580 0.930 . S
C590 C588 1.419 . S
C590 C591 1.362 . S
C591 H581 0.930 . S
C591 C584 1.409 1_554 S
C591 C590 1.362 . S
H592 C598 0.930 . S
H593 C601 0.930 1_545 S
H594 C602 0.930 1_545 S
H595 C603 0.930 . S
H596 C606 0.930 . S
H597 C607 0.930 . S
C598 H592 0.930 . S
C598 C599 1.355 . S
C598 C600 1.415 . S
C599 C598 1.355 . S
C599 C601 1.419 . S
C600 C598 1.415 . S
C600 C605 1.425 1_556 S
C600 C607 1.409 1_556 S
C601 H593 0.930 1_565 S
C601 C599 1.419 . S
C601 C602 1.362 . S
C602 H594 0.930 1_565 S
C602 C601 1.362 . S
C602 C605 1.409 1_556 S
C603 H595 0.930 . S
C603 C604 1.355 . S
C603 C605 1.415 . S
C604 C603 1.355 . S
C604 C606 1.419 . S
C605 C600 1.425 1_554 S
C605 C602 1.409 1_554 S
C605 C603 1.415 . S
C606 H596 0.930 . S
C606 C604 1.419 . S
C606 C607 1.362 . S
C607 H597 0.930 . S
C607 C600 1.409 1_554 S
C607 C606 1.362 . S
H608 C614 0.930 . S
H609 C617 0.930 1_545 S
H610 C618 0.930 1_545 S
H611 C619 0.930 . S
H612 C622 0.930 . S
H613 C623 0.930 . S
C614 H608 0.930 . S
C614 C615 1.355 . S
C614 C616 1.415 . S
C615 C614 1.355 . S
C615 C617 1.419 . S
C616 C614 1.415 . S
C616 C621 1.425 . S
C616 C623 1.409 . S
C617 H609 0.930 1_565 S
C617 C615 1.419 . S
C617 C618 1.362 . S
C618 H610 0.930 1_565 S
C618 C617 1.362 . S
C618 C621 1.409 . S
C619 H611 0.930 . S
C619 C620 1.355 . S
C619 C621 1.415 . S
C620 C619 1.355 . S
C620 C622 1.419 . S
C621 C616 1.425 . S
C621 C618 1.409 . S
C621 C619 1.415 . S
C622 H612 0.930 . S
C622 C620 1.419 . S
C622 C623 1.362 . S
C623 H613 0.930 . S
C623 C616 1.409 . S
C623 C622 1.362 . S
H624 C630 0.930 . S
H625 C633 0.930 1_565 S
H626 C634 0.930 1_565 S
H627 C635 0.930 . S
H628 C638 0.930 . S
H629 C639 0.930 . S
C630 H624 0.930 . S
C630 C631 1.355 . S
C630 C632 1.415 . S
C631 C630 1.355 . S
C631 C633 1.419 . S
C632 C630 1.415 . S
C632 C637 1.425 . S
C632 C639 1.409 . S
C633 H625 0.930 1_545 S
C633 C631 1.419 . S
C633 C634 1.362 . S
C634 H626 0.930 1_545 S
C634 C633 1.362 . S
C634 C637 1.409 . S
C635 H627 0.930 . S
C635 C636 1.355 . S
C635 C637 1.415 . S
C636 C635 1.355 . S
C636 C638 1.419 . S
C637 C632 1.425 . S
C637 C634 1.409 . S
C637 C635 1.415 . S
C638 H628 0.930 . S
C638 C636 1.419 . S
C638 C639 1.362 . S
C639 H629 0.930 . S
C639 C632 1.409 . S
C639 C638 1.362 . S
H640 C646 0.930 . S
H641 C649 0.930 . S
H642 C650 0.930 . S
H643 C651 0.930 . S
H644 C654 0.930 . S
H645 C655 0.930 . S
C646 H640 0.930 . S
C646 C647 1.355 . S
C646 C648 1.415 . S
C647 C646 1.355 . S
C647 C649 1.419 . S
C648 C646 1.415 . S
C648 C653 1.425 1_554 S
C648 C655 1.409 1_554 S
C649 H641 0.930 . S
C649 C647 1.419 . S
C649 C650 1.362 . S
C650 H642 0.930 . S
C650 C649 1.362 . S
C650 C653 1.409 1_554 S
C651 H643 0.930 . S
C651 C652 1.355 . S
C651 C653 1.415 . S
C652 C651 1.355 . S
C652 C654 1.419 . S
C653 C648 1.425 1_556 S
C653 C650 1.409 1_556 S
C653 C651 1.415 . S
C654 H644 0.930 . S
C654 C652 1.419 . S
C654 C655 1.362 . S
C655 H645 0.930 . S
C655 C648 1.409 1_556 S
C655 C654 1.362 . S
H656 C662 0.930 . S
H657 C665 0.930 . S
H658 C666 0.930 . S
H659 C667 0.930 . S
H660 C670 0.930 . S
H661 C671 0.930 . S
C662 H656 0.930 . S
C662 C663 1.355 . S
C662 C664 1.415 . S
C663 C662 1.355 . S
C663 C665 1.419 . S
C664 C662 1.415 . S
C664 C669 1.425 1_556 S
C664 C671 1.409 1_556 S
C665 H657 0.930 . S
C665 C663 1.419 . S
C665 C666 1.362 . S
C666 H658 0.930 . S
C666 C665 1.362 . S
C666 C669 1.409 1_556 S
C667 H659 0.930 . S
C667 C668 1.355 . S
C667 C669 1.415 . S
C668 C667 1.355 . S
C668 C670 1.419 . S
C669 C664 1.425 1_554 S
C669 C666 1.409 1_554 S
C669 C667 1.415 . S
C670 H660 0.930 . S
C670 C668 1.419 . S
C670 C671 1.362 . S
C671 H661 0.930 . S
C671 C664 1.409 1_554 S
C671 C670 1.362 . S
H672 C678 0.930 . S
H673 C681 0.930 . S
H674 C682 0.930 . S
H675 C683 0.930 . S
H676 C686 0.930 . S
H677 C687 0.930 . S
C678 H672 0.930 . S
C678 C679 1.355 . S
C678 C680 1.415 . S
C679 C678 1.355 . S
C679 C681 1.419 . S
C680 C678 1.415 . S
C680 C685 1.425 . S
C680 C687 1.409 . S
C681 H673 0.930 . S
C681 C679 1.419 . S
C681 C682 1.362 . S
C682 H674 0.930 . S
C682 C681 1.362 . S
C682 C685 1.409 . S
C683 H675 0.930 . S
C683 C684 1.355 . S
C683 C685 1.415 . S
C684 C683 1.355 . S
C684 C686 1.419 . S
C685 C680 1.425 . S
C685 C682 1.409 . S
C685 C683 1.415 . S
C686 H676 0.930 . S
C686 C684 1.419 . S
C686 C687 1.362 . S
C687 H677 0.930 . S
C687 C680 1.409 . S
C687 C686 1.362 . S
H688 C694 0.930 . S
H689 C697 0.930 . S
H690 C698 0.930 . S
H691 C699 0.930 . S
H692 C702 0.930 . S
H693 C703 0.930 . S
C694 H688 0.930 . S
C694 C695 1.355 . S
C694 C696 1.415 . S
C695 C694 1.355 . S
C695 C697 1.419 . S
C696 C694 1.415 . S
C696 C701 1.425 . S
C696 C703 1.409 . S
C697 H689 0.930 . S
C697 C695 1.419 . S
C697 C698 1.362 . S
C698 H690 0.930 . S
C698 C697 1.362 . S
C698 C701 1.409 . S
C699 H691 0.930 . S
C699 C700 1.355 . S
C699 C701 1.415 . S
C700 C699 1.355 . S
C700 C702 1.419 . S
C701 C696 1.425 . S
C701 C698 1.409 . S
C701 C699 1.415 . S
C702 H692 0.930 . S
C702 C700 1.419 . S
C702 C703 1.362 . S
C703 H693 0.930 . S
C703 C696 1.409 . S
C703 C702 1.362 . S
H704 C710 0.930 . S
H705 C713 0.930 . S
H706 C714 0.930 . S
H707 C715 0.930 . S
H708 C718 0.930 . S
H709 C719 0.930 . S
C710 H704 0.930 . S
C710 C711 1.349 1_565 S
C710 C712 1.415 . S
C711 C710 1.349 1_545 S
C711 C713 1.426 . S
C712 C710 1.415 . S
C712 C717 1.425 1_665 S
C712 C719 1.409 1_655 S
C713 H705 0.930 . S
C713 C711 1.426 . S
C713 C714 1.362 . S
C714 H706 0.930 . S
C714 C713 1.362 . S
C714 C717 1.409 1_655 S
C715 H707 0.930 . S
C715 C716 1.349 1_545 S
C715 C717 1.415 . S
C716 C715 1.349 1_565 S
C716 C718 1.426 . S
C717 C712 1.425 1_445 S
C717 C714 1.409 1_455 S
C717 C715 1.415 . S
C718 H708 0.930 . S
C718 C716 1.426 . S
C718 C719 1.362 . S
C719 H709 0.930 . S
C719 C712 1.409 1_455 S
C719 C718 1.362 . S
H720 C726 0.930 . S
H721 C729 0.930 . S
H722 C730 0.930 . S
H723 C731 0.930 . S
H724 C734 0.930 . S
H725 C735 0.930 . S
C726 H720 0.930 . S
C726 C727 1.355 1_565 S
C726 C728 1.415 . S
C727 C726 1.355 1_545 S
C727 C729 1.419 . S
C728 C726 1.415 . S
C728 C733 1.425 1_665 S
C728 C735 1.409 1_655 S
C729 H721 0.930 . S
C729 C727 1.419 . S
C729 C730 1.362 . S
C730 H722 0.930 . S
C730 C729 1.362 . S
C730 C733 1.409 1_655 S
C731 H723 0.930 . S
C731 C732 1.355 1_545 S
C731 C733 1.415 . S
C732 C731 1.355 1_565 S
C732 C734 1.419 . S
C733 C728 1.425 1_445 S
C733 C730 1.409 1_455 S
C733 C731 1.415 . S
C734 H724 0.930 . S
C734 C732 1.419 . S
C734 C735 1.362 . S
C735 H725 0.930 . S
C735 C728 1.409 1_455 S
C735 C734 1.362 . S
H736 C742 0.930 . S
H737 C745 0.930 . S
H738 C746 0.930 . S
H739 C747 0.930 . S
H740 C750 0.930 . S
H741 C751 0.930 . S
C742 H736 0.930 . S
C742 C743 1.355 1_565 S
C742 C744 1.415 . S
C743 C742 1.355 1_545 S
C743 C745 1.419 . S
C744 C742 1.415 . S
C744 C749 1.425 1_465 S
C744 C751 1.409 1_455 S
C745 H737 0.930 . S
C745 C743 1.419 . S
C745 C746 1.362 . S
C746 H738 0.930 . S
C746 C745 1.362 . S
C746 C749 1.409 1_455 S
C747 H739 0.930 . S
C747 C748 1.355 1_545 S
C747 C749 1.415 . S
C748 C747 1.355 1_565 S
C748 C750 1.419 . S
C749 C744 1.425 1_645 S
C749 C746 1.409 1_655 S
C749 C747 1.415 . S
C750 H740 0.930 . S
C750 C748 1.419 . S
C750 C751 1.362 . S
C751 H741 0.930 . S
C751 C744 1.409 1_655 S
C751 C750 1.362 . S
H752 C758 0.930 . S
H753 C761 0.930 . S
H754 C762 0.930 . S
H755 C763 0.930 . S
H756 C766 0.930 . S
H757 C767 0.930 . S
C758 H752 0.930 . S
C758 C759 1.355 . S
C758 C760 1.415 . S
C759 C758 1.355 . S
C759 C761 1.419 1_545 S
C760 C758 1.415 . S
C760 C765 1.425 1_645 S
C760 C767 1.409 1_655 S
C761 H753 0.930 . S
C761 C759 1.419 1_565 S
C761 C762 1.362 . S
C762 H754 0.930 . S
C762 C761 1.362 . S
C762 C765 1.409 1_655 S
C763 H755 0.930 . S
C763 C764 1.355 . S
C763 C765 1.415 . S
C764 C763 1.355 . S
C764 C766 1.419 1_565 S
C765 C760 1.425 1_465 S
C765 C762 1.409 1_455 S
C765 C763 1.415 . S
C766 H756 0.930 . S
C766 C764 1.419 1_545 S
C766 C767 1.362 . S
C767 H757 0.930 . S
C767 C760 1.409 1_455 S
C767 C766 1.362 . S
H768 C774 0.930 . S
H769 C777 0.930 . S
H770 C778 0.930 . S
H771 C779 0.930 . S
H772 C782 0.930 . S
H773 C783 0.930 . S
C774 H768 0.930 . S
C774 C775 1.355 . S
C774 C776 1.415 . S
C775 C774 1.355 . S
C775 C777 1.419 . S
C776 C774 1.415 . S
C776 C781 1.425 . S
C776 C783 1.409 . S
C777 H769 0.930 . S
C777 C775 1.419 . S
C777 C778 1.362 . S
C778 H770 0.930 . S
C778 C777 1.362 . S
C778 C781 1.409 . S
C779 H771 0.930 . S
C779 C780 1.355 . S
C779 C781 1.415 . S
C780 C779 1.355 . S
C780 C782 1.419 . S
C781 C776 1.425 . S
C781 C778 1.409 . S
C781 C779 1.415 . S
C782 H772 0.930 . S
C782 C780 1.419 . S
C782 C783 1.362 . S
C783 H773 0.930 . S
C783 C776 1.409 . S
C783 C782 1.362 . S
H784 C790 0.930 . S
H785 C793 0.930 . S
H786 C794 0.930 . S
H787 C795 0.930 . S
H788 C798 0.930 . S
H789 C799 0.930 . S
C790 H784 0.930 . S
C790 C791 1.355 . S
C790 C792 1.415 . S
C791 C790 1.355 . S
C791 C793 1.419 . S
C792 C790 1.415 . S
C792 C797 1.425 . S
C792 C799 1.409 . S
C793 H785 0.930 . S
C793 C791 1.419 . S
C793 C794 1.362 . S
C794 H786 0.930 . S
C794 C793 1.362 . S
C794 C797 1.409 . S
C795 H787 0.930 . S
C795 C796 1.355 . S
C795 C797 1.415 . S
C796 C795 1.355 . S
C796 C798 1.419 . S
C797 C792 1.425 . S
C797 C794 1.409 . S
C797 C795 1.415 . S
C798 H788 0.930 . S
C798 C796 1.419 . S
C798 C799 1.362 . S
C799 H789 0.930 . S
C799 C792 1.409 . S
C799 C798 1.362 . S
H800 C806 0.930 . S
H801 C809 0.930 . S
H802 C810 0.930 . S
H803 C811 0.930 . S
H804 C814 0.930 . S
H805 C815 0.930 . S
C806 H800 0.930 . S
C806 C807 1.355 . S
C806 C808 1.415 . S
C807 C806 1.355 . S
C807 C809 1.419 . S
C808 C806 1.415 . S
C808 C813 1.425 . S
C808 C815 1.409 . S
C809 H801 0.930 . S
C809 C807 1.419 . S
C809 C810 1.362 . S
C810 H802 0.930 . S
C810 C809 1.362 . S
C810 C813 1.409 . S
C811 H803 0.930 . S
C811 C812 1.355 . S
C811 C813 1.415 . S
C812 C811 1.355 . S
C812 C814 1.419 . S
C813 C808 1.425 . S
C813 C810 1.409 . S
C813 C811 1.415 . S
C814 H804 0.930 . S
C814 C812 1.419 . S
C814 C815 1.362 . S
C815 H805 0.930 . S
C815 C808 1.409 . S
C815 C814 1.362 . S
H816 C822 0.930 . S
H817 C825 0.930 . S
H818 C826 0.930 . S
H819 C827 0.930 . S
H820 C830 0.930 . S
H821 C831 0.930 . S
C822 H816 0.930 . S
C822 C823 1.355 . S
C822 C824 1.415 . S
C823 C822 1.355 . S
C823 C825 1.419 . S
C824 C822 1.415 . S
C824 C829 1.425 . S
C824 C831 1.409 . S
C825 H817 0.930 . S
C825 C823 1.419 . S
C825 C826 1.362 . S
C826 H818 0.930 . S
C826 C825 1.362 . S
C826 C829 1.409 . S
C827 H819 0.930 . S
C827 C828 1.355 . S
C827 C829 1.415 . S
C828 C827 1.355 . S
C828 C830 1.419 . S
C829 C824 1.425 . S
C829 C826 1.409 . S
C829 C827 1.415 . S
C830 H820 0.930 . S
C830 C828 1.419 . S
C830 C831 1.362 . S
C831 H821 0.930 . S
C831 C824 1.409 . S
C831 C830 1.362 . S
H832 C838 0.930 . S
H833 C841 0.930 . S
H834 C842 0.930 . S
H835 C843 0.930 . S
H836 C846 0.930 . S
H837 C847 0.930 . S
C838 H832 0.930 . S
C838 C839 1.355 . S
C838 C840 1.415 . S
C839 C838 1.355 . S
C839 C841 1.419 . S
C840 C838 1.415 . S
C840 C845 1.425 . S
C840 C847 1.409 . S
C841 H833 0.930 . S
C841 C839 1.419 . S
C841 C842 1.362 . S
C842 H834 0.930 . S
C842 C841 1.362 . S
C842 C845 1.409 . S
C843 H835 0.930 . S
C843 C844 1.355 . S
C843 C845 1.415 . S
C844 C843 1.355 . S
C844 C846 1.419 . S
C845 C840 1.425 . S
C845 C842 1.409 . S
C845 C843 1.415 . S
C846 H836 0.930 . S
C846 C844 1.419 . S
C846 C847 1.362 . S
C847 H837 0.930 . S
C847 C840 1.409 . S
C847 C846 1.362 . S
H848 C854 0.930 . S
H849 C857 0.930 . S
H850 C858 0.930 . S
H851 C859 0.930 . S
H852 C862 0.930 . S
H853 C863 0.930 . S
C854 H848 0.930 . S
C854 C855 1.355 . S
C854 C856 1.415 . S
C855 C854 1.355 . S
C855 C857 1.419 . S
C856 C854 1.415 . S
C856 C861 1.425 . S
C856 C863 1.409 . S
C857 H849 0.930 . S
C857 C855 1.419 . S
C857 C858 1.362 . S
C858 H850 0.930 . S
C858 C857 1.362 . S
C858 C861 1.409 . S
C859 H851 0.930 . S
C859 C860 1.355 . S
C859 C861 1.415 . S
C860 C859 1.355 . S
C860 C862 1.419 . S
C861 C856 1.425 . S
C861 C858 1.409 . S
C861 C859 1.415 . S
C862 H852 0.930 . S
C862 C860 1.419 . S
C862 C863 1.362 . S
C863 H853 0.930 . S
C863 C856 1.409 . S
C863 C862 1.362 . S
H864 C870 0.930 . S
H865 C873 0.930 . S
H866 C874 0.930 . S
H867 C875 0.930 . S
H868 C878 0.930 . S
H869 C879 0.930 . S
C870 H864 0.930 . S
C870 C871 1.355 . S
C870 C872 1.415 . S
C871 C870 1.355 . S
C871 C873 1.419 . S
C872 C870 1.415 . S
C872 C877 1.425 . S
C872 C879 1.409 . S
C873 H865 0.930 . S
C873 C871 1.419 . S
C873 C874 1.362 . S
C874 H866 0.930 . S
C874 C873 1.362 . S
C874 C877 1.409 . S
C875 H867 0.930 . S
C875 C876 1.355 . S
C875 C877 1.415 . S
C876 C875 1.355 . S
C876 C878 1.419 . S
C877 C872 1.425 . S
C877 C874 1.409 . S
C877 C875 1.415 . S
C878 H868 0.930 . S
C878 C876 1.419 . S
C878 C879 1.362 . S
C879 H869 0.930 . S
C879 C872 1.409 . S
C879 C878 1.362 . S
H880 C886 0.930 . S
H881 C889 0.930 . S
H882 C890 0.930 . S
H883 C891 0.930 . S
H884 C894 0.930 . S
H885 C895 0.930 . S
C886 H880 0.930 . S
C886 C887 1.355 . S
C886 C888 1.415 . S
C887 C886 1.355 . S
C887 C889 1.419 . S
C888 C886 1.415 . S
C888 C893 1.425 . S
C888 C895 1.409 . S
C889 H881 0.930 . S
C889 C887 1.419 . S
C889 C890 1.362 . S
C890 H882 0.930 . S
C890 C889 1.362 . S
C890 C893 1.409 . S
C891 H883 0.930 . S
C891 C892 1.355 . S
C891 C893 1.415 . S
C892 C891 1.355 . S
C892 C894 1.419 . S
C893 C888 1.425 . S
C893 C890 1.409 . S
C893 C891 1.415 . S
C894 H884 0.930 . S
C894 C892 1.419 . S
C894 C895 1.362 . S
C895 H885 0.930 . S
C895 C888 1.409 . S
C895 C894 1.362 . S
H896 C902 0.930 . S
H897 C905 0.930 . S
H898 C906 0.930 . S
H899 C907 0.930 . S
H900 C910 0.930 . S
H901 C911 0.930 . S
C902 H896 0.930 . S
C902 C903 1.355 . S
C902 C904 1.415 . S
C903 C902 1.355 . S
C903 C905 1.419 . S
C904 C902 1.415 . S
C904 C909 1.425 . S
C904 C911 1.409 . S
C905 H897 0.930 . S
C905 C903 1.419 . S
C905 C906 1.362 . S
C906 H898 0.930 . S
C906 C905 1.362 . S
C906 C909 1.409 . S
C907 H899 0.930 . S
C907 C908 1.355 . S
C907 C909 1.415 . S
C908 C907 1.355 . S
C908 C910 1.419 . S
C909 C904 1.425 . S
C909 C906 1.409 . S
C909 C907 1.415 . S
C910 H900 0.930 . S
C910 C908 1.419 . S
C910 C911 1.362 . S
C911 H901 0.930 . S
C911 C904 1.409 . S
C911 C910 1.362 . S
H912 C918 0.930 . S
H913 C921 0.930 . S
H914 C922 0.930 . S
H915 C923 0.930 . S
H916 C926 0.930 . S
H917 C927 0.930 . S
C918 H912 0.930 . S
C918 C919 1.355 . S
C918 C920 1.415 . S
C919 C918 1.355 . S
C919 C921 1.419 . S
C920 C918 1.415 . S
C920 C925 1.425 . S
C920 C927 1.409 . S
C921 H913 0.930 . S
C921 C919 1.419 . S
C921 C922 1.362 . S
C922 H914 0.930 . S
C922 C921 1.362 . S
C922 C925 1.409 . S
C923 H915 0.930 . S
C923 C924 1.355 . S
C923 C925 1.415 . S
C924 C923 1.355 . S
C924 C926 1.419 . S
C925 C920 1.425 . S
C925 C922 1.409 . S
C925 C923 1.415 . S
C926 H916 0.930 . S
C926 C924 1.419 . S
C926 C927 1.362 . S
C927 H917 0.930 . S
C927 C920 1.409 . S
C927 C926 1.362 . S
H928 C934 0.930 . S
H929 C937 0.930 . S
H930 C938 0.930 . S
H931 C939 0.930 . S
H932 C942 0.930 . S
H933 C943 0.930 . S
C934 H928 0.930 . S
C934 C935 1.355 . S
C934 C936 1.415 . S
C935 C934 1.355 . S
C935 C937 1.419 . S
C936 C934 1.415 . S
C936 C941 1.425 . S
C936 C943 1.409 . S
C937 H929 0.930 . S
C937 C935 1.419 . S
C937 C938 1.362 . S
C938 H930 0.930 . S
C938 C937 1.362 . S
C938 C941 1.409 . S
C939 H931 0.930 . S
C939 C940 1.355 . S
C939 C941 1.415 . S
C940 C939 1.355 . S
C940 C942 1.419 . S
C941 C936 1.425 . S
C941 C938 1.409 . S
C941 C939 1.415 . S
C942 H932 0.930 . S
C942 C940 1.419 . S
C942 C943 1.362 . S
C943 H933 0.930 . S
C943 C936 1.409 . S
C943 C942 1.362 . S
H944 C950 0.930 . S
H945 C953 0.930 . S
H946 C954 0.930 . S
H947 C955 0.930 . S
H948 C958 0.930 . S
H949 C959 0.930 . S
C950 H944 0.930 . S
C950 C951 1.355 . S
C950 C952 1.415 . S
C951 C950 1.355 . S
C951 C953 1.419 . S
C952 C950 1.415 . S
C952 C957 1.425 . S
C952 C959 1.409 . S
C953 H945 0.930 . S
C953 C951 1.419 . S
C953 C954 1.362 . S
C954 H946 0.930 . S
C954 C953 1.362 . S
C954 C957 1.409 . S
C955 H947 0.930 . S
C955 C956 1.355 . S
C955 C957 1.415 . S
C956 C955 1.355 . S
C956 C958 1.419 . S
C957 C952 1.425 . S
C957 C954 1.409 . S
C957 C955 1.415 . S
C958 H948 0.930 . S
C958 C956 1.419 . S
C958 C959 1.362 . S
C959 H949 0.930 . S
C959 C952 1.409 . S
C959 C958 1.362 . S
H960 C966 0.930 . S
H961 C969 0.930 . S
H962 C970 0.930 . S
H963 C971 0.930 . S
H964 C974 0.930 . S
H965 C975 0.930 . S
C966 H960 0.930 . S
C966 C967 1.355 . S
C966 C968 1.415 1_565 S
C967 C966 1.355 . S
C967 C969 1.419 . S
C968 C966 1.415 1_545 S
C968 C973 1.425 . S
C968 C975 1.409 . S
C969 H961 0.930 . S
C969 C967 1.419 . S
C969 C970 1.362 1_565 S
C970 H962 0.930 . S
C970 C969 1.362 1_545 S
C970 C973 1.409 . S
C971 H963 0.930 . S
C971 C972 1.355 . S
C971 C973 1.415 . S
C972 C971 1.355 . S
C972 C974 1.419 . S
C973 C968 1.425 . S
C973 C970 1.409 . S
C973 C971 1.415 . S
C974 H964 0.930 . S
C974 C972 1.419 . S
C974 C975 1.362 . S
C975 H965 0.930 . S
C975 C968 1.409 . S
C975 C974 1.362 . S
H976 C982 0.930 . S
H977 C985 0.930 . S
H978 C986 0.930 . S
H979 C987 0.930 1_545 S
H980 C990 0.930 . S
H981 C991 0.930 . S
C982 H976 0.930 . S
C982 C983 1.355 . S
C982 C984 1.415 . S
C983 C982 1.355 . S
C983 C985 1.419 . S
C984 C982 1.415 . S
C984 C989 1.425 . S
C984 C991 1.409 . S
C985 H977 0.930 . S
C985 C983 1.419 . S
C985 C986 1.362 . S
C986 H978 0.930 . S
C986 C985 1.362 . S
C986 C989 1.409 . S
C987 H979 0.930 1_565 S
C987 C988 1.355 1_565 S
C987 C989 1.415 . S
C988 C987 1.355 1_545 S
C988 C990 1.419 . S
C989 C984 1.425 . S
C989 C986 1.409 . S
C989 C987 1.415 . S
C990 H980 0.930 . S
C990 C988 1.419 . S
C990 C991 1.362 1_545 S
C991 H981 0.930 . S
C991 C984 1.409 . S
C991 C990 1.362 1_565 S
H992 C998 0.930 . S
H993 C1001 0.930 . S
H994 C1002 0.930 . S
H995 C1003 0.930 . S
H996 C1006 0.930 . S
H997 C1007 0.930 . S
C998 H992 0.930 . S
C998 C999 1.355 . S
C998 C1000 1.415 1_545 S
C999 C998 1.355 . S
C999 C1001 1.419 . S
C1000 C998 1.415 1_565 S
C1000 C1005 1.425 . S
C1000 C1007 1.409 . S
C1001 H993 0.930 . S
C1001 C999 1.419 . S
C1001 C1002 1.362 1_545 S
C1002 H994 0.930 . S
C1002 C1001 1.362 1_565 S
C1002 C1005 1.409 . S
C1003 H995 0.930 . S
C1003 C1004 1.355 . S
C1003 C1005 1.415 . S
C1004 C1003 1.355 . S
C1004 C1006 1.419 . S
C1005 C1000 1.425 . S
C1005 C1002 1.409 . S
C1005 C1003 1.415 . S
C1006 H996 0.930 . S
C1006 C1004 1.419 . S
C1006 C1007 1.362 . S
C1007 H997 0.930 . S
C1007 C1000 1.409 . S
C1007 C1006 1.362 . S
H1008 C1014 0.930 . S
H1009 C1017 0.930 . S
H1010 C1018 0.930 . S
H1011 C1019 0.930 . S
H1012 C1022 0.930 . S
H1013 C1023 0.930 . S
C1014 H1008 0.930 . S
C1014 C1015 1.355 . S
C1014 C1016 1.415 1_565 S
C1015 C1014 1.355 . S
C1015 C1017 1.419 . S
C1016 C1014 1.415 1_545 S
C1016 C1021 1.425 . S
C1016 C1023 1.409 . S
C1017 H1009 0.930 . S
C1017 C1015 1.419 . S
C1017 C1018 1.362 1_565 S
C1018 H1010 0.930 . S
C1018 C1017 1.362 1_545 S
C1018 C1021 1.409 . S
C1019 H1011 0.930 . S
C1019 C1020 1.355 . S
C1019 C1021 1.415 . S
C1020 C1019 1.355 . S
C1020 C1022 1.419 . S
C1021 C1016 1.425 . S
C1021 C1018 1.409 . S
C1021 C1019 1.415 . S
C1022 H1012 0.930 . S
C1022 C1020 1.419 . S
C1022 C1023 1.362 . S
C1023 H1013 0.930 . S
C1023 C1016 1.409 . S
C1023 C1022 1.362 . S
H1024 C1030 0.930 . S
H1025 C1033 0.930 . S
H1026 C1034 0.930 . S
H1027 C1035 0.930 . S
H1028 C1038 0.930 . S
H1029 C1039 0.930 . S
C1030 H1024 0.930 . S
C1030 C1031 1.355 . S
C1030 C1032 1.415 . S
C1031 C1030 1.355 . S
C1031 C1033 1.419 . S
C1032 C1030 1.415 . S
C1032 C1037 1.425 . S
C1032 C1039 1.409 . S
C1033 H1025 0.930 . S
C1033 C1031 1.419 . S
C1033 C1034 1.362 . S
C1034 H1026 0.930 . S
C1034 C1033 1.362 . S
C1034 C1037 1.409 . S
C1035 H1027 0.930 . S
C1035 C1036 1.355 . S
C1035 C1037 1.415 1_545 S
C1036 C1035 1.355 . S
C1036 C1038 1.419 . S
C1037 C1032 1.425 . S
C1037 C1034 1.409 . S
C1037 C1035 1.415 1_565 S
C1038 H1028 0.930 . S
C1038 C1036 1.419 . S
C1038 C1039 1.362 1_545 S
C1039 H1029 0.930 . S
C1039 C1032 1.409 . S
C1039 C1038 1.362 1_565 S
H1040 C1046 0.930 . S
H1041 C1049 0.930 . S
H1042 C1050 0.930 . S
H1043 C1051 0.930 1_565 S
H1044 C1054 0.930 . S
H1045 C1055 0.930 . S
C1046 H1040 0.930 . S
C1046 C1047 1.355 . S
C1046 C1048 1.415 . S
C1047 C1046 1.355 . S
C1047 C1049 1.419 . S
C1048 C1046 1.415 . S
C1048 C1053 1.425 . S
C1048 C1055 1.409 . S
C1049 H1041 0.930 . S
C1049 C1047 1.419 . S
C1049 C1050 1.362 . S
C1050 H1042 0.930 . S
C1050 C1049 1.362 . S
C1050 C1053 1.409 . S
C1051 H1043 0.930 1_545 S
C1051 C1052 1.355 1_545 S
C1051 C1053 1.415 . S
C1052 C1051 1.355 1_565 S
C1052 C1054 1.419 . S
C1053 C1048 1.425 . S
C1053 C1050 1.409 . S
C1053 C1051 1.415 . S
C1054 H1044 0.930 . S
C1054 C1052 1.419 . S
C1054 C1055 1.362 1_565 S
C1055 H1045 0.930 . S
C1055 C1048 1.409 . S
C1055 C1054 1.362 1_545 S
H1056 C1062 0.930 . S
H1057 C1065 0.930 . S
H1058 C1066 0.930 . S
H1059 C1067 0.930 . S
H1060 C1070 0.930 . S
H1061 C1071 0.930 . S
C1062 H1056 0.930 . S
C1062 C1063 1.355 . S
C1062 C1064 1.415 1_565 S
C1063 C1062 1.355 . S
C1063 C1065 1.419 . S
C1064 C1062 1.415 1_545 S
C1064 C1069 1.425 . S
C1064 C1071 1.409 . S
C1065 H1057 0.930 . S
C1065 C1063 1.419 . S
C1065 C1066 1.362 1_565 S
C1066 H1058 0.930 . S
C1066 C1065 1.362 1_545 S
C1066 C1069 1.409 . S
C1067 H1059 0.930 . S
C1067 C1068 1.355 . S
C1067 C1069 1.415 . S
C1068 C1067 1.355 . S
C1068 C1070 1.419 . S
C1069 C1064 1.425 . S
C1069 C1066 1.409 . S
C1069 C1067 1.415 . S
C1070 H1060 0.930 . S
C1070 C1068 1.419 . S
C1070 C1071 1.362 . S
C1071 H1061 0.930 . S
C1071 C1064 1.409 . S
C1071 C1070 1.362 . S
H1072 C1078 0.930 . S
H1073 C1081 0.930 . S
H1074 C1082 0.930 . S
H1075 C1083 0.930 1_545 S
H1076 C1086 0.930 . S
H1077 C1087 0.930 . S
C1078 H1072 0.930 . S
C1078 C1079 1.355 . S
C1078 C1080 1.415 . S
C1079 C1078 1.355 . S
C1079 C1081 1.419 . S
C1080 C1078 1.415 . S
C1080 C1085 1.425 . S
C1080 C1087 1.409 . S
C1081 H1073 0.930 . S
C1081 C1079 1.419 . S
C1081 C1082 1.362 . S
C1082 H1074 0.930 . S
C1082 C1081 1.362 . S
C1082 C1085 1.409 . S
C1083 H1075 0.930 1_565 S
C1083 C1084 1.355 1_565 S
C1083 C1085 1.415 . S
C1084 C1083 1.355 1_545 S
C1084 C1086 1.419 . S
C1085 C1080 1.425 . S
C1085 C1082 1.409 . S
C1085 C1083 1.415 . S
C1086 H1076 0.930 . S
C1086 C1084 1.419 . S
C1086 C1087 1.362 1_545 S
C1087 H1077 0.930 . S
C1087 C1080 1.409 . S
C1087 C1086 1.362 1_565 S
C327 C19 1.508 . S
C332 C199 1.512 . S
C343 C39 1.504 . S
C348 C179 1.514 . S
C359 C239 1.492 . S
C364 C59 1.518 . S
C375 C79 1.508 . S
C380 C219 1.487 . S
C391 C278 1.504 . S
C396 C98 1.514 . S
C407 C258 1.499 . S
C412 C118 1.517 . S
C423 C318 1.489 . S
C428 C138 1.503 . S
C439 C158 1.518 . S
C444 C298 1.496 . S
C455 C49 1.578 . S
C460 C9 1.566 . S
C471 C69 1.592 . S
C476 C29 1.586 . S
C487 C128 1.582 . S
C492 C88 1.595 . S
C503 C108 1.585 . S
C508 C148 1.564 . S
C519 C209 1.595 . S
C524 C169 1.582 . S
C535 C229 1.596 . S
C540 C189 1.570 . S
C551 C248 1.567 . S
C556 C288 1.577 . S
C567 C268 1.580 . S
C572 C308 1.565 . S
C583 C109 1.468 . S
C588 C8 1.492 . S
C599 C89 1.443 . S
C604 C28 1.517 . S
C615 C48 1.446 . S
C620 C149 1.514 . S
C631 C129 1.446 . S
C636 C68 1.514 . S
C647 C168 1.460 . S
C652 C269 1.501 . S
C663 C249 1.452 . S
C668 C188 1.509 . S
C679 C208 1.488 . S
C684 C309 1.473 . S
C695 C289 1.445 . S
C700 C228 1.515 . S
C711 C38 1.604 1_545 S
C716 C18 1.603 1_565 S
C727 C78 1.549 . S
C732 C58 1.550 . S
C743 C119 1.547 . S
C748 C99 1.552 . S
C759 C139 1.576 . S
C764 C159 1.600 . S
C775 C198 1.595 . S
C780 C178 1.609 . S
C791 C238 1.546 . S
C796 C218 1.561 . S
C807 C259 1.591 . S
C812 C279 1.608 . S
C823 C299 1.594 . S
C828 C319 1.608 . S
C839 C2 1.631 . S
C844 C1 1.631 . S
C855 C22 1.629 . S
C860 C21 1.629 . S
C871 C42 1.631 . S
C876 C41 1.631 . S
C887 C61 1.625 . S
C892 C62 1.625 . S
C903 C81 1.567 . S
C908 C82 1.567 . S
C919 C102 1.569 . S
C924 C101 1.569 . S
C935 C121 1.566 . S
C940 C122 1.566 . S
C951 C141 1.581 . S
C956 C142 1.581 . S
C967 C161 1.620 . S
C972 C162 1.620 . S
C983 C182 1.566 . S
C988 C181 1.566 . S
C999 C201 1.605 . S
C1004 C202 1.605 . S
C1015 C221 1.594 . S
C1020 C222 1.594 . S
C1031 C241 1.628 . S
C1036 C242 1.628 . S
C1047 C261 1.566 . S
C1052 C262 1.566 . S
C1063 C282 1.631 . S
C1068 C281 1.631 . S
C1079 C301 1.572 . S
C1084 C302 1.572 . S
