# Generated by pormake.
# Topology dia, (4)-cn, num edge types: 1
# Building blocks:
#     Node 0, Type 0, BuildingBlock: AZAVOO_clean_sbu_0, # of connection points: 4
#     Node 1, Type 0, BuildingBlock: AZAVOO_clean_sbu_0, # of connection points: 4
#     Node 2, Type 0, BuildingBlock: AZAVOO_clean_sbu_0, # of connection points: 4
#     Node 3, Type 0, BuildingBlock: AZAVOO_clean_sbu_0, # of connection points: 4
#     Node 4, Type 0, BuildingBlock: AZAVOO_clean_sbu_0, # of connection points: 4
#     Node 5, Type 0, BuildingBlock: AZAVOO_clean_sbu_0, # of connection points: 4
#     Node 6, Type 0, BuildingBlock: AZAVOO_clean_sbu_0, # of connection points: 4
#     Node 7, Type 0, BuildingBlock: AZAVOO_clean_sbu_0, # of connection points: 4
#     Edge 8, Type (0, 0), BuildingBlock: XUDNAN_clean_linker_2, # of connection points: 2
#     Edge 9, Type (0, 0), BuildingBlock: XUDNAN_clean_linker_2, # of connection points: 2
#     Edge 10, Type (0, 0), BuildingBlock: XUDNAN_clean_linker_2, # of connection points: 2
#     Edge 11, Type (0, 0), BuildingBlock: XUDNAN_clean_linker_2, # of connection points: 2
#     Edge 12, Type (0, 0), BuildingBlock: XUDNAN_clean_linker_2, # of connection points: 2
#     Edge 13, Type (0, 0), BuildingBlock: XUDNAN_clean_linker_2, # of connection points: 2
#     Edge 14, Type (0, 0), BuildingBlock: XUDNAN_clean_linker_2, # of connection points: 2
#     Edge 15, Type (0, 0), BuildingBlock: XUDNAN_clean_linker_2, # of connection points: 2
#     Edge 16, Type (0, 0), BuildingBlock: XUDNAN_clean_linker_2, # of connection points: 2
#     Edge 17, Type (0, 0), BuildingBlock: XUDNAN_clean_linker_2, # of connection points: 2
#     Edge 18, Type (0, 0), BuildingBlock: XUDNAN_clean_linker_2, # of connection points: 2
#     Edge 19, Type (0, 0), BuildingBlock: XUDNAN_clean_linker_2, # of connection points: 2
#     Edge 20, Type (0, 0), BuildingBlock: XUDNAN_clean_linker_2, # of connection points: 2
#     Edge 21, Type (0, 0), BuildingBlock: XUDNAN_clean_linker_2, # of connection points: 2
#     Edge 22, Type (0, 0), BuildingBlock: XUDNAN_clean_linker_2, # of connection points: 2
#     Edge 23, Type (0, 0), BuildingBlock: XUDNAN_clean_linker_2, # of connection points: 2
# Relax obj value: 0.001
# Max RMSD: 0.026
# Mean RMSD: 0.026
data_MOF--net-dia--node1-AZAVOO_clean_sbu_0--edge1-XUDNAN_clean_linker_2
_symmetry_space_group_name_H-M    P1
_symmetry_Int_Tables_number       1
_symmetry_cell_setting            triclinic
loop_
_symmetry_equiv_pos_as_xyz
'x, y, z'
_cell_length_a     35.447794
_cell_length_b     35.563897
_cell_length_c     35.4841
_cell_angle_alpha  96.151829
_cell_angle_beta   95.681822
_cell_angle_gamma 96.030583
loop_
_atom_site_label
_atom_site_type_symbol
_atom_site_fract_x
_atom_site_fract_y
_atom_site_fract_z
_atom_type_partial_charge
Mg0 Mg 0.13838 0.15434 0.645 0.0
O1 O 0.09636 0.11091 0.60464 0.0
O2 O 0.04771 0.14053 0.58269 0.0
Mg3 Mg 0.05601 0.20196 0.61224 0.0
C4 C 0.06484 0.11077 0.58373 0.0
C5 C 0.19961 0.11296 0.68076 0.0
O6 O 0.19164 0.13864 0.70737 0.0
O7 O 0.15952 0.18386 0.59504 0.0
O8 O 0.10985 0.21675 0.58382 0.0
O9 O 0.10819 0.14265 0.6956 0.0
O10 O 0.09431 0.18644 0.65877 0.0
C11 C 0.14361 0.20941 0.57859 0.0
C12 C 0.08796 0.16972 0.68819 0.0
O13 O 0.18333 0.11238 0.64701 0.0
Mg14 Mg 0.84989 0.34901 0.85112 0.0
O15 O 0.88272 0.39886 0.89265 0.0
O16 O 0.91241 0.37507 0.94166 0.0
Mg17 Mg 0.8983 0.31051 0.93327 0.0
C18 C 0.90443 0.40325 0.92419 0.0
C19 C 0.80237 0.39266 0.79665 0.0
O20 O 0.77656 0.37161 0.81179 0.0
O21 O 0.90633 0.33323 0.82916 0.0
O22 O 0.9297 0.30839 0.8807 0.0
O23 O 0.79865 0.3472 0.88491 0.0
O24 O 0.84717 0.31457 0.89503 0.0
C25 C 0.93187 0.31647 0.84674 0.0
C26 C 0.81487 0.32322 0.90413 0.0
O27 O 0.83751 0.38996 0.80626 0.0
Mg28 Mg 0.61874 0.16052 0.1443 0.0
O29 O 0.5769 0.12412 0.0961 0.0
O30 O 0.54459 0.16643 0.06813 0.0
Mg31 Mg 0.56134 0.22669 0.09825 0.0
C32 C 0.55201 0.13229 0.07043 0.0
C33 C 0.69052 0.12292 0.16614 0.0
O34 O 0.70289 0.15939 0.16924 0.0
O35 O 0.65483 0.18294 0.09963 0.0
O36 O 0.61997 0.22613 0.07693 0.0
O37 O 0.57604 0.15614 0.18707 0.0
O38 O 0.58056 0.20069 0.14856 0.0
C39 C 0.6501 0.20934 0.07842 0.0
C40 C 0.56326 0.18573 0.17443 0.0
O41 O 0.65566 0.11226 0.15378 0.0
Mg42 Mg 0.83847 0.87494 0.35151 0.0
O43 O 0.88306 0.90673 0.3999 0.0
O44 O 0.90422 0.8608 0.43199 0.0
Mg45 Mg 0.87131 0.80271 0.40987 0.0
C46 C 0.90523 0.89573 0.42624 0.0
C47 C 0.80527 0.92648 0.29775 0.0
O48 O 0.77881 0.89763 0.29757 0.0
O49 O 0.88594 0.85117 0.32072 0.0
O50 O 0.90021 0.80412 0.35494 0.0
O51 O 0.78961 0.87881 0.38656 0.0
O52 O 0.82588 0.83207 0.38501 0.0
C53 C 0.90405 0.82263 0.32632 0.0
C54 C 0.79772 0.84699 0.3981 0.0
O55 O 0.83699 0.92663 0.31811 0.0
Mg56 Mg 0.12299 0.65844 0.1362 0.0
O57 O 0.07755 0.62558 0.08954 0.0
O58 O 0.047 0.66937 0.06227 0.0
Mg59 Mg 0.07001 0.72875 0.09169 0.0
C60 C 0.05227 0.63472 0.06491 0.0
C61 C 0.17454 0.60448 0.17304 0.0
O62 O 0.17729 0.63365 0.19963 0.0
O63 O 0.16012 0.67816 0.09097 0.0
O64 O 0.12735 0.72324 0.06925 0.0
O65 O 0.08111 0.65763 0.17996 0.0
O66 O 0.08903 0.70254 0.14223 0.0
C67 C 0.15641 0.70488 0.06995 0.0
C68 C 0.0709 0.68863 0.16813 0.0
O69 O 0.15376 0.60542 0.14185 0.0
Mg70 Mg 0.32402 0.36581 0.35321 0.0
O71 O 0.37031 0.40674 0.39117 0.0
O72 O 0.40045 0.37474 0.43338 0.0
Mg73 Mg 0.37273 0.31259 0.4222 0.0
C74 C 0.39574 0.40559 0.41906 0.0
C75 C 0.30069 0.39968 0.27804 0.0
O76 O 0.29469 0.36304 0.26619 0.0
O77 O 0.36897 0.34002 0.32097 0.0
O78 O 0.39534 0.30531 0.36324 0.0
O79 O 0.28243 0.37681 0.39418 0.0
O80 O 0.31928 0.33042 0.39633 0.0
C81 C 0.39226 0.31658 0.33012 0.0
C82 C 0.29372 0.34874 0.41099 0.0
O83 O 0.31518 0.41044 0.31223 0.0
Mg84 Mg 0.35369 0.85094 0.8482 0.0
O85 O 0.39241 0.89862 0.88692 0.0
O86 O 0.4283 0.87201 0.9296 0.0
Mg87 Mg 0.41094 0.80746 0.92007 0.0
C88 C 0.41826 0.90131 0.91518 0.0
C89 C 0.32697 0.92492 0.81305 0.0
O90 O 0.33923 0.8926 0.80179 0.0
O91 O 0.40376 0.83259 0.8184 0.0
O92 O 0.4345 0.80215 0.86187 0.0
O93 O 0.30807 0.85213 0.88752 0.0
O94 O 0.35494 0.8161 0.89166 0.0
C95 C 0.43002 0.81248 0.82845 0.0
C96 C 0.32484 0.82702 0.90472 0.0
O97 O 0.33902 0.89311 0.80318 0.0
Mg98 Mg 0.64053 0.64623 0.63051 0.0
O99 O 0.5908 0.61181 0.5884 0.0
O100 O 0.55339 0.65545 0.57078 0.0
Mg101 Mg 0.57548 0.71468 0.60032 0.0
C102 C 0.56153 0.62118 0.56887 0.0
C103 C 0.66932 0.57044 0.65407 0.0
O104 O 0.67874 0.59462 0.63029 0.0
O105 O 0.66704 0.66922 0.57898 0.0
O106 O 0.62525 0.71036 0.56578 0.0
O107 O 0.6063 0.6413 0.68102 0.0
O108 O 0.60494 0.68707 0.64391 0.0
C109 C 0.65494 0.69452 0.55924 0.0
C110 C 0.59186 0.67128 0.67147 0.0
O111 O 0.67747 0.59476 0.63124 0.0
H112 H 0.2949 0.28025 0.44022 0.0
H113 H 0.25026 0.38936 0.45517 0.0
H114 H 0.211 0.36606 0.50317 0.0
H115 H 0.20977 0.22435 0.44354 0.0
H116 H 0.22908 0.18872 0.46977 0.0
H117 H 0.25852 0.21506 0.44077 0.0
H118 H 0.30888 0.2369 0.49906 0.0
H119 H 0.2799 0.21008 0.52821 0.0
H120 H 0.29447 0.26016 0.5421 0.0
H121 H 0.17042 0.32952 0.5413 0.0
H122 H 0.13377 0.28299 0.57368 0.0
H123 H 0.20443 0.19635 0.53686 0.0
C124 C 0.27776 0.29957 0.45452 0.0
C125 C 0.27567 0.33669 0.44412 0.0
C126 C 0.2523 0.36088 0.46276 0.0
C127 C 0.22993 0.34791 0.49008 0.0
C128 C 0.23143 0.31076 0.49859 0.0
C129 C 0.25507 0.28699 0.48193 0.0
C130 C 0.24895 0.24744 0.49446 0.0
C131 C 0.2358 0.21712 0.46008 0.0
C132 C 0.28521 0.2381 0.51733 0.0
C133 C 0.21728 0.2525 0.51972 0.0
C134 C 0.20789 0.28937 0.5216 0.0
C135 C 0.17788 0.30074 0.54065 0.0
C136 C 0.15697 0.27387 0.55861 0.0
C137 C 0.16616 0.23595 0.55774 0.0
C138 C 0.197 0.22519 0.53826 0.0
H139 H 0.65295 0.51268 0.69483 0.0
H140 H 0.74608 0.56906 0.64365 0.0
H141 H 0.79026 0.5279 0.67257 0.0
H142 H 0.7044 0.50383 0.78235 0.0
H143 H 0.68079 0.45749 0.78733 0.0
H144 H 0.65626 0.4894 0.76033 0.0
H145 H 0.64421 0.43802 0.70152 0.0
H146 H 0.66846 0.40579 0.72847 0.0
H147 H 0.68399 0.41693 0.68367 0.0
H148 H 0.8253 0.4833 0.71201 0.0
H149 H 0.84681 0.43737 0.75505 0.0
H150 H 0.72989 0.40976 0.77845 0.0
C151 C 0.68252 0.51583 0.68914 0.0
C152 C 0.69597 0.54375 0.6668 0.0
C153 C 0.73498 0.54751 0.66033 0.0
C154 C 0.76033 0.52433 0.67677 0.0
C155 C 0.74618 0.49738 0.69927 0.0
C156 C 0.70803 0.49278 0.70502 0.0
C157 C 0.69999 0.46254 0.73106 0.0
C158 C 0.68446 0.47934 0.76742 0.0
C159 C 0.67254 0.42883 0.70991 0.0
C160 C 0.73968 0.45135 0.7398 0.0
C161 C 0.76603 0.47163 0.72123 0.0
C162 C 0.80477 0.46698 0.72631 0.0
C163 C 0.81677 0.44089 0.75088 0.0
C164 C 0.79009 0.41973 0.77002 0.0
C165 C 0.75107 0.42514 0.76407 0.0
H166 H 0.54959 0.05395 0.06947 0.0
H167 H 0.50572 0.14149 0.00669 0.0
H168 H 0.46868 0.09214 0.95981 0.0
H169 H 0.55745 0.98661 0.98653 0.0
H170 H 0.54223 0.94543 0.00911 0.0
H171 H 0.56664 0.98761 0.03754 0.0
H172 H 0.51038 0.98984 0.07879 0.0
H173 H 0.48581 0.94771 0.05048 0.0
H174 H 0.46271 0.99045 0.05598 0.0
H175 H 0.43496 0.03402 0.92033 0.0
H176 H 0.40634 0.97018 0.89093 0.0
H177 H 0.47131 0.91952 0.97864 0.0
C178 C 0.53241 0.06273 0.04573 0.0
C179 C 0.5307 0.10176 0.04196 0.0
C180 C 0.50757 0.11191 0.0105 0.0
C181 C 0.4864 0.08405 0.98353 0.0
C182 C 0.48849 0.04599 0.98822 0.0
C183 C 0.51085 0.03518 0.01845 0.0
C184 C 0.5071 0.99214 0.01709 0.0
C185 C 0.54565 0.97707 0.01227 0.0
C186 C 0.49051 0.97929 0.0527 0.0
C187 C 0.47903 0.98064 0.98153 0.0
C188 C 0.4688 0.0122 0.96531 0.0
C189 C 0.44283 0.00902 0.93267 0.0
C190 C 0.42669 0.97257 0.91617 0.0
C191 C 0.43652 0.93966 0.93232 0.0
C192 C 0.46324 0.94398 0.9654 0.0
H193 H 0.9559 0.77122 0.33383 0.0
H194 H 0.90594 0.8409 0.25331 0.0
H195 H 0.94111 0.81168 0.20332 0.0
H196 H 0.0491 0.7759 0.29955 0.0
H197 H 0.0554 0.72762 0.30749 0.0
H198 H 0.02678 0.75465 0.3369 0.0
H199 H 0.97005 0.70145 0.31902 0.0
H200 H -0.0017 0.67452 0.28906 0.0
H201 H 0.95301 0.68695 0.26948 0.0
H202 H 0.97941 0.77333 0.16175 0.0
H203 H 0.0235 0.73313 0.1326 0.0
H204 H 0.04963 0.68895 0.24025 0.0
C205 C 0.9525 0.78058 0.30576 0.0
C206 C 0.92806 0.80831 0.29745 0.0
C207 C 0.92462 0.81987 0.26041 0.0
C208 C 0.94427 0.80326 0.23177 0.0
C209 C 0.96737 0.77537 0.24075 0.0
C210 C 0.97202 0.76449 0.27695 0.0
C211 C -0.00092 0.73434 0.27928 0.0
C212 C 0.0347 0.74902 0.30747 0.0
C213 C 0.97888 0.69711 0.28983 0.0
C214 C 0.00873 0.72973 0.23857 0.0
C215 C -0.01002 0.75359 0.21686 0.0
C216 C -0.00546 0.75482 0.17855 0.0
C217 C 0.01988 0.73196 0.16226 0.0
C218 C 0.04045 0.7083 0.18424 0.0
C219 C 0.03407 0.70656 0.22268 0.0
H220 H 0.3037 0.99387 0.82889 0.0
H221 H 0.31763 0.91115 0.73373 0.0
H222 H 0.29005 0.95221 0.68882 0.0
H223 H 0.21457 0.01829 0.79222 0.0
H224 H 0.2246 0.06805 0.81027 0.0
H225 H 0.24768 0.03324 0.8344 0.0
H226 H 0.31385 0.06916 0.82805 0.0
H227 H 0.29092 0.10413 0.80387 0.0
H228 H 0.32593 0.07885 0.78159 0.0
H229 H 0.25663 1.00114 0.65447 0.0
H230 H 0.22131 0.0535 0.6343 0.0
H231 H 0.231 0.10413 0.75222 0.0
C232 C 0.30138 0.98468 0.79854 0.0
C233 C 0.31293 0.94952 0.78486 0.0
C234 C 0.30916 0.93814 0.74495 0.0
C235 C 0.29351 0.96129 0.71919 0.0
C236 C 0.28203 0.99577 0.73372 0.0
C237 C 0.28601 1.00747 0.7725 0.0
C238 C 0.27037 0.04508 0.78104 0.0
C239 C 0.23735 0.04089 0.80594 0.0
C240 C 0.30217 0.07614 0.79974 0.0
C241 C 0.25633 0.05244 0.7411 0.0
C242 C 0.26337 0.02384 0.71409 0.0
C243 C 0.25136 0.02389 0.6754 0.0
C244 C 0.23133 0.05374 0.66417 0.0
C245 C 0.22354 0.0831 0.69156 0.0
C246 C 0.23674 0.08242 0.73041 0.0
H247 H 0.95879 0.42282 0.98597 0.0
H248 H 0.89046 0.47159 0.89933 0.0
H249 H 0.92119 0.53582 0.92575 0.0
H250 H 0.95692 0.49747 0.0626 0.0
H251 H 0.00547 0.49542 0.08217 0.0
H252 H 0.97773 0.45337 0.05673 0.0
H253 H 0.02994 0.44638 0.01109 0.0
H254 H 0.05778 0.48849 0.03629 0.0
H255 H 0.04468 0.48561 0.98558 0.0
H256 H 0.9593 0.59462 0.96151 0.0
H257 H 0.00188 0.64405 0.00394 0.0
H258 H 0.04624 0.55689 0.06688 0.0
C259 C 0.95006 0.44696 0.97258 0.0
C260 C 0.92204 0.44204 0.94055 0.0
C261 C 0.91178 0.47451 0.92385 0.0
C262 C 0.92909 0.51114 0.93866 0.0
C263 C 0.95671 0.51485 0.97007 0.0
C264 C 0.96715 0.48365 0.98684 0.0
C265 C -0.00213 0.49539 0.02014 0.0
C266 C 0.98363 0.48479 0.05762 0.0
C267 C 0.03475 0.47793 0.01282 0.0
C268 C 0.00305 0.53814 0.01955 0.0
C269 C 0.97899 0.54873 0.99046 0.0
C270 C 0.97828 0.58666 0.98435 0.0
C271 C 0.00264 0.61455 0.0087 0.0
C272 C 0.02756 0.60449 0.03885 0.0
C273 C 0.02775 0.56562 0.04407 0.0
H274 H 0.44691 0.2678 0.33905 0.0
H275 H 0.38808 0.32744 0.25454 0.0
H276 H 0.42255 0.29688 0.20487 0.0
H277 H 0.53744 0.27535 0.30143 0.0
H278 H 0.54796 0.2289 0.31216 0.0
H279 H 0.5182 0.25511 0.34093 0.0
H280 H 0.46491 0.19808 0.32755 0.0
H281 H 0.49436 0.17186 0.29833 0.0
H282 H 0.44728 0.17975 0.27894 0.0
H283 H 0.46313 0.26025 0.16447 0.0
H284 H 0.51072 0.22333 0.13669 0.0
H285 H 0.54354 0.18749 0.2471 0.0
C286 C 0.44126 0.27454 0.31013 0.0
C287 C 0.41467 0.30002 0.30076 0.0
C288 C 0.40832 0.3081 0.26253 0.0
C289 C 0.42761 0.29073 0.23403 0.0
C290 C 0.45315 0.26538 0.2442 0.0
C291 C 0.46028 0.25751 0.28133 0.0
C292 C 0.48995 0.22997 0.28479 0.0
C293 C 0.52549 0.24845 0.31139 0.0
C294 C 0.4731 0.19271 0.29819 0.0
C295 C 0.49849 0.22371 0.24377 0.0
C296 C 0.47678 0.24428 0.22084 0.0
C297 C 0.48036 0.24409 0.18213 0.0
C298 C 0.50765 0.22319 0.16664 0.0
C299 C 0.53101 0.20284 0.18979 0.0
C300 C 0.5257 0.20241 0.22865 0.0
H301 H 0.81541 0.8106 0.46114 0.0
H302 H 0.72169 0.83281 0.38154 0.0
H303 H 0.67772 0.7877 0.40923 0.0
H304 H 0.78603 0.7112 0.46709 0.0
H305 H 0.79857 0.71402 0.51788 0.0
H306 H 0.82404 0.74606 0.49053 0.0
H307 H 0.80775 0.80419 0.53383 0.0
H308 H 0.78307 0.7723 0.5618 0.0
H309 H 0.75864 0.80836 0.541 0.0
H310 H 0.64482 0.7396 0.44259 0.0
H311 H 0.61935 0.70276 0.49105 0.0
H312 H 0.73182 0.71514 0.55471 0.0
C313 C 0.78553 0.80602 0.44994 0.0
C314 C 0.77165 0.82491 0.41928 0.0
C315 C 0.73254 0.81877 0.4053 0.0
C316 C 0.70756 0.79283 0.42044 0.0
C317 C 0.72211 0.77396 0.45007 0.0
C318 C 0.75979 0.7811 0.46568 0.0
C319 C 0.76671 0.7598 0.50016 0.0
C320 C 0.79556 0.73106 0.4935 0.0
C321 C 0.7798 0.78783 0.53634 0.0
C322 C 0.72695 0.73967 0.50138 0.0
C323 C 0.70217 0.74756 0.47139 0.0
C324 C 0.66379 0.73332 0.46632 0.0
C325 C 0.64967 0.71227 0.49388 0.0
C326 C 0.67367 0.70617 0.52645 0.0
C327 C 0.71313 0.71879 0.52965 0.0
H328 H 0.21843 0.59336 0.23807 0.0
H329 H 0.17585 0.53937 0.12406 0.0
H330 H 0.2078 0.48276 0.1369 0.0
H331 H 0.31078 0.55625 0.24357 0.0
H332 H 0.31067 0.5499 0.29328 0.0
H333 H 0.28649 0.587 0.27424 0.0
H334 H 0.22376 0.56008 0.29859 0.0
H335 H 0.24776 0.52303 0.31779 0.0
H336 H 0.20523 0.51085 0.28461 0.0
H337 H 0.24147 0.43059 0.16365 0.0
H338 H 0.27283 0.38662 0.20243 0.0
H339 H 0.29371 0.47516 0.29873 0.0
C340 C 0.21609 0.56983 0.21559 0.0
C341 C 0.19467 0.5709 0.17997 0.0
C342 C 0.19214 0.53929 0.15153 0.0
C343 C 0.21028 0.50704 0.15853 0.0
C344 C 0.23096 0.50689 0.19405 0.0
C345 C 0.23397 0.53749 0.22209 0.0
C346 C 0.25644 0.52958 0.25842 0.0
C347 C 0.29328 0.55734 0.26792 0.0
C348 C 0.23182 0.53096 0.29181 0.0
C349 C 0.26511 0.48947 0.2467 0.0
C350 C 0.25041 0.47696 0.20938 0.0
C351 C 0.25338 0.44022 0.19278 0.0
C352 C 0.27127 0.41544 0.21506 0.0
C353 C 0.28593 0.42743 0.2536 0.0
C354 C 0.28327 0.46521 0.26926 0.0
H355 H 0.74664 0.33495 0.93229 0.0
H356 H 0.84229 0.26847 0.94374 0.0
H357 H 0.81182 0.23396 0.99099 0.0
H358 H 0.72785 0.34082 0.03258 0.0
H359 H 0.6768 0.33586 0.02077 0.0
H360 H 0.70761 0.35777 0.98983 0.0
H361 H 0.676 0.30908 0.93298 0.0
H362 H 0.64535 0.28685 0.96379 0.0
H363 H 0.67513 0.25883 0.93669 0.0
H364 H 0.76982 0.20382 0.03445 0.0
H365 H 0.71902 0.1814 0.07245 0.0
H366 H 0.65012 0.2662 0.03204 0.0
C367 C 0.76143 0.3136 0.94523 0.0
C368 C 0.79723 0.30504 0.93473 0.0
C369 C 0.81532 0.27634 0.95184 0.0
C370 C 0.79812 0.25627 0.97863 0.0
C371 C 0.7627 0.26503 0.98804 0.0
C372 C 0.74455 0.29308 0.97204 0.0
C373 C 0.70588 0.29572 0.98613 0.0
C374 C 0.70447 0.33487 0.00867 0.0
C375 C 0.6737 0.28709 0.95291 0.0
C376 C 0.70506 0.26445 0.01199 0.0
C377 C 0.73817 0.24722 0.01283 0.0
C378 C 0.74377 0.21721 0.03425 0.0
C379 C 0.71473 0.2046 0.05564 0.0
C380 C 0.68054 0.22195 0.05529 0.0
C381 C 0.67585 0.25223 0.03303 0.0
H382 H 0.73838 0.93473 0.25546 0.0
H383 H 0.85301 0.99108 0.29092 0.0
H384 H 0.83744 0.04546 0.25657 0.0
H385 H 0.72731 0.96703 0.16088 0.0
H386 H 0.67765 0.9729 0.16309 0.0
H387 H 0.69877 0.93735 0.18801 0.0
H388 H 0.67717 0.96674 0.25121 0.0
H389 H 0.65597 1.00228 0.22652 0.0
H390 H 0.69099 0.01655 0.26733 0.0
H391 H 0.80797 0.0952 0.22144 0.0
H392 H 0.76692 0.1371 0.1899 0.0
H393 H 0.67133 0.04811 0.17759 0.0
C394 C 0.76046 0.95826 0.2557 0.0
C395 C 0.79704 0.95854 0.27584 0.0
C396 C 0.82486 0.99013 0.27563 0.0
C397 C 0.81629 0.02111 0.25612 0.0
C398 C 0.77981 0.01999 0.23685 0.0
C399 C 0.75237 0.98933 0.23647 0.0
C400 C 0.71478 0.99586 0.21525 0.0
C401 C 0.70401 0.96654 0.17969 0.0
C402 C 0.68286 0.99534 0.24166 0.0
C403 C 0.72506 0.03538 0.20435 0.0
C404 C 0.76281 0.04863 0.21676 0.0
C405 C 0.77849 0.08497 0.21135 0.0
C406 C 0.75486 0.10858 0.19339 0.0
C407 C 0.71586 0.09593 0.18111 0.0
C408 C 0.70107 0.05854 0.18621 0.0
H409 H 0.90722 0.97423 0.43889 0.0
H410 H 0.96882 0.88034 0.46875 0.0
H411 H 0.01704 0.9253 0.50991 0.0
H412 H -0.00937 0.0432 0.43793 0.0
H413 H 0.96881 0.08266 0.45912 0.0
H414 H 0.9396 0.04336 0.43037 0.0
H415 H 0.89922 0.03367 0.4863 0.0
H416 H 0.92828 0.07293 0.51519 0.0
H417 H 0.92265 0.02687 0.53212 0.0
H418 H 0.05833 0.97958 0.54843 0.0
H419 H 0.08887 0.04007 0.58423 0.0
H420 H 0.00035 0.09946 0.53146 0.0
C421 C 0.931 0.96321 0.45388 0.0
C422 C 0.93414 0.92367 0.45048 0.0
C423 C 0.96555 0.9104 0.47094 0.0
C424 C -0.00673 0.93575 0.49433 0.0
C425 C 0.98924 0.9744 0.49726 0.0
C426 C 0.95889 0.98818 0.47781 0.0
C427 C 0.9608 0.03103 0.48732 0.0
C428 C 0.96523 0.05125 0.45155 0.0
C429 C 0.92565 0.04174 0.50637 0.0
C430 C -0.00318 0.03897 0.51525 0.0
C431 C 0.01287 1.00589 0.52027 0.0
C432 C 0.04607 1.00574 0.54476 0.0
C433 C 0.06324 0.04032 0.56497 0.0
C434 C 0.0471 0.07467 0.56083 0.0
C435 C 0.01348 0.0738 0.53538 0.0
H436 H 0.93668 0.30102 0.76896 0.0
H437 H -0.00269 0.29634 0.88071 0.0
H438 H 0.04123 0.25621 0.85164 0.0
H439 H 0.9421 0.20779 0.73049 0.0
H440 H 0.95182 0.21784 0.68345 0.0
H441 H 0.92593 0.24916 0.71167 0.0
H442 H 0.97518 0.30672 0.70551 0.0
H443 H 0.00063 0.27577 0.67632 0.0
H444 H 0.02522 0.30408 0.71852 0.0
H445 H 0.07168 0.2089 0.81344 0.0
H446 H 0.09996 0.16983 0.7646 0.0
H447 H 0.02559 0.2089 0.67589 0.0
C448 C 0.95993 0.29256 0.78708 0.0
C449 C 0.96307 0.30136 0.82721 0.0
C450 C -0.00615 0.28953 0.84997 0.0
C451 C 0.01896 0.26656 0.8338 0.0
C452 C 0.01366 0.25634 0.79464 0.0
C453 C 0.98601 0.27 0.77124 0.0
C454 C 0.98739 0.25467 0.72982 0.0
C455 C 0.94955 0.23096 0.71288 0.0
C456 C -0.00226 0.28725 0.70615 0.0
C457 C 0.01942 0.22969 0.73408 0.0
C458 C 0.03351 0.23064 0.77188 0.0
C459 C 0.06154 0.20844 0.7836 0.0
C460 C 0.07704 0.18593 0.75569 0.0
C461 C 0.06503 0.18648 0.71656 0.0
C462 C 0.03537 0.20813 0.70564 0.0
H463 H 0.58608 0.68767 0.74788 0.0
H464 H 0.52663 0.68988 0.6355 0.0
H465 H 0.48061 0.7288 0.66344 0.0
H466 H 0.49843 0.68181 0.79765 0.0
H467 H 0.5219 0.71129 0.83965 0.0
H468 H 0.54885 0.68166 0.81079 0.0
H469 H 0.59548 0.74113 0.804 0.0
H470 H 0.56814 0.77106 0.83203 0.0
H471 H 0.57708 0.78137 0.78486 0.0
H472 H 0.4453 0.77247 0.70213 0.0
H473 H 0.41493 0.80933 0.75102 0.0
H474 H 0.49467 0.77667 0.8394 0.0
C475 C 0.56271 0.69553 0.72944 0.0
C476 C 0.56019 0.68655 0.6895 0.0
C477 C 0.52962 0.69754 0.66604 0.0
C478 C 0.50324 0.71946 0.68166 0.0
C479 C 0.50758 0.72968 0.7209 0.0
C480 C 0.53585 0.71734 0.74468 0.0
C481 C 0.53394 0.73264 0.78592 0.0
C482 C 0.52525 0.6999 0.80992 0.0
C483 C 0.57086 0.75806 0.80267 0.0
C484 C 0.50058 0.75582 0.78134 0.0
C485 C 0.48611 0.75398 0.74354 0.0
C486 C 0.456 0.7738 0.73194 0.0
C487 C 0.43918 0.79497 0.75993 0.0
C488 C 0.45228 0.79582 0.79909 0.0
C489 C 0.4839 0.77652 0.80973 0.0
H490 H 0.15621 0.7598 0.02183 0.0
H491 H 0.22698 0.67895 0.06736 0.0
H492 H 0.27968 0.70419 0.03282 0.0
H493 H 0.18821 0.75487 0.92929 0.0
H494 H 0.1861 0.80481 0.92574 0.0
H495 H 0.15455 0.77996 0.95397 0.0
H496 H 0.17922 0.82954 0.01254 0.0
H497 H 0.21127 0.85424 0.98463 0.0
H498 H 0.22963 0.83777 0.02836 0.0
H499 H 0.32426 0.73845 -0.00728 0.0
H500 H 0.35576 0.77585 0.94765 0.0
H501 H 0.25556 0.83507 0.93048 0.0
C502 C 0.18267 0.74713 0.02459 0.0
C503 C 0.18741 0.71733 0.04739 0.0
C504 C 0.2226 0.7017 0.04998 0.0
C505 C 0.25274 0.71599 0.03065 0.0
C506 C 0.24716 0.7459 0.00903 0.0
C507 C 0.21288 0.76107 0.00576 0.0
C508 C 0.21373 0.79269 0.98045 0.0
C509 C 0.18389 0.78245 0.94528 0.0
C510 C 0.20814 0.83081 0.00285 0.0
C511 C 0.25389 0.7929 0.96963 0.0
C512 C 0.2728 0.76584 0.9865 0.0
C513 C 0.3098 0.75987 0.97958 0.0
C514 C 0.32753 0.78144 0.95403 0.0
C515 C 0.30829 0.80872 0.93578 0.0
C516 C 0.27126 0.8149 0.94437 0.0
H517 H 0.45103 0.41679 0.48133 0.0
H518 H 0.39524 0.47574 0.39426 0.0
H519 H 0.43343 0.53578 0.42211 0.0
H520 H 0.45496 0.49134 0.55796 0.0
H521 H 0.50127 0.48394 0.57984 0.0
H522 H 0.47082 0.44473 0.55237 0.0
H523 H 0.52445 0.43247 0.50962 0.0
H524 H 0.5551 0.47163 0.53701 0.0
H525 H 0.54535 0.47069 0.48606 0.0
H526 H 0.4745 0.58963 0.46016 0.0
H527 H 0.51767 0.63506 0.50601 0.0
H528 H 0.54908 0.54265 0.56895 0.0
C529 C 0.44703 0.44226 0.46793 0.0
C530 C 0.41998 0.44137 0.4355 0.0
C531 C 0.41562 0.47548 0.41905 0.0
C532 C 0.43725 0.50981 0.43464 0.0
C533 C 0.46332 0.50972 0.46665 0.0
C534 C 0.46851 0.47694 0.48313 0.0
C535 C 0.49798 0.48524 0.51804 0.0
C536 C 0.48019 0.47575 0.55419 0.0
C537 C 0.53278 0.46373 0.51233 0.0
C538 C 0.50818 0.52788 0.5187 0.0
C539 C 0.48771 0.5412 0.4887 0.0
C540 C 0.49086 0.57957 0.48366 0.0
C541 C 0.51539 0.60518 0.51005 0.0
C542 C 0.53679 0.5925 0.54119 0.0
C543 C 0.53337 0.55317 0.5453 0.0
loop_
_geom_bond_atom_site_label_1
_geom_bond_atom_site_label_2
_geom_bond_distance
_geom_bond_site_symmetry_2
_ccdc_geom_bond_type
Mg0 O1 2.028 . S
Mg0 O7 1.986 . S
Mg0 O9 2.114 . S
Mg0 O10 2.251 . S
Mg0 O13 2.010 . S
O1 Mg0 2.028 . S
O1 C4 1.250 . S
O2 Mg3 2.028 . S
O2 C4 1.248 . S
Mg3 O2 2.028 . S
Mg3 O8 2.032 . S
Mg3 O10 2.079 . S
C4 O1 1.250 . S
C4 O2 1.248 . S
C5 O6 1.264 . S
C5 O13 1.249 . S
O6 C5 1.264 . S
O7 Mg0 1.986 . S
O7 C11 1.246 . S
O8 Mg3 2.032 . S
O8 C11 1.259 . S
O9 Mg0 2.114 . S
O9 C12 1.252 . S
O10 Mg0 2.251 . S
O10 Mg3 2.079 . S
O10 C12 1.273 . S
C11 O7 1.246 . S
C11 O8 1.259 . S
C12 O9 1.252 . S
C12 O10 1.273 . S
O13 Mg0 2.010 . S
O13 C5 1.249 . S
Mg14 O15 2.028 . S
Mg14 O21 1.986 . S
Mg14 O23 2.114 . S
Mg14 O24 2.251 . S
Mg14 O27 2.010 . S
O15 Mg14 2.028 . S
O15 C18 1.250 . S
O16 Mg17 2.028 . S
O16 C18 1.248 . S
Mg17 O16 2.028 . S
Mg17 O22 2.032 . S
Mg17 O24 2.079 . S
C18 O15 1.250 . S
C18 O16 1.248 . S
C19 O20 1.264 . S
C19 O27 1.249 . S
O20 C19 1.264 . S
O21 Mg14 1.986 . S
O21 C25 1.246 . S
O22 Mg17 2.032 . S
O22 C25 1.259 . S
O23 Mg14 2.114 . S
O23 C26 1.252 . S
O24 Mg14 2.251 . S
O24 Mg17 2.079 . S
O24 C26 1.273 . S
C25 O21 1.246 . S
C25 O22 1.259 . S
C26 O23 1.252 . S
C26 O24 1.273 . S
O27 Mg14 2.010 . S
O27 C19 1.249 . S
Mg28 O29 2.028 . S
Mg28 O35 1.986 . S
Mg28 O37 2.114 . S
Mg28 O38 2.251 . S
Mg28 O41 2.010 . S
O29 Mg28 2.028 . S
O29 C32 1.250 . S
O30 Mg31 2.028 . S
O30 C32 1.248 . S
Mg31 O30 2.028 . S
Mg31 O36 2.032 . S
Mg31 O38 2.079 . S
C32 O29 1.250 . S
C32 O30 1.248 . S
C33 O34 1.264 . S
C33 O41 1.249 . S
O34 C33 1.264 . S
O35 Mg28 1.986 . S
O35 C39 1.246 . S
O36 Mg31 2.032 . S
O36 C39 1.259 . S
O37 Mg28 2.114 . S
O37 C40 1.252 . S
O38 Mg28 2.251 . S
O38 Mg31 2.079 . S
O38 C40 1.273 . S
C39 O35 1.246 . S
C39 O36 1.259 . S
C40 O37 1.252 . S
C40 O38 1.273 . S
O41 Mg28 2.010 . S
O41 C33 1.249 . S
Mg42 O43 2.028 . S
Mg42 O49 1.986 . S
Mg42 O51 2.114 . S
Mg42 O52 2.251 . S
Mg42 O55 2.010 . S
O43 Mg42 2.028 . S
O43 C46 1.250 . S
O44 Mg45 2.028 . S
O44 C46 1.248 . S
Mg45 O44 2.028 . S
Mg45 O50 2.032 . S
Mg45 O52 2.079 . S
C46 O43 1.250 . S
C46 O44 1.248 . S
C47 O48 1.264 . S
C47 O55 1.249 . S
O48 C47 1.264 . S
O49 Mg42 1.986 . S
O49 C53 1.246 . S
O50 Mg45 2.032 . S
O50 C53 1.259 . S
O51 Mg42 2.114 . S
O51 C54 1.252 . S
O52 Mg42 2.251 . S
O52 Mg45 2.079 . S
O52 C54 1.273 . S
C53 O49 1.246 . S
C53 O50 1.259 . S
C54 O51 1.252 . S
C54 O52 1.273 . S
O55 Mg42 2.010 . S
O55 C47 1.249 . S
Mg56 O57 2.028 . S
Mg56 O63 1.986 . S
Mg56 O65 2.114 . S
Mg56 O66 2.251 . S
Mg56 O69 2.010 . S
O57 Mg56 2.028 . S
O57 C60 1.250 . S
O58 Mg59 2.028 . S
O58 C60 1.248 . S
Mg59 O58 2.028 . S
Mg59 O64 2.032 . S
Mg59 O66 2.079 . S
C60 O57 1.250 . S
C60 O58 1.248 . S
C61 O62 1.264 . S
C61 O69 1.249 . S
O62 C61 1.264 . S
O63 Mg56 1.986 . S
O63 C67 1.246 . S
O64 Mg59 2.032 . S
O64 C67 1.259 . S
O65 Mg56 2.114 . S
O65 C68 1.252 . S
O66 Mg56 2.251 . S
O66 Mg59 2.079 . S
O66 C68 1.273 . S
C67 O63 1.246 . S
C67 O64 1.259 . S
C68 O65 1.252 . S
C68 O66 1.273 . S
O69 Mg56 2.010 . S
O69 C61 1.249 . S
Mg70 O71 2.028 . S
Mg70 O77 1.986 . S
Mg70 O79 2.114 . S
Mg70 O80 2.251 . S
Mg70 O83 2.010 . S
O71 Mg70 2.028 . S
O71 C74 1.250 . S
O72 Mg73 2.028 . S
O72 C74 1.248 . S
Mg73 O72 2.028 . S
Mg73 O78 2.032 . S
Mg73 O80 2.079 . S
C74 O71 1.250 . S
C74 O72 1.248 . S
C75 O76 1.264 . S
C75 O83 1.249 . S
O76 C75 1.264 . S
O77 Mg70 1.986 . S
O77 C81 1.246 . S
O78 Mg73 2.032 . S
O78 C81 1.259 . S
O79 Mg70 2.114 . S
O79 C82 1.252 . S
O80 Mg70 2.251 . S
O80 Mg73 2.079 . S
O80 C82 1.273 . S
C81 O77 1.246 . S
C81 O78 1.259 . S
C82 O79 1.252 . S
C82 O80 1.273 . S
O83 Mg70 2.010 . S
O83 C75 1.249 . S
Mg84 O85 2.028 . S
Mg84 O91 1.986 . S
Mg84 O93 2.114 . S
Mg84 O94 2.251 . S
Mg84 O97 2.010 . S
O85 Mg84 2.028 . S
O85 C88 1.250 . S
O86 Mg87 2.028 . S
O86 C88 1.248 . S
Mg87 O86 2.028 . S
Mg87 O92 2.032 . S
Mg87 O94 2.079 . S
C88 O85 1.250 . S
C88 O86 1.248 . S
C89 O90 1.264 . S
C89 O97 1.249 . S
O90 C89 1.264 . S
O91 Mg84 1.986 . S
O91 C95 1.246 . S
O92 Mg87 2.032 . S
O92 C95 1.259 . S
O93 Mg84 2.114 . S
O93 C96 1.252 . S
O94 Mg84 2.251 . S
O94 Mg87 2.079 . S
O94 C96 1.273 . S
C95 O91 1.246 . S
C95 O92 1.259 . S
C96 O93 1.252 . S
C96 O94 1.273 . S
O97 Mg84 2.010 . S
O97 C89 1.249 . S
Mg98 O99 2.028 . S
Mg98 O105 1.986 . S
Mg98 O107 2.114 . S
Mg98 O108 2.251 . S
Mg98 O111 2.010 . S
O99 Mg98 2.028 . S
O99 C102 1.250 . S
O100 Mg101 2.028 . S
O100 C102 1.248 . S
Mg101 O100 2.028 . S
Mg101 O106 2.032 . S
Mg101 O108 2.079 . S
C102 O99 1.250 . S
C102 O100 1.248 . S
C103 O104 1.264 . S
C103 O111 1.249 . S
O104 C103 1.264 . S
O105 Mg98 1.986 . S
O105 C109 1.246 . S
O106 Mg101 2.032 . S
O106 C109 1.259 . S
O107 Mg98 2.114 . S
O107 C110 1.252 . S
O108 Mg98 2.251 . S
O108 Mg101 2.079 . S
O108 C110 1.273 . S
C109 O105 1.246 . S
C109 O106 1.259 . S
C110 O107 1.252 . S
C110 O108 1.273 . S
O111 Mg98 2.010 . S
O111 C103 1.249 . S
H112 C124 0.930 . S
H113 C126 0.930 . S
H114 C127 0.930 . S
H115 C131 0.959 . S
H116 C131 0.959 . S
H117 C131 0.961 . S
H118 C132 0.960 . S
H119 C132 0.961 . S
H120 C132 0.959 . S
H121 C135 0.929 . S
H122 C136 0.931 . S
H123 C138 0.930 . S
C124 H112 0.930 . S
C124 C125 1.399 . S
C124 C129 1.399 . S
C125 C124 1.399 . S
C125 C126 1.376 . S
C126 H113 0.930 . S
C126 C125 1.376 . S
C126 C127 1.388 . S
C127 H114 0.930 . S
C127 C126 1.388 . S
C127 C128 1.390 . S
C128 C127 1.390 . S
C128 C129 1.394 . S
C128 C134 1.465 . S
C129 C124 1.399 . S
C129 C128 1.394 . S
C129 C130 1.516 . S
C130 C129 1.516 . S
C130 C131 1.502 . S
C130 C132 1.561 . S
C130 C133 1.526 . S
C131 H115 0.959 . S
C131 H116 0.959 . S
C131 H117 0.961 . S
C131 C130 1.502 . S
C132 H118 0.960 . S
C132 H119 0.961 . S
C132 H120 0.959 . S
C132 C130 1.561 . S
C133 C130 1.526 . S
C133 C134 1.396 . S
C133 C138 1.390 . S
C134 C128 1.465 . S
C134 C133 1.396 . S
C134 C135 1.399 . S
C135 H121 0.929 . S
C135 C134 1.399 . S
C135 C136 1.385 . S
C136 H122 0.931 . S
C136 C135 1.385 . S
C136 C137 1.389 . S
C137 C136 1.389 . S
C137 C138 1.387 . S
C138 H123 0.930 . S
C138 C133 1.390 . S
C138 C137 1.387 . S
H139 C151 0.930 . S
H140 C153 0.930 . S
H141 C154 0.930 . S
H142 C158 0.959 . S
H143 C158 0.959 . S
H144 C158 0.961 . S
H145 C159 0.960 . S
H146 C159 0.961 . S
H147 C159 0.959 . S
H148 C162 0.929 . S
H149 C163 0.931 . S
H150 C165 0.930 . S
C151 H139 0.930 . S
C151 C152 1.399 . S
C151 C156 1.399 . S
C152 C151 1.399 . S
C152 C153 1.376 . S
C153 H140 0.930 . S
C153 C152 1.376 . S
C153 C154 1.388 . S
C154 H141 0.930 . S
C154 C153 1.388 . S
C154 C155 1.390 . S
C155 C154 1.390 . S
C155 C156 1.394 . S
C155 C161 1.465 . S
C156 C151 1.399 . S
C156 C155 1.394 . S
C156 C157 1.516 . S
C157 C156 1.516 . S
C157 C158 1.502 . S
C157 C159 1.561 . S
C157 C160 1.526 . S
C158 H142 0.959 . S
C158 H143 0.959 . S
C158 H144 0.961 . S
C158 C157 1.502 . S
C159 H145 0.960 . S
C159 H146 0.961 . S
C159 H147 0.959 . S
C159 C157 1.561 . S
C160 C157 1.526 . S
C160 C161 1.396 . S
C160 C165 1.390 . S
C161 C155 1.465 . S
C161 C160 1.396 . S
C161 C162 1.399 . S
C162 H148 0.929 . S
C162 C161 1.399 . S
C162 C163 1.385 . S
C163 H149 0.931 . S
C163 C162 1.385 . S
C163 C164 1.389 . S
C164 C163 1.389 . S
C164 C165 1.387 . S
C165 H150 0.930 . S
C165 C160 1.390 . S
C165 C164 1.387 . S
H166 C178 0.930 . S
H167 C180 0.930 . S
H168 C181 0.930 1_556 S
H169 C185 0.959 . S
H170 C185 0.959 . S
H171 C185 0.961 . S
H172 C186 0.960 . S
H173 C186 0.961 . S
H174 C186 0.959 . S
H175 C189 0.929 . S
H176 C190 0.931 . S
H177 C192 0.930 . S
C178 H166 0.930 . S
C178 C179 1.399 . S
C178 C183 1.399 . S
C179 C178 1.399 . S
C179 C180 1.376 . S
C180 H167 0.930 . S
C180 C179 1.376 . S
C180 C181 1.388 . S
C181 H168 0.930 1_554 S
C181 C180 1.388 . S
C181 C182 1.390 . S
C182 C181 1.390 . S
C182 C183 1.394 . S
C182 C188 1.465 1_554 S
C183 C178 1.399 . S
C183 C182 1.394 . S
C183 C184 1.516 1_545 S
C184 C183 1.516 1_565 S
C184 C185 1.502 . S
C184 C186 1.561 . S
C184 C187 1.526 1_554 S
C185 H169 0.959 . S
C185 H170 0.959 . S
C185 H171 0.961 . S
C185 C184 1.502 . S
C186 H172 0.960 . S
C186 H173 0.961 . S
C186 H174 0.959 . S
C186 C184 1.561 . S
C187 C184 1.526 1_556 S
C187 C188 1.396 1_565 S
C187 C192 1.390 . S
C188 C182 1.465 1_556 S
C188 C187 1.396 1_545 S
C188 C189 1.399 . S
C189 H175 0.929 . S
C189 C188 1.399 . S
C189 C190 1.385 1_545 S
C190 H176 0.931 . S
C190 C189 1.385 1_565 S
C190 C191 1.389 . S
C191 C190 1.389 . S
C191 C192 1.387 . S
C192 H177 0.930 . S
C192 C187 1.390 . S
C192 C191 1.387 . S
H193 C205 0.930 . S
H194 C207 0.930 . S
H195 C208 0.930 . S
H196 C212 0.959 . S
H197 C212 0.959 . S
H198 C212 0.961 . S
H199 C213 0.960 . S
H200 C213 0.961 . S
H201 C213 0.959 1_655 S
H202 C216 0.929 . S
H203 C217 0.931 . S
H204 C219 0.930 . S
C205 H193 0.930 . S
C205 C206 1.399 . S
C205 C210 1.399 . S
C206 C205 1.399 . S
C206 C207 1.376 . S
C207 H194 0.930 . S
C207 C206 1.376 . S
C207 C208 1.388 . S
C208 H195 0.930 . S
C208 C207 1.388 . S
C208 C209 1.390 . S
C209 C208 1.390 . S
C209 C210 1.394 . S
C209 C215 1.465 . S
C210 C205 1.399 . S
C210 C209 1.394 . S
C210 C211 1.516 1_655 S
C211 C210 1.516 1_455 S
C211 C212 1.502 . S
C211 C213 1.561 . S
C211 C214 1.526 . S
C212 H196 0.959 . S
C212 H197 0.959 . S
C212 H198 0.961 . S
C212 C211 1.502 . S
C213 H199 0.960 . S
C213 H200 0.961 . S
C213 H201 0.959 1_455 S
C213 C211 1.561 . S
C214 C211 1.526 . S
C214 C215 1.396 1_455 S
C214 C219 1.390 . S
C215 C209 1.465 . S
C215 C214 1.396 1_655 S
C215 C216 1.399 . S
C216 H202 0.929 . S
C216 C215 1.399 . S
C216 C217 1.385 1_655 S
C217 H203 0.931 . S
C217 C216 1.385 1_455 S
C217 C218 1.389 . S
C218 C217 1.389 . S
C218 C219 1.387 . S
C219 H204 0.930 . S
C219 C214 1.390 . S
C219 C218 1.387 . S
H220 C232 0.930 . S
H221 C234 0.930 . S
H222 C235 0.930 . S
H223 C239 0.959 . S
H224 C239 0.959 . S
H225 C239 0.961 . S
H226 C240 0.960 . S
H227 C240 0.961 . S
H228 C240 0.959 . S
H229 C243 0.929 . S
H230 C244 0.931 . S
H231 C246 0.930 . S
C232 H220 0.930 . S
C232 C233 1.399 . S
C232 C237 1.399 . S
C233 C232 1.399 . S
C233 C234 1.376 . S
C234 H221 0.930 . S
C234 C233 1.376 . S
C234 C235 1.388 . S
C235 H222 0.930 . S
C235 C234 1.388 . S
C235 C236 1.390 . S
C236 C235 1.390 . S
C236 C237 1.394 . S
C236 C242 1.465 . S
C237 C232 1.399 . S
C237 C236 1.394 . S
C237 C238 1.516 1_565 S
C238 C237 1.516 1_545 S
C238 C239 1.502 . S
C238 C240 1.561 . S
C238 C241 1.526 . S
C239 H223 0.959 . S
C239 H224 0.959 . S
C239 H225 0.961 . S
C239 C238 1.502 . S
C240 H226 0.960 . S
C240 H227 0.961 . S
C240 H228 0.959 . S
C240 C238 1.561 . S
C241 C238 1.526 . S
C241 C242 1.396 1_545 S
C241 C246 1.390 . S
C242 C236 1.465 . S
C242 C241 1.396 1_565 S
C242 C243 1.399 . S
C243 H229 0.929 . S
C243 C242 1.399 . S
C243 C244 1.385 1_565 S
C244 H230 0.931 . S
C244 C243 1.385 1_545 S
C244 C245 1.389 . S
C245 C244 1.389 . S
C245 C246 1.387 . S
C246 H231 0.930 . S
C246 C241 1.390 . S
C246 C245 1.387 . S
H247 C259 0.930 . S
H248 C261 0.930 . S
H249 C262 0.930 . S
H250 C266 0.959 . S
H251 C266 0.959 . S
H252 C266 0.961 . S
H253 C267 0.960 . S
H254 C267 0.961 . S
H255 C267 0.959 . S
H256 C270 0.929 . S
H257 C271 0.931 . S
H258 C273 0.930 . S
C259 H247 0.930 . S
C259 C260 1.399 . S
C259 C264 1.399 . S
C260 C259 1.399 . S
C260 C261 1.376 . S
C261 H248 0.930 . S
C261 C260 1.376 . S
C261 C262 1.388 . S
C262 H249 0.930 . S
C262 C261 1.388 . S
C262 C263 1.390 . S
C263 C262 1.390 . S
C263 C264 1.394 . S
C263 C269 1.465 1_656 S
C264 C259 1.399 . S
C264 C263 1.394 . S
C264 C265 1.519 1_655 S
C265 C264 1.519 1_455 S
C265 C266 1.497 1_556 S
C265 C267 1.566 . S
C265 C268 1.523 1_556 S
C266 H250 0.959 . S
C266 H251 0.959 . S
C266 H252 0.961 . S
C266 C265 1.497 1_554 S
C267 H253 0.960 . S
C267 H254 0.961 . S
C267 H255 0.959 . S
C267 C265 1.566 . S
C268 C265 1.523 1_554 S
C268 C269 1.396 . S
C268 C273 1.390 . S
C269 C263 1.465 1_454 S
C269 C268 1.396 . S
C269 C270 1.399 1_455 S
C270 H256 0.929 . S
C270 C269 1.399 1_655 S
C270 C271 1.385 1_655 S
C271 H257 0.931 . S
C271 C270 1.385 1_455 S
C271 C272 1.389 . S
C272 C271 1.389 . S
C272 C273 1.387 . S
C273 H258 0.930 . S
C273 C268 1.390 . S
C273 C272 1.387 . S
H274 C286 0.930 . S
H275 C288 0.930 . S
H276 C289 0.930 . S
H277 C293 0.959 . S
H278 C293 0.959 . S
H279 C293 0.961 . S
H280 C294 0.960 . S
H281 C294 0.961 . S
H282 C294 0.959 . S
H283 C297 0.929 . S
H284 C298 0.931 . S
H285 C300 0.930 . S
C286 H274 0.930 . S
C286 C287 1.399 . S
C286 C291 1.399 . S
C287 C286 1.399 . S
C287 C288 1.376 . S
C288 H275 0.930 . S
C288 C287 1.376 . S
C288 C289 1.388 . S
C289 H276 0.930 . S
C289 C288 1.388 . S
C289 C290 1.390 . S
C290 C289 1.390 . S
C290 C291 1.394 . S
C290 C296 1.465 . S
C291 C286 1.399 . S
C291 C290 1.394 . S
C291 C292 1.516 . S
C292 C291 1.516 . S
C292 C293 1.502 . S
C292 C294 1.561 . S
C292 C295 1.526 . S
C293 H277 0.959 . S
C293 H278 0.959 . S
C293 H279 0.961 . S
C293 C292 1.502 . S
C294 H280 0.960 . S
C294 H281 0.961 . S
C294 H282 0.959 . S
C294 C292 1.561 . S
C295 C292 1.526 . S
C295 C296 1.396 . S
C295 C300 1.390 . S
C296 C290 1.465 . S
C296 C295 1.396 . S
C296 C297 1.399 . S
C297 H283 0.929 . S
C297 C296 1.399 . S
C297 C298 1.385 . S
C298 H284 0.931 . S
C298 C297 1.385 . S
C298 C299 1.389 . S
C299 C298 1.389 . S
C299 C300 1.387 . S
C300 H285 0.930 . S
C300 C295 1.390 . S
C300 C299 1.387 . S
H301 C313 0.930 . S
H302 C315 0.930 . S
H303 C316 0.930 . S
H304 C320 0.959 . S
H305 C320 0.959 . S
H306 C320 0.961 . S
H307 C321 0.960 . S
H308 C321 0.961 . S
H309 C321 0.959 . S
H310 C324 0.929 . S
H311 C325 0.931 . S
H312 C327 0.930 . S
C313 H301 0.930 . S
C313 C314 1.399 . S
C313 C318 1.399 . S
C314 C313 1.399 . S
C314 C315 1.376 . S
C315 H302 0.930 . S
C315 C314 1.376 . S
C315 C316 1.388 . S
C316 H303 0.930 . S
C316 C315 1.388 . S
C316 C317 1.390 . S
C317 C316 1.390 . S
C317 C318 1.394 . S
C317 C323 1.465 . S
C318 C313 1.399 . S
C318 C317 1.394 . S
C318 C319 1.516 . S
C319 C318 1.516 . S
C319 C320 1.502 . S
C319 C321 1.561 . S
C319 C322 1.526 . S
C320 H304 0.959 . S
C320 H305 0.959 . S
C320 H306 0.961 . S
C320 C319 1.502 . S
C321 H307 0.960 . S
C321 H308 0.961 . S
C321 H309 0.959 . S
C321 C319 1.561 . S
C322 C319 1.526 . S
C322 C323 1.396 . S
C322 C327 1.390 . S
C323 C317 1.465 . S
C323 C322 1.396 . S
C323 C324 1.399 . S
C324 H310 0.929 . S
C324 C323 1.399 . S
C324 C325 1.385 . S
C325 H311 0.931 . S
C325 C324 1.385 . S
C325 C326 1.389 . S
C326 C325 1.389 . S
C326 C327 1.387 . S
C327 H312 0.930 . S
C327 C322 1.390 . S
C327 C326 1.387 . S
H328 C340 0.930 . S
H329 C342 0.930 . S
H330 C343 0.930 . S
H331 C347 0.959 . S
H332 C347 0.959 . S
H333 C347 0.961 . S
H334 C348 0.960 . S
H335 C348 0.961 . S
H336 C348 0.959 . S
H337 C351 0.929 . S
H338 C352 0.931 . S
H339 C354 0.930 . S
C340 H328 0.930 . S
C340 C341 1.399 . S
C340 C345 1.399 . S
C341 C340 1.399 . S
C341 C342 1.376 . S
C342 H329 0.930 . S
C342 C341 1.376 . S
C342 C343 1.388 . S
C343 H330 0.930 . S
C343 C342 1.388 . S
C343 C344 1.390 . S
C344 C343 1.390 . S
C344 C345 1.394 . S
C344 C350 1.465 . S
C345 C340 1.399 . S
C345 C344 1.394 . S
C345 C346 1.516 . S
C346 C345 1.516 . S
C346 C347 1.502 . S
C346 C348 1.561 . S
C346 C349 1.526 . S
C347 H331 0.959 . S
C347 H332 0.959 . S
C347 H333 0.961 . S
C347 C346 1.502 . S
C348 H334 0.960 . S
C348 H335 0.961 . S
C348 H336 0.959 . S
C348 C346 1.561 . S
C349 C346 1.526 . S
C349 C350 1.396 . S
C349 C354 1.390 . S
C350 C344 1.465 . S
C350 C349 1.396 . S
C350 C351 1.399 . S
C351 H337 0.929 . S
C351 C350 1.399 . S
C351 C352 1.385 . S
C352 H338 0.931 . S
C352 C351 1.385 . S
C352 C353 1.389 . S
C353 C352 1.389 . S
C353 C354 1.387 . S
C354 H339 0.930 . S
C354 C349 1.390 . S
C354 C353 1.387 . S
H355 C367 0.930 . S
H356 C369 0.930 . S
H357 C370 0.930 . S
H358 C374 0.959 . S
H359 C374 0.959 . S
H360 C374 0.961 . S
H361 C375 0.960 . S
H362 C375 0.961 . S
H363 C375 0.959 . S
H364 C378 0.929 . S
H365 C379 0.931 . S
H366 C381 0.930 . S
C367 H355 0.930 . S
C367 C368 1.399 . S
C367 C372 1.399 . S
C368 C367 1.399 . S
C368 C369 1.376 . S
C369 H356 0.930 . S
C369 C368 1.376 . S
C369 C370 1.388 . S
C370 H357 0.930 . S
C370 C369 1.388 . S
C370 C371 1.390 . S
C371 C370 1.390 . S
C371 C372 1.394 . S
C371 C377 1.465 . S
C372 C367 1.399 . S
C372 C371 1.394 . S
C372 C373 1.516 1_556 S
C373 C372 1.516 1_554 S
C373 C374 1.502 . S
C373 C375 1.561 . S
C373 C376 1.526 . S
C374 H358 0.959 . S
C374 H359 0.959 . S
C374 H360 0.961 . S
C374 C373 1.502 . S
C375 H361 0.960 . S
C375 H362 0.961 . S
C375 H363 0.959 . S
C375 C373 1.561 . S
C376 C373 1.526 . S
C376 C377 1.396 1_554 S
C376 C381 1.390 . S
C377 C371 1.465 . S
C377 C376 1.396 1_556 S
C377 C378 1.399 . S
C378 H364 0.929 . S
C378 C377 1.399 . S
C378 C379 1.385 1_556 S
C379 H365 0.931 . S
C379 C378 1.385 1_554 S
C379 C380 1.389 . S
C380 C379 1.389 . S
C380 C381 1.387 . S
C381 H366 0.930 . S
C381 C376 1.390 . S
C381 C380 1.387 . S
H382 C394 0.930 . S
H383 C396 0.930 . S
H384 C397 0.930 . S
H385 C401 0.959 . S
H386 C401 0.959 . S
H387 C401 0.961 . S
H388 C402 0.960 . S
H389 C402 0.961 . S
H390 C402 0.959 . S
H391 C405 0.929 . S
H392 C406 0.931 . S
H393 C408 0.930 . S
C394 H382 0.930 . S
C394 C395 1.399 . S
C394 C399 1.399 . S
C395 C394 1.399 . S
C395 C396 1.376 . S
C396 H383 0.930 . S
C396 C395 1.376 . S
C396 C397 1.388 1_565 S
C397 H384 0.930 . S
C397 C396 1.388 1_545 S
C397 C398 1.390 . S
C398 C397 1.390 . S
C398 C399 1.394 1_545 S
C398 C404 1.465 . S
C399 C394 1.399 . S
C399 C398 1.394 1_565 S
C399 C400 1.516 . S
C400 C399 1.516 . S
C400 C401 1.502 . S
C400 C402 1.561 . S
C400 C403 1.526 1_565 S
C401 H385 0.959 . S
C401 H386 0.959 . S
C401 H387 0.961 . S
C401 C400 1.502 . S
C402 H388 0.960 . S
C402 H389 0.961 . S
C402 H390 0.959 . S
C402 C400 1.561 . S
C403 C400 1.526 1_545 S
C403 C404 1.396 . S
C403 C408 1.390 . S
C404 C398 1.465 . S
C404 C403 1.396 . S
C404 C405 1.399 . S
C405 H391 0.929 . S
C405 C404 1.399 . S
C405 C406 1.385 . S
C406 H392 0.931 . S
C406 C405 1.385 . S
C406 C407 1.389 . S
C407 C406 1.389 . S
C407 C408 1.387 . S
C408 H393 0.930 . S
C408 C403 1.390 . S
C408 C407 1.387 . S
H409 C421 0.930 . S
H410 C423 0.930 . S
H411 C424 0.930 1_455 S
H412 C428 0.959 . S
H413 C428 0.959 . S
H414 C428 0.961 . S
H415 C429 0.960 . S
H416 C429 0.961 . S
H417 C429 0.959 . S
H418 C432 0.929 . S
H419 C433 0.931 . S
H420 C435 0.930 . S
C421 H409 0.930 . S
C421 C422 1.399 . S
C421 C426 1.399 . S
C422 C421 1.399 . S
C422 C423 1.376 . S
C423 H410 0.930 . S
C423 C422 1.376 . S
C423 C424 1.388 . S
C424 H411 0.930 1_655 S
C424 C423 1.388 . S
C424 C425 1.390 . S
C425 C424 1.390 . S
C425 C426 1.394 . S
C425 C431 1.465 1_655 S
C426 C421 1.399 . S
C426 C425 1.394 . S
C426 C427 1.516 1_565 S
C427 C426 1.516 1_545 S
C427 C428 1.502 . S
C427 C429 1.561 . S
C427 C430 1.526 1_655 S
C428 H412 0.959 . S
C428 H413 0.959 . S
C428 H414 0.961 . S
C428 C427 1.502 . S
C429 H415 0.960 . S
C429 H416 0.961 . S
C429 H417 0.959 . S
C429 C427 1.561 . S
C430 C427 1.526 1_455 S
C430 C431 1.396 1_545 S
C430 C435 1.390 . S
C431 C425 1.465 1_455 S
C431 C430 1.396 1_565 S
C431 C432 1.399 . S
C432 H418 0.929 . S
C432 C431 1.399 . S
C432 C433 1.385 1_565 S
C433 H419 0.931 . S
C433 C432 1.385 1_545 S
C433 C434 1.389 . S
C434 C433 1.389 . S
C434 C435 1.387 . S
C435 H420 0.930 . S
C435 C430 1.390 . S
C435 C434 1.387 . S
H436 C448 0.930 . S
H437 C450 0.930 . S
H438 C451 0.930 . S
H439 C455 0.959 . S
H440 C455 0.959 . S
H441 C455 0.961 . S
H442 C456 0.960 . S
H443 C456 0.961 . S
H444 C456 0.959 . S
H445 C459 0.929 . S
H446 C460 0.931 . S
H447 C462 0.930 . S
C448 H436 0.930 . S
C448 C449 1.399 . S
C448 C453 1.399 . S
C449 C448 1.399 . S
C449 C450 1.376 . S
C450 H437 0.930 . S
C450 C449 1.376 . S
C450 C451 1.388 . S
C451 H438 0.930 . S
C451 C450 1.388 . S
C451 C452 1.390 . S
C452 C451 1.390 . S
C452 C453 1.394 . S
C452 C458 1.465 1_655 S
C453 C448 1.399 . S
C453 C452 1.394 . S
C453 C454 1.516 . S
C454 C453 1.516 . S
C454 C455 1.502 . S
C454 C456 1.561 1_655 S
C454 C457 1.526 1_655 S
C455 H439 0.959 . S
C455 H440 0.959 . S
C455 H441 0.961 . S
C455 C454 1.502 . S
C456 H442 0.960 . S
C456 H443 0.961 . S
C456 H444 0.959 . S
C456 C454 1.561 1_455 S
C457 C454 1.526 1_455 S
C457 C458 1.396 . S
C457 C462 1.390 . S
C458 C452 1.465 1_455 S
C458 C457 1.396 . S
C458 C459 1.399 . S
C459 H445 0.929 . S
C459 C458 1.399 . S
C459 C460 1.385 . S
C460 H446 0.931 . S
C460 C459 1.385 . S
C460 C461 1.389 . S
C461 C460 1.389 . S
C461 C462 1.387 . S
C462 H447 0.930 . S
C462 C457 1.390 . S
C462 C461 1.387 . S
H463 C475 0.930 . S
H464 C477 0.930 . S
H465 C478 0.930 . S
H466 C482 0.959 . S
H467 C482 0.959 . S
H468 C482 0.961 . S
H469 C483 0.960 . S
H470 C483 0.961 . S
H471 C483 0.959 . S
H472 C486 0.929 . S
H473 C487 0.931 . S
H474 C489 0.930 . S
C475 H463 0.930 . S
C475 C476 1.399 . S
C475 C480 1.399 . S
C476 C475 1.399 . S
C476 C477 1.376 . S
C477 H464 0.930 . S
C477 C476 1.376 . S
C477 C478 1.388 . S
C478 H465 0.930 . S
C478 C477 1.388 . S
C478 C479 1.390 . S
C479 C478 1.390 . S
C479 C480 1.394 . S
C479 C485 1.465 . S
C480 C475 1.399 . S
C480 C479 1.394 . S
C480 C481 1.516 . S
C481 C480 1.516 . S
C481 C482 1.502 . S
C481 C483 1.561 . S
C481 C484 1.526 . S
C482 H466 0.959 . S
C482 H467 0.959 . S
C482 H468 0.961 . S
C482 C481 1.502 . S
C483 H469 0.960 . S
C483 H470 0.961 . S
C483 H471 0.959 . S
C483 C481 1.561 . S
C484 C481 1.526 . S
C484 C485 1.396 . S
C484 C489 1.390 . S
C485 C479 1.465 . S
C485 C484 1.396 . S
C485 C486 1.399 . S
C486 H472 0.929 . S
C486 C485 1.399 . S
C486 C487 1.385 . S
C487 H473 0.931 . S
C487 C486 1.385 . S
C487 C488 1.389 . S
C488 C487 1.389 . S
C488 C489 1.387 . S
C489 H474 0.930 . S
C489 C484 1.390 . S
C489 C488 1.387 . S
H490 C502 0.930 . S
H491 C504 0.930 . S
H492 C505 0.930 . S
H493 C509 0.959 . S
H494 C509 0.959 . S
H495 C509 0.961 . S
H496 C510 0.960 . S
H497 C510 0.961 . S
H498 C510 0.959 . S
H499 C513 0.923 1_554 S
H500 C514 0.931 . S
H501 C516 0.930 . S
C502 H490 0.930 . S
C502 C503 1.399 . S
C502 C507 1.399 . S
C503 C502 1.399 . S
C503 C504 1.376 . S
C504 H491 0.930 . S
C504 C503 1.376 . S
C504 C505 1.388 . S
C505 H492 0.930 . S
C505 C504 1.388 . S
C505 C506 1.390 . S
C506 C505 1.390 . S
C506 C507 1.394 . S
C506 C512 1.465 1_554 S
C507 C502 1.399 . S
C507 C506 1.394 . S
C507 C508 1.516 1_554 S
C508 C507 1.516 1_556 S
C508 C509 1.502 . S
C508 C510 1.561 1_556 S
C508 C511 1.526 . S
C509 H493 0.959 . S
C509 H494 0.959 . S
C509 H495 0.961 . S
C509 C508 1.502 . S
C510 H496 0.960 . S
C510 H497 0.961 . S
C510 H498 0.959 . S
C510 C508 1.561 1_554 S
C511 C508 1.526 . S
C511 C512 1.396 . S
C511 C516 1.390 . S
C512 C506 1.465 1_556 S
C512 C511 1.396 . S
C512 C513 1.399 . S
C513 H499 0.923 1_556 S
C513 C512 1.399 . S
C513 C514 1.385 . S
C514 H500 0.931 . S
C514 C513 1.385 . S
C514 C515 1.389 . S
C515 C514 1.389 . S
C515 C516 1.387 . S
C516 H501 0.930 . S
C516 C511 1.390 . S
C516 C515 1.387 . S
H517 C529 0.930 . S
H518 C531 0.930 . S
H519 C532 0.930 . S
H520 C536 0.959 . S
H521 C536 0.959 . S
H522 C536 0.961 . S
H523 C537 0.960 . S
H524 C537 0.961 . S
H525 C537 0.959 . S
H526 C540 0.929 . S
H527 C541 0.931 . S
H528 C543 0.930 . S
C529 H517 0.930 . S
C529 C530 1.399 . S
C529 C534 1.399 . S
C530 C529 1.399 . S
C530 C531 1.376 . S
C531 H518 0.930 . S
C531 C530 1.376 . S
C531 C532 1.388 . S
C532 H519 0.930 . S
C532 C531 1.388 . S
C532 C533 1.390 . S
C533 C532 1.390 . S
C533 C534 1.394 . S
C533 C539 1.465 . S
C534 C529 1.399 . S
C534 C533 1.394 . S
C534 C535 1.516 . S
C535 C534 1.516 . S
C535 C536 1.502 . S
C535 C537 1.561 . S
C535 C538 1.526 . S
C536 H520 0.959 . S
C536 H521 0.959 . S
C536 H522 0.961 . S
C536 C535 1.502 . S
C537 H523 0.960 . S
C537 H524 0.961 . S
C537 H525 0.959 . S
C537 C535 1.561 . S
C538 C535 1.526 . S
C538 C539 1.396 . S
C538 C543 1.390 . S
C539 C533 1.465 . S
C539 C538 1.396 . S
C539 C540 1.399 . S
C540 H526 0.929 . S
C540 C539 1.399 . S
C540 C541 1.385 . S
C541 H527 0.931 . S
C541 C540 1.385 . S
C541 C542 1.389 . S
C542 C541 1.389 . S
C542 C543 1.387 . S
C543 H528 0.930 . S
C543 C538 1.390 . S
C543 C542 1.387 . S
C125 C82 1.494 . S
C137 C11 1.459 . S
C152 C103 1.181 . S
C164 C19 1.335 . S
C179 C32 1.420 . S
C191 C88 1.485 . S
C206 C53 1.488 . S
C218 C68 1.495 . S
C233 C89 1.182 . S
C245 C5 1.335 . S
C260 C18 1.487 . S
C272 C60 1.423 . S
C287 C81 1.488 . S
C299 C40 1.495 . S
C314 C54 1.491 . S
C326 C109 1.444 . S
C341 C61 1.334 . S
C353 C75 1.181 . S
C368 C26 1.491 . S
C380 C39 1.456 . S
C395 C47 1.312 . S
C407 C33 1.188 . S
C422 C46 1.420 . S
C434 C4 1.485 . S
C449 C25 1.440 . S
C461 C12 1.492 . S
C476 C110 1.495 . S
C488 C95 1.491 . S
C503 C67 1.494 . S
C515 C96 1.495 . S
C530 C74 1.467 . S
C542 C102 1.433 . S
