# Generated by pormake.
# Topology neb, (4)-cn, num edge types: 1
# Building blocks:
#     Node 0, Type 0, BuildingBlock: TATPOV_clean_sbu_0, # of connection points: 4
#     Node 1, Type 0, BuildingBlock: TATPOV_clean_sbu_0, # of connection points: 4
#     Node 2, Type 0, BuildingBlock: TATPOV_clean_sbu_0, # of connection points: 4
#     Node 3, Type 0, BuildingBlock: TATPOV_clean_sbu_0, # of connection points: 4
#     Node 4, Type 0, BuildingBlock: TATPOV_clean_sbu_0, # of connection points: 4
#     Node 5, Type 0, BuildingBlock: TATPOV_clean_sbu_0, # of connection points: 4
#     Node 6, Type 0, BuildingBlock: TATPOV_clean_sbu_0, # of connection points: 4
#     Node 7, Type 0, BuildingBlock: TATPOV_clean_sbu_0, # of connection points: 4
#     Node 8, Type 0, BuildingBlock: TATPOV_clean_sbu_0, # of connection points: 4
#     Node 9, Type 0, BuildingBlock: TATPOV_clean_sbu_0, # of connection points: 4
#     Node 10, Type 0, BuildingBlock: TATPOV_clean_sbu_0, # of connection points: 4
#     Node 11, Type 0, BuildingBlock: TATPOV_clean_sbu_0, # of connection points: 4
#     Node 12, Type 0, BuildingBlock: TATPOV_clean_sbu_0, # of connection points: 4
#     Node 13, Type 0, BuildingBlock: TATPOV_clean_sbu_0, # of connection points: 4
#     Node 14, Type 0, BuildingBlock: TATPOV_clean_sbu_0, # of connection points: 4
#     Node 15, Type 0, BuildingBlock: TATPOV_clean_sbu_0, # of connection points: 4
#     Edge 16, Type (0, 0), BuildingBlock: OJICUG_clean_linker_0, # of connection points: 2
#     Edge 17, Type (0, 0), BuildingBlock: OJICUG_clean_linker_0, # of connection points: 2
#     Edge 18, Type (0, 0), BuildingBlock: OJICUG_clean_linker_0, # of connection points: 2
#     Edge 19, Type (0, 0), BuildingBlock: OJICUG_clean_linker_0, # of connection points: 2
#     Edge 20, Type (0, 0), BuildingBlock: OJICUG_clean_linker_0, # of connection points: 2
#     Edge 21, Type (0, 0), BuildingBlock: OJICUG_clean_linker_0, # of connection points: 2
#     Edge 22, Type (0, 0), BuildingBlock: OJICUG_clean_linker_0, # of connection points: 2
#     Edge 23, Type (0, 0), BuildingBlock: OJICUG_clean_linker_0, # of connection points: 2
#     Edge 24, Type (0, 0), BuildingBlock: OJICUG_clean_linker_0, # of connection points: 2
#     Edge 25, Type (0, 0), BuildingBlock: OJICUG_clean_linker_0, # of connection points: 2
#     Edge 26, Type (0, 0), BuildingBlock: OJICUG_clean_linker_0, # of connection points: 2
#     Edge 27, Type (0, 0), BuildingBlock: OJICUG_clean_linker_0, # of connection points: 2
#     Edge 28, Type (0, 0), BuildingBlock: OJICUG_clean_linker_0, # of connection points: 2
#     Edge 29, Type (0, 0), BuildingBlock: OJICUG_clean_linker_0, # of connection points: 2
#     Edge 30, Type (0, 0), BuildingBlock: OJICUG_clean_linker_0, # of connection points: 2
#     Edge 31, Type (0, 0), BuildingBlock: OJICUG_clean_linker_0, # of connection points: 2
#     Edge 32, Type (0, 0), BuildingBlock: OJICUG_clean_linker_0, # of connection points: 2
#     Edge 33, Type (0, 0), BuildingBlock: OJICUG_clean_linker_0, # of connection points: 2
#     Edge 34, Type (0, 0), BuildingBlock: OJICUG_clean_linker_0, # of connection points: 2
#     Edge 35, Type (0, 0), BuildingBlock: OJICUG_clean_linker_0, # of connection points: 2
#     Edge 36, Type (0, 0), BuildingBlock: OJICUG_clean_linker_0, # of connection points: 2
#     Edge 37, Type (0, 0), BuildingBlock: OJICUG_clean_linker_0, # of connection points: 2
#     Edge 38, Type (0, 0), BuildingBlock: OJICUG_clean_linker_0, # of connection points: 2
#     Edge 39, Type (0, 0), BuildingBlock: OJICUG_clean_linker_0, # of connection points: 2
#     Edge 40, Type (0, 0), BuildingBlock: OJICUG_clean_linker_0, # of connection points: 2
#     Edge 41, Type (0, 0), BuildingBlock: OJICUG_clean_linker_0, # of connection points: 2
#     Edge 42, Type (0, 0), BuildingBlock: OJICUG_clean_linker_0, # of connection points: 2
#     Edge 43, Type (0, 0), BuildingBlock: OJICUG_clean_linker_0, # of connection points: 2
#     Edge 44, Type (0, 0), BuildingBlock: OJICUG_clean_linker_0, # of connection points: 2
#     Edge 45, Type (0, 0), BuildingBlock: OJICUG_clean_linker_0, # of connection points: 2
#     Edge 46, Type (0, 0), BuildingBlock: OJICUG_clean_linker_0, # of connection points: 2
#     Edge 47, Type (0, 0), BuildingBlock: OJICUG_clean_linker_0, # of connection points: 2
# Relax obj value: 0.058
# Max RMSD: 0.115
# Mean RMSD: 0.115
data_MOF--net-neb--node1-TATPOV_clean_sbu_0--edge1-OJICUG_clean_linker_0
_symmetry_space_group_name_H-M    P1
_symmetry_Int_Tables_number       1
_symmetry_cell_setting            triclinic
loop_
_symmetry_equiv_pos_as_xyz
'x, y, z'
_cell_length_a     33.35606
_cell_length_b     16.518533
_cell_length_c     50.11655
_cell_angle_alpha  89.97507
_cell_angle_beta   95.215284
_cell_angle_gamma 90.071076
loop_
_atom_site_label
_atom_site_type_symbol
_atom_site_fract_x
_atom_site_fract_y
_atom_site_fract_z
_atom_type_partial_charge
Zn0 Zn 0.22692 0.02325 0.43799 0.0
Zn1 Zn 0.16302 0.0162 0.4676 0.0
O2 O 0.2048 0.08801 0.48894 0.0
O3 O 0.25736 0.09495 0.46548 0.0
O4 O 0.11816 0.00707 0.49218 0.0
O5 O 0.23194 0.90204 0.43775 0.0
O6 O 0.17663 0.89886 0.45853 0.0
C7 C 0.23978 0.11551 0.48577 0.0
C8 C 0.15236 0.09246 0.4126 0.0
O9 O 0.1379 0.07494 0.43455 0.0
O10 O 0.18864 0.07552 0.40927 0.0
C11 C 0.0867 0.96483 0.48623 0.0
O12 O 0.08305 0.92529 0.46339 0.0
C13 C 0.20381 0.86215 0.44691 0.0
Zn14 Zn 0.0721 0.00968 0.86179 0.0
Zn15 Zn 0.13794 -0.00068 0.83378 0.0
O16 O 0.09818 0.06815 0.80971 0.0
O17 O 0.04444 0.07692 0.83204 0.0
O18 O 0.18439 -0.02208 0.81129 0.0
O19 O 0.06573 0.88892 0.86351 0.0
O20 O 0.12172 0.88445 0.84358 0.0
C21 C 0.06276 0.0949 0.81179 0.0
C22 C 0.14551 0.08207 0.88799 0.0
O23 O 0.16132 0.06233 0.8667 0.0
O24 O 0.10898 0.0651 0.89059 0.0
C25 C 0.20987 0.03057 0.80519 0.0
O26 O 0.20675 0.10521 0.8138 0.0
C27 C 0.09386 0.84838 0.85473 0.0
Zn28 Zn 0.81406 0.90538 0.60237 0.0
Zn29 Zn 0.88092 0.90656 0.57475 0.0
O30 O 0.83801 0.84352 0.55135 0.0
O31 O 0.7834 0.84125 0.57291 0.0
O32 O 0.92777 0.91062 0.55166 0.0
O33 O 0.8141 0.02711 0.60339 0.0
O34 O 0.87056 0.02478 0.58385 0.0
C35 C 0.80173 0.8211 0.5529 0.0
C36 C 0.88482 0.82646 0.6294 0.0
O37 O 0.90151 0.84416 0.60826 0.0
O38 O 0.8485 0.84601 0.63155 0.0
C39 C 0.95946 0.95197 0.55783 0.0
O40 O 0.96251 -0.00656 0.5803 0.0
C41 C 0.84383 0.06401 0.59506 0.0
Zn42 Zn 0.97632 0.92092 0.18384 0.0
Zn43 Zn 0.90973 0.92232 0.21164 0.0
O44 O 0.95244 0.85799 0.2347 0.0
O45 O 1.00691 0.8555 0.21301 0.0
O46 O 0.8632 0.9265 0.23495 0.0
O47 O 0.97686 0.0427 0.18307 0.0
O48 O 0.92047 0.04059 0.2027 0.0
C49 C 0.98856 0.83496 0.23298 0.0
C50 C 0.90501 0.84318 0.1569 0.0
O51 O 0.88857 0.86066 0.17814 0.0
O52 O 0.94136 0.86254 0.15464 0.0
C53 C 0.82966 0.95972 0.22749 0.0
O54 O 0.82452 -0.00732 0.20356 0.0
C55 C 0.94731 0.07976 0.1915 0.0
Zn56 Zn 0.22912 0.51138 0.93906 0.0
Zn57 Zn 0.16516 0.50461 0.9686 0.0
O58 O 0.2068 0.57705 0.98973 0.0
O59 O 0.25948 0.58384 0.96639 0.0
O60 O 0.12067 0.49523 0.99343 0.0
O61 O 0.23425 0.39013 0.939 0.0
O62 O 0.17878 0.38728 0.9596 0.0
C63 C 0.24173 0.60477 0.98657 0.0
C64 C 0.15444 0.58016 0.91354 0.0
O65 O 0.13994 0.56297 0.93551 0.0
O66 O 0.19073 0.56314 0.91027 0.0
C67 C 0.08579 0.46843 0.98566 0.0
O68 O 0.07816 0.44545 0.96061 0.0
C69 C 0.20602 0.35039 0.9481 0.0
Zn70 Zn 0.07014 0.52164 0.36044 0.0
Zn71 Zn 0.13607 0.51075 0.33259 0.0
O72 O 0.09663 0.58013 0.30847 0.0
O73 O 0.04275 0.58912 0.33065 0.0
O74 O 0.18228 0.48776 0.31005 0.0
O75 O 0.06333 0.401 0.3623 0.0
O76 O 0.11947 0.39629 0.34255 0.0
C77 C 0.06125 0.60716 0.31049 0.0
C78 C 0.14368 0.59369 0.38671 0.0
O79 O 0.1596 0.57381 0.36547 0.0
O80 O 0.1071 0.57686 0.38923 0.0
C81 C 0.20882 0.53858 0.30425 0.0
O82 O 0.20722 0.61307 0.31327 0.0
C83 C 0.09153 0.36035 0.35365 0.0
Zn84 Zn 0.81349 0.42067 0.10267 0.0
Zn85 Zn 0.88004 0.42243 0.0748 0.0
O86 O 0.83718 0.35821 0.05184 0.0
O87 O 0.78271 0.35536 0.07352 0.0
O88 O 0.92612 0.4273 0.05113 0.0
O89 O 0.81301 0.54246 0.10347 0.0
O90 O 0.8694 0.54055 0.08383 0.0
C91 C 0.80104 0.33508 0.05353 0.0
C92 C 0.88495 0.34298 0.12948 0.0
O93 O 0.90139 0.36057 0.10823 0.0
O94 O 0.84862 0.36224 0.13175 0.0
C95 C 0.96109 0.45327 0.0591 0.0
O96 O 0.96831 0.47795 0.08399 0.0
C97 C 0.8426 0.57962 0.09503 0.0
Zn98 Zn 0.97686 0.40571 0.68461 0.0
Zn99 Zn 0.90999 0.40642 0.71218 0.0
O100 O 0.95273 0.34276 0.7355 0.0
O101 O 1.00738 0.34106 0.71397 0.0
O102 O 0.86305 0.41065 0.73519 0.0
O103 O 0.9771 0.52743 0.68365 0.0
O104 O 0.92057 0.52468 0.70311 0.0
C105 C 0.98899 0.32035 0.73391 0.0
C106 C 0.90607 0.3269 0.65748 0.0
O107 O 0.88937 0.3443 0.67862 0.0
O108 O 0.9424 0.34665 0.65536 0.0
C109 C 0.83157 0.45241 0.72892 0.0
O110 O 0.82888 0.49398 0.70647 0.0
C111 C 0.94733 0.56413 0.69194 0.0
Zn112 Zn 0.71945 0.02339 0.92564 0.0
Zn113 Zn 0.65331 0.01242 0.95332 0.0
O114 O 0.69279 0.08157 0.97752 0.0
O115 O 0.74683 0.09066 0.95549 0.0
O116 O 0.60703 -0.01023 0.97587 0.0
O117 O 0.72601 0.90274 0.9238 0.0
O118 O 0.66974 0.89791 0.94341 0.0
C119 C 0.72824 0.10855 0.97561 0.0
C120 C 0.64613 0.09547 0.89919 0.0
O121 O 0.63005 0.07549 0.92038 0.0
O122 O 0.68272 0.07873 0.89678 0.0
C123 C 0.57882 0.03872 0.97993 0.0
O124 O 0.57856 0.11097 0.96893 0.0
C125 C 0.69771 0.86204 0.93237 0.0
Zn126 Zn 0.55966 0.01729 0.34559 0.0
Zn127 Zn 0.62371 0.01148 0.31608 0.0
O128 O 0.58175 0.08255 0.2947 0.0
O129 O 0.52905 0.08859 0.31805 0.0
O130 O 0.66864 0.00338 0.29156 0.0
O131 O 0.55521 0.89592 0.34585 0.0
O132 O 0.61065 0.8939 0.3252 0.0
C133 C 0.54667 0.10949 0.2978 0.0
C134 C 0.63397 0.08761 0.37107 0.0
O135 O 0.64852 0.07044 0.34914 0.0
O136 O 0.59771 0.07015 0.37435 0.0
C137 C 0.70221 0.9701 0.29893 0.0
O138 O 0.70791 0.93936 0.32316 0.0
C139 C 0.58359 0.85663 0.33681 0.0
Zn140 Zn 0.31789 0.95245 0.10464 0.0
Zn141 Zn 0.38125 0.96703 0.0752 0.0
O142 O 0.3426 0.89084 0.05286 0.0
O143 O 0.29049 0.87872 0.07659 0.0
O144 O 0.42575 -0.00821 0.05137 0.0
O145 O 0.30769 0.07207 0.10575 0.0
O146 O 0.36277 0.08087 0.08496 0.0
C147 C 0.30836 0.85993 0.05623 0.0
C148 C 0.39381 0.88821 0.12976 0.0
O149 O 0.40795 0.90766 0.10786 0.0
O150 O 0.35735 0.9031 0.13322 0.0
C151 C 0.45376 0.94279 0.04693 0.0
O152 O 0.4544 0.87074 0.05808 0.0
C153 C 0.33461 0.11484 0.09641 0.0
Zn154 Zn 0.47124 0.95751 0.68002 0.0
Zn155 Zn 0.4077 0.97057 0.70947 0.0
O156 O 0.44698 0.89621 0.73203 0.0
O157 O 0.49914 0.88522 0.7083 0.0
O158 O 0.36276 -0.00636 0.73307 0.0
O159 O 0.48038 0.07754 0.67875 0.0
O160 O 0.4253 0.08494 0.69959 0.0
C161 C 0.48145 0.86642 0.72874 0.0
C162 C 0.39571 0.89108 0.65498 0.0
O163 O 0.38148 0.91031 0.67686 0.0
O164 O 0.43211 0.9067 0.65151 0.0
C165 C 0.33729 0.94115 0.73931 0.0
O166 O 0.33984 0.86682 0.7303 0.0
C167 C 0.45321 0.11961 0.68804 0.0
Zn168 Zn 0.71776 0.51617 0.42362 0.0
Zn169 Zn 0.65166 0.50564 0.45149 0.0
O170 O 0.69156 0.57344 0.47583 0.0
O171 O 0.74548 0.58229 0.45366 0.0
O172 O 0.60513 0.48366 0.47386 0.0
O173 O 0.72363 0.39536 0.42161 0.0
O174 O 0.66756 0.39102 0.44146 0.0
C175 C 0.72712 0.59984 0.47392 0.0
C176 C 0.64459 0.5895 0.39746 0.0
O177 O 0.62859 0.56941 0.41866 0.0
O178 O 0.68112 0.5725 0.39493 0.0
C179 C 0.57956 0.53582 0.48008 0.0
O180 O 0.58256 0.61073 0.47165 0.0
C181 C 0.69531 0.35492 0.43027 0.0
Zn182 Zn 0.56294 0.52433 0.84751 0.0
Zn183 Zn 0.62709 0.51791 0.81815 0.0
O184 O 0.5854 0.5894 0.79661 0.0
O185 O 0.53267 0.59578 0.81991 0.0
O186 O 0.67226 0.5089 0.79381 0.0
O187 O 0.55794 0.40312 0.84778 0.0
O188 O 0.61345 0.40048 0.82722 0.0
C189 C 0.55035 0.61655 0.79967 0.0
C190 C 0.63722 0.59414 0.87317 0.0
O191 O 0.65186 0.57684 0.85127 0.0
O192 O 0.60091 0.57685 0.87636 0.0
C193 C 0.70356 0.46643 0.7999 0.0
O194 O 0.7068 0.42672 0.82271 0.0
C195 C 0.58621 0.3635 0.83874 0.0
Zn196 Zn 0.31852 0.45732 0.60524 0.0
Zn197 Zn 0.38207 0.47087 0.57584 0.0
O198 O 0.34293 0.39623 0.55324 0.0
O199 O 0.29074 0.38487 0.57694 0.0
O200 O 0.42696 0.49482 0.55226 0.0
O201 O 0.30922 0.57725 0.60652 0.0
O202 O 0.36433 0.58499 0.58574 0.0
C203 C 0.30847 0.36618 0.55652 0.0
C204 C 0.39406 0.39125 0.63031 0.0
O205 O 0.40832 0.41061 0.60844 0.0
O206 O 0.35766 0.40671 0.63376 0.0
C207 C 0.4525 0.44284 0.54587 0.0
O208 O 0.45011 0.36824 0.55471 0.0
C209 C 0.3364 0.61948 0.59725 0.0
Zn210 Zn 0.46868 0.45285 0.17868 0.0
Zn211 Zn 0.40537 0.46702 0.20817 0.0
O212 O 0.44417 0.39154 0.23067 0.0
O213 O 0.49617 0.37965 0.20684 0.0
O214 O 0.36078 0.49193 0.23188 0.0
O215 O 0.47882 0.57253 0.17747 0.0
O216 O 0.4238 0.58093 0.19832 0.0
C217 C 0.47844 0.361 0.22729 0.0
C218 C 0.39282 0.3878 0.15366 0.0
O219 O 0.3787 0.40712 0.17558 0.0
O220 O 0.42925 0.40307 0.15016 0.0
C221 C 0.33424 0.44132 0.23782 0.0
O222 O 0.33523 0.36721 0.22838 0.0
C223 C 0.45191 0.6151 0.18684 0.0
C224 C 0.31132 0.2757 0.51651 0.0
C225 C 0.29052 0.30385 0.53783 0.0
H226 H 0.31198 0.19338 0.4836 0.0
C227 C 0.25342 0.26802 0.54225 0.0
H228 H 0.34012 0.30148 0.51267 0.0
C229 C 0.23747 0.20559 0.52576 0.0
C230 C 0.2582 0.17748 0.50442 0.0
H231 H 0.23669 0.2878 0.5586 0.0
H232 H 0.20868 0.17992 0.52965 0.0
C233 C 0.29534 0.2132 0.49998 0.0
C234 C 0.98891 0.91094 0.51545 0.0
C235 C 0.99226 0.9544 0.53968 0.0
H236 H 1.01592 0.88006 0.47966 0.0
C237 C 0.02712 0.00082 0.54628 0.0
H238 H 0.96249 0.87454 0.50972 0.0
C239 C 0.05781 0.00399 0.52901 0.0
C240 C 0.05437 0.96083 0.50472 0.0
H241 H 0.03073 0.03506 0.56476 0.0
H242 H 0.08418 0.04056 0.53469 0.0
C243 C 1.01958 0.91413 0.49818 0.0
C244 C 0.30181 0.04368 0.76579 0.0
C245 C 0.30487 0.96394 0.75633 0.0
H246 H 0.26961 0.12724 0.78856 0.0
C247 C 0.27648 0.90632 0.76317 0.0
H248 H 0.32315 0.08966 0.76092 0.0
C249 C 0.24575 0.92792 0.77903 0.0
C250 C 0.24263 0.00769 0.78845 0.0
H251 H 0.27789 0.84439 0.75624 0.0
H252 H 0.22439 0.88193 0.78387 0.0
C253 C 0.27107 0.06528 0.78166 0.0
C254 C 1.00507 0.18221 0.79417 0.0
C255 C 0.04378 0.15139 0.79151 0.0
H256 H 0.95766 0.26023 0.77835 0.0
C257 C 0.06475 0.17811 0.77006 0.0
H258 H 0.98813 0.16326 0.81054 0.0
C259 C 0.04731 0.23429 0.75166 0.0
C260 C 1.00853 0.26486 0.7543 0.0
H261 H 0.09472 0.156 0.76753 0.0
H262 H 0.06415 0.25319 0.73524 0.0
C263 C 0.98765 0.23827 0.77579 0.0
C264 C 0.74308 0.73626 0.53475 0.0
C265 C 0.78201 0.76654 0.53229 0.0
H266 H 0.69534 0.65924 0.51845 0.0
C267 C 0.8028 0.74075 0.51067 0.0
H268 H 0.72631 0.75458 0.55125 0.0
C269 C 0.78516 0.68576 0.492 0.0
C270 C 0.74629 0.65525 0.49448 0.0
H271 H 0.83289 0.76254 0.50823 0.0
H272 H 0.80204 0.66741 0.47555 0.0
C273 C 0.72542 0.68116 0.51605 0.0
C274 C 0.77184 0.93039 0.2887 0.0
C275 C 0.73465 0.96682 0.28053 0.0
H276 H 0.83085 0.89949 0.27848 0.0
C277 C 0.72893 0.00049 0.25468 0.0
H278 H 0.77732 0.90386 0.30846 0.0
C279 C 0.75969 -0.00198 0.23746 0.0
C280 C 0.79691 0.96178 0.24567 0.0
H281 H 0.70068 0.02903 0.24772 0.0
H282 H 0.75425 0.0247 0.21772 0.0
C283 C 0.80258 0.92788 0.27149 0.0
C284 C 0.9869 0.75245 0.27473 0.0
C285 C 1.00789 0.77889 0.25327 0.0
H286 H 0.98699 0.67699 0.30934 0.0
C287 C 0.0465 0.74757 0.25056 0.0
H288 H 0.95703 0.77499 0.27735 0.0
C289 C 0.06365 0.69078 0.26886 0.0
C290 C 0.04256 0.66419 0.29027 0.0
H291 H 0.06341 0.76634 0.23416 0.0
H292 H 0.09351 0.66809 0.26628 0.0
C293 C 1.00402 0.69578 0.293 0.0
C294 C 0.31203 0.76801 1.01665 0.0
C295 C 0.29095 0.79639 0.03781 0.0
H296 H 0.31341 0.68443 0.98414 0.0
C297 C 0.25414 0.75959 0.04238 0.0
H298 H 0.34063 0.7945 1.01272 0.0
C299 C 0.23874 0.69604 0.02619 0.0
C300 C 0.25973 0.66773 1.00499 0.0
H301 H 0.23721 0.77949 0.05861 0.0
H302 H 0.21014 0.66967 0.03017 0.0
C303 C 0.29659 0.70436 1.00042 0.0
C304 C 0.06209 0.48775 0.03143 0.0
C305 C 0.05402 0.46389 1.00454 0.0
H306 H 0.03927 0.50305 0.0697 0.0
C307 C 1.01519 0.436 0.99582 0.0
H308 H 0.09167 0.50947 0.03885 0.0
C309 C 0.98512 0.43231 1.01352 0.0
C310 C 0.99313 0.45643 0.04039 0.0
H311 H 1.00788 0.41717 0.97525 0.0
H312 H 0.95552 0.41075 1.00607 0.0
C313 C 0.03201 0.48407 0.04914 0.0
C314 C 0.30096 0.54564 0.2649 0.0
C315 C 0.30233 0.4661 0.25497 0.0
H316 H 0.27055 0.6309 0.28815 0.0
C317 C 0.27275 0.41063 0.2615 0.0
H318 H 0.32325 0.59 0.26027 0.0
C319 C 0.24251 0.43412 0.2775 0.0
C320 C 0.24107 0.51371 0.28737 0.0
H321 H 0.27285 0.34891 0.25422 0.0
H322 H 0.2202 0.38976 0.28208 0.0
C323 C 0.2707 0.56915 0.2809 0.0
C324 C 0.78553 0.19692 0.9933 0.0
C325 C 0.74694 0.16527 0.99594 0.0
H326 H 0.83259 0.27588 1.00912 0.0
C327 C 0.72583 0.19143 1.01737 0.0
H328 H 0.80257 0.17846 0.97694 0.0
C329 C 0.74302 0.24788 0.03579 0.0
C330 C 0.78168 0.27929 0.03317 0.0
H331 H 0.69594 0.16865 0.01988 0.0
H332 H 0.72611 0.26634 0.05221 0.0
C333 C 0.80268 0.25326 1.01168 0.0
C334 C 0.77066 0.41511 0.78826 0.0
C335 C 0.7361 0.46222 0.78159 0.0
H336 H 0.82774 0.37489 0.77697 0.0
C337 C 0.7331 0.50553 0.75732 0.0
H338 H 0.77399 0.38092 0.80678 0.0
C339 C 0.76397 0.50206 0.7402 0.0
C340 C 0.79859 0.45519 0.74693 0.0
H341 H 0.70692 0.54242 0.75153 0.0
H342 H 0.76069 0.53641 0.72172 0.0
C343 C 0.80152 0.41162 0.77115 0.0
C344 C 0.5152 0.06753 1.00152 0.0
C345 C 0.54666 0.01418 0.99695 0.0
H346 H 0.46129 0.08705 0.02078 0.0
C347 C 0.54714 0.93697 1.00885 0.0
H348 H 0.51385 0.1274 0.99267 0.0
C349 C 0.51697 0.91378 0.02498 0.0
C350 C 0.48556 0.96719 0.02961 0.0
H351 H 0.57089 0.89426 1.00577 0.0
H352 H 0.51838 0.85394 0.03385 0.0
C353 C 0.48502 0.04433 1.01766 0.0
C354 C 0.53317 0.26225 0.24138 0.0
C355 C 0.49619 0.29825 0.24587 0.0
H356 H 0.57773 0.17387 0.25387 0.0
C357 C 0.47535 0.26997 0.26718 0.0
H358 H 0.54994 0.2821 0.22504 0.0
C359 C 0.49121 0.20723 0.28364 0.0
C360 C 0.52827 0.17144 0.27916 0.0
H361 H 0.44663 0.29586 0.27106 0.0
H362 H 0.47457 0.18737 0.30003 0.0
C363 C 0.549 0.19962 0.2578 0.0
C364 C 0.47866 0.77592 0.76877 0.0
C365 C 0.49947 0.80428 0.74747 0.0
H366 H 0.47804 0.69362 0.8017 0.0
C367 C 0.53665 0.76889 0.74311 0.0
H368 H 0.44981 0.80135 0.77256 0.0
C369 C 0.55267 0.70667 0.75965 0.0
C370 C 0.53193 0.67833 0.78098 0.0
H371 H 0.55341 0.78886 0.72678 0.0
H372 H 0.58153 0.68132 0.75582 0.0
C373 C 0.49471 0.71361 0.78534 0.0
C374 C 0.48768 0.54656 0.51958 0.0
C375 C 0.48482 0.46654 0.52887 0.0
H376 H 0.51966 0.63119 0.49698 0.0
C377 C 0.5133 0.40952 0.52185 0.0
H378 H 0.46627 0.5921 0.52459 0.0
C379 C 0.54394 0.43198 0.50601 0.0
C380 C 0.54688 0.51205 0.49678 0.0
H381 H 0.51203 0.34738 0.52864 0.0
H382 H 0.56538 0.38643 0.50104 0.0
C383 C 0.51834 0.56904 0.50373 0.0
C384 C 0.14702 0.67095 0.42968 0.0
C385 C 0.16576 0.64584 0.40705 0.0
H386 H 0.14522 0.75872 0.46084 0.0
C387 C 0.203 0.68004 0.40228 0.0
H388 H 0.11876 0.64446 0.43434 0.0
C389 C 0.21845 0.74526 0.41773 0.0
C390 C 0.19668 0.77758 0.43802 0.0
H391 H 0.21861 0.66097 0.38532 0.0
H392 H 0.24537 0.77493 0.41203 0.0
C393 C 0.16234 0.73627 0.44503 0.0
C394 C 0.09272 0.17891 0.39835 0.0
C395 C 0.12909 0.14317 0.39247 0.0
H396 H 0.05118 0.27583 0.38984 0.0
C397 C 0.14623 0.16648 0.36903 0.0
H398 H 0.07829 0.16109 0.41596 0.0
C399 C 0.13064 0.23213 0.35401 0.0
C400 C 0.09771 0.27545 0.36223 0.0
H401 H 0.17368 0.13863 0.36352 0.0
H402 H 0.14671 0.25342 0.33752 0.0
C403 C 0.07704 0.24454 0.38326 0.0
C404 C 0.20493 0.16831 0.90346 0.0
C405 C 0.16769 0.13419 0.9083 0.0
H406 H 0.24738 0.2631 0.91313 0.0
C407 C 0.14909 0.1593 0.93098 0.0
H408 H 0.22043 0.14922 0.88646 0.0
C409 C 0.16453 0.22455 0.94632 0.0
C410 C 0.19885 0.26581 0.93924 0.0
H411 H 0.12085 0.13285 0.9357 0.0
H412 H 0.14752 0.247 0.96218 0.0
C413 C 0.22049 0.23346 0.91889 0.0
C414 C 0.09477 0.66631 0.89914 0.0
C415 C 0.13124 0.63081 0.89336 0.0
H416 H 0.05321 0.76317 0.89061 0.0
C417 C 0.14857 0.65445 0.87003 0.0
H418 H 0.08019 0.6482 0.91665 0.0
C419 C 0.13308 0.72026 0.85505 0.0
C420 C 0.10004 0.76338 0.8632 0.0
H421 H 0.17611 0.62678 0.8646 0.0
H422 H 0.14929 0.74182 0.83867 0.0
C423 C 0.07918 0.73209 0.88409 0.0
C424 C 0.84608 0.24575 0.6398 0.0
C425 C 0.88481 0.27553 0.6366 0.0
H426 H 0.8017 0.15618 0.62822 0.0
C427 C 0.90501 0.24788 0.61493 0.0
H428 H 0.82933 0.26715 0.65593 0.0
C429 C 0.88913 0.18434 0.59896 0.0
C430 C 0.85281 0.14741 0.60443 0.0
H431 H 0.93452 0.27096 0.6115 0.0
H432 H 0.90707 0.15972 0.58392 0.0
C433 C 0.83011 0.18239 0.62375 0.0
C434 C 0.96091 0.68248 0.66315 0.0
C435 C 0.93829 0.64745 0.68253 0.0
H436 H 0.96156 0.76708 0.63089 0.0
C437 C 0.90196 0.68414 0.688 0.0
H438 H 0.98933 0.65644 0.65868 0.0
C439 C 0.886 0.74747 0.67199 0.0
C440 C 0.90613 0.77517 0.65027 0.0
H441 H 0.88409 0.65947 0.70309 0.0
H442 H 0.85649 0.77037 0.67543 0.0
C443 C 0.94486 0.74565 0.64705 0.0
C444 C 0.82892 0.69797 0.12374 0.0
C445 C 0.85137 0.66325 0.10424 0.0
H446 H 0.82845 0.78275 0.15594 0.0
C447 C 0.88738 0.70076 0.09842 0.0
H448 H 0.80073 0.67132 0.12847 0.0
C449 C 0.90331 0.76457 0.11424 0.0
C450 C 0.88347 0.7919 0.13612 0.0
H451 H 0.90509 0.67638 0.08322 0.0
H452 H 0.93263 0.78806 0.11056 0.0
C453 C 0.84494 0.76163 0.13964 0.0
C454 C 0.96101 0.1981 0.16273 0.0
C455 C 0.93855 0.16335 0.18225 0.0
H456 H 0.9615 0.28278 0.13047 0.0
C457 C 0.90254 0.20071 0.18803 0.0
H458 H 0.9892 0.17156 0.15802 0.0
C459 C 0.88662 0.26441 0.17216 0.0
C460 C 0.90648 0.29176 0.15027 0.0
H461 H 0.88482 0.1763 0.20324 0.0
H462 H 0.8573 0.28779 0.17583 0.0
C463 C 0.945 0.26163 0.14678 0.0
C464 C 0.69679 0.68071 0.88768 0.0
C465 C 0.6603 0.64494 0.89338 0.0
H466 H 0.73838 0.77762 0.89639 0.0
C467 C 0.6429 0.66821 0.91671 0.0
H468 H 0.71142 0.66292 0.87016 0.0
C469 C 0.6584 0.73384 0.93179 0.0
C470 C 0.6915 0.77718 0.92375 0.0
H471 H 0.61534 0.64032 0.92208 0.0
H472 H 0.64215 0.75509 0.94819 0.0
C473 C 0.71238 0.74632 0.90284 0.0
C474 C 0.6431 0.17285 0.85624 0.0
C475 C 0.62418 0.14754 0.87879 0.0
H476 H 0.64506 0.26064 0.82507 0.0
C477 C 0.58685 0.1814 0.88341 0.0
H478 H 0.67144 0.14661 0.85169 0.0
C479 C 0.57145 0.24649 0.86789 0.0
C480 C 0.59336 0.27901 0.84768 0.0
H481 H 0.57111 0.16217 0.90031 0.0
H482 H 0.54444 0.27591 0.87348 0.0
C483 C 0.62783 0.23803 0.84081 0.0
C484 C 0.63985 0.16181 0.41458 0.0
C485 C 0.65716 0.1383 0.39125 0.0
H486 H 0.63941 0.2487 0.44608 0.0
C487 C 0.69375 0.17362 0.38553 0.0
H488 H 0.61222 0.13426 0.41997 0.0
C489 C 0.70955 0.23906 0.40069 0.0
C490 C 0.68879 0.27017 0.42162 0.0
H491 H 0.70832 0.1556 0.36802 0.0
H492 H 0.73565 0.27001 0.39424 0.0
C493 C 0.65557 0.22725 0.42967 0.0
C494 C 0.64133 0.66708 0.35452 0.0
C495 C 0.62254 0.6416 0.3771 0.0
H496 H 0.64286 0.75462 0.32325 0.0
C497 C 0.5851 0.67498 0.38174 0.0
H498 H 0.66974 0.64121 0.34997 0.0
C499 C 0.56942 0.7397 0.36616 0.0
C500 C 0.59113 0.77236 0.34587 0.0
H501 H 0.56945 0.65559 0.39865 0.0
H502 H 0.5423 0.76873 0.37173 0.0
C503 C 0.62576 0.73189 0.33903 0.0
C504 C 0.3341 0.29718 0.14069 0.0
C505 C 0.3693 0.33596 0.13394 0.0
H506 H 0.29438 0.19648 0.13332 0.0
C507 C 0.38569 0.31381 0.11012 0.0
H508 H 0.32031 0.3138 0.15866 0.0
C509 C 0.37085 0.24656 0.09558 0.0
C510 C 0.33938 0.20047 0.10462 0.0
H511 H 0.41221 0.34391 0.10396 0.0
H512 H 0.38654 0.22642 0.07878 0.0
C513 C 0.31914 0.22995 0.12606 0.0
C514 C 0.46744 0.73057 0.1573 0.0
C515 C 0.44715 0.70077 0.17869 0.0
H516 H 0.46637 0.81476 0.12479 0.0
C517 C 0.41568 0.74664 0.18776 0.0
H518 H 0.49221 0.69728 0.15004 0.0
C519 C 0.40089 0.81399 0.17327 0.0
C520 C 0.41733 0.83645 0.14949 0.0
H521 H 0.39996 0.72624 0.20452 0.0
H522 H 0.37436 0.84388 0.17943 0.0
C523 C 0.45254 0.79792 0.14273 0.0
C524 C 0.38876 0.8169 0.61146 0.0
C525 C 0.37222 0.83938 0.6352 0.0
H526 H 0.38934 0.72973 0.58004 0.0
C527 C 0.33671 0.80143 0.64176 0.0
H528 H 0.41554 0.84638 0.60545 0.0
C529 C 0.32146 0.73469 0.627 0.0
C530 C 0.34171 0.70487 0.60561 0.0
H531 H 0.3228 0.81835 0.65965 0.0
H532 H 0.29637 0.70184 0.63409 0.0
C533 C 0.37361 0.75016 0.59678 0.0
C534 C 0.40089 0.31687 0.67381 0.0
C535 C 0.41749 0.33954 0.6501 0.0
H536 H 0.4002 0.22953 0.7052 0.0
C537 C 0.45301 0.30176 0.64356 0.0
H538 H 0.3741 0.34621 0.6798 0.0
C539 C 0.46821 0.235 0.65832 0.0
C540 C 0.4479 0.20499 0.67968 0.0
H541 H 0.46697 0.31883 0.6257 0.0
H542 H 0.49331 0.2023 0.65125 0.0
C543 C 0.41598 0.2501 0.68848 0.0
loop_
_geom_bond_atom_site_label_1
_geom_bond_atom_site_label_2
_geom_bond_distance
_geom_bond_site_symmetry_2
_ccdc_geom_bond_type
Zn0 O3 2.031 . S
Zn0 O5 2.049 1_545 S
Zn0 O10 2.067 . S
Zn1 O2 1.962 . S
Zn1 O4 1.986 . S
Zn1 O6 1.996 . S
Zn1 O9 1.943 . S
O2 Zn1 1.962 . S
O2 C7 1.254 . S
O3 Zn0 2.031 . S
O3 C7 1.269 . S
O4 Zn1 1.986 . S
O4 C11 1.262 . S
O5 Zn0 2.049 1_565 S
O5 C13 1.260 . S
O6 Zn1 1.996 . S
O6 C13 1.257 1_545 S
C7 O2 1.254 . S
C7 O3 1.269 . S
C8 O9 1.249 . S
C8 O10 1.270 . S
O9 Zn1 1.943 . S
O9 C8 1.249 . S
O10 Zn0 2.067 . S
O10 C8 1.270 . S
C11 O4 1.262 . S
C11 O12 1.232 . S
O12 C11 1.232 . S
C13 O5 1.260 . S
C13 O6 1.257 1_565 S
Zn14 O17 2.031 . S
Zn14 O19 2.049 1_545 S
Zn14 O24 2.067 . S
Zn15 O16 1.962 . S
Zn15 O18 1.986 . S
Zn15 O20 1.996 . S
Zn15 O23 1.943 . S
O16 Zn15 1.962 . S
O16 C21 1.254 . S
O17 Zn14 2.031 . S
O17 C21 1.269 . S
O18 Zn15 1.986 . S
O18 C25 1.262 . S
O19 Zn14 2.049 1_565 S
O19 C27 1.260 . S
O20 Zn15 1.996 . S
O20 C27 1.257 1_545 S
C21 O16 1.254 . S
C21 O17 1.269 . S
C22 O23 1.249 . S
C22 O24 1.270 . S
O23 Zn15 1.943 . S
O23 C22 1.249 . S
O24 Zn14 2.067 . S
O24 C22 1.270 . S
C25 O18 1.262 . S
C25 O26 1.232 . S
O26 C25 1.232 . S
C27 O19 1.260 . S
C27 O20 1.257 1_565 S
Zn28 O31 2.031 . S
Zn28 O33 2.049 1_565 S
Zn28 O38 2.067 . S
Zn29 O30 1.962 . S
Zn29 O32 1.986 . S
Zn29 O34 1.996 . S
Zn29 O37 1.943 . S
O30 Zn29 1.962 . S
O30 C35 1.254 . S
O31 Zn28 2.031 . S
O31 C35 1.269 . S
O32 Zn29 1.986 . S
O32 C39 1.262 . S
O33 Zn28 2.049 1_545 S
O33 C41 1.260 . S
O34 Zn29 1.996 . S
O34 C41 1.257 1_565 S
C35 O30 1.254 . S
C35 O31 1.269 . S
C36 O37 1.249 . S
C36 O38 1.270 . S
O37 Zn29 1.943 . S
O37 C36 1.249 . S
O38 Zn28 2.067 . S
O38 C36 1.270 . S
C39 O32 1.262 . S
C39 O40 1.232 . S
O40 C39 1.232 . S
C41 O33 1.260 . S
C41 O34 1.257 1_545 S
Zn42 O45 2.031 . S
Zn42 O47 2.049 1_565 S
Zn42 O52 2.067 . S
Zn43 O44 1.962 . S
Zn43 O46 1.986 . S
Zn43 O48 1.996 . S
Zn43 O51 1.943 . S
O44 Zn43 1.962 . S
O44 C49 1.254 . S
O45 Zn42 2.031 . S
O45 C49 1.269 . S
O46 Zn43 1.986 . S
O46 C53 1.262 . S
O47 Zn42 2.049 1_545 S
O47 C55 1.260 . S
O48 Zn43 1.996 . S
O48 C55 1.257 1_565 S
C49 O44 1.254 . S
C49 O45 1.269 . S
C50 O51 1.249 . S
C50 O52 1.270 . S
O51 Zn43 1.943 . S
O51 C50 1.249 . S
O52 Zn42 2.067 . S
O52 C50 1.270 . S
C53 O46 1.262 . S
C53 O54 1.232 . S
O54 C53 1.232 . S
C55 O47 1.260 . S
C55 O48 1.257 1_545 S
Zn56 O59 2.031 . S
Zn56 O61 2.049 . S
Zn56 O66 2.067 . S
Zn57 O58 1.962 . S
Zn57 O60 1.986 . S
Zn57 O62 1.996 . S
Zn57 O65 1.943 . S
O58 Zn57 1.962 . S
O58 C63 1.254 . S
O59 Zn56 2.031 . S
O59 C63 1.269 . S
O60 Zn57 1.986 . S
O60 C67 1.262 . S
O61 Zn56 2.049 . S
O61 C69 1.260 . S
O62 Zn57 1.996 . S
O62 C69 1.257 . S
C63 O58 1.254 . S
C63 O59 1.269 . S
C64 O65 1.249 . S
C64 O66 1.270 . S
O65 Zn57 1.943 . S
O65 C64 1.249 . S
O66 Zn56 2.067 . S
O66 C64 1.270 . S
C67 O60 1.262 . S
C67 O68 1.232 . S
O68 C67 1.232 . S
C69 O61 1.260 . S
C69 O62 1.257 . S
Zn70 O73 2.031 . S
Zn70 O75 2.049 . S
Zn70 O80 2.067 . S
Zn71 O72 1.962 . S
Zn71 O74 1.986 . S
Zn71 O76 1.996 . S
Zn71 O79 1.943 . S
O72 Zn71 1.962 . S
O72 C77 1.254 . S
O73 Zn70 2.031 . S
O73 C77 1.269 . S
O74 Zn71 1.986 . S
O74 C81 1.262 . S
O75 Zn70 2.049 . S
O75 C83 1.260 . S
O76 Zn71 1.996 . S
O76 C83 1.257 . S
C77 O72 1.254 . S
C77 O73 1.269 . S
C78 O79 1.249 . S
C78 O80 1.270 . S
O79 Zn71 1.943 . S
O79 C78 1.249 . S
O80 Zn70 2.067 . S
O80 C78 1.270 . S
C81 O74 1.262 . S
C81 O82 1.232 . S
O82 C81 1.232 . S
C83 O75 1.260 . S
C83 O76 1.257 . S
Zn84 O87 2.031 . S
Zn84 O89 2.049 . S
Zn84 O94 2.067 . S
Zn85 O86 1.962 . S
Zn85 O88 1.986 . S
Zn85 O90 1.996 . S
Zn85 O93 1.943 . S
O86 Zn85 1.962 . S
O86 C91 1.254 . S
O87 Zn84 2.031 . S
O87 C91 1.269 . S
O88 Zn85 1.986 . S
O88 C95 1.262 . S
O89 Zn84 2.049 . S
O89 C97 1.260 . S
O90 Zn85 1.996 . S
O90 C97 1.257 . S
C91 O86 1.254 . S
C91 O87 1.269 . S
C92 O93 1.249 . S
C92 O94 1.270 . S
O93 Zn85 1.943 . S
O93 C92 1.249 . S
O94 Zn84 2.067 . S
O94 C92 1.270 . S
C95 O88 1.262 . S
C95 O96 1.232 . S
O96 C95 1.232 . S
C97 O89 1.260 . S
C97 O90 1.257 . S
Zn98 O101 2.031 . S
Zn98 O103 2.049 . S
Zn98 O108 2.067 . S
Zn99 O100 1.962 . S
Zn99 O102 1.986 . S
Zn99 O104 1.996 . S
Zn99 O107 1.943 . S
O100 Zn99 1.962 . S
O100 C105 1.254 . S
O101 Zn98 2.031 . S
O101 C105 1.269 . S
O102 Zn99 1.986 . S
O102 C109 1.262 . S
O103 Zn98 2.049 . S
O103 C111 1.260 . S
O104 Zn99 1.996 . S
O104 C111 1.257 . S
C105 O100 1.254 . S
C105 O101 1.269 . S
C106 O107 1.249 . S
C106 O108 1.270 . S
O107 Zn99 1.943 . S
O107 C106 1.249 . S
O108 Zn98 2.067 . S
O108 C106 1.270 . S
C109 O102 1.262 . S
C109 O110 1.232 . S
O110 C109 1.232 . S
C111 O103 1.260 . S
C111 O104 1.257 . S
Zn112 O115 2.031 . S
Zn112 O117 2.049 1_545 S
Zn112 O122 2.067 . S
Zn113 O114 1.962 . S
Zn113 O116 1.986 . S
Zn113 O118 1.996 . S
Zn113 O121 1.943 . S
O114 Zn113 1.962 . S
O114 C119 1.254 . S
O115 Zn112 2.031 . S
O115 C119 1.269 . S
O116 Zn113 1.986 . S
O116 C123 1.262 . S
O117 Zn112 2.049 1_565 S
O117 C125 1.260 . S
O118 Zn113 1.996 . S
O118 C125 1.257 1_545 S
C119 O114 1.254 . S
C119 O115 1.269 . S
C120 O121 1.249 . S
C120 O122 1.270 . S
O121 Zn113 1.943 . S
O121 C120 1.249 . S
O122 Zn112 2.067 . S
O122 C120 1.270 . S
C123 O116 1.262 . S
C123 O124 1.232 . S
O124 C123 1.232 . S
C125 O117 1.260 . S
C125 O118 1.257 1_565 S
Zn126 O129 2.031 . S
Zn126 O131 2.049 1_545 S
Zn126 O136 2.067 . S
Zn127 O128 1.962 . S
Zn127 O130 1.986 . S
Zn127 O132 1.996 . S
Zn127 O135 1.943 . S
O128 Zn127 1.962 . S
O128 C133 1.254 . S
O129 Zn126 2.031 . S
O129 C133 1.269 . S
O130 Zn127 1.986 . S
O130 C137 1.262 . S
O131 Zn126 2.049 1_565 S
O131 C139 1.260 . S
O132 Zn127 1.996 . S
O132 C139 1.257 1_545 S
C133 O128 1.254 . S
C133 O129 1.269 . S
C134 O135 1.249 . S
C134 O136 1.270 . S
O135 Zn127 1.943 . S
O135 C134 1.249 . S
O136 Zn126 2.067 . S
O136 C134 1.270 . S
C137 O130 1.262 . S
C137 O138 1.232 . S
O138 C137 1.232 . S
C139 O131 1.260 . S
C139 O132 1.257 1_565 S
Zn140 O143 2.031 . S
Zn140 O145 2.049 1_565 S
Zn140 O150 2.067 . S
Zn141 O142 1.962 . S
Zn141 O144 1.986 . S
Zn141 O146 1.996 . S
Zn141 O149 1.943 . S
O142 Zn141 1.962 . S
O142 C147 1.254 . S
O143 Zn140 2.031 . S
O143 C147 1.269 . S
O144 Zn141 1.986 . S
O144 C151 1.262 . S
O145 Zn140 2.049 1_545 S
O145 C153 1.260 . S
O146 Zn141 1.996 . S
O146 C153 1.257 1_565 S
C147 O142 1.254 . S
C147 O143 1.269 . S
C148 O149 1.249 . S
C148 O150 1.270 . S
O149 Zn141 1.943 . S
O149 C148 1.249 . S
O150 Zn140 2.067 . S
O150 C148 1.270 . S
C151 O144 1.262 . S
C151 O152 1.232 . S
O152 C151 1.232 . S
C153 O145 1.260 . S
C153 O146 1.257 1_545 S
Zn154 O157 2.031 . S
Zn154 O159 2.049 1_565 S
Zn154 O164 2.067 . S
Zn155 O156 1.962 . S
Zn155 O158 1.986 . S
Zn155 O160 1.996 . S
Zn155 O163 1.943 . S
O156 Zn155 1.962 . S
O156 C161 1.254 . S
O157 Zn154 2.031 . S
O157 C161 1.269 . S
O158 Zn155 1.986 . S
O158 C165 1.262 . S
O159 Zn154 2.049 1_545 S
O159 C167 1.260 . S
O160 Zn155 1.996 . S
O160 C167 1.257 1_565 S
C161 O156 1.254 . S
C161 O157 1.269 . S
C162 O163 1.249 . S
C162 O164 1.270 . S
O163 Zn155 1.943 . S
O163 C162 1.249 . S
O164 Zn154 2.067 . S
O164 C162 1.270 . S
C165 O158 1.262 . S
C165 O166 1.232 . S
O166 C165 1.232 . S
C167 O159 1.260 . S
C167 O160 1.257 1_545 S
Zn168 O171 2.031 . S
Zn168 O173 2.049 . S
Zn168 O178 2.067 . S
Zn169 O170 1.962 . S
Zn169 O172 1.986 . S
Zn169 O174 1.996 . S
Zn169 O177 1.943 . S
O170 Zn169 1.962 . S
O170 C175 1.254 . S
O171 Zn168 2.031 . S
O171 C175 1.269 . S
O172 Zn169 1.986 . S
O172 C179 1.262 . S
O173 Zn168 2.049 . S
O173 C181 1.260 . S
O174 Zn169 1.996 . S
O174 C181 1.257 . S
C175 O170 1.254 . S
C175 O171 1.269 . S
C176 O177 1.249 . S
C176 O178 1.270 . S
O177 Zn169 1.943 . S
O177 C176 1.249 . S
O178 Zn168 2.067 . S
O178 C176 1.270 . S
C179 O172 1.262 . S
C179 O180 1.232 . S
O180 C179 1.232 . S
C181 O173 1.260 . S
C181 O174 1.257 . S
Zn182 O185 2.031 . S
Zn182 O187 2.049 . S
Zn182 O192 2.067 . S
Zn183 O184 1.962 . S
Zn183 O186 1.986 . S
Zn183 O188 1.996 . S
Zn183 O191 1.943 . S
O184 Zn183 1.962 . S
O184 C189 1.254 . S
O185 Zn182 2.031 . S
O185 C189 1.269 . S
O186 Zn183 1.986 . S
O186 C193 1.262 . S
O187 Zn182 2.049 . S
O187 C195 1.260 . S
O188 Zn183 1.996 . S
O188 C195 1.257 . S
C189 O184 1.254 . S
C189 O185 1.269 . S
C190 O191 1.249 . S
C190 O192 1.270 . S
O191 Zn183 1.943 . S
O191 C190 1.249 . S
O192 Zn182 2.067 . S
O192 C190 1.270 . S
C193 O186 1.262 . S
C193 O194 1.232 . S
O194 C193 1.232 . S
C195 O187 1.260 . S
C195 O188 1.257 . S
Zn196 O199 2.031 . S
Zn196 O201 2.049 . S
Zn196 O206 2.067 . S
Zn197 O198 1.962 . S
Zn197 O200 1.986 . S
Zn197 O202 1.996 . S
Zn197 O205 1.943 . S
O198 Zn197 1.962 . S
O198 C203 1.254 . S
O199 Zn196 2.031 . S
O199 C203 1.269 . S
O200 Zn197 1.986 . S
O200 C207 1.262 . S
O201 Zn196 2.049 . S
O201 C209 1.260 . S
O202 Zn197 1.996 . S
O202 C209 1.257 . S
C203 O198 1.254 . S
C203 O199 1.269 . S
C204 O205 1.249 . S
C204 O206 1.270 . S
O205 Zn197 1.943 . S
O205 C204 1.249 . S
O206 Zn196 2.067 . S
O206 C204 1.270 . S
C207 O200 1.262 . S
C207 O208 1.232 . S
O208 C207 1.232 . S
C209 O201 1.260 . S
C209 O202 1.257 . S
Zn210 O213 2.031 . S
Zn210 O215 2.049 . S
Zn210 O220 2.067 . S
Zn211 O212 1.962 . S
Zn211 O214 1.986 . S
Zn211 O216 1.996 . S
Zn211 O219 1.943 . S
O212 Zn211 1.962 . S
O212 C217 1.254 . S
O213 Zn210 2.031 . S
O213 C217 1.269 . S
O214 Zn211 1.986 . S
O214 C221 1.262 . S
O215 Zn210 2.049 . S
O215 C223 1.260 . S
O216 Zn211 1.996 . S
O216 C223 1.257 . S
C217 O212 1.254 . S
C217 O213 1.269 . S
C218 O219 1.249 . S
C218 O220 1.270 . S
O219 Zn211 1.943 . S
O219 C218 1.249 . S
O220 Zn210 2.067 . S
O220 C218 1.270 . S
C221 O214 1.262 . S
C221 O222 1.232 . S
O222 C221 1.232 . S
C223 O215 1.260 . S
C223 O216 1.257 . S
C224 C225 1.387 . S
C224 H228 0.950 . S
C224 C233 1.390 . S
C225 C224 1.387 . S
C225 C227 1.387 . S
H226 C233 0.950 . S
C227 C225 1.387 . S
C227 C229 1.390 . S
C227 H231 0.950 . S
H228 C224 0.950 . S
C229 C227 1.390 . S
C229 C230 1.387 . S
C229 H232 0.950 . S
C230 C229 1.387 . S
C230 C233 1.387 . S
H231 C227 0.950 . S
H232 C229 0.950 . S
C233 C224 1.390 . S
C233 H226 0.950 . S
C233 C230 1.387 . S
C234 C235 1.387 1_545 S
C234 H238 0.950 . S
C234 C243 1.390 1_655 S
C235 C234 1.387 1_565 S
C235 C237 1.387 . S
H236 C243 0.950 . S
C237 C235 1.387 . S
C237 C239 1.390 1_655 S
C237 H241 0.950 . S
H238 C234 0.950 . S
C239 C237 1.390 1_455 S
C239 C240 1.387 1_565 S
C239 H242 0.950 . S
C240 C239 1.387 1_545 S
C240 C243 1.387 . S
H241 C237 0.950 . S
H242 C239 0.950 . S
C243 C234 1.390 1_455 S
C243 H236 0.950 . S
C243 C240 1.387 . S
C244 C245 1.387 1_545 S
C244 H248 0.950 . S
C244 C253 1.390 . S
C245 C244 1.387 1_565 S
C245 C247 1.387 . S
H246 C253 0.950 . S
C247 C245 1.387 . S
C247 C249 1.390 . S
C247 H251 0.950 . S
H248 C244 0.950 . S
C249 C247 1.390 . S
C249 C250 1.387 1_565 S
C249 H252 0.950 . S
C250 C249 1.387 1_545 S
C250 C253 1.387 . S
H251 C247 0.950 . S
H252 C249 0.950 . S
C253 C244 1.390 . S
C253 H246 0.950 . S
C253 C250 1.387 . S
C254 C255 1.387 . S
C254 H258 0.950 . S
C254 C263 1.390 1_455 S
C255 C254 1.387 . S
C255 C257 1.387 . S
H256 C263 0.950 . S
C257 C255 1.387 . S
C257 C259 1.390 1_455 S
C257 H261 0.950 . S
H258 C254 0.950 . S
C259 C257 1.390 1_655 S
C259 C260 1.387 . S
C259 H262 0.950 . S
C260 C259 1.387 . S
C260 C263 1.387 . S
H261 C257 0.950 . S
H262 C259 0.950 . S
C263 C254 1.390 1_655 S
C263 H256 0.950 . S
C263 C260 1.387 . S
C264 C265 1.387 . S
C264 H268 0.950 . S
C264 C273 1.390 . S
C265 C264 1.387 . S
C265 C267 1.387 . S
H266 C273 0.950 . S
C267 C265 1.387 . S
C267 C269 1.390 . S
C267 H271 0.950 . S
H268 C264 0.950 . S
C269 C267 1.390 . S
C269 C270 1.387 . S
C269 H272 0.950 . S
C270 C269 1.387 . S
C270 C273 1.387 . S
H271 C267 0.950 . S
H272 C269 0.950 . S
C273 C264 1.390 . S
C273 H266 0.950 . S
C273 C270 1.387 . S
C274 C275 1.387 . S
C274 H278 0.950 . S
C274 C283 1.390 . S
C275 C274 1.387 . S
C275 C277 1.387 1_545 S
H276 C283 0.950 . S
C277 C275 1.387 1_565 S
C277 C279 1.390 . S
C277 H281 0.950 . S
H278 C274 0.950 . S
C279 C277 1.390 . S
C279 C280 1.387 . S
C279 H282 0.950 . S
C280 C279 1.387 . S
C280 C283 1.387 1_565 S
H281 C277 0.950 . S
H282 C279 0.950 . S
C283 C274 1.390 . S
C283 H276 0.950 . S
C283 C280 1.387 1_545 S
C284 C285 1.387 . S
C284 H288 0.950 . S
C284 C293 1.390 1_655 S
C285 C284 1.387 . S
C285 C287 1.387 . S
H286 C293 0.950 . S
C287 C285 1.387 . S
C287 C289 1.390 1_655 S
C287 H291 0.950 . S
H288 C284 0.950 . S
C289 C287 1.390 1_455 S
C289 C290 1.387 . S
C289 H292 0.950 . S
C290 C289 1.387 . S
C290 C293 1.387 . S
H291 C287 0.950 . S
H292 C289 0.950 . S
C293 C284 1.390 1_455 S
C293 H286 0.950 . S
C293 C290 1.387 . S
C294 C295 1.387 1_556 S
C294 H298 0.950 . S
C294 C303 1.390 . S
C295 C294 1.387 1_554 S
C295 C297 1.387 . S
H296 C303 0.950 . S
C297 C295 1.387 . S
C297 C299 1.390 . S
C297 H301 0.950 . S
H298 C294 0.950 . S
C299 C297 1.390 . S
C299 C300 1.387 1_554 S
C299 H302 0.950 . S
C300 C299 1.387 1_556 S
C300 C303 1.387 . S
H301 C297 0.950 . S
H302 C299 0.950 . S
C303 C294 1.390 . S
C303 H296 0.950 . S
C303 C300 1.387 . S
C304 C305 1.387 . S
C304 H308 0.950 . S
C304 C313 1.390 1_455 S
C305 C304 1.387 . S
C305 C307 1.387 1_556 S
H306 C313 0.950 . S
C307 C305 1.387 1_554 S
C307 C309 1.390 1_455 S
C307 H311 0.950 . S
H308 C304 0.950 . S
C309 C307 1.390 1_655 S
C309 C310 1.387 . S
C309 H312 0.950 . S
C310 C309 1.387 . S
C310 C313 1.387 1_554 S
H311 C307 0.950 . S
H312 C309 0.950 . S
C313 C304 1.390 1_655 S
C313 H306 0.950 . S
C313 C310 1.387 1_556 S
C314 C315 1.387 . S
C314 H318 0.950 . S
C314 C323 1.390 . S
C315 C314 1.387 . S
C315 C317 1.387 . S
H316 C323 0.950 . S
C317 C315 1.387 . S
C317 C319 1.390 . S
C317 H321 0.950 . S
H318 C314 0.950 . S
C319 C317 1.390 . S
C319 C320 1.387 . S
C319 H322 0.950 . S
C320 C319 1.387 . S
C320 C323 1.387 . S
H321 C317 0.950 . S
H322 C319 0.950 . S
C323 C314 1.390 . S
C323 H316 0.950 . S
C323 C320 1.387 . S
C324 C325 1.387 . S
C324 H328 0.950 . S
C324 C333 1.390 . S
C325 C324 1.387 . S
C325 C327 1.387 1_556 S
H326 C333 0.950 . S
C327 C325 1.387 1_554 S
C327 C329 1.390 . S
C327 H331 0.950 . S
H328 C324 0.950 . S
C329 C327 1.390 . S
C329 C330 1.387 . S
C329 H332 0.950 . S
C330 C329 1.387 . S
C330 C333 1.387 1_554 S
H331 C327 0.950 . S
H332 C329 0.950 . S
C333 C324 1.390 . S
C333 H326 0.950 . S
C333 C330 1.387 1_556 S
C334 C335 1.387 . S
C334 H338 0.950 . S
C334 C343 1.390 . S
C335 C334 1.387 . S
C335 C337 1.387 . S
H336 C343 0.950 . S
C337 C335 1.387 . S
C337 C339 1.390 . S
C337 H341 0.950 . S
H338 C334 0.950 . S
C339 C337 1.390 . S
C339 C340 1.387 . S
C339 H342 0.950 . S
C340 C339 1.387 . S
C340 C343 1.387 . S
H341 C337 0.950 . S
H342 C339 0.950 . S
C343 C334 1.390 . S
C343 H336 0.950 . S
C343 C340 1.387 . S
C344 C345 1.387 1_554 S
C344 H348 0.950 . S
C344 C353 1.390 . S
C345 C344 1.387 1_556 S
C345 C347 1.387 1_545 S
H346 C353 0.950 . S
C347 C345 1.387 1_565 S
C347 C349 1.390 . S
C347 H351 0.950 . S
H348 C344 0.950 . S
C349 C347 1.390 . S
C349 C350 1.387 1_556 S
C349 H352 0.950 . S
C350 C349 1.387 1_554 S
C350 C353 1.387 1_565 S
H351 C347 0.950 . S
H352 C349 0.950 . S
C353 C344 1.390 . S
C353 H346 0.950 . S
C353 C350 1.387 1_545 S
C354 C355 1.387 . S
C354 H358 0.950 . S
C354 C363 1.390 . S
C355 C354 1.387 . S
C355 C357 1.387 . S
H356 C363 0.950 . S
C357 C355 1.387 . S
C357 C359 1.390 . S
C357 H361 0.950 . S
H358 C354 0.950 . S
C359 C357 1.390 . S
C359 C360 1.387 . S
C359 H362 0.950 . S
C360 C359 1.387 . S
C360 C363 1.387 . S
H361 C357 0.950 . S
H362 C359 0.950 . S
C363 C354 1.390 . S
C363 H356 0.950 . S
C363 C360 1.387 . S
C364 C365 1.387 . S
C364 H368 0.950 . S
C364 C373 1.390 . S
C365 C364 1.387 . S
C365 C367 1.387 . S
H366 C373 0.950 . S
C367 C365 1.387 . S
C367 C369 1.390 . S
C367 H371 0.950 . S
H368 C364 0.950 . S
C369 C367 1.390 . S
C369 C370 1.387 . S
C369 H372 0.950 . S
C370 C369 1.387 . S
C370 C373 1.387 . S
H371 C367 0.950 . S
H372 C369 0.950 . S
C373 C364 1.390 . S
C373 H366 0.950 . S
C373 C370 1.387 . S
C374 C375 1.387 . S
C374 H378 0.950 . S
C374 C383 1.390 . S
C375 C374 1.387 . S
C375 C377 1.387 . S
H376 C383 0.950 . S
C377 C375 1.387 . S
C377 C379 1.390 . S
C377 H381 0.950 . S
H378 C374 0.950 . S
C379 C377 1.390 . S
C379 C380 1.387 . S
C379 H382 0.950 . S
C380 C379 1.387 . S
C380 C383 1.387 . S
H381 C377 0.950 . S
H382 C379 0.950 . S
C383 C374 1.390 . S
C383 H376 0.950 . S
C383 C380 1.387 . S
C384 C385 1.387 . S
C384 H388 0.950 . S
C384 C393 1.390 . S
C385 C384 1.387 . S
C385 C387 1.387 . S
H386 C393 0.950 . S
C387 C385 1.387 . S
C387 C389 1.390 . S
C387 H391 0.950 . S
H388 C384 0.950 . S
C389 C387 1.390 . S
C389 C390 1.387 . S
C389 H392 0.950 . S
C390 C389 1.387 . S
C390 C393 1.387 . S
H391 C387 0.950 . S
H392 C389 0.950 . S
C393 C384 1.390 . S
C393 H386 0.950 . S
C393 C390 1.387 . S
C394 C395 1.387 . S
C394 H398 0.950 . S
C394 C403 1.390 . S
C395 C394 1.387 . S
C395 C397 1.387 . S
H396 C403 0.950 . S
C397 C395 1.387 . S
C397 C399 1.390 . S
C397 H401 0.950 . S
H398 C394 0.950 . S
C399 C397 1.390 . S
C399 C400 1.387 . S
C399 H402 0.950 . S
C400 C399 1.387 . S
C400 C403 1.387 . S
H401 C397 0.950 . S
H402 C399 0.950 . S
C403 C394 1.390 . S
C403 H396 0.950 . S
C403 C400 1.387 . S
C404 C405 1.387 . S
C404 H408 0.950 . S
C404 C413 1.390 . S
C405 C404 1.387 . S
C405 C407 1.387 . S
H406 C413 0.950 . S
C407 C405 1.387 . S
C407 C409 1.390 . S
C407 H411 0.950 . S
H408 C404 0.950 . S
C409 C407 1.390 . S
C409 C410 1.387 . S
C409 H412 0.950 . S
C410 C409 1.387 . S
C410 C413 1.387 . S
H411 C407 0.950 . S
H412 C409 0.950 . S
C413 C404 1.390 . S
C413 H406 0.950 . S
C413 C410 1.387 . S
C414 C415 1.387 . S
C414 H418 0.950 . S
C414 C423 1.390 . S
C415 C414 1.387 . S
C415 C417 1.387 . S
H416 C423 0.950 . S
C417 C415 1.387 . S
C417 C419 1.390 . S
C417 H421 0.950 . S
H418 C414 0.950 . S
C419 C417 1.390 . S
C419 C420 1.387 . S
C419 H422 0.950 . S
C420 C419 1.387 . S
C420 C423 1.387 . S
H421 C417 0.950 . S
H422 C419 0.950 . S
C423 C414 1.390 . S
C423 H416 0.950 . S
C423 C420 1.387 . S
C424 C425 1.387 . S
C424 H428 0.950 . S
C424 C433 1.390 . S
C425 C424 1.387 . S
C425 C427 1.387 . S
H426 C433 0.950 . S
C427 C425 1.387 . S
C427 C429 1.390 . S
C427 H431 0.950 . S
H428 C424 0.950 . S
C429 C427 1.390 . S
C429 C430 1.387 . S
C429 H432 0.950 . S
C430 C429 1.387 . S
C430 C433 1.387 . S
H431 C427 0.950 . S
H432 C429 0.950 . S
C433 C424 1.390 . S
C433 H426 0.950 . S
C433 C430 1.387 . S
C434 C435 1.387 . S
C434 H438 0.950 . S
C434 C443 1.390 . S
C435 C434 1.387 . S
C435 C437 1.387 . S
H436 C443 0.950 . S
C437 C435 1.387 . S
C437 C439 1.390 . S
C437 H441 0.950 . S
H438 C434 0.950 . S
C439 C437 1.390 . S
C439 C440 1.387 . S
C439 H442 0.950 . S
C440 C439 1.387 . S
C440 C443 1.387 . S
H441 C437 0.950 . S
H442 C439 0.950 . S
C443 C434 1.390 . S
C443 H436 0.950 . S
C443 C440 1.387 . S
C444 C445 1.387 . S
C444 H448 0.950 . S
C444 C453 1.390 . S
C445 C444 1.387 . S
C445 C447 1.387 . S
H446 C453 0.950 . S
C447 C445 1.387 . S
C447 C449 1.390 . S
C447 H451 0.950 . S
H448 C444 0.950 . S
C449 C447 1.390 . S
C449 C450 1.387 . S
C449 H452 0.950 . S
C450 C449 1.387 . S
C450 C453 1.387 . S
H451 C447 0.950 . S
H452 C449 0.950 . S
C453 C444 1.390 . S
C453 H446 0.950 . S
C453 C450 1.387 . S
C454 C455 1.387 . S
C454 H458 0.950 . S
C454 C463 1.390 . S
C455 C454 1.387 . S
C455 C457 1.387 . S
H456 C463 0.950 . S
C457 C455 1.387 . S
C457 C459 1.390 . S
C457 H461 0.950 . S
H458 C454 0.950 . S
C459 C457 1.390 . S
C459 C460 1.387 . S
C459 H462 0.950 . S
C460 C459 1.387 . S
C460 C463 1.387 . S
H461 C457 0.950 . S
H462 C459 0.950 . S
C463 C454 1.390 . S
C463 H456 0.950 . S
C463 C460 1.387 . S
C464 C465 1.387 . S
C464 H468 0.950 . S
C464 C473 1.390 . S
C465 C464 1.387 . S
C465 C467 1.387 . S
H466 C473 0.950 . S
C467 C465 1.387 . S
C467 C469 1.390 . S
C467 H471 0.950 . S
H468 C464 0.950 . S
C469 C467 1.390 . S
C469 C470 1.387 . S
C469 H472 0.950 . S
C470 C469 1.387 . S
C470 C473 1.387 . S
H471 C467 0.950 . S
H472 C469 0.950 . S
C473 C464 1.390 . S
C473 H466 0.950 . S
C473 C470 1.387 . S
C474 C475 1.387 . S
C474 H478 0.950 . S
C474 C483 1.390 . S
C475 C474 1.387 . S
C475 C477 1.387 . S
H476 C483 0.950 . S
C477 C475 1.387 . S
C477 C479 1.390 . S
C477 H481 0.950 . S
H478 C474 0.950 . S
C479 C477 1.390 . S
C479 C480 1.387 . S
C479 H482 0.950 . S
C480 C479 1.387 . S
C480 C483 1.387 . S
H481 C477 0.950 . S
H482 C479 0.950 . S
C483 C474 1.390 . S
C483 H476 0.950 . S
C483 C480 1.387 . S
C484 C485 1.387 . S
C484 H488 0.950 . S
C484 C493 1.390 . S
C485 C484 1.387 . S
C485 C487 1.387 . S
H486 C493 0.950 . S
C487 C485 1.387 . S
C487 C489 1.390 . S
C487 H491 0.950 . S
H488 C484 0.950 . S
C489 C487 1.390 . S
C489 C490 1.387 . S
C489 H492 0.950 . S
C490 C489 1.387 . S
C490 C493 1.387 . S
H491 C487 0.950 . S
H492 C489 0.950 . S
C493 C484 1.390 . S
C493 H486 0.950 . S
C493 C490 1.387 . S
C494 C495 1.387 . S
C494 H498 0.950 . S
C494 C503 1.390 . S
C495 C494 1.387 . S
C495 C497 1.387 . S
H496 C503 0.950 . S
C497 C495 1.387 . S
C497 C499 1.390 . S
C497 H501 0.950 . S
H498 C494 0.950 . S
C499 C497 1.390 . S
C499 C500 1.387 . S
C499 H502 0.950 . S
C500 C499 1.387 . S
C500 C503 1.387 . S
H501 C497 0.950 . S
H502 C499 0.950 . S
C503 C494 1.390 . S
C503 H496 0.950 . S
C503 C500 1.387 . S
C504 C505 1.387 . S
C504 H508 0.950 . S
C504 C513 1.390 . S
C505 C504 1.387 . S
C505 C507 1.387 . S
H506 C513 0.950 . S
C507 C505 1.387 . S
C507 C509 1.390 . S
C507 H511 0.950 . S
H508 C504 0.950 . S
C509 C507 1.390 . S
C509 C510 1.387 . S
C509 H512 0.950 . S
C510 C509 1.387 . S
C510 C513 1.387 . S
H511 C507 0.950 . S
H512 C509 0.950 . S
C513 C504 1.390 . S
C513 H506 0.950 . S
C513 C510 1.387 . S
C514 C515 1.387 . S
C514 H518 0.950 . S
C514 C523 1.390 . S
C515 C514 1.387 . S
C515 C517 1.387 . S
H516 C523 0.950 . S
C517 C515 1.387 . S
C517 C519 1.390 . S
C517 H521 0.950 . S
H518 C514 0.950 . S
C519 C517 1.390 . S
C519 C520 1.387 . S
C519 H522 0.950 . S
C520 C519 1.387 . S
C520 C523 1.387 . S
H521 C517 0.950 . S
H522 C519 0.950 . S
C523 C514 1.390 . S
C523 H516 0.950 . S
C523 C520 1.387 . S
C524 C525 1.387 . S
C524 H528 0.950 . S
C524 C533 1.390 . S
C525 C524 1.387 . S
C525 C527 1.387 . S
H526 C533 0.950 . S
C527 C525 1.387 . S
C527 C529 1.390 . S
C527 H531 0.950 . S
H528 C524 0.950 . S
C529 C527 1.390 . S
C529 C530 1.387 . S
C529 H532 0.950 . S
C530 C529 1.387 . S
C530 C533 1.387 . S
H531 C527 0.950 . S
H532 C529 0.950 . S
C533 C524 1.390 . S
C533 H526 0.950 . S
C533 C530 1.387 . S
C534 C535 1.387 . S
C534 H538 0.950 . S
C534 C543 1.390 . S
C535 C534 1.387 . S
C535 C537 1.387 . S
H536 C543 0.950 . S
C537 C535 1.387 . S
C537 C539 1.390 . S
C537 H541 0.950 . S
H538 C534 0.950 . S
C539 C537 1.390 . S
C539 C540 1.387 . S
C539 H542 0.950 . S
C540 C539 1.387 . S
C540 C543 1.387 . S
H541 C537 0.950 . S
H542 C539 0.950 . S
C543 C534 1.390 . S
C543 H536 0.950 . S
C543 C540 1.387 . S
C225 C203 1.529 . S
C230 C7 1.529 . S
C235 C39 1.518 . S
C240 C11 1.518 . S
C245 C165 1.518 . S
C250 C25 1.518 . S
C255 C21 1.529 . S
C260 C105 1.529 . S
C265 C35 1.529 . S
C270 C175 1.529 . S
C275 C137 1.519 . S
C280 C53 1.519 . S
C285 C49 1.529 . S
C290 C77 1.529 . S
C295 C147 1.529 . S
C300 C63 1.529 . S
C305 C67 1.520 . S
C310 C95 1.520 . S
C315 C221 1.518 . S
C320 C81 1.518 . S
C325 C119 1.529 . S
C330 C91 1.529 . S
C335 C193 1.518 . S
C340 C109 1.518 . S
C345 C123 1.518 . S
C350 C151 1.518 . S
C355 C217 1.529 . S
C360 C133 1.529 . S
C365 C161 1.529 . S
C370 C189 1.529 . S
C375 C207 1.518 . S
C380 C179 1.518 . S
C385 C78 1.254 . S
C390 C13 1.236 . S
C395 C8 1.250 . S
C400 C83 1.233 . S
C405 C22 1.250 . S
C410 C69 1.233 . S
C415 C64 1.250 . S
C420 C27 1.233 . S
C425 C106 1.254 . S
C430 C41 1.236 . S
C435 C111 1.235 . S
C440 C36 1.253 . S
C445 C97 1.236 . S
C450 C50 1.254 . S
C455 C55 1.236 . S
C460 C92 1.254 . S
C465 C190 1.250 . S
C470 C125 1.233 . S
C475 C120 1.254 . S
C480 C195 1.236 . S
C485 C134 1.254 . S
C490 C181 1.236 . S
C495 C176 1.254 . S
C500 C139 1.236 . S
C505 C218 1.254 . S
C510 C153 1.236 . S
C515 C223 1.236 . S
C520 C148 1.254 . S
C525 C162 1.250 . S
C530 C209 1.233 . S
C535 C204 1.250 . S
C540 C167 1.233 . S
