# Generated by pormake.
# Topology sof, (5)-cn, num edge types: 1
# Building blocks:
#     Node 0, Type 0, BuildingBlock: BEQFEK_clean_sbu_0, # of connection points: 5
#     Node 1, Type 0, BuildingBlock: BEQFEK_clean_sbu_0, # of connection points: 5
#     Node 2, Type 0, BuildingBlock: BEQFEK_clean_sbu_0, # of connection points: 5
#     Node 3, Type 0, BuildingBlock: BEQFEK_clean_sbu_0, # of connection points: 5
#     Node 4, Type 0, BuildingBlock: BEQFEK_clean_sbu_0, # of connection points: 5
#     Node 5, Type 0, BuildingBlock: BEQFEK_clean_sbu_0, # of connection points: 5
#     Node 6, Type 0, BuildingBlock: BEQFEK_clean_sbu_0, # of connection points: 5
#     Node 7, Type 0, BuildingBlock: BEQFEK_clean_sbu_0, # of connection points: 5
#     Edge 8, Type (0, 0), BuildingBlock: TEMPAE_clean_linker_10, # of connection points: 2
#     Edge 9, Type (0, 0), BuildingBlock: TEMPAE_clean_linker_10, # of connection points: 2
#     Edge 10, Type (0, 0), BuildingBlock: TEMPAE_clean_linker_10, # of connection points: 2
#     Edge 11, Type (0, 0), BuildingBlock: TEMPAE_clean_linker_10, # of connection points: 2
#     Edge 12, Type (0, 0), BuildingBlock: TEMPAE_clean_linker_10, # of connection points: 2
#     Edge 13, Type (0, 0), BuildingBlock: TEMPAE_clean_linker_10, # of connection points: 2
#     Edge 14, Type (0, 0), BuildingBlock: TEMPAE_clean_linker_10, # of connection points: 2
#     Edge 15, Type (0, 0), BuildingBlock: TEMPAE_clean_linker_10, # of connection points: 2
#     Edge 16, Type (0, 0), BuildingBlock: TEMPAE_clean_linker_10, # of connection points: 2
#     Edge 17, Type (0, 0), BuildingBlock: TEMPAE_clean_linker_10, # of connection points: 2
#     Edge 18, Type (0, 0), BuildingBlock: TEMPAE_clean_linker_10, # of connection points: 2
#     Edge 19, Type (0, 0), BuildingBlock: TEMPAE_clean_linker_10, # of connection points: 2
#     Edge 20, Type (0, 0), BuildingBlock: TEMPAE_clean_linker_10, # of connection points: 2
#     Edge 21, Type (0, 0), BuildingBlock: TEMPAE_clean_linker_10, # of connection points: 2
#     Edge 22, Type (0, 0), BuildingBlock: TEMPAE_clean_linker_10, # of connection points: 2
#     Edge 23, Type (0, 0), BuildingBlock: TEMPAE_clean_linker_10, # of connection points: 2
#     Edge 24, Type (0, 0), BuildingBlock: TEMPAE_clean_linker_10, # of connection points: 2
#     Edge 25, Type (0, 0), BuildingBlock: TEMPAE_clean_linker_10, # of connection points: 2
#     Edge 26, Type (0, 0), BuildingBlock: TEMPAE_clean_linker_10, # of connection points: 2
#     Edge 27, Type (0, 0), BuildingBlock: TEMPAE_clean_linker_10, # of connection points: 2
# Relax obj value: 0.156
# Max RMSD: 0.171
# Mean RMSD: 0.171
data_MOF--net-sof--node1-BEQFEK_clean_sbu_0--edge1-TEMPAE_clean_linker_10
_symmetry_space_group_name_H-M    P1
_symmetry_Int_Tables_number       1
_symmetry_cell_setting            triclinic
loop_
_symmetry_equiv_pos_as_xyz
'x, y, z'
_cell_length_a     59.471605
_cell_length_b     19.037086
_cell_length_c     44.56133
_cell_angle_alpha  89.988631
_cell_angle_beta   89.993172
_cell_angle_gamma 89.988802
loop_
_atom_site_label
_atom_site_type_symbol
_atom_site_fract_x
_atom_site_fract_y
_atom_site_fract_z
_atom_type_partial_charge
Co0 Co 0.13186 0.14599 0.08835 0.0
Co1 Co 0.12352 -0.00349 0.1133 0.0
C2 C 0.16792 0.04386 0.08473 0.0
O3 O 0.16078 0.10397 0.07669 0.0
O4 O 0.15537 0.00169 0.0993 0.0
C5 C 0.13715 0.28241 0.05545 0.0
O6 O 0.14556 0.25247 0.0314 0.0
C7 C 0.12353 0.8499 0.09886 0.0
C8 C 0.10547 0.79995 0.13655 0.0
C9 C 0.11609 0.78581 0.10949 0.0
N10 N 0.11769 0.89969 0.11865 0.0
N11 N 0.10697 0.86974 0.14126 0.0
C12 C 0.13455 0.865 0.06935 0.0
H13 H 0.13018 0.9187 0.06161 0.0
H14 H 0.12938 0.82602 0.05216 0.0
H15 H 0.15307 0.86219 0.07214 0.0
C16 C 0.09076 0.11047 0.0529 0.0
N17 N 0.10707 0.09528 0.07286 0.0
N18 N 0.10316 0.03306 0.08453 0.0
C19 C 0.08396 0.00722 0.07295 0.0
C20 C 0.07553 0.05497 0.05223 0.0
C21 C 0.09029 0.17595 0.03436 0.0
H22 H 0.10721 0.1853 0.02478 0.0
H23 H 0.07795 0.17231 0.01578 0.0
H24 H 0.08602 0.22129 0.04894 0.0
O25 O 0.13013 0.15093 0.13285 0.0
O26 O 0.1205 0.04735 0.15165 0.0
H27 H 0.05453 0.94147 0.07869 0.0
H28 H 0.08067 0.89541 0.07272 0.0
C29 C 0.07278 0.94144 0.08378 0.0
H30 H 0.07498 0.93634 0.10837 0.0
H31 H 0.10046 0.89698 0.15964 0.0
O32 O 0.13089 0.2457 0.07769 0.0
C33 C 0.12508 0.11211 0.15511 0.0
Co34 Co 0.3717 0.84879 0.08468 0.0
Co35 Co 0.37694 0.99323 0.11656 0.0
C36 C 0.33348 0.94345 0.08596 0.0
O37 O 0.34186 0.88758 0.07498 0.0
O38 O 0.34518 0.98415 0.10245 0.0
C39 C 0.35963 0.71063 0.06821 0.0
O40 O 0.33935 0.73332 0.0748 0.0
C41 C 0.37776 0.14358 0.10752 0.0
C42 C 0.38823 0.18529 0.15159 0.0
C43 C 0.3824 0.20561 0.12269 0.0
N44 N 0.38099 0.08953 0.12641 0.0
N45 N 0.38727 0.11462 0.15274 0.0
C46 C 0.36939 0.13506 0.07601 0.0
H47 H 0.3616 0.08286 0.07276 0.0
H48 H 0.38374 0.13892 0.0602 0.0
H49 H 0.35706 0.17685 0.07045 0.0
C50 C 0.41176 0.9006 0.0519 0.0
N51 N 0.39505 0.90884 0.07196 0.0
N52 N 0.398 0.96811 0.08652 0.0
C53 C 0.41713 -0.00139 0.0769 0.0
C54 C 0.4264 0.95731 0.05435 0.0
C55 C 0.41346 0.83952 0.0309 0.0
H56 H 0.42166 0.79502 0.0427 0.0
H57 H 0.39641 0.82246 0.02392 0.0
H58 H 0.42352 0.85317 0.01075 0.0
O59 O 0.37363 0.83246 0.12872 0.0
O60 O 0.38099 0.9328 0.15214 0.0
H61 H 0.42355 0.06202 0.11591 0.0
H62 H 0.44643 0.05909 0.08938 0.0
C63 C 0.42786 0.06077 0.09173 0.0
H64 H 0.42167 0.10966 0.08103 0.0
H65 H 0.39079 0.0836 0.17147 0.0
O66 O 0.37587 0.75388 0.06814 0.0
C67 C 0.37785 0.86665 0.15263 0.0
Co68 Co 0.12989 0.34111 0.4228 0.0
Co69 Co 0.12368 0.48549 0.39127 0.0
C70 C 0.16766 0.43772 0.42112 0.0
O71 O 0.15965 0.3812 0.432 0.0
O72 O 0.15562 0.47813 0.40493 0.0
C73 C 0.14241 0.20267 0.43722 0.0
O74 O 0.16222 0.22528 0.42846 0.0
C75 C 0.1223 0.63594 0.39996 0.0
C76 C 0.11075 0.67644 0.35616 0.0
C77 C 0.11709 0.69755 0.38476 0.0
N78 N 0.11894 0.58145 0.38136 0.0
N79 N 0.112 0.60581 0.3552 0.0
C80 C 0.1313 0.62818 0.43119 0.0
H81 H 0.13914 0.57605 0.43445 0.0
H82 H 0.11728 0.63244 0.44749 0.0
H83 H 0.14376 0.67004 0.4361 0.0
C84 C 0.08982 0.3905 0.45621 0.0
N85 N 0.10635 0.39987 0.43596 0.0
N86 N 0.103 0.45923 0.42161 0.0
C87 C 0.08381 0.48871 0.4316 0.0
C88 C 0.0749 0.44656 0.45413 0.0
C89 C 0.08853 0.32893 0.477 0.0
H90 H 0.1057 0.31287 0.48393 0.0
H91 H 0.07839 0.34151 0.4972 0.0
H92 H 0.08064 0.28412 0.46506 0.0
O93 O 0.12768 0.32463 0.37883 0.0
O94 O 0.11971 0.42491 0.35571 0.0
H95 H 0.05419 0.5488 0.42004 0.0
H96 H 0.079 0.5997 0.42777 0.0
C97 C 0.07271 0.5508 0.41719 0.0
H98 H 0.07664 0.55233 0.39289 0.0
H99 H 0.10825 0.57433 0.3367 0.0
O100 O 0.12632 0.24616 0.4394 0.0
C101 C 0.12312 0.35888 0.35505 0.0
Co102 Co 0.37219 0.62447 0.41623 0.0
Co103 Co 0.37701 0.47765 0.38631 0.0
C104 C 0.33398 0.52786 0.41683 0.0
O105 O 0.34252 0.58458 0.42673 0.0
O106 O 0.34545 0.48581 0.4007 0.0
C107 C 0.35926 0.76178 0.42971 0.0
O108 O 0.33991 0.7379 0.4198 0.0
C109 C 0.37393 0.32603 0.39011 0.0
C110 C 0.39668 0.2898 0.35407 0.0
C111 C 0.38334 0.26632 0.37752 0.0
N112 N 0.38185 0.38231 0.37536 0.0
N113 N 0.39521 0.36044 0.35358 0.0
C114 C 0.35714 0.33063 0.41513 0.0
H115 H 0.34143 0.3542 0.40638 0.0
H116 H 0.3637 0.36571 0.433 0.0
H117 H 0.35274 0.27873 0.42465 0.0
C118 C 0.41354 0.57726 0.44742 0.0
N119 N 0.39611 0.56619 0.4287 0.0
N120 N 0.39797 0.50348 0.41661 0.0
C121 C 0.41655 0.47202 0.4276 0.0
C122 C 0.42714 0.51786 0.44734 0.0
C123 C 0.41798 0.64602 0.46259 0.0
H124 H 0.41773 0.6887 0.44564 0.0
H125 H 0.40433 0.65676 0.47894 0.0
H126 H 0.43443 0.64671 0.47426 0.0
O127 O 0.3735 0.64043 0.37242 0.0
O128 O 0.38082 0.5383 0.35044 0.0
H129 H 0.42788 0.39612 0.39559 0.0
H130 H 0.43843 0.38141 0.43316 0.0
C131 C 0.42374 0.39886 0.41982 0.0
H132 H 0.40973 0.36215 0.42441 0.0
H133 H 0.40382 0.39378 0.33897 0.0
O134 O 0.37551 0.71922 0.4329 0.0
C135 C 0.37763 0.60437 0.34903 0.0
Co136 Co 0.87454 0.87027 0.91478 0.0
Co137 Co 0.87674 0.0187 0.88521 0.0
C138 C 0.83485 0.96411 0.91583 0.0
O139 O 0.84402 0.90699 0.92425 0.0
O140 O 0.84574 0.00914 0.90056 0.0
C141 C 0.86204 0.73392 0.93119 0.0
O142 O 0.84219 0.75774 0.9232 0.0
C143 C 0.87322 0.17015 0.88903 0.0
C144 C 0.89493 0.20693 0.85195 0.0
C145 C 0.88221 0.23005 0.87608 0.0
N146 N 0.88082 0.11408 0.87385 0.0
N147 N 0.89351 0.13628 0.85142 0.0
C148 C 0.85733 0.16518 0.91506 0.0
H149 H 0.84145 0.14072 0.90735 0.0
H150 H 0.86465 0.1307 0.93261 0.0
H151 H 0.85305 0.2171 0.92467 0.0
C152 C 0.91505 0.92274 0.94589 0.0
N153 N 0.8974 0.93185 0.9274 0.0
N154 N 0.89846 0.99462 0.91514 0.0
C155 C 0.91676 0.02811 0.9259 0.0
C156 C 0.92796 0.98356 0.94561 0.0
C157 C 0.92046 0.85434 0.96084 0.0
H158 H 0.92035 0.81176 0.94385 0.0
H159 H 0.90722 0.8422 0.97761 0.0
H160 H 0.93711 0.85517 0.97199 0.0
O161 O 0.87774 0.85344 0.87129 0.0
O162 O 0.87978 0.95788 0.84918 0.0
H163 H 0.92647 0.1055 0.89357 0.0
H164 H 0.93804 0.1204 0.93058 0.0
C165 C 0.9231 0.10195 0.91799 0.0
H166 H 0.90896 0.13741 0.92352 0.0
H167 H 0.90179 0.10316 0.83639 0.0
O168 O 0.87851 0.77623 0.93213 0.0
C169 C 0.87977 0.89106 0.84788 0.0
Co170 Co 0.63072 0.14279 0.92137 0.0
Co171 Co 0.62494 -0.00299 0.89055 0.0
C172 C 0.66835 0.04432 0.92115 0.0
O173 O 0.66025 0.10129 0.93149 0.0
O174 O 0.65653 0.00362 0.90487 0.0
C175 C 0.64366 0.28054 0.9332 0.0
O176 O 0.66262 0.25663 0.92202 0.0
C177 C 0.62751 0.84515 0.8943 0.0
C178 C 0.60489 0.80951 0.85802 0.0
C179 C 0.61809 0.7856 0.88154 0.0
N180 N 0.61974 0.90169 0.87956 0.0
N181 N 0.60644 0.88016 0.85766 0.0
C182 C 0.64431 0.84934 0.9193 0.0
H183 H 0.66013 0.87202 0.91046 0.0
H184 H 0.63793 0.885 0.93707 0.0
H185 H 0.6485 0.79744 0.92897 0.0
C186 C 0.58927 0.09691 0.95255 0.0
N187 N 0.60659 0.08535 0.93371 0.0
N188 N 0.60419 0.02346 0.92101 0.0
C189 C 0.5853 0.99319 0.93161 0.0
C190 C 0.57513 0.03886 0.9518 0.0
C191 C 0.58542 0.16521 0.96837 0.0
H192 H 0.58493 0.20829 0.95161 0.0
H193 H 0.59973 0.17569 0.98371 0.0
H194 H 0.56948 0.16544 0.98125 0.0
O195 O 0.62924 0.1595 0.87763 0.0
O196 O 0.6214 0.05872 0.85491 0.0
H197 H 0.57347 0.9209 0.89843 0.0
H198 H 0.56217 0.9052 0.93555 0.0
C199 C 0.57728 0.92154 0.92278 0.0
H200 H 0.59075 0.88278 0.92725 0.0
H201 H 0.59798 0.91372 0.84298 0.0
O202 O 0.62771 0.23774 0.93803 0.0
C203 C 0.6249 0.12471 0.85397 0.0
Co204 Co 0.87248 0.6385 0.58788 0.0
Co205 Co 0.87551 0.49076 0.61801 0.0
C206 C 0.83302 0.54442 0.58823 0.0
O207 O 0.84193 0.60136 0.57912 0.0
O208 O 0.84425 0.50017 0.60349 0.0
C209 C 0.85984 0.77511 0.57245 0.0
O210 O 0.8402 0.75137 0.58138 0.0
C211 C 0.87219 0.33926 0.61399 0.0
C212 C 0.89395 0.30235 0.65099 0.0
C213 C 0.88121 0.27927 0.62688 0.0
N214 N 0.87979 0.39528 0.6292 0.0
N215 N 0.89253 0.373 0.65157 0.0
C216 C 0.85616 0.34434 0.58812 0.0
H217 H 0.84037 0.3692 0.59594 0.0
H218 H 0.86347 0.37852 0.57045 0.0
H219 H 0.85172 0.29245 0.57863 0.0
C220 C 0.91269 0.58648 0.556 0.0
N221 N 0.89526 0.57715 0.57485 0.0
N222 N 0.89681 0.51499 0.58758 0.0
C223 C 0.9153 0.48231 0.57694 0.0
C224 C 0.92604 0.52662 0.55669 0.0
C225 C 0.91755 0.65449 0.54043 0.0
H226 H 0.91863 0.69711 0.55735 0.0
H227 H 0.90344 0.6673 0.52509 0.0
H228 H 0.9335 0.65276 0.52759 0.0
O229 O 0.87616 0.65557 0.63132 0.0
O230 O 0.87901 0.5518 0.65384 0.0
H231 H 0.92561 0.40828 0.61035 0.0
H232 H 0.93777 0.39248 0.57374 0.0
C233 C 0.92247 0.40984 0.58584 0.0
H234 H 0.90882 0.37234 0.58052 0.0
H235 H 0.90081 0.40607 0.66662 0.0
O236 O 0.87622 0.7326 0.5705 0.0
C237 C 0.87872 0.61866 0.65486 0.0
Co238 Co 0.631 0.35147 0.58891 0.0
Co239 Co 0.62305 0.49958 0.61566 0.0
C240 C 0.66711 0.45329 0.58567 0.0
O241 O 0.65984 0.3938 0.57701 0.0
O242 O 0.65474 0.49452 0.601 0.0
C243 C 0.63514 0.21369 0.5558 0.0
O244 O 0.64306 0.24192 0.53108 0.0
C245 C 0.62309 0.64682 0.60231 0.0
C246 C 0.60539 0.69552 0.64059 0.0
C247 C 0.61575 0.71057 0.61344 0.0
N248 N 0.61744 0.59636 0.62189 0.0
N249 N 0.60695 0.62556 0.64486 0.0
C250 C 0.63376 0.63273 0.57248 0.0
H251 H 0.62935 0.57924 0.56454 0.0
H252 H 0.62834 0.67219 0.55562 0.0
H253 H 0.65231 0.63566 0.57488 0.0
C254 C 0.5896 0.38958 0.55458 0.0
N255 N 0.60609 0.4033 0.57448 0.0
N256 N 0.60233 0.46479 0.58692 0.0
C257 C 0.58307 0.49157 0.57591 0.0
C258 C 0.57443 0.44527 0.55476 0.0
C259 C 0.58896 0.3254 0.53526 0.0
H260 H 0.58432 0.27936 0.54922 0.0
H261 H 0.6059 0.31578 0.5258 0.0
H262 H 0.57677 0.33095 0.51658 0.0
O263 O 0.62983 0.34458 0.63336 0.0
O264 O 0.62037 0.44673 0.65363 0.0
H265 H 0.57453 0.56061 0.61217 0.0
H266 H 0.55377 0.55727 0.58281 0.0
C267 C 0.57208 0.55686 0.58758 0.0
H268 H 0.57989 0.60339 0.57682 0.0
H269 H 0.60058 0.59771 0.66317 0.0
O270 O 0.62969 0.25186 0.57796 0.0
C271 C 0.62504 0.38179 0.6562 0.0
C272 C 0.20537 0.06534 0.06042 0.0
C273 C 0.19167 0.02423 0.0791 0.0
C274 C 0.22844 0.05097 0.05748 0.0
C275 C 0.23805 0.99499 0.074 0.0
C276 C 0.22414 0.95159 0.0919 0.0
C277 C 0.2011 0.96636 0.09402 0.0
C278 C 0.24267 0.09743 0.03765 0.0
C279 C 0.23376 0.89183 0.11015 0.0
C280 C 0.29688 0.92487 0.05898 0.0
C281 C 0.30942 0.96002 0.08102 0.0
C282 C 0.27374 0.9377 0.05555 0.0
C283 C 0.26287 0.9857 0.07502 0.0
C284 C 0.27555 0.02229 0.09688 0.0
C285 C 0.29867 0.00951 0.09942 0.0
C286 C 0.26084 0.89885 0.03156 0.0
C287 C 0.26454 0.07318 0.11837 0.0
H288 H 0.19818 0.1097 0.04856 0.0
H289 H 0.19066 0.93409 0.10843 0.0
H290 H 0.2539 0.13018 0.05176 0.0
H291 H 0.25353 0.06507 0.02286 0.0
H292 H 0.23229 0.13282 0.02347 0.0
H293 H 0.22048 0.86021 0.12132 0.0
H294 H 0.24391 0.85658 0.09569 0.0
H295 H 0.24515 0.91315 0.12765 0.0
H296 H 0.3051 0.88695 0.04453 0.0
H297 H 0.30818 0.03683 0.11656 0.0
H298 H 0.25095 0.93635 0.0178 0.0
H299 H 0.24874 0.86212 0.04216 0.0
H300 H 0.27208 0.86832 0.01652 0.0
H301 H 0.25551 0.1147 0.10576 0.0
H302 H 0.27689 0.09868 0.13359 0.0
H303 H 0.25192 0.04509 0.13225 0.0
C304 C 0.2974 0.55119 0.44323 0.0
C305 C 0.30992 0.51214 0.42238 0.0
C306 C 0.27421 0.53966 0.44686 0.0
C307 C 0.26328 0.48865 0.42892 0.0
C308 C 0.27594 0.44789 0.40843 0.0
C309 C 0.29909 0.45985 0.40554 0.0
C310 C 0.2613 0.58334 0.46927 0.0
C311 C 0.2649 0.3935 0.38862 0.0
C312 C 0.20505 0.41647 0.44572 0.0
C313 C 0.19172 0.45517 0.42566 0.0
C314 C 0.22826 0.42913 0.44817 0.0
C315 C 0.2384 0.48089 0.42979 0.0
C316 C 0.22491 0.52167 0.41026 0.0
C317 C 0.20174 0.50869 0.40861 0.0
C318 C 0.24205 0.3855 0.46965 0.0
C319 C 0.23509 0.57687 0.39004 0.0
H320 H 0.30565 0.59142 0.45645 0.0
H321 H 0.30854 0.42965 0.38924 0.0
H322 H 0.24953 0.61876 0.45727 0.0
H323 H 0.25104 0.54898 0.48402 0.0
H324 H 0.27257 0.61584 0.4835 0.0
H325 H 0.27728 0.36408 0.37483 0.0
H326 H 0.25532 0.35542 0.40246 0.0
H327 H 0.25274 0.41951 0.37335 0.0
H328 H 0.19743 0.37543 0.45918 0.0
H329 H 0.19162 0.53902 0.39307 0.0
H330 H 0.25287 0.41985 0.48366 0.0
H331 H 0.25333 0.3501 0.45682 0.0
H332 H 0.23137 0.35295 0.48465 0.0
H333 H 0.24523 0.61449 0.40337 0.0
H334 H 0.22213 0.6067 0.37738 0.0
H335 H 0.24659 0.55146 0.3737 0.0
C336 C 0.79865 0.93477 0.94219 0.0
C337 C 0.81072 0.9772 0.92209 0.0
C338 C 0.77542 0.94438 0.94642 0.0
C339 C 0.764 -0.00319 0.92979 0.0
C340 C 0.77622 0.04093 0.91012 0.0
C341 C 0.7994 0.03088 0.90666 0.0
C342 C 0.76298 0.89716 0.96798 0.0
C343 C 0.76466 0.0969 0.89165 0.0
C344 C 0.7028 0.97565 0.90832 0.0
C345 C 0.69236 0.02695 0.92615 0.0
C346 C 0.72597 0.96323 0.91026 0.0
C347 C 0.73906 0.00239 0.93083 0.0
C348 C 0.72849 0.0516 0.95004 0.0
C349 C 0.70527 0.06379 0.9473 0.0
C350 C 0.73661 0.9109 0.88908 0.0
C351 C 0.74185 0.09336 0.97264 0.0
H352 H 0.80729 0.89347 0.95434 0.0
H353 H 0.8085 0.06377 0.89096 0.0
H354 H 0.7524 0.92891 0.98337 0.0
H355 H 0.75157 0.86191 0.95531 0.0
H356 H 0.7746 0.86431 0.98155 0.0
H357 H 0.77674 0.12888 0.87843 0.0
H358 H 0.75261 0.07195 0.87591 0.0
H359 H 0.75489 0.13253 0.9064 0.0
H360 H 0.69303 0.94703 0.89183 0.0
H361 H 0.69731 0.10308 0.96134 0.0
H362 H 0.74709 0.87286 0.90171 0.0
H363 H 0.74785 0.93887 0.87319 0.0
H364 H 0.7239 0.88126 0.87592 0.0
H365 H 0.75303 0.05818 0.98574 0.0
H366 H 0.73083 0.12261 0.98842 0.0
H367 H 0.75273 0.13167 0.96076 0.0
C368 C 0.70056 0.52888 0.59591 0.0
C369 C 0.69083 0.47312 0.57993 0.0
C370 C 0.72363 0.54319 0.59375 0.0
C371 C 0.73726 0.5016 0.57472 0.0
C372 C 0.72731 0.44816 0.55706 0.0
C373 C 0.70422 0.43406 0.56009 0.0
C374 C 0.73361 0.60007 0.61328 0.0
C375 C 0.74121 0.4038 0.53599 0.0
C376 C 0.79663 0.56968 0.56162 0.0
C377 C 0.80884 0.53062 0.58277 0.0
C378 C 0.7734 0.55894 0.55779 0.0
C379 C 0.76214 0.50909 0.57598 0.0
C380 C 0.77448 0.46871 0.59694 0.0
C381 C 0.79767 0.47952 0.59988 0.0
C382 C 0.76085 0.60185 0.53475 0.0
C383 C 0.76308 0.41574 0.61711 0.0
H384 H 0.69036 0.55956 0.61123 0.0
H385 H 0.69679 0.39143 0.54738 0.0
H386 H 0.74482 0.57594 0.63031 0.0
H387 H 0.744 0.63636 0.59963 0.0
H388 H 0.72051 0.63115 0.6251 0.0
H389 H 0.73057 0.37136 0.5209 0.0
H390 H 0.75231 0.43751 0.52209 0.0
H391 H 0.75218 0.36817 0.54917 0.0
H392 H 0.80517 0.60893 0.54818 0.0
H393 H 0.80691 0.44928 0.61639 0.0
H394 H 0.749 0.63803 0.54619 0.0
H395 H 0.7507 0.56698 0.5201 0.0
H396 H 0.77235 0.63347 0.52049 0.0
H397 H 0.75059 0.44271 0.63158 0.0
H398 H 0.7752 0.38745 0.63174 0.0
H399 H 0.75383 0.37654 0.60346 0.0
C400 C 0.03896 0.103 0.03346 0.0
C401 C 0.0546 0.04805 0.03452 0.0
C402 C 0.01847 0.09501 0.01819 0.0
C403 C 0.01338 0.03002 0.0043 0.0
C404 C 0.02925 0.97463 0.00511 0.0
C405 C 0.04978 0.98467 0.01992 0.0
C406 C 0.00212 0.15566 0.01734 0.0
C407 C 0.02434 0.90427 0.99089 0.0
C408 C 0.95201 0.98371 0.99154 0.0
C409 C 0.94975 -0.00413 0.96072 0.0
C410 C 0.97267 0.99454 0.00605 0.0
C411 C 0.99132 0.01933 0.98934 0.0
C412 C 0.98901 0.03236 0.95822 0.0
C413 C 0.9683 0.01956 0.94421 0.0
C414 C 0.97459 0.97887 0.03917 0.0
C415 C 0.00841 0.05964 0.93973 0.0
H416 H 0.04254 0.1517 0.0451 0.0
H417 H 0.062 0.94243 0.02049 0.0
H418 H 0.99739 0.16757 0.99379 0.0
H419 H 0.98648 0.14126 0.02943 0.0
H420 H 0.00917 0.20392 0.02772 0.0
H421 H 0.03847 0.86661 0.99363 0.0
H422 H 0.00903 0.8811 0.00113 0.0
H423 H 0.02093 0.91094 0.96659 0.0
H424 H 0.93759 0.96567 0.00428 0.0
H425 H 0.96661 0.02791 0.92025 0.0
H426 H 0.97963 0.02696 0.0515 0.0
H427 H 0.98788 0.93895 0.043 0.0
H428 H 0.95857 0.95912 0.04881 0.0
H429 H 0.01498 0.10896 0.94969 0.0
H430 H 0.00354 0.07008 0.91608 0.0
H431 H 0.02236 0.02095 0.93985 0.0
C432 C 0.45299 0.03653 0.02732 0.0
C433 C 0.44783 0.96946 0.03828 0.0
C434 C 0.47367 0.05009 0.01335 0.0
C435 C 0.48939 0.99486 0.00986 0.0
C436 C 0.48411 0.92671 0.02049 0.0
C437 C 0.46344 0.91497 0.03481 0.0
C438 C 0.47876 0.12356 0.00253 0.0
C439 C 0.50036 0.86633 0.01689 0.0
C440 C 0.53411 0.01274 0.94964 0.0
C441 C 0.55309 0.03012 0.96667 0.0
C442 C 0.51325 0.00105 0.96342 0.0
C443 C 0.51132 0.00823 0.99492 0.0
C444 C 0.53037 0.02744 0.01215 0.0
C445 C 0.55112 0.03777 0.99778 0.0
C446 C 0.49338 0.98015 0.94432 0.0
C447 C 0.52887 0.03646 0.04575 0.0
H448 H 0.44082 0.07854 0.02974 0.0
H449 H 0.45966 0.86339 0.04377 0.0
H450 H 0.49436 0.14315 0.01334 0.0
H451 H 0.48176 0.1232 0.97797 0.0
H452 H 0.46488 0.16088 0.00749 0.0
H453 H 0.49344 0.81617 0.02566 0.0
H454 H 0.50463 0.85924 0.99283 0.0
H455 H 0.51625 0.87809 0.02891 0.0
H456 H 0.53565 0.00777 0.92549 0.0
H457 H 0.56588 0.051 0.01089 0.0
H458 H 0.47958 0.01883 0.94704 0.0
H459 H 0.48683 0.92844 0.95179 0.0
H460 H 0.49774 0.97662 0.92012 0.0
H461 H 0.51569 0.07555 0.05138 0.0
H462 H 0.54505 0.05398 0.05571 0.0
H463 H 0.52393 0.98605 0.05635 0.0
C464 C 0.03811 0.40211 0.47367 0.0
C465 C 0.05349 0.4573 0.47045 0.0
C466 C 0.0174 0.41264 0.4881 0.0
C467 C 0.01187 0.48025 0.49912 0.0
C468 C 0.0274 0.53611 0.49597 0.0
C469 C 0.04811 0.52377 0.48186 0.0
C470 C 0.00135 0.35164 0.49129 0.0
C471 C 0.02206 0.60903 0.50724 0.0
C472 C 0.95011 0.52328 0.51081 0.0
C473 C 0.948 0.51553 0.54191 0.0
C474 C 0.97087 0.51239 0.49656 0.0
C475 C 0.98982 0.49262 0.51388 0.0
C476 C 0.98771 0.48482 0.54535 0.0
C477 C 0.96683 0.49699 0.55902 0.0
C478 C 0.97253 0.52198 0.463 0.0
C479 C 0.00747 0.46335 0.56455 0.0
H480 H 0.04207 0.35098 0.4644 0.0
H481 H 0.06011 0.56631 0.47962 0.0
H482 H 0.99697 0.34384 0.51527 0.0
H483 H 0.9855 0.36314 0.47914 0.0
H484 H 0.00851 0.30192 0.48239 0.0
H485 H 0.03588 0.64684 0.50275 0.0
H486 H 0.00651 0.62872 0.49634 0.0
H487 H 0.01886 0.60764 0.53175 0.0
H488 H 0.93546 0.53746 0.49766 0.0
H489 H 0.9652 0.49198 0.58316 0.0
H490 H 0.97785 0.47204 0.45231 0.0
H491 H 0.98552 0.56191 0.45765 0.0
H492 H 0.95632 0.53875 0.45289 0.0
H493 H 0.01424 0.41223 0.55669 0.0
H494 H 0.00291 0.45843 0.58863 0.0
H495 H 0.02118 0.50254 0.5624 0.0
C496 C 0.46778 0.4855 0.44632 0.0
C497 C 0.44895 0.50766 0.46267 0.0
C498 C 0.48843 0.47334 0.46057 0.0
C499 C 0.49039 0.48531 0.4918 0.0
C500 C 0.4715 0.50896 0.50833 0.0
C501 C 0.45091 0.5193 0.49356 0.0
C502 C 0.50811 0.44741 0.44224 0.0
C503 C 0.47305 0.52342 0.54158 0.0
C504 C 0.53776 0.39899 0.53557 0.0
C505 C 0.55344 0.45371 0.53729 0.0
C506 C 0.5173 0.4081 0.52035 0.0
C507 C 0.5123 0.47393 0.50711 0.0
C508 C 0.52817 0.52918 0.50866 0.0
C509 C 0.54867 0.51808 0.52345 0.0
C510 C 0.50093 0.34762 0.51874 0.0
C511 C 0.52337 0.60035 0.49512 0.0
H512 H 0.4663 0.4775 0.42231 0.0
H513 H 0.43628 0.53612 0.50618 0.0
H514 H 0.52206 0.486 0.44324 0.0
H515 H 0.51452 0.39736 0.45172 0.0
H516 H 0.50359 0.43868 0.41834 0.0
H517 H 0.45693 0.54303 0.55101 0.0
H518 H 0.47787 0.47479 0.55369 0.0
H519 H 0.48634 0.563 0.54597 0.0
H520 H 0.54131 0.34951 0.54663 0.0
H521 H 0.56092 0.56017 0.52451 0.0
H522 H 0.49651 0.33658 0.49501 0.0
H523 H 0.48513 0.36172 0.53053 0.0
H524 H 0.5078 0.29894 0.52898 0.0
H525 H 0.52026 0.59511 0.47069 0.0
H526 H 0.53742 0.63793 0.49856 0.0
H527 H 0.50791 0.6228 0.50527 0.0
C528 C 0.10913 0.34494 0.30237 0.0
C529 C 0.12234 0.32056 0.32623 0.0
C530 C 0.10837 0.30827 0.27503 0.0
C531 C 0.12166 0.24709 0.27127 0.0
C532 C 0.13501 0.22233 0.29532 0.0
C533 C 0.13495 0.25885 0.32264 0.0
C534 C 0.09348 0.3352 0.25012 0.0
C535 C 0.14988 0.15846 0.29197 0.0
C536 C 0.10969 0.11989 0.20735 0.0
C537 C 0.12456 0.14419 0.18528 0.0
C538 C 0.1083 0.15345 0.23539 0.0
C539 C 0.12259 0.21119 0.24166 0.0
C540 C 0.13801 0.23467 0.21965 0.0
C541 C 0.13858 0.2015 0.1916 0.0
C542 C 0.09129 0.12807 0.25808 0.0
C543 C 0.15397 0.29472 0.22573 0.0
H544 H 0.09918 0.39221 0.30521 0.0
H545 H 0.14529 0.24002 0.341 0.0
H546 H 0.10395 0.35233 0.23087 0.0
H547 H 0.08233 0.29255 0.24196 0.0
H548 H 0.0829 0.38018 0.25741 0.0
H549 H 0.15893 0.14535 0.31304 0.0
H550 H 0.13972 0.11231 0.28514 0.0
H551 H 0.16245 0.16782 0.274 0.0
H552 H 0.0987 0.07597 0.20238 0.0
H553 H 0.15022 0.22006 0.17463 0.0
H554 H 0.07976 0.17164 0.26416 0.0
H555 H 0.09991 0.11132 0.27895 0.0
H556 H 0.08114 0.08337 0.24952 0.0
H557 H 0.14435 0.34345 0.23032 0.0
H558 H 0.16552 0.30472 0.2066 0.0
H559 H 0.16419 0.28323 0.24599 0.0
C560 C 0.36441 0.69941 0.31509 0.0
C561 C 0.37827 0.64089 0.31983 0.0
C562 C 0.36472 0.73575 0.28775 0.0
C563 C 0.37979 0.71439 0.26493 0.0
C564 C 0.3941 0.65592 0.26975 0.0
C565 C 0.3929 0.61903 0.29704 0.0
C566 C 0.34869 0.79642 0.28318 0.0
C567 C 0.41083 0.6329 0.24624 0.0
C568 C 0.36613 0.76614 0.18479 0.0
C569 C 0.37871 0.82791 0.18133 0.0
C570 C 0.36638 0.72861 0.21184 0.0
C571 C 0.38006 0.75236 0.23577 0.0
C572 C 0.39321 0.81387 0.2322 0.0
C573 C 0.39211 0.85161 0.20513 0.0
C574 C 0.35161 0.66449 0.21504 0.0
C575 C 0.40844 0.83973 0.25695 0.0
H576 H 0.35297 0.71609 0.33266 0.0
H577 H 0.40378 0.5742 0.30083 0.0
H578 H 0.35825 0.84541 0.27886 0.0
H579 H 0.338 0.78654 0.2632 0.0
H580 H 0.3376 0.80503 0.3029 0.0
H581 H 0.42148 0.58856 0.25404 0.0
H582 H 0.40188 0.61645 0.22557 0.0
H583 H 0.4219 0.67757 0.24008 0.0
H584 H 0.35564 0.7479 0.16648 0.0
H585 H 0.40202 0.89897 0.20239 0.0
H586 H 0.3396 0.67223 0.23381 0.0
H587 H 0.36197 0.61782 0.22056 0.0
H588 H 0.34191 0.65315 0.19429 0.0
H589 H 0.39827 0.85526 0.27673 0.0
H590 H 0.41873 0.88551 0.24986 0.0
H591 H 0.41987 0.79694 0.26425 0.0
C592 C 0.89636 0.79791 0.8158 0.0
C593 C 0.88174 0.85518 0.81878 0.0
C594 C 0.89735 0.75944 0.78901 0.0
C595 C 0.88265 0.77692 0.76516 0.0
C596 C 0.86785 0.83491 0.76811 0.0
C597 C 0.86789 0.8743 0.79476 0.0
C598 C 0.91401 0.69988 0.78631 0.0
C599 C 0.85142 0.85379 0.74355 0.0
C600 C 0.89416 0.71633 0.68551 0.0
C601 C 0.88103 0.65539 0.68376 0.0
C602 C 0.89544 0.75512 0.7122 0.0
C603 C 0.88253 0.73393 0.7373 0.0
C604 C 0.86924 0.67221 0.73562 0.0
C605 C 0.86899 0.63284 0.70896 0.0
C606 C 0.91049 0.81895 0.71344 0.0
C607 C 0.85471 0.64913 0.76161 0.0
H608 H 0.90708 0.78341 0.83449 0.0
H609 H 0.85639 0.9181 0.79735 0.0
H610 H 0.90494 0.64919 0.78438 0.0
H611 H 0.92424 0.70625 0.76566 0.0
H612 H 0.92549 0.69693 0.80593 0.0
H613 H 0.84067 0.89932 0.74968 0.0
H614 H 0.86059 0.86662 0.72259 0.0
H615 H 0.84042 0.80812 0.73865 0.0
H616 H 0.90353 0.73348 0.66595 0.0
H617 H 0.85863 0.58612 0.70739 0.0
H618 H 0.9219 0.81547 0.7331 0.0
H619 H 0.90018 0.86703 0.71626 0.0
H620 H 0.92082 0.82485 0.69282 0.0
H621 H 0.86525 0.63887 0.78165 0.0
H622 H 0.84495 0.60088 0.75641 0.0
H623 H 0.84277 0.69172 0.7676 0.0
C624 C 0.63705 0.22419 0.82153 0.0
C625 C 0.62429 0.16276 0.82507 0.0
C626 C 0.63687 0.26163 0.79446 0.0
C627 C 0.62314 0.23812 0.77057 0.0
C628 C 0.60984 0.1769 0.77419 0.0
C629 C 0.61083 0.13927 0.80131 0.0
C630 C 0.65177 0.32548 0.79124 0.0
C631 C 0.59457 0.15127 0.74945 0.0
C632 C 0.61033 0.37008 0.70868 0.0
C633 C 0.62489 0.34744 0.68593 0.0
C634 C 0.60926 0.33424 0.73625 0.0
C635 C 0.62355 0.27584 0.74134 0.0
C636 C 0.63863 0.25393 0.71863 0.0
C637 C 0.63889 0.28939 0.69108 0.0
C638 C 0.59261 0.35809 0.75971 0.0
C639 C 0.6546 0.19326 0.72346 0.0
H640 H 0.64758 0.24233 0.83982 0.0
H641 H 0.60077 0.09223 0.80411 0.0
H642 H 0.66381 0.31739 0.77252 0.0
H643 H 0.6415 0.37228 0.7856 0.0
H644 H 0.66144 0.3368 0.81201 0.0
H645 H 0.58425 0.10552 0.75652 0.0
H646 H 0.58316 0.19419 0.74223 0.0
H647 H 0.60471 0.13582 0.72963 0.0
H648 H 0.59935 0.41453 0.70462 0.0
H649 H 0.65028 0.27205 0.67358 0.0
H650 H 0.6016 0.37397 0.78044 0.0
H651 H 0.58129 0.31398 0.76578 0.0
H652 H 0.58222 0.40301 0.75191 0.0
H653 H 0.66526 0.20339 0.74345 0.0
H654 H 0.66573 0.18423 0.70381 0.0
H655 H 0.645 0.14442 0.72789 0.0
C656 C 0.10137 0.66796 0.09564 0.0
C657 C 0.11911 0.71615 0.09571 0.0
C658 C 0.10439 0.59993 0.08431 0.0
C659 C 0.12581 0.57952 0.07349 0.0
C660 C 0.14358 0.62886 0.07263 0.0
C661 C 0.14 0.69676 0.08378 0.0
C662 C 0.08498 0.54887 0.08534 0.0
C663 C 0.16676 0.60874 0.06179 0.0
C664 C 0.13925 0.38862 0.08706 0.0
C665 C 0.13618 0.35925 0.05853 0.0
C666 C 0.13667 0.4606 0.09185 0.0
C667 C 0.13044 0.50429 0.06757 0.0
C668 C 0.12788 0.47538 0.03845 0.0
C669 C 0.13102 0.40281 0.03418 0.0
C670 C 0.14003 0.48947 0.12314 0.0
C671 C 0.12103 0.52057 0.01218 0.0
H672 H 0.08519 0.68328 0.10476 0.0
H673 H 0.15387 0.73361 0.08441 0.0
H674 H 0.08328 0.52118 0.06355 0.0
H675 H 0.08821 0.50852 0.10278 0.0
H676 H 0.0688 0.57534 0.09062 0.0
H677 H 0.1778 0.65529 0.05876 0.0
H678 H 0.17473 0.57312 0.07839 0.0
H679 H 0.16575 0.5799 0.04021 0.0
H680 H 0.14354 0.35494 0.10585 0.0
H681 H 0.12856 0.37983 0.01217 0.0
H682 H 0.12391 0.51069 0.1318 0.0
H683 H 0.15229 0.53339 0.12272 0.0
H684 H 0.14619 0.44893 0.13908 0.0
H685 H 0.10376 0.5409 0.01588 0.0
H686 H 0.12133 0.49112 0.99066 0.0
H687 H 0.13232 0.56671 0.01025 0.0
C688 C 0.37365 0.33198 0.13153 0.0
C689 C 0.38046 0.27887 0.11175 0.0
C690 C 0.37101 0.40141 0.12162 0.0
C691 C 0.37512 0.41795 0.09112 0.0
C692 C 0.38239 0.36491 0.07116 0.0
C693 C 0.38535 0.29623 0.08185 0.0
C694 C 0.36368 0.45698 0.14377 0.0
C695 C 0.38692 0.38061 0.03849 0.0
C696 C 0.34677 0.5859 0.06564 0.0
C697 C 0.36436 0.63445 0.0684 0.0
C698 C 0.35037 0.51423 0.07123 0.0
C699 C 0.37193 0.4911 0.08039 0.0
C700 C 0.39001 0.5393 0.08164 0.0
C701 C 0.38605 0.61033 0.0753 0.0
C702 C 0.33083 0.46392 0.06885 0.0
C703 C 0.41318 0.51688 0.09171 0.0
H704 H 0.37007 0.31907 0.15474 0.0
H705 H 0.39176 0.25657 0.06676 0.0
H706 H 0.3761 0.50047 0.14421 0.0
H707 H 0.34734 0.47969 0.13669 0.0
H708 H 0.36185 0.43586 0.16688 0.0
H709 H 0.39184 0.33293 0.0257 0.0
H710 H 0.37171 0.40362 0.02795 0.0
H711 H 0.40057 0.42003 0.03648 0.0
H712 H 0.33002 0.60424 0.06009 0.0
H713 H 0.39973 0.64758 0.07759 0.0
H714 H 0.32597 0.4457 0.0916 0.0
H715 H 0.33571 0.41686 0.05568 0.0
H716 H 0.31592 0.48855 0.05813 0.0
H717 H 0.41266 0.50256 0.11584 0.0
H718 H 0.42586 0.55912 0.08862 0.0
H719 H 0.41878 0.4697 0.07918 0.0
C720 C 0.15513 0.07773 0.43808 0.0
C721 C 0.13754 0.12662 0.43708 0.0
C722 C 0.15112 0.00625 0.43262 0.0
C723 C 0.1291 0.98369 0.42536 0.0
C724 C 0.1111 0.03226 0.42578 0.0
C725 C 0.1155 0.10309 0.43199 0.0
C726 C 0.17062 0.95548 0.43319 0.0
C727 C 0.08744 0.01049 0.41767 0.0
C728 C 0.12498 0.82405 0.37482 0.0
C729 C 0.11914 0.77115 0.39526 0.0
C730 C 0.12793 0.89367 0.38428 0.0
C731 C 0.12522 0.9106 0.41501 0.0
C732 C 0.11883 0.85787 0.43565 0.0
C733 C 0.11542 0.78905 0.4254 0.0
C734 C 0.13418 0.94899 0.36144 0.0
C735 C 0.11583 0.87396 0.4686 0.0
H736 H 0.17215 0.09567 0.44219 0.0
H737 H 0.10182 0.14066 0.43103 0.0
H738 H 0.16634 0.90859 0.44684 0.0
H739 H 0.17422 0.93705 0.41006 0.0
H740 H 0.18612 0.97977 0.44245 0.0
H741 H 0.07504 0.05301 0.42187 0.0
H742 H 0.08678 -0.00367 0.39353 0.0
H743 H 0.08233 0.96336 0.4306 0.0
H744 H 0.12761 0.81081 0.35142 0.0
H745 H 0.10966 0.74971 0.44108 0.0
H746 H 0.15093 0.97119 0.36687 0.0
H747 H 0.1219 0.99287 0.36217 0.0
H748 H 0.13468 0.92775 0.33823 0.0
H749 H 0.1316 0.89637 0.47785 0.0
H750 H 0.11131 0.82657 0.48185 0.0
H751 H 0.10247 0.91397 0.47166 0.0
C752 C 0.38575 0.86314 0.42772 0.0
C753 C 0.36362 0.83809 0.42986 0.0
C754 C 0.39008 0.93407 0.42163 0.0
C755 C 0.37184 0.98106 0.41818 0.0
C756 C 0.34954 0.95709 0.42252 0.0
C757 C 0.34568 0.88563 0.42809 0.0
C758 C 0.41408 0.95758 0.41691 0.0
C759 C 0.32971 0.0062 0.41974 0.0
C760 C 0.38287 0.17706 0.41851 0.0
C761 C 0.38135 0.19306 0.38788 0.0
C762 C 0.37979 0.1082 0.4288 0.0
C763 C 0.37591 0.05393 0.40778 0.0
C764 C 0.37555 0.06929 0.37667 0.0
C765 C 0.37825 0.13894 0.36708 0.0
C766 C 0.38027 0.09378 0.46212 0.0
C767 C 0.37196 0.01236 0.35355 0.0
H768 H 0.39971 0.82665 0.429 0.0
H769 H 0.32856 0.86658 0.42996 0.0
H770 H 0.41669 0.97037 0.39286 0.0
H771 H 0.41763 0.00592 0.42995 0.0
H772 H 0.42639 0.91648 0.42348 0.0
H773 H 0.31372 0.98099 0.42683 0.0
H774 H 0.33243 0.05397 0.43354 0.0
H775 H 0.32794 0.02341 0.39606 0.0
H776 H 0.38638 0.21855 0.43449 0.0
H777 H 0.37752 0.15132 0.34334 0.0
H778 H 0.39336 0.05414 0.46738 0.0
H779 H 0.3639 0.07156 0.46935 0.0
H780 H 0.38368 0.14191 0.47546 0.0
H781 H 0.38461 0.97009 0.35652 0.0
H782 H 0.37316 0.03263 0.33022 0.0
H783 H 0.35513 0.98831 0.35666 0.0
C784 C 0.84814 0.6104 0.93125 0.0
C785 C 0.86625 0.6575 0.93141 0.0
C786 C 0.85154 0.53888 0.92534 0.0
C787 C 0.87351 0.51433 0.9191 0.0
C788 C 0.89201 0.56074 0.92113 0.0
C789 C 0.88817 0.63182 0.92752 0.0
C790 C 0.83146 0.49042 0.92406 0.0
C791 C 0.91569 0.53653 0.9145 0.0
C792 C 0.88363 0.31787 0.91756 0.0
C793 C 0.8808 0.30297 0.88699 0.0
C794 C 0.88134 0.38653 0.92843 0.0
C795 C 0.87683 0.44164 0.90804 0.0
C796 C 0.87507 0.42729 0.87691 0.0
C797 C 0.87708 0.35788 0.86675 0.0
C798 C 0.8834 0.3999 0.96172 0.0
C799 C 0.8707 0.48509 0.85442 0.0
H800 H 0.83119 0.6299 0.93452 0.0
H801 H 0.90227 0.66792 0.9276 0.0
H802 H 0.82851 0.47389 0.90051 0.0
H803 H 0.83467 0.44223 0.93739 0.0
H804 H 0.81592 0.51595 0.9326 0.0
H805 H 0.92841 0.5769 0.92047 0.0
H806 H 0.91958 0.48749 0.92688 0.0
H807 H 0.91726 0.52476 0.8902 0.0
H808 H 0.88757 0.27568 0.93302 0.0
H809 H 0.87533 0.3463 0.84304 0.0
H810 H 0.86746 0.42243 0.97039 0.0
H811 H 0.89684 0.43894 0.9661 0.0
H812 H 0.88723 0.35125 0.97451 0.0
H813 H 0.85418 0.50992 0.85908 0.0
H814 H 0.87068 0.46547 0.83095 0.0
H815 H 0.8837 0.5266 0.85652 0.0
C816 C 0.62328 0.65841 0.87048 0.0
C817 C 0.62019 0.71201 0.89154 0.0
C818 C 0.62618 0.58855 0.87973 0.0
C819 C 0.62606 0.5724 0.91078 0.0
C820 C 0.62216 0.62612 0.93206 0.0
C821 C 0.61884 0.69516 0.92211 0.0
C822 C 0.62972 0.53223 0.85633 0.0
C823 C 0.62196 0.61093 0.96533 0.0
C824 C 0.6169 0.38122 0.93093 0.0
C825 C 0.63911 0.35676 0.93291 0.0
C826 C 0.61234 0.45194 0.92463 0.0
C827 C 0.63042 0.49939 0.92086 0.0
C828 C 0.65281 0.47596 0.92487 0.0
C829 C 0.65691 0.40466 0.93058 0.0
C830 C 0.58825 0.47477 0.92015 0.0
C831 C 0.67249 0.52554 0.92176 0.0
H832 H 0.62388 0.67137 0.84679 0.0
H833 H 0.61529 0.73616 0.93831 0.0
H834 H 0.64667 0.50869 0.85902 0.0
H835 H 0.61726 0.48945 0.85937 0.0
H836 H 0.6282 0.55296 0.83311 0.0
H837 H 0.61856 0.65869 0.97891 0.0
H838 H 0.60899 0.57093 0.9706 0.0
H839 H 0.63844 0.58887 0.97223 0.0
H840 H 0.60305 0.34438 0.93254 0.0
H841 H 0.67409 0.38601 0.93227 0.0
H842 H 0.58551 0.48812 0.89618 0.0
H843 H 0.58458 0.52267 0.93344 0.0
H844 H 0.57608 0.43314 0.92661 0.0
H845 H 0.67392 0.54314 0.8981 0.0
H846 H 0.68862 0.50061 0.92843 0.0
H847 H 0.66982 0.57304 0.93575 0.0
C848 C 0.84607 0.89877 0.57301 0.0
C849 C 0.86412 0.85149 0.57231 0.0
C850 C 0.84962 0.97024 0.57888 0.0
C851 C 0.8717 0.99455 0.58456 0.0
C852 C 0.89012 0.9479 0.58208 0.0
C853 C 0.88612 0.8769 0.57572 0.0
C854 C 0.82961 0.01893 0.58066 0.0
C855 C 0.9139 0.9718 0.58816 0.0
C856 C 0.88206 0.19095 0.58553 0.0
C857 C 0.87962 0.20622 0.61612 0.0
C858 C 0.87956 0.12219 0.57484 0.0
C859 C 0.87526 0.06731 0.59543 0.0
C860 C 0.87392 0.08201 0.62656 0.0
C861 C 0.87611 0.15152 0.63654 0.0
C862 C 0.88116 0.10846 0.54153 0.0
C863 C 0.86981 0.02447 0.64926 0.0
H864 H 0.82905 0.87946 0.57015 0.0
H865 H 0.90017 0.84062 0.57526 0.0
H866 H 0.82705 0.03568 0.60427 0.0
H867 H 0.83267 0.06698 0.56718 0.0
H868 H 0.81392 0.99353 0.57259 0.0
H869 H 0.9265 0.93122 0.58195 0.0
H870 H 0.91771 0.02071 0.57563 0.0
H871 H 0.9158 0.98369 0.61241 0.0
H872 H 0.88587 0.23291 0.56989 0.0
H873 H 0.87466 0.16334 0.66027 0.0
H874 H 0.86509 0.08596 0.53329 0.0
H875 H 0.89452 0.06928 0.53689 0.0
H876 H 0.88485 0.15695 0.52856 0.0
H877 H 0.85319 -0.00017 0.64508 0.0
H878 H 0.87015 0.04431 0.6727 0.0
H879 H 0.88272 0.98276 0.6469 0.0
C880 C 0.60052 0.82814 0.59999 0.0
C881 C 0.61844 0.78058 0.59983 0.0
C882 C 0.60315 0.89614 0.58843 0.0
C883 C 0.62437 0.9172 0.57713 0.0
C884 C 0.64235 0.86859 0.5762 0.0
C885 C 0.63915 0.80069 0.58756 0.0
C886 C 0.58352 0.94638 0.58954 0.0
C887 C 0.66534 0.88947 0.5649 0.0
C888 C 0.62866 0.09201 0.536 0.0
C889 C 0.63401 0.13702 0.55979 0.0
C890 C 0.62565 0.01965 0.54109 0.0
C891 C 0.62855 0.99238 0.57045 0.0
C892 C 0.63487 0.03755 0.59418 0.0
C893 C 0.63731 0.10928 0.58859 0.0
C894 C 0.61867 0.97288 0.51541 0.0
C895 C 0.6386 0.01046 0.62569 0.0
H896 H 0.58448 0.81226 0.60937 0.0
H897 H 0.65316 0.7643 0.58799 0.0
H898 H 0.5868 0.98762 0.60658 0.0
H899 H 0.5814 0.97306 0.56758 0.0
H900 H 0.56754 0.91945 0.59541 0.0
H901 H 0.67667 0.84346 0.56227 0.0
H902 H 0.664 0.91689 0.54302 0.0
H903 H 0.67317 0.92662 0.58099 0.0
H904 H 0.62602 0.11366 0.51378 0.0
H905 H 0.64176 0.144 0.60695 0.0
H906 H 0.60164 0.95141 0.51982 0.0
H907 H 0.63029 0.92753 0.51347 0.0
H908 H 0.61836 0.0014 0.49366 0.0
H909 H 0.62265 0.9889 0.63476 0.0
H910 H 0.64466 0.05209 0.64117 0.0
H911 H 0.65107 0.96712 0.62551 0.0
loop_
_geom_bond_atom_site_label_1
_geom_bond_atom_site_label_2
_geom_bond_distance
_geom_bond_site_symmetry_2
_ccdc_geom_bond_type
Co0 O3 1.970 . S
Co0 N17 1.989 . S
Co0 O25 1.967 . S
Co0 O32 1.920 . S
Co1 O4 1.966 1_565 S
Co1 N10 2.022 . S
Co1 N18 1.993 1_565 S
Co1 O26 1.941 1_565 S
C2 O3 1.258 . S
C2 O4 1.263 . S
O3 Co0 1.970 . S
O3 C2 1.258 . S
O4 Co1 1.966 1_545 S
O4 C2 1.263 . S
C5 O6 1.235 . S
C5 O32 1.289 . S
O6 C5 1.235 . S
C7 C9 1.400 . S
C7 N10 1.351 . S
C7 C12 1.501 . S
C8 C9 1.387 . S
C8 N11 1.341 . S
C9 C7 1.400 . S
C9 C8 1.387 . S
N10 Co1 2.022 . S
N10 C7 1.351 . S
N10 N11 1.365 . S
N11 C8 1.341 . S
N11 N10 1.365 . S
N11 H31 0.862 . S
C12 C7 1.501 . S
C12 H13 0.961 . S
C12 H14 0.961 . S
C12 H15 0.960 . S
H13 C12 0.961 . S
H14 C12 0.961 . S
H15 C12 0.960 . S
C16 N17 1.342 . S
C16 C20 1.401 . S
C16 C21 1.499 . S
N17 Co0 1.989 . S
N17 C16 1.342 . S
N17 N18 1.388 . S
N18 Co1 1.993 1_545 S
N18 N17 1.388 . S
N18 C19 1.346 1_545 S
C19 N18 1.346 1_565 S
C19 C20 1.396 1_565 S
C19 C29 1.510 . S
C20 C16 1.401 . S
C20 C19 1.396 1_545 S
C21 C16 1.499 . S
C21 H22 0.959 . S
C21 H23 0.960 . S
C21 H24 0.961 . S
H22 C21 0.959 . S
H23 C21 0.960 . S
H24 C21 0.961 . S
O25 Co0 1.967 . S
O25 C33 1.258 . S
O26 Co1 1.941 1_545 S
O26 C33 1.266 . S
H27 C29 0.959 . S
H28 C29 0.961 . S
C29 C19 1.510 . S
C29 H27 0.959 . S
C29 H28 0.961 . S
C29 H30 0.960 . S
H30 C29 0.960 . S
H31 N11 0.862 . S
O32 Co0 1.920 . S
O32 C5 1.289 . S
C33 O25 1.258 . S
C33 O26 1.266 . S
Co34 O37 1.970 . S
Co34 N51 1.989 . S
Co34 O59 1.967 . S
Co34 O66 1.920 . S
Co35 O38 1.966 1_545 S
Co35 N44 2.022 . S
Co35 N52 1.993 1_545 S
Co35 O60 1.941 1_545 S
C36 O37 1.258 . S
C36 O38 1.263 . S
O37 Co34 1.970 . S
O37 C36 1.258 . S
O38 Co35 1.966 1_565 S
O38 C36 1.263 . S
C39 O40 1.235 . S
C39 O66 1.289 . S
O40 C39 1.235 . S
C41 C43 1.400 . S
C41 N44 1.351 . S
C41 C46 1.501 . S
C42 C43 1.387 . S
C42 N45 1.341 . S
C43 C41 1.400 . S
C43 C42 1.387 . S
N44 Co35 2.022 . S
N44 C41 1.351 . S
N44 N45 1.365 . S
N45 C42 1.341 . S
N45 N44 1.365 . S
N45 H65 0.862 . S
C46 C41 1.501 . S
C46 H47 0.961 . S
C46 H48 0.961 . S
C46 H49 0.960 . S
H47 C46 0.961 . S
H48 C46 0.961 . S
H49 C46 0.960 . S
C50 N51 1.342 . S
C50 C54 1.401 . S
C50 C55 1.499 . S
N51 Co34 1.989 . S
N51 C50 1.342 . S
N51 N52 1.388 . S
N52 Co35 1.993 1_565 S
N52 N51 1.388 . S
N52 C53 1.346 1_565 S
C53 N52 1.346 1_545 S
C53 C54 1.396 1_545 S
C53 C63 1.510 . S
C54 C50 1.401 . S
C54 C53 1.396 1_565 S
C55 C50 1.499 . S
C55 H56 0.959 . S
C55 H57 0.960 . S
C55 H58 0.961 . S
H56 C55 0.959 . S
H57 C55 0.960 . S
H58 C55 0.961 . S
O59 Co34 1.967 . S
O59 C67 1.258 . S
O60 Co35 1.941 1_565 S
O60 C67 1.266 . S
H61 C63 0.959 . S
H62 C63 0.961 . S
C63 C53 1.510 . S
C63 H61 0.959 . S
C63 H62 0.961 . S
C63 H64 0.960 . S
H64 C63 0.960 . S
H65 N45 0.862 . S
O66 Co34 1.920 . S
O66 C39 1.289 . S
C67 O59 1.258 . S
C67 O60 1.266 . S
Co68 O71 1.970 . S
Co68 N85 1.989 . S
Co68 O93 1.967 . S
Co68 O100 1.920 . S
Co69 O72 1.966 . S
Co69 N78 2.022 . S
Co69 N86 1.993 . S
Co69 O94 1.941 . S
C70 O71 1.258 . S
C70 O72 1.263 . S
O71 Co68 1.970 . S
O71 C70 1.258 . S
O72 Co69 1.966 . S
O72 C70 1.263 . S
C73 O74 1.235 . S
C73 O100 1.289 . S
O74 C73 1.235 . S
C75 C77 1.400 . S
C75 N78 1.351 . S
C75 C80 1.501 . S
C76 C77 1.387 . S
C76 N79 1.341 . S
C77 C75 1.400 . S
C77 C76 1.387 . S
N78 Co69 2.022 . S
N78 C75 1.351 . S
N78 N79 1.365 . S
N79 C76 1.341 . S
N79 N78 1.365 . S
N79 H99 0.862 . S
C80 C75 1.501 . S
C80 H81 0.961 . S
C80 H82 0.961 . S
C80 H83 0.960 . S
H81 C80 0.961 . S
H82 C80 0.961 . S
H83 C80 0.960 . S
C84 N85 1.342 . S
C84 C88 1.401 . S
C84 C89 1.499 . S
N85 Co68 1.989 . S
N85 C84 1.342 . S
N85 N86 1.388 . S
N86 Co69 1.993 . S
N86 N85 1.388 . S
N86 C87 1.346 . S
C87 N86 1.346 . S
C87 C88 1.396 . S
C87 C97 1.510 . S
C88 C84 1.401 . S
C88 C87 1.396 . S
C89 C84 1.499 . S
C89 H90 0.959 . S
C89 H91 0.960 . S
C89 H92 0.961 . S
H90 C89 0.959 . S
H91 C89 0.960 . S
H92 C89 0.961 . S
O93 Co68 1.967 . S
O93 C101 1.258 . S
O94 Co69 1.941 . S
O94 C101 1.266 . S
H95 C97 0.959 . S
H96 C97 0.961 . S
C97 C87 1.510 . S
C97 H95 0.959 . S
C97 H96 0.961 . S
C97 H98 0.960 . S
H98 C97 0.960 . S
H99 N79 0.862 . S
O100 Co68 1.920 . S
O100 C73 1.289 . S
C101 O93 1.258 . S
C101 O94 1.266 . S
Co102 O105 1.970 . S
Co102 N119 1.989 . S
Co102 O127 1.967 . S
Co102 O134 1.920 . S
Co103 O106 1.966 . S
Co103 N112 2.022 . S
Co103 N120 1.993 . S
Co103 O128 1.941 . S
C104 O105 1.258 . S
C104 O106 1.263 . S
O105 Co102 1.970 . S
O105 C104 1.258 . S
O106 Co103 1.966 . S
O106 C104 1.263 . S
C107 O108 1.235 . S
C107 O134 1.289 . S
O108 C107 1.235 . S
C109 C111 1.400 . S
C109 N112 1.351 . S
C109 C114 1.501 . S
C110 C111 1.387 . S
C110 N113 1.341 . S
C111 C109 1.400 . S
C111 C110 1.387 . S
N112 Co103 2.022 . S
N112 C109 1.351 . S
N112 N113 1.365 . S
N113 C110 1.341 . S
N113 N112 1.365 . S
N113 H133 0.862 . S
C114 C109 1.501 . S
C114 H115 0.961 . S
C114 H116 0.961 . S
C114 H117 0.960 . S
H115 C114 0.961 . S
H116 C114 0.961 . S
H117 C114 0.960 . S
C118 N119 1.342 . S
C118 C122 1.401 . S
C118 C123 1.499 . S
N119 Co102 1.989 . S
N119 C118 1.342 . S
N119 N120 1.388 . S
N120 Co103 1.993 . S
N120 N119 1.388 . S
N120 C121 1.346 . S
C121 N120 1.346 . S
C121 C122 1.396 . S
C121 C131 1.510 . S
C122 C118 1.401 . S
C122 C121 1.396 . S
C123 C118 1.499 . S
C123 H124 0.959 . S
C123 H125 0.960 . S
C123 H126 0.961 . S
H124 C123 0.959 . S
H125 C123 0.960 . S
H126 C123 0.961 . S
O127 Co102 1.967 . S
O127 C135 1.258 . S
O128 Co103 1.941 . S
O128 C135 1.266 . S
H129 C131 0.959 . S
H130 C131 0.961 . S
C131 C121 1.510 . S
C131 H129 0.959 . S
C131 H130 0.961 . S
C131 H132 0.960 . S
H132 C131 0.960 . S
H133 N113 0.862 . S
O134 Co102 1.920 . S
O134 C107 1.289 . S
C135 O127 1.258 . S
C135 O128 1.266 . S
Co136 O139 1.970 . S
Co136 N153 1.989 . S
Co136 O161 1.967 . S
Co136 O168 1.920 . S
Co137 O140 1.966 1_545 S
Co137 N146 2.022 . S
Co137 N154 1.993 1_545 S
Co137 O162 1.941 1_545 S
C138 O139 1.258 . S
C138 O140 1.263 . S
O139 Co136 1.970 . S
O139 C138 1.258 . S
O140 Co137 1.966 1_565 S
O140 C138 1.263 . S
C141 O142 1.235 . S
C141 O168 1.289 . S
O142 C141 1.235 . S
C143 C145 1.400 . S
C143 N146 1.351 . S
C143 C148 1.501 . S
C144 C145 1.387 . S
C144 N147 1.341 . S
C145 C143 1.400 . S
C145 C144 1.387 . S
N146 Co137 2.022 . S
N146 C143 1.351 . S
N146 N147 1.365 . S
N147 C144 1.341 . S
N147 N146 1.365 . S
N147 H167 0.862 . S
C148 C143 1.501 . S
C148 H149 0.961 . S
C148 H150 0.961 . S
C148 H151 0.960 . S
H149 C148 0.961 . S
H150 C148 0.961 . S
H151 C148 0.960 . S
C152 N153 1.342 . S
C152 C156 1.401 . S
C152 C157 1.499 . S
N153 Co136 1.989 . S
N153 C152 1.342 . S
N153 N154 1.388 . S
N154 Co137 1.993 1_565 S
N154 N153 1.388 . S
N154 C155 1.346 1_565 S
C155 N154 1.346 1_545 S
C155 C156 1.396 1_545 S
C155 C165 1.510 . S
C156 C152 1.401 . S
C156 C155 1.396 1_565 S
C157 C152 1.499 . S
C157 H158 0.959 . S
C157 H159 0.960 . S
C157 H160 0.961 . S
H158 C157 0.959 . S
H159 C157 0.960 . S
H160 C157 0.961 . S
O161 Co136 1.967 . S
O161 C169 1.258 . S
O162 Co137 1.941 1_565 S
O162 C169 1.266 . S
H163 C165 0.959 . S
H164 C165 0.961 . S
C165 C155 1.510 . S
C165 H163 0.959 . S
C165 H164 0.961 . S
C165 H166 0.960 . S
H166 C165 0.960 . S
H167 N147 0.862 . S
O168 Co136 1.920 . S
O168 C141 1.289 . S
C169 O161 1.258 . S
C169 O162 1.266 . S
Co170 O173 1.970 . S
Co170 N187 1.989 . S
Co170 O195 1.967 . S
Co170 O202 1.920 . S
Co171 O174 1.966 1_565 S
Co171 N180 2.022 . S
Co171 N188 1.993 1_565 S
Co171 O196 1.941 1_565 S
C172 O173 1.258 . S
C172 O174 1.263 . S
O173 Co170 1.970 . S
O173 C172 1.258 . S
O174 Co171 1.966 1_545 S
O174 C172 1.263 . S
C175 O176 1.235 . S
C175 O202 1.289 . S
O176 C175 1.235 . S
C177 C179 1.400 . S
C177 N180 1.351 . S
C177 C182 1.501 . S
C178 C179 1.387 . S
C178 N181 1.341 . S
C179 C177 1.400 . S
C179 C178 1.387 . S
N180 Co171 2.022 . S
N180 C177 1.351 . S
N180 N181 1.365 . S
N181 C178 1.341 . S
N181 N180 1.365 . S
N181 H201 0.862 . S
C182 C177 1.501 . S
C182 H183 0.961 . S
C182 H184 0.961 . S
C182 H185 0.960 . S
H183 C182 0.961 . S
H184 C182 0.961 . S
H185 C182 0.960 . S
C186 N187 1.342 . S
C186 C190 1.401 . S
C186 C191 1.499 . S
N187 Co170 1.989 . S
N187 C186 1.342 . S
N187 N188 1.388 . S
N188 Co171 1.993 1_545 S
N188 N187 1.388 . S
N188 C189 1.346 1_545 S
C189 N188 1.346 1_565 S
C189 C190 1.396 1_565 S
C189 C199 1.510 . S
C190 C186 1.401 . S
C190 C189 1.396 1_545 S
C191 C186 1.499 . S
C191 H192 0.959 . S
C191 H193 0.960 . S
C191 H194 0.961 . S
H192 C191 0.959 . S
H193 C191 0.960 . S
H194 C191 0.961 . S
O195 Co170 1.967 . S
O195 C203 1.258 . S
O196 Co171 1.941 1_545 S
O196 C203 1.266 . S
H197 C199 0.959 . S
H198 C199 0.961 . S
C199 C189 1.510 . S
C199 H197 0.959 . S
C199 H198 0.961 . S
C199 H200 0.960 . S
H200 C199 0.960 . S
H201 N181 0.862 . S
O202 Co170 1.920 . S
O202 C175 1.289 . S
C203 O195 1.258 . S
C203 O196 1.266 . S
Co204 O207 1.970 . S
Co204 N221 1.989 . S
Co204 O229 1.967 . S
Co204 O236 1.920 . S
Co205 O208 1.966 . S
Co205 N214 2.022 . S
Co205 N222 1.993 . S
Co205 O230 1.941 . S
C206 O207 1.258 . S
C206 O208 1.263 . S
O207 Co204 1.970 . S
O207 C206 1.258 . S
O208 Co205 1.966 . S
O208 C206 1.263 . S
C209 O210 1.235 . S
C209 O236 1.289 . S
O210 C209 1.235 . S
C211 C213 1.400 . S
C211 N214 1.351 . S
C211 C216 1.501 . S
C212 C213 1.387 . S
C212 N215 1.341 . S
C213 C211 1.400 . S
C213 C212 1.387 . S
N214 Co205 2.022 . S
N214 C211 1.351 . S
N214 N215 1.365 . S
N215 C212 1.341 . S
N215 N214 1.365 . S
N215 H235 0.862 . S
C216 C211 1.501 . S
C216 H217 0.961 . S
C216 H218 0.961 . S
C216 H219 0.960 . S
H217 C216 0.961 . S
H218 C216 0.961 . S
H219 C216 0.960 . S
C220 N221 1.342 . S
C220 C224 1.401 . S
C220 C225 1.499 . S
N221 Co204 1.989 . S
N221 C220 1.342 . S
N221 N222 1.388 . S
N222 Co205 1.993 . S
N222 N221 1.388 . S
N222 C223 1.346 . S
C223 N222 1.346 . S
C223 C224 1.396 . S
C223 C233 1.510 . S
C224 C220 1.401 . S
C224 C223 1.396 . S
C225 C220 1.499 . S
C225 H226 0.959 . S
C225 H227 0.960 . S
C225 H228 0.961 . S
H226 C225 0.959 . S
H227 C225 0.960 . S
H228 C225 0.961 . S
O229 Co204 1.967 . S
O229 C237 1.258 . S
O230 Co205 1.941 . S
O230 C237 1.266 . S
H231 C233 0.959 . S
H232 C233 0.961 . S
C233 C223 1.510 . S
C233 H231 0.959 . S
C233 H232 0.961 . S
C233 H234 0.960 . S
H234 C233 0.960 . S
H235 N215 0.862 . S
O236 Co204 1.920 . S
O236 C209 1.289 . S
C237 O229 1.258 . S
C237 O230 1.266 . S
Co238 O241 1.970 . S
Co238 N255 1.989 . S
Co238 O263 1.967 . S
Co238 O270 1.920 . S
Co239 O242 1.966 . S
Co239 N248 2.022 . S
Co239 N256 1.993 . S
Co239 O264 1.941 . S
C240 O241 1.258 . S
C240 O242 1.263 . S
O241 Co238 1.970 . S
O241 C240 1.258 . S
O242 Co239 1.966 . S
O242 C240 1.263 . S
C243 O244 1.235 . S
C243 O270 1.289 . S
O244 C243 1.235 . S
C245 C247 1.400 . S
C245 N248 1.351 . S
C245 C250 1.501 . S
C246 C247 1.387 . S
C246 N249 1.341 . S
C247 C245 1.400 . S
C247 C246 1.387 . S
N248 Co239 2.022 . S
N248 C245 1.351 . S
N248 N249 1.365 . S
N249 C246 1.341 . S
N249 N248 1.365 . S
N249 H269 0.862 . S
C250 C245 1.501 . S
C250 H251 0.961 . S
C250 H252 0.961 . S
C250 H253 0.960 . S
H251 C250 0.961 . S
H252 C250 0.961 . S
H253 C250 0.960 . S
C254 N255 1.342 . S
C254 C258 1.401 . S
C254 C259 1.499 . S
N255 Co238 1.989 . S
N255 C254 1.342 . S
N255 N256 1.388 . S
N256 Co239 1.993 . S
N256 N255 1.388 . S
N256 C257 1.346 . S
C257 N256 1.346 . S
C257 C258 1.396 . S
C257 C267 1.510 . S
C258 C254 1.401 . S
C258 C257 1.396 . S
C259 C254 1.499 . S
C259 H260 0.959 . S
C259 H261 0.960 . S
C259 H262 0.961 . S
H260 C259 0.959 . S
H261 C259 0.960 . S
H262 C259 0.961 . S
O263 Co238 1.967 . S
O263 C271 1.258 . S
O264 Co239 1.941 . S
O264 C271 1.266 . S
H265 C267 0.959 . S
H266 C267 0.961 . S
C267 C257 1.510 . S
C267 H265 0.959 . S
C267 H266 0.961 . S
C267 H268 0.960 . S
H268 C267 0.960 . S
H269 N249 0.862 . S
O270 Co238 1.920 . S
O270 C243 1.289 . S
C271 O263 1.258 . S
C271 O264 1.266 . S
C272 C273 1.391 . S
C272 C274 1.394 . S
C272 H288 0.931 . S
C273 C272 1.391 . S
C273 C277 1.376 1_545 S
C274 C272 1.394 . S
C274 C275 1.369 . S
C274 C278 1.531 . S
C275 C274 1.369 . S
C275 C276 1.410 1_545 S
C275 C283 1.503 1_545 S
C276 C275 1.410 1_565 S
C276 C277 1.392 . S
C276 C279 1.511 . S
C277 C273 1.376 1_565 S
C277 C276 1.392 . S
C277 H289 0.929 . S
C278 C274 1.531 . S
C278 H290 0.960 . S
C278 H291 0.962 . S
C278 H292 0.960 . S
C279 C276 1.511 . S
C279 H293 0.961 . S
C279 H294 0.961 . S
C279 H295 0.961 . S
C280 C281 1.370 . S
C280 C282 1.363 1_565 S
C280 H296 0.931 1_565 S
C281 C280 1.370 . S
C281 C285 1.408 . S
C282 C280 1.363 1_545 S
C282 C283 1.370 1_545 S
C282 C286 1.524 . S
C283 C275 1.503 1_565 S
C283 C282 1.370 1_565 S
C283 C284 1.403 . S
C284 C283 1.403 . S
C284 C285 1.404 . S
C284 C287 1.539 . S
C285 C281 1.408 . S
C285 C284 1.404 . S
C285 H297 0.930 . S
C286 C282 1.524 . S
C286 H298 0.956 . S
C286 H299 0.961 . S
C286 H300 0.961 . S
C287 C284 1.539 . S
C287 H301 0.958 . S
C287 H302 0.961 . S
C287 H303 0.960 . S
H288 C272 0.931 . S
H289 C277 0.929 . S
H290 C278 0.960 . S
H291 C278 0.962 . S
H292 C278 0.960 . S
H293 C279 0.961 . S
H294 C279 0.961 . S
H295 C279 0.961 . S
H296 C280 0.931 1_545 S
H297 C285 0.930 . S
H298 C286 0.956 . S
H299 C286 0.961 . S
H300 C286 0.961 . S
H301 C287 0.958 . S
H302 C287 0.961 . S
H303 C287 0.960 . S
C304 C305 1.391 . S
C304 C306 1.394 . S
C304 H320 0.931 . S
C305 C304 1.391 . S
C305 C309 1.376 . S
C306 C304 1.394 . S
C306 C307 1.369 . S
C306 C310 1.531 . S
C307 C306 1.369 . S
C307 C308 1.410 . S
C307 C315 1.503 . S
C308 C307 1.410 . S
C308 C309 1.392 . S
C308 C311 1.511 . S
C309 C305 1.376 . S
C309 C308 1.392 . S
C309 H321 0.929 . S
C310 C306 1.531 . S
C310 H322 0.960 . S
C310 H323 0.962 . S
C310 H324 0.960 . S
C311 C308 1.511 . S
C311 H325 0.961 . S
C311 H326 0.961 . S
C311 H327 0.961 . S
C312 C313 1.370 . S
C312 C314 1.363 . S
C312 H328 0.931 . S
C313 C312 1.370 . S
C313 C317 1.408 . S
C314 C312 1.363 . S
C314 C315 1.370 . S
C314 C318 1.524 . S
C315 C307 1.503 . S
C315 C314 1.370 . S
C315 C316 1.403 . S
C316 C315 1.403 . S
C316 C317 1.404 . S
C316 C319 1.539 . S
C317 C313 1.408 . S
C317 C316 1.404 . S
C317 H329 0.930 . S
C318 C314 1.524 . S
C318 H330 0.956 . S
C318 H331 0.961 . S
C318 H332 0.961 . S
C319 C316 1.539 . S
C319 H333 0.958 . S
C319 H334 0.961 . S
C319 H335 0.960 . S
H320 C304 0.931 . S
H321 C309 0.929 . S
H322 C310 0.960 . S
H323 C310 0.962 . S
H324 C310 0.960 . S
H325 C311 0.961 . S
H326 C311 0.961 . S
H327 C311 0.961 . S
H328 C312 0.931 . S
H329 C317 0.930 . S
H330 C318 0.956 . S
H331 C318 0.961 . S
H332 C318 0.961 . S
H333 C319 0.958 . S
H334 C319 0.961 . S
H335 C319 0.960 . S
C336 C337 1.391 . S
C336 C338 1.394 . S
C336 H352 0.931 . S
C337 C336 1.391 . S
C337 C341 1.376 1_565 S
C338 C336 1.394 . S
C338 C339 1.369 . S
C338 C342 1.531 . S
C339 C338 1.369 . S
C339 C340 1.410 1_565 S
C339 C347 1.503 1_565 S
C340 C339 1.410 1_545 S
C340 C341 1.392 . S
C340 C343 1.511 . S
C341 C337 1.376 1_545 S
C341 C340 1.392 . S
C341 H353 0.929 . S
C342 C338 1.531 . S
C342 H354 0.960 . S
C342 H355 0.962 . S
C342 H356 0.960 . S
C343 C340 1.511 . S
C343 H357 0.961 . S
C343 H358 0.961 . S
C343 H359 0.961 . S
C344 C345 1.370 . S
C344 C346 1.363 . S
C344 H360 0.931 . S
C345 C344 1.370 . S
C345 C349 1.408 . S
C346 C344 1.363 . S
C346 C347 1.370 . S
C346 C350 1.524 . S
C347 C339 1.503 1_545 S
C347 C346 1.370 . S
C347 C348 1.403 1_545 S
C348 C347 1.403 1_565 S
C348 C349 1.404 1_565 S
C348 C351 1.539 . S
C349 C345 1.408 . S
C349 C348 1.404 1_545 S
C349 H361 0.930 . S
C350 C346 1.524 . S
C350 H362 0.956 . S
C350 H363 0.961 . S
C350 H364 0.961 . S
C351 C348 1.539 . S
C351 H365 0.958 . S
C351 H366 0.961 . S
C351 H367 0.960 . S
H352 C336 0.931 . S
H353 C341 0.929 . S
H354 C342 0.960 . S
H355 C342 0.962 . S
H356 C342 0.960 . S
H357 C343 0.961 . S
H358 C343 0.961 . S
H359 C343 0.961 . S
H360 C344 0.931 . S
H361 C349 0.930 . S
H362 C350 0.956 . S
H363 C350 0.961 . S
H364 C350 0.961 . S
H365 C351 0.958 . S
H366 C351 0.961 . S
H367 C351 0.960 . S
C368 C369 1.391 . S
C368 C370 1.394 . S
C368 H384 0.931 . S
C369 C368 1.391 . S
C369 C373 1.376 . S
C370 C368 1.394 . S
C370 C371 1.369 . S
C370 C374 1.531 . S
C371 C370 1.369 . S
C371 C372 1.410 . S
C371 C379 1.503 . S
C372 C371 1.410 . S
C372 C373 1.392 . S
C372 C375 1.511 . S
C373 C369 1.376 . S
C373 C372 1.392 . S
C373 H385 0.929 . S
C374 C370 1.531 . S
C374 H386 0.960 . S
C374 H387 0.962 . S
C374 H388 0.960 . S
C375 C372 1.511 . S
C375 H389 0.961 . S
C375 H390 0.961 . S
C375 H391 0.961 . S
C376 C377 1.370 . S
C376 C378 1.363 . S
C376 H392 0.931 . S
C377 C376 1.370 . S
C377 C381 1.408 . S
C378 C376 1.363 . S
C378 C379 1.370 . S
C378 C382 1.524 . S
C379 C371 1.503 . S
C379 C378 1.370 . S
C379 C380 1.403 . S
C380 C379 1.403 . S
C380 C381 1.404 . S
C380 C383 1.539 . S
C381 C377 1.408 . S
C381 C380 1.404 . S
C381 H393 0.930 . S
C382 C378 1.524 . S
C382 H394 0.956 . S
C382 H395 0.961 . S
C382 H396 0.961 . S
C383 C380 1.539 . S
C383 H397 0.958 . S
C383 H398 0.961 . S
C383 H399 0.960 . S
H384 C368 0.931 . S
H385 C373 0.929 . S
H386 C374 0.960 . S
H387 C374 0.962 . S
H388 C374 0.960 . S
H389 C375 0.961 . S
H390 C375 0.961 . S
H391 C375 0.961 . S
H392 C376 0.931 . S
H393 C381 0.930 . S
H394 C382 0.956 . S
H395 C382 0.961 . S
H396 C382 0.961 . S
H397 C383 0.958 . S
H398 C383 0.961 . S
H399 C383 0.960 . S
C400 C401 1.391 . S
C400 C402 1.394 . S
C400 H416 0.931 . S
C401 C400 1.391 . S
C401 C405 1.376 1_545 S
C402 C400 1.394 . S
C402 C403 1.369 . S
C402 C406 1.531 1_455 S
C403 C402 1.369 . S
C403 C404 1.408 1_544 S
C403 C411 1.503 1_444 S
C404 C403 1.408 1_566 S
C404 C405 1.383 1_556 S
C404 C407 1.522 . S
C405 C401 1.376 1_565 S
C405 C404 1.383 1_554 S
C405 H417 0.929 . S
C406 C402 1.531 1_655 S
C406 H418 0.960 . S
C406 H419 0.962 . S
C406 H420 0.954 1_655 S
C407 C404 1.522 . S
C407 H421 0.961 . S
C407 H422 0.961 . S
C407 H423 0.961 . S
C408 C409 1.370 . S
C408 C410 1.363 1_556 S
C408 H424 0.931 1_556 S
C409 C408 1.370 . S
C409 C413 1.408 1_565 S
C410 C408 1.363 1_554 S
C410 C411 1.370 1_554 S
C410 C414 1.524 . S
C411 C403 1.503 1_666 S
C411 C410 1.370 1_556 S
C411 C412 1.403 1_565 S
C412 C411 1.403 1_545 S
C412 C413 1.404 . S
C412 C415 1.539 1_655 S
C413 C409 1.408 1_545 S
C413 C412 1.404 . S
C413 H425 0.930 . S
C414 C410 1.524 . S
C414 H426 0.956 . S
C414 H427 0.961 . S
C414 H428 0.961 . S
C415 C412 1.539 1_455 S
C415 H429 0.958 . S
C415 H430 0.966 . S
C415 H431 0.960 . S
H416 C400 0.931 . S
H417 C405 0.929 . S
H418 C406 0.960 . S
H419 C406 0.962 . S
H420 C406 0.954 1_455 S
H421 C407 0.961 . S
H422 C407 0.961 . S
H423 C407 0.961 . S
H424 C408 0.931 1_554 S
H425 C413 0.930 . S
H426 C414 0.956 . S
H427 C414 0.961 . S
H428 C414 0.961 . S
H429 C415 0.958 . S
H430 C415 0.966 . S
H431 C415 0.960 . S
C432 C433 1.391 . S
C432 C434 1.394 1_564 S
C432 H448 0.931 1_554 S
C433 C432 1.391 . S
C433 C437 1.376 . S
C434 C432 1.394 1_546 S
C434 C435 1.369 1_556 S
C434 C438 1.531 . S
C435 C434 1.369 1_554 S
C435 C436 1.410 1_545 S
C435 C443 1.503 1_554 S
C436 C435 1.410 1_565 S
C436 C437 1.392 . S
C436 C439 1.511 . S
C437 C433 1.376 . S
C437 C436 1.392 . S
C437 H449 0.929 . S
C438 C434 1.531 . S
C438 H450 0.960 . S
C438 H451 0.962 1_545 S
C438 H452 0.960 . S
C439 C436 1.511 . S
C439 H453 0.961 . S
C439 H454 0.961 . S
C439 H455 0.961 1_565 S
C440 C441 1.370 1_565 S
C440 C442 1.363 . S
C440 H456 0.931 . S
C441 C440 1.370 1_545 S
C441 C445 1.408 . S
C442 C440 1.363 . S
C442 C443 1.370 1_565 S
C442 C446 1.524 . S
C443 C435 1.503 1_556 S
C443 C442 1.370 1_545 S
C443 C444 1.403 . S
C444 C443 1.403 . S
C444 C445 1.404 . S
C444 C447 1.539 1_556 S
C445 C441 1.408 . S
C445 C444 1.404 . S
C445 H457 0.930 . S
C446 C442 1.524 . S
C446 H458 0.956 . S
C446 H459 0.961 1_556 S
C446 H460 0.961 . S
C447 C444 1.539 1_554 S
C447 H461 0.958 1_554 S
C447 H462 0.961 . S
C447 H463 0.960 . S
H448 C432 0.931 1_556 S
H449 C437 0.929 . S
H450 C438 0.960 . S
H451 C438 0.962 1_565 S
H452 C438 0.960 . S
H453 C439 0.961 . S
H454 C439 0.961 . S
H455 C439 0.961 1_545 S
H456 C440 0.931 . S
H457 C445 0.930 . S
H458 C446 0.956 . S
H459 C446 0.961 1_554 S
H460 C446 0.961 . S
H461 C447 0.958 1_556 S
H462 C447 0.961 . S
H463 C447 0.960 . S
C464 C465 1.391 . S
C464 C466 1.394 . S
C464 H480 0.931 . S
C465 C464 1.391 . S
C465 C469 1.376 . S
C466 C464 1.394 . S
C466 C467 1.369 . S
C466 C470 1.528 . S
C467 C466 1.369 . S
C467 C468 1.410 . S
C467 C475 1.503 1_455 S
C468 C467 1.410 . S
C468 C469 1.392 . S
C468 C471 1.511 . S
C469 C465 1.376 . S
C469 C468 1.392 . S
C469 H481 0.929 . S
C470 C466 1.528 . S
C470 H482 0.962 1_455 S
C470 H483 0.964 1_455 S
C470 H484 0.959 . S
C471 C468 1.511 . S
C471 H485 0.961 . S
C471 H486 0.961 . S
C471 H487 0.961 . S
C472 C473 1.370 . S
C472 C474 1.363 . S
C472 H488 0.931 . S
C473 C472 1.370 . S
C473 C477 1.408 . S
C474 C472 1.363 . S
C474 C475 1.370 . S
C474 C478 1.524 . S
C475 C467 1.503 1_655 S
C475 C474 1.370 . S
C475 C476 1.403 . S
C476 C475 1.403 . S
C476 C477 1.404 . S
C476 C479 1.539 1_655 S
C477 C473 1.408 . S
C477 C476 1.404 . S
C477 H489 0.930 . S
C478 C474 1.524 . S
C478 H490 0.956 . S
C478 H491 0.961 . S
C478 H492 0.961 . S
C479 C476 1.539 1_455 S
C479 H493 0.958 . S
C479 H494 0.961 . S
C479 H495 0.960 . S
H480 C464 0.931 . S
H481 C469 0.929 . S
H482 C470 0.962 1_655 S
H483 C470 0.964 1_655 S
H484 C470 0.959 . S
H485 C471 0.961 . S
H486 C471 0.961 . S
H487 C471 0.961 . S
H488 C472 0.931 . S
H489 C477 0.930 . S
H490 C478 0.956 . S
H491 C478 0.961 . S
H492 C478 0.961 . S
H493 C479 0.958 . S
H494 C479 0.961 . S
H495 C479 0.960 . S
C496 C497 1.391 . S
C496 C498 1.394 . S
C496 H512 0.931 . S
C497 C496 1.391 . S
C497 C501 1.376 . S
C498 C496 1.394 . S
C498 C499 1.369 . S
C498 C502 1.531 . S
C499 C498 1.369 . S
C499 C500 1.410 . S
C499 C507 1.503 . S
C500 C499 1.410 . S
C500 C501 1.392 . S
C500 C503 1.511 . S
C501 C497 1.376 . S
C501 C500 1.392 . S
C501 H513 0.929 . S
C502 C498 1.531 . S
C502 H514 0.960 . S
C502 H515 0.962 . S
C502 H516 0.960 . S
C503 C500 1.511 . S
C503 H517 0.961 . S
C503 H518 0.961 . S
C503 H519 0.961 . S
C504 C505 1.370 . S
C504 C506 1.363 . S
C504 H520 0.931 . S
C505 C504 1.370 . S
C505 C509 1.408 . S
C506 C504 1.363 . S
C506 C507 1.370 . S
C506 C510 1.524 . S
C507 C499 1.503 . S
C507 C506 1.370 . S
C507 C508 1.403 . S
C508 C507 1.403 . S
C508 C509 1.404 . S
C508 C511 1.539 . S
C509 C505 1.408 . S
C509 C508 1.404 . S
C509 H521 0.930 . S
C510 C506 1.524 . S
C510 H522 0.956 . S
C510 H523 0.961 . S
C510 H524 0.961 . S
C511 C508 1.539 . S
C511 H525 0.958 . S
C511 H526 0.961 . S
C511 H527 0.960 . S
H512 C496 0.931 . S
H513 C501 0.929 . S
H514 C502 0.960 . S
H515 C502 0.962 . S
H516 C502 0.960 . S
H517 C503 0.961 . S
H518 C503 0.961 . S
H519 C503 0.961 . S
H520 C504 0.931 . S
H521 C509 0.930 . S
H522 C510 0.956 . S
H523 C510 0.961 . S
H524 C510 0.961 . S
H525 C511 0.958 . S
H526 C511 0.961 . S
H527 C511 0.960 . S
C528 C529 1.391 . S
C528 C530 1.394 . S
C528 H544 0.931 . S
C529 C528 1.391 . S
C529 C533 1.376 . S
C530 C528 1.394 . S
C530 C531 1.369 . S
C530 C534 1.531 . S
C531 C530 1.369 . S
C531 C532 1.410 . S
C531 C539 1.503 . S
C532 C531 1.410 . S
C532 C533 1.392 . S
C532 C535 1.511 . S
C533 C529 1.376 . S
C533 C532 1.392 . S
C533 H545 0.929 . S
C534 C530 1.531 . S
C534 H546 0.960 . S
C534 H547 0.962 . S
C534 H548 0.960 . S
C535 C532 1.511 . S
C535 H549 0.961 . S
C535 H550 0.961 . S
C535 H551 0.961 . S
C536 C537 1.370 . S
C536 C538 1.363 . S
C536 H552 0.931 . S
C537 C536 1.370 . S
C537 C541 1.408 . S
C538 C536 1.363 . S
C538 C539 1.370 . S
C538 C542 1.524 . S
C539 C531 1.503 . S
C539 C538 1.370 . S
C539 C540 1.403 . S
C540 C539 1.403 . S
C540 C541 1.404 . S
C540 C543 1.539 . S
C541 C537 1.408 . S
C541 C540 1.404 . S
C541 H553 0.930 . S
C542 C538 1.524 . S
C542 H554 0.956 . S
C542 H555 0.961 . S
C542 H556 0.961 . S
C543 C540 1.539 . S
C543 H557 0.958 . S
C543 H558 0.961 . S
C543 H559 0.960 . S
H544 C528 0.931 . S
H545 C533 0.929 . S
H546 C534 0.960 . S
H547 C534 0.962 . S
H548 C534 0.960 . S
H549 C535 0.961 . S
H550 C535 0.961 . S
H551 C535 0.961 . S
H552 C536 0.931 . S
H553 C541 0.930 . S
H554 C542 0.956 . S
H555 C542 0.961 . S
H556 C542 0.961 . S
H557 C543 0.958 . S
H558 C543 0.961 . S
H559 C543 0.960 . S
C560 C561 1.391 . S
C560 C562 1.394 . S
C560 H576 0.931 . S
C561 C560 1.391 . S
C561 C565 1.376 . S
C562 C560 1.394 . S
C562 C563 1.369 . S
C562 C566 1.531 . S
C563 C562 1.369 . S
C563 C564 1.410 . S
C563 C571 1.503 . S
C564 C563 1.410 . S
C564 C565 1.392 . S
C564 C567 1.511 . S
C565 C561 1.376 . S
C565 C564 1.392 . S
C565 H577 0.929 . S
C566 C562 1.531 . S
C566 H578 0.960 . S
C566 H579 0.962 . S
C566 H580 0.960 . S
C567 C564 1.511 . S
C567 H581 0.961 . S
C567 H582 0.961 . S
C567 H583 0.961 . S
C568 C569 1.370 . S
C568 C570 1.363 . S
C568 H584 0.931 . S
C569 C568 1.370 . S
C569 C573 1.408 . S
C570 C568 1.363 . S
C570 C571 1.370 . S
C570 C574 1.524 . S
C571 C563 1.503 . S
C571 C570 1.370 . S
C571 C572 1.403 . S
C572 C571 1.403 . S
C572 C573 1.404 . S
C572 C575 1.539 . S
C573 C569 1.408 . S
C573 C572 1.404 . S
C573 H585 0.930 . S
C574 C570 1.524 . S
C574 H586 0.956 . S
C574 H587 0.961 . S
C574 H588 0.961 . S
C575 C572 1.539 . S
C575 H589 0.958 . S
C575 H590 0.961 . S
C575 H591 0.960 . S
H576 C560 0.931 . S
H577 C565 0.929 . S
H578 C566 0.960 . S
H579 C566 0.962 . S
H580 C566 0.960 . S
H581 C567 0.961 . S
H582 C567 0.961 . S
H583 C567 0.961 . S
H584 C568 0.931 . S
H585 C573 0.930 . S
H586 C574 0.956 . S
H587 C574 0.961 . S
H588 C574 0.961 . S
H589 C575 0.958 . S
H590 C575 0.961 . S
H591 C575 0.960 . S
C592 C593 1.391 . S
C592 C594 1.394 . S
C592 H608 0.931 . S
C593 C592 1.391 . S
C593 C597 1.376 . S
C594 C592 1.394 . S
C594 C595 1.369 . S
C594 C598 1.531 . S
C595 C594 1.369 . S
C595 C596 1.410 . S
C595 C603 1.503 . S
C596 C595 1.410 . S
C596 C597 1.392 . S
C596 C599 1.511 . S
C597 C593 1.376 . S
C597 C596 1.392 . S
C597 H609 0.929 . S
C598 C594 1.531 . S
C598 H610 0.960 . S
C598 H611 0.962 . S
C598 H612 0.960 . S
C599 C596 1.511 . S
C599 H613 0.961 . S
C599 H614 0.961 . S
C599 H615 0.961 . S
C600 C601 1.370 . S
C600 C602 1.363 . S
C600 H616 0.931 . S
C601 C600 1.370 . S
C601 C605 1.408 . S
C602 C600 1.363 . S
C602 C603 1.370 . S
C602 C606 1.524 . S
C603 C595 1.503 . S
C603 C602 1.370 . S
C603 C604 1.403 . S
C604 C603 1.403 . S
C604 C605 1.404 . S
C604 C607 1.539 . S
C605 C601 1.408 . S
C605 C604 1.404 . S
C605 H617 0.930 . S
C606 C602 1.524 . S
C606 H618 0.956 . S
C606 H619 0.961 . S
C606 H620 0.961 . S
C607 C604 1.539 . S
C607 H621 0.958 . S
C607 H622 0.961 . S
C607 H623 0.960 . S
H608 C592 0.931 . S
H609 C597 0.929 . S
H610 C598 0.960 . S
H611 C598 0.962 . S
H612 C598 0.960 . S
H613 C599 0.961 . S
H614 C599 0.961 . S
H615 C599 0.961 . S
H616 C600 0.931 . S
H617 C605 0.930 . S
H618 C606 0.956 . S
H619 C606 0.961 . S
H620 C606 0.961 . S
H621 C607 0.958 . S
H622 C607 0.961 . S
H623 C607 0.960 . S
C624 C625 1.391 . S
C624 C626 1.394 . S
C624 H640 0.931 . S
C625 C624 1.391 . S
C625 C629 1.376 . S
C626 C624 1.394 . S
C626 C627 1.369 . S
C626 C630 1.531 . S
C627 C626 1.369 . S
C627 C628 1.410 . S
C627 C635 1.503 . S
C628 C627 1.410 . S
C628 C629 1.392 . S
C628 C631 1.511 . S
C629 C625 1.376 . S
C629 C628 1.392 . S
C629 H641 0.929 . S
C630 C626 1.531 . S
C630 H642 0.960 . S
C630 H643 0.962 . S
C630 H644 0.960 . S
C631 C628 1.511 . S
C631 H645 0.961 . S
C631 H646 0.961 . S
C631 H647 0.961 . S
C632 C633 1.370 . S
C632 C634 1.363 . S
C632 H648 0.931 . S
C633 C632 1.370 . S
C633 C637 1.408 . S
C634 C632 1.363 . S
C634 C635 1.370 . S
C634 C638 1.524 . S
C635 C627 1.503 . S
C635 C634 1.370 . S
C635 C636 1.403 . S
C636 C635 1.403 . S
C636 C637 1.404 . S
C636 C639 1.539 . S
C637 C633 1.408 . S
C637 C636 1.404 . S
C637 H649 0.930 . S
C638 C634 1.524 . S
C638 H650 0.956 . S
C638 H651 0.961 . S
C638 H652 0.961 . S
C639 C636 1.539 . S
C639 H653 0.958 . S
C639 H654 0.961 . S
C639 H655 0.960 . S
H640 C624 0.931 . S
H641 C629 0.929 . S
H642 C630 0.960 . S
H643 C630 0.962 . S
H644 C630 0.960 . S
H645 C631 0.961 . S
H646 C631 0.961 . S
H647 C631 0.961 . S
H648 C632 0.931 . S
H649 C637 0.930 . S
H650 C638 0.956 . S
H651 C638 0.961 . S
H652 C638 0.961 . S
H653 C639 0.958 . S
H654 C639 0.961 . S
H655 C639 0.960 . S
C656 C657 1.391 . S
C656 C658 1.394 . S
C656 H672 0.931 . S
C657 C656 1.391 . S
C657 C661 1.376 . S
C658 C656 1.394 . S
C658 C659 1.369 . S
C658 C662 1.531 . S
C659 C658 1.369 . S
C659 C660 1.410 . S
C659 C667 1.503 . S
C660 C659 1.410 . S
C660 C661 1.392 . S
C660 C663 1.511 . S
C661 C657 1.376 . S
C661 C660 1.392 . S
C661 H673 0.929 . S
C662 C658 1.531 . S
C662 H674 0.960 . S
C662 H675 0.962 . S
C662 H676 0.960 . S
C663 C660 1.511 . S
C663 H677 0.961 . S
C663 H678 0.961 . S
C663 H679 0.961 . S
C664 C665 1.370 . S
C664 C666 1.363 . S
C664 H680 0.931 . S
C665 C664 1.370 . S
C665 C669 1.408 . S
C666 C664 1.363 . S
C666 C667 1.370 . S
C666 C670 1.524 . S
C667 C659 1.503 . S
C667 C666 1.370 . S
C667 C668 1.403 . S
C668 C667 1.403 . S
C668 C669 1.404 . S
C668 C671 1.539 . S
C669 C665 1.408 . S
C669 C668 1.404 . S
C669 H681 0.930 . S
C670 C666 1.524 . S
C670 H682 0.956 . S
C670 H683 0.961 . S
C670 H684 0.961 . S
C671 C668 1.539 . S
C671 H685 0.958 . S
C671 H686 0.961 1_554 S
C671 H687 0.960 . S
H672 C656 0.931 . S
H673 C661 0.929 . S
H674 C662 0.960 . S
H675 C662 0.962 . S
H676 C662 0.960 . S
H677 C663 0.961 . S
H678 C663 0.961 . S
H679 C663 0.961 . S
H680 C664 0.931 . S
H681 C669 0.930 . S
H682 C670 0.956 . S
H683 C670 0.961 . S
H684 C670 0.961 . S
H685 C671 0.958 . S
H686 C671 0.961 1_556 S
H687 C671 0.960 . S
C688 C689 1.391 . S
C688 C690 1.394 . S
C688 H704 0.931 . S
C689 C688 1.391 . S
C689 C693 1.376 . S
C690 C688 1.394 . S
C690 C691 1.369 . S
C690 C694 1.531 . S
C691 C690 1.369 . S
C691 C692 1.410 . S
C691 C699 1.503 . S
C692 C691 1.410 . S
C692 C693 1.392 . S
C692 C695 1.511 . S
C693 C689 1.376 . S
C693 C692 1.392 . S
C693 H705 0.929 . S
C694 C690 1.531 . S
C694 H706 0.960 . S
C694 H707 0.962 . S
C694 H708 0.960 . S
C695 C692 1.511 . S
C695 H709 0.961 . S
C695 H710 0.961 . S
C695 H711 0.961 . S
C696 C697 1.370 . S
C696 C698 1.363 . S
C696 H712 0.931 . S
C697 C696 1.370 . S
C697 C701 1.408 . S
C698 C696 1.363 . S
C698 C699 1.370 . S
C698 C702 1.524 . S
C699 C691 1.503 . S
C699 C698 1.370 . S
C699 C700 1.403 . S
C700 C699 1.403 . S
C700 C701 1.404 . S
C700 C703 1.539 . S
C701 C697 1.408 . S
C701 C700 1.404 . S
C701 H713 0.930 . S
C702 C698 1.524 . S
C702 H714 0.956 . S
C702 H715 0.961 . S
C702 H716 0.961 . S
C703 C700 1.539 . S
C703 H717 0.958 . S
C703 H718 0.961 . S
C703 H719 0.960 . S
H704 C688 0.931 . S
H705 C693 0.929 . S
H706 C694 0.960 . S
H707 C694 0.962 . S
H708 C694 0.960 . S
H709 C695 0.961 . S
H710 C695 0.961 . S
H711 C695 0.961 . S
H712 C696 0.931 . S
H713 C701 0.930 . S
H714 C702 0.956 . S
H715 C702 0.961 . S
H716 C702 0.961 . S
H717 C703 0.958 . S
H718 C703 0.961 . S
H719 C703 0.960 . S
C720 C721 1.391 . S
C720 C722 1.394 . S
C720 H736 0.931 . S
C721 C720 1.391 . S
C721 C725 1.376 . S
C722 C720 1.394 . S
C722 C723 1.369 . S
C722 C726 1.531 1_545 S
C723 C722 1.369 . S
C723 C724 1.410 . S
C723 C731 1.503 1_545 S
C724 C723 1.410 . S
C724 C725 1.392 . S
C724 C727 1.511 . S
C725 C721 1.376 . S
C725 C724 1.392 . S
C725 H737 0.929 . S
C726 C722 1.531 1_565 S
C726 H738 0.960 . S
C726 H739 0.962 . S
C726 H740 0.960 1_565 S
C727 C724 1.511 . S
C727 H741 0.961 . S
C727 H742 0.961 1_545 S
C727 H743 0.961 . S
C728 C729 1.370 . S
C728 C730 1.363 . S
C728 H744 0.931 . S
C729 C728 1.370 . S
C729 C733 1.408 . S
C730 C728 1.363 . S
C730 C731 1.370 . S
C730 C734 1.524 . S
C731 C723 1.503 1_565 S
C731 C730 1.370 . S
C731 C732 1.403 . S
C732 C731 1.403 . S
C732 C733 1.404 . S
C732 C735 1.539 . S
C733 C729 1.408 . S
C733 C732 1.404 . S
C733 H745 0.930 . S
C734 C730 1.524 . S
C734 H746 0.956 . S
C734 H747 0.950 1_565 S
C734 H748 0.961 . S
C735 C732 1.539 . S
C735 H749 0.958 . S
C735 H750 0.961 . S
C735 H751 0.960 . S
H736 C720 0.931 . S
H737 C725 0.929 . S
H738 C726 0.960 . S
H739 C726 0.962 . S
H740 C726 0.960 1_545 S
H741 C727 0.961 . S
H742 C727 0.961 1_565 S
H743 C727 0.961 . S
H744 C728 0.931 . S
H745 C733 0.930 . S
H746 C734 0.956 . S
H747 C734 0.950 1_545 S
H748 C734 0.961 . S
H749 C735 0.958 . S
H750 C735 0.961 . S
H751 C735 0.960 . S
C752 C753 1.391 . S
C752 C754 1.394 . S
C752 H768 0.931 . S
C753 C752 1.391 . S
C753 C757 1.376 . S
C754 C752 1.394 . S
C754 C755 1.369 . S
C754 C758 1.531 . S
C755 C754 1.369 . S
C755 C756 1.410 . S
C755 C763 1.503 1_565 S
C756 C755 1.410 . S
C756 C757 1.392 . S
C756 C759 1.511 . S
C757 C753 1.376 . S
C757 C756 1.392 . S
C757 H769 0.929 . S
C758 C754 1.531 . S
C758 H770 0.960 1_565 S
C758 H771 0.962 1_565 S
C758 H772 0.960 . S
C759 C756 1.511 . S
C759 H773 0.961 . S
C759 H774 0.961 1_565 S
C759 H775 0.961 . S
C760 C761 1.370 . S
C760 C762 1.363 . S
C760 H776 0.931 . S
C761 C760 1.370 . S
C761 C765 1.408 . S
C762 C760 1.363 . S
C762 C763 1.370 . S
C762 C766 1.524 . S
C763 C755 1.503 1_545 S
C763 C762 1.370 . S
C763 C764 1.403 . S
C764 C763 1.403 . S
C764 C765 1.404 . S
C764 C767 1.539 . S
C765 C761 1.408 . S
C765 C764 1.404 . S
C765 H777 0.930 . S
C766 C762 1.524 . S
C766 H778 0.956 . S
C766 H779 0.961 . S
C766 H780 0.961 . S
C767 C764 1.539 . S
C767 H781 0.958 . S
C767 H782 0.961 . S
C767 H783 0.960 . S
H768 C752 0.931 . S
H769 C757 0.929 . S
H770 C758 0.960 1_545 S
H771 C758 0.962 1_545 S
H772 C758 0.960 . S
H773 C759 0.961 . S
H774 C759 0.961 1_545 S
H775 C759 0.961 . S
H776 C760 0.931 . S
H777 C765 0.930 . S
H778 C766 0.956 . S
H779 C766 0.961 . S
H780 C766 0.961 . S
H781 C767 0.958 . S
H782 C767 0.961 . S
H783 C767 0.960 . S
C784 C785 1.391 . S
C784 C786 1.394 . S
C784 H800 0.931 . S
C785 C784 1.391 . S
C785 C789 1.376 . S
C786 C784 1.394 . S
C786 C787 1.369 . S
C786 C790 1.531 . S
C787 C786 1.369 . S
C787 C788 1.410 . S
C787 C795 1.503 . S
C788 C787 1.410 . S
C788 C789 1.392 . S
C788 C791 1.511 . S
C789 C785 1.376 . S
C789 C788 1.392 . S
C789 H801 0.929 . S
C790 C786 1.531 . S
C790 H802 0.960 . S
C790 H803 0.962 . S
C790 H804 0.960 . S
C791 C788 1.511 . S
C791 H805 0.961 . S
C791 H806 0.961 . S
C791 H807 0.961 . S
C792 C793 1.370 . S
C792 C794 1.363 . S
C792 H808 0.931 . S
C793 C792 1.370 . S
C793 C797 1.408 . S
C794 C792 1.363 . S
C794 C795 1.370 . S
C794 C798 1.524 . S
C795 C787 1.503 . S
C795 C794 1.370 . S
C795 C796 1.403 . S
C796 C795 1.403 . S
C796 C797 1.404 . S
C796 C799 1.539 . S
C797 C793 1.408 . S
C797 C796 1.404 . S
C797 H809 0.930 . S
C798 C794 1.524 . S
C798 H810 0.956 . S
C798 H811 0.961 . S
C798 H812 0.961 . S
C799 C796 1.539 . S
C799 H813 0.958 . S
C799 H814 0.961 . S
C799 H815 0.960 . S
H800 C784 0.931 . S
H801 C789 0.929 . S
H802 C790 0.960 . S
H803 C790 0.962 . S
H804 C790 0.960 . S
H805 C791 0.961 . S
H806 C791 0.961 . S
H807 C791 0.961 . S
H808 C792 0.931 . S
H809 C797 0.930 . S
H810 C798 0.956 . S
H811 C798 0.961 . S
H812 C798 0.961 . S
H813 C799 0.958 . S
H814 C799 0.961 . S
H815 C799 0.960 . S
C816 C817 1.391 . S
C816 C818 1.394 . S
C816 H832 0.931 . S
C817 C816 1.391 . S
C817 C821 1.376 . S
C818 C816 1.394 . S
C818 C819 1.369 . S
C818 C822 1.531 . S
C819 C818 1.369 . S
C819 C820 1.410 . S
C819 C827 1.503 . S
C820 C819 1.410 . S
C820 C821 1.392 . S
C820 C823 1.511 . S
C821 C817 1.376 . S
C821 C820 1.392 . S
C821 H833 0.929 . S
C822 C818 1.531 . S
C822 H834 0.960 . S
C822 H835 0.962 . S
C822 H836 0.960 . S
C823 C820 1.511 . S
C823 H837 0.961 . S
C823 H838 0.961 . S
C823 H839 0.961 . S
C824 C825 1.370 . S
C824 C826 1.363 . S
C824 H840 0.931 . S
C825 C824 1.370 . S
C825 C829 1.408 . S
C826 C824 1.363 . S
C826 C827 1.370 . S
C826 C830 1.524 . S
C827 C819 1.503 . S
C827 C826 1.370 . S
C827 C828 1.403 . S
C828 C827 1.403 . S
C828 C829 1.404 . S
C828 C831 1.539 . S
C829 C825 1.408 . S
C829 C828 1.404 . S
C829 H841 0.930 . S
C830 C826 1.524 . S
C830 H842 0.956 . S
C830 H843 0.961 . S
C830 H844 0.961 . S
C831 C828 1.539 . S
C831 H845 0.958 . S
C831 H846 0.961 . S
C831 H847 0.960 . S
H832 C816 0.931 . S
H833 C821 0.929 . S
H834 C822 0.960 . S
H835 C822 0.962 . S
H836 C822 0.960 . S
H837 C823 0.961 . S
H838 C823 0.961 . S
H839 C823 0.961 . S
H840 C824 0.931 . S
H841 C829 0.930 . S
H842 C830 0.956 . S
H843 C830 0.961 . S
H844 C830 0.961 . S
H845 C831 0.958 . S
H846 C831 0.961 . S
H847 C831 0.960 . S
C848 C849 1.391 . S
C848 C850 1.394 . S
C848 H864 0.931 . S
C849 C848 1.391 . S
C849 C853 1.376 . S
C850 C848 1.394 . S
C850 C851 1.369 . S
C850 C854 1.531 . S
C851 C850 1.369 . S
C851 C852 1.410 . S
C851 C859 1.503 1_565 S
C852 C851 1.410 . S
C852 C853 1.392 . S
C852 C855 1.511 . S
C853 C849 1.376 . S
C853 C852 1.392 . S
C853 H865 0.929 . S
C854 C850 1.531 . S
C854 H866 0.960 1_565 S
C854 H867 0.962 1_565 S
C854 H868 0.960 . S
C855 C852 1.511 . S
C855 H869 0.961 . S
C855 H870 0.961 1_565 S
C855 H871 0.961 . S
C856 C857 1.370 . S
C856 C858 1.363 . S
C856 H872 0.931 . S
C857 C856 1.370 . S
C857 C861 1.408 . S
C858 C856 1.363 . S
C858 C859 1.370 . S
C858 C862 1.524 . S
C859 C851 1.503 1_545 S
C859 C858 1.370 . S
C859 C860 1.403 . S
C860 C859 1.403 . S
C860 C861 1.404 . S
C860 C863 1.539 . S
C861 C857 1.408 . S
C861 C860 1.404 . S
C861 H873 0.930 . S
C862 C858 1.524 . S
C862 H874 0.956 . S
C862 H875 0.961 . S
C862 H876 0.961 . S
C863 C860 1.539 . S
C863 H877 0.958 . S
C863 H878 0.961 . S
C863 H879 0.953 1_545 S
H864 C848 0.931 . S
H865 C853 0.929 . S
H866 C854 0.960 1_545 S
H867 C854 0.962 1_545 S
H868 C854 0.960 . S
H869 C855 0.961 . S
H870 C855 0.961 1_545 S
H871 C855 0.961 . S
H872 C856 0.931 . S
H873 C861 0.930 . S
H874 C862 0.956 . S
H875 C862 0.961 . S
H876 C862 0.961 . S
H877 C863 0.958 . S
H878 C863 0.961 . S
H879 C863 0.953 1_565 S
C880 C881 1.391 . S
C880 C882 1.394 . S
C880 H896 0.931 . S
C881 C880 1.391 . S
C881 C885 1.376 . S
C882 C880 1.394 . S
C882 C883 1.369 . S
C882 C886 1.531 . S
C883 C882 1.369 . S
C883 C884 1.410 . S
C883 C891 1.503 1_565 S
C884 C883 1.410 . S
C884 C885 1.392 . S
C884 C887 1.511 . S
C885 C881 1.376 . S
C885 C884 1.392 . S
C885 H897 0.929 . S
C886 C882 1.531 . S
C886 H898 0.960 1_565 S
C886 H899 0.962 . S
C886 H900 0.960 . S
C887 C884 1.511 . S
C887 H901 0.961 . S
C887 H902 0.961 . S
C887 H903 0.961 . S
C888 C889 1.370 . S
C888 C890 1.363 . S
C888 H904 0.931 . S
C889 C888 1.370 . S
C889 C893 1.408 . S
C890 C888 1.363 . S
C890 C891 1.370 . S
C890 C894 1.524 1_545 S
C891 C883 1.503 1_545 S
C891 C890 1.370 . S
C891 C892 1.403 . S
C892 C891 1.403 . S
C892 C893 1.404 . S
C892 C895 1.539 . S
C893 C889 1.408 . S
C893 C892 1.404 . S
C893 H905 0.930 . S
C894 C890 1.524 1_565 S
C894 H906 0.956 . S
C894 H907 0.961 . S
C894 H908 0.961 1_565 S
C895 C892 1.539 . S
C895 H909 0.958 . S
C895 H910 0.961 . S
C895 H911 0.960 1_545 S
H896 C880 0.931 . S
H897 C885 0.929 . S
H898 C886 0.960 1_545 S
H899 C886 0.962 . S
H900 C886 0.960 . S
H901 C887 0.961 . S
H902 C887 0.961 . S
H903 C887 0.961 . S
H904 C888 0.931 . S
H905 C893 0.930 . S
H906 C894 0.956 . S
H907 C894 0.961 . S
H908 C894 0.961 1_545 S
H909 C895 0.958 . S
H910 C895 0.961 . S
H911 C895 0.960 1_565 S
C273 C2 1.547 . S
C281 C36 1.559 . S
C305 C104 1.547 . S
C313 C70 1.559 . S
C337 C138 1.561 . S
C345 C172 1.560 . S
C369 C240 1.553 . S
C377 C206 1.555 . S
C401 C20 1.530 . S
C409 C156 1.532 . S
C433 C54 1.522 . S
C441 C190 1.535 . S
C465 C88 1.528 . S
C473 C224 1.533 . S
C497 C122 1.531 . S
C505 C258 1.531 . S
C529 C101 1.632 . S
C537 C33 1.609 . S
C561 C135 1.594 . S
C569 C67 1.625 . S
C593 C169 1.596 . S
C601 C237 1.621 . S
C625 C203 1.631 . S
C633 C271 1.609 . S
C657 C9 1.196 . S
C665 C5 1.200 . S
C689 C43 1.156 . S
C697 C39 1.188 . S
C721 C73 1.205 . S
C729 C77 1.188 . S
C753 C107 1.176 . S
C761 C111 1.173 . S
C785 C141 1.176 . S
C793 C145 1.172 . S
C817 C179 1.199 . S
C825 C175 1.196 . S
C849 C209 1.176 . S
C857 C213 1.172 . S
C881 C247 1.173 . S
C889 C243 1.190 . S
