# Generated by pormake.
# Topology gme, (4)-cn, num edge types: 1
# Building blocks:
#     Node 0, Type 0, BuildingBlock: KUFVIS_clean_sbu_0, # of connection points: 4
#     Node 1, Type 0, BuildingBlock: KUFVIS_clean_sbu_0, # of connection points: 4
#     Node 2, Type 0, BuildingBlock: KUFVIS_clean_sbu_0, # of connection points: 4
#     Node 3, Type 0, BuildingBlock: KUFVIS_clean_sbu_0, # of connection points: 4
#     Node 4, Type 0, BuildingBlock: KUFVIS_clean_sbu_0, # of connection points: 4
#     Node 5, Type 0, BuildingBlock: KUFVIS_clean_sbu_0, # of connection points: 4
#     Node 6, Type 0, BuildingBlock: KUFVIS_clean_sbu_0, # of connection points: 4
#     Node 7, Type 0, BuildingBlock: KUFVIS_clean_sbu_0, # of connection points: 4
#     Node 8, Type 0, BuildingBlock: KUFVIS_clean_sbu_0, # of connection points: 4
#     Node 9, Type 0, BuildingBlock: KUFVIS_clean_sbu_0, # of connection points: 4
#     Node 10, Type 0, BuildingBlock: KUFVIS_clean_sbu_0, # of connection points: 4
#     Node 11, Type 0, BuildingBlock: KUFVIS_clean_sbu_0, # of connection points: 4
#     Node 12, Type 0, BuildingBlock: KUFVIS_clean_sbu_0, # of connection points: 4
#     Node 13, Type 0, BuildingBlock: KUFVIS_clean_sbu_0, # of connection points: 4
#     Node 14, Type 0, BuildingBlock: KUFVIS_clean_sbu_0, # of connection points: 4
#     Node 15, Type 0, BuildingBlock: KUFVIS_clean_sbu_0, # of connection points: 4
#     Node 16, Type 0, BuildingBlock: KUFVIS_clean_sbu_0, # of connection points: 4
#     Node 17, Type 0, BuildingBlock: KUFVIS_clean_sbu_0, # of connection points: 4
#     Node 18, Type 0, BuildingBlock: KUFVIS_clean_sbu_0, # of connection points: 4
#     Node 19, Type 0, BuildingBlock: KUFVIS_clean_sbu_0, # of connection points: 4
#     Node 20, Type 0, BuildingBlock: KUFVIS_clean_sbu_0, # of connection points: 4
#     Node 21, Type 0, BuildingBlock: KUFVIS_clean_sbu_0, # of connection points: 4
#     Node 22, Type 0, BuildingBlock: KUFVIS_clean_sbu_0, # of connection points: 4
#     Node 23, Type 0, BuildingBlock: KUFVIS_clean_sbu_0, # of connection points: 4
#     Edge 24, Type (0, 0), BuildingBlock: OJICUG_clean_linker_0, # of connection points: 2
#     Edge 25, Type (0, 0), BuildingBlock: OJICUG_clean_linker_0, # of connection points: 2
#     Edge 26, Type (0, 0), BuildingBlock: OJICUG_clean_linker_0, # of connection points: 2
#     Edge 27, Type (0, 0), BuildingBlock: OJICUG_clean_linker_0, # of connection points: 2
#     Edge 28, Type (0, 0), BuildingBlock: OJICUG_clean_linker_0, # of connection points: 2
#     Edge 29, Type (0, 0), BuildingBlock: OJICUG_clean_linker_0, # of connection points: 2
#     Edge 30, Type (0, 0), BuildingBlock: OJICUG_clean_linker_0, # of connection points: 2
#     Edge 31, Type (0, 0), BuildingBlock: OJICUG_clean_linker_0, # of connection points: 2
#     Edge 32, Type (0, 0), BuildingBlock: OJICUG_clean_linker_0, # of connection points: 2
#     Edge 33, Type (0, 0), BuildingBlock: OJICUG_clean_linker_0, # of connection points: 2
#     Edge 34, Type (0, 0), BuildingBlock: OJICUG_clean_linker_0, # of connection points: 2
#     Edge 35, Type (0, 0), BuildingBlock: OJICUG_clean_linker_0, # of connection points: 2
#     Edge 36, Type (0, 0), BuildingBlock: OJICUG_clean_linker_0, # of connection points: 2
#     Edge 37, Type (0, 0), BuildingBlock: OJICUG_clean_linker_0, # of connection points: 2
#     Edge 38, Type (0, 0), BuildingBlock: OJICUG_clean_linker_0, # of connection points: 2
#     Edge 39, Type (0, 0), BuildingBlock: OJICUG_clean_linker_0, # of connection points: 2
#     Edge 40, Type (0, 0), BuildingBlock: OJICUG_clean_linker_0, # of connection points: 2
#     Edge 41, Type (0, 0), BuildingBlock: OJICUG_clean_linker_0, # of connection points: 2
#     Edge 42, Type (0, 0), BuildingBlock: OJICUG_clean_linker_0, # of connection points: 2
#     Edge 43, Type (0, 0), BuildingBlock: OJICUG_clean_linker_0, # of connection points: 2
#     Edge 44, Type (0, 0), BuildingBlock: OJICUG_clean_linker_0, # of connection points: 2
#     Edge 45, Type (0, 0), BuildingBlock: OJICUG_clean_linker_0, # of connection points: 2
#     Edge 46, Type (0, 0), BuildingBlock: OJICUG_clean_linker_0, # of connection points: 2
#     Edge 47, Type (0, 0), BuildingBlock: OJICUG_clean_linker_0, # of connection points: 2
#     Edge 48, Type (0, 0), BuildingBlock: OJICUG_clean_linker_0, # of connection points: 2
#     Edge 49, Type (0, 0), BuildingBlock: OJICUG_clean_linker_0, # of connection points: 2
#     Edge 50, Type (0, 0), BuildingBlock: OJICUG_clean_linker_0, # of connection points: 2
#     Edge 51, Type (0, 0), BuildingBlock: OJICUG_clean_linker_0, # of connection points: 2
#     Edge 52, Type (0, 0), BuildingBlock: OJICUG_clean_linker_0, # of connection points: 2
#     Edge 53, Type (0, 0), BuildingBlock: OJICUG_clean_linker_0, # of connection points: 2
#     Edge 54, Type (0, 0), BuildingBlock: OJICUG_clean_linker_0, # of connection points: 2
#     Edge 55, Type (0, 0), BuildingBlock: OJICUG_clean_linker_0, # of connection points: 2
#     Edge 56, Type (0, 0), BuildingBlock: OJICUG_clean_linker_0, # of connection points: 2
#     Edge 57, Type (0, 0), BuildingBlock: OJICUG_clean_linker_0, # of connection points: 2
#     Edge 58, Type (0, 0), BuildingBlock: OJICUG_clean_linker_0, # of connection points: 2
#     Edge 59, Type (0, 0), BuildingBlock: OJICUG_clean_linker_0, # of connection points: 2
#     Edge 60, Type (0, 0), BuildingBlock: OJICUG_clean_linker_0, # of connection points: 2
#     Edge 61, Type (0, 0), BuildingBlock: OJICUG_clean_linker_0, # of connection points: 2
#     Edge 62, Type (0, 0), BuildingBlock: OJICUG_clean_linker_0, # of connection points: 2
#     Edge 63, Type (0, 0), BuildingBlock: OJICUG_clean_linker_0, # of connection points: 2
#     Edge 64, Type (0, 0), BuildingBlock: OJICUG_clean_linker_0, # of connection points: 2
#     Edge 65, Type (0, 0), BuildingBlock: OJICUG_clean_linker_0, # of connection points: 2
#     Edge 66, Type (0, 0), BuildingBlock: OJICUG_clean_linker_0, # of connection points: 2
#     Edge 67, Type (0, 0), BuildingBlock: OJICUG_clean_linker_0, # of connection points: 2
#     Edge 68, Type (0, 0), BuildingBlock: OJICUG_clean_linker_0, # of connection points: 2
#     Edge 69, Type (0, 0), BuildingBlock: OJICUG_clean_linker_0, # of connection points: 2
#     Edge 70, Type (0, 0), BuildingBlock: OJICUG_clean_linker_0, # of connection points: 2
#     Edge 71, Type (0, 0), BuildingBlock: OJICUG_clean_linker_0, # of connection points: 2
# Relax obj value: 0.089
# Max RMSD: 0.121
# Mean RMSD: 0.121
data_MOF--net-gme--node1-KUFVIS_clean_sbu_0--edge1-OJICUG_clean_linker_0
_symmetry_space_group_name_H-M    P1
_symmetry_Int_Tables_number       1
_symmetry_cell_setting            triclinic
loop_
_symmetry_equiv_pos_as_xyz
'x, y, z'
_cell_length_a     40.611089
_cell_length_b     40.576497
_cell_length_c     41.095332
_cell_angle_alpha  90.078109
_cell_angle_beta   89.9822
_cell_angle_gamma 119.9345
loop_
_atom_site_label
_atom_site_type_symbol
_atom_site_fract_x
_atom_site_fract_y
_atom_site_fract_z
_atom_type_partial_charge
Mn0 Mn 0.38324 0.05547 0.12223 0.0
Mn1 Mn 0.45828 0.13383 0.14943 0.0
C2 C 0.43992 0.05456 0.13042 0.0
C3 C 0.35154 0.02943 0.07292 0.0
C4 C 0.39069 0.08014 0.19182 0.0
O5 O 0.36786 0.09682 0.12011 0.0
O6 O 0.42697 0.14644 0.12114 0.0
C7 C 0.49303 0.16075 0.08547 0.0
N8 N 0.49765 0.15182 0.11622 0.0
C9 C 0.56979 0.19604 0.11274 0.0
C10 C 0.56115 0.20055 0.07878 0.0
C11 C 0.52436 0.18256 0.06598 0.0
C12 C 0.53218 0.15889 0.12635 0.0
H13 H 0.46505 0.1511 0.07559 0.0
C14 C 0.39151 0.13206 0.1161 0.0
O15 O 0.3339 0.01734 0.1006 0.0
O16 O 0.38662 0.05582 0.07424 0.0
N17 N 0.49196 0.12869 0.17963 0.0
C18 C 0.48611 0.13461 0.21802 0.0
C19 C 0.52259 0.16006 0.24696 0.0
C20 C 0.5716 0.18298 0.23906 0.0
C21 C 0.58871 0.18243 0.19999 0.0
C22 C 0.53171 0.14426 0.16107 0.0
H23 H 0.45824 0.12547 0.22714 0.0
O24 O 0.40864 0.0231 0.12489 0.0
O25 O 0.43645 0.08437 0.13025 0.0
O26 O 0.37489 0.05194 0.17192 0.0
O27 O 0.41704 0.11367 0.18325 0.0
C28 C 0.62535 0.2186 0.18791 0.0
C29 C 0.62626 0.23273 0.15186 0.0
H30 H 0.58167 0.2194 0.06114 0.0
H31 H 0.51991 0.18822 0.04109 0.0
H32 H 0.51392 0.16362 0.27098 0.0
H33 H 0.59049 0.20333 0.25598 0.0
H34 H 0.64763 0.23619 0.2049 0.0
H35 H 0.65373 0.25884 0.14823 0.0
Mn36 Mn 0.34369 0.40134 0.62792 0.0
Mn37 Mn 0.33977 0.47937 0.64353 0.0
C38 C 0.40083 0.45873 0.63412 0.0
C39 C 0.33914 0.36593 0.58052 0.0
C40 C 0.32403 0.41735 0.69453 0.0
O41 O 0.28736 0.38521 0.62347 0.0
O42 O 0.29732 0.44381 0.6155 0.0
C43 C 0.35149 0.50396 0.57535 0.0
N44 N 0.363 0.51358 0.60658 0.0
C45 C 0.39005 0.58425 0.59358 0.0
C46 C 0.38 0.57039 0.55995 0.0
C47 C 0.36237 0.53185 0.55165 0.0
C48 C 0.38973 0.54974 0.61382 0.0
H49 H 0.33395 0.47456 0.56831 0.0
C50 C 0.27607 0.40786 0.61446 0.0
O51 O 0.33303 0.35026 0.6092 0.0
O52 O 0.34822 0.40107 0.5799 0.0
N53 N 0.37676 0.51804 0.67212 0.0
C54 C 0.3618 0.51733 0.70904 0.0
C55 C 0.36873 0.55723 0.73214 0.0
C56 C 0.39387 0.60498 0.71912 0.0
C57 C 0.41456 0.61664 0.68042 0.0
C58 C 0.40131 0.55512 0.6501 0.0
H59 H 0.34362 0.49072 0.72054 0.0
O60 O 0.40141 0.42721 0.63204 0.0
O61 O 0.36765 0.45489 0.63228 0.0
O62 O 0.33665 0.39873 0.67809 0.0
O63 O 0.31777 0.4429 0.68155 0.0
C64 C 0.41449 0.65006 0.66205 0.0
C65 C 0.40409 0.645 0.62471 0.0
H66 H 0.38304 0.58796 0.53911 0.0
H67 H 0.35417 0.52334 0.52662 0.0
H68 H 0.35408 0.55092 0.75517 0.0
H69 H 0.39156 0.62673 0.73229 0.0
H70 H 0.41657 0.67396 0.67547 0.0
H71 H 0.40434 0.67087 0.61648 0.0
Mn72 Mn 0.92772 0.33944 0.11819 0.0
Mn73 Mn 0.85646 0.3473 0.15087 0.0
C74 C 0.93184 0.39896 0.11949 0.0
C75 C 0.95164 0.32675 0.07054 0.0
C76 C 0.9175 0.34644 0.1926 0.0
O77 O 0.8858 0.28397 0.11997 0.0
O78 O 0.84222 0.29364 0.14455 0.0
C79 C 0.79913 0.31059 0.09603 0.0
N80 N 0.81887 0.34023 0.1169 0.0
C81 C 0.75674 0.34821 0.11635 0.0
C82 C 0.74175 0.31913 0.09364 0.0
C83 C 0.76284 0.30162 0.08336 0.0
C84 C 0.80335 0.36067 0.12577 0.0
H85 H 0.81084 0.29281 0.08916 0.0
C86 C 0.85335 0.27183 0.13277 0.0
O87 O 0.96416 0.32418 0.09906 0.0
O88 O 0.926 0.33658 0.07006 0.0
N89 N 0.86593 0.39801 0.16133 0.0
C90 C 0.89543 0.42532 0.18366 0.0
C91 C 0.89084 0.45412 0.20669 0.0
C92 C 0.82669 0.45364 0.20861 0.0
C93 C 0.79727 0.42278 0.18231 0.0
C94 C 0.82906 0.39268 0.15406 0.0
H95 H 0.92086 0.42361 0.18687 0.0
O96 O 0.96179 0.39574 0.11617 0.0
O97 O 0.8995 0.36691 0.12082 0.0
O98 O 0.9352 0.34005 0.16949 0.0
O99 O 0.88931 0.35128 0.18739 0.0
C100 C 0.74963 0.40587 0.1678 0.0
C101 C 0.72974 0.36834 0.13515 0.0
H102 H 0.71376 0.30987 0.0842 0.0
H103 H 0.7499 0.27879 0.06585 0.0
H104 H 0.9174 0.4712 0.22028 0.0
H105 H 0.81702 0.47034 0.22236 0.0
H106 H 0.73577 0.42126 0.18145 0.0
H107 H 0.73591 0.38791 0.15212 0.0
Mn108 Mn 0.60949 0.94623 0.62252 0.0
Mn109 Mn 0.53481 0.86613 0.64729 0.0
C110 C 0.55245 0.94584 0.6308 0.0
C111 C 0.64156 0.97201 0.57341 0.0
C112 C 0.60227 0.91898 0.69079 0.0
O113 O 0.62561 0.90591 0.6203 0.0
O114 O 0.56677 0.85615 0.61737 0.0
C115 C 0.49922 0.8403 0.58323 0.0
N116 N 0.49482 0.84835 0.61437 0.0
C117 C 0.4229 0.80135 0.61159 0.0
C118 C 0.43119 0.79822 0.57724 0.0
C119 C 0.46774 0.81787 0.56397 0.0
C120 C 0.45993 0.83922 0.62538 0.0
H121 H 0.52716 0.85114 0.57284 0.0
C122 C 0.60256 0.8711 0.61425 0.0
O123 O 0.65899 0.98447 0.60117 0.0
O124 O 0.60631 0.94611 0.5746 0.0
N125 N 0.50076 0.86923 0.67857 0.0
C126 C 0.50772 0.86287 0.71657 0.0
C127 C 0.47218 0.8355 0.74563 0.0
C128 C 0.42302 0.81089 0.73838 0.0
C129 C 0.40476 0.81152 0.69986 0.0
C130 C 0.46041 0.85254 0.66062 0.0
H131 H 0.53593 0.87326 0.72534 0.0
O132 O 0.58332 0.9778 0.62554 0.0
O133 O 0.55649 0.91646 0.63025 0.0
O134 O 0.61734 0.9484 0.67218 0.0
O135 O 0.57642 0.88566 0.681 0.0
C136 C 0.3689 0.77475 0.68768 0.0
C137 C 0.36795 0.76181 0.65124 0.0
H138 H 0.41065 0.77928 0.55961 0.0
H139 H 0.47204 0.81306 0.53878 0.0
H140 H 0.48169 0.83199 0.76927 0.0
H141 H 0.40486 0.78999 0.7554 0.0
H142 H 0.34737 0.75607 0.70474 0.0
H143 H 0.34111 0.73497 0.64768 0.0
Mn144 Mn 0.65495 0.5878 0.11136 0.0
Mn145 Mn 0.65605 0.50822 0.13236 0.0
C146 C 0.59853 0.53185 0.11858 0.0
C147 C 0.65979 0.62471 0.0653 0.0
C148 C 0.66323 0.56707 0.18267 0.0
O149 O 0.71062 0.60469 0.10608 0.0
O150 O 0.70733 0.55023 0.12105 0.0
C151 C 0.67856 0.50027 0.06364 0.0
N152 N 0.65512 0.48471 0.08979 0.0
C153 C 0.63855 0.41725 0.06425 0.0
C154 C 0.66351 0.43744 0.03927 0.0
C155 C 0.68201 0.47768 0.03874 0.0
C156 C 0.63283 0.44754 0.09074 0.0
H157 H 0.69555 0.53075 0.06168 0.0
C158 C 0.72582 0.58466 0.11161 0.0
O159 O 0.66573 0.63946 0.0944 0.0
O160 O 0.65019 0.58943 0.06357 0.0
N161 N 0.60883 0.46174 0.14683 0.0
C162 C 0.58947 0.4562 0.17873 0.0
C163 C 0.56533 0.41621 0.19724 0.0
C164 C 0.55866 0.3547 0.17162 0.0
C165 C 0.5804 0.36411 0.13733 0.0
C166 C 0.6084 0.4331 0.12549 0.0
H167 H 0.59403 0.48119 0.19193 0.0
O168 O 0.59886 0.56382 0.11679 0.0
O169 O 0.63059 0.53307 0.11333 0.0
O170 O 0.66215 0.59087 0.16226 0.0
O171 O 0.65968 0.53471 0.17433 0.0
C172 C 0.58976 0.33935 0.10571 0.0
C173 C 0.61919 0.36648 0.06985 0.0
H174 H 0.66955 0.4224 0.02058 0.0
H175 H 0.70133 0.49229 0.01885 0.0
H176 H 0.55453 0.42067 0.22039 0.0
H177 H 0.54434 0.32497 0.17957 0.0
H178 H 0.57404 0.30673 0.11094 0.0
H179 H 0.60336 0.34858 0.0869 0.0
Mn180 Mn 0.06729 0.65714 0.61933 0.0
Mn181 Mn 0.14551 0.65668 0.64528 0.0
C182 C 0.06804 0.60079 0.62292 0.0
C183 C 0.03693 0.66482 0.57391 0.0
C184 C 0.08599 0.65409 0.69244 0.0
O185 O 0.10578 0.71359 0.6184 0.0
O186 O 0.15288 0.70803 0.64057 0.0
C187 C 0.18298 0.69113 0.58049 0.0
N188 N 0.17376 0.66397 0.6038 0.0
C189 C 0.2293 0.65466 0.57823 0.0
C190 C 0.23414 0.68185 0.55538 0.0
C191 C 0.21093 0.69876 0.55621 0.0
C192 C 0.18972 0.64242 0.6024 0.0
H193 H 0.16911 0.7079 0.58034 0.0
C194 C 0.13873 0.72788 0.63052 0.0
O195 O 0.02657 0.66795 0.60324 0.0
O196 O 0.06397 0.65708 0.57142 0.0
N197 N 0.14711 0.60966 0.65458 0.0
C198 C 0.13153 0.58663 0.68428 0.0
C199 C 0.14898 0.56429 0.70254 0.0
C200 C 0.20992 0.56648 0.68145 0.0
C201 C 0.22471 0.59239 0.64807 0.0
C202 C 0.17893 0.61469 0.63501 0.0
H203 H 0.10762 0.58643 0.69594 0.0
O204 O 0.03613 0.60045 0.62035 0.0
O205 O 0.0986 0.63361 0.62091 0.0
O206 O 0.06602 0.65874 0.67034 0.0
O207 O 0.1154 0.65064 0.68609 0.0
C208 C 0.26316 0.60962 0.61802 0.0
C209 C 0.26451 0.64015 0.5846 0.0
H210 H 0.2567 0.69125 0.53763 0.0
H211 H 0.21619 0.72038 0.53831 0.0
H212 H 0.12969 0.5483 0.72134 0.0
H213 H 0.22632 0.55328 0.68968 0.0
H214 H 0.24467 0.59615 0.63832 0.0
H215 H 0.2708 0.62348 0.60036 0.0
Mn216 Mn 0.93343 0.5931 0.40548 0.0
Mn217 Mn 0.85172 0.51563 0.38726 0.0
C218 C 0.9341 0.53653 0.39799 0.0
C219 C 0.96281 0.62869 0.45231 0.0
C220 C 0.90184 0.58097 0.33833 0.0
O221 O 0.8931 0.60902 0.40817 0.0
O222 O 0.84584 0.55043 0.41741 0.0
C223 C 0.8355 0.48486 0.45448 0.0
N224 N 0.83924 0.47808 0.42279 0.0
C225 C 0.80142 0.40522 0.4336 0.0
C226 C 0.8043 0.41715 0.46767 0.0
C227 C 0.82104 0.45539 0.47713 0.0
C228 C 0.83272 0.44291 0.414 0.0
H229 H 0.84433 0.51327 0.4629 0.0
C230 C 0.85911 0.5862 0.41652 0.0
O231 O 0.97258 0.64418 0.42359 0.0
O232 O 0.93707 0.59329 0.45339 0.0
N233 N 0.84852 0.47788 0.35715 0.0
C234 C 0.83285 0.47924 0.32091 0.0
C235 C 0.80239 0.43923 0.29638 0.0
C236 C 0.78422 0.39114 0.30702 0.0
C237 C 0.79491 0.37897 0.34515 0.0
C238 C 0.83901 0.44031 0.3775 0.0
H239 H 0.83802 0.50603 0.31125 0.0
O240 O 0.96578 0.5681 0.40184 0.0
O241 O 0.90409 0.53937 0.39947 0.0
O242 O 0.93185 0.59776 0.35612 0.0
O243 O 0.8689 0.55479 0.34967 0.0
C244 C 0.764 0.34269 0.36269 0.0
C245 C 0.75867 0.34461 0.40058 0.0
H246 H 0.79184 0.39793 0.48801 0.0
H247 H 0.82039 0.46213 0.50255 0.0
H248 H 0.79225 0.4448 0.27394 0.0
H249 H 0.76312 0.36915 0.29157 0.0
H250 H 0.7436 0.31837 0.34877 0.0
H251 H 0.73493 0.31689 0.40813 0.0
Mn252 Mn 0.33579 0.93201 0.90264 0.0
Mn253 Mn 0.32573 0.84794 0.88339 0.0
C254 C 0.39067 0.92733 0.89974 0.0
C255 C 0.32704 0.96151 0.94836 0.0
C256 C 0.32459 0.90457 0.83373 0.0
O257 O 0.27841 0.89607 0.89963 0.0
O258 O 0.28064 0.84281 0.90596 0.0
C259 C 0.31548 0.81725 0.95085 0.0
N260 N 0.33702 0.8271 0.92313 0.0
C261 C 0.34791 0.76974 0.93774 0.0
C262 C 0.32589 0.76367 0.96516 0.0
C263 C 0.31192 0.78831 0.97225 0.0
C264 C 0.36155 0.81438 0.91926 0.0
H265 H 0.29923 0.8309 0.95672 0.0
C266 C 0.26234 0.86052 0.9043 0.0
O267 O 0.32662 0.97379 0.91916 0.0
O268 O 0.33308 0.93331 0.95058 0.0
N269 N 0.36482 0.84512 0.85749 0.0
C270 C 0.35256 0.83334 0.8187 0.0
C271 C 0.35798 0.79753 0.79537 0.0
C272 C 0.37811 0.76968 0.81136 0.0
C273 C 0.39363 0.77404 0.85401 0.0
C274 C 0.38375 0.82807 0.88211 0.0
H275 H 0.3377 0.845 0.80593 0.0
O276 O 0.39302 0.96006 0.90393 0.0
O277 O 0.35658 0.89858 0.9002 0.0
O278 O 0.33668 0.93373 0.85255 0.0
O279 O 0.31428 0.87068 0.84423 0.0
C280 C 0.37727 0.73313 0.88141 0.0
C281 C 0.35462 0.73127 0.92087 0.0
H282 H 0.31786 0.73896 0.98023 0.0
H283 H 0.29436 0.78249 0.99368 0.0
H284 H 0.34697 0.79165 0.77079 0.0
H285 H 0.37548 0.74605 0.79711 0.0
H286 H 0.38886 0.7532 0.86116 0.0
H287 H 0.36654 0.72515 0.90041 0.0
Mn288 Mn 0.41023 0.3372 0.4076 0.0
Mn289 Mn 0.48748 0.33409 0.3812 0.0
C290 C 0.46625 0.39251 0.39914 0.0
C291 C 0.37573 0.33352 0.45522 0.0
C292 C 0.42693 0.32951 0.33454 0.0
O293 O 0.39284 0.28159 0.41265 0.0
O294 O 0.44482 0.28315 0.39252 0.0
C295 C 0.49974 0.30707 0.44662 0.0
N296 N 0.51369 0.33232 0.42145 0.0
C297 C 0.58246 0.34519 0.44081 0.0
C298 C 0.56373 0.319 0.46541 0.0
C299 C 0.5237 0.30133 0.46846 0.0
C300 C 0.55089 0.35342 0.4183 0.0
H301 H 0.46945 0.29015 0.45003 0.0
C302 C 0.41126 0.26554 0.40412 0.0
O303 O 0.35986 0.32775 0.42663 0.0
O304 O 0.41078 0.34216 0.45564 0.0
N305 N 0.53358 0.3812 0.36621 0.0
C306 C 0.53723 0.40247 0.33572 0.0
C307 C 0.57581 0.42692 0.3154 0.0
C308 C 0.63823 0.43055 0.33503 0.0
C309 C 0.63086 0.40681 0.36804 0.0
C310 C 0.56323 0.37966 0.3845 0.0
H311 H 0.5116 0.39923 0.32476 0.0
O312 O 0.43482 0.39302 0.40235 0.0
O313 O 0.46485 0.36017 0.40369 0.0
O314 O 0.40421 0.33009 0.35646 0.0
O315 O 0.45945 0.33277 0.34115 0.0
C316 C 0.65723 0.39467 0.39568 0.0
C317 C 0.63251 0.36369 0.43154 0.0
H318 H 0.57965 0.31122 0.48171 0.0
H319 H 0.51026 0.28076 0.48778 0.0
H320 H 0.57004 0.4393 0.29389 0.0
H321 H 0.66722 0.44468 0.32532 0.0
H322 H 0.68894 0.40845 0.3872 0.0
H323 H 0.64934 0.38011 0.41405 0.0
Mn324 Mn 0.04591 0.3933 0.89911 0.0
Mn325 Mn 0.1226 0.47164 0.8758 0.0
C326 C 0.04377 0.45003 0.89607 0.0
C327 C 0.01752 0.35664 0.94583 0.0
C328 C 0.07661 0.40282 0.83114 0.0
O329 O 0.08942 0.38169 0.90217 0.0
O330 O 0.13866 0.44194 0.90277 0.0
C331 C 0.15942 0.51202 0.9355 0.0
N332 N 0.14321 0.51308 0.90711 0.0
C333 C 0.191 0.58491 0.90035 0.0
C334 C 0.20365 0.57997 0.93276 0.0
C335 C 0.18751 0.54536 0.94949 0.0
C336 C 0.15086 0.54671 0.8941 0.0
H337 H 0.15141 0.48527 0.94725 0.0
C338 C 0.12439 0.4061 0.90692 0.0
O339 O 0.00793 0.34137 0.91699 0.0
O340 O 0.04244 0.39224 0.94709 0.0
N341 N 0.10813 0.50057 0.84818 0.0
C342 C 0.1015 0.489 0.81029 0.0
C343 C 0.11698 0.51981 0.77715 0.0
C344 C 0.14182 0.56997 0.77842 0.0
C345 C 0.15482 0.59407 0.81763 0.0
C346 C 0.12834 0.54235 0.86308 0.0
H347 H 0.08412 0.46009 0.80352 0.0
O348 O 0.0124 0.4176 0.89688 0.0
O349 O 0.0741 0.44738 0.89681 0.0
O350 O 0.04598 0.38692 0.84827 0.0
O351 O 0.10694 0.43143 0.84194 0.0
C352 C 0.19528 0.63336 0.82412 0.0
C353 C 0.21773 0.63696 0.85635 0.0
H354 H 0.2273 0.60197 0.94625 0.0
H355 H 0.19935 0.5439 0.9727 0.0
H356 H 0.10758 0.50492 0.75435 0.0
H357 H 0.15138 0.58818 0.79663 0.0
H358 H 0.20864 0.65396 0.80483 0.0
H359 H 0.2444 0.6644 0.85539 0.0
Mn360 Mn 0.66215 0.06363 0.40076 0.0
Mn361 Mn 0.67305 0.14818 0.38098 0.0
C362 C 0.60798 0.06884 0.39719 0.0
C363 C 0.66993 0.03448 0.44708 0.0
C364 C 0.6728 0.09067 0.33142 0.0
O365 O 0.71935 0.09863 0.39877 0.0
O366 O 0.71867 0.1531 0.40233 0.0
C367 C 0.68626 0.18145 0.44772 0.0
N368 N 0.66303 0.16998 0.42097 0.0
C369 C 0.6501 0.22603 0.43671 0.0
C370 C 0.67434 0.23393 0.4628 0.0
C371 C 0.69026 0.21079 0.46892 0.0
C372 C 0.6374 0.18157 0.41798 0.0
H373 H 0.70374 0.16899 0.45286 0.0
C374 C 0.73586 0.13419 0.40313 0.0
O375 O 0.67042 0.02155 0.41812 0.0
O376 O 0.66419 0.06286 0.44865 0.0
N377 N 0.63369 0.15116 0.35592 0.0
C378 C 0.64531 0.1633 0.31713 0.0
C379 C 0.63835 0.19842 0.29434 0.0
C380 C 0.61717 0.22511 0.31101 0.0
C381 C 0.60212 0.22015 0.35385 0.0
C382 C 0.61444 0.16732 0.38109 0.0
H383 H 0.66096 0.15264 0.30414 0.0
O384 O 0.60526 0.03599 0.40144 0.0
O385 O 0.64208 0.09764 0.39816 0.0
O386 O 0.66164 0.06183 0.35049 0.0
O387 O 0.683 0.12463 0.34167 0.0
C388 C 0.61775 0.26085 0.38147 0.0
C389 C 0.64152 0.26348 0.42046 0.0
H390 H 0.68271 0.25913 0.47732 0.0
H391 H 0.70951 0.21808 0.48935 0.0
H392 H 0.6492 0.20477 0.26974 0.0
H393 H 0.61891 0.2485 0.29705 0.0
H394 H 0.60636 0.24076 0.36117 0.0
H395 H 0.62868 0.26903 0.40038 0.0
Mn396 Mn 0.59399 0.65679 0.89264 0.0
Mn397 Mn 0.51728 0.66206 0.87437 0.0
C398 C 0.53621 0.60013 0.8866 0.0
C399 C 0.62856 0.6621 0.94058 0.0
C400 C 0.58004 0.67512 0.82495 0.0
O401 O 0.611 0.71346 0.89568 0.0
O402 O 0.55272 0.70481 0.90214 0.0
C403 C 0.49093 0.65269 0.94204 0.0
N404 N 0.48201 0.64035 0.91092 0.0
C405 C 0.41113 0.61435 0.92242 0.0
C406 C 0.42425 0.6253 0.95611 0.0
C407 C 0.46254 0.64281 0.96511 0.0
C408 C 0.44591 0.61379 0.90337 0.0
H409 H 0.52016 0.67012 0.94951 0.0
C410 C 0.58866 0.72551 0.90368 0.0
O411 O 0.64447 0.66715 0.91208 0.0
O412 O 0.59358 0.65357 0.94075 0.0
N413 N 0.47887 0.62487 0.84578 0.0
C414 C 0.48063 0.63896 0.8084 0.0
C415 C 0.44145 0.63172 0.78417 0.0
C416 C 0.39339 0.6072 0.7964 0.0
C417 C 0.38068 0.58755 0.83542 0.0
C418 C 0.44127 0.60119 0.86737 0.0
H419 H 0.50756 0.65684 0.79724 0.0
O420 O 0.56732 0.59895 0.88965 0.0
O421 O 0.54058 0.6336 0.88756 0.0
O422 O 0.59773 0.6624 0.84246 0.0
O423 O 0.55468 0.68241 0.83681 0.0
C424 C 0.34699 0.58839 0.85265 0.0
C425 C 0.35127 0.59984 0.88975 0.0
H426 H 0.4063 0.62305 0.97643 0.0
H427 H 0.47049 0.65168 0.99012 0.0
H428 H 0.44848 0.64589 0.7609 0.0
H429 H 0.37208 0.60922 0.78231 0.0
H430 H 0.32332 0.58595 0.83863 0.0
H431 H 0.32526 0.59994 0.89706 0.0
Mn432 Mn 0.59123 0.93466 0.90054 0.0
Mn433 Mn 0.51751 0.85645 0.86868 0.0
C434 C 0.53362 0.93244 0.8918 0.0
C435 C 0.62222 0.96314 0.94956 0.0
C436 C 0.58672 0.91314 0.82893 0.0
O437 O 0.60777 0.89483 0.90412 0.0
O438 O 0.55219 0.8426 0.89105 0.0
C439 C 0.48556 0.82439 0.93036 0.0
N440 N 0.47855 0.83189 0.90023 0.0
C441 C 0.40543 0.79323 0.90699 0.0
C442 C 0.41882 0.78829 0.93989 0.0
C443 C 0.45599 0.80366 0.9507 0.0
C444 C 0.44324 0.82282 0.88924 0.0
H445 H 0.51425 0.83483 0.93882 0.0
C446 C 0.58648 0.85893 0.90145 0.0
O447 O 0.63975 0.9747 0.92179 0.0
O448 O 0.58755 0.93561 0.94858 0.0
N449 N 0.48149 0.86489 0.84667 0.0
C450 C 0.48966 0.88803 0.82064 0.0
C451 C 0.46146 0.88667 0.80094 0.0
C452 C 0.42344 0.85951 0.80441 0.0
C453 C 0.4088 0.83146 0.83329 0.0
C454 C 0.44559 0.84083 0.85728 0.0
H455 H 0.51871 0.90837 0.81472 0.0
O456 O 0.5642 0.96489 0.89639 0.0
O457 O 0.53793 0.90308 0.8931 0.0
O458 O 0.60255 0.93903 0.85087 0.0
O459 O 0.55649 0.88107 0.83394 0.0
C460 C 0.34405 0.78226 0.84969 0.0
C461 C 0.34333 0.76582 0.88159 0.0
H462 H 0.40134 0.77123 0.95992 0.0
H463 H 0.46185 0.7979 0.97514 0.0
H464 H 0.46952 0.90668 0.78114 0.0
H465 H 0.41065 0.84057 0.8208 0.0
H466 H 0.31549 0.77056 0.83897 0.0
H467 H 0.31429 0.74431 0.88887 0.0
Mn468 Mn 0.65698 0.59278 0.39186 0.0
Mn469 Mn 0.66122 0.5153 0.37197 0.0
C470 C 0.60037 0.53561 0.3845 0.0
C471 C 0.66127 0.62703 0.43995 0.0
C472 C 0.67541 0.57906 0.32365 0.0
O473 O 0.71314 0.60894 0.39649 0.0
O474 O 0.70469 0.55019 0.39944 0.0
C475 C 0.65267 0.48761 0.43915 0.0
N476 N 0.63962 0.47947 0.40818 0.0
C477 C 0.61188 0.40792 0.41856 0.0
C478 C 0.62397 0.42044 0.45221 0.0
C479 C 0.64263 0.45867 0.46169 0.0
C480 C 0.61233 0.4437 0.40038 0.0
H481 H 0.67082 0.51663 0.4469 0.0
C482 C 0.72475 0.586 0.40361 0.0
O483 O 0.66729 0.64327 0.41153 0.0
O484 O 0.65233 0.59189 0.43996 0.0
N485 N 0.62321 0.47755 0.34329 0.0
C486 C 0.63617 0.47918 0.3055 0.0
C487 C 0.62671 0.43967 0.2805 0.0
C488 C 0.60104 0.39155 0.2924 0.0
C489 C 0.58226 0.37897 0.33172 0.0
C490 C 0.599 0.43991 0.36467 0.0
H491 H 0.65461 0.50608 0.29453 0.0
O492 O 0.59959 0.56697 0.38751 0.0
O493 O 0.63351 0.53923 0.38646 0.0
O494 O 0.66373 0.59731 0.34165 0.0
O495 O 0.68171 0.55285 0.33486 0.0
C496 C 0.58199 0.34431 0.34811 0.0
C497 C 0.59423 0.34775 0.38493 0.0
H498 H 0.62164 0.40198 0.47212 0.0
H499 H 0.65217 0.46607 0.48662 0.0
H500 H 0.63982 0.44616 0.25675 0.0
H501 H 0.60252 0.37011 0.27806 0.0
H502 H 0.57821 0.32038 0.33362 0.0
H503 H 0.5933 0.32106 0.39161 0.0
Mn504 Mn 0.05521 0.65504 0.90575 0.0
Mn505 Mn 0.12985 0.65135 0.8751 0.0
C506 C 0.0536 0.59705 0.90504 0.0
C507 C 0.03022 0.66681 0.95333 0.0
C508 C 0.06852 0.64955 0.83176 0.0
O509 O 0.09512 0.71071 0.90408 0.0
O510 O 0.14238 0.70487 0.88201 0.0
C511 C 0.18707 0.68936 0.9297 0.0
N512 N 0.16734 0.65901 0.90946 0.0
C513 C 0.22964 0.65113 0.91166 0.0
C514 C 0.24469 0.68131 0.93338 0.0
C515 C 0.22362 0.69926 0.94239 0.0
C516 C 0.18325 0.63864 0.90118 0.0
H517 H 0.17529 0.70729 0.93581 0.0
C518 C 0.12852 0.72483 0.89296 0.0
O519 O 0.01717 0.66847 0.92478 0.0
O520 O 0.05664 0.65814 0.95384 0.0
N521 N 0.12158 0.60095 0.86462 0.0
C522 C 0.0925 0.57321 0.84224 0.0
C523 C 0.09733 0.5437 0.82037 0.0
C524 C 0.16123 0.54363 0.82061 0.0
C525 C 0.19019 0.57505 0.84684 0.0
C526 C 0.15808 0.60607 0.87301 0.0
H527 H 0.06713 0.57483 0.83836 0.0
O528 O 0.02286 0.59893 0.90785 0.0
O529 O 0.0855 0.62973 0.90409 0.0
O530 O 0.04865 0.65389 0.85422 0.0
O531 O 0.09785 0.64705 0.83795 0.0
C532 C 0.23745 0.59206 0.86238 0.0
C533 C 0.2568 0.63033 0.89441 0.0
H534 H 0.27296 0.6916 0.94276 0.0
H535 H 0.23693 0.72326 0.95881 0.0
H536 H 0.071 0.52637 0.80655 0.0
H537 H 0.17084 0.52615 0.8081 0.0
H538 H 0.25149 0.57622 0.84974 0.0
H539 H 0.25087 0.61034 0.87791 0.0
Mn540 Mn 0.406 0.05653 0.40024 0.0
Mn541 Mn 0.47942 0.13575 0.3691 0.0
C542 C 0.46381 0.05969 0.39132 0.0
C543 C 0.37484 0.02826 0.44921 0.0
C544 C 0.41018 0.0792 0.32907 0.0
O545 O 0.38894 0.0956 0.40389 0.0
O546 O 0.4443 0.14863 0.39173 0.0
C547 C 0.51166 0.16797 0.43088 0.0
N548 N 0.51853 0.16051 0.40067 0.0
C549 C 0.59175 0.20082 0.40681 0.0
C550 C 0.57854 0.20513 0.43999 0.0
C551 C 0.54138 0.18912 0.45106 0.0
C552 C 0.55396 0.17047 0.3893 0.0
H553 H 0.48298 0.15721 0.43951 0.0
C554 C 0.4098 0.1315 0.40156 0.0
O555 O 0.35747 0.0164 0.42138 0.0
O556 O 0.40962 0.05556 0.44827 0.0
N557 N 0.51578 0.12818 0.34665 0.0
C558 C 0.50778 0.10561 0.32018 0.0
C559 C 0.53608 0.10786 0.30006 0.0
C560 C 0.57395 0.13546 0.30353 0.0
C561 C 0.58833 0.16329 0.33263 0.0
C562 C 0.55163 0.15276 0.35713 0.0
H563 H 0.47879 0.08501 0.31427 0.0
O564 O 0.43357 0.02692 0.39585 0.0
O565 O 0.45911 0.08877 0.3929 0.0
O566 O 0.3947 0.0527 0.35052 0.0
O567 O 0.44036 0.11124 0.3344 0.0
C568 C 0.65272 0.21373 0.34859 0.0
C569 C 0.65343 0.22988 0.38059 0.0
H570 H 0.59613 0.22227 0.45997 0.0
H571 H 0.53563 0.1947 0.47562 0.0
H572 H 0.52824 0.08824 0.27992 0.0
H573 H 0.58657 0.15437 0.32003 0.0
H574 H 0.6812 0.22622 0.33756 0.0
H575 H 0.68235 0.25202 0.38754 0.0
Mn576 Mn 0.33483 0.41261 0.90848 0.0
Mn577 Mn 0.33354 0.49119 0.88341 0.0
C578 C 0.39092 0.46824 0.90062 0.0
C579 C 0.3298 0.37693 0.95557 0.0
C580 C 0.32792 0.43056 0.83583 0.0
O581 O 0.27934 0.39609 0.91322 0.0
O582 O 0.2821 0.44935 0.89503 0.0
C583 C 0.30857 0.50353 0.94983 0.0
N584 N 0.33314 0.51733 0.9242 0.0
C585 C 0.34882 0.58649 0.9453 0.0
C586 C 0.3229 0.56788 0.97011 0.0
C587 C 0.30422 0.52771 0.97255 0.0
C588 C 0.35521 0.55446 0.92159 0.0
H589 H 0.29129 0.47325 0.95301 0.0
C590 C 0.26389 0.41545 0.9059 0.0
O591 O 0.32409 0.36153 0.92675 0.0
O592 O 0.33915 0.41222 0.95651 0.0
N593 N 0.38113 0.53684 0.86838 0.0
C594 C 0.40173 0.54043 0.83748 0.0
C595 C 0.42705 0.5793 0.81773 0.0
C596 C 0.43353 0.64242 0.83922 0.0
C597 C 0.41036 0.63509 0.87255 0.0
C598 C 0.38104 0.56676 0.88756 0.0
H599 H 0.39745 0.51468 0.82586 0.0
O600 O 0.39067 0.43639 0.9036 0.0
O601 O 0.35885 0.46739 0.90514 0.0
O602 O 0.32835 0.4075 0.85741 0.0
O603 O 0.33111 0.46303 0.84287 0.0
C604 C 0.40003 0.66187 0.90134 0.0
C605 C 0.36902 0.63705 0.93715 0.0
H606 H 0.31625 0.58406 0.98716 0.0
H607 H 0.28406 0.51438 0.99217 0.0
H608 H 0.43866 0.57343 0.79573 0.0
H609 H 0.44852 0.67168 0.83009 0.0
H610 H 0.41532 0.69399 0.89382 0.0
H611 H 0.38566 0.65397 0.91982 0.0
Mn612 Mn 0.93627 0.34211 0.405 0.0
Mn613 Mn 0.85427 0.33808 0.38331 0.0
C614 C 0.93294 0.39664 0.40147 0.0
C615 C 0.9693 0.33656 0.44958 0.0
C616 C 0.91168 0.34156 0.33306 0.0
O617 O 0.89991 0.28584 0.40756 0.0
O618 O 0.8487 0.2869 0.38903 0.0
C619 C 0.82049 0.3051 0.4494 0.0
N620 N 0.82846 0.33188 0.42598 0.0
C621 C 0.77483 0.34211 0.4547 0.0
C622 C 0.77086 0.3148 0.47708 0.0
C623 C 0.79372 0.29762 0.47473 0.0
C624 C 0.81247 0.35341 0.42826 0.0
H625 H 0.83436 0.28837 0.44874 0.0
C626 C 0.86575 0.2693 0.39825 0.0
O627 O 0.97896 0.33342 0.41997 0.0
O628 O 0.94188 0.34356 0.45273 0.0
N629 N 0.85101 0.38452 0.37383 0.0
C630 C 0.86438 0.40693 0.3435 0.0
C631 C 0.84591 0.42933 0.3267 0.0
C632 C 0.78713 0.42828 0.35186 0.0
C633 C 0.77482 0.40317 0.38568 0.0
C634 C 0.82098 0.38043 0.39537 0.0
H635 H 0.88719 0.40661 0.33033 0.0
O636 O 0.96562 0.39844 0.40275 0.0
O637 O 0.9031 0.36344 0.40499 0.0
O638 O 0.93433 0.33914 0.35386 0.0
O639 O 0.88173 0.34326 0.34118 0.0
C640 C 0.73883 0.38705 0.41789 0.0
C641 C 0.73967 0.35708 0.45081 0.0
H642 H 0.74907 0.30542 0.49558 0.0
H643 H 0.78915 0.27595 0.49237 0.0
H644 H 0.86356 0.44464 0.30657 0.0
H645 H 0.77028 0.44148 0.34495 0.0
H646 H 0.75574 0.39987 0.39665 0.0
H647 H 0.73246 0.37362 0.43579 0.0
Mn648 Mn 0.06749 0.40356 0.62116 0.0
Mn649 Mn 0.14841 0.47983 0.64309 0.0
C650 C 0.06704 0.46036 0.62878 0.0
C651 C 0.04029 0.36993 0.57278 0.0
C652 C 0.09529 0.41389 0.68994 0.0
O653 O 0.10747 0.38704 0.61923 0.0
O654 O 0.15663 0.44567 0.61401 0.0
C655 C 0.16983 0.51208 0.57663 0.0
N656 N 0.16357 0.51807 0.6079 0.0
C657 C 0.20182 0.59116 0.59853 0.0
C658 C 0.20173 0.58007 0.56453 0.0
C659 C 0.18596 0.5421 0.55455 0.0
C660 C 0.16928 0.55292 0.61661 0.0
H661 H 0.16178 0.48389 0.56809 0.0
C662 C 0.14202 0.40973 0.61237 0.0
O663 O 0.02885 0.35338 0.60096 0.0
O664 O 0.06635 0.40519 0.57311 0.0
N665 N 0.14929 0.51669 0.67286 0.0
C666 C 0.16202 0.51461 0.71012 0.0
C667 C 0.19017 0.55413 0.73595 0.0
C668 C 0.20884 0.6024 0.72574 0.0
C669 C 0.20112 0.61531 0.68678 0.0
C670 C 0.16011 0.55457 0.65256 0.0
H671 H 0.15631 0.4877 0.71986 0.0
O672 O 0.03546 0.42898 0.62396 0.0
O673 O 0.09695 0.45716 0.62819 0.0
O674 O 0.06643 0.39734 0.67077 0.0
O675 O 0.12884 0.44008 0.67996 0.0
C676 C 0.23311 0.65212 0.67072 0.0
C677 C 0.24145 0.65116 0.63331 0.0
H678 H 0.21569 0.59979 0.54476 0.0
H679 H 0.18869 0.536 0.52934 0.0
H680 H 0.19873 0.54818 0.75901 0.0
H681 H 0.22856 0.62411 0.74219 0.0
H682 H 0.25219 0.6762 0.68556 0.0
H683 H 0.26556 0.67917 0.62687 0.0
Mn684 Mn 0.64283 0.06551 0.11949 0.0
Mn685 Mn 0.63922 0.14077 0.14914 0.0
C686 C 0.58492 0.06286 0.12587 0.0
C687 C 0.64979 0.03584 0.07296 0.0
C688 C 0.64537 0.0849 0.1932 0.0
O689 O 0.69835 0.1067 0.11615 0.0
O690 O 0.69187 0.15186 0.14159 0.0
C691 C 0.67017 0.18428 0.08589 0.0
N692 N 0.64406 0.17175 0.1104 0.0
C693 C 0.63442 0.23079 0.09559 0.0
C694 C 0.65977 0.2383 0.07019 0.0
C695 C 0.67626 0.215 0.0652 0.0
C696 C 0.6235 0.18823 0.11448 0.0
H697 H 0.6869 0.1707 0.08184 0.0
C698 C 0.71221 0.13935 0.12906 0.0
O699 O 0.65566 0.02668 0.10188 0.0
O700 O 0.63969 0.06129 0.07143 0.0
N701 N 0.58994 0.13659 0.16133 0.0
C702 C 0.5652 0.11488 0.18913 0.0
C703 C 0.53873 0.12655 0.20945 0.0
C704 C 0.53824 0.18855 0.19505 0.0
C705 C 0.56572 0.20913 0.16464 0.0
C706 C 0.59381 0.17029 0.14589 0.0
H707 H 0.56714 0.09095 0.19827 0.0
O708 O 0.58661 0.03197 0.12315 0.0
O709 O 0.61688 0.0946 0.12317 0.0
O710 O 0.64895 0.0651 0.17029 0.0
O711 O 0.63781 0.11166 0.18813 0.0
C712 C 0.58126 0.25131 0.14106 0.0
C713 C 0.61571 0.26181 0.1069 0.0
H714 H 0.66696 0.26202 0.05412 0.0
H715 H 0.69606 0.22206 0.04525 0.0
H716 H 0.52323 0.10519 0.22821 0.0
H717 H 0.52323 0.20231 0.20534 0.0
H718 H 0.56743 0.26846 0.15132 0.0
H719 H 0.59774 0.26038 0.12385 0.0
Mn720 Mn 0.59028 0.65854 0.61164 0.0
Mn721 Mn 0.5122 0.66201 0.63431 0.0
C722 C 0.53399 0.60308 0.61955 0.0
C723 C 0.62589 0.66166 0.56494 0.0
C724 C 0.57123 0.66758 0.6835 0.0
O725 O 0.60809 0.71429 0.60612 0.0
O726 O 0.55493 0.71304 0.6225 0.0
C727 C 0.5019 0.6861 0.56689 0.0
N728 N 0.48727 0.66191 0.59271 0.0
C729 C 0.4189 0.6461 0.56961 0.0
C730 C 0.43831 0.67155 0.5447 0.0
C731 C 0.4785 0.69012 0.54318 0.0
C732 C 0.45007 0.63999 0.59467 0.0
H733 H 0.53226 0.70337 0.56432 0.0
C734 C 0.58918 0.73053 0.61235 0.0
O735 O 0.64109 0.66767 0.59384 0.0
O736 O 0.59094 0.65321 0.56374 0.0
N737 N 0.46588 0.61503 0.64937 0.0
C738 C 0.46128 0.59507 0.68082 0.0
C739 C 0.42186 0.57039 0.7 0.0
C740 C 0.35962 0.56391 0.67646 0.0
C741 C 0.36804 0.58632 0.64262 0.0
C742 C 0.43667 0.61489 0.62911 0.0
H743 H 0.4866 0.59942 0.69322 0.0
O744 O 0.56552 0.60266 0.61731 0.0
O745 O 0.53561 0.63541 0.61423 0.0
O746 O 0.59448 0.66601 0.66271 0.0
O747 O 0.53925 0.66488 0.67553 0.0
C748 C 0.3423 0.59622 0.61254 0.0
C749 C 0.36821 0.62636 0.5766 0.0
H750 H 0.42272 0.67798 0.52688 0.0
H751 H 0.49246 0.70996 0.52346 0.0
H752 H 0.42699 0.5592 0.72259 0.0
H753 H 0.33014 0.54932 0.68503 0.0
H754 H 0.31007 0.58111 0.61945 0.0
H755 H 0.35074 0.61016 0.59386 0.0
Mn756 Mn 0.94199 0.6041 0.12798 0.0
Mn757 Mn 0.86515 0.52728 0.15346 0.0
C758 C 0.94305 0.5467 0.13134 0.0
C759 C 0.96879 0.63898 0.07997 0.0
C760 C 0.914 0.59589 0.1971 0.0
O761 O 0.8994 0.61717 0.12541 0.0
O762 O 0.84933 0.55755 0.12711 0.0
C763 C 0.82634 0.48747 0.09413 0.0
N764 N 0.84298 0.486 0.12214 0.0
C765 C 0.79528 0.41415 0.12854 0.0
C766 C 0.78184 0.41964 0.09668 0.0
C767 C 0.79776 0.4544 0.08025 0.0
C768 C 0.83546 0.45227 0.13468 0.0
H769 H 0.83441 0.51433 0.08259 0.0
C770 C 0.8642 0.59315 0.12149 0.0
O771 O 0.98 0.65514 0.10835 0.0
O772 O 0.94344 0.60352 0.07991 0.0
N773 N 0.87905 0.49754 0.18064 0.0
C774 C 0.88635 0.50826 0.21874 0.0
C775 C 0.87187 0.47657 0.25139 0.0
C776 C 0.84734 0.42649 0.24917 0.0
C777 C 0.83357 0.4034 0.20964 0.0
C778 C 0.8587 0.45614 0.1651 0.0
H779 H 0.9029 0.53706 0.22597 0.0
O780 O 0.97465 0.57882 0.12963 0.0
O781 O 0.91308 0.55006 0.13139 0.0
O782 O 0.94381 0.61151 0.17889 0.0
O783 O 0.8829 0.56767 0.18709 0.0
C784 C 0.79305 0.36411 0.20322 0.0
C785 C 0.76979 0.36113 0.1717 0.0
H786 H 0.75779 0.39791 0.08336 0.0
H787 H 0.78548 0.4562 0.05738 0.0
H788 H 0.88171 0.49053 0.27451 0.0
H789 H 0.83747 0.40879 0.23065 0.0
H790 H 0.78025 0.34306 0.22226 0.0
H791 H 0.74323 0.33359 0.17264 0.0
Mn792 Mn 0.34875 0.92916 0.621 0.0
Mn793 Mn 0.35106 0.85316 0.65092 0.0
C794 C 0.40574 0.93147 0.62843 0.0
C795 C 0.34297 0.95879 0.57398 0.0
C796 C 0.34568 0.90965 0.69475 0.0
O797 O 0.29375 0.88867 0.61683 0.0
O798 O 0.29844 0.84306 0.64345 0.0
C799 C 0.3176 0.80682 0.58928 0.0
N800 N 0.34548 0.82123 0.61239 0.0
C801 C 0.3579 0.76422 0.59547 0.0
C802 C 0.32944 0.75395 0.57248 0.0
C803 C 0.31074 0.77538 0.56911 0.0
C804 C 0.36745 0.80601 0.61535 0.0
H805 H 0.29953 0.81904 0.58619 0.0
C806 C 0.27905 0.85638 0.63025 0.0
O807 O 0.33666 0.96827 0.60265 0.0
O808 O 0.35284 0.93318 0.57304 0.0
N809 N 0.40042 0.8571 0.66289 0.0
C810 C 0.42525 0.87877 0.69072 0.0
C811 C 0.45329 0.86823 0.70983 0.0
C812 C 0.45666 0.80828 0.69316 0.0
C813 C 0.42902 0.78761 0.66281 0.0
C814 C 0.39775 0.82437 0.64644 0.0
H815 H 0.42255 0.90199 0.70063 0.0
O816 O 0.40431 0.96247 0.6255 0.0
O817 O 0.374 0.89951 0.625 0.0
O818 O 0.34191 0.92937 0.67185 0.0
O819 O 0.35322 0.8829 0.68965 0.0
C820 C 0.41483 0.74635 0.63803 0.0
C821 C 0.3791 0.735 0.60489 0.0
H822 H 0.32116 0.72911 0.5575 0.0
H823 H 0.28866 0.76632 0.55091 0.0
H824 H 0.46846 0.88938 0.72884 0.0
H825 H 0.47294 0.79543 0.70248 0.0
H826 H 0.43102 0.73061 0.64611 0.0
H827 H 0.39801 0.73718 0.62112 0.0
Mn828 Mn 0.39599 0.3415 0.12689 0.0
Mn829 Mn 0.47292 0.33573 0.14118 0.0
C830 C 0.45397 0.39834 0.13209 0.0
C831 C 0.36023 0.33682 0.07982 0.0
C832 C 0.41253 0.32252 0.19323 0.0
O833 O 0.37852 0.28461 0.1237 0.0
O834 O 0.43611 0.29355 0.11317 0.0
C835 C 0.49652 0.34797 0.07264 0.0
N836 N 0.50675 0.35901 0.10389 0.0
C837 C 0.57718 0.38743 0.08925 0.0
C838 C 0.56261 0.37816 0.05579 0.0
C839 C 0.52384 0.35991 0.04831 0.0
C840 C 0.54296 0.38616 0.11068 0.0
H841 H 0.46704 0.33015 0.06605 0.0
C842 C 0.40018 0.27223 0.11438 0.0
O843 O 0.34505 0.33155 0.10866 0.0
O844 O 0.39504 0.34492 0.07883 0.0
N845 N 0.51257 0.37176 0.16948 0.0
C846 C 0.51259 0.35572 0.20577 0.0
C847 C 0.55289 0.36221 0.2278 0.0
C848 C 0.6004 0.38798 0.21426 0.0
C849 C 0.61127 0.40968 0.17587 0.0
C850 C 0.54913 0.39695 0.14714 0.0
H851 H 0.48621 0.33664 0.21723 0.0
O852 O 0.42275 0.39941 0.13001 0.0
O853 O 0.44952 0.36484 0.13088 0.0
O854 O 0.39431 0.33569 0.177 0.0
O855 O 0.43686 0.31465 0.17982 0.0
C856 C 0.64439 0.41027 0.15633 0.0
C857 C 0.6386 0.40086 0.11878 0.0
H858 H 0.57979 0.38216 0.03443 0.0
H859 H 0.51479 0.35218 0.02332 0.0
H860 H 0.54691 0.34668 0.25035 0.0
H861 H 0.62249 0.38602 0.22719 0.0
H862 H 0.66873 0.41226 0.16886 0.0
H863 H 0.66442 0.40152 0.10971 0.0
C864 C 0.38547 0.04153 0.27683 0.0
C865 C 0.39398 0.07379 0.29568 0.0
H866 H 0.37704 0.0179 0.22858 0.0
C867 C 0.39308 0.10441 0.28056 0.0
H868 H 0.38627 0.01765 0.28773 0.0
C869 C 0.38716 0.10432 0.247 0.0
C870 C 0.38271 0.0739 0.22744 0.0
H871 H 0.39932 0.12959 0.29445 0.0
H872 H 0.38944 0.12961 0.23594 0.0
C873 C 0.37996 0.04162 0.24293 0.0
C874 C 0.2966 0.42418 0.74762 0.0
C875 C 0.31924 0.41234 0.73094 0.0
H876 H 0.28213 0.43957 0.79313 0.0
C877 C 0.34124 0.40141 0.7499 0.0
H878 H 0.27893 0.43245 0.73419 0.0
C879 C 0.34253 0.40488 0.78426 0.0
C880 C 0.32221 0.41981 0.80042 0.0
H881 H 0.3592 0.39228 0.73811 0.0
H882 H 0.36117 0.39809 0.79792 0.0
C883 C 0.29851 0.42839 0.78159 0.0
C884 C 0.93169 0.37951 0.24644 0.0
C885 C 0.92792 0.3485 0.22794 0.0
H886 H 0.92974 0.40163 0.29339 0.0
C887 C 0.92321 0.31632 0.24508 0.0
H888 H 0.93503 0.40467 0.23443 0.0
C889 C 0.92024 0.31465 0.27952 0.0
C890 C 0.9213 0.34486 0.29748 0.0
H891 H 0.91899 0.29143 0.23181 0.0
H892 H 0.9147 0.28882 0.29187 0.0
C893 C 0.92824 0.37766 0.28046 0.0
C894 C 0.60655 0.89157 0.74411 0.0
C895 C 0.61094 0.92316 0.72639 0.0
H896 H 0.59538 0.86381 0.7904 0.0
C897 C 0.6148 0.95483 0.74387 0.0
H898 H 0.60354 0.86674 0.73151 0.0
C899 C 0.61043 0.95326 0.77799 0.0
C900 C 0.60192 0.91992 0.79511 0.0
H901 H 0.6178 0.97946 0.731 0.0
H902 H 0.61048 0.97679 0.79052 0.0
C903 C 0.60168 0.88981 0.77791 0.0
C904 C 0.70022 0.57346 0.26884 0.0
C905 C 0.67834 0.58482 0.28731 0.0
H906 H 0.71189 0.55832 0.22199 0.0
C907 C 0.65481 0.59534 0.27023 0.0
H908 H 0.71895 0.56547 0.28085 0.0
C909 C 0.65128 0.59185 0.23595 0.0
C910 C 0.67076 0.57723 0.21806 0.0
H911 H 0.63736 0.60406 0.28346 0.0
H912 H 0.63161 0.5984 0.22373 0.0
C913 C 0.69602 0.56914 0.23496 0.0
C914 C 0.06323 0.61763 0.74489 0.0
C915 C 0.07383 0.6511 0.72734 0.0
H916 H 0.04968 0.58985 0.79109 0.0
C917 C 0.07482 0.68198 0.74412 0.0
H918 H 0.06174 0.59318 0.73279 0.0
C919 C 0.06838 0.68029 0.77815 0.0
C920 C 0.05976 0.64731 0.79605 0.0
H921 H 0.08299 0.70827 0.73133 0.0
H922 H 0.07302 0.70571 0.79077 0.0
C923 C 0.05589 0.61565 0.77847 0.0
C924 C 0.879 0.59076 0.24931 0.0
C925 C 0.91428 0.60368 0.23325 0.0
H926 H 0.84703 0.57272 0.2939 0.0
C927 C 0.94616 0.61335 0.25297 0.0
H928 H 0.85354 0.5828 0.23526 0.0
C929 C 0.94226 0.60766 0.28709 0.0
C930 C 0.90632 0.59167 0.30262 0.0
H931 H 0.97358 0.6225 0.24188 0.0
H932 H 0.96728 0.61379 0.30107 0.0
C933 C 0.87501 0.58444 0.28315 0.0
C934 C 0.35284 0.94354 0.78245 0.0
C935 C 0.32503 0.90982 0.79763 0.0
H936 H 0.38135 0.97041 0.73759 0.0
C937 C 0.30096 0.87889 0.77768 0.0
H938 H 0.37209 0.96785 0.79705 0.0
C939 C 0.30645 0.88038 0.74398 0.0
C940 C 0.33575 0.913 0.72899 0.0
H941 H 0.27912 0.85259 0.78835 0.0
H942 H 0.28879 0.85513 0.72967 0.0
C943 C 0.3582 0.9451 0.74839 0.0
C944 C 0.40146 0.34369 0.28267 0.0
C945 C 0.4157 0.32307 0.29926 0.0
H946 H 0.38923 0.35984 0.23619 0.0
C947 C 0.42361 0.29851 0.28086 0.0
H948 H 0.39526 0.36301 0.29597 0.0
C949 C 0.41944 0.29604 0.24688 0.0
C950 C 0.40821 0.31885 0.22977 0.0
H951 H 0.43428 0.2819 0.29275 0.0
H952 H 0.42705 0.27761 0.23381 0.0
C953 C 0.39794 0.34175 0.24832 0.0
C954 C 0.11937 0.41188 0.74674 0.0
C955 C 0.08889 0.4037 0.72577 0.0
H956 H 0.13891 0.41589 0.79575 0.0
C957 C 0.05233 0.38829 0.74002 0.0
H958 H 0.1478 0.42323 0.73705 0.0
C959 C 0.04703 0.38403 0.7742 0.0
C960 C 0.07812 0.39474 0.79526 0.0
H961 H 0.02794 0.38156 0.72489 0.0
H962 H 0.01912 0.37505 0.78415 0.0
C963 C 0.11404 0.40724 0.78065 0.0
C964 C 0.64205 0.05135 0.28064 0.0
C965 C 0.67077 0.08502 0.29528 0.0
H966 H 0.61128 0.02444 0.23652 0.0
C967 C 0.69378 0.11591 0.27493 0.0
H968 H 0.62353 0.02709 0.29556 0.0
C969 C 0.68637 0.11452 0.24156 0.0
C970 C 0.65626 0.08195 0.22722 0.0
H971 H 0.71626 0.14219 0.28515 0.0
H972 H 0.70331 0.13974 0.22707 0.0
C973 C 0.63488 0.04981 0.24685 0.0
C974 C 0.59487 0.65381 0.73662 0.0
C975 C 0.58111 0.67423 0.71903 0.0
H976 H 0.60544 0.63795 0.78391 0.0
C977 C 0.57247 0.69882 0.73654 0.0
H978 H 0.60163 0.63448 0.72401 0.0
C979 C 0.57541 0.70147 0.77057 0.0
C980 C 0.5861 0.67882 0.78861 0.0
H981 H 0.56215 0.7153 0.72387 0.0
H982 H 0.56713 0.71981 0.78293 0.0
C983 C 0.59715 0.65593 0.77103 0.0
C984 C 0.3999 0.18594 0.08255 0.0
C985 C 0.37925 0.15941 0.10698 0.0
H986 H 0.42208 0.24288 0.06545 0.0
C987 C 0.35738 0.16734 0.12875 0.0
H988 H 0.41727 0.18062 0.0657 0.0
C989 C 0.36014 0.20329 0.12862 0.0
C990 C 0.38499 0.23152 0.10686 0.0
H991 H 0.34187 0.14764 0.14821 0.0
H992 H 0.3464 0.2103 0.14783 0.0
C993 C 0.40282 0.22168 0.08254 0.0
C994 C 0.17258 0.37139 0.62606 0.0
C995 C 0.168 0.3955 0.6043 0.0
H996 H 0.21177 0.35575 0.64601 0.0
C997 C 0.19538 0.41435 0.58006 0.0
H998 H 0.15194 0.3569 0.64517 0.0
C999 C 0.22921 0.41347 0.58039 0.0
C1000 C 0.2363 0.39398 0.60513 0.0
H1001 H 0.19237 0.43304 0.56301 0.0
H1002 H 0.25158 0.43162 0.56362 0.0
C1003 C 0.20677 0.37066 0.6265 0.0
C1004 C 0.80474 0.21535 0.16156 0.0
C1005 C 0.82511 0.23109 0.13279 0.0
H1006 H 0.75269 0.17286 0.18266 0.0
C1007 C 0.81138 0.21123 0.10332 0.0
H1008 H 0.81469 0.23036 0.18449 0.0
C1009 C 0.77555 0.17811 0.10224 0.0
C1010 C 0.75352 0.16494 0.13064 0.0
H1011 H 0.82637 0.22335 0.08076 0.0
H1012 H 0.76365 0.16515 0.07893 0.0
C1013 C 0.76925 0.18258 0.16048 0.0
C1014 C 0.62537 0.79632 0.6334 0.0
C1015 C 0.60669 0.77153 0.6074 0.0
H1016 H 0.64074 0.85017 0.65508 0.0
C1017 C 0.59709 0.78498 0.57969 0.0
H1018 H 0.63256 0.78612 0.65512 0.0
C1019 C 0.60165 0.82137 0.57968 0.0
C1020 C 0.61611 0.8446 0.6073 0.0
H1021 H 0.58275 0.76623 0.55937 0.0
H1022 H 0.58988 0.82964 0.55972 0.0
C1023 C 0.63039 0.83299 0.63323 0.0
C1024 C 0.79132 0.62148 0.13294 0.0
C1025 C 0.76674 0.6009 0.10733 0.0
H1026 H 0.84381 0.63631 0.157 0.0
C1027 C 0.77967 0.58693 0.08215 0.0
H1028 H 0.78144 0.63183 0.15286 0.0
C1029 C 0.81499 0.58932 0.08456 0.0
C1030 C 0.83774 0.60592 0.11207 0.0
H1031 H 0.76111 0.57089 0.06225 0.0
H1032 H 0.82274 0.57469 0.0667 0.0
C1033 C 0.82693 0.62413 0.13525 0.0
C1034 C 0.21998 0.81593 0.66033 0.0
C1035 C 0.2377 0.83221 0.63075 0.0
H1036 H 0.17189 0.77 0.68335 0.0
C1037 C 0.21697 0.81987 0.60163 0.0
H1038 H 0.23558 0.82533 0.68303 0.0
C1039 C 0.18036 0.78805 0.60181 0.0
C1040 C 0.16459 0.76892 0.63113 0.0
H1041 H 0.23044 0.83212 0.57858 0.0
H1042 H 0.16656 0.77581 0.57883 0.0
C1043 C 0.18345 0.78467 0.66055 0.0
C1044 C 0.80253 0.57995 0.44458 0.0
C1045 C 0.83203 0.59967 0.42218 0.0
H1046 H 0.74469 0.56126 0.45659 0.0
C1047 C 0.82912 0.62405 0.39955 0.0
H1048 H 0.80426 0.56113 0.46233 0.0
C1049 C 0.79477 0.62409 0.39623 0.0
C1050 C 0.76349 0.59988 0.41563 0.0
H1051 H 0.85145 0.63929 0.38187 0.0
H1052 H 0.79135 0.63929 0.37606 0.0
C1053 C 0.76849 0.58006 0.44132 0.0
C1054 C 0.1726 0.78736 0.86834 0.0
C1055 C 0.15455 0.76583 0.89607 0.0
H1056 H 0.22103 0.83726 0.84977 0.0
C1057 C 0.16757 0.78153 0.92706 0.0
H1058 H 0.16314 0.77543 0.84426 0.0
C1059 C 0.20107 0.81653 0.93022 0.0
C1060 C 0.22107 0.83649 0.90242 0.0
H1061 H 0.15428 0.76495 0.94871 0.0
H1062 H 0.21336 0.82599 0.95419 0.0
C1063 C 0.20539 0.82284 0.87153 0.0
C1064 C 0.40237 0.17668 0.43624 0.0
C1065 C 0.39336 0.15559 0.40736 0.0
H1066 H 0.41329 0.22903 0.45822 0.0
C1067 C 0.38028 0.16673 0.38032 0.0
H1068 H 0.41325 0.1687 0.45704 0.0
C1069 C 0.38109 0.20144 0.38072 0.0
C1070 C 0.39449 0.22471 0.40833 0.0
H1071 H 0.37404 0.15103 0.35764 0.0
H1072 H 0.37538 0.21193 0.35841 0.0
C1073 C 0.4026 0.21114 0.43681 0.0
C1074 C 0.19804 0.38205 0.88523 0.0
C1075 C 0.22322 0.3994 0.91122 0.0
H1076 H 0.14448 0.36889 0.86439 0.0
C1077 C 0.21091 0.40966 0.93933 0.0
H1078 H 0.20742 0.3745 0.8632 0.0
C1079 C 0.17538 0.40706 0.93982 0.0
C1080 C 0.1517 0.39338 0.91248 0.0
H1081 H 0.22997 0.42295 0.95966 0.0
H1082 H 0.16798 0.41912 0.96018 0.0
C1083 C 0.1621 0.37867 0.88601 0.0
C1084 C 0.79428 0.17668 0.43297 0.0
C1085 C 0.77714 0.15686 0.40423 0.0
H1086 H 0.83811 0.2288 0.45345 0.0
C1087 C 0.7959 0.17037 0.37441 0.0
H1088 H 0.77966 0.16707 0.45606 0.0
C1089 C 0.82836 0.20621 0.37274 0.0
C1090 C 0.84281 0.22803 0.40104 0.0
H1091 H 0.78253 0.15585 0.35192 0.0
H1092 H 0.83978 0.21839 0.34911 0.0
C1093 C 0.82738 0.21208 0.4314 0.0
C1094 C 0.62544 0.79399 0.88941 0.0
C1095 C 0.60294 0.76561 0.91196 0.0
H1096 H 0.63811 0.84762 0.86863 0.0
C1097 C 0.58397 0.7738 0.93646 0.0
H1098 H 0.63976 0.78802 0.86999 0.0
C1099 C 0.58285 0.80754 0.93556 0.0
C1100 C 0.60106 0.83366 0.91039 0.0
H1101 H 0.56625 0.75219 0.95396 0.0
H1102 H 0.56445 0.81131 0.95241 0.0
C1103 C 0.62438 0.82799 0.88856 0.0
C1104 C 0.30753 0.95653 1.00644 0.0
C1105 C 0.3235 0.97929 0.9786 0.0
H1106 H 0.30272 0.95477 0.05854 0.0
C1107 C 0.34211 0.01891 0.98184 0.0
H1108 H 0.29296 0.9258 1.00453 0.0
C1109 C 0.34821 0.03539 0.01283 0.0
C1110 C 0.33506 0.01253 0.04094 0.0
H1111 H 0.35489 0.03706 0.96088 0.0
H1112 H 0.36547 0.06602 0.01499 0.0
C1113 C 0.31288 0.97303 0.03736 0.0
C1114 C 0.36739 0.31989 0.51488 0.0
C1115 C 0.3568 0.33203 0.48657 0.0
H1116 H 0.3688 0.31977 0.56722 0.0
C1117 C 0.33404 0.34877 0.4899 0.0
H1118 H 0.38504 0.3069 0.51302 0.0
C1119 C 0.32534 0.35666 0.52099 0.0
C1120 C 0.3384 0.34711 0.54932 0.0
H1121 H 0.3258 0.35874 0.46866 0.0
H1122 H 0.31042 0.37249 0.5229 0.0
C1123 C 0.35791 0.32696 0.54597 0.0
C1124 C 0.96035 0.31757 0.98015 0.0
C1125 C -9e-05 0.33679 0.97654 0.0
H1126 H 0.91387 0.29919 0.01351 0.0
C1127 C 0.02285 0.34532 1.0045 0.0
H1128 H 0.94211 0.31119 0.95908 0.0
C1129 C 0.00675 0.33794 0.03567 0.0
C1130 C 0.96751 0.32278 0.03931 0.0
H1131 H 0.05353 0.36043 1.00229 0.0
H1132 H 0.02529 0.34754 0.05672 0.0
C1133 C 0.9443 0.31099 1.01133 0.0
C1134 C 0.65248 0.97799 0.48231 0.0
C1135 C 0.673 0.01741 0.47782 0.0
H1136 H 0.62655 0.93261 0.51687 0.0
C1137 C 0.6897 0.04118 0.50508 0.0
H1138 H 0.63908 0.95913 0.46182 0.0
C1139 C 0.68301 0.02608 0.53658 0.0
C1140 C 0.65886 0.98705 0.54127 0.0
H1141 H 0.70571 0.0718 0.50218 0.0
H1142 H 0.69375 0.04525 0.55721 0.0
C1143 C 0.64517 0.96296 0.51385 0.0
C1144 C 0.64357 0.66602 0.03146 0.0
C1145 C 0.66224 0.64506 0.03468 0.0
H1146 H 0.61842 0.68807 0.99847 0.0
C1147 C 0.67629 0.63642 1.00645 0.0
H1148 H 0.63205 0.67262 0.05265 0.0
C1149 C 0.6691 0.64576 0.97541 0.0
C1150 C 0.64694 0.66315 0.97205 0.0
H1151 H 0.69068 0.62007 1.0083 0.0
H1152 H 0.67781 0.63625 0.95414 0.0
C1153 C 0.63566 0.67464 1.00038 0.0
C1154 C 0.97792 0.64696 0.54229 0.0
C1155 C 0.01764 0.66631 0.54398 0.0
H1156 H 0.9292 0.61979 0.51113 0.0
C1157 C 0.03885 0.67993 0.51506 0.0
H1158 H 0.96098 0.63586 0.56414 0.0
C1159 C 0.02072 0.67138 0.48472 0.0
C1160 C 0.98118 0.64829 0.48293 0.0
H1161 H 0.06962 0.69492 0.5158 0.0
H1162 H 0.0378 0.6797 0.4628 0.0
C1163 C 0.95983 0.63763 0.51194 0.0
C1164 C 0.65921 0.02155 0.98347 0.0
C1165 C 0.63854 0.9818 0.98109 0.0
H1166 H 0.67879 0.06991 0.01501 0.0
C1167 C 0.62741 0.96007 1.00988 0.0
H1168 H 0.66774 0.03893 0.96173 0.0
C1169 C 0.63454 0.97776 0.04043 0.0
C1170 C 0.65196 0.01743 0.04259 0.0
H1171 H 0.61127 0.9293 1.00867 0.0
H1172 H 0.62359 0.96035 0.06205 0.0
C1173 C 0.66537 0.0392 0.01395 0.0
C1174 C 0.64567 0.66844 0.47468 0.0
C1175 C 0.66217 0.64543 0.47148 0.0
H1176 H 0.62131 0.69169 0.50739 0.0
C1177 C 0.67314 0.63391 0.49994 0.0
H1178 H 0.63655 0.67737 0.45332 0.0
C1179 C 0.66517 0.64274 0.53096 0.0
C1180 C 0.64527 0.66252 0.53406 0.0
H1181 H 0.68589 0.61603 0.49818 0.0
H1182 H 0.67153 0.63121 0.55226 0.0
C1183 C 0.63688 0.67649 0.50567 0.0
C1184 C 0.96054 0.64699 0.02104 0.0
C1185 C 0.9847 0.65768 0.04841 0.0
H1186 H 0.95613 0.6427 0.96892 0.0
C1187 C 0.02405 0.67864 0.04364 0.0
H1188 H 0.92999 0.63064 0.02413 0.0
C1189 C 0.03892 0.68491 0.01201 0.0
C1190 C 0.01471 0.67101 0.98469 0.0
H1191 H 0.04326 0.68682 0.06419 0.0
H1192 H 0.06943 0.69818 1.009 0.0
C1193 C 0.97542 0.65397 0.98941 0.0
C1194 C 0.36098 0.01657 0.54024 0.0
C1195 C 0.34164 0.9769 0.5432 0.0
H1196 H 0.38689 0.06402 0.50758 0.0
C1197 C 0.32775 0.95445 0.51489 0.0
H1198 H 0.37242 0.03446 0.56158 0.0
C1199 C 0.33529 0.97128 0.48401 0.0
C1200 C 0.35783 0.01082 0.48093 0.0
H1201 H 0.31293 0.9237 0.51658 0.0
H1202 H 0.32626 0.95325 0.46261 0.0
C1203 C 0.36943 0.03337 0.50932 0.0
C1204 C 0.35031 0.32356 0.02027 0.0
C1205 C 0.34146 0.33684 0.04887 0.0
H1206 H 0.35248 0.3248 0.96795 0.0
C1207 C 0.32246 0.35753 0.04602 0.0
H1208 H 0.36527 0.30774 0.02181 0.0
C1209 C 0.31595 0.36796 0.01516 0.0
C1210 C 0.32754 0.3572 0.9866 0.0
H1211 H 0.31584 0.36861 0.0675 0.0
H1212 H 0.30392 0.38648 0.0137 0.0
C1213 C 0.34299 0.33324 0.98939 0.0
C1214 C 0.98437 0.3265 0.53833 0.0
C1215 C 0.02346 0.35174 0.5412 0.0
H1216 H 0.93644 0.30163 0.50616 0.0
C1217 C 0.04555 0.36523 0.51267 0.0
H1218 H 0.96669 0.31587 0.55982 0.0
C1219 C 0.0284 0.35651 0.48189 0.0
C1220 C 0.98881 0.33477 0.47928 0.0
H1221 H 0.07588 0.38467 0.51424 0.0
H1222 H 0.04566 0.36976 0.46055 0.0
C1223 C 0.96715 0.31844 0.5076 0.0
C1224 C 0.48517 0.03499 0.1516 0.0
C1225 C 0.4768 0.05629 0.12977 0.0
H1226 H 0.52669 0.02026 0.16717 0.0
C1227 C 0.503 0.07738 0.10535 0.0
H1228 H 0.46463 0.01731 0.1698 0.0
C1229 C 0.53884 0.0807 0.10486 0.0
C1230 C 0.54795 0.06082 0.12756 0.0
H1231 H 0.49581 0.09154 0.08671 0.0
H1232 H 0.55912 0.09811 0.08638 0.0
C1233 C 0.52043 0.03673 0.15011 0.0
C1234 C 0.49476 0.54543 0.65226 0.0
C1235 C 0.49893 0.56752 0.62463 0.0
H1236 H 0.45868 0.49333 0.6777 0.0
C1237 C 0.47219 0.55275 0.59957 0.0
H1238 H 0.51619 0.55613 0.6712 0.0
C1239 C 0.44101 0.51636 0.60243 0.0
C1240 C 0.43513 0.49554 0.63112 0.0
H1241 H 0.47607 0.56881 0.57745 0.0
H1242 H 0.4212 0.50461 0.58235 0.0
C1243 C 0.46241 0.50972 0.65584 0.0
C1244 C 0.96591 0.46678 0.13844 0.0
C1245 C 0.93614 0.43752 0.12034 0.0
H1246 H 0.98987 0.52342 0.15793 0.0
C1247 C 0.9118 0.44607 0.10272 0.0
H1248 H 0.98599 0.46138 0.15136 0.0
C1249 C 0.91566 0.48235 0.10501 0.0
C1250 C 0.94182 0.50972 0.12675 0.0
H1251 H 0.88997 0.42483 0.08717 0.0
H1252 H 0.89791 0.48888 0.08991 0.0
C1253 C 0.96813 0.50222 0.14229 0.0
C1254 C 0.45294 0.9164 0.60628 0.0
C1255 C 0.44264 0.93398 0.63026 0.0
H1256 H 0.49773 0.9095 0.58641 0.0
C1257 C 0.46947 0.95785 0.65338 0.0
H1258 H 0.43308 0.8994 0.58735 0.0
C1259 C 0.50559 0.9617 0.65399 0.0
C1260 C 0.51528 0.94288 0.63066 0.0
H1261 H 0.46212 0.97268 0.67134 0.0
H1262 H 0.52573 0.97904 0.6726 0.0
C1263 C 0.48956 0.9219 0.60592 0.0
C1264 C 0.54081 0.49196 0.15113 0.0
C1265 C 0.56272 0.49683 0.12323 0.0
H1266 H 0.4889 0.45518 0.17653 0.0
C1267 C 0.54796 0.47046 0.09783 0.0
H1268 H 0.55154 0.51298 0.17043 0.0
C1269 C 0.51171 0.43901 0.10056 0.0
C1270 C 0.491 0.43249 0.12942 0.0
H1271 H 0.56396 0.47478 0.07559 0.0
H1272 H 0.49997 0.41951 0.08025 0.0
C1273 C 0.50522 0.45938 0.15452 0.0
C1274 C 0.08594 0.52153 0.60244 0.0
C1275 C 0.06831 0.49674 0.62854 0.0
H1276 H 0.10162 0.57564 0.58139 0.0
C1277 C 0.04873 0.50525 0.65206 0.0
H1278 H 0.09877 0.51394 0.58287 0.0
C1279 C 0.04843 0.53943 0.6502 0.0
C1280 C 0.06859 0.56542 0.62535 0.0
H1281 H 0.0337 0.48553 0.67163 0.0
H1282 H 0.03324 0.54595 0.66843 0.0
C1283 C 0.08712 0.55631 0.60134 0.0
C1284 C 0.94954 0.49086 0.37235 0.0
C1285 C 0.93283 0.50033 0.39772 0.0
H1286 H 0.96256 0.44921 0.35388 0.0
C1287 C 0.91716 0.4762 0.4245 0.0
H1288 H 0.96283 0.51004 0.35207 0.0
C1289 C 0.91532 0.44115 0.42483 0.0
C1290 C 0.93122 0.43121 0.39918 0.0
H1291 H 0.90633 0.48448 0.44514 0.0
H1292 H 0.90264 0.42239 0.44548 0.0
C1293 C 0.94926 0.45643 0.37335 0.0
C1294 C 0.46974 0.90713 0.91616 0.0
C1295 C 0.49609 0.92924 0.89214 0.0
H1296 H 0.41524 0.8894 0.93746 0.0
C1297 C 0.48714 0.9499 0.87013 0.0
H1298 H 0.47689 0.89234 0.93426 0.0
C1299 C 0.45164 0.94749 0.87154 0.0
C1300 C 0.42506 0.92485 0.89525 0.0
H1301 H 0.5075 0.96773 0.85188 0.0
H1302 H 0.44519 0.96392 0.85458 0.0
C1303 C 0.4345 0.90514 0.91784 0.0
C1304 C 0.50435 0.45148 0.36779 0.0
C1305 C 0.50124 0.42798 0.39402 0.0
H1306 H 0.53999 0.50435 0.34326 0.0
C1307 C 0.5296 0.44079 0.41771 0.0
H1308 H 0.48176 0.44221 0.34997 0.0
C1309 C 0.56135 0.47673 0.41483 0.0
C1310 C 0.56607 0.49892 0.38728 0.0
H1311 H 0.52663 0.42358 0.43886 0.0
H1312 H 0.58237 0.48713 0.43407 0.0
C1313 C 0.53717 0.48674 0.36405 0.0
C1314 C 0.06964 0.51419 0.92219 0.0
C1315 C 0.04441 0.4867 0.90003 0.0
H1316 H 0.09468 0.57187 0.93952 0.0
C1317 C 0.01901 0.49412 0.88289 0.0
H1318 H 0.08664 0.50769 0.93831 0.0
C1319 C 0.02122 0.52961 0.88577 0.0
C1320 C 0.05019 0.55895 0.90444 0.0
H1321 H -0.00195 0.47287 0.86677 0.0
H1322 H 0.00173 0.53493 0.87179 0.0
C1323 C 0.07364 0.55056 0.92349 0.0
C1324 C 0.5637 0.08975 0.41606 0.0
C1325 C 0.57372 0.07123 0.39272 0.0
H1326 H 0.52013 0.10004 0.43384 0.0
C1327 C 0.54727 0.04833 0.369 0.0
H1328 H 0.58299 0.10562 0.43567 0.0
C1329 C 0.51114 0.04435 0.3684 0.0
C1330 C 0.50153 0.06372 0.39125 0.0
H1331 H 0.55426 0.03272 0.35154 0.0
H1332 H 0.49083 0.02639 0.35013 0.0
C1333 C 0.5278 0.08617 0.41521 0.0
C1334 C 0.47749 0.56145 0.91741 0.0
C1335 C 0.49911 0.56623 0.88942 0.0
H1336 H 0.42429 0.52746 0.94163 0.0
C1337 C 0.48554 0.53812 0.86535 0.0
H1338 H 0.48875 0.5819 0.9371 0.0
C1339 C 0.44964 0.50602 0.8688 0.0
C1340 C 0.42684 0.50291 0.89563 0.0
H1341 H 0.50255 0.54101 0.84409 0.0
H1342 H 0.43937 0.48398 0.85036 0.0
C1343 C 0.44096 0.5305 0.92008 0.0
loop_
_geom_bond_atom_site_label_1
_geom_bond_atom_site_label_2
_geom_bond_distance
_geom_bond_site_symmetry_2
_ccdc_geom_bond_type
Mn0 O5 2.095 . S
Mn0 O15 2.162 . S
Mn0 O16 2.297 . S
Mn0 O24 2.385 . S
Mn0 O25 2.209 . S
Mn0 O26 2.094 . S
Mn1 O6 2.121 . S
Mn1 N8 2.257 . S
Mn1 N17 2.282 . S
Mn1 O25 2.215 . S
Mn1 O27 2.117 . S
C2 O24 1.234 . S
C2 O25 1.283 . S
C3 O15 1.281 . S
C3 O16 1.236 . S
C4 O26 1.240 . S
C4 O27 1.264 . S
O5 Mn0 2.095 . S
O5 C14 1.250 . S
O6 Mn1 2.121 . S
O6 C14 1.258 . S
C7 N8 1.326 . S
C7 C11 1.460 . S
C7 H13 0.929 . S
N8 Mn1 2.257 . S
N8 C7 1.326 . S
N8 C12 1.362 . S
C9 C10 1.258 . S
C9 C12 1.431 . S
C9 C29 1.449 . S
C10 C9 1.258 . S
C10 C11 1.477 . S
C10 H30 0.931 . S
C11 C7 1.460 . S
C11 C10 1.477 . S
C11 H31 0.930 . S
C12 N8 1.362 . S
C12 C9 1.431 . S
C12 C22 1.476 . S
H13 C7 0.929 . S
C14 O5 1.250 . S
C14 O6 1.258 . S
O15 Mn0 2.162 . S
O15 C3 1.281 . S
O16 Mn0 2.297 . S
O16 C3 1.236 . S
N17 Mn1 2.282 . S
N17 C18 1.328 . S
N17 C22 1.318 . S
C18 N17 1.328 . S
C18 C19 1.457 . S
C18 H23 0.929 . S
C19 C18 1.457 . S
C19 C20 1.291 . S
C19 H32 0.931 . S
C20 C19 1.291 . S
C20 C21 1.373 . S
C20 H33 0.929 . S
C21 C20 1.373 . S
C21 C22 1.396 . S
C21 C28 1.403 . S
C22 C12 1.476 . S
C22 N17 1.318 . S
C22 C21 1.396 . S
H23 C18 0.929 . S
O24 Mn0 2.385 . S
O24 C2 1.234 . S
O25 Mn0 2.209 . S
O25 Mn1 2.215 . S
O25 C2 1.283 . S
O26 Mn0 2.094 . S
O26 C4 1.240 . S
O27 Mn1 2.117 . S
O27 C4 1.264 . S
C28 C21 1.403 . S
C28 C29 1.399 . S
C28 H34 0.929 . S
C29 C9 1.449 . S
C29 C28 1.399 . S
C29 H35 0.930 . S
H30 C10 0.931 . S
H31 C11 0.930 . S
H32 C19 0.931 . S
H33 C20 0.929 . S
H34 C28 0.929 . S
H35 C29 0.930 . S
Mn36 O41 2.095 . S
Mn36 O51 2.162 . S
Mn36 O52 2.297 . S
Mn36 O60 2.385 . S
Mn36 O61 2.209 . S
Mn36 O62 2.094 . S
Mn37 O42 2.121 . S
Mn37 N44 2.257 . S
Mn37 N53 2.282 . S
Mn37 O61 2.215 . S
Mn37 O63 2.117 . S
C38 O60 1.234 . S
C38 O61 1.283 . S
C39 O51 1.281 . S
C39 O52 1.236 . S
C40 O62 1.240 . S
C40 O63 1.264 . S
O41 Mn36 2.095 . S
O41 C50 1.250 . S
O42 Mn37 2.121 . S
O42 C50 1.258 . S
C43 N44 1.326 . S
C43 C47 1.460 . S
C43 H49 0.929 . S
N44 Mn37 2.257 . S
N44 C43 1.326 . S
N44 C48 1.362 . S
C45 C46 1.258 . S
C45 C48 1.431 . S
C45 C65 1.449 . S
C46 C45 1.258 . S
C46 C47 1.477 . S
C46 H66 0.931 . S
C47 C43 1.460 . S
C47 C46 1.477 . S
C47 H67 0.930 . S
C48 N44 1.362 . S
C48 C45 1.431 . S
C48 C58 1.476 . S
H49 C43 0.929 . S
C50 O41 1.250 . S
C50 O42 1.258 . S
O51 Mn36 2.162 . S
O51 C39 1.281 . S
O52 Mn36 2.297 . S
O52 C39 1.236 . S
N53 Mn37 2.282 . S
N53 C54 1.328 . S
N53 C58 1.318 . S
C54 N53 1.328 . S
C54 C55 1.457 . S
C54 H59 0.929 . S
C55 C54 1.457 . S
C55 C56 1.291 . S
C55 H68 0.931 . S
C56 C55 1.291 . S
C56 C57 1.373 . S
C56 H69 0.929 . S
C57 C56 1.373 . S
C57 C58 1.396 . S
C57 C64 1.403 . S
C58 C48 1.476 . S
C58 N53 1.318 . S
C58 C57 1.396 . S
H59 C54 0.929 . S
O60 Mn36 2.385 . S
O60 C38 1.234 . S
O61 Mn36 2.209 . S
O61 Mn37 2.215 . S
O61 C38 1.283 . S
O62 Mn36 2.094 . S
O62 C40 1.240 . S
O63 Mn37 2.117 . S
O63 C40 1.264 . S
C64 C57 1.403 . S
C64 C65 1.399 . S
C64 H70 0.929 . S
C65 C45 1.449 . S
C65 C64 1.399 . S
C65 H71 0.930 . S
H66 C46 0.931 . S
H67 C47 0.930 . S
H68 C55 0.931 . S
H69 C56 0.929 . S
H70 C64 0.929 . S
H71 C65 0.930 . S
Mn72 O77 2.095 . S
Mn72 O87 2.162 . S
Mn72 O88 2.297 . S
Mn72 O96 2.385 . S
Mn72 O97 2.209 . S
Mn72 O98 2.094 . S
Mn73 O78 2.121 . S
Mn73 N80 2.257 . S
Mn73 N89 2.282 . S
Mn73 O97 2.215 . S
Mn73 O99 2.117 . S
C74 O96 1.234 . S
C74 O97 1.283 . S
C75 O87 1.281 . S
C75 O88 1.236 . S
C76 O98 1.240 . S
C76 O99 1.264 . S
O77 Mn72 2.095 . S
O77 C86 1.250 . S
O78 Mn73 2.121 . S
O78 C86 1.258 . S
C79 N80 1.326 . S
C79 C83 1.460 . S
C79 H85 0.929 . S
N80 Mn73 2.257 . S
N80 C79 1.326 . S
N80 C84 1.362 . S
C81 C82 1.258 . S
C81 C84 1.431 . S
C81 C101 1.449 . S
C82 C81 1.258 . S
C82 C83 1.477 . S
C82 H102 0.931 . S
C83 C79 1.460 . S
C83 C82 1.477 . S
C83 H103 0.930 . S
C84 N80 1.362 . S
C84 C81 1.431 . S
C84 C94 1.476 . S
H85 C79 0.929 . S
C86 O77 1.250 . S
C86 O78 1.258 . S
O87 Mn72 2.162 . S
O87 C75 1.281 . S
O88 Mn72 2.297 . S
O88 C75 1.236 . S
N89 Mn73 2.282 . S
N89 C90 1.328 . S
N89 C94 1.318 . S
C90 N89 1.328 . S
C90 C91 1.457 . S
C90 H95 0.929 . S
C91 C90 1.457 . S
C91 C92 1.291 . S
C91 H104 0.931 . S
C92 C91 1.291 . S
C92 C93 1.373 . S
C92 H105 0.929 . S
C93 C92 1.373 . S
C93 C94 1.396 . S
C93 C100 1.403 . S
C94 C84 1.476 . S
C94 N89 1.318 . S
C94 C93 1.396 . S
H95 C90 0.929 . S
O96 Mn72 2.385 . S
O96 C74 1.234 . S
O97 Mn72 2.209 . S
O97 Mn73 2.215 . S
O97 C74 1.283 . S
O98 Mn72 2.094 . S
O98 C76 1.240 . S
O99 Mn73 2.117 . S
O99 C76 1.264 . S
C100 C93 1.403 . S
C100 C101 1.399 . S
C100 H106 0.929 . S
C101 C81 1.449 . S
C101 C100 1.399 . S
C101 H107 0.930 . S
H102 C82 0.931 . S
H103 C83 0.930 . S
H104 C91 0.931 . S
H105 C92 0.929 . S
H106 C100 0.929 . S
H107 C101 0.930 . S
Mn108 O113 2.095 . S
Mn108 O123 2.162 . S
Mn108 O124 2.297 . S
Mn108 O132 2.385 . S
Mn108 O133 2.209 . S
Mn108 O134 2.094 . S
Mn109 O114 2.121 . S
Mn109 N116 2.257 . S
Mn109 N125 2.282 . S
Mn109 O133 2.215 . S
Mn109 O135 2.117 . S
C110 O132 1.234 . S
C110 O133 1.283 . S
C111 O123 1.281 . S
C111 O124 1.236 . S
C112 O134 1.240 . S
C112 O135 1.264 . S
O113 Mn108 2.095 . S
O113 C122 1.250 . S
O114 Mn109 2.121 . S
O114 C122 1.258 . S
C115 N116 1.326 . S
C115 C119 1.460 . S
C115 H121 0.929 . S
N116 Mn109 2.257 . S
N116 C115 1.326 . S
N116 C120 1.362 . S
C117 C118 1.258 . S
C117 C120 1.431 . S
C117 C137 1.449 . S
C118 C117 1.258 . S
C118 C119 1.477 . S
C118 H138 0.931 . S
C119 C115 1.460 . S
C119 C118 1.477 . S
C119 H139 0.930 . S
C120 N116 1.362 . S
C120 C117 1.431 . S
C120 C130 1.476 . S
H121 C115 0.929 . S
C122 O113 1.250 . S
C122 O114 1.258 . S
O123 Mn108 2.162 . S
O123 C111 1.281 . S
O124 Mn108 2.297 . S
O124 C111 1.236 . S
N125 Mn109 2.282 . S
N125 C126 1.328 . S
N125 C130 1.318 . S
C126 N125 1.328 . S
C126 C127 1.457 . S
C126 H131 0.929 . S
C127 C126 1.457 . S
C127 C128 1.291 . S
C127 H140 0.931 . S
C128 C127 1.291 . S
C128 C129 1.373 . S
C128 H141 0.929 . S
C129 C128 1.373 . S
C129 C130 1.396 . S
C129 C136 1.403 . S
C130 C120 1.476 . S
C130 N125 1.318 . S
C130 C129 1.396 . S
H131 C126 0.929 . S
O132 Mn108 2.385 . S
O132 C110 1.234 . S
O133 Mn108 2.209 . S
O133 Mn109 2.215 . S
O133 C110 1.283 . S
O134 Mn108 2.094 . S
O134 C112 1.240 . S
O135 Mn109 2.117 . S
O135 C112 1.264 . S
C136 C129 1.403 . S
C136 C137 1.399 . S
C136 H142 0.929 . S
C137 C117 1.449 . S
C137 C136 1.399 . S
C137 H143 0.930 . S
H138 C118 0.931 . S
H139 C119 0.930 . S
H140 C127 0.931 . S
H141 C128 0.929 . S
H142 C136 0.929 . S
H143 C137 0.930 . S
Mn144 O149 2.095 . S
Mn144 O159 2.162 . S
Mn144 O160 2.297 . S
Mn144 O168 2.385 . S
Mn144 O169 2.209 . S
Mn144 O170 2.094 . S
Mn145 O150 2.121 . S
Mn145 N152 2.257 . S
Mn145 N161 2.282 . S
Mn145 O169 2.215 . S
Mn145 O171 2.117 . S
C146 O168 1.234 . S
C146 O169 1.283 . S
C147 O159 1.281 . S
C147 O160 1.236 . S
C148 O170 1.240 . S
C148 O171 1.264 . S
O149 Mn144 2.095 . S
O149 C158 1.250 . S
O150 Mn145 2.121 . S
O150 C158 1.258 . S
C151 N152 1.326 . S
C151 C155 1.460 . S
C151 H157 0.929 . S
N152 Mn145 2.257 . S
N152 C151 1.326 . S
N152 C156 1.362 . S
C153 C154 1.258 . S
C153 C156 1.431 . S
C153 C173 1.449 . S
C154 C153 1.258 . S
C154 C155 1.477 . S
C154 H174 0.931 . S
C155 C151 1.460 . S
C155 C154 1.477 . S
C155 H175 0.930 . S
C156 N152 1.362 . S
C156 C153 1.431 . S
C156 C166 1.476 . S
H157 C151 0.929 . S
C158 O149 1.250 . S
C158 O150 1.258 . S
O159 Mn144 2.162 . S
O159 C147 1.281 . S
O160 Mn144 2.297 . S
O160 C147 1.236 . S
N161 Mn145 2.282 . S
N161 C162 1.328 . S
N161 C166 1.318 . S
C162 N161 1.328 . S
C162 C163 1.457 . S
C162 H167 0.929 . S
C163 C162 1.457 . S
C163 C164 1.291 . S
C163 H176 0.931 . S
C164 C163 1.291 . S
C164 C165 1.373 . S
C164 H177 0.929 . S
C165 C164 1.373 . S
C165 C166 1.396 . S
C165 C172 1.403 . S
C166 C156 1.476 . S
C166 N161 1.318 . S
C166 C165 1.396 . S
H167 C162 0.929 . S
O168 Mn144 2.385 . S
O168 C146 1.234 . S
O169 Mn144 2.209 . S
O169 Mn145 2.215 . S
O169 C146 1.283 . S
O170 Mn144 2.094 . S
O170 C148 1.240 . S
O171 Mn145 2.117 . S
O171 C148 1.264 . S
C172 C165 1.403 . S
C172 C173 1.399 . S
C172 H178 0.929 . S
C173 C153 1.449 . S
C173 C172 1.399 . S
C173 H179 0.930 . S
H174 C154 0.931 . S
H175 C155 0.930 . S
H176 C163 0.931 . S
H177 C164 0.929 . S
H178 C172 0.929 . S
H179 C173 0.930 . S
Mn180 O185 2.095 . S
Mn180 O195 2.162 . S
Mn180 O196 2.297 . S
Mn180 O204 2.385 . S
Mn180 O205 2.209 . S
Mn180 O206 2.094 . S
Mn181 O186 2.121 . S
Mn181 N188 2.257 . S
Mn181 N197 2.282 . S
Mn181 O205 2.215 . S
Mn181 O207 2.117 . S
C182 O204 1.234 . S
C182 O205 1.283 . S
C183 O195 1.281 . S
C183 O196 1.236 . S
C184 O206 1.240 . S
C184 O207 1.264 . S
O185 Mn180 2.095 . S
O185 C194 1.250 . S
O186 Mn181 2.121 . S
O186 C194 1.258 . S
C187 N188 1.326 . S
C187 C191 1.460 . S
C187 H193 0.929 . S
N188 Mn181 2.257 . S
N188 C187 1.326 . S
N188 C192 1.362 . S
C189 C190 1.258 . S
C189 C192 1.431 . S
C189 C209 1.449 . S
C190 C189 1.258 . S
C190 C191 1.477 . S
C190 H210 0.931 . S
C191 C187 1.460 . S
C191 C190 1.477 . S
C191 H211 0.930 . S
C192 N188 1.362 . S
C192 C189 1.431 . S
C192 C202 1.476 . S
H193 C187 0.929 . S
C194 O185 1.250 . S
C194 O186 1.258 . S
O195 Mn180 2.162 . S
O195 C183 1.281 . S
O196 Mn180 2.297 . S
O196 C183 1.236 . S
N197 Mn181 2.282 . S
N197 C198 1.328 . S
N197 C202 1.318 . S
C198 N197 1.328 . S
C198 C199 1.457 . S
C198 H203 0.929 . S
C199 C198 1.457 . S
C199 C200 1.291 . S
C199 H212 0.931 . S
C200 C199 1.291 . S
C200 C201 1.373 . S
C200 H213 0.929 . S
C201 C200 1.373 . S
C201 C202 1.396 . S
C201 C208 1.403 . S
C202 C192 1.476 . S
C202 N197 1.318 . S
C202 C201 1.396 . S
H203 C198 0.929 . S
O204 Mn180 2.385 . S
O204 C182 1.234 . S
O205 Mn180 2.209 . S
O205 Mn181 2.215 . S
O205 C182 1.283 . S
O206 Mn180 2.094 . S
O206 C184 1.240 . S
O207 Mn181 2.117 . S
O207 C184 1.264 . S
C208 C201 1.403 . S
C208 C209 1.399 . S
C208 H214 0.929 . S
C209 C189 1.449 . S
C209 C208 1.399 . S
C209 H215 0.930 . S
H210 C190 0.931 . S
H211 C191 0.930 . S
H212 C199 0.931 . S
H213 C200 0.929 . S
H214 C208 0.929 . S
H215 C209 0.930 . S
Mn216 O221 2.095 . S
Mn216 O231 2.162 . S
Mn216 O232 2.297 . S
Mn216 O240 2.385 . S
Mn216 O241 2.209 . S
Mn216 O242 2.094 . S
Mn217 O222 2.121 . S
Mn217 N224 2.257 . S
Mn217 N233 2.282 . S
Mn217 O241 2.215 . S
Mn217 O243 2.117 . S
C218 O240 1.234 . S
C218 O241 1.283 . S
C219 O231 1.281 . S
C219 O232 1.236 . S
C220 O242 1.240 . S
C220 O243 1.264 . S
O221 Mn216 2.095 . S
O221 C230 1.250 . S
O222 Mn217 2.121 . S
O222 C230 1.258 . S
C223 N224 1.326 . S
C223 C227 1.460 . S
C223 H229 0.929 . S
N224 Mn217 2.257 . S
N224 C223 1.326 . S
N224 C228 1.362 . S
C225 C226 1.258 . S
C225 C228 1.431 . S
C225 C245 1.449 . S
C226 C225 1.258 . S
C226 C227 1.477 . S
C226 H246 0.931 . S
C227 C223 1.460 . S
C227 C226 1.477 . S
C227 H247 0.930 . S
C228 N224 1.362 . S
C228 C225 1.431 . S
C228 C238 1.476 . S
H229 C223 0.929 . S
C230 O221 1.250 . S
C230 O222 1.258 . S
O231 Mn216 2.162 . S
O231 C219 1.281 . S
O232 Mn216 2.297 . S
O232 C219 1.236 . S
N233 Mn217 2.282 . S
N233 C234 1.328 . S
N233 C238 1.318 . S
C234 N233 1.328 . S
C234 C235 1.457 . S
C234 H239 0.929 . S
C235 C234 1.457 . S
C235 C236 1.291 . S
C235 H248 0.931 . S
C236 C235 1.291 . S
C236 C237 1.373 . S
C236 H249 0.929 . S
C237 C236 1.373 . S
C237 C238 1.396 . S
C237 C244 1.403 . S
C238 C228 1.476 . S
C238 N233 1.318 . S
C238 C237 1.396 . S
H239 C234 0.929 . S
O240 Mn216 2.385 . S
O240 C218 1.234 . S
O241 Mn216 2.209 . S
O241 Mn217 2.215 . S
O241 C218 1.283 . S
O242 Mn216 2.094 . S
O242 C220 1.240 . S
O243 Mn217 2.117 . S
O243 C220 1.264 . S
C244 C237 1.403 . S
C244 C245 1.399 . S
C244 H250 0.929 . S
C245 C225 1.449 . S
C245 C244 1.399 . S
C245 H251 0.930 . S
H246 C226 0.931 . S
H247 C227 0.930 . S
H248 C235 0.931 . S
H249 C236 0.929 . S
H250 C244 0.929 . S
H251 C245 0.930 . S
Mn252 O257 2.095 . S
Mn252 O267 2.162 . S
Mn252 O268 2.297 . S
Mn252 O276 2.385 . S
Mn252 O277 2.209 . S
Mn252 O278 2.094 . S
Mn253 O258 2.121 . S
Mn253 N260 2.257 . S
Mn253 N269 2.282 . S
Mn253 O277 2.215 . S
Mn253 O279 2.117 . S
C254 O276 1.234 . S
C254 O277 1.283 . S
C255 O267 1.281 . S
C255 O268 1.236 . S
C256 O278 1.240 . S
C256 O279 1.264 . S
O257 Mn252 2.095 . S
O257 C266 1.250 . S
O258 Mn253 2.121 . S
O258 C266 1.258 . S
C259 N260 1.326 . S
C259 C263 1.460 . S
C259 H265 0.929 . S
N260 Mn253 2.257 . S
N260 C259 1.326 . S
N260 C264 1.362 . S
C261 C262 1.258 . S
C261 C264 1.431 . S
C261 C281 1.449 . S
C262 C261 1.258 . S
C262 C263 1.477 . S
C262 H282 0.931 . S
C263 C259 1.460 . S
C263 C262 1.477 . S
C263 H283 0.930 . S
C264 N260 1.362 . S
C264 C261 1.431 . S
C264 C274 1.476 . S
H265 C259 0.929 . S
C266 O257 1.250 . S
C266 O258 1.258 . S
O267 Mn252 2.162 . S
O267 C255 1.281 . S
O268 Mn252 2.297 . S
O268 C255 1.236 . S
N269 Mn253 2.282 . S
N269 C270 1.328 . S
N269 C274 1.318 . S
C270 N269 1.328 . S
C270 C271 1.457 . S
C270 H275 0.929 . S
C271 C270 1.457 . S
C271 C272 1.291 . S
C271 H284 0.931 . S
C272 C271 1.291 . S
C272 C273 1.373 . S
C272 H285 0.929 . S
C273 C272 1.373 . S
C273 C274 1.396 . S
C273 C280 1.403 . S
C274 C264 1.476 . S
C274 N269 1.318 . S
C274 C273 1.396 . S
H275 C270 0.929 . S
O276 Mn252 2.385 . S
O276 C254 1.234 . S
O277 Mn252 2.209 . S
O277 Mn253 2.215 . S
O277 C254 1.283 . S
O278 Mn252 2.094 . S
O278 C256 1.240 . S
O279 Mn253 2.117 . S
O279 C256 1.264 . S
C280 C273 1.403 . S
C280 C281 1.399 . S
C280 H286 0.929 . S
C281 C261 1.449 . S
C281 C280 1.399 . S
C281 H287 0.930 . S
H282 C262 0.931 . S
H283 C263 0.930 . S
H284 C271 0.931 . S
H285 C272 0.929 . S
H286 C280 0.929 . S
H287 C281 0.930 . S
Mn288 O293 2.095 . S
Mn288 O303 2.162 . S
Mn288 O304 2.297 . S
Mn288 O312 2.385 . S
Mn288 O313 2.209 . S
Mn288 O314 2.094 . S
Mn289 O294 2.121 . S
Mn289 N296 2.257 . S
Mn289 N305 2.282 . S
Mn289 O313 2.215 . S
Mn289 O315 2.117 . S
C290 O312 1.234 . S
C290 O313 1.283 . S
C291 O303 1.281 . S
C291 O304 1.236 . S
C292 O314 1.240 . S
C292 O315 1.264 . S
O293 Mn288 2.095 . S
O293 C302 1.250 . S
O294 Mn289 2.121 . S
O294 C302 1.258 . S
C295 N296 1.326 . S
C295 C299 1.460 . S
C295 H301 0.929 . S
N296 Mn289 2.257 . S
N296 C295 1.326 . S
N296 C300 1.362 . S
C297 C298 1.258 . S
C297 C300 1.431 . S
C297 C317 1.449 . S
C298 C297 1.258 . S
C298 C299 1.477 . S
C298 H318 0.931 . S
C299 C295 1.460 . S
C299 C298 1.477 . S
C299 H319 0.930 . S
C300 N296 1.362 . S
C300 C297 1.431 . S
C300 C310 1.476 . S
H301 C295 0.929 . S
C302 O293 1.250 . S
C302 O294 1.258 . S
O303 Mn288 2.162 . S
O303 C291 1.281 . S
O304 Mn288 2.297 . S
O304 C291 1.236 . S
N305 Mn289 2.282 . S
N305 C306 1.328 . S
N305 C310 1.318 . S
C306 N305 1.328 . S
C306 C307 1.457 . S
C306 H311 0.929 . S
C307 C306 1.457 . S
C307 C308 1.291 . S
C307 H320 0.931 . S
C308 C307 1.291 . S
C308 C309 1.373 . S
C308 H321 0.929 . S
C309 C308 1.373 . S
C309 C310 1.396 . S
C309 C316 1.403 . S
C310 C300 1.476 . S
C310 N305 1.318 . S
C310 C309 1.396 . S
H311 C306 0.929 . S
O312 Mn288 2.385 . S
O312 C290 1.234 . S
O313 Mn288 2.209 . S
O313 Mn289 2.215 . S
O313 C290 1.283 . S
O314 Mn288 2.094 . S
O314 C292 1.240 . S
O315 Mn289 2.117 . S
O315 C292 1.264 . S
C316 C309 1.403 . S
C316 C317 1.399 . S
C316 H322 0.929 . S
C317 C297 1.449 . S
C317 C316 1.399 . S
C317 H323 0.930 . S
H318 C298 0.931 . S
H319 C299 0.930 . S
H320 C307 0.931 . S
H321 C308 0.929 . S
H322 C316 0.929 . S
H323 C317 0.930 . S
Mn324 O329 2.095 . S
Mn324 O339 2.162 . S
Mn324 O340 2.297 . S
Mn324 O348 2.385 . S
Mn324 O349 2.209 . S
Mn324 O350 2.094 . S
Mn325 O330 2.121 . S
Mn325 N332 2.257 . S
Mn325 N341 2.282 . S
Mn325 O349 2.215 . S
Mn325 O351 2.117 . S
C326 O348 1.234 . S
C326 O349 1.283 . S
C327 O339 1.281 . S
C327 O340 1.236 . S
C328 O350 1.240 . S
C328 O351 1.264 . S
O329 Mn324 2.095 . S
O329 C338 1.250 . S
O330 Mn325 2.121 . S
O330 C338 1.258 . S
C331 N332 1.326 . S
C331 C335 1.460 . S
C331 H337 0.929 . S
N332 Mn325 2.257 . S
N332 C331 1.326 . S
N332 C336 1.362 . S
C333 C334 1.258 . S
C333 C336 1.431 . S
C333 C353 1.449 . S
C334 C333 1.258 . S
C334 C335 1.477 . S
C334 H354 0.931 . S
C335 C331 1.460 . S
C335 C334 1.477 . S
C335 H355 0.930 . S
C336 N332 1.362 . S
C336 C333 1.431 . S
C336 C346 1.476 . S
H337 C331 0.929 . S
C338 O329 1.250 . S
C338 O330 1.258 . S
O339 Mn324 2.162 . S
O339 C327 1.281 . S
O340 Mn324 2.297 . S
O340 C327 1.236 . S
N341 Mn325 2.282 . S
N341 C342 1.328 . S
N341 C346 1.318 . S
C342 N341 1.328 . S
C342 C343 1.457 . S
C342 H347 0.929 . S
C343 C342 1.457 . S
C343 C344 1.291 . S
C343 H356 0.931 . S
C344 C343 1.291 . S
C344 C345 1.373 . S
C344 H357 0.929 . S
C345 C344 1.373 . S
C345 C346 1.396 . S
C345 C352 1.403 . S
C346 C336 1.476 . S
C346 N341 1.318 . S
C346 C345 1.396 . S
H347 C342 0.929 . S
O348 Mn324 2.385 . S
O348 C326 1.234 . S
O349 Mn324 2.209 . S
O349 Mn325 2.215 . S
O349 C326 1.283 . S
O350 Mn324 2.094 . S
O350 C328 1.240 . S
O351 Mn325 2.117 . S
O351 C328 1.264 . S
C352 C345 1.403 . S
C352 C353 1.399 . S
C352 H358 0.929 . S
C353 C333 1.449 . S
C353 C352 1.399 . S
C353 H359 0.930 . S
H354 C334 0.931 . S
H355 C335 0.930 . S
H356 C343 0.931 . S
H357 C344 0.929 . S
H358 C352 0.929 . S
H359 C353 0.930 . S
Mn360 O365 2.095 . S
Mn360 O375 2.162 . S
Mn360 O376 2.297 . S
Mn360 O384 2.385 . S
Mn360 O385 2.209 . S
Mn360 O386 2.094 . S
Mn361 O366 2.121 . S
Mn361 N368 2.257 . S
Mn361 N377 2.282 . S
Mn361 O385 2.215 . S
Mn361 O387 2.117 . S
C362 O384 1.234 . S
C362 O385 1.283 . S
C363 O375 1.281 . S
C363 O376 1.236 . S
C364 O386 1.240 . S
C364 O387 1.264 . S
O365 Mn360 2.095 . S
O365 C374 1.250 . S
O366 Mn361 2.121 . S
O366 C374 1.258 . S
C367 N368 1.326 . S
C367 C371 1.460 . S
C367 H373 0.929 . S
N368 Mn361 2.257 . S
N368 C367 1.326 . S
N368 C372 1.362 . S
C369 C370 1.258 . S
C369 C372 1.431 . S
C369 C389 1.449 . S
C370 C369 1.258 . S
C370 C371 1.477 . S
C370 H390 0.931 . S
C371 C367 1.460 . S
C371 C370 1.477 . S
C371 H391 0.930 . S
C372 N368 1.362 . S
C372 C369 1.431 . S
C372 C382 1.476 . S
H373 C367 0.929 . S
C374 O365 1.250 . S
C374 O366 1.258 . S
O375 Mn360 2.162 . S
O375 C363 1.281 . S
O376 Mn360 2.297 . S
O376 C363 1.236 . S
N377 Mn361 2.282 . S
N377 C378 1.328 . S
N377 C382 1.318 . S
C378 N377 1.328 . S
C378 C379 1.457 . S
C378 H383 0.929 . S
C379 C378 1.457 . S
C379 C380 1.291 . S
C379 H392 0.931 . S
C380 C379 1.291 . S
C380 C381 1.373 . S
C380 H393 0.929 . S
C381 C380 1.373 . S
C381 C382 1.396 . S
C381 C388 1.403 . S
C382 C372 1.476 . S
C382 N377 1.318 . S
C382 C381 1.396 . S
H383 C378 0.929 . S
O384 Mn360 2.385 . S
O384 C362 1.234 . S
O385 Mn360 2.209 . S
O385 Mn361 2.215 . S
O385 C362 1.283 . S
O386 Mn360 2.094 . S
O386 C364 1.240 . S
O387 Mn361 2.117 . S
O387 C364 1.264 . S
C388 C381 1.403 . S
C388 C389 1.399 . S
C388 H394 0.929 . S
C389 C369 1.449 . S
C389 C388 1.399 . S
C389 H395 0.930 . S
H390 C370 0.931 . S
H391 C371 0.930 . S
H392 C379 0.931 . S
H393 C380 0.929 . S
H394 C388 0.929 . S
H395 C389 0.930 . S
Mn396 O401 2.095 . S
Mn396 O411 2.162 . S
Mn396 O412 2.297 . S
Mn396 O420 2.385 . S
Mn396 O421 2.209 . S
Mn396 O422 2.094 . S
Mn397 O402 2.121 . S
Mn397 N404 2.257 . S
Mn397 N413 2.282 . S
Mn397 O421 2.215 . S
Mn397 O423 2.117 . S
C398 O420 1.234 . S
C398 O421 1.283 . S
C399 O411 1.281 . S
C399 O412 1.236 . S
C400 O422 1.240 . S
C400 O423 1.264 . S
O401 Mn396 2.095 . S
O401 C410 1.250 . S
O402 Mn397 2.121 . S
O402 C410 1.258 . S
C403 N404 1.326 . S
C403 C407 1.460 . S
C403 H409 0.929 . S
N404 Mn397 2.257 . S
N404 C403 1.326 . S
N404 C408 1.362 . S
C405 C406 1.258 . S
C405 C408 1.431 . S
C405 C425 1.449 . S
C406 C405 1.258 . S
C406 C407 1.477 . S
C406 H426 0.931 . S
C407 C403 1.460 . S
C407 C406 1.477 . S
C407 H427 0.930 . S
C408 N404 1.362 . S
C408 C405 1.431 . S
C408 C418 1.476 . S
H409 C403 0.929 . S
C410 O401 1.250 . S
C410 O402 1.258 . S
O411 Mn396 2.162 . S
O411 C399 1.281 . S
O412 Mn396 2.297 . S
O412 C399 1.236 . S
N413 Mn397 2.282 . S
N413 C414 1.328 . S
N413 C418 1.318 . S
C414 N413 1.328 . S
C414 C415 1.457 . S
C414 H419 0.929 . S
C415 C414 1.457 . S
C415 C416 1.291 . S
C415 H428 0.931 . S
C416 C415 1.291 . S
C416 C417 1.373 . S
C416 H429 0.929 . S
C417 C416 1.373 . S
C417 C418 1.396 . S
C417 C424 1.403 . S
C418 C408 1.476 . S
C418 N413 1.318 . S
C418 C417 1.396 . S
H419 C414 0.929 . S
O420 Mn396 2.385 . S
O420 C398 1.234 . S
O421 Mn396 2.209 . S
O421 Mn397 2.215 . S
O421 C398 1.283 . S
O422 Mn396 2.094 . S
O422 C400 1.240 . S
O423 Mn397 2.117 . S
O423 C400 1.264 . S
C424 C417 1.403 . S
C424 C425 1.399 . S
C424 H430 0.929 . S
C425 C405 1.449 . S
C425 C424 1.399 . S
C425 H431 0.930 . S
H426 C406 0.931 . S
H427 C407 0.930 . S
H428 C415 0.931 . S
H429 C416 0.929 . S
H430 C424 0.929 . S
H431 C425 0.930 . S
Mn432 O437 2.095 . S
Mn432 O447 2.162 . S
Mn432 O448 2.297 . S
Mn432 O456 2.385 . S
Mn432 O457 2.209 . S
Mn432 O458 2.094 . S
Mn433 O438 2.121 . S
Mn433 N440 2.257 . S
Mn433 N449 2.282 . S
Mn433 O457 2.215 . S
Mn433 O459 2.117 . S
C434 O456 1.234 . S
C434 O457 1.283 . S
C435 O447 1.281 . S
C435 O448 1.236 . S
C436 O458 1.240 . S
C436 O459 1.264 . S
O437 Mn432 2.095 . S
O437 C446 1.250 . S
O438 Mn433 2.121 . S
O438 C446 1.258 . S
C439 N440 1.326 . S
C439 C443 1.460 . S
C439 H445 0.929 . S
N440 Mn433 2.257 . S
N440 C439 1.326 . S
N440 C444 1.362 . S
C441 C442 1.258 . S
C441 C444 1.431 . S
C441 C461 1.449 . S
C442 C441 1.258 . S
C442 C443 1.477 . S
C442 H462 0.931 . S
C443 C439 1.460 . S
C443 C442 1.477 . S
C443 H463 0.930 . S
C444 N440 1.362 . S
C444 C441 1.431 . S
C444 C454 1.476 . S
H445 C439 0.929 . S
C446 O437 1.250 . S
C446 O438 1.258 . S
O447 Mn432 2.162 . S
O447 C435 1.281 . S
O448 Mn432 2.297 . S
O448 C435 1.236 . S
N449 Mn433 2.282 . S
N449 C450 1.328 . S
N449 C454 1.318 . S
C450 N449 1.328 . S
C450 C451 1.457 . S
C450 H455 0.929 . S
C451 C450 1.457 . S
C451 C452 1.291 . S
C451 H464 0.931 . S
C452 C451 1.291 . S
C452 C453 1.373 . S
C452 H465 0.929 . S
C453 C452 1.373 . S
C453 C454 1.396 . S
C453 C460 1.403 . S
C454 C444 1.476 . S
C454 N449 1.318 . S
C454 C453 1.396 . S
H455 C450 0.929 . S
O456 Mn432 2.385 . S
O456 C434 1.234 . S
O457 Mn432 2.209 . S
O457 Mn433 2.215 . S
O457 C434 1.283 . S
O458 Mn432 2.094 . S
O458 C436 1.240 . S
O459 Mn433 2.117 . S
O459 C436 1.264 . S
C460 C453 1.403 . S
C460 C461 1.399 . S
C460 H466 0.929 . S
C461 C441 1.449 . S
C461 C460 1.399 . S
C461 H467 0.930 . S
H462 C442 0.931 . S
H463 C443 0.930 . S
H464 C451 0.931 . S
H465 C452 0.929 . S
H466 C460 0.929 . S
H467 C461 0.930 . S
Mn468 O473 2.095 . S
Mn468 O483 2.162 . S
Mn468 O484 2.297 . S
Mn468 O492 2.385 . S
Mn468 O493 2.209 . S
Mn468 O494 2.094 . S
Mn469 O474 2.121 . S
Mn469 N476 2.257 . S
Mn469 N485 2.282 . S
Mn469 O493 2.215 . S
Mn469 O495 2.117 . S
C470 O492 1.234 . S
C470 O493 1.283 . S
C471 O483 1.281 . S
C471 O484 1.236 . S
C472 O494 1.240 . S
C472 O495 1.264 . S
O473 Mn468 2.095 . S
O473 C482 1.250 . S
O474 Mn469 2.121 . S
O474 C482 1.258 . S
C475 N476 1.326 . S
C475 C479 1.460 . S
C475 H481 0.929 . S
N476 Mn469 2.257 . S
N476 C475 1.326 . S
N476 C480 1.362 . S
C477 C478 1.258 . S
C477 C480 1.431 . S
C477 C497 1.449 . S
C478 C477 1.258 . S
C478 C479 1.477 . S
C478 H498 0.931 . S
C479 C475 1.460 . S
C479 C478 1.477 . S
C479 H499 0.930 . S
C480 N476 1.362 . S
C480 C477 1.431 . S
C480 C490 1.476 . S
H481 C475 0.929 . S
C482 O473 1.250 . S
C482 O474 1.258 . S
O483 Mn468 2.162 . S
O483 C471 1.281 . S
O484 Mn468 2.297 . S
O484 C471 1.236 . S
N485 Mn469 2.282 . S
N485 C486 1.328 . S
N485 C490 1.318 . S
C486 N485 1.328 . S
C486 C487 1.457 . S
C486 H491 0.929 . S
C487 C486 1.457 . S
C487 C488 1.291 . S
C487 H500 0.931 . S
C488 C487 1.291 . S
C488 C489 1.373 . S
C488 H501 0.929 . S
C489 C488 1.373 . S
C489 C490 1.396 . S
C489 C496 1.403 . S
C490 C480 1.476 . S
C490 N485 1.318 . S
C490 C489 1.396 . S
H491 C486 0.929 . S
O492 Mn468 2.385 . S
O492 C470 1.234 . S
O493 Mn468 2.209 . S
O493 Mn469 2.215 . S
O493 C470 1.283 . S
O494 Mn468 2.094 . S
O494 C472 1.240 . S
O495 Mn469 2.117 . S
O495 C472 1.264 . S
C496 C489 1.403 . S
C496 C497 1.399 . S
C496 H502 0.929 . S
C497 C477 1.449 . S
C497 C496 1.399 . S
C497 H503 0.930 . S
H498 C478 0.931 . S
H499 C479 0.930 . S
H500 C487 0.931 . S
H501 C488 0.929 . S
H502 C496 0.929 . S
H503 C497 0.930 . S
Mn504 O509 2.095 . S
Mn504 O519 2.162 . S
Mn504 O520 2.297 . S
Mn504 O528 2.385 . S
Mn504 O529 2.209 . S
Mn504 O530 2.094 . S
Mn505 O510 2.121 . S
Mn505 N512 2.257 . S
Mn505 N521 2.282 . S
Mn505 O529 2.215 . S
Mn505 O531 2.117 . S
C506 O528 1.234 . S
C506 O529 1.283 . S
C507 O519 1.281 . S
C507 O520 1.236 . S
C508 O530 1.240 . S
C508 O531 1.264 . S
O509 Mn504 2.095 . S
O509 C518 1.250 . S
O510 Mn505 2.121 . S
O510 C518 1.258 . S
C511 N512 1.326 . S
C511 C515 1.460 . S
C511 H517 0.929 . S
N512 Mn505 2.257 . S
N512 C511 1.326 . S
N512 C516 1.362 . S
C513 C514 1.258 . S
C513 C516 1.431 . S
C513 C533 1.449 . S
C514 C513 1.258 . S
C514 C515 1.477 . S
C514 H534 0.931 . S
C515 C511 1.460 . S
C515 C514 1.477 . S
C515 H535 0.930 . S
C516 N512 1.362 . S
C516 C513 1.431 . S
C516 C526 1.476 . S
H517 C511 0.929 . S
C518 O509 1.250 . S
C518 O510 1.258 . S
O519 Mn504 2.162 . S
O519 C507 1.281 . S
O520 Mn504 2.297 . S
O520 C507 1.236 . S
N521 Mn505 2.282 . S
N521 C522 1.328 . S
N521 C526 1.318 . S
C522 N521 1.328 . S
C522 C523 1.457 . S
C522 H527 0.929 . S
C523 C522 1.457 . S
C523 C524 1.291 . S
C523 H536 0.931 . S
C524 C523 1.291 . S
C524 C525 1.373 . S
C524 H537 0.929 . S
C525 C524 1.373 . S
C525 C526 1.396 . S
C525 C532 1.403 . S
C526 C516 1.476 . S
C526 N521 1.318 . S
C526 C525 1.396 . S
H527 C522 0.929 . S
O528 Mn504 2.385 . S
O528 C506 1.234 . S
O529 Mn504 2.209 . S
O529 Mn505 2.215 . S
O529 C506 1.283 . S
O530 Mn504 2.094 . S
O530 C508 1.240 . S
O531 Mn505 2.117 . S
O531 C508 1.264 . S
C532 C525 1.403 . S
C532 C533 1.399 . S
C532 H538 0.929 . S
C533 C513 1.449 . S
C533 C532 1.399 . S
C533 H539 0.930 . S
H534 C514 0.931 . S
H535 C515 0.930 . S
H536 C523 0.931 . S
H537 C524 0.929 . S
H538 C532 0.929 . S
H539 C533 0.930 . S
Mn540 O545 2.095 . S
Mn540 O555 2.162 . S
Mn540 O556 2.297 . S
Mn540 O564 2.385 . S
Mn540 O565 2.209 . S
Mn540 O566 2.094 . S
Mn541 O546 2.121 . S
Mn541 N548 2.257 . S
Mn541 N557 2.282 . S
Mn541 O565 2.215 . S
Mn541 O567 2.117 . S
C542 O564 1.234 . S
C542 O565 1.283 . S
C543 O555 1.281 . S
C543 O556 1.236 . S
C544 O566 1.240 . S
C544 O567 1.264 . S
O545 Mn540 2.095 . S
O545 C554 1.250 . S
O546 Mn541 2.121 . S
O546 C554 1.258 . S
C547 N548 1.326 . S
C547 C551 1.460 . S
C547 H553 0.929 . S
N548 Mn541 2.257 . S
N548 C547 1.326 . S
N548 C552 1.362 . S
C549 C550 1.258 . S
C549 C552 1.431 . S
C549 C569 1.449 . S
C550 C549 1.258 . S
C550 C551 1.477 . S
C550 H570 0.931 . S
C551 C547 1.460 . S
C551 C550 1.477 . S
C551 H571 0.930 . S
C552 N548 1.362 . S
C552 C549 1.431 . S
C552 C562 1.476 . S
H553 C547 0.929 . S
C554 O545 1.250 . S
C554 O546 1.258 . S
O555 Mn540 2.162 . S
O555 C543 1.281 . S
O556 Mn540 2.297 . S
O556 C543 1.236 . S
N557 Mn541 2.282 . S
N557 C558 1.328 . S
N557 C562 1.318 . S
C558 N557 1.328 . S
C558 C559 1.457 . S
C558 H563 0.929 . S
C559 C558 1.457 . S
C559 C560 1.291 . S
C559 H572 0.931 . S
C560 C559 1.291 . S
C560 C561 1.373 . S
C560 H573 0.929 . S
C561 C560 1.373 . S
C561 C562 1.396 . S
C561 C568 1.403 . S
C562 C552 1.476 . S
C562 N557 1.318 . S
C562 C561 1.396 . S
H563 C558 0.929 . S
O564 Mn540 2.385 . S
O564 C542 1.234 . S
O565 Mn540 2.209 . S
O565 Mn541 2.215 . S
O565 C542 1.283 . S
O566 Mn540 2.094 . S
O566 C544 1.240 . S
O567 Mn541 2.117 . S
O567 C544 1.264 . S
C568 C561 1.403 . S
C568 C569 1.399 . S
C568 H574 0.929 . S
C569 C549 1.449 . S
C569 C568 1.399 . S
C569 H575 0.930 . S
H570 C550 0.931 . S
H571 C551 0.930 . S
H572 C559 0.931 . S
H573 C560 0.929 . S
H574 C568 0.929 . S
H575 C569 0.930 . S
Mn576 O581 2.095 . S
Mn576 O591 2.162 . S
Mn576 O592 2.297 . S
Mn576 O600 2.385 . S
Mn576 O601 2.209 . S
Mn576 O602 2.094 . S
Mn577 O582 2.121 . S
Mn577 N584 2.257 . S
Mn577 N593 2.282 . S
Mn577 O601 2.215 . S
Mn577 O603 2.117 . S
C578 O600 1.234 . S
C578 O601 1.283 . S
C579 O591 1.281 . S
C579 O592 1.236 . S
C580 O602 1.240 . S
C580 O603 1.264 . S
O581 Mn576 2.095 . S
O581 C590 1.250 . S
O582 Mn577 2.121 . S
O582 C590 1.258 . S
C583 N584 1.326 . S
C583 C587 1.460 . S
C583 H589 0.929 . S
N584 Mn577 2.257 . S
N584 C583 1.326 . S
N584 C588 1.362 . S
C585 C586 1.258 . S
C585 C588 1.431 . S
C585 C605 1.449 . S
C586 C585 1.258 . S
C586 C587 1.477 . S
C586 H606 0.931 . S
C587 C583 1.460 . S
C587 C586 1.477 . S
C587 H607 0.930 . S
C588 N584 1.362 . S
C588 C585 1.431 . S
C588 C598 1.476 . S
H589 C583 0.929 . S
C590 O581 1.250 . S
C590 O582 1.258 . S
O591 Mn576 2.162 . S
O591 C579 1.281 . S
O592 Mn576 2.297 . S
O592 C579 1.236 . S
N593 Mn577 2.282 . S
N593 C594 1.328 . S
N593 C598 1.318 . S
C594 N593 1.328 . S
C594 C595 1.457 . S
C594 H599 0.929 . S
C595 C594 1.457 . S
C595 C596 1.291 . S
C595 H608 0.931 . S
C596 C595 1.291 . S
C596 C597 1.373 . S
C596 H609 0.929 . S
C597 C596 1.373 . S
C597 C598 1.396 . S
C597 C604 1.403 . S
C598 C588 1.476 . S
C598 N593 1.318 . S
C598 C597 1.396 . S
H599 C594 0.929 . S
O600 Mn576 2.385 . S
O600 C578 1.234 . S
O601 Mn576 2.209 . S
O601 Mn577 2.215 . S
O601 C578 1.283 . S
O602 Mn576 2.094 . S
O602 C580 1.240 . S
O603 Mn577 2.117 . S
O603 C580 1.264 . S
C604 C597 1.403 . S
C604 C605 1.399 . S
C604 H610 0.929 . S
C605 C585 1.449 . S
C605 C604 1.399 . S
C605 H611 0.930 . S
H606 C586 0.931 . S
H607 C587 0.930 . S
H608 C595 0.931 . S
H609 C596 0.929 . S
H610 C604 0.929 . S
H611 C605 0.930 . S
Mn612 O617 2.095 . S
Mn612 O627 2.162 . S
Mn612 O628 2.297 . S
Mn612 O636 2.385 . S
Mn612 O637 2.209 . S
Mn612 O638 2.094 . S
Mn613 O618 2.121 . S
Mn613 N620 2.257 . S
Mn613 N629 2.282 . S
Mn613 O637 2.215 . S
Mn613 O639 2.117 . S
C614 O636 1.234 . S
C614 O637 1.283 . S
C615 O627 1.281 . S
C615 O628 1.236 . S
C616 O638 1.240 . S
C616 O639 1.264 . S
O617 Mn612 2.095 . S
O617 C626 1.250 . S
O618 Mn613 2.121 . S
O618 C626 1.258 . S
C619 N620 1.326 . S
C619 C623 1.460 . S
C619 H625 0.929 . S
N620 Mn613 2.257 . S
N620 C619 1.326 . S
N620 C624 1.362 . S
C621 C622 1.258 . S
C621 C624 1.431 . S
C621 C641 1.449 . S
C622 C621 1.258 . S
C622 C623 1.477 . S
C622 H642 0.931 . S
C623 C619 1.460 . S
C623 C622 1.477 . S
C623 H643 0.930 . S
C624 N620 1.362 . S
C624 C621 1.431 . S
C624 C634 1.476 . S
H625 C619 0.929 . S
C626 O617 1.250 . S
C626 O618 1.258 . S
O627 Mn612 2.162 . S
O627 C615 1.281 . S
O628 Mn612 2.297 . S
O628 C615 1.236 . S
N629 Mn613 2.282 . S
N629 C630 1.328 . S
N629 C634 1.318 . S
C630 N629 1.328 . S
C630 C631 1.457 . S
C630 H635 0.929 . S
C631 C630 1.457 . S
C631 C632 1.291 . S
C631 H644 0.931 . S
C632 C631 1.291 . S
C632 C633 1.373 . S
C632 H645 0.929 . S
C633 C632 1.373 . S
C633 C634 1.396 . S
C633 C640 1.403 . S
C634 C624 1.476 . S
C634 N629 1.318 . S
C634 C633 1.396 . S
H635 C630 0.929 . S
O636 Mn612 2.385 . S
O636 C614 1.234 . S
O637 Mn612 2.209 . S
O637 Mn613 2.215 . S
O637 C614 1.283 . S
O638 Mn612 2.094 . S
O638 C616 1.240 . S
O639 Mn613 2.117 . S
O639 C616 1.264 . S
C640 C633 1.403 . S
C640 C641 1.399 . S
C640 H646 0.929 . S
C641 C621 1.449 . S
C641 C640 1.399 . S
C641 H647 0.930 . S
H642 C622 0.931 . S
H643 C623 0.930 . S
H644 C631 0.931 . S
H645 C632 0.929 . S
H646 C640 0.929 . S
H647 C641 0.930 . S
Mn648 O653 2.095 . S
Mn648 O663 2.162 . S
Mn648 O664 2.297 . S
Mn648 O672 2.385 . S
Mn648 O673 2.209 . S
Mn648 O674 2.094 . S
Mn649 O654 2.121 . S
Mn649 N656 2.257 . S
Mn649 N665 2.282 . S
Mn649 O673 2.215 . S
Mn649 O675 2.117 . S
C650 O672 1.234 . S
C650 O673 1.283 . S
C651 O663 1.281 . S
C651 O664 1.236 . S
C652 O674 1.240 . S
C652 O675 1.264 . S
O653 Mn648 2.095 . S
O653 C662 1.250 . S
O654 Mn649 2.121 . S
O654 C662 1.258 . S
C655 N656 1.326 . S
C655 C659 1.460 . S
C655 H661 0.929 . S
N656 Mn649 2.257 . S
N656 C655 1.326 . S
N656 C660 1.362 . S
C657 C658 1.258 . S
C657 C660 1.431 . S
C657 C677 1.449 . S
C658 C657 1.258 . S
C658 C659 1.477 . S
C658 H678 0.931 . S
C659 C655 1.460 . S
C659 C658 1.477 . S
C659 H679 0.930 . S
C660 N656 1.362 . S
C660 C657 1.431 . S
C660 C670 1.476 . S
H661 C655 0.929 . S
C662 O653 1.250 . S
C662 O654 1.258 . S
O663 Mn648 2.162 . S
O663 C651 1.281 . S
O664 Mn648 2.297 . S
O664 C651 1.236 . S
N665 Mn649 2.282 . S
N665 C666 1.328 . S
N665 C670 1.318 . S
C666 N665 1.328 . S
C666 C667 1.457 . S
C666 H671 0.929 . S
C667 C666 1.457 . S
C667 C668 1.291 . S
C667 H680 0.931 . S
C668 C667 1.291 . S
C668 C669 1.373 . S
C668 H681 0.929 . S
C669 C668 1.373 . S
C669 C670 1.396 . S
C669 C676 1.403 . S
C670 C660 1.476 . S
C670 N665 1.318 . S
C670 C669 1.396 . S
H671 C666 0.929 . S
O672 Mn648 2.385 . S
O672 C650 1.234 . S
O673 Mn648 2.209 . S
O673 Mn649 2.215 . S
O673 C650 1.283 . S
O674 Mn648 2.094 . S
O674 C652 1.240 . S
O675 Mn649 2.117 . S
O675 C652 1.264 . S
C676 C669 1.403 . S
C676 C677 1.399 . S
C676 H682 0.929 . S
C677 C657 1.449 . S
C677 C676 1.399 . S
C677 H683 0.930 . S
H678 C658 0.931 . S
H679 C659 0.930 . S
H680 C667 0.931 . S
H681 C668 0.929 . S
H682 C676 0.929 . S
H683 C677 0.930 . S
Mn684 O689 2.095 . S
Mn684 O699 2.162 . S
Mn684 O700 2.297 . S
Mn684 O708 2.385 . S
Mn684 O709 2.209 . S
Mn684 O710 2.094 . S
Mn685 O690 2.121 . S
Mn685 N692 2.257 . S
Mn685 N701 2.282 . S
Mn685 O709 2.215 . S
Mn685 O711 2.117 . S
C686 O708 1.234 . S
C686 O709 1.283 . S
C687 O699 1.281 . S
C687 O700 1.236 . S
C688 O710 1.240 . S
C688 O711 1.264 . S
O689 Mn684 2.095 . S
O689 C698 1.250 . S
O690 Mn685 2.121 . S
O690 C698 1.258 . S
C691 N692 1.326 . S
C691 C695 1.460 . S
C691 H697 0.929 . S
N692 Mn685 2.257 . S
N692 C691 1.326 . S
N692 C696 1.362 . S
C693 C694 1.258 . S
C693 C696 1.431 . S
C693 C713 1.449 . S
C694 C693 1.258 . S
C694 C695 1.477 . S
C694 H714 0.931 . S
C695 C691 1.460 . S
C695 C694 1.477 . S
C695 H715 0.930 . S
C696 N692 1.362 . S
C696 C693 1.431 . S
C696 C706 1.476 . S
H697 C691 0.929 . S
C698 O689 1.250 . S
C698 O690 1.258 . S
O699 Mn684 2.162 . S
O699 C687 1.281 . S
O700 Mn684 2.297 . S
O700 C687 1.236 . S
N701 Mn685 2.282 . S
N701 C702 1.328 . S
N701 C706 1.318 . S
C702 N701 1.328 . S
C702 C703 1.457 . S
C702 H707 0.929 . S
C703 C702 1.457 . S
C703 C704 1.291 . S
C703 H716 0.931 . S
C704 C703 1.291 . S
C704 C705 1.373 . S
C704 H717 0.929 . S
C705 C704 1.373 . S
C705 C706 1.396 . S
C705 C712 1.403 . S
C706 C696 1.476 . S
C706 N701 1.318 . S
C706 C705 1.396 . S
H707 C702 0.929 . S
O708 Mn684 2.385 . S
O708 C686 1.234 . S
O709 Mn684 2.209 . S
O709 Mn685 2.215 . S
O709 C686 1.283 . S
O710 Mn684 2.094 . S
O710 C688 1.240 . S
O711 Mn685 2.117 . S
O711 C688 1.264 . S
C712 C705 1.403 . S
C712 C713 1.399 . S
C712 H718 0.929 . S
C713 C693 1.449 . S
C713 C712 1.399 . S
C713 H719 0.930 . S
H714 C694 0.931 . S
H715 C695 0.930 . S
H716 C703 0.931 . S
H717 C704 0.929 . S
H718 C712 0.929 . S
H719 C713 0.930 . S
Mn720 O725 2.095 . S
Mn720 O735 2.162 . S
Mn720 O736 2.297 . S
Mn720 O744 2.385 . S
Mn720 O745 2.209 . S
Mn720 O746 2.094 . S
Mn721 O726 2.121 . S
Mn721 N728 2.257 . S
Mn721 N737 2.282 . S
Mn721 O745 2.215 . S
Mn721 O747 2.117 . S
C722 O744 1.234 . S
C722 O745 1.283 . S
C723 O735 1.281 . S
C723 O736 1.236 . S
C724 O746 1.240 . S
C724 O747 1.264 . S
O725 Mn720 2.095 . S
O725 C734 1.250 . S
O726 Mn721 2.121 . S
O726 C734 1.258 . S
C727 N728 1.326 . S
C727 C731 1.460 . S
C727 H733 0.929 . S
N728 Mn721 2.257 . S
N728 C727 1.326 . S
N728 C732 1.362 . S
C729 C730 1.258 . S
C729 C732 1.431 . S
C729 C749 1.449 . S
C730 C729 1.258 . S
C730 C731 1.477 . S
C730 H750 0.931 . S
C731 C727 1.460 . S
C731 C730 1.477 . S
C731 H751 0.930 . S
C732 N728 1.362 . S
C732 C729 1.431 . S
C732 C742 1.476 . S
H733 C727 0.929 . S
C734 O725 1.250 . S
C734 O726 1.258 . S
O735 Mn720 2.162 . S
O735 C723 1.281 . S
O736 Mn720 2.297 . S
O736 C723 1.236 . S
N737 Mn721 2.282 . S
N737 C738 1.328 . S
N737 C742 1.318 . S
C738 N737 1.328 . S
C738 C739 1.457 . S
C738 H743 0.929 . S
C739 C738 1.457 . S
C739 C740 1.291 . S
C739 H752 0.931 . S
C740 C739 1.291 . S
C740 C741 1.373 . S
C740 H753 0.929 . S
C741 C740 1.373 . S
C741 C742 1.396 . S
C741 C748 1.403 . S
C742 C732 1.476 . S
C742 N737 1.318 . S
C742 C741 1.396 . S
H743 C738 0.929 . S
O744 Mn720 2.385 . S
O744 C722 1.234 . S
O745 Mn720 2.209 . S
O745 Mn721 2.215 . S
O745 C722 1.283 . S
O746 Mn720 2.094 . S
O746 C724 1.240 . S
O747 Mn721 2.117 . S
O747 C724 1.264 . S
C748 C741 1.403 . S
C748 C749 1.399 . S
C748 H754 0.929 . S
C749 C729 1.449 . S
C749 C748 1.399 . S
C749 H755 0.930 . S
H750 C730 0.931 . S
H751 C731 0.930 . S
H752 C739 0.931 . S
H753 C740 0.929 . S
H754 C748 0.929 . S
H755 C749 0.930 . S
Mn756 O761 2.095 . S
Mn756 O771 2.162 . S
Mn756 O772 2.297 . S
Mn756 O780 2.385 . S
Mn756 O781 2.209 . S
Mn756 O782 2.094 . S
Mn757 O762 2.121 . S
Mn757 N764 2.257 . S
Mn757 N773 2.282 . S
Mn757 O781 2.215 . S
Mn757 O783 2.117 . S
C758 O780 1.234 . S
C758 O781 1.283 . S
C759 O771 1.281 . S
C759 O772 1.236 . S
C760 O782 1.240 . S
C760 O783 1.264 . S
O761 Mn756 2.095 . S
O761 C770 1.250 . S
O762 Mn757 2.121 . S
O762 C770 1.258 . S
C763 N764 1.326 . S
C763 C767 1.460 . S
C763 H769 0.929 . S
N764 Mn757 2.257 . S
N764 C763 1.326 . S
N764 C768 1.362 . S
C765 C766 1.258 . S
C765 C768 1.431 . S
C765 C785 1.449 . S
C766 C765 1.258 . S
C766 C767 1.477 . S
C766 H786 0.931 . S
C767 C763 1.460 . S
C767 C766 1.477 . S
C767 H787 0.930 . S
C768 N764 1.362 . S
C768 C765 1.431 . S
C768 C778 1.476 . S
H769 C763 0.929 . S
C770 O761 1.250 . S
C770 O762 1.258 . S
O771 Mn756 2.162 . S
O771 C759 1.281 . S
O772 Mn756 2.297 . S
O772 C759 1.236 . S
N773 Mn757 2.282 . S
N773 C774 1.328 . S
N773 C778 1.318 . S
C774 N773 1.328 . S
C774 C775 1.457 . S
C774 H779 0.929 . S
C775 C774 1.457 . S
C775 C776 1.291 . S
C775 H788 0.931 . S
C776 C775 1.291 . S
C776 C777 1.373 . S
C776 H789 0.929 . S
C777 C776 1.373 . S
C777 C778 1.396 . S
C777 C784 1.403 . S
C778 C768 1.476 . S
C778 N773 1.318 . S
C778 C777 1.396 . S
H779 C774 0.929 . S
O780 Mn756 2.385 . S
O780 C758 1.234 . S
O781 Mn756 2.209 . S
O781 Mn757 2.215 . S
O781 C758 1.283 . S
O782 Mn756 2.094 . S
O782 C760 1.240 . S
O783 Mn757 2.117 . S
O783 C760 1.264 . S
C784 C777 1.403 . S
C784 C785 1.399 . S
C784 H790 0.929 . S
C785 C765 1.449 . S
C785 C784 1.399 . S
C785 H791 0.930 . S
H786 C766 0.931 . S
H787 C767 0.930 . S
H788 C775 0.931 . S
H789 C776 0.929 . S
H790 C784 0.929 . S
H791 C785 0.930 . S
Mn792 O797 2.095 . S
Mn792 O807 2.162 . S
Mn792 O808 2.297 . S
Mn792 O816 2.385 . S
Mn792 O817 2.209 . S
Mn792 O818 2.094 . S
Mn793 O798 2.121 . S
Mn793 N800 2.257 . S
Mn793 N809 2.282 . S
Mn793 O817 2.215 . S
Mn793 O819 2.117 . S
C794 O816 1.234 . S
C794 O817 1.283 . S
C795 O807 1.281 . S
C795 O808 1.236 . S
C796 O818 1.240 . S
C796 O819 1.264 . S
O797 Mn792 2.095 . S
O797 C806 1.250 . S
O798 Mn793 2.121 . S
O798 C806 1.258 . S
C799 N800 1.326 . S
C799 C803 1.460 . S
C799 H805 0.929 . S
N800 Mn793 2.257 . S
N800 C799 1.326 . S
N800 C804 1.362 . S
C801 C802 1.258 . S
C801 C804 1.431 . S
C801 C821 1.449 . S
C802 C801 1.258 . S
C802 C803 1.477 . S
C802 H822 0.931 . S
C803 C799 1.460 . S
C803 C802 1.477 . S
C803 H823 0.930 . S
C804 N800 1.362 . S
C804 C801 1.431 . S
C804 C814 1.476 . S
H805 C799 0.929 . S
C806 O797 1.250 . S
C806 O798 1.258 . S
O807 Mn792 2.162 . S
O807 C795 1.281 . S
O808 Mn792 2.297 . S
O808 C795 1.236 . S
N809 Mn793 2.282 . S
N809 C810 1.328 . S
N809 C814 1.318 . S
C810 N809 1.328 . S
C810 C811 1.457 . S
C810 H815 0.929 . S
C811 C810 1.457 . S
C811 C812 1.291 . S
C811 H824 0.931 . S
C812 C811 1.291 . S
C812 C813 1.373 . S
C812 H825 0.929 . S
C813 C812 1.373 . S
C813 C814 1.396 . S
C813 C820 1.403 . S
C814 C804 1.476 . S
C814 N809 1.318 . S
C814 C813 1.396 . S
H815 C810 0.929 . S
O816 Mn792 2.385 . S
O816 C794 1.234 . S
O817 Mn792 2.209 . S
O817 Mn793 2.215 . S
O817 C794 1.283 . S
O818 Mn792 2.094 . S
O818 C796 1.240 . S
O819 Mn793 2.117 . S
O819 C796 1.264 . S
C820 C813 1.403 . S
C820 C821 1.399 . S
C820 H826 0.929 . S
C821 C801 1.449 . S
C821 C820 1.399 . S
C821 H827 0.930 . S
H822 C802 0.931 . S
H823 C803 0.930 . S
H824 C811 0.931 . S
H825 C812 0.929 . S
H826 C820 0.929 . S
H827 C821 0.930 . S
Mn828 O833 2.095 . S
Mn828 O843 2.162 . S
Mn828 O844 2.297 . S
Mn828 O852 2.385 . S
Mn828 O853 2.209 . S
Mn828 O854 2.094 . S
Mn829 O834 2.121 . S
Mn829 N836 2.257 . S
Mn829 N845 2.282 . S
Mn829 O853 2.215 . S
Mn829 O855 2.117 . S
C830 O852 1.234 . S
C830 O853 1.283 . S
C831 O843 1.281 . S
C831 O844 1.236 . S
C832 O854 1.240 . S
C832 O855 1.264 . S
O833 Mn828 2.095 . S
O833 C842 1.250 . S
O834 Mn829 2.121 . S
O834 C842 1.258 . S
C835 N836 1.326 . S
C835 C839 1.460 . S
C835 H841 0.929 . S
N836 Mn829 2.257 . S
N836 C835 1.326 . S
N836 C840 1.362 . S
C837 C838 1.258 . S
C837 C840 1.431 . S
C837 C857 1.449 . S
C838 C837 1.258 . S
C838 C839 1.477 . S
C838 H858 0.931 . S
C839 C835 1.460 . S
C839 C838 1.477 . S
C839 H859 0.930 . S
C840 N836 1.362 . S
C840 C837 1.431 . S
C840 C850 1.476 . S
H841 C835 0.929 . S
C842 O833 1.250 . S
C842 O834 1.258 . S
O843 Mn828 2.162 . S
O843 C831 1.281 . S
O844 Mn828 2.297 . S
O844 C831 1.236 . S
N845 Mn829 2.282 . S
N845 C846 1.328 . S
N845 C850 1.318 . S
C846 N845 1.328 . S
C846 C847 1.457 . S
C846 H851 0.929 . S
C847 C846 1.457 . S
C847 C848 1.291 . S
C847 H860 0.931 . S
C848 C847 1.291 . S
C848 C849 1.373 . S
C848 H861 0.929 . S
C849 C848 1.373 . S
C849 C850 1.396 . S
C849 C856 1.403 . S
C850 C840 1.476 . S
C850 N845 1.318 . S
C850 C849 1.396 . S
H851 C846 0.929 . S
O852 Mn828 2.385 . S
O852 C830 1.234 . S
O853 Mn828 2.209 . S
O853 Mn829 2.215 . S
O853 C830 1.283 . S
O854 Mn828 2.094 . S
O854 C832 1.240 . S
O855 Mn829 2.117 . S
O855 C832 1.264 . S
C856 C849 1.403 . S
C856 C857 1.399 . S
C856 H862 0.929 . S
C857 C837 1.449 . S
C857 C856 1.399 . S
C857 H863 0.930 . S
H858 C838 0.931 . S
H859 C839 0.930 . S
H860 C847 0.931 . S
H861 C848 0.929 . S
H862 C856 0.929 . S
H863 C857 0.930 . S
C864 C865 1.387 . S
C864 H868 0.950 . S
C864 C873 1.390 . S
C865 C864 1.387 . S
C865 C867 1.387 . S
H866 C873 0.950 . S
C867 C865 1.387 . S
C867 C869 1.390 . S
C867 H871 0.950 . S
H868 C864 0.950 . S
C869 C867 1.390 . S
C869 C870 1.387 . S
C869 H872 0.950 . S
C870 C869 1.387 . S
C870 C873 1.387 . S
H871 C867 0.950 . S
H872 C869 0.950 . S
C873 C864 1.390 . S
C873 H866 0.950 . S
C873 C870 1.387 . S
C874 C875 1.387 . S
C874 H878 0.950 . S
C874 C883 1.390 . S
C875 C874 1.387 . S
C875 C877 1.387 . S
H876 C883 0.950 . S
C877 C875 1.387 . S
C877 C879 1.390 . S
C877 H881 0.950 . S
H878 C874 0.950 . S
C879 C877 1.390 . S
C879 C880 1.387 . S
C879 H882 0.950 . S
C880 C879 1.387 . S
C880 C883 1.387 . S
H881 C877 0.950 . S
H882 C879 0.950 . S
C883 C874 1.390 . S
C883 H876 0.950 . S
C883 C880 1.387 . S
C884 C885 1.387 . S
C884 H888 0.950 1_655 S
C884 C893 1.390 . S
C885 C884 1.387 . S
C885 C887 1.387 . S
H886 C893 0.950 1_455 S
C887 C885 1.387 . S
C887 C889 1.390 . S
C887 H891 0.950 . S
H888 C884 0.950 1_455 S
C889 C887 1.390 . S
C889 C890 1.387 . S
C889 H892 0.950 . S
C890 C889 1.387 . S
C890 C893 1.387 . S
H891 C887 0.950 . S
H892 C889 0.950 . S
C893 C884 1.390 . S
C893 H886 0.950 1_655 S
C893 C890 1.387 . S
C894 C895 1.387 . S
C894 H898 0.950 . S
C894 C903 1.390 . S
C895 C894 1.387 . S
C895 C897 1.387 . S
H896 C903 0.950 . S
C897 C895 1.387 . S
C897 C899 1.390 . S
C897 H901 0.950 1_565 S
H898 C894 0.950 . S
C899 C897 1.390 . S
C899 C900 1.387 . S
C899 H902 0.950 1_565 S
C900 C899 1.387 . S
C900 C903 1.387 . S
H901 C897 0.950 1_545 S
H902 C899 0.950 1_545 S
C903 C894 1.390 . S
C903 H896 0.950 . S
C903 C900 1.387 . S
C904 C905 1.387 . S
C904 H908 0.950 . S
C904 C913 1.390 . S
C905 C904 1.387 . S
C905 C907 1.387 . S
H906 C913 0.950 . S
C907 C905 1.387 . S
C907 C909 1.390 . S
C907 H911 0.950 . S
H908 C904 0.950 . S
C909 C907 1.390 . S
C909 C910 1.387 . S
C909 H912 0.950 . S
C910 C909 1.387 . S
C910 C913 1.387 . S
H911 C907 0.950 . S
H912 C909 0.950 . S
C913 C904 1.390 . S
C913 H906 0.950 . S
C913 C910 1.387 . S
C914 C915 1.387 . S
C914 H918 0.950 1_455 S
C914 C923 1.390 . S
C915 C914 1.387 . S
C915 C917 1.387 . S
H916 C923 0.950 1_655 S
C917 C915 1.387 . S
C917 C919 1.390 . S
C917 H921 0.950 . S
H918 C914 0.950 1_655 S
C919 C917 1.390 . S
C919 C920 1.387 . S
C919 H922 0.950 . S
C920 C919 1.387 . S
C920 C923 1.387 . S
H921 C917 0.950 . S
H922 C919 0.950 . S
C923 C914 1.390 . S
C923 H916 0.950 1_455 S
C923 C920 1.387 . S
C924 C925 1.387 . S
C924 H928 0.950 . S
C924 C933 1.390 . S
C925 C924 1.387 . S
C925 C927 1.387 . S
H926 C933 0.950 . S
C927 C925 1.387 . S
C927 C929 1.390 . S
C927 H931 0.950 1_655 S
H928 C924 0.950 . S
C929 C927 1.390 . S
C929 C930 1.387 . S
C929 H932 0.950 1_655 S
C930 C929 1.387 . S
C930 C933 1.387 . S
H931 C927 0.950 1_455 S
H932 C929 0.950 1_455 S
C933 C924 1.390 . S
C933 H926 0.950 . S
C933 C930 1.387 . S
C934 C935 1.387 . S
C934 H938 0.950 1_565 S
C934 C943 1.390 . S
C935 C934 1.387 . S
C935 C937 1.387 . S
H936 C943 0.950 1_545 S
C937 C935 1.387 . S
C937 C939 1.390 . S
C937 H941 0.950 . S
H938 C934 0.950 1_545 S
C939 C937 1.390 . S
C939 C940 1.387 . S
C939 H942 0.950 . S
C940 C939 1.387 . S
C940 C943 1.387 . S
H941 C937 0.950 . S
H942 C939 0.950 . S
C943 C934 1.390 . S
C943 H936 0.950 1_565 S
C943 C940 1.387 . S
C944 C945 1.387 . S
C944 H948 0.950 . S
C944 C953 1.390 . S
C945 C944 1.387 . S
C945 C947 1.387 . S
H946 C953 0.950 . S
C947 C945 1.387 . S
C947 C949 1.390 . S
C947 H951 0.950 . S
H948 C944 0.950 . S
C949 C947 1.390 . S
C949 C950 1.387 . S
C949 H952 0.950 . S
C950 C949 1.387 . S
C950 C953 1.387 . S
H951 C947 0.950 . S
H952 C949 0.950 . S
C953 C944 1.390 . S
C953 H946 0.950 . S
C953 C950 1.387 . S
C954 C955 1.387 . S
C954 H958 0.950 . S
C954 C963 1.390 . S
C955 C954 1.387 . S
C955 C957 1.387 . S
H956 C963 0.950 . S
C957 C955 1.387 . S
C957 C959 1.390 . S
C957 H961 0.950 . S
H958 C954 0.950 . S
C959 C957 1.390 . S
C959 C960 1.387 . S
C959 H962 0.950 . S
C960 C959 1.387 . S
C960 C963 1.387 . S
H961 C957 0.950 . S
H962 C959 0.950 . S
C963 C954 1.390 . S
C963 H956 0.950 . S
C963 C960 1.387 . S
C964 C965 1.387 . S
C964 H968 0.950 1_545 S
C964 C973 1.390 . S
C965 C964 1.387 . S
C965 C967 1.387 . S
H966 C973 0.950 1_565 S
C967 C965 1.387 . S
C967 C969 1.390 . S
C967 H971 0.950 . S
H968 C964 0.950 1_565 S
C969 C967 1.390 . S
C969 C970 1.387 . S
C969 H972 0.950 . S
C970 C969 1.387 . S
C970 C973 1.387 . S
H971 C967 0.950 . S
H972 C969 0.950 . S
C973 C964 1.390 . S
C973 H966 0.950 1_545 S
C973 C970 1.387 . S
C974 C975 1.387 . S
C974 H978 0.950 . S
C974 C983 1.390 . S
C975 C974 1.387 . S
C975 C977 1.387 . S
H976 C983 0.950 . S
C977 C975 1.387 . S
C977 C979 1.390 . S
C977 H981 0.950 . S
H978 C974 0.950 . S
C979 C977 1.390 . S
C979 C980 1.387 . S
C979 H982 0.950 . S
C980 C979 1.387 . S
C980 C983 1.387 . S
H981 C977 0.950 . S
H982 C979 0.950 . S
C983 C974 1.390 . S
C983 H976 0.950 . S
C983 C980 1.387 . S
C984 C985 1.387 . S
C984 H988 0.950 . S
C984 C993 1.390 . S
C985 C984 1.387 . S
C985 C987 1.387 . S
H986 C993 0.950 . S
C987 C985 1.387 . S
C987 C989 1.390 . S
C987 H991 0.950 . S
H988 C984 0.950 . S
C989 C987 1.390 . S
C989 C990 1.387 . S
C989 H992 0.950 . S
C990 C989 1.387 . S
C990 C993 1.387 . S
H991 C987 0.950 . S
H992 C989 0.950 . S
C993 C984 1.390 . S
C993 H986 0.950 . S
C993 C990 1.387 . S
C994 C995 1.387 . S
C994 H998 0.950 . S
C994 C1003 1.390 . S
C995 C994 1.387 . S
C995 C997 1.387 . S
H996 C1003 0.950 . S
C997 C995 1.387 . S
C997 C999 1.390 . S
C997 H1001 0.950 . S
H998 C994 0.950 . S
C999 C997 1.390 . S
C999 C1000 1.387 . S
C999 H1002 0.950 . S
C1000 C999 1.387 . S
C1000 C1003 1.387 . S
H1001 C997 0.950 . S
H1002 C999 0.950 . S
C1003 C994 1.390 . S
C1003 H996 0.950 . S
C1003 C1000 1.387 . S
C1004 C1005 1.387 . S
C1004 H1008 0.950 . S
C1004 C1013 1.390 . S
C1005 C1004 1.387 . S
C1005 C1007 1.387 . S
H1006 C1013 0.950 . S
C1007 C1005 1.387 . S
C1007 C1009 1.390 . S
C1007 H1011 0.950 . S
H1008 C1004 0.950 . S
C1009 C1007 1.390 . S
C1009 C1010 1.387 . S
C1009 H1012 0.950 . S
C1010 C1009 1.387 . S
C1010 C1013 1.387 . S
H1011 C1007 0.950 . S
H1012 C1009 0.950 . S
C1013 C1004 1.390 . S
C1013 H1006 0.950 . S
C1013 C1010 1.387 . S
C1014 C1015 1.387 . S
C1014 H1018 0.950 . S
C1014 C1023 1.390 . S
C1015 C1014 1.387 . S
C1015 C1017 1.387 . S
H1016 C1023 0.950 . S
C1017 C1015 1.387 . S
C1017 C1019 1.390 . S
C1017 H1021 0.950 . S
H1018 C1014 0.950 . S
C1019 C1017 1.390 . S
C1019 C1020 1.387 . S
C1019 H1022 0.950 . S
C1020 C1019 1.387 . S
C1020 C1023 1.387 . S
H1021 C1017 0.950 . S
H1022 C1019 0.950 . S
C1023 C1014 1.390 . S
C1023 H1016 0.950 . S
C1023 C1020 1.387 . S
C1024 C1025 1.387 . S
C1024 H1028 0.950 . S
C1024 C1033 1.390 . S
C1025 C1024 1.387 . S
C1025 C1027 1.387 . S
H1026 C1033 0.950 . S
C1027 C1025 1.387 . S
C1027 C1029 1.390 . S
C1027 H1031 0.950 . S
H1028 C1024 0.950 . S
C1029 C1027 1.390 . S
C1029 C1030 1.387 . S
C1029 H1032 0.950 . S
C1030 C1029 1.387 . S
C1030 C1033 1.387 . S
H1031 C1027 0.950 . S
H1032 C1029 0.950 . S
C1033 C1024 1.390 . S
C1033 H1026 0.950 . S
C1033 C1030 1.387 . S
C1034 C1035 1.387 . S
C1034 H1038 0.950 . S
C1034 C1043 1.390 . S
C1035 C1034 1.387 . S
C1035 C1037 1.387 . S
H1036 C1043 0.950 . S
C1037 C1035 1.387 . S
C1037 C1039 1.390 . S
C1037 H1041 0.950 . S
H1038 C1034 0.950 . S
C1039 C1037 1.390 . S
C1039 C1040 1.387 . S
C1039 H1042 0.950 . S
C1040 C1039 1.387 . S
C1040 C1043 1.387 . S
H1041 C1037 0.950 . S
H1042 C1039 0.950 . S
C1043 C1034 1.390 . S
C1043 H1036 0.950 . S
C1043 C1040 1.387 . S
C1044 C1045 1.387 . S
C1044 H1048 0.950 . S
C1044 C1053 1.390 . S
C1045 C1044 1.387 . S
C1045 C1047 1.387 . S
H1046 C1053 0.950 . S
C1047 C1045 1.387 . S
C1047 C1049 1.390 . S
C1047 H1051 0.950 . S
H1048 C1044 0.950 . S
C1049 C1047 1.390 . S
C1049 C1050 1.387 . S
C1049 H1052 0.950 . S
C1050 C1049 1.387 . S
C1050 C1053 1.387 . S
H1051 C1047 0.950 . S
H1052 C1049 0.950 . S
C1053 C1044 1.390 . S
C1053 H1046 0.950 . S
C1053 C1050 1.387 . S
C1054 C1055 1.387 . S
C1054 H1058 0.950 . S
C1054 C1063 1.390 . S
C1055 C1054 1.387 . S
C1055 C1057 1.387 . S
H1056 C1063 0.950 . S
C1057 C1055 1.387 . S
C1057 C1059 1.390 . S
C1057 H1061 0.950 . S
H1058 C1054 0.950 . S
C1059 C1057 1.390 . S
C1059 C1060 1.387 . S
C1059 H1062 0.950 . S
C1060 C1059 1.387 . S
C1060 C1063 1.387 . S
H1061 C1057 0.950 . S
H1062 C1059 0.950 . S
C1063 C1054 1.390 . S
C1063 H1056 0.950 . S
C1063 C1060 1.387 . S
C1064 C1065 1.387 . S
C1064 H1068 0.950 . S
C1064 C1073 1.390 . S
C1065 C1064 1.387 . S
C1065 C1067 1.387 . S
H1066 C1073 0.950 . S
C1067 C1065 1.387 . S
C1067 C1069 1.390 . S
C1067 H1071 0.950 . S
H1068 C1064 0.950 . S
C1069 C1067 1.390 . S
C1069 C1070 1.387 . S
C1069 H1072 0.950 . S
C1070 C1069 1.387 . S
C1070 C1073 1.387 . S
H1071 C1067 0.950 . S
H1072 C1069 0.950 . S
C1073 C1064 1.390 . S
C1073 H1066 0.950 . S
C1073 C1070 1.387 . S
C1074 C1075 1.387 . S
C1074 H1078 0.950 . S
C1074 C1083 1.390 . S
C1075 C1074 1.387 . S
C1075 C1077 1.387 . S
H1076 C1083 0.950 . S
C1077 C1075 1.387 . S
C1077 C1079 1.390 . S
C1077 H1081 0.950 . S
H1078 C1074 0.950 . S
C1079 C1077 1.390 . S
C1079 C1080 1.387 . S
C1079 H1082 0.950 . S
C1080 C1079 1.387 . S
C1080 C1083 1.387 . S
H1081 C1077 0.950 . S
H1082 C1079 0.950 . S
C1083 C1074 1.390 . S
C1083 H1076 0.950 . S
C1083 C1080 1.387 . S
C1084 C1085 1.387 . S
C1084 H1088 0.950 . S
C1084 C1093 1.390 . S
C1085 C1084 1.387 . S
C1085 C1087 1.387 . S
H1086 C1093 0.950 . S
C1087 C1085 1.387 . S
C1087 C1089 1.390 . S
C1087 H1091 0.950 . S
H1088 C1084 0.950 . S
C1089 C1087 1.390 . S
C1089 C1090 1.387 . S
C1089 H1092 0.950 . S
C1090 C1089 1.387 . S
C1090 C1093 1.387 . S
H1091 C1087 0.950 . S
H1092 C1089 0.950 . S
C1093 C1084 1.390 . S
C1093 H1086 0.950 . S
C1093 C1090 1.387 . S
C1094 C1095 1.387 . S
C1094 H1098 0.950 . S
C1094 C1103 1.390 . S
C1095 C1094 1.387 . S
C1095 C1097 1.387 . S
H1096 C1103 0.950 . S
C1097 C1095 1.387 . S
C1097 C1099 1.390 . S
C1097 H1101 0.950 . S
H1098 C1094 0.950 . S
C1099 C1097 1.390 . S
C1099 C1100 1.387 . S
C1099 H1102 0.950 . S
C1100 C1099 1.387 . S
C1100 C1103 1.387 . S
H1101 C1097 0.950 . S
H1102 C1099 0.950 . S
C1103 C1094 1.390 . S
C1103 H1096 0.950 . S
C1103 C1100 1.387 . S
C1104 C1105 1.387 . S
C1104 H1108 0.950 . S
C1104 C1113 1.390 1_566 S
C1105 C1104 1.387 . S
C1105 C1107 1.387 . S
H1106 C1113 0.950 . S
C1107 C1105 1.387 . S
C1107 C1109 1.390 1_566 S
C1107 H1111 0.950 . S
H1108 C1104 0.950 . S
C1109 C1107 1.390 1_544 S
C1109 C1110 1.387 . S
C1109 H1112 0.950 . S
C1110 C1109 1.387 . S
C1110 C1113 1.387 . S
H1111 C1107 0.950 . S
H1112 C1109 0.950 . S
C1113 C1104 1.390 1_544 S
C1113 H1106 0.950 . S
C1113 C1110 1.387 . S
C1114 C1115 1.387 . S
C1114 H1118 0.950 . S
C1114 C1123 1.390 . S
C1115 C1114 1.387 . S
C1115 C1117 1.387 . S
H1116 C1123 0.950 . S
C1117 C1115 1.387 . S
C1117 C1119 1.390 . S
C1117 H1121 0.950 . S
H1118 C1114 0.950 . S
C1119 C1117 1.390 . S
C1119 C1120 1.387 . S
C1119 H1122 0.950 . S
C1120 C1119 1.387 . S
C1120 C1123 1.387 . S
H1121 C1117 0.950 . S
H1122 C1119 0.950 . S
C1123 C1114 1.390 . S
C1123 H1116 0.950 . S
C1123 C1120 1.387 . S
C1124 C1125 1.387 1_655 S
C1124 H1128 0.950 . S
C1124 C1133 1.390 1_556 S
C1125 C1124 1.387 1_455 S
C1125 C1127 1.387 . S
H1126 C1133 0.950 . S
C1127 C1125 1.387 . S
C1127 C1129 1.390 1_556 S
C1127 H1131 0.950 . S
H1128 C1124 0.950 . S
C1129 C1127 1.390 1_554 S
C1129 C1130 1.387 1_455 S
C1129 H1132 0.950 . S
C1130 C1129 1.387 1_655 S
C1130 C1133 1.387 . S
H1131 C1127 0.950 . S
H1132 C1129 0.950 . S
C1133 C1124 1.390 1_554 S
C1133 H1126 0.950 . S
C1133 C1130 1.387 . S
C1134 C1135 1.387 . S
C1134 H1138 0.950 . S
C1134 C1143 1.390 1_545 S
C1135 C1134 1.387 . S
C1135 C1137 1.387 . S
H1136 C1143 0.950 . S
C1137 C1135 1.387 . S
C1137 C1139 1.390 1_545 S
C1137 H1141 0.950 . S
H1138 C1134 0.950 . S
C1139 C1137 1.390 1_565 S
C1139 C1140 1.387 . S
C1139 H1142 0.950 . S
C1140 C1139 1.387 . S
C1140 C1143 1.387 . S
H1141 C1137 0.950 . S
H1142 C1139 0.950 . S
C1143 C1134 1.390 1_565 S
C1143 H1136 0.950 . S
C1143 C1140 1.387 . S
C1144 C1145 1.387 . S
C1144 H1148 0.950 . S
C1144 C1153 1.390 1_554 S
C1145 C1144 1.387 . S
C1145 C1147 1.387 . S
H1146 C1153 0.950 . S
C1147 C1145 1.387 . S
C1147 C1149 1.390 1_554 S
C1147 H1151 0.950 . S
H1148 C1144 0.950 . S
C1149 C1147 1.390 1_556 S
C1149 C1150 1.387 . S
C1149 H1152 0.950 . S
C1150 C1149 1.387 . S
C1150 C1153 1.387 . S
H1151 C1147 0.950 . S
H1152 C1149 0.950 . S
C1153 C1144 1.390 1_556 S
C1153 H1146 0.950 . S
C1153 C1150 1.387 . S
C1154 C1155 1.387 1_655 S
C1154 H1158 0.950 . S
C1154 C1163 1.390 . S
C1155 C1154 1.387 1_455 S
C1155 C1157 1.387 . S
H1156 C1163 0.950 . S
C1157 C1155 1.387 . S
C1157 C1159 1.390 . S
C1157 H1161 0.950 . S
H1158 C1154 0.950 . S
C1159 C1157 1.390 . S
C1159 C1160 1.387 1_455 S
C1159 H1162 0.950 . S
C1160 C1159 1.387 1_655 S
C1160 C1163 1.387 . S
H1161 C1157 0.950 . S
H1162 C1159 0.950 . S
C1163 C1154 1.390 . S
C1163 H1156 0.950 . S
C1163 C1160 1.387 . S
C1164 C1165 1.387 . S
C1164 H1168 0.950 . S
C1164 C1173 1.390 1_566 S
C1165 C1164 1.387 . S
C1165 C1167 1.387 . S
H1166 C1173 0.950 . S
C1167 C1165 1.387 . S
C1167 C1169 1.390 1_566 S
C1167 H1171 0.950 . S
H1168 C1164 0.950 . S
C1169 C1167 1.390 1_544 S
C1169 C1170 1.387 . S
C1169 H1172 0.950 . S
C1170 C1169 1.387 . S
C1170 C1173 1.387 . S
H1171 C1167 0.950 . S
H1172 C1169 0.950 . S
C1173 C1164 1.390 1_544 S
C1173 H1166 0.950 . S
C1173 C1170 1.387 . S
C1174 C1175 1.387 . S
C1174 H1178 0.950 . S
C1174 C1183 1.390 . S
C1175 C1174 1.387 . S
C1175 C1177 1.387 . S
H1176 C1183 0.950 . S
C1177 C1175 1.387 . S
C1177 C1179 1.390 . S
C1177 H1181 0.950 . S
H1178 C1174 0.950 . S
C1179 C1177 1.390 . S
C1179 C1180 1.387 . S
C1179 H1182 0.950 . S
C1180 C1179 1.387 . S
C1180 C1183 1.387 . S
H1181 C1177 0.950 . S
H1182 C1179 0.950 . S
C1183 C1174 1.390 . S
C1183 H1176 0.950 . S
C1183 C1180 1.387 . S
C1184 C1185 1.387 . S
C1184 H1188 0.950 . S
C1184 C1193 1.390 1_554 S
C1185 C1184 1.387 . S
C1185 C1187 1.387 1_655 S
H1186 C1193 0.950 . S
C1187 C1185 1.387 1_455 S
C1187 C1189 1.390 1_554 S
C1187 H1191 0.950 . S
H1188 C1184 0.950 . S
C1189 C1187 1.390 1_556 S
C1189 C1190 1.387 . S
C1189 H1192 0.950 . S
C1190 C1189 1.387 . S
C1190 C1193 1.387 1_455 S
H1191 C1187 0.950 . S
H1192 C1189 0.950 . S
C1193 C1184 1.390 1_556 S
C1193 H1186 0.950 . S
C1193 C1190 1.387 1_655 S
C1194 C1195 1.387 . S
C1194 H1198 0.950 . S
C1194 C1203 1.390 1_565 S
C1195 C1194 1.387 . S
C1195 C1197 1.387 . S
H1196 C1203 0.950 . S
C1197 C1195 1.387 . S
C1197 C1199 1.390 1_565 S
C1197 H1201 0.950 . S
H1198 C1194 0.950 . S
C1199 C1197 1.390 1_545 S
C1199 C1200 1.387 . S
C1199 H1202 0.950 . S
C1200 C1199 1.387 . S
C1200 C1203 1.387 . S
H1201 C1197 0.950 . S
H1202 C1199 0.950 . S
C1203 C1194 1.390 1_545 S
C1203 H1196 0.950 . S
C1203 C1200 1.387 . S
C1204 C1205 1.387 . S
C1204 H1208 0.950 . S
C1204 C1213 1.390 1_554 S
C1205 C1204 1.387 . S
C1205 C1207 1.387 . S
H1206 C1213 0.950 . S
C1207 C1205 1.387 . S
C1207 C1209 1.390 1_554 S
C1207 H1211 0.950 . S
H1208 C1204 0.950 . S
C1209 C1207 1.390 1_556 S
C1209 C1210 1.387 . S
C1209 H1212 0.950 . S
C1210 C1209 1.387 . S
C1210 C1213 1.387 . S
H1211 C1207 0.950 . S
H1212 C1209 0.950 . S
C1213 C1204 1.390 1_556 S
C1213 H1206 0.950 . S
C1213 C1210 1.387 . S
C1214 C1215 1.387 1_655 S
C1214 H1218 0.950 . S
C1214 C1223 1.390 . S
C1215 C1214 1.387 1_455 S
C1215 C1217 1.387 . S
H1216 C1223 0.950 . S
C1217 C1215 1.387 . S
C1217 C1219 1.390 . S
C1217 H1221 0.950 . S
H1218 C1214 0.950 . S
C1219 C1217 1.390 . S
C1219 C1220 1.387 1_455 S
C1219 H1222 0.950 . S
C1220 C1219 1.387 1_655 S
C1220 C1223 1.387 . S
H1221 C1217 0.950 . S
H1222 C1219 0.950 . S
C1223 C1214 1.390 . S
C1223 H1216 0.950 . S
C1223 C1220 1.387 . S
C1224 C1225 1.387 . S
C1224 H1228 0.950 . S
C1224 C1233 1.390 . S
C1225 C1224 1.387 . S
C1225 C1227 1.387 . S
H1226 C1233 0.950 . S
C1227 C1225 1.387 . S
C1227 C1229 1.390 . S
C1227 H1231 0.950 . S
H1228 C1224 0.950 . S
C1229 C1227 1.390 . S
C1229 C1230 1.387 . S
C1229 H1232 0.950 . S
C1230 C1229 1.387 . S
C1230 C1233 1.387 . S
H1231 C1227 0.950 . S
H1232 C1229 0.950 . S
C1233 C1224 1.390 . S
C1233 H1226 0.950 . S
C1233 C1230 1.387 . S
C1234 C1235 1.387 . S
C1234 H1238 0.950 . S
C1234 C1243 1.390 . S
C1235 C1234 1.387 . S
C1235 C1237 1.387 . S
H1236 C1243 0.950 . S
C1237 C1235 1.387 . S
C1237 C1239 1.390 . S
C1237 H1241 0.950 . S
H1238 C1234 0.950 . S
C1239 C1237 1.390 . S
C1239 C1240 1.387 . S
C1239 H1242 0.950 . S
C1240 C1239 1.387 . S
C1240 C1243 1.387 . S
H1241 C1237 0.950 . S
H1242 C1239 0.950 . S
C1243 C1234 1.390 . S
C1243 H1236 0.950 . S
C1243 C1240 1.387 . S
C1244 C1245 1.387 . S
C1244 H1248 0.950 . S
C1244 C1253 1.390 . S
C1245 C1244 1.387 . S
C1245 C1247 1.387 . S
H1246 C1253 0.950 . S
C1247 C1245 1.387 . S
C1247 C1249 1.390 . S
C1247 H1251 0.950 . S
H1248 C1244 0.950 . S
C1249 C1247 1.390 . S
C1249 C1250 1.387 . S
C1249 H1252 0.950 . S
C1250 C1249 1.387 . S
C1250 C1253 1.387 . S
H1251 C1247 0.950 . S
H1252 C1249 0.950 . S
C1253 C1244 1.390 . S
C1253 H1246 0.950 . S
C1253 C1250 1.387 . S
C1254 C1255 1.387 . S
C1254 H1258 0.950 . S
C1254 C1263 1.390 . S
C1255 C1254 1.387 . S
C1255 C1257 1.387 . S
H1256 C1263 0.950 . S
C1257 C1255 1.387 . S
C1257 C1259 1.390 . S
C1257 H1261 0.950 . S
H1258 C1254 0.950 . S
C1259 C1257 1.390 . S
C1259 C1260 1.387 . S
C1259 H1262 0.950 . S
C1260 C1259 1.387 . S
C1260 C1263 1.387 . S
H1261 C1257 0.950 . S
H1262 C1259 0.950 . S
C1263 C1254 1.390 . S
C1263 H1256 0.950 . S
C1263 C1260 1.387 . S
C1264 C1265 1.387 . S
C1264 H1268 0.950 . S
C1264 C1273 1.390 . S
C1265 C1264 1.387 . S
C1265 C1267 1.387 . S
H1266 C1273 0.950 . S
C1267 C1265 1.387 . S
C1267 C1269 1.390 . S
C1267 H1271 0.950 . S
H1268 C1264 0.950 . S
C1269 C1267 1.390 . S
C1269 C1270 1.387 . S
C1269 H1272 0.950 . S
C1270 C1269 1.387 . S
C1270 C1273 1.387 . S
H1271 C1267 0.950 . S
H1272 C1269 0.950 . S
C1273 C1264 1.390 . S
C1273 H1266 0.950 . S
C1273 C1270 1.387 . S
C1274 C1275 1.387 . S
C1274 H1278 0.950 . S
C1274 C1283 1.390 . S
C1275 C1274 1.387 . S
C1275 C1277 1.387 . S
H1276 C1283 0.950 . S
C1277 C1275 1.387 . S
C1277 C1279 1.390 . S
C1277 H1281 0.950 . S
H1278 C1274 0.950 . S
C1279 C1277 1.390 . S
C1279 C1280 1.387 . S
C1279 H1282 0.950 . S
C1280 C1279 1.387 . S
C1280 C1283 1.387 . S
H1281 C1277 0.950 . S
H1282 C1279 0.950 . S
C1283 C1274 1.390 . S
C1283 H1276 0.950 . S
C1283 C1280 1.387 . S
C1284 C1285 1.387 . S
C1284 H1288 0.950 . S
C1284 C1293 1.390 . S
C1285 C1284 1.387 . S
C1285 C1287 1.387 . S
H1286 C1293 0.950 . S
C1287 C1285 1.387 . S
C1287 C1289 1.390 . S
C1287 H1291 0.950 . S
H1288 C1284 0.950 . S
C1289 C1287 1.390 . S
C1289 C1290 1.387 . S
C1289 H1292 0.950 . S
C1290 C1289 1.387 . S
C1290 C1293 1.387 . S
H1291 C1287 0.950 . S
H1292 C1289 0.950 . S
C1293 C1284 1.390 . S
C1293 H1286 0.950 . S
C1293 C1290 1.387 . S
C1294 C1295 1.387 . S
C1294 H1298 0.950 . S
C1294 C1303 1.390 . S
C1295 C1294 1.387 . S
C1295 C1297 1.387 . S
H1296 C1303 0.950 . S
C1297 C1295 1.387 . S
C1297 C1299 1.390 . S
C1297 H1301 0.950 . S
H1298 C1294 0.950 . S
C1299 C1297 1.390 . S
C1299 C1300 1.387 . S
C1299 H1302 0.950 . S
C1300 C1299 1.387 . S
C1300 C1303 1.387 . S
H1301 C1297 0.950 . S
H1302 C1299 0.950 . S
C1303 C1294 1.390 . S
C1303 H1296 0.950 . S
C1303 C1300 1.387 . S
C1304 C1305 1.387 . S
C1304 H1308 0.950 . S
C1304 C1313 1.390 . S
C1305 C1304 1.387 . S
C1305 C1307 1.387 . S
H1306 C1313 0.950 . S
C1307 C1305 1.387 . S
C1307 C1309 1.390 . S
C1307 H1311 0.950 . S
H1308 C1304 0.950 . S
C1309 C1307 1.390 . S
C1309 C1310 1.387 . S
C1309 H1312 0.950 . S
C1310 C1309 1.387 . S
C1310 C1313 1.387 . S
H1311 C1307 0.950 . S
H1312 C1309 0.950 . S
C1313 C1304 1.390 . S
C1313 H1306 0.950 . S
C1313 C1310 1.387 . S
C1314 C1315 1.387 . S
C1314 H1318 0.950 . S
C1314 C1323 1.390 . S
C1315 C1314 1.387 . S
C1315 C1317 1.387 . S
H1316 C1323 0.950 . S
C1317 C1315 1.387 . S
C1317 C1319 1.390 . S
C1317 H1321 0.950 . S
H1318 C1314 0.950 . S
C1319 C1317 1.390 . S
C1319 C1320 1.387 . S
C1319 H1322 0.950 . S
C1320 C1319 1.387 . S
C1320 C1323 1.387 . S
H1321 C1317 0.950 . S
H1322 C1319 0.950 . S
C1323 C1314 1.390 . S
C1323 H1316 0.950 . S
C1323 C1320 1.387 . S
C1324 C1325 1.387 . S
C1324 H1328 0.950 . S
C1324 C1333 1.390 . S
C1325 C1324 1.387 . S
C1325 C1327 1.387 . S
H1326 C1333 0.950 . S
C1327 C1325 1.387 . S
C1327 C1329 1.390 . S
C1327 H1331 0.950 . S
H1328 C1324 0.950 . S
C1329 C1327 1.390 . S
C1329 C1330 1.387 . S
C1329 H1332 0.950 . S
C1330 C1329 1.387 . S
C1330 C1333 1.387 . S
H1331 C1327 0.950 . S
H1332 C1329 0.950 . S
C1333 C1324 1.390 . S
C1333 H1326 0.950 . S
C1333 C1330 1.387 . S
C1334 C1335 1.387 . S
C1334 H1338 0.950 . S
C1334 C1343 1.390 . S
C1335 C1334 1.387 . S
C1335 C1337 1.387 . S
H1336 C1343 0.950 . S
C1337 C1335 1.387 . S
C1337 C1339 1.390 . S
C1337 H1341 0.950 . S
H1338 C1334 0.950 . S
C1339 C1337 1.390 . S
C1339 C1340 1.387 . S
C1339 H1342 0.950 . S
C1340 C1339 1.387 . S
C1340 C1343 1.387 . S
H1341 C1337 0.950 . S
H1342 C1339 0.950 . S
C1343 C1334 1.390 . S
C1343 H1336 0.950 . S
C1343 C1340 1.387 . S
C865 C544 1.359 . S
C870 C4 1.358 . S
C875 C40 1.357 . S
C880 C580 1.359 . S
C885 C76 1.359 . S
C890 C616 1.358 . S
C895 C112 1.357 . S
C900 C436 1.360 . S
C905 C472 1.358 . S
C910 C148 1.359 . S
C915 C184 1.360 . S
C920 C508 1.357 . S
C925 C760 1.359 . S
C930 C220 1.358 . S
C935 C256 1.359 . S
C940 C796 1.357 . S
C945 C292 1.360 . S
C950 C832 1.357 . S
C955 C652 1.360 . S
C960 C328 1.357 . S
C965 C364 1.359 . S
C970 C688 1.358 . S
C975 C724 1.357 . S
C980 C400 1.360 . S
C985 C14 1.424 . S
C990 C842 1.426 . S
C995 C662 1.424 . S
C1000 C50 1.426 . S
C1005 C86 1.426 . S
C1010 C698 1.424 . S
C1015 C734 1.424 . S
C1020 C122 1.426 . S
C1025 C158 1.426 . S
C1030 C770 1.424 . S
C1035 C806 1.424 . S
C1040 C194 1.426 . S
C1045 C230 1.424 . S
C1050 C482 1.427 . S
C1055 C518 1.424 . S
C1060 C266 1.426 . S
C1065 C554 1.426 . S
C1070 C302 1.424 . S
C1075 C590 1.424 . S
C1080 C338 1.426 . S
C1085 C374 1.424 . S
C1090 C626 1.426 . S
C1095 C410 1.426 . S
C1100 C446 1.424 . S
C1105 C255 1.344 . S
C1110 C3 1.344 . S
C1115 C291 1.344 . S
C1120 C39 1.344 . S
C1125 C327 1.341 . S
C1130 C75 1.342 . S
C1135 C363 1.342 . S
C1140 C111 1.342 . S
C1145 C147 1.343 . S
C1150 C399 1.344 . S
C1155 C183 1.341 . S
C1160 C219 1.342 . S
C1165 C435 1.342 . S
C1170 C687 1.342 . S
C1175 C471 1.342 . S
C1180 C723 1.341 . S
C1185 C759 1.344 . S
C1190 C507 1.344 . S
C1195 C795 1.344 . S
C1200 C543 1.344 . S
C1205 C831 1.342 . S
C1210 C579 1.342 . S
C1215 C651 1.342 . S
C1220 C615 1.342 . S
C1225 C2 1.526 . S
C1230 C686 1.524 . S
C1235 C722 1.524 . S
C1240 C38 1.526 . S
C1245 C74 1.526 . S
C1250 C758 1.524 . S
C1255 C794 1.526 . S
C1260 C110 1.524 . S
C1265 C146 1.526 . S
C1270 C830 1.524 . S
C1275 C650 1.526 . S
C1280 C182 1.524 . S
C1285 C218 1.526 . S
C1290 C614 1.524 . S
C1295 C434 1.526 . S
C1300 C254 1.524 . S
C1305 C290 1.526 . S
C1310 C470 1.524 . S
C1315 C326 1.524 . S
C1320 C506 1.526 . S
C1325 C362 1.524 . S
C1330 C542 1.526 . S
C1335 C398 1.524 . S
C1340 C578 1.526 . S
