# Generated by pormake.
# Topology uop, (4)-cn, num edge types: 1
# Building blocks:
#     Node 0, Type 0, BuildingBlock: KOZSID_clean_sbu_0, # of connection points: 4
#     Node 1, Type 0, BuildingBlock: KOZSID_clean_sbu_0, # of connection points: 4
#     Node 2, Type 0, BuildingBlock: KOZSID_clean_sbu_0, # of connection points: 4
#     Node 3, Type 0, BuildingBlock: KOZSID_clean_sbu_0, # of connection points: 4
#     Node 4, Type 0, BuildingBlock: KOZSID_clean_sbu_0, # of connection points: 4
#     Node 5, Type 0, BuildingBlock: KOZSID_clean_sbu_0, # of connection points: 4
#     Node 6, Type 0, BuildingBlock: KOZSID_clean_sbu_0, # of connection points: 4
#     Node 7, Type 0, BuildingBlock: KOZSID_clean_sbu_0, # of connection points: 4
#     Node 8, Type 0, BuildingBlock: KOZSID_clean_sbu_0, # of connection points: 4
#     Node 9, Type 0, BuildingBlock: KOZSID_clean_sbu_0, # of connection points: 4
#     Node 10, Type 0, BuildingBlock: KOZSID_clean_sbu_0, # of connection points: 4
#     Node 11, Type 0, BuildingBlock: KOZSID_clean_sbu_0, # of connection points: 4
#     Edge 12, Type (0, 0), BuildingBlock: AJUNOK_clean_linker_0, # of connection points: 2
#     Edge 13, Type (0, 0), BuildingBlock: AJUNOK_clean_linker_0, # of connection points: 2
#     Edge 14, Type (0, 0), BuildingBlock: AJUNOK_clean_linker_0, # of connection points: 2
#     Edge 15, Type (0, 0), BuildingBlock: AJUNOK_clean_linker_0, # of connection points: 2
#     Edge 16, Type (0, 0), BuildingBlock: AJUNOK_clean_linker_0, # of connection points: 2
#     Edge 17, Type (0, 0), BuildingBlock: AJUNOK_clean_linker_0, # of connection points: 2
#     Edge 18, Type (0, 0), BuildingBlock: AJUNOK_clean_linker_0, # of connection points: 2
#     Edge 19, Type (0, 0), BuildingBlock: AJUNOK_clean_linker_0, # of connection points: 2
#     Edge 20, Type (0, 0), BuildingBlock: AJUNOK_clean_linker_0, # of connection points: 2
#     Edge 21, Type (0, 0), BuildingBlock: AJUNOK_clean_linker_0, # of connection points: 2
#     Edge 22, Type (0, 0), BuildingBlock: AJUNOK_clean_linker_0, # of connection points: 2
#     Edge 23, Type (0, 0), BuildingBlock: AJUNOK_clean_linker_0, # of connection points: 2
#     Edge 24, Type (0, 0), BuildingBlock: AJUNOK_clean_linker_0, # of connection points: 2
#     Edge 25, Type (0, 0), BuildingBlock: AJUNOK_clean_linker_0, # of connection points: 2
#     Edge 26, Type (0, 0), BuildingBlock: AJUNOK_clean_linker_0, # of connection points: 2
#     Edge 27, Type (0, 0), BuildingBlock: AJUNOK_clean_linker_0, # of connection points: 2
#     Edge 28, Type (0, 0), BuildingBlock: AJUNOK_clean_linker_0, # of connection points: 2
#     Edge 29, Type (0, 0), BuildingBlock: AJUNOK_clean_linker_0, # of connection points: 2
#     Edge 30, Type (0, 0), BuildingBlock: AJUNOK_clean_linker_0, # of connection points: 2
#     Edge 31, Type (0, 0), BuildingBlock: AJUNOK_clean_linker_0, # of connection points: 2
#     Edge 32, Type (0, 0), BuildingBlock: AJUNOK_clean_linker_0, # of connection points: 2
#     Edge 33, Type (0, 0), BuildingBlock: AJUNOK_clean_linker_0, # of connection points: 2
#     Edge 34, Type (0, 0), BuildingBlock: AJUNOK_clean_linker_0, # of connection points: 2
#     Edge 35, Type (0, 0), BuildingBlock: AJUNOK_clean_linker_0, # of connection points: 2
# Relax obj value: 0.080
# Max RMSD: 0.275
# Mean RMSD: 0.247
data_MOF--net-uop--node1-KOZSID_clean_sbu_0--edge1-AJUNOK_clean_linker_0
_symmetry_space_group_name_H-M    P1
_symmetry_Int_Tables_number       1
_symmetry_cell_setting            triclinic
loop_
_symmetry_equiv_pos_as_xyz
'x, y, z'
_cell_length_a     30.876581
_cell_length_b     29.275023
_cell_length_c     51.93298
_cell_angle_alpha  90.052215
_cell_angle_beta   90.023054
_cell_angle_gamma 121.73635
loop_
_atom_site_label
_atom_site_type_symbol
_atom_site_fract_x
_atom_site_fract_y
_atom_site_fract_z
_atom_type_partial_charge
C0 C 0.40563 0.46979 0.22238 0.0
C1 C 0.43742 0.46328 0.20585 0.0
C2 C 0.40805 0.43262 0.18576 0.0
C3 C 0.36041 0.4229 0.19086 0.0
N4 N 0.35774 0.44611 0.21273 0.0
Co5 Co 0.29634 0.44531 0.22552 0.0
N6 N 0.25017 0.38629 0.20101 0.0
C7 C 0.26492 0.36315 0.18352 0.0
C8 C 0.22538 0.32043 0.17089 0.0
C9 C 0.18255 0.31691 0.18037 0.0
C10 C 0.19862 0.35879 0.19782 0.0
N11 N 0.23423 0.4462 0.23644 0.0
C12 C 0.18527 0.41918 0.22692 0.0
C13 C 0.15781 0.44026 0.23697 0.0
C14 C 0.19028 0.48209 0.25274 0.0
C15 C 0.23598 0.48478 0.25144 0.0
N16 N 0.34272 0.50162 0.25073 0.0
C17 C 0.33064 0.53146 0.26512 0.0
C18 C 0.36868 0.56438 0.2821 0.0
C19 C 0.4071 0.55447 0.27815 0.0
C20 C 0.39055 0.51615 0.25884 0.0
N21 N 0.30924 0.5025 0.20016 0.0
C22 C 0.31252 0.59475 0.18053 0.0
C23 C 0.35528 0.59875 0.19244 0.0
C24 C 0.35311 0.55224 0.20172 0.0
C25 C 0.27066 0.5429 0.17601 0.0
C26 C 0.27032 0.49776 0.18542 0.0
N27 N 0.28499 0.39186 0.25293 0.0
C28 C 0.27143 0.3725 0.29881 0.0
C29 C 0.29499 0.34265 0.29832 0.0
C30 C 0.31105 0.33565 0.27396 0.0
C31 C 0.30526 0.35991 0.25162 0.0
C32 C 0.26642 0.39584 0.27631 0.0
H33 H 0.31942 0.35463 0.2336 0.0
H34 H 0.25052 0.42039 0.27871 0.0
H35 H 0.38598 0.55735 0.21172 0.0
H36 H 0.2369 0.45949 0.18211 0.0
C37 C 0.31619 0.38384 0.1787 0.0
C38 C 0.4219 0.49648 0.24751 0.0
C39 C 0.16515 0.3776 0.20629 0.0
C40 C 0.28138 0.52269 0.26395 0.0
H41 H 0.4773 0.47745 0.20841 0.0
H42 H 0.4194 0.41661 0.17016 0.0
H43 H 0.22751 0.29596 0.1559 0.0
H44 H 0.1441 0.28934 0.1737 0.0
H45 H 0.11897 0.42818 0.23257 0.0
H46 H 0.18191 0.50843 0.26331 0.0
H47 H 0.36803 0.5912 0.29622 0.0
H48 H 0.44311 0.57333 0.28826 0.0
H49 H 0.38923 0.63766 0.19589 0.0
H50 H 0.23746 0.53716 0.16589 0.0
H51 H 0.2593 0.38079 0.31684 0.0
H52 H 0.32902 0.31249 0.27219 0.0
C53 C 0.9771 0.37164 0.56672 0.0
C54 C 1.02643 0.39767 0.55705 0.0
C55 C 0.02924 0.36235 0.54118 0.0
C56 C 0.98213 0.31638 0.54238 0.0
N57 N 0.94918 0.31987 0.55813 0.0
Co58 Co 0.87956 0.25836 0.56799 0.0
N59 N 0.88839 0.20405 0.5485 0.0
C60 C 0.93079 0.21479 0.53582 0.0
C61 C 0.92921 0.17033 0.52626 0.0
C62 C 0.88222 0.12825 0.53265 0.0
C63 C 0.85717 0.14969 0.54518 0.0
N64 N 0.80905 0.19561 0.57662 0.0
C65 C 0.78245 0.14288 0.5682 0.0
C66 C 0.73176 0.11741 0.57549 0.0
C67 C 0.72579 0.15463 0.58832 0.0
C68 C 0.77284 0.20108 0.58809 0.0
N69 N 0.8718 0.31265 0.58785 0.0
C70 C 0.82781 0.3029 0.59822 0.0
C71 C 0.83177 0.34735 0.60952 0.0
C72 C 0.88141 0.38804 0.60598 0.0
C73 C 0.90543 0.36622 0.59281 0.0
N74 N 0.84866 0.27204 0.5375 0.0
C75 C 0.76731 0.28079 0.51975 0.0
C76 C 0.81355 0.32666 0.52696 0.0
C77 C 0.85432 0.32157 0.53511 0.0
C78 C 0.76642 0.2327 0.51697 0.0
C79 C 0.80855 0.22998 0.52486 0.0
N80 N 0.90883 0.24727 0.60021 0.0
C81 C 0.90551 0.24627 0.64705 0.0
C82 C 0.95762 0.26554 0.64916 0.0
C83 C 0.98353 0.27021 0.62606 0.0
C84 C 0.95857 0.26067 0.60198 0.0
C85 C 0.88213 0.2372 0.62278 0.0
H86 H 0.98068 0.26681 0.58494 0.0
H87 H 0.84284 0.22516 0.62265 0.0
H88 H 0.88795 0.35691 0.54232 0.0
H89 H 0.806 0.19226 0.52302 0.0
C90 C 0.97136 0.26709 0.53306 0.0
C91 C 0.9586 0.39895 0.58314 0.0
C92 C 0.80203 0.11751 0.55049 0.0
C93 C 0.78403 0.25133 0.59713 0.0
H94 H 0.05771 0.43785 0.56134 0.0
H95 H 0.06263 0.36842 0.53118 0.0
H96 H 0.9585 0.16879 0.51555 0.0
H97 H 0.86716 0.08668 0.52755 0.0
H98 H 0.70143 0.07702 0.57085 0.0
H99 H 0.69066 0.14911 0.59584 0.0
H100 H 0.80196 0.35007 0.61896 0.0
H101 H 0.89757 0.42942 0.61177 0.0
H102 H 0.81689 0.36531 0.52829 0.0
H103 H 0.73247 0.19676 0.51006 0.0
H104 H 0.88282 0.23949 0.66415 0.0
H105 H 1.02359 0.28366 0.62644 0.0
C106 C 0.66276 0.87429 0.99209 0.0
C107 C 0.64079 0.86173 1.01632 0.0
C108 C 0.61007 0.80718 0.01751 0.0
C109 C 0.61027 0.7891 0.99318 0.0
N110 N 0.63932 0.82969 0.97676 0.0
Co111 Co 0.625 0.8295 0.93931 0.0
N112 N 0.5567 0.76278 0.94206 0.0
C113 C 0.54185 0.72674 0.96121 0.0
C114 C 0.49348 0.68324 0.95804 0.0
C115 C 0.47691 0.69205 0.93526 0.0
C116 C 0.51634 0.7408 0.92575 0.0
N117 N 0.61053 0.83035 0.90219 0.0
C118 C 0.566 0.80216 0.88876 0.0
C119 C 0.57475 0.81341 0.86268 0.0
C120 C 0.62638 0.84894 0.85982 0.0
C121 C 0.64648 0.85769 0.88425 0.0
N122 N 0.69321 0.89615 0.93749 0.0
C123 C 0.72097 0.91437 0.91585 0.0
C124 C 0.76921 0.95733 0.92048 0.0
C125 C 0.77136 0.96678 0.94661 0.0
C126 C 0.72364 0.93007 0.95666 0.0
N127 N 0.65566 0.78577 0.92994 0.0
C128 C 0.70695 0.74401 0.90171 0.0
C129 C 0.73218 0.78412 0.92068 0.0
C130 C 0.70578 0.80346 0.9349 0.0
C131 C 0.65451 0.72236 0.89901 0.0
C132 C 0.62996 0.74364 0.91299 0.0
N133 N 0.59567 0.87387 0.94654 0.0
C134 C 0.59715 0.95548 0.93753 0.0
C135 C 0.56288 0.94518 0.95751 0.0
C136 C 0.54354 0.89698 0.97131 0.0
C137 C 0.56055 0.86188 0.96556 0.0
C138 C 0.61266 0.91952 0.93231 0.0
H139 H 0.54589 0.82558 0.97669 0.0
H140 H 0.63914 0.92926 0.91676 0.0
H141 H 0.72692 0.83519 0.94874 0.0
H142 H 0.59068 0.72808 0.90838 0.0
C143 C 0.56899 0.74087 0.98417 0.0
C144 C 0.70825 0.92722 0.98438 0.0
C145 C 0.51617 0.76099 0.89987 0.0
C146 C 0.69746 0.89451 0.89165 0.0
H147 H 0.64361 0.88892 0.03122 0.0
H148 H 0.58452 0.78443 0.03313 0.0
H149 H 0.47192 0.65027 0.97126 0.0
H150 H 0.44021 0.66509 0.92652 0.0
H151 H 0.54692 0.79667 0.84731 0.0
H152 H 0.64663 0.86664 0.84206 0.0
H153 H 0.79894 0.98006 0.9065 0.0
H154 H 0.80453 0.99721 0.95693 0.0
H155 H 0.77243 0.80132 0.92418 0.0
H156 H 0.63285 0.69107 0.88495 0.0
H157 H 0.61168 0.9911 0.92572 0.0
H158 H 0.51619 0.88694 0.98663 0.0
C159 C 0.64222 0.56258 0.22046 0.0
C160 C 0.60859 0.5627 0.20271 0.0
C161 C 0.63721 0.59363 0.18254 0.0
C162 C 0.68634 0.60984 0.18886 0.0
N163 N 0.69083 0.59047 0.21156 0.0
Co164 Co 0.75506 0.59953 0.226 0.0
N165 N 0.79813 0.65372 0.19893 0.0
C166 C 0.7811 0.673 0.18059 0.0
C167 C 0.81896 0.71362 0.16622 0.0
C168 C 0.86309 0.71997 0.17555 0.0
C169 C 0.84944 0.68178 0.19474 0.0
N170 N 0.81972 0.60549 0.23819 0.0
C171 C 0.86781 0.6312 0.22768 0.0
C172 C 0.89874 0.61803 0.24092 0.0
C173 C 0.86963 0.58336 0.2602 0.0
C174 C 0.82235 0.57666 0.25763 0.0
N175 N 0.71189 0.54888 0.25397 0.0
C176 C 0.72864 0.52997 0.27252 0.0
C177 C 0.69302 0.50259 0.29142 0.0
C178 C 0.65118 0.50471 0.28446 0.0
C179 C 0.66333 0.53285 0.2615 0.0
N180 N 0.74398 0.53787 0.20411 0.0
C181 C 0.74102 0.44512 0.18504 0.0
C182 C 0.69967 0.4409 0.19856 0.0
C183 C 0.70172 0.48748 0.20768 0.0
C184 C 0.7816 0.49702 0.17938 0.0
C185 C 0.78184 0.54226 0.18859 0.0
N186 N 0.76495 0.65846 0.25021 0.0
C187 C 0.7995 0.70081 0.29189 0.0
C188 C 0.75607 0.70267 0.29756 0.0
C189 C 0.72054 0.68846 0.27763 0.0
C190 C 0.72649 0.66835 0.25405 0.0
C191 C 0.80339 0.67918 0.26829 0.0
H192 H 0.69806 0.65883 0.23965 0.0
H193 H 0.83701 0.67749 0.26569 0.0
H194 H 0.66971 0.48207 0.2186 0.0
H195 H 0.81398 0.58051 0.18388 0.0
C196 C 0.7293 0.64929 0.17608 0.0
C197 C 0.62755 0.54229 0.24681 0.0
C198 C 0.88503 0.66704 0.20477 0.0
C199 C 0.7794 0.54345 0.27273 0.0
H200 H 0.56795 0.5448 0.20473 0.0
H201 H 0.62406 0.60532 0.16593 0.0
H202 H 0.81484 0.73461 0.15017 0.0
H203 H 0.90078 0.74702 0.16788 0.0
H204 H 0.93802 0.63139 0.23692 0.0
H205 H 0.88136 0.5645 0.27414 0.0
H206 H 0.69753 0.48487 0.30871 0.0
H207 H 0.61606 0.48799 0.29521 0.0
H208 H 0.66681 0.40184 0.20309 0.0
H209 H 0.81369 0.50279 0.16816 0.0
H210 H 0.82926 0.71336 0.30617 0.0
H211 H 0.68754 0.69181 0.28039 0.0
C212 C 0.07396 0.66528 0.56722 0.0
C213 C 1.02451 0.63924 0.55768 0.0
C214 C 1.02203 0.67385 0.54119 0.0
C215 C 0.06948 0.71943 0.54191 0.0
N216 N 0.10233 0.71642 0.55795 0.0
Co217 Co 0.17256 0.77781 0.56714 0.0
N218 N 0.16478 0.83121 0.54618 0.0
C219 C 0.1225 0.82023 0.53326 0.0
C220 C 0.12527 0.86411 0.52216 0.0
C221 C 0.17289 0.90598 0.52778 0.0
C222 C 0.19701 0.88496 0.54155 0.0
N223 N 0.2437 0.84016 0.57494 0.0
C224 C 0.27101 0.89203 0.56552 0.0
C225 C 0.32168 0.91735 0.57287 0.0
C226 C 0.32693 0.88074 0.5867 0.0
C227 C 0.27945 0.83484 0.58704 0.0
N228 N 0.17918 0.72448 0.58857 0.0
C229 C 0.22282 0.7344 0.59949 0.0
C230 C 0.21808 0.69057 0.61185 0.0
C231 C 0.16832 0.65006 0.6084 0.0
C232 C 0.14499 0.67138 0.59422 0.0
N233 N 0.20238 0.76059 0.53738 0.0
C234 C 0.28161 0.74748 0.51864 0.0
C235 C 0.23671 0.7045 0.52952 0.0
C236 C 0.19658 0.711 0.53686 0.0
C237 C 0.2809 0.79447 0.51356 0.0
C238 C 0.24114 0.80012 0.52301 0.0
N239 N 0.14426 0.79235 0.5988 0.0
C240 C 0.14828 0.79555 0.64565 0.0
C241 C 0.09592 0.77496 0.64782 0.0
C242 C 0.06954 0.769 0.62471 0.0
C243 C 0.0943 0.77822 0.6006 0.0
C244 C 0.17145 0.80429 0.62134 0.0
H245 H 0.07182 0.77102 0.58357 0.0
H246 H 0.211 0.81737 0.6212 0.0
H247 H 0.1635 0.67699 0.5452 0.0
H248 H 0.24404 0.83786 0.52015 0.0
C249 C 0.0811 0.76816 0.5315 0.0
C250 C 0.09217 0.6383 0.58403 0.0
C251 C 0.25205 0.91676 0.54711 0.0
C252 C 0.26725 0.78531 0.59751 0.0
H253 H 0.99307 0.59942 0.56236 0.0
H254 H 0.98874 0.66758 0.53097 0.0
H255 H 0.09636 0.86532 0.51092 0.0
H256 H 0.18881 0.94704 0.52152 0.0
H257 H 0.35231 0.95723 0.5677 0.0
H258 H 0.3618 0.88627 0.59465 0.0
H259 H 0.24755 0.68801 0.6218 0.0
H260 H 0.15172 0.60903 0.61481 0.0
H261 H 0.23264 0.66671 0.5344 0.0
H262 H 0.31192 0.82804 0.50345 0.0
H263 H 0.17134 0.80353 0.66274 0.0
H264 H 0.0293 0.75468 0.6251 0.0
C265 C 0.39349 0.16733 0.99253 0.0
C266 C 0.41556 0.17972 1.01676 0.0
C267 C 0.44648 0.23425 0.01804 0.0
C268 C 0.4463 0.25245 0.99375 0.0
N269 N 0.41714 0.21193 0.97725 0.0
Co270 Co 0.43174 0.21196 0.93985 0.0
N271 N 0.50005 0.27865 0.94274 0.0
C272 C 0.51484 0.31476 0.96189 0.0
C273 C 0.56325 0.35822 0.9588 0.0
C274 C 0.57991 0.34927 0.93607 0.0
C275 C 0.54053 0.30047 0.92654 0.0
N276 N 0.4465 0.21095 0.90277 0.0
C277 C 0.49117 0.23891 0.8895 0.0
C278 C 0.48267 0.22754 0.8634 0.0
C279 C 0.43104 0.19212 0.86038 0.0
C280 C 0.4107 0.1836 0.88473 0.0
N281 N 0.36351 0.14536 0.93786 0.0
C282 C 0.33593 0.12726 0.91613 0.0
C283 C 0.28737 0.08489 0.92063 0.0
C284 C 0.2848 0.07569 0.94678 0.0
C285 C 0.33261 0.11187 0.95698 0.0
N286 N 0.40122 0.25573 0.93031 0.0
C287 C 0.3507 0.2989 0.90244 0.0
C288 C 0.32519 0.25858 0.92124 0.0
C289 C 0.35122 0.23852 0.93528 0.0
C290 C 0.40288 0.31934 0.89943 0.0
C291 C 0.42706 0.29758 0.9133 0.0
N292 N 0.46108 0.16767 0.94726 0.0
C293 C 0.46155 0.08728 0.93771 0.0
C294 C 0.49596 0.09784 0.95772 0.0
C295 C 0.51339 0.14506 0.97219 0.0
C296 C 0.49576 0.17961 0.96653 0.0
C297 C 0.44489 0.1224 0.93279 0.0
H298 H 0.50961 0.21549 0.97794 0.0
H299 H 0.41838 0.11246 0.91721 0.0
H300 H 0.3299 0.20679 0.94906 0.0
H301 H 0.46618 0.31256 0.90858 0.0
C302 C 0.48765 0.30066 0.98481 0.0
C303 C 0.34764 0.11466 0.98478 0.0
C304 C 0.54094 0.27984 0.90078 0.0
C305 C 0.35965 0.14695 0.89199 0.0
H306 H 0.41263 0.1524 0.03158 0.0
H307 H 0.47211 0.25688 0.03369 0.0
H308 H 0.58479 0.39122 0.97205 0.0
H309 H 0.61666 0.37613 0.92741 0.0
H310 H 0.51066 0.24404 0.84813 0.0
H311 H 0.41093 0.17433 0.84256 0.0
H312 H 0.25762 0.0625 0.90658 0.0
H313 H 0.25124 0.04586 0.95702 0.0
H314 H 0.28505 0.24189 0.9248 0.0
H315 H 0.42469 0.35019 0.88525 0.0
H316 H 0.44778 0.05211 0.92561 0.0
H317 H 0.53981 0.15492 0.98797 0.0
C318 C 0.59091 0.6475 0.47566 0.0
C319 C 0.58857 0.61101 0.49359 0.0
C320 C 0.61565 0.64004 0.51455 0.0
C321 C 0.63206 0.69221 0.50855 0.0
N322 N 0.61669 0.69847 0.48526 0.0
Co323 Co 0.62767 0.76781 0.47132 0.0
N324 N 0.67519 0.81145 0.50031 0.0
C325 C 0.68993 0.79151 0.51944 0.0
C326 C 0.72649 0.82977 0.53529 0.0
C327 C 0.73507 0.8774 0.52612 0.0
C328 C 0.70205 0.86544 0.50551 0.0
N329 N 0.63562 0.83743 0.45951 0.0
C330 C 0.65986 0.88798 0.47047 0.0
C331 C 0.64721 0.92072 0.45744 0.0
C332 C 0.61539 0.89085 0.43765 0.0
C333 C 0.60928 0.84106 0.43977 0.0
N334 N 0.58331 0.72431 0.44167 0.0
C335 C 0.56748 0.74354 0.42285 0.0
C336 C 0.5423 0.70702 0.40341 0.0
C337 C 0.54222 0.66172 0.41041 0.0
C338 C 0.56692 0.67276 0.43395 0.0
N339 N 0.56661 0.75458 0.49097 0.0
C340 C 0.47308 0.74591 0.50476 0.0
C341 C 0.47449 0.70583 0.49052 0.0
C342 C 0.52064 0.70953 0.48521 0.0
C343 C 0.52057 0.78885 0.51353 0.0
C344 C 0.5665 0.79277 0.50622 0.0
N345 N 0.68581 0.77888 0.44896 0.0
C346 C 0.72016 0.80709 0.40565 0.0
C347 C 0.72195 0.76072 0.40188 0.0
C348 C 0.71245 0.72801 0.42348 0.0
C349 C 0.69645 0.73889 0.44692 0.0
C350 C 0.70266 0.81568 0.4292 0.0
H351 H 0.68979 0.71223 0.46269 0.0
H352 H 0.70005 0.85077 0.43025 0.0
H353 H 0.5185 0.67678 0.47474 0.0
H354 H 0.60164 0.82777 0.51223 0.0
C355 C 0.66697 0.73656 0.52278 0.0
C356 C 0.57117 0.63232 0.44925 0.0
C357 C 0.69347 0.90598 0.49374 0.0
C358 C 0.57962 0.79685 0.42362 0.0
H359 H 0.57038 0.56796 0.4916 0.0
H360 H 0.62395 0.62508 0.53173 0.0
H361 H 0.74407 0.82366 0.55189 0.0
H362 H 0.76143 0.91637 0.53438 0.0
H363 H 0.6587 0.96161 0.46203 0.0
H364 H 0.59802 0.9037 0.42364 0.0
H365 H 0.52661 0.71288 0.38598 0.0
H366 H 0.5256 0.62472 0.39952 0.0
H367 H 0.44082 0.67248 0.48198 0.0
H368 H 0.52279 0.82043 0.52538 0.0
H369 H 0.72918 0.83504 0.38995 0.0
H370 H 0.71593 0.69315 0.42209 0.0
C371 C 0.95742 0.5684 0.81951 0.0
C372 C 0.99298 0.56993 0.8365 0.0
C373 C 0.99174 0.5956 0.85813 0.0
C374 C 0.95538 0.60783 0.8533 0.0
N375 N 0.93297 0.5911 0.8301 0.0
Co376 Co 0.87594 0.59813 0.81689 0.0
N377 N 0.88813 0.65334 0.84374 0.0
C378 C 0.92071 0.66766 0.86371 0.0
C379 C 0.92142 0.70521 0.87967 0.0
C380 C 0.88607 0.71466 0.86976 0.0
C381 C 0.86537 0.682 0.84815 0.0
N382 N 0.81632 0.60279 0.80535 0.0
C383 C 0.7966 0.632 0.81466 0.0
C384 C 0.75072 0.61671 0.80273 0.0
C385 C 0.74056 0.57589 0.78603 0.0
C386 C 0.78062 0.56831 0.78859 0.0
N387 N 0.86665 0.5454 0.78966 0.0
C388 C 0.82654 0.52019 0.77369 0.0
C389 C 0.83253 0.49021 0.75524 0.0
C390 C 0.8795 0.49713 0.75987 0.0
C391 C 0.8996 0.53068 0.78109 0.0
N392 N 0.8273 0.53823 0.83993 0.0
C393 C 0.73752 0.4462 0.859 0.0
C394 C 0.77543 0.44164 0.84646 0.0
C395 C 0.82004 0.48797 0.83734 0.0
C396 C 0.7482 0.49821 0.8639 0.0
C397 C 0.79318 0.54319 0.8547 0.0
N398 N 0.92255 0.65517 0.79176 0.0
C399 C 0.93301 0.68428 0.74705 0.0
C400 C 0.98566 0.70639 0.74784 0.0
C401 C 1.00657 0.70632 0.772 0.0
C402 C 0.97466 0.68145 0.79367 0.0
C403 C 0.90265 0.65928 0.7688 0.0
H404 H 0.99241 0.68148 0.81157 0.0
H405 H 0.86249 0.64028 0.7659 0.0
H406 H 0.84724 0.48256 0.82691 0.0
H407 H 0.79831 0.58163 0.85852 0.0
C408 C 0.94856 0.64344 0.86768 0.0
C409 C 0.94883 0.54587 0.79346 0.0
C410 C 0.81777 0.67158 0.83605 0.0
C411 C 0.78766 0.53146 0.77472 0.0
H412 H 1.01822 0.55533 0.83344 0.0
H413 H 1.01643 0.60668 0.87477 0.0
H414 H 0.94347 0.72202 0.89711 0.0
H415 H 0.87458 0.73996 0.87873 0.0
H416 H 0.72652 0.63255 0.80625 0.0
H417 H 0.70762 0.55407 0.77364 0.0
H418 H 0.80674 0.46765 0.73965 0.0
H419 H 0.89702 0.47974 0.74883 0.0
H420 H 0.7697 0.40249 0.84256 0.0
H421 H 0.72121 0.50424 0.87433 0.0
H422 H 0.91451 0.68333 0.72916 0.0
H423 H 0.04729 0.72449 0.77412 0.0
C424 C 0.23747 0.87093 0.04966 0.0
C425 C 0.23702 0.85465 0.02441 0.0
C426 C 0.21384 0.80006 0.02447 0.0
C427 C 0.20467 0.78523 0.04977 0.0
N428 N 0.22071 0.82766 0.06564 0.0
Co429 Co 0.2379 0.82886 0.10266 0.0
N430 N 0.24082 0.76304 0.09948 0.0
C431 C 0.21816 0.72615 0.08073 0.0
C432 C 0.22403 0.68318 0.08353 0.0
C433 C 0.25151 0.6932 0.10571 0.0
C434 C 0.26099 0.7421 0.11525 0.0
N435 N 0.25629 0.83138 0.13939 0.0
C436 C 0.27473 0.80452 0.15229 0.0
C437 C 0.2782 0.81595 0.17841 0.0
C438 C 0.26036 0.85 0.18182 0.0
C439 C 0.24711 0.85782 0.15766 0.0
N440 N 0.23418 0.89388 0.105 0.0
C441 C 0.2222 0.90966 0.12668 0.0
C442 C 0.21079 0.94838 0.12201 0.0
C443 C 0.21692 0.95757 0.09579 0.0
C444 C 0.23454 0.92612 0.0859 0.0
N445 N 0.16439 0.78384 0.11312 0.0
C446 C 0.07043 0.73996 0.14047 0.0
C447 C 0.08206 0.77492 0.11937 0.0
C448 C 0.12902 0.7964 0.10604 0.0
C449 C 0.10537 0.72462 0.14607 0.0
C450 C 0.15095 0.74577 0.13199 0.0
N451 N 0.31083 0.87453 0.0942 0.0
C452 C 0.391 0.9563 0.10287 0.0
C453 C 0.41488 0.94531 0.08306 0.0
C454 C 0.38564 0.89711 0.06923 0.0
C455 C 0.33351 0.86239 0.07498 0.0
C456 C 0.33956 0.92064 0.10817 0.0
H457 H 0.31152 0.82602 0.06387 0.0
H458 H 0.32298 0.93068 0.12373 0.0
H459 H 0.13786 0.82538 0.09094 0.0
H460 H 0.17676 0.73344 0.13773 0.0
C461 C 0.20085 0.73825 0.05857 0.0
C462 C 0.24957 0.9256 0.05836 0.0
C463 C 0.28326 0.76338 0.14077 0.0
C464 C 0.22874 0.89153 0.1508 0.0
H465 H 0.25619 0.87836 1.00771 0.0
H466 H 0.21154 0.77538 1.00834 0.0
H467 H 0.2114 0.6495 0.07057 0.0
H468 H 0.26226 0.66674 0.1141 0.0
H469 H 0.29058 0.79986 0.19348 0.0
H470 H 0.25737 0.86685 0.1998 0.0
H471 H 0.20017 0.96829 0.13594 0.0
H472 H 0.20964 0.98474 0.08526 0.0
H473 H 0.05603 0.78747 0.11391 0.0
H474 H 0.09791 0.69683 0.16165 0.0
H475 H 0.41222 0.99207 0.1146 0.0
H476 H 0.40274 0.88666 0.05394 0.0
C477 C 0.46374 0.38471 0.47331 0.0
C478 C 0.45985 0.41956 0.49002 0.0
C479 C 0.42919 0.38921 0.50978 0.0
C480 C 0.41695 0.33798 0.50441 0.0
N481 N 0.4382 0.33362 0.48263 0.0
Co482 Co 0.43326 0.26617 0.47007 0.0
N483 N 0.37756 0.21964 0.49528 0.0
C484 C 0.3583 0.23777 0.51304 0.0
C485 C 0.31839 0.19806 0.52678 0.0
C486 C 0.31239 0.15136 0.51777 0.0
C487 C 0.35001 0.1653 0.4994 0.0
N488 N 0.42932 0.1978 0.45913 0.0
C489 C 0.40103 0.14584 0.46831 0.0
C490 C 0.41846 0.11471 0.45797 0.0
C491 C 0.45858 0.14745 0.44217 0.0
C492 C 0.46421 0.19708 0.4438 0.0
N493 N 0.48732 0.31294 0.44458 0.0
C494 C 0.51301 0.29715 0.42998 0.0
C495 C 0.54637 0.33638 0.41329 0.0
C496 C 0.5415 0.3798 0.41771 0.0
C497 C 0.5056 0.36494 0.43705 0.0
N498 N 0.48737 0.2778 0.49491 0.0
C499 C 0.57807 0.28355 0.51065 0.0
C500 C 0.57866 0.3292 0.50178 0.0
C501 C 0.53319 0.32566 0.49437 0.0
C502 C 0.52996 0.23687 0.51452 0.0
C503 C 0.48535 0.2355 0.50735 0.0
N504 N 0.3829 0.25679 0.44293 0.0
C505 C 0.36651 0.24607 0.39679 0.0
C506 C 0.34375 0.27662 0.39724 0.0
C507 C 0.33696 0.29307 0.42167 0.0
C508 C 0.35636 0.28246 0.44417 0.0
C509 C 0.385 0.23623 0.41948 0.0
H510 H 0.35223 0.29788 0.46226 0.0
H511 H 0.40436 0.21509 0.4172 0.0
H512 H 0.53608 0.36091 0.48615 0.0
H513 H 0.44975 0.19855 0.5101 0.0
C514 C 0.37972 0.29239 0.51703 0.0
C515 C 0.49215 0.40215 0.44893 0.0
C516 C 0.36191 0.12605 0.48918 0.0
C517 C 0.50138 0.24396 0.43117 0.0
H518 H 0.47679 0.46246 0.48812 0.0
H519 H 0.41587 0.40261 0.52565 0.0
H520 H 0.29697 0.2026 0.54198 0.0
H521 H 0.28481 0.11164 0.52483 0.0
H522 H 0.4053 0.07329 0.46231 0.0
H523 H 0.48189 0.13665 0.43138 0.0
H524 H 0.57063 0.33348 0.3992 0.0
H525 H 0.56229 0.41809 0.40794 0.0
H526 H 0.61432 0.36708 0.49944 0.0
H527 H 0.52638 0.20023 0.52147 0.0
H528 H 0.37162 0.23104 0.3787 0.0
H529 H 0.31916 0.31642 0.42334 0.0
C530 C 0.09739 0.47268 0.82109 0.0
C531 C 0.06289 0.47228 0.83842 0.0
C532 C 0.06424 0.44644 0.85995 0.0
C533 C 0.0998 0.43325 0.85475 0.0
N534 N 0.12161 0.44954 0.83144 0.0
Co535 Co 0.17838 0.44242 0.81798 0.0
N536 N 0.16675 0.38747 0.84481 0.0
C537 C 0.134 0.3728 0.86471 0.0
C538 C 0.13344 0.33525 0.88056 0.0
C539 C 0.1691 0.32622 0.87068 0.0
C540 C 0.18989 0.35917 0.84921 0.0
N541 N 0.23807 0.43809 0.80632 0.0
C542 C 0.25847 0.40962 0.81575 0.0
C543 C 0.30397 0.42472 0.80349 0.0
C544 C 0.31336 0.46486 0.78656 0.0
C545 C 0.27316 0.47215 0.78926 0.0
N546 N 0.18677 0.49447 0.7906 0.0
C547 C 0.22642 0.51944 0.77439 0.0
C548 C 0.21992 0.54915 0.75602 0.0
C549 C 0.17302 0.54222 0.76092 0.0
C550 C 0.15344 0.50882 0.78216 0.0
N551 N 0.22735 0.5028 0.84082 0.0
C552 C 0.3189 0.5939 0.859 0.0
C553 C 0.28231 0.59959 0.84578 0.0
C554 C 0.23668 0.5537 0.83717 0.0
C555 C 0.30543 0.54167 0.86562 0.0
C556 C 0.2598 0.49715 0.85663 0.0
N557 N 0.13146 0.38489 0.79304 0.0
C558 C 0.1207 0.35482 0.74845 0.0
C559 C 0.06819 0.33353 0.74914 0.0
C560 C 0.0474 0.3342 0.77322 0.0
C561 C 0.07938 0.35919 0.79489 0.0
C562 C 0.15115 0.37988 0.7702 0.0
H563 H 0.06174 0.35974 0.8127 0.0
H564 H 0.19124 0.39814 0.76738 0.0
H565 H 0.21042 0.55988 0.82631 0.0
H566 H 0.25282 0.4584 0.86152 0.0
C567 C 0.10641 0.39726 0.86891 0.0
C568 C 0.1044 0.4934 0.79475 0.0
C569 C 0.23815 0.37071 0.83742 0.0
C570 C 0.26547 0.50841 0.77528 0.0
H571 H 0.03803 0.48744 0.83558 0.0
H572 H 0.0401 0.43589 0.87676 0.0
H573 H 0.11142 0.31831 0.89796 0.0
H574 H 0.1807 0.30109 0.87968 0.0
H575 H 0.32849 0.40924 0.80695 0.0
H576 H 0.34589 0.48644 0.77394 0.0
H577 H 0.24536 0.57161 0.74033 0.0
H578 H 0.15526 0.55956 0.75005 0.0
H579 H 0.28984 0.63914 0.84103 0.0
H580 H 0.33082 0.53507 0.87719 0.0
H581 H 0.13904 0.35512 0.73062 0.0
H582 H 1.00674 0.31653 0.77525 0.0
C583 C 0.81374 0.1704 0.04991 0.0
C584 C 0.81372 0.18664 0.02473 0.0
C585 C 0.83599 0.24112 0.02495 0.0
C586 C 0.84505 0.25583 0.05029 0.0
N587 N 0.82982 0.21344 0.06604 0.0
Co588 Co 0.8125 0.21163 0.10312 0.0
N589 N 0.80852 0.27691 0.10027 0.0
C590 C 0.83025 0.31376 0.08149 0.0
C591 C 0.82349 0.35612 0.08444 0.0
C592 C 0.79645 0.34579 0.10677 0.0
C593 C 0.78817 0.29737 0.11626 0.0
N594 N 0.79419 0.20851 0.13993 0.0
C595 C 0.77587 0.23517 0.15312 0.0
C596 C 0.77286 0.2236 0.1792 0.0
C597 C 0.79093 0.18974 0.18231 0.0
C598 C 0.80384 0.18215 0.15802 0.0
N599 N 0.81704 0.14702 0.10516 0.0
C600 C 0.82946 0.13141 0.12675 0.0
C601 C 0.84219 0.09377 0.12189 0.0
C602 C 0.83645 0.08503 0.09564 0.0
C603 C 0.81768 0.11556 0.08592 0.0
N604 N 0.88596 0.25737 0.11368 0.0
C605 C 0.98007 0.30271 0.14115 0.0
C606 C 0.96871 0.26741 0.12017 0.0
C607 C 0.92172 0.24531 0.10674 0.0
C608 C 0.94468 0.31752 0.14658 0.0
C609 C 0.89903 0.29562 0.13246 0.0
N610 N 0.73965 0.16546 0.09452 0.0
C611 C 0.65899 0.08457 0.10349 0.0
C612 C 0.63519 0.09534 0.08349 0.0
C613 C 0.66525 0.14244 0.06902 0.0
C614 C 0.71731 0.17703 0.0749 0.0
C615 C 0.71067 0.11979 0.10866 0.0
H616 H 0.73953 0.21288 0.06353 0.0
H617 H 0.72723 0.10988 0.12429 0.0
H618 H 0.91323 0.21625 0.09169 0.0
H619 H 0.87292 0.30758 0.13812 0.0
C620 C 0.84779 0.30221 0.05925 0.0
C621 C 0.80265 0.116 0.05838 0.0
C622 C 0.7672 0.27645 0.142 0.0
C623 C 0.82274 0.14907 0.15095 0.0
H624 H 0.79471 0.16284 1.00799 0.0
H625 H 0.83766 0.26563 1.00892 0.0
H626 H 0.83532 0.38963 0.0715 0.0
H627 H 0.78529 0.37178 0.11532 0.0
H628 H 0.76072 0.23959 0.19445 0.0
H629 H 0.79445 0.17297 0.20018 0.0
H630 H 0.85359 0.0744 0.13571 0.0
H631 H 0.84478 0.0588 0.08496 0.0
H632 H 0.99494 0.25504 0.11485 0.0
H633 H 0.95183 0.34551 0.16204 0.0
H634 H 0.63757 0.04936 0.1155 0.0
H635 H 0.64894 0.15231 0.05313 0.0
C636 C 0.26066 0.68775 0.17175 0.0
C637 C 0.29768 0.72996 0.15642 0.0
C638 C 0.26667 0.64549 0.18008 0.0
C639 C 0.31003 0.6434 0.17352 0.0
H640 H 0.22524 0.68555 0.17593 0.0
H641 H 0.23625 0.61321 0.19115 0.0
S642 S 0.41871 0.74504 0.13428 0.0
N643 N 0.37972 0.76765 0.13554 0.0
N644 N 0.39146 0.68908 0.15136 0.0
C645 C 0.34839 0.68675 0.1592 0.0
C646 C 0.34206 0.72961 0.15061 0.0
C647 C 0.71294 0.31126 0.49832 0.0
C648 C 0.71937 0.28173 0.51765 0.0
C649 C 0.66764 0.31197 0.49643 0.0
C650 C 0.62699 0.28397 0.51407 0.0
H651 H 0.74281 0.33327 0.48429 0.0
H652 H 0.6642 0.33395 0.48062 0.0
S653 S 0.62811 0.20561 0.57014 0.0
N654 N 0.68296 0.22637 0.55563 0.0
N655 N 0.59927 0.2294 0.55296 0.0
C656 C 0.63403 0.25569 0.53401 0.0
C657 C 0.67975 0.25427 0.5356 0.0
C658 C 0.42507 0.72813 0.88754 0.0
C659 C 0.46947 0.72652 0.88364 0.0
C660 C 0.37694 0.6867 0.87847 0.0
C661 C 0.37098 0.6412 0.86566 0.0
H662 H 0.42715 0.76024 0.89893 0.0
H663 H 0.34378 0.68892 0.88279 0.0
S664 S 0.4758 0.61919 0.84922 0.0
N665 N 0.5045 0.6769 0.86494 0.0
N666 N 0.41495 0.59957 0.84793 0.0
C667 C 0.41558 0.64047 0.86068 0.0
C668 C 0.46445 0.68286 0.86963 0.0
C669 C 0.78745 0.39517 0.18214 0.0
C670 C 0.74318 0.39665 0.17724 0.0
C671 C 0.7929 0.35306 0.17293 0.0
C672 C 0.75441 0.31047 0.15828 0.0
H673 H 0.81892 0.42778 0.1926 0.0
H674 H 0.82882 0.35557 0.17592 0.0
S675 S 0.63075 0.29398 0.14025 0.0
N676 N 0.65947 0.35012 0.15726 0.0
N677 N 0.67019 0.2719 0.13972 0.0
C678 C 0.7093 0.31032 0.15403 0.0
C679 C 0.70352 0.35299 0.16357 0.0
C680 C 0.4235 0.79249 0.51175 0.0
C681 C 0.42343 0.7444 0.50918 0.0
C682 C 0.3782 0.79278 0.51467 0.0
C683 C 0.32939 0.74515 0.51416 0.0
H684 H 0.45894 0.83096 0.51128 0.0
H685 H 0.38215 0.83136 0.51765 0.0
S686 S 0.30656 0.6072 0.50779 0.0
N687 N 0.36902 0.64673 0.50855 0.0
N688 N 0.2848 0.64781 0.50927 0.0
C689 C 0.32861 0.69662 0.51097 0.0
C690 C 0.37501 0.69613 0.50959 0.0
C691 C 0.59323 0.35516 0.86953 0.0
C692 C 0.58835 0.31306 0.88488 0.0
C693 C 0.64117 0.39665 0.86056 0.0
C694 C 0.68655 0.39802 0.86644 0.0
H695 H 0.56012 0.35783 0.86579 0.0
H696 H 0.64289 0.42894 0.84952 0.0
S697 S 0.69419 0.29627 0.90544 0.0
N698 N 0.63281 0.27465 0.90507 0.0
N699 N 0.72249 0.35178 0.88803 0.0
C700 C 0.68178 0.35476 0.8808 0.0
C701 C 0.63293 0.3127 0.89008 0.0
C702 C 0.5663 0.57305 0.25625 0.0
C703 C 0.57658 0.53128 0.25666 0.0
C704 C 0.51596 0.56244 0.25629 0.0
C705 C 0.47346 0.50957 0.25749 0.0
H706 H 0.59736 0.61408 0.25334 0.0
H707 H 0.51035 0.59551 0.25303 0.0
S708 S 0.47886 0.38619 0.26256 0.0
N709 N 0.53923 0.43507 0.2604 0.0
N710 N 0.44555 0.41557 0.26239 0.0
C711 C 0.48346 0.46805 0.26082 0.0
C712 C 0.53459 0.47869 0.25992 0.0
C713 C 0.04368 0.54687 0.56217 0.0
C714 C 0.06054 0.57681 0.58527 0.0
C715 C 1.0086 0.49092 0.56191 0.0
C716 C 0.99057 0.46041 0.58477 0.0
H717 H 0.05671 0.56732 0.54384 0.0
H718 H 0.99642 0.47096 0.54341 0.0
S719 S 1.02356 0.51781 0.6508 0.0
N720 N 0.05457 0.57096 0.63193 0.0
N721 N 0.99373 0.46513 0.63149 0.0
C722 C 1.00788 0.48939 0.60814 0.0
C723 C 0.0419 0.54726 0.60838 0.0
C724 C 0.47835 1.0037 0.96188 0.0
C725 C 0.51368 0.05969 0.96241 0.0
C726 C 0.49427 0.96663 0.96202 0.0
C727 C 0.54625 0.98399 0.96256 0.0
H728 H 0.43795 0.98836 0.96045 0.0
H729 H 0.46578 0.92424 0.96029 0.0
S730 S 0.65405 0.12542 0.96741 0.0
N731 N 0.60308 0.13007 0.96577 0.0
N732 N 0.63282 0.06056 0.96646 0.0
C733 C 0.58181 0.03957 0.9648 0.0
C734 C 0.56562 0.07733 0.96469 0.0
C735 C 0.58461 0.55469 0.44132 0.0
C736 C 0.55172 0.57478 0.44057 0.0
C737 C 0.56585 0.49882 0.44163 0.0
C738 C 0.51324 0.46005 0.44032 0.0
H739 H 0.62509 0.58246 0.44404 0.0
H740 H 0.59257 0.48607 0.44489 0.0
S741 S 0.41106 0.49048 0.43449 0.0
N742 N 0.46376 0.55031 0.43662 0.0
N743 N 0.42914 0.44647 0.43505 0.0
C744 C 0.48048 0.47974 0.43685 0.0
C745 C 0.49941 0.53652 0.43747 0.0
C746 C 0.03806 0.5707 0.78115 0.0
C747 C 0.98587 0.53045 0.78369 0.0
C748 C 0.0768 0.55848 0.78183 0.0
C749 C 0.06514 0.50521 0.78443 0.0
H750 H 0.04934 0.61256 0.78128 0.0
H751 H 0.11609 0.59138 0.78267 0.0
S752 S 0.93481 0.38434 0.78868 0.0
N753 N 0.92517 0.43466 0.78706 0.0
N754 N 0.99703 0.41159 0.78667 0.0
C755 C 1.01297 0.46436 0.78423 0.0
C756 C 0.97367 0.47688 0.78427 0.0
C757 C 0.5046 0.96517 0.07931 0.0
C758 C 0.47057 0.98335 0.07828 0.0
C759 C 0.55769 1.00155 0.07965 0.0
C760 C 0.57914 0.0577 0.07883 0.0
H761 H 0.49012 0.92266 0.08122 0.0
H762 H 0.58219 0.98552 0.08138 0.0
S763 S 0.50627 0.12547 0.07274 0.0
N764 N 0.46205 0.06087 0.07379 0.0
N765 N 0.56136 0.12906 0.07481 0.0
C766 C 0.54543 0.07613 0.07615 0.0
C767 C 0.49139 0.03907 0.07585 0.0
C768 C 0.35254 0.32714 0.32758 0.0
C769 C 0.30519 0.32243 0.32323 0.0
C770 C 0.36439 0.31246 0.35133 0.0
C771 C 0.32975 0.2925 0.37218 0.0
H772 H 0.3814 0.34362 0.3127 0.0
H773 H 0.40165 0.31773 0.35352 0.0
S774 S 0.19861 0.26688 0.37045 0.0
N775 N 0.22183 0.29193 0.34172 0.0
N776 N 0.24465 0.26583 0.38608 0.0
C777 C 0.28201 0.28667 0.36801 0.0
C778 C 0.26965 0.30112 0.34374 0.0
C779 C 1.01908 0.26663 0.68252 0.0
C780 C 0.98445 0.28187 0.67509 0.0
C781 C 0.04458 0.28199 0.70658 0.0
C782 C 0.03696 0.31351 0.72453 0.0
H783 H 1.02641 0.24229 0.66968 0.0
H784 H 0.07074 0.26906 0.71111 0.0
S785 S 0.95429 0.36881 0.71366 0.0
N786 N 0.94658 0.33347 0.68739 0.0
N787 N 0.99413 0.362 0.73208 0.0
C788 C 1.00278 0.32939 0.71723 0.0
C789 C 0.97682 0.31379 0.69276 0.0
C790 C 0.76409 0.02839 0.99551 0.0
C791 C 0.73852 0.9744 1.00373 0.0
C792 C 0.79009 0.07201 1.01289 0.0
C793 C 0.78255 0.06651 0.03996 0.0
H794 H 0.76559 0.03791 0.97532 0.0
H795 H 0.81803 0.1096 1.00444 0.0
S796 S 0.73327 0.93497 0.07243 0.0
N797 N 0.73083 0.92093 0.04152 0.0
N798 N 0.75089 0.99872 0.07382 0.0
C799 C 0.75765 1.01234 0.04854 0.0
C800 C 0.74218 0.96817 0.03068 0.0
C801 C 0.77508 0.78026 0.36105 0.0
C802 C 0.73104 0.74535 0.37549 0.0
C803 C 0.78329 0.76627 0.33614 0.0
C804 C 0.7471 0.71746 0.32414 0.0
H805 H 0.80373 0.81853 0.36919 0.0
H806 H 0.81798 0.79428 0.32603 0.0
S807 S 0.62489 0.61233 0.35333 0.0
N808 N 0.65082 0.65963 0.37562 0.0
N809 N 0.66538 0.63425 0.32899 0.0
C810 C 0.70273 0.68257 0.3383 0.0
C811 C 0.69495 0.69623 0.36382 0.0
C812 C 0.03369 0.7726 0.68106 0.0
C813 C 0.06935 0.75867 0.67381 0.0
C814 C 1.00825 0.75711 0.70511 0.0
C815 C 1.01691 0.72669 0.72326 0.0
H816 H 1.02546 0.796 0.66807 0.0
H817 H 0.98129 0.76904 0.70948 0.0
S818 S 0.10282 0.67517 0.71299 0.0
N819 N 0.10952 0.7096 0.68655 0.0
N820 N 0.06208 0.68079 0.73124 0.0
C821 C 0.0522 0.71218 0.71617 0.0
C822 C 0.07813 0.72794 0.69169 0.0
C823 C 0.2631 0.97016 1.01305 0.0
C824 C 0.27071 0.97535 0.04012 0.0
C825 C 0.29005 1.01368 0.99578 0.0
C826 C 0.31672 0.06767 1.0041 0.0
H827 H 0.23445 0.93294 1.00452 0.0
H828 H 0.28841 1.00404 0.9756 0.0
S829 S 0.32299 0.10712 0.07295 0.0
N830 N 0.30377 0.04291 0.07416 0.0
N831 N 0.32584 0.1215 0.04208 0.0
C832 C 0.31334 0.07398 0.03109 0.0
C833 C 0.29679 0.02949 0.04884 0.0
C834 C 1.02464 0.31785 0.18474 0.0
C835 C 0.02768 0.32367 0.1576 0.0
C836 C 0.06864 0.33652 0.20041 0.0
C837 C 0.1182 0.36319 0.18986 0.0
H838 H 0.98764 0.29739 0.19394 0.0
H839 H 0.06366 0.32884 0.22091 0.0
S840 S 0.14779 0.39344 0.12014 0.0
N841 N 0.085 0.36058 0.12122 0.0
N842 N 0.16686 0.39709 0.15018 0.0
C843 C 0.12161 0.37093 0.1628 0.0
C844 C 0.07686 0.3509 0.14688 0.0
C845 C 0.73456 1.01523 0.54749 0.0
C846 C 0.76789 0.06472 0.53517 0.0
C847 C 0.70843 0.96553 0.53378 0.0
C848 C 0.71544 0.96148 0.507 0.0
H849 H 0.7299 1.0144 0.56817 0.0
H850 H 0.68397 0.92926 0.54462 0.0
S851 S 0.79607 0.07887 0.46486 0.0
N852 N 0.80173 0.10603 0.49349 0.0
N853 N 0.75822 1.01339 0.46882 0.0
C854 C 0.74761 1.01078 0.49434 0.0
C855 C 0.77235 0.06166 0.50806 0.0
C856 C 0.74245 0.65346 0.86437 0.0
C857 C 0.78614 0.69006 0.85013 0.0
C858 C 0.71703 0.6709 0.88071 0.0
C859 C 0.73465 0.72597 0.88414 0.0
H860 H 0.72853 0.61095 0.86341 0.0
H861 H 0.68392 0.64096 0.89126 0.0
S862 S 0.84504 0.83802 0.84987 0.0
N863 N 0.84356 0.7839 0.8394 0.0
N864 N 0.79723 0.81655 0.87033 0.0
C865 C 0.77755 0.76276 0.86952 0.0
C866 C 0.80271 0.74491 0.85251 0.0
C867 C 0.98214 0.71242 0.19908 0.0
C868 C 0.93242 0.68119 0.18885 0.0
C869 C 1.02619 0.73059 0.18354 0.0
C870 C 1.02291 0.71976 0.1568 0.0
H871 H 0.98717 0.72412 0.21916 0.0
H872 H 0.0633 0.75452 0.19246 0.0
S873 S 0.90265 0.63752 0.12036 0.0
N874 N 0.88361 0.63797 0.15001 0.0
N875 N 0.96549 0.6738 0.12118 0.0
C876 C 0.97367 0.6882 0.14641 0.0
C877 C 0.92894 0.66861 0.16225 0.0
C878 C 0.31811 1.01918 0.54409 0.0
C879 C 0.2868 0.96911 0.53176 0.0
C880 C 0.34442 0.06849 0.53015 0.0
C881 C 0.34009 0.07129 0.50302 0.0
H882 H 0.32091 0.02066 0.56489 0.0
H883 H 0.3669 0.10535 0.54097 0.0
S884 S 0.26581 0.95203 0.46087 0.0
N885 N 0.25727 0.92603 0.48999 0.0
N886 N 0.30261 1.01775 0.46454 0.0
C887 C 0.31027 0.02142 0.49039 0.0
C888 C 0.28477 0.97106 0.50447 0.0
C889 C 0.25348 0.29855 0.85512 0.0
C890 C 0.27069 0.35347 0.8517 0.0
C891 C 0.27875 0.28137 0.8717 0.0
C892 C 0.32339 0.3182 0.88533 0.0
H893 H 0.21901 0.26835 0.8455 0.0
H894 H 0.26327 0.23869 0.87373 0.0
S895 S 0.38599 0.46675 0.88253 0.0
N896 N 0.3363 0.44454 0.86325 0.0
N897 N 0.38423 0.41283 0.89347 0.0
C898 C 0.34196 0.37329 0.88139 0.0
C899 C 0.31575 0.39069 0.86485 0.0
loop_
_geom_bond_atom_site_label_1
_geom_bond_atom_site_label_2
_geom_bond_distance
_geom_bond_site_symmetry_2
_ccdc_geom_bond_type
C0 C1 1.443 . S
C0 N4 1.376 . S
C0 C38 1.389 . S
C1 C0 1.443 . S
C1 C2 1.340 . S
C1 H41 0.951 . S
C2 C1 1.340 . S
C2 C3 1.439 . S
C2 H42 0.950 . S
C3 C2 1.439 . S
C3 N4 1.374 . S
C3 C37 1.395 . S
N4 C0 1.376 . S
N4 C3 1.374 . S
N4 Co5 2.008 . S
Co5 N4 2.008 . S
Co5 N6 1.995 . S
Co5 N11 2.008 . S
Co5 N16 1.995 . S
Co5 N21 2.282 . S
Co5 N27 2.282 . S
N6 Co5 1.995 . S
N6 C7 1.376 . S
N6 C10 1.383 . S
C7 N6 1.376 . S
C7 C8 1.446 . S
C7 C37 1.391 . S
C8 C7 1.446 . S
C8 C9 1.339 . S
C8 H43 0.949 . S
C9 C8 1.339 . S
C9 C10 1.439 . S
C9 H44 0.950 . S
C10 N6 1.383 . S
C10 C9 1.439 . S
C10 C39 1.392 . S
N11 Co5 2.008 . S
N11 C12 1.376 . S
N11 C15 1.374 . S
C12 N11 1.376 . S
C12 C13 1.443 . S
C12 C39 1.389 . S
C13 C12 1.443 . S
C13 C14 1.340 . S
C13 H45 0.951 . S
C14 C13 1.340 . S
C14 C15 1.439 . S
C14 H46 0.950 . S
C15 N11 1.374 . S
C15 C14 1.439 . S
C15 C40 1.395 . S
N16 Co5 1.995 . S
N16 C17 1.376 . S
N16 C20 1.383 . S
C17 N16 1.376 . S
C17 C18 1.446 . S
C17 C40 1.391 . S
C18 C17 1.446 . S
C18 C19 1.339 . S
C18 H47 0.949 . S
C19 C18 1.339 . S
C19 C20 1.439 . S
C19 H48 0.950 . S
C20 N16 1.383 . S
C20 C19 1.439 . S
C20 C38 1.392 . S
N21 Co5 2.282 . S
N21 C24 1.332 . S
N21 C26 1.332 . S
C22 C23 1.386 . S
C22 C25 1.388 . S
C23 C22 1.386 . S
C23 C24 1.382 . S
C23 H49 0.950 . S
C24 N21 1.332 . S
C24 C23 1.382 . S
C24 H35 0.952 . S
C25 C22 1.388 . S
C25 C26 1.382 . S
C25 H50 0.950 . S
C26 N21 1.332 . S
C26 C25 1.382 . S
C26 H36 0.948 . S
N27 Co5 2.282 . S
N27 C31 1.332 . S
N27 C32 1.332 . S
C28 C29 1.388 . S
C28 C32 1.382 . S
C28 H51 0.950 . S
C29 C28 1.388 . S
C29 C30 1.386 . S
C30 C29 1.386 . S
C30 C31 1.382 . S
C30 H52 0.950 . S
C31 N27 1.332 . S
C31 C30 1.382 . S
C31 H33 0.952 . S
C32 N27 1.332 . S
C32 C28 1.382 . S
C32 H34 0.948 . S
H33 C31 0.952 . S
H34 C32 0.948 . S
H35 C24 0.952 . S
H36 C26 0.948 . S
C37 C3 1.395 . S
C37 C7 1.391 . S
C38 C0 1.389 . S
C38 C20 1.392 . S
C39 C10 1.392 . S
C39 C12 1.389 . S
C40 C15 1.395 . S
C40 C17 1.391 . S
H41 C1 0.951 . S
H42 C2 0.950 . S
H43 C8 0.949 . S
H44 C9 0.950 . S
H45 C13 0.951 . S
H46 C14 0.950 . S
H47 C18 0.949 . S
H48 C19 0.950 . S
H49 C23 0.950 . S
H50 C25 0.950 . S
H51 C28 0.950 . S
H52 C30 0.950 . S
C53 C54 1.443 . S
C53 N57 1.376 . S
C53 C91 1.389 . S
C54 C53 1.443 . S
C54 C55 1.340 . S
C54 H94 0.951 1_655 S
C55 C54 1.340 . S
C55 C56 1.439 . S
C55 H95 0.950 1_655 S
C56 C55 1.439 . S
C56 N57 1.374 . S
C56 C90 1.395 . S
N57 C53 1.376 . S
N57 C56 1.374 . S
N57 Co58 2.008 . S
Co58 N57 2.008 . S
Co58 N59 1.995 . S
Co58 N64 2.008 . S
Co58 N69 1.995 . S
Co58 N74 2.282 . S
Co58 N80 2.282 . S
N59 Co58 1.995 . S
N59 C60 1.376 . S
N59 C63 1.383 . S
C60 N59 1.376 . S
C60 C61 1.446 . S
C60 C90 1.391 . S
C61 C60 1.446 . S
C61 C62 1.339 . S
C61 H96 0.949 . S
C62 C61 1.339 . S
C62 C63 1.439 . S
C62 H97 0.950 . S
C63 N59 1.383 . S
C63 C62 1.439 . S
C63 C92 1.392 . S
N64 Co58 2.008 . S
N64 C65 1.376 . S
N64 C68 1.374 . S
C65 N64 1.376 . S
C65 C66 1.443 . S
C65 C92 1.389 . S
C66 C65 1.443 . S
C66 C67 1.340 . S
C66 H98 0.951 . S
C67 C66 1.340 . S
C67 C68 1.439 . S
C67 H99 0.950 . S
C68 N64 1.374 . S
C68 C67 1.439 . S
C68 C93 1.395 . S
N69 Co58 1.995 . S
N69 C70 1.376 . S
N69 C73 1.383 . S
C70 N69 1.376 . S
C70 C71 1.446 . S
C70 C93 1.391 . S
C71 C70 1.446 . S
C71 C72 1.339 . S
C71 H100 0.949 . S
C72 C71 1.339 . S
C72 C73 1.439 . S
C72 H101 0.950 . S
C73 N69 1.383 . S
C73 C72 1.439 . S
C73 C91 1.392 . S
N74 Co58 2.282 . S
N74 C77 1.332 . S
N74 C79 1.332 . S
C75 C76 1.386 . S
C75 C78 1.388 . S
C76 C75 1.386 . S
C76 C77 1.382 . S
C76 H102 0.950 . S
C77 N74 1.332 . S
C77 C76 1.382 . S
C77 H88 0.952 . S
C78 C75 1.388 . S
C78 C79 1.382 . S
C78 H103 0.950 . S
C79 N74 1.332 . S
C79 C78 1.382 . S
C79 H89 0.948 . S
N80 Co58 2.282 . S
N80 C84 1.332 . S
N80 C85 1.332 . S
C81 C82 1.388 . S
C81 C85 1.382 . S
C81 H104 0.950 . S
C82 C81 1.388 . S
C82 C83 1.386 . S
C83 C82 1.386 . S
C83 C84 1.382 . S
C83 H105 0.950 1_655 S
C84 N80 1.332 . S
C84 C83 1.382 . S
C84 H86 0.952 . S
C85 N80 1.332 . S
C85 C81 1.382 . S
C85 H87 0.948 . S
H86 C84 0.952 . S
H87 C85 0.948 . S
H88 C77 0.952 . S
H89 C79 0.948 . S
C90 C56 1.395 . S
C90 C60 1.391 . S
C91 C53 1.389 . S
C91 C73 1.392 . S
C92 C63 1.392 . S
C92 C65 1.389 . S
C93 C68 1.395 . S
C93 C70 1.391 . S
H94 C54 0.951 1_455 S
H95 C55 0.950 1_455 S
H96 C61 0.949 . S
H97 C62 0.950 . S
H98 C66 0.951 . S
H99 C67 0.950 . S
H100 C71 0.949 . S
H101 C72 0.950 . S
H102 C76 0.950 . S
H103 C78 0.950 . S
H104 C81 0.950 . S
H105 C83 0.950 1_455 S
C106 C107 1.443 1_556 S
C106 N110 1.376 . S
C106 C144 1.389 . S
C107 C106 1.443 1_554 S
C107 C108 1.340 . S
C107 H147 0.951 . S
C108 C107 1.340 . S
C108 C109 1.439 1_554 S
C108 H148 0.950 . S
C109 C108 1.439 1_556 S
C109 N110 1.374 . S
C109 C143 1.395 . S
N110 C106 1.376 . S
N110 C109 1.374 . S
N110 Co111 2.008 . S
Co111 N110 2.008 . S
Co111 N112 1.995 . S
Co111 N117 2.008 . S
Co111 N122 1.995 . S
Co111 N127 2.282 . S
Co111 N133 2.282 . S
N112 Co111 1.995 . S
N112 C113 1.376 . S
N112 C116 1.383 . S
C113 N112 1.376 . S
C113 C114 1.446 . S
C113 C143 1.391 . S
C114 C113 1.446 . S
C114 C115 1.339 . S
C114 H149 0.949 . S
C115 C114 1.339 . S
C115 C116 1.439 . S
C115 H150 0.950 . S
C116 N112 1.383 . S
C116 C115 1.439 . S
C116 C145 1.392 . S
N117 Co111 2.008 . S
N117 C118 1.376 . S
N117 C121 1.374 . S
C118 N117 1.376 . S
C118 C119 1.443 . S
C118 C145 1.389 . S
C119 C118 1.443 . S
C119 C120 1.340 . S
C119 H151 0.951 . S
C120 C119 1.340 . S
C120 C121 1.439 . S
C120 H152 0.950 . S
C121 N117 1.374 . S
C121 C120 1.439 . S
C121 C146 1.395 . S
N122 Co111 1.995 . S
N122 C123 1.376 . S
N122 C126 1.383 . S
C123 N122 1.376 . S
C123 C124 1.446 . S
C123 C146 1.391 . S
C124 C123 1.446 . S
C124 C125 1.339 . S
C124 H153 0.949 . S
C125 C124 1.339 . S
C125 C126 1.439 . S
C125 H154 0.950 1_565 S
C126 N122 1.383 . S
C126 C125 1.439 . S
C126 C144 1.392 . S
N127 Co111 2.282 . S
N127 C130 1.332 . S
N127 C132 1.332 . S
C128 C129 1.386 . S
C128 C131 1.388 . S
C129 C128 1.386 . S
C129 C130 1.382 . S
C129 H155 0.950 . S
C130 N127 1.332 . S
C130 C129 1.382 . S
C130 H141 0.952 . S
C131 C128 1.388 . S
C131 C132 1.382 . S
C131 H156 0.950 . S
C132 N127 1.332 . S
C132 C131 1.382 . S
C132 H142 0.948 . S
N133 Co111 2.282 . S
N133 C137 1.332 . S
N133 C138 1.332 . S
C134 C135 1.388 . S
C134 C138 1.382 . S
C134 H157 0.950 . S
C135 C134 1.388 . S
C135 C136 1.386 . S
C136 C135 1.386 . S
C136 C137 1.382 . S
C136 H158 0.950 . S
C137 N133 1.332 . S
C137 C136 1.382 . S
C137 H139 0.952 . S
C138 N133 1.332 . S
C138 C134 1.382 . S
C138 H140 0.948 . S
H139 C137 0.952 . S
H140 C138 0.948 . S
H141 C130 0.952 . S
H142 C132 0.948 . S
C143 C109 1.395 . S
C143 C113 1.391 . S
C144 C106 1.389 . S
C144 C126 1.392 . S
C145 C116 1.392 . S
C145 C118 1.389 . S
C146 C121 1.395 . S
C146 C123 1.391 . S
H147 C107 0.951 . S
H148 C108 0.950 . S
H149 C114 0.949 . S
H150 C115 0.950 . S
H151 C119 0.951 . S
H152 C120 0.950 . S
H153 C124 0.949 . S
H154 C125 0.950 1_545 S
H155 C129 0.950 . S
H156 C131 0.950 . S
H157 C134 0.950 . S
H158 C136 0.950 . S
C159 C160 1.443 . S
C159 N163 1.376 . S
C159 C197 1.389 . S
C160 C159 1.443 . S
C160 C161 1.340 . S
C160 H200 0.951 . S
C161 C160 1.340 . S
C161 C162 1.439 . S
C161 H201 0.950 . S
C162 C161 1.439 . S
C162 N163 1.374 . S
C162 C196 1.395 . S
N163 C159 1.376 . S
N163 C162 1.374 . S
N163 Co164 2.008 . S
Co164 N163 2.008 . S
Co164 N165 1.995 . S
Co164 N170 2.008 . S
Co164 N175 1.995 . S
Co164 N180 2.282 . S
Co164 N186 2.282 . S
N165 Co164 1.995 . S
N165 C166 1.376 . S
N165 C169 1.383 . S
C166 N165 1.376 . S
C166 C167 1.446 . S
C166 C196 1.391 . S
C167 C166 1.446 . S
C167 C168 1.339 . S
C167 H202 0.949 . S
C168 C167 1.339 . S
C168 C169 1.439 . S
C168 H203 0.950 . S
C169 N165 1.383 . S
C169 C168 1.439 . S
C169 C198 1.392 . S
N170 Co164 2.008 . S
N170 C171 1.376 . S
N170 C174 1.374 . S
C171 N170 1.376 . S
C171 C172 1.443 . S
C171 C198 1.389 . S
C172 C171 1.443 . S
C172 C173 1.340 . S
C172 H204 0.951 . S
C173 C172 1.340 . S
C173 C174 1.439 . S
C173 H205 0.950 . S
C174 N170 1.374 . S
C174 C173 1.439 . S
C174 C199 1.395 . S
N175 Co164 1.995 . S
N175 C176 1.376 . S
N175 C179 1.383 . S
C176 N175 1.376 . S
C176 C177 1.446 . S
C176 C199 1.391 . S
C177 C176 1.446 . S
C177 C178 1.339 . S
C177 H206 0.949 . S
C178 C177 1.339 . S
C178 C179 1.439 . S
C178 H207 0.950 . S
C179 N175 1.383 . S
C179 C178 1.439 . S
C179 C197 1.392 . S
N180 Co164 2.282 . S
N180 C183 1.332 . S
N180 C185 1.332 . S
C181 C182 1.386 . S
C181 C184 1.388 . S
C182 C181 1.386 . S
C182 C183 1.382 . S
C182 H208 0.950 . S
C183 N180 1.332 . S
C183 C182 1.382 . S
C183 H194 0.952 . S
C184 C181 1.388 . S
C184 C185 1.382 . S
C184 H209 0.950 . S
C185 N180 1.332 . S
C185 C184 1.382 . S
C185 H195 0.948 . S
N186 Co164 2.282 . S
N186 C190 1.332 . S
N186 C191 1.332 . S
C187 C188 1.388 . S
C187 C191 1.382 . S
C187 H210 0.950 . S
C188 C187 1.388 . S
C188 C189 1.386 . S
C189 C188 1.386 . S
C189 C190 1.382 . S
C189 H211 0.950 . S
C190 N186 1.332 . S
C190 C189 1.382 . S
C190 H192 0.952 . S
C191 N186 1.332 . S
C191 C187 1.382 . S
C191 H193 0.948 . S
H192 C190 0.952 . S
H193 C191 0.948 . S
H194 C183 0.952 . S
H195 C185 0.948 . S
C196 C162 1.395 . S
C196 C166 1.391 . S
C197 C159 1.389 . S
C197 C179 1.392 . S
C198 C169 1.392 . S
C198 C171 1.389 . S
C199 C174 1.395 . S
C199 C176 1.391 . S
H200 C160 0.951 . S
H201 C161 0.950 . S
H202 C167 0.949 . S
H203 C168 0.950 . S
H204 C172 0.951 . S
H205 C173 0.950 . S
H206 C177 0.949 . S
H207 C178 0.950 . S
H208 C182 0.950 . S
H209 C184 0.950 . S
H210 C187 0.950 . S
H211 C189 0.950 . S
C212 C213 1.443 . S
C212 N216 1.376 . S
C212 C250 1.389 . S
C213 C212 1.443 . S
C213 C214 1.340 . S
C213 H253 0.951 1_455 S
C214 C213 1.340 . S
C214 C215 1.439 . S
C214 H254 0.950 1_455 S
C215 C214 1.439 . S
C215 N216 1.374 . S
C215 C249 1.395 . S
N216 C212 1.376 . S
N216 C215 1.374 . S
N216 Co217 2.008 . S
Co217 N216 2.008 . S
Co217 N218 1.995 . S
Co217 N223 2.008 . S
Co217 N228 1.995 . S
Co217 N233 2.282 . S
Co217 N239 2.282 . S
N218 Co217 1.995 . S
N218 C219 1.376 . S
N218 C222 1.383 . S
C219 N218 1.376 . S
C219 C220 1.446 . S
C219 C249 1.391 . S
C220 C219 1.446 . S
C220 C221 1.339 . S
C220 H255 0.949 . S
C221 C220 1.339 . S
C221 C222 1.439 . S
C221 H256 0.950 . S
C222 N218 1.383 . S
C222 C221 1.439 . S
C222 C251 1.392 . S
N223 Co217 2.008 . S
N223 C224 1.376 . S
N223 C227 1.374 . S
C224 N223 1.376 . S
C224 C225 1.443 . S
C224 C251 1.389 . S
C225 C224 1.443 . S
C225 C226 1.340 . S
C225 H257 0.951 . S
C226 C225 1.340 . S
C226 C227 1.439 . S
C226 H258 0.950 . S
C227 N223 1.374 . S
C227 C226 1.439 . S
C227 C252 1.395 . S
N228 Co217 1.995 . S
N228 C229 1.376 . S
N228 C232 1.383 . S
C229 N228 1.376 . S
C229 C230 1.446 . S
C229 C252 1.391 . S
C230 C229 1.446 . S
C230 C231 1.339 . S
C230 H259 0.949 . S
C231 C230 1.339 . S
C231 C232 1.439 . S
C231 H260 0.950 . S
C232 N228 1.383 . S
C232 C231 1.439 . S
C232 C250 1.392 . S
N233 Co217 2.282 . S
N233 C236 1.332 . S
N233 C238 1.332 . S
C234 C235 1.386 . S
C234 C237 1.388 . S
C235 C234 1.386 . S
C235 C236 1.382 . S
C235 H261 0.950 . S
C236 N233 1.332 . S
C236 C235 1.382 . S
C236 H247 0.952 . S
C237 C234 1.388 . S
C237 C238 1.382 . S
C237 H262 0.950 . S
C238 N233 1.332 . S
C238 C237 1.382 . S
C238 H248 0.948 . S
N239 Co217 2.282 . S
N239 C243 1.332 . S
N239 C244 1.332 . S
C240 C241 1.388 . S
C240 C244 1.382 . S
C240 H263 0.950 . S
C241 C240 1.388 . S
C241 C242 1.386 . S
C242 C241 1.386 . S
C242 C243 1.382 . S
C242 H264 0.950 1_455 S
C243 N239 1.332 . S
C243 C242 1.382 . S
C243 H245 0.952 . S
C244 N239 1.332 . S
C244 C240 1.382 . S
C244 H246 0.948 . S
H245 C243 0.952 . S
H246 C244 0.948 . S
H247 C236 0.952 . S
H248 C238 0.948 . S
C249 C215 1.395 . S
C249 C219 1.391 . S
C250 C212 1.389 . S
C250 C232 1.392 . S
C251 C222 1.392 . S
C251 C224 1.389 . S
C252 C227 1.395 . S
C252 C229 1.391 . S
H253 C213 0.951 1_655 S
H254 C214 0.950 1_655 S
H255 C220 0.949 . S
H256 C221 0.950 . S
H257 C225 0.951 . S
H258 C226 0.950 . S
H259 C230 0.949 . S
H260 C231 0.950 . S
H261 C235 0.950 . S
H262 C237 0.950 . S
H263 C240 0.950 . S
H264 C242 0.950 1_655 S
C265 C266 1.443 1_556 S
C265 N269 1.376 . S
C265 C303 1.389 . S
C266 C265 1.443 1_554 S
C266 C267 1.340 . S
C266 H306 0.951 . S
C267 C266 1.340 . S
C267 C268 1.439 1_554 S
C267 H307 0.950 . S
C268 C267 1.439 1_556 S
C268 N269 1.374 . S
C268 C302 1.395 . S
N269 C265 1.376 . S
N269 C268 1.374 . S
N269 Co270 2.008 . S
Co270 N269 2.008 . S
Co270 N271 1.995 . S
Co270 N276 2.008 . S
Co270 N281 1.995 . S
Co270 N286 2.282 . S
Co270 N292 2.282 . S
N271 Co270 1.995 . S
N271 C272 1.376 . S
N271 C275 1.383 . S
C272 N271 1.376 . S
C272 C273 1.446 . S
C272 C302 1.391 . S
C273 C272 1.446 . S
C273 C274 1.339 . S
C273 H308 0.949 . S
C274 C273 1.339 . S
C274 C275 1.439 . S
C274 H309 0.950 . S
C275 N271 1.383 . S
C275 C274 1.439 . S
C275 C304 1.392 . S
N276 Co270 2.008 . S
N276 C277 1.376 . S
N276 C280 1.374 . S
C277 N276 1.376 . S
C277 C278 1.443 . S
C277 C304 1.389 . S
C278 C277 1.443 . S
C278 C279 1.340 . S
C278 H310 0.951 . S
C279 C278 1.340 . S
C279 C280 1.439 . S
C279 H311 0.950 . S
C280 N276 1.374 . S
C280 C279 1.439 . S
C280 C305 1.395 . S
N281 Co270 1.995 . S
N281 C282 1.376 . S
N281 C285 1.383 . S
C282 N281 1.376 . S
C282 C283 1.446 . S
C282 C305 1.391 . S
C283 C282 1.446 . S
C283 C284 1.339 . S
C283 H312 0.949 . S
C284 C283 1.339 . S
C284 C285 1.439 . S
C284 H313 0.950 1_545 S
C285 N281 1.383 . S
C285 C284 1.439 . S
C285 C303 1.392 . S
N286 Co270 2.282 . S
N286 C289 1.332 . S
N286 C291 1.332 . S
C287 C288 1.386 . S
C287 C290 1.388 . S
C288 C287 1.386 . S
C288 C289 1.382 . S
C288 H314 0.950 . S
C289 N286 1.332 . S
C289 C288 1.382 . S
C289 H300 0.952 . S
C290 C287 1.388 . S
C290 C291 1.382 . S
C290 H315 0.950 . S
C291 N286 1.332 . S
C291 C290 1.382 . S
C291 H301 0.948 . S
N292 Co270 2.282 . S
N292 C296 1.332 . S
N292 C297 1.332 . S
C293 C294 1.388 . S
C293 C297 1.382 . S
C293 H316 0.950 . S
C294 C293 1.388 . S
C294 C295 1.386 . S
C295 C294 1.386 . S
C295 C296 1.382 . S
C295 H317 0.950 . S
C296 N292 1.332 . S
C296 C295 1.382 . S
C296 H298 0.952 . S
C297 N292 1.332 . S
C297 C293 1.382 . S
C297 H299 0.948 . S
H298 C296 0.952 . S
H299 C297 0.948 . S
H300 C289 0.952 . S
H301 C291 0.948 . S
C302 C268 1.395 . S
C302 C272 1.391 . S
C303 C265 1.389 . S
C303 C285 1.392 . S
C304 C275 1.392 . S
C304 C277 1.389 . S
C305 C280 1.395 . S
C305 C282 1.391 . S
H306 C266 0.951 . S
H307 C267 0.950 . S
H308 C273 0.949 . S
H309 C274 0.950 . S
H310 C278 0.951 . S
H311 C279 0.950 . S
H312 C283 0.949 . S
H313 C284 0.950 1_565 S
H314 C288 0.950 . S
H315 C290 0.950 . S
H316 C293 0.950 . S
H317 C295 0.950 . S
C318 C319 1.443 . S
C318 N322 1.376 . S
C318 C356 1.389 . S
C319 C318 1.443 . S
C319 C320 1.340 . S
C319 H359 0.951 . S
C320 C319 1.340 . S
C320 C321 1.439 . S
C320 H360 0.950 . S
C321 C320 1.439 . S
C321 N322 1.374 . S
C321 C355 1.395 . S
N322 C318 1.376 . S
N322 C321 1.374 . S
N322 Co323 2.008 . S
Co323 N322 2.008 . S
Co323 N324 1.995 . S
Co323 N329 2.008 . S
Co323 N334 1.995 . S
Co323 N339 2.282 . S
Co323 N345 2.282 . S
N324 Co323 1.995 . S
N324 C325 1.376 . S
N324 C328 1.383 . S
C325 N324 1.376 . S
C325 C326 1.446 . S
C325 C355 1.391 . S
C326 C325 1.446 . S
C326 C327 1.339 . S
C326 H361 0.949 . S
C327 C326 1.339 . S
C327 C328 1.439 . S
C327 H362 0.950 . S
C328 N324 1.383 . S
C328 C327 1.439 . S
C328 C357 1.392 . S
N329 Co323 2.008 . S
N329 C330 1.376 . S
N329 C333 1.374 . S
C330 N329 1.376 . S
C330 C331 1.443 . S
C330 C357 1.389 . S
C331 C330 1.443 . S
C331 C332 1.340 . S
C331 H363 0.951 . S
C332 C331 1.340 . S
C332 C333 1.439 . S
C332 H364 0.950 . S
C333 N329 1.374 . S
C333 C332 1.439 . S
C333 C358 1.395 . S
N334 Co323 1.995 . S
N334 C335 1.376 . S
N334 C338 1.383 . S
C335 N334 1.376 . S
C335 C336 1.446 . S
C335 C358 1.391 . S
C336 C335 1.446 . S
C336 C337 1.339 . S
C336 H365 0.949 . S
C337 C336 1.339 . S
C337 C338 1.439 . S
C337 H366 0.950 . S
C338 N334 1.383 . S
C338 C337 1.439 . S
C338 C356 1.392 . S
N339 Co323 2.282 . S
N339 C342 1.332 . S
N339 C344 1.332 . S
C340 C341 1.386 . S
C340 C343 1.388 . S
C341 C340 1.386 . S
C341 C342 1.382 . S
C341 H367 0.950 . S
C342 N339 1.332 . S
C342 C341 1.382 . S
C342 H353 0.952 . S
C343 C340 1.388 . S
C343 C344 1.382 . S
C343 H368 0.950 . S
C344 N339 1.332 . S
C344 C343 1.382 . S
C344 H354 0.948 . S
N345 Co323 2.282 . S
N345 C349 1.332 . S
N345 C350 1.332 . S
C346 C347 1.388 . S
C346 C350 1.382 . S
C346 H369 0.950 . S
C347 C346 1.388 . S
C347 C348 1.386 . S
C348 C347 1.386 . S
C348 C349 1.382 . S
C348 H370 0.950 . S
C349 N345 1.332 . S
C349 C348 1.382 . S
C349 H351 0.952 . S
C350 N345 1.332 . S
C350 C346 1.382 . S
C350 H352 0.948 . S
H351 C349 0.952 . S
H352 C350 0.948 . S
H353 C342 0.952 . S
H354 C344 0.948 . S
C355 C321 1.395 . S
C355 C325 1.391 . S
C356 C318 1.389 . S
C356 C338 1.392 . S
C357 C328 1.392 . S
C357 C330 1.389 . S
C358 C333 1.395 . S
C358 C335 1.391 . S
H359 C319 0.951 . S
H360 C320 0.950 . S
H361 C326 0.949 . S
H362 C327 0.950 . S
H363 C331 0.951 . S
H364 C332 0.950 . S
H365 C336 0.949 . S
H366 C337 0.950 . S
H367 C341 0.950 . S
H368 C343 0.950 . S
H369 C346 0.950 . S
H370 C348 0.950 . S
C371 C372 1.443 . S
C371 N375 1.376 . S
C371 C409 1.389 . S
C372 C371 1.443 . S
C372 C373 1.340 . S
C372 H412 0.951 . S
C373 C372 1.340 . S
C373 C374 1.439 . S
C373 H413 0.950 1_655 S
C374 C373 1.439 . S
C374 N375 1.374 . S
C374 C408 1.395 . S
N375 C371 1.376 . S
N375 C374 1.374 . S
N375 Co376 2.008 . S
Co376 N375 2.008 . S
Co376 N377 1.995 . S
Co376 N382 2.008 . S
Co376 N387 1.995 . S
Co376 N392 2.282 . S
Co376 N398 2.282 . S
N377 Co376 1.995 . S
N377 C378 1.376 . S
N377 C381 1.383 . S
C378 N377 1.376 . S
C378 C379 1.446 . S
C378 C408 1.391 . S
C379 C378 1.446 . S
C379 C380 1.339 . S
C379 H414 0.949 . S
C380 C379 1.339 . S
C380 C381 1.439 . S
C380 H415 0.950 . S
C381 N377 1.383 . S
C381 C380 1.439 . S
C381 C410 1.392 . S
N382 Co376 2.008 . S
N382 C383 1.376 . S
N382 C386 1.374 . S
C383 N382 1.376 . S
C383 C384 1.443 . S
C383 C410 1.389 . S
C384 C383 1.443 . S
C384 C385 1.340 . S
C384 H416 0.951 . S
C385 C384 1.340 . S
C385 C386 1.439 . S
C385 H417 0.950 . S
C386 N382 1.374 . S
C386 C385 1.439 . S
C386 C411 1.395 . S
N387 Co376 1.995 . S
N387 C388 1.376 . S
N387 C391 1.383 . S
C388 N387 1.376 . S
C388 C389 1.446 . S
C388 C411 1.391 . S
C389 C388 1.446 . S
C389 C390 1.339 . S
C389 H418 0.949 . S
C390 C389 1.339 . S
C390 C391 1.439 . S
C390 H419 0.950 . S
C391 N387 1.383 . S
C391 C390 1.439 . S
C391 C409 1.392 . S
N392 Co376 2.282 . S
N392 C395 1.332 . S
N392 C397 1.332 . S
C393 C394 1.386 . S
C393 C396 1.388 . S
C394 C393 1.386 . S
C394 C395 1.382 . S
C394 H420 0.950 . S
C395 N392 1.332 . S
C395 C394 1.382 . S
C395 H406 0.952 . S
C396 C393 1.388 . S
C396 C397 1.382 . S
C396 H421 0.950 . S
C397 N392 1.332 . S
C397 C396 1.382 . S
C397 H407 0.948 . S
N398 Co376 2.282 . S
N398 C402 1.332 . S
N398 C403 1.332 . S
C399 C400 1.388 . S
C399 C403 1.382 . S
C399 H422 0.950 . S
C400 C399 1.388 . S
C400 C401 1.386 . S
C401 C400 1.386 . S
C401 C402 1.382 . S
C401 H423 0.948 1_655 S
C402 N398 1.332 . S
C402 C401 1.382 . S
C402 H404 0.952 . S
C403 N398 1.332 . S
C403 C399 1.382 . S
C403 H405 0.948 . S
H404 C402 0.952 . S
H405 C403 0.948 . S
H406 C395 0.952 . S
H407 C397 0.948 . S
C408 C374 1.395 . S
C408 C378 1.391 . S
C409 C371 1.389 . S
C409 C391 1.392 . S
C410 C381 1.392 . S
C410 C383 1.389 . S
C411 C386 1.395 . S
C411 C388 1.391 . S
H412 C372 0.951 . S
H413 C373 0.950 1_455 S
H414 C379 0.949 . S
H415 C380 0.950 . S
H416 C384 0.951 . S
H417 C385 0.950 . S
H418 C389 0.949 . S
H419 C390 0.950 . S
H420 C394 0.950 . S
H421 C396 0.950 . S
H422 C399 0.950 . S
H423 C401 0.948 1_455 S
C424 C425 1.443 . S
C424 N428 1.376 . S
C424 C462 1.389 . S
C425 C424 1.443 . S
C425 C426 1.343 . S
C425 H465 0.951 1_554 S
C426 C425 1.343 . S
C426 C427 1.454 . S
C426 H466 0.935 1_554 S
C427 C426 1.454 . S
C427 N428 1.374 . S
C427 C461 1.395 . S
N428 C424 1.376 . S
N428 C427 1.374 . S
N428 Co429 2.008 . S
Co429 N428 2.008 . S
Co429 N430 1.995 . S
Co429 N435 2.008 . S
Co429 N440 1.995 . S
Co429 N445 2.282 . S
Co429 N451 2.282 . S
N430 Co429 1.995 . S
N430 C431 1.376 . S
N430 C434 1.383 . S
C431 N430 1.376 . S
C431 C432 1.446 . S
C431 C461 1.391 . S
C432 C431 1.446 . S
C432 C433 1.339 . S
C432 H467 0.949 . S
C433 C432 1.339 . S
C433 C434 1.439 . S
C433 H468 0.950 . S
C434 N430 1.383 . S
C434 C433 1.439 . S
C434 C463 1.392 . S
N435 Co429 2.008 . S
N435 C436 1.376 . S
N435 C439 1.374 . S
C436 N435 1.376 . S
C436 C437 1.443 . S
C436 C463 1.389 . S
C437 C436 1.443 . S
C437 C438 1.340 . S
C437 H469 0.951 . S
C438 C437 1.340 . S
C438 C439 1.439 . S
C438 H470 0.950 . S
C439 N435 1.374 . S
C439 C438 1.439 . S
C439 C464 1.395 . S
N440 Co429 1.995 . S
N440 C441 1.376 . S
N440 C444 1.383 . S
C441 N440 1.376 . S
C441 C442 1.446 . S
C441 C464 1.391 . S
C442 C441 1.446 . S
C442 C443 1.339 . S
C442 H471 0.949 . S
C443 C442 1.339 . S
C443 C444 1.439 . S
C443 H472 0.950 1_565 S
C444 N440 1.383 . S
C444 C443 1.439 . S
C444 C462 1.392 . S
N445 Co429 2.282 . S
N445 C448 1.332 . S
N445 C450 1.332 . S
C446 C447 1.386 . S
C446 C449 1.388 . S
C447 C446 1.386 . S
C447 C448 1.382 . S
C447 H473 0.950 . S
C448 N445 1.332 . S
C448 C447 1.382 . S
C448 H459 0.952 . S
C449 C446 1.388 . S
C449 C450 1.382 . S
C449 H474 0.950 . S
C450 N445 1.332 . S
C450 C449 1.382 . S
C450 H460 0.948 . S
N451 Co429 2.282 . S
N451 C455 1.332 . S
N451 C456 1.332 . S
C452 C453 1.388 . S
C452 C456 1.382 . S
C452 H475 0.950 . S
C453 C452 1.388 . S
C453 C454 1.386 . S
C454 C453 1.386 . S
C454 C455 1.382 . S
C454 H476 0.950 . S
C455 N451 1.332 . S
C455 C454 1.382 . S
C455 H457 0.952 . S
C456 N451 1.332 . S
C456 C452 1.382 . S
C456 H458 0.948 . S
H457 C455 0.952 . S
H458 C456 0.948 . S
H459 C448 0.952 . S
H460 C450 0.948 . S
C461 C427 1.395 . S
C461 C431 1.391 . S
C462 C424 1.389 . S
C462 C444 1.392 . S
C463 C434 1.392 . S
C463 C436 1.389 . S
C464 C439 1.395 . S
C464 C441 1.391 . S
H465 C425 0.951 1_556 S
H466 C426 0.935 1_556 S
H467 C432 0.949 . S
H468 C433 0.950 . S
H469 C437 0.951 . S
H470 C438 0.950 . S
H471 C442 0.949 . S
H472 C443 0.950 1_545 S
H473 C447 0.950 . S
H474 C449 0.950 . S
H475 C452 0.950 . S
H476 C454 0.950 . S
C477 C478 1.443 . S
C477 N481 1.376 . S
C477 C515 1.389 . S
C478 C477 1.443 . S
C478 C479 1.340 . S
C478 H518 0.951 . S
C479 C478 1.340 . S
C479 C480 1.439 . S
C479 H519 0.950 . S
C480 C479 1.439 . S
C480 N481 1.374 . S
C480 C514 1.395 . S
N481 C477 1.376 . S
N481 C480 1.374 . S
N481 Co482 2.008 . S
Co482 N481 2.008 . S
Co482 N483 1.995 . S
Co482 N488 2.008 . S
Co482 N493 1.995 . S
Co482 N498 2.282 . S
Co482 N504 2.282 . S
N483 Co482 1.995 . S
N483 C484 1.376 . S
N483 C487 1.383 . S
C484 N483 1.376 . S
C484 C485 1.446 . S
C484 C514 1.391 . S
C485 C484 1.446 . S
C485 C486 1.339 . S
C485 H520 0.949 . S
C486 C485 1.339 . S
C486 C487 1.439 . S
C486 H521 0.950 . S
C487 N483 1.383 . S
C487 C486 1.439 . S
C487 C516 1.392 . S
N488 Co482 2.008 . S
N488 C489 1.376 . S
N488 C492 1.374 . S
C489 N488 1.376 . S
C489 C490 1.443 . S
C489 C516 1.389 . S
C490 C489 1.443 . S
C490 C491 1.340 . S
C490 H522 0.951 . S
C491 C490 1.340 . S
C491 C492 1.439 . S
C491 H523 0.950 . S
C492 N488 1.374 . S
C492 C491 1.439 . S
C492 C517 1.395 . S
N493 Co482 1.995 . S
N493 C494 1.376 . S
N493 C497 1.383 . S
C494 N493 1.376 . S
C494 C495 1.446 . S
C494 C517 1.391 . S
C495 C494 1.446 . S
C495 C496 1.339 . S
C495 H524 0.949 . S
C496 C495 1.339 . S
C496 C497 1.439 . S
C496 H525 0.950 . S
C497 N493 1.383 . S
C497 C496 1.439 . S
C497 C515 1.392 . S
N498 Co482 2.282 . S
N498 C501 1.332 . S
N498 C503 1.332 . S
C499 C500 1.386 . S
C499 C502 1.388 . S
C500 C499 1.386 . S
C500 C501 1.382 . S
C500 H526 0.950 . S
C501 N498 1.332 . S
C501 C500 1.382 . S
C501 H512 0.952 . S
C502 C499 1.388 . S
C502 C503 1.382 . S
C502 H527 0.950 . S
C503 N498 1.332 . S
C503 C502 1.382 . S
C503 H513 0.948 . S
N504 Co482 2.282 . S
N504 C508 1.332 . S
N504 C509 1.332 . S
C505 C506 1.388 . S
C505 C509 1.382 . S
C505 H528 0.950 . S
C506 C505 1.388 . S
C506 C507 1.386 . S
C507 C506 1.386 . S
C507 C508 1.382 . S
C507 H529 0.950 . S
C508 N504 1.332 . S
C508 C507 1.382 . S
C508 H510 0.952 . S
C509 N504 1.332 . S
C509 C505 1.382 . S
C509 H511 0.948 . S
H510 C508 0.952 . S
H511 C509 0.948 . S
H512 C501 0.952 . S
H513 C503 0.948 . S
C514 C480 1.395 . S
C514 C484 1.391 . S
C515 C477 1.389 . S
C515 C497 1.392 . S
C516 C487 1.392 . S
C516 C489 1.389 . S
C517 C492 1.395 . S
C517 C494 1.391 . S
H518 C478 0.951 . S
H519 C479 0.950 . S
H520 C485 0.949 . S
H521 C486 0.950 . S
H522 C490 0.951 . S
H523 C491 0.950 . S
H524 C495 0.949 . S
H525 C496 0.950 . S
H526 C500 0.950 . S
H527 C502 0.950 . S
H528 C505 0.950 . S
H529 C507 0.950 . S
C530 C531 1.443 . S
C530 N534 1.376 . S
C530 C568 1.389 . S
C531 C530 1.443 . S
C531 C532 1.340 . S
C531 H571 0.951 . S
C532 C531 1.340 . S
C532 C533 1.439 . S
C532 H572 0.950 1_455 S
C533 C532 1.439 . S
C533 N534 1.374 . S
C533 C567 1.395 . S
N534 C530 1.376 . S
N534 C533 1.374 . S
N534 Co535 2.008 . S
Co535 N534 2.008 . S
Co535 N536 1.995 . S
Co535 N541 2.008 . S
Co535 N546 1.995 . S
Co535 N551 2.282 . S
Co535 N557 2.282 . S
N536 Co535 1.995 . S
N536 C537 1.376 . S
N536 C540 1.383 . S
C537 N536 1.376 . S
C537 C538 1.446 . S
C537 C567 1.391 . S
C538 C537 1.446 . S
C538 C539 1.339 . S
C538 H573 0.949 . S
C539 C538 1.339 . S
C539 C540 1.439 . S
C539 H574 0.950 . S
C540 N536 1.383 . S
C540 C539 1.439 . S
C540 C569 1.392 . S
N541 Co535 2.008 . S
N541 C542 1.376 . S
N541 C545 1.374 . S
C542 N541 1.376 . S
C542 C543 1.443 . S
C542 C569 1.389 . S
C543 C542 1.443 . S
C543 C544 1.340 . S
C543 H575 0.951 . S
C544 C543 1.340 . S
C544 C545 1.439 . S
C544 H576 0.950 . S
C545 N541 1.374 . S
C545 C544 1.439 . S
C545 C570 1.395 . S
N546 Co535 1.995 . S
N546 C547 1.376 . S
N546 C550 1.383 . S
C547 N546 1.376 . S
C547 C548 1.446 . S
C547 C570 1.391 . S
C548 C547 1.446 . S
C548 C549 1.339 . S
C548 H577 0.949 . S
C549 C548 1.339 . S
C549 C550 1.439 . S
C549 H578 0.950 . S
C550 N546 1.383 . S
C550 C549 1.439 . S
C550 C568 1.392 . S
N551 Co535 2.282 . S
N551 C554 1.332 . S
N551 C556 1.332 . S
C552 C553 1.386 . S
C552 C555 1.388 . S
C553 C552 1.386 . S
C553 C554 1.382 . S
C553 H579 0.950 . S
C554 N551 1.332 . S
C554 C553 1.382 . S
C554 H565 0.952 . S
C555 C552 1.388 . S
C555 C556 1.382 . S
C555 H580 0.950 . S
C556 N551 1.332 . S
C556 C555 1.382 . S
C556 H566 0.948 . S
N557 Co535 2.282 . S
N557 C561 1.332 . S
N557 C562 1.332 . S
C558 C559 1.388 . S
C558 C562 1.382 . S
C558 H581 0.950 . S
C559 C558 1.388 . S
C559 C560 1.386 . S
C560 C559 1.386 . S
C560 C561 1.382 . S
C560 H582 0.948 1_455 S
C561 N557 1.332 . S
C561 C560 1.382 . S
C561 H563 0.952 . S
C562 N557 1.332 . S
C562 C558 1.382 . S
C562 H564 0.948 . S
H563 C561 0.952 . S
H564 C562 0.948 . S
H565 C554 0.952 . S
H566 C556 0.948 . S
C567 C533 1.395 . S
C567 C537 1.391 . S
C568 C530 1.389 . S
C568 C550 1.392 . S
C569 C540 1.392 . S
C569 C542 1.389 . S
C570 C545 1.395 . S
C570 C547 1.391 . S
H571 C531 0.951 . S
H572 C532 0.950 1_655 S
H573 C538 0.949 . S
H574 C539 0.950 . S
H575 C543 0.951 . S
H576 C544 0.950 . S
H577 C548 0.949 . S
H578 C549 0.950 . S
H579 C553 0.950 . S
H580 C555 0.950 . S
H581 C558 0.950 . S
H582 C560 0.948 1_655 S
C583 C584 1.443 . S
C583 N587 1.376 . S
C583 C621 1.389 . S
C584 C583 1.443 . S
C584 C585 1.343 . S
C584 H624 0.951 1_554 S
C585 C584 1.343 . S
C585 C586 1.454 . S
C585 H625 0.935 1_554 S
C586 C585 1.454 . S
C586 N587 1.374 . S
C586 C620 1.395 . S
N587 C583 1.376 . S
N587 C586 1.374 . S
N587 Co588 2.008 . S
Co588 N587 2.008 . S
Co588 N589 1.995 . S
Co588 N594 2.008 . S
Co588 N599 1.995 . S
Co588 N604 2.282 . S
Co588 N610 2.282 . S
N589 Co588 1.995 . S
N589 C590 1.376 . S
N589 C593 1.383 . S
C590 N589 1.376 . S
C590 C591 1.446 . S
C590 C620 1.391 . S
C591 C590 1.446 . S
C591 C592 1.339 . S
C591 H626 0.949 . S
C592 C591 1.339 . S
C592 C593 1.439 . S
C592 H627 0.950 . S
C593 N589 1.383 . S
C593 C592 1.439 . S
C593 C622 1.392 . S
N594 Co588 2.008 . S
N594 C595 1.376 . S
N594 C598 1.374 . S
C595 N594 1.376 . S
C595 C596 1.443 . S
C595 C622 1.389 . S
C596 C595 1.443 . S
C596 C597 1.340 . S
C596 H628 0.951 . S
C597 C596 1.340 . S
C597 C598 1.439 . S
C597 H629 0.950 . S
C598 N594 1.374 . S
C598 C597 1.439 . S
C598 C623 1.395 . S
N599 Co588 1.995 . S
N599 C600 1.376 . S
N599 C603 1.383 . S
C600 N599 1.376 . S
C600 C601 1.446 . S
C600 C623 1.391 . S
C601 C600 1.446 . S
C601 C602 1.339 . S
C601 H630 0.949 . S
C602 C601 1.339 . S
C602 C603 1.439 . S
C602 H631 0.950 1_545 S
C603 N599 1.383 . S
C603 C602 1.439 . S
C603 C621 1.392 . S
N604 Co588 2.282 . S
N604 C607 1.332 . S
N604 C609 1.332 . S
C605 C606 1.386 . S
C605 C608 1.388 . S
C606 C605 1.386 . S
C606 C607 1.382 . S
C606 H632 0.950 . S
C607 N604 1.332 . S
C607 C606 1.382 . S
C607 H618 0.952 . S
C608 C605 1.388 . S
C608 C609 1.382 . S
C608 H633 0.950 . S
C609 N604 1.332 . S
C609 C608 1.382 . S
C609 H619 0.948 . S
N610 Co588 2.282 . S
N610 C614 1.332 . S
N610 C615 1.332 . S
C611 C612 1.388 . S
C611 C615 1.382 . S
C611 H634 0.950 . S
C612 C611 1.388 . S
C612 C613 1.386 . S
C613 C612 1.386 . S
C613 C614 1.382 . S
C613 H635 0.950 . S
C614 N610 1.332 . S
C614 C613 1.382 . S
C614 H616 0.952 . S
C615 N610 1.332 . S
C615 C611 1.382 . S
C615 H617 0.948 . S
H616 C614 0.952 . S
H617 C615 0.948 . S
H618 C607 0.952 . S
H619 C609 0.948 . S
C620 C586 1.395 . S
C620 C590 1.391 . S
C621 C583 1.389 . S
C621 C603 1.392 . S
C622 C593 1.392 . S
C622 C595 1.389 . S
C623 C598 1.395 . S
C623 C600 1.391 . S
H624 C584 0.951 1_556 S
H625 C585 0.935 1_556 S
H626 C591 0.949 . S
H627 C592 0.950 . S
H628 C596 0.951 . S
H629 C597 0.950 . S
H630 C601 0.949 . S
H631 C602 0.950 1_565 S
H632 C606 0.950 . S
H633 C608 0.950 . S
H634 C611 0.950 . S
H635 C613 0.950 . S
C636 C637 1.369 . S
C636 C638 1.419 . S
C636 H640 0.930 . S
C637 C636 1.369 . S
C637 C646 1.429 . S
C638 C636 1.419 . S
C638 C639 1.363 . S
C638 H641 0.929 . S
C639 C638 1.363 . S
C639 C645 1.428 . S
H640 C636 0.930 . S
H641 C638 0.929 . S
S642 N643 1.613 . S
S642 N644 1.610 . S
N643 S642 1.613 . S
N643 C646 1.350 . S
N644 S642 1.610 . S
N644 C645 1.351 . S
C645 C639 1.428 . S
C645 N644 1.351 . S
C645 C646 1.434 . S
C646 C637 1.429 . S
C646 N643 1.350 . S
C646 C645 1.434 . S
C647 C648 1.369 . S
C647 C649 1.419 . S
C647 H651 0.930 . S
C648 C647 1.369 . S
C648 C657 1.429 . S
C649 C647 1.419 . S
C649 C650 1.363 . S
C649 H652 0.929 . S
C650 C649 1.363 . S
C650 C656 1.428 . S
H651 C647 0.930 . S
H652 C649 0.929 . S
S653 N654 1.613 . S
S653 N655 1.610 . S
N654 S653 1.613 . S
N654 C657 1.350 . S
N655 S653 1.610 . S
N655 C656 1.351 . S
C656 C650 1.428 . S
C656 N655 1.351 . S
C656 C657 1.434 . S
C657 C648 1.429 . S
C657 N654 1.350 . S
C657 C656 1.434 . S
C658 C659 1.369 . S
C658 C660 1.419 . S
C658 H662 0.930 . S
C659 C658 1.369 . S
C659 C668 1.429 . S
C660 C658 1.419 . S
C660 C661 1.363 . S
C660 H663 0.929 . S
C661 C660 1.363 . S
C661 C667 1.428 . S
H662 C658 0.930 . S
H663 C660 0.929 . S
S664 N665 1.613 . S
S664 N666 1.610 . S
N665 S664 1.613 . S
N665 C668 1.350 . S
N666 S664 1.610 . S
N666 C667 1.351 . S
C667 C661 1.428 . S
C667 N666 1.351 . S
C667 C668 1.434 . S
C668 C659 1.429 . S
C668 N665 1.350 . S
C668 C667 1.434 . S
C669 C670 1.369 . S
C669 C671 1.419 . S
C669 H673 0.930 . S
C670 C669 1.369 . S
C670 C679 1.429 . S
C671 C669 1.419 . S
C671 C672 1.363 . S
C671 H674 0.929 . S
C672 C671 1.363 . S
C672 C678 1.428 . S
H673 C669 0.930 . S
H674 C671 0.929 . S
S675 N676 1.613 . S
S675 N677 1.610 . S
N676 S675 1.613 . S
N676 C679 1.350 . S
N677 S675 1.610 . S
N677 C678 1.351 . S
C678 C672 1.428 . S
C678 N677 1.351 . S
C678 C679 1.434 . S
C679 C670 1.429 . S
C679 N676 1.350 . S
C679 C678 1.434 . S
C680 C681 1.369 . S
C680 C682 1.419 . S
C680 H684 0.930 . S
C681 C680 1.369 . S
C681 C690 1.429 . S
C682 C680 1.419 . S
C682 C683 1.363 . S
C682 H685 0.929 . S
C683 C682 1.363 . S
C683 C689 1.428 . S
H684 C680 0.930 . S
H685 C682 0.929 . S
S686 N687 1.613 . S
S686 N688 1.610 . S
N687 S686 1.613 . S
N687 C690 1.350 . S
N688 S686 1.610 . S
N688 C689 1.351 . S
C689 C683 1.428 . S
C689 N688 1.351 . S
C689 C690 1.434 . S
C690 C681 1.429 . S
C690 N687 1.350 . S
C690 C689 1.434 . S
C691 C692 1.369 . S
C691 C693 1.419 . S
C691 H695 0.930 . S
C692 C691 1.369 . S
C692 C701 1.429 . S
C693 C691 1.419 . S
C693 C694 1.363 . S
C693 H696 0.929 . S
C694 C693 1.363 . S
C694 C700 1.428 . S
H695 C691 0.930 . S
H696 C693 0.929 . S
S697 N698 1.613 . S
S697 N699 1.610 . S
N698 S697 1.613 . S
N698 C701 1.350 . S
N699 S697 1.610 . S
N699 C700 1.351 . S
C700 C694 1.428 . S
C700 N699 1.351 . S
C700 C701 1.434 . S
C701 C692 1.429 . S
C701 N698 1.350 . S
C701 C700 1.434 . S
C702 C703 1.369 . S
C702 C704 1.419 . S
C702 H706 0.930 . S
C703 C702 1.369 . S
C703 C712 1.429 . S
C704 C702 1.419 . S
C704 C705 1.363 . S
C704 H707 0.929 . S
C705 C704 1.363 . S
C705 C711 1.428 . S
H706 C702 0.930 . S
H707 C704 0.929 . S
S708 N709 1.613 . S
S708 N710 1.610 . S
N709 S708 1.613 . S
N709 C712 1.350 . S
N710 S708 1.610 . S
N710 C711 1.351 . S
C711 C705 1.428 . S
C711 N710 1.351 . S
C711 C712 1.434 . S
C712 C703 1.429 . S
C712 N709 1.350 . S
C712 C711 1.434 . S
C713 C714 1.369 . S
C713 C715 1.419 1_455 S
C713 H717 0.930 . S
C714 C713 1.369 . S
C714 C723 1.429 . S
C715 C713 1.419 1_655 S
C715 C716 1.363 . S
C715 H718 0.929 . S
C716 C715 1.363 . S
C716 C722 1.428 . S
H717 C713 0.930 . S
H718 C715 0.929 . S
S719 N720 1.613 1_655 S
S719 N721 1.610 . S
N720 S719 1.613 1_455 S
N720 C723 1.350 . S
N721 S719 1.610 . S
N721 C722 1.351 . S
C722 C716 1.428 . S
C722 N721 1.351 . S
C722 C723 1.434 1_655 S
C723 C714 1.429 . S
C723 N720 1.350 . S
C723 C722 1.434 1_455 S
C724 C725 1.369 1_565 S
C724 C726 1.419 . S
C724 H728 0.930 . S
C725 C724 1.369 1_545 S
C725 C734 1.429 . S
C726 C724 1.419 . S
C726 C727 1.363 . S
C726 H729 0.929 . S
C727 C726 1.363 . S
C727 C733 1.428 1_565 S
H728 C724 0.930 . S
H729 C726 0.929 . S
S730 N731 1.613 . S
S730 N732 1.610 . S
N731 S730 1.613 . S
N731 C734 1.350 . S
N732 S730 1.610 . S
N732 C733 1.351 . S
C733 C727 1.428 1_545 S
C733 N732 1.351 . S
C733 C734 1.434 . S
C734 C725 1.429 . S
C734 N731 1.350 . S
C734 C733 1.434 . S
C735 C736 1.369 . S
C735 C737 1.419 . S
C735 H739 0.930 . S
C736 C735 1.369 . S
C736 C745 1.429 . S
C737 C735 1.419 . S
C737 C738 1.363 . S
C737 H740 0.929 . S
C738 C737 1.363 . S
C738 C744 1.428 . S
H739 C735 0.930 . S
H740 C737 0.929 . S
S741 N742 1.613 . S
S741 N743 1.610 . S
N742 S741 1.613 . S
N742 C745 1.350 . S
N743 S741 1.610 . S
N743 C744 1.351 . S
C744 C738 1.428 . S
C744 N743 1.351 . S
C744 C745 1.434 . S
C745 C736 1.429 . S
C745 N742 1.350 . S
C745 C744 1.434 . S
C746 C747 1.369 1_455 S
C746 C748 1.419 . S
C746 H750 0.930 . S
C747 C746 1.369 1_655 S
C747 C756 1.429 . S
C748 C746 1.419 . S
C748 C749 1.363 . S
C748 H751 0.929 . S
C749 C748 1.363 . S
C749 C755 1.428 1_455 S
H750 C746 0.930 . S
H751 C748 0.929 . S
S752 N753 1.613 . S
S752 N754 1.610 . S
N753 S752 1.613 . S
N753 C756 1.350 . S
N754 S752 1.610 . S
N754 C755 1.351 . S
C755 C749 1.428 1_655 S
C755 N754 1.351 . S
C755 C756 1.434 . S
C756 C747 1.429 . S
C756 N753 1.350 . S
C756 C755 1.434 . S
C757 C758 1.369 . S
C757 C759 1.419 1_565 S
C757 H761 0.930 . S
C758 C757 1.369 . S
C758 C767 1.434 . S
C759 C757 1.419 1_545 S
C759 C760 1.363 . S
C759 H762 0.930 1_545 S
C760 C759 1.363 . S
C760 C766 1.428 . S
H761 C757 0.930 . S
H762 C759 0.930 1_565 S
S763 N764 1.613 . S
S763 N765 1.610 . S
N764 S763 1.613 . S
N764 C767 1.347 1_545 S
N765 S763 1.610 . S
N765 C766 1.351 . S
C766 C760 1.428 . S
C766 N765 1.351 . S
C766 C767 1.432 1_545 S
C767 C758 1.434 . S
C767 N764 1.347 1_565 S
C767 C766 1.432 1_565 S
C768 C769 1.369 . S
C768 C770 1.419 . S
C768 H772 0.930 . S
C769 C768 1.369 . S
C769 C778 1.429 . S
C770 C768 1.419 . S
C770 C771 1.363 . S
C770 H773 0.929 . S
C771 C770 1.363 . S
C771 C777 1.428 . S
H772 C768 0.930 . S
H773 C770 0.929 . S
S774 N775 1.613 . S
S774 N776 1.610 . S
N775 S774 1.613 . S
N775 C778 1.350 . S
N776 S774 1.610 . S
N776 C777 1.351 . S
C777 C771 1.428 . S
C777 N776 1.351 . S
C777 C778 1.434 . S
C778 C769 1.429 . S
C778 N775 1.350 . S
C778 C777 1.434 . S
C779 C780 1.369 . S
C779 C781 1.419 . S
C779 H783 0.930 . S
C780 C779 1.369 . S
C780 C789 1.429 1_455 S
C781 C779 1.419 . S
C781 C782 1.363 . S
C781 H784 0.929 . S
C782 C781 1.363 . S
C782 C788 1.428 1_455 S
H783 C779 0.930 . S
H784 C781 0.929 . S
S785 N786 1.613 . S
S785 N787 1.610 . S
N786 S785 1.613 . S
N786 C789 1.350 . S
N787 S785 1.610 . S
N787 C788 1.351 . S
C788 C782 1.428 1_655 S
C788 N787 1.351 . S
C788 C789 1.434 . S
C789 C780 1.429 1_655 S
C789 N786 1.350 . S
C789 C788 1.434 . S
C790 C791 1.369 1_545 S
C790 C792 1.394 1_556 S
C790 H794 0.930 . S
C791 C790 1.369 1_565 S
C791 C800 1.429 1_556 S
C792 C790 1.394 1_554 S
C792 C793 1.393 . S
C792 H795 0.924 1_554 S
C793 C792 1.393 . S
C793 C799 1.428 1_545 S
H794 C790 0.930 . S
H795 C792 0.924 1_556 S
S796 N797 1.613 . S
S796 N798 1.610 . S
N797 S796 1.613 . S
N797 C800 1.350 . S
N798 S796 1.610 . S
N798 C799 1.351 . S
C799 C793 1.428 1_565 S
C799 N798 1.351 . S
C799 C800 1.434 . S
C800 C791 1.429 1_554 S
C800 N797 1.350 . S
C800 C799 1.434 . S
C801 C802 1.369 . S
C801 C803 1.419 . S
C801 H805 0.930 . S
C802 C801 1.369 . S
C802 C811 1.429 . S
C803 C801 1.419 . S
C803 C804 1.363 . S
C803 H806 0.929 . S
C804 C803 1.363 . S
C804 C810 1.428 . S
H805 C801 0.930 . S
H806 C803 0.929 . S
S807 N808 1.613 . S
S807 N809 1.610 . S
N808 S807 1.613 . S
N808 C811 1.350 . S
N809 S807 1.610 . S
N809 C810 1.351 . S
C810 C804 1.428 . S
C810 N809 1.351 . S
C810 C811 1.434 . S
C811 C802 1.429 . S
C811 N808 1.350 . S
C811 C810 1.434 . S
C812 C813 1.369 . S
C812 C814 1.419 . S
C812 H816 0.930 . S
C813 C812 1.369 . S
C813 C822 1.429 1_655 S
C814 C812 1.419 . S
C814 C815 1.363 . S
C814 H817 0.929 . S
C815 C814 1.363 . S
C815 C821 1.428 1_655 S
H816 C812 0.930 . S
H817 C814 0.929 . S
S818 N819 1.613 . S
S818 N820 1.610 . S
N819 S818 1.613 . S
N819 C822 1.350 . S
N820 S818 1.610 . S
N820 C821 1.351 . S
C821 C815 1.428 1_455 S
C821 N820 1.351 . S
C821 C822 1.434 . S
C822 C813 1.429 1_455 S
C822 N819 1.350 . S
C822 C821 1.434 . S
C823 C824 1.378 . S
C823 C825 1.411 1_554 S
C823 H827 0.928 1_554 S
C824 C823 1.378 . S
C824 C833 1.429 1_565 S
C825 C823 1.411 1_556 S
C825 C826 1.363 1_565 S
C825 H828 0.929 . S
C826 C825 1.363 1_545 S
C826 C832 1.428 1_556 S
H827 C823 0.928 1_556 S
H828 C825 0.929 . S
S829 N830 1.613 . S
S829 N831 1.610 . S
N830 S829 1.613 . S
N830 C833 1.350 . S
N831 S829 1.610 . S
N831 C832 1.351 . S
C832 C826 1.428 1_554 S
C832 N831 1.351 . S
C832 C833 1.434 . S
C833 C824 1.429 1_545 S
C833 N830 1.350 . S
C833 C832 1.434 . S
C834 C835 1.369 1_655 S
C834 C836 1.419 1_655 S
C834 H838 0.930 . S
C835 C834 1.369 1_455 S
C835 C844 1.429 . S
C836 C834 1.419 1_455 S
C836 C837 1.363 . S
C836 H839 0.929 . S
C837 C836 1.363 . S
C837 C843 1.428 . S
H838 C834 0.930 . S
H839 C836 0.929 . S
S840 N841 1.613 . S
S840 N842 1.610 . S
N841 S840 1.613 . S
N841 C844 1.350 . S
N842 S840 1.610 . S
N842 C843 1.351 . S
C843 C837 1.428 . S
C843 N842 1.351 . S
C843 C844 1.434 . S
C844 C835 1.429 . S
C844 N841 1.350 . S
C844 C843 1.434 . S
C845 C846 1.369 1_565 S
C845 C847 1.419 . S
C845 H849 0.930 . S
C846 C845 1.369 1_545 S
C846 C855 1.429 . S
C847 C845 1.419 . S
C847 C848 1.363 . S
C847 H850 0.929 . S
C848 C847 1.363 . S
C848 C854 1.428 1_565 S
H849 C845 0.930 . S
H850 C847 0.929 . S
S851 N852 1.613 . S
S851 N853 1.610 . S
N852 S851 1.613 . S
N852 C855 1.350 . S
N853 S851 1.610 . S
N853 C854 1.351 . S
C854 C848 1.428 1_545 S
C854 N853 1.351 . S
C854 C855 1.434 . S
C855 C846 1.429 . S
C855 N852 1.350 . S
C855 C854 1.434 . S
C856 C857 1.369 . S
C856 C858 1.419 . S
C856 H860 0.930 . S
C857 C856 1.369 . S
C857 C866 1.429 . S
C858 C856 1.419 . S
C858 C859 1.363 . S
C858 H861 0.929 . S
C859 C858 1.363 . S
C859 C865 1.428 . S
H860 C856 0.930 . S
H861 C858 0.929 . S
S862 N863 1.613 . S
S862 N864 1.610 . S
N863 S862 1.613 . S
N863 C866 1.350 . S
N864 S862 1.610 . S
N864 C865 1.351 . S
C865 C859 1.428 . S
C865 N864 1.351 . S
C865 C866 1.434 . S
C866 C857 1.429 . S
C866 N863 1.350 . S
C866 C865 1.434 . S
C867 C868 1.369 . S
C867 C869 1.419 1_655 S
C867 H871 0.930 . S
C868 C867 1.369 . S
C868 C877 1.429 . S
C869 C867 1.419 1_455 S
C869 C870 1.363 1_455 S
C869 H872 0.929 . S
C870 C869 1.363 1_655 S
C870 C876 1.428 . S
H871 C867 0.930 . S
H872 C869 0.929 . S
S873 N874 1.613 . S
S873 N875 1.610 . S
N874 S873 1.613 . S
N874 C877 1.350 . S
N875 S873 1.610 . S
N875 C876 1.351 . S
C876 C870 1.428 . S
C876 N875 1.351 . S
C876 C877 1.434 . S
C877 C868 1.429 . S
C877 N874 1.350 . S
C877 C876 1.434 . S
C878 C879 1.369 1_545 S
C878 C880 1.419 . S
C878 H882 0.930 . S
C879 C878 1.369 1_565 S
C879 C888 1.429 . S
C880 C878 1.419 . S
C880 C881 1.363 . S
C880 H883 0.929 . S
C881 C880 1.363 . S
C881 C887 1.428 1_545 S
H882 C878 0.930 . S
H883 C880 0.929 . S
S884 N885 1.613 . S
S884 N886 1.610 . S
N885 S884 1.613 . S
N885 C888 1.350 . S
N886 S884 1.610 . S
N886 C887 1.351 . S
C887 C881 1.428 1_565 S
C887 N886 1.351 . S
C887 C888 1.434 . S
C888 C879 1.429 . S
C888 N885 1.350 . S
C888 C887 1.434 . S
C889 C890 1.369 . S
C889 C891 1.419 . S
C889 H893 0.930 . S
C890 C889 1.369 . S
C890 C899 1.429 . S
C891 C889 1.419 . S
C891 C892 1.363 . S
C891 H894 0.929 . S
C892 C891 1.363 . S
C892 C898 1.428 . S
H893 C889 0.930 . S
H894 C891 0.929 . S
S895 N896 1.613 . S
S895 N897 1.610 . S
N896 S895 1.613 . S
N896 C899 1.350 . S
N897 S895 1.610 . S
N897 C898 1.351 . S
C898 C892 1.428 . S
C898 N897 1.351 . S
C898 C899 1.434 . S
C899 C890 1.429 . S
C899 N896 1.350 . S
C899 C898 1.434 . S
C637 C463 1.921 . S
C639 C22 1.916 . S
C648 C75 2.149 . S
C650 C499 2.155 . S
C659 C145 1.925 . S
C661 C552 1.916 . S
C670 C181 1.921 . S
C672 C622 1.918 . S
C681 C340 2.147 . S
C683 C234 2.155 . S
C692 C304 1.917 . S
C694 C393 1.921 . S
C703 C197 2.192 . S
C705 C38 2.190 . S
C714 C250 2.123 . S
C716 C91 2.123 . S
C725 C294 1.328 . S
C727 C135 1.325 . S
C736 C356 2.121 . S
C738 C515 2.121 . S
C747 C409 2.192 . S
C749 C568 2.190 . S
C758 C453 1.329 . S
C760 C612 1.329 . S
C769 C29 2.036 . S
C771 C506 2.018 . S
C780 C82 2.015 1_455 S
C782 C559 2.039 . S
C791 C144 1.538 . S
C793 C621 1.542 . S
C802 C347 2.014 . S
C804 C188 2.039 . S
C813 C241 2.013 1_655 S
C815 C400 2.040 . S
C824 C462 1.543 . S
C826 C303 1.539 . S
C835 C605 1.833 1_455 S
C837 C39 1.828 . S
C846 C92 2.191 . S
C848 C357 2.193 . S
C857 C410 1.828 . S
C859 C128 1.830 . S
C868 C198 1.827 . S
C870 C446 1.832 1_655 S
C879 C251 2.188 . S
C881 C516 2.194 . S
C890 C569 1.834 . S
C892 C287 1.828 . S
