# Generated by pormake.
# Topology wkf, (6)-cn, num edge types: 1
# Building blocks:
#     Node 0, Type 0, BuildingBlock: MAKGUD_clean_sbu_1, # of connection points: 6
#     Node 1, Type 0, BuildingBlock: MAKGUD_clean_sbu_1, # of connection points: 6
#     Node 2, Type 0, BuildingBlock: MAKGUD_clean_sbu_1, # of connection points: 6
#     Node 3, Type 0, BuildingBlock: MAKGUD_clean_sbu_1, # of connection points: 6
#     Node 4, Type 0, BuildingBlock: MAKGUD_clean_sbu_1, # of connection points: 6
#     Node 5, Type 0, BuildingBlock: MAKGUD_clean_sbu_1, # of connection points: 6
#     Node 6, Type 0, BuildingBlock: MAKGUD_clean_sbu_1, # of connection points: 6
#     Node 7, Type 0, BuildingBlock: MAKGUD_clean_sbu_1, # of connection points: 6
#     Node 8, Type 0, BuildingBlock: MAKGUD_clean_sbu_1, # of connection points: 6
#     Node 9, Type 0, BuildingBlock: MAKGUD_clean_sbu_1, # of connection points: 6
#     Node 10, Type 0, BuildingBlock: MAKGUD_clean_sbu_1, # of connection points: 6
#     Node 11, Type 0, BuildingBlock: MAKGUD_clean_sbu_1, # of connection points: 6
#     Edge 12, Type (0, 0), BuildingBlock: AJUNOK_clean_linker_0, # of connection points: 2
#     Edge 13, Type (0, 0), BuildingBlock: AJUNOK_clean_linker_0, # of connection points: 2
#     Edge 14, Type (0, 0), BuildingBlock: AJUNOK_clean_linker_0, # of connection points: 2
#     Edge 15, Type (0, 0), BuildingBlock: AJUNOK_clean_linker_0, # of connection points: 2
#     Edge 16, Type (0, 0), BuildingBlock: AJUNOK_clean_linker_0, # of connection points: 2
#     Edge 17, Type (0, 0), BuildingBlock: AJUNOK_clean_linker_0, # of connection points: 2
#     Edge 18, Type (0, 0), BuildingBlock: AJUNOK_clean_linker_0, # of connection points: 2
#     Edge 19, Type (0, 0), BuildingBlock: AJUNOK_clean_linker_0, # of connection points: 2
#     Edge 20, Type (0, 0), BuildingBlock: AJUNOK_clean_linker_0, # of connection points: 2
#     Edge 21, Type (0, 0), BuildingBlock: AJUNOK_clean_linker_0, # of connection points: 2
#     Edge 22, Type (0, 0), BuildingBlock: AJUNOK_clean_linker_0, # of connection points: 2
#     Edge 23, Type (0, 0), BuildingBlock: AJUNOK_clean_linker_0, # of connection points: 2
#     Edge 24, Type (0, 0), BuildingBlock: AJUNOK_clean_linker_0, # of connection points: 2
#     Edge 25, Type (0, 0), BuildingBlock: AJUNOK_clean_linker_0, # of connection points: 2
#     Edge 26, Type (0, 0), BuildingBlock: AJUNOK_clean_linker_0, # of connection points: 2
#     Edge 27, Type (0, 0), BuildingBlock: AJUNOK_clean_linker_0, # of connection points: 2
#     Edge 28, Type (0, 0), BuildingBlock: AJUNOK_clean_linker_0, # of connection points: 2
#     Edge 29, Type (0, 0), BuildingBlock: AJUNOK_clean_linker_0, # of connection points: 2
#     Edge 30, Type (0, 0), BuildingBlock: AJUNOK_clean_linker_0, # of connection points: 2
#     Edge 31, Type (0, 0), BuildingBlock: AJUNOK_clean_linker_0, # of connection points: 2
#     Edge 32, Type (0, 0), BuildingBlock: AJUNOK_clean_linker_0, # of connection points: 2
#     Edge 33, Type (0, 0), BuildingBlock: AJUNOK_clean_linker_0, # of connection points: 2
#     Edge 34, Type (0, 0), BuildingBlock: AJUNOK_clean_linker_0, # of connection points: 2
#     Edge 35, Type (0, 0), BuildingBlock: AJUNOK_clean_linker_0, # of connection points: 2
#     Edge 36, Type (0, 0), BuildingBlock: AJUNOK_clean_linker_0, # of connection points: 2
#     Edge 37, Type (0, 0), BuildingBlock: AJUNOK_clean_linker_0, # of connection points: 2
#     Edge 38, Type (0, 0), BuildingBlock: AJUNOK_clean_linker_0, # of connection points: 2
#     Edge 39, Type (0, 0), BuildingBlock: AJUNOK_clean_linker_0, # of connection points: 2
#     Edge 40, Type (0, 0), BuildingBlock: AJUNOK_clean_linker_0, # of connection points: 2
#     Edge 41, Type (0, 0), BuildingBlock: AJUNOK_clean_linker_0, # of connection points: 2
#     Edge 42, Type (0, 0), BuildingBlock: AJUNOK_clean_linker_0, # of connection points: 2
#     Edge 43, Type (0, 0), BuildingBlock: AJUNOK_clean_linker_0, # of connection points: 2
#     Edge 44, Type (0, 0), BuildingBlock: AJUNOK_clean_linker_0, # of connection points: 2
#     Edge 45, Type (0, 0), BuildingBlock: AJUNOK_clean_linker_0, # of connection points: 2
#     Edge 46, Type (0, 0), BuildingBlock: AJUNOK_clean_linker_0, # of connection points: 2
#     Edge 47, Type (0, 0), BuildingBlock: AJUNOK_clean_linker_0, # of connection points: 2
# Relax obj value: 0.051
# Max RMSD: 0.165
# Mean RMSD: 0.163
data_MOF--net-wkf--node1-MAKGUD_clean_sbu_1--edge1-AJUNOK_clean_linker_0
_symmetry_space_group_name_H-M    P1
_symmetry_Int_Tables_number       1
_symmetry_cell_setting            triclinic
loop_
_symmetry_equiv_pos_as_xyz
'x, y, z'
_cell_length_a     21.3943
_cell_length_b     21.495721
_cell_length_c     66.255235
_cell_angle_alpha  89.720894
_cell_angle_beta   90.084273
_cell_angle_gamma 120.15899
loop_
_atom_site_label
_atom_site_type_symbol
_atom_site_fract_x
_atom_site_fract_y
_atom_site_fract_z
_atom_type_partial_charge
O0 O 0.53762 0.13625 0.45249 0.0
Tb1 Tb 0.56961 0.13374 0.42119 0.0
C2 C 0.56614 0.17038 0.37644 0.0
O3 O 0.44826 0.9966 0.39779 0.0
Tb4 Tb 0.51117 1.01018 0.3708 0.0
C5 C 0.42035 0.95798 0.33968 0.0
O6 O 0.51675 1.01766 0.42566 0.0
O7 O 0.56373 0.94653 0.3735 0.0
C8 C 0.52389 0.87604 0.37204 0.0
O9 O 0.45324 0.84685 0.3718 0.0
O10 O 0.52673 0.14976 0.39294 0.0
O11 O 0.58014 0.1252 0.36703 0.0
O12 O 0.68719 0.19022 0.42277 0.0
C13 C 0.4613 0.97291 0.41461 0.0
C14 C 0.52929 0.19173 0.45033 0.0
O15 O 0.40191 0.94982 0.35854 0.0
O16 O 0.4903 0.99612 0.3383 0.0
C17 C 0.72462 0.25503 0.41481 0.0
O18 O 0.6908 0.27853 0.40329 0.0
O19 O 0.54303 0.21377 0.43175 0.0
O20 O 0.57846 0.44199 0.51214 0.0
Tb21 Tb 0.57097 0.4723 0.54288 0.0
C22 C 0.53371 0.38376 0.58351 0.0
O23 O 0.40739 0.44285 0.54972 0.0
Tb24 Tb 0.4472 0.46532 0.58021 0.0
C25 C 0.33875 0.44465 0.60412 0.0
O26 O 0.51265 0.52987 0.53687 0.0
O27 O 0.5283 0.5761 0.58741 0.0
C28 C 0.51886 0.62836 0.58036 0.0
O29 O 0.47286 0.61384 0.56554 0.0
O30 O 0.58573 0.43134 0.57179 0.0
O31 O 0.47048 0.37954 0.58494 0.0
O32 O 0.68679 0.53846 0.53821 0.0
C33 C 0.44152 0.4932 0.53625 0.0
C34 C 0.53212 0.37396 0.51415 0.0
O35 O 0.35093 0.47263 0.58614 0.0
O36 O 0.38656 0.42624 0.6084 0.0
C37 C 0.72478 0.50557 0.53823 0.0
O38 O 0.69154 0.43676 0.54287 0.0
O39 O 0.50672 0.36055 0.53252 0.0
O40 O 1.01316 0.36498 0.77005 0.0
Tb41 Tb 1.02594 0.44081 0.7458 0.0
C42 C 0.98669 0.4149 0.70185 0.0
O43 O 0.20044 0.5073 0.72679 0.0
Tb44 Tb 0.14469 0.52687 0.70202 0.0
C45 C 0.18496 0.48766 0.66873 0.0
O46 O 0.13764 0.50505 0.7555 0.0
O47 O 0.20519 0.64365 0.70096 0.0
C48 C 0.27634 0.67678 0.7004 0.0
O49 O 0.30856 0.63958 0.70409 0.0
O50 O 1.00243 0.38624 0.71702 0.0
O51 O 1.02925 0.48363 0.69831 0.0
O52 O 0.99158 0.51897 0.75121 0.0
C53 C 0.19542 0.51122 0.74655 0.0
C54 C 0.9439 0.3389 0.77235 0.0
O55 O 0.16294 0.44982 0.68526 0.0
O56 O 0.18411 0.54708 0.67104 0.0
C57 C 0.92993 0.50867 0.74385 0.0
O58 O 0.90093 0.46493 0.72851 0.0
O59 O 0.9219 0.36982 0.75968 0.0
O60 O 0.69191 0.15958 0.83928 0.0
Tb61 Tb 0.67169 0.11433 0.86971 0.0
C62 C 0.73653 0.16034 0.91408 0.0
O63 O 0.66502 0.97764 0.8873 0.0
Tb64 Tb 0.62827 0.99455 0.91617 0.0
C65 C 0.67127 0.92675 0.94134 0.0
O66 O 0.59957 1.00017 0.86514 0.0
O67 O 0.51259 0.94101 0.92317 0.0
C68 C 0.46811 0.87625 0.91595 0.0
O69 O 0.49018 0.85268 0.90087 0.0
O70 O 0.74839 0.15804 0.89466 0.0
O71 O 0.67802 0.10933 0.9231 0.0
O72 O 0.61544 0.17452 0.87164 0.0
C73 C 0.62068 0.95664 0.87197 0.0
C74 C 0.75447 0.16459 0.83686 0.0
O75 O 0.62917 0.89847 0.92595 0.0
O76 O 0.68997 0.99427 0.94262 0.0
C77 C 0.65381 0.24521 0.87074 0.0
O78 O 0.72429 0.27645 0.87285 0.0
O79 O 0.77002 0.14 0.85288 0.0
O80 O 0.72677 0.60265 0.11391 0.0
Tb81 Tb 0.70935 0.63469 0.08434 0.0
C82 C 0.7543 0.62615 0.04156 0.0
O83 O 0.66081 0.74402 0.06196 0.0
Tb84 Tb 0.63714 0.66583 0.03828 0.0
C85 C 0.67299 0.74653 1.00518 0.0
O86 O 0.63431 0.67298 0.08997 0.0
O87 O 0.51981 0.6037 0.03994 0.0
C88 C 0.48279 0.63714 0.03779 0.0
O89 O 0.51838 0.70784 0.03736 0.0
O90 O 0.77744 0.66745 0.05753 0.0
O91 O 0.68691 0.59983 0.03601 0.0
O92 O 0.66577 0.51986 0.08059 0.0
C93 C 0.64006 0.72997 0.08084 0.0
C94 C 0.79193 0.656 0.11648 0.0
O95 O 0.7088 0.76507 0.02199 0.0
O96 O 0.61759 0.68203 1.00691 0.0
C97 C 0.7156 0.50139 0.07889 0.0
O98 O 0.78345 0.55304 0.0778 0.0
O99 O 0.80997 0.69998 0.10116 0.0
O100 O 0.97397 0.56539 0.17744 0.0
Tb101 Tb 1.04866 0.60208 0.20279 0.0
C102 C 1.00535 0.61822 0.24731 0.0
O103 O 0.18489 0.72288 0.22135 0.0
Tb104 Tb 0.16966 0.66807 0.25012 0.0
C105 C 0.23542 0.77553 0.27637 0.0
O106 O 0.16211 0.64404 0.19645 0.0
O107 O 0.2252 0.60721 0.2547 0.0
C108 C 0.29172 0.63312 0.24793 0.0
O109 O 0.31695 0.68593 0.23471 0.0
O110 O 1.01223 0.63903 0.22834 0.0
O111 O 1.05321 0.60553 0.2561 0.0
O112 O 0.99831 0.48564 0.20467 0.0
C113 C 0.20797 0.70324 0.20568 0.0
C114 C 0.98632 0.62815 0.17158 0.0
O115 O 0.25744 0.77459 0.25825 0.0
O116 O 0.17535 0.71581 0.27972 0.0
C117 C 0.92834 0.44695 0.20821 0.0
O118 O 0.89472 0.48006 0.21469 0.0
O119 O 1.03596 0.6772 0.18294 0.0
O120 O 1.03481 0.68784 0.42391 0.0
Tb121 Tb 1.04908 0.65759 0.45442 0.0
C122 C 1.00305 0.6207 0.49792 0.0
O123 O 0.21752 0.68797 0.46666 0.0
Tb124 Tb 0.15494 0.64246 0.49431 0.0
C125 C 0.20593 0.73327 0.5251 0.0
O126 O 0.15967 0.74406 0.45275 0.0
O127 O 0.2052 0.5771 0.4987 0.0
C128 C 0.27648 0.61142 0.49934 0.0
O129 O 0.31167 0.68116 0.49597 0.0
O130 O 1.02007 0.67159 0.48452 0.0
O131 O 1.03747 0.58422 0.4977 0.0
O132 O 1.01827 0.54617 0.44856 0.0
C133 C 0.21707 0.73775 0.45513 0.0
C134 C 0.97303 0.68369 0.42727 0.0
O135 O 0.19578 0.75032 0.50694 0.0
O136 O 0.1876 0.66586 0.52567 0.0
C137 C 0.95387 0.49552 0.45465 0.0
O138 O 0.9174 0.51309 0.46699 0.0
O139 O 0.95502 0.66626 0.44605 0.0
O140 O 0.49657 0.13293 0.69636 0.0
Tb141 Tb 0.54664 0.12451 0.66835 0.0
C142 C 0.53287 0.14072 0.62284 0.0
O143 O 0.43492 0.97897 0.64752 0.0
Tb144 Tb 0.47913 0.9799 0.6177 0.0
C145 C 0.372 0.91523 0.59105 0.0
O146 O 0.5024 1.0114 0.67598 0.0
O147 O 0.54152 0.92541 0.61451 0.0
C148 C 0.51484 0.86011 0.62214 0.0
O149 O 0.45877 0.83604 0.63424 0.0
O150 O 0.49516 0.11449 0.63939 0.0
O151 O 0.53955 0.09546 0.61096 0.0
O152 O 0.66365 0.17424 0.6699 0.0
C153 C 0.45511 0.96025 0.66414 0.0
C154 C 0.50949 0.19813 0.69304 0.0
O155 O 0.37347 0.89077 0.6089 0.0
O156 O 0.4306 0.97678 0.58834 0.0
C157 C 0.70475 0.24147 0.66393 0.0
O158 O 0.67431 0.27293 0.65431 0.0
O159 O 0.54284 0.22091 0.67593 0.0
O160 O 0.55242 0.44976 0.75507 0.0
Tb161 Tb 0.5394 0.46713 0.78678 0.0
C162 C 0.5576 0.42198 0.82973 0.0
O163 O 0.41995 0.49819 0.81257 0.0
Tb164 Tb 0.50108 0.52429 0.83586 0.0
C165 C 0.42291 0.47531 0.86947 0.0
O166 O 0.49169 0.53569 0.78449 0.0
O167 O 0.55393 0.64089 0.83615 0.0
C168 C 0.51459 0.67201 0.83771 0.0
O169 O 0.444 0.63221 0.83609 0.0
O170 O 0.52043 0.39805 0.81298 0.0
O171 O 0.57863 0.48749 0.83575 0.0
O172 O 0.65699 0.52412 0.78523 0.0
C173 C 0.43171 0.52125 0.79382 0.0
C174 C 0.50115 0.38305 0.75434 0.0
O175 O 0.40751 0.4417 0.85235 0.0
O176 O 0.48311 0.5361 0.86774 0.0
C177 C 0.69076 0.48788 0.78831 0.0
O178 O 0.65371 0.42167 0.79519 0.0
O179 O 0.47024 0.36367 0.77193 0.0
O180 O 0.99949 0.42394 0.03168 0.0
Tb181 Tb 1.03519 0.46413 1.00111 0.0
C182 C 0.98103 0.38183 0.95986 0.0
O183 O 0.17787 0.44905 0.99097 0.0
Tb184 Tb 0.15256 0.46654 0.96057 0.0
C185 C 0.23035 0.4383 0.93476 0.0
O186 O 0.15218 0.52908 1.00502 0.0
O187 O 0.18824 0.57948 0.95384 0.0
C188 C 0.25345 0.62862 0.95995 0.0
O189 O 0.28798 0.60846 0.97233 0.0
O190 O 0.97721 0.42722 0.97244 0.0
O191 O 1.04116 0.38062 0.95673 0.0
O192 O 0.9877 0.53022 1.00816 0.0
C193 C 0.19204 0.49842 1.00453 0.0
C194 C 0.98131 0.35757 0.02821 0.0
O195 O 0.24985 0.46225 0.95299 0.0
O196 O 0.16676 0.42955 0.93122 0.0
C197 C 0.91683 0.49999 1.00797 0.0
O198 O 0.87825 0.43249 1.00237 0.0
O199 O 0.99345 0.35065 1.00933 0.0
O200 O 0.73787 0.13733 0.08801 0.0
Tb201 Tb 0.71536 0.12072 0.12041 0.0
C202 C 0.75198 0.18118 0.16393 0.0
O203 O 0.66529 0.96249 0.14783 0.0
Tb204 Tb 0.6475 1.0218 0.1714 0.0
C205 C 0.69814 0.9974 0.20546 0.0
O206 O 0.6323 1.00765 0.12131 0.0
O207 O 0.53035 0.95804 0.17307 0.0
C208 C 0.49839 0.88737 0.17392 0.0
O209 O 0.53734 0.85648 0.17118 0.0
O210 O 0.77948 0.17161 0.14731 0.0
O211 O 0.68451 0.13583 0.16873 0.0
O212 O 0.67545 0.1946 0.11567 0.0
C213 C 0.64508 0.95871 0.12896 0.0
C214 C 0.80467 0.15245 0.08886 0.0
O215 O 0.7296 1.01004 0.18793 0.0
O216 O 0.63864 0.99931 0.20377 0.0
C217 C 0.72615 0.26035 0.11102 0.0
O218 O 0.79389 0.27652 0.11264 0.0
O219 O 0.82011 0.14655 0.10754 0.0
O220 O 0.71124 0.59442 0.36337 0.0
Tb221 Tb 0.68422 0.59766 0.33195 0.0
C222 C 0.78214 0.63781 0.29304 0.0
O223 O 0.70541 0.75661 0.32494 0.0
Tb224 Tb 0.69853 0.72389 0.29385 0.0
C225 C 0.73029 0.83577 0.2698 0.0
O226 O 0.61729 0.64706 0.33506 0.0
O227 O 0.58692 0.64659 0.28553 0.0
C228 C 0.53633 0.66082 0.29126 0.0
O229 O 0.55435 0.71458 0.30369 0.0
O230 O 0.73241 0.5852 0.30419 0.0
O231 O 0.7858 0.70051 0.29108 0.0
O232 O 0.62351 0.48277 0.33807 0.0
C233 C 0.65011 0.71746 0.33671 0.0
C234 C 0.77768 0.64655 0.36237 0.0
O235 O 0.70694 0.8282 0.28823 0.0
O236 O 0.73707 0.78088 0.26509 0.0
C237 C 0.66093 0.44949 0.33923 0.0
O238 O 0.73017 0.4859 0.33493 0.0
O239 O 0.79248 0.67171 0.34398 0.0
C240 C 0.25516 0.81862 0.31189 0.0
C241 C 0.27863 0.82964 0.29172 0.0
C242 C 0.3003 0.86309 0.32725 0.0
C243 C 0.37051 0.91964 0.32294 0.0
H244 H 0.20277 0.77364 0.31597 0.0
H245 H 0.28117 0.85095 0.34269 0.0
S246 S 0.45375 0.97675 0.27225 0.0
N247 N 0.37358 0.90569 0.26797 0.0
N248 N 0.45872 0.98873 0.29693 0.0
C249 C 0.39303 0.93379 0.30273 0.0
C250 C 0.3469 0.88886 0.28707 0.0
C251 C 0.5259 0.34291 0.47801 0.0
C252 C 0.5183 0.32094 0.49829 0.0
C253 C 0.52503 0.29857 0.46251 0.0
C254 C 0.51806 0.23125 0.46677 0.0
H255 H 0.5348 0.3958 0.47413 0.0
H256 H 0.53325 0.31878 0.44715 0.0
S257 S 0.49437 0.14823 0.51747 0.0
N258 N 0.50039 0.22662 0.52188 0.0
N259 N 0.50039 0.14337 0.49273 0.0
C260 C 0.50762 0.20739 0.48696 0.0
C261 C 0.50731 0.25229 0.50275 0.0
C262 C 0.23409 0.41706 0.65237 0.0
C263 C 0.21498 0.47066 0.65101 0.0
C264 C 0.27168 0.40669 0.63666 0.0
C265 C 0.28991 0.44859 0.61898 0.0
H266 H 0.22283 0.38506 0.66599 0.0
H267 H 0.28834 0.36704 0.63861 0.0
S268 S 0.24839 0.59317 0.60757 0.0
N269 N 0.21438 0.56415 0.63031 0.0
N270 N 0.28359 0.54359 0.60064 0.0
C271 C 0.26804 0.49999 0.61705 0.0
C272 C 0.23089 0.51134 0.63314 0.0
C273 C 0.82283 0.26532 0.78772 0.0
C274 C 0.89691 0.28773 0.78797 0.0
C275 C 0.7769 0.22307 0.80327 0.0
C276 C 0.80316 0.20144 0.81968 0.0
H277 H 0.80023 0.28215 0.77567 0.0
H278 H 0.72065 0.20891 0.80266 0.0
S279 S 0.99231 0.24323 0.82715 0.0
N280 N 0.99428 0.28324 0.80561 0.0
N281 N 0.90752 0.20319 0.83499 0.0
C282 C 0.87665 0.22123 0.81983 0.0
C283 C 0.92369 0.2646 0.80393 0.0
C284 C 0.64946 0.80935 0.95423 0.0
C285 C 0.68397 0.8844 0.95657 0.0
C286 C 0.64949 0.76528 0.96976 0.0
C287 C 0.68489 0.79483 0.98804 0.0
H288 H 0.61917 0.78393 0.94066 0.0
H289 H 0.61933 0.70749 0.96769 0.0
S290 S 0.78933 0.98868 1.00099 0.0
N291 N 0.75884 0.98697 0.97796 0.0
N292 N 0.75999 0.90389 1.00719 0.0
C293 C 0.72362 0.87009 0.99014 0.0
C294 C 0.72288 0.91506 0.97436 0.0
C295 C 0.87233 0.57952 0.15244 0.0
C296 C 0.94002 0.63886 0.1572 0.0
C297 C 0.82417 0.58694 0.13987 0.0
C298 C 0.84232 0.65372 0.13119 0.0
H299 H 0.85573 0.52676 0.15869 0.0
H300 H 0.77286 0.53925 0.13656 0.0
S301 S 1.01326 0.82585 0.13871 0.0
N302 N 1.02289 0.76702 0.15255 0.0
N303 N 0.9327 0.78045 0.12807 0.0
C304 C 0.91001 0.71365 0.13566 0.0
C305 C 0.95881 0.70635 0.1489 0.0
C306 C 0.27778 0.79759 0.57751 0.0
C307 C 0.32074 0.87242 0.57498 0.0
C308 C 0.23832 0.75344 0.56139 0.0
C309 C 0.23952 0.78257 0.54225 0.0
H310 H 0.27749 0.77239 0.59174 0.0
H311 H 0.20856 0.69574 0.56382 0.0
S312 S 0.33543 0.97599 0.52854 0.0
N313 N 0.357 0.97457 0.55243 0.0
N314 N 0.28128 0.89121 0.52216 0.0
C315 C 0.2782 0.85763 0.53986 0.0
C316 C 0.31929 0.90271 0.55624 0.0
C317 C 0.46552 0.21545 0.72635 0.0
C318 C 0.49718 0.24319 0.70742 0.0
C319 C 0.46231 0.26028 0.74117 0.0
C320 C 0.49132 0.33427 0.73753 0.0
H321 H 0.4456 0.15942 0.73004 0.0
H322 H 0.44061 0.23759 0.75589 0.0
S323 S 0.57197 0.43154 0.68964 0.0
N324 N 0.55169 0.34794 0.68522 0.0
N325 N 0.54636 0.43192 0.71311 0.0
C326 C 0.51925 0.3617 0.7183 0.0
C327 C 0.522 0.31616 0.70321 0.0
C328 C 0.35372 0.47784 0.92168 0.0
C329 C 0.27839 0.43621 0.91923 0.0
C330 C 0.40063 0.48767 0.90568 0.0
C331 C 0.37374 0.45487 0.88691 0.0
H332 H 0.37651 0.50635 0.93565 0.0
H333 H 0.45817 0.52311 0.90783 0.0
S334 S 0.18106 0.33471 0.87353 0.0
N335 N 0.17913 0.35807 0.89713 0.0
N336 N 0.26738 0.37482 0.86722 0.0
C337 C 0.29876 0.40935 0.8847 0.0
C338 C 0.25097 0.40048 0.90085 0.0
C339 C 0.83979 0.18374 0.05265 0.0
C340 C 0.85838 0.19604 0.07322 0.0
C341 C 0.88319 0.23388 0.03778 0.0
C342 C 0.94495 0.29898 0.04316 0.0
H343 H 0.78987 0.13651 0.04811 0.0
H344 H 0.86559 0.22389 0.02219 0.0
S345 S 1.01829 0.35581 0.09472 0.0
N346 N 0.9452 0.27623 0.09796 0.0
N347 N 1.02434 0.37169 0.07019 0.0
C348 C 0.96536 0.31068 0.06354 0.0
C349 C 0.92269 0.25879 0.07855 0.0
C350 C 0.76721 0.89666 0.23633 0.0
C351 C 0.73358 0.88908 0.25511 0.0
C352 C 0.75999 0.93674 0.2207 0.0
C353 C 0.71763 0.96924 0.22323 0.0
H354 H 0.79687 0.869 0.23341 0.0
H355 H 0.78406 0.93845 0.20618 0.0
S356 S 0.62493 0.97194 0.27017 0.0
N357 N 0.66227 0.92313 0.276 0.0
N358 N 0.64702 0.99681 0.2464 0.0
C359 C 0.68722 0.96559 0.24228 0.0
C360 C 0.69568 0.9259 0.25831 0.0
C361 C 0.95045 0.70425 0.39149 0.0
C362 C 0.92511 0.68511 0.41144 0.0
C363 C 0.90315 0.69588 0.37566 0.0
C364 C 0.82896 0.66705 0.3793 0.0
H365 H 1.00669 0.72344 0.38796 0.0
H366 H 0.92411 0.70848 0.3604 0.0
S367 S 0.7367 0.61483 0.42902 0.0
N368 N 0.82206 0.64159 0.43412 0.0
N369 N 0.7332 0.62458 0.40438 0.0
C370 C 0.80366 0.65096 0.39928 0.0
C371 C 0.85179 0.66038 0.41538 0.0
C372 C 0.65986 0.82915 0.35115 0.0
C373 C 0.61883 0.75407 0.34848 0.0
C374 C 0.62999 0.86749 0.35994 0.0
C375 C 0.55749 0.83256 0.36632 0.0
H376 H 0.71524 0.85922 0.34586 0.0
H377 H 0.66332 0.92547 0.36085 0.0
S378 S 0.42907 0.63547 0.36507 0.0
N379 N 0.50367 0.64525 0.35471 0.0
N380 N 0.44717 0.71728 0.37113 0.0
C381 C 0.51691 0.75692 0.36483 0.0
C382 C 0.54763 0.71771 0.35597 0.0
C383 C 0.8372 0.50218 0.52989 0.0
C384 C 0.7999 0.54076 0.53023 0.0
C385 C 0.90414 0.52951 0.52013 0.0
C386 C 0.93655 0.59651 0.51022 0.0
H387 H 0.81362 0.44922 0.53671 0.0
H388 H 0.92928 0.49659 0.51976 0.0
S389 S 0.86532 0.72267 0.50849 0.0
N390 N 0.80345 0.6522 0.52112 0.0
N391 N 0.92909 0.70382 0.50287 0.0
C392 C 0.90165 0.63737 0.51132 0.0
C393 C 0.83349 0.6095 0.5213 0.0
C394 C 0.43526 0.86233 0.6885 0.0
C395 C 0.40837 0.88747 0.673 0.0
C396 C 0.39177 0.79474 0.69758 0.0
C397 C 0.31914 0.75038 0.69187 0.0
H398 H 0.4907 0.89482 0.69352 0.0
H399 H 0.41524 0.77705 0.70916 0.0
S400 S 0.22239 0.78994 0.65185 0.0
N401 N 0.30418 0.86148 0.65216 0.0
N402 N 0.22261 0.73545 0.66944 0.0
C403 C 0.29133 0.77487 0.6765 0.0
C404 C 0.33591 0.84305 0.66698 0.0
C405 C 0.63822 0.40618 0.85412 0.0
C406 C 0.57686 0.37528 0.8416 0.0
C407 C 0.6607 0.36334 0.86429 0.0
C408 C 0.62201 0.28781 0.86264 0.0
H409 H 0.67079 0.4641 0.85552 0.0
H410 H 0.70995 0.38986 0.87309 0.0
S411 S 0.45361 0.18003 0.83315 0.0
N412 N 0.47512 0.26431 0.82909 0.0
N413 N 0.51653 0.18381 0.84838 0.0
C414 C 0.55849 0.25606 0.85093 0.0
C415 C 0.53626 0.29978 0.84034 0.0
C416 C 0.29643 0.60146 0.02216 0.0
C417 C 0.26169 0.52956 1.01565 0.0
C418 C 0.36664 0.63471 0.03019 0.0
C419 C 0.40471 0.59722 0.03228 0.0
H420 H 0.2707 0.63347 0.02017 0.0
H421 H 0.39207 0.69107 0.03416 0.0
S422 S 0.33374 0.40483 0.01992 0.0
N423 N 0.26783 0.41985 1.01357 0.0
N424 N 0.39912 0.48185 0.02881 0.0
C425 C 0.3687 0.52394 0.02698 0.0
C426 C 0.29748 0.49032 1.01862 0.0
C427 C 0.91446 0.35263 0.1836 0.0
C428 C 0.88544 0.37369 0.19945 0.0
C429 C 0.87123 0.28985 0.1725 0.0
C430 C 0.79721 0.24491 0.17688 0.0
H431 H 0.97029 0.38654 0.17905 0.0
H432 H 0.89599 0.27743 0.16009 0.0
S433 S 0.69674 0.27191 0.21842 0.0
N434 N 0.77936 0.3418 0.21997 0.0
N435 N 0.6983 0.2235 0.19937 0.0
C436 C 0.76839 0.26345 0.19339 0.0
C437 C 0.81239 0.32779 0.20459 0.0
C438 C 0.39345 0.61627 0.50721 0.0
C439 C 0.31725 0.576 0.50629 0.0
C440 C 0.43367 0.58805 0.51602 0.0
C441 C 0.39937 0.51847 0.52439 0.0
H442 H 0.42254 0.67112 0.50164 0.0
H443 H 0.49181 0.62224 0.51701 0.0
S444 S 0.20192 0.38733 0.52365 0.0
N445 N 0.20975 0.46035 0.51291 0.0
N446 N 0.28499 0.40713 0.52939 0.0
C447 C 0.32353 0.47609 0.52255 0.0
C448 C 0.28259 0.50483 0.51353 0.0
C449 C 0.80665 0.25532 0.68581 0.0
C450 C 0.78051 0.2848 0.67135 0.0
C451 C 0.87381 0.29749 0.69519 0.0
C452 C 0.91815 0.37106 0.69049 0.0
H453 H 0.77403 0.19964 0.69048 0.0
H454 H 0.89027 0.27221 0.70654 0.0
S455 S 0.87815 0.47325 0.65231 0.0
N456 N 0.80683 0.39146 0.65178 0.0
N457 N 0.93299 0.47047 0.66937 0.0
C458 C 0.8942 0.40063 0.67544 0.0
C459 C 0.82555 0.35763 0.66589 0.0
C460 C 0.53513 0.85389 0.85008 0.0
C461 C 0.59787 0.88659 0.86205 0.0
C462 C 0.50989 0.78545 0.8417 0.0
C463 C 0.54717 0.74764 0.84462 0.0
H464 H 0.50392 0.8803 0.84766 0.0
H465 H 0.46006 0.76149 0.83312 0.0
S466 S 0.71672 0.81137 0.87382 0.0
N467 N 0.69828 0.877 0.87578 0.0
N468 N 0.65165 0.74935 0.85978 0.0
C469 C 0.61146 0.78091 0.85595 0.0
C470 C 0.63651 0.85003 0.86475 0.0
C471 C 0.76732 0.54134 1.01857 0.0
C472 C 0.79945 0.59966 0.03202 0.0
C473 C 0.80643 0.51106 1.0105 0.0
C474 C 0.87965 0.53815 1.01534 0.0
H475 H 0.71076 0.51733 1.01459 0.0
H476 H 0.77849 0.46516 1.0006 0.0
S477 S 0.99063 0.69234 0.0491 0.0
N478 N 0.9101 0.68518 0.04925 0.0
N479 N 0.98361 0.62827 0.03399 0.0
C480 C 0.91333 0.5979 0.02825 0.0
C481 C 0.87326 0.62857 0.03661 0.0
C482 C 0.38202 0.76984 0.17577 0.0
C483 C 0.42223 0.84335 0.18071 0.0
C484 C 0.31216 0.72535 0.18352 0.0
C485 C 0.28038 0.75229 0.19685 0.0
H486 H 0.40496 0.74625 0.16598 0.0
H487 H 0.28366 0.66899 0.17943 0.0
S488 S 0.36298 0.94121 0.21451 0.0
N489 N 0.42466 0.94134 0.19955 0.0
N490 N 0.29431 0.85786 0.21436 0.0
C491 C 0.3198 0.82594 0.20177 0.0
C492 C 0.3904 0.87144 0.19361 0.0
C493 C 0.66128 0.33423 0.34227 0.0
C494 C 0.62998 0.37584 0.34758 0.0
C495 C 0.63937 0.2676 0.35147 0.0
C496 C 0.58607 0.24027 0.36664 0.0
H497 H 0.70387 0.35373 0.33105 0.0
H498 H 0.66577 0.2381 0.34694 0.0
S499 S 0.48725 0.32866 0.3861 0.0
N500 N 0.54245 0.38498 0.36881 0.0
N501 N 0.50174 0.2601 0.38639 0.0
C502 C 0.55376 0.28112 0.37199 0.0
C503 C 0.57544 0.34869 0.36236 0.0
C504 C 0.34864 0.83026 0.45404 0.0
C505 C 0.28266 0.78871 0.44396 0.0
C506 C 0.40763 0.88802 0.44421 0.0
C507 C 0.40257 0.90563 0.42394 0.0
H508 H 0.35343 0.8206 0.46988 0.0
H509 H 0.45638 0.92069 0.45282 0.0
S510 S 0.24393 0.80404 0.39026 0.0
N511 N 0.21749 0.76307 0.41233 0.0
N512 N 0.32786 0.86974 0.39364 0.0
C513 C 0.33806 0.8605 0.41342 0.0
C514 C 0.27816 0.8026 0.4235 0.0
C515 C 0.58185 0.29854 0.58686 0.0
C516 C 0.54398 0.33031 0.59512 0.0
C517 C 0.58056 0.23891 0.59628 0.0
C518 C 0.54187 0.20935 0.61436 0.0
H519 H 0.60951 0.3174 0.57253 0.0
H520 H 0.60816 0.21445 0.589 0.0
S521 S 0.43963 0.27846 0.64295 0.0
N522 N 0.47207 0.33213 0.62315 0.0
N523 N 0.46815 0.22044 0.6406 0.0
C524 C 0.50698 0.24352 0.62321 0.0
C525 C 0.50839 0.30381 0.61364 0.0
C526 C 0.37875 0.53544 0.76139 0.0
C527 C 0.37312 0.52445 0.78243 0.0
C528 C 0.32193 0.53282 0.75008 0.0
C529 C 0.25684 0.51935 0.75926 0.0
H530 H 0.42681 0.5445 0.75343 0.0
H531 H 0.32897 0.54036 0.73389 0.0
S532 S 0.21597 0.49121 0.8142 0.0
N533 N 0.29807 0.50299 0.81219 0.0
N534 N 0.19164 0.49784 0.79101 0.0
C535 C 0.25133 0.51053 0.78042 0.0
C536 C 0.30922 0.51308 0.79195 0.0
C537 C 0.86491 0.26096 0.91737 0.0
C538 C 0.79584 0.21924 0.92617 0.0
C539 C 0.92353 0.31414 0.92828 0.0
C540 C 0.91585 0.32948 0.94841 0.0
H541 H 0.87474 0.25156 0.90196 0.0
H542 H 0.97569 0.34328 0.92087 0.0
S543 S 0.74747 0.23777 0.97877 0.0
N544 N 0.72369 0.19812 0.95653 0.0
N545 N 0.83399 0.29917 0.97685 0.0
C546 C 0.84713 0.28977 0.95738 0.0
C547 C 0.78725 0.23443 0.94634 0.0
C548 C 0.63586 0.83834 0.12548 0.0
C549 C 0.6372 0.89827 0.1163 0.0
C550 C 0.63387 0.78284 0.11395 0.0
C551 C 0.63378 0.78514 0.09272 0.0
H552 H 0.63746 0.83457 0.14176 0.0
H553 H 0.6347 0.73895 0.12181 0.0
S554 S 0.63256 0.92814 0.06118 0.0
N555 N 0.63493 0.95486 0.08462 0.0
N556 N 0.63117 0.85086 0.06296 0.0
C557 C 0.63266 0.84363 0.08333 0.0
C558 C 0.63435 0.90002 0.09509 0.0
C559 C 0.85741 0.65825 0.26233 0.0
C560 C 0.83565 0.627 0.28158 0.0
C561 C 0.91096 0.65362 0.25141 0.0
C562 C 0.94656 0.61868 0.25937 0.0
H563 H 0.83287 0.68686 0.25558 0.0
H564 H 0.9254 0.67922 0.2367 0.0
S565 S 0.90985 0.52822 0.30939 0.0
N566 N 0.85348 0.55955 0.30824 0.0
N567 N 0.95502 0.55142 0.28786 0.0
C568 C 0.92503 0.5867 0.27862 0.0
C569 C 0.86938 0.5906 0.28965 0.0
C570 C 0.86729 0.36365 0.45365 0.0
C571 C 0.91253 0.42799 0.4432 0.0
C572 C 0.81085 0.30421 0.44377 0.0
C573 C 0.79622 0.30802 0.42321 0.0
H574 H 0.87254 0.3609 0.46986 0.0
H575 H 0.77462 0.25759 0.45274 0.0
S576 S 0.9028 0.46231 0.38872 0.0
N577 N 0.94308 0.48978 0.41082 0.0
N578 N 0.83574 0.37921 0.39236 0.0
C579 C 0.84422 0.37032 0.41231 0.0
C580 C 0.90271 0.43011 0.42228 0.0
C581 C 0.55858 0.8161 0.59336 0.0
C582 C 0.53397 0.80792 0.61344 0.0
C583 C 0.55941 0.75929 0.58311 0.0
C584 C 0.53785 0.69295 0.5927 0.0
H585 H 0.57194 0.86459 0.58496 0.0
H586 H 0.57318 0.76593 0.56721 0.0
S587 S 0.47512 0.64597 0.64567 0.0
N588 N 0.49216 0.72948 0.64293 0.0
N589 N 0.49551 0.62395 0.62382 0.0
C590 C 0.51841 0.68597 0.6132 0.0
C591 C 0.51608 0.74314 0.62352 0.0
C592 C 0.77578 0.53745 0.75908 0.0
C593 C 0.76232 0.51176 0.7791 0.0
C594 C 0.83378 0.54144 0.74802 0.0
C595 C 0.88164 0.52224 0.75682 0.0
H596 H 0.73791 0.54882 0.75137 0.0
H597 H 0.83901 0.55608 0.73218 0.0
S598 S 0.8733 0.45794 0.80941 0.0
N599 N 0.8035 0.47064 0.8076 0.0
N600 N 0.91437 0.48154 0.78728 0.0
C601 C 0.87186 0.50186 0.77732 0.0
C602 C 0.81166 0.49573 0.78835 0.0
C603 C 0.34529 0.76486 0.91774 0.0
C604 C 0.40356 0.82296 0.9277 0.0
C605 C 0.29194 0.70478 0.92849 0.0
C606 C 0.29583 0.69962 0.94959 0.0
H607 H 0.34294 0.76411 0.9014 0.0
H608 H 0.25084 0.6597 0.92003 0.0
S609 S 0.4341 0.83877 0.98307 0.0
N610 N 0.45829 0.87332 0.96016 0.0
N611 N 0.3598 0.76003 0.98017 0.0
C612 C 0.35137 0.75905 0.95981 0.0
C613 C 0.40472 0.82078 0.94894 0.0
C614 C 0.66024 0.32932 0.10767 0.0
C615 C 0.71 0.31065 0.10013 0.0
C616 C 0.65608 0.38757 0.0993 0.0
C617 C 0.70123 0.42792 0.08312 0.0
H618 H 0.62828 0.30228 0.12092 0.0
H619 H 0.62184 0.40458 0.10655 0.0
S620 S 0.82959 0.39069 0.0556 0.0
N621 N 0.79704 0.32982 0.07381 0.0
N622 N 0.7891 0.4384 0.05818 0.0
C623 C 0.74587 0.40499 0.07436 0.0
C624 C 0.75038 0.34654 0.08287 0.0
C625 C 0.46477 0.63109 0.25926 0.0
C626 C 0.46629 0.63155 0.28049 0.0
C627 C 0.40518 0.62584 0.24865 0.0
C628 C 0.34424 0.61899 0.25887 0.0
H629 H 0.5123 0.64118 0.2508 0.0
H630 H 0.40859 0.63133 0.23237 0.0
S631 S 0.31875 0.60941 0.31443 0.0
N632 N 0.39979 0.61922 0.3113 0.0
N633 N 0.28718 0.60683 0.2915 0.0
C634 C 0.34281 0.61324 0.28006 0.0
C635 C 0.40404 0.62023 0.29082 0.0
loop_
_geom_bond_atom_site_label_1
_geom_bond_atom_site_label_2
_geom_bond_distance
_geom_bond_site_symmetry_2
_ccdc_geom_bond_type
O0 Tb1 2.506 . S
O0 C14 1.265 . S
Tb1 O0 2.506 . S
Tb1 O6 2.312 1_545 S
Tb1 O10 2.271 . S
Tb1 O12 2.338 . S
Tb1 O19 2.441 . S
C2 O10 1.252 . S
C2 O11 1.253 . S
O3 Tb4 2.271 . S
O3 C13 1.252 . S
Tb4 O3 2.271 . S
Tb4 O7 2.338 . S
Tb4 O11 2.312 1_565 S
Tb4 O15 2.441 . S
Tb4 O16 2.506 . S
C5 O15 1.244 . S
C5 O16 1.265 . S
O6 Tb1 2.312 1_565 S
O6 C13 1.253 . S
O7 Tb4 2.338 . S
O7 C8 1.258 . S
C8 O7 1.258 . S
C8 O9 1.251 . S
O9 C8 1.251 . S
O10 Tb1 2.271 . S
O10 C2 1.252 . S
O11 C2 1.253 . S
O11 Tb4 2.312 1_545 S
O12 Tb1 2.338 . S
O12 C17 1.258 . S
C13 O3 1.252 . S
C13 O6 1.253 . S
C14 O0 1.265 . S
C14 O19 1.244 . S
O15 Tb4 2.441 . S
O15 C5 1.244 . S
O16 Tb4 2.506 . S
O16 C5 1.265 . S
C17 O12 1.258 . S
C17 O18 1.251 . S
O18 C17 1.251 . S
O19 Tb1 2.441 . S
O19 C14 1.244 . S
O20 Tb21 2.506 . S
O20 C34 1.265 . S
Tb21 O20 2.506 . S
Tb21 O26 2.312 . S
Tb21 O30 2.271 . S
Tb21 O32 2.338 . S
Tb21 O39 2.441 . S
C22 O30 1.252 . S
C22 O31 1.253 . S
O23 Tb24 2.271 . S
O23 C33 1.252 . S
Tb24 O23 2.271 . S
Tb24 O27 2.338 . S
Tb24 O31 2.312 . S
Tb24 O35 2.441 . S
Tb24 O36 2.506 . S
C25 O35 1.244 . S
C25 O36 1.265 . S
O26 Tb21 2.312 . S
O26 C33 1.253 . S
O27 Tb24 2.338 . S
O27 C28 1.258 . S
C28 O27 1.258 . S
C28 O29 1.251 . S
O29 C28 1.251 . S
O30 Tb21 2.271 . S
O30 C22 1.252 . S
O31 C22 1.253 . S
O31 Tb24 2.312 . S
O32 Tb21 2.338 . S
O32 C37 1.258 . S
C33 O23 1.252 . S
C33 O26 1.253 . S
C34 O20 1.265 . S
C34 O39 1.244 . S
O35 Tb24 2.441 . S
O35 C25 1.244 . S
O36 Tb24 2.506 . S
O36 C25 1.265 . S
C37 O32 1.258 . S
C37 O38 1.251 . S
O38 C37 1.251 . S
O39 Tb21 2.441 . S
O39 C34 1.244 . S
O40 Tb41 2.506 . S
O40 C54 1.265 . S
Tb41 O40 2.506 . S
Tb41 O46 2.312 1_655 S
Tb41 O50 2.271 . S
Tb41 O52 2.338 . S
Tb41 O59 2.441 . S
C42 O50 1.252 . S
C42 O51 1.253 . S
O43 Tb44 2.271 . S
O43 C53 1.252 . S
Tb44 O43 2.271 . S
Tb44 O47 2.338 . S
Tb44 O51 2.312 1_455 S
Tb44 O55 2.441 . S
Tb44 O56 2.506 . S
C45 O55 1.244 . S
C45 O56 1.265 . S
O46 Tb41 2.312 1_455 S
O46 C53 1.253 . S
O47 Tb44 2.338 . S
O47 C48 1.258 . S
C48 O47 1.258 . S
C48 O49 1.251 . S
O49 C48 1.251 . S
O50 Tb41 2.271 . S
O50 C42 1.252 . S
O51 C42 1.253 . S
O51 Tb44 2.312 1_655 S
O52 Tb41 2.338 . S
O52 C57 1.258 . S
C53 O43 1.252 . S
C53 O46 1.253 . S
C54 O40 1.265 . S
C54 O59 1.244 . S
O55 Tb44 2.441 . S
O55 C45 1.244 . S
O56 Tb44 2.506 . S
O56 C45 1.265 . S
C57 O52 1.258 . S
C57 O58 1.251 . S
O58 C57 1.251 . S
O59 Tb41 2.441 . S
O59 C54 1.244 . S
O60 Tb61 2.506 . S
O60 C74 1.265 . S
Tb61 O60 2.506 . S
Tb61 O66 2.312 1_545 S
Tb61 O70 2.271 . S
Tb61 O72 2.338 . S
Tb61 O79 2.441 . S
C62 O70 1.252 . S
C62 O71 1.253 . S
O63 Tb64 2.271 . S
O63 C73 1.252 . S
Tb64 O63 2.271 . S
Tb64 O67 2.338 . S
Tb64 O71 2.312 1_565 S
Tb64 O75 2.441 . S
Tb64 O76 2.506 . S
C65 O75 1.244 . S
C65 O76 1.265 . S
O66 Tb61 2.312 1_565 S
O66 C73 1.253 . S
O67 Tb64 2.338 . S
O67 C68 1.258 . S
C68 O67 1.258 . S
C68 O69 1.251 . S
O69 C68 1.251 . S
O70 Tb61 2.271 . S
O70 C62 1.252 . S
O71 C62 1.253 . S
O71 Tb64 2.312 1_545 S
O72 Tb61 2.338 . S
O72 C77 1.258 . S
C73 O63 1.252 . S
C73 O66 1.253 . S
C74 O60 1.265 . S
C74 O79 1.244 . S
O75 Tb64 2.441 . S
O75 C65 1.244 . S
O76 Tb64 2.506 . S
O76 C65 1.265 . S
C77 O72 1.258 . S
C77 O78 1.251 . S
O78 C77 1.251 . S
O79 Tb61 2.441 . S
O79 C74 1.244 . S
O80 Tb81 2.506 . S
O80 C94 1.265 . S
Tb81 O80 2.506 . S
Tb81 O86 2.312 . S
Tb81 O90 2.271 . S
Tb81 O92 2.338 . S
Tb81 O99 2.441 . S
C82 O90 1.252 . S
C82 O91 1.253 . S
O83 Tb84 2.271 . S
O83 C93 1.252 . S
Tb84 O83 2.271 . S
Tb84 O87 2.338 . S
Tb84 O91 2.312 . S
Tb84 O95 2.441 . S
Tb84 O96 2.506 1_554 S
C85 O95 1.244 1_556 S
C85 O96 1.265 . S
O86 Tb81 2.312 . S
O86 C93 1.253 . S
O87 Tb84 2.338 . S
O87 C88 1.258 . S
C88 O87 1.258 . S
C88 O89 1.251 . S
O89 C88 1.251 . S
O90 Tb81 2.271 . S
O90 C82 1.252 . S
O91 C82 1.253 . S
O91 Tb84 2.312 . S
O92 Tb81 2.338 . S
O92 C97 1.258 . S
C93 O83 1.252 . S
C93 O86 1.253 . S
C94 O80 1.265 . S
C94 O99 1.244 . S
O95 Tb84 2.441 . S
O95 C85 1.244 1_554 S
O96 Tb84 2.506 1_556 S
O96 C85 1.265 . S
C97 O92 1.258 . S
C97 O98 1.251 . S
O98 C97 1.251 . S
O99 Tb81 2.441 . S
O99 C94 1.244 . S
O100 Tb101 2.506 . S
O100 C114 1.265 . S
Tb101 O100 2.506 . S
Tb101 O106 2.312 1_655 S
Tb101 O110 2.271 . S
Tb101 O112 2.338 . S
Tb101 O119 2.441 . S
C102 O110 1.252 . S
C102 O111 1.253 . S
O103 Tb104 2.271 . S
O103 C113 1.252 . S
Tb104 O103 2.271 . S
Tb104 O107 2.338 . S
Tb104 O111 2.312 1_455 S
Tb104 O115 2.441 . S
Tb104 O116 2.506 . S
C105 O115 1.244 . S
C105 O116 1.265 . S
O106 Tb101 2.312 1_455 S
O106 C113 1.253 . S
O107 Tb104 2.338 . S
O107 C108 1.258 . S
C108 O107 1.258 . S
C108 O109 1.251 . S
O109 C108 1.251 . S
O110 Tb101 2.271 . S
O110 C102 1.252 . S
O111 C102 1.253 . S
O111 Tb104 2.312 1_655 S
O112 Tb101 2.338 . S
O112 C117 1.258 . S
C113 O103 1.252 . S
C113 O106 1.253 . S
C114 O100 1.265 . S
C114 O119 1.244 . S
O115 Tb104 2.441 . S
O115 C105 1.244 . S
O116 Tb104 2.506 . S
O116 C105 1.265 . S
C117 O112 1.258 . S
C117 O118 1.251 . S
O118 C117 1.251 . S
O119 Tb101 2.441 . S
O119 C114 1.244 . S
O120 Tb121 2.506 . S
O120 C134 1.265 . S
Tb121 O120 2.506 . S
Tb121 O126 2.312 1_655 S
Tb121 O130 2.271 . S
Tb121 O132 2.338 . S
Tb121 O139 2.441 . S
C122 O130 1.252 . S
C122 O131 1.253 . S
O123 Tb124 2.271 . S
O123 C133 1.252 . S
Tb124 O123 2.271 . S
Tb124 O127 2.338 . S
Tb124 O131 2.312 1_455 S
Tb124 O135 2.441 . S
Tb124 O136 2.506 . S
C125 O135 1.244 . S
C125 O136 1.265 . S
O126 Tb121 2.312 1_455 S
O126 C133 1.253 . S
O127 Tb124 2.338 . S
O127 C128 1.258 . S
C128 O127 1.258 . S
C128 O129 1.251 . S
O129 C128 1.251 . S
O130 Tb121 2.271 . S
O130 C122 1.252 . S
O131 C122 1.253 . S
O131 Tb124 2.312 1_655 S
O132 Tb121 2.338 . S
O132 C137 1.258 . S
C133 O123 1.252 . S
C133 O126 1.253 . S
C134 O120 1.265 . S
C134 O139 1.244 . S
O135 Tb124 2.441 . S
O135 C125 1.244 . S
O136 Tb124 2.506 . S
O136 C125 1.265 . S
C137 O132 1.258 . S
C137 O138 1.251 . S
O138 C137 1.251 . S
O139 Tb121 2.441 . S
O139 C134 1.244 . S
O140 Tb141 2.506 . S
O140 C154 1.265 . S
Tb141 O140 2.506 . S
Tb141 O146 2.312 1_545 S
Tb141 O150 2.271 . S
Tb141 O152 2.338 . S
Tb141 O159 2.441 . S
C142 O150 1.252 . S
C142 O151 1.253 . S
O143 Tb144 2.271 . S
O143 C153 1.252 . S
Tb144 O143 2.271 . S
Tb144 O147 2.338 . S
Tb144 O151 2.312 1_565 S
Tb144 O155 2.441 . S
Tb144 O156 2.506 . S
C145 O155 1.244 . S
C145 O156 1.265 . S
O146 Tb141 2.312 1_565 S
O146 C153 1.253 . S
O147 Tb144 2.338 . S
O147 C148 1.258 . S
C148 O147 1.258 . S
C148 O149 1.251 . S
O149 C148 1.251 . S
O150 Tb141 2.271 . S
O150 C142 1.252 . S
O151 C142 1.253 . S
O151 Tb144 2.312 1_545 S
O152 Tb141 2.338 . S
O152 C157 1.258 . S
C153 O143 1.252 . S
C153 O146 1.253 . S
C154 O140 1.265 . S
C154 O159 1.244 . S
O155 Tb144 2.441 . S
O155 C145 1.244 . S
O156 Tb144 2.506 . S
O156 C145 1.265 . S
C157 O152 1.258 . S
C157 O158 1.251 . S
O158 C157 1.251 . S
O159 Tb141 2.441 . S
O159 C154 1.244 . S
O160 Tb161 2.506 . S
O160 C174 1.265 . S
Tb161 O160 2.506 . S
Tb161 O166 2.312 . S
Tb161 O170 2.271 . S
Tb161 O172 2.338 . S
Tb161 O179 2.441 . S
C162 O170 1.252 . S
C162 O171 1.253 . S
O163 Tb164 2.271 . S
O163 C173 1.252 . S
Tb164 O163 2.271 . S
Tb164 O167 2.338 . S
Tb164 O171 2.312 . S
Tb164 O175 2.441 . S
Tb164 O176 2.506 . S
C165 O175 1.244 . S
C165 O176 1.265 . S
O166 Tb161 2.312 . S
O166 C173 1.253 . S
O167 Tb164 2.338 . S
O167 C168 1.258 . S
C168 O167 1.258 . S
C168 O169 1.251 . S
O169 C168 1.251 . S
O170 Tb161 2.271 . S
O170 C162 1.252 . S
O171 C162 1.253 . S
O171 Tb164 2.312 . S
O172 Tb161 2.338 . S
O172 C177 1.258 . S
C173 O163 1.252 . S
C173 O166 1.253 . S
C174 O160 1.265 . S
C174 O179 1.244 . S
O175 Tb164 2.441 . S
O175 C165 1.244 . S
O176 Tb164 2.506 . S
O176 C165 1.265 . S
C177 O172 1.258 . S
C177 O178 1.251 . S
O178 C177 1.251 . S
O179 Tb161 2.441 . S
O179 C174 1.244 . S
O180 Tb181 2.506 1_554 S
O180 C194 1.265 . S
Tb181 O180 2.506 1_556 S
Tb181 O186 2.312 1_655 S
Tb181 O190 2.271 . S
Tb181 O192 2.338 1_556 S
Tb181 O199 2.439 1_556 S
C182 O190 1.252 . S
C182 O191 1.253 . S
O183 Tb184 2.271 . S
O183 C193 1.252 . S
Tb184 O183 2.271 . S
Tb184 O187 2.338 . S
Tb184 O191 2.312 1_455 S
Tb184 O195 2.441 . S
Tb184 O196 2.506 . S
C185 O195 1.244 . S
C185 O196 1.265 . S
O186 Tb181 2.312 1_455 S
O186 C193 1.253 . S
O187 Tb184 2.338 . S
O187 C188 1.258 . S
C188 O187 1.258 . S
C188 O189 1.251 . S
O189 C188 1.251 . S
O190 Tb181 2.271 . S
O190 C182 1.252 . S
O191 C182 1.253 . S
O191 Tb184 2.312 1_655 S
O192 Tb181 2.338 1_554 S
O192 C197 1.258 1_554 S
C193 O183 1.252 . S
C193 O186 1.253 . S
C194 O180 1.265 . S
C194 O199 1.269 . S
O195 Tb184 2.441 . S
O195 C185 1.244 . S
O196 Tb184 2.506 . S
O196 C185 1.265 . S
C197 O192 1.258 1_556 S
C197 O198 1.251 . S
O198 C197 1.251 . S
O199 Tb181 2.439 1_554 S
O199 C194 1.269 . S
O200 Tb201 2.506 . S
O200 C214 1.265 . S
Tb201 O200 2.506 . S
Tb201 O206 2.312 1_545 S
Tb201 O210 2.271 . S
Tb201 O212 2.338 . S
Tb201 O219 2.441 . S
C202 O210 1.252 . S
C202 O211 1.253 . S
O203 Tb204 2.271 . S
O203 C213 1.252 . S
Tb204 O203 2.271 . S
Tb204 O207 2.338 . S
Tb204 O211 2.312 1_565 S
Tb204 O215 2.441 . S
Tb204 O216 2.506 . S
C205 O215 1.244 . S
C205 O216 1.265 . S
O206 Tb201 2.312 1_565 S
O206 C213 1.253 . S
O207 Tb204 2.338 . S
O207 C208 1.258 . S
C208 O207 1.258 . S
C208 O209 1.251 . S
O209 C208 1.251 . S
O210 Tb201 2.271 . S
O210 C202 1.252 . S
O211 C202 1.253 . S
O211 Tb204 2.312 1_545 S
O212 Tb201 2.338 . S
O212 C217 1.258 . S
C213 O203 1.252 . S
C213 O206 1.253 . S
C214 O200 1.265 . S
C214 O219 1.244 . S
O215 Tb204 2.441 . S
O215 C205 1.244 . S
O216 Tb204 2.506 . S
O216 C205 1.265 . S
C217 O212 1.258 . S
C217 O218 1.251 . S
O218 C217 1.251 . S
O219 Tb201 2.441 . S
O219 C214 1.244 . S
O220 Tb221 2.506 . S
O220 C234 1.265 . S
Tb221 O220 2.506 . S
Tb221 O226 2.312 . S
Tb221 O230 2.271 . S
Tb221 O232 2.338 . S
Tb221 O239 2.441 . S
C222 O230 1.252 . S
C222 O231 1.253 . S
O223 Tb224 2.271 . S
O223 C233 1.252 . S
Tb224 O223 2.271 . S
Tb224 O227 2.338 . S
Tb224 O231 2.312 . S
Tb224 O235 2.441 . S
Tb224 O236 2.506 . S
C225 O235 1.244 . S
C225 O236 1.265 . S
O226 Tb221 2.312 . S
O226 C233 1.253 . S
O227 Tb224 2.338 . S
O227 C228 1.258 . S
C228 O227 1.258 . S
C228 O229 1.251 . S
O229 C228 1.251 . S
O230 Tb221 2.271 . S
O230 C222 1.252 . S
O231 C222 1.253 . S
O231 Tb224 2.312 . S
O232 Tb221 2.338 . S
O232 C237 1.258 . S
C233 O223 1.252 . S
C233 O226 1.253 . S
C234 O220 1.265 . S
C234 O239 1.244 . S
O235 Tb224 2.441 . S
O235 C225 1.244 . S
O236 Tb224 2.506 . S
O236 C225 1.265 . S
C237 O232 1.258 . S
C237 O238 1.251 . S
O238 C237 1.251 . S
O239 Tb221 2.441 . S
O239 C234 1.244 . S
C240 C241 1.369 . S
C240 C242 1.419 . S
C240 H244 0.930 . S
C241 C240 1.369 . S
C241 C250 1.429 . S
C242 C240 1.419 . S
C242 C243 1.363 . S
C242 H245 0.929 . S
C243 C242 1.363 . S
C243 C249 1.428 . S
H244 C240 0.930 . S
H245 C242 0.929 . S
S246 N247 1.613 . S
S246 N248 1.610 . S
N247 S246 1.613 . S
N247 C250 1.350 . S
N248 S246 1.610 . S
N248 C249 1.351 . S
C249 C243 1.428 . S
C249 N248 1.351 . S
C249 C250 1.434 . S
C250 C241 1.429 . S
C250 N247 1.350 . S
C250 C249 1.434 . S
C251 C252 1.369 . S
C251 C253 1.419 . S
C251 H255 0.930 . S
C252 C251 1.369 . S
C252 C261 1.429 . S
C253 C251 1.419 . S
C253 C254 1.363 . S
C253 H256 0.929 . S
C254 C253 1.363 . S
C254 C260 1.428 . S
H255 C251 0.930 . S
H256 C253 0.929 . S
S257 N258 1.613 . S
S257 N259 1.610 . S
N258 S257 1.613 . S
N258 C261 1.350 . S
N259 S257 1.610 . S
N259 C260 1.351 . S
C260 C254 1.428 . S
C260 N259 1.351 . S
C260 C261 1.434 . S
C261 C252 1.429 . S
C261 N258 1.350 . S
C261 C260 1.434 . S
C262 C263 1.369 . S
C262 C264 1.419 . S
C262 H266 0.930 . S
C263 C262 1.369 . S
C263 C272 1.429 . S
C264 C262 1.419 . S
C264 C265 1.363 . S
C264 H267 0.929 . S
C265 C264 1.363 . S
C265 C271 1.428 . S
H266 C262 0.930 . S
H267 C264 0.929 . S
S268 N269 1.613 . S
S268 N270 1.610 . S
N269 S268 1.613 . S
N269 C272 1.350 . S
N270 S268 1.610 . S
N270 C271 1.351 . S
C271 C265 1.428 . S
C271 N270 1.351 . S
C271 C272 1.434 . S
C272 C263 1.429 . S
C272 N269 1.350 . S
C272 C271 1.434 . S
C273 C274 1.369 . S
C273 C275 1.419 . S
C273 H277 0.930 . S
C274 C273 1.369 . S
C274 C283 1.429 . S
C275 C273 1.419 . S
C275 C276 1.363 . S
C275 H278 0.929 . S
C276 C275 1.363 . S
C276 C282 1.428 . S
H277 C273 0.930 . S
H278 C275 0.929 . S
S279 N280 1.613 . S
S279 N281 1.610 . S
N280 S279 1.613 . S
N280 C283 1.350 . S
N281 S279 1.610 . S
N281 C282 1.351 . S
C282 C276 1.428 . S
C282 N281 1.351 . S
C282 C283 1.434 . S
C283 C274 1.429 . S
C283 N280 1.350 . S
C283 C282 1.434 . S
C284 C285 1.369 . S
C284 C286 1.419 . S
C284 H288 0.930 . S
C285 C284 1.369 . S
C285 C294 1.429 . S
C286 C284 1.419 . S
C286 C287 1.363 . S
C286 H289 0.929 . S
C287 C286 1.363 . S
C287 C293 1.428 . S
H288 C284 0.930 . S
H289 C286 0.929 . S
S290 N291 1.613 . S
S290 N292 1.610 . S
N291 S290 1.613 . S
N291 C294 1.350 . S
N292 S290 1.610 . S
N292 C293 1.351 . S
C293 C287 1.428 . S
C293 N292 1.351 . S
C293 C294 1.434 . S
C294 C285 1.429 . S
C294 N291 1.350 . S
C294 C293 1.434 . S
C295 C296 1.369 . S
C295 C297 1.419 . S
C295 H299 0.930 . S
C296 C295 1.369 . S
C296 C305 1.429 . S
C297 C295 1.419 . S
C297 C298 1.363 . S
C297 H300 0.929 . S
C298 C297 1.363 . S
C298 C304 1.428 . S
H299 C295 0.930 . S
H300 C297 0.929 . S
S301 N302 1.613 . S
S301 N303 1.610 . S
N302 S301 1.613 . S
N302 C305 1.350 . S
N303 S301 1.610 . S
N303 C304 1.351 . S
C304 C298 1.428 . S
C304 N303 1.351 . S
C304 C305 1.434 . S
C305 C296 1.429 . S
C305 N302 1.350 . S
C305 C304 1.434 . S
C306 C307 1.369 . S
C306 C308 1.419 . S
C306 H310 0.930 . S
C307 C306 1.369 . S
C307 C316 1.429 . S
C308 C306 1.419 . S
C308 C309 1.363 . S
C308 H311 0.929 . S
C309 C308 1.363 . S
C309 C315 1.428 . S
H310 C306 0.930 . S
H311 C308 0.929 . S
S312 N313 1.613 . S
S312 N314 1.610 . S
N313 S312 1.613 . S
N313 C316 1.350 . S
N314 S312 1.610 . S
N314 C315 1.351 . S
C315 C309 1.428 . S
C315 N314 1.351 . S
C315 C316 1.434 . S
C316 C307 1.429 . S
C316 N313 1.350 . S
C316 C315 1.434 . S
C317 C318 1.369 . S
C317 C319 1.419 . S
C317 H321 0.930 . S
C318 C317 1.369 . S
C318 C327 1.429 . S
C319 C317 1.419 . S
C319 C320 1.363 . S
C319 H322 0.929 . S
C320 C319 1.363 . S
C320 C326 1.428 . S
H321 C317 0.930 . S
H322 C319 0.929 . S
S323 N324 1.613 . S
S323 N325 1.610 . S
N324 S323 1.613 . S
N324 C327 1.350 . S
N325 S323 1.610 . S
N325 C326 1.351 . S
C326 C320 1.428 . S
C326 N325 1.351 . S
C326 C327 1.434 . S
C327 C318 1.429 . S
C327 N324 1.350 . S
C327 C326 1.434 . S
C328 C329 1.369 . S
C328 C330 1.419 . S
C328 H332 0.930 . S
C329 C328 1.369 . S
C329 C338 1.429 . S
C330 C328 1.419 . S
C330 C331 1.363 . S
C330 H333 0.929 . S
C331 C330 1.363 . S
C331 C337 1.428 . S
H332 C328 0.930 . S
H333 C330 0.929 . S
S334 N335 1.613 . S
S334 N336 1.610 . S
N335 S334 1.613 . S
N335 C338 1.350 . S
N336 S334 1.610 . S
N336 C337 1.351 . S
C337 C331 1.428 . S
C337 N336 1.351 . S
C337 C338 1.434 . S
C338 C329 1.429 . S
C338 N335 1.350 . S
C338 C337 1.434 . S
C339 C340 1.369 . S
C339 C341 1.419 . S
C339 H343 0.930 . S
C340 C339 1.369 . S
C340 C349 1.429 . S
C341 C339 1.419 . S
C341 C342 1.363 . S
C341 H344 0.929 . S
C342 C341 1.363 . S
C342 C348 1.428 . S
H343 C339 0.930 . S
H344 C341 0.929 . S
S345 N346 1.613 . S
S345 N347 1.610 . S
N346 S345 1.613 . S
N346 C349 1.350 . S
N347 S345 1.610 . S
N347 C348 1.351 . S
C348 C342 1.428 . S
C348 N347 1.351 . S
C348 C349 1.434 . S
C349 C340 1.429 . S
C349 N346 1.350 . S
C349 C348 1.434 . S
C350 C351 1.369 . S
C350 C352 1.419 . S
C350 H354 0.930 . S
C351 C350 1.369 . S
C351 C360 1.429 . S
C352 C350 1.419 . S
C352 C353 1.363 . S
C352 H355 0.929 . S
C353 C352 1.363 . S
C353 C359 1.428 . S
H354 C350 0.930 . S
H355 C352 0.929 . S
S356 N357 1.613 . S
S356 N358 1.610 . S
N357 S356 1.613 . S
N357 C360 1.350 . S
N358 S356 1.610 . S
N358 C359 1.351 . S
C359 C353 1.428 . S
C359 N358 1.351 . S
C359 C360 1.434 . S
C360 C351 1.429 . S
C360 N357 1.350 . S
C360 C359 1.434 . S
C361 C362 1.369 . S
C361 C363 1.419 . S
C361 H365 0.930 . S
C362 C361 1.369 . S
C362 C371 1.429 . S
C363 C361 1.419 . S
C363 C364 1.363 . S
C363 H366 0.929 . S
C364 C363 1.363 . S
C364 C370 1.428 . S
H365 C361 0.930 . S
H366 C363 0.929 . S
S367 N368 1.613 . S
S367 N369 1.610 . S
N368 S367 1.613 . S
N368 C371 1.350 . S
N369 S367 1.610 . S
N369 C370 1.351 . S
C370 C364 1.428 . S
C370 N369 1.351 . S
C370 C371 1.434 . S
C371 C362 1.429 . S
C371 N368 1.350 . S
C371 C370 1.434 . S
C372 C373 1.369 . S
C372 C374 1.419 . S
C372 H376 0.930 . S
C373 C372 1.369 . S
C373 C382 1.429 . S
C374 C372 1.419 . S
C374 C375 1.363 . S
C374 H377 0.929 . S
C375 C374 1.363 . S
C375 C381 1.428 . S
H376 C372 0.930 . S
H377 C374 0.929 . S
S378 N379 1.613 . S
S378 N380 1.610 . S
N379 S378 1.613 . S
N379 C382 1.350 . S
N380 S378 1.610 . S
N380 C381 1.351 . S
C381 C375 1.428 . S
C381 N380 1.351 . S
C381 C382 1.434 . S
C382 C373 1.429 . S
C382 N379 1.350 . S
C382 C381 1.434 . S
C383 C384 1.369 . S
C383 C385 1.419 . S
C383 H387 0.930 . S
C384 C383 1.369 . S
C384 C393 1.429 . S
C385 C383 1.419 . S
C385 C386 1.363 . S
C385 H388 0.929 . S
C386 C385 1.363 . S
C386 C392 1.428 . S
H387 C383 0.930 . S
H388 C385 0.929 . S
S389 N390 1.613 . S
S389 N391 1.610 . S
N390 S389 1.613 . S
N390 C393 1.350 . S
N391 S389 1.610 . S
N391 C392 1.351 . S
C392 C386 1.428 . S
C392 N391 1.351 . S
C392 C393 1.434 . S
C393 C384 1.429 . S
C393 N390 1.350 . S
C393 C392 1.434 . S
C394 C395 1.369 . S
C394 C396 1.419 . S
C394 H398 0.930 . S
C395 C394 1.369 . S
C395 C404 1.429 . S
C396 C394 1.419 . S
C396 C397 1.363 . S
C396 H399 0.929 . S
C397 C396 1.363 . S
C397 C403 1.428 . S
H398 C394 0.930 . S
H399 C396 0.929 . S
S400 N401 1.613 . S
S400 N402 1.610 . S
N401 S400 1.613 . S
N401 C404 1.350 . S
N402 S400 1.610 . S
N402 C403 1.351 . S
C403 C397 1.428 . S
C403 N402 1.351 . S
C403 C404 1.434 . S
C404 C395 1.429 . S
C404 N401 1.350 . S
C404 C403 1.434 . S
C405 C406 1.369 . S
C405 C407 1.419 . S
C405 H409 0.930 . S
C406 C405 1.369 . S
C406 C415 1.429 . S
C407 C405 1.419 . S
C407 C408 1.363 . S
C407 H410 0.929 . S
C408 C407 1.363 . S
C408 C414 1.428 . S
H409 C405 0.930 . S
H410 C407 0.929 . S
S411 N412 1.613 . S
S411 N413 1.610 . S
N412 S411 1.613 . S
N412 C415 1.350 . S
N413 S411 1.610 . S
N413 C414 1.351 . S
C414 C408 1.428 . S
C414 N413 1.351 . S
C414 C415 1.434 . S
C415 C406 1.429 . S
C415 N412 1.350 . S
C415 C414 1.434 . S
C416 C417 1.369 . S
C416 C418 1.419 . S
C416 H420 0.930 . S
C417 C416 1.369 . S
C417 C426 1.429 . S
C418 C416 1.419 . S
C418 C419 1.363 1_556 S
C418 H421 0.929 . S
C419 C418 1.363 1_554 S
C419 C425 1.428 . S
H420 C416 0.930 . S
H421 C418 0.929 . S
S422 N423 1.613 1_554 S
S422 N424 1.610 . S
N423 S422 1.613 1_556 S
N423 C426 1.350 . S
N424 S422 1.610 . S
N424 C425 1.351 . S
C425 C419 1.428 . S
C425 N424 1.351 . S
C425 C426 1.434 1_554 S
C426 C417 1.429 . S
C426 N423 1.350 . S
C426 C425 1.434 1_556 S
C427 C428 1.369 . S
C427 C429 1.419 . S
C427 H431 0.930 . S
C428 C427 1.369 . S
C428 C437 1.429 . S
C429 C427 1.419 . S
C429 C430 1.363 . S
C429 H432 0.929 . S
C430 C429 1.363 . S
C430 C436 1.428 . S
H431 C427 0.930 . S
H432 C429 0.929 . S
S433 N434 1.613 . S
S433 N435 1.610 . S
N434 S433 1.613 . S
N434 C437 1.350 . S
N435 S433 1.610 . S
N435 C436 1.351 . S
C436 C430 1.428 . S
C436 N435 1.351 . S
C436 C437 1.434 . S
C437 C428 1.429 . S
C437 N434 1.350 . S
C437 C436 1.434 . S
C438 C439 1.369 . S
C438 C440 1.419 . S
C438 H442 0.930 . S
C439 C438 1.369 . S
C439 C448 1.429 . S
C440 C438 1.419 . S
C440 C441 1.363 . S
C440 H443 0.929 . S
C441 C440 1.363 . S
C441 C447 1.428 . S
H442 C438 0.930 . S
H443 C440 0.929 . S
S444 N445 1.613 . S
S444 N446 1.610 . S
N445 S444 1.613 . S
N445 C448 1.350 . S
N446 S444 1.610 . S
N446 C447 1.351 . S
C447 C441 1.428 . S
C447 N446 1.351 . S
C447 C448 1.434 . S
C448 C439 1.429 . S
C448 N445 1.350 . S
C448 C447 1.434 . S
C449 C450 1.369 . S
C449 C451 1.419 . S
C449 H453 0.930 . S
C450 C449 1.369 . S
C450 C459 1.429 . S
C451 C449 1.419 . S
C451 C452 1.363 . S
C451 H454 0.929 . S
C452 C451 1.363 . S
C452 C458 1.428 . S
H453 C449 0.930 . S
H454 C451 0.929 . S
S455 N456 1.613 . S
S455 N457 1.610 . S
N456 S455 1.613 . S
N456 C459 1.350 . S
N457 S455 1.610 . S
N457 C458 1.351 . S
C458 C452 1.428 . S
C458 N457 1.351 . S
C458 C459 1.434 . S
C459 C450 1.429 . S
C459 N456 1.350 . S
C459 C458 1.434 . S
C460 C461 1.369 . S
C460 C462 1.419 . S
C460 H464 0.930 . S
C461 C460 1.369 . S
C461 C470 1.429 . S
C462 C460 1.419 . S
C462 C463 1.363 . S
C462 H465 0.929 . S
C463 C462 1.363 . S
C463 C469 1.428 . S
H464 C460 0.930 . S
H465 C462 0.929 . S
S466 N467 1.613 . S
S466 N468 1.610 . S
N467 S466 1.613 . S
N467 C470 1.350 . S
N468 S466 1.610 . S
N468 C469 1.351 . S
C469 C463 1.428 . S
C469 N468 1.351 . S
C469 C470 1.434 . S
C470 C461 1.429 . S
C470 N467 1.350 . S
C470 C469 1.434 . S
C471 C472 1.369 . S
C471 C473 1.442 . S
C471 H475 0.930 . S
C472 C471 1.369 . S
C472 C481 1.429 . S
C473 C471 1.442 . S
C473 C474 1.358 1_554 S
C473 H476 0.913 1_554 S
C474 C473 1.358 1_556 S
C474 C480 1.428 1_556 S
H475 C471 0.930 . S
H476 C473 0.913 1_556 S
S477 N478 1.613 . S
S477 N479 1.610 . S
N478 S477 1.613 . S
N478 C481 1.350 . S
N479 S477 1.610 . S
N479 C480 1.351 . S
C480 C474 1.428 1_554 S
C480 N479 1.351 . S
C480 C481 1.434 . S
C481 C472 1.429 . S
C481 N478 1.350 . S
C481 C480 1.434 . S
C482 C483 1.369 . S
C482 C484 1.419 . S
C482 H486 0.930 . S
C483 C482 1.369 . S
C483 C492 1.429 . S
C484 C482 1.419 . S
C484 C485 1.363 . S
C484 H487 0.929 . S
C485 C484 1.363 . S
C485 C491 1.428 . S
H486 C482 0.930 . S
H487 C484 0.929 . S
S488 N489 1.613 . S
S488 N490 1.610 . S
N489 S488 1.613 . S
N489 C492 1.350 . S
N490 S488 1.610 . S
N490 C491 1.351 . S
C491 C485 1.428 . S
C491 N490 1.351 . S
C491 C492 1.434 . S
C492 C483 1.429 . S
C492 N489 1.350 . S
C492 C491 1.434 . S
C493 C494 1.369 . S
C493 C495 1.419 . S
C493 H497 0.930 . S
C494 C493 1.369 . S
C494 C503 1.429 . S
C495 C493 1.419 . S
C495 C496 1.363 . S
C495 H498 0.929 . S
C496 C495 1.363 . S
C496 C502 1.428 . S
H497 C493 0.930 . S
H498 C495 0.929 . S
S499 N500 1.613 . S
S499 N501 1.610 . S
N500 S499 1.613 . S
N500 C503 1.350 . S
N501 S499 1.610 . S
N501 C502 1.351 . S
C502 C496 1.428 . S
C502 N501 1.351 . S
C502 C503 1.434 . S
C503 C494 1.429 . S
C503 N500 1.350 . S
C503 C502 1.434 . S
C504 C505 1.369 . S
C504 C506 1.419 . S
C504 H508 0.930 . S
C505 C504 1.369 . S
C505 C514 1.429 . S
C506 C504 1.419 . S
C506 C507 1.363 . S
C506 H509 0.929 . S
C507 C506 1.363 . S
C507 C513 1.428 . S
H508 C504 0.930 . S
H509 C506 0.929 . S
S510 N511 1.613 . S
S510 N512 1.610 . S
N511 S510 1.613 . S
N511 C514 1.350 . S
N512 S510 1.610 . S
N512 C513 1.351 . S
C513 C507 1.428 . S
C513 N512 1.351 . S
C513 C514 1.434 . S
C514 C505 1.429 . S
C514 N511 1.350 . S
C514 C513 1.434 . S
C515 C516 1.369 . S
C515 C517 1.419 . S
C515 H519 0.930 . S
C516 C515 1.369 . S
C516 C525 1.429 . S
C517 C515 1.419 . S
C517 C518 1.363 . S
C517 H520 0.929 . S
C518 C517 1.363 . S
C518 C524 1.428 . S
H519 C515 0.930 . S
H520 C517 0.929 . S
S521 N522 1.613 . S
S521 N523 1.610 . S
N522 S521 1.613 . S
N522 C525 1.350 . S
N523 S521 1.610 . S
N523 C524 1.351 . S
C524 C518 1.428 . S
C524 N523 1.351 . S
C524 C525 1.434 . S
C525 C516 1.429 . S
C525 N522 1.350 . S
C525 C524 1.434 . S
C526 C527 1.369 . S
C526 C528 1.419 . S
C526 H530 0.930 . S
C527 C526 1.369 . S
C527 C536 1.429 . S
C528 C526 1.419 . S
C528 C529 1.363 . S
C528 H531 0.929 . S
C529 C528 1.363 . S
C529 C535 1.428 . S
H530 C526 0.930 . S
H531 C528 0.929 . S
S532 N533 1.613 . S
S532 N534 1.610 . S
N533 S532 1.613 . S
N533 C536 1.350 . S
N534 S532 1.610 . S
N534 C535 1.351 . S
C535 C529 1.428 . S
C535 N534 1.351 . S
C535 C536 1.434 . S
C536 C527 1.429 . S
C536 N533 1.350 . S
C536 C535 1.434 . S
C537 C538 1.369 . S
C537 C539 1.419 . S
C537 H541 0.930 . S
C538 C537 1.369 . S
C538 C547 1.429 . S
C539 C537 1.419 . S
C539 C540 1.363 . S
C539 H542 0.929 . S
C540 C539 1.363 . S
C540 C546 1.428 . S
H541 C537 0.930 . S
H542 C539 0.929 . S
S543 N544 1.613 . S
S543 N545 1.610 . S
N544 S543 1.613 . S
N544 C547 1.350 . S
N545 S543 1.610 . S
N545 C546 1.351 . S
C546 C540 1.428 . S
C546 N545 1.351 . S
C546 C547 1.434 . S
C547 C538 1.429 . S
C547 N544 1.350 . S
C547 C546 1.434 . S
C548 C549 1.369 . S
C548 C550 1.419 . S
C548 H552 0.930 . S
C549 C548 1.369 . S
C549 C558 1.429 . S
C550 C548 1.419 . S
C550 C551 1.363 . S
C550 H553 0.929 . S
C551 C550 1.363 . S
C551 C557 1.428 . S
H552 C548 0.930 . S
H553 C550 0.929 . S
S554 N555 1.613 . S
S554 N556 1.610 . S
N555 S554 1.613 . S
N555 C558 1.350 . S
N556 S554 1.610 . S
N556 C557 1.351 . S
C557 C551 1.428 . S
C557 N556 1.351 . S
C557 C558 1.434 . S
C558 C549 1.429 . S
C558 N555 1.350 . S
C558 C557 1.434 . S
C559 C560 1.369 . S
C559 C561 1.419 . S
C559 H563 0.930 . S
C560 C559 1.369 . S
C560 C569 1.429 . S
C561 C559 1.419 . S
C561 C562 1.363 . S
C561 H564 0.929 . S
C562 C561 1.363 . S
C562 C568 1.428 . S
H563 C559 0.930 . S
H564 C561 0.929 . S
S565 N566 1.613 . S
S565 N567 1.610 . S
N566 S565 1.613 . S
N566 C569 1.350 . S
N567 S565 1.610 . S
N567 C568 1.351 . S
C568 C562 1.428 . S
C568 N567 1.351 . S
C568 C569 1.434 . S
C569 C560 1.429 . S
C569 N566 1.350 . S
C569 C568 1.434 . S
C570 C571 1.369 . S
C570 C572 1.419 . S
C570 H574 0.930 . S
C571 C570 1.369 . S
C571 C580 1.429 . S
C572 C570 1.419 . S
C572 C573 1.363 . S
C572 H575 0.929 . S
C573 C572 1.363 . S
C573 C579 1.428 . S
H574 C570 0.930 . S
H575 C572 0.929 . S
S576 N577 1.613 . S
S576 N578 1.610 . S
N577 S576 1.613 . S
N577 C580 1.350 . S
N578 S576 1.610 . S
N578 C579 1.351 . S
C579 C573 1.428 . S
C579 N578 1.351 . S
C579 C580 1.434 . S
C580 C571 1.429 . S
C580 N577 1.350 . S
C580 C579 1.434 . S
C581 C582 1.369 . S
C581 C583 1.419 . S
C581 H585 0.930 . S
C582 C581 1.369 . S
C582 C591 1.429 . S
C583 C581 1.419 . S
C583 C584 1.363 . S
C583 H586 0.929 . S
C584 C583 1.363 . S
C584 C590 1.428 . S
H585 C581 0.930 . S
H586 C583 0.929 . S
S587 N588 1.613 . S
S587 N589 1.610 . S
N588 S587 1.613 . S
N588 C591 1.350 . S
N589 S587 1.610 . S
N589 C590 1.351 . S
C590 C584 1.428 . S
C590 N589 1.351 . S
C590 C591 1.434 . S
C591 C582 1.429 . S
C591 N588 1.350 . S
C591 C590 1.434 . S
C592 C593 1.369 . S
C592 C594 1.419 . S
C592 H596 0.930 . S
C593 C592 1.369 . S
C593 C602 1.429 . S
C594 C592 1.419 . S
C594 C595 1.363 . S
C594 H597 0.929 . S
C595 C594 1.363 . S
C595 C601 1.428 . S
H596 C592 0.930 . S
H597 C594 0.929 . S
S598 N599 1.613 . S
S598 N600 1.610 . S
N599 S598 1.613 . S
N599 C602 1.350 . S
N600 S598 1.610 . S
N600 C601 1.351 . S
C601 C595 1.428 . S
C601 N600 1.351 . S
C601 C602 1.434 . S
C602 C593 1.429 . S
C602 N599 1.350 . S
C602 C601 1.434 . S
C603 C604 1.369 . S
C603 C605 1.419 . S
C603 H607 0.930 . S
C604 C603 1.369 . S
C604 C613 1.429 . S
C605 C603 1.419 . S
C605 C606 1.363 . S
C605 H608 0.929 . S
C606 C605 1.363 . S
C606 C612 1.428 . S
H607 C603 0.930 . S
H608 C605 0.929 . S
S609 N610 1.613 . S
S609 N611 1.610 . S
N610 S609 1.613 . S
N610 C613 1.350 . S
N611 S609 1.610 . S
N611 C612 1.351 . S
C612 C606 1.428 . S
C612 N611 1.351 . S
C612 C613 1.434 . S
C613 C604 1.429 . S
C613 N610 1.350 . S
C613 C612 1.434 . S
C614 C615 1.369 . S
C614 C616 1.419 . S
C614 H618 0.930 . S
C615 C614 1.369 . S
C615 C624 1.429 . S
C616 C614 1.419 . S
C616 C617 1.363 . S
C616 H619 0.929 . S
C617 C616 1.363 . S
C617 C623 1.428 . S
H618 C614 0.930 . S
H619 C616 0.929 . S
S620 N621 1.613 . S
S620 N622 1.610 . S
N621 S620 1.613 . S
N621 C624 1.350 . S
N622 S620 1.610 . S
N622 C623 1.351 . S
C623 C617 1.428 . S
C623 N622 1.351 . S
C623 C624 1.434 . S
C624 C615 1.429 . S
C624 N621 1.350 . S
C624 C623 1.434 . S
C625 C626 1.369 . S
C625 C627 1.419 . S
C625 H629 0.930 . S
C626 C625 1.369 . S
C626 C635 1.429 . S
C627 C625 1.419 . S
C627 C628 1.363 . S
C627 H630 0.929 . S
C628 C627 1.363 . S
C628 C634 1.428 . S
H629 C625 0.930 . S
H630 C627 0.929 . S
S631 N632 1.613 . S
S631 N633 1.610 . S
N632 S631 1.613 . S
N632 C635 1.350 . S
N633 S631 1.610 . S
N633 C634 1.351 . S
C634 C628 1.428 . S
C634 N633 1.351 . S
C634 C635 1.434 . S
C635 C626 1.429 . S
C635 N632 1.350 . S
C635 C634 1.434 . S
C241 C105 1.431 . S
C243 C5 1.428 . S
C252 C34 1.341 . S
C254 C14 1.338 . S
C263 C45 1.471 . S
C265 C25 1.490 . S
C274 C54 1.429 . S
C276 C74 1.429 . S
C285 C65 1.338 . S
C287 C85 1.338 . S
C296 C114 1.471 . S
C298 C94 1.487 . S
C307 C145 1.429 . S
C309 C125 1.429 . S
C318 C154 1.476 . S
C320 C174 1.488 . S
C329 C185 1.339 . S
C331 C165 1.339 . S
C340 C214 1.431 . S
C342 C194 1.425 . S
C351 C225 1.488 . S
C353 C205 1.475 . S
C362 C134 1.345 . S
C364 C234 1.334 . S
C373 C233 2.145 . S
C375 C8 2.106 . S
C384 C37 1.843 . S
C386 C122 1.886 . S
C395 C153 1.980 . S
C397 C48 1.950 . S
C406 C162 2.146 . S
C408 C77 2.105 . S
C417 C193 1.882 . S
C419 C88 1.835 . S
C428 C117 1.951 . S
C430 C202 1.981 . S
C439 C128 2.099 . S
C441 C33 2.145 . S
C450 C157 1.949 . S
C452 C42 1.980 . S
C461 C73 1.882 . S
C463 C168 1.835 . S
C472 C82 2.142 . S
C474 C197 2.103 . S
C483 C208 1.948 . S
C485 C113 1.979 . S
C494 C237 1.835 . S
C496 C2 1.881 . S
C505 C133 3.040 . S
C507 C13 3.043 . S
C516 C22 2.658 . S
C518 C142 2.673 . S
C527 C173 2.655 . S
C529 C53 2.670 . S
C538 C62 3.038 . S
C540 C182 3.041 . S
C549 C213 2.671 . S
C551 C93 2.661 . S
C560 C222 2.658 . S
C562 C102 2.672 . S
C571 C137 1.200 . S
C573 C17 1.204 . S
C582 C148 1.431 . S
C584 C28 1.434 . S
C593 C177 1.435 . S
C595 C57 1.420 . S
C604 C68 1.202 . S
C606 C188 1.207 . S
C615 C217 1.425 . S
C617 C97 1.437 . S
C626 C228 1.436 . S
C628 C108 1.420 . S
