# Generated by pormake.
# Topology gsi, (4)-cn, num edge types: 1
# Building blocks:
#     Node 0, Type 0, BuildingBlock: CEKHIL_clean_sbu_0, # of connection points: 4
#     Node 1, Type 0, BuildingBlock: CEKHIL_clean_sbu_0, # of connection points: 4
#     Node 2, Type 0, BuildingBlock: CEKHIL_clean_sbu_0, # of connection points: 4
#     Node 3, Type 0, BuildingBlock: CEKHIL_clean_sbu_0, # of connection points: 4
#     Node 4, Type 0, BuildingBlock: CEKHIL_clean_sbu_0, # of connection points: 4
#     Node 5, Type 0, BuildingBlock: CEKHIL_clean_sbu_0, # of connection points: 4
#     Node 6, Type 0, BuildingBlock: CEKHIL_clean_sbu_0, # of connection points: 4
#     Node 7, Type 0, BuildingBlock: CEKHIL_clean_sbu_0, # of connection points: 4
#     Node 8, Type 0, BuildingBlock: CEKHIL_clean_sbu_0, # of connection points: 4
#     Node 9, Type 0, BuildingBlock: CEKHIL_clean_sbu_0, # of connection points: 4
#     Node 10, Type 0, BuildingBlock: CEKHIL_clean_sbu_0, # of connection points: 4
#     Node 11, Type 0, BuildingBlock: CEKHIL_clean_sbu_0, # of connection points: 4
#     Node 12, Type 0, BuildingBlock: CEKHIL_clean_sbu_0, # of connection points: 4
#     Node 13, Type 0, BuildingBlock: CEKHIL_clean_sbu_0, # of connection points: 4
#     Node 14, Type 0, BuildingBlock: CEKHIL_clean_sbu_0, # of connection points: 4
#     Node 15, Type 0, BuildingBlock: CEKHIL_clean_sbu_0, # of connection points: 4
#     Edge 16, Type (0, 0), BuildingBlock: MIFKUJ_clean_linker_0, # of connection points: 2
#     Edge 17, Type (0, 0), BuildingBlock: MIFKUJ_clean_linker_0, # of connection points: 2
#     Edge 18, Type (0, 0), BuildingBlock: MIFKUJ_clean_linker_0, # of connection points: 2
#     Edge 19, Type (0, 0), BuildingBlock: MIFKUJ_clean_linker_0, # of connection points: 2
#     Edge 20, Type (0, 0), BuildingBlock: MIFKUJ_clean_linker_0, # of connection points: 2
#     Edge 21, Type (0, 0), BuildingBlock: MIFKUJ_clean_linker_0, # of connection points: 2
#     Edge 22, Type (0, 0), BuildingBlock: MIFKUJ_clean_linker_0, # of connection points: 2
#     Edge 23, Type (0, 0), BuildingBlock: MIFKUJ_clean_linker_0, # of connection points: 2
#     Edge 24, Type (0, 0), BuildingBlock: MIFKUJ_clean_linker_0, # of connection points: 2
#     Edge 25, Type (0, 0), BuildingBlock: MIFKUJ_clean_linker_0, # of connection points: 2
#     Edge 26, Type (0, 0), BuildingBlock: MIFKUJ_clean_linker_0, # of connection points: 2
#     Edge 27, Type (0, 0), BuildingBlock: MIFKUJ_clean_linker_0, # of connection points: 2
#     Edge 28, Type (0, 0), BuildingBlock: MIFKUJ_clean_linker_0, # of connection points: 2
#     Edge 29, Type (0, 0), BuildingBlock: MIFKUJ_clean_linker_0, # of connection points: 2
#     Edge 30, Type (0, 0), BuildingBlock: MIFKUJ_clean_linker_0, # of connection points: 2
#     Edge 31, Type (0, 0), BuildingBlock: MIFKUJ_clean_linker_0, # of connection points: 2
#     Edge 32, Type (0, 0), BuildingBlock: MIFKUJ_clean_linker_0, # of connection points: 2
#     Edge 33, Type (0, 0), BuildingBlock: MIFKUJ_clean_linker_0, # of connection points: 2
#     Edge 34, Type (0, 0), BuildingBlock: MIFKUJ_clean_linker_0, # of connection points: 2
#     Edge 35, Type (0, 0), BuildingBlock: MIFKUJ_clean_linker_0, # of connection points: 2
#     Edge 36, Type (0, 0), BuildingBlock: MIFKUJ_clean_linker_0, # of connection points: 2
#     Edge 37, Type (0, 0), BuildingBlock: MIFKUJ_clean_linker_0, # of connection points: 2
#     Edge 38, Type (0, 0), BuildingBlock: MIFKUJ_clean_linker_0, # of connection points: 2
#     Edge 39, Type (0, 0), BuildingBlock: MIFKUJ_clean_linker_0, # of connection points: 2
#     Edge 40, Type (0, 0), BuildingBlock: MIFKUJ_clean_linker_0, # of connection points: 2
#     Edge 41, Type (0, 0), BuildingBlock: MIFKUJ_clean_linker_0, # of connection points: 2
#     Edge 42, Type (0, 0), BuildingBlock: MIFKUJ_clean_linker_0, # of connection points: 2
#     Edge 43, Type (0, 0), BuildingBlock: MIFKUJ_clean_linker_0, # of connection points: 2
#     Edge 44, Type (0, 0), BuildingBlock: MIFKUJ_clean_linker_0, # of connection points: 2
#     Edge 45, Type (0, 0), BuildingBlock: MIFKUJ_clean_linker_0, # of connection points: 2
#     Edge 46, Type (0, 0), BuildingBlock: MIFKUJ_clean_linker_0, # of connection points: 2
#     Edge 47, Type (0, 0), BuildingBlock: MIFKUJ_clean_linker_0, # of connection points: 2
# Relax obj value: 0.149
# Max RMSD: 0.205
# Mean RMSD: 0.126
data_MOF--net-gsi--node1-CEKHIL_clean_sbu_0--edge1-MIFKUJ_clean_linker_0
_symmetry_space_group_name_H-M    P1
_symmetry_Int_Tables_number       1
_symmetry_cell_setting            triclinic
loop_
_symmetry_equiv_pos_as_xyz
'x, y, z'
_cell_length_a     50.671039
_cell_length_b     56.913764
_cell_length_c     53.536774
_cell_angle_alpha  90.976017
_cell_angle_beta   93.420297
_cell_angle_gamma 97.739139
loop_
_atom_site_label
_atom_site_type_symbol
_atom_site_fract_x
_atom_site_fract_y
_atom_site_fract_z
_atom_type_partial_charge
Co0 Co 0.15756 0.14789 0.12431 0.0
O1 O 0.17736 0.12255 0.13543 0.0
O2 O 0.13708 0.12672 0.14652 0.0
C3 C 0.16801 0.14477 0.08331 0.0
O4 O 0.12961 0.17085 0.11701 0.0
Co5 Co 0.18369 0.19361 0.10062 0.0
O6 O 0.14801 0.20427 0.09953 0.0
C7 C 0.1956 0.18451 0.15385 0.0
C8 C 0.15717 0.11472 0.14823 0.0
C9 C 0.12806 0.19174 0.10826 0.0
O10 O 0.17486 0.16861 0.15363 0.0
O11 O 0.20407 0.19429 0.13396 0.0
O12 O 0.14805 0.13092 0.0917 0.0
O13 O 0.1809 0.15936 0.09981 0.0
Co14 Co 0.85985 0.34941 0.13636 0.0
O15 O 0.84152 0.37467 0.14877 0.0
O16 O 0.88284 0.37002 0.16057 0.0
C17 C 0.84487 0.35355 0.0957 0.0
O18 O 0.88673 0.32634 0.12773 0.0
Co19 Co 0.83104 0.30439 0.10868 0.0
O20 O 0.86671 0.29481 0.10485 0.0
C21 C 0.82325 0.31352 0.162 0.0
C22 C 0.86302 0.38213 0.16261 0.0
C23 C 0.88756 0.30652 0.11571 0.0
O24 O 0.84487 0.32844 0.16378 0.0
O25 O 0.8131 0.30416 0.14109 0.0
O26 O 0.86619 0.3669 0.1051 0.0
O27 O 0.83374 0.33862 0.1109 0.0
Co28 Co 0.16795 0.87478 0.32668 0.0
O29 O 0.1883 0.90302 0.31386 0.0
O30 O 0.14458 0.89415 0.30875 0.0
C31 C 0.18925 0.87726 0.36576 0.0
O32 O 0.13921 0.84788 0.33678 0.0
Co33 Co 0.19426 0.83109 0.3452 0.0
O34 O 0.15815 0.8183 0.35469 0.0
C35 C 0.18637 0.83931 0.29087 0.0
C36 C 0.16581 0.9087 0.30453 0.0
C37 C 0.13755 0.82752 0.34743 0.0
O38 O 0.17294 0.85658 0.29475 0.0
O39 O 0.19767 0.8284 0.30831 0.0
O40 O 0.17013 0.88987 0.36054 0.0
O41 O 0.19576 0.86508 0.34721 0.0
Co42 Co 0.85814 0.63079 0.3313 0.0
O43 O 0.8893 0.64439 0.31422 0.0
O44 O 0.88146 0.65307 0.35316 0.0
C45 C 0.85878 0.59255 0.3175 0.0
O46 O 0.82963 0.62131 0.35644 0.0
Co47 Co 0.80612 0.60514 0.3047 0.0
O48 O 0.79263 0.6001 0.33856 0.0
C49 C 0.82075 0.65679 0.30009 0.0
C50 C 0.89682 0.65679 0.33466 0.0
C51 C 0.80591 0.61001 0.35776 0.0
O52 O 0.8382 0.65705 0.31864 0.0
O53 O 0.8081 0.6376 0.2901 0.0
O54 O 0.87413 0.60126 0.33679 0.0
O55 O 0.8447 0.60726 0.30696 0.0
Co56 Co 0.36151 0.85173 0.63523 0.0
O57 O 0.34218 0.8764 0.64755 0.0
O58 O 0.3831 0.87176 0.66081 0.0
C59 C 0.34945 0.8567 0.59405 0.0
O60 O 0.38919 0.8292 0.62704 0.0
Co61 Co 0.33417 0.80715 0.60517 0.0
O62 O 0.37046 0.7992 0.60128 0.0
C63 C 0.32739 0.81165 0.65948 0.0
C64 C 0.36303 0.88364 0.66236 0.0
C65 C 0.3907 0.81021 0.61374 0.0
O66 O 0.34566 0.82981 0.66155 0.0
O67 O 0.31895 0.80134 0.63853 0.0
O68 O 0.3695 0.87041 0.60519 0.0
O69 O 0.33706 0.84134 0.60812 0.0
Co70 Co 0.86028 0.86252 0.88762 0.0
O71 O 0.8721 0.83364 0.90089 0.0
O72 O 0.8949 0.85799 0.87592 0.0
C73 C 0.84516 0.87454 0.92476 0.0
O74 O 0.85688 0.89429 0.87022 0.0
Co75 Co 0.80266 0.87519 0.88709 0.0
O76 O 0.81739 0.90682 0.87535 0.0
C77 C 0.81597 0.8372 0.85309 0.0
C78 C 0.89338 0.83862 0.88851 0.0
C79 C 0.84072 0.90992 0.86731 0.0
O80 O 0.84122 0.84371 0.85773 0.0
O81 O 0.79812 0.84624 0.86458 0.0
O82 O 0.87042 0.87899 0.92062 0.0
O83 O 0.83061 0.86296 0.90698 0.0
Co84 Co 0.13902 0.66678 0.87969 0.0
O85 O 0.12706 0.69498 0.89382 0.0
O86 O 0.10262 0.66975 0.86733 0.0
C87 C 0.15769 0.65518 0.91675 0.0
O88 O 0.14321 0.63536 0.86123 0.0
Co89 Co 0.19871 0.65861 0.88164 0.0
O90 O 0.18512 0.62681 0.86704 0.0
C91 C 0.17851 0.69113 0.84458 0.0
C92 C 0.10449 0.68908 0.881 0.0
C93 C 0.16118 0.62163 0.85797 0.0
O94 O 0.15425 0.68573 0.85078 0.0
O95 O 0.19859 0.68333 0.85557 0.0
O96 O 0.13217 0.64992 0.91128 0.0
O97 O 0.1704 0.66785 0.90052 0.0
Co98 Co 0.84697 0.1409 0.67853 0.0
O99 O 0.81302 0.12473 0.66417 0.0
O100 O 0.84384 0.14502 0.64269 0.0
C101 C 0.85629 0.11053 0.70382 0.0
O102 O 0.88428 0.16015 0.68511 0.0
Co103 Co 0.85911 0.15355 0.7345 0.0
O104 O 0.89601 0.16535 0.72606 0.0
C105 C 0.82578 0.18227 0.70355 0.0
C106 C 0.82018 0.13293 0.64272 0.0
C107 C 0.90117 0.16823 0.70326 0.0
O108 O 0.82986 0.17046 0.68379 0.0
O109 O 0.83457 0.17753 0.72556 0.0
O110 O 0.86179 0.11058 0.68036 0.0
O111 O 0.84465 0.12811 0.71091 0.0
Co112 Co 0.17114 0.38408 0.6785 0.0
O113 O 0.20423 0.39962 0.66584 0.0
O114 O 0.17466 0.37414 0.64407 0.0
C115 C 0.15927 0.41741 0.69706 0.0
O116 O 0.13483 0.3641 0.68363 0.0
Co117 Co 0.15935 0.38208 0.73479 0.0
O118 O 0.12319 0.36656 0.72331 0.0
C119 C 0.19784 0.35285 0.71444 0.0
C120 C 0.19736 0.38787 0.64489 0.0
C121 C 0.11824 0.35894 0.70079 0.0
O122 O 0.19062 0.35759 0.69176 0.0
O123 O 0.18941 0.3626 0.73362 0.0
O124 O 0.15407 0.41315 0.67316 0.0
O125 O 0.17222 0.40231 0.7083 0.0
Co126 Co 0.64111 0.16433 0.38202 0.0
O127 O 0.62999 0.19275 0.39668 0.0
O128 O 0.60651 0.17004 0.36731 0.0
C129 C 0.65477 0.14895 0.41897 0.0
O130 O 0.64459 0.13346 0.3622 0.0
Co131 Co 0.6996 0.15265 0.38785 0.0
O132 O 0.68619 0.12377 0.3674 0.0
C133 C 0.68628 0.19217 0.35645 0.0
C134 C 0.60837 0.18863 0.38207 0.0
C135 C 0.66235 0.11982 0.35779 0.0
O136 O 0.66107 0.18448 0.35629 0.0
O137 O 0.70388 0.18349 0.37026 0.0
O138 O 0.62958 0.14601 0.41157 0.0
O139 O 0.67008 0.16196 0.40493 0.0
Co140 Co 0.65688 0.64781 0.6229 0.0
O141 O 0.67643 0.62239 0.6341 0.0
O142 O 0.63608 0.62669 0.64495 0.0
C143 C 0.66732 0.64476 0.58194 0.0
O144 O 0.62943 0.67111 0.61541 0.0
Co145 Co 0.68439 0.69338 0.59975 0.0
O146 O 0.64883 0.70436 0.59828 0.0
C147 C 0.69484 0.68407 0.65306 0.0
C148 C 0.65613 0.61462 0.64677 0.0
C149 C 0.62851 0.69211 0.60671 0.0
O150 O 0.67389 0.6684 0.65237 0.0
O151 O 0.70413 0.69373 0.63343 0.0
O152 O 0.64732 0.63094 0.5903 0.0
O153 O 0.68046 0.65909 0.59854 0.0
Co154 Co 0.66743 0.37658 0.82729 0.0
O155 O 0.68721 0.4053 0.81497 0.0
O156 O 0.64394 0.39466 0.80773 0.0
C157 C 0.6874 0.38087 0.8668 0.0
O158 O 0.63912 0.34906 0.83637 0.0
Co159 Co 0.69341 0.33434 0.84899 0.0
O160 O 0.65707 0.32083 0.85767 0.0
C161 C 0.69358 0.34457 0.7948 0.0
C162 C 0.66483 0.40995 0.80436 0.0
C163 C 0.63685 0.32943 0.84832 0.0
O164 O 0.67557 0.35839 0.79651 0.0
O165 O 0.70488 0.33569 0.81377 0.0
O166 O 0.66703 0.39182 0.86084 0.0
O167 O 0.69503 0.36843 0.84905 0.0
Co168 Co 0.35881 0.13171 0.83176 0.0
O169 O 0.38982 0.14494 0.81429 0.0
O170 O 0.38293 0.15359 0.8535 0.0
C171 C 0.35877 0.09333 0.81811 0.0
O172 O 0.3303 0.12257 0.85711 0.0
Co173 Co 0.30644 0.10676 0.80509 0.0
O174 O 0.29286 0.10223 0.83895 0.0
C175 C 0.32297 0.15799 0.79959 0.0
C176 C 0.39801 0.15706 0.83475 0.0
C177 C 0.30631 0.11172 0.85827 0.0
O178 O 0.33931 0.15827 0.819 0.0
O179 O 0.31047 0.13882 0.78944 0.0
O180 O 0.37433 0.10199 0.83726 0.0
O181 O 0.34493 0.1082 0.80751 0.0
Co182 Co 0.36331 0.36129 0.3888 0.0
O183 O 0.37577 0.33241 0.40129 0.0
O184 O 0.39827 0.35777 0.37714 0.0
C185 C 0.34868 0.37246 0.42638 0.0
O186 O 0.35897 0.39306 0.37177 0.0
Co187 Co 0.30557 0.37281 0.38923 0.0
O188 O 0.31892 0.40449 0.3767 0.0
C189 C 0.3191 0.33482 0.35546 0.0
C190 C 0.39713 0.3381 0.38922 0.0
C191 C 0.34223 0.40818 0.36867 0.0
O192 O 0.34427 0.34237 0.35899 0.0
O193 O 0.30131 0.34328 0.36758 0.0
O194 O 0.37367 0.37777 0.42161 0.0
O195 O 0.33387 0.36071 0.40884 0.0
Co196 Co 0.3461 0.63944 0.17957 0.0
O197 O 0.31248 0.62367 0.16412 0.0
O198 O 0.34393 0.64451 0.14383 0.0
C199 C 0.35482 0.60832 0.20416 0.0
O200 O 0.38327 0.65852 0.18752 0.0
Co201 Co 0.35609 0.65008 0.2363 0.0
O202 O 0.39266 0.66411 0.22882 0.0
C203 C 0.32154 0.67805 0.20577 0.0
C204 C 0.32025 0.63237 0.14306 0.0
C205 C 0.399 0.66706 0.20631 0.0
O206 O 0.32874 0.66883 0.18555 0.0
O207 O 0.32844 0.6713 0.22761 0.0
O208 O 0.36097 0.609 0.18088 0.0
O209 O 0.34287 0.62564 0.21132 0.0
Co210 Co 0.66907 0.88286 0.17949 0.0
O211 O 0.70166 0.89846 0.16599 0.0
O212 O 0.67319 0.87083 0.14593 0.0
C213 C 0.65536 0.91648 0.19513 0.0
O214 O 0.63337 0.86237 0.18597 0.0
Co215 Co 0.65858 0.88448 0.23618 0.0
O216 O 0.62387 0.86525 0.22629 0.0
C217 C 0.69796 0.85539 0.21781 0.0
C218 C 0.69537 0.88526 0.1459 0.0
C219 C 0.61818 0.85678 0.20414 0.0
O220 O 0.68967 0.85803 0.1949 0.0
O221 O 0.68995 0.86647 0.23631 0.0
O222 O 0.6507 0.91064 0.17151 0.0
O223 O 0.6693 0.90303 0.20779 0.0
H224 H 0.17644 0.18596 0.20083 0.0
H225 H 0.19964 0.20643 0.23836 0.0
H226 H 0.27076 0.22296 0.19812 0.0
H227 H 0.24788 0.20274 0.16082 0.0
H228 H 0.28233 0.21243 0.24813 0.0
H229 H 0.22936 0.26226 0.19955 0.0
H230 H 0.18774 0.27212 0.17856 0.0
H231 H 0.15034 0.26831 0.24855 0.0
H232 H 0.19166 0.25807 0.26988 0.0
H233 H 0.34525 0.31786 0.31637 0.0
H234 H 0.32643 0.28772 0.28435 0.0
H235 H 0.25241 0.27778 0.32113 0.0
H236 H 0.27062 0.3077 0.35253 0.0
H237 H 0.24258 0.28355 0.27343 0.0
H238 H 0.29529 0.23588 0.32304 0.0
H239 H 0.33633 0.22569 0.34479 0.0
H240 H 0.37364 0.22491 0.27491 0.0
H241 H 0.33287 0.23542 0.25274 0.0
C242 C 0.19718 0.19351 0.20021 0.0
C243 C 0.2102 0.19306 0.17779 0.0
C244 C 0.2104 0.20523 0.2216 0.0
C245 C 0.23685 0.21646 0.22091 0.0
C246 C 0.25039 0.21448 0.19909 0.0
C247 C 0.23718 0.20304 0.17772 0.0
C248 C 0.24953 0.23249 0.24169 0.0
C249 C 0.27375 0.22805 0.25365 0.0
C250 C 0.23823 0.25275 0.24899 0.0
C251 C 0.21348 0.25914 0.23624 0.0
C252 C 0.21219 0.26335 0.21042 0.0
C253 C 0.18867 0.26903 0.19847 0.0
C254 C 0.16638 0.27077 0.2122 0.0
C255 C 0.1676 0.26691 0.23793 0.0
C256 C 0.19107 0.26117 0.24996 0.0
C257 C 0.32506 0.30908 0.31768 0.0
C258 C 0.30938 0.31547 0.33684 0.0
C259 C 0.31434 0.29181 0.29944 0.0
C260 C 0.28793 0.2805 0.30029 0.0
C261 C 0.2727 0.28637 0.31988 0.0
C262 C 0.28323 0.30358 0.33787 0.0
C263 C 0.27531 0.26343 0.28029 0.0
C264 C 0.25114 0.26783 0.26823 0.0
C265 C 0.28662 0.24311 0.2731 0.0
C266 C 0.31112 0.23666 0.28627 0.0
C267 C 0.31231 0.23372 0.31233 0.0
C268 C 0.3355 0.22785 0.32473 0.0
C269 C 0.35759 0.22471 0.31125 0.0
C270 C 0.35651 0.22738 0.28532 0.0
C271 C 0.33336 0.23327 0.27282 0.0
H272 H 0.37547 0.22011 0.32092 0.0
H273 H 0.14818 0.27517 0.20292 0.0
H274 H 0.84313 0.31196 0.21094 0.0
H275 H 0.81834 0.29657 0.24672 0.0
H276 H 0.7457 0.2848 0.19931 0.0
H277 H 0.77013 0.29983 0.16378 0.0
H278 H 0.73736 0.30238 0.24657 0.0
H279 H 0.77811 0.2402 0.20866 0.0
H280 H 0.81546 0.22179 0.19297 0.0
H281 H 0.85477 0.22743 0.26655 0.0
H282 H 0.81779 0.24624 0.28261 0.0
H283 H 0.66221 0.20684 0.3127 0.0
H284 H 0.68383 0.23315 0.28163 0.0
H285 H 0.75552 0.24549 0.33025 0.0
H286 H 0.73433 0.21984 0.36113 0.0
H287 H 0.76426 0.22897 0.28299 0.0
H288 H 0.72097 0.28902 0.32135 0.0
H289 H 0.68279 0.30676 0.33621 0.0
H290 H 0.6471 0.30411 0.26125 0.0
H291 H 0.6849 0.286 0.24598 0.0
C292 C 0.82183 0.30638 0.20831 0.0
C293 C 0.80866 0.30676 0.18451 0.0
C294 C 0.80771 0.29759 0.22869 0.0
C295 C 0.7802 0.28939 0.22558 0.0
C296 C 0.76686 0.29102 0.20215 0.0
C297 C 0.78095 0.29944 0.18181 0.0
C298 C 0.76558 0.27726 0.24597 0.0
C299 C 0.74313 0.28626 0.25449 0.0
C300 C 0.77316 0.25629 0.2563 0.0
C301 C 0.79536 0.2449 0.24676 0.0
C302 C 0.79483 0.23771 0.22144 0.0
C303 C 0.81591 0.22717 0.21249 0.0
C304 C 0.83752 0.22352 0.22873 0.0
C305 C 0.83805 0.23033 0.25398 0.0
C306 C 0.81703 0.24093 0.26302 0.0
C307 C 0.68234 0.2156 0.31695 0.0
C308 C 0.69664 0.21091 0.33922 0.0
C309 C 0.69469 0.23057 0.29919 0.0
C310 C 0.7214 0.24104 0.30358 0.0
C311 C 0.73503 0.23741 0.32638 0.0
C312 C 0.7228 0.22267 0.34402 0.0
C313 C 0.73616 0.25418 0.28387 0.0
C314 C 0.75858 0.24521 0.2753 0.0
C315 C 0.7284 0.27505 0.27346 0.0
C316 C 0.70562 0.28589 0.28257 0.0
C317 C 0.70485 0.29198 0.30806 0.0
C318 C 0.68331 0.30216 0.31656 0.0
C319 C 0.66249 0.30649 0.2997 0.0
C320 C 0.66321 0.30071 0.2743 0.0
C321 C 0.6847 0.2905 0.26571 0.0
H322 H 0.64583 0.31438 0.3063 0.0
H323 H 0.85382 0.21535 0.22177 0.0
H324 H 0.30303 0.6997 0.16358 0.0
H325 H 0.27802 0.73387 0.16217 0.0
H326 H 0.27792 0.73487 0.24271 0.0
H327 H 0.30273 0.70131 0.24441 0.0
H328 H 0.22858 0.74155 0.18001 0.0
H329 H 0.29232 0.78913 0.26509 0.0
H330 H 0.33906 0.79378 0.28214 0.0
H331 H 0.36514 0.78063 0.20897 0.0
H332 H 0.31859 0.77626 0.19139 0.0
H333 H 0.16665 0.79663 0.27066 0.0
H334 H 0.18634 0.77641 0.23758 0.0
H335 H 0.23536 0.84184 0.22156 0.0
H336 H 0.21565 0.86204 0.25527 0.0
H337 H 0.26541 0.81114 0.2344 0.0
H338 H 0.19513 0.80838 0.17384 0.0
H339 H 0.14901 0.80431 0.1553 0.0
H340 H 0.13685 0.73107 0.17519 0.0
H341 H 0.18273 0.73473 0.19425 0.0
C342 C 0.29763 0.7072 0.18098 0.0
C343 C 0.30522 0.69786 0.20413 0.0
C344 C 0.2833 0.72668 0.18011 0.0
C345 C 0.27659 0.73717 0.20237 0.0
C346 C 0.28338 0.72736 0.22533 0.0
C347 C 0.29755 0.70805 0.22623 0.0
C348 C 0.26272 0.75854 0.20239 0.0
C349 C 0.23661 0.75699 0.19158 0.0
C350 C 0.27374 0.77911 0.21655 0.0
C351 C 0.30191 0.78235 0.22692 0.0
C352 C 0.30803 0.78746 0.25258 0.0
C353 C 0.33449 0.78998 0.26235 0.0
C354 C 0.35505 0.78749 0.24665 0.0
C355 C 0.34919 0.78252 0.22112 0.0
C356 C 0.32276 0.78001 0.21124 0.0
C357 C 0.18054 0.80696 0.25913 0.0
C358 C 0.18957 0.83084 0.26532 0.0
C359 C 0.19183 0.7954 0.24011 0.0
C360 C 0.21248 0.80751 0.22698 0.0
C361 C 0.21945 0.8321 0.23138 0.0
C362 C 0.20804 0.84371 0.25047 0.0
C363 C 0.23032 0.79347 0.21364 0.0
C364 C 0.25739 0.79627 0.22202 0.0
C365 C 0.22022 0.77433 0.19693 0.0
C366 C 0.19248 0.77187 0.18552 0.0
C367 C 0.1826 0.79143 0.17442 0.0
C368 C 0.15647 0.78919 0.16379 0.0
C369 C 0.14001 0.76745 0.16407 0.0
C370 C 0.14965 0.74789 0.17496 0.0
C371 C 0.17575 0.75003 0.18563 0.0
H372 H 0.11979 0.76575 0.15583 0.0
H373 H 0.37552 0.7894 0.25426 0.0
H374 H 0.82387 0.69971 0.32481 0.0
H375 H 0.80806 0.73586 0.30886 0.0
H376 H 0.78721 0.70119 0.2368 0.0
H377 H 0.80242 0.66494 0.25266 0.0
H378 H 0.81243 0.75062 0.2353 0.0
H379 H 0.73939 0.70117 0.2699 0.0
H380 H 0.71668 0.67706 0.30214 0.0
H381 H 0.72847 0.73718 0.35307 0.0
H382 H 0.75153 0.76161 0.32115 0.0
H383 H 0.71352 0.82125 0.18678 0.0
H384 H 0.73993 0.7897 0.19899 0.0
H385 H 0.7505 0.81849 0.27451 0.0
H386 H 0.7243 0.84973 0.2627 0.0
H387 H 0.73188 0.77211 0.27364 0.0
H388 H 0.80221 0.82266 0.23748 0.0
H389 H 0.8235 0.84671 0.20445 0.0
H390 H 0.81658 0.78498 0.15603 0.0
H391 H 0.7949 0.76059 0.18868 0.0
C392 C 0.81628 0.69993 0.30548 0.0
C393 C 0.81412 0.67945 0.29005 0.0
C394 C 0.80727 0.72054 0.29641 0.0
C395 C 0.79644 0.72109 0.27169 0.0
C396 C 0.79558 0.7011 0.25589 0.0
C397 C 0.80409 0.68038 0.26506 0.0
C398 C 0.7838 0.74169 0.26296 0.0
C399 C 0.79471 0.7553 0.24351 0.0
C400 C 0.76088 0.74781 0.27387 0.0
C401 C 0.74742 0.73313 0.29325 0.0
C402 C 0.7374 0.70918 0.28806 0.0
C403 C 0.72439 0.69548 0.30624 0.0
C404 C 0.72112 0.70559 0.32963 0.0
C405 C 0.73099 0.72939 0.33493 0.0
C406 C 0.74401 0.74318 0.3168 0.0
C407 C 0.7218 0.82104 0.20588 0.0
C408 C 0.71648 0.83788 0.22379 0.0
C409 C 0.73694 0.80304 0.21282 0.0
C410 C 0.74709 0.80172 0.23771 0.0
C411 C 0.7427 0.81907 0.25527 0.0
C412 C 0.72767 0.83695 0.24842 0.0
C413 C 0.76063 0.78144 0.24611 0.0
C414 C 0.74974 0.76769 0.26548 0.0
C415 C 0.78353 0.77528 0.23507 0.0
C416 C 0.79667 0.78985 0.21543 0.0
C417 C 0.80502 0.81424 0.21971 0.0
C418 C 0.8172 0.82793 0.20108 0.0
C419 C 0.82131 0.8174 0.17812 0.0
C420 C 0.81334 0.79312 0.1738 0.0
C421 C 0.80113 0.77935 0.19238 0.0
H422 H 0.83074 0.82803 0.16371 0.0
H423 H 0.71083 0.69501 0.34359 0.0
H424 H 0.31047 0.83693 0.69801 0.0
H425 H 0.2803 0.82127 0.72985 0.0
H426 H 0.28419 0.74999 0.70277 0.0
H427 H 0.31308 0.76567 0.67041 0.0
H428 H 0.23523 0.75482 0.70656 0.0
H429 H 0.31524 0.77566 0.76127 0.0
H430 H 0.35312 0.80293 0.78078 0.0
H431 H 0.2988 0.84659 0.81012 0.0
H432 H 0.26061 0.8197 0.79053 0.0
H433 H 0.20083 0.678 0.80336 0.0
H434 H 0.22046 0.70368 0.77142 0.0
H435 H 0.1914 0.76364 0.80559 0.0
H436 H 0.17142 0.73758 0.83782 0.0
H437 H 0.24601 0.77149 0.79807 0.0
H438 H 0.16585 0.74515 0.74852 0.0
H439 H 0.1292 0.71583 0.73028 0.0
H440 H 0.18534 0.68051 0.69197 0.0
H441 H 0.22237 0.70943 0.71022 0.0
C442 C 0.30531 0.81791 0.69933 0.0
C443 C 0.31409 0.80247 0.68183 0.0
C444 C 0.28801 0.80895 0.71748 0.0
C445 C 0.27981 0.78438 0.71876 0.0
C446 C 0.28988 0.769 0.70206 0.0
C447 C 0.3066 0.77794 0.68369 0.0
C448 C 0.2597 0.77438 0.73635 0.0
C449 C 0.23776 0.7584 0.72659 0.0
C450 C 0.26217 0.77973 0.7624 0.0
C451 C 0.28511 0.79584 0.77419 0.0
C452 C 0.3114 0.79118 0.77172 0.0
C453 C 0.33291 0.80654 0.78282 0.0
C454 C 0.32837 0.82652 0.79661 0.0
C455 C 0.30229 0.83113 0.79939 0.0
C456 C 0.28071 0.81583 0.78831 0.0
C457 C 0.1979 0.69652 0.80357 0.0
C458 C 0.18436 0.70583 0.82274 0.0
C459 C 0.20916 0.7112 0.78536 0.0
C460 C 0.2073 0.73558 0.78601 0.0
C461 C 0.19294 0.74485 0.80469 0.0
C462 C 0.18132 0.72998 0.82288 0.0
C463 C 0.22243 0.7512 0.76831 0.0
C464 C 0.24329 0.7683 0.77798 0.0
C465 C 0.2192 0.7467 0.74218 0.0
C466 C 0.19691 0.72946 0.73082 0.0
C467 C 0.1704 0.73107 0.7363 0.0
C468 C 0.14955 0.71453 0.72594 0.0
C469 C 0.15494 0.69631 0.70999 0.0
C470 C 0.18119 0.69464 0.70431 0.0
C471 C 0.20211 0.71115 0.7146 0.0
H472 H 0.13877 0.6835 0.70202 0.0
H473 H 0.34505 0.8384 0.80519 0.0
H474 H 0.74806 0.69521 0.66358 0.0
H475 H 0.77051 0.71635 0.70078 0.0
H476 H 0.69478 0.71524 0.73375 0.0
H477 H 0.6722 0.69339 0.69668 0.0
H478 H 0.72605 0.76186 0.72728 0.0
H479 H 0.7347 0.68584 0.76159 0.0
H480 H 0.74709 0.64542 0.76185 0.0
H481 H 0.82915 0.67364 0.75457 0.0
H482 H 0.81719 0.71425 0.75386 0.0
H483 H 0.76463 0.81705 0.84243 0.0
H484 H 0.74735 0.78768 0.81027 0.0
H485 H 0.82694 0.78477 0.78719 0.0
H486 H 0.84488 0.81449 0.82001 0.0
H487 H 0.79583 0.73967 0.788 0.0
H488 H 0.78844 0.81493 0.75295 0.0
H489 H 0.77725 0.85573 0.75133 0.0
H490 H 0.69447 0.82951 0.75763 0.0
H491 H 0.70522 0.78855 0.75967 0.0
C492 C 0.73628 0.69894 0.67905 0.0
C493 C 0.7084 0.69275 0.6773 0.0
C494 C 0.74914 0.71096 0.70028 0.0
C495 C 0.73429 0.71736 0.71995 0.0
C496 C 0.70656 0.71033 0.71875 0.0
C497 C 0.69371 0.69779 0.69768 0.0
C498 C 0.7474 0.73372 0.74018 0.0
C499 C 0.74097 0.7569 0.74084 0.0
C500 C 0.76774 0.72748 0.75705 0.0
C501 C 0.77499 0.70309 0.75738 0.0
C502 C 0.75535 0.68342 0.75976 0.0
C503 C 0.7623 0.66047 0.76006 0.0
C504 C 0.78887 0.65696 0.75815 0.0
C505 C 0.80856 0.67639 0.756 0.0
C506 C 0.80171 0.69938 0.75567 0.0
C507 C 0.7787 0.8103 0.83065 0.0
C508 C 0.80624 0.81849 0.8337 0.0
C509 C 0.76867 0.79341 0.8122 0.0
C510 C 0.78576 0.7843 0.79607 0.0
C511 C 0.81339 0.79169 0.79941 0.0
C512 C 0.82358 0.80873 0.81808 0.0
C513 C 0.77412 0.76772 0.77535 0.0
C514 C 0.78091 0.74461 0.77445 0.0
C515 C 0.75428 0.77406 0.75793 0.0
C516 C 0.74768 0.79868 0.75669 0.0
C517 C 0.76788 0.81787 0.75421 0.0
C518 C 0.76161 0.84103 0.75317 0.0
C519 C 0.73518 0.84522 0.75444 0.0
C520 C 0.71494 0.82624 0.75668 0.0
C521 C 0.72111 0.80305 0.75775 0.0
H522 H 0.73036 0.86316 0.75362 0.0
H523 H 0.79422 0.63918 0.7584 0.0
H524 H 0.744 0.34777 0.78143 0.0
H525 H 0.76018 0.32543 0.74799 0.0
H526 H 0.67907 0.30204 0.71983 0.0
H527 H 0.66276 0.3244 0.75415 0.0
H528 H 0.70275 0.26559 0.72822 0.0
H529 H 0.72642 0.33249 0.68143 0.0
H530 H 0.74318 0.37385 0.67202 0.0
H531 H 0.82207 0.36358 0.6994 0.0
H532 H 0.80577 0.3223 0.70944 0.0
H533 H 0.78361 0.1865 0.67022 0.0
H534 H 0.75542 0.21853 0.6691 0.0
H535 H 0.80535 0.25542 0.7294 0.0
H536 H 0.83293 0.22333 0.73113 0.0
H537 H 0.78775 0.28499 0.68688 0.0
H538 H 0.75513 0.22312 0.74627 0.0
H539 H 0.73724 0.18187 0.75534 0.0
H540 H 0.67279 0.18386 0.69989 0.0
H541 H 0.69056 0.22507 0.69029 0.0
C542 C 0.72965 0.33868 0.76748 0.0
C543 C 0.7022 0.33777 0.77027 0.0
C544 C 0.73891 0.32596 0.74818 0.0
C545 C 0.72092 0.31206 0.73112 0.0
C546 C 0.69336 0.31271 0.73266 0.0
C547 C 0.68404 0.32561 0.7521 0.0
C548 C 0.73113 0.29386 0.71538 0.0
C549 C 0.72075 0.26997 0.71831 0.0
C550 C 0.75464 0.29933 0.70232 0.0
C551 C 0.76481 0.32418 0.69618 0.0
C552 C 0.74733 0.33905 0.68558 0.0
C553 C 0.75676 0.36251 0.68012 0.0
C554 C 0.78368 0.37133 0.68509 0.0
C555 C 0.80123 0.3567 0.69551 0.0
C556 C 0.79191 0.33323 0.70103 0.0
C557 C 0.7887 0.20162 0.68299 0.0
C558 C 0.81025 0.20237 0.70095 0.0
C559 C 0.77267 0.21987 0.68228 0.0
C560 C 0.77843 0.23933 0.6991 0.0
C561 C 0.80072 0.24062 0.71615 0.0
C562 C 0.8163 0.22219 0.71727 0.0
C563 C 0.76002 0.25728 0.70115 0.0
C564 C 0.769 0.28091 0.69569 0.0
C565 C 0.735 0.25164 0.71147 0.0
C566 C 0.72435 0.22698 0.71733 0.0
C567 C 0.73729 0.21467 0.73586 0.0
C568 C 0.72715 0.19133 0.74113 0.0
C569 C 0.70395 0.18022 0.72813 0.0
C570 C 0.6908 0.19246 0.70989 0.0
C571 C 0.70089 0.2158 0.70453 0.0
H572 H 0.69612 0.16215 0.73224 0.0
H573 H 0.79093 0.3895 0.68086 0.0
H574 H 0.21809 0.3402 0.75976 0.0
H575 H 0.24595 0.30967 0.76882 0.0
H576 H 0.24781 0.29397 0.6899 0.0
H577 H 0.21913 0.32466 0.68044 0.0
H578 H 0.23639 0.25418 0.71666 0.0
H579 H 0.30381 0.32146 0.72295 0.0
H580 H 0.32399 0.36184 0.73656 0.0
H581 H 0.32254 0.34158 0.81341 0.0
H582 H 0.302 0.30116 0.8003 0.0
H583 H 0.31717 0.16704 0.75023 0.0
H584 H 0.30361 0.20256 0.73112 0.0
H585 H 0.30138 0.23457 0.80453 0.0
H586 H 0.31665 0.19949 0.82361 0.0
H587 H 0.31774 0.26732 0.77423 0.0
H588 H 0.24376 0.20345 0.7691 0.0
H589 H 0.22121 0.16338 0.75699 0.0
H590 H 0.23282 0.17765 0.67962 0.0
H591 H 0.25572 0.21772 0.69132 0.0
C592 C 0.22447 0.33049 0.74415 0.0
C593 C 0.21622 0.33495 0.71929 0.0
C594 C 0.24067 0.31308 0.74944 0.0
C595 C 0.24937 0.29977 0.73006 0.0
C596 C 0.24145 0.30418 0.70515 0.0
C597 C 0.2251 0.32172 0.69977 0.0
C598 C 0.26519 0.28029 0.73637 0.0
C599 C 0.25456 0.25709 0.72874 0.0
C600 C 0.28852 0.28405 0.75267 0.0
C601 C 0.30126 0.30827 0.76062 0.0
C602 C 0.30767 0.32563 0.74276 0.0
C603 C 0.31919 0.34853 0.75039 0.0
C604 C 0.32453 0.35427 0.77583 0.0
C605 C 0.31842 0.3371 0.7937 0.0
C606 C 0.30689 0.31418 0.78618 0.0
C607 C 0.31413 0.18183 0.76224 0.0
C608 C 0.31764 0.1805 0.78838 0.0
C609 C 0.30621 0.20206 0.75132 0.0
C610 C 0.30061 0.22101 0.76636 0.0
C611 C 0.30538 0.22015 0.79249 0.0
C612 C 0.31407 0.20012 0.80341 0.0
C613 C 0.28854 0.24112 0.75506 0.0
C614 C 0.29986 0.26442 0.76177 0.0
C615 C 0.26564 0.23747 0.73813 0.0
C616 C 0.25169 0.21346 0.7311 0.0
C617 C 0.24163 0.19798 0.74952 0.0
C618 C 0.22877 0.17528 0.74273 0.0
C619 C 0.22565 0.16795 0.71756 0.0
C620 C 0.23529 0.18334 0.69911 0.0
C621 C 0.24819 0.20604 0.70581 0.0
H622 H 0.21571 0.15036 0.71234 0.0
H623 H 0.33341 0.37202 0.7817 0.0
H624 H 0.12245 0.93162 0.29323 0.0
H625 H 0.12037 0.96684 0.268 0.0
H626 H 0.2039 0.96924 0.2549 0.0
H627 H 0.2063 0.93483 0.28132 0.0
H628 H 0.19575 0.01152 0.26083 0.0
H629 H 0.1479 0.94763 0.2096 0.0
H630 H 0.1135 0.91327 0.19956 0.0
H631 H 0.05191 0.95644 0.21155 0.0
H632 H 0.08596 0.991 0.22196 0.0
H633 H 0.19748 0.08754 0.1564 0.0
H634 H 0.19825 0.05316 0.18311 0.0
H635 H 0.11835 0.05926 0.20344 0.0
H636 H 0.11738 0.09362 0.1765 0.0
H637 H 0.12389 0.01337 0.19411 0.0
H638 H 0.1732 0.0777 0.2438 0.0
H639 H 0.20842 0.11171 0.25235 0.0
H640 H 0.26854 0.06676 0.24126 0.0
H641 H 0.23365 0.03254 0.23231 0.0
C642 C 0.14039 0.93968 0.285 0.0
C643 C 0.16453 0.9303 0.28927 0.0
C644 C 0.13915 0.9598 0.27033 0.0
C645 C 0.16182 0.97067 0.25883 0.0
C646 C 0.18602 0.96138 0.26336 0.0
C647 C 0.18739 0.94159 0.27849 0.0
C648 C 0.16051 0.99174 0.24232 0.0
C649 C 0.18019 0.01165 0.24603 0.0
C650 C 0.13997 0.99254 0.2232 0.0
C651 C 0.11948 0.97183 0.21679 0.0
C652 C 0.12702 0.94975 0.21024 0.0
C653 C 0.10759 0.93025 0.20446 0.0
C654 C 0.08054 0.93266 0.20498 0.0
C655 C 0.07287 0.9546 0.21119 0.0
C656 C 0.09222 0.97415 0.21701 0.0
C657 C 0.18003 0.0816 0.16652 0.0
C658 C 0.15739 0.09349 0.16429 0.0
C659 C 0.18054 0.06193 0.18194 0.0
C660 C 0.15849 0.05363 0.19567 0.0
C661 C 0.13568 0.06525 0.19316 0.0
C662 C 0.13517 0.08498 0.17776 0.0
C663 C 0.15921 0.03288 0.21255 0.0
C664 C 0.13942 0.01311 0.20892 0.0
C665 C 0.1798 0.0321 0.23155 0.0
C666 C 0.2008 0.05261 0.23717 0.0
C667 C 0.19393 0.0751 0.24302 0.0
C668 C 0.21383 0.09441 0.24796 0.0
C669 C 0.2407 0.09141 0.24729 0.0
C670 C 0.24772 0.06907 0.24175 0.0
C671 C 0.22789 0.04971 0.23677 0.0
H672 H 0.25608 0.10638 0.25111 0.0
H673 H 0.06553 0.91754 0.20051 0.0
H674 H 0.82618 0.41275 0.16656 0.0
H675 H 0.82798 0.44715 0.19485 0.0
H676 H 0.90452 0.43376 0.2267 0.0
H677 H 0.90286 0.39914 0.19825 0.0
H678 H 0.87111 0.44527 0.26336 0.0
H679 H 0.90203 0.47792 0.18699 0.0
H680 H 0.90065 0.48436 0.14153 0.0
H681 H 0.82693 0.51322 0.14562 0.0
H682 H 0.82767 0.50664 0.19107 0.0
H683 H 0.89532 0.56107 0.32615 0.0
H684 H 0.89833 0.5243 0.30227 0.0
H685 H 0.82637 0.53343 0.25844 0.0
H686 H 0.82361 0.57004 0.28173 0.0
H687 H 0.86214 0.52411 0.22833 0.0
H688 H 0.82959 0.48965 0.30398 0.0
H689 H 0.83013 0.48274 0.34935 0.0
H690 H 0.90595 0.45726 0.34679 0.0
H691 H 0.90602 0.46431 0.30143 0.0
C692 C 0.84346 0.41707 0.17953 0.0
C693 C 0.86445 0.40317 0.17997 0.0
C694 C 0.84448 0.43684 0.19573 0.0
C695 C 0.86649 0.44329 0.21287 0.0
C696 C 0.88732 0.42923 0.21367 0.0
C697 C 0.8864 0.40949 0.19729 0.0
C698 C 0.86769 0.46489 0.22956 0.0
C699 C 0.86957 0.46259 0.25571 0.0
C700 C 0.86527 0.48751 0.21973 0.0
C701 C 0.8648 0.49159 0.19241 0.0
C702 C 0.88542 0.48547 0.17816 0.0
C703 C 0.88477 0.48917 0.1524 0.0
C704 C 0.86368 0.49914 0.14068 0.0
C705 C 0.84324 0.50548 0.15472 0.0
C706 C 0.84378 0.50178 0.18049 0.0
C707 C 0.87994 0.55499 0.3117 0.0
C708 C 0.85926 0.56859 0.30587 0.0
C709 C 0.88166 0.53393 0.298 0.0
C710 C 0.86259 0.52591 0.27837 0.0
C711 C 0.8415 0.53916 0.27324 0.0
C712 C 0.83987 0.56013 0.28674 0.0
C713 C 0.8649 0.5045 0.26225 0.0
C714 C 0.86379 0.50685 0.2361 0.0
C715 C 0.86793 0.48198 0.27213 0.0
C716 C 0.86795 0.47778 0.29938 0.0
C717 C 0.84649 0.48277 0.31313 0.0
C718 C 0.84666 0.47879 0.33883 0.0
C719 C 0.8681 0.46964 0.35096 0.0
C720 C 0.88938 0.46439 0.33738 0.0
C721 C 0.88932 0.46836 0.31168 0.0
H722 H 0.8682 0.46656 0.37085 0.0
H723 H 0.86321 0.50199 0.12073 0.0
H724 H 0.32376 0.13651 0.90224 0.0
H725 H 0.29918 0.14023 0.93974 0.0
H726 H 0.2332 0.09165 0.90667 0.0
H727 H 0.25738 0.08824 0.86896 0.0
H728 H 0.2141 0.12699 0.927 0.0
H729 H 0.27621 0.07616 0.9561 0.0
H730 H 0.3202 0.0629 0.96435 0.0
H731 H 0.34579 0.12474 0.01119 0.0
H732 H 0.30205 0.13854 1.00294 0.0
H733 H 0.14866 0.11306 0.04447 0.0
H734 H 0.17051 0.10572 0.00571 0.0
H735 H 0.23486 0.16099 0.0278 0.0
H736 H 0.21319 0.1686 0.06597 0.0
H737 H 0.25327 0.11957 0.01313 0.0
H738 H 0.19052 0.17041 0.98222 0.0
H739 H 0.14584 0.18236 0.97422 0.0
H740 H 0.1206 0.11808 0.93113 0.0
H741 H 0.16506 0.10559 0.93918 0.0
C742 C 0.30418 0.12633 0.90302 0.0
C743 C 0.29273 0.112 0.8824 0.0
C744 C 0.29007 0.12846 0.92459 0.0
C745 C 0.26423 0.11611 0.92634 0.0
C746 C 0.25298 0.10148 0.90595 0.0
C747 C 0.267 0.09943 0.88435 0.0
C748 C 0.24865 0.11896 0.949 0.0
C749 C 0.2226 0.12495 0.94579 0.0
C750 C 0.25958 0.11669 0.97372 0.0
C751 C 0.28593 0.1085 0.9787 0.0
C752 C 0.29129 0.08703 0.968 0.0
C753 C 0.31617 0.0794 0.9727 0.0
C754 C 0.3358 0.093 0.98823 0.0
C755 C 0.33057 0.11424 0.99913 0.0
C756 C 0.30573 0.12197 0.99447 0.0
C757 C 0.16725 0.12385 0.04086 0.0
C758 C 0.17908 0.14143 0.05842 0.0
C759 C 0.17979 0.11961 0.01871 0.0
C760 C 0.20449 0.13272 0.01379 0.0
C761 C 0.21596 0.15051 0.03112 0.0
C762 C 0.20338 0.15492 0.05297 0.0
C763 C 0.21895 0.12777 0.99105 0.0
C764 C 0.24478 0.12141 0.99429 0.0
C765 C 0.20773 0.12947 0.96639 0.0
C766 C 0.18101 0.13694 0.96156 0.0
C767 C 0.17537 0.15872 0.97124 0.0
C768 C 0.1501 0.16561 0.96666 0.0
C769 C 0.13037 0.15095 0.95225 0.0
C770 C 0.13589 0.1294 0.94234 0.0
C771 C 0.16112 0.12241 0.94689 0.0
H772 H 0.11082 0.15633 0.94871 0.0
H773 H 0.35505 0.08706 0.99186 0.0
H774 H 0.86409 0.37471 0.05279 0.0
H775 H 0.83795 0.38182 0.01408 0.0
H776 H 0.76577 0.35203 0.04741 0.0
H777 H 0.79176 0.34349 0.0848 0.0
H778 H 0.76026 0.3372 1.00434 0.0
H779 H 0.78798 0.41593 0.0379 0.0
H780 H 0.81969 0.45033 0.05394 0.0
H781 H 0.85695 0.45391 0.98389 0.0
H782 H 0.82565 0.41933 0.96753 0.0
H783 H 0.66914 0.3829 0.91442 0.0
H784 H 0.69585 0.38147 0.95439 0.0
H785 H 0.76717 0.38278 0.91411 0.0
H786 H 0.74072 0.38339 0.87453 0.0
H787 H 0.77217 0.41343 0.96022 0.0
H788 H 0.74216 0.33268 0.92877 0.0
H789 H 0.70716 0.30021 0.91404 0.0
H790 H 0.67005 0.30343 0.98384 0.0
H791 H 0.70462 0.33622 0.99881 0.0
C792 C 0.84267 0.3696 0.05167 0.0
C793 C 0.8301 0.35837 0.07183 0.0
C794 C 0.82761 0.37388 0.02961 0.0
C795 C 0.79956 0.36781 0.02764 0.0
C796 C 0.78723 0.35679 0.04802 0.0
C797 C 0.80224 0.35193 0.06957 0.0
C798 C 0.78277 0.37227 0.0045 0.0
C799 C 0.76276 0.3541 0.99511 0.0
C800 C 0.78582 0.39412 0.99183 0.0
C801 C 0.80466 0.41489 1.00159 0.0
C802 C 0.80306 0.42396 0.02598 0.0
C803 C 0.82094 0.4435 0.03512 0.0
C804 C 0.84037 0.45425 0.01997 0.0
C805 C 0.84192 0.44553 0.99562 0.0
C806 C 0.8241 0.42597 0.9864 0.0
C807 C 0.69055 0.38326 0.91422 0.0
C808 C 0.70284 0.38319 0.89138 0.0
C809 C 0.70579 0.3824 0.937 0.0
C810 C 0.73357 0.38204 0.93724 0.0
C811 C 0.74588 0.38316 0.91446 0.0
C812 C 0.73067 0.3834 0.89183 0.0
C813 C 0.74975 0.37859 0.96078 0.0
C814 C 0.76968 0.39677 0.96992 0.0
C815 C 0.74625 0.35702 0.97364 0.0
C816 C 0.72578 0.33706 0.96479 0.0
C817 C 0.72641 0.32659 0.94089 0.0
C818 C 0.70667 0.30811 0.93251 0.0
C819 C 0.68635 0.29981 0.94796 0.0
C820 C 0.68578 0.30991 0.97187 0.0
C821 C 0.70543 0.32844 0.98031 0.0
H822 H 0.67108 0.2855 0.94144 0.0
H823 H 0.8542 0.46938 0.02708 0.0
H824 H 0.34938 0.89867 0.56943 0.0
H825 H 0.32355 0.90523 0.5303 0.0
H826 H 0.29761 0.83007 0.52213 0.0
H827 H 0.32255 0.82354 0.56145 0.0
H828 H 0.31552 0.85554 0.4761 0.0
H829 H 0.25653 0.85848 0.5445 0.0
H830 H 0.2444 0.87443 0.58472 0.0
H831 H 0.24859 0.94406 0.55428 0.0
H832 H 0.26117 0.92856 0.51396 0.0
H833 H 0.20901 0.8397 0.38674 0.0
H834 H 0.237 0.83896 0.42521 0.0
H835 H 0.23145 0.91293 0.43948 0.0
H836 H 0.20189 0.91326 0.40132 0.0
H837 H 0.23301 0.89292 0.48196 0.0
H838 H 0.28823 0.89216 0.41358 0.0
H839 H 0.3029 0.87921 0.37308 0.0
H840 H 0.31004 0.81037 0.40221 0.0
H841 H 0.29506 0.8228 0.44279 0.0
C842 C 0.33861 0.88353 0.55899 0.0
C843 C 0.33811 0.86056 0.56843 0.0
C844 C 0.3237 0.88732 0.53676 0.0
C845 C 0.30852 0.86815 0.52334 0.0
C846 C 0.30914 0.84512 0.53213 0.0
C847 C 0.32345 0.84141 0.55459 0.0
C848 C 0.29102 0.87192 0.50073 0.0
C849 C 0.29739 0.86357 0.47735 0.0
C850 C 0.26786 0.88317 0.5022 0.0
C851 C 0.26012 0.89242 0.52634 0.0
C852 C 0.25513 0.87723 0.54647 0.0
C853 C 0.24811 0.88618 0.56926 0.0
C854 C 0.24581 0.91026 0.57208 0.0
C855 C 0.25044 0.92543 0.55208 0.0
C856 C 0.2575 0.91657 0.52926 0.0
C857 C 0.21346 0.85577 0.39819 0.0
C858 C 0.20335 0.87659 0.39086 0.0
C859 C 0.22977 0.85541 0.42016 0.0
C860 C 0.23735 0.87611 0.43502 0.0
C861 C 0.22626 0.89673 0.42833 0.0
C862 C 0.20928 0.89692 0.40653 0.0
C863 C 0.2571 0.87604 0.4571 0.0
C864 C 0.25124 0.8851 0.48045 0.0
C865 C 0.28113 0.86591 0.4555 0.0
C866 C 0.29032 0.85837 0.43118 0.0
C867 C 0.29278 0.87422 0.4113 0.0
C868 C 0.30116 0.86697 0.38834 0.0
C869 C 0.30735 0.84397 0.38506 0.0
C870 C 0.30523 0.82818 0.40477 0.0
C871 C 0.29682 0.83532 0.42777 0.0
H872 H 0.31383 0.8384 0.36727 0.0
H873 H 0.24037 0.91716 0.58974 0.0
H874 H 0.6486 0.612 0.54402 0.0
H875 H 0.66967 0.60509 0.50487 0.0
H876 H 0.73191 0.66298 0.52466 0.0
H877 H 0.7106 0.67037 0.56306 0.0
H878 H 0.72059 0.66439 0.47741 0.0
H879 H 0.73892 0.60171 0.53262 0.0
H880 H 0.72736 0.56771 0.55973 0.0
H881 H 0.68321 0.52877 0.4978 0.0
H882 H 0.69425 0.56267 0.47039 0.0
H883 H 0.82204 0.6373 0.4003 0.0
H884 H 0.79694 0.6419 0.43734 0.0
H885 H 0.73353 0.58928 0.40686 0.0
H886 H 0.75846 0.58453 0.36975 0.0
H887 H 0.74308 0.58425 0.45763 0.0
H888 H 0.72847 0.64659 0.40178 0.0
H889 H 0.74204 0.6803 0.37502 0.0
H890 H 0.7803 0.7204 0.43893 0.0
H891 H 0.76771 0.68659 0.46603 0.0
C892 C 0.66656 0.62344 0.53982 0.0
C893 C 0.67789 0.64169 0.55681 0.0
C894 C 0.67879 0.61934 0.5175 0.0
C895 C 0.70283 0.63319 0.51182 0.0
C896 C 0.71351 0.65193 0.52841 0.0
C897 C 0.70124 0.65613 0.55051 0.0
C898 C 0.71737 0.62812 0.48907 0.0
C899 C 0.72571 0.64689 0.47333 0.0
C900 C 0.72373 0.60521 0.48314 0.0
C901 C 0.71716 0.58481 0.49954 0.0
C902 C 0.72659 0.58595 0.52484 0.0
C903 C 0.72016 0.56669 0.54024 0.0
C904 C 0.70449 0.54612 0.53051 0.0
C905 C 0.6953 0.54473 0.50532 0.0
C906 C 0.70165 0.56395 0.48984 0.0
C907 C 0.80295 0.62641 0.40157 0.0
C908 C 0.79234 0.61059 0.38183 0.0
C909 C 0.78849 0.62919 0.42276 0.0
C910 C 0.76308 0.61619 0.42484 0.0
C911 C 0.753 0.59959 0.40574 0.0
C912 C 0.76734 0.59692 0.38446 0.0
C913 C 0.74662 0.6206 0.44637 0.0
C914 C 0.73789 0.60172 0.46177 0.0
C915 C 0.74005 0.64344 0.4521 0.0
C916 C 0.74736 0.66394 0.43591 0.0
C917 C 0.73998 0.66251 0.41012 0.0
C918 C 0.74746 0.68166 0.39488 0.0
C919 C 0.76197 0.70251 0.40525 0.0
C920 C 0.76906 0.70423 0.43091 0.0
C921 C 0.7618 0.68506 0.44622 0.0
H922 H 0.7677 0.71733 0.39341 0.0
H923 H 0.69953 0.53123 0.54246 0.0
H924 H 0.89395 0.26173 0.09985 0.0
H925 H 0.9345 0.24315 0.09991 0.0
H926 H 0.9803 0.30757 0.13046 0.0
H927 H 0.93936 0.3265 0.1307 0.0
H928 H 1.00452 0.28676 0.09054 0.0
H929 H 0.96695 0.26189 0.16776 0.0
H930 H 0.93112 0.2445 0.19378 0.0
H931 H 0.92515 0.17852 0.15237 0.0
H932 H 0.9607 0.19563 0.12585 0.0
H933 H 0.12402 0.2385 0.11543 0.0
H934 H 0.08423 0.25775 0.11822 0.0
H935 H 0.03492 0.19006 0.10651 0.0
H936 H 0.07527 0.17042 0.1054 0.0
H937 H 0.01202 0.21314 0.13718 0.0
H938 H 0.04658 0.23646 0.05883 0.0
H939 H 0.08029 0.25282 0.03011 0.0
H940 H 0.08954 0.31998 0.06967 0.0
H941 H 0.05611 0.30394 0.09883 0.0
C942 C 0.91256 0.27215 0.10658 0.0
C943 C 0.91312 0.29579 0.11529 0.0
C944 C 0.93585 0.26134 0.1067 0.0
C945 C 0.96061 0.27375 0.11541 0.0
C946 C 0.96148 0.2975 0.12371 0.0
C947 C 0.938 0.30833 0.12387 0.0
C948 C 0.98535 0.26179 0.11562 0.0
C949 C 1.00636 0.27089 0.10108 0.0
C950 C 0.9875 0.24051 0.12857 0.0
C951 C 0.96635 0.23011 0.14468 0.0
C952 C 0.95787 0.24372 0.16409 0.0
C953 C 0.93763 0.23391 0.17894 0.0
C954 C 0.92583 0.21044 0.17469 0.0
C955 C 0.9343 0.19671 0.15563 0.0
C956 C 0.95452 0.20644 0.1407 0.0
C957 C 0.10472 0.22762 0.11335 0.0
C958 C 0.10297 0.20286 0.10982 0.0
C959 C 0.08179 0.23876 0.11476 0.0
C960 C 0.05612 0.2257 0.11173 0.0
C961 C 0.05429 0.2008 0.1087 0.0
C962 C 0.07741 0.18951 0.10798 0.0
C963 C 0.03148 0.23805 0.11202 0.0
C964 C 0.01038 0.22902 0.12663 0.0
C965 C 0.02901 0.25919 0.09873 0.0
C966 C 0.04902 0.26893 0.08114 0.0
C967 C 0.05592 0.25468 0.06149 0.0
C968 C 0.07496 0.2639 0.04512 0.0
C969 C 0.08709 0.2874 0.0481 0.0
C970 C 0.08015 0.30176 0.0674 0.0
C971 C 0.06113 0.29263 0.08384 0.0
H972 H 0.10184 0.2945 0.03541 0.0
H973 H 0.91014 0.20288 0.18621 0.0
H974 H 0.9358 0.66565 0.30114 0.0
H975 H 0.97514 0.696 0.30448 0.0
H976 H 0.95091 0.72054 0.37515 0.0
H977 H 0.91221 0.68978 0.3723 0.0
H978 H 0.98348 0.74182 0.30549 0.0
H979 H 1.00373 0.74295 0.41333 0.0
H980 H 0.99817 0.7156 0.44849 0.0
H981 H 0.99995 0.65622 0.39834 0.0
H982 H 1.00585 0.68323 0.36296 0.0
H983 H 0.08673 0.83881 0.33538 0.0
H984 H 0.04428 0.81221 0.33483 0.0
H985 H 0.08629 0.75541 0.36111 0.0
H986 H 0.12803 0.78183 0.36285 0.0
H987 H 0.04373 0.75119 0.38249 0.0
H988 H 0.06366 0.76292 0.29638 0.0
H989 H 0.07333 0.78628 0.25881 0.0
H990 H 0.99811 0.81286 0.26123 0.0
H991 H 0.98814 0.78986 0.29901 0.0
C992 C 0.93896 0.67742 0.31747 0.0
C993 C 0.92094 0.67506 0.33657 0.0
C994 C 0.96142 0.6949 0.31931 0.0
C995 C 0.96639 0.71055 0.34023 0.0
C996 C 0.94806 0.70847 0.35906 0.0
C997 C 0.9258 0.69085 0.35737 0.0
C998 C 0.99078 0.72882 0.34247 0.0
C999 C 0.9966 0.74386 0.32237 0.0
C1000 C 0.00832 0.73149 0.36429 0.0
C1001 C 1.00491 0.71511 0.38547 0.0
C1002 C 1.00299 0.72407 0.40983 0.0
C1003 C 0.99978 0.70862 0.42979 0.0
C1004 C 0.9986 0.68419 0.42564 0.0
C1005 C 1.00074 0.67515 0.40152 0.0
C1006 C 1.00399 0.69051 0.3815 0.0
C1007 C 0.08684 0.82075 0.34138 0.0
C1008 C 0.11102 0.81263 0.34912 0.0
C1009 C 0.06253 0.80542 0.34082 0.0
C1010 C 0.06188 0.78148 0.3475 0.0
C1011 C 0.08593 0.77367 0.35588 0.0
C1012 C 0.11 0.78896 0.3568 0.0
C1013 C 0.03662 0.76418 0.34545 0.0
C1014 C 0.03054 0.74932 0.36565 0.0
C1015 C 0.0194 0.76115 0.3234 0.0
C1016 C 0.02529 0.77489 0.30065 0.0
C1017 C 0.04927 0.77387 0.28898 0.0
C1018 C 0.05479 0.78703 0.26764 0.0
C1019 C 0.03638 0.8011 0.25768 0.0
C1020 C 0.01237 0.80199 0.269 0.0
C1021 C 0.00676 0.78889 0.29036 0.0
H1022 H 0.04069 0.81128 0.24117 0.0
H1023 H 0.99611 0.67226 0.44111 0.0
H1024 H 0.57567 0.67128 0.60647 0.0
H1025 H 0.53567 0.69148 0.60825 0.0
H1026 H 0.58539 0.75922 0.61292 0.0
H1027 H 0.62505 0.73942 0.61036 0.0
H1028 H 0.54282 0.75224 0.64932 0.0
H1029 H 0.55706 0.74691 0.56084 0.0
H1030 H 0.56318 0.72556 0.52159 0.0
H1031 H 0.4871 0.68304 0.52687 0.0
H1032 H 0.48072 0.70393 0.56639 0.0
H1033 H 0.44246 0.8294 0.6303 0.0
H1034 H 0.48312 0.81023 0.62972 0.0
H1035 H 0.43673 0.74657 0.5977 0.0
H1036 H 0.39679 0.76572 0.59724 0.0
H1037 H 0.47876 0.75149 0.57551 0.0
H1038 H 0.46278 0.75456 0.66263 0.0
H1039 H 0.45541 0.77305 0.70317 0.0
H1040 H 0.53196 0.81581 0.70285 0.0
H1041 H 0.53965 0.79778 0.66212 0.0
C1042 C 0.57806 0.69046 0.60783 0.0
C1043 C 0.60368 0.70365 0.60803 0.0
C1044 C 0.55517 0.70201 0.60887 0.0
C1045 C 0.55744 0.72695 0.61078 0.0
C1046 C 0.58301 0.74003 0.61153 0.0
C1047 C 0.60572 0.7286 0.60987 0.0
C1048 C 0.53333 0.73959 0.61134 0.0
C1049 C 0.52889 0.75226 0.63313 0.0
C1050 C 0.51479 0.73929 0.59047 0.0
C1051 C 0.51857 0.72678 0.56671 0.0
C1052 C 0.54176 0.73285 0.55377 0.0
C1053 C 0.54525 0.72087 0.53144 0.0
C1054 C 0.52558 0.7029 0.52179 0.0
C1055 C 0.50234 0.69693 0.5344 0.0
C1056 C 0.49877 0.70884 0.55675 0.0
C1057 C 0.44097 0.81135 0.62307 0.0
C1058 C 0.41614 0.7993 0.61372 0.0
C1059 C 0.46429 0.80026 0.6229 0.0
C1060 C 0.46329 0.77664 0.6139 0.0
C1061 C 0.43846 0.76474 0.60462 0.0
C1062 C 0.41541 0.77585 0.60444 0.0
C1063 C 0.48777 0.76413 0.61371 0.0
C1064 C 0.49245 0.7515 0.59188 0.0
C1065 C 0.50622 0.7641 0.63477 0.0
C1066 C 0.50165 0.77503 0.65919 0.0
C1067 C 0.47795 0.76805 0.67111 0.0
C1068 C 0.47373 0.77842 0.69414 0.0
C1069 C 0.49317 0.79565 0.70554 0.0
C1070 C 0.5169 0.8025 0.69397 0.0
C1071 C 0.52121 0.7922 0.67092 0.0
H1072 H 0.48987 0.80365 0.72337 0.0
H1073 H 0.52831 0.69365 0.5045 0.0
H1074 H 0.87975 0.0703 0.6948 0.0
H1075 H 0.88269 0.03658 0.72238 0.0
H1076 H 0.84262 0.07115 0.77846 0.0
H1077 H 0.84056 0.105 0.75149 0.0
H1078 H 0.87877 0.05133 0.80141 0.0
H1079 H 0.81106 0.0237 0.73688 0.0
H1080 H 0.79245 0.01476 0.69362 0.0
H1081 H 0.85017 0.96733 0.68296 0.0
H1082 H 0.86935 0.97623 0.7261 0.0
H1083 H 0.82111 0.95241 0.86944 0.0
H1084 H 0.82952 0.98623 0.84205 0.0
H1085 H 0.88453 0.95004 0.80264 0.0
H1086 H 0.87657 0.91616 0.83041 0.0
H1087 H 0.8456 0.96939 0.77057 0.0
H1088 H 0.90974 0.99506 0.8381 0.0
H1089 H 0.92556 1.00369 0.88216 0.0
H1090 H 0.87096 0.05477 0.88787 0.0
H1091 H 0.85452 0.04619 0.84392 0.0
C1092 C 0.87179 0.07078 0.7131 0.0
C1093 C 0.85986 0.09043 0.72082 0.0
C1094 C 0.87327 0.05135 0.72885 0.0
C1095 C 0.86246 0.05089 0.75255 0.0
C1096 C 0.85114 0.07082 0.7604 0.0
C1097 C 0.84991 0.09026 0.74483 0.0
C1098 C 0.86247 0.02979 0.76919 0.0
C1099 C 0.87127 0.03348 0.79458 0.0
C1100 C 0.85329 1.0062 0.76052 0.0
C1101 C 0.84184 1.00085 0.7346 0.0
C1102 C 0.81991 0.01151 0.72524 0.0
C1103 C 0.80924 1.00642 0.70076 0.0
C1104 C 0.82018 0.99055 0.68552 0.0
C1105 C 0.84176 0.97967 0.69477 0.0
C1106 C 0.85253 0.98471 0.71923 0.0
C1107 C 0.83529 0.95171 0.85518 0.0
C1108 C 0.84823 0.9315 0.85228 0.0
C1109 C 0.84009 0.97112 0.83949 0.0
C1110 C 0.85767 0.9708 0.82019 0.0
C1111 C 0.87087 0.95078 0.81736 0.0
C1112 C 0.86646 0.93147 0.8334 0.0
C1113 C 0.86147 0.99112 0.80268 0.0
C1114 C 0.85333 0.98725 0.77721 0.0
C1115 C 0.87088 0.01459 0.81134 0.0
C1116 C 0.88074 0.01982 0.83777 0.0
C1117 C 0.90094 0.00798 0.84881 0.0
C1118 C 0.91005 0.0129 0.87376 0.0
C1119 C 0.89923 0.02973 0.88783 0.0
C1120 C 0.87931 0.04172 0.87696 0.0
C1121 C 0.8701 0.03686 0.85202 0.0
H1122 H 0.90632 0.03351 0.90714 0.0
H1123 H 0.81188 0.98663 0.66658 0.0
H1124 H 0.19599 0.59213 0.84311 0.0
H1125 H 0.18805 0.55916 0.81297 0.0
H1126 H 0.10503 0.56827 0.80379 0.0
H1127 H 0.11285 0.60194 0.83406 0.0
H1128 H 0.11382 0.51975 0.80724 0.0
H1129 H 0.14167 0.5869 0.75916 0.0
H1130 H 0.16982 0.62383 0.74889 0.0
H1131 H 0.23727 0.58601 0.74433 0.0
H1132 H 0.20963 0.54891 0.75497 0.0
H1133 H 0.14105 0.45792 0.67863 0.0
H1134 H 0.13348 0.49339 0.70282 0.0
H1135 H 0.15475 0.45971 0.77127 0.0
H1136 H 0.16211 0.42464 0.74751 0.0
H1137 H 0.16783 0.52349 0.73269 0.0
H1138 H 0.12161 0.4771 0.81907 0.0
H1139 H 0.09162 0.44084 0.82815 0.0
H1140 H 0.05631 0.43855 0.75307 0.0
H1141 H 0.0858 0.47498 0.74363 0.0
C1142 C 0.17589 0.5872 0.83494 0.0
C1143 C 0.15507 0.59996 0.84117 0.0
C1144 C 0.17145 0.56828 0.81751 0.0
C1145 C 0.14603 0.56133 0.80579 0.0
C1146 C 0.12487 0.57335 0.81249 0.0
C1147 C 0.12937 0.59261 0.82985 0.0
C1148 C 0.14217 0.54169 0.78639 0.0
C1149 C 0.12548 0.52062 0.79086 0.0
C1150 C 0.15688 0.5429 0.76462 0.0
C1151 C 0.17359 0.56514 0.75804 0.0
C1152 C 0.16255 0.58648 0.75616 0.0
C1153 C 0.17841 0.60745 0.75024 0.0
C1154 C 0.20532 0.60727 0.746 0.0
C1155 C 0.21642 0.58612 0.74762 0.0
C1156 C 0.20065 0.56511 0.75357 0.0
C1157 C 0.1437 0.458 0.69885 0.0
C1158 C 0.15211 0.43834 0.71107 0.0
C1159 C 0.13951 0.47833 0.71268 0.0
C1160 C 0.14326 0.47927 0.73901 0.0
C1161 C 0.15122 0.45945 0.75111 0.0
C1162 C 0.15555 0.43933 0.73738 0.0
C1163 C 0.14028 0.50115 0.75405 0.0
C1164 C 0.15582 0.52266 0.74884 0.0
C1165 C 0.12424 0.50041 0.77495 0.0
C1166 C 0.10607 0.47871 0.78061 0.0
C1167 C 0.10734 0.46895 0.80454 0.0
C1168 C 0.09044 0.44834 0.80974 0.0
C1169 C 0.07211 0.43737 0.79118 0.0
C1170 C 0.07057 0.44703 0.7674 0.0
C1171 C 0.0874 0.46764 0.76211 0.0
H1172 H 0.05908 0.4214 0.79523 0.0
H1173 H 0.21757 0.62352 0.74142 0.0
H1174 H 0.68286 0.86632 0.09863 0.0
H1175 H 0.71138 0.86694 0.0634 0.0
H1176 H 0.77639 0.90596 0.10891 0.0
H1177 H 0.7474 0.90625 0.14399 0.0
H1178 H 0.77852 0.92262 0.06461 0.0
H1179 H 0.77223 0.84394 0.09415 0.0
H1180 H 0.75036 0.80536 0.10782 0.0
H1181 H 0.70955 0.79231 0.03528 0.0
H1182 H 0.73091 0.83096 0.02126 0.0
H1183 H 0.8697 0.89351 0.97008 0.0
H1184 H 0.84819 0.89777 0.00983 0.0
H1185 H 0.77175 0.87132 0.97299 0.0
H1186 H 0.79268 0.86728 0.93382 0.0
H1187 H 0.7812 0.84791 0.01639 0.0
H1188 H 0.78778 0.92938 0.98888 0.0
H1189 H 0.81238 0.96739 0.97663 0.0
H1190 H 0.85699 0.97376 0.04774 0.0
H1191 H 0.83288 0.93561 0.06028 0.0
C1192 C 0.70321 0.87509 0.10118 0.0
C1193 C 0.71281 0.88612 0.12427 0.0
C1194 C 0.71967 0.8753 0.08098 0.0
C1195 C 0.74647 0.88602 0.08341 0.0
C1196 C 0.75594 0.89746 0.10637 0.0
C1197 C 0.73931 0.89757 0.12651 0.0
C1198 C 0.76438 0.88513 0.06204 0.0
C1199 C 0.77937 0.90616 0.05438 0.0
C1200 C 0.76584 0.86376 0.04842 0.0
C1201 C 0.75302 0.84044 0.05672 0.0
C1202 C 0.75846 0.83291 0.08116 0.0
C1203 C 0.74617 0.81102 0.08896 0.0
C1204 C 0.72854 0.79641 0.07244 0.0
C1205 C 0.7232 0.80365 0.04806 0.0
C1206 C 0.73542 0.82553 0.04016 0.0
C1207 C 0.84828 0.88896 0.97044 0.0
C1208 C 0.83303 0.87998 0.94865 0.0
C1209 C 0.83598 0.89135 0.99319 0.0
C1210 C 0.80825 0.88472 0.99455 0.0
C1211 C 0.79312 0.87639 0.97263 0.0
C1212 C 0.80524 0.87417 0.9501 0.0
C1213 C 0.7946 0.88544 0.01862 0.0
C1214 C 0.78048 0.8643 0.02683 0.0
C1215 C 0.79439 0.90658 0.03292 0.0
C1216 C 0.80875 0.92952 0.0254 0.0
C1217 C 0.803 0.93879 1.00182 0.0
C1218 C 0.81682 0.96038 0.99484 0.0
C1219 C 0.8363 0.97294 0.01136 0.0
C1220 C 0.84193 0.96398 0.03494 0.0
C1221 C 0.82819 0.94239 0.042 0.0
H1222 H 0.84697 0.98965 0.00592 0.0
H1223 H 0.71904 0.77947 0.07852 0.0
H1224 H 0.21084 0.66418 0.92928 0.0
H1225 H 0.23499 0.65563 0.96786 0.0
H1226 H 0.16182 0.62208 0.9964 0.0
H1227 H 0.1371 0.63111 0.95743 0.0
H1228 H 0.19095 0.65058 0.03202 0.0
H1229 H 0.20939 0.58883 0.97717 0.0
H1230 H 0.22273 0.57134 0.9382 0.0
H1231 H 0.30041 0.61218 0.94863 0.0
H1232 H 0.28743 0.63018 0.98749 0.0
H1233 H 0.26776 0.61222 0.13691 0.0
H1234 H 0.23763 0.61149 0.09923 0.0
H1235 H 0.30177 0.64743 0.05895 0.0
H1236 H 0.33197 0.64805 0.09641 0.0
H1237 H 0.2734 0.61256 0.03027 0.0
H1238 H 0.25346 0.67699 0.08249 0.0
H1239 H 0.24034 0.69512 0.12122 0.0
H1240 H 0.16554 0.64926 0.1156 0.0
H1241 H 0.17841 0.6306 0.07703 0.0
C1242 C 0.19974 0.6548 0.94358 0.0
C1243 C 0.17195 0.64822 0.94009 0.0
C1244 C 0.21371 0.64982 0.96573 0.0
C1245 C 0.20044 0.63785 0.98506 0.0
C1246 C 0.17261 0.63123 0.98175 0.0
C1247 C 0.1585 0.63628 0.95942 0.0
C1248 C 0.21589 0.63301 0.00874 0.0
C1249 C 0.20865 0.64179 0.03169 0.0
C1250 C 0.23936 0.62194 0.00843 0.0
C1251 C 0.24736 0.61096 0.98519 0.0
C1252 C 0.22927 0.59419 0.97109 0.0
C1253 C 0.23677 0.58417 0.94902 0.0
C1254 C 0.26239 0.59067 0.94093 0.0
C1255 C 0.28057 0.60716 0.95492 0.0
C1256 C 0.27317 0.61725 0.97699 0.0
C1257 C 0.27552 0.61979 0.11997 0.0
C1258 C 0.30233 0.63023 0.11975 0.0
C1259 C 0.2582 0.61948 0.09844 0.0
C1260 C 0.26725 0.62965 0.0762 0.0
C1261 C 0.29421 0.63947 0.0758 0.0
C1262 C 0.31149 0.63985 0.0973 0.0
C1263 C 0.24875 0.63053 0.05344 0.0
C1264 C 0.25548 0.62102 0.03066 0.0
C1265 C 0.22485 0.64091 0.05393 0.0
C1266 C 0.21703 0.65221 0.07703 0.0
C1267 C 0.23431 0.67064 0.08962 0.0
C1268 C 0.2269 0.68104 0.11153 0.0
C1269 C 0.20215 0.67331 0.1209 0.0
C1270 C 0.18473 0.6552 0.10835 0.0
C1271 C 0.19206 0.64471 0.08646 0.0
H1272 H 0.19644 0.68138 0.13786 0.0
H1273 H 0.26815 0.58291 0.92383 0.0
H1274 H 0.63515 0.14889 0.46564 0.0
H1275 H 0.65941 0.1418 0.5055 0.0
H1276 H 0.7242 0.1217 0.46494 0.0
H1277 H 0.70052 0.12945 0.42539 0.0
H1278 H 0.71097 0.09286 0.50887 0.0
H1279 H 0.73161 0.17448 0.48284 0.0
H1280 H 0.71943 0.21327 0.47019 0.0
H1281 H 0.68263 0.22046 0.53962 0.0
H1282 H 0.69425 0.18149 0.5525 0.0
H1283 H 0.82727 0.1546 0.59799 0.0
H1284 H 0.79566 0.15318 0.56149 0.0
H1285 H 0.73907 0.10487 0.59905 0.0
H1286 H 0.77064 0.10635 0.63586 0.0
H1287 H 0.74518 0.16651 0.55805 0.0
H1288 H 0.70324 0.06752 0.5518 0.0
H1289 H 0.71665 0.02879 0.5632 0.0
H1290 H 0.79898 0.05673 0.55695 0.0
H1291 H 0.78602 0.0955 0.5452 0.0
C1292 C 0.65421 0.1423 0.46528 0.0
C1293 C 0.66593 0.13964 0.44244 0.0
C1294 C 0.66812 0.13838 0.48803 0.0
C1295 C 0.69369 0.13126 0.48822 0.0
C1296 C 0.70451 0.12707 0.4653 0.0
C1297 C 0.69096 0.13154 0.4427 0.0
C1298 C 0.71048 0.13055 0.51199 0.0
C1299 C 0.71818 0.10891 0.51982 0.0
C1300 C 0.72027 0.1515 0.52611 0.0
C1301 C 0.71349 0.17497 0.51848 0.0
C1302 C 0.7207 0.18424 0.4953 0.0
C1303 C 0.71394 0.20627 0.48811 0.0
C1304 C 0.70018 0.21929 0.50405 0.0
C1305 C 0.69323 0.21033 0.52726 0.0
C1306 C 0.6999 0.18828 0.53452 0.0
C1307 C 0.8082 0.1435 0.59847 0.0
C1308 C 0.80158 0.13052 0.61989 0.0
C1309 C 0.79005 0.14282 0.5776 0.0
C1310 C 0.76492 0.12893 0.57742 0.0
C1311 C 0.75836 0.11562 0.59862 0.0
C1312 C 0.77645 0.11648 0.61967 0.0
C1313 C 0.74565 0.12877 0.55514 0.0
C1314 C 0.73757 0.15034 0.54747 0.0
C1315 C 0.73561 0.10774 0.54117 0.0
C1316 C 0.74366 0.08446 0.54792 0.0
C1317 C 0.72419 0.06536 0.55279 0.0
C1318 C 0.73171 0.04341 0.55932 0.0
C1319 C 0.75866 0.04033 0.56089 0.0
C1320 C 0.77813 0.05917 0.55584 0.0
C1321 C 0.7707 0.08114 0.54928 0.0
H1322 H 0.76444 0.02333 0.56596 0.0
H1323 H 0.69497 0.23635 0.49846 0.0
H1324 H 0.18359 0.37386 0.5961 0.0
H1325 H 0.21242 0.37488 0.56084 0.0
H1326 H 0.27963 0.40558 0.60929 0.0
H1327 H 0.25073 0.40509 0.64459 0.0
H1328 H 0.24574 0.41366 0.53908 0.0
H1329 H 0.33331 0.37665 0.58986 0.0
H1330 H 0.34237 0.35259 0.62654 0.0
H1331 H 0.26221 0.31635 0.61862 0.0
H1332 H 0.25283 0.33991 0.58169 0.0
H1333 H 0.35957 0.41116 0.4595 0.0
H1334 H 0.33717 0.41733 0.49846 0.0
H1335 H 0.29108 0.34816 0.48793 0.0
H1336 H 0.3123 0.34239 0.44893 0.0
H1337 H 0.31758 0.36233 0.5406 0.0
H1338 H 0.25869 0.38484 0.4717 0.0
H1339 H 0.24946 0.40846 0.43478 0.0
H1340 H 0.27121 0.47274 0.47871 0.0
H1341 H 0.28099 0.44944 0.51582 0.0
C1342 C 0.20446 0.38102 0.59925 0.0
C1343 C 0.21479 0.3894 0.62324 0.0
C1344 C 0.22093 0.38168 0.57901 0.0
C1345 C 0.24827 0.39027 0.58231 0.0
C1346 C 0.25864 0.39884 0.60621 0.0
C1347 C 0.24205 0.39858 0.62639 0.0
C1348 C 0.26598 0.38931 0.56097 0.0
C1349 C 0.26158 0.40259 0.53957 0.0
C1350 C 0.28677 0.37492 0.5614 0.0
C1351 C 0.2923 0.36026 0.58322 0.0
C1352 C 0.31766 0.36348 0.59591 0.0
C1353 C 0.32285 0.34993 0.61674 0.0
C1354 C 0.30284 0.33302 0.62496 0.0
C1355 C 0.27765 0.32952 0.61229 0.0
C1356 C 0.27239 0.34299 0.59143 0.0
C1357 C 0.34482 0.39726 0.46568 0.0
C1358 C 0.33766 0.37632 0.4511 0.0
C1359 C 0.33201 0.40079 0.48789 0.0
C1360 C 0.31244 0.38315 0.49618 0.0
C1361 C 0.30611 0.36197 0.48204 0.0
C1362 C 0.31824 0.35876 0.45966 0.0
C1363 C 0.29741 0.38677 0.51885 0.0
C1364 C 0.30216 0.37383 0.5404 0.0
C1365 C 0.27699 0.40148 0.51859 0.0
C1366 C 0.27091 0.41543 0.4964 0.0
C1367 C 0.26177 0.40401 0.47341 0.0
C1368 C 0.25639 0.41734 0.45247 0.0
C1369 C 0.25984 0.44209 0.45437 0.0
C1370 C 0.26861 0.45357 0.47725 0.0
C1371 C 0.27407 0.44031 0.49823 0.0
H1372 H 0.25565 0.45238 0.43814 0.0
H1373 H 0.30688 0.32258 0.64112 0.0
H1374 H 0.05898 0.6866 0.84974 0.0
H1375 H 0.02295 0.71147 0.85109 0.0
H1376 H 0.06296 0.74922 0.91602 0.0
H1377 H 0.09933 0.72494 0.91445 0.0
H1378 H 0.99349 0.72258 0.90481 0.0
H1379 H 0.07138 0.78596 0.88991 0.0
H1380 H 0.10991 0.79896 0.86498 0.0
H1381 H 0.05982 0.78623 0.79721 0.0
H1382 H 0.02112 0.7728 0.82181 0.0
H1383 H 0.91185 0.81227 0.92656 0.0
H1384 H 0.94749 0.78724 0.92591 0.0
H1385 H 0.95679 0.80258 0.84794 0.0
H1386 H 0.9229 0.82927 0.84943 0.0
H1387 H 1.00173 0.80082 0.8645 0.0
H1388 H 0.92349 0.74553 0.87466 0.0
H1389 H 0.88243 0.72817 0.89377 0.0
H1390 H 0.92758 0.71948 0.96266 0.0
H1391 H 0.96887 0.73704 0.94404 0.0
C1392 C 0.06014 0.7002 0.86431 0.0
C1393 C 0.08219 0.70378 0.88193 0.0
C1394 C 0.0395 0.71441 0.86505 0.0
C1395 C 0.04029 0.73235 0.88356 0.0
C1396 C 0.06199 0.73567 0.90142 0.0
C1397 C 0.0828 0.72173 0.90049 0.0
C1398 C 0.01857 0.74771 0.8842 0.0
C1399 C 0.99531 0.73983 0.89628 0.0
C1400 C 0.02042 0.76975 0.87225 0.0
C1401 C 0.04354 0.77815 0.85763 0.0
C1402 C 0.06869 0.78574 0.86969 0.0
C1403 C 0.09052 0.79322 0.85563 0.0
C1404 C 0.08733 0.79335 0.82952 0.0
C1405 C 0.06228 0.78608 0.81743 0.0
C1406 C 0.04041 0.77853 0.83141 0.0
C1407 C 0.92156 0.81027 0.90932 0.0
C1408 C 0.9145 0.82273 0.88805 0.0
C1409 C 0.94186 0.79568 0.90882 0.0
C1410 C 0.95479 0.79221 0.88667 0.0
C1411 C 0.9475 0.80472 0.86539 0.0
C1412 C 0.92794 0.81998 0.86618 0.0
C1413 C 0.97619 0.77612 0.88568 0.0
C1414 C 0.99953 0.78371 0.87329 0.0
C1415 C 0.97398 0.75344 0.89682 0.0
C1416 C 0.94921 0.7428 0.90803 0.0
C1417 C 0.92462 0.74004 0.89393 0.0
C1418 C 0.90132 0.73015 0.90467 0.0
C1419 C 0.90239 0.72278 0.92943 0.0
C1420 C 0.92678 0.72522 0.94349 0.0
C1421 C 0.95014 0.73512 0.93285 0.0
H1422 H 0.88432 0.71515 0.93771 0.0
H1423 H 0.10426 0.79915 0.81866 0.0
H1424 H 0.07368 0.35126 0.72767 0.0
H1425 H 0.03706 0.31857 0.72276 0.0
H1426 H 0.07085 0.29316 0.65713 0.0
H1427 H 0.10768 0.32598 0.6619 0.0
H1428 H 0.99796 0.30263 0.68647 0.0
H1429 H 0.06206 0.23136 0.65955 0.0
H1430 H 0.10905 0.22408 0.66338 0.0
H1431 H 0.12231 0.26755 0.73048 0.0
H1432 H 0.07533 0.2748 0.72723 0.0
H1433 H 0.91146 0.19379 0.66096 0.0
H1434 H 0.94854 0.22535 0.65551 0.0
H1435 H 0.98372 0.21125 0.72805 0.0
H1436 H 0.94665 0.17992 0.73377 0.0
H1437 H 0.02207 0.22114 0.69243 0.0
H1438 H 0.94702 0.25421 0.72357 0.0
H1439 H 0.90002 0.26133 0.72225 0.0
H1440 H 0.90883 0.29472 0.65135 0.0
H1441 H 0.9558 0.28743 0.65206 0.0
C1442 C 0.07317 0.33897 0.71192 0.0
C1443 C 0.09381 0.34131 0.69524 0.0
C1444 C 0.05211 0.32026 0.70911 0.0
C1445 C 0.05124 0.30314 0.68976 0.0
C1446 C 0.07114 0.30597 0.67238 0.0
C1447 C 0.09213 0.32488 0.67503 0.0
C1448 C 0.0304 0.28174 0.68887 0.0
C1449 C 1.00329 0.28482 0.68749 0.0
C1450 C 0.03713 0.25839 0.69053 0.0
C1451 C 0.06528 0.25383 0.69296 0.0
C1452 C 0.075 0.23929 0.67515 0.0
C1453 C 0.10162 0.23517 0.67722 0.0
C1454 C 0.11868 0.24542 0.6971 0.0
C1455 C 0.10911 0.2597 0.71503 0.0
C1456 C 0.08249 0.26383 0.71307 0.0
C1457 C 0.92738 0.19701 0.67553 0.0
C1458 C 0.92595 0.18426 0.69785 0.0
C1459 C 0.94852 0.21521 0.67244 0.0
C1460 C 0.96887 0.2209 0.69146 0.0
C1461 C 0.96831 0.20726 0.7131 0.0
C1462 C 0.94702 0.18932 0.71635 0.0
C1463 C 0.98968 0.24205 0.68976 0.0
C1464 C 0.01676 0.23892 0.69085 0.0
C1465 C 0.98293 0.26537 0.68804 0.0
C1466 C 0.95482 0.27004 0.68774 0.0
C1467 C 0.93887 0.2629 0.70761 0.0
C1468 C 0.91225 0.26699 0.70698 0.0
C1469 C 0.90142 0.27841 0.68669 0.0
C1470 C 0.91723 0.28583 0.66703 0.0
C1471 C 0.94385 0.28173 0.66754 0.0
H1472 H 0.8808 0.28156 0.68624 0.0
H1473 H 0.13929 0.24224 0.69865 0.0
H1474 H 0.6122 0.23484 0.39888 0.0
H1475 H 0.57697 0.26026 0.39939 0.0
H1476 H 0.52001 0.20257 0.3679 0.0
H1477 H 0.55568 0.17768 0.36589 0.0
H1478 H 0.50706 0.23863 0.34812 0.0
H1479 H 0.52629 0.22334 0.43406 0.0
H1480 H 0.55387 0.22131 0.47331 0.0
H1481 H 0.57717 0.2967 0.47323 0.0
H1482 H 0.54999 0.29914 0.43379 0.0
H1483 H 0.39404 0.29034 0.39765 0.0
H1484 H 0.42968 0.26511 0.39562 0.0
H1485 H 0.48528 0.32599 0.37866 0.0
H1486 H 0.44955 0.35113 0.37967 0.0
H1487 H 0.49748 0.28832 0.42318 0.0
H1488 H 0.47453 0.30039 0.3346 0.0
H1489 H 0.44282 0.29877 0.29767 0.0
H1490 H 0.42198 0.22379 0.30594 0.0
H1491 H 0.45285 0.22512 0.34351 0.0
C1492 C 0.59216 0.22759 0.39204 0.0
C1493 C 0.58681 0.20415 0.38245 0.0
C1494 C 0.57184 0.24212 0.39253 0.0
C1495 C 0.54532 0.2334 0.38427 0.0
C1496 C 0.54009 0.20998 0.37446 0.0
C1497 C 0.56055 0.19564 0.37339 0.0
C1498 C 0.52319 0.24863 0.3856 0.0
C1499 C 0.50497 0.24923 0.36473 0.0
C1500 C 0.51999 0.26275 0.40711 0.0
C1501 C 0.53632 0.26138 0.43084 0.0
C1502 C 0.53744 0.23946 0.44233 0.0
C1503 C 0.55298 0.23824 0.46462 0.0
C1504 C 0.56732 0.25885 0.47572 0.0
C1505 C 0.56609 0.28074 0.46459 0.0
C1506 C 0.5506 0.28206 0.44228 0.0
C1507 C 0.41385 0.29837 0.39348 0.0
C1508 C 0.41889 0.32279 0.3888 0.0
C1509 C 0.4342 0.2839 0.39228 0.0
C1510 C 0.46018 0.29361 0.3869 0.0
C1511 C 0.4654 0.31806 0.38275 0.0
C1512 C 0.44492 0.33241 0.38331 0.0
C1513 C 0.48192 0.2783 0.38575 0.0
C1514 C 0.49984 0.27766 0.40668 0.0
C1515 C 0.48439 0.26366 0.36461 0.0
C1516 C 0.46564 0.26295 0.34217 0.0
C1517 C 0.4628 0.28364 0.32886 0.0
C1518 C 0.445 0.28277 0.30777 0.0
C1519 C 0.4302 0.26123 0.29959 0.0
C1520 C 0.43325 0.2405 0.31244 0.0
C1521 C 0.45086 0.24132 0.33366 0.0
H1522 H 0.41649 0.26057 0.28322 0.0
H1523 H 0.57934 0.25787 0.49298 0.0
H1524 H 0.61515 0.59181 0.67252 0.0
H1525 H 0.61579 0.55718 0.69899 0.0
H1526 H 0.69829 0.5551 0.6845 0.0
H1527 H 0.69746 0.58921 0.65747 0.0
H1528 H 0.67479 0.51215 0.68323 0.0
H1529 H 0.67732 0.57674 0.74168 0.0
H1530 H 0.66285 0.61214 0.76096 0.0
H1531 H 0.58785 0.5717 0.77579 0.0
H1532 H 0.60174 0.5361 0.75628 0.0
H1533 H 0.7061 0.43913 0.78558 0.0
H1534 H 0.70368 0.47345 0.7589 0.0
H1535 H 0.61804 0.4637 0.76113 0.0
H1536 H 0.62027 0.42906 0.78751 0.0
H1537 H 0.64249 0.51208 0.76889 0.0
H1538 H 0.64285 0.44675 0.71053 0.0
H1539 H 0.66048 0.41201 0.69319 0.0
H1540 H 0.73429 0.45541 0.68036 0.0
H1541 H 0.71723 0.49035 0.69799 0.0
C1542 C 0.63342 0.58397 0.67495 0.0
C1543 C 0.65626 0.59341 0.66285 0.0
C1544 C 0.63384 0.56418 0.69026 0.0
C1545 C 0.65723 0.55351 0.69422 0.0
C1546 C 0.67995 0.56283 0.6819 0.0
C1547 C 0.67948 0.58246 0.66644 0.0
C1548 C 0.65807 0.53265 0.711 0.0
C1549 C 0.668 0.51236 0.70205 0.0
C1550 C 0.64893 0.53247 0.73558 0.0
C1551 C 0.64046 0.55383 0.74727 0.0
C1552 C 0.65765 0.57545 0.74886 0.0
C1553 C 0.64957 0.59554 0.75987 0.0
C1554 C 0.62441 0.59419 0.76953 0.0
C1555 C 0.60731 0.57272 0.76826 0.0
C1556 C 0.61528 0.55258 0.75724 0.0
C1557 C 0.68673 0.44429 0.78046 0.0
C1558 C 0.66337 0.43126 0.7887 0.0
C1559 C 0.68538 0.46392 0.76512 0.0
C1560 C 0.66066 0.47118 0.75785 0.0
C1561 C 0.63734 0.45849 0.76645 0.0
C1562 C 0.63865 0.43862 0.78149 0.0
C1563 C 0.65919 0.49181 0.74105 0.0
C1564 C 0.64918 0.51198 0.75002 0.0
C1565 C 0.66867 0.49205 0.71668 0.0
C1566 C 0.67885 0.47112 0.70581 0.0
C1567 C 0.66292 0.44885 0.7042 0.0
C1568 C 0.67279 0.42913 0.69428 0.0
C1569 C 0.69852 0.43148 0.68574 0.0
C1570 C 0.71438 0.4536 0.68702 0.0
C1571 C 0.70461 0.47337 0.69695 0.0
H1572 H 0.70614 0.41619 0.67809 0.0
H1573 H 0.61819 0.60976 0.77805 0.0
H1574 H 0.32238 0.0701 0.78364 0.0
H1575 H 0.32435 0.03283 0.76109 0.0
H1576 H 0.39765 0.02468 0.80316 0.0
H1577 H 0.39572 0.06226 0.82602 0.0
H1578 H 0.40106 0.01694 0.75236 0.0
H1579 H 0.34102 0.98897 0.81412 0.0
H1580 H 0.30179 0.98869 0.83928 0.0
H1581 H 0.24988 0.97824 0.77251 0.0
H1582 H 0.28883 0.9788 0.74689 0.0
H1583 H 0.40261 0.90126 0.69786 0.0
H1584 H 0.40299 0.93475 0.72733 0.0
H1585 H 0.32532 0.94637 0.69659 0.0
H1586 H 0.3246 0.91262 0.66756 0.0
H1587 H 0.32625 0.95086 0.74514 0.0
H1588 H 0.38529 0.9822 0.68315 0.0
H1589 H 0.42395 0.98372 0.65705 0.0
H1590 H 0.47701 0.98888 0.72311 0.0
H1591 H 0.43862 0.98709 0.74962 0.0
C1592 C 0.33878 0.06027 0.78842 0.0
C1593 C 0.35885 0.0692 0.80677 0.0
C1594 C 0.33985 0.03886 0.77547 0.0
C1595 C 0.36107 0.02572 0.7804 0.0
C1596 C 0.38103 0.0344 0.79898 0.0
C1597 C 0.37981 0.05582 0.81219 0.0
C1598 C 0.36268 1.00353 0.76538 0.0
C1599 C 0.38492 1.00228 0.75118 0.0
C1600 C 0.34138 0.98456 0.76321 0.0
C1601 C 0.31788 0.98412 0.77856 0.0
C1602 C 0.32126 0.9868 0.80477 0.0
C1603 C 0.29906 0.98655 0.81913 0.0
C1604 C 0.27337 0.9835 0.8075 0.0
C1605 C 0.2698 0.98062 0.78149 0.0
C1606 C 0.29193 0.98087 0.76705 0.0
C1607 C 0.38562 0.91096 0.69734 0.0
C1608 C 0.36361 0.90422 0.68021 0.0
C1609 C 0.3859 0.93025 0.71418 0.0
C1610 C 0.36432 0.94347 0.71415 0.0
C1611 C 0.34226 0.93659 0.69714 0.0
C1612 C 0.34191 0.91727 0.68042 0.0
C1613 C 0.36449 0.96435 0.73178 0.0
C1614 C 0.34253 0.96538 0.74647 0.0
C1615 C 0.38597 0.98319 0.73425 0.0
C1616 C 0.40907 0.98422 0.71836 0.0
C1617 C 0.40519 0.98346 0.69211 0.0
C1618 C 0.42705 0.98441 0.67725 0.0
C1619 C 0.45291 0.98632 0.68842 0.0
C1620 C 0.45697 0.98735 0.71448 0.0
C1621 C 0.43516 0.98638 0.72944 0.0
H1622 H 0.46982 0.98706 0.67687 0.0
H1623 H 0.25621 0.98331 0.81865 0.0
H1624 H 0.42913 0.17335 0.87663 0.0
H1625 H 0.46881 0.20312 0.8795 0.0
H1626 H 0.46104 0.21196 0.79959 0.0
H1627 H 0.42242 0.18095 0.79658 0.0
H1628 H 0.50953 0.21529 0.81038 0.0
H1629 H 0.44268 0.25322 0.84764 0.0
H1630 H 0.40745 0.25838 0.87631 0.0
H1631 H 0.46339 0.2567 0.93953 0.0
H1632 H 0.49889 0.25122 0.91124 0.0
H1633 H 0.59356 0.32814 0.81474 0.0
H1634 H 0.55216 0.30008 0.81298 0.0
H1635 H 0.57823 0.26945 0.88166 0.0
H1636 H 0.61999 0.29696 0.88318 0.0
H1637 H 0.52044 0.27891 0.87615 0.0
H1638 H 0.58696 0.24045 0.83505 0.0
H1639 H 0.62071 0.23863 0.804 0.0
H1640 H 0.56184 0.24573 0.7445 0.0
H1641 H 0.52782 0.24797 0.77528 0.0
C1642 C 0.43598 0.18157 0.85966 0.0
C1643 C 0.42257 0.17478 0.83638 0.0
C1644 C 0.4586 0.19886 0.86133 0.0
C1645 C 0.46784 0.21052 0.83987 0.0
C1646 C 0.45454 0.20346 0.81653 0.0
C1647 C 0.43236 0.18569 0.81479 0.0
C1648 C 0.49145 0.22976 0.84165 0.0
C1649 C 0.51151 0.22932 0.82459 0.0
C1650 C 0.49466 0.24825 0.86024 0.0
C1651 C 0.47338 0.25157 0.87732 0.0
C1652 C 0.44742 0.25379 0.86766 0.0
C1653 C 0.42741 0.25679 0.88384 0.0
C1654 C 0.43316 0.25781 0.90972 0.0
C1655 C 0.45896 0.25588 0.91948 0.0
C1656 C 0.47904 0.25284 0.90338 0.0
C1657 C 0.59031 0.31571 0.8297 0.0
C1658 C 0.61015 0.31485 0.84912 0.0
C1659 C 0.56667 0.29959 0.8286 0.0
C1660 C 0.56211 0.28258 0.84714 0.0
C1661 C 0.58128 0.28241 0.86716 0.0
C1662 C 0.60517 0.29815 0.86798 0.0
C1663 C 0.53806 0.26417 0.84499 0.0
C1664 C 0.5181 0.26483 0.86195 0.0
C1665 C 0.53457 0.24627 0.82597 0.0
C1666 C 0.55493 0.24464 0.80748 0.0
C1667 C 0.58127 0.24184 0.81537 0.0
C1668 C 0.60044 0.24069 0.79781 0.0
C1669 C 0.59345 0.24214 0.7723 0.0
C1670 C 0.56724 0.24466 0.76428 0.0
C1671 C 0.54801 0.24585 0.78176 0.0
H1672 H 0.60832 0.24125 0.75873 0.0
H1673 H 0.41764 0.26013 0.92222 0.0
H1674 H 0.38176 0.56979 0.19647 0.0
H1675 H 0.38534 0.53623 0.2242 0.0
H1676 H 0.33813 0.56712 0.27713 0.0
H1677 H 0.33558 0.60086 0.25021 0.0
H1678 H 0.37395 0.55001 0.30251 0.0
H1679 H 0.31381 0.51777 0.2334 0.0
H1680 H 0.30003 0.50769 0.18911 0.0
H1681 H 0.36404 0.46575 0.18459 0.0
H1682 H 0.3784 0.47581 0.22879 0.0
H1683 H 0.31923 0.44911 0.3685 0.0
H1684 H 0.32699 0.4828 0.34092 0.0
H1685 H 0.38756 0.44996 0.3058 0.0
H1686 H 0.38013 0.41613 0.33368 0.0
H1687 H 0.35052 0.46696 0.27096 0.0
H1688 H 0.40673 0.49667 0.34274 0.0
H1689 H 0.41781 0.5062 0.38755 0.0
H1690 H 0.3577 0.55267 0.38741 0.0
H1691 H 0.34599 0.54316 0.34266 0.0
C1692 C 0.37233 0.56946 0.21411 0.0
C1693 C 0.35837 0.5881 0.22101 0.0
C1694 C 0.37417 0.55011 0.22994 0.0
C1695 C 0.36163 0.54867 0.25283 0.0
C1696 C 0.34808 0.56754 0.25976 0.0
C1697 C 0.34657 0.58693 0.2442 0.0
C1698 C 0.36226 0.52773 0.26967 0.0
C1699 C 0.36856 0.53191 0.29549 0.0
C1700 C 0.35594 0.50383 0.26083 0.0
C1701 C 0.34736 0.49777 0.23429 0.0
C1702 C 0.32506 0.50654 0.2229 0.0
C1703 C 0.31713 0.50081 0.19783 0.0
C1704 C 0.33121 0.48615 0.18403 0.0
C1705 C 0.3532 0.47714 0.19529 0.0
C1706 C 0.36123 0.48284 0.22035 0.0
C1707 C 0.33446 0.44909 0.35514 0.0
C1708 C 0.34911 0.42981 0.35349 0.0
C1709 C 0.33889 0.46846 0.33933 0.0
C1710 C 0.35791 0.46907 0.32119 0.0
C1711 C 0.37277 0.44998 0.31959 0.0
C1712 C 0.36864 0.4307 0.33571 0.0
C1713 C 0.36159 0.48942 0.30366 0.0
C1714 C 0.35612 0.4851 0.27781 0.0
C1715 C 0.36828 0.51321 0.31249 0.0
C1716 C 0.37534 0.51904 0.33938 0.0
C1717 C 0.39572 0.50878 0.35231 0.0
C1718 C 0.40215 0.51421 0.37769 0.0
C1719 C 0.38843 0.52999 0.39034 0.0
C1720 C 0.3683 0.54043 0.3776 0.0
C1721 C 0.36178 0.53505 0.35221 0.0
H1722 H 0.39344 0.53417 0.40999 0.0
H1723 H 0.32503 0.48173 0.16462 0.0
H1724 H 0.61499 0.0896 0.34829 0.0
H1725 H 0.60685 0.05515 0.31879 0.0
H1726 H 0.68717 0.0707 0.29562 0.0
H1727 H 0.6957 0.10425 0.32539 0.0
H1728 H 0.63902 0.05996 0.2549 0.0
H1729 H 0.68434 0.03154 0.3303 0.0
H1730 H 0.68746 0.02422 0.37559 0.0
H1731 H 0.61015 0.98232 0.36925 0.0
H1732 H 0.60645 0.98972 0.32395 0.0
H1733 H 0.67456 0.96238 0.18673 0.0
H1734 H 0.66957 0.99723 0.21246 0.0
H1735 H 0.61395 0.95398 0.25642 0.0
H1736 H 0.62084 0.91886 0.23178 0.0
H1737 H 0.6426 0.97915 0.28693 0.0
H1738 H 0.59753 1.00109 0.21251 0.0
H1739 H 0.58983 0.00847 0.16758 0.0
H1740 H 0.65819 0.0622 0.17119 0.0
H1741 H 0.66653 0.05494 0.21607 0.0
C1742 C 0.63083 0.08567 0.33683 0.0
C1743 C 0.65605 0.09957 0.33936 0.0
C1744 C 0.62617 0.06601 0.32 0.0
C1745 C 0.64642 0.06037 0.30495 0.0
C1746 C 0.67125 0.0747 0.30695 0.0
C1747 C 0.67611 0.09382 0.32413 0.0
C1748 C 0.64248 0.03912 0.28772 0.0
C1749 C 0.63982 0.04224 0.26179 0.0
C1750 C 0.64265 0.01595 0.29671 0.0
C1751 C 0.64497 0.01145 0.32386 0.0
C1752 C 0.6679 0.02099 0.33862 0.0
C1753 C 0.6698 0.01678 0.36428 0.0
C1754 C 0.64897 1.00289 0.37531 0.0
C1755 C 0.62624 0.99312 0.36069 0.0
C1756 C 0.62423 0.99732 0.33504 0.0
C1757 C 0.66075 0.96052 0.20148 0.0
C1758 C 0.64764 0.93806 0.20695 0.0
C1759 C 0.65778 0.98052 0.21625 0.0
C1760 C 0.64093 0.97869 0.23639 0.0
C1761 C 0.6271 0.95618 0.24116 0.0
C1762 C 0.63075 0.93608 0.22687 0.0
C1763 C 0.63938 0.99968 0.25356 0.0
C1764 C 0.64121 0.99663 0.27966 0.0
C1765 C 0.63769 0.02286 0.24463 0.0
C1766 C 0.63276 0.02733 0.21764 0.0
C1767 C 0.61103 0.01437 0.20369 0.0
C1768 C 0.60653 0.01855 0.17823 0.0
C1769 C 0.62354 0.03576 0.16653 0.0
C1770 C 0.64504 0.04887 0.18028 0.0
C1771 C 0.64964 0.04475 0.20574 0.0
H1772 H 0.62003 0.03896 0.14682 0.0
H1773 H 0.65048 0.99964 0.39517 0.0
H1774 H 0.59355 0.83644 0.15969 0.0
H1775 H 0.55695 0.80317 0.1548 0.0
H1776 H 0.55358 0.80052 0.23493 0.0
H1777 H 0.58928 0.83369 0.24001 0.0
H1778 H 0.55684 0.75563 0.21066 0.0
H1779 H 0.50685 0.82248 0.20435 0.0
H1780 H 0.49476 0.85919 0.18571 0.0
H1781 H 0.47471 0.82251 0.11495 0.0
H1782 H 0.48705 0.78563 0.13311 0.0
H1783 H 0.4385 0.68589 0.24102 0.0
H1784 H 0.47619 0.7162 0.23523 0.0
H1785 H 0.45452 0.71605 0.15611 0.0
H1786 H 0.41616 0.68581 0.16185 0.0
H1787 H 0.46589 0.76047 0.17318 0.0
H1788 H 0.51091 0.69297 0.17894 0.0
H1789 H 0.52362 0.65576 0.19579 0.0
H1790 H 0.55458 0.69231 0.26435 0.0
H1791 H 0.54171 0.7297 0.24806 0.0
C1792 C 0.58479 0.82897 0.17625 0.0
C1793 C 0.59449 0.83796 0.20025 0.0
C1794 C 0.56388 0.8099 0.17342 0.0
C1795 C 0.55256 0.79921 0.19453 0.0
C1796 C 0.56201 0.80834 0.21836 0.0
C1797 C 0.58244 0.82751 0.22119 0.0
C1798 C 0.53132 0.77817 0.19226 0.0
C1799 C 0.5369 0.75672 0.20257 0.0
C1800 C 0.50556 0.77924 0.18091 0.0
C1801 C 0.49823 0.80139 0.16999 0.0
C1802 C 0.50014 0.82231 0.18474 0.0
C1803 C 0.49318 0.84313 0.17429 0.0
C1804 C 0.48407 0.84321 0.14914 0.0
C1805 C 0.48183 0.82244 0.13442 0.0
C1806 C 0.4888 0.80157 0.14478 0.0
C1807 C 0.44183 0.69197 0.22226 0.0
C1808 C 0.42413 0.68317 0.2019 0.0
C1809 C 0.46359 0.70937 0.21895 0.0
C1810 C 0.46856 0.71845 0.19517 0.0
C1811 C 0.45125 0.70942 0.17467 0.0
C1812 C 0.42939 0.69192 0.17796 0.0
C1813 C 0.49116 0.73797 0.1922 0.0
C1814 C 0.48589 0.75916 0.18093 0.0
C1815 C 0.51738 0.73657 0.20238 0.0
C1816 C 0.52514 0.71413 0.21233 0.0
C1817 C 0.52024 0.69305 0.19769 0.0
C1818 C 0.5275 0.67193 0.20713 0.0
C1819 C 0.53985 0.67166 0.23115 0.0
C1820 C 0.54499 0.69254 0.24576 0.0
C1821 C 0.53775 0.71372 0.23642 0.0
H1822 H 0.54547 0.65529 0.23842 0.0
H1823 H 0.47867 0.85935 0.14108 0.0
loop_
_geom_bond_atom_site_label_1
_geom_bond_atom_site_label_2
_geom_bond_distance
_geom_bond_site_symmetry_2
_ccdc_geom_bond_type
Co0 O1 2.216 . S
Co0 O2 2.091 . S
Co0 O4 2.004 . S
Co0 O10 2.021 . S
Co0 O12 2.137 . S
Co0 O13 2.244 . S
O1 Co0 2.216 . S
O1 C8 1.247 . S
O2 Co0 2.091 . S
O2 C8 1.261 . S
C3 O12 1.247 . S
C3 O13 1.272 . S
O4 Co0 2.004 . S
O4 C9 1.259 . S
Co5 O6 2.061 . S
Co5 O11 2.052 . S
Co5 O13 2.135 . S
O6 Co5 2.061 . S
O6 C9 1.235 . S
C7 O10 1.238 . S
C7 O11 1.241 . S
C8 O1 1.247 . S
C8 O2 1.261 . S
C9 O4 1.259 . S
C9 O6 1.235 . S
O10 Co0 2.021 . S
O10 C7 1.238 . S
O11 Co5 2.052 . S
O11 C7 1.241 . S
O12 Co0 2.137 . S
O12 C3 1.247 . S
O13 Co0 2.244 . S
O13 C3 1.272 . S
O13 Co5 2.135 . S
Co14 O15 2.216 . S
Co14 O16 2.091 . S
Co14 O18 2.004 . S
Co14 O24 2.021 . S
Co14 O26 2.137 . S
Co14 O27 2.244 . S
O15 Co14 2.216 . S
O15 C22 1.247 . S
O16 Co14 2.091 . S
O16 C22 1.261 . S
C17 O26 1.247 . S
C17 O27 1.272 . S
O18 Co14 2.004 . S
O18 C23 1.259 . S
Co19 O20 2.061 . S
Co19 O25 2.052 . S
Co19 O27 2.135 . S
O20 Co19 2.061 . S
O20 C23 1.235 . S
C21 O24 1.238 . S
C21 O25 1.241 . S
C22 O15 1.247 . S
C22 O16 1.261 . S
C23 O18 1.259 . S
C23 O20 1.235 . S
O24 Co14 2.021 . S
O24 C21 1.238 . S
O25 Co19 2.052 . S
O25 C21 1.241 . S
O26 Co14 2.137 . S
O26 C17 1.247 . S
O27 Co14 2.244 . S
O27 C17 1.272 . S
O27 Co19 2.135 . S
Co28 O29 2.216 . S
Co28 O30 2.091 . S
Co28 O32 2.004 . S
Co28 O38 2.021 . S
Co28 O40 2.137 . S
Co28 O41 2.244 . S
O29 Co28 2.216 . S
O29 C36 1.247 . S
O30 Co28 2.091 . S
O30 C36 1.261 . S
C31 O40 1.247 . S
C31 O41 1.272 . S
O32 Co28 2.004 . S
O32 C37 1.259 . S
Co33 O34 2.061 . S
Co33 O39 2.052 . S
Co33 O41 2.135 . S
O34 Co33 2.061 . S
O34 C37 1.235 . S
C35 O38 1.238 . S
C35 O39 1.241 . S
C36 O29 1.247 . S
C36 O30 1.261 . S
C37 O32 1.259 . S
C37 O34 1.235 . S
O38 Co28 2.021 . S
O38 C35 1.238 . S
O39 Co33 2.052 . S
O39 C35 1.241 . S
O40 Co28 2.137 . S
O40 C31 1.247 . S
O41 Co28 2.244 . S
O41 C31 1.272 . S
O41 Co33 2.135 . S
Co42 O43 2.216 . S
Co42 O44 2.091 . S
Co42 O46 2.004 . S
Co42 O52 2.021 . S
Co42 O54 2.137 . S
Co42 O55 2.244 . S
O43 Co42 2.216 . S
O43 C50 1.247 . S
O44 Co42 2.091 . S
O44 C50 1.261 . S
C45 O54 1.247 . S
C45 O55 1.272 . S
O46 Co42 2.004 . S
O46 C51 1.259 . S
Co47 O48 2.061 . S
Co47 O53 2.052 . S
Co47 O55 2.135 . S
O48 Co47 2.061 . S
O48 C51 1.235 . S
C49 O52 1.238 . S
C49 O53 1.241 . S
C50 O43 1.247 . S
C50 O44 1.261 . S
C51 O46 1.259 . S
C51 O48 1.235 . S
O52 Co42 2.021 . S
O52 C49 1.238 . S
O53 Co47 2.052 . S
O53 C49 1.241 . S
O54 Co42 2.137 . S
O54 C45 1.247 . S
O55 Co42 2.244 . S
O55 C45 1.272 . S
O55 Co47 2.135 . S
Co56 O57 2.216 . S
Co56 O58 2.091 . S
Co56 O60 2.004 . S
Co56 O66 2.021 . S
Co56 O68 2.137 . S
Co56 O69 2.244 . S
O57 Co56 2.216 . S
O57 C64 1.247 . S
O58 Co56 2.091 . S
O58 C64 1.261 . S
C59 O68 1.247 . S
C59 O69 1.272 . S
O60 Co56 2.004 . S
O60 C65 1.259 . S
Co61 O62 2.061 . S
Co61 O67 2.052 . S
Co61 O69 2.135 . S
O62 Co61 2.061 . S
O62 C65 1.235 . S
C63 O66 1.238 . S
C63 O67 1.241 . S
C64 O57 1.247 . S
C64 O58 1.261 . S
C65 O60 1.259 . S
C65 O62 1.235 . S
O66 Co56 2.021 . S
O66 C63 1.238 . S
O67 Co61 2.052 . S
O67 C63 1.241 . S
O68 Co56 2.137 . S
O68 C59 1.247 . S
O69 Co56 2.244 . S
O69 C59 1.272 . S
O69 Co61 2.135 . S
Co70 O71 2.216 . S
Co70 O72 2.091 . S
Co70 O74 2.004 . S
Co70 O80 2.021 . S
Co70 O82 2.137 . S
Co70 O83 2.244 . S
O71 Co70 2.216 . S
O71 C78 1.247 . S
O72 Co70 2.091 . S
O72 C78 1.261 . S
C73 O82 1.247 . S
C73 O83 1.272 . S
O74 Co70 2.004 . S
O74 C79 1.259 . S
Co75 O76 2.061 . S
Co75 O81 2.052 . S
Co75 O83 2.135 . S
O76 Co75 2.061 . S
O76 C79 1.235 . S
C77 O80 1.238 . S
C77 O81 1.241 . S
C78 O71 1.247 . S
C78 O72 1.261 . S
C79 O74 1.259 . S
C79 O76 1.235 . S
O80 Co70 2.021 . S
O80 C77 1.238 . S
O81 Co75 2.052 . S
O81 C77 1.241 . S
O82 Co70 2.137 . S
O82 C73 1.247 . S
O83 Co70 2.244 . S
O83 C73 1.272 . S
O83 Co75 2.135 . S
Co84 O85 2.216 . S
Co84 O86 2.091 . S
Co84 O88 2.004 . S
Co84 O94 2.021 . S
Co84 O96 2.137 . S
Co84 O97 2.244 . S
O85 Co84 2.216 . S
O85 C92 1.247 . S
O86 Co84 2.091 . S
O86 C92 1.261 . S
C87 O96 1.247 . S
C87 O97 1.272 . S
O88 Co84 2.004 . S
O88 C93 1.259 . S
Co89 O90 2.061 . S
Co89 O95 2.052 . S
Co89 O97 2.135 . S
O90 Co89 2.061 . S
O90 C93 1.235 . S
C91 O94 1.238 . S
C91 O95 1.241 . S
C92 O85 1.247 . S
C92 O86 1.261 . S
C93 O88 1.259 . S
C93 O90 1.235 . S
O94 Co84 2.021 . S
O94 C91 1.238 . S
O95 Co89 2.052 . S
O95 C91 1.241 . S
O96 Co84 2.137 . S
O96 C87 1.247 . S
O97 Co84 2.244 . S
O97 C87 1.272 . S
O97 Co89 2.135 . S
Co98 O99 2.216 . S
Co98 O100 2.091 . S
Co98 O102 2.004 . S
Co98 O108 2.021 . S
Co98 O110 2.137 . S
Co98 O111 2.244 . S
O99 Co98 2.216 . S
O99 C106 1.247 . S
O100 Co98 2.091 . S
O100 C106 1.261 . S
C101 O110 1.247 . S
C101 O111 1.272 . S
O102 Co98 2.004 . S
O102 C107 1.259 . S
Co103 O104 2.061 . S
Co103 O109 2.052 . S
Co103 O111 2.135 . S
O104 Co103 2.061 . S
O104 C107 1.235 . S
C105 O108 1.238 . S
C105 O109 1.241 . S
C106 O99 1.247 . S
C106 O100 1.261 . S
C107 O102 1.259 . S
C107 O104 1.235 . S
O108 Co98 2.021 . S
O108 C105 1.238 . S
O109 Co103 2.052 . S
O109 C105 1.241 . S
O110 Co98 2.137 . S
O110 C101 1.247 . S
O111 Co98 2.244 . S
O111 C101 1.272 . S
O111 Co103 2.135 . S
Co112 O113 2.216 . S
Co112 O114 2.091 . S
Co112 O116 2.004 . S
Co112 O122 2.021 . S
Co112 O124 2.137 . S
Co112 O125 2.244 . S
O113 Co112 2.216 . S
O113 C120 1.247 . S
O114 Co112 2.091 . S
O114 C120 1.261 . S
C115 O124 1.247 . S
C115 O125 1.272 . S
O116 Co112 2.004 . S
O116 C121 1.259 . S
Co117 O118 2.061 . S
Co117 O123 2.052 . S
Co117 O125 2.135 . S
O118 Co117 2.061 . S
O118 C121 1.235 . S
C119 O122 1.238 . S
C119 O123 1.241 . S
C120 O113 1.247 . S
C120 O114 1.261 . S
C121 O116 1.259 . S
C121 O118 1.235 . S
O122 Co112 2.021 . S
O122 C119 1.238 . S
O123 Co117 2.052 . S
O123 C119 1.241 . S
O124 Co112 2.137 . S
O124 C115 1.247 . S
O125 Co112 2.244 . S
O125 C115 1.272 . S
O125 Co117 2.135 . S
Co126 O127 2.216 . S
Co126 O128 2.091 . S
Co126 O130 2.004 . S
Co126 O136 2.021 . S
Co126 O138 2.137 . S
Co126 O139 2.244 . S
O127 Co126 2.216 . S
O127 C134 1.247 . S
O128 Co126 2.091 . S
O128 C134 1.261 . S
C129 O138 1.247 . S
C129 O139 1.272 . S
O130 Co126 2.004 . S
O130 C135 1.259 . S
Co131 O132 2.061 . S
Co131 O137 2.052 . S
Co131 O139 2.135 . S
O132 Co131 2.061 . S
O132 C135 1.235 . S
C133 O136 1.238 . S
C133 O137 1.241 . S
C134 O127 1.247 . S
C134 O128 1.261 . S
C135 O130 1.259 . S
C135 O132 1.235 . S
O136 Co126 2.021 . S
O136 C133 1.238 . S
O137 Co131 2.052 . S
O137 C133 1.241 . S
O138 Co126 2.137 . S
O138 C129 1.247 . S
O139 Co126 2.244 . S
O139 C129 1.272 . S
O139 Co131 2.135 . S
Co140 O141 2.216 . S
Co140 O142 2.091 . S
Co140 O144 2.004 . S
Co140 O150 2.021 . S
Co140 O152 2.137 . S
Co140 O153 2.244 . S
O141 Co140 2.216 . S
O141 C148 1.247 . S
O142 Co140 2.091 . S
O142 C148 1.261 . S
C143 O152 1.247 . S
C143 O153 1.272 . S
O144 Co140 2.004 . S
O144 C149 1.259 . S
Co145 O146 2.061 . S
Co145 O151 2.052 . S
Co145 O153 2.135 . S
O146 Co145 2.061 . S
O146 C149 1.235 . S
C147 O150 1.238 . S
C147 O151 1.241 . S
C148 O141 1.247 . S
C148 O142 1.261 . S
C149 O144 1.259 . S
C149 O146 1.235 . S
O150 Co140 2.021 . S
O150 C147 1.238 . S
O151 Co145 2.052 . S
O151 C147 1.241 . S
O152 Co140 2.137 . S
O152 C143 1.247 . S
O153 Co140 2.244 . S
O153 C143 1.272 . S
O153 Co145 2.135 . S
Co154 O155 2.216 . S
Co154 O156 2.091 . S
Co154 O158 2.004 . S
Co154 O164 2.021 . S
Co154 O166 2.137 . S
Co154 O167 2.244 . S
O155 Co154 2.216 . S
O155 C162 1.247 . S
O156 Co154 2.091 . S
O156 C162 1.261 . S
C157 O166 1.247 . S
C157 O167 1.272 . S
O158 Co154 2.004 . S
O158 C163 1.259 . S
Co159 O160 2.061 . S
Co159 O165 2.052 . S
Co159 O167 2.135 . S
O160 Co159 2.061 . S
O160 C163 1.235 . S
C161 O164 1.238 . S
C161 O165 1.241 . S
C162 O155 1.247 . S
C162 O156 1.261 . S
C163 O158 1.259 . S
C163 O160 1.235 . S
O164 Co154 2.021 . S
O164 C161 1.238 . S
O165 Co159 2.052 . S
O165 C161 1.241 . S
O166 Co154 2.137 . S
O166 C157 1.247 . S
O167 Co154 2.244 . S
O167 C157 1.272 . S
O167 Co159 2.135 . S
Co168 O169 2.216 . S
Co168 O170 2.091 . S
Co168 O172 2.004 . S
Co168 O178 2.021 . S
Co168 O180 2.137 . S
Co168 O181 2.244 . S
O169 Co168 2.216 . S
O169 C176 1.247 . S
O170 Co168 2.091 . S
O170 C176 1.261 . S
C171 O180 1.247 . S
C171 O181 1.272 . S
O172 Co168 2.004 . S
O172 C177 1.259 . S
Co173 O174 2.061 . S
Co173 O179 2.052 . S
Co173 O181 2.135 . S
O174 Co173 2.061 . S
O174 C177 1.235 . S
C175 O178 1.238 . S
C175 O179 1.241 . S
C176 O169 1.247 . S
C176 O170 1.261 . S
C177 O172 1.259 . S
C177 O174 1.235 . S
O178 Co168 2.021 . S
O178 C175 1.238 . S
O179 Co173 2.052 . S
O179 C175 1.241 . S
O180 Co168 2.137 . S
O180 C171 1.247 . S
O181 Co168 2.244 . S
O181 C171 1.272 . S
O181 Co173 2.135 . S
Co182 O183 2.216 . S
Co182 O184 2.091 . S
Co182 O186 2.004 . S
Co182 O192 2.021 . S
Co182 O194 2.137 . S
Co182 O195 2.244 . S
O183 Co182 2.216 . S
O183 C190 1.247 . S
O184 Co182 2.091 . S
O184 C190 1.261 . S
C185 O194 1.247 . S
C185 O195 1.272 . S
O186 Co182 2.004 . S
O186 C191 1.259 . S
Co187 O188 2.061 . S
Co187 O193 2.052 . S
Co187 O195 2.135 . S
O188 Co187 2.061 . S
O188 C191 1.235 . S
C189 O192 1.238 . S
C189 O193 1.241 . S
C190 O183 1.247 . S
C190 O184 1.261 . S
C191 O186 1.259 . S
C191 O188 1.235 . S
O192 Co182 2.021 . S
O192 C189 1.238 . S
O193 Co187 2.052 . S
O193 C189 1.241 . S
O194 Co182 2.137 . S
O194 C185 1.247 . S
O195 Co182 2.244 . S
O195 C185 1.272 . S
O195 Co187 2.135 . S
Co196 O197 2.216 . S
Co196 O198 2.091 . S
Co196 O200 2.004 . S
Co196 O206 2.021 . S
Co196 O208 2.137 . S
Co196 O209 2.244 . S
O197 Co196 2.216 . S
O197 C204 1.247 . S
O198 Co196 2.091 . S
O198 C204 1.261 . S
C199 O208 1.247 . S
C199 O209 1.272 . S
O200 Co196 2.004 . S
O200 C205 1.259 . S
Co201 O202 2.061 . S
Co201 O207 2.052 . S
Co201 O209 2.135 . S
O202 Co201 2.061 . S
O202 C205 1.235 . S
C203 O206 1.238 . S
C203 O207 1.241 . S
C204 O197 1.247 . S
C204 O198 1.261 . S
C205 O200 1.259 . S
C205 O202 1.235 . S
O206 Co196 2.021 . S
O206 C203 1.238 . S
O207 Co201 2.052 . S
O207 C203 1.241 . S
O208 Co196 2.137 . S
O208 C199 1.247 . S
O209 Co196 2.244 . S
O209 C199 1.272 . S
O209 Co201 2.135 . S
Co210 O211 2.216 . S
Co210 O212 2.091 . S
Co210 O214 2.004 . S
Co210 O220 2.021 . S
Co210 O222 2.137 . S
Co210 O223 2.244 . S
O211 Co210 2.216 . S
O211 C218 1.247 . S
O212 Co210 2.091 . S
O212 C218 1.261 . S
C213 O222 1.247 . S
C213 O223 1.272 . S
O214 Co210 2.004 . S
O214 C219 1.259 . S
Co215 O216 2.061 . S
Co215 O221 2.052 . S
Co215 O223 2.135 . S
O216 Co215 2.061 . S
O216 C219 1.235 . S
C217 O220 1.238 . S
C217 O221 1.241 . S
C218 O211 1.247 . S
C218 O212 1.261 . S
C219 O214 1.259 . S
C219 O216 1.235 . S
O220 Co210 2.021 . S
O220 C217 1.238 . S
O221 Co215 2.052 . S
O221 C217 1.241 . S
O222 Co210 2.137 . S
O222 C213 1.247 . S
O223 Co210 2.244 . S
O223 C213 1.272 . S
O223 Co215 2.135 . S
H224 C242 0.951 . S
H225 C244 0.951 . S
H226 C246 0.950 . S
H227 C247 0.950 . S
H228 C249 0.950 . S
H229 C252 0.950 . S
H230 C253 0.950 . S
H231 C255 0.950 . S
H232 C256 0.950 . S
H233 C257 0.951 . S
H234 C259 0.951 . S
H235 C261 0.950 . S
H236 C262 0.950 . S
H237 C264 0.950 . S
H238 C267 0.950 . S
H239 C268 0.950 . S
H240 C270 0.950 . S
H241 C271 0.950 . S
C242 H224 0.951 . S
C242 C243 1.366 . S
C242 C244 1.388 . S
C243 C242 1.366 . S
C243 C247 1.385 . S
C244 H225 0.951 . S
C244 C242 1.388 . S
C244 C245 1.366 . S
C245 C244 1.366 . S
C245 C246 1.414 . S
C245 C248 1.499 . S
C246 H226 0.950 . S
C246 C245 1.414 . S
C246 C247 1.374 . S
C247 H227 0.950 . S
C247 C243 1.385 . S
C247 C246 1.374 . S
C248 C245 1.499 . S
C248 C249 1.373 . S
C248 C250 1.389 . S
C249 H228 0.950 . S
C249 C248 1.373 . S
C249 C265 1.377 . S
C250 C248 1.389 . S
C250 C251 1.524 . S
C250 C264 1.377 . S
C251 C250 1.524 . S
C251 C252 1.397 . S
C251 C256 1.363 . S
C252 H229 0.950 . S
C252 C251 1.397 . S
C252 C253 1.334 . S
C253 H230 0.950 . S
C253 C252 1.334 . S
C253 C254 1.287 . S
C254 C253 1.287 . S
C254 C255 1.524 . S
C254 H273 0.913 . S
C255 H231 0.950 . S
C255 C254 1.524 . S
C255 C256 1.415 . S
C256 H232 0.950 . S
C256 C251 1.363 . S
C256 C255 1.415 . S
C257 H233 0.951 . S
C257 C258 1.366 . S
C257 C259 1.388 . S
C258 C257 1.366 . S
C258 C262 1.385 . S
C259 H234 0.951 . S
C259 C257 1.388 . S
C259 C260 1.366 . S
C260 C259 1.366 . S
C260 C261 1.414 . S
C260 C263 1.499 . S
C261 H235 0.950 . S
C261 C260 1.414 . S
C261 C262 1.374 . S
C262 H236 0.950 . S
C262 C258 1.385 . S
C262 C261 1.374 . S
C263 C260 1.499 . S
C263 C264 1.373 . S
C263 C265 1.389 . S
C264 H237 0.950 . S
C264 C250 1.377 . S
C264 C263 1.373 . S
C265 C249 1.377 . S
C265 C263 1.389 . S
C265 C266 1.524 . S
C266 C265 1.524 . S
C266 C267 1.397 . S
C266 C271 1.363 . S
C267 H238 0.950 . S
C267 C266 1.397 . S
C267 C268 1.334 . S
C268 H239 0.950 . S
C268 C267 1.334 . S
C268 C269 1.287 . S
C269 C268 1.287 . S
C269 C270 1.524 . S
C269 H272 0.999 . S
C270 H240 0.950 . S
C270 C269 1.524 . S
C270 C271 1.415 . S
C271 H241 0.950 . S
C271 C266 1.363 . S
C271 C270 1.415 . S
H272 C269 0.999 . S
H273 C254 0.913 . S
H274 C292 0.951 . S
H275 C294 0.951 . S
H276 C296 0.950 . S
H277 C297 0.950 . S
H278 C299 0.950 . S
H279 C302 0.950 . S
H280 C303 0.950 . S
H281 C305 0.950 . S
H282 C306 0.950 . S
H283 C307 0.951 . S
H284 C309 0.951 . S
H285 C311 0.950 . S
H286 C312 0.950 . S
H287 C314 0.950 . S
H288 C317 0.950 . S
H289 C318 0.950 . S
H290 C320 0.950 . S
H291 C321 0.950 . S
C292 H274 0.951 . S
C292 C293 1.366 . S
C292 C294 1.388 . S
C293 C292 1.366 . S
C293 C297 1.385 . S
C294 H275 0.951 . S
C294 C292 1.388 . S
C294 C295 1.366 . S
C295 C294 1.366 . S
C295 C296 1.414 . S
C295 C298 1.499 . S
C296 H276 0.950 . S
C296 C295 1.414 . S
C296 C297 1.374 . S
C297 H277 0.950 . S
C297 C293 1.385 . S
C297 C296 1.374 . S
C298 C295 1.499 . S
C298 C299 1.373 . S
C298 C300 1.389 . S
C299 H278 0.950 . S
C299 C298 1.373 . S
C299 C315 1.377 . S
C300 C298 1.389 . S
C300 C301 1.524 . S
C300 C314 1.377 . S
C301 C300 1.524 . S
C301 C302 1.397 . S
C301 C306 1.363 . S
C302 H279 0.950 . S
C302 C301 1.397 . S
C302 C303 1.334 . S
C303 H280 0.950 . S
C303 C302 1.334 . S
C303 C304 1.287 . S
C304 C303 1.287 . S
C304 C305 1.524 . S
C304 H323 0.913 . S
C305 H281 0.950 . S
C305 C304 1.524 . S
C305 C306 1.415 . S
C306 H282 0.950 . S
C306 C301 1.363 . S
C306 C305 1.415 . S
C307 H283 0.951 . S
C307 C308 1.366 . S
C307 C309 1.388 . S
C308 C307 1.366 . S
C308 C312 1.385 . S
C309 H284 0.951 . S
C309 C307 1.388 . S
C309 C310 1.366 . S
C310 C309 1.366 . S
C310 C311 1.414 . S
C310 C313 1.499 . S
C311 H285 0.950 . S
C311 C310 1.414 . S
C311 C312 1.374 . S
C312 H286 0.950 . S
C312 C308 1.385 . S
C312 C311 1.374 . S
C313 C310 1.499 . S
C313 C314 1.373 . S
C313 C315 1.389 . S
C314 H287 0.950 . S
C314 C300 1.377 . S
C314 C313 1.373 . S
C315 C299 1.377 . S
C315 C313 1.389 . S
C315 C316 1.524 . S
C316 C315 1.524 . S
C316 C317 1.397 . S
C316 C321 1.363 . S
C317 H288 0.950 . S
C317 C316 1.397 . S
C317 C318 1.334 . S
C318 H289 0.950 . S
C318 C317 1.334 . S
C318 C319 1.287 . S
C319 C318 1.287 . S
C319 C320 1.524 . S
C319 H322 0.999 . S
C320 H290 0.950 . S
C320 C319 1.524 . S
C320 C321 1.415 . S
C321 H291 0.950 . S
C321 C316 1.363 . S
C321 C320 1.415 . S
H322 C319 0.999 . S
H323 C304 0.913 . S
H324 C342 0.951 . S
H325 C344 0.951 . S
H326 C346 0.950 . S
H327 C347 0.950 . S
H328 C349 0.950 . S
H329 C352 0.950 . S
H330 C353 0.950 . S
H331 C355 0.950 . S
H332 C356 0.950 . S
H333 C357 0.951 . S
H334 C359 0.951 . S
H335 C361 0.950 . S
H336 C362 0.950 . S
H337 C364 0.950 . S
H338 C367 0.950 . S
H339 C368 0.950 . S
H340 C370 0.950 . S
H341 C371 0.950 . S
C342 H324 0.951 . S
C342 C343 1.366 . S
C342 C344 1.388 . S
C343 C342 1.366 . S
C343 C347 1.385 . S
C344 H325 0.951 . S
C344 C342 1.388 . S
C344 C345 1.366 . S
C345 C344 1.366 . S
C345 C346 1.414 . S
C345 C348 1.499 . S
C346 H326 0.950 . S
C346 C345 1.414 . S
C346 C347 1.374 . S
C347 H327 0.950 . S
C347 C343 1.385 . S
C347 C346 1.374 . S
C348 C345 1.499 . S
C348 C349 1.373 . S
C348 C350 1.389 . S
C349 H328 0.950 . S
C349 C348 1.373 . S
C349 C365 1.377 . S
C350 C348 1.389 . S
C350 C351 1.524 . S
C350 C364 1.377 . S
C351 C350 1.524 . S
C351 C352 1.397 . S
C351 C356 1.363 . S
C352 H329 0.950 . S
C352 C351 1.397 . S
C352 C353 1.334 . S
C353 H330 0.950 . S
C353 C352 1.334 . S
C353 C354 1.287 . S
C354 C353 1.287 . S
C354 C355 1.524 . S
C354 H373 0.913 . S
C355 H331 0.950 . S
C355 C354 1.524 . S
C355 C356 1.415 . S
C356 H332 0.950 . S
C356 C351 1.363 . S
C356 C355 1.415 . S
C357 H333 0.951 . S
C357 C358 1.366 . S
C357 C359 1.388 . S
C358 C357 1.366 . S
C358 C362 1.385 . S
C359 H334 0.951 . S
C359 C357 1.388 . S
C359 C360 1.366 . S
C360 C359 1.366 . S
C360 C361 1.414 . S
C360 C363 1.499 . S
C361 H335 0.950 . S
C361 C360 1.414 . S
C361 C362 1.374 . S
C362 H336 0.950 . S
C362 C358 1.385 . S
C362 C361 1.374 . S
C363 C360 1.499 . S
C363 C364 1.373 . S
C363 C365 1.389 . S
C364 H337 0.950 . S
C364 C350 1.377 . S
C364 C363 1.373 . S
C365 C349 1.377 . S
C365 C363 1.389 . S
C365 C366 1.524 . S
C366 C365 1.524 . S
C366 C367 1.397 . S
C366 C371 1.363 . S
C367 H338 0.950 . S
C367 C366 1.397 . S
C367 C368 1.334 . S
C368 H339 0.950 . S
C368 C367 1.334 . S
C368 C369 1.287 . S
C369 C368 1.287 . S
C369 C370 1.524 . S
C369 H372 0.999 . S
C370 H340 0.950 . S
C370 C369 1.524 . S
C370 C371 1.415 . S
C371 H341 0.950 . S
C371 C366 1.363 . S
C371 C370 1.415 . S
H372 C369 0.999 . S
H373 C354 0.913 . S
H374 C392 0.951 . S
H375 C394 0.951 . S
H376 C396 0.950 . S
H377 C397 0.950 . S
H378 C399 0.950 . S
H379 C402 0.950 . S
H380 C403 0.950 . S
H381 C405 0.950 . S
H382 C406 0.950 . S
H383 C407 0.951 . S
H384 C409 0.951 . S
H385 C411 0.950 . S
H386 C412 0.950 . S
H387 C414 0.950 . S
H388 C417 0.950 . S
H389 C418 0.950 . S
H390 C420 0.950 . S
H391 C421 0.950 . S
C392 H374 0.951 . S
C392 C393 1.366 . S
C392 C394 1.388 . S
C393 C392 1.366 . S
C393 C397 1.385 . S
C394 H375 0.951 . S
C394 C392 1.388 . S
C394 C395 1.366 . S
C395 C394 1.366 . S
C395 C396 1.414 . S
C395 C398 1.499 . S
C396 H376 0.950 . S
C396 C395 1.414 . S
C396 C397 1.374 . S
C397 H377 0.950 . S
C397 C393 1.385 . S
C397 C396 1.374 . S
C398 C395 1.499 . S
C398 C399 1.373 . S
C398 C400 1.389 . S
C399 H378 0.950 . S
C399 C398 1.373 . S
C399 C415 1.377 . S
C400 C398 1.389 . S
C400 C401 1.524 . S
C400 C414 1.377 . S
C401 C400 1.524 . S
C401 C402 1.397 . S
C401 C406 1.363 . S
C402 H379 0.950 . S
C402 C401 1.397 . S
C402 C403 1.334 . S
C403 H380 0.950 . S
C403 C402 1.334 . S
C403 C404 1.287 . S
C404 C403 1.287 . S
C404 C405 1.524 . S
C404 H423 0.913 . S
C405 H381 0.950 . S
C405 C404 1.524 . S
C405 C406 1.415 . S
C406 H382 0.950 . S
C406 C401 1.363 . S
C406 C405 1.415 . S
C407 H383 0.951 . S
C407 C408 1.366 . S
C407 C409 1.388 . S
C408 C407 1.366 . S
C408 C412 1.385 . S
C409 H384 0.951 . S
C409 C407 1.388 . S
C409 C410 1.366 . S
C410 C409 1.366 . S
C410 C411 1.414 . S
C410 C413 1.499 . S
C411 H385 0.950 . S
C411 C410 1.414 . S
C411 C412 1.374 . S
C412 H386 0.950 . S
C412 C408 1.385 . S
C412 C411 1.374 . S
C413 C410 1.499 . S
C413 C414 1.373 . S
C413 C415 1.389 . S
C414 H387 0.950 . S
C414 C400 1.377 . S
C414 C413 1.373 . S
C415 C399 1.377 . S
C415 C413 1.389 . S
C415 C416 1.524 . S
C416 C415 1.524 . S
C416 C417 1.397 . S
C416 C421 1.363 . S
C417 H388 0.950 . S
C417 C416 1.397 . S
C417 C418 1.334 . S
C418 H389 0.950 . S
C418 C417 1.334 . S
C418 C419 1.287 . S
C419 C418 1.287 . S
C419 C420 1.524 . S
C419 H422 0.999 . S
C420 H390 0.950 . S
C420 C419 1.524 . S
C420 C421 1.415 . S
C421 H391 0.950 . S
C421 C416 1.363 . S
C421 C420 1.415 . S
H422 C419 0.999 . S
H423 C404 0.913 . S
H424 C442 0.951 . S
H425 C444 0.951 . S
H426 C446 0.950 . S
H427 C447 0.950 . S
H428 C449 0.950 . S
H429 C452 0.950 . S
H430 C453 0.950 . S
H431 C455 0.950 . S
H432 C456 0.950 . S
H433 C457 0.951 . S
H434 C459 0.951 . S
H435 C461 0.950 . S
H436 C462 0.950 . S
H437 C464 0.950 . S
H438 C467 0.950 . S
H439 C468 0.950 . S
H440 C470 0.950 . S
H441 C471 0.950 . S
C442 H424 0.951 . S
C442 C443 1.366 . S
C442 C444 1.388 . S
C443 C442 1.366 . S
C443 C447 1.385 . S
C444 H425 0.951 . S
C444 C442 1.388 . S
C444 C445 1.366 . S
C445 C444 1.366 . S
C445 C446 1.414 . S
C445 C448 1.499 . S
C446 H426 0.950 . S
C446 C445 1.414 . S
C446 C447 1.374 . S
C447 H427 0.950 . S
C447 C443 1.385 . S
C447 C446 1.374 . S
C448 C445 1.499 . S
C448 C449 1.373 . S
C448 C450 1.389 . S
C449 H428 0.950 . S
C449 C448 1.373 . S
C449 C465 1.377 . S
C450 C448 1.389 . S
C450 C451 1.524 . S
C450 C464 1.377 . S
C451 C450 1.524 . S
C451 C452 1.397 . S
C451 C456 1.363 . S
C452 H429 0.950 . S
C452 C451 1.397 . S
C452 C453 1.334 . S
C453 H430 0.950 . S
C453 C452 1.334 . S
C453 C454 1.287 . S
C454 C453 1.287 . S
C454 C455 1.524 . S
C454 H473 0.913 . S
C455 H431 0.950 . S
C455 C454 1.524 . S
C455 C456 1.415 . S
C456 H432 0.950 . S
C456 C451 1.363 . S
C456 C455 1.415 . S
C457 H433 0.951 . S
C457 C458 1.366 . S
C457 C459 1.388 . S
C458 C457 1.366 . S
C458 C462 1.385 . S
C459 H434 0.951 . S
C459 C457 1.388 . S
C459 C460 1.366 . S
C460 C459 1.366 . S
C460 C461 1.414 . S
C460 C463 1.499 . S
C461 H435 0.950 . S
C461 C460 1.414 . S
C461 C462 1.374 . S
C462 H436 0.950 . S
C462 C458 1.385 . S
C462 C461 1.374 . S
C463 C460 1.499 . S
C463 C464 1.373 . S
C463 C465 1.389 . S
C464 H437 0.950 . S
C464 C450 1.377 . S
C464 C463 1.373 . S
C465 C449 1.377 . S
C465 C463 1.389 . S
C465 C466 1.524 . S
C466 C465 1.524 . S
C466 C467 1.397 . S
C466 C471 1.363 . S
C467 H438 0.950 . S
C467 C466 1.397 . S
C467 C468 1.334 . S
C468 H439 0.950 . S
C468 C467 1.334 . S
C468 C469 1.287 . S
C469 C468 1.287 . S
C469 C470 1.524 . S
C469 H472 0.999 . S
C470 H440 0.950 . S
C470 C469 1.524 . S
C470 C471 1.415 . S
C471 H441 0.950 . S
C471 C466 1.363 . S
C471 C470 1.415 . S
H472 C469 0.999 . S
H473 C454 0.913 . S
H474 C492 0.951 . S
H475 C494 0.951 . S
H476 C496 0.950 . S
H477 C497 0.950 . S
H478 C499 0.950 . S
H479 C502 0.950 . S
H480 C503 0.950 . S
H481 C505 0.950 . S
H482 C506 0.950 . S
H483 C507 0.951 . S
H484 C509 0.951 . S
H485 C511 0.950 . S
H486 C512 0.950 . S
H487 C514 0.950 . S
H488 C517 0.950 . S
H489 C518 0.950 . S
H490 C520 0.950 . S
H491 C521 0.950 . S
C492 H474 0.951 . S
C492 C493 1.366 . S
C492 C494 1.388 . S
C493 C492 1.366 . S
C493 C497 1.385 . S
C494 H475 0.951 . S
C494 C492 1.388 . S
C494 C495 1.366 . S
C495 C494 1.366 . S
C495 C496 1.414 . S
C495 C498 1.499 . S
C496 H476 0.950 . S
C496 C495 1.414 . S
C496 C497 1.374 . S
C497 H477 0.950 . S
C497 C493 1.385 . S
C497 C496 1.374 . S
C498 C495 1.499 . S
C498 C499 1.373 . S
C498 C500 1.389 . S
C499 H478 0.950 . S
C499 C498 1.373 . S
C499 C515 1.377 . S
C500 C498 1.389 . S
C500 C501 1.524 . S
C500 C514 1.377 . S
C501 C500 1.524 . S
C501 C502 1.397 . S
C501 C506 1.363 . S
C502 H479 0.950 . S
C502 C501 1.397 . S
C502 C503 1.334 . S
C503 H480 0.950 . S
C503 C502 1.334 . S
C503 C504 1.287 . S
C504 C503 1.287 . S
C504 C505 1.524 . S
C504 H523 0.913 . S
C505 H481 0.950 . S
C505 C504 1.524 . S
C505 C506 1.415 . S
C506 H482 0.950 . S
C506 C501 1.363 . S
C506 C505 1.415 . S
C507 H483 0.951 . S
C507 C508 1.366 . S
C507 C509 1.388 . S
C508 C507 1.366 . S
C508 C512 1.385 . S
C509 H484 0.951 . S
C509 C507 1.388 . S
C509 C510 1.366 . S
C510 C509 1.366 . S
C510 C511 1.414 . S
C510 C513 1.499 . S
C511 H485 0.950 . S
C511 C510 1.414 . S
C511 C512 1.374 . S
C512 H486 0.950 . S
C512 C508 1.385 . S
C512 C511 1.374 . S
C513 C510 1.499 . S
C513 C514 1.373 . S
C513 C515 1.389 . S
C514 H487 0.950 . S
C514 C500 1.377 . S
C514 C513 1.373 . S
C515 C499 1.377 . S
C515 C513 1.389 . S
C515 C516 1.524 . S
C516 C515 1.524 . S
C516 C517 1.397 . S
C516 C521 1.363 . S
C517 H488 0.950 . S
C517 C516 1.397 . S
C517 C518 1.334 . S
C518 H489 0.950 . S
C518 C517 1.334 . S
C518 C519 1.287 . S
C519 C518 1.287 . S
C519 C520 1.524 . S
C519 H522 0.999 . S
C520 H490 0.950 . S
C520 C519 1.524 . S
C520 C521 1.415 . S
C521 H491 0.950 . S
C521 C516 1.363 . S
C521 C520 1.415 . S
H522 C519 0.999 . S
H523 C504 0.913 . S
H524 C542 0.951 . S
H525 C544 0.951 . S
H526 C546 0.950 . S
H527 C547 0.950 . S
H528 C549 0.950 . S
H529 C552 0.950 . S
H530 C553 0.950 . S
H531 C555 0.950 . S
H532 C556 0.950 . S
H533 C557 0.951 . S
H534 C559 0.951 . S
H535 C561 0.950 . S
H536 C562 0.950 . S
H537 C564 0.950 . S
H538 C567 0.950 . S
H539 C568 0.950 . S
H540 C570 0.950 . S
H541 C571 0.950 . S
C542 H524 0.951 . S
C542 C543 1.366 . S
C542 C544 1.388 . S
C543 C542 1.366 . S
C543 C547 1.385 . S
C544 H525 0.951 . S
C544 C542 1.388 . S
C544 C545 1.366 . S
C545 C544 1.366 . S
C545 C546 1.414 . S
C545 C548 1.499 . S
C546 H526 0.950 . S
C546 C545 1.414 . S
C546 C547 1.374 . S
C547 H527 0.950 . S
C547 C543 1.385 . S
C547 C546 1.374 . S
C548 C545 1.499 . S
C548 C549 1.373 . S
C548 C550 1.389 . S
C549 H528 0.950 . S
C549 C548 1.373 . S
C549 C565 1.377 . S
C550 C548 1.389 . S
C550 C551 1.524 . S
C550 C564 1.377 . S
C551 C550 1.524 . S
C551 C552 1.397 . S
C551 C556 1.363 . S
C552 H529 0.950 . S
C552 C551 1.397 . S
C552 C553 1.334 . S
C553 H530 0.950 . S
C553 C552 1.334 . S
C553 C554 1.287 . S
C554 C553 1.287 . S
C554 C555 1.524 . S
C554 H573 0.913 . S
C555 H531 0.950 . S
C555 C554 1.524 . S
C555 C556 1.415 . S
C556 H532 0.950 . S
C556 C551 1.363 . S
C556 C555 1.415 . S
C557 H533 0.951 . S
C557 C558 1.366 . S
C557 C559 1.388 . S
C558 C557 1.366 . S
C558 C562 1.385 . S
C559 H534 0.951 . S
C559 C557 1.388 . S
C559 C560 1.366 . S
C560 C559 1.366 . S
C560 C561 1.414 . S
C560 C563 1.499 . S
C561 H535 0.950 . S
C561 C560 1.414 . S
C561 C562 1.374 . S
C562 H536 0.950 . S
C562 C558 1.385 . S
C562 C561 1.374 . S
C563 C560 1.499 . S
C563 C564 1.373 . S
C563 C565 1.389 . S
C564 H537 0.950 . S
C564 C550 1.377 . S
C564 C563 1.373 . S
C565 C549 1.377 . S
C565 C563 1.389 . S
C565 C566 1.524 . S
C566 C565 1.524 . S
C566 C567 1.397 . S
C566 C571 1.363 . S
C567 H538 0.950 . S
C567 C566 1.397 . S
C567 C568 1.334 . S
C568 H539 0.950 . S
C568 C567 1.334 . S
C568 C569 1.287 . S
C569 C568 1.287 . S
C569 C570 1.524 . S
C569 H572 0.999 . S
C570 H540 0.950 . S
C570 C569 1.524 . S
C570 C571 1.415 . S
C571 H541 0.950 . S
C571 C566 1.363 . S
C571 C570 1.415 . S
H572 C569 0.999 . S
H573 C554 0.913 . S
H574 C592 0.951 . S
H575 C594 0.951 . S
H576 C596 0.950 . S
H577 C597 0.950 . S
H578 C599 0.950 . S
H579 C602 0.950 . S
H580 C603 0.950 . S
H581 C605 0.950 . S
H582 C606 0.950 . S
H583 C607 0.951 . S
H584 C609 0.951 . S
H585 C611 0.950 . S
H586 C612 0.950 . S
H587 C614 0.950 . S
H588 C617 0.950 . S
H589 C618 0.950 . S
H590 C620 0.950 . S
H591 C621 0.950 . S
C592 H574 0.951 . S
C592 C593 1.366 . S
C592 C594 1.388 . S
C593 C592 1.366 . S
C593 C597 1.385 . S
C594 H575 0.951 . S
C594 C592 1.388 . S
C594 C595 1.366 . S
C595 C594 1.366 . S
C595 C596 1.414 . S
C595 C598 1.499 . S
C596 H576 0.950 . S
C596 C595 1.414 . S
C596 C597 1.374 . S
C597 H577 0.950 . S
C597 C593 1.385 . S
C597 C596 1.374 . S
C598 C595 1.499 . S
C598 C599 1.373 . S
C598 C600 1.389 . S
C599 H578 0.950 . S
C599 C598 1.373 . S
C599 C615 1.377 . S
C600 C598 1.389 . S
C600 C601 1.524 . S
C600 C614 1.377 . S
C601 C600 1.524 . S
C601 C602 1.397 . S
C601 C606 1.363 . S
C602 H579 0.950 . S
C602 C601 1.397 . S
C602 C603 1.334 . S
C603 H580 0.950 . S
C603 C602 1.334 . S
C603 C604 1.287 . S
C604 C603 1.287 . S
C604 C605 1.524 . S
C604 H623 0.913 . S
C605 H581 0.950 . S
C605 C604 1.524 . S
C605 C606 1.415 . S
C606 H582 0.950 . S
C606 C601 1.363 . S
C606 C605 1.415 . S
C607 H583 0.951 . S
C607 C608 1.366 . S
C607 C609 1.388 . S
C608 C607 1.366 . S
C608 C612 1.385 . S
C609 H584 0.951 . S
C609 C607 1.388 . S
C609 C610 1.366 . S
C610 C609 1.366 . S
C610 C611 1.414 . S
C610 C613 1.499 . S
C611 H585 0.950 . S
C611 C610 1.414 . S
C611 C612 1.374 . S
C612 H586 0.950 . S
C612 C608 1.385 . S
C612 C611 1.374 . S
C613 C610 1.499 . S
C613 C614 1.373 . S
C613 C615 1.389 . S
C614 H587 0.950 . S
C614 C600 1.377 . S
C614 C613 1.373 . S
C615 C599 1.377 . S
C615 C613 1.389 . S
C615 C616 1.524 . S
C616 C615 1.524 . S
C616 C617 1.397 . S
C616 C621 1.363 . S
C617 H588 0.950 . S
C617 C616 1.397 . S
C617 C618 1.334 . S
C618 H589 0.950 . S
C618 C617 1.334 . S
C618 C619 1.287 . S
C619 C618 1.287 . S
C619 C620 1.524 . S
C619 H622 0.999 . S
C620 H590 0.950 . S
C620 C619 1.524 . S
C620 C621 1.415 . S
C621 H591 0.950 . S
C621 C616 1.363 . S
C621 C620 1.415 . S
H622 C619 0.999 . S
H623 C604 0.913 . S
H624 C642 0.951 . S
H625 C644 0.951 . S
H626 C646 0.950 . S
H627 C647 0.950 . S
H628 C649 0.950 . S
H629 C652 0.950 . S
H630 C653 0.950 . S
H631 C655 0.950 1_545 S
H632 C656 0.941 1_545 S
H633 C657 0.951 . S
H634 C659 0.951 . S
H635 C661 0.950 . S
H636 C662 0.950 . S
H637 C664 0.950 . S
H638 C667 0.950 . S
H639 C668 0.950 . S
H640 C670 0.950 1_565 S
H641 C671 0.950 1_565 S
C642 H624 0.951 . S
C642 C643 1.366 . S
C642 C644 1.388 . S
C643 C642 1.366 . S
C643 C647 1.385 . S
C644 H625 0.951 . S
C644 C642 1.388 . S
C644 C645 1.366 . S
C645 C644 1.366 . S
C645 C646 1.414 . S
C645 C648 1.499 . S
C646 H626 0.950 . S
C646 C645 1.414 . S
C646 C647 1.374 . S
C647 H627 0.950 . S
C647 C643 1.385 . S
C647 C646 1.374 . S
C648 C645 1.499 . S
C648 C649 1.373 . S
C648 C650 1.389 . S
C649 H628 0.950 . S
C649 C648 1.373 . S
C649 C665 1.377 1_565 S
C650 C648 1.389 . S
C650 C651 1.524 . S
C650 C664 1.377 1_565 S
C651 C650 1.524 . S
C651 C652 1.397 . S
C651 C656 1.370 . S
C652 H629 0.950 . S
C652 C651 1.397 . S
C652 C653 1.334 . S
C653 H630 0.950 . S
C653 C652 1.334 . S
C653 C654 1.287 . S
C654 C653 1.287 . S
C654 C655 1.524 . S
C654 H673 0.913 . S
C655 H631 0.950 1_565 S
C655 C654 1.524 . S
C655 C656 1.417 . S
C656 H632 0.941 1_565 S
C656 C651 1.370 . S
C656 C655 1.417 . S
C657 H633 0.951 . S
C657 C658 1.366 . S
C657 C659 1.388 . S
C658 C657 1.366 . S
C658 C662 1.385 . S
C659 H634 0.951 . S
C659 C657 1.388 . S
C659 C660 1.366 . S
C660 C659 1.366 . S
C660 C661 1.414 . S
C660 C663 1.499 . S
C661 H635 0.950 . S
C661 C660 1.414 . S
C661 C662 1.374 . S
C662 H636 0.950 . S
C662 C658 1.385 . S
C662 C661 1.374 . S
C663 C660 1.499 . S
C663 C664 1.373 . S
C663 C665 1.389 . S
C664 H637 0.950 . S
C664 C650 1.377 1_545 S
C664 C663 1.373 . S
C665 C649 1.377 1_545 S
C665 C663 1.389 . S
C665 C666 1.524 . S
C666 C665 1.524 . S
C666 C667 1.397 . S
C666 C671 1.363 . S
C667 H638 0.950 . S
C667 C666 1.397 . S
C667 C668 1.334 . S
C668 H639 0.950 . S
C668 C667 1.334 . S
C668 C669 1.287 . S
C669 C668 1.287 . S
C669 C670 1.524 . S
C669 H672 0.999 . S
C670 H640 0.950 1_545 S
C670 C669 1.524 . S
C670 C671 1.415 . S
C671 H641 0.950 1_545 S
C671 C666 1.363 . S
C671 C670 1.415 . S
H672 C669 0.999 . S
H673 C654 0.913 . S
H674 C692 0.951 . S
H675 C694 0.951 . S
H676 C696 0.950 . S
H677 C697 0.950 . S
H678 C699 0.950 . S
H679 C702 0.950 . S
H680 C703 0.950 . S
H681 C705 0.950 . S
H682 C706 0.950 . S
H683 C707 0.951 . S
H684 C709 0.951 . S
H685 C711 0.950 . S
H686 C712 0.950 . S
H687 C714 0.950 . S
H688 C717 0.950 . S
H689 C718 0.950 . S
H690 C720 0.950 . S
H691 C721 0.950 . S
C692 H674 0.951 . S
C692 C693 1.366 . S
C692 C694 1.388 . S
C693 C692 1.366 . S
C693 C697 1.385 . S
C694 H675 0.951 . S
C694 C692 1.388 . S
C694 C695 1.366 . S
C695 C694 1.366 . S
C695 C696 1.414 . S
C695 C698 1.499 . S
C696 H676 0.950 . S
C696 C695 1.414 . S
C696 C697 1.374 . S
C697 H677 0.950 . S
C697 C693 1.385 . S
C697 C696 1.374 . S
C698 C695 1.499 . S
C698 C699 1.373 . S
C698 C700 1.389 . S
C699 H678 0.950 . S
C699 C698 1.373 . S
C699 C715 1.377 . S
C700 C698 1.389 . S
C700 C701 1.524 . S
C700 C714 1.377 . S
C701 C700 1.524 . S
C701 C702 1.397 . S
C701 C706 1.363 . S
C702 H679 0.950 . S
C702 C701 1.397 . S
C702 C703 1.334 . S
C703 H680 0.950 . S
C703 C702 1.334 . S
C703 C704 1.287 . S
C704 C703 1.287 . S
C704 C705 1.524 . S
C704 H723 0.913 . S
C705 H681 0.950 . S
C705 C704 1.524 . S
C705 C706 1.415 . S
C706 H682 0.950 . S
C706 C701 1.363 . S
C706 C705 1.415 . S
C707 H683 0.951 . S
C707 C708 1.366 . S
C707 C709 1.388 . S
C708 C707 1.366 . S
C708 C712 1.385 . S
C709 H684 0.951 . S
C709 C707 1.388 . S
C709 C710 1.366 . S
C710 C709 1.366 . S
C710 C711 1.414 . S
C710 C713 1.499 . S
C711 H685 0.950 . S
C711 C710 1.414 . S
C711 C712 1.374 . S
C712 H686 0.950 . S
C712 C708 1.385 . S
C712 C711 1.374 . S
C713 C710 1.499 . S
C713 C714 1.373 . S
C713 C715 1.389 . S
C714 H687 0.950 . S
C714 C700 1.377 . S
C714 C713 1.373 . S
C715 C699 1.377 . S
C715 C713 1.389 . S
C715 C716 1.524 . S
C716 C715 1.524 . S
C716 C717 1.397 . S
C716 C721 1.363 . S
C717 H688 0.950 . S
C717 C716 1.397 . S
C717 C718 1.334 . S
C718 H689 0.950 . S
C718 C717 1.334 . S
C718 C719 1.287 . S
C719 C718 1.287 . S
C719 C720 1.524 . S
C719 H722 0.999 . S
C720 H690 0.950 . S
C720 C719 1.524 . S
C720 C721 1.415 . S
C721 H691 0.950 . S
C721 C716 1.363 . S
C721 C720 1.415 . S
H722 C719 0.999 . S
H723 C704 0.913 . S
H724 C742 0.951 . S
H725 C744 0.951 . S
H726 C746 0.950 . S
H727 C747 0.950 . S
H728 C749 0.950 . S
H729 C752 0.950 . S
H730 C753 0.950 . S
H731 C755 0.932 1_554 S
H732 C756 0.950 1_554 S
H733 C757 0.951 . S
H734 C759 0.951 . S
H735 C761 0.950 . S
H736 C762 0.950 . S
H737 C764 0.947 . S
H738 C767 0.950 1_554 S
H739 C768 0.948 1_554 S
H740 C770 0.950 . S
H741 C771 0.950 . S
C742 H724 0.951 . S
C742 C743 1.366 . S
C742 C744 1.388 . S
C743 C742 1.366 . S
C743 C747 1.385 . S
C744 H725 0.951 . S
C744 C742 1.388 . S
C744 C745 1.366 . S
C745 C744 1.366 . S
C745 C746 1.414 . S
C745 C748 1.499 . S
C746 H726 0.950 . S
C746 C745 1.414 . S
C746 C747 1.374 . S
C747 H727 0.950 . S
C747 C743 1.385 . S
C747 C746 1.374 . S
C748 C745 1.499 . S
C748 C749 1.373 . S
C748 C750 1.389 . S
C749 H728 0.950 . S
C749 C748 1.373 . S
C749 C765 1.377 . S
C750 C748 1.389 . S
C750 C751 1.524 . S
C750 C764 1.380 1_556 S
C751 C750 1.524 . S
C751 C752 1.397 . S
C751 C756 1.363 . S
C752 H729 0.950 . S
C752 C751 1.397 . S
C752 C753 1.334 . S
C753 H730 0.950 . S
C753 C752 1.334 . S
C753 C754 1.287 . S
C754 C753 1.287 . S
C754 C755 1.544 . S
C754 H773 0.913 . S
C755 H731 0.932 1_556 S
C755 C754 1.544 . S
C755 C756 1.415 . S
C756 H732 0.950 1_556 S
C756 C751 1.363 . S
C756 C755 1.415 . S
C757 H733 0.951 . S
C757 C758 1.366 . S
C757 C759 1.388 . S
C758 C757 1.366 . S
C758 C762 1.385 . S
C759 H734 0.951 . S
C759 C757 1.388 . S
C759 C760 1.366 . S
C760 C759 1.366 . S
C760 C761 1.414 . S
C760 C763 1.535 . S
C761 H735 0.950 . S
C761 C760 1.414 . S
C761 C762 1.374 . S
C762 H736 0.950 . S
C762 C758 1.385 . S
C762 C761 1.374 . S
C763 C760 1.535 . S
C763 C764 1.371 . S
C763 C765 1.354 1_554 S
C764 H737 0.947 . S
C764 C750 1.380 1_554 S
C764 C763 1.371 . S
C765 C749 1.377 . S
C765 C763 1.354 1_556 S
C765 C766 1.524 . S
C766 C765 1.524 . S
C766 C767 1.397 . S
C766 C771 1.363 . S
C767 H738 0.950 1_556 S
C767 C766 1.397 . S
C767 C768 1.334 . S
C768 H739 0.948 1_556 S
C768 C767 1.334 . S
C768 C769 1.289 . S
C769 C768 1.289 . S
C769 C770 1.524 . S
C769 H772 0.999 . S
C770 H740 0.950 . S
C770 C769 1.524 . S
C770 C771 1.415 . S
C771 H741 0.950 . S
C771 C766 1.363 . S
C771 C770 1.415 . S
H772 C769 0.999 . S
H773 C754 0.913 . S
H774 C792 0.951 . S
H775 C794 0.951 . S
H776 C796 0.950 . S
H777 C797 0.950 . S
H778 C799 0.950 1_554 S
H779 C802 0.950 . S
H780 C803 0.950 . S
H781 C805 0.950 . S
H782 C806 0.950 . S
H783 C807 0.951 . S
H784 C809 0.951 . S
H785 C811 0.950 . S
H786 C812 0.950 . S
H787 C814 0.950 . S
H788 C817 0.950 . S
H789 C818 0.950 . S
H790 C820 0.950 . S
H791 C821 0.950 . S
C792 H774 0.951 . S
C792 C793 1.366 . S
C792 C794 1.388 . S
C793 C792 1.366 . S
C793 C797 1.385 . S
C794 H775 0.951 . S
C794 C792 1.388 . S
C794 C795 1.366 . S
C795 C794 1.366 . S
C795 C796 1.414 . S
C795 C798 1.523 . S
C796 H776 0.950 . S
C796 C795 1.414 . S
C796 C797 1.374 . S
C797 H777 0.950 . S
C797 C793 1.385 . S
C797 C796 1.374 . S
C798 C795 1.523 . S
C798 C799 1.369 1_554 S
C798 C800 1.369 1_554 S
C799 H778 0.950 1_556 S
C799 C798 1.369 1_556 S
C799 C815 1.377 . S
C800 C798 1.369 1_556 S
C800 C801 1.524 . S
C800 C814 1.377 . S
C801 C800 1.524 . S
C801 C802 1.397 1_556 S
C801 C806 1.363 . S
C802 H779 0.950 . S
C802 C801 1.397 1_554 S
C802 C803 1.334 . S
C803 H780 0.950 . S
C803 C802 1.334 . S
C803 C804 1.290 1_554 S
C804 C803 1.290 1_556 S
C804 C805 1.520 . S
C804 H823 0.914 1_556 S
C805 H781 0.950 . S
C805 C804 1.520 . S
C805 C806 1.415 . S
C806 H782 0.950 . S
C806 C801 1.363 . S
C806 C805 1.415 . S
C807 H783 0.951 . S
C807 C808 1.366 . S
C807 C809 1.388 . S
C808 C807 1.366 . S
C808 C812 1.385 . S
C809 H784 0.951 . S
C809 C807 1.388 . S
C809 C810 1.366 . S
C810 C809 1.366 . S
C810 C811 1.414 . S
C810 C813 1.499 . S
C811 H785 0.950 . S
C811 C810 1.414 . S
C811 C812 1.374 . S
C812 H786 0.950 . S
C812 C808 1.385 . S
C812 C811 1.374 . S
C813 C810 1.499 . S
C813 C814 1.373 . S
C813 C815 1.389 . S
C814 H787 0.950 . S
C814 C800 1.377 . S
C814 C813 1.373 . S
C815 C799 1.377 . S
C815 C813 1.389 . S
C815 C816 1.524 . S
C816 C815 1.524 . S
C816 C817 1.397 . S
C816 C821 1.363 . S
C817 H788 0.950 . S
C817 C816 1.397 . S
C817 C818 1.334 . S
C818 H789 0.950 . S
C818 C817 1.334 . S
C818 C819 1.287 . S
C819 C818 1.287 . S
C819 C820 1.524 . S
C819 H822 0.999 . S
C820 H790 0.950 . S
C820 C819 1.524 . S
C820 C821 1.415 . S
C821 H791 0.950 . S
C821 C816 1.363 . S
C821 C820 1.415 . S
H822 C819 0.999 . S
H823 C804 0.914 1_554 S
H824 C842 0.951 . S
H825 C844 0.951 . S
H826 C846 0.950 . S
H827 C847 0.950 . S
H828 C849 0.950 . S
H829 C852 0.950 . S
H830 C853 0.950 . S
H831 C855 0.950 . S
H832 C856 0.950 . S
H833 C857 0.951 . S
H834 C859 0.951 . S
H835 C861 0.950 . S
H836 C862 0.950 . S
H837 C864 0.950 . S
H838 C867 0.950 . S
H839 C868 0.950 . S
H840 C870 0.950 . S
H841 C871 0.950 . S
C842 H824 0.951 . S
C842 C843 1.366 . S
C842 C844 1.388 . S
C843 C842 1.366 . S
C843 C847 1.385 . S
C844 H825 0.951 . S
C844 C842 1.388 . S
C844 C845 1.366 . S
C845 C844 1.366 . S
C845 C846 1.414 . S
C845 C848 1.499 . S
C846 H826 0.950 . S
C846 C845 1.414 . S
C846 C847 1.374 . S
C847 H827 0.950 . S
C847 C843 1.385 . S
C847 C846 1.374 . S
C848 C845 1.499 . S
C848 C849 1.373 . S
C848 C850 1.389 . S
C849 H828 0.950 . S
C849 C848 1.373 . S
C849 C865 1.377 . S
C850 C848 1.389 . S
C850 C851 1.524 . S
C850 C864 1.377 . S
C851 C850 1.524 . S
C851 C852 1.397 . S
C851 C856 1.363 . S
C852 H829 0.950 . S
C852 C851 1.397 . S
C852 C853 1.334 . S
C853 H830 0.950 . S
C853 C852 1.334 . S
C853 C854 1.287 . S
C854 C853 1.287 . S
C854 C855 1.524 . S
C854 H873 0.913 . S
C855 H831 0.950 . S
C855 C854 1.524 . S
C855 C856 1.415 . S
C856 H832 0.950 . S
C856 C851 1.363 . S
C856 C855 1.415 . S
C857 H833 0.951 . S
C857 C858 1.366 . S
C857 C859 1.388 . S
C858 C857 1.366 . S
C858 C862 1.385 . S
C859 H834 0.951 . S
C859 C857 1.388 . S
C859 C860 1.366 . S
C860 C859 1.366 . S
C860 C861 1.414 . S
C860 C863 1.499 . S
C861 H835 0.950 . S
C861 C860 1.414 . S
C861 C862 1.374 . S
C862 H836 0.950 . S
C862 C858 1.385 . S
C862 C861 1.374 . S
C863 C860 1.499 . S
C863 C864 1.373 . S
C863 C865 1.389 . S
C864 H837 0.950 . S
C864 C850 1.377 . S
C864 C863 1.373 . S
C865 C849 1.377 . S
C865 C863 1.389 . S
C865 C866 1.524 . S
C866 C865 1.524 . S
C866 C867 1.397 . S
C866 C871 1.363 . S
C867 H838 0.950 . S
C867 C866 1.397 . S
C867 C868 1.334 . S
C868 H839 0.950 . S
C868 C867 1.334 . S
C868 C869 1.287 . S
C869 C868 1.287 . S
C869 C870 1.524 . S
C869 H872 0.999 . S
C870 H840 0.950 . S
C870 C869 1.524 . S
C870 C871 1.415 . S
C871 H841 0.950 . S
C871 C866 1.363 . S
C871 C870 1.415 . S
H872 C869 0.999 . S
H873 C854 0.913 . S
H874 C892 0.951 . S
H875 C894 0.951 . S
H876 C896 0.950 . S
H877 C897 0.950 . S
H878 C899 0.950 . S
H879 C902 0.950 . S
H880 C903 0.950 . S
H881 C905 0.950 . S
H882 C906 0.950 . S
H883 C907 0.951 . S
H884 C909 0.951 . S
H885 C911 0.950 . S
H886 C912 0.950 . S
H887 C914 0.950 . S
H888 C917 0.950 . S
H889 C918 0.950 . S
H890 C920 0.950 . S
H891 C921 0.950 . S
C892 H874 0.951 . S
C892 C893 1.366 . S
C892 C894 1.388 . S
C893 C892 1.366 . S
C893 C897 1.385 . S
C894 H875 0.951 . S
C894 C892 1.388 . S
C894 C895 1.366 . S
C895 C894 1.366 . S
C895 C896 1.414 . S
C895 C898 1.499 . S
C896 H876 0.950 . S
C896 C895 1.414 . S
C896 C897 1.374 . S
C897 H877 0.950 . S
C897 C893 1.385 . S
C897 C896 1.374 . S
C898 C895 1.499 . S
C898 C899 1.373 . S
C898 C900 1.389 . S
C899 H878 0.950 . S
C899 C898 1.373 . S
C899 C915 1.377 . S
C900 C898 1.389 . S
C900 C901 1.524 . S
C900 C914 1.377 . S
C901 C900 1.524 . S
C901 C902 1.397 . S
C901 C906 1.363 . S
C902 H879 0.950 . S
C902 C901 1.397 . S
C902 C903 1.334 . S
C903 H880 0.950 . S
C903 C902 1.334 . S
C903 C904 1.287 . S
C904 C903 1.287 . S
C904 C905 1.524 . S
C904 H923 0.913 . S
C905 H881 0.950 . S
C905 C904 1.524 . S
C905 C906 1.415 . S
C906 H882 0.950 . S
C906 C901 1.363 . S
C906 C905 1.415 . S
C907 H883 0.951 . S
C907 C908 1.366 . S
C907 C909 1.388 . S
C908 C907 1.366 . S
C908 C912 1.385 . S
C909 H884 0.951 . S
C909 C907 1.388 . S
C909 C910 1.366 . S
C910 C909 1.366 . S
C910 C911 1.414 . S
C910 C913 1.499 . S
C911 H885 0.950 . S
C911 C910 1.414 . S
C911 C912 1.374 . S
C912 H886 0.950 . S
C912 C908 1.385 . S
C912 C911 1.374 . S
C913 C910 1.499 . S
C913 C914 1.373 . S
C913 C915 1.389 . S
C914 H887 0.950 . S
C914 C900 1.377 . S
C914 C913 1.373 . S
C915 C899 1.377 . S
C915 C913 1.389 . S
C915 C916 1.524 . S
C916 C915 1.524 . S
C916 C917 1.397 . S
C916 C921 1.363 . S
C917 H888 0.950 . S
C917 C916 1.397 . S
C917 C918 1.334 . S
C918 H889 0.950 . S
C918 C917 1.334 . S
C918 C919 1.287 . S
C919 C918 1.287 . S
C919 C920 1.524 . S
C919 H922 0.999 . S
C920 H890 0.950 . S
C920 C919 1.524 . S
C920 C921 1.415 . S
C921 H891 0.950 . S
C921 C916 1.363 . S
C921 C920 1.415 . S
H922 C919 0.999 . S
H923 C904 0.913 . S
H924 C942 0.951 . S
H925 C944 0.951 . S
H926 C946 0.950 . S
H927 C947 0.950 . S
H928 C949 0.950 . S
H929 C952 0.950 . S
H930 C953 0.950 . S
H931 C955 0.950 . S
H932 C956 0.950 . S
H933 C957 0.951 . S
H934 C959 0.951 . S
H935 C961 0.950 . S
H936 C962 0.950 . S
H937 C964 0.950 . S
H938 C967 0.950 . S
H939 C968 0.950 . S
H940 C970 0.950 . S
H941 C971 0.950 . S
C942 H924 0.951 . S
C942 C943 1.366 . S
C942 C944 1.388 . S
C943 C942 1.366 . S
C943 C947 1.385 . S
C944 H925 0.951 . S
C944 C942 1.388 . S
C944 C945 1.366 . S
C945 C944 1.366 . S
C945 C946 1.414 . S
C945 C948 1.499 . S
C946 H926 0.950 . S
C946 C945 1.414 . S
C946 C947 1.374 . S
C947 H927 0.950 . S
C947 C943 1.385 . S
C947 C946 1.374 . S
C948 C945 1.499 . S
C948 C949 1.373 1_655 S
C948 C950 1.389 . S
C949 H928 0.950 . S
C949 C948 1.373 1_455 S
C949 C965 1.377 . S
C950 C948 1.389 . S
C950 C951 1.524 . S
C950 C964 1.377 . S
C951 C950 1.524 . S
C951 C952 1.397 . S
C951 C956 1.363 . S
C952 H929 0.950 . S
C952 C951 1.397 . S
C952 C953 1.334 . S
C953 H930 0.950 . S
C953 C952 1.334 . S
C953 C954 1.287 . S
C954 C953 1.287 . S
C954 C955 1.524 . S
C954 H973 0.913 . S
C955 H931 0.950 . S
C955 C954 1.524 . S
C955 C956 1.415 . S
C956 H932 0.950 . S
C956 C951 1.363 . S
C956 C955 1.415 . S
C957 H933 0.951 . S
C957 C958 1.366 . S
C957 C959 1.388 . S
C958 C957 1.366 . S
C958 C962 1.385 . S
C959 H934 0.951 . S
C959 C957 1.388 . S
C959 C960 1.366 . S
C960 C959 1.366 . S
C960 C961 1.414 . S
C960 C963 1.499 . S
C961 H935 0.950 . S
C961 C960 1.414 . S
C961 C962 1.374 . S
C962 H936 0.950 . S
C962 C958 1.385 . S
C962 C961 1.374 . S
C963 C960 1.499 . S
C963 C964 1.373 1_455 S
C963 C965 1.389 . S
C964 H937 0.950 . S
C964 C950 1.377 . S
C964 C963 1.373 1_655 S
C965 C949 1.377 . S
C965 C963 1.389 . S
C965 C966 1.524 . S
C966 C965 1.524 . S
C966 C967 1.397 . S
C966 C971 1.363 . S
C967 H938 0.950 . S
C967 C966 1.397 . S
C967 C968 1.334 . S
C968 H939 0.950 . S
C968 C967 1.334 . S
C968 C969 1.287 . S
C969 C968 1.287 . S
C969 C970 1.524 . S
C969 H972 0.999 . S
C970 H940 0.950 . S
C970 C969 1.524 . S
C970 C971 1.415 . S
C971 H941 0.950 . S
C971 C966 1.363 . S
C971 C970 1.415 . S
H972 C969 0.999 . S
H973 C954 0.913 . S
H974 C992 0.951 . S
H975 C994 0.951 . S
H976 C996 0.950 . S
H977 C997 0.950 . S
H978 C999 0.950 . S
H979 C1002 0.950 . S
H980 C1003 0.950 . S
H981 C1005 0.950 . S
H982 C1006 0.950 . S
H983 C1007 0.951 . S
H984 C1009 0.951 . S
H985 C1011 0.950 . S
H986 C1012 0.950 . S
H987 C1014 0.950 . S
H988 C1017 0.950 . S
H989 C1018 0.950 . S
H990 C1020 0.950 . S
H991 C1021 0.950 . S
C992 H974 0.951 . S
C992 C993 1.366 . S
C992 C994 1.388 . S
C993 C992 1.366 . S
C993 C997 1.385 . S
C994 H975 0.951 . S
C994 C992 1.388 . S
C994 C995 1.366 . S
C995 C994 1.366 . S
C995 C996 1.414 . S
C995 C998 1.499 . S
C996 H976 0.950 . S
C996 C995 1.414 . S
C996 C997 1.374 . S
C997 H977 0.950 . S
C997 C993 1.385 . S
C997 C996 1.374 . S
C998 C995 1.499 . S
C998 C999 1.373 . S
C998 C1000 1.389 1_655 S
C999 H978 0.950 . S
C999 C998 1.373 . S
C999 C1015 1.377 1_655 S
C1000 C998 1.389 1_455 S
C1000 C1001 1.524 . S
C1000 C1014 1.377 . S
C1001 C1000 1.524 . S
C1001 C1002 1.397 1_455 S
C1001 C1006 1.363 . S
C1002 H979 0.950 . S
C1002 C1001 1.397 1_655 S
C1002 C1003 1.334 . S
C1003 H980 0.950 . S
C1003 C1002 1.334 . S
C1003 C1004 1.287 1_655 S
C1004 C1003 1.287 1_455 S
C1004 C1005 1.524 . S
C1004 H1023 0.913 . S
C1005 H981 0.950 . S
C1005 C1004 1.524 . S
C1005 C1006 1.415 . S
C1006 H982 0.950 . S
C1006 C1001 1.363 . S
C1006 C1005 1.415 . S
C1007 H983 0.951 . S
C1007 C1008 1.366 . S
C1007 C1009 1.388 . S
C1008 C1007 1.366 . S
C1008 C1012 1.385 . S
C1009 H984 0.951 . S
C1009 C1007 1.388 . S
C1009 C1010 1.366 . S
C1010 C1009 1.366 . S
C1010 C1011 1.414 . S
C1010 C1013 1.499 . S
C1011 H985 0.950 . S
C1011 C1010 1.414 . S
C1011 C1012 1.374 . S
C1012 H986 0.950 . S
C1012 C1008 1.385 . S
C1012 C1011 1.374 . S
C1013 C1010 1.499 . S
C1013 C1014 1.373 . S
C1013 C1015 1.389 . S
C1014 H987 0.950 . S
C1014 C1000 1.377 . S
C1014 C1013 1.373 . S
C1015 C999 1.377 1_455 S
C1015 C1013 1.389 . S
C1015 C1016 1.524 . S
C1016 C1015 1.524 . S
C1016 C1017 1.397 . S
C1016 C1021 1.363 1_455 S
C1017 H988 0.950 . S
C1017 C1016 1.397 . S
C1017 C1018 1.334 . S
C1018 H989 0.950 . S
C1018 C1017 1.334 . S
C1018 C1019 1.287 . S
C1019 C1018 1.287 . S
C1019 C1020 1.524 1_455 S
C1019 H1022 0.999 . S
C1020 H990 0.950 . S
C1020 C1019 1.524 1_655 S
C1020 C1021 1.415 . S
C1021 H991 0.950 . S
C1021 C1016 1.363 1_655 S
C1021 C1020 1.415 . S
H1022 C1019 0.999 . S
H1023 C1004 0.913 . S
H1024 C1042 0.951 . S
H1025 C1044 0.951 . S
H1026 C1046 0.950 . S
H1027 C1047 0.950 . S
H1028 C1049 0.950 . S
H1029 C1052 0.950 . S
H1030 C1053 0.950 . S
H1031 C1055 0.950 . S
H1032 C1056 0.950 . S
H1033 C1057 0.951 . S
H1034 C1059 0.951 . S
H1035 C1061 0.950 . S
H1036 C1062 0.950 . S
H1037 C1064 0.950 . S
H1038 C1067 0.950 . S
H1039 C1068 0.950 . S
H1040 C1070 0.950 . S
H1041 C1071 0.950 . S
C1042 H1024 0.951 . S
C1042 C1043 1.366 . S
C1042 C1044 1.388 . S
C1043 C1042 1.366 . S
C1043 C1047 1.385 . S
C1044 H1025 0.951 . S
C1044 C1042 1.388 . S
C1044 C1045 1.366 . S
C1045 C1044 1.366 . S
C1045 C1046 1.414 . S
C1045 C1048 1.499 . S
C1046 H1026 0.950 . S
C1046 C1045 1.414 . S
C1046 C1047 1.374 . S
C1047 H1027 0.950 . S
C1047 C1043 1.385 . S
C1047 C1046 1.374 . S
C1048 C1045 1.499 . S
C1048 C1049 1.373 . S
C1048 C1050 1.389 . S
C1049 H1028 0.950 . S
C1049 C1048 1.373 . S
C1049 C1065 1.377 . S
C1050 C1048 1.389 . S
C1050 C1051 1.524 . S
C1050 C1064 1.377 . S
C1051 C1050 1.524 . S
C1051 C1052 1.397 . S
C1051 C1056 1.363 . S
C1052 H1029 0.950 . S
C1052 C1051 1.397 . S
C1052 C1053 1.334 . S
C1053 H1030 0.950 . S
C1053 C1052 1.334 . S
C1053 C1054 1.287 . S
C1054 C1053 1.287 . S
C1054 C1055 1.524 . S
C1054 H1073 0.913 . S
C1055 H1031 0.950 . S
C1055 C1054 1.524 . S
C1055 C1056 1.415 . S
C1056 H1032 0.950 . S
C1056 C1051 1.363 . S
C1056 C1055 1.415 . S
C1057 H1033 0.951 . S
C1057 C1058 1.366 . S
C1057 C1059 1.388 . S
C1058 C1057 1.366 . S
C1058 C1062 1.385 . S
C1059 H1034 0.951 . S
C1059 C1057 1.388 . S
C1059 C1060 1.366 . S
C1060 C1059 1.366 . S
C1060 C1061 1.414 . S
C1060 C1063 1.499 . S
C1061 H1035 0.950 . S
C1061 C1060 1.414 . S
C1061 C1062 1.374 . S
C1062 H1036 0.950 . S
C1062 C1058 1.385 . S
C1062 C1061 1.374 . S
C1063 C1060 1.499 . S
C1063 C1064 1.373 . S
C1063 C1065 1.389 . S
C1064 H1037 0.950 . S
C1064 C1050 1.377 . S
C1064 C1063 1.373 . S
C1065 C1049 1.377 . S
C1065 C1063 1.389 . S
C1065 C1066 1.524 . S
C1066 C1065 1.524 . S
C1066 C1067 1.397 . S
C1066 C1071 1.363 . S
C1067 H1038 0.950 . S
C1067 C1066 1.397 . S
C1067 C1068 1.334 . S
C1068 H1039 0.950 . S
C1068 C1067 1.334 . S
C1068 C1069 1.287 . S
C1069 C1068 1.287 . S
C1069 C1070 1.524 . S
C1069 H1072 0.999 . S
C1070 H1040 0.950 . S
C1070 C1069 1.524 . S
C1070 C1071 1.415 . S
C1071 H1041 0.950 . S
C1071 C1066 1.363 . S
C1071 C1070 1.415 . S
H1072 C1069 0.999 . S
H1073 C1054 0.913 . S
H1074 C1092 0.951 . S
H1075 C1094 0.951 . S
H1076 C1096 0.950 . S
H1077 C1097 0.950 . S
H1078 C1099 0.950 . S
H1079 C1102 0.950 . S
H1080 C1103 0.950 . S
H1081 C1105 0.950 . S
H1082 C1106 0.950 . S
H1083 C1107 0.951 . S
H1084 C1109 0.951 . S
H1085 C1111 0.950 . S
H1086 C1112 0.950 . S
H1087 C1114 0.950 . S
H1088 C1117 0.950 1_565 S
H1089 C1118 0.950 . S
H1090 C1120 0.950 . S
H1091 C1121 0.950 . S
C1092 H1074 0.951 . S
C1092 C1093 1.366 . S
C1092 C1094 1.388 . S
C1093 C1092 1.366 . S
C1093 C1097 1.385 . S
C1094 H1075 0.951 . S
C1094 C1092 1.388 . S
C1094 C1095 1.366 . S
C1095 C1094 1.366 . S
C1095 C1096 1.414 . S
C1095 C1098 1.499 . S
C1096 H1076 0.950 . S
C1096 C1095 1.414 . S
C1096 C1097 1.374 . S
C1097 H1077 0.950 . S
C1097 C1093 1.385 . S
C1097 C1096 1.374 . S
C1098 C1095 1.499 . S
C1098 C1099 1.373 . S
C1098 C1100 1.389 . S
C1099 H1078 0.950 . S
C1099 C1098 1.373 . S
C1099 C1115 1.377 . S
C1100 C1098 1.389 . S
C1100 C1101 1.529 . S
C1100 C1114 1.377 1_545 S
C1101 C1100 1.529 . S
C1101 C1102 1.417 . S
C1101 C1106 1.339 1_545 S
C1102 H1079 0.950 . S
C1102 C1101 1.417 . S
C1102 C1103 1.334 . S
C1103 H1080 0.950 . S
C1103 C1102 1.334 . S
C1103 C1104 1.287 1_545 S
C1104 C1103 1.287 1_565 S
C1104 C1105 1.524 . S
C1104 H1123 0.913 . S
C1105 H1081 0.950 . S
C1105 C1104 1.524 . S
C1105 C1106 1.415 . S
C1106 H1082 0.950 . S
C1106 C1101 1.339 1_565 S
C1106 C1105 1.415 . S
C1107 H1083 0.951 . S
C1107 C1108 1.366 . S
C1107 C1109 1.388 . S
C1108 C1107 1.366 . S
C1108 C1112 1.385 . S
C1109 H1084 0.951 . S
C1109 C1107 1.388 . S
C1109 C1110 1.366 . S
C1110 C1109 1.366 . S
C1110 C1111 1.414 . S
C1110 C1113 1.499 . S
C1111 H1085 0.950 . S
C1111 C1110 1.414 . S
C1111 C1112 1.374 . S
C1112 H1086 0.950 . S
C1112 C1108 1.385 . S
C1112 C1111 1.374 . S
C1113 C1110 1.499 . S
C1113 C1114 1.373 . S
C1113 C1115 1.389 1_565 S
C1114 H1087 0.950 . S
C1114 C1100 1.377 1_565 S
C1114 C1113 1.373 . S
C1115 C1099 1.377 . S
C1115 C1113 1.389 1_545 S
C1115 C1116 1.524 . S
C1116 C1115 1.524 . S
C1116 C1117 1.397 . S
C1116 C1121 1.363 . S
C1117 H1088 0.950 1_545 S
C1117 C1116 1.397 . S
C1117 C1118 1.334 . S
C1118 H1089 0.950 . S
C1118 C1117 1.334 . S
C1118 C1119 1.287 . S
C1119 C1118 1.287 . S
C1119 C1120 1.524 . S
C1119 H1122 0.999 . S
C1120 H1090 0.950 . S
C1120 C1119 1.524 . S
C1120 C1121 1.415 . S
C1121 H1091 0.950 . S
C1121 C1116 1.363 . S
C1121 C1120 1.415 . S
H1122 C1119 0.999 . S
H1123 C1104 0.913 . S
H1124 C1142 0.951 . S
H1125 C1144 0.951 . S
H1126 C1146 0.950 . S
H1127 C1147 0.950 . S
H1128 C1149 0.950 . S
H1129 C1152 0.950 . S
H1130 C1153 0.950 . S
H1131 C1155 0.950 . S
H1132 C1156 0.950 . S
H1133 C1157 0.951 . S
H1134 C1159 0.951 . S
H1135 C1161 0.950 . S
H1136 C1162 0.950 . S
H1137 C1164 0.950 . S
H1138 C1167 0.950 . S
H1139 C1168 0.950 . S
H1140 C1170 0.950 . S
H1141 C1171 0.950 . S
C1142 H1124 0.951 . S
C1142 C1143 1.366 . S
C1142 C1144 1.388 . S
C1143 C1142 1.366 . S
C1143 C1147 1.385 . S
C1144 H1125 0.951 . S
C1144 C1142 1.388 . S
C1144 C1145 1.366 . S
C1145 C1144 1.366 . S
C1145 C1146 1.414 . S
C1145 C1148 1.499 . S
C1146 H1126 0.950 . S
C1146 C1145 1.414 . S
C1146 C1147 1.374 . S
C1147 H1127 0.950 . S
C1147 C1143 1.385 . S
C1147 C1146 1.374 . S
C1148 C1145 1.499 . S
C1148 C1149 1.373 . S
C1148 C1150 1.389 . S
C1149 H1128 0.950 . S
C1149 C1148 1.373 . S
C1149 C1165 1.377 . S
C1150 C1148 1.389 . S
C1150 C1151 1.524 . S
C1150 C1164 1.377 . S
C1151 C1150 1.524 . S
C1151 C1152 1.397 . S
C1151 C1156 1.363 . S
C1152 H1129 0.950 . S
C1152 C1151 1.397 . S
C1152 C1153 1.334 . S
C1153 H1130 0.950 . S
C1153 C1152 1.334 . S
C1153 C1154 1.287 . S
C1154 C1153 1.287 . S
C1154 C1155 1.524 . S
C1154 H1173 0.913 . S
C1155 H1131 0.950 . S
C1155 C1154 1.524 . S
C1155 C1156 1.415 . S
C1156 H1132 0.950 . S
C1156 C1151 1.363 . S
C1156 C1155 1.415 . S
C1157 H1133 0.951 . S
C1157 C1158 1.366 . S
C1157 C1159 1.388 . S
C1158 C1157 1.366 . S
C1158 C1162 1.385 . S
C1159 H1134 0.951 . S
C1159 C1157 1.388 . S
C1159 C1160 1.366 . S
C1160 C1159 1.366 . S
C1160 C1161 1.414 . S
C1160 C1163 1.499 . S
C1161 H1135 0.950 . S
C1161 C1160 1.414 . S
C1161 C1162 1.374 . S
C1162 H1136 0.950 . S
C1162 C1158 1.385 . S
C1162 C1161 1.374 . S
C1163 C1160 1.499 . S
C1163 C1164 1.373 . S
C1163 C1165 1.389 . S
C1164 H1137 0.950 . S
C1164 C1150 1.377 . S
C1164 C1163 1.373 . S
C1165 C1149 1.377 . S
C1165 C1163 1.389 . S
C1165 C1166 1.524 . S
C1166 C1165 1.524 . S
C1166 C1167 1.397 . S
C1166 C1171 1.363 . S
C1167 H1138 0.950 . S
C1167 C1166 1.397 . S
C1167 C1168 1.334 . S
C1168 H1139 0.950 . S
C1168 C1167 1.334 . S
C1168 C1169 1.287 . S
C1169 C1168 1.287 . S
C1169 C1170 1.524 . S
C1169 H1172 0.999 . S
C1170 H1140 0.950 . S
C1170 C1169 1.524 . S
C1170 C1171 1.415 . S
C1171 H1141 0.950 . S
C1171 C1166 1.363 . S
C1171 C1170 1.415 . S
H1172 C1169 0.999 . S
H1173 C1154 0.913 . S
H1174 C1192 0.951 . S
H1175 C1194 0.951 . S
H1176 C1196 0.950 . S
H1177 C1197 0.950 . S
H1178 C1199 0.950 . S
H1179 C1202 0.950 . S
H1180 C1203 0.950 . S
H1181 C1205 0.932 1_556 S
H1182 C1206 0.950 1_556 S
H1183 C1207 0.951 . S
H1184 C1209 0.951 . S
H1185 C1211 0.950 . S
H1186 C1212 0.950 . S
H1187 C1214 0.950 1_556 S
H1188 C1217 0.950 1_556 S
H1189 C1218 0.950 1_556 S
H1190 C1220 0.950 . S
H1191 C1221 0.950 . S
C1192 H1174 0.951 . S
C1192 C1193 1.366 . S
C1192 C1194 1.388 . S
C1193 C1192 1.366 . S
C1193 C1197 1.385 . S
C1194 H1175 0.951 . S
C1194 C1192 1.388 . S
C1194 C1195 1.366 . S
C1195 C1194 1.366 . S
C1195 C1196 1.414 . S
C1195 C1198 1.499 . S
C1196 H1176 0.950 . S
C1196 C1195 1.414 . S
C1196 C1197 1.374 . S
C1197 H1177 0.950 . S
C1197 C1193 1.385 . S
C1197 C1196 1.374 . S
C1198 C1195 1.499 . S
C1198 C1199 1.373 . S
C1198 C1200 1.389 . S
C1199 H1178 0.950 . S
C1199 C1198 1.373 . S
C1199 C1215 1.377 . S
C1200 C1198 1.389 . S
C1200 C1201 1.524 . S
C1200 C1214 1.377 . S
C1201 C1200 1.524 . S
C1201 C1202 1.397 . S
C1201 C1206 1.363 . S
C1202 H1179 0.950 . S
C1202 C1201 1.397 . S
C1202 C1203 1.334 . S
C1203 H1180 0.950 . S
C1203 C1202 1.334 . S
C1203 C1204 1.287 . S
C1204 C1203 1.287 . S
C1204 C1205 1.524 . S
C1204 H1223 0.913 . S
C1205 H1181 0.932 1_554 S
C1205 C1204 1.524 . S
C1205 C1206 1.415 . S
C1206 H1182 0.950 1_554 S
C1206 C1201 1.363 . S
C1206 C1205 1.415 . S
C1207 H1183 0.951 . S
C1207 C1208 1.366 . S
C1207 C1209 1.388 . S
C1208 C1207 1.366 . S
C1208 C1212 1.385 . S
C1209 H1184 0.951 . S
C1209 C1207 1.388 . S
C1209 C1210 1.366 . S
C1210 C1209 1.366 . S
C1210 C1211 1.414 . S
C1210 C1213 1.499 1_556 S
C1211 H1185 0.950 . S
C1211 C1210 1.414 . S
C1211 C1212 1.374 . S
C1212 H1186 0.950 . S
C1212 C1208 1.385 . S
C1212 C1211 1.374 . S
C1213 C1210 1.499 1_554 S
C1213 C1214 1.373 . S
C1213 C1215 1.389 . S
C1214 H1187 0.950 1_554 S
C1214 C1200 1.377 . S
C1214 C1213 1.373 . S
C1215 C1199 1.377 . S
C1215 C1213 1.389 . S
C1215 C1216 1.524 . S
C1216 C1215 1.524 . S
C1216 C1217 1.397 . S
C1216 C1221 1.363 . S
C1217 H1188 0.950 1_554 S
C1217 C1216 1.397 . S
C1217 C1218 1.334 . S
C1218 H1189 0.950 1_554 S
C1218 C1217 1.334 . S
C1218 C1219 1.287 . S
C1219 C1218 1.287 . S
C1219 C1220 1.524 . S
C1219 H1222 0.999 . S
C1220 H1190 0.950 . S
C1220 C1219 1.524 . S
C1220 C1221 1.415 . S
C1221 H1191 0.950 . S
C1221 C1216 1.363 . S
C1221 C1220 1.415 . S
H1222 C1219 0.999 . S
H1223 C1204 0.913 . S
H1224 C1242 0.951 . S
H1225 C1244 0.951 . S
H1226 C1246 0.950 . S
H1227 C1247 0.950 . S
H1228 C1249 0.950 . S
H1229 C1252 0.950 . S
H1230 C1253 0.950 . S
H1231 C1255 0.950 . S
H1232 C1256 0.950 . S
H1233 C1257 0.951 . S
H1234 C1259 0.951 . S
H1235 C1261 0.950 . S
H1236 C1262 0.950 . S
H1237 C1264 0.950 . S
H1238 C1267 0.950 . S
H1239 C1268 0.950 . S
H1240 C1270 0.950 . S
H1241 C1271 0.950 . S
C1242 H1224 0.951 . S
C1242 C1243 1.366 . S
C1242 C1244 1.388 . S
C1243 C1242 1.366 . S
C1243 C1247 1.385 . S
C1244 H1225 0.951 . S
C1244 C1242 1.388 . S
C1244 C1245 1.366 . S
C1245 C1244 1.366 . S
C1245 C1246 1.414 . S
C1245 C1248 1.499 . S
C1246 H1226 0.950 . S
C1246 C1245 1.414 . S
C1246 C1247 1.374 . S
C1247 H1227 0.950 . S
C1247 C1243 1.385 . S
C1247 C1246 1.374 . S
C1248 C1245 1.499 . S
C1248 C1249 1.373 1_556 S
C1248 C1250 1.389 . S
C1249 H1228 0.950 . S
C1249 C1248 1.373 1_554 S
C1249 C1265 1.377 . S
C1250 C1248 1.389 . S
C1250 C1251 1.524 . S
C1250 C1264 1.377 1_556 S
C1251 C1250 1.524 . S
C1251 C1252 1.397 . S
C1251 C1256 1.363 . S
C1252 H1229 0.950 . S
C1252 C1251 1.397 . S
C1252 C1253 1.334 . S
C1253 H1230 0.950 . S
C1253 C1252 1.334 . S
C1253 C1254 1.287 . S
C1254 C1253 1.287 . S
C1254 C1255 1.524 . S
C1254 H1273 0.913 . S
C1255 H1231 0.950 . S
C1255 C1254 1.524 . S
C1255 C1256 1.415 . S
C1256 H1232 0.950 . S
C1256 C1251 1.363 . S
C1256 C1255 1.415 . S
C1257 H1233 0.951 . S
C1257 C1258 1.366 . S
C1257 C1259 1.388 . S
C1258 C1257 1.366 . S
C1258 C1262 1.385 . S
C1259 H1234 0.951 . S
C1259 C1257 1.388 . S
C1259 C1260 1.366 . S
C1260 C1259 1.366 . S
C1260 C1261 1.414 . S
C1260 C1263 1.499 . S
C1261 H1235 0.950 . S
C1261 C1260 1.414 . S
C1261 C1262 1.374 . S
C1262 H1236 0.950 . S
C1262 C1258 1.385 . S
C1262 C1261 1.374 . S
C1263 C1260 1.499 . S
C1263 C1264 1.373 . S
C1263 C1265 1.389 . S
C1264 H1237 0.950 . S
C1264 C1250 1.377 1_554 S
C1264 C1263 1.373 . S
C1265 C1249 1.377 . S
C1265 C1263 1.389 . S
C1265 C1266 1.524 . S
C1266 C1265 1.524 . S
C1266 C1267 1.397 . S
C1266 C1271 1.363 . S
C1267 H1238 0.950 . S
C1267 C1266 1.397 . S
C1267 C1268 1.334 . S
C1268 H1239 0.950 . S
C1268 C1267 1.334 . S
C1268 C1269 1.287 . S
C1269 C1268 1.287 . S
C1269 C1270 1.524 . S
C1269 H1272 0.999 . S
C1270 H1240 0.950 . S
C1270 C1269 1.524 . S
C1270 C1271 1.415 . S
C1271 H1241 0.950 . S
C1271 C1266 1.363 . S
C1271 C1270 1.415 . S
H1272 C1269 0.999 . S
H1273 C1254 0.913 . S
H1274 C1292 0.951 . S
H1275 C1294 0.951 . S
H1276 C1296 0.950 . S
H1277 C1297 0.950 . S
H1278 C1299 0.950 . S
H1279 C1302 0.950 . S
H1280 C1303 0.950 . S
H1281 C1305 0.950 . S
H1282 C1306 0.950 . S
H1283 C1307 0.951 . S
H1284 C1309 0.951 . S
H1285 C1311 0.950 . S
H1286 C1312 0.950 . S
H1287 C1314 0.950 . S
H1288 C1317 0.950 . S
H1289 C1318 0.950 . S
H1290 C1320 0.950 . S
H1291 C1321 0.950 . S
C1292 H1274 0.951 . S
C1292 C1293 1.366 . S
C1292 C1294 1.388 . S
C1293 C1292 1.366 . S
C1293 C1297 1.385 . S
C1294 H1275 0.951 . S
C1294 C1292 1.388 . S
C1294 C1295 1.366 . S
C1295 C1294 1.366 . S
C1295 C1296 1.414 . S
C1295 C1298 1.499 . S
C1296 H1276 0.950 . S
C1296 C1295 1.414 . S
C1296 C1297 1.374 . S
C1297 H1277 0.950 . S
C1297 C1293 1.385 . S
C1297 C1296 1.374 . S
C1298 C1295 1.499 . S
C1298 C1299 1.373 . S
C1298 C1300 1.389 . S
C1299 H1278 0.950 . S
C1299 C1298 1.373 . S
C1299 C1315 1.377 . S
C1300 C1298 1.389 . S
C1300 C1301 1.524 . S
C1300 C1314 1.377 . S
C1301 C1300 1.524 . S
C1301 C1302 1.397 . S
C1301 C1306 1.363 . S
C1302 H1279 0.950 . S
C1302 C1301 1.397 . S
C1302 C1303 1.334 . S
C1303 H1280 0.950 . S
C1303 C1302 1.334 . S
C1303 C1304 1.287 . S
C1304 C1303 1.287 . S
C1304 C1305 1.524 . S
C1304 H1323 0.913 . S
C1305 H1281 0.950 . S
C1305 C1304 1.524 . S
C1305 C1306 1.415 . S
C1306 H1282 0.950 . S
C1306 C1301 1.363 . S
C1306 C1305 1.415 . S
C1307 H1283 0.951 . S
C1307 C1308 1.366 . S
C1307 C1309 1.388 . S
C1308 C1307 1.366 . S
C1308 C1312 1.385 . S
C1309 H1284 0.951 . S
C1309 C1307 1.388 . S
C1309 C1310 1.366 . S
C1310 C1309 1.366 . S
C1310 C1311 1.414 . S
C1310 C1313 1.499 . S
C1311 H1285 0.950 . S
C1311 C1310 1.414 . S
C1311 C1312 1.374 . S
C1312 H1286 0.950 . S
C1312 C1308 1.385 . S
C1312 C1311 1.374 . S
C1313 C1310 1.499 . S
C1313 C1314 1.373 . S
C1313 C1315 1.389 . S
C1314 H1287 0.950 . S
C1314 C1300 1.377 . S
C1314 C1313 1.373 . S
C1315 C1299 1.377 . S
C1315 C1313 1.389 . S
C1315 C1316 1.524 . S
C1316 C1315 1.524 . S
C1316 C1317 1.397 . S
C1316 C1321 1.363 . S
C1317 H1288 0.950 . S
C1317 C1316 1.397 . S
C1317 C1318 1.334 . S
C1318 H1289 0.950 . S
C1318 C1317 1.334 . S
C1318 C1319 1.287 . S
C1319 C1318 1.287 . S
C1319 C1320 1.524 . S
C1319 H1322 0.999 . S
C1320 H1290 0.950 . S
C1320 C1319 1.524 . S
C1320 C1321 1.415 . S
C1321 H1291 0.950 . S
C1321 C1316 1.363 . S
C1321 C1320 1.415 . S
H1322 C1319 0.999 . S
H1323 C1304 0.913 . S
H1324 C1342 0.951 . S
H1325 C1344 0.951 . S
H1326 C1346 0.950 . S
H1327 C1347 0.950 . S
H1328 C1349 0.950 . S
H1329 C1352 0.950 . S
H1330 C1353 0.950 . S
H1331 C1355 0.950 . S
H1332 C1356 0.950 . S
H1333 C1357 0.951 . S
H1334 C1359 0.951 . S
H1335 C1361 0.950 . S
H1336 C1362 0.950 . S
H1337 C1364 0.950 . S
H1338 C1367 0.950 . S
H1339 C1368 0.950 . S
H1340 C1370 0.950 . S
H1341 C1371 0.950 . S
C1342 H1324 0.951 . S
C1342 C1343 1.366 . S
C1342 C1344 1.388 . S
C1343 C1342 1.366 . S
C1343 C1347 1.385 . S
C1344 H1325 0.951 . S
C1344 C1342 1.388 . S
C1344 C1345 1.366 . S
C1345 C1344 1.366 . S
C1345 C1346 1.414 . S
C1345 C1348 1.499 . S
C1346 H1326 0.950 . S
C1346 C1345 1.414 . S
C1346 C1347 1.374 . S
C1347 H1327 0.950 . S
C1347 C1343 1.385 . S
C1347 C1346 1.374 . S
C1348 C1345 1.499 . S
C1348 C1349 1.373 . S
C1348 C1350 1.389 . S
C1349 H1328 0.950 . S
C1349 C1348 1.373 . S
C1349 C1365 1.377 . S
C1350 C1348 1.389 . S
C1350 C1351 1.524 . S
C1350 C1364 1.377 . S
C1351 C1350 1.524 . S
C1351 C1352 1.397 . S
C1351 C1356 1.363 . S
C1352 H1329 0.950 . S
C1352 C1351 1.397 . S
C1352 C1353 1.334 . S
C1353 H1330 0.950 . S
C1353 C1352 1.334 . S
C1353 C1354 1.287 . S
C1354 C1353 1.287 . S
C1354 C1355 1.524 . S
C1354 H1373 0.913 . S
C1355 H1331 0.950 . S
C1355 C1354 1.524 . S
C1355 C1356 1.415 . S
C1356 H1332 0.950 . S
C1356 C1351 1.363 . S
C1356 C1355 1.415 . S
C1357 H1333 0.951 . S
C1357 C1358 1.366 . S
C1357 C1359 1.388 . S
C1358 C1357 1.366 . S
C1358 C1362 1.385 . S
C1359 H1334 0.951 . S
C1359 C1357 1.388 . S
C1359 C1360 1.366 . S
C1360 C1359 1.366 . S
C1360 C1361 1.414 . S
C1360 C1363 1.499 . S
C1361 H1335 0.950 . S
C1361 C1360 1.414 . S
C1361 C1362 1.374 . S
C1362 H1336 0.950 . S
C1362 C1358 1.385 . S
C1362 C1361 1.374 . S
C1363 C1360 1.499 . S
C1363 C1364 1.373 . S
C1363 C1365 1.389 . S
C1364 H1337 0.950 . S
C1364 C1350 1.377 . S
C1364 C1363 1.373 . S
C1365 C1349 1.377 . S
C1365 C1363 1.389 . S
C1365 C1366 1.524 . S
C1366 C1365 1.524 . S
C1366 C1367 1.397 . S
C1366 C1371 1.363 . S
C1367 H1338 0.950 . S
C1367 C1366 1.397 . S
C1367 C1368 1.334 . S
C1368 H1339 0.950 . S
C1368 C1367 1.334 . S
C1368 C1369 1.287 . S
C1369 C1368 1.287 . S
C1369 C1370 1.524 . S
C1369 H1372 0.999 . S
C1370 H1340 0.950 . S
C1370 C1369 1.524 . S
C1370 C1371 1.415 . S
C1371 H1341 0.950 . S
C1371 C1366 1.363 . S
C1371 C1370 1.415 . S
H1372 C1369 0.999 . S
H1373 C1354 0.913 . S
H1374 C1392 0.951 . S
H1375 C1394 0.951 . S
H1376 C1396 0.950 . S
H1377 C1397 0.950 . S
H1378 C1399 0.954 . S
H1379 C1402 0.950 . S
H1380 C1403 0.950 . S
H1381 C1405 0.950 . S
H1382 C1406 0.950 . S
H1383 C1407 0.951 . S
H1384 C1409 0.951 . S
H1385 C1411 0.950 . S
H1386 C1412 0.950 . S
H1387 C1414 0.950 . S
H1388 C1417 0.950 . S
H1389 C1418 0.950 . S
H1390 C1420 0.950 . S
H1391 C1421 0.950 . S
C1392 H1374 0.951 . S
C1392 C1393 1.366 . S
C1392 C1394 1.388 . S
C1393 C1392 1.366 . S
C1393 C1397 1.385 . S
C1394 H1375 0.951 . S
C1394 C1392 1.388 . S
C1394 C1395 1.366 . S
C1395 C1394 1.366 . S
C1395 C1396 1.414 . S
C1395 C1398 1.499 . S
C1396 H1376 0.950 . S
C1396 C1395 1.414 . S
C1396 C1397 1.374 . S
C1397 H1377 0.950 . S
C1397 C1393 1.385 . S
C1397 C1396 1.374 . S
C1398 C1395 1.499 . S
C1398 C1399 1.386 . S
C1398 C1400 1.389 . S
C1399 H1378 0.954 . S
C1399 C1398 1.386 . S
C1399 C1415 1.361 1_455 S
C1400 C1398 1.389 . S
C1400 C1401 1.524 . S
C1400 C1414 1.377 1_455 S
C1401 C1400 1.524 . S
C1401 C1402 1.397 . S
C1401 C1406 1.363 . S
C1402 H1379 0.950 . S
C1402 C1401 1.397 . S
C1402 C1403 1.334 . S
C1403 H1380 0.950 . S
C1403 C1402 1.334 . S
C1403 C1404 1.287 . S
C1404 C1403 1.287 . S
C1404 C1405 1.524 . S
C1404 H1423 0.913 . S
C1405 H1381 0.950 . S
C1405 C1404 1.524 . S
C1405 C1406 1.415 . S
C1406 H1382 0.950 . S
C1406 C1401 1.363 . S
C1406 C1405 1.415 . S
C1407 H1383 0.951 . S
C1407 C1408 1.366 . S
C1407 C1409 1.388 . S
C1408 C1407 1.366 . S
C1408 C1412 1.385 . S
C1409 H1384 0.951 . S
C1409 C1407 1.388 . S
C1409 C1410 1.366 . S
C1410 C1409 1.366 . S
C1410 C1411 1.414 . S
C1410 C1413 1.499 . S
C1411 H1385 0.950 . S
C1411 C1410 1.414 . S
C1411 C1412 1.374 . S
C1412 H1386 0.950 . S
C1412 C1408 1.385 . S
C1412 C1411 1.374 . S
C1413 C1410 1.499 . S
C1413 C1414 1.373 . S
C1413 C1415 1.389 . S
C1414 H1387 0.950 . S
C1414 C1400 1.377 1_655 S
C1414 C1413 1.373 . S
C1415 C1399 1.361 1_655 S
C1415 C1413 1.389 . S
C1415 C1416 1.524 . S
C1416 C1415 1.524 . S
C1416 C1417 1.397 . S
C1416 C1421 1.363 . S
C1417 H1388 0.950 . S
C1417 C1416 1.397 . S
C1417 C1418 1.334 . S
C1418 H1389 0.950 . S
C1418 C1417 1.334 . S
C1418 C1419 1.287 . S
C1419 C1418 1.287 . S
C1419 C1420 1.524 . S
C1419 H1422 0.999 . S
C1420 H1390 0.950 . S
C1420 C1419 1.524 . S
C1420 C1421 1.415 . S
C1421 H1391 0.950 . S
C1421 C1416 1.363 . S
C1421 C1420 1.415 . S
H1422 C1419 0.999 . S
H1423 C1404 0.913 . S
H1424 C1442 0.951 . S
H1425 C1444 0.951 . S
H1426 C1446 0.950 . S
H1427 C1447 0.950 . S
H1428 C1449 0.950 . S
H1429 C1452 0.950 . S
H1430 C1453 0.950 . S
H1431 C1455 0.950 . S
H1432 C1456 0.950 . S
H1433 C1457 0.951 . S
H1434 C1459 0.951 . S
H1435 C1461 0.950 . S
H1436 C1462 0.950 . S
H1437 C1464 0.947 . S
H1438 C1467 0.950 . S
H1439 C1468 0.950 . S
H1440 C1470 0.950 . S
H1441 C1471 0.950 . S
C1442 H1424 0.951 . S
C1442 C1443 1.366 . S
C1442 C1444 1.388 . S
C1443 C1442 1.366 . S
C1443 C1447 1.385 . S
C1444 H1425 0.951 . S
C1444 C1442 1.388 . S
C1444 C1445 1.366 . S
C1445 C1444 1.366 . S
C1445 C1446 1.414 . S
C1445 C1448 1.499 . S
C1446 H1426 0.950 . S
C1446 C1445 1.414 . S
C1446 C1447 1.374 . S
C1447 H1427 0.950 . S
C1447 C1443 1.385 . S
C1447 C1446 1.374 . S
C1448 C1445 1.499 . S
C1448 C1449 1.373 . S
C1448 C1450 1.389 . S
C1449 H1428 0.950 . S
C1449 C1448 1.373 . S
C1449 C1465 1.377 1_455 S
C1450 C1448 1.389 . S
C1450 C1451 1.524 . S
C1450 C1464 1.351 1_455 S
C1451 C1450 1.524 . S
C1451 C1452 1.397 . S
C1451 C1456 1.363 . S
C1452 H1429 0.950 . S
C1452 C1451 1.397 . S
C1452 C1453 1.334 . S
C1453 H1430 0.950 . S
C1453 C1452 1.334 . S
C1453 C1454 1.287 . S
C1454 C1453 1.287 . S
C1454 C1455 1.524 . S
C1454 H1473 0.913 . S
C1455 H1431 0.950 . S
C1455 C1454 1.524 . S
C1455 C1456 1.415 . S
C1456 H1432 0.950 . S
C1456 C1451 1.363 . S
C1456 C1455 1.415 . S
C1457 H1433 0.951 . S
C1457 C1458 1.366 . S
C1457 C1459 1.388 . S
C1458 C1457 1.366 . S
C1458 C1462 1.385 . S
C1459 H1434 0.951 . S
C1459 C1457 1.388 . S
C1459 C1460 1.366 . S
C1460 C1459 1.366 . S
C1460 C1461 1.414 . S
C1460 C1463 1.499 . S
C1461 H1435 0.950 . S
C1461 C1460 1.414 . S
C1461 C1462 1.374 . S
C1462 H1436 0.950 . S
C1462 C1458 1.385 . S
C1462 C1461 1.374 . S
C1463 C1460 1.499 . S
C1463 C1464 1.402 . S
C1463 C1465 1.389 . S
C1464 H1437 0.947 . S
C1464 C1450 1.351 1_655 S
C1464 C1463 1.402 . S
C1465 C1449 1.377 1_655 S
C1465 C1463 1.389 . S
C1465 C1466 1.524 . S
C1466 C1465 1.524 . S
C1466 C1467 1.397 . S
C1466 C1471 1.363 . S
C1467 H1438 0.950 . S
C1467 C1466 1.397 . S
C1467 C1468 1.334 . S
C1468 H1439 0.950 . S
C1468 C1467 1.334 . S
C1468 C1469 1.287 . S
C1469 C1468 1.287 . S
C1469 C1470 1.524 . S
C1469 H1472 0.999 . S
C1470 H1440 0.950 . S
C1470 C1469 1.524 . S
C1470 C1471 1.415 . S
C1471 H1441 0.950 . S
C1471 C1466 1.363 . S
C1471 C1470 1.415 . S
H1472 C1469 0.999 . S
H1473 C1454 0.913 . S
H1474 C1492 0.951 . S
H1475 C1494 0.951 . S
H1476 C1496 0.950 . S
H1477 C1497 0.950 . S
H1478 C1499 0.950 . S
H1479 C1502 0.950 . S
H1480 C1503 0.950 . S
H1481 C1505 0.950 . S
H1482 C1506 0.950 . S
H1483 C1507 0.951 . S
H1484 C1509 0.951 . S
H1485 C1511 0.950 . S
H1486 C1512 0.950 . S
H1487 C1514 0.950 . S
H1488 C1517 0.950 . S
H1489 C1518 0.950 . S
H1490 C1520 0.950 . S
H1491 C1521 0.950 . S
C1492 H1474 0.951 . S
C1492 C1493 1.366 . S
C1492 C1494 1.388 . S
C1493 C1492 1.366 . S
C1493 C1497 1.385 . S
C1494 H1475 0.951 . S
C1494 C1492 1.388 . S
C1494 C1495 1.366 . S
C1495 C1494 1.366 . S
C1495 C1496 1.414 . S
C1495 C1498 1.499 . S
C1496 H1476 0.950 . S
C1496 C1495 1.414 . S
C1496 C1497 1.374 . S
C1497 H1477 0.950 . S
C1497 C1493 1.385 . S
C1497 C1496 1.374 . S
C1498 C1495 1.499 . S
C1498 C1499 1.373 . S
C1498 C1500 1.389 . S
C1499 H1478 0.950 . S
C1499 C1498 1.373 . S
C1499 C1515 1.377 . S
C1500 C1498 1.389 . S
C1500 C1501 1.524 . S
C1500 C1514 1.377 . S
C1501 C1500 1.524 . S
C1501 C1502 1.397 . S
C1501 C1506 1.363 . S
C1502 H1479 0.950 . S
C1502 C1501 1.397 . S
C1502 C1503 1.334 . S
C1503 H1480 0.950 . S
C1503 C1502 1.334 . S
C1503 C1504 1.287 . S
C1504 C1503 1.287 . S
C1504 C1505 1.524 . S
C1504 H1523 0.913 . S
C1505 H1481 0.950 . S
C1505 C1504 1.524 . S
C1505 C1506 1.415 . S
C1506 H1482 0.950 . S
C1506 C1501 1.363 . S
C1506 C1505 1.415 . S
C1507 H1483 0.951 . S
C1507 C1508 1.366 . S
C1507 C1509 1.388 . S
C1508 C1507 1.366 . S
C1508 C1512 1.385 . S
C1509 H1484 0.951 . S
C1509 C1507 1.388 . S
C1509 C1510 1.366 . S
C1510 C1509 1.366 . S
C1510 C1511 1.414 . S
C1510 C1513 1.499 . S
C1511 H1485 0.950 . S
C1511 C1510 1.414 . S
C1511 C1512 1.374 . S
C1512 H1486 0.950 . S
C1512 C1508 1.385 . S
C1512 C1511 1.374 . S
C1513 C1510 1.499 . S
C1513 C1514 1.373 . S
C1513 C1515 1.389 . S
C1514 H1487 0.950 . S
C1514 C1500 1.377 . S
C1514 C1513 1.373 . S
C1515 C1499 1.377 . S
C1515 C1513 1.389 . S
C1515 C1516 1.524 . S
C1516 C1515 1.524 . S
C1516 C1517 1.397 . S
C1516 C1521 1.363 . S
C1517 H1488 0.950 . S
C1517 C1516 1.397 . S
C1517 C1518 1.334 . S
C1518 H1489 0.950 . S
C1518 C1517 1.334 . S
C1518 C1519 1.287 . S
C1519 C1518 1.287 . S
C1519 C1520 1.524 . S
C1519 H1522 0.999 . S
C1520 H1490 0.950 . S
C1520 C1519 1.524 . S
C1520 C1521 1.415 . S
C1521 H1491 0.950 . S
C1521 C1516 1.363 . S
C1521 C1520 1.415 . S
H1522 C1519 0.999 . S
H1523 C1504 0.913 . S
H1524 C1542 0.951 . S
H1525 C1544 0.951 . S
H1526 C1546 0.950 . S
H1527 C1547 0.950 . S
H1528 C1549 0.950 . S
H1529 C1552 0.950 . S
H1530 C1553 0.950 . S
H1531 C1555 0.950 . S
H1532 C1556 0.950 . S
H1533 C1557 0.951 . S
H1534 C1559 0.951 . S
H1535 C1561 0.950 . S
H1536 C1562 0.950 . S
H1537 C1564 0.950 . S
H1538 C1567 0.950 . S
H1539 C1568 0.950 . S
H1540 C1570 0.950 . S
H1541 C1571 0.950 . S
C1542 H1524 0.951 . S
C1542 C1543 1.366 . S
C1542 C1544 1.388 . S
C1543 C1542 1.366 . S
C1543 C1547 1.385 . S
C1544 H1525 0.951 . S
C1544 C1542 1.388 . S
C1544 C1545 1.366 . S
C1545 C1544 1.366 . S
C1545 C1546 1.414 . S
C1545 C1548 1.499 . S
C1546 H1526 0.950 . S
C1546 C1545 1.414 . S
C1546 C1547 1.374 . S
C1547 H1527 0.950 . S
C1547 C1543 1.385 . S
C1547 C1546 1.374 . S
C1548 C1545 1.499 . S
C1548 C1549 1.373 . S
C1548 C1550 1.389 . S
C1549 H1528 0.950 . S
C1549 C1548 1.373 . S
C1549 C1565 1.377 . S
C1550 C1548 1.389 . S
C1550 C1551 1.524 . S
C1550 C1564 1.377 . S
C1551 C1550 1.524 . S
C1551 C1552 1.397 . S
C1551 C1556 1.363 . S
C1552 H1529 0.950 . S
C1552 C1551 1.397 . S
C1552 C1553 1.334 . S
C1553 H1530 0.950 . S
C1553 C1552 1.334 . S
C1553 C1554 1.287 . S
C1554 C1553 1.287 . S
C1554 C1555 1.524 . S
C1554 H1573 0.913 . S
C1555 H1531 0.950 . S
C1555 C1554 1.524 . S
C1555 C1556 1.415 . S
C1556 H1532 0.950 . S
C1556 C1551 1.363 . S
C1556 C1555 1.415 . S
C1557 H1533 0.951 . S
C1557 C1558 1.366 . S
C1557 C1559 1.388 . S
C1558 C1557 1.366 . S
C1558 C1562 1.385 . S
C1559 H1534 0.951 . S
C1559 C1557 1.388 . S
C1559 C1560 1.366 . S
C1560 C1559 1.366 . S
C1560 C1561 1.414 . S
C1560 C1563 1.499 . S
C1561 H1535 0.950 . S
C1561 C1560 1.414 . S
C1561 C1562 1.374 . S
C1562 H1536 0.950 . S
C1562 C1558 1.385 . S
C1562 C1561 1.374 . S
C1563 C1560 1.499 . S
C1563 C1564 1.373 . S
C1563 C1565 1.389 . S
C1564 H1537 0.950 . S
C1564 C1550 1.377 . S
C1564 C1563 1.373 . S
C1565 C1549 1.377 . S
C1565 C1563 1.389 . S
C1565 C1566 1.524 . S
C1566 C1565 1.524 . S
C1566 C1567 1.397 . S
C1566 C1571 1.363 . S
C1567 H1538 0.950 . S
C1567 C1566 1.397 . S
C1567 C1568 1.334 . S
C1568 H1539 0.950 . S
C1568 C1567 1.334 . S
C1568 C1569 1.287 . S
C1569 C1568 1.287 . S
C1569 C1570 1.524 . S
C1569 H1572 0.999 . S
C1570 H1540 0.950 . S
C1570 C1569 1.524 . S
C1570 C1571 1.415 . S
C1571 H1541 0.950 . S
C1571 C1566 1.363 . S
C1571 C1570 1.415 . S
H1572 C1569 0.999 . S
H1573 C1554 0.913 . S
H1574 C1592 0.951 . S
H1575 C1594 0.951 . S
H1576 C1596 0.950 . S
H1577 C1597 0.950 . S
H1578 C1599 0.950 . S
H1579 C1602 0.950 . S
H1580 C1603 0.950 . S
H1581 C1605 0.950 . S
H1582 C1606 0.950 . S
H1583 C1607 0.951 . S
H1584 C1609 0.951 . S
H1585 C1611 0.950 . S
H1586 C1612 0.950 . S
H1587 C1614 0.950 . S
H1588 C1617 0.950 . S
H1589 C1618 0.953 . S
H1590 C1620 0.950 . S
H1591 C1621 0.950 . S
C1592 H1574 0.951 . S
C1592 C1593 1.366 . S
C1592 C1594 1.388 . S
C1593 C1592 1.366 . S
C1593 C1597 1.385 . S
C1594 H1575 0.951 . S
C1594 C1592 1.388 . S
C1594 C1595 1.366 . S
C1595 C1594 1.366 . S
C1595 C1596 1.414 . S
C1595 C1598 1.499 . S
C1596 H1576 0.950 . S
C1596 C1595 1.414 . S
C1596 C1597 1.374 . S
C1597 H1577 0.950 . S
C1597 C1593 1.385 . S
C1597 C1596 1.374 . S
C1598 C1595 1.499 . S
C1598 C1599 1.373 . S
C1598 C1600 1.389 1_545 S
C1599 H1578 0.950 . S
C1599 C1598 1.373 . S
C1599 C1615 1.377 1_545 S
C1600 C1598 1.389 1_565 S
C1600 C1601 1.524 . S
C1600 C1614 1.377 . S
C1601 C1600 1.524 . S
C1601 C1602 1.397 . S
C1601 C1606 1.363 . S
C1602 H1579 0.950 . S
C1602 C1601 1.397 . S
C1602 C1603 1.334 . S
C1603 H1580 0.950 . S
C1603 C1602 1.334 . S
C1603 C1604 1.287 . S
C1604 C1603 1.287 . S
C1604 C1605 1.524 . S
C1604 H1623 0.913 . S
C1605 H1581 0.950 . S
C1605 C1604 1.524 . S
C1605 C1606 1.415 . S
C1606 H1582 0.950 . S
C1606 C1601 1.363 . S
C1606 C1605 1.415 . S
C1607 H1583 0.951 . S
C1607 C1608 1.366 . S
C1607 C1609 1.388 . S
C1608 C1607 1.366 . S
C1608 C1612 1.385 . S
C1609 H1584 0.951 . S
C1609 C1607 1.388 . S
C1609 C1610 1.366 . S
C1610 C1609 1.366 . S
C1610 C1611 1.414 . S
C1610 C1613 1.499 . S
C1611 H1585 0.950 . S
C1611 C1610 1.414 . S
C1611 C1612 1.374 . S
C1612 H1586 0.950 . S
C1612 C1608 1.385 . S
C1612 C1611 1.374 . S
C1613 C1610 1.499 . S
C1613 C1614 1.373 . S
C1613 C1615 1.389 . S
C1614 H1587 0.950 . S
C1614 C1600 1.377 . S
C1614 C1613 1.373 . S
C1615 C1599 1.377 1_565 S
C1615 C1613 1.389 . S
C1615 C1616 1.527 . S
C1616 C1615 1.527 . S
C1616 C1617 1.399 . S
C1616 C1621 1.356 1_565 S
C1617 H1588 0.950 . S
C1617 C1616 1.399 . S
C1617 C1618 1.336 . S
C1618 H1589 0.953 . S
C1618 C1617 1.336 . S
C1618 C1619 1.283 1_565 S
C1619 C1618 1.283 1_545 S
C1619 C1620 1.524 . S
C1619 H1622 0.999 . S
C1620 H1590 0.950 . S
C1620 C1619 1.524 . S
C1620 C1621 1.415 . S
C1621 H1591 0.950 . S
C1621 C1616 1.356 1_545 S
C1621 C1620 1.415 . S
H1622 C1619 0.999 . S
H1623 C1604 0.913 . S
H1624 C1642 0.951 . S
H1625 C1644 0.951 . S
H1626 C1646 0.950 . S
H1627 C1647 0.950 . S
H1628 C1649 0.950 . S
H1629 C1652 0.950 . S
H1630 C1653 0.950 . S
H1631 C1655 0.950 . S
H1632 C1656 0.950 . S
H1633 C1657 0.951 . S
H1634 C1659 0.951 . S
H1635 C1661 0.950 . S
H1636 C1662 0.950 . S
H1637 C1664 0.950 . S
H1638 C1667 0.950 . S
H1639 C1668 0.950 . S
H1640 C1670 0.950 . S
H1641 C1671 0.950 . S
C1642 H1624 0.951 . S
C1642 C1643 1.366 . S
C1642 C1644 1.388 . S
C1643 C1642 1.366 . S
C1643 C1647 1.385 . S
C1644 H1625 0.951 . S
C1644 C1642 1.388 . S
C1644 C1645 1.366 . S
C1645 C1644 1.366 . S
C1645 C1646 1.414 . S
C1645 C1648 1.499 . S
C1646 H1626 0.950 . S
C1646 C1645 1.414 . S
C1646 C1647 1.374 . S
C1647 H1627 0.950 . S
C1647 C1643 1.385 . S
C1647 C1646 1.374 . S
C1648 C1645 1.499 . S
C1648 C1649 1.373 . S
C1648 C1650 1.389 . S
C1649 H1628 0.950 . S
C1649 C1648 1.373 . S
C1649 C1665 1.377 . S
C1650 C1648 1.389 . S
C1650 C1651 1.524 . S
C1650 C1664 1.377 . S
C1651 C1650 1.524 . S
C1651 C1652 1.397 . S
C1651 C1656 1.363 . S
C1652 H1629 0.950 . S
C1652 C1651 1.397 . S
C1652 C1653 1.334 . S
C1653 H1630 0.950 . S
C1653 C1652 1.334 . S
C1653 C1654 1.287 . S
C1654 C1653 1.287 . S
C1654 C1655 1.524 . S
C1654 H1673 0.913 . S
C1655 H1631 0.950 . S
C1655 C1654 1.524 . S
C1655 C1656 1.415 . S
C1656 H1632 0.950 . S
C1656 C1651 1.363 . S
C1656 C1655 1.415 . S
C1657 H1633 0.951 . S
C1657 C1658 1.366 . S
C1657 C1659 1.388 . S
C1658 C1657 1.366 . S
C1658 C1662 1.385 . S
C1659 H1634 0.951 . S
C1659 C1657 1.388 . S
C1659 C1660 1.366 . S
C1660 C1659 1.366 . S
C1660 C1661 1.414 . S
C1660 C1663 1.499 . S
C1661 H1635 0.950 . S
C1661 C1660 1.414 . S
C1661 C1662 1.374 . S
C1662 H1636 0.950 . S
C1662 C1658 1.385 . S
C1662 C1661 1.374 . S
C1663 C1660 1.499 . S
C1663 C1664 1.373 . S
C1663 C1665 1.389 . S
C1664 H1637 0.950 . S
C1664 C1650 1.377 . S
C1664 C1663 1.373 . S
C1665 C1649 1.377 . S
C1665 C1663 1.389 . S
C1665 C1666 1.524 . S
C1666 C1665 1.524 . S
C1666 C1667 1.397 . S
C1666 C1671 1.363 . S
C1667 H1638 0.950 . S
C1667 C1666 1.397 . S
C1667 C1668 1.334 . S
C1668 H1639 0.950 . S
C1668 C1667 1.334 . S
C1668 C1669 1.287 . S
C1669 C1668 1.287 . S
C1669 C1670 1.524 . S
C1669 H1672 0.999 . S
C1670 H1640 0.950 . S
C1670 C1669 1.524 . S
C1670 C1671 1.415 . S
C1671 H1641 0.950 . S
C1671 C1666 1.363 . S
C1671 C1670 1.415 . S
H1672 C1669 0.999 . S
H1673 C1654 0.913 . S
H1674 C1692 0.951 . S
H1675 C1694 0.951 . S
H1676 C1696 0.950 . S
H1677 C1697 0.950 . S
H1678 C1699 0.950 . S
H1679 C1702 0.950 . S
H1680 C1703 0.950 . S
H1681 C1705 0.950 . S
H1682 C1706 0.950 . S
H1683 C1707 0.951 . S
H1684 C1709 0.951 . S
H1685 C1711 0.950 . S
H1686 C1712 0.950 . S
H1687 C1714 0.950 . S
H1688 C1717 0.950 . S
H1689 C1718 0.950 . S
H1690 C1720 0.950 . S
H1691 C1721 0.950 . S
C1692 H1674 0.951 . S
C1692 C1693 1.366 . S
C1692 C1694 1.388 . S
C1693 C1692 1.366 . S
C1693 C1697 1.385 . S
C1694 H1675 0.951 . S
C1694 C1692 1.388 . S
C1694 C1695 1.366 . S
C1695 C1694 1.366 . S
C1695 C1696 1.414 . S
C1695 C1698 1.499 . S
C1696 H1676 0.950 . S
C1696 C1695 1.414 . S
C1696 C1697 1.374 . S
C1697 H1677 0.950 . S
C1697 C1693 1.385 . S
C1697 C1696 1.374 . S
C1698 C1695 1.499 . S
C1698 C1699 1.373 . S
C1698 C1700 1.389 . S
C1699 H1678 0.950 . S
C1699 C1698 1.373 . S
C1699 C1715 1.377 . S
C1700 C1698 1.389 . S
C1700 C1701 1.524 . S
C1700 C1714 1.377 . S
C1701 C1700 1.524 . S
C1701 C1702 1.397 . S
C1701 C1706 1.363 . S
C1702 H1679 0.950 . S
C1702 C1701 1.397 . S
C1702 C1703 1.334 . S
C1703 H1680 0.950 . S
C1703 C1702 1.334 . S
C1703 C1704 1.287 . S
C1704 C1703 1.287 . S
C1704 C1705 1.524 . S
C1704 H1723 0.913 . S
C1705 H1681 0.950 . S
C1705 C1704 1.524 . S
C1705 C1706 1.415 . S
C1706 H1682 0.950 . S
C1706 C1701 1.363 . S
C1706 C1705 1.415 . S
C1707 H1683 0.951 . S
C1707 C1708 1.366 . S
C1707 C1709 1.388 . S
C1708 C1707 1.366 . S
C1708 C1712 1.385 . S
C1709 H1684 0.951 . S
C1709 C1707 1.388 . S
C1709 C1710 1.366 . S
C1710 C1709 1.366 . S
C1710 C1711 1.414 . S
C1710 C1713 1.499 . S
C1711 H1685 0.950 . S
C1711 C1710 1.414 . S
C1711 C1712 1.374 . S
C1712 H1686 0.950 . S
C1712 C1708 1.385 . S
C1712 C1711 1.374 . S
C1713 C1710 1.499 . S
C1713 C1714 1.373 . S
C1713 C1715 1.389 . S
C1714 H1687 0.950 . S
C1714 C1700 1.377 . S
C1714 C1713 1.373 . S
C1715 C1699 1.377 . S
C1715 C1713 1.389 . S
C1715 C1716 1.524 . S
C1716 C1715 1.524 . S
C1716 C1717 1.397 . S
C1716 C1721 1.363 . S
C1717 H1688 0.950 . S
C1717 C1716 1.397 . S
C1717 C1718 1.334 . S
C1718 H1689 0.950 . S
C1718 C1717 1.334 . S
C1718 C1719 1.287 . S
C1719 C1718 1.287 . S
C1719 C1720 1.524 . S
C1719 H1722 0.999 . S
C1720 H1690 0.950 . S
C1720 C1719 1.524 . S
C1720 C1721 1.415 . S
C1721 H1691 0.950 . S
C1721 C1716 1.363 . S
C1721 C1720 1.415 . S
H1722 C1719 0.999 . S
H1723 C1704 0.913 . S
H1724 C1742 0.951 . S
H1725 C1744 0.951 . S
H1726 C1746 0.950 . S
H1727 C1747 0.950 . S
H1728 C1749 0.950 . S
H1729 C1752 0.950 . S
H1730 C1753 0.950 . S
H1731 C1755 0.950 . S
H1732 C1756 0.950 . S
H1733 C1757 0.951 . S
H1734 C1759 0.951 . S
H1735 C1761 0.950 . S
H1736 C1762 0.950 . S
H1737 C1764 0.950 . S
H1738 C1767 0.950 . S
H1739 C1768 0.950 . S
H1740 C1770 0.950 . S
H1741 C1771 0.950 . S
C1742 H1724 0.951 . S
C1742 C1743 1.366 . S
C1742 C1744 1.388 . S
C1743 C1742 1.366 . S
C1743 C1747 1.385 . S
C1744 H1725 0.951 . S
C1744 C1742 1.388 . S
C1744 C1745 1.366 . S
C1745 C1744 1.366 . S
C1745 C1746 1.414 . S
C1745 C1748 1.499 . S
C1746 H1726 0.950 . S
C1746 C1745 1.414 . S
C1746 C1747 1.374 . S
C1747 H1727 0.950 . S
C1747 C1743 1.385 . S
C1747 C1746 1.374 . S
C1748 C1745 1.499 . S
C1748 C1749 1.373 . S
C1748 C1750 1.389 1_545 S
C1749 H1728 0.950 . S
C1749 C1748 1.373 . S
C1749 C1765 1.377 1_545 S
C1750 C1748 1.389 1_565 S
C1750 C1751 1.524 . S
C1750 C1764 1.377 . S
C1751 C1750 1.524 . S
C1751 C1752 1.397 1_565 S
C1751 C1756 1.363 . S
C1752 H1729 0.950 . S
C1752 C1751 1.397 1_545 S
C1752 C1753 1.334 . S
C1753 H1730 0.950 . S
C1753 C1752 1.334 . S
C1753 C1754 1.287 1_545 S
C1754 C1753 1.287 1_565 S
C1754 C1755 1.524 . S
C1754 H1773 0.913 . S
C1755 H1731 0.950 . S
C1755 C1754 1.524 . S
C1755 C1756 1.415 . S
C1756 H1732 0.950 . S
C1756 C1751 1.363 . S
C1756 C1755 1.415 . S
C1757 H1733 0.951 . S
C1757 C1758 1.366 . S
C1757 C1759 1.388 . S
C1758 C1757 1.366 . S
C1758 C1762 1.385 . S
C1759 H1734 0.951 . S
C1759 C1757 1.388 . S
C1759 C1760 1.366 . S
C1760 C1759 1.366 . S
C1760 C1761 1.414 . S
C1760 C1763 1.499 . S
C1761 H1735 0.950 . S
C1761 C1760 1.414 . S
C1761 C1762 1.374 . S
C1762 H1736 0.950 . S
C1762 C1758 1.385 . S
C1762 C1761 1.374 . S
C1763 C1760 1.499 . S
C1763 C1764 1.373 . S
C1763 C1765 1.389 . S
C1764 H1737 0.950 . S
C1764 C1750 1.377 . S
C1764 C1763 1.373 . S
C1765 C1749 1.377 1_565 S
C1765 C1763 1.389 . S
C1765 C1766 1.524 1_565 S
C1766 C1765 1.524 1_545 S
C1766 C1767 1.397 1_545 S
C1766 C1771 1.363 . S
C1767 H1738 0.950 . S
C1767 C1766 1.397 1_565 S
C1767 C1768 1.334 . S
C1768 H1739 0.950 . S
C1768 C1767 1.334 . S
C1768 C1769 1.287 1_565 S
C1769 C1768 1.287 1_545 S
C1769 C1770 1.524 . S
C1769 H1772 0.999 . S
C1770 H1740 0.950 . S
C1770 C1769 1.524 . S
C1770 C1771 1.415 . S
C1771 H1741 0.950 . S
C1771 C1766 1.363 . S
C1771 C1770 1.415 . S
H1772 C1769 0.999 . S
H1773 C1754 0.913 . S
H1774 C1792 0.951 . S
H1775 C1794 0.951 . S
H1776 C1796 0.950 . S
H1777 C1797 0.950 . S
H1778 C1799 0.950 . S
H1779 C1802 0.950 . S
H1780 C1803 0.950 . S
H1781 C1805 0.950 . S
H1782 C1806 0.950 . S
H1783 C1807 0.951 . S
H1784 C1809 0.951 . S
H1785 C1811 0.950 . S
H1786 C1812 0.950 . S
H1787 C1814 0.950 . S
H1788 C1817 0.950 . S
H1789 C1818 0.950 . S
H1790 C1820 0.950 . S
H1791 C1821 0.950 . S
C1792 H1774 0.951 . S
C1792 C1793 1.366 . S
C1792 C1794 1.388 . S
C1793 C1792 1.366 . S
C1793 C1797 1.385 . S
C1794 H1775 0.951 . S
C1794 C1792 1.388 . S
C1794 C1795 1.366 . S
C1795 C1794 1.366 . S
C1795 C1796 1.414 . S
C1795 C1798 1.499 . S
C1796 H1776 0.950 . S
C1796 C1795 1.414 . S
C1796 C1797 1.374 . S
C1797 H1777 0.950 . S
C1797 C1793 1.385 . S
C1797 C1796 1.374 . S
C1798 C1795 1.499 . S
C1798 C1799 1.373 . S
C1798 C1800 1.389 . S
C1799 H1778 0.950 . S
C1799 C1798 1.373 . S
C1799 C1815 1.377 . S
C1800 C1798 1.389 . S
C1800 C1801 1.524 . S
C1800 C1814 1.377 . S
C1801 C1800 1.524 . S
C1801 C1802 1.397 . S
C1801 C1806 1.363 . S
C1802 H1779 0.950 . S
C1802 C1801 1.397 . S
C1802 C1803 1.334 . S
C1803 H1780 0.950 . S
C1803 C1802 1.334 . S
C1803 C1804 1.287 . S
C1804 C1803 1.287 . S
C1804 C1805 1.524 . S
C1804 H1823 0.913 . S
C1805 H1781 0.950 . S
C1805 C1804 1.524 . S
C1805 C1806 1.415 . S
C1806 H1782 0.950 . S
C1806 C1801 1.363 . S
C1806 C1805 1.415 . S
C1807 H1783 0.951 . S
C1807 C1808 1.366 . S
C1807 C1809 1.388 . S
C1808 C1807 1.366 . S
C1808 C1812 1.385 . S
C1809 H1784 0.951 . S
C1809 C1807 1.388 . S
C1809 C1810 1.366 . S
C1810 C1809 1.366 . S
C1810 C1811 1.414 . S
C1810 C1813 1.499 . S
C1811 H1785 0.950 . S
C1811 C1810 1.414 . S
C1811 C1812 1.374 . S
C1812 H1786 0.950 . S
C1812 C1808 1.385 . S
C1812 C1811 1.374 . S
C1813 C1810 1.499 . S
C1813 C1814 1.373 . S
C1813 C1815 1.389 . S
C1814 H1787 0.950 . S
C1814 C1800 1.377 . S
C1814 C1813 1.373 . S
C1815 C1799 1.377 . S
C1815 C1813 1.389 . S
C1815 C1816 1.524 . S
C1816 C1815 1.524 . S
C1816 C1817 1.397 . S
C1816 C1821 1.363 . S
C1817 H1788 0.950 . S
C1817 C1816 1.397 . S
C1817 C1818 1.334 . S
C1818 H1789 0.950 . S
C1818 C1817 1.334 . S
C1818 C1819 1.287 . S
C1819 C1818 1.287 . S
C1819 C1820 1.524 . S
C1819 H1822 0.999 . S
C1820 H1790 0.950 . S
C1820 C1819 1.524 . S
C1820 C1821 1.415 . S
C1821 H1791 0.950 . S
C1821 C1816 1.363 . S
C1821 C1820 1.415 . S
H1822 C1819 0.999 . S
H1823 C1804 0.913 . S
C243 C7 1.272 . S
C258 C189 1.285 . S
C293 C21 1.376 . S
C308 C133 1.375 . S
C343 C203 0.294 . S
C358 C35 0.499 . S
C393 C49 0.519 . S
C408 C217 0.537 . S
C443 C63 1.375 . S
C458 C91 1.375 . S
C493 C147 1.271 . S
C508 C77 1.285 . S
C543 C161 0.499 . S
C558 C105 0.293 . S
C593 C119 0.537 . S
C608 C175 0.518 . S
C643 C36 1.558 . S
C658 C8 1.576 . S
C693 C22 1.601 . S
C708 C45 1.596 . S
C743 C177 1.471 . S
C758 C3 1.477 . S
C793 C17 1.561 . S
C808 C157 1.555 . S
C843 C59 1.562 . S
C858 C31 1.555 . S
C893 C143 1.477 . S
C908 C51 1.471 . S
C943 C23 2.096 . S
C958 C9 2.091 . S
C993 C50 1.533 . S
C1008 C37 1.532 . S
C1043 C149 2.091 . S
C1058 C65 2.096 . S
C1093 C101 1.911 . S
C1108 C79 1.892 . S
C1143 C93 1.508 . S
C1158 C115 1.532 . S
C1193 C218 1.934 . S
C1208 C73 1.940 . S
C1243 C87 1.354 . S
C1258 C204 1.346 . S
C1293 C129 1.354 . S
C1308 C106 1.346 . S
C1343 C120 1.933 . S
C1358 C185 1.940 . S
C1393 C92 1.551 . S
C1408 C78 1.547 . S
C1443 C121 1.676 . S
C1458 C107 1.676 . S
C1493 C134 1.551 . S
C1508 C190 1.547 . S
C1543 C148 1.576 . S
C1558 C162 1.558 . S
C1593 C171 1.596 . S
C1608 C64 1.601 . S
C1643 C176 1.534 . S
C1658 C163 1.532 . S
C1693 C199 1.911 . S
C1708 C191 1.892 . S
C1743 C135 1.507 . S
C1758 C213 1.532 . S
C1793 C219 1.676 . S
C1808 C205 1.675 . S
