# Generated by pormake.
# Topology uop, (4)-cn, num edge types: 1
# Building blocks:
#     Node 0, Type 0, BuildingBlock: QUQFOY_clean_sbu_1, # of connection points: 4
#     Node 1, Type 0, BuildingBlock: QUQFOY_clean_sbu_1, # of connection points: 4
#     Node 2, Type 0, BuildingBlock: QUQFOY_clean_sbu_1, # of connection points: 4
#     Node 3, Type 0, BuildingBlock: QUQFOY_clean_sbu_1, # of connection points: 4
#     Node 4, Type 0, BuildingBlock: QUQFOY_clean_sbu_1, # of connection points: 4
#     Node 5, Type 0, BuildingBlock: QUQFOY_clean_sbu_1, # of connection points: 4
#     Node 6, Type 0, BuildingBlock: QUQFOY_clean_sbu_1, # of connection points: 4
#     Node 7, Type 0, BuildingBlock: QUQFOY_clean_sbu_1, # of connection points: 4
#     Node 8, Type 0, BuildingBlock: QUQFOY_clean_sbu_1, # of connection points: 4
#     Node 9, Type 0, BuildingBlock: QUQFOY_clean_sbu_1, # of connection points: 4
#     Node 10, Type 0, BuildingBlock: QUQFOY_clean_sbu_1, # of connection points: 4
#     Node 11, Type 0, BuildingBlock: QUQFOY_clean_sbu_1, # of connection points: 4
#     Edge 12, Type (0, 0), BuildingBlock: OJICUG_clean_linker_0, # of connection points: 2
#     Edge 13, Type (0, 0), BuildingBlock: OJICUG_clean_linker_0, # of connection points: 2
#     Edge 14, Type (0, 0), BuildingBlock: OJICUG_clean_linker_0, # of connection points: 2
#     Edge 15, Type (0, 0), BuildingBlock: OJICUG_clean_linker_0, # of connection points: 2
#     Edge 16, Type (0, 0), BuildingBlock: OJICUG_clean_linker_0, # of connection points: 2
#     Edge 17, Type (0, 0), BuildingBlock: OJICUG_clean_linker_0, # of connection points: 2
#     Edge 18, Type (0, 0), BuildingBlock: OJICUG_clean_linker_0, # of connection points: 2
#     Edge 19, Type (0, 0), BuildingBlock: OJICUG_clean_linker_0, # of connection points: 2
#     Edge 20, Type (0, 0), BuildingBlock: OJICUG_clean_linker_0, # of connection points: 2
#     Edge 21, Type (0, 0), BuildingBlock: OJICUG_clean_linker_0, # of connection points: 2
#     Edge 22, Type (0, 0), BuildingBlock: OJICUG_clean_linker_0, # of connection points: 2
#     Edge 23, Type (0, 0), BuildingBlock: OJICUG_clean_linker_0, # of connection points: 2
#     Edge 24, Type (0, 0), BuildingBlock: OJICUG_clean_linker_0, # of connection points: 2
#     Edge 25, Type (0, 0), BuildingBlock: OJICUG_clean_linker_0, # of connection points: 2
#     Edge 26, Type (0, 0), BuildingBlock: OJICUG_clean_linker_0, # of connection points: 2
#     Edge 27, Type (0, 0), BuildingBlock: OJICUG_clean_linker_0, # of connection points: 2
#     Edge 28, Type (0, 0), BuildingBlock: OJICUG_clean_linker_0, # of connection points: 2
#     Edge 29, Type (0, 0), BuildingBlock: OJICUG_clean_linker_0, # of connection points: 2
#     Edge 30, Type (0, 0), BuildingBlock: OJICUG_clean_linker_0, # of connection points: 2
#     Edge 31, Type (0, 0), BuildingBlock: OJICUG_clean_linker_0, # of connection points: 2
#     Edge 32, Type (0, 0), BuildingBlock: OJICUG_clean_linker_0, # of connection points: 2
#     Edge 33, Type (0, 0), BuildingBlock: OJICUG_clean_linker_0, # of connection points: 2
#     Edge 34, Type (0, 0), BuildingBlock: OJICUG_clean_linker_0, # of connection points: 2
#     Edge 35, Type (0, 0), BuildingBlock: OJICUG_clean_linker_0, # of connection points: 2
# Relax obj value: 0.099
# Max RMSD: 0.118
# Mean RMSD: 0.118
data_MOF--net-uop--node1-QUQFOY_clean_sbu_1--edge1-OJICUG_clean_linker_0
_symmetry_space_group_name_H-M    P1
_symmetry_Int_Tables_number       1
_symmetry_cell_setting            triclinic
loop_
_symmetry_equiv_pos_as_xyz
'x, y, z'
_cell_length_a     24.253166
_cell_length_b     24.243764
_cell_length_c     36.430752
_cell_angle_alpha  89.968352
_cell_angle_beta   90.008943
_cell_angle_gamma 120.00686
loop_
_atom_site_label
_atom_site_type_symbol
_atom_site_fract_x
_atom_site_fract_y
_atom_site_fract_z
_atom_type_partial_charge
O0 O 0.21932 0.45965 0.25494 0.0
Cd1 Cd 0.23073 0.38108 0.26026 0.0
Cd2 Cd 0.28027 0.43912 0.32073 0.0
O3 O 0.22561 0.48209 0.31391 0.0
O4 O 0.1614 0.31133 0.23102 0.0
O5 O 0.16579 0.31119 0.2918 0.0
C6 C 0.1347 0.28546 0.2619 0.0
C7 C 0.29757 0.39566 0.3742 0.0
C8 C 0.21345 0.49108 0.2811 0.0
C9 C 0.36713 0.44818 0.26052 0.0
O10 O 0.35801 0.47701 0.28675 0.0
O11 O 0.32111 0.39639 0.24832 0.0
O12 O 0.32097 0.45625 0.3704 0.0
O13 O 0.25929 0.35888 0.34905 0.0
O14 O 0.76055 0.22049 0.58673 0.0
Cd15 Cd 0.85049 0.23171 0.59151 0.0
Cd16 Cd 0.84333 0.28201 0.65201 0.0
O17 O 0.74558 0.22749 0.64579 0.0
O18 O 0.85009 0.1616 0.56266 0.0
O19 O 0.8558 0.16736 0.62339 0.0
C20 C 0.84975 0.13554 0.5937 0.0
C21 C 0.90472 0.29982 0.70527 0.0
C22 C 0.72381 0.21501 0.61314 0.0
C23 C 0.92005 0.3681 0.59114 0.0
O24 O 0.88279 0.35936 0.61769 0.0
O25 O 0.92545 0.32189 0.57889 0.0
O26 O 0.86769 0.3234 0.70149 0.0
O27 O 0.90276 0.26116 0.68023 0.0
O28 O 0.54105 0.76157 0.92046 0.0
Cd29 Cd 0.61963 0.85153 0.9256 0.0
Cd30 Cd 0.56194 0.84319 0.98621 0.0
O31 O 0.51874 0.7455 0.97945 0.0
O32 O 0.68918 0.85167 0.89631 0.0
O33 O 0.68952 0.85649 0.95708 0.0
C34 C 0.71508 0.85087 0.92718 0.0
C35 C 0.60551 0.90389 1.03968 0.0
C36 C 0.50965 0.72431 0.94666 0.0
C37 C 0.55256 0.92081 0.92585 0.0
O38 O 0.52405 0.88312 0.95225 0.0
O39 O 0.60423 0.92653 0.91349 0.0
O40 O 0.54491 0.86683 1.03589 0.0
O41 O 0.64221 0.90232 1.01451 0.0
O42 O 0.7794 0.53894 0.25576 0.0
Cd43 Cd 0.76791 0.61746 0.26088 0.0
Cd44 Cd 0.71824 0.55953 0.32143 0.0
O45 O 0.7727 0.51632 0.31473 0.0
O46 O 0.83712 0.687 0.23143 0.0
O47 O 0.83291 0.68765 0.2922 0.0
C48 C 0.86391 0.71314 0.26223 0.0
C49 C 0.7013 0.60338 0.37483 0.0
C50 C 0.78505 0.50741 0.28197 0.0
C51 C 0.63147 0.55034 0.26106 0.0
O52 O 0.64049 0.52171 0.28747 0.0
O53 O 0.67754 0.602 0.24873 0.0
O54 O 0.67765 0.54274 0.37113 0.0
O55 O 0.73958 0.63996 0.34959 0.0
O56 O 0.24074 0.78009 0.58775 0.0
Cd57 Cd 0.15071 0.76868 0.59227 0.0
Cd58 Cd 0.15748 0.7182 0.65288 0.0
O59 O 0.25528 0.77254 0.64682 0.0
O60 O 0.15124 0.83867 0.56316 0.0
O61 O 0.14497 0.83304 0.62388 0.0
C62 C 0.15125 0.86477 0.5941 0.0
C63 C 0.09592 0.70066 0.70604 0.0
C64 C 0.27728 0.7853 0.61421 0.0
C65 C 0.08122 0.63226 0.5918 0.0
O66 O 0.11805 0.64087 0.61857 0.0
O67 O 0.07605 0.67854 0.5794 0.0
O68 O 0.13276 0.67685 0.70238 0.0
O69 O 0.09813 0.73935 0.68092 0.0
O70 O 0.46009 0.24074 0.92132 0.0
Cd71 Cd 0.38158 0.15067 0.92613 0.0
Cd72 Cd 0.43891 0.15845 0.98682 0.0
O73 O 0.48219 0.25622 0.98035 0.0
O74 O 0.31241 0.15075 0.89656 0.0
O75 O 0.31116 0.14522 0.95732 0.0
C76 C 0.28603 0.15116 0.92732 0.0
C77 C 0.3948 0.09708 1.04006 0.0
C78 C 0.49137 0.27774 0.94763 0.0
C79 C 0.44886 0.08158 0.92625 0.0
O80 O 0.4771 0.11893 0.95281 0.0
O81 O 0.39728 0.07596 0.9138 0.0
O82 O 0.45543 0.13418 1.03647 0.0
O83 O 0.35835 0.09899 1.01482 0.0
O84 O 0.54045 0.77983 0.6073 0.0
Cd85 Cd 0.61915 0.76859 0.60257 0.0
Cd86 Cd 0.56175 0.71835 0.54203 0.0
O87 O 0.51851 0.77286 0.54824 0.0
O88 O 0.68882 0.8387 0.63144 0.0
O89 O 0.68884 0.83295 0.57071 0.0
C90 C 0.71455 0.86477 0.60041 0.0
C91 C 0.60528 0.70052 0.48876 0.0
C92 C 0.5092 0.78532 0.58089 0.0
C93 C 0.5523 0.63222 0.60294 0.0
O94 O 0.52386 0.64099 0.57635 0.0
O95 O 0.60389 0.67841 0.61522 0.0
O96 O 0.54469 0.67694 0.49256 0.0
O97 O 0.642 0.73917 0.5138 0.0
O98 O 0.76021 0.54062 0.93911 0.0
Cd99 Cd 0.85018 0.61919 0.93383 0.0
Cd100 Cd 0.84176 0.5612 0.87336 0.0
O101 O 0.74414 0.51826 0.88013 0.0
O102 O 0.85056 0.68897 0.96303 0.0
O103 O 0.85516 0.68906 0.90225 0.0
C104 C 0.84977 0.71482 0.93213 0.0
C105 C 0.90257 0.60466 0.81991 0.0
C106 C 0.72295 0.50923 0.91292 0.0
C107 C 0.9195 0.55211 0.93361 0.0
O108 O 0.88157 0.52329 0.90737 0.0
O109 O 0.92526 0.60389 0.94581 0.0
O110 O 0.86537 0.54406 0.82371 0.0
O111 O 0.90104 0.64143 0.84505 0.0
O112 O 0.21915 0.75962 0.27246 0.0
Cd113 Cd 0.2307 0.84969 0.26756 0.0
Cd114 Cd 0.28026 0.84176 0.20694 0.0
O115 O 0.22573 0.74401 0.21345 0.0
O116 O 0.16147 0.84966 0.29712 0.0
O117 O 0.16567 0.85504 0.23636 0.0
C118 C 0.13464 0.84917 0.26636 0.0
C119 C 0.29761 0.90308 0.15367 0.0
C120 C 0.21341 0.72256 0.24619 0.0
C121 C 0.36705 0.91876 0.26747 0.0
O122 O 0.35794 0.88129 0.24097 0.0
O123 O 0.3211 0.92445 0.27985 0.0
O124 O 0.32109 0.86594 0.15731 0.0
O125 O 0.25924 0.90124 0.17887 0.0
O126 O 0.46058 0.22022 0.60632 0.0
Cd127 Cd 0.38196 0.23162 0.60186 0.0
Cd128 Cd 0.43906 0.28207 0.54121 0.0
O129 O 0.48257 0.22775 0.54724 0.0
O130 O 0.3126 0.16164 0.631 0.0
O131 O 0.31181 0.16725 0.57028 0.0
C132 C 0.28645 0.13552 0.60007 0.0
C133 C 0.39498 0.29963 0.48807 0.0
C134 C 0.49187 0.21501 0.57984 0.0
C135 C 0.44889 0.36803 0.60233 0.0
O136 O 0.47701 0.35939 0.57552 0.0
O137 O 0.39747 0.32177 0.61477 0.0
O138 O 0.45563 0.32344 0.49172 0.0
O139 O 0.35853 0.26094 0.5132 0.0
O140 O 0.24104 0.4614 0.93799 0.0
Cd141 Cd 0.15102 0.38288 0.93292 0.0
Cd142 Cd 0.1591 0.44087 0.87242 0.0
O143 O 0.25677 0.48408 0.87902 0.0
O144 O 0.15079 0.31335 0.96234 0.0
O145 O 0.14573 0.31267 0.90158 0.0
C146 C 0.15133 0.28719 0.93153 0.0
C147 C 0.09811 0.397 0.81909 0.0
C148 C 0.27814 0.49295 0.91177 0.0
C149 C 0.08171 0.45001 0.93291 0.0
O150 O 0.11926 0.47867 0.90648 0.0
O151 O 0.07616 0.39834 0.9452 0.0
O152 O 0.13509 0.45765 0.82277 0.0
O153 O 0.09993 0.36043 0.8443 0.0
O154 O 0.77927 0.23877 0.2732 0.0
Cd155 Cd 0.76787 0.14879 0.26809 0.0
Cd156 Cd 0.71858 0.15715 0.20744 0.0
O157 O 0.77305 0.25484 0.21421 0.0
O158 O 0.83721 0.14863 0.29746 0.0
O159 O 0.83285 0.14379 0.23669 0.0
C160 C 0.86396 0.14942 0.26662 0.0
C161 C 0.70159 0.09644 0.15399 0.0
C162 C 0.78515 0.27603 0.24699 0.0
C163 C 0.63152 0.07955 0.26777 0.0
O164 O 0.64073 0.11722 0.24134 0.0
O165 O 0.67745 0.07384 0.28018 0.0
O166 O 0.67803 0.13349 0.15773 0.0
O167 O 0.73982 0.09804 0.17921 0.0
C168 C 0.19823 0.63832 0.29161 0.0
C169 C 0.20116 0.65752 0.2548 0.0
H170 H 0.1995 0.57063 0.32891 0.0
C171 C 0.19939 0.61683 0.22684 0.0
H172 H 0.19901 0.66823 0.31391 0.0
C173 C 0.19916 0.5605 0.23552 0.0
C174 C 0.2012 0.54381 0.27236 0.0
H175 H 0.20112 0.62983 0.19824 0.0
H176 H 0.2007 0.53176 0.21323 0.0
C177 C 0.19849 0.58225 0.30029 0.0
C178 C 0.61809 0.20024 0.63303 0.0
C179 C 0.65874 0.20284 0.60482 0.0
H180 H 0.53291 0.20082 0.64726 0.0
C181 C 0.63944 0.20075 0.56811 0.0
H182 H 0.63118 0.20129 0.66156 0.0
C183 C 0.58324 0.201 0.55982 0.0
C184 C 0.5448 0.20282 0.58806 0.0
H185 H 0.66934 0.20223 0.54561 0.0
H186 H 0.57151 0.20267 0.53131 0.0
C187 C 0.56164 0.19996 0.62474 0.0
C188 C 0.44033 0.64055 0.90114 0.0
C189 C 0.45687 0.65935 0.93797 0.0
H190 H 0.37113 0.57318 0.86386 0.0
C191 C 0.41824 0.61831 0.96591 0.0
H192 H 0.46922 0.67074 0.87885 0.0
C193 C 0.36215 0.56201 0.95723 0.0
C194 C 0.34314 0.54569 0.92042 0.0
H195 H 0.42974 0.63101 0.99452 0.0
H196 H 0.3321 0.53298 0.97954 0.0
C197 C 0.38399 0.5845 0.89247 0.0
C198 C 0.79985 0.43831 0.23645 0.0
C199 C 0.7973 0.45467 0.27328 0.0
H200 H 0.79831 0.36928 0.19914 0.0
C201 C 0.79948 0.4159 0.30121 0.0
H202 H 0.79872 0.46731 0.21416 0.0
C203 C 0.79975 0.35984 0.29252 0.0
C204 C 0.79734 0.34101 0.25569 0.0
H205 H 0.79805 0.42725 0.32983 0.0
H206 H 0.79855 0.32968 0.31481 0.0
C207 C 0.79963 0.38201 0.22775 0.0
C208 C 0.41819 0.8 0.56099 0.0
C209 C 0.4563 0.79749 0.5892 0.0
H210 H 0.33237 0.79933 0.54678 0.0
C211 C 0.43916 0.79968 0.62591 0.0
H212 H 0.43016 0.79887 0.53246 0.0
C213 C 0.38272 0.79942 0.6342 0.0
C214 C 0.34238 0.79749 0.60598 0.0
H215 H 0.46764 0.79828 0.64841 0.0
H216 H 0.36937 0.79782 0.66272 0.0
C217 C 0.36201 0.80027 0.56928 0.0
C218 C 0.56048 0.36207 0.90228 0.0
C219 C 0.54418 0.34279 0.93908 0.0
H220 H 0.6295 0.42982 0.86505 0.0
C221 C 0.58307 0.38341 0.96707 0.0
H222 H 0.53139 0.33222 0.87995 0.0
C223 C 0.63919 0.43974 0.95844 0.0
C224 C 0.65796 0.4565 0.92162 0.0
H225 H 0.57176 0.37034 0.99566 0.0
H226 H 0.66945 0.46842 0.98075 0.0
C227 C 0.61684 0.41814 0.89365 0.0
C228 C 0.52475 0.45874 0.24669 0.0
C229 C 0.56564 0.52513 0.24837 0.0
H230 H 0.42818 0.38168 0.24786 0.0
C231 C 0.53997 0.56544 0.2458 0.0
H232 H 0.54376 0.42681 0.24867 0.0
C233 C 0.47395 0.53957 0.24608 0.0
C234 C 0.43304 0.47321 0.24803 0.0
H235 H 0.57052 0.61665 0.24736 0.0
H236 H 0.45491 0.57153 0.24762 0.0
C237 C 0.45874 0.43288 0.24606 0.0
C238 C 0.975 0.54068 0.57603 0.0
C239 C 0.04097 0.56659 0.57874 0.0
H240 H 0.884 0.45537 0.57779 0.0
C241 C 0.06669 0.5259 0.57707 0.0
H242 H 0.95416 0.57108 0.5776 0.0
C243 C 0.02673 0.45983 0.57641 0.0
C244 C 0.96068 0.43389 0.57832 0.0
H245 H 0.11765 0.54511 0.57917 0.0
H246 H 0.04752 0.42942 0.57829 0.0
C247 C 0.93502 0.4746 0.57627 0.0
C248 C 0.43454 0.9753 0.91091 0.0
C249 C 0.47447 0.04134 0.91347 0.0
H250 H 0.42912 0.88442 0.91281 0.0
C251 C 0.54089 0.06725 0.9118 0.0
H252 H 0.3833 0.95433 0.91248 0.0
C253 C 0.56716 0.02744 0.91123 0.0
C254 C 0.52719 0.96134 0.91323 0.0
H255 H 0.57254 0.11826 0.91379 0.0
H256 H 0.61837 0.04838 0.91305 0.0
C257 C 0.4608 0.93548 0.91124 0.0
C258 C 0.46067 0.52583 0.61783 0.0
C259 C 0.52705 0.56644 0.61579 0.0
H260 H 0.38321 0.42944 0.61651 0.0
C261 C 0.56705 0.54037 0.61774 0.0
H262 H 0.42897 0.54517 0.61629 0.0
C263 C 0.54082 0.47428 0.6171 0.0
C264 C 0.47441 0.43371 0.61541 0.0
H265 H 0.61825 0.5707 0.61586 0.0
H266 H 0.5725 0.45498 0.61501 0.0
C267 C 0.43444 0.45974 0.61809 0.0
C268 C 0.93498 0.46073 0.94804 0.0
C269 C 0.9604 0.52709 0.94611 0.0
H270 H 0.95449 0.38366 0.94671 0.0
C271 C 0.02643 0.56744 0.94805 0.0
H272 H 0.88398 0.42877 0.94653 0.0
C273 C 0.06659 0.54158 0.94738 0.0
C274 C 0.04111 0.4752 0.94568 0.0
H275 H 0.04703 0.61863 0.94626 0.0
H276 H 0.11753 0.57353 0.94537 0.0
C277 C 0.97515 0.43488 0.94829 0.0
C278 C 0.459 0.02512 0.28264 0.0
C279 C 0.4329 0.95906 0.28022 0.0
H280 H 0.54444 0.11599 0.2806 0.0
C281 C 0.47343 0.93317 0.28198 0.0
H282 H 0.42873 0.04608 0.281 0.0
C283 C 0.5395 0.97298 0.28252 0.0
C284 C 0.56561 0.03907 0.28039 0.0
H285 H 0.45407 0.88214 0.28011 0.0
H286 H 0.56977 0.95204 0.28078 0.0
C287 C 0.52508 0.06494 0.28227 0.0
C288 C 0.28289 0.30773 0.41752 0.0
C289 C 0.32014 0.37029 0.4042 0.0
H290 H 0.27679 0.23632 0.45516 0.0
C291 C 0.382 0.40819 0.41816 0.0
H292 H 0.2352 0.2773 0.40709 0.0
C293 C 0.40646 0.38408 0.44441 0.0
C294 C 0.36915 0.322 0.45823 0.0
H295 H 0.41227 0.45627 0.40817 0.0
H296 H 0.45439 0.41476 0.45447 0.0
C297 C 0.30677 0.2842 0.44484 0.0
C298 C 0.97727 0.38452 0.74889 0.0
C299 C 0.95284 0.32245 0.73514 0.0
H300 H 0.04339 0.45698 0.78504 0.0
C301 C 0.97774 0.28496 0.74862 0.0
H302 H 0.95977 0.41498 0.73876 0.0
C303 C 0.02514 0.30877 0.77592 0.0
C304 C 0.05013 0.37133 0.78915 0.0
H305 H 0.96011 0.2371 0.73835 0.0
H306 H 0.04267 0.27858 0.7864 0.0
C307 C 0.02583 0.40891 0.77512 0.0
C308 C 0.59328 0.97597 1.08363 0.0
C309 C 0.63095 0.95172 1.06971 0.0
H310 H 0.5869 0.04178 0.12002 0.0
C311 C 0.69334 0.97658 1.08315 0.0
H312 H 0.54534 0.95851 1.07354 0.0
C313 C 0.7169 0.02378 0.11058 0.0
C314 C 0.67931 0.04861 0.12396 0.0
H315 H 0.7236 0.95909 1.07276 0.0
H316 H 0.76462 0.04129 0.12103 0.0
C317 C 0.61742 0.02434 0.10998 0.0
C318 C 0.69308 0.71541 0.44536 0.0
C319 C 0.63073 0.67788 0.45888 0.0
H320 H 0.7643 0.72181 0.4075 0.0
C321 C 0.5931 0.6158 0.44515 0.0
H322 H 0.7233 0.76327 0.45561 0.0
C323 C 0.61723 0.59143 0.41888 0.0
C324 C 0.67906 0.62904 0.40481 0.0
H325 H 0.54519 0.58533 0.45531 0.0
H326 H 0.58673 0.54335 0.40897 0.0
C327 C 0.71662 0.6916 0.41802 0.0
C328 C 0.02317 0.7161 0.74928 0.0
C329 C 0.04776 0.6783 0.73589 0.0
H330 H 0.9585 0.72299 0.78701 0.0
C331 C 0.02303 0.61623 0.74973 0.0
H332 H 0.04104 0.76397 0.73894 0.0
C333 C 0.97448 0.59213 0.77598 0.0
C334 C 0.95049 0.63002 0.78992 0.0
H335 H 0.04029 0.58555 0.73968 0.0
H336 H 0.95669 0.54405 0.78598 0.0
C337 C 0.97578 0.69257 0.77659 0.0
C338 C 0.28273 0.97634 0.11046 0.0
C339 C 0.32017 0.95129 0.12382 0.0
H340 H 0.27641 0.04153 1.07282 0.0
C341 C 0.38217 0.9757 0.10998 0.0
H342 H 0.23493 0.95873 0.1208 0.0
C343 C 0.40656 0.0244 1.0838 0.0
C344 C 0.36905 0.04887 1.06991 0.0
H345 H 0.41258 0.9581 0.12 0.0
H346 H 0.45459 0.04196 1.07382 0.0
C347 C 0.30654 0.02388 1.0832 0.0
C348 C 0.96781 0.18238 0.29805 0.0
C349 C 0.9321 0.16734 0.26544 0.0
H350 H 0.06042 0.23078 0.32256 0.0
C351 C 0.96434 0.18041 0.23168 0.0
H352 H 0.94452 0.1725 0.32455 0.0
C353 C 0.03095 0.21392 0.23054 0.0
C354 C 0.06665 0.23499 0.26314 0.0
H355 H 0.93833 0.16904 0.20602 0.0
H356 H 0.05423 0.2273 0.20403 0.0
C357 C 0.03443 0.21585 0.29691 0.0
C358 C 0.81924 0.03593 0.62941 0.0
C359 C 0.83195 0.06745 0.5954 0.0
H360 H 0.77285 0.9466 0.65772 0.0
C361 C 0.81678 0.03102 0.56307 0.0
H362 H 0.83071 0.06249 0.65487 0.0
C363 C 0.78356 0.96441 0.5647 0.0
C364 C 0.76478 0.93289 0.59871 0.0
H365 H 0.82639 0.05374 0.53639 0.0
H366 H 0.76854 0.93785 0.53925 0.0
C367 C 0.78596 0.96932 0.63105 0.0
C368 C 0.81749 0.78636 0.96341 0.0
C369 C 0.83218 0.76528 0.93084 0.0
H370 H 0.76969 0.83123 0.98785 0.0
C371 C 0.81918 0.78443 0.89704 0.0
H372 H 0.82734 0.77298 0.98994 0.0
C373 C 0.78604 0.81791 0.89585 0.0
C374 C 0.76528 0.83294 0.92843 0.0
H375 H 0.8303 0.7695 0.87142 0.0
H376 H 0.77268 0.82778 0.86932 0.0
C377 C 0.78439 0.81988 0.96222 0.0
C378 C 0.96745 0.78464 0.23064 0.0
C379 C 0.93195 0.76363 0.26331 0.0
H380 H 0.05991 0.82947 0.20592 0.0
C381 C 0.96437 0.78285 0.29702 0.0
H382 H 0.94401 0.77122 0.20418 0.0
C383 C 0.03099 0.81632 0.29801 0.0
C384 C 0.06651 0.83128 0.26533 0.0
H385 H 0.93853 0.76797 0.32272 0.0
H386 H 0.05444 0.82623 0.32447 0.0
C387 C 0.03407 0.81817 0.23163 0.0
C388 C 0.18179 0.96457 0.62954 0.0
C389 C 0.16897 0.93285 0.59562 0.0
H390 H 0.22831 0.05408 0.65761 0.0
C391 C 0.184 0.96907 0.56319 0.0
H392 H 0.17042 0.93817 0.65507 0.0
C393 C 0.21722 0.03569 0.56464 0.0
C394 C 0.23615 0.06742 0.59856 0.0
H395 H 0.17429 0.94618 0.53657 0.0
H396 H 0.23215 0.06209 0.53911 0.0
C397 C 0.21509 0.03119 0.631 0.0
C398 C 0.18333 0.2156 0.96308 0.0
C399 C 0.16887 0.23668 0.93041 0.0
H400 H 0.23095 0.17071 0.98776 0.0
C401 C 0.18209 0.21753 0.8967 0.0
H402 H 0.1733 0.22898 0.98954 0.0
C403 C 0.21524 0.18406 0.89568 0.0
C404 C 0.23578 0.16903 0.92836 0.0
H405 H 0.17115 0.23247 0.871 0.0
H406 H 0.22879 0.1742 0.86922 0.0
C407 C 0.21643 0.18207 0.96206 0.0
loop_
_geom_bond_atom_site_label_1
_geom_bond_atom_site_label_2
_geom_bond_distance
_geom_bond_site_symmetry_2
_ccdc_geom_bond_type
O0 Cd1 2.223 . S
O0 C8 1.315 . S
Cd1 O0 2.223 . S
Cd1 O4 2.297 . S
Cd1 O5 2.439 . S
Cd1 O11 2.240 . S
Cd2 O3 2.240 . S
Cd2 O10 2.223 . S
Cd2 O12 2.297 . S
Cd2 O13 2.439 . S
O3 Cd2 2.240 . S
O3 C8 1.279 . S
O4 Cd1 2.297 . S
O4 C6 1.247 . S
O5 Cd1 2.439 . S
O5 C6 1.208 . S
C6 O4 1.247 . S
C6 O5 1.208 . S
C7 O12 1.247 . S
C7 O13 1.208 . S
C8 O0 1.315 . S
C8 O3 1.279 . S
C9 O10 1.315 . S
C9 O11 1.279 . S
O10 Cd2 2.223 . S
O10 C9 1.315 . S
O11 Cd1 2.240 . S
O11 C9 1.279 . S
O12 Cd2 2.297 . S
O12 C7 1.247 . S
O13 Cd2 2.439 . S
O13 C7 1.208 . S
O14 Cd15 2.223 . S
O14 C22 1.315 . S
Cd15 O14 2.223 . S
Cd15 O18 2.297 . S
Cd15 O19 2.439 . S
Cd15 O25 2.240 . S
Cd16 O17 2.240 . S
Cd16 O24 2.223 . S
Cd16 O26 2.297 . S
Cd16 O27 2.439 . S
O17 Cd16 2.240 . S
O17 C22 1.279 . S
O18 Cd15 2.297 . S
O18 C20 1.247 . S
O19 Cd15 2.439 . S
O19 C20 1.208 . S
C20 O18 1.247 . S
C20 O19 1.208 . S
C21 O26 1.247 . S
C21 O27 1.208 . S
C22 O14 1.315 . S
C22 O17 1.279 . S
C23 O24 1.315 . S
C23 O25 1.279 . S
O24 Cd16 2.223 . S
O24 C23 1.315 . S
O25 Cd15 2.240 . S
O25 C23 1.279 . S
O26 Cd16 2.297 . S
O26 C21 1.247 . S
O27 Cd16 2.439 . S
O27 C21 1.208 . S
O28 Cd29 2.223 . S
O28 C36 1.315 . S
Cd29 O28 2.223 . S
Cd29 O32 2.297 . S
Cd29 O33 2.439 . S
Cd29 O39 2.240 . S
Cd30 O31 2.240 . S
Cd30 O38 2.223 . S
Cd30 O40 2.297 . S
Cd30 O41 2.439 . S
O31 Cd30 2.240 . S
O31 C36 1.279 . S
O32 Cd29 2.297 . S
O32 C34 1.247 . S
O33 Cd29 2.439 . S
O33 C34 1.208 . S
C34 O32 1.247 . S
C34 O33 1.208 . S
C35 O40 1.247 . S
C35 O41 1.208 . S
C36 O28 1.315 . S
C36 O31 1.279 . S
C37 O38 1.315 . S
C37 O39 1.279 . S
O38 Cd30 2.223 . S
O38 C37 1.315 . S
O39 Cd29 2.240 . S
O39 C37 1.279 . S
O40 Cd30 2.297 . S
O40 C35 1.247 . S
O41 Cd30 2.439 . S
O41 C35 1.208 . S
O42 Cd43 2.223 . S
O42 C50 1.315 . S
Cd43 O42 2.223 . S
Cd43 O46 2.297 . S
Cd43 O47 2.439 . S
Cd43 O53 2.240 . S
Cd44 O45 2.240 . S
Cd44 O52 2.223 . S
Cd44 O54 2.297 . S
Cd44 O55 2.439 . S
O45 Cd44 2.240 . S
O45 C50 1.279 . S
O46 Cd43 2.297 . S
O46 C48 1.247 . S
O47 Cd43 2.439 . S
O47 C48 1.208 . S
C48 O46 1.247 . S
C48 O47 1.208 . S
C49 O54 1.247 . S
C49 O55 1.208 . S
C50 O42 1.315 . S
C50 O45 1.279 . S
C51 O52 1.315 . S
C51 O53 1.279 . S
O52 Cd44 2.223 . S
O52 C51 1.315 . S
O53 Cd43 2.240 . S
O53 C51 1.279 . S
O54 Cd44 2.297 . S
O54 C49 1.247 . S
O55 Cd44 2.439 . S
O55 C49 1.208 . S
O56 Cd57 2.223 . S
O56 C64 1.315 . S
Cd57 O56 2.223 . S
Cd57 O60 2.297 . S
Cd57 O61 2.439 . S
Cd57 O67 2.240 . S
Cd58 O59 2.240 . S
Cd58 O66 2.223 . S
Cd58 O68 2.297 . S
Cd58 O69 2.439 . S
O59 Cd58 2.240 . S
O59 C64 1.279 . S
O60 Cd57 2.297 . S
O60 C62 1.247 . S
O61 Cd57 2.439 . S
O61 C62 1.208 . S
C62 O60 1.247 . S
C62 O61 1.208 . S
C63 O68 1.247 . S
C63 O69 1.208 . S
C64 O56 1.315 . S
C64 O59 1.279 . S
C65 O66 1.315 . S
C65 O67 1.279 . S
O66 Cd58 2.223 . S
O66 C65 1.315 . S
O67 Cd57 2.240 . S
O67 C65 1.279 . S
O68 Cd58 2.297 . S
O68 C63 1.247 . S
O69 Cd58 2.439 . S
O69 C63 1.208 . S
O70 Cd71 2.223 . S
O70 C78 1.315 . S
Cd71 O70 2.223 . S
Cd71 O74 2.297 . S
Cd71 O75 2.439 . S
Cd71 O81 2.240 . S
Cd72 O73 2.240 . S
Cd72 O80 2.223 . S
Cd72 O82 2.297 . S
Cd72 O83 2.439 . S
O73 Cd72 2.240 . S
O73 C78 1.279 . S
O74 Cd71 2.297 . S
O74 C76 1.247 . S
O75 Cd71 2.439 . S
O75 C76 1.208 . S
C76 O74 1.247 . S
C76 O75 1.208 . S
C77 O82 1.247 . S
C77 O83 1.208 . S
C78 O70 1.315 . S
C78 O73 1.279 . S
C79 O80 1.315 . S
C79 O81 1.279 . S
O80 Cd72 2.223 . S
O80 C79 1.315 . S
O81 Cd71 2.240 . S
O81 C79 1.279 . S
O82 Cd72 2.297 . S
O82 C77 1.247 . S
O83 Cd72 2.439 . S
O83 C77 1.208 . S
O84 Cd85 2.223 . S
O84 C92 1.315 . S
Cd85 O84 2.223 . S
Cd85 O88 2.297 . S
Cd85 O89 2.439 . S
Cd85 O95 2.240 . S
Cd86 O87 2.240 . S
Cd86 O94 2.223 . S
Cd86 O96 2.297 . S
Cd86 O97 2.439 . S
O87 Cd86 2.240 . S
O87 C92 1.279 . S
O88 Cd85 2.297 . S
O88 C90 1.247 . S
O89 Cd85 2.439 . S
O89 C90 1.208 . S
C90 O88 1.247 . S
C90 O89 1.208 . S
C91 O96 1.247 . S
C91 O97 1.208 . S
C92 O84 1.315 . S
C92 O87 1.279 . S
C93 O94 1.315 . S
C93 O95 1.279 . S
O94 Cd86 2.223 . S
O94 C93 1.315 . S
O95 Cd85 2.240 . S
O95 C93 1.279 . S
O96 Cd86 2.297 . S
O96 C91 1.247 . S
O97 Cd86 2.439 . S
O97 C91 1.208 . S
O98 Cd99 2.223 . S
O98 C106 1.315 . S
Cd99 O98 2.223 . S
Cd99 O102 2.297 . S
Cd99 O103 2.439 . S
Cd99 O109 2.240 . S
Cd100 O101 2.240 . S
Cd100 O108 2.223 . S
Cd100 O110 2.297 . S
Cd100 O111 2.439 . S
O101 Cd100 2.240 . S
O101 C106 1.279 . S
O102 Cd99 2.297 . S
O102 C104 1.247 . S
O103 Cd99 2.439 . S
O103 C104 1.208 . S
C104 O102 1.247 . S
C104 O103 1.208 . S
C105 O110 1.247 . S
C105 O111 1.208 . S
C106 O98 1.315 . S
C106 O101 1.279 . S
C107 O108 1.315 . S
C107 O109 1.279 . S
O108 Cd100 2.223 . S
O108 C107 1.315 . S
O109 Cd99 2.240 . S
O109 C107 1.279 . S
O110 Cd100 2.297 . S
O110 C105 1.247 . S
O111 Cd100 2.439 . S
O111 C105 1.208 . S
O112 Cd113 2.223 . S
O112 C120 1.315 . S
Cd113 O112 2.223 . S
Cd113 O116 2.297 . S
Cd113 O117 2.439 . S
Cd113 O123 2.240 . S
Cd114 O115 2.240 . S
Cd114 O122 2.223 . S
Cd114 O124 2.297 . S
Cd114 O125 2.439 . S
O115 Cd114 2.240 . S
O115 C120 1.279 . S
O116 Cd113 2.297 . S
O116 C118 1.247 . S
O117 Cd113 2.439 . S
O117 C118 1.208 . S
C118 O116 1.247 . S
C118 O117 1.208 . S
C119 O124 1.247 . S
C119 O125 1.208 . S
C120 O112 1.315 . S
C120 O115 1.279 . S
C121 O122 1.315 . S
C121 O123 1.279 . S
O122 Cd114 2.223 . S
O122 C121 1.315 . S
O123 Cd113 2.240 . S
O123 C121 1.279 . S
O124 Cd114 2.297 . S
O124 C119 1.247 . S
O125 Cd114 2.439 . S
O125 C119 1.208 . S
O126 Cd127 2.223 . S
O126 C134 1.315 . S
Cd127 O126 2.223 . S
Cd127 O130 2.297 . S
Cd127 O131 2.439 . S
Cd127 O137 2.240 . S
Cd128 O129 2.240 . S
Cd128 O136 2.223 . S
Cd128 O138 2.297 . S
Cd128 O139 2.439 . S
O129 Cd128 2.240 . S
O129 C134 1.279 . S
O130 Cd127 2.297 . S
O130 C132 1.247 . S
O131 Cd127 2.439 . S
O131 C132 1.208 . S
C132 O130 1.247 . S
C132 O131 1.208 . S
C133 O138 1.247 . S
C133 O139 1.208 . S
C134 O126 1.315 . S
C134 O129 1.279 . S
C135 O136 1.315 . S
C135 O137 1.279 . S
O136 Cd128 2.223 . S
O136 C135 1.315 . S
O137 Cd127 2.240 . S
O137 C135 1.279 . S
O138 Cd128 2.297 . S
O138 C133 1.247 . S
O139 Cd128 2.439 . S
O139 C133 1.208 . S
O140 Cd141 2.223 . S
O140 C148 1.315 . S
Cd141 O140 2.223 . S
Cd141 O144 2.297 . S
Cd141 O145 2.439 . S
Cd141 O151 2.240 . S
Cd142 O143 2.240 . S
Cd142 O150 2.223 . S
Cd142 O152 2.297 . S
Cd142 O153 2.439 . S
O143 Cd142 2.240 . S
O143 C148 1.279 . S
O144 Cd141 2.297 . S
O144 C146 1.247 . S
O145 Cd141 2.439 . S
O145 C146 1.208 . S
C146 O144 1.247 . S
C146 O145 1.208 . S
C147 O152 1.247 . S
C147 O153 1.208 . S
C148 O140 1.315 . S
C148 O143 1.279 . S
C149 O150 1.315 . S
C149 O151 1.279 . S
O150 Cd142 2.223 . S
O150 C149 1.315 . S
O151 Cd141 2.240 . S
O151 C149 1.279 . S
O152 Cd142 2.297 . S
O152 C147 1.247 . S
O153 Cd142 2.439 . S
O153 C147 1.208 . S
O154 Cd155 2.223 . S
O154 C162 1.315 . S
Cd155 O154 2.223 . S
Cd155 O158 2.297 . S
Cd155 O159 2.439 . S
Cd155 O165 2.240 . S
Cd156 O157 2.240 . S
Cd156 O164 2.223 . S
Cd156 O166 2.297 . S
Cd156 O167 2.439 . S
O157 Cd156 2.240 . S
O157 C162 1.279 . S
O158 Cd155 2.297 . S
O158 C160 1.247 . S
O159 Cd155 2.439 . S
O159 C160 1.208 . S
C160 O158 1.247 . S
C160 O159 1.208 . S
C161 O166 1.247 . S
C161 O167 1.208 . S
C162 O154 1.315 . S
C162 O157 1.279 . S
C163 O164 1.315 . S
C163 O165 1.279 . S
O164 Cd156 2.223 . S
O164 C163 1.315 . S
O165 Cd155 2.240 . S
O165 C163 1.279 . S
O166 Cd156 2.297 . S
O166 C161 1.247 . S
O167 Cd156 2.439 . S
O167 C161 1.208 . S
C168 C169 1.387 . S
C168 H172 0.950 . S
C168 C177 1.390 . S
C169 C168 1.387 . S
C169 C171 1.387 . S
H170 C177 0.950 . S
C171 C169 1.387 . S
C171 C173 1.390 . S
C171 H175 0.950 . S
H172 C168 0.950 . S
C173 C171 1.390 . S
C173 C174 1.387 . S
C173 H176 0.950 . S
C174 C173 1.387 . S
C174 C177 1.387 . S
H175 C171 0.950 . S
H176 C173 0.950 . S
C177 C168 1.390 . S
C177 H170 0.950 . S
C177 C174 1.387 . S
C178 C179 1.387 . S
C178 H182 0.950 . S
C178 C187 1.390 . S
C179 C178 1.387 . S
C179 C181 1.387 . S
H180 C187 0.950 . S
C181 C179 1.387 . S
C181 C183 1.390 . S
C181 H185 0.950 . S
H182 C178 0.950 . S
C183 C181 1.390 . S
C183 C184 1.387 . S
C183 H186 0.950 . S
C184 C183 1.387 . S
C184 C187 1.387 . S
H185 C181 0.950 . S
H186 C183 0.950 . S
C187 C178 1.390 . S
C187 H180 0.950 . S
C187 C184 1.387 . S
C188 C189 1.387 . S
C188 H192 0.950 . S
C188 C197 1.390 . S
C189 C188 1.387 . S
C189 C191 1.387 . S
H190 C197 0.950 . S
C191 C189 1.387 . S
C191 C193 1.390 . S
C191 H195 0.950 . S
H192 C188 0.950 . S
C193 C191 1.390 . S
C193 C194 1.387 . S
C193 H196 0.950 . S
C194 C193 1.387 . S
C194 C197 1.387 . S
H195 C191 0.950 . S
H196 C193 0.950 . S
C197 C188 1.390 . S
C197 H190 0.950 . S
C197 C194 1.387 . S
C198 C199 1.387 . S
C198 H202 0.950 . S
C198 C207 1.390 . S
C199 C198 1.387 . S
C199 C201 1.387 . S
H200 C207 0.950 . S
C201 C199 1.387 . S
C201 C203 1.390 . S
C201 H205 0.950 . S
H202 C198 0.950 . S
C203 C201 1.390 . S
C203 C204 1.387 . S
C203 H206 0.950 . S
C204 C203 1.387 . S
C204 C207 1.387 . S
H205 C201 0.950 . S
H206 C203 0.950 . S
C207 C198 1.390 . S
C207 H200 0.950 . S
C207 C204 1.387 . S
C208 C209 1.387 . S
C208 H212 0.950 . S
C208 C217 1.390 . S
C209 C208 1.387 . S
C209 C211 1.387 . S
H210 C217 0.950 . S
C211 C209 1.387 . S
C211 C213 1.390 . S
C211 H215 0.950 . S
H212 C208 0.950 . S
C213 C211 1.390 . S
C213 C214 1.387 . S
C213 H216 0.950 . S
C214 C213 1.387 . S
C214 C217 1.387 . S
H215 C211 0.950 . S
H216 C213 0.950 . S
C217 C208 1.390 . S
C217 H210 0.950 . S
C217 C214 1.387 . S
C218 C219 1.387 . S
C218 H222 0.950 . S
C218 C227 1.390 . S
C219 C218 1.387 . S
C219 C221 1.387 . S
H220 C227 0.950 . S
C221 C219 1.387 . S
C221 C223 1.390 . S
C221 H225 0.950 . S
H222 C218 0.950 . S
C223 C221 1.390 . S
C223 C224 1.387 . S
C223 H226 0.950 . S
C224 C223 1.387 . S
C224 C227 1.387 . S
H225 C221 0.950 . S
H226 C223 0.950 . S
C227 C218 1.390 . S
C227 H220 0.950 . S
C227 C224 1.387 . S
C228 C229 1.387 . S
C228 H232 0.950 . S
C228 C237 1.390 . S
C229 C228 1.387 . S
C229 C231 1.387 . S
H230 C237 0.950 . S
C231 C229 1.387 . S
C231 C233 1.390 . S
C231 H235 0.950 . S
H232 C228 0.950 . S
C233 C231 1.390 . S
C233 C234 1.387 . S
C233 H236 0.950 . S
C234 C233 1.387 . S
C234 C237 1.387 . S
H235 C231 0.950 . S
H236 C233 0.950 . S
C237 C228 1.390 . S
C237 H230 0.950 . S
C237 C234 1.387 . S
C238 C239 1.387 . S
C238 H242 0.950 . S
C238 C247 1.390 1_455 S
C239 C238 1.387 . S
C239 C241 1.387 . S
H240 C247 0.950 . S
C241 C239 1.387 . S
C241 C243 1.390 1_455 S
C241 H245 0.950 . S
H242 C238 0.950 . S
C243 C241 1.390 1_655 S
C243 C244 1.387 . S
C243 H246 0.950 . S
C244 C243 1.387 . S
C244 C247 1.387 . S
H245 C241 0.950 . S
H246 C243 0.950 . S
C247 C238 1.390 1_655 S
C247 H240 0.950 . S
C247 C244 1.387 . S
C248 C249 1.387 . S
C248 H252 0.950 . S
C248 C257 1.390 1_545 S
C249 C248 1.387 . S
C249 C251 1.387 . S
H250 C257 0.950 . S
C251 C249 1.387 . S
C251 C253 1.390 1_545 S
C251 H255 0.950 . S
H252 C248 0.950 . S
C253 C251 1.390 1_565 S
C253 C254 1.387 . S
C253 H256 0.950 . S
C254 C253 1.387 . S
C254 C257 1.387 . S
H255 C251 0.950 . S
H256 C253 0.950 . S
C257 C248 1.390 1_565 S
C257 H250 0.950 . S
C257 C254 1.387 . S
C258 C259 1.387 . S
C258 H262 0.950 . S
C258 C267 1.390 . S
C259 C258 1.387 . S
C259 C261 1.387 . S
H260 C267 0.950 . S
C261 C259 1.387 . S
C261 C263 1.390 . S
C261 H265 0.950 . S
H262 C258 0.950 . S
C263 C261 1.390 . S
C263 C264 1.387 . S
C263 H266 0.950 . S
C264 C263 1.387 . S
C264 C267 1.387 . S
H265 C261 0.950 . S
H266 C263 0.950 . S
C267 C258 1.390 . S
C267 H260 0.950 . S
C267 C264 1.387 . S
C268 C269 1.387 . S
C268 H272 0.950 . S
C268 C277 1.390 1_655 S
C269 C268 1.387 . S
C269 C271 1.387 . S
H270 C277 0.950 . S
C271 C269 1.387 . S
C271 C273 1.390 1_655 S
C271 H275 0.950 . S
H272 C268 0.950 . S
C273 C271 1.390 1_455 S
C273 C274 1.387 . S
C273 H276 0.950 . S
C274 C273 1.387 . S
C274 C277 1.387 . S
H275 C271 0.950 . S
H276 C273 0.950 . S
C277 C268 1.390 1_455 S
C277 H270 0.950 . S
C277 C274 1.387 . S
C278 C279 1.387 . S
C278 H282 0.950 . S
C278 C287 1.390 1_565 S
C279 C278 1.387 . S
C279 C281 1.387 . S
H280 C287 0.950 . S
C281 C279 1.387 . S
C281 C283 1.390 1_565 S
C281 H285 0.950 . S
H282 C278 0.950 . S
C283 C281 1.390 1_545 S
C283 C284 1.387 . S
C283 H286 0.950 . S
C284 C283 1.387 . S
C284 C287 1.387 . S
H285 C281 0.950 . S
H286 C283 0.950 . S
C287 C278 1.390 1_545 S
C287 H280 0.950 . S
C287 C284 1.387 . S
C288 C289 1.387 . S
C288 H292 0.950 . S
C288 C297 1.390 . S
C289 C288 1.387 . S
C289 C291 1.387 . S
H290 C297 0.950 . S
C291 C289 1.387 . S
C291 C293 1.390 . S
C291 H295 0.950 . S
H292 C288 0.950 . S
C293 C291 1.390 . S
C293 C294 1.387 . S
C293 H296 0.950 . S
C294 C293 1.387 . S
C294 C297 1.387 . S
H295 C291 0.950 . S
H296 C293 0.950 . S
C297 C288 1.390 . S
C297 H290 0.950 . S
C297 C294 1.387 . S
C298 C299 1.387 . S
C298 H302 0.948 . S
C298 C307 1.388 1_655 S
C299 C298 1.387 . S
C299 C301 1.387 . S
H300 C307 0.950 . S
C301 C299 1.387 . S
C301 C303 1.388 1_655 S
C301 H305 0.950 . S
H302 C298 0.948 . S
C303 C301 1.388 1_455 S
C303 C304 1.386 . S
C303 H306 0.948 . S
C304 C303 1.386 . S
C304 C307 1.387 . S
H305 C301 0.950 . S
H306 C303 0.948 . S
C307 C298 1.388 1_455 S
C307 H300 0.950 . S
C307 C304 1.387 . S
C308 C309 1.387 . S
C308 H312 0.950 . S
C308 C317 1.390 1_566 S
C309 C308 1.387 . S
C309 C311 1.387 . S
H310 C317 0.950 . S
C311 C309 1.387 . S
C311 C313 1.390 1_566 S
C311 H315 0.950 . S
H312 C308 0.950 . S
C313 C311 1.390 1_544 S
C313 C314 1.387 . S
C313 H316 0.950 . S
C314 C313 1.387 . S
C314 C317 1.387 . S
H315 C311 0.950 . S
H316 C313 0.950 . S
C317 C308 1.390 1_544 S
C317 H310 0.950 . S
C317 C314 1.387 . S
C318 C319 1.387 . S
C318 H322 0.950 . S
C318 C327 1.390 . S
C319 C318 1.387 . S
C319 C321 1.387 . S
H320 C327 0.950 . S
C321 C319 1.387 . S
C321 C323 1.390 . S
C321 H325 0.950 . S
H322 C318 0.950 . S
C323 C321 1.390 . S
C323 C324 1.387 . S
C323 H326 0.950 . S
C324 C323 1.387 . S
C324 C327 1.387 . S
H325 C321 0.950 . S
H326 C323 0.950 . S
C327 C318 1.390 . S
C327 H320 0.950 . S
C327 C324 1.387 . S
C328 C329 1.387 . S
C328 H332 0.950 . S
C328 C337 1.390 . S
C329 C328 1.387 . S
C329 C331 1.387 1_455 S
H330 C337 0.950 . S
C331 C329 1.387 1_655 S
C331 C333 1.390 . S
C331 H335 0.950 . S
H332 C328 0.950 . S
C333 C331 1.390 . S
C333 C334 1.387 . S
C333 H336 0.950 . S
C334 C333 1.387 . S
C334 C337 1.387 1_655 S
H335 C331 0.950 . S
H336 C333 0.950 . S
C337 C328 1.390 . S
C337 H330 0.950 . S
C337 C334 1.387 1_455 S
C338 C339 1.387 . S
C338 H342 0.950 . S
C338 C347 1.390 1_564 S
C339 C338 1.387 . S
C339 C341 1.387 . S
H340 C347 0.950 . S
C341 C339 1.387 . S
C341 C343 1.390 1_564 S
C341 H345 0.950 . S
H342 C338 0.950 . S
C343 C341 1.390 1_546 S
C343 C344 1.387 . S
C343 H346 0.950 . S
C344 C343 1.387 . S
C344 C347 1.387 . S
H345 C341 0.950 . S
H346 C343 0.950 . S
C347 C338 1.390 1_546 S
C347 H340 0.950 . S
C347 C344 1.387 . S
C348 C349 1.387 . S
C348 H352 0.950 . S
C348 C357 1.390 1_655 S
C349 C348 1.387 . S
C349 C351 1.387 . S
H350 C357 0.950 . S
C351 C349 1.387 . S
C351 C353 1.390 1_655 S
C351 H355 0.950 . S
H352 C348 0.950 . S
C353 C351 1.390 1_455 S
C353 C354 1.387 . S
C353 H356 0.950 . S
C354 C353 1.387 . S
C354 C357 1.387 . S
H355 C351 0.950 . S
H356 C353 0.950 . S
C357 C348 1.390 1_455 S
C357 H350 0.950 . S
C357 C354 1.387 . S
C358 C359 1.387 . S
C358 H362 0.950 . S
C358 C367 1.390 1_545 S
C359 C358 1.387 . S
C359 C361 1.387 . S
H360 C367 0.950 . S
C361 C359 1.387 . S
C361 C363 1.390 1_545 S
C361 H365 0.950 . S
H362 C358 0.950 . S
C363 C361 1.390 1_565 S
C363 C364 1.387 . S
C363 H366 0.950 . S
C364 C363 1.387 . S
C364 C367 1.387 . S
H365 C361 0.950 . S
H366 C363 0.950 . S
C367 C358 1.390 1_565 S
C367 H360 0.950 . S
C367 C364 1.387 . S
C368 C369 1.387 . S
C368 H372 0.950 . S
C368 C377 1.390 . S
C369 C368 1.387 . S
C369 C371 1.387 . S
H370 C377 0.950 . S
C371 C369 1.387 . S
C371 C373 1.390 . S
C371 H375 0.950 . S
H372 C368 0.950 . S
C373 C371 1.390 . S
C373 C374 1.387 . S
C373 H376 0.950 . S
C374 C373 1.387 . S
C374 C377 1.387 . S
H375 C371 0.950 . S
H376 C373 0.950 . S
C377 C368 1.390 . S
C377 H370 0.950 . S
C377 C374 1.387 . S
C378 C379 1.387 . S
C378 H382 0.950 . S
C378 C387 1.390 1_655 S
C379 C378 1.387 . S
C379 C381 1.387 . S
H380 C387 0.950 . S
C381 C379 1.387 . S
C381 C383 1.390 1_655 S
C381 H385 0.950 . S
H382 C378 0.950 . S
C383 C381 1.390 1_455 S
C383 C384 1.387 . S
C383 H386 0.950 . S
C384 C383 1.387 . S
C384 C387 1.387 . S
H385 C381 0.950 . S
H386 C383 0.950 . S
C387 C378 1.390 1_455 S
C387 H380 0.950 . S
C387 C384 1.387 . S
C388 C389 1.387 . S
C388 H392 0.950 . S
C388 C397 1.390 1_565 S
C389 C388 1.387 . S
C389 C391 1.387 . S
H390 C397 0.950 . S
C391 C389 1.387 . S
C391 C393 1.390 1_565 S
C391 H395 0.950 . S
H392 C388 0.950 . S
C393 C391 1.390 1_545 S
C393 C394 1.387 . S
C393 H396 0.950 . S
C394 C393 1.387 . S
C394 C397 1.387 . S
H395 C391 0.950 . S
H396 C393 0.950 . S
C397 C388 1.390 1_545 S
C397 H390 0.950 . S
C397 C394 1.387 . S
C398 C399 1.387 . S
C398 H402 0.950 . S
C398 C407 1.390 . S
C399 C398 1.387 . S
C399 C401 1.387 . S
H400 C407 0.950 . S
C401 C399 1.387 . S
C401 C403 1.390 . S
C401 H405 0.950 . S
H402 C398 0.950 . S
C403 C401 1.390 . S
C403 C404 1.387 . S
C403 H406 0.950 . S
C404 C403 1.387 . S
C404 C407 1.387 . S
H405 C401 0.950 . S
H406 C403 0.950 . S
C407 C398 1.390 . S
C407 H400 0.950 . S
C407 C404 1.387 . S
C169 C120 2.032 . S
C174 C8 2.031 . S
C179 C22 2.031 . S
C184 C134 2.031 . S
C189 C36 2.032 . S
C194 C148 2.031 . S
C199 C50 2.032 . S
C204 C162 2.031 . S
C209 C92 2.031 . S
C214 C64 2.031 . S
C219 C78 2.032 . S
C224 C106 2.031 . S
C229 C51 0.932 . S
C234 C9 0.932 . S
C239 C65 0.933 . S
C244 C23 0.933 . S
C249 C79 0.935 . S
C254 C37 0.935 . S
C259 C93 0.933 . S
C264 C135 0.933 . S
C269 C107 0.935 . S
C274 C149 0.935 . S
C279 C121 0.935 . S
C284 C163 0.935 . S
C289 C7 1.506 . S
C294 C133 1.506 . S
C299 C21 1.508 . S
C304 C147 1.507 . S
C309 C35 1.508 . S
C314 C161 1.508 . S
C319 C91 1.506 . S
C324 C49 1.506 . S
C329 C63 1.506 . S
C334 C105 1.507 . S
C339 C119 1.506 . S
C344 C77 1.506 . S
C349 C160 1.388 . S
C354 C6 1.388 . S
C359 C20 1.388 . S
C364 C90 1.388 . S
C369 C104 1.388 . S
C374 C34 1.388 . S
C379 C48 1.388 . S
C384 C118 1.388 . S
C389 C62 1.388 . S
C394 C132 1.388 . S
C399 C146 1.388 . S
C404 C76 1.388 . S
