# Generated by pormake.
# Topology uku, (4)-cn, num edge types: 1
# Building blocks:
#     Node 0, Type 0, BuildingBlock: ICAMEG_clean_sbu_1, # of connection points: 4
#     Node 1, Type 0, BuildingBlock: ICAMEG_clean_sbu_1, # of connection points: 4
#     Node 2, Type 0, BuildingBlock: ICAMEG_clean_sbu_1, # of connection points: 4
#     Node 3, Type 0, BuildingBlock: ICAMEG_clean_sbu_1, # of connection points: 4
#     Node 4, Type 0, BuildingBlock: ICAMEG_clean_sbu_1, # of connection points: 4
#     Node 5, Type 0, BuildingBlock: ICAMEG_clean_sbu_1, # of connection points: 4
#     Node 6, Type 0, BuildingBlock: ICAMEG_clean_sbu_1, # of connection points: 4
#     Node 7, Type 0, BuildingBlock: ICAMEG_clean_sbu_1, # of connection points: 4
#     Node 8, Type 0, BuildingBlock: ICAMEG_clean_sbu_1, # of connection points: 4
#     Node 9, Type 0, BuildingBlock: ICAMEG_clean_sbu_1, # of connection points: 4
#     Node 10, Type 0, BuildingBlock: ICAMEG_clean_sbu_1, # of connection points: 4
#     Node 11, Type 0, BuildingBlock: ICAMEG_clean_sbu_1, # of connection points: 4
#     Edge 12, Type (0, 0), BuildingBlock: KIFKEQ_clean_linker_1, # of connection points: 2
#     Edge 13, Type (0, 0), BuildingBlock: KIFKEQ_clean_linker_1, # of connection points: 2
#     Edge 14, Type (0, 0), BuildingBlock: KIFKEQ_clean_linker_1, # of connection points: 2
#     Edge 15, Type (0, 0), BuildingBlock: KIFKEQ_clean_linker_1, # of connection points: 2
#     Edge 16, Type (0, 0), BuildingBlock: KIFKEQ_clean_linker_1, # of connection points: 2
#     Edge 17, Type (0, 0), BuildingBlock: KIFKEQ_clean_linker_1, # of connection points: 2
#     Edge 18, Type (0, 0), BuildingBlock: KIFKEQ_clean_linker_1, # of connection points: 2
#     Edge 19, Type (0, 0), BuildingBlock: KIFKEQ_clean_linker_1, # of connection points: 2
#     Edge 20, Type (0, 0), BuildingBlock: KIFKEQ_clean_linker_1, # of connection points: 2
#     Edge 21, Type (0, 0), BuildingBlock: KIFKEQ_clean_linker_1, # of connection points: 2
#     Edge 22, Type (0, 0), BuildingBlock: KIFKEQ_clean_linker_1, # of connection points: 2
#     Edge 23, Type (0, 0), BuildingBlock: KIFKEQ_clean_linker_1, # of connection points: 2
#     Edge 24, Type (0, 0), BuildingBlock: KIFKEQ_clean_linker_1, # of connection points: 2
#     Edge 25, Type (0, 0), BuildingBlock: KIFKEQ_clean_linker_1, # of connection points: 2
#     Edge 26, Type (0, 0), BuildingBlock: KIFKEQ_clean_linker_1, # of connection points: 2
#     Edge 27, Type (0, 0), BuildingBlock: KIFKEQ_clean_linker_1, # of connection points: 2
#     Edge 28, Type (0, 0), BuildingBlock: KIFKEQ_clean_linker_1, # of connection points: 2
#     Edge 29, Type (0, 0), BuildingBlock: KIFKEQ_clean_linker_1, # of connection points: 2
#     Edge 30, Type (0, 0), BuildingBlock: KIFKEQ_clean_linker_1, # of connection points: 2
#     Edge 31, Type (0, 0), BuildingBlock: KIFKEQ_clean_linker_1, # of connection points: 2
#     Edge 32, Type (0, 0), BuildingBlock: KIFKEQ_clean_linker_1, # of connection points: 2
#     Edge 33, Type (0, 0), BuildingBlock: KIFKEQ_clean_linker_1, # of connection points: 2
#     Edge 34, Type (0, 0), BuildingBlock: KIFKEQ_clean_linker_1, # of connection points: 2
#     Edge 35, Type (0, 0), BuildingBlock: KIFKEQ_clean_linker_1, # of connection points: 2
# Relax obj value: 0.340
# Max RMSD: 0.222
# Mean RMSD: 0.222
data_MOF--net-uku--node1-ICAMEG_clean_sbu_1--edge1-KIFKEQ_clean_linker_1
_symmetry_space_group_name_H-M    P1
_symmetry_Int_Tables_number       1
_symmetry_cell_setting            triclinic
loop_
_symmetry_equiv_pos_as_xyz
'x, y, z'
_cell_length_a     43.981003
_cell_length_b     43.968329
_cell_length_c     43.982274
_cell_angle_alpha  90.002924
_cell_angle_beta   89.996273
_cell_angle_gamma 89.988136
loop_
_atom_site_label
_atom_site_type_symbol
_atom_site_fract_x
_atom_site_fract_y
_atom_site_fract_z
_atom_type_partial_charge
Co0 Co 0.06876 0.1502 0.66465 0.0
Co1 Co 0.11006 0.19522 0.61633 0.0
O2 O 0.07529 0.16884 0.62494 0.0
C3 C 0.06057 0.09555 0.62443 0.0
O4 O 0.08793 0.09896 0.61297 0.0
C5 C 0.05672 0.22983 0.59505 0.0
O6 O 0.0439 0.22407 0.62137 0.0
O7 O 0.1003 0.22143 0.65211 0.0
O8 O 0.08575 0.18631 0.68602 0.0
H9 H 0.20356 0.2554 0.64251 0.0
H10 H 0.01735 0.15434 0.62119 0.0
O11 O 0.05065 0.11376 0.6446 0.0
H12 H 0.98361 0.2102 0.71237 0.0
H13 H 0.01025 0.08879 0.74162 0.0
H14 H 0.10502 0.14515 0.7213 0.0
H15 H 0.03413 0.18594 0.71091 0.0
H16 H 0.0185 0.1137 0.69207 0.0
O17 O 0.0837 0.22089 0.58974 0.0
H18 H 0.1601 0.22156 0.65303 0.0
H19 H 0.13293 0.22618 0.56047 0.0
H20 H 0.0976 0.12076 0.77122 0.0
H21 H 0.96649 0.17792 0.62185 0.0
H22 H 0.04993 0.09232 0.78165 0.0
H23 H 0.94936 0.2062 0.66764 0.0
O24 O 0.11021 0.13186 0.66338 0.0
H25 H 0.08509 0.13518 0.52238 0.0
H26 H 0.16678 0.16651 0.59244 0.0
H27 H 0.17891 0.1329 0.54924 0.0
H28 H 0.1379 0.11707 0.51379 0.0
H29 H 0.07394 0.16855 0.56604 0.0
H30 H 0.17597 0.26027 0.54899 0.0
H31 H 0.21172 0.27499 0.59016 0.0
O32 O 0.13729 0.16974 0.64231 0.0
C33 C 0.09412 0.2132 0.67924 0.0
C34 C 0.1882 0.24908 0.62436 0.0
C35 C 0.17268 0.25185 0.57188 0.0
N36 N 0.14413 0.22173 0.60735 0.0
C37 C 0.16359 0.22986 0.63016 0.0
C38 C 0.14831 0.2326 0.57853 0.0
C39 C 0.19274 0.26009 0.59499 0.0
C40 C 0.00994 0.16631 0.64134 0.0
N41 N 0.02867 0.16865 0.66602 0.0
C42 C 0.98116 0.17974 0.64152 0.0
C43 C 0.97159 0.19566 0.6672 0.0
C44 C 0.99081 0.19794 0.69229 0.0
C45 C 0.01944 0.18423 0.69128 0.0
C46 C 0.0311 0.10114 0.73736 0.0
C47 C 0.08416 0.13293 0.72569 0.0
C48 C 0.03594 0.11524 0.70931 0.0
N49 N 0.06217 0.13101 0.70383 0.0
C50 C 0.08011 0.11911 0.75399 0.0
C51 C 0.05337 0.10314 0.75981 0.0
C52 C 0.13547 0.1447 0.65688 0.0
C53 C 0.10317 0.14196 0.53763 0.0
C54 C 0.14879 0.1596 0.57723 0.0
C55 C 0.15581 0.14064 0.55274 0.0
C56 C 0.1328 0.13178 0.53285 0.0
N57 N 0.1197 0.16955 0.58174 0.0
C58 C 0.09701 0.16092 0.56235 0.0
Co59 Co 0.92796 0.85212 0.6678 0.0
Co60 Co 0.88682 0.80524 0.62013 0.0
O61 O 0.9202 0.83396 0.62787 0.0
C62 C 0.94077 0.90257 0.62218 0.0
O63 O 0.93227 0.88589 0.59898 0.0
C64 C 0.94156 0.77437 0.59676 0.0
O65 O 0.95486 0.78088 0.62267 0.0
O66 O 0.89934 0.77923 0.6551 0.0
O67 O 0.91668 0.81349 0.68855 0.0
H68 H 0.79831 0.73894 0.6488 0.0
H69 H 0.9762 0.85234 0.61989 0.0
O70 O 0.93973 0.89216 0.6492 0.0
H71 H 0.0221 0.80097 0.70819 0.0
H72 H 0.98484 0.91644 0.74368 0.0
H73 H 0.89546 0.85087 0.72687 0.0
H74 H 0.96953 0.82013 0.71067 0.0
H75 H 0.9759 0.89278 0.69364 0.0
O76 O 0.91386 0.78147 0.59247 0.0
H77 H 0.83988 0.77539 0.65821 0.0
H78 H 0.86403 0.77339 0.56472 0.0
H79 H 0.9037 0.87387 0.77733 0.0
H80 H 0.02888 0.83397 0.61661 0.0
H81 H 0.94866 0.90693 0.78599 0.0
H82 H 0.05224 0.80796 0.66095 0.0
O83 O 0.88503 0.86622 0.67021 0.0
H84 H 0.90364 0.86425 0.52365 0.0
H85 H 0.82779 0.83162 0.59942 0.0
H86 H 0.81172 0.86384 0.55648 0.0
H87 H 0.84977 0.8803 0.51813 0.0
H88 H 0.9188 0.83244 0.56723 0.0
H89 H 0.82286 0.73675 0.55434 0.0
H90 H 0.78959 0.71938 0.59653 0.0
O91 O 0.85891 0.82868 0.64735 0.0
C92 C 0.90819 0.78668 0.68168 0.0
C93 C 0.81259 0.74641 0.6302 0.0
C94 C 0.8264 0.74515 0.57719 0.0
N95 N 0.85421 0.77668 0.61201 0.0
C96 C 0.83611 0.76711 0.63538 0.0
C97 C 0.84972 0.76585 0.58323 0.0
C98 C 0.80773 0.73542 0.60088 0.0
C99 C 0.98624 0.8417 0.63952 0.0
N100 N 0.96983 0.83798 0.66565 0.0
C101 C 0.01609 0.83105 0.63743 0.0
C102 C 0.02915 0.81637 0.66227 0.0
C103 C 0.01225 0.81243 0.68877 0.0
C104 C 0.98245 0.82334 0.69002 0.0
C105 C 0.9652 0.90203 0.7402 0.0
C106 C 0.91518 0.86508 0.73049 0.0
C107 C 0.95996 0.88863 0.71189 0.0
N108 N 0.93527 0.87028 0.70738 0.0
C109 C 0.91968 0.87811 0.7591 0.0
C110 C 0.94489 0.89668 0.76394 0.0
C111 C 0.86019 0.85273 0.66355 0.0
C112 C 0.88685 0.85726 0.54022 0.0
C113 C 0.84456 0.83903 0.58311 0.0
C114 C 0.83528 0.85711 0.5587 0.0
C115 C 0.85663 0.86629 0.53716 0.0
N116 N 0.87426 0.83036 0.58604 0.0
C117 C 0.89528 0.83916 0.56493 0.0
Co118 Co 0.0693 0.84826 0.33158 0.0
Co119 Co 0.11268 0.80643 0.38264 0.0
O120 O 0.07828 0.83325 0.3726 0.0
C121 C 0.05898 0.90258 0.3732 0.0
O122 O 0.0683 0.88782 0.39737 0.0
C123 C 0.05843 0.77399 0.40524 0.0
O124 O 0.04531 0.77981 0.37907 0.0
O125 O 0.10332 0.77855 0.34802 0.0
O126 O 0.07877 0.80768 0.314 0.0
H127 H 0.20646 0.74504 0.36031 0.0
H128 H 0.0237 0.85248 0.38184 0.0
O129 O 0.05899 0.88995 0.34712 0.0
H130 H 0.97187 0.79758 0.29913 0.0
H131 H 0.01105 0.90762 0.25269 0.0
H132 H 0.0992 0.84094 0.27166 0.0
H133 H 0.02457 0.81541 0.29273 0.0
H134 H 0.02137 0.88803 0.3042 0.0
O135 O 0.0858 0.78204 0.40991 0.0
H136 H 0.16338 0.77871 0.34783 0.0
H137 H 0.13439 0.7773 0.43994 0.0
H138 H 0.08952 0.85978 0.21974 0.0
H139 H 0.97095 0.83554 0.38903 0.0
H140 H 0.04517 0.89339 0.21 0.0
H141 H 0.94461 0.80774 0.34754 0.0
O142 O 0.11245 0.86137 0.3261 0.0
H143 H 0.08855 0.86726 0.47642 0.0
H144 H 0.16918 0.83682 0.40475 0.0
H145 H 0.18163 0.8711 0.4473 0.0
H146 H 0.14117 0.88647 0.48359 0.0
H147 H 0.07698 0.83346 0.43324 0.0
H148 H 0.17703 0.74345 0.45338 0.0
H149 H 0.21349 0.72717 0.41342 0.0
O150 O 0.14019 0.83041 0.3559 0.0
C151 C 0.09091 0.7827 0.32213 0.0
C152 C 0.19075 0.75201 0.37793 0.0
C153 C 0.17421 0.75108 0.43015 0.0
N154 N 0.14643 0.78002 0.39313 0.0
C155 C 0.16634 0.77111 0.37101 0.0
C156 C 0.15005 0.77018 0.42238 0.0
C157 C 0.19467 0.74197 0.40773 0.0
C158 C 0.0124 0.84096 0.36343 0.0
N159 N 0.02726 0.83541 0.3367 0.0
C160 C 0.9825 0.83118 0.36773 0.0
C161 C 0.96776 0.8155 0.34449 0.0
C162 C 0.98305 0.80977 0.31735 0.0
C163 C 0.01296 0.81987 0.31388 0.0
C164 C 0.03041 0.89295 0.25664 0.0
C165 C 0.07973 0.85538 0.26756 0.0
C166 C 0.03643 0.88185 0.28578 0.0
N167 N 0.06075 0.86316 0.2909 0.0
C168 C 0.07442 0.86606 0.23813 0.0
C169 C 0.04956 0.88494 0.23269 0.0
C170 C 0.13788 0.85133 0.33599 0.0
C171 C 0.10638 0.86073 0.46076 0.0
C172 C 0.15136 0.8437 0.42018 0.0
C173 C 0.15859 0.86297 0.44436 0.0
C174 C 0.1359 0.87153 0.46475 0.0
N175 N 0.12234 0.83326 0.41636 0.0
C176 C 0.1 0.84148 0.43632 0.0
Co177 Co 0.93628 0.15626 0.32899 0.0
Co178 Co 0.88983 0.19244 0.38123 0.0
O179 O 0.92649 0.1696 0.37021 0.0
C180 C 0.94202 0.0984 0.36478 0.0
O181 O 0.91561 0.10311 0.37789 0.0
C182 C 0.94082 0.22956 0.40411 0.0
O183 O 0.95401 0.22585 0.37759 0.0
O184 O 0.89601 0.222 0.3472 0.0
O185 O 0.92185 0.19555 0.31186 0.0
H186 H 0.79018 0.24481 0.36156 0.0
H187 H 0.98268 0.15453 0.37786 0.0
O188 O 0.95216 0.11693 0.34504 0.0
H189 H 0.02714 0.21832 0.29709 0.0
H190 H 0.00015 0.1044 0.24919 0.0
H191 H 0.90516 0.16047 0.26942 0.0
H192 H 0.97658 0.19499 0.29046 0.0
H193 H 0.98816 0.1224 0.30091 0.0
O194 O 0.91452 0.21857 0.40896 0.0
H195 H 0.83619 0.21586 0.34773 0.0
H196 H 0.86612 0.2178 0.43952 0.0
H197 H 0.91639 0.14311 0.21729 0.0
H198 H 0.03351 0.17699 0.3853 0.0
H199 H 0.96418 0.11484 0.20692 0.0
H200 H 0.056 0.2093 0.3448 0.0
O201 O 0.89474 0.13839 0.32389 0.0
H202 H 0.92251 0.12878 0.47034 0.0
H203 H 0.83655 0.1573 0.4043 0.0
H204 H 0.82858 0.1199 0.44529 0.0
H205 H 0.87176 0.10545 0.47871 0.0
H206 H 0.92951 0.16585 0.42886 0.0
H207 H 0.82056 0.24698 0.45431 0.0
H208 H 0.78215 0.26058 0.4152 0.0
O209 O 0.86452 0.16653 0.35413 0.0
C210 C 0.90792 0.21929 0.32086 0.0
C211 C 0.80673 0.23898 0.37882 0.0
C212 C 0.8238 0.24024 0.43086 0.0
N213 N 0.85377 0.21508 0.39279 0.0
C214 C 0.8328 0.22255 0.37112 0.0
C215 C 0.84961 0.2238 0.42233 0.0
C216 C 0.80225 0.24784 0.40891 0.0
C217 C 0.99239 0.16841 0.36005 0.0
N218 N 0.97655 0.17368 0.33384 0.0
C219 C 0.02116 0.18112 0.36442 0.0
C220 C 0.03374 0.19928 0.34171 0.0
C221 C 0.01754 0.2044 0.31496 0.0
C222 C 0.98882 0.19132 0.3114 0.0
C223 C 0.97926 0.11672 0.25342 0.0
C224 C 0.92608 0.14833 0.26506 0.0
C225 C 0.9723 0.12688 0.28269 0.0
N226 N 0.94604 0.14261 0.28817 0.0
C227 C 0.93228 0.13849 0.23551 0.0
C228 C 0.95908 0.1226 0.22971 0.0
C229 C 0.86858 0.14605 0.33402 0.0
C230 C 0.90351 0.13491 0.45595 0.0
C231 C 0.85548 0.15098 0.41859 0.0
C232 C 0.85081 0.12987 0.44185 0.0
C233 C 0.87504 0.1218 0.46061 0.0
N234 N 0.88345 0.16375 0.41415 0.0
C235 C 0.90731 0.15596 0.43247 0.0
Co236 Co 0.66814 0.06949 0.15247 0.0
Co237 Co 0.62049 0.11468 0.19564 0.0
O238 O 0.62809 0.07971 0.1689 0.0
C239 C 0.62395 0.05659 0.10069 0.0
O240 O 0.60021 0.06577 0.1162 0.0
C241 C 0.59533 0.06246 0.22955 0.0
O242 O 0.62194 0.04917 0.2269 0.0
O243 O 0.65466 0.10308 0.22323 0.0
O244 O 0.68794 0.08091 0.19154 0.0
H245 H 0.64875 0.20656 0.25749 0.0
H246 H 0.61713 0.02457 0.15375 0.0
O247 O 0.65053 0.05737 0.11218 0.0
H248 H 0.70217 0.9744 0.20659 0.0
H249 H 0.74352 0.00729 0.09255 0.0
H250 H 0.72857 0.09916 0.15513 0.0
H251 H 0.70833 0.02581 0.18526 0.0
H252 H 0.69312 0.01925 0.114 0.0
O253 O 0.59149 0.08936 0.21966 0.0
H254 H 0.6585 0.16286 0.22373 0.0
H255 H 0.5647 0.13993 0.22479 0.0
H256 H 0.77943 0.08787 0.13439 0.0
H257 H 0.61008 0.97313 0.17437 0.0
H258 H 0.78715 0.04164 0.10285 0.0
H259 H 0.65275 0.94762 0.20114 0.0
O260 O 0.67308 0.11186 0.13699 0.0
H261 H 0.52515 0.09738 0.13489 0.0
H262 H 0.60255 0.17261 0.1652 0.0
H263 H 0.56094 0.18813 0.13102 0.0
H264 H 0.52179 0.15041 0.11572 0.0
H265 H 0.56739 0.08269 0.16865 0.0
H266 H 0.55396 0.18327 0.25873 0.0
H267 H 0.59614 0.21701 0.27522 0.0
O268 O 0.64899 0.14055 0.17178 0.0
C269 C 0.68082 0.09199 0.21732 0.0
C270 C 0.63016 0.19206 0.25043 0.0
C271 C 0.57697 0.17896 0.25115 0.0
N272 N 0.6122 0.14892 0.22221 0.0
C273 C 0.63554 0.1673 0.23127 0.0
C274 C 0.58321 0.1544 0.232 0.0
C275 C 0.60065 0.19789 0.26038 0.0
C276 C 0.63603 0.01361 0.16481 0.0
N277 N 0.6633 0.02822 0.16779 0.0
C278 C 0.6318 0.98446 0.17669 0.0
C279 C 0.65571 0.97019 0.19178 0.0
C280 C 0.68342 0.98521 0.19486 0.0
C281 C 0.68677 0.01439 0.18276 0.0
C282 C 0.74046 0.02747 0.10631 0.0
C283 C 0.73179 0.07889 0.1416 0.0
C284 C 0.71194 0.03441 0.11845 0.0
N285 N 0.70794 0.05976 0.13602 0.0
C286 C 0.76062 0.07266 0.12984 0.0
C287 C 0.76493 0.04675 0.11211 0.0
C288 C 0.66625 0.13758 0.14868 0.0
C289 C 0.54206 0.11403 0.14141 0.0
C290 C 0.5858 0.15596 0.15842 0.0
C291 C 0.56219 0.16493 0.13917 0.0
C292 C 0.54021 0.14377 0.13063 0.0
N293 N 0.5875 0.12672 0.16888 0.0
C294 C 0.56599 0.10588 0.16063 0.0
Co295 Co 0.33151 0.93029 0.15339 0.0
Co296 Co 0.38337 0.88423 0.1907 0.0
O297 O 0.37293 0.92002 0.16605 0.0
C298 C 0.37038 0.9423 0.0975 0.0
O299 O 0.39444 0.92939 0.10947 0.0
C300 C 0.40936 0.93557 0.22546 0.0
O301 O 0.38246 0.94853 0.22474 0.0
O302 O 0.35086 0.89343 0.22114 0.0
O303 O 0.31541 0.91794 0.19377 0.0
H304 H 0.36223 0.78865 0.24973 0.0
H305 H 0.38194 0.97528 0.14982 0.0
O306 O 0.3454 0.94358 0.11207 0.0
H307 H 0.30308 0.02416 0.21265 0.0
H308 H 0.25073 0.99365 0.10239 0.0
H309 H 0.27171 0.90016 0.16068 0.0
H310 H 0.29471 0.97314 0.19102 0.0
H311 H 0.30293 0.98143 0.11879 0.0
O312 O 0.41317 0.90931 0.21395 0.0
H313 H 0.34886 0.83353 0.21889 0.0
H314 H 0.44176 0.85954 0.21477 0.0
H315 H 0.21912 0.91169 0.14499 0.0
H316 H 0.39114 0.02641 0.17064 0.0
H317 H 0.20836 0.95873 0.11562 0.0
H318 H 0.35159 0.05121 0.20243 0.0
O319 O 0.32523 0.88818 0.13747 0.0
H320 H 0.47404 0.90725 0.12491 0.0
H321 H 0.40065 0.82845 0.15615 0.0
H322 H 0.44029 0.81586 0.11857 0.0
H323 H 0.47742 0.85538 0.10279 0.0
H324 H 0.43372 0.91904 0.16199 0.0
H325 H 0.45613 0.81504 0.24573 0.0
H326 H 0.41622 0.77916 0.26334 0.0
O327 O 0.35402 0.85865 0.1677 0.0
C328 C 0.32454 0.90527 0.21813 0.0
C329 C 0.37983 0.8041 0.24217 0.0
C330 C 0.43252 0.81893 0.23996 0.0
N331 N 0.39448 0.84911 0.21499 0.0
C332 C 0.37239 0.82954 0.22468 0.0
C333 C 0.42423 0.84415 0.22251 0.0
C334 C 0.41012 0.7988 0.24982 0.0
C335 C 0.36444 0.98597 0.16327 0.0
N336 N 0.33771 0.97119 0.169 0.0
C337 C 0.36986 0.01492 0.17516 0.0
C338 C 0.34769 0.02879 0.19304 0.0
C339 C 0.32049 0.01362 0.1988 0.0
C340 C 0.31591 0.98466 0.18659 0.0
C341 C 0.25512 0.97311 0.11522 0.0
C342 C 0.26719 0.92077 0.14806 0.0
C343 C 0.28465 0.96601 0.12449 0.0
N344 N 0.29035 0.94019 0.14087 0.0
C345 C 0.23737 0.92713 0.13917 0.0
C346 C 0.23136 0.95351 0.12266 0.0
C347 C 0.33407 0.86216 0.14699 0.0
C348 C 0.45802 0.88982 0.13163 0.0
C349 C 0.4165 0.84588 0.14918 0.0
C350 C 0.43901 0.83856 0.128 0.0
C351 C 0.45987 0.86073 0.1192 0.0
N352 N 0.41479 0.87449 0.16125 0.0
C353 C 0.43521 0.89631 0.15275 0.0
Co354 Co 0.666 0.93493 0.84695 0.0
Co355 Co 0.61482 0.88753 0.81093 0.0
O356 O 0.62503 0.92445 0.83362 0.0
C357 C 0.63027 0.94062 0.90468 0.0
O358 O 0.61837 0.91355 0.90049 0.0
C359 C 0.5906 0.93784 0.77403 0.0
O360 O 0.61724 0.95097 0.77699 0.0
O361 O 0.64817 0.89475 0.78097 0.0
O362 O 0.68364 0.91981 0.80802 0.0
H363 H 0.63624 0.78849 0.75801 0.0
H364 H 0.61672 0.98095 0.84764 0.0
O365 O 0.64942 0.95133 0.88585 0.0
H366 H 0.69728 0.02488 0.78323 0.0
H367 H 0.74469 0.00081 0.8979 0.0
H368 H 0.72591 0.90427 0.84401 0.0
H369 H 0.70427 0.9748 0.80752 0.0
H370 H 0.69322 0.98782 0.87987 0.0
O371 O 0.58596 0.91163 0.78539 0.0
H372 H 0.64936 0.83482 0.78676 0.0
H373 H 0.55679 0.86229 0.78665 0.0
H374 H 0.77779 0.9165 0.86142 0.0
H375 H 0.60895 0.03133 0.82428 0.0
H376 H 0.78744 0.96508 0.88858 0.0
H377 H 0.64933 0.05355 0.79165 0.0
O378 O 0.67137 0.89383 0.86566 0.0
H379 H 0.5254 0.91673 0.87587 0.0
H380 H 0.5951 0.83368 0.84713 0.0
H381 H 0.55511 0.82418 0.88528 0.0
H382 H 0.51988 0.86588 0.89984 0.0
H383 H 0.56585 0.92531 0.838 0.0
H384 H 0.54267 0.81636 0.75773 0.0
H385 H 0.58253 0.77902 0.7433 0.0
O386 O 0.64327 0.86298 0.83613 0.0
C387 C 0.67468 0.90619 0.78405 0.0
C388 C 0.61865 0.80457 0.76418 0.0
C389 C 0.56615 0.82023 0.76399 0.0
N390 N 0.60388 0.85122 0.7884 0.0
C391 C 0.62595 0.83084 0.78048 0.0
C392 C 0.5743 0.84625 0.78028 0.0
C393 C 0.58852 0.79928 0.75592 0.0
C394 C 0.63449 0.99054 0.83364 0.0
N395 N 0.66084 0.97481 0.82871 0.0
C396 C 0.62993 0.01906 0.82042 0.0
C397 C 0.65257 0.03148 0.80207 0.0
C398 C 0.67945 0.01539 0.79729 0.0
C399 C 0.68321 0.98693 0.81089 0.0
C400 C 0.74078 0.9796 0.88605 0.0
C401 C 0.72996 0.92554 0.85564 0.0
C402 C 0.71166 0.97207 0.87585 0.0
N403 N 0.7066 0.9454 0.8607 0.0
C404 C 0.75937 0.9323 0.86553 0.0
C405 C 0.76476 0.95955 0.8808 0.0
C406 C 0.66269 0.8674 0.85719 0.0
C407 C 0.54055 0.89835 0.86964 0.0
C408 C 0.5799 0.85196 0.85339 0.0
C409 C 0.55726 0.84643 0.87497 0.0
C410 C 0.53749 0.86983 0.88311 0.0
N411 N 0.58269 0.87997 0.84021 0.0
C412 C 0.56343 0.90304 0.84812 0.0
Co413 Co 0.32485 0.06433 0.84235 0.0
Co414 Co 0.37928 0.10863 0.80666 0.0
O415 O 0.36663 0.07263 0.82976 0.0
C416 C 0.36023 0.05791 0.90031 0.0
O417 O 0.37575 0.08268 0.8942 0.0
C418 C 0.4007 0.05625 0.77067 0.0
O419 O 0.37371 0.04409 0.77444 0.0
O420 O 0.34554 0.10336 0.77663 0.0
O421 O 0.30907 0.0785 0.80245 0.0
H422 H 0.36405 0.20836 0.75295 0.0
H423 H 0.37209 0.01637 0.84628 0.0
O424 O 0.33942 0.04882 0.88241 0.0
H425 H 0.29168 0.97338 0.78106 0.0
H426 H 0.24179 0.00375 0.89302 0.0
H427 H 0.26646 0.09736 0.83641 0.0
H428 H 0.28612 0.02462 0.80321 0.0
H429 H 0.29429 0.01381 0.8761 0.0
O430 O 0.40643 0.08258 0.78118 0.0
H431 H 0.3481 0.1632 0.78214 0.0
H432 H 0.43876 0.12989 0.78195 0.0
H433 H 0.2136 0.08807 0.85264 0.0
H434 H 0.37838 0.96483 0.82508 0.0
H435 H 0.20099 0.04098 0.88118 0.0
H436 H 0.33807 0.94308 0.79206 0.0
O437 O 0.32067 0.1063 0.85938 0.0
H438 H 0.46662 0.07367 0.87154 0.0
H439 H 0.40341 0.16139 0.84186 0.0
H440 H 0.4442 0.16836 0.87969 0.0
H441 H 0.47619 0.12429 0.89472 0.0
H442 H 0.42538 0.06767 0.83406 0.0
H443 H 0.45565 0.17457 0.75255 0.0
H444 H 0.41819 0.21425 0.73795 0.0
O445 O 0.35269 0.13524 0.83189 0.0
C446 C 0.31891 0.09204 0.77884 0.0
C447 C 0.3806 0.19125 0.75922 0.0
C448 C 0.432 0.17226 0.75896 0.0
N449 N 0.39248 0.14398 0.78381 0.0
C450 C 0.37171 0.16566 0.77579 0.0
C451 C 0.42228 0.14697 0.77552 0.0
C452 C 0.41097 0.19453 0.75079 0.0
C453 C 0.35434 0.00698 0.83211 0.0
N454 N 0.32884 0.02359 0.8258 0.0
C455 C 0.35807 0.97781 0.82012 0.0
C456 C 0.33546 0.96564 0.80155 0.0
C457 C 0.30946 0.98265 0.79532 0.0
C458 C 0.30652 0.01174 0.80774 0.0
C459 C 0.247 0.02435 0.88059 0.0
C460 C 0.26113 0.07674 0.84868 0.0
C461 C 0.27672 0.03022 0.87105 0.0
N462 N 0.28343 0.05611 0.85519 0.0
C463 C 0.23117 0.07164 0.85788 0.0
C464 C 0.22411 0.04523 0.87392 0.0
C465 C 0.3319 0.13205 0.85185 0.0
C466 C 0.45287 0.09306 0.86515 0.0
C467 C 0.41709 0.14208 0.84843 0.0
C468 C 0.44023 0.14618 0.86978 0.0
C469 C 0.4582 0.12145 0.87817 0.0
N470 N 0.412 0.11417 0.83574 0.0
C471 C 0.42954 0.08982 0.84385 0.0
Co472 Co 0.14419 0.66372 0.07115 0.0
Co473 Co 0.18779 0.61665 0.11529 0.0
O474 O 0.16252 0.62429 0.07964 0.0
C475 C 0.09107 0.62207 0.06358 0.0
O476 O 0.09542 0.6113 0.09109 0.0
C477 C 0.22491 0.59354 0.06409 0.0
O478 O 0.22232 0.62029 0.05106 0.0
O479 O 0.21437 0.65215 0.10518 0.0
O480 O 0.17989 0.68563 0.08819 0.0
H481 H 0.24541 0.64541 0.20962 0.0
H482 H 0.15005 0.61793 0.02196 0.0
O483 O 0.10817 0.64288 0.05308 0.0
H484 H 0.20676 0.7077 0.98591 0.0
H485 H 0.08434 0.73813 0.00792 0.0
H486 H 0.13853 0.72199 0.10472 0.0
H487 H 0.18069 0.70854 0.03553 0.0
H488 H 0.10892 0.68894 0.01895 0.0
O489 O 0.21373 0.58903 0.09037 0.0
H490 H 0.21279 0.65472 0.16497 0.0
H491 H 0.21809 0.5614 0.14053 0.0
H492 H 0.11445 0.77159 0.09454 0.0
H493 H 0.17563 0.61619 0.97209 0.0
H494 H 0.08711 0.77992 0.04583 0.0
H495 H 0.2043 0.66129 0.95379 0.0
O496 O 0.12484 0.6643 0.11223 0.0
H497 H 0.12772 0.52243 0.09127 0.0
H498 H 0.15816 0.59393 0.17202 0.0
H499 H 0.12409 0.5512 0.18448 0.0
H500 H 0.10871 0.51501 0.14393 0.0
H501 H 0.16146 0.5657 0.07978 0.0
H502 H 0.25099 0.55114 0.18478 0.0
H503 H 0.26474 0.5933 0.21976 0.0
O504 O 0.16164 0.6435 0.14103 0.0
C505 C 0.20644 0.67908 0.09772 0.0
C506 C 0.2395 0.62683 0.1946 0.0
C507 C 0.24267 0.57393 0.18062 0.0
N508 N 0.21337 0.6086 0.15029 0.0
C509 C 0.22097 0.63195 0.16932 0.0
C510 C 0.2241 0.5799 0.15556 0.0
C511 C 0.25037 0.5976 0.20025 0.0
C512 C 0.16224 0.63775 0.01403 0.0
N513 N 0.16372 0.66336 0.03157 0.0
C514 C 0.17677 0.63659 0.98582 0.0
C515 C 0.1929 0.66188 0.9756 0.0
C516 C 0.1943 0.68792 0.99361 0.0
C517 C 0.17954 0.68824 0.02172 0.0
C518 C 0.09621 0.73479 0.02922 0.0
C519 C 0.12678 0.72546 0.08343 0.0
C520 C 0.11011 0.70696 0.03563 0.0
N521 N 0.12527 0.70263 0.06242 0.0
C522 C 0.11314 0.75359 0.07781 0.0
C523 C 0.09778 0.75823 0.05049 0.0
C524 C 0.13685 0.65832 0.13804 0.0
C525 C 0.13427 0.53804 0.10914 0.0
C526 C 0.15136 0.57848 0.15423 0.0
C527 C 0.13217 0.55422 0.16143 0.0
C528 C 0.12358 0.5339 0.13868 0.0
N529 N 0.16175 0.5824 0.12521 0.0
C530 C 0.15343 0.56255 0.10279 0.0
Co531 Co 0.15477 0.33546 0.93027 0.0
Co532 Co 0.19829 0.38264 0.885 0.0
O533 O 0.17155 0.37536 0.92003 0.0
C534 C 0.10358 0.38025 0.94359 0.0
O535 O 0.11939 0.4038 0.9344 0.0
C536 C 0.23235 0.40818 0.93701 0.0
O537 O 0.22987 0.38164 0.95048 0.0
O538 O 0.22573 0.34841 0.89681 0.0
O539 O 0.19361 0.31526 0.91857 0.0
H540 H 0.25994 0.35357 0.79325 0.0
H541 H 0.15688 0.38636 0.97531 0.0
O542 O 0.11471 0.3535 0.94266 0.0
H543 H 0.20895 0.30054 0.02497 0.0
H544 H 0.09434 0.26058 0.99255 0.0
H545 H 0.15669 0.27503 0.90048 0.0
H546 H 0.18736 0.29479 0.97363 0.0
H547 H 0.11628 0.31078 0.98061 0.0
O548 O 0.22237 0.41178 0.91011 0.0
H549 H 0.2261 0.34423 0.83697 0.0
H550 H 0.22769 0.43816 0.85946 0.0
H551 H 0.13546 0.22436 0.91175 0.0
H552 H 0.17775 0.39301 0.02668 0.0
H553 H 0.10403 0.21689 0.95807 0.0
H554 H 0.20413 0.34994 0.05194 0.0
O555 O 0.13903 0.33075 0.88799 0.0
H556 H 0.13777 0.4783 0.90169 0.0
H557 H 0.16794 0.40032 0.82696 0.0
H558 H 0.13387 0.44194 0.81118 0.0
H559 H 0.11864 0.48138 0.84864 0.0
H560 H 0.17142 0.43605 0.91664 0.0
H561 H 0.2617 0.4485 0.81609 0.0
H562 H 0.27797 0.40603 0.78257 0.0
O563 O 0.17433 0.35405 0.85931 0.0
C564 C 0.21951 0.3222 0.90764 0.0
C565 C 0.25298 0.37228 0.80766 0.0
C566 C 0.254 0.42554 0.82051 0.0
N567 N 0.22487 0.39062 0.85071 0.0
C568 C 0.23379 0.36713 0.83243 0.0
C569 C 0.23481 0.41953 0.84509 0.0
C570 C 0.26311 0.40171 0.8017 0.0
C571 C 0.16776 0.3673 0.98615 0.0
N572 N 0.17037 0.34004 0.97145 0.0
C573 C 0.1798 0.3713 0.01527 0.0
C574 C 0.19466 0.34716 0.0294 0.0
C575 C 0.19739 0.31946 0.01427 0.0
C576 C 0.18515 0.31634 0.98514 0.0
C577 C 0.10805 0.26353 0.97233 0.0
C578 C 0.14321 0.27192 0.9208 0.0
C579 C 0.12046 0.29193 0.9654 0.0
N580 N 0.13797 0.29579 0.93999 0.0
C581 C 0.13117 0.24319 0.92701 0.0
C582 C 0.11351 0.23903 0.95298 0.0
C583 C 0.15094 0.33718 0.86228 0.0
C584 C 0.14426 0.46126 0.88515 0.0
C585 C 0.16119 0.4172 0.84351 0.0
C586 C 0.14201 0.44081 0.83438 0.0
C587 C 0.1335 0.46296 0.8554 0.0
N588 N 0.17162 0.41566 0.87275 0.0
C589 C 0.16341 0.43733 0.89345 0.0
Co590 Co 0.85308 0.66777 0.9316 0.0
Co591 Co 0.80574 0.62276 0.88985 0.0
O592 O 0.83314 0.62888 0.92427 0.0
C593 C 0.90523 0.62456 0.93815 0.0
O594 O 0.9002 0.61383 0.91074 0.0
C595 C 0.77256 0.59861 0.94283 0.0
O596 O 0.77843 0.62437 0.95672 0.0
O597 O 0.78059 0.65818 0.90283 0.0
O598 O 0.81749 0.69097 0.91541 0.0
H599 H 0.74272 0.65562 0.80041 0.0
H600 H 0.84773 0.62331 0.98203 0.0
O601 O 0.88888 0.64587 0.94886 0.0
H602 H 0.79565 0.71576 0.01836 0.0
H603 H 0.91772 0.7411 0.99127 0.0
H604 H 0.86032 0.72481 0.89635 0.0
H605 H 0.81941 0.71455 0.96759 0.0
H606 H 0.89082 0.69274 0.9822 0.0
O607 O 0.78067 0.59477 0.91534 0.0
H608 H 0.77809 0.66295 0.8433 0.0
H609 H 0.77346 0.5688 0.86441 0.0
H610 H 0.88672 0.77358 0.90458 0.0
H611 H 0.8246 0.62367 0.0331 0.0
H612 H 0.91568 0.78198 0.95234 0.0
H613 H 0.79823 0.67011 0.05153 0.0
O614 O 0.871 0.66662 0.89 0.0
H615 H 0.86497 0.52642 0.90642 0.0
H616 H 0.83262 0.60267 0.83082 0.0
H617 H 0.86514 0.55991 0.81473 0.0
H618 H 0.88147 0.52136 0.85264 0.0
H619 H 0.83266 0.56968 0.9216 0.0
H620 H 0.73785 0.56048 0.82188 0.0
H621 H 0.72235 0.60408 0.78946 0.0
O622 O 0.8307 0.65014 0.8634 0.0
C623 C 0.7899 0.68503 0.90876 0.0
C624 C 0.74937 0.63643 0.81431 0.0
C625 C 0.7466 0.58304 0.82639 0.0
N626 N 0.77801 0.6163 0.85618 0.0
C627 C 0.76945 0.64043 0.83859 0.0
C628 C 0.76672 0.5879 0.85048 0.0
C629 C 0.73793 0.60751 0.8082 0.0
C630 C 0.83659 0.64372 0.99001 0.0
N631 N 0.83504 0.66891 0.97187 0.0
C632 C 0.82342 0.64374 0.0189 0.0
C633 C 0.80857 0.66978 0.0292 0.0
C634 C 0.80709 0.69539 0.01059 0.0
C635 C 0.8205 0.69454 0.98182 0.0
C636 C 0.90512 0.73774 0.9704 0.0
C637 C 0.87273 0.72834 0.91726 0.0
C638 C 0.88988 0.71038 0.96511 0.0
N639 N 0.87379 0.70605 0.93887 0.0
C640 C 0.8877 0.75599 0.92177 0.0
C641 C 0.90396 0.76067 0.94855 0.0
C642 C 0.85689 0.66259 0.86493 0.0
C643 C 0.85792 0.54302 0.88967 0.0
C644 C 0.8397 0.58604 0.84748 0.0
C645 C 0.85806 0.56184 0.83822 0.0
C646 C 0.8672 0.54021 0.8595 0.0
N647 N 0.8306 0.58858 0.8771 0.0
C648 C 0.83954 0.56751 0.89811 0.0
Co649 Co 0.85451 0.33435 0.06891 0.0
Co650 Co 0.80942 0.38283 0.10995 0.0
O651 O 0.83624 0.37424 0.07551 0.0
C652 C 0.90932 0.37448 0.06163 0.0
O653 O 0.90516 0.38631 0.08874 0.0
C654 C 0.77591 0.40542 0.05636 0.0
O655 O 0.78165 0.37931 0.04306 0.0
O656 O 0.78292 0.3475 0.09936 0.0
O657 O 0.81789 0.31329 0.08514 0.0
H658 H 0.74735 0.35634 0.20213 0.0
H659 H 0.8517 0.37835 0.01786 0.0
O660 O 0.89148 0.35409 0.05155 0.0
H661 H 0.79527 0.28817 0.98241 0.0
H662 H 0.91578 0.25707 0.0106 0.0
H663 H 0.85825 0.27727 0.10469 0.0
H664 H 0.81878 0.28884 0.03328 0.0
H665 H 0.89144 0.3069 0.01896 0.0
O666 O 0.78451 0.41009 0.08356 0.0
H667 H 0.78177 0.34589 0.1591 0.0
H668 H 0.77886 0.43886 0.13303 0.0
H669 H 0.88205 0.22707 0.09716 0.0
H670 H 0.82886 0.37849 0.96667 0.0
H671 H 0.91107 0.2167 0.04982 0.0
H672 H 0.8003 0.3332 0.94867 0.0
O673 O 0.87222 0.335 0.11066 0.0
H674 H 0.8711 0.47622 0.08697 0.0
H675 H 0.83748 0.40574 0.16739 0.0
H676 H 0.87148 0.44834 0.18052 0.0
H677 H 0.88847 0.484 0.14015 0.0
H678 H 0.83733 0.43315 0.07482 0.0
H679 H 0.74421 0.45028 0.17563 0.0
H680 H 0.72833 0.40887 0.21061 0.0
O681 O 0.83409 0.35619 0.13729 0.0
C682 C 0.79095 0.32031 0.0931 0.0
C683 C 0.75418 0.3746 0.1871 0.0
C684 C 0.75238 0.42731 0.1722 0.0
N685 N 0.78248 0.39177 0.14371 0.0
C686 C 0.77372 0.36883 0.16275 0.0
C687 C 0.77194 0.42069 0.14807 0.0
C688 C 0.74349 0.40407 0.19183 0.0
C689 C 0.83959 0.35842 0.01008 0.0
N690 N 0.83668 0.33358 0.02853 0.0
C691 C 0.82659 0.35869 0.98111 0.0
C692 C 0.81052 0.3333 0.97106 0.0
C693 C 0.80766 0.30804 0.98999 0.0
C694 C 0.82094 0.30859 0.01882 0.0
C695 C 0.90317 0.2613 0.03131 0.0
C696 C 0.87073 0.27292 0.08398 0.0
C697 C 0.8894 0.28951 0.03621 0.0
N698 N 0.8733 0.29497 0.06224 0.0
C699 C 0.88421 0.24445 0.07987 0.0
C700 C 0.90051 0.23866 0.05332 0.0
C701 C 0.85899 0.34134 0.13576 0.0
C702 C 0.86382 0.46087 0.10478 0.0
C703 C 0.8449 0.42104 0.14968 0.0
C704 C 0.86407 0.44519 0.15726 0.0
C705 C 0.87358 0.4652 0.13461 0.0
N706 N 0.83537 0.41697 0.12039 0.0
C707 C 0.84462 0.43648 0.09805 0.0
H708 H 0.91832 0.25468 0.45599 0.0
H709 H 0.00233 0.22983 0.41171 0.0
H710 H 0.94589 0.2648 0.50295 0.0
H711 H 0.02976 0.23821 0.45889 0.0
H712 H 0.07725 0.25869 0.5443 0.0
H713 H 0.04895 0.26868 0.49775 0.0
H714 H 0.96732 0.23426 0.54054 0.0
H715 H 0.99536 0.22594 0.58738 0.0
C716 C 0.94279 0.25179 0.45624 0.0
C717 C 0.95818 0.24123 0.43032 0.0
C718 C 0.95858 0.25731 0.48322 0.0
C719 C 0.99003 0.2518 0.48506 0.0
C720 C 0.00564 0.24309 0.45845 0.0
C721 C 0.9899 0.23812 0.4313 0.0
C722 C 0.05306 0.25404 0.5439 0.0
C723 C 0.03852 0.24133 0.56934 0.0
C724 C 0.03687 0.25949 0.51713 0.0
C725 C 0.0059 0.25177 0.51502 0.0
C726 C 0.99101 0.24086 0.54123 0.0
C727 C 0.00711 0.23594 0.56818 0.0
H728 H 0.99694 0.77734 0.41292 0.0
H729 H 0.07938 0.74737 0.45704 0.0
H730 H 0.96899 0.76984 0.46002 0.0
H731 H 0.05124 0.73849 0.50389 0.0
H732 H 0.00295 0.77833 0.5887 0.0
H733 H 0.03082 0.77054 0.54161 0.0
H734 H 0.94866 0.73828 0.49824 0.0
H735 H 0.92058 0.74741 0.5451 0.0
C736 C 0.00888 0.76821 0.43243 0.0
C737 C 0.04038 0.76329 0.43142 0.0
C738 C 0.99284 0.76377 0.45951 0.0
C739 C 0.00791 0.75392 0.48601 0.0
C740 C 0.03903 0.74682 0.4842 0.0
C741 C 0.05512 0.75167 0.45727 0.0
C742 C 0.99101 0.76896 0.5693 0.0
C743 C 0.95955 0.76381 0.57047 0.0
C744 C 0.007 0.76435 0.54224 0.0
C745 C 0.99194 0.75409 0.51588 0.0
C746 C 0.96086 0.74688 0.51782 0.0
C747 C 0.94481 0.75188 0.54475 0.0
H748 H 0.46867 0.91866 0.22021 0.0
H749 H 0.41146 0.99152 0.25311 0.0
H750 H 0.51331 0.94938 0.22909 0.0
H751 H 0.45663 0.02201 0.26363 0.0
H752 H 0.53609 0.08043 0.2275 0.0
H753 H 0.49136 0.04924 0.23413 0.0
H754 H 0.54805 0.9735 0.2611 0.0
H755 H 0.59325 0.00456 0.25275 0.0
C756 C 0.46564 0.94103 0.2301 0.0
C757 C 0.43642 0.9528 0.23557 0.0
C758 C 0.49142 0.95864 0.2355 0.0
C759 C 0.48876 0.98839 0.24691 0.0
C760 C 0.45957 0.99945 0.25421 0.0
C761 C 0.43365 0.98192 0.24839 0.0
C762 C 0.5391 0.05725 0.23529 0.0
C763 C 0.56832 0.04484 0.23914 0.0
C764 C 0.51328 0.03934 0.23938 0.0
C765 C 0.51593 0.00862 0.24785 0.0
C766 C 0.54513 0.99685 0.25385 0.0
C767 C 0.57107 0.0147 0.24931 0.0
H768 H 0.53814 0.91541 0.74993 0.0
H769 H 0.5835 0.99934 0.77299 0.0
H770 H 0.4916 0.94342 0.73904 0.0
H771 H 0.53675 0.02721 0.76417 0.0
H772 H 0.45245 0.07598 0.74314 0.0
H773 H 0.49865 0.04682 0.73398 0.0
H774 H 0.45363 0.96593 0.76743 0.0
H775 H 0.40713 0.9948 0.77448 0.0
C776 C 0.53819 0.93993 0.75236 0.0
C777 C 0.56432 0.9552 0.76253 0.0
C778 C 0.51143 0.956 0.74641 0.0
C779 C 0.51001 0.98763 0.75121 0.0
C780 C 0.53681 0.003 0.75976 0.0
C781 C 0.56373 0.98699 0.76504 0.0
C782 C 0.45233 0.05176 0.7477 0.0
C783 C 0.42634 0.03765 0.75972 0.0
C784 C 0.4789 0.03507 0.74278 0.0
C785 C 0.48031 0.00404 0.75054 0.0
C786 C 0.45356 0.98963 0.76079 0.0
C787 C 0.42679 0.00621 0.76502 0.0
H788 H 0.25694 0.41075 0.99431 0.0
H789 H 0.22851 0.46738 0.91921 0.0
H790 H 0.26504 0.45611 0.02521 0.0
H791 H 0.23477 0.51223 0.95029 0.0
H792 H 0.25158 0.59264 0.0076 0.0
H793 H 0.26329 0.54793 0.97685 0.0
H794 H 0.23326 0.48988 0.05038 0.0
H795 H 0.22337 0.53411 0.08132 0.0
C796 C 0.25272 0.43286 0.9843 0.0
C797 C 0.24175 0.43539 0.95444 0.0
C798 C 0.25712 0.4589 0.00207 0.0
C799 C 0.2501 0.48799 0.99052 0.0
C800 C 0.24082 0.49044 0.96003 0.0
C801 C 0.23694 0.46453 0.94218 0.0
C802 C 0.24818 0.57028 0.01734 0.0
C803 C 0.23624 0.56699 0.04677 0.0
C804 C 0.25465 0.5446 0.99966 0.0
C805 C 0.24886 0.51511 0.01086 0.0
C806 C 0.2385 0.512 0.04094 0.0
C807 C 0.2325 0.53756 0.0587 0.0
H808 H 0.747 0.54675 0.92052 0.0
H809 H 0.77528 0.58972 0.00415 0.0
H810 H 0.7385 0.49921 0.94767 0.0
H811 H 0.76821 0.54202 0.03108 0.0
H812 H 0.77921 0.41408 0.99502 0.0
H813 H 0.77043 0.46138 0.96774 0.0
H814 H 0.73745 0.50306 0.05052 0.0
H815 H 0.74769 0.45606 0.07798 0.0
C816 C 0.75099 0.54612 0.94482 0.0
C817 C 0.76203 0.57187 0.96019 0.0
C818 C 0.74637 0.51879 0.96035 0.0
C819 C 0.75312 0.51649 0.99152 0.0
C820 C 0.76239 0.54287 0.00718 0.0
C821 C 0.76659 0.57031 0.99172 0.0
C822 C 0.76944 0.43314 0.0072 0.0
C823 C 0.76447 0.43153 0.03866 0.0
C824 C 0.76427 0.46034 0.99155 0.0
C825 C 0.7536 0.48633 0.00698 0.0
C826 C 0.74641 0.48382 0.03804 0.0
C827 C 0.75204 0.4568 0.05374 0.0
H828 H 0.14262 0.10122 0.70104 0.0
H829 H 0.19355 0.15949 0.64045 0.0
H830 H 0.18967 0.0861 0.7258 0.0
H831 H 0.24065 0.14327 0.66417 0.0
H832 H 0.30982 0.14245 0.74377 0.0
H833 H 0.26679 0.15205 0.71011 0.0
H834 H 0.23603 0.05955 0.72326 0.0
H835 H 0.27832 0.05063 0.75771 0.0
C836 C 0.16388 0.11025 0.6925 0.0
C837 C 0.16418 0.13176 0.6689 0.0
C838 C 0.19099 0.10145 0.7066 0.0
C839 C 0.2191 0.11362 0.69716 0.0
C840 C 0.21946 0.1339 0.6725 0.0
C841 C 0.19236 0.143 0.65868 0.0
C842 C 0.29418 0.12406 0.7389 0.0
C843 C 0.29711 0.09596 0.75368 0.0
C844 C 0.26948 0.12948 0.71957 0.0
C845 C 0.24751 0.1067 0.71431 0.0
C846 C 0.2519 0.07791 0.72745 0.0
C847 C 0.27626 0.0727 0.74708 0.0
H848 H 0.71822 0.94611 0.76582 0.0
H849 H 0.68291 0.85642 0.74775 0.0
H850 H 0.761 0.93634 0.73235 0.0
H851 H 0.72662 0.84572 0.71545 0.0
H852 H 0.85294 0.89381 0.70977 0.0
H853 H 0.80599 0.90863 0.73465 0.0
H854 H 0.75485 0.85362 0.67117 0.0
H855 H 0.802 0.83742 0.64746 0.0
C856 C 0.71956 0.92431 0.75456 0.0
C857 C 0.6974 0.90191 0.75971 0.0
C858 C 0.74427 0.91856 0.73552 0.0
C859 C 0.74782 0.88997 0.72163 0.0
C860 C 0.72468 0.86811 0.72551 0.0
C861 C 0.69958 0.87415 0.74413 0.0
C862 C 0.83168 0.88508 0.70092 0.0
C863 C 0.83136 0.86436 0.67662 0.0
C864 C 0.8046 0.89376 0.71508 0.0
C865 C 0.7764 0.88236 0.705 0.0
C866 C 0.77606 0.86248 0.67997 0.0
C867 C 0.80319 0.8534 0.66614 0.0
H868 H 0.31824 0.85853 0.25882 0.0
H869 H 0.27884 0.94443 0.23239 0.0
H870 H 0.27391 0.84805 0.29042 0.0
H871 H 0.23528 0.93478 0.26483 0.0
H872 H 0.14491 0.8873 0.28554 0.0
H873 H 0.19222 0.90299 0.26165 0.0
H874 H 0.24321 0.85899 0.33325 0.0
H875 H 0.19599 0.84221 0.3564 0.0
C876 C 0.30057 0.87558 0.26047 0.0
C877 C 0.30183 0.90208 0.24272 0.0
C878 C 0.27508 0.86963 0.27862 0.0
C879 C 0.25059 0.89031 0.27972 0.0
C880 C 0.25317 0.9179 0.26382 0.0
C881 C 0.27835 0.92358 0.2454 0.0
C882 C 0.16618 0.88123 0.29637 0.0
C883 C 0.16652 0.86344 0.32289 0.0
C884 C 0.19341 0.89039 0.28276 0.0
C885 C 0.22169 0.88229 0.2955 0.0
C886 C 0.22196 0.86527 0.32253 0.0
C887 C 0.19476 0.85585 0.33595 0.0
H888 H 0.73164 0.05674 0.22148 0.0
H889 H 0.68632 0.13254 0.2644 0.0
H890 H 0.77599 0.06496 0.25311 0.0
H891 H 0.73145 0.14198 0.29503 0.0
H892 H 0.81119 0.14523 0.35782 0.0
H893 H 0.76477 0.12744 0.33397 0.0
H894 H 0.81638 0.09946 0.25507 0.0
H895 H 0.86307 0.11591 0.27972 0.0
C896 C 0.73101 0.07505 0.23788 0.0
C897 C 0.70544 0.09412 0.2402 0.0
C898 C 0.75668 0.07999 0.25584 0.0
C899 C 0.75773 0.10452 0.27629 0.0
C900 C 0.73152 0.12269 0.27975 0.0
C901 C 0.70557 0.11737 0.26209 0.0
C902 C 0.81276 0.13481 0.3356 0.0
C903 C 0.84095 0.13206 0.32069 0.0
C904 C 0.78599 0.12484 0.32176 0.0
C905 C 0.78657 0.11225 0.2924 0.0
C906 C 0.81494 0.1086 0.27788 0.0
C907 C 0.84182 0.11818 0.29195 0.0
H908 H 0.69984 0.14393 0.09639 0.0
H909 H 0.66387 0.195 0.17234 0.0
H910 H 0.72548 0.18955 0.07817 0.0
H911 H 0.69053 0.23993 0.15502 0.0
H912 H 0.73073 0.32267 0.1106 0.0
H913 H 0.69652 0.27965 0.11914 0.0
H914 H 0.76827 0.21767 0.09308 0.0
H915 H 0.80156 0.26005 0.08342 0.0
C916 C 0.69733 0.16485 0.10917 0.0
C917 C 0.68005 0.16562 0.13602 0.0
C918 C 0.71216 0.19101 0.09882 0.0
C919 C 0.71041 0.21845 0.11529 0.0
C920 C 0.69216 0.21943 0.14148 0.0
C921 C 0.67706 0.19343 0.15161 0.0
C922 C 0.73897 0.29985 0.10631 0.0
C923 C 0.76898 0.29494 0.09649 0.0
C924 C 0.71944 0.27516 0.11136 0.0
C925 C 0.72959 0.24507 0.10687 0.0
C926 C 0.75933 0.24039 0.09626 0.0
C927 C 0.77864 0.26491 0.09102 0.0
H928 H 0.19392 0.73946 0.0925 0.0
H929 H 0.26782 0.67718 0.11064 0.0
H930 H 0.22731 0.78206 0.10062 0.0
H931 H 0.30211 0.72045 0.11741 0.0
H932 H 0.34036 0.804 0.16791 0.0
H933 H 0.31227 0.75927 0.15267 0.0
H934 H 0.26744 0.81144 0.0824 0.0
H935 H 0.2945 0.8569 0.09888 0.0
C936 C 0.2175 0.73475 0.09779 0.0
C937 C 0.22808 0.70472 0.10112 0.0
C938 C 0.23685 0.75941 0.10213 0.0
C939 C 0.26757 0.75491 0.10953 0.0
C940 C 0.27847 0.72484 0.11213 0.0
C941 C 0.25888 0.69999 0.10813 0.0
C942 C 0.32466 0.80604 0.14906 0.0
C943 C 0.31937 0.83429 0.13494 0.0
C944 C 0.3087 0.78013 0.14009 0.0
C945 C 0.28728 0.78162 0.11645 0.0
C946 C 0.2832 0.80954 0.10121 0.0
C947 C 0.29887 0.83562 0.1105 0.0
H948 H 0.80396 0.74537 0.91076 0.0
H949 H 0.72779 0.684 0.90099 0.0
H950 H 0.77069 0.78836 0.90294 0.0
H951 H 0.6939 0.72752 0.89456 0.0
H952 H 0.65403 0.80806 0.84101 0.0
H953 H 0.68238 0.764 0.8575 0.0
H954 H 0.73196 0.8198 0.92149 0.0
H955 H 0.70448 0.86456 0.9037 0.0
C956 C 0.77996 0.741 0.90742 0.0
C957 C 0.76864 0.71109 0.90621 0.0
C958 C 0.76072 0.76585 0.90324 0.0
C959 C 0.72948 0.76161 0.8981 0.0
C960 C 0.71792 0.7317 0.89794 0.0
C961 C 0.73731 0.70671 0.90177 0.0
C962 C 0.67079 0.81106 0.85878 0.0
C963 C 0.67724 0.84009 0.87067 0.0
C964 C 0.68693 0.78555 0.8685 0.0
C965 C 0.70975 0.78819 0.8907 0.0
C966 C 0.71504 0.81696 0.90385 0.0
C967 C 0.69911 0.84264 0.89382 0.0
H968 H 0.27784 0.13903 0.88203 0.0
H969 H 0.35685 0.18905 0.8519 0.0
H970 H 0.25447 0.18625 0.89873 0.0
H971 H 0.33422 0.23606 0.86997 0.0
H972 H 0.2663 0.31632 0.86676 0.0
H973 H 0.29595 0.27065 0.85656 0.0
H974 H 0.25397 0.22625 0.93359 0.0
H975 H 0.22327 0.27112 0.94253 0.0
C976 C 0.29054 0.16 0.87959 0.0
C977 C 0.31919 0.16016 0.8655 0.0
C978 C 0.2772 0.18719 0.88934 0.0
C979 C 0.29236 0.21521 0.88567 0.0
C980 C 0.32155 0.21512 0.87266 0.0
C981 C 0.33468 0.18802 0.86253 0.0
C982 C 0.26377 0.29697 0.88177 0.0
C983 C 0.24208 0.29729 0.9052 0.0
C984 C 0.28087 0.27071 0.87601 0.0
C985 C 0.27705 0.24437 0.89392 0.0
C986 C 0.25692 0.24564 0.9187 0.0
C987 C 0.2395 0.2716 0.92408 0.0
H988 H 0.13565 0.74038 0.31417 0.0
H989 H 0.04983 0.77049 0.27741 0.0
H990 H 0.14261 0.70703 0.27064 0.0
H991 H 0.05572 0.73596 0.23467 0.0
H992 H 0.09781 0.70675 0.14337 0.0
H993 H 0.0834 0.73299 0.18985 0.0
H994 H 0.12971 0.6643 0.24291 0.0
H995 H 0.14582 0.63951 0.19648 0.0
C996 C 0.11784 0.73919 0.29721 0.0
C997 C 0.09238 0.75831 0.29904 0.0
C998 C 0.12172 0.71995 0.27218 0.0
C999 C 0.09988 0.71892 0.2487 0.0
C1000 C 0.07345 0.73667 0.25172 0.0
C1001 C 0.06991 0.75633 0.27641 0.0
C1002 C 0.10461 0.69708 0.16497 0.0
C1003 C 0.12329 0.67121 0.16609 0.0
C1004 C 0.09617 0.71203 0.19178 0.0
C1005 C 0.10569 0.70108 0.22039 0.0
C1006 C 0.12264 0.674 0.22142 0.0
C1007 C 0.1316 0.6595 0.19467 0.0
H1008 H 0.11184 0.27336 0.67724 0.0
H1009 H 0.08528 0.20201 0.73952 0.0
H1010 H 0.12082 0.30722 0.72042 0.0
H1011 H 0.09536 0.23501 0.78208 0.0
H1012 H 0.09873 0.30341 0.85608 0.0
H1013 H 0.08044 0.27773 0.8105 0.0
H1014 H 0.15703 0.31293 0.75993 0.0
H1015 H 0.17443 0.33959 0.80481 0.0
C1016 C 0.1078 0.26492 0.70002 0.0
C1017 C 0.09798 0.23488 0.70479 0.0
C1018 C 0.1131 0.28426 0.72481 0.0
C1019 C 0.10887 0.27389 0.75485 0.0
C1020 C 0.09833 0.2441 0.7594 0.0
C1021 C 0.09284 0.22497 0.73479 0.0
C1022 C 0.11143 0.30597 0.83513 0.0
C1023 C 0.13823 0.32333 0.83429 0.0
C1024 C 0.10105 0.29111 0.809 0.0
C1025 C 0.11742 0.29295 0.78151 0.0
C1026 C 0.14357 0.31124 0.78047 0.0
C1027 C 0.15374 0.32635 0.80645 0.0
H1028 H 0.83143 0.6616 0.80833 0.0
H1029 H 0.91146 0.69208 0.85663 0.0
H1030 H 0.84865 0.68752 0.76303 0.0
H1031 H 0.92948 0.71708 0.81051 0.0
H1032 H 0.92377 0.79529 0.74112 0.0
H1033 H 0.91593 0.76127 0.78346 0.0
H1034 H 0.88295 0.69201 0.72197 0.0
H1035 H 0.88962 0.72688 0.67927 0.0
C1036 C 0.85305 0.67336 0.80919 0.0
C1037 C 0.86982 0.6751 0.83639 0.0
C1038 C 0.86311 0.68804 0.78294 0.0
C1039 C 0.89039 0.70466 0.78301 0.0
C1040 C 0.90805 0.705 0.80976 0.0
C1041 C 0.89782 0.6905 0.83619 0.0
C1042 C 0.9151 0.77273 0.73639 0.0
C1043 C 0.90695 0.76404 0.70668 0.0
C1044 C 0.91089 0.753 0.76083 0.0
C1045 C 0.89865 0.72384 0.75631 0.0
C1046 C 0.89193 0.71451 0.72639 0.0
C1047 C 0.89593 0.73442 0.70185 0.0
H1048 H 0.85795 0.2548 0.31075 0.0
H1049 H 0.94965 0.23899 0.27984 0.0
H1050 H 0.84906 0.28798 0.2672 0.0
H1051 H 0.94148 0.27299 0.23708 0.0
H1052 H 0.84357 0.35769 0.19369 0.0
H1053 H 0.8587 0.33355 0.24091 0.0
H1054 H 0.91545 0.27101 0.19052 0.0
H1055 H 0.90147 0.29625 0.14335 0.0
C1056 C 0.87646 0.25911 0.2951 0.0
C1057 C 0.90433 0.24398 0.29842 0.0
C1058 C 0.87145 0.27818 0.2701 0.0
C1059 C 0.89443 0.28286 0.2482 0.0
C1060 C 0.92296 0.26927 0.25288 0.0
C1061 C 0.92775 0.2499 0.27754 0.0
C1062 C 0.85975 0.33917 0.19266 0.0
C1063 C 0.87124 0.32888 0.1646 0.0
C1064 C 0.86819 0.32509 0.21982 0.0
C1065 C 0.88804 0.30006 0.21968 0.0
C1066 C 0.90042 0.29048 0.19169 0.0
C1067 C 0.89228 0.30486 0.16451 0.0
H1068 H 9e-05 0.08956 0.63487 0.0
H1069 H 0.07673 0.0422 0.59554 0.0
H1070 H 0.96901 0.04432 0.62923 0.0
H1071 H 0.04519 0.99641 0.59002 0.0
H1072 H 0.9683 0.92488 0.5706 0.0
H1073 H 0.99626 0.97305 0.56552 0.0
H1074 H 0.97374 0.99553 0.6584 0.0
H1075 H 0.94622 0.94794 0.66351 0.0
C1076 C 0.01027 0.06956 0.62468 0.0
C1077 C 0.04111 0.06931 0.61619 0.0
C1078 C 0.99239 0.04363 0.62147 0.0
C1079 C 0.0048 0.01672 0.60966 0.0
C1080 C 0.03504 0.01691 0.59917 0.0
C1081 C 0.0531 0.04306 0.60241 0.0
C1082 C 0.96901 0.94039 0.58972 0.0
C1083 C 0.955 0.93269 0.61743 0.0
C1084 C 0.98519 0.96776 0.58688 0.0
C1085 C 0.98707 0.98805 0.61152 0.0
C1086 C 0.97239 0.98056 0.63888 0.0
C1087 C 0.9567 0.9532 0.64184 0.0
H1088 H 0.00079 0.08862 0.34878 0.0
H1089 H 0.92593 0.04676 0.39682 0.0
H1090 H 0.03067 0.04274 0.3549 0.0
H1091 H 0.95636 0.00022 0.40286 0.0
H1092 H 0.0342 0.92954 0.42398 0.0
H1093 H 0.00644 0.97804 0.4262 0.0
H1094 H 0.02351 0.99182 0.33051 0.0
H1095 H 0.05091 0.94394 0.32824 0.0
C1096 C 0.99067 0.06965 0.36079 0.0
C1097 C 0.96066 0.07118 0.37178 0.0
C1098 C 0.00791 0.04333 0.36431 0.0
C1099 C 0.99571 0.01777 0.37895 0.0
C1100 C 0.96633 0.01967 0.3915 0.0
C1101 C 0.94889 0.04621 0.38792 0.0
C1102 C 0.03232 0.94321 0.40358 0.0
C1103 C 0.04484 0.93299 0.37596 0.0
C1104 C 0.01622 0.97075 0.4048 0.0
C1105 C 0.01288 0.9887 0.37855 0.0
C1106 C 0.02597 0.97867 0.3512 0.0
C1107 C 0.04163 0.95116 0.34989 0.0
H1108 H 0.64356 0.0002 0.91369 0.0
H1109 H 0.60013 0.92337 0.95701 0.0
H1110 H 0.63744 0.02989 0.95973 0.0
H1111 H 0.59411 0.95357 0.00366 0.0
H1112 H 0.5729 0.03034 0.07561 0.0
H1113 H 0.56965 0.00289 0.02696 0.0
H1114 H 0.66416 0.02301 0.00966 0.0
H1115 H 0.66746 0.05005 0.05763 0.0
C1116 C 0.6325 0.98963 0.933 0.0
C1117 C 0.62288 0.95914 0.93185 0.0
C1118 C 0.62898 0.00674 0.95939 0.0
C1119 C 0.61571 0.99391 0.98539 0.0
C1120 C 0.60438 0.96402 0.98387 0.0
C1121 C 0.60795 0.94672 0.95726 0.0
C1122 C 0.5928 0.02917 0.06114 0.0
C1123 C 0.62041 0.04243 0.07038 0.0
C1124 C 0.591 0.01327 0.03351 0.0
C1125 C 0.61662 0.01092 0.01453 0.0
C1126 C 0.64393 0.02474 0.02361 0.0
C1127 C 0.64583 0.04016 0.05119 0.0
H1128 H 0.42117 0.95927 0.06481 0.0
H1129 H 0.3229 0.96059 0.06268 0.0
H1130 H 0.42227 0.98712 0.01628 0.0
H1131 H 0.32413 0.98811 0.01496 0.0
H1132 H 0.33494 0.00362 0.91532 0.0
H1133 H 0.34085 0.97481 0.9618 0.0
H1134 H 0.40499 0.04108 0.99532 0.0
H1135 H 0.39914 0.07051 0.94809 0.0
C1136 C 0.3999 0.96529 0.05396 0.0
C1137 C 0.37196 0.95762 0.06755 0.0
C1138 C 0.40055 0.98142 0.0264 0.0
C1139 C 0.37329 0.98965 0.01186 0.0
C1140 C 0.34551 0.98179 0.02546 0.0
C1141 C 0.34484 0.96606 0.05291 0.0
C1142 C 0.3504 0.01225 0.93241 0.0
C1143 C 0.36613 0.03979 0.92814 0.0
C1144 C 0.35379 0.99561 0.95909 0.0
C1145 C 0.37306 0.00589 0.98231 0.0
C1146 C 0.38999 0.03265 0.9777 0.0
C1147 C 0.3865 0.04955 0.9508 0.0
H1148 H 0.95688 0.59469 0.91935 0.0
H1149 H 0.91206 0.63032 0.99918 0.0
H1150 H 0.00245 0.58448 0.94981 0.0
H1151 H 0.95725 0.62048 0.02925 0.0
H1152 H 0.03898 0.59262 0.08171 0.0
H1153 H 0.99335 0.58359 0.05101 0.0
H1154 H 0.03917 0.62038 0.9723 0.0
H1155 H 0.08445 0.62903 0.00261 0.0
C1156 C 0.95654 0.59977 0.94345 0.0
C1157 C 0.9311 0.61374 0.95675 0.0
C1158 C 0.98263 0.59404 0.96086 0.0
C1159 C 0.98354 0.60186 0.99192 0.0
C1160 C 0.95728 0.61389 0.00551 0.0
C1161 C 0.93144 0.61984 0.98814 0.0
C1162 C 0.03944 0.59814 0.05771 0.0
C1163 C 0.06509 0.612 0.04471 0.0
C1164 C 0.01332 0.59307 0.04016 0.0
C1165 C 0.01256 0.60147 0.00925 0.0
C1166 C 0.03901 0.61337 0.99591 0.0
C1167 C 0.0649 0.61864 0.01343 0.0
H1168 H 0.05977 0.33747 0.95008 0.0
H1169 H 0.07954 0.43159 0.97025 0.0
H1170 H 0.01197 0.34151 0.97735 0.0
H1171 H 0.03111 0.43558 0.99798 0.0
H1172 H 0.96173 0.40483 0.07826 0.0
H1173 H 0.0079 0.41105 0.04737 0.0
H1174 H 0.96237 0.36927 0.97113 0.0
H1175 H 0.91679 0.36296 0.00153 0.0
C1176 C 0.05376 0.35916 0.96012 0.0
C1177 C 0.0734 0.38424 0.95791 0.0
C1178 C 0.02628 0.3615 0.97567 0.0
C1179 C 0.01776 0.3889 0.98971 0.0
C1180 C 0.0372 0.41418 0.98741 0.0
C1181 C 0.06472 0.41195 0.97136 0.0
C1182 C 0.96149 0.39751 0.05475 0.0
C1183 C 0.93581 0.38285 0.04256 0.0
C1184 C 0.98783 0.40116 0.03706 0.0
C1185 C 0.98881 0.39019 0.00701 0.0
C1186 C 0.96246 0.37743 0.99438 0.0
C1187 C 0.93633 0.37381 0.01188 0.0
loop_
_geom_bond_atom_site_label_1
_geom_bond_atom_site_label_2
_geom_bond_distance
_geom_bond_site_symmetry_2
_ccdc_geom_bond_type
Co0 O2 2.143 . S
Co0 O8 2.074 . S
Co0 O11 2.093 . S
Co0 O24 2.097 . S
Co0 N41 2.151 . S
Co0 N49 2.214 . S
Co1 O2 2.160 . S
Co1 O7 2.058 . S
Co1 O17 2.057 . S
Co1 O32 2.037 . S
Co1 N36 2.145 . S
Co1 N57 2.257 . S
O2 Co0 2.143 . S
O2 Co1 2.160 . S
C3 O4 1.278 . S
C3 O11 1.224 . S
O4 C3 1.278 . S
C5 O6 1.245 . S
C5 O17 1.232 . S
O6 C5 1.245 . S
O7 Co1 2.058 . S
O7 C33 1.269 . S
O8 Co0 2.074 . S
O8 C33 1.257 . S
H9 C34 0.930 . S
H10 C40 0.930 . S
O11 Co0 2.093 . S
O11 C3 1.224 . S
H12 C44 0.929 . S
H13 C46 0.930 . S
H14 C47 0.930 . S
H15 C45 0.929 . S
H16 C48 0.928 . S
O17 Co1 2.057 . S
O17 C5 1.232 . S
H18 C37 0.929 . S
H19 C38 0.929 . S
H20 C50 0.931 . S
H21 C42 0.929 . S
H22 C51 0.930 . S
H23 C43 0.931 . S
O24 Co0 2.097 . S
O24 C52 1.214 . S
H25 C53 0.929 . S
H26 C54 0.929 . S
H27 C55 0.930 . S
H28 C56 0.929 . S
H29 C58 0.930 . S
H30 C35 0.930 . S
H31 C39 0.930 . S
O32 Co1 2.037 . S
O32 C52 1.234 . S
C33 O7 1.269 . S
C33 O8 1.257 . S
C34 H9 0.930 . S
C34 C37 1.388 . S
C34 C39 1.418 . S
C35 H30 0.930 . S
C35 C38 1.404 . S
C35 C39 1.353 . S
N36 Co1 2.145 . S
N36 C37 1.397 . S
N36 C38 1.334 . S
C37 H18 0.929 . S
C37 C34 1.388 . S
C37 N36 1.397 . S
C38 H19 0.929 . S
C38 C35 1.404 . S
C38 N36 1.334 . S
C39 H31 0.930 . S
C39 C34 1.418 . S
C39 C35 1.353 . S
C40 H10 0.930 . S
C40 N41 1.330 . S
C40 C42 1.446 1_455 S
N41 Co0 2.151 . S
N41 C40 1.330 . S
N41 C45 1.418 . S
C42 H21 0.929 . S
C42 C40 1.446 1_655 S
C42 C43 1.332 . S
C43 H23 0.931 . S
C43 C42 1.332 . S
C43 C44 1.267 . S
C44 H12 0.929 . S
C44 C43 1.267 . S
C44 C45 1.251 1_655 S
C45 H15 0.929 . S
C45 N41 1.418 . S
C45 C44 1.251 1_455 S
C46 H13 0.930 . S
C46 C48 1.406 . S
C46 C51 1.261 . S
C47 H14 0.930 . S
C47 N49 1.325 . S
C47 C50 1.357 . S
C48 H16 0.928 . S
C48 C46 1.406 . S
C48 N49 1.261 . S
N49 Co0 2.214 . S
N49 C47 1.325 . S
N49 C48 1.261 . S
C50 H20 0.931 . S
C50 C47 1.357 . S
C50 C51 1.312 . S
C51 H22 0.930 . S
C51 C46 1.261 . S
C51 C50 1.312 . S
C52 O24 1.214 . S
C52 O32 1.234 . S
C53 H25 0.929 . S
C53 C56 1.391 . S
C53 C58 1.391 . S
C54 H26 0.929 . S
C54 C55 1.390 . S
C54 N57 1.391 . S
C55 H27 0.930 . S
C55 C54 1.390 . S
C55 C56 1.392 . S
C56 H28 0.929 . S
C56 C53 1.391 . S
C56 C55 1.392 . S
N57 Co1 2.257 . S
N57 C54 1.391 . S
N57 C58 1.388 . S
C58 H29 0.930 . S
C58 C53 1.391 . S
C58 N57 1.388 . S
Co59 O61 2.143 . S
Co59 O67 2.074 . S
Co59 O70 2.093 . S
Co59 O83 2.097 . S
Co59 N100 2.151 . S
Co59 N108 2.214 . S
Co60 O61 2.160 . S
Co60 O66 2.058 . S
Co60 O76 2.057 . S
Co60 O91 2.037 . S
Co60 N95 2.145 . S
Co60 N116 2.257 . S
O61 Co59 2.143 . S
O61 Co60 2.160 . S
C62 O63 1.278 . S
C62 O70 1.224 . S
O63 C62 1.278 . S
C64 O65 1.245 . S
C64 O76 1.232 . S
O65 C64 1.245 . S
O66 Co60 2.058 . S
O66 C92 1.269 . S
O67 Co59 2.074 . S
O67 C92 1.257 . S
H68 C93 0.930 . S
H69 C99 0.930 . S
O70 Co59 2.093 . S
O70 C62 1.224 . S
H71 C103 0.929 . S
H72 C105 0.930 . S
H73 C106 0.930 . S
H74 C104 0.929 . S
H75 C107 0.928 . S
O76 Co60 2.057 . S
O76 C64 1.232 . S
H77 C96 0.929 . S
H78 C97 0.929 . S
H79 C109 0.931 . S
H80 C101 0.929 . S
H81 C110 0.930 . S
H82 C102 0.931 . S
O83 Co59 2.097 . S
O83 C111 1.214 . S
H84 C112 0.929 . S
H85 C113 0.929 . S
H86 C114 0.930 . S
H87 C115 0.929 . S
H88 C117 0.930 . S
H89 C94 0.930 . S
H90 C98 0.930 . S
O91 Co60 2.037 . S
O91 C111 1.234 . S
C92 O66 1.269 . S
C92 O67 1.257 . S
C93 H68 0.930 . S
C93 C96 1.388 . S
C93 C98 1.418 . S
C94 H89 0.930 . S
C94 C97 1.404 . S
C94 C98 1.353 . S
N95 Co60 2.145 . S
N95 C96 1.397 . S
N95 C97 1.334 . S
C96 H77 0.929 . S
C96 C93 1.388 . S
C96 N95 1.397 . S
C97 H78 0.929 . S
C97 C94 1.404 . S
C97 N95 1.334 . S
C98 H90 0.930 . S
C98 C93 1.418 . S
C98 C94 1.353 . S
C99 H69 0.930 . S
C99 N100 1.330 . S
C99 C101 1.446 1_655 S
N100 Co59 2.151 . S
N100 C99 1.330 . S
N100 C104 1.418 . S
C101 H80 0.929 . S
C101 C99 1.446 1_455 S
C101 C102 1.332 . S
C102 H82 0.931 . S
C102 C101 1.332 . S
C102 C103 1.267 . S
C103 H71 0.929 . S
C103 C102 1.267 . S
C103 C104 1.251 1_455 S
C104 H74 0.929 . S
C104 N100 1.418 . S
C104 C103 1.251 1_655 S
C105 H72 0.930 . S
C105 C107 1.406 . S
C105 C110 1.261 . S
C106 H73 0.930 . S
C106 N108 1.325 . S
C106 C109 1.357 . S
C107 H75 0.928 . S
C107 C105 1.406 . S
C107 N108 1.261 . S
N108 Co59 2.214 . S
N108 C106 1.325 . S
N108 C107 1.261 . S
C109 H79 0.931 . S
C109 C106 1.357 . S
C109 C110 1.312 . S
C110 H81 0.930 . S
C110 C105 1.261 . S
C110 C109 1.312 . S
C111 O83 1.214 . S
C111 O91 1.234 . S
C112 H84 0.929 . S
C112 C115 1.391 . S
C112 C117 1.391 . S
C113 H85 0.929 . S
C113 C114 1.390 . S
C113 N116 1.391 . S
C114 H86 0.930 . S
C114 C113 1.390 . S
C114 C115 1.392 . S
C115 H87 0.929 . S
C115 C112 1.391 . S
C115 C114 1.392 . S
N116 Co60 2.257 . S
N116 C113 1.391 . S
N116 C117 1.388 . S
C117 H88 0.930 . S
C117 C112 1.391 . S
C117 N116 1.388 . S
Co118 O120 2.143 . S
Co118 O126 2.074 . S
Co118 O129 2.093 . S
Co118 O142 2.097 . S
Co118 N159 2.151 . S
Co118 N167 2.214 . S
Co119 O120 2.160 . S
Co119 O125 2.058 . S
Co119 O135 2.057 . S
Co119 O150 2.037 . S
Co119 N154 2.145 . S
Co119 N175 2.257 . S
O120 Co118 2.143 . S
O120 Co119 2.160 . S
C121 O122 1.278 . S
C121 O129 1.224 . S
O122 C121 1.278 . S
C123 O124 1.245 . S
C123 O135 1.232 . S
O124 C123 1.245 . S
O125 Co119 2.058 . S
O125 C151 1.269 . S
O126 Co118 2.074 . S
O126 C151 1.257 . S
H127 C152 0.930 . S
H128 C158 0.930 . S
O129 Co118 2.093 . S
O129 C121 1.224 . S
H130 C162 0.929 . S
H131 C164 0.930 . S
H132 C165 0.930 . S
H133 C163 0.929 . S
H134 C166 0.928 . S
O135 Co119 2.057 . S
O135 C123 1.232 . S
H136 C155 0.929 . S
H137 C156 0.929 . S
H138 C168 0.931 . S
H139 C160 0.929 . S
H140 C169 0.930 . S
H141 C161 0.931 . S
O142 Co118 2.097 . S
O142 C170 1.214 . S
H143 C171 0.929 . S
H144 C172 0.929 . S
H145 C173 0.930 . S
H146 C174 0.929 . S
H147 C176 0.930 . S
H148 C153 0.930 . S
H149 C157 0.930 . S
O150 Co119 2.037 . S
O150 C170 1.234 . S
C151 O125 1.269 . S
C151 O126 1.257 . S
C152 H127 0.930 . S
C152 C155 1.388 . S
C152 C157 1.418 . S
C153 H148 0.930 . S
C153 C156 1.404 . S
C153 C157 1.353 . S
N154 Co119 2.145 . S
N154 C155 1.397 . S
N154 C156 1.334 . S
C155 H136 0.929 . S
C155 C152 1.388 . S
C155 N154 1.397 . S
C156 H137 0.929 . S
C156 C153 1.404 . S
C156 N154 1.334 . S
C157 H149 0.930 . S
C157 C152 1.418 . S
C157 C153 1.353 . S
C158 H128 0.930 . S
C158 N159 1.330 . S
C158 C160 1.446 1_455 S
N159 Co118 2.151 . S
N159 C158 1.330 . S
N159 C163 1.418 . S
C160 H139 0.929 . S
C160 C158 1.446 1_655 S
C160 C161 1.332 . S
C161 H141 0.931 . S
C161 C160 1.332 . S
C161 C162 1.267 . S
C162 H130 0.929 . S
C162 C161 1.267 . S
C162 C163 1.251 1_655 S
C163 H133 0.929 . S
C163 N159 1.418 . S
C163 C162 1.251 1_455 S
C164 H131 0.930 . S
C164 C166 1.406 . S
C164 C169 1.261 . S
C165 H132 0.930 . S
C165 N167 1.325 . S
C165 C168 1.357 . S
C166 H134 0.928 . S
C166 C164 1.406 . S
C166 N167 1.261 . S
N167 Co118 2.214 . S
N167 C165 1.325 . S
N167 C166 1.261 . S
C168 H138 0.931 . S
C168 C165 1.357 . S
C168 C169 1.312 . S
C169 H140 0.930 . S
C169 C164 1.261 . S
C169 C168 1.312 . S
C170 O142 1.214 . S
C170 O150 1.234 . S
C171 H143 0.929 . S
C171 C174 1.391 . S
C171 C176 1.391 . S
C172 H144 0.929 . S
C172 C173 1.390 . S
C172 N175 1.391 . S
C173 H145 0.930 . S
C173 C172 1.390 . S
C173 C174 1.392 . S
C174 H146 0.929 . S
C174 C171 1.391 . S
C174 C173 1.392 . S
N175 Co119 2.257 . S
N175 C172 1.391 . S
N175 C176 1.388 . S
C176 H147 0.930 . S
C176 C171 1.391 . S
C176 N175 1.388 . S
Co177 O179 2.143 . S
Co177 O185 2.074 . S
Co177 O188 2.093 . S
Co177 O201 2.097 . S
Co177 N218 2.151 . S
Co177 N226 2.214 . S
Co178 O179 2.160 . S
Co178 O184 2.058 . S
Co178 O194 2.057 . S
Co178 O209 2.037 . S
Co178 N213 2.145 . S
Co178 N234 2.257 . S
O179 Co177 2.143 . S
O179 Co178 2.160 . S
C180 O181 1.278 . S
C180 O188 1.224 . S
O181 C180 1.278 . S
C182 O183 1.245 . S
C182 O194 1.232 . S
O183 C182 1.245 . S
O184 Co178 2.058 . S
O184 C210 1.269 . S
O185 Co177 2.074 . S
O185 C210 1.257 . S
H186 C211 0.930 . S
H187 C217 0.930 . S
O188 Co177 2.093 . S
O188 C180 1.224 . S
H189 C221 0.929 . S
H190 C223 0.930 . S
H191 C224 0.930 . S
H192 C222 0.929 . S
H193 C225 0.928 . S
O194 Co178 2.057 . S
O194 C182 1.232 . S
H195 C214 0.929 . S
H196 C215 0.929 . S
H197 C227 0.931 . S
H198 C219 0.929 . S
H199 C228 0.930 . S
H200 C220 0.931 . S
O201 Co177 2.097 . S
O201 C229 1.214 . S
H202 C230 0.929 . S
H203 C231 0.929 . S
H204 C232 0.930 . S
H205 C233 0.929 . S
H206 C235 0.930 . S
H207 C212 0.930 . S
H208 C216 0.930 . S
O209 Co178 2.037 . S
O209 C229 1.234 . S
C210 O184 1.269 . S
C210 O185 1.257 . S
C211 H186 0.930 . S
C211 C214 1.388 . S
C211 C216 1.418 . S
C212 H207 0.930 . S
C212 C215 1.404 . S
C212 C216 1.353 . S
N213 Co178 2.145 . S
N213 C214 1.397 . S
N213 C215 1.334 . S
C214 H195 0.929 . S
C214 C211 1.388 . S
C214 N213 1.397 . S
C215 H196 0.929 . S
C215 C212 1.404 . S
C215 N213 1.334 . S
C216 H208 0.930 . S
C216 C211 1.418 . S
C216 C212 1.353 . S
C217 H187 0.930 . S
C217 N218 1.330 . S
C217 C219 1.446 1_655 S
N218 Co177 2.151 . S
N218 C217 1.330 . S
N218 C222 1.418 . S
C219 H198 0.929 . S
C219 C217 1.446 1_455 S
C219 C220 1.332 . S
C220 H200 0.931 . S
C220 C219 1.332 . S
C220 C221 1.267 . S
C221 H189 0.929 . S
C221 C220 1.267 . S
C221 C222 1.251 1_455 S
C222 H192 0.929 . S
C222 N218 1.418 . S
C222 C221 1.251 1_655 S
C223 H190 0.930 . S
C223 C225 1.406 . S
C223 C228 1.261 . S
C224 H191 0.930 . S
C224 N226 1.325 . S
C224 C227 1.357 . S
C225 H193 0.928 . S
C225 C223 1.406 . S
C225 N226 1.261 . S
N226 Co177 2.214 . S
N226 C224 1.325 . S
N226 C225 1.261 . S
C227 H197 0.931 . S
C227 C224 1.357 . S
C227 C228 1.312 . S
C228 H199 0.930 . S
C228 C223 1.261 . S
C228 C227 1.312 . S
C229 O201 1.214 . S
C229 O209 1.234 . S
C230 H202 0.929 . S
C230 C233 1.391 . S
C230 C235 1.391 . S
C231 H203 0.929 . S
C231 C232 1.390 . S
C231 N234 1.391 . S
C232 H204 0.930 . S
C232 C231 1.390 . S
C232 C233 1.392 . S
C233 H205 0.929 . S
C233 C230 1.391 . S
C233 C232 1.392 . S
N234 Co178 2.257 . S
N234 C231 1.391 . S
N234 C235 1.388 . S
C235 H206 0.930 . S
C235 C230 1.391 . S
C235 N234 1.388 . S
Co236 O238 2.143 . S
Co236 O244 2.074 . S
Co236 O247 2.093 . S
Co236 O260 2.097 . S
Co236 N277 2.151 . S
Co236 N285 2.214 . S
Co237 O238 2.160 . S
Co237 O243 2.058 . S
Co237 O253 2.057 . S
Co237 O268 2.037 . S
Co237 N272 2.145 . S
Co237 N293 2.257 . S
O238 Co236 2.143 . S
O238 Co237 2.160 . S
C239 O240 1.278 . S
C239 O247 1.224 . S
O240 C239 1.278 . S
C241 O242 1.245 . S
C241 O253 1.232 . S
O242 C241 1.245 . S
O243 Co237 2.058 . S
O243 C269 1.269 . S
O244 Co236 2.074 . S
O244 C269 1.257 . S
H245 C270 0.930 . S
H246 C276 0.930 . S
O247 Co236 2.093 . S
O247 C239 1.224 . S
H248 C280 0.929 . S
H249 C282 0.930 . S
H250 C283 0.930 . S
H251 C281 0.929 . S
H252 C284 0.928 . S
O253 Co237 2.057 . S
O253 C241 1.232 . S
H254 C273 0.929 . S
H255 C274 0.929 . S
H256 C286 0.931 . S
H257 C278 0.929 . S
H258 C287 0.930 . S
H259 C279 0.931 . S
O260 Co236 2.097 . S
O260 C288 1.214 . S
H261 C289 0.929 . S
H262 C290 0.929 . S
H263 C291 0.930 . S
H264 C292 0.929 . S
H265 C294 0.930 . S
H266 C271 0.930 . S
H267 C275 0.930 . S
O268 Co237 2.037 . S
O268 C288 1.234 . S
C269 O243 1.269 . S
C269 O244 1.257 . S
C270 H245 0.930 . S
C270 C273 1.388 . S
C270 C275 1.418 . S
C271 H266 0.930 . S
C271 C274 1.404 . S
C271 C275 1.353 . S
N272 Co237 2.145 . S
N272 C273 1.397 . S
N272 C274 1.334 . S
C273 H254 0.929 . S
C273 C270 1.388 . S
C273 N272 1.397 . S
C274 H255 0.929 . S
C274 C271 1.404 . S
C274 N272 1.334 . S
C275 H267 0.930 . S
C275 C270 1.418 . S
C275 C271 1.353 . S
C276 H246 0.930 . S
C276 N277 1.330 . S
C276 C278 1.446 1_545 S
N277 Co236 2.151 . S
N277 C276 1.330 . S
N277 C281 1.418 . S
C278 H257 0.929 . S
C278 C276 1.446 1_565 S
C278 C279 1.332 . S
C279 H259 0.931 . S
C279 C278 1.332 . S
C279 C280 1.267 . S
C280 H248 0.929 . S
C280 C279 1.267 . S
C280 C281 1.251 1_565 S
C281 H251 0.929 . S
C281 N277 1.418 . S
C281 C280 1.251 1_545 S
C282 H249 0.930 . S
C282 C284 1.406 . S
C282 C287 1.261 . S
C283 H250 0.930 . S
C283 N285 1.325 . S
C283 C286 1.357 . S
C284 H252 0.928 . S
C284 C282 1.406 . S
C284 N285 1.261 . S
N285 Co236 2.214 . S
N285 C283 1.325 . S
N285 C284 1.261 . S
C286 H256 0.931 . S
C286 C283 1.357 . S
C286 C287 1.312 . S
C287 H258 0.930 . S
C287 C282 1.261 . S
C287 C286 1.312 . S
C288 O260 1.214 . S
C288 O268 1.234 . S
C289 H261 0.929 . S
C289 C292 1.391 . S
C289 C294 1.391 . S
C290 H262 0.929 . S
C290 C291 1.390 . S
C290 N293 1.391 . S
C291 H263 0.930 . S
C291 C290 1.390 . S
C291 C292 1.392 . S
C292 H264 0.929 . S
C292 C289 1.391 . S
C292 C291 1.392 . S
N293 Co237 2.257 . S
N293 C290 1.391 . S
N293 C294 1.388 . S
C294 H265 0.930 . S
C294 C289 1.391 . S
C294 N293 1.388 . S
Co295 O297 2.143 . S
Co295 O303 2.074 . S
Co295 O306 2.093 . S
Co295 O319 2.097 . S
Co295 N336 2.151 . S
Co295 N344 2.214 . S
Co296 O297 2.160 . S
Co296 O302 2.058 . S
Co296 O312 2.057 . S
Co296 O327 2.037 . S
Co296 N331 2.145 . S
Co296 N352 2.257 . S
O297 Co295 2.143 . S
O297 Co296 2.160 . S
C298 O299 1.278 . S
C298 O306 1.224 . S
O299 C298 1.278 . S
C300 O301 1.245 . S
C300 O312 1.232 . S
O301 C300 1.245 . S
O302 Co296 2.058 . S
O302 C328 1.269 . S
O303 Co295 2.074 . S
O303 C328 1.257 . S
H304 C329 0.930 . S
H305 C335 0.930 . S
O306 Co295 2.093 . S
O306 C298 1.224 . S
H307 C339 0.929 . S
H308 C341 0.930 . S
H309 C342 0.930 . S
H310 C340 0.929 . S
H311 C343 0.928 . S
O312 Co296 2.057 . S
O312 C300 1.232 . S
H313 C332 0.929 . S
H314 C333 0.929 . S
H315 C345 0.931 . S
H316 C337 0.929 . S
H317 C346 0.930 . S
H318 C338 0.931 . S
O319 Co295 2.097 . S
O319 C347 1.214 . S
H320 C348 0.929 . S
H321 C349 0.929 . S
H322 C350 0.930 . S
H323 C351 0.929 . S
H324 C353 0.930 . S
H325 C330 0.930 . S
H326 C334 0.930 . S
O327 Co296 2.037 . S
O327 C347 1.234 . S
C328 O302 1.269 . S
C328 O303 1.257 . S
C329 H304 0.930 . S
C329 C332 1.388 . S
C329 C334 1.418 . S
C330 H325 0.930 . S
C330 C333 1.404 . S
C330 C334 1.353 . S
N331 Co296 2.145 . S
N331 C332 1.397 . S
N331 C333 1.334 . S
C332 H313 0.929 . S
C332 C329 1.388 . S
C332 N331 1.397 . S
C333 H314 0.929 . S
C333 C330 1.404 . S
C333 N331 1.334 . S
C334 H326 0.930 . S
C334 C329 1.418 . S
C334 C330 1.353 . S
C335 H305 0.930 . S
C335 N336 1.330 . S
C335 C337 1.446 1_565 S
N336 Co295 2.151 . S
N336 C335 1.330 . S
N336 C340 1.418 . S
C337 H316 0.929 . S
C337 C335 1.446 1_545 S
C337 C338 1.332 . S
C338 H318 0.931 . S
C338 C337 1.332 . S
C338 C339 1.267 . S
C339 H307 0.929 . S
C339 C338 1.267 . S
C339 C340 1.251 1_545 S
C340 H310 0.929 . S
C340 N336 1.418 . S
C340 C339 1.251 1_565 S
C341 H308 0.930 . S
C341 C343 1.406 . S
C341 C346 1.261 . S
C342 H309 0.930 . S
C342 N344 1.325 . S
C342 C345 1.357 . S
C343 H311 0.928 . S
C343 C341 1.406 . S
C343 N344 1.261 . S
N344 Co295 2.214 . S
N344 C342 1.325 . S
N344 C343 1.261 . S
C345 H315 0.931 . S
C345 C342 1.357 . S
C345 C346 1.312 . S
C346 H317 0.930 . S
C346 C341 1.261 . S
C346 C345 1.312 . S
C347 O319 1.214 . S
C347 O327 1.234 . S
C348 H320 0.929 . S
C348 C351 1.391 . S
C348 C353 1.391 . S
C349 H321 0.929 . S
C349 C350 1.390 . S
C349 N352 1.391 . S
C350 H322 0.930 . S
C350 C349 1.390 . S
C350 C351 1.392 . S
C351 H323 0.929 . S
C351 C348 1.391 . S
C351 C350 1.392 . S
N352 Co296 2.257 . S
N352 C349 1.391 . S
N352 C353 1.388 . S
C353 H324 0.930 . S
C353 C348 1.391 . S
C353 N352 1.388 . S
Co354 O356 2.143 . S
Co354 O362 2.074 . S
Co354 O365 2.093 . S
Co354 O378 2.097 . S
Co354 N395 2.151 . S
Co354 N403 2.214 . S
Co355 O356 2.160 . S
Co355 O361 2.058 . S
Co355 O371 2.057 . S
Co355 O386 2.037 . S
Co355 N390 2.145 . S
Co355 N411 2.257 . S
O356 Co354 2.143 . S
O356 Co355 2.160 . S
C357 O358 1.278 . S
C357 O365 1.224 . S
O358 C357 1.278 . S
C359 O360 1.245 . S
C359 O371 1.232 . S
O360 C359 1.245 . S
O361 Co355 2.058 . S
O361 C387 1.269 . S
O362 Co354 2.074 . S
O362 C387 1.257 . S
H363 C388 0.930 . S
H364 C394 0.930 . S
O365 Co354 2.093 . S
O365 C357 1.224 . S
H366 C398 0.929 . S
H367 C400 0.930 . S
H368 C401 0.930 . S
H369 C399 0.929 . S
H370 C402 0.928 . S
O371 Co355 2.057 . S
O371 C359 1.232 . S
H372 C391 0.929 . S
H373 C392 0.929 . S
H374 C404 0.931 . S
H375 C396 0.929 . S
H376 C405 0.930 . S
H377 C397 0.931 . S
O378 Co354 2.097 . S
O378 C406 1.214 . S
H379 C407 0.929 . S
H380 C408 0.929 . S
H381 C409 0.930 . S
H382 C410 0.929 . S
H383 C412 0.930 . S
H384 C389 0.930 . S
H385 C393 0.930 . S
O386 Co355 2.037 . S
O386 C406 1.234 . S
C387 O361 1.269 . S
C387 O362 1.257 . S
C388 H363 0.930 . S
C388 C391 1.388 . S
C388 C393 1.418 . S
C389 H384 0.930 . S
C389 C392 1.404 . S
C389 C393 1.353 . S
N390 Co355 2.145 . S
N390 C391 1.397 . S
N390 C392 1.334 . S
C391 H372 0.929 . S
C391 C388 1.388 . S
C391 N390 1.397 . S
C392 H373 0.929 . S
C392 C389 1.404 . S
C392 N390 1.334 . S
C393 H385 0.930 . S
C393 C388 1.418 . S
C393 C389 1.353 . S
C394 H364 0.930 . S
C394 N395 1.330 . S
C394 C396 1.446 1_565 S
N395 Co354 2.151 . S
N395 C394 1.330 . S
N395 C399 1.418 . S
C396 H375 0.929 . S
C396 C394 1.446 1_545 S
C396 C397 1.332 . S
C397 H377 0.931 . S
C397 C396 1.332 . S
C397 C398 1.267 . S
C398 H366 0.929 . S
C398 C397 1.267 . S
C398 C399 1.251 1_545 S
C399 H369 0.929 . S
C399 N395 1.418 . S
C399 C398 1.251 1_565 S
C400 H367 0.930 . S
C400 C402 1.406 . S
C400 C405 1.261 . S
C401 H368 0.930 . S
C401 N403 1.325 . S
C401 C404 1.357 . S
C402 H370 0.928 . S
C402 C400 1.406 . S
C402 N403 1.261 . S
N403 Co354 2.214 . S
N403 C401 1.325 . S
N403 C402 1.261 . S
C404 H374 0.931 . S
C404 C401 1.357 . S
C404 C405 1.312 . S
C405 H376 0.930 . S
C405 C400 1.261 . S
C405 C404 1.312 . S
C406 O378 1.214 . S
C406 O386 1.234 . S
C407 H379 0.929 . S
C407 C410 1.391 . S
C407 C412 1.391 . S
C408 H380 0.929 . S
C408 C409 1.390 . S
C408 N411 1.391 . S
C409 H381 0.930 . S
C409 C408 1.390 . S
C409 C410 1.392 . S
C410 H382 0.929 . S
C410 C407 1.391 . S
C410 C409 1.392 . S
N411 Co355 2.257 . S
N411 C408 1.391 . S
N411 C412 1.388 . S
C412 H383 0.930 . S
C412 C407 1.391 . S
C412 N411 1.388 . S
Co413 O415 2.143 . S
Co413 O421 2.074 . S
Co413 O424 2.093 . S
Co413 O437 2.097 . S
Co413 N454 2.151 . S
Co413 N462 2.214 . S
Co414 O415 2.160 . S
Co414 O420 2.058 . S
Co414 O430 2.057 . S
Co414 O445 2.037 . S
Co414 N449 2.145 . S
Co414 N470 2.257 . S
O415 Co413 2.143 . S
O415 Co414 2.160 . S
C416 O417 1.278 . S
C416 O424 1.224 . S
O417 C416 1.278 . S
C418 O419 1.245 . S
C418 O430 1.232 . S
O419 C418 1.245 . S
O420 Co414 2.058 . S
O420 C446 1.269 . S
O421 Co413 2.074 . S
O421 C446 1.257 . S
H422 C447 0.930 . S
H423 C453 0.930 . S
O424 Co413 2.093 . S
O424 C416 1.224 . S
H425 C457 0.929 . S
H426 C459 0.930 . S
H427 C460 0.930 . S
H428 C458 0.929 . S
H429 C461 0.928 . S
O430 Co414 2.057 . S
O430 C418 1.232 . S
H431 C450 0.929 . S
H432 C451 0.929 . S
H433 C463 0.931 . S
H434 C455 0.929 . S
H435 C464 0.930 . S
H436 C456 0.931 . S
O437 Co413 2.097 . S
O437 C465 1.214 . S
H438 C466 0.929 . S
H439 C467 0.929 . S
H440 C468 0.930 . S
H441 C469 0.929 . S
H442 C471 0.930 . S
H443 C448 0.930 . S
H444 C452 0.930 . S
O445 Co414 2.037 . S
O445 C465 1.234 . S
C446 O420 1.269 . S
C446 O421 1.257 . S
C447 H422 0.930 . S
C447 C450 1.388 . S
C447 C452 1.418 . S
C448 H443 0.930 . S
C448 C451 1.404 . S
C448 C452 1.353 . S
N449 Co414 2.145 . S
N449 C450 1.397 . S
N449 C451 1.334 . S
C450 H431 0.929 . S
C450 C447 1.388 . S
C450 N449 1.397 . S
C451 H432 0.929 . S
C451 C448 1.404 . S
C451 N449 1.334 . S
C452 H444 0.930 . S
C452 C447 1.418 . S
C452 C448 1.353 . S
C453 H423 0.930 . S
C453 N454 1.330 . S
C453 C455 1.446 1_545 S
N454 Co413 2.151 . S
N454 C453 1.330 . S
N454 C458 1.418 . S
C455 H434 0.929 . S
C455 C453 1.446 1_565 S
C455 C456 1.332 . S
C456 H436 0.931 . S
C456 C455 1.332 . S
C456 C457 1.267 . S
C457 H425 0.929 . S
C457 C456 1.267 . S
C457 C458 1.251 1_565 S
C458 H428 0.929 . S
C458 N454 1.418 . S
C458 C457 1.251 1_545 S
C459 H426 0.930 . S
C459 C461 1.406 . S
C459 C464 1.261 . S
C460 H427 0.930 . S
C460 N462 1.325 . S
C460 C463 1.357 . S
C461 H429 0.928 . S
C461 C459 1.406 . S
C461 N462 1.261 . S
N462 Co413 2.214 . S
N462 C460 1.325 . S
N462 C461 1.261 . S
C463 H433 0.931 . S
C463 C460 1.357 . S
C463 C464 1.312 . S
C464 H435 0.930 . S
C464 C459 1.261 . S
C464 C463 1.312 . S
C465 O437 1.214 . S
C465 O445 1.234 . S
C466 H438 0.929 . S
C466 C469 1.391 . S
C466 C471 1.391 . S
C467 H439 0.929 . S
C467 C468 1.390 . S
C467 N470 1.391 . S
C468 H440 0.930 . S
C468 C467 1.390 . S
C468 C469 1.392 . S
C469 H441 0.929 . S
C469 C466 1.391 . S
C469 C468 1.392 . S
N470 Co414 2.257 . S
N470 C467 1.391 . S
N470 C471 1.388 . S
C471 H442 0.930 . S
C471 C466 1.391 . S
C471 N470 1.388 . S
Co472 O474 2.143 . S
Co472 O480 2.074 . S
Co472 O483 2.093 . S
Co472 O496 2.097 . S
Co472 N513 2.151 . S
Co472 N521 2.214 . S
Co473 O474 2.160 . S
Co473 O479 2.058 . S
Co473 O489 2.057 . S
Co473 O504 2.037 . S
Co473 N508 2.145 . S
Co473 N529 2.257 . S
O474 Co472 2.143 . S
O474 Co473 2.160 . S
C475 O476 1.278 . S
C475 O483 1.224 . S
O476 C475 1.278 . S
C477 O478 1.245 . S
C477 O489 1.232 . S
O478 C477 1.245 . S
O479 Co473 2.058 . S
O479 C505 1.269 . S
O480 Co472 2.074 . S
O480 C505 1.257 . S
H481 C506 0.930 . S
H482 C512 0.930 . S
O483 Co472 2.093 . S
O483 C475 1.224 . S
H484 C516 0.929 . S
H485 C518 0.930 . S
H486 C519 0.930 . S
H487 C517 0.929 . S
H488 C520 0.928 . S
O489 Co473 2.057 . S
O489 C477 1.232 . S
H490 C509 0.929 . S
H491 C510 0.929 . S
H492 C522 0.931 . S
H493 C514 0.929 . S
H494 C523 0.930 . S
H495 C515 0.931 . S
O496 Co472 2.097 . S
O496 C524 1.214 . S
H497 C525 0.929 . S
H498 C526 0.929 . S
H499 C527 0.930 . S
H500 C528 0.929 . S
H501 C530 0.930 . S
H502 C507 0.930 . S
H503 C511 0.930 . S
O504 Co473 2.037 . S
O504 C524 1.234 . S
C505 O479 1.269 . S
C505 O480 1.257 . S
C506 H481 0.930 . S
C506 C509 1.388 . S
C506 C511 1.418 . S
C507 H502 0.930 . S
C507 C510 1.404 . S
C507 C511 1.353 . S
N508 Co473 2.145 . S
N508 C509 1.397 . S
N508 C510 1.334 . S
C509 H490 0.929 . S
C509 C506 1.388 . S
C509 N508 1.397 . S
C510 H491 0.929 . S
C510 C507 1.404 . S
C510 N508 1.334 . S
C511 H503 0.930 . S
C511 C506 1.418 . S
C511 C507 1.353 . S
C512 H482 0.930 . S
C512 N513 1.330 . S
C512 C514 1.446 1_554 S
N513 Co472 2.151 . S
N513 C512 1.330 . S
N513 C517 1.418 . S
C514 H493 0.929 . S
C514 C512 1.446 1_556 S
C514 C515 1.332 . S
C515 H495 0.931 . S
C515 C514 1.332 . S
C515 C516 1.267 . S
C516 H484 0.929 . S
C516 C515 1.267 . S
C516 C517 1.251 1_556 S
C517 H487 0.929 . S
C517 N513 1.418 . S
C517 C516 1.251 1_554 S
C518 H485 0.930 . S
C518 C520 1.406 . S
C518 C523 1.261 . S
C519 H486 0.930 . S
C519 N521 1.325 . S
C519 C522 1.357 . S
C520 H488 0.928 . S
C520 C518 1.406 . S
C520 N521 1.261 . S
N521 Co472 2.214 . S
N521 C519 1.325 . S
N521 C520 1.261 . S
C522 H492 0.931 . S
C522 C519 1.357 . S
C522 C523 1.312 . S
C523 H494 0.930 . S
C523 C518 1.261 . S
C523 C522 1.312 . S
C524 O496 1.214 . S
C524 O504 1.234 . S
C525 H497 0.929 . S
C525 C528 1.391 . S
C525 C530 1.391 . S
C526 H498 0.929 . S
C526 C527 1.390 . S
C526 N529 1.391 . S
C527 H499 0.930 . S
C527 C526 1.390 . S
C527 C528 1.392 . S
C528 H500 0.929 . S
C528 C525 1.391 . S
C528 C527 1.392 . S
N529 Co473 2.257 . S
N529 C526 1.391 . S
N529 C530 1.388 . S
C530 H501 0.930 . S
C530 C525 1.391 . S
C530 N529 1.388 . S
Co531 O533 2.143 . S
Co531 O539 2.074 . S
Co531 O542 2.093 . S
Co531 O555 2.097 . S
Co531 N572 2.151 . S
Co531 N580 2.214 . S
Co532 O533 2.160 . S
Co532 O538 2.058 . S
Co532 O548 2.057 . S
Co532 O563 2.037 . S
Co532 N567 2.145 . S
Co532 N588 2.257 . S
O533 Co531 2.143 . S
O533 Co532 2.160 . S
C534 O535 1.278 . S
C534 O542 1.224 . S
O535 C534 1.278 . S
C536 O537 1.245 . S
C536 O548 1.232 . S
O537 C536 1.245 . S
O538 Co532 2.058 . S
O538 C564 1.269 . S
O539 Co531 2.074 . S
O539 C564 1.257 . S
H540 C565 0.930 . S
H541 C571 0.930 . S
O542 Co531 2.093 . S
O542 C534 1.224 . S
H543 C575 0.929 . S
H544 C577 0.930 . S
H545 C578 0.930 . S
H546 C576 0.929 . S
H547 C579 0.928 . S
O548 Co532 2.057 . S
O548 C536 1.232 . S
H549 C568 0.929 . S
H550 C569 0.929 . S
H551 C581 0.931 . S
H552 C573 0.929 . S
H553 C582 0.930 . S
H554 C574 0.931 . S
O555 Co531 2.097 . S
O555 C583 1.214 . S
H556 C584 0.929 . S
H557 C585 0.929 . S
H558 C586 0.930 . S
H559 C587 0.929 . S
H560 C589 0.930 . S
H561 C566 0.930 . S
H562 C570 0.930 . S
O563 Co532 2.037 . S
O563 C583 1.234 . S
C564 O538 1.269 . S
C564 O539 1.257 . S
C565 H540 0.930 . S
C565 C568 1.388 . S
C565 C570 1.418 . S
C566 H561 0.930 . S
C566 C569 1.404 . S
C566 C570 1.353 . S
N567 Co532 2.145 . S
N567 C568 1.397 . S
N567 C569 1.334 . S
C568 H549 0.929 . S
C568 C565 1.388 . S
C568 N567 1.397 . S
C569 H550 0.929 . S
C569 C566 1.404 . S
C569 N567 1.334 . S
C570 H562 0.930 . S
C570 C565 1.418 . S
C570 C566 1.353 . S
C571 H541 0.930 . S
C571 N572 1.330 . S
C571 C573 1.446 1_556 S
N572 Co531 2.151 . S
N572 C571 1.330 . S
N572 C576 1.418 . S
C573 H552 0.929 . S
C573 C571 1.446 1_554 S
C573 C574 1.332 . S
C574 H554 0.931 . S
C574 C573 1.332 . S
C574 C575 1.267 . S
C575 H543 0.929 . S
C575 C574 1.267 . S
C575 C576 1.251 1_554 S
C576 H546 0.929 . S
C576 N572 1.418 . S
C576 C575 1.251 1_556 S
C577 H544 0.930 . S
C577 C579 1.406 . S
C577 C582 1.261 . S
C578 H545 0.930 . S
C578 N580 1.325 . S
C578 C581 1.357 . S
C579 H547 0.928 . S
C579 C577 1.406 . S
C579 N580 1.261 . S
N580 Co531 2.214 . S
N580 C578 1.325 . S
N580 C579 1.261 . S
C581 H551 0.931 . S
C581 C578 1.357 . S
C581 C582 1.312 . S
C582 H553 0.930 . S
C582 C577 1.261 . S
C582 C581 1.312 . S
C583 O555 1.214 . S
C583 O563 1.234 . S
C584 H556 0.929 . S
C584 C587 1.391 . S
C584 C589 1.391 . S
C585 H557 0.929 . S
C585 C586 1.390 . S
C585 N588 1.391 . S
C586 H558 0.930 . S
C586 C585 1.390 . S
C586 C587 1.392 . S
C587 H559 0.929 . S
C587 C584 1.391 . S
C587 C586 1.392 . S
N588 Co532 2.257 . S
N588 C585 1.391 . S
N588 C589 1.388 . S
C589 H560 0.930 . S
C589 C584 1.391 . S
C589 N588 1.388 . S
Co590 O592 2.143 . S
Co590 O598 2.074 . S
Co590 O601 2.093 . S
Co590 O614 2.097 . S
Co590 N631 2.151 . S
Co590 N639 2.214 . S
Co591 O592 2.160 . S
Co591 O597 2.058 . S
Co591 O607 2.057 . S
Co591 O622 2.037 . S
Co591 N626 2.145 . S
Co591 N647 2.257 . S
O592 Co590 2.143 . S
O592 Co591 2.160 . S
C593 O594 1.278 . S
C593 O601 1.224 . S
O594 C593 1.278 . S
C595 O596 1.245 . S
C595 O607 1.232 . S
O596 C595 1.245 . S
O597 Co591 2.058 . S
O597 C623 1.269 . S
O598 Co590 2.074 . S
O598 C623 1.257 . S
H599 C624 0.930 . S
H600 C630 0.930 . S
O601 Co590 2.093 . S
O601 C593 1.224 . S
H602 C634 0.929 . S
H603 C636 0.930 . S
H604 C637 0.930 . S
H605 C635 0.929 . S
H606 C638 0.928 . S
O607 Co591 2.057 . S
O607 C595 1.232 . S
H608 C627 0.929 . S
H609 C628 0.929 . S
H610 C640 0.931 . S
H611 C632 0.929 . S
H612 C641 0.930 . S
H613 C633 0.931 . S
O614 Co590 2.097 . S
O614 C642 1.214 . S
H615 C643 0.929 . S
H616 C644 0.929 . S
H617 C645 0.930 . S
H618 C646 0.929 . S
H619 C648 0.930 . S
H620 C625 0.930 . S
H621 C629 0.930 . S
O622 Co591 2.037 . S
O622 C642 1.234 . S
C623 O597 1.269 . S
C623 O598 1.257 . S
C624 H599 0.930 . S
C624 C627 1.388 . S
C624 C629 1.418 . S
C625 H620 0.930 . S
C625 C628 1.404 . S
C625 C629 1.353 . S
N626 Co591 2.145 . S
N626 C627 1.397 . S
N626 C628 1.334 . S
C627 H608 0.929 . S
C627 C624 1.388 . S
C627 N626 1.397 . S
C628 H609 0.929 . S
C628 C625 1.404 . S
C628 N626 1.334 . S
C629 H621 0.930 . S
C629 C624 1.418 . S
C629 C625 1.353 . S
C630 H600 0.930 . S
C630 N631 1.330 . S
C630 C632 1.446 1_556 S
N631 Co590 2.151 . S
N631 C630 1.330 . S
N631 C635 1.418 . S
C632 H611 0.929 . S
C632 C630 1.446 1_554 S
C632 C633 1.332 . S
C633 H613 0.931 . S
C633 C632 1.332 . S
C633 C634 1.267 . S
C634 H602 0.929 . S
C634 C633 1.267 . S
C634 C635 1.251 1_554 S
C635 H605 0.929 . S
C635 N631 1.418 . S
C635 C634 1.251 1_556 S
C636 H603 0.930 . S
C636 C638 1.406 . S
C636 C641 1.261 . S
C637 H604 0.930 . S
C637 N639 1.325 . S
C637 C640 1.357 . S
C638 H606 0.928 . S
C638 C636 1.406 . S
C638 N639 1.261 . S
N639 Co590 2.214 . S
N639 C637 1.325 . S
N639 C638 1.261 . S
C640 H610 0.931 . S
C640 C637 1.357 . S
C640 C641 1.312 . S
C641 H612 0.930 . S
C641 C636 1.261 . S
C641 C640 1.312 . S
C642 O614 1.214 . S
C642 O622 1.234 . S
C643 H615 0.929 . S
C643 C646 1.391 . S
C643 C648 1.391 . S
C644 H616 0.929 . S
C644 C645 1.390 . S
C644 N647 1.391 . S
C645 H617 0.930 . S
C645 C644 1.390 . S
C645 C646 1.392 . S
C646 H618 0.929 . S
C646 C643 1.391 . S
C646 C645 1.392 . S
N647 Co591 2.257 . S
N647 C644 1.391 . S
N647 C648 1.388 . S
C648 H619 0.930 . S
C648 C643 1.391 . S
C648 N647 1.388 . S
Co649 O651 2.143 . S
Co649 O657 2.074 . S
Co649 O660 2.093 . S
Co649 O673 2.097 . S
Co649 N690 2.151 . S
Co649 N698 2.214 . S
Co650 O651 2.160 . S
Co650 O656 2.058 . S
Co650 O666 2.057 . S
Co650 O681 2.037 . S
Co650 N685 2.145 . S
Co650 N706 2.257 . S
O651 Co649 2.143 . S
O651 Co650 2.160 . S
C652 O653 1.278 . S
C652 O660 1.224 . S
O653 C652 1.278 . S
C654 O655 1.245 . S
C654 O666 1.232 . S
O655 C654 1.245 . S
O656 Co650 2.058 . S
O656 C682 1.269 . S
O657 Co649 2.074 . S
O657 C682 1.257 . S
H658 C683 0.930 . S
H659 C689 0.930 . S
O660 Co649 2.093 . S
O660 C652 1.224 . S
H661 C693 0.929 . S
H662 C695 0.930 . S
H663 C696 0.930 . S
H664 C694 0.929 . S
H665 C697 0.928 . S
O666 Co650 2.057 . S
O666 C654 1.232 . S
H667 C686 0.929 . S
H668 C687 0.929 . S
H669 C699 0.931 . S
H670 C691 0.929 . S
H671 C700 0.930 . S
H672 C692 0.931 . S
O673 Co649 2.097 . S
O673 C701 1.214 . S
H674 C702 0.929 . S
H675 C703 0.929 . S
H676 C704 0.930 . S
H677 C705 0.929 . S
H678 C707 0.930 . S
H679 C684 0.930 . S
H680 C688 0.930 . S
O681 Co650 2.037 . S
O681 C701 1.234 . S
C682 O656 1.269 . S
C682 O657 1.257 . S
C683 H658 0.930 . S
C683 C686 1.388 . S
C683 C688 1.418 . S
C684 H679 0.930 . S
C684 C687 1.404 . S
C684 C688 1.353 . S
N685 Co650 2.145 . S
N685 C686 1.397 . S
N685 C687 1.334 . S
C686 H667 0.929 . S
C686 C683 1.388 . S
C686 N685 1.397 . S
C687 H668 0.929 . S
C687 C684 1.404 . S
C687 N685 1.334 . S
C688 H680 0.930 . S
C688 C683 1.418 . S
C688 C684 1.353 . S
C689 H659 0.930 . S
C689 N690 1.330 . S
C689 C691 1.446 1_554 S
N690 Co649 2.151 . S
N690 C689 1.330 . S
N690 C694 1.418 . S
C691 H670 0.929 . S
C691 C689 1.446 1_556 S
C691 C692 1.332 . S
C692 H672 0.931 . S
C692 C691 1.332 . S
C692 C693 1.267 . S
C693 H661 0.929 . S
C693 C692 1.267 . S
C693 C694 1.251 1_556 S
C694 H664 0.929 . S
C694 N690 1.418 . S
C694 C693 1.251 1_554 S
C695 H662 0.930 . S
C695 C697 1.406 . S
C695 C700 1.261 . S
C696 H663 0.930 . S
C696 N698 1.325 . S
C696 C699 1.357 . S
C697 H665 0.928 . S
C697 C695 1.406 . S
C697 N698 1.261 . S
N698 Co649 2.214 . S
N698 C696 1.325 . S
N698 C697 1.261 . S
C699 H669 0.931 . S
C699 C696 1.357 . S
C699 C700 1.312 . S
C700 H671 0.930 . S
C700 C695 1.261 . S
C700 C699 1.312 . S
C701 O673 1.214 . S
C701 O681 1.234 . S
C702 H674 0.929 . S
C702 C705 1.391 . S
C702 C707 1.391 . S
C703 H675 0.929 . S
C703 C704 1.390 . S
C703 N706 1.391 . S
C704 H676 0.930 . S
C704 C703 1.390 . S
C704 C705 1.392 . S
C705 H677 0.929 . S
C705 C702 1.391 . S
C705 C704 1.392 . S
N706 Co650 2.257 . S
N706 C703 1.391 . S
N706 C707 1.388 . S
C707 H678 0.930 . S
C707 C702 1.391 . S
C707 N706 1.388 . S
H708 C716 0.950 . S
H709 C721 0.950 . S
H710 C718 0.950 . S
H711 C720 0.950 1_455 S
H712 C722 0.950 . S
H713 C724 0.950 . S
H714 C726 0.950 1_655 S
H715 C727 0.950 . S
C716 H708 0.950 . S
C716 C717 1.386 . S
C716 C718 1.391 . S
C717 C716 1.386 . S
C717 C721 1.393 . S
C718 H710 0.950 . S
C718 C716 1.391 . S
C718 C719 1.400 . S
C719 C718 1.400 . S
C719 C720 1.398 . S
C719 C725 1.491 1_655 S
C720 H711 0.950 1_655 S
C720 C719 1.398 . S
C720 C721 1.391 . S
C721 H709 0.950 . S
C721 C717 1.393 . S
C721 C720 1.391 . S
C722 H712 0.950 . S
C722 C723 1.386 . S
C722 C724 1.391 . S
C723 C722 1.386 . S
C723 C727 1.393 . S
C724 H713 0.950 . S
C724 C722 1.391 . S
C724 C725 1.400 . S
C725 C719 1.491 1_455 S
C725 C724 1.400 . S
C725 C726 1.398 . S
C726 H714 0.950 1_455 S
C726 C725 1.398 . S
C726 C727 1.391 . S
C727 H715 0.950 . S
C727 C723 1.393 . S
C727 C726 1.391 . S
H728 C736 0.950 . S
H729 C741 0.950 . S
H730 C738 0.987 . S
H731 C740 0.950 . S
H732 C742 0.950 . S
H733 C744 0.987 . S
H734 C746 0.950 . S
H735 C747 0.950 . S
C736 H728 0.950 . S
C736 C737 1.386 . S
C736 C738 1.369 1_455 S
C737 C736 1.386 . S
C737 C741 1.393 . S
C738 H730 0.987 . S
C738 C736 1.369 1_655 S
C738 C739 1.387 1_655 S
C739 C738 1.387 1_455 S
C739 C740 1.398 . S
C739 C745 1.491 1_455 S
C740 H731 0.950 . S
C740 C739 1.398 . S
C740 C741 1.391 . S
C741 H729 0.950 . S
C741 C737 1.393 . S
C741 C740 1.391 . S
C742 H732 0.950 . S
C742 C743 1.386 . S
C742 C744 1.369 1_655 S
C743 C742 1.386 . S
C743 C747 1.393 . S
C744 H733 0.987 . S
C744 C742 1.369 1_455 S
C744 C745 1.387 1_455 S
C745 C739 1.491 1_655 S
C745 C744 1.387 1_655 S
C745 C746 1.398 . S
C746 H734 0.950 . S
C746 C745 1.398 . S
C746 C747 1.391 . S
C747 H735 0.950 . S
C747 C743 1.393 . S
C747 C746 1.391 . S
H748 C756 0.950 . S
H749 C761 0.950 . S
H750 C758 0.950 . S
H751 C760 0.987 . S
H752 C762 0.950 . S
H753 C764 0.950 . S
H754 C766 0.987 . S
H755 C767 0.950 . S
C756 H748 0.950 . S
C756 C757 1.386 . S
C756 C758 1.391 . S
C757 C756 1.386 . S
C757 C761 1.393 . S
C758 H750 0.950 . S
C758 C756 1.391 . S
C758 C759 1.400 . S
C759 C758 1.400 . S
C759 C760 1.386 1_565 S
C759 C765 1.491 1_565 S
C760 H751 0.987 . S
C760 C759 1.386 1_545 S
C760 C761 1.368 1_545 S
C761 H749 0.950 . S
C761 C757 1.393 . S
C761 C760 1.368 1_565 S
C762 H752 0.950 . S
C762 C763 1.386 . S
C762 C764 1.391 . S
C763 C762 1.386 . S
C763 C767 1.393 . S
C764 H753 0.950 . S
C764 C762 1.391 . S
C764 C765 1.400 . S
C765 C759 1.491 1_545 S
C765 C764 1.400 . S
C765 C766 1.386 1_545 S
C766 H754 0.987 . S
C766 C765 1.386 1_565 S
C766 C767 1.368 1_565 S
C767 H755 0.950 . S
C767 C763 1.393 . S
C767 C766 1.368 1_545 S
H768 C776 0.950 . S
H769 C781 0.950 . S
H770 C778 0.950 . S
H771 C780 0.950 1_545 S
H772 C782 0.950 . S
H773 C784 0.950 . S
H774 C786 0.950 1_565 S
H775 C787 0.950 . S
C776 H768 0.950 . S
C776 C777 1.386 . S
C776 C778 1.391 . S
C777 C776 1.386 . S
C777 C781 1.393 . S
C778 H770 0.950 . S
C778 C776 1.391 . S
C778 C779 1.400 . S
C779 C778 1.400 . S
C779 C780 1.398 . S
C779 C785 1.491 1_565 S
C780 H771 0.950 1_565 S
C780 C779 1.398 . S
C780 C781 1.391 . S
C781 H769 0.950 . S
C781 C777 1.393 . S
C781 C780 1.391 . S
C782 H772 0.950 . S
C782 C783 1.386 . S
C782 C784 1.391 . S
C783 C782 1.386 . S
C783 C787 1.393 . S
C784 H773 0.950 . S
C784 C782 1.391 . S
C784 C785 1.400 . S
C785 C779 1.491 1_545 S
C785 C784 1.400 . S
C785 C786 1.398 . S
C786 H774 0.950 1_545 S
C786 C785 1.398 . S
C786 C787 1.391 . S
C787 H775 0.950 . S
C787 C783 1.393 . S
C787 C786 1.391 . S
H788 C796 0.950 . S
H789 C801 0.950 . S
H790 C798 0.950 . S
H791 C800 0.950 . S
H792 C802 0.950 . S
H793 C804 0.950 . S
H794 C806 0.950 . S
H795 C807 0.950 . S
C796 H788 0.950 . S
C796 C797 1.386 . S
C796 C798 1.391 . S
C797 C796 1.386 . S
C797 C801 1.393 . S
C798 H790 0.950 . S
C798 C796 1.391 . S
C798 C799 1.400 . S
C799 C798 1.400 . S
C799 C800 1.398 . S
C799 C805 1.491 1_556 S
C800 H791 0.950 . S
C800 C799 1.398 . S
C800 C801 1.391 . S
C801 H789 0.950 . S
C801 C797 1.393 . S
C801 C800 1.391 . S
C802 H792 0.950 . S
C802 C803 1.386 . S
C802 C804 1.391 . S
C803 C802 1.386 . S
C803 C807 1.393 . S
C804 H793 0.950 . S
C804 C802 1.391 . S
C804 C805 1.400 . S
C805 C799 1.491 1_554 S
C805 C804 1.400 . S
C805 C806 1.398 . S
C806 H794 0.950 . S
C806 C805 1.398 . S
C806 C807 1.391 . S
C807 H795 0.950 . S
C807 C803 1.393 . S
C807 C806 1.391 . S
H808 C816 0.950 . S
H809 C821 0.950 . S
H810 C818 0.950 . S
H811 C820 0.950 . S
H812 C822 0.950 . S
H813 C824 0.950 . S
H814 C826 0.950 . S
H815 C827 0.950 . S
C816 H808 0.950 . S
C816 C817 1.386 . S
C816 C818 1.391 . S
C817 C816 1.386 . S
C817 C821 1.393 . S
C818 H810 0.950 . S
C818 C816 1.391 . S
C818 C819 1.400 . S
C819 C818 1.400 . S
C819 C820 1.398 . S
C819 C825 1.491 1_556 S
C820 H811 0.950 . S
C820 C819 1.398 . S
C820 C821 1.391 . S
C821 H809 0.950 . S
C821 C817 1.393 . S
C821 C820 1.391 . S
C822 H812 0.950 . S
C822 C823 1.386 . S
C822 C824 1.391 . S
C823 C822 1.386 . S
C823 C827 1.393 . S
C824 H813 0.950 . S
C824 C822 1.391 . S
C824 C825 1.400 . S
C825 C819 1.491 1_554 S
C825 C824 1.400 . S
C825 C826 1.398 . S
C826 H814 0.950 . S
C826 C825 1.398 . S
C826 C827 1.391 . S
C827 H815 0.950 . S
C827 C823 1.393 . S
C827 C826 1.391 . S
H828 C836 0.950 . S
H829 C841 0.950 . S
H830 C838 0.950 . S
H831 C840 0.950 . S
H832 C842 0.950 . S
H833 C844 0.950 . S
H834 C846 0.950 . S
H835 C847 0.950 . S
C836 H828 0.950 . S
C836 C837 1.386 . S
C836 C838 1.391 . S
C837 C836 1.386 . S
C837 C841 1.393 . S
C838 H830 0.950 . S
C838 C836 1.391 . S
C838 C839 1.400 . S
C839 C838 1.400 . S
C839 C840 1.398 . S
C839 C845 1.491 . S
C840 H831 0.950 . S
C840 C839 1.398 . S
C840 C841 1.391 . S
C841 H829 0.950 . S
C841 C837 1.393 . S
C841 C840 1.391 . S
C842 H832 0.950 . S
C842 C843 1.386 . S
C842 C844 1.391 . S
C843 C842 1.386 . S
C843 C847 1.393 . S
C844 H833 0.950 . S
C844 C842 1.391 . S
C844 C845 1.400 . S
C845 C839 1.491 . S
C845 C844 1.400 . S
C845 C846 1.398 . S
C846 H834 0.950 . S
C846 C845 1.398 . S
C846 C847 1.391 . S
C847 H835 0.950 . S
C847 C843 1.393 . S
C847 C846 1.391 . S
H848 C856 0.950 . S
H849 C861 0.950 . S
H850 C858 0.950 . S
H851 C860 0.950 . S
H852 C862 0.950 . S
H853 C864 0.950 . S
H854 C866 0.950 . S
H855 C867 0.950 . S
C856 H848 0.950 . S
C856 C857 1.386 . S
C856 C858 1.391 . S
C857 C856 1.386 . S
C857 C861 1.393 . S
C858 H850 0.950 . S
C858 C856 1.391 . S
C858 C859 1.400 . S
C859 C858 1.400 . S
C859 C860 1.398 . S
C859 C865 1.491 . S
C860 H851 0.950 . S
C860 C859 1.398 . S
C860 C861 1.391 . S
C861 H849 0.950 . S
C861 C857 1.393 . S
C861 C860 1.391 . S
C862 H852 0.950 . S
C862 C863 1.386 . S
C862 C864 1.391 . S
C863 C862 1.386 . S
C863 C867 1.393 . S
C864 H853 0.950 . S
C864 C862 1.391 . S
C864 C865 1.400 . S
C865 C859 1.491 . S
C865 C864 1.400 . S
C865 C866 1.398 . S
C866 H854 0.950 . S
C866 C865 1.398 . S
C866 C867 1.391 . S
C867 H855 0.950 . S
C867 C863 1.393 . S
C867 C866 1.391 . S
H868 C876 0.950 . S
H869 C881 0.950 . S
H870 C878 0.950 . S
H871 C880 0.950 . S
H872 C882 0.950 . S
H873 C884 0.950 . S
H874 C886 0.950 . S
H875 C887 0.950 . S
C876 H868 0.950 . S
C876 C877 1.386 . S
C876 C878 1.391 . S
C877 C876 1.386 . S
C877 C881 1.393 . S
C878 H870 0.950 . S
C878 C876 1.391 . S
C878 C879 1.400 . S
C879 C878 1.400 . S
C879 C880 1.398 . S
C879 C885 1.491 . S
C880 H871 0.950 . S
C880 C879 1.398 . S
C880 C881 1.391 . S
C881 H869 0.950 . S
C881 C877 1.393 . S
C881 C880 1.391 . S
C882 H872 0.950 . S
C882 C883 1.386 . S
C882 C884 1.391 . S
C883 C882 1.386 . S
C883 C887 1.393 . S
C884 H873 0.950 . S
C884 C882 1.391 . S
C884 C885 1.400 . S
C885 C879 1.491 . S
C885 C884 1.400 . S
C885 C886 1.398 . S
C886 H874 0.950 . S
C886 C885 1.398 . S
C886 C887 1.391 . S
C887 H875 0.950 . S
C887 C883 1.393 . S
C887 C886 1.391 . S
H888 C896 0.950 . S
H889 C901 0.950 . S
H890 C898 0.950 . S
H891 C900 0.950 . S
H892 C902 0.950 . S
H893 C904 0.950 . S
H894 C906 0.950 . S
H895 C907 0.950 . S
C896 H888 0.950 . S
C896 C897 1.386 . S
C896 C898 1.391 . S
C897 C896 1.386 . S
C897 C901 1.393 . S
C898 H890 0.950 . S
C898 C896 1.391 . S
C898 C899 1.400 . S
C899 C898 1.400 . S
C899 C900 1.398 . S
C899 C905 1.491 . S
C900 H891 0.950 . S
C900 C899 1.398 . S
C900 C901 1.391 . S
C901 H889 0.950 . S
C901 C897 1.393 . S
C901 C900 1.391 . S
C902 H892 0.950 . S
C902 C903 1.386 . S
C902 C904 1.391 . S
C903 C902 1.386 . S
C903 C907 1.393 . S
C904 H893 0.950 . S
C904 C902 1.391 . S
C904 C905 1.400 . S
C905 C899 1.491 . S
C905 C904 1.400 . S
C905 C906 1.398 . S
C906 H894 0.950 . S
C906 C905 1.398 . S
C906 C907 1.391 . S
C907 H895 0.950 . S
C907 C903 1.393 . S
C907 C906 1.391 . S
H908 C916 0.950 . S
H909 C921 0.950 . S
H910 C918 0.950 . S
H911 C920 0.950 . S
H912 C922 0.950 . S
H913 C924 0.950 . S
H914 C926 0.950 . S
H915 C927 0.950 . S
C916 H908 0.950 . S
C916 C917 1.386 . S
C916 C918 1.391 . S
C917 C916 1.386 . S
C917 C921 1.393 . S
C918 H910 0.950 . S
C918 C916 1.391 . S
C918 C919 1.400 . S
C919 C918 1.400 . S
C919 C920 1.398 . S
C919 C925 1.491 . S
C920 H911 0.950 . S
C920 C919 1.398 . S
C920 C921 1.391 . S
C921 H909 0.950 . S
C921 C917 1.393 . S
C921 C920 1.391 . S
C922 H912 0.950 . S
C922 C923 1.386 . S
C922 C924 1.391 . S
C923 C922 1.386 . S
C923 C927 1.393 . S
C924 H913 0.950 . S
C924 C922 1.391 . S
C924 C925 1.400 . S
C925 C919 1.491 . S
C925 C924 1.400 . S
C925 C926 1.398 . S
C926 H914 0.950 . S
C926 C925 1.398 . S
C926 C927 1.391 . S
C927 H915 0.950 . S
C927 C923 1.393 . S
C927 C926 1.391 . S
H928 C936 0.950 . S
H929 C941 0.950 . S
H930 C938 0.950 . S
H931 C940 0.950 . S
H932 C942 0.950 . S
H933 C944 0.950 . S
H934 C946 0.950 . S
H935 C947 0.950 . S
C936 H928 0.950 . S
C936 C937 1.386 . S
C936 C938 1.391 . S
C937 C936 1.386 . S
C937 C941 1.393 . S
C938 H930 0.950 . S
C938 C936 1.391 . S
C938 C939 1.400 . S
C939 C938 1.400 . S
C939 C940 1.398 . S
C939 C945 1.491 . S
C940 H931 0.950 . S
C940 C939 1.398 . S
C940 C941 1.391 . S
C941 H929 0.950 . S
C941 C937 1.393 . S
C941 C940 1.391 . S
C942 H932 0.950 . S
C942 C943 1.386 . S
C942 C944 1.391 . S
C943 C942 1.386 . S
C943 C947 1.393 . S
C944 H933 0.950 . S
C944 C942 1.391 . S
C944 C945 1.400 . S
C945 C939 1.491 . S
C945 C944 1.400 . S
C945 C946 1.398 . S
C946 H934 0.950 . S
C946 C945 1.398 . S
C946 C947 1.391 . S
C947 H935 0.950 . S
C947 C943 1.393 . S
C947 C946 1.391 . S
H948 C956 0.950 . S
H949 C961 0.950 . S
H950 C958 0.950 . S
H951 C960 0.950 . S
H952 C962 0.950 . S
H953 C964 0.950 . S
H954 C966 0.950 . S
H955 C967 0.950 . S
C956 H948 0.950 . S
C956 C957 1.386 . S
C956 C958 1.391 . S
C957 C956 1.386 . S
C957 C961 1.393 . S
C958 H950 0.950 . S
C958 C956 1.391 . S
C958 C959 1.400 . S
C959 C958 1.400 . S
C959 C960 1.398 . S
C959 C965 1.491 . S
C960 H951 0.950 . S
C960 C959 1.398 . S
C960 C961 1.391 . S
C961 H949 0.950 . S
C961 C957 1.393 . S
C961 C960 1.391 . S
C962 H952 0.950 . S
C962 C963 1.386 . S
C962 C964 1.391 . S
C963 C962 1.386 . S
C963 C967 1.393 . S
C964 H953 0.950 . S
C964 C962 1.391 . S
C964 C965 1.400 . S
C965 C959 1.491 . S
C965 C964 1.400 . S
C965 C966 1.398 . S
C966 H954 0.950 . S
C966 C965 1.398 . S
C966 C967 1.391 . S
C967 H955 0.950 . S
C967 C963 1.393 . S
C967 C966 1.391 . S
H968 C976 0.950 . S
H969 C981 0.950 . S
H970 C978 0.950 . S
H971 C980 0.950 . S
H972 C982 0.950 . S
H973 C984 0.950 . S
H974 C986 0.950 . S
H975 C987 0.950 . S
C976 H968 0.950 . S
C976 C977 1.386 . S
C976 C978 1.391 . S
C977 C976 1.386 . S
C977 C981 1.393 . S
C978 H970 0.950 . S
C978 C976 1.391 . S
C978 C979 1.400 . S
C979 C978 1.400 . S
C979 C980 1.398 . S
C979 C985 1.491 . S
C980 H971 0.950 . S
C980 C979 1.398 . S
C980 C981 1.391 . S
C981 H969 0.950 . S
C981 C977 1.393 . S
C981 C980 1.391 . S
C982 H972 0.950 . S
C982 C983 1.386 . S
C982 C984 1.391 . S
C983 C982 1.386 . S
C983 C987 1.393 . S
C984 H973 0.950 . S
C984 C982 1.391 . S
C984 C985 1.400 . S
C985 C979 1.491 . S
C985 C984 1.400 . S
C985 C986 1.398 . S
C986 H974 0.950 . S
C986 C985 1.398 . S
C986 C987 1.391 . S
C987 H975 0.950 . S
C987 C983 1.393 . S
C987 C986 1.391 . S
H988 C996 0.950 . S
H989 C1001 0.950 . S
H990 C998 0.950 . S
H991 C1000 0.950 . S
H992 C1002 0.950 . S
H993 C1004 0.950 . S
H994 C1006 0.950 . S
H995 C1007 0.950 . S
C996 H988 0.950 . S
C996 C997 1.386 . S
C996 C998 1.391 . S
C997 C996 1.386 . S
C997 C1001 1.393 . S
C998 H990 0.950 . S
C998 C996 1.391 . S
C998 C999 1.400 . S
C999 C998 1.400 . S
C999 C1000 1.398 . S
C999 C1005 1.491 . S
C1000 H991 0.950 . S
C1000 C999 1.398 . S
C1000 C1001 1.391 . S
C1001 H989 0.950 . S
C1001 C997 1.393 . S
C1001 C1000 1.391 . S
C1002 H992 0.950 . S
C1002 C1003 1.386 . S
C1002 C1004 1.391 . S
C1003 C1002 1.386 . S
C1003 C1007 1.393 . S
C1004 H993 0.950 . S
C1004 C1002 1.391 . S
C1004 C1005 1.400 . S
C1005 C999 1.491 . S
C1005 C1004 1.400 . S
C1005 C1006 1.398 . S
C1006 H994 0.950 . S
C1006 C1005 1.398 . S
C1006 C1007 1.391 . S
C1007 H995 0.950 . S
C1007 C1003 1.393 . S
C1007 C1006 1.391 . S
H1008 C1016 0.950 . S
H1009 C1021 0.950 . S
H1010 C1018 0.950 . S
H1011 C1020 0.950 . S
H1012 C1022 0.950 . S
H1013 C1024 0.950 . S
H1014 C1026 0.950 . S
H1015 C1027 0.950 . S
C1016 H1008 0.950 . S
C1016 C1017 1.386 . S
C1016 C1018 1.391 . S
C1017 C1016 1.386 . S
C1017 C1021 1.393 . S
C1018 H1010 0.950 . S
C1018 C1016 1.391 . S
C1018 C1019 1.400 . S
C1019 C1018 1.400 . S
C1019 C1020 1.398 . S
C1019 C1025 1.491 . S
C1020 H1011 0.950 . S
C1020 C1019 1.398 . S
C1020 C1021 1.391 . S
C1021 H1009 0.950 . S
C1021 C1017 1.393 . S
C1021 C1020 1.391 . S
C1022 H1012 0.950 . S
C1022 C1023 1.386 . S
C1022 C1024 1.391 . S
C1023 C1022 1.386 . S
C1023 C1027 1.393 . S
C1024 H1013 0.950 . S
C1024 C1022 1.391 . S
C1024 C1025 1.400 . S
C1025 C1019 1.491 . S
C1025 C1024 1.400 . S
C1025 C1026 1.398 . S
C1026 H1014 0.950 . S
C1026 C1025 1.398 . S
C1026 C1027 1.391 . S
C1027 H1015 0.950 . S
C1027 C1023 1.393 . S
C1027 C1026 1.391 . S
H1028 C1036 0.950 . S
H1029 C1041 0.950 . S
H1030 C1038 0.950 . S
H1031 C1040 0.950 . S
H1032 C1042 0.950 . S
H1033 C1044 0.950 . S
H1034 C1046 0.950 . S
H1035 C1047 0.950 . S
C1036 H1028 0.950 . S
C1036 C1037 1.386 . S
C1036 C1038 1.391 . S
C1037 C1036 1.386 . S
C1037 C1041 1.393 . S
C1038 H1030 0.950 . S
C1038 C1036 1.391 . S
C1038 C1039 1.400 . S
C1039 C1038 1.400 . S
C1039 C1040 1.398 . S
C1039 C1045 1.491 . S
C1040 H1031 0.950 . S
C1040 C1039 1.398 . S
C1040 C1041 1.391 . S
C1041 H1029 0.950 . S
C1041 C1037 1.393 . S
C1041 C1040 1.391 . S
C1042 H1032 0.950 . S
C1042 C1043 1.386 . S
C1042 C1044 1.391 . S
C1043 C1042 1.386 . S
C1043 C1047 1.393 . S
C1044 H1033 0.950 . S
C1044 C1042 1.391 . S
C1044 C1045 1.400 . S
C1045 C1039 1.491 . S
C1045 C1044 1.400 . S
C1045 C1046 1.398 . S
C1046 H1034 0.950 . S
C1046 C1045 1.398 . S
C1046 C1047 1.391 . S
C1047 H1035 0.950 . S
C1047 C1043 1.393 . S
C1047 C1046 1.391 . S
H1048 C1056 0.950 . S
H1049 C1061 0.950 . S
H1050 C1058 0.950 . S
H1051 C1060 0.950 . S
H1052 C1062 0.950 . S
H1053 C1064 0.950 . S
H1054 C1066 0.950 . S
H1055 C1067 0.950 . S
C1056 H1048 0.950 . S
C1056 C1057 1.386 . S
C1056 C1058 1.391 . S
C1057 C1056 1.386 . S
C1057 C1061 1.393 . S
C1058 H1050 0.950 . S
C1058 C1056 1.391 . S
C1058 C1059 1.400 . S
C1059 C1058 1.400 . S
C1059 C1060 1.398 . S
C1059 C1065 1.491 . S
C1060 H1051 0.950 . S
C1060 C1059 1.398 . S
C1060 C1061 1.391 . S
C1061 H1049 0.950 . S
C1061 C1057 1.393 . S
C1061 C1060 1.391 . S
C1062 H1052 0.950 . S
C1062 C1063 1.386 . S
C1062 C1064 1.391 . S
C1063 C1062 1.386 . S
C1063 C1067 1.393 . S
C1064 H1053 0.950 . S
C1064 C1062 1.391 . S
C1064 C1065 1.400 . S
C1065 C1059 1.491 . S
C1065 C1064 1.400 . S
C1065 C1066 1.398 . S
C1066 H1054 0.950 . S
C1066 C1065 1.398 . S
C1066 C1067 1.391 . S
C1067 H1055 0.950 . S
C1067 C1063 1.393 . S
C1067 C1066 1.391 . S
H1068 C1076 0.950 . S
H1069 C1081 0.950 . S
H1070 C1078 0.950 1_655 S
H1071 C1080 0.950 . S
H1072 C1082 0.950 . S
H1073 C1084 0.950 1_455 S
H1074 C1086 0.950 . S
H1075 C1087 0.950 . S
C1076 H1068 0.950 . S
C1076 C1077 1.386 . S
C1076 C1078 1.391 . S
C1077 C1076 1.386 . S
C1077 C1081 1.393 . S
C1078 H1070 0.950 1_455 S
C1078 C1076 1.391 . S
C1078 C1079 1.400 . S
C1079 C1078 1.400 . S
C1079 C1080 1.398 . S
C1079 C1085 1.491 1_445 S
C1080 H1071 0.950 . S
C1080 C1079 1.398 . S
C1080 C1081 1.391 . S
C1081 H1069 0.950 . S
C1081 C1077 1.393 . S
C1081 C1080 1.391 . S
C1082 H1072 0.950 . S
C1082 C1083 1.386 . S
C1082 C1084 1.391 . S
C1083 C1082 1.386 . S
C1083 C1087 1.393 . S
C1084 H1073 0.950 1_655 S
C1084 C1082 1.391 . S
C1084 C1085 1.400 . S
C1085 C1079 1.491 1_665 S
C1085 C1084 1.400 . S
C1085 C1086 1.398 . S
C1086 H1074 0.950 . S
C1086 C1085 1.398 . S
C1086 C1087 1.391 . S
C1087 H1075 0.950 . S
C1087 C1083 1.393 . S
C1087 C1086 1.391 . S
H1088 C1096 0.950 . S
H1089 C1101 0.950 . S
H1090 C1098 0.964 . S
H1091 C1100 0.950 . S
H1092 C1102 0.950 . S
H1093 C1104 0.964 . S
H1094 C1106 0.950 . S
H1095 C1107 0.950 . S
C1096 H1088 0.950 . S
C1096 C1097 1.386 . S
C1096 C1098 1.383 1_655 S
C1097 C1096 1.386 . S
C1097 C1101 1.393 . S
C1098 H1090 0.964 . S
C1098 C1096 1.383 1_455 S
C1098 C1099 1.396 1_455 S
C1099 C1098 1.396 1_655 S
C1099 C1100 1.398 . S
C1099 C1105 1.491 1_645 S
C1100 H1091 0.950 . S
C1100 C1099 1.398 . S
C1100 C1101 1.391 . S
C1101 H1089 0.950 . S
C1101 C1097 1.393 . S
C1101 C1100 1.391 . S
C1102 H1092 0.950 . S
C1102 C1103 1.386 . S
C1102 C1104 1.383 1_455 S
C1103 C1102 1.386 . S
C1103 C1107 1.393 . S
C1104 H1093 0.964 . S
C1104 C1102 1.383 1_655 S
C1104 C1105 1.396 1_655 S
C1105 C1099 1.491 1_465 S
C1105 C1104 1.396 1_455 S
C1105 C1106 1.398 . S
C1106 H1094 0.950 . S
C1106 C1105 1.398 . S
C1106 C1107 1.391 . S
C1107 H1095 0.950 . S
C1107 C1103 1.393 . S
C1107 C1106 1.391 . S
H1108 C1116 0.950 . S
H1109 C1121 0.950 . S
H1110 C1118 0.950 . S
H1111 C1120 0.950 . S
H1112 C1122 0.950 . S
H1113 C1124 0.950 . S
H1114 C1126 0.950 . S
H1115 C1127 0.950 . S
C1116 H1108 0.950 . S
C1116 C1117 1.386 . S
C1116 C1118 1.391 . S
C1117 C1116 1.386 . S
C1117 C1121 1.393 . S
C1118 H1110 0.950 . S
C1118 C1116 1.391 . S
C1118 C1119 1.400 . S
C1119 C1118 1.400 . S
C1119 C1120 1.398 . S
C1119 C1125 1.491 1_566 S
C1120 H1111 0.950 . S
C1120 C1119 1.398 . S
C1120 C1121 1.391 . S
C1121 H1109 0.950 . S
C1121 C1117 1.393 . S
C1121 C1120 1.391 . S
C1122 H1112 0.950 . S
C1122 C1123 1.386 . S
C1122 C1124 1.391 . S
C1123 C1122 1.386 . S
C1123 C1127 1.393 . S
C1124 H1113 0.950 . S
C1124 C1122 1.391 . S
C1124 C1125 1.400 . S
C1125 C1119 1.491 1_544 S
C1125 C1124 1.400 . S
C1125 C1126 1.398 . S
C1126 H1114 0.950 . S
C1126 C1125 1.398 . S
C1126 C1127 1.391 . S
C1127 H1115 0.950 . S
C1127 C1123 1.393 . S
C1127 C1126 1.391 . S
H1128 C1136 0.950 . S
H1129 C1141 0.950 . S
H1130 C1138 0.950 1_545 S
H1131 C1140 0.950 . S
H1132 C1142 0.950 . S
H1133 C1144 0.950 1_565 S
H1134 C1146 0.950 . S
H1135 C1147 0.950 . S
C1136 H1128 0.950 . S
C1136 C1137 1.386 . S
C1136 C1138 1.391 . S
C1137 C1136 1.386 . S
C1137 C1141 1.393 . S
C1138 H1130 0.950 1_565 S
C1138 C1136 1.391 . S
C1138 C1139 1.400 . S
C1139 C1138 1.400 . S
C1139 C1140 1.398 . S
C1139 C1145 1.491 1_564 S
C1140 H1131 0.950 . S
C1140 C1139 1.398 . S
C1140 C1141 1.391 . S
C1141 H1129 0.950 . S
C1141 C1137 1.393 . S
C1141 C1140 1.391 . S
C1142 H1132 0.950 . S
C1142 C1143 1.386 . S
C1142 C1144 1.391 . S
C1143 C1142 1.386 . S
C1143 C1147 1.393 . S
C1144 H1133 0.950 1_545 S
C1144 C1142 1.391 . S
C1144 C1145 1.400 . S
C1145 C1139 1.491 1_546 S
C1145 C1144 1.400 . S
C1145 C1146 1.398 . S
C1146 H1134 0.950 . S
C1146 C1145 1.398 . S
C1146 C1147 1.391 . S
C1147 H1135 0.950 . S
C1147 C1143 1.393 . S
C1147 C1146 1.391 . S
H1148 C1156 0.950 . S
H1149 C1161 0.950 1_554 S
H1150 C1158 0.950 1_455 S
H1151 C1160 0.950 . S
H1152 C1162 0.950 . S
H1153 C1164 0.950 1_655 S
H1154 C1166 0.950 . S
H1155 C1167 0.950 1_556 S
C1156 H1148 0.950 . S
C1156 C1157 1.386 . S
C1156 C1158 1.391 . S
C1157 C1156 1.386 . S
C1157 C1161 1.393 . S
C1158 H1150 0.950 1_655 S
C1158 C1156 1.391 . S
C1158 C1159 1.400 . S
C1159 C1158 1.400 . S
C1159 C1160 1.398 1_556 S
C1159 C1165 1.491 1_656 S
C1160 H1151 0.950 . S
C1160 C1159 1.398 1_554 S
C1160 C1161 1.391 1_554 S
C1161 H1149 0.950 1_556 S
C1161 C1157 1.393 . S
C1161 C1160 1.391 1_556 S
C1162 H1152 0.950 . S
C1162 C1163 1.386 . S
C1162 C1164 1.391 . S
C1163 C1162 1.386 . S
C1163 C1167 1.393 . S
C1164 H1153 0.950 1_455 S
C1164 C1162 1.391 . S
C1164 C1165 1.400 . S
C1165 C1159 1.491 1_454 S
C1165 C1164 1.400 . S
C1165 C1166 1.398 1_554 S
C1166 H1154 0.950 . S
C1166 C1165 1.398 1_556 S
C1166 C1167 1.391 1_556 S
C1167 H1155 0.950 1_554 S
C1167 C1163 1.393 . S
C1167 C1166 1.391 1_554 S
H1168 C1176 0.950 . S
H1169 C1181 0.950 . S
H1170 C1178 0.950 . S
H1171 C1180 0.950 . S
H1172 C1182 0.950 . S
H1173 C1184 0.950 . S
H1174 C1186 0.950 . S
H1175 C1187 0.950 . S
C1176 H1168 0.950 . S
C1176 C1177 1.386 . S
C1176 C1178 1.391 . S
C1177 C1176 1.386 . S
C1177 C1181 1.393 . S
C1178 H1170 0.950 . S
C1178 C1176 1.391 . S
C1178 C1179 1.400 . S
C1179 C1178 1.400 . S
C1179 C1180 1.398 1_556 S
C1179 C1185 1.491 1_456 S
C1180 H1171 0.950 . S
C1180 C1179 1.398 1_554 S
C1180 C1181 1.391 1_554 S
C1181 H1169 0.950 . S
C1181 C1177 1.393 . S
C1181 C1180 1.391 1_556 S
C1182 H1172 0.950 . S
C1182 C1183 1.386 . S
C1182 C1184 1.391 . S
C1183 C1182 1.386 . S
C1183 C1187 1.393 . S
C1184 H1173 0.950 . S
C1184 C1182 1.391 . S
C1184 C1185 1.400 . S
C1185 C1179 1.491 1_654 S
C1185 C1184 1.400 . S
C1185 C1186 1.398 1_554 S
C1186 H1174 0.950 . S
C1186 C1185 1.398 1_556 S
C1186 C1187 1.391 1_556 S
C1187 H1175 0.950 . S
C1187 C1183 1.393 . S
C1187 C1186 1.391 1_554 S
C717 C182 0.941 . S
C723 C5 0.955 . S
C737 C123 0.970 . S
C743 C64 0.948 . S
C757 C300 0.940 . S
C763 C241 0.961 . S
C777 C359 0.941 . S
C783 C418 0.957 . S
C797 C536 0.965 . S
C803 C477 0.963 . S
C817 C595 0.962 . S
C823 C654 0.966 . S
C837 C52 1.186 . S
C843 C446 1.129 . S
C857 C387 1.144 . S
C863 C111 1.191 . S
C877 C328 1.157 . S
C883 C170 1.190 . S
C897 C269 1.128 . S
C903 C229 1.187 . S
C917 C288 1.190 . S
C923 C682 1.133 . S
C937 C505 1.152 . S
C943 C347 1.183 . S
C957 C623 1.139 . S
C963 C406 1.183 . S
C977 C465 1.185 . S
C983 C564 1.129 . S
C997 C151 1.163 . S
C1003 C524 1.187 . S
C1017 C33 1.159 . S
C1023 C583 1.184 . S
C1037 C642 1.185 . S
C1043 C92 1.160 . S
C1057 C210 1.150 . S
C1063 C701 1.183 . S
C1077 C3 1.280 . S
C1083 C62 1.276 . S
C1097 C180 1.280 . S
C1103 C121 1.276 . S
C1117 C357 1.279 . S
C1123 C239 1.279 . S
C1137 C298 1.274 . S
C1143 C416 1.271 . S
C1157 C593 1.273 . S
C1163 C475 1.279 . S
C1177 C534 1.277 . S
C1183 C652 1.280 . S
