# Generated by pormake.
# Topology ukp, (4)-cn, num edge types: 1
# Building blocks:
#     Node 0, Type 0, BuildingBlock: ESEHIV_clean_sbu_0, # of connection points: 4
#     Node 1, Type 0, BuildingBlock: ESEHIV_clean_sbu_0, # of connection points: 4
#     Node 2, Type 0, BuildingBlock: ESEHIV_clean_sbu_0, # of connection points: 4
#     Node 3, Type 0, BuildingBlock: ESEHIV_clean_sbu_0, # of connection points: 4
#     Node 4, Type 0, BuildingBlock: ESEHIV_clean_sbu_0, # of connection points: 4
#     Node 5, Type 0, BuildingBlock: ESEHIV_clean_sbu_0, # of connection points: 4
#     Node 6, Type 0, BuildingBlock: ESEHIV_clean_sbu_0, # of connection points: 4
#     Node 7, Type 0, BuildingBlock: ESEHIV_clean_sbu_0, # of connection points: 4
#     Node 8, Type 0, BuildingBlock: ESEHIV_clean_sbu_0, # of connection points: 4
#     Node 9, Type 0, BuildingBlock: ESEHIV_clean_sbu_0, # of connection points: 4
#     Node 10, Type 0, BuildingBlock: ESEHIV_clean_sbu_0, # of connection points: 4
#     Node 11, Type 0, BuildingBlock: ESEHIV_clean_sbu_0, # of connection points: 4
#     Node 12, Type 0, BuildingBlock: ESEHIV_clean_sbu_0, # of connection points: 4
#     Node 13, Type 0, BuildingBlock: ESEHIV_clean_sbu_0, # of connection points: 4
#     Node 14, Type 0, BuildingBlock: ESEHIV_clean_sbu_0, # of connection points: 4
#     Node 15, Type 0, BuildingBlock: ESEHIV_clean_sbu_0, # of connection points: 4
#     Node 16, Type 0, BuildingBlock: ESEHIV_clean_sbu_0, # of connection points: 4
#     Node 17, Type 0, BuildingBlock: ESEHIV_clean_sbu_0, # of connection points: 4
#     Node 18, Type 0, BuildingBlock: ESEHIV_clean_sbu_0, # of connection points: 4
#     Node 19, Type 0, BuildingBlock: ESEHIV_clean_sbu_0, # of connection points: 4
#     Node 20, Type 0, BuildingBlock: ESEHIV_clean_sbu_0, # of connection points: 4
#     Node 21, Type 0, BuildingBlock: ESEHIV_clean_sbu_0, # of connection points: 4
#     Node 22, Type 0, BuildingBlock: ESEHIV_clean_sbu_0, # of connection points: 4
#     Node 23, Type 0, BuildingBlock: ESEHIV_clean_sbu_0, # of connection points: 4
#     Node 24, Type 0, BuildingBlock: ESEHIV_clean_sbu_0, # of connection points: 4
#     Node 25, Type 0, BuildingBlock: ESEHIV_clean_sbu_0, # of connection points: 4
#     Node 26, Type 0, BuildingBlock: ESEHIV_clean_sbu_0, # of connection points: 4
#     Node 27, Type 0, BuildingBlock: ESEHIV_clean_sbu_0, # of connection points: 4
#     Node 28, Type 0, BuildingBlock: ESEHIV_clean_sbu_0, # of connection points: 4
#     Node 29, Type 0, BuildingBlock: ESEHIV_clean_sbu_0, # of connection points: 4
#     Node 30, Type 0, BuildingBlock: ESEHIV_clean_sbu_0, # of connection points: 4
#     Node 31, Type 0, BuildingBlock: ESEHIV_clean_sbu_0, # of connection points: 4
#     Node 32, Type 0, BuildingBlock: ESEHIV_clean_sbu_0, # of connection points: 4
#     Node 33, Type 0, BuildingBlock: ESEHIV_clean_sbu_0, # of connection points: 4
#     Node 34, Type 0, BuildingBlock: ESEHIV_clean_sbu_0, # of connection points: 4
#     Node 35, Type 0, BuildingBlock: ESEHIV_clean_sbu_0, # of connection points: 4
#     Node 36, Type 0, BuildingBlock: ESEHIV_clean_sbu_0, # of connection points: 4
#     Node 37, Type 0, BuildingBlock: ESEHIV_clean_sbu_0, # of connection points: 4
#     Node 38, Type 0, BuildingBlock: ESEHIV_clean_sbu_0, # of connection points: 4
#     Node 39, Type 0, BuildingBlock: ESEHIV_clean_sbu_0, # of connection points: 4
#     Node 40, Type 0, BuildingBlock: ESEHIV_clean_sbu_0, # of connection points: 4
#     Node 41, Type 0, BuildingBlock: ESEHIV_clean_sbu_0, # of connection points: 4
#     Node 42, Type 0, BuildingBlock: ESEHIV_clean_sbu_0, # of connection points: 4
#     Node 43, Type 0, BuildingBlock: ESEHIV_clean_sbu_0, # of connection points: 4
#     Node 44, Type 0, BuildingBlock: ESEHIV_clean_sbu_0, # of connection points: 4
#     Node 45, Type 0, BuildingBlock: ESEHIV_clean_sbu_0, # of connection points: 4
#     Node 46, Type 0, BuildingBlock: ESEHIV_clean_sbu_0, # of connection points: 4
#     Node 47, Type 0, BuildingBlock: ESEHIV_clean_sbu_0, # of connection points: 4
#     Edge 48, Type (0, 0), BuildingBlock: UVAHIK_clean_linker_0, # of connection points: 2
#     Edge 49, Type (0, 0), BuildingBlock: UVAHIK_clean_linker_0, # of connection points: 2
#     Edge 50, Type (0, 0), BuildingBlock: UVAHIK_clean_linker_0, # of connection points: 2
#     Edge 51, Type (0, 0), BuildingBlock: UVAHIK_clean_linker_0, # of connection points: 2
#     Edge 52, Type (0, 0), BuildingBlock: UVAHIK_clean_linker_0, # of connection points: 2
#     Edge 53, Type (0, 0), BuildingBlock: UVAHIK_clean_linker_0, # of connection points: 2
#     Edge 54, Type (0, 0), BuildingBlock: UVAHIK_clean_linker_0, # of connection points: 2
#     Edge 55, Type (0, 0), BuildingBlock: UVAHIK_clean_linker_0, # of connection points: 2
#     Edge 56, Type (0, 0), BuildingBlock: UVAHIK_clean_linker_0, # of connection points: 2
#     Edge 57, Type (0, 0), BuildingBlock: UVAHIK_clean_linker_0, # of connection points: 2
#     Edge 58, Type (0, 0), BuildingBlock: UVAHIK_clean_linker_0, # of connection points: 2
#     Edge 59, Type (0, 0), BuildingBlock: UVAHIK_clean_linker_0, # of connection points: 2
#     Edge 60, Type (0, 0), BuildingBlock: UVAHIK_clean_linker_0, # of connection points: 2
#     Edge 61, Type (0, 0), BuildingBlock: UVAHIK_clean_linker_0, # of connection points: 2
#     Edge 62, Type (0, 0), BuildingBlock: UVAHIK_clean_linker_0, # of connection points: 2
#     Edge 63, Type (0, 0), BuildingBlock: UVAHIK_clean_linker_0, # of connection points: 2
#     Edge 64, Type (0, 0), BuildingBlock: UVAHIK_clean_linker_0, # of connection points: 2
#     Edge 65, Type (0, 0), BuildingBlock: UVAHIK_clean_linker_0, # of connection points: 2
#     Edge 66, Type (0, 0), BuildingBlock: UVAHIK_clean_linker_0, # of connection points: 2
#     Edge 67, Type (0, 0), BuildingBlock: UVAHIK_clean_linker_0, # of connection points: 2
#     Edge 68, Type (0, 0), BuildingBlock: UVAHIK_clean_linker_0, # of connection points: 2
#     Edge 69, Type (0, 0), BuildingBlock: UVAHIK_clean_linker_0, # of connection points: 2
#     Edge 70, Type (0, 0), BuildingBlock: UVAHIK_clean_linker_0, # of connection points: 2
#     Edge 71, Type (0, 0), BuildingBlock: UVAHIK_clean_linker_0, # of connection points: 2
#     Edge 72, Type (0, 0), BuildingBlock: UVAHIK_clean_linker_0, # of connection points: 2
#     Edge 73, Type (0, 0), BuildingBlock: UVAHIK_clean_linker_0, # of connection points: 2
#     Edge 74, Type (0, 0), BuildingBlock: UVAHIK_clean_linker_0, # of connection points: 2
#     Edge 75, Type (0, 0), BuildingBlock: UVAHIK_clean_linker_0, # of connection points: 2
#     Edge 76, Type (0, 0), BuildingBlock: UVAHIK_clean_linker_0, # of connection points: 2
#     Edge 77, Type (0, 0), BuildingBlock: UVAHIK_clean_linker_0, # of connection points: 2
#     Edge 78, Type (0, 0), BuildingBlock: UVAHIK_clean_linker_0, # of connection points: 2
#     Edge 79, Type (0, 0), BuildingBlock: UVAHIK_clean_linker_0, # of connection points: 2
#     Edge 80, Type (0, 0), BuildingBlock: UVAHIK_clean_linker_0, # of connection points: 2
#     Edge 81, Type (0, 0), BuildingBlock: UVAHIK_clean_linker_0, # of connection points: 2
#     Edge 82, Type (0, 0), BuildingBlock: UVAHIK_clean_linker_0, # of connection points: 2
#     Edge 83, Type (0, 0), BuildingBlock: UVAHIK_clean_linker_0, # of connection points: 2
#     Edge 84, Type (0, 0), BuildingBlock: UVAHIK_clean_linker_0, # of connection points: 2
#     Edge 85, Type (0, 0), BuildingBlock: UVAHIK_clean_linker_0, # of connection points: 2
#     Edge 86, Type (0, 0), BuildingBlock: UVAHIK_clean_linker_0, # of connection points: 2
#     Edge 87, Type (0, 0), BuildingBlock: UVAHIK_clean_linker_0, # of connection points: 2
#     Edge 88, Type (0, 0), BuildingBlock: UVAHIK_clean_linker_0, # of connection points: 2
#     Edge 89, Type (0, 0), BuildingBlock: UVAHIK_clean_linker_0, # of connection points: 2
#     Edge 90, Type (0, 0), BuildingBlock: UVAHIK_clean_linker_0, # of connection points: 2
#     Edge 91, Type (0, 0), BuildingBlock: UVAHIK_clean_linker_0, # of connection points: 2
#     Edge 92, Type (0, 0), BuildingBlock: UVAHIK_clean_linker_0, # of connection points: 2
#     Edge 93, Type (0, 0), BuildingBlock: UVAHIK_clean_linker_0, # of connection points: 2
#     Edge 94, Type (0, 0), BuildingBlock: UVAHIK_clean_linker_0, # of connection points: 2
#     Edge 95, Type (0, 0), BuildingBlock: UVAHIK_clean_linker_0, # of connection points: 2
#     Edge 96, Type (0, 0), BuildingBlock: UVAHIK_clean_linker_0, # of connection points: 2
#     Edge 97, Type (0, 0), BuildingBlock: UVAHIK_clean_linker_0, # of connection points: 2
#     Edge 98, Type (0, 0), BuildingBlock: UVAHIK_clean_linker_0, # of connection points: 2
#     Edge 99, Type (0, 0), BuildingBlock: UVAHIK_clean_linker_0, # of connection points: 2
#     Edge 100, Type (0, 0), BuildingBlock: UVAHIK_clean_linker_0, # of connection points: 2
#     Edge 101, Type (0, 0), BuildingBlock: UVAHIK_clean_linker_0, # of connection points: 2
#     Edge 102, Type (0, 0), BuildingBlock: UVAHIK_clean_linker_0, # of connection points: 2
#     Edge 103, Type (0, 0), BuildingBlock: UVAHIK_clean_linker_0, # of connection points: 2
#     Edge 104, Type (0, 0), BuildingBlock: UVAHIK_clean_linker_0, # of connection points: 2
#     Edge 105, Type (0, 0), BuildingBlock: UVAHIK_clean_linker_0, # of connection points: 2
#     Edge 106, Type (0, 0), BuildingBlock: UVAHIK_clean_linker_0, # of connection points: 2
#     Edge 107, Type (0, 0), BuildingBlock: UVAHIK_clean_linker_0, # of connection points: 2
#     Edge 108, Type (0, 0), BuildingBlock: UVAHIK_clean_linker_0, # of connection points: 2
#     Edge 109, Type (0, 0), BuildingBlock: UVAHIK_clean_linker_0, # of connection points: 2
#     Edge 110, Type (0, 0), BuildingBlock: UVAHIK_clean_linker_0, # of connection points: 2
#     Edge 111, Type (0, 0), BuildingBlock: UVAHIK_clean_linker_0, # of connection points: 2
#     Edge 112, Type (0, 0), BuildingBlock: UVAHIK_clean_linker_0, # of connection points: 2
#     Edge 113, Type (0, 0), BuildingBlock: UVAHIK_clean_linker_0, # of connection points: 2
#     Edge 114, Type (0, 0), BuildingBlock: UVAHIK_clean_linker_0, # of connection points: 2
#     Edge 115, Type (0, 0), BuildingBlock: UVAHIK_clean_linker_0, # of connection points: 2
#     Edge 116, Type (0, 0), BuildingBlock: UVAHIK_clean_linker_0, # of connection points: 2
#     Edge 117, Type (0, 0), BuildingBlock: UVAHIK_clean_linker_0, # of connection points: 2
#     Edge 118, Type (0, 0), BuildingBlock: UVAHIK_clean_linker_0, # of connection points: 2
#     Edge 119, Type (0, 0), BuildingBlock: UVAHIK_clean_linker_0, # of connection points: 2
#     Edge 120, Type (0, 0), BuildingBlock: UVAHIK_clean_linker_0, # of connection points: 2
#     Edge 121, Type (0, 0), BuildingBlock: UVAHIK_clean_linker_0, # of connection points: 2
#     Edge 122, Type (0, 0), BuildingBlock: UVAHIK_clean_linker_0, # of connection points: 2
#     Edge 123, Type (0, 0), BuildingBlock: UVAHIK_clean_linker_0, # of connection points: 2
#     Edge 124, Type (0, 0), BuildingBlock: UVAHIK_clean_linker_0, # of connection points: 2
#     Edge 125, Type (0, 0), BuildingBlock: UVAHIK_clean_linker_0, # of connection points: 2
#     Edge 126, Type (0, 0), BuildingBlock: UVAHIK_clean_linker_0, # of connection points: 2
#     Edge 127, Type (0, 0), BuildingBlock: UVAHIK_clean_linker_0, # of connection points: 2
#     Edge 128, Type (0, 0), BuildingBlock: UVAHIK_clean_linker_0, # of connection points: 2
#     Edge 129, Type (0, 0), BuildingBlock: UVAHIK_clean_linker_0, # of connection points: 2
#     Edge 130, Type (0, 0), BuildingBlock: UVAHIK_clean_linker_0, # of connection points: 2
#     Edge 131, Type (0, 0), BuildingBlock: UVAHIK_clean_linker_0, # of connection points: 2
#     Edge 132, Type (0, 0), BuildingBlock: UVAHIK_clean_linker_0, # of connection points: 2
#     Edge 133, Type (0, 0), BuildingBlock: UVAHIK_clean_linker_0, # of connection points: 2
#     Edge 134, Type (0, 0), BuildingBlock: UVAHIK_clean_linker_0, # of connection points: 2
#     Edge 135, Type (0, 0), BuildingBlock: UVAHIK_clean_linker_0, # of connection points: 2
#     Edge 136, Type (0, 0), BuildingBlock: UVAHIK_clean_linker_0, # of connection points: 2
#     Edge 137, Type (0, 0), BuildingBlock: UVAHIK_clean_linker_0, # of connection points: 2
#     Edge 138, Type (0, 0), BuildingBlock: UVAHIK_clean_linker_0, # of connection points: 2
#     Edge 139, Type (0, 0), BuildingBlock: UVAHIK_clean_linker_0, # of connection points: 2
#     Edge 140, Type (0, 0), BuildingBlock: UVAHIK_clean_linker_0, # of connection points: 2
#     Edge 141, Type (0, 0), BuildingBlock: UVAHIK_clean_linker_0, # of connection points: 2
#     Edge 142, Type (0, 0), BuildingBlock: UVAHIK_clean_linker_0, # of connection points: 2
#     Edge 143, Type (0, 0), BuildingBlock: UVAHIK_clean_linker_0, # of connection points: 2
# Relax obj value: 0.117
# Max RMSD: 0.159
# Mean RMSD: 0.159
data_MOF--net-ukp--node1-ESEHIV_clean_sbu_0--edge1-UVAHIK_clean_linker_0
_symmetry_space_group_name_H-M    P1
_symmetry_Int_Tables_number       1
_symmetry_cell_setting            triclinic
loop_
_symmetry_equiv_pos_as_xyz
'x, y, z'
_cell_length_a     88.629765
_cell_length_b     88.657306
_cell_length_c     88.629126
_cell_angle_alpha  89.948768
_cell_angle_beta   90.032211
_cell_angle_gamma 89.960216
loop_
_atom_site_label
_atom_site_type_symbol
_atom_site_fract_x
_atom_site_fract_y
_atom_site_fract_z
_atom_type_partial_charge
Cu0 Cu 0.19617 0.28577 0.38493 0.0
N1 N 0.19279 0.29263 0.36533 0.0
N2 N 0.19718 0.30488 0.34368 0.0
C3 C 0.20249 0.3013 0.35753 0.0
C4 C 0.18351 0.29816 0.34283 0.0
C5 C 0.18082 0.29065 0.35621 0.0
O6 O 0.21666 0.27789 0.38451 0.0
C7 C 0.19569 0.30501 0.41165 0.0
O8 O 0.1988 0.29316 0.41999 0.0
H9 H 0.21313 0.3051 0.36214 0.0
H10 H 0.17084 0.28426 0.3591 0.0
N11 N 0.18229 0.27051 0.38964 0.0
N12 N 0.16681 0.25453 0.40171 0.0
C13 C 0.17502 0.2674 0.40268 0.0
C14 C 0.1786 0.25926 0.38018 0.0
C15 C 0.16912 0.24945 0.38752 0.0
C16 C 0.2205 0.26472 0.38877 0.0
O17 O 0.21067 0.25624 0.3959 0.0
H18 H 0.17587 0.27434 0.41266 0.0
H19 H 0.18293 0.25805 0.36884 0.0
O20 O 0.19422 0.30359 0.39745 0.0
H21 H 0.17599 0.29852 0.33322 0.0
H22 H 0.16474 0.23907 0.38285 0.0
Cu23 Cu 0.97831 0.94535 0.6351 0.0
N24 N 0.96838 0.94024 0.61723 0.0
N25 N 0.9548 0.94313 0.59611 0.0
C26 C 0.96348 0.94997 0.60663 0.0
C27 C 0.95438 0.92846 0.60027 0.0
C28 C 0.96267 0.92675 0.61332 0.0
O29 O 0.98931 0.96395 0.63134 0.0
C30 C 0.95189 0.95689 0.64786 0.0
O31 O 0.95264 0.96592 0.63612 0.0
H32 H 0.96555 0.96198 0.60717 0.0
H33 H 0.96392 0.91651 0.61985 0.0
N34 N 0.99153 0.92987 0.64088 0.0
N35 N 1.00707 0.91533 0.65449 0.0
C36 C 0.99855 0.928 0.65427 0.0
C37 C 0.99589 0.9181 0.63235 0.0
C38 C 1.0054 0.9091 0.64071 0.0
C39 C 1.00104 0.96339 0.62309 0.0
O40 O 1.00571 0.9502 0.61819 0.0
H41 H 0.99728 0.93566 0.66368 0.0
H42 H 0.99252 0.91625 0.62078 0.0
O43 O 0.96266 0.9477 0.65024 0.0
H44 H 0.94825 0.91961 0.59455 0.0
H45 H 0.0109 0.8989 0.63685 0.0
Cu46 Cu 0.31933 0.73078 0.88465 0.0
N47 N 0.32395 0.72163 0.86626 0.0
N48 N 0.32046 0.70842 0.84505 0.0
C49 C 0.31389 0.71465 0.85729 0.0
C50 C 0.33528 0.71177 0.84632 0.0
C51 C 0.3374 0.71988 0.85946 0.0
O52 O 0.29915 0.73891 0.88214 0.0
C53 C 0.31159 0.70385 0.89922 0.0
O54 O 0.30107 0.7036 0.88878 0.0
H55 H 0.30194 0.71419 0.85974 0.0
H56 H 0.34801 0.724 0.86386 0.0
N57 N 0.33298 0.74635 0.88876 0.0
N58 N 0.34662 0.76371 0.90096 0.0
C59 C 0.33842 0.75091 0.90223 0.0
C60 C 0.33801 0.7565 0.87867 0.0
C61 C 0.3464 0.76722 0.88614 0.0
C62 C 0.29465 0.75152 0.88729 0.0
O63 O 0.30348 0.75926 0.89632 0.0
H64 H 0.3358 0.7454 0.91282 0.0
H65 H 0.33533 0.75636 0.86676 0.0
O66 O 0.32029 0.71524 0.90004 0.0
H67 H 0.34401 0.70827 0.83854 0.0
H68 H 0.35172 0.77698 0.8811 0.0
Cu69 Cu 0.5338 0.06787 0.13649 0.0
N70 N 0.54296 0.07184 0.11796 0.0
N71 N 0.5562 0.06792 0.09684 0.0
C72 C 0.55032 0.06166 0.10944 0.0
C73 C 0.55233 0.08265 0.0975 0.0
C74 C 0.54422 0.08504 0.11058 0.0
O75 O 0.52534 0.04767 0.13478 0.0
C76 C 0.55977 0.0595 0.15315 0.0
O77 O 0.55896 0.047 0.14525 0.0
H78 H 0.55128 0.04986 0.11244 0.0
H79 H 0.53973 0.09568 0.11452 0.0
N80 N 0.5187 0.08215 0.14042 0.0
N81 N 0.50245 0.09724 0.15256 0.0
C82 C 0.51406 0.08739 0.15394 0.0
C83 C 0.50974 0.08885 0.13016 0.0
C84 C 0.49976 0.09816 0.13758 0.0
C85 C 0.51169 0.04428 0.1377 0.0
O86 O 0.50284 0.05443 0.14387 0.0
H87 H 0.51907 0.08397 0.16454 0.0
H88 H 0.51026 0.08687 0.11813 0.0
O89 O 0.54951 0.06943 0.15164 0.0
H90 H 0.55542 0.09116 0.08931 0.0
H91 H 0.49091 0.10475 0.13234 0.0
Cu92 Cu 0.19587 0.72891 0.13042 0.0
N93 N 0.19112 0.71944 0.14862 0.0
N94 N 0.19424 0.70606 0.16983 0.0
C95 C 0.20108 0.71272 0.15793 0.0
C96 C 0.17936 0.70877 0.16785 0.0
C97 C 0.17748 0.71698 0.15475 0.0
O98 O 0.21599 0.73726 0.1332 0.0
C99 C 0.20483 0.70267 0.11522 0.0
O100 O 0.21623 0.70341 0.12467 0.0
H101 H 0.21307 0.71238 0.15571 0.0
H102 H 0.1669 0.72071 0.14993 0.0
N103 N 0.18177 0.74415 0.12634 0.0
N104 N 0.1678 0.76164 0.11453 0.0
C105 C 0.17764 0.75006 0.1129 0.0
C106 C 0.17425 0.75218 0.13677 0.0
C107 C 0.16563 0.76291 0.12956 0.0
C108 C 0.21987 0.75068 0.1299 0.0
O109 O 0.21036 0.75947 0.12268 0.0
H110 H 0.18219 0.74628 0.10222 0.0
H111 H 0.17518 0.75051 0.14882 0.0
O112 O 0.19518 0.71331 0.11511 0.0
H113 H 0.17041 0.70511 0.1753 0.0
H114 H 0.15835 0.77104 0.13503 0.0
Cu115 Cu 0.53784 0.94454 0.37883 0.0
N116 N 0.54835 0.94092 0.39668 0.0
N117 N 0.5618 0.9455 0.41752 0.0
C118 C 0.5528 0.95141 0.40671 0.0
C119 C 0.563 0.9307 0.41414 0.0
C120 C 0.5547 0.92792 0.40127 0.0
O121 O 0.52788 0.964 0.38127 0.0
C122 C 0.56315 0.95461 0.36254 0.0
O123 O 0.56252 0.96596 0.37204 0.0
H124 H 0.55009 0.96327 0.40566 0.0
H125 H 0.55374 0.91728 0.39538 0.0
N126 N 0.52403 0.92894 0.37537 0.0
N127 N 0.50792 0.91309 0.36408 0.0
C128 C 0.51742 0.92491 0.36226 0.0
C129 C 0.51853 0.91941 0.38581 0.0
C130 C 0.50863 0.90964 0.37891 0.0
C131 C 0.51367 0.96546 0.38288 0.0
O132 O 0.50493 0.95362 0.38135 0.0
H133 H 0.5196 0.93051 0.35163 0.0
H134 H 0.52141 0.91966 0.39767 0.0
O135 O 0.55287 0.94461 0.36295 0.0
H136 H 0.56957 0.92251 0.42039 0.0
H137 H 0.5022 0.90089 0.38449 0.0
Cu138 Cu 0.321 0.28572 0.63137 0.0
N139 N 0.32634 0.29568 0.64913 0.0
N140 N 0.32385 0.30935 0.67021 0.0
C141 C 0.31666 0.30159 0.65923 0.0
C142 C 0.33868 0.30814 0.66687 0.0
C143 C 0.34017 0.29975 0.65385 0.0
O144 O 0.3013 0.27677 0.63511 0.0
C145 C 0.31186 0.31242 0.61721 0.0
O146 O 0.3024 0.3128 0.62861 0.0
H147 H 0.30454 0.30072 0.65812 0.0
H148 H 0.35056 0.29712 0.64802 0.0
N149 N 0.33553 0.27104 0.62681 0.0
N150 N 0.3497 0.25405 0.61455 0.0
C151 C 0.33881 0.26471 0.61334 0.0
C152 C 0.34467 0.26423 0.63682 0.0
C153 C 0.35342 0.25382 0.62934 0.0
C154 C 0.29808 0.26291 0.63323 0.0
O155 O 0.30807 0.25388 0.62707 0.0
H156 H 0.333 0.26759 0.60299 0.0
H157 H 0.34485 0.26658 0.64879 0.0
O158 O 0.32039 0.30097 0.61567 0.0
H159 H 0.34784 0.31308 0.67324 0.0
H160 H 0.36189 0.24668 0.63448 0.0
Cu161 Cu 0.97913 0.07059 0.88212 0.0
N162 N 0.97162 0.07383 0.90155 0.0
N163 N 0.95954 0.06909 0.92321 0.0
C164 C 0.96602 0.06314 0.91077 0.0
C165 C 0.96124 0.08416 0.92179 0.0
C166 C 0.9686 0.08705 0.90837 0.0
O167 O 0.99037 0.0518 0.88273 0.0
C168 C 0.9602 0.068 0.85522 0.0
O169 O 0.97238 0.06574 0.84709 0.0
H170 H 0.96636 0.05124 0.9082 0.0
H171 H 0.97097 0.09803 0.90362 0.0
N172 N 0.99235 0.08625 0.87684 0.0
N173 N 1.00766 0.10168 0.86387 0.0
C174 C 0.99699 0.09077 0.86304 0.0
C175 C 1.00041 0.0945 0.88668 0.0
C176 C 0.00977 0.10401 0.87878 0.0
C177 C 0.98415 0.03888 0.8833 0.0
O178 O 0.96945 0.03786 0.88169 0.0
H179 H 0.99281 0.08599 0.85264 0.0
H180 H 0.99989 0.0933 0.89881 0.0
O181 O 0.96131 0.06996 0.86938 0.0
H182 H 0.95684 0.09254 0.92949 0.0
H183 H 0.01794 0.11161 0.88372 0.0
Cu184 Cu 0.38284 0.19592 0.28735 0.0
N185 N 0.36371 0.19172 0.29529 0.0
N186 N 0.34198 0.1946 0.30787 0.0
C187 C 0.35421 0.20153 0.30197 0.0
C188 C 0.34386 0.17982 0.30469 0.0
C189 C 0.35727 0.17809 0.29699 0.0
O190 O 0.38204 0.21576 0.27793 0.0
C191 C 0.40683 0.20253 0.30914 0.0
O192 O 0.4093 0.21543 0.30229 0.0
H193 H 0.35649 0.21343 0.30306 0.0
H194 H 0.36219 0.16758 0.29324 0.0
N195 N 0.38734 0.18185 0.27226 0.0
N196 N 0.39972 0.16705 0.25593 0.0
C197 C 0.40095 0.17685 0.2676 0.0
C198 C 0.37721 0.17512 0.2632 0.0
C199 C 0.38477 0.16599 0.25319 0.0
C200 C 0.37999 0.22823 0.28473 0.0
O201 O 0.38012 0.22857 0.29954 0.0
H202 H 0.4115 0.18034 0.27265 0.0
H203 H 0.36516 0.17695 0.26369 0.0
O204 O 0.39688 0.19352 0.30405 0.0
H205 H 0.33622 0.17085 0.30785 0.0
H206 H 0.37962 0.15941 0.24429 0.0
Cu207 Cu 0.06774 0.13565 0.53646 0.0
N208 N 0.07232 0.11647 0.54406 0.0
N209 N 0.0695 0.09373 0.55467 0.0
C210 C 0.06248 0.10572 0.54839 0.0
C211 C 0.08437 0.097 0.55407 0.0
C212 C 0.08606 0.11104 0.54758 0.0
O213 O 0.04853 0.13435 0.52589 0.0
C214 C 0.06347 0.14614 0.56628 0.0
O215 O 0.05784 0.1326 0.56826 0.0
H216 H 0.05038 0.10682 0.54726 0.0
H217 H 0.09653 0.11708 0.54595 0.0
N218 N 0.08227 0.14095 0.5221 0.0
N219 N 0.09574 0.15399 0.50521 0.0
C220 C 0.08629 0.1548 0.51717 0.0
C221 C 0.08947 0.13115 0.51303 0.0
C222 C 0.09776 0.13914 0.50262 0.0
C223 C 0.03573 0.13266 0.53215 0.0
O224 O 0.03474 0.13307 0.54692 0.0
H225 H 0.08179 0.1652 0.52172 0.0
H226 H 0.08831 0.11902 0.51361 0.0
O227 O 0.06791 0.15003 0.55316 0.0
H228 H 0.09334 0.09003 0.55857 0.0
H229 H 0.10452 0.1344 0.49361 0.0
Cu230 Cu 0.13353 0.82356 0.78695 0.0
N231 N 0.15167 0.8285 0.79653 0.0
N232 N 0.17321 0.82564 0.80942 0.0
C233 C 0.16262 0.81885 0.80079 0.0
C234 C 0.16879 0.8402 0.81037 0.0
C235 C 0.15549 0.8419 0.8025 0.0
O236 O 0.137 0.80559 0.77482 0.0
C237 C 0.12149 0.81572 0.81549 0.0
O238 O 0.13517 0.81054 0.81785 0.0
H239 H 0.16222 0.80689 0.79845 0.0
H240 H 0.14875 0.85204 0.80172 0.0
N241 N 0.12791 0.83937 0.7741 0.0
N242 N 0.1144 0.85462 0.75916 0.0
C243 C 0.11434 0.84194 0.76767 0.0
C244 C 0.13684 0.85068 0.76936 0.0
C245 C 0.12855 0.86013 0.76023 0.0
C246 C 0.13724 0.79223 0.78008 0.0
O247 O 0.1338 0.78996 0.7943 0.0
H248 H 0.1046 0.83476 0.76932 0.0
H249 H 0.14863 0.85192 0.77224 0.0
O250 O 0.11816 0.82112 0.80257 0.0
H251 H 0.17449 0.84898 0.81665 0.0
H252 H 0.13269 0.87012 0.75456 0.0
Cu253 Cu 0.44849 0.87994 0.03622 0.0
N254 N 0.44313 0.89822 0.04513 0.0
N255 N 0.44533 0.91969 0.05821 0.0
C256 C 0.45261 0.90766 0.05232 0.0
C257 C 0.43068 0.9177 0.05449 0.0
C258 C 0.42936 0.90445 0.04643 0.0
O259 O 0.46876 0.88296 0.02843 0.0
C260 C 0.45742 0.86565 0.06264 0.0
O261 O 0.46851 0.87538 0.06132 0.0
H262 H 0.46456 0.90549 0.0535 0.0
H263 H 0.41909 0.89962 0.04195 0.0
N264 N 0.43517 0.87576 0.02036 0.0
N265 N 0.42021 0.86428 1.0035 0.0
C266 C 0.42855 0.86267 0.01624 0.0
C267 C 0.43094 0.88592 0.00993 0.0
C268 C 0.42178 0.87893 0.99957 0.0
C269 C 0.47356 0.878 0.01585 0.0
O270 O 0.46499 0.86892 1.00787 0.0
H271 H 0.42991 0.85224 0.02243 0.0
H272 H 0.43456 0.89756 0.00975 0.0
O273 O 0.44769 0.86485 0.0521 0.0
H274 H 0.42153 0.92528 0.05732 0.0
H275 H 0.41703 0.88424 0.98965 0.0
Cu276 Cu 0.38349 0.81881 0.23057 0.0
N277 N 0.36524 0.82346 0.22104 0.0
N278 N 0.34381 0.82048 0.20795 0.0
C279 C 0.35501 0.81358 0.21569 0.0
C280 C 0.34716 0.83534 0.20853 0.0
C281 C 0.36039 0.83711 0.21652 0.0
O282 O 0.38094 0.79987 0.24129 0.0
C283 C 0.40585 0.82917 0.21037 0.0
O284 O 0.40428 0.84185 0.21785 0.0
H285 H 0.35612 0.80151 0.21693 0.0
H286 H 0.36631 0.84759 0.21854 0.0
N287 N 0.3882 0.83372 0.24483 0.0
N288 N 0.40036 0.84762 0.26208 0.0
C289 C 0.40147 0.83633 0.25186 0.0
C290 C 0.3784 0.84359 0.25088 0.0
C291 C 0.38584 0.85219 0.26144 0.0
C292 C 0.37968 0.78715 0.23478 0.0
O293 O 0.38131 0.78634 0.22007 0.0
H294 H 0.41161 0.82987 0.24973 0.0
H295 H 0.36657 0.84435 0.24797 0.0
O296 O 0.39849 0.81757 0.21456 0.0
H297 H 0.34068 0.84432 0.2034 0.0
H298 H 0.3809 0.86115 0.26809 0.0
Cu299 Cu 0.4431 0.13098 0.47929 0.0
N300 N 0.4399 0.11118 0.47269 0.0
N301 N 0.4441 0.08911 0.4611 0.0
C302 C 0.45024 0.10209 0.46625 0.0
C303 C 0.42927 0.09015 0.4645 0.0
C304 C 0.42672 0.10378 0.4715 0.0
O305 O 0.46251 0.13136 0.48943 0.0
C306 C 0.44698 0.15624 0.45834 0.0
O307 O 0.45382 0.16391 0.46901 0.0
H308 H 0.46191 0.10527 0.46475 0.0
H309 H 0.4159 0.1082 0.47498 0.0
N310 N 0.42812 0.13644 0.4932 0.0
N311 N 0.41277 0.14954 0.50842 0.0
C312 C 0.42348 0.1503 0.49754 0.0
C313 C 0.42029 0.12669 0.50181 0.0
C314 C 0.41077 0.13469 0.51107 0.0
C315 C 0.47515 0.13069 0.48267 0.0
O316 O 0.4755 0.13144 0.46787 0.0
H317 H 0.42792 0.16069 0.4929 0.0
H318 H 0.42169 0.11458 0.50166 0.0
O319 O 0.44203 0.14307 0.46108 0.0
H320 H 0.42075 0.08183 0.4619 0.0
H321 H 0.40334 0.12994 0.51952 0.0
Cu322 Cu 0.13257 0.197 0.73208 0.0
N323 N 0.15119 0.19209 0.72351 0.0
N324 N 0.1733 0.19482 0.7116 0.0
C325 C 0.16166 0.20188 0.7185 0.0
C326 C 0.17002 0.17996 0.71255 0.0
C327 C 0.15638 0.17833 0.71985 0.0
O328 O 0.13553 0.21548 0.74352 0.0
C329 C 0.1211 0.20494 0.70341 0.0
O330 O 0.13394 0.21224 0.70236 0.0
H331 H 0.16034 0.21399 0.71929 0.0
H332 H 0.15048 0.16787 0.72201 0.0
N333 N 0.12703 0.18185 0.74569 0.0
N334 N 0.11362 0.16676 0.76093 0.0
C335 C 0.1131 0.1776 0.75014 0.0
C336 C 0.13665 0.17353 0.75395 0.0
C337 C 0.12847 0.16423 0.76329 0.0
C338 C 0.13247 0.22888 0.73938 0.0
O339 O 0.12555 0.23118 0.72649 0.0
H340 H 0.10285 0.18247 0.74562 0.0
H341 H 0.14881 0.17443 0.75344 0.0
O342 O 0.11785 0.19828 0.71574 0.0
H343 H 0.17684 0.17085 0.70814 0.0
H344 H 0.13319 0.15657 0.77155 0.0
Cu345 Cu 0.07001 0.88156 0.9798 0.0
N346 N 0.07319 0.90011 0.97022 0.0
N347 N 0.06785 0.92139 0.95769 0.0
C348 C 0.0625 0.91037 0.96678 0.0
C349 C 0.08256 0.918 0.95555 0.0
C350 C 0.08578 0.90484 0.9632 0.0
O351 O 0.05245 0.88392 0.99276 0.0
C352 C 0.06097 0.86944 0.95173 0.0
O353 O 0.05393 0.88241 0.95045 0.0
H354 H 0.05087 0.90933 0.97031 0.0
H355 H 0.09634 0.89872 0.96302 0.0
N356 N 0.08665 0.87676 0.99194 0.0
N357 N 0.10269 0.86425 1.00699 0.0
C358 C 0.08986 0.86349 0.99871 0.0
C359 C 0.0977 0.88624 0.99618 0.0
C360 C 0.10761 0.87858 1.00539 0.0
C361 C 0.03882 0.88193 0.98872 0.0
O362 O 0.03592 0.87651 0.97526 0.0
H363 H 0.08294 0.85351 0.99755 0.0
H364 H 0.09838 0.89799 0.993 0.0
O365 O 0.06792 0.8664 0.96396 0.0
H366 H 0.09022 0.92407 0.94824 0.0
H367 H 0.11744 0.88335 0.01081 0.0
Cu368 Cu 0.28634 0.38728 0.19856 0.0
N369 N 0.29536 0.36841 0.1956 0.0
N370 N 0.30744 0.34686 0.20098 0.0
C371 C 0.29873 0.35817 0.20635 0.0
C372 C 0.30936 0.35001 0.18618 0.0
C373 C 0.30196 0.36331 0.18293 0.0
O374 O 0.27409 0.38601 0.21674 0.0
C375 C 0.31529 0.39912 0.20496 0.0
O376 O 0.31728 0.3859 0.21134 0.0
H377 H 0.2954 0.35938 0.21801 0.0
H378 H 0.30203 0.36927 0.17228 0.0
N379 N 0.27346 0.39151 0.18235 0.0
N380 N 0.25787 0.40342 0.16631 0.0
C381 C 0.26749 0.40489 0.17813 0.0
C382 C 0.26742 0.38126 0.17298 0.0
C383 C 0.25786 0.38851 0.16312 0.0
C384 C 0.27941 0.38541 0.23007 0.0
O385 O 0.29396 0.38724 0.23216 0.0
H386 H 0.27008 0.41541 0.18373 0.0
H387 H 0.26953 0.36925 0.17354 0.0
O388 O 0.30242 0.40235 0.19939 0.0
H389 H 0.31633 0.34366 0.17844 0.0
H390 H 0.25105 0.38305 0.15459 0.0
Cu391 Cu 0.78793 0.12907 0.81831 0.0
N392 N 0.7981 0.14713 0.82192 0.0
N393 N 0.81136 0.16807 0.81732 0.0
C394 C 0.80203 0.1575 0.81153 0.0
C395 C 0.81329 0.1642 0.83193 0.0
C396 C 0.80512 0.15127 0.83472 0.0
O397 O 0.77751 0.13133 0.79906 0.0
C398 C 0.81388 0.11418 0.80795 0.0
O399 O 0.81303 0.12432 0.79716 0.0
H400 H 0.79883 0.1568 0.79976 0.0
H401 H 0.80481 0.14496 0.84517 0.0
N402 N 0.77449 0.12509 0.83415 0.0
N403 N 0.75857 0.11345 0.84997 0.0
C404 C 0.76762 0.11198 0.83774 0.0
C405 C 0.7696 0.13516 0.84437 0.0
C406 C 0.75982 0.12805 0.85411 0.0
C407 C 0.76364 0.13504 0.79826 0.0
O408 O 0.7557 0.13612 0.81072 0.0
H409 H 0.76931 0.10159 0.83156 0.0
H410 H 0.7728 0.14692 0.84461 0.0
O411 O 0.80342 0.11361 0.81777 0.0
H412 H 0.82038 0.17009 0.83993 0.0
H413 H 0.75384 0.13337 0.86332 0.0
Cu414 Cu 0.13229 0.53444 0.06925 0.0
N415 N 0.11268 0.54088 0.07335 0.0
N416 N 0.09063 0.55282 0.07024 0.0
C417 C 0.10401 0.54908 0.06394 0.0
C418 C 0.09098 0.54668 0.0842 0.0
C419 C 0.1046 0.53937 0.0861 0.0
O420 O 0.13151 0.52692 0.04868 0.0
C421 C 0.1586 0.55449 0.07016 0.0
O422 O 0.16755 0.54295 0.06767 0.0
H423 H 0.10769 0.55258 0.05284 0.0
H424 H 0.10842 0.53356 0.09613 0.0
N425 N 0.13757 0.51897 0.08277 0.0
N426 N 0.15 0.50265 0.09763 0.0
C427 C 0.15086 0.51557 0.08945 0.0
C428 C 0.12809 0.50786 0.0868 0.0
C429 C 0.13564 0.49785 0.09592 0.0
C430 C 0.13679 0.5143 0.04433 0.0
O431 O 0.14499 0.50622 0.05367 0.0
H432 H 0.16095 0.52229 0.0882 0.0
H433 H 0.11654 0.50689 0.08298 0.0
O434 O 0.14443 0.55254 0.07111 0.0
H435 H 0.08205 0.54738 0.0925 0.0
H436 H 0.131 0.48751 0.10044 0.0
Cu437 Cu 0.73147 0.88844 0.315 0.0
N438 N 0.7218 0.8702 0.31886 0.0
N439 N 0.70837 0.84926 0.31466 0.0
C440 C 0.71508 0.86145 0.30844 0.0
C441 C 0.71106 0.85043 0.32963 0.0
C442 C 0.71932 0.86338 0.33218 0.0
O443 O 0.73972 0.88659 0.29474 0.0
C444 C 0.70587 0.90547 0.307 0.0
O445 O 0.70646 0.89729 0.29466 0.0
H446 H 0.71516 0.86405 0.29651 0.0
H447 H 0.72305 0.86765 0.34298 0.0
N448 N 0.74692 0.89143 0.32907 0.0
N449 N 0.76347 0.90228 0.34482 0.0
C450 C 0.75119 0.90433 0.33592 0.0
C451 C 0.75675 0.88088 0.33375 0.0
C452 C 0.76694 0.88749 0.34341 0.0
C453 C 0.75307 0.89031 0.29099 0.0
O454 O 0.76161 0.89753 0.3007 0.0
H455 H 0.74543 0.91496 0.33428 0.0
H456 H 0.75668 0.86924 0.3301 0.0
O457 O 0.71625 0.90404 0.31682 0.0
H458 H 0.70707 0.84271 0.3382 0.0
H459 H 0.77642 0.88183 0.34861 0.0
Cu460 Cu 0.88175 0.97941 0.07148 0.0
N461 N 0.90059 0.97081 0.07545 0.0
N462 N 0.92242 0.95893 0.07111 0.0
C463 C 0.91082 0.96672 0.06501 0.0
C464 C 0.91949 0.95837 0.08605 0.0
C465 C 0.90597 0.96565 0.08868 0.0
O466 O 0.884 0.99154 0.05332 0.0
C467 C 0.8706 0.95066 0.06356 0.0
O468 O 0.88367 0.94961 0.05669 0.0
H469 H 0.90942 0.96888 0.05307 0.0
H470 H 0.90014 0.96652 0.09936 0.0
N471 N 0.87655 0.99241 0.08723 0.0
N472 N 0.86346 1.00794 0.10229 0.0
C473 C 0.86277 0.99771 0.09095 0.0
C474 C 0.88627 0.99951 0.09643 0.0
C475 C 0.87828 0.00903 0.10572 0.0
C476 C 0.88228 0.98705 0.0398 0.0
O477 O 0.87719 0.97339 0.03724 0.0
H478 H 0.85254 0.99424 0.08528 0.0
H479 H 0.8984 0.99818 0.0961 0.0
O480 O 0.86709 0.96301 0.07004 0.0
H481 H 0.92618 0.95239 0.09435 0.0
H482 H 0.88318 0.01657 0.11396 0.0
Cu483 Cu 0.2305 0.63283 0.69583 0.0
N484 N 0.22174 0.65166 0.69216 0.0
N485 N 0.21028 0.67363 0.69688 0.0
C486 C 0.21859 0.6622 0.70262 0.0
C487 C 0.20832 0.6702 0.68217 0.0
C488 C 0.21532 0.6566 0.67932 0.0
O489 O 0.24327 0.63516 0.71357 0.0
C490 C 0.20222 0.62212 0.70536 0.0
O491 O 0.20245 0.63465 0.71324 0.0
H492 H 0.22181 0.66116 0.71436 0.0
H493 H 0.21514 0.6504 0.66882 0.0
N494 N 0.24273 0.62756 0.67945 0.0
N495 N 0.25746 0.61463 0.6635 0.0
C496 C 0.24871 0.61398 0.67602 0.0
C497 C 0.24793 0.63709 0.66886 0.0
C498 C 0.25695 0.62918 0.65902 0.0
C499 C 0.24007 0.63152 0.72708 0.0
O500 O 0.22749 0.62423 0.72991 0.0
H501 H 0.24672 0.60389 0.6826 0.0
H502 H 0.24559 0.64905 0.66849 0.0
O503 O 0.21389 0.61848 0.69779 0.0
H504 H 0.20158 0.67661 0.67424 0.0
H505 H 0.26304 0.63393 0.64956 0.0
Cu506 Cu 0.13567 0.47829 0.44897 0.0
N507 N 0.11734 0.46871 0.44516 0.0
N508 N 0.09635 0.45538 0.4495 0.0
C509 C 0.10835 0.46247 0.45568 0.0
C510 C 0.09787 0.45735 0.43445 0.0
C511 C 0.11086 0.46553 0.43182 0.0
O512 O 0.13352 0.48751 0.46879 0.0
C513 C 0.15114 0.4524 0.45858 0.0
O514 O 0.14204 0.45367 0.47021 0.0
H515 H 0.11068 0.46306 0.46765 0.0
H516 H 0.11544 0.46865 0.42094 0.0
N517 N 0.13932 0.49291 0.43414 0.0
N518 N 0.15076 0.50917 0.41848 0.0
C519 C 0.15262 0.49779 0.42855 0.0
C520 C 0.12872 0.50144 0.42745 0.0
C521 C 0.13568 0.51143 0.41783 0.0
C522 C 0.1367 0.50116 0.47187 0.0
O523 O 0.14338 0.50957 0.46167 0.0
H524 H 0.16341 0.49316 0.43193 0.0
H525 H 0.11675 0.50066 0.4297 0.0
O526 O 0.15094 0.4626 0.44846 0.0
H527 H 0.09042 0.45282 0.42591 0.0
H528 H 0.13003 0.52002 0.41125 0.0
Cu529 Cu 0.38409 0.53599 0.94559 0.0
N530 N 0.40291 0.54409 0.94057 0.0
N531 N 0.42508 0.55592 0.94305 0.0
C532 C 0.41348 0.54913 0.95026 0.0
C533 C 0.42174 0.55481 0.92821 0.0
C534 C 0.40807 0.54754 0.92673 0.0
O535 O 0.38656 0.5249 0.96439 0.0
C536 C 0.37319 0.56523 0.95189 0.0
O537 O 0.38662 0.56676 0.95794 0.0
H538 H 0.41219 0.54859 0.96238 0.0
H539 H 0.40207 0.54535 0.91633 0.0
N540 N 0.37859 0.52191 0.93089 0.0
N541 N 0.36539 0.5053 0.91726 0.0
C542 C 0.36469 0.51719 0.92679 0.0
C543 C 0.3883 0.51277 0.92365 0.0
C544 C 0.38022 0.50252 0.91527 0.0
C545 C 0.38675 0.53045 0.97763 0.0
O546 O 0.38381 0.54482 0.97956 0.0
H547 H 0.35433 0.52182 0.9313 0.0
H548 H 0.40044 0.51318 0.92488 0.0
O549 O 0.36944 0.55249 0.94638 0.0
H550 H 0.42849 0.55918 0.91904 0.0
H551 H 0.38486 0.4935 0.90848 0.0
Cu552 Cu 0.69773 0.787 0.88627 0.0
N553 N 0.69458 0.79671 0.86784 0.0
N554 N 0.69952 0.80917 0.84645 0.0
C555 C 0.70533 0.80121 0.8581 0.0
C556 C 0.68449 0.80956 0.84895 0.0
C557 C 0.6815 0.80192 0.86218 0.0
O558 O 0.71602 0.775 0.88416 0.0
C559 C 0.70519 0.81487 0.9 0.0
O560 O 0.71372 0.81664 0.88801 0.0
H561 H 0.71721 0.79891 0.85973 0.0
H562 H 0.67061 0.80063 0.86754 0.0
N563 N 0.68182 0.77366 0.89 0.0
N564 N 0.66603 0.75767 0.90163 0.0
C565 C 0.67716 0.76801 0.90335 0.0
C566 C 0.67344 0.7667 0.87948 0.0
C567 C 0.66372 0.75689 0.88656 0.0
C568 C 0.72948 0.77895 0.8872 0.0
O569 O 0.73198 0.79202 0.89369 0.0
H570 H 0.68205 0.7713 0.91403 0.0
H571 H 0.67463 0.76833 0.86744 0.0
O572 O 0.69806 0.80253 0.90183 0.0
H573 H 0.6763 0.81545 0.84207 0.0
H574 H 0.65595 0.74939 0.88089 0.0
Cu575 Cu 0.48171 0.4483 0.13697 0.0
N576 N 0.47294 0.44433 0.11823 0.0
N577 N 0.46099 0.44857 0.09641 0.0
C578 C 0.46905 0.45468 0.10781 0.0
C579 C 0.46001 0.43373 0.09971 0.0
C580 C 0.46733 0.43116 0.11321 0.0
O581 O 0.49397 0.46636 0.13457 0.0
C582 C 0.45305 0.45655 0.14819 0.0
O583 O 0.45205 0.46354 0.13516 0.0
H584 H 0.47158 0.46656 0.10893 0.0
H585 H 0.46794 0.4206 0.11929 0.0
N586 N 0.49454 0.43237 0.14218 0.0
N587 N 0.50962 0.41678 0.15523 0.0
C588 C 0.49969 0.4284 0.15595 0.0
C589 C 0.50143 0.42305 0.13242 0.0
C590 C 0.51068 0.41344 0.14039 0.0
C591 C 0.48965 0.47989 0.13663 0.0
O592 O 0.47615 0.48249 0.14212 0.0
H593 H 0.4963 0.43403 0.16623 0.0
H594 H 0.5001 0.42347 0.1203 0.0
O595 O 0.46535 0.44992 0.15165 0.0
H596 H 0.45374 0.42545 0.09329 0.0
H597 H 0.518 0.405 0.13548 0.0
Cu598 Cu 0.82289 0.2284 0.38191 0.0
N599 N 0.82646 0.2206 0.36271 0.0
N600 N 0.82198 0.20794 0.34136 0.0
C601 C 0.81586 0.21484 0.35348 0.0
C602 C 0.83705 0.20949 0.34303 0.0
C603 C 0.83977 0.21725 0.35624 0.0
O604 O 0.8031 0.23789 0.38074 0.0
C605 C 0.82094 0.20956 0.40896 0.0
O606 O 0.81823 0.22165 0.41706 0.0
H607 H 0.80393 0.21494 0.3561 0.0
H608 H 0.85069 0.21972 0.36111 0.0
N609 N 0.83813 0.24224 0.38692 0.0
N610 N 0.85363 0.25786 0.39941 0.0
C611 C 0.84272 0.24721 0.40059 0.0
C612 C 0.84633 0.25006 0.37684 0.0
C613 C 0.85588 0.25962 0.38445 0.0
C614 C 0.8008 0.25201 0.38208 0.0
O615 O 0.81196 0.26082 0.38622 0.0
H616 H 0.83808 0.24322 0.41113 0.0
H617 H 0.84517 0.24913 0.36473 0.0
O618 O 0.82301 0.21073 0.39482 0.0
H619 H 0.84552 0.20504 0.33546 0.0
H620 H 0.86351 0.26762 0.37928 0.0
Cu621 Cu 0.03453 0.57018 0.63365 0.0
N622 N 0.04366 0.57486 0.61522 0.0
N623 N 0.05698 0.57202 0.59394 0.0
C624 C 0.05035 0.56503 0.60576 0.0
C625 C 0.05433 0.58687 0.59611 0.0
C626 C 0.04617 0.58858 0.60925 0.0
O627 O 0.02403 0.55113 0.63116 0.0
C628 C 0.05567 0.58174 0.65395 0.0
O629 O 0.04903 0.59446 0.65024 0.0
H630 H 0.05078 0.55303 0.6078 0.0
H631 H 0.0426 0.5991 0.61427 0.0
N632 N 0.02005 0.58484 0.63851 0.0
N633 N 1.00401 0.59973 0.6512 0.0
C634 C 0.01488 0.58902 0.65222 0.0
C635 C 0.01206 0.59299 0.62852 0.0
C636 C 1.00223 0.60218 0.63626 0.0
C637 C 0.03045 0.53832 0.63025 0.0
O638 O 0.04509 0.53736 0.63239 0.0
H639 H 0.01911 0.58436 0.66269 0.0
H640 H 0.01314 0.59213 0.6164 0.0
O641 O 0.05071 0.56942 0.6485 0.0
H642 H 0.05807 0.59591 0.5888 0.0
H643 H 0.99415 0.60981 0.63119 0.0
Cu644 Cu 0.69816 0.22999 0.62997 0.0
N645 N 0.69331 0.22111 0.64845 0.0
N646 N 0.6963 0.20867 0.67028 0.0
C647 C 0.70304 0.21388 0.65761 0.0
C648 C 0.68169 0.21292 0.66893 0.0
C649 C 0.67989 0.22056 0.65547 0.0
O650 O 0.71844 0.23788 0.63255 0.0
C651 C 0.70659 0.20345 0.61549 0.0
O652 O 0.71743 0.20409 0.62559 0.0
H653 H 0.71483 0.21243 0.65487 0.0
H654 H 0.66957 0.22543 0.65115 0.0
N655 N 0.68467 0.24575 0.62598 0.0
N656 N 0.66948 0.26244 0.61451 0.0
C657 C 0.67784 0.24972 0.61294 0.0
C658 C 0.68056 0.25625 0.63608 0.0
C659 C 0.67125 0.26651 0.6291 0.0
C660 C 0.72293 0.25072 0.62797 0.0
O661 O 0.714 0.25897 0.61949 0.0
H662 H 0.67909 0.24344 0.60255 0.0
H663 H 0.68437 0.25657 0.64767 0.0
O664 O 0.69719 0.21429 0.61474 0.0
H665 H 0.67287 0.21086 0.6771 0.0
H666 H 0.66655 0.27646 0.63437 0.0
Cu667 Cu 0.03737 0.44318 0.882 0.0
N668 N 0.04763 0.43851 0.89983 0.0
N669 N 0.06146 0.44168 0.92074 0.0
C670 C 0.05314 0.44847 0.90989 0.0
C671 C 0.06109 0.42683 0.91733 0.0
C672 C 0.05264 0.42494 0.9044 0.0
O673 O 0.02613 0.46164 0.88545 0.0
C674 C 0.0572 0.43417 0.85876 0.0
O675 O 0.05011 0.42124 0.86005 0.0
H676 H 0.05163 0.46052 0.90885 0.0
H677 H 0.05067 0.41445 0.89849 0.0
N678 N 0.02349 0.42792 0.87728 0.0
N679 N 1.00633 0.41387 0.86516 0.0
C680 C 0.01608 0.42558 0.86418 0.0
C681 C 0.01819 0.41742 0.88687 0.0
C682 C 1.00769 0.40873 0.87945 0.0
C683 C 0.0321 0.47467 0.88593 0.0
O684 O 0.04653 0.47616 0.88287 0.0
H685 H 0.01759 0.43254 0.85425 0.0
H686 H 0.02155 0.4163 0.89854 0.0
O687 O 0.05288 0.44538 0.86661 0.0
H688 H 0.06669 0.41795 0.92357 0.0
H689 H 1.00156 0.39933 0.88424 0.0
Cu690 Cu 0.81851 0.78451 0.13051 0.0
N691 N 0.82376 0.79395 0.14857 0.0
N692 N 0.8214 0.80758 0.16968 0.0
C693 C 0.81415 0.80092 0.15804 0.0
C694 C 0.83618 0.80456 0.16742 0.0
C695 C 0.83759 0.79616 0.15439 0.0
O696 O 0.79833 0.7765 0.13352 0.0
C697 C 0.81062 0.81131 0.1159 0.0
O698 O 0.8004 0.81168 0.12662 0.0
H699 H 0.80211 0.80148 0.15611 0.0
H700 H 0.84796 0.79215 0.14938 0.0
N701 N 0.83216 0.7689 0.1265 0.0
N702 N 0.847 0.75212 0.11475 0.0
C703 C 0.83807 0.76445 0.11319 0.0
C704 C 0.83748 0.75913 0.1368 0.0
C705 C 0.84658 0.7488 0.12964 0.0
C706 C 0.79386 0.76369 0.12888 0.0
O707 O 0.80276 0.75556 0.12026 0.0
H708 H 0.83572 0.77009 0.10262 0.0
H709 H 0.83465 0.75933 0.14867 0.0
O710 O 0.8192 0.79983 0.1149 0.0
H711 H 0.84536 0.80818 0.17461 0.0
H712 H 0.85206 0.73931 0.13502 0.0
Cu713 Cu 0.48047 0.56989 0.38214 0.0
N714 N 0.47042 0.57339 0.40031 0.0
N715 N 0.4571 0.56883 0.42124 0.0
C716 C 0.46478 0.56276 0.40957 0.0
C717 C 0.45798 0.58391 0.41923 0.0
C718 C 0.46611 0.58667 0.40624 0.0
O719 O 0.49213 0.55154 0.38466 0.0
C720 C 0.46003 0.58009 0.36 0.0
O721 O 0.46667 0.59309 0.36245 0.0
H722 H 0.46616 0.55079 0.40769 0.0
H723 H 0.46838 0.59758 0.40127 0.0
N724 N 0.49413 0.58554 0.37819 0.0
N725 N 0.5109 0.60056 0.36674 0.0
C726 C 0.50072 0.58933 0.36498 0.0
C727 C 0.50042 0.5946 0.3886 0.0
C728 C 0.5107 0.60389 0.3816 0.0
C729 C 0.48677 0.53825 0.38408 0.0
O730 O 0.47254 0.53631 0.38039 0.0
H731 H 0.49839 0.5837 0.3544 0.0
H732 H 0.49793 0.59426 0.40054 0.0
O733 O 0.46482 0.56835 0.36677 0.0
H734 H 0.45268 0.59231 0.42631 0.0
H735 H 0.51752 0.61241 0.38706 0.0
Cu736 Cu 0.88667 0.69991 0.78659 0.0
N737 N 0.86837 0.69566 0.79606 0.0
N738 N 0.84745 0.6994 0.80964 0.0
C739 C 0.85962 0.70584 0.80313 0.0
C740 C 0.84859 0.68455 0.80645 0.0
C741 C 0.86156 0.68226 0.79812 0.0
O742 O 0.8842 0.71983 0.77766 0.0
C743 C 0.90215 0.70937 0.81255 0.0
O744 O 0.89306 0.72102 0.81138 0.0
H745 H 0.86219 0.71777 0.80347 0.0
H746 H 0.86585 0.67158 0.79409 0.0
N747 N 0.89065 0.68542 0.77173 0.0
N748 N 0.90254 0.67007 0.75554 0.0
C749 C 0.90409 0.67999 0.76706 0.0
C750 C 0.88028 0.67878 0.76289 0.0
C751 C 0.88754 0.66932 0.75294 0.0
C752 C 0.88788 0.72335 0.76423 0.0
O753 O 0.89531 0.7136 0.75593 0.0
H754 H 0.91475 0.68334 0.77197 0.0
H755 H 0.86828 0.68091 0.76346 0.0
O756 O 0.90193 0.69934 0.80229 0.0
H757 H 0.84086 0.67588 0.81021 0.0
H758 H 0.88215 0.66277 0.74418 0.0
Cu759 Cu 0.56971 0.63665 0.03645 0.0
N760 N 0.57414 0.61844 0.04607 0.0
N761 N 0.57038 0.5974 0.05947 0.0
C762 C 0.56387 0.60913 0.05224 0.0
C763 C 0.58538 0.59934 0.05761 0.0
C764 C 0.58766 0.61238 0.04938 0.0
O765 O 0.54997 0.63374 0.0273 0.0
C766 C 0.56003 0.65074 0.06276 0.0
O767 O 0.54962 0.64023 0.06182 0.0
H768 H 0.55183 0.61105 0.05155 0.0
H769 H 0.59841 0.6173 0.04634 0.0
N770 N 0.58431 0.64066 0.02175 0.0
N771 N 0.59934 0.65242 1.00513 0.0
C772 C 0.58945 0.65408 0.01669 0.0
C773 C 0.59112 0.6302 0.01317 0.0
C774 C 0.60035 0.63735 1.00297 0.0
C775 C 0.54662 0.63689 0.01369 0.0
O776 O 0.55643 0.6441 1.00525 0.0
H777 H 0.58582 0.66477 0.02128 0.0
H778 H 0.58918 0.61819 0.01405 0.0
O779 O 0.56955 0.65199 0.05209 0.0
H780 H 0.59409 0.59217 0.06229 0.0
H781 H 0.60688 0.6318 0.99428 0.0
Cu782 Cu 0.63375 0.32024 0.28713 0.0
N783 N 0.65264 0.32477 0.29541 0.0
N784 N 0.67492 0.32189 0.30702 0.0
C785 C 0.66304 0.3149 0.30048 0.0
C786 C 0.67189 0.33679 0.30575 0.0
C787 C 0.65816 0.33851 0.29864 0.0
O788 O 0.63572 0.30148 0.27595 0.0
C789 C 0.62234 0.31461 0.31643 0.0
O790 O 0.63588 0.30904 0.31866 0.0
H791 H 0.66151 0.30281 0.3 0.0
H792 H 0.65243 0.34903 0.2963 0.0
N793 N 0.62856 0.33529 0.27327 0.0
N794 N 0.61547 0.35052 0.25786 0.0
C795 C 0.61473 0.34001 0.26896 0.0
C796 C 0.63834 0.34298 0.26462 0.0
C797 C 0.63036 0.35236 0.25517 0.0
C798 C 0.63601 0.28836 0.28177 0.0
O799 O 0.6337 0.28679 0.29631 0.0
H800 H 0.60439 0.33569 0.27378 0.0
H801 H 0.65046 0.34157 0.26492 0.0
O802 O 0.61884 0.31953 0.30336 0.0
H803 H 0.67894 0.34587 0.30981 0.0
H804 H 0.63522 0.35958 0.24661 0.0
Cu805 Cu 0.94702 0.3774 0.53784 0.0
N806 N 0.94344 0.39611 0.54689 0.0
N807 N 0.94843 0.41771 0.55899 0.0
C808 C 0.95388 0.40674 0.54992 0.0
C809 C 0.93395 0.41383 0.56169 0.0
C810 C 0.93097 0.40046 0.55435 0.0
O811 O 0.96495 0.37957 0.52546 0.0
C812 C 0.94371 0.35111 0.55721 0.0
O813 O 0.93504 0.34514 0.54681 0.0
H814 H 0.96542 0.4061 0.54603 0.0
H815 H 0.92071 0.39391 0.55514 0.0
N816 N 0.93066 0.37185 0.52551 0.0
N817 N 0.91622 0.35977 0.50862 0.0
C818 C 0.92923 0.35955 0.51663 0.0
C819 C 0.9182 0.38014 0.52289 0.0
C820 C 0.90929 0.37273 0.51256 0.0
C821 C 0.97813 0.38007 0.53112 0.0
O822 O 0.97983 0.37773 0.54567 0.0
H823 H 0.93774 0.35082 0.51578 0.0
H824 H 0.91585 0.391 0.52788 0.0
O825 O 0.95006 0.36376 0.5548 0.0
H826 H 0.92633 0.41971 0.56921 0.0
H827 H 0.89852 0.37661 0.5083 0.0
Cu828 Cu 0.88596 0.31979 0.72851 0.0
N829 N 0.86759 0.32434 0.71912 0.0
N830 N 0.84596 0.32159 0.70632 0.0
C831 C 0.85721 0.31456 0.71386 0.0
C832 C 0.84938 0.33642 0.70698 0.0
C833 C 0.86272 0.33806 0.71482 0.0
O834 O 0.88379 0.30057 0.739 0.0
C835 C 0.91009 0.31029 0.7082 0.0
O836 O 0.91063 0.29732 0.71534 0.0
H837 H 0.85817 0.30249 0.71504 0.0
H838 H 0.86866 0.3485 0.71693 0.0
N839 N 0.89006 0.33467 0.7429 0.0
N840 N 0.9019 0.35005 0.75905 0.0
C841 C 0.90349 0.339 0.74863 0.0
C842 C 0.87967 0.34314 0.75 0.0
C843 C 0.88691 0.35263 0.7599 0.0
C844 C 0.88135 0.28784 0.73279 0.0
O845 O 0.88161 0.28676 0.71801 0.0
H846 H 0.91416 0.33419 0.74517 0.0
H847 H 0.86763 0.34232 0.74821 0.0
O848 O 0.90115 0.32059 0.71266 0.0
H849 H 0.84285 0.34546 0.70201 0.0
H850 H 0.88148 0.36056 0.76743 0.0
Cu851 Cu 0.94573 0.63415 0.97863 0.0
N852 N 0.94308 0.61471 0.97102 0.0
N853 N 0.94882 0.59301 0.95948 0.0
C854 C 0.95422 0.60542 0.96651 0.0
C855 C 0.93366 0.59461 0.95966 0.0
C856 C 0.93017 0.60804 0.96667 0.0
O857 O 0.9652 0.63383 0.98889 0.0
C858 C 0.94658 0.66109 0.95958 0.0
O859 O 0.94804 0.6694 0.97174 0.0
H860 H 0.96606 0.608 0.96797 0.0
H861 H 0.91905 0.61293 0.96788 0.0
N862 N 0.92984 0.6389 0.99187 0.0
N863 N 0.91428 0.65098 1.00781 0.0
C864 C 0.92576 0.65235 0.99778 0.0
C865 C 0.92073 0.62872 0.99845 0.0
C866 C 0.91118 0.63606 1.0082 0.0
C867 C 0.96629 0.63201 1.00311 0.0
O868 O 0.954 0.63217 0.01138 0.0
H869 H 0.93126 0.66285 0.99497 0.0
H870 H 0.92135 0.61667 0.9967 0.0
O871 O 0.9457 0.64682 0.96074 0.0
H872 H 0.92566 0.58703 0.95441 0.0
H873 H 0.90298 0.63066 0.01543 0.0
Cu874 Cu 0.63075 0.69717 0.23065 0.0
N875 N 0.64865 0.69222 0.22074 0.0
N876 N 0.66969 0.69484 0.20703 0.0
C877 C 0.65846 0.70198 0.21448 0.0
C878 C 0.66677 0.67997 0.20871 0.0
C879 C 0.65377 0.67841 0.21711 0.0
O880 O 0.63416 0.71587 0.24147 0.0
C881 C 0.609 0.68738 0.20977 0.0
O882 O 0.61167 0.6742 0.21601 0.0
H883 H 0.65706 0.71408 0.21493 0.0
H884 H 0.64826 0.66794 0.22011 0.0
N885 N 0.62606 0.68226 0.24489 0.0
N886 N 0.61401 0.66842 0.26223 0.0
C887 C 0.61261 0.67893 0.25124 0.0
C888 C 0.63622 0.67358 0.25211 0.0
C889 C 0.62885 0.66504 0.26276 0.0
C890 C 0.63433 0.72882 0.23529 0.0
O891 O 0.63105 0.73004 0.22089 0.0
H892 H 0.60215 0.6845 0.24827 0.0
H893 H 0.64824 0.67378 0.25005 0.0
O894 O 0.61545 0.69906 0.21505 0.0
H895 H 0.67346 0.67085 0.20414 0.0
H896 H 0.63404 0.65706 0.27042 0.0
Cu897 Cu 0.5674 0.37969 0.48008 0.0
N898 N 0.57243 0.39764 0.47035 0.0
N899 N 0.56911 0.41888 0.45715 0.0
C900 C 0.5625 0.40816 0.46571 0.0
C901 C 0.58382 0.41495 0.45644 0.0
C902 C 0.58583 0.40183 0.46461 0.0
O903 O 0.54748 0.38298 0.48857 0.0
C904 C 0.55861 0.36542 0.45356 0.0
O905 O 0.54858 0.37635 0.45363 0.0
H906 H 0.5505 0.40748 0.46788 0.0
H907 H 0.59619 0.39547 0.46581 0.0
N908 N 0.58134 0.37555 0.49539 0.0
N909 N 0.59513 0.36347 0.51276 0.0
C910 C 0.58648 0.36206 0.50026 0.0
C911 C 0.58704 0.38579 0.50502 0.0
C912 C 0.59551 0.37839 0.51575 0.0
C913 C 0.54317 0.3784 0.50147 0.0
O914 O 0.55201 0.36952 0.5094 0.0
H915 H 0.58336 0.3514 0.4952 0.0
H916 H 0.58476 0.39777 0.50452 0.0
O917 O 0.56751 0.36412 0.46476 0.0
H918 H 0.59245 0.42094 0.45021 0.0
H919 H 0.60132 0.38356 0.52516 0.0
Cu920 Cu 0.78525 0.88465 0.69391 0.0
N921 N 0.79531 0.86671 0.68924 0.0
N922 N 0.80908 0.84573 0.69232 0.0
C923 C 0.80137 0.85695 0.6992 0.0
C924 C 0.80775 0.84861 0.6774 0.0
C925 C 0.79933 0.86157 0.67555 0.0
O926 O 0.77415 0.88138 0.71248 0.0
C927 C 0.8062 0.90631 0.68426 0.0
O928 O 0.80032 0.90323 0.67101 0.0
H929 H 0.80062 0.85841 0.71128 0.0
H930 H 0.79664 0.86706 0.66499 0.0
N931 N 0.77139 0.88958 0.67868 0.0
N932 N 0.75535 0.90234 0.66385 0.0
C933 C 0.76518 0.90313 0.67552 0.0
C934 C 0.76514 0.87989 0.66882 0.0
C935 C 0.75533 0.88771 0.65965 0.0
C936 C 0.78034 0.88106 0.72543 0.0
O937 O 0.79479 0.88415 0.72663 0.0
H938 H 0.76792 0.91335 0.68161 0.0
H939 H 0.7674 0.86791 0.66847 0.0
O940 O 0.80077 0.9 0.69597 0.0
H941 H 0.8126 0.84194 0.66841 0.0
H942 H 0.74843 0.88287 0.65081 0.0
Cu943 Cu 0.28483 0.62746 0.31728 0.0
N944 N 0.29342 0.64634 0.32092 0.0
N945 N 0.30564 0.668 0.31642 0.0
C946 C 0.29981 0.65525 0.31041 0.0
C947 C 0.30269 0.66699 0.33136 0.0
C948 C 0.2952 0.65362 0.33409 0.0
O949 O 0.27612 0.62894 0.29715 0.0
C950 C 0.31158 0.61361 0.30836 0.0
O951 O 0.30981 0.62281 0.29686 0.0
H952 H 0.30042 0.65217 0.29863 0.0
H953 H 0.29145 0.64944 0.34492 0.0
N954 N 0.26998 0.62348 0.3318 0.0
N955 N 0.25361 0.61189 0.34721 0.0
C956 C 0.26524 0.61014 0.33743 0.0
C957 C 0.26108 0.63396 0.33816 0.0
C958 C 0.25103 0.62691 0.34763 0.0
C959 C 0.26226 0.62686 0.29399 0.0
O960 O 0.25312 0.62165 0.30442 0.0
H961 H 0.27014 0.59941 0.33429 0.0
H962 H 0.26163 0.64592 0.33577 0.0
O963 O 0.30125 0.61295 0.31831 0.0
H964 H 0.30567 0.67528 0.3398 0.0
H965 H 0.24217 0.63245 0.35392 0.0
Cu966 Cu 0.63429 0.03713 0.56808 0.0
N967 N 0.61629 0.04761 0.57125 0.0
N968 N 0.59566 0.06119 0.5659 0.0
C969 C 0.6065 0.05195 0.56045 0.0
C970 C 0.59876 0.06264 0.58075 0.0
C971 C 0.61154 0.05435 0.58398 0.0
O972 O 0.6316 0.02483 0.5502 0.0
C973 C 0.65689 0.05766 0.57693 0.0
O974 O 0.65494 0.05137 0.59021 0.0
H975 H 0.60757 0.0487 0.54875 0.0
H976 H 0.61736 0.05381 0.5947 0.0
N977 N 0.63859 0.0243 0.58437 0.0
N978 N 0.65052 0.00805 0.59969 0.0
C979 C 0.65142 0.01651 0.58699 0.0
C980 C 0.62923 0.02059 0.59572 0.0
C981 C 0.63654 0.01065 0.60517 0.0
C982 C 0.63228 0.02998 0.53682 0.0
O983 O 0.63607 0.04415 0.53468 0.0
H984 H 0.66112 0.01691 0.57958 0.0
H985 H 0.61783 0.02474 0.59698 0.0
O986 O 0.64971 0.05255 0.5656 0.0
H987 H 0.5927 0.06976 0.58859 0.0
H988 H 0.63189 1.00583 0.61538 0.0
Cu989 Cu 0.23177 0.38789 0.81623 0.0
N990 N 0.2227 0.36946 0.82073 0.0
N991 N 0.20945 0.34829 0.81729 0.0
C992 C 0.21571 0.3605 0.81068 0.0
C993 C 0.21275 0.3496 0.83211 0.0
C994 C 0.22089 0.36272 0.83421 0.0
O995 O 0.24034 0.38539 0.79619 0.0
C996 C 0.20552 0.40224 0.80679 0.0
O997 O 0.20721 0.39282 0.79547 0.0
H998 H 0.21525 0.36294 0.79872 0.0
H999 H 0.22496 0.36717 0.84481 0.0
N1000 N 0.24696 0.39189 0.83034 0.0
N1001 N 0.26323 0.40347 0.84586 0.0
C1002 C 0.25091 0.40504 0.83689 0.0
C1003 C 0.25702 0.38169 0.83526 0.0
C1004 C 0.26703 0.38874 0.84477 0.0
C1005 C 0.2535 0.38955 0.79225 0.0
O1006 O 0.26173 0.39755 0.80163 0.0
H1007 H 0.24494 0.41551 0.83497 0.0
H1008 H 0.25725 0.36998 0.83185 0.0
O1009 O 0.21578 0.40286 0.81681 0.0
H1010 H 0.2092 0.34188 0.84088 0.0
H1011 H 0.27664 0.38339 0.85007 0.0
Cu1012 Cu 0.38204 0.47993 0.57205 0.0
N1013 N 0.40031 0.47061 0.57699 0.0
N1014 N 0.42194 0.45787 0.5742 0.0
C1015 C 0.41104 0.466 0.56726 0.0
C1016 C 0.41795 0.45759 0.58891 0.0
C1017 C 0.4046 0.46539 0.59057 0.0
O1018 O 0.38537 0.49159 0.55371 0.0
C1019 C 0.37018 0.45167 0.56378 0.0
O1020 O 0.38322 0.45047 0.55687 0.0
H1021 H 0.4103 0.46781 0.55521 0.0
H1022 H 0.39818 0.4667 0.60086 0.0
N1023 N 0.37683 0.4934 0.58743 0.0
N1024 N 0.36425 0.51009 0.60161 0.0
C1025 C 0.36337 0.49999 0.5902 0.0
C1026 C 0.38647 0.49951 0.59742 0.0
C1027 C 0.37878 0.50974 0.60618 0.0
C1028 C 0.38268 0.48742 0.54024 0.0
O1029 O 0.37602 0.47444 0.53779 0.0
H1030 H 0.35331 0.49782 0.58361 0.0
H1031 H 0.39839 0.49697 0.59804 0.0
O1032 O 0.36691 0.464 0.57041 0.0
H1033 H 0.42402 0.45188 0.59784 0.0
H1034 H 0.38358 0.51648 0.61515 0.0
Cu1035 Cu 0.7279 0.12922 0.19607 0.0
N1036 N 0.71757 0.14718 0.19244 0.0
N1037 N 0.70456 0.16824 0.19727 0.0
C1038 C 0.71296 0.15694 0.20311 0.0
C1039 C 0.70402 0.16554 0.18228 0.0
C1040 C 0.71201 0.15249 0.17935 0.0
O1041 O 0.7404 0.13274 0.21374 0.0
C1042 C 0.70111 0.11491 0.20594 0.0
O1043 O 0.70002 0.12666 0.21488 0.0
H1044 H 0.71553 0.15557 0.21497 0.0
H1045 H 0.7133 0.14701 0.16853 0.0
N1046 N 0.74077 0.12491 0.17995 0.0
N1047 N 0.7565 0.11248 0.16453 0.0
C1048 C 0.74645 0.11136 0.176 0.0
C1049 C 0.74739 0.13496 0.17076 0.0
C1050 C 0.75705 0.12737 0.16125 0.0
C1051 C 0.73844 0.12832 0.22726 0.0
O1052 O 0.7272 0.11923 0.23048 0.0
H1053 H 0.74338 0.10099 0.18164 0.0
H1054 H 0.74566 0.14702 0.17125 0.0
O1055 O 0.71282 0.11336 0.19776 0.0
H1056 H 0.69782 0.17216 0.1741 0.0
H1057 H 0.76429 0.13261 0.15294 0.0
Cu1058 Cu 0.63441 0.98162 0.9464 0.0
N1059 N 0.6167 0.97121 0.94176 0.0
N1060 N 0.59586 0.95731 0.94486 0.0
C1061 C 0.60665 0.96565 0.9517 0.0
C1062 C 0.59927 0.9578 0.93001 0.0
C1063 C 0.61214 0.96632 0.92815 0.0
O1064 O 0.63051 0.99309 0.96472 0.0
C1065 C 0.64878 0.9545 0.95526 0.0
O1066 O 0.63691 0.95297 0.96399 0.0
H1067 H 0.60769 0.96713 0.96378 0.0
H1068 H 0.618 0.96847 0.91767 0.0
N1069 N 0.63879 0.99534 0.93093 0.0
N1070 N 0.65079 0.01199 0.91616 0.0
C1071 C 0.65213 1.00183 0.92752 0.0
C1072 C 0.62871 1.00156 0.92143 0.0
C1073 C 0.63605 0.01176 0.91232 0.0
C1074 C 0.63499 0.99033 0.97809 0.0
O1075 O 0.64418 0.97898 0.98058 0.0
H1076 H 0.66249 0.99951 0.93356 0.0
H1077 H 0.61677 0.99903 0.92133 0.0
O1078 O 0.65037 0.96655 0.94758 0.0
H1079 H 0.59305 0.95226 0.92109 0.0
H1080 H 0.63087 0.01851 0.90355 0.0
Cu1081 Cu 0.87833 0.03644 0.44982 0.0
N1082 N 0.8969 0.04532 0.44559 0.0
N1083 N 0.91822 0.05824 0.44962 0.0
C1084 C 0.90515 0.05316 0.45562 0.0
C1085 C 0.91808 0.05336 0.43517 0.0
C1086 C 0.90492 0.04541 0.43272 0.0
O1087 O 0.88041 0.02853 0.47017 0.0
C1088 C 0.86226 0.06228 0.45847 0.0
O1089 O 0.87042 0.06082 0.47077 0.0
H1090 H 0.90147 0.05518 0.46707 0.0
H1091 H 0.90147 0.04 0.42234 0.0
N1092 N 0.8746 0.02066 0.4363 0.0
N1093 N 0.86294 1.003 0.42258 0.0
C1094 C 0.86134 0.01597 0.43046 0.0
C1095 C 0.88487 0.01041 0.43188 0.0
C1096 C 0.87774 0.99952 0.42345 0.0
C1097 C 0.87558 0.01577 0.47461 0.0
O1098 O 0.86703 1.00769 0.46561 0.0
H1099 H 0.85066 0.02151 0.43256 0.0
H1100 H 0.89666 0.0106 0.43504 0.0
O1101 O 0.86326 0.05225 0.44825 0.0
H1102 H 0.92693 0.05518 0.42696 0.0
H1103 H 0.88299 0.98966 0.41852 0.0
C1104 C 0.10654 0.17966 0.5027 0.0
C1105 C 0.10141 0.16621 0.49608 0.0
C1106 C 0.11271 0.19117 0.49373 0.0
C1107 C 0.11249 0.20646 0.45532 0.0
H1108 H 0.15311 0.22058 0.46325 0.0
C1109 C 0.14721 0.23619 0.40948 0.0
C1110 C 0.15808 0.24708 0.41336 0.0
C1111 C 0.13944 0.22816 0.42058 0.0
C1112 C 0.14164 0.21704 0.461 0.0
H1113 H 0.09821 0.15445 0.47493 0.0
H1114 H 0.10859 0.1746 0.45927 0.0
H1115 H 0.14089 0.2034 0.48104 0.0
H1116 H 0.16888 0.25827 0.43226 0.0
H1117 H 0.15492 0.24462 0.45166 0.0
H1118 H 0.11301 0.22007 0.43544 0.0
C1119 C 0.10804 0.17621 0.47137 0.0
C1120 C 0.13467 0.20715 0.4712 0.0
C1121 C 0.10221 0.16464 0.48033 0.0
C1122 C 0.16058 0.25003 0.42877 0.0
C1123 C 0.15268 0.24205 0.43994 0.0
C1124 C 0.11933 0.21651 0.44527 0.0
C1125 C 0.11348 0.18955 0.47796 0.0
C1126 C 0.12018 0.20147 0.46825 0.0
C1127 C 0.14209 0.23087 0.43599 0.0
C1128 C 0.13418 0.22163 0.44771 0.0
H1129 H 0.1061 0.1811 0.51483 0.0
H1130 H 0.11679 0.20136 0.49909 0.0
H1131 H 0.10122 0.20242 0.45288 0.0
H1132 H 0.1447 0.23371 0.3978 0.0
H1133 H 0.1316 0.21952 0.41699 0.0
C1134 C 0.10109 0.87664 0.74841 0.0
C1135 C 0.1022 0.86095 0.75042 0.0
C1136 C 0.08981 0.88283 0.73928 0.0
C1137 C 0.05348 0.87377 0.71983 0.0
H1138 H 0.06425 0.90836 0.69529 0.0
C1139 C 0.0185 0.89401 0.66841 0.0
C1140 C 0.0163 0.90962 0.66665 0.0
C1141 C 0.02804 0.88841 0.67967 0.0
C1142 C 0.061 0.89882 0.7022 0.0
H1143 H 0.09224 0.83947 0.74453 0.0
H1144 H 0.07276 0.85018 0.72824 0.0
H1145 H 0.08267 0.8978 0.71273 0.0
H1146 H 0.02229 0.93159 0.67545 0.0
H1147 H 0.03912 0.92182 0.69511 0.0
H1148 H 0.03194 0.87457 0.70881 0.0
C1149 C 0.08038 0.85779 0.73399 0.0
C1150 C 0.07156 0.89276 0.71226 0.0
C1151 C 0.09158 0.8516 0.74331 0.0
C1152 C 0.02369 0.91952 0.67659 0.0
C1153 C 0.0334 0.91392 0.68775 0.0
C1154 C 0.04298 0.87974 0.70963 0.0
C1155 C 0.07943 0.8735 0.73172 0.0
C1156 C 0.06798 0.88012 0.72122 0.0
C1157 C 0.03576 0.8983 0.68935 0.0
C1158 C 0.04664 0.89231 0.70067 0.0
H1159 H 0.10895 0.88414 0.75397 0.0
H1160 H 0.08925 0.89498 0.73816 0.0
H1161 H 0.05017 0.86422 0.72669 0.0
H1162 H 0.01284 0.8861 0.66103 0.0
H1163 H 0.02969 0.87633 0.68054 0.0
C1164 C 0.41472 0.83741 0.99727 0.0
C1165 C 0.41177 0.8529 0.99532 0.0
C1166 C 0.40693 0.82657 0.98875 0.0
C1167 C 0.37294 0.82195 0.96397 0.0
H1168 H 0.39467 0.78735 0.94838 0.0
C1169 C 0.3532 0.78841 0.912 0.0
C1170 C 0.35319 0.77259 0.91292 0.0
C1171 C 0.35966 0.79713 0.92343 0.0
C1172 C 0.38841 0.79687 0.9528 0.0
H1173 H 0.39776 0.86891 0.98312 0.0
H1174 H 0.38483 0.85031 0.96804 0.0
H1175 H 0.40722 0.80456 0.96588 0.0
H1176 H 0.36001 0.75348 0.92654 0.0
H1177 H 0.37168 0.7688 0.94651 0.0
H1178 H 0.35438 0.81458 0.95034 0.0
C1179 C 0.39295 0.8464 0.97629 0.0
C1180 C 0.39557 0.80673 0.96289 0.0
C1181 C 0.40062 0.85718 0.98484 0.0
C1182 C 0.35981 0.76566 0.92558 0.0
C1183 C 0.36655 0.7744 0.93693 0.0
C1184 C 0.36588 0.81223 0.95375 0.0
C1185 C 0.39599 0.83092 0.97805 0.0
C1186 C 0.38802 0.81958 0.96841 0.0
C1187 C 0.36648 0.79024 0.93599 0.0
C1188 C 0.37361 0.79972 0.94787 0.0
H1189 H 0.42324 0.83362 1.00515 0.0
H1190 H 0.40948 0.81476 0.99059 0.0
H1191 H 0.36656 0.83144 0.96826 0.0
H1192 H 0.34806 0.79408 0.90247 0.0
H1193 H 0.35953 0.8093 0.92232 0.0
C1194 C 0.40881 0.14615 0.23979 0.0
C1195 C 0.41166 0.15966 0.24761 0.0
C1196 C 0.42001 0.13935 0.23101 0.0
C1197 C 0.45527 0.148 0.21052 0.0
H1198 H 0.4581 0.10445 0.20765 0.0
C1199 C 0.4862 0.11816 0.16151 0.0
C1200 C 0.49413 0.10472 0.16445 0.0
C1201 C 0.47751 0.12506 0.17273 0.0
C1202 C 0.45762 0.11663 0.20842 0.0
H1203 H 0.42878 0.17643 0.25245 0.0
H1204 H 0.44843 0.16445 0.23728 0.0
H1205 H 0.44076 0.1158 0.22569 0.0
H1206 H 0.49924 0.08817 0.18175 0.0
H1207 H 0.4843 0.10033 0.2014 0.0
H1208 H 0.4722 0.14883 0.1933 0.0
C1209 C 0.43741 0.15921 0.23783 0.0
C1210 C 0.44752 0.12315 0.21866 0.0
C1211 C 0.42618 0.16601 0.24667 0.0
C1212 C 0.49339 0.09854 0.17906 0.0
C1213 C 0.48466 0.10544 0.19031 0.0
C1214 C 0.46537 0.14148 0.20027 0.0
C1215 C 0.43443 0.14585 0.22977 0.0
C1216 C 0.44604 0.13893 0.21971 0.0
C1217 C 0.4765 0.11873 0.18726 0.0
C1218 C 0.46654 0.1257 0.19893 0.0
H1219 H 0.39787 0.14079 0.2404 0.0
H1220 H 0.41721 0.12918 0.22487 0.0
H1221 H 0.45438 0.16018 0.21091 0.0
H1222 H 0.48664 0.12339 0.15048 0.0
H1223 H 0.47128 0.13518 0.16989 0.0
C1224 C 0.15687 0.78604 0.10635 0.0
C1225 C 0.1615 0.77125 0.10291 0.0
C1226 C 0.15072 0.7954 0.09524 0.0
C1227 C 0.13216 0.79517 0.05783 0.0
H1228 H 0.14348 0.8374 0.05783 0.0
C1229 C 0.10081 0.84094 0.02249 0.0
C1230 C 0.10953 0.8526 0.01618 0.0
C1231 C 0.10738 0.83028 0.03219 0.0
C1232 C 0.14028 0.82562 0.05754 0.0
H1233 H 0.16313 0.75475 0.08495 0.0
H1234 H 0.15253 0.77121 0.06545 0.0
H1235 H 0.15474 0.82032 0.07613 0.0
H1236 H 0.13221 0.86161 0.01452 0.0
H1237 H 0.14361 0.84312 0.0313 0.0
H1238 H 0.11778 0.80052 0.03908 0.0
C1239 C 0.15358 0.77548 0.07684 0.0
C1240 C 0.14662 0.81584 0.06819 0.0
C1241 C 0.1598 0.76609 0.08799 0.0
C1242 C 0.12506 0.85302 0.01943 0.0
C1243 C 0.13162 0.84239 0.02908 0.0
C1244 C 0.12577 0.80499 0.04717 0.0
C1245 C 0.14901 0.79029 0.08033 0.0
C1246 C 0.14258 0.8005 0.06855 0.0
C1247 C 0.12284 0.83101 0.03579 0.0
C1248 C 0.12973 0.82036 0.04691 0.0
H1249 H 0.15815 0.79051 0.11763 0.0
H1250 H 0.14717 0.80665 0.09841 0.0
H1251 H 0.12871 0.78345 0.05785 0.0
H1252 H 0.08881 0.84032 0.02034 0.0
H1253 H 0.10024 0.82176 0.03725 0.0
C1254 C 0.4938 0.89084 0.35483 0.0
C1255 C 0.4986 0.90583 0.35282 0.0
C1256 C 0.48411 0.88401 0.34443 0.0
C1257 C 0.46893 0.88697 0.30548 0.0
H1258 H 0.43623 0.86304 0.32193 0.0
C1259 C 0.4273 0.85278 0.26786 0.0
C1260 C 0.41198 0.85345 0.27194 0.0
C1261 C 0.43845 0.85879 0.27736 0.0
C1262 C 0.44525 0.86973 0.31713 0.0
H1263 H 0.49708 0.92527 0.33803 0.0
H1264 H 0.48012 0.91335 0.31988 0.0
H1265 H 0.45455 0.87445 0.33889 0.0
H1266 H 0.39647 0.86071 0.28941 0.0
H1267 H 0.41575 0.87127 0.30578 0.0
H1268 H 0.45936 0.88247 0.28371 0.0
C1269 C 0.48401 0.90683 0.32947 0.0
C1270 C 0.45587 0.87615 0.32686 0.0
C1271 C 0.49374 0.91368 0.33989 0.0
C1272 C 0.40811 0.86014 0.2858 0.0
C1273 C 0.41921 0.86606 0.29529 0.0
C1274 C 0.4583 0.88049 0.29572 0.0
C1275 C 0.47891 0.89196 0.33172 0.0
C1276 C 0.46783 0.88491 0.32119 0.0
C1277 C 0.43453 0.86548 0.29121 0.0
C1278 C 0.44626 0.87189 0.30144 0.0
H1279 H 0.49755 0.88433 0.36445 0.0
H1280 H 0.48068 0.87245 0.34638 0.0
H1281 H 0.47806 0.89353 0.30071 0.0
H1282 H 0.43067 0.84782 0.25723 0.0
H1283 H 0.45015 0.85805 0.27392 0.0
C1284 C 0.36252 0.23053 0.60654 0.0
C1285 C 0.35572 0.24439 0.60283 0.0
C1286 C 0.36835 0.22111 0.59534 0.0
C1287 C 0.38149 0.22033 0.55562 0.0
H1288 H 0.37584 0.17726 0.56056 0.0
C1289 C 0.41322 0.17513 0.51977 0.0
C1290 C 0.40549 0.1617 0.51644 0.0
C1291 C 0.40662 0.1861 0.52909 0.0
C1292 C 0.3774 0.18925 0.55885 0.0
H1293 H 0.34994 0.2592 0.5842 0.0
H1294 H 0.35988 0.24257 0.56457 0.0
H1295 H 0.36515 0.19447 0.57893 0.0
H1296 H 0.3844 0.14974 0.51937 0.0
H1297 H 0.37281 0.16884 0.53529 0.0
H1298 H 0.39359 0.21499 0.53533 0.0
C1299 C 0.36082 0.2391 0.57625 0.0
C1300 C 0.37143 0.19915 0.56955 0.0
C1301 C 0.35496 0.24857 0.58751 0.0
C1302 C 0.39076 0.15982 0.52199 0.0
C1303 C 0.38414 0.17077 0.53118 0.0
C1304 C 0.38749 0.21038 0.54486 0.0
C1305 C 0.36752 0.2252 0.58003 0.0
C1306 C 0.37348 0.21482 0.56818 0.0
C1307 C 0.39211 0.18389 0.5352 0.0
C1308 C 0.38554 0.19469 0.54636 0.0
H1309 H 0.36319 0.22677 0.61813 0.0
H1310 H 0.37361 0.21062 0.59873 0.0
H1311 H 0.38339 0.23231 0.55424 0.0
H1312 H 0.42461 0.17686 0.51572 0.0
H1313 H 0.41313 0.196 0.53201 0.0
C1314 C 0.08695 0.16685 0.76972 0.0
C1315 C 0.10117 0.15982 0.76894 0.0
C1316 C 0.07524 0.16046 0.77823 0.0
C1317 C 0.0635 0.12475 0.7975 0.0
H1318 H 0.03867 0.15161 0.8214 0.0
C1319 C 0.01715 0.10175 0.83744 0.0
C1320 C 0.01593 0.10873 0.85165 0.0
C1321 C 0.02598 0.10819 0.826 0.0
C1322 C 0.04554 0.14392 0.81487 0.0
H1323 H 0.11386 0.14011 0.7761 0.0
H1324 H 0.09382 0.12937 0.79123 0.0
H1325 H 0.0572 0.1621 0.8041 0.0
H1326 H 0.02262 0.1284 0.86458 0.0
H1327 H 0.03829 0.13926 0.84499 0.0
H1328 H 0.05239 0.10657 0.80882 0.0
C1329 C 0.09157 0.13972 0.78513 0.0
C1330 C 0.05606 0.14996 0.80475 0.0
C1331 C 0.10321 0.14605 0.77659 0.0
C1332 C 0.02345 0.12252 0.85393 0.0
C1333 C 0.03231 0.1289 0.84255 0.0
C1334 C 0.05306 0.11871 0.80769 0.0
C1335 C 0.07744 0.14688 0.78621 0.0
C1336 C 0.06536 0.14046 0.79608 0.0
C1337 C 0.03384 0.12177 0.82846 0.0
C1338 C 0.04408 0.12821 0.8167 0.0
H1339 H 0.08491 0.17747 0.76407 0.0
H1340 H 0.06447 0.16622 0.7786 0.0
H1341 H 0.07025 0.11705 0.79084 0.0
H1342 H 0.01162 0.09111 0.83522 0.0
H1343 H 0.02669 0.10246 0.81524 0.0
C1344 C 0.24575 0.42881 0.16625 0.0
C1345 C 0.24879 0.41496 0.15907 0.0
C1346 C 0.23613 0.43948 0.15955 0.0
C1347 C 0.20432 0.4416 0.13317 0.0
H1348 H 0.21249 0.48455 0.13156 0.0
C1349 C 0.15826 0.48418 0.11693 0.0
C1350 C 0.16189 0.49482 0.10569 0.0
C1351 C 0.16948 0.47548 0.12379 0.0
C1352 C 0.21009 0.47258 0.1319 0.0
H1353 H 0.24463 0.40207 0.13865 0.0
H1354 H 0.22773 0.4204 0.12728 0.0
H1355 H 0.23125 0.46735 0.14257 0.0
H1356 H 0.18047 0.50501 0.09345 0.0
H1357 H 0.20013 0.48993 0.1057 0.0
H1358 H 0.1832 0.44671 0.12264 0.0
C1359 C 0.23263 0.42291 0.13819 0.0
C1360 C 0.22077 0.46276 0.13829 0.0
C1361 C 0.24232 0.41234 0.14479 0.0
C1362 C 0.17721 0.497 0.10206 0.0
C1363 C 0.18849 0.48834 0.10907 0.0
C1364 C 0.19361 0.45139 0.12699 0.0
C1365 C 0.22924 0.43651 0.14557 0.0
C1366 C 0.21801 0.44714 0.13893 0.0
C1367 C 0.1847 0.47725 0.11977 0.0
C1368 C 0.19634 0.467 0.12628 0.0
H1369 H 0.2504 0.43128 0.17725 0.0
H1370 H 0.23368 0.44983 0.16555 0.0
H1371 H 0.20178 0.42966 0.13361 0.0
H1372 H 0.1467 0.48242 0.12038 0.0
H1373 H 0.16621 0.46726 0.13222 0.0
C1374 C 0.74384 0.0896 0.84886 0.0
C1375 C 0.74918 0.10211 0.85704 0.0
C1376 C 0.73404 0.07915 0.85559 0.0
C1377 C 0.7065 0.07613 0.88677 0.0
H1378 H 0.70908 0.0331 0.87941 0.0
C1379 C 0.6585 0.03558 0.90334 0.0
C1380 C 0.66236 0.02162 0.90986 0.0
C1381 C 0.66957 0.04494 0.89715 0.0
C1382 C 0.70828 0.04507 0.88167 0.0
H1383 H 0.74893 0.11289 0.879 0.0
H1384 H 0.73191 0.09481 0.89062 0.0
H1385 H 0.72782 0.05004 0.86826 0.0
H1386 H 0.68099 1.00657 0.91482 0.0
H1387 H 0.7004 0.02301 0.90406 0.0
H1388 H 0.68708 0.07123 0.90022 0.0
C1389 C 0.73502 0.09323 0.87892 0.0
C1390 C 0.71892 0.0548 0.87515 0.0
C1391 C 0.7448 0.10363 0.87222 0.0
C1392 C 0.67763 0.01728 0.91 0.0
C1393 C 0.68874 0.02664 0.9037 0.0
C1394 C 0.69585 0.06644 0.89321 0.0
C1395 C 0.72933 0.08096 0.87065 0.0
C1396 C 0.71816 0.07046 0.87762 0.0
C1397 C 0.68483 0.04062 0.89724 0.0
C1398 C 0.69654 0.05079 0.8907 0.0
H1399 H 0.74686 0.0881 0.83713 0.0
H1400 H 0.72978 0.0699 0.84884 0.0
H1401 H 0.70544 0.08812 0.88879 0.0
H1402 H 0.64691 0.0394 0.90317 0.0
H1403 H 0.66612 0.05554 0.89213 0.0
C1404 C 0.76983 0.92901 0.35076 0.0
C1405 C 0.77162 0.91346 0.35355 0.0
C1406 C 0.77815 0.9397 0.35893 0.0
C1407 C 0.80179 0.9439 0.39371 0.0
H1408 H 0.81777 0.97892 0.37293 0.0
C1409 C 0.85229 0.97815 0.41595 0.0
C1410 C 0.85127 0.99397 0.41571 0.0
C1411 C 0.84124 0.96928 0.40906 0.0
C1412 C 0.81323 0.96929 0.37893 0.0
H1413 H 0.78343 0.89721 0.36762 0.0
H1414 H 0.7982 0.91559 0.38124 0.0
H1415 H 0.801 0.96163 0.35955 0.0
H1416 H 0.83786 0.0129 0.40807 0.0
H1417 H 0.81854 0.99732 0.3957 0.0
H1418 H 0.81454 0.95128 0.41287 0.0
C1419 C 0.79019 0.91963 0.37294 0.0
C1420 C 0.80357 0.95937 0.37128 0.0
C1421 C 0.78181 0.90898 0.36489 0.0
C1422 C 0.83888 1.00074 0.40847 0.0
C1423 C 0.8279 0.99184 0.40133 0.0
C1424 C 0.81158 0.95369 0.40126 0.0
C1425 C 0.78853 0.93515 0.37009 0.0
C1426 C 0.79789 0.9464 0.3785 0.0
C1427 C 0.82897 0.976 0.40159 0.0
C1428 C 0.81758 0.96638 0.3939 0.0
H1429 H 0.7622 0.93299 0.34211 0.0
H1430 H 0.7764 0.95154 0.35651 0.0
H1431 H 0.79737 0.93429 0.39981 0.0
H1432 H 0.86162 0.97261 0.42157 0.0
H1433 H 0.84244 0.95712 0.40936 0.0
C1434 C 0.8373 0.01817 0.10134 0.0
C1435 C 0.85124 0.01663 0.10883 0.0
C1436 C 0.82581 0.02719 0.1074 0.0
C1437 C 0.81383 0.04661 0.1429 0.0
H1438 H 0.79008 0.07108 0.11549 0.0
C1439 C 0.76693 0.08638 0.16484 0.0
C1440 C 0.7655 0.10057 0.15781 0.0
C1441 C 0.77614 0.07515 0.15863 0.0
C1442 C 0.79667 0.06443 0.12334 0.0
H1443 H 0.86359 0.02309 0.12899 0.0
H1444 H 0.84398 0.03913 0.13912 0.0
H1445 H 0.80864 0.05358 0.10542 0.0
H1446 H 0.77248 0.11363 0.13826 0.0
H1447 H 0.78888 0.09444 0.12791 0.0
H1448 H 0.80244 0.058 0.16084 0.0
C1449 C 0.84177 0.03321 0.12867 0.0
C1450 C 0.8072 0.05418 0.11754 0.0
C1451 C 0.85319 0.02412 0.12269 0.0
C1452 C 0.77337 0.10303 0.14423 0.0
C1453 C 0.78268 0.09186 0.13811 0.0
C1454 C 0.80341 0.05696 0.14871 0.0
C1455 C 0.82794 0.03497 0.12108 0.0
C1456 C 0.81605 0.04523 0.12723 0.0
C1457 C 0.78429 0.07778 0.14526 0.0
C1458 C 0.79478 0.06613 0.13902 0.0
H1459 H 0.8353 0.01269 0.09064 0.0
H1460 H 0.81525 0.02806 0.10132 0.0
H1461 H 0.82022 0.03976 0.15075 0.0
H1462 H 0.76117 0.08393 0.1753 0.0
H1463 H 0.77687 0.06438 0.16436 0.0
C1464 C 0.2714 0.59035 0.66519 0.0
C1465 C 0.2662 0.60269 0.65664 0.0
C1466 C 0.28085 0.57945 0.65869 0.0
C1467 C 0.30806 0.57516 0.62753 0.0
H1468 H 0.30532 0.5324 0.63639 0.0
C1469 C 0.35626 0.53401 0.61351 0.0
C1470 C 0.35253 0.51993 0.60725 0.0
C1471 C 0.34505 0.54357 0.6191 0.0
C1472 C 0.30615 0.5443 0.63372 0.0
H1473 H 0.2662 0.61266 0.63428 0.0
H1474 H 0.28263 0.59379 0.62304 0.0
H1475 H 0.28657 0.5498 0.64686 0.0
H1476 H 0.33403 0.50484 0.60207 0.0
H1477 H 0.31434 0.52163 0.61185 0.0
H1478 H 0.32758 0.56974 0.61441 0.0
C1479 C 0.27968 0.59269 0.63485 0.0
C1480 C 0.2955 0.55428 0.63983 0.0
C1481 C 0.27025 0.60354 0.64132 0.0
C1482 C 0.33726 0.51565 0.60672 0.0
C1483 C 0.32601 0.5252 0.61245 0.0
C1484 C 0.31872 0.56523 0.62151 0.0
C1485 C 0.28532 0.58065 0.6435 0.0
C1486 C 0.29636 0.56984 0.63683 0.0
C1487 C 0.32979 0.53931 0.61865 0.0
C1488 C 0.31797 0.54969 0.6246 0.0
H1489 H 0.26861 0.58937 0.67703 0.0
H1490 H 0.28508 0.57038 0.66571 0.0
H1491 H 0.30918 0.58708 0.62511 0.0
H1492 H 0.36786 0.53778 0.61394 0.0
H1493 H 0.34839 0.55428 0.62394 0.0
C1494 C 0.24471 0.58535 0.34983 0.0
C1495 C 0.24504 0.60036 0.35503 0.0
C1496 C 0.23552 0.57455 0.35688 0.0
C1497 C 0.20078 0.57196 0.37932 0.0
H1498 H 0.21369 0.53119 0.38866 0.0
C1499 C 0.15849 0.52634 0.39777 0.0
C1500 C 0.16224 0.51778 0.41064 0.0
C1501 C 0.1692 0.53553 0.39075 0.0
C1502 C 0.20995 0.54255 0.38615 0.0
H1503 H 0.23651 0.61538 0.3724 0.0
H1504 H 0.22041 0.59674 0.38437 0.0
H1505 H 0.23153 0.54897 0.37716 0.0
H1506 H 0.18058 0.51196 0.42581 0.0
H1507 H 0.19934 0.52787 0.41336 0.0
H1508 H 0.17925 0.56565 0.38823 0.0
C1509 C 0.22707 0.59338 0.3747 0.0
C1510 C 0.22012 0.55268 0.37947 0.0
C1511 C 0.23631 0.6041 0.36776 0.0
C1512 C 0.17723 0.51827 0.41591 0.0
C1513 C 0.18801 0.52742 0.40878 0.0
C1514 C 0.1906 0.56182 0.3858 0.0
C1515 C 0.22637 0.57854 0.36922 0.0
C1516 C 0.21566 0.56754 0.37607 0.0
C1517 C 0.18403 0.53636 0.39628 0.0
C1518 C 0.19504 0.547 0.38932 0.0
H1519 H 0.25117 0.58202 0.34003 0.0
H1520 H 0.23517 0.56322 0.35235 0.0
H1521 H 0.19693 0.58326 0.37671 0.0
H1522 H 0.14723 0.52603 0.39308 0.0
H1523 H 0.16584 0.54206 0.38097 0.0
C1524 C 0.35442 0.48058 0.91087 0.0
C1525 C 0.35309 0.49636 0.91152 0.0
C1526 C 0.34279 0.47179 0.90492 0.0
C1527 C 0.31247 0.47192 0.87765 0.0
H1528 H 0.29813 0.43686 0.89952 0.0
C1529 C 0.26894 0.43045 0.85141 0.0
C1530 C 0.27119 0.41499 0.85433 0.0
C1531 C 0.27719 0.44145 0.85925 0.0
C1532 C 0.3021 0.44648 0.89314 0.0
H1533 H 0.33859 0.51533 0.90646 0.0
H1534 H 0.31823 0.49988 0.89553 0.0
H1535 H 0.31593 0.45401 0.9115 0.0
H1536 H 0.2837 0.39924 0.86838 0.0
H1537 H 0.29837 0.4181 0.88131 0.0
H1538 H 0.29932 0.46404 0.85899 0.0
C1539 C 0.32827 0.49438 0.89984 0.0
C1540 C 0.31223 0.45637 0.90008 0.0
C1541 C 0.33983 0.50318 0.90613 0.0
C1542 C 0.28172 0.41092 0.86552 0.0
C1543 C 0.29004 0.42186 0.8732 0.0
C1544 C 0.30251 0.46187 0.87058 0.0
C1545 C 0.32965 0.47858 0.89921 0.0
C1546 C 0.3177 0.46905 0.89234 0.0
C1547 C 0.28797 0.4373 0.87018 0.0
C1548 C 0.29741 0.44884 0.87812 0.0
H1549 H 0.36447 0.47503 0.91507 0.0
H1550 H 0.3442 0.45966 0.90449 0.0
H1551 H 0.3166 0.48157 0.8714 0.0
H1552 H 0.26101 0.43413 0.84289 0.0
H1553 H 0.2751 0.45322 0.85671 0.0
C1554 C 0.6013 0.67904 0.99624 0.0
C1555 C 0.60665 0.66406 0.99625 0.0
C1556 C 0.60791 0.68999 0.98692 0.0
C1557 C 0.62878 0.69343 0.95142 0.0
H1558 H 0.63922 0.73367 0.96504 0.0
C1559 C 0.64542 0.74055 0.90986 0.0
C1560 C 0.65874 0.7486 0.91314 0.0
C1561 C 0.63888 0.731 0.92057 0.0
C1562 C 0.63639 0.72246 0.9611 0.0
H1563 H 0.62383 0.64929 0.98686 0.0
H1564 H 0.63494 0.66819 0.97047 0.0
H1565 H 0.6284 0.71547 0.9829 0.0
H1566 H 0.6752 0.75305 0.93077 0.0
H1567 H 0.66354 0.73661 0.94949 0.0
H1568 H 0.63665 0.70034 0.92965 0.0
C1569 C 0.62552 0.67139 0.97757 0.0
C1570 C 0.6301 0.7121 0.97129 0.0
C1571 C 0.61905 0.66051 0.98697 0.0
C1572 C 0.66496 0.74718 0.92773 0.0
C1573 C 0.65827 0.73773 0.93851 0.0
C1574 C 0.63484 0.70382 0.94122 0.0
C1575 C 0.61992 0.68621 0.97729 0.0
C1576 C 0.62633 0.69743 0.96656 0.0
C1577 C 0.6453 0.72934 0.93495 0.0
C1578 C 0.63876 0.71844 0.94593 0.0
H1579 H 0.59175 0.68227 1.00311 0.0
H1580 H 0.60331 0.70131 0.9869 0.0
H1581 H 0.62588 0.68227 0.9474 0.0
H1582 H 0.63999 0.74153 0.89899 0.0
H1583 H 0.62873 0.72489 0.91757 0.0
C1584 C 0.58862 0.35135 0.24963 0.0
C1585 C 0.60315 0.35775 0.24987 0.0
C1586 C 0.57701 0.35798 0.24115 0.0
C1587 C 0.56643 0.39352 0.22087 0.0
H1588 H 0.53971 0.36705 0.19862 0.0
C1589 C 0.52011 0.41732 0.18128 0.0
C1590 C 0.51804 0.40984 0.16742 0.0
C1591 C 0.52899 0.41088 0.1927 0.0
C1592 C 0.54712 0.37463 0.20467 0.0
H1593 H 0.61651 0.3766 0.24175 0.0
H1594 H 0.59662 0.38771 0.22667 0.0
H1595 H 0.55821 0.35631 0.21583 0.0
H1596 H 0.5233 0.38931 0.15516 0.0
H1597 H 0.53909 0.37848 0.17465 0.0
H1598 H 0.55588 0.41179 0.20914 0.0
C1599 C 0.59406 0.37769 0.23318 0.0
C1600 C 0.55762 0.36846 0.21475 0.0
C1601 C 0.60561 0.37114 0.2417 0.0
C1602 C 0.52479 0.3956 0.1655 0.0
C1603 C 0.53372 0.38923 0.17685 0.0
C1604 C 0.55601 0.39968 0.21071 0.0
C1605 C 0.57961 0.37116 0.23265 0.0
C1606 C 0.56759 0.3778 0.22283 0.0
C1607 C 0.53607 0.39682 0.19058 0.0
C1608 C 0.54635 0.39032 0.20229 0.0
H1609 H 0.58624 0.34103 0.25569 0.0
H1610 H 0.56599 0.35271 0.24122 0.0
H1611 H 0.5737 0.40112 0.22707 0.0
H1612 H 0.51519 0.4283 0.18324 0.0
H1613 H 0.53033 0.41699 0.20319 0.0
C1614 C 0.9016 0.35329 0.48575 0.0
C1615 C 0.91084 0.34878 0.49784 0.0
C1616 C 0.89603 0.34272 0.47547 0.0
C1617 C 0.88726 0.30235 0.47086 0.0
H1618 H 0.88736 0.31227 0.42824 0.0
C1619 C 0.85381 0.26852 0.42538 0.0
C1620 C 0.8609 0.26633 0.41134 0.0
C1621 C 0.86048 0.27768 0.43644 0.0
C1622 C 0.88733 0.30925 0.44009 0.0
H1623 H 0.92143 0.32955 0.50861 0.0
H1624 H 0.91169 0.31099 0.49058 0.0
H1625 H 0.89817 0.32989 0.44633 0.0
H1626 H 0.88103 0.27142 0.39839 0.0
H1627 H 0.8925 0.28736 0.4175 0.0
H1628 H 0.87638 0.28166 0.46453 0.0
C1629 C 0.90873 0.32276 0.48912 0.0
C1630 C 0.89341 0.31943 0.45048 0.0
C1631 C 0.91443 0.3334 0.49936 0.0
C1632 C 0.87504 0.27312 0.40888 0.0
C1633 C 0.88165 0.28227 0.41987 0.0
C1634 C 0.88105 0.29218 0.46044 0.0
C1635 C 0.89948 0.32731 0.47703 0.0
C1636 C 0.89341 0.31615 0.466 0.0
C1637 C 0.87437 0.28487 0.43371 0.0
C1638 C 0.88102 0.29552 0.44492 0.0
H1639 H 0.89873 0.36505 0.48414 0.0
H1640 H 0.88884 0.34661 0.46638 0.0
H1641 H 0.88698 0.29953 0.48275 0.0
H1642 H 0.84289 0.26359 0.42767 0.0
H1643 H 0.85452 0.27952 0.44694 0.0
C1644 C 0.91101 0.64913 0.73907 0.0
C1645 C 0.91428 0.66237 0.74718 0.0
C1646 C 0.92204 0.64209 0.73026 0.0
C1647 C 0.95806 0.64988 0.71059 0.0
H1648 H 0.95877 0.6064 0.70594 0.0
C1649 C 0.98866 0.62095 0.661 0.0
C1650 C 0.99571 0.60691 0.66331 0.0
C1651 C 0.98005 0.62766 0.67237 0.0
C1652 C 0.95889 0.61855 0.70722 0.0
H1653 H 0.932 0.67836 0.75252 0.0
H1654 H 0.95134 0.66591 0.73742 0.0
H1655 H 0.94166 0.61785 0.72413 0.0
H1656 H 0.99934 0.58909 0.6797 0.0
H1657 H 0.98458 0.60095 0.69967 0.0
H1658 H 0.97541 0.65057 0.69382 0.0
C1659 C 0.94011 0.66109 0.7377 0.0
C1660 C 0.94891 0.62515 0.71754 0.0
C1661 C 0.92904 0.66816 0.74652 0.0
C1662 C 0.99417 0.59993 0.67749 0.0
C1663 C 0.98554 0.60667 0.68891 0.0
C1664 C 0.96806 0.64328 0.70031 0.0
C1665 C 0.93672 0.64804 0.72933 0.0
C1666 C 0.94818 0.64092 0.7192 0.0
C1667 C 0.97827 0.62059 0.68647 0.0
C1668 C 0.96846 0.62753 0.69829 0.0
H1669 H 0.89987 0.64417 0.73945 0.0
H1670 H 0.91891 0.63217 0.72387 0.0
H1671 H 0.95777 0.66206 0.71144 0.0
H1672 H 0.98975 0.62683 0.65035 0.0
H1673 H 0.9745 0.63828 0.66996 0.0
C1674 C 0.60205 0.35298 0.53762 0.0
C1675 C 0.60162 0.35161 0.52183 0.0
C1676 C 0.6085 0.34167 0.54652 0.0
C1677 C 0.63677 0.31192 0.54649 0.0
H1678 H 0.61551 0.29761 0.58193 0.0
C1679 C 0.66349 0.26819 0.58761 0.0
C1680 C 0.66089 0.27049 0.60312 0.0
C1681 C 0.65555 0.27654 0.57673 0.0
C1682 C 0.62173 0.30158 0.57219 0.0
H1683 H 0.60768 0.33734 0.50298 0.0
H1684 H 0.61935 0.31758 0.51862 0.0
H1685 H 0.60317 0.31524 0.56482 0.0
H1686 H 0.64733 0.28317 0.61911 0.0
H1687 H 0.63416 0.29798 0.60042 0.0
H1688 H 0.6556 0.29883 0.55416 0.0
C1689 C 0.61454 0.3274 0.52405 0.0
C1690 C 0.61458 0.31163 0.56234 0.0
C1691 C 0.6078 0.33863 0.51513 0.0
C1692 C 0.64993 0.28117 0.60737 0.0
C1693 C 0.64212 0.28956 0.59654 0.0
C1694 C 0.64403 0.30201 0.55648 0.0
C1695 C 0.6149 0.3288 0.53985 0.0
C1696 C 0.62209 0.31709 0.5495 0.0
C1697 C 0.64481 0.28744 0.58105 0.0
C1698 C 0.6367 0.2969 0.56963 0.0
H1699 H 0.59725 0.36277 0.54311 0.0
H1700 H 0.6087 0.34311 0.55866 0.0
H1701 H 0.64287 0.31602 0.53672 0.0
H1702 H 0.67185 0.26016 0.58382 0.0
H1703 H 0.65783 0.27442 0.56492 0.0
C1704 C 0.92704 0.34983 0.77149 0.0
C1705 C 0.91349 0.35732 0.76793 0.0
C1706 C 0.93772 0.35657 0.78102 0.0
C1707 C 0.94043 0.38552 0.81093 0.0
H1708 H 0.98359 0.38136 0.80512 0.0
C1709 C 0.98289 0.40065 0.85772 0.0
C1710 C 0.99626 0.40817 0.85366 0.0
C1711 C 0.9732 0.3949 0.8467 0.0
C1712 C 0.97157 0.38274 0.80684 0.0
H1713 H 0.90104 0.37817 0.77094 0.0
H1714 H 0.91958 0.38987 0.78742 0.0
H1715 H 0.96619 0.37072 0.78653 0.0
H1716 H 0.00989 0.41543 0.8347 0.0
H1717 H 0.99282 0.40552 0.8154 0.0
H1718 H 0.94573 0.39762 0.83111 0.0
C1719 C 0.92182 0.37864 0.78318 0.0
C1720 C 0.96159 0.37649 0.79626 0.0
C1721 C 0.91116 0.37191 0.77371 0.0
C1722 C 0.99964 0.40982 0.83823 0.0
C1723 C 0.98993 0.404 0.82717 0.0
C1724 C 0.95037 0.39171 0.82149 0.0
C1725 C 0.93512 0.37097 0.78718 0.0
C1726 C 0.94589 0.37778 0.7982 0.0
C1727 C 0.97656 0.39649 0.83128 0.0
C1728 C 0.96607 0.39033 0.81965 0.0
H1729 H 0.92916 0.33855 0.76734 0.0
H1730 H 0.94778 0.35028 0.78395 0.0
H1731 H 0.92842 0.38659 0.81291 0.0
H1732 H 0.9798 0.3993 0.86945 0.0
H1733 H 0.9631 0.38903 0.85031 0.0
C1734 C 0.85066 0.74501 0.08778 0.0
C1735 C 0.85476 0.74366 0.10309 0.0
C1736 C 0.85763 0.73609 0.07673 0.0
C1737 C 0.87669 0.69965 0.07249 0.0
H1738 H 0.89061 0.71496 0.03392 0.0
C1739 C 0.89329 0.65994 0.024 0.0
C1740 C 0.9073 0.66259 0.01697 0.0
C1741 C 0.88697 0.67058 0.03375 0.0
C1742 C 0.88681 0.71055 0.04467 0.0
H1743 H 0.87016 0.73227 0.11844 0.0
H1744 H 0.8819 0.7166 0.09932 0.0
H1745 H 0.87968 0.73236 0.0525 0.0
H1746 H 0.92527 0.67904 0.01445 0.0
H1747 H 0.914 0.69773 0.03128 0.0
H1748 H 0.88366 0.67787 0.06473 0.0
C1749 C 0.87316 0.72445 0.09591 0.0
C1750 C 0.88046 0.72048 0.05524 0.0
C1751 C 0.86633 0.73344 0.10691 0.0
C1752 C 0.91448 0.67654 0.01954 0.0
C1753 C 0.90803 0.68728 0.02922 0.0
C1754 C 0.88282 0.68973 0.06188 0.0
C1755 C 0.86877 0.72551 0.08073 0.0
C1756 C 0.8754 0.71513 0.0693 0.0
C1757 C 0.89434 0.68428 0.03665 0.0
C1758 C 0.88795 0.69504 0.04785 0.0
H1759 H 0.84178 0.75264 0.08433 0.0
H1760 H 0.85395 0.7371 0.06511 0.0
H1761 H 0.87278 0.69515 0.08316 0.0
H1762 H 0.88715 0.64959 0.02206 0.0
H1763 H 0.87627 0.66805 0.03908 0.0
C1764 C 0.51561 0.60868 0.34035 0.0
C1765 C 0.52043 0.60736 0.35541 0.0
C1766 C 0.52471 0.61587 0.32957 0.0
C1767 C 0.55738 0.64224 0.32676 0.0
H1768 H 0.56038 0.62733 0.28575 0.0
C1769 C 0.60592 0.65882 0.28709 0.0
C1770 C 0.60244 0.66261 0.27209 0.0
C1771 C 0.59491 0.65289 0.29667 0.0
C1772 C 0.55951 0.63173 0.29712 0.0
H1773 H 0.53888 0.61196 0.37077 0.0
H1774 H 0.55479 0.62414 0.35211 0.0
H1775 H 0.54319 0.61508 0.30353 0.0
H1776 H 0.58464 0.6631 0.25535 0.0
H1777 H 0.56529 0.65249 0.27213 0.0
H1778 H 0.57401 0.65858 0.32046 0.0
C1779 C 0.5438 0.62012 0.34862 0.0
C1780 C 0.54964 0.62473 0.30732 0.0
C1781 C 0.53468 0.61307 0.35936 0.0
C1782 C 0.58762 0.66036 0.26688 0.0
C1783 C 0.5766 0.6542 0.27644 0.0
C1784 C 0.56731 0.64912 0.31662 0.0
C1785 C 0.53889 0.62181 0.33361 0.0
C1786 C 0.54863 0.62975 0.32236 0.0
C1787 C 0.58014 0.65043 0.29145 0.0
C1788 C 0.56866 0.64382 0.30176 0.0
H1789 H 0.50464 0.6045 0.33698 0.0
H1790 H 0.52049 0.61706 0.31817 0.0
H1791 H 0.55664 0.64672 0.33809 0.0
H1792 H 0.61718 0.66057 0.29149 0.0
H1793 H 0.59804 0.64999 0.30813 0.0
C1794 C 0.74206 0.92692 0.66602 0.0
C1795 C 0.74637 0.91434 0.65737 0.0
C1796 C 0.73269 0.93811 0.65989 0.0
C1797 C 0.71835 0.95344 0.6235 0.0
H1798 H 0.68531 0.96827 0.64801 0.0
C1799 C 0.6773 1.00028 0.6028 0.0
C1800 C 0.6619 0.9982 0.60607 0.0
C1801 C 0.68827 0.99083 0.60919 0.0
C1802 C 0.69444 0.96421 0.64099 0.0
H1803 H 0.74461 0.90404 0.63526 0.0
H1804 H 0.72818 0.92333 0.62467 0.0
H1805 H 0.70335 0.9505 0.65879 0.0
H1806 H 0.64607 0.98418 0.6184 0.0
H1807 H 0.66509 0.96784 0.6295 0.0
H1808 H 0.70919 0.96686 0.60557 0.0
C1809 C 0.73207 0.92462 0.63619 0.0
C1810 C 0.70491 0.95415 0.64723 0.0
C1811 C 0.74137 0.91344 0.64233 0.0
C1812 C 0.65779 0.98636 0.61583 0.0
C1813 C 0.66874 0.97696 0.62222 0.0
C1814 C 0.70791 0.96355 0.61727 0.0
C1815 C 0.72748 0.93704 0.64492 0.0
C1816 C 0.7169 0.94849 0.63853 0.0
C1817 C 0.68413 0.97908 0.61904 0.0
C1818 C 0.69571 0.96893 0.62588 0.0
H1819 H 0.74562 0.92796 0.67766 0.0
H1820 H 0.72951 0.94759 0.66689 0.0
H1821 H 0.72754 0.94946 0.61652 0.0
H1822 H 0.68094 0.00936 0.59551 0.0
H1823 H 0.70003 0.99288 0.60661 0.0
C1824 C 0.27616 0.37604 0.25655 0.0
C1825 C 0.2697 0.3803 0.2427 0.0
C1826 C 0.26734 0.36946 0.26785 0.0
C1827 C 0.23158 0.34844 0.27284 0.0
H1828 H 0.24014 0.35439 0.31532 0.0
C1829 C 0.19628 0.32073 0.32055 0.0
C1830 C 0.20456 0.31406 0.33237 0.0
C1831 C 0.20346 0.32974 0.30974 0.0
C1832 C 0.23767 0.35256 0.3035 0.0
H1833 H 0.24873 0.38164 0.23015 0.0
H1834 H 0.23326 0.37053 0.25 0.0
H1835 H 0.25374 0.36915 0.29651 0.0
H1836 H 0.2271 0.3115 0.3417 0.0
H1837 H 0.23945 0.32732 0.32307 0.0
H1838 H 0.21549 0.33185 0.2799 0.0
C1839 C 0.24524 0.37191 0.252 0.0
C1840 C 0.24548 0.361 0.2927 0.0
C1841 C 0.25409 0.3784 0.24065 0.0
C1842 C 0.22022 0.31664 0.33302 0.0
C1843 C 0.22736 0.32572 0.3223 0.0
C1844 C 0.22369 0.34009 0.28365 0.0
C1845 C 0.2518 0.36707 0.26564 0.0
C1846 C 0.2427 0.35891 0.27721 0.0
C1847 C 0.21907 0.33239 0.31055 0.0
C1848 C 0.22679 0.3419 0.29909 0.0
H1849 H 0.28817 0.37726 0.25849 0.0
H1850 H 0.27286 0.36572 0.27809 0.0
H1851 H 0.22929 0.34633 0.26103 0.0
H1852 H 0.1842 0.31921 0.31972 0.0
H1853 H 0.19675 0.33483 0.30087 0.0
C1854 C 0.87683 0.9948 0.49364 0.0
C1855 C 0.88145 0.00919 0.48885 0.0
C1856 C 0.88371 0.98786 0.50606 0.0
C1857 C 0.90865 0.99522 0.53914 0.0
H1858 H 0.91805 0.95268 0.53516 0.0
C1859 C 0.95073 0.96461 0.57861 0.0
C1860 C 0.9465 0.95029 0.584 0.0
C1861 C 0.94232 0.97181 0.56734 0.0
C1862 C 0.91538 0.96452 0.53652 0.0
H1863 H 0.8966 0.02779 0.49372 0.0
H1864 H 0.9087 0.01564 0.51515 0.0
H1865 H 0.90371 0.96536 0.51541 0.0
H1866 H 0.92994 0.93239 0.58158 0.0
H1867 H 0.9155 0.94484 0.56184 0.0
H1868 H 0.9206 0.99438 0.56015 0.0
C1869 C 0.89963 0.00975 0.50947 0.0
C1870 C 0.9071 0.9718 0.52522 0.0
C1871 C 0.89272 0.01671 0.49711 0.0
C1872 C 0.93374 0.94328 0.57763 0.0
C1873 C 0.9254 0.95045 0.5663 0.0
C1874 C 0.91701 0.98795 0.5504 0.0
C1875 C 0.89541 0.99513 0.51395 0.0
C1876 C 0.90366 0.98726 0.52635 0.0
C1877 C 0.92953 0.96483 0.56109 0.0
C1878 C 0.92051 0.97253 0.5492 0.0
H1879 H 0.86814 0.98872 0.48758 0.0
H1880 H 0.87995 0.97672 0.50936 0.0
H1881 H 0.90602 1.00707 0.54052 0.0
H1882 H 0.96059 0.97028 0.58301 0.0
H1883 H 0.94594 0.9828 0.56339 0.0
C1884 C 0.31906 0.69901 0.81875 0.0
C1885 C 0.31315 0.69962 0.83345 0.0
C1886 C 0.31172 0.69072 0.80747 0.0
C1887 C 0.27438 0.67431 0.79798 0.0
H1888 H 0.29706 0.65193 0.76804 0.0
C1889 C 0.24487 0.63567 0.75471 0.0
C1890 C 0.24966 0.63707 0.73965 0.0
C1891 C 0.25316 0.64226 0.76642 0.0
C1892 C 0.29057 0.65821 0.77626 0.0
H1893 H 0.29518 0.6915 0.84793 0.0
H1894 H 0.2825 0.67702 0.8284 0.0
H1895 H 0.31045 0.66559 0.78786 0.0
H1896 H 0.26724 0.64606 0.72518 0.0
H1897 H 0.28167 0.65751 0.74559 0.0
H1898 H 0.25451 0.66695 0.78639 0.0
C1899 C 0.29259 0.68323 0.82543 0.0
C1900 C 0.29824 0.66607 0.78761 0.0
C1901 C 0.29988 0.69155 0.83666 0.0
C1902 C 0.26321 0.64475 0.73664 0.0
C1903 C 0.27154 0.65127 0.74836 0.0
C1904 C 0.26672 0.66641 0.78669 0.0
C1905 C 0.29834 0.68279 0.81065 0.0
C1906 C 0.29024 0.67427 0.7986 0.0
C1907 C 0.26648 0.65033 0.76336 0.0
C1908 C 0.27471 0.65829 0.77566 0.0
H1909 H 0.32918 0.70519 0.81587 0.0
H1910 H 0.31638 0.6908 0.79618 0.0
H1911 H 0.26783 0.68072 0.80606 0.0
H1912 H 0.23451 0.62981 0.75745 0.0
H1913 H 0.24907 0.64115 0.77788 0.0
C1914 C 0.61998 0.01214 0.98807 0.0
C1915 C 0.6288 0.99923 0.99085 0.0
C1916 C 0.61323 0.01998 0.99998 0.0
C1917 C 0.59973 0.01467 0.03883 0.0
H1918 H 0.59836 0.05838 0.03948 0.0
C1919 C 0.57351 0.04755 0.08871 0.0
C1920 C 0.56497 0.06048 0.0853 0.0
C1921 C 0.58197 0.04031 0.07753 0.0
C1922 C 0.59848 0.04617 0.03939 0.0
H1923 H 0.63763 0.98461 0.00839 0.0
H1924 H 0.62581 0.99831 0.02919 0.0
H1925 H 0.61217 0.04548 0.01948 0.0
H1926 H 0.55853 0.07582 0.06737 0.0
H1927 H 0.57311 0.06313 0.04783 0.0
H1928 H 0.58582 0.0153 0.05854 0.0
C1929 C 0.62407 1.0023 0.01776 0.0
C1930 C 0.60644 0.03878 0.02794 0.0
C1931 C 0.63093 0.99451 1.00585 0.0
C1932 C 0.56513 0.06601 0.07043 0.0
C1933 C 0.57353 0.05873 0.05923 0.0
C1934 C 0.5917 0.02205 0.05023 0.0
C1935 C 0.61503 0.01505 0.01495 0.0
C1936 C 0.60711 0.02294 0.02748 0.0
C1937 C 0.58207 0.04577 0.06262 0.0
C1938 C 0.5909 0.03791 0.05064 0.0
H1939 H 0.61809 0.0161 0.97666 0.0
H1940 H 0.60623 0.02966 0.9974 0.0
H1941 H 0.59982 1.00246 0.03868 0.0
H1942 H 0.57387 0.04312 0.10008 0.0
H1943 H 0.5886 0.03052 0.08064 0.0
C1944 C 0.19301 0.68704 0.19039 0.0
C1945 C 0.20135 0.69746 0.18177 0.0
C1946 C 0.19994 0.67863 0.20183 0.0
C1947 C 0.2338 0.67818 0.22651 0.0
H1948 H 0.22237 0.6365 0.23324 0.0
C1949 C 0.26521 0.64078 0.2695 0.0
C1950 C 0.25608 0.63245 0.27945 0.0
C1951 C 0.25896 0.64771 0.25676 0.0
C1952 C 0.22562 0.64815 0.23155 0.0
H1953 H 0.2236 0.70721 0.17873 0.0
H1954 H 0.2357 0.6923 0.19828 0.0
H1955 H 0.2106 0.65075 0.21279 0.0
H1956 H 0.23334 0.62432 0.28341 0.0
H1957 H 0.22248 0.63636 0.26115 0.0
H1958 H 0.24882 0.67557 0.24524 0.0
C1959 C 0.22374 0.69077 0.19634 0.0
C1960 C 0.21884 0.65635 0.21986 0.0
C1961 C 0.21681 0.69922 0.18495 0.0
C1962 C 0.2407 0.63066 0.27599 0.0
C1963 C 0.23447 0.63752 0.2632 0.0
C1964 C 0.24062 0.66996 0.23813 0.0
C1965 C 0.21541 0.68037 0.20495 0.0
C1966 C 0.22279 0.67151 0.21723 0.0
C1967 C 0.24347 0.6464 0.25361 0.0
C1968 C 0.23658 0.65487 0.24083 0.0
H1969 H 0.18114 0.68523 0.18823 0.0
H1970 H 0.19311 0.67089 0.20834 0.0
H1971 H 0.23694 0.68989 0.22502 0.0
H1972 H 0.27711 0.64238 0.27178 0.0
H1973 H 0.26624 0.65428 0.24946 0.0
C1974 C 0.62063 1.00632 0.52662 0.0
C1975 C 0.62712 0.02056 0.52399 0.0
C1976 C 0.61456 0.99794 0.51473 0.0
C1977 C 0.59958 1.00246 0.47594 0.0
H1978 H 0.60149 0.95877 0.47585 0.0
C1979 C 0.58348 0.94864 0.43485 0.0
C1980 C 0.56941 0.95358 0.42942 0.0
C1981 C 0.59105 0.95671 0.44609 0.0
C1982 C 0.60096 0.97097 0.47558 0.0
H1983 H 0.63276 0.0369 0.50668 0.0
H1984 H 0.6225 0.02211 0.48587 0.0
H1985 H 0.61459 0.97285 0.49542 0.0
H1986 H 0.55213 0.9707 0.43179 0.0
H1987 H 0.56516 0.98464 0.45158 0.0
H1988 H 0.58629 1.0006 0.45588 0.0
C1989 C 0.62178 0.01757 0.49719 0.0
C1990 C 0.60834 0.97906 0.48695 0.0
C1991 C 0.62778 0.02601 0.50911 0.0
C1992 C 0.56304 0.96672 0.43559 0.0
C1993 C 0.57055 0.97473 0.44691 0.0
C1994 C 0.59228 0.99437 0.46453 0.0
C1995 C 0.6149 1.00352 0.49987 0.0
C1996 C 0.60765 0.99491 0.48735 0.0
C1997 C 0.5847 0.96988 0.45227 0.0
C1998 C 0.59277 0.97851 0.46425 0.0
H1999 H 0.61986 1.00179 0.53795 0.0
H2000 H 0.60918 0.98728 0.5173 0.0
H2001 H 0.59863 0.01463 0.47596 0.0
H2002 H 0.58881 0.93871 0.43018 0.0
H2003 H 0.60203 0.95276 0.44974 0.0
C2004 C 0.30217 0.31484 0.68702 0.0
C2005 C 0.31701 0.31793 0.68228 0.0
C2006 C 0.29535 0.32346 0.69834 0.0
C2007 C 0.30388 0.34857 0.73036 0.0
H2008 H 0.26224 0.36116 0.72558 0.0
C2009 C 0.27501 0.38743 0.77392 0.0
C2010 C 0.26019 0.38363 0.7781 0.0
C2011 C 0.28187 0.38055 0.76148 0.0
C2012 C 0.27383 0.35763 0.72717 0.0
H2013 H 0.33623 0.33267 0.68589 0.0
H2014 H 0.3244 0.34753 0.70571 0.0
H2015 H 0.27442 0.34656 0.70571 0.0
H2016 H 0.2408 0.36993 0.77212 0.0
H2017 H 0.25278 0.35784 0.75063 0.0
H2018 H 0.30325 0.35937 0.75192 0.0
C2019 C 0.31809 0.33834 0.7007 0.0
C2020 C 0.28081 0.34926 0.71577 0.0
C2021 C 0.32489 0.32977 0.68933 0.0
C2022 C 0.25222 0.37318 0.76922 0.0
C2023 C 0.25909 0.36627 0.75682 0.0
C2024 C 0.29688 0.35688 0.7418 0.0
C2025 C 0.30321 0.33535 0.70528 0.0
C2026 C 0.2959 0.34455 0.71726 0.0
C2027 C 0.27409 0.36968 0.75292 0.0
C2028 C 0.28174 0.36146 0.7404 0.0
H2029 H 0.29581 0.30568 0.6821 0.0
H2030 H 0.28396 0.32069 0.70178 0.0
H2031 H 0.31545 0.34496 0.73195 0.0
H2032 H 0.28146 0.39548 0.78046 0.0
H2033 H 0.29334 0.38366 0.75865 0.0
C2034 C 0.88824 0.99081 0.01237 0.0
C2035 C 0.88785 0.9965 0.02716 0.0
C2036 C 0.89501 0.99908 1.00075 0.0
C2037 C 0.90832 0.03731 0.9901 0.0
H2038 H 0.93503 0.01529 0.96338 0.0
C2039 C 0.94959 0.06732 0.94929 0.0
C2040 C 0.95132 0.0611 0.9348 0.0
C2041 C 0.94143 0.05965 0.96042 0.0
C2042 C 0.92748 0.0216 0.97061 0.0
H2043 H 0.89377 0.01566 0.0412 0.0
H2044 H 0.90557 0.03003 0.02097 0.0
H2045 H 0.92093 1.00174 0.98267 0.0
H2046 H 0.94546 0.04202 0.92064 0.0
H2047 H 0.93131 0.02871 0.93997 0.0
H2048 H 0.91493 0.05718 0.97806 0.0
C2049 C 0.90059 0.0192 0.01832 0.0
C2050 C 0.91937 0.01382 0.98167 0.0
C2051 C 0.89387 0.01091 0.02994 0.0
C2052 C 0.94466 0.04703 0.93173 0.0
C2053 C 0.9365 0.03939 0.94284 0.0
C2054 C 0.91642 0.0451 0.97902 0.0
C2055 C 0.90149 0.01327 1.00364 0.0
C2056 C 0.9097 0.02157 0.99157 0.0
C2057 C 0.93478 0.04558 0.95733 0.0
C2058 C 0.92613 0.03734 0.96915 0.0
H2059 H 0.88369 0.97977 0.00981 0.0
H2060 H 0.8953 0.99429 0.98952 0.0
H2061 H 0.90084 0.0436 0.99744 0.0
H2062 H 0.9547 0.07804 0.95209 0.0
H2063 H 0.94052 0.06465 0.97153 0.0
C2064 C 0.3267 0.21691 0.31498 0.0
C2065 C 0.33007 0.20149 0.31662 0.0
C2066 C 0.31552 0.22371 0.3238 0.0
C2067 C 0.28182 0.21508 0.34681 0.0
H2068 H 0.28846 0.25516 0.36297 0.0
C2069 C 0.23856 0.24301 0.38652 0.0
C2070 C 0.23494 0.25814 0.38341 0.0
C2071 C 0.25105 0.23616 0.37972 0.0
C2072 C 0.28638 0.24401 0.35846 0.0
H2073 H 0.32424 0.18118 0.32898 0.0
H2074 H 0.30473 0.19301 0.34428 0.0
H2075 H 0.30818 0.24303 0.34809 0.0
H2076 H 0.24207 0.27812 0.37118 0.0
H2077 H 0.26374 0.26618 0.35928 0.0
H2078 H 0.25997 0.21611 0.357 0.0
C2079 C 0.31064 0.19981 0.33604 0.0
C2080 C 0.29768 0.23706 0.34991 0.0
C2081 C 0.32184 0.19301 0.32722 0.0
C2082 C 0.24452 0.26645 0.37387 0.0
C2083 C 0.257 0.2596 0.36706 0.0
C2084 C 0.27052 0.22203 0.35535 0.0
C2085 C 0.30739 0.21527 0.33448 0.0
C2086 C 0.29551 0.22254 0.34389 0.0
C2087 C 0.26023 0.24428 0.36963 0.0
C2088 C 0.27262 0.23662 0.36122 0.0
H2089 H 0.3326 0.22375 0.30677 0.0
H2090 H 0.31312 0.23557 0.3221 0.0
H2091 H 0.27967 0.20398 0.34218 0.0
H2092 H 0.23147 0.23628 0.39386 0.0
H2093 H 0.25337 0.22442 0.38217 0.0
C2094 C 0.02276 0.97639 0.61066 0.0
C2095 C 0.00868 0.97732 0.61788 0.0
C2096 C 0.02953 0.98923 0.60454 0.0
C2097 C 0.02831 0.0312 0.60454 0.0
H2098 H 0.04858 0.02637 0.56607 0.0
C2099 C 0.04813 0.08184 0.56819 0.0
C2100 C 0.06256 0.08076 0.56167 0.0
C2101 C 0.04158 0.06938 0.57533 0.0
C2102 C 0.0431 0.02789 0.57688 0.0
H2103 H 0.99081 0.99258 0.62464 0.0
H2104 H 1.00249 0.01502 0.6137 0.0
H2105 H 0.0372 1.00456 0.57826 0.0
H2106 H 0.08131 0.06567 0.5574 0.0
H2107 H 0.0699 0.04393 0.56988 0.0
H2108 H 0.03407 0.05463 0.60296 0.0
C2109 C 0.00843 1.00437 0.61296 0.0
C2110 C 0.03659 0.01537 0.58391 0.0
C2111 C 1.0017 0.9915 0.6192 0.0
C2112 C 0.07024 0.0669 0.56239 0.0
C2113 C 0.06364 0.05441 0.56943 0.0
C2114 C 0.03475 0.04375 0.59744 0.0
C2115 C 0.02234 1.00336 0.60534 0.0
C2116 C 0.02917 0.01682 0.59788 0.0
C2117 C 0.04925 0.05552 0.57603 0.0
C2118 C 0.04227 0.04223 0.58356 0.0
H2119 H 0.02852 0.96566 0.60957 0.0
H2120 H 0.0404 0.98805 0.5991 0.0
H2121 H 0.02287 0.03273 0.61537 0.0
H2122 H 0.04198 0.09238 0.56801 0.0
H2123 H 0.03043 0.07057 0.58019 0.0
C2124 C 0.19099 0.80427 0.8128 0.0
C2125 C 0.1855 0.81844 0.8174 0.0
C2126 C 0.20233 0.79695 0.82099 0.0
C2127 C 0.2331 0.80368 0.84812 0.0
H2128 H 0.22904 0.76097 0.85663 0.0
C2129 C 0.27573 0.77259 0.8863 0.0
C2130 C 0.28053 0.7583 0.88139 0.0
C2131 C 0.26337 0.77969 0.87949 0.0
C2132 C 0.23043 0.77287 0.85424 0.0
H2133 H 0.18788 0.83595 0.83438 0.0
H2134 H 0.20775 0.8233 0.84843 0.0
H2135 H 0.20947 0.77394 0.84224 0.0
H2136 H 0.27576 0.74006 0.86578 0.0
H2137 H 0.25445 0.75249 0.85379 0.0
H2138 H 0.25416 0.80261 0.85986 0.0
C2139 C 0.2033 0.81791 0.83841 0.0
C2140 C 0.21921 0.78029 0.84599 0.0
C2141 C 0.1919 0.82519 0.83028 0.0
C2142 C 0.27236 0.75105 0.86989 0.0
C2143 C 0.26007 0.75817 0.86303 0.0
C2144 C 0.24437 0.79624 0.8563 0.0
C2145 C 0.20856 0.80365 0.83393 0.0
C2146 C 0.22044 0.79578 0.84279 0.0
C2147 C 0.25556 0.77269 0.86756 0.0
C2148 C 0.24321 0.78072 0.85943 0.0
H2149 H 0.18657 0.7988 0.80283 0.0
H2150 H 0.20632 0.78607 0.81711 0.0
H2151 H 0.23446 0.81558 0.84569 0.0
H2152 H 0.28171 0.77846 0.89519 0.0
H2153 H 0.26004 0.79075 0.88346 0.0
C2154 C 0.48998 0.02639 0.13457 0.0
C2155 C 0.50528 0.02984 0.13218 0.0
C2156 C 0.48347 0.01368 0.12787 0.0
C2157 C 0.49244 0.97749 0.10861 0.0
H2158 H 0.45298 0.98311 0.0905 0.0
C2159 C 0.46729 0.93525 0.06579 0.0
C2160 C 0.45184 0.93179 0.06699 0.0
C2161 C 0.47367 0.94678 0.07447 0.0
C2162 C 0.46392 0.98127 0.09565 0.0
H2163 H 0.52585 0.02226 0.12129 0.0
H2164 H 0.51447 1.00022 0.10951 0.0
H2165 H 0.46441 1.00359 0.10479 0.0
H2166 H 0.43107 0.93779 0.07845 0.0
H2167 H 0.44217 0.95793 0.09348 0.0
H2168 H 0.492 0.95522 0.09926 0.0
C2169 C 0.50752 1.00725 0.11668 0.0
C2170 C 0.47048 0.99302 0.10388 0.0
C2171 C 0.51404 0.01994 0.12341 0.0
C2172 C 0.44294 0.94025 0.07704 0.0
C2173 C 0.44932 0.9518 0.0857 0.0
C2174 C 0.48589 0.96575 0.10034 0.0
C2175 C 0.49208 1.00411 0.1186 0.0
C2176 C 0.48486 0.99132 0.11041 0.0
C2177 C 0.46478 0.95518 0.08454 0.0
C2178 C 0.47158 0.96753 0.09369 0.0
H2179 H 0.48291 0.03371 0.14133 0.0
H2180 H 0.47161 0.01146 0.12982 0.0
H2181 H 0.50343 0.9757 0.11365 0.0
H2182 H 0.47447 0.9292 0.05801 0.0
H2183 H 0.48556 0.94926 0.0731 0.0
C2184 C 0.3271 0.7985 0.20339 0.0
C2185 C 0.33153 0.81334 0.1999 0.0
C2186 C 0.31556 0.79141 0.1953 0.0
C2187 C 0.29417 0.79369 0.15926 0.0
H2188 H 0.26597 0.7677 0.18028 0.0
C2189 C 0.23846 0.77186 0.13272 0.0
C2190 C 0.23417 0.75693 0.13595 0.0
C2191 C 0.25106 0.77828 0.13973 0.0
C2192 C 0.27386 0.77477 0.1742 0.0
H2193 H 0.32707 0.83229 0.185 0.0
H2194 H 0.3067 0.82014 0.17129 0.0
H2195 H 0.2861 0.78002 0.19432 0.0
H2196 H 0.24014 0.73688 0.1487 0.0
H2197 H 0.26211 0.74807 0.16087 0.0
H2198 H 0.28168 0.7886 0.13917 0.0
C2199 C 0.31236 0.81387 0.18013 0.0
C2200 C 0.28543 0.78184 0.18226 0.0
C2201 C 0.32395 0.82093 0.18817 0.0
C2202 C 0.24308 0.74841 0.14597 0.0
C2203 C 0.25562 0.75486 0.15304 0.0
C2204 C 0.28253 0.78668 0.15122 0.0
C2205 C 0.30804 0.79899 0.18354 0.0
C2206 C 0.29574 0.79141 0.1749 0.0
C2207 C 0.25961 0.76994 0.1502 0.0
C2208 C 0.27224 0.77714 0.1586 0.0
H2209 H 0.33248 0.7923 0.21243 0.0
H2210 H 0.31267 0.7799 0.19816 0.0
H2211 H 0.30204 0.80076 0.15316 0.0
H2212 H 0.23185 0.77874 0.12507 0.0
H2213 H 0.25378 0.78995 0.13737 0.0
C2214 C 0.49148 0.9819 0.38892 0.0
C2215 C 0.5072 0.97988 0.38838 0.0
C2216 C 0.48525 0.99476 0.39559 0.0
C2217 C 0.49359 0.02325 0.42433 0.0
H2218 H 0.45892 0.04397 0.40749 0.0
C2219 C 0.46742 0.07581 0.45298 0.0
C2220 C 0.45159 0.07724 0.45272 0.0
C2221 C 0.47467 0.0646 0.44456 0.0
C2222 C 0.46849 0.03821 0.41246 0.0
H2223 H 0.52873 0.99004 0.39405 0.0
H2224 H 0.51782 0.01249 0.40574 0.0
H2225 H 0.47075 0.02354 0.39338 0.0
H2226 H 0.43109 0.06774 0.44323 0.0
H2227 H 0.44363 0.04799 0.4291 0.0
H2228 H 0.49114 0.03759 0.44357 0.0
C2229 C 0.51033 1.00406 0.40106 0.0
C2230 C 0.4753 0.02654 0.40432 0.0
C2231 C 0.51657 0.99125 0.39425 0.0
C2232 C 0.44325 0.06701 0.4439 0.0
C2233 C 0.45049 0.05576 0.43557 0.0
C2234 C 0.48671 0.03485 0.43252 0.0
C2235 C 0.49459 1.00585 0.40199 0.0
C2236 C 0.48787 0.01885 0.41021 0.0
C2237 C 0.4663 0.05443 0.43571 0.0
C2238 C 0.47398 0.04241 0.42675 0.0
H2239 H 0.48394 0.97337 0.3845 0.0
H2240 H 0.47308 0.99574 0.39623 0.0
H2241 H 0.50313 0.01741 0.42927 0.0
H2242 H 0.47428 0.0833 0.45973 0.0
H2243 H 0.48687 0.06404 0.44486 0.0
C2244 C 0.18983 0.21688 0.70665 0.0
C2245 C 0.18583 0.20178 0.70379 0.0
C2246 C 0.20153 0.2238 0.69864 0.0
C2247 C 0.22416 0.22007 0.66351 0.0
H2248 H 0.25104 0.24796 0.68378 0.0
C2249 C 0.28012 0.24143 0.63737 0.0
C2250 C 0.28391 0.25667 0.63958 0.0
C2251 C 0.26752 0.23517 0.64452 0.0
C2252 C 0.24351 0.24034 0.67791 0.0
H2253 H 0.19132 0.18218 0.69015 0.0
H2254 H 0.21195 0.19405 0.67665 0.0
H2255 H 0.23073 0.236 0.69791 0.0
H2256 H 0.27715 0.27738 0.65074 0.0
H2257 H 0.25517 0.26644 0.66318 0.0
H2258 H 0.23718 0.22423 0.64358 0.0
C2259 C 0.20581 0.20065 0.68489 0.0
C2260 C 0.23184 0.23348 0.68601 0.0
C2261 C 0.19406 0.19376 0.69283 0.0
C2262 C 0.27457 0.2656 0.64878 0.0
C2263 C 0.26203 0.25931 0.65601 0.0
C2264 C 0.23589 0.22686 0.65544 0.0
C2265 C 0.20964 0.2158 0.6876 0.0
C2266 C 0.22202 0.22322 0.67893 0.0
C2267 C 0.25848 0.24398 0.65412 0.0
C2268 C 0.24572 0.23706 0.66255 0.0
H2269 H 0.18394 0.22342 0.71509 0.0
H2270 H 0.20404 0.23552 0.70096 0.0
H2271 H 0.21666 0.21246 0.6576 0.0
H2272 H 0.28706 0.23423 0.63036 0.0
H2273 H 0.26514 0.2233 0.64291 0.0
C2274 C 0.06643 0.94637 0.94521 0.0
C2275 C 0.05931 0.93311 0.95021 0.0
C2276 C 0.05831 0.95741 0.93735 0.0
C2277 C 0.01938 0.97084 0.92975 0.0
H2278 H 0.03813 0.99103 0.89577 0.0
C2279 C 0.98591 0.0119 0.89179 0.0
C2280 C 0.99309 0.0256 0.88826 0.0
C2281 C 0.99403 1.00001 0.8983 0.0
C2282 C 0.03277 0.98558 0.90529 0.0
H2283 H 0.038 0.92108 0.95069 0.0
H2284 H 0.02389 0.94027 0.93703 0.0
H2285 H 0.05215 0.9718 0.90964 0.0
H2286 H 0.0146 0.03727 0.88824 0.0
H2287 H 0.02871 0.01658 0.89958 0.0
H2288 H 1.00003 0.98465 0.92545 0.0
C2289 C 0.03571 0.94227 0.9394 0.0
C2290 C 0.04082 0.97457 0.91328 0.0
C2291 C 0.04382 0.93124 0.94727 0.0
C2292 C 0.0087 0.02688 0.89081 0.0
C2293 C 0.01682 0.01498 0.89727 0.0
C2294 C 0.01133 0.98182 0.92175 0.0
C2295 C 0.04286 0.95547 0.93426 0.0
C2296 C 0.03425 0.9671 0.92566 0.0
C2297 C 0.00953 1.00151 0.90138 0.0
C2298 C 0.01793 0.98937 0.90946 0.0
H2299 H 0.07828 0.94826 0.94744 0.0
H2300 H 0.06413 0.96755 0.93381 0.0
H2301 H 0.01404 0.9655 0.93935 0.0
H2302 H 0.97391 0.0105 0.88996 0.0
H2303 H 0.98812 0.9897 0.9011 0.0
C2304 C 0.31981 0.3218 0.20243 0.0
C2305 C 0.31476 0.33505 0.20955 0.0
C2306 C 0.32751 0.31068 0.2106 0.0
C2307 C 0.33414 0.29672 0.24942 0.0
H2308 H 0.36899 0.27727 0.23151 0.0
C2309 C 0.37093 0.25506 0.28343 0.0
C2310 C 0.37519 0.24171 0.276 0.0
C2311 C 0.36462 0.2671 0.27536 0.0
C2312 C 0.35921 0.2825 0.23664 0.0
H2313 H 0.31404 0.34692 0.23097 0.0
H2314 H 0.32731 0.32754 0.24515 0.0
H2315 H 0.35539 0.2966 0.21737 0.0
H2316 H 0.37666 0.23082 0.25413 0.0
H2317 H 0.3656 0.2517 0.24013 0.0
H2318 H 0.33783 0.28254 0.26861 0.0
C2319 C 0.32515 0.32566 0.23327 0.0
C2320 C 0.3514 0.29357 0.22852 0.0
C2321 C 0.31748 0.33679 0.22511 0.0
C2322 C 0.37354 0.24093 0.26024 0.0
C2323 C 0.36723 0.25295 0.25218 0.0
C2324 C 0.34193 0.28564 0.25753 0.0
C2325 C 0.33034 0.31251 0.22611 0.0
C2326 C 0.33873 0.30078 0.23478 0.0
C2327 C 0.36242 0.26608 0.25967 0.0
C2328 C 0.35455 0.27834 0.25123 0.0
H2329 H 0.31775 0.31997 0.19054 0.0
H2330 H 0.33113 0.30057 0.20478 0.0
H2331 H 0.32431 0.30189 0.25451 0.0
H2332 H 0.37208 0.25609 0.29555 0.0
H2333 H 0.3613 0.27714 0.28146 0.0
C2334 C 0.81176 0.18708 0.79688 0.0
C2335 C 0.81883 0.18003 0.8092 0.0
C2336 C 0.81912 0.1985 0.78884 0.0
C2337 C 0.85141 0.22538 0.79142 0.0
H2338 H 0.84498 0.22868 0.74829 0.0
C2339 C 0.87196 0.27693 0.75715 0.0
C2340 C 0.87638 0.27483 0.74207 0.0
C2341 C 0.86581 0.26502 0.76547 0.0
C2342 C 0.8471 0.22783 0.76029 0.0
H2343 H 0.83929 0.17924 0.82256 0.0
H2344 H 0.85228 0.19885 0.80839 0.0
H2345 H 0.83272 0.20859 0.7623 0.0
H2346 H 0.87836 0.25838 0.7241 0.0
H2347 H 0.86814 0.23747 0.73874 0.0
H2348 H 0.86623 0.24429 0.78931 0.0
C2349 C 0.84088 0.19592 0.80515 0.0
C2350 C 0.83983 0.21642 0.7684 0.0
C2351 C 0.83344 0.18463 0.81329 0.0
C2352 C 0.87499 0.26041 0.73567 0.0
C2353 C 0.86899 0.24844 0.74404 0.0
C2354 C 0.8588 0.2367 0.78328 0.0
C2355 C 0.83383 0.20303 0.79281 0.0
C2356 C 0.84179 0.21508 0.78411 0.0
C2357 C 0.86406 0.25064 0.75899 0.0
C2358 C 0.85668 0.23817 0.7676 0.0
H2359 H 0.80045 0.18388 0.79358 0.0
H2360 H 0.81318 0.20388 0.77962 0.0
H2361 H 0.85309 0.22487 0.80351 0.0
H2362 H 0.87277 0.28792 0.76242 0.0
H2363 H 0.86197 0.26726 0.77685 0.0
C2364 C 0.99273 0.62196 1.00106 0.0
C2365 C 0.98077 0.62727 0.01003 0.0
C2366 C 1.00546 0.61535 1.00774 0.0
C2367 C 0.01663 0.59601 0.04306 0.0
H2368 H 0.05706 0.59937 0.02676 0.0
C2369 C 0.0682 0.56939 0.07277 0.0
C2370 C 0.07875 0.56186 0.06361 0.0
C2371 C 0.05673 0.57814 0.06635 0.0
C2372 C 0.04581 0.59823 0.03137 0.0
H2373 H 0.97324 0.63065 0.03306 0.0
H2374 H 0.99553 0.61954 0.04466 0.0
H2375 H 0.03654 0.61393 0.01546 0.0
H2376 H 0.08528 0.5576 0.04039 0.0
H2377 H 0.06535 0.57292 0.02924 0.0
H2378 H 0.02585 0.58031 0.05893 0.0
C2379 C 0.99492 0.62005 0.03247 0.0
C2380 C 0.03404 0.60658 0.02489 0.0
C2381 C 0.98218 0.62655 0.02581 0.0
C2382 C 0.07754 0.56339 0.04784 0.0
C2383 C 0.06609 0.57219 0.04142 0.0
C2384 C 0.02838 0.58774 0.04956 0.0
C2385 C 1.00654 0.61398 0.02353 0.0
C2386 C 0.01928 0.60555 0.03064 0.0
C2387 C 0.05552 0.57963 0.0506 0.0
C2388 C 0.04311 0.5887 0.04378 0.0
H2389 H 0.99197 0.62226 0.98887 0.0
H2390 H 0.01412 0.61072 1.00048 0.0
H2391 H 1.00537 0.59465 0.0476 0.0
H2392 H 0.06889 0.56871 0.08493 0.0
H2393 H 0.0489 0.58389 0.07375 0.0
C2394 C 0.6446 0.74042 0.25897 0.0
C2395 C 0.63973 0.74208 0.24395 0.0
C2396 C 0.65085 0.7526 0.26679 0.0
C2397 C 0.66986 0.78912 0.26021 0.0
H2398 H 0.66295 0.79479 0.30303 0.0
C2399 C 0.69343 0.84047 0.2927 0.0
C2400 C 0.69987 0.83767 0.30695 0.0
C2401 C 0.68539 0.82922 0.28513 0.0
C2402 C 0.66509 0.79328 0.2911 0.0
H2403 H 0.6372 0.75803 0.22555 0.0
H2404 H 0.64787 0.77935 0.23929 0.0
H2405 H 0.64973 0.77472 0.28965 0.0
H2406 H 0.70283 0.82068 0.32434 0.0
H2407 H 0.68873 0.80111 0.31118 0.0
H2408 H 0.68524 0.80767 0.26167 0.0
C2409 C 0.64711 0.76854 0.24493 0.0
C2410 C 0.65751 0.78177 0.28342 0.0
C2411 C 0.64088 0.75633 0.23708 0.0
C2412 C 0.6979 0.82334 0.31349 0.0
C2413 C 0.6898 0.8121 0.30593 0.0
C2414 C 0.67739 0.80066 0.26787 0.0
C2415 C 0.65236 0.76677 0.25982 0.0
C2416 C 0.65987 0.77947 0.26789 0.0
C2417 C 0.6835 0.81488 0.29163 0.0
C2418 C 0.67518 0.80282 0.28343 0.0
H2419 H 0.64393 0.7296 0.26461 0.0
H2420 H 0.65492 0.75075 0.27816 0.0
H2421 H 0.67217 0.78753 0.24832 0.0
H2422 H 0.69443 0.85142 0.2874 0.0
H2423 H 0.68048 0.83182 0.27424 0.0
C2424 C 0.02936 0.89332 0.01286 0.0
C2425 C 0.02639 0.88762 0.99835 0.0
C2426 C 0.01791 0.90019 0.02128 0.0
C2427 C 0.98221 0.92048 0.01609 0.0
H2428 H 0.97691 0.914 0.05903 0.0
C2429 C 0.93186 0.94582 0.04839 0.0
C2430 C 0.93427 0.95115 0.06313 0.0
C2431 C 0.94312 0.93785 0.04078 0.0
C2432 C 0.97836 0.9161 0.04708 0.0
H2433 H 0.0089 0.88421 0.98155 0.0
H2434 H 0.98897 0.89618 0.99625 0.0
H2435 H 0.9963 0.89993 0.04542 0.0
H2436 H 0.9505 0.95242 0.08135 0.0
H2437 H 0.97032 0.93871 0.06799 0.0
H2438 H 0.96453 0.9368 0.0177 0.0
C2439 C 1.00019 0.89546 1.00104 0.0
C2440 C 0.98944 0.90799 0.03928 0.0
C2441 C 0.0116 0.88849 0.99267 0.0
C2442 C 0.94826 0.94836 0.07006 0.0
C2443 C 0.95959 0.94045 0.06241 0.0
C2444 C 0.97123 0.92865 0.02389 0.0
C2445 C 1.00328 0.90161 0.01533 0.0
C2446 C 0.99144 0.91004 0.02368 0.0
C2447 C 0.95715 0.93506 0.04767 0.0
C2448 C 0.9691 0.92653 0.03948 0.0
H2449 H 0.04062 0.89283 0.01758 0.0
H2450 H 0.02067 0.90489 0.03221 0.0
H2451 H 0.98367 0.92254 1.00413 0.0
H2452 H 0.92111 0.94747 0.04282 0.0
H2453 H 0.94069 0.93363 0.02958 0.0
C2454 C 0.19952 0.68411 0.7204 0.0
C2455 C 0.20329 0.68583 0.70509 0.0
C2456 C 0.19218 0.69567 0.72821 0.0
C2457 C 0.16906 0.73004 0.72224 0.0
H2458 H 0.17947 0.73796 0.76398 0.0
C2459 C 0.1472 0.78197 0.75562 0.0
C2460 C 0.14307 0.77963 0.77076 0.0
C2461 C 0.15396 0.7704 0.74726 0.0
C2462 C 0.17631 0.73578 0.75238 0.0
H2463 H 0.20255 0.70118 0.68608 0.0
H2464 H 0.1899 0.72147 0.69975 0.0
H2465 H 0.1929 0.71841 0.75014 0.0
H2466 H 0.14242 0.76311 0.78884 0.0
H2467 H 0.15413 0.74298 0.77425 0.0
H2468 H 0.15255 0.74758 0.72451 0.0
C2469 C 0.19236 0.71105 0.70565 0.0
C2470 C 0.18401 0.72456 0.74443 0.0
C2471 C 0.19966 0.69945 0.69782 0.0
C2472 C 0.14548 0.76533 0.77722 0.0
C2473 C 0.1523 0.75381 0.76889 0.0
C2474 C 0.16139 0.74133 0.73018 0.0
C2475 C 0.18846 0.70928 0.72094 0.0
C2476 C 0.18045 0.72149 0.72928 0.0
C2477 C 0.15681 0.75627 0.75389 0.0
C2478 C 0.16489 0.74428 0.74537 0.0
H2479 H 0.20186 0.67367 0.72629 0.0
H2480 H 0.18911 0.69377 0.73989 0.0
H2481 H 0.16585 0.72784 0.71066 0.0
H2482 H 0.14552 0.79284 0.75029 0.0
H2483 H 0.15738 0.77269 0.73576 0.0
C2484 C 0.98889 0.38994 0.50683 0.0
C2485 C 0.99105 0.38534 0.52188 0.0
C2486 C 1.00071 0.39642 0.49862 0.0
C2487 C 0.03666 0.41673 0.5044 0.0
H2488 H 0.04224 0.40957 0.46161 0.0
C2489 C 0.08753 0.44089 0.47173 0.0
C2490 C 0.08478 0.44696 0.45731 0.0
C2491 C 0.07634 0.43281 0.47935 0.0
C2492 C 0.04074 0.4118 0.47353 0.0
H2493 H 1.00756 0.38342 0.53986 0.0
H2494 H 0.02821 0.39447 0.52547 0.0
H2495 H 0.02257 0.39597 0.47527 0.0
H2496 H 0.06795 0.44924 0.43968 0.0
H2497 H 0.04843 0.43513 0.45297 0.0
H2498 H 0.05478 0.43258 0.50268 0.0
C2499 C 0.01729 0.39335 0.52011 0.0
C2500 C 0.02946 0.40399 0.48137 0.0
C2501 C 1.00546 0.38689 0.52832 0.0
C2502 C 0.07055 0.4446 0.45067 0.0
C2503 C 0.05935 0.43649 0.4583 0.0
C2504 C 0.04794 0.4245 0.49658 0.0
C2505 C 0.015 0.39845 0.50524 0.0
C2506 C 0.02726 0.40638 0.49691 0.0
C2507 C 0.06209 0.43054 0.47276 0.0
C2508 C 0.05011 0.42216 0.48105 0.0
H2509 H 0.97793 0.38895 0.50151 0.0
H2510 H 0.99848 0.40033 0.48726 0.0
H2511 H 0.03511 0.4191 0.51628 0.0
H2512 H 0.09841 0.44217 0.4771 0.0
H2513 H 0.07892 0.42816 0.49036 0.0
C2514 C 0.44521 0.57534 0.94184 0.0
C2515 C 0.43748 0.56404 0.94989 0.0
C2516 C 0.4567 0.5837 0.94869 0.0
C2517 C 0.47079 0.59556 0.98599 0.0
H2518 H 0.50781 0.60416 0.96437 0.0
C2519 C 0.52348 0.62067 0.01514 0.0
C2520 C 0.53266 0.63063 1.00689 0.0
C2521 C 0.51128 0.61341 0.00825 0.0
C2522 C 0.49745 0.60209 0.9705 0.0
H2523 H 0.43625 0.55248 0.97145 0.0
H2524 H 0.45616 0.56714 0.9834 0.0
H2525 H 0.48804 0.58949 0.95217 0.0
H2526 H 0.53579 0.64127 0.98507 0.0
H2527 H 0.51432 0.62889 0.97315 0.0
H2528 H 0.48014 0.6082 1.0043 0.0
C2529 C 0.45315 0.56965 0.97182 0.0
C2530 C 0.48613 0.59362 0.96351 0.0
C2531 C 0.44172 0.56123 0.96494 0.0
C2532 C 0.529 0.63361 0.99174 0.0
C2533 C 0.51676 0.6264 0.98486 0.0
C2534 C 0.48207 0.6041 0.99296 0.0
C2535 C 0.46072 0.58104 0.9638 0.0
C2536 C 0.4727 0.59018 0.97119 0.0
C2537 C 0.50791 0.61599 0.99295 0.0
C2538 C 0.49559 0.60742 0.98534 0.0
H2539 H 0.44218 0.57804 0.93033 0.0
H2540 H 0.46219 0.59251 0.94225 0.0
H2541 H 0.46047 0.59331 0.99213 0.0
H2542 H 0.52599 0.61806 0.02682 0.0
H2543 H 0.50484 0.60537 0.01481 0.0
C2544 C 0.70065 0.81997 0.82068 0.0
C2545 C 0.70771 0.81665 0.8345 0.0
C2546 C 0.70847 0.82751 0.80923 0.0
C2547 C 0.74707 0.83661 0.7961 0.0
H2548 H 0.72663 0.86738 0.77261 0.0
C2549 C 0.77884 0.87341 0.75268 0.0
C2550 C 0.77169 0.87562 0.73869 0.0
C2551 C 0.77098 0.86705 0.76481 0.0
C2552 C 0.73247 0.85874 0.77898 0.0
H2553 H 0.72858 0.81889 0.84711 0.0
H2554 H 0.74219 0.83199 0.8272 0.0
H2555 H 0.71309 0.85436 0.79271 0.0
H2556 H 0.7505 0.87325 0.72663 0.0
H2557 H 0.73686 0.86213 0.74772 0.0
H2558 H 0.76642 0.84093 0.78232 0.0
C2559 C 0.73066 0.82856 0.82511 0.0
C2560 C 0.7247 0.85125 0.7905 0.0
C2561 C 0.72284 0.82101 0.83655 0.0
C2562 C 0.75637 0.87173 0.73724 0.0
C2563 C 0.74851 0.86541 0.74937 0.0
C2564 C 0.75484 0.84411 0.78459 0.0
C2565 C 0.72357 0.83194 0.81132 0.0
C2566 C 0.73188 0.84004 0.79916 0.0
C2567 C 0.75577 0.8628 0.76325 0.0
C2568 C 0.74763 0.85522 0.77584 0.0
H2569 H 0.68909 0.8166 0.81863 0.0
H2570 H 0.70273 0.82971 0.79866 0.0
H2571 H 0.75289 0.8279 0.80239 0.0
H2572 H 0.79061 0.8763 0.7542 0.0
H2573 H 0.77685 0.86541 0.7754 0.0
C2574 C 0.44908 0.47165 0.08606 0.0
C2575 C 0.45341 0.45648 0.08433 0.0
C2576 C 0.44121 0.47914 0.07462 0.0
C2577 C 0.43298 0.47788 0.03382 0.0
H2578 H 0.39974 0.50425 0.04452 0.0
C2579 C 0.39569 0.50581 0.98835 0.0
C2580 C 0.39211 0.52112 0.99046 0.0
C2581 C 0.40218 0.49738 1.00001 0.0
C2582 C 0.40907 0.49704 0.04135 0.0
H2583 H 0.45302 0.4374 0.06906 0.0
H2584 H 0.43914 0.45044 0.04913 0.0
H2585 H 0.41333 0.49072 0.06428 0.0
H2586 H 0.39215 0.53943 1.00668 0.0
H2587 H 0.40359 0.52478 0.02695 0.0
H2588 H 0.42885 0.4843 0.01092 0.0
C2589 C 0.44193 0.45656 0.05933 0.0
C2590 C 0.41687 0.48928 0.05267 0.0
C2591 C 0.44977 0.44904 0.0708 0.0
C2592 C 0.39472 0.52766 1.00467 0.0
C2593 C 0.40124 0.51923 0.01632 0.0
C2594 C 0.4252 0.48565 0.02249 0.0
C2595 C 0.43748 0.47168 0.06114 0.0
C2596 C 0.42897 0.47967 0.04905 0.0
C2597 C 0.40528 0.50405 0.01406 0.0
C2598 C 0.41318 0.49538 0.02611 0.0
H2599 H 0.45149 0.4777 0.09637 0.0
H2600 H 0.43811 0.49084 0.07632 0.0
H2601 H 0.44237 0.47073 0.03066 0.0
H2602 H 0.39377 0.50038 0.97757 0.0
H2603 H 0.40489 0.48564 0.99796 0.0
C2604 C 0.79914 0.20312 0.32602 0.0
C2605 C 0.81409 0.19947 0.3299 0.0
C2606 C 0.79132 0.19466 0.31524 0.0
C2607 C 0.77445 0.16997 0.29853 0.0
H2608 H 0.79541 0.15563 0.26294 0.0
C2609 C 0.74541 0.13121 0.25465 0.0
C2610 C 0.7481 0.13462 0.2394 0.0
C2611 C 0.7539 0.13812 0.26606 0.0
C2612 C 0.78935 0.1596 0.27278 0.0
H2613 H 0.83244 0.18389 0.3256 0.0
H2614 H 0.81882 0.16906 0.30692 0.0
H2615 H 0.80907 0.17019 0.28178 0.0
H2616 H 0.76209 0.14779 0.2242 0.0
H2617 H 0.77667 0.15988 0.24397 0.0
H2618 H 0.7546 0.15981 0.28925 0.0
C2619 C 0.8132 0.17866 0.31198 0.0
C2620 C 0.79724 0.16782 0.28368 0.0
C2621 C 0.82104 0.18717 0.3227 0.0
C2622 C 0.7597 0.14484 0.23582 0.0
C2623 C 0.76815 0.15174 0.24718 0.0
C2624 C 0.76654 0.16178 0.28759 0.0
C2625 C 0.79823 0.18227 0.30812 0.0
C2626 C 0.78988 0.1732 0.29666 0.0
C2627 C 0.76528 0.14859 0.26246 0.0
C2628 C 0.77387 0.15658 0.27451 0.0
H2629 H 0.79353 0.21264 0.33121 0.0
H2630 H 0.77991 0.19796 0.31236 0.0
H2631 H 0.76844 0.17375 0.30847 0.0
H2632 H 0.73658 0.12338 0.25782 0.0
H2633 H 0.75151 0.13528 0.2777 0.0
C2634 C 0.07645 0.57343 0.57386 0.0
C2635 C 0.06569 0.56508 0.58201 0.0
C2636 C 0.08507 0.56661 0.56252 0.0
C2637 C 0.0983 0.52941 0.54906 0.0
H2638 H 0.10472 0.55041 0.51122 0.0
C2639 C 0.12166 0.49978 0.49583 0.0
C2640 C 0.131 0.50805 0.48603 0.0
C2641 C 0.11487 0.50675 0.50825 0.0
C2642 C 0.10326 0.54446 0.5218 0.0
H2643 H 0.05541 0.54297 0.58426 0.0
H2644 H 0.07047 0.53112 0.56461 0.0
H2645 H 0.09042 0.5626 0.53126 0.0
H2646 H 0.14104 0.53 0.48202 0.0
H2647 H 0.12944 0.54206 0.50384 0.0
H2648 H 0.11111 0.51125 0.53959 0.0
C2649 C 0.0724 0.54291 0.56716 0.0
C2650 C 0.09502 0.55146 0.53329 0.0
C2651 C 0.06375 0.54973 0.57845 0.0
C2652 C 0.13385 0.52331 0.48929 0.0
C2653 C 0.12709 0.53026 0.50174 0.0
C2654 C 0.10659 0.52243 0.53759 0.0
C2655 C 0.08318 0.55125 0.55907 0.0
C2656 C 0.09233 0.54397 0.54702 0.0
C2657 C 0.11729 0.52214 0.51123 0.0
C2658 C 0.1091 0.52982 0.52376 0.0
H2659 H 0.07846 0.58519 0.57639 0.0
H2660 H 0.0934 0.57333 0.55663 0.0
H2661 H 0.09664 0.52342 0.55958 0.0
H2662 H 0.11917 0.48803 0.49365 0.0
H2663 H 0.10728 0.50016 0.5152 0.0
C2664 C 0.69439 0.193 0.69352 0.0
C2665 C 0.70325 0.20034 0.68255 0.0
C2666 C 0.70113 0.18499 0.70535 0.0
C2667 C 0.73757 0.1808 0.72588 0.0
H2668 H 0.71884 0.14441 0.74131 0.0
C2669 C 0.76611 0.14367 0.77137 0.0
C2670 C 0.75691 0.13988 0.78372 0.0
C2671 C 0.75981 0.1499 0.75828 0.0
C2672 C 0.72417 0.15458 0.73715 0.0
H2673 H 0.72641 0.20482 0.67577 0.0
H2674 H 0.73798 0.19048 0.6959 0.0
H2675 H 0.70744 0.15763 0.72 0.0
H2676 H 0.73381 0.13907 0.79176 0.0
H2677 H 0.72283 0.14973 0.76886 0.0
H2678 H 0.75436 0.17763 0.74299 0.0
C2679 C 0.72579 0.19117 0.69554 0.0
C2680 C 0.7176 0.16222 0.72497 0.0
C2681 C 0.71907 0.1993 0.68379 0.0
C2682 C 0.74122 0.14189 0.78245 0.0
C2683 C 0.73491 0.14794 0.76931 0.0
C2684 C 0.74421 0.17307 0.73795 0.0
C2685 C 0.71693 0.18394 0.70653 0.0
C2686 C 0.72414 0.17552 0.71924 0.0
C2687 C 0.74415 0.15228 0.75719 0.0
C2688 C 0.73752 0.15995 0.7438 0.0
H2689 H 0.68222 0.19334 0.69302 0.0
H2690 H 0.6939 0.17977 0.7137 0.0
H2691 H 0.74281 0.19112 0.72201 0.0
H2692 H 0.77824 0.14231 0.77199 0.0
H2693 H 0.7672 0.153 0.74906 0.0
C2694 C 0.08216 0.44169 0.93963 0.0
C2695 C 0.06979 0.44893 0.93276 0.0
C2696 C 0.09041 0.44885 0.95101 0.0
C2697 C 0.0991 0.48647 0.96666 0.0
H2698 H 0.11067 0.46403 1.0024 0.0
C2699 C 0.12089 0.51532 0.02092 0.0
C2700 C 0.13172 0.50779 0.02976 0.0
C2701 C 0.11462 0.50837 0.00823 0.0
C2702 C 0.10777 0.47042 0.9924 0.0
H2703 H 0.0563 0.46938 0.93287 0.0
H2704 H 0.07075 0.48186 0.95259 0.0
H2705 H 0.09701 0.45136 0.98221 0.0
H2706 H 0.14499 0.48731 0.03171 0.0
H2707 H 0.13428 0.47532 0.00939 0.0
H2708 H 0.10983 0.50555 0.97684 0.0
C2709 C 0.07418 0.4707 0.94899 0.0
C2710 C 0.09989 0.46315 0.98083 0.0
C2711 C 0.06588 0.46351 0.93766 0.0
C2712 C 0.13661 0.49341 0.02521 0.0
C2713 C 0.13037 0.48648 0.01247 0.0
C2714 C 0.10705 0.49374 0.9782 0.0
C2715 C 0.08656 0.46347 0.95578 0.0
C2716 C 0.09535 0.47111 0.96788 0.0
C2717 C 0.11906 0.49374 1.004 0.0
C2718 C 0.11139 0.48584 0.99128 0.0
H2719 H 0.08569 0.43058 0.93605 0.0
H2720 H 0.1 0.44304 0.95588 0.0
H2721 H 0.09598 0.49287 0.95672 0.0
H2722 H 0.11681 0.52639 0.0241 0.0
H2723 H 0.10584 0.51426 1.00209 0.0
C2724 C 0.7512 0.87486 0.26734 0.0
C2725 C 0.75961 0.88451 0.27671 0.0
C2726 C 0.75793 0.86786 0.25491 0.0
C2727 C 0.79539 0.85614 0.2409 0.0
H2728 H 0.77363 0.84837 0.20375 0.0
C2729 C 0.82334 0.82751 0.18923 0.0
C2730 C 0.81475 0.81662 0.18151 0.0
C2731 C 0.81678 0.8365 0.20042 0.0
C2732 C 0.77982 0.85034 0.2141 0.0
H2733 H 0.78153 0.89492 0.27989 0.0
H2734 H 0.79318 0.88292 0.25805 0.0
H2735 H 0.76183 0.86341 0.22353 0.0
H2736 H 0.79253 0.80649 0.1799 0.0
H2737 H 0.78112 0.82216 0.19932 0.0
H2738 H 0.81335 0.84299 0.2315 0.0
C2739 C 0.78146 0.88051 0.26051 0.0
C2740 C 0.77305 0.85898 0.22545 0.0
C2741 C 0.77473 0.88749 0.27297 0.0
C2742 C 0.79945 0.81491 0.18537 0.0
C2743 C 0.79289 0.82392 0.19653 0.0
C2744 C 0.80217 0.84754 0.22954 0.0
C2745 C 0.77323 0.87037 0.25149 0.0
C2746 C 0.7807 0.86189 0.23904 0.0
C2747 C 0.80145 0.83486 0.20416 0.0
C2748 C 0.79442 0.84443 0.21605 0.0
H2749 H 0.73954 0.87227 0.2699 0.0
H2750 H 0.75127 0.86002 0.24833 0.0
H2751 H 0.80153 0.85791 0.25131 0.0
H2752 H 0.83508 0.82933 0.18644 0.0
H2753 H 0.82366 0.84494 0.20595 0.0
C2754 C 0.3947 0.51089 0.52994 0.0
C2755 C 0.38837 0.49656 0.52743 0.0
C2756 C 0.40115 0.51903 0.51806 0.0
C2757 C 0.41889 0.51353 0.48103 0.0
H2758 H 0.41312 0.55667 0.47664 0.0
C2759 C 0.4431 0.54642 0.43025 0.0
C2760 C 0.44902 0.56088 0.43294 0.0
C2761 C 0.43519 0.53873 0.44153 0.0
C2762 C 0.41501 0.54466 0.47781 0.0
H2763 H 0.38358 0.47972 0.51034 0.0
H2764 H 0.39486 0.49394 0.48962 0.0
H2765 H 0.39992 0.54311 0.49663 0.0
H2766 H 0.4514 0.5785 0.44968 0.0
H2767 H 0.43778 0.56505 0.46944 0.0
H2768 H 0.43417 0.51505 0.46242 0.0
C2769 C 0.39491 0.49881 0.50082 0.0
C2770 C 0.40739 0.53688 0.48924 0.0
C2771 C 0.38835 0.49072 0.51269 0.0
C2772 C 0.44683 0.56747 0.44719 0.0
C2773 C 0.43898 0.55975 0.4585 0.0
C2774 C 0.42657 0.52131 0.46965 0.0
C2775 C 0.40153 0.51299 0.50341 0.0
C2776 C 0.40926 0.52123 0.491 0.0
C2777 C 0.43305 0.54527 0.45582 0.0
C2778 C 0.42475 0.53699 0.46789 0.0
H2779 H 0.39491 0.51573 0.54116 0.0
H2780 H 0.40626 0.52986 0.52046 0.0
H2781 H 0.42077 0.50152 0.48223 0.0
H2782 H 0.44434 0.54111 0.41933 0.0
H2783 H 0.43056 0.52774 0.43894 0.0
C2784 C 0.73957 0.75567 0.87468 0.0
C2785 C 0.74226 0.7696 0.88176 0.0
C2786 C 0.75142 0.74752 0.86818 0.0
C2787 C 0.78924 0.75309 0.85199 0.0
H2788 H 0.79159 0.70946 0.85394 0.0
C2789 C 0.83923 0.72029 0.82624 0.0
C2790 C 0.83599 0.70682 0.81853 0.0
C2791 C 0.82813 0.7276 0.83472 0.0
C2792 C 0.79101 0.72163 0.85315 0.0
H2793 H 0.75965 0.78563 0.88801 0.0
H2794 H 0.78034 0.77136 0.87676 0.0
H2795 H 0.77181 0.72268 0.86781 0.0
H2796 H 0.81844 0.69051 0.81371 0.0
H2797 H 0.799 0.7033 0.82841 0.0
H2798 H 0.80826 0.75208 0.83719 0.0
C2799 C 0.76901 0.76684 0.87607 0.0
C2800 C 0.77969 0.72922 0.86113 0.0
C2801 C 0.75716 0.77496 0.88262 0.0
C2802 C 0.82137 0.70077 0.81963 0.0
C2803 C 0.81023 0.7081 0.82809 0.0
C2804 C 0.80052 0.74552 0.84399 0.0
C2805 C 0.76625 0.75313 0.86857 0.0
C2806 C 0.77864 0.74504 0.86061 0.0
C2807 C 0.81345 0.72165 0.83569 0.0
C2808 C 0.80153 0.72969 0.84442 0.0
H2809 H 0.72824 0.75119 0.8738 0.0
H2810 H 0.74887 0.73708 0.86239 0.0
H2811 H 0.78859 0.76526 0.85111 0.0
H2812 H 0.85043 0.72513 0.82591 0.0
H2813 H 0.8311 0.73785 0.84065 0.0
C2814 C 0.51344 0.4898 0.12489 0.0
C2815 C 0.49908 0.49255 0.13108 0.0
C2816 C 0.52171 0.50149 0.11827 0.0
C2817 C 0.51623 0.53833 0.09993 0.0
H2818 H 0.55957 0.54218 0.10448 0.0
C2819 C 0.54874 0.58867 0.07477 0.0
C2820 C 0.56284 0.58581 0.06809 0.0
C2821 C 0.54134 0.57748 0.08303 0.0
C2822 C 0.54749 0.54116 0.10295 0.0
H2823 H 0.48242 0.5099 0.13561 0.0
H2824 H 0.49689 0.53029 0.12413 0.0
H2825 H 0.54611 0.52251 0.11831 0.0
H2826 H 0.58021 0.5689 0.06491 0.0
H2827 H 0.56722 0.54927 0.07924 0.0
H2828 H 0.51756 0.55678 0.08445 0.0
C2829 C 0.50166 0.51904 0.12424 0.0
C2830 C 0.53977 0.52991 0.11091 0.0
C2831 C 0.49342 0.50736 0.13092 0.0
C2832 C 0.56943 0.57151 0.07002 0.0
C2833 C 0.56198 0.56027 0.07826 0.0
C2834 C 0.52393 0.54952 0.09194 0.0
C2835 C 0.5158 0.5162 0.11762 0.0
C2836 C 0.52405 0.52837 0.1095 0.0
C2837 C 0.5478 0.5631 0.08482 0.0
C2838 C 0.53967 0.55111 0.09335 0.0
H2839 H 0.51816 0.47853 0.12482 0.0
H2840 H 0.53251 0.49889 0.11318 0.0
H2841 H 0.50416 0.53727 0.09835 0.0
H2842 H 0.54348 0.59964 0.07381 0.0
H2843 H 0.53059 0.58017 0.08818 0.0
C2844 C 0.6962 0.32314 0.32523 0.0
C2845 C 0.68748 0.3149 0.31482 0.0
C2846 C 0.70805 0.31629 0.33309 0.0
C2847 C 0.72213 0.27929 0.34577 0.0
H2848 H 0.76037 0.3001 0.34976 0.0
C2849 C 0.776 0.25004 0.36852 0.0
C2850 C 0.78639 0.25871 0.37681 0.0
C2851 C 0.76335 0.2568 0.3619 0.0
C2852 C 0.7497 0.29421 0.349 0.0
H2853 H 0.68483 0.29289 0.30441 0.0
H2854 H 0.70532 0.28095 0.31829 0.0
H2855 H 0.73973 0.31208 0.33613 0.0
H2856 H 0.79118 0.28114 0.38527 0.0
H2857 H 0.76893 0.29283 0.37412 0.0
H2858 H 0.73203 0.26147 0.35874 0.0
C2859 C 0.70283 0.29271 0.32043 0.0
C2860 C 0.73788 0.30108 0.34111 0.0
C2861 C 0.69105 0.2996 0.31247 0.0
C2862 C 0.78347 0.27415 0.37887 0.0
C2863 C 0.77076 0.28089 0.37235 0.0
C2864 C 0.73392 0.27246 0.35376 0.0
C2865 C 0.71145 0.30097 0.33085 0.0
C2866 C 0.72397 0.29368 0.33935 0.0
C2867 C 0.7607 0.27237 0.3635 0.0
C2868 C 0.7479 0.27981 0.35545 0.0
H2869 H 0.69375 0.33485 0.3276 0.0
H2870 H 0.71437 0.32292 0.34118 0.0
H2871 H 0.71148 0.27339 0.34478 0.0
H2872 H 0.77794 0.23813 0.36663 0.0
H2873 H 0.75597 0.24989 0.35506 0.0
C2874 C 1.00607 0.52616 0.62266 0.0
C2875 C 0.02174 0.52507 0.6249 0.0
C2876 C 0.99802 0.51424 0.6162 0.0
C2877 C 1.00007 0.4734 0.60702 0.0
H2878 H 0.96974 0.48384 0.57722 0.0
C2879 C 0.97239 0.42876 0.56829 0.0
C2880 C 0.95673 0.42991 0.5659 0.0
C2881 C 0.98029 0.44029 0.57562 0.0
C2882 C 0.97805 0.48072 0.58563 0.0
H2883 H 0.04115 0.51037 0.62247 0.0
H2884 H 0.02714 0.48963 0.61108 0.0
H2885 H 0.98341 0.50378 0.59024 0.0
H2886 H 0.93722 0.4443 0.5691 0.0
H2887 H 0.95095 0.46433 0.582 0.0
H2888 H 0.99474 0.45032 0.60229 0.0
C2889 C 0.02103 0.49965 0.61446 0.0
C2890 C 0.98589 0.49216 0.59313 0.0
C2891 C 0.02909 0.51158 0.62096 0.0
C2892 C 0.94923 0.44298 0.57086 0.0
C2893 C 0.95714 0.45453 0.57814 0.0
C2894 C 0.99224 0.46195 0.59949 0.0
C2895 C 1.00543 0.50093 0.61177 0.0
C2896 C 0.99699 0.48866 0.60394 0.0
C2897 C 0.97276 0.45329 0.58069 0.0
C2898 C 0.98113 0.46547 0.58869 0.0
H2899 H 1.00001 0.53634 0.62564 0.0
H2900 H 0.98597 0.51551 0.61459 0.0
H2901 H 0.00839 0.47028 0.61541 0.0
H2902 H 0.97854 0.41882 0.56481 0.0
H2903 H 0.99234 0.43904 0.57725 0.0
C2904 C 0.82887 0.29987 0.70208 0.0
C2905 C 0.8336 0.31456 0.69834 0.0
C2906 C 0.81733 0.29281 0.69399 0.0
C2907 C 0.79676 0.29444 0.65752 0.0
H2908 H 0.76772 0.2695 0.67865 0.0
C2909 C 0.74171 0.27182 0.63015 0.0
C2910 C 0.73717 0.25711 0.634 0.0
C2911 C 0.75416 0.27847 0.63722 0.0
C2912 C 0.77585 0.27627 0.67255 0.0
H2913 H 0.82967 0.33329 0.68304 0.0
H2914 H 0.80928 0.32116 0.66925 0.0
H2915 H 0.78761 0.28207 0.6928 0.0
H2916 H 0.74261 0.23764 0.64785 0.0
H2917 H 0.76433 0.24921 0.66007 0.0
H2918 H 0.78479 0.28876 0.63729 0.0
C2919 C 0.81471 0.315 0.67831 0.0
C2920 C 0.78727 0.28349 0.68067 0.0
C2921 C 0.8263 0.32205 0.68638 0.0
C2922 C 0.74573 0.24901 0.64465 0.0
C2923 C 0.75812 0.25568 0.65175 0.0
C2924 C 0.78528 0.28726 0.64941 0.0
C2925 C 0.81013 0.30026 0.68196 0.0
C2926 C 0.7979 0.29266 0.67327 0.0
C2927 C 0.76232 0.27058 0.64834 0.0
C2928 C 0.77471 0.27807 0.65683 0.0
H2929 H 0.83406 0.29378 0.71131 0.0
H2930 H 0.81422 0.2814 0.69704 0.0
H2931 H 0.80488 0.30122 0.65141 0.0
H2932 H 0.73538 0.27838 0.62201 0.0
H2933 H 0.75705 0.29 0.6344 0.0
C2934 C 0.95094 0.56707 0.94928 0.0
C2935 C 0.95739 0.58129 0.95204 0.0
C2936 C 0.95903 0.5559 0.94161 0.0
C2937 C 0.99775 0.54439 0.93112 0.0
H2938 H 0.97726 0.52005 0.90111 0.0
C2939 C 0.03001 0.50186 0.89367 0.0
C2940 C 0.02321 0.48769 0.89158 0.0
C2941 C 0.02194 0.51375 0.90021 0.0
C2942 C 0.98313 0.52665 0.90954 0.0
H2943 H 0.97752 0.59484 0.94873 0.0
H2944 H 0.9916 0.57538 0.93549 0.0
H2945 H 0.96337 0.53962 0.91455 0.0
H2946 H 1.00243 0.47506 0.89439 0.0
H2947 H 0.98845 0.49569 0.90587 0.0
H2948 H 0.01748 0.53135 0.92622 0.0
C2949 C 0.98032 0.57281 0.93942 0.0
C2950 C 0.97515 0.53786 0.91726 0.0
C2951 C 0.97223 0.58398 0.94707 0.0
C2952 C 1.00803 0.48582 0.8958 0.0
C2953 C 0.99997 0.4977 0.90233 0.0
C2954 C 1.00573 0.53316 0.92341 0.0
C2955 C 0.9738 0.55865 0.93653 0.0
C2956 C 0.98235 0.54683 0.92819 0.0
C2957 C 1.00687 0.51176 0.9048 0.0
C2958 C 0.99851 0.5241 0.91257 0.0
H2959 H 0.93965 0.5645 0.95314 0.0
H2960 H 0.95375 0.54504 0.93981 0.0
H2961 H 1.0036 0.55095 0.9396 0.0
H2962 H 0.04167 0.50371 0.89052 0.0
H2963 H 0.02753 0.5245 0.90173 0.0
C2964 C 0.68641 0.71656 0.20154 0.0
C2965 C 0.68176 0.7017 0.19848 0.0
C2966 C 0.69791 0.7233 0.1931 0.0
C2967 C 0.7304 0.71434 0.16865 0.0
H2968 H 0.72668 0.75617 0.15636 0.0
C2969 C 0.77496 0.74266 0.13055 0.0
C2970 C 0.77954 0.75726 0.13469 0.0
C2971 C 0.76229 0.73603 0.13721 0.0
C2972 C 0.72796 0.74452 0.1598 0.0
H2973 H 0.68558 0.68239 0.18393 0.0
H2974 H 0.70566 0.69412 0.16932 0.0
H2975 H 0.70627 0.74424 0.17044 0.0
H2976 H 0.77406 0.77651 0.14878 0.0
H2977 H 0.75211 0.76491 0.16047 0.0
H2978 H 0.75216 0.71464 0.15822 0.0
C2979 C 0.7005 0.70049 0.17838 0.0
C2980 C 0.71625 0.73768 0.16788 0.0
C2981 C 0.68898 0.69375 0.1868 0.0
C2982 C 0.77085 0.76526 0.14528 0.0
C2983 C 0.7582 0.75862 0.15196 0.0
C2984 C 0.74212 0.72118 0.1606 0.0
C2985 C 0.70508 0.71536 0.1814 0.0
C2986 C 0.71737 0.72254 0.17248 0.0
C2987 C 0.75389 0.74383 0.14819 0.0
C2988 C 0.74109 0.73638 0.15614 0.0
H2989 H 0.68132 0.72296 0.21059 0.0
H2990 H 0.70133 0.73469 0.1959 0.0
H2991 H 0.73172 0.70272 0.17219 0.0
H2992 H 0.78135 0.7362 0.12238 0.0
H2993 H 0.75914 0.72471 0.13386 0.0
C2994 C 0.5104 0.52783 0.39564 0.0
C2995 C 0.49608 0.52533 0.38927 0.0
C2996 C 0.51869 0.51591 0.40181 0.0
C2997 C 0.51371 0.47742 0.41738 0.0
H2998 H 0.55743 0.47693 0.41597 0.0
C2999 C 0.56699 0.4362 0.4353 0.0
C3000 C 0.56163 0.43104 0.44931 0.0
C3001 C 0.55923 0.44744 0.42735 0.0
C3002 C 0.54522 0.47677 0.41636 0.0
H3003 H 0.47951 0.50817 0.3839 0.0
H3004 H 0.49414 0.48729 0.39432 0.0
H3005 H 0.5436 0.49632 0.40228 0.0
H3006 H 0.5442 0.43399 0.46617 0.0
H3007 H 0.53085 0.45379 0.45254 0.0
H3008 H 0.5153 0.45765 0.43111 0.0
C3009 C 0.49882 0.49855 0.39488 0.0
C3010 C 0.53727 0.48804 0.40864 0.0
C3011 C 0.49047 0.51052 0.38879 0.0
C3012 C 0.54849 0.43757 0.45531 0.0
C3013 C 0.5408 0.44888 0.44743 0.0
C3014 C 0.52165 0.46611 0.42501 0.0
C3015 C 0.51294 0.50112 0.40169 0.0
C3016 C 0.52141 0.48861 0.40916 0.0
C3017 C 0.54597 0.45388 0.43327 0.0
C3018 C 0.53752 0.46571 0.42474 0.0
H3019 H 0.51507 0.5391 0.39628 0.0
H3020 H 0.5294 0.51841 0.40713 0.0
H3021 H 0.50153 0.47757 0.41822 0.0
H3022 H 0.57695 0.43125 0.43027 0.0
H3023 H 0.56345 0.45082 0.4164 0.0
C3024 C 0.82922 0.82626 0.69165 0.0
C3025 C 0.8176 0.83376 0.69946 0.0
C3026 C 0.83762 0.81486 0.69866 0.0
C3027 C 0.84855 0.80023 0.73616 0.0
H3028 H 0.85752 0.76345 0.7143 0.0
C3029 C 0.87192 0.74673 0.76542 0.0
C3030 C 0.88205 0.7375 0.75741 0.0
C3031 C 0.8651 0.75915 0.75845 0.0
C3032 C 0.85535 0.77374 0.72051 0.0
H3033 H 0.80561 0.83477 0.72079 0.0
H3034 H 0.82034 0.81505 0.733 0.0
H3035 H 0.84345 0.78356 0.7019 0.0
H3036 H 0.89342 0.73454 0.73596 0.0
H3037 H 0.88179 0.75638 0.72391 0.0
H3038 H 0.86045 0.79043 0.75478 0.0
C3039 C 0.82306 0.81815 0.72149 0.0
C3040 C 0.84723 0.78526 0.71339 0.0
C3041 C 0.81461 0.82949 0.71447 0.0
C3042 C 0.88562 0.74134 0.74244 0.0
C3043 C 0.87885 0.75381 0.73549 0.0
C3044 C 0.85674 0.78873 0.74326 0.0
C3045 C 0.83468 0.81071 0.71369 0.0
C3046 C 0.84364 0.7986 0.72116 0.0
C3047 C 0.86829 0.76272 0.74331 0.0
C3048 C 0.86017 0.77529 0.73557 0.0
H3049 H 0.83206 0.82933 0.68019 0.0
H3050 H 0.84662 0.80948 0.69238 0.0
H3051 H 0.84617 0.81046 0.74239 0.0
H3052 H 0.86885 0.74408 0.77695 0.0
H3053 H 0.85692 0.76563 0.7648 0.0
C3054 C 0.31318 0.68096 0.2927 0.0
C3055 C 0.31372 0.67985 0.30856 0.0
C3056 C 0.32126 0.69215 0.28507 0.0
C3057 C 0.33801 0.72965 0.28989 0.0
H3058 H 0.36118 0.71927 0.25428 0.0
C3059 C 0.37438 0.77413 0.25936 0.0
C3060 C 0.37446 0.77386 0.2435 0.0
C3061 C 0.36814 0.7622 0.26759 0.0
C3062 C 0.35463 0.72243 0.26409 0.0
H3063 H 0.32341 0.68997 0.32868 0.0
H3064 H 0.33716 0.70963 0.31536 0.0
H3065 H 0.34764 0.69961 0.26796 0.0
H3066 H 0.36829 0.76066 0.22386 0.0
H3067 H 0.35709 0.74006 0.23814 0.0
H3068 H 0.34457 0.7525 0.28587 0.0
C3069 C 0.33043 0.70175 0.30889 0.0
C3070 C 0.3469 0.71113 0.27195 0.0
C3071 C 0.32247 0.69045 0.31653 0.0
C3072 C 0.36851 0.76119 0.23607 0.0
C3073 C 0.36213 0.74932 0.24429 0.0
C3074 C 0.3456 0.74098 0.28195 0.0
C3075 C 0.32998 0.70267 0.29307 0.0
C3076 C 0.33847 0.71462 0.28491 0.0
C3077 C 0.36166 0.74975 0.26017 0.0
C3078 C 0.35399 0.73755 0.26891 0.0
H3079 H 0.30641 0.67328 0.28607 0.0
H3080 H 0.3205 0.69271 0.27289 0.0
H3081 H 0.33145 0.73272 0.29974 0.0
H3082 H 0.37897 0.78368 0.26544 0.0
H3083 H 0.36832 0.76281 0.27978 0.0
C3084 C 0.50246 0.12318 0.4838 0.0
C3085 C 0.48893 0.12664 0.49131 0.0
C3086 C 0.51486 0.11748 0.49179 0.0
C3087 C 0.53072 0.11263 0.53037 0.0
H3088 H 0.55115 0.07835 0.51246 0.0
C3089 C 0.57083 0.07403 0.56458 0.0
C3090 C 0.58404 0.06892 0.55743 0.0
C3091 C 0.55972 0.08176 0.55643 0.0
C3092 C 0.54572 0.08803 0.51756 0.0
H3093 H 0.47807 0.12744 0.51323 0.0
H3094 H 0.49959 0.11747 0.52709 0.0
H3095 H 0.53137 0.09126 0.49841 0.0
H3096 H 0.59594 0.06825 0.53604 0.0
H3097 H 0.5766 0.08163 0.52188 0.0
H3098 H 0.54499 0.10927 0.5496 0.0
C3099 C 0.50069 0.11923 0.51505 0.0
C3100 C 0.53437 0.09547 0.50948 0.0
C3101 C 0.48831 0.12489 0.50707 0.0
C3102 C 0.58583 0.07173 0.5419 0.0
C3103 C 0.57472 0.07945 0.53376 0.0
C3104 C 0.54208 0.10518 0.53846 0.0
C3105 C 0.51402 0.11515 0.50747 0.0
C3106 C 0.52666 0.10781 0.51581 0.0
C3107 C 0.56152 0.08458 0.54091 0.0
C3108 C 0.54966 0.09273 0.53219 0.0
H3109 H 0.50336 0.12442 0.47168 0.0
H3110 H 0.52504 0.1147 0.48563 0.0
H3111 H 0.52517 0.12221 0.53551 0.0
H3112 H 0.56898 0.07191 0.57646 0.0
H3113 H 0.54959 0.08533 0.56225 0.0
C3114 C 0.19977 0.32208 0.81623 0.0
C3115 C 0.20065 0.33666 0.81003 0.0
C3116 C 0.19142 0.31079 0.80902 0.0
C3117 C 0.17555 0.30057 0.77173 0.0
H3118 H 0.15204 0.27186 0.79488 0.0
C3119 C 0.13715 0.25661 0.74285 0.0
C3120 C 0.13809 0.24179 0.74842 0.0
C3121 C 0.14371 0.26858 0.75078 0.0
C3122 C 0.15863 0.27973 0.78826 0.0
H3123 H 0.19297 0.35087 0.79162 0.0
H3124 H 0.17845 0.33125 0.77912 0.0
H3125 H 0.16573 0.29188 0.8079 0.0
H3126 H 0.14628 0.22802 0.76697 0.0
H3127 H 0.15769 0.24885 0.78073 0.0
H3128 H 0.16852 0.2884 0.75211 0.0
C3129 C 0.18447 0.32844 0.78938 0.0
C3130 C 0.16651 0.29119 0.79573 0.0
C3131 C 0.19282 0.3397 0.79656 0.0
C3132 C 0.14533 0.23929 0.76234 0.0
C3133 C 0.15182 0.25126 0.77028 0.0
C3134 C 0.16766 0.28914 0.76428 0.0
C3135 C 0.18372 0.3138 0.79546 0.0
C3136 C 0.17512 0.30172 0.78756 0.0
C3137 C 0.15129 0.26601 0.76449 0.0
C3138 C 0.15915 0.27854 0.77245 0.0
H3139 H 0.20578 0.31931 0.8265 0.0
H3140 H 0.19127 0.29959 0.81393 0.0
H3141 H 0.18226 0.30832 0.76509 0.0
H3142 H 0.13165 0.25895 0.73219 0.0
H3143 H 0.14292 0.27985 0.74611 0.0
C3144 C 0.43939 0.45398 0.55267 0.0
C3145 C 0.43422 0.44981 0.5671 0.0
C3146 C 0.45078 0.44574 0.5455 0.0
C3147 C 0.48211 0.41933 0.55288 0.0
H3148 H 0.47776 0.40944 0.51049 0.0
C3149 C 0.52456 0.38027 0.52274 0.0
C3150 C 0.52922 0.38468 0.50824 0.0
C3151 C 0.51231 0.38736 0.52973 0.0
C3152 C 0.47923 0.41222 0.5223 0.0
H3153 H 0.43717 0.43356 0.58522 0.0
H3154 H 0.45709 0.4194 0.57282 0.0
H3155 H 0.45814 0.42399 0.52315 0.0
H3156 H 0.52433 0.39973 0.48953 0.0
H3157 H 0.50317 0.41218 0.50175 0.0
H3158 H 0.50328 0.40778 0.55203 0.0
C3159 C 0.45238 0.42913 0.56711 0.0
C3160 C 0.46798 0.42057 0.52955 0.0
C3161 C 0.44095 0.43731 0.57425 0.0
C3162 C 0.52103 0.396 0.50069 0.0
C3163 C 0.50883 0.40312 0.50769 0.0
C3164 C 0.49339 0.41104 0.54563 0.0
C3165 C 0.45736 0.43317 0.55261 0.0
C3166 C 0.4693 0.42425 0.54491 0.0
C3167 C 0.50445 0.39906 0.52239 0.0
C3168 C 0.49213 0.4074 0.53023 0.0
H3169 H 0.4347 0.46366 0.5469 0.0
H3170 H 0.45453 0.44929 0.53443 0.0
H3171 H 0.48356 0.42214 0.56469 0.0
H3172 H 0.53057 0.37155 0.52885 0.0
H3173 H 0.50908 0.38375 0.54095 0.0
C3174 C 0.64286 0.26102 0.2792 0.0
C3175 C 0.64071 0.27524 0.27252 0.0
C3176 C 0.64871 0.24901 0.2708 0.0
C3177 C 0.65578 0.23567 0.23178 0.0
H3178 H 0.68707 0.21176 0.2509 0.0
C3179 C 0.69339 0.19385 0.19848 0.0
C3180 C 0.69695 0.18006 0.20549 0.0
C3181 C 0.686 0.20527 0.20649 0.0
C3182 C 0.67822 0.21818 0.24544 0.0
H3183 H 0.64255 0.28784 0.25159 0.0
H3184 H 0.65279 0.26694 0.23699 0.0
H3185 H 0.67462 0.23167 0.26511 0.0
H3186 H 0.69508 0.16738 0.22635 0.0
H3187 H 0.68222 0.1872 0.24025 0.0
H3188 H 0.65946 0.22219 0.21208 0.0
C3189 C 0.64987 0.26502 0.2487 0.0
C3190 C 0.67106 0.2296 0.2536 0.0
C3191 C 0.64405 0.27704 0.2571 0.0
C3192 C 0.69282 0.17794 0.22066 0.0
C3193 C 0.68542 0.18933 0.22865 0.0
C3194 C 0.66294 0.22421 0.22361 0.0
C3195 C 0.65251 0.25094 0.25551 0.0
C3196 C 0.65977 0.2385 0.24688 0.0
C3197 C 0.68195 0.20316 0.22169 0.0
C3198 C 0.67427 0.21534 0.23034 0.0
H3199 H 0.64036 0.25922 0.29102 0.0
H3200 H 0.65037 0.23824 0.27633 0.0
H3201 H 0.64701 0.2422 0.22632 0.0
H3202 H 0.69654 0.19591 0.18687 0.0
H3203 H 0.68368 0.21586 0.20083 0.0
C3204 C 0.49589 0.89533 0.01706 0.0
C3205 C 0.48779 0.88403 0.00942 0.0
C3206 C 0.50837 0.90222 0.01032 0.0
C3207 C 0.52475 0.90972 0.97271 0.0
H3208 H 0.55962 0.92249 0.99583 0.0
C3209 C 0.57735 0.93633 0.94475 0.0
C3210 C 0.58393 0.94881 0.95204 0.0
C3211 C 0.56602 0.92793 0.95181 0.0
C3212 C 0.5499 0.91912 0.98924 0.0
H3213 H 0.48688 0.8707 0.98894 0.0
H3214 H 0.50881 0.88254 0.97729 0.0
H3215 H 0.53964 0.90814 1.00816 0.0
H3216 H 0.58341 0.9623 0.97245 0.0
H3217 H 0.56372 0.9476 0.98474 0.0
H3218 H 0.535 0.92072 0.95381 0.0
C3219 C 0.50532 0.88629 0.98838 0.0
C3220 C 0.53844 0.91088 0.99631 0.0
C3221 C 0.49281 0.87941 0.99511 0.0
C3222 C 0.57881 0.95265 0.96656 0.0
C3223 C 0.5675 0.94421 0.97363 0.0
C3224 C 0.53623 0.91791 0.96564 0.0
C3225 C 0.5131 0.89797 0.99578 0.0
C3226 C 0.52567 0.90614 0.98815 0.0
C3227 C 0.56098 0.93174 0.96634 0.0
C3228 C 0.5489 0.92278 0.97383 0.0
H3229 H 0.49233 0.8992 0.02809 0.0
H3230 H 0.51397 0.91127 0.0163 0.0
H3231 H 0.51497 0.90652 0.96612 0.0
H3232 H 0.58113 0.93283 0.9337 0.0
H3233 H 0.56138 0.91826 0.94595 0.0
C3234 C 0.0233 0.12819 0.5071 0.0
C3235 C 0.02253 0.1281 0.52295 0.0
C3236 C 0.01146 0.12236 0.49844 0.0
C3237 C 0.9713 0.10989 0.50054 0.0
H3238 H 0.98238 0.08534 0.46608 0.0
C3239 C 0.93044 0.06746 0.47305 0.0
C3240 C 0.92978 0.06694 0.45718 0.0
C3241 C 0.94142 0.07602 0.48041 0.0
C3242 C 0.97909 0.09231 0.47555 0.0
H3243 H 0.00849 0.12218 0.54209 0.0
H3244 H 0.98804 0.11176 0.52707 0.0
H3245 H 1.00191 0.09865 0.48012 0.0
H3246 H 0.94039 0.0752 0.4367 0.0
H3247 H 0.95973 0.0899 0.4496 0.0
H3248 H 0.94851 0.10314 0.49618 0.0
C3249 C 0.99765 0.11657 0.52126 0.0
C3250 C 0.99028 0.09999 0.4836 0.0
C3251 C 0.00944 0.1225 0.52991 0.0
C3252 C 0.94058 0.07514 0.4489 0.0
C3253 C 0.95167 0.08362 0.45629 0.0
C3254 C 0.96014 0.10211 0.49257 0.0
C3255 C 0.99861 0.11619 0.50541 0.0
C3256 C 0.98656 0.10878 0.49629 0.0
C3257 C 0.95216 0.08421 0.47213 0.0
C3258 C 0.96393 0.09312 0.48008 0.0
H3259 H 0.03318 0.13251 0.50136 0.0
H3260 H 0.01248 0.12254 0.48627 0.0
H3261 H 0.96796 0.11677 0.51006 0.0
H3262 H 0.9226 0.0611 0.4799 0.0
H3263 H 0.94167 0.07603 0.49263 0.0
C3264 C 0.1599 0.42695 0.46734 0.0
C3265 C 0.15964 0.43819 0.45614 0.0
C3266 C 0.16621 0.41278 0.46439 0.0
C3267 C 0.19004 0.39161 0.43681 0.0
H3268 H 0.16707 0.35717 0.45099 0.0
C3269 C 0.19363 0.33304 0.40921 0.0
C3270 C 0.19378 0.32016 0.41849 0.0
C3271 C 0.19137 0.34736 0.41533 0.0
C3272 C 0.17376 0.36665 0.44715 0.0
H3273 H 0.16635 0.44351 0.43322 0.0
H3274 H 0.17707 0.4188 0.42798 0.0
H3275 H 0.15989 0.3825 0.45891 0.0
H3276 H 0.19179 0.3123 0.44157 0.0
H3277 H 0.18762 0.33745 0.4523 0.0
H3278 H 0.20352 0.37572 0.42458 0.0
C3279 C 0.17263 0.42094 0.43915 0.0
C3280 C 0.16967 0.3812 0.4517 0.0
C3281 C 0.1664 0.43514 0.44213 0.0
C3282 C 0.19176 0.32198 0.43412 0.0
C3283 C 0.18931 0.33636 0.44025 0.0
C3284 C 0.19404 0.37707 0.43217 0.0
C3285 C 0.17235 0.40947 0.45014 0.0
C3286 C 0.1776 0.39391 0.4464 0.0
C3287 C 0.18906 0.3492 0.43089 0.0
C3288 C 0.18579 0.36445 0.43708 0.0
H3289 H 0.15488 0.42895 0.4783 0.0
H3290 H 0.16606 0.40435 0.47324 0.0
H3291 H 0.19661 0.40106 0.43274 0.0
H3292 H 0.1952 0.33207 0.39712 0.0
H3293 H 0.19105 0.35697 0.40779 0.0
C3294 C 0.93652 0.94618 0.66917 0.0
C3295 C 0.93757 0.95553 0.65641 0.0
C3296 C 0.92251 0.94332 0.6759 0.0
C3297 C 0.88174 0.95511 0.6753 0.0
H3298 H 0.87503 0.91345 0.68678 0.0
C3299 C 0.82407 0.9251 0.67324 0.0
C3300 C 0.82022 0.91532 0.68511 0.0
C3301 C 0.83817 0.93212 0.67291 0.0
C3302 C 0.87677 0.92519 0.68387 0.0
H3303 H 0.92476 0.96972 0.64109 0.0
H3304 H 0.90046 0.9644 0.65238 0.0
H3305 H 0.90038 0.92181 0.68046 0.0
H3306 H 0.82795 0.90561 0.70621 0.0
H3307 H 0.85281 0.91766 0.70542 0.0
H3308 H 0.85785 0.9581 0.67783 0.0
C3309 C 0.9104 0.95949 0.65752 0.0
C3310 C 0.89135 0.93004 0.68028 0.0
C3311 C 0.9244 0.96249 0.65094 0.0
C3312 C 0.83057 0.91315 0.69695 0.0
C3313 C 0.84481 0.91996 0.69647 0.0
C3314 C 0.86713 0.95018 0.67866 0.0
C3315 C 0.90919 0.9496 0.66989 0.0
C3316 C 0.89401 0.945 0.67562 0.0
C3317 C 0.84884 0.92932 0.6843 0.0
C3318 C 0.86447 0.9351 0.6827 0.0
H3319 H 0.94647 0.94073 0.67373 0.0
H3320 H 0.92211 0.93591 0.6856 0.0
H3321 H 0.88334 0.9668 0.67213 0.0
H3322 H 0.81632 0.92701 0.66397 0.0
H3323 H 0.84101 0.93918 0.66333 0.0
C3324 C 0.3258 0.69029 0.91964 0.0
C3325 C 0.31476 0.69014 0.90826 0.0
C3326 C 0.33014 0.6769 0.92679 0.0
C3327 C 0.32004 0.63624 0.9318 0.0
H3328 H 0.36323 0.63192 0.93725 0.0
C3329 C 0.35113 0.57883 0.94017 0.0
C3330 C 0.36352 0.57875 0.95009 0.0
C3331 C 0.34351 0.59234 0.93698 0.0
C3332 C 0.35111 0.63299 0.93602 0.0
H3333 H 0.29912 0.67588 0.89597 0.0
H3334 H 0.30691 0.65255 0.90816 0.0
H3335 H 0.35303 0.65577 0.92849 0.0
H3336 H 0.37691 0.59255 0.96524 0.0
H3337 H 0.3636 0.61589 0.9598 0.0
H3338 H 0.31832 0.61315 0.93893 0.0
C3339 C 0.31209 0.66301 0.91176 0.0
C3340 C 0.34524 0.64672 0.93103 0.0
C3341 C 0.30766 0.67641 0.9047 0.0
C3342 C 0.36755 0.59223 0.95738 0.0
C3343 C 0.35996 0.60565 0.95422 0.0
C3344 C 0.32596 0.62242 0.93672 0.0
C3345 C 0.32364 0.66302 0.92264 0.0
C3346 C 0.32963 0.64855 0.92881 0.0
C3347 C 0.34815 0.60597 0.94365 0.0
C3348 C 0.34157 0.62065 0.93887 0.0
H3349 H 0.33139 0.70069 0.92275 0.0
H3350 H 0.33883 0.6774 0.93537 0.0
H3351 H 0.30795 0.63727 0.93036 0.0
H3352 H 0.34775 0.56863 0.93437 0.0
H3353 H 0.33447 0.59222 0.92875 0.0
C3354 C 0.67613 0.10473 0.2143 0.0
C3355 C 0.68779 0.10512 0.20358 0.0
C3356 C 0.66258 0.09729 0.21117 0.0
C3357 C 0.64365 0.07177 0.18309 0.0
H3358 H 0.6077 0.09213 0.19738 0.0
C3359 C 0.58419 0.05164 0.16525 0.0
C3360 C 0.5735 0.06292 0.1621 0.0
C3361 C 0.59782 0.05523 0.1724 0.0
C3362 C 0.61759 0.08634 0.19316 0.0
H3363 H 0.69457 0.09754 0.18135 0.0
H3364 H 0.67083 0.08512 0.17561 0.0
H3365 H 0.63227 0.10092 0.20544 0.0
H3366 H 0.56864 0.0868 0.16425 0.0
H3367 H 0.59244 0.09315 0.17615 0.0
H3368 H 0.62896 0.05788 0.16996 0.0
C3369 C 0.67218 0.09016 0.18664 0.0
C3370 C 0.63177 0.09123 0.19803 0.0
C3371 C 0.68584 0.09736 0.1899 0.0
C3372 C 0.57657 0.0778 0.1666 0.0
C3373 C 0.59025 0.08142 0.17354 0.0
C3374 C 0.62946 0.06703 0.17803 0.0
C3375 C 0.6602 0.0903 0.19709 0.0
C3376 C 0.64505 0.08416 0.19291 0.0
C3377 C 0.60118 0.07023 0.17639 0.0
C3378 C 0.61622 0.0744 0.18281 0.0
H3379 H 0.67735 0.1105 0.225 0.0
H3380 H 0.65384 0.09732 0.2197 0.0
H3381 H 0.65353 0.06581 0.17909 0.0
H3382 H 0.58213 0.04005 0.162 0.0
H3383 H 0.60577 0.04623 0.17466 0.0
C3384 C 0.21222 0.67647 0.10744 0.0
C3385 C 0.2019 0.68852 0.10678 0.0
C3386 C 0.20853 0.66237 0.10137 0.0
C3387 C 0.17518 0.63933 0.09382 0.0
H3388 H 0.20266 0.61316 0.07205 0.0
C3389 C 0.155 0.58241 0.07099 0.0
C3390 C 0.16472 0.56993 0.07217 0.0
C3391 C 0.16024 0.59698 0.07375 0.0
C3392 C 0.1949 0.62026 0.07826 0.0
H3393 H 0.17991 0.69539 0.09847 0.0
H3394 H 0.17349 0.67083 0.0879 0.0
H3395 H 0.21066 0.63864 0.07904 0.0
H3396 H 0.18771 0.56303 0.07681 0.0
H3397 H 0.19685 0.58855 0.08206 0.0
H3398 H 0.15958 0.62102 0.09351 0.0
C3399 C 0.18438 0.67225 0.09327 0.0
C3400 C 0.19947 0.63488 0.0822 0.0
C3401 C 0.18811 0.68636 0.09925 0.0
C3402 C 0.17995 0.57242 0.0758 0.0
C3403 C 0.18519 0.58706 0.07874 0.0
C3404 C 0.17067 0.62474 0.09 0.0
C3405 C 0.19439 0.66 0.0946 0.0
C3406 C 0.18962 0.64459 0.08997 0.0
C3407 C 0.17532 0.59951 0.07798 0.0
C3408 C 0.18041 0.61502 0.08209 0.0
H3409 H 0.22296 0.67775 0.11313 0.0
H3410 H 0.21646 0.65316 0.10263 0.0
H3411 H 0.16745 0.64639 0.10011 0.0
H3412 H 0.14324 0.58094 0.06799 0.0
H3413 H 0.15239 0.60628 0.07263 0.0
C3414 C 0.68931 0.91932 0.32527 0.0
C3415 C 0.69216 0.91442 0.31046 0.0
C3416 C 0.67551 0.926 0.329 0.0
C3417 C 0.63591 0.92812 0.31548 0.0
H3418 H 0.6323 0.9568 0.34823 0.0
C3419 C 0.57972 0.9381 0.34665 0.0
C3420 C 0.57682 0.95224 0.35319 0.0
C3421 C 0.59351 0.9352 0.33956 0.0
C3422 C 0.63304 0.94899 0.33888 0.0
H3423 H 0.68306 0.9135 0.28778 0.0
H3424 H 0.65921 0.92564 0.29413 0.0
H3425 H 0.65716 0.94962 0.33923 0.0
H3426 H 0.58582 0.97471 0.35665 0.0
H3427 H 0.60965 0.96985 0.34381 0.0
H3428 H 0.61179 0.92778 0.31487 0.0
C3429 C 0.66743 0.92389 0.30301 0.0
C3430 C 0.64737 0.94467 0.33386 0.0
C3431 C 0.68118 0.91703 0.29932 0.0
C3432 C 0.58774 0.96365 0.35183 0.0
C3433 C 0.60147 0.96081 0.34457 0.0
C3434 C 0.62158 0.93258 0.32037 0.0
C3435 C 0.66425 0.92814 0.31798 0.0
C3436 C 0.64902 0.93393 0.3223 0.0
C3437 C 0.6047 0.94643 0.33864 0.0
C3438 C 0.61993 0.94284 0.33236 0.0
H3439 H 0.69749 0.91741 0.33416 0.0
H3440 H 0.67348 0.92889 0.34068 0.0
H3441 H 0.63664 0.91971 0.30665 0.0
H3442 H 0.5716 0.92902 0.34757 0.0
H3443 H 0.59558 0.92393 0.33536 0.0
C3444 C 0.36424 0.42487 0.55751 0.0
C3445 C 0.36056 0.43809 0.56545 0.0
C3446 C 0.35681 0.41134 0.56057 0.0
C3447 C 0.32374 0.39404 0.57937 0.0
H3448 H 0.35118 0.36046 0.58529 0.0
C3449 C 0.30749 0.33985 0.61199 0.0
C3450 C 0.31432 0.32612 0.60792 0.0
C3451 C 0.31143 0.35327 0.60468 0.0
C3452 C 0.34326 0.36958 0.58339 0.0
H3453 H 0.34556 0.44764 0.58224 0.0
H3454 H 0.33259 0.42389 0.58766 0.0
H3455 H 0.36087 0.38444 0.57637 0.0
H3456 H 0.32991 0.31558 0.5923 0.0
H3457 H 0.33648 0.3389 0.57928 0.0
H3458 H 0.30613 0.37913 0.58658 0.0
C3459 C 0.34121 0.42405 0.57901 0.0
C3460 C 0.34885 0.38339 0.5783 0.0
C3461 C 0.34866 0.43765 0.57592 0.0
C3462 C 0.32454 0.32598 0.59581 0.0
C3463 C 0.32839 0.33939 0.58842 0.0
C3464 C 0.3181 0.38015 0.5844 0.0
C3465 C 0.34553 0.41065 0.57167 0.0
C3466 C 0.3392 0.39582 0.57633 0.0
C3467 C 0.32222 0.35327 0.59305 0.0
C3468 C 0.32783 0.36777 0.5866 0.0
H3469 H 0.37323 0.42483 0.54923 0.0
H3470 H 0.36019 0.40129 0.5545 0.0
H3471 H 0.316 0.40338 0.57784 0.0
H3472 H 0.29958 0.34038 0.62128 0.0
H3473 H 0.30653 0.36372 0.60867 0.0
C3474 C 0.93204 0.06836 0.85699 0.0
C3475 C 0.94512 0.06914 0.84804 0.0
C3476 C 0.91779 0.07054 0.85063 0.0
C3477 C 0.89915 0.08998 0.81948 0.0
H3478 H 0.86436 0.06646 0.83173 0.0
C3479 C 0.83939 0.10572 0.79907 0.0
C3480 C 0.82793 0.10531 0.81003 0.0
C3481 C 0.85342 0.09903 0.80184 0.0
C3482 C 0.87393 0.07322 0.82827 0.0
H3483 H 0.95342 0.07246 0.82528 0.0
H3484 H 0.92841 0.07646 0.81415 0.0
H3485 H 0.88953 0.05893 0.84001 0.0
H3486 H 0.82209 0.09701 0.83229 0.0
H3487 H 0.84657 0.08565 0.83727 0.0
H3488 H 0.88361 0.10464 0.80827 0.0
C3489 C 0.92927 0.07415 0.82612 0.0
C3490 C 0.88836 0.06886 0.83297 0.0
C3491 C 0.94357 0.07178 0.83248 0.0
C3492 C 0.83063 0.0975 0.82357 0.0
C3493 C 0.8447 0.09091 0.8264 0.0
C3494 C 0.88471 0.09442 0.81488 0.0
C3495 C 0.91623 0.07369 0.83517 0.0
C3496 C 0.90111 0.07733 0.82884 0.0
C3497 C 0.8564 0.09185 0.8157 0.0
C3498 C 0.87186 0.08625 0.81941 0.0
H3499 H 0.93281 0.06629 0.86902 0.0
H3500 H 0.908 0.07027 0.85794 0.0
H3501 H 0.90872 0.09686 0.81627 0.0
H3502 H 0.83765 0.11156 0.78846 0.0
H3503 H 0.86203 0.09972 0.79321 0.0
C3504 C 0.439 0.15341 0.43143 0.0
C3505 C 0.44525 0.16247 0.44286 0.0
C3506 C 0.43741 0.15889 0.41677 0.0
C3507 C 0.43394 0.19357 0.39442 0.0
H3508 H 0.4419 0.16626 0.36119 0.0
C3509 C 0.42259 0.20973 0.3317 0.0
C3510 C 0.4146 0.19875 0.32349 0.0
C3511 C 0.42872 0.20629 0.34589 0.0
C3512 C 0.43959 0.17403 0.37033 0.0
H3513 H 0.45463 0.18451 0.44776 0.0
H3514 H 0.45175 0.19416 0.42194 0.0
H3515 H 0.44812 0.15863 0.38685 0.0
H3516 H 0.40721 0.17542 0.3236 0.0
H3517 H 0.41784 0.16946 0.34814 0.0
H3518 H 0.42504 0.20882 0.37784 0.0
C3519 C 0.4481 0.18278 0.42447 0.0
C3520 C 0.44315 0.16965 0.38505 0.0
C3521 C 0.44979 0.17724 0.43923 0.0
C3522 C 0.41328 0.18417 0.32959 0.0
C3523 C 0.41947 0.18071 0.34365 0.0
C3524 C 0.43036 0.19796 0.37964 0.0
C3525 C 0.44197 0.1736 0.41305 0.0
C3526 C 0.43999 0.17918 0.39732 0.0
C3527 C 0.42712 0.19175 0.35207 0.0
C3528 C 0.43277 0.18806 0.36747 0.0
H3529 H 0.43533 0.142 0.43377 0.0
H3530 H 0.43237 0.15161 0.40835 0.0
H3531 H 0.4313 0.20115 0.40362 0.0
H3532 H 0.42379 0.22109 0.32734 0.0
H3533 H 0.43464 0.21501 0.35206 0.0
C3534 C 0.06071 0.15145 0.59384 0.0
C3535 C 0.06604 0.15594 0.57959 0.0
C3536 C 0.06449 0.15958 0.60678 0.0
C3537 C 0.09427 0.18446 0.62115 0.0
H3538 H 0.06756 0.18832 0.65559 0.0
C3539 C 0.11516 0.21089 0.67647 0.0
C3540 C 0.11168 0.20291 0.68973 0.0
C3541 C 0.10781 0.2076 0.66292 0.0
C3542 C 0.07517 0.18727 0.64609 0.0
H3543 H 0.07895 0.17297 0.5677 0.0
H3544 H 0.08548 0.18729 0.59035 0.0
H3545 H 0.0578 0.17847 0.63177 0.0
H3546 H 0.09718 0.18572 0.69932 0.0
H3547 H 0.08443 0.17982 0.67561 0.0
H3548 H 0.11172 0.19288 0.63549 0.0
C3549 C 0.07852 0.17731 0.5915 0.0
C3550 C 0.06958 0.18165 0.63243 0.0
C3551 C 0.07471 0.16917 0.57851 0.0
C3552 C 0.10011 0.19209 0.68931 0.0
C3553 C 0.09277 0.18874 0.67571 0.0
C3554 C 0.09985 0.19009 0.63478 0.0
C3555 C 0.07371 0.17243 0.60584 0.0
C3556 C 0.07913 0.17994 0.61986 0.0
C3557 C 0.09682 0.19619 0.66227 0.0
C3558 C 0.09043 0.19137 0.64749 0.0
H3559 H 0.05396 0.14134 0.5951 0.0
H3560 H 0.06071 0.15537 0.61762 0.0
H3561 H 0.10202 0.18307 0.61181 0.0
H3562 H 0.12391 0.21942 0.67642 0.0
H3563 H 0.11098 0.21378 0.65287 0.0
C3564 C 0.07349 0.84824 0.93769 0.0
C3565 C 0.06253 0.85968 0.93826 0.0
C3566 C 0.07657 0.8408 0.92409 0.0
C3567 C 0.0745 0.84809 0.88335 0.0
H3568 H 0.0872 0.8064 0.87986 0.0
C3569 C 0.09739 0.82516 0.82714 0.0
C3570 C 0.11093 0.81699 0.82839 0.0
C3571 C 0.08863 0.82811 0.83995 0.0
C3572 C 0.0837 0.81808 0.88065 0.0
H3573 H 0.0454 0.87147 0.92531 0.0
H3574 H 0.05059 0.85838 0.90176 0.0
H3575 H 0.07707 0.8156 0.90379 0.0
H3576 H 0.12537 0.80472 0.84393 0.0
H3577 H 0.11031 0.81002 0.86615 0.0
H3578 H 0.08159 0.85078 0.86047 0.0
C3579 C 0.05708 0.85539 0.91168 0.0
C3580 C 0.07791 0.82334 0.89437 0.0
C3581 C 0.05405 0.86284 0.92522 0.0
C3582 C 0.11505 0.81113 0.84255 0.0
C3583 C 0.10632 0.81407 0.85532 0.0
C3584 C 0.08032 0.84285 0.86968 0.0
C3585 C 0.0687 0.84463 0.91082 0.0
C3586 C 0.07347 0.83848 0.89594 0.0
C3587 C 0.09322 0.82294 0.85427 0.0
C3588 C 0.08526 0.82785 0.86823 0.0
H3589 H 0.08023 0.84554 0.94753 0.0
H3590 H 0.08565 0.83263 0.92382 0.0
H3591 H 0.07144 0.85988 0.88421 0.0
H3592 H 0.09385 0.82977 0.81638 0.0
H3593 H 0.07846 0.83477 0.8387 0.0
C3594 C 0.44264 0.84802 0.07935 0.0
C3595 C 0.45491 0.85786 0.07726 0.0
C3596 C 0.43917 0.84247 0.09376 0.0
C3597 C 0.44175 0.85425 0.1328 0.0
H3598 H 0.43202 0.81296 0.14338 0.0
C3599 C 0.42595 0.83968 0.19371 0.0
C3600 C 0.41434 0.82918 0.19601 0.0
C3601 C 0.4326 0.8413 0.17952 0.0
C3602 C 0.43453 0.82458 0.1406 0.0
H3603 H 0.47363 0.8689 0.08857 0.0
H3604 H 0.46742 0.85941 0.11359 0.0
H3605 H 0.44014 0.81899 0.11767 0.0
H3606 H 0.4009 0.81177 0.18539 0.0
H3607 H 0.412 0.81501 0.16043 0.0
H3608 H 0.43553 0.86016 0.15524 0.0
C3609 C 0.46047 0.85603 0.10411 0.0
C3610 C 0.43924 0.82799 0.12588 0.0
C3611 C 0.46404 0.86142 0.08974 0.0
C3612 C 0.40992 0.81989 0.18397 0.0
C3613 C 0.41634 0.82174 0.16964 0.0
C3614 C 0.43682 0.85092 0.14737 0.0
C3615 C 0.4478 0.84681 0.10634 0.0
C3616 C 0.44296 0.84287 0.12188 0.0
C3617 C 0.42753 0.83275 0.16712 0.0
C3618 C 0.43319 0.83603 0.15156 0.0
H3619 H 0.4354 0.84503 0.06997 0.0
H3620 H 0.4293 0.8354 0.09518 0.0
H3621 H 0.44427 0.86587 0.12996 0.0
H3622 H 0.4297 0.84688 0.20285 0.0
H3623 H 0.44152 0.84954 0.17822 0.0
C3624 C 0.42613 0.46278 0.15378 0.0
C3625 C 0.43932 0.45481 0.15757 0.0
C3626 C 0.4125 0.4597 0.16105 0.0
C3627 C 0.39514 0.44034 0.19393 0.0
H3628 H 0.36139 0.43515 0.16656 0.0
C3629 C 0.34261 0.40505 0.2087 0.0
C3630 C 0.32851 0.4091 0.20263 0.0
C3631 C 0.35559 0.41315 0.20499 0.0
C3632 C 0.37056 0.43684 0.17445 0.0
H3633 H 0.44869 0.4379 0.17258 0.0
H3634 H 0.42483 0.43241 0.18523 0.0
H3635 H 0.38524 0.44465 0.157 0.0
H3636 H 0.3169 0.4254 0.18854 0.0
H3637 H 0.3396 0.43972 0.18221 0.0
H3638 H 0.38049 0.4322 0.21133 0.0
C3639 C 0.42506 0.44114 0.17668 0.0
C3640 C 0.38429 0.44227 0.16895 0.0
C3641 C 0.43874 0.44425 0.1694 0.0
C3642 C 0.32759 0.42194 0.19335 0.0
C3643 C 0.34062 0.43007 0.18964 0.0
C3644 C 0.38137 0.43493 0.19946 0.0
C3645 C 0.4117 0.44855 0.17229 0.0
C3646 C 0.39682 0.4439 0.17856 0.0
C3647 C 0.35484 0.42555 0.19513 0.0
C3648 C 0.36897 0.43288 0.18973 0.0
H3649 H 0.42619 0.47111 0.14483 0.0
H3650 H 0.4025 0.46583 0.15762 0.0
H3651 H 0.40451 0.44165 0.20167 0.0
H3652 H 0.34375 0.39525 0.21592 0.0
H3653 H 0.36633 0.40921 0.20932 0.0
C3654 C 0.86528 0.92363 0.05771 0.0
C3655 C 0.86117 0.93696 0.06525 0.0
C3656 C 0.85791 0.91007 0.06076 0.0
C3657 C 0.82422 0.89278 0.0783 0.0
H3658 H 0.85159 0.85951 0.086 0.0
C3659 C 0.80655 0.83872 0.11037 0.0
C3660 C 0.81366 0.825 0.10678 0.0
C3661 C 0.81086 0.85212 0.10326 0.0
C3662 C 0.84371 0.86854 0.08361 0.0
H3663 H 0.84546 0.94663 0.08132 0.0
H3664 H 0.83255 0.92282 0.08669 0.0
H3665 H 0.86153 0.88348 0.07729 0.0
H3666 H 0.83022 0.81447 0.09219 0.0
H3667 H 0.83745 0.83776 0.07947 0.0
H3668 H 0.80638 0.8778 0.08475 0.0
C3669 C 0.8415 0.92293 0.07837 0.0
C3670 C 0.84944 0.88234 0.07865 0.0
C3671 C 0.84891 0.93656 0.07532 0.0
C3672 C 0.82461 0.82486 0.09532 0.0
C3673 C 0.82883 0.83826 0.08811 0.0
C3674 C 0.81845 0.8789 0.08319 0.0
C3675 C 0.84621 0.90946 0.07143 0.0
C3676 C 0.8398 0.89466 0.07603 0.0
C3677 C 0.82231 0.85213 0.09228 0.0
C3678 C 0.82815 0.86662 0.08602 0.0
H3679 H 0.87456 0.92354 0.04976 0.0
H3680 H 0.86161 0.89995 0.055 0.0
H3681 H 0.81649 0.90203 0.07626 0.0
H3682 H 0.79808 0.83926 0.11916 0.0
H3683 H 0.80567 0.86257 0.10689 0.0
C3684 C 0.17481 0.61905 0.71109 0.0
C3685 C 0.18774 0.61393 0.70346 0.0
C3686 C 0.1606 0.61325 0.70762 0.0
C3687 C 0.13932 0.58261 0.68973 0.0
H3688 H 0.11114 0.61456 0.67973 0.0
C3689 C 0.08161 0.57202 0.65992 0.0
C3690 C 0.06984 0.58225 0.66275 0.0
C3691 C 0.09589 0.57425 0.66637 0.0
C3692 C 0.11867 0.60543 0.68278 0.0
H3693 H 0.19595 0.59789 0.68691 0.0
H3694 H 0.17096 0.58761 0.68095 0.0
H3695 H 0.13621 0.62091 0.68857 0.0
H3696 H 0.06335 0.60208 0.67542 0.0
H3697 H 0.08783 0.60551 0.68731 0.0
H3698 H 0.12163 0.56709 0.68411 0.0
C3699 C 0.17193 0.5962 0.68957 0.0
C3700 C 0.13313 0.60911 0.68776 0.0
C3701 C 0.18622 0.60211 0.69297 0.0
C3702 C 0.07229 0.59412 0.6729 0.0
C3703 C 0.0864 0.59617 0.67958 0.0
C3704 C 0.12469 0.57888 0.68492 0.0
C3705 C 0.15894 0.6021 0.69651 0.0
C3706 C 0.1436 0.59778 0.69133 0.0
C3707 C 0.09859 0.58663 0.67597 0.0
C3708 C 0.11414 0.59027 0.68141 0.0
H3709 H 0.17554 0.62803 0.71933 0.0
H3710 H 0.15081 0.61785 0.7133 0.0
H3711 H 0.14719 0.57365 0.69242 0.0
H3712 H 0.08005 0.56282 0.65204 0.0
H3713 H 0.10496 0.56669 0.66323 0.0
C3714 C 0.65989 0.92984 0.96336 0.0
C3715 C 0.65867 0.94134 0.95253 0.0
C3716 C 0.66749 0.91641 0.96001 0.0
C3717 C 0.69172 0.8978 0.93048 0.0
H3718 H 0.67461 0.86144 0.94764 0.0
C3719 C 0.71296 0.83951 0.91124 0.0
C3720 C 0.70221 0.82798 0.90986 0.0
C3721 C 0.70944 0.85289 0.91882 0.0
C3722 C 0.67946 0.87143 0.94258 0.0
H3723 H 0.66472 0.94795 0.9298 0.0
H3724 H 0.67727 0.92441 0.92364 0.0
H3725 H 0.66525 0.88578 0.95564 0.0
H3726 H 0.67946 0.82121 0.91561 0.0
H3727 H 0.67299 0.84472 0.92811 0.0
H3728 H 0.70502 0.88346 0.91649 0.0
C3729 C 0.67291 0.9258 0.93495 0.0
C3730 C 0.67427 0.88552 0.94742 0.0
C3731 C 0.66563 0.93936 0.93845 0.0
C3732 C 0.68803 0.82986 0.91664 0.0
C3733 C 0.68436 0.84339 0.92389 0.0
C3734 C 0.69666 0.88371 0.92538 0.0
C3735 C 0.67372 0.91398 0.94559 0.0
C3736 C 0.68018 0.89895 0.94132 0.0
C3737 C 0.69491 0.85526 0.92484 0.0
C3738 C 0.69048 0.87027 0.93121 0.0
H3739 H 0.65472 0.93111 0.97436 0.0
H3740 H 0.66821 0.90785 0.96869 0.0
H3741 H 0.69686 0.90779 0.9257 0.0
H3742 H 0.72403 0.8383 0.9062 0.0
H3743 H 0.71807 0.86148 0.91967 0.0
C3744 C 0.82347 0.19273 0.43176 0.0
C3745 C 0.82198 0.19443 0.41606 0.0
C3746 C 0.82537 0.17836 0.43813 0.0
C3747 C 0.8204 0.13758 0.43023 0.0
H3748 H 0.85355 0.1321 0.45823 0.0
C3749 C 0.8478 0.07958 0.44129 0.0
C3750 C 0.85388 0.07649 0.45562 0.0
C3751 C 0.84167 0.09376 0.43804 0.0
C3752 C 0.84404 0.13342 0.45066 0.0
H3753 H 0.82085 0.18233 0.3948 0.0
H3754 H 0.82407 0.15746 0.40587 0.0
H3755 H 0.84678 0.15742 0.44993 0.0
H3756 H 0.8575 0.08565 0.47802 0.0
H3757 H 0.84652 0.11025 0.47244 0.0
H3758 H 0.81777 0.11359 0.43077 0.0
C3759 C 0.82374 0.16715 0.41329 0.0
C3760 C 0.84018 0.14797 0.44589 0.0
C3761 C 0.82201 0.18146 0.40694 0.0
C3762 C 0.85302 0.08768 0.46682 0.0
C3763 C 0.84682 0.10184 0.46359 0.0
C3764 C 0.8242 0.12304 0.43506 0.0
C3765 C 0.82561 0.16542 0.42894 0.0
C3766 C 0.82852 0.15019 0.43537 0.0
C3767 C 0.84137 0.10518 0.44906 0.0
C3768 C 0.83628 0.12073 0.4451 0.0
H3769 H 0.82351 0.20249 0.43909 0.0
H3770 H 0.8267 0.17737 0.45024 0.0
H3771 H 0.8112 0.13894 0.42229 0.0
H3772 H 0.84831 0.07124 0.43237 0.0
H3773 H 0.83775 0.09594 0.42667 0.0
C3774 C 0.69315 0.18856 0.5954 0.0
C3775 C 0.70416 0.18938 0.60679 0.0
C3776 C 0.68987 0.17478 0.58841 0.0
C3777 C 0.70339 0.13469 0.58505 0.0
H3778 H 0.661 0.1265 0.57809 0.0
C3779 C 0.67618 0.07561 0.5869 0.0
C3780 C 0.66539 0.07198 0.57587 0.0
C3781 C 0.68263 0.08998 0.58735 0.0
C3782 C 0.67291 0.12869 0.57974 0.0
H3783 H 0.72064 0.17642 0.61945 0.0
H3784 H 0.71461 0.1525 0.60779 0.0
H3785 H 0.66891 0.15184 0.58506 0.0
H3786 H 0.65326 0.0804 0.55634 0.0
H3787 H 0.66431 0.1057 0.55738 0.0
H3788 H 0.70712 0.11119 0.58065 0.0
C3789 C 0.70873 0.16246 0.60385 0.0
C3790 C 0.67749 0.14326 0.58369 0.0
C3791 C 0.71214 0.17624 0.61067 0.0
C3792 C 0.66162 0.08284 0.56492 0.0
C3793 C 0.66786 0.09733 0.56556 0.0
C3794 C 0.69876 0.12008 0.58135 0.0
C3795 C 0.69738 0.16145 0.59279 0.0
C3796 C 0.69277 0.14641 0.58673 0.0
C3797 C 0.67822 0.10111 0.57695 0.0
C3798 C 0.68344 0.11688 0.57892 0.0
H3799 H 0.68687 0.19851 0.59208 0.0
H3800 H 0.68127 0.17455 0.57973 0.0
H3801 H 0.71529 0.13671 0.58691 0.0
H3802 H 0.6793 0.06747 0.59548 0.0
H3803 H 0.69051 0.09262 0.59632 0.0
C3804 C 0.07388 0.42471 0.83816 0.0
C3805 C 0.07144 0.4348 0.85009 0.0
C3806 C 0.08805 0.42363 0.83135 0.0
C3807 C 0.12659 0.44125 0.82973 0.0
H3808 H 0.13814 0.40045 0.81902 0.0
C3809 C 0.18832 0.41931 0.82161 0.0
C3810 C 0.19074 0.40974 0.80919 0.0
C3811 C 0.17377 0.42451 0.82501 0.0
C3812 C 0.13503 0.41194 0.8218 0.0
H3813 H 0.08175 0.45208 0.86394 0.0
H3814 H 0.10668 0.44977 0.85255 0.0
H3815 H 0.11272 0.40539 0.82782 0.0
H3816 H 0.17988 0.39883 0.79014 0.0
H3817 H 0.15461 0.40772 0.79621 0.0
H3818 H 0.1494 0.44747 0.82433 0.0
C3819 C 0.09759 0.44295 0.84808 0.0
C3820 C 0.12038 0.41484 0.82677 0.0
C3821 C 0.08329 0.44426 0.85467 0.0
C3822 C 0.17845 0.40612 0.79983 0.0
C3823 C 0.16393 0.41116 0.80333 0.0
C3824 C 0.14138 0.43827 0.82497 0.0
C3825 C 0.10028 0.43232 0.83658 0.0
C3826 C 0.11588 0.42954 0.83078 0.0
C3827 C 0.16138 0.42009 0.81615 0.0
C3828 C 0.14571 0.42359 0.82091 0.0
H3829 H 0.06489 0.41739 0.83429 0.0
H3830 H 0.08947 0.41567 0.8222 0.0
H3831 H 0.12356 0.45274 0.83252 0.0
H3832 H 0.19754 0.42233 0.82903 0.0
H3833 H 0.17209 0.43135 0.83499 0.0
C3834 C 0.32875 0.59645 0.3232 0.0
C3835 C 0.32641 0.60625 0.31092 0.0
C3836 C 0.34328 0.59121 0.32665 0.0
C3837 C 0.382 0.60381 0.32424 0.0
H3838 H 0.39359 0.56258 0.33313 0.0
C3839 C 0.44322 0.59052 0.33998 0.0
C3840 C 0.44579 0.57979 0.35132 0.0
C3841 C 0.42902 0.59189 0.33327 0.0
C3842 C 0.39053 0.57419 0.33086 0.0
H3843 H 0.33744 0.61762 0.29222 0.0
H3844 H 0.36268 0.6087 0.29843 0.0
H3845 H 0.36774 0.56817 0.32513 0.0
H3846 H 0.43566 0.56169 0.36423 0.0
H3847 H 0.41065 0.56447 0.35308 0.0
H3848 H 0.40428 0.61014 0.33062 0.0
C3849 C 0.35329 0.60508 0.30536 0.0
C3850 C 0.37573 0.57734 0.32622 0.0
C3851 C 0.3388 0.61013 0.30179 0.0
C3852 C 0.43402 0.56999 0.35541 0.0
C3853 C 0.41967 0.57159 0.34895 0.0
C3854 C 0.39666 0.60073 0.32912 0.0
C3855 C 0.35574 0.59585 0.318 0.0
C3856 C 0.37137 0.59219 0.32279 0.0
C3857 C 0.41686 0.58285 0.33806 0.0
C3858 C 0.40121 0.58587 0.33245 0.0
H3859 H 0.31945 0.59322 0.33043 0.0
H3860 H 0.34488 0.58413 0.33649 0.0
H3861 H 0.37887 0.61541 0.32194 0.0
H3862 H 0.45215 0.59812 0.3365 0.0
H3863 H 0.42752 0.60034 0.32457 0.0
C3864 C 0.946 0.65906 0.93141 0.0
C3865 C 0.94523 0.66811 0.94442 0.0
C3866 C 0.94382 0.66531 0.91711 0.0
C3867 C 0.92489 0.69673 0.89811 0.0
H3868 H 0.94827 0.68363 0.86353 0.0
C3869 C 0.91076 0.71781 0.83816 0.0
C3870 C 0.91071 0.70682 0.82673 0.0
C3871 C 0.91712 0.71472 0.85228 0.0
C3872 C 0.94156 0.68734 0.87304 0.0
H3873 H 0.94187 0.69093 0.95253 0.0
H3874 H 0.93794 0.70187 0.92744 0.0
H3875 H 0.95541 0.67528 0.88879 0.0
H3876 H 0.91789 0.68414 0.82102 0.0
H3877 H 0.92875 0.67865 0.84565 0.0
H3878 H 0.91072 0.70835 0.8824 0.0
C3879 C 0.94021 0.6899 0.92839 0.0
C3880 C 0.94569 0.68258 0.88753 0.0
C3881 C 0.94254 0.68365 0.94274 0.0
C3882 C 0.91776 0.69289 0.82954 0.0
C3883 C 0.92406 0.68977 0.84369 0.0
C3884 C 0.92071 0.70142 0.88362 0.0
C3885 C 0.9407 0.68076 0.91542 0.0
C3886 C 0.93726 0.68703 0.90021 0.0
C3887 C 0.92355 0.70052 0.85535 0.0
C3888 C 0.92885 0.6966 0.87086 0.0
H3889 H 0.94809 0.64705 0.93227 0.0
H3890 H 0.9441 0.65792 0.90739 0.0
H3891 H 0.91804 0.7002 0.90761 0.0
H3892 H 0.90551 0.72871 0.83635 0.0
H3893 H 0.91678 0.72338 0.86087 0.0
C3894 C 0.57259 0.67091 0.07828 0.0
C3895 C 0.56208 0.65911 0.07709 0.0
C3896 C 0.57569 0.67752 0.09231 0.0
C3897 C 0.56248 0.67866 0.13265 0.0
H3898 H 0.60457 0.68743 0.14068 0.0
C3899 C 0.59048 0.67647 0.19151 0.0
C3900 C 0.60051 0.6881 0.1954 0.0
C3901 C 0.58399 0.67596 0.17714 0.0
C3902 C 0.59273 0.68525 0.13855 0.0
H3903 H 0.54625 0.64532 0.08966 0.0
H3904 H 0.55199 0.65631 0.11398 0.0
H3905 H 0.59669 0.681 0.11517 0.0
H3906 H 0.61126 0.70858 0.18744 0.0
H3907 H 0.60017 0.70745 0.16213 0.0
H3908 H 0.55884 0.682 0.15635 0.0
C3909 C 0.5576 0.66086 0.10414 0.0
C3910 C 0.58816 0.68162 0.12389 0.0
C3911 C 0.55437 0.65444 0.09013 0.0
C3912 C 0.6035 0.69952 0.18479 0.0
C3913 C 0.59724 0.69884 0.1703 0.0
C3914 C 0.56711 0.68203 0.14736 0.0
C3915 C 0.5685 0.67232 0.10551 0.0
C3916 C 0.57301 0.67797 0.12076 0.0
C3917 C 0.58762 0.68692 0.16627 0.0
C3918 C 0.58232 0.68511 0.15049 0.0
H3919 H 0.57866 0.67484 0.06843 0.0
H3920 H 0.58392 0.68652 0.09281 0.0
H3921 H 0.55065 0.67631 0.13069 0.0
H3922 H 0.58796 0.66752 0.19945 0.0
H3923 H 0.57669 0.66659 0.17429 0.0
C3924 C 0.59841 0.3245 0.32814 0.0
C3925 C 0.61201 0.31642 0.32945 0.0
C3926 C 0.58964 0.32752 0.34093 0.0
C3927 C 0.58464 0.31709 0.38151 0.0
H3928 H 0.57067 0.35835 0.38537 0.0
C3929 C 0.57292 0.34596 0.43876 0.0
C3930 C 0.56108 0.35649 0.43964 0.0
C3931 C 0.57654 0.33912 0.425 0.0
C3932 C 0.57424 0.3467 0.3844 0.0
H3933 H 0.62666 0.30461 0.34515 0.0
H3934 H 0.61159 0.31003 0.36731 0.0
H3935 H 0.58148 0.34989 0.36161 0.0
H3936 H 0.54322 0.36741 0.42691 0.0
H3937 H 0.54951 0.35543 0.40298 0.0
H3938 H 0.57788 0.31412 0.40454 0.0
C3939 C 0.60754 0.31392 0.35645 0.0
C3940 C 0.58043 0.34183 0.37074 0.0
C3941 C 0.61628 0.3109 0.3437 0.0
C3942 C 0.55248 0.35943 0.42663 0.0
C3943 C 0.55612 0.35264 0.41288 0.0
C3944 C 0.57851 0.32199 0.3952 0.0
C3945 C 0.59426 0.3225 0.3553 0.0
C3946 C 0.58598 0.32706 0.3692 0.0
C3947 C 0.56842 0.34268 0.41182 0.0
C3948 C 0.57349 0.33693 0.39689 0.0
H3949 H 0.59477 0.32886 0.31731 0.0
H3950 H 0.57935 0.33399 0.33961 0.0
H3951 H 0.58855 0.30555 0.38064 0.0
H3952 H 0.57978 0.34343 0.44856 0.0
H3953 H 0.58615 0.33159 0.42456 0.0
C3954 C 0.92117 0.29999 0.68432 0.0
C3955 C 0.91819 0.31238 0.69376 0.0
C3956 C 0.92674 0.30225 0.6697 0.0
C3957 C 0.94662 0.32861 0.64495 0.0
H3958 H 0.92044 0.314 0.61312 0.0
C3959 C 0.94903 0.35312 0.58487 0.0
C3960 C 0.94442 0.34434 0.5725 0.0
C3961 C 0.94805 0.34748 0.59956 0.0
C3962 C 0.92814 0.31788 0.62176 0.0
H3963 H 0.91947 0.33672 0.69564 0.0
H3964 H 0.92969 0.34058 0.67031 0.0
H3965 H 0.91535 0.30706 0.63921 0.0
H3966 H 0.93593 0.32244 0.56582 0.0
H3967 H 0.93487 0.31229 0.59139 0.0
H3968 H 0.95958 0.33928 0.62766 0.0
C3969 C 0.92754 0.32918 0.67415 0.0
C3970 C 0.92515 0.31393 0.63674 0.0
C3971 C 0.92165 0.32697 0.68861 0.0
C3972 C 0.93946 0.32952 0.57512 0.0
C3973 C 0.93873 0.32376 0.58983 0.0
C3974 C 0.94982 0.33232 0.62994 0.0
C3975 C 0.92978 0.31688 0.66443 0.0
C3976 C 0.93415 0.31954 0.6485 0.0
C3977 C 0.94269 0.33278 0.60231 0.0
C3978 C 0.9404 0.32734 0.61813 0.0
H3979 H 0.91851 0.28863 0.68795 0.0
H3980 H 0.9284 0.29259 0.66241 0.0
H3981 H 0.95381 0.33297 0.65383 0.0
H3982 H 0.9528 0.36463 0.58329 0.0
H3983 H 0.95095 0.35494 0.60877 0.0
loop_
_geom_bond_atom_site_label_1
_geom_bond_atom_site_label_2
_geom_bond_distance
_geom_bond_site_symmetry_2
_ccdc_geom_bond_type
Cu0 N1 1.999 . S
Cu0 O6 1.974 . S
Cu0 N11 1.985 . S
Cu0 O20 1.959 . S
N1 Cu0 1.999 . S
N1 C3 1.263 . S
N1 C5 1.389 . S
N2 C3 1.358 . S
N2 C4 1.400 . S
C3 N1 1.263 . S
C3 N2 1.358 . S
C3 H9 0.930 . S
C4 N2 1.400 . S
C4 C5 1.351 . S
C4 H21 0.930 . S
C5 N1 1.389 . S
C5 C4 1.351 . S
C5 H10 0.930 . S
O6 Cu0 1.974 . S
O6 C16 1.282 . S
C7 O8 1.261 . S
C7 O20 1.251 . S
O8 C7 1.261 . S
H9 C3 0.930 . S
H10 C5 0.930 . S
N11 Cu0 1.985 . S
N11 C13 1.335 . S
N11 C14 1.390 . S
N12 C13 1.345 . S
N12 C15 1.336 . S
C13 N11 1.335 . S
C13 N12 1.345 . S
C13 H18 0.930 . S
C14 N11 1.390 . S
C14 C15 1.346 . S
C14 H19 0.930 . S
C15 N12 1.336 . S
C15 C14 1.346 . S
C15 H22 0.929 . S
C16 O6 1.282 . S
C16 O17 1.216 . S
O17 C16 1.216 . S
H18 C13 0.930 . S
H19 C14 0.930 . S
O20 Cu0 1.959 . S
O20 C7 1.251 . S
H21 C4 0.930 . S
H22 C15 0.929 . S
Cu23 N24 1.999 . S
Cu23 O29 1.974 . S
Cu23 N34 1.985 . S
Cu23 O43 1.959 . S
N24 Cu23 1.999 . S
N24 C26 1.263 . S
N24 C28 1.389 . S
N25 C26 1.358 . S
N25 C27 1.400 . S
C26 N24 1.263 . S
C26 N25 1.358 . S
C26 H32 0.930 . S
C27 N25 1.400 . S
C27 C28 1.351 . S
C27 H44 0.930 . S
C28 N24 1.389 . S
C28 C27 1.351 . S
C28 H33 0.930 . S
O29 Cu23 1.974 . S
O29 C39 1.282 . S
C30 O31 1.261 . S
C30 O43 1.251 . S
O31 C30 1.261 . S
H32 C26 0.930 . S
H33 C28 0.930 . S
N34 Cu23 1.985 . S
N34 C36 1.335 . S
N34 C37 1.390 . S
N35 C36 1.345 . S
N35 C38 1.336 . S
C36 N34 1.335 . S
C36 N35 1.345 . S
C36 H41 0.930 . S
C37 N34 1.390 . S
C37 C38 1.346 . S
C37 H42 0.930 . S
C38 N35 1.336 . S
C38 C37 1.346 . S
C38 H45 0.929 1_655 S
C39 O29 1.282 . S
C39 O40 1.216 . S
O40 C39 1.216 . S
H41 C36 0.930 . S
H42 C37 0.930 . S
O43 Cu23 1.959 . S
O43 C30 1.251 . S
H44 C27 0.930 . S
H45 C38 0.929 1_455 S
Cu46 N47 1.999 . S
Cu46 O52 1.974 . S
Cu46 N57 1.985 . S
Cu46 O66 1.959 . S
N47 Cu46 1.999 . S
N47 C49 1.263 . S
N47 C51 1.389 . S
N48 C49 1.358 . S
N48 C50 1.400 . S
C49 N47 1.263 . S
C49 N48 1.358 . S
C49 H55 0.930 . S
C50 N48 1.400 . S
C50 C51 1.351 . S
C50 H67 0.930 . S
C51 N47 1.389 . S
C51 C50 1.351 . S
C51 H56 0.930 . S
O52 Cu46 1.974 . S
O52 C62 1.282 . S
C53 O54 1.261 . S
C53 O66 1.251 . S
O54 C53 1.261 . S
H55 C49 0.930 . S
H56 C51 0.930 . S
N57 Cu46 1.985 . S
N57 C59 1.335 . S
N57 C60 1.390 . S
N58 C59 1.345 . S
N58 C61 1.336 . S
C59 N57 1.335 . S
C59 N58 1.345 . S
C59 H64 0.930 . S
C60 N57 1.390 . S
C60 C61 1.346 . S
C60 H65 0.930 . S
C61 N58 1.336 . S
C61 C60 1.346 . S
C61 H68 0.929 . S
C62 O52 1.282 . S
C62 O63 1.216 . S
O63 C62 1.216 . S
H64 C59 0.930 . S
H65 C60 0.930 . S
O66 Cu46 1.959 . S
O66 C53 1.251 . S
H67 C50 0.930 . S
H68 C61 0.929 . S
Cu69 N70 1.999 . S
Cu69 O75 1.974 . S
Cu69 N80 1.985 . S
Cu69 O89 1.959 . S
N70 Cu69 1.999 . S
N70 C72 1.263 . S
N70 C74 1.389 . S
N71 C72 1.358 . S
N71 C73 1.400 . S
C72 N70 1.263 . S
C72 N71 1.358 . S
C72 H78 0.930 . S
C73 N71 1.400 . S
C73 C74 1.351 . S
C73 H90 0.930 . S
C74 N70 1.389 . S
C74 C73 1.351 . S
C74 H79 0.930 . S
O75 Cu69 1.974 . S
O75 C85 1.282 . S
C76 O77 1.261 . S
C76 O89 1.251 . S
O77 C76 1.261 . S
H78 C72 0.930 . S
H79 C74 0.930 . S
N80 Cu69 1.985 . S
N80 C82 1.335 . S
N80 C83 1.390 . S
N81 C82 1.345 . S
N81 C84 1.336 . S
C82 N80 1.335 . S
C82 N81 1.345 . S
C82 H87 0.930 . S
C83 N80 1.390 . S
C83 C84 1.346 . S
C83 H88 0.930 . S
C84 N81 1.336 . S
C84 C83 1.346 . S
C84 H91 0.929 . S
C85 O75 1.282 . S
C85 O86 1.216 . S
O86 C85 1.216 . S
H87 C82 0.930 . S
H88 C83 0.930 . S
O89 Cu69 1.959 . S
O89 C76 1.251 . S
H90 C73 0.930 . S
H91 C84 0.929 . S
Cu92 N93 1.999 . S
Cu92 O98 1.974 . S
Cu92 N103 1.985 . S
Cu92 O112 1.959 . S
N93 Cu92 1.999 . S
N93 C95 1.263 . S
N93 C97 1.389 . S
N94 C95 1.358 . S
N94 C96 1.400 . S
C95 N93 1.263 . S
C95 N94 1.358 . S
C95 H101 0.930 . S
C96 N94 1.400 . S
C96 C97 1.351 . S
C96 H113 0.930 . S
C97 N93 1.389 . S
C97 C96 1.351 . S
C97 H102 0.930 . S
O98 Cu92 1.974 . S
O98 C108 1.282 . S
C99 O100 1.261 . S
C99 O112 1.251 . S
O100 C99 1.261 . S
H101 C95 0.930 . S
H102 C97 0.930 . S
N103 Cu92 1.985 . S
N103 C105 1.335 . S
N103 C106 1.390 . S
N104 C105 1.345 . S
N104 C107 1.336 . S
C105 N103 1.335 . S
C105 N104 1.345 . S
C105 H110 0.930 . S
C106 N103 1.390 . S
C106 C107 1.346 . S
C106 H111 0.930 . S
C107 N104 1.336 . S
C107 C106 1.346 . S
C107 H114 0.929 . S
C108 O98 1.282 . S
C108 O109 1.216 . S
O109 C108 1.216 . S
H110 C105 0.930 . S
H111 C106 0.930 . S
O112 Cu92 1.959 . S
O112 C99 1.251 . S
H113 C96 0.930 . S
H114 C107 0.929 . S
Cu115 N116 1.999 . S
Cu115 O121 1.974 . S
Cu115 N126 1.985 . S
Cu115 O135 1.959 . S
N116 Cu115 1.999 . S
N116 C118 1.263 . S
N116 C120 1.389 . S
N117 C118 1.358 . S
N117 C119 1.400 . S
C118 N116 1.263 . S
C118 N117 1.358 . S
C118 H124 0.930 . S
C119 N117 1.400 . S
C119 C120 1.351 . S
C119 H136 0.930 . S
C120 N116 1.389 . S
C120 C119 1.351 . S
C120 H125 0.930 . S
O121 Cu115 1.974 . S
O121 C131 1.282 . S
C122 O123 1.261 . S
C122 O135 1.251 . S
O123 C122 1.261 . S
H124 C118 0.930 . S
H125 C120 0.930 . S
N126 Cu115 1.985 . S
N126 C128 1.335 . S
N126 C129 1.390 . S
N127 C128 1.345 . S
N127 C130 1.336 . S
C128 N126 1.335 . S
C128 N127 1.345 . S
C128 H133 0.930 . S
C129 N126 1.390 . S
C129 C130 1.346 . S
C129 H134 0.930 . S
C130 N127 1.336 . S
C130 C129 1.346 . S
C130 H137 0.929 . S
C131 O121 1.282 . S
C131 O132 1.216 . S
O132 C131 1.216 . S
H133 C128 0.930 . S
H134 C129 0.930 . S
O135 Cu115 1.959 . S
O135 C122 1.251 . S
H136 C119 0.930 . S
H137 C130 0.929 . S
Cu138 N139 1.999 . S
Cu138 O144 1.974 . S
Cu138 N149 1.985 . S
Cu138 O158 1.959 . S
N139 Cu138 1.999 . S
N139 C141 1.263 . S
N139 C143 1.389 . S
N140 C141 1.358 . S
N140 C142 1.400 . S
C141 N139 1.263 . S
C141 N140 1.358 . S
C141 H147 0.930 . S
C142 N140 1.400 . S
C142 C143 1.351 . S
C142 H159 0.930 . S
C143 N139 1.389 . S
C143 C142 1.351 . S
C143 H148 0.930 . S
O144 Cu138 1.974 . S
O144 C154 1.282 . S
C145 O146 1.261 . S
C145 O158 1.251 . S
O146 C145 1.261 . S
H147 C141 0.930 . S
H148 C143 0.930 . S
N149 Cu138 1.985 . S
N149 C151 1.335 . S
N149 C152 1.390 . S
N150 C151 1.345 . S
N150 C153 1.336 . S
C151 N149 1.335 . S
C151 N150 1.345 . S
C151 H156 0.930 . S
C152 N149 1.390 . S
C152 C153 1.346 . S
C152 H157 0.930 . S
C153 N150 1.336 . S
C153 C152 1.346 . S
C153 H160 0.929 . S
C154 O144 1.282 . S
C154 O155 1.216 . S
O155 C154 1.216 . S
H156 C151 0.930 . S
H157 C152 0.930 . S
O158 Cu138 1.959 . S
O158 C145 1.251 . S
H159 C142 0.930 . S
H160 C153 0.929 . S
Cu161 N162 1.999 . S
Cu161 O167 1.974 . S
Cu161 N172 1.985 . S
Cu161 O181 1.959 . S
N162 Cu161 1.999 . S
N162 C164 1.263 . S
N162 C166 1.389 . S
N163 C164 1.358 . S
N163 C165 1.400 . S
C164 N162 1.263 . S
C164 N163 1.358 . S
C164 H170 0.930 . S
C165 N163 1.400 . S
C165 C166 1.351 . S
C165 H182 0.930 . S
C166 N162 1.389 . S
C166 C165 1.351 . S
C166 H171 0.930 . S
O167 Cu161 1.974 . S
O167 C177 1.282 . S
C168 O169 1.261 . S
C168 O181 1.251 . S
O169 C168 1.261 . S
H170 C164 0.930 . S
H171 C166 0.930 . S
N172 Cu161 1.985 . S
N172 C174 1.335 . S
N172 C175 1.390 . S
N173 C174 1.345 . S
N173 C176 1.336 . S
C174 N172 1.335 . S
C174 N173 1.345 . S
C174 H179 0.930 . S
C175 N172 1.390 . S
C175 C176 1.346 . S
C175 H180 0.930 . S
C176 N173 1.336 . S
C176 C175 1.346 . S
C176 H183 0.929 1_655 S
C177 O167 1.282 . S
C177 O178 1.216 . S
O178 C177 1.216 . S
H179 C174 0.930 . S
H180 C175 0.930 . S
O181 Cu161 1.959 . S
O181 C168 1.251 . S
H182 C165 0.930 . S
H183 C176 0.929 1_455 S
Cu184 N185 1.999 . S
Cu184 O190 1.974 . S
Cu184 N195 1.985 . S
Cu184 O204 1.959 . S
N185 Cu184 1.999 . S
N185 C187 1.263 . S
N185 C189 1.389 . S
N186 C187 1.358 . S
N186 C188 1.400 . S
C187 N185 1.263 . S
C187 N186 1.358 . S
C187 H193 0.930 . S
C188 N186 1.400 . S
C188 C189 1.351 . S
C188 H205 0.930 . S
C189 N185 1.389 . S
C189 C188 1.351 . S
C189 H194 0.930 . S
O190 Cu184 1.974 . S
O190 C200 1.282 . S
C191 O192 1.261 . S
C191 O204 1.251 . S
O192 C191 1.261 . S
H193 C187 0.930 . S
H194 C189 0.930 . S
N195 Cu184 1.985 . S
N195 C197 1.335 . S
N195 C198 1.390 . S
N196 C197 1.345 . S
N196 C199 1.336 . S
C197 N195 1.335 . S
C197 N196 1.345 . S
C197 H202 0.930 . S
C198 N195 1.390 . S
C198 C199 1.346 . S
C198 H203 0.930 . S
C199 N196 1.336 . S
C199 C198 1.346 . S
C199 H206 0.929 . S
C200 O190 1.282 . S
C200 O201 1.216 . S
O201 C200 1.216 . S
H202 C197 0.930 . S
H203 C198 0.930 . S
O204 Cu184 1.959 . S
O204 C191 1.251 . S
H205 C188 0.930 . S
H206 C199 0.929 . S
Cu207 N208 1.999 . S
Cu207 O213 1.974 . S
Cu207 N218 1.985 . S
Cu207 O227 1.959 . S
N208 Cu207 1.999 . S
N208 C210 1.263 . S
N208 C212 1.389 . S
N209 C210 1.358 . S
N209 C211 1.400 . S
C210 N208 1.263 . S
C210 N209 1.358 . S
C210 H216 0.930 . S
C211 N209 1.400 . S
C211 C212 1.351 . S
C211 H228 0.930 . S
C212 N208 1.389 . S
C212 C211 1.351 . S
C212 H217 0.930 . S
O213 Cu207 1.974 . S
O213 C223 1.282 . S
C214 O215 1.261 . S
C214 O227 1.251 . S
O215 C214 1.261 . S
H216 C210 0.930 . S
H217 C212 0.930 . S
N218 Cu207 1.985 . S
N218 C220 1.335 . S
N218 C221 1.390 . S
N219 C220 1.345 . S
N219 C222 1.336 . S
C220 N218 1.335 . S
C220 N219 1.345 . S
C220 H225 0.930 . S
C221 N218 1.390 . S
C221 C222 1.346 . S
C221 H226 0.930 . S
C222 N219 1.336 . S
C222 C221 1.346 . S
C222 H229 0.929 . S
C223 O213 1.282 . S
C223 O224 1.216 . S
O224 C223 1.216 . S
H225 C220 0.930 . S
H226 C221 0.930 . S
O227 Cu207 1.959 . S
O227 C214 1.251 . S
H228 C211 0.930 . S
H229 C222 0.929 . S
Cu230 N231 1.999 . S
Cu230 O236 1.974 . S
Cu230 N241 1.985 . S
Cu230 O250 1.959 . S
N231 Cu230 1.999 . S
N231 C233 1.263 . S
N231 C235 1.389 . S
N232 C233 1.358 . S
N232 C234 1.400 . S
C233 N231 1.263 . S
C233 N232 1.358 . S
C233 H239 0.930 . S
C234 N232 1.400 . S
C234 C235 1.351 . S
C234 H251 0.930 . S
C235 N231 1.389 . S
C235 C234 1.351 . S
C235 H240 0.930 . S
O236 Cu230 1.974 . S
O236 C246 1.282 . S
C237 O238 1.261 . S
C237 O250 1.251 . S
O238 C237 1.261 . S
H239 C233 0.930 . S
H240 C235 0.930 . S
N241 Cu230 1.985 . S
N241 C243 1.335 . S
N241 C244 1.390 . S
N242 C243 1.345 . S
N242 C245 1.336 . S
C243 N241 1.335 . S
C243 N242 1.345 . S
C243 H248 0.930 . S
C244 N241 1.390 . S
C244 C245 1.346 . S
C244 H249 0.930 . S
C245 N242 1.336 . S
C245 C244 1.346 . S
C245 H252 0.929 . S
C246 O236 1.282 . S
C246 O247 1.216 . S
O247 C246 1.216 . S
H248 C243 0.930 . S
H249 C244 0.930 . S
O250 Cu230 1.959 . S
O250 C237 1.251 . S
H251 C234 0.930 . S
H252 C245 0.929 . S
Cu253 N254 1.999 . S
Cu253 O259 1.974 . S
Cu253 N264 1.985 . S
Cu253 O273 1.959 . S
N254 Cu253 1.999 . S
N254 C256 1.263 . S
N254 C258 1.389 . S
N255 C256 1.358 . S
N255 C257 1.400 . S
C256 N254 1.263 . S
C256 N255 1.358 . S
C256 H262 0.930 . S
C257 N255 1.400 . S
C257 C258 1.351 . S
C257 H274 0.930 . S
C258 N254 1.389 . S
C258 C257 1.351 . S
C258 H263 0.930 . S
O259 Cu253 1.974 . S
O259 C269 1.282 . S
C260 O261 1.261 . S
C260 O273 1.251 . S
O261 C260 1.261 . S
H262 C256 0.930 . S
H263 C258 0.930 . S
N264 Cu253 1.985 . S
N264 C266 1.335 . S
N264 C267 1.390 . S
N265 C266 1.345 . S
N265 C268 1.336 . S
C266 N264 1.335 . S
C266 N265 1.345 . S
C266 H271 0.930 . S
C267 N264 1.390 . S
C267 C268 1.346 . S
C267 H272 0.930 . S
C268 N265 1.336 . S
C268 C267 1.346 . S
C268 H275 0.929 1_554 S
C269 O259 1.282 . S
C269 O270 1.216 . S
O270 C269 1.216 . S
H271 C266 0.930 . S
H272 C267 0.930 . S
O273 Cu253 1.959 . S
O273 C260 1.251 . S
H274 C257 0.930 . S
H275 C268 0.929 1_556 S
Cu276 N277 1.999 . S
Cu276 O282 1.974 . S
Cu276 N287 1.985 . S
Cu276 O296 1.959 . S
N277 Cu276 1.999 . S
N277 C279 1.263 . S
N277 C281 1.389 . S
N278 C279 1.358 . S
N278 C280 1.400 . S
C279 N277 1.263 . S
C279 N278 1.358 . S
C279 H285 0.930 . S
C280 N278 1.400 . S
C280 C281 1.351 . S
C280 H297 0.930 . S
C281 N277 1.389 . S
C281 C280 1.351 . S
C281 H286 0.930 . S
O282 Cu276 1.974 . S
O282 C292 1.282 . S
C283 O284 1.261 . S
C283 O296 1.251 . S
O284 C283 1.261 . S
H285 C279 0.930 . S
H286 C281 0.930 . S
N287 Cu276 1.985 . S
N287 C289 1.335 . S
N287 C290 1.390 . S
N288 C289 1.345 . S
N288 C291 1.336 . S
C289 N287 1.335 . S
C289 N288 1.345 . S
C289 H294 0.930 . S
C290 N287 1.390 . S
C290 C291 1.346 . S
C290 H295 0.930 . S
C291 N288 1.336 . S
C291 C290 1.346 . S
C291 H298 0.929 . S
C292 O282 1.282 . S
C292 O293 1.216 . S
O293 C292 1.216 . S
H294 C289 0.930 . S
H295 C290 0.930 . S
O296 Cu276 1.959 . S
O296 C283 1.251 . S
H297 C280 0.930 . S
H298 C291 0.929 . S
Cu299 N300 1.999 . S
Cu299 O305 1.974 . S
Cu299 N310 1.985 . S
Cu299 O319 1.959 . S
N300 Cu299 1.999 . S
N300 C302 1.263 . S
N300 C304 1.389 . S
N301 C302 1.358 . S
N301 C303 1.400 . S
C302 N300 1.263 . S
C302 N301 1.358 . S
C302 H308 0.930 . S
C303 N301 1.400 . S
C303 C304 1.351 . S
C303 H320 0.930 . S
C304 N300 1.389 . S
C304 C303 1.351 . S
C304 H309 0.930 . S
O305 Cu299 1.974 . S
O305 C315 1.282 . S
C306 O307 1.261 . S
C306 O319 1.251 . S
O307 C306 1.261 . S
H308 C302 0.930 . S
H309 C304 0.930 . S
N310 Cu299 1.985 . S
N310 C312 1.335 . S
N310 C313 1.390 . S
N311 C312 1.345 . S
N311 C314 1.336 . S
C312 N310 1.335 . S
C312 N311 1.345 . S
C312 H317 0.930 . S
C313 N310 1.390 . S
C313 C314 1.346 . S
C313 H318 0.930 . S
C314 N311 1.336 . S
C314 C313 1.346 . S
C314 H321 0.929 . S
C315 O305 1.282 . S
C315 O316 1.216 . S
O316 C315 1.216 . S
H317 C312 0.930 . S
H318 C313 0.930 . S
O319 Cu299 1.959 . S
O319 C306 1.251 . S
H320 C303 0.930 . S
H321 C314 0.929 . S
Cu322 N323 1.999 . S
Cu322 O328 1.974 . S
Cu322 N333 1.985 . S
Cu322 O342 1.959 . S
N323 Cu322 1.999 . S
N323 C325 1.263 . S
N323 C327 1.389 . S
N324 C325 1.358 . S
N324 C326 1.400 . S
C325 N323 1.263 . S
C325 N324 1.358 . S
C325 H331 0.930 . S
C326 N324 1.400 . S
C326 C327 1.351 . S
C326 H343 0.930 . S
C327 N323 1.389 . S
C327 C326 1.351 . S
C327 H332 0.930 . S
O328 Cu322 1.974 . S
O328 C338 1.282 . S
C329 O330 1.261 . S
C329 O342 1.251 . S
O330 C329 1.261 . S
H331 C325 0.930 . S
H332 C327 0.930 . S
N333 Cu322 1.985 . S
N333 C335 1.335 . S
N333 C336 1.390 . S
N334 C335 1.345 . S
N334 C337 1.336 . S
C335 N333 1.335 . S
C335 N334 1.345 . S
C335 H340 0.930 . S
C336 N333 1.390 . S
C336 C337 1.346 . S
C336 H341 0.930 . S
C337 N334 1.336 . S
C337 C336 1.346 . S
C337 H344 0.929 . S
C338 O328 1.282 . S
C338 O339 1.216 . S
O339 C338 1.216 . S
H340 C335 0.930 . S
H341 C336 0.930 . S
O342 Cu322 1.959 . S
O342 C329 1.251 . S
H343 C326 0.930 . S
H344 C337 0.929 . S
Cu345 N346 1.999 . S
Cu345 O351 1.974 . S
Cu345 N356 1.985 . S
Cu345 O365 1.959 . S
N346 Cu345 1.999 . S
N346 C348 1.263 . S
N346 C350 1.389 . S
N347 C348 1.358 . S
N347 C349 1.400 . S
C348 N346 1.263 . S
C348 N347 1.358 . S
C348 H354 0.930 . S
C349 N347 1.400 . S
C349 C350 1.351 . S
C349 H366 0.930 . S
C350 N346 1.389 . S
C350 C349 1.351 . S
C350 H355 0.930 . S
O351 Cu345 1.974 . S
O351 C361 1.282 . S
C352 O353 1.261 . S
C352 O365 1.251 . S
O353 C352 1.261 . S
H354 C348 0.930 . S
H355 C350 0.930 . S
N356 Cu345 1.985 . S
N356 C358 1.335 . S
N356 C359 1.390 . S
N357 C358 1.345 . S
N357 C360 1.336 . S
C358 N356 1.335 . S
C358 N357 1.345 . S
C358 H363 0.930 . S
C359 N356 1.390 . S
C359 C360 1.346 . S
C359 H364 0.930 . S
C360 N357 1.336 . S
C360 C359 1.346 . S
C360 H367 0.929 1_556 S
C361 O351 1.282 . S
C361 O362 1.216 . S
O362 C361 1.216 . S
H363 C358 0.930 . S
H364 C359 0.930 . S
O365 Cu345 1.959 . S
O365 C352 1.251 . S
H366 C349 0.930 . S
H367 C360 0.929 1_554 S
Cu368 N369 1.999 . S
Cu368 O374 1.974 . S
Cu368 N379 1.985 . S
Cu368 O388 1.959 . S
N369 Cu368 1.999 . S
N369 C371 1.263 . S
N369 C373 1.389 . S
N370 C371 1.358 . S
N370 C372 1.400 . S
C371 N369 1.263 . S
C371 N370 1.358 . S
C371 H377 0.930 . S
C372 N370 1.400 . S
C372 C373 1.351 . S
C372 H389 0.930 . S
C373 N369 1.389 . S
C373 C372 1.351 . S
C373 H378 0.930 . S
O374 Cu368 1.974 . S
O374 C384 1.282 . S
C375 O376 1.261 . S
C375 O388 1.251 . S
O376 C375 1.261 . S
H377 C371 0.930 . S
H378 C373 0.930 . S
N379 Cu368 1.985 . S
N379 C381 1.335 . S
N379 C382 1.390 . S
N380 C381 1.345 . S
N380 C383 1.336 . S
C381 N379 1.335 . S
C381 N380 1.345 . S
C381 H386 0.930 . S
C382 N379 1.390 . S
C382 C383 1.346 . S
C382 H387 0.930 . S
C383 N380 1.336 . S
C383 C382 1.346 . S
C383 H390 0.929 . S
C384 O374 1.282 . S
C384 O385 1.216 . S
O385 C384 1.216 . S
H386 C381 0.930 . S
H387 C382 0.930 . S
O388 Cu368 1.959 . S
O388 C375 1.251 . S
H389 C372 0.930 . S
H390 C383 0.929 . S
Cu391 N392 1.999 . S
Cu391 O397 1.974 . S
Cu391 N402 1.985 . S
Cu391 O411 1.959 . S
N392 Cu391 1.999 . S
N392 C394 1.263 . S
N392 C396 1.389 . S
N393 C394 1.358 . S
N393 C395 1.400 . S
C394 N392 1.263 . S
C394 N393 1.358 . S
C394 H400 0.930 . S
C395 N393 1.400 . S
C395 C396 1.351 . S
C395 H412 0.930 . S
C396 N392 1.389 . S
C396 C395 1.351 . S
C396 H401 0.930 . S
O397 Cu391 1.974 . S
O397 C407 1.282 . S
C398 O399 1.261 . S
C398 O411 1.251 . S
O399 C398 1.261 . S
H400 C394 0.930 . S
H401 C396 0.930 . S
N402 Cu391 1.985 . S
N402 C404 1.335 . S
N402 C405 1.390 . S
N403 C404 1.345 . S
N403 C406 1.336 . S
C404 N402 1.335 . S
C404 N403 1.345 . S
C404 H409 0.930 . S
C405 N402 1.390 . S
C405 C406 1.346 . S
C405 H410 0.930 . S
C406 N403 1.336 . S
C406 C405 1.346 . S
C406 H413 0.929 . S
C407 O397 1.282 . S
C407 O408 1.216 . S
O408 C407 1.216 . S
H409 C404 0.930 . S
H410 C405 0.930 . S
O411 Cu391 1.959 . S
O411 C398 1.251 . S
H412 C395 0.930 . S
H413 C406 0.929 . S
Cu414 N415 1.999 . S
Cu414 O420 1.974 . S
Cu414 N425 1.985 . S
Cu414 O434 1.959 . S
N415 Cu414 1.999 . S
N415 C417 1.263 . S
N415 C419 1.389 . S
N416 C417 1.358 . S
N416 C418 1.400 . S
C417 N415 1.263 . S
C417 N416 1.358 . S
C417 H423 0.930 . S
C418 N416 1.400 . S
C418 C419 1.351 . S
C418 H435 0.930 . S
C419 N415 1.389 . S
C419 C418 1.351 . S
C419 H424 0.930 . S
O420 Cu414 1.974 . S
O420 C430 1.282 . S
C421 O422 1.261 . S
C421 O434 1.251 . S
O422 C421 1.261 . S
H423 C417 0.930 . S
H424 C419 0.930 . S
N425 Cu414 1.985 . S
N425 C427 1.335 . S
N425 C428 1.390 . S
N426 C427 1.345 . S
N426 C429 1.336 . S
C427 N425 1.335 . S
C427 N426 1.345 . S
C427 H432 0.930 . S
C428 N425 1.390 . S
C428 C429 1.346 . S
C428 H433 0.930 . S
C429 N426 1.336 . S
C429 C428 1.346 . S
C429 H436 0.929 . S
C430 O420 1.282 . S
C430 O431 1.216 . S
O431 C430 1.216 . S
H432 C427 0.930 . S
H433 C428 0.930 . S
O434 Cu414 1.959 . S
O434 C421 1.251 . S
H435 C418 0.930 . S
H436 C429 0.929 . S
Cu437 N438 1.999 . S
Cu437 O443 1.974 . S
Cu437 N448 1.985 . S
Cu437 O457 1.959 . S
N438 Cu437 1.999 . S
N438 C440 1.263 . S
N438 C442 1.389 . S
N439 C440 1.358 . S
N439 C441 1.400 . S
C440 N438 1.263 . S
C440 N439 1.358 . S
C440 H446 0.930 . S
C441 N439 1.400 . S
C441 C442 1.351 . S
C441 H458 0.930 . S
C442 N438 1.389 . S
C442 C441 1.351 . S
C442 H447 0.930 . S
O443 Cu437 1.974 . S
O443 C453 1.282 . S
C444 O445 1.261 . S
C444 O457 1.251 . S
O445 C444 1.261 . S
H446 C440 0.930 . S
H447 C442 0.930 . S
N448 Cu437 1.985 . S
N448 C450 1.335 . S
N448 C451 1.390 . S
N449 C450 1.345 . S
N449 C452 1.336 . S
C450 N448 1.335 . S
C450 N449 1.345 . S
C450 H455 0.930 . S
C451 N448 1.390 . S
C451 C452 1.346 . S
C451 H456 0.930 . S
C452 N449 1.336 . S
C452 C451 1.346 . S
C452 H459 0.929 . S
C453 O443 1.282 . S
C453 O454 1.216 . S
O454 C453 1.216 . S
H455 C450 0.930 . S
H456 C451 0.930 . S
O457 Cu437 1.959 . S
O457 C444 1.251 . S
H458 C441 0.930 . S
H459 C452 0.929 . S
Cu460 N461 1.999 . S
Cu460 O466 1.974 . S
Cu460 N471 1.985 . S
Cu460 O480 1.959 . S
N461 Cu460 1.999 . S
N461 C463 1.263 . S
N461 C465 1.389 . S
N462 C463 1.358 . S
N462 C464 1.400 . S
C463 N461 1.263 . S
C463 N462 1.358 . S
C463 H469 0.930 . S
C464 N462 1.400 . S
C464 C465 1.351 . S
C464 H481 0.930 . S
C465 N461 1.389 . S
C465 C464 1.351 . S
C465 H470 0.930 . S
O466 Cu460 1.974 . S
O466 C476 1.282 . S
C467 O468 1.261 . S
C467 O480 1.251 . S
O468 C467 1.261 . S
H469 C463 0.930 . S
H470 C465 0.930 . S
N471 Cu460 1.985 . S
N471 C473 1.335 . S
N471 C474 1.390 . S
N472 C473 1.345 . S
N472 C475 1.336 . S
C473 N471 1.335 . S
C473 N472 1.345 . S
C473 H478 0.930 . S
C474 N471 1.390 . S
C474 C475 1.346 . S
C474 H479 0.930 . S
C475 N472 1.336 . S
C475 C474 1.346 . S
C475 H482 0.929 1_565 S
C476 O466 1.282 . S
C476 O477 1.216 . S
O477 C476 1.216 . S
H478 C473 0.930 . S
H479 C474 0.930 . S
O480 Cu460 1.959 . S
O480 C467 1.251 . S
H481 C464 0.930 . S
H482 C475 0.929 1_545 S
Cu483 N484 1.999 . S
Cu483 O489 1.974 . S
Cu483 N494 1.985 . S
Cu483 O503 1.959 . S
N484 Cu483 1.999 . S
N484 C486 1.263 . S
N484 C488 1.389 . S
N485 C486 1.358 . S
N485 C487 1.400 . S
C486 N484 1.263 . S
C486 N485 1.358 . S
C486 H492 0.930 . S
C487 N485 1.400 . S
C487 C488 1.351 . S
C487 H504 0.930 . S
C488 N484 1.389 . S
C488 C487 1.351 . S
C488 H493 0.930 . S
O489 Cu483 1.974 . S
O489 C499 1.282 . S
C490 O491 1.261 . S
C490 O503 1.251 . S
O491 C490 1.261 . S
H492 C486 0.930 . S
H493 C488 0.930 . S
N494 Cu483 1.985 . S
N494 C496 1.335 . S
N494 C497 1.390 . S
N495 C496 1.345 . S
N495 C498 1.336 . S
C496 N494 1.335 . S
C496 N495 1.345 . S
C496 H501 0.930 . S
C497 N494 1.390 . S
C497 C498 1.346 . S
C497 H502 0.930 . S
C498 N495 1.336 . S
C498 C497 1.346 . S
C498 H505 0.929 . S
C499 O489 1.282 . S
C499 O500 1.216 . S
O500 C499 1.216 . S
H501 C496 0.930 . S
H502 C497 0.930 . S
O503 Cu483 1.959 . S
O503 C490 1.251 . S
H504 C487 0.930 . S
H505 C498 0.929 . S
Cu506 N507 1.999 . S
Cu506 O512 1.974 . S
Cu506 N517 1.985 . S
Cu506 O526 1.959 . S
N507 Cu506 1.999 . S
N507 C509 1.263 . S
N507 C511 1.389 . S
N508 C509 1.358 . S
N508 C510 1.400 . S
C509 N507 1.263 . S
C509 N508 1.358 . S
C509 H515 0.930 . S
C510 N508 1.400 . S
C510 C511 1.351 . S
C510 H527 0.930 . S
C511 N507 1.389 . S
C511 C510 1.351 . S
C511 H516 0.930 . S
O512 Cu506 1.974 . S
O512 C522 1.282 . S
C513 O514 1.261 . S
C513 O526 1.251 . S
O514 C513 1.261 . S
H515 C509 0.930 . S
H516 C511 0.930 . S
N517 Cu506 1.985 . S
N517 C519 1.335 . S
N517 C520 1.390 . S
N518 C519 1.345 . S
N518 C521 1.336 . S
C519 N517 1.335 . S
C519 N518 1.345 . S
C519 H524 0.930 . S
C520 N517 1.390 . S
C520 C521 1.346 . S
C520 H525 0.930 . S
C521 N518 1.336 . S
C521 C520 1.346 . S
C521 H528 0.929 . S
C522 O512 1.282 . S
C522 O523 1.216 . S
O523 C522 1.216 . S
H524 C519 0.930 . S
H525 C520 0.930 . S
O526 Cu506 1.959 . S
O526 C513 1.251 . S
H527 C510 0.930 . S
H528 C521 0.929 . S
Cu529 N530 1.999 . S
Cu529 O535 1.974 . S
Cu529 N540 1.985 . S
Cu529 O549 1.959 . S
N530 Cu529 1.999 . S
N530 C532 1.263 . S
N530 C534 1.389 . S
N531 C532 1.358 . S
N531 C533 1.400 . S
C532 N530 1.263 . S
C532 N531 1.358 . S
C532 H538 0.930 . S
C533 N531 1.400 . S
C533 C534 1.351 . S
C533 H550 0.930 . S
C534 N530 1.389 . S
C534 C533 1.351 . S
C534 H539 0.930 . S
O535 Cu529 1.974 . S
O535 C545 1.282 . S
C536 O537 1.261 . S
C536 O549 1.251 . S
O537 C536 1.261 . S
H538 C532 0.930 . S
H539 C534 0.930 . S
N540 Cu529 1.985 . S
N540 C542 1.335 . S
N540 C543 1.390 . S
N541 C542 1.345 . S
N541 C544 1.336 . S
C542 N540 1.335 . S
C542 N541 1.345 . S
C542 H547 0.930 . S
C543 N540 1.390 . S
C543 C544 1.346 . S
C543 H548 0.930 . S
C544 N541 1.336 . S
C544 C543 1.346 . S
C544 H551 0.929 . S
C545 O535 1.282 . S
C545 O546 1.216 . S
O546 C545 1.216 . S
H547 C542 0.930 . S
H548 C543 0.930 . S
O549 Cu529 1.959 . S
O549 C536 1.251 . S
H550 C533 0.930 . S
H551 C544 0.929 . S
Cu552 N553 1.999 . S
Cu552 O558 1.974 . S
Cu552 N563 1.985 . S
Cu552 O572 1.959 . S
N553 Cu552 1.999 . S
N553 C555 1.263 . S
N553 C557 1.389 . S
N554 C555 1.358 . S
N554 C556 1.400 . S
C555 N553 1.263 . S
C555 N554 1.358 . S
C555 H561 0.930 . S
C556 N554 1.400 . S
C556 C557 1.351 . S
C556 H573 0.930 . S
C557 N553 1.389 . S
C557 C556 1.351 . S
C557 H562 0.930 . S
O558 Cu552 1.974 . S
O558 C568 1.282 . S
C559 O560 1.261 . S
C559 O572 1.251 . S
O560 C559 1.261 . S
H561 C555 0.930 . S
H562 C557 0.930 . S
N563 Cu552 1.985 . S
N563 C565 1.335 . S
N563 C566 1.390 . S
N564 C565 1.345 . S
N564 C567 1.336 . S
C565 N563 1.335 . S
C565 N564 1.345 . S
C565 H570 0.930 . S
C566 N563 1.390 . S
C566 C567 1.346 . S
C566 H571 0.930 . S
C567 N564 1.336 . S
C567 C566 1.346 . S
C567 H574 0.929 . S
C568 O558 1.282 . S
C568 O569 1.216 . S
O569 C568 1.216 . S
H570 C565 0.930 . S
H571 C566 0.930 . S
O572 Cu552 1.959 . S
O572 C559 1.251 . S
H573 C556 0.930 . S
H574 C567 0.929 . S
Cu575 N576 1.999 . S
Cu575 O581 1.974 . S
Cu575 N586 1.985 . S
Cu575 O595 1.959 . S
N576 Cu575 1.999 . S
N576 C578 1.263 . S
N576 C580 1.389 . S
N577 C578 1.358 . S
N577 C579 1.400 . S
C578 N576 1.263 . S
C578 N577 1.358 . S
C578 H584 0.930 . S
C579 N577 1.400 . S
C579 C580 1.351 . S
C579 H596 0.930 . S
C580 N576 1.389 . S
C580 C579 1.351 . S
C580 H585 0.930 . S
O581 Cu575 1.974 . S
O581 C591 1.282 . S
C582 O583 1.261 . S
C582 O595 1.251 . S
O583 C582 1.261 . S
H584 C578 0.930 . S
H585 C580 0.930 . S
N586 Cu575 1.985 . S
N586 C588 1.335 . S
N586 C589 1.390 . S
N587 C588 1.345 . S
N587 C590 1.336 . S
C588 N586 1.335 . S
C588 N587 1.345 . S
C588 H593 0.930 . S
C589 N586 1.390 . S
C589 C590 1.346 . S
C589 H594 0.930 . S
C590 N587 1.336 . S
C590 C589 1.346 . S
C590 H597 0.929 . S
C591 O581 1.282 . S
C591 O592 1.216 . S
O592 C591 1.216 . S
H593 C588 0.930 . S
H594 C589 0.930 . S
O595 Cu575 1.959 . S
O595 C582 1.251 . S
H596 C579 0.930 . S
H597 C590 0.929 . S
Cu598 N599 1.999 . S
Cu598 O604 1.974 . S
Cu598 N609 1.985 . S
Cu598 O618 1.959 . S
N599 Cu598 1.999 . S
N599 C601 1.263 . S
N599 C603 1.389 . S
N600 C601 1.358 . S
N600 C602 1.400 . S
C601 N599 1.263 . S
C601 N600 1.358 . S
C601 H607 0.930 . S
C602 N600 1.400 . S
C602 C603 1.351 . S
C602 H619 0.930 . S
C603 N599 1.389 . S
C603 C602 1.351 . S
C603 H608 0.930 . S
O604 Cu598 1.974 . S
O604 C614 1.282 . S
C605 O606 1.261 . S
C605 O618 1.251 . S
O606 C605 1.261 . S
H607 C601 0.930 . S
H608 C603 0.930 . S
N609 Cu598 1.985 . S
N609 C611 1.335 . S
N609 C612 1.390 . S
N610 C611 1.345 . S
N610 C613 1.336 . S
C611 N609 1.335 . S
C611 N610 1.345 . S
C611 H616 0.930 . S
C612 N609 1.390 . S
C612 C613 1.346 . S
C612 H617 0.930 . S
C613 N610 1.336 . S
C613 C612 1.346 . S
C613 H620 0.929 . S
C614 O604 1.282 . S
C614 O615 1.216 . S
O615 C614 1.216 . S
H616 C611 0.930 . S
H617 C612 0.930 . S
O618 Cu598 1.959 . S
O618 C605 1.251 . S
H619 C602 0.930 . S
H620 C613 0.929 . S
Cu621 N622 1.999 . S
Cu621 O627 1.974 . S
Cu621 N632 1.985 . S
Cu621 O641 1.959 . S
N622 Cu621 1.999 . S
N622 C624 1.263 . S
N622 C626 1.389 . S
N623 C624 1.358 . S
N623 C625 1.400 . S
C624 N622 1.263 . S
C624 N623 1.358 . S
C624 H630 0.930 . S
C625 N623 1.400 . S
C625 C626 1.351 . S
C625 H642 0.930 . S
C626 N622 1.389 . S
C626 C625 1.351 . S
C626 H631 0.930 . S
O627 Cu621 1.974 . S
O627 C637 1.282 . S
C628 O629 1.261 . S
C628 O641 1.251 . S
O629 C628 1.261 . S
H630 C624 0.930 . S
H631 C626 0.930 . S
N632 Cu621 1.985 . S
N632 C634 1.335 . S
N632 C635 1.390 . S
N633 C634 1.345 . S
N633 C636 1.336 . S
C634 N632 1.335 . S
C634 N633 1.345 . S
C634 H639 0.930 . S
C635 N632 1.390 . S
C635 C636 1.346 . S
C635 H640 0.930 . S
C636 N633 1.336 . S
C636 C635 1.346 . S
C636 H643 0.929 1_455 S
C637 O627 1.282 . S
C637 O638 1.216 . S
O638 C637 1.216 . S
H639 C634 0.930 . S
H640 C635 0.930 . S
O641 Cu621 1.959 . S
O641 C628 1.251 . S
H642 C625 0.930 . S
H643 C636 0.929 1_655 S
Cu644 N645 1.999 . S
Cu644 O650 1.974 . S
Cu644 N655 1.985 . S
Cu644 O664 1.959 . S
N645 Cu644 1.999 . S
N645 C647 1.263 . S
N645 C649 1.389 . S
N646 C647 1.358 . S
N646 C648 1.400 . S
C647 N645 1.263 . S
C647 N646 1.358 . S
C647 H653 0.930 . S
C648 N646 1.400 . S
C648 C649 1.351 . S
C648 H665 0.930 . S
C649 N645 1.389 . S
C649 C648 1.351 . S
C649 H654 0.930 . S
O650 Cu644 1.974 . S
O650 C660 1.282 . S
C651 O652 1.261 . S
C651 O664 1.251 . S
O652 C651 1.261 . S
H653 C647 0.930 . S
H654 C649 0.930 . S
N655 Cu644 1.985 . S
N655 C657 1.335 . S
N655 C658 1.390 . S
N656 C657 1.345 . S
N656 C659 1.336 . S
C657 N655 1.335 . S
C657 N656 1.345 . S
C657 H662 0.930 . S
C658 N655 1.390 . S
C658 C659 1.346 . S
C658 H663 0.930 . S
C659 N656 1.336 . S
C659 C658 1.346 . S
C659 H666 0.929 . S
C660 O650 1.282 . S
C660 O661 1.216 . S
O661 C660 1.216 . S
H662 C657 0.930 . S
H663 C658 0.930 . S
O664 Cu644 1.959 . S
O664 C651 1.251 . S
H665 C648 0.930 . S
H666 C659 0.929 . S
Cu667 N668 1.999 . S
Cu667 O673 1.974 . S
Cu667 N678 1.985 . S
Cu667 O687 1.959 . S
N668 Cu667 1.999 . S
N668 C670 1.263 . S
N668 C672 1.389 . S
N669 C670 1.358 . S
N669 C671 1.400 . S
C670 N668 1.263 . S
C670 N669 1.358 . S
C670 H676 0.930 . S
C671 N669 1.400 . S
C671 C672 1.351 . S
C671 H688 0.930 . S
C672 N668 1.389 . S
C672 C671 1.351 . S
C672 H677 0.930 . S
O673 Cu667 1.974 . S
O673 C683 1.282 . S
C674 O675 1.261 . S
C674 O687 1.251 . S
O675 C674 1.261 . S
H676 C670 0.930 . S
H677 C672 0.930 . S
N678 Cu667 1.985 . S
N678 C680 1.335 . S
N678 C681 1.390 . S
N679 C680 1.345 . S
N679 C682 1.336 . S
C680 N678 1.335 . S
C680 N679 1.345 . S
C680 H685 0.930 . S
C681 N678 1.390 . S
C681 C682 1.346 . S
C681 H686 0.930 . S
C682 N679 1.336 . S
C682 C681 1.346 . S
C682 H689 0.929 1_455 S
C683 O673 1.282 . S
C683 O684 1.216 . S
O684 C683 1.216 . S
H685 C680 0.930 . S
H686 C681 0.930 . S
O687 Cu667 1.959 . S
O687 C674 1.251 . S
H688 C671 0.930 . S
H689 C682 0.929 1_655 S
Cu690 N691 1.999 . S
Cu690 O696 1.974 . S
Cu690 N701 1.985 . S
Cu690 O710 1.959 . S
N691 Cu690 1.999 . S
N691 C693 1.263 . S
N691 C695 1.389 . S
N692 C693 1.358 . S
N692 C694 1.400 . S
C693 N691 1.263 . S
C693 N692 1.358 . S
C693 H699 0.930 . S
C694 N692 1.400 . S
C694 C695 1.351 . S
C694 H711 0.930 . S
C695 N691 1.389 . S
C695 C694 1.351 . S
C695 H700 0.930 . S
O696 Cu690 1.974 . S
O696 C706 1.282 . S
C697 O698 1.261 . S
C697 O710 1.251 . S
O698 C697 1.261 . S
H699 C693 0.930 . S
H700 C695 0.930 . S
N701 Cu690 1.985 . S
N701 C703 1.335 . S
N701 C704 1.390 . S
N702 C703 1.345 . S
N702 C705 1.336 . S
C703 N701 1.335 . S
C703 N702 1.345 . S
C703 H708 0.930 . S
C704 N701 1.390 . S
C704 C705 1.346 . S
C704 H709 0.930 . S
C705 N702 1.336 . S
C705 C704 1.346 . S
C705 H712 0.929 . S
C706 O696 1.282 . S
C706 O707 1.216 . S
O707 C706 1.216 . S
H708 C703 0.930 . S
H709 C704 0.930 . S
O710 Cu690 1.959 . S
O710 C697 1.251 . S
H711 C694 0.930 . S
H712 C705 0.929 . S
Cu713 N714 1.999 . S
Cu713 O719 1.974 . S
Cu713 N724 1.985 . S
Cu713 O733 1.959 . S
N714 Cu713 1.999 . S
N714 C716 1.263 . S
N714 C718 1.389 . S
N715 C716 1.358 . S
N715 C717 1.400 . S
C716 N714 1.263 . S
C716 N715 1.358 . S
C716 H722 0.930 . S
C717 N715 1.400 . S
C717 C718 1.351 . S
C717 H734 0.930 . S
C718 N714 1.389 . S
C718 C717 1.351 . S
C718 H723 0.930 . S
O719 Cu713 1.974 . S
O719 C729 1.282 . S
C720 O721 1.261 . S
C720 O733 1.251 . S
O721 C720 1.261 . S
H722 C716 0.930 . S
H723 C718 0.930 . S
N724 Cu713 1.985 . S
N724 C726 1.335 . S
N724 C727 1.390 . S
N725 C726 1.345 . S
N725 C728 1.336 . S
C726 N724 1.335 . S
C726 N725 1.345 . S
C726 H731 0.930 . S
C727 N724 1.390 . S
C727 C728 1.346 . S
C727 H732 0.930 . S
C728 N725 1.336 . S
C728 C727 1.346 . S
C728 H735 0.929 . S
C729 O719 1.282 . S
C729 O730 1.216 . S
O730 C729 1.216 . S
H731 C726 0.930 . S
H732 C727 0.930 . S
O733 Cu713 1.959 . S
O733 C720 1.251 . S
H734 C717 0.930 . S
H735 C728 0.929 . S
Cu736 N737 1.999 . S
Cu736 O742 1.974 . S
Cu736 N747 1.985 . S
Cu736 O756 1.959 . S
N737 Cu736 1.999 . S
N737 C739 1.263 . S
N737 C741 1.389 . S
N738 C739 1.358 . S
N738 C740 1.400 . S
C739 N737 1.263 . S
C739 N738 1.358 . S
C739 H745 0.930 . S
C740 N738 1.400 . S
C740 C741 1.351 . S
C740 H757 0.930 . S
C741 N737 1.389 . S
C741 C740 1.351 . S
C741 H746 0.930 . S
O742 Cu736 1.974 . S
O742 C752 1.282 . S
C743 O744 1.261 . S
C743 O756 1.251 . S
O744 C743 1.261 . S
H745 C739 0.930 . S
H746 C741 0.930 . S
N747 Cu736 1.985 . S
N747 C749 1.335 . S
N747 C750 1.390 . S
N748 C749 1.345 . S
N748 C751 1.336 . S
C749 N747 1.335 . S
C749 N748 1.345 . S
C749 H754 0.930 . S
C750 N747 1.390 . S
C750 C751 1.346 . S
C750 H755 0.930 . S
C751 N748 1.336 . S
C751 C750 1.346 . S
C751 H758 0.929 . S
C752 O742 1.282 . S
C752 O753 1.216 . S
O753 C752 1.216 . S
H754 C749 0.930 . S
H755 C750 0.930 . S
O756 Cu736 1.959 . S
O756 C743 1.251 . S
H757 C740 0.930 . S
H758 C751 0.929 . S
Cu759 N760 1.999 . S
Cu759 O765 1.974 . S
Cu759 N770 1.985 . S
Cu759 O779 1.959 . S
N760 Cu759 1.999 . S
N760 C762 1.263 . S
N760 C764 1.389 . S
N761 C762 1.358 . S
N761 C763 1.400 . S
C762 N760 1.263 . S
C762 N761 1.358 . S
C762 H768 0.930 . S
C763 N761 1.400 . S
C763 C764 1.351 . S
C763 H780 0.930 . S
C764 N760 1.389 . S
C764 C763 1.351 . S
C764 H769 0.930 . S
O765 Cu759 1.974 . S
O765 C775 1.282 . S
C766 O767 1.261 . S
C766 O779 1.251 . S
O767 C766 1.261 . S
H768 C762 0.930 . S
H769 C764 0.930 . S
N770 Cu759 1.985 . S
N770 C772 1.335 . S
N770 C773 1.390 . S
N771 C772 1.345 . S
N771 C774 1.336 . S
C772 N770 1.335 . S
C772 N771 1.345 . S
C772 H777 0.930 . S
C773 N770 1.390 . S
C773 C774 1.346 . S
C773 H778 0.930 . S
C774 N771 1.336 . S
C774 C773 1.346 . S
C774 H781 0.929 1_554 S
C775 O765 1.282 . S
C775 O776 1.216 . S
O776 C775 1.216 . S
H777 C772 0.930 . S
H778 C773 0.930 . S
O779 Cu759 1.959 . S
O779 C766 1.251 . S
H780 C763 0.930 . S
H781 C774 0.929 1_556 S
Cu782 N783 1.999 . S
Cu782 O788 1.974 . S
Cu782 N793 1.985 . S
Cu782 O802 1.959 . S
N783 Cu782 1.999 . S
N783 C785 1.263 . S
N783 C787 1.389 . S
N784 C785 1.358 . S
N784 C786 1.400 . S
C785 N783 1.263 . S
C785 N784 1.358 . S
C785 H791 0.930 . S
C786 N784 1.400 . S
C786 C787 1.351 . S
C786 H803 0.930 . S
C787 N783 1.389 . S
C787 C786 1.351 . S
C787 H792 0.930 . S
O788 Cu782 1.974 . S
O788 C798 1.282 . S
C789 O790 1.261 . S
C789 O802 1.251 . S
O790 C789 1.261 . S
H791 C785 0.930 . S
H792 C787 0.930 . S
N793 Cu782 1.985 . S
N793 C795 1.335 . S
N793 C796 1.390 . S
N794 C795 1.345 . S
N794 C797 1.336 . S
C795 N793 1.335 . S
C795 N794 1.345 . S
C795 H800 0.930 . S
C796 N793 1.390 . S
C796 C797 1.346 . S
C796 H801 0.930 . S
C797 N794 1.336 . S
C797 C796 1.346 . S
C797 H804 0.929 . S
C798 O788 1.282 . S
C798 O799 1.216 . S
O799 C798 1.216 . S
H800 C795 0.930 . S
H801 C796 0.930 . S
O802 Cu782 1.959 . S
O802 C789 1.251 . S
H803 C786 0.930 . S
H804 C797 0.929 . S
Cu805 N806 1.999 . S
Cu805 O811 1.974 . S
Cu805 N816 1.985 . S
Cu805 O825 1.959 . S
N806 Cu805 1.999 . S
N806 C808 1.263 . S
N806 C810 1.389 . S
N807 C808 1.358 . S
N807 C809 1.400 . S
C808 N806 1.263 . S
C808 N807 1.358 . S
C808 H814 0.930 . S
C809 N807 1.400 . S
C809 C810 1.351 . S
C809 H826 0.930 . S
C810 N806 1.389 . S
C810 C809 1.351 . S
C810 H815 0.930 . S
O811 Cu805 1.974 . S
O811 C821 1.282 . S
C812 O813 1.261 . S
C812 O825 1.251 . S
O813 C812 1.261 . S
H814 C808 0.930 . S
H815 C810 0.930 . S
N816 Cu805 1.985 . S
N816 C818 1.335 . S
N816 C819 1.390 . S
N817 C818 1.345 . S
N817 C820 1.336 . S
C818 N816 1.335 . S
C818 N817 1.345 . S
C818 H823 0.930 . S
C819 N816 1.390 . S
C819 C820 1.346 . S
C819 H824 0.930 . S
C820 N817 1.336 . S
C820 C819 1.346 . S
C820 H827 0.929 . S
C821 O811 1.282 . S
C821 O822 1.216 . S
O822 C821 1.216 . S
H823 C818 0.930 . S
H824 C819 0.930 . S
O825 Cu805 1.959 . S
O825 C812 1.251 . S
H826 C809 0.930 . S
H827 C820 0.929 . S
Cu828 N829 1.999 . S
Cu828 O834 1.974 . S
Cu828 N839 1.985 . S
Cu828 O848 1.959 . S
N829 Cu828 1.999 . S
N829 C831 1.263 . S
N829 C833 1.389 . S
N830 C831 1.358 . S
N830 C832 1.400 . S
C831 N829 1.263 . S
C831 N830 1.358 . S
C831 H837 0.930 . S
C832 N830 1.400 . S
C832 C833 1.351 . S
C832 H849 0.930 . S
C833 N829 1.389 . S
C833 C832 1.351 . S
C833 H838 0.930 . S
O834 Cu828 1.974 . S
O834 C844 1.282 . S
C835 O836 1.261 . S
C835 O848 1.251 . S
O836 C835 1.261 . S
H837 C831 0.930 . S
H838 C833 0.930 . S
N839 Cu828 1.985 . S
N839 C841 1.335 . S
N839 C842 1.390 . S
N840 C841 1.345 . S
N840 C843 1.336 . S
C841 N839 1.335 . S
C841 N840 1.345 . S
C841 H846 0.930 . S
C842 N839 1.390 . S
C842 C843 1.346 . S
C842 H847 0.930 . S
C843 N840 1.336 . S
C843 C842 1.346 . S
C843 H850 0.929 . S
C844 O834 1.282 . S
C844 O845 1.216 . S
O845 C844 1.216 . S
H846 C841 0.930 . S
H847 C842 0.930 . S
O848 Cu828 1.959 . S
O848 C835 1.251 . S
H849 C832 0.930 . S
H850 C843 0.929 . S
Cu851 N852 1.999 . S
Cu851 O857 1.974 . S
Cu851 N862 1.985 . S
Cu851 O871 1.959 . S
N852 Cu851 1.999 . S
N852 C854 1.263 . S
N852 C856 1.389 . S
N853 C854 1.358 . S
N853 C855 1.400 . S
C854 N852 1.263 . S
C854 N853 1.358 . S
C854 H860 0.930 . S
C855 N853 1.400 . S
C855 C856 1.351 . S
C855 H872 0.930 . S
C856 N852 1.389 . S
C856 C855 1.351 . S
C856 H861 0.930 . S
O857 Cu851 1.974 . S
O857 C867 1.282 . S
C858 O859 1.261 . S
C858 O871 1.251 . S
O859 C858 1.261 . S
H860 C854 0.930 . S
H861 C856 0.930 . S
N862 Cu851 1.985 . S
N862 C864 1.335 . S
N862 C865 1.390 . S
N863 C864 1.345 . S
N863 C866 1.336 . S
C864 N862 1.335 . S
C864 N863 1.345 . S
C864 H869 0.930 . S
C865 N862 1.390 . S
C865 C866 1.346 . S
C865 H870 0.930 . S
C866 N863 1.336 . S
C866 C865 1.346 . S
C866 H873 0.929 1_556 S
C867 O857 1.282 . S
C867 O868 1.216 . S
O868 C867 1.216 . S
H869 C864 0.930 . S
H870 C865 0.930 . S
O871 Cu851 1.959 . S
O871 C858 1.251 . S
H872 C855 0.930 . S
H873 C866 0.929 1_554 S
Cu874 N875 1.999 . S
Cu874 O880 1.974 . S
Cu874 N885 1.985 . S
Cu874 O894 1.959 . S
N875 Cu874 1.999 . S
N875 C877 1.263 . S
N875 C879 1.389 . S
N876 C877 1.358 . S
N876 C878 1.400 . S
C877 N875 1.263 . S
C877 N876 1.358 . S
C877 H883 0.930 . S
C878 N876 1.400 . S
C878 C879 1.351 . S
C878 H895 0.930 . S
C879 N875 1.389 . S
C879 C878 1.351 . S
C879 H884 0.930 . S
O880 Cu874 1.974 . S
O880 C890 1.282 . S
C881 O882 1.261 . S
C881 O894 1.251 . S
O882 C881 1.261 . S
H883 C877 0.930 . S
H884 C879 0.930 . S
N885 Cu874 1.985 . S
N885 C887 1.335 . S
N885 C888 1.390 . S
N886 C887 1.345 . S
N886 C889 1.336 . S
C887 N885 1.335 . S
C887 N886 1.345 . S
C887 H892 0.930 . S
C888 N885 1.390 . S
C888 C889 1.346 . S
C888 H893 0.930 . S
C889 N886 1.336 . S
C889 C888 1.346 . S
C889 H896 0.929 . S
C890 O880 1.282 . S
C890 O891 1.216 . S
O891 C890 1.216 . S
H892 C887 0.930 . S
H893 C888 0.930 . S
O894 Cu874 1.959 . S
O894 C881 1.251 . S
H895 C878 0.930 . S
H896 C889 0.929 . S
Cu897 N898 1.999 . S
Cu897 O903 1.974 . S
Cu897 N908 1.985 . S
Cu897 O917 1.959 . S
N898 Cu897 1.999 . S
N898 C900 1.263 . S
N898 C902 1.389 . S
N899 C900 1.358 . S
N899 C901 1.400 . S
C900 N898 1.263 . S
C900 N899 1.358 . S
C900 H906 0.930 . S
C901 N899 1.400 . S
C901 C902 1.351 . S
C901 H918 0.930 . S
C902 N898 1.389 . S
C902 C901 1.351 . S
C902 H907 0.930 . S
O903 Cu897 1.974 . S
O903 C913 1.282 . S
C904 O905 1.261 . S
C904 O917 1.251 . S
O905 C904 1.261 . S
H906 C900 0.930 . S
H907 C902 0.930 . S
N908 Cu897 1.985 . S
N908 C910 1.335 . S
N908 C911 1.390 . S
N909 C910 1.345 . S
N909 C912 1.336 . S
C910 N908 1.335 . S
C910 N909 1.345 . S
C910 H915 0.930 . S
C911 N908 1.390 . S
C911 C912 1.346 . S
C911 H916 0.930 . S
C912 N909 1.336 . S
C912 C911 1.346 . S
C912 H919 0.929 . S
C913 O903 1.282 . S
C913 O914 1.216 . S
O914 C913 1.216 . S
H915 C910 0.930 . S
H916 C911 0.930 . S
O917 Cu897 1.959 . S
O917 C904 1.251 . S
H918 C901 0.930 . S
H919 C912 0.929 . S
Cu920 N921 1.999 . S
Cu920 O926 1.974 . S
Cu920 N931 1.985 . S
Cu920 O940 1.959 . S
N921 Cu920 1.999 . S
N921 C923 1.263 . S
N921 C925 1.389 . S
N922 C923 1.358 . S
N922 C924 1.400 . S
C923 N921 1.263 . S
C923 N922 1.358 . S
C923 H929 0.930 . S
C924 N922 1.400 . S
C924 C925 1.351 . S
C924 H941 0.930 . S
C925 N921 1.389 . S
C925 C924 1.351 . S
C925 H930 0.930 . S
O926 Cu920 1.974 . S
O926 C936 1.282 . S
C927 O928 1.261 . S
C927 O940 1.251 . S
O928 C927 1.261 . S
H929 C923 0.930 . S
H930 C925 0.930 . S
N931 Cu920 1.985 . S
N931 C933 1.335 . S
N931 C934 1.390 . S
N932 C933 1.345 . S
N932 C935 1.336 . S
C933 N931 1.335 . S
C933 N932 1.345 . S
C933 H938 0.930 . S
C934 N931 1.390 . S
C934 C935 1.346 . S
C934 H939 0.930 . S
C935 N932 1.336 . S
C935 C934 1.346 . S
C935 H942 0.929 . S
C936 O926 1.282 . S
C936 O937 1.216 . S
O937 C936 1.216 . S
H938 C933 0.930 . S
H939 C934 0.930 . S
O940 Cu920 1.959 . S
O940 C927 1.251 . S
H941 C924 0.930 . S
H942 C935 0.929 . S
Cu943 N944 1.999 . S
Cu943 O949 1.974 . S
Cu943 N954 1.985 . S
Cu943 O963 1.959 . S
N944 Cu943 1.999 . S
N944 C946 1.263 . S
N944 C948 1.389 . S
N945 C946 1.358 . S
N945 C947 1.400 . S
C946 N944 1.263 . S
C946 N945 1.358 . S
C946 H952 0.930 . S
C947 N945 1.400 . S
C947 C948 1.351 . S
C947 H964 0.930 . S
C948 N944 1.389 . S
C948 C947 1.351 . S
C948 H953 0.930 . S
O949 Cu943 1.974 . S
O949 C959 1.282 . S
C950 O951 1.261 . S
C950 O963 1.251 . S
O951 C950 1.261 . S
H952 C946 0.930 . S
H953 C948 0.930 . S
N954 Cu943 1.985 . S
N954 C956 1.335 . S
N954 C957 1.390 . S
N955 C956 1.345 . S
N955 C958 1.336 . S
C956 N954 1.335 . S
C956 N955 1.345 . S
C956 H961 0.930 . S
C957 N954 1.390 . S
C957 C958 1.346 . S
C957 H962 0.930 . S
C958 N955 1.336 . S
C958 C957 1.346 . S
C958 H965 0.929 . S
C959 O949 1.282 . S
C959 O960 1.216 . S
O960 C959 1.216 . S
H961 C956 0.930 . S
H962 C957 0.930 . S
O963 Cu943 1.959 . S
O963 C950 1.251 . S
H964 C947 0.930 . S
H965 C958 0.929 . S
Cu966 N967 1.999 . S
Cu966 O972 1.974 . S
Cu966 N977 1.985 . S
Cu966 O986 1.959 . S
N967 Cu966 1.999 . S
N967 C969 1.263 . S
N967 C971 1.389 . S
N968 C969 1.358 . S
N968 C970 1.400 . S
C969 N967 1.263 . S
C969 N968 1.358 . S
C969 H975 0.930 . S
C970 N968 1.400 . S
C970 C971 1.351 . S
C970 H987 0.930 . S
C971 N967 1.389 . S
C971 C970 1.351 . S
C971 H976 0.930 . S
O972 Cu966 1.974 . S
O972 C982 1.282 . S
C973 O974 1.261 . S
C973 O986 1.251 . S
O974 C973 1.261 . S
H975 C969 0.930 . S
H976 C971 0.930 . S
N977 Cu966 1.985 . S
N977 C979 1.335 . S
N977 C980 1.390 . S
N978 C979 1.345 . S
N978 C981 1.336 . S
C979 N977 1.335 . S
C979 N978 1.345 . S
C979 H984 0.930 . S
C980 N977 1.390 . S
C980 C981 1.346 . S
C980 H985 0.930 . S
C981 N978 1.336 . S
C981 C980 1.346 . S
C981 H988 0.929 1_545 S
C982 O972 1.282 . S
C982 O983 1.216 . S
O983 C982 1.216 . S
H984 C979 0.930 . S
H985 C980 0.930 . S
O986 Cu966 1.959 . S
O986 C973 1.251 . S
H987 C970 0.930 . S
H988 C981 0.929 1_565 S
Cu989 N990 1.999 . S
Cu989 O995 1.974 . S
Cu989 N1000 1.985 . S
Cu989 O1009 1.959 . S
N990 Cu989 1.999 . S
N990 C992 1.263 . S
N990 C994 1.389 . S
N991 C992 1.358 . S
N991 C993 1.400 . S
C992 N990 1.263 . S
C992 N991 1.358 . S
C992 H998 0.930 . S
C993 N991 1.400 . S
C993 C994 1.351 . S
C993 H1010 0.930 . S
C994 N990 1.389 . S
C994 C993 1.351 . S
C994 H999 0.930 . S
O995 Cu989 1.974 . S
O995 C1005 1.282 . S
C996 O997 1.261 . S
C996 O1009 1.251 . S
O997 C996 1.261 . S
H998 C992 0.930 . S
H999 C994 0.930 . S
N1000 Cu989 1.985 . S
N1000 C1002 1.335 . S
N1000 C1003 1.390 . S
N1001 C1002 1.345 . S
N1001 C1004 1.336 . S
C1002 N1000 1.335 . S
C1002 N1001 1.345 . S
C1002 H1007 0.930 . S
C1003 N1000 1.390 . S
C1003 C1004 1.346 . S
C1003 H1008 0.930 . S
C1004 N1001 1.336 . S
C1004 C1003 1.346 . S
C1004 H1011 0.929 . S
C1005 O995 1.282 . S
C1005 O1006 1.216 . S
O1006 C1005 1.216 . S
H1007 C1002 0.930 . S
H1008 C1003 0.930 . S
O1009 Cu989 1.959 . S
O1009 C996 1.251 . S
H1010 C993 0.930 . S
H1011 C1004 0.929 . S
Cu1012 N1013 1.999 . S
Cu1012 O1018 1.974 . S
Cu1012 N1023 1.985 . S
Cu1012 O1032 1.959 . S
N1013 Cu1012 1.999 . S
N1013 C1015 1.263 . S
N1013 C1017 1.389 . S
N1014 C1015 1.358 . S
N1014 C1016 1.400 . S
C1015 N1013 1.263 . S
C1015 N1014 1.358 . S
C1015 H1021 0.930 . S
C1016 N1014 1.400 . S
C1016 C1017 1.351 . S
C1016 H1033 0.930 . S
C1017 N1013 1.389 . S
C1017 C1016 1.351 . S
C1017 H1022 0.930 . S
O1018 Cu1012 1.974 . S
O1018 C1028 1.282 . S
C1019 O1020 1.261 . S
C1019 O1032 1.251 . S
O1020 C1019 1.261 . S
H1021 C1015 0.930 . S
H1022 C1017 0.930 . S
N1023 Cu1012 1.985 . S
N1023 C1025 1.335 . S
N1023 C1026 1.390 . S
N1024 C1025 1.345 . S
N1024 C1027 1.336 . S
C1025 N1023 1.335 . S
C1025 N1024 1.345 . S
C1025 H1030 0.930 . S
C1026 N1023 1.390 . S
C1026 C1027 1.346 . S
C1026 H1031 0.930 . S
C1027 N1024 1.336 . S
C1027 C1026 1.346 . S
C1027 H1034 0.929 . S
C1028 O1018 1.282 . S
C1028 O1029 1.216 . S
O1029 C1028 1.216 . S
H1030 C1025 0.930 . S
H1031 C1026 0.930 . S
O1032 Cu1012 1.959 . S
O1032 C1019 1.251 . S
H1033 C1016 0.930 . S
H1034 C1027 0.929 . S
Cu1035 N1036 1.999 . S
Cu1035 O1041 1.974 . S
Cu1035 N1046 1.985 . S
Cu1035 O1055 1.959 . S
N1036 Cu1035 1.999 . S
N1036 C1038 1.263 . S
N1036 C1040 1.389 . S
N1037 C1038 1.358 . S
N1037 C1039 1.400 . S
C1038 N1036 1.263 . S
C1038 N1037 1.358 . S
C1038 H1044 0.930 . S
C1039 N1037 1.400 . S
C1039 C1040 1.351 . S
C1039 H1056 0.930 . S
C1040 N1036 1.389 . S
C1040 C1039 1.351 . S
C1040 H1045 0.930 . S
O1041 Cu1035 1.974 . S
O1041 C1051 1.282 . S
C1042 O1043 1.261 . S
C1042 O1055 1.251 . S
O1043 C1042 1.261 . S
H1044 C1038 0.930 . S
H1045 C1040 0.930 . S
N1046 Cu1035 1.985 . S
N1046 C1048 1.335 . S
N1046 C1049 1.390 . S
N1047 C1048 1.345 . S
N1047 C1050 1.336 . S
C1048 N1046 1.335 . S
C1048 N1047 1.345 . S
C1048 H1053 0.930 . S
C1049 N1046 1.390 . S
C1049 C1050 1.346 . S
C1049 H1054 0.930 . S
C1050 N1047 1.336 . S
C1050 C1049 1.346 . S
C1050 H1057 0.929 . S
C1051 O1041 1.282 . S
C1051 O1052 1.216 . S
O1052 C1051 1.216 . S
H1053 C1048 0.930 . S
H1054 C1049 0.930 . S
O1055 Cu1035 1.959 . S
O1055 C1042 1.251 . S
H1056 C1039 0.930 . S
H1057 C1050 0.929 . S
Cu1058 N1059 1.999 . S
Cu1058 O1064 1.974 . S
Cu1058 N1069 1.985 . S
Cu1058 O1078 1.959 . S
N1059 Cu1058 1.999 . S
N1059 C1061 1.263 . S
N1059 C1063 1.389 . S
N1060 C1061 1.358 . S
N1060 C1062 1.400 . S
C1061 N1059 1.263 . S
C1061 N1060 1.358 . S
C1061 H1067 0.930 . S
C1062 N1060 1.400 . S
C1062 C1063 1.351 . S
C1062 H1079 0.930 . S
C1063 N1059 1.389 . S
C1063 C1062 1.351 . S
C1063 H1068 0.930 . S
O1064 Cu1058 1.974 . S
O1064 C1074 1.282 . S
C1065 O1066 1.261 . S
C1065 O1078 1.251 . S
O1066 C1065 1.261 . S
H1067 C1061 0.930 . S
H1068 C1063 0.930 . S
N1069 Cu1058 1.985 . S
N1069 C1071 1.335 . S
N1069 C1072 1.390 . S
N1070 C1071 1.345 . S
N1070 C1073 1.336 . S
C1071 N1069 1.335 . S
C1071 N1070 1.345 . S
C1071 H1076 0.930 . S
C1072 N1069 1.390 . S
C1072 C1073 1.346 . S
C1072 H1077 0.930 . S
C1073 N1070 1.336 . S
C1073 C1072 1.346 . S
C1073 H1080 0.929 1_565 S
C1074 O1064 1.282 . S
C1074 O1075 1.216 . S
O1075 C1074 1.216 . S
H1076 C1071 0.930 . S
H1077 C1072 0.930 . S
O1078 Cu1058 1.959 . S
O1078 C1065 1.251 . S
H1079 C1062 0.930 . S
H1080 C1073 0.929 1_545 S
Cu1081 N1082 1.999 . S
Cu1081 O1087 1.974 . S
Cu1081 N1092 1.985 . S
Cu1081 O1101 1.959 . S
N1082 Cu1081 1.999 . S
N1082 C1084 1.263 . S
N1082 C1086 1.389 . S
N1083 C1084 1.358 . S
N1083 C1085 1.400 . S
C1084 N1082 1.263 . S
C1084 N1083 1.358 . S
C1084 H1090 0.930 . S
C1085 N1083 1.400 . S
C1085 C1086 1.351 . S
C1085 H1102 0.930 . S
C1086 N1082 1.389 . S
C1086 C1085 1.351 . S
C1086 H1091 0.930 . S
O1087 Cu1081 1.974 . S
O1087 C1097 1.282 . S
C1088 O1089 1.261 . S
C1088 O1101 1.251 . S
O1089 C1088 1.261 . S
H1090 C1084 0.930 . S
H1091 C1086 0.930 . S
N1092 Cu1081 1.985 . S
N1092 C1094 1.335 . S
N1092 C1095 1.390 . S
N1093 C1094 1.345 . S
N1093 C1096 1.336 . S
C1094 N1092 1.335 . S
C1094 N1093 1.345 . S
C1094 H1099 0.930 . S
C1095 N1092 1.390 . S
C1095 C1096 1.346 . S
C1095 H1100 0.930 . S
C1096 N1093 1.336 . S
C1096 C1095 1.346 . S
C1096 H1103 0.929 1_545 S
C1097 O1087 1.282 . S
C1097 O1098 1.216 . S
O1098 C1097 1.216 . S
H1099 C1094 0.930 . S
H1100 C1095 0.930 . S
O1101 Cu1081 1.959 . S
O1101 C1088 1.251 . S
H1102 C1085 0.930 . S
H1103 C1096 0.929 1_565 S
C1104 C1105 1.349 . S
C1104 C1106 1.327 . S
C1104 H1129 0.950 . S
C1105 C1104 1.349 . S
C1105 C1121 1.349 . S
C1106 C1104 1.327 . S
C1106 C1125 1.429 . S
C1106 H1130 0.950 . S
C1107 C1124 1.574 . S
C1107 C1126 1.368 . S
C1107 H1131 0.949 . S
H1108 C1112 0.949 . S
C1109 C1110 1.349 . S
C1109 C1111 1.327 . S
C1109 H1132 0.950 . S
C1110 C1109 1.349 . S
C1110 C1122 1.349 . S
C1111 C1109 1.327 . S
C1111 C1127 1.429 . S
C1111 H1133 0.950 . S
C1112 H1108 0.949 . S
C1112 C1120 1.574 . S
C1112 C1128 1.368 . S
H1113 C1121 0.950 . S
H1114 C1119 0.950 . S
H1115 C1120 0.949 . S
H1116 C1122 0.950 . S
H1117 C1123 0.950 . S
H1118 C1124 0.949 . S
C1119 H1114 0.950 . S
C1119 C1121 1.327 . S
C1119 C1125 1.429 . S
C1120 C1112 1.574 . S
C1120 H1115 0.949 . S
C1120 C1126 1.368 . S
C1121 C1105 1.349 . S
C1121 H1113 0.950 . S
C1121 C1119 1.327 . S
C1122 C1110 1.349 . S
C1122 H1116 0.950 . S
C1122 C1123 1.327 . S
C1123 H1117 0.950 . S
C1123 C1122 1.327 . S
C1123 C1127 1.429 . S
C1124 C1107 1.574 . S
C1124 H1118 0.949 . S
C1124 C1128 1.368 . S
C1125 C1106 1.429 . S
C1125 C1119 1.429 . S
C1125 C1126 1.523 . S
C1126 C1107 1.368 . S
C1126 C1120 1.368 . S
C1126 C1125 1.523 . S
C1127 C1111 1.429 . S
C1127 C1123 1.429 . S
C1127 C1128 1.523 . S
C1128 C1112 1.368 . S
C1128 C1124 1.368 . S
C1128 C1127 1.523 . S
H1129 C1104 0.950 . S
H1130 C1106 0.950 . S
H1131 C1107 0.949 . S
H1132 C1109 0.950 . S
H1133 C1111 0.950 . S
C1134 C1135 1.349 . S
C1134 C1136 1.327 . S
C1134 H1159 0.950 . S
C1135 C1134 1.349 . S
C1135 C1151 1.349 . S
C1136 C1134 1.327 . S
C1136 C1155 1.429 . S
C1136 H1160 0.950 . S
C1137 C1154 1.574 . S
C1137 C1156 1.368 . S
C1137 H1161 0.949 . S
H1138 C1142 0.949 . S
C1139 C1140 1.349 . S
C1139 C1141 1.327 . S
C1139 H1162 0.950 1_455 S
C1140 C1139 1.349 . S
C1140 C1152 1.349 . S
C1141 C1139 1.327 . S
C1141 C1157 1.429 . S
C1141 H1163 0.950 . S
C1142 H1138 0.949 . S
C1142 C1150 1.574 . S
C1142 C1158 1.368 . S
H1143 C1151 0.950 . S
H1144 C1149 0.950 . S
H1145 C1150 0.949 . S
H1146 C1152 0.950 . S
H1147 C1153 0.950 . S
H1148 C1154 0.949 . S
C1149 H1144 0.950 . S
C1149 C1151 1.327 . S
C1149 C1155 1.429 . S
C1150 C1142 1.574 . S
C1150 H1145 0.949 . S
C1150 C1156 1.368 . S
C1151 C1135 1.349 . S
C1151 H1143 0.950 . S
C1151 C1149 1.327 . S
C1152 C1140 1.349 . S
C1152 H1146 0.950 . S
C1152 C1153 1.327 . S
C1153 H1147 0.950 . S
C1153 C1152 1.327 . S
C1153 C1157 1.429 . S
C1154 C1137 1.574 . S
C1154 H1148 0.949 . S
C1154 C1158 1.368 . S
C1155 C1136 1.429 . S
C1155 C1149 1.429 . S
C1155 C1156 1.523 . S
C1156 C1137 1.368 . S
C1156 C1150 1.368 . S
C1156 C1155 1.523 . S
C1157 C1141 1.429 . S
C1157 C1153 1.429 . S
C1157 C1158 1.523 . S
C1158 C1142 1.368 . S
C1158 C1154 1.368 . S
C1158 C1157 1.523 . S
H1159 C1134 0.950 . S
H1160 C1136 0.950 . S
H1161 C1137 0.949 . S
H1162 C1139 0.950 1_655 S
H1163 C1141 0.950 . S
C1164 C1165 1.349 . S
C1164 C1166 1.327 . S
C1164 H1189 0.950 . S
C1165 C1164 1.349 . S
C1165 C1181 1.349 . S
C1166 C1164 1.327 . S
C1166 C1185 1.429 . S
C1166 H1190 0.950 . S
C1167 C1184 1.574 . S
C1167 C1186 1.368 . S
C1167 H1191 0.949 . S
H1168 C1172 0.949 . S
C1169 C1170 1.349 . S
C1169 C1171 1.327 . S
C1169 H1192 0.950 . S
C1170 C1169 1.349 . S
C1170 C1182 1.349 . S
C1171 C1169 1.327 . S
C1171 C1187 1.429 . S
C1171 H1193 0.950 . S
C1172 H1168 0.949 . S
C1172 C1180 1.574 . S
C1172 C1188 1.368 . S
H1173 C1181 0.950 . S
H1174 C1179 0.950 . S
H1175 C1180 0.949 . S
H1176 C1182 0.950 . S
H1177 C1183 0.950 . S
H1178 C1184 0.949 . S
C1179 H1174 0.950 . S
C1179 C1181 1.327 . S
C1179 C1185 1.429 . S
C1180 C1172 1.574 . S
C1180 H1175 0.949 . S
C1180 C1186 1.368 . S
C1181 C1165 1.349 . S
C1181 H1173 0.950 . S
C1181 C1179 1.327 . S
C1182 C1170 1.349 . S
C1182 H1176 0.950 . S
C1182 C1183 1.327 . S
C1183 H1177 0.950 . S
C1183 C1182 1.327 . S
C1183 C1187 1.429 . S
C1184 C1167 1.574 . S
C1184 H1178 0.949 . S
C1184 C1188 1.368 . S
C1185 C1166 1.429 . S
C1185 C1179 1.429 . S
C1185 C1186 1.523 . S
C1186 C1167 1.368 . S
C1186 C1180 1.368 . S
C1186 C1185 1.523 . S
C1187 C1171 1.429 . S
C1187 C1183 1.429 . S
C1187 C1188 1.523 . S
C1188 C1172 1.368 . S
C1188 C1184 1.368 . S
C1188 C1187 1.523 . S
H1189 C1164 0.950 . S
H1190 C1166 0.950 . S
H1191 C1167 0.949 . S
H1192 C1169 0.950 . S
H1193 C1171 0.950 . S
C1194 C1195 1.349 . S
C1194 C1196 1.327 . S
C1194 H1219 0.950 . S
C1195 C1194 1.349 . S
C1195 C1211 1.349 . S
C1196 C1194 1.327 . S
C1196 C1215 1.429 . S
C1196 H1220 0.950 . S
C1197 C1214 1.574 . S
C1197 C1216 1.368 . S
C1197 H1221 0.949 . S
H1198 C1202 0.949 . S
C1199 C1200 1.349 . S
C1199 C1201 1.327 . S
C1199 H1222 0.950 . S
C1200 C1199 1.349 . S
C1200 C1212 1.349 . S
C1201 C1199 1.327 . S
C1201 C1217 1.429 . S
C1201 H1223 0.950 . S
C1202 H1198 0.949 . S
C1202 C1210 1.574 . S
C1202 C1218 1.368 . S
H1203 C1211 0.950 . S
H1204 C1209 0.950 . S
H1205 C1210 0.949 . S
H1206 C1212 0.950 . S
H1207 C1213 0.950 . S
H1208 C1214 0.949 . S
C1209 H1204 0.950 . S
C1209 C1211 1.327 . S
C1209 C1215 1.429 . S
C1210 C1202 1.574 . S
C1210 H1205 0.949 . S
C1210 C1216 1.368 . S
C1211 C1195 1.349 . S
C1211 H1203 0.950 . S
C1211 C1209 1.327 . S
C1212 C1200 1.349 . S
C1212 H1206 0.950 . S
C1212 C1213 1.327 . S
C1213 H1207 0.950 . S
C1213 C1212 1.327 . S
C1213 C1217 1.429 . S
C1214 C1197 1.574 . S
C1214 H1208 0.949 . S
C1214 C1218 1.368 . S
C1215 C1196 1.429 . S
C1215 C1209 1.429 . S
C1215 C1216 1.523 . S
C1216 C1197 1.368 . S
C1216 C1210 1.368 . S
C1216 C1215 1.523 . S
C1217 C1201 1.429 . S
C1217 C1213 1.429 . S
C1217 C1218 1.523 . S
C1218 C1202 1.368 . S
C1218 C1214 1.368 . S
C1218 C1217 1.523 . S
H1219 C1194 0.950 . S
H1220 C1196 0.950 . S
H1221 C1197 0.949 . S
H1222 C1199 0.950 . S
H1223 C1201 0.950 . S
C1224 C1225 1.349 . S
C1224 C1226 1.327 . S
C1224 H1249 0.950 . S
C1225 C1224 1.349 . S
C1225 C1241 1.349 . S
C1226 C1224 1.327 . S
C1226 C1245 1.429 . S
C1226 H1250 0.950 . S
C1227 C1244 1.574 . S
C1227 C1246 1.368 . S
C1227 H1251 0.949 . S
H1228 C1232 0.949 . S
C1229 C1230 1.349 . S
C1229 C1231 1.327 . S
C1229 H1252 0.933 1_554 S
C1230 C1229 1.349 . S
C1230 C1242 1.349 . S
C1231 C1229 1.327 . S
C1231 C1247 1.429 . S
C1231 H1253 0.950 . S
C1232 H1228 0.949 . S
C1232 C1240 1.574 . S
C1232 C1248 1.368 . S
H1233 C1241 0.950 . S
H1234 C1239 0.950 . S
H1235 C1240 0.949 . S
H1236 C1242 0.950 . S
H1237 C1243 0.950 . S
H1238 C1244 0.949 . S
C1239 H1234 0.950 . S
C1239 C1241 1.327 . S
C1239 C1245 1.429 . S
C1240 C1232 1.574 . S
C1240 H1235 0.949 . S
C1240 C1246 1.368 . S
C1241 C1225 1.349 . S
C1241 H1233 0.950 . S
C1241 C1239 1.327 . S
C1242 C1230 1.349 . S
C1242 H1236 0.950 . S
C1242 C1243 1.327 . S
C1243 H1237 0.950 . S
C1243 C1242 1.327 . S
C1243 C1247 1.429 . S
C1244 C1227 1.574 . S
C1244 H1238 0.949 . S
C1244 C1248 1.368 . S
C1245 C1226 1.429 . S
C1245 C1239 1.429 . S
C1245 C1246 1.523 . S
C1246 C1227 1.368 . S
C1246 C1240 1.368 . S
C1246 C1245 1.523 . S
C1247 C1231 1.429 . S
C1247 C1243 1.429 . S
C1247 C1248 1.523 . S
C1248 C1232 1.368 . S
C1248 C1244 1.368 . S
C1248 C1247 1.523 . S
H1249 C1224 0.950 . S
H1250 C1226 0.950 . S
H1251 C1227 0.949 . S
H1252 C1229 0.933 1_556 S
H1253 C1231 0.950 . S
C1254 C1255 1.349 . S
C1254 C1256 1.327 . S
C1254 H1279 0.950 . S
C1255 C1254 1.349 . S
C1255 C1271 1.349 . S
C1256 C1254 1.327 . S
C1256 C1275 1.429 . S
C1256 H1280 0.950 . S
C1257 C1274 1.574 . S
C1257 C1276 1.368 . S
C1257 H1281 0.949 . S
H1258 C1262 0.949 . S
C1259 C1260 1.349 . S
C1259 C1261 1.327 . S
C1259 H1282 0.950 . S
C1260 C1259 1.349 . S
C1260 C1272 1.349 . S
C1261 C1259 1.327 . S
C1261 C1277 1.429 . S
C1261 H1283 0.950 . S
C1262 H1258 0.949 . S
C1262 C1270 1.574 . S
C1262 C1278 1.368 . S
H1263 C1271 0.950 . S
H1264 C1269 0.950 . S
H1265 C1270 0.949 . S
H1266 C1272 0.950 . S
H1267 C1273 0.950 . S
H1268 C1274 0.949 . S
C1269 H1264 0.950 . S
C1269 C1271 1.327 . S
C1269 C1275 1.429 . S
C1270 C1262 1.574 . S
C1270 H1265 0.949 . S
C1270 C1276 1.368 . S
C1271 C1255 1.349 . S
C1271 H1263 0.950 . S
C1271 C1269 1.327 . S
C1272 C1260 1.349 . S
C1272 H1266 0.950 . S
C1272 C1273 1.327 . S
C1273 H1267 0.950 . S
C1273 C1272 1.327 . S
C1273 C1277 1.429 . S
C1274 C1257 1.574 . S
C1274 H1268 0.949 . S
C1274 C1278 1.368 . S
C1275 C1256 1.429 . S
C1275 C1269 1.429 . S
C1275 C1276 1.523 . S
C1276 C1257 1.368 . S
C1276 C1270 1.368 . S
C1276 C1275 1.523 . S
C1277 C1261 1.429 . S
C1277 C1273 1.429 . S
C1277 C1278 1.523 . S
C1278 C1262 1.368 . S
C1278 C1274 1.368 . S
C1278 C1277 1.523 . S
H1279 C1254 0.950 . S
H1280 C1256 0.950 . S
H1281 C1257 0.949 . S
H1282 C1259 0.950 . S
H1283 C1261 0.950 . S
C1284 C1285 1.349 . S
C1284 C1286 1.327 . S
C1284 H1309 0.950 . S
C1285 C1284 1.349 . S
C1285 C1301 1.349 . S
C1286 C1284 1.327 . S
C1286 C1305 1.429 . S
C1286 H1310 0.950 . S
C1287 C1304 1.574 . S
C1287 C1306 1.368 . S
C1287 H1311 0.949 . S
H1288 C1292 0.949 . S
C1289 C1290 1.349 . S
C1289 C1291 1.327 . S
C1289 H1312 0.950 . S
C1290 C1289 1.349 . S
C1290 C1302 1.349 . S
C1291 C1289 1.327 . S
C1291 C1307 1.429 . S
C1291 H1313 0.950 . S
C1292 H1288 0.949 . S
C1292 C1300 1.574 . S
C1292 C1308 1.368 . S
H1293 C1301 0.950 . S
H1294 C1299 0.950 . S
H1295 C1300 0.949 . S
H1296 C1302 0.950 . S
H1297 C1303 0.950 . S
H1298 C1304 0.949 . S
C1299 H1294 0.950 . S
C1299 C1301 1.327 . S
C1299 C1305 1.429 . S
C1300 C1292 1.574 . S
C1300 H1295 0.949 . S
C1300 C1306 1.368 . S
C1301 C1285 1.349 . S
C1301 H1293 0.950 . S
C1301 C1299 1.327 . S
C1302 C1290 1.349 . S
C1302 H1296 0.950 . S
C1302 C1303 1.327 . S
C1303 H1297 0.950 . S
C1303 C1302 1.327 . S
C1303 C1307 1.429 . S
C1304 C1287 1.574 . S
C1304 H1298 0.949 . S
C1304 C1308 1.368 . S
C1305 C1286 1.429 . S
C1305 C1299 1.429 . S
C1305 C1306 1.523 . S
C1306 C1287 1.368 . S
C1306 C1300 1.368 . S
C1306 C1305 1.523 . S
C1307 C1291 1.429 . S
C1307 C1303 1.429 . S
C1307 C1308 1.523 . S
C1308 C1292 1.368 . S
C1308 C1304 1.368 . S
C1308 C1307 1.523 . S
H1309 C1284 0.950 . S
H1310 C1286 0.950 . S
H1311 C1287 0.949 . S
H1312 C1289 0.950 . S
H1313 C1291 0.950 . S
C1314 C1315 1.349 . S
C1314 C1316 1.327 . S
C1314 H1339 0.950 . S
C1315 C1314 1.349 . S
C1315 C1331 1.349 . S
C1316 C1314 1.327 . S
C1316 C1335 1.429 . S
C1316 H1340 0.950 . S
C1317 C1334 1.574 . S
C1317 C1336 1.368 . S
C1317 H1341 0.949 . S
H1318 C1322 0.949 . S
C1319 C1320 1.349 . S
C1319 C1321 1.327 . S
C1319 H1342 0.950 . S
C1320 C1319 1.349 . S
C1320 C1332 1.349 . S
C1321 C1319 1.327 . S
C1321 C1337 1.429 . S
C1321 H1343 0.950 . S
C1322 H1318 0.949 . S
C1322 C1330 1.574 . S
C1322 C1338 1.368 . S
H1323 C1331 0.950 . S
H1324 C1329 0.950 . S
H1325 C1330 0.949 . S
H1326 C1332 0.950 1_655 S
H1327 C1333 0.950 . S
H1328 C1334 0.949 . S
C1329 H1324 0.950 . S
C1329 C1331 1.327 . S
C1329 C1335 1.429 . S
C1330 C1322 1.574 . S
C1330 H1325 0.949 . S
C1330 C1336 1.368 . S
C1331 C1315 1.349 . S
C1331 H1323 0.950 . S
C1331 C1329 1.327 . S
C1332 C1320 1.349 . S
C1332 H1326 0.950 1_455 S
C1332 C1333 1.327 . S
C1333 H1327 0.950 . S
C1333 C1332 1.327 . S
C1333 C1337 1.429 . S
C1334 C1317 1.574 . S
C1334 H1328 0.949 . S
C1334 C1338 1.368 . S
C1335 C1316 1.429 . S
C1335 C1329 1.429 . S
C1335 C1336 1.523 . S
C1336 C1317 1.368 . S
C1336 C1330 1.368 . S
C1336 C1335 1.523 . S
C1337 C1321 1.429 . S
C1337 C1333 1.429 . S
C1337 C1338 1.523 . S
C1338 C1322 1.368 . S
C1338 C1334 1.368 . S
C1338 C1337 1.523 . S
H1339 C1314 0.950 . S
H1340 C1316 0.950 . S
H1341 C1317 0.949 . S
H1342 C1319 0.950 . S
H1343 C1321 0.950 . S
C1344 C1345 1.349 . S
C1344 C1346 1.327 . S
C1344 H1369 0.950 . S
C1345 C1344 1.349 . S
C1345 C1361 1.349 . S
C1346 C1344 1.327 . S
C1346 C1365 1.429 . S
C1346 H1370 0.950 . S
C1347 C1364 1.574 . S
C1347 C1366 1.368 . S
C1347 H1371 0.949 . S
H1348 C1352 0.949 . S
C1349 C1350 1.349 . S
C1349 C1351 1.327 . S
C1349 H1372 0.950 . S
C1350 C1349 1.349 . S
C1350 C1362 1.349 . S
C1351 C1349 1.327 . S
C1351 C1367 1.429 . S
C1351 H1373 0.950 . S
C1352 H1348 0.949 . S
C1352 C1360 1.574 . S
C1352 C1368 1.368 . S
H1353 C1361 0.950 . S
H1354 C1359 0.950 . S
H1355 C1360 0.949 . S
H1356 C1362 0.950 . S
H1357 C1363 0.950 . S
H1358 C1364 0.949 . S
C1359 H1354 0.950 . S
C1359 C1361 1.327 . S
C1359 C1365 1.429 . S
C1360 C1352 1.574 . S
C1360 H1355 0.949 . S
C1360 C1366 1.368 . S
C1361 C1345 1.349 . S
C1361 H1353 0.950 . S
C1361 C1359 1.327 . S
C1362 C1350 1.349 . S
C1362 H1356 0.950 . S
C1362 C1363 1.327 . S
C1363 H1357 0.950 . S
C1363 C1362 1.327 . S
C1363 C1367 1.429 . S
C1364 C1347 1.574 . S
C1364 H1358 0.949 . S
C1364 C1368 1.368 . S
C1365 C1346 1.429 . S
C1365 C1359 1.429 . S
C1365 C1366 1.523 . S
C1366 C1347 1.368 . S
C1366 C1360 1.368 . S
C1366 C1365 1.523 . S
C1367 C1351 1.429 . S
C1367 C1363 1.429 . S
C1367 C1368 1.523 . S
C1368 C1352 1.368 . S
C1368 C1364 1.368 . S
C1368 C1367 1.523 . S
H1369 C1344 0.950 . S
H1370 C1346 0.950 . S
H1371 C1347 0.949 . S
H1372 C1349 0.950 . S
H1373 C1351 0.950 . S
C1374 C1375 1.349 . S
C1374 C1376 1.327 . S
C1374 H1399 0.950 . S
C1375 C1374 1.349 . S
C1375 C1391 1.349 . S
C1376 C1374 1.327 . S
C1376 C1395 1.429 . S
C1376 H1400 0.950 . S
C1377 C1394 1.574 . S
C1377 C1396 1.368 . S
C1377 H1401 0.949 . S
H1378 C1382 0.949 . S
C1379 C1380 1.349 . S
C1379 C1381 1.327 . S
C1379 H1402 0.950 . S
C1380 C1379 1.349 . S
C1380 C1392 1.324 1_545 S
C1381 C1379 1.327 . S
C1381 C1397 1.429 . S
C1381 H1403 0.950 . S
C1382 H1378 0.949 . S
C1382 C1390 1.574 . S
C1382 C1398 1.368 . S
H1383 C1391 0.950 . S
H1384 C1389 0.950 . S
H1385 C1390 0.949 . S
H1386 C1392 1.024 . S
H1387 C1393 0.950 . S
H1388 C1394 0.949 . S
C1389 H1384 0.950 . S
C1389 C1391 1.327 . S
C1389 C1395 1.429 . S
C1390 C1382 1.574 . S
C1390 H1385 0.949 . S
C1390 C1396 1.368 . S
C1391 C1375 1.349 . S
C1391 H1383 0.950 . S
C1391 C1389 1.327 . S
C1392 C1380 1.324 1_565 S
C1392 H1386 1.024 . S
C1392 C1393 1.283 1_565 S
C1393 H1387 0.950 . S
C1393 C1392 1.283 1_545 S
C1393 C1397 1.429 . S
C1394 C1377 1.574 . S
C1394 H1388 0.949 . S
C1394 C1398 1.368 . S
C1395 C1376 1.429 . S
C1395 C1389 1.429 . S
C1395 C1396 1.523 . S
C1396 C1377 1.368 . S
C1396 C1390 1.368 . S
C1396 C1395 1.523 . S
C1397 C1381 1.429 . S
C1397 C1393 1.429 . S
C1397 C1398 1.523 . S
C1398 C1382 1.368 . S
C1398 C1394 1.368 . S
C1398 C1397 1.523 . S
H1399 C1374 0.950 . S
H1400 C1376 0.950 . S
H1401 C1377 0.949 . S
H1402 C1379 0.950 . S
H1403 C1381 0.950 . S
C1404 C1405 1.349 . S
C1404 C1406 1.327 . S
C1404 H1429 0.950 . S
C1405 C1404 1.349 . S
C1405 C1421 1.349 . S
C1406 C1404 1.327 . S
C1406 C1425 1.429 . S
C1406 H1430 0.950 . S
C1407 C1424 1.574 . S
C1407 C1426 1.368 . S
C1407 H1431 0.949 . S
H1408 C1412 0.949 . S
C1409 C1410 1.349 . S
C1409 C1411 1.327 . S
C1409 H1432 0.950 . S
C1410 C1409 1.349 . S
C1410 C1422 1.349 . S
C1411 C1409 1.327 . S
C1411 C1427 1.429 . S
C1411 H1433 0.950 . S
C1412 H1408 0.949 . S
C1412 C1420 1.574 . S
C1412 C1428 1.368 . S
H1413 C1421 0.950 . S
H1414 C1419 0.950 . S
H1415 C1420 0.949 . S
H1416 C1422 0.950 1_545 S
H1417 C1423 0.950 . S
H1418 C1424 0.949 . S
C1419 H1414 0.950 . S
C1419 C1421 1.327 . S
C1419 C1425 1.429 . S
C1420 C1412 1.574 . S
C1420 H1415 0.949 . S
C1420 C1426 1.368 . S
C1421 C1405 1.349 . S
C1421 H1413 0.950 . S
C1421 C1419 1.327 . S
C1422 C1410 1.349 . S
C1422 H1416 0.950 1_565 S
C1422 C1423 1.327 . S
C1423 H1417 0.950 . S
C1423 C1422 1.327 . S
C1423 C1427 1.429 . S
C1424 C1407 1.574 . S
C1424 H1418 0.949 . S
C1424 C1428 1.368 . S
C1425 C1406 1.429 . S
C1425 C1419 1.429 . S
C1425 C1426 1.523 . S
C1426 C1407 1.368 . S
C1426 C1420 1.368 . S
C1426 C1425 1.523 . S
C1427 C1411 1.429 . S
C1427 C1423 1.429 . S
C1427 C1428 1.523 . S
C1428 C1412 1.368 . S
C1428 C1424 1.368 . S
C1428 C1427 1.523 . S
H1429 C1404 0.950 . S
H1430 C1406 0.950 . S
H1431 C1407 0.949 . S
H1432 C1409 0.950 . S
H1433 C1411 0.950 . S
C1434 C1435 1.349 . S
C1434 C1436 1.327 . S
C1434 H1459 0.950 . S
C1435 C1434 1.349 . S
C1435 C1451 1.349 . S
C1436 C1434 1.327 . S
C1436 C1455 1.429 . S
C1436 H1460 0.950 . S
C1437 C1454 1.574 . S
C1437 C1456 1.368 . S
C1437 H1461 0.949 . S
H1438 C1442 0.949 . S
C1439 C1440 1.349 . S
C1439 C1441 1.327 . S
C1439 H1462 0.950 . S
C1440 C1439 1.349 . S
C1440 C1452 1.349 . S
C1441 C1439 1.327 . S
C1441 C1457 1.429 . S
C1441 H1463 0.950 . S
C1442 H1438 0.949 . S
C1442 C1450 1.574 . S
C1442 C1458 1.368 . S
H1443 C1451 0.950 1_565 S
H1444 C1449 0.950 . S
H1445 C1450 0.949 . S
H1446 C1452 0.950 . S
H1447 C1453 0.950 . S
H1448 C1454 0.949 . S
C1449 H1444 0.950 . S
C1449 C1451 1.327 . S
C1449 C1455 1.429 . S
C1450 C1442 1.574 . S
C1450 H1445 0.949 . S
C1450 C1456 1.368 . S
C1451 C1435 1.349 . S
C1451 H1443 0.950 1_545 S
C1451 C1449 1.327 . S
C1452 C1440 1.349 . S
C1452 H1446 0.950 . S
C1452 C1453 1.327 . S
C1453 H1447 0.950 . S
C1453 C1452 1.327 . S
C1453 C1457 1.429 . S
C1454 C1437 1.574 . S
C1454 H1448 0.949 . S
C1454 C1458 1.368 . S
C1455 C1436 1.429 . S
C1455 C1449 1.429 . S
C1455 C1456 1.523 . S
C1456 C1437 1.368 . S
C1456 C1450 1.368 . S
C1456 C1455 1.523 . S
C1457 C1441 1.429 . S
C1457 C1453 1.429 . S
C1457 C1458 1.523 . S
C1458 C1442 1.368 . S
C1458 C1454 1.368 . S
C1458 C1457 1.523 . S
H1459 C1434 0.950 . S
H1460 C1436 0.950 . S
H1461 C1437 0.949 . S
H1462 C1439 0.950 . S
H1463 C1441 0.950 . S
C1464 C1465 1.349 . S
C1464 C1466 1.327 . S
C1464 H1489 0.950 . S
C1465 C1464 1.349 . S
C1465 C1481 1.349 . S
C1466 C1464 1.327 . S
C1466 C1485 1.429 . S
C1466 H1490 0.950 . S
C1467 C1484 1.574 . S
C1467 C1486 1.368 . S
C1467 H1491 0.949 . S
H1468 C1472 0.949 . S
C1469 C1470 1.349 . S
C1469 C1471 1.327 . S
C1469 H1492 0.950 . S
C1470 C1469 1.349 . S
C1470 C1482 1.349 . S
C1471 C1469 1.327 . S
C1471 C1487 1.429 . S
C1471 H1493 0.950 . S
C1472 H1468 0.949 . S
C1472 C1480 1.574 . S
C1472 C1488 1.368 . S
H1473 C1481 0.950 . S
H1474 C1479 0.950 . S
H1475 C1480 0.949 . S
H1476 C1482 0.950 . S
H1477 C1483 0.950 . S
H1478 C1484 0.949 . S
C1479 H1474 0.950 . S
C1479 C1481 1.327 . S
C1479 C1485 1.429 . S
C1480 C1472 1.574 . S
C1480 H1475 0.949 . S
C1480 C1486 1.368 . S
C1481 C1465 1.349 . S
C1481 H1473 0.950 . S
C1481 C1479 1.327 . S
C1482 C1470 1.349 . S
C1482 H1476 0.950 . S
C1482 C1483 1.327 . S
C1483 H1477 0.950 . S
C1483 C1482 1.327 . S
C1483 C1487 1.429 . S
C1484 C1467 1.574 . S
C1484 H1478 0.949 . S
C1484 C1488 1.368 . S
C1485 C1466 1.429 . S
C1485 C1479 1.429 . S
C1485 C1486 1.523 . S
C1486 C1467 1.368 . S
C1486 C1480 1.368 . S
C1486 C1485 1.523 . S
C1487 C1471 1.429 . S
C1487 C1483 1.429 . S
C1487 C1488 1.523 . S
C1488 C1472 1.368 . S
C1488 C1484 1.368 . S
C1488 C1487 1.523 . S
H1489 C1464 0.950 . S
H1490 C1466 0.950 . S
H1491 C1467 0.949 . S
H1492 C1469 0.950 . S
H1493 C1471 0.950 . S
C1494 C1495 1.349 . S
C1494 C1496 1.327 . S
C1494 H1519 0.950 . S
C1495 C1494 1.349 . S
C1495 C1511 1.349 . S
C1496 C1494 1.327 . S
C1496 C1515 1.429 . S
C1496 H1520 0.950 . S
C1497 C1514 1.574 . S
C1497 C1516 1.368 . S
C1497 H1521 0.949 . S
H1498 C1502 0.949 . S
C1499 C1500 1.349 . S
C1499 C1501 1.327 . S
C1499 H1522 0.950 . S
C1500 C1499 1.349 . S
C1500 C1512 1.349 . S
C1501 C1499 1.327 . S
C1501 C1517 1.429 . S
C1501 H1523 0.950 . S
C1502 H1498 0.949 . S
C1502 C1510 1.574 . S
C1502 C1518 1.368 . S
H1503 C1511 0.950 . S
H1504 C1509 0.950 . S
H1505 C1510 0.949 . S
H1506 C1512 0.950 . S
H1507 C1513 0.950 . S
H1508 C1514 0.949 . S
C1509 H1504 0.950 . S
C1509 C1511 1.327 . S
C1509 C1515 1.429 . S
C1510 C1502 1.574 . S
C1510 H1505 0.949 . S
C1510 C1516 1.368 . S
C1511 C1495 1.349 . S
C1511 H1503 0.950 . S
C1511 C1509 1.327 . S
C1512 C1500 1.349 . S
C1512 H1506 0.950 . S
C1512 C1513 1.327 . S
C1513 H1507 0.950 . S
C1513 C1512 1.327 . S
C1513 C1517 1.429 . S
C1514 C1497 1.574 . S
C1514 H1508 0.949 . S
C1514 C1518 1.368 . S
C1515 C1496 1.429 . S
C1515 C1509 1.429 . S
C1515 C1516 1.523 . S
C1516 C1497 1.368 . S
C1516 C1510 1.368 . S
C1516 C1515 1.523 . S
C1517 C1501 1.429 . S
C1517 C1513 1.429 . S
C1517 C1518 1.523 . S
C1518 C1502 1.368 . S
C1518 C1514 1.368 . S
C1518 C1517 1.523 . S
H1519 C1494 0.950 . S
H1520 C1496 0.950 . S
H1521 C1497 0.949 . S
H1522 C1499 0.950 . S
H1523 C1501 0.950 . S
C1524 C1525 1.349 . S
C1524 C1526 1.327 . S
C1524 H1549 0.950 . S
C1525 C1524 1.349 . S
C1525 C1541 1.349 . S
C1526 C1524 1.327 . S
C1526 C1545 1.429 . S
C1526 H1550 0.950 . S
C1527 C1544 1.574 . S
C1527 C1546 1.368 . S
C1527 H1551 0.949 . S
H1528 C1532 0.949 . S
C1529 C1530 1.349 . S
C1529 C1531 1.327 . S
C1529 H1552 0.950 . S
C1530 C1529 1.349 . S
C1530 C1542 1.349 . S
C1531 C1529 1.327 . S
C1531 C1547 1.429 . S
C1531 H1553 0.950 . S
C1532 H1528 0.949 . S
C1532 C1540 1.574 . S
C1532 C1548 1.368 . S
H1533 C1541 0.950 . S
H1534 C1539 0.950 . S
H1535 C1540 0.949 . S
H1536 C1542 0.950 . S
H1537 C1543 0.950 . S
H1538 C1544 0.949 . S
C1539 H1534 0.950 . S
C1539 C1541 1.327 . S
C1539 C1545 1.429 . S
C1540 C1532 1.574 . S
C1540 H1535 0.949 . S
C1540 C1546 1.368 . S
C1541 C1525 1.349 . S
C1541 H1533 0.950 . S
C1541 C1539 1.327 . S
C1542 C1530 1.349 . S
C1542 H1536 0.950 . S
C1542 C1543 1.327 . S
C1543 H1537 0.950 . S
C1543 C1542 1.327 . S
C1543 C1547 1.429 . S
C1544 C1527 1.574 . S
C1544 H1538 0.949 . S
C1544 C1548 1.368 . S
C1545 C1526 1.429 . S
C1545 C1539 1.429 . S
C1545 C1546 1.523 . S
C1546 C1527 1.368 . S
C1546 C1540 1.368 . S
C1546 C1545 1.523 . S
C1547 C1531 1.429 . S
C1547 C1543 1.429 . S
C1547 C1548 1.523 . S
C1548 C1532 1.368 . S
C1548 C1544 1.368 . S
C1548 C1547 1.523 . S
H1549 C1524 0.950 . S
H1550 C1526 0.950 . S
H1551 C1527 0.949 . S
H1552 C1529 0.950 . S
H1553 C1531 0.950 . S
C1554 C1555 1.365 . S
C1554 C1556 1.364 . S
C1554 H1579 0.898 1_556 S
C1555 C1554 1.365 . S
C1555 C1571 1.349 . S
C1556 C1554 1.364 . S
C1556 C1575 1.429 . S
C1556 H1580 0.950 . S
C1557 C1574 1.574 . S
C1557 C1576 1.368 . S
C1557 H1581 0.949 . S
H1558 C1562 0.949 . S
C1559 C1560 1.349 . S
C1559 C1561 1.327 . S
C1559 H1582 0.950 . S
C1560 C1559 1.349 . S
C1560 C1572 1.349 . S
C1561 C1559 1.327 . S
C1561 C1577 1.429 . S
C1561 H1583 0.950 . S
C1562 H1558 0.949 . S
C1562 C1570 1.574 . S
C1562 C1578 1.368 . S
H1563 C1571 0.950 . S
H1564 C1569 0.950 . S
H1565 C1570 0.949 . S
H1566 C1572 0.950 . S
H1567 C1573 0.950 . S
H1568 C1574 0.949 . S
C1569 H1564 0.950 . S
C1569 C1571 1.327 . S
C1569 C1575 1.429 . S
C1570 C1562 1.574 . S
C1570 H1565 0.949 . S
C1570 C1576 1.368 . S
C1571 C1555 1.349 . S
C1571 H1563 0.950 . S
C1571 C1569 1.327 . S
C1572 C1560 1.349 . S
C1572 H1566 0.950 . S
C1572 C1573 1.327 . S
C1573 H1567 0.950 . S
C1573 C1572 1.327 . S
C1573 C1577 1.429 . S
C1574 C1557 1.574 . S
C1574 H1568 0.949 . S
C1574 C1578 1.368 . S
C1575 C1556 1.429 . S
C1575 C1569 1.429 . S
C1575 C1576 1.523 . S
C1576 C1557 1.368 . S
C1576 C1570 1.368 . S
C1576 C1575 1.523 . S
C1577 C1561 1.429 . S
C1577 C1573 1.429 . S
C1577 C1578 1.523 . S
C1578 C1562 1.368 . S
C1578 C1574 1.368 . S
C1578 C1577 1.523 . S
H1579 C1554 0.898 1_554 S
H1580 C1556 0.950 . S
H1581 C1557 0.949 . S
H1582 C1559 0.950 . S
H1583 C1561 0.950 . S
C1584 C1585 1.349 . S
C1584 C1586 1.327 . S
C1584 H1609 0.950 . S
C1585 C1584 1.349 . S
C1585 C1601 1.349 . S
C1586 C1584 1.327 . S
C1586 C1605 1.429 . S
C1586 H1610 0.950 . S
C1587 C1604 1.574 . S
C1587 C1606 1.368 . S
C1587 H1611 0.949 . S
H1588 C1592 0.949 . S
C1589 C1590 1.349 . S
C1589 C1591 1.327 . S
C1589 H1612 0.950 . S
C1590 C1589 1.349 . S
C1590 C1602 1.349 . S
C1591 C1589 1.327 . S
C1591 C1607 1.429 . S
C1591 H1613 0.950 . S
C1592 H1588 0.949 . S
C1592 C1600 1.574 . S
C1592 C1608 1.368 . S
H1593 C1601 0.950 . S
H1594 C1599 0.950 . S
H1595 C1600 0.949 . S
H1596 C1602 0.950 . S
H1597 C1603 0.950 . S
H1598 C1604 0.949 . S
C1599 H1594 0.950 . S
C1599 C1601 1.327 . S
C1599 C1605 1.429 . S
C1600 C1592 1.574 . S
C1600 H1595 0.949 . S
C1600 C1606 1.368 . S
C1601 C1585 1.349 . S
C1601 H1593 0.950 . S
C1601 C1599 1.327 . S
C1602 C1590 1.349 . S
C1602 H1596 0.950 . S
C1602 C1603 1.327 . S
C1603 H1597 0.950 . S
C1603 C1602 1.327 . S
C1603 C1607 1.429 . S
C1604 C1587 1.574 . S
C1604 H1598 0.949 . S
C1604 C1608 1.368 . S
C1605 C1586 1.429 . S
C1605 C1599 1.429 . S
C1605 C1606 1.523 . S
C1606 C1587 1.368 . S
C1606 C1600 1.368 . S
C1606 C1605 1.523 . S
C1607 C1591 1.429 . S
C1607 C1603 1.429 . S
C1607 C1608 1.523 . S
C1608 C1592 1.368 . S
C1608 C1604 1.368 . S
C1608 C1607 1.523 . S
H1609 C1584 0.950 . S
H1610 C1586 0.950 . S
H1611 C1587 0.949 . S
H1612 C1589 0.950 . S
H1613 C1591 0.950 . S
C1614 C1615 1.349 . S
C1614 C1616 1.327 . S
C1614 H1639 0.950 . S
C1615 C1614 1.349 . S
C1615 C1631 1.349 . S
C1616 C1614 1.327 . S
C1616 C1635 1.429 . S
C1616 H1640 0.950 . S
C1617 C1634 1.574 . S
C1617 C1636 1.368 . S
C1617 H1641 0.949 . S
H1618 C1622 0.949 . S
C1619 C1620 1.349 . S
C1619 C1621 1.327 . S
C1619 H1642 0.950 . S
C1620 C1619 1.349 . S
C1620 C1632 1.349 . S
C1621 C1619 1.327 . S
C1621 C1637 1.429 . S
C1621 H1643 0.950 . S
C1622 H1618 0.949 . S
C1622 C1630 1.574 . S
C1622 C1638 1.368 . S
H1623 C1631 0.950 . S
H1624 C1629 0.950 . S
H1625 C1630 0.949 . S
H1626 C1632 0.950 . S
H1627 C1633 0.950 . S
H1628 C1634 0.949 . S
C1629 H1624 0.950 . S
C1629 C1631 1.327 . S
C1629 C1635 1.429 . S
C1630 C1622 1.574 . S
C1630 H1625 0.949 . S
C1630 C1636 1.368 . S
C1631 C1615 1.349 . S
C1631 H1623 0.950 . S
C1631 C1629 1.327 . S
C1632 C1620 1.349 . S
C1632 H1626 0.950 . S
C1632 C1633 1.327 . S
C1633 H1627 0.950 . S
C1633 C1632 1.327 . S
C1633 C1637 1.429 . S
C1634 C1617 1.574 . S
C1634 H1628 0.949 . S
C1634 C1638 1.368 . S
C1635 C1616 1.429 . S
C1635 C1629 1.429 . S
C1635 C1636 1.523 . S
C1636 C1617 1.368 . S
C1636 C1630 1.368 . S
C1636 C1635 1.523 . S
C1637 C1621 1.429 . S
C1637 C1633 1.429 . S
C1637 C1638 1.523 . S
C1638 C1622 1.368 . S
C1638 C1634 1.368 . S
C1638 C1637 1.523 . S
H1639 C1614 0.950 . S
H1640 C1616 0.950 . S
H1641 C1617 0.949 . S
H1642 C1619 0.950 . S
H1643 C1621 0.950 . S
C1644 C1645 1.349 . S
C1644 C1646 1.327 . S
C1644 H1669 0.950 . S
C1645 C1644 1.349 . S
C1645 C1661 1.349 . S
C1646 C1644 1.327 . S
C1646 C1665 1.429 . S
C1646 H1670 0.950 . S
C1647 C1664 1.574 . S
C1647 C1666 1.368 . S
C1647 H1671 0.949 . S
H1648 C1652 0.949 . S
C1649 C1650 1.349 . S
C1649 C1651 1.327 . S
C1649 H1672 0.950 1_655 S
C1650 C1649 1.349 . S
C1650 C1662 1.349 . S
C1651 C1649 1.327 . S
C1651 C1667 1.429 . S
C1651 H1673 0.950 . S
C1652 H1648 0.949 . S
C1652 C1660 1.574 . S
C1652 C1668 1.368 . S
H1653 C1661 0.950 . S
H1654 C1659 0.950 . S
H1655 C1660 0.949 . S
H1656 C1662 0.950 . S
H1657 C1663 0.950 . S
H1658 C1664 0.949 . S
C1659 H1654 0.950 . S
C1659 C1661 1.327 . S
C1659 C1665 1.429 . S
C1660 C1652 1.574 . S
C1660 H1655 0.949 . S
C1660 C1666 1.368 . S
C1661 C1645 1.349 . S
C1661 H1653 0.950 . S
C1661 C1659 1.327 . S
C1662 C1650 1.349 . S
C1662 H1656 0.950 . S
C1662 C1663 1.327 . S
C1663 H1657 0.950 . S
C1663 C1662 1.327 . S
C1663 C1667 1.429 . S
C1664 C1647 1.574 . S
C1664 H1658 0.949 . S
C1664 C1668 1.368 . S
C1665 C1646 1.429 . S
C1665 C1659 1.429 . S
C1665 C1666 1.523 . S
C1666 C1647 1.368 . S
C1666 C1660 1.368 . S
C1666 C1665 1.523 . S
C1667 C1651 1.429 . S
C1667 C1663 1.429 . S
C1667 C1668 1.523 . S
C1668 C1652 1.368 . S
C1668 C1664 1.368 . S
C1668 C1667 1.523 . S
H1669 C1644 0.950 . S
H1670 C1646 0.950 . S
H1671 C1647 0.949 . S
H1672 C1649 0.950 1_455 S
H1673 C1651 0.950 . S
C1674 C1675 1.349 . S
C1674 C1676 1.327 . S
C1674 H1699 0.950 . S
C1675 C1674 1.349 . S
C1675 C1691 1.349 . S
C1676 C1674 1.327 . S
C1676 C1695 1.429 . S
C1676 H1700 0.950 . S
C1677 C1694 1.574 . S
C1677 C1696 1.368 . S
C1677 H1701 0.949 . S
H1678 C1682 0.949 . S
C1679 C1680 1.349 . S
C1679 C1681 1.327 . S
C1679 H1702 0.950 . S
C1680 C1679 1.349 . S
C1680 C1692 1.349 . S
C1681 C1679 1.327 . S
C1681 C1697 1.429 . S
C1681 H1703 0.950 . S
C1682 H1678 0.949 . S
C1682 C1690 1.574 . S
C1682 C1698 1.368 . S
H1683 C1691 0.950 . S
H1684 C1689 0.950 . S
H1685 C1690 0.949 . S
H1686 C1692 0.950 . S
H1687 C1693 0.950 . S
H1688 C1694 0.949 . S
C1689 H1684 0.950 . S
C1689 C1691 1.327 . S
C1689 C1695 1.429 . S
C1690 C1682 1.574 . S
C1690 H1685 0.949 . S
C1690 C1696 1.368 . S
C1691 C1675 1.349 . S
C1691 H1683 0.950 . S
C1691 C1689 1.327 . S
C1692 C1680 1.349 . S
C1692 H1686 0.950 . S
C1692 C1693 1.327 . S
C1693 H1687 0.950 . S
C1693 C1692 1.327 . S
C1693 C1697 1.429 . S
C1694 C1677 1.574 . S
C1694 H1688 0.949 . S
C1694 C1698 1.368 . S
C1695 C1676 1.429 . S
C1695 C1689 1.429 . S
C1695 C1696 1.523 . S
C1696 C1677 1.368 . S
C1696 C1690 1.368 . S
C1696 C1695 1.523 . S
C1697 C1681 1.429 . S
C1697 C1693 1.429 . S
C1697 C1698 1.523 . S
C1698 C1682 1.368 . S
C1698 C1694 1.368 . S
C1698 C1697 1.523 . S
H1699 C1674 0.950 . S
H1700 C1676 0.950 . S
H1701 C1677 0.949 . S
H1702 C1679 0.950 . S
H1703 C1681 0.950 . S
C1704 C1705 1.349 . S
C1704 C1706 1.327 . S
C1704 H1729 0.950 . S
C1705 C1704 1.349 . S
C1705 C1721 1.349 . S
C1706 C1704 1.327 . S
C1706 C1725 1.429 . S
C1706 H1730 0.950 . S
C1707 C1724 1.574 . S
C1707 C1726 1.368 . S
C1707 H1731 0.949 . S
H1708 C1712 0.949 . S
C1709 C1710 1.349 . S
C1709 C1711 1.327 . S
C1709 H1732 0.950 . S
C1710 C1709 1.349 . S
C1710 C1722 1.323 1_655 S
C1711 C1709 1.327 . S
C1711 C1727 1.429 . S
C1711 H1733 0.950 . S
C1712 H1708 0.949 . S
C1712 C1720 1.574 . S
C1712 C1728 1.368 . S
H1713 C1721 0.950 . S
H1714 C1719 0.950 . S
H1715 C1720 0.949 . S
H1716 C1722 1.025 . S
H1717 C1723 0.950 . S
H1718 C1724 0.949 . S
C1719 H1714 0.950 . S
C1719 C1721 1.327 . S
C1719 C1725 1.429 . S
C1720 C1712 1.574 . S
C1720 H1715 0.949 . S
C1720 C1726 1.368 . S
C1721 C1705 1.349 . S
C1721 H1713 0.950 . S
C1721 C1719 1.327 . S
C1722 C1710 1.323 1_455 S
C1722 H1716 1.025 . S
C1722 C1723 1.282 1_455 S
C1723 H1717 0.950 . S
C1723 C1722 1.282 1_655 S
C1723 C1727 1.429 . S
C1724 C1707 1.574 . S
C1724 H1718 0.949 . S
C1724 C1728 1.368 . S
C1725 C1706 1.429 . S
C1725 C1719 1.429 . S
C1725 C1726 1.523 . S
C1726 C1707 1.368 . S
C1726 C1720 1.368 . S
C1726 C1725 1.523 . S
C1727 C1711 1.429 . S
C1727 C1723 1.429 . S
C1727 C1728 1.523 . S
C1728 C1712 1.368 . S
C1728 C1724 1.368 . S
C1728 C1727 1.523 . S
H1729 C1704 0.950 . S
H1730 C1706 0.950 . S
H1731 C1707 0.949 . S
H1732 C1709 0.950 . S
H1733 C1711 0.950 . S
C1734 C1735 1.349 . S
C1734 C1736 1.327 . S
C1734 H1759 0.950 . S
C1735 C1734 1.349 . S
C1735 C1751 1.349 . S
C1736 C1734 1.327 . S
C1736 C1755 1.429 . S
C1736 H1760 0.950 . S
C1737 C1754 1.574 . S
C1737 C1756 1.368 . S
C1737 H1761 0.949 . S
H1738 C1742 0.949 . S
C1739 C1740 1.349 . S
C1739 C1741 1.327 . S
C1739 H1762 0.950 . S
C1740 C1739 1.349 . S
C1740 C1752 1.349 . S
C1741 C1739 1.327 . S
C1741 C1757 1.429 . S
C1741 H1763 0.950 . S
C1742 H1738 0.949 . S
C1742 C1750 1.574 . S
C1742 C1758 1.368 . S
H1743 C1751 0.950 . S
H1744 C1749 0.950 . S
H1745 C1750 0.949 . S
H1746 C1752 0.950 1_556 S
H1747 C1753 0.950 . S
H1748 C1754 0.949 . S
C1749 H1744 0.950 . S
C1749 C1751 1.327 . S
C1749 C1755 1.429 . S
C1750 C1742 1.574 . S
C1750 H1745 0.949 . S
C1750 C1756 1.368 . S
C1751 C1735 1.349 . S
C1751 H1743 0.950 . S
C1751 C1749 1.327 . S
C1752 C1740 1.349 . S
C1752 H1746 0.950 1_554 S
C1752 C1753 1.327 . S
C1753 H1747 0.950 . S
C1753 C1752 1.327 . S
C1753 C1757 1.429 . S
C1754 C1737 1.574 . S
C1754 H1748 0.949 . S
C1754 C1758 1.368 . S
C1755 C1736 1.429 . S
C1755 C1749 1.429 . S
C1755 C1756 1.523 . S
C1756 C1737 1.368 . S
C1756 C1750 1.368 . S
C1756 C1755 1.523 . S
C1757 C1741 1.429 . S
C1757 C1753 1.429 . S
C1757 C1758 1.523 . S
C1758 C1742 1.368 . S
C1758 C1754 1.368 . S
C1758 C1757 1.523 . S
H1759 C1734 0.950 . S
H1760 C1736 0.950 . S
H1761 C1737 0.949 . S
H1762 C1739 0.950 . S
H1763 C1741 0.950 . S
C1764 C1765 1.349 . S
C1764 C1766 1.327 . S
C1764 H1789 0.950 . S
C1765 C1764 1.349 . S
C1765 C1781 1.349 . S
C1766 C1764 1.327 . S
C1766 C1785 1.429 . S
C1766 H1790 0.950 . S
C1767 C1784 1.574 . S
C1767 C1786 1.368 . S
C1767 H1791 0.949 . S
H1768 C1772 0.949 . S
C1769 C1770 1.349 . S
C1769 C1771 1.327 . S
C1769 H1792 0.950 . S
C1770 C1769 1.349 . S
C1770 C1782 1.349 . S
C1771 C1769 1.327 . S
C1771 C1787 1.429 . S
C1771 H1793 0.950 . S
C1772 H1768 0.949 . S
C1772 C1780 1.574 . S
C1772 C1788 1.368 . S
H1773 C1781 0.950 . S
H1774 C1779 0.950 . S
H1775 C1780 0.949 . S
H1776 C1782 0.950 . S
H1777 C1783 0.950 . S
H1778 C1784 0.949 . S
C1779 H1774 0.950 . S
C1779 C1781 1.327 . S
C1779 C1785 1.429 . S
C1780 C1772 1.574 . S
C1780 H1775 0.949 . S
C1780 C1786 1.368 . S
C1781 C1765 1.349 . S
C1781 H1773 0.950 . S
C1781 C1779 1.327 . S
C1782 C1770 1.349 . S
C1782 H1776 0.950 . S
C1782 C1783 1.327 . S
C1783 H1777 0.950 . S
C1783 C1782 1.327 . S
C1783 C1787 1.429 . S
C1784 C1767 1.574 . S
C1784 H1778 0.949 . S
C1784 C1788 1.368 . S
C1785 C1766 1.429 . S
C1785 C1779 1.429 . S
C1785 C1786 1.523 . S
C1786 C1767 1.368 . S
C1786 C1780 1.368 . S
C1786 C1785 1.523 . S
C1787 C1771 1.429 . S
C1787 C1783 1.429 . S
C1787 C1788 1.523 . S
C1788 C1772 1.368 . S
C1788 C1784 1.368 . S
C1788 C1787 1.523 . S
H1789 C1764 0.950 . S
H1790 C1766 0.950 . S
H1791 C1767 0.949 . S
H1792 C1769 0.950 . S
H1793 C1771 0.950 . S
C1794 C1795 1.349 . S
C1794 C1796 1.327 . S
C1794 H1819 0.950 . S
C1795 C1794 1.349 . S
C1795 C1811 1.349 . S
C1796 C1794 1.327 . S
C1796 C1815 1.429 . S
C1796 H1820 0.950 . S
C1797 C1814 1.574 . S
C1797 C1816 1.368 . S
C1797 H1821 0.949 . S
H1798 C1802 0.949 . S
C1799 C1800 1.349 . S
C1799 C1801 1.327 . S
C1799 H1822 0.950 . S
C1800 C1799 1.349 . S
C1800 C1812 1.349 . S
C1801 C1799 1.327 . S
C1801 C1817 1.429 . S
C1801 H1823 0.950 . S
C1802 H1798 0.949 . S
C1802 C1810 1.574 . S
C1802 C1818 1.368 . S
H1803 C1811 0.950 . S
H1804 C1809 0.950 . S
H1805 C1810 0.949 . S
H1806 C1812 0.950 1_545 S
H1807 C1813 0.950 . S
H1808 C1814 0.949 . S
C1809 H1804 0.950 . S
C1809 C1811 1.327 . S
C1809 C1815 1.429 . S
C1810 C1802 1.574 . S
C1810 H1805 0.949 . S
C1810 C1816 1.368 . S
C1811 C1795 1.349 . S
C1811 H1803 0.950 . S
C1811 C1809 1.327 . S
C1812 C1800 1.349 . S
C1812 H1806 0.950 1_565 S
C1812 C1813 1.327 . S
C1813 H1807 0.950 . S
C1813 C1812 1.327 . S
C1813 C1817 1.429 . S
C1814 C1797 1.574 . S
C1814 H1808 0.949 . S
C1814 C1818 1.368 . S
C1815 C1796 1.429 . S
C1815 C1809 1.429 . S
C1815 C1816 1.523 . S
C1816 C1797 1.368 . S
C1816 C1810 1.368 . S
C1816 C1815 1.523 . S
C1817 C1801 1.429 . S
C1817 C1813 1.429 . S
C1817 C1818 1.523 . S
C1818 C1802 1.368 . S
C1818 C1814 1.368 . S
C1818 C1817 1.523 . S
H1819 C1794 0.950 . S
H1820 C1796 0.950 . S
H1821 C1797 0.949 . S
H1822 C1799 0.950 . S
H1823 C1801 0.950 . S
C1824 C1825 1.349 . S
C1824 C1826 1.327 . S
C1824 H1849 0.950 . S
C1825 C1824 1.349 . S
C1825 C1841 1.349 . S
C1826 C1824 1.327 . S
C1826 C1845 1.429 . S
C1826 H1850 0.950 . S
C1827 C1844 1.574 . S
C1827 C1846 1.368 . S
C1827 H1851 0.949 . S
H1828 C1832 0.949 . S
C1829 C1830 1.349 . S
C1829 C1831 1.327 . S
C1829 H1852 0.950 . S
C1830 C1829 1.349 . S
C1830 C1842 1.349 . S
C1831 C1829 1.327 . S
C1831 C1847 1.429 . S
C1831 H1853 0.950 . S
C1832 H1828 0.949 . S
C1832 C1840 1.574 . S
C1832 C1848 1.368 . S
H1833 C1841 0.950 . S
H1834 C1839 0.950 . S
H1835 C1840 0.949 . S
H1836 C1842 0.950 . S
H1837 C1843 0.950 . S
H1838 C1844 0.949 . S
C1839 H1834 0.950 . S
C1839 C1841 1.327 . S
C1839 C1845 1.429 . S
C1840 C1832 1.574 . S
C1840 H1835 0.949 . S
C1840 C1846 1.368 . S
C1841 C1825 1.349 . S
C1841 H1833 0.950 . S
C1841 C1839 1.327 . S
C1842 C1830 1.349 . S
C1842 H1836 0.950 . S
C1842 C1843 1.327 . S
C1843 H1837 0.950 . S
C1843 C1842 1.327 . S
C1843 C1847 1.429 . S
C1844 C1827 1.574 . S
C1844 H1838 0.949 . S
C1844 C1848 1.368 . S
C1845 C1826 1.429 . S
C1845 C1839 1.429 . S
C1845 C1846 1.523 . S
C1846 C1827 1.368 . S
C1846 C1840 1.368 . S
C1846 C1845 1.523 . S
C1847 C1831 1.429 . S
C1847 C1843 1.429 . S
C1847 C1848 1.523 . S
C1848 C1832 1.368 . S
C1848 C1844 1.368 . S
C1848 C1847 1.523 . S
H1849 C1824 0.950 . S
H1850 C1826 0.950 . S
H1851 C1827 0.949 . S
H1852 C1829 0.950 . S
H1853 C1831 0.950 . S
C1854 C1855 1.370 . S
C1854 C1856 1.314 1_545 S
C1854 H1879 0.943 1_545 S
C1855 C1854 1.370 . S
C1855 C1871 1.349 . S
C1856 C1854 1.314 1_565 S
C1856 C1875 1.429 . S
C1856 H1880 0.950 . S
C1857 C1874 1.574 . S
C1857 C1876 1.368 . S
C1857 H1881 0.949 1_565 S
H1858 C1862 0.949 . S
C1859 C1860 1.349 . S
C1859 C1861 1.327 . S
C1859 H1882 0.950 . S
C1860 C1859 1.349 . S
C1860 C1872 1.349 . S
C1861 C1859 1.327 . S
C1861 C1877 1.429 . S
C1861 H1883 0.950 . S
C1862 H1858 0.949 . S
C1862 C1870 1.574 . S
C1862 C1878 1.368 . S
H1863 C1871 0.950 . S
H1864 C1869 0.950 . S
H1865 C1870 0.949 . S
H1866 C1872 0.950 . S
H1867 C1873 0.950 . S
H1868 C1874 0.949 . S
C1869 H1864 0.950 . S
C1869 C1871 1.327 . S
C1869 C1875 1.429 1_545 S
C1870 C1862 1.574 . S
C1870 H1865 0.949 . S
C1870 C1876 1.368 . S
C1871 C1855 1.349 . S
C1871 H1863 0.950 . S
C1871 C1869 1.327 . S
C1872 C1860 1.349 . S
C1872 H1866 0.950 . S
C1872 C1873 1.327 . S
C1873 H1867 0.950 . S
C1873 C1872 1.327 . S
C1873 C1877 1.429 . S
C1874 C1857 1.574 . S
C1874 H1868 0.949 . S
C1874 C1878 1.368 . S
C1875 C1856 1.429 . S
C1875 C1869 1.429 1_565 S
C1875 C1876 1.523 . S
C1876 C1857 1.368 . S
C1876 C1870 1.368 . S
C1876 C1875 1.523 . S
C1877 C1861 1.429 . S
C1877 C1873 1.429 . S
C1877 C1878 1.523 . S
C1878 C1862 1.368 . S
C1878 C1874 1.368 . S
C1878 C1877 1.523 . S
H1879 C1854 0.943 1_565 S
H1880 C1856 0.950 . S
H1881 C1857 0.949 1_545 S
H1882 C1859 0.950 . S
H1883 C1861 0.950 . S
C1884 C1885 1.349 . S
C1884 C1886 1.327 . S
C1884 H1909 0.950 . S
C1885 C1884 1.349 . S
C1885 C1901 1.349 . S
C1886 C1884 1.327 . S
C1886 C1905 1.429 . S
C1886 H1910 0.950 . S
C1887 C1904 1.574 . S
C1887 C1906 1.368 . S
C1887 H1911 0.949 . S
H1888 C1892 0.949 . S
C1889 C1890 1.349 . S
C1889 C1891 1.327 . S
C1889 H1912 0.950 . S
C1890 C1889 1.349 . S
C1890 C1902 1.349 . S
C1891 C1889 1.327 . S
C1891 C1907 1.429 . S
C1891 H1913 0.950 . S
C1892 H1888 0.949 . S
C1892 C1900 1.574 . S
C1892 C1908 1.368 . S
H1893 C1901 0.950 . S
H1894 C1899 0.950 . S
H1895 C1900 0.949 . S
H1896 C1902 0.950 . S
H1897 C1903 0.950 . S
H1898 C1904 0.949 . S
C1899 H1894 0.950 . S
C1899 C1901 1.327 . S
C1899 C1905 1.429 . S
C1900 C1892 1.574 . S
C1900 H1895 0.949 . S
C1900 C1906 1.368 . S
C1901 C1885 1.349 . S
C1901 H1893 0.950 . S
C1901 C1899 1.327 . S
C1902 C1890 1.349 . S
C1902 H1896 0.950 . S
C1902 C1903 1.327 . S
C1903 H1897 0.950 . S
C1903 C1902 1.327 . S
C1903 C1907 1.429 . S
C1904 C1887 1.574 . S
C1904 H1898 0.949 . S
C1904 C1908 1.368 . S
C1905 C1886 1.429 . S
C1905 C1899 1.429 . S
C1905 C1906 1.523 . S
C1906 C1887 1.368 . S
C1906 C1900 1.368 . S
C1906 C1905 1.523 . S
C1907 C1891 1.429 . S
C1907 C1903 1.429 . S
C1907 C1908 1.523 . S
C1908 C1892 1.368 . S
C1908 C1904 1.368 . S
C1908 C1907 1.523 . S
H1909 C1884 0.950 . S
H1910 C1886 0.950 . S
H1911 C1887 0.949 . S
H1912 C1889 0.950 . S
H1913 C1891 0.950 . S
C1914 C1915 1.349 1_545 S
C1914 C1916 1.327 . S
C1914 H1939 0.950 . S
C1915 C1914 1.349 1_565 S
C1915 C1931 1.349 . S
C1916 C1914 1.327 . S
C1916 C1935 1.429 . S
C1916 H1940 0.950 . S
C1917 C1934 1.574 . S
C1917 C1936 1.368 . S
C1917 H1941 0.949 1_545 S
H1918 C1922 0.949 . S
C1919 C1920 1.349 . S
C1919 C1921 1.327 . S
C1919 H1942 0.950 . S
C1920 C1919 1.349 . S
C1920 C1932 1.349 . S
C1921 C1919 1.327 . S
C1921 C1937 1.429 . S
C1921 H1943 0.950 . S
C1922 H1918 0.949 . S
C1922 C1930 1.574 . S
C1922 C1938 1.368 . S
H1923 C1931 0.950 . S
H1924 C1929 0.950 1_554 S
H1925 C1930 0.949 1_556 S
H1926 C1932 0.950 . S
H1927 C1933 0.950 . S
H1928 C1934 0.949 . S
C1929 H1924 0.950 1_556 S
C1929 C1931 1.327 . S
C1929 C1935 1.429 1_565 S
C1930 C1922 1.574 . S
C1930 H1925 0.949 1_554 S
C1930 C1936 1.368 . S
C1931 C1915 1.349 . S
C1931 H1923 0.950 . S
C1931 C1929 1.327 . S
C1932 C1920 1.349 . S
C1932 H1926 0.950 . S
C1932 C1933 1.327 . S
C1933 H1927 0.950 . S
C1933 C1932 1.327 . S
C1933 C1937 1.429 . S
C1934 C1917 1.574 . S
C1934 H1928 0.949 . S
C1934 C1938 1.368 . S
C1935 C1916 1.429 . S
C1935 C1929 1.429 1_545 S
C1935 C1936 1.523 1_556 S
C1936 C1917 1.368 . S
C1936 C1930 1.368 . S
C1936 C1935 1.523 1_554 S
C1937 C1921 1.429 . S
C1937 C1933 1.429 . S
C1937 C1938 1.523 . S
C1938 C1922 1.368 . S
C1938 C1934 1.368 . S
C1938 C1937 1.523 . S
H1939 C1914 0.950 . S
H1940 C1916 0.950 . S
H1941 C1917 0.949 1_565 S
H1942 C1919 0.950 . S
H1943 C1921 0.950 . S
C1944 C1945 1.349 . S
C1944 C1946 1.327 . S
C1944 H1969 0.950 . S
C1945 C1944 1.349 . S
C1945 C1961 1.349 . S
C1946 C1944 1.327 . S
C1946 C1965 1.429 . S
C1946 H1970 0.950 . S
C1947 C1964 1.574 . S
C1947 C1966 1.368 . S
C1947 H1971 0.949 . S
H1948 C1952 0.949 . S
C1949 C1950 1.349 . S
C1949 C1951 1.327 . S
C1949 H1972 0.950 . S
C1950 C1949 1.349 . S
C1950 C1962 1.349 . S
C1951 C1949 1.327 . S
C1951 C1967 1.429 . S
C1951 H1973 0.950 . S
C1952 H1948 0.949 . S
C1952 C1960 1.574 . S
C1952 C1968 1.368 . S
H1953 C1961 0.950 . S
H1954 C1959 0.950 . S
H1955 C1960 0.949 . S
H1956 C1962 0.950 . S
H1957 C1963 0.950 . S
H1958 C1964 0.949 . S
C1959 H1954 0.950 . S
C1959 C1961 1.327 . S
C1959 C1965 1.429 . S
C1960 C1952 1.574 . S
C1960 H1955 0.949 . S
C1960 C1966 1.368 . S
C1961 C1945 1.349 . S
C1961 H1953 0.950 . S
C1961 C1959 1.327 . S
C1962 C1950 1.349 . S
C1962 H1956 0.950 . S
C1962 C1963 1.327 . S
C1963 H1957 0.950 . S
C1963 C1962 1.327 . S
C1963 C1967 1.429 . S
C1964 C1947 1.574 . S
C1964 H1958 0.949 . S
C1964 C1968 1.368 . S
C1965 C1946 1.429 . S
C1965 C1959 1.429 . S
C1965 C1966 1.523 . S
C1966 C1947 1.368 . S
C1966 C1960 1.368 . S
C1966 C1965 1.523 . S
C1967 C1951 1.429 . S
C1967 C1963 1.429 . S
C1967 C1968 1.523 . S
C1968 C1952 1.368 . S
C1968 C1964 1.368 . S
C1968 C1967 1.523 . S
H1969 C1944 0.950 . S
H1970 C1946 0.950 . S
H1971 C1947 0.949 . S
H1972 C1949 0.950 . S
H1973 C1951 0.950 . S
C1974 C1975 1.330 1_565 S
C1974 C1976 1.339 . S
C1974 H1999 0.958 . S
C1975 C1974 1.330 1_545 S
C1975 C1991 1.349 . S
C1976 C1974 1.339 . S
C1976 C1995 1.429 . S
C1976 H2000 0.950 . S
C1977 C1994 1.574 . S
C1977 C1996 1.368 . S
C1977 H2001 0.949 1_565 S
H1978 C1982 0.949 . S
C1979 C1980 1.349 . S
C1979 C1981 1.327 . S
C1979 H2002 0.950 . S
C1980 C1979 1.349 . S
C1980 C1992 1.349 . S
C1981 C1979 1.327 . S
C1981 C1997 1.429 . S
C1981 H2003 0.950 . S
C1982 H1978 0.949 . S
C1982 C1990 1.574 . S
C1982 C1998 1.368 . S
H1983 C1991 0.950 . S
H1984 C1989 0.950 . S
H1985 C1990 0.949 . S
H1986 C1992 0.950 . S
H1987 C1993 0.950 . S
H1988 C1994 0.949 . S
C1989 H1984 0.950 . S
C1989 C1991 1.327 . S
C1989 C1995 1.429 1_545 S
C1990 C1982 1.574 . S
C1990 H1985 0.949 . S
C1990 C1996 1.368 . S
C1991 C1975 1.349 . S
C1991 H1983 0.950 . S
C1991 C1989 1.327 . S
C1992 C1980 1.349 . S
C1992 H1986 0.950 . S
C1992 C1993 1.327 . S
C1993 H1987 0.950 . S
C1993 C1992 1.327 . S
C1993 C1997 1.429 . S
C1994 C1977 1.574 . S
C1994 H1988 0.949 . S
C1994 C1998 1.368 . S
C1995 C1976 1.429 . S
C1995 C1989 1.429 1_565 S
C1995 C1996 1.523 . S
C1996 C1977 1.368 . S
C1996 C1990 1.368 . S
C1996 C1995 1.523 . S
C1997 C1981 1.429 . S
C1997 C1993 1.429 . S
C1997 C1998 1.523 . S
C1998 C1982 1.368 . S
C1998 C1994 1.368 . S
C1998 C1997 1.523 . S
H1999 C1974 0.958 . S
H2000 C1976 0.950 . S
H2001 C1977 0.949 1_545 S
H2002 C1979 0.950 . S
H2003 C1981 0.950 . S
C2004 C2005 1.349 . S
C2004 C2006 1.327 . S
C2004 H2029 0.950 . S
C2005 C2004 1.349 . S
C2005 C2021 1.349 . S
C2006 C2004 1.327 . S
C2006 C2025 1.429 . S
C2006 H2030 0.950 . S
C2007 C2024 1.574 . S
C2007 C2026 1.368 . S
C2007 H2031 0.949 . S
H2008 C2012 0.949 . S
C2009 C2010 1.349 . S
C2009 C2011 1.327 . S
C2009 H2032 0.950 . S
C2010 C2009 1.349 . S
C2010 C2022 1.349 . S
C2011 C2009 1.327 . S
C2011 C2027 1.429 . S
C2011 H2033 0.950 . S
C2012 H2008 0.949 . S
C2012 C2020 1.574 . S
C2012 C2028 1.368 . S
H2013 C2021 0.950 . S
H2014 C2019 0.950 . S
H2015 C2020 0.949 . S
H2016 C2022 0.950 . S
H2017 C2023 0.950 . S
H2018 C2024 0.949 . S
C2019 H2014 0.950 . S
C2019 C2021 1.327 . S
C2019 C2025 1.429 . S
C2020 C2012 1.574 . S
C2020 H2015 0.949 . S
C2020 C2026 1.368 . S
C2021 C2005 1.349 . S
C2021 H2013 0.950 . S
C2021 C2019 1.327 . S
C2022 C2010 1.349 . S
C2022 H2016 0.950 . S
C2022 C2023 1.327 . S
C2023 H2017 0.950 . S
C2023 C2022 1.327 . S
C2023 C2027 1.429 . S
C2024 C2007 1.574 . S
C2024 H2018 0.949 . S
C2024 C2028 1.368 . S
C2025 C2006 1.429 . S
C2025 C2019 1.429 . S
C2025 C2026 1.523 . S
C2026 C2007 1.368 . S
C2026 C2020 1.368 . S
C2026 C2025 1.523 . S
C2027 C2011 1.429 . S
C2027 C2023 1.429 . S
C2027 C2028 1.523 . S
C2028 C2012 1.368 . S
C2028 C2024 1.368 . S
C2028 C2027 1.523 . S
H2029 C2004 0.950 . S
H2030 C2006 0.950 . S
H2031 C2007 0.949 . S
H2032 C2009 0.950 . S
H2033 C2011 0.950 . S
C2034 C2035 1.349 . S
C2034 C2036 1.327 . S
C2034 H2059 0.950 . S
C2035 C2034 1.349 . S
C2035 C2051 1.312 1_565 S
C2036 C2034 1.327 . S
C2036 C2055 1.429 1_565 S
C2036 H2060 0.950 1_554 S
C2037 C2054 1.574 . S
C2037 C2056 1.368 . S
C2037 H2061 0.949 1_556 S
H2038 C2042 0.949 . S
C2039 C2040 1.349 . S
C2039 C2041 1.327 . S
C2039 H2062 0.950 . S
C2040 C2039 1.349 . S
C2040 C2052 1.349 . S
C2041 C2039 1.327 . S
C2041 C2057 1.429 . S
C2041 H2063 0.950 . S
C2042 H2038 0.949 . S
C2042 C2050 1.574 . S
C2042 C2058 1.368 . S
H2043 C2051 0.967 . S
H2044 C2049 0.950 . S
H2045 C2050 0.949 1_565 S
H2046 C2052 0.950 . S
H2047 C2053 0.950 . S
H2048 C2054 0.949 . S
C2049 H2044 0.950 . S
C2049 C2051 1.349 . S
C2049 C2055 1.429 . S
C2050 C2042 1.574 . S
C2050 H2045 0.949 1_545 S
C2050 C2056 1.368 . S
C2051 C2035 1.312 1_545 S
C2051 H2043 0.967 . S
C2051 C2049 1.349 . S
C2052 C2040 1.349 . S
C2052 H2046 0.950 . S
C2052 C2053 1.327 . S
C2053 H2047 0.950 . S
C2053 C2052 1.327 . S
C2053 C2057 1.429 . S
C2054 C2037 1.574 . S
C2054 H2048 0.949 . S
C2054 C2058 1.368 . S
C2055 C2036 1.429 1_545 S
C2055 C2049 1.429 . S
C2055 C2056 1.523 1_554 S
C2056 C2037 1.368 . S
C2056 C2050 1.368 . S
C2056 C2055 1.523 1_556 S
C2057 C2041 1.429 . S
C2057 C2053 1.429 . S
C2057 C2058 1.523 . S
C2058 C2042 1.368 . S
C2058 C2054 1.368 . S
C2058 C2057 1.523 . S
H2059 C2034 0.950 . S
H2060 C2036 0.950 1_556 S
H2061 C2037 0.949 1_554 S
H2062 C2039 0.950 . S
H2063 C2041 0.950 . S
C2064 C2065 1.349 . S
C2064 C2066 1.327 . S
C2064 H2089 0.950 . S
C2065 C2064 1.349 . S
C2065 C2081 1.349 . S
C2066 C2064 1.327 . S
C2066 C2085 1.429 . S
C2066 H2090 0.950 . S
C2067 C2084 1.574 . S
C2067 C2086 1.368 . S
C2067 H2091 0.949 . S
H2068 C2072 0.949 . S
C2069 C2070 1.349 . S
C2069 C2071 1.327 . S
C2069 H2092 0.950 . S
C2070 C2069 1.349 . S
C2070 C2082 1.349 . S
C2071 C2069 1.327 . S
C2071 C2087 1.429 . S
C2071 H2093 0.950 . S
C2072 H2068 0.949 . S
C2072 C2080 1.574 . S
C2072 C2088 1.368 . S
H2073 C2081 0.950 . S
H2074 C2079 0.950 . S
H2075 C2080 0.949 . S
H2076 C2082 0.950 . S
H2077 C2083 0.950 . S
H2078 C2084 0.949 . S
C2079 H2074 0.950 . S
C2079 C2081 1.327 . S
C2079 C2085 1.429 . S
C2080 C2072 1.574 . S
C2080 H2075 0.949 . S
C2080 C2086 1.368 . S
C2081 C2065 1.349 . S
C2081 H2073 0.950 . S
C2081 C2079 1.327 . S
C2082 C2070 1.349 . S
C2082 H2076 0.950 . S
C2082 C2083 1.327 . S
C2083 H2077 0.950 . S
C2083 C2082 1.327 . S
C2083 C2087 1.429 . S
C2084 C2067 1.574 . S
C2084 H2078 0.949 . S
C2084 C2088 1.368 . S
C2085 C2066 1.429 . S
C2085 C2079 1.429 . S
C2085 C2086 1.523 . S
C2086 C2067 1.368 . S
C2086 C2080 1.368 . S
C2086 C2085 1.523 . S
C2087 C2071 1.429 . S
C2087 C2083 1.429 . S
C2087 C2088 1.523 . S
C2088 C2072 1.368 . S
C2088 C2084 1.368 . S
C2088 C2087 1.523 . S
H2089 C2064 0.950 . S
H2090 C2066 0.950 . S
H2091 C2067 0.949 . S
H2092 C2069 0.950 . S
H2093 C2071 0.950 . S
C2094 C2095 1.349 . S
C2094 C2096 1.327 1_655 S
C2094 H2119 0.950 . S
C2095 C2094 1.349 . S
C2095 C2111 1.349 . S
C2096 C2094 1.327 1_455 S
C2096 C2115 1.429 . S
C2096 H2120 0.950 . S
C2097 C2114 1.574 . S
C2097 C2116 1.368 . S
C2097 H2121 0.949 . S
H2098 C2102 0.949 . S
C2099 C2100 1.349 . S
C2099 C2101 1.327 . S
C2099 H2122 0.950 . S
C2100 C2099 1.349 . S
C2100 C2112 1.349 . S
C2101 C2099 1.327 . S
C2101 C2117 1.429 . S
C2101 H2123 0.950 . S
C2102 H2098 0.949 . S
C2102 C2110 1.574 . S
C2102 C2118 1.368 . S
H2103 C2111 0.950 . S
H2104 C2109 0.950 . S
H2105 C2110 0.949 . S
H2106 C2112 0.950 . S
H2107 C2113 0.950 . S
H2108 C2114 0.949 . S
C2109 H2104 0.950 . S
C2109 C2111 1.327 . S
C2109 C2115 1.429 1_655 S
C2110 C2102 1.574 . S
C2110 H2105 0.949 . S
C2110 C2116 1.368 . S
C2111 C2095 1.349 . S
C2111 H2103 0.950 . S
C2111 C2109 1.327 . S
C2112 C2100 1.349 . S
C2112 H2106 0.950 . S
C2112 C2113 1.327 . S
C2113 H2107 0.950 . S
C2113 C2112 1.327 . S
C2113 C2117 1.429 . S
C2114 C2097 1.574 . S
C2114 H2108 0.949 . S
C2114 C2118 1.368 . S
C2115 C2096 1.429 . S
C2115 C2109 1.429 1_455 S
C2115 C2116 1.523 1_565 S
C2116 C2097 1.368 . S
C2116 C2110 1.368 . S
C2116 C2115 1.523 1_545 S
C2117 C2101 1.429 . S
C2117 C2113 1.429 . S
C2117 C2118 1.523 . S
C2118 C2102 1.368 . S
C2118 C2114 1.368 . S
C2118 C2117 1.523 . S
H2119 C2094 0.950 . S
H2120 C2096 0.950 . S
H2121 C2097 0.949 . S
H2122 C2099 0.950 . S
H2123 C2101 0.950 . S
C2124 C2125 1.349 . S
C2124 C2126 1.327 . S
C2124 H2149 0.950 . S
C2125 C2124 1.349 . S
C2125 C2141 1.349 . S
C2126 C2124 1.327 . S
C2126 C2145 1.429 . S
C2126 H2150 0.950 . S
C2127 C2144 1.574 . S
C2127 C2146 1.368 . S
C2127 H2151 0.949 . S
H2128 C2132 0.949 . S
C2129 C2130 1.349 . S
C2129 C2131 1.327 . S
C2129 H2152 0.950 . S
C2130 C2129 1.349 . S
C2130 C2142 1.349 . S
C2131 C2129 1.327 . S
C2131 C2147 1.429 . S
C2131 H2153 0.950 . S
C2132 H2128 0.949 . S
C2132 C2140 1.574 . S
C2132 C2148 1.368 . S
H2133 C2141 0.950 . S
H2134 C2139 0.950 . S
H2135 C2140 0.949 . S
H2136 C2142 0.950 . S
H2137 C2143 0.950 . S
H2138 C2144 0.949 . S
C2139 H2134 0.950 . S
C2139 C2141 1.327 . S
C2139 C2145 1.429 . S
C2140 C2132 1.574 . S
C2140 H2135 0.949 . S
C2140 C2146 1.368 . S
C2141 C2125 1.349 . S
C2141 H2133 0.950 . S
C2141 C2139 1.327 . S
C2142 C2130 1.349 . S
C2142 H2136 0.950 . S
C2142 C2143 1.327 . S
C2143 H2137 0.950 . S
C2143 C2142 1.327 . S
C2143 C2147 1.429 . S
C2144 C2127 1.574 . S
C2144 H2138 0.949 . S
C2144 C2148 1.368 . S
C2145 C2126 1.429 . S
C2145 C2139 1.429 . S
C2145 C2146 1.523 . S
C2146 C2127 1.368 . S
C2146 C2140 1.368 . S
C2146 C2145 1.523 . S
C2147 C2131 1.429 . S
C2147 C2143 1.429 . S
C2147 C2148 1.523 . S
C2148 C2132 1.368 . S
C2148 C2144 1.368 . S
C2148 C2147 1.523 . S
H2149 C2124 0.950 . S
H2150 C2126 0.950 . S
H2151 C2127 0.949 . S
H2152 C2129 0.950 . S
H2153 C2131 0.950 . S
C2154 C2155 1.349 . S
C2154 C2156 1.327 . S
C2154 H2179 0.950 . S
C2155 C2154 1.349 . S
C2155 C2171 1.349 . S
C2156 C2154 1.327 . S
C2156 C2175 1.429 . S
C2156 H2180 0.950 . S
C2157 C2174 1.574 . S
C2157 C2176 1.368 . S
C2157 H2181 0.949 . S
H2158 C2162 0.949 . S
C2159 C2160 1.349 . S
C2159 C2161 1.327 . S
C2159 H2182 0.950 . S
C2160 C2159 1.349 . S
C2160 C2172 1.349 . S
C2161 C2159 1.327 . S
C2161 C2177 1.429 . S
C2161 H2183 0.950 . S
C2162 H2158 0.949 . S
C2162 C2170 1.574 . S
C2162 C2178 1.368 . S
H2163 C2171 0.950 . S
H2164 C2169 0.950 . S
H2165 C2170 0.949 . S
H2166 C2172 0.950 . S
H2167 C2173 0.950 . S
H2168 C2174 0.949 . S
C2169 H2164 0.950 . S
C2169 C2171 1.327 . S
C2169 C2175 1.429 . S
C2170 C2162 1.574 . S
C2170 H2165 0.949 . S
C2170 C2176 1.368 . S
C2171 C2155 1.349 . S
C2171 H2163 0.950 . S
C2171 C2169 1.327 . S
C2172 C2160 1.349 . S
C2172 H2166 0.950 . S
C2172 C2173 1.327 . S
C2173 H2167 0.950 . S
C2173 C2172 1.327 . S
C2173 C2177 1.429 . S
C2174 C2157 1.574 . S
C2174 H2168 0.949 . S
C2174 C2178 1.368 . S
C2175 C2156 1.429 . S
C2175 C2169 1.429 . S
C2175 C2176 1.523 1_545 S
C2176 C2157 1.368 . S
C2176 C2170 1.368 . S
C2176 C2175 1.523 1_565 S
C2177 C2161 1.429 . S
C2177 C2173 1.429 . S
C2177 C2178 1.523 . S
C2178 C2162 1.368 . S
C2178 C2174 1.368 . S
C2178 C2177 1.523 . S
H2179 C2154 0.950 . S
H2180 C2156 0.950 . S
H2181 C2157 0.949 . S
H2182 C2159 0.950 . S
H2183 C2161 0.950 . S
C2184 C2185 1.349 . S
C2184 C2186 1.327 . S
C2184 H2209 0.950 . S
C2185 C2184 1.349 . S
C2185 C2201 1.349 . S
C2186 C2184 1.327 . S
C2186 C2205 1.429 . S
C2186 H2210 0.950 . S
C2187 C2204 1.574 . S
C2187 C2206 1.368 . S
C2187 H2211 0.949 . S
H2188 C2192 0.949 . S
C2189 C2190 1.349 . S
C2189 C2191 1.327 . S
C2189 H2212 0.950 . S
C2190 C2189 1.349 . S
C2190 C2202 1.349 . S
C2191 C2189 1.327 . S
C2191 C2207 1.429 . S
C2191 H2213 0.950 . S
C2192 H2188 0.949 . S
C2192 C2200 1.574 . S
C2192 C2208 1.368 . S
H2193 C2201 0.950 . S
H2194 C2199 0.950 . S
H2195 C2200 0.949 . S
H2196 C2202 0.950 . S
H2197 C2203 0.950 . S
H2198 C2204 0.949 . S
C2199 H2194 0.950 . S
C2199 C2201 1.327 . S
C2199 C2205 1.429 . S
C2200 C2192 1.574 . S
C2200 H2195 0.949 . S
C2200 C2206 1.368 . S
C2201 C2185 1.349 . S
C2201 H2193 0.950 . S
C2201 C2199 1.327 . S
C2202 C2190 1.349 . S
C2202 H2196 0.950 . S
C2202 C2203 1.327 . S
C2203 H2197 0.950 . S
C2203 C2202 1.327 . S
C2203 C2207 1.429 . S
C2204 C2187 1.574 . S
C2204 H2198 0.949 . S
C2204 C2208 1.368 . S
C2205 C2186 1.429 . S
C2205 C2199 1.429 . S
C2205 C2206 1.523 . S
C2206 C2187 1.368 . S
C2206 C2200 1.368 . S
C2206 C2205 1.523 . S
C2207 C2191 1.429 . S
C2207 C2203 1.429 . S
C2207 C2208 1.523 . S
C2208 C2192 1.368 . S
C2208 C2204 1.368 . S
C2208 C2207 1.523 . S
H2209 C2184 0.950 . S
H2210 C2186 0.950 . S
H2211 C2187 0.949 . S
H2212 C2189 0.950 . S
H2213 C2191 0.950 . S
C2214 C2215 1.349 . S
C2214 C2216 1.327 . S
C2214 H2239 0.950 . S
C2215 C2214 1.349 . S
C2215 C2231 1.349 . S
C2216 C2214 1.327 . S
C2216 C2235 1.429 . S
C2216 H2240 0.950 1_565 S
C2217 C2234 1.574 . S
C2217 C2236 1.368 . S
C2217 H2241 0.949 1_545 S
H2218 C2222 0.949 . S
C2219 C2220 1.349 . S
C2219 C2221 1.327 . S
C2219 H2242 0.950 . S
C2220 C2219 1.349 . S
C2220 C2232 1.349 . S
C2221 C2219 1.327 . S
C2221 C2237 1.429 . S
C2221 H2243 0.950 . S
C2222 H2218 0.949 . S
C2222 C2230 1.574 . S
C2222 C2238 1.368 . S
H2223 C2231 0.950 . S
H2224 C2229 0.950 . S
H2225 C2230 0.949 . S
H2226 C2232 0.950 . S
H2227 C2233 0.950 . S
H2228 C2234 0.949 . S
C2229 H2224 0.950 . S
C2229 C2231 1.327 . S
C2229 C2235 1.429 . S
C2230 C2222 1.574 . S
C2230 H2225 0.949 . S
C2230 C2236 1.368 . S
C2231 C2215 1.349 . S
C2231 H2223 0.950 . S
C2231 C2229 1.327 . S
C2232 C2220 1.349 . S
C2232 H2226 0.950 . S
C2232 C2233 1.327 . S
C2233 H2227 0.950 . S
C2233 C2232 1.327 . S
C2233 C2237 1.429 . S
C2234 C2217 1.574 . S
C2234 H2228 0.949 . S
C2234 C2238 1.368 . S
C2235 C2216 1.429 . S
C2235 C2229 1.429 . S
C2235 C2236 1.523 1_565 S
C2236 C2217 1.368 . S
C2236 C2230 1.368 . S
C2236 C2235 1.523 1_545 S
C2237 C2221 1.429 . S
C2237 C2233 1.429 . S
C2237 C2238 1.523 . S
C2238 C2222 1.368 . S
C2238 C2234 1.368 . S
C2238 C2237 1.523 . S
H2239 C2214 0.950 . S
H2240 C2216 0.950 1_545 S
H2241 C2217 0.949 1_565 S
H2242 C2219 0.950 . S
H2243 C2221 0.950 . S
C2244 C2245 1.349 . S
C2244 C2246 1.327 . S
C2244 H2269 0.950 . S
C2245 C2244 1.349 . S
C2245 C2261 1.349 . S
C2246 C2244 1.327 . S
C2246 C2265 1.429 . S
C2246 H2270 0.950 . S
C2247 C2264 1.574 . S
C2247 C2266 1.368 . S
C2247 H2271 0.949 . S
H2248 C2252 0.949 . S
C2249 C2250 1.349 . S
C2249 C2251 1.327 . S
C2249 H2272 0.950 . S
C2250 C2249 1.349 . S
C2250 C2262 1.349 . S
C2251 C2249 1.327 . S
C2251 C2267 1.429 . S
C2251 H2273 0.950 . S
C2252 H2248 0.949 . S
C2252 C2260 1.574 . S
C2252 C2268 1.368 . S
H2253 C2261 0.950 . S
H2254 C2259 0.950 . S
H2255 C2260 0.949 . S
H2256 C2262 0.950 . S
H2257 C2263 0.950 . S
H2258 C2264 0.949 . S
C2259 H2254 0.950 . S
C2259 C2261 1.327 . S
C2259 C2265 1.429 . S
C2260 C2252 1.574 . S
C2260 H2255 0.949 . S
C2260 C2266 1.368 . S
C2261 C2245 1.349 . S
C2261 H2253 0.950 . S
C2261 C2259 1.327 . S
C2262 C2250 1.349 . S
C2262 H2256 0.950 . S
C2262 C2263 1.327 . S
C2263 H2257 0.950 . S
C2263 C2262 1.327 . S
C2263 C2267 1.429 . S
C2264 C2247 1.574 . S
C2264 H2258 0.949 . S
C2264 C2268 1.368 . S
C2265 C2246 1.429 . S
C2265 C2259 1.429 . S
C2265 C2266 1.523 . S
C2266 C2247 1.368 . S
C2266 C2260 1.368 . S
C2266 C2265 1.523 . S
C2267 C2251 1.429 . S
C2267 C2263 1.429 . S
C2267 C2268 1.523 . S
C2268 C2252 1.368 . S
C2268 C2264 1.368 . S
C2268 C2267 1.523 . S
H2269 C2244 0.950 . S
H2270 C2246 0.950 . S
H2271 C2247 0.949 . S
H2272 C2249 0.950 . S
H2273 C2251 0.950 . S
C2274 C2275 1.349 . S
C2274 C2276 1.327 . S
C2274 H2299 0.950 . S
C2275 C2274 1.349 . S
C2275 C2291 1.349 . S
C2276 C2274 1.327 . S
C2276 C2295 1.429 . S
C2276 H2300 0.950 . S
C2277 C2294 1.574 1_455 S
C2277 C2296 1.368 . S
C2277 H2301 0.930 1_455 S
H2278 C2282 0.949 . S
C2279 C2280 1.349 . S
C2279 C2281 1.327 . S
C2279 H2302 0.950 . S
C2280 C2279 1.349 . S
C2280 C2292 1.349 1_655 S
C2281 C2279 1.327 . S
C2281 C2297 1.429 1_655 S
C2281 H2303 0.950 . S
C2282 H2278 0.949 . S
C2282 C2290 1.574 . S
C2282 C2298 1.368 . S
H2283 C2291 0.950 . S
H2284 C2289 0.950 . S
H2285 C2290 0.949 . S
H2286 C2292 0.950 . S
H2287 C2293 0.950 . S
H2288 C2294 0.949 . S
C2289 H2284 0.950 . S
C2289 C2291 1.327 . S
C2289 C2295 1.429 . S
C2290 C2282 1.574 . S
C2290 H2285 0.949 . S
C2290 C2296 1.368 . S
C2291 C2275 1.349 . S
C2291 H2283 0.950 . S
C2291 C2289 1.327 . S
C2292 C2280 1.349 1_455 S
C2292 H2286 0.950 . S
C2292 C2293 1.327 . S
C2293 H2287 0.950 . S
C2293 C2292 1.327 . S
C2293 C2297 1.429 . S
C2294 C2277 1.574 1_655 S
C2294 H2288 0.949 . S
C2294 C2298 1.368 1_655 S
C2295 C2276 1.429 . S
C2295 C2289 1.429 . S
C2295 C2296 1.523 . S
C2296 C2277 1.368 . S
C2296 C2290 1.368 . S
C2296 C2295 1.523 . S
C2297 C2281 1.429 1_455 S
C2297 C2293 1.429 . S
C2297 C2298 1.523 1_545 S
C2298 C2282 1.368 . S
C2298 C2294 1.368 1_455 S
C2298 C2297 1.523 1_565 S
H2299 C2274 0.950 . S
H2300 C2276 0.950 . S
H2301 C2277 0.930 1_655 S
H2302 C2279 0.950 . S
H2303 C2281 0.950 . S
C2304 C2305 1.349 . S
C2304 C2306 1.327 . S
C2304 H2329 0.950 . S
C2305 C2304 1.349 . S
C2305 C2321 1.349 . S
C2306 C2304 1.327 . S
C2306 C2325 1.429 . S
C2306 H2330 0.950 . S
C2307 C2324 1.574 . S
C2307 C2326 1.368 . S
C2307 H2331 0.949 . S
H2308 C2312 0.949 . S
C2309 C2310 1.349 . S
C2309 C2311 1.327 . S
C2309 H2332 0.950 . S
C2310 C2309 1.349 . S
C2310 C2322 1.349 . S
C2311 C2309 1.327 . S
C2311 C2327 1.429 . S
C2311 H2333 0.950 . S
C2312 H2308 0.949 . S
C2312 C2320 1.574 . S
C2312 C2328 1.368 . S
H2313 C2321 0.950 . S
H2314 C2319 0.950 . S
H2315 C2320 0.949 . S
H2316 C2322 0.950 . S
H2317 C2323 0.950 . S
H2318 C2324 0.949 . S
C2319 H2314 0.950 . S
C2319 C2321 1.327 . S
C2319 C2325 1.429 . S
C2320 C2312 1.574 . S
C2320 H2315 0.949 . S
C2320 C2326 1.368 . S
C2321 C2305 1.349 . S
C2321 H2313 0.950 . S
C2321 C2319 1.327 . S
C2322 C2310 1.349 . S
C2322 H2316 0.950 . S
C2322 C2323 1.327 . S
C2323 H2317 0.950 . S
C2323 C2322 1.327 . S
C2323 C2327 1.429 . S
C2324 C2307 1.574 . S
C2324 H2318 0.949 . S
C2324 C2328 1.368 . S
C2325 C2306 1.429 . S
C2325 C2319 1.429 . S
C2325 C2326 1.523 . S
C2326 C2307 1.368 . S
C2326 C2320 1.368 . S
C2326 C2325 1.523 . S
C2327 C2311 1.429 . S
C2327 C2323 1.429 . S
C2327 C2328 1.523 . S
C2328 C2312 1.368 . S
C2328 C2324 1.368 . S
C2328 C2327 1.523 . S
H2329 C2304 0.950 . S
H2330 C2306 0.950 . S
H2331 C2307 0.949 . S
H2332 C2309 0.950 . S
H2333 C2311 0.950 . S
C2334 C2335 1.349 . S
C2334 C2336 1.327 . S
C2334 H2359 0.950 . S
C2335 C2334 1.349 . S
C2335 C2351 1.349 . S
C2336 C2334 1.327 . S
C2336 C2355 1.429 . S
C2336 H2360 0.950 . S
C2337 C2354 1.574 . S
C2337 C2356 1.368 . S
C2337 H2361 0.949 . S
H2338 C2342 0.949 . S
C2339 C2340 1.349 . S
C2339 C2341 1.327 . S
C2339 H2362 0.950 . S
C2340 C2339 1.349 . S
C2340 C2352 1.349 . S
C2341 C2339 1.327 . S
C2341 C2357 1.429 . S
C2341 H2363 0.950 . S
C2342 H2338 0.949 . S
C2342 C2350 1.574 . S
C2342 C2358 1.368 . S
H2343 C2351 0.950 . S
H2344 C2349 0.950 . S
H2345 C2350 0.949 . S
H2346 C2352 0.950 . S
H2347 C2353 0.950 . S
H2348 C2354 0.949 . S
C2349 H2344 0.950 . S
C2349 C2351 1.327 . S
C2349 C2355 1.429 . S
C2350 C2342 1.574 . S
C2350 H2345 0.949 . S
C2350 C2356 1.368 . S
C2351 C2335 1.349 . S
C2351 H2343 0.950 . S
C2351 C2349 1.327 . S
C2352 C2340 1.349 . S
C2352 H2346 0.950 . S
C2352 C2353 1.327 . S
C2353 H2347 0.950 . S
C2353 C2352 1.327 . S
C2353 C2357 1.429 . S
C2354 C2337 1.574 . S
C2354 H2348 0.949 . S
C2354 C2358 1.368 . S
C2355 C2336 1.429 . S
C2355 C2349 1.429 . S
C2355 C2356 1.523 . S
C2356 C2337 1.368 . S
C2356 C2350 1.368 . S
C2356 C2355 1.523 . S
C2357 C2341 1.429 . S
C2357 C2353 1.429 . S
C2357 C2358 1.523 . S
C2358 C2342 1.368 . S
C2358 C2354 1.368 . S
C2358 C2357 1.523 . S
H2359 C2334 0.950 . S
H2360 C2336 0.950 . S
H2361 C2337 0.949 . S
H2362 C2339 0.950 . S
H2363 C2341 0.950 . S
C2364 C2365 1.349 . S
C2364 C2366 1.327 . S
C2364 H2389 0.950 . S
C2365 C2364 1.349 . S
C2365 C2381 1.349 1_556 S
C2366 C2364 1.327 . S
C2366 C2385 1.429 1_556 S
C2366 H2390 0.950 . S
C2367 C2384 1.574 . S
C2367 C2386 1.368 . S
C2367 H2391 0.949 . S
H2368 C2372 0.949 . S
C2369 C2370 1.349 . S
C2369 C2371 1.327 . S
C2369 H2392 0.950 . S
C2370 C2369 1.349 . S
C2370 C2382 1.349 . S
C2371 C2369 1.327 . S
C2371 C2387 1.429 . S
C2371 H2393 0.950 . S
C2372 H2368 0.949 . S
C2372 C2380 1.574 . S
C2372 C2388 1.368 . S
H2373 C2381 0.950 . S
H2374 C2379 0.950 . S
H2375 C2380 0.949 1_556 S
H2376 C2382 0.950 . S
H2377 C2383 0.950 . S
H2378 C2384 0.949 . S
C2379 H2374 0.950 . S
C2379 C2381 1.327 . S
C2379 C2385 1.429 . S
C2380 C2372 1.574 . S
C2380 H2375 0.949 1_554 S
C2380 C2386 1.368 . S
C2381 C2365 1.349 1_554 S
C2381 H2373 0.950 . S
C2381 C2379 1.327 . S
C2382 C2370 1.349 . S
C2382 H2376 0.950 . S
C2382 C2383 1.327 . S
C2383 H2377 0.950 . S
C2383 C2382 1.327 . S
C2383 C2387 1.429 . S
C2384 C2367 1.574 . S
C2384 H2378 0.949 . S
C2384 C2388 1.368 . S
C2385 C2366 1.429 1_554 S
C2385 C2379 1.429 . S
C2385 C2386 1.523 1_655 S
C2386 C2367 1.368 . S
C2386 C2380 1.368 . S
C2386 C2385 1.523 1_455 S
C2387 C2371 1.429 . S
C2387 C2383 1.429 . S
C2387 C2388 1.523 . S
C2388 C2372 1.368 . S
C2388 C2384 1.368 . S
C2388 C2387 1.523 . S
H2389 C2364 0.950 . S
H2390 C2366 0.950 . S
H2391 C2367 0.949 . S
H2392 C2369 0.950 . S
H2393 C2371 0.950 . S
C2394 C2395 1.349 . S
C2394 C2396 1.327 . S
C2394 H2419 0.950 . S
C2395 C2394 1.349 . S
C2395 C2411 1.349 . S
C2396 C2394 1.327 . S
C2396 C2415 1.429 . S
C2396 H2420 0.950 . S
C2397 C2414 1.574 . S
C2397 C2416 1.368 . S
C2397 H2421 0.949 . S
H2398 C2402 0.949 . S
C2399 C2400 1.349 . S
C2399 C2401 1.327 . S
C2399 H2422 0.950 . S
C2400 C2399 1.349 . S
C2400 C2412 1.349 . S
C2401 C2399 1.327 . S
C2401 C2417 1.429 . S
C2401 H2423 0.950 . S
C2402 H2398 0.949 . S
C2402 C2410 1.574 . S
C2402 C2418 1.368 . S
H2403 C2411 0.950 . S
H2404 C2409 0.950 . S
H2405 C2410 0.949 . S
H2406 C2412 0.950 . S
H2407 C2413 0.950 . S
H2408 C2414 0.949 . S
C2409 H2404 0.950 . S
C2409 C2411 1.327 . S
C2409 C2415 1.429 . S
C2410 C2402 1.574 . S
C2410 H2405 0.949 . S
C2410 C2416 1.368 . S
C2411 C2395 1.349 . S
C2411 H2403 0.950 . S
C2411 C2409 1.327 . S
C2412 C2400 1.349 . S
C2412 H2406 0.950 . S
C2412 C2413 1.327 . S
C2413 H2407 0.950 . S
C2413 C2412 1.327 . S
C2413 C2417 1.429 . S
C2414 C2397 1.574 . S
C2414 H2408 0.949 . S
C2414 C2418 1.368 . S
C2415 C2396 1.429 . S
C2415 C2409 1.429 . S
C2415 C2416 1.523 . S
C2416 C2397 1.368 . S
C2416 C2410 1.368 . S
C2416 C2415 1.523 . S
C2417 C2401 1.429 . S
C2417 C2413 1.429 . S
C2417 C2418 1.523 . S
C2418 C2402 1.368 . S
C2418 C2414 1.368 . S
C2418 C2417 1.523 . S
H2419 C2394 0.950 . S
H2420 C2396 0.950 . S
H2421 C2397 0.949 . S
H2422 C2399 0.950 . S
H2423 C2401 0.950 . S
C2424 C2425 1.349 1_554 S
C2424 C2426 1.327 . S
C2424 H2449 0.950 . S
C2425 C2424 1.349 1_556 S
C2425 C2441 1.349 . S
C2426 C2424 1.327 . S
C2426 C2445 1.429 . S
C2426 H2450 0.950 . S
C2427 C2444 1.574 1_556 S
C2427 C2446 1.368 1_556 S
C2427 H2451 0.949 . S
H2428 C2432 0.949 . S
C2429 C2430 1.349 . S
C2429 C2431 1.327 . S
C2429 H2452 0.950 . S
C2430 C2429 1.349 . S
C2430 C2442 1.349 . S
C2431 C2429 1.327 . S
C2431 C2447 1.429 . S
C2431 H2453 0.950 . S
C2432 H2428 0.949 . S
C2432 C2440 1.574 . S
C2432 C2448 1.368 . S
H2433 C2441 0.950 . S
H2434 C2439 0.976 . S
H2435 C2440 1.012 . S
H2436 C2442 0.950 . S
H2437 C2443 0.950 . S
H2438 C2444 0.924 1_556 S
C2439 H2434 0.976 . S
C2439 C2441 1.327 . S
C2439 C2445 1.429 1_556 S
C2440 C2432 1.574 . S
C2440 H2435 1.012 . S
C2440 C2446 1.368 . S
C2441 C2425 1.349 . S
C2441 H2433 0.950 . S
C2441 C2439 1.327 . S
C2442 C2430 1.349 . S
C2442 H2436 0.950 . S
C2442 C2443 1.327 . S
C2443 H2437 0.950 . S
C2443 C2442 1.327 . S
C2443 C2447 1.429 . S
C2444 C2427 1.574 1_554 S
C2444 H2438 0.924 1_554 S
C2444 C2448 1.368 . S
C2445 C2426 1.429 . S
C2445 C2439 1.429 1_554 S
C2445 C2446 1.523 1_455 S
C2446 C2427 1.368 1_554 S
C2446 C2440 1.368 . S
C2446 C2445 1.523 1_655 S
C2447 C2431 1.429 . S
C2447 C2443 1.429 . S
C2447 C2448 1.523 . S
C2448 C2432 1.368 . S
C2448 C2444 1.368 . S
C2448 C2447 1.523 . S
H2449 C2424 0.950 . S
H2450 C2426 0.950 . S
H2451 C2427 0.949 . S
H2452 C2429 0.950 . S
H2453 C2431 0.950 . S
C2454 C2455 1.349 . S
C2454 C2456 1.327 . S
C2454 H2479 0.950 . S
C2455 C2454 1.349 . S
C2455 C2471 1.349 . S
C2456 C2454 1.327 . S
C2456 C2475 1.429 . S
C2456 H2480 0.950 . S
C2457 C2474 1.574 . S
C2457 C2476 1.368 . S
C2457 H2481 0.949 . S
H2458 C2462 0.949 . S
C2459 C2460 1.349 . S
C2459 C2461 1.327 . S
C2459 H2482 0.950 . S
C2460 C2459 1.349 . S
C2460 C2472 1.349 . S
C2461 C2459 1.327 . S
C2461 C2477 1.429 . S
C2461 H2483 0.950 . S
C2462 H2458 0.949 . S
C2462 C2470 1.574 . S
C2462 C2478 1.368 . S
H2463 C2471 0.950 . S
H2464 C2469 0.950 . S
H2465 C2470 0.949 . S
H2466 C2472 0.950 . S
H2467 C2473 0.950 . S
H2468 C2474 0.949 . S
C2469 H2464 0.950 . S
C2469 C2471 1.327 . S
C2469 C2475 1.429 . S
C2470 C2462 1.574 . S
C2470 H2465 0.949 . S
C2470 C2476 1.368 . S
C2471 C2455 1.349 . S
C2471 H2463 0.950 . S
C2471 C2469 1.327 . S
C2472 C2460 1.349 . S
C2472 H2466 0.950 . S
C2472 C2473 1.327 . S
C2473 H2467 0.950 . S
C2473 C2472 1.327 . S
C2473 C2477 1.429 . S
C2474 C2457 1.574 . S
C2474 H2468 0.949 . S
C2474 C2478 1.368 . S
C2475 C2456 1.429 . S
C2475 C2469 1.429 . S
C2475 C2476 1.523 . S
C2476 C2457 1.368 . S
C2476 C2470 1.368 . S
C2476 C2475 1.523 . S
C2477 C2461 1.429 . S
C2477 C2473 1.429 . S
C2477 C2478 1.523 . S
C2478 C2462 1.368 . S
C2478 C2474 1.368 . S
C2478 C2477 1.523 . S
H2479 C2454 0.950 . S
H2480 C2456 0.950 . S
H2481 C2457 0.949 . S
H2482 C2459 0.950 . S
H2483 C2461 0.950 . S
C2484 C2485 1.349 . S
C2484 C2486 1.327 . S
C2484 H2509 0.950 . S
C2485 C2484 1.349 . S
C2485 C2501 1.349 . S
C2486 C2484 1.327 . S
C2486 C2505 1.429 . S
C2486 H2510 0.950 . S
C2487 C2504 1.574 . S
C2487 C2506 1.368 . S
C2487 H2511 0.949 . S
H2488 C2492 0.949 . S
C2489 C2490 1.349 . S
C2489 C2491 1.327 . S
C2489 H2512 0.950 . S
C2490 C2489 1.349 . S
C2490 C2502 1.349 . S
C2491 C2489 1.327 . S
C2491 C2507 1.429 . S
C2491 H2513 0.950 . S
C2492 H2488 0.949 . S
C2492 C2500 1.574 . S
C2492 C2508 1.368 . S
H2493 C2501 0.950 . S
H2494 C2499 0.950 1_455 S
H2495 C2500 0.949 1_655 S
H2496 C2502 0.950 . S
H2497 C2503 0.950 . S
H2498 C2504 0.949 . S
C2499 H2494 0.950 1_655 S
C2499 C2501 1.327 . S
C2499 C2505 1.429 . S
C2500 C2492 1.574 . S
C2500 H2495 0.949 1_455 S
C2500 C2506 1.368 . S
C2501 C2485 1.349 . S
C2501 H2493 0.950 . S
C2501 C2499 1.327 . S
C2502 C2490 1.349 . S
C2502 H2496 0.950 . S
C2502 C2503 1.327 . S
C2503 H2497 0.950 . S
C2503 C2502 1.327 . S
C2503 C2507 1.429 . S
C2504 C2487 1.574 . S
C2504 H2498 0.949 . S
C2504 C2508 1.368 . S
C2505 C2486 1.429 . S
C2505 C2499 1.429 . S
C2505 C2506 1.523 1_655 S
C2506 C2487 1.368 . S
C2506 C2500 1.368 . S
C2506 C2505 1.523 1_455 S
C2507 C2491 1.429 . S
C2507 C2503 1.429 . S
C2507 C2508 1.523 . S
C2508 C2492 1.368 . S
C2508 C2504 1.368 . S
C2508 C2507 1.523 . S
H2509 C2484 0.950 . S
H2510 C2486 0.950 . S
H2511 C2487 0.949 . S
H2512 C2489 0.950 . S
H2513 C2491 0.950 . S
C2514 C2515 1.349 . S
C2514 C2516 1.327 . S
C2514 H2539 0.950 . S
C2515 C2514 1.349 . S
C2515 C2531 1.349 . S
C2516 C2514 1.327 . S
C2516 C2535 1.429 . S
C2516 H2540 0.950 . S
C2517 C2534 1.574 . S
C2517 C2536 1.368 . S
C2517 H2541 0.949 . S
H2518 C2522 0.949 . S
C2519 C2520 1.349 . S
C2519 C2521 1.327 . S
C2519 H2542 0.950 . S
C2520 C2519 1.349 . S
C2520 C2532 1.295 1_554 S
C2521 C2519 1.327 . S
C2521 C2537 1.429 1_554 S
C2521 H2543 0.950 . S
C2522 H2518 0.949 . S
C2522 C2530 1.574 . S
C2522 C2538 1.368 . S
H2523 C2531 0.950 . S
H2524 C2529 0.950 . S
H2525 C2530 0.949 . S
H2526 C2532 0.977 . S
H2527 C2533 0.950 . S
H2528 C2534 0.949 1_554 S
C2529 H2524 0.950 . S
C2529 C2531 1.327 . S
C2529 C2535 1.429 . S
C2530 C2522 1.574 . S
C2530 H2525 0.949 . S
C2530 C2536 1.368 . S
C2531 C2515 1.349 . S
C2531 H2523 0.950 . S
C2531 C2529 1.327 . S
C2532 C2520 1.295 1_556 S
C2532 H2526 0.977 . S
C2532 C2533 1.360 . S
C2533 H2527 0.950 . S
C2533 C2532 1.360 . S
C2533 C2537 1.429 . S
C2534 C2517 1.574 . S
C2534 H2528 0.949 1_556 S
C2534 C2538 1.368 . S
C2535 C2516 1.429 . S
C2535 C2529 1.429 . S
C2535 C2536 1.523 . S
C2536 C2517 1.368 . S
C2536 C2530 1.368 . S
C2536 C2535 1.523 . S
C2537 C2521 1.429 1_556 S
C2537 C2533 1.429 . S
C2537 C2538 1.523 . S
C2538 C2522 1.368 . S
C2538 C2534 1.368 . S
C2538 C2537 1.523 . S
H2539 C2514 0.950 . S
H2540 C2516 0.950 . S
H2541 C2517 0.949 . S
H2542 C2519 0.950 . S
H2543 C2521 0.950 . S
C2544 C2545 1.349 . S
C2544 C2546 1.327 . S
C2544 H2569 0.950 . S
C2545 C2544 1.349 . S
C2545 C2561 1.349 . S
C2546 C2544 1.327 . S
C2546 C2565 1.429 . S
C2546 H2570 0.950 . S
C2547 C2564 1.574 . S
C2547 C2566 1.368 . S
C2547 H2571 0.949 . S
H2548 C2552 0.949 . S
C2549 C2550 1.349 . S
C2549 C2551 1.327 . S
C2549 H2572 0.950 . S
C2550 C2549 1.349 . S
C2550 C2562 1.349 . S
C2551 C2549 1.327 . S
C2551 C2567 1.429 . S
C2551 H2573 0.950 . S
C2552 H2548 0.949 . S
C2552 C2560 1.574 . S
C2552 C2568 1.368 . S
H2553 C2561 0.950 . S
H2554 C2559 0.950 . S
H2555 C2560 0.949 . S
H2556 C2562 0.950 . S
H2557 C2563 0.950 . S
H2558 C2564 0.949 . S
C2559 H2554 0.950 . S
C2559 C2561 1.327 . S
C2559 C2565 1.429 . S
C2560 C2552 1.574 . S
C2560 H2555 0.949 . S
C2560 C2566 1.368 . S
C2561 C2545 1.349 . S
C2561 H2553 0.950 . S
C2561 C2559 1.327 . S
C2562 C2550 1.349 . S
C2562 H2556 0.950 . S
C2562 C2563 1.327 . S
C2563 H2557 0.950 . S
C2563 C2562 1.327 . S
C2563 C2567 1.429 . S
C2564 C2547 1.574 . S
C2564 H2558 0.949 . S
C2564 C2568 1.368 . S
C2565 C2546 1.429 . S
C2565 C2559 1.429 . S
C2565 C2566 1.523 . S
C2566 C2547 1.368 . S
C2566 C2560 1.368 . S
C2566 C2565 1.523 . S
C2567 C2551 1.429 . S
C2567 C2563 1.429 . S
C2567 C2568 1.523 . S
C2568 C2552 1.368 . S
C2568 C2564 1.368 . S
C2568 C2567 1.523 . S
H2569 C2544 0.950 . S
H2570 C2546 0.950 . S
H2571 C2547 0.949 . S
H2572 C2549 0.950 . S
H2573 C2551 0.950 . S
C2574 C2575 1.349 . S
C2574 C2576 1.327 . S
C2574 H2599 0.950 . S
C2575 C2574 1.349 . S
C2575 C2591 1.349 . S
C2576 C2574 1.327 . S
C2576 C2595 1.429 . S
C2576 H2600 0.950 . S
C2577 C2594 1.574 . S
C2577 C2596 1.368 . S
C2577 H2601 0.949 . S
H2578 C2582 0.949 . S
C2579 C2580 1.349 . S
C2579 C2581 1.327 . S
C2579 H2602 0.950 . S
C2580 C2579 1.349 . S
C2580 C2592 1.349 . S
C2581 C2579 1.327 . S
C2581 C2597 1.429 . S
C2581 H2603 0.950 . S
C2582 H2578 0.949 . S
C2582 C2590 1.574 . S
C2582 C2598 1.368 . S
H2583 C2591 0.950 . S
H2584 C2589 0.950 . S
H2585 C2590 0.949 . S
H2586 C2592 0.950 . S
H2587 C2593 0.950 . S
H2588 C2594 0.949 . S
C2589 H2584 0.950 . S
C2589 C2591 1.327 . S
C2589 C2595 1.429 . S
C2590 C2582 1.574 . S
C2590 H2585 0.949 . S
C2590 C2596 1.368 . S
C2591 C2575 1.349 . S
C2591 H2583 0.950 . S
C2591 C2589 1.327 . S
C2592 C2580 1.349 . S
C2592 H2586 0.950 . S
C2592 C2593 1.327 . S
C2593 H2587 0.950 . S
C2593 C2592 1.327 . S
C2593 C2597 1.429 . S
C2594 C2577 1.574 . S
C2594 H2588 0.949 . S
C2594 C2598 1.368 . S
C2595 C2576 1.429 . S
C2595 C2589 1.429 . S
C2595 C2596 1.523 . S
C2596 C2577 1.368 . S
C2596 C2590 1.368 . S
C2596 C2595 1.523 . S
C2597 C2581 1.429 . S
C2597 C2593 1.429 . S
C2597 C2598 1.523 1_556 S
C2598 C2582 1.368 . S
C2598 C2594 1.368 . S
C2598 C2597 1.523 1_554 S
H2599 C2574 0.950 . S
H2600 C2576 0.950 . S
H2601 C2577 0.949 . S
H2602 C2579 0.950 . S
H2603 C2581 0.950 . S
C2604 C2605 1.349 . S
C2604 C2606 1.327 . S
C2604 H2629 0.950 . S
C2605 C2604 1.349 . S
C2605 C2621 1.349 . S
C2606 C2604 1.327 . S
C2606 C2625 1.429 . S
C2606 H2630 0.950 . S
C2607 C2624 1.574 . S
C2607 C2626 1.368 . S
C2607 H2631 0.949 . S
H2608 C2612 0.949 . S
C2609 C2610 1.349 . S
C2609 C2611 1.327 . S
C2609 H2632 0.950 . S
C2610 C2609 1.349 . S
C2610 C2622 1.349 . S
C2611 C2609 1.327 . S
C2611 C2627 1.429 . S
C2611 H2633 0.950 . S
C2612 H2608 0.949 . S
C2612 C2620 1.574 . S
C2612 C2628 1.368 . S
H2613 C2621 0.950 . S
H2614 C2619 0.950 . S
H2615 C2620 0.949 . S
H2616 C2622 0.950 . S
H2617 C2623 0.950 . S
H2618 C2624 0.949 . S
C2619 H2614 0.950 . S
C2619 C2621 1.327 . S
C2619 C2625 1.429 . S
C2620 C2612 1.574 . S
C2620 H2615 0.949 . S
C2620 C2626 1.368 . S
C2621 C2605 1.349 . S
C2621 H2613 0.950 . S
C2621 C2619 1.327 . S
C2622 C2610 1.349 . S
C2622 H2616 0.950 . S
C2622 C2623 1.327 . S
C2623 H2617 0.950 . S
C2623 C2622 1.327 . S
C2623 C2627 1.429 . S
C2624 C2607 1.574 . S
C2624 H2618 0.949 . S
C2624 C2628 1.368 . S
C2625 C2606 1.429 . S
C2625 C2619 1.429 . S
C2625 C2626 1.523 . S
C2626 C2607 1.368 . S
C2626 C2620 1.368 . S
C2626 C2625 1.523 . S
C2627 C2611 1.429 . S
C2627 C2623 1.429 . S
C2627 C2628 1.523 . S
C2628 C2612 1.368 . S
C2628 C2624 1.368 . S
C2628 C2627 1.523 . S
H2629 C2604 0.950 . S
H2630 C2606 0.950 . S
H2631 C2607 0.949 . S
H2632 C2609 0.950 . S
H2633 C2611 0.950 . S
C2634 C2635 1.349 . S
C2634 C2636 1.327 . S
C2634 H2659 0.950 . S
C2635 C2634 1.349 . S
C2635 C2651 1.349 . S
C2636 C2634 1.327 . S
C2636 C2655 1.429 . S
C2636 H2660 0.950 . S
C2637 C2654 1.574 . S
C2637 C2656 1.368 . S
C2637 H2661 0.949 . S
H2638 C2642 0.949 . S
C2639 C2640 1.349 . S
C2639 C2641 1.327 . S
C2639 H2662 0.950 . S
C2640 C2639 1.349 . S
C2640 C2652 1.349 . S
C2641 C2639 1.327 . S
C2641 C2657 1.429 . S
C2641 H2663 0.950 . S
C2642 H2638 0.949 . S
C2642 C2650 1.574 . S
C2642 C2658 1.368 . S
H2643 C2651 0.950 . S
H2644 C2649 0.950 . S
H2645 C2650 0.949 . S
H2646 C2652 0.950 . S
H2647 C2653 0.950 . S
H2648 C2654 0.949 . S
C2649 H2644 0.950 . S
C2649 C2651 1.327 . S
C2649 C2655 1.429 . S
C2650 C2642 1.574 . S
C2650 H2645 0.949 . S
C2650 C2656 1.368 . S
C2651 C2635 1.349 . S
C2651 H2643 0.950 . S
C2651 C2649 1.327 . S
C2652 C2640 1.349 . S
C2652 H2646 0.950 . S
C2652 C2653 1.327 . S
C2653 H2647 0.950 . S
C2653 C2652 1.327 . S
C2653 C2657 1.429 . S
C2654 C2637 1.574 . S
C2654 H2648 0.949 . S
C2654 C2658 1.368 . S
C2655 C2636 1.429 . S
C2655 C2649 1.429 . S
C2655 C2656 1.523 . S
C2656 C2637 1.368 . S
C2656 C2650 1.368 . S
C2656 C2655 1.523 . S
C2657 C2641 1.429 . S
C2657 C2653 1.429 . S
C2657 C2658 1.523 . S
C2658 C2642 1.368 . S
C2658 C2654 1.368 . S
C2658 C2657 1.523 . S
H2659 C2634 0.950 . S
H2660 C2636 0.950 . S
H2661 C2637 0.949 . S
H2662 C2639 0.950 . S
H2663 C2641 0.950 . S
C2664 C2665 1.349 . S
C2664 C2666 1.327 . S
C2664 H2689 0.950 . S
C2665 C2664 1.349 . S
C2665 C2681 1.349 . S
C2666 C2664 1.327 . S
C2666 C2685 1.429 . S
C2666 H2690 0.950 . S
C2667 C2684 1.574 . S
C2667 C2686 1.368 . S
C2667 H2691 0.949 . S
H2668 C2672 0.949 . S
C2669 C2670 1.349 . S
C2669 C2671 1.327 . S
C2669 H2692 0.950 . S
C2670 C2669 1.349 . S
C2670 C2682 1.349 . S
C2671 C2669 1.327 . S
C2671 C2687 1.429 . S
C2671 H2693 0.950 . S
C2672 H2668 0.949 . S
C2672 C2680 1.574 . S
C2672 C2688 1.368 . S
H2673 C2681 0.950 . S
H2674 C2679 0.950 . S
H2675 C2680 0.949 . S
H2676 C2682 0.950 . S
H2677 C2683 0.950 . S
H2678 C2684 0.949 . S
C2679 H2674 0.950 . S
C2679 C2681 1.327 . S
C2679 C2685 1.429 . S
C2680 C2672 1.574 . S
C2680 H2675 0.949 . S
C2680 C2686 1.368 . S
C2681 C2665 1.349 . S
C2681 H2673 0.950 . S
C2681 C2679 1.327 . S
C2682 C2670 1.349 . S
C2682 H2676 0.950 . S
C2682 C2683 1.327 . S
C2683 H2677 0.950 . S
C2683 C2682 1.327 . S
C2683 C2687 1.429 . S
C2684 C2667 1.574 . S
C2684 H2678 0.949 . S
C2684 C2688 1.368 . S
C2685 C2666 1.429 . S
C2685 C2679 1.429 . S
C2685 C2686 1.523 . S
C2686 C2667 1.368 . S
C2686 C2680 1.368 . S
C2686 C2685 1.523 . S
C2687 C2671 1.429 . S
C2687 C2683 1.429 . S
C2687 C2688 1.523 . S
C2688 C2672 1.368 . S
C2688 C2684 1.368 . S
C2688 C2687 1.523 . S
H2689 C2664 0.950 . S
H2690 C2666 0.950 . S
H2691 C2667 0.949 . S
H2692 C2669 0.950 . S
H2693 C2671 0.950 . S
C2694 C2695 1.349 . S
C2694 C2696 1.327 . S
C2694 H2719 0.950 . S
C2695 C2694 1.349 . S
C2695 C2711 1.349 . S
C2696 C2694 1.327 . S
C2696 C2715 1.429 . S
C2696 H2720 0.950 . S
C2697 C2714 1.574 . S
C2697 C2716 1.368 . S
C2697 H2721 0.949 . S
H2698 C2702 0.949 . S
C2699 C2700 1.349 . S
C2699 C2701 1.327 . S
C2699 H2722 0.950 . S
C2700 C2699 1.349 . S
C2700 C2712 1.349 . S
C2701 C2699 1.327 . S
C2701 C2717 1.429 . S
C2701 H2723 0.950 . S
C2702 H2698 0.949 . S
C2702 C2710 1.574 . S
C2702 C2718 1.368 . S
H2703 C2711 0.950 . S
H2704 C2709 0.950 . S
H2705 C2710 0.949 . S
H2706 C2712 0.950 . S
H2707 C2713 0.950 . S
H2708 C2714 0.949 . S
C2709 H2704 0.950 . S
C2709 C2711 1.327 . S
C2709 C2715 1.429 . S
C2710 C2702 1.574 . S
C2710 H2705 0.949 . S
C2710 C2716 1.368 . S
C2711 C2695 1.349 . S
C2711 H2703 0.950 . S
C2711 C2709 1.327 . S
C2712 C2700 1.349 . S
C2712 H2706 0.950 . S
C2712 C2713 1.327 . S
C2713 H2707 0.950 . S
C2713 C2712 1.327 . S
C2713 C2717 1.429 . S
C2714 C2697 1.574 . S
C2714 H2708 0.949 . S
C2714 C2718 1.368 . S
C2715 C2696 1.429 . S
C2715 C2709 1.429 . S
C2715 C2716 1.523 . S
C2716 C2697 1.368 . S
C2716 C2710 1.368 . S
C2716 C2715 1.523 . S
C2717 C2701 1.429 . S
C2717 C2713 1.429 . S
C2717 C2718 1.523 1_554 S
C2718 C2702 1.368 . S
C2718 C2714 1.368 . S
C2718 C2717 1.523 1_556 S
H2719 C2694 0.950 . S
H2720 C2696 0.950 . S
H2721 C2697 0.949 . S
H2722 C2699 0.950 . S
H2723 C2701 0.950 . S
C2724 C2725 1.349 . S
C2724 C2726 1.327 . S
C2724 H2749 0.950 . S
C2725 C2724 1.349 . S
C2725 C2741 1.349 . S
C2726 C2724 1.327 . S
C2726 C2745 1.429 . S
C2726 H2750 0.950 . S
C2727 C2744 1.574 . S
C2727 C2746 1.368 . S
C2727 H2751 0.949 . S
H2728 C2732 0.949 . S
C2729 C2730 1.349 . S
C2729 C2731 1.327 . S
C2729 H2752 0.950 . S
C2730 C2729 1.349 . S
C2730 C2742 1.349 . S
C2731 C2729 1.327 . S
C2731 C2747 1.429 . S
C2731 H2753 0.950 . S
C2732 H2728 0.949 . S
C2732 C2740 1.574 . S
C2732 C2748 1.368 . S
H2733 C2741 0.950 . S
H2734 C2739 0.950 . S
H2735 C2740 0.949 . S
H2736 C2742 0.950 . S
H2737 C2743 0.950 . S
H2738 C2744 0.949 . S
C2739 H2734 0.950 . S
C2739 C2741 1.327 . S
C2739 C2745 1.429 . S
C2740 C2732 1.574 . S
C2740 H2735 0.949 . S
C2740 C2746 1.368 . S
C2741 C2725 1.349 . S
C2741 H2733 0.950 . S
C2741 C2739 1.327 . S
C2742 C2730 1.349 . S
C2742 H2736 0.950 . S
C2742 C2743 1.327 . S
C2743 H2737 0.950 . S
C2743 C2742 1.327 . S
C2743 C2747 1.429 . S
C2744 C2727 1.574 . S
C2744 H2738 0.949 . S
C2744 C2748 1.368 . S
C2745 C2726 1.429 . S
C2745 C2739 1.429 . S
C2745 C2746 1.523 . S
C2746 C2727 1.368 . S
C2746 C2740 1.368 . S
C2746 C2745 1.523 . S
C2747 C2731 1.429 . S
C2747 C2743 1.429 . S
C2747 C2748 1.523 . S
C2748 C2732 1.368 . S
C2748 C2744 1.368 . S
C2748 C2747 1.523 . S
H2749 C2724 0.950 . S
H2750 C2726 0.950 . S
H2751 C2727 0.949 . S
H2752 C2729 0.950 . S
H2753 C2731 0.950 . S
C2754 C2755 1.349 . S
C2754 C2756 1.327 . S
C2754 H2779 0.950 . S
C2755 C2754 1.349 . S
C2755 C2771 1.349 . S
C2756 C2754 1.327 . S
C2756 C2775 1.429 . S
C2756 H2780 0.950 . S
C2757 C2774 1.574 . S
C2757 C2776 1.368 . S
C2757 H2781 0.949 . S
H2758 C2762 0.949 . S
C2759 C2760 1.349 . S
C2759 C2761 1.327 . S
C2759 H2782 0.950 . S
C2760 C2759 1.349 . S
C2760 C2772 1.349 . S
C2761 C2759 1.327 . S
C2761 C2777 1.429 . S
C2761 H2783 0.950 . S
C2762 H2758 0.949 . S
C2762 C2770 1.574 . S
C2762 C2778 1.368 . S
H2763 C2771 0.950 . S
H2764 C2769 0.950 . S
H2765 C2770 0.949 . S
H2766 C2772 0.950 . S
H2767 C2773 0.950 . S
H2768 C2774 0.949 . S
C2769 H2764 0.950 . S
C2769 C2771 1.327 . S
C2769 C2775 1.429 . S
C2770 C2762 1.574 . S
C2770 H2765 0.949 . S
C2770 C2776 1.368 . S
C2771 C2755 1.349 . S
C2771 H2763 0.950 . S
C2771 C2769 1.327 . S
C2772 C2760 1.349 . S
C2772 H2766 0.950 . S
C2772 C2773 1.327 . S
C2773 H2767 0.950 . S
C2773 C2772 1.327 . S
C2773 C2777 1.429 . S
C2774 C2757 1.574 . S
C2774 H2768 0.949 . S
C2774 C2778 1.368 . S
C2775 C2756 1.429 . S
C2775 C2769 1.429 . S
C2775 C2776 1.523 . S
C2776 C2757 1.368 . S
C2776 C2770 1.368 . S
C2776 C2775 1.523 . S
C2777 C2761 1.429 . S
C2777 C2773 1.429 . S
C2777 C2778 1.523 . S
C2778 C2762 1.368 . S
C2778 C2774 1.368 . S
C2778 C2777 1.523 . S
H2779 C2754 0.950 . S
H2780 C2756 0.950 . S
H2781 C2757 0.949 . S
H2782 C2759 0.950 . S
H2783 C2761 0.950 . S
C2784 C2785 1.349 . S
C2784 C2786 1.327 . S
C2784 H2809 0.950 . S
C2785 C2784 1.349 . S
C2785 C2801 1.349 . S
C2786 C2784 1.327 . S
C2786 C2805 1.429 . S
C2786 H2810 0.950 . S
C2787 C2804 1.574 . S
C2787 C2806 1.368 . S
C2787 H2811 0.949 . S
H2788 C2792 0.949 . S
C2789 C2790 1.349 . S
C2789 C2791 1.327 . S
C2789 H2812 0.950 . S
C2790 C2789 1.349 . S
C2790 C2802 1.349 . S
C2791 C2789 1.327 . S
C2791 C2807 1.429 . S
C2791 H2813 0.950 . S
C2792 H2788 0.949 . S
C2792 C2800 1.574 . S
C2792 C2808 1.368 . S
H2793 C2801 0.950 . S
H2794 C2799 0.950 . S
H2795 C2800 0.949 . S
H2796 C2802 0.950 . S
H2797 C2803 0.950 . S
H2798 C2804 0.949 . S
C2799 H2794 0.950 . S
C2799 C2801 1.327 . S
C2799 C2805 1.429 . S
C2800 C2792 1.574 . S
C2800 H2795 0.949 . S
C2800 C2806 1.368 . S
C2801 C2785 1.349 . S
C2801 H2793 0.950 . S
C2801 C2799 1.327 . S
C2802 C2790 1.349 . S
C2802 H2796 0.950 . S
C2802 C2803 1.327 . S
C2803 H2797 0.950 . S
C2803 C2802 1.327 . S
C2803 C2807 1.429 . S
C2804 C2787 1.574 . S
C2804 H2798 0.949 . S
C2804 C2808 1.368 . S
C2805 C2786 1.429 . S
C2805 C2799 1.429 . S
C2805 C2806 1.523 . S
C2806 C2787 1.368 . S
C2806 C2800 1.368 . S
C2806 C2805 1.523 . S
C2807 C2791 1.429 . S
C2807 C2803 1.429 . S
C2807 C2808 1.523 . S
C2808 C2792 1.368 . S
C2808 C2804 1.368 . S
C2808 C2807 1.523 . S
H2809 C2784 0.950 . S
H2810 C2786 0.950 . S
H2811 C2787 0.949 . S
H2812 C2789 0.950 . S
H2813 C2791 0.950 . S
C2814 C2815 1.349 . S
C2814 C2816 1.327 . S
C2814 H2839 0.950 . S
C2815 C2814 1.349 . S
C2815 C2831 1.349 . S
C2816 C2814 1.327 . S
C2816 C2835 1.429 . S
C2816 H2840 0.950 . S
C2817 C2834 1.574 . S
C2817 C2836 1.368 . S
C2817 H2841 0.949 . S
H2818 C2822 0.949 . S
C2819 C2820 1.349 . S
C2819 C2821 1.327 . S
C2819 H2842 0.950 . S
C2820 C2819 1.349 . S
C2820 C2832 1.349 . S
C2821 C2819 1.327 . S
C2821 C2837 1.429 . S
C2821 H2843 0.950 . S
C2822 H2818 0.949 . S
C2822 C2830 1.574 . S
C2822 C2838 1.368 . S
H2823 C2831 0.950 . S
H2824 C2829 0.950 . S
H2825 C2830 0.949 . S
H2826 C2832 0.950 . S
H2827 C2833 0.950 . S
H2828 C2834 0.949 . S
C2829 H2824 0.950 . S
C2829 C2831 1.327 . S
C2829 C2835 1.429 . S
C2830 C2822 1.574 . S
C2830 H2825 0.949 . S
C2830 C2836 1.368 . S
C2831 C2815 1.349 . S
C2831 H2823 0.950 . S
C2831 C2829 1.327 . S
C2832 C2820 1.349 . S
C2832 H2826 0.950 . S
C2832 C2833 1.327 . S
C2833 H2827 0.950 . S
C2833 C2832 1.327 . S
C2833 C2837 1.429 . S
C2834 C2817 1.574 . S
C2834 H2828 0.949 . S
C2834 C2838 1.368 . S
C2835 C2816 1.429 . S
C2835 C2829 1.429 . S
C2835 C2836 1.523 . S
C2836 C2817 1.368 . S
C2836 C2830 1.368 . S
C2836 C2835 1.523 . S
C2837 C2821 1.429 . S
C2837 C2833 1.429 . S
C2837 C2838 1.523 . S
C2838 C2822 1.368 . S
C2838 C2834 1.368 . S
C2838 C2837 1.523 . S
H2839 C2814 0.950 . S
H2840 C2816 0.950 . S
H2841 C2817 0.949 . S
H2842 C2819 0.950 . S
H2843 C2821 0.950 . S
C2844 C2845 1.349 . S
C2844 C2846 1.327 . S
C2844 H2869 0.950 . S
C2845 C2844 1.349 . S
C2845 C2861 1.349 . S
C2846 C2844 1.327 . S
C2846 C2865 1.429 . S
C2846 H2870 0.950 . S
C2847 C2864 1.574 . S
C2847 C2866 1.368 . S
C2847 H2871 0.949 . S
H2848 C2852 0.949 . S
C2849 C2850 1.349 . S
C2849 C2851 1.327 . S
C2849 H2872 0.950 . S
C2850 C2849 1.349 . S
C2850 C2862 1.349 . S
C2851 C2849 1.327 . S
C2851 C2867 1.429 . S
C2851 H2873 0.950 . S
C2852 H2848 0.949 . S
C2852 C2860 1.574 . S
C2852 C2868 1.368 . S
H2853 C2861 0.950 . S
H2854 C2859 0.950 . S
H2855 C2860 0.949 . S
H2856 C2862 0.950 . S
H2857 C2863 0.950 . S
H2858 C2864 0.949 . S
C2859 H2854 0.950 . S
C2859 C2861 1.327 . S
C2859 C2865 1.429 . S
C2860 C2852 1.574 . S
C2860 H2855 0.949 . S
C2860 C2866 1.368 . S
C2861 C2845 1.349 . S
C2861 H2853 0.950 . S
C2861 C2859 1.327 . S
C2862 C2850 1.349 . S
C2862 H2856 0.950 . S
C2862 C2863 1.327 . S
C2863 H2857 0.950 . S
C2863 C2862 1.327 . S
C2863 C2867 1.429 . S
C2864 C2847 1.574 . S
C2864 H2858 0.949 . S
C2864 C2868 1.368 . S
C2865 C2846 1.429 . S
C2865 C2859 1.429 . S
C2865 C2866 1.523 . S
C2866 C2847 1.368 . S
C2866 C2860 1.368 . S
C2866 C2865 1.523 . S
C2867 C2851 1.429 . S
C2867 C2863 1.429 . S
C2867 C2868 1.523 . S
C2868 C2852 1.368 . S
C2868 C2864 1.368 . S
C2868 C2867 1.523 . S
H2869 C2844 0.950 . S
H2870 C2846 0.950 . S
H2871 C2847 0.949 . S
H2872 C2849 0.950 . S
H2873 C2851 0.950 . S
C2874 C2875 1.349 1_655 S
C2874 C2876 1.327 . S
C2874 H2899 0.950 . S
C2875 C2874 1.349 1_455 S
C2875 C2891 1.349 . S
C2876 C2874 1.327 . S
C2876 C2895 1.429 . S
C2876 H2900 0.950 . S
C2877 C2894 1.576 . S
C2877 C2896 1.372 . S
C2877 H2901 0.944 1_655 S
H2878 C2882 0.949 . S
C2879 C2880 1.349 . S
C2879 C2881 1.327 . S
C2879 H2902 0.950 . S
C2880 C2879 1.349 . S
C2880 C2892 1.349 . S
C2881 C2879 1.327 . S
C2881 C2897 1.429 . S
C2881 H2903 0.950 . S
C2882 H2878 0.949 . S
C2882 C2890 1.574 . S
C2882 C2898 1.368 . S
H2883 C2891 0.950 . S
H2884 C2889 0.950 . S
H2885 C2890 0.949 . S
H2886 C2892 0.950 . S
H2887 C2893 0.950 . S
H2888 C2894 0.949 . S
C2889 H2884 0.950 . S
C2889 C2891 1.327 . S
C2889 C2895 1.429 1_455 S
C2890 C2882 1.574 . S
C2890 H2885 0.949 . S
C2890 C2896 1.368 . S
C2891 C2875 1.349 . S
C2891 H2883 0.950 . S
C2891 C2889 1.327 . S
C2892 C2880 1.349 . S
C2892 H2886 0.950 . S
C2892 C2893 1.327 . S
C2893 H2887 0.950 . S
C2893 C2892 1.327 . S
C2893 C2897 1.429 . S
C2894 C2877 1.576 . S
C2894 H2888 0.949 . S
C2894 C2898 1.368 . S
C2895 C2876 1.429 . S
C2895 C2889 1.429 1_655 S
C2895 C2896 1.523 . S
C2896 C2877 1.372 . S
C2896 C2890 1.368 . S
C2896 C2895 1.523 . S
C2897 C2881 1.429 . S
C2897 C2893 1.429 . S
C2897 C2898 1.523 . S
C2898 C2882 1.368 . S
C2898 C2894 1.368 . S
C2898 C2897 1.523 . S
H2899 C2874 0.950 . S
H2900 C2876 0.950 . S
H2901 C2877 0.944 1_455 S
H2902 C2879 0.950 . S
H2903 C2881 0.950 . S
C2904 C2905 1.349 . S
C2904 C2906 1.327 . S
C2904 H2929 0.950 . S
C2905 C2904 1.349 . S
C2905 C2921 1.349 . S
C2906 C2904 1.327 . S
C2906 C2925 1.429 . S
C2906 H2930 0.950 . S
C2907 C2924 1.574 . S
C2907 C2926 1.368 . S
C2907 H2931 0.949 . S
H2908 C2912 0.949 . S
C2909 C2910 1.349 . S
C2909 C2911 1.327 . S
C2909 H2932 0.950 . S
C2910 C2909 1.349 . S
C2910 C2922 1.349 . S
C2911 C2909 1.327 . S
C2911 C2927 1.429 . S
C2911 H2933 0.950 . S
C2912 H2908 0.949 . S
C2912 C2920 1.574 . S
C2912 C2928 1.368 . S
H2913 C2921 0.950 . S
H2914 C2919 0.950 . S
H2915 C2920 0.949 . S
H2916 C2922 0.950 . S
H2917 C2923 0.950 . S
H2918 C2924 0.949 . S
C2919 H2914 0.950 . S
C2919 C2921 1.327 . S
C2919 C2925 1.429 . S
C2920 C2912 1.574 . S
C2920 H2915 0.949 . S
C2920 C2926 1.368 . S
C2921 C2905 1.349 . S
C2921 H2913 0.950 . S
C2921 C2919 1.327 . S
C2922 C2910 1.349 . S
C2922 H2916 0.950 . S
C2922 C2923 1.327 . S
C2923 H2917 0.950 . S
C2923 C2922 1.327 . S
C2923 C2927 1.429 . S
C2924 C2907 1.574 . S
C2924 H2918 0.949 . S
C2924 C2928 1.368 . S
C2925 C2906 1.429 . S
C2925 C2919 1.429 . S
C2925 C2926 1.523 . S
C2926 C2907 1.368 . S
C2926 C2920 1.368 . S
C2926 C2925 1.523 . S
C2927 C2911 1.429 . S
C2927 C2923 1.429 . S
C2927 C2928 1.523 . S
C2928 C2912 1.368 . S
C2928 C2924 1.368 . S
C2928 C2927 1.523 . S
H2929 C2904 0.950 . S
H2930 C2906 0.950 . S
H2931 C2907 0.949 . S
H2932 C2909 0.950 . S
H2933 C2911 0.950 . S
C2934 C2935 1.349 . S
C2934 C2936 1.327 . S
C2934 H2959 0.950 . S
C2935 C2934 1.349 . S
C2935 C2951 1.349 . S
C2936 C2934 1.327 . S
C2936 C2955 1.429 . S
C2936 H2960 0.950 . S
C2937 C2954 1.574 . S
C2937 C2956 1.368 . S
C2937 H2961 0.949 . S
H2938 C2942 0.949 . S
C2939 C2940 1.349 . S
C2939 C2941 1.327 . S
C2939 H2962 0.950 . S
C2940 C2939 1.349 . S
C2940 C2952 1.349 1_455 S
C2941 C2939 1.327 . S
C2941 C2957 1.429 1_455 S
C2941 H2963 0.950 . S
C2942 H2938 0.949 . S
C2942 C2950 1.574 . S
C2942 C2958 1.368 . S
H2943 C2951 0.950 . S
H2944 C2949 0.950 . S
H2945 C2950 0.949 . S
H2946 C2952 0.950 . S
H2947 C2953 0.950 . S
H2948 C2954 0.949 1_455 S
C2949 H2944 0.950 . S
C2949 C2951 1.327 . S
C2949 C2955 1.429 . S
C2950 C2942 1.574 . S
C2950 H2945 0.949 . S
C2950 C2956 1.368 . S
C2951 C2935 1.349 . S
C2951 H2943 0.950 . S
C2951 C2949 1.327 . S
C2952 C2940 1.349 1_655 S
C2952 H2946 0.950 . S
C2952 C2953 1.327 . S
C2953 H2947 0.950 . S
C2953 C2952 1.327 . S
C2953 C2957 1.429 . S
C2954 C2937 1.574 . S
C2954 H2948 0.949 1_655 S
C2954 C2958 1.368 . S
C2955 C2936 1.429 . S
C2955 C2949 1.429 . S
C2955 C2956 1.523 . S
C2956 C2937 1.368 . S
C2956 C2950 1.368 . S
C2956 C2955 1.523 . S
C2957 C2941 1.429 1_655 S
C2957 C2953 1.429 . S
C2957 C2958 1.523 . S
C2958 C2942 1.368 . S
C2958 C2954 1.368 . S
C2958 C2957 1.523 . S
H2959 C2934 0.950 . S
H2960 C2936 0.950 . S
H2961 C2937 0.949 . S
H2962 C2939 0.950 . S
H2963 C2941 0.950 . S
C2964 C2965 1.349 . S
C2964 C2966 1.327 . S
C2964 H2989 0.950 . S
C2965 C2964 1.349 . S
C2965 C2981 1.349 . S
C2966 C2964 1.327 . S
C2966 C2985 1.429 . S
C2966 H2990 0.950 . S
C2967 C2984 1.574 . S
C2967 C2986 1.368 . S
C2967 H2991 0.949 . S
H2968 C2972 0.949 . S
C2969 C2970 1.349 . S
C2969 C2971 1.327 . S
C2969 H2992 0.950 . S
C2970 C2969 1.349 . S
C2970 C2982 1.349 . S
C2971 C2969 1.327 . S
C2971 C2987 1.429 . S
C2971 H2993 0.950 . S
C2972 H2968 0.949 . S
C2972 C2980 1.574 . S
C2972 C2988 1.368 . S
H2973 C2981 0.950 . S
H2974 C2979 0.950 . S
H2975 C2980 0.949 . S
H2976 C2982 0.950 . S
H2977 C2983 0.950 . S
H2978 C2984 0.949 . S
C2979 H2974 0.950 . S
C2979 C2981 1.327 . S
C2979 C2985 1.429 . S
C2980 C2972 1.574 . S
C2980 H2975 0.949 . S
C2980 C2986 1.368 . S
C2981 C2965 1.349 . S
C2981 H2973 0.950 . S
C2981 C2979 1.327 . S
C2982 C2970 1.349 . S
C2982 H2976 0.950 . S
C2982 C2983 1.327 . S
C2983 H2977 0.950 . S
C2983 C2982 1.327 . S
C2983 C2987 1.429 . S
C2984 C2967 1.574 . S
C2984 H2978 0.949 . S
C2984 C2988 1.368 . S
C2985 C2966 1.429 . S
C2985 C2979 1.429 . S
C2985 C2986 1.523 . S
C2986 C2967 1.368 . S
C2986 C2980 1.368 . S
C2986 C2985 1.523 . S
C2987 C2971 1.429 . S
C2987 C2983 1.429 . S
C2987 C2988 1.523 . S
C2988 C2972 1.368 . S
C2988 C2984 1.368 . S
C2988 C2987 1.523 . S
H2989 C2964 0.950 . S
H2990 C2966 0.950 . S
H2991 C2967 0.949 . S
H2992 C2969 0.950 . S
H2993 C2971 0.950 . S
C2994 C2995 1.349 . S
C2994 C2996 1.327 . S
C2994 H3019 0.950 . S
C2995 C2994 1.349 . S
C2995 C3011 1.349 . S
C2996 C2994 1.327 . S
C2996 C3015 1.429 . S
C2996 H3020 0.950 . S
C2997 C3014 1.574 . S
C2997 C3016 1.368 . S
C2997 H3021 0.949 . S
H2998 C3002 0.949 . S
C2999 C3000 1.349 . S
C2999 C3001 1.327 . S
C2999 H3022 0.950 . S
C3000 C2999 1.349 . S
C3000 C3012 1.349 . S
C3001 C2999 1.327 . S
C3001 C3017 1.429 . S
C3001 H3023 0.950 . S
C3002 H2998 0.949 . S
C3002 C3010 1.574 . S
C3002 C3018 1.368 . S
H3003 C3011 0.950 . S
H3004 C3009 0.950 . S
H3005 C3010 0.949 . S
H3006 C3012 0.950 . S
H3007 C3013 0.950 . S
H3008 C3014 0.949 . S
C3009 H3004 0.950 . S
C3009 C3011 1.327 . S
C3009 C3015 1.429 . S
C3010 C3002 1.574 . S
C3010 H3005 0.949 . S
C3010 C3016 1.368 . S
C3011 C2995 1.349 . S
C3011 H3003 0.950 . S
C3011 C3009 1.327 . S
C3012 C3000 1.349 . S
C3012 H3006 0.950 . S
C3012 C3013 1.327 . S
C3013 H3007 0.950 . S
C3013 C3012 1.327 . S
C3013 C3017 1.429 . S
C3014 C2997 1.574 . S
C3014 H3008 0.949 . S
C3014 C3018 1.368 . S
C3015 C2996 1.429 . S
C3015 C3009 1.429 . S
C3015 C3016 1.523 . S
C3016 C2997 1.368 . S
C3016 C3010 1.368 . S
C3016 C3015 1.523 . S
C3017 C3001 1.429 . S
C3017 C3013 1.429 . S
C3017 C3018 1.523 . S
C3018 C3002 1.368 . S
C3018 C3014 1.368 . S
C3018 C3017 1.523 . S
H3019 C2994 0.950 . S
H3020 C2996 0.950 . S
H3021 C2997 0.949 . S
H3022 C2999 0.950 . S
H3023 C3001 0.950 . S
C3024 C3025 1.349 . S
C3024 C3026 1.327 . S
C3024 H3049 0.950 . S
C3025 C3024 1.349 . S
C3025 C3041 1.349 . S
C3026 C3024 1.327 . S
C3026 C3045 1.429 . S
C3026 H3050 0.950 . S
C3027 C3044 1.574 . S
C3027 C3046 1.368 . S
C3027 H3051 0.949 . S
H3028 C3032 0.949 . S
C3029 C3030 1.349 . S
C3029 C3031 1.327 . S
C3029 H3052 0.950 . S
C3030 C3029 1.349 . S
C3030 C3042 1.349 . S
C3031 C3029 1.327 . S
C3031 C3047 1.429 . S
C3031 H3053 0.950 . S
C3032 H3028 0.949 . S
C3032 C3040 1.574 . S
C3032 C3048 1.368 . S
H3033 C3041 0.950 . S
H3034 C3039 0.950 . S
H3035 C3040 0.949 . S
H3036 C3042 0.950 . S
H3037 C3043 0.950 . S
H3038 C3044 0.949 . S
C3039 H3034 0.950 . S
C3039 C3041 1.327 . S
C3039 C3045 1.429 . S
C3040 C3032 1.574 . S
C3040 H3035 0.949 . S
C3040 C3046 1.368 . S
C3041 C3025 1.349 . S
C3041 H3033 0.950 . S
C3041 C3039 1.327 . S
C3042 C3030 1.349 . S
C3042 H3036 0.950 . S
C3042 C3043 1.327 . S
C3043 H3037 0.950 . S
C3043 C3042 1.327 . S
C3043 C3047 1.429 . S
C3044 C3027 1.574 . S
C3044 H3038 0.949 . S
C3044 C3048 1.368 . S
C3045 C3026 1.429 . S
C3045 C3039 1.429 . S
C3045 C3046 1.523 . S
C3046 C3027 1.368 . S
C3046 C3040 1.368 . S
C3046 C3045 1.523 . S
C3047 C3031 1.429 . S
C3047 C3043 1.429 . S
C3047 C3048 1.523 . S
C3048 C3032 1.368 . S
C3048 C3044 1.368 . S
C3048 C3047 1.523 . S
H3049 C3024 0.950 . S
H3050 C3026 0.950 . S
H3051 C3027 0.949 . S
H3052 C3029 0.950 . S
H3053 C3031 0.950 . S
C3054 C3055 1.349 . S
C3054 C3056 1.327 . S
C3054 H3079 0.950 . S
C3055 C3054 1.349 . S
C3055 C3071 1.349 . S
C3056 C3054 1.327 . S
C3056 C3075 1.429 . S
C3056 H3080 0.950 . S
C3057 C3074 1.574 . S
C3057 C3076 1.368 . S
C3057 H3081 0.949 . S
H3058 C3062 0.949 . S
C3059 C3060 1.349 . S
C3059 C3061 1.327 . S
C3059 H3082 0.950 . S
C3060 C3059 1.349 . S
C3060 C3072 1.349 . S
C3061 C3059 1.327 . S
C3061 C3077 1.429 . S
C3061 H3083 0.950 . S
C3062 H3058 0.949 . S
C3062 C3070 1.574 . S
C3062 C3078 1.368 . S
H3063 C3071 0.950 . S
H3064 C3069 0.950 . S
H3065 C3070 0.949 . S
H3066 C3072 0.950 . S
H3067 C3073 0.950 . S
H3068 C3074 0.949 . S
C3069 H3064 0.950 . S
C3069 C3071 1.327 . S
C3069 C3075 1.429 . S
C3070 C3062 1.574 . S
C3070 H3065 0.949 . S
C3070 C3076 1.368 . S
C3071 C3055 1.349 . S
C3071 H3063 0.950 . S
C3071 C3069 1.327 . S
C3072 C3060 1.349 . S
C3072 H3066 0.950 . S
C3072 C3073 1.327 . S
C3073 H3067 0.950 . S
C3073 C3072 1.327 . S
C3073 C3077 1.429 . S
C3074 C3057 1.574 . S
C3074 H3068 0.949 . S
C3074 C3078 1.368 . S
C3075 C3056 1.429 . S
C3075 C3069 1.429 . S
C3075 C3076 1.523 . S
C3076 C3057 1.368 . S
C3076 C3070 1.368 . S
C3076 C3075 1.523 . S
C3077 C3061 1.429 . S
C3077 C3073 1.429 . S
C3077 C3078 1.523 . S
C3078 C3062 1.368 . S
C3078 C3074 1.368 . S
C3078 C3077 1.523 . S
H3079 C3054 0.950 . S
H3080 C3056 0.950 . S
H3081 C3057 0.949 . S
H3082 C3059 0.950 . S
H3083 C3061 0.950 . S
C3084 C3085 1.349 . S
C3084 C3086 1.327 . S
C3084 H3109 0.950 . S
C3085 C3084 1.349 . S
C3085 C3101 1.349 . S
C3086 C3084 1.327 . S
C3086 C3105 1.429 . S
C3086 H3110 0.950 . S
C3087 C3104 1.574 . S
C3087 C3106 1.368 . S
C3087 H3111 0.949 . S
H3088 C3092 0.949 . S
C3089 C3090 1.349 . S
C3089 C3091 1.327 . S
C3089 H3112 0.950 . S
C3090 C3089 1.349 . S
C3090 C3102 1.349 . S
C3091 C3089 1.327 . S
C3091 C3107 1.429 . S
C3091 H3113 0.950 . S
C3092 H3088 0.949 . S
C3092 C3100 1.574 . S
C3092 C3108 1.368 . S
H3093 C3101 0.950 . S
H3094 C3099 0.950 . S
H3095 C3100 0.949 . S
H3096 C3102 0.950 . S
H3097 C3103 0.950 . S
H3098 C3104 0.949 . S
C3099 H3094 0.950 . S
C3099 C3101 1.327 . S
C3099 C3105 1.429 . S
C3100 C3092 1.574 . S
C3100 H3095 0.949 . S
C3100 C3106 1.368 . S
C3101 C3085 1.349 . S
C3101 H3093 0.950 . S
C3101 C3099 1.327 . S
C3102 C3090 1.349 . S
C3102 H3096 0.950 . S
C3102 C3103 1.327 . S
C3103 H3097 0.950 . S
C3103 C3102 1.327 . S
C3103 C3107 1.429 . S
C3104 C3087 1.574 . S
C3104 H3098 0.949 . S
C3104 C3108 1.368 . S
C3105 C3086 1.429 . S
C3105 C3099 1.429 . S
C3105 C3106 1.523 . S
C3106 C3087 1.368 . S
C3106 C3100 1.368 . S
C3106 C3105 1.523 . S
C3107 C3091 1.429 . S
C3107 C3103 1.429 . S
C3107 C3108 1.523 . S
C3108 C3092 1.368 . S
C3108 C3104 1.368 . S
C3108 C3107 1.523 . S
H3109 C3084 0.950 . S
H3110 C3086 0.950 . S
H3111 C3087 0.949 . S
H3112 C3089 0.950 . S
H3113 C3091 0.950 . S
C3114 C3115 1.349 . S
C3114 C3116 1.327 . S
C3114 H3139 0.950 . S
C3115 C3114 1.349 . S
C3115 C3131 1.349 . S
C3116 C3114 1.327 . S
C3116 C3135 1.429 . S
C3116 H3140 0.950 . S
C3117 C3134 1.574 . S
C3117 C3136 1.368 . S
C3117 H3141 0.949 . S
H3118 C3122 0.949 . S
C3119 C3120 1.349 . S
C3119 C3121 1.327 . S
C3119 H3142 0.950 . S
C3120 C3119 1.349 . S
C3120 C3132 1.349 . S
C3121 C3119 1.327 . S
C3121 C3137 1.429 . S
C3121 H3143 0.950 . S
C3122 H3118 0.949 . S
C3122 C3130 1.574 . S
C3122 C3138 1.368 . S
H3123 C3131 0.950 . S
H3124 C3129 0.950 . S
H3125 C3130 0.949 . S
H3126 C3132 0.950 . S
H3127 C3133 0.950 . S
H3128 C3134 0.949 . S
C3129 H3124 0.950 . S
C3129 C3131 1.327 . S
C3129 C3135 1.429 . S
C3130 C3122 1.574 . S
C3130 H3125 0.949 . S
C3130 C3136 1.368 . S
C3131 C3115 1.349 . S
C3131 H3123 0.950 . S
C3131 C3129 1.327 . S
C3132 C3120 1.349 . S
C3132 H3126 0.950 . S
C3132 C3133 1.327 . S
C3133 H3127 0.950 . S
C3133 C3132 1.327 . S
C3133 C3137 1.429 . S
C3134 C3117 1.574 . S
C3134 H3128 0.949 . S
C3134 C3138 1.368 . S
C3135 C3116 1.429 . S
C3135 C3129 1.429 . S
C3135 C3136 1.523 . S
C3136 C3117 1.368 . S
C3136 C3130 1.368 . S
C3136 C3135 1.523 . S
C3137 C3121 1.429 . S
C3137 C3133 1.429 . S
C3137 C3138 1.523 . S
C3138 C3122 1.368 . S
C3138 C3134 1.368 . S
C3138 C3137 1.523 . S
H3139 C3114 0.950 . S
H3140 C3116 0.950 . S
H3141 C3117 0.949 . S
H3142 C3119 0.950 . S
H3143 C3121 0.950 . S
C3144 C3145 1.349 . S
C3144 C3146 1.327 . S
C3144 H3169 0.950 . S
C3145 C3144 1.349 . S
C3145 C3161 1.349 . S
C3146 C3144 1.327 . S
C3146 C3165 1.429 . S
C3146 H3170 0.950 . S
C3147 C3164 1.574 . S
C3147 C3166 1.368 . S
C3147 H3171 0.949 . S
H3148 C3152 0.949 . S
C3149 C3150 1.349 . S
C3149 C3151 1.327 . S
C3149 H3172 0.950 . S
C3150 C3149 1.349 . S
C3150 C3162 1.349 . S
C3151 C3149 1.327 . S
C3151 C3167 1.429 . S
C3151 H3173 0.950 . S
C3152 H3148 0.949 . S
C3152 C3160 1.574 . S
C3152 C3168 1.368 . S
H3153 C3161 0.950 . S
H3154 C3159 0.950 . S
H3155 C3160 0.949 . S
H3156 C3162 0.950 . S
H3157 C3163 0.950 . S
H3158 C3164 0.949 . S
C3159 H3154 0.950 . S
C3159 C3161 1.327 . S
C3159 C3165 1.429 . S
C3160 C3152 1.574 . S
C3160 H3155 0.949 . S
C3160 C3166 1.368 . S
C3161 C3145 1.349 . S
C3161 H3153 0.950 . S
C3161 C3159 1.327 . S
C3162 C3150 1.349 . S
C3162 H3156 0.950 . S
C3162 C3163 1.327 . S
C3163 H3157 0.950 . S
C3163 C3162 1.327 . S
C3163 C3167 1.429 . S
C3164 C3147 1.574 . S
C3164 H3158 0.949 . S
C3164 C3168 1.368 . S
C3165 C3146 1.429 . S
C3165 C3159 1.429 . S
C3165 C3166 1.523 . S
C3166 C3147 1.368 . S
C3166 C3160 1.368 . S
C3166 C3165 1.523 . S
C3167 C3151 1.429 . S
C3167 C3163 1.429 . S
C3167 C3168 1.523 . S
C3168 C3152 1.368 . S
C3168 C3164 1.368 . S
C3168 C3167 1.523 . S
H3169 C3144 0.950 . S
H3170 C3146 0.950 . S
H3171 C3147 0.949 . S
H3172 C3149 0.950 . S
H3173 C3151 0.950 . S
C3174 C3175 1.349 . S
C3174 C3176 1.327 . S
C3174 H3199 0.950 . S
C3175 C3174 1.349 . S
C3175 C3191 1.349 . S
C3176 C3174 1.327 . S
C3176 C3195 1.429 . S
C3176 H3200 0.950 . S
C3177 C3194 1.574 . S
C3177 C3196 1.368 . S
C3177 H3201 0.949 . S
H3178 C3182 0.949 . S
C3179 C3180 1.349 . S
C3179 C3181 1.327 . S
C3179 H3202 0.950 . S
C3180 C3179 1.349 . S
C3180 C3192 1.349 . S
C3181 C3179 1.327 . S
C3181 C3197 1.429 . S
C3181 H3203 0.950 . S
C3182 H3178 0.949 . S
C3182 C3190 1.574 . S
C3182 C3198 1.368 . S
H3183 C3191 0.950 . S
H3184 C3189 0.950 . S
H3185 C3190 0.949 . S
H3186 C3192 0.950 . S
H3187 C3193 0.950 . S
H3188 C3194 0.949 . S
C3189 H3184 0.950 . S
C3189 C3191 1.327 . S
C3189 C3195 1.429 . S
C3190 C3182 1.574 . S
C3190 H3185 0.949 . S
C3190 C3196 1.368 . S
C3191 C3175 1.349 . S
C3191 H3183 0.950 . S
C3191 C3189 1.327 . S
C3192 C3180 1.349 . S
C3192 H3186 0.950 . S
C3192 C3193 1.327 . S
C3193 H3187 0.950 . S
C3193 C3192 1.327 . S
C3193 C3197 1.429 . S
C3194 C3177 1.574 . S
C3194 H3188 0.949 . S
C3194 C3198 1.368 . S
C3195 C3176 1.429 . S
C3195 C3189 1.429 . S
C3195 C3196 1.523 . S
C3196 C3177 1.368 . S
C3196 C3190 1.368 . S
C3196 C3195 1.523 . S
C3197 C3181 1.429 . S
C3197 C3193 1.429 . S
C3197 C3198 1.523 . S
C3198 C3182 1.368 . S
C3198 C3194 1.368 . S
C3198 C3197 1.523 . S
H3199 C3174 0.950 . S
H3200 C3176 0.950 . S
H3201 C3177 0.949 . S
H3202 C3179 0.950 . S
H3203 C3181 0.950 . S
C3204 C3205 1.349 . S
C3204 C3206 1.327 . S
C3204 H3229 0.950 . S
C3205 C3204 1.349 . S
C3205 C3221 1.349 . S
C3206 C3204 1.327 . S
C3206 C3225 1.429 1_554 S
C3206 H3230 0.950 . S
C3207 C3224 1.574 . S
C3207 C3226 1.368 . S
C3207 H3231 0.949 . S
H3208 C3212 0.949 . S
C3209 C3210 1.349 . S
C3209 C3211 1.327 . S
C3209 H3232 0.950 . S
C3210 C3209 1.349 . S
C3210 C3222 1.349 . S
C3211 C3209 1.327 . S
C3211 C3227 1.429 . S
C3211 H3233 0.950 . S
C3212 H3208 0.949 . S
C3212 C3220 1.574 . S
C3212 C3228 1.368 . S
H3213 C3221 0.950 . S
H3214 C3219 0.950 . S
H3215 C3220 0.978 . S
H3216 C3222 0.950 . S
H3217 C3223 0.950 . S
H3218 C3224 0.949 . S
C3219 H3214 0.950 . S
C3219 C3221 1.327 1_556 S
C3219 C3225 1.429 . S
C3220 C3212 1.574 . S
C3220 H3215 0.978 . S
C3220 C3226 1.368 . S
C3221 C3205 1.349 . S
C3221 H3213 0.950 . S
C3221 C3219 1.327 1_554 S
C3222 C3210 1.349 . S
C3222 H3216 0.950 . S
C3222 C3223 1.327 . S
C3223 H3217 0.950 . S
C3223 C3222 1.327 . S
C3223 C3227 1.429 . S
C3224 C3207 1.574 . S
C3224 H3218 0.949 . S
C3224 C3228 1.368 . S
C3225 C3206 1.429 1_556 S
C3225 C3219 1.429 . S
C3225 C3226 1.523 . S
C3226 C3207 1.368 . S
C3226 C3220 1.368 . S
C3226 C3225 1.523 . S
C3227 C3211 1.429 . S
C3227 C3223 1.429 . S
C3227 C3228 1.523 . S
C3228 C3212 1.368 . S
C3228 C3224 1.368 . S
C3228 C3227 1.523 . S
H3229 C3204 0.950 . S
H3230 C3206 0.950 . S
H3231 C3207 0.949 . S
H3232 C3209 0.950 . S
H3233 C3211 0.950 . S
C3234 C3235 1.349 . S
C3234 C3236 1.327 . S
C3234 H3259 0.950 . S
C3235 C3234 1.349 . S
C3235 C3251 1.349 . S
C3236 C3234 1.327 . S
C3236 C3255 1.429 . S
C3236 H3260 0.950 . S
C3237 C3254 1.574 . S
C3237 C3256 1.368 . S
C3237 H3261 0.949 . S
H3238 C3242 0.949 . S
C3239 C3240 1.349 . S
C3239 C3241 1.327 . S
C3239 H3262 0.950 . S
C3240 C3239 1.349 . S
C3240 C3252 1.349 . S
C3241 C3239 1.327 . S
C3241 C3257 1.429 . S
C3241 H3263 0.950 . S
C3242 H3238 0.949 . S
C3242 C3250 1.574 . S
C3242 C3258 1.368 . S
H3243 C3251 0.950 . S
H3244 C3249 0.950 . S
H3245 C3250 0.949 . S
H3246 C3252 0.950 . S
H3247 C3253 0.950 . S
H3248 C3254 0.949 . S
C3249 H3244 0.950 . S
C3249 C3251 1.327 . S
C3249 C3255 1.429 . S
C3250 C3242 1.574 . S
C3250 H3245 0.949 . S
C3250 C3256 1.368 . S
C3251 C3235 1.349 . S
C3251 H3243 0.950 . S
C3251 C3249 1.327 . S
C3252 C3240 1.349 . S
C3252 H3246 0.950 . S
C3252 C3253 1.327 . S
C3253 H3247 0.950 . S
C3253 C3252 1.327 . S
C3253 C3257 1.429 . S
C3254 C3237 1.574 . S
C3254 H3248 0.949 . S
C3254 C3258 1.368 . S
C3255 C3236 1.429 . S
C3255 C3249 1.429 . S
C3255 C3256 1.523 1_455 S
C3256 C3237 1.368 . S
C3256 C3250 1.368 . S
C3256 C3255 1.523 1_655 S
C3257 C3241 1.429 . S
C3257 C3253 1.429 . S
C3257 C3258 1.523 . S
C3258 C3242 1.368 . S
C3258 C3254 1.368 . S
C3258 C3257 1.523 . S
H3259 C3234 0.950 . S
H3260 C3236 0.950 . S
H3261 C3237 0.949 . S
H3262 C3239 0.950 . S
H3263 C3241 0.950 . S
C3264 C3265 1.349 . S
C3264 C3266 1.327 . S
C3264 H3289 0.950 . S
C3265 C3264 1.349 . S
C3265 C3281 1.349 . S
C3266 C3264 1.327 . S
C3266 C3285 1.429 . S
C3266 H3290 0.950 . S
C3267 C3284 1.574 . S
C3267 C3286 1.368 . S
C3267 H3291 0.949 . S
H3268 C3272 0.949 . S
C3269 C3270 1.349 . S
C3269 C3271 1.327 . S
C3269 H3292 0.950 . S
C3270 C3269 1.349 . S
C3270 C3282 1.349 . S
C3271 C3269 1.327 . S
C3271 C3287 1.429 . S
C3271 H3293 0.950 . S
C3272 H3268 0.949 . S
C3272 C3280 1.574 . S
C3272 C3288 1.368 . S
H3273 C3281 0.950 . S
H3274 C3279 0.950 . S
H3275 C3280 0.949 . S
H3276 C3282 0.950 . S
H3277 C3283 0.950 . S
H3278 C3284 0.949 . S
C3279 H3274 0.950 . S
C3279 C3281 1.327 . S
C3279 C3285 1.429 . S
C3280 C3272 1.574 . S
C3280 H3275 0.949 . S
C3280 C3286 1.368 . S
C3281 C3265 1.349 . S
C3281 H3273 0.950 . S
C3281 C3279 1.327 . S
C3282 C3270 1.349 . S
C3282 H3276 0.950 . S
C3282 C3283 1.327 . S
C3283 H3277 0.950 . S
C3283 C3282 1.327 . S
C3283 C3287 1.429 . S
C3284 C3267 1.574 . S
C3284 H3278 0.949 . S
C3284 C3288 1.368 . S
C3285 C3266 1.429 . S
C3285 C3279 1.429 . S
C3285 C3286 1.523 . S
C3286 C3267 1.368 . S
C3286 C3280 1.368 . S
C3286 C3285 1.523 . S
C3287 C3271 1.429 . S
C3287 C3283 1.429 . S
C3287 C3288 1.523 . S
C3288 C3272 1.368 . S
C3288 C3284 1.368 . S
C3288 C3287 1.523 . S
H3289 C3264 0.950 . S
H3290 C3266 0.950 . S
H3291 C3267 0.949 . S
H3292 C3269 0.950 . S
H3293 C3271 0.950 . S
C3294 C3295 1.349 . S
C3294 C3296 1.327 . S
C3294 H3319 0.950 . S
C3295 C3294 1.349 . S
C3295 C3311 1.349 . S
C3296 C3294 1.327 . S
C3296 C3315 1.429 . S
C3296 H3320 0.950 . S
C3297 C3314 1.574 . S
C3297 C3316 1.368 . S
C3297 H3321 0.949 . S
H3298 C3302 0.949 . S
C3299 C3300 1.349 . S
C3299 C3301 1.327 . S
C3299 H3322 0.950 . S
C3300 C3299 1.349 . S
C3300 C3312 1.349 . S
C3301 C3299 1.327 . S
C3301 C3317 1.429 . S
C3301 H3323 0.950 . S
C3302 H3298 0.949 . S
C3302 C3310 1.574 . S
C3302 C3318 1.368 . S
H3303 C3311 0.950 . S
H3304 C3309 0.950 . S
H3305 C3310 0.949 . S
H3306 C3312 0.950 . S
H3307 C3313 0.950 . S
H3308 C3314 0.949 . S
C3309 H3304 0.950 . S
C3309 C3311 1.327 . S
C3309 C3315 1.429 . S
C3310 C3302 1.574 . S
C3310 H3305 0.949 . S
C3310 C3316 1.368 . S
C3311 C3295 1.349 . S
C3311 H3303 0.950 . S
C3311 C3309 1.327 . S
C3312 C3300 1.349 . S
C3312 H3306 0.950 . S
C3312 C3313 1.327 . S
C3313 H3307 0.950 . S
C3313 C3312 1.327 . S
C3313 C3317 1.429 . S
C3314 C3297 1.574 . S
C3314 H3308 0.949 . S
C3314 C3318 1.368 . S
C3315 C3296 1.429 . S
C3315 C3309 1.429 . S
C3315 C3316 1.523 . S
C3316 C3297 1.368 . S
C3316 C3310 1.368 . S
C3316 C3315 1.523 . S
C3317 C3301 1.429 . S
C3317 C3313 1.429 . S
C3317 C3318 1.523 . S
C3318 C3302 1.368 . S
C3318 C3314 1.368 . S
C3318 C3317 1.523 . S
H3319 C3294 0.950 . S
H3320 C3296 0.950 . S
H3321 C3297 0.949 . S
H3322 C3299 0.950 . S
H3323 C3301 0.950 . S
C3324 C3325 1.349 . S
C3324 C3326 1.327 . S
C3324 H3349 0.950 . S
C3325 C3324 1.349 . S
C3325 C3341 1.349 . S
C3326 C3324 1.327 . S
C3326 C3345 1.429 . S
C3326 H3350 0.950 . S
C3327 C3344 1.574 . S
C3327 C3346 1.368 . S
C3327 H3351 0.949 . S
H3328 C3332 0.949 . S
C3329 C3330 1.349 . S
C3329 C3331 1.327 . S
C3329 H3352 0.950 . S
C3330 C3329 1.349 . S
C3330 C3342 1.349 . S
C3331 C3329 1.327 . S
C3331 C3347 1.429 . S
C3331 H3353 0.950 . S
C3332 H3328 0.949 . S
C3332 C3340 1.574 . S
C3332 C3348 1.368 . S
H3333 C3341 0.950 . S
H3334 C3339 0.950 . S
H3335 C3340 0.949 . S
H3336 C3342 0.950 . S
H3337 C3343 0.950 . S
H3338 C3344 0.949 . S
C3339 H3334 0.950 . S
C3339 C3341 1.327 . S
C3339 C3345 1.429 . S
C3340 C3332 1.574 . S
C3340 H3335 0.949 . S
C3340 C3346 1.368 . S
C3341 C3325 1.349 . S
C3341 H3333 0.950 . S
C3341 C3339 1.327 . S
C3342 C3330 1.349 . S
C3342 H3336 0.950 . S
C3342 C3343 1.327 . S
C3343 H3337 0.950 . S
C3343 C3342 1.327 . S
C3343 C3347 1.429 . S
C3344 C3327 1.574 . S
C3344 H3338 0.949 . S
C3344 C3348 1.368 . S
C3345 C3326 1.429 . S
C3345 C3339 1.429 . S
C3345 C3346 1.523 . S
C3346 C3327 1.368 . S
C3346 C3340 1.368 . S
C3346 C3345 1.523 . S
C3347 C3331 1.429 . S
C3347 C3343 1.429 . S
C3347 C3348 1.523 . S
C3348 C3332 1.368 . S
C3348 C3344 1.368 . S
C3348 C3347 1.523 . S
H3349 C3324 0.950 . S
H3350 C3326 0.950 . S
H3351 C3327 0.949 . S
H3352 C3329 0.950 . S
H3353 C3331 0.950 . S
C3354 C3355 1.349 . S
C3354 C3356 1.327 . S
C3354 H3379 0.950 . S
C3355 C3354 1.349 . S
C3355 C3371 1.349 . S
C3356 C3354 1.327 . S
C3356 C3375 1.429 . S
C3356 H3380 0.950 . S
C3357 C3374 1.574 . S
C3357 C3376 1.368 . S
C3357 H3381 0.949 . S
H3358 C3362 0.949 . S
C3359 C3360 1.349 . S
C3359 C3361 1.327 . S
C3359 H3382 0.950 . S
C3360 C3359 1.349 . S
C3360 C3372 1.349 . S
C3361 C3359 1.327 . S
C3361 C3377 1.429 . S
C3361 H3383 0.950 . S
C3362 H3358 0.949 . S
C3362 C3370 1.574 . S
C3362 C3378 1.368 . S
H3363 C3371 0.950 . S
H3364 C3369 0.950 . S
H3365 C3370 0.949 . S
H3366 C3372 0.950 . S
H3367 C3373 0.950 . S
H3368 C3374 0.949 . S
C3369 H3364 0.950 . S
C3369 C3371 1.327 . S
C3369 C3375 1.429 . S
C3370 C3362 1.574 . S
C3370 H3365 0.949 . S
C3370 C3376 1.368 . S
C3371 C3355 1.349 . S
C3371 H3363 0.950 . S
C3371 C3369 1.327 . S
C3372 C3360 1.349 . S
C3372 H3366 0.950 . S
C3372 C3373 1.327 . S
C3373 H3367 0.950 . S
C3373 C3372 1.327 . S
C3373 C3377 1.429 . S
C3374 C3357 1.574 . S
C3374 H3368 0.949 . S
C3374 C3378 1.368 . S
C3375 C3356 1.429 . S
C3375 C3369 1.429 . S
C3375 C3376 1.523 . S
C3376 C3357 1.368 . S
C3376 C3370 1.368 . S
C3376 C3375 1.523 . S
C3377 C3361 1.429 . S
C3377 C3373 1.429 . S
C3377 C3378 1.523 . S
C3378 C3362 1.368 . S
C3378 C3374 1.368 . S
C3378 C3377 1.523 . S
H3379 C3354 0.950 . S
H3380 C3356 0.950 . S
H3381 C3357 0.949 . S
H3382 C3359 0.950 . S
H3383 C3361 0.950 . S
C3384 C3385 1.349 . S
C3384 C3386 1.327 . S
C3384 H3409 0.950 . S
C3385 C3384 1.349 . S
C3385 C3401 1.349 . S
C3386 C3384 1.327 . S
C3386 C3405 1.429 . S
C3386 H3410 0.950 . S
C3387 C3404 1.574 . S
C3387 C3406 1.368 . S
C3387 H3411 0.949 . S
H3388 C3392 0.949 . S
C3389 C3390 1.349 . S
C3389 C3391 1.327 . S
C3389 H3412 0.950 . S
C3390 C3389 1.349 . S
C3390 C3402 1.349 . S
C3391 C3389 1.327 . S
C3391 C3407 1.429 . S
C3391 H3413 0.950 . S
C3392 H3388 0.949 . S
C3392 C3400 1.574 . S
C3392 C3408 1.368 . S
H3393 C3401 0.950 . S
H3394 C3399 0.950 . S
H3395 C3400 0.949 . S
H3396 C3402 0.950 . S
H3397 C3403 0.950 . S
H3398 C3404 0.949 . S
C3399 H3394 0.950 . S
C3399 C3401 1.327 . S
C3399 C3405 1.429 . S
C3400 C3392 1.574 . S
C3400 H3395 0.949 . S
C3400 C3406 1.368 . S
C3401 C3385 1.349 . S
C3401 H3393 0.950 . S
C3401 C3399 1.327 . S
C3402 C3390 1.349 . S
C3402 H3396 0.950 . S
C3402 C3403 1.327 . S
C3403 H3397 0.950 . S
C3403 C3402 1.327 . S
C3403 C3407 1.429 . S
C3404 C3387 1.574 . S
C3404 H3398 0.949 . S
C3404 C3408 1.368 . S
C3405 C3386 1.429 . S
C3405 C3399 1.429 . S
C3405 C3406 1.523 . S
C3406 C3387 1.368 . S
C3406 C3400 1.368 . S
C3406 C3405 1.523 . S
C3407 C3391 1.429 . S
C3407 C3403 1.429 . S
C3407 C3408 1.523 . S
C3408 C3392 1.368 . S
C3408 C3404 1.368 . S
C3408 C3407 1.523 . S
H3409 C3384 0.950 . S
H3410 C3386 0.950 . S
H3411 C3387 0.949 . S
H3412 C3389 0.950 . S
H3413 C3391 0.950 . S
C3414 C3415 1.349 . S
C3414 C3416 1.327 . S
C3414 H3439 0.950 . S
C3415 C3414 1.349 . S
C3415 C3431 1.349 . S
C3416 C3414 1.327 . S
C3416 C3435 1.429 . S
C3416 H3440 0.950 . S
C3417 C3434 1.574 . S
C3417 C3436 1.368 . S
C3417 H3441 0.949 . S
H3418 C3422 0.949 . S
C3419 C3420 1.349 . S
C3419 C3421 1.327 . S
C3419 H3442 0.950 . S
C3420 C3419 1.349 . S
C3420 C3432 1.349 . S
C3421 C3419 1.327 . S
C3421 C3437 1.429 . S
C3421 H3443 0.950 . S
C3422 H3418 0.949 . S
C3422 C3430 1.574 . S
C3422 C3438 1.368 . S
H3423 C3431 0.950 . S
H3424 C3429 0.950 . S
H3425 C3430 0.949 . S
H3426 C3432 0.950 . S
H3427 C3433 0.950 . S
H3428 C3434 0.949 . S
C3429 H3424 0.950 . S
C3429 C3431 1.327 . S
C3429 C3435 1.429 . S
C3430 C3422 1.574 . S
C3430 H3425 0.949 . S
C3430 C3436 1.368 . S
C3431 C3415 1.349 . S
C3431 H3423 0.950 . S
C3431 C3429 1.327 . S
C3432 C3420 1.349 . S
C3432 H3426 0.950 . S
C3432 C3433 1.327 . S
C3433 H3427 0.950 . S
C3433 C3432 1.327 . S
C3433 C3437 1.429 . S
C3434 C3417 1.574 . S
C3434 H3428 0.949 . S
C3434 C3438 1.368 . S
C3435 C3416 1.429 . S
C3435 C3429 1.429 . S
C3435 C3436 1.523 . S
C3436 C3417 1.368 . S
C3436 C3430 1.368 . S
C3436 C3435 1.523 . S
C3437 C3421 1.429 . S
C3437 C3433 1.429 . S
C3437 C3438 1.523 . S
C3438 C3422 1.368 . S
C3438 C3434 1.368 . S
C3438 C3437 1.523 . S
H3439 C3414 0.950 . S
H3440 C3416 0.950 . S
H3441 C3417 0.949 . S
H3442 C3419 0.950 . S
H3443 C3421 0.950 . S
C3444 C3445 1.349 . S
C3444 C3446 1.327 . S
C3444 H3469 0.950 . S
C3445 C3444 1.349 . S
C3445 C3461 1.349 . S
C3446 C3444 1.327 . S
C3446 C3465 1.429 . S
C3446 H3470 0.950 . S
C3447 C3464 1.574 . S
C3447 C3466 1.368 . S
C3447 H3471 0.949 . S
H3448 C3452 0.949 . S
C3449 C3450 1.349 . S
C3449 C3451 1.327 . S
C3449 H3472 0.950 . S
C3450 C3449 1.349 . S
C3450 C3462 1.349 . S
C3451 C3449 1.327 . S
C3451 C3467 1.429 . S
C3451 H3473 0.950 . S
C3452 H3448 0.949 . S
C3452 C3460 1.574 . S
C3452 C3468 1.368 . S
H3453 C3461 0.950 . S
H3454 C3459 0.950 . S
H3455 C3460 0.949 . S
H3456 C3462 0.950 . S
H3457 C3463 0.950 . S
H3458 C3464 0.949 . S
C3459 H3454 0.950 . S
C3459 C3461 1.327 . S
C3459 C3465 1.429 . S
C3460 C3452 1.574 . S
C3460 H3455 0.949 . S
C3460 C3466 1.368 . S
C3461 C3445 1.349 . S
C3461 H3453 0.950 . S
C3461 C3459 1.327 . S
C3462 C3450 1.349 . S
C3462 H3456 0.950 . S
C3462 C3463 1.327 . S
C3463 H3457 0.950 . S
C3463 C3462 1.327 . S
C3463 C3467 1.429 . S
C3464 C3447 1.574 . S
C3464 H3458 0.949 . S
C3464 C3468 1.368 . S
C3465 C3446 1.429 . S
C3465 C3459 1.429 . S
C3465 C3466 1.523 . S
C3466 C3447 1.368 . S
C3466 C3460 1.368 . S
C3466 C3465 1.523 . S
C3467 C3451 1.429 . S
C3467 C3463 1.429 . S
C3467 C3468 1.523 . S
C3468 C3452 1.368 . S
C3468 C3464 1.368 . S
C3468 C3467 1.523 . S
H3469 C3444 0.950 . S
H3470 C3446 0.950 . S
H3471 C3447 0.949 . S
H3472 C3449 0.950 . S
H3473 C3451 0.950 . S
C3474 C3475 1.349 . S
C3474 C3476 1.327 . S
C3474 H3499 0.950 . S
C3475 C3474 1.349 . S
C3475 C3491 1.349 . S
C3476 C3474 1.327 . S
C3476 C3495 1.429 . S
C3476 H3500 0.950 . S
C3477 C3494 1.574 . S
C3477 C3496 1.368 . S
C3477 H3501 0.949 . S
H3478 C3482 0.949 . S
C3479 C3480 1.349 . S
C3479 C3481 1.327 . S
C3479 H3502 0.950 . S
C3480 C3479 1.349 . S
C3480 C3492 1.349 . S
C3481 C3479 1.327 . S
C3481 C3497 1.429 . S
C3481 H3503 0.950 . S
C3482 H3478 0.949 . S
C3482 C3490 1.574 . S
C3482 C3498 1.368 . S
H3483 C3491 0.950 . S
H3484 C3489 0.950 . S
H3485 C3490 0.949 . S
H3486 C3492 0.950 . S
H3487 C3493 0.950 . S
H3488 C3494 0.949 . S
C3489 H3484 0.950 . S
C3489 C3491 1.327 . S
C3489 C3495 1.429 . S
C3490 C3482 1.574 . S
C3490 H3485 0.949 . S
C3490 C3496 1.368 . S
C3491 C3475 1.349 . S
C3491 H3483 0.950 . S
C3491 C3489 1.327 . S
C3492 C3480 1.349 . S
C3492 H3486 0.950 . S
C3492 C3493 1.327 . S
C3493 H3487 0.950 . S
C3493 C3492 1.327 . S
C3493 C3497 1.429 . S
C3494 C3477 1.574 . S
C3494 H3488 0.949 . S
C3494 C3498 1.368 . S
C3495 C3476 1.429 . S
C3495 C3489 1.429 . S
C3495 C3496 1.523 . S
C3496 C3477 1.368 . S
C3496 C3490 1.368 . S
C3496 C3495 1.523 . S
C3497 C3481 1.429 . S
C3497 C3493 1.429 . S
C3497 C3498 1.523 . S
C3498 C3482 1.368 . S
C3498 C3494 1.368 . S
C3498 C3497 1.523 . S
H3499 C3474 0.950 . S
H3500 C3476 0.950 . S
H3501 C3477 0.949 . S
H3502 C3479 0.950 . S
H3503 C3481 0.950 . S
C3504 C3505 1.349 . S
C3504 C3506 1.327 . S
C3504 H3529 0.950 . S
C3505 C3504 1.349 . S
C3505 C3521 1.349 . S
C3506 C3504 1.327 . S
C3506 C3525 1.429 . S
C3506 H3530 0.950 . S
C3507 C3524 1.574 . S
C3507 C3526 1.368 . S
C3507 H3531 0.949 . S
H3508 C3512 0.949 . S
C3509 C3510 1.349 . S
C3509 C3511 1.327 . S
C3509 H3532 0.950 . S
C3510 C3509 1.349 . S
C3510 C3522 1.349 . S
C3511 C3509 1.327 . S
C3511 C3527 1.429 . S
C3511 H3533 0.950 . S
C3512 H3508 0.949 . S
C3512 C3520 1.574 . S
C3512 C3528 1.368 . S
H3513 C3521 0.950 . S
H3514 C3519 0.950 . S
H3515 C3520 0.949 . S
H3516 C3522 0.950 . S
H3517 C3523 0.950 . S
H3518 C3524 0.949 . S
C3519 H3514 0.950 . S
C3519 C3521 1.327 . S
C3519 C3525 1.429 . S
C3520 C3512 1.574 . S
C3520 H3515 0.949 . S
C3520 C3526 1.368 . S
C3521 C3505 1.349 . S
C3521 H3513 0.950 . S
C3521 C3519 1.327 . S
C3522 C3510 1.349 . S
C3522 H3516 0.950 . S
C3522 C3523 1.327 . S
C3523 H3517 0.950 . S
C3523 C3522 1.327 . S
C3523 C3527 1.429 . S
C3524 C3507 1.574 . S
C3524 H3518 0.949 . S
C3524 C3528 1.368 . S
C3525 C3506 1.429 . S
C3525 C3519 1.429 . S
C3525 C3526 1.523 . S
C3526 C3507 1.368 . S
C3526 C3520 1.368 . S
C3526 C3525 1.523 . S
C3527 C3511 1.429 . S
C3527 C3523 1.429 . S
C3527 C3528 1.523 . S
C3528 C3512 1.368 . S
C3528 C3524 1.368 . S
C3528 C3527 1.523 . S
H3529 C3504 0.950 . S
H3530 C3506 0.950 . S
H3531 C3507 0.949 . S
H3532 C3509 0.950 . S
H3533 C3511 0.950 . S
C3534 C3535 1.349 . S
C3534 C3536 1.327 . S
C3534 H3559 0.950 . S
C3535 C3534 1.349 . S
C3535 C3551 1.349 . S
C3536 C3534 1.327 . S
C3536 C3555 1.429 . S
C3536 H3560 0.950 . S
C3537 C3554 1.574 . S
C3537 C3556 1.368 . S
C3537 H3561 0.949 . S
H3538 C3542 0.949 . S
C3539 C3540 1.349 . S
C3539 C3541 1.327 . S
C3539 H3562 0.950 . S
C3540 C3539 1.349 . S
C3540 C3552 1.349 . S
C3541 C3539 1.327 . S
C3541 C3557 1.429 . S
C3541 H3563 0.950 . S
C3542 H3538 0.949 . S
C3542 C3550 1.574 . S
C3542 C3558 1.368 . S
H3543 C3551 0.950 . S
H3544 C3549 0.950 . S
H3545 C3550 0.949 . S
H3546 C3552 0.950 . S
H3547 C3553 0.950 . S
H3548 C3554 0.949 . S
C3549 H3544 0.950 . S
C3549 C3551 1.327 . S
C3549 C3555 1.429 . S
C3550 C3542 1.574 . S
C3550 H3545 0.949 . S
C3550 C3556 1.368 . S
C3551 C3535 1.349 . S
C3551 H3543 0.950 . S
C3551 C3549 1.327 . S
C3552 C3540 1.349 . S
C3552 H3546 0.950 . S
C3552 C3553 1.327 . S
C3553 H3547 0.950 . S
C3553 C3552 1.327 . S
C3553 C3557 1.429 . S
C3554 C3537 1.574 . S
C3554 H3548 0.949 . S
C3554 C3558 1.368 . S
C3555 C3536 1.429 . S
C3555 C3549 1.429 . S
C3555 C3556 1.523 . S
C3556 C3537 1.368 . S
C3556 C3550 1.368 . S
C3556 C3555 1.523 . S
C3557 C3541 1.429 . S
C3557 C3553 1.429 . S
C3557 C3558 1.523 . S
C3558 C3542 1.368 . S
C3558 C3554 1.368 . S
C3558 C3557 1.523 . S
H3559 C3534 0.950 . S
H3560 C3536 0.950 . S
H3561 C3537 0.949 . S
H3562 C3539 0.950 . S
H3563 C3541 0.950 . S
C3564 C3565 1.349 . S
C3564 C3566 1.327 . S
C3564 H3589 0.950 . S
C3565 C3564 1.349 . S
C3565 C3581 1.349 . S
C3566 C3564 1.327 . S
C3566 C3585 1.429 . S
C3566 H3590 0.950 . S
C3567 C3584 1.574 . S
C3567 C3586 1.368 . S
C3567 H3591 0.949 . S
H3568 C3572 0.949 . S
C3569 C3570 1.349 . S
C3569 C3571 1.327 . S
C3569 H3592 0.950 . S
C3570 C3569 1.349 . S
C3570 C3582 1.349 . S
C3571 C3569 1.327 . S
C3571 C3587 1.429 . S
C3571 H3593 0.950 . S
C3572 H3568 0.949 . S
C3572 C3580 1.574 . S
C3572 C3588 1.368 . S
H3573 C3581 0.950 . S
H3574 C3579 0.950 . S
H3575 C3580 0.949 . S
H3576 C3582 0.950 . S
H3577 C3583 0.950 . S
H3578 C3584 0.949 . S
C3579 H3574 0.950 . S
C3579 C3581 1.327 . S
C3579 C3585 1.429 . S
C3580 C3572 1.574 . S
C3580 H3575 0.949 . S
C3580 C3586 1.368 . S
C3581 C3565 1.349 . S
C3581 H3573 0.950 . S
C3581 C3579 1.327 . S
C3582 C3570 1.349 . S
C3582 H3576 0.950 . S
C3582 C3583 1.327 . S
C3583 H3577 0.950 . S
C3583 C3582 1.327 . S
C3583 C3587 1.429 . S
C3584 C3567 1.574 . S
C3584 H3578 0.949 . S
C3584 C3588 1.368 . S
C3585 C3566 1.429 . S
C3585 C3579 1.429 . S
C3585 C3586 1.523 . S
C3586 C3567 1.368 . S
C3586 C3580 1.368 . S
C3586 C3585 1.523 . S
C3587 C3571 1.429 . S
C3587 C3583 1.429 . S
C3587 C3588 1.523 . S
C3588 C3572 1.368 . S
C3588 C3584 1.368 . S
C3588 C3587 1.523 . S
H3589 C3564 0.950 . S
H3590 C3566 0.950 . S
H3591 C3567 0.949 . S
H3592 C3569 0.950 . S
H3593 C3571 0.950 . S
C3594 C3595 1.349 . S
C3594 C3596 1.327 . S
C3594 H3619 0.950 . S
C3595 C3594 1.349 . S
C3595 C3611 1.349 . S
C3596 C3594 1.327 . S
C3596 C3615 1.429 . S
C3596 H3620 0.950 . S
C3597 C3614 1.574 . S
C3597 C3616 1.368 . S
C3597 H3621 0.949 . S
H3598 C3602 0.949 . S
C3599 C3600 1.349 . S
C3599 C3601 1.327 . S
C3599 H3622 0.950 . S
C3600 C3599 1.349 . S
C3600 C3612 1.349 . S
C3601 C3599 1.327 . S
C3601 C3617 1.429 . S
C3601 H3623 0.950 . S
C3602 H3598 0.949 . S
C3602 C3610 1.574 . S
C3602 C3618 1.368 . S
H3603 C3611 0.950 . S
H3604 C3609 0.950 . S
H3605 C3610 0.949 . S
H3606 C3612 0.950 . S
H3607 C3613 0.950 . S
H3608 C3614 0.949 . S
C3609 H3604 0.950 . S
C3609 C3611 1.327 . S
C3609 C3615 1.429 . S
C3610 C3602 1.574 . S
C3610 H3605 0.949 . S
C3610 C3616 1.368 . S
C3611 C3595 1.349 . S
C3611 H3603 0.950 . S
C3611 C3609 1.327 . S
C3612 C3600 1.349 . S
C3612 H3606 0.950 . S
C3612 C3613 1.327 . S
C3613 H3607 0.950 . S
C3613 C3612 1.327 . S
C3613 C3617 1.429 . S
C3614 C3597 1.574 . S
C3614 H3608 0.949 . S
C3614 C3618 1.368 . S
C3615 C3596 1.429 . S
C3615 C3609 1.429 . S
C3615 C3616 1.523 . S
C3616 C3597 1.368 . S
C3616 C3610 1.368 . S
C3616 C3615 1.523 . S
C3617 C3601 1.429 . S
C3617 C3613 1.429 . S
C3617 C3618 1.523 . S
C3618 C3602 1.368 . S
C3618 C3614 1.368 . S
C3618 C3617 1.523 . S
H3619 C3594 0.950 . S
H3620 C3596 0.950 . S
H3621 C3597 0.949 . S
H3622 C3599 0.950 . S
H3623 C3601 0.950 . S
C3624 C3625 1.349 . S
C3624 C3626 1.327 . S
C3624 H3649 0.950 . S
C3625 C3624 1.349 . S
C3625 C3641 1.349 . S
C3626 C3624 1.327 . S
C3626 C3645 1.429 . S
C3626 H3650 0.950 . S
C3627 C3644 1.574 . S
C3627 C3646 1.368 . S
C3627 H3651 0.949 . S
H3628 C3632 0.949 . S
C3629 C3630 1.349 . S
C3629 C3631 1.327 . S
C3629 H3652 0.950 . S
C3630 C3629 1.349 . S
C3630 C3642 1.349 . S
C3631 C3629 1.327 . S
C3631 C3647 1.429 . S
C3631 H3653 0.950 . S
C3632 H3628 0.949 . S
C3632 C3640 1.574 . S
C3632 C3648 1.368 . S
H3633 C3641 0.950 . S
H3634 C3639 0.950 . S
H3635 C3640 0.949 . S
H3636 C3642 0.950 . S
H3637 C3643 0.950 . S
H3638 C3644 0.949 . S
C3639 H3634 0.950 . S
C3639 C3641 1.327 . S
C3639 C3645 1.429 . S
C3640 C3632 1.574 . S
C3640 H3635 0.949 . S
C3640 C3646 1.368 . S
C3641 C3625 1.349 . S
C3641 H3633 0.950 . S
C3641 C3639 1.327 . S
C3642 C3630 1.349 . S
C3642 H3636 0.950 . S
C3642 C3643 1.327 . S
C3643 H3637 0.950 . S
C3643 C3642 1.327 . S
C3643 C3647 1.429 . S
C3644 C3627 1.574 . S
C3644 H3638 0.949 . S
C3644 C3648 1.368 . S
C3645 C3626 1.429 . S
C3645 C3639 1.429 . S
C3645 C3646 1.523 . S
C3646 C3627 1.368 . S
C3646 C3640 1.368 . S
C3646 C3645 1.523 . S
C3647 C3631 1.429 . S
C3647 C3643 1.429 . S
C3647 C3648 1.523 . S
C3648 C3632 1.368 . S
C3648 C3644 1.368 . S
C3648 C3647 1.523 . S
H3649 C3624 0.950 . S
H3650 C3626 0.950 . S
H3651 C3627 0.949 . S
H3652 C3629 0.950 . S
H3653 C3631 0.950 . S
C3654 C3655 1.349 . S
C3654 C3656 1.327 . S
C3654 H3679 0.950 . S
C3655 C3654 1.349 . S
C3655 C3671 1.349 . S
C3656 C3654 1.327 . S
C3656 C3675 1.429 . S
C3656 H3680 0.950 . S
C3657 C3674 1.574 . S
C3657 C3676 1.368 . S
C3657 H3681 0.949 . S
H3658 C3662 0.949 . S
C3659 C3660 1.349 . S
C3659 C3661 1.327 . S
C3659 H3682 0.950 . S
C3660 C3659 1.349 . S
C3660 C3672 1.349 . S
C3661 C3659 1.327 . S
C3661 C3677 1.429 . S
C3661 H3683 0.950 . S
C3662 H3658 0.949 . S
C3662 C3670 1.574 . S
C3662 C3678 1.368 . S
H3663 C3671 0.950 . S
H3664 C3669 0.950 . S
H3665 C3670 0.949 . S
H3666 C3672 0.950 . S
H3667 C3673 0.950 . S
H3668 C3674 0.949 . S
C3669 H3664 0.950 . S
C3669 C3671 1.327 . S
C3669 C3675 1.429 . S
C3670 C3662 1.574 . S
C3670 H3665 0.949 . S
C3670 C3676 1.368 . S
C3671 C3655 1.349 . S
C3671 H3663 0.950 . S
C3671 C3669 1.327 . S
C3672 C3660 1.349 . S
C3672 H3666 0.950 . S
C3672 C3673 1.327 . S
C3673 H3667 0.950 . S
C3673 C3672 1.327 . S
C3673 C3677 1.429 . S
C3674 C3657 1.574 . S
C3674 H3668 0.949 . S
C3674 C3678 1.368 . S
C3675 C3656 1.429 . S
C3675 C3669 1.429 . S
C3675 C3676 1.523 . S
C3676 C3657 1.368 . S
C3676 C3670 1.368 . S
C3676 C3675 1.523 . S
C3677 C3661 1.429 . S
C3677 C3673 1.429 . S
C3677 C3678 1.523 . S
C3678 C3662 1.368 . S
C3678 C3674 1.368 . S
C3678 C3677 1.523 . S
H3679 C3654 0.950 . S
H3680 C3656 0.950 . S
H3681 C3657 0.949 . S
H3682 C3659 0.950 . S
H3683 C3661 0.950 . S
C3684 C3685 1.349 . S
C3684 C3686 1.327 . S
C3684 H3709 0.950 . S
C3685 C3684 1.349 . S
C3685 C3701 1.349 . S
C3686 C3684 1.327 . S
C3686 C3705 1.429 . S
C3686 H3710 0.950 . S
C3687 C3704 1.574 . S
C3687 C3706 1.368 . S
C3687 H3711 0.949 . S
H3688 C3692 0.949 . S
C3689 C3690 1.349 . S
C3689 C3691 1.327 . S
C3689 H3712 0.950 . S
C3690 C3689 1.349 . S
C3690 C3702 1.349 . S
C3691 C3689 1.327 . S
C3691 C3707 1.429 . S
C3691 H3713 0.950 . S
C3692 H3688 0.949 . S
C3692 C3700 1.574 . S
C3692 C3708 1.368 . S
H3693 C3701 0.950 . S
H3694 C3699 0.950 . S
H3695 C3700 0.949 . S
H3696 C3702 0.950 . S
H3697 C3703 0.950 . S
H3698 C3704 0.949 . S
C3699 H3694 0.950 . S
C3699 C3701 1.327 . S
C3699 C3705 1.429 . S
C3700 C3692 1.574 . S
C3700 H3695 0.949 . S
C3700 C3706 1.368 . S
C3701 C3685 1.349 . S
C3701 H3693 0.950 . S
C3701 C3699 1.327 . S
C3702 C3690 1.349 . S
C3702 H3696 0.950 . S
C3702 C3703 1.327 . S
C3703 H3697 0.950 . S
C3703 C3702 1.327 . S
C3703 C3707 1.429 . S
C3704 C3687 1.574 . S
C3704 H3698 0.949 . S
C3704 C3708 1.368 . S
C3705 C3686 1.429 . S
C3705 C3699 1.429 . S
C3705 C3706 1.523 . S
C3706 C3687 1.368 . S
C3706 C3700 1.368 . S
C3706 C3705 1.523 . S
C3707 C3691 1.429 . S
C3707 C3703 1.429 . S
C3707 C3708 1.523 . S
C3708 C3692 1.368 . S
C3708 C3704 1.368 . S
C3708 C3707 1.523 . S
H3709 C3684 0.950 . S
H3710 C3686 0.950 . S
H3711 C3687 0.949 . S
H3712 C3689 0.950 . S
H3713 C3691 0.950 . S
C3714 C3715 1.349 . S
C3714 C3716 1.327 . S
C3714 H3739 0.950 . S
C3715 C3714 1.349 . S
C3715 C3731 1.349 . S
C3716 C3714 1.327 . S
C3716 C3735 1.429 . S
C3716 H3740 0.950 . S
C3717 C3734 1.574 . S
C3717 C3736 1.368 . S
C3717 H3741 0.949 . S
H3718 C3722 0.949 . S
C3719 C3720 1.349 . S
C3719 C3721 1.327 . S
C3719 H3742 0.950 . S
C3720 C3719 1.349 . S
C3720 C3732 1.349 . S
C3721 C3719 1.327 . S
C3721 C3737 1.429 . S
C3721 H3743 0.950 . S
C3722 H3718 0.949 . S
C3722 C3730 1.574 . S
C3722 C3738 1.368 . S
H3723 C3731 0.950 . S
H3724 C3729 0.950 . S
H3725 C3730 0.949 . S
H3726 C3732 0.950 . S
H3727 C3733 0.950 . S
H3728 C3734 0.949 . S
C3729 H3724 0.950 . S
C3729 C3731 1.327 . S
C3729 C3735 1.429 . S
C3730 C3722 1.574 . S
C3730 H3725 0.949 . S
C3730 C3736 1.368 . S
C3731 C3715 1.349 . S
C3731 H3723 0.950 . S
C3731 C3729 1.327 . S
C3732 C3720 1.349 . S
C3732 H3726 0.950 . S
C3732 C3733 1.327 . S
C3733 H3727 0.950 . S
C3733 C3732 1.327 . S
C3733 C3737 1.429 . S
C3734 C3717 1.574 . S
C3734 H3728 0.949 . S
C3734 C3738 1.368 . S
C3735 C3716 1.429 . S
C3735 C3729 1.429 . S
C3735 C3736 1.523 . S
C3736 C3717 1.368 . S
C3736 C3730 1.368 . S
C3736 C3735 1.523 . S
C3737 C3721 1.429 . S
C3737 C3733 1.429 . S
C3737 C3738 1.523 . S
C3738 C3722 1.368 . S
C3738 C3734 1.368 . S
C3738 C3737 1.523 . S
H3739 C3714 0.950 . S
H3740 C3716 0.950 . S
H3741 C3717 0.949 . S
H3742 C3719 0.950 . S
H3743 C3721 0.950 . S
C3744 C3745 1.349 . S
C3744 C3746 1.327 . S
C3744 H3769 0.950 . S
C3745 C3744 1.349 . S
C3745 C3761 1.349 . S
C3746 C3744 1.327 . S
C3746 C3765 1.429 . S
C3746 H3770 0.950 . S
C3747 C3764 1.574 . S
C3747 C3766 1.368 . S
C3747 H3771 0.949 . S
H3748 C3752 0.949 . S
C3749 C3750 1.349 . S
C3749 C3751 1.327 . S
C3749 H3772 0.950 . S
C3750 C3749 1.349 . S
C3750 C3762 1.349 . S
C3751 C3749 1.327 . S
C3751 C3767 1.429 . S
C3751 H3773 0.950 . S
C3752 H3748 0.949 . S
C3752 C3760 1.574 . S
C3752 C3768 1.368 . S
H3753 C3761 0.950 . S
H3754 C3759 0.950 . S
H3755 C3760 0.949 . S
H3756 C3762 0.950 . S
H3757 C3763 0.950 . S
H3758 C3764 0.949 . S
C3759 H3754 0.950 . S
C3759 C3761 1.327 . S
C3759 C3765 1.429 . S
C3760 C3752 1.574 . S
C3760 H3755 0.949 . S
C3760 C3766 1.368 . S
C3761 C3745 1.349 . S
C3761 H3753 0.950 . S
C3761 C3759 1.327 . S
C3762 C3750 1.349 . S
C3762 H3756 0.950 . S
C3762 C3763 1.327 . S
C3763 H3757 0.950 . S
C3763 C3762 1.327 . S
C3763 C3767 1.429 . S
C3764 C3747 1.574 . S
C3764 H3758 0.949 . S
C3764 C3768 1.368 . S
C3765 C3746 1.429 . S
C3765 C3759 1.429 . S
C3765 C3766 1.523 . S
C3766 C3747 1.368 . S
C3766 C3760 1.368 . S
C3766 C3765 1.523 . S
C3767 C3751 1.429 . S
C3767 C3763 1.429 . S
C3767 C3768 1.523 . S
C3768 C3752 1.368 . S
C3768 C3764 1.368 . S
C3768 C3767 1.523 . S
H3769 C3744 0.950 . S
H3770 C3746 0.950 . S
H3771 C3747 0.949 . S
H3772 C3749 0.950 . S
H3773 C3751 0.950 . S
C3774 C3775 1.349 . S
C3774 C3776 1.327 . S
C3774 H3799 0.950 . S
C3775 C3774 1.349 . S
C3775 C3791 1.349 . S
C3776 C3774 1.327 . S
C3776 C3795 1.429 . S
C3776 H3800 0.950 . S
C3777 C3794 1.574 . S
C3777 C3796 1.368 . S
C3777 H3801 0.949 . S
H3778 C3782 0.949 . S
C3779 C3780 1.349 . S
C3779 C3781 1.327 . S
C3779 H3802 0.950 . S
C3780 C3779 1.349 . S
C3780 C3792 1.349 . S
C3781 C3779 1.327 . S
C3781 C3797 1.429 . S
C3781 H3803 0.950 . S
C3782 H3778 0.949 . S
C3782 C3790 1.574 . S
C3782 C3798 1.368 . S
H3783 C3791 0.950 . S
H3784 C3789 0.950 . S
H3785 C3790 0.949 . S
H3786 C3792 0.950 . S
H3787 C3793 0.950 . S
H3788 C3794 0.949 . S
C3789 H3784 0.950 . S
C3789 C3791 1.327 . S
C3789 C3795 1.429 . S
C3790 C3782 1.574 . S
C3790 H3785 0.949 . S
C3790 C3796 1.368 . S
C3791 C3775 1.349 . S
C3791 H3783 0.950 . S
C3791 C3789 1.327 . S
C3792 C3780 1.349 . S
C3792 H3786 0.950 . S
C3792 C3793 1.327 . S
C3793 H3787 0.950 . S
C3793 C3792 1.327 . S
C3793 C3797 1.429 . S
C3794 C3777 1.574 . S
C3794 H3788 0.949 . S
C3794 C3798 1.368 . S
C3795 C3776 1.429 . S
C3795 C3789 1.429 . S
C3795 C3796 1.523 . S
C3796 C3777 1.368 . S
C3796 C3790 1.368 . S
C3796 C3795 1.523 . S
C3797 C3781 1.429 . S
C3797 C3793 1.429 . S
C3797 C3798 1.523 . S
C3798 C3782 1.368 . S
C3798 C3794 1.368 . S
C3798 C3797 1.523 . S
H3799 C3774 0.950 . S
H3800 C3776 0.950 . S
H3801 C3777 0.949 . S
H3802 C3779 0.950 . S
H3803 C3781 0.950 . S
C3804 C3805 1.349 . S
C3804 C3806 1.327 . S
C3804 H3829 0.950 . S
C3805 C3804 1.349 . S
C3805 C3821 1.349 . S
C3806 C3804 1.327 . S
C3806 C3825 1.429 . S
C3806 H3830 0.950 . S
C3807 C3824 1.574 . S
C3807 C3826 1.368 . S
C3807 H3831 0.949 . S
H3808 C3812 0.949 . S
C3809 C3810 1.349 . S
C3809 C3811 1.327 . S
C3809 H3832 0.950 . S
C3810 C3809 1.349 . S
C3810 C3822 1.349 . S
C3811 C3809 1.327 . S
C3811 C3827 1.429 . S
C3811 H3833 0.950 . S
C3812 H3808 0.949 . S
C3812 C3820 1.574 . S
C3812 C3828 1.368 . S
H3813 C3821 0.950 . S
H3814 C3819 0.950 . S
H3815 C3820 0.949 . S
H3816 C3822 0.950 . S
H3817 C3823 0.950 . S
H3818 C3824 0.949 . S
C3819 H3814 0.950 . S
C3819 C3821 1.327 . S
C3819 C3825 1.429 . S
C3820 C3812 1.574 . S
C3820 H3815 0.949 . S
C3820 C3826 1.368 . S
C3821 C3805 1.349 . S
C3821 H3813 0.950 . S
C3821 C3819 1.327 . S
C3822 C3810 1.349 . S
C3822 H3816 0.950 . S
C3822 C3823 1.327 . S
C3823 H3817 0.950 . S
C3823 C3822 1.327 . S
C3823 C3827 1.429 . S
C3824 C3807 1.574 . S
C3824 H3818 0.949 . S
C3824 C3828 1.368 . S
C3825 C3806 1.429 . S
C3825 C3819 1.429 . S
C3825 C3826 1.523 . S
C3826 C3807 1.368 . S
C3826 C3820 1.368 . S
C3826 C3825 1.523 . S
C3827 C3811 1.429 . S
C3827 C3823 1.429 . S
C3827 C3828 1.523 . S
C3828 C3812 1.368 . S
C3828 C3824 1.368 . S
C3828 C3827 1.523 . S
H3829 C3804 0.950 . S
H3830 C3806 0.950 . S
H3831 C3807 0.949 . S
H3832 C3809 0.950 . S
H3833 C3811 0.950 . S
C3834 C3835 1.349 . S
C3834 C3836 1.327 . S
C3834 H3859 0.950 . S
C3835 C3834 1.349 . S
C3835 C3851 1.349 . S
C3836 C3834 1.327 . S
C3836 C3855 1.429 . S
C3836 H3860 0.950 . S
C3837 C3854 1.574 . S
C3837 C3856 1.368 . S
C3837 H3861 0.949 . S
H3838 C3842 0.949 . S
C3839 C3840 1.349 . S
C3839 C3841 1.327 . S
C3839 H3862 0.950 . S
C3840 C3839 1.349 . S
C3840 C3852 1.349 . S
C3841 C3839 1.327 . S
C3841 C3857 1.429 . S
C3841 H3863 0.950 . S
C3842 H3838 0.949 . S
C3842 C3850 1.574 . S
C3842 C3858 1.368 . S
H3843 C3851 0.950 . S
H3844 C3849 0.950 . S
H3845 C3850 0.949 . S
H3846 C3852 0.950 . S
H3847 C3853 0.950 . S
H3848 C3854 0.949 . S
C3849 H3844 0.950 . S
C3849 C3851 1.327 . S
C3849 C3855 1.429 . S
C3850 C3842 1.574 . S
C3850 H3845 0.949 . S
C3850 C3856 1.368 . S
C3851 C3835 1.349 . S
C3851 H3843 0.950 . S
C3851 C3849 1.327 . S
C3852 C3840 1.349 . S
C3852 H3846 0.950 . S
C3852 C3853 1.327 . S
C3853 H3847 0.950 . S
C3853 C3852 1.327 . S
C3853 C3857 1.429 . S
C3854 C3837 1.574 . S
C3854 H3848 0.949 . S
C3854 C3858 1.368 . S
C3855 C3836 1.429 . S
C3855 C3849 1.429 . S
C3855 C3856 1.523 . S
C3856 C3837 1.368 . S
C3856 C3850 1.368 . S
C3856 C3855 1.523 . S
C3857 C3841 1.429 . S
C3857 C3853 1.429 . S
C3857 C3858 1.523 . S
C3858 C3842 1.368 . S
C3858 C3854 1.368 . S
C3858 C3857 1.523 . S
H3859 C3834 0.950 . S
H3860 C3836 0.950 . S
H3861 C3837 0.949 . S
H3862 C3839 0.950 . S
H3863 C3841 0.950 . S
C3864 C3865 1.349 . S
C3864 C3866 1.327 . S
C3864 H3889 0.950 . S
C3865 C3864 1.349 . S
C3865 C3881 1.349 . S
C3866 C3864 1.327 . S
C3866 C3885 1.429 . S
C3866 H3890 0.950 . S
C3867 C3884 1.574 . S
C3867 C3886 1.368 . S
C3867 H3891 0.949 . S
H3868 C3872 0.949 . S
C3869 C3870 1.349 . S
C3869 C3871 1.327 . S
C3869 H3892 0.950 . S
C3870 C3869 1.349 . S
C3870 C3882 1.349 . S
C3871 C3869 1.327 . S
C3871 C3887 1.429 . S
C3871 H3893 0.950 . S
C3872 H3868 0.949 . S
C3872 C3880 1.574 . S
C3872 C3888 1.368 . S
H3873 C3881 0.950 . S
H3874 C3879 0.950 . S
H3875 C3880 0.949 . S
H3876 C3882 0.950 . S
H3877 C3883 0.950 . S
H3878 C3884 0.949 . S
C3879 H3874 0.950 . S
C3879 C3881 1.327 . S
C3879 C3885 1.429 . S
C3880 C3872 1.574 . S
C3880 H3875 0.949 . S
C3880 C3886 1.368 . S
C3881 C3865 1.349 . S
C3881 H3873 0.950 . S
C3881 C3879 1.327 . S
C3882 C3870 1.349 . S
C3882 H3876 0.950 . S
C3882 C3883 1.327 . S
C3883 H3877 0.950 . S
C3883 C3882 1.327 . S
C3883 C3887 1.429 . S
C3884 C3867 1.574 . S
C3884 H3878 0.949 . S
C3884 C3888 1.368 . S
C3885 C3866 1.429 . S
C3885 C3879 1.429 . S
C3885 C3886 1.523 . S
C3886 C3867 1.368 . S
C3886 C3880 1.368 . S
C3886 C3885 1.523 . S
C3887 C3871 1.429 . S
C3887 C3883 1.429 . S
C3887 C3888 1.523 . S
C3888 C3872 1.368 . S
C3888 C3884 1.368 . S
C3888 C3887 1.523 . S
H3889 C3864 0.950 . S
H3890 C3866 0.950 . S
H3891 C3867 0.949 . S
H3892 C3869 0.950 . S
H3893 C3871 0.950 . S
C3894 C3895 1.349 . S
C3894 C3896 1.327 . S
C3894 H3919 0.950 . S
C3895 C3894 1.349 . S
C3895 C3911 1.349 . S
C3896 C3894 1.327 . S
C3896 C3915 1.429 . S
C3896 H3920 0.950 . S
C3897 C3914 1.574 . S
C3897 C3916 1.368 . S
C3897 H3921 0.949 . S
H3898 C3902 0.949 . S
C3899 C3900 1.349 . S
C3899 C3901 1.327 . S
C3899 H3922 0.950 . S
C3900 C3899 1.349 . S
C3900 C3912 1.349 . S
C3901 C3899 1.327 . S
C3901 C3917 1.429 . S
C3901 H3923 0.950 . S
C3902 H3898 0.949 . S
C3902 C3910 1.574 . S
C3902 C3918 1.368 . S
H3903 C3911 0.950 . S
H3904 C3909 0.950 . S
H3905 C3910 0.949 . S
H3906 C3912 0.950 . S
H3907 C3913 0.950 . S
H3908 C3914 0.949 . S
C3909 H3904 0.950 . S
C3909 C3911 1.327 . S
C3909 C3915 1.429 . S
C3910 C3902 1.574 . S
C3910 H3905 0.949 . S
C3910 C3916 1.368 . S
C3911 C3895 1.349 . S
C3911 H3903 0.950 . S
C3911 C3909 1.327 . S
C3912 C3900 1.349 . S
C3912 H3906 0.950 . S
C3912 C3913 1.327 . S
C3913 H3907 0.950 . S
C3913 C3912 1.327 . S
C3913 C3917 1.429 . S
C3914 C3897 1.574 . S
C3914 H3908 0.949 . S
C3914 C3918 1.368 . S
C3915 C3896 1.429 . S
C3915 C3909 1.429 . S
C3915 C3916 1.523 . S
C3916 C3897 1.368 . S
C3916 C3910 1.368 . S
C3916 C3915 1.523 . S
C3917 C3901 1.429 . S
C3917 C3913 1.429 . S
C3917 C3918 1.523 . S
C3918 C3902 1.368 . S
C3918 C3914 1.368 . S
C3918 C3917 1.523 . S
H3919 C3894 0.950 . S
H3920 C3896 0.950 . S
H3921 C3897 0.949 . S
H3922 C3899 0.950 . S
H3923 C3901 0.950 . S
C3924 C3925 1.349 . S
C3924 C3926 1.327 . S
C3924 H3949 0.950 . S
C3925 C3924 1.349 . S
C3925 C3941 1.349 . S
C3926 C3924 1.327 . S
C3926 C3945 1.429 . S
C3926 H3950 0.950 . S
C3927 C3944 1.574 . S
C3927 C3946 1.368 . S
C3927 H3951 0.949 . S
H3928 C3932 0.949 . S
C3929 C3930 1.349 . S
C3929 C3931 1.327 . S
C3929 H3952 0.950 . S
C3930 C3929 1.349 . S
C3930 C3942 1.349 . S
C3931 C3929 1.327 . S
C3931 C3947 1.429 . S
C3931 H3953 0.950 . S
C3932 H3928 0.949 . S
C3932 C3940 1.574 . S
C3932 C3948 1.368 . S
H3933 C3941 0.950 . S
H3934 C3939 0.950 . S
H3935 C3940 0.949 . S
H3936 C3942 0.950 . S
H3937 C3943 0.950 . S
H3938 C3944 0.949 . S
C3939 H3934 0.950 . S
C3939 C3941 1.327 . S
C3939 C3945 1.429 . S
C3940 C3932 1.574 . S
C3940 H3935 0.949 . S
C3940 C3946 1.368 . S
C3941 C3925 1.349 . S
C3941 H3933 0.950 . S
C3941 C3939 1.327 . S
C3942 C3930 1.349 . S
C3942 H3936 0.950 . S
C3942 C3943 1.327 . S
C3943 H3937 0.950 . S
C3943 C3942 1.327 . S
C3943 C3947 1.429 . S
C3944 C3927 1.574 . S
C3944 H3938 0.949 . S
C3944 C3948 1.368 . S
C3945 C3926 1.429 . S
C3945 C3939 1.429 . S
C3945 C3946 1.523 . S
C3946 C3927 1.368 . S
C3946 C3940 1.368 . S
C3946 C3945 1.523 . S
C3947 C3931 1.429 . S
C3947 C3943 1.429 . S
C3947 C3948 1.523 . S
C3948 C3932 1.368 . S
C3948 C3944 1.368 . S
C3948 C3947 1.523 . S
H3949 C3924 0.950 . S
H3950 C3926 0.950 . S
H3951 C3927 0.949 . S
H3952 C3929 0.950 . S
H3953 C3931 0.950 . S
C3954 C3955 1.349 . S
C3954 C3956 1.327 . S
C3954 H3979 0.950 . S
C3955 C3954 1.349 . S
C3955 C3971 1.349 . S
C3956 C3954 1.327 . S
C3956 C3975 1.429 . S
C3956 H3980 0.950 . S
C3957 C3974 1.574 . S
C3957 C3976 1.368 . S
C3957 H3981 0.949 . S
H3958 C3962 0.949 . S
C3959 C3960 1.349 . S
C3959 C3961 1.327 . S
C3959 H3982 0.950 . S
C3960 C3959 1.349 . S
C3960 C3972 1.349 . S
C3961 C3959 1.327 . S
C3961 C3977 1.429 . S
C3961 H3983 0.950 . S
C3962 H3958 0.949 . S
C3962 C3970 1.574 . S
C3962 C3978 1.368 . S
H3963 C3971 0.950 . S
H3964 C3969 0.950 . S
H3965 C3970 0.949 . S
H3966 C3972 0.950 . S
H3967 C3973 0.950 . S
H3968 C3974 0.949 . S
C3969 H3964 0.950 . S
C3969 C3971 1.327 . S
C3969 C3975 1.429 . S
C3970 C3962 1.574 . S
C3970 H3965 0.949 . S
C3970 C3976 1.368 . S
C3971 C3955 1.349 . S
C3971 H3963 0.950 . S
C3971 C3969 1.327 . S
C3972 C3960 1.349 . S
C3972 H3966 0.950 . S
C3972 C3973 1.327 . S
C3973 H3967 0.950 . S
C3973 C3972 1.327 . S
C3973 C3977 1.429 . S
C3974 C3957 1.574 . S
C3974 H3968 0.949 . S
C3974 C3978 1.368 . S
C3975 C3956 1.429 . S
C3975 C3969 1.429 . S
C3975 C3976 1.523 . S
C3976 C3957 1.368 . S
C3976 C3970 1.368 . S
C3976 C3975 1.523 . S
C3977 C3961 1.429 . S
C3977 C3973 1.429 . S
C3977 C3978 1.523 . S
C3978 C3962 1.368 . S
C3978 C3974 1.368 . S
C3978 C3977 1.523 . S
H3979 C3954 0.950 . S
H3980 C3956 0.950 . S
H3981 C3957 0.949 . S
H3982 C3959 0.950 . S
H3983 C3961 0.950 . S
C1105 N219 2.390 . S
C1110 N12 2.390 . S
C1135 N242 2.390 . S
C1140 N35 2.390 1_455 S
C1165 N265 2.390 1_556 S
C1170 N58 2.390 . S
C1195 N196 2.390 . S
C1200 N81 2.390 . S
C1225 N104 2.390 . S
C1230 N357 2.390 1_554 S
C1255 N127 2.390 . S
C1260 N288 2.390 . S
C1285 N150 2.390 . S
C1290 N311 2.390 . S
C1315 N334 2.390 . S
C1320 N173 2.390 1_455 S
C1345 N380 2.390 . S
C1350 N426 2.390 . S
C1375 N403 2.390 . S
C1380 N1070 2.390 1_545 S
C1405 N449 2.390 . S
C1410 N1093 2.390 1_565 S
C1435 N472 2.390 1_545 S
C1440 N1047 2.390 . S
C1465 N495 2.390 . S
C1470 N1024 2.390 . S
C1495 N955 2.390 . S
C1500 N518 2.390 . S
C1525 N541 2.390 . S
C1530 N1001 2.390 . S
C1555 N771 2.390 1_556 S
C1560 N564 2.390 . S
C1585 N794 2.390 . S
C1590 N587 2.390 . S
C1615 N817 2.390 . S
C1620 N610 2.390 . S
C1645 N748 2.390 . S
C1650 N633 2.390 1_655 S
C1675 N909 2.390 . S
C1680 N656 2.390 . S
C1705 N840 2.390 . S
C1710 N679 2.390 1_655 S
C1735 N702 2.390 . S
C1740 N863 2.390 1_554 S
C1765 N725 2.390 . S
C1770 N886 2.390 . S
C1795 N932 2.390 . S
C1800 N978 2.390 1_565 S
C1825 C384 0.907 . S
C1830 N2 0.904 . S
C1855 C1097 0.907 . S
C1860 N25 0.904 . S
C1885 N48 0.904 . S
C1890 C499 0.907 . S
C1915 C1074 0.907 . S
C1920 N71 0.904 . S
C1945 N94 0.904 . S
C1950 C959 0.907 . S
C1975 C982 0.907 . S
C1980 N117 0.904 . S
C2005 N140 0.904 . S
C2010 C1005 0.907 . S
C2035 C476 0.907 . S
C2040 N163 0.904 . S
C2065 N186 0.904 . S
C2070 C16 0.908 . S
C2095 C39 0.907 . S
C2100 N209 0.904 . S
C2125 N232 0.904 . S
C2130 C62 0.907 . S
C2155 C85 0.907 . S
C2160 N255 0.904 . S
C2185 N278 0.904 . S
C2190 C108 0.907 . S
C2215 C131 0.907 . S
C2220 N301 0.904 . S
C2245 N324 0.904 . S
C2250 C154 0.907 . S
C2275 N347 0.904 . S
C2280 C177 0.908 . S
C2305 N370 0.904 . S
C2310 C200 0.908 . S
C2335 N393 0.904 . S
C2340 C844 0.907 . S
C2365 C867 0.907 . S
C2370 N416 0.904 . S
C2395 C890 0.907 . S
C2400 N439 0.904 . S
C2425 C361 0.908 . S
C2430 N462 0.904 . S
C2455 N485 0.904 . S
C2460 C246 0.907 . S
C2485 C821 0.907 . S
C2490 N508 0.904 . S
C2515 N531 0.904 . S
C2520 C775 0.907 . S
C2545 N554 0.904 . S
C2550 C936 0.907 . S
C2575 N577 0.904 . S
C2580 C545 0.907 . S
C2605 N600 0.904 . S
C2610 C1051 0.907 . S
C2635 N623 0.904 . S
C2640 C522 0.907 . S
C2665 N646 0.904 . S
C2670 C407 0.907 . S
C2695 N669 0.904 . S
C2700 C430 0.907 . S
C2725 C453 0.907 . S
C2730 N692 0.904 . S
C2755 C1028 0.907 . S
C2760 N715 0.904 . S
C2785 C568 0.908 . S
C2790 N738 0.904 . S
C2815 C591 0.907 . S
C2820 N761 0.904 . S
C2845 N784 0.904 . S
C2850 C614 0.907 . S
C2875 C637 0.907 . S
C2880 N807 0.904 . S
C2905 N830 0.904 . S
C2910 C660 0.907 . S
C2935 N853 0.904 . S
C2940 C683 0.907 . S
C2965 N876 0.904 . S
C2970 C706 0.907 . S
C2995 C729 0.908 . S
C3000 N899 0.904 . S
C3025 N922 0.904 . S
C3030 C752 0.908 . S
C3055 N945 0.904 . S
C3060 C292 0.907 . S
C3085 C315 0.907 . S
C3090 N968 0.904 . S
C3115 N991 0.904 . S
C3120 C338 0.907 . S
C3145 N1014 0.904 . S
C3150 C913 0.908 . S
C3175 C798 0.907 . S
C3180 N1037 0.904 . S
C3205 C269 0.907 . S
C3210 N1060 0.904 . S
C3235 C223 0.907 . S
C3240 N1083 0.904 . S
C3265 C513 1.317 . S
C3270 C7 1.317 . S
C3295 C30 1.317 . S
C3300 C927 1.317 . S
C3325 C53 1.317 . S
C3330 C536 1.317 . S
C3355 C1042 1.317 . S
C3360 C76 1.317 . S
C3385 C99 1.317 . S
C3390 C421 1.317 . S
C3415 C444 1.317 . S
C3420 C122 1.317 . S
C3445 C1019 1.317 . S
C3450 C145 1.317 . S
C3475 C168 1.317 . S
C3480 C398 1.317 . S
C3505 C306 1.317 . S
C3510 C191 1.317 . S
C3535 C214 1.317 . S
C3540 C329 1.317 . S
C3565 C352 1.317 . S
C3570 C237 1.317 . S
C3595 C260 1.317 . S
C3600 C283 1.317 . S
C3625 C582 1.317 . S
C3630 C375 1.317 . S
C3655 C467 1.317 . S
C3660 C697 1.317 . S
C3685 C490 1.317 . S
C3690 C628 1.317 . S
C3715 C1065 1.317 . S
C3720 C559 1.317 . S
C3745 C605 1.317 . S
C3750 C1088 1.317 . S
C3775 C651 1.317 . S
C3780 C973 1.317 . S
C3805 C674 1.317 . S
C3810 C996 1.317 . S
C3835 C950 1.317 . S
C3840 C720 1.317 . S
C3865 C858 1.317 . S
C3870 C743 1.317 . S
C3895 C766 1.317 . S
C3900 C881 1.317 . S
C3925 C789 1.317 . S
C3930 C904 1.317 . S
C3955 C835 1.317 . S
C3960 C812 1.317 . S
