# Generated by pormake.
# Topology wne, (6)-cn, num edge types: 1
# Building blocks:
#     Node 0, Type 0, BuildingBlock: BETGAK_clean_sbu_0, # of connection points: 6
#     Node 1, Type 0, BuildingBlock: BETGAK_clean_sbu_0, # of connection points: 6
#     Node 2, Type 0, BuildingBlock: BETGAK_clean_sbu_0, # of connection points: 6
#     Node 3, Type 0, BuildingBlock: BETGAK_clean_sbu_0, # of connection points: 6
#     Node 4, Type 0, BuildingBlock: BETGAK_clean_sbu_0, # of connection points: 6
#     Node 5, Type 0, BuildingBlock: BETGAK_clean_sbu_0, # of connection points: 6
#     Node 6, Type 0, BuildingBlock: BETGAK_clean_sbu_0, # of connection points: 6
#     Node 7, Type 0, BuildingBlock: BETGAK_clean_sbu_0, # of connection points: 6
#     Node 8, Type 0, BuildingBlock: BETGAK_clean_sbu_0, # of connection points: 6
#     Node 9, Type 0, BuildingBlock: BETGAK_clean_sbu_0, # of connection points: 6
#     Node 10, Type 0, BuildingBlock: BETGAK_clean_sbu_0, # of connection points: 6
#     Node 11, Type 0, BuildingBlock: BETGAK_clean_sbu_0, # of connection points: 6
#     Node 12, Type 0, BuildingBlock: BETGAK_clean_sbu_0, # of connection points: 6
#     Node 13, Type 0, BuildingBlock: BETGAK_clean_sbu_0, # of connection points: 6
#     Node 14, Type 0, BuildingBlock: BETGAK_clean_sbu_0, # of connection points: 6
#     Node 15, Type 0, BuildingBlock: BETGAK_clean_sbu_0, # of connection points: 6
#     Node 16, Type 0, BuildingBlock: BETGAK_clean_sbu_0, # of connection points: 6
#     Node 17, Type 0, BuildingBlock: BETGAK_clean_sbu_0, # of connection points: 6
#     Node 18, Type 0, BuildingBlock: BETGAK_clean_sbu_0, # of connection points: 6
#     Node 19, Type 0, BuildingBlock: BETGAK_clean_sbu_0, # of connection points: 6
#     Node 20, Type 0, BuildingBlock: BETGAK_clean_sbu_0, # of connection points: 6
#     Node 21, Type 0, BuildingBlock: BETGAK_clean_sbu_0, # of connection points: 6
#     Node 22, Type 0, BuildingBlock: BETGAK_clean_sbu_0, # of connection points: 6
#     Node 23, Type 0, BuildingBlock: BETGAK_clean_sbu_0, # of connection points: 6
#     Node 24, Type 0, BuildingBlock: BETGAK_clean_sbu_0, # of connection points: 6
#     Node 25, Type 0, BuildingBlock: BETGAK_clean_sbu_0, # of connection points: 6
#     Node 26, Type 0, BuildingBlock: BETGAK_clean_sbu_0, # of connection points: 6
#     Node 27, Type 0, BuildingBlock: BETGAK_clean_sbu_0, # of connection points: 6
#     Node 28, Type 0, BuildingBlock: BETGAK_clean_sbu_0, # of connection points: 6
#     Node 29, Type 0, BuildingBlock: BETGAK_clean_sbu_0, # of connection points: 6
#     Node 30, Type 0, BuildingBlock: BETGAK_clean_sbu_0, # of connection points: 6
#     Node 31, Type 0, BuildingBlock: BETGAK_clean_sbu_0, # of connection points: 6
#     Node 32, Type 0, BuildingBlock: BETGAK_clean_sbu_0, # of connection points: 6
#     Node 33, Type 0, BuildingBlock: BETGAK_clean_sbu_0, # of connection points: 6
#     Node 34, Type 0, BuildingBlock: BETGAK_clean_sbu_0, # of connection points: 6
#     Node 35, Type 0, BuildingBlock: BETGAK_clean_sbu_0, # of connection points: 6
#     Edge 36, Type (0, 0), BuildingBlock: OJICUG_clean_linker_0, # of connection points: 2
#     Edge 37, Type (0, 0), BuildingBlock: OJICUG_clean_linker_0, # of connection points: 2
#     Edge 38, Type (0, 0), BuildingBlock: OJICUG_clean_linker_0, # of connection points: 2
#     Edge 39, Type (0, 0), BuildingBlock: OJICUG_clean_linker_0, # of connection points: 2
#     Edge 40, Type (0, 0), BuildingBlock: OJICUG_clean_linker_0, # of connection points: 2
#     Edge 41, Type (0, 0), BuildingBlock: OJICUG_clean_linker_0, # of connection points: 2
#     Edge 42, Type (0, 0), BuildingBlock: OJICUG_clean_linker_0, # of connection points: 2
#     Edge 43, Type (0, 0), BuildingBlock: OJICUG_clean_linker_0, # of connection points: 2
#     Edge 44, Type (0, 0), BuildingBlock: OJICUG_clean_linker_0, # of connection points: 2
#     Edge 45, Type (0, 0), BuildingBlock: OJICUG_clean_linker_0, # of connection points: 2
#     Edge 46, Type (0, 0), BuildingBlock: OJICUG_clean_linker_0, # of connection points: 2
#     Edge 47, Type (0, 0), BuildingBlock: OJICUG_clean_linker_0, # of connection points: 2
#     Edge 48, Type (0, 0), BuildingBlock: OJICUG_clean_linker_0, # of connection points: 2
#     Edge 49, Type (0, 0), BuildingBlock: OJICUG_clean_linker_0, # of connection points: 2
#     Edge 50, Type (0, 0), BuildingBlock: OJICUG_clean_linker_0, # of connection points: 2
#     Edge 51, Type (0, 0), BuildingBlock: OJICUG_clean_linker_0, # of connection points: 2
#     Edge 52, Type (0, 0), BuildingBlock: OJICUG_clean_linker_0, # of connection points: 2
#     Edge 53, Type (0, 0), BuildingBlock: OJICUG_clean_linker_0, # of connection points: 2
#     Edge 54, Type (0, 0), BuildingBlock: OJICUG_clean_linker_0, # of connection points: 2
#     Edge 55, Type (0, 0), BuildingBlock: OJICUG_clean_linker_0, # of connection points: 2
#     Edge 56, Type (0, 0), BuildingBlock: OJICUG_clean_linker_0, # of connection points: 2
#     Edge 57, Type (0, 0), BuildingBlock: OJICUG_clean_linker_0, # of connection points: 2
#     Edge 58, Type (0, 0), BuildingBlock: OJICUG_clean_linker_0, # of connection points: 2
#     Edge 59, Type (0, 0), BuildingBlock: OJICUG_clean_linker_0, # of connection points: 2
#     Edge 60, Type (0, 0), BuildingBlock: OJICUG_clean_linker_0, # of connection points: 2
#     Edge 61, Type (0, 0), BuildingBlock: OJICUG_clean_linker_0, # of connection points: 2
#     Edge 62, Type (0, 0), BuildingBlock: OJICUG_clean_linker_0, # of connection points: 2
#     Edge 63, Type (0, 0), BuildingBlock: OJICUG_clean_linker_0, # of connection points: 2
#     Edge 64, Type (0, 0), BuildingBlock: OJICUG_clean_linker_0, # of connection points: 2
#     Edge 65, Type (0, 0), BuildingBlock: OJICUG_clean_linker_0, # of connection points: 2
#     Edge 66, Type (0, 0), BuildingBlock: OJICUG_clean_linker_0, # of connection points: 2
#     Edge 67, Type (0, 0), BuildingBlock: OJICUG_clean_linker_0, # of connection points: 2
#     Edge 68, Type (0, 0), BuildingBlock: OJICUG_clean_linker_0, # of connection points: 2
#     Edge 69, Type (0, 0), BuildingBlock: OJICUG_clean_linker_0, # of connection points: 2
#     Edge 70, Type (0, 0), BuildingBlock: OJICUG_clean_linker_0, # of connection points: 2
#     Edge 71, Type (0, 0), BuildingBlock: OJICUG_clean_linker_0, # of connection points: 2
#     Edge 72, Type (0, 0), BuildingBlock: OJICUG_clean_linker_0, # of connection points: 2
#     Edge 73, Type (0, 0), BuildingBlock: OJICUG_clean_linker_0, # of connection points: 2
#     Edge 74, Type (0, 0), BuildingBlock: OJICUG_clean_linker_0, # of connection points: 2
#     Edge 75, Type (0, 0), BuildingBlock: OJICUG_clean_linker_0, # of connection points: 2
#     Edge 76, Type (0, 0), BuildingBlock: OJICUG_clean_linker_0, # of connection points: 2
#     Edge 77, Type (0, 0), BuildingBlock: OJICUG_clean_linker_0, # of connection points: 2
#     Edge 78, Type (0, 0), BuildingBlock: OJICUG_clean_linker_0, # of connection points: 2
#     Edge 79, Type (0, 0), BuildingBlock: OJICUG_clean_linker_0, # of connection points: 2
#     Edge 80, Type (0, 0), BuildingBlock: OJICUG_clean_linker_0, # of connection points: 2
#     Edge 81, Type (0, 0), BuildingBlock: OJICUG_clean_linker_0, # of connection points: 2
#     Edge 82, Type (0, 0), BuildingBlock: OJICUG_clean_linker_0, # of connection points: 2
#     Edge 83, Type (0, 0), BuildingBlock: OJICUG_clean_linker_0, # of connection points: 2
#     Edge 84, Type (0, 0), BuildingBlock: OJICUG_clean_linker_0, # of connection points: 2
#     Edge 85, Type (0, 0), BuildingBlock: OJICUG_clean_linker_0, # of connection points: 2
#     Edge 86, Type (0, 0), BuildingBlock: OJICUG_clean_linker_0, # of connection points: 2
#     Edge 87, Type (0, 0), BuildingBlock: OJICUG_clean_linker_0, # of connection points: 2
#     Edge 88, Type (0, 0), BuildingBlock: OJICUG_clean_linker_0, # of connection points: 2
#     Edge 89, Type (0, 0), BuildingBlock: OJICUG_clean_linker_0, # of connection points: 2
#     Edge 90, Type (0, 0), BuildingBlock: OJICUG_clean_linker_0, # of connection points: 2
#     Edge 91, Type (0, 0), BuildingBlock: OJICUG_clean_linker_0, # of connection points: 2
#     Edge 92, Type (0, 0), BuildingBlock: OJICUG_clean_linker_0, # of connection points: 2
#     Edge 93, Type (0, 0), BuildingBlock: OJICUG_clean_linker_0, # of connection points: 2
#     Edge 94, Type (0, 0), BuildingBlock: OJICUG_clean_linker_0, # of connection points: 2
#     Edge 95, Type (0, 0), BuildingBlock: OJICUG_clean_linker_0, # of connection points: 2
#     Edge 96, Type (0, 0), BuildingBlock: OJICUG_clean_linker_0, # of connection points: 2
#     Edge 97, Type (0, 0), BuildingBlock: OJICUG_clean_linker_0, # of connection points: 2
#     Edge 98, Type (0, 0), BuildingBlock: OJICUG_clean_linker_0, # of connection points: 2
#     Edge 99, Type (0, 0), BuildingBlock: OJICUG_clean_linker_0, # of connection points: 2
#     Edge 100, Type (0, 0), BuildingBlock: OJICUG_clean_linker_0, # of connection points: 2
#     Edge 101, Type (0, 0), BuildingBlock: OJICUG_clean_linker_0, # of connection points: 2
#     Edge 102, Type (0, 0), BuildingBlock: OJICUG_clean_linker_0, # of connection points: 2
#     Edge 103, Type (0, 0), BuildingBlock: OJICUG_clean_linker_0, # of connection points: 2
#     Edge 104, Type (0, 0), BuildingBlock: OJICUG_clean_linker_0, # of connection points: 2
#     Edge 105, Type (0, 0), BuildingBlock: OJICUG_clean_linker_0, # of connection points: 2
#     Edge 106, Type (0, 0), BuildingBlock: OJICUG_clean_linker_0, # of connection points: 2
#     Edge 107, Type (0, 0), BuildingBlock: OJICUG_clean_linker_0, # of connection points: 2
#     Edge 108, Type (0, 0), BuildingBlock: OJICUG_clean_linker_0, # of connection points: 2
#     Edge 109, Type (0, 0), BuildingBlock: OJICUG_clean_linker_0, # of connection points: 2
#     Edge 110, Type (0, 0), BuildingBlock: OJICUG_clean_linker_0, # of connection points: 2
#     Edge 111, Type (0, 0), BuildingBlock: OJICUG_clean_linker_0, # of connection points: 2
#     Edge 112, Type (0, 0), BuildingBlock: OJICUG_clean_linker_0, # of connection points: 2
#     Edge 113, Type (0, 0), BuildingBlock: OJICUG_clean_linker_0, # of connection points: 2
#     Edge 114, Type (0, 0), BuildingBlock: OJICUG_clean_linker_0, # of connection points: 2
#     Edge 115, Type (0, 0), BuildingBlock: OJICUG_clean_linker_0, # of connection points: 2
#     Edge 116, Type (0, 0), BuildingBlock: OJICUG_clean_linker_0, # of connection points: 2
#     Edge 117, Type (0, 0), BuildingBlock: OJICUG_clean_linker_0, # of connection points: 2
#     Edge 118, Type (0, 0), BuildingBlock: OJICUG_clean_linker_0, # of connection points: 2
#     Edge 119, Type (0, 0), BuildingBlock: OJICUG_clean_linker_0, # of connection points: 2
#     Edge 120, Type (0, 0), BuildingBlock: OJICUG_clean_linker_0, # of connection points: 2
#     Edge 121, Type (0, 0), BuildingBlock: OJICUG_clean_linker_0, # of connection points: 2
#     Edge 122, Type (0, 0), BuildingBlock: OJICUG_clean_linker_0, # of connection points: 2
#     Edge 123, Type (0, 0), BuildingBlock: OJICUG_clean_linker_0, # of connection points: 2
#     Edge 124, Type (0, 0), BuildingBlock: OJICUG_clean_linker_0, # of connection points: 2
#     Edge 125, Type (0, 0), BuildingBlock: OJICUG_clean_linker_0, # of connection points: 2
#     Edge 126, Type (0, 0), BuildingBlock: OJICUG_clean_linker_0, # of connection points: 2
#     Edge 127, Type (0, 0), BuildingBlock: OJICUG_clean_linker_0, # of connection points: 2
#     Edge 128, Type (0, 0), BuildingBlock: OJICUG_clean_linker_0, # of connection points: 2
#     Edge 129, Type (0, 0), BuildingBlock: OJICUG_clean_linker_0, # of connection points: 2
#     Edge 130, Type (0, 0), BuildingBlock: OJICUG_clean_linker_0, # of connection points: 2
#     Edge 131, Type (0, 0), BuildingBlock: OJICUG_clean_linker_0, # of connection points: 2
#     Edge 132, Type (0, 0), BuildingBlock: OJICUG_clean_linker_0, # of connection points: 2
#     Edge 133, Type (0, 0), BuildingBlock: OJICUG_clean_linker_0, # of connection points: 2
#     Edge 134, Type (0, 0), BuildingBlock: OJICUG_clean_linker_0, # of connection points: 2
#     Edge 135, Type (0, 0), BuildingBlock: OJICUG_clean_linker_0, # of connection points: 2
#     Edge 136, Type (0, 0), BuildingBlock: OJICUG_clean_linker_0, # of connection points: 2
#     Edge 137, Type (0, 0), BuildingBlock: OJICUG_clean_linker_0, # of connection points: 2
#     Edge 138, Type (0, 0), BuildingBlock: OJICUG_clean_linker_0, # of connection points: 2
#     Edge 139, Type (0, 0), BuildingBlock: OJICUG_clean_linker_0, # of connection points: 2
#     Edge 140, Type (0, 0), BuildingBlock: OJICUG_clean_linker_0, # of connection points: 2
#     Edge 141, Type (0, 0), BuildingBlock: OJICUG_clean_linker_0, # of connection points: 2
#     Edge 142, Type (0, 0), BuildingBlock: OJICUG_clean_linker_0, # of connection points: 2
#     Edge 143, Type (0, 0), BuildingBlock: OJICUG_clean_linker_0, # of connection points: 2
# Relax obj value: 0.485
# Max RMSD: 0.282
# Mean RMSD: 0.282
data_MOF--net-wne--node1-BETGAK_clean_sbu_0--edge1-OJICUG_clean_linker_0
_symmetry_space_group_name_H-M    P1
_symmetry_Int_Tables_number       1
_symmetry_cell_setting            triclinic
loop_
_symmetry_equiv_pos_as_xyz
'x, y, z'
_cell_length_a     67.387387
_cell_length_b     67.458062
_cell_length_c     22.420211
_cell_angle_alpha  90.034762
_cell_angle_beta   89.889167
_cell_angle_gamma 119.9179
loop_
_atom_site_label
_atom_site_type_symbol
_atom_site_fract_x
_atom_site_fract_y
_atom_site_fract_z
_atom_type_partial_charge
La0 La 0.3339 0.22814 0.10021 0.0
La1 La 0.36517 0.27272 0.12635 0.0
C2 C 0.31138 0.18526 0.07389 0.0
C3 C 0.31128 0.16277 0.06403 0.0
C4 C 0.29985 0.14448 0.10472 0.0
C5 C 0.29677 0.12242 0.09333 0.0
C6 C 0.30495 0.11744 0.04049 0.0
C7 C 0.31678 0.13592 1.00015 0.0
C8 C 0.31974 0.15799 1.01145 0.0
C9 C 0.31704 0.24669 0.18501 0.0
C10 C 0.38103 0.23625 0.15723 0.0
C11 C 0.3873 0.31052 0.17868 0.0
C12 C 0.37932 0.32694 0.18644 0.0
C13 C 0.35566 0.31897 0.18664 0.0
C14 C 0.34735 0.3339 0.17668 0.0
C15 C 0.36273 0.35711 0.16724 0.0
C16 C 0.38644 0.36542 0.1726 0.0
C17 C 0.3947 0.35036 0.18144 0.0
C18 C 0.3755 0.26535 0.01589 0.0
C19 C 0.32158 0.2639 0.05075 0.0
O20 O 0.31409 0.19354 0.12798 0.0
O21 O 0.32076 0.20184 0.0345 0.0
O22 O 0.30583 0.23273 0.14206 0.0
O23 O 0.33701 0.24874 0.18075 0.0
O24 O 0.35954 0.22123 0.14388 0.0
O25 O 0.38762 0.25834 0.15253 0.0
O26 O 0.39081 0.30733 0.12329 0.0
O27 O 0.37556 0.29115 0.2069 0.0
O28 O 0.37243 0.28199 0.0329 0.0
O29 O 0.36875 0.25101 0.06009 0.0
O30 O 0.33681 0.27729 0.09098 0.0
O31 O 0.32058 0.2442 0.03762 0.0
H32 H 0.2927 0.14707 0.14532 0.0
H33 H 0.28786 0.10921 0.12644 0.0
H34 H 0.32323 0.13322 0.9585 0.0
H35 H 0.32826 0.17121 0.97809 0.0
H36 H 0.34364 0.30093 0.18996 0.0
H37 H 0.3291 0.3271 0.17165 0.0
H38 H 0.39869 0.38325 0.16401 0.0
H39 H 0.41298 0.35678 0.18038 0.0
La40 La 0.91065 0.13391 0.10167 0.0
La41 La 0.864 0.11804 0.12113 0.0
C42 C 0.95372 0.15644 0.07711 0.0
C43 C 0.97582 0.17917 0.06725 0.0
C44 C 0.99459 0.18575 0.10602 0.0
C45 C 1.01638 0.20505 0.09439 0.0
C46 C 1.02061 0.21889 0.04324 0.0
C47 C 1.00162 0.2126 1.00499 0.0
C48 C 0.9798 0.1931 0.01646 0.0
C49 C 0.89203 0.09826 0.18558 0.0
C50 C 0.899 0.17059 0.15773 0.0
C51 C 0.82426 0.10041 0.16619 0.0
C52 C 0.80739 0.07591 0.17224 0.0
C53 C 0.78448 0.0682 0.18651 0.0
C54 C 0.76835 1.04483 0.18189 0.0
C55 C 0.77518 1.02897 0.16416 0.0
C56 C 0.79845 1.03664 0.15698 0.0
C57 C 0.81396 0.05985 0.15756 0.0
C58 C 0.87398 0.13693 1.01238 0.0
C59 C 0.87772 0.0852 0.05136 0.0
O60 O 0.9452 0.15076 0.13103 0.0
O61 O 0.93736 0.1484 0.03699 0.0
O62 O 0.90879 0.10339 0.14882 0.0
O63 O 0.88792 0.11483 0.17805 0.0
O64 O 0.91489 0.16501 0.14704 0.0
O65 O 0.8771 0.15461 0.14989 0.0
O66 O 0.82908 0.10764 0.11138 0.0
O67 O 0.8429 0.10763 0.19753 0.0
O68 O 0.85719 0.11684 0.02595 0.0
O69 O 0.88694 0.14445 0.05917 0.0
O70 O 0.86295 0.0866 0.08751 0.0
O71 O 0.89734 0.10419 0.04005 0.0
H72 H 0.9926 0.1755 0.14516 0.0
H73 H 1.03002 0.20905 0.12591 0.0
H74 H 1.00376 0.22232 0.96475 0.0
H75 H 0.96615 0.18868 0.98463 0.0
H76 H 0.77885 0.08027 0.19736 0.0
H77 H 0.75042 1.03959 0.18708 0.0
H78 H 0.80434 1.02498 0.14382 0.0
H79 H 0.83104 0.06516 0.14397 0.0
La80 La 1.00337 0.80134 0.09972 0.0
La81 La 1.01697 0.77042 0.12713 0.0
C82 C 0.98247 0.82331 0.07272 0.0
C83 C 0.95975 0.82277 0.06342 0.0
C84 C 0.95248 0.83375 0.10454 0.0
C85 C 0.93313 0.83626 0.09369 0.0
C86 C 0.92 0.82794 0.041 0.0
C87 C 0.92702 0.81652 1.00028 0.0
C88 C 0.94652 0.81412 1.01104 0.0
C89 C 1.0387 0.81885 0.18431 0.0
C90 C 0.96458 0.75416 0.15622 0.0
C91 C 1.03262 0.74896 0.18293 0.0
C92 C 1.05705 0.75833 0.19437 0.0
C93 C 1.06678 0.74435 0.18918 0.0
C94 C 0.09021 0.75424 0.17832 0.0
C95 C 0.10393 0.77813 0.17124 0.0
C96 C 0.09461 0.79213 0.18281 0.0
C97 C 1.07131 0.78221 0.19464 0.0
C98 C 1.00055 0.76055 0.01593 0.0
C99 C 1.0516 0.81391 0.05125 0.0
O100 O 0.98833 0.82102 0.12681 0.0
O101 O 0.98982 0.81395 0.03358 0.0
O102 O 1.03579 0.82976 0.1408 0.0
O103 O 1.02095 0.79876 0.18064 0.0
O104 O 0.97106 0.77572 0.14408 0.0
O105 O 0.98007 0.74757 0.15081 0.0
O106 O 1.02738 0.74579 0.12652 0.0
O107 O 1.02326 0.75951 0.20937 0.0
O108 O 1.01985 0.76298 0.03434 0.0
O109 O 0.99206 0.76672 0.05936 0.0
O110 O 1.04982 0.7989 0.09216 0.0
O111 O 1.03284 0.81469 0.03735 0.0
H112 H 0.96219 0.841 0.14501 0.0
H113 H 0.92853 0.84486 0.12707 0.0
H114 H 0.91788 0.80999 0.95876 0.0
H115 H 0.95152 0.80592 0.97743 0.0
H116 H 1.05606 0.72591 0.18803 0.0
H117 H 0.09703 0.74305 0.16844 0.0
H118 H 0.1048 0.81048 0.17692 0.0
H119 H 1.064 0.79314 0.19801 0.0
La120 La 0.25638 0.30736 0.43213 0.0
La121 La 0.30094 0.33801 0.40222 0.0
C122 C 0.2136 0.28575 0.46042 0.0
C123 C 0.19146 0.28644 0.46985 0.0
C124 C 0.17375 0.27682 0.42702 0.0
C125 C 0.15186 0.27431 0.43779 0.0
C126 C 0.14647 0.28125 0.49213 0.0
C127 C 0.16438 0.29131 0.53462 0.0
C128 C 0.18629 0.2937 0.52391 0.0
C129 C 0.2738 0.28942 0.34735 0.0
C130 C 0.26482 0.35442 0.37432 0.0
C131 C 0.3374 0.35848 0.34291 0.0
C132 C 0.35206 0.34887 0.32807 0.0
C133 C 0.37556 0.36314 0.32042 0.0
C134 C 0.39 0.35389 0.32216 0.0
C135 C 0.38112 0.33029 0.33237 0.0
C136 C 0.35743 0.31585 0.33551 0.0
C137 C 0.34305 0.32514 0.33292 0.0
C138 C 0.29506 0.34865 0.51337 0.0
C139 C 0.2922 0.29493 0.47983 0.0
O140 O 0.22159 0.28766 0.4062 0.0
O141 O 0.23042 0.29529 0.49906 0.0
O142 O 0.26018 0.2787 0.39143 0.0
O143 O 0.27611 0.30949 0.3507 0.0
O144 O 0.24973 0.33294 0.38737 0.0
O145 O 0.28691 0.36095 0.37894 0.0
O146 O 0.33622 0.36172 0.3998 0.0
O147 O 0.31714 0.34817 0.31856 0.0
O148 O 0.31195 0.34635 0.49417 0.0
O149 O 0.28012 0.34218 0.47071 0.0
O150 O 0.30525 0.30967 0.43822 0.0
O151 O 0.27273 0.29425 0.4943 0.0
H152 H 0.17661 0.27061 0.38515 0.0
H153 H 0.13909 0.26678 0.40307 0.0
H154 H 0.16132 0.29673 0.57743 0.0
H155 H 0.19903 0.30078 0.55886 0.0
H156 H 0.38285 0.3815 0.3171 0.0
H157 H 0.40827 0.3655 0.32024 0.0
H158 H 0.35021 0.29776 0.34448 0.0
H159 H 0.32501 0.31401 0.33953 0.0
La160 La 0.83108 0.97518 0.4272 0.0
La161 La 0.80039 0.99046 0.40553 0.0
C162 C 0.85193 0.95301 0.45245 0.0
C163 C 0.8513 0.93028 0.4623 0.0
C164 C 0.86326 0.92352 0.42299 0.0
C165 C 0.86575 0.90421 0.43454 0.0
C166 C 0.85639 0.89057 0.48612 0.0
C167 C 0.84394 0.89705 0.52492 0.0
C168 C 0.8416 0.91654 0.51353 0.0
C169 C 0.84849 1.01075 0.34288 0.0
C170 C 0.78298 0.9379 0.37193 0.0
C171 C 0.77882 1.0075 0.3553 0.0
C172 C 0.78816 1.03193 0.34289 0.0
C173 C 0.77401 1.0412 0.33235 0.0
C174 C 0.7832 0.06493 0.3358 0.0
C175 C 0.80663 0.07944 0.34931 0.0
C176 C 0.82104 0.07019 0.35138 0.0
C177 C 0.81163 1.04669 0.35118 0.0
C178 C 0.79106 0.97247 0.51531 0.0
C179 C 0.84612 1.02384 0.47667 0.0
O180 O 0.84925 0.95869 0.39846 0.0
O181 O 0.84334 0.96093 0.4923 0.0
O182 O 0.85986 1.00612 0.38162 0.0
O183 O 0.82791 0.99392 0.34937 0.0
O184 O 0.80456 0.94379 0.38199 0.0
O185 O 0.77687 0.95371 0.37988 0.0
O186 O 0.77705 1.00251 0.41187 0.0
O187 O 0.78857 0.99785 0.32635 0.0
O188 O 0.79388 0.9922 0.4998 0.0
O189 O 0.79676 0.96454 0.46967 0.0
O190 O 0.83021 1.02231 0.43949 0.0
O191 O 0.84678 1.00491 0.4888 0.0
H192 H 0.87131 0.93362 0.38348 0.0
H193 H 0.87518 0.90005 0.40261 0.0
H194 H 0.83656 0.88747 0.56551 0.0
H195 H 0.83259 0.92112 0.54576 0.0
H196 H 0.75574 1.03015 0.32652 0.0
H197 H 0.7715 0.07155 0.33457 0.0
H198 H 0.83904 0.08088 0.36188 0.0
H199 H 0.82265 1.04004 0.3617 0.0
La200 La 0.16017 0.87993 0.43056 0.0
La201 La 0.14677 0.83522 0.40259 0.0
C202 C 0.18052 0.9228 0.45763 0.0
C203 C 0.20271 0.94547 0.46792 0.0
C204 C 0.20938 0.9639 0.42776 0.0
C205 C 0.22811 0.98607 0.4396 0.0
C206 C 0.24124 0.99105 0.4924 0.0
C207 C 0.23476 0.97245 0.53223 0.0
C208 C 0.21588 0.95027 0.52049 0.0
C209 C 0.12466 0.86169 0.34625 0.0
C210 C 0.19912 0.87146 0.37305 0.0
C211 C 0.13174 0.79844 0.34513 0.0
C212 C 0.10766 0.7829 0.33079 0.0
C213 C 0.09927 0.7594 0.32696 0.0
C214 C 1.07582 0.74428 0.33286 0.0
C215 C 1.06059 0.75258 0.34352 0.0
C216 C 1.06886 0.77614 0.34101 0.0
C217 C 0.09225 0.79115 0.33452 0.0
C218 C 0.16482 0.84222 0.51279 0.0
C219 C 0.11205 0.84383 0.47957 0.0
O220 O 0.17506 0.91464 0.40342 0.0
O221 O 0.17334 0.90611 0.49671 0.0
O222 O 0.12749 0.87555 0.3896 0.0
O223 O 0.14258 0.8596 0.34994 0.0
O224 O 0.19268 0.88655 0.38652 0.0
O225 O 0.18361 0.8494 0.37763 0.0
O226 O 0.13611 0.80017 0.40207 0.0
O227 O 0.14093 0.8185 0.31979 0.0
O228 O 0.1455 0.82517 0.49518 0.0
O229 O 0.17208 0.85682 0.4691 0.0
O230 O 0.11389 0.83059 0.43871 0.0
O231 O 0.13074 0.86346 0.49319 0.0
H232 H 0.19967 0.96133 0.38721 0.0
H233 H 0.23226 0.99936 0.40684 0.0
H234 H 0.24385 0.9751 0.57386 0.0
H235 H 0.21133 0.93697 0.55351 0.0
H236 H 0.11093 0.75273 0.32463 0.0
H237 H 1.07 0.72616 0.33562 0.0
H238 H 1.05759 0.78295 0.34975 0.0
H239 H 0.09856 0.80923 0.33795 0.0
La240 La 0.80001 0.83566 0.90317 0.0
La241 La 0.83066 0.88017 0.93168 0.0
C242 C 0.77943 0.79867 0.84635 0.0
C243 C 0.78923 0.78406 0.83277 0.0
C244 C 0.77521 0.76039 0.82875 0.0
C245 C 0.78494 0.74637 0.83174 0.0
C246 C 0.80877 0.75588 0.83947 0.0
C247 C 0.82286 0.7796 0.83948 0.0
C248 C 0.81309 0.79352 0.83567 0.0
C249 C 0.78859 0.84184 1.0137 0.0
C250 C 0.84323 0.84453 0.9801 0.0
C251 C 0.85299 0.92306 0.95828 0.0
C252 C 0.85351 0.94577 0.96796 0.0
C253 C 0.8658 0.9642 0.92815 0.0
C254 C 0.86924 0.9864 0.93948 0.0
C255 C 0.86055 0.99139 0.99135 0.0
C256 C 0.8479 0.97279 0.03082 0.0
C257 C 0.8446 0.95057 0.01962 0.0
C258 C 0.84835 0.86248 0.84688 0.0
C259 C 0.78326 0.87138 0.87416 0.0
O260 O 0.77637 0.80037 0.90309 0.0
O261 O 0.7895 0.81868 0.82062 0.0
O262 O 0.79155 0.82526 0.9955 0.0
O263 O 0.79572 0.85673 0.97073 0.0
O264 O 0.82841 0.83142 0.93889 0.0
O265 O 0.84389 0.86399 0.99422 0.0
O266 O 0.8504 0.91482 0.90421 0.0
O267 O 0.84339 0.90646 0.99755 0.0
O268 O 0.85917 0.87607 0.89078 0.0
O269 O 0.82834 0.86031 0.85047 0.0
O270 O 0.80467 0.88657 0.88797 0.0
O271 O 0.77693 0.84935 0.87831 0.0
H272 H 0.75676 0.75273 0.82736 0.0
H273 H 0.77363 0.72804 0.83303 0.0
H274 H 0.84111 0.78727 0.84689 0.0
H275 H 0.82399 0.81167 0.83983 0.0
H276 H 0.87334 0.9616 0.88833 0.0
H277 H 0.8788 0.99971 0.90707 0.0
H278 H 0.84103 0.97547 0.07175 0.0
H279 H 0.83542 0.93725 0.05231 0.0
La280 La 0.29972 0.99013 0.90778 0.0
La281 La 0.25429 0.97531 0.93053 0.0
C282 C 0.33815 1.0068 0.85652 0.0
C283 C 0.35342 1.03122 0.84446 0.0
C284 C 0.37683 1.04027 0.8343 0.0
C285 C 0.39154 0.06395 0.83845 0.0
C286 C 0.38278 0.0786 0.85232 0.0
C287 C 0.35918 0.06961 0.85416 0.0
C288 C 0.34489 1.04614 0.85313 0.0
C289 C 0.29177 0.97247 0.01773 0.0
C290 C 0.28799 1.02382 0.97997 0.0
C291 C 0.21131 0.95339 0.95627 0.0
C292 C 0.18934 0.93058 0.96588 0.0
C293 C 0.17119 0.92301 0.92453 0.0
C294 C 0.14943 0.90361 0.93564 0.0
C295 C 0.14464 0.89072 0.98883 0.0
C296 C 0.163 0.89804 0.02977 0.0
C297 C 0.18478 0.9176 0.01875 0.0
C298 C 0.2723 1.01085 0.84614 0.0
C299 C 0.26428 0.93763 0.87463 0.0
O300 O 0.33501 1.00168 0.91301 0.0
O301 O 0.31871 0.99744 0.82805 0.0
O302 O 0.30846 0.99223 1.00158 0.0
O303 O 0.27778 0.96437 0.97289 0.0
O304 O 0.30219 1.02218 0.94219 0.0
O305 O 0.26841 1.00496 0.99236 0.0
O306 O 0.21967 0.95916 0.90227 0.0
O307 O 0.22782 0.96121 0.99594 0.0
O308 O 0.25662 1.00647 0.8858 0.0
O309 O 0.27581 0.99384 0.85188 0.0
O310 O 0.24878 0.94376 0.88492 0.0
O311 O 0.28622 0.95329 0.8824 0.0
H312 H 0.3839 1.02908 0.82827 0.0
H313 H 0.40982 0.07038 0.83748 0.0
H314 H 0.35202 0.08042 0.8651 0.0
H315 H 0.32723 1.03964 0.86353 0.0
H316 H 0.17362 0.93252 0.88368 0.0
H317 H 0.13628 0.89877 0.90211 0.0
H318 H 0.1604 0.8891 0.07167 0.0
H319 H 0.19792 0.92284 0.05255 0.0
La320 La 0.14805 0.33878 0.90147 0.0
La321 La 0.16182 0.30785 0.92765 0.0
C322 C 0.13246 0.36059 0.84659 0.0
C323 C 0.10812 0.35227 0.83645 0.0
C324 C 0.09276 0.32864 0.83992 0.0
C325 C 1.06954 0.3203 0.85026 0.0
C326 C 1.06139 0.33561 0.85658 0.0
C327 C 1.07641 0.35914 0.84653 0.0
C328 C 0.09972 0.36745 0.83709 0.0
C329 C 0.16521 0.34881 1.01193 0.0
C330 C 0.1137 0.29531 0.97801 0.0
C331 C 0.18286 0.28593 0.95407 0.0
C332 C 0.20553 0.28631 0.9636 0.0
C333 C 0.21196 0.27396 0.92476 0.0
C334 C 0.23125 0.27137 0.93607 0.0
C335 C 0.24521 0.28101 0.98696 0.0
C336 C 0.23906 0.29382 0.02529 0.0
C337 C 0.21959 0.29628 0.01413 0.0
C338 C 0.12605 0.29039 0.84407 0.0
C339 C 0.20051 0.35524 0.87115 0.0
O340 O 0.13826 0.36388 0.90262 0.0
O341 O 0.14077 0.34914 0.81975 0.0
O342 O 0.1458 0.3464 0.99458 0.0
O343 O 0.17333 0.34247 0.96805 0.0
O344 O 0.11534 0.31048 0.93778 0.0
O345 O 0.13249 0.29438 0.99069 0.0
O346 O 0.17706 0.28835 0.90002 0.0
O347 O 0.17545 0.29517 0.99339 0.0
O348 O 0.12923 0.27943 0.887 0.0
O349 O 0.14388 0.31045 0.84746 0.0
O350 O 0.19411 0.33368 0.88331 0.0
O351 O 0.18491 0.3617 0.87664 0.0
H352 H 0.09909 0.31683 0.83973 0.0
H353 H 1.05841 0.30221 0.85856 0.0
H354 H 1.07062 0.3714 0.85239 0.0
H355 H 0.11134 0.38574 0.8352 0.0
H356 H 0.20163 0.2657 0.88579 0.0
H357 H 0.23514 0.26165 0.90447 0.0
H358 H 0.24886 0.30144 0.06537 0.0
H359 H 0.21529 0.30562 0.046 0.0
La360 La 0.86346 0.77034 0.62621 0.0
La361 La 0.90835 0.80109 0.60027 0.0
C362 C 0.82586 0.74864 0.68025 0.0
C363 C 0.80994 0.75709 0.6908 0.0
C364 C 0.81839 0.78079 0.69024 0.0
C365 C 0.80371 0.78949 0.6818 0.0
C366 C 0.78027 0.77446 0.6744 0.0
C367 C 0.77155 0.75074 0.68131 0.0
C368 C 0.78636 0.74209 0.68878 0.0
C369 C 0.87082 0.76048 0.51569 0.0
C370 C 0.873 0.8141 0.55081 0.0
C371 C 0.95135 0.82269 0.57394 0.0
C372 C 0.97358 0.82213 0.56475 0.0
C373 C 0.99214 0.83407 0.60431 0.0
C374 C 1.014 0.83653 0.59337 0.0
C375 C 1.01854 0.82716 0.54213 0.0
C376 C 0.99979 0.81475 0.50304 0.0
C377 C 0.97789 0.81244 0.51384 0.0
C378 C 0.89015 0.8184 0.68461 0.0
C379 C 0.89909 0.75359 0.65693 0.0
O380 O 0.82852 0.74554 0.62414 0.0
O381 O 0.84551 0.75977 0.70754 0.0
O382 O 0.85391 0.76308 0.53293 0.0
O383 O 0.88512 0.76658 0.55971 0.0
O384 O 0.8594 0.79893 0.59096 0.0
O385 O 0.89267 0.81491 0.53786 0.0
O386 O 0.94303 0.82042 0.62792 0.0
O387 O 0.93476 0.81348 0.5346 0.0
O388 O 0.90431 0.82949 0.64177 0.0
O389 O 0.88777 0.79831 0.68057 0.0
O390 O 0.91439 0.77511 0.64496 0.0
O391 O 0.8771 0.74722 0.65102 0.0
H392 H 0.83655 0.79249 0.69132 0.0
H393 H 0.81083 0.80773 0.67569 0.0
H394 H 0.75353 0.73871 0.67449 0.0
H395 H 0.77956 0.72376 0.68851 0.0
H396 H 0.98992 0.84212 0.6436 0.0
H397 H 1.02743 0.84593 0.62554 0.0
H398 H 1.00215 0.80737 0.46266 0.0
H399 H 0.96444 0.80343 0.48139 0.0
La400 La 0.36394 0.11815 0.62375 0.0
La401 La 0.33324 0.1336 0.60377 0.0
C402 C 0.38637 0.10098 0.66931 0.0
C403 C 0.37909 0.07657 0.67552 0.0
C404 C 0.3566 0.06029 0.66063 0.0
C405 C 0.34921 1.03714 0.6605 0.0
C406 C 0.36502 1.02976 0.66798 0.0
C407 C 0.38759 1.04585 0.68574 0.0
C408 C 0.3945 0.06916 0.69017 0.0
C409 C 0.37305 0.13658 0.51458 0.0
C410 C 0.31767 0.08489 0.55389 0.0
C411 C 0.31244 0.15579 0.57874 0.0
C412 C 0.31341 0.17863 0.5683 0.0
C413 C 0.30332 0.18671 0.60987 0.0
C414 C 0.301 0.2061 0.59809 0.0
C415 C 0.30865 0.21844 0.54397 0.0
C416 C 0.31924 0.21062 0.50281 0.0
C417 C 0.32142 0.19108 0.51451 0.0
C418 C 0.31616 0.09812 0.6882 0.0
C419 C 0.38127 0.17087 0.65906 0.0
O420 O 0.38881 0.10815 0.61448 0.0
O421 O 0.37466 0.10798 0.70038 0.0
O422 O 0.36962 0.1165 0.52876 0.0
O423 O 0.36749 0.14433 0.56082 0.0
O424 O 0.33374 0.08643 0.59044 0.0
O425 O 0.31704 0.10385 0.54216 0.0
O426 O 0.31541 0.15039 0.63279 0.0
O427 O 0.32062 0.1475 0.53876 0.0
O428 O 0.30458 0.10299 0.65075 0.0
O429 O 0.33676 0.11483 0.68099 0.0
O430 O 0.35977 0.1651 0.64825 0.0
O431 O 0.38725 0.15489 0.65178 0.0
H432 H 0.34474 0.06538 0.64649 0.0
H433 H 0.33173 1.0253 0.6473 0.0
H434 H 0.40045 1.04085 0.69118 0.0
H435 H 0.4121 0.08141 0.70114 0.0
H436 H 0.29657 0.17761 0.65144 0.0
H437 H 0.29305 0.21134 0.63182 0.0
H438 H 0.32522 0.21915 0.46025 0.0
H439 H 0.32893 0.18542 0.48054 0.0
La440 La 1.01735 0.27183 0.62841 0.0
La441 La 1.00446 0.22785 0.59845 0.0
C442 C 1.03176 0.3081 0.68757 0.0
C443 C 1.05585 0.32311 0.70267 0.0
C444 C 1.06518 0.3468 0.70178 0.0
C445 C 0.08866 0.36085 0.69285 0.0
C446 C 0.10282 0.35122 0.6837 0.0
C447 C 0.09383 0.32778 0.69181 0.0
C448 C 1.07046 0.31387 0.70142 0.0
C449 C 1.00059 0.26637 0.51741 0.0
C450 C 1.05275 0.26425 0.55196 0.0
C451 C 0.98427 0.18517 0.56976 0.0
C452 C 0.9619 0.16269 0.55991 0.0
C453 C 0.955 0.14439 0.60062 0.0
C454 C 0.93604 0.12235 0.58928 0.0
C455 C 0.92293 0.11738 0.53648 0.0
C456 C 0.92963 0.13586 0.49611 0.0
C457 C 0.94873 0.15792 0.50735 0.0
C458 C 1.0397 0.24541 0.68331 0.0
C459 C 0.96507 0.23525 0.65595 0.0
O460 O 1.02779 0.30683 0.63047 0.0
O461 O 1.02209 0.28785 0.71197 0.0
O462 O 1.01995 0.28289 0.53661 0.0
O463 O 0.99261 0.25109 0.55956 0.0
O464 O 1.05058 0.27703 0.59363 0.0
O465 O 1.03417 0.24478 0.53685 0.0
O466 O 0.98998 0.19308 0.62409 0.0
O467 O 0.99126 0.20203 0.53129 0.0
O468 O 1.03705 0.23198 0.63902 0.0
O469 O 1.0217 0.24741 0.68032 0.0
O470 O 0.97184 0.22041 0.643 0.0
O471 O 0.98036 0.25733 0.65133 0.0
H472 H 1.05417 0.35424 0.70195 0.0
H473 H 0.09521 0.37896 0.68581 0.0
H474 H 0.10434 0.32002 0.6843 0.0
H475 H 1.06342 0.29567 0.70104 0.0
H476 H 0.96469 0.14696 0.64119 0.0
H477 H 0.9317 0.10914 0.6224 0.0
H478 H 0.92052 0.13317 0.45449 0.0
H479 H 0.95347 0.17113 0.47399 0.0
La480 La 1.0021 0.56109 0.43206 0.0
La481 La 1.03304 0.60605 0.45803 0.0
C482 C 0.98051 0.51821 0.40524 0.0
C483 C 0.98112 0.49605 0.39547 0.0
C484 C 0.9705 0.47786 0.43681 0.0
C485 C 0.96798 0.45602 0.42553 0.0
C486 C 0.97595 0.45111 0.37213 0.0
C487 C 0.98702 0.4695 0.33118 0.0
C488 C 0.98941 0.49137 0.34237 0.0
C489 C 0.98472 0.57933 0.51631 0.0
C490 C 1.04944 0.56997 0.4893 0.0
C491 C 1.05469 0.64378 0.51111 0.0
C492 C 1.04631 0.65992 0.51851 0.0
C493 C 1.06141 0.68342 0.51425 0.0
C494 C 1.05287 0.69812 0.503 0.0
C495 C 1.02919 0.68935 0.49467 0.0
C496 C 1.01404 0.66609 0.50396 0.0
C497 C 1.02261 0.65154 0.51627 0.0
C498 C 1.0429 0.59863 0.34753 0.0
C499 C 0.98901 0.59643 0.38275 0.0
O500 O 0.98279 0.52638 0.45937 0.0
O501 O 0.98967 0.53488 0.36605 0.0
O502 O 0.97361 0.565 0.47391 0.0
O503 O 1.00488 0.58178 0.51211 0.0
O504 O 1.02792 0.55477 0.47682 0.0
O505 O 1.05585 0.59201 0.48376 0.0
O506 O 1.05849 0.64075 0.4558 0.0
O507 O 1.04299 0.62431 0.53892 0.0
O508 O 1.04018 0.61548 0.36452 0.0
O509 O 1.03678 0.5844 0.39182 0.0
O510 O 1.0044 0.61011 0.42233 0.0
O511 O 0.98811 0.57673 0.36999 0.0
H512 H 0.96351 0.48034 0.47785 0.0
H513 H 0.95965 0.44289 0.45915 0.0
H514 H 0.99327 0.46687 0.28912 0.0
H515 H 0.99731 0.50449 0.30851 0.0
H516 H 1.07975 0.69017 0.515 0.0
H517 H 1.06497 0.71601 0.49465 0.0
H518 H 0.99583 0.65895 0.49693 0.0
H519 H 1.01084 0.63345 0.51925 0.0
La520 La 0.57581 0.46668 0.43644 0.0
La521 La 0.5304 0.45319 0.4618 0.0
C522 C 0.61876 0.48721 0.41067 0.0
C523 C 0.64107 0.50965 0.40001 0.0
C524 C 0.65945 0.51691 0.44053 0.0
C525 C 0.68138 0.53596 0.42854 0.0
C526 C 0.68612 0.54879 0.37526 0.0
C527 C 0.66755 0.54174 0.3351 0.0
C528 C 0.6456 0.52255 0.347 0.0
C529 C 0.55664 0.4318 0.52173 0.0
C530 C 0.56687 0.50528 0.49349 0.0
C531 C 0.49148 0.43564 0.50751 0.0
C532 C 0.47347 0.41208 0.49317 0.0
C533 C 0.46225 0.40767 0.43811 0.0
C534 C 0.45092 0.38563 0.41531 0.0
C535 C 0.44998 0.36727 0.44746 0.0
C536 C 0.45959 0.37123 0.50451 0.0
C537 C 0.47148 0.39355 0.52678 0.0
C538 C 0.53845 0.46921 0.35025 0.0
C539 C 0.54015 0.41845 0.38789 0.0
O540 O 0.61039 0.4821 0.46484 0.0
O541 O 0.60225 0.47944 0.371 0.0
O542 O 0.57172 0.43487 0.4815 0.0
O543 O 0.55448 0.4496 0.51609 0.0
O544 O 0.58205 0.49934 0.47714 0.0
O545 O 0.5448 0.48943 0.4924 0.0
O546 O 0.49789 0.45037 0.46374 0.0
O547 O 0.50912 0.43717 0.5357 0.0
O548 O 0.52154 0.44978 0.36782 0.0
O549 O 0.55252 0.47769 0.39465 0.0
O550 O 0.52614 0.42057 0.42564 0.0
O551 O 0.56014 0.43687 0.37545 0.0
H552 H 0.65703 0.50744 0.48145 0.0
H553 H 0.69468 0.54058 0.46153 0.0
H554 H 0.67008 0.55063 0.29316 0.0
H555 H 0.63229 0.51753 0.3138 0.0
H556 H 0.46331 0.42141 0.41077 0.0
H557 H 0.44291 0.383 0.37206 0.0
H558 H 0.45848 0.35726 0.53088 0.0
H559 H 0.48044 0.39654 0.56843 0.0
La560 La 0.6711 0.13658 0.43538 0.0
La561 La 0.68651 0.10596 0.45669 0.0
C562 C 0.64925 0.15784 0.41106 0.0
C563 C 0.62685 0.15791 0.4008 0.0
C564 C 0.61974 0.16915 0.44153 0.0
C565 C 0.60085 0.17235 0.42974 0.0
C566 C 0.58802 0.16446 0.37645 0.0
C567 C 0.59492 0.15282 0.33608 0.0
C568 C 0.61396 0.14976 0.34776 0.0
C569 C 0.70675 0.15383 0.51957 0.0
C570 C 0.634 0.0885 0.49159 0.0
C571 C 0.70418 0.08467 0.50531 0.0
C572 C 0.72878 0.09386 0.51519 0.0
C573 C 0.73793 0.07954 0.52476 0.0
C574 C 0.76158 0.08841 0.51912 0.0
C575 C 0.77615 0.11168 0.50419 0.0
C576 C 0.76717 0.12631 0.50284 0.0
C577 C 0.74369 0.11722 0.5055 0.0
C578 C 0.66746 0.09573 0.34764 0.0
C579 C 0.71943 0.15147 0.38419 0.0
O580 O 0.65455 0.1546 0.46495 0.0
O581 O 0.65717 0.14938 0.37087 0.0
O582 O 0.70214 0.16524 0.48095 0.0
O583 O 0.68989 0.13331 0.51298 0.0
O584 O 0.63963 0.1099 0.48006 0.0
O585 O 0.64996 0.08253 0.48447 0.0
O586 O 0.69836 0.0825 0.44933 0.0
O587 O 0.69505 0.09472 0.53514 0.0
O588 O 0.68753 0.09919 0.36234 0.0
O589 O 0.6602 0.10209 0.39355 0.0
O590 O 0.71813 0.13576 0.42169 0.0
O591 O 0.70042 0.15201 0.37249 0.0
H592 H 0.62924 0.17608 0.48245 0.0
H593 H 0.59634 0.18111 0.46286 0.0
H594 H 0.58604 0.14661 0.2941 0.0
H595 H 0.61889 0.14142 0.31437 0.0
H596 H 0.72676 0.06136 0.53163 0.0
H597 H 0.76801 0.07656 0.51978 0.0
H598 H 0.77792 0.14418 0.49126 0.0
H599 H 0.73718 0.12841 0.49588 0.0
La600 La 0.92309 0.63935 0.76268 0.0
La601 La 0.96731 0.67014 0.73146 0.0
C602 C 0.88047 0.61764 0.79263 0.0
C603 C 0.85827 0.61817 0.80258 0.0
C604 C 0.84015 0.6077 0.76109 0.0
C605 C 0.81826 0.6051 0.77247 0.0
C606 C 0.81326 0.61282 0.82611 0.0
C607 C 0.83159 0.62375 0.86722 0.0
C608 C 0.8535 0.62622 0.85592 0.0
C609 C 0.94023 0.62126 0.67751 0.0
C610 C 0.93093 0.68614 0.70434 0.0
C611 C 1.00322 0.69153 0.67031 0.0
C612 C 1.01798 0.68232 0.65324 0.0
C613 C 1.04166 0.69668 0.65069 0.0
C614 C 1.05596 0.68745 0.65864 0.0
C615 C 1.04657 0.66388 0.6703 0.0
C616 C 1.023 0.64929 0.66455 0.0
C617 C 1.00884 0.65855 0.65608 0.0
C618 C 0.96186 0.68166 0.84252 0.0
C619 C 0.95949 0.62718 0.80823 0.0
O620 O 0.88818 0.61933 0.73816 0.0
O621 O 0.89749 0.62745 0.83061 0.0
O622 O 0.92677 0.61063 0.72196 0.0
O623 O 0.94248 0.64132 0.68063 0.0
O624 O 0.91598 0.66461 0.71749 0.0
O625 O 0.95301 0.69281 0.70888 0.0
O626 O 1.00245 0.69416 0.72769 0.0
O627 O 0.98276 0.68114 0.64713 0.0
O628 O 0.97853 0.67903 0.82308 0.0
O629 O 0.94666 0.6744 0.80029 0.0
O630 O 0.9723 0.64201 0.76635 0.0
O631 O 0.94008 0.62648 0.82373 0.0
H632 H 0.8427 0.6009 0.71984 0.0
H633 H 0.80517 0.5969 0.73875 0.0
H634 H 0.82886 0.62981 0.90945 0.0
H635 H 0.86658 0.63399 0.88987 0.0
H636 H 1.04903 0.71507 0.64896 0.0
H637 H 1.07416 0.69916 0.66347 0.0
H638 H 1.01541 0.63118 0.67385 0.0
H639 H 0.99067 0.6474 0.65905 0.0
La640 La 0.49669 0.30911 0.76248 0.0
La641 La 0.46547 0.32322 0.73715 0.0
C642 C 0.51893 0.28843 0.7884 0.0
C643 C 0.51913 0.26615 0.79857 0.0
C644 C 0.53091 0.25946 0.75845 0.0
C645 C 0.53412 0.2406 0.77022 0.0
C646 C 0.5257 0.22742 0.82285 0.0
C647 C 0.51352 0.23389 0.86259 0.0
C648 C 0.51044 0.25289 0.85092 0.0
C649 C 0.5137 0.34472 0.67864 0.0
C650 C 0.44905 0.27055 0.70677 0.0
C651 C 0.44441 0.33973 0.68257 0.0
C652 C 0.45348 0.36421 0.67194 0.0
C653 C 0.47702 0.37928 0.67962 0.0
C654 C 0.48548 0.40258 0.6879 0.0
C655 C 0.47039 0.41113 0.68914 0.0
C656 C 0.44718 0.39646 0.67417 0.0
C657 C 0.43874 0.37304 0.66609 0.0
C658 C 0.45586 0.30592 0.84753 0.0
C659 C 0.51001 0.35744 0.81153 0.0
O660 O 0.516 0.29378 0.73426 0.0
O661 O 0.50977 0.29584 0.82801 0.0
O662 O 0.52503 0.34109 0.71965 0.0
O663 O 0.49356 0.32714 0.6833 0.0
O664 O 0.47062 0.27684 0.71888 0.0
O665 O 0.44262 0.28623 0.71217 0.0
O666 O 0.44103 0.33394 0.73869 0.0
O667 O 0.45532 0.33086 0.65561 0.0
O668 O 0.45807 0.32528 0.83054 0.0
O669 O 0.46207 0.29791 0.80311 0.0
O670 O 0.49442 0.35567 0.7726 0.0
O671 O 0.51083 0.33865 0.82465 0.0
H672 H 0.53824 0.26925 0.71807 0.0
H673 H 0.54331 0.2364 0.73761 0.0
H674 H 0.50688 0.22469 0.90404 0.0
H675 H 0.50164 0.25749 0.8838 0.0
H676 H 0.48868 0.37284 0.68372 0.0
H677 H 0.5034 0.41352 0.69871 0.0
H678 H 0.43501 0.4025 0.67562 0.0
H679 H 0.4205 0.3617 0.66052 0.0
La680 La 0.82945 0.21548 0.76245 0.0
La681 La 0.8135 0.1689 0.7416 0.0
C682 C 0.85214 0.25852 0.78724 0.0
C683 C 0.87493 0.28068 0.79659 0.0
C684 C 0.88167 0.29923 0.75687 0.0
C685 C 0.90095 0.32108 0.76801 0.0
C686 C 0.91464 0.32561 0.81959 0.0
C687 C 0.90818 0.30685 0.85883 0.0
C688 C 0.8887 0.28497 0.84785 0.0
C689 C 0.79375 0.19714 0.67867 0.0
C690 C 0.8659 0.20382 0.70456 0.0
C691 C 0.79567 0.12955 0.69483 0.0
C692 C 0.77112 0.11326 0.68657 0.0
C693 C 0.75525 0.1202 0.70049 0.0
C694 C 0.73193 0.10502 0.69987 0.0
C695 C 0.7239 0.08173 0.69207 0.0
C696 C 0.7396 0.07463 0.6746 0.0
C697 C 0.76311 0.09042 0.67129 0.0
C698 C 0.83319 0.17842 0.85004 0.0
C699 C 0.78092 0.18231 0.81348 0.0
O700 O 0.8462 0.25008 0.7334 0.0
O701 O 0.84428 0.2421 0.82724 0.0
O702 O 0.79874 0.21362 0.71613 0.0
O703 O 0.81039 0.19311 0.68576 0.0
O704 O 0.86039 0.21971 0.71613 0.0
O705 O 0.84994 0.18194 0.71221 0.0
O706 O 0.80212 0.13377 0.75028 0.0
O707 O 0.80381 0.14846 0.6642 0.0
O708 O 0.81307 0.1617 0.8363 0.0
O709 O 0.8401 0.1916 0.8034 0.0
O710 O 0.78215 0.16775 0.77634 0.0
O711 O 0.79995 0.20185 0.82497 0.0
H712 H 0.87156 0.29703 0.71733 0.0
H713 H 0.90508 0.33451 0.73573 0.0
H714 H 0.91776 0.30921 0.89946 0.0
H715 H 0.88414 0.27154 0.88045 0.0
H716 H 0.7608 0.13732 0.71429 0.0
H717 H 0.72041 0.11113 0.71274 0.0
H718 H 0.7341 0.05668 0.66883 0.0
H719 H 0.77502 0.08453 0.66092 0.0
La720 La 0.46573 0.16886 0.24247 0.0
La721 La 0.49631 0.21489 0.26426 0.0
C722 C 0.44403 0.12965 0.19498 0.0
C723 C 0.45214 0.11322 0.18655 0.0
C724 C 0.47497 0.12011 0.19967 0.0
C725 C 0.48301 0.10483 0.19916 0.0
C726 C 0.46765 0.08153 0.19239 0.0
C727 C 0.44481 0.07445 0.17577 0.0
C728 C 0.43717 0.09032 0.17228 0.0
C729 C 0.45529 0.17778 0.35139 0.0
C730 C 0.51143 0.18148 0.3144 0.0
C731 C 0.51714 0.25779 0.28997 0.0
C732 C 0.51661 0.27991 0.30027 0.0
C733 C 0.52747 0.2982 0.25936 0.0
C734 C 0.53023 0.32008 0.2712 0.0
C735 C 0.52225 0.32486 0.3247 0.0
C736 C 0.51087 0.30636 0.36515 0.0
C737 C 0.50827 0.28445 0.35343 0.0
C738 C 0.51378 0.19672 0.17994 0.0
C739 C 0.44853 0.20424 0.20689 0.0
O740 O 0.4417 0.13379 0.25047 0.0
O741 O 0.45499 0.14862 0.1647 0.0
O742 O 0.45883 0.16119 0.33695 0.0
O743 O 0.46172 0.19128 0.30539 0.0
O744 O 0.4957 0.16715 0.27689 0.0
O745 O 0.51191 0.20097 0.32652 0.0
O746 O 0.51441 0.24951 0.23586 0.0
O747 O 0.50855 0.24127 0.32967 0.0
O748 O 0.52517 0.21286 0.21824 0.0
O749 O 0.49319 0.19295 0.18658 0.0
O750 O 0.46991 0.21991 0.21897 0.0
O751 O 0.44252 0.18228 0.21363 0.0
H752 H 0.48664 0.13726 0.21294 0.0
H753 H 0.50068 0.11091 0.21143 0.0
H754 H 0.43229 0.05649 0.17084 0.0
H755 H 0.41935 0.08446 0.16262 0.0
H756 H 0.5345 0.29578 0.21832 0.0
H757 H 0.53878 0.33334 0.23801 0.0
H758 H 0.50458 0.30895 0.40721 0.0
H759 H 0.50017 0.27121 0.3869 0.0
La760 La 0.96712 0.32242 0.23346 0.0
La761 La 0.92302 0.30958 0.26146 0.0
C762 C 1.00382 0.3371 0.17583 0.0
C763 C 1.01901 0.36131 0.16227 0.0
C764 C 1.0427 0.37062 0.1648 0.0
C765 C 1.05668 0.39402 0.17477 0.0
C766 C 1.04695 0.4081 0.18346 0.0
C767 C 1.02356 0.39917 0.1741 0.0
C768 C 1.00974 0.3759 0.16324 0.0
C769 C 0.96088 0.306 0.34464 0.0
C770 C 0.95909 0.35763 0.30961 0.0
C771 C 0.88022 0.28956 0.28879 0.0
C772 C 0.85779 0.26723 0.29873 0.0
C773 C 0.83934 0.26062 0.25878 0.0
C774 C 0.81734 0.24162 0.27027 0.0
C775 C 0.81262 0.22821 0.32244 0.0
C776 C 0.83125 0.23461 0.36201 0.0
C777 C 0.85327 0.25375 0.35063 0.0
C778 C 0.94109 0.34502 0.17709 0.0
C779 C 0.93061 0.27004 0.20568 0.0
O780 O 1.0021 0.33257 0.23268 0.0
O781 O 0.98375 0.32772 0.1505 0.0
O782 O 0.97782 0.32514 0.32573 0.0
O783 O 0.94594 0.29769 0.30191 0.0
O784 O 0.97216 0.35558 0.26848 0.0
O785 O 0.93948 0.33902 0.32377 0.0
O786 O 0.88837 0.29505 0.23455 0.0
O787 O 0.89688 0.29668 0.32781 0.0
O788 O 0.92743 0.34225 0.22098 0.0
O789 O 0.94309 0.32703 0.18017 0.0
O790 O 0.91572 0.27684 0.21785 0.0
O791 O 0.95271 0.28538 0.21069 0.0
H792 H 1.05015 0.35963 0.1649 0.0
H793 H 1.07474 0.40052 0.18283 0.0
H794 H 1.01574 0.40964 0.18122 0.0
H795 H 0.99152 0.3689 0.16201 0.0
H796 H 0.84176 0.27056 0.21875 0.0
H797 H 0.80398 0.23749 0.23779 0.0
H798 H 0.82873 0.22524 0.40313 0.0
H799 H 0.86665 0.25826 0.38336 0.0
La800 La 0.81294 0.66994 0.23724 0.0
La801 La 0.82782 0.63929 0.26235 0.0
C802 C 0.79584 0.69073 0.18407 0.0
C803 C 0.77128 0.682 0.17585 0.0
C804 C 0.76284 0.69708 0.17078 0.0
C805 C 0.73957 0.68913 0.18029 0.0
C806 C 0.72464 0.66606 0.19594 0.0
C807 C 0.73273 0.6506 0.19423 0.0
C808 C 0.75591 0.65856 0.18444 0.0
C809 C 0.83099 0.68043 0.34705 0.0
C810 C 0.77934 0.62542 0.31211 0.0
C811 C 0.84968 0.61811 0.28834 0.0
C812 C 0.87239 0.61846 0.29745 0.0
C813 C 0.87838 0.60556 0.25938 0.0
C814 C 0.89768 0.60293 0.27043 0.0
C815 C 0.91213 0.61311 0.32026 0.0
C816 C 0.90639 0.62648 0.3578 0.0
C817 C 0.8869 0.62894 0.34694 0.0
C818 C 0.79217 0.6221 0.17849 0.0
C819 C 0.86536 0.6868 0.20446 0.0
O820 O 0.80244 0.69452 0.23952 0.0
O821 O 0.80408 0.67939 0.15645 0.0
O822 O 0.81115 0.67721 0.33071 0.0
O823 O 0.83867 0.67388 0.30251 0.0
O824 O 0.78083 0.6409 0.27327 0.0
O825 O 0.79825 0.62472 0.32469 0.0
O826 O 0.84359 0.6203 0.23441 0.0
O827 O 0.84228 0.62732 0.3278 0.0
O828 O 0.79596 0.61078 0.21932 0.0
O829 O 0.80966 0.64225 0.1833 0.0
O830 O 0.85943 0.66538 0.21677 0.0
O831 O 0.8496 0.69305 0.2106 0.0
H832 H 0.77443 0.71522 0.16447 0.0
H833 H 0.73388 0.70156 0.18216 0.0
H834 H 0.72157 0.6328 0.20582 0.0
H835 H 0.76202 0.6466 0.18778 0.0
H836 H 0.8677 0.59688 0.22125 0.0
H837 H 0.90122 0.59278 0.23943 0.0
H838 H 0.91657 0.63454 0.39708 0.0
H839 H 0.88295 0.63872 0.37824 0.0
La840 La 0.53065 0.10577 0.95756 0.0
La841 La 0.57648 0.1365 0.93696 0.0
C842 C 0.49166 0.08415 1.00618 0.0
C843 C 0.47599 0.09307 0.01598 0.0
C844 C 0.45261 0.07857 0.02615 0.0
C845 C 0.4376 0.0872 0.02101 0.0
C846 C 0.44601 0.11043 1.00611 0.0
C847 C 0.46955 0.12524 1.00406 0.0
C848 C 0.48414 0.11637 1.00608 0.0
C849 C 0.53972 0.09655 0.84806 0.0
C850 C 0.54301 0.15128 0.88563 0.0
C851 C 0.6196 0.15816 0.91302 0.0
C852 C 0.6421 0.1584 0.90244 0.0
C853 C 0.66053 0.17006 0.94252 0.0
C854 C 0.68265 0.17338 0.93038 0.0
C855 C 0.6875 0.16519 0.87741 0.0
C856 C 0.66888 0.15313 0.8377 0.0
C857 C 0.64676 0.14995 0.84973 0.0
C858 C 0.55775 0.15352 0.02106 0.0
C859 C 0.56574 0.0883 0.99171 0.0
O860 O 0.49545 0.082 0.95024 0.0
O861 O 0.51079 0.09444 0.03599 0.0
O862 O 0.52276 0.09942 0.86319 0.0
O863 O 0.55327 0.10229 0.89376 0.0
O864 O 0.5286 0.13549 0.92295 0.0
O865 O 0.56265 0.15198 0.87412 0.0
O866 O 0.61094 0.15458 0.9669 0.0
O867 O 0.60333 0.14979 0.8727 0.0
O868 O 0.57377 0.16502 0.98247 0.0
O869 O 0.55429 0.13306 0.01456 0.0
O870 O 0.58144 0.10979 0.98088 0.0
O871 O 0.54383 0.08228 0.98433 0.0
H872 H 0.44582 0.06044 0.03323 0.0
H873 H 0.41937 0.07521 0.02218 0.0
H874 H 0.47646 0.14309 0.99251 0.0
H875 H 0.50177 0.12771 0.99612 0.0
H876 H 0.658 0.17721 0.98316 0.0
H877 H 0.69601 0.18246 0.96296 0.0
H878 H 0.6715 0.14667 0.79599 0.0
H879 H 0.6334 0.14127 0.81686 0.0
La880 La 1.03379 0.45374 0.96084 0.0
La881 La 1.00286 0.46711 0.93195 0.0
C882 C 1.0553 0.43833 0.01791 0.0
C883 C 1.04683 0.41403 0.02914 0.0
C884 C 1.06196 0.40556 0.02958 0.0
C885 C 1.05362 0.38224 0.02074 0.0
C886 C 1.03008 0.36726 1.01035 0.0
C887 C 1.0148 0.3755 0.01574 0.0
C888 C 1.02318 0.39872 0.02537 0.0
C889 C 1.04529 0.47136 0.85048 0.0
C890 C 0.9909 0.41907 0.88296 0.0
C891 C 0.98092 0.48796 0.90368 0.0
C892 C 0.98152 0.51072 0.89356 0.0
C893 C 0.97178 0.51894 0.93589 0.0
C894 C 0.96926 0.53826 0.92449 0.0
C895 C 0.97631 0.55044 0.86996 0.0
C896 C 0.98648 0.54244 0.82794 0.0
C897 C 0.98888 0.52298 0.8393 0.0
C898 C 0.98508 0.43147 0.01619 0.0
C899 C 1.04966 0.50612 0.9901 0.0
O900 O 1.05884 0.44386 0.9617 0.0
O901 O 1.04382 0.44684 0.04359 0.0
O902 O 1.04249 0.45187 0.86854 0.0
O903 O 1.03796 0.47897 0.89348 0.0
O904 O 1.00586 0.4209 0.92411 0.0
O905 O 0.98994 0.43775 0.8693 0.0
O906 O 0.98302 0.48214 0.958 0.0
O907 O 0.99036 0.48052 0.86505 0.0
O908 O 0.97435 0.43439 0.97221 0.0
O909 O 1.00504 0.44944 1.01324 0.0
O910 O 1.02816 0.49956 0.97655 0.0
O911 O 1.05631 0.49063 0.98583 0.0
H912 H 1.08028 0.41713 0.03172 0.0
H913 H 1.06588 0.37641 0.01563 0.0
H914 H 0.99671 0.3644 1.0072 0.0
H915 H 1.01137 0.40508 0.0246 0.0
H916 H 0.96549 0.51001 0.97789 0.0
H917 H 0.96165 0.5436 0.95892 0.0
H918 H 0.99198 0.55076 0.785 0.0
H919 H 0.99606 0.51723 0.80467 0.0
La920 La 0.68497 0.60612 0.96008 0.0
La921 La 0.67079 0.56081 0.9339 0.0
C922 C 0.70306 0.64499 1.00561 0.0
C923 C 0.72661 0.6627 0.99022 0.0
C924 C 0.73169 0.67095 0.93157 0.0
C925 C 0.75417 0.68235 0.91154 0.0
C926 C 0.77232 0.68615 0.94967 0.0
C927 C 0.76743 0.67889 1.00916 0.0
C928 C 0.74472 0.66715 0.02901 0.0
C929 C 0.66844 0.599 0.84881 0.0
C930 C 0.71956 0.59595 0.8866 0.0
C931 C 0.64951 0.51789 0.9075 0.0
C932 C 0.62685 0.4957 0.89694 0.0
C933 C 0.61909 0.47746 0.93817 0.0
C934 C 0.59988 0.45561 0.92639 0.0
C935 C 0.58733 0.45075 0.87259 0.0
C936 C 0.59487 0.46919 0.83169 0.0
C937 C 0.61424 0.49106 0.84338 0.0
C938 C 0.70543 0.57925 0.02013 0.0
C939 C 0.63277 0.57026 0.99236 0.0
O940 O 0.68796 0.63868 0.96285 0.0
O941 O 0.70166 0.62735 0.03341 0.0
O942 O 0.68838 0.61509 0.86624 0.0
O943 O 0.66016 0.58459 0.89275 0.0
O944 O 0.71752 0.60997 0.92433 0.0
O945 O 0.70096 0.57618 0.87361 0.0
O946 O 0.65485 0.52612 0.96169 0.0
O947 O 0.65747 0.53451 0.86807 0.0
O948 O 0.70227 0.56421 0.97975 0.0
O949 O 0.68776 0.58163 0.01415 0.0
O950 O 0.63834 0.55493 0.9751 0.0
O951 O 0.64889 0.5922 0.99176 0.0
H952 H 0.71828 0.66777 0.89999 0.0
H953 H 0.75725 0.68847 0.86597 0.0
H954 H 0.78108 0.68204 0.03987 0.0
H955 H 0.74111 0.66033 0.07358 0.0
H956 H 0.62829 0.4799 0.97955 0.0
H957 H 0.5949 0.44244 0.95999 0.0
H958 H 0.58624 0.4666 0.78934 0.0
H959 H 0.61962 0.50422 0.80959 0.0
La960 La 0.66852 0.89455 0.76751 0.0
La961 La 0.69928 0.93893 0.79467 0.0
C962 C 0.64681 0.8517 0.74054 0.0
C963 C 0.64738 0.8295 0.7315 0.0
C964 C 0.63504 0.81083 0.77053 0.0
C965 C 0.63265 0.78902 0.75969 0.0
C966 C 0.64248 0.78466 0.7091 0.0
C967 C 0.65528 0.80354 0.67056 0.0
C968 C 0.65753 0.82538 0.68126 0.0
C969 C 0.65051 0.91245 0.85137 0.0
C970 C 0.7156 0.90302 0.82549 0.0
C971 C 0.7208 0.97602 0.85044 0.0
C972 C 0.71122 0.99083 0.86297 0.0
C973 C 0.72511 1.01455 0.86016 0.0
C974 C 0.71516 1.02807 0.84965 0.0
C975 C 0.69134 1.01784 0.84052 0.0
C976 C 0.67737 0.9944 0.84956 0.0
C977 C 0.68732 0.98106 0.86124 0.0
C978 C 0.71058 0.93224 0.6844 0.0
C979 C 0.65593 0.93004 0.7179 0.0
O980 O 0.64883 0.85985 0.79456 0.0
O981 O 0.6563 0.86837 0.70145 0.0
O982 O 0.63982 0.89853 0.80786 0.0
O983 O 0.67067 0.9148 0.84816 0.0
O984 O 0.69405 0.88792 0.81296 0.0
O985 O 0.72213 0.92502 0.81974 0.0
O986 O 0.72357 0.974 0.79372 0.0
O987 O 0.71056 0.95613 0.87681 0.0
O988 O 0.70769 0.94894 0.70192 0.0
O989 O 0.70349 0.91764 0.72812 0.0
O990 O 0.67093 0.94336 0.75867 0.0
O991 O 0.65517 0.91048 0.70451 0.0
H992 H 0.62663 0.81292 0.80929 0.0
H993 H 0.62293 0.77549 0.79143 0.0
H994 H 0.66303 0.80131 0.63068 0.0
H995 H 0.66687 0.83894 0.64925 0.0
H996 H 0.74359 1.02238 0.86047 0.0
H997 H 0.72635 1.04618 0.84165 0.0
H998 H 0.65911 0.98624 0.84184 0.0
H999 H 0.67653 0.9628 0.8628 0.0
La1000 La 0.24407 0.80149 0.7688 0.0
La1001 La 0.19766 0.78589 0.79054 0.0
C1002 C 0.28711 0.82368 0.74352 0.0
C1003 C 0.30927 0.84635 0.73357 0.0
C1004 C 0.32739 0.85392 0.77504 0.0
C1005 C 0.34931 0.8731 0.76363 0.0
C1006 C 0.35431 0.88577 0.71 0.0
C1007 C 0.33598 0.87845 0.66891 0.0
C1008 C 0.31405 0.85912 0.68022 0.0
C1009 C 0.22575 0.76607 0.85316 0.0
C1010 C 0.23302 0.83849 0.8251 0.0
C1011 C 0.15836 0.76839 0.83776 0.0
C1012 C 0.14154 0.74387 0.84331 0.0
C1013 C 0.1183 0.73617 0.85288 0.0
C1014 C 0.10222 0.71295 0.84511 0.0
C1015 C 0.10937 0.69727 0.82832 0.0
C1016 C 0.13273 0.70473 0.8261 0.0
C1017 C 0.14843 0.72784 0.83084 0.0
C1018 C 0.20672 0.80363 0.68068 0.0
C1019 C 0.21061 0.75292 0.7191 0.0
O1020 O 0.27868 0.81804 0.79752 0.0
O1021 O 0.27066 0.81574 0.70366 0.0
O1022 O 0.24204 0.77078 0.81517 0.0
O1023 O 0.22188 0.7828 0.84624 0.0
O1024 O 0.24879 0.83281 0.81371 0.0
O1025 O 0.21106 0.82256 0.8182 0.0
O1026 O 0.16276 0.7759 0.78312 0.0
O1027 O 0.17721 0.77549 0.86805 0.0
O1028 O 0.19002 0.78372 0.69591 0.0
O1029 O 0.22011 0.81176 0.72658 0.0
O1030 O 0.19613 0.75429 0.75645 0.0
O1031 O 0.23018 0.77186 0.70707 0.0
H1032 H 0.32482 0.84457 0.81626 0.0
H1033 H 0.36241 0.87792 0.7973 0.0
H1034 H 0.33872 0.88721 0.62668 0.0
H1035 H 0.30097 0.85386 0.64628 0.0
H1036 H 0.11248 0.74822 0.86199 0.0
H1037 H 0.08422 0.7078 0.84651 0.0
H1038 H 0.13874 0.69311 0.81344 0.0
H1039 H 0.16589 0.7332 0.82087 0.0
La1040 La 0.33913 0.46988 0.76705 0.0
La1041 La 0.35264 0.43892 0.79616 0.0
C1042 C 0.31871 0.49225 0.73927 0.0
C1043 C 0.29634 0.49236 0.72897 0.0
C1044 C 0.28917 0.50354 0.76973 0.0
C1045 C 0.27023 0.50666 0.75796 0.0
C1046 C 0.25742 0.49876 0.70466 0.0
C1047 C 0.26438 0.48719 0.66423 0.0
C1048 C 0.28347 0.4842 0.67591 0.0
C1049 C 0.37422 0.48726 0.85229 0.0
C1050 C 0.3001 0.42271 0.82437 0.0
C1051 C 0.36811 0.41752 0.85336 0.0
C1052 C 0.39243 0.426 0.86465 0.0
C1053 C 0.40091 0.41089 0.86406 0.0
C1054 C 0.42425 0.4193 0.85504 0.0
C1055 C 0.43922 0.44286 0.84537 0.0
C1056 C 0.43102 0.45811 0.85215 0.0
C1057 C 0.40775 0.44967 0.86197 0.0
C1058 C 0.33551 0.42797 0.68533 0.0
C1059 C 0.38747 0.48213 0.71927 0.0
O1060 O 0.32418 0.48972 0.7936 0.0
O1061 O 0.32601 0.48275 0.70042 0.0
O1062 O 0.37161 0.49817 0.8083 0.0
O1063 O 0.35636 0.4673 0.84856 0.0
O1064 O 0.30648 0.44414 0.81038 0.0
O1065 O 0.31574 0.41624 0.82073 0.0
O1066 O 0.36259 0.41394 0.79716 0.0
O1067 O 0.35955 0.42897 0.87897 0.0
O1068 O 0.35501 0.43085 0.70367 0.0
O1069 O 0.32761 0.43496 0.72838 0.0
O1070 O 0.38559 0.46715 0.76046 0.0
O1071 O 0.36874 0.48293 0.70502 0.0
H1072 H 0.29864 0.51047 0.81069 0.0
H1073 H 0.26566 0.51536 0.79114 0.0
H1074 H 0.25552 0.48097 0.62223 0.0
H1075 H 0.28843 0.4759 0.64249 0.0
H1076 H 0.38934 0.39259 0.86546 0.0
H1077 H 0.43008 0.40708 0.84897 0.0
H1078 H 0.44212 0.47623 0.84419 0.0
H1079 H 0.40142 0.4615 0.86199 0.0
La1080 La 0.5889 0.97332 0.09712 0.0
La1081 La 0.6332 1.00411 0.0693 0.0
C1082 C 0.54604 0.95155 0.12473 0.0
C1083 C 0.52384 0.95214 0.13394 0.0
C1084 C 0.50554 0.94092 0.09323 0.0
C1085 C 0.48368 0.93848 0.10404 0.0
C1086 C 0.4789 0.94714 0.15628 0.0
C1087 C 0.49739 0.9588 0.19658 0.0
C1088 C 0.51928 0.96111 0.18588 0.0
C1089 C 0.60664 0.95534 1.0129 0.0
C1090 C 0.59707 1.02035 0.04005 0.0
C1091 C 0.66981 1.02579 1.01125 0.0
C1092 C 0.68431 1.01613 0.99567 0.0
C1093 C 0.70809 1.02986 0.9966 0.0
C1094 C 0.72156 1.01978 1.0057 0.0
C1095 C 0.71124 0.99598 0.01519 0.0
C1096 C 0.6877 0.98214 1.00723 0.0
C1097 C 0.67439 0.99224 0.99709 0.0
C1098 C 0.62683 1.01483 0.18001 0.0
C1099 C 0.62463 0.96067 0.1452 0.0
O1100 O 0.55416 0.95358 0.07061 0.0
O1101 O 0.56277 0.96105 0.1636 0.0
O1102 O 0.59279 0.94466 0.05664 0.0
O1103 O 0.60902 0.9755 0.0161 0.0
O1104 O 0.58204 0.9987 0.05159 0.0
O1105 O 0.6191 1.02698 0.0463 0.0
O1106 O 0.66838 1.0281 0.06852 0.0
O1107 O 0.64965 1.01592 0.98633 0.0
O1108 O 0.64375 1.01241 0.16176 0.0
O1109 O 0.61206 1.00818 0.13683 0.0
O1110 O 0.63784 0.97574 0.10428 0.0
O1111 O 0.60507 0.9599 0.15927 0.0
H1112 H 0.50795 0.93341 0.0531 0.0
H1113 H 0.47045 0.92967 0.07097 0.0
H1114 H 0.49483 0.9656 0.23778 0.0
H1115 H 0.5325 0.96951 0.21922 0.0
H1116 H 0.71604 1.04833 0.9964 0.0
H1117 H 0.73977 1.03088 1.01271 0.0
H1118 H 0.67945 0.96389 0.01509 0.0
H1119 H 0.65612 0.98158 0.99717 0.0
La1120 La 0.16492 0.64322 0.09404 0.0
La1121 La 0.13398 0.65834 0.07145 0.0
C1122 C 0.18639 0.62173 0.11953 0.0
C1123 C 0.18632 0.59935 0.13011 0.0
C1124 C 0.19715 0.59191 0.08895 0.0
C1125 C 0.20026 0.57301 0.10096 0.0
C1126 C 0.1927 0.56053 0.15488 0.0
C1127 C 0.18145 0.56774 0.19568 0.0
C1128 C 0.17847 0.58679 0.18377 0.0
C1129 C 0.18216 0.67869 1.00975 0.0
C1130 C 0.11702 0.6057 0.03769 0.0
C1131 C 0.1122 0.67548 0.02243 0.0
C1132 C 0.12035 0.69991 1.01246 0.0
C1133 C 0.10524 0.70778 0.99888 0.0
C1134 C 0.11277 0.73122 1.00242 0.0
C1135 C 0.13563 0.74699 0.01866 0.0
C1136 C 0.15118 0.73915 0.0243 0.0
C1137 C 0.14331 0.71586 0.02424 0.0
C1138 C 0.12394 0.6395 0.18082 0.0
C1139 C 0.1794 0.69164 0.14372 0.0
O1140 O 0.1833 0.62696 0.0654 0.0
O1141 O 0.17773 0.6296 0.15934 0.0
O1142 O 0.19361 0.67416 0.04839 0.0
O1143 O 0.16163 0.66182 0.01617 0.0
O1144 O 0.13845 0.61151 0.0499 0.0
O1145 O 0.11091 0.62162 0.04377 0.0
O1146 O 0.10997 0.66953 0.07834 0.0
O1147 O 0.12303 0.6671 0.99286 0.0
O1148 O 0.12718 0.65946 0.16581 0.0
O1149 O 0.13033 0.63227 0.13502 0.0
O1150 O 0.16373 0.69017 0.10576 0.0
O1151 O 0.17997 0.67271 0.15629 0.0
H1152 H 0.20383 0.60115 0.04753 0.0
H1153 H 0.2087 0.56822 0.06754 0.0
H1154 H 0.17551 0.55912 0.23812 0.0
H1155 H 0.17046 0.59199 0.21745 0.0
H1156 H 0.08736 0.6958 0.99009 0.0
H1157 H 0.10014 0.73659 0.99824 0.0
H1158 H 0.16885 0.75077 0.03629 0.0
H1159 H 0.15512 0.71038 0.03669 0.0
La1160 La 0.49514 0.54753 0.09911 0.0
La1161 La 0.48129 0.50281 0.06889 0.0
C1162 C 0.51624 0.59029 0.12742 0.0
C1163 C 0.53894 0.61258 0.13686 0.0
C1164 C 0.54606 0.63087 0.09605 0.0
C1165 C 0.5653 0.65278 0.10707 0.0
C1166 C 0.57853 0.65766 0.15966 0.0
C1167 C 0.57166 0.63917 0.20007 0.0
C1168 C 0.55225 0.61723 0.18917 0.0
C1169 C 0.45998 0.53005 0.01411 0.0
C1170 C 0.53368 0.53893 0.04029 0.0
C1171 C 0.46543 0.466 1.01135 0.0
C1172 C 0.44105 0.45027 1.00071 0.0
C1173 C 0.43251 0.42669 1.00075 0.0
C1174 C 0.40912 0.41182 1.00903 0.0
C1175 C 0.39411 0.42045 0.01829 0.0
C1176 C 0.40243 0.44393 1.01275 0.0
C1177 C 0.42575 0.45869 1.00377 0.0
C1178 C 0.49848 0.50886 0.17963 0.0
C1179 C 0.44684 0.51147 0.14678 0.0
O1180 O 0.51018 0.58235 0.07321 0.0
O1181 O 0.50904 0.57344 0.16601 0.0
O1182 O 0.46268 0.54363 0.05812 0.0
O1183 O 0.4778 0.52782 0.01767 0.0
O1184 O 0.52744 0.55406 0.05474 0.0
O1185 O 0.51806 0.51688 0.04374 0.0
O1186 O 0.47127 0.46789 0.06731 0.0
O1187 O 0.47388 0.48599 0.98594 0.0
O1188 O 0.479 0.49227 0.16121 0.0
O1189 O 0.50637 0.52373 0.13663 0.0
O1190 O 0.44861 0.4984 0.10527 0.0
O1191 O 0.46555 0.53097 0.16109 0.0
H1192 H 0.53631 0.62843 0.05565 0.0
H1193 H 0.56974 0.66599 0.07387 0.0
H1194 H 0.58085 0.64177 0.24151 0.0
H1195 H 0.54739 0.60403 0.22263 0.0
H1196 H 0.44406 0.41988 0.99916 0.0
H1197 H 0.40322 0.39376 0.0144 0.0
H1198 H 0.3913 0.45098 0.02062 0.0
H1199 H 0.43212 0.47683 1.00434 0.0
La1200 La 0.13484 0.50316 0.57243 0.0
La1201 La 0.16558 0.54921 0.59403 0.0
C1202 C 0.1129 0.46407 0.52465 0.0
C1203 C 0.12055 0.44723 0.51741 0.0
C1204 C 0.1434 0.45382 0.52977 0.0
C1205 C 0.15069 0.43795 0.53291 0.0
C1206 C 0.13472 0.41468 0.52919 0.0
C1207 C 0.112 0.40792 0.51234 0.0
C1208 C 0.105 0.42419 0.50616 0.0
C1209 C 0.12595 0.51202 0.6824 0.0
C1210 C 0.1807 0.51559 0.64303 0.0
C1211 C 0.18702 0.59215 0.61914 0.0
C1212 C 0.18706 0.6145 0.62998 0.0
C1213 C 0.1982 0.63284 0.58932 0.0
C1214 C 0.20139 0.65486 0.60157 0.0
C1215 C 0.19357 0.6597 0.65524 0.0
C1216 C 0.18202 0.64117 0.69555 0.0
C1217 C 0.17897 0.61914 0.6834 0.0
C1218 C 0.18251 0.5309 0.50907 0.0
C1219 C 0.11743 0.53855 0.53895 0.0
O1220 O 0.11014 0.46826 0.5798 0.0
O1221 O 0.12445 0.483 0.49458 0.0
O1222 O 0.12913 0.4953 0.66698 0.0
O1223 O 0.13139 0.52557 0.63678 0.0
O1224 O 0.16486 0.50127 0.60567 0.0
O1225 O 0.18125 0.5351 0.65546 0.0
O1226 O 0.1837 0.58376 0.56505 0.0
O1227 O 0.17854 0.57571 0.65909 0.0
O1228 O 0.19413 0.54694 0.54734 0.0
O1229 O 0.16201 0.52727 0.51614 0.0
O1230 O 0.13884 0.55425 0.55065 0.0
O1231 O 0.1115 0.5166 0.54526 0.0
H1232 H 0.15554 0.47114 0.54069 0.0
H1233 H 0.16824 0.44369 0.54565 0.0
H1234 H 0.09909 0.39 0.50975 0.0
H1235 H 0.08719 0.41862 0.49702 0.0
H1236 H 0.20507 0.63032 0.54812 0.0
H1237 H 0.21008 0.66816 0.56854 0.0
H1238 H 0.17587 0.64381 0.73778 0.0
H1239 H 0.1707 0.60586 0.71671 0.0
La1240 La 0.63523 0.65703 0.56982 0.0
La1241 La 0.59062 0.64324 0.59797 0.0
C1242 C 0.6724 0.67271 0.51356 0.0
C1243 C 0.68829 0.69707 0.50318 0.0
C1244 C 0.71189 0.70555 0.50429 0.0
C1245 C 0.72673 0.72889 0.51317 0.0
C1246 C 0.71805 0.74386 0.52215 0.0
C1247 C 0.6946 0.73561 0.51544 0.0
C1248 C 0.67988 0.71236 0.50573 0.0
C1249 C 0.62882 0.64015 0.68047 0.0
C1250 C 0.6262 0.69147 0.64668 0.0
C1251 C 0.54773 0.62199 0.62553 0.0
C1252 C 0.52562 0.59915 0.63481 0.0
C1253 C 0.50721 0.59208 0.59445 0.0
C1254 C 0.48543 0.57263 0.60537 0.0
C1255 C 0.48081 0.55913 0.65739 0.0
C1256 C 0.49943 0.56594 0.69731 0.0
C1257 C 0.52124 0.58556 0.68651 0.0
C1258 C 0.60842 0.67866 0.51343 0.0
C1259 C 0.59917 0.60466 0.54052 0.0
O1260 O 0.67014 0.66685 0.56955 0.0
O1261 O 0.65255 0.66438 0.48745 0.0
O1262 O 0.64555 0.65958 0.66238 0.0
O1263 O 0.61407 0.63187 0.63737 0.0
O1264 O 0.63958 0.68976 0.60593 0.0
O1265 O 0.60659 0.67273 0.6602 0.0
O1266 O 0.55583 0.62811 0.57142 0.0
O1267 O 0.56447 0.62933 0.6644 0.0
O1268 O 0.59457 0.67573 0.55704 0.0
O1269 O 0.61068 0.66085 0.51692 0.0
O1270 O 0.58405 0.61108 0.55329 0.0
O1271 O 0.62123 0.62018 0.54533 0.0
H1272 H 0.71868 0.694 0.50313 0.0
H1273 H 0.74477 0.73474 0.51941 0.0
H1274 H 0.68751 0.7467 0.52307 0.0
H1275 H 0.66172 0.70599 0.50541 0.0
H1276 H 0.50946 0.60203 0.55452 0.0
H1277 H 0.47211 0.56824 0.57256 0.0
H1278 H 0.49701 0.55653 0.7383 0.0
H1279 H 0.53455 0.59036 0.71958 0.0
La1280 La 0.48262 1.00463 0.56884 0.0
La1281 La 0.49586 0.97375 0.59735 0.0
C1282 C 0.46771 1.02631 0.51089 0.0
C1283 C 0.44351 1.0168 0.4965 0.0
C1284 C 0.43361 1.03068 0.49842 0.0
C1285 C 0.41014 1.02077 0.50877 0.0
C1286 C 0.39662 0.99699 0.51849 0.0
C1287 C 0.40612 0.983 0.50971 0.0
C1288 C 0.42944 0.99293 0.49833 0.0
C1289 C 0.50011 1.01618 0.67927 0.0
C1290 C 0.44782 0.96179 0.64634 0.0
C1291 C 0.51667 0.95168 0.62481 0.0
C1292 C 0.53935 0.95202 0.63383 0.0
C1293 C 0.54595 0.9401 0.59395 0.0
C1294 C 0.56526 0.93748 0.60467 0.0
C1295 C 0.57908 0.94666 0.65601 0.0
C1296 C 0.57271 0.95901 0.69547 0.0
C1297 C 0.55323 0.96149 0.68487 0.0
C1298 C 0.46011 0.9558 0.51355 0.0
C1299 C 0.53487 1.02058 0.53956 0.0
O1300 O 0.47178 1.02891 0.56795 0.0
O1301 O 0.4777 1.01612 0.48579 0.0
O1302 O 0.48069 1.01346 0.6609 0.0
O1303 O 0.50779 1.00879 0.63647 0.0
O1304 O 0.44967 0.97665 0.60485 0.0
O1305 O 0.46653 0.96091 0.6603 0.0
O1306 O 0.51062 0.95374 0.57075 0.0
O1307 O 0.50957 0.96135 0.66371 0.0
O1308 O 0.46311 0.94519 0.5577 0.0
O1309 O 0.47805 0.97584 0.51612 0.0
O1310 O 0.52825 0.999 0.55208 0.0
O1311 O 0.51948 1.02727 0.54497 0.0
H1312 H 0.44422 1.04914 0.498 0.0
H1313 H 0.40317 1.03196 0.51645 0.0
H1314 H 0.39608 0.96477 0.51771 0.0
H1315 H 0.43694 0.98216 0.49767 0.0
H1316 H 0.53574 0.93219 0.55456 0.0
H1317 H 0.56931 0.92813 0.57224 0.0
H1318 H 0.58237 0.96624 0.73597 0.0
H1319 H 0.54879 0.97046 0.71756 0.0
La1320 La 0.1976 0.439 0.29071 0.0
La1321 La 0.24357 0.46943 0.26715 0.0
C1322 C 0.15873 0.41748 0.34026 0.0
C1323 C 0.1422 0.42546 0.34881 0.0
C1324 C 0.14902 0.44833 0.3364 0.0
C1325 C 0.13332 0.45589 0.33412 0.0
C1326 C 0.10998 0.44013 0.33851 0.0
C1327 C 0.10305 0.4174 0.35563 0.0
C1328 C 0.11916 0.41016 0.3611 0.0
C1329 C 0.20592 0.42886 0.18097 0.0
C1330 C 0.20978 0.4843 0.21805 0.0
C1331 C 0.28651 0.49014 0.24114 0.0
C1332 C 0.30859 0.4894 0.23187 0.0
C1333 C 0.32688 0.50065 0.27252 0.0
C1334 C 0.34873 0.50312 0.26159 0.0
C1335 C 0.35346 0.49446 0.20931 0.0
C1336 C 0.33496 0.48272 0.16912 0.0
C1337 C 0.31308 0.4804 0.17993 0.0
C1338 C 0.22571 0.48697 0.35166 0.0
C1339 C 0.23297 0.42181 0.32489 0.0
O1340 O 0.16251 0.41472 0.28476 0.0
O1341 O 0.17789 0.42875 0.36951 0.0
O1342 O 0.18947 0.43249 0.19654 0.0
O1343 O 0.21968 0.435 0.22633 0.0
O1344 O 0.19559 0.46875 0.25632 0.0
O1345 O 0.22926 0.48478 0.20532 0.0
O1346 O 0.27821 0.48782 0.29515 0.0
O1347 O 0.26997 0.48128 0.20156 0.0
O1348 O 0.24154 0.49831 0.31247 0.0
O1349 O 0.22202 0.46643 0.34555 0.0
O1350 O 0.24864 0.44316 0.31269 0.0
O1351 O 0.211 0.41577 0.31843 0.0
H1352 H 0.16635 0.46027 0.32466 0.0
H1353 H 0.13922 0.47345 0.32128 0.0
H1354 H 0.08508 0.40464 0.35886 0.0
H1355 H 0.11341 0.39234 0.37031 0.0
H1356 H 0.3245 0.50818 0.31263 0.0
H1357 H 0.362 0.51199 0.29453 0.0
H1358 H 0.33752 0.47591 0.12794 0.0
H1359 H 0.29982 0.47197 0.14668 0.0
La1360 La 0.69862 0.78619 0.29615 0.0
La1361 La 0.66773 0.80002 0.26752 0.0
C1362 C 0.7199 0.77077 0.35407 0.0
C1363 C 0.71131 0.74652 0.36649 0.0
C1364 C 0.6876 0.73125 0.36389 0.0
C1365 C 0.6791 0.70793 0.35556 0.0
C1366 C 0.69431 0.69961 0.35007 0.0
C1367 C 0.7179 0.71458 0.35948 0.0
C1368 C 0.72637 0.73797 0.3672 0.0
C1369 C 0.70887 0.80261 0.18496 0.0
C1370 C 0.65505 0.75137 0.22058 0.0
C1371 C 0.64604 0.8212 0.23962 0.0
C1372 C 0.64653 0.84394 0.22995 0.0
C1373 C 0.63575 0.85141 0.27122 0.0
C1374 C 0.63317 0.87073 0.26009 0.0
C1375 C 0.64122 0.88369 0.20692 0.0
C1376 C 0.65242 0.87643 0.166 0.0
C1377 C 0.65487 0.85696 0.17704 0.0
C1378 C 0.65028 0.76484 0.35261 0.0
C1379 C 0.71503 0.83868 0.32433 0.0
O1380 O 0.72341 0.77597 0.29763 0.0
O1381 O 0.70859 0.77956 0.37927 0.0
O1382 O 0.70648 0.78337 0.20371 0.0
O1383 O 0.70246 0.81106 0.22791 0.0
O1384 O 0.67025 0.75332 0.26113 0.0
O1385 O 0.65411 0.77006 0.20646 0.0
O1386 O 0.64807 0.81523 0.29382 0.0
O1387 O 0.6555 0.81382 0.20086 0.0
O1388 O 0.63929 0.76766 0.3091 0.0
O1389 O 0.67028 0.78266 0.3487 0.0
O1390 O 0.69347 0.83228 0.31194 0.0
O1391 O 0.72154 0.82312 0.31935 0.0
H1392 H 0.6758 0.73761 0.36278 0.0
H1393 H 0.66095 0.69683 0.3478 0.0
H1394 H 0.73008 0.70865 0.3544 0.0
H1395 H 0.7447 0.74949 0.3686 0.0
H1396 H 0.6287 0.8419 0.31211 0.0
H1397 H 0.62473 0.87546 0.29367 0.0
H1398 H 0.65874 0.88538 0.12409 0.0
H1399 H 0.66288 0.85183 0.14321 0.0
La1400 La 0.35088 0.93924 0.29612 0.0
La1401 La 0.33773 0.89518 0.26834 0.0
C1402 C 0.36609 0.9761 0.35288 0.0
C1403 C 0.39038 0.99092 0.36596 0.0
C1404 C 0.40459 0.98122 0.36384 0.0
C1405 C 0.42786 0.99464 0.35187 0.0
C1406 C 0.43719 1.01807 0.34285 0.0
C1407 C 0.42354 1.02823 0.35266 0.0
C1408 C 0.40012 1.01464 0.36353 0.0
C1409 C 0.33301 0.93296 0.18599 0.0
C1410 C 0.38559 0.9309 0.21852 0.0
C1411 C 0.31737 0.85239 0.24109 0.0
C1412 C 0.29497 0.83002 0.23072 0.0
C1413 C 0.28774 0.8117 0.27144 0.0
C1414 C 0.26876 0.78972 0.25957 0.0
C1415 C 0.25599 0.78488 0.2062 0.0
C1416 C 0.26302 0.8034 0.16583 0.0
C1417 C 0.28213 0.82539 0.17762 0.0
C1418 C 0.37353 0.91306 0.35209 0.0
C1419 C 0.29861 0.90321 0.32583 0.0
O1420 O 0.36156 0.97429 0.29606 0.0
O1421 O 0.35639 0.95611 0.3787 0.0
O1422 O 0.35249 0.94966 0.20383 0.0
O1423 O 0.32554 0.91806 0.22905 0.0
O1424 O 0.3838 0.94402 0.25985 0.0
O1425 O 0.36684 0.91139 0.20485 0.0
O1426 O 0.32278 0.86049 0.29534 0.0
O1427 O 0.32472 0.86909 0.20207 0.0
O1428 O 0.37052 0.8994 0.30809 0.0
O1429 O 0.35558 0.9152 0.34941 0.0
O1430 O 0.30515 0.8882 0.31261 0.0
O1431 O 0.31409 0.92523 0.32105 0.0
H1432 H 0.39722 0.96297 0.36508 0.0
H1433 H 0.438 0.98652 0.34377 0.0
H1434 H 0.43037 1.04633 0.34477 0.0
H1435 H 0.38941 1.02241 0.36417 0.0
H1436 H 0.29718 0.81418 0.31243 0.0
H1437 H 0.26415 0.77647 0.29272 0.0
H1438 H 0.2542 0.80081 0.12378 0.0
H1439 H 0.28714 0.83864 0.14423 0.0
C1440 C 0.31675 0.08976 0.99404 0.0
C1441 C 0.3009 0.09326 0.0273 0.0
H1442 H 0.32555 0.06604 0.95473 0.0
C1443 C 0.281 0.07321 0.0472 0.0
H1444 H 0.33247 0.10428 0.97823 0.0
C1445 C 0.27701 1.05091 0.0336 0.0
C1446 C 0.2928 1.04754 0.99981 0.0
H1447 H 0.26803 0.07464 0.07222 0.0
H1448 H 0.26126 1.03627 0.04879 0.0
C1449 C 0.31283 0.06752 0.98081 0.0
C1450 C 1.07 0.2776 0.98639 0.0
C1451 C 0.09011 0.27684 1.00014 0.0
H1452 H 1.03314 0.26076 0.98804 0.0
C1453 C 0.08698 0.25711 0.03038 0.0
H1454 H 1.07134 0.29229 0.9632 0.0
C1455 C 1.06482 0.2388 0.04484 0.0
C1456 C 1.04462 0.2392 0.0295 0.0
H1457 H 0.1017 0.25546 0.04162 0.0
H1458 H 1.0636 0.22393 0.06665 0.0
C1459 C 1.04783 0.25919 1.00027 0.0
C1460 C 0.86181 0.81933 0.98244 0.0
C1461 C 0.86179 0.83938 1.00096 0.0
H1462 H 0.87929 0.79995 0.97974 0.0
C1463 C 0.88086 0.85523 0.03457 0.0
H1464 H 0.84768 0.8066 0.95633 0.0
C1465 C 0.89927 0.85141 0.04804 0.0
C1466 C 0.89961 0.83161 0.02826 0.0
H1467 H 0.8819 0.871 0.04937 0.0
H1468 H 0.91364 0.86449 0.07268 0.0
C1469 C 0.88028 0.81559 0.99548 0.0
C1470 C 0.09656 0.28888 0.55376 0.0
C1471 C 1.07662 0.26962 0.53163 0.0
H1472 H 0.13334 0.30773 0.5596 0.0
C1473 C 1.08006 0.25463 0.49468 0.0
H1474 H 0.09495 0.30078 0.5829 0.0
C1475 C 0.10236 0.25853 0.48136 0.0
C1476 C 0.12235 0.27754 0.50468 0.0
H1477 H 1.06544 0.23944 0.47696 0.0
H1478 H 0.1038 0.24609 0.45395 0.0
C1479 C 0.11883 0.29271 0.5409 0.0
C1480 C 0.88058 0.87052 0.48364 0.0
C1481 C 0.86009 0.87026 0.49974 0.0
H1482 H 0.90071 0.85374 0.48616 0.0
C1483 C 0.8434 0.85039 0.52961 0.0
H1484 H 0.89415 0.88531 0.46129 0.0
C1485 C 0.84716 0.83198 0.54339 0.0
C1486 C 0.86792 0.8326 0.52887 0.0
H1487 H 0.82723 0.84893 0.54244 0.0
H1488 H 0.83389 0.8174 0.56715 0.0
C1489 C 0.88442 0.8522 0.49801 0.0
C1490 C 0.26132 1.0354 0.48635 0.0
C1491 C 0.26121 1.01532 0.50598 0.0
H1492 H 0.27841 0.07238 0.48517 0.0
C1493 C 0.28051 1.01887 0.53937 0.0
H1494 H 0.24697 1.03395 0.46122 0.0
C1495 C 0.29871 1.04112 0.55289 0.0
C1496 C 0.29867 0.06114 0.53411 0.0
H1497 H 0.28178 1.00437 0.55502 0.0
H1498 H 0.31283 1.04254 0.57901 0.0
C1499 C 0.27954 0.05773 0.50028 0.0
C1500 C 0.88921 0.05804 0.99974 0.0
C1501 C 0.87308 0.0615 0.03163 0.0
H1502 H 0.89835 1.03416 0.96268 0.0
C1503 C 0.85266 1.04154 0.04876 0.0
H1504 H 0.90526 0.07264 0.98597 0.0
C1505 C 0.84866 1.01928 0.03568 0.0
C1506 C 0.86482 1.01567 1.00437 0.0
H1507 H 0.83961 1.04301 0.07322 0.0
H1508 H 0.83261 1.00481 0.05001 0.0
C1509 C 0.88514 1.03568 0.98623 0.0
C1510 C 0.10046 0.86975 0.9817 0.0
C1511 C 0.12067 0.8703 1.00188 0.0
H1512 H 1.06352 0.8522 0.98044 0.0
C1513 C 0.11751 0.85118 0.03545 0.0
H1514 H 0.10165 0.88396 0.95644 0.0
C1515 C 0.09537 0.83272 0.04888 0.0
C1516 C 1.07524 0.83247 0.03004 0.0
H1517 H 0.1322 0.85036 0.05162 0.0
H1518 H 0.09402 0.81885 0.07595 0.0
C1519 C 1.07831 0.85132 0.99559 0.0
C1520 C 0.28337 0.25268 0.99876 0.0
C1521 C 0.30313 0.26915 0.02908 0.0
H1522 H 0.25018 0.24305 0.96276 0.0
C1523 C 0.30393 0.28998 0.04329 0.0
H1524 H 0.28168 0.23632 0.98717 0.0
C1525 C 0.28554 0.29385 0.02971 0.0
C1526 C 0.26551 0.2772 1.00038 0.0
H1527 H 0.31863 0.30324 0.06659 0.0
H1528 H 0.28716 0.31009 0.04225 0.0
C1529 C 0.26508 0.25662 0.98463 0.0
C1530 C 0.08502 0.85498 0.53225 0.0
C1531 C 0.08832 0.83862 0.50115 0.0
H1532 H 1.06146 0.86464 0.56856 0.0
C1533 C 1.06827 0.818 0.48583 0.0
H1534 H 0.09969 0.87118 0.54469 0.0
C1535 C 1.04602 0.81425 0.49907 0.0
C1536 C 1.04264 0.83081 0.52915 0.0
H1537 H 1.06972 0.80485 0.46176 0.0
H1538 H 1.0314 0.7982 0.4856 0.0
C1539 C 1.06278 0.85115 0.54605 0.0
C1540 C 0.2856 0.23956 0.55111 0.0
C1541 C 0.30507 0.23878 0.53023 0.0
H1542 H 0.26629 0.25721 0.55257 0.0
C1543 C 0.32083 0.25761 0.4954 0.0
H1544 H 0.27274 0.22556 0.57733 0.0
C1545 C 0.31714 0.27604 0.48153 0.0
C1546 C 0.2974 0.27649 0.50119 0.0
H1547 H 0.33621 0.25824 0.4787 0.0
H1548 H 0.32964 0.28978 0.45387 0.0
C1549 C 0.28183 0.25791 0.53678 0.0
C1550 C 0.90259 0.07314 0.54326 0.0
C1551 C 0.90279 0.09322 0.52341 0.0
H1552 H 0.88532 1.03618 0.54498 0.0
C1553 C 0.88346 0.08977 0.49035 0.0
H1554 H 0.91698 0.07453 0.56814 0.0
C1555 C 0.86512 0.06756 0.47731 0.0
C1556 C 0.86511 1.04753 0.49627 0.0
H1557 H 0.8823 0.10432 0.47458 0.0
H1558 H 0.85094 0.06613 0.45139 0.0
C1559 C 0.88425 1.05086 0.52982 0.0
C1560 C 0.98794 0.42367 0.32435 0.0
C1561 C 0.97225 0.42704 0.35892 0.0
H1562 H 0.99645 0.39999 0.28306 0.0
C1563 C 0.95274 0.40691 0.37996 0.0
H1564 H 1.00335 0.43826 0.30742 0.0
C1565 C 0.94887 0.38469 0.36603 0.0
C1566 C 0.96438 0.3814 0.33066 0.0
H1567 H 0.93989 0.40819 0.406 0.0
H1568 H 0.9333 0.36999 0.38196 0.0
C1569 C 0.98414 0.40146 0.31089 0.0
C1570 C 0.73558 0.60643 0.31398 0.0
C1571 C 0.75571 0.60662 0.33274 0.0
H1572 H 0.69876 0.58907 0.31208 0.0
C1573 C 0.75258 0.58769 0.36695 0.0
H1574 H 0.7369 0.62046 0.28768 0.0
C1575 C 0.73038 0.56936 0.38113 0.0
C1576 C 0.71019 0.56896 0.36143 0.0
H1577 H 0.76736 0.58676 0.38198 0.0
H1578 H 0.72914 0.55512 0.40643 0.0
C1579 C 0.71343 0.58808 0.32777 0.0
C1580 C 0.53051 0.15678 0.31561 0.0
C1581 C 0.53038 0.17674 0.33456 0.0
H1582 H 0.54772 0.13717 0.31341 0.0
C1583 C 0.54935 0.19244 0.36873 0.0
H1584 H 0.51648 0.1441 0.28926 0.0
C1585 C 0.56764 0.18842 0.38276 0.0
C1586 C 0.56795 0.16859 0.36288 0.0
H1587 H 0.55033 0.20814 0.38394 0.0
H1588 H 0.58191 0.20131 0.40812 0.0
C1589 C 0.54879 0.15284 0.32922 0.0
C1590 C 0.76908 0.58948 0.81825 0.0
C1591 C 0.78914 0.60901 0.83937 0.0
H1592 H 0.73215 0.57006 0.81563 0.0
C1593 C 0.78568 0.62461 0.87388 0.0
H1594 H 0.77047 0.5767 0.79228 0.0
C1595 C 0.76342 0.62077 0.88711 0.0
C1596 C 0.74342 0.60105 0.86686 0.0
H1597 H 0.80026 0.64004 0.89072 0.0
H1598 H 0.76194 0.63325 0.91428 0.0
C1599 C 0.7468 0.58557 0.83183 0.0
C1600 C 0.55419 0.18935 0.83225 0.0
C1601 C 0.53818 0.17008 0.86505 0.0
H1602 H 0.56324 0.22208 0.79394 0.0
C1603 C 0.51782 0.16976 0.88239 0.0
H1604 H 0.57019 0.19064 0.81834 0.0
C1605 C 0.5138 0.18795 0.86865 0.0
C1606 C 0.52988 0.20743 0.83647 0.0
H1607 H 0.5049 0.15543 0.90755 0.0
H1608 H 0.49783 0.18657 0.88318 0.0
C1609 C 0.55011 0.20755 0.81811 0.0
C1610 C 0.95481 0.35311 0.86315 0.0
C1611 C 0.93494 0.34971 0.83277 0.0
H1612 H 0.98772 0.37681 0.90082 0.0
C1613 C 0.93468 0.36982 0.81575 0.0
H1614 H 0.9563 0.33851 0.87675 0.0
C1615 C 0.95295 0.39205 0.82974 0.0
C1616 C 0.97254 0.39537 0.86115 0.0
H1617 H 0.91992 0.36849 0.79297 0.0
H1618 H 0.95136 0.40669 0.81721 0.0
C1619 C 0.97318 0.37534 0.87654 0.0
C1620 C 0.54629 0.36895 0.3191 0.0
C1621 C 0.5263 0.34896 0.33855 0.0
H1622 H 0.56632 0.40581 0.31849 0.0
C1623 C 0.51046 0.35246 0.37194 0.0
H1624 H 0.55924 0.36748 0.29401 0.0
C1625 C 0.51454 0.37473 0.38574 0.0
C1626 C 0.53475 0.39465 0.36733 0.0
H1627 H 0.49468 0.33792 0.38741 0.0
H1628 H 0.50183 0.37626 0.41183 0.0
C1629 C 0.55045 0.39121 0.33332 0.0
C1630 C 0.76309 0.17016 0.38079 0.0
C1631 C 0.743 0.17039 0.36375 0.0
H1632 H 0.79988 0.18718 0.38159 0.0
C1633 C 0.74615 0.18974 0.33152 0.0
H1634 H 0.76176 0.15578 0.4055 0.0
C1635 C 0.76838 0.20809 0.31767 0.0
C1636 C 0.78853 0.20806 0.33575 0.0
H1637 H 0.7314 0.19097 0.31788 0.0
H1638 H 0.76968 0.22267 0.29398 0.0
C1639 C 0.78525 0.1885 0.36732 0.0
C1640 C 0.95284 0.62628 0.36098 0.0
C1641 C 0.93251 0.60935 0.33336 0.0
H1642 H 0.98627 0.63599 0.39607 0.0
C1643 C 0.93188 0.58856 0.31893 0.0
H1644 H 0.95463 0.64268 0.37246 0.0
C1645 C 0.95028 0.58471 0.33269 0.0
C1646 C 0.97036 0.60147 0.36131 0.0
H1647 H 0.91677 0.57478 0.29837 0.0
H1648 H 0.94843 0.5682 0.3222 0.0
C1649 C 0.97132 0.62249 0.37417 0.0
C1650 C 0.75405 0.19358 0.86744 0.0
C1651 C 0.75732 0.17763 0.83424 0.0
H1652 H 0.73035 0.20258 0.90643 0.0
C1653 C 0.73728 0.15738 0.81681 0.0
H1654 H 0.76875 0.20948 0.88147 0.0
C1655 C 0.71508 0.15339 0.83086 0.0
C1656 C 0.71167 0.16939 0.86346 0.0
H1657 H 0.73864 0.14448 0.79135 0.0
H1658 H 0.70052 0.1375 0.81624 0.0
C1659 C 0.73176 0.18951 0.88191 0.0
C1660 C 0.94986 0.59046 0.86642 0.0
C1661 C 0.9648 0.60865 0.82876 0.0
H1662 H 0.94131 0.55843 0.90817 0.0
C1663 C 0.98395 0.60769 0.80634 0.0
H1664 H 0.93476 0.5901 0.88439 0.0
C1665 C 0.98773 0.58927 0.81972 0.0
C1666 C 0.97263 0.57083 0.85673 0.0
H1667 H 0.9958 0.62097 0.77664 0.0
H1668 H 1.00267 0.58959 0.8008 0.0
C1669 C 0.95371 0.57208 0.88021 0.0
C1670 C 0.54814 0.42346 0.82392 0.0
C1671 C 0.56697 0.4267 0.85905 0.0
H1672 H 0.51586 0.4 0.78319 0.0
C1673 C 0.56609 0.40649 0.88057 0.0
H1674 H 0.54751 0.43811 0.80669 0.0
C1675 C 0.54762 0.38431 0.86687 0.0
C1676 C 0.52896 0.38117 0.83135 0.0
H1677 H 0.58005 0.40767 0.90701 0.0
H1678 H 0.54821 0.36955 0.88343 0.0
C1679 C 0.52963 0.40131 0.81065 0.0
C1680 C 0.65571 0.75734 0.66714 0.0
C1681 C 0.6389 0.76063 0.69619 0.0
H1682 H 0.66537 0.73375 0.63066 0.0
C1683 C 0.61838 0.74048 0.71213 0.0
H1684 H 0.67191 0.77197 0.65446 0.0
C1685 C 0.61464 0.71831 0.6984 0.0
C1686 C 0.63126 0.7151 0.66829 0.0
H1687 H 0.60469 0.74174 0.73381 0.0
H1688 H 0.59831 0.70363 0.71004 0.0
C1689 C 0.65204 0.73515 0.65393 0.0
C1690 C 0.38182 0.925 0.6622 0.0
C1691 C 0.37842 0.90599 0.6967 0.0
H1692 H 0.40556 0.95698 0.6206 0.0
C1693 C 0.39853 0.90649 0.71752 0.0
H1694 H 0.36723 0.92589 0.64544 0.0
C1695 C 0.4208 0.92471 0.70333 0.0
C1696 C 0.42409 0.94345 0.66796 0.0
H1697 H 0.39719 0.89236 0.74354 0.0
H1698 H 0.43549 0.92377 0.719 0.0
C1699 C 0.40405 0.94326 0.64853 0.0
C1700 C 0.2186 0.52653 0.6973 0.0
C1701 C 0.19967 0.51086 0.66293 0.0
H1702 H 0.25113 0.53544 0.73675 0.0
C1703 C 0.19988 0.49098 0.64367 0.0
H1704 H 0.2195 0.54217 0.71276 0.0
C1705 C 0.2182 0.48708 0.65723 0.0
C1706 C 0.2373 0.50281 0.6911 0.0
H1707 H 0.1859 0.47834 0.61711 0.0
H1708 H 0.21719 0.47147 0.64121 0.0
C1709 C 0.23692 0.52257 0.71124 0.0
C1710 C 0.42935 0.95611 0.21441 0.0
C1711 C 0.40925 0.93598 0.19692 0.0
H1712 H 0.46619 0.97549 0.21645 0.0
C1713 C 0.41244 0.91997 0.16373 0.0
H1714 H 0.42792 0.96879 0.24055 0.0
C1715 C 0.43466 0.9237 0.14997 0.0
C1716 C 0.45484 0.94358 0.16901 0.0
H1717 H 0.3977 0.90411 0.14959 0.0
H1718 H 0.43591 0.91048 0.12577 0.0
C1719 C 0.45155 0.95979 0.20118 0.0
C1720 C 0.18114 0.52156 0.2032 0.0
C1721 C 0.19679 0.54052 0.1687 0.0
H1722 H 0.17252 0.48945 0.24416 0.0
C1723 C 0.21652 0.5401 0.14825 0.0
H1724 H 0.16555 0.52062 0.21945 0.0
C1725 C 0.22055 0.52187 0.16256 0.0
C1726 C 0.20496 0.50311 0.19761 0.0
H1727 H 0.22932 0.55422 0.12224 0.0
H1728 H 0.23617 0.52273 0.14691 0.0
C1729 C 0.18509 0.50334 0.21711 0.0
C1730 C 0.61736 0.72416 0.16631 0.0
C1731 C 0.63654 0.72756 0.19988 0.0
H1732 H 0.58463 0.70051 0.12815 0.0
C1733 C 0.63666 0.70754 0.21832 0.0
H1734 H 0.61616 0.7388 0.15147 0.0
C1735 C 0.61827 0.68528 0.20535 0.0
C1736 C 0.59884 0.6818 0.17255 0.0
H1737 H 0.65083 0.70904 0.24447 0.0
H1738 H 0.61941 0.67073 0.22114 0.0
C1739 C 0.59905 0.70189 0.15282 0.0
C1740 C 0.18583 0.70929 0.71711 0.0
C1741 C 0.20587 0.72933 0.69855 0.0
H1742 H 0.16614 0.67255 0.71856 0.0
C1743 C 0.22165 0.72612 0.66427 0.0
H1744 H 0.1731 0.71064 0.74348 0.0
C1745 C 0.21762 0.70389 0.64978 0.0
C1746 C 0.19771 0.6838 0.6693 0.0
H1747 H 0.23741 0.74083 0.64934 0.0
H1748 H 0.23056 0.70252 0.62436 0.0
C1749 C 0.18187 0.68714 0.70305 0.0
C1750 C 0.45354 0.51906 0.70195 0.0
C1751 C 0.45678 0.53863 0.67029 0.0
H1752 H 0.43 0.48625 0.74042 0.0
C1753 C 0.43656 0.53842 0.65177 0.0
H1754 H 0.46823 0.51794 0.71675 0.0
C1755 C 0.41438 0.51997 0.66544 0.0
C1756 C 0.41121 0.50068 0.69804 0.0
H1757 H 0.43776 0.55294 0.62801 0.0
H1758 H 0.39963 0.52118 0.65165 0.0
C1759 C 0.43135 0.50052 0.71509 0.0
C1760 C 0.61786 0.91889 0.66466 0.0
C1761 C 0.63734 0.93512 0.69637 0.0
H1762 H 0.58476 0.90933 0.628 0.0
C1763 C 0.6377 0.95557 0.71248 0.0
H1764 H 0.61648 0.90279 0.65163 0.0
C1765 C 0.61925 0.95936 0.69935 0.0
C1766 C 0.59949 0.94294 0.66867 0.0
H1767 H 0.65207 0.96847 0.73736 0.0
H1768 H 0.62059 0.97532 0.71349 0.0
C1769 C 0.59945 0.92272 0.65101 0.0
C1770 C 0.3976 0.51833 0.21457 0.0
C1771 C 0.37753 0.49819 0.19638 0.0
H1772 H 0.4345 0.53829 0.21419 0.0
C1773 C 0.38092 0.4819 0.16502 0.0
H1774 H 0.39621 0.5316 0.23811 0.0
C1775 C 0.40316 0.48573 0.15174 0.0
C1776 C 0.42316 0.50616 0.1684 0.0
H1777 H 0.36632 0.466 0.15056 0.0
H1778 H 0.40466 0.47283 0.12664 0.0
C1779 C 0.41984 0.52225 0.20077 0.0
C1780 C 0.618 0.90481 0.2149 0.0
C1781 C 0.63754 0.90412 0.19395 0.0
H1782 H 0.5986 0.92241 0.217 0.0
C1783 C 0.6533 0.92318 0.15973 0.0
H1784 H 0.6051 0.89068 0.24071 0.0
C1785 C 0.64955 0.94165 0.14652 0.0
C1786 C 0.62978 0.94204 0.16615 0.0
H1787 H 0.66872 0.92396 0.14284 0.0
H1788 H 0.66189 0.9554 0.11883 0.0
C1789 C 0.61419 0.92323 0.20118 0.0
C1790 C 0.21684 0.75751 0.1583 0.0
C1791 C 0.23588 0.7608 0.19248 0.0
H1792 H 0.18462 0.73406 0.1177 0.0
C1793 C 0.23543 0.74065 0.21273 0.0
H1794 H 0.21588 0.77212 0.14217 0.0
C1795 C 0.21713 0.71844 0.19862 0.0
C1796 C 0.19829 0.71527 0.16393 0.0
H1797 H 0.24959 0.74193 0.23845 0.0
H1798 H 0.21799 0.7037 0.21416 0.0
C1799 C 0.19855 0.73536 0.14453 0.0
C1800 C 0.42182 0.24335 0.17987 0.0
C1801 C 0.39819 0.22796 0.17135 0.0
H1802 H 0.45555 0.2484 0.19667 0.0
C1803 C 0.39144 0.20437 0.17342 0.0
H1804 H 0.42818 0.26159 0.17838 0.0
C1805 C 0.4074 0.19663 0.18379 0.0
C1806 C 0.43104 0.21206 0.19229 0.0
H1807 H 0.37362 0.19166 0.16681 0.0
H1808 H 0.40108 0.1784 0.18542 0.0
C1809 C 0.43775 0.23563 0.19009 0.0
C1810 C 0.89107 0.2041 0.17892 0.0
C1811 C 0.9066 0.19586 0.17206 0.0
H1812 H 0.88595 0.23293 0.19427 0.0
C1813 C 0.93016 0.21269 0.17557 0.0
H1814 H 0.87285 0.19222 0.1762 0.0
C1815 C 0.93778 0.23629 0.1854 0.0
C1816 C 0.92231 0.24457 0.19227 0.0
H1817 H 0.94301 0.20765 0.17027 0.0
H1818 H 0.95602 0.24812 0.18788 0.0
C1819 C 0.89872 0.22778 0.18897 0.0
C1820 C 0.90748 0.69741 0.18787 0.0
C1821 C 0.89063 0.70415 0.19018 0.0
H1822 H 0.94303 0.70703 0.17626 0.0
C1823 C 0.89874 0.72778 0.18209 0.0
H1824 H 0.90246 0.6796 0.19415 0.0
C1825 C 0.92238 0.74375 0.17207 0.0
C1826 C 0.93922 0.73698 0.16988 0.0
H1827 H 0.88679 0.73408 0.18383 0.0
H1828 H 0.92745 0.76157 0.16581 0.0
C1829 C 0.93109 0.71335 0.1779 0.0
C1830 C 0.22529 0.38077 0.348 0.0
C1831 C 0.24079 0.40438 0.33951 0.0
H1832 H 0.22026 0.34702 0.36491 0.0
C1833 C 0.26437 0.41109 0.34176 0.0
H1834 H 0.20705 0.37449 0.34634 0.0
C1835 C 0.27206 0.39517 0.35198 0.0
C1836 C 0.2566 0.37158 0.36043 0.0
H1837 H 0.27717 0.42888 0.3352 0.0
H1838 H 0.29031 0.40149 0.35351 0.0
C1839 C 0.233 0.36483 0.35834 0.0
C1840 C 0.72563 0.88092 0.34113 0.0
C1841 C 0.73233 0.86405 0.33793 0.0
H1842 H 0.73543 0.9165 0.35365 0.0
C1843 C 0.75602 0.87216 0.34491 0.0
H1844 H 0.70776 0.87589 0.33573 0.0
C1845 C 0.77207 0.89574 0.35472 0.0
C1846 C 0.76541 0.91263 0.35803 0.0
H1847 H 0.76233 0.86023 0.34249 0.0
H1848 H 0.78993 0.90071 0.36008 0.0
C1849 C 0.7417 0.90454 0.35111 0.0
C1850 C 0.26511 0.91062 0.34899 0.0
C1851 C 0.2732 0.8951 0.3395 0.0
H1852 H 0.23647 0.91583 0.36618 0.0
C1853 C 0.25627 0.87159 0.34011 0.0
H1854 H 0.27712 0.92883 0.34862 0.0
C1855 C 0.23261 0.86401 0.34989 0.0
C1856 C 0.22452 0.87953 0.35938 0.0
H1857 H 0.26126 0.85881 0.3327 0.0
H1858 H 0.2206 0.8458 0.35026 0.0
C1859 C 0.24146 0.90305 0.35877 0.0
C1860 C 0.77248 0.9029 0.85923 0.0
C1861 C 0.76591 0.87938 0.8602 0.0
H1862 H 0.76262 0.92868 0.84841 0.0
C1863 C 0.74236 0.86384 0.85068 0.0
H1864 H 0.79021 0.91569 0.86661 0.0
C1865 C 0.7263 0.87141 0.84057 0.0
C1866 C 0.73287 0.89494 0.83957 0.0
H1867 H 0.73618 0.84563 0.8513 0.0
H1868 H 0.70856 0.85864 0.83315 0.0
C1869 C 0.75643 0.91047 0.84906 0.0
C1870 C 0.2252 0.87196 0.84574 0.0
C1871 C 0.24073 0.86373 0.83961 0.0
H1872 H 0.22 0.90069 0.86067 0.0
C1873 C 0.2643 0.88049 0.84415 0.0
H1874 H 0.20699 0.86013 0.84223 0.0
C1875 C 0.2719 0.90409 0.85442 0.0
C1876 C 0.25638 0.91233 0.86048 0.0
H1877 H 0.27714 0.87541 0.83947 0.0
H1878 H 0.29011 0.91591 0.85787 0.0
C1879 C 0.23281 0.89557 0.856 0.0
C1880 C 0.23405 0.39614 0.84848 0.0
C1881 C 0.22593 0.37254 0.85763 0.0
H1882 H 0.26274 0.42989 0.83155 0.0
C1883 C 0.24287 0.36589 0.85682 0.0
H1884 H 0.22206 0.4024 0.84903 0.0
C1885 C 0.26654 0.38188 0.84717 0.0
C1886 C 0.27466 0.40547 0.83792 0.0
H1887 H 0.23786 0.34813 0.864 0.0
H1888 H 0.27852 0.37561 0.84667 0.0
C1889 C 0.25773 0.41212 0.83873 0.0
C1890 C 0.89152 0.71265 0.67951 0.0
C1891 C 0.90706 0.73624 0.67068 0.0
H1892 H 0.88639 0.67886 0.69633 0.0
C1893 C 0.93061 0.74288 0.672 0.0
H1894 H 0.87329 0.70643 0.67855 0.0
C1895 C 0.93823 0.72688 0.6818 0.0
C1896 C 0.92272 0.70331 0.6907 0.0
H1897 H 0.9434 0.76065 0.66509 0.0
H1898 H 0.95647 0.73313 0.68268 0.0
C1899 C 0.89915 0.69663 0.68941 0.0
C1900 C 0.42258 0.20456 0.67979 0.0
C1901 C 0.39882 0.19624 0.67309 0.0
H1902 H 0.45645 0.23339 0.69488 0.0
C1903 C 0.39204 0.21308 0.67663 0.0
H1904 H 0.42899 0.19272 0.67707 0.0
C1905 C 0.40798 0.23674 0.68642 0.0
C1906 C 0.43173 0.24507 0.69314 0.0
H1907 H 0.37415 0.208 0.67146 0.0
H1908 H 0.40155 0.24856 0.68903 0.0
C1909 C 0.43855 0.22826 0.68971 0.0
C1910 C 0.93152 0.24248 0.67739 0.0
C1911 C 0.93967 0.22697 0.66956 0.0
H1912 H 0.90297 0.24777 0.69338 0.0
C1913 C 0.92284 0.20341 0.67196 0.0
H1914 H 0.94344 0.2607 0.6756 0.0
C1915 C 0.89918 0.19581 0.6821 0.0
C1916 C 0.89108 0.2114 0.68993 0.0
H1917 H 0.92794 0.19065 0.66587 0.0
H1918 H 0.88722 0.17761 0.68413 0.0
C1919 C 0.90794 0.23492 0.68729 0.0
C1920 C 0.09041 0.5774 0.5114 0.0
C1921 C 1.06676 0.5619 0.50355 0.0
H1922 H 0.12425 0.58265 0.52772 0.0
C1923 C 1.06011 0.53834 0.50642 0.0
H1924 H 0.09669 0.59561 0.50927 0.0
C1925 C 1.07617 0.53074 0.51683 0.0
C1926 C 0.09983 0.54627 0.52464 0.0
H1927 H 1.04229 0.52555 0.50035 0.0
H1928 H 1.06992 0.51253 0.51901 0.0
C1929 C 0.10644 0.56981 0.52172 0.0
C1930 C 0.56738 0.56243 0.5276 0.0
C1931 C 0.59096 0.57928 0.52709 0.0
H1932 H 0.54137 0.52682 0.51845 0.0
C1933 C 0.60635 0.57112 0.51671 0.0
H1934 H 0.55469 0.5675 0.53576 0.0
C1935 C 0.59859 0.54747 0.50698 0.0
C1936 C 0.57501 0.53061 0.50748 0.0
H1937 H 0.6246 0.58305 0.51622 0.0
H1938 H 0.61129 0.54242 0.49875 0.0
C1939 C 0.55961 0.53876 0.51801 0.0
C1940 C 0.5918 0.07746 0.50826 0.0
C1941 C 0.60878 0.07089 0.50576 0.0
H1942 H 0.55622 0.06761 0.51984 0.0
C1943 C 0.60082 1.04726 0.51353 0.0
H1944 H 0.59669 0.09524 0.50222 0.0
C1945 C 0.57718 1.03115 0.5235 0.0
C1946 C 0.56023 1.03778 0.52586 0.0
H1947 H 0.61287 1.04109 0.51163 0.0
H1948 H 0.57221 1.01334 0.52959 0.0
C1949 C 0.56824 0.06139 0.51807 0.0
C1950 C 0.60448 0.06128 0.01949 0.0
C1951 C 0.58893 1.0376 0.02628 0.0
H1952 H 0.60981 0.09517 1.00428 0.0
C1953 C 0.56537 1.03091 0.02271 0.0
H1954 H 0.6227 0.06756 0.0222 0.0
C1955 C 0.55781 1.047 1.01258 0.0
C1956 C 0.57341 0.0707 1.00581 0.0
H1957 H 0.55256 1.01306 0.02797 0.0
H1958 H 0.5396 1.04076 1.00977 0.0
C1959 C 0.59694 0.07733 1.00948 0.0
C1960 C 1.05999 0.54842 1.00518 0.0
C1961 C 1.06678 0.53158 1.00377 0.0
H1962 H 1.06956 0.58403 0.01616 0.0
C1963 C 0.09042 0.53983 1.01247 0.0
H1964 H 1.04216 0.54331 0.99839 0.0
C1965 C 0.10632 0.56348 0.02221 0.0
C1966 C 0.09957 0.58035 0.02372 0.0
H1967 H 0.09682 0.52796 1.01148 0.0
H1968 H 0.12413 0.56852 0.02894 0.0
C1969 C 1.07591 0.57212 0.01506 0.0
C1970 C 0.56685 0.53146 0.01481 0.0
C1971 C 0.55901 0.54699 0.02664 0.0
H1972 H 0.59526 0.52618 0.99558 0.0
C1973 C 0.57609 0.57046 0.02842 0.0
H1974 H 0.55471 0.51329 1.0133 0.0
C1975 C 0.59971 0.57798 0.01864 0.0
C1976 C 0.60754 0.56242 1.00668 0.0
H1977 H 0.57123 0.58322 0.03773 0.0
H1978 H 0.61188 0.59614 0.02006 0.0
C1979 C 0.59044 0.53897 1.00495 0.0
C1980 C 0.39872 0.26017 0.92747 0.0
C1981 C 0.39729 0.27256 0.97714 0.0
H1982 H 0.41768 0.26004 0.84858 0.0
C1983 C 0.41665 0.29462 0.98524 0.0
H1984 H 0.38438 0.24338 0.91783 0.0
C1985 C 0.43568 0.30414 0.94563 0.0
C1986 C 0.43701 0.29235 0.89495 0.0
H1987 H 0.41681 0.30518 0.02184 0.0
H1988 H 0.44928 0.3215 0.95374 0.0
C1989 C 0.41811 0.26982 0.88734 0.0
C1990 C 0.85708 0.14053 0.91308 0.0
C1991 C 0.86844 0.151 0.96695 0.0
H1992 H 0.83838 0.14075 0.83539 0.0
C1993 C 0.87008 0.1725 0.97917 0.0
H1994 H 0.85478 0.12393 0.90139 0.0
C1995 C 0.86017 0.18236 0.94043 0.0
C1996 C 0.84825 0.17134 0.88722 0.0
H1997 H 0.87796 0.18121 0.02043 0.0
H1998 H 0.86097 0.19817 0.95377 0.0
C1999 C 0.84746 0.15034 0.87462 0.0
C2000 C 0.95537 0.70487 0.92909 0.0
C2001 C 0.96893 0.703 0.883 0.0
H2002 H 0.95378 0.7238 1.00633 0.0
C2003 C 0.99169 0.72161 0.87946 0.0
H2004 H 0.93791 0.69116 0.93508 0.0
C2005 C 1.00069 0.7403 0.91991 0.0
C2006 C 0.98773 0.74202 0.96726 0.0
H2007 H 1.00314 0.72155 0.8456 0.0
H2008 H 1.01852 0.75333 0.9151 0.0
C2009 C 0.96456 0.7239 0.97035 0.0
C2010 C 0.31592 0.36928 0.60834 0.0
C2011 C 0.30086 0.36727 0.56186 0.0
H2012 H 0.33748 0.38836 0.68157 0.0
C2013 C 0.29552 0.38521 0.55927 0.0
H2014 H 0.32096 0.3564 0.61271 0.0
C2015 C 0.30542 0.40434 0.60017 0.0
C2016 C 0.32123 0.40651 0.64533 0.0
H2017 H 0.28452 0.38507 0.52395 0.0
H2018 H 0.30143 0.41791 0.59461 0.0
C2019 C 0.32568 0.38807 0.64841 0.0
C2020 C 0.73359 0.92694 0.5953 0.0
C2021 C 0.73233 0.93931 0.64531 0.0
H2022 H 0.75238 0.92671 0.51608 0.0
C2023 C 0.75183 0.96127 0.65337 0.0
H2024 H 0.71914 0.91023 0.58557 0.0
C2025 C 0.77086 0.97069 0.61363 0.0
C2026 C 0.77204 0.95893 0.56264 0.0
H2027 H 0.75215 0.97184 0.69015 0.0
H2028 H 0.78458 0.98797 0.62191 0.0
C2029 C 0.75295 0.9365 0.55497 0.0
C2030 C 0.17858 0.81427 0.54243 0.0
C2031 C 0.17992 0.83571 0.55161 0.0
H2032 H 0.18589 0.78828 0.57284 0.0
C2033 C 0.1929 0.84804 0.60237 0.0
H2034 H 0.16886 0.80377 0.50501 0.0
C2035 C 0.20314 0.83888 0.64239 0.0
C2036 C 0.2009 0.81694 0.63362 0.0
H2037 H 0.19428 0.86434 0.61292 0.0
H2038 H 0.21178 0.84855 0.68192 0.0
C2039 C 0.18861 0.80524 0.5819 0.0
C2040 C 0.72959 0.80269 0.08954 0.0
C2041 C 0.72758 0.81552 0.13668 0.0
H2042 H 0.74877 0.80049 0.01582 0.0
C2043 C 0.7456 0.83871 0.14003 0.0
H2044 H 0.71666 0.78485 0.08459 0.0
C2045 C 0.76482 0.84805 0.09926 0.0
C2046 C 0.76698 0.83462 0.05339 0.0
H2047 H 0.74546 0.8494 0.17589 0.0
H2048 H 0.77846 0.86551 0.10548 0.0
C2049 C 0.74847 0.81185 0.04953 0.0
C2050 C 0.29381 0.93653 0.05861 0.0
C2051 C 0.29762 0.9592 0.06499 0.0
H2052 H 0.30114 0.91019 0.09 0.0
C2053 C 0.31132 0.97141 0.11445 0.0
H2054 H 0.28398 0.92635 0.02091 0.0
C2055 C 0.32119 0.9622 0.15384 0.0
C2056 C 0.31825 0.93998 0.14706 0.0
H2057 H 0.31523 0.98887 0.12178 0.0
H2058 H 0.33197 0.97311 0.18939 0.0
C2059 C 0.30385 0.92715 0.09869 0.0
C2060 C 0.21122 0.40524 0.09388 0.0
C2061 C 0.19848 0.40707 0.14218 0.0
H2062 H 0.21167 0.38606 0.0159 0.0
C2063 C 0.17599 0.38822 0.14873 0.0
H2064 H 0.22838 0.41919 0.08545 0.0
C2065 C 0.16644 0.36929 0.10895 0.0
C2066 C 0.1786 0.36758 0.05958 0.0
H2067 H 0.16515 0.38837 0.18424 0.0
H2068 H 0.1488 0.35609 0.1159 0.0
C2069 C 0.20153 0.38595 0.05356 0.0
C2070 C 0.85158 0.74012 0.41882 0.0
C2071 C 0.86535 0.74167 0.46812 0.0
H2072 H 0.83117 0.72114 0.34371 0.0
C2073 C 0.86966 0.72313 0.47423 0.0
H2074 H 0.84733 0.75346 0.41185 0.0
C2075 C 0.85993 0.70383 0.43401 0.0
C2076 C 0.84544 0.70215 0.38583 0.0
H2077 H 0.8796 0.72292 0.51185 0.0
H2078 H 0.86295 0.68975 0.44243 0.0
C2079 C 0.84206 0.72116 0.37919 0.0
C2080 C 0.39396 0.1393 0.41653 0.0
C2081 C 0.39262 0.1504 0.46878 0.0
H2082 H 0.4132 0.13896 0.34008 0.0
C2083 C 0.41199 0.17242 0.47915 0.0
H2084 H 0.38004 0.12233 0.40624 0.0
C2085 C 0.43175 0.18221 0.44021 0.0
C2086 C 0.43313 0.17055 0.38878 0.0
H2087 H 0.41245 0.18166 0.51911 0.0
H2088 H 0.44638 0.19852 0.45208 0.0
C2089 C 0.41338 0.14901 0.37798 0.0
C2090 C 0.97059 0.26023 0.43192 0.0
C2091 C 0.98646 0.27374 0.47711 0.0
H2092 H 0.94983 0.25887 0.35555 0.0
C2093 C 0.99118 0.29671 0.47992 0.0
H2094 H 0.96638 0.24262 0.42647 0.0
C2095 C 0.98164 0.30594 0.43967 0.0
C2096 C 0.96652 0.29303 0.39319 0.0
H2097 H 1.00304 0.30816 0.51305 0.0
H2098 H 0.98689 0.32389 0.44395 0.0
C2099 C 0.9609 0.26966 0.39083 0.0
C2100 C 1.08256 0.62728 0.21078 0.0
C2101 C 0.10201 0.6247 0.21897 0.0
H2102 H 1.04971 0.62122 0.24186 0.0
C2103 C 0.10057 0.61079 0.26841 0.0
H2104 H 1.08241 0.63776 0.1744 0.0
C2105 C 1.08105 0.60082 0.30815 0.0
C2106 C 1.06203 0.6043 0.30046 0.0
H2107 H 0.11498 0.60842 0.27817 0.0
H2108 H 1.08146 0.59136 0.34668 0.0
C2109 C 1.06339 0.61755 0.25004 0.0
C2110 C 0.53748 0.50527 0.30692 0.0
C2111 C 0.53282 0.48227 0.3022 0.0
H2112 H 0.53109 0.53199 0.27357 0.0
C2113 C 0.51864 0.46975 0.25385 0.0
H2114 H 0.54778 0.51569 0.34374 0.0
C2115 C 0.50904 0.47902 0.21393 0.0
C2116 C 0.51279 0.50159 0.21916 0.0
H2117 H 0.51414 0.45205 0.24788 0.0
H2118 H 0.49786 0.46791 0.17922 0.0
C2119 C 0.52772 0.51472 0.26629 0.0
C2120 C 0.63806 0.07187 0.26141 0.0
C2121 C 0.65278 0.07378 0.30934 0.0
H2122 H 0.61805 1.05251 0.18416 0.0
C2123 C 0.65625 0.05479 0.31576 0.0
H2124 H 0.63496 0.08589 0.25293 0.0
C2125 C 0.64659 1.0357 0.27637 0.0
C2126 C 0.63253 1.03388 0.22743 0.0
H2127 H 0.66733 0.05495 0.35089 0.0
H2128 H 0.65094 1.02243 0.28328 0.0
C2129 C 0.62818 1.05242 0.22148 0.0
C2130 C 0.5282 1.03915 0.76851 0.0
C2131 C 0.51465 1.03789 0.71838 0.0
H2132 H 0.54699 0.05792 0.84777 0.0
C2133 C 0.51212 0.05737 0.71011 0.0
H2134 H 0.53051 1.02473 0.7784 0.0
C2135 C 0.52157 0.07637 0.74977 0.0
C2136 C 0.53442 0.07755 0.80088 0.0
H2137 H 0.50194 0.0577 0.67321 0.0
H2138 H 0.51797 0.09007 0.7413 0.0
C2139 C 0.53784 0.05849 0.80877 0.0
C2140 C 0.10552 0.49301 0.77976 0.0
C2141 C 0.10684 0.50633 0.72956 0.0
H2142 H 0.08663 0.47274 0.85537 0.0
C2143 C 0.08787 0.50994 0.72238 0.0
H2144 H 0.11918 0.48928 0.78764 0.0
C2145 C 1.06845 0.50002 0.76245 0.0
C2146 C 1.06703 0.48598 0.81155 0.0
H2147 H 0.08745 0.51949 0.68408 0.0
H2148 H 1.05409 0.50254 0.75321 0.0
C2149 C 0.08642 0.48326 0.81918 0.0
C2150 C 0.62827 0.60343 0.72579 0.0
C2151 C 0.63477 0.62703 0.72781 0.0
H2152 H 0.63293 0.5758 0.76083 0.0
C2153 C 0.65077 0.63985 0.77281 0.0
H2154 H 0.61644 0.59266 0.69169 0.0
C2155 C 0.66033 0.6303 0.81189 0.0
C2156 C 0.65466 0.60704 0.80943 0.0
H2157 H 0.65667 0.65796 0.77682 0.0
H2158 H 0.67288 0.64167 0.84387 0.0
C2159 C 0.63793 0.59365 0.76581 0.0
C2160 C 0.28859 0.28303 0.24266 0.0
C2161 C 0.28581 0.27947 0.30536 0.0
H2162 H 0.29879 0.27532 0.15785 0.0
C2163 C 0.29411 0.26508 0.32752 0.0
H2164 H 0.28252 0.29345 0.22165 0.0
C2165 C 0.30506 0.2557 0.29052 0.0
C2166 C 0.30745 0.25889 0.22761 0.0
H2167 H 0.29226 0.26105 0.37454 0.0
H2168 H 0.311 0.24515 0.31145 0.0
C2169 C 0.29825 0.27248 0.20524 0.0
C2170 C 0.89358 0.0668 0.25361 0.0
C2171 C 0.88084 0.07645 0.22842 0.0
H2172 H 0.89457 1.04109 0.3103 0.0
C2173 C 0.85709 0.06334 0.24127 0.0
H2174 H 0.91191 0.0755 0.24645 0.0
C2175 C 0.84651 1.04118 0.27004 0.0
C2176 C 0.85922 1.03253 0.29985 0.0
H2177 H 0.84655 0.0704 0.22951 0.0
H2178 H 0.82807 1.03106 0.27025 0.0
C2179 C 0.88334 1.04637 0.29027 0.0
C2180 C 1.05973 0.82655 0.28959 0.0
C2181 C 1.06061 0.8288 0.2264 0.0
H2182 H 1.07759 0.83549 0.37439 0.0
C2183 C 0.08341 0.84209 0.20373 0.0
H2184 H 1.04317 0.81712 0.31104 0.0
C2185 C 0.10371 0.85148 0.24066 0.0
C2186 C 0.10281 0.8496 0.30396 0.0
H2187 H 0.0857 0.84524 0.15637 0.0
H2188 H 0.12026 0.86104 0.21924 0.0
C2189 C 1.07996 0.83723 0.32678 0.0
C2190 C 0.88151 0.83068 0.79007 0.0
C2191 C 0.87828 0.82832 0.72721 0.0
H2192 H 0.87637 0.84362 0.87405 0.0
C2193 C 0.86496 0.83781 0.70481 0.0
H2194 H 0.89189 0.82453 0.81097 0.0
C2195 C 0.85462 0.84768 0.74221 0.0
C2196 C 0.85818 0.85039 0.80487 0.0
H2197 H 0.86214 0.83732 0.65743 0.0
H2198 H 0.84434 0.85393 0.72123 0.0
C2199 C 0.87237 0.84185 0.82704 0.0
C2200 C 0.27308 1.04652 0.79386 0.0
C2201 C 0.28328 1.03256 0.80291 0.0
H2202 H 0.27371 0.07572 0.75029 0.0
C2203 C 0.30453 1.04106 0.77253 0.0
H2204 H 0.25666 1.04135 0.81437 0.0
C2205 C 0.31612 0.06319 0.74366 0.0
C2206 C 0.30557 0.07642 0.73134 0.0
H2207 H 0.31277 1.03086 0.7724 0.0
H2208 H 0.33364 0.07013 0.73136 0.0
C2209 C 0.28327 0.06692 0.75708 0.0
C2210 C 1.06114 0.26154 0.78719 0.0
C2211 C 1.06172 0.25758 0.72501 0.0
H2212 H 1.07925 0.27318 0.87125 0.0
C2213 C 0.08433 0.26519 0.70296 0.0
H2214 H 1.04474 0.25611 0.80818 0.0
C2215 C 0.10476 0.27661 0.73934 0.0
C2216 C 0.10416 0.28028 0.80171 0.0
H2217 H 0.08638 0.26238 0.65648 0.0
H2218 H 0.12115 0.28191 0.71843 0.0
C2219 C 1.08144 0.2717 0.82417 0.0
C2220 C 0.95613 0.61566 0.57348 0.0
C2221 C 0.95227 0.61125 0.63571 0.0
H2222 H 0.96757 0.60896 0.48925 0.0
C2223 C 0.95983 0.59623 0.65769 0.0
H2224 H 0.95071 0.62663 0.55257 0.0
C2225 C 0.97114 0.58709 0.62114 0.0
C2226 C 0.97472 0.59124 0.55871 0.0
H2227 H 0.95706 0.59145 0.70422 0.0
H2228 H 0.97642 0.576 0.64196 0.0
C2229 C 0.96616 0.60538 0.53635 0.0
C2230 C 0.5222 0.39096 0.55328 0.0
C2231 C 0.5443 0.41024 0.56465 0.0
H2232 H 0.49541 0.35639 0.5765 0.0
C2233 C 0.55574 0.4069 0.61355 0.0
H2234 H 0.51257 0.39165 0.51572 0.0
C2235 C 0.54577 0.38628 0.649 0.0
C2236 C 0.52366 0.36701 0.63804 0.0
H2237 H 0.57285 0.42037 0.62452 0.0
H2238 H 0.55576 0.38544 0.68566 0.0
C2239 C 0.51223 0.37015 0.58852 0.0
C2240 C 0.73796 0.15195 0.58936 0.0
C2241 C 0.72836 0.16445 0.56315 0.0
H2242 H 0.76803 0.15268 0.62679 0.0
C2243 C 0.74115 0.18833 0.57665 0.0
H2244 H 0.72854 0.13357 0.58665 0.0
C2245 C 0.76143 0.19847 0.61388 0.0
C2246 C 0.77205 0.1861 0.6355 0.0
H2247 H 0.73512 0.19937 0.55947 0.0
H2248 H 0.76926 0.2165 0.6243 0.0
C2249 C 0.76011 0.16275 0.61822 0.0
C2250 C 0.513 0.16253 0.11829 0.0
C2251 C 0.52451 0.18575 0.13664 0.0
H2252 H 0.51536 0.1333 0.08665 0.0
C2253 C 0.54767 0.19802 0.11621 0.0
H2254 H 0.49492 0.1526 0.12578 0.0
C2255 C 0.55789 0.18789 0.07905 0.0
C2256 C 0.54669 0.16409 0.0647 0.0
H2257 H 0.55794 0.21595 0.12749 0.0
H2258 H 0.57512 0.19887 0.06269 0.0
C2259 C 0.52439 0.15166 0.0898 0.0
C2260 C 0.95525 0.36639 0.07218 0.0
C2261 C 0.9532 0.36704 0.13524 0.0
H2262 H 0.96491 0.38452 0.98768 0.0
C2263 C 0.96227 0.38975 0.15806 0.0
H2264 H 0.94852 0.34993 0.05055 0.0
C2265 C 0.9734 0.41016 0.12149 0.0
C2266 C 0.97508 0.4095 0.0583 0.0
H2267 H 0.96087 0.39187 0.20528 0.0
H2268 H 0.98 0.42661 0.14308 0.0
C2269 C 0.96502 0.38673 0.03526 0.0
C2270 C 0.75166 0.58915 0.14441 0.0
C2271 C 0.77 0.61209 0.13736 0.0
H2272 H 0.71848 0.56141 0.11624 0.0
C2273 C 0.76601 0.62429 0.0913 0.0
H2274 H 0.75317 0.57852 0.17819 0.0
C2275 C 0.74523 0.61434 0.05594 0.0
C2276 C 0.72691 0.59137 0.06332 0.0
H2277 H 0.77906 0.64177 0.0822 0.0
H2278 H 0.74384 0.62469 0.02126 0.0
C2279 C 0.73118 0.57914 0.10846 0.0
C2280 C 0.62946 0.93631 0.8706 0.0
C2281 C 0.64017 0.92418 0.89361 0.0
H2282 H 0.6126 0.95635 0.88583 0.0
C2283 C 0.63911 0.92246 0.95697 0.0
H2284 H 0.62883 0.93791 0.82296 0.0
C2285 C 0.62802 0.93183 0.99367 0.0
C2286 C 0.61845 0.94505 0.97084 0.0
H2287 H 0.64622 0.91307 0.97867 0.0
H2288 H 0.62712 0.92877 0.04105 0.0
C2289 C 0.61979 0.94703 0.90755 0.0
C2290 C 0.21648 0.71274 0.95178 0.0
C2291 C 0.19274 0.70044 0.967 0.0
H2292 H 0.24457 0.74062 0.9033 0.0
C2293 C 0.1804 0.71068 0.94365 0.0
H2294 H 0.22736 0.7062 0.96703 0.0
C2295 C 0.19132 0.73284 0.91493 0.0
C2296 C 0.21454 0.74431 0.89591 0.0
H2297 H 0.16208 0.70162 0.94804 0.0
H2298 H 0.18137 0.74101 0.90755 0.0
C2299 C 0.22667 0.73315 0.91521 0.0
C2300 C 0.43912 0.51829 0.90869 0.0
C2301 C 0.43812 0.51794 0.97209 0.0
H2302 H 0.42128 0.5109 0.82398 0.0
C2303 C 0.41526 0.50694 0.99498 0.0
H2304 H 0.45573 0.52672 0.88719 0.0
C2305 C 0.39504 0.49615 0.95784 0.0
C2306 C 0.39604 0.49693 0.89444 0.0
H2307 H 0.41287 0.50645 0.04262 0.0
H2308 H 0.37843 0.48789 0.97933 0.0
C2309 C 0.41889 0.50888 0.87158 0.0
C2310 C 0.18091 0.49659 0.44623 0.0
C2311 C 0.19292 0.51964 0.46604 0.0
H2312 H 0.18246 0.46726 0.41203 0.0
C2313 C 0.21628 0.53153 0.44736 0.0
H2314 H 0.16277 0.48688 0.45341 0.0
C2315 C 0.22639 0.52125 0.4106 0.0
C2316 C 0.21467 0.49763 0.39459 0.0
H2317 H 0.22687 0.54929 0.45995 0.0
H2318 H 0.2439 0.53193 0.39585 0.0
C2319 C 0.19196 0.48551 0.41719 0.0
C2320 C 0.64377 0.74356 0.45701 0.0
C2321 C 0.64066 0.74284 0.39415 0.0
H2322 H 0.63575 0.72553 0.54154 0.0
C2323 C 0.62681 0.72016 0.37153 0.0
H2324 H 0.65369 0.76003 0.47841 0.0
C2325 C 0.61763 0.6998 0.40817 0.0
C2326 C 0.62037 0.70053 0.4712 0.0
H2327 H 0.62298 0.71802 0.32447 0.0
H2328 H 0.60754 0.68333 0.38684 0.0
C2329 C 0.63332 0.72328 0.49405 0.0
C2330 C 0.41522 0.93293 0.49452 0.0
C2331 C 0.43805 0.94554 0.4715 0.0
H2332 H 0.37829 0.91472 0.47964 0.0
C2333 C 0.43877 0.94696 0.4081 0.0
H2334 H 0.41298 0.93035 0.54205 0.0
C2335 C 0.4184 0.93627 0.37125 0.0
C2336 C 0.39554 0.92472 0.39435 0.0
H2337 H 0.4553 0.95579 0.38625 0.0
H2338 H 0.42068 0.93736 0.32358 0.0
C2339 C 0.39482 0.92359 0.45781 0.0
C2340 C 0.34968 0.36591 0.07477 0.0
C2341 C 0.35543 0.37137 0.13513 0.0
H2342 H 0.35814 0.37886 0.98572 0.0
C2343 C 0.36399 0.394 0.15392 0.0
H2344 H 0.34253 0.34843 0.0594 0.0
C2345 C 0.37243 0.41144 0.1115 0.0
C2346 C 0.37269 0.406 0.05104 0.0
H2347 H 0.36807 0.39848 0.20048 0.0
H2348 H 0.38272 0.4289 0.127 0.0
C2349 C 0.35861 0.38335 0.03232 0.0
C2350 C 0.71821 0.98553 0.11339 0.0
C2351 C 0.72363 0.98785 0.05225 0.0
H2352 H 0.73161 0.99754 0.20062 0.0
C2353 C 0.74576 0.99357 0.03472 0.0
H2354 H 0.70107 0.98061 0.12809 0.0
C2355 C 0.76334 1.00331 0.0764 0.0
C2356 C 0.75851 1.00729 0.13512 0.0
H2357 H 0.75012 0.99486 0.98778 0.0
H2358 H 0.7807 1.01139 0.05951 0.0
C2359 C 0.73579 0.99558 0.1551 0.0
C2360 C 0.14095 0.78083 0.15043 0.0
C2361 C 0.12446 0.78657 0.13392 0.0
H2362 H 0.15873 0.76384 0.12331 0.0
C2363 C 0.12156 0.78957 0.07313 0.0
H2364 H 0.14385 0.77899 0.19714 0.0
C2365 C 0.1296 0.78031 0.03022 0.0
C2366 C 0.14077 0.76857 0.04874 0.0
H2367 H 0.10925 0.79449 0.05927 0.0
H2368 H 0.12361 0.7788 0.98471 0.0
C2369 C 0.14932 0.77194 0.10754 0.0
C2370 C 0.43778 0.34099 0.36174 0.0
C2371 C 0.43603 0.34401 0.42321 0.0
H2372 H 0.41932 0.33302 0.27974 0.0
C2373 C 0.41517 0.3298 0.45199 0.0
H2374 H 0.45402 0.35102 0.339 0.0
C2375 C 0.39525 0.31882 0.41791 0.0
C2376 C 0.39668 0.32279 0.35608 0.0
H2377 H 0.41353 0.33103 0.49976 0.0
H2378 H 0.37896 0.3119 0.44087 0.0
C2379 C 0.41785 0.33056 0.32761 0.0
C2380 C 0.80472 0.11476 0.36523 0.0
C2381 C 0.81341 0.10068 0.3827 0.0
H2382 H 0.78642 0.13107 0.39419 0.0
C2383 C 0.81988 0.10114 0.44273 0.0
H2384 H 0.80035 0.11531 0.31899 0.0
C2385 C 0.81127 0.10953 0.48631 0.0
C2386 C 0.79696 0.11798 0.46913 0.0
H2387 H 0.82745 0.0911 0.45749 0.0
H2388 H 0.81235 0.10567 0.5327 0.0
C2389 C 0.79671 0.12375 0.40878 0.0
C2390 C 1.03788 0.743 0.43525 0.0
C2391 C 1.03902 0.73755 0.37521 0.0
H2392 H 1.03304 0.73038 0.52467 0.0
C2393 C 1.02578 0.71475 0.35669 0.0
H2394 H 1.0474 0.76054 0.4506 0.0
C2395 C 1.01705 0.69742 0.39946 0.0
C2396 C 1.02199 0.70316 0.46003 0.0
H2397 H 1.0259 0.71022 0.31035 0.0
H2398 H 1.01066 0.67999 0.38458 0.0
C2399 C 1.02961 0.7257 0.47803 0.0
C2400 C 0.80897 0.72194 0.95906 0.0
C2401 C 0.79604 0.70119 0.92865 0.0
H2402 H 0.82567 0.75818 0.94976 0.0
C2403 C 0.80077 0.70025 0.86788 0.0
H2404 H 0.80668 0.72311 1.00654 0.0
C2405 C 0.81083 0.72047 0.83481 0.0
C2406 C 0.81708 0.74115 0.86401 0.0
H2407 H 0.79204 0.68415 0.84403 0.0
H2408 H 0.8093 0.71935 0.78671 0.0
C2409 C 0.8199 0.74219 0.92621 0.0
C2410 C 0.42 0.11378 0.8684 0.0
C2411 C 0.3973 0.09962 0.88628 0.0
H2412 H 0.45465 0.13003 0.89643 0.0
C2413 C 0.39142 0.09972 0.94666 0.0
H2414 H 0.42481 0.11455 0.82194 0.0
C2415 C 0.4085 0.10792 0.98981 0.0
C2416 C 0.43123 0.11656 0.97189 0.0
H2417 H 0.37385 0.08955 0.96171 0.0
H2418 H 0.40369 0.10384 0.03624 0.0
C2419 C 0.43709 0.12259 0.91155 0.0
C2420 C 1.01741 0.34596 0.91657 0.0
C2421 C 1.02342 0.34612 0.9767 0.0
H2422 H 1.02533 0.34154 0.82687 0.0
C2423 C 1.03221 0.33209 0.99435 0.0
H2424 H 1.01009 0.35623 0.90191 0.0
C2425 C 1.0405 0.3232 0.95106 0.0
C2426 C 1.04032 0.3289 0.89079 0.0
H2427 H 1.03645 0.33152 0.04069 0.0
H2428 H 1.05091 0.31602 0.96562 0.0
C2429 C 1.02613 0.33751 0.87328 0.0
C2430 C 0.77213 0.78799 0.58163 0.0
C2431 C 0.76619 0.78188 0.64171 0.0
H2432 H 0.75992 0.78001 0.49194 0.0
C2433 C 0.74337 0.77322 0.65936 0.0
H2434 H 0.78974 0.79527 0.56704 0.0
C2435 C 0.72627 0.76496 0.61607 0.0
C2436 C 0.73223 0.76505 0.55586 0.0
H2437 H 0.73851 0.7689 0.70569 0.0
H2438 H 0.70868 0.75456 0.63067 0.0
C2439 C 0.75503 0.77926 0.53832 0.0
C2440 C 0.37954 0.98695 0.61729 0.0
C2441 C 0.37627 0.98901 0.55618 0.0
H2442 H 0.3779 0.99889 0.70448 0.0
C2443 C 0.35966 0.99443 0.53873 0.0
H2444 H 0.392 0.98234 0.63189 0.0
C2445 C 0.35156 1.00398 0.58044 0.0
C2446 C 0.36037 1.00815 0.63908 0.0
H2447 H 0.3565 0.99557 0.49181 0.0
H2448 H 0.34204 1.0118 0.56356 0.0
C2449 C 0.37173 0.99678 0.65902 0.0
C2450 C 0.12868 0.37545 0.54298 0.0
C2451 C 0.13936 0.39833 0.56137 0.0
H2452 H 0.1091 0.34092 0.57177 0.0
C2453 C 0.14728 0.40371 0.62065 0.0
H2454 H 0.12307 0.3709 0.49723 0.0
C2455 C 0.13909 0.38651 0.66356 0.0
C2456 C 0.12332 0.36412 0.64671 0.0
H2457 H 0.15616 0.42125 0.63623 0.0
H2458 H 0.14157 0.39127 0.71028 0.0
C2459 C 0.12088 0.35824 0.58589 0.0
C2460 C 1.05359 0.65372 0.76917 0.0
C2461 C 1.05985 0.6571 0.70852 0.0
H2462 H 1.06548 0.66467 0.85809 0.0
C2463 C 1.08255 0.66438 0.6928 0.0
H2464 H 1.03604 0.64763 0.7825 0.0
C2465 C 0.09946 0.67402 0.73634 0.0
C2466 C 0.09346 0.67638 0.7952 0.0
H2467 H 0.08762 0.66663 0.64628 0.0
H2468 H 0.11711 0.68309 0.72146 0.0
C2469 C 1.07048 0.66373 0.81268 0.0
C2470 C 0.48277 0.43232 0.7837 0.0
C2471 C 0.47643 0.432 0.72372 0.0
H2472 H 0.47554 0.43717 0.87371 0.0
C2473 C 0.46749 0.44595 0.70651 0.0
H2474 H 0.49027 0.42218 0.79821 0.0
C2475 C 0.45955 0.45504 0.75016 0.0
C2476 C 0.46014 0.44958 0.81043 0.0
H2477 H 0.46306 0.44648 0.66034 0.0
H2478 H 0.44908 0.4622 0.73604 0.0
C2479 C 0.47442 0.44101 0.82732 0.0
C2480 C 0.69031 1.04249 0.7008 0.0
C2481 C 0.70203 0.06518 0.7208 0.0
H2482 H 0.67579 1.00781 0.72768 0.0
C2483 C 0.69814 0.06988 0.77972 0.0
H2484 H 0.69216 1.03841 0.6551 0.0
C2485 C 0.68877 1.05228 0.82148 0.0
C2486 C 0.68316 1.03024 0.8037 0.0
H2487 H 0.70616 0.08721 0.7966 0.0
H2488 H 0.69022 0.05661 0.86844 0.0
C2489 C 0.68062 1.02488 0.74258 0.0
C2490 C 0.46203 1.04231 0.20193 0.0
C2491 C 0.47302 0.06507 0.22133 0.0
H2492 H 0.44215 1.00774 0.22978 0.0
C2493 C 0.48185 0.07002 0.27993 0.0
H2494 H 0.45588 1.03804 0.15649 0.0
C2495 C 0.47394 1.05259 0.3221 0.0
C2496 C 0.45754 1.03045 0.3051 0.0
H2497 H 0.49116 0.08742 0.29632 0.0
H2498 H 0.47703 0.05709 0.36892 0.0
C2499 C 0.45441 1.02487 0.24411 0.0
C2500 C 1.08204 0.44448 0.20396 0.0
C2501 C 1.05964 0.42854 0.2206 0.0
H2502 H 0.11672 0.46188 0.23163 0.0
C2503 C 1.05359 0.42603 0.28133 0.0
H2504 H 0.08692 0.447 0.15729 0.0
C2505 C 1.07071 0.43405 0.32448 0.0
C2506 C 0.09367 0.44488 0.30637 0.0
H2507 H 1.03625 0.41409 0.29524 0.0
H2508 H 1.06605 0.42842 0.37022 0.0
C2509 C 0.09914 0.45286 0.2471 0.0
C2510 C 0.69615 0.66427 0.3349 0.0
C2511 C 0.68747 0.67835 0.31683 0.0
H2512 H 0.71455 0.64782 0.3069 0.0
C2513 C 0.68151 0.67811 0.25664 0.0
H2514 H 0.70037 0.6638 0.38131 0.0
C2515 C 0.69011 0.66943 0.21363 0.0
C2516 C 0.70409 0.6606 0.23142 0.0
H2517 H 0.67428 0.68843 0.24169 0.0
H2518 H 0.68921 0.67323 0.16708 0.0
C2519 C 0.70432 0.65516 0.29194 0.0
loop_
_geom_bond_atom_site_label_1
_geom_bond_atom_site_label_2
_geom_bond_distance
_geom_bond_site_symmetry_2
_ccdc_geom_bond_type
La0 C2 2.928 . S
La0 O20 2.521 . S
La0 O21 2.628 . S
La0 O22 2.554 . S
La0 O23 2.757 . S
La0 O24 2.470 . S
La0 O29 2.482 . S
La0 O31 2.503 . S
La1 C11 2.928 . S
La1 O23 2.482 . S
La1 O25 2.503 . S
La1 O26 2.521 . S
La1 O27 2.628 . S
La1 O28 2.554 . S
La1 O29 2.757 . S
La1 O30 2.470 . S
C2 La0 2.928 . S
C2 C3 1.503 . S
C2 O20 1.261 . S
C2 O21 1.243 . S
C3 C2 1.503 . S
C3 C4 1.394 . S
C3 C8 1.373 . S
C4 C3 1.394 . S
C4 C5 1.380 . S
C4 H32 0.930 . S
C5 C4 1.380 . S
C5 C6 1.376 . S
C5 H33 0.930 . S
C6 C5 1.376 . S
C6 C7 1.370 . S
C7 C6 1.370 . S
C7 C8 1.396 . S
C7 H34 0.929 . S
C8 C3 1.373 . S
C8 C7 1.396 . S
C8 H35 0.929 . S
C9 O22 1.240 . S
C9 O23 1.289 . S
C10 O24 1.258 . S
C10 O25 1.256 . S
C11 La1 2.928 . S
C11 C12 1.503 . S
C11 O26 1.261 . S
C11 O27 1.243 . S
C12 C11 1.503 . S
C12 C13 1.394 . S
C12 C17 1.373 . S
C13 C12 1.394 . S
C13 C14 1.380 . S
C13 H36 0.930 . S
C14 C13 1.380 . S
C14 C15 1.376 . S
C14 H37 0.930 . S
C15 C14 1.376 . S
C15 C16 1.370 . S
C16 C15 1.370 . S
C16 C17 1.396 . S
C16 H38 0.929 . S
C17 C12 1.373 . S
C17 C16 1.396 . S
C17 H39 0.929 . S
C18 O28 1.240 . S
C18 O29 1.289 . S
C19 O30 1.258 . S
C19 O31 1.256 . S
O20 La0 2.521 . S
O20 C2 1.261 . S
O21 La0 2.628 . S
O21 C2 1.243 . S
O22 La0 2.554 . S
O22 C9 1.240 . S
O23 La0 2.757 . S
O23 La1 2.482 . S
O23 C9 1.289 . S
O24 La0 2.470 . S
O24 C10 1.258 . S
O25 La1 2.503 . S
O25 C10 1.256 . S
O26 La1 2.521 . S
O26 C11 1.261 . S
O27 La1 2.628 . S
O27 C11 1.243 . S
O28 La1 2.554 . S
O28 C18 1.240 . S
O29 La0 2.482 . S
O29 La1 2.757 . S
O29 C18 1.289 . S
O30 La1 2.470 . S
O30 C19 1.258 . S
O31 La0 2.503 . S
O31 C19 1.256 . S
H32 C4 0.930 . S
H33 C5 0.930 . S
H34 C7 0.929 . S
H35 C8 0.929 . S
H36 C13 0.930 . S
H37 C14 0.930 . S
H38 C16 0.929 . S
H39 C17 0.929 . S
La40 C42 2.928 . S
La40 O60 2.521 . S
La40 O61 2.628 . S
La40 O62 2.554 . S
La40 O63 2.757 . S
La40 O64 2.470 . S
La40 O69 2.482 . S
La40 O71 2.503 . S
La41 C51 2.928 . S
La41 O63 2.482 . S
La41 O65 2.503 . S
La41 O66 2.521 . S
La41 O67 2.628 . S
La41 O68 2.554 . S
La41 O69 2.757 . S
La41 O70 2.470 . S
C42 La40 2.928 . S
C42 C43 1.503 . S
C42 O60 1.261 . S
C42 O61 1.243 . S
C43 C42 1.503 . S
C43 C44 1.394 . S
C43 C48 1.373 . S
C44 C43 1.394 . S
C44 C45 1.380 . S
C44 H72 0.930 . S
C45 C44 1.380 . S
C45 C46 1.376 . S
C45 H73 0.930 . S
C46 C45 1.376 . S
C46 C47 1.370 . S
C47 C46 1.370 . S
C47 C48 1.396 . S
C47 H74 0.929 . S
C48 C43 1.373 . S
C48 C47 1.396 . S
C48 H75 0.929 . S
C49 O62 1.240 . S
C49 O63 1.289 . S
C50 O64 1.258 . S
C50 O65 1.256 . S
C51 La41 2.928 . S
C51 C52 1.503 . S
C51 O66 1.261 . S
C51 O67 1.243 . S
C52 C51 1.503 . S
C52 C53 1.394 . S
C52 C57 1.373 . S
C53 C52 1.394 . S
C53 C54 1.380 . S
C53 H76 0.930 . S
C54 C53 1.380 . S
C54 C55 1.376 1_545 S
C54 H77 0.930 . S
C55 C54 1.376 1_565 S
C55 C56 1.370 . S
C56 C55 1.370 . S
C56 C57 1.396 1_565 S
C56 H78 0.929 . S
C57 C52 1.373 . S
C57 C56 1.396 1_545 S
C57 H79 0.929 . S
C58 O68 1.240 . S
C58 O69 1.289 . S
C59 O70 1.258 . S
C59 O71 1.256 . S
O60 La40 2.521 . S
O60 C42 1.261 . S
O61 La40 2.628 . S
O61 C42 1.243 . S
O62 La40 2.554 . S
O62 C49 1.240 . S
O63 La40 2.757 . S
O63 La41 2.482 . S
O63 C49 1.289 . S
O64 La40 2.470 . S
O64 C50 1.258 . S
O65 La41 2.503 . S
O65 C50 1.256 . S
O66 La41 2.521 . S
O66 C51 1.261 . S
O67 La41 2.628 . S
O67 C51 1.243 . S
O68 La41 2.554 . S
O68 C58 1.240 . S
O69 La40 2.482 . S
O69 La41 2.757 . S
O69 C58 1.289 . S
O70 La41 2.470 . S
O70 C59 1.258 . S
O71 La40 2.503 . S
O71 C59 1.256 . S
H72 C44 0.930 . S
H73 C45 0.930 . S
H74 C47 0.929 . S
H75 C48 0.929 . S
H76 C53 0.930 . S
H77 C54 0.930 . S
H78 C56 0.929 . S
H79 C57 0.929 . S
La80 C82 2.928 . S
La80 O100 2.521 . S
La80 O101 2.628 . S
La80 O102 2.554 . S
La80 O103 2.757 . S
La80 O104 2.470 . S
La80 O109 2.482 . S
La80 O111 2.503 . S
La81 C91 2.928 . S
La81 O103 2.482 . S
La81 O105 2.503 . S
La81 O106 2.521 . S
La81 O107 2.628 . S
La81 O108 2.554 . S
La81 O109 2.757 . S
La81 O110 2.470 . S
C82 La80 2.928 . S
C82 C83 1.503 . S
C82 O100 1.261 . S
C82 O101 1.243 . S
C83 C82 1.503 . S
C83 C84 1.394 . S
C83 C88 1.373 . S
C84 C83 1.394 . S
C84 C85 1.380 . S
C84 H112 0.930 . S
C85 C84 1.380 . S
C85 C86 1.376 . S
C85 H113 0.930 . S
C86 C85 1.376 . S
C86 C87 1.370 . S
C87 C86 1.370 . S
C87 C88 1.396 . S
C87 H114 0.929 . S
C88 C83 1.373 . S
C88 C87 1.396 . S
C88 H115 0.929 . S
C89 O102 1.240 . S
C89 O103 1.289 . S
C90 O104 1.258 . S
C90 O105 1.256 . S
C91 La81 2.928 . S
C91 C92 1.503 . S
C91 O106 1.261 . S
C91 O107 1.243 . S
C92 C91 1.503 . S
C92 C93 1.394 . S
C92 C97 1.373 . S
C93 C92 1.394 . S
C93 C94 1.380 . S
C93 H116 0.930 . S
C94 C93 1.380 . S
C94 C95 1.376 1_655 S
C94 H117 0.930 . S
C95 C94 1.376 1_455 S
C95 C96 1.370 . S
C96 C95 1.370 . S
C96 C97 1.396 1_455 S
C96 H118 0.929 . S
C97 C92 1.373 . S
C97 C96 1.396 1_655 S
C97 H119 0.929 . S
C98 O108 1.240 . S
C98 O109 1.289 . S
C99 O110 1.258 . S
C99 O111 1.256 . S
O100 La80 2.521 . S
O100 C82 1.261 . S
O101 La80 2.628 . S
O101 C82 1.243 . S
O102 La80 2.554 . S
O102 C89 1.240 . S
O103 La80 2.757 . S
O103 La81 2.482 . S
O103 C89 1.289 . S
O104 La80 2.470 . S
O104 C90 1.258 . S
O105 La81 2.503 . S
O105 C90 1.256 . S
O106 La81 2.521 . S
O106 C91 1.261 . S
O107 La81 2.628 . S
O107 C91 1.243 . S
O108 La81 2.554 . S
O108 C98 1.240 . S
O109 La80 2.482 . S
O109 La81 2.757 . S
O109 C98 1.289 . S
O110 La81 2.470 . S
O110 C99 1.258 . S
O111 La80 2.503 . S
O111 C99 1.256 . S
H112 C84 0.930 . S
H113 C85 0.930 . S
H114 C87 0.929 . S
H115 C88 0.929 . S
H116 C93 0.930 . S
H117 C94 0.930 . S
H118 C96 0.929 . S
H119 C97 0.929 . S
La120 C122 2.928 . S
La120 O140 2.521 . S
La120 O141 2.628 . S
La120 O142 2.554 . S
La120 O143 2.757 . S
La120 O144 2.470 . S
La120 O149 2.482 . S
La120 O151 2.503 . S
La121 C131 2.928 . S
La121 O143 2.482 . S
La121 O145 2.503 . S
La121 O146 2.521 . S
La121 O147 2.628 . S
La121 O148 2.554 . S
La121 O149 2.757 . S
La121 O150 2.470 . S
C122 La120 2.928 . S
C122 C123 1.503 . S
C122 O140 1.261 . S
C122 O141 1.243 . S
C123 C122 1.503 . S
C123 C124 1.394 . S
C123 C128 1.373 . S
C124 C123 1.394 . S
C124 C125 1.380 . S
C124 H152 0.930 . S
C125 C124 1.380 . S
C125 C126 1.376 . S
C125 H153 0.930 . S
C126 C125 1.376 . S
C126 C127 1.370 . S
C127 C126 1.370 . S
C127 C128 1.396 . S
C127 H154 0.929 . S
C128 C123 1.373 . S
C128 C127 1.396 . S
C128 H155 0.929 . S
C129 O142 1.240 . S
C129 O143 1.289 . S
C130 O144 1.258 . S
C130 O145 1.256 . S
C131 La121 2.928 . S
C131 C132 1.503 . S
C131 O146 1.261 . S
C131 O147 1.243 . S
C132 C131 1.503 . S
C132 C133 1.394 . S
C132 C137 1.373 . S
C133 C132 1.394 . S
C133 C134 1.380 . S
C133 H156 0.930 . S
C134 C133 1.380 . S
C134 C135 1.376 . S
C134 H157 0.930 . S
C135 C134 1.376 . S
C135 C136 1.370 . S
C136 C135 1.370 . S
C136 C137 1.396 . S
C136 H158 0.929 . S
C137 C132 1.373 . S
C137 C136 1.396 . S
C137 H159 0.929 . S
C138 O148 1.240 . S
C138 O149 1.289 . S
C139 O150 1.258 . S
C139 O151 1.256 . S
O140 La120 2.521 . S
O140 C122 1.261 . S
O141 La120 2.628 . S
O141 C122 1.243 . S
O142 La120 2.554 . S
O142 C129 1.240 . S
O143 La120 2.757 . S
O143 La121 2.482 . S
O143 C129 1.289 . S
O144 La120 2.470 . S
O144 C130 1.258 . S
O145 La121 2.503 . S
O145 C130 1.256 . S
O146 La121 2.521 . S
O146 C131 1.261 . S
O147 La121 2.628 . S
O147 C131 1.243 . S
O148 La121 2.554 . S
O148 C138 1.240 . S
O149 La120 2.482 . S
O149 La121 2.757 . S
O149 C138 1.289 . S
O150 La121 2.470 . S
O150 C139 1.258 . S
O151 La120 2.503 . S
O151 C139 1.256 . S
H152 C124 0.930 . S
H153 C125 0.930 . S
H154 C127 0.929 . S
H155 C128 0.929 . S
H156 C133 0.930 . S
H157 C134 0.930 . S
H158 C136 0.929 . S
H159 C137 0.929 . S
La160 C162 2.928 . S
La160 O180 2.521 . S
La160 O181 2.628 . S
La160 O182 2.554 . S
La160 O183 2.757 . S
La160 O184 2.470 . S
La160 O189 2.482 . S
La160 O191 2.503 . S
La161 C171 2.928 . S
La161 O183 2.482 . S
La161 O185 2.503 . S
La161 O186 2.521 . S
La161 O187 2.628 . S
La161 O188 2.554 . S
La161 O189 2.757 . S
La161 O190 2.470 . S
C162 La160 2.928 . S
C162 C163 1.503 . S
C162 O180 1.261 . S
C162 O181 1.243 . S
C163 C162 1.503 . S
C163 C164 1.394 . S
C163 C168 1.373 . S
C164 C163 1.394 . S
C164 C165 1.380 . S
C164 H192 0.930 . S
C165 C164 1.380 . S
C165 C166 1.376 . S
C165 H193 0.930 . S
C166 C165 1.376 . S
C166 C167 1.370 . S
C167 C166 1.370 . S
C167 C168 1.396 . S
C167 H194 0.929 . S
C168 C163 1.373 . S
C168 C167 1.396 . S
C168 H195 0.929 . S
C169 O182 1.240 . S
C169 O183 1.289 . S
C170 O184 1.258 . S
C170 O185 1.256 . S
C171 La161 2.928 . S
C171 C172 1.503 . S
C171 O186 1.261 . S
C171 O187 1.243 . S
C172 C171 1.503 . S
C172 C173 1.394 . S
C172 C177 1.373 . S
C173 C172 1.394 . S
C173 C174 1.380 . S
C173 H196 0.930 . S
C174 C173 1.380 . S
C174 C175 1.376 1_565 S
C174 H197 0.930 . S
C175 C174 1.376 1_545 S
C175 C176 1.370 . S
C176 C175 1.370 . S
C176 C177 1.396 1_545 S
C176 H198 0.929 . S
C177 C172 1.373 . S
C177 C176 1.396 1_565 S
C177 H199 0.929 . S
C178 O188 1.240 . S
C178 O189 1.289 . S
C179 O190 1.258 . S
C179 O191 1.256 . S
O180 La160 2.521 . S
O180 C162 1.261 . S
O181 La160 2.628 . S
O181 C162 1.243 . S
O182 La160 2.554 . S
O182 C169 1.240 . S
O183 La160 2.757 . S
O183 La161 2.482 . S
O183 C169 1.289 . S
O184 La160 2.470 . S
O184 C170 1.258 . S
O185 La161 2.503 . S
O185 C170 1.256 . S
O186 La161 2.521 . S
O186 C171 1.261 . S
O187 La161 2.628 . S
O187 C171 1.243 . S
O188 La161 2.554 . S
O188 C178 1.240 . S
O189 La160 2.482 . S
O189 La161 2.757 . S
O189 C178 1.289 . S
O190 La161 2.470 . S
O190 C179 1.258 . S
O191 La160 2.503 . S
O191 C179 1.256 . S
H192 C164 0.930 . S
H193 C165 0.930 . S
H194 C167 0.929 . S
H195 C168 0.929 . S
H196 C173 0.930 . S
H197 C174 0.930 . S
H198 C176 0.929 . S
H199 C177 0.929 . S
La200 C202 2.928 . S
La200 O220 2.521 . S
La200 O221 2.628 . S
La200 O222 2.554 . S
La200 O223 2.757 . S
La200 O224 2.470 . S
La200 O229 2.482 . S
La200 O231 2.503 . S
La201 C211 2.928 . S
La201 O223 2.482 . S
La201 O225 2.503 . S
La201 O226 2.521 . S
La201 O227 2.628 . S
La201 O228 2.554 . S
La201 O229 2.757 . S
La201 O230 2.470 . S
C202 La200 2.928 . S
C202 C203 1.503 . S
C202 O220 1.261 . S
C202 O221 1.243 . S
C203 C202 1.503 . S
C203 C204 1.394 . S
C203 C208 1.373 . S
C204 C203 1.394 . S
C204 C205 1.380 . S
C204 H232 0.930 . S
C205 C204 1.380 . S
C205 C206 1.376 . S
C205 H233 0.930 . S
C206 C205 1.376 . S
C206 C207 1.370 . S
C207 C206 1.370 . S
C207 C208 1.396 . S
C207 H234 0.929 . S
C208 C203 1.373 . S
C208 C207 1.396 . S
C208 H235 0.929 . S
C209 O222 1.240 . S
C209 O223 1.289 . S
C210 O224 1.258 . S
C210 O225 1.256 . S
C211 La201 2.928 . S
C211 C212 1.503 . S
C211 O226 1.261 . S
C211 O227 1.243 . S
C212 C211 1.503 . S
C212 C213 1.394 . S
C212 C217 1.373 . S
C213 C212 1.394 . S
C213 C214 1.380 . S
C213 H236 0.930 . S
C214 C213 1.380 . S
C214 C215 1.376 1_455 S
C214 H237 0.930 . S
C215 C214 1.376 1_655 S
C215 C216 1.370 . S
C216 C215 1.370 . S
C216 C217 1.396 1_655 S
C216 H238 0.929 . S
C217 C212 1.373 . S
C217 C216 1.396 1_455 S
C217 H239 0.929 . S
C218 O228 1.240 . S
C218 O229 1.289 . S
C219 O230 1.258 . S
C219 O231 1.256 . S
O220 La200 2.521 . S
O220 C202 1.261 . S
O221 La200 2.628 . S
O221 C202 1.243 . S
O222 La200 2.554 . S
O222 C209 1.240 . S
O223 La200 2.757 . S
O223 La201 2.482 . S
O223 C209 1.289 . S
O224 La200 2.470 . S
O224 C210 1.258 . S
O225 La201 2.503 . S
O225 C210 1.256 . S
O226 La201 2.521 . S
O226 C211 1.261 . S
O227 La201 2.628 . S
O227 C211 1.243 . S
O228 La201 2.554 . S
O228 C218 1.240 . S
O229 La200 2.482 . S
O229 La201 2.757 . S
O229 C218 1.289 . S
O230 La201 2.470 . S
O230 C219 1.258 . S
O231 La200 2.503 . S
O231 C219 1.256 . S
H232 C204 0.930 . S
H233 C205 0.930 . S
H234 C207 0.929 . S
H235 C208 0.929 . S
H236 C213 0.930 . S
H237 C214 0.930 . S
H238 C216 0.929 . S
H239 C217 0.929 . S
La240 C242 2.928 . S
La240 O260 2.521 . S
La240 O261 2.628 . S
La240 O262 2.554 . S
La240 O263 2.757 . S
La240 O264 2.470 . S
La240 O269 2.482 . S
La240 O271 2.503 . S
La241 C251 2.928 . S
La241 O263 2.482 . S
La241 O265 2.503 . S
La241 O266 2.521 . S
La241 O267 2.628 . S
La241 O268 2.554 . S
La241 O269 2.757 . S
La241 O270 2.470 . S
C242 La240 2.928 . S
C242 C243 1.503 . S
C242 O260 1.261 . S
C242 O261 1.243 . S
C243 C242 1.503 . S
C243 C244 1.394 . S
C243 C248 1.373 . S
C244 C243 1.394 . S
C244 C245 1.380 . S
C244 H272 0.930 . S
C245 C244 1.380 . S
C245 C246 1.376 . S
C245 H273 0.930 . S
C246 C245 1.376 . S
C246 C247 1.370 . S
C247 C246 1.370 . S
C247 C248 1.396 . S
C247 H274 0.929 . S
C248 C243 1.373 . S
C248 C247 1.396 . S
C248 H275 0.929 . S
C249 O262 1.240 . S
C249 O263 1.289 . S
C250 O264 1.258 . S
C250 O265 1.256 . S
C251 La241 2.928 . S
C251 C252 1.503 . S
C251 O266 1.261 . S
C251 O267 1.243 . S
C252 C251 1.503 . S
C252 C253 1.394 . S
C252 C257 1.373 . S
C253 C252 1.394 . S
C253 C254 1.380 . S
C253 H276 0.930 . S
C254 C253 1.380 . S
C254 C255 1.376 . S
C254 H277 0.930 . S
C255 C254 1.376 . S
C255 C256 1.370 . S
C256 C255 1.370 . S
C256 C257 1.396 . S
C256 H278 0.929 . S
C257 C252 1.373 . S
C257 C256 1.396 . S
C257 H279 0.929 . S
C258 O268 1.240 . S
C258 O269 1.289 . S
C259 O270 1.258 . S
C259 O271 1.256 . S
O260 La240 2.521 . S
O260 C242 1.261 . S
O261 La240 2.628 . S
O261 C242 1.243 . S
O262 La240 2.554 . S
O262 C249 1.240 . S
O263 La240 2.757 . S
O263 La241 2.482 . S
O263 C249 1.289 . S
O264 La240 2.470 . S
O264 C250 1.258 . S
O265 La241 2.503 . S
O265 C250 1.256 . S
O266 La241 2.521 . S
O266 C251 1.261 . S
O267 La241 2.628 . S
O267 C251 1.243 . S
O268 La241 2.554 . S
O268 C258 1.240 . S
O269 La240 2.482 . S
O269 La241 2.757 . S
O269 C258 1.289 . S
O270 La241 2.470 . S
O270 C259 1.258 . S
O271 La240 2.503 . S
O271 C259 1.256 . S
H272 C244 0.930 . S
H273 C245 0.930 . S
H274 C247 0.929 . S
H275 C248 0.929 . S
H276 C253 0.930 . S
H277 C254 0.930 . S
H278 C256 0.929 . S
H279 C257 0.929 . S
La280 C282 2.928 . S
La280 O300 2.521 . S
La280 O301 2.628 . S
La280 O302 2.554 . S
La280 O303 2.757 . S
La280 O304 2.470 . S
La280 O309 2.482 . S
La280 O311 2.503 . S
La281 C291 2.928 . S
La281 O303 2.482 . S
La281 O305 2.503 . S
La281 O306 2.521 . S
La281 O307 2.628 . S
La281 O308 2.554 . S
La281 O309 2.757 . S
La281 O310 2.470 . S
C282 La280 2.928 . S
C282 C283 1.503 . S
C282 O300 1.261 . S
C282 O301 1.243 . S
C283 C282 1.503 . S
C283 C284 1.394 . S
C283 C288 1.373 . S
C284 C283 1.394 . S
C284 C285 1.380 . S
C284 H312 0.930 . S
C285 C284 1.380 . S
C285 C286 1.376 1_565 S
C285 H313 0.930 . S
C286 C285 1.376 1_545 S
C286 C287 1.370 . S
C287 C286 1.370 . S
C287 C288 1.396 1_545 S
C287 H314 0.929 . S
C288 C283 1.373 . S
C288 C287 1.396 1_565 S
C288 H315 0.929 . S
C289 O302 1.240 . S
C289 O303 1.289 . S
C290 O304 1.258 . S
C290 O305 1.256 . S
C291 La281 2.928 . S
C291 C292 1.503 . S
C291 O306 1.261 . S
C291 O307 1.243 . S
C292 C291 1.503 . S
C292 C293 1.394 . S
C292 C297 1.373 . S
C293 C292 1.394 . S
C293 C294 1.380 . S
C293 H316 0.930 . S
C294 C293 1.380 . S
C294 C295 1.376 . S
C294 H317 0.930 . S
C295 C294 1.376 . S
C295 C296 1.370 . S
C296 C295 1.370 . S
C296 C297 1.396 . S
C296 H318 0.929 . S
C297 C292 1.373 . S
C297 C296 1.396 . S
C297 H319 0.929 . S
C298 O308 1.240 . S
C298 O309 1.289 . S
C299 O310 1.258 . S
C299 O311 1.256 . S
O300 La280 2.521 . S
O300 C282 1.261 . S
O301 La280 2.628 . S
O301 C282 1.243 . S
O302 La280 2.554 . S
O302 C289 1.240 . S
O303 La280 2.757 . S
O303 La281 2.482 . S
O303 C289 1.289 . S
O304 La280 2.470 . S
O304 C290 1.258 . S
O305 La281 2.503 . S
O305 C290 1.256 . S
O306 La281 2.521 . S
O306 C291 1.261 . S
O307 La281 2.628 . S
O307 C291 1.243 . S
O308 La281 2.554 . S
O308 C298 1.240 . S
O309 La280 2.482 . S
O309 La281 2.757 . S
O309 C298 1.289 . S
O310 La281 2.470 . S
O310 C299 1.258 . S
O311 La280 2.503 . S
O311 C299 1.256 . S
H312 C284 0.930 . S
H313 C285 0.930 . S
H314 C287 0.929 . S
H315 C288 0.929 . S
H316 C293 0.930 . S
H317 C294 0.930 . S
H318 C296 0.929 . S
H319 C297 0.929 . S
La320 C322 2.928 . S
La320 O340 2.521 . S
La320 O341 2.628 . S
La320 O342 2.554 . S
La320 O343 2.757 . S
La320 O344 2.470 . S
La320 O349 2.482 . S
La320 O351 2.503 . S
La321 C331 2.928 . S
La321 O343 2.482 . S
La321 O345 2.503 . S
La321 O346 2.521 . S
La321 O347 2.628 . S
La321 O348 2.554 . S
La321 O349 2.757 . S
La321 O350 2.470 . S
C322 La320 2.928 . S
C322 C323 1.503 . S
C322 O340 1.261 . S
C322 O341 1.243 . S
C323 C322 1.503 . S
C323 C324 1.394 . S
C323 C328 1.373 . S
C324 C323 1.394 . S
C324 C325 1.380 . S
C324 H352 0.930 . S
C325 C324 1.380 . S
C325 C326 1.376 1_455 S
C325 H353 0.930 . S
C326 C325 1.376 1_655 S
C326 C327 1.370 . S
C327 C326 1.370 . S
C327 C328 1.396 1_655 S
C327 H354 0.929 . S
C328 C323 1.373 . S
C328 C327 1.396 1_455 S
C328 H355 0.929 . S
C329 O342 1.240 . S
C329 O343 1.289 . S
C330 O344 1.258 . S
C330 O345 1.256 . S
C331 La321 2.928 . S
C331 C332 1.503 . S
C331 O346 1.261 . S
C331 O347 1.243 . S
C332 C331 1.503 . S
C332 C333 1.394 . S
C332 C337 1.373 . S
C333 C332 1.394 . S
C333 C334 1.380 . S
C333 H356 0.930 . S
C334 C333 1.380 . S
C334 C335 1.376 . S
C334 H357 0.930 . S
C335 C334 1.376 . S
C335 C336 1.370 . S
C336 C335 1.370 . S
C336 C337 1.396 . S
C336 H358 0.929 . S
C337 C332 1.373 . S
C337 C336 1.396 . S
C337 H359 0.929 . S
C338 O348 1.240 . S
C338 O349 1.289 . S
C339 O350 1.258 . S
C339 O351 1.256 . S
O340 La320 2.521 . S
O340 C322 1.261 . S
O341 La320 2.628 . S
O341 C322 1.243 . S
O342 La320 2.554 . S
O342 C329 1.240 . S
O343 La320 2.757 . S
O343 La321 2.482 . S
O343 C329 1.289 . S
O344 La320 2.470 . S
O344 C330 1.258 . S
O345 La321 2.503 . S
O345 C330 1.256 . S
O346 La321 2.521 . S
O346 C331 1.261 . S
O347 La321 2.628 . S
O347 C331 1.243 . S
O348 La321 2.554 . S
O348 C338 1.240 . S
O349 La320 2.482 . S
O349 La321 2.757 . S
O349 C338 1.289 . S
O350 La321 2.470 . S
O350 C339 1.258 . S
O351 La320 2.503 . S
O351 C339 1.256 . S
H352 C324 0.930 . S
H353 C325 0.930 . S
H354 C327 0.929 . S
H355 C328 0.929 . S
H356 C333 0.930 . S
H357 C334 0.930 . S
H358 C336 0.929 . S
H359 C337 0.929 . S
La360 C362 2.928 . S
La360 O380 2.521 . S
La360 O381 2.628 . S
La360 O382 2.554 . S
La360 O383 2.757 . S
La360 O384 2.470 . S
La360 O389 2.482 . S
La360 O391 2.503 . S
La361 C371 2.928 . S
La361 O383 2.482 . S
La361 O385 2.503 . S
La361 O386 2.521 . S
La361 O387 2.628 . S
La361 O388 2.554 . S
La361 O389 2.757 . S
La361 O390 2.470 . S
C362 La360 2.928 . S
C362 C363 1.503 . S
C362 O380 1.261 . S
C362 O381 1.243 . S
C363 C362 1.503 . S
C363 C364 1.394 . S
C363 C368 1.373 . S
C364 C363 1.394 . S
C364 C365 1.380 . S
C364 H392 0.930 . S
C365 C364 1.380 . S
C365 C366 1.376 . S
C365 H393 0.930 . S
C366 C365 1.376 . S
C366 C367 1.370 . S
C367 C366 1.370 . S
C367 C368 1.396 . S
C367 H394 0.929 . S
C368 C363 1.373 . S
C368 C367 1.396 . S
C368 H395 0.929 . S
C369 O382 1.240 . S
C369 O383 1.289 . S
C370 O384 1.258 . S
C370 O385 1.256 . S
C371 La361 2.928 . S
C371 C372 1.503 . S
C371 O386 1.261 . S
C371 O387 1.243 . S
C372 C371 1.503 . S
C372 C373 1.394 . S
C372 C377 1.373 . S
C373 C372 1.394 . S
C373 C374 1.380 . S
C373 H396 0.930 . S
C374 C373 1.380 . S
C374 C375 1.376 . S
C374 H397 0.930 . S
C375 C374 1.376 . S
C375 C376 1.370 . S
C376 C375 1.370 . S
C376 C377 1.396 . S
C376 H398 0.929 . S
C377 C372 1.373 . S
C377 C376 1.396 . S
C377 H399 0.929 . S
C378 O388 1.240 . S
C378 O389 1.289 . S
C379 O390 1.258 . S
C379 O391 1.256 . S
O380 La360 2.521 . S
O380 C362 1.261 . S
O381 La360 2.628 . S
O381 C362 1.243 . S
O382 La360 2.554 . S
O382 C369 1.240 . S
O383 La360 2.757 . S
O383 La361 2.482 . S
O383 C369 1.289 . S
O384 La360 2.470 . S
O384 C370 1.258 . S
O385 La361 2.503 . S
O385 C370 1.256 . S
O386 La361 2.521 . S
O386 C371 1.261 . S
O387 La361 2.628 . S
O387 C371 1.243 . S
O388 La361 2.554 . S
O388 C378 1.240 . S
O389 La360 2.482 . S
O389 La361 2.757 . S
O389 C378 1.289 . S
O390 La361 2.470 . S
O390 C379 1.258 . S
O391 La360 2.503 . S
O391 C379 1.256 . S
H392 C364 0.930 . S
H393 C365 0.930 . S
H394 C367 0.929 . S
H395 C368 0.929 . S
H396 C373 0.930 . S
H397 C374 0.930 . S
H398 C376 0.929 . S
H399 C377 0.929 . S
La400 C402 2.928 . S
La400 O420 2.521 . S
La400 O421 2.628 . S
La400 O422 2.554 . S
La400 O423 2.757 . S
La400 O424 2.470 . S
La400 O429 2.482 . S
La400 O431 2.503 . S
La401 C411 2.928 . S
La401 O423 2.482 . S
La401 O425 2.503 . S
La401 O426 2.521 . S
La401 O427 2.628 . S
La401 O428 2.554 . S
La401 O429 2.757 . S
La401 O430 2.470 . S
C402 La400 2.928 . S
C402 C403 1.503 . S
C402 O420 1.261 . S
C402 O421 1.243 . S
C403 C402 1.503 . S
C403 C404 1.394 . S
C403 C408 1.373 . S
C404 C403 1.394 . S
C404 C405 1.380 . S
C404 H432 0.930 . S
C405 C404 1.380 . S
C405 C406 1.376 1_545 S
C405 H433 0.930 . S
C406 C405 1.376 1_565 S
C406 C407 1.370 . S
C407 C406 1.370 . S
C407 C408 1.396 1_565 S
C407 H434 0.929 . S
C408 C403 1.373 . S
C408 C407 1.396 1_545 S
C408 H435 0.929 . S
C409 O422 1.240 . S
C409 O423 1.289 . S
C410 O424 1.258 . S
C410 O425 1.256 . S
C411 La401 2.928 . S
C411 C412 1.503 . S
C411 O426 1.261 . S
C411 O427 1.243 . S
C412 C411 1.503 . S
C412 C413 1.394 . S
C412 C417 1.373 . S
C413 C412 1.394 . S
C413 C414 1.380 . S
C413 H436 0.930 . S
C414 C413 1.380 . S
C414 C415 1.376 . S
C414 H437 0.930 . S
C415 C414 1.376 . S
C415 C416 1.370 . S
C416 C415 1.370 . S
C416 C417 1.396 . S
C416 H438 0.929 . S
C417 C412 1.373 . S
C417 C416 1.396 . S
C417 H439 0.929 . S
C418 O428 1.240 . S
C418 O429 1.289 . S
C419 O430 1.258 . S
C419 O431 1.256 . S
O420 La400 2.521 . S
O420 C402 1.261 . S
O421 La400 2.628 . S
O421 C402 1.243 . S
O422 La400 2.554 . S
O422 C409 1.240 . S
O423 La400 2.757 . S
O423 La401 2.482 . S
O423 C409 1.289 . S
O424 La400 2.470 . S
O424 C410 1.258 . S
O425 La401 2.503 . S
O425 C410 1.256 . S
O426 La401 2.521 . S
O426 C411 1.261 . S
O427 La401 2.628 . S
O427 C411 1.243 . S
O428 La401 2.554 . S
O428 C418 1.240 . S
O429 La400 2.482 . S
O429 La401 2.757 . S
O429 C418 1.289 . S
O430 La401 2.470 . S
O430 C419 1.258 . S
O431 La400 2.503 . S
O431 C419 1.256 . S
H432 C404 0.930 . S
H433 C405 0.930 . S
H434 C407 0.929 . S
H435 C408 0.929 . S
H436 C413 0.930 . S
H437 C414 0.930 . S
H438 C416 0.929 . S
H439 C417 0.929 . S
La440 C442 2.928 . S
La440 O460 2.521 . S
La440 O461 2.628 . S
La440 O462 2.554 . S
La440 O463 2.757 . S
La440 O464 2.470 . S
La440 O469 2.482 . S
La440 O471 2.503 . S
La441 C451 2.928 . S
La441 O463 2.482 . S
La441 O465 2.503 . S
La441 O466 2.521 . S
La441 O467 2.628 . S
La441 O468 2.554 . S
La441 O469 2.757 . S
La441 O470 2.470 . S
C442 La440 2.928 . S
C442 C443 1.503 . S
C442 O460 1.261 . S
C442 O461 1.243 . S
C443 C442 1.503 . S
C443 C444 1.394 . S
C443 C448 1.373 . S
C444 C443 1.394 . S
C444 C445 1.380 . S
C444 H472 0.930 . S
C445 C444 1.380 . S
C445 C446 1.376 1_655 S
C445 H473 0.930 . S
C446 C445 1.376 1_455 S
C446 C447 1.370 . S
C447 C446 1.370 . S
C447 C448 1.396 1_455 S
C447 H474 0.929 . S
C448 C443 1.373 . S
C448 C447 1.396 1_655 S
C448 H475 0.929 . S
C449 O462 1.240 . S
C449 O463 1.289 . S
C450 O464 1.258 . S
C450 O465 1.256 . S
C451 La441 2.928 . S
C451 C452 1.503 . S
C451 O466 1.261 . S
C451 O467 1.243 . S
C452 C451 1.503 . S
C452 C453 1.394 . S
C452 C457 1.373 . S
C453 C452 1.394 . S
C453 C454 1.380 . S
C453 H476 0.930 . S
C454 C453 1.380 . S
C454 C455 1.376 . S
C454 H477 0.930 . S
C455 C454 1.376 . S
C455 C456 1.370 . S
C456 C455 1.370 . S
C456 C457 1.396 . S
C456 H478 0.929 . S
C457 C452 1.373 . S
C457 C456 1.396 . S
C457 H479 0.929 . S
C458 O468 1.240 . S
C458 O469 1.289 . S
C459 O470 1.258 . S
C459 O471 1.256 . S
O460 La440 2.521 . S
O460 C442 1.261 . S
O461 La440 2.628 . S
O461 C442 1.243 . S
O462 La440 2.554 . S
O462 C449 1.240 . S
O463 La440 2.757 . S
O463 La441 2.482 . S
O463 C449 1.289 . S
O464 La440 2.470 . S
O464 C450 1.258 . S
O465 La441 2.503 . S
O465 C450 1.256 . S
O466 La441 2.521 . S
O466 C451 1.261 . S
O467 La441 2.628 . S
O467 C451 1.243 . S
O468 La441 2.554 . S
O468 C458 1.240 . S
O469 La440 2.482 . S
O469 La441 2.757 . S
O469 C458 1.289 . S
O470 La441 2.470 . S
O470 C459 1.258 . S
O471 La440 2.503 . S
O471 C459 1.256 . S
H472 C444 0.930 . S
H473 C445 0.930 . S
H474 C447 0.929 . S
H475 C448 0.929 . S
H476 C453 0.930 . S
H477 C454 0.930 . S
H478 C456 0.929 . S
H479 C457 0.929 . S
La480 C482 2.928 . S
La480 O500 2.521 . S
La480 O501 2.628 . S
La480 O502 2.554 . S
La480 O503 2.757 . S
La480 O504 2.470 . S
La480 O509 2.482 . S
La480 O511 2.503 . S
La481 C491 2.928 . S
La481 O503 2.482 . S
La481 O505 2.503 . S
La481 O506 2.521 . S
La481 O507 2.628 . S
La481 O508 2.554 . S
La481 O509 2.757 . S
La481 O510 2.470 . S
C482 La480 2.928 . S
C482 C483 1.503 . S
C482 O500 1.261 . S
C482 O501 1.243 . S
C483 C482 1.503 . S
C483 C484 1.394 . S
C483 C488 1.373 . S
C484 C483 1.394 . S
C484 C485 1.380 . S
C484 H512 0.930 . S
C485 C484 1.380 . S
C485 C486 1.376 . S
C485 H513 0.930 . S
C486 C485 1.376 . S
C486 C487 1.370 . S
C487 C486 1.370 . S
C487 C488 1.396 . S
C487 H514 0.929 . S
C488 C483 1.373 . S
C488 C487 1.396 . S
C488 H515 0.929 . S
C489 O502 1.240 . S
C489 O503 1.289 . S
C490 O504 1.258 . S
C490 O505 1.256 . S
C491 La481 2.928 . S
C491 C492 1.503 . S
C491 O506 1.261 . S
C491 O507 1.243 . S
C492 C491 1.503 . S
C492 C493 1.394 . S
C492 C497 1.373 . S
C493 C492 1.394 . S
C493 C494 1.380 . S
C493 H516 0.930 . S
C494 C493 1.380 . S
C494 C495 1.376 . S
C494 H517 0.930 . S
C495 C494 1.376 . S
C495 C496 1.370 . S
C496 C495 1.370 . S
C496 C497 1.396 . S
C496 H518 0.929 . S
C497 C492 1.373 . S
C497 C496 1.396 . S
C497 H519 0.929 . S
C498 O508 1.240 . S
C498 O509 1.289 . S
C499 O510 1.258 . S
C499 O511 1.256 . S
O500 La480 2.521 . S
O500 C482 1.261 . S
O501 La480 2.628 . S
O501 C482 1.243 . S
O502 La480 2.554 . S
O502 C489 1.240 . S
O503 La480 2.757 . S
O503 La481 2.482 . S
O503 C489 1.289 . S
O504 La480 2.470 . S
O504 C490 1.258 . S
O505 La481 2.503 . S
O505 C490 1.256 . S
O506 La481 2.521 . S
O506 C491 1.261 . S
O507 La481 2.628 . S
O507 C491 1.243 . S
O508 La481 2.554 . S
O508 C498 1.240 . S
O509 La480 2.482 . S
O509 La481 2.757 . S
O509 C498 1.289 . S
O510 La481 2.470 . S
O510 C499 1.258 . S
O511 La480 2.503 . S
O511 C499 1.256 . S
H512 C484 0.930 . S
H513 C485 0.930 . S
H514 C487 0.929 . S
H515 C488 0.929 . S
H516 C493 0.930 . S
H517 C494 0.930 . S
H518 C496 0.929 . S
H519 C497 0.929 . S
La520 C522 2.928 . S
La520 O540 2.521 . S
La520 O541 2.628 . S
La520 O542 2.554 . S
La520 O543 2.757 . S
La520 O544 2.470 . S
La520 O549 2.482 . S
La520 O551 2.503 . S
La521 C531 2.928 . S
La521 O543 2.482 . S
La521 O545 2.503 . S
La521 O546 2.521 . S
La521 O547 2.628 . S
La521 O548 2.554 . S
La521 O549 2.757 . S
La521 O550 2.470 . S
C522 La520 2.928 . S
C522 C523 1.503 . S
C522 O540 1.261 . S
C522 O541 1.243 . S
C523 C522 1.503 . S
C523 C524 1.394 . S
C523 C528 1.373 . S
C524 C523 1.394 . S
C524 C525 1.380 . S
C524 H552 0.930 . S
C525 C524 1.380 . S
C525 C526 1.376 . S
C525 H553 0.930 . S
C526 C525 1.376 . S
C526 C527 1.370 . S
C527 C526 1.370 . S
C527 C528 1.396 . S
C527 H554 0.929 . S
C528 C523 1.373 . S
C528 C527 1.396 . S
C528 H555 0.929 . S
C529 O542 1.240 . S
C529 O543 1.289 . S
C530 O544 1.258 . S
C530 O545 1.256 . S
C531 La521 2.928 . S
C531 C532 1.503 . S
C531 O546 1.261 . S
C531 O547 1.243 . S
C532 C531 1.503 . S
C532 C533 1.394 . S
C532 C537 1.373 . S
C533 C532 1.394 . S
C533 C534 1.380 . S
C533 H556 0.930 . S
C534 C533 1.380 . S
C534 C535 1.376 . S
C534 H557 0.930 . S
C535 C534 1.376 . S
C535 C536 1.370 . S
C536 C535 1.370 . S
C536 C537 1.396 . S
C536 H558 0.929 . S
C537 C532 1.373 . S
C537 C536 1.396 . S
C537 H559 0.929 . S
C538 O548 1.240 . S
C538 O549 1.289 . S
C539 O550 1.258 . S
C539 O551 1.256 . S
O540 La520 2.521 . S
O540 C522 1.261 . S
O541 La520 2.628 . S
O541 C522 1.243 . S
O542 La520 2.554 . S
O542 C529 1.240 . S
O543 La520 2.757 . S
O543 La521 2.482 . S
O543 C529 1.289 . S
O544 La520 2.470 . S
O544 C530 1.258 . S
O545 La521 2.503 . S
O545 C530 1.256 . S
O546 La521 2.521 . S
O546 C531 1.261 . S
O547 La521 2.628 . S
O547 C531 1.243 . S
O548 La521 2.554 . S
O548 C538 1.240 . S
O549 La520 2.482 . S
O549 La521 2.757 . S
O549 C538 1.289 . S
O550 La521 2.470 . S
O550 C539 1.258 . S
O551 La520 2.503 . S
O551 C539 1.256 . S
H552 C524 0.930 . S
H553 C525 0.930 . S
H554 C527 0.929 . S
H555 C528 0.929 . S
H556 C533 0.930 . S
H557 C534 0.930 . S
H558 C536 0.929 . S
H559 C537 0.929 . S
La560 C562 2.928 . S
La560 O580 2.521 . S
La560 O581 2.628 . S
La560 O582 2.554 . S
La560 O583 2.757 . S
La560 O584 2.470 . S
La560 O589 2.482 . S
La560 O591 2.503 . S
La561 C571 2.928 . S
La561 O583 2.482 . S
La561 O585 2.503 . S
La561 O586 2.521 . S
La561 O587 2.628 . S
La561 O588 2.554 . S
La561 O589 2.757 . S
La561 O590 2.470 . S
C562 La560 2.928 . S
C562 C563 1.503 . S
C562 O580 1.261 . S
C562 O581 1.243 . S
C563 C562 1.503 . S
C563 C564 1.394 . S
C563 C568 1.373 . S
C564 C563 1.394 . S
C564 C565 1.380 . S
C564 H592 0.930 . S
C565 C564 1.380 . S
C565 C566 1.376 . S
C565 H593 0.930 . S
C566 C565 1.376 . S
C566 C567 1.370 . S
C567 C566 1.370 . S
C567 C568 1.396 . S
C567 H594 0.929 . S
C568 C563 1.373 . S
C568 C567 1.396 . S
C568 H595 0.929 . S
C569 O582 1.240 . S
C569 O583 1.289 . S
C570 O584 1.258 . S
C570 O585 1.256 . S
C571 La561 2.928 . S
C571 C572 1.503 . S
C571 O586 1.261 . S
C571 O587 1.243 . S
C572 C571 1.503 . S
C572 C573 1.394 . S
C572 C577 1.373 . S
C573 C572 1.394 . S
C573 C574 1.380 . S
C573 H596 0.930 . S
C574 C573 1.380 . S
C574 C575 1.376 . S
C574 H597 0.930 . S
C575 C574 1.376 . S
C575 C576 1.370 . S
C576 C575 1.370 . S
C576 C577 1.396 . S
C576 H598 0.929 . S
C577 C572 1.373 . S
C577 C576 1.396 . S
C577 H599 0.929 . S
C578 O588 1.240 . S
C578 O589 1.289 . S
C579 O590 1.258 . S
C579 O591 1.256 . S
O580 La560 2.521 . S
O580 C562 1.261 . S
O581 La560 2.628 . S
O581 C562 1.243 . S
O582 La560 2.554 . S
O582 C569 1.240 . S
O583 La560 2.757 . S
O583 La561 2.482 . S
O583 C569 1.289 . S
O584 La560 2.470 . S
O584 C570 1.258 . S
O585 La561 2.503 . S
O585 C570 1.256 . S
O586 La561 2.521 . S
O586 C571 1.261 . S
O587 La561 2.628 . S
O587 C571 1.243 . S
O588 La561 2.554 . S
O588 C578 1.240 . S
O589 La560 2.482 . S
O589 La561 2.757 . S
O589 C578 1.289 . S
O590 La561 2.470 . S
O590 C579 1.258 . S
O591 La560 2.503 . S
O591 C579 1.256 . S
H592 C564 0.930 . S
H593 C565 0.930 . S
H594 C567 0.929 . S
H595 C568 0.929 . S
H596 C573 0.930 . S
H597 C574 0.930 . S
H598 C576 0.929 . S
H599 C577 0.929 . S
La600 C602 2.928 . S
La600 O620 2.521 . S
La600 O621 2.628 . S
La600 O622 2.554 . S
La600 O623 2.757 . S
La600 O624 2.470 . S
La600 O629 2.482 . S
La600 O631 2.503 . S
La601 C611 2.928 . S
La601 O623 2.482 . S
La601 O625 2.503 . S
La601 O626 2.521 . S
La601 O627 2.628 . S
La601 O628 2.554 . S
La601 O629 2.757 . S
La601 O630 2.470 . S
C602 La600 2.928 . S
C602 C603 1.503 . S
C602 O620 1.261 . S
C602 O621 1.243 . S
C603 C602 1.503 . S
C603 C604 1.394 . S
C603 C608 1.373 . S
C604 C603 1.394 . S
C604 C605 1.380 . S
C604 H632 0.930 . S
C605 C604 1.380 . S
C605 C606 1.376 . S
C605 H633 0.930 . S
C606 C605 1.376 . S
C606 C607 1.370 . S
C607 C606 1.370 . S
C607 C608 1.396 . S
C607 H634 0.929 . S
C608 C603 1.373 . S
C608 C607 1.396 . S
C608 H635 0.929 . S
C609 O622 1.240 . S
C609 O623 1.289 . S
C610 O624 1.258 . S
C610 O625 1.256 . S
C611 La601 2.928 . S
C611 C612 1.503 . S
C611 O626 1.261 . S
C611 O627 1.243 . S
C612 C611 1.503 . S
C612 C613 1.394 . S
C612 C617 1.373 . S
C613 C612 1.394 . S
C613 C614 1.380 . S
C613 H636 0.930 . S
C614 C613 1.380 . S
C614 C615 1.376 . S
C614 H637 0.930 . S
C615 C614 1.376 . S
C615 C616 1.370 . S
C616 C615 1.370 . S
C616 C617 1.396 . S
C616 H638 0.929 . S
C617 C612 1.373 . S
C617 C616 1.396 . S
C617 H639 0.929 . S
C618 O628 1.240 . S
C618 O629 1.289 . S
C619 O630 1.258 . S
C619 O631 1.256 . S
O620 La600 2.521 . S
O620 C602 1.261 . S
O621 La600 2.628 . S
O621 C602 1.243 . S
O622 La600 2.554 . S
O622 C609 1.240 . S
O623 La600 2.757 . S
O623 La601 2.482 . S
O623 C609 1.289 . S
O624 La600 2.470 . S
O624 C610 1.258 . S
O625 La601 2.503 . S
O625 C610 1.256 . S
O626 La601 2.521 . S
O626 C611 1.261 . S
O627 La601 2.628 . S
O627 C611 1.243 . S
O628 La601 2.554 . S
O628 C618 1.240 . S
O629 La600 2.482 . S
O629 La601 2.757 . S
O629 C618 1.289 . S
O630 La601 2.470 . S
O630 C619 1.258 . S
O631 La600 2.503 . S
O631 C619 1.256 . S
H632 C604 0.930 . S
H633 C605 0.930 . S
H634 C607 0.929 . S
H635 C608 0.929 . S
H636 C613 0.930 . S
H637 C614 0.930 . S
H638 C616 0.929 . S
H639 C617 0.929 . S
La640 C642 2.928 . S
La640 O660 2.521 . S
La640 O661 2.628 . S
La640 O662 2.554 . S
La640 O663 2.757 . S
La640 O664 2.470 . S
La640 O669 2.482 . S
La640 O671 2.503 . S
La641 C651 2.928 . S
La641 O663 2.482 . S
La641 O665 2.503 . S
La641 O666 2.521 . S
La641 O667 2.628 . S
La641 O668 2.554 . S
La641 O669 2.757 . S
La641 O670 2.470 . S
C642 La640 2.928 . S
C642 C643 1.503 . S
C642 O660 1.261 . S
C642 O661 1.243 . S
C643 C642 1.503 . S
C643 C644 1.394 . S
C643 C648 1.373 . S
C644 C643 1.394 . S
C644 C645 1.380 . S
C644 H672 0.930 . S
C645 C644 1.380 . S
C645 C646 1.376 . S
C645 H673 0.930 . S
C646 C645 1.376 . S
C646 C647 1.370 . S
C647 C646 1.370 . S
C647 C648 1.396 . S
C647 H674 0.929 . S
C648 C643 1.373 . S
C648 C647 1.396 . S
C648 H675 0.929 . S
C649 O662 1.240 . S
C649 O663 1.289 . S
C650 O664 1.258 . S
C650 O665 1.256 . S
C651 La641 2.928 . S
C651 C652 1.503 . S
C651 O666 1.261 . S
C651 O667 1.243 . S
C652 C651 1.503 . S
C652 C653 1.394 . S
C652 C657 1.373 . S
C653 C652 1.394 . S
C653 C654 1.380 . S
C653 H676 0.930 . S
C654 C653 1.380 . S
C654 C655 1.376 . S
C654 H677 0.930 . S
C655 C654 1.376 . S
C655 C656 1.370 . S
C656 C655 1.370 . S
C656 C657 1.396 . S
C656 H678 0.929 . S
C657 C652 1.373 . S
C657 C656 1.396 . S
C657 H679 0.929 . S
C658 O668 1.240 . S
C658 O669 1.289 . S
C659 O670 1.258 . S
C659 O671 1.256 . S
O660 La640 2.521 . S
O660 C642 1.261 . S
O661 La640 2.628 . S
O661 C642 1.243 . S
O662 La640 2.554 . S
O662 C649 1.240 . S
O663 La640 2.757 . S
O663 La641 2.482 . S
O663 C649 1.289 . S
O664 La640 2.470 . S
O664 C650 1.258 . S
O665 La641 2.503 . S
O665 C650 1.256 . S
O666 La641 2.521 . S
O666 C651 1.261 . S
O667 La641 2.628 . S
O667 C651 1.243 . S
O668 La641 2.554 . S
O668 C658 1.240 . S
O669 La640 2.482 . S
O669 La641 2.757 . S
O669 C658 1.289 . S
O670 La641 2.470 . S
O670 C659 1.258 . S
O671 La640 2.503 . S
O671 C659 1.256 . S
H672 C644 0.930 . S
H673 C645 0.930 . S
H674 C647 0.929 . S
H675 C648 0.929 . S
H676 C653 0.930 . S
H677 C654 0.930 . S
H678 C656 0.929 . S
H679 C657 0.929 . S
La680 C682 2.928 . S
La680 O700 2.521 . S
La680 O701 2.628 . S
La680 O702 2.554 . S
La680 O703 2.757 . S
La680 O704 2.470 . S
La680 O709 2.482 . S
La680 O711 2.503 . S
La681 C691 2.928 . S
La681 O703 2.482 . S
La681 O705 2.503 . S
La681 O706 2.521 . S
La681 O707 2.628 . S
La681 O708 2.554 . S
La681 O709 2.757 . S
La681 O710 2.470 . S
C682 La680 2.928 . S
C682 C683 1.503 . S
C682 O700 1.261 . S
C682 O701 1.243 . S
C683 C682 1.503 . S
C683 C684 1.394 . S
C683 C688 1.373 . S
C684 C683 1.394 . S
C684 C685 1.380 . S
C684 H712 0.930 . S
C685 C684 1.380 . S
C685 C686 1.376 . S
C685 H713 0.930 . S
C686 C685 1.376 . S
C686 C687 1.370 . S
C687 C686 1.370 . S
C687 C688 1.396 . S
C687 H714 0.929 . S
C688 C683 1.373 . S
C688 C687 1.396 . S
C688 H715 0.929 . S
C689 O702 1.240 . S
C689 O703 1.289 . S
C690 O704 1.258 . S
C690 O705 1.256 . S
C691 La681 2.928 . S
C691 C692 1.503 . S
C691 O706 1.261 . S
C691 O707 1.243 . S
C692 C691 1.503 . S
C692 C693 1.394 . S
C692 C697 1.373 . S
C693 C692 1.394 . S
C693 C694 1.380 . S
C693 H716 0.930 . S
C694 C693 1.380 . S
C694 C695 1.376 . S
C694 H717 0.930 . S
C695 C694 1.376 . S
C695 C696 1.370 . S
C696 C695 1.370 . S
C696 C697 1.396 . S
C696 H718 0.929 . S
C697 C692 1.373 . S
C697 C696 1.396 . S
C697 H719 0.929 . S
C698 O708 1.240 . S
C698 O709 1.289 . S
C699 O710 1.258 . S
C699 O711 1.256 . S
O700 La680 2.521 . S
O700 C682 1.261 . S
O701 La680 2.628 . S
O701 C682 1.243 . S
O702 La680 2.554 . S
O702 C689 1.240 . S
O703 La680 2.757 . S
O703 La681 2.482 . S
O703 C689 1.289 . S
O704 La680 2.470 . S
O704 C690 1.258 . S
O705 La681 2.503 . S
O705 C690 1.256 . S
O706 La681 2.521 . S
O706 C691 1.261 . S
O707 La681 2.628 . S
O707 C691 1.243 . S
O708 La681 2.554 . S
O708 C698 1.240 . S
O709 La680 2.482 . S
O709 La681 2.757 . S
O709 C698 1.289 . S
O710 La681 2.470 . S
O710 C699 1.258 . S
O711 La680 2.503 . S
O711 C699 1.256 . S
H712 C684 0.930 . S
H713 C685 0.930 . S
H714 C687 0.929 . S
H715 C688 0.929 . S
H716 C693 0.930 . S
H717 C694 0.930 . S
H718 C696 0.929 . S
H719 C697 0.929 . S
La720 C722 2.928 . S
La720 O740 2.521 . S
La720 O741 2.628 . S
La720 O742 2.554 . S
La720 O743 2.757 . S
La720 O744 2.470 . S
La720 O749 2.482 . S
La720 O751 2.503 . S
La721 C731 2.928 . S
La721 O743 2.482 . S
La721 O745 2.503 . S
La721 O746 2.521 . S
La721 O747 2.628 . S
La721 O748 2.554 . S
La721 O749 2.757 . S
La721 O750 2.470 . S
C722 La720 2.928 . S
C722 C723 1.503 . S
C722 O740 1.261 . S
C722 O741 1.243 . S
C723 C722 1.503 . S
C723 C724 1.394 . S
C723 C728 1.373 . S
C724 C723 1.394 . S
C724 C725 1.380 . S
C724 H752 0.930 . S
C725 C724 1.380 . S
C725 C726 1.376 . S
C725 H753 0.930 . S
C726 C725 1.376 . S
C726 C727 1.370 . S
C727 C726 1.370 . S
C727 C728 1.396 . S
C727 H754 0.929 . S
C728 C723 1.373 . S
C728 C727 1.396 . S
C728 H755 0.929 . S
C729 O742 1.240 . S
C729 O743 1.289 . S
C730 O744 1.258 . S
C730 O745 1.256 . S
C731 La721 2.928 . S
C731 C732 1.503 . S
C731 O746 1.261 . S
C731 O747 1.243 . S
C732 C731 1.503 . S
C732 C733 1.394 . S
C732 C737 1.373 . S
C733 C732 1.394 . S
C733 C734 1.380 . S
C733 H756 0.930 . S
C734 C733 1.380 . S
C734 C735 1.376 . S
C734 H757 0.930 . S
C735 C734 1.376 . S
C735 C736 1.370 . S
C736 C735 1.370 . S
C736 C737 1.396 . S
C736 H758 0.929 . S
C737 C732 1.373 . S
C737 C736 1.396 . S
C737 H759 0.929 . S
C738 O748 1.240 . S
C738 O749 1.289 . S
C739 O750 1.258 . S
C739 O751 1.256 . S
O740 La720 2.521 . S
O740 C722 1.261 . S
O741 La720 2.628 . S
O741 C722 1.243 . S
O742 La720 2.554 . S
O742 C729 1.240 . S
O743 La720 2.757 . S
O743 La721 2.482 . S
O743 C729 1.289 . S
O744 La720 2.470 . S
O744 C730 1.258 . S
O745 La721 2.503 . S
O745 C730 1.256 . S
O746 La721 2.521 . S
O746 C731 1.261 . S
O747 La721 2.628 . S
O747 C731 1.243 . S
O748 La721 2.554 . S
O748 C738 1.240 . S
O749 La720 2.482 . S
O749 La721 2.757 . S
O749 C738 1.289 . S
O750 La721 2.470 . S
O750 C739 1.258 . S
O751 La720 2.503 . S
O751 C739 1.256 . S
H752 C724 0.930 . S
H753 C725 0.930 . S
H754 C727 0.929 . S
H755 C728 0.929 . S
H756 C733 0.930 . S
H757 C734 0.930 . S
H758 C736 0.929 . S
H759 C737 0.929 . S
La760 C762 2.928 . S
La760 O780 2.521 . S
La760 O781 2.628 . S
La760 O782 2.554 . S
La760 O783 2.757 . S
La760 O784 2.470 . S
La760 O789 2.482 . S
La760 O791 2.503 . S
La761 C771 2.928 . S
La761 O783 2.482 . S
La761 O785 2.503 . S
La761 O786 2.521 . S
La761 O787 2.628 . S
La761 O788 2.554 . S
La761 O789 2.757 . S
La761 O790 2.470 . S
C762 La760 2.928 . S
C762 C763 1.503 . S
C762 O780 1.261 . S
C762 O781 1.243 . S
C763 C762 1.503 . S
C763 C764 1.394 . S
C763 C768 1.373 . S
C764 C763 1.394 . S
C764 C765 1.380 . S
C764 H792 0.930 . S
C765 C764 1.380 . S
C765 C766 1.376 . S
C765 H793 0.930 . S
C766 C765 1.376 . S
C766 C767 1.370 . S
C767 C766 1.370 . S
C767 C768 1.396 . S
C767 H794 0.929 . S
C768 C763 1.373 . S
C768 C767 1.396 . S
C768 H795 0.929 . S
C769 O782 1.240 . S
C769 O783 1.289 . S
C770 O784 1.258 . S
C770 O785 1.256 . S
C771 La761 2.928 . S
C771 C772 1.503 . S
C771 O786 1.261 . S
C771 O787 1.243 . S
C772 C771 1.503 . S
C772 C773 1.394 . S
C772 C777 1.373 . S
C773 C772 1.394 . S
C773 C774 1.380 . S
C773 H796 0.930 . S
C774 C773 1.380 . S
C774 C775 1.376 . S
C774 H797 0.930 . S
C775 C774 1.376 . S
C775 C776 1.370 . S
C776 C775 1.370 . S
C776 C777 1.396 . S
C776 H798 0.929 . S
C777 C772 1.373 . S
C777 C776 1.396 . S
C777 H799 0.929 . S
C778 O788 1.240 . S
C778 O789 1.289 . S
C779 O790 1.258 . S
C779 O791 1.256 . S
O780 La760 2.521 . S
O780 C762 1.261 . S
O781 La760 2.628 . S
O781 C762 1.243 . S
O782 La760 2.554 . S
O782 C769 1.240 . S
O783 La760 2.757 . S
O783 La761 2.482 . S
O783 C769 1.289 . S
O784 La760 2.470 . S
O784 C770 1.258 . S
O785 La761 2.503 . S
O785 C770 1.256 . S
O786 La761 2.521 . S
O786 C771 1.261 . S
O787 La761 2.628 . S
O787 C771 1.243 . S
O788 La761 2.554 . S
O788 C778 1.240 . S
O789 La760 2.482 . S
O789 La761 2.757 . S
O789 C778 1.289 . S
O790 La761 2.470 . S
O790 C779 1.258 . S
O791 La760 2.503 . S
O791 C779 1.256 . S
H792 C764 0.930 . S
H793 C765 0.930 . S
H794 C767 0.929 . S
H795 C768 0.929 . S
H796 C773 0.930 . S
H797 C774 0.930 . S
H798 C776 0.929 . S
H799 C777 0.929 . S
La800 C802 2.928 . S
La800 O820 2.521 . S
La800 O821 2.628 . S
La800 O822 2.554 . S
La800 O823 2.757 . S
La800 O824 2.470 . S
La800 O829 2.482 . S
La800 O831 2.503 . S
La801 C811 2.928 . S
La801 O823 2.482 . S
La801 O825 2.503 . S
La801 O826 2.521 . S
La801 O827 2.628 . S
La801 O828 2.554 . S
La801 O829 2.757 . S
La801 O830 2.470 . S
C802 La800 2.928 . S
C802 C803 1.503 . S
C802 O820 1.261 . S
C802 O821 1.243 . S
C803 C802 1.503 . S
C803 C804 1.394 . S
C803 C808 1.373 . S
C804 C803 1.394 . S
C804 C805 1.380 . S
C804 H832 0.930 . S
C805 C804 1.380 . S
C805 C806 1.376 . S
C805 H833 0.930 . S
C806 C805 1.376 . S
C806 C807 1.370 . S
C807 C806 1.370 . S
C807 C808 1.396 . S
C807 H834 0.929 . S
C808 C803 1.373 . S
C808 C807 1.396 . S
C808 H835 0.929 . S
C809 O822 1.240 . S
C809 O823 1.289 . S
C810 O824 1.258 . S
C810 O825 1.256 . S
C811 La801 2.928 . S
C811 C812 1.503 . S
C811 O826 1.261 . S
C811 O827 1.243 . S
C812 C811 1.503 . S
C812 C813 1.394 . S
C812 C817 1.373 . S
C813 C812 1.394 . S
C813 C814 1.380 . S
C813 H836 0.930 . S
C814 C813 1.380 . S
C814 C815 1.376 . S
C814 H837 0.930 . S
C815 C814 1.376 . S
C815 C816 1.370 . S
C816 C815 1.370 . S
C816 C817 1.396 . S
C816 H838 0.929 . S
C817 C812 1.373 . S
C817 C816 1.396 . S
C817 H839 0.929 . S
C818 O828 1.240 . S
C818 O829 1.289 . S
C819 O830 1.258 . S
C819 O831 1.256 . S
O820 La800 2.521 . S
O820 C802 1.261 . S
O821 La800 2.628 . S
O821 C802 1.243 . S
O822 La800 2.554 . S
O822 C809 1.240 . S
O823 La800 2.757 . S
O823 La801 2.482 . S
O823 C809 1.289 . S
O824 La800 2.470 . S
O824 C810 1.258 . S
O825 La801 2.503 . S
O825 C810 1.256 . S
O826 La801 2.521 . S
O826 C811 1.261 . S
O827 La801 2.628 . S
O827 C811 1.243 . S
O828 La801 2.554 . S
O828 C818 1.240 . S
O829 La800 2.482 . S
O829 La801 2.757 . S
O829 C818 1.289 . S
O830 La801 2.470 . S
O830 C819 1.258 . S
O831 La800 2.503 . S
O831 C819 1.256 . S
H832 C804 0.930 . S
H833 C805 0.930 . S
H834 C807 0.929 . S
H835 C808 0.929 . S
H836 C813 0.930 . S
H837 C814 0.930 . S
H838 C816 0.929 . S
H839 C817 0.929 . S
La840 C842 2.928 . S
La840 O860 2.521 . S
La840 O861 2.628 . S
La840 O862 2.554 . S
La840 O863 2.757 . S
La840 O864 2.470 . S
La840 O869 2.482 . S
La840 O871 2.503 . S
La841 C851 2.928 . S
La841 O863 2.482 . S
La841 O865 2.503 . S
La841 O866 2.521 . S
La841 O867 2.628 . S
La841 O868 2.554 1_556 S
La841 O869 2.757 . S
La841 O870 2.470 . S
C842 La840 2.928 . S
C842 C843 1.503 . S
C842 O860 1.261 . S
C842 O861 1.243 . S
C843 C842 1.503 . S
C843 C844 1.394 . S
C843 C848 1.373 . S
C844 C843 1.394 . S
C844 C845 1.380 . S
C844 H872 0.930 . S
C845 C844 1.380 . S
C845 C846 1.376 . S
C845 H873 0.930 . S
C846 C845 1.376 . S
C846 C847 1.370 . S
C847 C846 1.370 . S
C847 C848 1.396 . S
C847 H874 0.929 . S
C848 C843 1.373 . S
C848 C847 1.396 . S
C848 H875 0.929 . S
C849 O862 1.240 . S
C849 O863 1.289 . S
C850 O864 1.258 . S
C850 O865 1.256 . S
C851 La841 2.928 . S
C851 C852 1.503 . S
C851 O866 1.261 . S
C851 O867 1.243 . S
C852 C851 1.503 . S
C852 C853 1.394 . S
C852 C857 1.373 . S
C853 C852 1.394 . S
C853 C854 1.380 . S
C853 H876 0.930 . S
C854 C853 1.380 . S
C854 C855 1.376 . S
C854 H877 0.930 . S
C855 C854 1.376 . S
C855 C856 1.370 . S
C856 C855 1.370 . S
C856 C857 1.396 . S
C856 H878 0.929 . S
C857 C852 1.373 . S
C857 C856 1.396 . S
C857 H879 0.929 . S
C858 O868 1.240 . S
C858 O869 1.289 1_554 S
C859 O870 1.258 . S
C859 O871 1.256 . S
O860 La840 2.521 . S
O860 C842 1.261 . S
O861 La840 2.628 . S
O861 C842 1.243 . S
O862 La840 2.554 . S
O862 C849 1.240 . S
O863 La840 2.757 . S
O863 La841 2.482 . S
O863 C849 1.289 . S
O864 La840 2.470 . S
O864 C850 1.258 . S
O865 La841 2.503 . S
O865 C850 1.256 . S
O866 La841 2.521 . S
O866 C851 1.261 . S
O867 La841 2.628 . S
O867 C851 1.243 . S
O868 La841 2.554 1_554 S
O868 C858 1.240 . S
O869 La840 2.482 . S
O869 La841 2.757 . S
O869 C858 1.289 1_556 S
O870 La841 2.470 . S
O870 C859 1.258 . S
O871 La840 2.503 . S
O871 C859 1.256 . S
H872 C844 0.930 . S
H873 C845 0.930 . S
H874 C847 0.929 . S
H875 C848 0.929 . S
H876 C853 0.930 . S
H877 C854 0.930 . S
H878 C856 0.929 . S
H879 C857 0.929 . S
La880 C882 2.928 . S
La880 O900 2.521 . S
La880 O901 2.628 . S
La880 O902 2.554 . S
La880 O903 2.757 . S
La880 O904 2.470 . S
La880 O909 2.482 . S
La880 O911 2.503 . S
La881 C891 2.928 . S
La881 O903 2.482 . S
La881 O905 2.503 . S
La881 O906 2.521 . S
La881 O907 2.628 . S
La881 O908 2.554 1_556 S
La881 O909 2.757 . S
La881 O910 2.470 . S
C882 La880 2.928 . S
C882 C883 1.503 . S
C882 O900 1.261 . S
C882 O901 1.243 . S
C883 C882 1.503 . S
C883 C884 1.394 . S
C883 C888 1.373 . S
C884 C883 1.394 . S
C884 C885 1.380 . S
C884 H912 0.930 . S
C885 C884 1.380 . S
C885 C886 1.376 . S
C885 H913 0.930 . S
C886 C885 1.376 . S
C886 C887 1.370 . S
C887 C886 1.370 . S
C887 C888 1.396 . S
C887 H914 0.929 . S
C888 C883 1.373 . S
C888 C887 1.396 . S
C888 H915 0.929 . S
C889 O902 1.240 . S
C889 O903 1.289 . S
C890 O904 1.258 . S
C890 O905 1.256 . S
C891 La881 2.928 . S
C891 C892 1.503 . S
C891 O906 1.261 . S
C891 O907 1.243 . S
C892 C891 1.503 . S
C892 C893 1.394 . S
C892 C897 1.373 . S
C893 C892 1.394 . S
C893 C894 1.380 . S
C893 H916 0.930 . S
C894 C893 1.380 . S
C894 C895 1.376 . S
C894 H917 0.930 . S
C895 C894 1.376 . S
C895 C896 1.370 . S
C896 C895 1.370 . S
C896 C897 1.396 . S
C896 H918 0.929 . S
C897 C892 1.373 . S
C897 C896 1.396 . S
C897 H919 0.929 . S
C898 O908 1.240 . S
C898 O909 1.289 1_554 S
C899 O910 1.258 . S
C899 O911 1.256 . S
O900 La880 2.521 . S
O900 C882 1.261 . S
O901 La880 2.628 . S
O901 C882 1.243 . S
O902 La880 2.554 . S
O902 C889 1.240 . S
O903 La880 2.757 . S
O903 La881 2.482 . S
O903 C889 1.289 . S
O904 La880 2.470 . S
O904 C890 1.258 . S
O905 La881 2.503 . S
O905 C890 1.256 . S
O906 La881 2.521 . S
O906 C891 1.261 . S
O907 La881 2.628 . S
O907 C891 1.243 . S
O908 La881 2.554 1_554 S
O908 C898 1.240 . S
O909 La880 2.482 . S
O909 La881 2.757 . S
O909 C898 1.289 1_556 S
O910 La881 2.470 . S
O910 C899 1.258 . S
O911 La880 2.503 . S
O911 C899 1.256 . S
H912 C884 0.930 . S
H913 C885 0.930 . S
H914 C887 0.929 . S
H915 C888 0.929 . S
H916 C893 0.930 . S
H917 C894 0.930 . S
H918 C896 0.929 . S
H919 C897 0.929 . S
La920 C922 2.928 . S
La920 O940 2.521 . S
La920 O941 2.628 . S
La920 O942 2.554 . S
La920 O943 2.757 . S
La920 O944 2.470 . S
La920 O949 2.482 . S
La920 O951 2.503 . S
La921 C931 2.928 . S
La921 O943 2.482 . S
La921 O945 2.503 . S
La921 O946 2.521 . S
La921 O947 2.628 . S
La921 O948 2.554 1_556 S
La921 O949 2.757 . S
La921 O950 2.470 . S
C922 La920 2.928 . S
C922 C923 1.503 . S
C922 O940 1.261 . S
C922 O941 1.243 . S
C923 C922 1.503 . S
C923 C924 1.394 . S
C923 C928 1.373 . S
C924 C923 1.394 . S
C924 C925 1.380 . S
C924 H952 0.930 . S
C925 C924 1.380 . S
C925 C926 1.376 . S
C925 H953 0.930 . S
C926 C925 1.376 . S
C926 C927 1.370 . S
C927 C926 1.370 . S
C927 C928 1.396 . S
C927 H954 0.929 . S
C928 C923 1.373 . S
C928 C927 1.396 . S
C928 H955 0.929 . S
C929 O942 1.240 . S
C929 O943 1.289 . S
C930 O944 1.258 . S
C930 O945 1.256 . S
C931 La921 2.928 . S
C931 C932 1.503 . S
C931 O946 1.261 . S
C931 O947 1.243 . S
C932 C931 1.503 . S
C932 C933 1.394 . S
C932 C937 1.373 . S
C933 C932 1.394 . S
C933 C934 1.380 . S
C933 H956 0.930 . S
C934 C933 1.380 . S
C934 C935 1.376 . S
C934 H957 0.930 . S
C935 C934 1.376 . S
C935 C936 1.370 . S
C936 C935 1.370 . S
C936 C937 1.396 . S
C936 H958 0.929 . S
C937 C932 1.373 . S
C937 C936 1.396 . S
C937 H959 0.929 . S
C938 O948 1.240 . S
C938 O949 1.289 1_554 S
C939 O950 1.258 . S
C939 O951 1.256 . S
O940 La920 2.521 . S
O940 C922 1.261 . S
O941 La920 2.628 . S
O941 C922 1.243 . S
O942 La920 2.554 . S
O942 C929 1.240 . S
O943 La920 2.757 . S
O943 La921 2.482 . S
O943 C929 1.289 . S
O944 La920 2.470 . S
O944 C930 1.258 . S
O945 La921 2.503 . S
O945 C930 1.256 . S
O946 La921 2.521 . S
O946 C931 1.261 . S
O947 La921 2.628 . S
O947 C931 1.243 . S
O948 La921 2.554 1_554 S
O948 C938 1.240 . S
O949 La920 2.482 . S
O949 La921 2.757 . S
O949 C938 1.289 1_556 S
O950 La921 2.470 . S
O950 C939 1.258 . S
O951 La920 2.503 . S
O951 C939 1.256 . S
H952 C924 0.930 . S
H953 C925 0.930 . S
H954 C927 0.929 . S
H955 C928 0.929 . S
H956 C933 0.930 . S
H957 C934 0.930 . S
H958 C936 0.929 . S
H959 C937 0.929 . S
La960 C962 2.928 . S
La960 O980 2.521 . S
La960 O981 2.628 . S
La960 O982 2.554 . S
La960 O983 2.757 . S
La960 O984 2.470 . S
La960 O989 2.482 . S
La960 O991 2.503 . S
La961 C971 2.928 . S
La961 O983 2.482 . S
La961 O985 2.503 . S
La961 O986 2.521 . S
La961 O987 2.628 . S
La961 O988 2.554 . S
La961 O989 2.757 . S
La961 O990 2.470 . S
C962 La960 2.928 . S
C962 C963 1.503 . S
C962 O980 1.261 . S
C962 O981 1.243 . S
C963 C962 1.503 . S
C963 C964 1.394 . S
C963 C968 1.373 . S
C964 C963 1.394 . S
C964 C965 1.380 . S
C964 H992 0.930 . S
C965 C964 1.380 . S
C965 C966 1.376 . S
C965 H993 0.930 . S
C966 C965 1.376 . S
C966 C967 1.370 . S
C967 C966 1.370 . S
C967 C968 1.396 . S
C967 H994 0.929 . S
C968 C963 1.373 . S
C968 C967 1.396 . S
C968 H995 0.929 . S
C969 O982 1.240 . S
C969 O983 1.289 . S
C970 O984 1.258 . S
C970 O985 1.256 . S
C971 La961 2.928 . S
C971 C972 1.503 . S
C971 O986 1.261 . S
C971 O987 1.243 . S
C972 C971 1.503 . S
C972 C973 1.394 . S
C972 C977 1.373 . S
C973 C972 1.394 . S
C973 C974 1.380 . S
C973 H996 0.930 . S
C974 C973 1.380 . S
C974 C975 1.376 . S
C974 H997 0.930 . S
C975 C974 1.376 . S
C975 C976 1.370 . S
C976 C975 1.370 . S
C976 C977 1.396 . S
C976 H998 0.929 . S
C977 C972 1.373 . S
C977 C976 1.396 . S
C977 H999 0.929 . S
C978 O988 1.240 . S
C978 O989 1.289 . S
C979 O990 1.258 . S
C979 O991 1.256 . S
O980 La960 2.521 . S
O980 C962 1.261 . S
O981 La960 2.628 . S
O981 C962 1.243 . S
O982 La960 2.554 . S
O982 C969 1.240 . S
O983 La960 2.757 . S
O983 La961 2.482 . S
O983 C969 1.289 . S
O984 La960 2.470 . S
O984 C970 1.258 . S
O985 La961 2.503 . S
O985 C970 1.256 . S
O986 La961 2.521 . S
O986 C971 1.261 . S
O987 La961 2.628 . S
O987 C971 1.243 . S
O988 La961 2.554 . S
O988 C978 1.240 . S
O989 La960 2.482 . S
O989 La961 2.757 . S
O989 C978 1.289 . S
O990 La961 2.470 . S
O990 C979 1.258 . S
O991 La960 2.503 . S
O991 C979 1.256 . S
H992 C964 0.930 . S
H993 C965 0.930 . S
H994 C967 0.929 . S
H995 C968 0.929 . S
H996 C973 0.930 . S
H997 C974 0.930 . S
H998 C976 0.929 . S
H999 C977 0.929 . S
La1000 C1002 2.928 . S
La1000 O1020 2.521 . S
La1000 O1021 2.628 . S
La1000 O1022 2.554 . S
La1000 O1023 2.757 . S
La1000 O1024 2.470 . S
La1000 O1029 2.482 . S
La1000 O1031 2.503 . S
La1001 C1011 2.928 . S
La1001 O1023 2.482 . S
La1001 O1025 2.503 . S
La1001 O1026 2.521 . S
La1001 O1027 2.628 . S
La1001 O1028 2.554 . S
La1001 O1029 2.757 . S
La1001 O1030 2.470 . S
C1002 La1000 2.928 . S
C1002 C1003 1.503 . S
C1002 O1020 1.261 . S
C1002 O1021 1.243 . S
C1003 C1002 1.503 . S
C1003 C1004 1.394 . S
C1003 C1008 1.373 . S
C1004 C1003 1.394 . S
C1004 C1005 1.380 . S
C1004 H1032 0.930 . S
C1005 C1004 1.380 . S
C1005 C1006 1.376 . S
C1005 H1033 0.930 . S
C1006 C1005 1.376 . S
C1006 C1007 1.370 . S
C1007 C1006 1.370 . S
C1007 C1008 1.396 . S
C1007 H1034 0.929 . S
C1008 C1003 1.373 . S
C1008 C1007 1.396 . S
C1008 H1035 0.929 . S
C1009 O1022 1.240 . S
C1009 O1023 1.289 . S
C1010 O1024 1.258 . S
C1010 O1025 1.256 . S
C1011 La1001 2.928 . S
C1011 C1012 1.503 . S
C1011 O1026 1.261 . S
C1011 O1027 1.243 . S
C1012 C1011 1.503 . S
C1012 C1013 1.394 . S
C1012 C1017 1.373 . S
C1013 C1012 1.394 . S
C1013 C1014 1.380 . S
C1013 H1036 0.930 . S
C1014 C1013 1.380 . S
C1014 C1015 1.376 . S
C1014 H1037 0.930 . S
C1015 C1014 1.376 . S
C1015 C1016 1.370 . S
C1016 C1015 1.370 . S
C1016 C1017 1.396 . S
C1016 H1038 0.929 . S
C1017 C1012 1.373 . S
C1017 C1016 1.396 . S
C1017 H1039 0.929 . S
C1018 O1028 1.240 . S
C1018 O1029 1.289 . S
C1019 O1030 1.258 . S
C1019 O1031 1.256 . S
O1020 La1000 2.521 . S
O1020 C1002 1.261 . S
O1021 La1000 2.628 . S
O1021 C1002 1.243 . S
O1022 La1000 2.554 . S
O1022 C1009 1.240 . S
O1023 La1000 2.757 . S
O1023 La1001 2.482 . S
O1023 C1009 1.289 . S
O1024 La1000 2.470 . S
O1024 C1010 1.258 . S
O1025 La1001 2.503 . S
O1025 C1010 1.256 . S
O1026 La1001 2.521 . S
O1026 C1011 1.261 . S
O1027 La1001 2.628 . S
O1027 C1011 1.243 . S
O1028 La1001 2.554 . S
O1028 C1018 1.240 . S
O1029 La1000 2.482 . S
O1029 La1001 2.757 . S
O1029 C1018 1.289 . S
O1030 La1001 2.470 . S
O1030 C1019 1.258 . S
O1031 La1000 2.503 . S
O1031 C1019 1.256 . S
H1032 C1004 0.930 . S
H1033 C1005 0.930 . S
H1034 C1007 0.929 . S
H1035 C1008 0.929 . S
H1036 C1013 0.930 . S
H1037 C1014 0.930 . S
H1038 C1016 0.929 . S
H1039 C1017 0.929 . S
La1040 C1042 2.928 . S
La1040 O1060 2.521 . S
La1040 O1061 2.628 . S
La1040 O1062 2.554 . S
La1040 O1063 2.757 . S
La1040 O1064 2.470 . S
La1040 O1069 2.482 . S
La1040 O1071 2.503 . S
La1041 C1051 2.928 . S
La1041 O1063 2.482 . S
La1041 O1065 2.503 . S
La1041 O1066 2.521 . S
La1041 O1067 2.628 . S
La1041 O1068 2.554 . S
La1041 O1069 2.757 . S
La1041 O1070 2.470 . S
C1042 La1040 2.928 . S
C1042 C1043 1.503 . S
C1042 O1060 1.261 . S
C1042 O1061 1.243 . S
C1043 C1042 1.503 . S
C1043 C1044 1.394 . S
C1043 C1048 1.373 . S
C1044 C1043 1.394 . S
C1044 C1045 1.380 . S
C1044 H1072 0.930 . S
C1045 C1044 1.380 . S
C1045 C1046 1.376 . S
C1045 H1073 0.930 . S
C1046 C1045 1.376 . S
C1046 C1047 1.370 . S
C1047 C1046 1.370 . S
C1047 C1048 1.396 . S
C1047 H1074 0.929 . S
C1048 C1043 1.373 . S
C1048 C1047 1.396 . S
C1048 H1075 0.929 . S
C1049 O1062 1.240 . S
C1049 O1063 1.289 . S
C1050 O1064 1.258 . S
C1050 O1065 1.256 . S
C1051 La1041 2.928 . S
C1051 C1052 1.503 . S
C1051 O1066 1.261 . S
C1051 O1067 1.243 . S
C1052 C1051 1.503 . S
C1052 C1053 1.394 . S
C1052 C1057 1.373 . S
C1053 C1052 1.394 . S
C1053 C1054 1.380 . S
C1053 H1076 0.930 . S
C1054 C1053 1.380 . S
C1054 C1055 1.376 . S
C1054 H1077 0.930 . S
C1055 C1054 1.376 . S
C1055 C1056 1.370 . S
C1056 C1055 1.370 . S
C1056 C1057 1.396 . S
C1056 H1078 0.929 . S
C1057 C1052 1.373 . S
C1057 C1056 1.396 . S
C1057 H1079 0.929 . S
C1058 O1068 1.240 . S
C1058 O1069 1.289 . S
C1059 O1070 1.258 . S
C1059 O1071 1.256 . S
O1060 La1040 2.521 . S
O1060 C1042 1.261 . S
O1061 La1040 2.628 . S
O1061 C1042 1.243 . S
O1062 La1040 2.554 . S
O1062 C1049 1.240 . S
O1063 La1040 2.757 . S
O1063 La1041 2.482 . S
O1063 C1049 1.289 . S
O1064 La1040 2.470 . S
O1064 C1050 1.258 . S
O1065 La1041 2.503 . S
O1065 C1050 1.256 . S
O1066 La1041 2.521 . S
O1066 C1051 1.261 . S
O1067 La1041 2.628 . S
O1067 C1051 1.243 . S
O1068 La1041 2.554 . S
O1068 C1058 1.240 . S
O1069 La1040 2.482 . S
O1069 La1041 2.757 . S
O1069 C1058 1.289 . S
O1070 La1041 2.470 . S
O1070 C1059 1.258 . S
O1071 La1040 2.503 . S
O1071 C1059 1.256 . S
H1072 C1044 0.930 . S
H1073 C1045 0.930 . S
H1074 C1047 0.929 . S
H1075 C1048 0.929 . S
H1076 C1053 0.930 . S
H1077 C1054 0.930 . S
H1078 C1056 0.929 . S
H1079 C1057 0.929 . S
La1080 C1082 2.928 . S
La1080 O1100 2.521 . S
La1080 O1101 2.628 . S
La1080 O1102 2.554 1_554 S
La1080 O1103 2.757 . S
La1080 O1104 2.470 . S
La1080 O1109 2.482 . S
La1080 O1111 2.503 . S
La1081 C1091 2.928 . S
La1081 O1103 2.482 . S
La1081 O1105 2.503 . S
La1081 O1106 2.521 . S
La1081 O1107 2.628 . S
La1081 O1108 2.554 . S
La1081 O1109 2.757 . S
La1081 O1110 2.470 . S
C1082 La1080 2.928 . S
C1082 C1083 1.503 . S
C1082 O1100 1.261 . S
C1082 O1101 1.243 . S
C1083 C1082 1.503 . S
C1083 C1084 1.394 . S
C1083 C1088 1.373 . S
C1084 C1083 1.394 . S
C1084 C1085 1.380 . S
C1084 H1112 0.930 . S
C1085 C1084 1.380 . S
C1085 C1086 1.376 . S
C1085 H1113 0.930 . S
C1086 C1085 1.376 . S
C1086 C1087 1.370 . S
C1087 C1086 1.370 . S
C1087 C1088 1.396 . S
C1087 H1114 0.929 . S
C1088 C1083 1.373 . S
C1088 C1087 1.396 . S
C1088 H1115 0.929 . S
C1089 O1102 1.240 . S
C1089 O1103 1.289 1_556 S
C1090 O1104 1.258 . S
C1090 O1105 1.256 . S
C1091 La1081 2.928 . S
C1091 C1092 1.503 . S
C1091 O1106 1.261 . S
C1091 O1107 1.243 . S
C1092 C1091 1.503 . S
C1092 C1093 1.394 . S
C1092 C1097 1.373 . S
C1093 C1092 1.394 . S
C1093 C1094 1.380 . S
C1093 H1116 0.930 . S
C1094 C1093 1.380 . S
C1094 C1095 1.376 . S
C1094 H1117 0.930 . S
C1095 C1094 1.376 . S
C1095 C1096 1.370 . S
C1096 C1095 1.370 . S
C1096 C1097 1.396 . S
C1096 H1118 0.929 . S
C1097 C1092 1.373 . S
C1097 C1096 1.396 . S
C1097 H1119 0.929 . S
C1098 O1108 1.240 . S
C1098 O1109 1.289 . S
C1099 O1110 1.258 . S
C1099 O1111 1.256 . S
O1100 La1080 2.521 . S
O1100 C1082 1.261 . S
O1101 La1080 2.628 . S
O1101 C1082 1.243 . S
O1102 La1080 2.554 1_556 S
O1102 C1089 1.240 . S
O1103 La1080 2.757 . S
O1103 La1081 2.482 . S
O1103 C1089 1.289 1_554 S
O1104 La1080 2.470 . S
O1104 C1090 1.258 . S
O1105 La1081 2.503 . S
O1105 C1090 1.256 . S
O1106 La1081 2.521 . S
O1106 C1091 1.261 . S
O1107 La1081 2.628 . S
O1107 C1091 1.243 . S
O1108 La1081 2.554 . S
O1108 C1098 1.240 . S
O1109 La1080 2.482 . S
O1109 La1081 2.757 . S
O1109 C1098 1.289 . S
O1110 La1081 2.470 . S
O1110 C1099 1.258 . S
O1111 La1080 2.503 . S
O1111 C1099 1.256 . S
H1112 C1084 0.930 . S
H1113 C1085 0.930 . S
H1114 C1087 0.929 . S
H1115 C1088 0.929 . S
H1116 C1093 0.930 . S
H1117 C1094 0.930 . S
H1118 C1096 0.929 . S
H1119 C1097 0.929 . S
La1120 C1122 2.928 . S
La1120 O1140 2.521 . S
La1120 O1141 2.628 . S
La1120 O1142 2.554 1_554 S
La1120 O1143 2.757 . S
La1120 O1144 2.470 . S
La1120 O1149 2.482 . S
La1120 O1151 2.503 . S
La1121 C1131 2.928 . S
La1121 O1143 2.482 . S
La1121 O1145 2.503 . S
La1121 O1146 2.521 . S
La1121 O1147 2.628 . S
La1121 O1148 2.554 . S
La1121 O1149 2.757 . S
La1121 O1150 2.470 . S
C1122 La1120 2.928 . S
C1122 C1123 1.503 . S
C1122 O1140 1.261 . S
C1122 O1141 1.243 . S
C1123 C1122 1.503 . S
C1123 C1124 1.394 . S
C1123 C1128 1.373 . S
C1124 C1123 1.394 . S
C1124 C1125 1.380 . S
C1124 H1152 0.930 . S
C1125 C1124 1.380 . S
C1125 C1126 1.376 . S
C1125 H1153 0.930 . S
C1126 C1125 1.376 . S
C1126 C1127 1.370 . S
C1127 C1126 1.370 . S
C1127 C1128 1.396 . S
C1127 H1154 0.929 . S
C1128 C1123 1.373 . S
C1128 C1127 1.396 . S
C1128 H1155 0.929 . S
C1129 O1142 1.240 . S
C1129 O1143 1.289 1_556 S
C1130 O1144 1.258 . S
C1130 O1145 1.256 . S
C1131 La1121 2.928 . S
C1131 C1132 1.503 . S
C1131 O1146 1.261 . S
C1131 O1147 1.243 . S
C1132 C1131 1.503 . S
C1132 C1133 1.394 . S
C1132 C1137 1.373 . S
C1133 C1132 1.394 . S
C1133 C1134 1.380 . S
C1133 H1156 0.930 . S
C1134 C1133 1.380 . S
C1134 C1135 1.376 . S
C1134 H1157 0.930 . S
C1135 C1134 1.376 . S
C1135 C1136 1.370 . S
C1136 C1135 1.370 . S
C1136 C1137 1.396 . S
C1136 H1158 0.929 . S
C1137 C1132 1.373 . S
C1137 C1136 1.396 . S
C1137 H1159 0.929 . S
C1138 O1148 1.240 . S
C1138 O1149 1.289 . S
C1139 O1150 1.258 . S
C1139 O1151 1.256 . S
O1140 La1120 2.521 . S
O1140 C1122 1.261 . S
O1141 La1120 2.628 . S
O1141 C1122 1.243 . S
O1142 La1120 2.554 1_556 S
O1142 C1129 1.240 . S
O1143 La1120 2.757 . S
O1143 La1121 2.482 . S
O1143 C1129 1.289 1_554 S
O1144 La1120 2.470 . S
O1144 C1130 1.258 . S
O1145 La1121 2.503 . S
O1145 C1130 1.256 . S
O1146 La1121 2.521 . S
O1146 C1131 1.261 . S
O1147 La1121 2.628 . S
O1147 C1131 1.243 . S
O1148 La1121 2.554 . S
O1148 C1138 1.240 . S
O1149 La1120 2.482 . S
O1149 La1121 2.757 . S
O1149 C1138 1.289 . S
O1150 La1121 2.470 . S
O1150 C1139 1.258 . S
O1151 La1120 2.503 . S
O1151 C1139 1.256 . S
H1152 C1124 0.930 . S
H1153 C1125 0.930 . S
H1154 C1127 0.929 . S
H1155 C1128 0.929 . S
H1156 C1133 0.930 . S
H1157 C1134 0.930 . S
H1158 C1136 0.929 . S
H1159 C1137 0.929 . S
La1160 C1162 2.928 . S
La1160 O1180 2.521 . S
La1160 O1181 2.628 . S
La1160 O1182 2.554 1_554 S
La1160 O1183 2.757 . S
La1160 O1184 2.470 . S
La1160 O1189 2.482 . S
La1160 O1191 2.503 . S
La1161 C1171 2.928 . S
La1161 O1183 2.482 . S
La1161 O1185 2.503 . S
La1161 O1186 2.521 . S
La1161 O1187 2.628 . S
La1161 O1188 2.554 . S
La1161 O1189 2.757 . S
La1161 O1190 2.470 . S
C1162 La1160 2.928 . S
C1162 C1163 1.503 . S
C1162 O1180 1.261 . S
C1162 O1181 1.243 . S
C1163 C1162 1.503 . S
C1163 C1164 1.394 . S
C1163 C1168 1.373 . S
C1164 C1163 1.394 . S
C1164 C1165 1.380 . S
C1164 H1192 0.930 . S
C1165 C1164 1.380 . S
C1165 C1166 1.376 . S
C1165 H1193 0.930 . S
C1166 C1165 1.376 . S
C1166 C1167 1.370 . S
C1167 C1166 1.370 . S
C1167 C1168 1.396 . S
C1167 H1194 0.929 . S
C1168 C1163 1.373 . S
C1168 C1167 1.396 . S
C1168 H1195 0.929 . S
C1169 O1182 1.240 . S
C1169 O1183 1.289 1_556 S
C1170 O1184 1.258 . S
C1170 O1185 1.256 . S
C1171 La1161 2.928 . S
C1171 C1172 1.503 . S
C1171 O1186 1.261 . S
C1171 O1187 1.243 . S
C1172 C1171 1.503 . S
C1172 C1173 1.394 . S
C1172 C1177 1.373 . S
C1173 C1172 1.394 . S
C1173 C1174 1.380 . S
C1173 H1196 0.930 . S
C1174 C1173 1.380 . S
C1174 C1175 1.376 . S
C1174 H1197 0.930 . S
C1175 C1174 1.376 . S
C1175 C1176 1.370 . S
C1176 C1175 1.370 . S
C1176 C1177 1.396 . S
C1176 H1198 0.929 . S
C1177 C1172 1.373 . S
C1177 C1176 1.396 . S
C1177 H1199 0.929 . S
C1178 O1188 1.240 . S
C1178 O1189 1.289 . S
C1179 O1190 1.258 . S
C1179 O1191 1.256 . S
O1180 La1160 2.521 . S
O1180 C1162 1.261 . S
O1181 La1160 2.628 . S
O1181 C1162 1.243 . S
O1182 La1160 2.554 1_556 S
O1182 C1169 1.240 . S
O1183 La1160 2.757 . S
O1183 La1161 2.482 . S
O1183 C1169 1.289 1_554 S
O1184 La1160 2.470 . S
O1184 C1170 1.258 . S
O1185 La1161 2.503 . S
O1185 C1170 1.256 . S
O1186 La1161 2.521 . S
O1186 C1171 1.261 . S
O1187 La1161 2.628 . S
O1187 C1171 1.243 . S
O1188 La1161 2.554 . S
O1188 C1178 1.240 . S
O1189 La1160 2.482 . S
O1189 La1161 2.757 . S
O1189 C1178 1.289 . S
O1190 La1161 2.470 . S
O1190 C1179 1.258 . S
O1191 La1160 2.503 . S
O1191 C1179 1.256 . S
H1192 C1164 0.930 . S
H1193 C1165 0.930 . S
H1194 C1167 0.929 . S
H1195 C1168 0.929 . S
H1196 C1173 0.930 . S
H1197 C1174 0.930 . S
H1198 C1176 0.929 . S
H1199 C1177 0.929 . S
La1200 C1202 2.928 . S
La1200 O1220 2.521 . S
La1200 O1221 2.628 . S
La1200 O1222 2.554 . S
La1200 O1223 2.757 . S
La1200 O1224 2.470 . S
La1200 O1229 2.482 . S
La1200 O1231 2.503 . S
La1201 C1211 2.928 . S
La1201 O1223 2.482 . S
La1201 O1225 2.503 . S
La1201 O1226 2.521 . S
La1201 O1227 2.628 . S
La1201 O1228 2.554 . S
La1201 O1229 2.757 . S
La1201 O1230 2.470 . S
C1202 La1200 2.928 . S
C1202 C1203 1.503 . S
C1202 O1220 1.261 . S
C1202 O1221 1.243 . S
C1203 C1202 1.503 . S
C1203 C1204 1.394 . S
C1203 C1208 1.373 . S
C1204 C1203 1.394 . S
C1204 C1205 1.380 . S
C1204 H1232 0.930 . S
C1205 C1204 1.380 . S
C1205 C1206 1.376 . S
C1205 H1233 0.930 . S
C1206 C1205 1.376 . S
C1206 C1207 1.370 . S
C1207 C1206 1.370 . S
C1207 C1208 1.396 . S
C1207 H1234 0.929 . S
C1208 C1203 1.373 . S
C1208 C1207 1.396 . S
C1208 H1235 0.929 . S
C1209 O1222 1.240 . S
C1209 O1223 1.289 . S
C1210 O1224 1.258 . S
C1210 O1225 1.256 . S
C1211 La1201 2.928 . S
C1211 C1212 1.503 . S
C1211 O1226 1.261 . S
C1211 O1227 1.243 . S
C1212 C1211 1.503 . S
C1212 C1213 1.394 . S
C1212 C1217 1.373 . S
C1213 C1212 1.394 . S
C1213 C1214 1.380 . S
C1213 H1236 0.930 . S
C1214 C1213 1.380 . S
C1214 C1215 1.376 . S
C1214 H1237 0.930 . S
C1215 C1214 1.376 . S
C1215 C1216 1.370 . S
C1216 C1215 1.370 . S
C1216 C1217 1.396 . S
C1216 H1238 0.929 . S
C1217 C1212 1.373 . S
C1217 C1216 1.396 . S
C1217 H1239 0.929 . S
C1218 O1228 1.240 . S
C1218 O1229 1.289 . S
C1219 O1230 1.258 . S
C1219 O1231 1.256 . S
O1220 La1200 2.521 . S
O1220 C1202 1.261 . S
O1221 La1200 2.628 . S
O1221 C1202 1.243 . S
O1222 La1200 2.554 . S
O1222 C1209 1.240 . S
O1223 La1200 2.757 . S
O1223 La1201 2.482 . S
O1223 C1209 1.289 . S
O1224 La1200 2.470 . S
O1224 C1210 1.258 . S
O1225 La1201 2.503 . S
O1225 C1210 1.256 . S
O1226 La1201 2.521 . S
O1226 C1211 1.261 . S
O1227 La1201 2.628 . S
O1227 C1211 1.243 . S
O1228 La1201 2.554 . S
O1228 C1218 1.240 . S
O1229 La1200 2.482 . S
O1229 La1201 2.757 . S
O1229 C1218 1.289 . S
O1230 La1201 2.470 . S
O1230 C1219 1.258 . S
O1231 La1200 2.503 . S
O1231 C1219 1.256 . S
H1232 C1204 0.930 . S
H1233 C1205 0.930 . S
H1234 C1207 0.929 . S
H1235 C1208 0.929 . S
H1236 C1213 0.930 . S
H1237 C1214 0.930 . S
H1238 C1216 0.929 . S
H1239 C1217 0.929 . S
La1240 C1242 2.928 . S
La1240 O1260 2.521 . S
La1240 O1261 2.628 . S
La1240 O1262 2.554 . S
La1240 O1263 2.757 . S
La1240 O1264 2.470 . S
La1240 O1269 2.482 . S
La1240 O1271 2.503 . S
La1241 C1251 2.928 . S
La1241 O1263 2.482 . S
La1241 O1265 2.503 . S
La1241 O1266 2.521 . S
La1241 O1267 2.628 . S
La1241 O1268 2.554 . S
La1241 O1269 2.757 . S
La1241 O1270 2.470 . S
C1242 La1240 2.928 . S
C1242 C1243 1.503 . S
C1242 O1260 1.261 . S
C1242 O1261 1.243 . S
C1243 C1242 1.503 . S
C1243 C1244 1.394 . S
C1243 C1248 1.373 . S
C1244 C1243 1.394 . S
C1244 C1245 1.380 . S
C1244 H1272 0.930 . S
C1245 C1244 1.380 . S
C1245 C1246 1.376 . S
C1245 H1273 0.930 . S
C1246 C1245 1.376 . S
C1246 C1247 1.370 . S
C1247 C1246 1.370 . S
C1247 C1248 1.396 . S
C1247 H1274 0.929 . S
C1248 C1243 1.373 . S
C1248 C1247 1.396 . S
C1248 H1275 0.929 . S
C1249 O1262 1.240 . S
C1249 O1263 1.289 . S
C1250 O1264 1.258 . S
C1250 O1265 1.256 . S
C1251 La1241 2.928 . S
C1251 C1252 1.503 . S
C1251 O1266 1.261 . S
C1251 O1267 1.243 . S
C1252 C1251 1.503 . S
C1252 C1253 1.394 . S
C1252 C1257 1.373 . S
C1253 C1252 1.394 . S
C1253 C1254 1.380 . S
C1253 H1276 0.930 . S
C1254 C1253 1.380 . S
C1254 C1255 1.376 . S
C1254 H1277 0.930 . S
C1255 C1254 1.376 . S
C1255 C1256 1.370 . S
C1256 C1255 1.370 . S
C1256 C1257 1.396 . S
C1256 H1278 0.929 . S
C1257 C1252 1.373 . S
C1257 C1256 1.396 . S
C1257 H1279 0.929 . S
C1258 O1268 1.240 . S
C1258 O1269 1.289 . S
C1259 O1270 1.258 . S
C1259 O1271 1.256 . S
O1260 La1240 2.521 . S
O1260 C1242 1.261 . S
O1261 La1240 2.628 . S
O1261 C1242 1.243 . S
O1262 La1240 2.554 . S
O1262 C1249 1.240 . S
O1263 La1240 2.757 . S
O1263 La1241 2.482 . S
O1263 C1249 1.289 . S
O1264 La1240 2.470 . S
O1264 C1250 1.258 . S
O1265 La1241 2.503 . S
O1265 C1250 1.256 . S
O1266 La1241 2.521 . S
O1266 C1251 1.261 . S
O1267 La1241 2.628 . S
O1267 C1251 1.243 . S
O1268 La1241 2.554 . S
O1268 C1258 1.240 . S
O1269 La1240 2.482 . S
O1269 La1241 2.757 . S
O1269 C1258 1.289 . S
O1270 La1241 2.470 . S
O1270 C1259 1.258 . S
O1271 La1240 2.503 . S
O1271 C1259 1.256 . S
H1272 C1244 0.930 . S
H1273 C1245 0.930 . S
H1274 C1247 0.929 . S
H1275 C1248 0.929 . S
H1276 C1253 0.930 . S
H1277 C1254 0.930 . S
H1278 C1256 0.929 . S
H1279 C1257 0.929 . S
La1280 C1282 2.928 . S
La1280 O1300 2.521 . S
La1280 O1301 2.628 . S
La1280 O1302 2.554 . S
La1280 O1303 2.757 . S
La1280 O1304 2.470 . S
La1280 O1309 2.482 . S
La1280 O1311 2.503 . S
La1281 C1291 2.928 . S
La1281 O1303 2.482 . S
La1281 O1305 2.503 . S
La1281 O1306 2.521 . S
La1281 O1307 2.628 . S
La1281 O1308 2.554 . S
La1281 O1309 2.757 . S
La1281 O1310 2.470 . S
C1282 La1280 2.928 . S
C1282 C1283 1.503 . S
C1282 O1300 1.261 . S
C1282 O1301 1.243 . S
C1283 C1282 1.503 . S
C1283 C1284 1.394 . S
C1283 C1288 1.373 . S
C1284 C1283 1.394 . S
C1284 C1285 1.380 . S
C1284 H1312 0.930 . S
C1285 C1284 1.380 . S
C1285 C1286 1.376 . S
C1285 H1313 0.930 . S
C1286 C1285 1.376 . S
C1286 C1287 1.370 . S
C1287 C1286 1.370 . S
C1287 C1288 1.396 . S
C1287 H1314 0.929 . S
C1288 C1283 1.373 . S
C1288 C1287 1.396 . S
C1288 H1315 0.929 . S
C1289 O1302 1.240 . S
C1289 O1303 1.289 . S
C1290 O1304 1.258 . S
C1290 O1305 1.256 . S
C1291 La1281 2.928 . S
C1291 C1292 1.503 . S
C1291 O1306 1.261 . S
C1291 O1307 1.243 . S
C1292 C1291 1.503 . S
C1292 C1293 1.394 . S
C1292 C1297 1.373 . S
C1293 C1292 1.394 . S
C1293 C1294 1.380 . S
C1293 H1316 0.930 . S
C1294 C1293 1.380 . S
C1294 C1295 1.376 . S
C1294 H1317 0.930 . S
C1295 C1294 1.376 . S
C1295 C1296 1.370 . S
C1296 C1295 1.370 . S
C1296 C1297 1.396 . S
C1296 H1318 0.929 . S
C1297 C1292 1.373 . S
C1297 C1296 1.396 . S
C1297 H1319 0.929 . S
C1298 O1308 1.240 . S
C1298 O1309 1.289 . S
C1299 O1310 1.258 . S
C1299 O1311 1.256 . S
O1300 La1280 2.521 . S
O1300 C1282 1.261 . S
O1301 La1280 2.628 . S
O1301 C1282 1.243 . S
O1302 La1280 2.554 . S
O1302 C1289 1.240 . S
O1303 La1280 2.757 . S
O1303 La1281 2.482 . S
O1303 C1289 1.289 . S
O1304 La1280 2.470 . S
O1304 C1290 1.258 . S
O1305 La1281 2.503 . S
O1305 C1290 1.256 . S
O1306 La1281 2.521 . S
O1306 C1291 1.261 . S
O1307 La1281 2.628 . S
O1307 C1291 1.243 . S
O1308 La1281 2.554 . S
O1308 C1298 1.240 . S
O1309 La1280 2.482 . S
O1309 La1281 2.757 . S
O1309 C1298 1.289 . S
O1310 La1281 2.470 . S
O1310 C1299 1.258 . S
O1311 La1280 2.503 . S
O1311 C1299 1.256 . S
H1312 C1284 0.930 . S
H1313 C1285 0.930 . S
H1314 C1287 0.929 . S
H1315 C1288 0.929 . S
H1316 C1293 0.930 . S
H1317 C1294 0.930 . S
H1318 C1296 0.929 . S
H1319 C1297 0.929 . S
La1320 C1322 2.928 . S
La1320 O1340 2.521 . S
La1320 O1341 2.628 . S
La1320 O1342 2.554 . S
La1320 O1343 2.757 . S
La1320 O1344 2.470 . S
La1320 O1349 2.482 . S
La1320 O1351 2.503 . S
La1321 C1331 2.928 . S
La1321 O1343 2.482 . S
La1321 O1345 2.503 . S
La1321 O1346 2.521 . S
La1321 O1347 2.628 . S
La1321 O1348 2.554 . S
La1321 O1349 2.757 . S
La1321 O1350 2.470 . S
C1322 La1320 2.928 . S
C1322 C1323 1.503 . S
C1322 O1340 1.261 . S
C1322 O1341 1.243 . S
C1323 C1322 1.503 . S
C1323 C1324 1.394 . S
C1323 C1328 1.373 . S
C1324 C1323 1.394 . S
C1324 C1325 1.380 . S
C1324 H1352 0.930 . S
C1325 C1324 1.380 . S
C1325 C1326 1.376 . S
C1325 H1353 0.930 . S
C1326 C1325 1.376 . S
C1326 C1327 1.370 . S
C1327 C1326 1.370 . S
C1327 C1328 1.396 . S
C1327 H1354 0.929 . S
C1328 C1323 1.373 . S
C1328 C1327 1.396 . S
C1328 H1355 0.929 . S
C1329 O1342 1.240 . S
C1329 O1343 1.289 . S
C1330 O1344 1.258 . S
C1330 O1345 1.256 . S
C1331 La1321 2.928 . S
C1331 C1332 1.503 . S
C1331 O1346 1.261 . S
C1331 O1347 1.243 . S
C1332 C1331 1.503 . S
C1332 C1333 1.394 . S
C1332 C1337 1.373 . S
C1333 C1332 1.394 . S
C1333 C1334 1.380 . S
C1333 H1356 0.930 . S
C1334 C1333 1.380 . S
C1334 C1335 1.376 . S
C1334 H1357 0.930 . S
C1335 C1334 1.376 . S
C1335 C1336 1.370 . S
C1336 C1335 1.370 . S
C1336 C1337 1.396 . S
C1336 H1358 0.929 . S
C1337 C1332 1.373 . S
C1337 C1336 1.396 . S
C1337 H1359 0.929 . S
C1338 O1348 1.240 . S
C1338 O1349 1.289 . S
C1339 O1350 1.258 . S
C1339 O1351 1.256 . S
O1340 La1320 2.521 . S
O1340 C1322 1.261 . S
O1341 La1320 2.628 . S
O1341 C1322 1.243 . S
O1342 La1320 2.554 . S
O1342 C1329 1.240 . S
O1343 La1320 2.757 . S
O1343 La1321 2.482 . S
O1343 C1329 1.289 . S
O1344 La1320 2.470 . S
O1344 C1330 1.258 . S
O1345 La1321 2.503 . S
O1345 C1330 1.256 . S
O1346 La1321 2.521 . S
O1346 C1331 1.261 . S
O1347 La1321 2.628 . S
O1347 C1331 1.243 . S
O1348 La1321 2.554 . S
O1348 C1338 1.240 . S
O1349 La1320 2.482 . S
O1349 La1321 2.757 . S
O1349 C1338 1.289 . S
O1350 La1321 2.470 . S
O1350 C1339 1.258 . S
O1351 La1320 2.503 . S
O1351 C1339 1.256 . S
H1352 C1324 0.930 . S
H1353 C1325 0.930 . S
H1354 C1327 0.929 . S
H1355 C1328 0.929 . S
H1356 C1333 0.930 . S
H1357 C1334 0.930 . S
H1358 C1336 0.929 . S
H1359 C1337 0.929 . S
La1360 C1362 2.928 . S
La1360 O1380 2.521 . S
La1360 O1381 2.628 . S
La1360 O1382 2.554 . S
La1360 O1383 2.757 . S
La1360 O1384 2.470 . S
La1360 O1389 2.482 . S
La1360 O1391 2.503 . S
La1361 C1371 2.928 . S
La1361 O1383 2.482 . S
La1361 O1385 2.503 . S
La1361 O1386 2.521 . S
La1361 O1387 2.628 . S
La1361 O1388 2.554 . S
La1361 O1389 2.757 . S
La1361 O1390 2.470 . S
C1362 La1360 2.928 . S
C1362 C1363 1.503 . S
C1362 O1380 1.261 . S
C1362 O1381 1.243 . S
C1363 C1362 1.503 . S
C1363 C1364 1.394 . S
C1363 C1368 1.373 . S
C1364 C1363 1.394 . S
C1364 C1365 1.380 . S
C1364 H1392 0.930 . S
C1365 C1364 1.380 . S
C1365 C1366 1.376 . S
C1365 H1393 0.930 . S
C1366 C1365 1.376 . S
C1366 C1367 1.370 . S
C1367 C1366 1.370 . S
C1367 C1368 1.396 . S
C1367 H1394 0.929 . S
C1368 C1363 1.373 . S
C1368 C1367 1.396 . S
C1368 H1395 0.929 . S
C1369 O1382 1.240 . S
C1369 O1383 1.289 . S
C1370 O1384 1.258 . S
C1370 O1385 1.256 . S
C1371 La1361 2.928 . S
C1371 C1372 1.503 . S
C1371 O1386 1.261 . S
C1371 O1387 1.243 . S
C1372 C1371 1.503 . S
C1372 C1373 1.394 . S
C1372 C1377 1.373 . S
C1373 C1372 1.394 . S
C1373 C1374 1.380 . S
C1373 H1396 0.930 . S
C1374 C1373 1.380 . S
C1374 C1375 1.376 . S
C1374 H1397 0.930 . S
C1375 C1374 1.376 . S
C1375 C1376 1.370 . S
C1376 C1375 1.370 . S
C1376 C1377 1.396 . S
C1376 H1398 0.929 . S
C1377 C1372 1.373 . S
C1377 C1376 1.396 . S
C1377 H1399 0.929 . S
C1378 O1388 1.240 . S
C1378 O1389 1.289 . S
C1379 O1390 1.258 . S
C1379 O1391 1.256 . S
O1380 La1360 2.521 . S
O1380 C1362 1.261 . S
O1381 La1360 2.628 . S
O1381 C1362 1.243 . S
O1382 La1360 2.554 . S
O1382 C1369 1.240 . S
O1383 La1360 2.757 . S
O1383 La1361 2.482 . S
O1383 C1369 1.289 . S
O1384 La1360 2.470 . S
O1384 C1370 1.258 . S
O1385 La1361 2.503 . S
O1385 C1370 1.256 . S
O1386 La1361 2.521 . S
O1386 C1371 1.261 . S
O1387 La1361 2.628 . S
O1387 C1371 1.243 . S
O1388 La1361 2.554 . S
O1388 C1378 1.240 . S
O1389 La1360 2.482 . S
O1389 La1361 2.757 . S
O1389 C1378 1.289 . S
O1390 La1361 2.470 . S
O1390 C1379 1.258 . S
O1391 La1360 2.503 . S
O1391 C1379 1.256 . S
H1392 C1364 0.930 . S
H1393 C1365 0.930 . S
H1394 C1367 0.929 . S
H1395 C1368 0.929 . S
H1396 C1373 0.930 . S
H1397 C1374 0.930 . S
H1398 C1376 0.929 . S
H1399 C1377 0.929 . S
La1400 C1402 2.928 . S
La1400 O1420 2.521 . S
La1400 O1421 2.628 . S
La1400 O1422 2.554 . S
La1400 O1423 2.757 . S
La1400 O1424 2.470 . S
La1400 O1429 2.482 . S
La1400 O1431 2.503 . S
La1401 C1411 2.928 . S
La1401 O1423 2.482 . S
La1401 O1425 2.503 . S
La1401 O1426 2.521 . S
La1401 O1427 2.628 . S
La1401 O1428 2.554 . S
La1401 O1429 2.757 . S
La1401 O1430 2.470 . S
C1402 La1400 2.928 . S
C1402 C1403 1.503 . S
C1402 O1420 1.261 . S
C1402 O1421 1.243 . S
C1403 C1402 1.503 . S
C1403 C1404 1.394 . S
C1403 C1408 1.373 . S
C1404 C1403 1.394 . S
C1404 C1405 1.380 . S
C1404 H1432 0.930 . S
C1405 C1404 1.380 . S
C1405 C1406 1.376 . S
C1405 H1433 0.930 . S
C1406 C1405 1.376 . S
C1406 C1407 1.370 . S
C1407 C1406 1.370 . S
C1407 C1408 1.396 . S
C1407 H1434 0.929 . S
C1408 C1403 1.373 . S
C1408 C1407 1.396 . S
C1408 H1435 0.929 . S
C1409 O1422 1.240 . S
C1409 O1423 1.289 . S
C1410 O1424 1.258 . S
C1410 O1425 1.256 . S
C1411 La1401 2.928 . S
C1411 C1412 1.503 . S
C1411 O1426 1.261 . S
C1411 O1427 1.243 . S
C1412 C1411 1.503 . S
C1412 C1413 1.394 . S
C1412 C1417 1.373 . S
C1413 C1412 1.394 . S
C1413 C1414 1.380 . S
C1413 H1436 0.930 . S
C1414 C1413 1.380 . S
C1414 C1415 1.376 . S
C1414 H1437 0.930 . S
C1415 C1414 1.376 . S
C1415 C1416 1.370 . S
C1416 C1415 1.370 . S
C1416 C1417 1.396 . S
C1416 H1438 0.929 . S
C1417 C1412 1.373 . S
C1417 C1416 1.396 . S
C1417 H1439 0.929 . S
C1418 O1428 1.240 . S
C1418 O1429 1.289 . S
C1419 O1430 1.258 . S
C1419 O1431 1.256 . S
O1420 La1400 2.521 . S
O1420 C1402 1.261 . S
O1421 La1400 2.628 . S
O1421 C1402 1.243 . S
O1422 La1400 2.554 . S
O1422 C1409 1.240 . S
O1423 La1400 2.757 . S
O1423 La1401 2.482 . S
O1423 C1409 1.289 . S
O1424 La1400 2.470 . S
O1424 C1410 1.258 . S
O1425 La1401 2.503 . S
O1425 C1410 1.256 . S
O1426 La1401 2.521 . S
O1426 C1411 1.261 . S
O1427 La1401 2.628 . S
O1427 C1411 1.243 . S
O1428 La1401 2.554 . S
O1428 C1418 1.240 . S
O1429 La1400 2.482 . S
O1429 La1401 2.757 . S
O1429 C1418 1.289 . S
O1430 La1401 2.470 . S
O1430 C1419 1.258 . S
O1431 La1400 2.503 . S
O1431 C1419 1.256 . S
H1432 C1404 0.930 . S
H1433 C1405 0.930 . S
H1434 C1407 0.929 . S
H1435 C1408 0.929 . S
H1436 C1413 0.930 . S
H1437 C1414 0.930 . S
H1438 C1416 0.929 . S
H1439 C1417 0.929 . S
C1440 C1441 1.387 . S
C1440 H1444 0.950 . S
C1440 C1449 1.390 1_545 S
C1441 C1440 1.387 . S
C1441 C1443 1.387 . S
H1442 C1449 0.950 . S
C1443 C1441 1.387 . S
C1443 C1445 1.390 1_545 S
C1443 H1447 0.950 . S
H1444 C1440 0.950 . S
C1445 C1443 1.390 1_565 S
C1445 C1446 1.387 1_554 S
C1445 H1448 0.950 1_554 S
C1446 C1445 1.387 1_556 S
C1446 C1449 1.386 1_556 S
H1447 C1443 0.950 . S
H1448 C1445 0.950 1_556 S
C1449 C1440 1.390 1_565 S
C1449 H1442 0.950 . S
C1449 C1446 1.386 1_554 S
C1450 C1451 1.382 1_554 S
C1450 H1454 0.950 . S
C1450 C1459 1.390 1_455 S
C1451 C1450 1.382 1_556 S
C1451 C1453 1.390 . S
H1452 C1459 0.950 . S
C1453 C1451 1.390 . S
C1453 C1455 1.389 1_456 S
C1453 H1457 0.950 . S
H1454 C1450 0.950 . S
C1455 C1453 1.389 1_654 S
C1455 C1456 1.389 . S
C1455 H1458 0.949 1_554 S
C1456 C1455 1.389 . S
C1456 C1459 1.387 . S
H1457 C1453 0.950 . S
H1458 C1455 0.949 1_556 S
C1459 C1450 1.390 1_655 S
C1459 H1452 0.950 . S
C1459 C1456 1.387 . S
C1460 C1461 1.388 . S
C1460 H1464 0.950 . S
C1460 C1469 1.390 1_556 S
C1461 C1460 1.388 . S
C1461 C1463 1.385 1_556 S
H1462 C1469 0.950 . S
C1463 C1461 1.385 1_554 S
C1463 C1465 1.390 . S
C1463 H1467 0.950 . S
H1464 C1460 0.950 . S
C1465 C1463 1.390 . S
C1465 C1466 1.387 . S
C1465 H1468 0.950 . S
C1466 C1465 1.387 . S
C1466 C1469 1.387 . S
H1467 C1463 0.950 . S
H1468 C1465 0.950 . S
C1469 C1460 1.390 1_554 S
C1469 H1462 0.950 . S
C1469 C1466 1.387 . S
C1470 C1471 1.389 . S
C1470 H1474 0.923 . S
C1470 C1479 1.386 1_655 S
C1471 C1470 1.389 . S
C1471 C1473 1.387 . S
H1472 C1479 0.950 . S
C1473 C1471 1.387 . S
C1473 C1475 1.390 1_655 S
C1473 H1477 0.950 . S
H1474 C1470 0.923 . S
C1475 C1473 1.390 1_455 S
C1475 C1476 1.387 . S
C1475 H1478 0.950 . S
C1476 C1475 1.387 . S
C1476 C1479 1.387 . S
H1477 C1473 0.950 . S
H1478 C1475 0.950 . S
C1479 C1470 1.386 1_455 S
C1479 H1472 0.950 . S
C1479 C1476 1.387 . S
C1480 C1481 1.387 . S
C1480 H1484 0.950 . S
C1480 C1489 1.390 . S
C1481 C1480 1.387 . S
C1481 C1483 1.387 . S
H1482 C1489 0.950 . S
C1483 C1481 1.387 . S
C1483 C1485 1.390 . S
C1483 H1487 0.950 . S
H1484 C1480 0.950 . S
C1485 C1483 1.390 . S
C1485 C1486 1.387 . S
C1485 H1488 0.950 . S
C1486 C1485 1.387 . S
C1486 C1489 1.387 . S
H1487 C1483 0.950 . S
H1488 C1485 0.950 . S
C1489 C1480 1.390 . S
C1489 H1482 0.950 . S
C1489 C1486 1.387 . S
C1490 C1491 1.415 . S
C1490 H1494 0.944 . S
C1490 C1499 1.370 1_565 S
C1491 C1490 1.415 . S
C1491 C1493 1.387 . S
H1492 C1499 0.950 . S
C1493 C1491 1.387 . S
C1493 C1495 1.390 . S
C1493 H1497 0.950 . S
H1494 C1490 0.944 . S
C1495 C1493 1.390 . S
C1495 C1496 1.387 1_565 S
C1495 H1498 0.950 . S
C1496 C1495 1.387 1_545 S
C1496 C1499 1.387 . S
H1497 C1493 0.950 . S
H1498 C1495 0.950 . S
C1499 C1490 1.370 1_545 S
C1499 H1492 0.950 . S
C1499 C1496 1.387 . S
C1500 C1501 1.383 1_556 S
C1500 H1504 0.950 . S
C1500 C1509 1.361 1_545 S
C1501 C1500 1.383 1_554 S
C1501 C1503 1.390 1_545 S
H1502 C1509 0.955 . S
C1503 C1501 1.390 1_565 S
C1503 C1505 1.390 1_554 S
C1503 H1507 0.950 . S
H1504 C1500 0.950 . S
C1505 C1503 1.390 1_556 S
C1505 C1506 1.387 . S
C1505 H1508 0.950 1_556 S
C1506 C1505 1.387 . S
C1506 C1509 1.409 . S
H1507 C1503 0.950 . S
H1508 C1505 0.950 1_554 S
C1509 C1500 1.361 1_565 S
C1509 H1502 0.955 . S
C1509 C1506 1.409 . S
C1510 C1511 1.438 . S
C1510 H1514 0.947 . S
C1510 C1519 1.358 1_455 S
C1511 C1510 1.438 . S
C1511 C1513 1.387 . S
H1512 C1519 0.950 . S
C1513 C1511 1.387 . S
C1513 C1515 1.390 1_556 S
C1513 H1517 0.950 1_556 S
H1514 C1510 0.947 . S
C1515 C1513 1.390 1_554 S
C1515 C1516 1.389 1_455 S
C1515 H1518 0.950 . S
C1516 C1515 1.389 1_655 S
C1516 C1519 1.384 1_554 S
H1517 C1513 0.950 1_554 S
H1518 C1515 0.950 . S
C1519 C1510 1.358 1_655 S
C1519 H1512 0.950 . S
C1519 C1516 1.384 1_556 S
C1520 C1521 1.383 1_556 S
C1520 H1524 0.950 . S
C1520 C1529 1.390 . S
C1521 C1520 1.383 1_554 S
C1521 C1523 1.389 . S
H1522 C1529 0.950 . S
C1523 C1521 1.389 . S
C1523 C1525 1.390 1_554 S
C1523 H1527 0.950 . S
H1524 C1520 0.950 . S
C1525 C1523 1.390 1_556 S
C1525 C1526 1.387 . S
C1525 H1528 0.950 1_556 S
C1526 C1525 1.387 . S
C1526 C1529 1.387 . S
H1527 C1523 0.950 . S
H1528 C1525 0.950 1_554 S
C1529 C1520 1.390 . S
C1529 H1522 0.950 . S
C1529 C1526 1.387 . S
C1530 C1531 1.387 . S
C1530 H1534 0.950 . S
C1530 C1539 1.390 1_455 S
C1531 C1530 1.387 . S
C1531 C1533 1.381 1_455 S
H1532 C1539 0.950 . S
C1533 C1531 1.381 1_655 S
C1533 C1535 1.397 . S
C1533 H1537 0.949 1_655 S
H1534 C1530 0.950 . S
C1535 C1533 1.397 . S
C1535 C1536 1.387 . S
C1535 H1538 0.950 . S
C1536 C1535 1.387 . S
C1536 C1539 1.387 . S
H1537 C1533 0.949 1_455 S
H1538 C1535 0.950 . S
C1539 C1530 1.390 1_655 S
C1539 H1532 0.950 . S
C1539 C1536 1.387 . S
C1540 C1541 1.387 . S
C1540 H1544 0.950 . S
C1540 C1549 1.390 . S
C1541 C1540 1.387 . S
C1541 C1543 1.387 . S
H1542 C1549 0.950 . S
C1543 C1541 1.387 . S
C1543 C1545 1.390 . S
C1543 H1547 0.950 . S
H1544 C1540 0.950 . S
C1545 C1543 1.390 . S
C1545 C1546 1.387 . S
C1545 H1548 0.950 . S
C1546 C1545 1.387 . S
C1546 C1549 1.387 . S
H1547 C1543 0.950 . S
H1548 C1545 0.950 . S
C1549 C1540 1.390 . S
C1549 H1542 0.950 . S
C1549 C1546 1.387 . S
C1550 C1551 1.425 . S
C1550 H1554 0.948 . S
C1550 C1559 1.361 1_545 S
C1551 C1550 1.425 . S
C1551 C1553 1.387 . S
H1552 C1559 0.950 . S
C1553 C1551 1.387 . S
C1553 C1555 1.390 . S
C1553 H1557 0.950 . S
H1554 C1550 0.948 . S
C1555 C1553 1.390 . S
C1555 C1556 1.387 1_545 S
C1555 H1558 0.950 . S
C1556 C1555 1.387 1_565 S
C1556 C1559 1.387 . S
H1557 C1553 0.950 . S
H1558 C1555 0.950 . S
C1559 C1550 1.361 1_565 S
C1559 H1552 0.950 . S
C1559 C1556 1.387 . S
C1560 C1561 1.387 . S
C1560 H1564 0.950 . S
C1560 C1569 1.390 . S
C1561 C1560 1.387 . S
C1561 C1563 1.387 . S
H1562 C1569 0.950 . S
C1563 C1561 1.387 . S
C1563 C1565 1.390 . S
C1563 H1567 0.950 . S
H1564 C1560 0.950 . S
C1565 C1563 1.390 . S
C1565 C1566 1.387 . S
C1565 H1568 0.950 . S
C1566 C1565 1.387 . S
C1566 C1569 1.387 . S
H1567 C1563 0.950 . S
H1568 C1565 0.950 . S
C1569 C1560 1.390 . S
C1569 H1562 0.950 . S
C1569 C1566 1.387 . S
C1570 C1571 1.387 . S
C1570 H1574 0.950 . S
C1570 C1579 1.390 . S
C1571 C1570 1.387 . S
C1571 C1573 1.387 . S
H1572 C1579 0.950 . S
C1573 C1571 1.387 . S
C1573 C1575 1.390 . S
C1573 H1577 0.950 . S
H1574 C1570 0.950 . S
C1575 C1573 1.390 . S
C1575 C1576 1.387 . S
C1575 H1578 0.950 . S
C1576 C1575 1.387 . S
C1576 C1579 1.387 . S
H1577 C1573 0.950 . S
H1578 C1575 0.950 . S
C1579 C1570 1.390 . S
C1579 H1572 0.950 . S
C1579 C1576 1.387 . S
C1580 C1581 1.387 . S
C1580 H1584 0.950 . S
C1580 C1589 1.390 . S
C1581 C1580 1.387 . S
C1581 C1583 1.387 . S
H1582 C1589 0.950 . S
C1583 C1581 1.387 . S
C1583 C1585 1.390 . S
C1583 H1587 0.950 . S
H1584 C1580 0.950 . S
C1585 C1583 1.390 . S
C1585 C1586 1.387 . S
C1585 H1588 0.950 . S
C1586 C1585 1.387 . S
C1586 C1589 1.387 . S
H1587 C1583 0.950 . S
H1588 C1585 0.950 . S
C1589 C1580 1.390 . S
C1589 H1582 0.950 . S
C1589 C1586 1.387 . S
C1590 C1591 1.387 . S
C1590 H1594 0.950 . S
C1590 C1599 1.390 . S
C1591 C1590 1.387 . S
C1591 C1593 1.387 . S
H1592 C1599 0.950 . S
C1593 C1591 1.387 . S
C1593 C1595 1.390 . S
C1593 H1597 0.950 . S
H1594 C1590 0.950 . S
C1595 C1593 1.390 . S
C1595 C1596 1.387 . S
C1595 H1598 0.950 . S
C1596 C1595 1.387 . S
C1596 C1599 1.387 . S
H1597 C1593 0.950 . S
H1598 C1595 0.950 . S
C1599 C1590 1.390 . S
C1599 H1592 0.950 . S
C1599 C1596 1.387 . S
C1600 C1601 1.387 . S
C1600 H1604 0.950 . S
C1600 C1609 1.390 . S
C1601 C1600 1.387 . S
C1601 C1603 1.387 . S
H1602 C1609 0.950 . S
C1603 C1601 1.387 . S
C1603 C1605 1.390 . S
C1603 H1607 0.950 . S
H1604 C1600 0.950 . S
C1605 C1603 1.390 . S
C1605 C1606 1.387 . S
C1605 H1608 0.950 . S
C1606 C1605 1.387 . S
C1606 C1609 1.387 . S
H1607 C1603 0.950 . S
H1608 C1605 0.950 . S
C1609 C1600 1.390 . S
C1609 H1602 0.950 . S
C1609 C1606 1.387 . S
C1610 C1611 1.387 . S
C1610 H1614 0.950 . S
C1610 C1619 1.390 . S
C1611 C1610 1.387 . S
C1611 C1613 1.387 . S
H1612 C1619 0.950 . S
C1613 C1611 1.387 . S
C1613 C1615 1.390 . S
C1613 H1617 0.950 . S
H1614 C1610 0.950 . S
C1615 C1613 1.390 . S
C1615 C1616 1.387 . S
C1615 H1618 0.950 . S
C1616 C1615 1.387 . S
C1616 C1619 1.387 . S
H1617 C1613 0.950 . S
H1618 C1615 0.950 . S
C1619 C1610 1.390 . S
C1619 H1612 0.950 . S
C1619 C1616 1.387 . S
C1620 C1621 1.387 . S
C1620 H1624 0.950 . S
C1620 C1629 1.390 . S
C1621 C1620 1.387 . S
C1621 C1623 1.387 . S
H1622 C1629 0.950 . S
C1623 C1621 1.387 . S
C1623 C1625 1.390 . S
C1623 H1627 0.950 . S
H1624 C1620 0.950 . S
C1625 C1623 1.390 . S
C1625 C1626 1.387 . S
C1625 H1628 0.950 . S
C1626 C1625 1.387 . S
C1626 C1629 1.387 . S
H1627 C1623 0.950 . S
H1628 C1625 0.950 . S
C1629 C1620 1.390 . S
C1629 H1622 0.950 . S
C1629 C1626 1.387 . S
C1630 C1631 1.387 . S
C1630 H1634 0.950 . S
C1630 C1639 1.390 . S
C1631 C1630 1.387 . S
C1631 C1633 1.387 . S
H1632 C1639 0.950 . S
C1633 C1631 1.387 . S
C1633 C1635 1.390 . S
C1633 H1637 0.950 . S
H1634 C1630 0.950 . S
C1635 C1633 1.390 . S
C1635 C1636 1.387 . S
C1635 H1638 0.950 . S
C1636 C1635 1.387 . S
C1636 C1639 1.387 . S
H1637 C1633 0.950 . S
H1638 C1635 0.950 . S
C1639 C1630 1.390 . S
C1639 H1632 0.950 . S
C1639 C1636 1.387 . S
C1640 C1641 1.387 . S
C1640 H1644 0.950 . S
C1640 C1649 1.390 . S
C1641 C1640 1.387 . S
C1641 C1643 1.387 . S
H1642 C1649 0.950 . S
C1643 C1641 1.387 . S
C1643 C1645 1.390 . S
C1643 H1647 0.950 . S
H1644 C1640 0.950 . S
C1645 C1643 1.390 . S
C1645 C1646 1.387 . S
C1645 H1648 0.950 . S
C1646 C1645 1.387 . S
C1646 C1649 1.387 . S
H1647 C1643 0.950 . S
H1648 C1645 0.950 . S
C1649 C1640 1.390 . S
C1649 H1642 0.950 . S
C1649 C1646 1.387 . S
C1650 C1651 1.387 . S
C1650 H1654 0.950 . S
C1650 C1659 1.390 . S
C1651 C1650 1.387 . S
C1651 C1653 1.387 . S
H1652 C1659 0.950 . S
C1653 C1651 1.387 . S
C1653 C1655 1.390 . S
C1653 H1657 0.950 . S
H1654 C1650 0.950 . S
C1655 C1653 1.390 . S
C1655 C1656 1.387 . S
C1655 H1658 0.950 . S
C1656 C1655 1.387 . S
C1656 C1659 1.387 . S
H1657 C1653 0.950 . S
H1658 C1655 0.950 . S
C1659 C1650 1.390 . S
C1659 H1652 0.950 . S
C1659 C1656 1.387 . S
C1660 C1661 1.387 . S
C1660 H1664 0.950 . S
C1660 C1669 1.390 . S
C1661 C1660 1.387 . S
C1661 C1663 1.387 . S
H1662 C1669 0.950 . S
C1663 C1661 1.387 . S
C1663 C1665 1.390 . S
C1663 H1667 0.950 . S
H1664 C1660 0.950 . S
C1665 C1663 1.390 . S
C1665 C1666 1.387 . S
C1665 H1668 0.950 . S
C1666 C1665 1.387 . S
C1666 C1669 1.387 . S
H1667 C1663 0.950 . S
H1668 C1665 0.950 . S
C1669 C1660 1.390 . S
C1669 H1662 0.950 . S
C1669 C1666 1.387 . S
C1670 C1671 1.387 . S
C1670 H1674 0.950 . S
C1670 C1679 1.390 . S
C1671 C1670 1.387 . S
C1671 C1673 1.387 . S
H1672 C1679 0.950 . S
C1673 C1671 1.387 . S
C1673 C1675 1.390 . S
C1673 H1677 0.950 . S
H1674 C1670 0.950 . S
C1675 C1673 1.390 . S
C1675 C1676 1.387 . S
C1675 H1678 0.950 . S
C1676 C1675 1.387 . S
C1676 C1679 1.387 . S
H1677 C1673 0.950 . S
H1678 C1675 0.950 . S
C1679 C1670 1.390 . S
C1679 H1672 0.950 . S
C1679 C1676 1.387 . S
C1680 C1681 1.387 . S
C1680 H1684 0.950 . S
C1680 C1689 1.390 . S
C1681 C1680 1.387 . S
C1681 C1683 1.387 . S
H1682 C1689 0.950 . S
C1683 C1681 1.387 . S
C1683 C1685 1.390 . S
C1683 H1687 0.950 . S
H1684 C1680 0.950 . S
C1685 C1683 1.390 . S
C1685 C1686 1.387 . S
C1685 H1688 0.950 . S
C1686 C1685 1.387 . S
C1686 C1689 1.387 . S
H1687 C1683 0.950 . S
H1688 C1685 0.950 . S
C1689 C1680 1.390 . S
C1689 H1682 0.950 . S
C1689 C1686 1.387 . S
C1690 C1691 1.387 . S
C1690 H1694 0.950 . S
C1690 C1699 1.390 . S
C1691 C1690 1.387 . S
C1691 C1693 1.387 . S
H1692 C1699 0.950 . S
C1693 C1691 1.387 . S
C1693 C1695 1.390 . S
C1693 H1697 0.950 . S
H1694 C1690 0.950 . S
C1695 C1693 1.390 . S
C1695 C1696 1.387 . S
C1695 H1698 0.950 . S
C1696 C1695 1.387 . S
C1696 C1699 1.387 . S
H1697 C1693 0.950 . S
H1698 C1695 0.950 . S
C1699 C1690 1.390 . S
C1699 H1692 0.950 . S
C1699 C1696 1.387 . S
C1700 C1701 1.387 . S
C1700 H1704 0.950 . S
C1700 C1709 1.390 . S
C1701 C1700 1.387 . S
C1701 C1703 1.387 . S
H1702 C1709 0.950 . S
C1703 C1701 1.387 . S
C1703 C1705 1.390 . S
C1703 H1707 0.950 . S
H1704 C1700 0.950 . S
C1705 C1703 1.390 . S
C1705 C1706 1.387 . S
C1705 H1708 0.950 . S
C1706 C1705 1.387 . S
C1706 C1709 1.387 . S
H1707 C1703 0.950 . S
H1708 C1705 0.950 . S
C1709 C1700 1.390 . S
C1709 H1702 0.950 . S
C1709 C1706 1.387 . S
C1710 C1711 1.387 . S
C1710 H1714 0.950 . S
C1710 C1719 1.390 . S
C1711 C1710 1.387 . S
C1711 C1713 1.387 . S
H1712 C1719 0.950 . S
C1713 C1711 1.387 . S
C1713 C1715 1.390 . S
C1713 H1717 0.950 . S
H1714 C1710 0.950 . S
C1715 C1713 1.390 . S
C1715 C1716 1.387 . S
C1715 H1718 0.950 . S
C1716 C1715 1.387 . S
C1716 C1719 1.387 . S
H1717 C1713 0.950 . S
H1718 C1715 0.950 . S
C1719 C1710 1.390 . S
C1719 H1712 0.950 . S
C1719 C1716 1.387 . S
C1720 C1721 1.387 . S
C1720 H1724 0.950 . S
C1720 C1729 1.390 . S
C1721 C1720 1.387 . S
C1721 C1723 1.387 . S
H1722 C1729 0.950 . S
C1723 C1721 1.387 . S
C1723 C1725 1.390 . S
C1723 H1727 0.950 . S
H1724 C1720 0.950 . S
C1725 C1723 1.390 . S
C1725 C1726 1.387 . S
C1725 H1728 0.950 . S
C1726 C1725 1.387 . S
C1726 C1729 1.387 . S
H1727 C1723 0.950 . S
H1728 C1725 0.950 . S
C1729 C1720 1.390 . S
C1729 H1722 0.950 . S
C1729 C1726 1.387 . S
C1730 C1731 1.387 . S
C1730 H1734 0.950 . S
C1730 C1739 1.390 . S
C1731 C1730 1.387 . S
C1731 C1733 1.387 . S
H1732 C1739 0.950 . S
C1733 C1731 1.387 . S
C1733 C1735 1.390 . S
C1733 H1737 0.950 . S
H1734 C1730 0.950 . S
C1735 C1733 1.390 . S
C1735 C1736 1.387 . S
C1735 H1738 0.950 . S
C1736 C1735 1.387 . S
C1736 C1739 1.387 . S
H1737 C1733 0.950 . S
H1738 C1735 0.950 . S
C1739 C1730 1.390 . S
C1739 H1732 0.950 . S
C1739 C1736 1.387 . S
C1740 C1741 1.387 . S
C1740 H1744 0.950 . S
C1740 C1749 1.390 . S
C1741 C1740 1.387 . S
C1741 C1743 1.387 . S
H1742 C1749 0.950 . S
C1743 C1741 1.387 . S
C1743 C1745 1.390 . S
C1743 H1747 0.950 . S
H1744 C1740 0.950 . S
C1745 C1743 1.390 . S
C1745 C1746 1.387 . S
C1745 H1748 0.950 . S
C1746 C1745 1.387 . S
C1746 C1749 1.387 . S
H1747 C1743 0.950 . S
H1748 C1745 0.950 . S
C1749 C1740 1.390 . S
C1749 H1742 0.950 . S
C1749 C1746 1.387 . S
C1750 C1751 1.387 . S
C1750 H1754 0.950 . S
C1750 C1759 1.390 . S
C1751 C1750 1.387 . S
C1751 C1753 1.387 . S
H1752 C1759 0.950 . S
C1753 C1751 1.387 . S
C1753 C1755 1.390 . S
C1753 H1757 0.950 . S
H1754 C1750 0.950 . S
C1755 C1753 1.390 . S
C1755 C1756 1.387 . S
C1755 H1758 0.950 . S
C1756 C1755 1.387 . S
C1756 C1759 1.387 . S
H1757 C1753 0.950 . S
H1758 C1755 0.950 . S
C1759 C1750 1.390 . S
C1759 H1752 0.950 . S
C1759 C1756 1.387 . S
C1760 C1761 1.387 . S
C1760 H1764 0.950 . S
C1760 C1769 1.390 . S
C1761 C1760 1.387 . S
C1761 C1763 1.387 . S
H1762 C1769 0.950 . S
C1763 C1761 1.387 . S
C1763 C1765 1.390 . S
C1763 H1767 0.950 . S
H1764 C1760 0.950 . S
C1765 C1763 1.390 . S
C1765 C1766 1.387 . S
C1765 H1768 0.950 . S
C1766 C1765 1.387 . S
C1766 C1769 1.387 . S
H1767 C1763 0.950 . S
H1768 C1765 0.950 . S
C1769 C1760 1.390 . S
C1769 H1762 0.950 . S
C1769 C1766 1.387 . S
C1770 C1771 1.387 . S
C1770 H1774 0.950 . S
C1770 C1779 1.390 . S
C1771 C1770 1.387 . S
C1771 C1773 1.387 . S
H1772 C1779 0.950 . S
C1773 C1771 1.387 . S
C1773 C1775 1.390 . S
C1773 H1777 0.950 . S
H1774 C1770 0.950 . S
C1775 C1773 1.390 . S
C1775 C1776 1.387 . S
C1775 H1778 0.950 . S
C1776 C1775 1.387 . S
C1776 C1779 1.387 . S
H1777 C1773 0.950 . S
H1778 C1775 0.950 . S
C1779 C1770 1.390 . S
C1779 H1772 0.950 . S
C1779 C1776 1.387 . S
C1780 C1781 1.387 . S
C1780 H1784 0.950 . S
C1780 C1789 1.390 . S
C1781 C1780 1.387 . S
C1781 C1783 1.387 . S
H1782 C1789 0.950 . S
C1783 C1781 1.387 . S
C1783 C1785 1.390 . S
C1783 H1787 0.950 . S
H1784 C1780 0.950 . S
C1785 C1783 1.390 . S
C1785 C1786 1.387 . S
C1785 H1788 0.950 . S
C1786 C1785 1.387 . S
C1786 C1789 1.387 . S
H1787 C1783 0.950 . S
H1788 C1785 0.950 . S
C1789 C1780 1.390 . S
C1789 H1782 0.950 . S
C1789 C1786 1.387 . S
C1790 C1791 1.387 . S
C1790 H1794 0.950 . S
C1790 C1799 1.390 . S
C1791 C1790 1.387 . S
C1791 C1793 1.387 . S
H1792 C1799 0.950 . S
C1793 C1791 1.387 . S
C1793 C1795 1.390 . S
C1793 H1797 0.950 . S
H1794 C1790 0.950 . S
C1795 C1793 1.390 . S
C1795 C1796 1.387 . S
C1795 H1798 0.950 . S
C1796 C1795 1.387 . S
C1796 C1799 1.387 . S
H1797 C1793 0.950 . S
H1798 C1795 0.950 . S
C1799 C1790 1.390 . S
C1799 H1792 0.950 . S
C1799 C1796 1.387 . S
C1800 C1801 1.387 . S
C1800 H1804 0.950 . S
C1800 C1809 1.390 . S
C1801 C1800 1.387 . S
C1801 C1803 1.387 . S
H1802 C1809 0.950 . S
C1803 C1801 1.387 . S
C1803 C1805 1.390 . S
C1803 H1807 0.950 . S
H1804 C1800 0.950 . S
C1805 C1803 1.390 . S
C1805 C1806 1.387 . S
C1805 H1808 0.950 . S
C1806 C1805 1.387 . S
C1806 C1809 1.387 . S
H1807 C1803 0.950 . S
H1808 C1805 0.950 . S
C1809 C1800 1.390 . S
C1809 H1802 0.950 . S
C1809 C1806 1.387 . S
C1810 C1811 1.387 . S
C1810 H1814 0.950 . S
C1810 C1819 1.390 . S
C1811 C1810 1.387 . S
C1811 C1813 1.387 . S
H1812 C1819 0.950 . S
C1813 C1811 1.387 . S
C1813 C1815 1.390 . S
C1813 H1817 0.950 . S
H1814 C1810 0.950 . S
C1815 C1813 1.390 . S
C1815 C1816 1.387 . S
C1815 H1818 0.950 . S
C1816 C1815 1.387 . S
C1816 C1819 1.387 . S
H1817 C1813 0.950 . S
H1818 C1815 0.950 . S
C1819 C1810 1.390 . S
C1819 H1812 0.950 . S
C1819 C1816 1.387 . S
C1820 C1821 1.387 . S
C1820 H1824 0.950 . S
C1820 C1829 1.390 . S
C1821 C1820 1.387 . S
C1821 C1823 1.387 . S
H1822 C1829 0.950 . S
C1823 C1821 1.387 . S
C1823 C1825 1.390 . S
C1823 H1827 0.950 . S
H1824 C1820 0.950 . S
C1825 C1823 1.390 . S
C1825 C1826 1.387 . S
C1825 H1828 0.950 . S
C1826 C1825 1.387 . S
C1826 C1829 1.387 . S
H1827 C1823 0.950 . S
H1828 C1825 0.950 . S
C1829 C1820 1.390 . S
C1829 H1822 0.950 . S
C1829 C1826 1.387 . S
C1830 C1831 1.387 . S
C1830 H1834 0.950 . S
C1830 C1839 1.390 . S
C1831 C1830 1.387 . S
C1831 C1833 1.387 . S
H1832 C1839 0.950 . S
C1833 C1831 1.387 . S
C1833 C1835 1.390 . S
C1833 H1837 0.950 . S
H1834 C1830 0.950 . S
C1835 C1833 1.390 . S
C1835 C1836 1.387 . S
C1835 H1838 0.950 . S
C1836 C1835 1.387 . S
C1836 C1839 1.387 . S
H1837 C1833 0.950 . S
H1838 C1835 0.950 . S
C1839 C1830 1.390 . S
C1839 H1832 0.950 . S
C1839 C1836 1.387 . S
C1840 C1841 1.387 . S
C1840 H1844 0.950 . S
C1840 C1849 1.390 . S
C1841 C1840 1.387 . S
C1841 C1843 1.387 . S
H1842 C1849 0.950 . S
C1843 C1841 1.387 . S
C1843 C1845 1.390 . S
C1843 H1847 0.950 . S
H1844 C1840 0.950 . S
C1845 C1843 1.390 . S
C1845 C1846 1.387 . S
C1845 H1848 0.950 . S
C1846 C1845 1.387 . S
C1846 C1849 1.387 . S
H1847 C1843 0.950 . S
H1848 C1845 0.950 . S
C1849 C1840 1.390 . S
C1849 H1842 0.950 . S
C1849 C1846 1.387 . S
C1850 C1851 1.387 . S
C1850 H1854 0.950 . S
C1850 C1859 1.390 . S
C1851 C1850 1.387 . S
C1851 C1853 1.387 . S
H1852 C1859 0.950 . S
C1853 C1851 1.387 . S
C1853 C1855 1.390 . S
C1853 H1857 0.950 . S
H1854 C1850 0.950 . S
C1855 C1853 1.390 . S
C1855 C1856 1.387 . S
C1855 H1858 0.950 . S
C1856 C1855 1.387 . S
C1856 C1859 1.387 . S
H1857 C1853 0.950 . S
H1858 C1855 0.950 . S
C1859 C1850 1.390 . S
C1859 H1852 0.950 . S
C1859 C1856 1.387 . S
C1860 C1861 1.387 . S
C1860 H1864 0.950 . S
C1860 C1869 1.390 . S
C1861 C1860 1.387 . S
C1861 C1863 1.387 . S
H1862 C1869 0.950 . S
C1863 C1861 1.387 . S
C1863 C1865 1.390 . S
C1863 H1867 0.950 . S
H1864 C1860 0.950 . S
C1865 C1863 1.390 . S
C1865 C1866 1.387 . S
C1865 H1868 0.950 . S
C1866 C1865 1.387 . S
C1866 C1869 1.387 . S
H1867 C1863 0.950 . S
H1868 C1865 0.950 . S
C1869 C1860 1.390 . S
C1869 H1862 0.950 . S
C1869 C1866 1.387 . S
C1870 C1871 1.387 . S
C1870 H1874 0.950 . S
C1870 C1879 1.390 . S
C1871 C1870 1.387 . S
C1871 C1873 1.387 . S
H1872 C1879 0.950 . S
C1873 C1871 1.387 . S
C1873 C1875 1.390 . S
C1873 H1877 0.950 . S
H1874 C1870 0.950 . S
C1875 C1873 1.390 . S
C1875 C1876 1.387 . S
C1875 H1878 0.950 . S
C1876 C1875 1.387 . S
C1876 C1879 1.387 . S
H1877 C1873 0.950 . S
H1878 C1875 0.950 . S
C1879 C1870 1.390 . S
C1879 H1872 0.950 . S
C1879 C1876 1.387 . S
C1880 C1881 1.387 . S
C1880 H1884 0.950 . S
C1880 C1889 1.390 . S
C1881 C1880 1.387 . S
C1881 C1883 1.387 . S
H1882 C1889 0.950 . S
C1883 C1881 1.387 . S
C1883 C1885 1.390 . S
C1883 H1887 0.950 . S
H1884 C1880 0.950 . S
C1885 C1883 1.390 . S
C1885 C1886 1.387 . S
C1885 H1888 0.950 . S
C1886 C1885 1.387 . S
C1886 C1889 1.387 . S
H1887 C1883 0.950 . S
H1888 C1885 0.950 . S
C1889 C1880 1.390 . S
C1889 H1882 0.950 . S
C1889 C1886 1.387 . S
C1890 C1891 1.387 . S
C1890 H1894 0.950 . S
C1890 C1899 1.390 . S
C1891 C1890 1.387 . S
C1891 C1893 1.387 . S
H1892 C1899 0.950 . S
C1893 C1891 1.387 . S
C1893 C1895 1.390 . S
C1893 H1897 0.950 . S
H1894 C1890 0.950 . S
C1895 C1893 1.390 . S
C1895 C1896 1.387 . S
C1895 H1898 0.950 . S
C1896 C1895 1.387 . S
C1896 C1899 1.387 . S
H1897 C1893 0.950 . S
H1898 C1895 0.950 . S
C1899 C1890 1.390 . S
C1899 H1892 0.950 . S
C1899 C1896 1.387 . S
C1900 C1901 1.387 . S
C1900 H1904 0.950 . S
C1900 C1909 1.390 . S
C1901 C1900 1.387 . S
C1901 C1903 1.387 . S
H1902 C1909 0.950 . S
C1903 C1901 1.387 . S
C1903 C1905 1.390 . S
C1903 H1907 0.950 . S
H1904 C1900 0.950 . S
C1905 C1903 1.390 . S
C1905 C1906 1.387 . S
C1905 H1908 0.950 . S
C1906 C1905 1.387 . S
C1906 C1909 1.387 . S
H1907 C1903 0.950 . S
H1908 C1905 0.950 . S
C1909 C1900 1.390 . S
C1909 H1902 0.950 . S
C1909 C1906 1.387 . S
C1910 C1911 1.387 . S
C1910 H1914 0.950 . S
C1910 C1919 1.390 . S
C1911 C1910 1.387 . S
C1911 C1913 1.387 . S
H1912 C1919 0.950 . S
C1913 C1911 1.387 . S
C1913 C1915 1.390 . S
C1913 H1917 0.950 . S
H1914 C1910 0.950 . S
C1915 C1913 1.390 . S
C1915 C1916 1.387 . S
C1915 H1918 0.950 . S
C1916 C1915 1.387 . S
C1916 C1919 1.387 . S
H1917 C1913 0.950 . S
H1918 C1915 0.950 . S
C1919 C1910 1.390 . S
C1919 H1912 0.950 . S
C1919 C1916 1.387 . S
C1920 C1921 1.387 . S
C1920 H1924 0.950 . S
C1920 C1929 1.390 1_655 S
C1921 C1920 1.387 . S
C1921 C1923 1.387 . S
H1922 C1929 0.950 . S
C1923 C1921 1.387 . S
C1923 C1925 1.390 1_655 S
C1923 H1927 0.950 . S
H1924 C1920 0.950 . S
C1925 C1923 1.390 1_455 S
C1925 C1926 1.387 . S
C1925 H1928 0.950 . S
C1926 C1925 1.387 . S
C1926 C1929 1.387 . S
H1927 C1923 0.950 . S
H1928 C1925 0.950 . S
C1929 C1920 1.390 1_455 S
C1929 H1922 0.950 . S
C1929 C1926 1.387 . S
C1930 C1931 1.387 . S
C1930 H1934 0.950 . S
C1930 C1939 1.390 . S
C1931 C1930 1.387 . S
C1931 C1933 1.387 . S
H1932 C1939 0.950 . S
C1933 C1931 1.387 . S
C1933 C1935 1.390 . S
C1933 H1937 0.950 . S
H1934 C1930 0.950 . S
C1935 C1933 1.390 . S
C1935 C1936 1.387 . S
C1935 H1938 0.950 . S
C1936 C1935 1.387 . S
C1936 C1939 1.387 . S
H1937 C1933 0.950 . S
H1938 C1935 0.950 . S
C1939 C1930 1.390 . S
C1939 H1932 0.950 . S
C1939 C1936 1.387 . S
C1940 C1941 1.387 . S
C1940 H1944 0.950 . S
C1940 C1949 1.390 1_545 S
C1941 C1940 1.387 . S
C1941 C1943 1.387 . S
H1942 C1949 0.950 . S
C1943 C1941 1.387 . S
C1943 C1945 1.390 1_545 S
C1943 H1947 0.950 . S
H1944 C1940 0.950 . S
C1945 C1943 1.390 1_565 S
C1945 C1946 1.387 . S
C1945 H1948 0.950 . S
C1946 C1945 1.387 . S
C1946 C1949 1.387 . S
H1947 C1943 0.950 . S
H1948 C1945 0.950 . S
C1949 C1940 1.390 1_565 S
C1949 H1942 0.950 . S
C1949 C1946 1.387 . S
C1950 C1951 1.387 . S
C1950 H1954 0.950 . S
C1950 C1959 1.390 1_565 S
C1951 C1950 1.387 . S
C1951 C1953 1.387 1_554 S
H1952 C1959 0.950 . S
C1953 C1951 1.387 1_556 S
C1953 C1955 1.390 1_565 S
C1953 H1957 0.950 . S
H1954 C1950 0.950 . S
C1955 C1953 1.390 1_545 S
C1955 C1956 1.387 . S
C1955 H1958 0.950 . S
C1956 C1955 1.387 . S
C1956 C1959 1.387 1_556 S
H1957 C1953 0.950 . S
H1958 C1955 0.950 . S
C1959 C1950 1.390 1_545 S
C1959 H1952 0.950 . S
C1959 C1956 1.387 1_554 S
C1960 C1961 1.387 . S
C1960 H1964 0.950 . S
C1960 C1969 1.390 1_655 S
C1961 C1960 1.387 . S
C1961 C1963 1.387 1_556 S
H1962 C1969 0.950 . S
C1963 C1961 1.387 1_554 S
C1963 C1965 1.390 1_655 S
C1963 H1967 0.950 . S
H1964 C1960 0.950 . S
C1965 C1963 1.390 1_455 S
C1965 C1966 1.387 . S
C1965 H1968 0.950 . S
C1966 C1965 1.387 . S
C1966 C1969 1.387 1_554 S
H1967 C1963 0.950 . S
H1968 C1965 0.950 . S
C1969 C1960 1.390 1_455 S
C1969 H1962 0.950 . S
C1969 C1966 1.387 1_556 S
C1970 C1971 1.387 . S
C1970 H1974 0.950 . S
C1970 C1979 1.390 . S
C1971 C1970 1.387 . S
C1971 C1973 1.387 1_554 S
H1972 C1979 0.950 . S
C1973 C1971 1.387 1_556 S
C1973 C1975 1.390 . S
C1973 H1977 0.950 . S
H1974 C1970 0.950 . S
C1975 C1973 1.390 . S
C1975 C1976 1.387 . S
C1975 H1978 0.950 . S
C1976 C1975 1.387 . S
C1976 C1979 1.387 1_556 S
H1977 C1973 0.950 . S
H1978 C1975 0.950 . S
C1979 C1970 1.390 . S
C1979 H1972 0.950 . S
C1979 C1976 1.387 1_554 S
C1980 C1981 1.387 . S
C1980 H1984 0.950 . S
C1980 C1989 1.390 . S
C1981 C1980 1.387 . S
C1981 C1983 1.387 . S
H1982 C1989 0.950 . S
C1983 C1981 1.387 . S
C1983 C1985 1.390 . S
C1983 H1987 0.950 . S
H1984 C1980 0.950 . S
C1985 C1983 1.390 . S
C1985 C1986 1.387 . S
C1985 H1988 0.950 . S
C1986 C1985 1.387 . S
C1986 C1989 1.387 . S
H1987 C1983 0.950 . S
H1988 C1985 0.950 . S
C1989 C1980 1.390 . S
C1989 H1982 0.950 . S
C1989 C1986 1.387 . S
C1990 C1991 1.387 . S
C1990 H1994 0.950 . S
C1990 C1999 1.390 . S
C1991 C1990 1.387 . S
C1991 C1993 1.387 . S
H1992 C1999 0.950 . S
C1993 C1991 1.387 . S
C1993 C1995 1.390 . S
C1993 H1997 0.950 . S
H1994 C1990 0.950 . S
C1995 C1993 1.390 . S
C1995 C1996 1.387 . S
C1995 H1998 0.950 . S
C1996 C1995 1.387 . S
C1996 C1999 1.387 . S
H1997 C1993 0.950 . S
H1998 C1995 0.950 . S
C1999 C1990 1.390 . S
C1999 H1992 0.950 . S
C1999 C1996 1.387 . S
C2000 C2001 1.387 . S
C2000 H2004 0.950 . S
C2000 C2009 1.390 . S
C2001 C2000 1.387 . S
C2001 C2003 1.387 . S
H2002 C2009 0.950 . S
C2003 C2001 1.387 . S
C2003 C2005 1.390 . S
C2003 H2007 0.950 . S
H2004 C2000 0.950 . S
C2005 C2003 1.390 . S
C2005 C2006 1.387 . S
C2005 H2008 0.950 . S
C2006 C2005 1.387 . S
C2006 C2009 1.387 . S
H2007 C2003 0.950 . S
H2008 C2005 0.950 . S
C2009 C2000 1.390 . S
C2009 H2002 0.950 . S
C2009 C2006 1.387 . S
C2010 C2011 1.387 . S
C2010 H2014 0.950 . S
C2010 C2019 1.390 . S
C2011 C2010 1.387 . S
C2011 C2013 1.387 . S
H2012 C2019 0.950 . S
C2013 C2011 1.387 . S
C2013 C2015 1.390 . S
C2013 H2017 0.950 . S
H2014 C2010 0.950 . S
C2015 C2013 1.390 . S
C2015 C2016 1.387 . S
C2015 H2018 0.950 . S
C2016 C2015 1.387 . S
C2016 C2019 1.387 . S
H2017 C2013 0.950 . S
H2018 C2015 0.950 . S
C2019 C2010 1.390 . S
C2019 H2012 0.950 . S
C2019 C2016 1.387 . S
C2020 C2021 1.387 . S
C2020 H2024 0.950 . S
C2020 C2029 1.390 . S
C2021 C2020 1.387 . S
C2021 C2023 1.387 . S
H2022 C2029 0.950 . S
C2023 C2021 1.387 . S
C2023 C2025 1.390 . S
C2023 H2027 0.950 . S
H2024 C2020 0.950 . S
C2025 C2023 1.390 . S
C2025 C2026 1.387 . S
C2025 H2028 0.950 . S
C2026 C2025 1.387 . S
C2026 C2029 1.387 . S
H2027 C2023 0.950 . S
H2028 C2025 0.950 . S
C2029 C2020 1.390 . S
C2029 H2022 0.950 . S
C2029 C2026 1.387 . S
C2030 C2031 1.387 . S
C2030 H2034 0.950 . S
C2030 C2039 1.390 . S
C2031 C2030 1.387 . S
C2031 C2033 1.387 . S
H2032 C2039 0.950 . S
C2033 C2031 1.387 . S
C2033 C2035 1.390 . S
C2033 H2037 0.950 . S
H2034 C2030 0.950 . S
C2035 C2033 1.390 . S
C2035 C2036 1.387 . S
C2035 H2038 0.950 . S
C2036 C2035 1.387 . S
C2036 C2039 1.387 . S
H2037 C2033 0.950 . S
H2038 C2035 0.950 . S
C2039 C2030 1.390 . S
C2039 H2032 0.950 . S
C2039 C2036 1.387 . S
C2040 C2041 1.387 . S
C2040 H2044 0.950 . S
C2040 C2049 1.390 . S
C2041 C2040 1.387 . S
C2041 C2043 1.387 . S
H2042 C2049 0.950 1_556 S
C2043 C2041 1.387 . S
C2043 C2045 1.390 . S
C2043 H2047 0.950 . S
H2044 C2040 0.950 . S
C2045 C2043 1.390 . S
C2045 C2046 1.387 . S
C2045 H2048 0.950 . S
C2046 C2045 1.387 . S
C2046 C2049 1.387 . S
H2047 C2043 0.950 . S
H2048 C2045 0.950 . S
C2049 C2040 1.390 . S
C2049 H2042 0.950 1_554 S
C2049 C2046 1.387 . S
C2050 C2051 1.387 . S
C2050 H2054 0.950 1_554 S
C2050 C2059 1.390 . S
C2051 C2050 1.387 . S
C2051 C2053 1.387 . S
H2052 C2059 0.950 . S
C2053 C2051 1.387 . S
C2053 C2055 1.390 . S
C2053 H2057 0.950 . S
H2054 C2050 0.950 1_556 S
C2055 C2053 1.390 . S
C2055 C2056 1.387 . S
C2055 H2058 0.950 . S
C2056 C2055 1.387 . S
C2056 C2059 1.387 . S
H2057 C2053 0.950 . S
H2058 C2055 0.950 . S
C2059 C2050 1.390 . S
C2059 H2052 0.950 . S
C2059 C2056 1.387 . S
C2060 C2061 1.387 . S
C2060 H2064 0.950 . S
C2060 C2069 1.390 . S
C2061 C2060 1.387 . S
C2061 C2063 1.387 . S
H2062 C2069 0.950 . S
C2063 C2061 1.387 . S
C2063 C2065 1.390 . S
C2063 H2067 0.950 . S
H2064 C2060 0.950 . S
C2065 C2063 1.390 . S
C2065 C2066 1.387 . S
C2065 H2068 0.950 . S
C2066 C2065 1.387 . S
C2066 C2069 1.387 . S
H2067 C2063 0.950 . S
H2068 C2065 0.950 . S
C2069 C2060 1.390 . S
C2069 H2062 0.950 . S
C2069 C2066 1.387 . S
C2070 C2071 1.387 . S
C2070 H2074 0.950 . S
C2070 C2079 1.390 . S
C2071 C2070 1.387 . S
C2071 C2073 1.387 . S
H2072 C2079 0.950 . S
C2073 C2071 1.387 . S
C2073 C2075 1.390 . S
C2073 H2077 0.950 . S
H2074 C2070 0.950 . S
C2075 C2073 1.390 . S
C2075 C2076 1.387 . S
C2075 H2078 0.950 . S
C2076 C2075 1.387 . S
C2076 C2079 1.387 . S
H2077 C2073 0.950 . S
H2078 C2075 0.950 . S
C2079 C2070 1.390 . S
C2079 H2072 0.950 . S
C2079 C2076 1.387 . S
C2080 C2081 1.387 . S
C2080 H2084 0.950 . S
C2080 C2089 1.390 . S
C2081 C2080 1.387 . S
C2081 C2083 1.387 . S
H2082 C2089 0.950 . S
C2083 C2081 1.387 . S
C2083 C2085 1.390 . S
C2083 H2087 0.950 . S
H2084 C2080 0.950 . S
C2085 C2083 1.390 . S
C2085 C2086 1.387 . S
C2085 H2088 0.950 . S
C2086 C2085 1.387 . S
C2086 C2089 1.387 . S
H2087 C2083 0.950 . S
H2088 C2085 0.950 . S
C2089 C2080 1.390 . S
C2089 H2082 0.950 . S
C2089 C2086 1.387 . S
C2090 C2091 1.387 . S
C2090 H2094 0.950 . S
C2090 C2099 1.390 . S
C2091 C2090 1.387 . S
C2091 C2093 1.387 . S
H2092 C2099 0.950 . S
C2093 C2091 1.387 . S
C2093 C2095 1.390 . S
C2093 H2097 0.950 . S
H2094 C2090 0.950 . S
C2095 C2093 1.390 . S
C2095 C2096 1.387 . S
C2095 H2098 0.950 . S
C2096 C2095 1.387 . S
C2096 C2099 1.387 . S
H2097 C2093 0.950 . S
H2098 C2095 0.950 . S
C2099 C2090 1.390 . S
C2099 H2092 0.950 . S
C2099 C2096 1.387 . S
C2100 C2101 1.387 . S
C2100 H2104 0.950 . S
C2100 C2109 1.390 1_455 S
C2101 C2100 1.387 . S
C2101 C2103 1.387 . S
H2102 C2109 0.950 . S
C2103 C2101 1.387 . S
C2103 C2105 1.390 1_455 S
C2103 H2107 0.950 . S
H2104 C2100 0.950 . S
C2105 C2103 1.390 1_655 S
C2105 C2106 1.387 . S
C2105 H2108 0.950 . S
C2106 C2105 1.387 . S
C2106 C2109 1.387 . S
H2107 C2103 0.950 . S
H2108 C2105 0.950 . S
C2109 C2100 1.390 1_655 S
C2109 H2102 0.950 . S
C2109 C2106 1.387 . S
C2110 C2111 1.387 . S
C2110 H2114 0.950 . S
C2110 C2119 1.390 . S
C2111 C2110 1.387 . S
C2111 C2113 1.387 . S
H2112 C2119 0.950 . S
C2113 C2111 1.387 . S
C2113 C2115 1.390 . S
C2113 H2117 0.950 . S
H2114 C2110 0.950 . S
C2115 C2113 1.390 . S
C2115 C2116 1.387 . S
C2115 H2118 0.950 . S
C2116 C2115 1.387 . S
C2116 C2119 1.387 . S
H2117 C2113 0.950 . S
H2118 C2115 0.950 . S
C2119 C2110 1.390 . S
C2119 H2112 0.950 . S
C2119 C2116 1.387 . S
C2120 C2121 1.387 . S
C2120 H2124 0.950 . S
C2120 C2129 1.390 1_545 S
C2121 C2120 1.387 . S
C2121 C2123 1.387 . S
H2122 C2129 0.950 . S
C2123 C2121 1.387 . S
C2123 C2125 1.390 1_545 S
C2123 H2127 0.950 . S
H2124 C2120 0.950 . S
C2125 C2123 1.390 1_565 S
C2125 C2126 1.387 . S
C2125 H2128 0.950 . S
C2126 C2125 1.387 . S
C2126 C2129 1.387 . S
H2127 C2123 0.950 . S
H2128 C2125 0.950 . S
C2129 C2120 1.390 1_565 S
C2129 H2122 0.950 . S
C2129 C2126 1.387 . S
C2130 C2131 1.387 . S
C2130 H2134 0.950 . S
C2130 C2139 1.390 1_565 S
C2131 C2130 1.387 . S
C2131 C2133 1.387 . S
H2132 C2139 0.950 . S
C2133 C2131 1.387 . S
C2133 C2135 1.390 1_565 S
C2133 H2137 0.950 . S
H2134 C2130 0.950 . S
C2135 C2133 1.390 1_545 S
C2135 C2136 1.387 . S
C2135 H2138 0.950 . S
C2136 C2135 1.387 . S
C2136 C2139 1.387 . S
H2137 C2133 0.950 . S
H2138 C2135 0.950 . S
C2139 C2130 1.390 1_545 S
C2139 H2132 0.950 . S
C2139 C2136 1.387 . S
C2140 C2141 1.387 . S
C2140 H2144 0.950 . S
C2140 C2149 1.390 1_455 S
C2141 C2140 1.387 . S
C2141 C2143 1.387 . S
H2142 C2149 0.950 . S
C2143 C2141 1.387 . S
C2143 C2145 1.390 1_455 S
C2143 H2147 0.950 . S
H2144 C2140 0.950 . S
C2145 C2143 1.390 1_655 S
C2145 C2146 1.387 . S
C2145 H2148 0.950 . S
C2146 C2145 1.387 . S
C2146 C2149 1.387 . S
H2147 C2143 0.950 . S
H2148 C2145 0.950 . S
C2149 C2140 1.390 1_655 S
C2149 H2142 0.950 . S
C2149 C2146 1.387 . S
C2150 C2151 1.387 . S
C2150 H2154 0.950 . S
C2150 C2159 1.390 . S
C2151 C2150 1.387 . S
C2151 C2153 1.387 . S
H2152 C2159 0.950 . S
C2153 C2151 1.387 . S
C2153 C2155 1.390 . S
C2153 H2157 0.950 . S
H2154 C2150 0.950 . S
C2155 C2153 1.390 . S
C2155 C2156 1.387 . S
C2155 H2158 0.950 . S
C2156 C2155 1.387 . S
C2156 C2159 1.387 . S
H2157 C2153 0.950 . S
H2158 C2155 0.950 . S
C2159 C2150 1.390 . S
C2159 H2152 0.950 . S
C2159 C2156 1.387 . S
C2160 C2161 1.387 . S
C2160 H2164 0.950 . S
C2160 C2169 1.390 . S
C2161 C2160 1.387 . S
C2161 C2163 1.387 . S
H2162 C2169 0.950 . S
C2163 C2161 1.387 . S
C2163 C2165 1.390 . S
C2163 H2167 0.950 . S
H2164 C2160 0.950 . S
C2165 C2163 1.390 . S
C2165 C2166 1.387 . S
C2165 H2168 0.950 . S
C2166 C2165 1.387 . S
C2166 C2169 1.387 . S
H2167 C2163 0.950 . S
H2168 C2165 0.950 . S
C2169 C2160 1.390 . S
C2169 H2162 0.950 . S
C2169 C2166 1.387 . S
C2170 C2171 1.387 . S
C2170 H2174 0.950 . S
C2170 C2179 1.390 1_545 S
C2171 C2170 1.387 . S
C2171 C2173 1.387 . S
H2172 C2179 0.950 . S
C2173 C2171 1.387 . S
C2173 C2175 1.390 1_545 S
C2173 H2177 0.950 . S
H2174 C2170 0.950 . S
C2175 C2173 1.390 1_565 S
C2175 C2176 1.387 . S
C2175 H2178 0.950 . S
C2176 C2175 1.387 . S
C2176 C2179 1.387 . S
H2177 C2173 0.950 . S
H2178 C2175 0.950 . S
C2179 C2170 1.390 1_565 S
C2179 H2172 0.950 . S
C2179 C2176 1.387 . S
C2180 C2181 1.387 . S
C2180 H2184 0.950 . S
C2180 C2189 1.390 1_655 S
C2181 C2180 1.387 . S
C2181 C2183 1.387 . S
H2182 C2189 0.950 . S
C2183 C2181 1.387 . S
C2183 C2185 1.390 1_655 S
C2183 H2187 0.950 . S
H2184 C2180 0.950 . S
C2185 C2183 1.390 1_455 S
C2185 C2186 1.387 . S
C2185 H2188 0.950 . S
C2186 C2185 1.387 . S
C2186 C2189 1.387 . S
H2187 C2183 0.950 . S
H2188 C2185 0.950 . S
C2189 C2180 1.390 1_455 S
C2189 H2182 0.950 . S
C2189 C2186 1.387 . S
C2190 C2191 1.387 . S
C2190 H2194 0.950 . S
C2190 C2199 1.390 . S
C2191 C2190 1.387 . S
C2191 C2193 1.387 . S
H2192 C2199 0.950 . S
C2193 C2191 1.387 . S
C2193 C2195 1.390 . S
C2193 H2197 0.950 . S
H2194 C2190 0.950 . S
C2195 C2193 1.390 . S
C2195 C2196 1.387 . S
C2195 H2198 0.950 . S
C2196 C2195 1.387 . S
C2196 C2199 1.387 . S
H2197 C2193 0.950 . S
H2198 C2195 0.950 . S
C2199 C2190 1.390 . S
C2199 H2192 0.950 . S
C2199 C2196 1.387 . S
C2200 C2201 1.387 . S
C2200 H2204 0.950 . S
C2200 C2209 1.390 1_565 S
C2201 C2200 1.387 . S
C2201 C2203 1.387 . S
H2202 C2209 0.950 . S
C2203 C2201 1.387 . S
C2203 C2205 1.390 1_565 S
C2203 H2207 0.950 . S
H2204 C2200 0.950 . S
C2205 C2203 1.390 1_545 S
C2205 C2206 1.387 . S
C2205 H2208 0.950 . S
C2206 C2205 1.387 . S
C2206 C2209 1.387 . S
H2207 C2203 0.950 . S
H2208 C2205 0.950 . S
C2209 C2200 1.390 1_545 S
C2209 H2202 0.950 . S
C2209 C2206 1.387 . S
C2210 C2211 1.387 . S
C2210 H2214 0.950 . S
C2210 C2219 1.390 1_655 S
C2211 C2210 1.387 . S
C2211 C2213 1.387 . S
H2212 C2219 0.950 . S
C2213 C2211 1.387 . S
C2213 C2215 1.390 1_655 S
C2213 H2217 0.950 . S
H2214 C2210 0.950 . S
C2215 C2213 1.390 1_455 S
C2215 C2216 1.387 . S
C2215 H2218 0.950 . S
C2216 C2215 1.387 . S
C2216 C2219 1.387 . S
H2217 C2213 0.950 . S
H2218 C2215 0.950 . S
C2219 C2210 1.390 1_455 S
C2219 H2212 0.950 . S
C2219 C2216 1.387 . S
C2220 C2221 1.387 . S
C2220 H2224 0.950 . S
C2220 C2229 1.390 . S
C2221 C2220 1.387 . S
C2221 C2223 1.387 . S
H2222 C2229 0.950 . S
C2223 C2221 1.387 . S
C2223 C2225 1.390 . S
C2223 H2227 0.950 . S
H2224 C2220 0.950 . S
C2225 C2223 1.390 . S
C2225 C2226 1.387 . S
C2225 H2228 0.950 . S
C2226 C2225 1.387 . S
C2226 C2229 1.387 . S
H2227 C2223 0.950 . S
H2228 C2225 0.950 . S
C2229 C2220 1.390 . S
C2229 H2222 0.950 . S
C2229 C2226 1.387 . S
C2230 C2231 1.387 . S
C2230 H2234 0.950 . S
C2230 C2239 1.390 . S
C2231 C2230 1.387 . S
C2231 C2233 1.387 . S
H2232 C2239 0.950 . S
C2233 C2231 1.387 . S
C2233 C2235 1.390 . S
C2233 H2237 0.950 . S
H2234 C2230 0.950 . S
C2235 C2233 1.390 . S
C2235 C2236 1.387 . S
C2235 H2238 0.950 . S
C2236 C2235 1.387 . S
C2236 C2239 1.387 . S
H2237 C2233 0.950 . S
H2238 C2235 0.950 . S
C2239 C2230 1.390 . S
C2239 H2232 0.950 . S
C2239 C2236 1.387 . S
C2240 C2241 1.387 . S
C2240 H2244 0.950 . S
C2240 C2249 1.390 . S
C2241 C2240 1.387 . S
C2241 C2243 1.387 . S
H2242 C2249 0.950 . S
C2243 C2241 1.387 . S
C2243 C2245 1.390 . S
C2243 H2247 0.950 . S
H2244 C2240 0.950 . S
C2245 C2243 1.390 . S
C2245 C2246 1.387 . S
C2245 H2248 0.950 . S
C2246 C2245 1.387 . S
C2246 C2249 1.387 . S
H2247 C2243 0.950 . S
H2248 C2245 0.950 . S
C2249 C2240 1.390 . S
C2249 H2242 0.950 . S
C2249 C2246 1.387 . S
C2250 C2251 1.387 . S
C2250 H2254 0.950 . S
C2250 C2259 1.390 . S
C2251 C2250 1.387 . S
C2251 C2253 1.387 . S
H2252 C2259 0.950 . S
C2253 C2251 1.387 . S
C2253 C2255 1.390 . S
C2253 H2257 0.950 . S
H2254 C2250 0.950 . S
C2255 C2253 1.390 . S
C2255 C2256 1.387 . S
C2255 H2258 0.950 1_554 S
C2256 C2255 1.387 . S
C2256 C2259 1.387 . S
H2257 C2253 0.950 . S
H2258 C2255 0.950 1_556 S
C2259 C2250 1.390 . S
C2259 H2252 0.950 . S
C2259 C2256 1.387 . S
C2260 C2261 1.387 . S
C2260 H2264 0.950 . S
C2260 C2269 1.390 . S
C2261 C2260 1.387 . S
C2261 C2263 1.387 . S
H2262 C2269 0.950 . S
C2263 C2261 1.387 . S
C2263 C2265 1.390 . S
C2263 H2267 0.950 . S
H2264 C2260 0.950 . S
C2265 C2263 1.390 . S
C2265 C2266 1.387 . S
C2265 H2268 0.950 . S
C2266 C2265 1.387 . S
C2266 C2269 1.387 . S
H2267 C2263 0.950 . S
H2268 C2265 0.950 . S
C2269 C2260 1.390 . S
C2269 H2262 0.950 . S
C2269 C2266 1.387 . S
C2270 C2271 1.387 . S
C2270 H2274 0.950 . S
C2270 C2279 1.390 . S
C2271 C2270 1.387 . S
C2271 C2273 1.387 . S
H2272 C2279 0.950 . S
C2273 C2271 1.387 . S
C2273 C2275 1.390 . S
C2273 H2277 0.950 . S
H2274 C2270 0.950 . S
C2275 C2273 1.390 . S
C2275 C2276 1.387 . S
C2275 H2278 0.934 1_554 S
C2276 C2275 1.387 . S
C2276 C2279 1.387 . S
H2277 C2273 0.950 . S
H2278 C2275 0.934 1_556 S
C2279 C2270 1.390 . S
C2279 H2272 0.950 . S
C2279 C2276 1.387 . S
C2280 C2281 1.387 . S
C2280 H2284 0.950 . S
C2280 C2289 1.390 . S
C2281 C2280 1.387 . S
C2281 C2283 1.387 . S
H2282 C2289 0.950 . S
C2283 C2281 1.387 . S
C2283 C2285 1.390 . S
C2283 H2287 0.950 . S
H2284 C2280 0.950 . S
C2285 C2283 1.390 . S
C2285 C2286 1.387 . S
C2285 H2288 0.950 1_556 S
C2286 C2285 1.387 . S
C2286 C2289 1.387 . S
H2287 C2283 0.950 . S
H2288 C2285 0.950 1_554 S
C2289 C2280 1.390 . S
C2289 H2282 0.950 . S
C2289 C2286 1.387 . S
C2290 C2291 1.387 . S
C2290 H2294 0.950 . S
C2290 C2299 1.390 . S
C2291 C2290 1.387 . S
C2291 C2293 1.387 . S
H2292 C2299 0.950 . S
C2293 C2291 1.387 . S
C2293 C2295 1.390 . S
C2293 H2297 0.950 . S
H2294 C2290 0.950 . S
C2295 C2293 1.390 . S
C2295 C2296 1.387 . S
C2295 H2298 0.950 . S
C2296 C2295 1.387 . S
C2296 C2299 1.387 . S
H2297 C2293 0.950 . S
H2298 C2295 0.950 . S
C2299 C2290 1.390 . S
C2299 H2292 0.950 . S
C2299 C2296 1.387 . S
C2300 C2301 1.387 . S
C2300 H2304 0.950 . S
C2300 C2309 1.390 . S
C2301 C2300 1.387 . S
C2301 C2303 1.387 . S
H2302 C2309 0.950 . S
C2303 C2301 1.387 . S
C2303 C2305 1.390 . S
C2303 H2307 0.950 1_556 S
H2304 C2300 0.950 . S
C2305 C2303 1.390 . S
C2305 C2306 1.387 . S
C2305 H2308 0.950 . S
C2306 C2305 1.387 . S
C2306 C2309 1.387 . S
H2307 C2303 0.950 1_554 S
H2308 C2305 0.950 . S
C2309 C2300 1.390 . S
C2309 H2302 0.950 . S
C2309 C2306 1.387 . S
C2310 C2311 1.387 . S
C2310 H2314 0.950 . S
C2310 C2319 1.390 . S
C2311 C2310 1.387 . S
C2311 C2313 1.387 . S
H2312 C2319 0.950 . S
C2313 C2311 1.387 . S
C2313 C2315 1.390 . S
C2313 H2317 0.950 . S
H2314 C2310 0.950 . S
C2315 C2313 1.390 . S
C2315 C2316 1.387 . S
C2315 H2318 0.950 . S
C2316 C2315 1.387 . S
C2316 C2319 1.387 . S
H2317 C2313 0.950 . S
H2318 C2315 0.950 . S
C2319 C2310 1.390 . S
C2319 H2312 0.950 . S
C2319 C2316 1.387 . S
C2320 C2321 1.387 . S
C2320 H2324 0.950 . S
C2320 C2329 1.390 . S
C2321 C2320 1.387 . S
C2321 C2323 1.387 . S
H2322 C2329 0.950 . S
C2323 C2321 1.387 . S
C2323 C2325 1.390 . S
C2323 H2327 0.950 . S
H2324 C2320 0.950 . S
C2325 C2323 1.390 . S
C2325 C2326 1.387 . S
C2325 H2328 0.950 . S
C2326 C2325 1.387 . S
C2326 C2329 1.387 . S
H2327 C2323 0.950 . S
H2328 C2325 0.950 . S
C2329 C2320 1.390 . S
C2329 H2322 0.950 . S
C2329 C2326 1.387 . S
C2330 C2331 1.387 . S
C2330 H2334 0.950 . S
C2330 C2339 1.390 . S
C2331 C2330 1.387 . S
C2331 C2333 1.387 . S
H2332 C2339 0.950 . S
C2333 C2331 1.387 . S
C2333 C2335 1.390 . S
C2333 H2337 0.950 . S
H2334 C2330 0.950 . S
C2335 C2333 1.390 . S
C2335 C2336 1.387 . S
C2335 H2338 0.950 . S
C2336 C2335 1.387 . S
C2336 C2339 1.387 . S
H2337 C2333 0.950 . S
H2338 C2335 0.950 . S
C2339 C2330 1.390 . S
C2339 H2332 0.950 . S
C2339 C2336 1.387 . S
C2340 C2341 1.387 . S
C2340 H2344 0.950 . S
C2340 C2349 1.390 . S
C2341 C2340 1.387 . S
C2341 C2343 1.387 . S
H2342 C2349 0.950 . S
C2343 C2341 1.387 . S
C2343 C2345 1.390 . S
C2343 H2347 0.950 . S
H2344 C2340 0.950 . S
C2345 C2343 1.390 . S
C2345 C2346 1.387 . S
C2345 H2348 0.950 . S
C2346 C2345 1.387 . S
C2346 C2349 1.387 . S
H2347 C2343 0.950 . S
H2348 C2345 0.950 . S
C2349 C2340 1.390 . S
C2349 H2342 0.950 . S
C2349 C2346 1.387 . S
C2350 C2351 1.387 . S
C2350 H2354 0.950 . S
C2350 C2359 1.390 . S
C2351 C2350 1.387 . S
C2351 C2353 1.387 . S
H2352 C2359 0.950 . S
C2353 C2351 1.387 . S
C2353 C2355 1.390 . S
C2353 H2357 0.950 1_554 S
H2354 C2350 0.950 . S
C2355 C2353 1.390 . S
C2355 C2356 1.387 . S
C2355 H2358 0.950 . S
C2356 C2355 1.387 . S
C2356 C2359 1.387 . S
H2357 C2353 0.950 1_556 S
H2358 C2355 0.950 . S
C2359 C2350 1.390 . S
C2359 H2352 0.950 . S
C2359 C2356 1.387 . S
C2360 C2361 1.387 . S
C2360 H2364 0.950 . S
C2360 C2369 1.390 . S
C2361 C2360 1.387 . S
C2361 C2363 1.387 . S
H2362 C2369 0.950 . S
C2363 C2361 1.387 . S
C2363 C2365 1.390 . S
C2363 H2367 0.950 . S
H2364 C2360 0.950 . S
C2365 C2363 1.390 . S
C2365 C2366 1.387 . S
C2365 H2368 0.950 1_554 S
C2366 C2365 1.387 . S
C2366 C2369 1.387 . S
H2367 C2363 0.950 . S
H2368 C2365 0.950 1_556 S
C2369 C2360 1.390 . S
C2369 H2362 0.950 . S
C2369 C2366 1.387 . S
C2370 C2371 1.387 . S
C2370 H2374 0.950 . S
C2370 C2379 1.390 . S
C2371 C2370 1.387 . S
C2371 C2373 1.387 . S
H2372 C2379 0.950 . S
C2373 C2371 1.387 . S
C2373 C2375 1.390 . S
C2373 H2377 0.950 . S
H2374 C2370 0.950 . S
C2375 C2373 1.390 . S
C2375 C2376 1.387 . S
C2375 H2378 0.950 . S
C2376 C2375 1.387 . S
C2376 C2379 1.387 . S
H2377 C2373 0.950 . S
H2378 C2375 0.950 . S
C2379 C2370 1.390 . S
C2379 H2372 0.950 . S
C2379 C2376 1.387 . S
C2380 C2381 1.387 . S
C2380 H2384 0.950 . S
C2380 C2389 1.390 . S
C2381 C2380 1.387 . S
C2381 C2383 1.387 . S
H2382 C2389 0.950 . S
C2383 C2381 1.387 . S
C2383 C2385 1.390 . S
C2383 H2387 0.950 . S
H2384 C2380 0.950 . S
C2385 C2383 1.390 . S
C2385 C2386 1.387 . S
C2385 H2388 0.950 . S
C2386 C2385 1.387 . S
C2386 C2389 1.387 . S
H2387 C2383 0.950 . S
H2388 C2385 0.950 . S
C2389 C2380 1.390 . S
C2389 H2382 0.950 . S
C2389 C2386 1.387 . S
C2390 C2391 1.387 . S
C2390 H2394 0.950 . S
C2390 C2399 1.390 . S
C2391 C2390 1.387 . S
C2391 C2393 1.387 . S
H2392 C2399 0.950 . S
C2393 C2391 1.387 . S
C2393 C2395 1.390 . S
C2393 H2397 0.950 1_655 S
H2394 C2390 0.950 . S
C2395 C2393 1.390 . S
C2395 C2396 1.387 . S
C2395 H2398 0.950 . S
C2396 C2395 1.387 . S
C2396 C2399 1.387 . S
H2397 C2393 0.950 1_455 S
H2398 C2395 0.950 . S
C2399 C2390 1.390 . S
C2399 H2392 0.950 . S
C2399 C2396 1.387 . S
C2400 C2401 1.387 . S
C2400 H2404 0.950 . S
C2400 C2409 1.390 . S
C2401 C2400 1.387 . S
C2401 C2403 1.387 . S
H2402 C2409 0.950 . S
C2403 C2401 1.387 . S
C2403 C2405 1.390 . S
C2403 H2407 0.950 . S
H2404 C2400 0.950 . S
C2405 C2403 1.390 . S
C2405 C2406 1.387 . S
C2405 H2408 0.950 . S
C2406 C2405 1.387 . S
C2406 C2409 1.387 . S
H2407 C2403 0.950 . S
H2408 C2405 0.950 . S
C2409 C2400 1.390 . S
C2409 H2402 0.950 . S
C2409 C2406 1.387 . S
C2410 C2411 1.387 . S
C2410 H2414 0.950 . S
C2410 C2419 1.390 . S
C2411 C2410 1.387 . S
C2411 C2413 1.387 . S
H2412 C2419 0.950 . S
C2413 C2411 1.387 . S
C2413 C2415 1.390 . S
C2413 H2417 0.950 1_545 S
H2414 C2410 0.950 . S
C2415 C2413 1.390 . S
C2415 C2416 1.387 . S
C2415 H2418 0.950 . S
C2416 C2415 1.387 . S
C2416 C2419 1.387 . S
H2417 C2413 0.950 1_565 S
H2418 C2415 0.950 . S
C2419 C2410 1.390 . S
C2419 H2412 0.950 . S
C2419 C2416 1.387 . S
C2420 C2421 1.387 . S
C2420 H2424 0.950 . S
C2420 C2429 1.390 . S
C2421 C2420 1.387 . S
C2421 C2423 1.387 . S
H2422 C2429 0.950 . S
C2423 C2421 1.387 . S
C2423 C2425 1.390 . S
C2423 H2427 0.950 . S
H2424 C2420 0.950 . S
C2425 C2423 1.390 . S
C2425 C2426 1.387 . S
C2425 H2428 0.950 1_655 S
C2426 C2425 1.387 . S
C2426 C2429 1.387 . S
H2427 C2423 0.950 . S
H2428 C2425 0.950 1_455 S
C2429 C2420 1.390 . S
C2429 H2422 0.950 . S
C2429 C2426 1.387 . S
C2430 C2431 1.387 . S
C2430 H2434 0.950 . S
C2430 C2439 1.390 . S
C2431 C2430 1.387 . S
C2431 C2433 1.387 . S
H2432 C2439 0.950 . S
C2433 C2431 1.387 . S
C2433 C2435 1.390 . S
C2433 H2437 0.950 . S
H2434 C2430 0.950 . S
C2435 C2433 1.390 . S
C2435 C2436 1.387 . S
C2435 H2438 0.950 . S
C2436 C2435 1.387 . S
C2436 C2439 1.387 . S
H2437 C2433 0.950 . S
H2438 C2435 0.950 . S
C2439 C2430 1.390 . S
C2439 H2432 0.950 . S
C2439 C2436 1.387 . S
C2440 C2441 1.387 . S
C2440 H2444 0.950 . S
C2440 C2449 1.390 . S
C2441 C2440 1.387 . S
C2441 C2443 1.387 . S
H2442 C2449 0.950 . S
C2443 C2441 1.387 . S
C2443 C2445 1.390 . S
C2443 H2447 0.950 . S
H2444 C2440 0.950 . S
C2445 C2443 1.390 . S
C2445 C2446 1.387 . S
C2445 H2448 0.950 1_565 S
C2446 C2445 1.387 . S
C2446 C2449 1.387 . S
H2447 C2443 0.950 . S
H2448 C2445 0.950 1_545 S
C2449 C2440 1.390 . S
C2449 H2442 0.950 . S
C2449 C2446 1.387 . S
C2450 C2451 1.387 . S
C2450 H2454 0.950 . S
C2450 C2459 1.390 . S
C2451 C2450 1.387 . S
C2451 C2453 1.387 . S
H2452 C2459 0.950 . S
C2453 C2451 1.387 . S
C2453 C2455 1.390 . S
C2453 H2457 0.950 . S
H2454 C2450 0.950 . S
C2455 C2453 1.390 . S
C2455 C2456 1.387 . S
C2455 H2458 0.950 1_455 S
C2456 C2455 1.387 . S
C2456 C2459 1.387 . S
H2457 C2453 0.950 . S
H2458 C2455 0.950 1_655 S
C2459 C2450 1.390 . S
C2459 H2452 0.950 . S
C2459 C2456 1.387 . S
C2460 C2461 1.387 . S
C2460 H2464 0.950 . S
C2460 C2469 1.390 . S
C2461 C2460 1.387 . S
C2461 C2463 1.387 1_655 S
H2462 C2469 0.950 . S
C2463 C2461 1.387 1_455 S
C2463 C2465 1.390 . S
C2463 H2467 0.950 . S
H2464 C2460 0.950 . S
C2465 C2463 1.390 . S
C2465 C2466 1.387 . S
C2465 H2468 0.950 . S
C2466 C2465 1.387 . S
C2466 C2469 1.387 1_455 S
H2467 C2463 0.950 . S
H2468 C2465 0.950 . S
C2469 C2460 1.390 . S
C2469 H2462 0.950 . S
C2469 C2466 1.387 1_655 S
C2470 C2471 1.387 . S
C2470 H2474 0.950 . S
C2470 C2479 1.390 . S
C2471 C2470 1.387 . S
C2471 C2473 1.387 . S
H2472 C2479 0.950 . S
C2473 C2471 1.387 . S
C2473 C2475 1.390 . S
C2473 H2477 0.950 . S
H2474 C2470 0.950 . S
C2475 C2473 1.390 . S
C2475 C2476 1.387 . S
C2475 H2478 0.950 . S
C2476 C2475 1.387 . S
C2476 C2479 1.387 . S
H2477 C2473 0.950 . S
H2478 C2475 0.950 . S
C2479 C2470 1.390 . S
C2479 H2472 0.950 . S
C2479 C2476 1.387 . S
C2480 C2481 1.387 . S
C2480 H2484 0.950 . S
C2480 C2489 1.390 1_545 S
C2481 C2480 1.387 . S
C2481 C2483 1.387 . S
H2482 C2489 0.950 . S
C2483 C2481 1.387 . S
C2483 C2485 1.390 1_545 S
C2483 H2487 0.950 . S
H2484 C2480 0.950 . S
C2485 C2483 1.390 1_565 S
C2485 C2486 1.387 . S
C2485 H2488 0.950 . S
C2486 C2485 1.387 . S
C2486 C2489 1.387 . S
H2487 C2483 0.950 . S
H2488 C2485 0.950 . S
C2489 C2480 1.390 1_565 S
C2489 H2482 0.950 . S
C2489 C2486 1.387 . S
C2490 C2491 1.387 . S
C2490 H2494 0.950 . S
C2490 C2499 1.390 1_545 S
C2491 C2490 1.387 . S
C2491 C2493 1.387 . S
H2492 C2499 0.950 . S
C2493 C2491 1.387 . S
C2493 C2495 1.390 1_545 S
C2493 H2497 0.950 . S
H2494 C2490 0.950 . S
C2495 C2493 1.390 1_565 S
C2495 C2496 1.387 . S
C2495 H2498 0.950 . S
C2496 C2495 1.387 . S
C2496 C2499 1.387 . S
H2497 C2493 0.950 . S
H2498 C2495 0.950 . S
C2499 C2490 1.390 1_565 S
C2499 H2492 0.950 . S
C2499 C2496 1.387 . S
C2500 C2501 1.387 . S
C2500 H2504 0.950 . S
C2500 C2509 1.390 1_655 S
C2501 C2500 1.387 . S
C2501 C2503 1.387 . S
H2502 C2509 0.950 . S
C2503 C2501 1.387 . S
C2503 C2505 1.390 1_655 S
C2503 H2507 0.950 . S
H2504 C2500 0.950 . S
C2505 C2503 1.390 1_455 S
C2505 C2506 1.387 . S
C2505 H2508 0.950 . S
C2506 C2505 1.387 . S
C2506 C2509 1.387 . S
H2507 C2503 0.950 . S
H2508 C2505 0.950 . S
C2509 C2500 1.390 1_455 S
C2509 H2502 0.950 . S
C2509 C2506 1.387 . S
C2510 C2511 1.387 . S
C2510 H2514 0.950 . S
C2510 C2519 1.390 . S
C2511 C2510 1.387 . S
C2511 C2513 1.387 . S
H2512 C2519 0.950 . S
C2513 C2511 1.387 . S
C2513 C2515 1.390 . S
C2513 H2517 0.950 . S
H2514 C2510 0.950 . S
C2515 C2513 1.390 . S
C2515 C2516 1.387 . S
C2515 H2518 0.950 . S
C2516 C2515 1.387 . S
C2516 C2519 1.387 . S
H2517 C2513 0.950 . S
H2518 C2515 0.950 . S
C2519 C2510 1.390 . S
C2519 H2512 0.950 . S
C2519 C2516 1.387 . S
C1441 C6 1.878 . S
C1446 C290 1.893 . S
C1451 C330 1.894 . S
C1456 C46 1.879 . S
C1461 C250 1.894 . S
C1466 C86 1.878 . S
C1471 C450 1.892 . S
C1476 C126 1.878 . S
C1481 C166 1.880 . S
C1486 C370 1.893 . S
C1491 C206 1.880 . S
C1496 C410 1.893 . S
C1501 C59 1.895 . S
C1506 C255 1.878 . S
C1511 C295 1.878 . S
C1516 C99 1.894 . S
C1521 C19 1.894 . S
C1526 C335 1.878 . S
C1531 C219 1.893 . S
C1536 C375 1.879 . S
C1541 C415 1.878 . S
C1546 C139 1.891 . S
C1551 C455 1.879 . S
C1556 C179 1.893 . S
C1561 C486 1.879 . S
C1566 C770 1.893 . S
C1571 C810 1.892 . S
C1576 C526 1.878 . S
C1581 C730 1.892 . S
C1586 C566 1.878 . S
C1591 C606 1.880 . S
C1596 C930 1.893 . S
C1601 C850 1.892 . S
C1606 C646 1.879 . S
C1611 C686 1.880 . S
C1616 C890 1.893 . S
C1621 C735 1.878 . S
C1626 C539 1.892 . S
C1631 C579 1.894 . S
C1636 C775 1.880 . S
C1641 C815 1.880 . S
C1646 C499 1.893 . S
C1651 C699 1.892 . S
C1656 C855 1.878 . S
C1661 C619 1.892 . S
C1666 C895 1.878 . S
C1671 C935 1.879 . S
C1676 C659 1.893 . S
C1681 C966 1.880 . S
C1686 C1250 1.893 . S
C1691 C1006 1.878 . S
C1696 C1290 1.892 . S
C1701 C1210 1.893 . S
C1706 C1046 1.880 . S
C1711 C1410 1.892 . S
C1716 C1086 1.878 . S
C1721 C1126 1.878 . S
C1726 C1330 1.892 . S
C1731 C1370 1.893 . S
C1736 C1166 1.880 . S
C1741 C1019 1.893 . S
C1746 C1215 1.880 . S
C1751 C1255 1.880 . S
C1756 C1059 1.893 . S
C1761 C979 1.893 . S
C1766 C1295 1.878 . S
C1771 C1335 1.878 . S
C1776 C1179 1.892 . S
C1781 C1375 1.879 . S
C1786 C1099 1.892 . S
C1791 C1415 1.879 . S
C1796 C1139 1.892 . S
C1801 C10 2.465 . S
C1806 C739 2.465 . S
C1811 C50 2.463 . S
C1816 C779 2.463 . S
C1821 C819 2.462 . S
C1826 C90 2.462 . S
C1831 C1339 2.464 . S
C1836 C130 2.464 . S
C1841 C1379 2.462 . S
C1846 C170 2.462 . S
C1851 C1419 2.463 . S
C1856 C210 2.463 . S
C1861 C259 2.465 . S
C1866 C970 2.465 . S
C1871 C1010 2.463 . S
C1876 C299 2.463 . S
C1881 C339 2.465 . S
C1886 C1050 2.465 . S
C1891 C379 2.465 . S
C1896 C610 2.465 . S
C1901 C419 2.465 . S
C1906 C650 2.465 . S
C1911 C459 2.463 . S
C1916 C690 2.463 . S
C1921 C490 2.462 . S
C1926 C1219 2.462 . S
C1931 C1259 2.463 . S
C1936 C530 2.463 . S
C1941 C570 2.463 . S
C1946 C1299 2.463 . S
C1951 C1090 2.465 . S
C1956 C859 2.465 . S
C1961 C899 2.462 . S
C1966 C1130 2.462 . S
C1971 C1170 2.465 . S
C1976 C939 2.465 . S
C1981 C18 2.349 1_556 S
C1986 C658 2.348 . S
C1991 C58 2.351 1_556 S
C1996 C698 2.350 . S
C2001 C618 2.348 . S
C2006 C98 2.348 1_556 S
C2011 C138 2.351 . S
C2016 C1058 2.351 . S
C2021 C978 2.350 . S
C2026 C178 2.348 . S
C2031 C218 2.349 . S
C2036 C1018 2.351 . S
C2041 C1369 2.348 . S
C2046 C249 2.350 1_554 S
C2051 C289 2.351 1_554 S
C2056 C1409 2.349 . S
C2061 C1329 2.351 . S
C2066 C329 2.351 1_554 S
C2071 C369 2.348 . S
C2076 C809 2.348 . S
C2081 C409 2.348 . S
C2086 C729 2.349 . S
C2091 C449 2.349 . S
C2096 C769 2.351 . S
C2101 C1138 2.351 . S
C2106 C498 2.351 . S
C2111 C538 2.348 . S
C2116 C1178 2.350 . S
C2121 C578 2.348 . S
C2126 C1098 2.348 . S
C2131 C1289 2.351 . S
C2136 C849 2.351 . S
C2141 C1209 2.350 . S
C2146 C889 2.348 . S
C2151 C1249 2.351 . S
C2156 C929 2.349 . S
C2161 C129 3.044 . S
C2166 C9 3.043 . S
C2171 C49 3.043 . S
C2176 C169 3.043 . S
C2181 C89 3.044 . S
C2186 C209 3.045 . S
C2191 C378 3.044 . S
C2196 C258 3.044 . S
C2201 C298 3.045 . S
C2206 C418 3.045 . S
C2211 C458 3.045 . S
C2216 C338 3.045 . S
C2221 C609 3.044 . S
C2226 C489 3.044 . S
C2231 C529 3.045 . S
C2236 C649 3.045 . S
C2241 C569 3.045 . S
C2246 C689 3.045 . S
C2251 C738 3.044 . S
C2256 C858 3.044 . S
C2261 C778 3.045 . S
C2266 C898 3.045 . S
C2271 C818 3.044 . S
C2276 C938 3.045 . S
C2281 C969 3.045 . S
C2286 C1089 3.044 . S
C2291 C1129 3.043 . S
C2296 C1009 3.043 . S
C2301 C1169 3.043 . S
C2306 C1049 3.044 . S
C2311 C1218 3.043 . S
C2316 C1338 3.044 . S
C2321 C1378 3.043 . S
C2326 C1258 3.043 . S
C2331 C1298 3.044 . S
C2336 C1418 3.043 . S
C2341 C15 0.489 . S
C2346 C1175 0.489 . S
C2351 C1095 0.479 . S
C2356 C55 0.484 . S
C2361 C95 0.488 . S
C2366 C1135 0.484 . S
C2371 C535 0.487 . S
C2376 C135 0.489 . S
C2381 C175 0.485 . S
C2386 C575 0.480 . S
C2391 C215 0.479 . S
C2396 C495 0.479 . S
C2401 C926 0.479 . S
C2406 C246 0.479 . S
C2411 C286 0.486 . S
C2416 C846 0.489 . S
C2421 C886 0.489 . S
C2426 C326 0.486 . S
C2431 C366 0.480 . S
C2436 C1246 0.478 . S
C2441 C1286 0.489 . S
C2446 C406 0.487 . S
C2451 C1206 0.487 . S
C2456 C446 0.489 . S
C2461 C615 0.482 . S
C2466 C1015 0.487 . S
C2471 C655 0.488 . S
C2476 C1055 0.489 . S
C2481 C695 0.479 . S
C2486 C975 0.479 . S
C2491 C726 0.479 . S
C2496 C1406 0.479 . S
C2501 C766 0.478 . S
C2506 C1326 0.481 . S
C2511 C1366 0.487 . S
C2516 C806 0.489 . S
