# Generated by pormake.
# Topology wld, (5)-cn, num edge types: 1
# Building blocks:
#     Node 0, Type 0, BuildingBlock: XOMCOT_clean_sbu_1, # of connection points: 5
#     Node 1, Type 0, BuildingBlock: XOMCOT_clean_sbu_1, # of connection points: 5
#     Node 2, Type 0, BuildingBlock: XOMCOT_clean_sbu_1, # of connection points: 5
#     Node 3, Type 0, BuildingBlock: XOMCOT_clean_sbu_1, # of connection points: 5
#     Node 4, Type 0, BuildingBlock: XOMCOT_clean_sbu_1, # of connection points: 5
#     Node 5, Type 0, BuildingBlock: XOMCOT_clean_sbu_1, # of connection points: 5
#     Node 6, Type 0, BuildingBlock: XOMCOT_clean_sbu_1, # of connection points: 5
#     Node 7, Type 0, BuildingBlock: XOMCOT_clean_sbu_1, # of connection points: 5
#     Node 8, Type 0, BuildingBlock: XOMCOT_clean_sbu_1, # of connection points: 5
#     Node 9, Type 0, BuildingBlock: XOMCOT_clean_sbu_1, # of connection points: 5
#     Node 10, Type 0, BuildingBlock: XOMCOT_clean_sbu_1, # of connection points: 5
#     Node 11, Type 0, BuildingBlock: XOMCOT_clean_sbu_1, # of connection points: 5
#     Edge 12, Type (0, 0), BuildingBlock: XIVTED_clean_linker_0, # of connection points: 2
#     Edge 13, Type (0, 0), BuildingBlock: XIVTED_clean_linker_0, # of connection points: 2
#     Edge 14, Type (0, 0), BuildingBlock: XIVTED_clean_linker_0, # of connection points: 2
#     Edge 15, Type (0, 0), BuildingBlock: XIVTED_clean_linker_0, # of connection points: 2
#     Edge 16, Type (0, 0), BuildingBlock: XIVTED_clean_linker_0, # of connection points: 2
#     Edge 17, Type (0, 0), BuildingBlock: XIVTED_clean_linker_0, # of connection points: 2
#     Edge 18, Type (0, 0), BuildingBlock: XIVTED_clean_linker_0, # of connection points: 2
#     Edge 19, Type (0, 0), BuildingBlock: XIVTED_clean_linker_0, # of connection points: 2
#     Edge 20, Type (0, 0), BuildingBlock: XIVTED_clean_linker_0, # of connection points: 2
#     Edge 21, Type (0, 0), BuildingBlock: XIVTED_clean_linker_0, # of connection points: 2
#     Edge 22, Type (0, 0), BuildingBlock: XIVTED_clean_linker_0, # of connection points: 2
#     Edge 23, Type (0, 0), BuildingBlock: XIVTED_clean_linker_0, # of connection points: 2
#     Edge 24, Type (0, 0), BuildingBlock: XIVTED_clean_linker_0, # of connection points: 2
#     Edge 25, Type (0, 0), BuildingBlock: XIVTED_clean_linker_0, # of connection points: 2
#     Edge 26, Type (0, 0), BuildingBlock: XIVTED_clean_linker_0, # of connection points: 2
#     Edge 27, Type (0, 0), BuildingBlock: XIVTED_clean_linker_0, # of connection points: 2
#     Edge 28, Type (0, 0), BuildingBlock: XIVTED_clean_linker_0, # of connection points: 2
#     Edge 29, Type (0, 0), BuildingBlock: XIVTED_clean_linker_0, # of connection points: 2
#     Edge 30, Type (0, 0), BuildingBlock: XIVTED_clean_linker_0, # of connection points: 2
#     Edge 31, Type (0, 0), BuildingBlock: XIVTED_clean_linker_0, # of connection points: 2
#     Edge 32, Type (0, 0), BuildingBlock: XIVTED_clean_linker_0, # of connection points: 2
#     Edge 33, Type (0, 0), BuildingBlock: XIVTED_clean_linker_0, # of connection points: 2
#     Edge 34, Type (0, 0), BuildingBlock: XIVTED_clean_linker_0, # of connection points: 2
#     Edge 35, Type (0, 0), BuildingBlock: XIVTED_clean_linker_0, # of connection points: 2
#     Edge 36, Type (0, 0), BuildingBlock: XIVTED_clean_linker_0, # of connection points: 2
#     Edge 37, Type (0, 0), BuildingBlock: XIVTED_clean_linker_0, # of connection points: 2
#     Edge 38, Type (0, 0), BuildingBlock: XIVTED_clean_linker_0, # of connection points: 2
#     Edge 39, Type (0, 0), BuildingBlock: XIVTED_clean_linker_0, # of connection points: 2
#     Edge 40, Type (0, 0), BuildingBlock: XIVTED_clean_linker_0, # of connection points: 2
#     Edge 41, Type (0, 0), BuildingBlock: XIVTED_clean_linker_0, # of connection points: 2
# Relax obj value: 0.226
# Max RMSD: 0.209
# Mean RMSD: 0.209
data_MOF--net-wld--node1-XOMCOT_clean_sbu_1--edge1-XIVTED_clean_linker_0
_symmetry_space_group_name_H-M    P1
_symmetry_Int_Tables_number       1
_symmetry_cell_setting            triclinic
loop_
_symmetry_equiv_pos_as_xyz
'x, y, z'
_cell_length_a     37.081944
_cell_length_b     37.124451
_cell_length_c     52.974778
_cell_angle_alpha  90.136859
_cell_angle_beta   89.92931
_cell_angle_gamma 120.08425
loop_
_atom_site_label
_atom_site_type_symbol
_atom_site_fract_x
_atom_site_fract_y
_atom_site_fract_z
_atom_type_partial_charge
C0 C 0.3788 0.23339 0.09921 0.0
C1 C 0.39512 0.20745 0.10201 0.0
N2 N 0.43399 0.22689 0.09243 0.0
N3 N 0.40725 0.2687 0.08773 0.0
C4 C 0.4406 0.2639 0.08397 0.0
H5 H 0.34728 0.22586 0.10358 0.0
Co6 Co 0.39718 0.308 0.0731 0.0
C7 C 0.48103 0.37171 0.05773 0.0
O8 O 0.46717 0.37111 0.03483 0.0
N9 N 0.38603 0.34695 0.05828 0.0
C10 C 0.38195 0.4036 0.05059 0.0
C11 C 0.40456 0.38834 0.06239 0.0
C12 C 0.35207 0.33773 0.04434 0.0
N13 N 0.34866 0.37159 0.03934 0.0
O14 O 0.40446 0.28953 0.04097 0.0
H15 H 0.43159 0.40603 0.07423 0.0
H16 H 0.32882 0.30625 0.03946 0.0
O17 O 0.45609 0.34849 0.07487 0.0
C18 C 0.37247 0.25657 0.03319 0.0
O19 O 0.33738 0.24247 0.04576 0.0
N20 N 0.38746 0.32329 0.10461 0.0
C21 C 0.36233 0.34094 0.15026 0.0
C22 C 0.40415 0.35203 0.14635 0.0
C23 C 0.41615 0.34272 0.1233 0.0
C24 C 0.34675 0.31165 0.10823 0.0
C25 C 0.33358 0.3206 0.13075 0.0
H26 H 0.44819 0.35064 0.12067 0.0
H27 H 0.32436 0.29546 0.09336 0.0
H28 H 0.46774 0.28535 0.07316 0.0
H29 H 0.37906 0.17605 0.1094 0.0
H30 H 0.38901 0.43561 0.05098 0.0
H31 H 0.42721 0.36703 0.16108 0.0
H32 H 0.30114 0.31188 0.1327 0.0
C33 C 0.76133 0.15 0.09196 0.0
C34 C 0.78709 0.19214 0.09578 0.0
N35 N 0.7674 0.21181 0.08714 0.0
N36 N 0.72591 0.14348 0.08077 0.0
C37 C 0.73052 0.18172 0.07813 0.0
H38 H 0.76872 0.12585 0.0959 0.0
Co39 Co 0.68495 0.0938 0.06695 0.0
C40 C 0.62286 0.11619 0.05144 0.0
O41 O 0.62213 0.10183 0.02864 0.0
N42 N 0.64409 0.04328 0.05308 0.0
C43 C 0.58562 0.98274 0.04766 0.0
C44 C 0.60277 0.02203 0.05794 0.0
C45 C 0.65133 0.0162 0.04014 0.0
N46 N 0.61637 0.979 0.0367 0.0
O47 O 0.70357 0.11736 0.0343 0.0
H48 H 0.58656 0.03326 0.06965 0.0
H49 H 0.68209 0.02292 0.03453 0.0
O50 O 0.64606 0.11412 0.06842 0.0
C51 C 0.73572 0.11574 0.02762 0.0
O52 O 0.74727 0.09401 0.04155 0.0
N53 N 0.67005 0.07092 0.09892 0.0
C54 C 0.6583 0.03461 0.14632 0.0
C55 C 0.64715 0.06507 0.14182 0.0
C56 C 0.65351 0.08314 0.11786 0.0
C57 C 0.68085 0.04141 0.10295 0.0
C58 C 0.67472 0.02245 0.12634 0.0
H59 H 0.64631 0.10762 0.11479 0.0
H60 H 0.69492 0.03297 0.08787 0.0
H61 H 0.70863 0.1878 0.06821 0.0
H62 H 0.81825 0.20725 0.1036 0.0
H63 H 0.55361 0.95799 0.04966 0.0
H64 H 0.63493 0.07575 0.15683 0.0
H65 H 0.68315 0.99864 0.12874 0.0
C66 C 0.84376 0.61609 0.10149 0.0
C67 C 0.8016 0.5996 0.10539 0.0
N68 N 0.78171 0.56069 0.0959 0.0
N69 N 0.85004 0.58771 0.08938 0.0
C70 C 0.81168 0.55427 0.08633 0.0
H71 H 0.86801 0.64753 0.10578 0.0
Co72 Co 0.89911 0.59729 0.07429 0.0
C73 C 0.87727 0.51407 0.05703 0.0
O74 O 0.89069 0.52932 0.03438 0.0
N75 N 0.949 0.60774 0.05916 0.0
C76 C 0.0097 0.61072 0.05282 0.0
C77 C 0.97084 0.58823 0.06353 0.0
C78 C 0.97531 0.64212 0.04602 0.0
N79 N 0.01264 0.64491 0.04201 0.0
O80 O 0.87357 0.59229 0.04228 0.0
H81 H 0.96038 0.561 0.07529 0.0
H82 H 0.96798 0.66581 0.04074 0.0
O83 O 0.87938 0.53803 0.07496 0.0
C84 C 0.87394 0.62564 0.03624 0.0
O85 O 0.89595 0.65901 0.05016 0.0
N86 N 0.92404 0.60539 0.10564 0.0
C87 C 0.96748 0.62987 0.15109 0.0
C88 C 0.93616 0.58822 0.14716 0.0
C89 C 0.91459 0.57654 0.12416 0.0
C90 C 0.95361 0.64589 0.10931 0.0
C91 C 0.97616 0.65866 0.13163 0.0
H92 H 0.89012 0.54466 0.12141 0.0
H93 H 0.95992 0.66843 0.09459 0.0
H94 H 0.80542 0.52697 0.07551 0.0
H95 H 0.7866 0.61543 0.11365 0.0
H96 H 0.03476 0.60392 0.05447 0.0
H97 H 0.92791 0.56508 0.1618 0.0
H98 H 1.00047 0.69089 0.13341 0.0
C99 C 0.15401 0.39593 0.3749 0.0
C100 C 0.13961 0.42374 0.37523 0.0
N101 N 0.16346 0.45486 0.39136 0.0
N102 N 0.18673 0.40963 0.39071 0.0
C103 C 0.19143 0.44526 0.40061 0.0
H104 H 0.14179 0.36783 0.36369 0.0
Co105 Co 0.21872 0.38538 0.39777 0.0
C106 C 0.29143 0.45304 0.42339 0.0
O107 O 0.28879 0.42808 0.44173 0.0
N108 N 0.25163 0.36131 0.40496 0.0
C109 C 0.30613 0.35179 0.40753 0.0
C110 C 0.29029 0.37398 0.396 0.0
C111 C 0.24446 0.33089 0.42156 0.0
N112 N 0.27736 0.32484 0.42381 0.0
O113 O 0.19993 0.37829 0.43185 0.0
H114 H 0.30684 0.3993 0.38284 0.0
H115 H 0.21613 0.31428 0.43238 0.0
O116 O 0.26546 0.43943 0.40525 0.0
C117 C 0.1649 0.34507 0.43435 0.0
O118 O 0.14862 0.32064 0.41461 0.0
N119 N 0.23416 0.38998 0.36404 0.0
C120 C 0.25664 0.38674 0.31436 0.0
C121 C 0.2707 0.42522 0.32646 0.0
C122 C 0.25876 0.42621 0.35138 0.0
C123 C 0.21858 0.35253 0.35223 0.0
C124 C 0.22968 0.35014 0.32746 0.0
H125 H 0.26972 0.45597 0.3605 0.0
H126 H 0.1985 0.32426 0.36251 0.0
H127 H 0.2147 0.46369 0.4146 0.0
H128 H 0.11426 0.42171 0.36403 0.0
H129 H 0.33737 0.35699 0.40517 0.0
H130 H 0.29082 0.45421 0.31682 0.0
H131 H 0.21832 0.31975 0.31901 0.0
C132 C 0.60111 0.76177 0.35756 0.0
C133 C 0.56734 0.72201 0.35763 0.0
N134 N 0.54331 0.7185 0.3776 0.0
N135 N 0.59825 0.78288 0.37747 0.0
C136 C 0.56266 0.75573 0.38932 0.0
H137 H 0.62719 0.77392 0.34463 0.0
Co138 Co 0.64014 0.83402 0.38872 0.0
C139 C 0.59222 0.876 0.40174 0.0
O140 O 0.62056 0.90998 0.39042 0.0
N141 N 0.68464 0.88455 0.40064 0.0
C142 C 0.75129 0.92805 0.41003 0.0
C143 C 0.72426 0.89386 0.39621 0.0
C144 C 0.68849 0.91256 0.41846 0.0
N145 N 0.72877 0.93987 0.42403 0.0
O146 O 0.64353 0.80879 0.41917 0.0
H147 H 0.73297 0.87526 0.38478 0.0
H148 H 0.66267 0.91111 0.4288 0.0
O149 O 0.59767 0.84469 0.40354 0.0
C150 C 0.66441 0.79026 0.41688 0.0
O151 O 0.67915 0.78902 0.39452 0.0
N152 N 0.63799 0.85814 0.3576 0.0
C153 C 0.63742 0.89271 0.31088 0.0
C154 C 0.60044 0.86983 0.32461 0.0
C155 C 0.60127 0.85215 0.34772 0.0
C156 C 0.67356 0.87803 0.34362 0.0
C157 C 0.67422 0.89633 0.32062 0.0
H158 H 0.5722 0.83335 0.35758 0.0
H159 H 0.70169 0.87921 0.34978 0.0
H160 H 0.55273 0.76205 0.40718 0.0
H161 H 0.56154 0.69719 0.34458 0.0
H162 H 0.78487 0.94215 0.41044 0.0
H163 H 0.57098 0.86485 0.31737 0.0
H164 H 0.70351 0.9132 0.31059 0.0
C165 C 0.26218 0.84224 0.35961 0.0
C166 C 0.30332 0.85283 0.36037 0.0
N167 N 0.30901 0.83406 0.38046 0.0
N168 N 0.24176 0.81665 0.37902 0.0
C169 C 0.2711 0.81206 0.39143 0.0
H170 H 0.24844 0.85405 0.34639 0.0
Co171 Co 0.18739 0.80125 0.38789 0.0
C172 C 0.14615 0.71235 0.40157 0.0
O173 O 0.11188 0.70754 0.39112 0.0
N174 N 0.13254 0.7877 0.39745 0.0
C175 C 0.06869 0.77929 0.39944 0.0
C176 C 0.10365 0.79271 0.38481 0.0
C177 C 0.11465 0.7729 0.42029 0.0
N178 N 0.07549 0.76656 0.42172 0.0
O179 O 0.20692 0.82853 0.41951 0.0
H180 H 0.10714 0.80608 0.36637 0.0
H181 H 0.12979 0.76582 0.43536 0.0
O182 O 0.17899 0.74847 0.40194 0.0
C183 C 0.2192 0.86715 0.41758 0.0
O184 O 0.21696 0.88171 0.3954 0.0
N185 N 0.1697 0.77731 0.35557 0.0
C186 C 0.13957 0.74723 0.3073 0.0
C187 C 0.15405 0.72665 0.32289 0.0
C188 C 0.17002 0.74282 0.34676 0.0
C189 C 0.16132 0.80058 0.3394 0.0
C190 C 0.14486 0.78557 0.31553 0.0
H191 H 0.18278 0.72759 0.35791 0.0
H192 H 0.16658 0.83072 0.34534 0.0
H193 H 0.26537 0.79513 0.40897 0.0
H194 H 0.32749 0.87369 0.34751 0.0
H195 H 0.04072 0.77977 0.39422 0.0
H196 H 0.15321 0.69841 0.31672 0.0
H197 H 0.13536 0.80346 0.30408 0.0
C198 C 0.61194 0.76592 0.88703 0.0
C199 C 0.59568 0.79194 0.88425 0.0
N200 N 0.55605 0.77166 0.8926 0.0
N201 N 0.58267 0.72976 0.89729 0.0
C202 C 0.54893 0.73413 0.90032 0.0
H203 H 0.64386 0.77393 0.88359 0.0
Co204 Co 0.59156 0.68965 0.91186 0.0
C205 C 0.50663 0.62583 0.92519 0.0
O206 O 0.51918 0.62587 0.94837 0.0
N207 N 0.60147 0.64975 0.92667 0.0
C208 C 0.6046 0.59241 0.93374 0.0
C209 C 0.58251 0.60844 0.92217 0.0
C210 C 0.63521 0.65813 0.94061 0.0
N211 N 0.63811 0.62384 0.94521 0.0
O212 O 0.58246 0.70704 0.94397 0.0
H213 H 0.55568 0.59135 0.91008 0.0
H214 H 0.65878 0.68939 0.94562 0.0
O215 O 0.53261 0.64935 0.90854 0.0
C216 C 0.61457 0.73941 0.95227 0.0
O217 O 0.65011 0.7528 0.94033 0.0
N218 N 0.60343 0.67586 0.88049 0.0
C219 C 0.63271 0.66174 0.83524 0.0
C220 C 0.59058 0.65052 0.83791 0.0
C221 C 0.57648 0.65796 0.86081 0.0
C222 C 0.64438 0.68758 0.8781 0.0
C223 C 0.65952 0.68023 0.85587 0.0
H224 H 0.54428 0.65001 0.86253 0.0
H225 H 0.66544 0.7027 0.89372 0.0
H226 H 0.52102 0.71192 0.91022 0.0
H227 H 0.61223 0.82389 0.8778 0.0
H228 H 0.59715 0.56031 0.93285 0.0
H229 H 0.56891 0.63689 0.82236 0.0
H230 H 0.69204 0.68883 0.85501 0.0
C231 C 0.229 0.84683 0.89383 0.0
C232 C 0.20293 0.80457 0.89094 0.0
N233 N 0.22313 0.7853 0.89936 0.0
N234 N 0.26516 0.85387 0.9042 0.0
C235 C 0.26066 0.81575 0.90727 0.0
H236 H 0.22111 0.87071 0.89017 0.0
Co237 Co 0.30559 0.90385 0.91788 0.0
C238 C 0.36749 0.88206 0.93501 0.0
O239 O 0.36757 0.89665 0.95764 0.0
N240 N 0.34551 0.95465 0.93151 0.0
C241 C 0.40321 0.01561 0.93747 0.0
C242 C 0.38717 0.976 0.92787 0.0
C243 C 0.33695 0.98198 0.94293 0.0
N244 N 0.37143 0.0194 0.94673 0.0
O245 O 0.28641 0.88071 0.95049 0.0
H246 H 0.40451 0.96457 0.91746 0.0
H247 H 0.3057 0.97512 0.94729 0.0
O248 O 0.34461 0.88374 0.91766 0.0
C249 C 0.25396 0.88139 0.9576 0.0
O250 O 0.24143 0.90288 0.94427 0.0
N251 N 0.32148 0.92629 0.88588 0.0
C252 C 0.3388 0.96596 0.83941 0.0
C253 C 0.35746 0.94259 0.84627 0.0
C254 C 0.34808 0.92253 0.86967 0.0
C255 C 0.30321 0.94889 0.87951 0.0
C256 C 0.31132 0.96892 0.85632 0.0
H257 H 0.36229 0.90426 0.87457 0.0
H258 H 0.28228 0.95141 0.89269 0.0
H259 H 0.28293 0.81004 0.91703 0.0
H260 H 0.1711 0.78911 0.88416 0.0
H261 H 0.43534 0.04041 0.93624 0.0
H262 H 0.37858 0.9394 0.83355 0.0
H263 H 0.29666 0.98705 0.85182 0.0
C264 C 0.14446 0.38352 0.87883 0.0
C265 C 0.18654 0.40039 0.87441 0.0
N266 N 0.20652 0.43878 0.88463 0.0
N267 N 0.13822 0.41112 0.89194 0.0
C268 C 0.17665 0.44449 0.89513 0.0
H269 H 0.12032 0.35218 0.87423 0.0
Co270 Co 0.08938 0.40042 0.90813 0.0
C271 C 0.11499 0.48327 0.92874 0.0
O272 O 0.10323 0.46752 0.95146 0.0
N273 N 0.03995 0.38874 0.92421 0.0
C274 C 0.98127 0.38736 0.93472 0.0
C275 C 0.02011 0.41086 0.92419 0.0
C276 C 0.01227 0.35171 0.93435 0.0
N277 N 0.9761 0.34986 0.94096 0.0
O278 O 0.11521 0.40199 0.93946 0.0
H279 H 0.03198 0.44126 0.91582 0.0
H280 H 0.01777 0.32579 0.93533 0.0
O281 O 0.11016 0.45959 0.91005 0.0
C282 C 0.1151 0.36842 0.9444 0.0
O283 O 0.09338 0.33595 0.92975 0.0
N284 N 0.06378 0.3959 0.87737 0.0
C285 C 0.01387 0.37465 0.83452 0.0
C286 C 0.03799 0.41648 0.84205 0.0
C287 C 0.06295 0.42657 0.86365 0.0
C288 C 0.04155 0.35545 0.86996 0.0
C289 C 0.01659 0.34412 0.84856 0.0
H290 H 0.08057 0.45873 0.86952 0.0
H291 H 0.04267 0.33171 0.88118 0.0
H292 H 0.18317 0.47109 0.90674 0.0
H293 H 0.20145 0.38506 0.86539 0.0
H294 H 0.95834 0.397 0.93684 0.0
H295 H 0.03676 0.44103 0.83179 0.0
H296 H 0.99949 0.31161 0.84314 0.0
C297 C 0.85688 0.59712 0.62187 0.0
C298 C 0.86521 0.56495 0.62027 0.0
N299 N 0.84084 0.53867 0.60206 0.0
N300 N 0.82755 0.59097 0.60468 0.0
C301 C 0.81845 0.55516 0.59288 0.0
H302 H 0.87217 0.62398 0.63414 0.0
Co303 Co 0.81006 0.62805 0.59638 0.0
C304 C 0.72091 0.57547 0.58192 0.0
O305 O 0.7132 0.60342 0.59181 0.0
N306 N 0.79381 0.66711 0.58725 0.0
C307 C 0.78189 0.72019 0.58502 0.0
C308 C 0.79657 0.70011 0.59991 0.0
C309 C 0.77888 0.66912 0.5643 0.0
N310 N 0.77053 0.7005 0.56263 0.0
O311 O 0.83807 0.63763 0.56473 0.0
H312 H 0.80921 0.71029 0.61852 0.0
H313 H 0.77327 0.64711 0.54927 0.0
O314 O 0.75822 0.58188 0.58202 0.0
C315 C 0.87642 0.66514 0.56688 0.0
O316 O 0.89021 0.68242 0.5891 0.0
N317 N 0.78579 0.62014 0.62862 0.0
C318 C 0.75462 0.61816 0.67685 0.0
C319 C 0.73531 0.58314 0.66101 0.0
C320 C 0.75198 0.58443 0.63715 0.0
C321 C 0.80807 0.65195 0.64502 0.0
C322 C 0.79244 0.65235 0.66888 0.0
H323 H 0.73772 0.55654 0.6258 0.0
H324 H 0.83767 0.67791 0.63917 0.0
H325 H 0.79753 0.54251 0.57694 0.0
H326 H 0.88772 0.56138 0.63136 0.0
H327 H 0.78062 0.74776 0.59014 0.0
H328 H 0.70761 0.55495 0.66695 0.0
H329 H 0.80936 0.67983 0.68052 0.0
C330 C 0.41836 0.2506 0.62349 0.0
C331 C 0.44936 0.29153 0.62229 0.0
N332 N 0.47614 0.29535 0.60389 0.0
N333 N 0.42558 0.22853 0.60603 0.0
C334 C 0.46112 0.25663 0.59433 0.0
H335 H 0.39122 0.23807 0.63556 0.0
Co336 Co 0.38753 0.17369 0.59798 0.0
C337 C 0.4367 0.13353 0.58442 0.0
O338 O 0.40744 0.09852 0.59427 0.0
N339 N 0.3472 0.11825 0.58928 0.0
C340 C 0.29354 0.05328 0.58815 0.0
C341 C 0.315 0.08844 0.60269 0.0
C342 C 0.34341 0.10061 0.5663 0.0
N343 N 0.31158 0.06092 0.56527 0.0
O344 O 0.38004 0.19129 0.56579 0.0
H345 H 0.30646 0.09142 0.62166 0.0
H346 H 0.36454 0.11635 0.5508 0.0
O347 O 0.43269 0.16586 0.58474 0.0
C348 C 0.34889 0.19687 0.56584 0.0
O349 O 0.32761 0.19008 0.58687 0.0
N350 N 0.39337 0.15788 0.63073 0.0
C351 C 0.38872 0.1266 0.67902 0.0
C352 C 0.42393 0.13814 0.66389 0.0
C353 C 0.42619 0.15493 0.63998 0.0
C354 C 0.36203 0.15244 0.6465 0.0
C355 C 0.35865 0.13614 0.67058 0.0
H356 H 0.4541 0.1649 0.62903 0.0
H357 H 0.33824 0.15879 0.63976 0.0
H358 H 0.47425 0.24941 0.57817 0.0
H359 H 0.45146 0.3168 0.63365 0.0
H360 H 0.26623 0.02458 0.59386 0.0
H361 H 0.4488 0.13294 0.66998 0.0
H362 H 0.3321 0.13 0.68217 0.0
C363 C 0.76177 0.14412 0.61024 0.0
C364 C 0.71936 0.12811 0.60857 0.0
N365 N 0.71238 0.15312 0.59343 0.0
N366 N 0.78125 0.17897 0.59622 0.0
C367 C 0.75039 0.1835 0.58609 0.0
H368 H 0.7775 0.13146 0.62112 0.0
Co369 Co 0.83819 0.21216 0.59213 0.0
C370 C 0.84723 0.28199 0.56152 0.0
O371 O 0.87276 0.2783 0.54591 0.0
N372 N 0.89647 0.24634 0.58812 0.0
C373 C 0.96055 0.30118 0.59041 0.0
C374 C 0.92056 0.2837 0.59931 0.0
C375 C 0.92287 0.242 0.57243 0.0
N376 N 0.96203 0.27513 0.57326 0.0
O377 O 0.83232 0.1902 0.5589 0.0
H378 H 0.90964 0.29843 0.61244 0.0
H379 H 0.91315 0.21619 0.55956 0.0
O380 O 0.83119 0.25696 0.57995 0.0
C381 C 0.83274 0.15613 0.55898 0.0
O382 O 0.84116 0.14365 0.58023 0.0
N383 N 0.84242 0.23053 0.62532 0.0
C384 C 0.8597 0.25891 0.67476 0.0
C385 C 0.83941 0.27281 0.65856 0.0
C386 C 0.83023 0.25755 0.63389 0.0
C387 C 0.86 0.21495 0.64123 0.0
C388 C 0.86893 0.22873 0.66612 0.0
H389 H 0.81451 0.26848 0.62163 0.0
H390 H 0.86855 0.19288 0.63417 0.0
H391 H 0.75556 0.20835 0.57335 0.0
H392 H 0.69562 0.10082 0.61825 0.0
H393 H 0.98617 0.33137 0.59573 0.0
H394 H 0.83126 0.29562 0.66483 0.0
H395 H 0.88464 0.21733 0.67815 0.0
H396 H 0.63408 0.17216 0.08847 0.0
H397 H 0.41071 0.15 0.07464 0.0
H398 H 0.54905 0.09806 0.0293 0.0
H399 H 0.51716 0.26475 0.09921 0.0
H400 H 0.45709 0.12247 0.06456 0.0
H401 H 0.58762 0.19913 0.09921 0.0
C402 C 0.6056 0.16153 0.07779 0.0
C403 C 0.59538 0.13298 0.0579 0.0
C404 C 0.4702 0.15358 0.07228 0.0
C405 C 0.54201 0.16302 0.0704 0.0
C406 C 0.44381 0.16907 0.07822 0.0
C407 C 0.46034 0.20948 0.0879 0.0
C408 C 0.5132 0.17841 0.0766 0.0
C409 C 0.50346 0.23342 0.09179 0.0
C410 C 0.57926 0.17701 0.08387 0.0
C411 C 0.55818 0.12027 0.04463 0.0
N412 N 0.52847 0.21741 0.08632 0.0
N413 N 0.53259 0.1351 0.05127 0.0
H414 H 0.72693 0.25395 0.09607 0.0
H415 H 0.89775 0.4623 0.03226 0.0
H416 H 0.845 0.26941 0.0723 0.0
H417 H 0.8218 0.46497 0.0932 0.0
H418 H 0.872 0.38851 0.04103 0.0
H419 H 0.75455 0.32895 0.08979 0.0
C420 C 0.75871 0.27332 0.08964 0.0
C421 C 0.78393 0.25587 0.08484 0.0
C422 C 0.86111 0.40536 0.05248 0.0
C423 C 0.81522 0.34078 0.07711 0.0
C424 C 0.87553 0.44728 0.04741 0.0
C425 C 0.86182 0.46963 0.06204 0.0
C426 C 0.83202 0.38548 0.07189 0.0
C427 C 0.83323 0.4488 0.08156 0.0
C428 C 0.77444 0.31589 0.08614 0.0
C429 C 0.82488 0.28197 0.07648 0.0
N430 N 0.81888 0.40768 0.08577 0.0
N431 N 0.83916 0.32314 0.07257 0.0
H432 H 0.73809 0.47773 0.10313 0.0
H433 H 0.53474 0.44556 0.03508 0.0
H434 H 0.7257 0.58244 0.08071 0.0
H435 H 0.52748 0.36303 0.0946 0.0
H436 H 0.60804 0.49293 0.046 0.0
H437 H 0.66335 0.43131 0.09489 0.0
C438 C 0.71941 0.4908 0.09663 0.0
C439 C 0.73764 0.53377 0.09277 0.0
C440 C 0.59026 0.46448 0.05667 0.0
C441 C 0.65309 0.48127 0.08275 0.0
C442 C 0.54864 0.43737 0.05037 0.0
C443 C 0.52516 0.40041 0.06398 0.0
C444 C 0.60869 0.45396 0.07627 0.0
C445 C 0.54454 0.39135 0.08373 0.0
C446 C 0.677 0.4645 0.09199 0.0
C447 C 0.71247 0.54949 0.08421 0.0
N448 N 0.58539 0.41776 0.08914 0.0
N449 N 0.67146 0.52315 0.07917 0.0
H450 H 0.22699 0.53097 0.40502 0.0
H451 H 0.08161 0.633 0.40643 0.0
H452 H 0.09485 0.4632 0.39002 0.0
H453 H 0.21597 0.70536 0.40866 0.0
H454 H 0.08546 0.56943 0.40766 0.0
H455 H 0.22289 0.59371 0.41285 0.0
C456 C 0.19701 0.52913 0.40363 0.0
C457 C 0.16117 0.49173 0.39677 0.0
C458 C 0.11413 0.59917 0.40813 0.0
C459 C 0.15636 0.56358 0.4056 0.0
C460 C 0.11198 0.63555 0.40754 0.0
C461 C 0.14856 0.67459 0.40714 0.0
C462 C 0.15316 0.60169 0.40827 0.0
C463 C 0.18698 0.67592 0.40887 0.0
C464 C 0.19476 0.56506 0.40799 0.0
C465 C 0.12331 0.49143 0.39492 0.0
N466 N 0.1883 0.63993 0.40908 0.0
N467 N 0.12191 0.52681 0.39928 0.0
H468 H 0.53454 0.6421 0.38106 0.0
H469 H 0.29415 0.5216 0.40309 0.0
H470 H 0.47116 0.71086 0.39457 0.0
H471 H 0.37134 0.47943 0.4381 0.0
H472 H 0.35663 0.58907 0.39474 0.0
H473 H 0.47284 0.57866 0.39631 0.0
C474 C 0.50745 0.64361 0.38717 0.0
C475 C 0.50748 0.68134 0.3865 0.0
C476 C 0.3597 0.5652 0.40458 0.0
C477 C 0.43726 0.60949 0.40363 0.0
C478 C 0.32423 0.52684 0.40932 0.0
C479 C 0.32779 0.49518 0.42138 0.0
C480 C 0.39895 0.57128 0.41123 0.0
C481 C 0.36737 0.50327 0.42896 0.0
C482 C 0.47259 0.60771 0.39605 0.0
C483 C 0.47202 0.68214 0.39487 0.0
N484 N 0.40164 0.54038 0.42333 0.0
N485 N 0.43792 0.6465 0.40278 0.0
H486 H 0.57103 0.93654 0.40205 0.0
H487 H 0.32464 0.77722 0.4026 0.0
H488 H 0.51811 0.80413 0.41195 0.0
H489 H 0.38335 0.90512 0.37854 0.0
H490 H 0.39377 0.78774 0.4139 0.0
H491 H 0.50105 0.9269 0.40199 0.0
C492 C 0.54472 0.90545 0.40459 0.0
C493 C 0.55057 0.87105 0.40667 0.0
C494 C 0.39137 0.81353 0.40633 0.0
C495 C 0.46992 0.85966 0.40627 0.0
C496 C 0.35201 0.80756 0.39999 0.0
C497 C 0.34845 0.84018 0.38929 0.0
C498 C 0.42715 0.85256 0.40223 0.0
C499 C 0.3848 0.87891 0.38624 0.0
C500 C 0.50466 0.89993 0.40445 0.0
C501 C 0.51515 0.83155 0.41015 0.0
N502 N 0.4225 0.88395 0.39258 0.0
N503 N 0.47628 0.82684 0.40952 0.0
H504 H 0.44 0.89957 0.9588 0.0
H505 H 0.47354 0.73377 0.88365 0.0
H506 H 0.35897 0.82783 0.8975 0.0
H507 H 0.57729 0.84694 0.91239 0.0
H508 H 0.42694 0.76101 0.89379 0.0
H509 H 0.48708 0.87352 0.94754 0.0
C510 C 0.43202 0.87817 0.94309 0.0
C511 C 0.3956 0.86582 0.92904 0.0
C512 C 0.45996 0.77997 0.89769 0.0
C513 C 0.4489 0.8358 0.91629 0.0
C514 C 0.48638 0.76447 0.89194 0.0
C515 C 0.52915 0.78846 0.89694 0.0
C516 C 0.47637 0.81923 0.90915 0.0
C517 C 0.54453 0.82792 0.90788 0.0
C518 C 0.45898 0.86359 0.9366 0.0
C519 C 0.38684 0.83825 0.90875 0.0
N520 N 0.51806 0.84198 0.91389 0.0
N521 N 0.41315 0.82387 0.9031 0.0
H522 H 0.1677 0.53113 0.89134 0.0
H523 H 0.14774 0.73024 0.91847 0.0
H524 H 0.09994 0.53699 0.95602 0.0
H525 H 0.26101 0.74129 0.88875 0.0
H526 H 0.12112 0.65576 0.92613 0.0
H527 H 0.19434 0.60543 0.88388 0.0
C528 C 0.15843 0.54808 0.90394 0.0
C529 C 0.13175 0.52808 0.92439 0.0
C530 C 0.15173 0.67453 0.91786 0.0
C531 C 0.16135 0.61244 0.91565 0.0
C532 C 0.16667 0.71671 0.91331 0.0
C533 C 0.20639 0.74146 0.90285 0.0
C534 C 0.17636 0.65702 0.91132 0.0
C535 C 0.23022 0.72294 0.89683 0.0
C536 C 0.17372 0.59037 0.89971 0.0
C537 C 0.12071 0.55141 0.94017 0.0
N538 N 0.21468 0.68163 0.90093 0.0
N539 N 0.13525 0.59238 0.93532 0.0
H540 H 0.45231 0.5509 0.94633 0.0
H541 H 0.25018 0.52215 0.87901 0.0
H542 H 0.46145 0.63609 0.88806 0.0
H543 H 0.26265 0.41623 0.89816 0.0
H544 H 0.325 0.56811 0.88741 0.0
H545 H 0.37936 0.50409 0.93446 0.0
C546 C 0.43889 0.55976 0.93109 0.0
C547 C 0.4628 0.59734 0.91813 0.0
C548 C 0.31135 0.53477 0.88953 0.0
C549 C 0.37959 0.54442 0.90479 0.0
C550 C 0.26889 0.50872 0.88481 0.0
C551 C 0.25065 0.46554 0.88773 0.0
C552 C 0.33527 0.51749 0.89795 0.0
C553 C 0.27587 0.44937 0.8954 0.0
C554 C 0.39746 0.53298 0.92426 0.0
C555 C 0.44404 0.60727 0.89843 0.0
N556 N 0.31688 0.47542 0.90059 0.0
N557 N 0.4033 0.58116 0.89253 0.0
H558 H 0.77341 0.46642 0.58787 0.0
H559 H 0.90487 0.35998 0.54576 0.0
H560 H 0.90692 0.5275 0.5957 0.0
H561 H 0.78154 0.28948 0.57763 0.0
H562 H 0.90246 0.42415 0.55267 0.0
H563 H 0.77284 0.4032 0.57334 0.0
C564 C 0.80256 0.46648 0.58633 0.0
C565 C 0.84023 0.50183 0.59315 0.0
C566 C 0.87576 0.3945 0.55776 0.0
C567 C 0.83993 0.43051 0.57621 0.0
C568 C 0.87692 0.35794 0.55361 0.0
C569 C 0.84337 0.31954 0.5612 0.0
C570 C 0.8405 0.39235 0.56909 0.0
C571 C 0.80809 0.31859 0.57162 0.0
C572 C 0.80223 0.43057 0.57813 0.0
C573 C 0.87725 0.50056 0.59093 0.0
N574 N 0.80756 0.35453 0.5753 0.0
N575 N 0.87623 0.46545 0.58254 0.0
H576 H 0.63992 0.55386 0.57458 0.0
H577 H 0.55098 0.30842 0.58686 0.0
H578 H 0.72012 0.50087 0.57831 0.0
H579 H 0.48029 0.36981 0.60055 0.0
H580 H 0.61153 0.37611 0.57523 0.0
H581 H 0.57944 0.48395 0.57465 0.0
C582 C 0.64487 0.52748 0.57502 0.0
C583 C 0.6852 0.53334 0.57677 0.0
C584 C 0.5826 0.37458 0.58059 0.0
C585 C 0.61579 0.45287 0.57723 0.0
C586 C 0.54814 0.33606 0.58712 0.0
C587 C 0.51089 0.33375 0.59501 0.0
C588 C 0.57936 0.41072 0.58161 0.0
C589 C 0.50868 0.37037 0.59508 0.0
C590 C 0.61025 0.4875 0.57517 0.0
C591 C 0.68962 0.49786 0.57702 0.0
N592 N 0.54238 0.40723 0.58857 0.0
N593 N 0.65528 0.45908 0.57761 0.0
H594 H 0.6372 0.08242 0.59066 0.0
H595 H 0.51224 0.20468 0.5767 0.0
H596 H 0.69723 0.21579 0.58255 0.0
H597 H 0.45402 0.07075 0.57931 0.0
H598 H 0.58046 0.20948 0.57442 0.0
H599 H 0.56993 0.07745 0.58301 0.0
C600 C 0.63621 0.11064 0.58723 0.0
C601 C 0.67284 0.14956 0.58744 0.0
C602 C 0.55269 0.17904 0.57516 0.0
C603 C 0.59594 0.14422 0.57857 0.0
C604 C 0.51372 0.17628 0.57634 0.0
C605 C 0.4774 0.13726 0.57854 0.0
C606 C 0.55526 0.14254 0.57628 0.0
C607 C 0.48122 0.10152 0.57799 0.0
C608 C 0.59783 0.10781 0.58269 0.0
C609 C 0.66982 0.18511 0.58242 0.0
N610 N 0.51943 0.10504 0.57721 0.0
N611 N 0.632 0.18163 0.57843 0.0
H612 H 0.44253 0.25369 0.02003 0.0
H613 H 0.31003 0.03902 0.94519 0.0
H614 H 0.31067 0.19566 0.00512 0.0
H615 H 0.43709 0.08581 0.96918 0.0
H616 H 0.31288 0.10138 0.96204 0.0
H617 H 0.44457 0.19846 -0.00429 0.0
C618 C 0.41425 0.22994 0.01109 0.0
C619 C 0.37632 0.2291 0.01459 0.0
C620 C 0.34022 0.09811 0.9636 0.0
C621 C 0.3783 0.16573 0.98716 0.0
C622 C 0.33849 0.06223 0.95416 0.0
C623 C 0.37319 0.05676 0.9561 0.0
C624 C 0.3769 0.12894 0.97513 0.0
C625 C 0.40963 0.08872 0.96725 0.0
C626 C 0.41535 0.19822 -0.00256 0.0
C627 C 0.3405 0.19731 0.00295 0.0
N628 N 0.41046 0.12335 0.9765 0.0
N629 N 0.34232 0.16677 0.98991 0.0
H630 H 0.80199 0.1143 0.0068 0.0
H631 H 0.89711 0.33818 0.94268 0.0
H632 H 0.7379 0.18443 0.00637 0.0
H633 H 0.96874 0.2793 0.96172 0.0
H634 H 0.83513 0.27827 0.9598 0.0
H635 H 0.85872 0.16957 0.98277 0.0
C636 C 0.79952 0.14106 0.00128 0.0
C637 C 0.76531 0.14492 0.0088 0.0
C638 C 0.86446 0.27852 0.96009 0.0
C639 C 0.83058 0.20869 0.98152 0.0
C640 C 0.90014 0.31295 0.95045 0.0
C641 C 0.93879 0.31432 0.95074 0.0
C642 C 0.86716 0.24494 0.96994 0.0
C643 C 0.93995 0.27988 0.96074 0.0
C644 C 0.83208 0.17274 0.98768 0.0
C645 C 0.76369 0.18018 0.00095 0.0
N646 N 0.90475 0.24674 0.96992 0.0
N647 N 0.79616 0.21099 0.98794 0.0
H648 H 0.86945 0.69218 0.01902 0.0
H649 H 0.6557 0.56035 0.94414 0.0
H650 H 0.80827 0.55832 0.01284 0.0
H651 H 0.69973 0.68384 0.97428 0.0
H652 H 0.71523 0.56017 0.96357 0.0
H653 H 0.81269 0.69111 -0.00461 0.0
C654 C 0.84433 0.66254 0.01239 0.0
C655 C 0.84347 0.62524 0.01811 0.0
C656 C 0.71171 0.58725 0.96581 0.0
C657 C 0.778 0.62382 0.99117 0.0
C658 C 0.67752 0.58741 0.95482 0.0
C659 C 0.67235 0.62235 0.95728 0.0
C660 C 0.74125 0.62239 0.97913 0.0
C661 C 0.70234 0.65646 0.97129 0.0
C662 C 0.81177 0.66196 -0.00098 0.0
C663 C 0.81018 0.58782 0.00884 0.0
N664 N 0.73545 0.65564 0.98153 0.0
N665 N 0.77851 0.588 -0.00405 0.0
H666 H 0.97359 0.21916 0.54623 0.0
H667 H 0.17569 0.39562 0.47499 0.0
H668 H 0.02982 0.35061 0.56235 0.0
H669 H 0.10111 0.26929 0.44824 0.0
H670 H 0.13074 0.37734 0.51238 0.0
H671 H 0.02828 0.23506 0.51525 0.0
C672 C 0.99735 0.25131 0.54339 0.0
C673 C 0.99645 0.28354 0.55679 0.0
C674 C 0.12454 0.35358 0.49841 0.0
C675 C 0.05964 0.3019 0.5215 0.0
C676 C 0.15025 0.36395 0.47716 0.0
C677 C 0.14174 0.33404 0.45839 0.0
C678 C 0.09044 0.31298 0.5009 0.0
C679 C 0.10842 0.29347 0.4621 0.0
C680 C 0.02874 0.26035 0.52576 0.0
C681 C 0.02897 0.32457 0.55265 0.0
N682 N 0.08387 0.28419 0.48285 0.0
N683 N 0.05899 0.33256 0.53526 0.0
H684 H 0.65026 0.79727 0.46714 0.0
H685 H 0.77383 0.68347 0.51303 0.0
H686 H 0.70294 0.74418 0.41678 0.0
H687 H 0.72604 0.74045 0.56401 0.0
H688 H 0.74384 0.70155 0.47769 0.0
H689 H 0.6734 0.77265 0.50314 0.0
C690 C 0.66635 0.78016 0.46366 0.0
C691 C 0.6749 0.77299 0.43894 0.0
C692 C 0.73984 0.71006 0.49662 0.0
C693 C 0.7016 0.74496 0.47992 0.0
C694 C 0.75682 0.69954 0.51684 0.0
C695 C 0.75267 0.71061 0.54156 0.0
C696 C 0.71846 0.73179 0.5011 0.0
C697 C 0.73066 0.73191 0.54527 0.0
C698 C 0.67967 0.76623 0.48419 0.0
C699 C 0.69591 0.75069 0.43551 0.0
N700 N 0.71445 0.74185 0.52527 0.0
N701 N 0.70866 0.73764 0.45574 0.0
H702 H 0.27284 0.97658 0.56724 0.0
H703 H 0.25685 0.95164 0.41717 0.0
H704 H 0.32309 0.07996 0.51538 0.0
H705 H 0.21791 0.84765 0.46781 0.0
H706 H 0.28093 0.99876 0.45317 0.0
H707 H 0.25175 0.92865 0.53142 0.0
C708 C 0.27929 0.98921 0.54832 0.0
C709 C 0.29962 0.0324 0.54431 0.0
C710 C 0.26727 0.96568 0.45648 0.0
C711 C 0.27588 0.97767 0.50322 0.0
C712 C 0.25341 0.93867 0.4359 0.0
C713 C 0.23519 0.89558 0.4395 0.0
C714 C 0.26271 0.9496 0.48096 0.0
C715 C 0.2318 0.88066 0.4642 0.0
C716 C 0.2675 0.96182 0.52788 0.0
C717 C 0.30785 0.047 0.51938 0.0
N718 N 0.24526 0.90766 0.48404 0.0
N719 N 0.29579 0.01969 0.4998 0.0
H720 H 0.54907 0.9135 0.01481 0.0
H721 H 0.67553 0.79714 0.98219 0.0
H722 H 0.6769 0.95819 0.03614 0.0
H723 H 0.54612 0.74699 0.96272 0.0
H724 H 0.67401 0.85306 0.00546 0.0
H725 H 0.5451 0.84993 -0.00182 0.0
C726 C 0.57622 0.9099 0.01609 0.0
C727 C 0.61351 0.9415 0.02666 0.0
C728 C 0.64571 0.82959 -0.00358 0.0
C729 C 0.60918 0.86886 0.00776 0.0
C730 C 0.64653 0.79751 0.98325 0.0
C731 C 0.61093 0.76745 0.97055 0.0
C732 C 0.60914 0.83209 -0.00338 0.0
C733 C 0.57418 0.7694 0.97246 0.0
C734 C 0.57394 0.87362 0.00659 0.0
C735 C 0.6478 0.93524 0.02769 0.0
N736 N 0.57437 0.80158 0.98497 0.0
N737 N 0.6448 0.89977 0.01833 0.0
H738 H 0.07896 0.64396 0.02083 0.0
H739 H 0.19245 0.88444 0.98373 0.0
H740 H 0.03182 0.72586 0.03994 0.0
H741 H 0.24772 0.8075 0.97184 0.0
H742 H 0.13548 0.82756 0.0068 0.0
H743 H 0.1423 0.70368 0.00434 0.0
C744 C 0.08193 0.67446 0.02166 0.0
C745 C 0.04975 0.6797 0.03166 0.0
C746 C 0.16031 0.8232 -0.00052 0.0
C747 C 0.12221 0.74826 0.01277 0.0
C748 C 0.19297 0.85578 0.98642 0.0
C749 C 0.22479 0.85064 0.97587 0.0
C750 C 0.1591 0.78493 0.00171 0.0
C751 C 0.22393 0.81285 0.97985 0.0
C752 C 0.11812 0.70856 0.01224 0.0
C753 C 0.05525 0.71999 0.032 0.0
N754 N 0.19124 0.78118 0.99218 0.0
N755 N 0.09068 0.75261 0.02265 0.0
H756 H 0.12301 0.30198 0.95784 0.0
H757 H 0.32761 0.43244 0.0414 0.0
H758 H 0.17647 0.43373 0.97154 0.0
H759 H 0.29071 0.31236 0.00826 0.0
H760 H 0.26844 0.43163 0.02068 0.0
H761 H 0.17893 0.30287 0.98234 0.0
C762 C 0.14624 0.33106 0.96626 0.0
C763 C 0.14518 0.36791 0.96247 0.0
C764 C 0.2734 0.40549 0.01804 0.0
C765 C 0.2097 0.36916 0.99043 0.0
C766 C 0.3074 0.40597 0.02975 0.0
C767 C 0.31444 0.3723 0.02676 0.0
C768 C 0.24598 0.37099 0.00341 0.0
C769 C 0.28648 0.33873 0.0116 0.0
C770 C 0.17834 0.33157 0.98014 0.0
C771 C 0.1761 0.4046 0.97398 0.0
N772 N 0.25354 0.33892 0.0006 0.0
N773 N 0.20732 0.40437 0.98735 0.0
H774 H 0.99116 0.72253 0.41883 0.0
H775 H 0.96099 0.71261 0.56836 0.0
H776 H 0.09322 0.77073 0.47177 0.0
H777 H 0.85878 0.64632 0.51643 0.0
H778 H 0.00952 0.73509 0.53307 0.0
H779 H 0.94207 0.69553 0.45403 0.0
C780 C 0.00326 0.72757 0.43788 0.0
C781 C 0.04642 0.74924 0.44237 0.0
C782 C 0.97653 0.71551 0.52933 0.0
C783 C 0.9903 0.7181 0.4828 0.0
C784 C 0.94869 0.70272 0.54949 0.0
C785 C 0.90567 0.67763 0.54534 0.0
C786 C 0.96137 0.70349 0.50469 0.0
C787 C 0.89168 0.66563 0.52048 0.0
C788 C 0.97519 0.71187 0.45796 0.0
C789 C 0.06028 0.75406 0.46743 0.0
N790 N 0.91947 0.67888 0.50105 0.0
N791 N 0.03231 0.73887 0.4867 0.0
H792 H 0.38678 0.21708 0.51921 0.0
H793 H 0.23533 0.29546 0.46809 0.0
H794 H 0.2827 0.20887 0.56079 0.0
H795 H 0.33339 0.29773 0.42276 0.0
H796 H 0.25005 0.25947 0.50101 0.0
H797 H 0.36633 0.24338 0.48271 0.0
C798 C 0.35958 0.22063 0.52063 0.0
C799 C 0.3366 0.21109 0.54313 0.0
C800 C 0.26823 0.26757 0.4838 0.0
C801 C 0.31308 0.24098 0.50161 0.0
C802 C 0.25959 0.28795 0.46478 0.0
C803 C 0.28329 0.30005 0.4425 0.0
C804 C 0.30103 0.25933 0.48073 0.0
C805 C 0.31479 0.28976 0.43975 0.0
C806 C 0.3479 0.23556 0.49981 0.0
C807 C 0.30155 0.21609 0.54391 0.0
N808 N 0.32296 0.27028 0.45872 0.0
N809 N 0.29102 0.23084 0.52353 0.0
H810 H 0.78466 0.15252 0.51855 0.0
H811 H 0.79686 0.96449 0.45332 0.0
H812 H 0.85387 0.09747 0.5488 0.0
H813 H 0.69734 0.98932 0.43749 0.0
H814 H 0.82505 0.02076 0.48421 0.0
H815 H 0.75958 0.10075 0.48424 0.0
C816 C 0.79506 0.12998 0.51773 0.0
C817 C 0.82126 0.1291 0.53651 0.0
C818 C 0.79705 0.014 0.474 0.0
C819 C 0.79279 0.07015 0.49764 0.0
C820 C 0.78107 0.982 0.45626 0.0
C821 C 0.74476 0.97232 0.4428 0.0
C822 C 0.77687 0.03689 0.47824 0.0
C823 C 0.72521 0.99565 0.44767 0.0
C824 C 0.78048 0.10031 0.49833 0.0
C825 C 0.83351 0.09907 0.53477 0.0
N826 N 0.74161 0.02707 0.46497 0.0
N827 N 0.81919 0.07084 0.51571 0.0
H828 H 0.21127 0.33421 0.27586 0.0
H829 H 0.4031 0.41031 0.18064 0.0
H830 H 0.33518 0.43319 0.29436 0.0
H831 H 0.28921 0.2917 0.17533 0.0
H832 H 0.37732 0.42458 0.21986 0.0
H833 H 0.2374 0.3247 0.23563 0.0
C834 C 0.24398 0.35403 0.27144 0.0
C835 C 0.27117 0.38418 0.28867 0.0
C836 C 0.35807 0.3955 0.21002 0.0
C837 C 0.30126 0.37364 0.2425 0.0
C838 C 0.37284 0.38718 0.18775 0.0
C839 C 0.3482 0.34984 0.17453 0.0
C840 C 0.31831 0.36638 0.219 0.0
C841 C 0.30899 0.32128 0.18451 0.0
C842 C 0.25887 0.34861 0.24845 0.0
C843 C 0.31307 0.40968 0.28161 0.0
N844 N 0.29526 0.33022 0.20604 0.0
N845 N 0.32692 0.40367 0.25909 0.0
H846 H 0.59512 0.01114 0.18123 0.0
H847 H 0.6817 0.89724 0.26849 0.0
H848 H 0.71301 0.01654 0.16947 0.0
H849 H 0.59394 0.93173 0.29696 0.0
H850 H 0.68641 0.93328 0.22932 0.0
H851 H 0.58822 0.97626 0.22179 0.0
C852 C 0.61964 0.0053 0.18721 0.0
C853 C 0.65437 0.01618 0.17171 0.0
C854 C 0.66617 0.93307 0.24415 0.0
C855 C 0.64627 0.97584 0.21762 0.0
C856 C 0.66356 0.9126 0.26659 0.0
C857 C 0.63791 0.91201 0.28627 0.0
C858 C 0.64263 0.95281 0.24109 0.0
C859 C 0.61404 0.9313 0.28227 0.0
C860 C 0.61556 0.98525 0.21026 0.0
C861 C 0.6851 0.00769 0.18038 0.0
N862 N 0.61702 0.95104 0.26009 0.0
N863 N 0.68015 0.98777 0.2026 0.0
H864 H 0.99367 0.58755 0.18199 0.0
H865 H 0.14245 0.78724 0.26305 0.0
H866 H 0.99545 0.70445 0.17538 0.0
H867 H 0.08736 0.66448 0.29601 0.0
H868 H 0.09989 0.75675 0.2255 0.0
H869 H 0.03734 0.6145 0.2199 0.0
C870 C 1.00288 0.61865 0.18851 0.0
C871 C 0.99126 0.64394 0.17515 0.0
C872 C 0.09733 0.73657 0.24097 0.0
C873 C 0.04206 0.67507 0.21784 0.0
C874 C 0.12148 0.75391 0.26249 0.0
C875 C 0.11803 0.72857 0.28305 0.0
C876 C 0.07001 0.69348 0.23973 0.0
C877 C 0.09129 0.6853 0.28065 0.0
C878 C 0.028 0.63402 0.21001 0.0
C879 C 0.00457 0.68417 0.18447 0.0
N880 N 0.06816 0.66907 0.25938 0.0
N881 N 0.02957 0.69859 0.20503 0.0
H882 H 0.67116 0.58376 0.68766 0.0
H883 H 0.7093 0.71169 0.8138 0.0
H884 H 0.79307 0.65644 0.72143 0.0
H885 H 0.59395 0.59638 0.80156 0.0
H886 H 0.73821 0.69771 0.7763 0.0
H887 H 0.64003 0.59222 0.72631 0.0
C888 C 0.69144 0.60101 0.70323 0.0
C889 C 0.735 0.61974 0.70105 0.0
C890 C 0.70661 0.67541 0.7819 0.0
C891 C 0.69941 0.63048 0.74495 0.0
C892 C 0.69004 0.68323 0.80339 0.0
C893 C 0.64924 0.6548 0.81123 0.0
C894 C 0.6821 0.63931 0.76772 0.0
C895 C 0.62543 0.6193 0.79624 0.0
C896 C 0.67356 0.60602 0.7252 0.0
C897 C 0.75951 0.64233 0.72183 0.0
N898 N 0.64222 0.61255 0.77514 0.0
N899 N 0.74141 0.64743 0.74276 0.0
H900 H 0.41464 0.01499 0.81691 0.0
H901 H 0.31546 0.06253 0.69664 0.0
H902 H 0.28278 0.96562 0.80613 0.0
H903 H 0.44643 0.13499 0.71491 0.0
H904 H 0.30402 0.02211 0.73484 0.0
H905 H 0.42805 0.0538 0.77725 0.0
C906 C 0.38856 0.01205 0.80605 0.0
C907 C 0.34758 0.98734 0.81478 0.0
C908 C 0.33527 0.04693 0.73058 0.0
C909 C 0.36257 0.03151 0.76975 0.0
C910 C 0.34181 0.07034 0.70884 0.0
C911 C 0.38192 0.10266 0.70266 0.0
C912 C 0.36908 0.05554 0.74629 0.0
C913 C 0.41502 0.11027 0.71884 0.0
C914 C 0.39622 0.03439 0.78359 0.0
C915 C 0.31487 0.98477 0.80019 0.0
N916 N 0.40785 0.08687 0.73997 0.0
N917 N 0.32308 0.00659 0.7784 0.0
H918 H 0.02753 0.41498 0.78895 0.0
H919 H 0.84707 0.21914 0.7199 0.0
H920 H 0.93616 0.30621 0.82927 0.0
H921 H 0.90613 0.34133 0.68641 0.0
H922 H 0.87947 0.25062 0.76036 0.0
H923 H 0.98367 0.38967 0.75123 0.0
C924 C 0.99804 0.38612 0.79001 0.0
C925 C 0.98593 0.36232 0.81221 0.0
C926 C 0.88485 0.27065 0.74427 0.0
C927 C 0.93605 0.33295 0.76907 0.0
C928 C 0.86646 0.25268 0.72124 0.0
C929 C 0.87412 0.27776 0.69994 0.0
C930 C 0.9118 0.3139 0.74582 0.0
C931 C 0.89936 0.32104 0.70253 0.0
C932 C 0.97308 0.37165 0.76845 0.0
C933 C 0.94743 0.325 0.81238 0.0
N934 N 0.91789 0.33777 0.72501 0.0
N935 N 0.92416 0.31121 0.79106 0.0
loop_
_geom_bond_atom_site_label_1
_geom_bond_atom_site_label_2
_geom_bond_distance
_geom_bond_site_symmetry_2
_ccdc_geom_bond_type
C0 C1 1.351 . S
C0 N3 1.368 . S
C0 H5 0.931 . S
C1 C0 1.351 . S
C1 N2 1.373 . S
C1 H29 0.930 . S
N2 C1 1.373 . S
N2 C4 1.340 . S
N3 C0 1.368 . S
N3 C4 1.321 . S
N3 Co6 2.135 . S
C4 N2 1.340 . S
C4 N3 1.321 . S
C4 H28 0.930 . S
H5 C0 0.931 . S
Co6 N3 2.135 . S
Co6 N9 2.121 . S
Co6 O14 2.055 . S
Co6 O17 2.039 . S
Co6 N20 2.140 . S
C7 O8 1.227 . S
C7 O17 1.265 . S
O8 C7 1.227 . S
N9 Co6 2.121 . S
N9 C11 1.375 . S
N9 C12 1.313 . S
C10 C11 1.338 . S
C10 N13 1.377 . S
C10 H30 0.930 . S
C11 N9 1.375 . S
C11 C10 1.338 . S
C11 H15 0.931 . S
C12 N9 1.313 . S
C12 N13 1.344 . S
C12 H16 0.930 . S
N13 C10 1.377 . S
N13 C12 1.344 . S
O14 Co6 2.055 . S
O14 C18 1.253 . S
H15 C11 0.931 . S
H16 C12 0.930 . S
O17 Co6 2.039 . S
O17 C7 1.265 . S
C18 O14 1.253 . S
C18 O19 1.227 . S
O19 C18 1.227 . S
N20 Co6 2.140 . S
N20 C23 1.346 . S
N20 C24 1.345 . S
C21 C22 1.387 . S
C21 C25 1.391 . S
C22 C21 1.387 . S
C22 C23 1.369 . S
C22 H31 0.929 . S
C23 N20 1.346 . S
C23 C22 1.369 . S
C23 H26 0.928 . S
C24 N20 1.345 . S
C24 C25 1.371 . S
C24 H27 0.931 . S
C25 C21 1.391 . S
C25 C24 1.371 . S
C25 H32 0.930 . S
H26 C23 0.928 . S
H27 C24 0.931 . S
H28 C4 0.930 . S
H29 C1 0.930 . S
H30 C10 0.930 . S
H31 C22 0.929 . S
H32 C25 0.930 . S
C33 C34 1.351 . S
C33 N36 1.368 . S
C33 H38 0.931 . S
C34 C33 1.351 . S
C34 N35 1.373 . S
C34 H62 0.930 . S
N35 C34 1.373 . S
N35 C37 1.340 . S
N36 C33 1.368 . S
N36 C37 1.321 . S
N36 Co39 2.135 . S
C37 N35 1.340 . S
C37 N36 1.321 . S
C37 H61 0.930 . S
H38 C33 0.931 . S
Co39 N36 2.135 . S
Co39 N42 2.121 . S
Co39 O47 2.055 . S
Co39 O50 2.039 . S
Co39 N53 2.140 . S
C40 O41 1.227 . S
C40 O50 1.265 . S
O41 C40 1.227 . S
N42 Co39 2.121 . S
N42 C44 1.375 . S
N42 C45 1.313 . S
C43 C44 1.338 . S
C43 N46 1.377 . S
C43 H63 0.930 . S
C44 N42 1.375 . S
C44 C43 1.338 . S
C44 H48 0.931 . S
C45 N42 1.313 . S
C45 N46 1.344 . S
C45 H49 0.930 . S
N46 C43 1.377 . S
N46 C45 1.344 . S
O47 Co39 2.055 . S
O47 C51 1.253 . S
H48 C44 0.931 . S
H49 C45 0.930 . S
O50 Co39 2.039 . S
O50 C40 1.265 . S
C51 O47 1.253 . S
C51 O52 1.227 . S
O52 C51 1.227 . S
N53 Co39 2.140 . S
N53 C56 1.346 . S
N53 C57 1.345 . S
C54 C55 1.387 . S
C54 C58 1.391 . S
C55 C54 1.387 . S
C55 C56 1.369 . S
C55 H64 0.929 . S
C56 N53 1.346 . S
C56 C55 1.369 . S
C56 H59 0.928 . S
C57 N53 1.345 . S
C57 C58 1.371 . S
C57 H60 0.931 . S
C58 C54 1.391 . S
C58 C57 1.371 . S
C58 H65 0.930 . S
H59 C56 0.928 . S
H60 C57 0.931 . S
H61 C37 0.930 . S
H62 C34 0.930 . S
H63 C43 0.930 . S
H64 C55 0.929 . S
H65 C58 0.930 . S
C66 C67 1.351 . S
C66 N69 1.368 . S
C66 H71 0.931 . S
C67 C66 1.351 . S
C67 N68 1.373 . S
C67 H95 0.930 . S
N68 C67 1.373 . S
N68 C70 1.340 . S
N69 C66 1.368 . S
N69 C70 1.321 . S
N69 Co72 2.135 . S
C70 N68 1.340 . S
C70 N69 1.321 . S
C70 H94 0.930 . S
H71 C66 0.931 . S
Co72 N69 2.135 . S
Co72 N75 2.121 . S
Co72 O80 2.055 . S
Co72 O83 2.039 . S
Co72 N86 2.140 . S
C73 O74 1.227 . S
C73 O83 1.265 . S
O74 C73 1.227 . S
N75 Co72 2.121 . S
N75 C77 1.375 . S
N75 C78 1.313 . S
C76 C77 1.338 . S
C76 N79 1.377 . S
C76 H96 0.930 . S
C77 N75 1.375 . S
C77 C76 1.338 . S
C77 H81 0.931 . S
C78 N75 1.313 . S
C78 N79 1.344 . S
C78 H82 0.930 . S
N79 C76 1.377 . S
N79 C78 1.344 . S
O80 Co72 2.055 . S
O80 C84 1.253 . S
H81 C77 0.931 . S
H82 C78 0.930 . S
O83 Co72 2.039 . S
O83 C73 1.265 . S
C84 O80 1.253 . S
C84 O85 1.227 . S
O85 C84 1.227 . S
N86 Co72 2.140 . S
N86 C89 1.346 . S
N86 C90 1.345 . S
C87 C88 1.387 . S
C87 C91 1.391 . S
C88 C87 1.387 . S
C88 C89 1.369 . S
C88 H97 0.929 . S
C89 N86 1.346 . S
C89 C88 1.369 . S
C89 H92 0.928 . S
C90 N86 1.345 . S
C90 C91 1.371 . S
C90 H93 0.931 . S
C91 C87 1.391 . S
C91 C90 1.371 . S
C91 H98 0.930 . S
H92 C89 0.928 . S
H93 C90 0.931 . S
H94 C70 0.930 . S
H95 C67 0.930 . S
H96 C76 0.930 . S
H97 C88 0.929 . S
H98 C91 0.930 . S
C99 C100 1.351 . S
C99 N102 1.368 . S
C99 H104 0.931 . S
C100 C99 1.351 . S
C100 N101 1.373 . S
C100 H128 0.930 . S
N101 C100 1.373 . S
N101 C103 1.340 . S
N102 C99 1.368 . S
N102 C103 1.321 . S
N102 Co105 2.135 . S
C103 N101 1.340 . S
C103 N102 1.321 . S
C103 H127 0.930 . S
H104 C99 0.931 . S
Co105 N102 2.135 . S
Co105 N108 2.121 . S
Co105 O113 2.055 . S
Co105 O116 2.039 . S
Co105 N119 2.140 . S
C106 O107 1.227 . S
C106 O116 1.265 . S
O107 C106 1.227 . S
N108 Co105 2.121 . S
N108 C110 1.375 . S
N108 C111 1.313 . S
C109 C110 1.338 . S
C109 N112 1.377 . S
C109 H129 0.930 . S
C110 N108 1.375 . S
C110 C109 1.338 . S
C110 H114 0.931 . S
C111 N108 1.313 . S
C111 N112 1.344 . S
C111 H115 0.930 . S
N112 C109 1.377 . S
N112 C111 1.344 . S
O113 Co105 2.055 . S
O113 C117 1.253 . S
H114 C110 0.931 . S
H115 C111 0.930 . S
O116 Co105 2.039 . S
O116 C106 1.265 . S
C117 O113 1.253 . S
C117 O118 1.227 . S
O118 C117 1.227 . S
N119 Co105 2.140 . S
N119 C122 1.346 . S
N119 C123 1.345 . S
C120 C121 1.387 . S
C120 C124 1.391 . S
C121 C120 1.387 . S
C121 C122 1.369 . S
C121 H130 0.929 . S
C122 N119 1.346 . S
C122 C121 1.369 . S
C122 H125 0.928 . S
C123 N119 1.345 . S
C123 C124 1.371 . S
C123 H126 0.931 . S
C124 C120 1.391 . S
C124 C123 1.371 . S
C124 H131 0.930 . S
H125 C122 0.928 . S
H126 C123 0.931 . S
H127 C103 0.930 . S
H128 C100 0.930 . S
H129 C109 0.930 . S
H130 C121 0.929 . S
H131 C124 0.930 . S
C132 C133 1.351 . S
C132 N135 1.368 . S
C132 H137 0.931 . S
C133 C132 1.351 . S
C133 N134 1.373 . S
C133 H161 0.930 . S
N134 C133 1.373 . S
N134 C136 1.340 . S
N135 C132 1.368 . S
N135 C136 1.321 . S
N135 Co138 2.135 . S
C136 N134 1.340 . S
C136 N135 1.321 . S
C136 H160 0.930 . S
H137 C132 0.931 . S
Co138 N135 2.135 . S
Co138 N141 2.121 . S
Co138 O146 2.055 . S
Co138 O149 2.039 . S
Co138 N152 2.140 . S
C139 O140 1.227 . S
C139 O149 1.265 . S
O140 C139 1.227 . S
N141 Co138 2.121 . S
N141 C143 1.375 . S
N141 C144 1.313 . S
C142 C143 1.338 . S
C142 N145 1.377 . S
C142 H162 0.930 . S
C143 N141 1.375 . S
C143 C142 1.338 . S
C143 H147 0.931 . S
C144 N141 1.313 . S
C144 N145 1.344 . S
C144 H148 0.930 . S
N145 C142 1.377 . S
N145 C144 1.344 . S
O146 Co138 2.055 . S
O146 C150 1.253 . S
H147 C143 0.931 . S
H148 C144 0.930 . S
O149 Co138 2.039 . S
O149 C139 1.265 . S
C150 O146 1.253 . S
C150 O151 1.227 . S
O151 C150 1.227 . S
N152 Co138 2.140 . S
N152 C155 1.346 . S
N152 C156 1.345 . S
C153 C154 1.387 . S
C153 C157 1.391 . S
C154 C153 1.387 . S
C154 C155 1.369 . S
C154 H163 0.929 . S
C155 N152 1.346 . S
C155 C154 1.369 . S
C155 H158 0.928 . S
C156 N152 1.345 . S
C156 C157 1.371 . S
C156 H159 0.931 . S
C157 C153 1.391 . S
C157 C156 1.371 . S
C157 H164 0.930 . S
H158 C155 0.928 . S
H159 C156 0.931 . S
H160 C136 0.930 . S
H161 C133 0.930 . S
H162 C142 0.930 . S
H163 C154 0.929 . S
H164 C157 0.930 . S
C165 C166 1.351 . S
C165 N168 1.368 . S
C165 H170 0.931 . S
C166 C165 1.351 . S
C166 N167 1.373 . S
C166 H194 0.930 . S
N167 C166 1.373 . S
N167 C169 1.340 . S
N168 C165 1.368 . S
N168 C169 1.321 . S
N168 Co171 2.135 . S
C169 N167 1.340 . S
C169 N168 1.321 . S
C169 H193 0.930 . S
H170 C165 0.931 . S
Co171 N168 2.135 . S
Co171 N174 2.121 . S
Co171 O179 2.055 . S
Co171 O182 2.039 . S
Co171 N185 2.140 . S
C172 O173 1.227 . S
C172 O182 1.265 . S
O173 C172 1.227 . S
N174 Co171 2.121 . S
N174 C176 1.375 . S
N174 C177 1.313 . S
C175 C176 1.338 . S
C175 N178 1.377 . S
C175 H195 0.930 . S
C176 N174 1.375 . S
C176 C175 1.338 . S
C176 H180 0.931 . S
C177 N174 1.313 . S
C177 N178 1.344 . S
C177 H181 0.930 . S
N178 C175 1.377 . S
N178 C177 1.344 . S
O179 Co171 2.055 . S
O179 C183 1.253 . S
H180 C176 0.931 . S
H181 C177 0.930 . S
O182 Co171 2.039 . S
O182 C172 1.265 . S
C183 O179 1.253 . S
C183 O184 1.227 . S
O184 C183 1.227 . S
N185 Co171 2.140 . S
N185 C188 1.346 . S
N185 C189 1.345 . S
C186 C187 1.387 . S
C186 C190 1.391 . S
C187 C186 1.387 . S
C187 C188 1.369 . S
C187 H196 0.929 . S
C188 N185 1.346 . S
C188 C187 1.369 . S
C188 H191 0.928 . S
C189 N185 1.345 . S
C189 C190 1.371 . S
C189 H192 0.931 . S
C190 C186 1.391 . S
C190 C189 1.371 . S
C190 H197 0.930 . S
H191 C188 0.928 . S
H192 C189 0.931 . S
H193 C169 0.930 . S
H194 C166 0.930 . S
H195 C175 0.930 . S
H196 C187 0.929 . S
H197 C190 0.930 . S
C198 C199 1.351 . S
C198 N201 1.368 . S
C198 H203 0.931 . S
C199 C198 1.351 . S
C199 N200 1.373 . S
C199 H227 0.930 . S
N200 C199 1.373 . S
N200 C202 1.340 . S
N201 C198 1.368 . S
N201 C202 1.321 . S
N201 Co204 2.135 . S
C202 N200 1.340 . S
C202 N201 1.321 . S
C202 H226 0.930 . S
H203 C198 0.931 . S
Co204 N201 2.135 . S
Co204 N207 2.121 . S
Co204 O212 2.055 . S
Co204 O215 2.039 . S
Co204 N218 2.140 . S
C205 O206 1.227 . S
C205 O215 1.265 . S
O206 C205 1.227 . S
N207 Co204 2.121 . S
N207 C209 1.375 . S
N207 C210 1.313 . S
C208 C209 1.338 . S
C208 N211 1.377 . S
C208 H228 0.930 . S
C209 N207 1.375 . S
C209 C208 1.338 . S
C209 H213 0.931 . S
C210 N207 1.313 . S
C210 N211 1.344 . S
C210 H214 0.930 . S
N211 C208 1.377 . S
N211 C210 1.344 . S
O212 Co204 2.055 . S
O212 C216 1.253 . S
H213 C209 0.931 . S
H214 C210 0.930 . S
O215 Co204 2.039 . S
O215 C205 1.265 . S
C216 O212 1.253 . S
C216 O217 1.227 . S
O217 C216 1.227 . S
N218 Co204 2.140 . S
N218 C221 1.346 . S
N218 C222 1.345 . S
C219 C220 1.387 . S
C219 C223 1.391 . S
C220 C219 1.387 . S
C220 C221 1.369 . S
C220 H229 0.929 . S
C221 N218 1.346 . S
C221 C220 1.369 . S
C221 H224 0.928 . S
C222 N218 1.345 . S
C222 C223 1.371 . S
C222 H225 0.931 . S
C223 C219 1.391 . S
C223 C222 1.371 . S
C223 H230 0.930 . S
H224 C221 0.928 . S
H225 C222 0.931 . S
H226 C202 0.930 . S
H227 C199 0.930 . S
H228 C208 0.930 . S
H229 C220 0.929 . S
H230 C223 0.930 . S
C231 C232 1.351 . S
C231 N234 1.368 . S
C231 H236 0.931 . S
C232 C231 1.351 . S
C232 N233 1.373 . S
C232 H260 0.930 . S
N233 C232 1.373 . S
N233 C235 1.340 . S
N234 C231 1.368 . S
N234 C235 1.321 . S
N234 Co237 2.135 . S
C235 N233 1.340 . S
C235 N234 1.321 . S
C235 H259 0.930 . S
H236 C231 0.931 . S
Co237 N234 2.135 . S
Co237 N240 2.121 . S
Co237 O245 2.055 . S
Co237 O248 2.039 . S
Co237 N251 2.140 . S
C238 O239 1.227 . S
C238 O248 1.265 . S
O239 C238 1.227 . S
N240 Co237 2.121 . S
N240 C242 1.375 . S
N240 C243 1.313 . S
C241 C242 1.338 . S
C241 N244 1.377 . S
C241 H261 0.930 . S
C242 N240 1.375 . S
C242 C241 1.338 . S
C242 H246 0.931 . S
C243 N240 1.313 . S
C243 N244 1.344 . S
C243 H247 0.930 . S
N244 C241 1.377 . S
N244 C243 1.344 . S
O245 Co237 2.055 . S
O245 C249 1.253 . S
H246 C242 0.931 . S
H247 C243 0.930 . S
O248 Co237 2.039 . S
O248 C238 1.265 . S
C249 O245 1.253 . S
C249 O250 1.227 . S
O250 C249 1.227 . S
N251 Co237 2.140 . S
N251 C254 1.346 . S
N251 C255 1.345 . S
C252 C253 1.387 . S
C252 C256 1.391 . S
C253 C252 1.387 . S
C253 C254 1.369 . S
C253 H262 0.929 . S
C254 N251 1.346 . S
C254 C253 1.369 . S
C254 H257 0.928 . S
C255 N251 1.345 . S
C255 C256 1.371 . S
C255 H258 0.931 . S
C256 C252 1.391 . S
C256 C255 1.371 . S
C256 H263 0.930 . S
H257 C254 0.928 . S
H258 C255 0.931 . S
H259 C235 0.930 . S
H260 C232 0.930 . S
H261 C241 0.930 . S
H262 C253 0.929 . S
H263 C256 0.930 . S
C264 C265 1.351 . S
C264 N267 1.368 . S
C264 H269 0.931 . S
C265 C264 1.351 . S
C265 N266 1.373 . S
C265 H293 0.930 . S
N266 C265 1.373 . S
N266 C268 1.340 . S
N267 C264 1.368 . S
N267 C268 1.321 . S
N267 Co270 2.135 . S
C268 N266 1.340 . S
C268 N267 1.321 . S
C268 H292 0.930 . S
H269 C264 0.931 . S
Co270 N267 2.135 . S
Co270 N273 2.121 . S
Co270 O278 2.055 . S
Co270 O281 2.039 . S
Co270 N284 2.140 . S
C271 O272 1.227 . S
C271 O281 1.265 . S
O272 C271 1.227 . S
N273 Co270 2.121 . S
N273 C275 1.375 . S
N273 C276 1.313 . S
C274 C275 1.338 . S
C274 N277 1.377 . S
C274 H294 0.930 . S
C275 N273 1.375 . S
C275 C274 1.338 . S
C275 H279 0.931 . S
C276 N273 1.313 . S
C276 N277 1.344 . S
C276 H280 0.930 . S
N277 C274 1.377 . S
N277 C276 1.344 . S
O278 Co270 2.055 . S
O278 C282 1.253 . S
H279 C275 0.931 . S
H280 C276 0.930 . S
O281 Co270 2.039 . S
O281 C271 1.265 . S
C282 O278 1.253 . S
C282 O283 1.227 . S
O283 C282 1.227 . S
N284 Co270 2.140 . S
N284 C287 1.346 . S
N284 C288 1.345 . S
C285 C286 1.387 . S
C285 C289 1.391 . S
C286 C285 1.387 . S
C286 C287 1.369 . S
C286 H295 0.929 . S
C287 N284 1.346 . S
C287 C286 1.369 . S
C287 H290 0.928 . S
C288 N284 1.345 . S
C288 C289 1.371 . S
C288 H291 0.931 . S
C289 C285 1.391 . S
C289 C288 1.371 . S
C289 H296 0.930 . S
H290 C287 0.928 . S
H291 C288 0.931 . S
H292 C268 0.930 . S
H293 C265 0.930 . S
H294 C274 0.930 . S
H295 C286 0.929 . S
H296 C289 0.930 . S
C297 C298 1.351 . S
C297 N300 1.368 . S
C297 H302 0.931 . S
C298 C297 1.351 . S
C298 N299 1.373 . S
C298 H326 0.930 . S
N299 C298 1.373 . S
N299 C301 1.340 . S
N300 C297 1.368 . S
N300 C301 1.321 . S
N300 Co303 2.135 . S
C301 N299 1.340 . S
C301 N300 1.321 . S
C301 H325 0.930 . S
H302 C297 0.931 . S
Co303 N300 2.135 . S
Co303 N306 2.121 . S
Co303 O311 2.055 . S
Co303 O314 2.039 . S
Co303 N317 2.140 . S
C304 O305 1.227 . S
C304 O314 1.265 . S
O305 C304 1.227 . S
N306 Co303 2.121 . S
N306 C308 1.375 . S
N306 C309 1.313 . S
C307 C308 1.338 . S
C307 N310 1.377 . S
C307 H327 0.930 . S
C308 N306 1.375 . S
C308 C307 1.338 . S
C308 H312 0.931 . S
C309 N306 1.313 . S
C309 N310 1.344 . S
C309 H313 0.930 . S
N310 C307 1.377 . S
N310 C309 1.344 . S
O311 Co303 2.055 . S
O311 C315 1.253 . S
H312 C308 0.931 . S
H313 C309 0.930 . S
O314 Co303 2.039 . S
O314 C304 1.265 . S
C315 O311 1.253 . S
C315 O316 1.227 . S
O316 C315 1.227 . S
N317 Co303 2.140 . S
N317 C320 1.346 . S
N317 C321 1.345 . S
C318 C319 1.387 . S
C318 C322 1.391 . S
C319 C318 1.387 . S
C319 C320 1.369 . S
C319 H328 0.929 . S
C320 N317 1.346 . S
C320 C319 1.369 . S
C320 H323 0.928 . S
C321 N317 1.345 . S
C321 C322 1.371 . S
C321 H324 0.931 . S
C322 C318 1.391 . S
C322 C321 1.371 . S
C322 H329 0.930 . S
H323 C320 0.928 . S
H324 C321 0.931 . S
H325 C301 0.930 . S
H326 C298 0.930 . S
H327 C307 0.930 . S
H328 C319 0.929 . S
H329 C322 0.930 . S
C330 C331 1.351 . S
C330 N333 1.368 . S
C330 H335 0.931 . S
C331 C330 1.351 . S
C331 N332 1.373 . S
C331 H359 0.930 . S
N332 C331 1.373 . S
N332 C334 1.340 . S
N333 C330 1.368 . S
N333 C334 1.321 . S
N333 Co336 2.135 . S
C334 N332 1.340 . S
C334 N333 1.321 . S
C334 H358 0.930 . S
H335 C330 0.931 . S
Co336 N333 2.135 . S
Co336 N339 2.121 . S
Co336 O344 2.055 . S
Co336 O347 2.039 . S
Co336 N350 2.140 . S
C337 O338 1.227 . S
C337 O347 1.265 . S
O338 C337 1.227 . S
N339 Co336 2.121 . S
N339 C341 1.375 . S
N339 C342 1.313 . S
C340 C341 1.338 . S
C340 N343 1.377 . S
C340 H360 0.930 . S
C341 N339 1.375 . S
C341 C340 1.338 . S
C341 H345 0.931 . S
C342 N339 1.313 . S
C342 N343 1.344 . S
C342 H346 0.930 . S
N343 C340 1.377 . S
N343 C342 1.344 . S
O344 Co336 2.055 . S
O344 C348 1.253 . S
H345 C341 0.931 . S
H346 C342 0.930 . S
O347 Co336 2.039 . S
O347 C337 1.265 . S
C348 O344 1.253 . S
C348 O349 1.227 . S
O349 C348 1.227 . S
N350 Co336 2.140 . S
N350 C353 1.346 . S
N350 C354 1.345 . S
C351 C352 1.387 . S
C351 C355 1.391 . S
C352 C351 1.387 . S
C352 C353 1.369 . S
C352 H361 0.929 . S
C353 N350 1.346 . S
C353 C352 1.369 . S
C353 H356 0.928 . S
C354 N350 1.345 . S
C354 C355 1.371 . S
C354 H357 0.931 . S
C355 C351 1.391 . S
C355 C354 1.371 . S
C355 H362 0.930 . S
H356 C353 0.928 . S
H357 C354 0.931 . S
H358 C334 0.930 . S
H359 C331 0.930 . S
H360 C340 0.930 . S
H361 C352 0.929 . S
H362 C355 0.930 . S
C363 C364 1.351 . S
C363 N366 1.368 . S
C363 H368 0.931 . S
C364 C363 1.351 . S
C364 N365 1.373 . S
C364 H392 0.930 . S
N365 C364 1.373 . S
N365 C367 1.340 . S
N366 C363 1.368 . S
N366 C367 1.321 . S
N366 Co369 2.135 . S
C367 N365 1.340 . S
C367 N366 1.321 . S
C367 H391 0.930 . S
H368 C363 0.931 . S
Co369 N366 2.135 . S
Co369 N372 2.121 . S
Co369 O377 2.055 . S
Co369 O380 2.039 . S
Co369 N383 2.140 . S
C370 O371 1.227 . S
C370 O380 1.265 . S
O371 C370 1.227 . S
N372 Co369 2.121 . S
N372 C374 1.375 . S
N372 C375 1.313 . S
C373 C374 1.338 . S
C373 N376 1.377 . S
C373 H393 0.930 . S
C374 N372 1.375 . S
C374 C373 1.338 . S
C374 H378 0.931 . S
C375 N372 1.313 . S
C375 N376 1.344 . S
C375 H379 0.930 . S
N376 C373 1.377 . S
N376 C375 1.344 . S
O377 Co369 2.055 . S
O377 C381 1.253 . S
H378 C374 0.931 . S
H379 C375 0.930 . S
O380 Co369 2.039 . S
O380 C370 1.265 . S
C381 O377 1.253 . S
C381 O382 1.227 . S
O382 C381 1.227 . S
N383 Co369 2.140 . S
N383 C386 1.346 . S
N383 C387 1.345 . S
C384 C385 1.387 . S
C384 C388 1.391 . S
C385 C384 1.387 . S
C385 C386 1.369 . S
C385 H394 0.929 . S
C386 N383 1.346 . S
C386 C385 1.369 . S
C386 H389 0.928 . S
C387 N383 1.345 . S
C387 C388 1.371 . S
C387 H390 0.931 . S
C388 C384 1.391 . S
C388 C387 1.371 . S
C388 H395 0.930 . S
H389 C386 0.928 . S
H390 C387 0.931 . S
H391 C367 0.930 . S
H392 C364 0.930 . S
H393 C373 0.930 . S
H394 C385 0.929 . S
H395 C388 0.930 . S
H396 C402 0.930 . S
H397 C406 0.930 . S
H398 C411 0.929 . S
H399 C409 0.929 . S
H400 C404 0.929 . S
H401 C410 0.929 . S
C402 H396 0.930 . S
C402 C403 1.367 . S
C402 C410 1.378 . S
C403 C402 1.367 . S
C403 C411 1.433 . S
C404 H400 0.929 . S
C404 C406 1.378 . S
C404 C408 1.350 . S
C405 C408 1.463 . S
C405 C410 1.350 . S
C405 N413 1.427 . S
C406 H397 0.930 . S
C406 C404 1.378 . S
C406 C407 1.367 . S
C407 C406 1.367 . S
C407 C409 1.433 . S
C408 C404 1.350 . S
C408 C405 1.463 . S
C408 N412 1.427 . S
C409 H399 0.929 . S
C409 C407 1.433 . S
C409 N412 1.384 . S
C410 H401 0.929 . S
C410 C402 1.378 . S
C410 C405 1.350 . S
C411 H398 0.929 . S
C411 C403 1.433 . S
C411 N413 1.384 . S
N412 C408 1.427 . S
N412 C409 1.384 . S
N413 C405 1.427 . S
N413 C411 1.384 . S
H414 C420 0.930 . S
H415 C424 0.930 . S
H416 C429 0.929 . S
H417 C427 0.929 . S
H418 C422 0.929 . S
H419 C428 0.929 . S
C420 H414 0.930 . S
C420 C421 1.367 . S
C420 C428 1.378 . S
C421 C420 1.367 . S
C421 C429 1.433 . S
C422 H418 0.929 . S
C422 C424 1.378 . S
C422 C426 1.350 . S
C423 C426 1.463 . S
C423 C428 1.350 . S
C423 N431 1.427 . S
C424 H415 0.930 . S
C424 C422 1.378 . S
C424 C425 1.367 . S
C425 C424 1.367 . S
C425 C427 1.433 . S
C426 C422 1.350 . S
C426 C423 1.463 . S
C426 N430 1.427 . S
C427 H417 0.929 . S
C427 C425 1.433 . S
C427 N430 1.384 . S
C428 H419 0.929 . S
C428 C420 1.378 . S
C428 C423 1.350 . S
C429 H416 0.929 . S
C429 C421 1.433 . S
C429 N431 1.384 . S
N430 C426 1.427 . S
N430 C427 1.384 . S
N431 C423 1.427 . S
N431 C429 1.384 . S
H432 C438 0.930 . S
H433 C442 0.930 . S
H434 C447 0.929 . S
H435 C445 0.929 . S
H436 C440 0.929 . S
H437 C446 0.929 . S
C438 H432 0.930 . S
C438 C439 1.367 . S
C438 C446 1.378 . S
C439 C438 1.367 . S
C439 C447 1.433 . S
C440 H436 0.929 . S
C440 C442 1.378 . S
C440 C444 1.350 . S
C441 C444 1.463 . S
C441 C446 1.350 . S
C441 N449 1.427 . S
C442 H433 0.930 . S
C442 C440 1.378 . S
C442 C443 1.367 . S
C443 C442 1.367 . S
C443 C445 1.433 . S
C444 C440 1.350 . S
C444 C441 1.463 . S
C444 N448 1.427 . S
C445 H435 0.929 . S
C445 C443 1.433 . S
C445 N448 1.384 . S
C446 H437 0.929 . S
C446 C438 1.378 . S
C446 C441 1.350 . S
C447 H434 0.929 . S
C447 C439 1.433 . S
C447 N449 1.384 . S
N448 C444 1.427 . S
N448 C445 1.384 . S
N449 C441 1.427 . S
N449 C447 1.384 . S
H450 C456 0.930 . S
H451 C460 0.930 . S
H452 C465 0.929 . S
H453 C463 0.929 . S
H454 C458 0.929 . S
H455 C464 0.929 . S
C456 H450 0.930 . S
C456 C457 1.367 . S
C456 C464 1.378 . S
C457 C456 1.367 . S
C457 C465 1.433 . S
C458 H454 0.929 . S
C458 C460 1.378 . S
C458 C462 1.350 . S
C459 C462 1.463 . S
C459 C464 1.350 . S
C459 N467 1.427 . S
C460 H451 0.930 . S
C460 C458 1.378 . S
C460 C461 1.367 . S
C461 C460 1.367 . S
C461 C463 1.433 . S
C462 C458 1.350 . S
C462 C459 1.463 . S
C462 N466 1.427 . S
C463 H453 0.929 . S
C463 C461 1.433 . S
C463 N466 1.384 . S
C464 H455 0.929 . S
C464 C456 1.378 . S
C464 C459 1.350 . S
C465 H452 0.929 . S
C465 C457 1.433 . S
C465 N467 1.384 . S
N466 C462 1.427 . S
N466 C463 1.384 . S
N467 C459 1.427 . S
N467 C465 1.384 . S
H468 C474 0.930 . S
H469 C478 0.930 . S
H470 C483 0.929 . S
H471 C481 0.929 . S
H472 C476 0.929 . S
H473 C482 0.929 . S
C474 H468 0.930 . S
C474 C475 1.367 . S
C474 C482 1.378 . S
C475 C474 1.367 . S
C475 C483 1.433 . S
C476 H472 0.929 . S
C476 C478 1.378 . S
C476 C480 1.350 . S
C477 C480 1.463 . S
C477 C482 1.350 . S
C477 N485 1.427 . S
C478 H469 0.930 . S
C478 C476 1.378 . S
C478 C479 1.367 . S
C479 C478 1.367 . S
C479 C481 1.433 . S
C480 C476 1.350 . S
C480 C477 1.463 . S
C480 N484 1.427 . S
C481 H471 0.929 . S
C481 C479 1.433 . S
C481 N484 1.384 . S
C482 H473 0.929 . S
C482 C474 1.378 . S
C482 C477 1.350 . S
C483 H470 0.929 . S
C483 C475 1.433 . S
C483 N485 1.384 . S
N484 C480 1.427 . S
N484 C481 1.384 . S
N485 C477 1.427 . S
N485 C483 1.384 . S
H486 C492 0.930 . S
H487 C496 0.930 . S
H488 C501 0.929 . S
H489 C499 0.929 . S
H490 C494 0.929 . S
H491 C500 0.929 . S
C492 H486 0.930 . S
C492 C493 1.367 . S
C492 C500 1.378 . S
C493 C492 1.367 . S
C493 C501 1.433 . S
C494 H490 0.929 . S
C494 C496 1.378 . S
C494 C498 1.350 . S
C495 C498 1.463 . S
C495 C500 1.350 . S
C495 N503 1.427 . S
C496 H487 0.930 . S
C496 C494 1.378 . S
C496 C497 1.367 . S
C497 C496 1.367 . S
C497 C499 1.433 . S
C498 C494 1.350 . S
C498 C495 1.463 . S
C498 N502 1.427 . S
C499 H489 0.929 . S
C499 C497 1.433 . S
C499 N502 1.384 . S
C500 H491 0.929 . S
C500 C492 1.378 . S
C500 C495 1.350 . S
C501 H488 0.929 . S
C501 C493 1.433 . S
C501 N503 1.384 . S
N502 C498 1.427 . S
N502 C499 1.384 . S
N503 C495 1.427 . S
N503 C501 1.384 . S
H504 C510 0.930 . S
H505 C514 0.930 . S
H506 C519 0.929 . S
H507 C517 0.929 . S
H508 C512 0.929 . S
H509 C518 0.929 . S
C510 H504 0.930 . S
C510 C511 1.367 . S
C510 C518 1.378 . S
C511 C510 1.367 . S
C511 C519 1.433 . S
C512 H508 0.929 . S
C512 C514 1.378 . S
C512 C516 1.350 . S
C513 C516 1.463 . S
C513 C518 1.350 . S
C513 N521 1.427 . S
C514 H505 0.930 . S
C514 C512 1.378 . S
C514 C515 1.367 . S
C515 C514 1.367 . S
C515 C517 1.433 . S
C516 C512 1.350 . S
C516 C513 1.463 . S
C516 N520 1.427 . S
C517 H507 0.929 . S
C517 C515 1.433 . S
C517 N520 1.384 . S
C518 H509 0.929 . S
C518 C510 1.378 . S
C518 C513 1.350 . S
C519 H506 0.929 . S
C519 C511 1.433 . S
C519 N521 1.384 . S
N520 C516 1.427 . S
N520 C517 1.384 . S
N521 C513 1.427 . S
N521 C519 1.384 . S
H522 C528 0.930 . S
H523 C532 0.930 . S
H524 C537 0.929 . S
H525 C535 0.929 . S
H526 C530 0.929 . S
H527 C536 0.929 . S
C528 H522 0.930 . S
C528 C529 1.367 . S
C528 C536 1.378 . S
C529 C528 1.367 . S
C529 C537 1.433 . S
C530 H526 0.929 . S
C530 C532 1.378 . S
C530 C534 1.350 . S
C531 C534 1.463 . S
C531 C536 1.350 . S
C531 N539 1.427 . S
C532 H523 0.930 . S
C532 C530 1.378 . S
C532 C533 1.367 . S
C533 C532 1.367 . S
C533 C535 1.433 . S
C534 C530 1.350 . S
C534 C531 1.463 . S
C534 N538 1.427 . S
C535 H525 0.929 . S
C535 C533 1.433 . S
C535 N538 1.384 . S
C536 H527 0.929 . S
C536 C528 1.378 . S
C536 C531 1.350 . S
C537 H524 0.929 . S
C537 C529 1.433 . S
C537 N539 1.384 . S
N538 C534 1.427 . S
N538 C535 1.384 . S
N539 C531 1.427 . S
N539 C537 1.384 . S
H540 C546 0.930 . S
H541 C550 0.930 . S
H542 C555 0.929 . S
H543 C553 0.929 . S
H544 C548 0.929 . S
H545 C554 0.929 . S
C546 H540 0.930 . S
C546 C547 1.367 . S
C546 C554 1.378 . S
C547 C546 1.367 . S
C547 C555 1.433 . S
C548 H544 0.929 . S
C548 C550 1.378 . S
C548 C552 1.350 . S
C549 C552 1.463 . S
C549 C554 1.350 . S
C549 N557 1.427 . S
C550 H541 0.930 . S
C550 C548 1.378 . S
C550 C551 1.367 . S
C551 C550 1.367 . S
C551 C553 1.433 . S
C552 C548 1.350 . S
C552 C549 1.463 . S
C552 N556 1.427 . S
C553 H543 0.929 . S
C553 C551 1.433 . S
C553 N556 1.384 . S
C554 H545 0.929 . S
C554 C546 1.378 . S
C554 C549 1.350 . S
C555 H542 0.929 . S
C555 C547 1.433 . S
C555 N557 1.384 . S
N556 C552 1.427 . S
N556 C553 1.384 . S
N557 C549 1.427 . S
N557 C555 1.384 . S
H558 C564 0.930 . S
H559 C568 0.930 . S
H560 C573 0.929 . S
H561 C571 0.929 . S
H562 C566 0.929 . S
H563 C572 0.929 . S
C564 H558 0.930 . S
C564 C565 1.367 . S
C564 C572 1.378 . S
C565 C564 1.367 . S
C565 C573 1.433 . S
C566 H562 0.929 . S
C566 C568 1.378 . S
C566 C570 1.350 . S
C567 C570 1.463 . S
C567 C572 1.350 . S
C567 N575 1.427 . S
C568 H559 0.930 . S
C568 C566 1.378 . S
C568 C569 1.367 . S
C569 C568 1.367 . S
C569 C571 1.433 . S
C570 C566 1.350 . S
C570 C567 1.463 . S
C570 N574 1.427 . S
C571 H561 0.929 . S
C571 C569 1.433 . S
C571 N574 1.384 . S
C572 H563 0.929 . S
C572 C564 1.378 . S
C572 C567 1.350 . S
C573 H560 0.929 . S
C573 C565 1.433 . S
C573 N575 1.384 . S
N574 C570 1.427 . S
N574 C571 1.384 . S
N575 C567 1.427 . S
N575 C573 1.384 . S
H576 C582 0.930 . S
H577 C586 0.930 . S
H578 C591 0.929 . S
H579 C589 0.929 . S
H580 C584 0.929 . S
H581 C590 0.929 . S
C582 H576 0.930 . S
C582 C583 1.367 . S
C582 C590 1.378 . S
C583 C582 1.367 . S
C583 C591 1.433 . S
C584 H580 0.929 . S
C584 C586 1.378 . S
C584 C588 1.350 . S
C585 C588 1.463 . S
C585 C590 1.350 . S
C585 N593 1.427 . S
C586 H577 0.930 . S
C586 C584 1.378 . S
C586 C587 1.367 . S
C587 C586 1.367 . S
C587 C589 1.433 . S
C588 C584 1.350 . S
C588 C585 1.463 . S
C588 N592 1.427 . S
C589 H579 0.929 . S
C589 C587 1.433 . S
C589 N592 1.384 . S
C590 H581 0.929 . S
C590 C582 1.378 . S
C590 C585 1.350 . S
C591 H578 0.929 . S
C591 C583 1.433 . S
C591 N593 1.384 . S
N592 C588 1.427 . S
N592 C589 1.384 . S
N593 C585 1.427 . S
N593 C591 1.384 . S
H594 C600 0.930 . S
H595 C604 0.930 . S
H596 C609 0.929 . S
H597 C607 0.929 . S
H598 C602 0.929 . S
H599 C608 0.929 . S
C600 H594 0.930 . S
C600 C601 1.367 . S
C600 C608 1.378 . S
C601 C600 1.367 . S
C601 C609 1.433 . S
C602 H598 0.929 . S
C602 C604 1.378 . S
C602 C606 1.350 . S
C603 C606 1.463 . S
C603 C608 1.350 . S
C603 N611 1.427 . S
C604 H595 0.930 . S
C604 C602 1.378 . S
C604 C605 1.367 . S
C605 C604 1.367 . S
C605 C607 1.433 . S
C606 C602 1.350 . S
C606 C603 1.463 . S
C606 N610 1.427 . S
C607 H597 0.929 . S
C607 C605 1.433 . S
C607 N610 1.384 . S
C608 H599 0.929 . S
C608 C600 1.378 . S
C608 C603 1.350 . S
C609 H596 0.929 . S
C609 C601 1.433 . S
C609 N611 1.384 . S
N610 C606 1.427 . S
N610 C607 1.384 . S
N611 C603 1.427 . S
N611 C609 1.384 . S
H612 C618 0.930 . S
H613 C622 0.930 . S
H614 C627 0.929 . S
H615 C625 0.929 . S
H616 C620 0.929 1_554 S
H617 C626 0.929 1_556 S
C618 H612 0.930 . S
C618 C619 1.367 . S
C618 C626 1.378 . S
C619 C618 1.367 . S
C619 C627 1.433 . S
C620 H616 0.929 1_556 S
C620 C622 1.387 . S
C620 C624 1.340 1_565 S
C621 C624 1.463 1_554 S
C621 C626 1.350 . S
C621 N629 1.427 . S
C622 H613 0.930 . S
C622 C620 1.387 . S
C622 C623 1.367 . S
C623 C622 1.367 . S
C623 C625 1.433 1_565 S
C624 C620 1.340 1_545 S
C624 C621 1.463 1_556 S
C624 N628 1.427 . S
C625 H615 0.929 . S
C625 C623 1.433 1_545 S
C625 N628 1.384 . S
C626 H617 0.929 1_554 S
C626 C618 1.378 . S
C626 C621 1.350 . S
C627 H614 0.929 . S
C627 C619 1.433 . S
C627 N629 1.384 . S
N628 C624 1.427 . S
N628 C625 1.384 . S
N629 C621 1.427 . S
N629 C627 1.384 . S
H630 C636 0.930 . S
H631 C640 0.930 . S
H632 C645 0.929 . S
H633 C643 0.929 . S
H634 C638 0.929 . S
H635 C644 0.929 . S
C636 H630 0.930 . S
C636 C637 1.367 . S
C636 C644 1.378 . S
C637 C636 1.367 . S
C637 C645 1.433 . S
C638 H634 0.929 . S
C638 C640 1.378 . S
C638 C642 1.350 . S
C639 C642 1.463 1_554 S
C639 C644 1.350 . S
C639 N647 1.427 . S
C640 H631 0.930 . S
C640 C638 1.378 . S
C640 C641 1.367 1_655 S
C641 C640 1.367 1_455 S
C641 C643 1.433 . S
C642 C638 1.350 . S
C642 C639 1.463 1_556 S
C642 N646 1.430 . S
C643 H633 0.929 . S
C643 C641 1.433 . S
C643 N646 1.380 1_455 S
C644 H635 0.929 . S
C644 C636 1.378 . S
C644 C639 1.350 . S
C645 H632 0.929 . S
C645 C637 1.433 . S
C645 N647 1.384 . S
N646 C642 1.430 . S
N646 C643 1.380 1_655 S
N647 C639 1.427 . S
N647 C645 1.384 . S
H648 C654 0.930 . S
H649 C658 0.930 . S
H650 C663 0.929 . S
H651 C661 0.929 . S
H652 C656 0.929 . S
H653 C662 0.929 . S
C654 H648 0.930 . S
C654 C655 1.367 . S
C654 C662 1.378 . S
C655 C654 1.367 . S
C655 C663 1.433 . S
C656 H652 0.929 . S
C656 C658 1.378 . S
C656 C660 1.350 . S
C657 C660 1.463 1_554 S
C657 C662 1.350 . S
C657 N665 1.427 . S
C658 H649 0.930 . S
C658 C656 1.378 . S
C658 C659 1.367 . S
C659 C658 1.367 . S
C659 C661 1.433 . S
C660 C656 1.350 . S
C660 C657 1.463 1_556 S
C660 N664 1.427 . S
C661 H651 0.929 . S
C661 C659 1.433 . S
C661 N664 1.384 . S
C662 H653 0.929 . S
C662 C654 1.378 . S
C662 C657 1.350 . S
C663 H650 0.929 . S
C663 C655 1.433 . S
C663 N665 1.384 . S
N664 C660 1.427 . S
N664 C661 1.384 . S
N665 C657 1.427 . S
N665 C663 1.384 . S
H666 C672 0.930 . S
H667 C676 0.930 . S
H668 C681 0.929 . S
H669 C679 0.929 . S
H670 C674 0.929 . S
H671 C680 0.929 . S
C672 H666 0.930 . S
C672 C673 1.367 . S
C672 C680 1.378 1_655 S
C673 C672 1.367 . S
C673 C681 1.433 1_655 S
C674 H670 0.929 . S
C674 C676 1.378 . S
C674 C678 1.350 . S
C675 C678 1.463 . S
C675 C680 1.350 . S
C675 N683 1.427 . S
C676 H667 0.930 . S
C676 C674 1.378 . S
C676 C677 1.367 . S
C677 C676 1.367 . S
C677 C679 1.433 . S
C678 C674 1.350 . S
C678 C675 1.463 . S
C678 N682 1.427 . S
C679 H669 0.929 . S
C679 C677 1.433 . S
C679 N682 1.384 . S
C680 H671 0.929 . S
C680 C672 1.378 1_455 S
C680 C675 1.350 . S
C681 H668 0.929 . S
C681 C673 1.433 1_455 S
C681 N683 1.384 . S
N682 C678 1.427 . S
N682 C679 1.384 . S
N683 C675 1.427 . S
N683 C681 1.384 . S
H684 C690 0.930 . S
H685 C694 0.930 . S
H686 C699 0.929 . S
H687 C697 0.929 . S
H688 C692 0.929 . S
H689 C698 0.929 . S
C690 H684 0.930 . S
C690 C691 1.367 . S
C690 C698 1.378 . S
C691 C690 1.367 . S
C691 C699 1.433 . S
C692 H688 0.929 . S
C692 C694 1.378 . S
C692 C696 1.350 . S
C693 C696 1.463 . S
C693 C698 1.350 . S
C693 N701 1.427 . S
C694 H685 0.930 . S
C694 C692 1.378 . S
C694 C695 1.367 . S
C695 C694 1.367 . S
C695 C697 1.433 . S
C696 C692 1.350 . S
C696 C693 1.463 . S
C696 N700 1.427 . S
C697 H687 0.929 . S
C697 C695 1.433 . S
C697 N700 1.384 . S
C698 H689 0.929 . S
C698 C690 1.378 . S
C698 C693 1.350 . S
C699 H686 0.929 . S
C699 C691 1.433 . S
C699 N701 1.384 . S
N700 C696 1.427 . S
N700 C697 1.384 . S
N701 C693 1.427 . S
N701 C699 1.384 . S
H702 C708 0.930 . S
H703 C712 0.930 . S
H704 C717 0.929 . S
H705 C715 0.929 . S
H706 C710 0.929 . S
H707 C716 0.929 . S
C708 H702 0.930 . S
C708 C709 1.367 1_565 S
C708 C716 1.378 . S
C709 C708 1.367 1_545 S
C709 C717 1.433 . S
C710 H706 0.929 . S
C710 C712 1.378 . S
C710 C714 1.350 . S
C711 C714 1.463 . S
C711 C716 1.350 . S
C711 N719 1.427 1_565 S
C712 H703 0.930 . S
C712 C710 1.378 . S
C712 C713 1.367 . S
C713 C712 1.367 . S
C713 C715 1.433 . S
C714 C710 1.350 . S
C714 C711 1.463 . S
C714 N718 1.427 . S
C715 H705 0.929 . S
C715 C713 1.433 . S
C715 N718 1.384 . S
C716 H707 0.929 . S
C716 C708 1.378 . S
C716 C711 1.350 . S
C717 H704 0.929 . S
C717 C709 1.433 . S
C717 N719 1.384 . S
N718 C714 1.427 . S
N718 C715 1.384 . S
N719 C711 1.427 1_545 S
N719 C717 1.384 . S
H720 C726 0.930 . S
H721 C730 0.930 . S
H722 C735 0.929 . S
H723 C733 0.929 . S
H724 C728 0.929 . S
H725 C734 0.929 . S
C726 H720 0.930 . S
C726 C727 1.367 1_565 S
C726 C734 1.378 . S
C727 C726 1.367 1_545 S
C727 C735 1.433 . S
C728 H724 0.929 . S
C728 C730 1.378 . S
C728 C732 1.350 . S
C729 C732 1.463 1_554 S
C729 C734 1.350 . S
C729 N737 1.437 1_565 S
C730 H721 0.930 . S
C730 C728 1.378 . S
C730 C731 1.367 . S
C731 C730 1.367 . S
C731 C733 1.433 . S
C732 C728 1.350 . S
C732 C729 1.463 1_556 S
C732 N736 1.427 . S
C733 H723 0.929 . S
C733 C731 1.433 . S
C733 N736 1.384 . S
C734 H725 0.929 . S
C734 C726 1.378 . S
C734 C729 1.350 . S
C735 H722 0.929 . S
C735 C727 1.433 . S
C735 N737 1.419 . S
N736 C732 1.427 . S
N736 C733 1.384 . S
N737 C729 1.437 1_545 S
N737 C735 1.419 . S
H738 C744 0.930 . S
H739 C748 0.930 . S
H740 C753 0.929 . S
H741 C751 0.929 . S
H742 C746 0.929 . S
H743 C752 0.929 . S
C744 H738 0.930 . S
C744 C745 1.367 1_455 S
C744 C752 1.378 . S
C745 C744 1.367 1_655 S
C745 C753 1.433 . S
C746 H742 0.929 . S
C746 C748 1.378 . S
C746 C750 1.350 . S
C747 C750 1.463 1_554 S
C747 C752 1.350 . S
C747 N755 1.436 . S
C748 H739 0.930 . S
C748 C746 1.378 . S
C748 C749 1.367 . S
C749 C748 1.367 . S
C749 C751 1.433 . S
C750 C746 1.350 . S
C750 C747 1.463 1_556 S
C750 N754 1.427 . S
C751 H741 0.929 . S
C751 C749 1.433 . S
C751 N754 1.384 . S
C752 H743 0.929 . S
C752 C744 1.378 . S
C752 C747 1.350 . S
C753 H740 0.929 . S
C753 C745 1.433 . S
C753 N755 1.414 1_655 S
N754 C750 1.427 . S
N754 C751 1.384 . S
N755 C747 1.436 . S
N755 C753 1.414 1_455 S
H756 C762 0.930 . S
H757 C766 0.930 . S
H758 C771 0.929 . S
H759 C769 0.929 . S
H760 C764 0.929 . S
H761 C770 0.929 . S
C762 H756 0.930 . S
C762 C763 1.367 . S
C762 C770 1.378 . S
C763 C762 1.367 . S
C763 C771 1.433 . S
C764 H760 0.929 . S
C764 C766 1.378 . S
C764 C768 1.350 . S
C765 C768 1.463 1_556 S
C765 C770 1.350 . S
C765 N773 1.427 . S
C766 H757 0.930 . S
C766 C764 1.378 . S
C766 C767 1.367 . S
C767 C766 1.367 . S
C767 C769 1.433 . S
C768 C764 1.350 . S
C768 C765 1.463 1_554 S
C768 N772 1.427 . S
C769 H759 0.929 . S
C769 C767 1.433 . S
C769 N772 1.384 . S
C770 H761 0.929 . S
C770 C762 1.378 . S
C770 C765 1.350 . S
C771 H758 0.929 . S
C771 C763 1.433 . S
C771 N773 1.384 . S
N772 C768 1.427 . S
N772 C769 1.384 . S
N773 C765 1.427 . S
N773 C771 1.384 . S
H774 C780 0.915 1_455 S
H775 C784 0.930 . S
H776 C789 0.929 . S
H777 C787 0.929 . S
H778 C782 0.929 . S
H779 C788 0.929 . S
C780 H774 0.915 1_655 S
C780 C781 1.369 1_655 S
C780 C788 1.392 . S
C781 C780 1.369 1_455 S
C781 C789 1.433 . S
C782 H778 0.929 . S
C782 C784 1.378 . S
C782 C786 1.350 . S
C783 C786 1.463 . S
C783 C788 1.350 . S
C783 N791 1.427 . S
C784 H775 0.930 . S
C784 C782 1.378 . S
C784 C785 1.367 . S
C785 C784 1.367 . S
C785 C787 1.433 . S
C786 C782 1.350 . S
C786 C783 1.463 . S
C786 N790 1.427 . S
C787 H777 0.929 . S
C787 C785 1.433 . S
C787 N790 1.384 . S
C788 H779 0.929 . S
C788 C780 1.392 . S
C788 C783 1.350 . S
C789 H776 0.929 . S
C789 C781 1.433 . S
C789 N791 1.384 1_455 S
N790 C786 1.427 . S
N790 C787 1.384 . S
N791 C783 1.427 . S
N791 C789 1.384 1_655 S
H792 C798 0.930 . S
H793 C802 0.930 . S
H794 C807 0.929 . S
H795 C805 0.929 . S
H796 C800 0.929 . S
H797 C806 0.929 . S
C798 H792 0.930 . S
C798 C799 1.367 . S
C798 C806 1.378 . S
C799 C798 1.367 . S
C799 C807 1.433 . S
C800 H796 0.929 . S
C800 C802 1.378 . S
C800 C804 1.350 . S
C801 C804 1.463 . S
C801 C806 1.350 . S
C801 N809 1.427 . S
C802 H793 0.930 . S
C802 C800 1.378 . S
C802 C803 1.367 . S
C803 C802 1.367 . S
C803 C805 1.433 . S
C804 C800 1.350 . S
C804 C801 1.463 . S
C804 N808 1.427 . S
C805 H795 0.929 . S
C805 C803 1.433 . S
C805 N808 1.384 . S
C806 H797 0.929 . S
C806 C798 1.378 . S
C806 C801 1.350 . S
C807 H794 0.929 . S
C807 C799 1.433 . S
C807 N809 1.384 . S
N808 C804 1.427 . S
N808 C805 1.384 . S
N809 C801 1.427 . S
N809 C807 1.384 . S
H810 C816 0.930 . S
H811 C820 0.930 . S
H812 C825 0.929 . S
H813 C823 0.929 . S
H814 C818 0.929 . S
H815 C824 0.929 . S
C816 H810 0.930 . S
C816 C817 1.367 . S
C816 C824 1.378 . S
C817 C816 1.367 . S
C817 C825 1.433 . S
C818 H814 0.929 . S
C818 C820 1.378 . S
C818 C822 1.350 . S
C819 C822 1.463 . S
C819 C824 1.350 . S
C819 N827 1.427 . S
C820 H811 0.930 . S
C820 C818 1.378 . S
C820 C821 1.367 1_545 S
C821 C820 1.367 1_565 S
C821 C823 1.433 . S
C822 C818 1.350 . S
C822 C819 1.463 . S
C822 N826 1.427 . S
C823 H813 0.929 . S
C823 C821 1.433 . S
C823 N826 1.384 1_565 S
C824 H815 0.929 . S
C824 C816 1.378 . S
C824 C819 1.350 . S
C825 H812 0.929 . S
C825 C817 1.433 . S
C825 N827 1.384 . S
N826 C822 1.427 . S
N826 C823 1.384 1_545 S
N827 C819 1.427 . S
N827 C825 1.384 . S
H828 C834 0.930 . S
H829 C838 0.930 . S
H830 C843 0.929 . S
H831 C841 0.929 . S
H832 C836 0.929 . S
H833 C842 0.929 . S
C834 H828 0.930 . S
C834 C835 1.367 . S
C834 C842 1.378 . S
C835 C834 1.367 . S
C835 C843 1.433 . S
C836 H832 0.929 . S
C836 C838 1.378 . S
C836 C840 1.350 . S
C837 C840 1.463 . S
C837 C842 1.350 . S
C837 N845 1.427 . S
C838 H829 0.930 . S
C838 C836 1.378 . S
C838 C839 1.367 . S
C839 C838 1.367 . S
C839 C841 1.433 . S
C840 C836 1.350 . S
C840 C837 1.463 . S
C840 N844 1.427 . S
C841 H831 0.929 . S
C841 C839 1.433 . S
C841 N844 1.384 . S
C842 H833 0.929 . S
C842 C834 1.378 . S
C842 C837 1.350 . S
C843 H830 0.929 . S
C843 C835 1.433 . S
C843 N845 1.384 . S
N844 C840 1.427 . S
N844 C841 1.384 . S
N845 C837 1.427 . S
N845 C843 1.384 . S
H846 C852 0.930 . S
H847 C856 0.930 . S
H848 C861 0.929 . S
H849 C859 0.929 . S
H850 C854 0.929 . S
H851 C860 0.929 . S
C852 H846 0.930 . S
C852 C853 1.367 . S
C852 C860 1.378 . S
C853 C852 1.367 . S
C853 C861 1.433 . S
C854 H850 0.929 . S
C854 C856 1.378 . S
C854 C858 1.350 . S
C855 C858 1.463 1_545 S
C855 C860 1.350 . S
C855 N863 1.427 . S
C856 H847 0.930 . S
C856 C854 1.378 . S
C856 C857 1.367 . S
C857 C856 1.367 . S
C857 C859 1.433 . S
C858 C854 1.350 . S
C858 C855 1.463 1_565 S
C858 N862 1.427 . S
C859 H849 0.929 . S
C859 C857 1.433 . S
C859 N862 1.384 . S
C860 H851 0.929 . S
C860 C852 1.378 . S
C860 C855 1.350 . S
C861 H848 0.929 . S
C861 C853 1.433 . S
C861 N863 1.384 . S
N862 C858 1.427 . S
N862 C859 1.384 . S
N863 C855 1.427 . S
N863 C861 1.384 . S
H864 C870 0.930 . S
H865 C874 0.930 . S
H866 C879 0.929 . S
H867 C877 0.929 . S
H868 C872 0.929 . S
H869 C878 0.929 . S
C870 H864 0.930 . S
C870 C871 1.367 . S
C870 C878 1.378 . S
C871 C870 1.367 . S
C871 C879 1.433 . S
C872 H868 0.929 . S
C872 C874 1.378 . S
C872 C876 1.350 . S
C873 C876 1.463 1_655 S
C873 C878 1.350 . S
C873 N881 1.427 . S
C874 H865 0.930 . S
C874 C872 1.378 . S
C874 C875 1.367 . S
C875 C874 1.367 . S
C875 C877 1.433 . S
C876 C872 1.350 . S
C876 C873 1.463 1_455 S
C876 N880 1.427 . S
C877 H867 0.929 . S
C877 C875 1.433 . S
C877 N880 1.384 . S
C878 H869 0.929 . S
C878 C870 1.378 . S
C878 C873 1.350 . S
C879 H866 0.929 . S
C879 C871 1.433 . S
C879 N881 1.384 . S
N880 C876 1.427 . S
N880 C877 1.384 . S
N881 C873 1.427 . S
N881 C879 1.384 . S
H882 C888 0.930 . S
H883 C892 0.930 . S
H884 C897 0.929 . S
H885 C895 0.929 . S
H886 C890 0.929 . S
H887 C896 0.929 . S
C888 H882 0.930 . S
C888 C889 1.367 . S
C888 C896 1.378 . S
C889 C888 1.367 . S
C889 C897 1.433 . S
C890 H886 0.929 . S
C890 C892 1.378 . S
C890 C894 1.350 . S
C891 C894 1.463 . S
C891 C896 1.350 . S
C891 N899 1.427 . S
C892 H883 0.930 . S
C892 C890 1.378 . S
C892 C893 1.367 . S
C893 C892 1.367 . S
C893 C895 1.433 . S
C894 C890 1.350 . S
C894 C891 1.463 . S
C894 N898 1.427 . S
C895 H885 0.929 . S
C895 C893 1.433 . S
C895 N898 1.384 . S
C896 H887 0.929 . S
C896 C888 1.378 . S
C896 C891 1.350 . S
C897 H884 0.929 . S
C897 C889 1.433 . S
C897 N899 1.384 . S
N898 C894 1.427 . S
N898 C895 1.384 . S
N899 C891 1.427 . S
N899 C897 1.384 . S
H900 C906 0.930 . S
H901 C910 0.930 . S
H902 C915 0.929 . S
H903 C913 0.929 . S
H904 C908 0.929 1_565 S
H905 C914 0.929 1_545 S
C906 H900 0.930 . S
C906 C907 1.367 . S
C906 C914 1.378 . S
C907 C906 1.367 . S
C907 C915 1.433 . S
C908 H904 0.929 1_545 S
C908 C910 1.378 . S
C908 C912 1.350 . S
C909 C912 1.463 1_565 S
C909 C914 1.350 . S
C909 N917 1.427 . S
C910 H901 0.930 . S
C910 C908 1.378 . S
C910 C911 1.367 . S
C911 C910 1.367 . S
C911 C913 1.433 . S
C912 C908 1.350 . S
C912 C909 1.463 1_545 S
C912 N916 1.427 . S
C913 H903 0.929 . S
C913 C911 1.433 . S
C913 N916 1.384 . S
C914 H905 0.929 1_565 S
C914 C906 1.378 . S
C914 C909 1.350 . S
C915 H902 0.929 . S
C915 C907 1.433 . S
C915 N917 1.384 . S
N916 C912 1.427 . S
N916 C913 1.384 . S
N917 C909 1.427 . S
N917 C915 1.384 . S
H918 C924 0.930 . S
H919 C928 0.930 . S
H920 C933 0.929 . S
H921 C931 0.929 . S
H922 C926 0.929 . S
H923 C932 0.929 . S
C924 H918 0.930 . S
C924 C925 1.367 . S
C924 C932 1.378 . S
C925 C924 1.367 . S
C925 C933 1.433 . S
C926 H922 0.929 . S
C926 C928 1.378 . S
C926 C930 1.350 . S
C927 C930 1.463 1_455 S
C927 C932 1.350 . S
C927 N935 1.427 . S
C928 H919 0.930 . S
C928 C926 1.378 . S
C928 C929 1.367 . S
C929 C928 1.367 . S
C929 C931 1.433 . S
C930 C926 1.350 . S
C930 C927 1.463 1_655 S
C930 N934 1.427 . S
C931 H921 0.929 . S
C931 C929 1.433 . S
C931 N934 1.384 . S
C932 H923 0.929 . S
C932 C924 1.378 . S
C932 C927 1.350 . S
C933 H920 0.929 . S
C933 C925 1.433 . S
C933 N935 1.384 . S
N934 C930 1.427 . S
N934 C931 1.384 . S
N935 C927 1.427 . S
N935 C933 1.384 . S
C403 C40 1.555 . S
C407 N2 1.465 . S
C421 N35 1.462 . S
C425 C73 1.552 . S
C439 N68 1.464 . S
C443 C7 1.553 . S
C457 N101 1.445 . S
C461 C172 1.540 . S
C475 N134 1.452 . S
C479 C106 1.546 . S
C493 C139 1.543 . S
C497 N167 1.450 . S
C511 C238 1.549 . S
C515 N200 1.457 . S
C529 C271 1.540 . S
C533 N233 1.444 . S
C547 C205 1.549 . S
C551 N266 1.457 . S
C565 N299 1.461 . S
C569 C370 1.552 . S
C583 C304 1.545 . S
C587 N332 1.453 . S
C601 N365 1.465 . S
C605 C337 1.554 . S
C619 C18 1.333 . S
C623 N244 1.312 . S
C637 C51 1.338 . S
C641 N277 1.315 . S
C655 C84 1.339 . S
C659 N211 1.306 . S
C673 N376 1.315 . S
C677 C117 1.333 . S
C691 C150 1.334 . S
C695 N310 1.309 . S
C709 N343 1.313 . S
C713 C183 1.339 . S
C727 N46 1.311 . S
C731 C216 1.339 . S
C745 N79 1.316 . S
C749 C249 1.337 . S
C763 C282 1.339 . S
C767 N13 1.305 . S
C781 N178 1.305 . S
C785 C315 1.338 . S
C799 C348 1.333 . S
C803 N112 1.317 . S
C817 C381 1.335 . S
C821 N145 1.318 . S
C835 C120 1.368 . S
C839 C21 1.360 . S
C853 C54 1.365 . S
C857 C153 1.371 . S
C871 C87 1.365 . S
C875 C186 1.371 . S
C889 C318 1.365 . S
C893 C219 1.371 . S
C907 C252 1.359 . S
C911 C351 1.362 . S
C925 C285 1.366 . S
C929 C384 1.371 . S
