# Generated by pormake.
# Topology lta, (4)-cn, num edge types: 1
# Building blocks:
#     Node 0, Type 0, BuildingBlock: QUQFOY_clean_sbu_3, # of connection points: 4
#     Node 1, Type 0, BuildingBlock: QUQFOY_clean_sbu_3, # of connection points: 4
#     Node 2, Type 0, BuildingBlock: QUQFOY_clean_sbu_3, # of connection points: 4
#     Node 3, Type 0, BuildingBlock: QUQFOY_clean_sbu_3, # of connection points: 4
#     Node 4, Type 0, BuildingBlock: QUQFOY_clean_sbu_3, # of connection points: 4
#     Node 5, Type 0, BuildingBlock: QUQFOY_clean_sbu_3, # of connection points: 4
#     Node 6, Type 0, BuildingBlock: QUQFOY_clean_sbu_3, # of connection points: 4
#     Node 7, Type 0, BuildingBlock: QUQFOY_clean_sbu_3, # of connection points: 4
#     Node 8, Type 0, BuildingBlock: QUQFOY_clean_sbu_3, # of connection points: 4
#     Node 9, Type 0, BuildingBlock: QUQFOY_clean_sbu_3, # of connection points: 4
#     Node 10, Type 0, BuildingBlock: QUQFOY_clean_sbu_3, # of connection points: 4
#     Node 11, Type 0, BuildingBlock: QUQFOY_clean_sbu_3, # of connection points: 4
#     Node 12, Type 0, BuildingBlock: QUQFOY_clean_sbu_3, # of connection points: 4
#     Node 13, Type 0, BuildingBlock: QUQFOY_clean_sbu_3, # of connection points: 4
#     Node 14, Type 0, BuildingBlock: QUQFOY_clean_sbu_3, # of connection points: 4
#     Node 15, Type 0, BuildingBlock: QUQFOY_clean_sbu_3, # of connection points: 4
#     Node 16, Type 0, BuildingBlock: QUQFOY_clean_sbu_3, # of connection points: 4
#     Node 17, Type 0, BuildingBlock: QUQFOY_clean_sbu_3, # of connection points: 4
#     Node 18, Type 0, BuildingBlock: QUQFOY_clean_sbu_3, # of connection points: 4
#     Node 19, Type 0, BuildingBlock: QUQFOY_clean_sbu_3, # of connection points: 4
#     Node 20, Type 0, BuildingBlock: QUQFOY_clean_sbu_3, # of connection points: 4
#     Node 21, Type 0, BuildingBlock: QUQFOY_clean_sbu_3, # of connection points: 4
#     Node 22, Type 0, BuildingBlock: QUQFOY_clean_sbu_3, # of connection points: 4
#     Node 23, Type 0, BuildingBlock: QUQFOY_clean_sbu_3, # of connection points: 4
#     Edge 24, Type (0, 0), BuildingBlock: CIFDUS_clean_linker_0, # of connection points: 2
#     Edge 25, Type (0, 0), BuildingBlock: CIFDUS_clean_linker_0, # of connection points: 2
#     Edge 26, Type (0, 0), BuildingBlock: CIFDUS_clean_linker_0, # of connection points: 2
#     Edge 27, Type (0, 0), BuildingBlock: CIFDUS_clean_linker_0, # of connection points: 2
#     Edge 28, Type (0, 0), BuildingBlock: CIFDUS_clean_linker_0, # of connection points: 2
#     Edge 29, Type (0, 0), BuildingBlock: CIFDUS_clean_linker_0, # of connection points: 2
#     Edge 30, Type (0, 0), BuildingBlock: CIFDUS_clean_linker_0, # of connection points: 2
#     Edge 31, Type (0, 0), BuildingBlock: CIFDUS_clean_linker_0, # of connection points: 2
#     Edge 32, Type (0, 0), BuildingBlock: CIFDUS_clean_linker_0, # of connection points: 2
#     Edge 33, Type (0, 0), BuildingBlock: CIFDUS_clean_linker_0, # of connection points: 2
#     Edge 34, Type (0, 0), BuildingBlock: CIFDUS_clean_linker_0, # of connection points: 2
#     Edge 35, Type (0, 0), BuildingBlock: CIFDUS_clean_linker_0, # of connection points: 2
#     Edge 36, Type (0, 0), BuildingBlock: CIFDUS_clean_linker_0, # of connection points: 2
#     Edge 37, Type (0, 0), BuildingBlock: CIFDUS_clean_linker_0, # of connection points: 2
#     Edge 38, Type (0, 0), BuildingBlock: CIFDUS_clean_linker_0, # of connection points: 2
#     Edge 39, Type (0, 0), BuildingBlock: CIFDUS_clean_linker_0, # of connection points: 2
#     Edge 40, Type (0, 0), BuildingBlock: CIFDUS_clean_linker_0, # of connection points: 2
#     Edge 41, Type (0, 0), BuildingBlock: CIFDUS_clean_linker_0, # of connection points: 2
#     Edge 42, Type (0, 0), BuildingBlock: CIFDUS_clean_linker_0, # of connection points: 2
#     Edge 43, Type (0, 0), BuildingBlock: CIFDUS_clean_linker_0, # of connection points: 2
#     Edge 44, Type (0, 0), BuildingBlock: CIFDUS_clean_linker_0, # of connection points: 2
#     Edge 45, Type (0, 0), BuildingBlock: CIFDUS_clean_linker_0, # of connection points: 2
#     Edge 46, Type (0, 0), BuildingBlock: CIFDUS_clean_linker_0, # of connection points: 2
#     Edge 47, Type (0, 0), BuildingBlock: CIFDUS_clean_linker_0, # of connection points: 2
#     Edge 48, Type (0, 0), BuildingBlock: CIFDUS_clean_linker_0, # of connection points: 2
#     Edge 49, Type (0, 0), BuildingBlock: CIFDUS_clean_linker_0, # of connection points: 2
#     Edge 50, Type (0, 0), BuildingBlock: CIFDUS_clean_linker_0, # of connection points: 2
#     Edge 51, Type (0, 0), BuildingBlock: CIFDUS_clean_linker_0, # of connection points: 2
#     Edge 52, Type (0, 0), BuildingBlock: CIFDUS_clean_linker_0, # of connection points: 2
#     Edge 53, Type (0, 0), BuildingBlock: CIFDUS_clean_linker_0, # of connection points: 2
#     Edge 54, Type (0, 0), BuildingBlock: CIFDUS_clean_linker_0, # of connection points: 2
#     Edge 55, Type (0, 0), BuildingBlock: CIFDUS_clean_linker_0, # of connection points: 2
#     Edge 56, Type (0, 0), BuildingBlock: CIFDUS_clean_linker_0, # of connection points: 2
#     Edge 57, Type (0, 0), BuildingBlock: CIFDUS_clean_linker_0, # of connection points: 2
#     Edge 58, Type (0, 0), BuildingBlock: CIFDUS_clean_linker_0, # of connection points: 2
#     Edge 59, Type (0, 0), BuildingBlock: CIFDUS_clean_linker_0, # of connection points: 2
#     Edge 60, Type (0, 0), BuildingBlock: CIFDUS_clean_linker_0, # of connection points: 2
#     Edge 61, Type (0, 0), BuildingBlock: CIFDUS_clean_linker_0, # of connection points: 2
#     Edge 62, Type (0, 0), BuildingBlock: CIFDUS_clean_linker_0, # of connection points: 2
#     Edge 63, Type (0, 0), BuildingBlock: CIFDUS_clean_linker_0, # of connection points: 2
#     Edge 64, Type (0, 0), BuildingBlock: CIFDUS_clean_linker_0, # of connection points: 2
#     Edge 65, Type (0, 0), BuildingBlock: CIFDUS_clean_linker_0, # of connection points: 2
#     Edge 66, Type (0, 0), BuildingBlock: CIFDUS_clean_linker_0, # of connection points: 2
#     Edge 67, Type (0, 0), BuildingBlock: CIFDUS_clean_linker_0, # of connection points: 2
#     Edge 68, Type (0, 0), BuildingBlock: CIFDUS_clean_linker_0, # of connection points: 2
#     Edge 69, Type (0, 0), BuildingBlock: CIFDUS_clean_linker_0, # of connection points: 2
#     Edge 70, Type (0, 0), BuildingBlock: CIFDUS_clean_linker_0, # of connection points: 2
#     Edge 71, Type (0, 0), BuildingBlock: CIFDUS_clean_linker_0, # of connection points: 2
# Relax obj value: 0.275
# Max RMSD: 0.160
# Mean RMSD: 0.160
data_MOF--net-lta--node1-QUQFOY_clean_sbu_3--edge1-CIFDUS_clean_linker_0
_symmetry_space_group_name_H-M    P1
_symmetry_Int_Tables_number       1
_symmetry_cell_setting            triclinic
loop_
_symmetry_equiv_pos_as_xyz
'x, y, z'
_cell_length_a     52.155946
_cell_length_b     52.588762
_cell_length_c     52.349525
_cell_angle_alpha  90.1593316
_cell_angle_beta   89.826745
_cell_angle_gamma 89.810913
loop_
_atom_site_label
_atom_site_type_symbol
_atom_site_fract_x
_atom_site_fract_y
_atom_site_fract_z
_atom_type_partial_charge
C0 C 0.11395 0.34393 0.45241 0.0
O1 O 0.11007 0.36127 0.46887 0.0
Cd2 Cd 0.09213 0.35271 0.5093 0.0
O3 O 0.11174 0.3205 0.45831 0.0
Cd4 Cd 0.10595 0.29549 0.49912 0.0
C5 C 0.04425 0.30981 0.49197 0.0
O6 O 0.12302 0.32588 0.52871 0.0
O7 O 0.0982 0.29866 0.54639 0.0
O8 O 0.14658 0.2759 0.49015 0.0
C9 C 0.1138 0.31694 0.54909 0.0
O10 O 0.05135 0.332 0.49872 0.0
C11 C 0.13928 0.25303 0.49223 0.0
O12 O 0.06037 0.29166 0.49025 0.0
O13 O 0.11571 0.24944 0.49731 0.0
C14 C 0.61455 0.1278 0.45884 0.0
O15 O 0.5987 0.12648 0.47721 0.0
Cd16 Cd 0.60697 0.10488 0.51575 0.0
O17 O 0.63781 0.12061 0.46154 0.0
Cd18 Cd 0.66643 0.10723 0.49807 0.0
C19 C 0.63853 0.05075 0.49159 0.0
O20 O 0.643 0.12542 0.53271 0.0
O21 O 0.6668 0.09423 0.5441 0.0
O22 O 0.69231 0.14438 0.49486 0.0
C23 C 0.65124 0.1117 0.55068 0.0
O24 O 0.61918 0.06199 0.5015 0.0
C25 C 0.71347 0.13335 0.49024 0.0
O26 O 0.65936 0.06266 0.48737 0.0
O27 O 0.71317 0.10922 0.48841 0.0
C28 C 0.83832 0.60687 0.46572 0.0
O29 O 0.84014 0.59356 0.48582 0.0
Cd30 Cd 0.86052 0.60818 0.52334 0.0
O31 O 0.8436 0.63057 0.46594 0.0
Cd32 Cd 0.85241 0.66502 0.4984 0.0
C33 C 0.9117 0.64177 0.49485 0.0
O34 O 0.8368 0.64415 0.53557 0.0
O35 O 0.86345 0.67383 0.54392 0.0
O36 O 0.8116 0.67955 0.48465 0.0
C37 C 0.84918 0.65622 0.55235 0.0
O38 O 0.90188 0.6231 0.50691 0.0
C39 C 0.8171 0.70285 0.48203 0.0
O40 O 0.89812 0.66086 0.48818 0.0
O41 O 0.84014 0.70934 0.48675 0.0
C42 C 0.33719 0.86838 0.4361 0.0
O43 O 0.35436 0.87789 0.45029 0.0
Cd44 Cd 0.35537 0.87445 0.49558 0.0
O45 O 0.31744 0.85774 0.44565 0.0
Cd46 Cd 0.30016 0.85394 0.49015 0.0
C47 C 0.30784 0.91637 0.5047 0.0
O48 O 0.33839 0.83357 0.50497 0.0
O49 O 0.31357 0.84516 0.53555 0.0
O50 O 0.27816 0.81654 0.47487 0.0
C51 C 0.33344 0.83296 0.52854 0.0
O52 O 0.33056 0.91029 0.511 0.0
C53 C 0.25642 0.82177 0.4845 0.0
O54 O 0.29316 0.90026 0.49396 0.0
O55 O 0.25452 0.84267 0.49661 0.0
C56 C 0.13265 0.61152 0.50039 0.0
O57 O 0.12788 0.59641 0.48209 0.0
Cd58 Cd 0.10869 0.60837 0.44295 0.0
O59 O 0.13069 0.63556 0.49759 0.0
Cd60 Cd 0.12364 0.66558 0.46056 0.0
C61 C 0.0617 0.65082 0.46577 0.0
O62 O 0.1358 0.63907 0.42503 0.0
O63 O 0.11028 0.66944 0.41516 0.0
O64 O 0.16622 0.68189 0.46526 0.0
C65 C 0.12346 0.65047 0.40774 0.0
O66 O 0.06897 0.62981 0.45583 0.0
C67 C 0.16019 0.70511 0.46802 0.0
O68 O 0.07782 0.6683 0.47094 0.0
O69 O 0.13636 0.71047 0.4681 0.0
C70 C 0.35244 0.12505 0.5014 0.0
O71 O 0.36637 0.11612 0.48359 0.0
Cd72 Cd 0.35052 0.09989 0.44463 0.0
O73 O 0.32826 0.12758 0.49859 0.0
Cd74 Cd 0.29708 0.12241 0.46217 0.0
C75 C 0.30284 0.05948 0.46667 0.0
O76 O 0.32606 0.13449 0.42885 0.0
O77 O 0.29422 0.11309 0.41502 0.0
O78 O 0.28171 0.1646 0.47194 0.0
C79 C 0.31413 0.1259 0.40982 0.0
O80 O 0.32447 0.06268 0.45581 0.0
C81 C 0.25806 0.15914 0.47237 0.0
O82 O 0.28869 0.07823 0.47292 0.0
O83 O 0.25218 0.13606 0.46819 0.0
C84 C 0.82928 0.34312 0.49398 0.0
O85 O 0.82802 0.35843 0.47532 0.0
Cd86 Cd 0.84086 0.34716 0.43363 0.0
O87 O 0.83422 0.31956 0.49037 0.0
Cd88 Cd 0.8388 0.28851 0.45373 0.0
C89 C 0.89712 0.3142 0.45061 0.0
O90 O 0.81398 0.31248 0.42451 0.0
O91 O 0.83868 0.28589 0.40565 0.0
O92 O 0.80495 0.26855 0.47677 0.0
C93 C 0.82155 0.30297 0.40366 0.0
O94 O 0.88517 0.33334 0.44151 0.0
C95 C 0.81202 0.24572 0.47332 0.0
O96 O 0.88505 0.29425 0.45737 0.0
O97 O 0.8325 0.24214 0.46048 0.0
C98 C 0.62697 0.83722 0.52886 0.0
O99 O 0.60682 0.84319 0.51673 0.0
Cd100 Cd 0.60355 0.85075 0.47239 0.0
O101 O 0.64855 0.83461 0.51755 0.0
Cd102 Cd 0.66453 0.8391 0.47225 0.0
C103 C 0.64589 0.90089 0.46966 0.0
O104 O 0.62863 0.81731 0.45493 0.0
O105 O 0.65113 0.83559 0.42608 0.0
O106 O 0.69051 0.8017 0.47756 0.0
C107 C 0.63259 0.82095 0.43147 0.0
O108 O 0.62318 0.89229 0.46783 0.0
C109 C 0.71188 0.81174 0.4721 0.0
O110 O 0.66487 0.88585 0.47255 0.0
O111 O 0.71177 0.83535 0.46697 0.0
C112 C 0.43989 0.11613 0.33639 0.0
O113 O 0.45162 0.10895 0.35631 0.0
Cd114 Cd 0.49548 0.09702 0.35858 0.0
O115 O 0.45144 0.11814 0.31498 0.0
Cd116 Cd 0.49624 0.11083 0.2986 0.0
C117 C 0.49374 0.04859 0.31365 0.0
O118 O 0.51808 0.12809 0.33503 0.0
O119 O 0.54261 0.10677 0.30978 0.0
O120 O 0.49488 0.15128 0.27802 0.0
C121 C 0.54054 0.12087 0.3294 0.0
O122 O 0.49635 0.05657 0.33647 0.0
C123 C 0.49874 0.14354 0.2554 0.0
O124 O 0.49175 0.0642 0.29514 0.0
O125 O 0.50081 0.11965 0.25207 0.0
C126 C 0.817 0.43232 0.34201 0.0
O127 O 0.82075 0.44407 0.36286 0.0
Cd128 Cd 0.84257 0.48323 0.36648 0.0
O129 O 0.82194 0.44256 0.32048 0.0
Cd130 Cd 0.83411 0.48606 0.30434 0.0
C131 C 0.89338 0.47116 0.3238 0.0
O132 O 0.81895 0.51023 0.33986 0.0
O133 O 0.84455 0.53123 0.31573 0.0
O134 O 0.79367 0.48941 0.28331 0.0
C135 C 0.83012 0.53101 0.33531 0.0
O136 O 0.88368 0.47378 0.34605 0.0
C137 C 0.80217 0.49106 0.26068 0.0
O138 O 0.87986 0.47448 0.3038 0.0
O139 O 0.82639 0.49006 0.25768 0.0
C140 C 0.51101 0.82684 0.34458 0.0
O141 O 0.49377 0.82536 0.36165 0.0
Cd142 Cd 0.45305 0.84459 0.3558 0.0
O143 O 0.50546 0.83391 0.32197 0.0
Cd144 Cd 0.4653 0.84127 0.2965 0.0
C145 C 0.47179 0.89871 0.32105 0.0
O146 O 0.43242 0.82246 0.32269 0.0
O147 O 0.41911 0.85244 0.2983 0.0
O148 O 0.47337 0.80212 0.27501 0.0
C149 C 0.41369 0.83544 0.3146 0.0
O150 O 0.46416 0.88743 0.34123 0.0
C151 C 0.47275 0.81067 0.2524 0.0
O152 O 0.47472 0.88655 0.30013 0.0
O153 O 0.46928 0.83452 0.2498 0.0
C154 C 0.10476 0.52725 0.3322 0.0
O155 O 0.09587 0.51612 0.35177 0.0
Cd156 Cd 0.09099 0.47149 0.35622 0.0
O157 O 0.11076 0.51482 0.31208 0.0
Cd158 Cd 0.10779 0.4695 0.29714 0.0
C159 C 0.04445 0.46395 0.31058 0.0
O160 O 0.12742 0.45416 0.33527 0.0
O161 O 0.1123 0.42415 0.31206 0.0
O162 O 0.14702 0.47834 0.27493 0.0
C163 C 0.12505 0.43057 0.33164 0.0
O164 O 0.05179 0.46236 0.33368 0.0
C165 C 0.14042 0.46997 0.25322 0.0
O166 O 0.06045 0.46871 0.29275 0.0
O167 O 0.11771 0.46148 0.25126 0.0
C168 C 0.45284 0.83495 0.61852 0.0
O169 O 0.4705 0.83673 0.60191 0.0
Cd170 Cd 0.51073 0.85482 0.61192 0.0
O171 O 0.45754 0.83872 0.64213 0.0
Cd172 Cd 0.49688 0.84405 0.6694 0.0
C173 C 0.4913 0.90429 0.6528 0.0
O174 O 0.53 0.82735 0.64188 0.0
O175 O 0.54357 0.85398 0.66981 0.0
O176 O 0.48762 0.80358 0.68777 0.0
C177 C 0.54892 0.83848 0.65193 0.0
O178 O 0.49942 0.89588 0.63136 0.0
C179 C 0.48777 0.81069 0.71092 0.0
O180 O 0.48786 0.88937 0.67161 0.0
O181 O 0.49179 0.83417 0.71523 0.0
C182 C 0.12271 0.44143 0.6239 0.0
O183 O 0.11466 0.45368 0.60468 0.0
Cd184 Cd 0.10007 0.49604 0.60563 0.0
O185 O 0.12536 0.45206 0.64571 0.0
Cd186 Cd 0.12039 0.49633 0.66441 0.0
C187 C 0.05709 0.48887 0.6562 0.0
O188 O 0.13417 0.51711 0.62642 0.0
O189 O 0.1166 0.5429 0.65304 0.0
O190 O 0.16252 0.49172 0.68242 0.0
C191 C 0.1285 0.53977 0.63206 0.0
O192 O 0.06235 0.4909 0.63253 0.0
C193 C 0.1564 0.49629 0.70543 0.0
O194 O 0.0745 0.49026 0.67313 0.0
O195 O 0.13285 0.50078 0.70998 0.0
C196 C 0.5229 0.11743 0.62051 0.0
O197 O 0.50983 0.11613 0.60015 0.0
Cd198 Cd 0.4654 0.10695 0.59761 0.0
O199 O 0.51246 0.11578 0.64251 0.0
Cd200 Cd 0.46833 0.11234 0.66153 0.0
C201 C 0.46687 0.05306 0.63686 0.0
O202 O 0.44745 0.13451 0.62806 0.0
O203 O 0.42107 0.11574 0.65305 0.0
O204 O 0.48218 0.14852 0.68508 0.0
C205 C 0.42442 0.12928 0.6333 0.0
O206 O 0.46422 0.06429 0.61546 0.0
C207 C 0.4756 0.14099 0.70712 0.0
O208 O 0.4699 0.06571 0.6575 0.0
O209 O 0.46542 0.11905 0.70856 0.0
C210 C 0.85884 0.53074 0.62181 0.0
O211 O 0.86935 0.5202 0.60261 0.0
Cd212 Cd 0.87034 0.47547 0.59493 0.0
O213 O 0.84928 0.5175 0.63979 0.0
Cd214 Cd 0.84792 0.47135 0.6505 0.0
C215 C 0.91135 0.46084 0.64301 0.0
O216 O 0.83059 0.45928 0.60975 0.0
O217 O 0.84266 0.42761 0.63276 0.0
O218 O 0.80711 0.48113 0.66927 0.0
C219 C 0.83135 0.43546 0.61283 0.0
O220 O 0.90612 0.45977 0.61932 0.0
C221 C 0.81122 0.47106 0.69082 0.0
O222 O 0.89442 0.46753 0.65933 0.0
O223 O 0.83324 0.46125 0.69435 0.0
C224 C 0.34928 0.42905 0.1301 0.0
O225 O 0.36727 0.44446 0.12523 0.0
Cd226 Cd 0.36087 0.4861 0.10944 0.0
O227 O 0.32585 0.43599 0.12921 0.0
Cd228 Cd 0.30224 0.47744 0.12353 0.0
C229 C 0.31608 0.47457 0.06126 0.0
O230 O 0.33426 0.50601 0.14022 0.0
O231 O 0.30654 0.52403 0.11606 0.0
O232 O 0.28401 0.4707 0.1649 0.0
C233 C 0.32547 0.5264 0.13103 0.0
O234 O 0.3385 0.48046 0.06886 0.0
C235 C 0.26066 0.473 0.1587 0.0
O236 O 0.29795 0.47108 0.07726 0.0
O237 O 0.25593 0.47687 0.13519 0.0
C238 C 0.34902 0.50071 0.83995 0.0
O239 O 0.36423 0.48184 0.83892 0.0
Cd240 Cd 0.35402 0.44057 0.85326 0.0
O241 O 0.32536 0.4977 0.84555 0.0
Cd242 Cd 0.29471 0.46097 0.85142 0.0
C243 C 0.32076 0.45783 0.90946 0.0
O244 O 0.31832 0.42895 0.8289 0.0
O245 O 0.29143 0.41369 0.85565 0.0
O246 O 0.27408 0.47734 0.81428 0.0
C247 C 0.30851 0.40941 0.83884 0.0
O248 O 0.3399 0.44878 0.89717 0.0
C249 C 0.25123 0.47675 0.82258 0.0
O250 O 0.3005 0.46496 0.89784 0.0
O251 O 0.24806 0.46926 0.8455 0.0
C252 C 0.43544 0.33725 0.8367 0.0
O253 O 0.44763 0.35676 0.84409 0.0
Cd254 Cd 0.49123 0.35844 0.85671 0.0
O255 O 0.4464 0.31563 0.83436 0.0
Cd256 Cd 0.49079 0.29762 0.83989 0.0
C257 C 0.489 0.31101 0.90308 0.0
O258 O 0.51238 0.33459 0.82495 0.0
O259 O 0.53778 0.30746 0.84214 0.0
O260 O 0.48777 0.27895 0.79833 0.0
C261 C 0.53508 0.32862 0.83082 0.0
O262 O 0.49131 0.33404 0.89596 0.0
C263 C 0.49073 0.25598 0.80497 0.0
O264 O 0.48725 0.29305 0.88672 0.0
O265 O 0.49332 0.25163 0.82873 0.0
C266 C 0.61595 0.45543 0.83864 0.0
O267 O 0.60392 0.47481 0.84688 0.0
Cd268 Cd 0.62279 0.51247 0.8629 0.0
O269 O 0.64038 0.45536 0.83692 0.0
Cd270 Cd 0.67501 0.48794 0.84359 0.0
C271 C 0.66556 0.4866 0.9063 0.0
O272 O 0.65142 0.52475 0.83022 0.0
O273 O 0.68263 0.53369 0.85488 0.0
O274 O 0.69281 0.47813 0.80227 0.0
C275 C 0.6645 0.54179 0.84098 0.0
O276 O 0.64624 0.50074 0.90172 0.0
C277 C 0.71575 0.47505 0.80963 0.0
O278 O 0.67891 0.47685 0.88839 0.0
O279 O 0.71996 0.47724 0.83343 0.0
C280 C 0.54299 0.62251 0.85225 0.0
O281 O 0.53216 0.6088 0.869 0.0
Cd282 Cd 0.48651 0.60598 0.87345 0.0
O283 O 0.52993 0.63804 0.83888 0.0
Cd284 Cd 0.4846 0.65273 0.84153 0.0
C285 C 0.481 0.65952 0.9054 0.0
O286 O 0.46905 0.61096 0.83157 0.0
O287 O 0.43903 0.63708 0.84214 0.0
O288 O 0.49112 0.66899 0.79885 0.0
C289 C 0.44533 0.61567 0.83272 0.0
O290 O 0.47334 0.63664 0.90551 0.0
C291 C 0.48231 0.69106 0.80341 0.0
O292 O 0.48973 0.6694 0.88506 0.0
O293 O 0.47438 0.69547 0.82595 0.0
C294 C 0.6212 0.51483 0.09803 0.0
O295 O 0.60512 0.49886 0.08957 0.0
Cd296 Cd 0.60875 0.45387 0.09334 0.0
O297 O 0.64221 0.50757 0.10809 0.0
Cd298 Cd 0.6637 0.46513 0.1127 0.0
C299 C 0.65646 0.44937 0.05048 0.0
O300 O 0.62775 0.4465 0.13407 0.0
O301 O 0.6552 0.41885 0.12131 0.0
O302 O 0.68592 0.4838 0.14862 0.0
C303 C 0.63508 0.42363 0.13417 0.0
O304 O 0.63442 0.44113 0.05668 0.0
C305 C 0.70798 0.47511 0.14307 0.0
O306 O 0.67021 0.46136 0.06652 0.0
O307 O 0.70977 0.46184 0.12282 0.0
C308 C 0.44353 0.61257 0.10099 0.0
O309 O 0.45957 0.60133 0.08657 0.0
Cd310 Cd 0.50416 0.61121 0.08378 0.0
O311 O 0.45004 0.6319 0.11417 0.0
Cd312 Cd 0.48987 0.65813 0.11485 0.0
C313 C 0.4925 0.66423 0.05116 0.0
O314 O 0.51813 0.62348 0.12537 0.0
O315 O 0.53768 0.65627 0.11097 0.0
O316 O 0.4784 0.67202 0.15747 0.0
C317 C 0.53913 0.63483 0.12191 0.0
O318 O 0.50649 0.64439 0.05165 0.0
C319 C 0.4821 0.69553 0.1535 0.0
O320 O 0.48098 0.67194 0.07117 0.0
O321 O 0.4891 0.70187 0.13115 0.0
C322 C 0.51813 0.33287 0.12631 0.0
O323 O 0.50066 0.34962 0.12819 0.0
Cd324 Cd 0.45877 0.34398 0.11235 0.0
O325 O 0.51296 0.31022 0.11914 0.0
Cd326 Cd 0.47335 0.28355 0.11173 0.0
C327 C 0.47398 0.31164 0.05502 0.0
O328 O 0.44367 0.30901 0.13538 0.0
O329 O 0.42537 0.28479 0.10813 0.0
O330 O 0.48934 0.26051 0.14733 0.0
C331 C 0.42296 0.30146 0.12555 0.0
O332 O 0.46665 0.33092 0.06802 0.0
C333 C 0.48589 0.23828 0.13862 0.0
O334 O 0.47875 0.29045 0.06584 0.0
O335 O 0.47679 0.23651 0.11613 0.0
H336 H 0.10691 0.38221 0.33953 0.0
H337 H 0.15722 0.43929 0.37091 0.0
H338 H 0.1612 0.4151 0.4102 0.0
H339 H 0.14514 0.38161 0.43799 0.0
H340 H 0.09471 0.32421 0.40801 0.0
H341 H 0.09632 0.34429 0.36573 0.0
C342 C 0.1192 0.38899 0.35475 0.0
C343 C 0.13131 0.41278 0.35254 0.0
C344 C 0.12116 0.37507 0.37764 0.0
C345 C 0.14733 0.42126 0.37233 0.0
C346 C 0.14962 0.40747 0.39484 0.0
C347 C 0.13498 0.37319 0.42201 0.0
C348 C 0.11959 0.35177 0.42601 0.0
C349 C 0.13579 0.38496 0.39808 0.0
C350 C 0.10672 0.34075 0.40524 0.0
C351 C 0.10747 0.35236 0.38117 0.0
H352 H 0.62609 0.10716 0.41246 0.0
H353 H 0.57957 0.16449 0.44936 0.0
H354 H 0.55468 0.17005 0.4104 0.0
H355 H 0.54187 0.15386 0.36874 0.0
H356 H 0.58608 0.0946 0.33214 0.0
H357 H 0.61637 0.09473 0.36783 0.0
C358 C 0.61103 0.12141 0.41161 0.0
C359 C 0.60452 0.13533 0.43369 0.0
C360 C 0.5961 0.12379 0.38938 0.0
C361 C 0.58478 0.15351 0.43257 0.0
C362 C 0.57047 0.15658 0.41037 0.0
C363 C 0.55836 0.14124 0.36836 0.0
C364 C 0.56149 0.12393 0.3481 0.0
C365 C 0.57524 0.14104 0.38911 0.0
C366 C 0.58316 0.10798 0.34764 0.0
C367 C 0.60041 0.10798 0.36811 0.0
H368 H 0.85569 0.6155 0.41727 0.0
H369 H 0.80364 0.56921 0.46117 0.0
H370 H 0.79422 0.54364 0.42348 0.0
H371 H 0.80395 0.5317 0.3797 0.0
H372 H 0.85838 0.57518 0.33575 0.0
H373 H 0.86349 0.60481 0.37164 0.0
C374 C 0.84196 0.6001 0.41835 0.0
C375 C 0.83042 0.59413 0.44191 0.0
C376 C 0.83726 0.58486 0.3967 0.0
C377 C 0.81286 0.57399 0.44324 0.0
C378 C 0.80749 0.55937 0.42173 0.0
C379 C 0.81676 0.54781 0.37778 0.0
C380 C 0.83097 0.55108 0.35518 0.0
C381 C 0.8201 0.56419 0.3986 0.0
C382 C 0.8473 0.57217 0.353 0.0
C383 C 0.85029 0.58905 0.37355 0.0
H384 H 0.33875 0.82649 0.40649 0.0
H385 H 0.34874 0.90772 0.40498 0.0
H386 H 0.36853 0.90484 0.36263 0.0
H387 H 0.39054 0.87853 0.33065 0.0
H388 H 0.38663 0.79689 0.33578 0.0
H389 H 0.35655 0.80035 0.37162 0.0
C390 C 0.34445 0.84356 0.39637 0.0
C391 C 0.34225 0.86728 0.40852 0.0
C392 C 0.35726 0.84153 0.3728 0.0
C393 C 0.3502 0.88931 0.39573 0.0
C394 C 0.36166 0.88762 0.37166 0.0
C395 C 0.38231 0.86156 0.33903 0.0
C396 C 0.39057 0.8375 0.33065 0.0
C397 C 0.36639 0.86374 0.3606 0.0
C398 C 0.38035 0.81558 0.34197 0.0
C399 C 0.36335 0.81758 0.36255 0.0
H400 H 0.15804 0.53796 0.59005 0.0
H401 H 0.1043 0.58646 0.62985 0.0
H402 H 0.10374 0.61568 0.59335 0.0
H403 H 0.11441 0.62413 0.54775 0.0
H404 H 0.16584 0.57308 0.50811 0.0
H405 H 0.17174 0.54834 0.54698 0.0
C406 C 0.14642 0.5551 0.59093 0.0
C407 C 0.13095 0.55985 0.61244 0.0
C408 C 0.14575 0.5713 0.56978 0.0
C409 C 0.1163 0.58232 0.61343 0.0
C410 C 0.11589 0.59894 0.59251 0.0
C411 C 0.12739 0.60797 0.54794 0.0
C412 C 0.13969 0.60033 0.52519 0.0
C413 C 0.12995 0.59321 0.57024 0.0
C414 C 0.15617 0.57919 0.52543 0.0
C415 C 0.15946 0.56501 0.54759 0.0
H416 H 0.33813 0.11478 0.55051 0.0
H417 H 0.39559 0.15252 0.50509 0.0
H418 H 0.42107 0.16071 0.54317 0.0
H419 H 0.42956 0.15266 0.58793 0.0
H420 H 0.37481 0.11139 0.63361 0.0
H421 H 0.34548 0.10947 0.59713 0.0
C422 C 0.35597 0.12525 0.54919 0.0
C423 C 0.36511 0.13303 0.52516 0.0
C424 C 0.37107 0.12904 0.57114 0.0
C425 C 0.38835 0.14629 0.52345 0.0
C426 C 0.40291 0.15094 0.54518 0.0
C427 C 0.41105 0.14354 0.59011 0.0
C428 C 0.40453 0.1319 0.61335 0.0
C429 C 0.39486 0.1417 0.56893 0.0
C430 C 0.38036 0.12038 0.61585 0.0
C431 C 0.36365 0.11917 0.59496 0.0
H432 H 0.84482 0.38556 0.60527 0.0
H433 H 0.80105 0.4473 0.57281 0.0
H434 H 0.79384 0.4225 0.53424 0.0
H435 H 0.80427 0.38584 0.50775 0.0
H436 H 0.84889 0.32406 0.53865 0.0
H437 H 0.85105 0.34606 0.57995 0.0
C438 C 0.83333 0.39334 0.58993 0.0
C439 C 0.82386 0.41838 0.59171 0.0
C440 C 0.82957 0.37908 0.56746 0.0
C441 C 0.80889 0.42821 0.57175 0.0
C442 C 0.80473 0.41407 0.54965 0.0
C443 C 0.81419 0.37701 0.52362 0.0
C444 C 0.82675 0.35361 0.52008 0.0
C445 C 0.8157 0.38988 0.54698 0.0
C446 C 0.83913 0.34214 0.54092 0.0
C447 C 0.84051 0.35479 0.56447 0.0
H448 H 0.57277 0.80088 0.62605 0.0
H449 H 0.57799 0.88071 0.64404 0.0
H450 H 0.60847 0.8867 0.60902 0.0
H451 H 0.62536 0.87079 0.56779 0.0
H452 H 0.61959 0.79112 0.5497 0.0
H453 H 0.59815 0.78321 0.59052 0.0
C454 C 0.58136 0.81937 0.62283 0.0
C455 C 0.57295 0.84038 0.63723 0.0
C456 C 0.59855 0.82269 0.60247 0.0
C457 C 0.58421 0.86426 0.63314 0.0
C458 C 0.60145 0.86773 0.61295 0.0
C459 C 0.62047 0.85157 0.57345 0.0
C460 C 0.62402 0.83149 0.55607 0.0
C461 C 0.60763 0.84734 0.59668 0.0
C462 C 0.61727 0.8067 0.5631 0.0
C463 C 0.60473 0.80227 0.58626 0.0
H464 H 0.34215 0.16091 0.3852 0.0
H465 H 0.31973 0.08219 0.38232 0.0
H466 H 0.35584 0.07261 0.35392 0.0
H467 H 0.39891 0.08511 0.33864 0.0
H468 H 0.42149 0.16371 0.34229 0.0
H469 H 0.38005 0.17512 0.36125 0.0
C470 C 0.34461 0.1419 0.37741 0.0
C471 C 0.32858 0.12224 0.3859 0.0
C472 C 0.36571 0.1365 0.36162 0.0
C473 C 0.33178 0.09765 0.37586 0.0
C474 C 0.35265 0.09211 0.35992 0.0
C475 C 0.39419 0.10484 0.34263 0.0
C476 C 0.41294 0.12363 0.33917 0.0
C477 C 0.37052 0.11111 0.35391 0.0
C478 C 0.40708 0.14909 0.34464 0.0
C479 C 0.38352 0.15554 0.35568 0.0
H480 H 0.78176 0.33301 0.39182 0.0
H481 H 0.8558 0.30868 0.36417 0.0
H482 H 0.85799 0.3459 0.33631 0.0
H483 H 0.84371 0.3902 0.32882 0.0
H484 H 0.77199 0.41584 0.36089 0.0
H485 H 0.76364 0.37334 0.3776 0.0
C486 C 0.79793 0.3354 0.37895 0.0
C487 C 0.81879 0.3185 0.38038 0.0
C488 C 0.7996 0.35744 0.3641 0.0
C489 C 0.83954 0.32152 0.36349 0.0
C490 C 0.84093 0.343 0.3478 0.0
C491 C 0.82579 0.38603 0.33849 0.0
C492 C 0.8084 0.40586 0.34367 0.0
C493 C 0.82183 0.36186 0.34922 0.0
C494 C 0.78547 0.40067 0.35665 0.0
C495 C 0.78084 0.37646 0.36638 0.0
H496 H 0.52851 0.79435 0.38013 0.0
H497 H 0.55361 0.85132 0.3267 0.0
H498 H 0.59597 0.85211 0.34687 0.0
H499 H 0.62314 0.8414 0.3842 0.0
H500 H 0.59674 0.78463 0.43748 0.0
H501 H 0.55788 0.77866 0.41266 0.0
C502 C 0.54346 0.80652 0.37256 0.0
C503 C 0.53793 0.82301 0.35229 0.0
C504 C 0.56747 0.8071 0.38442 0.0
C505 C 0.55748 0.83846 0.34236 0.0
C506 C 0.58162 0.83906 0.35402 0.0
C507 C 0.60916 0.82729 0.38995 0.0
C508 C 0.61254 0.81386 0.41292 0.0
C509 C 0.58648 0.82419 0.37574 0.0
C510 C 0.59436 0.79552 0.4201 0.0
C511 C 0.57209 0.7921 0.40596 0.0
H512 H 0.15452 0.62417 0.3758 0.0
H513 H 0.07524 0.64282 0.39016 0.0
H514 H 0.06167 0.60739 0.3632 0.0
H515 H 0.07282 0.56605 0.3437 0.0
H516 H 0.15192 0.54795 0.32813 0.0
H517 H 0.16525 0.58849 0.34689 0.0
C518 C 0.13431 0.62104 0.37211 0.0
C519 C 0.11589 0.63581 0.38502 0.0
C520 C 0.12667 0.60053 0.35671 0.0
C521 C 0.08974 0.63174 0.38025 0.0
C522 C 0.08198 0.61129 0.36508 0.0
C523 C 0.09285 0.57156 0.34352 0.0
C524 C 0.11144 0.55421 0.33482 0.0
C525 C 0.1003 0.5948 0.35438 0.0
C526 C 0.13735 0.56123 0.33463 0.0
C527 C 0.14497 0.58425 0.34559 0.0
H528 H 0.34048 0.84735 0.57845 0.0
H529 H 0.37195 0.80008 0.51846 0.0
H530 H 0.4108 0.79346 0.54319 0.0
H531 H 0.4384 0.80662 0.57829 0.0
H532 H 0.40824 0.85427 0.63843 0.0
H533 H 0.36622 0.85491 0.61752 0.0
C534 C 0.35557 0.83508 0.57115 0.0
C535 C 0.35358 0.82462 0.54646 0.0
C536 C 0.37823 0.8317 0.58534 0.0
C537 C 0.37322 0.80866 0.53726 0.0
C538 C 0.39549 0.8049 0.55134 0.0
C539 C 0.42245 0.81671 0.58708 0.0
C540 C 0.42641 0.8307 0.60956 0.0
C541 C 0.39863 0.81722 0.57484 0.0
C542 C 0.40559 0.84339 0.62105 0.0
C543 C 0.38164 0.84391 0.60899 0.0
H544 H 0.09096 0.40148 0.62882 0.0
H545 H 0.16789 0.42236 0.60774 0.0
H546 H 0.17379 0.38157 0.58592 0.0
H547 H 0.15366 0.34482 0.5653 0.0
H548 H 0.07606 0.32445 0.58473 0.0
H549 H 0.07385 0.35976 0.61526 0.0
C550 C 0.10935 0.39647 0.62044 0.0
C551 C 0.12909 0.41456 0.61994 0.0
C552 C 0.11223 0.37332 0.60723 0.0
C553 C 0.15267 0.4084 0.60859 0.0
C554 C 0.1559 0.38525 0.59587 0.0
C555 C 0.13658 0.34766 0.57687 0.0
C556 C 0.11493 0.33243 0.57257 0.0
C557 C 0.13532 0.36824 0.59391 0.0
C558 C 0.09295 0.33601 0.58773 0.0
C559 C 0.09161 0.35634 0.605 0.0
H560 H 0.56036 0.08194 0.62007 0.0
H561 H 0.54627 0.16236 0.61345 0.0
H562 H 0.58936 0.16864 0.59607 0.0
H563 H 0.62649 0.14987 0.57439 0.0
H564 H 0.63966 0.06902 0.57819 0.0
H565 H 0.60206 0.06421 0.60578 0.0
C566 C 0.56726 0.10089 0.61573 0.0
C567 C 0.55051 0.12173 0.61799 0.0
C568 C 0.59174 0.10415 0.60497 0.0
C569 C 0.55913 0.14619 0.61197 0.0
C570 C 0.58364 0.14971 0.60188 0.0
C571 C 0.62163 0.13134 0.58207 0.0
C572 C 0.63548 0.10981 0.57401 0.0
C573 C 0.59952 0.12866 0.59706 0.0
C574 C 0.62924 0.08589 0.58414 0.0
C575 C 0.60754 0.0831 0.59965 0.0
H576 H 0.89385 0.5671 0.61178 0.0
H577 H 0.81386 0.55564 0.62876 0.0
H578 H 0.80383 0.5984 0.61334 0.0
H579 H 0.81689 0.63404 0.58573 0.0
H580 H 0.89702 0.64572 0.56949 0.0
H581 H 0.90818 0.60836 0.59472 0.0
C582 C 0.87441 0.57444 0.61298 0.0
C583 C 0.85452 0.55834 0.62091 0.0
C584 C 0.86884 0.59896 0.60404 0.0
C585 C 0.82941 0.56784 0.62266 0.0
C586 C 0.82366 0.59218 0.61365 0.0
C587 C 0.83685 0.62907 0.58885 0.0
C588 C 0.85608 0.64232 0.57565 0.0
C589 C 0.84305 0.60728 0.60298 0.0
C590 C 0.88191 0.63585 0.57963 0.0
C591 C 0.88826 0.61423 0.59372 0.0
H592 H 0.34173 0.38566 0.10309 0.0
H593 H 0.37404 0.41515 0.17272 0.0
H594 H 0.3959 0.37474 0.18035 0.0
H595 H 0.41199 0.33465 0.16315 0.0
H596 H 0.38317 0.30611 0.09152 0.0
H597 H 0.35325 0.34199 0.08897 0.0
C598 C 0.35287 0.38277 0.12031 0.0
C599 C 0.35634 0.40307 0.13744 0.0
C600 C 0.36625 0.35978 0.12398 0.0
C601 C 0.37113 0.39957 0.15946 0.0
C602 C 0.38372 0.37657 0.16371 0.0
C603 C 0.39867 0.33592 0.14731 0.0
C604 C 0.40009 0.31806 0.12735 0.0
C605 C 0.38236 0.35703 0.14551 0.0
C606 C 0.38254 0.31971 0.10709 0.0
C607 C 0.3656 0.34037 0.10551 0.0
H608 H 0.39584 0.61046 0.85013 0.0
H609 H 0.45349 0.57494 0.80249 0.0
H610 H 0.4269 0.53736 0.79786 0.0
H611 H 0.39019 0.51254 0.81152 0.0
H612 H 0.33239 0.54625 0.86004 0.0
H613 H 0.35577 0.58669 0.85978 0.0
C614 C 0.40227 0.59467 0.83836 0.0
C615 C 0.42677 0.5953 0.827 0.0
C616 C 0.38697 0.57272 0.83611 0.0
C617 C 0.43488 0.57475 0.81175 0.0
C618 C 0.4197 0.55323 0.80907 0.0
C619 C 0.3825 0.52884 0.82177 0.0
C620 C 0.35986 0.52635 0.83609 0.0
C621 C 0.39618 0.55167 0.82186 0.0
C622 C 0.34985 0.54772 0.8489 0.0
C623 C 0.36331 0.57077 0.8489 0.0
H624 H 0.39432 0.33377 0.8678 0.0
H625 H 0.4172 0.35049 0.79059 0.0
H626 H 0.37554 0.3703 0.78237 0.0
H627 H 0.33719 0.39082 0.80026 0.0
H628 H 0.31492 0.37581 0.87811 0.0
H629 H 0.35119 0.34669 0.88287 0.0
C630 C 0.38962 0.34081 0.84891 0.0
C631 C 0.40848 0.34071 0.82973 0.0
C632 C 0.3659 0.35278 0.84462 0.0
C633 C 0.40268 0.35022 0.80544 0.0
C634 C 0.379 0.36173 0.80086 0.0
C635 C 0.33978 0.38041 0.81794 0.0
C636 C 0.32374 0.38572 0.83891 0.0
C637 C 0.36106 0.36431 0.82072 0.0
C638 C 0.32706 0.37206 0.86169 0.0
C639 C 0.34799 0.35563 0.86452 0.0
H640 H 0.62674 0.40526 0.84704 0.0
H641 H 0.57097 0.45586 0.81362 0.0
H642 H 0.54234 0.42024 0.80557 0.0
H643 H 0.53131 0.37594 0.81177 0.0
H644 H 0.5848 0.3249 0.84808 0.0
H645 H 0.61632 0.35931 0.85101 0.0
C646 C 0.60852 0.40827 0.83759 0.0
C647 C 0.60086 0.43306 0.83098 0.0
C648 C 0.59168 0.38771 0.83377 0.0
C649 C 0.57712 0.43692 0.819 0.0
C650 C 0.56075 0.41659 0.81442 0.0
C651 C 0.54995 0.37218 0.82011 0.0
C652 C 0.5556 0.34797 0.82992 0.0
C653 C 0.56753 0.39208 0.82234 0.0
C654 C 0.57993 0.34343 0.84049 0.0
C655 C 0.59791 0.36312 0.84223 0.0
H656 H 0.64094 0.57261 0.80738 0.0
H657 H 0.65766 0.56391 0.88745 0.0
H658 H 0.62243 0.59268 0.89841 0.0
H659 H 0.58138 0.61192 0.88528 0.0
H660 H 0.56495 0.62116 0.80519 0.0
H661 H 0.60579 0.601 0.79405 0.0
C662 C 0.63754 0.57799 0.82714 0.0
C663 C 0.6516 0.56608 0.84659 0.0
C664 C 0.61696 0.59415 0.83328 0.0
C665 C 0.64716 0.57302 0.87215 0.0
C666 C 0.62675 0.58917 0.87844 0.0
C667 C 0.58718 0.61019 0.86543 0.0
C668 C 0.57009 0.61744 0.84605 0.0
C669 C 0.61064 0.59857 0.85921 0.0
C670 C 0.57781 0.61556 0.8204 0.0
C671 C 0.60107 0.60388 0.81403 0.0
H672 H 0.61678 0.54665 0.13832 0.0
H673 H 0.60816 0.54244 0.05664 0.0
H674 H 0.5864 0.58373 0.05647 0.0
H675 H 0.56296 0.61661 0.08039 0.0
H676 H 0.56593 0.61739 0.16252 0.0
H677 H 0.59707 0.58236 0.16198 0.0
C678 C 0.61086 0.5553 0.12049 0.0
C679 C 0.61409 0.54185 0.09751 0.0
C680 C 0.59709 0.57833 0.12077 0.0
C681 C 0.60588 0.55271 0.07448 0.0
C682 C 0.59334 0.57618 0.07442 0.0
C683 C 0.57129 0.60968 0.09804 0.0
C684 C 0.56273 0.61964 0.12144 0.0
C685 C 0.58786 0.58861 0.09755 0.0
C686 C 0.57275 0.61013 0.14433 0.0
C687 C 0.5903 0.58998 0.144 0.0
H688 H 0.34149 0.5514 0.0892 0.0
H689 H 0.34798 0.54997 0.17117 0.0
H690 H 0.38319 0.58066 0.16932 0.0
H691 H 0.41613 0.60275 0.14385 0.0
H692 H 0.41312 0.59872 0.0617 0.0
H693 H 0.37254 0.57564 0.06392 0.0
C694 C 0.35012 0.55851 0.10664 0.0
C695 C 0.34208 0.5489 0.1303 0.0
C696 C 0.37128 0.57487 0.10528 0.0
C697 C 0.35381 0.55748 0.1528 0.0
C698 C 0.37403 0.57482 0.15171 0.0
C699 C 0.40618 0.59728 0.12652 0.0
C700 C 0.41737 0.60235 0.10266 0.0
C701 C 0.38355 0.58291 0.128 0.0
C702 C 0.40473 0.59487 0.08025 0.0
C703 C 0.38161 0.58167 0.08152 0.0
H704 H 0.62884 0.37617 0.11367 0.0
H705 H 0.59972 0.42723 0.17159 0.0
H706 H 0.56214 0.40043 0.17738 0.0
H707 H 0.53422 0.36736 0.16052 0.0
H708 H 0.56162 0.31684 0.10146 0.0
H709 H 0.60339 0.33817 0.10181 0.0
C710 C 0.61466 0.38091 0.12808 0.0
C711 C 0.61679 0.40377 0.14194 0.0
C712 C 0.5926 0.36576 0.13079 0.0
C713 C 0.59827 0.40982 0.16053 0.0
C714 C 0.57674 0.3946 0.16377 0.0
C715 C 0.54956 0.36066 0.14814 0.0
C716 C 0.54483 0.34094 0.1307 0.0
C717 C 0.57314 0.37328 0.14813 0.0
C718 C 0.56487 0.33208 0.11501 0.0
C719 C 0.58865 0.34441 0.11508 0.0
H720 H 0.01108 0.34505 0.47451 0.0
H721 H 0.01703 0.26528 0.49253 0.0
H722 H 0.97203 0.25919 0.4806 0.0
H723 H 0.93067 0.27705 0.46597 0.0
H724 H 0.92634 0.35673 0.44638 0.0
H725 H 0.97109 0.36219 0.45777 0.0
C726 C 0.00252 0.32633 0.47595 0.0
C727 C 0.01722 0.30572 0.48471 0.0
C728 C 0.97695 0.32292 0.46863 0.0
C729 C 0.00603 0.28148 0.48594 0.0
C730 C 0.98033 0.278 0.47912 0.0
C731 C 0.93957 0.29556 0.46403 0.0
C732 C 0.92501 0.31645 0.45544 0.0
C733 C 0.96555 0.29864 0.47053 0.0
C734 C 0.93696 0.34027 0.4529 0.0
C735 C 0.96259 0.34349 0.45953 0.0
H736 H 0.67715 0.01623 0.48369 0.0
H737 H 0.59469 0.02407 0.4846 0.0
H738 H 0.59003 -0.02112 0.47591 0.0
H739 H 0.60889 0.937 0.47038 0.0
H740 H 0.69115 0.92763 0.47141 0.0
H741 H 0.69633 0.97362 0.47674 0.0
C742 C 0.6582 0.00804 0.48177 0.0
C743 C 0.63631 0.02349 0.48495 0.0
C744 C 0.65558 -0.0182 0.47718 0.0
C745 C 0.61186 0.0126 0.48251 0.0
C746 C 0.60915 -0.01326 0.47747 0.0
C747 C 0.62803 0.94492 0.47153 0.0
C748 C 0.64959 0.92881 0.47057 0.0
C749 C 0.63083 0.97114 0.47513 0.0
C750 C 0.6742 0.93956 0.47215 0.0
C751 C 0.67717 0.96585 0.47526 0.0
H752 H 0.94614 0.68071 0.48968 0.0
H753 H 0.93878 0.59908 0.48497 0.0
H754 H -0.01575 0.59497 0.47532 0.0
H755 H 0.02604 0.61403 0.46903 0.0
H756 H 0.0353 0.69528 0.47553 0.0
H757 H -0.01079 0.70008 0.4839 0.0
C758 C 0.95455 0.6621 0.48635 0.0
C759 C 0.93914 0.64024 0.48798 0.0
C760 C 0.98102 0.65977 0.48134 0.0
C761 C 0.95027 0.61619 0.48394 0.0
C762 C 0.97627 0.61379 0.47841 0.0
C763 C 0.01805 0.63286 0.47218 0.0
C764 C 0.03408 0.65428 0.47153 0.0
C765 C -0.00819 0.6354 0.47723 0.0
C766 C 0.02338 0.67847 0.47599 0.0
C767 C -0.00297 0.68121 0.48069 0.0
H768 H 0.31303 0.03463 0.5101 0.0
H769 H 0.27632 0.02655 0.43702 0.0
H770 H 0.2699 -0.01899 0.44482 0.0
H771 H 0.28057 0.94282 0.46977 0.0
H772 H 0.32087 0.95077 0.54112 0.0
H773 H 0.31942 -0.00295 0.53722 0.0
C774 C 0.30308 0.02289 0.49626 0.0
C775 C 0.29502 0.03357 0.47314 0.0
C776 C 0.30017 -0.00326 0.50061 0.0
C777 C 0.28247 0.01846 0.45501 0.0
C778 C 0.27891 -0.0075 0.45945 0.0
C779 C 0.28825 0.95475 0.48484 0.0
C780 C 0.3008 0.94352 0.5057 0.0
C781 C 0.28843 -0.01871 0.48183 0.0
C782 C 0.31112 0.95909 0.52491 0.0
C783 C 0.31046 -0.01449 0.52258 0.0
H784 H 0.47562 0.93351 0.28216 0.0
H785 H 0.48198 0.9254 0.36403 0.0
H786 H 0.49076 0.97048 0.36836 0.0
H787 H 0.49501 0.01215 0.34972 0.0
H788 H 0.48719 0.02237 0.26832 0.0
H789 H 0.48083 0.97644 0.26301 0.0
C790 C 0.47907 0.94165 0.30089 0.0
C791 C 0.47796 0.92609 0.32274 0.0
C792 C 0.48382 0.9679 0.30338 0.0
C793 C 0.48242 0.93692 0.3469 0.0
C794 C 0.48754 0.96272 0.34944 0.0
C795 C 0.49205 0.00449 0.33071 0.0
C796 C 0.4915 0.02078 0.30947 0.0
C797 C 0.488 -0.02162 0.3279 0.0
C798 C 0.48768 0.01029 0.28503 0.0
C799 C 0.48399 -0.01597 0.282 0.0
H800 H 0.92747 0.48104 0.28496 0.0
H801 H 0.92066 0.4449 0.35864 0.0
H802 H 0.9665 0.43663 0.35917 0.0
H803 H 0.00875 0.44332 0.34123 0.0
H804 H 0.01749 0.48119 0.26877 0.0
H805 H 0.9707 0.4846 0.26494 0.0
C806 C 0.93605 0.47105 0.3009 0.0
C807 C 0.92074 0.46392 0.3219 0.0
C808 C 0.96275 0.46674 0.30137 0.0
C809 C 0.93207 0.45096 0.34244 0.0
C810 C 0.95829 0.44615 0.34276 0.0
C811 C 0.00049 0.45212 0.32442 0.0
C812 C 0.01658 0.46232 0.30551 0.0
C813 C 0.97385 0.45457 0.32272 0.0
C814 C 0.00551 0.47323 0.28365 0.0
C815 C 0.97876 0.47535 0.28156 0.0
H816 H 0.47879 0.93613 0.61474 0.0
H817 H 0.49001 0.93369 0.69627 0.0
H818 H 0.48228 -0.02032 0.69902 0.0
H819 H 0.47439 0.02094 0.67753 0.0
H820 H 0.46227 0.02168 0.59586 0.0
H821 H 0.46814 0.976 0.59404 0.0
C822 C 0.47956 0.94563 0.63315 0.0
C823 C 0.48531 0.93166 0.65521 0.0
C824 C 0.47492 0.9718 0.63458 0.0
C825 C 0.4857 0.94412 0.67899 0.0
C826 C 0.48134 0.97039 0.68055 0.0
C827 C 0.47283 0.01107 0.6594 0.0
C828 C 0.46817 0.02491 0.63687 0.0
C829 C 0.47622 -0.0155 0.65838 0.0
C830 C 0.46603 0.01171 0.61354 0.0
C831 C 0.46942 -0.01451 0.6124 0.0
H832 H 0.93896 0.48737 0.67831 0.0
H833 H 0.94431 0.42658 0.62302 0.0
H834 H -0.00906 0.42784 0.62514 0.0
H835 H 0.02956 0.45104 0.63674 0.0
H836 H 0.02556 0.51264 0.69095 0.0
H837 H 0.97904 0.50628 0.69549 0.0
C838 C 0.9504 0.47386 0.66746 0.0
C839 C 0.93834 0.45708 0.65033 0.0
C840 C 0.97736 0.47526 0.66816 0.0
C841 C 0.95327 0.43978 0.63616 0.0
C842 C 0.9799 0.4406 0.63724 0.0
C843 C 0.0185 0.46272 0.64992 0.0
C844 C 0.03058 0.48249 0.6632 0.0
C845 C -0.00794 0.45905 0.65218 0.0
C846 C 0.01642 0.49736 0.68051 0.0
C847 C -0.01011 0.49378 0.68297 0.0
H848 H 0.2825 0.46358 0.94534 0.0
H849 H 0.3648 0.45902 0.93661 0.0
H850 H 0.37025 0.46387 -0.01764 0.0
H851 H 0.35224 0.46928 0.02473 0.0
H852 H 0.27023 0.47255 0.03529 0.0
H853 H 0.26411 0.46819 -0.01098 0.0
C854 C 0.30158 0.46372 0.9535 0.0
C855 C 0.32318 0.46093 0.93749 0.0
C856 C 0.30468 0.46621 -0.01985 0.0
C857 C 0.3478 0.46096 0.9484 0.0
C858 C 0.351 0.46379 0.97462 0.0
C859 C 0.33296 0.46912 0.01701 0.0
C860 C 0.31174 0.47139 0.03346 0.0
C861 C 0.32963 0.46639 -0.00937 0.0
C862 C 0.28692 0.47081 0.02304 0.0
C863 C 0.28342 0.46839 -0.00341 0.0
H864 H 0.48715 0.34577 0.94097 0.0
H865 H 0.48684 0.2647 0.92781 0.0
H866 H 0.48289 0.25742 0.97395 0.0
H867 H 0.4786 0.27457 0.01811 0.0
H868 H 0.47781 0.35604 0.02928 0.0
H869 H 0.48316 0.36254 -0.01625 0.0
C870 C 0.48633 0.32641 0.94803 0.0
C871 C 0.48732 0.30582 0.93088 0.0
C872 C 0.48379 0.32244 0.9743 0.0
C873 C 0.48611 0.28093 0.94058 0.0
C874 C 0.48384 0.27677 0.96695 0.0
C875 C 0.47969 0.2937 0.01053 0.0
C876 C 0.47769 0.31476 0.02716 0.0
C877 C 0.48253 0.29743 -0.01598 0.0
C878 C 0.47906 0.33945 0.01701 0.0
C879 C 0.48219 0.34325 -0.00908 0.0
H880 H 0.65726 0.44273 0.93114 0.0
H881 H 0.68661 0.51858 0.9407 0.0
H882 H 0.69112 0.51165 -0.01324 0.0
H883 H 0.68115 0.48611 0.02456 0.0
H884 H 0.64655 0.41231 0.01549 0.0
H885 H 0.65009 0.41589 0.96901 0.0
C886 C 0.66517 0.45742 0.94338 0.0
C887 C 0.67181 0.481 0.93292 0.0
C888 C 0.66662 0.45363 0.96986 0.0
C889 C 0.68157 0.50025 0.94864 0.0
C890 C 0.68406 0.4963 0.97488 0.0
C891 C 0.67509 0.47053 0.01239 0.0
C892 C 0.66371 0.44894 0.02329 0.0
C893 C 0.67591 0.47334 -0.01423 0.0
C894 C 0.65541 0.42908 0.0074 0.0
C895 C 0.65728 0.43119 -0.01913 0.0
H896 H 0.44622 0.66693 0.94311 0.0
H897 H 0.52546 0.67862 0.92305 0.0
H898 H 0.53614 0.68571 0.96794 0.0
H899 H 0.52409 0.67927 0.01309 0.0
H900 H 0.44451 0.66993 0.03309 0.0
H901 H 0.43253 0.67187 -0.01197 0.0
C902 C 0.46558 0.67203 0.94858 0.0
C903 C 0.48511 0.672 0.93012 0.0
C904 C 0.47152 0.67617 0.97437 0.0
C905 C 0.51016 0.67866 0.93711 0.0
C906 C 0.51632 0.68245 0.96277 0.0
C907 C 0.50408 0.6787 0.00753 0.0
C908 C 0.4852 0.67419 0.02608 0.0
C909 C 0.49737 0.67991 -0.01836 0.0
C910 C 0.45929 0.67352 0.01897 0.0
C911 C 0.45247 0.67434 -0.00678 0.0
H912 H 0.1906 0.25699 0.48908 0.0
H913 H 0.12958 0.2018 0.48856 0.0
H914 H 0.16103 0.16749 0.48258 0.0
H915 H 0.20609 0.15351 0.47683 0.0
H916 H 0.26635 0.20967 0.47825 0.0
H917 H 0.23486 0.24328 0.48461 0.0
C918 C 0.18409 0.23746 0.48764 0.0
C919 C 0.1578 0.23194 0.48909 0.0
C920 C 0.20216 0.21801 0.48438 0.0
C921 C 0.14975 0.20652 0.48745 0.0
C922 C 0.16771 0.18693 0.48401 0.0
C923 C 0.21228 0.1731 0.47859 0.0
C924 C 0.23854 0.17906 0.47697 0.0
C925 C 0.194 0.19249 0.48235 0.0
C926 C 0.24629 0.20452 0.47939 0.0
C927 C 0.2283 0.2238 0.48301 0.0
H928 H 0.72319 0.17731 0.51375 0.0
H929 H 0.75626 0.12347 0.46084 0.0
H930 H 0.79206 0.15273 0.45265 0.0
H931 H 0.81105 0.19592 0.45738 0.0
H932 H 0.77635 0.24882 0.51057 0.0
H933 H 0.74428 0.21748 0.52207 0.0
C934 C 0.73837 0.17186 0.50058 0.0
C935 C 0.73698 0.14859 0.48756 0.0
C936 C 0.75854 0.18867 0.49599 0.0
C937 C 0.75696 0.14144 0.47098 0.0
C938 C 0.77731 0.1582 0.46624 0.0
C939 C 0.79674 0.20032 0.47182 0.0
C940 C 0.79583 0.22478 0.48282 0.0
C941 C 0.77793 0.1822 0.47817 0.0
C942 C 0.77725 0.23026 0.50155 0.0
C943 C 0.75886 0.21237 0.50815 0.0
H944 H 0.81836 0.75518 0.48359 0.0
H945 H 0.76965 0.69142 0.4652 0.0
H946 H 0.73345 0.7198 0.45929 0.0
H947 H 0.71454 0.76183 0.46262 0.0
H948 H 0.76178 0.82664 0.48001 0.0
H949 H 0.79966 0.79884 0.48284 0.0
C950 C 0.79991 0.74762 0.47793 0.0
C951 C 0.79668 0.72117 0.47521 0.0
C952 C 0.77885 0.76416 0.47462 0.0
C953 C 0.77266 0.71164 0.46776 0.0
C954 C 0.75186 0.72784 0.46437 0.0
C955 C 0.73316 0.76992 0.46692 0.0
C956 C 0.73539 0.79609 0.47151 0.0
C957 C 0.75459 0.75398 0.46836 0.0
C958 C 0.75966 0.80645 0.47652 0.0
C959 C 0.78125 0.79056 0.47821 0.0
H960 H 0.15535 0.75522 0.48226 0.0
H961 H 0.2107 0.69874 0.45806 0.0
H962 H 0.24479 0.72999 0.46032 0.0
H963 H 0.25924 0.77291 0.46929 0.0
H964 H 0.20541 0.82982 0.49534 0.0
H965 H 0.1704 0.79891 0.4922 0.0
C966 C 0.17487 0.74983 0.4775 0.0
C967 C 0.18042 0.72466 0.47001 0.0
C968 C 0.19467 0.76794 0.47913 0.0
C969 C 0.20585 0.71791 0.464 0.0
C970 C 0.22542 0.73579 0.46521 0.0
C971 C 0.23984 0.77866 0.47418 0.0
C972 C 0.2349 0.80364 0.48238 0.0
C973 C 0.22006 0.76079 0.47275 0.0
C974 C 0.20969 0.81067 0.48893 0.0
C975 C 0.18969 0.793 0.48715 0.0
H976 H 0.48681 0.13769 0.20465 0.0
H977 H 0.51653 0.19119 0.25972 0.0
H978 H 0.51785 0.22421 0.22739 0.0
H979 H 0.50739 0.23898 0.18508 0.0
H980 H 0.47483 0.18772 0.12959 0.0
H981 H 0.47814 0.15261 0.16029 0.0
C982 C 0.49384 0.15651 0.20934 0.0
C983 C 0.50136 0.16211 0.23454 0.0
C984 C 0.49393 0.17579 0.19068 0.0
C985 C 0.51035 0.18654 0.24053 0.0
C986 C 0.51116 0.20543 0.22206 0.0
C987 C 0.50118 0.2201 0.17949 0.0
C988 C 0.49066 0.21602 0.15518 0.0
C989 C 0.50247 0.20043 0.19731 0.0
C990 C 0.48296 0.19136 0.14825 0.0
C991 C 0.48474 0.17133 0.16584 0.0
H992 H 0.80769 0.47412 0.21151 0.0
H993 H 0.75583 0.51372 0.26233 0.0
H994 H 0.72298 0.5143 0.22941 0.0
H995 H 0.70762 0.50049 0.1879 0.0
H996 H 0.75768 0.45856 0.1372 0.0
H997 H 0.79262 0.46208 0.16819 0.0
C998 C 0.78932 0.4832 0.21511 0.0
C999 C 0.78409 0.49375 0.23928 0.0
C1000 C 0.77013 0.48283 0.19624 0.0
C1001 C 0.76019 0.50529 0.2439 0.0
C1002 C 0.74138 0.50563 0.22511 0.0
C1003 C 0.72623 0.4923 0.18345 0.0
C1004 C 0.72998 0.47913 0.16037 0.0
C1005 C 0.74593 0.49393 0.20148 0.0
C1006 C 0.75426 0.46871 0.15492 0.0
C1007 C 0.77423 0.47069 0.17265 0.0
H1008 H 0.48442 0.74731 0.15014 0.0
H1009 H 0.47321 0.68588 0.20361 0.0
H1010 H 0.4697 0.71624 0.23859 0.0
H1011 H 0.47018 0.75971 0.25415 0.0
H1012 H 0.48008 0.822 0.2016 0.0
H1013 H 0.48376 0.79173 0.16598 0.0
C1014 C 0.48115 0.74062 0.16945 0.0
C1015 C 0.47914 0.71436 0.17426 0.0
C1016 C 0.479 0.75825 0.18958 0.0
C1017 C 0.4748 0.70596 0.19935 0.0
C1018 C 0.47284 0.7233 0.2194 0.0
C1019 C 0.47324 0.76676 0.23493 0.0
C1020 C 0.47505 0.79303 0.23052 0.0
C1021 C 0.47501 0.7494 0.21474 0.0
C1022 C 0.47868 0.80182 0.20546 0.0
C1023 C 0.48078 0.78454 0.18513 0.0
H1024 H 0.19144 0.47443 0.25699 0.0
H1025 H 0.1312 0.46429 0.20169 0.0
H1026 H 0.16307 0.46455 0.167 0.0
H1027 H 0.20852 0.46811 0.15268 0.0
H1028 H 0.26773 0.47642 0.20963 0.0
H1029 H 0.23574 0.47642 0.24334 0.0
C1030 C 0.18518 0.47234 0.23734 0.0
C1031 C 0.15902 0.46957 0.23187 0.0
C1032 C 0.20348 0.47216 0.21778 0.0
C1033 C 0.15129 0.4665 0.20635 0.0
C1034 C 0.16949 0.46668 0.18656 0.0
C1035 C 0.21432 0.4699 0.17248 0.0
C1036 C 0.24049 0.47231 0.17858 0.0
C1037 C 0.1957 0.46957 0.19206 0.0
C1038 C 0.24777 0.47445 0.20434 0.0
C1039 C 0.22948 0.47451 0.2237 0.0
H1040 H 0.47787 0.74234 0.80952 0.0
H1041 H 0.48581 0.68352 0.7523 0.0
H1042 H 0.48683 0.71551 0.71874 0.0
H1043 H 0.48709 0.7598 0.70576 0.0
H1044 H 0.48147 0.8194 0.76235 0.0
H1045 H 0.47784 0.78742 0.79617 0.0
C1046 C 0.47963 0.73659 0.78968 0.0
C1047 C 0.48178 0.71065 0.78336 0.0
C1048 C 0.48071 0.75515 0.77045 0.0
C1049 C 0.48426 0.70339 0.75763 0.0
C1050 C 0.48482 0.72165 0.73844 0.0
C1051 C 0.48491 0.76588 0.72547 0.0
C1052 C 0.48452 0.79191 0.73157 0.0
C1053 C 0.48331 0.74753 0.74466 0.0
C1054 C 0.48185 0.79944 0.75721 0.0
C1055 C 0.47978 0.78118 0.77651 0.0
H1056 H 0.25487 0.49156 0.7736 0.0
H1057 H 0.19924 0.4755 0.83249 0.0
H1058 H 0.16439 0.48201 0.80173 0.0
H1059 H 0.15013 0.48949 0.75702 0.0
H1060 H 0.20722 0.50298 0.69874 0.0
H1061 H 0.24109 0.50029 0.73042 0.0
C1062 C 0.23513 0.48965 0.77989 0.0
C1063 C 0.22968 0.48294 0.80529 0.0
C1064 C 0.21544 0.49282 0.76211 0.0
C1065 C 0.20396 0.48063 0.81302 0.0
C1066 C 0.18405 0.48427 0.79542 0.0
C1067 C 0.16998 0.49207 0.75141 0.0
C1068 C 0.17618 0.49628 0.72556 0.0
C1069 C 0.1896 0.48996 0.76975 0.0
C1070 C 0.20196 0.49948 0.71846 0.0
C1071 C 0.22136 0.49799 0.73656 0.0
H1072 H 0.49484 0.18825 0.70657 0.0
H1073 H 0.46376 0.132 0.75776 0.0
H1074 H 0.46742 0.16212 0.79353 0.0
H1075 H 0.47745 0.20569 0.80951 0.0
H1076 H 0.50616 0.26142 0.75629 0.0
H1077 H 0.50556 0.23013 0.72206 0.0
C1078 C 0.48896 0.18239 0.72555 0.0
C1079 C 0.47895 0.15795 0.72947 0.0
C1080 C 0.49065 0.1998 0.74566 0.0
C1081 C 0.47149 0.15076 0.75424 0.0
C1082 C 0.47355 0.16798 0.77466 0.0
C1083 C 0.48378 0.21078 0.79046 0.0
C1084 C 0.49173 0.23582 0.78537 0.0
C1085 C 0.48282 0.19272 0.77052 0.0
C1086 C 0.49974 0.24232 0.7606 0.0
C1087 C 0.49944 0.22446 0.74101 0.0
H1088 H 0.7119 0.47737 0.75846 0.0
H1089 H 0.76639 0.4638 0.81879 0.0
H1090 H 0.80098 0.45999 0.78716 0.0
H1091 H 0.81584 0.46258 0.74218 0.0
H1092 H 0.7606 0.4785 0.683 0.0
H1093 H 0.72621 0.47931 0.71441 0.0
C1094 C 0.7313 0.47336 0.76476 0.0
C1095 C 0.73658 0.47086 0.7909 0.0
C1096 C 0.75099 0.47178 0.74665 0.0
C1097 C 0.76185 0.46581 0.79872 0.0
C1098 C 0.78162 0.46369 0.78066 0.0
C1099 C 0.79624 0.46608 0.73624 0.0
C1100 C 0.79079 0.47059 0.71035 0.0
C1101 C 0.77645 0.46696 0.75455 0.0
C1102 C 0.76534 0.47519 0.70285 0.0
C1103 C 0.74562 0.4756 0.72078 0.0
loop_
_geom_bond_atom_site_label_1
_geom_bond_atom_site_label_2
_geom_bond_distance
_geom_bond_site_symmetry_2
_ccdc_geom_bond_type
C0 O1 1.306 . S
C0 O3 1.160 . S
O1 C0 1.306 . S
O1 Cd2 2.228 . S
Cd2 O1 2.228 . S
Cd2 O6 2.273 . S
Cd2 O10 2.277 . S
O3 C0 1.160 . S
O3 Cd4 2.203 . S
Cd4 O3 2.203 . S
Cd4 O6 2.411 . S
Cd4 O7 2.333 . S
Cd4 O8 2.352 . S
Cd4 O12 2.277 . S
Cd4 O13 2.356 . S
C5 O10 1.209 . S
C5 O12 1.226 . S
O6 Cd2 2.273 . S
O6 Cd4 2.411 . S
O6 C9 1.320 . S
O7 Cd4 2.333 . S
O7 C9 1.214 . S
O8 Cd4 2.352 . S
O8 C11 1.258 . S
C9 O6 1.320 . S
C9 O7 1.214 . S
O10 Cd2 2.277 . S
O10 C5 1.209 . S
C11 O8 1.258 . S
C11 O13 1.282 . S
O12 Cd4 2.277 . S
O12 C5 1.226 . S
O13 Cd4 2.356 . S
O13 C11 1.282 . S
C14 O15 1.306 . S
C14 O17 1.160 . S
O15 C14 1.306 . S
O15 Cd16 2.228 . S
Cd16 O15 2.228 . S
Cd16 O20 2.273 . S
Cd16 O24 2.277 . S
O17 C14 1.160 . S
O17 Cd18 2.203 . S
Cd18 O17 2.203 . S
Cd18 O20 2.411 . S
Cd18 O21 2.333 . S
Cd18 O22 2.352 . S
Cd18 O26 2.277 . S
Cd18 O27 2.356 . S
C19 O24 1.209 . S
C19 O26 1.226 . S
O20 Cd16 2.273 . S
O20 Cd18 2.411 . S
O20 C23 1.320 . S
O21 Cd18 2.333 . S
O21 C23 1.214 . S
O22 Cd18 2.352 . S
O22 C25 1.258 . S
C23 O20 1.320 . S
C23 O21 1.214 . S
O24 Cd16 2.277 . S
O24 C19 1.209 . S
C25 O22 1.258 . S
C25 O27 1.282 . S
O26 Cd18 2.277 . S
O26 C19 1.226 . S
O27 Cd18 2.356 . S
O27 C25 1.282 . S
C28 O29 1.306 . S
C28 O31 1.160 . S
O29 C28 1.306 . S
O29 Cd30 2.228 . S
Cd30 O29 2.228 . S
Cd30 O34 2.273 . S
Cd30 O38 2.277 . S
O31 C28 1.160 . S
O31 Cd32 2.203 . S
Cd32 O31 2.203 . S
Cd32 O34 2.411 . S
Cd32 O35 2.333 . S
Cd32 O36 2.352 . S
Cd32 O40 2.277 . S
Cd32 O41 2.356 . S
C33 O38 1.209 . S
C33 O40 1.226 . S
O34 Cd30 2.273 . S
O34 Cd32 2.411 . S
O34 C37 1.320 . S
O35 Cd32 2.333 . S
O35 C37 1.214 . S
O36 Cd32 2.352 . S
O36 C39 1.258 . S
C37 O34 1.320 . S
C37 O35 1.214 . S
O38 Cd30 2.277 . S
O38 C33 1.209 . S
C39 O36 1.258 . S
C39 O41 1.282 . S
O40 Cd32 2.277 . S
O40 C33 1.226 . S
O41 Cd32 2.356 . S
O41 C39 1.282 . S
C42 O43 1.306 . S
C42 O45 1.160 . S
O43 C42 1.306 . S
O43 Cd44 2.228 . S
Cd44 O43 2.228 . S
Cd44 O48 2.273 . S
Cd44 O52 2.277 . S
O45 C42 1.160 . S
O45 Cd46 2.203 . S
Cd46 O45 2.203 . S
Cd46 O48 2.411 . S
Cd46 O49 2.333 . S
Cd46 O50 2.352 . S
Cd46 O54 2.277 . S
Cd46 O55 2.356 . S
C47 O52 1.209 . S
C47 O54 1.226 . S
O48 Cd44 2.273 . S
O48 Cd46 2.411 . S
O48 C51 1.320 . S
O49 Cd46 2.333 . S
O49 C51 1.214 . S
O50 Cd46 2.352 . S
O50 C53 1.258 . S
C51 O48 1.320 . S
C51 O49 1.214 . S
O52 Cd44 2.277 . S
O52 C47 1.209 . S
C53 O50 1.258 . S
C53 O55 1.282 . S
O54 Cd46 2.277 . S
O54 C47 1.226 . S
O55 Cd46 2.356 . S
O55 C53 1.282 . S
C56 O57 1.306 . S
C56 O59 1.160 . S
O57 C56 1.306 . S
O57 Cd58 2.228 . S
Cd58 O57 2.228 . S
Cd58 O62 2.273 . S
Cd58 O66 2.277 . S
O59 C56 1.160 . S
O59 Cd60 2.203 . S
Cd60 O59 2.203 . S
Cd60 O62 2.411 . S
Cd60 O63 2.333 . S
Cd60 O64 2.352 . S
Cd60 O68 2.277 . S
Cd60 O69 2.356 . S
C61 O66 1.209 . S
C61 O68 1.226 . S
O62 Cd58 2.273 . S
O62 Cd60 2.411 . S
O62 C65 1.320 . S
O63 Cd60 2.333 . S
O63 C65 1.214 . S
O64 Cd60 2.352 . S
O64 C67 1.258 . S
C65 O62 1.320 . S
C65 O63 1.214 . S
O66 Cd58 2.277 . S
O66 C61 1.209 . S
C67 O64 1.258 . S
C67 O69 1.282 . S
O68 Cd60 2.277 . S
O68 C61 1.226 . S
O69 Cd60 2.356 . S
O69 C67 1.282 . S
C70 O71 1.306 . S
C70 O73 1.160 . S
O71 C70 1.306 . S
O71 Cd72 2.228 . S
Cd72 O71 2.228 . S
Cd72 O76 2.273 . S
Cd72 O80 2.277 . S
O73 C70 1.160 . S
O73 Cd74 2.203 . S
Cd74 O73 2.203 . S
Cd74 O76 2.411 . S
Cd74 O77 2.333 . S
Cd74 O78 2.352 . S
Cd74 O82 2.277 . S
Cd74 O83 2.356 . S
C75 O80 1.209 . S
C75 O82 1.226 . S
O76 Cd72 2.273 . S
O76 Cd74 2.411 . S
O76 C79 1.320 . S
O77 Cd74 2.333 . S
O77 C79 1.214 . S
O78 Cd74 2.352 . S
O78 C81 1.258 . S
C79 O76 1.320 . S
C79 O77 1.214 . S
O80 Cd72 2.277 . S
O80 C75 1.209 . S
C81 O78 1.258 . S
C81 O83 1.282 . S
O82 Cd74 2.277 . S
O82 C75 1.226 . S
O83 Cd74 2.356 . S
O83 C81 1.282 . S
C84 O85 1.306 . S
C84 O87 1.160 . S
O85 C84 1.306 . S
O85 Cd86 2.228 . S
Cd86 O85 2.228 . S
Cd86 O90 2.273 . S
Cd86 O94 2.277 . S
O87 C84 1.160 . S
O87 Cd88 2.203 . S
Cd88 O87 2.203 . S
Cd88 O90 2.411 . S
Cd88 O91 2.333 . S
Cd88 O92 2.352 . S
Cd88 O96 2.277 . S
Cd88 O97 2.356 . S
C89 O94 1.209 . S
C89 O96 1.226 . S
O90 Cd86 2.273 . S
O90 Cd88 2.411 . S
O90 C93 1.320 . S
O91 Cd88 2.333 . S
O91 C93 1.214 . S
O92 Cd88 2.352 . S
O92 C95 1.258 . S
C93 O90 1.320 . S
C93 O91 1.214 . S
O94 Cd86 2.277 . S
O94 C89 1.209 . S
C95 O92 1.258 . S
C95 O97 1.282 . S
O96 Cd88 2.277 . S
O96 C89 1.226 . S
O97 Cd88 2.356 . S
O97 C95 1.282 . S
C98 O99 1.306 . S
C98 O101 1.160 . S
O99 C98 1.306 . S
O99 Cd100 2.228 . S
Cd100 O99 2.228 . S
Cd100 O104 2.273 . S
Cd100 O108 2.277 . S
O101 C98 1.160 . S
O101 Cd102 2.203 . S
Cd102 O101 2.203 . S
Cd102 O104 2.411 . S
Cd102 O105 2.333 . S
Cd102 O106 2.352 . S
Cd102 O110 2.277 . S
Cd102 O111 2.356 . S
C103 O108 1.209 . S
C103 O110 1.226 . S
O104 Cd100 2.273 . S
O104 Cd102 2.411 . S
O104 C107 1.320 . S
O105 Cd102 2.333 . S
O105 C107 1.214 . S
O106 Cd102 2.352 . S
O106 C109 1.258 . S
C107 O104 1.320 . S
C107 O105 1.214 . S
O108 Cd100 2.277 . S
O108 C103 1.209 . S
C109 O106 1.258 . S
C109 O111 1.282 . S
O110 Cd102 2.277 . S
O110 C103 1.226 . S
O111 Cd102 2.356 . S
O111 C109 1.282 . S
C112 O113 1.306 . S
C112 O115 1.160 . S
O113 C112 1.306 . S
O113 Cd114 2.228 . S
Cd114 O113 2.228 . S
Cd114 O118 2.273 . S
Cd114 O122 2.277 . S
O115 C112 1.160 . S
O115 Cd116 2.203 . S
Cd116 O115 2.203 . S
Cd116 O118 2.411 . S
Cd116 O119 2.333 . S
Cd116 O120 2.352 . S
Cd116 O124 2.277 . S
Cd116 O125 2.356 . S
C117 O122 1.209 . S
C117 O124 1.226 . S
O118 Cd114 2.273 . S
O118 Cd116 2.411 . S
O118 C121 1.320 . S
O119 Cd116 2.333 . S
O119 C121 1.214 . S
O120 Cd116 2.352 . S
O120 C123 1.258 . S
C121 O118 1.320 . S
C121 O119 1.214 . S
O122 Cd114 2.277 . S
O122 C117 1.209 . S
C123 O120 1.258 . S
C123 O125 1.282 . S
O124 Cd116 2.277 . S
O124 C117 1.226 . S
O125 Cd116 2.356 . S
O125 C123 1.282 . S
C126 O127 1.306 . S
C126 O129 1.160 . S
O127 C126 1.306 . S
O127 Cd128 2.228 . S
Cd128 O127 2.228 . S
Cd128 O132 2.273 . S
Cd128 O136 2.277 . S
O129 C126 1.160 . S
O129 Cd130 2.203 . S
Cd130 O129 2.203 . S
Cd130 O132 2.411 . S
Cd130 O133 2.333 . S
Cd130 O134 2.352 . S
Cd130 O138 2.277 . S
Cd130 O139 2.356 . S
C131 O136 1.209 . S
C131 O138 1.226 . S
O132 Cd128 2.273 . S
O132 Cd130 2.411 . S
O132 C135 1.320 . S
O133 Cd130 2.333 . S
O133 C135 1.214 . S
O134 Cd130 2.352 . S
O134 C137 1.258 . S
C135 O132 1.320 . S
C135 O133 1.214 . S
O136 Cd128 2.277 . S
O136 C131 1.209 . S
C137 O134 1.258 . S
C137 O139 1.282 . S
O138 Cd130 2.277 . S
O138 C131 1.226 . S
O139 Cd130 2.356 . S
O139 C137 1.282 . S
C140 O141 1.306 . S
C140 O143 1.160 . S
O141 C140 1.306 . S
O141 Cd142 2.228 . S
Cd142 O141 2.228 . S
Cd142 O146 2.273 . S
Cd142 O150 2.277 . S
O143 C140 1.160 . S
O143 Cd144 2.203 . S
Cd144 O143 2.203 . S
Cd144 O146 2.411 . S
Cd144 O147 2.333 . S
Cd144 O148 2.352 . S
Cd144 O152 2.277 . S
Cd144 O153 2.356 . S
C145 O150 1.209 . S
C145 O152 1.226 . S
O146 Cd142 2.273 . S
O146 Cd144 2.411 . S
O146 C149 1.320 . S
O147 Cd144 2.333 . S
O147 C149 1.214 . S
O148 Cd144 2.352 . S
O148 C151 1.258 . S
C149 O146 1.320 . S
C149 O147 1.214 . S
O150 Cd142 2.277 . S
O150 C145 1.209 . S
C151 O148 1.258 . S
C151 O153 1.282 . S
O152 Cd144 2.277 . S
O152 C145 1.226 . S
O153 Cd144 2.356 . S
O153 C151 1.282 . S
C154 O155 1.306 . S
C154 O157 1.160 . S
O155 C154 1.306 . S
O155 Cd156 2.228 . S
Cd156 O155 2.228 . S
Cd156 O160 2.273 . S
Cd156 O164 2.277 . S
O157 C154 1.160 . S
O157 Cd158 2.203 . S
Cd158 O157 2.203 . S
Cd158 O160 2.411 . S
Cd158 O161 2.333 . S
Cd158 O162 2.352 . S
Cd158 O166 2.277 . S
Cd158 O167 2.356 . S
C159 O164 1.209 . S
C159 O166 1.226 . S
O160 Cd156 2.273 . S
O160 Cd158 2.411 . S
O160 C163 1.320 . S
O161 Cd158 2.333 . S
O161 C163 1.214 . S
O162 Cd158 2.352 . S
O162 C165 1.258 . S
C163 O160 1.320 . S
C163 O161 1.214 . S
O164 Cd156 2.277 . S
O164 C159 1.209 . S
C165 O162 1.258 . S
C165 O167 1.282 . S
O166 Cd158 2.277 . S
O166 C159 1.226 . S
O167 Cd158 2.356 . S
O167 C165 1.282 . S
C168 O169 1.306 . S
C168 O171 1.160 . S
O169 C168 1.306 . S
O169 Cd170 2.228 . S
Cd170 O169 2.228 . S
Cd170 O174 2.273 . S
Cd170 O178 2.277 . S
O171 C168 1.160 . S
O171 Cd172 2.203 . S
Cd172 O171 2.203 . S
Cd172 O174 2.411 . S
Cd172 O175 2.333 . S
Cd172 O176 2.352 . S
Cd172 O180 2.277 . S
Cd172 O181 2.356 . S
C173 O178 1.209 . S
C173 O180 1.226 . S
O174 Cd170 2.273 . S
O174 Cd172 2.411 . S
O174 C177 1.320 . S
O175 Cd172 2.333 . S
O175 C177 1.214 . S
O176 Cd172 2.352 . S
O176 C179 1.258 . S
C177 O174 1.320 . S
C177 O175 1.214 . S
O178 Cd170 2.277 . S
O178 C173 1.209 . S
C179 O176 1.258 . S
C179 O181 1.282 . S
O180 Cd172 2.277 . S
O180 C173 1.226 . S
O181 Cd172 2.356 . S
O181 C179 1.282 . S
C182 O183 1.306 . S
C182 O185 1.160 . S
O183 C182 1.306 . S
O183 Cd184 2.228 . S
Cd184 O183 2.228 . S
Cd184 O188 2.273 . S
Cd184 O192 2.277 . S
O185 C182 1.160 . S
O185 Cd186 2.203 . S
Cd186 O185 2.203 . S
Cd186 O188 2.411 . S
Cd186 O189 2.333 . S
Cd186 O190 2.352 . S
Cd186 O194 2.277 . S
Cd186 O195 2.356 . S
C187 O192 1.209 . S
C187 O194 1.226 . S
O188 Cd184 2.273 . S
O188 Cd186 2.411 . S
O188 C191 1.320 . S
O189 Cd186 2.333 . S
O189 C191 1.214 . S
O190 Cd186 2.352 . S
O190 C193 1.258 . S
C191 O188 1.320 . S
C191 O189 1.214 . S
O192 Cd184 2.277 . S
O192 C187 1.209 . S
C193 O190 1.258 . S
C193 O195 1.282 . S
O194 Cd186 2.277 . S
O194 C187 1.226 . S
O195 Cd186 2.356 . S
O195 C193 1.282 . S
C196 O197 1.306 . S
C196 O199 1.160 . S
O197 C196 1.306 . S
O197 Cd198 2.228 . S
Cd198 O197 2.228 . S
Cd198 O202 2.273 . S
Cd198 O206 2.277 . S
O199 C196 1.160 . S
O199 Cd200 2.203 . S
Cd200 O199 2.203 . S
Cd200 O202 2.411 . S
Cd200 O203 2.333 . S
Cd200 O204 2.352 . S
Cd200 O208 2.277 . S
Cd200 O209 2.356 . S
C201 O206 1.209 . S
C201 O208 1.226 . S
O202 Cd198 2.273 . S
O202 Cd200 2.411 . S
O202 C205 1.320 . S
O203 Cd200 2.333 . S
O203 C205 1.214 . S
O204 Cd200 2.352 . S
O204 C207 1.258 . S
C205 O202 1.320 . S
C205 O203 1.214 . S
O206 Cd198 2.277 . S
O206 C201 1.209 . S
C207 O204 1.258 . S
C207 O209 1.282 . S
O208 Cd200 2.277 . S
O208 C201 1.226 . S
O209 Cd200 2.356 . S
O209 C207 1.282 . S
C210 O211 1.306 . S
C210 O213 1.160 . S
O211 C210 1.306 . S
O211 Cd212 2.228 . S
Cd212 O211 2.228 . S
Cd212 O216 2.273 . S
Cd212 O220 2.277 . S
O213 C210 1.160 . S
O213 Cd214 2.203 . S
Cd214 O213 2.203 . S
Cd214 O216 2.411 . S
Cd214 O217 2.333 . S
Cd214 O218 2.352 . S
Cd214 O222 2.277 . S
Cd214 O223 2.356 . S
C215 O220 1.209 . S
C215 O222 1.226 . S
O216 Cd212 2.273 . S
O216 Cd214 2.411 . S
O216 C219 1.320 . S
O217 Cd214 2.333 . S
O217 C219 1.214 . S
O218 Cd214 2.352 . S
O218 C221 1.258 . S
C219 O216 1.320 . S
C219 O217 1.214 . S
O220 Cd212 2.277 . S
O220 C215 1.209 . S
C221 O218 1.258 . S
C221 O223 1.282 . S
O222 Cd214 2.277 . S
O222 C215 1.226 . S
O223 Cd214 2.356 . S
O223 C221 1.282 . S
C224 O225 1.306 . S
C224 O227 1.160 . S
O225 C224 1.306 . S
O225 Cd226 2.228 . S
Cd226 O225 2.228 . S
Cd226 O230 2.273 . S
Cd226 O234 2.277 . S
O227 C224 1.160 . S
O227 Cd228 2.203 . S
Cd228 O227 2.203 . S
Cd228 O230 2.411 . S
Cd228 O231 2.333 . S
Cd228 O232 2.352 . S
Cd228 O236 2.277 . S
Cd228 O237 2.356 . S
C229 O234 1.209 . S
C229 O236 1.226 . S
O230 Cd226 2.273 . S
O230 Cd228 2.411 . S
O230 C233 1.320 . S
O231 Cd228 2.333 . S
O231 C233 1.214 . S
O232 Cd228 2.352 . S
O232 C235 1.258 . S
C233 O230 1.320 . S
C233 O231 1.214 . S
O234 Cd226 2.277 . S
O234 C229 1.209 . S
C235 O232 1.258 . S
C235 O237 1.282 . S
O236 Cd228 2.277 . S
O236 C229 1.226 . S
O237 Cd228 2.356 . S
O237 C235 1.282 . S
C238 O239 1.306 . S
C238 O241 1.160 . S
O239 C238 1.306 . S
O239 Cd240 2.228 . S
Cd240 O239 2.228 . S
Cd240 O244 2.273 . S
Cd240 O248 2.277 . S
O241 C238 1.160 . S
O241 Cd242 2.203 . S
Cd242 O241 2.203 . S
Cd242 O244 2.411 . S
Cd242 O245 2.333 . S
Cd242 O246 2.352 . S
Cd242 O250 2.277 . S
Cd242 O251 2.356 . S
C243 O248 1.209 . S
C243 O250 1.226 . S
O244 Cd240 2.273 . S
O244 Cd242 2.411 . S
O244 C247 1.320 . S
O245 Cd242 2.333 . S
O245 C247 1.214 . S
O246 Cd242 2.352 . S
O246 C249 1.258 . S
C247 O244 1.320 . S
C247 O245 1.214 . S
O248 Cd240 2.277 . S
O248 C243 1.209 . S
C249 O246 1.258 . S
C249 O251 1.282 . S
O250 Cd242 2.277 . S
O250 C243 1.226 . S
O251 Cd242 2.356 . S
O251 C249 1.282 . S
C252 O253 1.306 . S
C252 O255 1.160 . S
O253 C252 1.306 . S
O253 Cd254 2.228 . S
Cd254 O253 2.228 . S
Cd254 O258 2.273 . S
Cd254 O262 2.277 . S
O255 C252 1.160 . S
O255 Cd256 2.203 . S
Cd256 O255 2.203 . S
Cd256 O258 2.411 . S
Cd256 O259 2.333 . S
Cd256 O260 2.352 . S
Cd256 O264 2.277 . S
Cd256 O265 2.356 . S
C257 O262 1.209 . S
C257 O264 1.226 . S
O258 Cd254 2.273 . S
O258 Cd256 2.411 . S
O258 C261 1.320 . S
O259 Cd256 2.333 . S
O259 C261 1.214 . S
O260 Cd256 2.352 . S
O260 C263 1.258 . S
C261 O258 1.320 . S
C261 O259 1.214 . S
O262 Cd254 2.277 . S
O262 C257 1.209 . S
C263 O260 1.258 . S
C263 O265 1.282 . S
O264 Cd256 2.277 . S
O264 C257 1.226 . S
O265 Cd256 2.356 . S
O265 C263 1.282 . S
C266 O267 1.306 . S
C266 O269 1.160 . S
O267 C266 1.306 . S
O267 Cd268 2.228 . S
Cd268 O267 2.228 . S
Cd268 O272 2.273 . S
Cd268 O276 2.277 . S
O269 C266 1.160 . S
O269 Cd270 2.203 . S
Cd270 O269 2.203 . S
Cd270 O272 2.411 . S
Cd270 O273 2.333 . S
Cd270 O274 2.352 . S
Cd270 O278 2.277 . S
Cd270 O279 2.356 . S
C271 O276 1.209 . S
C271 O278 1.226 . S
O272 Cd268 2.273 . S
O272 Cd270 2.411 . S
O272 C275 1.320 . S
O273 Cd270 2.333 . S
O273 C275 1.214 . S
O274 Cd270 2.352 . S
O274 C277 1.258 . S
C275 O272 1.320 . S
C275 O273 1.214 . S
O276 Cd268 2.277 . S
O276 C271 1.209 . S
C277 O274 1.258 . S
C277 O279 1.282 . S
O278 Cd270 2.277 . S
O278 C271 1.226 . S
O279 Cd270 2.356 . S
O279 C277 1.282 . S
C280 O281 1.306 . S
C280 O283 1.160 . S
O281 C280 1.306 . S
O281 Cd282 2.228 . S
Cd282 O281 2.228 . S
Cd282 O286 2.273 . S
Cd282 O290 2.277 . S
O283 C280 1.160 . S
O283 Cd284 2.203 . S
Cd284 O283 2.203 . S
Cd284 O286 2.411 . S
Cd284 O287 2.333 . S
Cd284 O288 2.352 . S
Cd284 O292 2.277 . S
Cd284 O293 2.356 . S
C285 O290 1.209 . S
C285 O292 1.226 . S
O286 Cd282 2.273 . S
O286 Cd284 2.411 . S
O286 C289 1.320 . S
O287 Cd284 2.333 . S
O287 C289 1.214 . S
O288 Cd284 2.352 . S
O288 C291 1.258 . S
C289 O286 1.320 . S
C289 O287 1.214 . S
O290 Cd282 2.277 . S
O290 C285 1.209 . S
C291 O288 1.258 . S
C291 O293 1.282 . S
O292 Cd284 2.277 . S
O292 C285 1.226 . S
O293 Cd284 2.356 . S
O293 C291 1.282 . S
C294 O295 1.306 . S
C294 O297 1.160 . S
O295 C294 1.306 . S
O295 Cd296 2.228 . S
Cd296 O295 2.228 . S
Cd296 O300 2.273 . S
Cd296 O304 2.277 . S
O297 C294 1.160 . S
O297 Cd298 2.203 . S
Cd298 O297 2.203 . S
Cd298 O300 2.411 . S
Cd298 O301 2.333 . S
Cd298 O302 2.352 . S
Cd298 O306 2.277 . S
Cd298 O307 2.356 . S
C299 O304 1.209 . S
C299 O306 1.226 . S
O300 Cd296 2.273 . S
O300 Cd298 2.411 . S
O300 C303 1.320 . S
O301 Cd298 2.333 . S
O301 C303 1.214 . S
O302 Cd298 2.352 . S
O302 C305 1.258 . S
C303 O300 1.320 . S
C303 O301 1.214 . S
O304 Cd296 2.277 . S
O304 C299 1.209 . S
C305 O302 1.258 . S
C305 O307 1.282 . S
O306 Cd298 2.277 . S
O306 C299 1.226 . S
O307 Cd298 2.356 . S
O307 C305 1.282 . S
C308 O309 1.306 . S
C308 O311 1.160 . S
O309 C308 1.306 . S
O309 Cd310 2.228 . S
Cd310 O309 2.228 . S
Cd310 O314 2.273 . S
Cd310 O318 2.277 . S
O311 C308 1.160 . S
O311 Cd312 2.203 . S
Cd312 O311 2.203 . S
Cd312 O314 2.411 . S
Cd312 O315 2.333 . S
Cd312 O316 2.352 . S
Cd312 O320 2.277 . S
Cd312 O321 2.356 . S
C313 O318 1.209 . S
C313 O320 1.226 . S
O314 Cd310 2.273 . S
O314 Cd312 2.411 . S
O314 C317 1.320 . S
O315 Cd312 2.333 . S
O315 C317 1.214 . S
O316 Cd312 2.352 . S
O316 C319 1.258 . S
C317 O314 1.320 . S
C317 O315 1.214 . S
O318 Cd310 2.277 . S
O318 C313 1.209 . S
C319 O316 1.258 . S
C319 O321 1.282 . S
O320 Cd312 2.277 . S
O320 C313 1.226 . S
O321 Cd312 2.356 . S
O321 C319 1.282 . S
C322 O323 1.306 . S
C322 O325 1.160 . S
O323 C322 1.306 . S
O323 Cd324 2.228 . S
Cd324 O323 2.228 . S
Cd324 O328 2.273 . S
Cd324 O332 2.277 . S
O325 C322 1.160 . S
O325 Cd326 2.203 . S
Cd326 O325 2.203 . S
Cd326 O328 2.411 . S
Cd326 O329 2.333 . S
Cd326 O330 2.352 . S
Cd326 O334 2.277 . S
Cd326 O335 2.356 . S
C327 O332 1.209 . S
C327 O334 1.226 . S
O328 Cd324 2.273 . S
O328 Cd326 2.411 . S
O328 C331 1.320 . S
O329 Cd326 2.333 . S
O329 C331 1.214 . S
O330 Cd326 2.352 . S
O330 C333 1.258 . S
C331 O328 1.320 . S
C331 O329 1.214 . S
O332 Cd324 2.277 . S
O332 C327 1.209 . S
C333 O330 1.258 . S
C333 O335 1.282 . S
O334 Cd326 2.277 . S
O334 C327 1.226 . S
O335 Cd326 2.356 . S
O335 C333 1.282 . S
H336 C342 0.930 . S
H337 C345 0.930 . S
H338 C346 0.930 . S
H339 C347 0.930 . S
H340 C350 0.930 . S
H341 C351 0.930 . S
C342 H336 0.930 . S
C342 C343 1.355 . S
C342 C344 1.415 . S
C343 C342 1.355 . S
C343 C345 1.419 . S
C344 C342 1.415 . S
C344 C349 1.425 . S
C344 C351 1.409 . S
C345 H337 0.930 . S
C345 C343 1.419 . S
C345 C346 1.362 . S
C346 H338 0.930 . S
C346 C345 1.362 . S
C346 C349 1.409 . S
C347 H339 0.930 . S
C347 C348 1.355 . S
C347 C349 1.415 . S
C348 C347 1.355 . S
C348 C350 1.419 . S
C349 C344 1.425 . S
C349 C346 1.409 . S
C349 C347 1.415 . S
C350 H340 0.930 . S
C350 C348 1.419 . S
C350 C351 1.362 . S
C351 H341 0.930 . S
C351 C344 1.409 . S
C351 C350 1.362 . S
H352 C358 0.930 . S
H353 C361 0.930 . S
H354 C362 0.930 . S
H355 C363 0.930 . S
H356 C366 0.930 . S
H357 C367 0.930 . S
C358 H352 0.930 . S
C358 C359 1.355 . S
C358 C360 1.415 . S
C359 C358 1.355 . S
C359 C361 1.419 . S
C360 C358 1.415 . S
C360 C365 1.425 . S
C360 C367 1.409 . S
C361 H353 0.930 . S
C361 C359 1.419 . S
C361 C362 1.362 . S
C362 H354 0.930 . S
C362 C361 1.362 . S
C362 C365 1.409 . S
C363 H355 0.930 . S
C363 C364 1.355 . S
C363 C365 1.415 . S
C364 C363 1.355 . S
C364 C366 1.419 . S
C365 C360 1.425 . S
C365 C362 1.409 . S
C365 C363 1.415 . S
C366 H356 0.930 . S
C366 C364 1.419 . S
C366 C367 1.362 . S
C367 H357 0.930 . S
C367 C360 1.409 . S
C367 C366 1.362 . S
H368 C374 0.930 . S
H369 C377 0.930 . S
H370 C378 0.930 . S
H371 C379 0.930 . S
H372 C382 0.930 . S
H373 C383 0.930 . S
C374 H368 0.930 . S
C374 C375 1.355 . S
C374 C376 1.415 . S
C375 C374 1.355 . S
C375 C377 1.419 . S
C376 C374 1.415 . S
C376 C381 1.425 . S
C376 C383 1.409 . S
C377 H369 0.930 . S
C377 C375 1.419 . S
C377 C378 1.362 . S
C378 H370 0.930 . S
C378 C377 1.362 . S
C378 C381 1.409 . S
C379 H371 0.930 . S
C379 C380 1.355 . S
C379 C381 1.415 . S
C380 C379 1.355 . S
C380 C382 1.419 . S
C381 C376 1.425 . S
C381 C378 1.409 . S
C381 C379 1.415 . S
C382 H372 0.930 . S
C382 C380 1.419 . S
C382 C383 1.362 . S
C383 H373 0.930 . S
C383 C376 1.409 . S
C383 C382 1.362 . S
H384 C390 0.930 . S
H385 C393 0.930 . S
H386 C394 0.930 . S
H387 C395 0.930 . S
H388 C398 0.930 . S
H389 C399 0.930 . S
C390 H384 0.930 . S
C390 C391 1.355 . S
C390 C392 1.415 . S
C391 C390 1.355 . S
C391 C393 1.419 . S
C392 C390 1.415 . S
C392 C397 1.425 . S
C392 C399 1.409 . S
C393 H385 0.930 . S
C393 C391 1.419 . S
C393 C394 1.362 . S
C394 H386 0.930 . S
C394 C393 1.362 . S
C394 C397 1.409 . S
C395 H387 0.930 . S
C395 C396 1.355 . S
C395 C397 1.415 . S
C396 C395 1.355 . S
C396 C398 1.419 . S
C397 C392 1.425 . S
C397 C394 1.409 . S
C397 C395 1.415 . S
C398 H388 0.930 . S
C398 C396 1.419 . S
C398 C399 1.362 . S
C399 H389 0.930 . S
C399 C392 1.409 . S
C399 C398 1.362 . S
H400 C406 0.930 . S
H401 C409 0.930 . S
H402 C410 0.930 . S
H403 C411 0.930 . S
H404 C414 0.930 . S
H405 C415 0.930 . S
C406 H400 0.930 . S
C406 C407 1.355 . S
C406 C408 1.415 . S
C407 C406 1.355 . S
C407 C409 1.419 . S
C408 C406 1.415 . S
C408 C413 1.425 . S
C408 C415 1.409 . S
C409 H401 0.930 . S
C409 C407 1.419 . S
C409 C410 1.362 . S
C410 H402 0.930 . S
C410 C409 1.362 . S
C410 C413 1.409 . S
C411 H403 0.930 . S
C411 C412 1.355 . S
C411 C413 1.415 . S
C412 C411 1.355 . S
C412 C414 1.419 . S
C413 C408 1.425 . S
C413 C410 1.409 . S
C413 C411 1.415 . S
C414 H404 0.930 . S
C414 C412 1.419 . S
C414 C415 1.362 . S
C415 H405 0.930 . S
C415 C408 1.409 . S
C415 C414 1.362 . S
H416 C422 0.930 . S
H417 C425 0.930 . S
H418 C426 0.930 . S
H419 C427 0.930 . S
H420 C430 0.930 . S
H421 C431 0.930 . S
C422 H416 0.930 . S
C422 C423 1.355 . S
C422 C424 1.415 . S
C423 C422 1.355 . S
C423 C425 1.419 . S
C424 C422 1.415 . S
C424 C429 1.425 . S
C424 C431 1.409 . S
C425 H417 0.930 . S
C425 C423 1.419 . S
C425 C426 1.362 . S
C426 H418 0.930 . S
C426 C425 1.362 . S
C426 C429 1.409 . S
C427 H419 0.930 . S
C427 C428 1.355 . S
C427 C429 1.415 . S
C428 C427 1.355 . S
C428 C430 1.419 . S
C429 C424 1.425 . S
C429 C426 1.409 . S
C429 C427 1.415 . S
C430 H420 0.930 . S
C430 C428 1.419 . S
C430 C431 1.362 . S
C431 H421 0.930 . S
C431 C424 1.409 . S
C431 C430 1.362 . S
H432 C438 0.930 . S
H433 C441 0.930 . S
H434 C442 0.930 . S
H435 C443 0.930 . S
H436 C446 0.930 . S
H437 C447 0.930 . S
C438 H432 0.930 . S
C438 C439 1.355 . S
C438 C440 1.415 . S
C439 C438 1.355 . S
C439 C441 1.419 . S
C440 C438 1.415 . S
C440 C445 1.425 . S
C440 C447 1.409 . S
C441 H433 0.930 . S
C441 C439 1.419 . S
C441 C442 1.362 . S
C442 H434 0.930 . S
C442 C441 1.362 . S
C442 C445 1.409 . S
C443 H435 0.930 . S
C443 C444 1.355 . S
C443 C445 1.415 . S
C444 C443 1.355 . S
C444 C446 1.419 . S
C445 C440 1.425 . S
C445 C442 1.409 . S
C445 C443 1.415 . S
C446 H436 0.930 . S
C446 C444 1.419 . S
C446 C447 1.362 . S
C447 H437 0.930 . S
C447 C440 1.409 . S
C447 C446 1.362 . S
H448 C454 0.930 . S
H449 C457 0.930 . S
H450 C458 0.930 . S
H451 C459 0.930 . S
H452 C462 0.930 . S
H453 C463 0.930 . S
C454 H448 0.930 . S
C454 C455 1.355 . S
C454 C456 1.415 . S
C455 C454 1.355 . S
C455 C457 1.419 . S
C456 C454 1.415 . S
C456 C461 1.425 . S
C456 C463 1.409 . S
C457 H449 0.930 . S
C457 C455 1.419 . S
C457 C458 1.362 . S
C458 H450 0.930 . S
C458 C457 1.362 . S
C458 C461 1.409 . S
C459 H451 0.930 . S
C459 C460 1.355 . S
C459 C461 1.415 . S
C460 C459 1.355 . S
C460 C462 1.419 . S
C461 C456 1.425 . S
C461 C458 1.409 . S
C461 C459 1.415 . S
C462 H452 0.930 . S
C462 C460 1.419 . S
C462 C463 1.362 . S
C463 H453 0.930 . S
C463 C456 1.409 . S
C463 C462 1.362 . S
H464 C470 0.930 . S
H465 C473 0.930 . S
H466 C474 0.930 . S
H467 C475 0.930 . S
H468 C478 0.930 . S
H469 C479 0.930 . S
C470 H464 0.930 . S
C470 C471 1.355 . S
C470 C472 1.415 . S
C471 C470 1.355 . S
C471 C473 1.419 . S
C472 C470 1.415 . S
C472 C477 1.425 . S
C472 C479 1.409 . S
C473 H465 0.930 . S
C473 C471 1.419 . S
C473 C474 1.362 . S
C474 H466 0.930 . S
C474 C473 1.362 . S
C474 C477 1.409 . S
C475 H467 0.930 . S
C475 C476 1.355 . S
C475 C477 1.415 . S
C476 C475 1.355 . S
C476 C478 1.419 . S
C477 C472 1.425 . S
C477 C474 1.409 . S
C477 C475 1.415 . S
C478 H468 0.930 . S
C478 C476 1.419 . S
C478 C479 1.362 . S
C479 H469 0.930 . S
C479 C472 1.409 . S
C479 C478 1.362 . S
H480 C486 0.930 . S
H481 C489 0.930 . S
H482 C490 0.930 . S
H483 C491 0.930 . S
H484 C494 0.930 . S
H485 C495 0.930 . S
C486 H480 0.930 . S
C486 C487 1.355 . S
C486 C488 1.415 . S
C487 C486 1.355 . S
C487 C489 1.419 . S
C488 C486 1.415 . S
C488 C493 1.425 . S
C488 C495 1.409 . S
C489 H481 0.930 . S
C489 C487 1.419 . S
C489 C490 1.362 . S
C490 H482 0.930 . S
C490 C489 1.362 . S
C490 C493 1.409 . S
C491 H483 0.930 . S
C491 C492 1.355 . S
C491 C493 1.415 . S
C492 C491 1.355 . S
C492 C494 1.419 . S
C493 C488 1.425 . S
C493 C490 1.409 . S
C493 C491 1.415 . S
C494 H484 0.930 . S
C494 C492 1.419 . S
C494 C495 1.362 . S
C495 H485 0.930 . S
C495 C488 1.409 . S
C495 C494 1.362 . S
H496 C502 0.930 . S
H497 C505 0.930 . S
H498 C506 0.930 . S
H499 C507 0.930 . S
H500 C510 0.930 . S
H501 C511 0.930 . S
C502 H496 0.930 . S
C502 C503 1.355 . S
C502 C504 1.415 . S
C503 C502 1.355 . S
C503 C505 1.419 . S
C504 C502 1.415 . S
C504 C509 1.425 . S
C504 C511 1.409 . S
C505 H497 0.930 . S
C505 C503 1.419 . S
C505 C506 1.362 . S
C506 H498 0.930 . S
C506 C505 1.362 . S
C506 C509 1.409 . S
C507 H499 0.930 . S
C507 C508 1.355 . S
C507 C509 1.415 . S
C508 C507 1.355 . S
C508 C510 1.419 . S
C509 C504 1.425 . S
C509 C506 1.409 . S
C509 C507 1.415 . S
C510 H500 0.930 . S
C510 C508 1.419 . S
C510 C511 1.362 . S
C511 H501 0.930 . S
C511 C504 1.409 . S
C511 C510 1.362 . S
H512 C518 0.930 . S
H513 C521 0.930 . S
H514 C522 0.930 . S
H515 C523 0.930 . S
H516 C526 0.930 . S
H517 C527 0.930 . S
C518 H512 0.930 . S
C518 C519 1.355 . S
C518 C520 1.415 . S
C519 C518 1.355 . S
C519 C521 1.419 . S
C520 C518 1.415 . S
C520 C525 1.425 . S
C520 C527 1.409 . S
C521 H513 0.930 . S
C521 C519 1.419 . S
C521 C522 1.362 . S
C522 H514 0.930 . S
C522 C521 1.362 . S
C522 C525 1.409 . S
C523 H515 0.930 . S
C523 C524 1.355 . S
C523 C525 1.415 . S
C524 C523 1.355 . S
C524 C526 1.419 . S
C525 C520 1.425 . S
C525 C522 1.409 . S
C525 C523 1.415 . S
C526 H516 0.930 . S
C526 C524 1.419 . S
C526 C527 1.362 . S
C527 H517 0.930 . S
C527 C520 1.409 . S
C527 C526 1.362 . S
H528 C534 0.930 . S
H529 C537 0.930 . S
H530 C538 0.930 . S
H531 C539 0.930 . S
H532 C542 0.930 . S
H533 C543 0.930 . S
C534 H528 0.930 . S
C534 C535 1.355 . S
C534 C536 1.415 . S
C535 C534 1.355 . S
C535 C537 1.419 . S
C536 C534 1.415 . S
C536 C541 1.425 . S
C536 C543 1.409 . S
C537 H529 0.930 . S
C537 C535 1.419 . S
C537 C538 1.362 . S
C538 H530 0.930 . S
C538 C537 1.362 . S
C538 C541 1.409 . S
C539 H531 0.930 . S
C539 C540 1.355 . S
C539 C541 1.415 . S
C540 C539 1.355 . S
C540 C542 1.419 . S
C541 C536 1.425 . S
C541 C538 1.409 . S
C541 C539 1.415 . S
C542 H532 0.930 . S
C542 C540 1.419 . S
C542 C543 1.362 . S
C543 H533 0.930 . S
C543 C536 1.409 . S
C543 C542 1.362 . S
H544 C550 0.930 . S
H545 C553 0.930 . S
H546 C554 0.930 . S
H547 C555 0.930 . S
H548 C558 0.930 . S
H549 C559 0.930 . S
C550 H544 0.930 . S
C550 C551 1.355 . S
C550 C552 1.415 . S
C551 C550 1.355 . S
C551 C553 1.419 . S
C552 C550 1.415 . S
C552 C557 1.425 . S
C552 C559 1.409 . S
C553 H545 0.930 . S
C553 C551 1.419 . S
C553 C554 1.362 . S
C554 H546 0.930 . S
C554 C553 1.362 . S
C554 C557 1.409 . S
C555 H547 0.930 . S
C555 C556 1.355 . S
C555 C557 1.415 . S
C556 C555 1.355 . S
C556 C558 1.419 . S
C557 C552 1.425 . S
C557 C554 1.409 . S
C557 C555 1.415 . S
C558 H548 0.930 . S
C558 C556 1.419 . S
C558 C559 1.362 . S
C559 H549 0.930 . S
C559 C552 1.409 . S
C559 C558 1.362 . S
H560 C566 0.930 . S
H561 C569 0.930 . S
H562 C570 0.930 . S
H563 C571 0.930 . S
H564 C574 0.930 . S
H565 C575 0.930 . S
C566 H560 0.930 . S
C566 C567 1.355 . S
C566 C568 1.415 . S
C567 C566 1.355 . S
C567 C569 1.419 . S
C568 C566 1.415 . S
C568 C573 1.425 . S
C568 C575 1.409 . S
C569 H561 0.930 . S
C569 C567 1.419 . S
C569 C570 1.362 . S
C570 H562 0.930 . S
C570 C569 1.362 . S
C570 C573 1.409 . S
C571 H563 0.930 . S
C571 C572 1.355 . S
C571 C573 1.415 . S
C572 C571 1.355 . S
C572 C574 1.419 . S
C573 C568 1.425 . S
C573 C570 1.409 . S
C573 C571 1.415 . S
C574 H564 0.930 . S
C574 C572 1.419 . S
C574 C575 1.362 . S
C575 H565 0.930 . S
C575 C568 1.409 . S
C575 C574 1.362 . S
H576 C582 0.930 . S
H577 C585 0.930 . S
H578 C586 0.930 . S
H579 C587 0.930 . S
H580 C590 0.930 . S
H581 C591 0.930 . S
C582 H576 0.930 . S
C582 C583 1.355 . S
C582 C584 1.415 . S
C583 C582 1.355 . S
C583 C585 1.419 . S
C584 C582 1.415 . S
C584 C589 1.425 . S
C584 C591 1.409 . S
C585 H577 0.930 . S
C585 C583 1.419 . S
C585 C586 1.362 . S
C586 H578 0.930 . S
C586 C585 1.362 . S
C586 C589 1.409 . S
C587 H579 0.930 . S
C587 C588 1.355 . S
C587 C589 1.415 . S
C588 C587 1.355 . S
C588 C590 1.419 . S
C589 C584 1.425 . S
C589 C586 1.409 . S
C589 C587 1.415 . S
C590 H580 0.930 . S
C590 C588 1.419 . S
C590 C591 1.362 . S
C591 H581 0.930 . S
C591 C584 1.409 . S
C591 C590 1.362 . S
H592 C598 0.930 . S
H593 C601 0.930 . S
H594 C602 0.930 . S
H595 C603 0.930 . S
H596 C606 0.930 . S
H597 C607 0.930 . S
C598 H592 0.930 . S
C598 C599 1.355 . S
C598 C600 1.415 . S
C599 C598 1.355 . S
C599 C601 1.419 . S
C600 C598 1.415 . S
C600 C605 1.425 . S
C600 C607 1.409 . S
C601 H593 0.930 . S
C601 C599 1.419 . S
C601 C602 1.362 . S
C602 H594 0.930 . S
C602 C601 1.362 . S
C602 C605 1.409 . S
C603 H595 0.930 . S
C603 C604 1.355 . S
C603 C605 1.415 . S
C604 C603 1.355 . S
C604 C606 1.419 . S
C605 C600 1.425 . S
C605 C602 1.409 . S
C605 C603 1.415 . S
C606 H596 0.930 . S
C606 C604 1.419 . S
C606 C607 1.362 . S
C607 H597 0.930 . S
C607 C600 1.409 . S
C607 C606 1.362 . S
H608 C614 0.930 . S
H609 C617 0.930 . S
H610 C618 0.930 . S
H611 C619 0.930 . S
H612 C622 0.930 . S
H613 C623 0.930 . S
C614 H608 0.930 . S
C614 C615 1.355 . S
C614 C616 1.415 . S
C615 C614 1.355 . S
C615 C617 1.419 . S
C616 C614 1.415 . S
C616 C621 1.425 . S
C616 C623 1.409 . S
C617 H609 0.930 . S
C617 C615 1.419 . S
C617 C618 1.362 . S
C618 H610 0.930 . S
C618 C617 1.362 . S
C618 C621 1.409 . S
C619 H611 0.930 . S
C619 C620 1.355 . S
C619 C621 1.415 . S
C620 C619 1.355 . S
C620 C622 1.419 . S
C621 C616 1.425 . S
C621 C618 1.409 . S
C621 C619 1.415 . S
C622 H612 0.930 . S
C622 C620 1.419 . S
C622 C623 1.362 . S
C623 H613 0.930 . S
C623 C616 1.409 . S
C623 C622 1.362 . S
H624 C630 0.930 . S
H625 C633 0.930 . S
H626 C634 0.930 . S
H627 C635 0.930 . S
H628 C638 0.930 . S
H629 C639 0.930 . S
C630 H624 0.930 . S
C630 C631 1.355 . S
C630 C632 1.415 . S
C631 C630 1.355 . S
C631 C633 1.419 . S
C632 C630 1.415 . S
C632 C637 1.425 . S
C632 C639 1.409 . S
C633 H625 0.930 . S
C633 C631 1.419 . S
C633 C634 1.362 . S
C634 H626 0.930 . S
C634 C633 1.362 . S
C634 C637 1.409 . S
C635 H627 0.930 . S
C635 C636 1.355 . S
C635 C637 1.415 . S
C636 C635 1.355 . S
C636 C638 1.419 . S
C637 C632 1.425 . S
C637 C634 1.409 . S
C637 C635 1.415 . S
C638 H628 0.930 . S
C638 C636 1.419 . S
C638 C639 1.362 . S
C639 H629 0.930 . S
C639 C632 1.409 . S
C639 C638 1.362 . S
H640 C646 0.930 . S
H641 C649 0.930 . S
H642 C650 0.930 . S
H643 C651 0.930 . S
H644 C654 0.930 . S
H645 C655 0.930 . S
C646 H640 0.930 . S
C646 C647 1.355 . S
C646 C648 1.415 . S
C647 C646 1.355 . S
C647 C649 1.419 . S
C648 C646 1.415 . S
C648 C653 1.425 . S
C648 C655 1.409 . S
C649 H641 0.930 . S
C649 C647 1.419 . S
C649 C650 1.362 . S
C650 H642 0.930 . S
C650 C649 1.362 . S
C650 C653 1.409 . S
C651 H643 0.930 . S
C651 C652 1.355 . S
C651 C653 1.415 . S
C652 C651 1.355 . S
C652 C654 1.419 . S
C653 C648 1.425 . S
C653 C650 1.409 . S
C653 C651 1.415 . S
C654 H644 0.930 . S
C654 C652 1.419 . S
C654 C655 1.362 . S
C655 H645 0.930 . S
C655 C648 1.409 . S
C655 C654 1.362 . S
H656 C662 0.930 . S
H657 C665 0.930 . S
H658 C666 0.930 . S
H659 C667 0.930 . S
H660 C670 0.930 . S
H661 C671 0.930 . S
C662 H656 0.930 . S
C662 C663 1.355 . S
C662 C664 1.415 . S
C663 C662 1.355 . S
C663 C665 1.419 . S
C664 C662 1.415 . S
C664 C669 1.425 . S
C664 C671 1.409 . S
C665 H657 0.930 . S
C665 C663 1.419 . S
C665 C666 1.362 . S
C666 H658 0.930 . S
C666 C665 1.362 . S
C666 C669 1.409 . S
C667 H659 0.930 . S
C667 C668 1.355 . S
C667 C669 1.415 . S
C668 C667 1.355 . S
C668 C670 1.419 . S
C669 C664 1.425 . S
C669 C666 1.409 . S
C669 C667 1.415 . S
C670 H660 0.930 . S
C670 C668 1.419 . S
C670 C671 1.362 . S
C671 H661 0.930 . S
C671 C664 1.409 . S
C671 C670 1.362 . S
H672 C678 0.930 . S
H673 C681 0.930 . S
H674 C682 0.930 . S
H675 C683 0.930 . S
H676 C686 0.930 . S
H677 C687 0.930 . S
C678 H672 0.930 . S
C678 C679 1.355 . S
C678 C680 1.415 . S
C679 C678 1.355 . S
C679 C681 1.419 . S
C680 C678 1.415 . S
C680 C685 1.425 . S
C680 C687 1.409 . S
C681 H673 0.930 . S
C681 C679 1.419 . S
C681 C682 1.362 . S
C682 H674 0.930 . S
C682 C681 1.362 . S
C682 C685 1.409 . S
C683 H675 0.930 . S
C683 C684 1.355 . S
C683 C685 1.415 . S
C684 C683 1.355 . S
C684 C686 1.419 . S
C685 C680 1.425 . S
C685 C682 1.409 . S
C685 C683 1.415 . S
C686 H676 0.930 . S
C686 C684 1.419 . S
C686 C687 1.362 . S
C687 H677 0.930 . S
C687 C680 1.409 . S
C687 C686 1.362 . S
H688 C694 0.930 . S
H689 C697 0.930 . S
H690 C698 0.930 . S
H691 C699 0.930 . S
H692 C702 0.930 . S
H693 C703 0.930 . S
C694 H688 0.930 . S
C694 C695 1.355 . S
C694 C696 1.415 . S
C695 C694 1.355 . S
C695 C697 1.419 . S
C696 C694 1.415 . S
C696 C701 1.425 . S
C696 C703 1.409 . S
C697 H689 0.930 . S
C697 C695 1.419 . S
C697 C698 1.362 . S
C698 H690 0.930 . S
C698 C697 1.362 . S
C698 C701 1.409 . S
C699 H691 0.930 . S
C699 C700 1.355 . S
C699 C701 1.415 . S
C700 C699 1.355 . S
C700 C702 1.419 . S
C701 C696 1.425 . S
C701 C698 1.409 . S
C701 C699 1.415 . S
C702 H692 0.930 . S
C702 C700 1.419 . S
C702 C703 1.362 . S
C703 H693 0.930 . S
C703 C696 1.409 . S
C703 C702 1.362 . S
H704 C710 0.930 . S
H705 C713 0.930 . S
H706 C714 0.930 . S
H707 C715 0.930 . S
H708 C718 0.930 . S
H709 C719 0.930 . S
C710 H704 0.930 . S
C710 C711 1.355 . S
C710 C712 1.415 . S
C711 C710 1.355 . S
C711 C713 1.419 . S
C712 C710 1.415 . S
C712 C717 1.425 . S
C712 C719 1.409 . S
C713 H705 0.930 . S
C713 C711 1.419 . S
C713 C714 1.362 . S
C714 H706 0.930 . S
C714 C713 1.362 . S
C714 C717 1.409 . S
C715 H707 0.930 . S
C715 C716 1.355 . S
C715 C717 1.415 . S
C716 C715 1.355 . S
C716 C718 1.419 . S
C717 C712 1.425 . S
C717 C714 1.409 . S
C717 C715 1.415 . S
C718 H708 0.930 . S
C718 C716 1.419 . S
C718 C719 1.362 . S
C719 H709 0.930 . S
C719 C712 1.409 . S
C719 C718 1.362 . S
H720 C726 0.930 . S
H721 C729 0.930 . S
H722 C730 0.930 . S
H723 C731 0.930 . S
H724 C734 0.930 . S
H725 C735 0.930 . S
C726 H720 0.930 . S
C726 C727 1.355 . S
C726 C728 1.415 . S
C727 C726 1.355 . S
C727 C729 1.419 . S
C728 C726 1.415 . S
C728 C733 1.425 1_455 S
C728 C735 1.409 1_455 S
C729 H721 0.930 . S
C729 C727 1.419 . S
C729 C730 1.362 . S
C730 H722 0.930 . S
C730 C729 1.362 . S
C730 C733 1.409 1_455 S
C731 H723 0.930 . S
C731 C732 1.355 . S
C731 C733 1.415 . S
C732 C731 1.355 . S
C732 C734 1.419 . S
C733 C728 1.425 1_655 S
C733 C730 1.409 1_655 S
C733 C731 1.415 . S
C734 H724 0.930 . S
C734 C732 1.419 . S
C734 C735 1.362 . S
C735 H725 0.930 . S
C735 C728 1.409 1_655 S
C735 C734 1.362 . S
H736 C742 0.930 . S
H737 C745 0.930 . S
H738 C746 0.930 . S
H739 C747 0.930 . S
H740 C750 0.930 . S
H741 C751 0.930 . S
C742 H736 0.930 . S
C742 C743 1.355 . S
C742 C744 1.415 . S
C743 C742 1.355 . S
C743 C745 1.419 . S
C744 C742 1.415 . S
C744 C749 1.425 1_545 S
C744 C751 1.409 1_545 S
C745 H737 0.930 . S
C745 C743 1.419 . S
C745 C746 1.362 . S
C746 H738 0.930 . S
C746 C745 1.362 . S
C746 C749 1.409 1_545 S
C747 H739 0.930 . S
C747 C748 1.355 . S
C747 C749 1.415 . S
C748 C747 1.355 . S
C748 C750 1.419 . S
C749 C744 1.425 1_565 S
C749 C746 1.409 1_565 S
C749 C747 1.415 . S
C750 H740 0.930 . S
C750 C748 1.419 . S
C750 C751 1.362 . S
C751 H741 0.930 . S
C751 C744 1.409 1_565 S
C751 C750 1.362 . S
H752 C758 0.930 . S
H753 C761 0.930 . S
H754 C762 0.930 . S
H755 C763 0.930 . S
H756 C766 0.930 . S
H757 C767 0.930 . S
C758 H752 0.930 . S
C758 C759 1.355 . S
C758 C760 1.415 . S
C759 C758 1.355 . S
C759 C761 1.419 . S
C760 C758 1.415 . S
C760 C765 1.425 1_655 S
C760 C767 1.409 1_655 S
C761 H753 0.930 . S
C761 C759 1.419 . S
C761 C762 1.362 . S
C762 H754 0.930 . S
C762 C761 1.362 . S
C762 C765 1.409 1_655 S
C763 H755 0.930 . S
C763 C764 1.355 . S
C763 C765 1.415 . S
C764 C763 1.355 . S
C764 C766 1.419 . S
C765 C760 1.425 1_455 S
C765 C762 1.409 1_455 S
C765 C763 1.415 . S
C766 H756 0.930 . S
C766 C764 1.419 . S
C766 C767 1.362 . S
C767 H757 0.930 . S
C767 C760 1.409 1_455 S
C767 C766 1.362 . S
H768 C774 0.930 . S
H769 C777 0.930 . S
H770 C778 0.930 . S
H771 C779 0.930 . S
H772 C782 0.930 . S
H773 C783 0.930 . S
C774 H768 0.930 . S
C774 C775 1.355 . S
C774 C776 1.415 . S
C775 C774 1.355 . S
C775 C777 1.419 . S
C776 C774 1.415 . S
C776 C781 1.425 1_545 S
C776 C783 1.409 1_545 S
C777 H769 0.930 . S
C777 C775 1.419 . S
C777 C778 1.362 . S
C778 H770 0.930 . S
C778 C777 1.362 . S
C778 C781 1.409 1_545 S
C779 H771 0.930 . S
C779 C780 1.355 . S
C779 C781 1.415 . S
C780 C779 1.355 . S
C780 C782 1.419 . S
C781 C776 1.425 1_565 S
C781 C778 1.409 1_565 S
C781 C779 1.415 . S
C782 H772 0.930 . S
C782 C780 1.419 . S
C782 C783 1.362 . S
C783 H773 0.930 . S
C783 C776 1.409 1_565 S
C783 C782 1.362 . S
H784 C790 0.930 . S
H785 C793 0.930 . S
H786 C794 0.930 . S
H787 C795 0.930 . S
H788 C798 0.930 . S
H789 C799 0.930 . S
C790 H784 0.930 . S
C790 C791 1.355 . S
C790 C792 1.415 . S
C791 C790 1.355 . S
C791 C793 1.419 . S
C792 C790 1.415 . S
C792 C797 1.425 1_565 S
C792 C799 1.409 1_565 S
C793 H785 0.930 . S
C793 C791 1.419 . S
C793 C794 1.362 . S
C794 H786 0.930 . S
C794 C793 1.362 . S
C794 C797 1.409 1_565 S
C795 H787 0.930 . S
C795 C796 1.355 . S
C795 C797 1.415 . S
C796 C795 1.355 . S
C796 C798 1.419 . S
C797 C792 1.425 1_545 S
C797 C794 1.409 1_545 S
C797 C795 1.415 . S
C798 H788 0.930 . S
C798 C796 1.419 . S
C798 C799 1.362 . S
C799 H789 0.930 . S
C799 C792 1.409 1_545 S
C799 C798 1.362 . S
H800 C806 0.930 . S
H801 C809 0.930 . S
H802 C810 0.930 . S
H803 C811 0.930 . S
H804 C814 0.930 . S
H805 C815 0.930 . S
C806 H800 0.930 . S
C806 C807 1.355 . S
C806 C808 1.415 . S
C807 C806 1.355 . S
C807 C809 1.419 . S
C808 C806 1.415 . S
C808 C813 1.425 1_655 S
C808 C815 1.409 1_655 S
C809 H801 0.930 . S
C809 C807 1.419 . S
C809 C810 1.362 . S
C810 H802 0.930 . S
C810 C809 1.362 . S
C810 C813 1.409 1_655 S
C811 H803 0.930 . S
C811 C812 1.355 . S
C811 C813 1.415 . S
C812 C811 1.355 . S
C812 C814 1.419 . S
C813 C808 1.425 1_455 S
C813 C810 1.409 1_455 S
C813 C811 1.415 . S
C814 H804 0.930 . S
C814 C812 1.419 . S
C814 C815 1.362 . S
C815 H805 0.930 . S
C815 C808 1.409 1_455 S
C815 C814 1.362 . S
H816 C822 0.930 . S
H817 C825 0.930 . S
H818 C826 0.930 . S
H819 C827 0.930 . S
H820 C830 0.930 . S
H821 C831 0.930 . S
C822 H816 0.930 . S
C822 C823 1.355 . S
C822 C824 1.415 . S
C823 C822 1.355 . S
C823 C825 1.419 . S
C824 C822 1.415 . S
C824 C829 1.425 1_565 S
C824 C831 1.409 1_565 S
C825 H817 0.930 . S
C825 C823 1.419 . S
C825 C826 1.362 . S
C826 H818 0.930 . S
C826 C825 1.362 . S
C826 C829 1.409 1_565 S
C827 H819 0.930 . S
C827 C828 1.355 . S
C827 C829 1.415 . S
C828 C827 1.355 . S
C828 C830 1.419 . S
C829 C824 1.425 1_545 S
C829 C826 1.409 1_545 S
C829 C827 1.415 . S
C830 H820 0.930 . S
C830 C828 1.419 . S
C830 C831 1.362 . S
C831 H821 0.930 . S
C831 C824 1.409 1_545 S
C831 C830 1.362 . S
H832 C838 0.930 . S
H833 C841 0.930 . S
H834 C842 0.930 . S
H835 C843 0.930 . S
H836 C846 0.930 . S
H837 C847 0.930 . S
C838 H832 0.930 . S
C838 C839 1.355 . S
C838 C840 1.415 . S
C839 C838 1.355 . S
C839 C841 1.419 . S
C840 C838 1.415 . S
C840 C845 1.425 1_655 S
C840 C847 1.409 1_655 S
C841 H833 0.930 . S
C841 C839 1.419 . S
C841 C842 1.362 . S
C842 H834 0.930 . S
C842 C841 1.362 . S
C842 C845 1.409 1_655 S
C843 H835 0.930 . S
C843 C844 1.355 . S
C843 C845 1.415 . S
C844 C843 1.355 . S
C844 C846 1.419 . S
C845 C840 1.425 1_455 S
C845 C842 1.409 1_455 S
C845 C843 1.415 . S
C846 H836 0.930 . S
C846 C844 1.419 . S
C846 C847 1.362 . S
C847 H837 0.930 . S
C847 C840 1.409 1_455 S
C847 C846 1.362 . S
H848 C854 0.930 . S
H849 C857 0.930 . S
H850 C858 0.930 . S
H851 C859 0.930 . S
H852 C862 0.930 . S
H853 C863 0.930 . S
C854 H848 0.930 . S
C854 C855 1.355 . S
C854 C856 1.415 . S
C855 C854 1.355 . S
C855 C857 1.419 . S
C856 C854 1.415 . S
C856 C861 1.425 1_556 S
C856 C863 1.409 1_556 S
C857 H849 0.930 . S
C857 C855 1.419 . S
C857 C858 1.362 . S
C858 H850 0.930 . S
C858 C857 1.362 . S
C858 C861 1.409 1_556 S
C859 H851 0.930 . S
C859 C860 1.355 . S
C859 C861 1.415 . S
C860 C859 1.355 . S
C860 C862 1.419 . S
C861 C856 1.425 1_554 S
C861 C858 1.409 1_554 S
C861 C859 1.415 . S
C862 H852 0.930 . S
C862 C860 1.419 . S
C862 C863 1.362 . S
C863 H853 0.930 . S
C863 C856 1.409 1_554 S
C863 C862 1.362 . S
H864 C870 0.930 . S
H865 C873 0.930 . S
H866 C874 0.930 . S
H867 C875 0.930 . S
H868 C878 0.930 . S
H869 C879 0.930 . S
C870 H864 0.930 . S
C870 C871 1.355 . S
C870 C872 1.415 . S
C871 C870 1.355 . S
C871 C873 1.419 . S
C872 C870 1.415 . S
C872 C877 1.425 1_556 S
C872 C879 1.409 1_556 S
C873 H865 0.930 . S
C873 C871 1.419 . S
C873 C874 1.362 . S
C874 H866 0.930 . S
C874 C873 1.362 . S
C874 C877 1.409 1_556 S
C875 H867 0.930 . S
C875 C876 1.355 . S
C875 C877 1.415 . S
C876 C875 1.355 . S
C876 C878 1.419 . S
C877 C872 1.425 1_554 S
C877 C874 1.409 1_554 S
C877 C875 1.415 . S
C878 H868 0.930 . S
C878 C876 1.419 . S
C878 C879 1.362 . S
C879 H869 0.930 . S
C879 C872 1.409 1_554 S
C879 C878 1.362 . S
H880 C886 0.930 . S
H881 C889 0.930 . S
H882 C890 0.930 . S
H883 C891 0.930 . S
H884 C894 0.930 . S
H885 C895 0.930 . S
C886 H880 0.930 . S
C886 C887 1.355 . S
C886 C888 1.415 . S
C887 C886 1.355 . S
C887 C889 1.419 . S
C888 C886 1.415 . S
C888 C893 1.425 1_556 S
C888 C895 1.409 1_556 S
C889 H881 0.930 . S
C889 C887 1.419 . S
C889 C890 1.362 . S
C890 H882 0.930 . S
C890 C889 1.362 . S
C890 C893 1.409 1_556 S
C891 H883 0.930 . S
C891 C892 1.355 . S
C891 C893 1.415 . S
C892 C891 1.355 . S
C892 C894 1.419 . S
C893 C888 1.425 1_554 S
C893 C890 1.409 1_554 S
C893 C891 1.415 . S
C894 H884 0.930 . S
C894 C892 1.419 . S
C894 C895 1.362 . S
C895 H885 0.930 . S
C895 C888 1.409 1_554 S
C895 C894 1.362 . S
H896 C902 0.930 . S
H897 C905 0.930 . S
H898 C906 0.930 . S
H899 C907 0.930 . S
H900 C910 0.930 . S
H901 C911 0.930 . S
C902 H896 0.930 . S
C902 C903 1.355 . S
C902 C904 1.415 . S
C903 C902 1.355 . S
C903 C905 1.419 . S
C904 C902 1.415 . S
C904 C909 1.425 1_556 S
C904 C911 1.409 1_556 S
C905 H897 0.930 . S
C905 C903 1.419 . S
C905 C906 1.362 . S
C906 H898 0.930 . S
C906 C905 1.362 . S
C906 C909 1.409 1_556 S
C907 H899 0.930 . S
C907 C908 1.355 . S
C907 C909 1.415 . S
C908 C907 1.355 . S
C908 C910 1.419 . S
C909 C904 1.425 1_554 S
C909 C906 1.409 1_554 S
C909 C907 1.415 . S
C910 H900 0.930 . S
C910 C908 1.419 . S
C910 C911 1.362 . S
C911 H901 0.930 . S
C911 C904 1.409 1_554 S
C911 C910 1.362 . S
H912 C918 0.930 . S
H913 C921 0.930 . S
H914 C922 0.930 . S
H915 C923 0.930 . S
H916 C926 0.930 . S
H917 C927 0.930 . S
C918 H912 0.930 . S
C918 C919 1.355 . S
C918 C920 1.415 . S
C919 C918 1.355 . S
C919 C921 1.419 . S
C920 C918 1.415 . S
C920 C925 1.425 . S
C920 C927 1.409 . S
C921 H913 0.930 . S
C921 C919 1.419 . S
C921 C922 1.362 . S
C922 H914 0.930 . S
C922 C921 1.362 . S
C922 C925 1.409 . S
C923 H915 0.930 . S
C923 C924 1.355 . S
C923 C925 1.415 . S
C924 C923 1.355 . S
C924 C926 1.419 . S
C925 C920 1.425 . S
C925 C922 1.409 . S
C925 C923 1.415 . S
C926 H916 0.930 . S
C926 C924 1.419 . S
C926 C927 1.362 . S
C927 H917 0.930 . S
C927 C920 1.409 . S
C927 C926 1.362 . S
H928 C934 0.930 . S
H929 C937 0.930 . S
H930 C938 0.930 . S
H931 C939 0.930 . S
H932 C942 0.930 . S
H933 C943 0.930 . S
C934 H928 0.930 . S
C934 C935 1.355 . S
C934 C936 1.415 . S
C935 C934 1.355 . S
C935 C937 1.419 . S
C936 C934 1.415 . S
C936 C941 1.425 . S
C936 C943 1.409 . S
C937 H929 0.930 . S
C937 C935 1.419 . S
C937 C938 1.362 . S
C938 H930 0.930 . S
C938 C937 1.362 . S
C938 C941 1.409 . S
C939 H931 0.930 . S
C939 C940 1.355 . S
C939 C941 1.415 . S
C940 C939 1.355 . S
C940 C942 1.419 . S
C941 C936 1.425 . S
C941 C938 1.409 . S
C941 C939 1.415 . S
C942 H932 0.930 . S
C942 C940 1.419 . S
C942 C943 1.362 . S
C943 H933 0.930 . S
C943 C936 1.409 . S
C943 C942 1.362 . S
H944 C950 0.930 . S
H945 C953 0.930 . S
H946 C954 0.930 . S
H947 C955 0.930 . S
H948 C958 0.930 . S
H949 C959 0.930 . S
C950 H944 0.930 . S
C950 C951 1.355 . S
C950 C952 1.415 . S
C951 C950 1.355 . S
C951 C953 1.419 . S
C952 C950 1.415 . S
C952 C957 1.425 . S
C952 C959 1.409 . S
C953 H945 0.930 . S
C953 C951 1.419 . S
C953 C954 1.362 . S
C954 H946 0.930 . S
C954 C953 1.362 . S
C954 C957 1.409 . S
C955 H947 0.930 . S
C955 C956 1.355 . S
C955 C957 1.415 . S
C956 C955 1.355 . S
C956 C958 1.419 . S
C957 C952 1.425 . S
C957 C954 1.409 . S
C957 C955 1.415 . S
C958 H948 0.930 . S
C958 C956 1.419 . S
C958 C959 1.362 . S
C959 H949 0.930 . S
C959 C952 1.409 . S
C959 C958 1.362 . S
H960 C966 0.930 . S
H961 C969 0.930 . S
H962 C970 0.930 . S
H963 C971 0.930 . S
H964 C974 0.930 . S
H965 C975 0.930 . S
C966 H960 0.930 . S
C966 C967 1.355 . S
C966 C968 1.415 . S
C967 C966 1.355 . S
C967 C969 1.419 . S
C968 C966 1.415 . S
C968 C973 1.425 . S
C968 C975 1.409 . S
C969 H961 0.930 . S
C969 C967 1.419 . S
C969 C970 1.362 . S
C970 H962 0.930 . S
C970 C969 1.362 . S
C970 C973 1.409 . S
C971 H963 0.930 . S
C971 C972 1.355 . S
C971 C973 1.415 . S
C972 C971 1.355 . S
C972 C974 1.419 . S
C973 C968 1.425 . S
C973 C970 1.409 . S
C973 C971 1.415 . S
C974 H964 0.930 . S
C974 C972 1.419 . S
C974 C975 1.362 . S
C975 H965 0.930 . S
C975 C968 1.409 . S
C975 C974 1.362 . S
H976 C982 0.930 . S
H977 C985 0.930 . S
H978 C986 0.930 . S
H979 C987 0.930 . S
H980 C990 0.930 . S
H981 C991 0.930 . S
C982 H976 0.930 . S
C982 C983 1.355 . S
C982 C984 1.415 . S
C983 C982 1.355 . S
C983 C985 1.419 . S
C984 C982 1.415 . S
C984 C989 1.425 . S
C984 C991 1.409 . S
C985 H977 0.930 . S
C985 C983 1.419 . S
C985 C986 1.362 . S
C986 H978 0.930 . S
C986 C985 1.362 . S
C986 C989 1.409 . S
C987 H979 0.930 . S
C987 C988 1.355 . S
C987 C989 1.415 . S
C988 C987 1.355 . S
C988 C990 1.419 . S
C989 C984 1.425 . S
C989 C986 1.409 . S
C989 C987 1.415 . S
C990 H980 0.930 . S
C990 C988 1.419 . S
C990 C991 1.362 . S
C991 H981 0.930 . S
C991 C984 1.409 . S
C991 C990 1.362 . S
H992 C998 0.930 . S
H993 C1001 0.930 . S
H994 C1002 0.930 . S
H995 C1003 0.930 . S
H996 C1006 0.930 . S
H997 C1007 0.930 . S
C998 H992 0.930 . S
C998 C999 1.355 . S
C998 C1000 1.415 . S
C999 C998 1.355 . S
C999 C1001 1.419 . S
C1000 C998 1.415 . S
C1000 C1005 1.425 . S
C1000 C1007 1.409 . S
C1001 H993 0.930 . S
C1001 C999 1.419 . S
C1001 C1002 1.362 . S
C1002 H994 0.930 . S
C1002 C1001 1.362 . S
C1002 C1005 1.409 . S
C1003 H995 0.930 . S
C1003 C1004 1.355 . S
C1003 C1005 1.415 . S
C1004 C1003 1.355 . S
C1004 C1006 1.419 . S
C1005 C1000 1.425 . S
C1005 C1002 1.409 . S
C1005 C1003 1.415 . S
C1006 H996 0.930 . S
C1006 C1004 1.419 . S
C1006 C1007 1.362 . S
C1007 H997 0.930 . S
C1007 C1000 1.409 . S
C1007 C1006 1.362 . S
H1008 C1014 0.930 . S
H1009 C1017 0.930 . S
H1010 C1018 0.930 . S
H1011 C1019 0.930 . S
H1012 C1022 0.930 . S
H1013 C1023 0.930 . S
C1014 H1008 0.930 . S
C1014 C1015 1.355 . S
C1014 C1016 1.415 . S
C1015 C1014 1.355 . S
C1015 C1017 1.419 . S
C1016 C1014 1.415 . S
C1016 C1021 1.425 . S
C1016 C1023 1.409 . S
C1017 H1009 0.930 . S
C1017 C1015 1.419 . S
C1017 C1018 1.362 . S
C1018 H1010 0.930 . S
C1018 C1017 1.362 . S
C1018 C1021 1.409 . S
C1019 H1011 0.930 . S
C1019 C1020 1.355 . S
C1019 C1021 1.415 . S
C1020 C1019 1.355 . S
C1020 C1022 1.419 . S
C1021 C1016 1.425 . S
C1021 C1018 1.409 . S
C1021 C1019 1.415 . S
C1022 H1012 0.930 . S
C1022 C1020 1.419 . S
C1022 C1023 1.362 . S
C1023 H1013 0.930 . S
C1023 C1016 1.409 . S
C1023 C1022 1.362 . S
H1024 C1030 0.930 . S
H1025 C1033 0.930 . S
H1026 C1034 0.930 . S
H1027 C1035 0.930 . S
H1028 C1038 0.930 . S
H1029 C1039 0.930 . S
C1030 H1024 0.930 . S
C1030 C1031 1.355 . S
C1030 C1032 1.415 . S
C1031 C1030 1.355 . S
C1031 C1033 1.419 . S
C1032 C1030 1.415 . S
C1032 C1037 1.425 . S
C1032 C1039 1.409 . S
C1033 H1025 0.930 . S
C1033 C1031 1.419 . S
C1033 C1034 1.362 . S
C1034 H1026 0.930 . S
C1034 C1033 1.362 . S
C1034 C1037 1.409 . S
C1035 H1027 0.930 . S
C1035 C1036 1.355 . S
C1035 C1037 1.415 . S
C1036 C1035 1.355 . S
C1036 C1038 1.419 . S
C1037 C1032 1.425 . S
C1037 C1034 1.409 . S
C1037 C1035 1.415 . S
C1038 H1028 0.930 . S
C1038 C1036 1.419 . S
C1038 C1039 1.362 . S
C1039 H1029 0.930 . S
C1039 C1032 1.409 . S
C1039 C1038 1.362 . S
H1040 C1046 0.930 . S
H1041 C1049 0.930 . S
H1042 C1050 0.930 . S
H1043 C1051 0.930 . S
H1044 C1054 0.930 . S
H1045 C1055 0.930 . S
C1046 H1040 0.930 . S
C1046 C1047 1.355 . S
C1046 C1048 1.415 . S
C1047 C1046 1.355 . S
C1047 C1049 1.419 . S
C1048 C1046 1.415 . S
C1048 C1053 1.425 . S
C1048 C1055 1.409 . S
C1049 H1041 0.930 . S
C1049 C1047 1.419 . S
C1049 C1050 1.362 . S
C1050 H1042 0.930 . S
C1050 C1049 1.362 . S
C1050 C1053 1.409 . S
C1051 H1043 0.930 . S
C1051 C1052 1.355 . S
C1051 C1053 1.415 . S
C1052 C1051 1.355 . S
C1052 C1054 1.419 . S
C1053 C1048 1.425 . S
C1053 C1050 1.409 . S
C1053 C1051 1.415 . S
C1054 H1044 0.930 . S
C1054 C1052 1.419 . S
C1054 C1055 1.362 . S
C1055 H1045 0.930 . S
C1055 C1048 1.409 . S
C1055 C1054 1.362 . S
H1056 C1062 0.930 . S
H1057 C1065 0.930 . S
H1058 C1066 0.930 . S
H1059 C1067 0.930 . S
H1060 C1070 0.930 . S
H1061 C1071 0.930 . S
C1062 H1056 0.930 . S
C1062 C1063 1.355 . S
C1062 C1064 1.415 . S
C1063 C1062 1.355 . S
C1063 C1065 1.419 . S
C1064 C1062 1.415 . S
C1064 C1069 1.425 . S
C1064 C1071 1.409 . S
C1065 H1057 0.930 . S
C1065 C1063 1.419 . S
C1065 C1066 1.362 . S
C1066 H1058 0.930 . S
C1066 C1065 1.362 . S
C1066 C1069 1.409 . S
C1067 H1059 0.930 . S
C1067 C1068 1.355 . S
C1067 C1069 1.415 . S
C1068 C1067 1.355 . S
C1068 C1070 1.419 . S
C1069 C1064 1.425 . S
C1069 C1066 1.409 . S
C1069 C1067 1.415 . S
C1070 H1060 0.930 . S
C1070 C1068 1.419 . S
C1070 C1071 1.362 . S
C1071 H1061 0.930 . S
C1071 C1064 1.409 . S
C1071 C1070 1.362 . S
H1072 C1078 0.930 . S
H1073 C1081 0.930 . S
H1074 C1082 0.930 . S
H1075 C1083 0.930 . S
H1076 C1086 0.930 . S
H1077 C1087 0.930 . S
C1078 H1072 0.930 . S
C1078 C1079 1.355 . S
C1078 C1080 1.415 . S
C1079 C1078 1.355 . S
C1079 C1081 1.419 . S
C1080 C1078 1.415 . S
C1080 C1085 1.425 . S
C1080 C1087 1.409 . S
C1081 H1073 0.930 . S
C1081 C1079 1.419 . S
C1081 C1082 1.362 . S
C1082 H1074 0.930 . S
C1082 C1081 1.362 . S
C1082 C1085 1.409 . S
C1083 H1075 0.930 . S
C1083 C1084 1.355 . S
C1083 C1085 1.415 . S
C1084 C1083 1.355 . S
C1084 C1086 1.419 . S
C1085 C1080 1.425 . S
C1085 C1082 1.409 . S
C1085 C1083 1.415 . S
C1086 H1076 0.930 . S
C1086 C1084 1.419 . S
C1086 C1087 1.362 . S
C1087 H1077 0.930 . S
C1087 C1080 1.409 . S
C1087 C1086 1.362 . S
H1088 C1094 0.930 . S
H1089 C1097 0.930 . S
H1090 C1098 0.930 . S
H1091 C1099 0.930 . S
H1092 C1102 0.930 . S
H1093 C1103 0.930 . S
C1094 H1088 0.930 . S
C1094 C1095 1.355 . S
C1094 C1096 1.415 . S
C1095 C1094 1.355 . S
C1095 C1097 1.419 . S
C1096 C1094 1.415 . S
C1096 C1101 1.425 . S
C1096 C1103 1.409 . S
C1097 H1089 0.930 . S
C1097 C1095 1.419 . S
C1097 C1098 1.362 . S
C1098 H1090 0.930 . S
C1098 C1097 1.362 . S
C1098 C1101 1.409 . S
C1099 H1091 0.930 . S
C1099 C1100 1.355 . S
C1099 C1101 1.415 . S
C1100 C1099 1.355 . S
C1100 C1102 1.419 . S
C1101 C1096 1.425 . S
C1101 C1098 1.409 . S
C1101 C1099 1.415 . S
C1102 H1092 0.930 . S
C1102 C1100 1.419 . S
C1102 C1103 1.362 . S
C1103 H1093 0.930 . S
C1103 C1096 1.409 . S
C1103 C1102 1.362 . S
C343 C163 1.462 . S
C348 C0 1.467 . S
C359 C14 1.412 . S
C364 C121 1.484 . S
C375 C28 1.440 . S
C380 C135 1.474 . S
C391 C42 1.430 . S
C396 C149 1.476 . S
C407 C191 1.473 . S
C412 C56 1.442 . S
C423 C70 1.403 . S
C428 C205 1.487 . S
C439 C219 1.473 . S
C444 C84 1.436 . S
C455 C177 1.466 . S
C460 C98 1.459 . S
C471 C79 1.475 . S
C476 C112 1.437 . S
C487 C93 1.489 . S
C492 C126 1.399 . S
C503 C140 1.440 . S
C508 C107 1.472 . S
C519 C65 1.489 . S
C524 C154 1.396 . S
C535 C51 1.462 . S
C540 C168 1.467 . S
C551 C182 1.436 . S
C556 C9 1.475 . S
C567 C196 1.467 . S
C572 C23 1.462 . S
C583 C210 1.467 . S
C588 C37 1.462 . S
C599 C224 1.423 . S
C604 C331 1.480 . S
C615 C289 1.462 . S
C620 C238 1.467 . S
C631 C252 1.446 . S
C636 C247 1.472 . S
C647 C266 1.414 . S
C652 C261 1.484 . S
C663 C275 1.484 . S
C668 C280 1.413 . S
C679 C294 1.428 . S
C684 C317 1.476 . S
C695 C233 1.462 . S
C700 C308 1.467 . S
C711 C303 1.477 . S
C716 C322 1.427 . S
C727 C5 1.525 . S
C732 C89 1.507 . S
C743 C19 1.508 . S
C748 C103 1.525 . S
C759 C33 1.505 . S
C764 C61 1.521 . S
C775 C75 1.505 . S
C780 C47 1.521 . S
C791 C145 1.519 . S
C796 C117 1.517 . S
C807 C131 1.521 . S
C812 C159 1.514 . S
C823 C173 1.520 . S
C828 C201 1.506 . S
C839 C215 1.508 . S
C844 C187 1.516 . S
C855 C243 1.508 . S
C860 C229 1.525 . S
C871 C257 1.524 . S
C876 C327 1.510 . S
C887 C271 1.508 . S
C892 C299 1.516 . S
C903 C285 1.522 . S
C908 C313 1.513 . S
C919 C11 1.096 . S
C924 C81 1.104 . S
C935 C25 1.086 . S
C940 C95 1.108 . S
C951 C39 1.107 . S
C956 C109 1.089 . S
C967 C67 1.108 . S
C972 C53 1.082 . S
C983 C123 1.108 . S
C988 C333 1.088 . S
C999 C137 1.106 . S
C1004 C305 1.079 . S
C1015 C319 1.092 . S
C1020 C151 1.083 . S
C1031 C165 1.079 . S
C1036 C235 1.105 . S
C1047 C291 1.109 . S
C1052 C179 1.085 . S
C1063 C249 1.079 . S
C1068 C193 1.105 . S
C1079 C207 1.083 . S
C1084 C263 1.092 . S
C1095 C277 1.082 . S
C1100 C221 1.108 . S
