# Generated by pormake.
# Topology fcg, (5)-cn, num edge types: 1
# Building blocks:
#     Node 0, Type 0, BuildingBlock: BEQFEK_clean_sbu_0, # of connection points: 5
#     Node 1, Type 0, BuildingBlock: BEQFEK_clean_sbu_0, # of connection points: 5
#     Node 2, Type 0, BuildingBlock: BEQFEK_clean_sbu_0, # of connection points: 5
#     Node 3, Type 0, BuildingBlock: BEQFEK_clean_sbu_0, # of connection points: 5
#     Node 4, Type 0, BuildingBlock: BEQFEK_clean_sbu_0, # of connection points: 5
#     Node 5, Type 0, BuildingBlock: BEQFEK_clean_sbu_0, # of connection points: 5
#     Node 6, Type 0, BuildingBlock: BEQFEK_clean_sbu_0, # of connection points: 5
#     Node 7, Type 0, BuildingBlock: BEQFEK_clean_sbu_0, # of connection points: 5
#     Node 8, Type 0, BuildingBlock: BEQFEK_clean_sbu_0, # of connection points: 5
#     Node 9, Type 0, BuildingBlock: BEQFEK_clean_sbu_0, # of connection points: 5
#     Node 10, Type 0, BuildingBlock: BEQFEK_clean_sbu_0, # of connection points: 5
#     Node 11, Type 0, BuildingBlock: BEQFEK_clean_sbu_0, # of connection points: 5
#     Node 12, Type 0, BuildingBlock: BEQFEK_clean_sbu_0, # of connection points: 5
#     Node 13, Type 0, BuildingBlock: BEQFEK_clean_sbu_0, # of connection points: 5
#     Node 14, Type 0, BuildingBlock: BEQFEK_clean_sbu_0, # of connection points: 5
#     Node 15, Type 0, BuildingBlock: BEQFEK_clean_sbu_0, # of connection points: 5
#     Node 16, Type 0, BuildingBlock: BEQFEK_clean_sbu_0, # of connection points: 5
#     Node 17, Type 0, BuildingBlock: BEQFEK_clean_sbu_0, # of connection points: 5
#     Node 18, Type 0, BuildingBlock: BEQFEK_clean_sbu_0, # of connection points: 5
#     Node 19, Type 0, BuildingBlock: BEQFEK_clean_sbu_0, # of connection points: 5
#     Node 20, Type 0, BuildingBlock: BEQFEK_clean_sbu_0, # of connection points: 5
#     Node 21, Type 0, BuildingBlock: BEQFEK_clean_sbu_0, # of connection points: 5
#     Node 22, Type 0, BuildingBlock: BEQFEK_clean_sbu_0, # of connection points: 5
#     Node 23, Type 0, BuildingBlock: BEQFEK_clean_sbu_0, # of connection points: 5
#     Node 24, Type 0, BuildingBlock: BEQFEK_clean_sbu_0, # of connection points: 5
#     Node 25, Type 0, BuildingBlock: BEQFEK_clean_sbu_0, # of connection points: 5
#     Node 26, Type 0, BuildingBlock: BEQFEK_clean_sbu_0, # of connection points: 5
#     Node 27, Type 0, BuildingBlock: BEQFEK_clean_sbu_0, # of connection points: 5
#     Node 28, Type 0, BuildingBlock: BEQFEK_clean_sbu_0, # of connection points: 5
#     Node 29, Type 0, BuildingBlock: BEQFEK_clean_sbu_0, # of connection points: 5
#     Node 30, Type 0, BuildingBlock: BEQFEK_clean_sbu_0, # of connection points: 5
#     Node 31, Type 0, BuildingBlock: BEQFEK_clean_sbu_0, # of connection points: 5
#     Node 32, Type 0, BuildingBlock: BEQFEK_clean_sbu_0, # of connection points: 5
#     Node 33, Type 0, BuildingBlock: BEQFEK_clean_sbu_0, # of connection points: 5
#     Node 34, Type 0, BuildingBlock: BEQFEK_clean_sbu_0, # of connection points: 5
#     Node 35, Type 0, BuildingBlock: BEQFEK_clean_sbu_0, # of connection points: 5
#     Node 36, Type 0, BuildingBlock: BEQFEK_clean_sbu_0, # of connection points: 5
#     Node 37, Type 0, BuildingBlock: BEQFEK_clean_sbu_0, # of connection points: 5
#     Node 38, Type 0, BuildingBlock: BEQFEK_clean_sbu_0, # of connection points: 5
#     Node 39, Type 0, BuildingBlock: BEQFEK_clean_sbu_0, # of connection points: 5
#     Node 40, Type 0, BuildingBlock: BEQFEK_clean_sbu_0, # of connection points: 5
#     Node 41, Type 0, BuildingBlock: BEQFEK_clean_sbu_0, # of connection points: 5
#     Node 42, Type 0, BuildingBlock: BEQFEK_clean_sbu_0, # of connection points: 5
#     Node 43, Type 0, BuildingBlock: BEQFEK_clean_sbu_0, # of connection points: 5
#     Node 44, Type 0, BuildingBlock: BEQFEK_clean_sbu_0, # of connection points: 5
#     Node 45, Type 0, BuildingBlock: BEQFEK_clean_sbu_0, # of connection points: 5
#     Node 46, Type 0, BuildingBlock: BEQFEK_clean_sbu_0, # of connection points: 5
#     Node 47, Type 0, BuildingBlock: BEQFEK_clean_sbu_0, # of connection points: 5
#     Edge 48, Type (0, 0), BuildingBlock: KIFKEQ_clean_linker_1, # of connection points: 2
#     Edge 49, Type (0, 0), BuildingBlock: KIFKEQ_clean_linker_1, # of connection points: 2
#     Edge 50, Type (0, 0), BuildingBlock: KIFKEQ_clean_linker_1, # of connection points: 2
#     Edge 51, Type (0, 0), BuildingBlock: KIFKEQ_clean_linker_1, # of connection points: 2
#     Edge 52, Type (0, 0), BuildingBlock: KIFKEQ_clean_linker_1, # of connection points: 2
#     Edge 53, Type (0, 0), BuildingBlock: KIFKEQ_clean_linker_1, # of connection points: 2
#     Edge 54, Type (0, 0), BuildingBlock: KIFKEQ_clean_linker_1, # of connection points: 2
#     Edge 55, Type (0, 0), BuildingBlock: KIFKEQ_clean_linker_1, # of connection points: 2
#     Edge 56, Type (0, 0), BuildingBlock: KIFKEQ_clean_linker_1, # of connection points: 2
#     Edge 57, Type (0, 0), BuildingBlock: KIFKEQ_clean_linker_1, # of connection points: 2
#     Edge 58, Type (0, 0), BuildingBlock: KIFKEQ_clean_linker_1, # of connection points: 2
#     Edge 59, Type (0, 0), BuildingBlock: KIFKEQ_clean_linker_1, # of connection points: 2
#     Edge 60, Type (0, 0), BuildingBlock: KIFKEQ_clean_linker_1, # of connection points: 2
#     Edge 61, Type (0, 0), BuildingBlock: KIFKEQ_clean_linker_1, # of connection points: 2
#     Edge 62, Type (0, 0), BuildingBlock: KIFKEQ_clean_linker_1, # of connection points: 2
#     Edge 63, Type (0, 0), BuildingBlock: KIFKEQ_clean_linker_1, # of connection points: 2
#     Edge 64, Type (0, 0), BuildingBlock: KIFKEQ_clean_linker_1, # of connection points: 2
#     Edge 65, Type (0, 0), BuildingBlock: KIFKEQ_clean_linker_1, # of connection points: 2
#     Edge 66, Type (0, 0), BuildingBlock: KIFKEQ_clean_linker_1, # of connection points: 2
#     Edge 67, Type (0, 0), BuildingBlock: KIFKEQ_clean_linker_1, # of connection points: 2
#     Edge 68, Type (0, 0), BuildingBlock: KIFKEQ_clean_linker_1, # of connection points: 2
#     Edge 69, Type (0, 0), BuildingBlock: KIFKEQ_clean_linker_1, # of connection points: 2
#     Edge 70, Type (0, 0), BuildingBlock: KIFKEQ_clean_linker_1, # of connection points: 2
#     Edge 71, Type (0, 0), BuildingBlock: KIFKEQ_clean_linker_1, # of connection points: 2
#     Edge 72, Type (0, 0), BuildingBlock: KIFKEQ_clean_linker_1, # of connection points: 2
#     Edge 73, Type (0, 0), BuildingBlock: KIFKEQ_clean_linker_1, # of connection points: 2
#     Edge 74, Type (0, 0), BuildingBlock: KIFKEQ_clean_linker_1, # of connection points: 2
#     Edge 75, Type (0, 0), BuildingBlock: KIFKEQ_clean_linker_1, # of connection points: 2
#     Edge 76, Type (0, 0), BuildingBlock: KIFKEQ_clean_linker_1, # of connection points: 2
#     Edge 77, Type (0, 0), BuildingBlock: KIFKEQ_clean_linker_1, # of connection points: 2
#     Edge 78, Type (0, 0), BuildingBlock: KIFKEQ_clean_linker_1, # of connection points: 2
#     Edge 79, Type (0, 0), BuildingBlock: KIFKEQ_clean_linker_1, # of connection points: 2
#     Edge 80, Type (0, 0), BuildingBlock: KIFKEQ_clean_linker_1, # of connection points: 2
#     Edge 81, Type (0, 0), BuildingBlock: KIFKEQ_clean_linker_1, # of connection points: 2
#     Edge 82, Type (0, 0), BuildingBlock: KIFKEQ_clean_linker_1, # of connection points: 2
#     Edge 83, Type (0, 0), BuildingBlock: KIFKEQ_clean_linker_1, # of connection points: 2
#     Edge 84, Type (0, 0), BuildingBlock: KIFKEQ_clean_linker_1, # of connection points: 2
#     Edge 85, Type (0, 0), BuildingBlock: KIFKEQ_clean_linker_1, # of connection points: 2
#     Edge 86, Type (0, 0), BuildingBlock: KIFKEQ_clean_linker_1, # of connection points: 2
#     Edge 87, Type (0, 0), BuildingBlock: KIFKEQ_clean_linker_1, # of connection points: 2
#     Edge 88, Type (0, 0), BuildingBlock: KIFKEQ_clean_linker_1, # of connection points: 2
#     Edge 89, Type (0, 0), BuildingBlock: KIFKEQ_clean_linker_1, # of connection points: 2
#     Edge 90, Type (0, 0), BuildingBlock: KIFKEQ_clean_linker_1, # of connection points: 2
#     Edge 91, Type (0, 0), BuildingBlock: KIFKEQ_clean_linker_1, # of connection points: 2
#     Edge 92, Type (0, 0), BuildingBlock: KIFKEQ_clean_linker_1, # of connection points: 2
#     Edge 93, Type (0, 0), BuildingBlock: KIFKEQ_clean_linker_1, # of connection points: 2
#     Edge 94, Type (0, 0), BuildingBlock: KIFKEQ_clean_linker_1, # of connection points: 2
#     Edge 95, Type (0, 0), BuildingBlock: KIFKEQ_clean_linker_1, # of connection points: 2
#     Edge 96, Type (0, 0), BuildingBlock: KIFKEQ_clean_linker_1, # of connection points: 2
#     Edge 97, Type (0, 0), BuildingBlock: KIFKEQ_clean_linker_1, # of connection points: 2
#     Edge 98, Type (0, 0), BuildingBlock: KIFKEQ_clean_linker_1, # of connection points: 2
#     Edge 99, Type (0, 0), BuildingBlock: KIFKEQ_clean_linker_1, # of connection points: 2
#     Edge 100, Type (0, 0), BuildingBlock: KIFKEQ_clean_linker_1, # of connection points: 2
#     Edge 101, Type (0, 0), BuildingBlock: KIFKEQ_clean_linker_1, # of connection points: 2
#     Edge 102, Type (0, 0), BuildingBlock: KIFKEQ_clean_linker_1, # of connection points: 2
#     Edge 103, Type (0, 0), BuildingBlock: KIFKEQ_clean_linker_1, # of connection points: 2
#     Edge 104, Type (0, 0), BuildingBlock: KIFKEQ_clean_linker_1, # of connection points: 2
#     Edge 105, Type (0, 0), BuildingBlock: KIFKEQ_clean_linker_1, # of connection points: 2
#     Edge 106, Type (0, 0), BuildingBlock: KIFKEQ_clean_linker_1, # of connection points: 2
#     Edge 107, Type (0, 0), BuildingBlock: KIFKEQ_clean_linker_1, # of connection points: 2
#     Edge 108, Type (0, 0), BuildingBlock: KIFKEQ_clean_linker_1, # of connection points: 2
#     Edge 109, Type (0, 0), BuildingBlock: KIFKEQ_clean_linker_1, # of connection points: 2
#     Edge 110, Type (0, 0), BuildingBlock: KIFKEQ_clean_linker_1, # of connection points: 2
#     Edge 111, Type (0, 0), BuildingBlock: KIFKEQ_clean_linker_1, # of connection points: 2
#     Edge 112, Type (0, 0), BuildingBlock: KIFKEQ_clean_linker_1, # of connection points: 2
#     Edge 113, Type (0, 0), BuildingBlock: KIFKEQ_clean_linker_1, # of connection points: 2
#     Edge 114, Type (0, 0), BuildingBlock: KIFKEQ_clean_linker_1, # of connection points: 2
#     Edge 115, Type (0, 0), BuildingBlock: KIFKEQ_clean_linker_1, # of connection points: 2
#     Edge 116, Type (0, 0), BuildingBlock: KIFKEQ_clean_linker_1, # of connection points: 2
#     Edge 117, Type (0, 0), BuildingBlock: KIFKEQ_clean_linker_1, # of connection points: 2
#     Edge 118, Type (0, 0), BuildingBlock: KIFKEQ_clean_linker_1, # of connection points: 2
#     Edge 119, Type (0, 0), BuildingBlock: KIFKEQ_clean_linker_1, # of connection points: 2
#     Edge 120, Type (0, 0), BuildingBlock: KIFKEQ_clean_linker_1, # of connection points: 2
#     Edge 121, Type (0, 0), BuildingBlock: KIFKEQ_clean_linker_1, # of connection points: 2
#     Edge 122, Type (0, 0), BuildingBlock: KIFKEQ_clean_linker_1, # of connection points: 2
#     Edge 123, Type (0, 0), BuildingBlock: KIFKEQ_clean_linker_1, # of connection points: 2
#     Edge 124, Type (0, 0), BuildingBlock: KIFKEQ_clean_linker_1, # of connection points: 2
#     Edge 125, Type (0, 0), BuildingBlock: KIFKEQ_clean_linker_1, # of connection points: 2
#     Edge 126, Type (0, 0), BuildingBlock: KIFKEQ_clean_linker_1, # of connection points: 2
#     Edge 127, Type (0, 0), BuildingBlock: KIFKEQ_clean_linker_1, # of connection points: 2
#     Edge 128, Type (0, 0), BuildingBlock: KIFKEQ_clean_linker_1, # of connection points: 2
#     Edge 129, Type (0, 0), BuildingBlock: KIFKEQ_clean_linker_1, # of connection points: 2
#     Edge 130, Type (0, 0), BuildingBlock: KIFKEQ_clean_linker_1, # of connection points: 2
#     Edge 131, Type (0, 0), BuildingBlock: KIFKEQ_clean_linker_1, # of connection points: 2
#     Edge 132, Type (0, 0), BuildingBlock: KIFKEQ_clean_linker_1, # of connection points: 2
#     Edge 133, Type (0, 0), BuildingBlock: KIFKEQ_clean_linker_1, # of connection points: 2
#     Edge 134, Type (0, 0), BuildingBlock: KIFKEQ_clean_linker_1, # of connection points: 2
#     Edge 135, Type (0, 0), BuildingBlock: KIFKEQ_clean_linker_1, # of connection points: 2
#     Edge 136, Type (0, 0), BuildingBlock: KIFKEQ_clean_linker_1, # of connection points: 2
#     Edge 137, Type (0, 0), BuildingBlock: KIFKEQ_clean_linker_1, # of connection points: 2
#     Edge 138, Type (0, 0), BuildingBlock: KIFKEQ_clean_linker_1, # of connection points: 2
#     Edge 139, Type (0, 0), BuildingBlock: KIFKEQ_clean_linker_1, # of connection points: 2
#     Edge 140, Type (0, 0), BuildingBlock: KIFKEQ_clean_linker_1, # of connection points: 2
#     Edge 141, Type (0, 0), BuildingBlock: KIFKEQ_clean_linker_1, # of connection points: 2
#     Edge 142, Type (0, 0), BuildingBlock: KIFKEQ_clean_linker_1, # of connection points: 2
#     Edge 143, Type (0, 0), BuildingBlock: KIFKEQ_clean_linker_1, # of connection points: 2
#     Edge 144, Type (0, 0), BuildingBlock: KIFKEQ_clean_linker_1, # of connection points: 2
#     Edge 145, Type (0, 0), BuildingBlock: KIFKEQ_clean_linker_1, # of connection points: 2
#     Edge 146, Type (0, 0), BuildingBlock: KIFKEQ_clean_linker_1, # of connection points: 2
#     Edge 147, Type (0, 0), BuildingBlock: KIFKEQ_clean_linker_1, # of connection points: 2
#     Edge 148, Type (0, 0), BuildingBlock: KIFKEQ_clean_linker_1, # of connection points: 2
#     Edge 149, Type (0, 0), BuildingBlock: KIFKEQ_clean_linker_1, # of connection points: 2
#     Edge 150, Type (0, 0), BuildingBlock: KIFKEQ_clean_linker_1, # of connection points: 2
#     Edge 151, Type (0, 0), BuildingBlock: KIFKEQ_clean_linker_1, # of connection points: 2
#     Edge 152, Type (0, 0), BuildingBlock: KIFKEQ_clean_linker_1, # of connection points: 2
#     Edge 153, Type (0, 0), BuildingBlock: KIFKEQ_clean_linker_1, # of connection points: 2
#     Edge 154, Type (0, 0), BuildingBlock: KIFKEQ_clean_linker_1, # of connection points: 2
#     Edge 155, Type (0, 0), BuildingBlock: KIFKEQ_clean_linker_1, # of connection points: 2
#     Edge 156, Type (0, 0), BuildingBlock: KIFKEQ_clean_linker_1, # of connection points: 2
#     Edge 157, Type (0, 0), BuildingBlock: KIFKEQ_clean_linker_1, # of connection points: 2
#     Edge 158, Type (0, 0), BuildingBlock: KIFKEQ_clean_linker_1, # of connection points: 2
#     Edge 159, Type (0, 0), BuildingBlock: KIFKEQ_clean_linker_1, # of connection points: 2
#     Edge 160, Type (0, 0), BuildingBlock: KIFKEQ_clean_linker_1, # of connection points: 2
#     Edge 161, Type (0, 0), BuildingBlock: KIFKEQ_clean_linker_1, # of connection points: 2
#     Edge 162, Type (0, 0), BuildingBlock: KIFKEQ_clean_linker_1, # of connection points: 2
#     Edge 163, Type (0, 0), BuildingBlock: KIFKEQ_clean_linker_1, # of connection points: 2
#     Edge 164, Type (0, 0), BuildingBlock: KIFKEQ_clean_linker_1, # of connection points: 2
#     Edge 165, Type (0, 0), BuildingBlock: KIFKEQ_clean_linker_1, # of connection points: 2
#     Edge 166, Type (0, 0), BuildingBlock: KIFKEQ_clean_linker_1, # of connection points: 2
#     Edge 167, Type (0, 0), BuildingBlock: KIFKEQ_clean_linker_1, # of connection points: 2
# Relax obj value: 0.235
# Max RMSD: 0.169
# Mean RMSD: 0.169
data_MOF--net-fcg--node1-BEQFEK_clean_sbu_0--edge1-KIFKEQ_clean_linker_1
_symmetry_space_group_name_H-M    P1
_symmetry_Int_Tables_number       1
_symmetry_cell_setting            triclinic
loop_
_symmetry_equiv_pos_as_xyz
'x, y, z'
_cell_length_a     67.589636
_cell_length_b     67.574538
_cell_length_c     67.58255
_cell_angle_alpha  90.003112
_cell_angle_beta   90.002425
_cell_angle_gamma 90.00367
loop_
_atom_site_label
_atom_site_type_symbol
_atom_site_fract_x
_atom_site_fract_y
_atom_site_fract_z
_atom_type_partial_charge
Co0 Co 0.14893 0.30122 0.14723 0.0
Co1 Co 0.10462 0.31442 0.15331 0.0
C2 C 0.11614 0.27355 0.16132 0.0
O3 O 0.13366 0.27838 0.15659 0.0
O4 O 0.10208 0.286 0.16028 0.0
C5 C 0.17074 0.27535 0.12448 0.0
O6 O 0.15278 0.27298 0.11742 0.0
C7 C 0.06149 0.31828 0.14891 0.0
C8 C 0.0572 0.35055 0.15212 0.0
C9 C 0.04727 0.33311 0.1479 0.0
N10 N 0.07907 0.32667 0.15298 0.0
N11 N 0.07636 0.34592 0.15512 0.0
C12 C 0.05848 0.29639 0.14712 0.0
H13 H 0.06503 0.28895 0.16018 0.0
H14 H 0.06625 0.29086 0.13376 0.0
H15 H 0.04262 0.29231 0.14647 0.0
C16 C 0.14224 0.31996 0.10834 0.0
N17 N 0.13603 0.31468 0.12652 0.0
N18 N 0.117 0.31841 0.12816 0.0
C19 C 0.11033 0.3253 0.11061 0.0
C20 C 0.12615 0.32663 0.09759 0.0
C21 C 0.16301 0.31777 0.10099 0.0
H22 H 0.17358 0.3175 0.11353 0.0
H23 H 0.16429 0.30383 0.09241 0.0
H24 H 0.16693 0.33015 0.09096 0.0
O25 O 0.1522 0.31829 0.17068 0.0
O26 O 0.12057 0.32644 0.17533 0.0
H27 H 0.08695 0.33368 0.09036 0.0
H28 H 0.07962 0.31763 0.11053 0.0
C29 C 0.0892 0.33024 0.10625 0.0
H30 H 0.08477 0.3433 0.11512 0.0
H31 H 0.08769 0.35598 0.15809 0.0
O32 O 0.17362 0.28836 0.13783 0.0
C33 C 0.13869 0.32682 0.18078 0.0
Co34 Co 0.70612 0.14307 0.14895 0.0
Co35 Co 0.68514 0.102 0.15582 0.0
C36 C 0.72757 0.10761 0.16545 0.0
O37 O 0.72653 0.12536 0.15947 0.0
O38 O 0.71264 0.09619 0.16474 0.0
C39 C 0.73649 0.1614 0.12873 0.0
O40 O 0.73964 0.14257 0.12503 0.0
C41 C 0.67667 0.06053 0.14741 0.0
C42 C 0.64892 0.05522 0.16384 0.0
C43 C 0.66283 0.04606 0.15187 0.0
N44 N 0.67108 0.07752 0.15611 0.0
N45 N 0.65444 0.07429 0.16586 0.0
C46 C 0.6958 0.05792 0.13654 0.0
H47 H 0.70426 0.07197 0.1361 0.0
H48 H 0.69295 0.05305 0.12115 0.0
H49 H 0.70473 0.04624 0.14387 0.0
C50 C 0.68783 0.13832 0.10948 0.0
N51 N 0.69174 0.13157 0.12784 0.0
N52 N 0.6832 0.11424 0.13032 0.0
C53 C 0.6735 0.10945 0.11349 0.0
C54 C 0.6762 0.12448 0.09972 0.0
C55 C 0.69596 0.15725 0.10126 0.0
H56 H 0.69512 0.16908 0.11259 0.0
H57 H 0.71166 0.15495 0.09716 0.0
H58 H 0.6881 0.16222 0.08781 0.0
O59 O 0.68861 0.14914 0.17198 0.0
O60 O 0.67429 0.11975 0.17654 0.0
H61 H 0.65174 0.08913 0.12451 0.0
H62 H 0.6505 0.09333 0.09816 0.0
C63 C 0.66064 0.09161 0.11097 0.0
H64 H 0.67008 0.07847 0.10837 0.0
H65 H 0.64703 0.085 0.17415 0.0
O66 O 0.72159 0.1662 0.13925 0.0
C67 C 0.67707 0.13772 0.18172 0.0
Co68 Co 0.8546 0.70742 0.14797 0.0
Co69 Co 0.89683 0.68883 0.15417 0.0
C70 C 0.88966 0.73083 0.16331 0.0
O71 O 0.87179 0.72864 0.15798 0.0
O72 O 0.90192 0.7166 0.16239 0.0
C73 C 0.83567 0.73641 0.12672 0.0
O74 O 0.85439 0.73911 0.12222 0.0
C75 C 0.93882 0.6825 0.14733 0.0
C76 C 0.94366 0.65208 0.15827 0.0
C77 C 0.95331 0.66806 0.14969 0.0
N78 N 0.92161 0.67537 0.15423 0.0
N79 N 0.92457 0.65722 0.16083 0.0
C80 C 0.94062 0.70221 0.13737 0.0
H81 H 0.926 0.70714 0.13176 0.0
H82 H 0.95131 0.70149 0.12493 0.0
H83 H 0.94587 0.71331 0.14827 0.0
C84 C 0.85943 0.68882 0.10876 0.0
N85 N 0.8663 0.69324 0.12693 0.0
N86 N 0.88444 0.68641 0.12881 0.0
C87 C 0.88981 0.6778 0.11155 0.0
C88 C 0.87413 0.6791 0.09837 0.0
C89 C 0.83925 0.69408 0.1013 0.0
H90 H 0.83964 0.70921 0.09495 0.0
H91 H 0.83438 0.68379 0.08948 0.0
H92 H 0.82837 0.6937 0.11357 0.0
O93 O 0.84945 0.69007 0.17116 0.0
O94 O 0.87971 0.67763 0.17544 0.0
H95 H 0.90912 0.65966 0.09359 0.0
H96 H 0.9211 0.6791 0.10736 0.0
C97 C 0.90921 0.66783 0.10784 0.0
H98 H 0.91248 0.65735 0.12002 0.0
H99 H 0.91353 0.64828 0.16688 0.0
O100 O 0.83107 0.72215 0.13817 0.0
C101 C 0.86169 0.67942 0.18089 0.0
Co102 Co 0.29207 0.85677 0.15093 0.0
Co103 Co 0.31164 0.89865 0.15624 0.0
C104 C 0.26907 0.89243 0.16452 0.0
O105 O 0.27076 0.87447 0.15936 0.0
O106 O 0.28378 0.90413 0.16406 0.0
C107 C 0.2636 0.83593 0.13008 0.0
O108 O 0.26125 0.85393 0.1231 0.0
C109 C 0.31744 0.94034 0.14769 0.0
C110 C 0.34751 0.94637 0.15895 0.0
C111 C 0.33147 0.95526 0.14971 0.0
N112 N 0.32482 0.9236 0.15542 0.0
N113 N 0.34278 0.92726 0.1622 0.0
C114 C 0.29791 0.94129 0.13728 0.0
H115 H 0.29362 0.92641 0.13182 0.0
H116 H 0.29851 0.95181 0.12468 0.0
H117 H 0.28641 0.94633 0.14786 0.0
C118 C 0.31137 0.85997 0.1117 0.0
N119 N 0.30686 0.86738 0.12966 0.0
N120 N 0.31437 0.88527 0.13135 0.0
C121 C 0.32363 0.88993 0.11425 0.0
C122 C 0.32198 0.8741 0.10122 0.0
C123 C 0.30471 0.8401 0.10443 0.0
H124 H 0.304 0.82946 0.11688 0.0
H125 H 0.28982 0.84156 0.0977 0.0
H126 H 0.31467 0.834 0.09299 0.0
O127 O 0.30897 0.85253 0.1747 0.0
O128 O 0.32267 0.88235 0.17821 0.0
H129 H 0.34453 0.91194 0.12338 0.0
H130 H 0.34378 0.90791 0.09701 0.0
C131 C 0.3347 0.90878 0.11066 0.0
H132 H 0.32402 0.92113 0.10913 0.0
H133 H 0.35185 0.91671 0.1689 0.0
O134 O 0.27726 0.83275 0.14268 0.0
C135 C 0.32009 0.86458 0.18415 0.0
Co136 Co 0.14709 0.70218 0.85266 0.0
Co137 Co 0.10293 0.68836 0.84691 0.0
C138 C 0.11374 0.72931 0.83845 0.0
O139 O 0.13133 0.72465 0.84314 0.0
O140 O 0.09975 0.71676 0.83967 0.0
C141 C 0.16894 0.72822 0.87529 0.0
O142 O 0.15101 0.73074 0.88236 0.0
C143 C 0.05959 0.68209 0.84985 0.0
C144 C 0.05809 0.64944 0.85061 0.0
C145 C 0.04655 0.6663 0.85226 0.0
N146 N 0.07799 0.67481 0.84752 0.0
N147 N 0.0769 0.65528 0.8477 0.0
C148 C 0.05474 0.70368 0.8488 0.0
H149 H 0.06355 0.71078 0.83696 0.0
H150 H 0.05862 0.71082 0.86307 0.0
H151 H 0.03886 0.70616 0.84551 0.0
C152 C 0.14097 0.68355 0.8916 0.0
N153 N 0.13451 0.68875 0.8735 0.0
N154 N 0.11548 0.68497 0.87209 0.0
C155 C 0.10903 0.6782 0.88977 0.0
C156 C 0.12504 0.67691 0.90259 0.0
C157 C 0.16189 0.68567 0.8986 0.0
H158 H 0.16334 0.69959 0.90718 0.0
H159 H 0.16598 0.67327 0.90852 0.0
H160 H 0.17223 0.68595 0.88588 0.0
O161 O 0.15067 0.68494 0.82951 0.0
O162 O 0.11913 0.67651 0.82492 0.0
H163 H 0.08548 0.67206 0.91058 0.0
H164 H 0.07804 0.68467 0.88811 0.0
C165 C 0.08797 0.67322 0.8944 0.0
H166 H 0.08424 0.65879 0.88755 0.0
H167 H 0.08913 0.64594 0.84647 0.0
O168 O 0.17171 0.71524 0.86191 0.0
C169 C 0.13725 0.67622 0.81948 0.0
Co170 Co 0.28971 0.14398 0.85059 0.0
Co171 Co 0.31035 0.10249 0.84497 0.0
C172 C 0.26811 0.10835 0.83463 0.0
O173 O 0.26928 0.12622 0.84022 0.0
O174 O 0.28294 0.0968 0.83559 0.0
C175 C 0.25943 0.16316 0.87019 0.0
O176 O 0.25607 0.14448 0.87442 0.0
C177 C 0.31812 0.06091 0.85381 0.0
C178 C 0.34745 0.05594 0.84027 0.0
C179 C 0.33254 0.04663 0.85082 0.0
N180 N 0.32433 0.07796 0.84566 0.0
N181 N 0.3419 0.07492 0.83761 0.0
C182 C 0.29806 0.0581 0.86279 0.0
H183 H 0.29018 0.07243 0.86405 0.0
H184 H 0.2993 0.05146 0.87771 0.0
H185 H 0.28934 0.04779 0.85345 0.0
C186 C 0.30604 0.13928 0.89077 0.0
N187 N 0.30323 0.13262 0.87221 0.0
N188 N 0.31155 0.1151 0.87033 0.0
C189 C 0.31999 0.11016 0.88781 0.0
C190 C 0.31651 0.12524 0.90129 0.0
C191 C 0.29959 0.1591 0.89827 0.0
H192 H 0.28407 0.15811 0.90349 0.0
H193 H 0.3089 0.16389 0.91093 0.0
H194 H 0.30057 0.1703 0.88634 0.0
O195 O 0.30787 0.14934 0.82797 0.0
O196 O 0.32208 0.11979 0.82423 0.0
H197 H 0.34152 0.08839 0.87957 0.0
H198 H 0.33906 0.09194 0.90597 0.0
C199 C 0.33092 0.09132 0.89173 0.0
H200 H 0.32021 0.07894 0.89246 0.0
H201 H 0.35 0.08574 0.83015 0.0
O202 O 0.2744 0.16751 0.85958 0.0
C203 C 0.31962 0.13772 0.81875 0.0
Co204 Co 0.85591 0.29227 0.84884 0.0
Co205 Co 0.89607 0.31556 0.84327 0.0
C206 C 0.89165 0.27401 0.82947 0.0
O207 O 0.87405 0.27359 0.83597 0.0
O208 O 0.9024 0.28936 0.83122 0.0
C209 C 0.83655 0.25848 0.86342 0.0
O210 O 0.85477 0.25184 0.86251 0.0
C211 C 0.93802 0.32294 0.84827 0.0
C212 C 0.94069 0.35537 0.84509 0.0
C213 C 0.95155 0.33835 0.84872 0.0
N214 N 0.92003 0.33042 0.84443 0.0
N215 N 0.92169 0.34982 0.84244 0.0
C216 C 0.94162 0.30166 0.85328 0.0
H217 H 0.9282 0.29507 0.86005 0.0
H218 H 0.95427 0.30011 0.86363 0.0
H219 H 0.94504 0.29341 0.8395 0.0
C220 C 0.86201 0.30493 0.89003 0.0
N221 N 0.86779 0.30431 0.87098 0.0
N222 N 0.88472 0.31374 0.86908 0.0
C223 C 0.89019 0.32073 0.88703 0.0
C224 C 0.87602 0.3152 0.90083 0.0
C225 C 0.84298 0.29655 0.89764 0.0
H226 H 0.83084 0.2998 0.8871 0.0
H227 H 0.84447 0.28027 0.8991 0.0
H228 H 0.8391 0.30279 0.91233 0.0
O229 O 0.849 0.31189 0.82788 0.0
O230 O 0.87751 0.32811 0.82428 0.0
H231 H 0.90913 0.34547 0.88157 0.0
H232 H 0.90996 0.33647 0.90676 0.0
C233 C 0.90879 0.33205 0.89099 0.0
H234 H 0.92172 0.32275 0.88713 0.0
H235 H 0.90983 0.35928 0.83962 0.0
O236 O 0.83283 0.27613 0.85791 0.0
C237 C 0.8596 0.32493 0.81917 0.0
Co238 Co 0.70786 0.85453 0.85074 0.0
Co239 Co 0.68757 0.89621 0.8449 0.0
C240 C 0.72963 0.89011 0.83455 0.0
O241 O 0.72831 0.87225 0.84019 0.0
O242 O 0.71492 0.90179 0.83549 0.0
C243 C 0.73791 0.83599 0.87109 0.0
O244 O 0.74083 0.85479 0.87512 0.0
C245 C 0.68109 0.93855 0.84957 0.0
C246 C 0.64874 0.94168 0.84609 0.0
C247 C 0.66587 0.95229 0.84988 0.0
N248 N 0.67339 0.92065 0.84567 0.0
N249 N 0.65405 0.92261 0.84348 0.0
C250 C 0.70235 0.94195 0.85477 0.0
H251 H 0.70848 0.92876 0.86238 0.0
H252 H 0.70407 0.9551 0.86446 0.0
H253 H 0.71091 0.9444 0.84098 0.0
C254 C 0.69168 0.85979 0.89091 0.0
N255 N 0.69436 0.86614 0.87223 0.0
N256 N 0.68672 0.88396 0.87036 0.0
C257 C 0.67917 0.88957 0.88803 0.0
C258 C 0.6822 0.87444 0.90155 0.0
C259 C 0.69753 0.83983 0.89852 0.0
H260 H 0.6966 0.82864 0.88656 0.0
H261 H 0.71292 0.84049 0.90417 0.0
H262 H 0.68779 0.83526 0.91094 0.0
O263 O 0.68978 0.84898 0.82814 0.0
O264 O 0.67591 0.87869 0.82425 0.0
H265 H 0.65657 0.91103 0.88279 0.0
H266 H 0.66571 0.91078 0.90791 0.0
C267 C 0.66995 0.90926 0.89212 0.0
H268 H 0.68052 0.92117 0.88822 0.0
H269 H 0.64443 0.91087 0.84062 0.0
O270 O 0.72327 0.83123 0.86019 0.0
C271 C 0.67823 0.86072 0.81881 0.0
Co272 Co 0.15106 0.14681 0.29053 0.0
Co273 Co 0.15437 0.10414 0.30906 0.0
C274 C 0.16564 0.11102 0.26763 0.0
O275 O 0.16099 0.1291 0.26971 0.0
O276 O 0.16372 0.09873 0.28175 0.0
C277 C 0.13096 0.16759 0.26172 0.0
O278 O 0.12349 0.14974 0.25975 0.0
C279 C 0.1517 0.06124 0.3166 0.0
C280 C 0.14312 0.06057 0.34813 0.0
C281 C 0.14586 0.04856 0.33173 0.0
N282 N 0.15173 0.07989 0.32359 0.0
N283 N 0.14693 0.07932 0.34254 0.0
C284 C 0.15812 0.05581 0.2961 0.0
H285 H 0.17169 0.06416 0.29222 0.0
H286 H 0.14631 0.0599 0.28545 0.0
H287 H 0.16147 0.03981 0.2948 0.0
C288 C 0.11074 0.14358 0.30629 0.0
N289 N 0.12896 0.13612 0.30351 0.0
N290 N 0.12935 0.11756 0.30928 0.0
C291 C 0.1109 0.1123 0.31498 0.0
C292 C 0.09848 0.12867 0.31328 0.0
C293 C 0.10554 0.16497 0.30366 0.0
H294 H 0.11888 0.17436 0.30547 0.0
H295 H 0.0994 0.16737 0.28864 0.0
H296 H 0.09414 0.16951 0.31459 0.0
O297 O 0.17327 0.15091 0.3089 0.0
O298 O 0.17593 0.12052 0.32146 0.0
H299 H 0.10717 0.08921 0.33621 0.0
H300 H 0.08902 0.08907 0.31673 0.0
C301 C 0.10488 0.09163 0.32014 0.0
H302 H 0.11394 0.08082 0.31178 0.0
H303 H 0.14548 0.09184 0.35147 0.0
O304 O 0.14353 0.17077 0.2754 0.0
C305 C 0.18205 0.13838 0.31997 0.0
Co306 Co 0.85254 0.14778 0.29313 0.0
Co307 Co 0.89399 0.15436 0.31346 0.0
C308 C 0.88805 0.16259 0.27075 0.0
O309 O 0.87015 0.15722 0.27216 0.0
O310 O 0.89953 0.16208 0.28561 0.0
C311 C 0.83366 0.12745 0.26319 0.0
O312 O 0.8524 0.12323 0.26021 0.0
C313 C 0.93542 0.14562 0.31851 0.0
C314 C 0.94357 0.16081 0.34625 0.0
C315 C 0.95141 0.1496 0.33089 0.0
N316 N 0.9192 0.15421 0.3261 0.0
N317 N 0.92409 0.16325 0.34271 0.0
C318 C 0.93488 0.13315 0.3002 0.0
H319 H 0.91967 0.12761 0.29748 0.0
H320 H 0.94518 0.12043 0.30151 0.0
H321 H 0.9392 0.14231 0.28728 0.0
C322 C 0.85697 0.10853 0.31214 0.0
N323 N 0.86383 0.12678 0.30791 0.0
N324 N 0.88121 0.12925 0.31633 0.0
C325 C 0.88592 0.11255 0.32629 0.0
C326 C 0.87079 0.09884 0.32388 0.0
C327 C 0.83808 0.10026 0.30394 0.0
H328 H 0.82627 0.11162 0.3046 0.0
H329 H 0.84048 0.09606 0.28828 0.0
H330 H 0.833 0.08688 0.31182 0.0
O331 O 0.84741 0.17148 0.31019 0.0
O332 O 0.87703 0.17587 0.32415 0.0
H333 H 0.90684 0.12393 0.3473 0.0
H334 H 0.9021 0.09772 0.34957 0.0
C335 C 0.90393 0.11012 0.33895 0.0
H336 H 0.91688 0.10693 0.32941 0.0
H337 H 0.91422 0.17126 0.35147 0.0
O338 O 0.82904 0.13823 0.27798 0.0
C339 C 0.85913 0.1813 0.32138 0.0
Co340 Co 0.85035 0.85652 0.29084 0.0
Co341 Co 0.84399 0.8978 0.3121 0.0
C342 C 0.83405 0.89243 0.26978 0.0
O343 O 0.83976 0.87458 0.27079 0.0
O344 O 0.8349 0.90383 0.28473 0.0
C345 C 0.86984 0.83832 0.25978 0.0
O346 O 0.87354 0.85715 0.2566 0.0
C347 C 0.84779 0.94032 0.32105 0.0
C348 C 0.84649 0.94061 0.35371 0.0
C349 C 0.84961 0.95269 0.33743 0.0
N350 N 0.84448 0.92175 0.32744 0.0
N351 N 0.84338 0.92211 0.34697 0.0
C352 C 0.84792 0.94602 0.29963 0.0
H353 H 0.8349 0.93944 0.29217 0.0
H354 H 0.86146 0.94009 0.29248 0.0
H355 H 0.84706 0.96224 0.29749 0.0
C356 C 0.89009 0.86118 0.3083 0.0
N357 N 0.87164 0.8679 0.3049 0.0
N358 N 0.86955 0.8855 0.31298 0.0
C359 C 0.88689 0.8907 0.32148 0.0
C360 C 0.90043 0.87542 0.31889 0.0
C361 C 0.89787 0.84192 0.30051 0.0
H362 H 0.88631 0.83034 0.30163 0.0
H363 H 0.90193 0.84383 0.28474 0.0
H364 H 0.91125 0.83686 0.30843 0.0
O365 O 0.82769 0.8504 0.30864 0.0
O366 O 0.82334 0.87978 0.32304 0.0
H367 H 0.88059 0.90956 0.34598 0.0
H368 H 0.90572 0.91116 0.33759 0.0
C369 C 0.89017 0.90952 0.33268 0.0
H370 H 0.88603 0.9223 0.32327 0.0
H371 H 0.84112 0.90959 0.35573 0.0
O372 O 0.85974 0.83349 0.27496 0.0
C373 C 0.81812 0.8618 0.32032 0.0
Co374 Co 0.14345 0.85129 0.2904 0.0
Co375 Co 0.10178 0.84548 0.31094 0.0
C376 C 0.10812 0.8337 0.26928 0.0
O377 O 0.12589 0.83964 0.27036 0.0
O378 O 0.09642 0.8352 0.28393 0.0
C379 C 0.16157 0.87082 0.25955 0.0
O380 O 0.1427 0.8743 0.2564 0.0
C381 C 0.05906 0.84868 0.31873 0.0
C382 C 0.05815 0.85075 0.35133 0.0
C383 C 0.04635 0.85194 0.33459 0.0
N384 N 0.07755 0.84644 0.32576 0.0
N385 N 0.07683 0.8473 0.34528 0.0
C386 C 0.05379 0.84652 0.29731 0.0
H387 H 0.06078 0.83296 0.29132 0.0
H388 H 0.05956 0.85941 0.28893 0.0
H389 H 0.03762 0.84509 0.295 0.0
C390 C 0.13836 0.89147 0.30668 0.0
N391 N 0.1317 0.87294 0.30354 0.0
N392 N 0.11378 0.87117 0.31095 0.0
C393 C 0.10823 0.88885 0.31849 0.0
C394 C 0.12369 0.90222 0.31616 0.0
C395 C 0.15814 0.89889 0.29996 0.0
H396 H 0.16936 0.88699 0.30121 0.0
H397 H 0.15705 0.90357 0.28428 0.0
H398 H 0.16317 0.91185 0.30862 0.0
O399 O 0.14944 0.82937 0.30908 0.0
O400 O 0.11977 0.82543 0.32302 0.0
H401 H 0.0886 0.88484 0.34285 0.0
H402 H 0.08651 0.90868 0.33136 0.0
C403 C 0.08886 0.8927 0.32847 0.0
H404 H 0.07662 0.887 0.31917 0.0
H405 H 0.08922 0.84629 0.35444 0.0
O406 O 0.16652 0.86063 0.27463 0.0
C407 C 0.13782 0.82019 0.32087 0.0
Co408 Co 0.15014 0.85687 0.71002 0.0
Co409 Co 0.15539 0.89789 0.68841 0.0
C410 C 0.1662 0.89293 0.73062 0.0
O411 O 0.16007 0.87519 0.73033 0.0
O412 O 0.16553 0.90381 0.7153 0.0
C413 C 0.12954 0.83656 0.73941 0.0
O414 O 0.12222 0.85445 0.74147 0.0
C415 C 0.1485 0.93989 0.68076 0.0
C416 C 0.15401 0.94249 0.64863 0.0
C417 C 0.14803 0.95318 0.66508 0.0
N418 N 0.15404 0.92211 0.67379 0.0
N419 N 0.15747 0.92378 0.65461 0.0
C420 C 0.14504 0.94398 0.70228 0.0
H421 H 0.1588 0.94074 0.71059 0.0
H422 H 0.13335 0.93394 0.70797 0.0
H423 H 0.14101 0.95957 0.70522 0.0
C424 C 0.1102 0.86031 0.69242 0.0
N425 N 0.12847 0.86746 0.69597 0.0
N426 N 0.13 0.88529 0.68826 0.0
C427 C 0.11238 0.89028 0.68021 0.0
C428 C 0.09938 0.87459 0.68257 0.0
C429 C 0.10315 0.84014 0.69827 0.0
H430 H 0.09616 0.84095 0.71309 0.0
H431 H 0.09186 0.83458 0.68774 0.0
H432 H 0.1157 0.82959 0.69874 0.0
O433 O 0.17288 0.85152 0.69215 0.0
O434 O 0.17606 0.88044 0.67659 0.0
H435 H 0.11838 0.91114 0.65721 0.0
H436 H 0.09268 0.91 0.6644 0.0
C437 C 0.10814 0.9094 0.6699 0.0
H438 H 0.11064 0.92186 0.68027 0.0
H439 H 0.16186 0.91207 0.64555 0.0
O440 O 0.14209 0.83335 0.72571 0.0
C441 C 0.18184 0.86272 0.67983 0.0
Co442 Co 0.14258 0.14845 0.70838 0.0
Co443 Co 0.10188 0.15523 0.68664 0.0
C444 C 0.10701 0.1659 0.72891 0.0
O445 O 0.12471 0.15968 0.72827 0.0
O446 O 0.09579 0.16504 0.71382 0.0
C447 C 0.16063 0.12849 0.73921 0.0
O448 O 0.14178 0.12499 0.74247 0.0
C449 C 0.06035 0.14769 0.67747 0.0
C450 C 0.05681 0.16134 0.64797 0.0
C451 C 0.04669 0.15107 0.66255 0.0
N452 N 0.07782 0.15534 0.67187 0.0
N453 N 0.07564 0.16346 0.6542 0.0
C454 C 0.05657 0.1388 0.69741 0.0
H455 H 0.07058 0.13709 0.70578 0.0
H456 H 0.04945 0.12412 0.69593 0.0
H457 H 0.04629 0.14848 0.7058 0.0
C458 C 0.13698 0.10827 0.69222 0.0
N459 N 0.13086 0.12706 0.69476 0.0
N460 N 0.11366 0.12945 0.68592 0.0
C461 C 0.10841 0.1121 0.67739 0.0
C462 C 0.12293 0.09816 0.68137 0.0
C463 C 0.15637 0.10017 0.69924 0.0
H464 H 0.16799 0.1117 0.6984 0.0
H465 H 0.15482 0.09519 0.7148 0.0
H466 H 0.16095 0.08723 0.69021 0.0
O467 O 0.14923 0.17075 0.69023 0.0
O468 O 0.12014 0.17533 0.67537 0.0
H469 H 0.08767 0.12102 0.65512 0.0
H470 H 0.09035 0.09452 0.65765 0.0
C471 C 0.08987 0.10876 0.6658 0.0
H472 H 0.0771 0.10839 0.67606 0.0
H473 H 0.08695 0.17058 0.64648 0.0
O474 O 0.16547 0.13882 0.72419 0.0
C475 C 0.13815 0.18029 0.67822 0.0
Co476 Co 0.85242 0.14946 0.70318 0.0
Co477 Co 0.84555 0.10562 0.68886 0.0
C478 C 0.83742 0.11633 0.73001 0.0
O479 O 0.84245 0.13388 0.72558 0.0
O480 O 0.83835 0.1025 0.71727 0.0
C481 C 0.87507 0.16952 0.73007 0.0
O482 O 0.87974 0.15088 0.73307 0.0
C483 C 0.85045 0.06281 0.68443 0.0
C484 C 0.84345 0.05809 0.65285 0.0
C485 C 0.84953 0.04835 0.66985 0.0
N486 N 0.84514 0.08022 0.67643 0.0
N487 N 0.84082 0.07728 0.65758 0.0
C488 C 0.85806 0.06063 0.70512 0.0
H489 H 0.8647 0.07474 0.71027 0.0
H490 H 0.86925 0.04865 0.70603 0.0
H491 H 0.84554 0.05691 0.71507 0.0
C492 C 0.89099 0.14269 0.68409 0.0
N493 N 0.87289 0.13641 0.68953 0.0
N494 N 0.8709 0.1176 0.68492 0.0
C495 C 0.88811 0.11116 0.67699 0.0
C496 C 0.90129 0.12689 0.67617 0.0
C497 C 0.89856 0.1633 0.68708 0.0
H498 H 0.90608 0.16421 0.70164 0.0
H499 H 0.90949 0.16733 0.67554 0.0
H500 H 0.88619 0.17405 0.68671 0.0
O501 O 0.82916 0.15367 0.68598 0.0
O502 O 0.82393 0.1223 0.67714 0.0
H503 H 0.88109 0.08666 0.65828 0.0
H504 H 0.90706 0.0888 0.66405 0.0
C505 C 0.89186 0.09049 0.67002 0.0
H506 H 0.88979 0.08007 0.6825 0.0
H507 H 0.83657 0.08847 0.64783 0.0
O508 O 0.86287 0.17366 0.7163 0.0
C509 C 0.81885 0.14054 0.6771 0.0
Co510 Co 0.85671 0.85211 0.70911 0.0
Co511 Co 0.898 0.8457 0.68844 0.0
C512 C 0.89199 0.83501 0.7305 0.0
O513 O 0.87424 0.84098 0.72933 0.0
O514 O 0.90363 0.83596 0.71575 0.0
C515 C 0.83812 0.87175 0.73972 0.0
O516 O 0.8569 0.87539 0.7432 0.0
C517 C 0.93978 0.8532 0.68042 0.0
C518 C 0.9442 0.83931 0.65116 0.0
C519 C 0.95392 0.84955 0.66603 0.0
N520 N 0.92243 0.8457 0.67426 0.0
N521 N 0.92514 0.83746 0.65673 0.0
C522 C 0.94298 0.86208 0.70046 0.0
H523 H 0.92866 0.86468 0.70803 0.0
H524 H 0.95108 0.87628 0.69927 0.0
H525 H 0.95215 0.85186 0.70948 0.0
C526 C 0.86248 0.89244 0.69353 0.0
N527 N 0.8686 0.87363 0.69589 0.0
N528 N 0.88613 0.87148 0.68765 0.0
C529 C 0.89164 0.88908 0.6798 0.0
C530 C 0.8769 0.90286 0.68352 0.0
C531 C 0.84293 0.9004 0.70023 0.0
H532 H 0.83136 0.88884 0.69904 0.0
H533 H 0.84415 0.90528 0.71584 0.0
H534 H 0.8385 0.9134 0.6912 0.0
O535 O 0.85059 0.82989 0.69076 0.0
O536 O 0.88008 0.82543 0.67669 0.0
H537 H 0.91349 0.88075 0.65838 0.0
H538 H 0.91022 0.90719 0.66111 0.0
C539 C 0.91063 0.89284 0.66909 0.0
H540 H 0.92292 0.89328 0.67992 0.0
H541 H 0.91405 0.83033 0.64869 0.0
O542 O 0.83351 0.8615 0.72458 0.0
C543 C 0.86201 0.8204 0.67904 0.0
Co544 Co 0.29451 0.15093 0.14496 0.0
Co545 Co 0.31185 0.15749 0.10214 0.0
C546 C 0.27115 0.16943 0.11111 0.0
O547 O 0.274 0.16353 0.1287 0.0
O548 O 0.28448 0.16747 0.09797 0.0
C549 C 0.26453 0.13048 0.16293 0.0
O550 O 0.26165 0.12717 0.14398 0.0
C551 C 0.31808 0.15271 0.05956 0.0
C552 C 0.35042 0.15657 0.05663 0.0
C553 C 0.33353 0.15185 0.04602 0.0
N554 N 0.3256 0.15718 0.07742 0.0
N555 N 0.3449 0.15971 0.07554 0.0
C556 C 0.29638 0.15031 0.05569 0.0
H557 H 0.28852 0.16378 0.06074 0.0
H558 H 0.29061 0.13764 0.06439 0.0
H559 H 0.29304 0.14821 0.03979 0.0
C560 C 0.31033 0.11095 0.13807 0.0
N561 N 0.30682 0.12959 0.13198 0.0
N562 N 0.31278 0.1316 0.11356 0.0
C563 C 0.31971 0.11394 0.10716 0.0
C564 C 0.31842 0.1004 0.12254 0.0
C565 C 0.30576 0.10322 0.15832 0.0
H566 H 0.30712 0.11521 0.16944 0.0
H567 H 0.29042 0.09742 0.15852 0.0
H568 H 0.31584 0.09092 0.16237 0.0
O569 O 0.31354 0.17244 0.15068 0.0
O570 O 0.32455 0.17749 0.11997 0.0
H571 H 0.34092 0.11961 0.08442 0.0
H572 H 0.3322 0.09437 0.08509 0.0
C573 C 0.3278 0.11009 0.08694 0.0
H574 H 0.31648 0.11386 0.0757 0.0
H575 H 0.35438 0.16305 0.08726 0.0
O576 O 0.27935 0.14092 0.16814 0.0
C577 C 0.324 0.18219 0.1383 0.0
Co578 Co 0.29471 0.85072 0.85595 0.0
Co579 Co 0.31174 0.84468 0.89912 0.0
C580 C 0.27151 0.83182 0.88987 0.0
O581 O 0.27465 0.83747 0.87224 0.0
O582 O 0.28446 0.83433 0.9033 0.0
C583 C 0.26309 0.86796 0.83674 0.0
O584 O 0.25764 0.86906 0.85535 0.0
C585 C 0.31905 0.84714 0.94215 0.0
C586 C 0.35157 0.85037 0.94304 0.0
C587 C 0.33485 0.85065 0.95491 0.0
N588 N 0.32612 0.84556 0.9236 0.0
N589 N 0.34559 0.84716 0.92431 0.0
C590 C 0.2977 0.84441 0.94738 0.0
H591 H 0.29161 0.83162 0.93916 0.0
H592 H 0.28928 0.85781 0.94302 0.0
H593 H 0.29566 0.84151 0.9634 0.0
C594 C 0.30911 0.89101 0.86291 0.0
N595 N 0.30613 0.87232 0.86906 0.0
N596 N 0.31196 0.87055 0.88755 0.0
C597 C 0.31825 0.88845 0.89394 0.0
C598 C 0.31678 0.90185 0.87845 0.0
C599 C 0.30427 0.89842 0.84261 0.0
H600 H 0.28827 0.90201 0.84192 0.0
H601 H 0.3127 0.91202 0.83898 0.0
H602 H 0.30752 0.88683 0.83146 0.0
O603 O 0.31436 0.82988 0.85035 0.0
O604 O 0.32467 0.82474 0.88127 0.0
H605 H 0.34087 0.88639 0.91584 0.0
H606 H 0.32656 0.90882 0.91717 0.0
C607 C 0.3258 0.89266 0.9143 0.0
H608 H 0.31604 0.88559 0.92542 0.0
H609 H 0.35475 0.84682 0.91188 0.0
O610 O 0.27979 0.86037 0.83241 0.0
C611 C 0.32459 0.82014 0.86291 0.0
Co612 Co 0.14728 0.29352 0.85355 0.0
Co613 Co 0.15357 0.3138 0.89507 0.0
C614 C 0.16407 0.27173 0.88874 0.0
O615 O 0.15819 0.27304 0.87096 0.0
O616 O 0.16311 0.28642 0.90046 0.0
C617 C 0.127 0.26341 0.83494 0.0
O618 O 0.12307 0.26034 0.85373 0.0
C619 C 0.14725 0.32045 0.93707 0.0
C620 C 0.15668 0.35146 0.94125 0.0
C621 C 0.14913 0.33521 0.95129 0.0
N622 N 0.15344 0.32765 0.91962 0.0
N623 N 0.15915 0.34617 0.92219 0.0
C624 C 0.13831 0.3003 0.93936 0.0
H625 H 0.13256 0.29493 0.92494 0.0
H626 H 0.12613 0.30055 0.95037 0.0
H627 H 0.14986 0.28981 0.94444 0.0
C628 C 0.10717 0.30974 0.85918 0.0
N629 N 0.12585 0.3069 0.86547 0.0
N630 N 0.12797 0.31491 0.8831 0.0
C631 C 0.11052 0.32307 0.88856 0.0
C632 C 0.09682 0.31982 0.87363 0.0
C633 C 0.0994 0.30373 0.83933 0.0
H634 H 0.11125 0.30468 0.82803 0.0
H635 H 0.0939 0.28829 0.84012 0.0
H636 H 0.08687 0.31334 0.8348 0.0
O637 O 0.16968 0.31182 0.84777 0.0
O638 O 0.17381 0.32574 0.87741 0.0
H639 H 0.1185 0.3448 0.91019 0.0
H640 H 0.09215 0.34073 0.90796 0.0
C641 C 0.10687 0.33349 0.90774 0.0
H642 H 0.10754 0.32264 0.92001 0.0
H643 H 0.16452 0.35524 0.91092 0.0
O644 O 0.13774 0.27818 0.83023 0.0
C645 C 0.179 0.32352 0.85937 0.0
Co646 Co 0.70883 0.14978 0.85824 0.0
Co647 Co 0.68663 0.15423 0.89916 0.0
C648 C 0.72861 0.16628 0.89454 0.0
O649 O 0.72847 0.16044 0.8767 0.0
O650 O 0.71332 0.16505 0.90544 0.0
C651 C 0.7393 0.13056 0.83824 0.0
O652 O 0.74178 0.12364 0.85624 0.0
C653 C 0.67771 0.14983 0.94161 0.0
C654 C 0.64515 0.14708 0.9415 0.0
C655 C 0.66153 0.14616 0.9538 0.0
N656 N 0.67121 0.15217 0.92294 0.0
N657 N 0.6517 0.1508 0.92304 0.0
C658 C 0.69894 0.15216 0.94755 0.0
H659 H 0.70488 0.16602 0.94114 0.0
H660 H 0.70768 0.13961 0.94157 0.0
H661 H 0.70079 0.15305 0.96381 0.0
C662 C 0.69384 0.10898 0.86199 0.0
N663 N 0.69579 0.12758 0.86886 0.0
N664 N 0.68759 0.12883 0.88648 0.0
C665 C 0.6806 0.11076 0.89154 0.0
C666 C 0.68443 0.09768 0.87618 0.0
C667 C 0.69981 0.10224 0.84175 0.0
H668 H 0.69928 0.11473 0.83114 0.0
H669 H 0.71504 0.09618 0.84231 0.0
H670 H 0.68986 0.09026 0.83649 0.0
O671 O 0.69014 0.17171 0.85267 0.0
O672 O 0.67445 0.17461 0.88154 0.0
H673 H 0.65624 0.11226 0.91155 0.0
H674 H 0.67017 0.08958 0.91316 0.0
C675 C 0.67131 0.10582 0.911 0.0
H676 H 0.68019 0.11228 0.92318 0.0
H677 H 0.6429 0.15177 0.91039 0.0
O678 O 0.72497 0.14233 0.83486 0.0
C679 C 0.67754 0.18037 0.86379 0.0
Co680 Co 0.85056 0.70891 0.85674 0.0
Co681 Co 0.84415 0.68717 0.89756 0.0
C682 C 0.83435 0.7297 0.89271 0.0
O683 O 0.8402 0.72896 0.8749 0.0
O684 O 0.83508 0.71456 0.90387 0.0
C685 C 0.87016 0.73981 0.83825 0.0
O686 O 0.8738 0.74326 0.85704 0.0
C687 C 0.8527 0.67791 0.93895 0.0
C688 C 0.83662 0.64983 0.94356 0.0
C689 C 0.84838 0.66368 0.95308 0.0
N690 N 0.84412 0.67261 0.9218 0.0
N691 N 0.83459 0.65576 0.92463 0.0
C692 C 0.86329 0.69712 0.94205 0.0
H693 H 0.86377 0.70585 0.92816 0.0
H694 H 0.87866 0.69436 0.94704 0.0
H695 H 0.85572 0.70573 0.95381 0.0
C696 C 0.89021 0.69104 0.86096 0.0
N697 N 0.87184 0.69454 0.86787 0.0
N698 N 0.8696 0.68573 0.8851 0.0
C699 C 0.88664 0.6763 0.88967 0.0
C700 C 0.90026 0.67943 0.87459 0.0
C701 C 0.89819 0.69959 0.84212 0.0
H702 H 0.88686 0.69863 0.8303 0.0
H703 H 0.90193 0.71536 0.84461 0.0
H704 H 0.9118 0.69211 0.83701 0.0
O705 O 0.82765 0.69131 0.85061 0.0
O706 O 0.82338 0.67638 0.87973 0.0
H707 H 0.87625 0.65414 0.90989 0.0
H708 H 0.90261 0.65359 0.90558 0.0
C709 C 0.88956 0.66338 0.90742 0.0
H710 H 0.89196 0.67281 0.92061 0.0
H711 H 0.82642 0.64848 0.91373 0.0
O712 O 0.85993 0.72466 0.83363 0.0
C713 C 0.8181 0.67944 0.86184 0.0
Co714 Co 0.70817 0.85113 0.14453 0.0
Co715 Co 0.68763 0.84496 0.10311 0.0
C716 C 0.72962 0.83434 0.109 0.0
O717 O 0.72855 0.84031 0.12677 0.0
O718 O 0.7148 0.83528 0.09745 0.0
C719 C 0.73817 0.87176 0.16286 0.0
O720 O 0.74109 0.87571 0.14405 0.0
C721 C 0.68084 0.84979 0.06091 0.0
C722 C 0.64865 0.84507 0.05777 0.0
C723 C 0.66561 0.8496 0.04718 0.0
N724 N 0.67331 0.84547 0.07878 0.0
N725 N 0.65407 0.84254 0.07682 0.0
C726 C 0.7019 0.8558 0.05759 0.0
H727 H 0.70791 0.86307 0.07103 0.0
H728 H 0.70318 0.86605 0.04482 0.0
H729 H 0.71088 0.8424 0.05452 0.0
C730 C 0.69069 0.89084 0.13971 0.0
N731 N 0.69436 0.87245 0.13298 0.0
N732 N 0.68696 0.87054 0.11508 0.0
C733 C 0.67886 0.888 0.10962 0.0
C734 C 0.68094 0.90132 0.1251 0.0
C735 C 0.6965 0.89835 0.15972 0.0
H736 H 0.69582 0.88624 0.17076 0.0
H737 H 0.71184 0.90412 0.15904 0.0
H738 H 0.68674 0.91062 0.16457 0.0
O739 O 0.6902 0.8286 0.15044 0.0
O740 O 0.67598 0.82453 0.12093 0.0
H741 H 0.65586 0.8817 0.08889 0.0
H742 H 0.66356 0.90728 0.08912 0.0
C743 C 0.66875 0.89175 0.09031 0.0
H744 H 0.67911 0.88857 0.07801 0.0
H745 H 0.64458 0.83919 0.08854 0.0
O746 O 0.72359 0.86081 0.16767 0.0
C747 C 0.67849 0.81922 0.13891 0.0
Co748 Co 0.14877 0.70407 0.14758 0.0
Co749 Co 0.15554 0.68787 0.10441 0.0
C750 C 0.16484 0.72912 0.11363 0.0
O751 O 0.15955 0.7255 0.13127 0.0
O752 O 0.16366 0.71591 0.10027 0.0
C753 C 0.12706 0.73276 0.16613 0.0
O754 O 0.12292 0.73524 0.1473 0.0
C755 C 0.14886 0.6811 0.06216 0.0
C756 C 0.16135 0.6512 0.05774 0.0
C757 C 0.15184 0.66653 0.04801 0.0
N758 N 0.15602 0.67455 0.07952 0.0
N759 N 0.16348 0.65668 0.07679 0.0
C760 C 0.14078 0.70151 0.05909 0.0
H761 H 0.13679 0.70835 0.07346 0.0
H762 H 0.1276 0.70129 0.04938 0.0
H763 H 0.15223 0.71074 0.05178 0.0
C764 C 0.10963 0.68606 0.14119 0.0
N765 N 0.12797 0.69057 0.13487 0.0
N766 N 0.12997 0.685 0.11631 0.0
C767 C 0.11258 0.67726 0.11012 0.0
C768 C 0.09923 0.67769 0.1257 0.0
C769 C 0.10191 0.69036 0.16151 0.0
H770 H 0.09514 0.70531 0.16164 0.0
H771 H 0.09034 0.67958 0.16584 0.0
H772 H 0.1141 0.68985 0.17247 0.0
O773 O 0.17153 0.68637 0.15267 0.0
O774 O 0.17658 0.67613 0.1217 0.0
H775 H 0.09406 0.66194 0.08897 0.0
H776 H 0.10917 0.68154 0.07901 0.0
C777 C 0.10874 0.66925 0.08985 0.0
H778 H 0.12036 0.65838 0.08591 0.0
H779 H 0.17001 0.64822 0.08793 0.0
O780 O 0.13847 0.71858 0.17108 0.0
C781 C 0.18158 0.67663 0.13994 0.0
Co782 Co 0.85132 0.28824 0.14371 0.0
Co783 Co 0.84521 0.30928 0.10252 0.0
C784 C 0.83377 0.26737 0.10836 0.0
O785 O 0.8399 0.26823 0.12608 0.0
O786 O 0.83485 0.28225 0.0969 0.0
C787 C 0.87071 0.25739 0.16215 0.0
O788 O 0.87435 0.25402 0.14335 0.0
C789 C 0.85019 0.31584 0.0603 0.0
C790 C 0.84587 0.34807 0.05701 0.0
C791 C 0.85024 0.33101 0.04649 0.0
N792 N 0.84589 0.3235 0.07812 0.0
N793 N 0.84319 0.34277 0.07607 0.0
C794 C 0.85604 0.2947 0.05713 0.0
H795 H 0.86294 0.28862 0.07073 0.0
H796 H 0.86656 0.29331 0.04459 0.0
H797 H 0.84262 0.28586 0.05376 0.0
C798 C 0.89181 0.30342 0.13798 0.0
N799 N 0.87299 0.30119 0.13187 0.0
N800 N 0.87092 0.30938 0.11432 0.0
C801 C 0.88856 0.31697 0.10868 0.0
C802 C 0.90233 0.31326 0.12346 0.0
C803 C 0.89952 0.29716 0.15778 0.0
H804 H 0.88776 0.29843 0.16915 0.0
H805 H 0.90453 0.28155 0.15694 0.0
H806 H 0.91235 0.30638 0.16226 0.0
O807 O 0.82935 0.30687 0.14984 0.0
O808 O 0.82523 0.32138 0.12049 0.0
H809 H 0.88261 0.34018 0.08806 0.0
H810 H 0.90799 0.33175 0.0879 0.0
C811 C 0.89233 0.32704 0.08934 0.0
H812 H 0.88873 0.31678 0.07708 0.0
H813 H 0.83992 0.35235 0.08773 0.0
O814 O 0.86056 0.27257 0.16685 0.0
C815 C 0.8201 0.31888 0.13851 0.0
Co816 Co 0.6412 0.79043 0.64978 0.0
Co817 Co 0.60042 0.81233 0.65559 0.0
C818 C 0.60518 0.77038 0.6672 0.0
O819 O 0.62296 0.77088 0.66117 0.0
O820 O 0.59397 0.78547 0.66599 0.0
C821 C 0.65935 0.75927 0.63043 0.0
O822 O 0.64053 0.75581 0.62698 0.0
C823 C 0.55822 0.82122 0.65211 0.0
C824 C 0.55777 0.85392 0.65178 0.0
C825 C 0.54576 0.83739 0.65026 0.0
N826 N 0.57679 0.82783 0.65464 0.0
N827 N 0.57641 0.8474 0.65464 0.0
C828 C 0.55294 0.79987 0.64951 0.0
H829 H 0.56473 0.79219 0.64104 0.0
H830 H 0.5386 0.79813 0.6417 0.0
H831 H 0.55183 0.7928 0.66428 0.0
C832 C 0.636 0.80555 0.60919 0.0
N833 N 0.62979 0.80361 0.62802 0.0
N834 N 0.61228 0.81191 0.62989 0.0
C835 C 0.60672 0.81915 0.61207 0.0
C836 C 0.62157 0.81525 0.59846 0.0
C837 C 0.65568 0.79885 0.60155 0.0
H838 H 0.66707 0.80002 0.61328 0.0
H839 H 0.65453 0.78323 0.59664 0.0
H840 H 0.6603 0.80787 0.58862 0.0
O841 O 0.64773 0.8089 0.67172 0.0
O842 O 0.61863 0.8239 0.67571 0.0
H843 H 0.58679 0.84339 0.61567 0.0
H844 H 0.58518 0.83147 0.59183 0.0
C845 C 0.58732 0.82894 0.60792 0.0
H846 H 0.57511 0.81959 0.6136 0.0
H847 H 0.58896 0.85629 0.65597 0.0
O848 O 0.66409 0.77443 0.64058 0.0
C849 C 0.63657 0.82107 0.68095 0.0
Co850 Co 0.20678 0.64439 0.64986 0.0
Co851 Co 0.18654 0.60279 0.65612 0.0
C852 C 0.22817 0.60963 0.66806 0.0
O853 O 0.22697 0.62726 0.66171 0.0
O854 O 0.21357 0.59781 0.66695 0.0
C855 C 0.23732 0.66276 0.63015 0.0
O856 O 0.24054 0.64391 0.62664 0.0
C857 C 0.18052 0.56035 0.65195 0.0
C858 C 0.14817 0.55697 0.65516 0.0
C859 C 0.16542 0.54646 0.65168 0.0
N860 N 0.17261 0.57822 0.65552 0.0
N861 N 0.15327 0.57612 0.65755 0.0
C862 C 0.20187 0.55713 0.647 0.0
H863 H 0.20808 0.57048 0.63974 0.0
H864 H 0.20374 0.54416 0.6371 0.0
H865 H 0.21023 0.55443 0.66087 0.0
C866 C 0.19202 0.63801 0.60933 0.0
N867 N 0.19428 0.63206 0.6282 0.0
N868 N 0.18658 0.61429 0.63029 0.0
C869 C 0.17935 0.60833 0.61259 0.0
C870 C 0.18273 0.62316 0.59881 0.0
C871 C 0.19779 0.65793 0.60153 0.0
H872 H 0.19637 0.66931 0.61325 0.0
H873 H 0.21335 0.6574 0.59635 0.0
H874 H 0.18836 0.66215 0.58875 0.0
O875 O 0.18771 0.65035 0.6715 0.0
O876 O 0.1737 0.62074 0.6756 0.0
H877 H 0.15638 0.58734 0.61809 0.0
H878 H 0.16565 0.58699 0.59301 0.0
C879 C 0.16982 0.58873 0.6088 0.0
H880 H 0.18019 0.57673 0.61296 0.0
H881 H 0.14352 0.58781 0.66017 0.0
O882 O 0.22227 0.66763 0.64042 0.0
C883 C 0.17572 0.63887 0.68059 0.0
Co884 Co 0.35389 0.20606 0.64923 0.0
Co885 Co 0.39693 0.18905 0.65562 0.0
C886 C 0.38796 0.22995 0.66674 0.0
O887 O 0.37029 0.22688 0.66116 0.0
O888 O 0.40114 0.21664 0.66491 0.0
C889 C 0.3357 0.23528 0.62796 0.0
O890 O 0.3546 0.23799 0.62428 0.0
C891 C 0.43991 0.18228 0.6527 0.0
C892 C 0.44143 0.14966 0.65114 0.0
C893 C 0.45292 0.16659 0.64975 0.0
N894 N 0.42155 0.17494 0.65503 0.0
N895 N 0.42263 0.15542 0.65441 0.0
C896 C 0.44476 0.20385 0.65419 0.0
H897 H 0.43721 0.21026 0.66724 0.0
H898 H 0.43929 0.2116 0.64079 0.0
H899 H 0.46085 0.20644 0.65598 0.0
C900 C 0.36029 0.18928 0.60964 0.0
N901 N 0.36662 0.19329 0.62809 0.0
N902 N 0.38521 0.18783 0.62989 0.0
C903 C 0.39155 0.18097 0.61219 0.0
C904 C 0.37588 0.18152 0.59893 0.0
C905 C 0.33977 0.19316 0.60225 0.0
H906 H 0.33917 0.2082 0.59571 0.0
H907 H 0.33558 0.18245 0.59055 0.0
H908 H 0.32898 0.19219 0.61456 0.0
O909 O 0.34841 0.18749 0.67107 0.0
O910 O 0.37921 0.17673 0.67612 0.0
H911 H 0.41419 0.15917 0.61503 0.0
H912 H 0.41471 0.17232 0.59188 0.0
C913 C 0.41206 0.17384 0.60801 0.0
H914 H 0.42297 0.1843 0.61439 0.0
H915 H 0.41041 0.14605 0.65547 0.0
O916 O 0.33061 0.22091 0.63906 0.0
C917 C 0.3609 0.17728 0.68094 0.0
Co918 Co 0.7945 0.35382 0.64704 0.0
Co919 Co 0.80938 0.39763 0.65345 0.0
C920 C 0.76838 0.38735 0.66245 0.0
O921 O 0.77253 0.36971 0.65749 0.0
O922 O 0.78119 0.40106 0.66104 0.0
C923 C 0.76685 0.33442 0.6248 0.0
O924 O 0.76417 0.35316 0.62034 0.0
C925 C 0.81498 0.44061 0.64923 0.0
C926 C 0.84732 0.44366 0.65303 0.0
C927 C 0.83036 0.45426 0.64852 0.0
N928 N 0.82261 0.42271 0.65341 0.0
N929 N 0.84191 0.42468 0.6559 0.0
C930 C 0.79327 0.44445 0.64701 0.0
H931 H 0.78526 0.43787 0.6597 0.0
H932 H 0.78781 0.43723 0.63331 0.0
H933 H 0.78979 0.46047 0.64666 0.0
C934 C 0.81303 0.36029 0.60815 0.0
N935 N 0.80794 0.36668 0.62631 0.0
N936 N 0.81263 0.38548 0.62811 0.0
C937 C 0.82018 0.39184 0.61071 0.0
C938 C 0.82078 0.37603 0.59761 0.0
C939 C 0.8099 0.33964 0.60075 0.0
H940 H 0.81039 0.32897 0.6132 0.0
H941 H 0.79525 0.33872 0.59343 0.0
H942 H 0.82129 0.33553 0.5897 0.0
O943 O 0.81199 0.34945 0.67007 0.0
O944 O 0.82105 0.38081 0.67496 0.0
H945 H 0.84007 0.41582 0.61593 0.0
H946 H 0.83087 0.41466 0.59092 0.0
C947 C 0.82691 0.41254 0.60671 0.0
H948 H 0.81502 0.42306 0.61081 0.0
H949 H 0.85146 0.41296 0.65903 0.0
O950 O 0.78075 0.32988 0.63671 0.0
C951 C 0.82102 0.36262 0.6802 0.0
Co952 Co 0.64116 0.21034 0.35026 0.0
Co953 Co 0.60034 0.18829 0.34425 0.0
C954 C 0.60545 0.23015 0.33216 0.0
O955 O 0.62321 0.22968 0.33821 0.0
O956 O 0.59419 0.21513 0.3336 0.0
C957 C 0.66059 0.24325 0.3662 0.0
O958 O 0.64224 0.24961 0.3663 0.0
C959 C 0.55855 0.18 0.35082 0.0
C960 C 0.55636 0.14785 0.34521 0.0
C961 C 0.5455 0.16414 0.35131 0.0
N962 N 0.57639 0.1733 0.34518 0.0
N963 N 0.57498 0.15411 0.34167 0.0
C964 C 0.55423 0.20143 0.35454 0.0
H965 H 0.55721 0.20991 0.34082 0.0
H966 H 0.56432 0.20716 0.36615 0.0
H967 H 0.53864 0.20411 0.35879 0.0
C968 C 0.63527 0.19624 0.39098 0.0
N969 N 0.62927 0.19771 0.37205 0.0
N970 N 0.61211 0.18874 0.37 0.0
C971 C 0.60675 0.18115 0.38774 0.0
C972 C 0.6212 0.18584 0.40154 0.0
C973 C 0.65446 0.20411 0.39876 0.0
H974 H 0.66647 0.20122 0.38797 0.0
H975 H 0.65312 0.22032 0.40095 0.0
H976 H 0.65839 0.19721 0.41313 0.0
O977 O 0.64769 0.19137 0.32863 0.0
O978 O 0.61857 0.17642 0.32448 0.0
H979 H 0.58693 0.15737 0.38114 0.0
H980 H 0.58746 0.16428 0.40698 0.0
C981 C 0.58804 0.16997 0.39159 0.0
H982 H 0.57521 0.17986 0.38914 0.0
H983 H 0.58679 0.14522 0.33724 0.0
O984 O 0.66439 0.226 0.35963 0.0
C985 C 0.63658 0.17914 0.31942 0.0
Co986 Co 0.79298 0.64473 0.35122 0.0
Co987 Co 0.81434 0.60374 0.34476 0.0
C988 C 0.7723 0.60941 0.33348 0.0
O989 O 0.77293 0.62707 0.3398 0.0
O990 O 0.78732 0.59812 0.33444 0.0
C991 C 0.76236 0.66277 0.37125 0.0
O992 O 0.75931 0.6439 0.37481 0.0
C993 C 0.82075 0.5615 0.34929 0.0
C994 C 0.85287 0.55797 0.34441 0.0
C995 C 0.83578 0.54754 0.34886 0.0
N996 N 0.82852 0.57931 0.34516 0.0
N997 N 0.84772 0.57713 0.34215 0.0
C998 C 0.79966 0.55843 0.35535 0.0
H999 H 0.79379 0.57197 0.36255 0.0
H1000 H 0.79829 0.54574 0.36568 0.0
H1001 H 0.79063 0.55536 0.34199 0.0
C1002 C 0.8085 0.63881 0.39164 0.0
N1003 N 0.80621 0.63284 0.37276 0.0
N1004 N 0.8145 0.61536 0.37053 0.0
C1005 C 0.82219 0.60962 0.3881 0.0
C1006 C 0.81846 0.62427 0.402 0.0
C1007 C 0.80209 0.65847 0.3996 0.0
H1008 H 0.8031 0.66996 0.38794 0.0
H1009 H 0.78657 0.65739 0.40481 0.0
H1010 H 0.81141 0.66292 0.41237 0.0
O1011 O 0.8114 0.65102 0.32905 0.0
O1012 O 0.82626 0.62184 0.32484 0.0
H1013 H 0.84535 0.58907 0.38172 0.0
H1014 H 0.83738 0.5889 0.40725 0.0
C1015 C 0.83238 0.59031 0.39168 0.0
H1016 H 0.8221 0.57801 0.38826 0.0
H1017 H 0.85735 0.58875 0.33888 0.0
O1018 O 0.77724 0.66773 0.36079 0.0
C1019 C 0.82349 0.63984 0.31973 0.0
Co1020 Co 0.35958 0.79053 0.35041 0.0
Co1021 Co 0.39968 0.81405 0.3449 0.0
C1022 C 0.39546 0.77268 0.3307 0.0
O1023 O 0.37786 0.7722 0.33723 0.0
O1024 O 0.40624 0.78801 0.33259 0.0
C1025 C 0.33974 0.7563 0.36381 0.0
O1026 O 0.35765 0.74905 0.36193 0.0
C1027 C 0.44181 0.82288 0.34847 0.0
C1028 C 0.44239 0.85555 0.34979 0.0
C1029 C 0.45435 0.83894 0.35072 0.0
N1030 N 0.42325 0.82963 0.34627 0.0
N1031 N 0.4237 0.84918 0.34686 0.0
C1032 C 0.44702 0.80144 0.35041 0.0
H1033 H 0.44836 0.7949 0.33541 0.0
H1034 H 0.4351 0.79349 0.35842 0.0
H1035 H 0.46124 0.79943 0.35836 0.0
C1036 C 0.36575 0.80272 0.39166 0.0
N1037 N 0.37151 0.8023 0.37261 0.0
N1038 N 0.38843 0.81176 0.37077 0.0
C1039 C 0.39393 0.81852 0.38879 0.0
C1040 C 0.37976 0.8129 0.40255 0.0
C1041 C 0.34673 0.79423 0.39919 0.0
H1042 H 0.33453 0.79792 0.38886 0.0
H1043 H 0.34809 0.7779 0.40003 0.0
H1044 H 0.34302 0.79998 0.41412 0.0
O1045 O 0.35235 0.81039 0.32987 0.0
O1046 O 0.38083 0.82658 0.32608 0.0
H1047 H 0.41193 0.84425 0.38533 0.0
H1048 H 0.41468 0.8322 0.40901 0.0
C1049 C 0.41256 0.82973 0.39292 0.0
H1050 H 0.42539 0.82138 0.38704 0.0
H1051 H 0.41118 0.85816 0.34588 0.0
O1052 O 0.33651 0.77432 0.35934 0.0
C1053 C 0.36285 0.82349 0.32115 0.0
Co1054 Co 0.20741 0.35822 0.35073 0.0
Co1055 Co 0.18547 0.39923 0.34547 0.0
C1056 C 0.22721 0.39385 0.33288 0.0
O1057 O 0.227 0.37612 0.33901 0.0
O1058 O 0.21208 0.40494 0.3342 0.0
C1059 C 0.23885 0.33937 0.36908 0.0
O1060 O 0.24258 0.35812 0.37264 0.0
C1061 C 0.17817 0.44139 0.35151 0.0
C1062 C 0.14575 0.44383 0.34808 0.0
C1063 C 0.16253 0.45468 0.3527 0.0
N1064 N 0.1709 0.42347 0.34691 0.0
N1065 N 0.15153 0.42504 0.34469 0.0
C1066 C 0.19986 0.44557 0.35353 0.0
H1067 H 0.20732 0.44187 0.33941 0.0
H1068 H 0.20625 0.43594 0.3652 0.0
H1069 H 0.20303 0.46129 0.35683 0.0
C1070 C 0.19327 0.36352 0.39164 0.0
N1071 N 0.19488 0.36979 0.3728 0.0
N1072 N 0.18637 0.38723 0.37109 0.0
C1073 C 0.17923 0.39264 0.38899 0.0
C1074 C 0.18354 0.37782 0.40253 0.0
C1075 C 0.20005 0.34378 0.39905 0.0
H1076 H 0.19848 0.33243 0.38732 0.0
H1077 H 0.21581 0.34481 0.40349 0.0
H1078 H 0.19137 0.33915 0.41221 0.0
O1079 O 0.18827 0.3523 0.3291 0.0
O1080 O 0.17286 0.38131 0.32581 0.0
H1081 H 0.15561 0.41303 0.3839 0.0
H1082 H 0.16474 0.41303 0.40903 0.0
C1083 C 0.16903 0.41182 0.39323 0.0
H1084 H 0.17905 0.42425 0.38949 0.0
H1085 H 0.14222 0.41321 0.34124 0.0
O1086 O 0.22332 0.33491 0.35935 0.0
C1087 C 0.17567 0.36342 0.32039 0.0
Co1088 Co 0.64709 0.64527 0.79293 0.0
Co1089 Co 0.65421 0.60319 0.81186 0.0
C1090 C 0.66326 0.61042 0.76979 0.0
O1091 O 0.65745 0.62817 0.77178 0.0
O1092 O 0.66264 0.59826 0.78413 0.0
C1093 C 0.62529 0.66414 0.76408 0.0
O1094 O 0.62113 0.64538 0.76109 0.0
C1095 C 0.64733 0.56114 0.81976 0.0
C1096 C 0.66234 0.55675 0.84847 0.0
C1097 C 0.65162 0.54698 0.83398 0.0
N1098 N 0.65495 0.57854 0.82568 0.0
N1099 N 0.66386 0.57583 0.84288 0.0
C1100 C 0.63767 0.55791 0.80009 0.0
H1101 H 0.63517 0.57221 0.79242 0.0
H1102 H 0.6233 0.55025 0.80192 0.0
H1103 H 0.64727 0.54832 0.79085 0.0
C1104 C 0.60808 0.6397 0.81167 0.0
N1105 N 0.62635 0.63314 0.8072 0.0
N1106 N 0.62861 0.61509 0.81418 0.0
C1107 C 0.61152 0.60948 0.82295 0.0
C1108 C 0.59805 0.6249 0.82158 0.0
C1109 C 0.60022 0.65974 0.80644 0.0
H1110 H 0.61228 0.67086 0.80682 0.0
H1111 H 0.59385 0.65924 0.79132 0.0
H1112 H 0.58833 0.66436 0.81675 0.0
O1113 O 0.67014 0.65101 0.8103 0.0
O1114 O 0.67502 0.62093 0.82298 0.0
H1115 H 0.62067 0.58701 0.84334 0.0
H1116 H 0.59416 0.59017 0.84165 0.0
C1117 C 0.60821 0.59013 0.83314 0.0
H1118 H 0.60751 0.57819 0.82194 0.0
H1119 H 0.67118 0.58696 0.85069 0.0
O1120 O 0.63679 0.6687 0.77831 0.0
C1121 C 0.68007 0.63906 0.8211 0.0
Co1122 Co 0.35569 0.64938 0.79397 0.0
Co1123 Co 0.39736 0.6549 0.81432 0.0
C1124 C 0.39142 0.66509 0.77216 0.0
O1125 O 0.37351 0.65967 0.77353 0.0
O1126 O 0.40314 0.66402 0.78685 0.0
C1127 C 0.33641 0.62968 0.76378 0.0
O1128 O 0.35507 0.62543 0.76038 0.0
C1129 C 0.43902 0.64677 0.82276 0.0
C1130 C 0.44312 0.66027 0.85225 0.0
C1131 C 0.45294 0.65003 0.83746 0.0
N1132 N 0.42168 0.65448 0.82868 0.0
N1133 N 0.4242 0.66249 0.84635 0.0
C1134 C 0.44245 0.63799 0.80271 0.0
H1135 H 0.42822 0.63565 0.79487 0.0
H1136 H 0.45031 0.62366 0.80393 0.0
H1137 H 0.45192 0.64814 0.79393 0.0
C1138 C 0.36047 0.60917 0.81023 0.0
N1139 N 0.36706 0.62778 0.80755 0.0
N1140 N 0.38471 0.62957 0.8156 0.0
C1141 C 0.38984 0.61196 0.82366 0.0
C1142 C 0.37472 0.59851 0.82026 0.0
C1143 C 0.34062 0.60167 0.80388 0.0
H1144 H 0.32942 0.61361 0.8049 0.0
H1145 H 0.34153 0.59642 0.78836 0.0
H1146 H 0.33589 0.58902 0.81323 0.0
O1147 O 0.35038 0.67214 0.81194 0.0
O1148 O 0.3801 0.67581 0.82575 0.0
H1149 H 0.41215 0.61967 0.84482 0.0
H1150 H 0.40874 0.59334 0.84159 0.0
C1151 C 0.40901 0.60784 0.8339 0.0
H1152 H 0.42109 0.6076 0.82283 0.0
H1153 H 0.41307 0.66967 0.85428 0.0
O1154 O 0.33212 0.64037 0.77871 0.0
C1155 C 0.36221 0.68141 0.82343 0.0
Co1156 Co 0.35251 0.35227 0.79838 0.0
Co1157 Co 0.34623 0.3961 0.81291 0.0
C1158 C 0.33891 0.38591 0.77153 0.0
O1159 O 0.34361 0.36825 0.77588 0.0
O1160 O 0.33963 0.39957 0.78445 0.0
C1161 C 0.37537 0.33082 0.77221 0.0
O1162 O 0.38269 0.34872 0.77021 0.0
C1163 C 0.35062 0.43908 0.81857 0.0
C1164 C 0.34609 0.44212 0.85082 0.0
C1165 C 0.35096 0.45273 0.83397 0.0
N1166 N 0.34626 0.42118 0.8261 0.0
N1167 N 0.34336 0.42315 0.84534 0.0
C1168 C 0.35327 0.44294 0.7969 0.0
H1169 H 0.34062 0.43655 0.78867 0.0
H1170 H 0.36694 0.43552 0.79165 0.0
H1171 H 0.35393 0.45896 0.79347 0.0
C1172 C 0.39106 0.35823 0.81796 0.0
N1173 N 0.37303 0.36469 0.81251 0.0
N1174 N 0.37133 0.38358 0.81692 0.0
C1175 C 0.38871 0.38992 0.82451 0.0
C1176 C 0.40167 0.37402 0.82552 0.0
C1177 C 0.39836 0.33749 0.81522 0.0
H1178 H 0.40707 0.33662 0.80133 0.0
H1179 H 0.40823 0.33312 0.82756 0.0
H1180 H 0.38578 0.327 0.81447 0.0
O1181 O 0.32884 0.34847 0.81499 0.0
O1182 O 0.32405 0.3798 0.82411 0.0
H1183 H 0.38354 0.4146 0.84354 0.0
H1184 H 0.40865 0.41282 0.83478 0.0
C1185 C 0.3929 0.41077 0.83063 0.0
H1186 H 0.38911 0.42097 0.81836 0.0
H1187 H 0.33998 0.41143 0.85482 0.0
O1188 O 0.36189 0.32787 0.78506 0.0
C1189 C 0.31863 0.36167 0.82383 0.0
Co1190 Co 0.64513 0.35075 0.79393 0.0
Co1191 Co 0.60304 0.34542 0.81302 0.0
C1192 C 0.60946 0.33637 0.77089 0.0
O1193 O 0.62738 0.34158 0.7729 0.0
O1194 O 0.59742 0.33705 0.78533 0.0
C1195 C 0.6653 0.3722 0.76546 0.0
O1196 O 0.64736 0.37955 0.76393 0.0
C1197 C 0.56128 0.35351 0.82167 0.0
C1198 C 0.55751 0.33979 0.85111 0.0
C1199 C 0.54751 0.35011 0.8365 0.0
N1200 N 0.5787 0.34577 0.82737 0.0
N1201 N 0.57636 0.33764 0.845 0.0
C1202 C 0.55763 0.36245 0.80173 0.0
H1203 H 0.57166 0.36403 0.79338 0.0
H1204 H 0.5507 0.37722 0.80323 0.0
H1205 H 0.54724 0.35291 0.79332 0.0
C1206 C 0.64148 0.39011 0.81262 0.0
N1207 N 0.63422 0.37205 0.80831 0.0
N1208 N 0.61601 0.37061 0.81507 0.0
C1209 C 0.61095 0.38812 0.82337 0.0
C1210 C 0.62691 0.40095 0.82203 0.0
C1211 C 0.66188 0.39707 0.80752 0.0
H1212 H 0.6615 0.40477 0.79303 0.0
H1213 H 0.66741 0.40774 0.81868 0.0
H1214 H 0.67223 0.38438 0.80669 0.0
O1215 O 0.64999 0.32752 0.81119 0.0
O1216 O 0.61994 0.32388 0.82423 0.0
H1217 H 0.5878 0.38065 0.84366 0.0
H1218 H 0.59169 0.40693 0.84067 0.0
C1219 C 0.59146 0.39246 0.8329 0.0
H1220 H 0.57981 0.39284 0.82139 0.0
H1221 H 0.58759 0.33044 0.85278 0.0
O1222 O 0.66875 0.35925 0.77872 0.0
C1223 C 0.63783 0.31812 0.82219 0.0
Co1224 Co 0.64875 0.35511 0.20648 0.0
Co1225 Co 0.65621 0.39652 0.18634 0.0
C1226 C 0.66395 0.39058 0.22905 0.0
O1227 O 0.65828 0.37277 0.22743 0.0
O1228 O 0.66382 0.40224 0.21428 0.0
C1229 C 0.62733 0.33639 0.23586 0.0
O1230 O 0.6233 0.35516 0.23897 0.0
C1231 C 0.64863 0.43817 0.17729 0.0
C1232 C 0.66562 0.44272 0.14974 0.0
C1233 C 0.65358 0.45231 0.16328 0.0
N1234 N 0.65714 0.42094 0.17215 0.0
N1235 N 0.66722 0.42373 0.15562 0.0
C1236 C 0.63746 0.4413 0.19616 0.0
H1237 H 0.63618 0.42728 0.20459 0.0
H1238 H 0.6224 0.44691 0.19298 0.0
H1239 H 0.64515 0.4526 0.20526 0.0
C1240 C 0.60996 0.35999 0.18686 0.0
N1241 N 0.62819 0.36669 0.1914 0.0
N1242 N 0.63084 0.38422 0.18334 0.0
C1243 C 0.61421 0.38924 0.17341 0.0
C1244 C 0.60043 0.37411 0.1754 0.0
C1245 C 0.60156 0.34089 0.19439 0.0
H1246 H 0.61307 0.32921 0.19413 0.0
H1247 H 0.59648 0.34303 0.20984 0.0
H1248 H 0.5887 0.33577 0.1857 0.0
O1249 O 0.67237 0.3492 0.18978 0.0
O1250 O 0.67738 0.37884 0.17617 0.0
H1251 H 0.62537 0.41025 0.15241 0.0
H1252 H 0.599 0.40632 0.15103 0.0
C1253 C 0.61182 0.40756 0.16122 0.0
H1254 H 0.60936 0.42036 0.17116 0.0
H1255 H 0.67543 0.41275 0.14852 0.0
O1256 O 0.63856 0.33181 0.22142 0.0
C1257 C 0.68247 0.36083 0.17878 0.0
Co1258 Co 0.64721 0.64745 0.20609 0.0
Co1259 Co 0.60512 0.65343 0.18693 0.0
C1260 C 0.61181 0.66268 0.22903 0.0
O1261 O 0.6297 0.65734 0.22709 0.0
O1262 O 0.59975 0.66182 0.21462 0.0
C1263 C 0.66626 0.62646 0.23529 0.0
O1264 O 0.64758 0.62183 0.23806 0.0
C1265 C 0.56332 0.64548 0.17876 0.0
C1266 C 0.55893 0.65981 0.1497 0.0
C1267 C 0.54924 0.64914 0.16428 0.0
N1268 N 0.5806 0.65338 0.17289 0.0
N1269 N 0.5779 0.66188 0.15548 0.0
C1270 C 0.5601 0.63611 0.19858 0.0
H1271 H 0.57424 0.63475 0.20677 0.0
H1272 H 0.55357 0.62118 0.19688 0.0
H1273 H 0.54952 0.64522 0.20724 0.0
C1274 C 0.6428 0.60821 0.18749 0.0
N1275 N 0.63577 0.62636 0.19181 0.0
N1276 N 0.61771 0.62813 0.18475 0.0
C1277 C 0.61256 0.61084 0.17607 0.0
C1278 C 0.62828 0.59775 0.17759 0.0
C1279 C 0.66294 0.60086 0.19308 0.0
H1280 H 0.66236 0.59463 0.20825 0.0
H1281 H 0.66799 0.58897 0.18297 0.0
H1282 H 0.67378 0.61316 0.19273 0.0
O1283 O 0.65244 0.6706 0.18874 0.0
O1284 O 0.62234 0.67471 0.17586 0.0
H1285 H 0.59369 0.59285 0.15751 0.0
H1286 H 0.58136 0.60618 0.17702 0.0
C1287 C 0.59332 0.607 0.16585 0.0
H1288 H 0.58998 0.61926 0.15549 0.0
H1289 H 0.58895 0.66929 0.14764 0.0
O1290 O 0.67074 0.63788 0.22098 0.0
C1291 C 0.64032 0.68022 0.17786 0.0
Co1292 Co 0.35414 0.64913 0.20386 0.0
Co1293 Co 0.34732 0.60529 0.18954 0.0
C1294 C 0.33785 0.61634 0.23033 0.0
O1295 O 0.34327 0.6338 0.22603 0.0
O1296 O 0.33905 0.60245 0.21768 0.0
C1297 C 0.37651 0.66892 0.2311 0.0
O1298 O 0.38077 0.6502 0.2342 0.0
C1299 C 0.35151 0.56238 0.1857 0.0
C1300 C 0.34686 0.55761 0.15369 0.0
C1301 C 0.35144 0.54789 0.17115 0.0
N1302 N 0.34716 0.57984 0.17725 0.0
N1303 N 0.34421 0.57688 0.15814 0.0
C1304 C 0.35757 0.56013 0.20689 0.0
H1305 H 0.36471 0.5739 0.21225 0.0
H1306 H 0.36792 0.54752 0.20877 0.0
H1307 H 0.3442 0.55738 0.21601 0.0
C1308 C 0.3932 0.64187 0.18593 0.0
N1309 N 0.37491 0.63579 0.19093 0.0
N1310 N 0.37291 0.61695 0.18645 0.0
C1311 C 0.3903 0.61028 0.17912 0.0
C1312 C 0.40361 0.62591 0.17849 0.0
C1313 C 0.40081 0.66249 0.18876 0.0
H1314 H 0.4081 0.66357 0.20343 0.0
H1315 H 0.41195 0.66632 0.17736 0.0
H1316 H 0.38849 0.67329 0.18803 0.0
O1317 O 0.33145 0.65344 0.18592 0.0
O1318 O 0.32634 0.62209 0.17693 0.0
H1319 H 0.38415 0.58597 0.15989 0.0
H1320 H 0.40962 0.58741 0.16771 0.0
C1321 C 0.39405 0.58951 0.17247 0.0
H1322 H 0.3907 0.57915 0.18472 0.0
H1323 H 0.34095 0.5881 0.14804 0.0
O1324 O 0.36458 0.67326 0.21715 0.0
C1325 C 0.32138 0.64036 0.17669 0.0
Co1326 Co 0.35862 0.35016 0.21019 0.0
Co1327 Co 0.40004 0.34536 0.18875 0.0
C1328 C 0.39461 0.33265 0.23029 0.0
O1329 O 0.3767 0.33822 0.22952 0.0
O1330 O 0.40616 0.33456 0.21554 0.0
C1331 C 0.3382 0.365 0.24312 0.0
O1332 O 0.35635 0.36508 0.25001 0.0
C1333 C 0.44246 0.34924 0.17934 0.0
C1334 C 0.44185 0.35227 0.1468 0.0
C1335 C 0.45441 0.35294 0.16299 0.0
N1336 N 0.42367 0.34715 0.17311 0.0
N1337 N 0.42347 0.34866 0.15362 0.0
C1338 C 0.4487 0.34674 0.20046 0.0
H1339 H 0.44175 0.33325 0.20665 0.0
H1340 H 0.44353 0.35964 0.20922 0.0
H1341 H 0.46494 0.3451 0.20195 0.0
C1342 C 0.36401 0.39124 0.19721 0.0
N1343 N 0.37023 0.37235 0.19814 0.0
N1344 N 0.3878 0.3709 0.18986 0.0
C1345 C 0.39334 0.38908 0.18354 0.0
C1346 C 0.37845 0.40247 0.18807 0.0
C1347 C 0.34437 0.3984 0.20452 0.0
H1348 H 0.33275 0.38733 0.20111 0.0
H1349 H 0.34512 0.40046 0.22078 0.0
H1350 H 0.34031 0.41275 0.19764 0.0
O1351 O 0.35271 0.32883 0.19087 0.0
O1352 O 0.38218 0.32531 0.1765 0.0
H1353 H 0.41336 0.38742 0.15919 0.0
H1354 H 0.41527 0.41002 0.17325 0.0
C1355 C 0.41287 0.3938 0.17429 0.0
H1356 H 0.42494 0.38711 0.18315 0.0
H1357 H 0.41067 0.3479 0.14501 0.0
O1358 O 0.33496 0.35882 0.22561 0.0
C1359 C 0.3642 0.31993 0.17877 0.0
Co1360 Co 0.79069 0.65093 0.64446 0.0
Co1361 Co 0.8107 0.65658 0.60255 0.0
C1362 C 0.76861 0.66649 0.60875 0.0
O1363 O 0.77023 0.66121 0.62668 0.0
O1364 O 0.7832 0.66551 0.59691 0.0
C1365 C 0.76042 0.63101 0.66302 0.0
O1366 O 0.75759 0.62678 0.64426 0.0
C1367 C 0.81807 0.6507 0.56025 0.0
C1368 C 0.85048 0.65436 0.558 0.0
C1369 C 0.83382 0.6495 0.54708 0.0
N1370 N 0.82518 0.65551 0.57819 0.0
N1371 N 0.84454 0.65789 0.57671 0.0
C1372 C 0.79645 0.64839 0.5559 0.0
H1373 H 0.78868 0.66224 0.56001 0.0
H1374 H 0.79026 0.63628 0.56509 0.0
H1375 H 0.79346 0.64554 0.54005 0.0
C1376 C 0.80679 0.61076 0.63941 0.0
N1377 N 0.80419 0.62943 0.63298 0.0
N1378 N 0.81173 0.63118 0.6151 0.0
C1379 C 0.81914 0.61343 0.60955 0.0
C1380 C 0.81612 0.59998 0.62477 0.0
C1381 C 0.80095 0.60332 0.65944 0.0
H1382 H 0.80199 0.61534 0.67054 0.0
H1383 H 0.7855 0.5978 0.65886 0.0
H1384 H 0.8106 0.59084 0.66404 0.0
O1385 O 0.80868 0.67358 0.6498 0.0
O1386 O 0.82218 0.67758 0.61994 0.0
H1387 H 0.84136 0.61838 0.58763 0.0
H1388 H 0.83214 0.5933 0.58826 0.0
C1389 C 0.82799 0.60912 0.58973 0.0
H1390 H 0.8172 0.61292 0.578 0.0
H1391 H 0.85375 0.66146 0.58858 0.0
O1392 O 0.77519 0.64172 0.66778 0.0
C1393 C 0.82 0.68301 0.63794 0.0
Co1394 Co 0.7885 0.35138 0.35757 0.0
Co1395 Co 0.81215 0.3458 0.39746 0.0
C1396 C 0.76968 0.33475 0.39422 0.0
O1397 O 0.76922 0.34075 0.37645 0.0
O1398 O 0.7854 0.33561 0.40451 0.0
C1399 C 0.75679 0.37016 0.33923 0.0
O1400 O 0.75324 0.37388 0.35798 0.0
C1401 C 0.82176 0.35471 0.43858 0.0
C1402 C 0.85114 0.34091 0.44246 0.0
C1403 C 0.83664 0.35153 0.45234 0.0
N1404 N 0.82731 0.3466 0.42128 0.0
N1405 N 0.84492 0.33843 0.42366 0.0
C1406 C 0.80185 0.36373 0.44217 0.0
H1407 H 0.79324 0.36463 0.42823 0.0
H1408 H 0.80343 0.37883 0.44834 0.0
H1409 H 0.79368 0.35469 0.45318 0.0
C1410 C 0.80455 0.39178 0.36145 0.0
N1411 N 0.80245 0.37314 0.36817 0.0
N1412 N 0.8121 0.37125 0.38498 0.0
C1413 C 0.82076 0.38877 0.38938 0.0
C1414 C 0.81599 0.40232 0.37471 0.0
C1415 C 0.79661 0.39927 0.34217 0.0
H1416 H 0.79739 0.38752 0.33076 0.0
H1417 H 0.78097 0.40378 0.34417 0.0
H1418 H 0.80509 0.41235 0.33697 0.0
O1419 O 0.80651 0.32882 0.35112 0.0
O1420 O 0.82312 0.32534 0.37941 0.0
H1421 H 0.84387 0.38038 0.40941 0.0
H1422 H 0.8413 0.40681 0.40607 0.0
C1423 C 0.83315 0.39261 0.4073 0.0
H1424 H 0.82344 0.3934 0.42048 0.0
H1425 H 0.85255 0.3309 0.41255 0.0
O1426 O 0.77213 0.36018 0.33468 0.0
C1427 C 0.81924 0.31975 0.36177 0.0
Co1428 Co 0.64892 0.78947 0.35616 0.0
Co1429 Co 0.65484 0.81096 0.39718 0.0
C1430 C 0.66534 0.76865 0.392 0.0
O1431 O 0.65951 0.76942 0.37419 0.0
O1432 O 0.66441 0.7837 0.40324 0.0
C1433 C 0.63004 0.7583 0.33752 0.0
O1434 O 0.62629 0.75484 0.35629 0.0
C1435 C 0.64829 0.81743 0.43909 0.0
C1436 C 0.65531 0.84906 0.44337 0.0
C1437 C 0.64899 0.83223 0.45327 0.0
N1438 N 0.65401 0.82505 0.42166 0.0
N1439 N 0.65829 0.84396 0.4243 0.0
C1440 C 0.64071 0.79676 0.44155 0.0
H1441 H 0.63397 0.79148 0.42753 0.0
H1442 H 0.62961 0.79596 0.45363 0.0
H1443 H 0.65326 0.78685 0.44528 0.0
C1444 C 0.60909 0.80686 0.36029 0.0
N1445 N 0.62739 0.80332 0.36733 0.0
N1446 N 0.62942 0.81184 0.38471 0.0
C1447 C 0.61226 0.82102 0.38937 0.0
C1448 C 0.59884 0.81819 0.37402 0.0
C1449 C 0.60143 0.79875 0.34112 0.0
H1450 H 0.5981 0.78282 0.34306 0.0
H1451 H 0.58765 0.80604 0.33619 0.0
H1452 H 0.61284 0.80032 0.32944 0.0
O1453 O 0.67154 0.80755 0.35037 0.0
O1454 O 0.67546 0.82246 0.37958 0.0
H1455 H 0.59466 0.84096 0.40732 0.0
H1456 H 0.61016 0.82383 0.42079 0.0
C1457 C 0.60921 0.83338 0.40748 0.0
H1458 H 0.62104 0.84469 0.40842 0.0
H1459 H 0.66296 0.85344 0.41304 0.0
O1460 O 0.63992 0.77369 0.33292 0.0
C1461 C 0.68084 0.81956 0.36168 0.0
Co1462 Co 0.20801 0.65071 0.35716 0.0
Co1463 Co 0.18631 0.65637 0.39799 0.0
C1464 C 0.22876 0.66675 0.39299 0.0
O1465 O 0.22841 0.66053 0.37529 0.0
O1466 O 0.2134 0.66642 0.40384 0.0
C1467 C 0.23761 0.63054 0.33684 0.0
O1468 O 0.24011 0.62363 0.35485 0.0
C1469 C 0.17979 0.65061 0.44008 0.0
C1470 C 0.1476 0.65507 0.44355 0.0
C1471 C 0.16466 0.6504 0.45392 0.0
N1472 N 0.1721 0.65528 0.42237 0.0
N1473 N 0.15286 0.65805 0.42453 0.0
C1474 C 0.20089 0.64459 0.4431 0.0
H1475 H 0.20685 0.63774 0.42942 0.0
H1476 H 0.20228 0.63397 0.45555 0.0
H1477 H 0.20983 0.65793 0.44652 0.0
C1478 C 0.19144 0.6104 0.36146 0.0
N1479 N 0.1942 0.62901 0.36804 0.0
N1480 N 0.18587 0.63092 0.38554 0.0
C1481 C 0.17773 0.61338 0.3907 0.0
C1482 C 0.18114 0.59986 0.37564 0.0
C1483 C 0.19757 0.60292 0.34153 0.0
H1484 H 0.19753 0.61512 0.33057 0.0
H1485 H 0.21266 0.59656 0.34254 0.0
H1486 H 0.18744 0.59103 0.33644 0.0
O1487 O 0.19014 0.67354 0.35181 0.0
O1488 O 0.17447 0.67694 0.38063 0.0
H1489 H 0.15443 0.61929 0.41123 0.0
H1490 H 0.16253 0.59381 0.41106 0.0
C1491 C 0.16747 0.60943 0.4099 0.0
H1492 H 0.17767 0.6127 0.42231 0.0
H1493 H 0.14327 0.6616 0.41295 0.0
O1494 O 0.22354 0.64264 0.33357 0.0
C1495 C 0.1778 0.68261 0.36291 0.0
Co1496 Co 0.35159 0.20763 0.35588 0.0
Co1497 Co 0.34413 0.1883 0.39769 0.0
C1498 C 0.3339 0.23033 0.39 0.0
O1499 O 0.34035 0.22862 0.37245 0.0
O1500 O 0.33444 0.21589 0.40206 0.0
C1501 C 0.37265 0.23692 0.33696 0.0
O1502 O 0.37622 0.2404 0.35575 0.0
C1503 C 0.35154 0.18133 0.43973 0.0
C1504 C 0.33775 0.15211 0.44472 0.0
C1505 C 0.34818 0.16707 0.45409 0.0
N1506 N 0.34373 0.17496 0.42258 0.0
N1507 N 0.3355 0.15748 0.42565 0.0
C1508 C 0.36068 0.20133 0.44249 0.0
H1509 H 0.36147 0.20942 0.42824 0.0
H1510 H 0.37583 0.19994 0.44857 0.0
H1511 H 0.35179 0.20994 0.45328 0.0
C1512 C 0.39142 0.19114 0.36271 0.0
N1513 N 0.37267 0.19445 0.36859 0.0
N1514 N 0.37001 0.18666 0.38626 0.0
C1515 C 0.38715 0.17807 0.39207 0.0
C1516 C 0.4012 0.1809 0.37741 0.0
C1517 C 0.39977 0.19675 0.34298 0.0
H1518 H 0.38822 0.1957 0.33139 0.0
H1519 H 0.40537 0.21215 0.34367 0.0
H1520 H 0.41234 0.18697 0.33894 0.0
O1521 O 0.32929 0.18922 0.35004 0.0
O1522 O 0.32428 0.17595 0.37984 0.0
H1523 H 0.37759 0.157 0.41376 0.0
H1524 H 0.40413 0.15861 0.41095 0.0
C1525 C 0.39014 0.1672 0.41111 0.0
H1526 H 0.39086 0.178 0.42341 0.0
H1527 H 0.32832 0.14925 0.41475 0.0
O1528 O 0.36175 0.22223 0.33239 0.0
C1529 C 0.31961 0.17779 0.36162 0.0
Co1530 Co 0.21074 0.34939 0.64468 0.0
Co1531 Co 0.18929 0.34478 0.60359 0.0
C1532 C 0.23149 0.33389 0.60843 0.0
O1533 O 0.23088 0.33949 0.62634 0.0
O1534 O 0.21635 0.33496 0.59733 0.0
C1535 C 0.24056 0.36944 0.66447 0.0
O1536 O 0.2426 0.37632 0.6464 0.0
C1537 C 0.18237 0.35085 0.56157 0.0
C1538 C 0.15008 0.34692 0.55849 0.0
C1539 C 0.16709 0.35128 0.5479 0.0
N1540 N 0.17483 0.34632 0.57937 0.0
N1541 N 0.15551 0.34389 0.57746 0.0
C1542 C 0.20355 0.35646 0.55826 0.0
H1543 H 0.20975 0.3634 0.57178 0.0
H1544 H 0.20501 0.36687 0.54564 0.0
H1545 H 0.21223 0.34291 0.55496 0.0
C1546 C 0.19454 0.38984 0.64112 0.0
N1547 N 0.19712 0.37136 0.63415 0.0
N1548 N 0.189 0.36997 0.61651 0.0
C1549 C 0.18126 0.38776 0.6116 0.0
C1550 C 0.18468 0.40089 0.62702 0.0
C1551 C 0.20044 0.39675 0.66132 0.0
H1552 H 0.20031 0.38425 0.67194 0.0
H1553 H 0.2155 0.40321 0.66067 0.0
H1554 H 0.19021 0.40846 0.66664 0.0
O1555 O 0.19267 0.32676 0.64988 0.0
O1556 O 0.17756 0.32382 0.6207 0.0
H1557 H 0.15809 0.38292 0.59065 0.0
H1558 H 0.16703 0.40811 0.59132 0.0
C1559 C 0.17143 0.39232 0.59231 0.0
H1560 H 0.18169 0.38886 0.58 0.0
H1561 H 0.14601 0.34048 0.58914 0.0
O1562 O 0.22664 0.35725 0.66809 0.0
C1563 C 0.18054 0.31788 0.6384 0.0
Co1564 Co 0.64918 0.21097 0.643 0.0
Co1565 Co 0.65494 0.18843 0.60254 0.0
C1566 C 0.66687 0.23057 0.60722 0.0
O1567 O 0.66055 0.23056 0.62488 0.0
O1568 O 0.66567 0.21521 0.59641 0.0
C1569 C 0.63098 0.24276 0.6615 0.0
O1570 O 0.62784 0.24659 0.6427 0.0
C1571 C 0.64826 0.18209 0.56073 0.0
C1572 C 0.65508 0.15045 0.55625 0.0
C1573 C 0.64888 0.16738 0.54645 0.0
N1574 N 0.65393 0.17433 0.5781 0.0
N1575 N 0.65809 0.15541 0.57536 0.0
C1576 C 0.64082 0.20283 0.55843 0.0
H1577 H 0.63438 0.20815 0.57257 0.0
H1578 H 0.62952 0.20373 0.54655 0.0
H1579 H 0.65339 0.21264 0.55449 0.0
C1580 C 0.6088 0.19477 0.63856 0.0
N1581 N 0.62734 0.19759 0.63178 0.0
N1582 N 0.62937 0.18858 0.61464 0.0
C1583 C 0.61203 0.1798 0.60992 0.0
C1584 C 0.59845 0.18342 0.62493 0.0
C1585 C 0.60104 0.2036 0.65737 0.0
H1586 H 0.61208 0.20179 0.66936 0.0
H1587 H 0.5984 0.21961 0.65503 0.0
H1588 H 0.58684 0.19699 0.66211 0.0
O1589 O 0.67127 0.1923 0.64914 0.0
O1590 O 0.67483 0.17633 0.62045 0.0
H1591 H 0.62074 0.15572 0.59133 0.0
H1592 H 0.59436 0.15948 0.59247 0.0
C1593 C 0.60892 0.16705 0.59208 0.0
H1594 H 0.60979 0.17632 0.57858 0.0
H1595 H 0.66272 0.14584 0.58656 0.0
O1596 O 0.64032 0.22704 0.66613 0.0
C1597 C 0.6802 0.17961 0.63828 0.0
Co1598 Co 0.35109 0.79054 0.64525 0.0
Co1599 Co 0.34515 0.81114 0.60381 0.0
C1600 C 0.33453 0.76899 0.60988 0.0
O1601 O 0.3404 0.77012 0.62766 0.0
O1602 O 0.3355 0.7838 0.59832 0.0
C1603 C 0.37064 0.76006 0.66411 0.0
O1604 O 0.37442 0.75665 0.64534 0.0
C1605 C 0.35172 0.81679 0.5618 0.0
C1606 C 0.34473 0.84833 0.55692 0.0
C1607 C 0.35108 0.83133 0.54735 0.0
N1608 N 0.34594 0.82473 0.57906 0.0
N1609 N 0.34166 0.84358 0.57607 0.0
C1610 C 0.35936 0.79609 0.55976 0.0
H1611 H 0.36595 0.79106 0.57394 0.0
H1612 H 0.37059 0.79512 0.54782 0.0
H1613 H 0.34686 0.78611 0.55605 0.0
C1614 C 0.39089 0.80797 0.64075 0.0
N1615 N 0.3726 0.8042 0.63379 0.0
N1616 N 0.3706 0.81224 0.61617 0.0
C1617 C 0.38778 0.82124 0.61126 0.0
C1618 C 0.40117 0.81886 0.6267 0.0
C1619 C 0.39851 0.80052 0.66021 0.0
H1620 H 0.40253 0.78471 0.65863 0.0
H1621 H 0.4119 0.80846 0.66523 0.0
H1622 H 0.38687 0.8019 0.67168 0.0
O1623 O 0.32854 0.80878 0.65076 0.0
O1624 O 0.32461 0.82306 0.62124 0.0
H1625 H 0.40552 0.8405 0.59271 0.0
H1626 H 0.38992 0.82306 0.57977 0.0
C1627 C 0.39092 0.83301 0.59278 0.0
H1628 H 0.37916 0.84436 0.59148 0.0
H1629 H 0.33697 0.85327 0.58714 0.0
O1630 O 0.36032 0.77517 0.66867 0.0
C1631 C 0.31926 0.82057 0.63921 0.0
H1632 H 0.15165 0.30374 0.97699 0.0
H1633 H 0.1361 0.36569 0.97424 0.0
H1634 H 0.14291 0.30304 0.01185 0.0
H1635 H 0.128 0.3651 0.00953 0.0
H1636 H 0.10881 0.30391 0.06958 0.0
H1637 H 0.11254 0.30679 0.03362 0.0
H1638 H 0.14711 0.35997 0.04157 0.0
H1639 H 0.14329 0.35698 0.07754 0.0
C1640 C 0.14589 0.31709 0.98364 0.0
C1641 C 0.14396 0.33461 0.97261 0.0
C1642 C 0.14104 0.31672 0.00371 0.0
C1643 C 0.13452 0.33395 0.01333 0.0
C1644 C 0.13295 0.35159 0.00246 0.0
C1645 C 0.1376 0.35191 0.98229 0.0
C1646 C 0.11682 0.3164 0.06352 0.0
C1647 C 0.12576 0.33025 0.07611 0.0
C1648 C 0.11911 0.31797 0.04304 0.0
C1649 C 0.13024 0.33352 0.03484 0.0
C1650 C 0.13835 0.34792 0.04748 0.0
C1651 C 0.13622 0.34621 0.06798 0.0
H1652 H 0.65501 0.15335 0.08113 0.0
H1653 H 0.68234 0.09655 0.07144 0.0
H1654 H 0.64957 0.15696 0.04571 0.0
H1655 H 0.67549 0.0992 0.03608 0.0
H1656 H 0.68756 0.12258 0.974 0.0
H1657 H 0.68842 0.11596 0.00923 0.0
H1658 H 0.63366 0.14831 0.01654 0.0
H1659 H 0.63392 0.15639 0.98134 0.0
C1660 C 0.6596 0.14151 0.07134 0.0
C1661 C 0.66967 0.125 0.07883 0.0
C1662 C 0.65622 0.14341 0.05103 0.0
C1663 C 0.66241 0.12854 0.0378 0.0
C1664 C 0.67107 0.11126 0.04565 0.0
C1665 C 0.67477 0.10957 0.06594 0.0
C1666 C 0.67602 0.12877 0.98322 0.0
C1667 C 0.66125 0.14088 0.97508 0.0
C1668 C 0.67619 0.12451 0.00343 0.0
C1669 C 0.6612 0.13174 0.01597 0.0
C1670 C 0.64575 0.14291 0.00753 0.0
C1671 C 0.6458 0.14744 0.98732 0.0
H1672 H 0.89375 0.69654 0.06815 0.0
H1673 H 0.85271 0.64963 0.08145 0.0
H1674 H 0.88871 0.6911 0.03276 0.0
H1675 H 0.84811 0.64343 0.04609 0.0
H1676 H 0.82389 0.65735 0.98421 0.0
H1677 H 0.83188 0.65895 0.01935 0.0
H1678 H 0.89313 0.67043 0.00478 0.0
H1679 H 0.88485 0.66923 0.96965 0.0
C1680 C 0.88404 0.68471 0.06337 0.0
C1681 C 0.87355 0.67351 0.0773 0.0
C1682 C 0.88116 0.68151 0.04313 0.0
C1683 C 0.86782 0.66693 0.03648 0.0
C1684 C 0.85813 0.65507 0.05062 0.0
C1685 C 0.86089 0.65843 0.07084 0.0
C1686 C 0.83905 0.66015 0.98859 0.0
C1687 C 0.85365 0.66369 0.97429 0.0
C1688 C 0.84371 0.66093 0.00873 0.0
C1689 C 0.86318 0.66493 0.015 0.0
C1690 C 0.8779 0.66779 0.00055 0.0
C1691 C 0.87317 0.6672 0.98041 0.0
H1692 H 0.36302 0.84207 0.98241 0.0
H1693 H 0.30703 0.87196 0.97551 0.0
H1694 H 0.36315 0.85047 0.01747 0.0
H1695 H 0.30605 0.87861 0.01067 0.0
H1696 H 0.31232 0.90022 0.07224 0.0
H1697 H 0.31802 0.89683 0.03677 0.0
H1698 H 0.34909 0.84182 0.04732 0.0
H1699 H 0.3449 0.84642 0.08278 0.0
C1700 C 0.35056 0.85012 0.98846 0.0
C1701 C 0.33459 0.85555 0.97631 0.0
C1702 C 0.35053 0.85483 0.00863 0.0
C1703 C 0.33447 0.865 0.01717 0.0
C1704 C 0.31878 0.87089 0.00479 0.0
C1705 C 0.31902 0.86653 0.9846 0.0
C1706 C 0.32076 0.88768 0.0669 0.0
C1707 C 0.32772 0.87329 0.08011 0.0
C1708 C 0.32378 0.88552 0.04654 0.0
C1709 C 0.33358 0.86874 0.03895 0.0
C1710 C 0.34151 0.85496 0.05243 0.0
C1711 C 0.33883 0.85738 0.07278 0.0
H1712 H 0.17538 0.65783 0.01677 0.0
H1713 H 0.11567 0.6745 0.03185 0.0
H1714 H 0.16676 0.65846 0.98169 0.0
H1715 H 0.10687 0.67509 0.99679 0.0
H1716 H 0.10819 0.69848 0.93189 0.0
H1717 H 0.11332 0.69466 0.96751 0.0
H1718 H 0.14771 0.64179 0.95671 0.0
H1719 H 0.14284 0.64605 0.92109 0.0
C1720 C 0.1604 0.66163 0.01251 0.0
C1721 C 0.14636 0.66674 0.02689 0.0
C1722 C 0.15539 0.66185 0.99245 0.0
C1723 C 0.13612 0.66692 0.98639 0.0
C1724 C 0.12194 0.67153 0.00091 0.0
C1725 C 0.127 0.67137 0.02097 0.0
C1726 C 0.11646 0.68584 0.93727 0.0
C1727 C 0.12515 0.67255 0.92395 0.0
C1728 C 0.11942 0.68362 0.95763 0.0
C1729 C 0.13113 0.66803 0.96498 0.0
C1730 C 0.13897 0.65418 0.95154 0.0
C1731 C 0.13605 0.65648 0.9312 0.0
H1732 H 0.28955 0.12515 0.9306 0.0
H1733 H 0.35238 0.12712 0.91978 0.0
H1734 H 0.29534 0.12958 0.96599 0.0
H1735 H 0.35835 0.13165 0.95542 0.0
H1736 H 0.35339 0.16828 0.01506 0.0
H1737 H 0.35105 0.15923 0.98001 0.0
H1738 H 0.31064 0.11204 0.99498 0.0
H1739 H 0.31331 0.12085 0.02991 0.0
C1740 C 0.30463 0.12622 0.93595 0.0
C1741 C 0.32055 0.12566 0.92269 0.0
C1742 C 0.30796 0.1287 0.95616 0.0
C1743 C 0.3273 0.13093 0.96346 0.0
C1744 C 0.3433 0.13005 0.95016 0.0
C1745 C 0.33994 0.12731 0.92989 0.0
C1746 C 0.34411 0.15592 0.0108 0.0
C1747 C 0.33289 0.14577 0.02503 0.0
C1748 C 0.34287 0.15066 0.99081 0.0
C1749 C 0.33044 0.13511 0.98476 0.0
C1750 C 0.31999 0.12437 0.99917 0.0
C1751 C 0.32136 0.12953 0.01912 0.0
H1752 H 0.87284 0.35601 0.02429 0.0
H1753 H 0.83701 0.30333 0.02043 0.0
H1754 H 0.8814 0.35277 0.98923 0.0
H1755 H 0.84507 0.30023 0.98551 0.0
H1756 H 0.87686 0.28719 0.92925 0.0
H1757 H 0.87201 0.29164 0.96474 0.0
H1758 H 0.86837 0.35497 0.95616 0.0
H1759 H 0.874 0.35031 0.92062 0.0
C1760 C 0.86673 0.34381 0.01588 0.0
C1761 C 0.85464 0.32966 0.02511 0.0
C1762 C 0.87158 0.34196 0.99581 0.0
C1763 C 0.8642 0.32605 0.98458 0.0
C1764 C 0.85155 0.31232 0.9938 0.0
C1765 C 0.84687 0.31409 0.01383 0.0
C1766 C 0.87537 0.30205 0.9351 0.0
C1767 C 0.87581 0.31842 0.9224 0.0
C1768 C 0.87237 0.30463 0.95536 0.0
C1769 C 0.86944 0.32365 0.96331 0.0
C1770 C 0.87069 0.34013 0.95059 0.0
C1771 C 0.8739 0.33752 0.93028 0.0
H1772 H 0.69285 0.83554 0.02121 0.0
H1773 H 0.64095 0.8725 0.0249 0.0
H1774 H 0.69601 0.84322 0.98621 0.0
H1775 H 0.64434 0.8808 0.98977 0.0
H1776 H 0.64692 0.87367 0.92114 0.0
H1777 H 0.64194 0.86811 0.95667 0.0
H1778 H 0.70532 0.86971 0.96546 0.0
H1779 H 0.71004 0.87434 0.93001 0.0
C1780 C 0.68227 0.84555 0.01452 0.0
C1781 C 0.6669 0.85374 0.02577 0.0
C1782 C 0.68409 0.85003 0.99447 0.0
C1783 C 0.67065 0.86297 0.98519 0.0
C1784 C 0.65491 0.87075 0.99639 0.0
C1785 C 0.65299 0.86606 0.01649 0.0
C1786 C 0.65965 0.87311 0.93086 0.0
C1787 C 0.67883 0.87438 0.92307 0.0
C1788 C 0.65686 0.86995 0.95116 0.0
C1789 C 0.67325 0.86814 0.96393 0.0
C1790 C 0.69238 0.87047 0.95605 0.0
C1791 C 0.69512 0.87337 0.93582 0.0
H1792 H 0.07606 0.11402 0.34387 0.0
H1793 H 0.0718 0.14563 0.28858 0.0
H1794 H 0.04021 0.11691 0.3482 0.0
H1795 H 0.03671 0.15018 0.2936 0.0
H1796 H 0.97229 0.14304 0.29634 0.0
H1797 H 0.00665 0.13474 0.29267 0.0
H1798 H 0.01463 0.13938 0.35598 0.0
H1799 H 0.97931 0.14563 0.35982 0.0
C1800 C 0.06746 0.12162 0.33269 0.0
C1801 C 0.07675 0.12979 0.316 0.0
C1802 C 0.04696 0.12353 0.33528 0.0
C1803 C 0.0354 0.13381 0.32128 0.0
C1804 C 0.04487 0.14184 0.30457 0.0
C1805 C 0.06518 0.13961 0.30185 0.0
C1806 C 0.98095 0.14143 0.30963 0.0
C1807 C 0.97265 0.14434 0.32846 0.0
C1808 C 0.00102 0.1372 0.30746 0.0
C1809 C 0.01365 0.13652 0.32399 0.0
C1810 C 0.0054 0.13946 0.34289 0.0
C1811 C 0.98514 0.14327 0.34508 0.0
H1812 H 0.87544 0.97294 0.31354 0.0
H1813 H 0.8372 0.98027 0.36411 0.0
H1814 H 0.88174 0.00816 0.31295 0.0
H1815 H 0.8452 0.01541 0.36505 0.0
H1816 H 0.84158 0.08003 0.34448 0.0
H1817 H 0.838 0.04463 0.34966 0.0
H1818 H 0.89672 0.03547 0.32572 0.0
H1819 H 0.89916 0.07076 0.31871 0.0
C1820 C 0.86819 0.98215 0.32444 0.0
C1821 C 0.85488 0.97399 0.33815 0.0
C1822 C 0.87229 0.0024 0.32452 0.0
C1823 C 0.86382 0.01497 0.33882 0.0
C1824 C 0.85154 0.00647 0.35339 0.0
C1825 C 0.84707 0.98624 0.35299 0.0
C1826 C 0.8536 0.07034 0.34017 0.0
C1827 C 0.8703 0.07796 0.33051 0.0
C1828 C 0.85174 0.05001 0.34346 0.0
C1829 C 0.86689 0.03687 0.33774 0.0
C1830 C 0.88439 0.04489 0.32967 0.0
C1831 C 0.88598 0.06518 0.32593 0.0
H1832 H 0.02673 0.87515 0.3077 0.0
H1833 H 0.01822 0.84255 0.36192 0.0
H1834 H 0.99165 0.88187 0.30598 0.0
H1835 H 0.9832 0.85111 0.36153 0.0
H1836 H 0.91859 0.84731 0.34127 0.0
H1837 H 0.95391 0.84302 0.34653 0.0
H1838 H 0.96478 0.89888 0.31707 0.0
H1839 H 0.92951 0.9019 0.31018 0.0
C1840 C 0.01729 0.86919 0.31917 0.0
C1841 C 0.02508 0.85732 0.33433 0.0
C1842 C 0.99712 0.87358 0.31854 0.0
C1843 C 0.98427 0.8669 0.33351 0.0
C1844 C 0.99238 0.85604 0.34937 0.0
C1845 C 0.01253 0.85125 0.34972 0.0
C1846 C 0.92864 0.85857 0.33586 0.0
C1847 C 0.92146 0.87467 0.32493 0.0
C1848 C 0.94892 0.85631 0.33913 0.0
C1849 C 0.96248 0.87044 0.33199 0.0
C1850 C 0.95499 0.88732 0.32226 0.0
C1851 C 0.93473 0.88928 0.31857 0.0
H1852 H 0.09903 0.9314 0.30357 0.0
H1853 H 0.14977 0.9206 0.34066 0.0
H1854 H 0.1022 0.96692 0.30944 0.0
H1855 H 0.154 0.95609 0.34549 0.0
H1856 H 0.15087 0.02098 0.3607 0.0
H1857 H 0.14287 0.98578 0.35945 0.0
H1858 H 0.12245 0.9928 0.2992 0.0
H1859 H 0.12889 0.02801 0.30116 0.0
C1860 C 0.11079 0.93671 0.3131 0.0
C1861 C 0.1243 0.92342 0.32149 0.0
C1862 C 0.11281 0.95705 0.31626 0.0
C1863 C 0.1286 0.96453 0.32767 0.0
C1864 C 0.14159 0.95101 0.33674 0.0
C1865 C 0.13933 0.93066 0.33381 0.0
C1866 C 0.14462 0.01493 0.34724 0.0
C1867 C 0.14128 0.02714 0.33075 0.0
C1868 C 0.14014 0.99473 0.34645 0.0
C1869 C 0.13221 0.98626 0.32913 0.0
C1870 C 0.1284 0.99868 0.31285 0.0
C1871 C 0.13262 0.01888 0.31377 0.0
H1872 H 0.97085 0.88563 0.6723 0.0
H1873 H 0.98472 0.82457 0.66009 0.0
H1874 H 0.00607 0.89342 0.6741 0.0
H1875 H 0.01998 0.83205 0.66235 0.0
H1876 H 0.08245 0.85276 0.65343 0.0
H1877 H 0.04709 0.84808 0.64725 0.0
H1878 H 0.0337 0.8885 0.69506 0.0
H1879 H 0.06908 0.89364 0.70047 0.0
C1880 C 0.9815 0.87383 0.67032 0.0
C1881 C 0.97518 0.85443 0.66653 0.0
C1882 C 0.00168 0.87827 0.67128 0.0
C1883 C 0.01596 0.86335 0.66853 0.0
C1884 C 0.00949 0.844 0.66428 0.0
C1885 C 0.9893 0.83964 0.66312 0.0
C1886 C 0.07182 0.86084 0.6623 0.0
C1887 C 0.07825 0.87355 0.67736 0.0
C1888 C 0.05161 0.85805 0.65895 0.0
C1889 C 0.03745 0.86774 0.67079 0.0
C1890 C 0.04409 0.88097 0.68547 0.0
C1891 C 0.06431 0.8839 0.68866 0.0
H1892 H 0.12611 0.07989 0.64549 0.0
H1893 H 0.1206 0.06864 0.70803 0.0
H1894 H 0.13012 0.0442 0.63943 0.0
H1895 H 0.12445 0.03316 0.70214 0.0
H1896 H 0.11575 0.96946 0.6831 0.0
H1897 H 0.10719 0.00452 0.68545 0.0
H1898 H 0.157 0.01916 0.64821 0.0
H1899 H 0.16582 0.98403 0.64627 0.0
C1900 C 0.12539 0.06968 0.65783 0.0
C1901 C 0.12291 0.07677 0.67717 0.0
C1902 C 0.12782 0.04938 0.65443 0.0
C1903 C 0.12756 0.03593 0.67032 0.0
C1904 C 0.12446 0.04312 0.68958 0.0
C1905 C 0.1223 0.06337 0.69298 0.0
C1906 C 0.12502 0.98022 0.67567 0.0
C1907 C 0.14192 0.97419 0.66521 0.0
C1908 C 0.12001 0.00023 0.67685 0.0
C1909 C 0.13157 0.01458 0.66722 0.0
C1910 C 0.1478 0.00842 0.65574 0.0
C1911 C 0.1529 0.98837 0.65472 0.0
H1912 H 0.0158 0.17524 0.65423 0.0
H1913 H 0.03004 0.11488 0.66924 0.0
H1914 H 0.9806 0.16725 0.65525 0.0
H1915 H 0.99487 0.10665 0.67002 0.0
H1916 H 0.93102 0.10828 0.69549 0.0
H1917 H 0.96653 0.11269 0.69032 0.0
H1918 H 0.95436 0.14972 0.63955 0.0
H1919 H 0.91886 0.14567 0.64531 0.0
C1920 C 0.01133 0.16022 0.65763 0.0
C1921 C 0.02551 0.14582 0.66223 0.0
C1922 C 0.99119 0.15557 0.65808 0.0
C1923 C 0.98484 0.1363 0.66285 0.0
C1924 C 0.99918 0.12173 0.66675 0.0
C1925 C 0.01932 0.12645 0.66644 0.0
C1926 C 0.93607 0.11701 0.68302 0.0
C1927 C 0.92242 0.12671 0.67082 0.0
C1928 C 0.95637 0.11954 0.68001 0.0
C1929 C 0.96336 0.13176 0.66463 0.0
C1930 C 0.94953 0.14057 0.65178 0.0
C1931 C 0.92924 0.13813 0.65492 0.0
H1932 H 0.84083 0.02273 0.69984 0.0
H1933 H 0.8695 0.02603 0.6429 0.0
H1934 H 0.84966 0.98793 0.70238 0.0
H1935 H 0.8788 0.99115 0.64552 0.0
H1936 H 0.87111 0.9227 0.64892 0.0
H1937 H 0.8654 0.95832 0.64505 0.0
H1938 H 0.8771 0.96669 0.70742 0.0
H1939 H 0.88195 0.93109 0.71117 0.0
C1940 C 0.84936 0.01608 0.68803 0.0
C1941 C 0.85481 0.02716 0.67135 0.0
C1942 C 0.85446 0.99611 0.68946 0.0
C1943 C 0.86521 0.98673 0.67427 0.0
C1944 C 0.87043 0.99782 0.65744 0.0
C1945 C 0.86516 0.0178 0.65595 0.0
C1946 C 0.87281 0.93234 0.66162 0.0
C1947 C 0.87706 0.9244 0.68028 0.0
C1948 C 0.86956 0.9527 0.65946 0.0
C1949 C 0.87055 0.9654 0.67598 0.0
C1950 C 0.87576 0.95735 0.69447 0.0
C1951 C 0.8788 0.93704 0.69661 0.0
H1952 H 0.29702 0.07139 0.10511 0.0
H1953 H 0.3491 0.08172 0.1404 0.0
H1954 H 0.30104 0.03559 0.10953 0.0
H1955 H 0.35327 0.04597 0.1449 0.0
H1956 H 0.36154 0.97886 0.13691 0.0
H1957 H 0.35994 0.01378 0.12741 0.0
H1958 H 0.29725 0.01413 0.13964 0.0
H1959 H 0.29892 0.97963 0.14961 0.0
C1960 C 0.30957 0.06588 0.11343 0.0
C1961 C 0.32282 0.07907 0.12238 0.0
C1962 C 0.31179 0.04549 0.11611 0.0
C1963 C 0.32739 0.038 0.12768 0.0
C1964 C 0.34121 0.05128 0.13579 0.0
C1965 C 0.33885 0.07168 0.13325 0.0
C1966 C 0.34741 0.9864 0.13748 0.0
C1967 C 0.33026 0.97628 0.1435 0.0
C1968 C 0.3465 0.00636 0.13204 0.0
C1969 C 0.32841 0.0166 0.1325 0.0
C1970 C 0.3113 0.00649 0.1386 0.0
C1971 C 0.31225 0.98662 0.14419 0.0
H1972 H 0.32467 0.03092 0.88725 0.0
H1973 H 0.34034 0.01498 0.82748 0.0
H1974 H 0.32281 0.99595 0.8962 0.0
H1975 H 0.33837 0.98 0.83623 0.0
H1976 H 0.34785 0.91888 0.85984 0.0
H1977 H 0.35375 0.95424 0.85489 0.0
H1978 H 0.30211 0.96756 0.89026 0.0
H1979 H 0.29677 0.93212 0.89559 0.0
C1980 C 0.32735 0.01989 0.87595 0.0
C1981 C 0.33208 0.02556 0.85654 0.0
C1982 C 0.32644 0.99987 0.88109 0.0
C1983 C 0.33032 0.98512 0.86692 0.0
C1984 C 0.33554 0.99092 0.84761 0.0
C1985 C 0.33655 0.01094 0.84252 0.0
C1986 C 0.33809 0.92949 0.86686 0.0
C1987 C 0.32194 0.92301 0.87811 0.0
C1988 C 0.34129 0.94969 0.86388 0.0
C1989 C 0.32826 0.96377 0.87197 0.0
C1990 C 0.31255 0.95717 0.88397 0.0
C1991 C 0.30944 0.93693 0.88703 0.0
H1992 H 0.07796 0.35557 0.87276 0.0
H1993 H 0.06779 0.29261 0.87356 0.0
H1994 H 0.0425 0.36125 0.86716 0.0
H1995 H 0.03248 0.29805 0.86868 0.0
H1996 H 0.97763 0.31177 0.83361 0.0
H1997 H 0.01257 0.30828 0.84137 0.0
H1998 H 0.00903 0.35888 0.88035 0.0
H1999 H 0.97387 0.36251 0.87216 0.0
C2000 C 0.06799 0.34303 0.87222 0.0
C2001 C 0.07538 0.32369 0.87355 0.0
C2002 C 0.04775 0.34622 0.86902 0.0
C2003 C 0.03468 0.33008 0.86716 0.0
C2004 C 0.04216 0.3108 0.86953 0.0
C2005 C 0.0623 0.30765 0.87254 0.0
C2006 C 0.98428 0.32203 0.84396 0.0
C2007 C 0.973 0.33711 0.85265 0.0
C2008 C 0.0043 0.32004 0.84845 0.0
C2009 C 0.01354 0.33305 0.86183 0.0
C2010 C 0.00238 0.34862 0.87 0.0
C2011 C 0.98228 0.35068 0.86536 0.0
H2012 H 0.64282 0.97446 0.87446 0.0
H2013 H 0.69199 0.97832 0.83399 0.0
H2014 H 0.64682 0.00952 0.88274 0.0
H2015 H 0.69564 0.01332 0.84152 0.0
H2016 H 0.71208 0.06922 0.87231 0.0
H2017 H 0.70693 0.03395 0.86702 0.0
H2018 H 0.64365 0.0427 0.87126 0.0
H2019 H 0.64916 0.07803 0.8775 0.0
C2020 C 0.65435 0.98292 0.86722 0.0
C2021 C 0.66735 0.9737 0.85391 0.0
C2022 C 0.65663 0.00299 0.87189 0.0
C2023 C 0.67178 0.01425 0.86307 0.0
C2024 C 0.68423 0.00504 0.84913 0.0
C2025 C 0.6821 0.98499 0.8447 0.0
C2026 C 0.69712 0.06346 0.87236 0.0
C2027 C 0.681 0.07615 0.87525 0.0
C2028 C 0.6941 0.04331 0.86912 0.0
C2029 C 0.67483 0.03545 0.86831 0.0
C2030 C 0.65869 0.04817 0.8719 0.0
C2031 C 0.66178 0.06837 0.87544 0.0
H2032 H 0.01888 0.63908 0.84159 0.0
H2033 H 0.026 0.69295 0.87516 0.0
H2034 H 0.98375 0.63874 0.8496 0.0
H2035 H 0.99076 0.69372 0.88164 0.0
H2036 H 0.92879 0.6862 0.90213 0.0
H2037 H 0.96429 0.68033 0.89885 0.0
H2038 H 0.95434 0.65422 0.84122 0.0
H2039 H 0.91887 0.65874 0.84544 0.0
C2040 C 0.01288 0.65104 0.85041 0.0
C2041 C 0.02512 0.66649 0.857 0.0
C2042 C 0.99268 0.65094 0.85491 0.0
C2043 C 0.98419 0.66636 0.86605 0.0
C2044 C 0.99663 0.68151 0.87312 0.0
C2045 C 0.01687 0.6814 0.8689 0.0
C2046 C 0.93427 0.67879 0.88901 0.0
C2047 C 0.92126 0.67335 0.87381 0.0
C2048 C 0.95463 0.67567 0.88696 0.0
C2049 C 0.96239 0.66723 0.86953 0.0
C2050 C 0.94908 0.66071 0.85488 0.0
C2051 C 0.92873 0.66353 0.85714 0.0
H2052 H 0.69823 0.932 0.10601 0.0
H2053 H 0.6512 0.91756 0.14652 0.0
H2054 H 0.69217 0.96727 0.11133 0.0
H2055 H 0.64444 0.95279 0.15144 0.0
H2056 H 0.65739 0.01469 0.17626 0.0
H2057 H 0.65978 0.97963 0.16805 0.0
H2058 H 0.67055 0.99478 0.10682 0.0
H2059 H 0.66846 0.02983 0.11526 0.0
C2060 C 0.68626 0.9365 0.11567 0.0
C2061 C 0.67516 0.92231 0.12589 0.0
C2062 C 0.68272 0.95666 0.11872 0.0
C2063 C 0.66791 0.96293 0.13198 0.0
C2064 C 0.65621 0.94853 0.14145 0.0
C2065 C 0.65989 0.9284 0.13851 0.0
C2066 C 0.66019 0.01045 0.16105 0.0
C2067 C 0.66327 0.0249 0.14649 0.0
C2068 C 0.66144 0.99037 0.15628 0.0
C2069 C 0.66547 0.98431 0.13676 0.0
C2070 C 0.66788 0.99888 0.12208 0.0
C2071 C 0.6668 0.01897 0.12691 0.0
H2072 H 0.07973 0.64838 0.1451 0.0
H2073 H 0.07091 0.69812 0.10617 0.0
H2074 H 0.0438 0.6449 0.14893 0.0
H2075 H 0.03498 0.69482 0.10999 0.0
H2076 H 0.97659 0.63714 0.13842 0.0
H2077 H 0.01179 0.63769 0.12995 0.0
H2078 H 0.01328 0.70067 0.14044 0.0
H2079 H 0.97856 0.70006 0.14963 0.0
C2080 C 0.07 0.65827 0.13706 0.0
C2081 C 0.07786 0.67349 0.12537 0.0
C2082 C 0.04952 0.65629 0.13921 0.0
C2083 C 0.03665 0.6697 0.12987 0.0
C2084 C 0.04459 0.68441 0.11749 0.0
C2085 C 0.06505 0.68622 0.11517 0.0
C2086 C 0.98443 0.65112 0.13886 0.0
C2087 C 0.97455 0.66866 0.14414 0.0
C2088 C 0.00455 0.65141 0.13399 0.0
C2089 C 0.01516 0.66928 0.13422 0.0
C2090 C 0.00533 0.68678 0.1396 0.0
C2091 C 0.98532 0.68644 0.1447 0.0
H2092 H 0.01609 0.35328 0.16349 0.0
H2093 H 0.03107 0.31044 0.11855 0.0
H2094 H 0.98102 0.34989 0.15495 0.0
H2095 H 0.99608 0.30663 0.11042 0.0
H2096 H 0.93164 0.28627 0.12556 0.0
H2097 H 0.96707 0.29236 0.1295 0.0
H2098 H 0.95656 0.35535 0.12647 0.0
H2099 H 0.92093 0.34909 0.12239 0.0
C2100 C 0.01187 0.34313 0.15182 0.0
C2101 C 0.02619 0.33151 0.14225 0.0
C2102 C 0.99185 0.34128 0.14687 0.0
C2103 C 0.98584 0.32781 0.1322 0.0
C2104 C 0.00028 0.31682 0.12207 0.0
C2105 C 0.02026 0.31882 0.12689 0.0
C2106 C 0.93701 0.30138 0.12543 0.0
C2107 C 0.92377 0.31723 0.12358 0.0
C2108 C 0.95723 0.30488 0.12763 0.0
C2109 C 0.96454 0.32433 0.1283 0.0
C2110 C 0.95127 0.34022 0.1261 0.0
C2111 C 0.93101 0.33668 0.12362 0.0
H2112 H 0.62034 0.78754 0.56984 0.0
H2113 H 0.62404 0.85051 0.57905 0.0
H2114 H 0.62526 0.79222 0.53441 0.0
H2115 H 0.63002 0.85542 0.5436 0.0
H2116 H 0.62722 0.85781 0.47565 0.0
H2117 H 0.61801 0.85426 0.51052 0.0
H2118 H 0.65184 0.80001 0.51358 0.0
H2119 H 0.66031 0.80333 0.47881 0.0
C2120 C 0.62204 0.80243 0.56411 0.0
C2121 C 0.62177 0.81869 0.57694 0.0
C2122 C 0.62511 0.80514 0.54389 0.0
C2123 C 0.62843 0.82418 0.53611 0.0
C2124 C 0.62739 0.84056 0.54899 0.0
C2125 C 0.624 0.83782 0.56926 0.0
C2126 C 0.6326 0.84515 0.48389 0.0
C2127 C 0.64411 0.83063 0.47451 0.0
C2128 C 0.6274 0.84312 0.50386 0.0
C2129 C 0.6339 0.82667 0.51488 0.0
C2130 C 0.64597 0.81253 0.50548 0.0
C2131 C 0.65092 0.81444 0.48554 0.0
H2132 H 0.19211 0.66389 0.47998 0.0
H2133 H 0.14024 0.62693 0.47588 0.0
H2134 H 0.19565 0.65533 0.51473 0.0
H2135 H 0.14399 0.61777 0.51076 0.0
H2136 H 0.14725 0.62387 0.5796 0.0
H2137 H 0.14191 0.62984 0.54419 0.0
H2138 H 0.20519 0.62827 0.53472 0.0
H2139 H 0.21028 0.62321 0.57007 0.0
C2140 C 0.18162 0.65369 0.48651 0.0
C2141 C 0.16615 0.64575 0.47521 0.0
C2142 C 0.18366 0.6487 0.50642 0.0
C2143 C 0.17034 0.63551 0.51551 0.0
C2144 C 0.15449 0.62799 0.50428 0.0
C2145 C 0.15235 0.63318 0.48433 0.0
C2146 C 0.15988 0.62448 0.56976 0.0
C2147 C 0.17914 0.62312 0.57733 0.0
C2148 C 0.15689 0.62788 0.54952 0.0
C2149 C 0.17314 0.62986 0.53662 0.0
C2150 C 0.19235 0.62737 0.54426 0.0
C2151 C 0.1953 0.62423 0.56443 0.0
H2152 H 0.32485 0.15905 0.4857 0.0
H2153 H 0.38457 0.17496 0.46985 0.0
H2154 H 0.33367 0.16061 0.52068 0.0
H2155 H 0.39359 0.17643 0.50479 0.0
H2156 H 0.39303 0.20176 0.56888 0.0
H2157 H 0.38768 0.19679 0.53342 0.0
H2158 H 0.35247 0.14489 0.5462 0.0
H2159 H 0.35747 0.15041 0.58163 0.0
C2160 C 0.33989 0.16283 0.48976 0.0
C2161 C 0.35387 0.16749 0.47516 0.0
C2162 C 0.34502 0.16359 0.50977 0.0
C2163 C 0.36435 0.16875 0.51559 0.0
C2164 C 0.37847 0.17284 0.50087 0.0
C2165 C 0.37328 0.17217 0.48085 0.0
C2166 C 0.38452 0.18909 0.56396 0.0
C2167 C 0.37565 0.17643 0.57775 0.0
C2168 C 0.38144 0.1862 0.5437 0.0
C2169 C 0.36945 0.17054 0.53694 0.0
C2170 C 0.36144 0.15731 0.55089 0.0
C2171 C 0.36445 0.1603 0.57112 0.0
H2172 H 0.85193 0.35738 0.58048 0.0
H2173 H 0.80141 0.39401 0.5675 0.0
H2174 H 0.8582 0.35324 0.54507 0.0
H2175 H 0.80709 0.3895 0.53206 0.0
H2176 H 0.82928 0.38767 0.4689 0.0
H2177 H 0.82777 0.39587 0.50405 0.0
H2178 H 0.84328 0.3355 0.51855 0.0
H2179 H 0.845 0.32754 0.48338 0.0
C2180 C 0.84234 0.36472 0.56994 0.0
C2181 C 0.82623 0.37598 0.5765 0.0
C2182 C 0.84577 0.36223 0.5497 0.0
C2183 C 0.83302 0.37083 0.53566 0.0
C2184 C 0.81736 0.38283 0.54239 0.0
C2185 C 0.81404 0.38541 0.56265 0.0
C2186 C 0.8321 0.37614 0.47965 0.0
C2187 C 0.83672 0.35685 0.47352 0.0
C2188 C 0.83136 0.38084 0.49979 0.0
C2189 C 0.83524 0.36632 0.5142 0.0
C2190 C 0.84044 0.34714 0.50792 0.0
C2191 C 0.84132 0.34251 0.48779 0.0
H2192 H 0.65979 0.19672 0.5212 0.0
H2193 H 0.62758 0.14167 0.52374 0.0
H2194 H 0.65114 0.20037 0.4865 0.0
H2195 H 0.61836 0.14546 0.48888 0.0
H2196 H 0.62503 0.15037 0.42033 0.0
H2197 H 0.63099 0.14506 0.45573 0.0
H2198 H 0.62383 0.20784 0.46603 0.0
H2199 H 0.61878 0.21298 0.43067 0.0
C2200 C 0.65055 0.18556 0.51437 0.0
C2201 C 0.644 0.16914 0.52522 0.0
C2202 C 0.64553 0.18764 0.49446 0.0
C2203 C 0.63371 0.1734 0.48492 0.0
C2204 C 0.62752 0.15669 0.49572 0.0
C2205 C 0.63274 0.15452 0.51566 0.0
C2206 C 0.62443 0.16288 0.43035 0.0
C2207 C 0.62147 0.18205 0.423 0.0
C2208 C 0.62782 0.15989 0.45058 0.0
C2209 C 0.62819 0.17606 0.46374 0.0
C2210 C 0.62417 0.1951 0.45631 0.0
C2211 C 0.62104 0.19807 0.43613 0.0
H2212 H 0.8541 0.6245 0.421 0.0
H2213 H 0.79111 0.62454 0.43101 0.0
H2214 H 0.85976 0.6285 0.45676 0.0
H2215 H 0.7966 0.62833 0.46654 0.0
H2216 H 0.81378 0.61848 0.53067 0.0
H2217 H 0.81146 0.60981 0.49565 0.0
H2218 H 0.85251 0.65662 0.48134 0.0
H2219 H 0.85441 0.66564 0.51643 0.0
C2220 C 0.84154 0.62499 0.43095 0.0
C2221 C 0.82221 0.62412 0.42348 0.0
C2222 C 0.84474 0.62741 0.45129 0.0
C2223 C 0.82862 0.6287 0.4644 0.0
C2224 C 0.80931 0.62715 0.45684 0.0
C2225 C 0.80615 0.62503 0.43656 0.0
C2226 C 0.82205 0.62712 0.52 0.0
C2227 C 0.8336 0.64329 0.5261 0.0
C2228 C 0.82089 0.62202 0.50001 0.0
C2229 C 0.83161 0.6327 0.48577 0.0
C2230 C 0.84412 0.64811 0.49201 0.0
C2231 C 0.84512 0.65334 0.51203 0.0
H2232 H 0.37282 0.85674 0.52478 0.0
H2233 H 0.34035 0.80186 0.52217 0.0
H2234 H 0.38237 0.85277 0.49006 0.0
H2235 H 0.34919 0.79809 0.48753 0.0
H2236 H 0.38119 0.78541 0.43149 0.0
H2237 H 0.376 0.79038 0.46686 0.0
H2238 H 0.3704 0.8534 0.45699 0.0
H2239 H 0.37661 0.84823 0.42165 0.0
C2240 C 0.36766 0.84389 0.5167 0.0
C2241 C 0.35621 0.8294 0.52619 0.0
C2242 C 0.37305 0.84162 0.49681 0.0
C2243 C 0.36681 0.82494 0.48598 0.0
C2244 C 0.35484 0.81079 0.49549 0.0
C2245 C 0.34968 0.81296 0.51536 0.0
C2246 C 0.37923 0.80032 0.43706 0.0
C2247 C 0.37931 0.81645 0.42406 0.0
C2248 C 0.37601 0.8032 0.45724 0.0
C2249 C 0.3724 0.82227 0.46481 0.0
C2250 C 0.37327 0.83852 0.45177 0.0
C2251 C 0.37678 0.83562 0.43155 0.0
H2252 H 0.19403 0.33716 0.52163 0.0
H2253 H 0.14272 0.37487 0.52601 0.0
H2254 H 0.19721 0.34529 0.48674 0.0
H2255 H 0.14611 0.38358 0.49098 0.0
H2256 H 0.14832 0.3771 0.42225 0.0
H2257 H 0.1434 0.3712 0.45773 0.0
H2258 H 0.20682 0.37201 0.46633 0.0
H2259 H 0.21148 0.37705 0.43092 0.0
C2260 C 0.18359 0.34744 0.51513 0.0
C2261 C 0.16839 0.35572 0.52655 0.0
C2262 C 0.18542 0.35217 0.49514 0.0
C2263 C 0.17215 0.36542 0.48608 0.0
C2264 C 0.15656 0.37329 0.49744 0.0
C2265 C 0.15463 0.36837 0.51748 0.0
C2266 C 0.16109 0.3763 0.43191 0.0
C2267 C 0.18025 0.37747 0.42407 0.0
C2268 C 0.15833 0.37294 0.45219 0.0
C2269 C 0.17473 0.37082 0.46488 0.0
C2270 C 0.19386 0.37303 0.45696 0.0
C2271 C 0.19657 0.37614 0.43675 0.0
H2272 H 0.46941 0.61373 0.8311 0.0
H2273 H 0.48399 0.6744 0.84443 0.0
H2274 H 0.50456 0.60541 0.82991 0.0
H2275 H 0.51915 0.6664 0.84281 0.0
H2276 H 0.58119 0.64541 0.85169 0.0
H2277 H 0.54582 0.64975 0.85806 0.0
H2278 H 0.53253 0.61036 0.80936 0.0
H2279 H 0.56791 0.60555 0.80375 0.0
C2280 C 0.48021 0.62533 0.83346 0.0
C2281 C 0.47412 0.64479 0.83736 0.0
C2282 C 0.50033 0.62058 0.83287 0.0
C2283 C 0.51478 0.63524 0.83612 0.0
C2284 C 0.50852 0.65463 0.84051 0.0
C2285 C 0.4884 0.6593 0.8413 0.0
C2286 C 0.57058 0.6374 0.84272 0.0
C2287 C 0.57704 0.62515 0.8273 0.0
C2288 C 0.55036 0.64002 0.84617 0.0
C2289 C 0.53624 0.63062 0.83406 0.0
C2290 C 0.5429 0.61768 0.81914 0.0
C2291 C 0.56313 0.61492 0.81585 0.0
H2292 H 0.37383 0.57881 0.85553 0.0
H2293 H 0.37451 0.57009 0.79235 0.0
H2294 H 0.36988 0.54294 0.86042 0.0
H2295 H 0.37066 0.53445 0.79705 0.0
H2296 H 0.38108 0.47002 0.81322 0.0
H2297 H 0.38902 0.50521 0.81112 0.0
H2298 H 0.34242 0.51823 0.85284 0.0
H2299 H 0.33416 0.48298 0.85456 0.0
C2300 C 0.37346 0.56912 0.84277 0.0
C2301 C 0.37458 0.57697 0.8236 0.0
C2302 C 0.37106 0.54871 0.84551 0.0
C2303 C 0.36999 0.53593 0.8291 0.0
C2304 C 0.37168 0.54389 0.80997 0.0
C2305 C 0.37382 0.56423 0.80726 0.0
C2306 C 0.37228 0.48044 0.82164 0.0
C2307 C 0.35645 0.47391 0.83341 0.0
C2308 C 0.37697 0.50054 0.82061 0.0
C2309 C 0.3662 0.51447 0.83165 0.0
C2310 C 0.35102 0.50781 0.84422 0.0
C2311 C 0.34622 0.48769 0.84511 0.0
H2312 H 0.53057 0.38612 0.82934 0.0
H2313 H 0.51681 0.32583 0.84512 0.0
H2314 H 0.49535 0.39416 0.82892 0.0
H2315 H 0.48158 0.33364 0.84449 0.0
H2316 H 0.42008 0.35535 0.85595 0.0
H2317 H 0.45573 0.35127 0.86072 0.0
H2318 H 0.46654 0.38782 0.80931 0.0
H2319 H 0.43089 0.39225 0.8051 0.0
C2320 C 0.51995 0.37451 0.83235 0.0
C2321 C 0.5263 0.35523 0.83671 0.0
C2322 C 0.49979 0.37913 0.83226 0.0
C2323 C 0.48557 0.36453 0.83655 0.0
C2324 C 0.49207 0.34534 0.84138 0.0
C2325 C 0.51223 0.34079 0.8416 0.0
C2326 C 0.4302 0.36276 0.84597 0.0
C2327 C 0.42295 0.37409 0.8302 0.0
C2328 C 0.45056 0.36031 0.84855 0.0
C2329 C 0.46404 0.369 0.83525 0.0
C2330 C 0.45665 0.38107 0.81996 0.0
C2331 C 0.43627 0.38362 0.81749 0.0
H2332 H 0.607 0.43053 0.80384 0.0
H2333 H 0.64897 0.41897 0.8504 0.0
H2334 H 0.61202 0.4661 0.80795 0.0
H2335 H 0.65358 0.45454 0.85525 0.0
H2336 H 0.67677 0.5163 0.83979 0.0
H2337 H 0.66926 0.48101 0.83867 0.0
H2338 H 0.60765 0.49458 0.82796 0.0
H2339 H 0.61544 0.52985 0.82864 0.0
C2340 C 0.61694 0.43574 0.81529 0.0
C2341 C 0.62767 0.42222 0.82677 0.0
C2342 C 0.61982 0.45608 0.81772 0.0
C2343 C 0.63338 0.46328 0.83182 0.0
C2344 C 0.64337 0.44958 0.84395 0.0
C2345 C 0.64062 0.42924 0.84135 0.0
C2346 C 0.66165 0.51165 0.83719 0.0
C2347 C 0.64677 0.52569 0.83378 0.0
C2348 C 0.65727 0.49144 0.83671 0.0
C2349 C 0.63782 0.48485 0.83315 0.0
C2350 C 0.62285 0.49905 0.83028 0.0
C2351 C 0.6273 0.51926 0.83057 0.0
H2352 H 0.57237 0.40199 0.18261 0.0
H2353 H 0.58156 0.34609 0.1533 0.0
H2354 H 0.53692 0.39959 0.17625 0.0
H2355 H 0.54605 0.34264 0.14839 0.0
H2356 H 0.48129 0.34337 0.13452 0.0
H2357 H 0.51645 0.35154 0.13357 0.0
H2358 H 0.51047 0.38244 0.18933 0.0
H2359 H 0.47527 0.37581 0.18917 0.0
C2360 C 0.56674 0.38923 0.17469 0.0
C2361 C 0.57952 0.37395 0.16892 0.0
C2362 C 0.5464 0.38767 0.17128 0.0
C2363 C 0.53839 0.37064 0.16228 0.0
C2364 C 0.5515 0.356 0.15535 0.0
C2365 C 0.57186 0.35779 0.15842 0.0
C2366 C 0.48756 0.35201 0.14648 0.0
C2367 C 0.4757 0.35816 0.16239 0.0
C2368 C 0.50775 0.3566 0.14603 0.0
C2369 C 0.51655 0.36741 0.16154 0.0
C2370 C 0.50439 0.37419 0.17703 0.0
C2371 C 0.48419 0.3699 0.17727 0.0
H2372 H 0.61704 0.46912 0.16734 0.0
H2373 H 0.67856 0.48324 0.15808 0.0
H2374 H 0.60897 0.50431 0.16824 0.0
H2375 H 0.67075 0.51845 0.15936 0.0
H2376 H 0.65065 0.58063 0.14895 0.0
H2377 H 0.65525 0.54522 0.143 0.0
H2378 H 0.61287 0.53225 0.18919 0.0
H2379 H 0.60788 0.56769 0.1944 0.0
C2380 C 0.62887 0.4798 0.16584 0.0
C2381 C 0.64848 0.47355 0.16315 0.0
C2382 C 0.62426 0.49997 0.16624 0.0
C2383 C 0.63921 0.5143 0.16401 0.0
C2384 C 0.65878 0.5079 0.16084 0.0
C2385 C 0.66332 0.48774 0.16025 0.0
C2386 C 0.6421 0.57009 0.15749 0.0
C2387 C 0.62897 0.57666 0.17211 0.0
C2388 C 0.64484 0.54985 0.15427 0.0
C2389 C 0.63464 0.5358 0.1658 0.0
C2390 C 0.62084 0.54256 0.17988 0.0
C2391 C 0.61798 0.56283 0.18294 0.0
H2392 H 0.42144 0.64417 0.14752 0.0
H2393 H 0.43317 0.60752 0.19835 0.0
H2394 H 0.45699 0.64802 0.14192 0.0
H2395 H 0.46876 0.61171 0.19329 0.0
H2396 H 0.53236 0.6131 0.17159 0.0
H2397 H 0.49714 0.60516 0.17287 0.0
H2398 H 0.48317 0.66574 0.15775 0.0
H2399 H 0.5184 0.67348 0.15636 0.0
C2400 C 0.43174 0.63675 0.15731 0.0
C2401 C 0.42478 0.6256 0.17334 0.0
C2402 C 0.45205 0.63908 0.15426 0.0
C2403 C 0.46577 0.63041 0.16732 0.0
C2404 C 0.45866 0.61845 0.18284 0.0
C2405 C 0.43832 0.61605 0.18579 0.0
C2406 C 0.52171 0.62475 0.16889 0.0
C2407 C 0.52801 0.64403 0.16445 0.0
C2408 C 0.50154 0.62018 0.16946 0.0
C2409 C 0.48727 0.63482 0.16553 0.0
C2410 C 0.49371 0.65401 0.1606 0.0
C2411 C 0.51387 0.65851 0.15993 0.0
H2412 H 0.37487 0.52564 0.14713 0.0
H2413 H 0.33861 0.52235 0.19953 0.0
H2414 H 0.38386 0.49083 0.15107 0.0
H2415 H 0.34682 0.48749 0.20317 0.0
H2416 H 0.37729 0.43054 0.21647 0.0
H2417 H 0.37239 0.46603 0.21219 0.0
H2418 H 0.37202 0.45809 0.14865 0.0
H2419 H 0.37798 0.42264 0.15322 0.0
C2420 C 0.36873 0.51738 0.15941 0.0
C2421 C 0.35633 0.52669 0.17322 0.0
C2422 C 0.3738 0.49742 0.16165 0.0
C2423 C 0.36626 0.48629 0.17757 0.0
C2424 C 0.35342 0.49565 0.19107 0.0
C2425 C 0.34861 0.51563 0.18897 0.0
C2426 C 0.37652 0.43656 0.20163 0.0
C2427 C 0.37803 0.42407 0.18516 0.0
C2428 C 0.37346 0.45682 0.19913 0.0
C2429 C 0.37145 0.46499 0.18007 0.0
C2430 C 0.37367 0.45243 0.16355 0.0
C2431 C 0.37704 0.43215 0.1661 0.0
H2432 H 0.85166 0.48457 0.66437 0.0
H2433 H 0.80864 0.47148 0.61901 0.0
H2434 H 0.84973 0.51979 0.65598 0.0
H2435 H 0.80625 0.50664 0.61107 0.0
H2436 H 0.78812 0.57166 0.6269 0.0
H2437 H 0.79294 0.53601 0.63062 0.0
H2438 H 0.85623 0.54424 0.62739 0.0
H2439 H 0.85125 0.58011 0.62346 0.0
C2440 C 0.84178 0.48924 0.65264 0.0
C2441 C 0.82968 0.47542 0.64292 0.0
C2442 C 0.84076 0.50934 0.64777 0.0
C2443 C 0.82764 0.51594 0.63305 0.0
C2444 C 0.81619 0.50199 0.62275 0.0
C2445 C 0.81737 0.48191 0.62748 0.0
C2446 C 0.80303 0.56574 0.62668 0.0
C2447 C 0.81934 0.57841 0.62482 0.0
C2448 C 0.80579 0.5454 0.62875 0.0
C2449 C 0.82496 0.53738 0.62929 0.0
C2450 C 0.84131 0.55008 0.6271 0.0
C2451 C 0.8385 0.57048 0.62472 0.0
H2452 H 0.78925 0.43183 0.37578 0.0
H2453 H 0.85185 0.42065 0.37105 0.0
H2454 H 0.79495 0.46705 0.37043 0.0
H2455 H 0.85774 0.45598 0.36502 0.0
H2456 H 0.86075 0.52441 0.37057 0.0
H2457 H 0.85685 0.48926 0.37861 0.0
H2458 H 0.80382 0.48726 0.3429 0.0
H2459 H 0.80761 0.52222 0.33528 0.0
C2460 C 0.80428 0.43706 0.37375 0.0
C2461 C 0.82014 0.42372 0.37388 0.0
C2462 C 0.80756 0.45716 0.37048 0.0
C2463 C 0.82678 0.46433 0.36697 0.0
C2464 C 0.84277 0.45099 0.36779 0.0
C2465 C 0.83945 0.43081 0.37124 0.0
C2466 C 0.84832 0.51634 0.36446 0.0
C2467 C 0.8342 0.52608 0.35273 0.0
C2468 C 0.8461 0.49624 0.36901 0.0
C2469 C 0.82982 0.4855 0.36171 0.0
C2470 C 0.81618 0.49519 0.34931 0.0
C2471 C 0.81834 0.51523 0.34491 0.0
H2472 H 0.56868 0.81218 0.40011 0.0
H2473 H 0.58266 0.8403 0.34454 0.0
H2474 H 0.53353 0.82013 0.39523 0.0
H2475 H 0.54749 0.84738 0.33922 0.0
H2476 H 0.48244 0.82033 0.32896 0.0
H2477 H 0.51802 0.81849 0.33574 0.0
H2478 H 0.51002 0.85426 0.38803 0.0
H2479 H 0.47438 0.85661 0.38087 0.0
C2480 C 0.56423 0.8203 0.38703 0.0
C2481 C 0.5782 0.82531 0.37249 0.0
C2482 C 0.54421 0.82481 0.38423 0.0
C2483 C 0.53792 0.83414 0.36676 0.0
C2484 C 0.55203 0.84 0.35271 0.0
C2485 C 0.57205 0.83587 0.35571 0.0
C2486 C 0.48835 0.82791 0.34179 0.0
C2487 C 0.47582 0.83857 0.35444 0.0
C2488 C 0.50863 0.82692 0.34562 0.0
C2489 C 0.51662 0.83625 0.36238 0.0
C2490 C 0.50411 0.84696 0.37503 0.0
C2491 C 0.48385 0.84836 0.37091 0.0
H2492 H 0.18269 0.47147 0.38339 0.0
H2493 H 0.14247 0.48525 0.33576 0.0
H2494 H 0.18586 0.50668 0.391 0.0
H2495 H 0.14514 0.52056 0.34378 0.0
H2496 H 0.14508 0.58166 0.37564 0.0
H2497 H 0.13854 0.546 0.37196 0.0
H2498 H 0.20145 0.53482 0.37077 0.0
H2499 H 0.20782 0.57026 0.37418 0.0
C2500 C 0.17467 0.48207 0.37444 0.0
C2501 C 0.16303 0.47578 0.35843 0.0
C2502 C 0.17631 0.50217 0.37894 0.0
C2503 C 0.16595 0.51632 0.3678 0.0
C2504 C 0.15328 0.50993 0.35259 0.0
C2505 C 0.15183 0.4898 0.34796 0.0
C2506 C 0.1574 0.57144 0.37482 0.0
C2507 C 0.17691 0.57848 0.37526 0.0
C2508 C 0.1537 0.55116 0.37261 0.0
C2509 C 0.1695 0.5377 0.37114 0.0
C2510 C 0.189 0.54483 0.37209 0.0
C2511 C 0.19266 0.56505 0.37397 0.0
H2512 H 0.51443 0.14554 0.33368 0.0
H2513 H 0.52982 0.18131 0.38427 0.0
H2514 H 0.47945 0.14733 0.34308 0.0
H2515 H 0.49493 0.18344 0.39349 0.0
H2516 H 0.43102 0.20702 0.38088 0.0
H2517 H 0.4664 0.20072 0.37703 0.0
H2518 H 0.45449 0.13832 0.36976 0.0
H2519 H 0.41888 0.14481 0.37378 0.0
C2520 C 0.5103 0.15368 0.34686 0.0
C2521 C 0.52464 0.16396 0.35782 0.0
C2522 C 0.49035 0.15462 0.3523 0.0
C2523 C 0.48447 0.16577 0.36886 0.0
C2524 C 0.499 0.17509 0.38043 0.0
C2525 C 0.51892 0.17403 0.37505 0.0
C2526 C 0.43609 0.19193 0.3789 0.0
C2527 C 0.42248 0.17634 0.37781 0.0
C2528 C 0.45628 0.1883 0.37672 0.0
C2529 C 0.4632 0.16902 0.37312 0.0
C2530 C 0.44953 0.15332 0.37246 0.0
C2531 C 0.42928 0.15696 0.37489 0.0
H2532 H 0.1421 0.52371 0.62789 0.0
H2533 H 0.19213 0.52087 0.66741 0.0
H2534 H 0.14618 0.48855 0.62014 0.0
H2535 H 0.19592 0.48579 0.66031 0.0
H2536 H 0.21212 0.42965 0.62963 0.0
H2537 H 0.20678 0.46495 0.6346 0.0
H2538 H 0.1435 0.45551 0.63264 0.0
H2539 H 0.14914 0.42013 0.62678 0.0
C2540 C 0.15386 0.51547 0.63503 0.0
C2541 C 0.16707 0.52501 0.6479 0.0
C2542 C 0.15618 0.49535 0.63066 0.0
C2543 C 0.17159 0.48435 0.63934 0.0
C2544 C 0.18429 0.49388 0.65283 0.0
C2545 C 0.1821 0.51398 0.65699 0.0
C2546 C 0.1971 0.43526 0.63 0.0
C2547 C 0.18103 0.42237 0.62785 0.0
C2548 C 0.19399 0.45542 0.63306 0.0
C2549 C 0.17468 0.46309 0.63439 0.0
C2550 C 0.15856 0.45017 0.63157 0.0
C2551 C 0.16173 0.42995 0.62825 0.0
H2552 H 0.58069 0.16281 0.65459 0.0
H2553 H 0.56927 0.18961 0.59787 0.0
H2554 H 0.54545 0.15722 0.65927 0.0
H2555 H 0.53402 0.18262 0.60159 0.0
H2556 H 0.47215 0.19321 0.62589 0.0
H2557 H 0.50723 0.19501 0.6188 0.0
H2558 H 0.51649 0.14072 0.65145 0.0
H2559 H 0.48147 0.1401 0.66007 0.0
C2560 C 0.57055 0.16723 0.64299 0.0
C2561 C 0.57753 0.17711 0.62614 0.0
C2562 C 0.55034 0.16378 0.6455 0.0
C2563 C 0.53666 0.16973 0.63095 0.0
C2564 C 0.54395 0.17836 0.61341 0.0
C2565 C 0.56417 0.18214 0.6111 0.0
C2566 C 0.48176 0.18203 0.63212 0.0
C2567 C 0.4742 0.1671 0.64443 0.0
C2568 C 0.5019 0.18272 0.62756 0.0
C2569 C 0.51494 0.16811 0.63467 0.0
C2570 C 0.5071 0.15255 0.64612 0.0
C2571 C 0.48698 0.15209 0.65097 0.0
H2572 H 0.52613 0.85611 0.6205 0.0
H2573 H 0.51736 0.8183 0.67119 0.0
H2574 H 0.4905 0.85434 0.61305 0.0
H2575 H 0.48179 0.81706 0.66412 0.0
H2576 H 0.4176 0.842 0.65524 0.0
H2577 H 0.45291 0.8485 0.6605 0.0
H2578 H 0.46656 0.81869 0.60574 0.0
H2579 H 0.43125 0.81131 0.60096 0.0
C2580 C 0.51651 0.84763 0.63012 0.0
C2581 C 0.52432 0.83726 0.64634 0.0
C2582 C 0.49627 0.84658 0.62583 0.0
C2583 C 0.48358 0.83561 0.63807 0.0
C2584 C 0.49135 0.82567 0.65456 0.0
C2585 C 0.51161 0.82632 0.65855 0.0
C2586 C 0.42817 0.83691 0.64432 0.0
C2587 C 0.42188 0.82577 0.62796 0.0
C2588 C 0.44826 0.84071 0.64727 0.0
C2589 C 0.46229 0.83395 0.63357 0.0
C2590 C 0.45591 0.82406 0.61645 0.0
C2591 C 0.43581 0.81989 0.61371 0.0
H2592 H 0.14869 0.38302 0.29731 0.0
H2593 H 0.18271 0.32891 0.30025 0.0
H2594 H 0.13928 0.37524 0.26339 0.0
H2595 H 0.17302 0.32106 0.26643 0.0
H2596 H 0.17465 0.32655 0.19947 0.0
H2597 H 0.18158 0.33478 0.23384 0.0
H2598 H 0.12074 0.35247 0.24202 0.0
H2599 H 0.11378 0.3445 0.20752 0.0
C2600 C 0.15383 0.36925 0.29091 0.0
C2601 C 0.16662 0.35668 0.30152 0.0
C2602 C 0.14843 0.36481 0.27142 0.0
C2603 C 0.15571 0.34773 0.26208 0.0
C2604 C 0.16754 0.33459 0.27306 0.0
C2605 C 0.1729 0.33898 0.29256 0.0
C2606 C 0.16279 0.33247 0.20846 0.0
C2607 C 0.14363 0.33477 0.20067 0.0
C2608 C 0.16671 0.33695 0.22827 0.0
C2609 C 0.15162 0.34393 0.24077 0.0
C2610 C 0.13269 0.34711 0.23278 0.0
C2611 C 0.12873 0.34256 0.21297 0.0
H2612 H 0.67246 0.18422 0.30099 0.0
H2613 H 0.61611 0.15462 0.29456 0.0
H2614 H 0.68142 0.17422 0.26749 0.0
H2615 H 0.6248 0.14524 0.26102 0.0
H2616 H 0.682 0.17365 0.20015 0.0
H2617 H 0.67259 0.18243 0.23388 0.0
H2618 H 0.64553 0.12497 0.24125 0.0
H2619 H 0.6543 0.11645 0.2075 0.0
C2620 C 0.66208 0.17538 0.29257 0.0
C2621 C 0.64354 0.17029 0.30053 0.0
C2622 C 0.66711 0.16989 0.27323 0.0
C2623 C 0.65372 0.15919 0.26139 0.0
C2624 C 0.63555 0.15337 0.26969 0.0
C2625 C 0.63056 0.15879 0.289 0.0
C2626 C 0.67375 0.16302 0.20885 0.0
C2627 C 0.66894 0.14434 0.20104 0.0
C2628 C 0.66858 0.16795 0.2283 0.0
C2629 C 0.65853 0.15431 0.24043 0.0
C2630 C 0.65313 0.13591 0.23236 0.0
C2631 C 0.6582 0.13102 0.21293 0.0
H2632 H 0.88441 0.65799 0.20667 0.0
H2633 H 0.82591 0.68295 0.19983 0.0
H2634 H 0.87677 0.64934 0.24073 0.0
H2635 H 0.81811 0.67378 0.23383 0.0
H2636 H 0.8175 0.67531 0.30083 0.0
H2637 H 0.82691 0.68396 0.2671 0.0
H2638 H 0.85725 0.628 0.2612 0.0
H2639 H 0.84834 0.61957 0.29499 0.0
C2640 C 0.86977 0.66132 0.21228 0.0
C2641 C 0.8558 0.67126 0.20045 0.0
C2642 C 0.86539 0.65634 0.23188 0.0
C2643 C 0.84692 0.66109 0.24015 0.0
C2644 C 0.83266 0.67031 0.22808 0.0
C2645 C 0.83704 0.67533 0.20848 0.0
C2646 C 0.82651 0.66501 0.29249 0.0
C2647 C 0.83208 0.6467 0.30068 0.0
C2648 C 0.83168 0.66985 0.27303 0.0
C2649 C 0.84255 0.65653 0.26129 0.0
C2650 C 0.84893 0.63866 0.2698 0.0
C2651 C 0.8438 0.63382 0.28925 0.0
H2652 H 0.32672 0.81815 0.30336 0.0
H2653 H 0.38205 0.84959 0.29682 0.0
H2654 H 0.31693 0.82866 0.27029 0.0
H2655 H 0.37246 0.8596 0.26364 0.0
H2656 H 0.31661 0.82876 0.20295 0.0
H2657 H 0.32629 0.82062 0.23671 0.0
H2658 H 0.35052 0.87933 0.24398 0.0
H2659 H 0.34133 0.88733 0.21011 0.0
C2660 C 0.33669 0.82753 0.29503 0.0
C2661 C 0.35524 0.8329 0.30279 0.0
C2662 C 0.33117 0.83335 0.27594 0.0
C2663 C 0.34406 0.84467 0.26413 0.0
C2664 C 0.36213 0.85094 0.2723 0.0
C2665 C 0.36763 0.84517 0.29139 0.0
C2666 C 0.32423 0.83987 0.21164 0.0
C2667 C 0.32816 0.85871 0.20374 0.0
C2668 C 0.32956 0.83528 0.23111 0.0
C2669 C 0.33893 0.84942 0.2432 0.0
C2670 C 0.34342 0.86804 0.2351 0.0
C2671 C 0.33813 0.87263 0.21562 0.0
H2672 H 0.1733 0.67647 0.80104 0.0
H2673 H 0.11254 0.65825 0.79271 0.0
H2674 H 0.18049 0.66804 0.76678 0.0
H2675 H 0.11979 0.65002 0.7583 0.0
H2676 H 0.1489 0.61901 0.70361 0.0
H2677 H 0.13897 0.627 0.73734 0.0
H2678 H 0.17176 0.68174 0.73403 0.0
H2679 H 0.18193 0.67371 0.70039 0.0
C2680 C 0.16151 0.67045 0.79201 0.0
C2681 C 0.1423 0.66814 0.79968 0.0
C2682 C 0.16559 0.66584 0.77227 0.0
C2683 C 0.15061 0.65873 0.75972 0.0
C2684 C 0.13164 0.65551 0.76759 0.0
C2685 C 0.12751 0.6602 0.78734 0.0
C2686 C 0.15372 0.63293 0.70991 0.0
C2687 C 0.16639 0.64562 0.69929 0.0
C2688 C 0.14801 0.63749 0.72928 0.0
C2689 C 0.1549 0.65481 0.73849 0.0
C2690 C 0.16659 0.66805 0.72749 0.0
C2691 C 0.17222 0.66355 0.7081 0.0
H2692 H 0.32431 0.17863 0.69836 0.0
H2693 H 0.38366 0.15651 0.70735 0.0
H2694 H 0.31572 0.16913 0.73203 0.0
H2695 H 0.37509 0.14732 0.74113 0.0
H2696 H 0.34502 0.11704 0.79487 0.0
H2697 H 0.3549 0.12509 0.76117 0.0
H2698 H 0.32388 0.18081 0.76536 0.0
H2699 H 0.31367 0.17266 0.79896 0.0
C2700 C 0.33547 0.17151 0.70739 0.0
C2701 C 0.35472 0.16844 0.70009 0.0
C2702 C 0.3306 0.16628 0.7268 0.0
C2703 C 0.34482 0.1578 0.73941 0.0
C2704 C 0.36378 0.15381 0.73183 0.0
C2705 C 0.36867 0.15908 0.71241 0.0
C2706 C 0.34051 0.13115 0.78874 0.0
C2707 C 0.32842 0.14414 0.79966 0.0
C2708 C 0.3462 0.13575 0.76938 0.0
C2709 C 0.33992 0.15344 0.76044 0.0
C2710 C 0.3286 0.16684 0.77165 0.0
C2711 C 0.32294 0.16227 0.79103 0.0
H2712 H 0.83939 0.38703 0.70685 0.0
H2713 H 0.82028 0.32651 0.69873 0.0
H2714 H 0.84754 0.37986 0.74119 0.0
H2715 H 0.82885 0.31928 0.73299 0.0
H2716 H 0.82483 0.31748 0.79956 0.0
H2717 H 0.81634 0.32718 0.76589 0.0
H2718 H 0.87002 0.36167 0.76222 0.0
H2719 H 0.87834 0.35237 0.79597 0.0
C2720 C 0.83725 0.37209 0.71225 0.0
C2721 C 0.82909 0.35737 0.69997 0.0
C2722 C 0.84191 0.368 0.73199 0.0
C2723 C 0.83856 0.34908 0.73996 0.0
C2724 C 0.83118 0.33415 0.72746 0.0
C2725 C 0.82651 0.33823 0.70771 0.0
C2726 C 0.83463 0.32748 0.79176 0.0
C2727 C 0.85235 0.33401 0.80051 0.0
C2728 C 0.82989 0.33283 0.77233 0.0
C2729 C 0.84271 0.34487 0.76119 0.0
C2730 C 0.85981 0.35237 0.77034 0.0
C2731 C 0.86456 0.34703 0.78976 0.0
H2732 H 0.65515 0.8825 0.79364 0.0
H2733 H 0.68235 0.82494 0.79997 0.0
H2734 H 0.64578 0.8744 0.75989 0.0
H2735 H 0.67245 0.81665 0.7663 0.0
H2736 H 0.61593 0.84508 0.70621 0.0
H2737 H 0.62472 0.85418 0.73987 0.0
H2738 H 0.68147 0.82563 0.73283 0.0
H2739 H 0.67249 0.81602 0.69925 0.0
C2740 C 0.65882 0.86795 0.788 0.0
C2741 C 0.66961 0.85441 0.79958 0.0
C2742 C 0.65342 0.86331 0.76858 0.0
C2743 C 0.65859 0.84497 0.76023 0.0
C2744 C 0.66863 0.83109 0.77209 0.0
C2745 C 0.67408 0.83576 0.79152 0.0
C2746 C 0.63042 0.84097 0.71169 0.0
C2747 C 0.64345 0.8297 0.69997 0.0
C2748 C 0.63546 0.84621 0.73105 0.0
C2749 C 0.65369 0.84039 0.73921 0.0
C2750 C 0.66711 0.82994 0.72719 0.0
C2751 C 0.66205 0.82466 0.70782 0.0
H2752 H 0.20769 0.11476 0.34086 0.0
H2753 H 0.20058 0.17436 0.31867 0.0
H2754 H 0.24166 0.12245 0.3504 0.0
H2755 H 0.23436 0.18201 0.32844 0.0
H2756 H 0.30101 0.183 0.32594 0.0
H2757 H 0.2676 0.1728 0.31704 0.0
H2758 H 0.26177 0.14258 0.37304 0.0
H2759 H 0.29527 0.15247 0.38187 0.0
C2760 C 0.21321 0.1296 0.33833 0.0
C2761 C 0.20137 0.1439 0.32887 0.0
C2762 C 0.23271 0.13398 0.34377 0.0
C2763 C 0.24083 0.15273 0.33984 0.0
C2764 C 0.22871 0.16727 0.33122 0.0
C2765 C 0.20924 0.16293 0.32583 0.0
C2766 C 0.29278 0.17388 0.33623 0.0
C2767 C 0.30084 0.1687 0.35469 0.0
C2768 C 0.27352 0.16822 0.33121 0.0
C2769 C 0.26188 0.15719 0.3445 0.0
C2770 C 0.27032 0.15107 0.36248 0.0
C2771 C 0.28956 0.15677 0.36753 0.0
H2772 H 0.84414 0.29483 0.38171 0.0
H2773 H 0.81257 0.3008 0.3264 0.0
H2774 H 0.85318 0.26119 0.37297 0.0
H2775 H 0.8222 0.26721 0.31737 0.0
H2776 H 0.82314 0.19981 0.31709 0.0
H2777 H 0.81458 0.2336 0.32647 0.0
H2778 H 0.87279 0.24132 0.35175 0.0
H2779 H 0.88111 0.20751 0.34301 0.0
C2780 C 0.83944 0.28914 0.36748 0.0
C2781 C 0.82754 0.3006 0.3548 0.0
C2782 C 0.84467 0.26977 0.36245 0.0
C2783 C 0.83824 0.26133 0.34455 0.0
C2784 C 0.82704 0.27306 0.33148 0.0
C2785 C 0.82173 0.29245 0.33655 0.0
C2786 C 0.834 0.20861 0.32493 0.0
C2787 C 0.85282 0.20085 0.32928 0.0
C2788 C 0.82918 0.2281 0.33008 0.0
C2789 C 0.84307 0.24034 0.33967 0.0
C2790 C 0.86164 0.23235 0.34454 0.0
C2791 C 0.86643 0.21288 0.33948 0.0
H2792 H 0.70596 0.84354 0.38253 0.0
H2793 H 0.69938 0.81459 0.32586 0.0
H2794 H 0.73946 0.85318 0.37376 0.0
H2795 H 0.73281 0.82475 0.31689 0.0
H2796 H 0.8 0.8257 0.31577 0.0
H2797 H 0.76653 0.81657 0.32564 0.0
H2798 H 0.75887 0.87396 0.35277 0.0
H2799 H 0.79242 0.88289 0.34344 0.0
C2800 C 0.71149 0.83953 0.36803 0.0
C2801 C 0.69991 0.82818 0.35495 0.0
C2802 C 0.73076 0.84509 0.363 0.0
C2803 C 0.73898 0.83953 0.34471 0.0
C2804 C 0.72712 0.8289 0.33128 0.0
C2805 C 0.70784 0.82329 0.33634 0.0
C2806 C 0.79131 0.83626 0.32413 0.0
C2807 C 0.79897 0.85505 0.32876 0.0
C2808 C 0.772 0.83112 0.32957 0.0
C2809 C 0.75986 0.84463 0.33976 0.0
C2810 C 0.76779 0.86312 0.34504 0.0
C2811 C 0.78709 0.86825 0.33966 0.0
H2812 H 0.15405 0.70793 0.3838 0.0
H2813 H 0.18314 0.70123 0.32723 0.0
H2814 H 0.14503 0.74167 0.37519 0.0
H2815 H 0.17363 0.73487 0.31843 0.0
H2816 H 0.17388 0.80183 0.31729 0.0
H2817 H 0.18248 0.76835 0.32755 0.0
H2818 H 0.12472 0.7616 0.35409 0.0
H2819 H 0.1163 0.79517 0.34435 0.0
C2820 C 0.1582 0.71349 0.36936 0.0
C2821 C 0.16942 0.70181 0.35625 0.0
C2822 C 0.15302 0.7329 0.36442 0.0
C2823 C 0.15884 0.74113 0.34623 0.0
C2824 C 0.16931 0.72918 0.33277 0.0
C2825 C 0.17454 0.70977 0.33772 0.0
C2826 C 0.16313 0.79336 0.32563 0.0
C2827 C 0.14436 0.80125 0.3299 0.0
C2828 C 0.16797 0.77404 0.33129 0.0
C2829 C 0.15417 0.76212 0.34135 0.0
C2830 C 0.13575 0.77034 0.34642 0.0
C2831 C 0.13092 0.78965 0.34081 0.0
H2832 H 0.2943 0.84439 0.61797 0.0
H2833 H 0.30067 0.81626 0.67507 0.0
H2834 H 0.26077 0.85421 0.62651 0.0
H2835 H 0.26724 0.82657 0.68379 0.0
H2836 H 0.20017 0.8268 0.68442 0.0
H2837 H 0.2337 0.81789 0.67471 0.0
H2838 H 0.24103 0.87518 0.64729 0.0
H2839 H 0.20737 0.88393 0.65654 0.0
C2840 C 0.28872 0.84061 0.63251 0.0
C2841 C 0.30023 0.82941 0.64578 0.0
C2842 C 0.26944 0.84627 0.63741 0.0
C2843 C 0.26116 0.84094 0.65573 0.0
C2844 C 0.27298 0.83052 0.66936 0.0
C2845 C 0.29227 0.82482 0.66445 0.0
C2846 C 0.20879 0.8374 0.67604 0.0
C2847 C 0.20101 0.85612 0.67132 0.0
C2848 C 0.22814 0.83238 0.67069 0.0
C2849 C 0.24022 0.84593 0.6605 0.0
C2850 C 0.23216 0.86433 0.65506 0.0
C2851 C 0.21279 0.86935 0.66038 0.0
H2852 H 0.11787 0.20561 0.65402 0.0
H2853 H 0.17414 0.1984 0.68357 0.0
H2854 H 0.12694 0.23914 0.64481 0.0
H2855 H 0.18345 0.23187 0.6738 0.0
H2856 H 0.15757 0.29267 0.61653 0.0
H2857 H 0.14814 0.25894 0.62467 0.0
H2858 H 0.17466 0.26541 0.68248 0.0
H2859 H 0.18462 0.29905 0.67415 0.0
C2860 C 0.13236 0.21101 0.65823 0.0
C2861 C 0.14522 0.19926 0.66966 0.0
C2862 C 0.13757 0.2303 0.65291 0.0
C2863 C 0.15582 0.23835 0.65879 0.0
C2864 C 0.16908 0.2263 0.66942 0.0
C2865 C 0.16384 0.207 0.6748 0.0
C2866 C 0.16119 0.28705 0.6311 0.0
C2867 C 0.17195 0.29864 0.64465 0.0
C2868 C 0.15576 0.26763 0.63576 0.0
C2869 C 0.16086 0.25932 0.65413 0.0
C2870 C 0.1709 0.27117 0.668 0.0
C2871 C 0.17639 0.29058 0.66332 0.0
H2872 H 0.8009 0.17692 0.67757 0.0
H2873 H 0.79182 0.11641 0.65887 0.0
H2874 H 0.76684 0.1847 0.66875 0.0
H2875 H 0.75766 0.12417 0.65042 0.0
H2876 H 0.70347 0.15244 0.61924 0.0
H2877 H 0.73715 0.14283 0.62756 0.0
H2878 H 0.73375 0.17727 0.68129 0.0
H2879 H 0.70014 0.18725 0.67281 0.0
C2880 C 0.79175 0.16531 0.67138 0.0
C2881 C 0.79916 0.14601 0.669 0.0
C2882 C 0.77211 0.16973 0.66656 0.0
C2883 C 0.75941 0.15498 0.65919 0.0
C2884 C 0.76704 0.13589 0.65603 0.0
C2885 C 0.78667 0.13146 0.66087 0.0
C2886 C 0.70974 0.15774 0.633 0.0
C2887 C 0.69907 0.17076 0.64528 0.0
C2888 C 0.7291 0.1522 0.63777 0.0
C2889 C 0.73828 0.15954 0.65492 0.0
C2890 C 0.72727 0.17172 0.66772 0.0
C2891 C 0.70788 0.17724 0.66298 0.0
H2892 H 0.81626 0.7015 0.6739 0.0
H2893 H 0.84267 0.70854 0.61606 0.0
H2894 H 0.82624 0.73508 0.68246 0.0
H2895 H 0.85222 0.74221 0.62451 0.0
H2896 H 0.82607 0.8021 0.68383 0.0
H2897 H 0.81696 0.7687 0.67372 0.0
H2898 H 0.87371 0.76182 0.64514 0.0
H2899 H 0.88267 0.79531 0.65482 0.0
C2900 C 0.82437 0.71009 0.66307 0.0
C2901 C 0.8286 0.70225 0.64426 0.0
C2902 C 0.82987 0.72946 0.6679 0.0
C2903 C 0.83975 0.74149 0.65406 0.0
C2904 C 0.84469 0.73338 0.63555 0.0
C2905 C 0.8392 0.71401 0.63072 0.0
C2906 C 0.83649 0.79362 0.6751 0.0
C2907 C 0.85515 0.80145 0.67023 0.0
C2908 C 0.83136 0.77435 0.66951 0.0
C2909 C 0.84473 0.76243 0.6589 0.0
C2910 C 0.86302 0.77058 0.65325 0.0
C2911 C 0.86815 0.78984 0.65883 0.0
H2912 H 0.32875 0.3008 0.18365 0.0
H2913 H 0.38517 0.29569 0.15392 0.0
H2914 H 0.32054 0.26714 0.17371 0.0
H2915 H 0.37705 0.26192 0.14434 0.0
H2916 H 0.32187 0.2002 0.17459 0.0
H2917 H 0.33158 0.23392 0.18285 0.0
H2918 H 0.35542 0.24157 0.12406 0.0
H2919 H 0.34608 0.20775 0.11586 0.0
C2920 C 0.3393 0.29265 0.17476 0.0
C2921 C 0.35768 0.301 0.16969 0.0
C2922 C 0.33469 0.27323 0.16928 0.0
C2923 C 0.34831 0.26169 0.15857 0.0
C2924 C 0.36623 0.27038 0.15259 0.0
C2925 C 0.37086 0.28979 0.15808 0.0
C2926 C 0.32951 0.20891 0.16352 0.0
C2927 C 0.33308 0.20122 0.14452 0.0
C2928 C 0.33484 0.22836 0.16818 0.0
C2929 C 0.34392 0.24058 0.15399 0.0
C2930 C 0.34844 0.23257 0.13534 0.0
C2931 C 0.34309 0.21313 0.13066 0.0
H2932 H 0.34542 0.79396 0.88585 0.0
H2933 H 0.32376 0.80271 0.82628 0.0
H2934 H 0.35428 0.76002 0.87761 0.0
H2935 H 0.33296 0.76886 0.81803 0.0
H2936 H 0.32779 0.70192 0.81699 0.0
H2937 H 0.32046 0.73591 0.82657 0.0
H2938 H 0.37607 0.73919 0.85787 0.0
H2939 H 0.38329 0.70513 0.84864 0.0
C2940 C 0.34292 0.78882 0.87087 0.0
C2941 C 0.33371 0.80109 0.85678 0.0
C2942 C 0.34799 0.76931 0.86617 0.0
C2943 C 0.34397 0.76159 0.84728 0.0
C2944 C 0.3358 0.77419 0.83287 0.0
C2945 C 0.33076 0.79371 0.83755 0.0
C2946 C 0.33831 0.70974 0.82621 0.0
C2947 C 0.35616 0.70075 0.83196 0.0
C2948 C 0.33422 0.72933 0.83148 0.0
C2949 C 0.34785 0.7404 0.84269 0.0
C2950 C 0.36525 0.73111 0.84925 0.0
C2951 C 0.36937 0.71154 0.84394 0.0
H2952 H 0.30015 0.32561 0.82248 0.0
H2953 H 0.2916 0.38599 0.84186 0.0
H2954 H 0.26581 0.31823 0.83044 0.0
H2955 H 0.25715 0.3786 0.84954 0.0
H2956 H 0.20221 0.34991 0.87951 0.0
H2957 H 0.23608 0.35948 0.8719 0.0
H2958 H 0.23307 0.32668 0.81713 0.0
H2959 H 0.19925 0.31678 0.82486 0.0
C2960 C 0.29105 0.33727 0.82864 0.0
C2961 C 0.2987 0.35643 0.83146 0.0
C2962 C 0.27127 0.33309 0.83297 0.0
C2963 C 0.25864 0.34792 0.8403 0.0
C2964 C 0.26648 0.36684 0.84392 0.0
C2965 C 0.28627 0.37106 0.83954 0.0
C2966 C 0.20862 0.34497 0.86567 0.0
C2967 C 0.198 0.33242 0.85287 0.0
C2968 C 0.22807 0.35049 0.86132 0.0
C2969 C 0.2374 0.34357 0.84408 0.0
C2970 C 0.22644 0.3319 0.83076 0.0
C2971 C 0.20696 0.32642 0.83508 0.0
H2972 H 0.61531 0.2928 0.84448 0.0
H2973 H 0.67351 0.29915 0.81871 0.0
H2974 H 0.62325 0.25898 0.85408 0.0
H2975 H 0.68154 0.26546 0.82869 0.0
H2976 H 0.65333 0.20539 0.88465 0.0
H2977 H 0.64375 0.23898 0.87578 0.0
H2978 H 0.67212 0.2321 0.81893 0.0
H2979 H 0.68206 0.19865 0.82788 0.0
C2980 C 0.62993 0.28713 0.84114 0.0
C2981 C 0.64373 0.29873 0.8307 0.0
C2982 C 0.63447 0.2677 0.84667 0.0
C2983 C 0.65292 0.25939 0.84189 0.0
C2984 C 0.66701 0.27125 0.83219 0.0
C2985 C 0.66248 0.29067 0.82667 0.0
C2986 C 0.65727 0.21089 0.87012 0.0
C2987 C 0.66861 0.19929 0.85704 0.0
C2988 C 0.65177 0.2302 0.86505 0.0
C2989 C 0.65746 0.23837 0.84678 0.0
C2990 C 0.66792 0.22643 0.83332 0.0
C2991 C 0.67342 0.20714 0.83838 0.0
H2992 H 0.79315 0.65489 0.88218 0.0
H2993 H 0.7991 0.68573 0.82645 0.0
H2994 H 0.75951 0.64568 0.87354 0.0
H2995 H 0.7655 0.676 0.81758 0.0
H2996 H 0.70614 0.61709 0.84292 0.0
H2997 H 0.73985 0.62562 0.85201 0.0
H2998 H 0.73187 0.68398 0.82717 0.0
H2999 H 0.6982 0.67528 0.81755 0.0
C3000 C 0.78744 0.65942 0.86791 0.0
C3001 C 0.79889 0.67115 0.85505 0.0
C3002 C 0.76809 0.65409 0.86294 0.0
C3003 C 0.75966 0.66029 0.84496 0.0
C3004 C 0.77137 0.67134 0.83175 0.0
C3005 C 0.79075 0.6767 0.83673 0.0
C3006 C 0.71143 0.63185 0.83959 0.0
C3007 C 0.69939 0.64546 0.82941 0.0
C3008 C 0.73082 0.63674 0.84484 0.0
C3009 C 0.7387 0.65541 0.84012 0.0
C3010 C 0.72643 0.66931 0.83064 0.0
C3011 C 0.70701 0.6644 0.82535 0.0
H3012 H 0.68381 0.80026 0.17443 0.0
H3013 H 0.65451 0.79424 0.11787 0.0
H3014 H 0.67447 0.76644 0.18278 0.0
H3015 H 0.64562 0.76035 0.12606 0.0
H3016 H 0.61789 0.70579 0.15586 0.0
H3017 H 0.6256 0.73984 0.14714 0.0
H3018 H 0.68383 0.73324 0.17264 0.0
H3019 H 0.67598 0.69926 0.18185 0.0
C3020 C 0.67517 0.79185 0.16387 0.0
C3021 C 0.67 0.80002 0.14544 0.0
C3022 C 0.67003 0.77235 0.16856 0.0
C3023 C 0.65959 0.76054 0.15496 0.0
C3024 C 0.65362 0.76901 0.13692 0.0
C3025 C 0.65874 0.7885 0.13223 0.0
C3026 C 0.63245 0.71147 0.15941 0.0
C3027 C 0.64628 0.69973 0.16966 0.0
C3028 C 0.63687 0.73104 0.15438 0.0
C3029 C 0.65523 0.7394 0.15943 0.0
C3030 C 0.66936 0.72742 0.16894 0.0
C3031 C 0.66495 0.70783 0.17399 0.0
H3032 H 0.29601 0.61698 0.15532 0.0
H3033 H 0.30225 0.676 0.17924 0.0
H3034 H 0.26176 0.62421 0.14652 0.0
H3035 H 0.26809 0.68319 0.17026 0.0
H3036 H 0.20116 0.68096 0.17517 0.0
H3037 H 0.23531 0.67199 0.18247 0.0
H3038 H 0.24071 0.64503 0.12481 0.0
H3039 H 0.20648 0.6538 0.11749 0.0
C3040 C 0.29022 0.63161 0.15839 0.0
C3041 C 0.30191 0.64587 0.16811 0.0
C3042 C 0.27056 0.63573 0.15335 0.0
C3043 C 0.26211 0.65415 0.15802 0.0
C3044 C 0.27405 0.6687 0.16687 0.0
C3045 C 0.29373 0.66465 0.17179 0.0
C3046 C 0.20947 0.67281 0.16415 0.0
C3047 C 0.20104 0.6682 0.1457 0.0
C3048 C 0.22914 0.66789 0.16826 0.0
C3049 C 0.24082 0.65812 0.15408 0.0
C3050 C 0.23211 0.65257 0.13603 0.0
C3051 C 0.21247 0.65761 0.13186 0.0
H3052 H 0.79515 0.34306 0.11773 0.0
H3053 H 0.80175 0.31426 0.17448 0.0
H3054 H 0.76167 0.35272 0.12649 0.0
H3055 H 0.76833 0.32446 0.18344 0.0
H3056 H 0.70845 0.38211 0.15622 0.0
H3057 H 0.74217 0.37345 0.1474 0.0
H3058 H 0.73463 0.31608 0.17457 0.0
H3059 H 0.70092 0.32495 0.18396 0.0
C3060 C 0.78964 0.33912 0.13226 0.0
C3061 C 0.8012 0.32777 0.14535 0.0
C3062 C 0.77037 0.34469 0.13728 0.0
C3063 C 0.76216 0.33915 0.15558 0.0
C3064 C 0.77402 0.32859 0.16904 0.0
C3065 C 0.7933 0.32297 0.164 0.0
C3066 C 0.71384 0.36754 0.16016 0.0
C3067 C 0.7019 0.35426 0.17088 0.0
C3068 C 0.73324 0.36257 0.15505 0.0
C3069 C 0.74124 0.34414 0.16045 0.0
C3070 C 0.72909 0.33057 0.17055 0.0
C3071 C 0.70966 0.33556 0.17571 0.0
H3072 H 0.09834 0.16915 0.23798 0.0
H3073 H 0.15185 0.20089 0.25275 0.0
H3074 H 0.09141 0.19313 0.21161 0.0
H3075 H 0.14506 0.2245 0.22619 0.0
H3076 H 0.14147 0.24235 0.16159 0.0
H3077 H 0.14265 0.21602 0.18611 0.0
H3078 H 0.08649 0.23502 0.20966 0.0
H3079 H 0.08534 0.26193 0.18529 0.0
C3080 C 0.10852 0.18132 0.23569 0.0
C3081 C 0.12571 0.18313 0.24732 0.0
C3082 C 0.10451 0.19499 0.22067 0.0
C3083 C 0.11783 0.2104 0.21684 0.0
C3084 C 0.13468 0.21256 0.22882 0.0
C3085 C 0.1385 0.19915 0.24405 0.0
C3086 C 0.12909 0.2407 0.17164 0.0
C3087 C 0.11348 0.25448 0.17173 0.0
C3088 C 0.12986 0.22568 0.18572 0.0
C3089 C 0.11489 0.22389 0.19994 0.0
C3090 C 0.09825 0.23628 0.19885 0.0
C3091 C 0.09756 0.25156 0.18483 0.0
H3092 H 0.79318 0.12848 0.26681 0.0
H3093 H 0.84015 0.10903 0.22801 0.0
H3094 H 0.76873 0.1176 0.24237 0.0
H3095 H 0.81578 0.0983 0.20374 0.0
H3096 H 0.72881 0.08589 0.19935 0.0
H3097 H 0.75548 0.08661 0.22389 0.0
H3098 H 0.79222 0.11897 0.18286 0.0
H3099 H 0.76556 0.11853 0.15856 0.0
C3100 C 0.79827 0.12173 0.2532 0.0
C3101 C 0.81859 0.1198 0.24928 0.0
C3102 C 0.78429 0.11533 0.2393 0.0
C3103 C 0.7904 0.10708 0.22119 0.0
C3104 C 0.81068 0.10465 0.21755 0.0
C3105 C 0.82461 0.11082 0.23148 0.0
C3106 C 0.74288 0.09243 0.19532 0.0
C3107 C 0.74518 0.10215 0.17708 0.0
C3108 C 0.75801 0.09308 0.20945 0.0
C3109 C 0.77578 0.10307 0.20534 0.0
C3110 C 0.77871 0.11111 0.1864 0.0
C3111 C 0.76349 0.1108 0.17246 0.0
H3112 H 0.87596 0.76791 0.15633 0.0
H3113 H 0.91307 0.73422 0.19593 0.0
H3114 H 0.87543 0.79519 0.17994 0.0
H3115 H 0.91226 0.7615 0.21981 0.0
H3116 H 0.8857 0.8449 0.22336 0.0
H3117 H 0.89616 0.82046 0.19899 0.0
H3118 H 0.88153 0.77349 0.23971 0.0
H3119 H 0.8709 0.79797 0.26422 0.0
C3120 C 0.88459 0.76666 0.16979 0.0
C3121 C 0.89456 0.749 0.17432 0.0
C3122 C 0.88424 0.78223 0.18333 0.0
C3123 C 0.89358 0.78031 0.2018 0.0
C3124 C 0.90479 0.76324 0.20573 0.0
C3125 C 0.90547 0.74777 0.19198 0.0
C3126 C 0.88488 0.82937 0.22725 0.0
C3127 C 0.87728 0.82334 0.24567 0.0
C3128 C 0.8909 0.81541 0.21326 0.0
C3129 C 0.8897 0.79513 0.21748 0.0
C3130 C 0.88283 0.78907 0.23617 0.0
C3131 C 0.87657 0.80305 0.25011 0.0
H3132 H 0.26587 0.91548 0.19739 0.0
H3133 H 0.23167 0.88034 0.15645 0.0
H3134 H 0.23841 0.91462 0.22101 0.0
H3135 H 0.20421 0.87973 0.17983 0.0
H3136 H 0.15483 0.88795 0.22373 0.0
H3137 H 0.17915 0.89946 0.19972 0.0
H3138 H 0.22627 0.88359 0.23982 0.0
H3139 H 0.20191 0.87196 0.26395 0.0
C3140 C 0.25217 0.90837 0.19307 0.0
C3141 C 0.25085 0.89794 0.17513 0.0
C3142 C 0.23658 0.90765 0.20669 0.0
C3143 C 0.21934 0.89686 0.20234 0.0
C3144 C 0.2173 0.8882 0.18356 0.0
C3145 C 0.23298 0.8886 0.17014 0.0
C3146 C 0.17037 0.88708 0.22755 0.0
C3147 C 0.17647 0.87883 0.24567 0.0
C3148 C 0.18426 0.89371 0.21379 0.0
C3149 C 0.20456 0.89248 0.21793 0.0
C3150 C 0.21068 0.88496 0.23635 0.0
C3151 C 0.19677 0.8781 0.25007 0.0
H3152 H 0.13844 0.76098 0.83892 0.0
H3153 H 0.08333 0.74044 0.81369 0.0
H3154 H 0.13971 0.78751 0.81463 0.0
H3155 H 0.08453 0.76761 0.78955 0.0
H3156 H 0.09698 0.8352 0.76332 0.0
H3157 H 0.08955 0.81073 0.78912 0.0
H3158 H 0.14247 0.77857 0.77372 0.0
H3159 H 0.14975 0.80265 0.74771 0.0
C3160 C 0.12628 0.76246 0.82857 0.0
C3161 C 0.11094 0.74837 0.82803 0.0
C3162 C 0.12709 0.77761 0.81464 0.0
C3163 C 0.11244 0.77925 0.80009 0.0
C3164 C 0.09604 0.76648 0.80064 0.0
C3165 C 0.09531 0.75106 0.81453 0.0
C3166 C 0.10689 0.82276 0.7653 0.0
C3167 C 0.12402 0.82087 0.75359 0.0
C3168 C 0.10258 0.8088 0.77999 0.0
C3169 C 0.11554 0.79298 0.7834 0.0
C3170 C 0.13234 0.79078 0.77137 0.0
C3171 C 0.13645 0.80449 0.75647 0.0
H3172 H 0.15422 0.11049 0.77469 0.0
H3173 H 0.20096 0.12818 0.73477 0.0
H3174 H 0.1788 0.09921 0.79855 0.0
H3175 H 0.22556 0.11682 0.75876 0.0
H3176 H 0.26607 0.08602 0.80114 0.0
H3177 H 0.23875 0.08627 0.7773 0.0
H3178 H 0.20306 0.11931 0.81875 0.0
H3179 H 0.23033 0.11927 0.84232 0.0
C3180 C 0.16974 0.11178 0.77089 0.0
C3181 C 0.17567 0.12046 0.75292 0.0
C3182 C 0.18378 0.10528 0.78457 0.0
C3183 C 0.20405 0.1071 0.78049 0.0
C3184 C 0.21001 0.115 0.76218 0.0
C3185 C 0.19594 0.1217 0.74854 0.0
C3186 C 0.25209 0.0926 0.80542 0.0
C3187 C 0.25026 0.10266 0.82352 0.0
C3188 C 0.23658 0.09296 0.7917 0.0
C3189 C 0.21892 0.10304 0.79609 0.0
C3190 C 0.21647 0.11137 0.81498 0.0
C3191 C 0.23205 0.11131 0.8285 0.0
H3192 H 0.89743 0.16395 0.76309 0.0
H3193 H 0.87098 0.20987 0.72725 0.0
H3194 H 0.90778 0.18865 0.7872 0.0
H3195 H 0.88153 0.23464 0.7515 0.0
H3196 H 0.88438 0.235 0.83508 0.0
H3197 H 0.88548 0.20925 0.80984 0.0
H3198 H 0.91224 0.25039 0.76893 0.0
H3199 H 0.91148 0.27617 0.79448 0.0
C3200 C 0.89407 0.17935 0.76018 0.0
C3201 C 0.88313 0.18493 0.74337 0.0
C3202 C 0.90005 0.19347 0.77401 0.0
C3203 C 0.89544 0.21351 0.77122 0.0
C3204 C 0.88546 0.21928 0.75389 0.0
C3205 C 0.87927 0.2051 0.74012 0.0
C3206 C 0.89121 0.2383 0.82096 0.0
C3207 C 0.89788 0.2575 0.81671 0.0
C3208 C 0.89181 0.2236 0.80649 0.0
C3209 C 0.89875 0.22793 0.78738 0.0
C3210 C 0.90671 0.24675 0.78353 0.0
C3211 C 0.90649 0.26139 0.79819 0.0
H3212 H 0.76725 0.87856 0.84213 0.0
H3213 H 0.73205 0.91301 0.80146 0.0
H3214 H 0.79472 0.87894 0.81879 0.0
H3215 H 0.75957 0.91315 0.77784 0.0
H3216 H 0.79784 0.87198 0.73483 0.0
H3217 H 0.77293 0.88278 0.75876 0.0
H3218 H 0.81918 0.89985 0.79937 0.0
H3219 H 0.84407 0.88916 0.77556 0.0
C3220 C 0.76568 0.88682 0.82847 0.0
C3221 C 0.74757 0.89572 0.82355 0.0
C3222 C 0.78138 0.88702 0.81509 0.0
C3223 C 0.77914 0.89585 0.79641 0.0
C3224 C 0.76157 0.90609 0.79209 0.0
C3225 C 0.74594 0.90621 0.80568 0.0
C3226 C 0.80268 0.87823 0.74877 0.0
C3227 C 0.8229 0.87949 0.75339 0.0
C3228 C 0.78844 0.88461 0.76237 0.0
C3229 C 0.79417 0.89218 0.7809 0.0
C3230 C 0.81438 0.89403 0.78523 0.0
C3231 C 0.8286 0.88787 0.77157 0.0
H3232 H 0.22873 0.11372 0.15537 0.0
H3233 H 0.26797 0.12938 0.20339 0.0
H3234 H 0.20381 0.10303 0.17914 0.0
H3235 H 0.24293 0.11848 0.2272 0.0
H3236 H 0.19802 0.08718 0.26539 0.0
H3237 H 0.22267 0.08754 0.23878 0.0
H3238 H 0.18405 0.12433 0.20363 0.0
H3239 H 0.15971 0.1243 0.23026 0.0
C3240 C 0.23216 0.11465 0.171 0.0
C3241 C 0.25026 0.12261 0.17753 0.0
C3242 C 0.21787 0.10849 0.18457 0.0
C3243 C 0.22146 0.10989 0.20496 0.0
C3244 C 0.23988 0.11702 0.21153 0.0
C3245 C 0.25413 0.12343 0.19793 0.0
C3246 C 0.19451 0.09467 0.25165 0.0
C3247 C 0.177 0.10573 0.24982 0.0
C3248 C 0.2087 0.09507 0.23657 0.0
C3249 C 0.20533 0.10615 0.2193 0.0
C3250 C 0.187 0.11562 0.21676 0.0
C3251 C 0.17304 0.11555 0.23196 0.0
H3252 H 0.87141 0.26222 0.20242 0.0
H3253 H 0.88717 0.22114 0.156 0.0
H3254 H 0.88193 0.23803 0.22721 0.0
H3255 H 0.89757 0.19706 0.18076 0.0
H3256 H 0.91184 0.19497 0.26775 0.0
H3257 H 0.91217 0.2184 0.2401 0.0
H3258 H 0.87659 0.17806 0.20562 0.0
H3259 H 0.87602 0.15488 0.23324 0.0
C3260 C 0.87728 0.24814 0.19751 0.0
C3261 C 0.87825 0.24351 0.17728 0.0
C3262 C 0.8835 0.23438 0.21168 0.0
C3263 C 0.8906 0.2157 0.20586 0.0
C3264 C 0.89212 0.21133 0.18563 0.0
C3265 C 0.88614 0.22514 0.17148 0.0
C3266 C 0.90479 0.1908 0.25397 0.0
C3267 C 0.89384 0.17317 0.2526 0.0
C3268 C 0.90478 0.2043 0.23827 0.0
C3269 C 0.89418 0.20013 0.22086 0.0
C3270 C 0.88493 0.18163 0.21884 0.0
C3271 C 0.88463 0.16834 0.23462 0.0
H3272 H 0.73413 0.87156 0.20325 0.0
H3273 H 0.77327 0.8904 0.15632 0.0
H3274 H 0.75817 0.88308 0.22774 0.0
H3275 H 0.7972 0.90181 0.18078 0.0
H3276 H 0.84168 0.88187 0.23188 0.0
H3277 H 0.81791 0.88167 0.20477 0.0
H3278 H 0.77634 0.91404 0.24091 0.0
H3279 H 0.80038 0.91449 0.26806 0.0
C3280 C 0.74774 0.87832 0.19817 0.0
C3281 C 0.75189 0.87986 0.17787 0.0
C3282 C 0.7614 0.88511 0.21217 0.0
C3283 C 0.77952 0.89338 0.20612 0.0
C3284 C 0.78337 0.89547 0.18583 0.0
C3285 C 0.76965 0.8889 0.17186 0.0
C3286 C 0.82778 0.88966 0.23373 0.0
C3287 C 0.82283 0.89817 0.25202 0.0
C3288 C 0.81415 0.88951 0.21824 0.0
C3289 C 0.79518 0.89759 0.22087 0.0
C3290 C 0.79081 0.90755 0.23861 0.0
C3291 C 0.80464 0.90802 0.25402 0.0
H3292 H 0.1197 0.83891 0.23122 0.0
H3293 H 0.08589 0.80011 0.26905 0.0
H3294 H 0.11965 0.81378 0.20532 0.0
H3295 H 0.0862 0.77468 0.24318 0.0
H3296 H 0.10817 0.76751 0.15873 0.0
H3297 H 0.09773 0.79255 0.18246 0.0
H3298 H 0.11749 0.75538 0.23048 0.0
H3299 H 0.12817 0.73021 0.20668 0.0
C3300 C 0.11166 0.82526 0.2337 0.0
C3301 C 0.10278 0.82144 0.25208 0.0
C3302 C 0.11168 0.81085 0.21891 0.0
C3303 C 0.10313 0.79222 0.22238 0.0
C3304 C 0.09302 0.78889 0.24024 0.0
C3305 C 0.09263 0.80351 0.25491 0.0
C3306 C 0.11009 0.76451 0.17435 0.0
C3307 C 0.1192 0.74694 0.18084 0.0
C3308 C 0.10408 0.77887 0.18791 0.0
C3309 C 0.10678 0.77588 0.20826 0.0
C3310 C 0.11504 0.75794 0.21485 0.0
C3311 C 0.12131 0.74363 0.20124 0.0
H3312 H 0.15689 0.89274 0.76979 0.0
H3313 H 0.20436 0.90392 0.72875 0.0
H3314 H 0.18054 0.89145 0.79695 0.0
H3315 H 0.22832 0.90055 0.75518 0.0
H3316 H 0.27 0.89388 0.80653 0.0
H3317 H 0.2458 0.90668 0.7829 0.0
H3318 H 0.20126 0.86833 0.8086 0.0
H3319 H 0.22502 0.85731 0.83303 0.0
C3320 C 0.17241 0.89541 0.76674 0.0
C3321 C 0.17886 0.89856 0.74732 0.0
C3322 C 0.1861 0.89419 0.78219 0.0
C3323 C 0.20661 0.89503 0.77833 0.0
C3324 C 0.2128 0.89985 0.75901 0.0
C3325 C 0.19902 0.90186 0.74373 0.0
C3326 C 0.25496 0.88835 0.80697 0.0
C3327 C 0.24927 0.87459 0.82138 0.0
C3328 C 0.24103 0.89561 0.79343 0.0
C3329 C 0.22129 0.88876 0.7937 0.0
C3330 C 0.21595 0.87466 0.80812 0.0
C3331 C 0.22966 0.86798 0.82198 0.0
H3332 H 0.11688 0.15894 0.76714 0.0
H3333 H 0.08585 0.2002 0.72954 0.0
H3334 H 0.11707 0.18325 0.79377 0.0
H3335 H 0.08628 0.22477 0.75621 0.0
H3336 H 0.10778 0.2286 0.84138 0.0
H3337 H 0.09672 0.20453 0.81693 0.0
H3338 H 0.11698 0.24282 0.76999 0.0
H3339 H 0.12815 0.26704 0.79449 0.0
C3340 C 0.10944 0.17297 0.76486 0.0
C3341 C 0.10134 0.17771 0.74633 0.0
C3342 C 0.10959 0.18691 0.78008 0.0
C3343 C 0.10193 0.20599 0.77694 0.0
C3344 C 0.09245 0.21022 0.75892 0.0
C3345 C 0.09197 0.19609 0.74377 0.0
C3346 C 0.10971 0.23204 0.82584 0.0
C3347 C 0.11907 0.24965 0.81986 0.0
C3348 C 0.10334 0.21823 0.81187 0.0
C3349 C 0.10597 0.2218 0.79159 0.0
C3350 C 0.11455 0.23979 0.78554 0.0
C3351 C 0.12112 0.25356 0.79955 0.0
H3352 H 0.81296 0.08569 0.74116 0.0
H3353 H 0.8379 0.14091 0.7618 0.0
H3354 H 0.78916 0.08644 0.76864 0.0
H3355 H 0.81394 0.14172 0.78865 0.0
H3356 H 0.74635 0.1503 0.80378 0.0
H3357 H 0.77219 0.14337 0.77942 0.0
H3358 H 0.79012 0.09188 0.81258 0.0
H3359 H 0.76449 0.09897 0.83734 0.0
C3360 C 0.8138 0.09761 0.75184 0.0
C3361 C 0.82711 0.1134 0.74911 0.0
C3362 C 0.80013 0.09807 0.76745 0.0
C3363 C 0.79961 0.11434 0.78036 0.0
C3364 C 0.81396 0.12918 0.77865 0.0
C3365 C 0.82769 0.12863 0.7633 0.0
C3366 C 0.75563 0.13739 0.80579 0.0
C3367 C 0.75351 0.12526 0.82251 0.0
C3368 C 0.77042 0.13347 0.79191 0.0
C3369 C 0.78308 0.11717 0.79431 0.0
C3370 C 0.78047 0.10452 0.81051 0.0
C3371 C 0.76589 0.10864 0.82463 0.0
H3372 H 0.88149 0.84285 0.76835 0.0
H3373 H 0.91308 0.80071 0.73223 0.0
H3374 H 0.88077 0.81916 0.79551 0.0
H3375 H 0.91216 0.77675 0.75946 0.0
H3376 H 0.88886 0.77498 0.8443 0.0
H3377 H 0.9004 0.7985 0.81954 0.0
H3378 H 0.88141 0.75897 0.77308 0.0
H3379 H 0.86982 0.73529 0.79789 0.0
C3380 C 0.88894 0.82876 0.76652 0.0
C3381 C 0.89736 0.82359 0.74825 0.0
C3382 C 0.88849 0.81517 0.78204 0.0
C3383 C 0.89617 0.79603 0.77948 0.0
C3384 C 0.90597 0.79136 0.76173 0.0
C3385 C 0.90673 0.80514 0.74627 0.0
C3386 C 0.8873 0.77116 0.82881 0.0
C3387 C 0.8782 0.75335 0.82304 0.0
C3388 C 0.89395 0.78465 0.81466 0.0
C3389 C 0.89183 0.78056 0.79442 0.0
C3390 C 0.88346 0.7624 0.7886 0.0
C3391 C 0.87663 0.74894 0.80279 0.0
H3392 H 0.20487 0.26677 0.14428 0.0
H3393 H 0.17196 0.25221 0.09142 0.0
H3394 H 0.22802 0.23988 0.13711 0.0
H3395 H 0.19546 0.22552 0.08415 0.0
H3396 H 0.2648 0.19597 0.08084 0.0
H3397 H 0.24023 0.22279 0.0809 0.0
H3398 H 0.21414 0.19881 0.13393 0.0
H3399 H 0.23808 0.17191 0.13378 0.0
C3400 C 0.20285 0.25816 0.13091 0.0
C3401 C 0.18653 0.26147 0.11851 0.0
C3402 C 0.21603 0.24277 0.12686 0.0
C3403 C 0.21332 0.2307 0.11016 0.0
C3404 C 0.19777 0.23471 0.09708 0.0
C3405 C 0.18437 0.24991 0.1013 0.0
C3406 C 0.25338 0.19602 0.09209 0.0
C3407 C 0.25357 0.18197 0.10747 0.0
C3408 C 0.23947 0.21143 0.09218 0.0
C3409 C 0.22572 0.21293 0.10767 0.0
C3410 C 0.22486 0.19802 0.12203 0.0
C3411 C 0.23852 0.18261 0.12185 0.0
H3412 H 0.23862 0.82971 0.86698 0.0
H3413 H 0.26484 0.80512 0.91994 0.0
H3414 H 0.21425 0.80324 0.86672 0.0
H3415 H 0.2398 0.77868 0.91976 0.0
H3416 H 0.16994 0.75181 0.90806 0.0
H3417 H 0.19419 0.77768 0.91577 0.0
H3418 H 0.22788 0.7614 0.86411 0.0
H3419 H 0.20395 0.73534 0.85647 0.0
C3420 C 0.23888 0.81897 0.87889 0.0
C3421 C 0.25387 0.81935 0.89333 0.0
C3422 C 0.22496 0.8038 0.87865 0.0
C3423 C 0.22551 0.78888 0.89299 0.0
C3424 C 0.23928 0.79008 0.9085 0.0
C3425 C 0.25345 0.80526 0.90866 0.0
C3426 C 0.18273 0.7535 0.89856 0.0
C3427 C 0.18498 0.74168 0.88155 0.0
C3428 C 0.19658 0.76822 0.90305 0.0
C3429 C 0.21271 0.77143 0.89046 0.0
C3430 C 0.21548 0.75907 0.87399 0.0
C3431 C 0.20183 0.74418 0.86966 0.0
H3432 H 0.26414 0.20349 0.86934 0.0
H3433 H 0.22379 0.15754 0.88806 0.0
H3434 H 0.24024 0.22858 0.87988 0.0
H3435 H 0.20002 0.18258 0.89847 0.0
H3436 H 0.19776 0.26971 0.91076 0.0
H3437 H 0.22162 0.24238 0.91048 0.0
H3438 H 0.18018 0.20669 0.87744 0.0
H3439 H 0.15661 0.23399 0.87745 0.0
C3440 C 0.25029 0.19876 0.87586 0.0
C3441 C 0.24577 0.17855 0.87766 0.0
C3442 C 0.2367 0.2131 0.88208 0.0
C3443 C 0.2183 0.20748 0.89002 0.0
C3444 C 0.21407 0.1873 0.89236 0.0
C3445 C 0.2277 0.17299 0.88636 0.0
C3446 C 0.1935 0.25575 0.90414 0.0
C3447 C 0.17538 0.2539 0.89412 0.0
C3448 C 0.20723 0.24023 0.90376 0.0
C3449 C 0.20281 0.22255 0.89374 0.0
C3450 C 0.18396 0.22012 0.88534 0.0
C3451 C 0.17044 0.23572 0.88538 0.0
H3452 H 0.72676 0.20525 0.90178 0.0
H3453 H 0.76743 0.15634 0.89799 0.0
H3454 H 0.75377 0.22838 0.89723 0.0
H3455 H 0.79506 0.17937 0.8955 0.0
H3456 H 0.83271 0.21925 0.85732 0.0
H3457 H 0.80779 0.19715 0.87043 0.0
H3458 H 0.78162 0.24606 0.90262 0.0
H3459 H 0.80581 0.26841 0.8878 0.0
C3460 C 0.74174 0.19955 0.90117 0.0
C3461 C 0.74512 0.17911 0.90027 0.0
C3462 C 0.75735 0.21283 0.89846 0.0
C3463 C 0.77676 0.20589 0.89528 0.0
C3464 C 0.78029 0.18537 0.89694 0.0
C3465 C 0.76455 0.17209 0.89889 0.0
C3466 C 0.82151 0.22523 0.86712 0.0
C3467 C 0.82098 0.2455 0.87137 0.0
C3468 C 0.80733 0.21249 0.875 0.0
C3469 C 0.79259 0.21956 0.88795 0.0
C3470 C 0.7924 0.23995 0.8925 0.0
C3471 C 0.80627 0.25283 0.88404 0.0
H3472 H 0.73427 0.79553 0.87018 0.0
H3473 H 0.77252 0.84254 0.8906 0.0
H3474 H 0.75827 0.77109 0.88193 0.0
H3475 H 0.79638 0.81816 0.90225 0.0
H3476 H 0.80008 0.73073 0.91382 0.0
H3477 H 0.77575 0.75759 0.91303 0.0
H3478 H 0.8179 0.79471 0.88256 0.0
H3479 H 0.84198 0.76788 0.88311 0.0
C3480 C 0.74767 0.80064 0.87733 0.0
C3481 C 0.75159 0.82096 0.87925 0.0
C3482 C 0.7613 0.78666 0.88424 0.0
C3483 C 0.77917 0.79276 0.89303 0.0
C3484 C 0.78277 0.81306 0.89549 0.0
C3485 C 0.76908 0.827 0.88878 0.0
C3486 C 0.8044 0.74492 0.90774 0.0
C3487 C 0.82288 0.74728 0.89852 0.0
C3488 C 0.79039 0.76017 0.90703 0.0
C3489 C 0.79486 0.7781 0.89748 0.0
C3490 C 0.81405 0.78108 0.89007 0.0
C3491 C 0.82788 0.76576 0.89045 0.0
H3492 H 0.79525 0.73283 0.12796 0.0
H3493 H 0.84215 0.77151 0.1081 0.0
H3494 H 0.77077 0.75739 0.11746 0.0
H3495 H 0.81772 0.79597 0.09783 0.0
H3496 H 0.76759 0.84071 0.12035 0.0
H3497 H 0.7943 0.81645 0.11989 0.0
H3498 H 0.75749 0.77643 0.08635 0.0
H3499 H 0.7308 0.80097 0.08646 0.0
C3500 C 0.80031 0.74644 0.12118 0.0
C3501 C 0.82062 0.75031 0.11905 0.0
C3502 C 0.78632 0.7604 0.115 0.0
C3503 C 0.79241 0.77854 0.10682 0.0
C3504 C 0.81267 0.78212 0.10411 0.0
C3505 C 0.82662 0.76809 0.11003 0.0
C3506 C 0.7655 0.82705 0.11221 0.0
C3507 C 0.74718 0.82269 0.10345 0.0
C3508 C 0.78075 0.81315 0.11198 0.0
C3509 C 0.77782 0.79449 0.1033 0.0
C3510 C 0.76002 0.79067 0.09327 0.0
C3511 C 0.74487 0.80478 0.09314 0.0
H3512 H 0.16333 0.76248 0.13591 0.0
H3513 H 0.19165 0.73762 0.08419 0.0
H3514 H 0.18799 0.78873 0.13682 0.0
H3515 H 0.2162 0.76445 0.08503 0.0
H3516 H 0.23938 0.83546 0.09776 0.0
H3517 H 0.21405 0.81079 0.08954 0.0
H3518 H 0.23106 0.7764 0.1405 0.0
H3519 H 0.25662 0.80074 0.14864 0.0
C3520 C 0.17445 0.76295 0.12436 0.0
C3521 C 0.17572 0.74778 0.11014 0.0
C3522 C 0.18856 0.77794 0.12496 0.0
C3523 C 0.20402 0.77827 0.1112 0.0
C3524 C 0.20435 0.76433 0.09581 0.0
C3525 C 0.19024 0.74911 0.09527 0.0
C3526 C 0.2379 0.82249 0.10706 0.0
C3527 C 0.24988 0.82006 0.12394 0.0
C3528 C 0.22349 0.80841 0.10227 0.0
C3529 C 0.22072 0.79189 0.11445 0.0
C3530 C 0.23305 0.78911 0.13093 0.0
C3531 C 0.24765 0.80299 0.13555 0.0
H3532 H 0.77135 0.15484 0.10969 0.0
H3533 H 0.7327 0.20184 0.12941 0.0
H3534 H 0.79538 0.17925 0.09846 0.0
H3535 H 0.75689 0.22629 0.11808 0.0
H3536 H 0.84063 0.22929 0.11876 0.0
H3537 H 0.81638 0.2026 0.11891 0.0
H3538 H 0.77515 0.23979 0.0873 0.0
H3539 H 0.79967 0.26652 0.0869 0.0
C3540 C 0.76786 0.17039 0.11144 0.0
C3541 C 0.75021 0.17642 0.12068 0.0
C3542 C 0.78164 0.18433 0.10496 0.0
C3543 C 0.77799 0.20462 0.10738 0.0
C3544 C 0.75997 0.21072 0.11581 0.0
C3545 C 0.74622 0.19674 0.12248 0.0
C3546 C 0.82668 0.23147 0.11115 0.0
C3547 C 0.82199 0.24991 0.10282 0.0
C3548 C 0.81278 0.21623 0.11127 0.0
C3549 C 0.7938 0.21926 0.10335 0.0
C3550 C 0.78963 0.23718 0.09366 0.0
C3551 C 0.80373 0.25235 0.09321 0.0
H3552 H 0.61428 0.73199 0.66019 0.0
H3553 H 0.58438 0.7702 0.70171 0.0
H3554 H 0.6142 0.70536 0.68451 0.0
H3555 H 0.5846 0.74355 0.72632 0.0
H3556 H 0.60472 0.65801 0.72999 0.0
H3557 H 0.59344 0.68264 0.70619 0.0
H3558 H 0.61561 0.72924 0.74383 0.0
H3559 H 0.62704 0.70457 0.76775 0.0
C3560 C 0.60702 0.73441 0.67428 0.0
C3561 C 0.59931 0.75309 0.67908 0.0
C3562 C 0.60701 0.7192 0.68823 0.0
C3563 C 0.59962 0.7225 0.70738 0.0
C3564 C 0.59054 0.74071 0.7117 0.0
C3565 C 0.59018 0.75584 0.69756 0.0
C3566 C 0.60701 0.67351 0.73335 0.0
C3567 C 0.61702 0.67934 0.75066 0.0
C3568 C 0.6005 0.68759 0.71971 0.0
C3569 C 0.60364 0.70782 0.72317 0.0
C3570 C 0.6128 0.71374 0.7409 0.0
C3571 C 0.61951 0.69962 0.75449 0.0
H3572 H 0.34189 0.61093 0.72856 0.0
H3573 H 0.29607 0.63107 0.76837 0.0
H3574 H 0.31681 0.60023 0.70499 0.0
H3575 H 0.27092 0.62026 0.74464 0.0
H3576 H 0.26602 0.62047 0.66074 0.0
H3577 H 0.2931 0.62094 0.68456 0.0
H3578 H 0.25673 0.58951 0.72665 0.0
H3579 H 0.2296 0.58877 0.70254 0.0
C3580 C 0.32646 0.61289 0.7324 0.0
C3581 C 0.32096 0.62207 0.75026 0.0
C3582 C 0.31212 0.60673 0.71888 0.0
C3583 C 0.29195 0.60939 0.72299 0.0
C3584 C 0.28638 0.61781 0.7412 0.0
C3585 C 0.30076 0.62418 0.75468 0.0
C3586 C 0.26409 0.61299 0.6748 0.0
C3587 C 0.24579 0.60455 0.67982 0.0
C3588 C 0.27955 0.6133 0.68846 0.0
C3589 C 0.2769 0.60547 0.70753 0.0
C3590 C 0.25906 0.59579 0.71209 0.0
C3591 C 0.24366 0.59514 0.69823 0.0
H3592 H 0.41857 0.23698 0.69268 0.0
H3593 H 0.36519 0.26299 0.66882 0.0
H3594 H 0.41867 0.26196 0.7191 0.0
H3595 H 0.3652 0.28735 0.69533 0.0
H3596 H 0.35517 0.29707 0.76317 0.0
H3597 H 0.36212 0.27411 0.73609 0.0
H3598 H 0.41544 0.30622 0.72208 0.0
H3599 H 0.40839 0.32957 0.74898 0.0
C3600 C 0.40726 0.24834 0.69267 0.0
C3601 C 0.3917 0.24782 0.67884 0.0
C3602 C 0.40727 0.2625 0.70785 0.0
C3603 C 0.39169 0.27615 0.70933 0.0
C3604 C 0.37718 0.27671 0.69457 0.0
C3605 C 0.37726 0.26281 0.67937 0.0
C3606 C 0.36855 0.29905 0.75458 0.0
C3607 C 0.38115 0.31519 0.75808 0.0
C3608 C 0.37247 0.28598 0.73907 0.0
C3609 C 0.38921 0.28861 0.72706 0.0
C3610 C 0.40246 0.30399 0.73122 0.0
C3611 C 0.39837 0.3173 0.74654 0.0
H3612 H 0.75878 0.41784 0.68767 0.0
H3613 H 0.73617 0.36334 0.66289 0.0
H3614 H 0.73265 0.41695 0.71292 0.0
H3615 H 0.71065 0.36237 0.68826 0.0
H3616 H 0.69876 0.35189 0.75577 0.0
H3617 H 0.72173 0.35917 0.72878 0.0
H3618 H 0.68943 0.41252 0.71523 0.0
H3619 H 0.66606 0.4051 0.74203 0.0
C3620 C 0.7479 0.40608 0.68718 0.0
C3621 C 0.74974 0.39048 0.67349 0.0
C3622 C 0.73308 0.40552 0.70168 0.0
C3623 C 0.72007 0.38936 0.70266 0.0
C3624 C 0.72077 0.37481 0.68792 0.0
C3625 C 0.73534 0.37545 0.67337 0.0
C3626 C 0.69669 0.3653 0.74723 0.0
C3627 C 0.68056 0.37785 0.7509 0.0
C3628 C 0.70974 0.3694 0.73177 0.0
C3629 C 0.70713 0.3863 0.71996 0.0
C3630 C 0.69164 0.3994 0.72418 0.0
C3631 C 0.67833 0.39511 0.73944 0.0
H3632 H 0.58557 0.23007 0.29714 0.0
H3633 H 0.6138 0.26862 0.3395 0.0
H3634 H 0.58619 0.25674 0.27254 0.0
H3635 H 0.61418 0.29523 0.31519 0.0
H3636 H 0.60617 0.34247 0.26959 0.0
H3637 H 0.5943 0.31781 0.29304 0.0
H3638 H 0.61721 0.27126 0.25577 0.0
H3639 H 0.62916 0.29597 0.23216 0.0
C3640 C 0.59107 0.2445 0.30145 0.0
C3641 C 0.59963 0.24736 0.32017 0.0
C3642 C 0.59167 0.25964 0.28732 0.0
C3643 C 0.60045 0.27794 0.2919 0.0
C3644 C 0.60724 0.28132 0.31125 0.0
C3645 C 0.60698 0.26612 0.3252 0.0
C3646 C 0.60851 0.32697 0.26623 0.0
C3647 C 0.61885 0.32117 0.24912 0.0
C3648 C 0.60166 0.31288 0.27967 0.0
C3649 C 0.60482 0.29265 0.27623 0.0
C3650 C 0.61435 0.28676 0.25868 0.0
C3651 C 0.62138 0.3009 0.24528 0.0
H3652 H 0.73407 0.61981 0.33978 0.0
H3653 H 0.77184 0.58756 0.29962 0.0
H3654 H 0.70751 0.6192 0.31537 0.0
H3655 H 0.74527 0.58727 0.27493 0.0
H3656 H 0.66006 0.60735 0.27019 0.0
H3657 H 0.68464 0.59722 0.29455 0.0
H3658 H 0.73129 0.61806 0.25624 0.0
H3659 H 0.70666 0.62839 0.23176 0.0
C3660 C 0.73642 0.61199 0.32598 0.0
C3661 C 0.75496 0.60373 0.32156 0.0
C3662 C 0.72125 0.61167 0.31199 0.0
C3663 C 0.72446 0.6034 0.29319 0.0
C3664 C 0.74252 0.59387 0.28928 0.0
C3665 C 0.7576 0.59383 0.30347 0.0
C3666 C 0.67557 0.60958 0.26681 0.0
C3667 C 0.68143 0.61889 0.24913 0.0
C3668 C 0.68961 0.60374 0.28078 0.0
C3669 C 0.70982 0.60683 0.27726 0.0
C3670 C 0.71578 0.6153 0.25921 0.0
C3671 C 0.7017 0.62138 0.2453 0.0
H3672 H 0.41446 0.77517 0.29528 0.0
H3673 H 0.38877 0.73359 0.33638 0.0
H3674 H 0.41464 0.74955 0.26957 0.0
H3675 H 0.38924 0.70803 0.31096 0.0
H3676 H 0.37266 0.70933 0.22856 0.0
H3677 H 0.38387 0.7339 0.25271 0.0
H3678 H 0.41046 0.68754 0.28767 0.0
H3679 H 0.39939 0.66304 0.2637 0.0
C3680 C 0.40968 0.76033 0.29905 0.0
C3681 C 0.40161 0.75628 0.31777 0.0
C3682 C 0.40955 0.74578 0.28429 0.0
C3683 C 0.40177 0.7269 0.28823 0.0
C3684 C 0.39542 0.72241 0.30752 0.0
C3685 C 0.39519 0.73702 0.32209 0.0
C3686 C 0.38114 0.70443 0.24125 0.0
C3687 C 0.38489 0.68422 0.24434 0.0
C3688 C 0.38772 0.7185 0.25497 0.0
C3689 C 0.398 0.71258 0.27207 0.0
C3690 C 0.40249 0.69248 0.27467 0.0
C3691 C 0.3961 0.67848 0.26092 0.0
H3692 H 0.26571 0.3992 0.34314 0.0
H3693 H 0.2257 0.39878 0.29356 0.0
H3694 H 0.29381 0.39719 0.32062 0.0
H3695 H 0.25328 0.39472 0.27101 0.0
H3696 H 0.30639 0.38741 0.23207 0.0
H3697 H 0.28105 0.40147 0.25362 0.0
H3698 H 0.30825 0.3723 0.30383 0.0
H3699 H 0.33421 0.35997 0.28249 0.0
C3700 C 0.26306 0.39925 0.32733 0.0
C3701 C 0.24371 0.39938 0.31998 0.0
C3702 C 0.27908 0.39759 0.31437 0.0
C3703 C 0.27598 0.395 0.29387 0.0
C3704 C 0.25653 0.39676 0.28654 0.0
C3705 C 0.2406 0.39916 0.29948 0.0
C3706 C 0.30683 0.38415 0.24776 0.0
C3707 C 0.3221 0.37256 0.25567 0.0
C3708 C 0.2923 0.39216 0.26017 0.0
C3709 C 0.29242 0.38822 0.28069 0.0
C3710 C 0.30778 0.37637 0.28836 0.0
C3711 C 0.32257 0.36894 0.27607 0.0
H3712 H 0.6564 0.62375 0.73254 0.0
H3713 H 0.69638 0.58768 0.7669 0.0
H3714 H 0.68029 0.62455 0.70549 0.0
H3715 H 0.72052 0.58879 0.73988 0.0
H3716 H 0.72451 0.61412 0.65632 0.0
H3717 H 0.70007 0.60357 0.68065 0.0
H3718 H 0.7398 0.62015 0.72782 0.0
H3719 H 0.76435 0.63092 0.70344 0.0
C3720 C 0.67001 0.61541 0.73399 0.0
C3721 C 0.67455 0.60564 0.75176 0.0
C3722 C 0.68371 0.61591 0.71856 0.0
C3723 C 0.70233 0.60695 0.72075 0.0
C3724 C 0.70632 0.59595 0.73794 0.0
C3725 C 0.69241 0.59511 0.75326 0.0
C3726 C 0.72816 0.61536 0.67187 0.0
C3727 C 0.74631 0.62353 0.67798 0.0
C3728 C 0.71415 0.60929 0.68577 0.0
C3729 C 0.71808 0.61099 0.70607 0.0
C3730 C 0.7365 0.61846 0.71223 0.0
C3731 C 0.75046 0.62479 0.6983 0.0
H3732 H 0.38049 0.65718 0.73444 0.0
H3733 H 0.41332 0.69884 0.77 0.0
H3734 H 0.38003 0.68072 0.70713 0.0
H3735 H 0.41262 0.72266 0.74266 0.0
H3736 H 0.38879 0.72463 0.65808 0.0
H3737 H 0.40005 0.70098 0.68285 0.0
H3738 H 0.38183 0.74087 0.72929 0.0
H3739 H 0.37048 0.76467 0.70447 0.0
C3740 C 0.38827 0.6711 0.7361 0.0
C3741 C 0.39696 0.67621 0.75427 0.0
C3742 C 0.38796 0.68461 0.72051 0.0
C3743 C 0.39605 0.70361 0.72291 0.0
C3744 C 0.40612 0.70817 0.74053 0.0
C3745 C 0.40675 0.69446 0.75605 0.0
C3746 C 0.38735 0.72849 0.67357 0.0
C3747 C 0.37853 0.74645 0.67933 0.0
C3748 C 0.39384 0.71493 0.68772 0.0
C3749 C 0.39185 0.7191 0.70796 0.0
C3750 C 0.38377 0.73739 0.71376 0.0
C3751 C 0.37708 0.75091 0.69958 0.0
H3752 H 0.34067 0.36227 0.7391 0.0
H3753 H 0.31376 0.41609 0.76088 0.0
H3754 H 0.31663 0.36107 0.71231 0.0
H3755 H 0.28988 0.41497 0.73349 0.0
H3756 H 0.26487 0.40171 0.66473 0.0
H3757 H 0.29072 0.40966 0.68897 0.0
H3758 H 0.27472 0.35801 0.72285 0.0
H3759 H 0.24864 0.35019 0.69899 0.0
C3760 C 0.33004 0.37421 0.73782 0.0
C3761 C 0.3289 0.3891 0.75233 0.0
C3762 C 0.31627 0.37344 0.72251 0.0
C3763 C 0.30132 0.38772 0.7212 0.0
C3764 C 0.30132 0.40377 0.73438 0.0
C3765 C 0.31505 0.40446 0.74992 0.0
C3766 C 0.26673 0.39218 0.67749 0.0
C3767 C 0.25483 0.37525 0.67995 0.0
C3768 C 0.28144 0.3968 0.69131 0.0
C3769 C 0.28466 0.38434 0.70756 0.0
C3770 C 0.27246 0.36774 0.71031 0.0
C3771 C 0.25754 0.36333 0.69673 0.0
H3772 H 0.61477 0.27916 0.65562 0.0
H3773 H 0.62957 0.2374 0.70174 0.0
H3774 H 0.60352 0.30273 0.68048 0.0
H3775 H 0.61827 0.26113 0.72665 0.0
H3776 H 0.58674 0.30328 0.76713 0.0
H3777 H 0.58782 0.28006 0.73929 0.0
H3778 H 0.62289 0.32181 0.70598 0.0
H3779 H 0.62201 0.34478 0.73376 0.0
C3780 C 0.61547 0.27492 0.67106 0.0
C3781 C 0.62327 0.25647 0.67674 0.0
C3782 C 0.60899 0.28844 0.68527 0.0
C3783 C 0.60998 0.28376 0.70547 0.0
C3784 C 0.6171 0.26503 0.71115 0.0
C3785 C 0.62377 0.25154 0.69692 0.0
C3786 C 0.59396 0.30779 0.75354 0.0
C3787 C 0.60431 0.32579 0.75254 0.0
C3788 C 0.59481 0.2944 0.73774 0.0
C3789 C 0.60567 0.29904 0.72062 0.0
C3790 C 0.61436 0.31785 0.71896 0.0
C3791 C 0.6138 0.33104 0.73483 0.0
H3792 H 0.76219 0.37093 0.29902 0.0
H3793 H 0.72049 0.38676 0.34484 0.0
H3794 H 0.73863 0.38203 0.2739 0.0
H3795 H 0.69703 0.39779 0.31974 0.0
H3796 H 0.69711 0.41321 0.23277 0.0
H3797 H 0.72006 0.4125 0.26082 0.0
H3798 H 0.67788 0.37816 0.29433 0.0
H3799 H 0.65516 0.37868 0.26634 0.0
C3800 C 0.74809 0.37692 0.30373 0.0
C3801 C 0.74313 0.37777 0.3239 0.0
C3802 C 0.73469 0.38348 0.28937 0.0
C3803 C 0.71602 0.39083 0.2949 0.0
C3804 C 0.71129 0.39215 0.31508 0.0
C3805 C 0.72474 0.3858 0.32942 0.0
C3806 C 0.69245 0.40623 0.24642 0.0
C3807 C 0.6744 0.39596 0.24742 0.0
C3808 C 0.70568 0.4056 0.26236 0.0
C3809 C 0.70085 0.39503 0.27962 0.0
C3810 C 0.68199 0.38646 0.28125 0.0
C3811 C 0.66895 0.3868 0.26525 0.0
H3812 H 0.62498 0.65543 0.26622 0.0
H3813 H 0.58833 0.69528 0.23232 0.0
H3814 H 0.62509 0.67882 0.29369 0.0
H3815 H 0.5887 0.71892 0.25981 0.0
H3816 H 0.61432 0.72173 0.34359 0.0
H3817 H 0.60418 0.69756 0.31883 0.0
H3818 H 0.61903 0.73883 0.2724 0.0
H3819 H 0.62931 0.76315 0.29721 0.0
C3820 C 0.61636 0.6689 0.26495 0.0
C3821 C 0.60664 0.67356 0.24719 0.0
C3822 C 0.61647 0.68231 0.28064 0.0
C3823 C 0.60713 0.70078 0.27873 0.0
C3824 C 0.59616 0.70484 0.26154 0.0
C3825 C 0.59574 0.69122 0.24594 0.0
C3826 C 0.61525 0.72578 0.32811 0.0
C3827 C 0.62281 0.7443 0.32234 0.0
C3828 C 0.60942 0.71191 0.31397 0.0
C3829 C 0.61077 0.71634 0.29374 0.0
C3830 C 0.6176 0.73513 0.28793 0.0
C3831 C 0.62367 0.74896 0.30211 0.0
H3832 H 0.26262 0.5988 0.33595 0.0
H3833 H 0.24475 0.6502 0.30235 0.0
H3834 H 0.28849 0.59181 0.31144 0.0
H3835 H 0.27083 0.64335 0.27822 0.0
H3836 H 0.3369 0.64135 0.26178 0.0
H3837 H 0.31218 0.64212 0.28792 0.0
H3838 H 0.28869 0.58632 0.2678 0.0
H3839 H 0.31327 0.5856 0.24101 0.0
C3840 C 0.26411 0.60849 0.32326 0.0
C3841 C 0.25176 0.62513 0.3211 0.0
C3842 C 0.27883 0.60441 0.30928 0.0
C3843 C 0.28161 0.61714 0.29315 0.0
C3844 C 0.26893 0.6334 0.29065 0.0
C3845 C 0.254 0.63727 0.3044 0.0
C3846 C 0.32679 0.62898 0.26309 0.0
C3847 C 0.32684 0.61357 0.24907 0.0
C3848 C 0.31262 0.6295 0.27803 0.0
C3849 C 0.29843 0.61448 0.27951 0.0
C3850 C 0.29951 0.5981 0.26677 0.0
C3851 C 0.31363 0.59766 0.25157 0.0
H3852 H 0.38596 0.34013 0.26863 0.0
H3853 H 0.4148 0.2978 0.23052 0.0
H3854 H 0.3856 0.31598 0.29537 0.0
H3855 H 0.41422 0.27334 0.25733 0.0
H3856 H 0.37132 0.23284 0.29655 0.0
H3857 H 0.38333 0.25634 0.27177 0.0
H3858 H 0.40544 0.29419 0.31823 0.0
H3859 H 0.39351 0.27086 0.34296 0.0
C3860 C 0.39291 0.32588 0.26626 0.0
C3861 C 0.40044 0.3208 0.24759 0.0
C3862 C 0.39268 0.31202 0.28154 0.0
C3863 C 0.39966 0.2927 0.27833 0.0
C3864 C 0.4086 0.28809 0.26011 0.0
C3865 C 0.40917 0.30214 0.24489 0.0
C3866 C 0.37895 0.24606 0.30145 0.0
C3867 C 0.38121 0.25011 0.32171 0.0
C3868 C 0.38601 0.25941 0.28727 0.0
C3869 C 0.39532 0.27709 0.29311 0.0
C3870 C 0.39825 0.28073 0.31334 0.0
C3871 C 0.39136 0.26735 0.32747 0.0
H3872 H 0.73126 0.6578 0.6202 0.0
H3873 H 0.76537 0.69976 0.58623 0.0
H3874 H 0.70338 0.68063 0.62058 0.0
H3875 H 0.73742 0.72287 0.58681 0.0
H3876 H 0.69954 0.76455 0.62938 0.0
H3877 H 0.72443 0.74112 0.61755 0.0
H3878 H 0.67824 0.70019 0.60105 0.0
H3879 H 0.65336 0.72351 0.61282 0.0
C3880 C 0.73248 0.67162 0.61216 0.0
C3881 C 0.75042 0.67707 0.60322 0.0
C3882 C 0.71654 0.68472 0.6124 0.0
C3883 C 0.71837 0.70363 0.60397 0.0
C3884 C 0.73574 0.70844 0.59359 0.0
C3885 C 0.75161 0.69514 0.59303 0.0
C3886 C 0.6947 0.75064 0.62306 0.0
C3887 C 0.67451 0.74579 0.62226 0.0
C3888 C 0.70892 0.73732 0.61608 0.0
C3889 C 0.70323 0.71886 0.60833 0.0
C3890 C 0.68302 0.7143 0.60698 0.0
C3891 C 0.66881 0.72766 0.61377 0.0
H3892 H 0.6641 0.28253 0.36047 0.0
H3893 H 0.69185 0.23314 0.38977 0.0
H3894 H 0.6894 0.30452 0.373 0.0
H3895 H 0.71645 0.25537 0.4041 0.0
H3896 H 0.77144 0.2958 0.40152 0.0
H3897 H 0.74413 0.27289 0.39796 0.0
H3898 H 0.70318 0.32222 0.39747 0.0
H3899 H 0.73106 0.34503 0.39888 0.0
C3900 C 0.67558 0.27649 0.36991 0.0
C3901 C 0.67626 0.25619 0.37396 0.0
C3902 C 0.68998 0.28916 0.37746 0.0
C3903 C 0.70511 0.28198 0.3899 0.0
C3904 C 0.70539 0.26157 0.39433 0.0
C3905 C 0.69129 0.24875 0.38616 0.0
C3906 C 0.75649 0.30163 0.40139 0.0
C3907 C 0.75325 0.32209 0.40049 0.0
C3908 C 0.74071 0.28846 0.39926 0.0
C3909 C 0.72125 0.29555 0.39671 0.0
C3910 C 0.71794 0.31611 0.39842 0.0
C3911 C 0.73384 0.32926 0.39975 0.0
H3912 H 0.72739 0.65594 0.39005 0.0
H3913 H 0.76603 0.70322 0.371 0.0
H3914 H 0.70331 0.68018 0.40154 0.0
H3915 H 0.74181 0.7275 0.38257 0.0
H3916 H 0.69925 0.76757 0.41373 0.0
H3917 H 0.72364 0.74073 0.41329 0.0
H3918 H 0.6822 0.70375 0.3817 0.0
H3919 H 0.65807 0.73053 0.38192 0.0
C3920 C 0.73086 0.67151 0.38849 0.0
C3921 C 0.74854 0.67767 0.37938 0.0
C3922 C 0.71706 0.68537 0.39512 0.0
C3923 C 0.7207 0.70569 0.39298 0.0
C3924 C 0.73873 0.7119 0.38464 0.0
C3925 C 0.7525 0.69802 0.37782 0.0
C3926 C 0.6951 0.75341 0.40745 0.0
C3927 C 0.67683 0.75108 0.39783 0.0
C3928 C 0.70913 0.73818 0.40697 0.0
C3929 C 0.70489 0.72029 0.39722 0.0
C3930 C 0.68587 0.71734 0.38937 0.0
C3931 C 0.67202 0.73264 0.38955 0.0
H3932 H 0.30967 0.76628 0.38897 0.0
H3933 H 0.33456 0.71742 0.35637 0.0
H3934 H 0.28481 0.74425 0.40313 0.0
H3935 H 0.30896 0.69573 0.36884 0.0
H3936 H 0.26726 0.6554 0.3953 0.0
H3937 H 0.2957 0.67746 0.39328 0.0
H3938 H 0.25629 0.72788 0.3972 0.0
H3939 H 0.22848 0.70561 0.40127 0.0
C3940 C 0.30956 0.75085 0.38462 0.0
C3941 C 0.3239 0.74351 0.37154 0.0
C3942 C 0.29529 0.73816 0.39268 0.0
C3943 C 0.29469 0.71798 0.38733 0.0
C3944 C 0.3091 0.71088 0.374 0.0
C3945 C 0.32367 0.72341 0.36651 0.0
C3946 C 0.26498 0.6712 0.39674 0.0
C3947 C 0.24584 0.67887 0.39861 0.0
C3948 C 0.28118 0.68395 0.39508 0.0
C3949 C 0.2784 0.70464 0.39422 0.0
C3950 C 0.25929 0.71217 0.39782 0.0
C3951 C 0.24322 0.69938 0.40024 0.0
H3952 H 0.23373 0.29907 0.36931 0.0
H3953 H 0.27505 0.34501 0.38581 0.0
H3954 H 0.25753 0.27398 0.38007 0.0
H3955 H 0.2987 0.31998 0.39649 0.0
H3956 H 0.34152 0.26768 0.37752 0.0
H3957 H 0.31812 0.29509 0.37655 0.0
H3958 H 0.27629 0.26067 0.41043 0.0
H3959 H 0.29994 0.23319 0.41161 0.0
C3960 C 0.24779 0.30381 0.37537 0.0
C3961 C 0.25258 0.32401 0.3765 0.0
C3962 C 0.26133 0.28947 0.38172 0.0
C3963 C 0.27996 0.29506 0.38914 0.0
C3964 C 0.28449 0.31526 0.39076 0.0
C3965 C 0.27092 0.32957 0.38462 0.0
C3966 C 0.32762 0.26625 0.38539 0.0
C3967 C 0.32253 0.24835 0.39465 0.0
C3968 C 0.31419 0.28192 0.3848 0.0
C3969 C 0.29529 0.27989 0.3932 0.0
C3970 C 0.2907 0.26252 0.40368 0.0
C3971 C 0.30432 0.24692 0.40458 0.0
H3972 H 0.34305 0.26983 0.60862 0.0
H3973 H 0.29521 0.2323 0.62845 0.0
H3974 H 0.3192 0.29439 0.59732 0.0
H3975 H 0.27132 0.25698 0.617 0.0
H3976 H 0.23198 0.30042 0.58604 0.0
H3977 H 0.25838 0.27559 0.58597 0.0
H3978 H 0.29617 0.31583 0.61814 0.0
H3979 H 0.26977 0.3404 0.6185 0.0
C3980 C 0.32743 0.26668 0.61034 0.0
C3981 C 0.321 0.24921 0.61966 0.0
C3982 C 0.31381 0.28077 0.60382 0.0
C3983 C 0.29345 0.27758 0.60625 0.0
C3984 C 0.28695 0.2597 0.61472 0.0
C3985 C 0.30061 0.24568 0.62146 0.0
C3986 C 0.24622 0.30423 0.59234 0.0
C3987 C 0.24888 0.32228 0.60232 0.0
C3988 C 0.26121 0.28994 0.59252 0.0
C3989 C 0.27917 0.29372 0.60228 0.0
C3990 C 0.28249 0.31254 0.61045 0.0
C3991 C 0.26742 0.32664 0.61062 0.0
H3992 H 0.76942 0.29395 0.62759 0.0
H3993 H 0.73308 0.34095 0.60389 0.0
H3994 H 0.74473 0.26968 0.61688 0.0
H3995 H 0.70852 0.31675 0.5934 0.0
H3996 H 0.66118 0.2693 0.61604 0.0
H3997 H 0.68633 0.29516 0.61536 0.0
H3998 H 0.72661 0.25533 0.58584 0.0
H3999 H 0.70119 0.22946 0.58617 0.0
C4000 C 0.75633 0.29907 0.61989 0.0
C4001 C 0.75312 0.31937 0.6168 0.0
C4002 C 0.74229 0.28519 0.61361 0.0
C4003 C 0.72473 0.29139 0.60432 0.0
C4004 C 0.7219 0.3116 0.60057 0.0
C4005 C 0.73599 0.32542 0.60662 0.0
C4006 C 0.67511 0.26634 0.60868 0.0
C4007 C 0.67925 0.24744 0.60113 0.0
C4008 C 0.68953 0.28111 0.60834 0.0
C4009 C 0.70848 0.27712 0.60077 0.0
C4010 C 0.71215 0.25868 0.59189 0.0
C4011 C 0.69754 0.244 0.59186 0.0
H4012 H 0.23342 0.7032 0.63023 0.0
H4013 H 0.27266 0.65609 0.61204 0.0
H4014 H 0.25775 0.72759 0.61905 0.0
H4015 H 0.29684 0.68042 0.60096 0.0
H4016 H 0.34151 0.7311 0.62097 0.0
H4017 H 0.31742 0.70428 0.62125 0.0
H4018 H 0.27644 0.74066 0.58838 0.0
H4019 H 0.30081 0.76752 0.58786 0.0
C4020 C 0.24711 0.69806 0.62368 0.0
C4021 C 0.2512 0.67773 0.62224 0.0
C4022 C 0.26094 0.712 0.61709 0.0
C4023 C 0.27916 0.70586 0.60911 0.0
C4024 C 0.28295 0.68555 0.6071 0.0
C4025 C 0.26908 0.67164 0.61349 0.0
C4026 C 0.32767 0.73306 0.61311 0.0
C4027 C 0.323 0.75133 0.60439 0.0
C4028 C 0.31385 0.71774 0.61331 0.0
C4029 C 0.29496 0.72052 0.60508 0.0
C4030 C 0.29084 0.73824 0.595 0.0
C4031 C 0.30486 0.75348 0.59448 0.0
loop_
_geom_bond_atom_site_label_1
_geom_bond_atom_site_label_2
_geom_bond_distance
_geom_bond_site_symmetry_2
_ccdc_geom_bond_type
Co0 O3 1.970 . S
Co0 N17 1.989 . S
Co0 O25 1.967 . S
Co0 O32 1.920 . S
Co1 O4 1.966 . S
Co1 N10 2.022 . S
Co1 N18 1.993 . S
Co1 O26 1.941 . S
C2 O3 1.258 . S
C2 O4 1.263 . S
O3 Co0 1.970 . S
O3 C2 1.258 . S
O4 Co1 1.966 . S
O4 C2 1.263 . S
C5 O6 1.235 . S
C5 O32 1.289 . S
O6 C5 1.235 . S
C7 C9 1.400 . S
C7 N10 1.351 . S
C7 C12 1.501 . S
C8 C9 1.387 . S
C8 N11 1.341 . S
C9 C7 1.400 . S
C9 C8 1.387 . S
N10 Co1 2.022 . S
N10 C7 1.351 . S
N10 N11 1.365 . S
N11 C8 1.341 . S
N11 N10 1.365 . S
N11 H31 0.862 . S
C12 C7 1.501 . S
C12 H13 0.961 . S
C12 H14 0.961 . S
C12 H15 0.960 . S
H13 C12 0.961 . S
H14 C12 0.961 . S
H15 C12 0.960 . S
C16 N17 1.342 . S
C16 C20 1.401 . S
C16 C21 1.499 . S
N17 Co0 1.989 . S
N17 C16 1.342 . S
N17 N18 1.388 . S
N18 Co1 1.993 . S
N18 N17 1.388 . S
N18 C19 1.346 . S
C19 N18 1.346 . S
C19 C20 1.396 . S
C19 C29 1.510 . S
C20 C16 1.401 . S
C20 C19 1.396 . S
C21 C16 1.499 . S
C21 H22 0.959 . S
C21 H23 0.960 . S
C21 H24 0.961 . S
H22 C21 0.959 . S
H23 C21 0.960 . S
H24 C21 0.961 . S
O25 Co0 1.967 . S
O25 C33 1.258 . S
O26 Co1 1.941 . S
O26 C33 1.266 . S
H27 C29 0.959 . S
H28 C29 0.961 . S
C29 C19 1.510 . S
C29 H27 0.959 . S
C29 H28 0.961 . S
C29 H30 0.960 . S
H30 C29 0.960 . S
H31 N11 0.862 . S
O32 Co0 1.920 . S
O32 C5 1.289 . S
C33 O25 1.258 . S
C33 O26 1.266 . S
Co34 O37 1.970 . S
Co34 N51 1.989 . S
Co34 O59 1.967 . S
Co34 O66 1.920 . S
Co35 O38 1.966 . S
Co35 N44 2.022 . S
Co35 N52 1.993 . S
Co35 O60 1.941 . S
C36 O37 1.258 . S
C36 O38 1.263 . S
O37 Co34 1.970 . S
O37 C36 1.258 . S
O38 Co35 1.966 . S
O38 C36 1.263 . S
C39 O40 1.235 . S
C39 O66 1.289 . S
O40 C39 1.235 . S
C41 C43 1.400 . S
C41 N44 1.351 . S
C41 C46 1.501 . S
C42 C43 1.387 . S
C42 N45 1.341 . S
C43 C41 1.400 . S
C43 C42 1.387 . S
N44 Co35 2.022 . S
N44 C41 1.351 . S
N44 N45 1.365 . S
N45 C42 1.341 . S
N45 N44 1.365 . S
N45 H65 0.862 . S
C46 C41 1.501 . S
C46 H47 0.961 . S
C46 H48 0.961 . S
C46 H49 0.960 . S
H47 C46 0.961 . S
H48 C46 0.961 . S
H49 C46 0.960 . S
C50 N51 1.342 . S
C50 C54 1.401 . S
C50 C55 1.499 . S
N51 Co34 1.989 . S
N51 C50 1.342 . S
N51 N52 1.388 . S
N52 Co35 1.993 . S
N52 N51 1.388 . S
N52 C53 1.346 . S
C53 N52 1.346 . S
C53 C54 1.396 . S
C53 C63 1.510 . S
C54 C50 1.401 . S
C54 C53 1.396 . S
C55 C50 1.499 . S
C55 H56 0.959 . S
C55 H57 0.960 . S
C55 H58 0.961 . S
H56 C55 0.959 . S
H57 C55 0.960 . S
H58 C55 0.961 . S
O59 Co34 1.967 . S
O59 C67 1.258 . S
O60 Co35 1.941 . S
O60 C67 1.266 . S
H61 C63 0.959 . S
H62 C63 0.961 . S
C63 C53 1.510 . S
C63 H61 0.959 . S
C63 H62 0.961 . S
C63 H64 0.960 . S
H64 C63 0.960 . S
H65 N45 0.862 . S
O66 Co34 1.920 . S
O66 C39 1.289 . S
C67 O59 1.258 . S
C67 O60 1.266 . S
Co68 O71 1.970 . S
Co68 N85 1.989 . S
Co68 O93 1.967 . S
Co68 O100 1.920 . S
Co69 O72 1.966 . S
Co69 N78 2.022 . S
Co69 N86 1.993 . S
Co69 O94 1.941 . S
C70 O71 1.258 . S
C70 O72 1.263 . S
O71 Co68 1.970 . S
O71 C70 1.258 . S
O72 Co69 1.966 . S
O72 C70 1.263 . S
C73 O74 1.235 . S
C73 O100 1.289 . S
O74 C73 1.235 . S
C75 C77 1.400 . S
C75 N78 1.351 . S
C75 C80 1.501 . S
C76 C77 1.387 . S
C76 N79 1.341 . S
C77 C75 1.400 . S
C77 C76 1.387 . S
N78 Co69 2.022 . S
N78 C75 1.351 . S
N78 N79 1.365 . S
N79 C76 1.341 . S
N79 N78 1.365 . S
N79 H99 0.862 . S
C80 C75 1.501 . S
C80 H81 0.961 . S
C80 H82 0.961 . S
C80 H83 0.960 . S
H81 C80 0.961 . S
H82 C80 0.961 . S
H83 C80 0.960 . S
C84 N85 1.342 . S
C84 C88 1.401 . S
C84 C89 1.499 . S
N85 Co68 1.989 . S
N85 C84 1.342 . S
N85 N86 1.388 . S
N86 Co69 1.993 . S
N86 N85 1.388 . S
N86 C87 1.346 . S
C87 N86 1.346 . S
C87 C88 1.396 . S
C87 C97 1.510 . S
C88 C84 1.401 . S
C88 C87 1.396 . S
C89 C84 1.499 . S
C89 H90 0.959 . S
C89 H91 0.960 . S
C89 H92 0.961 . S
H90 C89 0.959 . S
H91 C89 0.960 . S
H92 C89 0.961 . S
O93 Co68 1.967 . S
O93 C101 1.258 . S
O94 Co69 1.941 . S
O94 C101 1.266 . S
H95 C97 0.959 . S
H96 C97 0.961 . S
C97 C87 1.510 . S
C97 H95 0.959 . S
C97 H96 0.961 . S
C97 H98 0.960 . S
H98 C97 0.960 . S
H99 N79 0.862 . S
O100 Co68 1.920 . S
O100 C73 1.289 . S
C101 O93 1.258 . S
C101 O94 1.266 . S
Co102 O105 1.970 . S
Co102 N119 1.989 . S
Co102 O127 1.967 . S
Co102 O134 1.920 . S
Co103 O106 1.966 . S
Co103 N112 2.022 . S
Co103 N120 1.993 . S
Co103 O128 1.941 . S
C104 O105 1.258 . S
C104 O106 1.263 . S
O105 Co102 1.970 . S
O105 C104 1.258 . S
O106 Co103 1.966 . S
O106 C104 1.263 . S
C107 O108 1.235 . S
C107 O134 1.289 . S
O108 C107 1.235 . S
C109 C111 1.400 . S
C109 N112 1.351 . S
C109 C114 1.501 . S
C110 C111 1.387 . S
C110 N113 1.341 . S
C111 C109 1.400 . S
C111 C110 1.387 . S
N112 Co103 2.022 . S
N112 C109 1.351 . S
N112 N113 1.365 . S
N113 C110 1.341 . S
N113 N112 1.365 . S
N113 H133 0.862 . S
C114 C109 1.501 . S
C114 H115 0.961 . S
C114 H116 0.961 . S
C114 H117 0.960 . S
H115 C114 0.961 . S
H116 C114 0.961 . S
H117 C114 0.960 . S
C118 N119 1.342 . S
C118 C122 1.401 . S
C118 C123 1.499 . S
N119 Co102 1.989 . S
N119 C118 1.342 . S
N119 N120 1.388 . S
N120 Co103 1.993 . S
N120 N119 1.388 . S
N120 C121 1.346 . S
C121 N120 1.346 . S
C121 C122 1.396 . S
C121 C131 1.510 . S
C122 C118 1.401 . S
C122 C121 1.396 . S
C123 C118 1.499 . S
C123 H124 0.959 . S
C123 H125 0.960 . S
C123 H126 0.961 . S
H124 C123 0.959 . S
H125 C123 0.960 . S
H126 C123 0.961 . S
O127 Co102 1.967 . S
O127 C135 1.258 . S
O128 Co103 1.941 . S
O128 C135 1.266 . S
H129 C131 0.959 . S
H130 C131 0.961 . S
C131 C121 1.510 . S
C131 H129 0.959 . S
C131 H130 0.961 . S
C131 H132 0.960 . S
H132 C131 0.960 . S
H133 N113 0.862 . S
O134 Co102 1.920 . S
O134 C107 1.289 . S
C135 O127 1.258 . S
C135 O128 1.266 . S
Co136 O139 1.970 . S
Co136 N153 1.989 . S
Co136 O161 1.967 . S
Co136 O168 1.920 . S
Co137 O140 1.966 . S
Co137 N146 2.022 . S
Co137 N154 1.993 . S
Co137 O162 1.941 . S
C138 O139 1.258 . S
C138 O140 1.263 . S
O139 Co136 1.970 . S
O139 C138 1.258 . S
O140 Co137 1.966 . S
O140 C138 1.263 . S
C141 O142 1.235 . S
C141 O168 1.289 . S
O142 C141 1.235 . S
C143 C145 1.400 . S
C143 N146 1.351 . S
C143 C148 1.501 . S
C144 C145 1.387 . S
C144 N147 1.341 . S
C145 C143 1.400 . S
C145 C144 1.387 . S
N146 Co137 2.022 . S
N146 C143 1.351 . S
N146 N147 1.365 . S
N147 C144 1.341 . S
N147 N146 1.365 . S
N147 H167 0.862 . S
C148 C143 1.501 . S
C148 H149 0.961 . S
C148 H150 0.961 . S
C148 H151 0.960 . S
H149 C148 0.961 . S
H150 C148 0.961 . S
H151 C148 0.960 . S
C152 N153 1.342 . S
C152 C156 1.401 . S
C152 C157 1.499 . S
N153 Co136 1.989 . S
N153 C152 1.342 . S
N153 N154 1.388 . S
N154 Co137 1.993 . S
N154 N153 1.388 . S
N154 C155 1.346 . S
C155 N154 1.346 . S
C155 C156 1.396 . S
C155 C165 1.510 . S
C156 C152 1.401 . S
C156 C155 1.396 . S
C157 C152 1.499 . S
C157 H158 0.959 . S
C157 H159 0.960 . S
C157 H160 0.961 . S
H158 C157 0.959 . S
H159 C157 0.960 . S
H160 C157 0.961 . S
O161 Co136 1.967 . S
O161 C169 1.258 . S
O162 Co137 1.941 . S
O162 C169 1.266 . S
H163 C165 0.959 . S
H164 C165 0.961 . S
C165 C155 1.510 . S
C165 H163 0.959 . S
C165 H164 0.961 . S
C165 H166 0.960 . S
H166 C165 0.960 . S
H167 N147 0.862 . S
O168 Co136 1.920 . S
O168 C141 1.289 . S
C169 O161 1.258 . S
C169 O162 1.266 . S
Co170 O173 1.970 . S
Co170 N187 1.989 . S
Co170 O195 1.967 . S
Co170 O202 1.920 . S
Co171 O174 1.966 . S
Co171 N180 2.022 . S
Co171 N188 1.993 . S
Co171 O196 1.941 . S
C172 O173 1.258 . S
C172 O174 1.263 . S
O173 Co170 1.970 . S
O173 C172 1.258 . S
O174 Co171 1.966 . S
O174 C172 1.263 . S
C175 O176 1.235 . S
C175 O202 1.289 . S
O176 C175 1.235 . S
C177 C179 1.400 . S
C177 N180 1.351 . S
C177 C182 1.501 . S
C178 C179 1.387 . S
C178 N181 1.341 . S
C179 C177 1.400 . S
C179 C178 1.387 . S
N180 Co171 2.022 . S
N180 C177 1.351 . S
N180 N181 1.365 . S
N181 C178 1.341 . S
N181 N180 1.365 . S
N181 H201 0.862 . S
C182 C177 1.501 . S
C182 H183 0.961 . S
C182 H184 0.961 . S
C182 H185 0.960 . S
H183 C182 0.961 . S
H184 C182 0.961 . S
H185 C182 0.960 . S
C186 N187 1.342 . S
C186 C190 1.401 . S
C186 C191 1.499 . S
N187 Co170 1.989 . S
N187 C186 1.342 . S
N187 N188 1.388 . S
N188 Co171 1.993 . S
N188 N187 1.388 . S
N188 C189 1.346 . S
C189 N188 1.346 . S
C189 C190 1.396 . S
C189 C199 1.510 . S
C190 C186 1.401 . S
C190 C189 1.396 . S
C191 C186 1.499 . S
C191 H192 0.959 . S
C191 H193 0.960 . S
C191 H194 0.961 . S
H192 C191 0.959 . S
H193 C191 0.960 . S
H194 C191 0.961 . S
O195 Co170 1.967 . S
O195 C203 1.258 . S
O196 Co171 1.941 . S
O196 C203 1.266 . S
H197 C199 0.959 . S
H198 C199 0.961 . S
C199 C189 1.510 . S
C199 H197 0.959 . S
C199 H198 0.961 . S
C199 H200 0.960 . S
H200 C199 0.960 . S
H201 N181 0.862 . S
O202 Co170 1.920 . S
O202 C175 1.289 . S
C203 O195 1.258 . S
C203 O196 1.266 . S
Co204 O207 1.970 . S
Co204 N221 1.989 . S
Co204 O229 1.967 . S
Co204 O236 1.920 . S
Co205 O208 1.966 . S
Co205 N214 2.022 . S
Co205 N222 1.993 . S
Co205 O230 1.941 . S
C206 O207 1.258 . S
C206 O208 1.263 . S
O207 Co204 1.970 . S
O207 C206 1.258 . S
O208 Co205 1.966 . S
O208 C206 1.263 . S
C209 O210 1.235 . S
C209 O236 1.289 . S
O210 C209 1.235 . S
C211 C213 1.400 . S
C211 N214 1.351 . S
C211 C216 1.501 . S
C212 C213 1.387 . S
C212 N215 1.341 . S
C213 C211 1.400 . S
C213 C212 1.387 . S
N214 Co205 2.022 . S
N214 C211 1.351 . S
N214 N215 1.365 . S
N215 C212 1.341 . S
N215 N214 1.365 . S
N215 H235 0.862 . S
C216 C211 1.501 . S
C216 H217 0.961 . S
C216 H218 0.961 . S
C216 H219 0.960 . S
H217 C216 0.961 . S
H218 C216 0.961 . S
H219 C216 0.960 . S
C220 N221 1.342 . S
C220 C224 1.401 . S
C220 C225 1.499 . S
N221 Co204 1.989 . S
N221 C220 1.342 . S
N221 N222 1.388 . S
N222 Co205 1.993 . S
N222 N221 1.388 . S
N222 C223 1.346 . S
C223 N222 1.346 . S
C223 C224 1.396 . S
C223 C233 1.510 . S
C224 C220 1.401 . S
C224 C223 1.396 . S
C225 C220 1.499 . S
C225 H226 0.959 . S
C225 H227 0.960 . S
C225 H228 0.961 . S
H226 C225 0.959 . S
H227 C225 0.960 . S
H228 C225 0.961 . S
O229 Co204 1.967 . S
O229 C237 1.258 . S
O230 Co205 1.941 . S
O230 C237 1.266 . S
H231 C233 0.959 . S
H232 C233 0.961 . S
C233 C223 1.510 . S
C233 H231 0.959 . S
C233 H232 0.961 . S
C233 H234 0.960 . S
H234 C233 0.960 . S
H235 N215 0.862 . S
O236 Co204 1.920 . S
O236 C209 1.289 . S
C237 O229 1.258 . S
C237 O230 1.266 . S
Co238 O241 1.970 . S
Co238 N255 1.989 . S
Co238 O263 1.967 . S
Co238 O270 1.920 . S
Co239 O242 1.966 . S
Co239 N248 2.022 . S
Co239 N256 1.993 . S
Co239 O264 1.941 . S
C240 O241 1.258 . S
C240 O242 1.263 . S
O241 Co238 1.970 . S
O241 C240 1.258 . S
O242 Co239 1.966 . S
O242 C240 1.263 . S
C243 O244 1.235 . S
C243 O270 1.289 . S
O244 C243 1.235 . S
C245 C247 1.400 . S
C245 N248 1.351 . S
C245 C250 1.501 . S
C246 C247 1.387 . S
C246 N249 1.341 . S
C247 C245 1.400 . S
C247 C246 1.387 . S
N248 Co239 2.022 . S
N248 C245 1.351 . S
N248 N249 1.365 . S
N249 C246 1.341 . S
N249 N248 1.365 . S
N249 H269 0.862 . S
C250 C245 1.501 . S
C250 H251 0.961 . S
C250 H252 0.961 . S
C250 H253 0.960 . S
H251 C250 0.961 . S
H252 C250 0.961 . S
H253 C250 0.960 . S
C254 N255 1.342 . S
C254 C258 1.401 . S
C254 C259 1.499 . S
N255 Co238 1.989 . S
N255 C254 1.342 . S
N255 N256 1.388 . S
N256 Co239 1.993 . S
N256 N255 1.388 . S
N256 C257 1.346 . S
C257 N256 1.346 . S
C257 C258 1.396 . S
C257 C267 1.510 . S
C258 C254 1.401 . S
C258 C257 1.396 . S
C259 C254 1.499 . S
C259 H260 0.959 . S
C259 H261 0.960 . S
C259 H262 0.961 . S
H260 C259 0.959 . S
H261 C259 0.960 . S
H262 C259 0.961 . S
O263 Co238 1.967 . S
O263 C271 1.258 . S
O264 Co239 1.941 . S
O264 C271 1.266 . S
H265 C267 0.959 . S
H266 C267 0.961 . S
C267 C257 1.510 . S
C267 H265 0.959 . S
C267 H266 0.961 . S
C267 H268 0.960 . S
H268 C267 0.960 . S
H269 N249 0.862 . S
O270 Co238 1.920 . S
O270 C243 1.289 . S
C271 O263 1.258 . S
C271 O264 1.266 . S
Co272 O275 1.970 . S
Co272 N289 1.989 . S
Co272 O297 1.967 . S
Co272 O304 1.920 . S
Co273 O276 1.966 . S
Co273 N282 2.022 . S
Co273 N290 1.993 . S
Co273 O298 1.941 . S
C274 O275 1.258 . S
C274 O276 1.263 . S
O275 Co272 1.970 . S
O275 C274 1.258 . S
O276 Co273 1.966 . S
O276 C274 1.263 . S
C277 O278 1.235 . S
C277 O304 1.289 . S
O278 C277 1.235 . S
C279 C281 1.400 . S
C279 N282 1.351 . S
C279 C284 1.501 . S
C280 C281 1.387 . S
C280 N283 1.341 . S
C281 C279 1.400 . S
C281 C280 1.387 . S
N282 Co273 2.022 . S
N282 C279 1.351 . S
N282 N283 1.365 . S
N283 C280 1.341 . S
N283 N282 1.365 . S
N283 H303 0.862 . S
C284 C279 1.501 . S
C284 H285 0.961 . S
C284 H286 0.961 . S
C284 H287 0.960 . S
H285 C284 0.961 . S
H286 C284 0.961 . S
H287 C284 0.960 . S
C288 N289 1.342 . S
C288 C292 1.401 . S
C288 C293 1.499 . S
N289 Co272 1.989 . S
N289 C288 1.342 . S
N289 N290 1.388 . S
N290 Co273 1.993 . S
N290 N289 1.388 . S
N290 C291 1.346 . S
C291 N290 1.346 . S
C291 C292 1.396 . S
C291 C301 1.510 . S
C292 C288 1.401 . S
C292 C291 1.396 . S
C293 C288 1.499 . S
C293 H294 0.959 . S
C293 H295 0.960 . S
C293 H296 0.961 . S
H294 C293 0.959 . S
H295 C293 0.960 . S
H296 C293 0.961 . S
O297 Co272 1.967 . S
O297 C305 1.258 . S
O298 Co273 1.941 . S
O298 C305 1.266 . S
H299 C301 0.959 . S
H300 C301 0.961 . S
C301 C291 1.510 . S
C301 H299 0.959 . S
C301 H300 0.961 . S
C301 H302 0.960 . S
H302 C301 0.960 . S
H303 N283 0.862 . S
O304 Co272 1.920 . S
O304 C277 1.289 . S
C305 O297 1.258 . S
C305 O298 1.266 . S
Co306 O309 1.970 . S
Co306 N323 1.989 . S
Co306 O331 1.967 . S
Co306 O338 1.920 . S
Co307 O310 1.966 . S
Co307 N316 2.022 . S
Co307 N324 1.993 . S
Co307 O332 1.941 . S
C308 O309 1.258 . S
C308 O310 1.263 . S
O309 Co306 1.970 . S
O309 C308 1.258 . S
O310 Co307 1.966 . S
O310 C308 1.263 . S
C311 O312 1.235 . S
C311 O338 1.289 . S
O312 C311 1.235 . S
C313 C315 1.400 . S
C313 N316 1.351 . S
C313 C318 1.501 . S
C314 C315 1.387 . S
C314 N317 1.341 . S
C315 C313 1.400 . S
C315 C314 1.387 . S
N316 Co307 2.022 . S
N316 C313 1.351 . S
N316 N317 1.365 . S
N317 C314 1.341 . S
N317 N316 1.365 . S
N317 H337 0.862 . S
C318 C313 1.501 . S
C318 H319 0.961 . S
C318 H320 0.961 . S
C318 H321 0.960 . S
H319 C318 0.961 . S
H320 C318 0.961 . S
H321 C318 0.960 . S
C322 N323 1.342 . S
C322 C326 1.401 . S
C322 C327 1.499 . S
N323 Co306 1.989 . S
N323 C322 1.342 . S
N323 N324 1.388 . S
N324 Co307 1.993 . S
N324 N323 1.388 . S
N324 C325 1.346 . S
C325 N324 1.346 . S
C325 C326 1.396 . S
C325 C335 1.510 . S
C326 C322 1.401 . S
C326 C325 1.396 . S
C327 C322 1.499 . S
C327 H328 0.959 . S
C327 H329 0.960 . S
C327 H330 0.961 . S
H328 C327 0.959 . S
H329 C327 0.960 . S
H330 C327 0.961 . S
O331 Co306 1.967 . S
O331 C339 1.258 . S
O332 Co307 1.941 . S
O332 C339 1.266 . S
H333 C335 0.959 . S
H334 C335 0.961 . S
C335 C325 1.510 . S
C335 H333 0.959 . S
C335 H334 0.961 . S
C335 H336 0.960 . S
H336 C335 0.960 . S
H337 N317 0.862 . S
O338 Co306 1.920 . S
O338 C311 1.289 . S
C339 O331 1.258 . S
C339 O332 1.266 . S
Co340 O343 1.970 . S
Co340 N357 1.989 . S
Co340 O365 1.967 . S
Co340 O372 1.920 . S
Co341 O344 1.966 . S
Co341 N350 2.022 . S
Co341 N358 1.993 . S
Co341 O366 1.941 . S
C342 O343 1.258 . S
C342 O344 1.263 . S
O343 Co340 1.970 . S
O343 C342 1.258 . S
O344 Co341 1.966 . S
O344 C342 1.263 . S
C345 O346 1.235 . S
C345 O372 1.289 . S
O346 C345 1.235 . S
C347 C349 1.400 . S
C347 N350 1.351 . S
C347 C352 1.501 . S
C348 C349 1.387 . S
C348 N351 1.341 . S
C349 C347 1.400 . S
C349 C348 1.387 . S
N350 Co341 2.022 . S
N350 C347 1.351 . S
N350 N351 1.365 . S
N351 C348 1.341 . S
N351 N350 1.365 . S
N351 H371 0.862 . S
C352 C347 1.501 . S
C352 H353 0.961 . S
C352 H354 0.961 . S
C352 H355 0.960 . S
H353 C352 0.961 . S
H354 C352 0.961 . S
H355 C352 0.960 . S
C356 N357 1.342 . S
C356 C360 1.401 . S
C356 C361 1.499 . S
N357 Co340 1.989 . S
N357 C356 1.342 . S
N357 N358 1.388 . S
N358 Co341 1.993 . S
N358 N357 1.388 . S
N358 C359 1.346 . S
C359 N358 1.346 . S
C359 C360 1.396 . S
C359 C369 1.510 . S
C360 C356 1.401 . S
C360 C359 1.396 . S
C361 C356 1.499 . S
C361 H362 0.959 . S
C361 H363 0.960 . S
C361 H364 0.961 . S
H362 C361 0.959 . S
H363 C361 0.960 . S
H364 C361 0.961 . S
O365 Co340 1.967 . S
O365 C373 1.258 . S
O366 Co341 1.941 . S
O366 C373 1.266 . S
H367 C369 0.959 . S
H368 C369 0.961 . S
C369 C359 1.510 . S
C369 H367 0.959 . S
C369 H368 0.961 . S
C369 H370 0.960 . S
H370 C369 0.960 . S
H371 N351 0.862 . S
O372 Co340 1.920 . S
O372 C345 1.289 . S
C373 O365 1.258 . S
C373 O366 1.266 . S
Co374 O377 1.970 . S
Co374 N391 1.989 . S
Co374 O399 1.967 . S
Co374 O406 1.920 . S
Co375 O378 1.966 . S
Co375 N384 2.022 . S
Co375 N392 1.993 . S
Co375 O400 1.941 . S
C376 O377 1.258 . S
C376 O378 1.263 . S
O377 Co374 1.970 . S
O377 C376 1.258 . S
O378 Co375 1.966 . S
O378 C376 1.263 . S
C379 O380 1.235 . S
C379 O406 1.289 . S
O380 C379 1.235 . S
C381 C383 1.400 . S
C381 N384 1.351 . S
C381 C386 1.501 . S
C382 C383 1.387 . S
C382 N385 1.341 . S
C383 C381 1.400 . S
C383 C382 1.387 . S
N384 Co375 2.022 . S
N384 C381 1.351 . S
N384 N385 1.365 . S
N385 C382 1.341 . S
N385 N384 1.365 . S
N385 H405 0.862 . S
C386 C381 1.501 . S
C386 H387 0.961 . S
C386 H388 0.961 . S
C386 H389 0.960 . S
H387 C386 0.961 . S
H388 C386 0.961 . S
H389 C386 0.960 . S
C390 N391 1.342 . S
C390 C394 1.401 . S
C390 C395 1.499 . S
N391 Co374 1.989 . S
N391 C390 1.342 . S
N391 N392 1.388 . S
N392 Co375 1.993 . S
N392 N391 1.388 . S
N392 C393 1.346 . S
C393 N392 1.346 . S
C393 C394 1.396 . S
C393 C403 1.510 . S
C394 C390 1.401 . S
C394 C393 1.396 . S
C395 C390 1.499 . S
C395 H396 0.959 . S
C395 H397 0.960 . S
C395 H398 0.961 . S
H396 C395 0.959 . S
H397 C395 0.960 . S
H398 C395 0.961 . S
O399 Co374 1.967 . S
O399 C407 1.258 . S
O400 Co375 1.941 . S
O400 C407 1.266 . S
H401 C403 0.959 . S
H402 C403 0.961 . S
C403 C393 1.510 . S
C403 H401 0.959 . S
C403 H402 0.961 . S
C403 H404 0.960 . S
H404 C403 0.960 . S
H405 N385 0.862 . S
O406 Co374 1.920 . S
O406 C379 1.289 . S
C407 O399 1.258 . S
C407 O400 1.266 . S
Co408 O411 1.970 . S
Co408 N425 1.989 . S
Co408 O433 1.967 . S
Co408 O440 1.920 . S
Co409 O412 1.966 . S
Co409 N418 2.022 . S
Co409 N426 1.993 . S
Co409 O434 1.941 . S
C410 O411 1.258 . S
C410 O412 1.263 . S
O411 Co408 1.970 . S
O411 C410 1.258 . S
O412 Co409 1.966 . S
O412 C410 1.263 . S
C413 O414 1.235 . S
C413 O440 1.289 . S
O414 C413 1.235 . S
C415 C417 1.400 . S
C415 N418 1.351 . S
C415 C420 1.501 . S
C416 C417 1.387 . S
C416 N419 1.341 . S
C417 C415 1.400 . S
C417 C416 1.387 . S
N418 Co409 2.022 . S
N418 C415 1.351 . S
N418 N419 1.365 . S
N419 C416 1.341 . S
N419 N418 1.365 . S
N419 H439 0.862 . S
C420 C415 1.501 . S
C420 H421 0.961 . S
C420 H422 0.961 . S
C420 H423 0.960 . S
H421 C420 0.961 . S
H422 C420 0.961 . S
H423 C420 0.960 . S
C424 N425 1.342 . S
C424 C428 1.401 . S
C424 C429 1.499 . S
N425 Co408 1.989 . S
N425 C424 1.342 . S
N425 N426 1.388 . S
N426 Co409 1.993 . S
N426 N425 1.388 . S
N426 C427 1.346 . S
C427 N426 1.346 . S
C427 C428 1.396 . S
C427 C437 1.510 . S
C428 C424 1.401 . S
C428 C427 1.396 . S
C429 C424 1.499 . S
C429 H430 0.959 . S
C429 H431 0.960 . S
C429 H432 0.961 . S
H430 C429 0.959 . S
H431 C429 0.960 . S
H432 C429 0.961 . S
O433 Co408 1.967 . S
O433 C441 1.258 . S
O434 Co409 1.941 . S
O434 C441 1.266 . S
H435 C437 0.959 . S
H436 C437 0.961 . S
C437 C427 1.510 . S
C437 H435 0.959 . S
C437 H436 0.961 . S
C437 H438 0.960 . S
H438 C437 0.960 . S
H439 N419 0.862 . S
O440 Co408 1.920 . S
O440 C413 1.289 . S
C441 O433 1.258 . S
C441 O434 1.266 . S
Co442 O445 1.970 . S
Co442 N459 1.989 . S
Co442 O467 1.967 . S
Co442 O474 1.920 . S
Co443 O446 1.966 . S
Co443 N452 2.022 . S
Co443 N460 1.993 . S
Co443 O468 1.941 . S
C444 O445 1.258 . S
C444 O446 1.263 . S
O445 Co442 1.970 . S
O445 C444 1.258 . S
O446 Co443 1.966 . S
O446 C444 1.263 . S
C447 O448 1.235 . S
C447 O474 1.289 . S
O448 C447 1.235 . S
C449 C451 1.400 . S
C449 N452 1.351 . S
C449 C454 1.501 . S
C450 C451 1.387 . S
C450 N453 1.341 . S
C451 C449 1.400 . S
C451 C450 1.387 . S
N452 Co443 2.022 . S
N452 C449 1.351 . S
N452 N453 1.365 . S
N453 C450 1.341 . S
N453 N452 1.365 . S
N453 H473 0.862 . S
C454 C449 1.501 . S
C454 H455 0.961 . S
C454 H456 0.961 . S
C454 H457 0.960 . S
H455 C454 0.961 . S
H456 C454 0.961 . S
H457 C454 0.960 . S
C458 N459 1.342 . S
C458 C462 1.401 . S
C458 C463 1.499 . S
N459 Co442 1.989 . S
N459 C458 1.342 . S
N459 N460 1.388 . S
N460 Co443 1.993 . S
N460 N459 1.388 . S
N460 C461 1.346 . S
C461 N460 1.346 . S
C461 C462 1.396 . S
C461 C471 1.510 . S
C462 C458 1.401 . S
C462 C461 1.396 . S
C463 C458 1.499 . S
C463 H464 0.959 . S
C463 H465 0.960 . S
C463 H466 0.961 . S
H464 C463 0.959 . S
H465 C463 0.960 . S
H466 C463 0.961 . S
O467 Co442 1.967 . S
O467 C475 1.258 . S
O468 Co443 1.941 . S
O468 C475 1.266 . S
H469 C471 0.959 . S
H470 C471 0.961 . S
C471 C461 1.510 . S
C471 H469 0.959 . S
C471 H470 0.961 . S
C471 H472 0.960 . S
H472 C471 0.960 . S
H473 N453 0.862 . S
O474 Co442 1.920 . S
O474 C447 1.289 . S
C475 O467 1.258 . S
C475 O468 1.266 . S
Co476 O479 1.970 . S
Co476 N493 1.989 . S
Co476 O501 1.967 . S
Co476 O508 1.920 . S
Co477 O480 1.966 . S
Co477 N486 2.022 . S
Co477 N494 1.993 . S
Co477 O502 1.941 . S
C478 O479 1.258 . S
C478 O480 1.263 . S
O479 Co476 1.970 . S
O479 C478 1.258 . S
O480 Co477 1.966 . S
O480 C478 1.263 . S
C481 O482 1.235 . S
C481 O508 1.289 . S
O482 C481 1.235 . S
C483 C485 1.400 . S
C483 N486 1.351 . S
C483 C488 1.501 . S
C484 C485 1.387 . S
C484 N487 1.341 . S
C485 C483 1.400 . S
C485 C484 1.387 . S
N486 Co477 2.022 . S
N486 C483 1.351 . S
N486 N487 1.365 . S
N487 C484 1.341 . S
N487 N486 1.365 . S
N487 H507 0.862 . S
C488 C483 1.501 . S
C488 H489 0.961 . S
C488 H490 0.961 . S
C488 H491 0.960 . S
H489 C488 0.961 . S
H490 C488 0.961 . S
H491 C488 0.960 . S
C492 N493 1.342 . S
C492 C496 1.401 . S
C492 C497 1.499 . S
N493 Co476 1.989 . S
N493 C492 1.342 . S
N493 N494 1.388 . S
N494 Co477 1.993 . S
N494 N493 1.388 . S
N494 C495 1.346 . S
C495 N494 1.346 . S
C495 C496 1.396 . S
C495 C505 1.510 . S
C496 C492 1.401 . S
C496 C495 1.396 . S
C497 C492 1.499 . S
C497 H498 0.959 . S
C497 H499 0.960 . S
C497 H500 0.961 . S
H498 C497 0.959 . S
H499 C497 0.960 . S
H500 C497 0.961 . S
O501 Co476 1.967 . S
O501 C509 1.258 . S
O502 Co477 1.941 . S
O502 C509 1.266 . S
H503 C505 0.959 . S
H504 C505 0.961 . S
C505 C495 1.510 . S
C505 H503 0.959 . S
C505 H504 0.961 . S
C505 H506 0.960 . S
H506 C505 0.960 . S
H507 N487 0.862 . S
O508 Co476 1.920 . S
O508 C481 1.289 . S
C509 O501 1.258 . S
C509 O502 1.266 . S
Co510 O513 1.970 . S
Co510 N527 1.989 . S
Co510 O535 1.967 . S
Co510 O542 1.920 . S
Co511 O514 1.966 . S
Co511 N520 2.022 . S
Co511 N528 1.993 . S
Co511 O536 1.941 . S
C512 O513 1.258 . S
C512 O514 1.263 . S
O513 Co510 1.970 . S
O513 C512 1.258 . S
O514 Co511 1.966 . S
O514 C512 1.263 . S
C515 O516 1.235 . S
C515 O542 1.289 . S
O516 C515 1.235 . S
C517 C519 1.400 . S
C517 N520 1.351 . S
C517 C522 1.501 . S
C518 C519 1.387 . S
C518 N521 1.341 . S
C519 C517 1.400 . S
C519 C518 1.387 . S
N520 Co511 2.022 . S
N520 C517 1.351 . S
N520 N521 1.365 . S
N521 C518 1.341 . S
N521 N520 1.365 . S
N521 H541 0.862 . S
C522 C517 1.501 . S
C522 H523 0.961 . S
C522 H524 0.961 . S
C522 H525 0.960 . S
H523 C522 0.961 . S
H524 C522 0.961 . S
H525 C522 0.960 . S
C526 N527 1.342 . S
C526 C530 1.401 . S
C526 C531 1.499 . S
N527 Co510 1.989 . S
N527 C526 1.342 . S
N527 N528 1.388 . S
N528 Co511 1.993 . S
N528 N527 1.388 . S
N528 C529 1.346 . S
C529 N528 1.346 . S
C529 C530 1.396 . S
C529 C539 1.510 . S
C530 C526 1.401 . S
C530 C529 1.396 . S
C531 C526 1.499 . S
C531 H532 0.959 . S
C531 H533 0.960 . S
C531 H534 0.961 . S
H532 C531 0.959 . S
H533 C531 0.960 . S
H534 C531 0.961 . S
O535 Co510 1.967 . S
O535 C543 1.258 . S
O536 Co511 1.941 . S
O536 C543 1.266 . S
H537 C539 0.959 . S
H538 C539 0.961 . S
C539 C529 1.510 . S
C539 H537 0.959 . S
C539 H538 0.961 . S
C539 H540 0.960 . S
H540 C539 0.960 . S
H541 N521 0.862 . S
O542 Co510 1.920 . S
O542 C515 1.289 . S
C543 O535 1.258 . S
C543 O536 1.266 . S
Co544 O547 1.970 . S
Co544 N561 1.989 . S
Co544 O569 1.967 . S
Co544 O576 1.920 . S
Co545 O548 1.966 . S
Co545 N554 2.022 . S
Co545 N562 1.993 . S
Co545 O570 1.941 . S
C546 O547 1.258 . S
C546 O548 1.263 . S
O547 Co544 1.970 . S
O547 C546 1.258 . S
O548 Co545 1.966 . S
O548 C546 1.263 . S
C549 O550 1.235 . S
C549 O576 1.289 . S
O550 C549 1.235 . S
C551 C553 1.400 . S
C551 N554 1.351 . S
C551 C556 1.501 . S
C552 C553 1.387 . S
C552 N555 1.341 . S
C553 C551 1.400 . S
C553 C552 1.387 . S
N554 Co545 2.022 . S
N554 C551 1.351 . S
N554 N555 1.365 . S
N555 C552 1.341 . S
N555 N554 1.365 . S
N555 H575 0.862 . S
C556 C551 1.501 . S
C556 H557 0.961 . S
C556 H558 0.961 . S
C556 H559 0.960 . S
H557 C556 0.961 . S
H558 C556 0.961 . S
H559 C556 0.960 . S
C560 N561 1.342 . S
C560 C564 1.401 . S
C560 C565 1.499 . S
N561 Co544 1.989 . S
N561 C560 1.342 . S
N561 N562 1.388 . S
N562 Co545 1.993 . S
N562 N561 1.388 . S
N562 C563 1.346 . S
C563 N562 1.346 . S
C563 C564 1.396 . S
C563 C573 1.510 . S
C564 C560 1.401 . S
C564 C563 1.396 . S
C565 C560 1.499 . S
C565 H566 0.959 . S
C565 H567 0.960 . S
C565 H568 0.961 . S
H566 C565 0.959 . S
H567 C565 0.960 . S
H568 C565 0.961 . S
O569 Co544 1.967 . S
O569 C577 1.258 . S
O570 Co545 1.941 . S
O570 C577 1.266 . S
H571 C573 0.959 . S
H572 C573 0.961 . S
C573 C563 1.510 . S
C573 H571 0.959 . S
C573 H572 0.961 . S
C573 H574 0.960 . S
H574 C573 0.960 . S
H575 N555 0.862 . S
O576 Co544 1.920 . S
O576 C549 1.289 . S
C577 O569 1.258 . S
C577 O570 1.266 . S
Co578 O581 1.970 . S
Co578 N595 1.989 . S
Co578 O603 1.967 . S
Co578 O610 1.920 . S
Co579 O582 1.966 . S
Co579 N588 2.022 . S
Co579 N596 1.993 . S
Co579 O604 1.941 . S
C580 O581 1.258 . S
C580 O582 1.263 . S
O581 Co578 1.970 . S
O581 C580 1.258 . S
O582 Co579 1.966 . S
O582 C580 1.263 . S
C583 O584 1.235 . S
C583 O610 1.289 . S
O584 C583 1.235 . S
C585 C587 1.400 . S
C585 N588 1.351 . S
C585 C590 1.501 . S
C586 C587 1.387 . S
C586 N589 1.341 . S
C587 C585 1.400 . S
C587 C586 1.387 . S
N588 Co579 2.022 . S
N588 C585 1.351 . S
N588 N589 1.365 . S
N589 C586 1.341 . S
N589 N588 1.365 . S
N589 H609 0.862 . S
C590 C585 1.501 . S
C590 H591 0.961 . S
C590 H592 0.961 . S
C590 H593 0.960 . S
H591 C590 0.961 . S
H592 C590 0.961 . S
H593 C590 0.960 . S
C594 N595 1.342 . S
C594 C598 1.401 . S
C594 C599 1.499 . S
N595 Co578 1.989 . S
N595 C594 1.342 . S
N595 N596 1.388 . S
N596 Co579 1.993 . S
N596 N595 1.388 . S
N596 C597 1.346 . S
C597 N596 1.346 . S
C597 C598 1.396 . S
C597 C607 1.510 . S
C598 C594 1.401 . S
C598 C597 1.396 . S
C599 C594 1.499 . S
C599 H600 0.959 . S
C599 H601 0.960 . S
C599 H602 0.961 . S
H600 C599 0.959 . S
H601 C599 0.960 . S
H602 C599 0.961 . S
O603 Co578 1.967 . S
O603 C611 1.258 . S
O604 Co579 1.941 . S
O604 C611 1.266 . S
H605 C607 0.959 . S
H606 C607 0.961 . S
C607 C597 1.510 . S
C607 H605 0.959 . S
C607 H606 0.961 . S
C607 H608 0.960 . S
H608 C607 0.960 . S
H609 N589 0.862 . S
O610 Co578 1.920 . S
O610 C583 1.289 . S
C611 O603 1.258 . S
C611 O604 1.266 . S
Co612 O615 1.970 . S
Co612 N629 1.989 . S
Co612 O637 1.967 . S
Co612 O644 1.920 . S
Co613 O616 1.966 . S
Co613 N622 2.022 . S
Co613 N630 1.993 . S
Co613 O638 1.941 . S
C614 O615 1.258 . S
C614 O616 1.263 . S
O615 Co612 1.970 . S
O615 C614 1.258 . S
O616 Co613 1.966 . S
O616 C614 1.263 . S
C617 O618 1.235 . S
C617 O644 1.289 . S
O618 C617 1.235 . S
C619 C621 1.400 . S
C619 N622 1.351 . S
C619 C624 1.501 . S
C620 C621 1.387 . S
C620 N623 1.341 . S
C621 C619 1.400 . S
C621 C620 1.387 . S
N622 Co613 2.022 . S
N622 C619 1.351 . S
N622 N623 1.365 . S
N623 C620 1.341 . S
N623 N622 1.365 . S
N623 H643 0.862 . S
C624 C619 1.501 . S
C624 H625 0.961 . S
C624 H626 0.961 . S
C624 H627 0.960 . S
H625 C624 0.961 . S
H626 C624 0.961 . S
H627 C624 0.960 . S
C628 N629 1.342 . S
C628 C632 1.401 . S
C628 C633 1.499 . S
N629 Co612 1.989 . S
N629 C628 1.342 . S
N629 N630 1.388 . S
N630 Co613 1.993 . S
N630 N629 1.388 . S
N630 C631 1.346 . S
C631 N630 1.346 . S
C631 C632 1.396 . S
C631 C641 1.510 . S
C632 C628 1.401 . S
C632 C631 1.396 . S
C633 C628 1.499 . S
C633 H634 0.959 . S
C633 H635 0.960 . S
C633 H636 0.961 . S
H634 C633 0.959 . S
H635 C633 0.960 . S
H636 C633 0.961 . S
O637 Co612 1.967 . S
O637 C645 1.258 . S
O638 Co613 1.941 . S
O638 C645 1.266 . S
H639 C641 0.959 . S
H640 C641 0.961 . S
C641 C631 1.510 . S
C641 H639 0.959 . S
C641 H640 0.961 . S
C641 H642 0.960 . S
H642 C641 0.960 . S
H643 N623 0.862 . S
O644 Co612 1.920 . S
O644 C617 1.289 . S
C645 O637 1.258 . S
C645 O638 1.266 . S
Co646 O649 1.970 . S
Co646 N663 1.989 . S
Co646 O671 1.967 . S
Co646 O678 1.920 . S
Co647 O650 1.966 . S
Co647 N656 2.022 . S
Co647 N664 1.993 . S
Co647 O672 1.941 . S
C648 O649 1.258 . S
C648 O650 1.263 . S
O649 Co646 1.970 . S
O649 C648 1.258 . S
O650 Co647 1.966 . S
O650 C648 1.263 . S
C651 O652 1.235 . S
C651 O678 1.289 . S
O652 C651 1.235 . S
C653 C655 1.400 . S
C653 N656 1.351 . S
C653 C658 1.501 . S
C654 C655 1.387 . S
C654 N657 1.341 . S
C655 C653 1.400 . S
C655 C654 1.387 . S
N656 Co647 2.022 . S
N656 C653 1.351 . S
N656 N657 1.365 . S
N657 C654 1.341 . S
N657 N656 1.365 . S
N657 H677 0.862 . S
C658 C653 1.501 . S
C658 H659 0.961 . S
C658 H660 0.961 . S
C658 H661 0.960 . S
H659 C658 0.961 . S
H660 C658 0.961 . S
H661 C658 0.960 . S
C662 N663 1.342 . S
C662 C666 1.401 . S
C662 C667 1.499 . S
N663 Co646 1.989 . S
N663 C662 1.342 . S
N663 N664 1.388 . S
N664 Co647 1.993 . S
N664 N663 1.388 . S
N664 C665 1.346 . S
C665 N664 1.346 . S
C665 C666 1.396 . S
C665 C675 1.510 . S
C666 C662 1.401 . S
C666 C665 1.396 . S
C667 C662 1.499 . S
C667 H668 0.959 . S
C667 H669 0.960 . S
C667 H670 0.961 . S
H668 C667 0.959 . S
H669 C667 0.960 . S
H670 C667 0.961 . S
O671 Co646 1.967 . S
O671 C679 1.258 . S
O672 Co647 1.941 . S
O672 C679 1.266 . S
H673 C675 0.959 . S
H674 C675 0.961 . S
C675 C665 1.510 . S
C675 H673 0.959 . S
C675 H674 0.961 . S
C675 H676 0.960 . S
H676 C675 0.960 . S
H677 N657 0.862 . S
O678 Co646 1.920 . S
O678 C651 1.289 . S
C679 O671 1.258 . S
C679 O672 1.266 . S
Co680 O683 1.970 . S
Co680 N697 1.989 . S
Co680 O705 1.967 . S
Co680 O712 1.920 . S
Co681 O684 1.966 . S
Co681 N690 2.022 . S
Co681 N698 1.993 . S
Co681 O706 1.941 . S
C682 O683 1.258 . S
C682 O684 1.263 . S
O683 Co680 1.970 . S
O683 C682 1.258 . S
O684 Co681 1.966 . S
O684 C682 1.263 . S
C685 O686 1.235 . S
C685 O712 1.289 . S
O686 C685 1.235 . S
C687 C689 1.400 . S
C687 N690 1.351 . S
C687 C692 1.501 . S
C688 C689 1.387 . S
C688 N691 1.341 . S
C689 C687 1.400 . S
C689 C688 1.387 . S
N690 Co681 2.022 . S
N690 C687 1.351 . S
N690 N691 1.365 . S
N691 C688 1.341 . S
N691 N690 1.365 . S
N691 H711 0.862 . S
C692 C687 1.501 . S
C692 H693 0.961 . S
C692 H694 0.961 . S
C692 H695 0.960 . S
H693 C692 0.961 . S
H694 C692 0.961 . S
H695 C692 0.960 . S
C696 N697 1.342 . S
C696 C700 1.401 . S
C696 C701 1.499 . S
N697 Co680 1.989 . S
N697 C696 1.342 . S
N697 N698 1.388 . S
N698 Co681 1.993 . S
N698 N697 1.388 . S
N698 C699 1.346 . S
C699 N698 1.346 . S
C699 C700 1.396 . S
C699 C709 1.510 . S
C700 C696 1.401 . S
C700 C699 1.396 . S
C701 C696 1.499 . S
C701 H702 0.959 . S
C701 H703 0.960 . S
C701 H704 0.961 . S
H702 C701 0.959 . S
H703 C701 0.960 . S
H704 C701 0.961 . S
O705 Co680 1.967 . S
O705 C713 1.258 . S
O706 Co681 1.941 . S
O706 C713 1.266 . S
H707 C709 0.959 . S
H708 C709 0.961 . S
C709 C699 1.510 . S
C709 H707 0.959 . S
C709 H708 0.961 . S
C709 H710 0.960 . S
H710 C709 0.960 . S
H711 N691 0.862 . S
O712 Co680 1.920 . S
O712 C685 1.289 . S
C713 O705 1.258 . S
C713 O706 1.266 . S
Co714 O717 1.970 . S
Co714 N731 1.989 . S
Co714 O739 1.967 . S
Co714 O746 1.920 . S
Co715 O718 1.966 . S
Co715 N724 2.022 . S
Co715 N732 1.993 . S
Co715 O740 1.941 . S
C716 O717 1.258 . S
C716 O718 1.263 . S
O717 Co714 1.970 . S
O717 C716 1.258 . S
O718 Co715 1.966 . S
O718 C716 1.263 . S
C719 O720 1.235 . S
C719 O746 1.289 . S
O720 C719 1.235 . S
C721 C723 1.400 . S
C721 N724 1.351 . S
C721 C726 1.501 . S
C722 C723 1.387 . S
C722 N725 1.341 . S
C723 C721 1.400 . S
C723 C722 1.387 . S
N724 Co715 2.022 . S
N724 C721 1.351 . S
N724 N725 1.365 . S
N725 C722 1.341 . S
N725 N724 1.365 . S
N725 H745 0.862 . S
C726 C721 1.501 . S
C726 H727 0.961 . S
C726 H728 0.961 . S
C726 H729 0.960 . S
H727 C726 0.961 . S
H728 C726 0.961 . S
H729 C726 0.960 . S
C730 N731 1.342 . S
C730 C734 1.401 . S
C730 C735 1.499 . S
N731 Co714 1.989 . S
N731 C730 1.342 . S
N731 N732 1.388 . S
N732 Co715 1.993 . S
N732 N731 1.388 . S
N732 C733 1.346 . S
C733 N732 1.346 . S
C733 C734 1.396 . S
C733 C743 1.510 . S
C734 C730 1.401 . S
C734 C733 1.396 . S
C735 C730 1.499 . S
C735 H736 0.959 . S
C735 H737 0.960 . S
C735 H738 0.961 . S
H736 C735 0.959 . S
H737 C735 0.960 . S
H738 C735 0.961 . S
O739 Co714 1.967 . S
O739 C747 1.258 . S
O740 Co715 1.941 . S
O740 C747 1.266 . S
H741 C743 0.959 . S
H742 C743 0.961 . S
C743 C733 1.510 . S
C743 H741 0.959 . S
C743 H742 0.961 . S
C743 H744 0.960 . S
H744 C743 0.960 . S
H745 N725 0.862 . S
O746 Co714 1.920 . S
O746 C719 1.289 . S
C747 O739 1.258 . S
C747 O740 1.266 . S
Co748 O751 1.970 . S
Co748 N765 1.989 . S
Co748 O773 1.967 . S
Co748 O780 1.920 . S
Co749 O752 1.966 . S
Co749 N758 2.022 . S
Co749 N766 1.993 . S
Co749 O774 1.941 . S
C750 O751 1.258 . S
C750 O752 1.263 . S
O751 Co748 1.970 . S
O751 C750 1.258 . S
O752 Co749 1.966 . S
O752 C750 1.263 . S
C753 O754 1.235 . S
C753 O780 1.289 . S
O754 C753 1.235 . S
C755 C757 1.400 . S
C755 N758 1.351 . S
C755 C760 1.501 . S
C756 C757 1.387 . S
C756 N759 1.341 . S
C757 C755 1.400 . S
C757 C756 1.387 . S
N758 Co749 2.022 . S
N758 C755 1.351 . S
N758 N759 1.365 . S
N759 C756 1.341 . S
N759 N758 1.365 . S
N759 H779 0.862 . S
C760 C755 1.501 . S
C760 H761 0.961 . S
C760 H762 0.961 . S
C760 H763 0.960 . S
H761 C760 0.961 . S
H762 C760 0.961 . S
H763 C760 0.960 . S
C764 N765 1.342 . S
C764 C768 1.401 . S
C764 C769 1.499 . S
N765 Co748 1.989 . S
N765 C764 1.342 . S
N765 N766 1.388 . S
N766 Co749 1.993 . S
N766 N765 1.388 . S
N766 C767 1.346 . S
C767 N766 1.346 . S
C767 C768 1.396 . S
C767 C777 1.510 . S
C768 C764 1.401 . S
C768 C767 1.396 . S
C769 C764 1.499 . S
C769 H770 0.959 . S
C769 H771 0.960 . S
C769 H772 0.961 . S
H770 C769 0.959 . S
H771 C769 0.960 . S
H772 C769 0.961 . S
O773 Co748 1.967 . S
O773 C781 1.258 . S
O774 Co749 1.941 . S
O774 C781 1.266 . S
H775 C777 0.959 . S
H776 C777 0.961 . S
C777 C767 1.510 . S
C777 H775 0.959 . S
C777 H776 0.961 . S
C777 H778 0.960 . S
H778 C777 0.960 . S
H779 N759 0.862 . S
O780 Co748 1.920 . S
O780 C753 1.289 . S
C781 O773 1.258 . S
C781 O774 1.266 . S
Co782 O785 1.970 . S
Co782 N799 1.989 . S
Co782 O807 1.967 . S
Co782 O814 1.920 . S
Co783 O786 1.966 . S
Co783 N792 2.022 . S
Co783 N800 1.993 . S
Co783 O808 1.941 . S
C784 O785 1.258 . S
C784 O786 1.263 . S
O785 Co782 1.970 . S
O785 C784 1.258 . S
O786 Co783 1.966 . S
O786 C784 1.263 . S
C787 O788 1.235 . S
C787 O814 1.289 . S
O788 C787 1.235 . S
C789 C791 1.400 . S
C789 N792 1.351 . S
C789 C794 1.501 . S
C790 C791 1.387 . S
C790 N793 1.341 . S
C791 C789 1.400 . S
C791 C790 1.387 . S
N792 Co783 2.022 . S
N792 C789 1.351 . S
N792 N793 1.365 . S
N793 C790 1.341 . S
N793 N792 1.365 . S
N793 H813 0.862 . S
C794 C789 1.501 . S
C794 H795 0.961 . S
C794 H796 0.961 . S
C794 H797 0.960 . S
H795 C794 0.961 . S
H796 C794 0.961 . S
H797 C794 0.960 . S
C798 N799 1.342 . S
C798 C802 1.401 . S
C798 C803 1.499 . S
N799 Co782 1.989 . S
N799 C798 1.342 . S
N799 N800 1.388 . S
N800 Co783 1.993 . S
N800 N799 1.388 . S
N800 C801 1.346 . S
C801 N800 1.346 . S
C801 C802 1.396 . S
C801 C811 1.510 . S
C802 C798 1.401 . S
C802 C801 1.396 . S
C803 C798 1.499 . S
C803 H804 0.959 . S
C803 H805 0.960 . S
C803 H806 0.961 . S
H804 C803 0.959 . S
H805 C803 0.960 . S
H806 C803 0.961 . S
O807 Co782 1.967 . S
O807 C815 1.258 . S
O808 Co783 1.941 . S
O808 C815 1.266 . S
H809 C811 0.959 . S
H810 C811 0.961 . S
C811 C801 1.510 . S
C811 H809 0.959 . S
C811 H810 0.961 . S
C811 H812 0.960 . S
H812 C811 0.960 . S
H813 N793 0.862 . S
O814 Co782 1.920 . S
O814 C787 1.289 . S
C815 O807 1.258 . S
C815 O808 1.266 . S
Co816 O819 1.970 . S
Co816 N833 1.989 . S
Co816 O841 1.967 . S
Co816 O848 1.920 . S
Co817 O820 1.966 . S
Co817 N826 2.022 . S
Co817 N834 1.993 . S
Co817 O842 1.941 . S
C818 O819 1.258 . S
C818 O820 1.263 . S
O819 Co816 1.970 . S
O819 C818 1.258 . S
O820 Co817 1.966 . S
O820 C818 1.263 . S
C821 O822 1.235 . S
C821 O848 1.289 . S
O822 C821 1.235 . S
C823 C825 1.400 . S
C823 N826 1.351 . S
C823 C828 1.501 . S
C824 C825 1.387 . S
C824 N827 1.341 . S
C825 C823 1.400 . S
C825 C824 1.387 . S
N826 Co817 2.022 . S
N826 C823 1.351 . S
N826 N827 1.365 . S
N827 C824 1.341 . S
N827 N826 1.365 . S
N827 H847 0.862 . S
C828 C823 1.501 . S
C828 H829 0.961 . S
C828 H830 0.961 . S
C828 H831 0.960 . S
H829 C828 0.961 . S
H830 C828 0.961 . S
H831 C828 0.960 . S
C832 N833 1.342 . S
C832 C836 1.401 . S
C832 C837 1.499 . S
N833 Co816 1.989 . S
N833 C832 1.342 . S
N833 N834 1.388 . S
N834 Co817 1.993 . S
N834 N833 1.388 . S
N834 C835 1.346 . S
C835 N834 1.346 . S
C835 C836 1.396 . S
C835 C845 1.510 . S
C836 C832 1.401 . S
C836 C835 1.396 . S
C837 C832 1.499 . S
C837 H838 0.959 . S
C837 H839 0.960 . S
C837 H840 0.961 . S
H838 C837 0.959 . S
H839 C837 0.960 . S
H840 C837 0.961 . S
O841 Co816 1.967 . S
O841 C849 1.258 . S
O842 Co817 1.941 . S
O842 C849 1.266 . S
H843 C845 0.959 . S
H844 C845 0.961 . S
C845 C835 1.510 . S
C845 H843 0.959 . S
C845 H844 0.961 . S
C845 H846 0.960 . S
H846 C845 0.960 . S
H847 N827 0.862 . S
O848 Co816 1.920 . S
O848 C821 1.289 . S
C849 O841 1.258 . S
C849 O842 1.266 . S
Co850 O853 1.970 . S
Co850 N867 1.989 . S
Co850 O875 1.967 . S
Co850 O882 1.920 . S
Co851 O854 1.966 . S
Co851 N860 2.022 . S
Co851 N868 1.993 . S
Co851 O876 1.941 . S
C852 O853 1.258 . S
C852 O854 1.263 . S
O853 Co850 1.970 . S
O853 C852 1.258 . S
O854 Co851 1.966 . S
O854 C852 1.263 . S
C855 O856 1.235 . S
C855 O882 1.289 . S
O856 C855 1.235 . S
C857 C859 1.400 . S
C857 N860 1.351 . S
C857 C862 1.501 . S
C858 C859 1.387 . S
C858 N861 1.341 . S
C859 C857 1.400 . S
C859 C858 1.387 . S
N860 Co851 2.022 . S
N860 C857 1.351 . S
N860 N861 1.365 . S
N861 C858 1.341 . S
N861 N860 1.365 . S
N861 H881 0.862 . S
C862 C857 1.501 . S
C862 H863 0.961 . S
C862 H864 0.961 . S
C862 H865 0.960 . S
H863 C862 0.961 . S
H864 C862 0.961 . S
H865 C862 0.960 . S
C866 N867 1.342 . S
C866 C870 1.401 . S
C866 C871 1.499 . S
N867 Co850 1.989 . S
N867 C866 1.342 . S
N867 N868 1.388 . S
N868 Co851 1.993 . S
N868 N867 1.388 . S
N868 C869 1.346 . S
C869 N868 1.346 . S
C869 C870 1.396 . S
C869 C879 1.510 . S
C870 C866 1.401 . S
C870 C869 1.396 . S
C871 C866 1.499 . S
C871 H872 0.959 . S
C871 H873 0.960 . S
C871 H874 0.961 . S
H872 C871 0.959 . S
H873 C871 0.960 . S
H874 C871 0.961 . S
O875 Co850 1.967 . S
O875 C883 1.258 . S
O876 Co851 1.941 . S
O876 C883 1.266 . S
H877 C879 0.959 . S
H878 C879 0.961 . S
C879 C869 1.510 . S
C879 H877 0.959 . S
C879 H878 0.961 . S
C879 H880 0.960 . S
H880 C879 0.960 . S
H881 N861 0.862 . S
O882 Co850 1.920 . S
O882 C855 1.289 . S
C883 O875 1.258 . S
C883 O876 1.266 . S
Co884 O887 1.970 . S
Co884 N901 1.989 . S
Co884 O909 1.967 . S
Co884 O916 1.920 . S
Co885 O888 1.966 . S
Co885 N894 2.022 . S
Co885 N902 1.993 . S
Co885 O910 1.941 . S
C886 O887 1.258 . S
C886 O888 1.263 . S
O887 Co884 1.970 . S
O887 C886 1.258 . S
O888 Co885 1.966 . S
O888 C886 1.263 . S
C889 O890 1.235 . S
C889 O916 1.289 . S
O890 C889 1.235 . S
C891 C893 1.400 . S
C891 N894 1.351 . S
C891 C896 1.501 . S
C892 C893 1.387 . S
C892 N895 1.341 . S
C893 C891 1.400 . S
C893 C892 1.387 . S
N894 Co885 2.022 . S
N894 C891 1.351 . S
N894 N895 1.365 . S
N895 C892 1.341 . S
N895 N894 1.365 . S
N895 H915 0.862 . S
C896 C891 1.501 . S
C896 H897 0.961 . S
C896 H898 0.961 . S
C896 H899 0.960 . S
H897 C896 0.961 . S
H898 C896 0.961 . S
H899 C896 0.960 . S
C900 N901 1.342 . S
C900 C904 1.401 . S
C900 C905 1.499 . S
N901 Co884 1.989 . S
N901 C900 1.342 . S
N901 N902 1.388 . S
N902 Co885 1.993 . S
N902 N901 1.388 . S
N902 C903 1.346 . S
C903 N902 1.346 . S
C903 C904 1.396 . S
C903 C913 1.510 . S
C904 C900 1.401 . S
C904 C903 1.396 . S
C905 C900 1.499 . S
C905 H906 0.959 . S
C905 H907 0.960 . S
C905 H908 0.961 . S
H906 C905 0.959 . S
H907 C905 0.960 . S
H908 C905 0.961 . S
O909 Co884 1.967 . S
O909 C917 1.258 . S
O910 Co885 1.941 . S
O910 C917 1.266 . S
H911 C913 0.959 . S
H912 C913 0.961 . S
C913 C903 1.510 . S
C913 H911 0.959 . S
C913 H912 0.961 . S
C913 H914 0.960 . S
H914 C913 0.960 . S
H915 N895 0.862 . S
O916 Co884 1.920 . S
O916 C889 1.289 . S
C917 O909 1.258 . S
C917 O910 1.266 . S
Co918 O921 1.970 . S
Co918 N935 1.989 . S
Co918 O943 1.967 . S
Co918 O950 1.920 . S
Co919 O922 1.966 . S
Co919 N928 2.022 . S
Co919 N936 1.993 . S
Co919 O944 1.941 . S
C920 O921 1.258 . S
C920 O922 1.263 . S
O921 Co918 1.970 . S
O921 C920 1.258 . S
O922 Co919 1.966 . S
O922 C920 1.263 . S
C923 O924 1.235 . S
C923 O950 1.289 . S
O924 C923 1.235 . S
C925 C927 1.400 . S
C925 N928 1.351 . S
C925 C930 1.501 . S
C926 C927 1.387 . S
C926 N929 1.341 . S
C927 C925 1.400 . S
C927 C926 1.387 . S
N928 Co919 2.022 . S
N928 C925 1.351 . S
N928 N929 1.365 . S
N929 C926 1.341 . S
N929 N928 1.365 . S
N929 H949 0.862 . S
C930 C925 1.501 . S
C930 H931 0.961 . S
C930 H932 0.961 . S
C930 H933 0.960 . S
H931 C930 0.961 . S
H932 C930 0.961 . S
H933 C930 0.960 . S
C934 N935 1.342 . S
C934 C938 1.401 . S
C934 C939 1.499 . S
N935 Co918 1.989 . S
N935 C934 1.342 . S
N935 N936 1.388 . S
N936 Co919 1.993 . S
N936 N935 1.388 . S
N936 C937 1.346 . S
C937 N936 1.346 . S
C937 C938 1.396 . S
C937 C947 1.510 . S
C938 C934 1.401 . S
C938 C937 1.396 . S
C939 C934 1.499 . S
C939 H940 0.959 . S
C939 H941 0.960 . S
C939 H942 0.961 . S
H940 C939 0.959 . S
H941 C939 0.960 . S
H942 C939 0.961 . S
O943 Co918 1.967 . S
O943 C951 1.258 . S
O944 Co919 1.941 . S
O944 C951 1.266 . S
H945 C947 0.959 . S
H946 C947 0.961 . S
C947 C937 1.510 . S
C947 H945 0.959 . S
C947 H946 0.961 . S
C947 H948 0.960 . S
H948 C947 0.960 . S
H949 N929 0.862 . S
O950 Co918 1.920 . S
O950 C923 1.289 . S
C951 O943 1.258 . S
C951 O944 1.266 . S
Co952 O955 1.970 . S
Co952 N969 1.989 . S
Co952 O977 1.967 . S
Co952 O984 1.920 . S
Co953 O956 1.966 . S
Co953 N962 2.022 . S
Co953 N970 1.993 . S
Co953 O978 1.941 . S
C954 O955 1.258 . S
C954 O956 1.263 . S
O955 Co952 1.970 . S
O955 C954 1.258 . S
O956 Co953 1.966 . S
O956 C954 1.263 . S
C957 O958 1.235 . S
C957 O984 1.289 . S
O958 C957 1.235 . S
C959 C961 1.400 . S
C959 N962 1.351 . S
C959 C964 1.501 . S
C960 C961 1.387 . S
C960 N963 1.341 . S
C961 C959 1.400 . S
C961 C960 1.387 . S
N962 Co953 2.022 . S
N962 C959 1.351 . S
N962 N963 1.365 . S
N963 C960 1.341 . S
N963 N962 1.365 . S
N963 H983 0.862 . S
C964 C959 1.501 . S
C964 H965 0.961 . S
C964 H966 0.961 . S
C964 H967 0.960 . S
H965 C964 0.961 . S
H966 C964 0.961 . S
H967 C964 0.960 . S
C968 N969 1.342 . S
C968 C972 1.401 . S
C968 C973 1.499 . S
N969 Co952 1.989 . S
N969 C968 1.342 . S
N969 N970 1.388 . S
N970 Co953 1.993 . S
N970 N969 1.388 . S
N970 C971 1.346 . S
C971 N970 1.346 . S
C971 C972 1.396 . S
C971 C981 1.510 . S
C972 C968 1.401 . S
C972 C971 1.396 . S
C973 C968 1.499 . S
C973 H974 0.959 . S
C973 H975 0.960 . S
C973 H976 0.961 . S
H974 C973 0.959 . S
H975 C973 0.960 . S
H976 C973 0.961 . S
O977 Co952 1.967 . S
O977 C985 1.258 . S
O978 Co953 1.941 . S
O978 C985 1.266 . S
H979 C981 0.959 . S
H980 C981 0.961 . S
C981 C971 1.510 . S
C981 H979 0.959 . S
C981 H980 0.961 . S
C981 H982 0.960 . S
H982 C981 0.960 . S
H983 N963 0.862 . S
O984 Co952 1.920 . S
O984 C957 1.289 . S
C985 O977 1.258 . S
C985 O978 1.266 . S
Co986 O989 1.970 . S
Co986 N1003 1.989 . S
Co986 O1011 1.967 . S
Co986 O1018 1.920 . S
Co987 O990 1.966 . S
Co987 N996 2.022 . S
Co987 N1004 1.993 . S
Co987 O1012 1.941 . S
C988 O989 1.258 . S
C988 O990 1.263 . S
O989 Co986 1.970 . S
O989 C988 1.258 . S
O990 Co987 1.966 . S
O990 C988 1.263 . S
C991 O992 1.235 . S
C991 O1018 1.289 . S
O992 C991 1.235 . S
C993 C995 1.400 . S
C993 N996 1.351 . S
C993 C998 1.501 . S
C994 C995 1.387 . S
C994 N997 1.341 . S
C995 C993 1.400 . S
C995 C994 1.387 . S
N996 Co987 2.022 . S
N996 C993 1.351 . S
N996 N997 1.365 . S
N997 C994 1.341 . S
N997 N996 1.365 . S
N997 H1017 0.862 . S
C998 C993 1.501 . S
C998 H999 0.961 . S
C998 H1000 0.961 . S
C998 H1001 0.960 . S
H999 C998 0.961 . S
H1000 C998 0.961 . S
H1001 C998 0.960 . S
C1002 N1003 1.342 . S
C1002 C1006 1.401 . S
C1002 C1007 1.499 . S
N1003 Co986 1.989 . S
N1003 C1002 1.342 . S
N1003 N1004 1.388 . S
N1004 Co987 1.993 . S
N1004 N1003 1.388 . S
N1004 C1005 1.346 . S
C1005 N1004 1.346 . S
C1005 C1006 1.396 . S
C1005 C1015 1.510 . S
C1006 C1002 1.401 . S
C1006 C1005 1.396 . S
C1007 C1002 1.499 . S
C1007 H1008 0.959 . S
C1007 H1009 0.960 . S
C1007 H1010 0.961 . S
H1008 C1007 0.959 . S
H1009 C1007 0.960 . S
H1010 C1007 0.961 . S
O1011 Co986 1.967 . S
O1011 C1019 1.258 . S
O1012 Co987 1.941 . S
O1012 C1019 1.266 . S
H1013 C1015 0.959 . S
H1014 C1015 0.961 . S
C1015 C1005 1.510 . S
C1015 H1013 0.959 . S
C1015 H1014 0.961 . S
C1015 H1016 0.960 . S
H1016 C1015 0.960 . S
H1017 N997 0.862 . S
O1018 Co986 1.920 . S
O1018 C991 1.289 . S
C1019 O1011 1.258 . S
C1019 O1012 1.266 . S
Co1020 O1023 1.970 . S
Co1020 N1037 1.989 . S
Co1020 O1045 1.967 . S
Co1020 O1052 1.920 . S
Co1021 O1024 1.966 . S
Co1021 N1030 2.022 . S
Co1021 N1038 1.993 . S
Co1021 O1046 1.941 . S
C1022 O1023 1.258 . S
C1022 O1024 1.263 . S
O1023 Co1020 1.970 . S
O1023 C1022 1.258 . S
O1024 Co1021 1.966 . S
O1024 C1022 1.263 . S
C1025 O1026 1.235 . S
C1025 O1052 1.289 . S
O1026 C1025 1.235 . S
C1027 C1029 1.400 . S
C1027 N1030 1.351 . S
C1027 C1032 1.501 . S
C1028 C1029 1.387 . S
C1028 N1031 1.341 . S
C1029 C1027 1.400 . S
C1029 C1028 1.387 . S
N1030 Co1021 2.022 . S
N1030 C1027 1.351 . S
N1030 N1031 1.365 . S
N1031 C1028 1.341 . S
N1031 N1030 1.365 . S
N1031 H1051 0.862 . S
C1032 C1027 1.501 . S
C1032 H1033 0.961 . S
C1032 H1034 0.961 . S
C1032 H1035 0.960 . S
H1033 C1032 0.961 . S
H1034 C1032 0.961 . S
H1035 C1032 0.960 . S
C1036 N1037 1.342 . S
C1036 C1040 1.401 . S
C1036 C1041 1.499 . S
N1037 Co1020 1.989 . S
N1037 C1036 1.342 . S
N1037 N1038 1.388 . S
N1038 Co1021 1.993 . S
N1038 N1037 1.388 . S
N1038 C1039 1.346 . S
C1039 N1038 1.346 . S
C1039 C1040 1.396 . S
C1039 C1049 1.510 . S
C1040 C1036 1.401 . S
C1040 C1039 1.396 . S
C1041 C1036 1.499 . S
C1041 H1042 0.959 . S
C1041 H1043 0.960 . S
C1041 H1044 0.961 . S
H1042 C1041 0.959 . S
H1043 C1041 0.960 . S
H1044 C1041 0.961 . S
O1045 Co1020 1.967 . S
O1045 C1053 1.258 . S
O1046 Co1021 1.941 . S
O1046 C1053 1.266 . S
H1047 C1049 0.959 . S
H1048 C1049 0.961 . S
C1049 C1039 1.510 . S
C1049 H1047 0.959 . S
C1049 H1048 0.961 . S
C1049 H1050 0.960 . S
H1050 C1049 0.960 . S
H1051 N1031 0.862 . S
O1052 Co1020 1.920 . S
O1052 C1025 1.289 . S
C1053 O1045 1.258 . S
C1053 O1046 1.266 . S
Co1054 O1057 1.970 . S
Co1054 N1071 1.989 . S
Co1054 O1079 1.967 . S
Co1054 O1086 1.920 . S
Co1055 O1058 1.966 . S
Co1055 N1064 2.022 . S
Co1055 N1072 1.993 . S
Co1055 O1080 1.941 . S
C1056 O1057 1.258 . S
C1056 O1058 1.263 . S
O1057 Co1054 1.970 . S
O1057 C1056 1.258 . S
O1058 Co1055 1.966 . S
O1058 C1056 1.263 . S
C1059 O1060 1.235 . S
C1059 O1086 1.289 . S
O1060 C1059 1.235 . S
C1061 C1063 1.400 . S
C1061 N1064 1.351 . S
C1061 C1066 1.501 . S
C1062 C1063 1.387 . S
C1062 N1065 1.341 . S
C1063 C1061 1.400 . S
C1063 C1062 1.387 . S
N1064 Co1055 2.022 . S
N1064 C1061 1.351 . S
N1064 N1065 1.365 . S
N1065 C1062 1.341 . S
N1065 N1064 1.365 . S
N1065 H1085 0.862 . S
C1066 C1061 1.501 . S
C1066 H1067 0.961 . S
C1066 H1068 0.961 . S
C1066 H1069 0.960 . S
H1067 C1066 0.961 . S
H1068 C1066 0.961 . S
H1069 C1066 0.960 . S
C1070 N1071 1.342 . S
C1070 C1074 1.401 . S
C1070 C1075 1.499 . S
N1071 Co1054 1.989 . S
N1071 C1070 1.342 . S
N1071 N1072 1.388 . S
N1072 Co1055 1.993 . S
N1072 N1071 1.388 . S
N1072 C1073 1.346 . S
C1073 N1072 1.346 . S
C1073 C1074 1.396 . S
C1073 C1083 1.510 . S
C1074 C1070 1.401 . S
C1074 C1073 1.396 . S
C1075 C1070 1.499 . S
C1075 H1076 0.959 . S
C1075 H1077 0.960 . S
C1075 H1078 0.961 . S
H1076 C1075 0.959 . S
H1077 C1075 0.960 . S
H1078 C1075 0.961 . S
O1079 Co1054 1.967 . S
O1079 C1087 1.258 . S
O1080 Co1055 1.941 . S
O1080 C1087 1.266 . S
H1081 C1083 0.959 . S
H1082 C1083 0.961 . S
C1083 C1073 1.510 . S
C1083 H1081 0.959 . S
C1083 H1082 0.961 . S
C1083 H1084 0.960 . S
H1084 C1083 0.960 . S
H1085 N1065 0.862 . S
O1086 Co1054 1.920 . S
O1086 C1059 1.289 . S
C1087 O1079 1.258 . S
C1087 O1080 1.266 . S
Co1088 O1091 1.970 . S
Co1088 N1105 1.989 . S
Co1088 O1113 1.967 . S
Co1088 O1120 1.920 . S
Co1089 O1092 1.966 . S
Co1089 N1098 2.022 . S
Co1089 N1106 1.993 . S
Co1089 O1114 1.941 . S
C1090 O1091 1.258 . S
C1090 O1092 1.263 . S
O1091 Co1088 1.970 . S
O1091 C1090 1.258 . S
O1092 Co1089 1.966 . S
O1092 C1090 1.263 . S
C1093 O1094 1.235 . S
C1093 O1120 1.289 . S
O1094 C1093 1.235 . S
C1095 C1097 1.400 . S
C1095 N1098 1.351 . S
C1095 C1100 1.501 . S
C1096 C1097 1.387 . S
C1096 N1099 1.341 . S
C1097 C1095 1.400 . S
C1097 C1096 1.387 . S
N1098 Co1089 2.022 . S
N1098 C1095 1.351 . S
N1098 N1099 1.365 . S
N1099 C1096 1.341 . S
N1099 N1098 1.365 . S
N1099 H1119 0.862 . S
C1100 C1095 1.501 . S
C1100 H1101 0.961 . S
C1100 H1102 0.961 . S
C1100 H1103 0.960 . S
H1101 C1100 0.961 . S
H1102 C1100 0.961 . S
H1103 C1100 0.960 . S
C1104 N1105 1.342 . S
C1104 C1108 1.401 . S
C1104 C1109 1.499 . S
N1105 Co1088 1.989 . S
N1105 C1104 1.342 . S
N1105 N1106 1.388 . S
N1106 Co1089 1.993 . S
N1106 N1105 1.388 . S
N1106 C1107 1.346 . S
C1107 N1106 1.346 . S
C1107 C1108 1.396 . S
C1107 C1117 1.510 . S
C1108 C1104 1.401 . S
C1108 C1107 1.396 . S
C1109 C1104 1.499 . S
C1109 H1110 0.959 . S
C1109 H1111 0.960 . S
C1109 H1112 0.961 . S
H1110 C1109 0.959 . S
H1111 C1109 0.960 . S
H1112 C1109 0.961 . S
O1113 Co1088 1.967 . S
O1113 C1121 1.258 . S
O1114 Co1089 1.941 . S
O1114 C1121 1.266 . S
H1115 C1117 0.959 . S
H1116 C1117 0.961 . S
C1117 C1107 1.510 . S
C1117 H1115 0.959 . S
C1117 H1116 0.961 . S
C1117 H1118 0.960 . S
H1118 C1117 0.960 . S
H1119 N1099 0.862 . S
O1120 Co1088 1.920 . S
O1120 C1093 1.289 . S
C1121 O1113 1.258 . S
C1121 O1114 1.266 . S
Co1122 O1125 1.970 . S
Co1122 N1139 1.989 . S
Co1122 O1147 1.967 . S
Co1122 O1154 1.920 . S
Co1123 O1126 1.966 . S
Co1123 N1132 2.022 . S
Co1123 N1140 1.993 . S
Co1123 O1148 1.941 . S
C1124 O1125 1.258 . S
C1124 O1126 1.263 . S
O1125 Co1122 1.970 . S
O1125 C1124 1.258 . S
O1126 Co1123 1.966 . S
O1126 C1124 1.263 . S
C1127 O1128 1.235 . S
C1127 O1154 1.289 . S
O1128 C1127 1.235 . S
C1129 C1131 1.400 . S
C1129 N1132 1.351 . S
C1129 C1134 1.501 . S
C1130 C1131 1.387 . S
C1130 N1133 1.341 . S
C1131 C1129 1.400 . S
C1131 C1130 1.387 . S
N1132 Co1123 2.022 . S
N1132 C1129 1.351 . S
N1132 N1133 1.365 . S
N1133 C1130 1.341 . S
N1133 N1132 1.365 . S
N1133 H1153 0.862 . S
C1134 C1129 1.501 . S
C1134 H1135 0.961 . S
C1134 H1136 0.961 . S
C1134 H1137 0.960 . S
H1135 C1134 0.961 . S
H1136 C1134 0.961 . S
H1137 C1134 0.960 . S
C1138 N1139 1.342 . S
C1138 C1142 1.401 . S
C1138 C1143 1.499 . S
N1139 Co1122 1.989 . S
N1139 C1138 1.342 . S
N1139 N1140 1.388 . S
N1140 Co1123 1.993 . S
N1140 N1139 1.388 . S
N1140 C1141 1.346 . S
C1141 N1140 1.346 . S
C1141 C1142 1.396 . S
C1141 C1151 1.510 . S
C1142 C1138 1.401 . S
C1142 C1141 1.396 . S
C1143 C1138 1.499 . S
C1143 H1144 0.959 . S
C1143 H1145 0.960 . S
C1143 H1146 0.961 . S
H1144 C1143 0.959 . S
H1145 C1143 0.960 . S
H1146 C1143 0.961 . S
O1147 Co1122 1.967 . S
O1147 C1155 1.258 . S
O1148 Co1123 1.941 . S
O1148 C1155 1.266 . S
H1149 C1151 0.959 . S
H1150 C1151 0.961 . S
C1151 C1141 1.510 . S
C1151 H1149 0.959 . S
C1151 H1150 0.961 . S
C1151 H1152 0.960 . S
H1152 C1151 0.960 . S
H1153 N1133 0.862 . S
O1154 Co1122 1.920 . S
O1154 C1127 1.289 . S
C1155 O1147 1.258 . S
C1155 O1148 1.266 . S
Co1156 O1159 1.970 . S
Co1156 N1173 1.989 . S
Co1156 O1181 1.967 . S
Co1156 O1188 1.920 . S
Co1157 O1160 1.966 . S
Co1157 N1166 2.022 . S
Co1157 N1174 1.993 . S
Co1157 O1182 1.941 . S
C1158 O1159 1.258 . S
C1158 O1160 1.263 . S
O1159 Co1156 1.970 . S
O1159 C1158 1.258 . S
O1160 Co1157 1.966 . S
O1160 C1158 1.263 . S
C1161 O1162 1.235 . S
C1161 O1188 1.289 . S
O1162 C1161 1.235 . S
C1163 C1165 1.400 . S
C1163 N1166 1.351 . S
C1163 C1168 1.501 . S
C1164 C1165 1.387 . S
C1164 N1167 1.341 . S
C1165 C1163 1.400 . S
C1165 C1164 1.387 . S
N1166 Co1157 2.022 . S
N1166 C1163 1.351 . S
N1166 N1167 1.365 . S
N1167 C1164 1.341 . S
N1167 N1166 1.365 . S
N1167 H1187 0.862 . S
C1168 C1163 1.501 . S
C1168 H1169 0.961 . S
C1168 H1170 0.961 . S
C1168 H1171 0.960 . S
H1169 C1168 0.961 . S
H1170 C1168 0.961 . S
H1171 C1168 0.960 . S
C1172 N1173 1.342 . S
C1172 C1176 1.401 . S
C1172 C1177 1.499 . S
N1173 Co1156 1.989 . S
N1173 C1172 1.342 . S
N1173 N1174 1.388 . S
N1174 Co1157 1.993 . S
N1174 N1173 1.388 . S
N1174 C1175 1.346 . S
C1175 N1174 1.346 . S
C1175 C1176 1.396 . S
C1175 C1185 1.510 . S
C1176 C1172 1.401 . S
C1176 C1175 1.396 . S
C1177 C1172 1.499 . S
C1177 H1178 0.959 . S
C1177 H1179 0.960 . S
C1177 H1180 0.961 . S
H1178 C1177 0.959 . S
H1179 C1177 0.960 . S
H1180 C1177 0.961 . S
O1181 Co1156 1.967 . S
O1181 C1189 1.258 . S
O1182 Co1157 1.941 . S
O1182 C1189 1.266 . S
H1183 C1185 0.959 . S
H1184 C1185 0.961 . S
C1185 C1175 1.510 . S
C1185 H1183 0.959 . S
C1185 H1184 0.961 . S
C1185 H1186 0.960 . S
H1186 C1185 0.960 . S
H1187 N1167 0.862 . S
O1188 Co1156 1.920 . S
O1188 C1161 1.289 . S
C1189 O1181 1.258 . S
C1189 O1182 1.266 . S
Co1190 O1193 1.970 . S
Co1190 N1207 1.989 . S
Co1190 O1215 1.967 . S
Co1190 O1222 1.920 . S
Co1191 O1194 1.966 . S
Co1191 N1200 2.022 . S
Co1191 N1208 1.993 . S
Co1191 O1216 1.941 . S
C1192 O1193 1.258 . S
C1192 O1194 1.263 . S
O1193 Co1190 1.970 . S
O1193 C1192 1.258 . S
O1194 Co1191 1.966 . S
O1194 C1192 1.263 . S
C1195 O1196 1.235 . S
C1195 O1222 1.289 . S
O1196 C1195 1.235 . S
C1197 C1199 1.400 . S
C1197 N1200 1.351 . S
C1197 C1202 1.501 . S
C1198 C1199 1.387 . S
C1198 N1201 1.341 . S
C1199 C1197 1.400 . S
C1199 C1198 1.387 . S
N1200 Co1191 2.022 . S
N1200 C1197 1.351 . S
N1200 N1201 1.365 . S
N1201 C1198 1.341 . S
N1201 N1200 1.365 . S
N1201 H1221 0.862 . S
C1202 C1197 1.501 . S
C1202 H1203 0.961 . S
C1202 H1204 0.961 . S
C1202 H1205 0.960 . S
H1203 C1202 0.961 . S
H1204 C1202 0.961 . S
H1205 C1202 0.960 . S
C1206 N1207 1.342 . S
C1206 C1210 1.401 . S
C1206 C1211 1.499 . S
N1207 Co1190 1.989 . S
N1207 C1206 1.342 . S
N1207 N1208 1.388 . S
N1208 Co1191 1.993 . S
N1208 N1207 1.388 . S
N1208 C1209 1.346 . S
C1209 N1208 1.346 . S
C1209 C1210 1.396 . S
C1209 C1219 1.510 . S
C1210 C1206 1.401 . S
C1210 C1209 1.396 . S
C1211 C1206 1.499 . S
C1211 H1212 0.959 . S
C1211 H1213 0.960 . S
C1211 H1214 0.961 . S
H1212 C1211 0.959 . S
H1213 C1211 0.960 . S
H1214 C1211 0.961 . S
O1215 Co1190 1.967 . S
O1215 C1223 1.258 . S
O1216 Co1191 1.941 . S
O1216 C1223 1.266 . S
H1217 C1219 0.959 . S
H1218 C1219 0.961 . S
C1219 C1209 1.510 . S
C1219 H1217 0.959 . S
C1219 H1218 0.961 . S
C1219 H1220 0.960 . S
H1220 C1219 0.960 . S
H1221 N1201 0.862 . S
O1222 Co1190 1.920 . S
O1222 C1195 1.289 . S
C1223 O1215 1.258 . S
C1223 O1216 1.266 . S
Co1224 O1227 1.970 . S
Co1224 N1241 1.989 . S
Co1224 O1249 1.967 . S
Co1224 O1256 1.920 . S
Co1225 O1228 1.966 . S
Co1225 N1234 2.022 . S
Co1225 N1242 1.993 . S
Co1225 O1250 1.941 . S
C1226 O1227 1.258 . S
C1226 O1228 1.263 . S
O1227 Co1224 1.970 . S
O1227 C1226 1.258 . S
O1228 Co1225 1.966 . S
O1228 C1226 1.263 . S
C1229 O1230 1.235 . S
C1229 O1256 1.289 . S
O1230 C1229 1.235 . S
C1231 C1233 1.400 . S
C1231 N1234 1.351 . S
C1231 C1236 1.501 . S
C1232 C1233 1.387 . S
C1232 N1235 1.341 . S
C1233 C1231 1.400 . S
C1233 C1232 1.387 . S
N1234 Co1225 2.022 . S
N1234 C1231 1.351 . S
N1234 N1235 1.365 . S
N1235 C1232 1.341 . S
N1235 N1234 1.365 . S
N1235 H1255 0.862 . S
C1236 C1231 1.501 . S
C1236 H1237 0.961 . S
C1236 H1238 0.961 . S
C1236 H1239 0.960 . S
H1237 C1236 0.961 . S
H1238 C1236 0.961 . S
H1239 C1236 0.960 . S
C1240 N1241 1.342 . S
C1240 C1244 1.401 . S
C1240 C1245 1.499 . S
N1241 Co1224 1.989 . S
N1241 C1240 1.342 . S
N1241 N1242 1.388 . S
N1242 Co1225 1.993 . S
N1242 N1241 1.388 . S
N1242 C1243 1.346 . S
C1243 N1242 1.346 . S
C1243 C1244 1.396 . S
C1243 C1253 1.510 . S
C1244 C1240 1.401 . S
C1244 C1243 1.396 . S
C1245 C1240 1.499 . S
C1245 H1246 0.959 . S
C1245 H1247 0.960 . S
C1245 H1248 0.961 . S
H1246 C1245 0.959 . S
H1247 C1245 0.960 . S
H1248 C1245 0.961 . S
O1249 Co1224 1.967 . S
O1249 C1257 1.258 . S
O1250 Co1225 1.941 . S
O1250 C1257 1.266 . S
H1251 C1253 0.959 . S
H1252 C1253 0.961 . S
C1253 C1243 1.510 . S
C1253 H1251 0.959 . S
C1253 H1252 0.961 . S
C1253 H1254 0.960 . S
H1254 C1253 0.960 . S
H1255 N1235 0.862 . S
O1256 Co1224 1.920 . S
O1256 C1229 1.289 . S
C1257 O1249 1.258 . S
C1257 O1250 1.266 . S
Co1258 O1261 1.970 . S
Co1258 N1275 1.989 . S
Co1258 O1283 1.967 . S
Co1258 O1290 1.920 . S
Co1259 O1262 1.966 . S
Co1259 N1268 2.022 . S
Co1259 N1276 1.993 . S
Co1259 O1284 1.941 . S
C1260 O1261 1.258 . S
C1260 O1262 1.263 . S
O1261 Co1258 1.970 . S
O1261 C1260 1.258 . S
O1262 Co1259 1.966 . S
O1262 C1260 1.263 . S
C1263 O1264 1.235 . S
C1263 O1290 1.289 . S
O1264 C1263 1.235 . S
C1265 C1267 1.400 . S
C1265 N1268 1.351 . S
C1265 C1270 1.501 . S
C1266 C1267 1.387 . S
C1266 N1269 1.341 . S
C1267 C1265 1.400 . S
C1267 C1266 1.387 . S
N1268 Co1259 2.022 . S
N1268 C1265 1.351 . S
N1268 N1269 1.365 . S
N1269 C1266 1.341 . S
N1269 N1268 1.365 . S
N1269 H1289 0.862 . S
C1270 C1265 1.501 . S
C1270 H1271 0.961 . S
C1270 H1272 0.961 . S
C1270 H1273 0.960 . S
H1271 C1270 0.961 . S
H1272 C1270 0.961 . S
H1273 C1270 0.960 . S
C1274 N1275 1.342 . S
C1274 C1278 1.401 . S
C1274 C1279 1.499 . S
N1275 Co1258 1.989 . S
N1275 C1274 1.342 . S
N1275 N1276 1.388 . S
N1276 Co1259 1.993 . S
N1276 N1275 1.388 . S
N1276 C1277 1.346 . S
C1277 N1276 1.346 . S
C1277 C1278 1.396 . S
C1277 C1287 1.510 . S
C1278 C1274 1.401 . S
C1278 C1277 1.396 . S
C1279 C1274 1.499 . S
C1279 H1280 0.959 . S
C1279 H1281 0.960 . S
C1279 H1282 0.961 . S
H1280 C1279 0.959 . S
H1281 C1279 0.960 . S
H1282 C1279 0.961 . S
O1283 Co1258 1.967 . S
O1283 C1291 1.258 . S
O1284 Co1259 1.941 . S
O1284 C1291 1.266 . S
H1285 C1287 0.959 . S
H1286 C1287 0.961 . S
C1287 C1277 1.510 . S
C1287 H1285 0.959 . S
C1287 H1286 0.961 . S
C1287 H1288 0.960 . S
H1288 C1287 0.960 . S
H1289 N1269 0.862 . S
O1290 Co1258 1.920 . S
O1290 C1263 1.289 . S
C1291 O1283 1.258 . S
C1291 O1284 1.266 . S
Co1292 O1295 1.970 . S
Co1292 N1309 1.989 . S
Co1292 O1317 1.967 . S
Co1292 O1324 1.920 . S
Co1293 O1296 1.966 . S
Co1293 N1302 2.022 . S
Co1293 N1310 1.993 . S
Co1293 O1318 1.941 . S
C1294 O1295 1.258 . S
C1294 O1296 1.263 . S
O1295 Co1292 1.970 . S
O1295 C1294 1.258 . S
O1296 Co1293 1.966 . S
O1296 C1294 1.263 . S
C1297 O1298 1.235 . S
C1297 O1324 1.289 . S
O1298 C1297 1.235 . S
C1299 C1301 1.400 . S
C1299 N1302 1.351 . S
C1299 C1304 1.501 . S
C1300 C1301 1.387 . S
C1300 N1303 1.341 . S
C1301 C1299 1.400 . S
C1301 C1300 1.387 . S
N1302 Co1293 2.022 . S
N1302 C1299 1.351 . S
N1302 N1303 1.365 . S
N1303 C1300 1.341 . S
N1303 N1302 1.365 . S
N1303 H1323 0.862 . S
C1304 C1299 1.501 . S
C1304 H1305 0.961 . S
C1304 H1306 0.961 . S
C1304 H1307 0.960 . S
H1305 C1304 0.961 . S
H1306 C1304 0.961 . S
H1307 C1304 0.960 . S
C1308 N1309 1.342 . S
C1308 C1312 1.401 . S
C1308 C1313 1.499 . S
N1309 Co1292 1.989 . S
N1309 C1308 1.342 . S
N1309 N1310 1.388 . S
N1310 Co1293 1.993 . S
N1310 N1309 1.388 . S
N1310 C1311 1.346 . S
C1311 N1310 1.346 . S
C1311 C1312 1.396 . S
C1311 C1321 1.510 . S
C1312 C1308 1.401 . S
C1312 C1311 1.396 . S
C1313 C1308 1.499 . S
C1313 H1314 0.959 . S
C1313 H1315 0.960 . S
C1313 H1316 0.961 . S
H1314 C1313 0.959 . S
H1315 C1313 0.960 . S
H1316 C1313 0.961 . S
O1317 Co1292 1.967 . S
O1317 C1325 1.258 . S
O1318 Co1293 1.941 . S
O1318 C1325 1.266 . S
H1319 C1321 0.959 . S
H1320 C1321 0.961 . S
C1321 C1311 1.510 . S
C1321 H1319 0.959 . S
C1321 H1320 0.961 . S
C1321 H1322 0.960 . S
H1322 C1321 0.960 . S
H1323 N1303 0.862 . S
O1324 Co1292 1.920 . S
O1324 C1297 1.289 . S
C1325 O1317 1.258 . S
C1325 O1318 1.266 . S
Co1326 O1329 1.970 . S
Co1326 N1343 1.989 . S
Co1326 O1351 1.967 . S
Co1326 O1358 1.920 . S
Co1327 O1330 1.966 . S
Co1327 N1336 2.022 . S
Co1327 N1344 1.993 . S
Co1327 O1352 1.941 . S
C1328 O1329 1.258 . S
C1328 O1330 1.263 . S
O1329 Co1326 1.970 . S
O1329 C1328 1.258 . S
O1330 Co1327 1.966 . S
O1330 C1328 1.263 . S
C1331 O1332 1.235 . S
C1331 O1358 1.289 . S
O1332 C1331 1.235 . S
C1333 C1335 1.400 . S
C1333 N1336 1.351 . S
C1333 C1338 1.501 . S
C1334 C1335 1.387 . S
C1334 N1337 1.341 . S
C1335 C1333 1.400 . S
C1335 C1334 1.387 . S
N1336 Co1327 2.022 . S
N1336 C1333 1.351 . S
N1336 N1337 1.365 . S
N1337 C1334 1.341 . S
N1337 N1336 1.365 . S
N1337 H1357 0.862 . S
C1338 C1333 1.501 . S
C1338 H1339 0.961 . S
C1338 H1340 0.961 . S
C1338 H1341 0.960 . S
H1339 C1338 0.961 . S
H1340 C1338 0.961 . S
H1341 C1338 0.960 . S
C1342 N1343 1.342 . S
C1342 C1346 1.401 . S
C1342 C1347 1.499 . S
N1343 Co1326 1.989 . S
N1343 C1342 1.342 . S
N1343 N1344 1.388 . S
N1344 Co1327 1.993 . S
N1344 N1343 1.388 . S
N1344 C1345 1.346 . S
C1345 N1344 1.346 . S
C1345 C1346 1.396 . S
C1345 C1355 1.510 . S
C1346 C1342 1.401 . S
C1346 C1345 1.396 . S
C1347 C1342 1.499 . S
C1347 H1348 0.959 . S
C1347 H1349 0.960 . S
C1347 H1350 0.961 . S
H1348 C1347 0.959 . S
H1349 C1347 0.960 . S
H1350 C1347 0.961 . S
O1351 Co1326 1.967 . S
O1351 C1359 1.258 . S
O1352 Co1327 1.941 . S
O1352 C1359 1.266 . S
H1353 C1355 0.959 . S
H1354 C1355 0.961 . S
C1355 C1345 1.510 . S
C1355 H1353 0.959 . S
C1355 H1354 0.961 . S
C1355 H1356 0.960 . S
H1356 C1355 0.960 . S
H1357 N1337 0.862 . S
O1358 Co1326 1.920 . S
O1358 C1331 1.289 . S
C1359 O1351 1.258 . S
C1359 O1352 1.266 . S
Co1360 O1363 1.970 . S
Co1360 N1377 1.989 . S
Co1360 O1385 1.967 . S
Co1360 O1392 1.920 . S
Co1361 O1364 1.966 . S
Co1361 N1370 2.022 . S
Co1361 N1378 1.993 . S
Co1361 O1386 1.941 . S
C1362 O1363 1.258 . S
C1362 O1364 1.263 . S
O1363 Co1360 1.970 . S
O1363 C1362 1.258 . S
O1364 Co1361 1.966 . S
O1364 C1362 1.263 . S
C1365 O1366 1.235 . S
C1365 O1392 1.289 . S
O1366 C1365 1.235 . S
C1367 C1369 1.400 . S
C1367 N1370 1.351 . S
C1367 C1372 1.501 . S
C1368 C1369 1.387 . S
C1368 N1371 1.341 . S
C1369 C1367 1.400 . S
C1369 C1368 1.387 . S
N1370 Co1361 2.022 . S
N1370 C1367 1.351 . S
N1370 N1371 1.365 . S
N1371 C1368 1.341 . S
N1371 N1370 1.365 . S
N1371 H1391 0.862 . S
C1372 C1367 1.501 . S
C1372 H1373 0.961 . S
C1372 H1374 0.961 . S
C1372 H1375 0.960 . S
H1373 C1372 0.961 . S
H1374 C1372 0.961 . S
H1375 C1372 0.960 . S
C1376 N1377 1.342 . S
C1376 C1380 1.401 . S
C1376 C1381 1.499 . S
N1377 Co1360 1.989 . S
N1377 C1376 1.342 . S
N1377 N1378 1.388 . S
N1378 Co1361 1.993 . S
N1378 N1377 1.388 . S
N1378 C1379 1.346 . S
C1379 N1378 1.346 . S
C1379 C1380 1.396 . S
C1379 C1389 1.510 . S
C1380 C1376 1.401 . S
C1380 C1379 1.396 . S
C1381 C1376 1.499 . S
C1381 H1382 0.959 . S
C1381 H1383 0.960 . S
C1381 H1384 0.961 . S
H1382 C1381 0.959 . S
H1383 C1381 0.960 . S
H1384 C1381 0.961 . S
O1385 Co1360 1.967 . S
O1385 C1393 1.258 . S
O1386 Co1361 1.941 . S
O1386 C1393 1.266 . S
H1387 C1389 0.959 . S
H1388 C1389 0.961 . S
C1389 C1379 1.510 . S
C1389 H1387 0.959 . S
C1389 H1388 0.961 . S
C1389 H1390 0.960 . S
H1390 C1389 0.960 . S
H1391 N1371 0.862 . S
O1392 Co1360 1.920 . S
O1392 C1365 1.289 . S
C1393 O1385 1.258 . S
C1393 O1386 1.266 . S
Co1394 O1397 1.970 . S
Co1394 N1411 1.989 . S
Co1394 O1419 1.967 . S
Co1394 O1426 1.920 . S
Co1395 O1398 1.966 . S
Co1395 N1404 2.022 . S
Co1395 N1412 1.993 . S
Co1395 O1420 1.941 . S
C1396 O1397 1.258 . S
C1396 O1398 1.263 . S
O1397 Co1394 1.970 . S
O1397 C1396 1.258 . S
O1398 Co1395 1.966 . S
O1398 C1396 1.263 . S
C1399 O1400 1.235 . S
C1399 O1426 1.289 . S
O1400 C1399 1.235 . S
C1401 C1403 1.400 . S
C1401 N1404 1.351 . S
C1401 C1406 1.501 . S
C1402 C1403 1.387 . S
C1402 N1405 1.341 . S
C1403 C1401 1.400 . S
C1403 C1402 1.387 . S
N1404 Co1395 2.022 . S
N1404 C1401 1.351 . S
N1404 N1405 1.365 . S
N1405 C1402 1.341 . S
N1405 N1404 1.365 . S
N1405 H1425 0.862 . S
C1406 C1401 1.501 . S
C1406 H1407 0.961 . S
C1406 H1408 0.961 . S
C1406 H1409 0.960 . S
H1407 C1406 0.961 . S
H1408 C1406 0.961 . S
H1409 C1406 0.960 . S
C1410 N1411 1.342 . S
C1410 C1414 1.401 . S
C1410 C1415 1.499 . S
N1411 Co1394 1.989 . S
N1411 C1410 1.342 . S
N1411 N1412 1.388 . S
N1412 Co1395 1.993 . S
N1412 N1411 1.388 . S
N1412 C1413 1.346 . S
C1413 N1412 1.346 . S
C1413 C1414 1.396 . S
C1413 C1423 1.510 . S
C1414 C1410 1.401 . S
C1414 C1413 1.396 . S
C1415 C1410 1.499 . S
C1415 H1416 0.959 . S
C1415 H1417 0.960 . S
C1415 H1418 0.961 . S
H1416 C1415 0.959 . S
H1417 C1415 0.960 . S
H1418 C1415 0.961 . S
O1419 Co1394 1.967 . S
O1419 C1427 1.258 . S
O1420 Co1395 1.941 . S
O1420 C1427 1.266 . S
H1421 C1423 0.959 . S
H1422 C1423 0.961 . S
C1423 C1413 1.510 . S
C1423 H1421 0.959 . S
C1423 H1422 0.961 . S
C1423 H1424 0.960 . S
H1424 C1423 0.960 . S
H1425 N1405 0.862 . S
O1426 Co1394 1.920 . S
O1426 C1399 1.289 . S
C1427 O1419 1.258 . S
C1427 O1420 1.266 . S
Co1428 O1431 1.970 . S
Co1428 N1445 1.989 . S
Co1428 O1453 1.967 . S
Co1428 O1460 1.920 . S
Co1429 O1432 1.966 . S
Co1429 N1438 2.022 . S
Co1429 N1446 1.993 . S
Co1429 O1454 1.941 . S
C1430 O1431 1.258 . S
C1430 O1432 1.263 . S
O1431 Co1428 1.970 . S
O1431 C1430 1.258 . S
O1432 Co1429 1.966 . S
O1432 C1430 1.263 . S
C1433 O1434 1.235 . S
C1433 O1460 1.289 . S
O1434 C1433 1.235 . S
C1435 C1437 1.400 . S
C1435 N1438 1.351 . S
C1435 C1440 1.501 . S
C1436 C1437 1.387 . S
C1436 N1439 1.341 . S
C1437 C1435 1.400 . S
C1437 C1436 1.387 . S
N1438 Co1429 2.022 . S
N1438 C1435 1.351 . S
N1438 N1439 1.365 . S
N1439 C1436 1.341 . S
N1439 N1438 1.365 . S
N1439 H1459 0.862 . S
C1440 C1435 1.501 . S
C1440 H1441 0.961 . S
C1440 H1442 0.961 . S
C1440 H1443 0.960 . S
H1441 C1440 0.961 . S
H1442 C1440 0.961 . S
H1443 C1440 0.960 . S
C1444 N1445 1.342 . S
C1444 C1448 1.401 . S
C1444 C1449 1.499 . S
N1445 Co1428 1.989 . S
N1445 C1444 1.342 . S
N1445 N1446 1.388 . S
N1446 Co1429 1.993 . S
N1446 N1445 1.388 . S
N1446 C1447 1.346 . S
C1447 N1446 1.346 . S
C1447 C1448 1.396 . S
C1447 C1457 1.510 . S
C1448 C1444 1.401 . S
C1448 C1447 1.396 . S
C1449 C1444 1.499 . S
C1449 H1450 0.959 . S
C1449 H1451 0.960 . S
C1449 H1452 0.961 . S
H1450 C1449 0.959 . S
H1451 C1449 0.960 . S
H1452 C1449 0.961 . S
O1453 Co1428 1.967 . S
O1453 C1461 1.258 . S
O1454 Co1429 1.941 . S
O1454 C1461 1.266 . S
H1455 C1457 0.959 . S
H1456 C1457 0.961 . S
C1457 C1447 1.510 . S
C1457 H1455 0.959 . S
C1457 H1456 0.961 . S
C1457 H1458 0.960 . S
H1458 C1457 0.960 . S
H1459 N1439 0.862 . S
O1460 Co1428 1.920 . S
O1460 C1433 1.289 . S
C1461 O1453 1.258 . S
C1461 O1454 1.266 . S
Co1462 O1465 1.970 . S
Co1462 N1479 1.989 . S
Co1462 O1487 1.967 . S
Co1462 O1494 1.920 . S
Co1463 O1466 1.966 . S
Co1463 N1472 2.022 . S
Co1463 N1480 1.993 . S
Co1463 O1488 1.941 . S
C1464 O1465 1.258 . S
C1464 O1466 1.263 . S
O1465 Co1462 1.970 . S
O1465 C1464 1.258 . S
O1466 Co1463 1.966 . S
O1466 C1464 1.263 . S
C1467 O1468 1.235 . S
C1467 O1494 1.289 . S
O1468 C1467 1.235 . S
C1469 C1471 1.400 . S
C1469 N1472 1.351 . S
C1469 C1474 1.501 . S
C1470 C1471 1.387 . S
C1470 N1473 1.341 . S
C1471 C1469 1.400 . S
C1471 C1470 1.387 . S
N1472 Co1463 2.022 . S
N1472 C1469 1.351 . S
N1472 N1473 1.365 . S
N1473 C1470 1.341 . S
N1473 N1472 1.365 . S
N1473 H1493 0.862 . S
C1474 C1469 1.501 . S
C1474 H1475 0.961 . S
C1474 H1476 0.961 . S
C1474 H1477 0.960 . S
H1475 C1474 0.961 . S
H1476 C1474 0.961 . S
H1477 C1474 0.960 . S
C1478 N1479 1.342 . S
C1478 C1482 1.401 . S
C1478 C1483 1.499 . S
N1479 Co1462 1.989 . S
N1479 C1478 1.342 . S
N1479 N1480 1.388 . S
N1480 Co1463 1.993 . S
N1480 N1479 1.388 . S
N1480 C1481 1.346 . S
C1481 N1480 1.346 . S
C1481 C1482 1.396 . S
C1481 C1491 1.510 . S
C1482 C1478 1.401 . S
C1482 C1481 1.396 . S
C1483 C1478 1.499 . S
C1483 H1484 0.959 . S
C1483 H1485 0.960 . S
C1483 H1486 0.961 . S
H1484 C1483 0.959 . S
H1485 C1483 0.960 . S
H1486 C1483 0.961 . S
O1487 Co1462 1.967 . S
O1487 C1495 1.258 . S
O1488 Co1463 1.941 . S
O1488 C1495 1.266 . S
H1489 C1491 0.959 . S
H1490 C1491 0.961 . S
C1491 C1481 1.510 . S
C1491 H1489 0.959 . S
C1491 H1490 0.961 . S
C1491 H1492 0.960 . S
H1492 C1491 0.960 . S
H1493 N1473 0.862 . S
O1494 Co1462 1.920 . S
O1494 C1467 1.289 . S
C1495 O1487 1.258 . S
C1495 O1488 1.266 . S
Co1496 O1499 1.970 . S
Co1496 N1513 1.989 . S
Co1496 O1521 1.967 . S
Co1496 O1528 1.920 . S
Co1497 O1500 1.966 . S
Co1497 N1506 2.022 . S
Co1497 N1514 1.993 . S
Co1497 O1522 1.941 . S
C1498 O1499 1.258 . S
C1498 O1500 1.263 . S
O1499 Co1496 1.970 . S
O1499 C1498 1.258 . S
O1500 Co1497 1.966 . S
O1500 C1498 1.263 . S
C1501 O1502 1.235 . S
C1501 O1528 1.289 . S
O1502 C1501 1.235 . S
C1503 C1505 1.400 . S
C1503 N1506 1.351 . S
C1503 C1508 1.501 . S
C1504 C1505 1.387 . S
C1504 N1507 1.341 . S
C1505 C1503 1.400 . S
C1505 C1504 1.387 . S
N1506 Co1497 2.022 . S
N1506 C1503 1.351 . S
N1506 N1507 1.365 . S
N1507 C1504 1.341 . S
N1507 N1506 1.365 . S
N1507 H1527 0.862 . S
C1508 C1503 1.501 . S
C1508 H1509 0.961 . S
C1508 H1510 0.961 . S
C1508 H1511 0.960 . S
H1509 C1508 0.961 . S
H1510 C1508 0.961 . S
H1511 C1508 0.960 . S
C1512 N1513 1.342 . S
C1512 C1516 1.401 . S
C1512 C1517 1.499 . S
N1513 Co1496 1.989 . S
N1513 C1512 1.342 . S
N1513 N1514 1.388 . S
N1514 Co1497 1.993 . S
N1514 N1513 1.388 . S
N1514 C1515 1.346 . S
C1515 N1514 1.346 . S
C1515 C1516 1.396 . S
C1515 C1525 1.510 . S
C1516 C1512 1.401 . S
C1516 C1515 1.396 . S
C1517 C1512 1.499 . S
C1517 H1518 0.959 . S
C1517 H1519 0.960 . S
C1517 H1520 0.961 . S
H1518 C1517 0.959 . S
H1519 C1517 0.960 . S
H1520 C1517 0.961 . S
O1521 Co1496 1.967 . S
O1521 C1529 1.258 . S
O1522 Co1497 1.941 . S
O1522 C1529 1.266 . S
H1523 C1525 0.959 . S
H1524 C1525 0.961 . S
C1525 C1515 1.510 . S
C1525 H1523 0.959 . S
C1525 H1524 0.961 . S
C1525 H1526 0.960 . S
H1526 C1525 0.960 . S
H1527 N1507 0.862 . S
O1528 Co1496 1.920 . S
O1528 C1501 1.289 . S
C1529 O1521 1.258 . S
C1529 O1522 1.266 . S
Co1530 O1533 1.970 . S
Co1530 N1547 1.989 . S
Co1530 O1555 1.967 . S
Co1530 O1562 1.920 . S
Co1531 O1534 1.966 . S
Co1531 N1540 2.022 . S
Co1531 N1548 1.993 . S
Co1531 O1556 1.941 . S
C1532 O1533 1.258 . S
C1532 O1534 1.263 . S
O1533 Co1530 1.970 . S
O1533 C1532 1.258 . S
O1534 Co1531 1.966 . S
O1534 C1532 1.263 . S
C1535 O1536 1.235 . S
C1535 O1562 1.289 . S
O1536 C1535 1.235 . S
C1537 C1539 1.400 . S
C1537 N1540 1.351 . S
C1537 C1542 1.501 . S
C1538 C1539 1.387 . S
C1538 N1541 1.341 . S
C1539 C1537 1.400 . S
C1539 C1538 1.387 . S
N1540 Co1531 2.022 . S
N1540 C1537 1.351 . S
N1540 N1541 1.365 . S
N1541 C1538 1.341 . S
N1541 N1540 1.365 . S
N1541 H1561 0.862 . S
C1542 C1537 1.501 . S
C1542 H1543 0.961 . S
C1542 H1544 0.961 . S
C1542 H1545 0.960 . S
H1543 C1542 0.961 . S
H1544 C1542 0.961 . S
H1545 C1542 0.960 . S
C1546 N1547 1.342 . S
C1546 C1550 1.401 . S
C1546 C1551 1.499 . S
N1547 Co1530 1.989 . S
N1547 C1546 1.342 . S
N1547 N1548 1.388 . S
N1548 Co1531 1.993 . S
N1548 N1547 1.388 . S
N1548 C1549 1.346 . S
C1549 N1548 1.346 . S
C1549 C1550 1.396 . S
C1549 C1559 1.510 . S
C1550 C1546 1.401 . S
C1550 C1549 1.396 . S
C1551 C1546 1.499 . S
C1551 H1552 0.959 . S
C1551 H1553 0.960 . S
C1551 H1554 0.961 . S
H1552 C1551 0.959 . S
H1553 C1551 0.960 . S
H1554 C1551 0.961 . S
O1555 Co1530 1.967 . S
O1555 C1563 1.258 . S
O1556 Co1531 1.941 . S
O1556 C1563 1.266 . S
H1557 C1559 0.959 . S
H1558 C1559 0.961 . S
C1559 C1549 1.510 . S
C1559 H1557 0.959 . S
C1559 H1558 0.961 . S
C1559 H1560 0.960 . S
H1560 C1559 0.960 . S
H1561 N1541 0.862 . S
O1562 Co1530 1.920 . S
O1562 C1535 1.289 . S
C1563 O1555 1.258 . S
C1563 O1556 1.266 . S
Co1564 O1567 1.970 . S
Co1564 N1581 1.989 . S
Co1564 O1589 1.967 . S
Co1564 O1596 1.920 . S
Co1565 O1568 1.966 . S
Co1565 N1574 2.022 . S
Co1565 N1582 1.993 . S
Co1565 O1590 1.941 . S
C1566 O1567 1.258 . S
C1566 O1568 1.263 . S
O1567 Co1564 1.970 . S
O1567 C1566 1.258 . S
O1568 Co1565 1.966 . S
O1568 C1566 1.263 . S
C1569 O1570 1.235 . S
C1569 O1596 1.289 . S
O1570 C1569 1.235 . S
C1571 C1573 1.400 . S
C1571 N1574 1.351 . S
C1571 C1576 1.501 . S
C1572 C1573 1.387 . S
C1572 N1575 1.341 . S
C1573 C1571 1.400 . S
C1573 C1572 1.387 . S
N1574 Co1565 2.022 . S
N1574 C1571 1.351 . S
N1574 N1575 1.365 . S
N1575 C1572 1.341 . S
N1575 N1574 1.365 . S
N1575 H1595 0.862 . S
C1576 C1571 1.501 . S
C1576 H1577 0.961 . S
C1576 H1578 0.961 . S
C1576 H1579 0.960 . S
H1577 C1576 0.961 . S
H1578 C1576 0.961 . S
H1579 C1576 0.960 . S
C1580 N1581 1.342 . S
C1580 C1584 1.401 . S
C1580 C1585 1.499 . S
N1581 Co1564 1.989 . S
N1581 C1580 1.342 . S
N1581 N1582 1.388 . S
N1582 Co1565 1.993 . S
N1582 N1581 1.388 . S
N1582 C1583 1.346 . S
C1583 N1582 1.346 . S
C1583 C1584 1.396 . S
C1583 C1593 1.510 . S
C1584 C1580 1.401 . S
C1584 C1583 1.396 . S
C1585 C1580 1.499 . S
C1585 H1586 0.959 . S
C1585 H1587 0.960 . S
C1585 H1588 0.961 . S
H1586 C1585 0.959 . S
H1587 C1585 0.960 . S
H1588 C1585 0.961 . S
O1589 Co1564 1.967 . S
O1589 C1597 1.258 . S
O1590 Co1565 1.941 . S
O1590 C1597 1.266 . S
H1591 C1593 0.959 . S
H1592 C1593 0.961 . S
C1593 C1583 1.510 . S
C1593 H1591 0.959 . S
C1593 H1592 0.961 . S
C1593 H1594 0.960 . S
H1594 C1593 0.960 . S
H1595 N1575 0.862 . S
O1596 Co1564 1.920 . S
O1596 C1569 1.289 . S
C1597 O1589 1.258 . S
C1597 O1590 1.266 . S
Co1598 O1601 1.970 . S
Co1598 N1615 1.989 . S
Co1598 O1623 1.967 . S
Co1598 O1630 1.920 . S
Co1599 O1602 1.966 . S
Co1599 N1608 2.022 . S
Co1599 N1616 1.993 . S
Co1599 O1624 1.941 . S
C1600 O1601 1.258 . S
C1600 O1602 1.263 . S
O1601 Co1598 1.970 . S
O1601 C1600 1.258 . S
O1602 Co1599 1.966 . S
O1602 C1600 1.263 . S
C1603 O1604 1.235 . S
C1603 O1630 1.289 . S
O1604 C1603 1.235 . S
C1605 C1607 1.400 . S
C1605 N1608 1.351 . S
C1605 C1610 1.501 . S
C1606 C1607 1.387 . S
C1606 N1609 1.341 . S
C1607 C1605 1.400 . S
C1607 C1606 1.387 . S
N1608 Co1599 2.022 . S
N1608 C1605 1.351 . S
N1608 N1609 1.365 . S
N1609 C1606 1.341 . S
N1609 N1608 1.365 . S
N1609 H1629 0.862 . S
C1610 C1605 1.501 . S
C1610 H1611 0.961 . S
C1610 H1612 0.961 . S
C1610 H1613 0.960 . S
H1611 C1610 0.961 . S
H1612 C1610 0.961 . S
H1613 C1610 0.960 . S
C1614 N1615 1.342 . S
C1614 C1618 1.401 . S
C1614 C1619 1.499 . S
N1615 Co1598 1.989 . S
N1615 C1614 1.342 . S
N1615 N1616 1.388 . S
N1616 Co1599 1.993 . S
N1616 N1615 1.388 . S
N1616 C1617 1.346 . S
C1617 N1616 1.346 . S
C1617 C1618 1.396 . S
C1617 C1627 1.510 . S
C1618 C1614 1.401 . S
C1618 C1617 1.396 . S
C1619 C1614 1.499 . S
C1619 H1620 0.959 . S
C1619 H1621 0.960 . S
C1619 H1622 0.961 . S
H1620 C1619 0.959 . S
H1621 C1619 0.960 . S
H1622 C1619 0.961 . S
O1623 Co1598 1.967 . S
O1623 C1631 1.258 . S
O1624 Co1599 1.941 . S
O1624 C1631 1.266 . S
H1625 C1627 0.959 . S
H1626 C1627 0.961 . S
C1627 C1617 1.510 . S
C1627 H1625 0.959 . S
C1627 H1626 0.961 . S
C1627 H1628 0.960 . S
H1628 C1627 0.960 . S
H1629 N1609 0.862 . S
O1630 Co1598 1.920 . S
O1630 C1603 1.289 . S
C1631 O1623 1.258 . S
C1631 O1624 1.266 . S
H1632 C1640 0.950 . S
H1633 C1645 0.950 . S
H1634 C1642 0.950 . S
H1635 C1644 0.950 . S
H1636 C1646 0.950 . S
H1637 C1648 0.950 . S
H1638 C1650 0.950 . S
H1639 C1651 0.950 . S
C1640 H1632 0.950 . S
C1640 C1641 1.386 . S
C1640 C1642 1.391 1_556 S
C1641 C1640 1.386 . S
C1641 C1645 1.393 . S
C1642 H1634 0.950 . S
C1642 C1640 1.391 1_554 S
C1642 C1643 1.400 . S
C1643 C1642 1.400 . S
C1643 C1644 1.398 . S
C1643 C1649 1.491 . S
C1644 H1635 0.950 . S
C1644 C1643 1.398 . S
C1644 C1645 1.391 1_554 S
C1645 H1633 0.950 . S
C1645 C1641 1.393 . S
C1645 C1644 1.391 1_556 S
C1646 H1636 0.950 . S
C1646 C1647 1.386 . S
C1646 C1648 1.391 . S
C1647 C1646 1.386 . S
C1647 C1651 1.393 . S
C1648 H1637 0.950 . S
C1648 C1646 1.391 . S
C1648 C1649 1.400 . S
C1649 C1643 1.491 . S
C1649 C1648 1.400 . S
C1649 C1650 1.398 . S
C1650 H1638 0.950 . S
C1650 C1649 1.398 . S
C1650 C1651 1.391 . S
C1651 H1639 0.950 . S
C1651 C1647 1.393 . S
C1651 C1650 1.391 . S
H1652 C1660 0.950 . S
H1653 C1665 0.950 . S
H1654 C1662 0.950 . S
H1655 C1664 0.950 . S
H1656 C1666 0.950 . S
H1657 C1668 0.950 . S
H1658 C1670 0.950 . S
H1659 C1671 0.950 . S
C1660 H1652 0.950 . S
C1660 C1661 1.386 . S
C1660 C1662 1.391 . S
C1661 C1660 1.386 . S
C1661 C1665 1.393 . S
C1662 H1654 0.950 . S
C1662 C1660 1.391 . S
C1662 C1663 1.400 . S
C1663 C1662 1.400 . S
C1663 C1664 1.398 . S
C1663 C1669 1.491 . S
C1664 H1655 0.950 . S
C1664 C1663 1.398 . S
C1664 C1665 1.391 . S
C1665 H1653 0.950 . S
C1665 C1661 1.393 . S
C1665 C1664 1.391 . S
C1666 H1656 0.950 . S
C1666 C1667 1.386 . S
C1666 C1668 1.391 1_556 S
C1667 C1666 1.386 . S
C1667 C1671 1.393 . S
C1668 H1657 0.950 . S
C1668 C1666 1.391 1_554 S
C1668 C1669 1.400 . S
C1669 C1663 1.491 . S
C1669 C1668 1.400 . S
C1669 C1670 1.398 . S
C1670 H1658 0.950 . S
C1670 C1669 1.398 . S
C1670 C1671 1.391 1_554 S
C1671 H1659 0.950 . S
C1671 C1667 1.393 . S
C1671 C1670 1.391 1_556 S
H1672 C1680 0.950 . S
H1673 C1685 0.950 . S
H1674 C1682 0.950 . S
H1675 C1684 0.950 . S
H1676 C1686 0.950 . S
H1677 C1688 0.950 . S
H1678 C1690 0.950 . S
H1679 C1691 0.950 . S
C1680 H1672 0.950 . S
C1680 C1681 1.386 . S
C1680 C1682 1.391 . S
C1681 C1680 1.386 . S
C1681 C1685 1.393 . S
C1682 H1674 0.950 . S
C1682 C1680 1.391 . S
C1682 C1683 1.400 . S
C1683 C1682 1.400 . S
C1683 C1684 1.398 . S
C1683 C1689 1.491 . S
C1684 H1675 0.950 . S
C1684 C1683 1.398 . S
C1684 C1685 1.391 . S
C1685 H1673 0.950 . S
C1685 C1681 1.393 . S
C1685 C1684 1.391 . S
C1686 H1676 0.950 . S
C1686 C1687 1.386 . S
C1686 C1688 1.391 1_556 S
C1687 C1686 1.386 . S
C1687 C1691 1.393 . S
C1688 H1677 0.950 . S
C1688 C1686 1.391 1_554 S
C1688 C1689 1.400 . S
C1689 C1683 1.491 . S
C1689 C1688 1.400 . S
C1689 C1690 1.398 . S
C1690 H1678 0.950 . S
C1690 C1689 1.398 . S
C1690 C1691 1.391 1_554 S
C1691 H1679 0.950 . S
C1691 C1687 1.393 . S
C1691 C1690 1.391 1_556 S
H1692 C1700 0.950 . S
H1693 C1705 0.950 . S
H1694 C1702 0.950 . S
H1695 C1704 0.950 . S
H1696 C1706 0.950 . S
H1697 C1708 0.950 . S
H1698 C1710 0.950 . S
H1699 C1711 0.950 . S
C1700 H1692 0.950 . S
C1700 C1701 1.386 . S
C1700 C1702 1.391 1_556 S
C1701 C1700 1.386 . S
C1701 C1705 1.393 . S
C1702 H1694 0.950 . S
C1702 C1700 1.391 1_554 S
C1702 C1703 1.400 . S
C1703 C1702 1.400 . S
C1703 C1704 1.398 . S
C1703 C1709 1.491 . S
C1704 H1695 0.950 . S
C1704 C1703 1.398 . S
C1704 C1705 1.391 1_554 S
C1705 H1693 0.950 . S
C1705 C1701 1.393 . S
C1705 C1704 1.391 1_556 S
C1706 H1696 0.950 . S
C1706 C1707 1.386 . S
C1706 C1708 1.391 . S
C1707 C1706 1.386 . S
C1707 C1711 1.393 . S
C1708 H1697 0.950 . S
C1708 C1706 1.391 . S
C1708 C1709 1.400 . S
C1709 C1703 1.491 . S
C1709 C1708 1.400 . S
C1709 C1710 1.398 . S
C1710 H1698 0.950 . S
C1710 C1709 1.398 . S
C1710 C1711 1.391 . S
C1711 H1699 0.950 . S
C1711 C1707 1.393 . S
C1711 C1710 1.391 . S
H1712 C1720 0.950 . S
H1713 C1725 0.950 . S
H1714 C1722 0.950 . S
H1715 C1724 0.950 . S
H1716 C1726 0.950 . S
H1717 C1728 0.950 . S
H1718 C1730 0.950 . S
H1719 C1731 0.950 . S
C1720 H1712 0.950 . S
C1720 C1721 1.386 . S
C1720 C1722 1.391 1_554 S
C1721 C1720 1.386 . S
C1721 C1725 1.393 . S
C1722 H1714 0.950 . S
C1722 C1720 1.391 1_556 S
C1722 C1723 1.400 . S
C1723 C1722 1.400 . S
C1723 C1724 1.398 . S
C1723 C1729 1.491 . S
C1724 H1715 0.950 . S
C1724 C1723 1.398 . S
C1724 C1725 1.391 1_556 S
C1725 H1713 0.950 . S
C1725 C1721 1.393 . S
C1725 C1724 1.391 1_554 S
C1726 H1716 0.950 . S
C1726 C1727 1.386 . S
C1726 C1728 1.391 . S
C1727 C1726 1.386 . S
C1727 C1731 1.393 . S
C1728 H1717 0.950 . S
C1728 C1726 1.391 . S
C1728 C1729 1.400 . S
C1729 C1723 1.491 . S
C1729 C1728 1.400 . S
C1729 C1730 1.398 . S
C1730 H1718 0.950 . S
C1730 C1729 1.398 . S
C1730 C1731 1.391 . S
C1731 H1719 0.950 . S
C1731 C1727 1.393 . S
C1731 C1730 1.391 . S
H1732 C1740 0.950 . S
H1733 C1745 0.950 . S
H1734 C1742 0.950 . S
H1735 C1744 0.950 . S
H1736 C1746 0.950 . S
H1737 C1748 0.950 . S
H1738 C1750 0.950 . S
H1739 C1751 0.950 . S
C1740 H1732 0.950 . S
C1740 C1741 1.386 . S
C1740 C1742 1.391 . S
C1741 C1740 1.386 . S
C1741 C1745 1.393 . S
C1742 H1734 0.950 . S
C1742 C1740 1.391 . S
C1742 C1743 1.400 . S
C1743 C1742 1.400 . S
C1743 C1744 1.398 . S
C1743 C1749 1.491 . S
C1744 H1735 0.950 . S
C1744 C1743 1.398 . S
C1744 C1745 1.391 . S
C1745 H1733 0.950 . S
C1745 C1741 1.393 . S
C1745 C1744 1.391 . S
C1746 H1736 0.950 . S
C1746 C1747 1.386 . S
C1746 C1748 1.391 1_554 S
C1747 C1746 1.386 . S
C1747 C1751 1.393 . S
C1748 H1737 0.950 . S
C1748 C1746 1.391 1_556 S
C1748 C1749 1.400 . S
C1749 C1743 1.491 . S
C1749 C1748 1.400 . S
C1749 C1750 1.398 . S
C1750 H1738 0.950 . S
C1750 C1749 1.398 . S
C1750 C1751 1.391 1_556 S
C1751 H1739 0.950 . S
C1751 C1747 1.393 . S
C1751 C1750 1.391 1_554 S
H1752 C1760 0.950 . S
H1753 C1765 0.950 . S
H1754 C1762 0.950 . S
H1755 C1764 0.950 . S
H1756 C1766 0.950 . S
H1757 C1768 0.950 . S
H1758 C1770 0.950 . S
H1759 C1771 0.950 . S
C1760 H1752 0.950 . S
C1760 C1761 1.386 . S
C1760 C1762 1.391 1_554 S
C1761 C1760 1.386 . S
C1761 C1765 1.393 . S
C1762 H1754 0.950 . S
C1762 C1760 1.391 1_556 S
C1762 C1763 1.400 . S
C1763 C1762 1.400 . S
C1763 C1764 1.398 . S
C1763 C1769 1.491 . S
C1764 H1755 0.950 . S
C1764 C1763 1.398 . S
C1764 C1765 1.391 1_556 S
C1765 H1753 0.950 . S
C1765 C1761 1.393 . S
C1765 C1764 1.391 1_554 S
C1766 H1756 0.950 . S
C1766 C1767 1.386 . S
C1766 C1768 1.391 . S
C1767 C1766 1.386 . S
C1767 C1771 1.393 . S
C1768 H1757 0.950 . S
C1768 C1766 1.391 . S
C1768 C1769 1.400 . S
C1769 C1763 1.491 . S
C1769 C1768 1.400 . S
C1769 C1770 1.398 . S
C1770 H1758 0.950 . S
C1770 C1769 1.398 . S
C1770 C1771 1.391 . S
C1771 H1759 0.950 . S
C1771 C1767 1.393 . S
C1771 C1770 1.391 . S
H1772 C1780 0.950 . S
H1773 C1785 0.950 . S
H1774 C1782 0.950 . S
H1775 C1784 0.950 . S
H1776 C1786 0.950 . S
H1777 C1788 0.950 . S
H1778 C1790 0.950 . S
H1779 C1791 0.950 . S
C1780 H1772 0.950 . S
C1780 C1781 1.386 . S
C1780 C1782 1.391 1_554 S
C1781 C1780 1.386 . S
C1781 C1785 1.393 . S
C1782 H1774 0.950 . S
C1782 C1780 1.391 1_556 S
C1782 C1783 1.400 . S
C1783 C1782 1.400 . S
C1783 C1784 1.398 . S
C1783 C1789 1.491 . S
C1784 H1775 0.950 . S
C1784 C1783 1.398 . S
C1784 C1785 1.391 1_556 S
C1785 H1773 0.950 . S
C1785 C1781 1.393 . S
C1785 C1784 1.391 1_554 S
C1786 H1776 0.950 . S
C1786 C1787 1.386 . S
C1786 C1788 1.391 . S
C1787 C1786 1.386 . S
C1787 C1791 1.393 . S
C1788 H1777 0.950 . S
C1788 C1786 1.391 . S
C1788 C1789 1.400 . S
C1789 C1783 1.491 . S
C1789 C1788 1.400 . S
C1789 C1790 1.398 . S
C1790 H1778 0.950 . S
C1790 C1789 1.398 . S
C1790 C1791 1.391 . S
C1791 H1779 0.950 . S
C1791 C1787 1.393 . S
C1791 C1790 1.391 . S
H1792 C1800 0.950 . S
H1793 C1805 0.950 . S
H1794 C1802 0.950 . S
H1795 C1804 0.950 . S
H1796 C1806 0.950 . S
H1797 C1808 0.950 . S
H1798 C1810 0.950 . S
H1799 C1811 0.950 . S
C1800 H1792 0.950 . S
C1800 C1801 1.386 . S
C1800 C1802 1.391 . S
C1801 C1800 1.386 . S
C1801 C1805 1.393 . S
C1802 H1794 0.950 . S
C1802 C1800 1.391 . S
C1802 C1803 1.400 . S
C1803 C1802 1.400 . S
C1803 C1804 1.398 . S
C1803 C1809 1.491 . S
C1804 H1795 0.950 . S
C1804 C1803 1.398 . S
C1804 C1805 1.391 . S
C1805 H1793 0.950 . S
C1805 C1801 1.393 . S
C1805 C1804 1.391 . S
C1806 H1796 0.950 . S
C1806 C1807 1.386 . S
C1806 C1808 1.391 1_655 S
C1807 C1806 1.386 . S
C1807 C1811 1.393 . S
C1808 H1797 0.950 . S
C1808 C1806 1.391 1_455 S
C1808 C1809 1.400 . S
C1809 C1803 1.491 . S
C1809 C1808 1.400 . S
C1809 C1810 1.398 . S
C1810 H1798 0.950 . S
C1810 C1809 1.398 . S
C1810 C1811 1.391 1_455 S
C1811 H1799 0.950 . S
C1811 C1807 1.393 . S
C1811 C1810 1.391 1_655 S
H1812 C1820 0.950 . S
H1813 C1825 0.950 . S
H1814 C1822 0.950 . S
H1815 C1824 0.950 . S
H1816 C1826 0.950 . S
H1817 C1828 0.950 . S
H1818 C1830 0.950 . S
H1819 C1831 0.950 . S
C1820 H1812 0.950 . S
C1820 C1821 1.386 . S
C1820 C1822 1.391 1_565 S
C1821 C1820 1.386 . S
C1821 C1825 1.393 . S
C1822 H1814 0.950 . S
C1822 C1820 1.391 1_545 S
C1822 C1823 1.400 . S
C1823 C1822 1.400 . S
C1823 C1824 1.398 . S
C1823 C1829 1.491 . S
C1824 H1815 0.950 . S
C1824 C1823 1.398 . S
C1824 C1825 1.391 1_545 S
C1825 H1813 0.950 . S
C1825 C1821 1.393 . S
C1825 C1824 1.391 1_565 S
C1826 H1816 0.950 . S
C1826 C1827 1.386 . S
C1826 C1828 1.391 . S
C1827 C1826 1.386 . S
C1827 C1831 1.393 . S
C1828 H1817 0.950 . S
C1828 C1826 1.391 . S
C1828 C1829 1.400 . S
C1829 C1823 1.491 . S
C1829 C1828 1.400 . S
C1829 C1830 1.398 . S
C1830 H1818 0.950 . S
C1830 C1829 1.398 . S
C1830 C1831 1.391 . S
C1831 H1819 0.950 . S
C1831 C1827 1.393 . S
C1831 C1830 1.391 . S
H1832 C1840 0.950 . S
H1833 C1845 0.950 . S
H1834 C1842 0.950 . S
H1835 C1844 0.950 . S
H1836 C1846 0.950 . S
H1837 C1848 0.950 . S
H1838 C1850 0.950 . S
H1839 C1851 0.950 . S
C1840 H1832 0.950 . S
C1840 C1841 1.386 . S
C1840 C1842 1.391 1_455 S
C1841 C1840 1.386 . S
C1841 C1845 1.393 . S
C1842 H1834 0.950 . S
C1842 C1840 1.391 1_655 S
C1842 C1843 1.400 . S
C1843 C1842 1.400 . S
C1843 C1844 1.398 . S
C1843 C1849 1.491 . S
C1844 H1835 0.950 . S
C1844 C1843 1.398 . S
C1844 C1845 1.391 1_655 S
C1845 H1833 0.950 . S
C1845 C1841 1.393 . S
C1845 C1844 1.391 1_455 S
C1846 H1836 0.950 . S
C1846 C1847 1.386 . S
C1846 C1848 1.391 . S
C1847 C1846 1.386 . S
C1847 C1851 1.393 . S
C1848 H1837 0.950 . S
C1848 C1846 1.391 . S
C1848 C1849 1.400 . S
C1849 C1843 1.491 . S
C1849 C1848 1.400 . S
C1849 C1850 1.398 . S
C1850 H1838 0.950 . S
C1850 C1849 1.398 . S
C1850 C1851 1.391 . S
C1851 H1839 0.950 . S
C1851 C1847 1.393 . S
C1851 C1850 1.391 . S
H1852 C1860 0.950 . S
H1853 C1865 0.950 . S
H1854 C1862 0.950 . S
H1855 C1864 0.950 . S
H1856 C1866 0.950 . S
H1857 C1868 0.950 . S
H1858 C1870 0.950 . S
H1859 C1871 0.950 . S
C1860 H1852 0.950 . S
C1860 C1861 1.386 . S
C1860 C1862 1.391 . S
C1861 C1860 1.386 . S
C1861 C1865 1.393 . S
C1862 H1854 0.950 . S
C1862 C1860 1.391 . S
C1862 C1863 1.400 . S
C1863 C1862 1.400 . S
C1863 C1864 1.398 . S
C1863 C1869 1.491 . S
C1864 H1855 0.950 . S
C1864 C1863 1.398 . S
C1864 C1865 1.391 . S
C1865 H1853 0.950 . S
C1865 C1861 1.393 . S
C1865 C1864 1.391 . S
C1866 H1856 0.950 . S
C1866 C1867 1.386 . S
C1866 C1868 1.391 1_545 S
C1867 C1866 1.386 . S
C1867 C1871 1.393 . S
C1868 H1857 0.950 . S
C1868 C1866 1.391 1_565 S
C1868 C1869 1.400 . S
C1869 C1863 1.491 . S
C1869 C1868 1.400 . S
C1869 C1870 1.398 . S
C1870 H1858 0.950 . S
C1870 C1869 1.398 . S
C1870 C1871 1.391 1_565 S
C1871 H1859 0.950 . S
C1871 C1867 1.393 . S
C1871 C1870 1.391 1_545 S
H1872 C1880 0.950 . S
H1873 C1885 0.950 . S
H1874 C1882 0.950 . S
H1875 C1884 0.950 . S
H1876 C1886 0.950 . S
H1877 C1888 0.950 . S
H1878 C1890 0.950 . S
H1879 C1891 0.950 . S
C1880 H1872 0.950 . S
C1880 C1881 1.386 . S
C1880 C1882 1.391 1_655 S
C1881 C1880 1.386 . S
C1881 C1885 1.393 . S
C1882 H1874 0.950 . S
C1882 C1880 1.391 1_455 S
C1882 C1883 1.400 . S
C1883 C1882 1.400 . S
C1883 C1884 1.398 . S
C1883 C1889 1.491 . S
C1884 H1875 0.950 . S
C1884 C1883 1.398 . S
C1884 C1885 1.391 1_455 S
C1885 H1873 0.950 . S
C1885 C1881 1.393 . S
C1885 C1884 1.391 1_655 S
C1886 H1876 0.950 . S
C1886 C1887 1.386 . S
C1886 C1888 1.391 . S
C1887 C1886 1.386 . S
C1887 C1891 1.393 . S
C1888 H1877 0.950 . S
C1888 C1886 1.391 . S
C1888 C1889 1.400 . S
C1889 C1883 1.491 . S
C1889 C1888 1.400 . S
C1889 C1890 1.398 . S
C1890 H1878 0.950 . S
C1890 C1889 1.398 . S
C1890 C1891 1.391 . S
C1891 H1879 0.950 . S
C1891 C1887 1.393 . S
C1891 C1890 1.391 . S
H1892 C1900 0.950 . S
H1893 C1905 0.950 . S
H1894 C1902 0.950 . S
H1895 C1904 0.950 . S
H1896 C1906 0.950 . S
H1897 C1908 0.950 . S
H1898 C1910 0.950 . S
H1899 C1911 0.950 . S
C1900 H1892 0.950 . S
C1900 C1901 1.386 . S
C1900 C1902 1.391 . S
C1901 C1900 1.386 . S
C1901 C1905 1.393 . S
C1902 H1894 0.950 . S
C1902 C1900 1.391 . S
C1902 C1903 1.400 . S
C1903 C1902 1.400 . S
C1903 C1904 1.398 . S
C1903 C1909 1.491 . S
C1904 H1895 0.950 . S
C1904 C1903 1.398 . S
C1904 C1905 1.391 . S
C1905 H1893 0.950 . S
C1905 C1901 1.393 . S
C1905 C1904 1.391 . S
C1906 H1896 0.950 . S
C1906 C1907 1.386 . S
C1906 C1908 1.391 1_565 S
C1907 C1906 1.386 . S
C1907 C1911 1.393 . S
C1908 H1897 0.950 . S
C1908 C1906 1.391 1_545 S
C1908 C1909 1.400 . S
C1909 C1903 1.491 . S
C1909 C1908 1.400 . S
C1909 C1910 1.398 . S
C1910 H1898 0.950 . S
C1910 C1909 1.398 . S
C1910 C1911 1.391 1_545 S
C1911 H1899 0.950 . S
C1911 C1907 1.393 . S
C1911 C1910 1.391 1_565 S
H1912 C1920 0.950 . S
H1913 C1925 0.950 . S
H1914 C1922 0.950 . S
H1915 C1924 0.950 . S
H1916 C1926 0.950 . S
H1917 C1928 0.950 . S
H1918 C1930 0.950 . S
H1919 C1931 0.950 . S
C1920 H1912 0.950 . S
C1920 C1921 1.386 . S
C1920 C1922 1.391 1_455 S
C1921 C1920 1.386 . S
C1921 C1925 1.393 . S
C1922 H1914 0.950 . S
C1922 C1920 1.391 1_655 S
C1922 C1923 1.400 . S
C1923 C1922 1.400 . S
C1923 C1924 1.398 . S
C1923 C1929 1.491 . S
C1924 H1915 0.950 . S
C1924 C1923 1.398 . S
C1924 C1925 1.391 1_655 S
C1925 H1913 0.950 . S
C1925 C1921 1.393 . S
C1925 C1924 1.391 1_455 S
C1926 H1916 0.950 . S
C1926 C1927 1.386 . S
C1926 C1928 1.391 . S
C1927 C1926 1.386 . S
C1927 C1931 1.393 . S
C1928 H1917 0.950 . S
C1928 C1926 1.391 . S
C1928 C1929 1.400 . S
C1929 C1923 1.491 . S
C1929 C1928 1.400 . S
C1929 C1930 1.398 . S
C1930 H1918 0.950 . S
C1930 C1929 1.398 . S
C1930 C1931 1.391 . S
C1931 H1919 0.950 . S
C1931 C1927 1.393 . S
C1931 C1930 1.391 . S
H1932 C1940 0.950 . S
H1933 C1945 0.950 . S
H1934 C1942 0.950 . S
H1935 C1944 0.950 . S
H1936 C1946 0.950 . S
H1937 C1948 0.950 . S
H1938 C1950 0.950 . S
H1939 C1951 0.950 . S
C1940 H1932 0.950 . S
C1940 C1941 1.386 . S
C1940 C1942 1.391 1_545 S
C1941 C1940 1.386 . S
C1941 C1945 1.393 . S
C1942 H1934 0.950 . S
C1942 C1940 1.391 1_565 S
C1942 C1943 1.400 . S
C1943 C1942 1.400 . S
C1943 C1944 1.398 . S
C1943 C1949 1.491 . S
C1944 H1935 0.950 . S
C1944 C1943 1.398 . S
C1944 C1945 1.391 1_565 S
C1945 H1933 0.950 . S
C1945 C1941 1.393 . S
C1945 C1944 1.391 1_545 S
C1946 H1936 0.950 . S
C1946 C1947 1.386 . S
C1946 C1948 1.391 . S
C1947 C1946 1.386 . S
C1947 C1951 1.393 . S
C1948 H1937 0.950 . S
C1948 C1946 1.391 . S
C1948 C1949 1.400 . S
C1949 C1943 1.491 . S
C1949 C1948 1.400 . S
C1949 C1950 1.398 . S
C1950 H1938 0.950 . S
C1950 C1949 1.398 . S
C1950 C1951 1.391 . S
C1951 H1939 0.950 . S
C1951 C1947 1.393 . S
C1951 C1950 1.391 . S
H1952 C1960 0.950 . S
H1953 C1965 0.950 . S
H1954 C1962 0.950 . S
H1955 C1964 0.950 . S
H1956 C1966 0.950 . S
H1957 C1968 0.950 . S
H1958 C1970 0.950 . S
H1959 C1971 0.950 . S
C1960 H1952 0.950 . S
C1960 C1961 1.386 . S
C1960 C1962 1.391 . S
C1961 C1960 1.386 . S
C1961 C1965 1.393 . S
C1962 H1954 0.950 . S
C1962 C1960 1.391 . S
C1962 C1963 1.400 . S
C1963 C1962 1.400 . S
C1963 C1964 1.398 . S
C1963 C1969 1.491 . S
C1964 H1955 0.950 . S
C1964 C1963 1.398 . S
C1964 C1965 1.391 . S
C1965 H1953 0.950 . S
C1965 C1961 1.393 . S
C1965 C1964 1.391 . S
C1966 H1956 0.950 . S
C1966 C1967 1.386 . S
C1966 C1968 1.391 1_565 S
C1967 C1966 1.386 . S
C1967 C1971 1.393 . S
C1968 H1957 0.950 . S
C1968 C1966 1.391 1_545 S
C1968 C1969 1.400 . S
C1969 C1963 1.491 . S
C1969 C1968 1.400 . S
C1969 C1970 1.398 . S
C1970 H1958 0.950 . S
C1970 C1969 1.398 . S
C1970 C1971 1.391 1_545 S
C1971 H1959 0.950 . S
C1971 C1967 1.393 . S
C1971 C1970 1.391 1_565 S
H1972 C1980 0.950 . S
H1973 C1985 0.950 . S
H1974 C1982 0.950 . S
H1975 C1984 0.950 . S
H1976 C1986 0.950 . S
H1977 C1988 0.950 . S
H1978 C1990 0.950 . S
H1979 C1991 0.950 . S
C1980 H1972 0.950 . S
C1980 C1981 1.386 . S
C1980 C1982 1.391 1_545 S
C1981 C1980 1.386 . S
C1981 C1985 1.393 . S
C1982 H1974 0.950 . S
C1982 C1980 1.391 1_565 S
C1982 C1983 1.400 . S
C1983 C1982 1.400 . S
C1983 C1984 1.398 . S
C1983 C1989 1.491 . S
C1984 H1975 0.950 . S
C1984 C1983 1.398 . S
C1984 C1985 1.391 1_565 S
C1985 H1973 0.950 . S
C1985 C1981 1.393 . S
C1985 C1984 1.391 1_545 S
C1986 H1976 0.950 . S
C1986 C1987 1.386 . S
C1986 C1988 1.391 . S
C1987 C1986 1.386 . S
C1987 C1991 1.393 . S
C1988 H1977 0.950 . S
C1988 C1986 1.391 . S
C1988 C1989 1.400 . S
C1989 C1983 1.491 . S
C1989 C1988 1.400 . S
C1989 C1990 1.398 . S
C1990 H1978 0.950 . S
C1990 C1989 1.398 . S
C1990 C1991 1.391 . S
C1991 H1979 0.950 . S
C1991 C1987 1.393 . S
C1991 C1990 1.391 . S
H1992 C2000 0.950 . S
H1993 C2005 0.950 . S
H1994 C2002 0.950 . S
H1995 C2004 0.950 . S
H1996 C2006 0.950 . S
H1997 C2008 0.950 . S
H1998 C2010 0.950 . S
H1999 C2011 0.950 . S
C2000 H1992 0.950 . S
C2000 C2001 1.386 . S
C2000 C2002 1.391 . S
C2001 C2000 1.386 . S
C2001 C2005 1.393 . S
C2002 H1994 0.950 . S
C2002 C2000 1.391 . S
C2002 C2003 1.400 . S
C2003 C2002 1.400 . S
C2003 C2004 1.398 . S
C2003 C2009 1.491 . S
C2004 H1995 0.950 . S
C2004 C2003 1.398 . S
C2004 C2005 1.391 . S
C2005 H1993 0.950 . S
C2005 C2001 1.393 . S
C2005 C2004 1.391 . S
C2006 H1996 0.950 . S
C2006 C2007 1.386 . S
C2006 C2008 1.391 1_655 S
C2007 C2006 1.386 . S
C2007 C2011 1.393 . S
C2008 H1997 0.950 . S
C2008 C2006 1.391 1_455 S
C2008 C2009 1.400 . S
C2009 C2003 1.491 . S
C2009 C2008 1.400 . S
C2009 C2010 1.398 . S
C2010 H1998 0.950 . S
C2010 C2009 1.398 . S
C2010 C2011 1.391 1_455 S
C2011 H1999 0.950 . S
C2011 C2007 1.393 . S
C2011 C2010 1.391 1_655 S
H2012 C2020 0.950 . S
H2013 C2025 0.950 . S
H2014 C2022 0.950 . S
H2015 C2024 0.950 . S
H2016 C2026 0.950 . S
H2017 C2028 0.950 . S
H2018 C2030 0.950 . S
H2019 C2031 0.950 . S
C2020 H2012 0.950 . S
C2020 C2021 1.386 . S
C2020 C2022 1.391 1_565 S
C2021 C2020 1.386 . S
C2021 C2025 1.393 . S
C2022 H2014 0.950 . S
C2022 C2020 1.391 1_545 S
C2022 C2023 1.400 . S
C2023 C2022 1.400 . S
C2023 C2024 1.398 . S
C2023 C2029 1.491 . S
C2024 H2015 0.950 . S
C2024 C2023 1.398 . S
C2024 C2025 1.391 1_545 S
C2025 H2013 0.950 . S
C2025 C2021 1.393 . S
C2025 C2024 1.391 1_565 S
C2026 H2016 0.950 . S
C2026 C2027 1.386 . S
C2026 C2028 1.391 . S
C2027 C2026 1.386 . S
C2027 C2031 1.393 . S
C2028 H2017 0.950 . S
C2028 C2026 1.391 . S
C2028 C2029 1.400 . S
C2029 C2023 1.491 . S
C2029 C2028 1.400 . S
C2029 C2030 1.398 . S
C2030 H2018 0.950 . S
C2030 C2029 1.398 . S
C2030 C2031 1.391 . S
C2031 H2019 0.950 . S
C2031 C2027 1.393 . S
C2031 C2030 1.391 . S
H2032 C2040 0.950 . S
H2033 C2045 0.950 . S
H2034 C2042 0.950 . S
H2035 C2044 0.950 . S
H2036 C2046 0.950 . S
H2037 C2048 0.950 . S
H2038 C2050 0.950 . S
H2039 C2051 0.950 . S
C2040 H2032 0.950 . S
C2040 C2041 1.386 . S
C2040 C2042 1.391 1_455 S
C2041 C2040 1.386 . S
C2041 C2045 1.393 . S
C2042 H2034 0.950 . S
C2042 C2040 1.391 1_655 S
C2042 C2043 1.400 . S
C2043 C2042 1.400 . S
C2043 C2044 1.398 . S
C2043 C2049 1.491 . S
C2044 H2035 0.950 . S
C2044 C2043 1.398 . S
C2044 C2045 1.391 1_655 S
C2045 H2033 0.950 . S
C2045 C2041 1.393 . S
C2045 C2044 1.391 1_455 S
C2046 H2036 0.950 . S
C2046 C2047 1.386 . S
C2046 C2048 1.391 . S
C2047 C2046 1.386 . S
C2047 C2051 1.393 . S
C2048 H2037 0.950 . S
C2048 C2046 1.391 . S
C2048 C2049 1.400 . S
C2049 C2043 1.491 . S
C2049 C2048 1.400 . S
C2049 C2050 1.398 . S
C2050 H2038 0.950 . S
C2050 C2049 1.398 . S
C2050 C2051 1.391 . S
C2051 H2039 0.950 . S
C2051 C2047 1.393 . S
C2051 C2050 1.391 . S
H2052 C2060 0.950 . S
H2053 C2065 0.950 . S
H2054 C2062 0.950 . S
H2055 C2064 0.950 . S
H2056 C2066 0.950 . S
H2057 C2068 0.950 . S
H2058 C2070 0.950 . S
H2059 C2071 0.950 . S
C2060 H2052 0.950 . S
C2060 C2061 1.386 . S
C2060 C2062 1.391 . S
C2061 C2060 1.386 . S
C2061 C2065 1.393 . S
C2062 H2054 0.950 . S
C2062 C2060 1.391 . S
C2062 C2063 1.400 . S
C2063 C2062 1.400 . S
C2063 C2064 1.398 . S
C2063 C2069 1.491 . S
C2064 H2055 0.950 . S
C2064 C2063 1.398 . S
C2064 C2065 1.391 . S
C2065 H2053 0.950 . S
C2065 C2061 1.393 . S
C2065 C2064 1.391 . S
C2066 H2056 0.950 . S
C2066 C2067 1.386 . S
C2066 C2068 1.391 1_545 S
C2067 C2066 1.386 . S
C2067 C2071 1.393 . S
C2068 H2057 0.950 . S
C2068 C2066 1.391 1_565 S
C2068 C2069 1.400 . S
C2069 C2063 1.491 . S
C2069 C2068 1.400 . S
C2069 C2070 1.398 . S
C2070 H2058 0.950 . S
C2070 C2069 1.398 . S
C2070 C2071 1.391 1_565 S
C2071 H2059 0.950 . S
C2071 C2067 1.393 . S
C2071 C2070 1.391 1_545 S
H2072 C2080 0.950 . S
H2073 C2085 0.950 . S
H2074 C2082 0.950 . S
H2075 C2084 0.950 . S
H2076 C2086 0.950 . S
H2077 C2088 0.950 . S
H2078 C2090 0.950 . S
H2079 C2091 0.950 . S
C2080 H2072 0.950 . S
C2080 C2081 1.386 . S
C2080 C2082 1.391 . S
C2081 C2080 1.386 . S
C2081 C2085 1.393 . S
C2082 H2074 0.950 . S
C2082 C2080 1.391 . S
C2082 C2083 1.400 . S
C2083 C2082 1.400 . S
C2083 C2084 1.398 . S
C2083 C2089 1.491 . S
C2084 H2075 0.950 . S
C2084 C2083 1.398 . S
C2084 C2085 1.391 . S
C2085 H2073 0.950 . S
C2085 C2081 1.393 . S
C2085 C2084 1.391 . S
C2086 H2076 0.950 . S
C2086 C2087 1.386 . S
C2086 C2088 1.391 1_655 S
C2087 C2086 1.386 . S
C2087 C2091 1.393 . S
C2088 H2077 0.950 . S
C2088 C2086 1.391 1_455 S
C2088 C2089 1.400 . S
C2089 C2083 1.491 . S
C2089 C2088 1.400 . S
C2089 C2090 1.398 . S
C2090 H2078 0.950 . S
C2090 C2089 1.398 . S
C2090 C2091 1.391 1_455 S
C2091 H2079 0.950 . S
C2091 C2087 1.393 . S
C2091 C2090 1.391 1_655 S
H2092 C2100 0.950 . S
H2093 C2105 0.950 . S
H2094 C2102 0.950 . S
H2095 C2104 0.950 . S
H2096 C2106 0.950 . S
H2097 C2108 0.950 . S
H2098 C2110 0.950 . S
H2099 C2111 0.950 . S
C2100 H2092 0.950 . S
C2100 C2101 1.386 . S
C2100 C2102 1.391 1_455 S
C2101 C2100 1.386 . S
C2101 C2105 1.393 . S
C2102 H2094 0.950 . S
C2102 C2100 1.391 1_655 S
C2102 C2103 1.400 . S
C2103 C2102 1.400 . S
C2103 C2104 1.398 . S
C2103 C2109 1.491 . S
C2104 H2095 0.950 . S
C2104 C2103 1.398 . S
C2104 C2105 1.391 1_655 S
C2105 H2093 0.950 . S
C2105 C2101 1.393 . S
C2105 C2104 1.391 1_455 S
C2106 H2096 0.950 . S
C2106 C2107 1.386 . S
C2106 C2108 1.391 . S
C2107 C2106 1.386 . S
C2107 C2111 1.393 . S
C2108 H2097 0.950 . S
C2108 C2106 1.391 . S
C2108 C2109 1.400 . S
C2109 C2103 1.491 . S
C2109 C2108 1.400 . S
C2109 C2110 1.398 . S
C2110 H2098 0.950 . S
C2110 C2109 1.398 . S
C2110 C2111 1.391 . S
C2111 H2099 0.950 . S
C2111 C2107 1.393 . S
C2111 C2110 1.391 . S
H2112 C2120 0.950 . S
H2113 C2125 0.950 . S
H2114 C2122 0.950 . S
H2115 C2124 0.950 . S
H2116 C2126 0.950 . S
H2117 C2128 0.950 . S
H2118 C2130 0.950 . S
H2119 C2131 0.950 . S
C2120 H2112 0.950 . S
C2120 C2121 1.386 . S
C2120 C2122 1.391 . S
C2121 C2120 1.386 . S
C2121 C2125 1.393 . S
C2122 H2114 0.950 . S
C2122 C2120 1.391 . S
C2122 C2123 1.400 . S
C2123 C2122 1.400 . S
C2123 C2124 1.398 . S
C2123 C2129 1.491 . S
C2124 H2115 0.950 . S
C2124 C2123 1.398 . S
C2124 C2125 1.391 . S
C2125 H2113 0.950 . S
C2125 C2121 1.393 . S
C2125 C2124 1.391 . S
C2126 H2116 0.950 . S
C2126 C2127 1.386 . S
C2126 C2128 1.391 . S
C2127 C2126 1.386 . S
C2127 C2131 1.393 . S
C2128 H2117 0.950 . S
C2128 C2126 1.391 . S
C2128 C2129 1.400 . S
C2129 C2123 1.491 . S
C2129 C2128 1.400 . S
C2129 C2130 1.398 . S
C2130 H2118 0.950 . S
C2130 C2129 1.398 . S
C2130 C2131 1.391 . S
C2131 H2119 0.950 . S
C2131 C2127 1.393 . S
C2131 C2130 1.391 . S
H2132 C2140 0.950 . S
H2133 C2145 0.950 . S
H2134 C2142 0.950 . S
H2135 C2144 0.950 . S
H2136 C2146 0.950 . S
H2137 C2148 0.950 . S
H2138 C2150 0.950 . S
H2139 C2151 0.950 . S
C2140 H2132 0.950 . S
C2140 C2141 1.386 . S
C2140 C2142 1.391 . S
C2141 C2140 1.386 . S
C2141 C2145 1.393 . S
C2142 H2134 0.950 . S
C2142 C2140 1.391 . S
C2142 C2143 1.400 . S
C2143 C2142 1.400 . S
C2143 C2144 1.398 . S
C2143 C2149 1.491 . S
C2144 H2135 0.950 . S
C2144 C2143 1.398 . S
C2144 C2145 1.391 . S
C2145 H2133 0.950 . S
C2145 C2141 1.393 . S
C2145 C2144 1.391 . S
C2146 H2136 0.950 . S
C2146 C2147 1.386 . S
C2146 C2148 1.391 . S
C2147 C2146 1.386 . S
C2147 C2151 1.393 . S
C2148 H2137 0.950 . S
C2148 C2146 1.391 . S
C2148 C2149 1.400 . S
C2149 C2143 1.491 . S
C2149 C2148 1.400 . S
C2149 C2150 1.398 . S
C2150 H2138 0.950 . S
C2150 C2149 1.398 . S
C2150 C2151 1.391 . S
C2151 H2139 0.950 . S
C2151 C2147 1.393 . S
C2151 C2150 1.391 . S
H2152 C2160 0.950 . S
H2153 C2165 0.950 . S
H2154 C2162 0.950 . S
H2155 C2164 0.950 . S
H2156 C2166 0.950 . S
H2157 C2168 0.950 . S
H2158 C2170 0.950 . S
H2159 C2171 0.950 . S
C2160 H2152 0.950 . S
C2160 C2161 1.386 . S
C2160 C2162 1.391 . S
C2161 C2160 1.386 . S
C2161 C2165 1.393 . S
C2162 H2154 0.950 . S
C2162 C2160 1.391 . S
C2162 C2163 1.400 . S
C2163 C2162 1.400 . S
C2163 C2164 1.398 . S
C2163 C2169 1.491 . S
C2164 H2155 0.950 . S
C2164 C2163 1.398 . S
C2164 C2165 1.391 . S
C2165 H2153 0.950 . S
C2165 C2161 1.393 . S
C2165 C2164 1.391 . S
C2166 H2156 0.950 . S
C2166 C2167 1.386 . S
C2166 C2168 1.391 . S
C2167 C2166 1.386 . S
C2167 C2171 1.393 . S
C2168 H2157 0.950 . S
C2168 C2166 1.391 . S
C2168 C2169 1.400 . S
C2169 C2163 1.491 . S
C2169 C2168 1.400 . S
C2169 C2170 1.398 . S
C2170 H2158 0.950 . S
C2170 C2169 1.398 . S
C2170 C2171 1.391 . S
C2171 H2159 0.950 . S
C2171 C2167 1.393 . S
C2171 C2170 1.391 . S
H2172 C2180 0.950 . S
H2173 C2185 0.950 . S
H2174 C2182 0.950 . S
H2175 C2184 0.950 . S
H2176 C2186 0.950 . S
H2177 C2188 0.950 . S
H2178 C2190 0.950 . S
H2179 C2191 0.950 . S
C2180 H2172 0.950 . S
C2180 C2181 1.386 . S
C2180 C2182 1.391 . S
C2181 C2180 1.386 . S
C2181 C2185 1.393 . S
C2182 H2174 0.950 . S
C2182 C2180 1.391 . S
C2182 C2183 1.400 . S
C2183 C2182 1.400 . S
C2183 C2184 1.398 . S
C2183 C2189 1.491 . S
C2184 H2175 0.950 . S
C2184 C2183 1.398 . S
C2184 C2185 1.391 . S
C2185 H2173 0.950 . S
C2185 C2181 1.393 . S
C2185 C2184 1.391 . S
C2186 H2176 0.950 . S
C2186 C2187 1.386 . S
C2186 C2188 1.391 . S
C2187 C2186 1.386 . S
C2187 C2191 1.393 . S
C2188 H2177 0.950 . S
C2188 C2186 1.391 . S
C2188 C2189 1.400 . S
C2189 C2183 1.491 . S
C2189 C2188 1.400 . S
C2189 C2190 1.398 . S
C2190 H2178 0.950 . S
C2190 C2189 1.398 . S
C2190 C2191 1.391 . S
C2191 H2179 0.950 . S
C2191 C2187 1.393 . S
C2191 C2190 1.391 . S
H2192 C2200 0.950 . S
H2193 C2205 0.950 . S
H2194 C2202 0.950 . S
H2195 C2204 0.950 . S
H2196 C2206 0.950 . S
H2197 C2208 0.950 . S
H2198 C2210 0.950 . S
H2199 C2211 0.950 . S
C2200 H2192 0.950 . S
C2200 C2201 1.386 . S
C2200 C2202 1.391 . S
C2201 C2200 1.386 . S
C2201 C2205 1.393 . S
C2202 H2194 0.950 . S
C2202 C2200 1.391 . S
C2202 C2203 1.400 . S
C2203 C2202 1.400 . S
C2203 C2204 1.398 . S
C2203 C2209 1.491 . S
C2204 H2195 0.950 . S
C2204 C2203 1.398 . S
C2204 C2205 1.391 . S
C2205 H2193 0.950 . S
C2205 C2201 1.393 . S
C2205 C2204 1.391 . S
C2206 H2196 0.950 . S
C2206 C2207 1.386 . S
C2206 C2208 1.391 . S
C2207 C2206 1.386 . S
C2207 C2211 1.393 . S
C2208 H2197 0.950 . S
C2208 C2206 1.391 . S
C2208 C2209 1.400 . S
C2209 C2203 1.491 . S
C2209 C2208 1.400 . S
C2209 C2210 1.398 . S
C2210 H2198 0.950 . S
C2210 C2209 1.398 . S
C2210 C2211 1.391 . S
C2211 H2199 0.950 . S
C2211 C2207 1.393 . S
C2211 C2210 1.391 . S
H2212 C2220 0.950 . S
H2213 C2225 0.950 . S
H2214 C2222 0.950 . S
H2215 C2224 0.950 . S
H2216 C2226 0.950 . S
H2217 C2228 0.950 . S
H2218 C2230 0.950 . S
H2219 C2231 0.950 . S
C2220 H2212 0.950 . S
C2220 C2221 1.386 . S
C2220 C2222 1.391 . S
C2221 C2220 1.386 . S
C2221 C2225 1.393 . S
C2222 H2214 0.950 . S
C2222 C2220 1.391 . S
C2222 C2223 1.400 . S
C2223 C2222 1.400 . S
C2223 C2224 1.398 . S
C2223 C2229 1.491 . S
C2224 H2215 0.950 . S
C2224 C2223 1.398 . S
C2224 C2225 1.391 . S
C2225 H2213 0.950 . S
C2225 C2221 1.393 . S
C2225 C2224 1.391 . S
C2226 H2216 0.950 . S
C2226 C2227 1.386 . S
C2226 C2228 1.391 . S
C2227 C2226 1.386 . S
C2227 C2231 1.393 . S
C2228 H2217 0.950 . S
C2228 C2226 1.391 . S
C2228 C2229 1.400 . S
C2229 C2223 1.491 . S
C2229 C2228 1.400 . S
C2229 C2230 1.398 . S
C2230 H2218 0.950 . S
C2230 C2229 1.398 . S
C2230 C2231 1.391 . S
C2231 H2219 0.950 . S
C2231 C2227 1.393 . S
C2231 C2230 1.391 . S
H2232 C2240 0.950 . S
H2233 C2245 0.950 . S
H2234 C2242 0.950 . S
H2235 C2244 0.950 . S
H2236 C2246 0.950 . S
H2237 C2248 0.950 . S
H2238 C2250 0.950 . S
H2239 C2251 0.950 . S
C2240 H2232 0.950 . S
C2240 C2241 1.386 . S
C2240 C2242 1.391 . S
C2241 C2240 1.386 . S
C2241 C2245 1.393 . S
C2242 H2234 0.950 . S
C2242 C2240 1.391 . S
C2242 C2243 1.400 . S
C2243 C2242 1.400 . S
C2243 C2244 1.398 . S
C2243 C2249 1.491 . S
C2244 H2235 0.950 . S
C2244 C2243 1.398 . S
C2244 C2245 1.391 . S
C2245 H2233 0.950 . S
C2245 C2241 1.393 . S
C2245 C2244 1.391 . S
C2246 H2236 0.950 . S
C2246 C2247 1.386 . S
C2246 C2248 1.391 . S
C2247 C2246 1.386 . S
C2247 C2251 1.393 . S
C2248 H2237 0.950 . S
C2248 C2246 1.391 . S
C2248 C2249 1.400 . S
C2249 C2243 1.491 . S
C2249 C2248 1.400 . S
C2249 C2250 1.398 . S
C2250 H2238 0.950 . S
C2250 C2249 1.398 . S
C2250 C2251 1.391 . S
C2251 H2239 0.950 . S
C2251 C2247 1.393 . S
C2251 C2250 1.391 . S
H2252 C2260 0.950 . S
H2253 C2265 0.950 . S
H2254 C2262 0.950 . S
H2255 C2264 0.950 . S
H2256 C2266 0.950 . S
H2257 C2268 0.950 . S
H2258 C2270 0.950 . S
H2259 C2271 0.950 . S
C2260 H2252 0.950 . S
C2260 C2261 1.386 . S
C2260 C2262 1.391 . S
C2261 C2260 1.386 . S
C2261 C2265 1.393 . S
C2262 H2254 0.950 . S
C2262 C2260 1.391 . S
C2262 C2263 1.400 . S
C2263 C2262 1.400 . S
C2263 C2264 1.398 . S
C2263 C2269 1.491 . S
C2264 H2255 0.950 . S
C2264 C2263 1.398 . S
C2264 C2265 1.391 . S
C2265 H2253 0.950 . S
C2265 C2261 1.393 . S
C2265 C2264 1.391 . S
C2266 H2256 0.950 . S
C2266 C2267 1.386 . S
C2266 C2268 1.391 . S
C2267 C2266 1.386 . S
C2267 C2271 1.393 . S
C2268 H2257 0.950 . S
C2268 C2266 1.391 . S
C2268 C2269 1.400 . S
C2269 C2263 1.491 . S
C2269 C2268 1.400 . S
C2269 C2270 1.398 . S
C2270 H2258 0.950 . S
C2270 C2269 1.398 . S
C2270 C2271 1.391 . S
C2271 H2259 0.950 . S
C2271 C2267 1.393 . S
C2271 C2270 1.391 . S
H2272 C2280 0.950 . S
H2273 C2285 0.950 . S
H2274 C2282 0.950 . S
H2275 C2284 0.950 . S
H2276 C2286 0.950 . S
H2277 C2288 0.950 . S
H2278 C2290 0.950 . S
H2279 C2291 0.950 . S
C2280 H2272 0.950 . S
C2280 C2281 1.386 . S
C2280 C2282 1.391 . S
C2281 C2280 1.386 . S
C2281 C2285 1.393 . S
C2282 H2274 0.950 . S
C2282 C2280 1.391 . S
C2282 C2283 1.400 . S
C2283 C2282 1.400 . S
C2283 C2284 1.398 . S
C2283 C2289 1.491 . S
C2284 H2275 0.950 . S
C2284 C2283 1.398 . S
C2284 C2285 1.391 . S
C2285 H2273 0.950 . S
C2285 C2281 1.393 . S
C2285 C2284 1.391 . S
C2286 H2276 0.950 . S
C2286 C2287 1.386 . S
C2286 C2288 1.391 . S
C2287 C2286 1.386 . S
C2287 C2291 1.393 . S
C2288 H2277 0.950 . S
C2288 C2286 1.391 . S
C2288 C2289 1.400 . S
C2289 C2283 1.491 . S
C2289 C2288 1.400 . S
C2289 C2290 1.398 . S
C2290 H2278 0.950 . S
C2290 C2289 1.398 . S
C2290 C2291 1.391 . S
C2291 H2279 0.950 . S
C2291 C2287 1.393 . S
C2291 C2290 1.391 . S
H2292 C2300 0.950 . S
H2293 C2305 0.950 . S
H2294 C2302 0.950 . S
H2295 C2304 0.950 . S
H2296 C2306 0.950 . S
H2297 C2308 0.950 . S
H2298 C2310 0.950 . S
H2299 C2311 0.950 . S
C2300 H2292 0.950 . S
C2300 C2301 1.386 . S
C2300 C2302 1.391 . S
C2301 C2300 1.386 . S
C2301 C2305 1.393 . S
C2302 H2294 0.950 . S
C2302 C2300 1.391 . S
C2302 C2303 1.400 . S
C2303 C2302 1.400 . S
C2303 C2304 1.398 . S
C2303 C2309 1.491 . S
C2304 H2295 0.950 . S
C2304 C2303 1.398 . S
C2304 C2305 1.391 . S
C2305 H2293 0.950 . S
C2305 C2301 1.393 . S
C2305 C2304 1.391 . S
C2306 H2296 0.950 . S
C2306 C2307 1.386 . S
C2306 C2308 1.391 . S
C2307 C2306 1.386 . S
C2307 C2311 1.393 . S
C2308 H2297 0.950 . S
C2308 C2306 1.391 . S
C2308 C2309 1.400 . S
C2309 C2303 1.491 . S
C2309 C2308 1.400 . S
C2309 C2310 1.398 . S
C2310 H2298 0.950 . S
C2310 C2309 1.398 . S
C2310 C2311 1.391 . S
C2311 H2299 0.950 . S
C2311 C2307 1.393 . S
C2311 C2310 1.391 . S
H2312 C2320 0.950 . S
H2313 C2325 0.950 . S
H2314 C2322 0.950 . S
H2315 C2324 0.950 . S
H2316 C2326 0.950 . S
H2317 C2328 0.950 . S
H2318 C2330 0.950 . S
H2319 C2331 0.950 . S
C2320 H2312 0.950 . S
C2320 C2321 1.386 . S
C2320 C2322 1.391 . S
C2321 C2320 1.386 . S
C2321 C2325 1.393 . S
C2322 H2314 0.950 . S
C2322 C2320 1.391 . S
C2322 C2323 1.400 . S
C2323 C2322 1.400 . S
C2323 C2324 1.398 . S
C2323 C2329 1.491 . S
C2324 H2315 0.950 . S
C2324 C2323 1.398 . S
C2324 C2325 1.391 . S
C2325 H2313 0.950 . S
C2325 C2321 1.393 . S
C2325 C2324 1.391 . S
C2326 H2316 0.950 . S
C2326 C2327 1.386 . S
C2326 C2328 1.391 . S
C2327 C2326 1.386 . S
C2327 C2331 1.393 . S
C2328 H2317 0.950 . S
C2328 C2326 1.391 . S
C2328 C2329 1.400 . S
C2329 C2323 1.491 . S
C2329 C2328 1.400 . S
C2329 C2330 1.398 . S
C2330 H2318 0.950 . S
C2330 C2329 1.398 . S
C2330 C2331 1.391 . S
C2331 H2319 0.950 . S
C2331 C2327 1.393 . S
C2331 C2330 1.391 . S
H2332 C2340 0.950 . S
H2333 C2345 0.950 . S
H2334 C2342 0.950 . S
H2335 C2344 0.950 . S
H2336 C2346 0.950 . S
H2337 C2348 0.950 . S
H2338 C2350 0.950 . S
H2339 C2351 0.950 . S
C2340 H2332 0.950 . S
C2340 C2341 1.386 . S
C2340 C2342 1.391 . S
C2341 C2340 1.386 . S
C2341 C2345 1.393 . S
C2342 H2334 0.950 . S
C2342 C2340 1.391 . S
C2342 C2343 1.400 . S
C2343 C2342 1.400 . S
C2343 C2344 1.398 . S
C2343 C2349 1.491 . S
C2344 H2335 0.950 . S
C2344 C2343 1.398 . S
C2344 C2345 1.391 . S
C2345 H2333 0.950 . S
C2345 C2341 1.393 . S
C2345 C2344 1.391 . S
C2346 H2336 0.950 . S
C2346 C2347 1.386 . S
C2346 C2348 1.391 . S
C2347 C2346 1.386 . S
C2347 C2351 1.393 . S
C2348 H2337 0.950 . S
C2348 C2346 1.391 . S
C2348 C2349 1.400 . S
C2349 C2343 1.491 . S
C2349 C2348 1.400 . S
C2349 C2350 1.398 . S
C2350 H2338 0.950 . S
C2350 C2349 1.398 . S
C2350 C2351 1.391 . S
C2351 H2339 0.950 . S
C2351 C2347 1.393 . S
C2351 C2350 1.391 . S
H2352 C2360 0.950 . S
H2353 C2365 0.950 . S
H2354 C2362 0.950 . S
H2355 C2364 0.950 . S
H2356 C2366 0.950 . S
H2357 C2368 0.950 . S
H2358 C2370 0.950 . S
H2359 C2371 0.950 . S
C2360 H2352 0.950 . S
C2360 C2361 1.386 . S
C2360 C2362 1.391 . S
C2361 C2360 1.386 . S
C2361 C2365 1.393 . S
C2362 H2354 0.950 . S
C2362 C2360 1.391 . S
C2362 C2363 1.400 . S
C2363 C2362 1.400 . S
C2363 C2364 1.398 . S
C2363 C2369 1.491 . S
C2364 H2355 0.950 . S
C2364 C2363 1.398 . S
C2364 C2365 1.391 . S
C2365 H2353 0.950 . S
C2365 C2361 1.393 . S
C2365 C2364 1.391 . S
C2366 H2356 0.950 . S
C2366 C2367 1.386 . S
C2366 C2368 1.391 . S
C2367 C2366 1.386 . S
C2367 C2371 1.393 . S
C2368 H2357 0.950 . S
C2368 C2366 1.391 . S
C2368 C2369 1.400 . S
C2369 C2363 1.491 . S
C2369 C2368 1.400 . S
C2369 C2370 1.398 . S
C2370 H2358 0.950 . S
C2370 C2369 1.398 . S
C2370 C2371 1.391 . S
C2371 H2359 0.950 . S
C2371 C2367 1.393 . S
C2371 C2370 1.391 . S
H2372 C2380 0.950 . S
H2373 C2385 0.950 . S
H2374 C2382 0.950 . S
H2375 C2384 0.950 . S
H2376 C2386 0.950 . S
H2377 C2388 0.950 . S
H2378 C2390 0.950 . S
H2379 C2391 0.950 . S
C2380 H2372 0.950 . S
C2380 C2381 1.386 . S
C2380 C2382 1.391 . S
C2381 C2380 1.386 . S
C2381 C2385 1.393 . S
C2382 H2374 0.950 . S
C2382 C2380 1.391 . S
C2382 C2383 1.400 . S
C2383 C2382 1.400 . S
C2383 C2384 1.398 . S
C2383 C2389 1.491 . S
C2384 H2375 0.950 . S
C2384 C2383 1.398 . S
C2384 C2385 1.391 . S
C2385 H2373 0.950 . S
C2385 C2381 1.393 . S
C2385 C2384 1.391 . S
C2386 H2376 0.950 . S
C2386 C2387 1.386 . S
C2386 C2388 1.391 . S
C2387 C2386 1.386 . S
C2387 C2391 1.393 . S
C2388 H2377 0.950 . S
C2388 C2386 1.391 . S
C2388 C2389 1.400 . S
C2389 C2383 1.491 . S
C2389 C2388 1.400 . S
C2389 C2390 1.398 . S
C2390 H2378 0.950 . S
C2390 C2389 1.398 . S
C2390 C2391 1.391 . S
C2391 H2379 0.950 . S
C2391 C2387 1.393 . S
C2391 C2390 1.391 . S
H2392 C2400 0.950 . S
H2393 C2405 0.950 . S
H2394 C2402 0.950 . S
H2395 C2404 0.950 . S
H2396 C2406 0.950 . S
H2397 C2408 0.950 . S
H2398 C2410 0.950 . S
H2399 C2411 0.950 . S
C2400 H2392 0.950 . S
C2400 C2401 1.386 . S
C2400 C2402 1.391 . S
C2401 C2400 1.386 . S
C2401 C2405 1.393 . S
C2402 H2394 0.950 . S
C2402 C2400 1.391 . S
C2402 C2403 1.400 . S
C2403 C2402 1.400 . S
C2403 C2404 1.398 . S
C2403 C2409 1.491 . S
C2404 H2395 0.950 . S
C2404 C2403 1.398 . S
C2404 C2405 1.391 . S
C2405 H2393 0.950 . S
C2405 C2401 1.393 . S
C2405 C2404 1.391 . S
C2406 H2396 0.950 . S
C2406 C2407 1.386 . S
C2406 C2408 1.391 . S
C2407 C2406 1.386 . S
C2407 C2411 1.393 . S
C2408 H2397 0.950 . S
C2408 C2406 1.391 . S
C2408 C2409 1.400 . S
C2409 C2403 1.491 . S
C2409 C2408 1.400 . S
C2409 C2410 1.398 . S
C2410 H2398 0.950 . S
C2410 C2409 1.398 . S
C2410 C2411 1.391 . S
C2411 H2399 0.950 . S
C2411 C2407 1.393 . S
C2411 C2410 1.391 . S
H2412 C2420 0.950 . S
H2413 C2425 0.950 . S
H2414 C2422 0.950 . S
H2415 C2424 0.950 . S
H2416 C2426 0.950 . S
H2417 C2428 0.950 . S
H2418 C2430 0.950 . S
H2419 C2431 0.950 . S
C2420 H2412 0.950 . S
C2420 C2421 1.386 . S
C2420 C2422 1.391 . S
C2421 C2420 1.386 . S
C2421 C2425 1.393 . S
C2422 H2414 0.950 . S
C2422 C2420 1.391 . S
C2422 C2423 1.400 . S
C2423 C2422 1.400 . S
C2423 C2424 1.398 . S
C2423 C2429 1.491 . S
C2424 H2415 0.950 . S
C2424 C2423 1.398 . S
C2424 C2425 1.391 . S
C2425 H2413 0.950 . S
C2425 C2421 1.393 . S
C2425 C2424 1.391 . S
C2426 H2416 0.950 . S
C2426 C2427 1.386 . S
C2426 C2428 1.391 . S
C2427 C2426 1.386 . S
C2427 C2431 1.393 . S
C2428 H2417 0.950 . S
C2428 C2426 1.391 . S
C2428 C2429 1.400 . S
C2429 C2423 1.491 . S
C2429 C2428 1.400 . S
C2429 C2430 1.398 . S
C2430 H2418 0.950 . S
C2430 C2429 1.398 . S
C2430 C2431 1.391 . S
C2431 H2419 0.950 . S
C2431 C2427 1.393 . S
C2431 C2430 1.391 . S
H2432 C2440 0.950 . S
H2433 C2445 0.950 . S
H2434 C2442 0.950 . S
H2435 C2444 0.950 . S
H2436 C2446 0.950 . S
H2437 C2448 0.950 . S
H2438 C2450 0.950 . S
H2439 C2451 0.950 . S
C2440 H2432 0.950 . S
C2440 C2441 1.386 . S
C2440 C2442 1.391 . S
C2441 C2440 1.386 . S
C2441 C2445 1.393 . S
C2442 H2434 0.950 . S
C2442 C2440 1.391 . S
C2442 C2443 1.400 . S
C2443 C2442 1.400 . S
C2443 C2444 1.398 . S
C2443 C2449 1.491 . S
C2444 H2435 0.950 . S
C2444 C2443 1.398 . S
C2444 C2445 1.391 . S
C2445 H2433 0.950 . S
C2445 C2441 1.393 . S
C2445 C2444 1.391 . S
C2446 H2436 0.950 . S
C2446 C2447 1.386 . S
C2446 C2448 1.391 . S
C2447 C2446 1.386 . S
C2447 C2451 1.393 . S
C2448 H2437 0.950 . S
C2448 C2446 1.391 . S
C2448 C2449 1.400 . S
C2449 C2443 1.491 . S
C2449 C2448 1.400 . S
C2449 C2450 1.398 . S
C2450 H2438 0.950 . S
C2450 C2449 1.398 . S
C2450 C2451 1.391 . S
C2451 H2439 0.950 . S
C2451 C2447 1.393 . S
C2451 C2450 1.391 . S
H2452 C2460 0.950 . S
H2453 C2465 0.950 . S
H2454 C2462 0.950 . S
H2455 C2464 0.950 . S
H2456 C2466 0.950 . S
H2457 C2468 0.950 . S
H2458 C2470 0.950 . S
H2459 C2471 0.950 . S
C2460 H2452 0.950 . S
C2460 C2461 1.386 . S
C2460 C2462 1.391 . S
C2461 C2460 1.386 . S
C2461 C2465 1.393 . S
C2462 H2454 0.950 . S
C2462 C2460 1.391 . S
C2462 C2463 1.400 . S
C2463 C2462 1.400 . S
C2463 C2464 1.398 . S
C2463 C2469 1.491 . S
C2464 H2455 0.950 . S
C2464 C2463 1.398 . S
C2464 C2465 1.391 . S
C2465 H2453 0.950 . S
C2465 C2461 1.393 . S
C2465 C2464 1.391 . S
C2466 H2456 0.950 . S
C2466 C2467 1.386 . S
C2466 C2468 1.391 . S
C2467 C2466 1.386 . S
C2467 C2471 1.393 . S
C2468 H2457 0.950 . S
C2468 C2466 1.391 . S
C2468 C2469 1.400 . S
C2469 C2463 1.491 . S
C2469 C2468 1.400 . S
C2469 C2470 1.398 . S
C2470 H2458 0.950 . S
C2470 C2469 1.398 . S
C2470 C2471 1.391 . S
C2471 H2459 0.950 . S
C2471 C2467 1.393 . S
C2471 C2470 1.391 . S
H2472 C2480 0.950 . S
H2473 C2485 0.950 . S
H2474 C2482 0.950 . S
H2475 C2484 0.950 . S
H2476 C2486 0.950 . S
H2477 C2488 0.950 . S
H2478 C2490 0.950 . S
H2479 C2491 0.950 . S
C2480 H2472 0.950 . S
C2480 C2481 1.386 . S
C2480 C2482 1.391 . S
C2481 C2480 1.386 . S
C2481 C2485 1.393 . S
C2482 H2474 0.950 . S
C2482 C2480 1.391 . S
C2482 C2483 1.400 . S
C2483 C2482 1.400 . S
C2483 C2484 1.398 . S
C2483 C2489 1.491 . S
C2484 H2475 0.950 . S
C2484 C2483 1.398 . S
C2484 C2485 1.391 . S
C2485 H2473 0.950 . S
C2485 C2481 1.393 . S
C2485 C2484 1.391 . S
C2486 H2476 0.950 . S
C2486 C2487 1.386 . S
C2486 C2488 1.391 . S
C2487 C2486 1.386 . S
C2487 C2491 1.393 . S
C2488 H2477 0.950 . S
C2488 C2486 1.391 . S
C2488 C2489 1.400 . S
C2489 C2483 1.491 . S
C2489 C2488 1.400 . S
C2489 C2490 1.398 . S
C2490 H2478 0.950 . S
C2490 C2489 1.398 . S
C2490 C2491 1.391 . S
C2491 H2479 0.950 . S
C2491 C2487 1.393 . S
C2491 C2490 1.391 . S
H2492 C2500 0.950 . S
H2493 C2505 0.950 . S
H2494 C2502 0.950 . S
H2495 C2504 0.950 . S
H2496 C2506 0.950 . S
H2497 C2508 0.950 . S
H2498 C2510 0.950 . S
H2499 C2511 0.950 . S
C2500 H2492 0.950 . S
C2500 C2501 1.386 . S
C2500 C2502 1.391 . S
C2501 C2500 1.386 . S
C2501 C2505 1.393 . S
C2502 H2494 0.950 . S
C2502 C2500 1.391 . S
C2502 C2503 1.400 . S
C2503 C2502 1.400 . S
C2503 C2504 1.398 . S
C2503 C2509 1.491 . S
C2504 H2495 0.950 . S
C2504 C2503 1.398 . S
C2504 C2505 1.391 . S
C2505 H2493 0.950 . S
C2505 C2501 1.393 . S
C2505 C2504 1.391 . S
C2506 H2496 0.950 . S
C2506 C2507 1.386 . S
C2506 C2508 1.391 . S
C2507 C2506 1.386 . S
C2507 C2511 1.393 . S
C2508 H2497 0.950 . S
C2508 C2506 1.391 . S
C2508 C2509 1.400 . S
C2509 C2503 1.491 . S
C2509 C2508 1.400 . S
C2509 C2510 1.398 . S
C2510 H2498 0.950 . S
C2510 C2509 1.398 . S
C2510 C2511 1.391 . S
C2511 H2499 0.950 . S
C2511 C2507 1.393 . S
C2511 C2510 1.391 . S
H2512 C2520 0.950 . S
H2513 C2525 0.950 . S
H2514 C2522 0.950 . S
H2515 C2524 0.950 . S
H2516 C2526 0.950 . S
H2517 C2528 0.950 . S
H2518 C2530 0.950 . S
H2519 C2531 0.950 . S
C2520 H2512 0.950 . S
C2520 C2521 1.386 . S
C2520 C2522 1.391 . S
C2521 C2520 1.386 . S
C2521 C2525 1.393 . S
C2522 H2514 0.950 . S
C2522 C2520 1.391 . S
C2522 C2523 1.400 . S
C2523 C2522 1.400 . S
C2523 C2524 1.398 . S
C2523 C2529 1.491 . S
C2524 H2515 0.950 . S
C2524 C2523 1.398 . S
C2524 C2525 1.391 . S
C2525 H2513 0.950 . S
C2525 C2521 1.393 . S
C2525 C2524 1.391 . S
C2526 H2516 0.950 . S
C2526 C2527 1.386 . S
C2526 C2528 1.391 . S
C2527 C2526 1.386 . S
C2527 C2531 1.393 . S
C2528 H2517 0.950 . S
C2528 C2526 1.391 . S
C2528 C2529 1.400 . S
C2529 C2523 1.491 . S
C2529 C2528 1.400 . S
C2529 C2530 1.398 . S
C2530 H2518 0.950 . S
C2530 C2529 1.398 . S
C2530 C2531 1.391 . S
C2531 H2519 0.950 . S
C2531 C2527 1.393 . S
C2531 C2530 1.391 . S
H2532 C2540 0.950 . S
H2533 C2545 0.950 . S
H2534 C2542 0.950 . S
H2535 C2544 0.950 . S
H2536 C2546 0.950 . S
H2537 C2548 0.950 . S
H2538 C2550 0.950 . S
H2539 C2551 0.950 . S
C2540 H2532 0.950 . S
C2540 C2541 1.386 . S
C2540 C2542 1.391 . S
C2541 C2540 1.386 . S
C2541 C2545 1.393 . S
C2542 H2534 0.950 . S
C2542 C2540 1.391 . S
C2542 C2543 1.400 . S
C2543 C2542 1.400 . S
C2543 C2544 1.398 . S
C2543 C2549 1.491 . S
C2544 H2535 0.950 . S
C2544 C2543 1.398 . S
C2544 C2545 1.391 . S
C2545 H2533 0.950 . S
C2545 C2541 1.393 . S
C2545 C2544 1.391 . S
C2546 H2536 0.950 . S
C2546 C2547 1.386 . S
C2546 C2548 1.391 . S
C2547 C2546 1.386 . S
C2547 C2551 1.393 . S
C2548 H2537 0.950 . S
C2548 C2546 1.391 . S
C2548 C2549 1.400 . S
C2549 C2543 1.491 . S
C2549 C2548 1.400 . S
C2549 C2550 1.398 . S
C2550 H2538 0.950 . S
C2550 C2549 1.398 . S
C2550 C2551 1.391 . S
C2551 H2539 0.950 . S
C2551 C2547 1.393 . S
C2551 C2550 1.391 . S
H2552 C2560 0.950 . S
H2553 C2565 0.950 . S
H2554 C2562 0.950 . S
H2555 C2564 0.950 . S
H2556 C2566 0.950 . S
H2557 C2568 0.950 . S
H2558 C2570 0.950 . S
H2559 C2571 0.950 . S
C2560 H2552 0.950 . S
C2560 C2561 1.386 . S
C2560 C2562 1.391 . S
C2561 C2560 1.386 . S
C2561 C2565 1.393 . S
C2562 H2554 0.950 . S
C2562 C2560 1.391 . S
C2562 C2563 1.400 . S
C2563 C2562 1.400 . S
C2563 C2564 1.398 . S
C2563 C2569 1.491 . S
C2564 H2555 0.950 . S
C2564 C2563 1.398 . S
C2564 C2565 1.391 . S
C2565 H2553 0.950 . S
C2565 C2561 1.393 . S
C2565 C2564 1.391 . S
C2566 H2556 0.950 . S
C2566 C2567 1.386 . S
C2566 C2568 1.391 . S
C2567 C2566 1.386 . S
C2567 C2571 1.393 . S
C2568 H2557 0.950 . S
C2568 C2566 1.391 . S
C2568 C2569 1.400 . S
C2569 C2563 1.491 . S
C2569 C2568 1.400 . S
C2569 C2570 1.398 . S
C2570 H2558 0.950 . S
C2570 C2569 1.398 . S
C2570 C2571 1.391 . S
C2571 H2559 0.950 . S
C2571 C2567 1.393 . S
C2571 C2570 1.391 . S
H2572 C2580 0.950 . S
H2573 C2585 0.950 . S
H2574 C2582 0.950 . S
H2575 C2584 0.950 . S
H2576 C2586 0.950 . S
H2577 C2588 0.950 . S
H2578 C2590 0.950 . S
H2579 C2591 0.950 . S
C2580 H2572 0.950 . S
C2580 C2581 1.386 . S
C2580 C2582 1.391 . S
C2581 C2580 1.386 . S
C2581 C2585 1.393 . S
C2582 H2574 0.950 . S
C2582 C2580 1.391 . S
C2582 C2583 1.400 . S
C2583 C2582 1.400 . S
C2583 C2584 1.398 . S
C2583 C2589 1.491 . S
C2584 H2575 0.950 . S
C2584 C2583 1.398 . S
C2584 C2585 1.391 . S
C2585 H2573 0.950 . S
C2585 C2581 1.393 . S
C2585 C2584 1.391 . S
C2586 H2576 0.950 . S
C2586 C2587 1.386 . S
C2586 C2588 1.391 . S
C2587 C2586 1.386 . S
C2587 C2591 1.393 . S
C2588 H2577 0.950 . S
C2588 C2586 1.391 . S
C2588 C2589 1.400 . S
C2589 C2583 1.491 . S
C2589 C2588 1.400 . S
C2589 C2590 1.398 . S
C2590 H2578 0.950 . S
C2590 C2589 1.398 . S
C2590 C2591 1.391 . S
C2591 H2579 0.950 . S
C2591 C2587 1.393 . S
C2591 C2590 1.391 . S
H2592 C2600 0.950 . S
H2593 C2605 0.950 . S
H2594 C2602 0.950 . S
H2595 C2604 0.950 . S
H2596 C2606 0.950 . S
H2597 C2608 0.950 . S
H2598 C2610 0.950 . S
H2599 C2611 0.950 . S
C2600 H2592 0.950 . S
C2600 C2601 1.386 . S
C2600 C2602 1.391 . S
C2601 C2600 1.386 . S
C2601 C2605 1.393 . S
C2602 H2594 0.950 . S
C2602 C2600 1.391 . S
C2602 C2603 1.400 . S
C2603 C2602 1.400 . S
C2603 C2604 1.398 . S
C2603 C2609 1.491 . S
C2604 H2595 0.950 . S
C2604 C2603 1.398 . S
C2604 C2605 1.391 . S
C2605 H2593 0.950 . S
C2605 C2601 1.393 . S
C2605 C2604 1.391 . S
C2606 H2596 0.950 . S
C2606 C2607 1.386 . S
C2606 C2608 1.391 . S
C2607 C2606 1.386 . S
C2607 C2611 1.393 . S
C2608 H2597 0.950 . S
C2608 C2606 1.391 . S
C2608 C2609 1.400 . S
C2609 C2603 1.491 . S
C2609 C2608 1.400 . S
C2609 C2610 1.398 . S
C2610 H2598 0.950 . S
C2610 C2609 1.398 . S
C2610 C2611 1.391 . S
C2611 H2599 0.950 . S
C2611 C2607 1.393 . S
C2611 C2610 1.391 . S
H2612 C2620 0.950 . S
H2613 C2625 0.950 . S
H2614 C2622 0.950 . S
H2615 C2624 0.950 . S
H2616 C2626 0.950 . S
H2617 C2628 0.950 . S
H2618 C2630 0.950 . S
H2619 C2631 0.950 . S
C2620 H2612 0.950 . S
C2620 C2621 1.386 . S
C2620 C2622 1.391 . S
C2621 C2620 1.386 . S
C2621 C2625 1.393 . S
C2622 H2614 0.950 . S
C2622 C2620 1.391 . S
C2622 C2623 1.400 . S
C2623 C2622 1.400 . S
C2623 C2624 1.398 . S
C2623 C2629 1.491 . S
C2624 H2615 0.950 . S
C2624 C2623 1.398 . S
C2624 C2625 1.391 . S
C2625 H2613 0.950 . S
C2625 C2621 1.393 . S
C2625 C2624 1.391 . S
C2626 H2616 0.950 . S
C2626 C2627 1.386 . S
C2626 C2628 1.391 . S
C2627 C2626 1.386 . S
C2627 C2631 1.393 . S
C2628 H2617 0.950 . S
C2628 C2626 1.391 . S
C2628 C2629 1.400 . S
C2629 C2623 1.491 . S
C2629 C2628 1.400 . S
C2629 C2630 1.398 . S
C2630 H2618 0.950 . S
C2630 C2629 1.398 . S
C2630 C2631 1.391 . S
C2631 H2619 0.950 . S
C2631 C2627 1.393 . S
C2631 C2630 1.391 . S
H2632 C2640 0.950 . S
H2633 C2645 0.950 . S
H2634 C2642 0.950 . S
H2635 C2644 0.950 . S
H2636 C2646 0.950 . S
H2637 C2648 0.950 . S
H2638 C2650 0.950 . S
H2639 C2651 0.950 . S
C2640 H2632 0.950 . S
C2640 C2641 1.386 . S
C2640 C2642 1.391 . S
C2641 C2640 1.386 . S
C2641 C2645 1.393 . S
C2642 H2634 0.950 . S
C2642 C2640 1.391 . S
C2642 C2643 1.400 . S
C2643 C2642 1.400 . S
C2643 C2644 1.398 . S
C2643 C2649 1.491 . S
C2644 H2635 0.950 . S
C2644 C2643 1.398 . S
C2644 C2645 1.391 . S
C2645 H2633 0.950 . S
C2645 C2641 1.393 . S
C2645 C2644 1.391 . S
C2646 H2636 0.950 . S
C2646 C2647 1.386 . S
C2646 C2648 1.391 . S
C2647 C2646 1.386 . S
C2647 C2651 1.393 . S
C2648 H2637 0.950 . S
C2648 C2646 1.391 . S
C2648 C2649 1.400 . S
C2649 C2643 1.491 . S
C2649 C2648 1.400 . S
C2649 C2650 1.398 . S
C2650 H2638 0.950 . S
C2650 C2649 1.398 . S
C2650 C2651 1.391 . S
C2651 H2639 0.950 . S
C2651 C2647 1.393 . S
C2651 C2650 1.391 . S
H2652 C2660 0.950 . S
H2653 C2665 0.950 . S
H2654 C2662 0.950 . S
H2655 C2664 0.950 . S
H2656 C2666 0.950 . S
H2657 C2668 0.950 . S
H2658 C2670 0.950 . S
H2659 C2671 0.950 . S
C2660 H2652 0.950 . S
C2660 C2661 1.386 . S
C2660 C2662 1.391 . S
C2661 C2660 1.386 . S
C2661 C2665 1.393 . S
C2662 H2654 0.950 . S
C2662 C2660 1.391 . S
C2662 C2663 1.400 . S
C2663 C2662 1.400 . S
C2663 C2664 1.398 . S
C2663 C2669 1.491 . S
C2664 H2655 0.950 . S
C2664 C2663 1.398 . S
C2664 C2665 1.391 . S
C2665 H2653 0.950 . S
C2665 C2661 1.393 . S
C2665 C2664 1.391 . S
C2666 H2656 0.950 . S
C2666 C2667 1.386 . S
C2666 C2668 1.391 . S
C2667 C2666 1.386 . S
C2667 C2671 1.393 . S
C2668 H2657 0.950 . S
C2668 C2666 1.391 . S
C2668 C2669 1.400 . S
C2669 C2663 1.491 . S
C2669 C2668 1.400 . S
C2669 C2670 1.398 . S
C2670 H2658 0.950 . S
C2670 C2669 1.398 . S
C2670 C2671 1.391 . S
C2671 H2659 0.950 . S
C2671 C2667 1.393 . S
C2671 C2670 1.391 . S
H2672 C2680 0.950 . S
H2673 C2685 0.950 . S
H2674 C2682 0.950 . S
H2675 C2684 0.950 . S
H2676 C2686 0.950 . S
H2677 C2688 0.950 . S
H2678 C2690 0.950 . S
H2679 C2691 0.950 . S
C2680 H2672 0.950 . S
C2680 C2681 1.386 . S
C2680 C2682 1.391 . S
C2681 C2680 1.386 . S
C2681 C2685 1.393 . S
C2682 H2674 0.950 . S
C2682 C2680 1.391 . S
C2682 C2683 1.400 . S
C2683 C2682 1.400 . S
C2683 C2684 1.398 . S
C2683 C2689 1.491 . S
C2684 H2675 0.950 . S
C2684 C2683 1.398 . S
C2684 C2685 1.391 . S
C2685 H2673 0.950 . S
C2685 C2681 1.393 . S
C2685 C2684 1.391 . S
C2686 H2676 0.950 . S
C2686 C2687 1.386 . S
C2686 C2688 1.391 . S
C2687 C2686 1.386 . S
C2687 C2691 1.393 . S
C2688 H2677 0.950 . S
C2688 C2686 1.391 . S
C2688 C2689 1.400 . S
C2689 C2683 1.491 . S
C2689 C2688 1.400 . S
C2689 C2690 1.398 . S
C2690 H2678 0.950 . S
C2690 C2689 1.398 . S
C2690 C2691 1.391 . S
C2691 H2679 0.950 . S
C2691 C2687 1.393 . S
C2691 C2690 1.391 . S
H2692 C2700 0.950 . S
H2693 C2705 0.950 . S
H2694 C2702 0.950 . S
H2695 C2704 0.950 . S
H2696 C2706 0.950 . S
H2697 C2708 0.950 . S
H2698 C2710 0.950 . S
H2699 C2711 0.950 . S
C2700 H2692 0.950 . S
C2700 C2701 1.386 . S
C2700 C2702 1.391 . S
C2701 C2700 1.386 . S
C2701 C2705 1.393 . S
C2702 H2694 0.950 . S
C2702 C2700 1.391 . S
C2702 C2703 1.400 . S
C2703 C2702 1.400 . S
C2703 C2704 1.398 . S
C2703 C2709 1.491 . S
C2704 H2695 0.950 . S
C2704 C2703 1.398 . S
C2704 C2705 1.391 . S
C2705 H2693 0.950 . S
C2705 C2701 1.393 . S
C2705 C2704 1.391 . S
C2706 H2696 0.950 . S
C2706 C2707 1.386 . S
C2706 C2708 1.391 . S
C2707 C2706 1.386 . S
C2707 C2711 1.393 . S
C2708 H2697 0.950 . S
C2708 C2706 1.391 . S
C2708 C2709 1.400 . S
C2709 C2703 1.491 . S
C2709 C2708 1.400 . S
C2709 C2710 1.398 . S
C2710 H2698 0.950 . S
C2710 C2709 1.398 . S
C2710 C2711 1.391 . S
C2711 H2699 0.950 . S
C2711 C2707 1.393 . S
C2711 C2710 1.391 . S
H2712 C2720 0.950 . S
H2713 C2725 0.950 . S
H2714 C2722 0.950 . S
H2715 C2724 0.950 . S
H2716 C2726 0.950 . S
H2717 C2728 0.950 . S
H2718 C2730 0.950 . S
H2719 C2731 0.950 . S
C2720 H2712 0.950 . S
C2720 C2721 1.386 . S
C2720 C2722 1.391 . S
C2721 C2720 1.386 . S
C2721 C2725 1.393 . S
C2722 H2714 0.950 . S
C2722 C2720 1.391 . S
C2722 C2723 1.400 . S
C2723 C2722 1.400 . S
C2723 C2724 1.398 . S
C2723 C2729 1.491 . S
C2724 H2715 0.950 . S
C2724 C2723 1.398 . S
C2724 C2725 1.391 . S
C2725 H2713 0.950 . S
C2725 C2721 1.393 . S
C2725 C2724 1.391 . S
C2726 H2716 0.950 . S
C2726 C2727 1.386 . S
C2726 C2728 1.391 . S
C2727 C2726 1.386 . S
C2727 C2731 1.393 . S
C2728 H2717 0.950 . S
C2728 C2726 1.391 . S
C2728 C2729 1.400 . S
C2729 C2723 1.491 . S
C2729 C2728 1.400 . S
C2729 C2730 1.398 . S
C2730 H2718 0.950 . S
C2730 C2729 1.398 . S
C2730 C2731 1.391 . S
C2731 H2719 0.950 . S
C2731 C2727 1.393 . S
C2731 C2730 1.391 . S
H2732 C2740 0.950 . S
H2733 C2745 0.950 . S
H2734 C2742 0.950 . S
H2735 C2744 0.950 . S
H2736 C2746 0.950 . S
H2737 C2748 0.950 . S
H2738 C2750 0.950 . S
H2739 C2751 0.950 . S
C2740 H2732 0.950 . S
C2740 C2741 1.386 . S
C2740 C2742 1.391 . S
C2741 C2740 1.386 . S
C2741 C2745 1.393 . S
C2742 H2734 0.950 . S
C2742 C2740 1.391 . S
C2742 C2743 1.400 . S
C2743 C2742 1.400 . S
C2743 C2744 1.398 . S
C2743 C2749 1.491 . S
C2744 H2735 0.950 . S
C2744 C2743 1.398 . S
C2744 C2745 1.391 . S
C2745 H2733 0.950 . S
C2745 C2741 1.393 . S
C2745 C2744 1.391 . S
C2746 H2736 0.950 . S
C2746 C2747 1.386 . S
C2746 C2748 1.391 . S
C2747 C2746 1.386 . S
C2747 C2751 1.393 . S
C2748 H2737 0.950 . S
C2748 C2746 1.391 . S
C2748 C2749 1.400 . S
C2749 C2743 1.491 . S
C2749 C2748 1.400 . S
C2749 C2750 1.398 . S
C2750 H2738 0.950 . S
C2750 C2749 1.398 . S
C2750 C2751 1.391 . S
C2751 H2739 0.950 . S
C2751 C2747 1.393 . S
C2751 C2750 1.391 . S
H2752 C2760 0.950 . S
H2753 C2765 0.950 . S
H2754 C2762 0.950 . S
H2755 C2764 0.950 . S
H2756 C2766 0.950 . S
H2757 C2768 0.950 . S
H2758 C2770 0.950 . S
H2759 C2771 0.950 . S
C2760 H2752 0.950 . S
C2760 C2761 1.386 . S
C2760 C2762 1.391 . S
C2761 C2760 1.386 . S
C2761 C2765 1.393 . S
C2762 H2754 0.950 . S
C2762 C2760 1.391 . S
C2762 C2763 1.400 . S
C2763 C2762 1.400 . S
C2763 C2764 1.398 . S
C2763 C2769 1.491 . S
C2764 H2755 0.950 . S
C2764 C2763 1.398 . S
C2764 C2765 1.391 . S
C2765 H2753 0.950 . S
C2765 C2761 1.393 . S
C2765 C2764 1.391 . S
C2766 H2756 0.950 . S
C2766 C2767 1.386 . S
C2766 C2768 1.391 . S
C2767 C2766 1.386 . S
C2767 C2771 1.393 . S
C2768 H2757 0.950 . S
C2768 C2766 1.391 . S
C2768 C2769 1.400 . S
C2769 C2763 1.491 . S
C2769 C2768 1.400 . S
C2769 C2770 1.398 . S
C2770 H2758 0.950 . S
C2770 C2769 1.398 . S
C2770 C2771 1.391 . S
C2771 H2759 0.950 . S
C2771 C2767 1.393 . S
C2771 C2770 1.391 . S
H2772 C2780 0.950 . S
H2773 C2785 0.950 . S
H2774 C2782 0.950 . S
H2775 C2784 0.950 . S
H2776 C2786 0.950 . S
H2777 C2788 0.950 . S
H2778 C2790 0.950 . S
H2779 C2791 0.950 . S
C2780 H2772 0.950 . S
C2780 C2781 1.386 . S
C2780 C2782 1.391 . S
C2781 C2780 1.386 . S
C2781 C2785 1.393 . S
C2782 H2774 0.950 . S
C2782 C2780 1.391 . S
C2782 C2783 1.400 . S
C2783 C2782 1.400 . S
C2783 C2784 1.398 . S
C2783 C2789 1.491 . S
C2784 H2775 0.950 . S
C2784 C2783 1.398 . S
C2784 C2785 1.391 . S
C2785 H2773 0.950 . S
C2785 C2781 1.393 . S
C2785 C2784 1.391 . S
C2786 H2776 0.950 . S
C2786 C2787 1.386 . S
C2786 C2788 1.391 . S
C2787 C2786 1.386 . S
C2787 C2791 1.393 . S
C2788 H2777 0.950 . S
C2788 C2786 1.391 . S
C2788 C2789 1.400 . S
C2789 C2783 1.491 . S
C2789 C2788 1.400 . S
C2789 C2790 1.398 . S
C2790 H2778 0.950 . S
C2790 C2789 1.398 . S
C2790 C2791 1.391 . S
C2791 H2779 0.950 . S
C2791 C2787 1.393 . S
C2791 C2790 1.391 . S
H2792 C2800 0.950 . S
H2793 C2805 0.950 . S
H2794 C2802 0.950 . S
H2795 C2804 0.950 . S
H2796 C2806 0.950 . S
H2797 C2808 0.950 . S
H2798 C2810 0.950 . S
H2799 C2811 0.950 . S
C2800 H2792 0.950 . S
C2800 C2801 1.386 . S
C2800 C2802 1.391 . S
C2801 C2800 1.386 . S
C2801 C2805 1.393 . S
C2802 H2794 0.950 . S
C2802 C2800 1.391 . S
C2802 C2803 1.400 . S
C2803 C2802 1.400 . S
C2803 C2804 1.398 . S
C2803 C2809 1.491 . S
C2804 H2795 0.950 . S
C2804 C2803 1.398 . S
C2804 C2805 1.391 . S
C2805 H2793 0.950 . S
C2805 C2801 1.393 . S
C2805 C2804 1.391 . S
C2806 H2796 0.950 . S
C2806 C2807 1.386 . S
C2806 C2808 1.391 . S
C2807 C2806 1.386 . S
C2807 C2811 1.393 . S
C2808 H2797 0.950 . S
C2808 C2806 1.391 . S
C2808 C2809 1.400 . S
C2809 C2803 1.491 . S
C2809 C2808 1.400 . S
C2809 C2810 1.398 . S
C2810 H2798 0.950 . S
C2810 C2809 1.398 . S
C2810 C2811 1.391 . S
C2811 H2799 0.950 . S
C2811 C2807 1.393 . S
C2811 C2810 1.391 . S
H2812 C2820 0.950 . S
H2813 C2825 0.950 . S
H2814 C2822 0.950 . S
H2815 C2824 0.950 . S
H2816 C2826 0.950 . S
H2817 C2828 0.950 . S
H2818 C2830 0.950 . S
H2819 C2831 0.950 . S
C2820 H2812 0.950 . S
C2820 C2821 1.386 . S
C2820 C2822 1.391 . S
C2821 C2820 1.386 . S
C2821 C2825 1.393 . S
C2822 H2814 0.950 . S
C2822 C2820 1.391 . S
C2822 C2823 1.400 . S
C2823 C2822 1.400 . S
C2823 C2824 1.398 . S
C2823 C2829 1.491 . S
C2824 H2815 0.950 . S
C2824 C2823 1.398 . S
C2824 C2825 1.391 . S
C2825 H2813 0.950 . S
C2825 C2821 1.393 . S
C2825 C2824 1.391 . S
C2826 H2816 0.950 . S
C2826 C2827 1.386 . S
C2826 C2828 1.391 . S
C2827 C2826 1.386 . S
C2827 C2831 1.393 . S
C2828 H2817 0.950 . S
C2828 C2826 1.391 . S
C2828 C2829 1.400 . S
C2829 C2823 1.491 . S
C2829 C2828 1.400 . S
C2829 C2830 1.398 . S
C2830 H2818 0.950 . S
C2830 C2829 1.398 . S
C2830 C2831 1.391 . S
C2831 H2819 0.950 . S
C2831 C2827 1.393 . S
C2831 C2830 1.391 . S
H2832 C2840 0.950 . S
H2833 C2845 0.950 . S
H2834 C2842 0.950 . S
H2835 C2844 0.950 . S
H2836 C2846 0.950 . S
H2837 C2848 0.950 . S
H2838 C2850 0.950 . S
H2839 C2851 0.950 . S
C2840 H2832 0.950 . S
C2840 C2841 1.386 . S
C2840 C2842 1.391 . S
C2841 C2840 1.386 . S
C2841 C2845 1.393 . S
C2842 H2834 0.950 . S
C2842 C2840 1.391 . S
C2842 C2843 1.400 . S
C2843 C2842 1.400 . S
C2843 C2844 1.398 . S
C2843 C2849 1.491 . S
C2844 H2835 0.950 . S
C2844 C2843 1.398 . S
C2844 C2845 1.391 . S
C2845 H2833 0.950 . S
C2845 C2841 1.393 . S
C2845 C2844 1.391 . S
C2846 H2836 0.950 . S
C2846 C2847 1.386 . S
C2846 C2848 1.391 . S
C2847 C2846 1.386 . S
C2847 C2851 1.393 . S
C2848 H2837 0.950 . S
C2848 C2846 1.391 . S
C2848 C2849 1.400 . S
C2849 C2843 1.491 . S
C2849 C2848 1.400 . S
C2849 C2850 1.398 . S
C2850 H2838 0.950 . S
C2850 C2849 1.398 . S
C2850 C2851 1.391 . S
C2851 H2839 0.950 . S
C2851 C2847 1.393 . S
C2851 C2850 1.391 . S
H2852 C2860 0.950 . S
H2853 C2865 0.950 . S
H2854 C2862 0.950 . S
H2855 C2864 0.950 . S
H2856 C2866 0.950 . S
H2857 C2868 0.950 . S
H2858 C2870 0.950 . S
H2859 C2871 0.950 . S
C2860 H2852 0.950 . S
C2860 C2861 1.386 . S
C2860 C2862 1.391 . S
C2861 C2860 1.386 . S
C2861 C2865 1.393 . S
C2862 H2854 0.950 . S
C2862 C2860 1.391 . S
C2862 C2863 1.400 . S
C2863 C2862 1.400 . S
C2863 C2864 1.398 . S
C2863 C2869 1.491 . S
C2864 H2855 0.950 . S
C2864 C2863 1.398 . S
C2864 C2865 1.391 . S
C2865 H2853 0.950 . S
C2865 C2861 1.393 . S
C2865 C2864 1.391 . S
C2866 H2856 0.950 . S
C2866 C2867 1.386 . S
C2866 C2868 1.391 . S
C2867 C2866 1.386 . S
C2867 C2871 1.393 . S
C2868 H2857 0.950 . S
C2868 C2866 1.391 . S
C2868 C2869 1.400 . S
C2869 C2863 1.491 . S
C2869 C2868 1.400 . S
C2869 C2870 1.398 . S
C2870 H2858 0.950 . S
C2870 C2869 1.398 . S
C2870 C2871 1.391 . S
C2871 H2859 0.950 . S
C2871 C2867 1.393 . S
C2871 C2870 1.391 . S
H2872 C2880 0.950 . S
H2873 C2885 0.950 . S
H2874 C2882 0.950 . S
H2875 C2884 0.950 . S
H2876 C2886 0.950 . S
H2877 C2888 0.950 . S
H2878 C2890 0.950 . S
H2879 C2891 0.950 . S
C2880 H2872 0.950 . S
C2880 C2881 1.386 . S
C2880 C2882 1.391 . S
C2881 C2880 1.386 . S
C2881 C2885 1.393 . S
C2882 H2874 0.950 . S
C2882 C2880 1.391 . S
C2882 C2883 1.400 . S
C2883 C2882 1.400 . S
C2883 C2884 1.398 . S
C2883 C2889 1.491 . S
C2884 H2875 0.950 . S
C2884 C2883 1.398 . S
C2884 C2885 1.391 . S
C2885 H2873 0.950 . S
C2885 C2881 1.393 . S
C2885 C2884 1.391 . S
C2886 H2876 0.950 . S
C2886 C2887 1.386 . S
C2886 C2888 1.391 . S
C2887 C2886 1.386 . S
C2887 C2891 1.393 . S
C2888 H2877 0.950 . S
C2888 C2886 1.391 . S
C2888 C2889 1.400 . S
C2889 C2883 1.491 . S
C2889 C2888 1.400 . S
C2889 C2890 1.398 . S
C2890 H2878 0.950 . S
C2890 C2889 1.398 . S
C2890 C2891 1.391 . S
C2891 H2879 0.950 . S
C2891 C2887 1.393 . S
C2891 C2890 1.391 . S
H2892 C2900 0.950 . S
H2893 C2905 0.950 . S
H2894 C2902 0.950 . S
H2895 C2904 0.950 . S
H2896 C2906 0.950 . S
H2897 C2908 0.950 . S
H2898 C2910 0.950 . S
H2899 C2911 0.950 . S
C2900 H2892 0.950 . S
C2900 C2901 1.386 . S
C2900 C2902 1.391 . S
C2901 C2900 1.386 . S
C2901 C2905 1.393 . S
C2902 H2894 0.950 . S
C2902 C2900 1.391 . S
C2902 C2903 1.400 . S
C2903 C2902 1.400 . S
C2903 C2904 1.398 . S
C2903 C2909 1.491 . S
C2904 H2895 0.950 . S
C2904 C2903 1.398 . S
C2904 C2905 1.391 . S
C2905 H2893 0.950 . S
C2905 C2901 1.393 . S
C2905 C2904 1.391 . S
C2906 H2896 0.950 . S
C2906 C2907 1.386 . S
C2906 C2908 1.391 . S
C2907 C2906 1.386 . S
C2907 C2911 1.393 . S
C2908 H2897 0.950 . S
C2908 C2906 1.391 . S
C2908 C2909 1.400 . S
C2909 C2903 1.491 . S
C2909 C2908 1.400 . S
C2909 C2910 1.398 . S
C2910 H2898 0.950 . S
C2910 C2909 1.398 . S
C2910 C2911 1.391 . S
C2911 H2899 0.950 . S
C2911 C2907 1.393 . S
C2911 C2910 1.391 . S
H2912 C2920 0.950 . S
H2913 C2925 0.950 . S
H2914 C2922 0.950 . S
H2915 C2924 0.950 . S
H2916 C2926 0.950 . S
H2917 C2928 0.950 . S
H2918 C2930 0.950 . S
H2919 C2931 0.950 . S
C2920 H2912 0.950 . S
C2920 C2921 1.386 . S
C2920 C2922 1.391 . S
C2921 C2920 1.386 . S
C2921 C2925 1.393 . S
C2922 H2914 0.950 . S
C2922 C2920 1.391 . S
C2922 C2923 1.400 . S
C2923 C2922 1.400 . S
C2923 C2924 1.398 . S
C2923 C2929 1.491 . S
C2924 H2915 0.950 . S
C2924 C2923 1.398 . S
C2924 C2925 1.391 . S
C2925 H2913 0.950 . S
C2925 C2921 1.393 . S
C2925 C2924 1.391 . S
C2926 H2916 0.950 . S
C2926 C2927 1.386 . S
C2926 C2928 1.391 . S
C2927 C2926 1.386 . S
C2927 C2931 1.393 . S
C2928 H2917 0.950 . S
C2928 C2926 1.391 . S
C2928 C2929 1.400 . S
C2929 C2923 1.491 . S
C2929 C2928 1.400 . S
C2929 C2930 1.398 . S
C2930 H2918 0.950 . S
C2930 C2929 1.398 . S
C2930 C2931 1.391 . S
C2931 H2919 0.950 . S
C2931 C2927 1.393 . S
C2931 C2930 1.391 . S
H2932 C2940 0.950 . S
H2933 C2945 0.950 . S
H2934 C2942 0.950 . S
H2935 C2944 0.950 . S
H2936 C2946 0.950 . S
H2937 C2948 0.950 . S
H2938 C2950 0.950 . S
H2939 C2951 0.950 . S
C2940 H2932 0.950 . S
C2940 C2941 1.386 . S
C2940 C2942 1.391 . S
C2941 C2940 1.386 . S
C2941 C2945 1.393 . S
C2942 H2934 0.950 . S
C2942 C2940 1.391 . S
C2942 C2943 1.400 . S
C2943 C2942 1.400 . S
C2943 C2944 1.398 . S
C2943 C2949 1.491 . S
C2944 H2935 0.950 . S
C2944 C2943 1.398 . S
C2944 C2945 1.391 . S
C2945 H2933 0.950 . S
C2945 C2941 1.393 . S
C2945 C2944 1.391 . S
C2946 H2936 0.950 . S
C2946 C2947 1.386 . S
C2946 C2948 1.391 . S
C2947 C2946 1.386 . S
C2947 C2951 1.393 . S
C2948 H2937 0.950 . S
C2948 C2946 1.391 . S
C2948 C2949 1.400 . S
C2949 C2943 1.491 . S
C2949 C2948 1.400 . S
C2949 C2950 1.398 . S
C2950 H2938 0.950 . S
C2950 C2949 1.398 . S
C2950 C2951 1.391 . S
C2951 H2939 0.950 . S
C2951 C2947 1.393 . S
C2951 C2950 1.391 . S
H2952 C2960 0.950 . S
H2953 C2965 0.950 . S
H2954 C2962 0.950 . S
H2955 C2964 0.950 . S
H2956 C2966 0.950 . S
H2957 C2968 0.950 . S
H2958 C2970 0.950 . S
H2959 C2971 0.950 . S
C2960 H2952 0.950 . S
C2960 C2961 1.386 . S
C2960 C2962 1.391 . S
C2961 C2960 1.386 . S
C2961 C2965 1.393 . S
C2962 H2954 0.950 . S
C2962 C2960 1.391 . S
C2962 C2963 1.400 . S
C2963 C2962 1.400 . S
C2963 C2964 1.398 . S
C2963 C2969 1.491 . S
C2964 H2955 0.950 . S
C2964 C2963 1.398 . S
C2964 C2965 1.391 . S
C2965 H2953 0.950 . S
C2965 C2961 1.393 . S
C2965 C2964 1.391 . S
C2966 H2956 0.950 . S
C2966 C2967 1.386 . S
C2966 C2968 1.391 . S
C2967 C2966 1.386 . S
C2967 C2971 1.393 . S
C2968 H2957 0.950 . S
C2968 C2966 1.391 . S
C2968 C2969 1.400 . S
C2969 C2963 1.491 . S
C2969 C2968 1.400 . S
C2969 C2970 1.398 . S
C2970 H2958 0.950 . S
C2970 C2969 1.398 . S
C2970 C2971 1.391 . S
C2971 H2959 0.950 . S
C2971 C2967 1.393 . S
C2971 C2970 1.391 . S
H2972 C2980 0.950 . S
H2973 C2985 0.950 . S
H2974 C2982 0.950 . S
H2975 C2984 0.950 . S
H2976 C2986 0.950 . S
H2977 C2988 0.950 . S
H2978 C2990 0.950 . S
H2979 C2991 0.950 . S
C2980 H2972 0.950 . S
C2980 C2981 1.386 . S
C2980 C2982 1.391 . S
C2981 C2980 1.386 . S
C2981 C2985 1.393 . S
C2982 H2974 0.950 . S
C2982 C2980 1.391 . S
C2982 C2983 1.400 . S
C2983 C2982 1.400 . S
C2983 C2984 1.398 . S
C2983 C2989 1.491 . S
C2984 H2975 0.950 . S
C2984 C2983 1.398 . S
C2984 C2985 1.391 . S
C2985 H2973 0.950 . S
C2985 C2981 1.393 . S
C2985 C2984 1.391 . S
C2986 H2976 0.950 . S
C2986 C2987 1.386 . S
C2986 C2988 1.391 . S
C2987 C2986 1.386 . S
C2987 C2991 1.393 . S
C2988 H2977 0.950 . S
C2988 C2986 1.391 . S
C2988 C2989 1.400 . S
C2989 C2983 1.491 . S
C2989 C2988 1.400 . S
C2989 C2990 1.398 . S
C2990 H2978 0.950 . S
C2990 C2989 1.398 . S
C2990 C2991 1.391 . S
C2991 H2979 0.950 . S
C2991 C2987 1.393 . S
C2991 C2990 1.391 . S
H2992 C3000 0.950 . S
H2993 C3005 0.950 . S
H2994 C3002 0.950 . S
H2995 C3004 0.950 . S
H2996 C3006 0.950 . S
H2997 C3008 0.950 . S
H2998 C3010 0.950 . S
H2999 C3011 0.950 . S
C3000 H2992 0.950 . S
C3000 C3001 1.386 . S
C3000 C3002 1.391 . S
C3001 C3000 1.386 . S
C3001 C3005 1.393 . S
C3002 H2994 0.950 . S
C3002 C3000 1.391 . S
C3002 C3003 1.400 . S
C3003 C3002 1.400 . S
C3003 C3004 1.398 . S
C3003 C3009 1.491 . S
C3004 H2995 0.950 . S
C3004 C3003 1.398 . S
C3004 C3005 1.391 . S
C3005 H2993 0.950 . S
C3005 C3001 1.393 . S
C3005 C3004 1.391 . S
C3006 H2996 0.950 . S
C3006 C3007 1.386 . S
C3006 C3008 1.391 . S
C3007 C3006 1.386 . S
C3007 C3011 1.393 . S
C3008 H2997 0.950 . S
C3008 C3006 1.391 . S
C3008 C3009 1.400 . S
C3009 C3003 1.491 . S
C3009 C3008 1.400 . S
C3009 C3010 1.398 . S
C3010 H2998 0.950 . S
C3010 C3009 1.398 . S
C3010 C3011 1.391 . S
C3011 H2999 0.950 . S
C3011 C3007 1.393 . S
C3011 C3010 1.391 . S
H3012 C3020 0.950 . S
H3013 C3025 0.950 . S
H3014 C3022 0.950 . S
H3015 C3024 0.950 . S
H3016 C3026 0.950 . S
H3017 C3028 0.950 . S
H3018 C3030 0.950 . S
H3019 C3031 0.950 . S
C3020 H3012 0.950 . S
C3020 C3021 1.386 . S
C3020 C3022 1.391 . S
C3021 C3020 1.386 . S
C3021 C3025 1.393 . S
C3022 H3014 0.950 . S
C3022 C3020 1.391 . S
C3022 C3023 1.400 . S
C3023 C3022 1.400 . S
C3023 C3024 1.398 . S
C3023 C3029 1.491 . S
C3024 H3015 0.950 . S
C3024 C3023 1.398 . S
C3024 C3025 1.391 . S
C3025 H3013 0.950 . S
C3025 C3021 1.393 . S
C3025 C3024 1.391 . S
C3026 H3016 0.950 . S
C3026 C3027 1.386 . S
C3026 C3028 1.391 . S
C3027 C3026 1.386 . S
C3027 C3031 1.393 . S
C3028 H3017 0.950 . S
C3028 C3026 1.391 . S
C3028 C3029 1.400 . S
C3029 C3023 1.491 . S
C3029 C3028 1.400 . S
C3029 C3030 1.398 . S
C3030 H3018 0.950 . S
C3030 C3029 1.398 . S
C3030 C3031 1.391 . S
C3031 H3019 0.950 . S
C3031 C3027 1.393 . S
C3031 C3030 1.391 . S
H3032 C3040 0.950 . S
H3033 C3045 0.950 . S
H3034 C3042 0.950 . S
H3035 C3044 0.950 . S
H3036 C3046 0.950 . S
H3037 C3048 0.950 . S
H3038 C3050 0.950 . S
H3039 C3051 0.950 . S
C3040 H3032 0.950 . S
C3040 C3041 1.386 . S
C3040 C3042 1.391 . S
C3041 C3040 1.386 . S
C3041 C3045 1.393 . S
C3042 H3034 0.950 . S
C3042 C3040 1.391 . S
C3042 C3043 1.400 . S
C3043 C3042 1.400 . S
C3043 C3044 1.398 . S
C3043 C3049 1.491 . S
C3044 H3035 0.950 . S
C3044 C3043 1.398 . S
C3044 C3045 1.391 . S
C3045 H3033 0.950 . S
C3045 C3041 1.393 . S
C3045 C3044 1.391 . S
C3046 H3036 0.950 . S
C3046 C3047 1.386 . S
C3046 C3048 1.391 . S
C3047 C3046 1.386 . S
C3047 C3051 1.393 . S
C3048 H3037 0.950 . S
C3048 C3046 1.391 . S
C3048 C3049 1.400 . S
C3049 C3043 1.491 . S
C3049 C3048 1.400 . S
C3049 C3050 1.398 . S
C3050 H3038 0.950 . S
C3050 C3049 1.398 . S
C3050 C3051 1.391 . S
C3051 H3039 0.950 . S
C3051 C3047 1.393 . S
C3051 C3050 1.391 . S
H3052 C3060 0.950 . S
H3053 C3065 0.950 . S
H3054 C3062 0.950 . S
H3055 C3064 0.950 . S
H3056 C3066 0.950 . S
H3057 C3068 0.950 . S
H3058 C3070 0.950 . S
H3059 C3071 0.950 . S
C3060 H3052 0.950 . S
C3060 C3061 1.386 . S
C3060 C3062 1.391 . S
C3061 C3060 1.386 . S
C3061 C3065 1.393 . S
C3062 H3054 0.950 . S
C3062 C3060 1.391 . S
C3062 C3063 1.400 . S
C3063 C3062 1.400 . S
C3063 C3064 1.398 . S
C3063 C3069 1.491 . S
C3064 H3055 0.950 . S
C3064 C3063 1.398 . S
C3064 C3065 1.391 . S
C3065 H3053 0.950 . S
C3065 C3061 1.393 . S
C3065 C3064 1.391 . S
C3066 H3056 0.950 . S
C3066 C3067 1.386 . S
C3066 C3068 1.391 . S
C3067 C3066 1.386 . S
C3067 C3071 1.393 . S
C3068 H3057 0.950 . S
C3068 C3066 1.391 . S
C3068 C3069 1.400 . S
C3069 C3063 1.491 . S
C3069 C3068 1.400 . S
C3069 C3070 1.398 . S
C3070 H3058 0.950 . S
C3070 C3069 1.398 . S
C3070 C3071 1.391 . S
C3071 H3059 0.950 . S
C3071 C3067 1.393 . S
C3071 C3070 1.391 . S
H3072 C3080 0.950 . S
H3073 C3085 0.950 . S
H3074 C3082 0.950 . S
H3075 C3084 0.950 . S
H3076 C3086 0.950 . S
H3077 C3088 0.950 . S
H3078 C3090 0.950 . S
H3079 C3091 0.950 . S
C3080 H3072 0.950 . S
C3080 C3081 1.386 . S
C3080 C3082 1.391 . S
C3081 C3080 1.386 . S
C3081 C3085 1.393 . S
C3082 H3074 0.950 . S
C3082 C3080 1.391 . S
C3082 C3083 1.400 . S
C3083 C3082 1.400 . S
C3083 C3084 1.398 . S
C3083 C3089 1.491 . S
C3084 H3075 0.950 . S
C3084 C3083 1.398 . S
C3084 C3085 1.391 . S
C3085 H3073 0.950 . S
C3085 C3081 1.393 . S
C3085 C3084 1.391 . S
C3086 H3076 0.950 . S
C3086 C3087 1.386 . S
C3086 C3088 1.391 . S
C3087 C3086 1.386 . S
C3087 C3091 1.393 . S
C3088 H3077 0.950 . S
C3088 C3086 1.391 . S
C3088 C3089 1.400 . S
C3089 C3083 1.491 . S
C3089 C3088 1.400 . S
C3089 C3090 1.398 . S
C3090 H3078 0.950 . S
C3090 C3089 1.398 . S
C3090 C3091 1.391 . S
C3091 H3079 0.950 . S
C3091 C3087 1.393 . S
C3091 C3090 1.391 . S
H3092 C3100 0.950 . S
H3093 C3105 0.950 . S
H3094 C3102 0.950 . S
H3095 C3104 0.950 . S
H3096 C3106 0.950 . S
H3097 C3108 0.950 . S
H3098 C3110 0.950 . S
H3099 C3111 0.950 . S
C3100 H3092 0.950 . S
C3100 C3101 1.386 . S
C3100 C3102 1.391 . S
C3101 C3100 1.386 . S
C3101 C3105 1.393 . S
C3102 H3094 0.950 . S
C3102 C3100 1.391 . S
C3102 C3103 1.400 . S
C3103 C3102 1.400 . S
C3103 C3104 1.398 . S
C3103 C3109 1.491 . S
C3104 H3095 0.950 . S
C3104 C3103 1.398 . S
C3104 C3105 1.391 . S
C3105 H3093 0.950 . S
C3105 C3101 1.393 . S
C3105 C3104 1.391 . S
C3106 H3096 0.950 . S
C3106 C3107 1.386 . S
C3106 C3108 1.391 . S
C3107 C3106 1.386 . S
C3107 C3111 1.393 . S
C3108 H3097 0.950 . S
C3108 C3106 1.391 . S
C3108 C3109 1.400 . S
C3109 C3103 1.491 . S
C3109 C3108 1.400 . S
C3109 C3110 1.398 . S
C3110 H3098 0.950 . S
C3110 C3109 1.398 . S
C3110 C3111 1.391 . S
C3111 H3099 0.950 . S
C3111 C3107 1.393 . S
C3111 C3110 1.391 . S
H3112 C3120 0.950 . S
H3113 C3125 0.950 . S
H3114 C3122 0.950 . S
H3115 C3124 0.950 . S
H3116 C3126 0.950 . S
H3117 C3128 0.950 . S
H3118 C3130 0.950 . S
H3119 C3131 0.950 . S
C3120 H3112 0.950 . S
C3120 C3121 1.386 . S
C3120 C3122 1.391 . S
C3121 C3120 1.386 . S
C3121 C3125 1.393 . S
C3122 H3114 0.950 . S
C3122 C3120 1.391 . S
C3122 C3123 1.400 . S
C3123 C3122 1.400 . S
C3123 C3124 1.398 . S
C3123 C3129 1.491 . S
C3124 H3115 0.950 . S
C3124 C3123 1.398 . S
C3124 C3125 1.391 . S
C3125 H3113 0.950 . S
C3125 C3121 1.393 . S
C3125 C3124 1.391 . S
C3126 H3116 0.950 . S
C3126 C3127 1.386 . S
C3126 C3128 1.391 . S
C3127 C3126 1.386 . S
C3127 C3131 1.393 . S
C3128 H3117 0.950 . S
C3128 C3126 1.391 . S
C3128 C3129 1.400 . S
C3129 C3123 1.491 . S
C3129 C3128 1.400 . S
C3129 C3130 1.398 . S
C3130 H3118 0.950 . S
C3130 C3129 1.398 . S
C3130 C3131 1.391 . S
C3131 H3119 0.950 . S
C3131 C3127 1.393 . S
C3131 C3130 1.391 . S
H3132 C3140 0.950 . S
H3133 C3145 0.950 . S
H3134 C3142 0.950 . S
H3135 C3144 0.950 . S
H3136 C3146 0.950 . S
H3137 C3148 0.950 . S
H3138 C3150 0.950 . S
H3139 C3151 0.950 . S
C3140 H3132 0.950 . S
C3140 C3141 1.386 . S
C3140 C3142 1.391 . S
C3141 C3140 1.386 . S
C3141 C3145 1.393 . S
C3142 H3134 0.950 . S
C3142 C3140 1.391 . S
C3142 C3143 1.400 . S
C3143 C3142 1.400 . S
C3143 C3144 1.398 . S
C3143 C3149 1.491 . S
C3144 H3135 0.950 . S
C3144 C3143 1.398 . S
C3144 C3145 1.391 . S
C3145 H3133 0.950 . S
C3145 C3141 1.393 . S
C3145 C3144 1.391 . S
C3146 H3136 0.950 . S
C3146 C3147 1.386 . S
C3146 C3148 1.391 . S
C3147 C3146 1.386 . S
C3147 C3151 1.393 . S
C3148 H3137 0.950 . S
C3148 C3146 1.391 . S
C3148 C3149 1.400 . S
C3149 C3143 1.491 . S
C3149 C3148 1.400 . S
C3149 C3150 1.398 . S
C3150 H3138 0.950 . S
C3150 C3149 1.398 . S
C3150 C3151 1.391 . S
C3151 H3139 0.950 . S
C3151 C3147 1.393 . S
C3151 C3150 1.391 . S
H3152 C3160 0.950 . S
H3153 C3165 0.950 . S
H3154 C3162 0.950 . S
H3155 C3164 0.950 . S
H3156 C3166 0.950 . S
H3157 C3168 0.950 . S
H3158 C3170 0.950 . S
H3159 C3171 0.950 . S
C3160 H3152 0.950 . S
C3160 C3161 1.386 . S
C3160 C3162 1.391 . S
C3161 C3160 1.386 . S
C3161 C3165 1.393 . S
C3162 H3154 0.950 . S
C3162 C3160 1.391 . S
C3162 C3163 1.400 . S
C3163 C3162 1.400 . S
C3163 C3164 1.398 . S
C3163 C3169 1.491 . S
C3164 H3155 0.950 . S
C3164 C3163 1.398 . S
C3164 C3165 1.391 . S
C3165 H3153 0.950 . S
C3165 C3161 1.393 . S
C3165 C3164 1.391 . S
C3166 H3156 0.950 . S
C3166 C3167 1.386 . S
C3166 C3168 1.391 . S
C3167 C3166 1.386 . S
C3167 C3171 1.393 . S
C3168 H3157 0.950 . S
C3168 C3166 1.391 . S
C3168 C3169 1.400 . S
C3169 C3163 1.491 . S
C3169 C3168 1.400 . S
C3169 C3170 1.398 . S
C3170 H3158 0.950 . S
C3170 C3169 1.398 . S
C3170 C3171 1.391 . S
C3171 H3159 0.950 . S
C3171 C3167 1.393 . S
C3171 C3170 1.391 . S
H3172 C3180 0.950 . S
H3173 C3185 0.950 . S
H3174 C3182 0.950 . S
H3175 C3184 0.950 . S
H3176 C3186 0.950 . S
H3177 C3188 0.950 . S
H3178 C3190 0.950 . S
H3179 C3191 0.950 . S
C3180 H3172 0.950 . S
C3180 C3181 1.386 . S
C3180 C3182 1.391 . S
C3181 C3180 1.386 . S
C3181 C3185 1.393 . S
C3182 H3174 0.950 . S
C3182 C3180 1.391 . S
C3182 C3183 1.400 . S
C3183 C3182 1.400 . S
C3183 C3184 1.398 . S
C3183 C3189 1.491 . S
C3184 H3175 0.950 . S
C3184 C3183 1.398 . S
C3184 C3185 1.391 . S
C3185 H3173 0.950 . S
C3185 C3181 1.393 . S
C3185 C3184 1.391 . S
C3186 H3176 0.950 . S
C3186 C3187 1.386 . S
C3186 C3188 1.391 . S
C3187 C3186 1.386 . S
C3187 C3191 1.393 . S
C3188 H3177 0.950 . S
C3188 C3186 1.391 . S
C3188 C3189 1.400 . S
C3189 C3183 1.491 . S
C3189 C3188 1.400 . S
C3189 C3190 1.398 . S
C3190 H3178 0.950 . S
C3190 C3189 1.398 . S
C3190 C3191 1.391 . S
C3191 H3179 0.950 . S
C3191 C3187 1.393 . S
C3191 C3190 1.391 . S
H3192 C3200 0.950 . S
H3193 C3205 0.950 . S
H3194 C3202 0.950 . S
H3195 C3204 0.950 . S
H3196 C3206 0.950 . S
H3197 C3208 0.950 . S
H3198 C3210 0.950 . S
H3199 C3211 0.950 . S
C3200 H3192 0.950 . S
C3200 C3201 1.386 . S
C3200 C3202 1.391 . S
C3201 C3200 1.386 . S
C3201 C3205 1.393 . S
C3202 H3194 0.950 . S
C3202 C3200 1.391 . S
C3202 C3203 1.400 . S
C3203 C3202 1.400 . S
C3203 C3204 1.398 . S
C3203 C3209 1.491 . S
C3204 H3195 0.950 . S
C3204 C3203 1.398 . S
C3204 C3205 1.391 . S
C3205 H3193 0.950 . S
C3205 C3201 1.393 . S
C3205 C3204 1.391 . S
C3206 H3196 0.950 . S
C3206 C3207 1.386 . S
C3206 C3208 1.391 . S
C3207 C3206 1.386 . S
C3207 C3211 1.393 . S
C3208 H3197 0.950 . S
C3208 C3206 1.391 . S
C3208 C3209 1.400 . S
C3209 C3203 1.491 . S
C3209 C3208 1.400 . S
C3209 C3210 1.398 . S
C3210 H3198 0.950 . S
C3210 C3209 1.398 . S
C3210 C3211 1.391 . S
C3211 H3199 0.950 . S
C3211 C3207 1.393 . S
C3211 C3210 1.391 . S
H3212 C3220 0.950 . S
H3213 C3225 0.950 . S
H3214 C3222 0.950 . S
H3215 C3224 0.950 . S
H3216 C3226 0.950 . S
H3217 C3228 0.950 . S
H3218 C3230 0.950 . S
H3219 C3231 0.950 . S
C3220 H3212 0.950 . S
C3220 C3221 1.386 . S
C3220 C3222 1.391 . S
C3221 C3220 1.386 . S
C3221 C3225 1.393 . S
C3222 H3214 0.950 . S
C3222 C3220 1.391 . S
C3222 C3223 1.400 . S
C3223 C3222 1.400 . S
C3223 C3224 1.398 . S
C3223 C3229 1.491 . S
C3224 H3215 0.950 . S
C3224 C3223 1.398 . S
C3224 C3225 1.391 . S
C3225 H3213 0.950 . S
C3225 C3221 1.393 . S
C3225 C3224 1.391 . S
C3226 H3216 0.950 . S
C3226 C3227 1.386 . S
C3226 C3228 1.391 . S
C3227 C3226 1.386 . S
C3227 C3231 1.393 . S
C3228 H3217 0.950 . S
C3228 C3226 1.391 . S
C3228 C3229 1.400 . S
C3229 C3223 1.491 . S
C3229 C3228 1.400 . S
C3229 C3230 1.398 . S
C3230 H3218 0.950 . S
C3230 C3229 1.398 . S
C3230 C3231 1.391 . S
C3231 H3219 0.950 . S
C3231 C3227 1.393 . S
C3231 C3230 1.391 . S
H3232 C3240 0.950 . S
H3233 C3245 0.950 . S
H3234 C3242 0.950 . S
H3235 C3244 0.950 . S
H3236 C3246 0.950 . S
H3237 C3248 0.950 . S
H3238 C3250 0.950 . S
H3239 C3251 0.950 . S
C3240 H3232 0.950 . S
C3240 C3241 1.386 . S
C3240 C3242 1.391 . S
C3241 C3240 1.386 . S
C3241 C3245 1.393 . S
C3242 H3234 0.950 . S
C3242 C3240 1.391 . S
C3242 C3243 1.400 . S
C3243 C3242 1.400 . S
C3243 C3244 1.398 . S
C3243 C3249 1.491 . S
C3244 H3235 0.950 . S
C3244 C3243 1.398 . S
C3244 C3245 1.391 . S
C3245 H3233 0.950 . S
C3245 C3241 1.393 . S
C3245 C3244 1.391 . S
C3246 H3236 0.950 . S
C3246 C3247 1.386 . S
C3246 C3248 1.391 . S
C3247 C3246 1.386 . S
C3247 C3251 1.393 . S
C3248 H3237 0.950 . S
C3248 C3246 1.391 . S
C3248 C3249 1.400 . S
C3249 C3243 1.491 . S
C3249 C3248 1.400 . S
C3249 C3250 1.398 . S
C3250 H3238 0.950 . S
C3250 C3249 1.398 . S
C3250 C3251 1.391 . S
C3251 H3239 0.950 . S
C3251 C3247 1.393 . S
C3251 C3250 1.391 . S
H3252 C3260 0.950 . S
H3253 C3265 0.950 . S
H3254 C3262 0.950 . S
H3255 C3264 0.950 . S
H3256 C3266 0.950 . S
H3257 C3268 0.950 . S
H3258 C3270 0.950 . S
H3259 C3271 0.950 . S
C3260 H3252 0.950 . S
C3260 C3261 1.386 . S
C3260 C3262 1.391 . S
C3261 C3260 1.386 . S
C3261 C3265 1.393 . S
C3262 H3254 0.950 . S
C3262 C3260 1.391 . S
C3262 C3263 1.400 . S
C3263 C3262 1.400 . S
C3263 C3264 1.398 . S
C3263 C3269 1.491 . S
C3264 H3255 0.950 . S
C3264 C3263 1.398 . S
C3264 C3265 1.391 . S
C3265 H3253 0.950 . S
C3265 C3261 1.393 . S
C3265 C3264 1.391 . S
C3266 H3256 0.950 . S
C3266 C3267 1.386 . S
C3266 C3268 1.391 . S
C3267 C3266 1.386 . S
C3267 C3271 1.393 . S
C3268 H3257 0.950 . S
C3268 C3266 1.391 . S
C3268 C3269 1.400 . S
C3269 C3263 1.491 . S
C3269 C3268 1.400 . S
C3269 C3270 1.398 . S
C3270 H3258 0.950 . S
C3270 C3269 1.398 . S
C3270 C3271 1.391 . S
C3271 H3259 0.950 . S
C3271 C3267 1.393 . S
C3271 C3270 1.391 . S
H3272 C3280 0.950 . S
H3273 C3285 0.950 . S
H3274 C3282 0.950 . S
H3275 C3284 0.950 . S
H3276 C3286 0.950 . S
H3277 C3288 0.950 . S
H3278 C3290 0.950 . S
H3279 C3291 0.950 . S
C3280 H3272 0.950 . S
C3280 C3281 1.386 . S
C3280 C3282 1.391 . S
C3281 C3280 1.386 . S
C3281 C3285 1.393 . S
C3282 H3274 0.950 . S
C3282 C3280 1.391 . S
C3282 C3283 1.400 . S
C3283 C3282 1.400 . S
C3283 C3284 1.398 . S
C3283 C3289 1.491 . S
C3284 H3275 0.950 . S
C3284 C3283 1.398 . S
C3284 C3285 1.391 . S
C3285 H3273 0.950 . S
C3285 C3281 1.393 . S
C3285 C3284 1.391 . S
C3286 H3276 0.950 . S
C3286 C3287 1.386 . S
C3286 C3288 1.391 . S
C3287 C3286 1.386 . S
C3287 C3291 1.393 . S
C3288 H3277 0.950 . S
C3288 C3286 1.391 . S
C3288 C3289 1.400 . S
C3289 C3283 1.491 . S
C3289 C3288 1.400 . S
C3289 C3290 1.398 . S
C3290 H3278 0.950 . S
C3290 C3289 1.398 . S
C3290 C3291 1.391 . S
C3291 H3279 0.950 . S
C3291 C3287 1.393 . S
C3291 C3290 1.391 . S
H3292 C3300 0.950 . S
H3293 C3305 0.950 . S
H3294 C3302 0.950 . S
H3295 C3304 0.950 . S
H3296 C3306 0.950 . S
H3297 C3308 0.950 . S
H3298 C3310 0.950 . S
H3299 C3311 0.950 . S
C3300 H3292 0.950 . S
C3300 C3301 1.386 . S
C3300 C3302 1.391 . S
C3301 C3300 1.386 . S
C3301 C3305 1.393 . S
C3302 H3294 0.950 . S
C3302 C3300 1.391 . S
C3302 C3303 1.400 . S
C3303 C3302 1.400 . S
C3303 C3304 1.398 . S
C3303 C3309 1.491 . S
C3304 H3295 0.950 . S
C3304 C3303 1.398 . S
C3304 C3305 1.391 . S
C3305 H3293 0.950 . S
C3305 C3301 1.393 . S
C3305 C3304 1.391 . S
C3306 H3296 0.950 . S
C3306 C3307 1.386 . S
C3306 C3308 1.391 . S
C3307 C3306 1.386 . S
C3307 C3311 1.393 . S
C3308 H3297 0.950 . S
C3308 C3306 1.391 . S
C3308 C3309 1.400 . S
C3309 C3303 1.491 . S
C3309 C3308 1.400 . S
C3309 C3310 1.398 . S
C3310 H3298 0.950 . S
C3310 C3309 1.398 . S
C3310 C3311 1.391 . S
C3311 H3299 0.950 . S
C3311 C3307 1.393 . S
C3311 C3310 1.391 . S
H3312 C3320 0.950 . S
H3313 C3325 0.950 . S
H3314 C3322 0.950 . S
H3315 C3324 0.950 . S
H3316 C3326 0.950 . S
H3317 C3328 0.950 . S
H3318 C3330 0.950 . S
H3319 C3331 0.950 . S
C3320 H3312 0.950 . S
C3320 C3321 1.386 . S
C3320 C3322 1.391 . S
C3321 C3320 1.386 . S
C3321 C3325 1.393 . S
C3322 H3314 0.950 . S
C3322 C3320 1.391 . S
C3322 C3323 1.400 . S
C3323 C3322 1.400 . S
C3323 C3324 1.398 . S
C3323 C3329 1.491 . S
C3324 H3315 0.950 . S
C3324 C3323 1.398 . S
C3324 C3325 1.391 . S
C3325 H3313 0.950 . S
C3325 C3321 1.393 . S
C3325 C3324 1.391 . S
C3326 H3316 0.950 . S
C3326 C3327 1.386 . S
C3326 C3328 1.391 . S
C3327 C3326 1.386 . S
C3327 C3331 1.393 . S
C3328 H3317 0.950 . S
C3328 C3326 1.391 . S
C3328 C3329 1.400 . S
C3329 C3323 1.491 . S
C3329 C3328 1.400 . S
C3329 C3330 1.398 . S
C3330 H3318 0.950 . S
C3330 C3329 1.398 . S
C3330 C3331 1.391 . S
C3331 H3319 0.950 . S
C3331 C3327 1.393 . S
C3331 C3330 1.391 . S
H3332 C3340 0.950 . S
H3333 C3345 0.950 . S
H3334 C3342 0.950 . S
H3335 C3344 0.950 . S
H3336 C3346 0.950 . S
H3337 C3348 0.950 . S
H3338 C3350 0.950 . S
H3339 C3351 0.950 . S
C3340 H3332 0.950 . S
C3340 C3341 1.386 . S
C3340 C3342 1.391 . S
C3341 C3340 1.386 . S
C3341 C3345 1.393 . S
C3342 H3334 0.950 . S
C3342 C3340 1.391 . S
C3342 C3343 1.400 . S
C3343 C3342 1.400 . S
C3343 C3344 1.398 . S
C3343 C3349 1.491 . S
C3344 H3335 0.950 . S
C3344 C3343 1.398 . S
C3344 C3345 1.391 . S
C3345 H3333 0.950 . S
C3345 C3341 1.393 . S
C3345 C3344 1.391 . S
C3346 H3336 0.950 . S
C3346 C3347 1.386 . S
C3346 C3348 1.391 . S
C3347 C3346 1.386 . S
C3347 C3351 1.393 . S
C3348 H3337 0.950 . S
C3348 C3346 1.391 . S
C3348 C3349 1.400 . S
C3349 C3343 1.491 . S
C3349 C3348 1.400 . S
C3349 C3350 1.398 . S
C3350 H3338 0.950 . S
C3350 C3349 1.398 . S
C3350 C3351 1.391 . S
C3351 H3339 0.950 . S
C3351 C3347 1.393 . S
C3351 C3350 1.391 . S
H3352 C3360 0.950 . S
H3353 C3365 0.950 . S
H3354 C3362 0.950 . S
H3355 C3364 0.950 . S
H3356 C3366 0.950 . S
H3357 C3368 0.950 . S
H3358 C3370 0.950 . S
H3359 C3371 0.950 . S
C3360 H3352 0.950 . S
C3360 C3361 1.386 . S
C3360 C3362 1.391 . S
C3361 C3360 1.386 . S
C3361 C3365 1.393 . S
C3362 H3354 0.950 . S
C3362 C3360 1.391 . S
C3362 C3363 1.400 . S
C3363 C3362 1.400 . S
C3363 C3364 1.398 . S
C3363 C3369 1.491 . S
C3364 H3355 0.950 . S
C3364 C3363 1.398 . S
C3364 C3365 1.391 . S
C3365 H3353 0.950 . S
C3365 C3361 1.393 . S
C3365 C3364 1.391 . S
C3366 H3356 0.950 . S
C3366 C3367 1.386 . S
C3366 C3368 1.391 . S
C3367 C3366 1.386 . S
C3367 C3371 1.393 . S
C3368 H3357 0.950 . S
C3368 C3366 1.391 . S
C3368 C3369 1.400 . S
C3369 C3363 1.491 . S
C3369 C3368 1.400 . S
C3369 C3370 1.398 . S
C3370 H3358 0.950 . S
C3370 C3369 1.398 . S
C3370 C3371 1.391 . S
C3371 H3359 0.950 . S
C3371 C3367 1.393 . S
C3371 C3370 1.391 . S
H3372 C3380 0.950 . S
H3373 C3385 0.950 . S
H3374 C3382 0.950 . S
H3375 C3384 0.950 . S
H3376 C3386 0.950 . S
H3377 C3388 0.950 . S
H3378 C3390 0.950 . S
H3379 C3391 0.950 . S
C3380 H3372 0.950 . S
C3380 C3381 1.386 . S
C3380 C3382 1.391 . S
C3381 C3380 1.386 . S
C3381 C3385 1.393 . S
C3382 H3374 0.950 . S
C3382 C3380 1.391 . S
C3382 C3383 1.400 . S
C3383 C3382 1.400 . S
C3383 C3384 1.398 . S
C3383 C3389 1.491 . S
C3384 H3375 0.950 . S
C3384 C3383 1.398 . S
C3384 C3385 1.391 . S
C3385 H3373 0.950 . S
C3385 C3381 1.393 . S
C3385 C3384 1.391 . S
C3386 H3376 0.950 . S
C3386 C3387 1.386 . S
C3386 C3388 1.391 . S
C3387 C3386 1.386 . S
C3387 C3391 1.393 . S
C3388 H3377 0.950 . S
C3388 C3386 1.391 . S
C3388 C3389 1.400 . S
C3389 C3383 1.491 . S
C3389 C3388 1.400 . S
C3389 C3390 1.398 . S
C3390 H3378 0.950 . S
C3390 C3389 1.398 . S
C3390 C3391 1.391 . S
C3391 H3379 0.950 . S
C3391 C3387 1.393 . S
C3391 C3390 1.391 . S
H3392 C3400 0.950 . S
H3393 C3405 0.950 . S
H3394 C3402 0.950 . S
H3395 C3404 0.950 . S
H3396 C3406 0.950 . S
H3397 C3408 0.950 . S
H3398 C3410 0.950 . S
H3399 C3411 0.950 . S
C3400 H3392 0.950 . S
C3400 C3401 1.386 . S
C3400 C3402 1.391 . S
C3401 C3400 1.386 . S
C3401 C3405 1.393 . S
C3402 H3394 0.950 . S
C3402 C3400 1.391 . S
C3402 C3403 1.400 . S
C3403 C3402 1.400 . S
C3403 C3404 1.398 . S
C3403 C3409 1.491 . S
C3404 H3395 0.950 . S
C3404 C3403 1.398 . S
C3404 C3405 1.391 . S
C3405 H3393 0.950 . S
C3405 C3401 1.393 . S
C3405 C3404 1.391 . S
C3406 H3396 0.950 . S
C3406 C3407 1.386 . S
C3406 C3408 1.391 . S
C3407 C3406 1.386 . S
C3407 C3411 1.393 . S
C3408 H3397 0.950 . S
C3408 C3406 1.391 . S
C3408 C3409 1.400 . S
C3409 C3403 1.491 . S
C3409 C3408 1.400 . S
C3409 C3410 1.398 . S
C3410 H3398 0.950 . S
C3410 C3409 1.398 . S
C3410 C3411 1.391 . S
C3411 H3399 0.950 . S
C3411 C3407 1.393 . S
C3411 C3410 1.391 . S
H3412 C3420 0.950 . S
H3413 C3425 0.950 . S
H3414 C3422 0.950 . S
H3415 C3424 0.950 . S
H3416 C3426 0.950 . S
H3417 C3428 0.950 . S
H3418 C3430 0.950 . S
H3419 C3431 0.950 . S
C3420 H3412 0.950 . S
C3420 C3421 1.386 . S
C3420 C3422 1.391 . S
C3421 C3420 1.386 . S
C3421 C3425 1.393 . S
C3422 H3414 0.950 . S
C3422 C3420 1.391 . S
C3422 C3423 1.400 . S
C3423 C3422 1.400 . S
C3423 C3424 1.398 . S
C3423 C3429 1.491 . S
C3424 H3415 0.950 . S
C3424 C3423 1.398 . S
C3424 C3425 1.391 . S
C3425 H3413 0.950 . S
C3425 C3421 1.393 . S
C3425 C3424 1.391 . S
C3426 H3416 0.950 . S
C3426 C3427 1.386 . S
C3426 C3428 1.391 . S
C3427 C3426 1.386 . S
C3427 C3431 1.393 . S
C3428 H3417 0.950 . S
C3428 C3426 1.391 . S
C3428 C3429 1.400 . S
C3429 C3423 1.491 . S
C3429 C3428 1.400 . S
C3429 C3430 1.398 . S
C3430 H3418 0.950 . S
C3430 C3429 1.398 . S
C3430 C3431 1.391 . S
C3431 H3419 0.950 . S
C3431 C3427 1.393 . S
C3431 C3430 1.391 . S
H3432 C3440 0.950 . S
H3433 C3445 0.950 . S
H3434 C3442 0.950 . S
H3435 C3444 0.950 . S
H3436 C3446 0.950 . S
H3437 C3448 0.950 . S
H3438 C3450 0.950 . S
H3439 C3451 0.950 . S
C3440 H3432 0.950 . S
C3440 C3441 1.386 . S
C3440 C3442 1.391 . S
C3441 C3440 1.386 . S
C3441 C3445 1.393 . S
C3442 H3434 0.950 . S
C3442 C3440 1.391 . S
C3442 C3443 1.400 . S
C3443 C3442 1.400 . S
C3443 C3444 1.398 . S
C3443 C3449 1.491 . S
C3444 H3435 0.950 . S
C3444 C3443 1.398 . S
C3444 C3445 1.391 . S
C3445 H3433 0.950 . S
C3445 C3441 1.393 . S
C3445 C3444 1.391 . S
C3446 H3436 0.950 . S
C3446 C3447 1.386 . S
C3446 C3448 1.391 . S
C3447 C3446 1.386 . S
C3447 C3451 1.393 . S
C3448 H3437 0.950 . S
C3448 C3446 1.391 . S
C3448 C3449 1.400 . S
C3449 C3443 1.491 . S
C3449 C3448 1.400 . S
C3449 C3450 1.398 . S
C3450 H3438 0.950 . S
C3450 C3449 1.398 . S
C3450 C3451 1.391 . S
C3451 H3439 0.950 . S
C3451 C3447 1.393 . S
C3451 C3450 1.391 . S
H3452 C3460 0.950 . S
H3453 C3465 0.950 . S
H3454 C3462 0.950 . S
H3455 C3464 0.950 . S
H3456 C3466 0.950 . S
H3457 C3468 0.950 . S
H3458 C3470 0.950 . S
H3459 C3471 0.950 . S
C3460 H3452 0.950 . S
C3460 C3461 1.386 . S
C3460 C3462 1.391 . S
C3461 C3460 1.386 . S
C3461 C3465 1.393 . S
C3462 H3454 0.950 . S
C3462 C3460 1.391 . S
C3462 C3463 1.400 . S
C3463 C3462 1.400 . S
C3463 C3464 1.398 . S
C3463 C3469 1.491 . S
C3464 H3455 0.950 . S
C3464 C3463 1.398 . S
C3464 C3465 1.391 . S
C3465 H3453 0.950 . S
C3465 C3461 1.393 . S
C3465 C3464 1.391 . S
C3466 H3456 0.950 . S
C3466 C3467 1.386 . S
C3466 C3468 1.391 . S
C3467 C3466 1.386 . S
C3467 C3471 1.393 . S
C3468 H3457 0.950 . S
C3468 C3466 1.391 . S
C3468 C3469 1.400 . S
C3469 C3463 1.491 . S
C3469 C3468 1.400 . S
C3469 C3470 1.398 . S
C3470 H3458 0.950 . S
C3470 C3469 1.398 . S
C3470 C3471 1.391 . S
C3471 H3459 0.950 . S
C3471 C3467 1.393 . S
C3471 C3470 1.391 . S
H3472 C3480 0.950 . S
H3473 C3485 0.950 . S
H3474 C3482 0.950 . S
H3475 C3484 0.950 . S
H3476 C3486 0.950 . S
H3477 C3488 0.950 . S
H3478 C3490 0.950 . S
H3479 C3491 0.950 . S
C3480 H3472 0.950 . S
C3480 C3481 1.386 . S
C3480 C3482 1.391 . S
C3481 C3480 1.386 . S
C3481 C3485 1.393 . S
C3482 H3474 0.950 . S
C3482 C3480 1.391 . S
C3482 C3483 1.400 . S
C3483 C3482 1.400 . S
C3483 C3484 1.398 . S
C3483 C3489 1.491 . S
C3484 H3475 0.950 . S
C3484 C3483 1.398 . S
C3484 C3485 1.391 . S
C3485 H3473 0.950 . S
C3485 C3481 1.393 . S
C3485 C3484 1.391 . S
C3486 H3476 0.950 . S
C3486 C3487 1.386 . S
C3486 C3488 1.391 . S
C3487 C3486 1.386 . S
C3487 C3491 1.393 . S
C3488 H3477 0.950 . S
C3488 C3486 1.391 . S
C3488 C3489 1.400 . S
C3489 C3483 1.491 . S
C3489 C3488 1.400 . S
C3489 C3490 1.398 . S
C3490 H3478 0.950 . S
C3490 C3489 1.398 . S
C3490 C3491 1.391 . S
C3491 H3479 0.950 . S
C3491 C3487 1.393 . S
C3491 C3490 1.391 . S
H3492 C3500 0.950 . S
H3493 C3505 0.950 . S
H3494 C3502 0.950 . S
H3495 C3504 0.950 . S
H3496 C3506 0.950 . S
H3497 C3508 0.950 . S
H3498 C3510 0.950 . S
H3499 C3511 0.950 . S
C3500 H3492 0.950 . S
C3500 C3501 1.386 . S
C3500 C3502 1.391 . S
C3501 C3500 1.386 . S
C3501 C3505 1.393 . S
C3502 H3494 0.950 . S
C3502 C3500 1.391 . S
C3502 C3503 1.400 . S
C3503 C3502 1.400 . S
C3503 C3504 1.398 . S
C3503 C3509 1.491 . S
C3504 H3495 0.950 . S
C3504 C3503 1.398 . S
C3504 C3505 1.391 . S
C3505 H3493 0.950 . S
C3505 C3501 1.393 . S
C3505 C3504 1.391 . S
C3506 H3496 0.950 . S
C3506 C3507 1.386 . S
C3506 C3508 1.391 . S
C3507 C3506 1.386 . S
C3507 C3511 1.393 . S
C3508 H3497 0.950 . S
C3508 C3506 1.391 . S
C3508 C3509 1.400 . S
C3509 C3503 1.491 . S
C3509 C3508 1.400 . S
C3509 C3510 1.398 . S
C3510 H3498 0.950 . S
C3510 C3509 1.398 . S
C3510 C3511 1.391 . S
C3511 H3499 0.950 . S
C3511 C3507 1.393 . S
C3511 C3510 1.391 . S
H3512 C3520 0.950 . S
H3513 C3525 0.950 . S
H3514 C3522 0.950 . S
H3515 C3524 0.950 . S
H3516 C3526 0.950 . S
H3517 C3528 0.950 . S
H3518 C3530 0.950 . S
H3519 C3531 0.950 . S
C3520 H3512 0.950 . S
C3520 C3521 1.386 . S
C3520 C3522 1.391 . S
C3521 C3520 1.386 . S
C3521 C3525 1.393 . S
C3522 H3514 0.950 . S
C3522 C3520 1.391 . S
C3522 C3523 1.400 . S
C3523 C3522 1.400 . S
C3523 C3524 1.398 . S
C3523 C3529 1.491 . S
C3524 H3515 0.950 . S
C3524 C3523 1.398 . S
C3524 C3525 1.391 . S
C3525 H3513 0.950 . S
C3525 C3521 1.393 . S
C3525 C3524 1.391 . S
C3526 H3516 0.950 . S
C3526 C3527 1.386 . S
C3526 C3528 1.391 . S
C3527 C3526 1.386 . S
C3527 C3531 1.393 . S
C3528 H3517 0.950 . S
C3528 C3526 1.391 . S
C3528 C3529 1.400 . S
C3529 C3523 1.491 . S
C3529 C3528 1.400 . S
C3529 C3530 1.398 . S
C3530 H3518 0.950 . S
C3530 C3529 1.398 . S
C3530 C3531 1.391 . S
C3531 H3519 0.950 . S
C3531 C3527 1.393 . S
C3531 C3530 1.391 . S
H3532 C3540 0.950 . S
H3533 C3545 0.950 . S
H3534 C3542 0.950 . S
H3535 C3544 0.950 . S
H3536 C3546 0.950 . S
H3537 C3548 0.950 . S
H3538 C3550 0.950 . S
H3539 C3551 0.950 . S
C3540 H3532 0.950 . S
C3540 C3541 1.386 . S
C3540 C3542 1.391 . S
C3541 C3540 1.386 . S
C3541 C3545 1.393 . S
C3542 H3534 0.950 . S
C3542 C3540 1.391 . S
C3542 C3543 1.400 . S
C3543 C3542 1.400 . S
C3543 C3544 1.398 . S
C3543 C3549 1.491 . S
C3544 H3535 0.950 . S
C3544 C3543 1.398 . S
C3544 C3545 1.391 . S
C3545 H3533 0.950 . S
C3545 C3541 1.393 . S
C3545 C3544 1.391 . S
C3546 H3536 0.950 . S
C3546 C3547 1.386 . S
C3546 C3548 1.391 . S
C3547 C3546 1.386 . S
C3547 C3551 1.393 . S
C3548 H3537 0.950 . S
C3548 C3546 1.391 . S
C3548 C3549 1.400 . S
C3549 C3543 1.491 . S
C3549 C3548 1.400 . S
C3549 C3550 1.398 . S
C3550 H3538 0.950 . S
C3550 C3549 1.398 . S
C3550 C3551 1.391 . S
C3551 H3539 0.950 . S
C3551 C3547 1.393 . S
C3551 C3550 1.391 . S
H3552 C3560 0.950 . S
H3553 C3565 0.950 . S
H3554 C3562 0.950 . S
H3555 C3564 0.950 . S
H3556 C3566 0.950 . S
H3557 C3568 0.950 . S
H3558 C3570 0.950 . S
H3559 C3571 0.950 . S
C3560 H3552 0.950 . S
C3560 C3561 1.386 . S
C3560 C3562 1.391 . S
C3561 C3560 1.386 . S
C3561 C3565 1.393 . S
C3562 H3554 0.950 . S
C3562 C3560 1.391 . S
C3562 C3563 1.400 . S
C3563 C3562 1.400 . S
C3563 C3564 1.398 . S
C3563 C3569 1.491 . S
C3564 H3555 0.950 . S
C3564 C3563 1.398 . S
C3564 C3565 1.391 . S
C3565 H3553 0.950 . S
C3565 C3561 1.393 . S
C3565 C3564 1.391 . S
C3566 H3556 0.950 . S
C3566 C3567 1.386 . S
C3566 C3568 1.391 . S
C3567 C3566 1.386 . S
C3567 C3571 1.393 . S
C3568 H3557 0.950 . S
C3568 C3566 1.391 . S
C3568 C3569 1.400 . S
C3569 C3563 1.491 . S
C3569 C3568 1.400 . S
C3569 C3570 1.398 . S
C3570 H3558 0.950 . S
C3570 C3569 1.398 . S
C3570 C3571 1.391 . S
C3571 H3559 0.950 . S
C3571 C3567 1.393 . S
C3571 C3570 1.391 . S
H3572 C3580 0.950 . S
H3573 C3585 0.950 . S
H3574 C3582 0.950 . S
H3575 C3584 0.950 . S
H3576 C3586 0.950 . S
H3577 C3588 0.950 . S
H3578 C3590 0.950 . S
H3579 C3591 0.950 . S
C3580 H3572 0.950 . S
C3580 C3581 1.386 . S
C3580 C3582 1.391 . S
C3581 C3580 1.386 . S
C3581 C3585 1.393 . S
C3582 H3574 0.950 . S
C3582 C3580 1.391 . S
C3582 C3583 1.400 . S
C3583 C3582 1.400 . S
C3583 C3584 1.398 . S
C3583 C3589 1.491 . S
C3584 H3575 0.950 . S
C3584 C3583 1.398 . S
C3584 C3585 1.391 . S
C3585 H3573 0.950 . S
C3585 C3581 1.393 . S
C3585 C3584 1.391 . S
C3586 H3576 0.950 . S
C3586 C3587 1.386 . S
C3586 C3588 1.391 . S
C3587 C3586 1.386 . S
C3587 C3591 1.393 . S
C3588 H3577 0.950 . S
C3588 C3586 1.391 . S
C3588 C3589 1.400 . S
C3589 C3583 1.491 . S
C3589 C3588 1.400 . S
C3589 C3590 1.398 . S
C3590 H3578 0.950 . S
C3590 C3589 1.398 . S
C3590 C3591 1.391 . S
C3591 H3579 0.950 . S
C3591 C3587 1.393 . S
C3591 C3590 1.391 . S
H3592 C3600 0.950 . S
H3593 C3605 0.950 . S
H3594 C3602 0.950 . S
H3595 C3604 0.950 . S
H3596 C3606 0.950 . S
H3597 C3608 0.950 . S
H3598 C3610 0.950 . S
H3599 C3611 0.950 . S
C3600 H3592 0.950 . S
C3600 C3601 1.386 . S
C3600 C3602 1.391 . S
C3601 C3600 1.386 . S
C3601 C3605 1.393 . S
C3602 H3594 0.950 . S
C3602 C3600 1.391 . S
C3602 C3603 1.400 . S
C3603 C3602 1.400 . S
C3603 C3604 1.398 . S
C3603 C3609 1.491 . S
C3604 H3595 0.950 . S
C3604 C3603 1.398 . S
C3604 C3605 1.391 . S
C3605 H3593 0.950 . S
C3605 C3601 1.393 . S
C3605 C3604 1.391 . S
C3606 H3596 0.950 . S
C3606 C3607 1.386 . S
C3606 C3608 1.391 . S
C3607 C3606 1.386 . S
C3607 C3611 1.393 . S
C3608 H3597 0.950 . S
C3608 C3606 1.391 . S
C3608 C3609 1.400 . S
C3609 C3603 1.491 . S
C3609 C3608 1.400 . S
C3609 C3610 1.398 . S
C3610 H3598 0.950 . S
C3610 C3609 1.398 . S
C3610 C3611 1.391 . S
C3611 H3599 0.950 . S
C3611 C3607 1.393 . S
C3611 C3610 1.391 . S
H3612 C3620 0.950 . S
H3613 C3625 0.950 . S
H3614 C3622 0.950 . S
H3615 C3624 0.950 . S
H3616 C3626 0.950 . S
H3617 C3628 0.950 . S
H3618 C3630 0.950 . S
H3619 C3631 0.950 . S
C3620 H3612 0.950 . S
C3620 C3621 1.386 . S
C3620 C3622 1.391 . S
C3621 C3620 1.386 . S
C3621 C3625 1.393 . S
C3622 H3614 0.950 . S
C3622 C3620 1.391 . S
C3622 C3623 1.400 . S
C3623 C3622 1.400 . S
C3623 C3624 1.398 . S
C3623 C3629 1.491 . S
C3624 H3615 0.950 . S
C3624 C3623 1.398 . S
C3624 C3625 1.391 . S
C3625 H3613 0.950 . S
C3625 C3621 1.393 . S
C3625 C3624 1.391 . S
C3626 H3616 0.950 . S
C3626 C3627 1.386 . S
C3626 C3628 1.391 . S
C3627 C3626 1.386 . S
C3627 C3631 1.393 . S
C3628 H3617 0.950 . S
C3628 C3626 1.391 . S
C3628 C3629 1.400 . S
C3629 C3623 1.491 . S
C3629 C3628 1.400 . S
C3629 C3630 1.398 . S
C3630 H3618 0.950 . S
C3630 C3629 1.398 . S
C3630 C3631 1.391 . S
C3631 H3619 0.950 . S
C3631 C3627 1.393 . S
C3631 C3630 1.391 . S
H3632 C3640 0.950 . S
H3633 C3645 0.950 . S
H3634 C3642 0.950 . S
H3635 C3644 0.950 . S
H3636 C3646 0.950 . S
H3637 C3648 0.950 . S
H3638 C3650 0.950 . S
H3639 C3651 0.950 . S
C3640 H3632 0.950 . S
C3640 C3641 1.386 . S
C3640 C3642 1.391 . S
C3641 C3640 1.386 . S
C3641 C3645 1.393 . S
C3642 H3634 0.950 . S
C3642 C3640 1.391 . S
C3642 C3643 1.400 . S
C3643 C3642 1.400 . S
C3643 C3644 1.398 . S
C3643 C3649 1.491 . S
C3644 H3635 0.950 . S
C3644 C3643 1.398 . S
C3644 C3645 1.391 . S
C3645 H3633 0.950 . S
C3645 C3641 1.393 . S
C3645 C3644 1.391 . S
C3646 H3636 0.950 . S
C3646 C3647 1.386 . S
C3646 C3648 1.391 . S
C3647 C3646 1.386 . S
C3647 C3651 1.393 . S
C3648 H3637 0.950 . S
C3648 C3646 1.391 . S
C3648 C3649 1.400 . S
C3649 C3643 1.491 . S
C3649 C3648 1.400 . S
C3649 C3650 1.398 . S
C3650 H3638 0.950 . S
C3650 C3649 1.398 . S
C3650 C3651 1.391 . S
C3651 H3639 0.950 . S
C3651 C3647 1.393 . S
C3651 C3650 1.391 . S
H3652 C3660 0.950 . S
H3653 C3665 0.950 . S
H3654 C3662 0.950 . S
H3655 C3664 0.950 . S
H3656 C3666 0.950 . S
H3657 C3668 0.950 . S
H3658 C3670 0.950 . S
H3659 C3671 0.950 . S
C3660 H3652 0.950 . S
C3660 C3661 1.386 . S
C3660 C3662 1.391 . S
C3661 C3660 1.386 . S
C3661 C3665 1.393 . S
C3662 H3654 0.950 . S
C3662 C3660 1.391 . S
C3662 C3663 1.400 . S
C3663 C3662 1.400 . S
C3663 C3664 1.398 . S
C3663 C3669 1.491 . S
C3664 H3655 0.950 . S
C3664 C3663 1.398 . S
C3664 C3665 1.391 . S
C3665 H3653 0.950 . S
C3665 C3661 1.393 . S
C3665 C3664 1.391 . S
C3666 H3656 0.950 . S
C3666 C3667 1.386 . S
C3666 C3668 1.391 . S
C3667 C3666 1.386 . S
C3667 C3671 1.393 . S
C3668 H3657 0.950 . S
C3668 C3666 1.391 . S
C3668 C3669 1.400 . S
C3669 C3663 1.491 . S
C3669 C3668 1.400 . S
C3669 C3670 1.398 . S
C3670 H3658 0.950 . S
C3670 C3669 1.398 . S
C3670 C3671 1.391 . S
C3671 H3659 0.950 . S
C3671 C3667 1.393 . S
C3671 C3670 1.391 . S
H3672 C3680 0.950 . S
H3673 C3685 0.950 . S
H3674 C3682 0.950 . S
H3675 C3684 0.950 . S
H3676 C3686 0.950 . S
H3677 C3688 0.950 . S
H3678 C3690 0.950 . S
H3679 C3691 0.950 . S
C3680 H3672 0.950 . S
C3680 C3681 1.386 . S
C3680 C3682 1.391 . S
C3681 C3680 1.386 . S
C3681 C3685 1.393 . S
C3682 H3674 0.950 . S
C3682 C3680 1.391 . S
C3682 C3683 1.400 . S
C3683 C3682 1.400 . S
C3683 C3684 1.398 . S
C3683 C3689 1.491 . S
C3684 H3675 0.950 . S
C3684 C3683 1.398 . S
C3684 C3685 1.391 . S
C3685 H3673 0.950 . S
C3685 C3681 1.393 . S
C3685 C3684 1.391 . S
C3686 H3676 0.950 . S
C3686 C3687 1.386 . S
C3686 C3688 1.391 . S
C3687 C3686 1.386 . S
C3687 C3691 1.393 . S
C3688 H3677 0.950 . S
C3688 C3686 1.391 . S
C3688 C3689 1.400 . S
C3689 C3683 1.491 . S
C3689 C3688 1.400 . S
C3689 C3690 1.398 . S
C3690 H3678 0.950 . S
C3690 C3689 1.398 . S
C3690 C3691 1.391 . S
C3691 H3679 0.950 . S
C3691 C3687 1.393 . S
C3691 C3690 1.391 . S
H3692 C3700 0.950 . S
H3693 C3705 0.950 . S
H3694 C3702 0.950 . S
H3695 C3704 0.950 . S
H3696 C3706 0.950 . S
H3697 C3708 0.950 . S
H3698 C3710 0.950 . S
H3699 C3711 0.950 . S
C3700 H3692 0.950 . S
C3700 C3701 1.386 . S
C3700 C3702 1.391 . S
C3701 C3700 1.386 . S
C3701 C3705 1.393 . S
C3702 H3694 0.950 . S
C3702 C3700 1.391 . S
C3702 C3703 1.400 . S
C3703 C3702 1.400 . S
C3703 C3704 1.398 . S
C3703 C3709 1.491 . S
C3704 H3695 0.950 . S
C3704 C3703 1.398 . S
C3704 C3705 1.391 . S
C3705 H3693 0.950 . S
C3705 C3701 1.393 . S
C3705 C3704 1.391 . S
C3706 H3696 0.950 . S
C3706 C3707 1.386 . S
C3706 C3708 1.391 . S
C3707 C3706 1.386 . S
C3707 C3711 1.393 . S
C3708 H3697 0.950 . S
C3708 C3706 1.391 . S
C3708 C3709 1.400 . S
C3709 C3703 1.491 . S
C3709 C3708 1.400 . S
C3709 C3710 1.398 . S
C3710 H3698 0.950 . S
C3710 C3709 1.398 . S
C3710 C3711 1.391 . S
C3711 H3699 0.950 . S
C3711 C3707 1.393 . S
C3711 C3710 1.391 . S
H3712 C3720 0.950 . S
H3713 C3725 0.950 . S
H3714 C3722 0.950 . S
H3715 C3724 0.950 . S
H3716 C3726 0.950 . S
H3717 C3728 0.950 . S
H3718 C3730 0.950 . S
H3719 C3731 0.950 . S
C3720 H3712 0.950 . S
C3720 C3721 1.386 . S
C3720 C3722 1.391 . S
C3721 C3720 1.386 . S
C3721 C3725 1.393 . S
C3722 H3714 0.950 . S
C3722 C3720 1.391 . S
C3722 C3723 1.400 . S
C3723 C3722 1.400 . S
C3723 C3724 1.398 . S
C3723 C3729 1.491 . S
C3724 H3715 0.950 . S
C3724 C3723 1.398 . S
C3724 C3725 1.391 . S
C3725 H3713 0.950 . S
C3725 C3721 1.393 . S
C3725 C3724 1.391 . S
C3726 H3716 0.950 . S
C3726 C3727 1.386 . S
C3726 C3728 1.391 . S
C3727 C3726 1.386 . S
C3727 C3731 1.393 . S
C3728 H3717 0.950 . S
C3728 C3726 1.391 . S
C3728 C3729 1.400 . S
C3729 C3723 1.491 . S
C3729 C3728 1.400 . S
C3729 C3730 1.398 . S
C3730 H3718 0.950 . S
C3730 C3729 1.398 . S
C3730 C3731 1.391 . S
C3731 H3719 0.950 . S
C3731 C3727 1.393 . S
C3731 C3730 1.391 . S
H3732 C3740 0.950 . S
H3733 C3745 0.950 . S
H3734 C3742 0.950 . S
H3735 C3744 0.950 . S
H3736 C3746 0.950 . S
H3737 C3748 0.950 . S
H3738 C3750 0.950 . S
H3739 C3751 0.950 . S
C3740 H3732 0.950 . S
C3740 C3741 1.386 . S
C3740 C3742 1.391 . S
C3741 C3740 1.386 . S
C3741 C3745 1.393 . S
C3742 H3734 0.950 . S
C3742 C3740 1.391 . S
C3742 C3743 1.400 . S
C3743 C3742 1.400 . S
C3743 C3744 1.398 . S
C3743 C3749 1.491 . S
C3744 H3735 0.950 . S
C3744 C3743 1.398 . S
C3744 C3745 1.391 . S
C3745 H3733 0.950 . S
C3745 C3741 1.393 . S
C3745 C3744 1.391 . S
C3746 H3736 0.950 . S
C3746 C3747 1.386 . S
C3746 C3748 1.391 . S
C3747 C3746 1.386 . S
C3747 C3751 1.393 . S
C3748 H3737 0.950 . S
C3748 C3746 1.391 . S
C3748 C3749 1.400 . S
C3749 C3743 1.491 . S
C3749 C3748 1.400 . S
C3749 C3750 1.398 . S
C3750 H3738 0.950 . S
C3750 C3749 1.398 . S
C3750 C3751 1.391 . S
C3751 H3739 0.950 . S
C3751 C3747 1.393 . S
C3751 C3750 1.391 . S
H3752 C3760 0.950 . S
H3753 C3765 0.950 . S
H3754 C3762 0.950 . S
H3755 C3764 0.950 . S
H3756 C3766 0.950 . S
H3757 C3768 0.950 . S
H3758 C3770 0.950 . S
H3759 C3771 0.950 . S
C3760 H3752 0.950 . S
C3760 C3761 1.386 . S
C3760 C3762 1.391 . S
C3761 C3760 1.386 . S
C3761 C3765 1.393 . S
C3762 H3754 0.950 . S
C3762 C3760 1.391 . S
C3762 C3763 1.400 . S
C3763 C3762 1.400 . S
C3763 C3764 1.398 . S
C3763 C3769 1.491 . S
C3764 H3755 0.950 . S
C3764 C3763 1.398 . S
C3764 C3765 1.391 . S
C3765 H3753 0.950 . S
C3765 C3761 1.393 . S
C3765 C3764 1.391 . S
C3766 H3756 0.950 . S
C3766 C3767 1.386 . S
C3766 C3768 1.391 . S
C3767 C3766 1.386 . S
C3767 C3771 1.393 . S
C3768 H3757 0.950 . S
C3768 C3766 1.391 . S
C3768 C3769 1.400 . S
C3769 C3763 1.491 . S
C3769 C3768 1.400 . S
C3769 C3770 1.398 . S
C3770 H3758 0.950 . S
C3770 C3769 1.398 . S
C3770 C3771 1.391 . S
C3771 H3759 0.950 . S
C3771 C3767 1.393 . S
C3771 C3770 1.391 . S
H3772 C3780 0.950 . S
H3773 C3785 0.950 . S
H3774 C3782 0.950 . S
H3775 C3784 0.950 . S
H3776 C3786 0.950 . S
H3777 C3788 0.950 . S
H3778 C3790 0.950 . S
H3779 C3791 0.950 . S
C3780 H3772 0.950 . S
C3780 C3781 1.386 . S
C3780 C3782 1.391 . S
C3781 C3780 1.386 . S
C3781 C3785 1.393 . S
C3782 H3774 0.950 . S
C3782 C3780 1.391 . S
C3782 C3783 1.400 . S
C3783 C3782 1.400 . S
C3783 C3784 1.398 . S
C3783 C3789 1.491 . S
C3784 H3775 0.950 . S
C3784 C3783 1.398 . S
C3784 C3785 1.391 . S
C3785 H3773 0.950 . S
C3785 C3781 1.393 . S
C3785 C3784 1.391 . S
C3786 H3776 0.950 . S
C3786 C3787 1.386 . S
C3786 C3788 1.391 . S
C3787 C3786 1.386 . S
C3787 C3791 1.393 . S
C3788 H3777 0.950 . S
C3788 C3786 1.391 . S
C3788 C3789 1.400 . S
C3789 C3783 1.491 . S
C3789 C3788 1.400 . S
C3789 C3790 1.398 . S
C3790 H3778 0.950 . S
C3790 C3789 1.398 . S
C3790 C3791 1.391 . S
C3791 H3779 0.950 . S
C3791 C3787 1.393 . S
C3791 C3790 1.391 . S
H3792 C3800 0.950 . S
H3793 C3805 0.950 . S
H3794 C3802 0.950 . S
H3795 C3804 0.950 . S
H3796 C3806 0.950 . S
H3797 C3808 0.950 . S
H3798 C3810 0.950 . S
H3799 C3811 0.950 . S
C3800 H3792 0.950 . S
C3800 C3801 1.386 . S
C3800 C3802 1.391 . S
C3801 C3800 1.386 . S
C3801 C3805 1.393 . S
C3802 H3794 0.950 . S
C3802 C3800 1.391 . S
C3802 C3803 1.400 . S
C3803 C3802 1.400 . S
C3803 C3804 1.398 . S
C3803 C3809 1.491 . S
C3804 H3795 0.950 . S
C3804 C3803 1.398 . S
C3804 C3805 1.391 . S
C3805 H3793 0.950 . S
C3805 C3801 1.393 . S
C3805 C3804 1.391 . S
C3806 H3796 0.950 . S
C3806 C3807 1.386 . S
C3806 C3808 1.391 . S
C3807 C3806 1.386 . S
C3807 C3811 1.393 . S
C3808 H3797 0.950 . S
C3808 C3806 1.391 . S
C3808 C3809 1.400 . S
C3809 C3803 1.491 . S
C3809 C3808 1.400 . S
C3809 C3810 1.398 . S
C3810 H3798 0.950 . S
C3810 C3809 1.398 . S
C3810 C3811 1.391 . S
C3811 H3799 0.950 . S
C3811 C3807 1.393 . S
C3811 C3810 1.391 . S
H3812 C3820 0.950 . S
H3813 C3825 0.950 . S
H3814 C3822 0.950 . S
H3815 C3824 0.950 . S
H3816 C3826 0.950 . S
H3817 C3828 0.950 . S
H3818 C3830 0.950 . S
H3819 C3831 0.950 . S
C3820 H3812 0.950 . S
C3820 C3821 1.386 . S
C3820 C3822 1.391 . S
C3821 C3820 1.386 . S
C3821 C3825 1.393 . S
C3822 H3814 0.950 . S
C3822 C3820 1.391 . S
C3822 C3823 1.400 . S
C3823 C3822 1.400 . S
C3823 C3824 1.398 . S
C3823 C3829 1.491 . S
C3824 H3815 0.950 . S
C3824 C3823 1.398 . S
C3824 C3825 1.391 . S
C3825 H3813 0.950 . S
C3825 C3821 1.393 . S
C3825 C3824 1.391 . S
C3826 H3816 0.950 . S
C3826 C3827 1.386 . S
C3826 C3828 1.391 . S
C3827 C3826 1.386 . S
C3827 C3831 1.393 . S
C3828 H3817 0.950 . S
C3828 C3826 1.391 . S
C3828 C3829 1.400 . S
C3829 C3823 1.491 . S
C3829 C3828 1.400 . S
C3829 C3830 1.398 . S
C3830 H3818 0.950 . S
C3830 C3829 1.398 . S
C3830 C3831 1.391 . S
C3831 H3819 0.950 . S
C3831 C3827 1.393 . S
C3831 C3830 1.391 . S
H3832 C3840 0.950 . S
H3833 C3845 0.950 . S
H3834 C3842 0.950 . S
H3835 C3844 0.950 . S
H3836 C3846 0.950 . S
H3837 C3848 0.950 . S
H3838 C3850 0.950 . S
H3839 C3851 0.950 . S
C3840 H3832 0.950 . S
C3840 C3841 1.386 . S
C3840 C3842 1.391 . S
C3841 C3840 1.386 . S
C3841 C3845 1.393 . S
C3842 H3834 0.950 . S
C3842 C3840 1.391 . S
C3842 C3843 1.400 . S
C3843 C3842 1.400 . S
C3843 C3844 1.398 . S
C3843 C3849 1.491 . S
C3844 H3835 0.950 . S
C3844 C3843 1.398 . S
C3844 C3845 1.391 . S
C3845 H3833 0.950 . S
C3845 C3841 1.393 . S
C3845 C3844 1.391 . S
C3846 H3836 0.950 . S
C3846 C3847 1.386 . S
C3846 C3848 1.391 . S
C3847 C3846 1.386 . S
C3847 C3851 1.393 . S
C3848 H3837 0.950 . S
C3848 C3846 1.391 . S
C3848 C3849 1.400 . S
C3849 C3843 1.491 . S
C3849 C3848 1.400 . S
C3849 C3850 1.398 . S
C3850 H3838 0.950 . S
C3850 C3849 1.398 . S
C3850 C3851 1.391 . S
C3851 H3839 0.950 . S
C3851 C3847 1.393 . S
C3851 C3850 1.391 . S
H3852 C3860 0.950 . S
H3853 C3865 0.950 . S
H3854 C3862 0.950 . S
H3855 C3864 0.950 . S
H3856 C3866 0.950 . S
H3857 C3868 0.950 . S
H3858 C3870 0.950 . S
H3859 C3871 0.950 . S
C3860 H3852 0.950 . S
C3860 C3861 1.386 . S
C3860 C3862 1.391 . S
C3861 C3860 1.386 . S
C3861 C3865 1.393 . S
C3862 H3854 0.950 . S
C3862 C3860 1.391 . S
C3862 C3863 1.400 . S
C3863 C3862 1.400 . S
C3863 C3864 1.398 . S
C3863 C3869 1.491 . S
C3864 H3855 0.950 . S
C3864 C3863 1.398 . S
C3864 C3865 1.391 . S
C3865 H3853 0.950 . S
C3865 C3861 1.393 . S
C3865 C3864 1.391 . S
C3866 H3856 0.950 . S
C3866 C3867 1.386 . S
C3866 C3868 1.391 . S
C3867 C3866 1.386 . S
C3867 C3871 1.393 . S
C3868 H3857 0.950 . S
C3868 C3866 1.391 . S
C3868 C3869 1.400 . S
C3869 C3863 1.491 . S
C3869 C3868 1.400 . S
C3869 C3870 1.398 . S
C3870 H3858 0.950 . S
C3870 C3869 1.398 . S
C3870 C3871 1.391 . S
C3871 H3859 0.950 . S
C3871 C3867 1.393 . S
C3871 C3870 1.391 . S
H3872 C3880 0.950 . S
H3873 C3885 0.950 . S
H3874 C3882 0.950 . S
H3875 C3884 0.950 . S
H3876 C3886 0.950 . S
H3877 C3888 0.950 . S
H3878 C3890 0.950 . S
H3879 C3891 0.950 . S
C3880 H3872 0.950 . S
C3880 C3881 1.386 . S
C3880 C3882 1.391 . S
C3881 C3880 1.386 . S
C3881 C3885 1.393 . S
C3882 H3874 0.950 . S
C3882 C3880 1.391 . S
C3882 C3883 1.400 . S
C3883 C3882 1.400 . S
C3883 C3884 1.398 . S
C3883 C3889 1.491 . S
C3884 H3875 0.950 . S
C3884 C3883 1.398 . S
C3884 C3885 1.391 . S
C3885 H3873 0.950 . S
C3885 C3881 1.393 . S
C3885 C3884 1.391 . S
C3886 H3876 0.950 . S
C3886 C3887 1.386 . S
C3886 C3888 1.391 . S
C3887 C3886 1.386 . S
C3887 C3891 1.393 . S
C3888 H3877 0.950 . S
C3888 C3886 1.391 . S
C3888 C3889 1.400 . S
C3889 C3883 1.491 . S
C3889 C3888 1.400 . S
C3889 C3890 1.398 . S
C3890 H3878 0.950 . S
C3890 C3889 1.398 . S
C3890 C3891 1.391 . S
C3891 H3879 0.950 . S
C3891 C3887 1.393 . S
C3891 C3890 1.391 . S
H3892 C3900 0.950 . S
H3893 C3905 0.950 . S
H3894 C3902 0.950 . S
H3895 C3904 0.950 . S
H3896 C3906 0.950 . S
H3897 C3908 0.950 . S
H3898 C3910 0.950 . S
H3899 C3911 0.950 . S
C3900 H3892 0.950 . S
C3900 C3901 1.386 . S
C3900 C3902 1.391 . S
C3901 C3900 1.386 . S
C3901 C3905 1.393 . S
C3902 H3894 0.950 . S
C3902 C3900 1.391 . S
C3902 C3903 1.400 . S
C3903 C3902 1.400 . S
C3903 C3904 1.398 . S
C3903 C3909 1.491 . S
C3904 H3895 0.950 . S
C3904 C3903 1.398 . S
C3904 C3905 1.391 . S
C3905 H3893 0.950 . S
C3905 C3901 1.393 . S
C3905 C3904 1.391 . S
C3906 H3896 0.950 . S
C3906 C3907 1.386 . S
C3906 C3908 1.391 . S
C3907 C3906 1.386 . S
C3907 C3911 1.393 . S
C3908 H3897 0.950 . S
C3908 C3906 1.391 . S
C3908 C3909 1.400 . S
C3909 C3903 1.491 . S
C3909 C3908 1.400 . S
C3909 C3910 1.398 . S
C3910 H3898 0.950 . S
C3910 C3909 1.398 . S
C3910 C3911 1.391 . S
C3911 H3899 0.950 . S
C3911 C3907 1.393 . S
C3911 C3910 1.391 . S
H3912 C3920 0.950 . S
H3913 C3925 0.950 . S
H3914 C3922 0.950 . S
H3915 C3924 0.950 . S
H3916 C3926 0.950 . S
H3917 C3928 0.950 . S
H3918 C3930 0.950 . S
H3919 C3931 0.950 . S
C3920 H3912 0.950 . S
C3920 C3921 1.386 . S
C3920 C3922 1.391 . S
C3921 C3920 1.386 . S
C3921 C3925 1.393 . S
C3922 H3914 0.950 . S
C3922 C3920 1.391 . S
C3922 C3923 1.400 . S
C3923 C3922 1.400 . S
C3923 C3924 1.398 . S
C3923 C3929 1.491 . S
C3924 H3915 0.950 . S
C3924 C3923 1.398 . S
C3924 C3925 1.391 . S
C3925 H3913 0.950 . S
C3925 C3921 1.393 . S
C3925 C3924 1.391 . S
C3926 H3916 0.950 . S
C3926 C3927 1.386 . S
C3926 C3928 1.391 . S
C3927 C3926 1.386 . S
C3927 C3931 1.393 . S
C3928 H3917 0.950 . S
C3928 C3926 1.391 . S
C3928 C3929 1.400 . S
C3929 C3923 1.491 . S
C3929 C3928 1.400 . S
C3929 C3930 1.398 . S
C3930 H3918 0.950 . S
C3930 C3929 1.398 . S
C3930 C3931 1.391 . S
C3931 H3919 0.950 . S
C3931 C3927 1.393 . S
C3931 C3930 1.391 . S
H3932 C3940 0.950 . S
H3933 C3945 0.950 . S
H3934 C3942 0.950 . S
H3935 C3944 0.950 . S
H3936 C3946 0.950 . S
H3937 C3948 0.950 . S
H3938 C3950 0.950 . S
H3939 C3951 0.950 . S
C3940 H3932 0.950 . S
C3940 C3941 1.386 . S
C3940 C3942 1.391 . S
C3941 C3940 1.386 . S
C3941 C3945 1.393 . S
C3942 H3934 0.950 . S
C3942 C3940 1.391 . S
C3942 C3943 1.400 . S
C3943 C3942 1.400 . S
C3943 C3944 1.398 . S
C3943 C3949 1.491 . S
C3944 H3935 0.950 . S
C3944 C3943 1.398 . S
C3944 C3945 1.391 . S
C3945 H3933 0.950 . S
C3945 C3941 1.393 . S
C3945 C3944 1.391 . S
C3946 H3936 0.950 . S
C3946 C3947 1.386 . S
C3946 C3948 1.391 . S
C3947 C3946 1.386 . S
C3947 C3951 1.393 . S
C3948 H3937 0.950 . S
C3948 C3946 1.391 . S
C3948 C3949 1.400 . S
C3949 C3943 1.491 . S
C3949 C3948 1.400 . S
C3949 C3950 1.398 . S
C3950 H3938 0.950 . S
C3950 C3949 1.398 . S
C3950 C3951 1.391 . S
C3951 H3939 0.950 . S
C3951 C3947 1.393 . S
C3951 C3950 1.391 . S
H3952 C3960 0.950 . S
H3953 C3965 0.950 . S
H3954 C3962 0.950 . S
H3955 C3964 0.950 . S
H3956 C3966 0.950 . S
H3957 C3968 0.950 . S
H3958 C3970 0.950 . S
H3959 C3971 0.950 . S
C3960 H3952 0.950 . S
C3960 C3961 1.386 . S
C3960 C3962 1.391 . S
C3961 C3960 1.386 . S
C3961 C3965 1.393 . S
C3962 H3954 0.950 . S
C3962 C3960 1.391 . S
C3962 C3963 1.400 . S
C3963 C3962 1.400 . S
C3963 C3964 1.398 . S
C3963 C3969 1.491 . S
C3964 H3955 0.950 . S
C3964 C3963 1.398 . S
C3964 C3965 1.391 . S
C3965 H3953 0.950 . S
C3965 C3961 1.393 . S
C3965 C3964 1.391 . S
C3966 H3956 0.950 . S
C3966 C3967 1.386 . S
C3966 C3968 1.391 . S
C3967 C3966 1.386 . S
C3967 C3971 1.393 . S
C3968 H3957 0.950 . S
C3968 C3966 1.391 . S
C3968 C3969 1.400 . S
C3969 C3963 1.491 . S
C3969 C3968 1.400 . S
C3969 C3970 1.398 . S
C3970 H3958 0.950 . S
C3970 C3969 1.398 . S
C3970 C3971 1.391 . S
C3971 H3959 0.950 . S
C3971 C3967 1.393 . S
C3971 C3970 1.391 . S
H3972 C3980 0.950 . S
H3973 C3985 0.950 . S
H3974 C3982 0.950 . S
H3975 C3984 0.950 . S
H3976 C3986 0.950 . S
H3977 C3988 0.950 . S
H3978 C3990 0.950 . S
H3979 C3991 0.950 . S
C3980 H3972 0.950 . S
C3980 C3981 1.386 . S
C3980 C3982 1.391 . S
C3981 C3980 1.386 . S
C3981 C3985 1.393 . S
C3982 H3974 0.950 . S
C3982 C3980 1.391 . S
C3982 C3983 1.400 . S
C3983 C3982 1.400 . S
C3983 C3984 1.398 . S
C3983 C3989 1.491 . S
C3984 H3975 0.950 . S
C3984 C3983 1.398 . S
C3984 C3985 1.391 . S
C3985 H3973 0.950 . S
C3985 C3981 1.393 . S
C3985 C3984 1.391 . S
C3986 H3976 0.950 . S
C3986 C3987 1.386 . S
C3986 C3988 1.391 . S
C3987 C3986 1.386 . S
C3987 C3991 1.393 . S
C3988 H3977 0.950 . S
C3988 C3986 1.391 . S
C3988 C3989 1.400 . S
C3989 C3983 1.491 . S
C3989 C3988 1.400 . S
C3989 C3990 1.398 . S
C3990 H3978 0.950 . S
C3990 C3989 1.398 . S
C3990 C3991 1.391 . S
C3991 H3979 0.950 . S
C3991 C3987 1.393 . S
C3991 C3990 1.391 . S
H3992 C4000 0.950 . S
H3993 C4005 0.950 . S
H3994 C4002 0.950 . S
H3995 C4004 0.950 . S
H3996 C4006 0.950 . S
H3997 C4008 0.950 . S
H3998 C4010 0.950 . S
H3999 C4011 0.950 . S
C4000 H3992 0.950 . S
C4000 C4001 1.386 . S
C4000 C4002 1.391 . S
C4001 C4000 1.386 . S
C4001 C4005 1.393 . S
C4002 H3994 0.950 . S
C4002 C4000 1.391 . S
C4002 C4003 1.400 . S
C4003 C4002 1.400 . S
C4003 C4004 1.398 . S
C4003 C4009 1.491 . S
C4004 H3995 0.950 . S
C4004 C4003 1.398 . S
C4004 C4005 1.391 . S
C4005 H3993 0.950 . S
C4005 C4001 1.393 . S
C4005 C4004 1.391 . S
C4006 H3996 0.950 . S
C4006 C4007 1.386 . S
C4006 C4008 1.391 . S
C4007 C4006 1.386 . S
C4007 C4011 1.393 . S
C4008 H3997 0.950 . S
C4008 C4006 1.391 . S
C4008 C4009 1.400 . S
C4009 C4003 1.491 . S
C4009 C4008 1.400 . S
C4009 C4010 1.398 . S
C4010 H3998 0.950 . S
C4010 C4009 1.398 . S
C4010 C4011 1.391 . S
C4011 H3999 0.950 . S
C4011 C4007 1.393 . S
C4011 C4010 1.391 . S
H4012 C4020 0.950 . S
H4013 C4025 0.950 . S
H4014 C4022 0.950 . S
H4015 C4024 0.950 . S
H4016 C4026 0.950 . S
H4017 C4028 0.950 . S
H4018 C4030 0.950 . S
H4019 C4031 0.950 . S
C4020 H4012 0.950 . S
C4020 C4021 1.386 . S
C4020 C4022 1.391 . S
C4021 C4020 1.386 . S
C4021 C4025 1.393 . S
C4022 H4014 0.950 . S
C4022 C4020 1.391 . S
C4022 C4023 1.400 . S
C4023 C4022 1.400 . S
C4023 C4024 1.398 . S
C4023 C4029 1.491 . S
C4024 H4015 0.950 . S
C4024 C4023 1.398 . S
C4024 C4025 1.391 . S
C4025 H4013 0.950 . S
C4025 C4021 1.393 . S
C4025 C4024 1.391 . S
C4026 H4016 0.950 . S
C4026 C4027 1.386 . S
C4026 C4028 1.391 . S
C4027 C4026 1.386 . S
C4027 C4031 1.393 . S
C4028 H4017 0.950 . S
C4028 C4026 1.391 . S
C4028 C4029 1.400 . S
C4029 C4023 1.491 . S
C4029 C4028 1.400 . S
C4029 C4030 1.398 . S
C4030 H4018 0.950 . S
C4030 C4029 1.398 . S
C4030 C4031 1.391 . S
C4031 H4019 0.950 . S
C4031 C4027 1.393 . S
C4031 C4030 1.391 . S
C1641 C621 1.639 . S
C1647 C20 1.642 . S
C1661 C54 1.642 . S
C1667 C655 1.641 . S
C1681 C88 1.657 . S
C1687 C689 1.655 . S
C1701 C587 1.645 . S
C1707 C122 1.644 . S
C1721 C757 1.639 . S
C1727 C156 1.641 . S
C1741 C190 1.657 . S
C1747 C553 1.655 . S
C1761 C791 1.654 . S
C1767 C224 1.653 . S
C1781 C723 1.639 . S
C1787 C258 1.644 . S
C1801 C292 1.655 . S
C1807 C315 1.655 . S
C1821 C349 1.650 . S
C1827 C326 1.655 . S
C1841 C383 1.650 . S
C1847 C360 1.655 . S
C1861 C394 1.657 . S
C1867 C281 1.653 . S
C1881 C519 1.654 . S
C1887 C428 1.657 . S
C1901 C462 1.645 . S
C1907 C417 1.647 . S
C1921 C451 1.640 . S
C1927 C496 1.641 . S
C1941 C485 1.639 . S
C1947 C530 1.643 . S
C1961 C564 1.650 . S
C1967 C111 1.644 . S
C1981 C179 1.654 . S
C1987 C598 1.657 . S
C2001 C632 1.650 . S
C2007 C213 1.651 . S
C2021 C247 1.653 . S
C2027 C666 1.652 . S
C2041 C145 1.644 . S
C2047 C700 1.643 . S
C2061 C734 1.657 . S
C2067 C43 1.655 . S
C2081 C768 1.643 . S
C2087 C77 1.639 . S
C2101 C9 1.648 . S
C2107 C802 1.646 . S
C2121 C836 1.651 . S
C2127 C1437 1.645 . S
C2141 C1471 1.642 . S
C2147 C870 1.647 . S
C2161 C1505 1.640 . S
C2167 C904 1.641 . S
C2181 C938 1.641 . S
C2187 C1403 1.640 . S
C2201 C1573 1.642 . S
C2207 C972 1.648 . S
C2221 C1006 1.644 . S
C2227 C1369 1.645 . S
C2241 C1607 1.651 . S
C2247 C1040 1.649 . S
C2261 C1539 1.642 . S
C2267 C1074 1.648 . S
C2281 C1131 1.654 . S
C2287 C1108 1.657 . S
C2301 C1142 1.645 . S
C2307 C1165 1.646 . S
C2321 C1199 1.654 . S
C2327 C1176 1.657 . S
C2341 C1210 1.657 . S
C2347 C1097 1.655 . S
C2361 C1244 1.656 . S
C2367 C1335 1.652 . S
C2381 C1233 1.655 . S
C2387 C1278 1.657 . S
C2401 C1312 1.642 . S
C2407 C1267 1.639 . S
C2421 C1301 1.654 . S
C2427 C1346 1.653 . S
C2441 C927 1.643 . S
C2447 C1380 1.643 . S
C2461 C1414 1.650 . S
C2467 C995 1.644 . S
C2481 C1448 1.656 . S
C2487 C1029 1.656 . S
C2501 C1063 1.646 . S
C2507 C1482 1.652 . S
C2521 C961 1.649 . S
C2527 C1516 1.647 . S
C2541 C859 1.654 . S
C2547 C1550 1.654 . S
C2561 C1584 1.643 . S
C2567 C893 1.644 . S
C2581 C825 1.655 . S
C2587 C1618 1.657 . S
C2601 C1087 1.142 . S
C2607 C33 1.148 . S
C2621 C985 1.178 . S
C2627 C67 1.165 . S
C2641 C101 1.147 . S
C2647 C1019 1.158 . S
C2661 C1053 1.153 . S
C2667 C135 1.144 . S
C2681 C169 1.183 . S
C2687 C883 1.172 . S
C2701 C917 1.185 . S
C2707 C203 1.176 . S
C2721 C951 1.142 . S
C2727 C237 1.146 . S
C2741 C271 1.156 . S
C2747 C849 1.169 . S
C2761 C305 1.143 . S
C2767 C1529 1.143 . S
C2781 C1427 1.143 . S
C2787 C339 1.143 . S
C2801 C1461 1.144 . S
C2807 C373 1.142 . S
C2821 C1495 1.143 . S
C2827 C407 1.143 . S
C2841 C1631 1.142 . S
C2847 C441 1.147 . S
C2861 C475 1.154 . S
C2867 C1563 1.167 . S
C2881 C509 1.183 . S
C2887 C1597 1.188 . S
C2901 C1393 1.181 . S
C2907 C543 1.170 . S
C2921 C1359 1.180 . S
C2927 C577 1.169 . S
C2941 C611 1.147 . S
C2947 C1155 1.142 . S
C2961 C1189 1.187 . S
C2967 C645 1.180 . S
C2981 C1223 1.156 . S
C2987 C679 1.169 . S
C3001 C713 1.161 . S
C3007 C1121 1.174 . S
C3021 C747 1.183 . S
C3027 C1291 1.172 . S
C3041 C1325 1.147 . S
C3047 C781 1.142 . S
C3061 C815 1.170 . S
C3067 C1257 1.181 . S
C3081 C277 1.299 . S
C3087 C2 1.363 . S
C3101 C311 1.284 . S
C3107 C36 1.362 . S
C3121 C70 1.346 . S
C3127 C345 1.264 . S
C3141 C104 1.361 . S
C3147 C379 1.280 . S
C3161 C138 1.345 . S
C3167 C413 1.264 . S
C3181 C447 1.289 . S
C3187 C172 1.343 . S
C3201 C481 1.304 . S
C3207 C206 1.359 . S
C3221 C240 1.346 . S
C3227 C515 1.294 . S
C3241 C549 1.301 . S
C3247 C274 1.352 . S
C3261 C787 1.265 . S
C3267 C308 1.343 . S
C3281 C719 1.272 . S
C3287 C342 1.356 . S
C3301 C376 1.340 . S
C3307 C753 1.271 . S
C3321 C410 1.340 . S
C3327 C583 1.272 . S
C3341 C444 1.344 . S
C3347 C617 1.264 . S
C3361 C478 1.359 . S
C3367 C651 1.304 . S
C3381 C512 1.342 . S
C3387 C685 1.265 . S
C3401 C5 1.272 . S
C3407 C546 1.356 . S
C3421 C580 1.364 . S
C3427 C141 1.295 . S
C3441 C175 1.277 . S
C3447 C614 1.359 . S
C3461 C648 1.364 . S
C3467 C209 1.296 . S
C3481 C243 1.279 . S
C3487 C682 1.360 . S
C3501 C73 1.275 . S
C3507 C716 1.358 . S
C3521 C750 1.343 . S
C3527 C107 1.264 . S
C3541 C39 1.304 . S
C3547 C784 1.360 . S
C3561 C818 1.348 . S
C3567 C1093 1.264 . S
C3581 C1127 1.304 . S
C3587 C852 1.356 . S
C3601 C886 1.362 . S
C3607 C1161 1.303 . S
C3621 C920 1.362 . S
C3627 C1195 1.302 . S
C3641 C954 1.358 . S
C3647 C1229 1.276 . S
C3661 C988 1.343 . S
C3667 C1263 1.264 . S
C3681 C1022 1.354 . S
C3687 C1297 1.303 . S
C3701 C1056 1.339 . S
C3707 C1331 1.273 . S
C3721 C1090 1.340 . S
C3727 C1365 1.269 . S
C3741 C1124 1.346 . S
C3747 C1603 1.264 . S
C3761 C1158 1.361 . S
C3767 C1535 1.281 . S
C3781 C1569 1.299 . S
C3787 C1192 1.349 . S
C3801 C1399 1.281 . S
C3807 C1226 1.361 . S
C3821 C1260 1.344 . S
C3827 C1433 1.264 . S
C3841 C1467 1.281 . S
C3847 C1294 1.340 . S
C3861 C1328 1.343 . S
C3867 C1501 1.289 . S
C3881 C1362 1.348 . S
C3887 C821 1.297 . S
C3901 C957 1.275 . S
C3907 C1396 1.340 . S
C3921 C991 1.300 . S
C3927 C1430 1.351 . S
C3941 C1025 1.292 . S
C3947 C1464 1.364 . S
C3961 C1059 1.271 . S
C3967 C1498 1.355 . S
C3981 C889 1.298 . S
C3987 C1532 1.349 . S
C4001 C923 1.270 . S
C4007 C1566 1.354 . S
C4021 C855 1.271 . S
C4027 C1600 1.355 . S
