# Generated by pormake.
# Topology uop, (4)-cn, num edge types: 1
# Building blocks:
#     Node 0, Type 0, BuildingBlock: NAWXER_clean_sbu_0, # of connection points: 4
#     Node 1, Type 0, BuildingBlock: NAWXER_clean_sbu_0, # of connection points: 4
#     Node 2, Type 0, BuildingBlock: NAWXER_clean_sbu_0, # of connection points: 4
#     Node 3, Type 0, BuildingBlock: NAWXER_clean_sbu_0, # of connection points: 4
#     Node 4, Type 0, BuildingBlock: NAWXER_clean_sbu_0, # of connection points: 4
#     Node 5, Type 0, BuildingBlock: NAWXER_clean_sbu_0, # of connection points: 4
#     Node 6, Type 0, BuildingBlock: NAWXER_clean_sbu_0, # of connection points: 4
#     Node 7, Type 0, BuildingBlock: NAWXER_clean_sbu_0, # of connection points: 4
#     Node 8, Type 0, BuildingBlock: NAWXER_clean_sbu_0, # of connection points: 4
#     Node 9, Type 0, BuildingBlock: NAWXER_clean_sbu_0, # of connection points: 4
#     Node 10, Type 0, BuildingBlock: NAWXER_clean_sbu_0, # of connection points: 4
#     Node 11, Type 0, BuildingBlock: NAWXER_clean_sbu_0, # of connection points: 4
#     Edge 12, Type (0, 0), BuildingBlock: EYOCIG_clean_linker_4, # of connection points: 2
#     Edge 13, Type (0, 0), BuildingBlock: EYOCIG_clean_linker_4, # of connection points: 2
#     Edge 14, Type (0, 0), BuildingBlock: EYOCIG_clean_linker_4, # of connection points: 2
#     Edge 15, Type (0, 0), BuildingBlock: EYOCIG_clean_linker_4, # of connection points: 2
#     Edge 16, Type (0, 0), BuildingBlock: EYOCIG_clean_linker_4, # of connection points: 2
#     Edge 17, Type (0, 0), BuildingBlock: EYOCIG_clean_linker_4, # of connection points: 2
#     Edge 18, Type (0, 0), BuildingBlock: EYOCIG_clean_linker_4, # of connection points: 2
#     Edge 19, Type (0, 0), BuildingBlock: EYOCIG_clean_linker_4, # of connection points: 2
#     Edge 20, Type (0, 0), BuildingBlock: EYOCIG_clean_linker_4, # of connection points: 2
#     Edge 21, Type (0, 0), BuildingBlock: EYOCIG_clean_linker_4, # of connection points: 2
#     Edge 22, Type (0, 0), BuildingBlock: EYOCIG_clean_linker_4, # of connection points: 2
#     Edge 23, Type (0, 0), BuildingBlock: EYOCIG_clean_linker_4, # of connection points: 2
#     Edge 24, Type (0, 0), BuildingBlock: EYOCIG_clean_linker_4, # of connection points: 2
#     Edge 25, Type (0, 0), BuildingBlock: EYOCIG_clean_linker_4, # of connection points: 2
#     Edge 26, Type (0, 0), BuildingBlock: EYOCIG_clean_linker_4, # of connection points: 2
#     Edge 27, Type (0, 0), BuildingBlock: EYOCIG_clean_linker_4, # of connection points: 2
#     Edge 28, Type (0, 0), BuildingBlock: EYOCIG_clean_linker_4, # of connection points: 2
#     Edge 29, Type (0, 0), BuildingBlock: EYOCIG_clean_linker_4, # of connection points: 2
#     Edge 30, Type (0, 0), BuildingBlock: EYOCIG_clean_linker_4, # of connection points: 2
#     Edge 31, Type (0, 0), BuildingBlock: EYOCIG_clean_linker_4, # of connection points: 2
#     Edge 32, Type (0, 0), BuildingBlock: EYOCIG_clean_linker_4, # of connection points: 2
#     Edge 33, Type (0, 0), BuildingBlock: EYOCIG_clean_linker_4, # of connection points: 2
#     Edge 34, Type (0, 0), BuildingBlock: EYOCIG_clean_linker_4, # of connection points: 2
#     Edge 35, Type (0, 0), BuildingBlock: EYOCIG_clean_linker_4, # of connection points: 2
# Relax obj value: 0.102
# Max RMSD: 0.272
# Mean RMSD: 0.272
data_MOF--net-uop--node1-NAWXER_clean_sbu_0--edge1-EYOCIG_clean_linker_4
_symmetry_space_group_name_H-M    P1
_symmetry_Int_Tables_number       1
_symmetry_cell_setting            triclinic
loop_
_symmetry_equiv_pos_as_xyz
'x, y, z'
_cell_length_a     26.411662
_cell_length_b     26.414077
_cell_length_c     36.577357
_cell_angle_alpha  89.995315
_cell_angle_beta   89.983504
_cell_angle_gamma 119.984
loop_
_atom_site_label
_atom_site_type_symbol
_atom_site_fract_x
_atom_site_fract_y
_atom_site_fract_z
_atom_type_partial_charge
C0 C 0.25074 0.35258 0.27234 0.0
C1 C 0.24797 0.50658 0.20152 0.0
O2 O 0.25472 0.34525 0.23802 0.0
Zn3 Zn 0.25386 0.38908 0.18797 0.0
O4 O 0.24394 0.39426 0.28344 0.0
Zn5 Zn 0.24688 0.42776 0.23643 0.0
O6 O 0.16483 0.36608 0.21197 0.0
O7 O 0.18538 0.33175 0.16249 0.0
O8 O 0.24462 0.49926 0.23586 0.0
O9 O 0.25163 0.46957 0.18057 0.0
O10 O 0.32799 0.40807 0.16723 0.0
O11 O 0.33523 0.45488 0.21889 0.0
C12 C 0.14814 0.33281 0.18383 0.0
C13 C 0.35917 0.44336 0.19211 0.0
C14 C 0.81853 0.14693 0.51702 0.0
C15 C 0.91845 0.35802 0.52489 0.0
O16 O 0.80234 0.16367 0.54534 0.0
Zn17 Zn 0.82295 0.24581 0.56984 0.0
O18 O 0.85643 0.18415 0.49548 0.0
Zn19 Zn 0.86782 0.25263 0.5211 0.0
O20 O 0.91331 0.2536 0.57082 0.0
O21 O 0.85416 0.24305 0.61659 0.0
O22 O 0.92236 0.3267 0.50002 0.0
O23 O 0.88355 0.33417 0.55194 0.0
O24 O 0.74909 0.24326 0.56999 0.0
O25 O 0.78479 0.25009 0.51439 0.0
C26 C 0.90242 0.24966 0.6052 0.0
C27 C 0.74447 0.24641 0.5357 0.0
C28 C 0.65574 0.90026 0.93849 0.0
C29 C 0.50074 0.74307 0.86868 0.0
O30 O 0.6626 0.91132 0.90413 0.0
Zn31 Zn 0.61808 0.86625 0.85439 0.0
O32 O 0.61418 0.85191 0.94982 0.0
Zn33 Zn 0.57992 0.82092 0.90305 0.0
O34 O 0.64083 0.79992 0.87814 0.0
O35 O 0.67485 0.8546 0.82854 0.0
O36 O 0.50844 0.74725 0.90298 0.0
O37 O 0.53748 0.78353 0.84752 0.0
O38 O 0.59863 0.92102 0.83364 0.0
O39 O 0.55223 0.88164 0.88546 0.0
C40 C 0.67368 0.81615 0.84979 0.0
C41 C 0.56332 0.91679 0.85856 0.0
C42 C 0.75908 0.65355 0.27264 0.0
C43 C 0.75975 0.49792 0.20261 0.0
O44 O 0.75496 0.6606 0.23829 0.0
Zn45 Zn 0.75506 0.61594 0.18844 0.0
O46 O 0.76544 0.61168 0.28387 0.0
Zn47 Zn 0.76184 0.57752 0.23703 0.0
O48 O 0.84397 0.63824 0.21222 0.0
O49 O 0.8236 0.67245 0.16261 0.0
O50 O 0.76334 0.50567 0.2369 0.0
O51 O 0.7564 0.53489 0.18144 0.0
O52 O 0.68106 0.59738 0.16774 0.0
O53 O 0.67355 0.5508 0.21955 0.0
C54 C 0.86075 0.67114 0.1839 0.0
C55 C 0.64976 0.56233 0.1927 0.0
C56 C 0.1071 0.7566 0.60519 0.0
C57 C 0.26455 0.75916 0.53526 0.0
O58 O 0.09636 0.75319 0.5708 0.0
Zn59 Zn 0.14168 0.75413 0.52098 0.0
O60 O 0.15511 0.76254 0.61653 0.0
Zn61 Zn 0.18623 0.75997 0.56969 0.0
O62 O 0.20739 0.8426 0.54566 0.0
O63 O 0.15361 0.82308 0.49576 0.0
O64 O 0.25979 0.7618 0.56958 0.0
O65 O 0.22443 0.75611 0.51404 0.0
O66 O 0.08651 0.68043 0.49973 0.0
O67 O 0.12481 0.67201 0.5516 0.0
C68 C 0.19147 0.85988 0.51748 0.0
C69 C 0.08981 0.64868 0.52455 0.0
C70 C 0.35363 0.10677 0.93922 0.0
C71 C 0.50919 0.26202 0.86856 0.0
O72 O 0.34605 0.09558 0.90489 0.0
Zn73 Zn 0.39041 0.13989 0.85487 0.0
O74 O 0.39607 0.1547 0.95032 0.0
Zn75 Zn 0.42976 0.18495 0.90335 0.0
O76 O 0.3692 0.20704 0.87905 0.0
O77 O 0.33402 0.15253 0.82949 0.0
O78 O 0.50198 0.25788 0.9029 0.0
O79 O 0.47171 0.22188 0.84754 0.0
O80 O 0.40797 0.08389 0.83391 0.0
O81 O 0.45535 0.12272 0.88552 0.0
C82 C 0.33594 0.19114 0.85091 0.0
C83 C 0.44316 0.08729 0.85866 0.0
C84 C 0.50113 0.75942 0.4683 0.0
C85 C 0.65573 0.75691 0.39795 0.0
O86 O 0.53816 0.75609 0.48941 0.0
Zn87 Zn 0.61885 0.75401 0.48225 0.0
O88 O 0.50852 0.76239 0.43398 0.0
Zn89 Zn 0.58018 0.76039 0.43366 0.0
O90 O 0.55345 0.67225 0.45148 0.0
O91 O 0.60019 0.68015 0.50326 0.0
O92 O 0.6138 0.76319 0.38673 0.0
O93 O 0.66305 0.7532 0.4323 0.0
O94 O 0.67598 0.8227 0.50762 0.0
O95 O 0.64173 0.84275 0.45791 0.0
C96 C 0.56508 0.64865 0.4784 0.0
C97 C 0.67494 0.85973 0.48608 0.0
C98 C 0.90099 0.65316 0.73066 0.0
C99 C 0.74497 0.49789 0.80097 0.0
O100 O 0.91193 0.66079 0.76501 0.0
Zn101 Zn 0.86712 0.61653 0.81497 0.0
O102 O 0.85311 0.61076 0.71947 0.0
Zn103 Zn 0.82244 0.57723 0.7664 0.0
O104 O 0.80042 0.63808 0.79039 0.0
O105 O 0.85445 0.67309 0.84014 0.0
O106 O 0.7494 0.50515 0.76664 0.0
O107 O 0.78497 0.53531 0.8221 0.0
O108 O 0.9228 0.59876 0.83626 0.0
O109 O 0.88432 0.55138 0.78461 0.0
C110 C 0.81616 0.67138 0.81852 0.0
C111 C 0.91948 0.56347 0.81161 0.0
C112 C 0.24848 0.74261 0.13361 0.0
C113 C 0.2505 0.90037 0.06439 0.0
O114 O 0.25173 0.78269 0.15493 0.0
Zn115 Zn 0.25368 0.86543 0.14837 0.0
O116 O 0.24555 0.74737 0.0993 0.0
Zn117 Zn 0.24742 0.82094 0.0995 0.0
O118 O 0.33551 0.88189 0.11751 0.0
O119 O 0.32762 0.92028 0.16948 0.0
O120 O 0.24444 0.8524 0.05285 0.0
O121 O 0.25425 0.91096 0.0988 0.0
O122 O 0.18484 0.85315 0.17396 0.0
O123 O 0.16505 0.79939 0.12402 0.0
C124 C 0.35913 0.91672 0.14459 0.0
C125 C 0.14793 0.8151 0.15237 0.0
C126 C 0.50839 0.24639 0.46847 0.0
C127 C 0.35461 0.24951 0.39773 0.0
O128 O 0.4715 0.25021 0.48946 0.0
Zn129 Zn 0.39112 0.25273 0.4821 0.0
O130 O 0.50103 0.24304 0.43414 0.0
Zn131 Zn 0.42972 0.24559 0.43368 0.0
O132 O 0.45729 0.33405 0.45125 0.0
O133 O 0.41036 0.32687 0.50285 0.0
O134 O 0.39625 0.24262 0.38667 0.0
O135 O 0.34732 0.25362 0.43204 0.0
O136 O 0.33372 0.18443 0.5077 0.0
O137 O 0.368 0.16362 0.45829 0.0
C138 C 0.44588 0.35804 0.47806 0.0
C139 C 0.33475 0.14707 0.48646 0.0
C140 C 0.10814 0.35281 0.73093 0.0
C141 C 0.26484 0.50776 0.8009 0.0
O142 O 0.09704 0.34554 0.76528 0.0
Zn143 Zn 0.14198 0.38997 0.81513 0.0
O144 O 0.15627 0.39481 0.7197 0.0
Zn145 Zn 0.18699 0.42868 0.76653 0.0
O146 O 0.20849 0.36781 0.79106 0.0
O147 O 0.154 0.33332 0.84071 0.0
O148 O 0.26042 0.50034 0.76658 0.0
O149 O 0.2246 0.47075 0.82208 0.0
O150 O 0.08689 0.40867 0.83623 0.0
O151 O 0.12576 0.45558 0.78449 0.0
C152 C 0.19245 0.33478 0.81932 0.0
C153 C 0.09066 0.44402 0.81148 0.0
C154 C 0.75981 0.26198 0.1352 0.0
C155 C 0.75859 0.10641 0.06409 0.0
O156 O 0.75665 0.2215 0.15614 0.0
Zn157 Zn 0.75523 0.13914 0.14858 0.0
O158 O 0.76312 0.25807 0.10086 0.0
Zn159 Zn 0.76158 0.18473 0.10025 0.0
O160 O 0.67342 0.12298 0.11796 0.0
O161 O 0.68142 0.08349 0.16944 0.0
O162 O 0.76474 0.1547 0.05315 0.0
O163 O 0.75478 0.09491 0.09838 0.0
O164 O 0.82396 0.15077 0.17395 0.0
O165 O 0.84398 0.20571 0.12454 0.0
C166 C 0.64987 0.08742 0.14475 0.0
C167 C 0.86098 0.18926 0.15261 0.0
C168 C 0.24756 0.64914 0.16041 0.0
C169 C 0.24802 0.69201 0.14852 0.0
C170 C 0.24744 0.59898 0.17411 0.0
C171 C 0.24773 0.55658 0.18618 0.0
C172 C 0.65095 0.24554 0.50909 0.0
C173 C 0.69389 0.24599 0.52081 0.0
C174 C 0.60074 0.24555 0.49565 0.0
C175 C 0.55834 0.246 0.48375 0.0
C176 C 0.40818 0.65011 0.84159 0.0
C177 C 0.45061 0.69278 0.85357 0.0
C178 C 0.35805 0.60014 0.82792 0.0
C179 C 0.31526 0.55777 0.81599 0.0
C180 C 0.75972 0.40494 0.17579 0.0
C181 C 0.75968 0.44761 0.18755 0.0
C182 C 0.75975 0.35472 0.16239 0.0
C183 C 0.75972 0.31205 0.15053 0.0
C184 C 0.40849 0.76017 0.49521 0.0
C185 C 0.45102 0.75977 0.48344 0.0
C186 C 0.35815 0.76012 0.50855 0.0
C187 C 0.31515 0.75963 0.52026 0.0
C188 C 0.60201 0.35473 0.8414 0.0
C189 C 0.55939 0.3121 0.85329 0.0
C190 C 0.65217 0.40494 0.82793 0.0
C191 C 0.69482 0.44761 0.81611 0.0
C192 C 0.53512 0.51534 0.19103 0.0
C193 C 0.58749 0.53694 0.19163 0.0
C194 C 0.47383 0.49044 0.19084 0.0
C195 C 0.42144 0.46874 0.1912 0.0
C196 C 0.02167 0.53408 0.52268 0.0
C197 C 0.05257 0.58645 0.52324 0.0
C198 C 0.98534 0.47277 0.52284 0.0
C199 C 0.95493 0.42035 0.52361 0.0
C200 C 0.4896 0.01917 0.85681 0.0
C201 C 0.46811 0.05004 0.85734 0.0
C202 C 0.51489 0.98314 0.85686 0.0
C203 C 0.53718 0.95299 0.85744 0.0
C204 C 0.51854 0.53405 0.47999 0.0
C205 C 0.54002 0.58642 0.47952 0.0
C206 C 0.49363 0.47276 0.47983 0.0
C207 C 0.4717 0.42035 0.47915 0.0
C208 C 0.98739 0.51677 0.81382 0.0
C209 C 0.95663 0.5384 0.81315 0.0
C210 C 0.02356 0.49162 0.81372 0.0
C211 C 0.05403 0.46968 0.81293 0.0
C212 C 0.47386 0.98372 0.14659 0.0
C213 C 0.42144 0.95332 0.14593 0.0
C214 C 0.5352 0.01982 0.1466 0.0
C215 C 0.58759 0.0505 0.146 0.0
C216 C 0.27205 0.29212 0.32133 0.0
C217 C 0.26244 0.31902 0.29838 0.0
C218 C 0.29397 0.27041 0.34867 0.0
C219 C 0.32097 0.26098 0.37164 0.0
C220 C 0.98396 0.27014 0.65413 0.0
C221 C 0.94777 0.26092 0.63104 0.0
C222 C 0.02704 0.29172 0.68178 0.0
C223 C 0.06305 0.31871 0.70496 0.0
C224 C 0.71675 0.98206 0.9873 0.0
C225 C 0.68968 0.94563 0.96434 0.0
C226 C 0.73838 0.02545 0.01476 0.0
C227 C 0.7475 0.06156 0.0379 0.0
C228 C 0.71684 0.73637 0.34902 0.0
C229 C 0.68973 0.74564 0.37201 0.0
C230 C 0.73864 0.71467 0.32159 0.0
C231 C 0.74785 0.68756 0.29858 0.0
C232 C 0.02545 0.73622 0.65404 0.0
C233 C 0.06174 0.74542 0.63101 0.0
C234 C 0.98216 0.71451 0.68158 0.0
C235 C 0.94607 0.68738 0.7047 0.0
C236 C 0.27057 0.98228 0.01581 0.0
C237 C 0.26152 0.94587 0.03872 0.0
C238 C 0.29224 0.02569 0.98835 0.0
C239 C 0.31945 0.06179 0.96526 0.0
C240 C 0.97412 0.2394 0.16531 0.0
C241 C 0.92221 0.21575 0.16019 0.0
C242 C 0.03506 0.26979 0.17097 0.0
C243 C 0.08697 0.29802 0.17609 0.0
C244 C 0.76859 0.03384 0.50422 0.0
C245 C 0.79219 0.08575 0.50932 0.0
C246 C 0.73809 0.9729 0.49863 0.0
C247 C 0.70976 0.92096 0.4936 0.0
C248 C 0.76548 0.734 0.83077 0.0
C249 C 0.78927 0.70584 0.82577 0.0
C250 C 0.73544 0.76489 0.83643 0.0
C251 C 0.70781 0.78917 0.84174 0.0
C252 C 0.97381 0.73346 0.17077 0.0
C253 C 0.92192 0.70552 0.17604 0.0
C254 C 0.03474 0.76402 0.1651 0.0
C255 C 0.08668 0.7881 0.16 0.0
C256 C 0.2415 0.97313 0.50521 0.0
C257 C 0.21796 0.92118 0.51016 0.0
C258 C 0.27181 0.03407 0.49958 0.0
C259 C 0.29999 0.08596 0.49436 0.0
C260 C 0.24357 0.27283 0.8324 0.0
C261 C 0.21948 0.30063 0.82711 0.0
C262 C 0.27404 0.24243 0.83819 0.0
C263 C 0.30185 0.21832 0.84337 0.0
loop_
_geom_bond_atom_site_label_1
_geom_bond_atom_site_label_2
_geom_bond_distance
_geom_bond_site_symmetry_2
_ccdc_geom_bond_type
C0 O2 1.247 . S
C0 O4 1.258 . S
C1 O8 1.247 . S
C1 O9 1.258 . S
O2 C0 1.247 . S
O2 Zn3 2.028 . S
Zn3 O2 2.028 . S
Zn3 O7 2.035 . S
Zn3 O9 2.035 . S
Zn3 O10 2.028 . S
O4 C0 1.258 . S
O4 Zn5 2.035 . S
Zn5 O4 2.035 . S
Zn5 O6 2.028 . S
Zn5 O8 2.028 . S
Zn5 O11 2.035 . S
O6 Zn5 2.028 . S
O6 C12 1.247 . S
O7 Zn3 2.035 . S
O7 C12 1.258 . S
O8 C1 1.247 . S
O8 Zn5 2.028 . S
O9 C1 1.258 . S
O9 Zn3 2.035 . S
O10 Zn3 2.028 . S
O10 C13 1.247 . S
O11 Zn5 2.035 . S
O11 C13 1.258 . S
C12 O6 1.247 . S
C12 O7 1.258 . S
C13 O10 1.247 . S
C13 O11 1.258 . S
C14 O16 1.247 . S
C14 O18 1.258 . S
C15 O22 1.247 . S
C15 O23 1.258 . S
O16 C14 1.247 . S
O16 Zn17 2.028 . S
Zn17 O16 2.028 . S
Zn17 O21 2.035 . S
Zn17 O23 2.035 . S
Zn17 O24 2.028 . S
O18 C14 1.258 . S
O18 Zn19 2.035 . S
Zn19 O18 2.035 . S
Zn19 O20 2.028 . S
Zn19 O22 2.028 . S
Zn19 O25 2.035 . S
O20 Zn19 2.028 . S
O20 C26 1.247 . S
O21 Zn17 2.035 . S
O21 C26 1.258 . S
O22 C15 1.247 . S
O22 Zn19 2.028 . S
O23 C15 1.258 . S
O23 Zn17 2.035 . S
O24 Zn17 2.028 . S
O24 C27 1.247 . S
O25 Zn19 2.035 . S
O25 C27 1.258 . S
C26 O20 1.247 . S
C26 O21 1.258 . S
C27 O24 1.247 . S
C27 O25 1.258 . S
C28 O30 1.247 . S
C28 O32 1.258 . S
C29 O36 1.247 . S
C29 O37 1.258 . S
O30 C28 1.247 . S
O30 Zn31 2.028 . S
Zn31 O30 2.028 . S
Zn31 O35 2.035 . S
Zn31 O37 2.035 . S
Zn31 O38 2.028 . S
O32 C28 1.258 . S
O32 Zn33 2.035 . S
Zn33 O32 2.035 . S
Zn33 O34 2.028 . S
Zn33 O36 2.028 . S
Zn33 O39 2.035 . S
O34 Zn33 2.028 . S
O34 C40 1.247 . S
O35 Zn31 2.035 . S
O35 C40 1.258 . S
O36 C29 1.247 . S
O36 Zn33 2.028 . S
O37 C29 1.258 . S
O37 Zn31 2.035 . S
O38 Zn31 2.028 . S
O38 C41 1.247 . S
O39 Zn33 2.035 . S
O39 C41 1.258 . S
C40 O34 1.247 . S
C40 O35 1.258 . S
C41 O38 1.247 . S
C41 O39 1.258 . S
C42 O44 1.247 . S
C42 O46 1.258 . S
C43 O50 1.247 . S
C43 O51 1.258 . S
O44 C42 1.247 . S
O44 Zn45 2.028 . S
Zn45 O44 2.028 . S
Zn45 O49 2.035 . S
Zn45 O51 2.035 . S
Zn45 O52 2.028 . S
O46 C42 1.258 . S
O46 Zn47 2.035 . S
Zn47 O46 2.035 . S
Zn47 O48 2.028 . S
Zn47 O50 2.028 . S
Zn47 O53 2.035 . S
O48 Zn47 2.028 . S
O48 C54 1.247 . S
O49 Zn45 2.035 . S
O49 C54 1.258 . S
O50 C43 1.247 . S
O50 Zn47 2.028 . S
O51 C43 1.258 . S
O51 Zn45 2.035 . S
O52 Zn45 2.028 . S
O52 C55 1.247 . S
O53 Zn47 2.035 . S
O53 C55 1.258 . S
C54 O48 1.247 . S
C54 O49 1.258 . S
C55 O52 1.247 . S
C55 O53 1.258 . S
C56 O58 1.247 . S
C56 O60 1.258 . S
C57 O64 1.247 . S
C57 O65 1.258 . S
O58 C56 1.247 . S
O58 Zn59 2.028 . S
Zn59 O58 2.028 . S
Zn59 O63 2.035 . S
Zn59 O65 2.035 . S
Zn59 O66 2.028 . S
O60 C56 1.258 . S
O60 Zn61 2.035 . S
Zn61 O60 2.035 . S
Zn61 O62 2.028 . S
Zn61 O64 2.028 . S
Zn61 O67 2.035 . S
O62 Zn61 2.028 . S
O62 C68 1.247 . S
O63 Zn59 2.035 . S
O63 C68 1.258 . S
O64 C57 1.247 . S
O64 Zn61 2.028 . S
O65 C57 1.258 . S
O65 Zn59 2.035 . S
O66 Zn59 2.028 . S
O66 C69 1.247 . S
O67 Zn61 2.035 . S
O67 C69 1.258 . S
C68 O62 1.247 . S
C68 O63 1.258 . S
C69 O66 1.247 . S
C69 O67 1.258 . S
C70 O72 1.247 . S
C70 O74 1.258 . S
C71 O78 1.247 . S
C71 O79 1.258 . S
O72 C70 1.247 . S
O72 Zn73 2.028 . S
Zn73 O72 2.028 . S
Zn73 O77 2.035 . S
Zn73 O79 2.035 . S
Zn73 O80 2.028 . S
O74 C70 1.258 . S
O74 Zn75 2.035 . S
Zn75 O74 2.035 . S
Zn75 O76 2.028 . S
Zn75 O78 2.028 . S
Zn75 O81 2.035 . S
O76 Zn75 2.028 . S
O76 C82 1.247 . S
O77 Zn73 2.035 . S
O77 C82 1.258 . S
O78 C71 1.247 . S
O78 Zn75 2.028 . S
O79 C71 1.258 . S
O79 Zn73 2.035 . S
O80 Zn73 2.028 . S
O80 C83 1.247 . S
O81 Zn75 2.035 . S
O81 C83 1.258 . S
C82 O76 1.247 . S
C82 O77 1.258 . S
C83 O80 1.247 . S
C83 O81 1.258 . S
C84 O86 1.247 . S
C84 O88 1.258 . S
C85 O92 1.247 . S
C85 O93 1.258 . S
O86 C84 1.247 . S
O86 Zn87 2.028 . S
Zn87 O86 2.028 . S
Zn87 O91 2.035 . S
Zn87 O93 2.035 . S
Zn87 O94 2.028 . S
O88 C84 1.258 . S
O88 Zn89 2.035 . S
Zn89 O88 2.035 . S
Zn89 O90 2.028 . S
Zn89 O92 2.028 . S
Zn89 O95 2.035 . S
O90 Zn89 2.028 . S
O90 C96 1.247 . S
O91 Zn87 2.035 . S
O91 C96 1.258 . S
O92 C85 1.247 . S
O92 Zn89 2.028 . S
O93 C85 1.258 . S
O93 Zn87 2.035 . S
O94 Zn87 2.028 . S
O94 C97 1.247 . S
O95 Zn89 2.035 . S
O95 C97 1.258 . S
C96 O90 1.247 . S
C96 O91 1.258 . S
C97 O94 1.247 . S
C97 O95 1.258 . S
C98 O100 1.247 . S
C98 O102 1.258 . S
C99 O106 1.247 . S
C99 O107 1.258 . S
O100 C98 1.247 . S
O100 Zn101 2.028 . S
Zn101 O100 2.028 . S
Zn101 O105 2.035 . S
Zn101 O107 2.035 . S
Zn101 O108 2.028 . S
O102 C98 1.258 . S
O102 Zn103 2.035 . S
Zn103 O102 2.035 . S
Zn103 O104 2.028 . S
Zn103 O106 2.028 . S
Zn103 O109 2.035 . S
O104 Zn103 2.028 . S
O104 C110 1.247 . S
O105 Zn101 2.035 . S
O105 C110 1.258 . S
O106 C99 1.247 . S
O106 Zn103 2.028 . S
O107 C99 1.258 . S
O107 Zn101 2.035 . S
O108 Zn101 2.028 . S
O108 C111 1.247 . S
O109 Zn103 2.035 . S
O109 C111 1.258 . S
C110 O104 1.247 . S
C110 O105 1.258 . S
C111 O108 1.247 . S
C111 O109 1.258 . S
C112 O114 1.247 . S
C112 O116 1.258 . S
C113 O120 1.247 . S
C113 O121 1.258 . S
O114 C112 1.247 . S
O114 Zn115 2.028 . S
Zn115 O114 2.028 . S
Zn115 O119 2.035 . S
Zn115 O121 2.035 . S
Zn115 O122 2.028 . S
O116 C112 1.258 . S
O116 Zn117 2.035 . S
Zn117 O116 2.035 . S
Zn117 O118 2.028 . S
Zn117 O120 2.028 . S
Zn117 O123 2.035 . S
O118 Zn117 2.028 . S
O118 C124 1.247 . S
O119 Zn115 2.035 . S
O119 C124 1.258 . S
O120 C113 1.247 . S
O120 Zn117 2.028 . S
O121 C113 1.258 . S
O121 Zn115 2.035 . S
O122 Zn115 2.028 . S
O122 C125 1.247 . S
O123 Zn117 2.035 . S
O123 C125 1.258 . S
C124 O118 1.247 . S
C124 O119 1.258 . S
C125 O122 1.247 . S
C125 O123 1.258 . S
C126 O128 1.247 . S
C126 O130 1.258 . S
C127 O134 1.247 . S
C127 O135 1.258 . S
O128 C126 1.247 . S
O128 Zn129 2.028 . S
Zn129 O128 2.028 . S
Zn129 O133 2.035 . S
Zn129 O135 2.035 . S
Zn129 O136 2.028 . S
O130 C126 1.258 . S
O130 Zn131 2.035 . S
Zn131 O130 2.035 . S
Zn131 O132 2.028 . S
Zn131 O134 2.028 . S
Zn131 O137 2.035 . S
O132 Zn131 2.028 . S
O132 C138 1.247 . S
O133 Zn129 2.035 . S
O133 C138 1.258 . S
O134 C127 1.247 . S
O134 Zn131 2.028 . S
O135 C127 1.258 . S
O135 Zn129 2.035 . S
O136 Zn129 2.028 . S
O136 C139 1.247 . S
O137 Zn131 2.035 . S
O137 C139 1.258 . S
C138 O132 1.247 . S
C138 O133 1.258 . S
C139 O136 1.247 . S
C139 O137 1.258 . S
C140 O142 1.247 . S
C140 O144 1.258 . S
C141 O148 1.247 . S
C141 O149 1.258 . S
O142 C140 1.247 . S
O142 Zn143 2.028 . S
Zn143 O142 2.028 . S
Zn143 O147 2.035 . S
Zn143 O149 2.035 . S
Zn143 O150 2.028 . S
O144 C140 1.258 . S
O144 Zn145 2.035 . S
Zn145 O144 2.035 . S
Zn145 O146 2.028 . S
Zn145 O148 2.028 . S
Zn145 O151 2.035 . S
O146 Zn145 2.028 . S
O146 C152 1.247 . S
O147 Zn143 2.035 . S
O147 C152 1.258 . S
O148 C141 1.247 . S
O148 Zn145 2.028 . S
O149 C141 1.258 . S
O149 Zn143 2.035 . S
O150 Zn143 2.028 . S
O150 C153 1.247 . S
O151 Zn145 2.035 . S
O151 C153 1.258 . S
C152 O146 1.247 . S
C152 O147 1.258 . S
C153 O150 1.247 . S
C153 O151 1.258 . S
C154 O156 1.247 . S
C154 O158 1.258 . S
C155 O162 1.247 . S
C155 O163 1.258 . S
O156 C154 1.247 . S
O156 Zn157 2.028 . S
Zn157 O156 2.028 . S
Zn157 O161 2.035 . S
Zn157 O163 2.035 . S
Zn157 O164 2.028 . S
O158 C154 1.258 . S
O158 Zn159 2.035 . S
Zn159 O158 2.035 . S
Zn159 O160 2.028 . S
Zn159 O162 2.028 . S
Zn159 O165 2.035 . S
O160 Zn159 2.028 . S
O160 C166 1.247 . S
O161 Zn157 2.035 . S
O161 C166 1.258 . S
O162 C155 1.247 . S
O162 Zn159 2.028 . S
O163 C155 1.258 . S
O163 Zn157 2.035 . S
O164 Zn157 2.028 . S
O164 C167 1.247 . S
O165 Zn159 2.035 . S
O165 C167 1.258 . S
C166 O160 1.247 . S
C166 O161 1.258 . S
C167 O164 1.247 . S
C167 O165 1.258 . S
C168 C169 1.170 . S
C168 C170 1.380 . S
C169 C168 1.170 . S
C170 C168 1.380 . S
C170 C171 1.170 . S
C171 C170 1.170 . S
C172 C173 1.170 . S
C172 C174 1.380 . S
C173 C172 1.170 . S
C174 C172 1.380 . S
C174 C175 1.170 . S
C175 C174 1.170 . S
C176 C177 1.170 . S
C176 C178 1.380 . S
C177 C176 1.170 . S
C178 C176 1.380 . S
C178 C179 1.170 . S
C179 C178 1.170 . S
C180 C181 1.170 . S
C180 C182 1.380 . S
C181 C180 1.170 . S
C182 C180 1.380 . S
C182 C183 1.170 . S
C183 C182 1.170 . S
C184 C185 1.170 . S
C184 C186 1.380 . S
C185 C184 1.170 . S
C186 C184 1.380 . S
C186 C187 1.170 . S
C187 C186 1.170 . S
C188 C189 1.170 . S
C188 C190 1.380 . S
C189 C188 1.170 . S
C190 C188 1.380 . S
C190 C191 1.170 . S
C191 C190 1.170 . S
C192 C193 1.170 . S
C192 C194 1.380 . S
C193 C192 1.170 . S
C194 C192 1.380 . S
C194 C195 1.170 . S
C195 C194 1.170 . S
C196 C197 1.170 . S
C196 C198 1.380 1_455 S
C197 C196 1.170 . S
C198 C196 1.380 1_655 S
C198 C199 1.170 . S
C199 C198 1.170 . S
C200 C201 1.170 . S
C200 C202 1.380 1_545 S
C201 C200 1.170 . S
C202 C200 1.380 1_565 S
C202 C203 1.170 . S
C203 C202 1.170 . S
C204 C205 1.170 . S
C204 C206 1.380 . S
C205 C204 1.170 . S
C206 C204 1.380 . S
C206 C207 1.170 . S
C207 C206 1.170 . S
C208 C209 1.170 . S
C208 C210 1.380 1_655 S
C209 C208 1.170 . S
C210 C208 1.380 1_455 S
C210 C211 1.170 . S
C211 C210 1.170 . S
C212 C213 1.170 . S
C212 C214 1.380 1_565 S
C213 C212 1.170 . S
C214 C212 1.380 1_545 S
C214 C215 1.170 . S
C215 C214 1.170 . S
C216 C217 1.170 . S
C216 C218 1.380 . S
C217 C216 1.170 . S
C218 C216 1.380 . S
C218 C219 1.170 . S
C219 C218 1.170 . S
C220 C221 1.170 . S
C220 C222 1.380 1_655 S
C221 C220 1.170 . S
C222 C220 1.380 1_455 S
C222 C223 1.170 . S
C223 C222 1.170 . S
C224 C225 1.170 . S
C224 C226 1.380 1_566 S
C225 C224 1.170 . S
C226 C224 1.380 1_544 S
C226 C227 1.170 . S
C227 C226 1.170 . S
C228 C229 1.170 . S
C228 C230 1.380 . S
C229 C228 1.170 . S
C230 C228 1.380 . S
C230 C231 1.170 . S
C231 C230 1.170 . S
C232 C233 1.170 . S
C232 C234 1.380 1_455 S
C233 C232 1.170 . S
C234 C232 1.380 1_655 S
C234 C235 1.170 . S
C235 C234 1.170 . S
C236 C237 1.170 . S
C236 C238 1.380 1_564 S
C237 C236 1.170 . S
C238 C236 1.380 1_546 S
C238 C239 1.170 . S
C239 C238 1.170 . S
C240 C241 1.170 . S
C240 C242 1.380 1_655 S
C241 C240 1.170 . S
C242 C240 1.380 1_455 S
C242 C243 1.170 . S
C243 C242 1.170 . S
C244 C245 1.170 . S
C244 C246 1.380 1_545 S
C245 C244 1.170 . S
C246 C244 1.380 1_565 S
C246 C247 1.170 . S
C247 C246 1.170 . S
C248 C249 1.170 . S
C248 C250 1.380 . S
C249 C248 1.170 . S
C250 C248 1.380 . S
C250 C251 1.170 . S
C251 C250 1.170 . S
C252 C253 1.170 . S
C252 C254 1.380 1_655 S
C253 C252 1.170 . S
C254 C252 1.380 1_455 S
C254 C255 1.170 . S
C255 C254 1.170 . S
C256 C257 1.170 . S
C256 C258 1.380 1_565 S
C257 C256 1.170 . S
C258 C256 1.380 1_545 S
C258 C259 1.170 . S
C259 C258 1.170 . S
C260 C261 1.170 . S
C260 C262 1.380 . S
C261 C260 1.170 . S
C262 C260 1.380 . S
C262 C263 1.170 . S
C263 C262 1.170 . S
C169 C112 2.124 . S
C171 C1 2.141 . S
C173 C27 2.113 . S
C175 C126 2.151 . S
C177 C29 2.147 . S
C179 C141 2.112 . S
C181 C43 2.117 . S
C183 C154 2.149 . S
C185 C84 2.143 . S
C187 C57 2.121 . S
C189 C71 2.141 . S
C191 C99 2.121 . S
C193 C55 1.486 . S
C195 C13 1.481 . S
C197 C69 1.474 . S
C199 C15 1.484 . S
C201 C83 1.476 . S
C203 C41 1.487 . S
C205 C96 1.475 . S
C207 C138 1.485 . S
C209 C111 1.476 . S
C211 C153 1.480 . S
C213 C124 1.485 . S
C215 C166 1.476 . S
C217 C0 1.886 . S
C219 C127 1.872 . S
C221 C26 1.897 . S
C223 C140 1.874 . S
C225 C28 1.906 . S
C227 C155 1.872 . S
C229 C85 1.899 . S
C231 C42 1.875 . S
C233 C56 1.906 . S
C235 C98 1.876 . S
C237 C113 1.908 . S
C239 C70 1.893 . S
C241 C167 1.466 . S
C243 C12 1.474 . S
C245 C14 1.472 . S
C247 C97 1.468 . S
C249 C110 1.479 . S
C251 C40 1.461 . S
C253 C54 1.468 . S
C255 C125 1.470 . S
C257 C68 1.479 . S
C259 C139 1.461 . S
C261 C152 1.463 . S
C263 C82 1.477 . S
