# Generated by pormake.
# Topology snl, (6)-cn, num edge types: 1
# Building blocks:
#     Node 0, Type 0, BuildingBlock: KUMJIN_clean_sbu_1, # of connection points: 6
#     Node 1, Type 0, BuildingBlock: KUMJIN_clean_sbu_1, # of connection points: 6
#     Node 2, Type 0, BuildingBlock: KUMJIN_clean_sbu_1, # of connection points: 6
#     Node 3, Type 0, BuildingBlock: KUMJIN_clean_sbu_1, # of connection points: 6
#     Node 4, Type 0, BuildingBlock: KUMJIN_clean_sbu_1, # of connection points: 6
#     Node 5, Type 0, BuildingBlock: KUMJIN_clean_sbu_1, # of connection points: 6
#     Node 6, Type 0, BuildingBlock: KUMJIN_clean_sbu_1, # of connection points: 6
#     Node 7, Type 0, BuildingBlock: KUMJIN_clean_sbu_1, # of connection points: 6
#     Node 8, Type 0, BuildingBlock: KUMJIN_clean_sbu_1, # of connection points: 6
#     Node 9, Type 0, BuildingBlock: KUMJIN_clean_sbu_1, # of connection points: 6
#     Node 10, Type 0, BuildingBlock: KUMJIN_clean_sbu_1, # of connection points: 6
#     Node 11, Type 0, BuildingBlock: KUMJIN_clean_sbu_1, # of connection points: 6
#     Node 12, Type 0, BuildingBlock: KUMJIN_clean_sbu_1, # of connection points: 6
#     Node 13, Type 0, BuildingBlock: KUMJIN_clean_sbu_1, # of connection points: 6
#     Node 14, Type 0, BuildingBlock: KUMJIN_clean_sbu_1, # of connection points: 6
#     Node 15, Type 0, BuildingBlock: KUMJIN_clean_sbu_1, # of connection points: 6
#     Edge 16, Type (0, 0), BuildingBlock: KIFKEQ_clean_linker_1, # of connection points: 2
#     Edge 17, Type (0, 0), BuildingBlock: KIFKEQ_clean_linker_1, # of connection points: 2
#     Edge 18, Type (0, 0), BuildingBlock: KIFKEQ_clean_linker_1, # of connection points: 2
#     Edge 19, Type (0, 0), BuildingBlock: KIFKEQ_clean_linker_1, # of connection points: 2
#     Edge 20, Type (0, 0), BuildingBlock: KIFKEQ_clean_linker_1, # of connection points: 2
#     Edge 21, Type (0, 0), BuildingBlock: KIFKEQ_clean_linker_1, # of connection points: 2
#     Edge 22, Type (0, 0), BuildingBlock: KIFKEQ_clean_linker_1, # of connection points: 2
#     Edge 23, Type (0, 0), BuildingBlock: KIFKEQ_clean_linker_1, # of connection points: 2
#     Edge 24, Type (0, 0), BuildingBlock: KIFKEQ_clean_linker_1, # of connection points: 2
#     Edge 25, Type (0, 0), BuildingBlock: KIFKEQ_clean_linker_1, # of connection points: 2
#     Edge 26, Type (0, 0), BuildingBlock: KIFKEQ_clean_linker_1, # of connection points: 2
#     Edge 27, Type (0, 0), BuildingBlock: KIFKEQ_clean_linker_1, # of connection points: 2
#     Edge 28, Type (0, 0), BuildingBlock: KIFKEQ_clean_linker_1, # of connection points: 2
#     Edge 29, Type (0, 0), BuildingBlock: KIFKEQ_clean_linker_1, # of connection points: 2
#     Edge 30, Type (0, 0), BuildingBlock: KIFKEQ_clean_linker_1, # of connection points: 2
#     Edge 31, Type (0, 0), BuildingBlock: KIFKEQ_clean_linker_1, # of connection points: 2
#     Edge 32, Type (0, 0), BuildingBlock: KIFKEQ_clean_linker_1, # of connection points: 2
#     Edge 33, Type (0, 0), BuildingBlock: KIFKEQ_clean_linker_1, # of connection points: 2
#     Edge 34, Type (0, 0), BuildingBlock: KIFKEQ_clean_linker_1, # of connection points: 2
#     Edge 35, Type (0, 0), BuildingBlock: KIFKEQ_clean_linker_1, # of connection points: 2
#     Edge 36, Type (0, 0), BuildingBlock: KIFKEQ_clean_linker_1, # of connection points: 2
#     Edge 37, Type (0, 0), BuildingBlock: KIFKEQ_clean_linker_1, # of connection points: 2
#     Edge 38, Type (0, 0), BuildingBlock: KIFKEQ_clean_linker_1, # of connection points: 2
#     Edge 39, Type (0, 0), BuildingBlock: KIFKEQ_clean_linker_1, # of connection points: 2
#     Edge 40, Type (0, 0), BuildingBlock: KIFKEQ_clean_linker_1, # of connection points: 2
#     Edge 41, Type (0, 0), BuildingBlock: KIFKEQ_clean_linker_1, # of connection points: 2
#     Edge 42, Type (0, 0), BuildingBlock: KIFKEQ_clean_linker_1, # of connection points: 2
#     Edge 43, Type (0, 0), BuildingBlock: KIFKEQ_clean_linker_1, # of connection points: 2
#     Edge 44, Type (0, 0), BuildingBlock: KIFKEQ_clean_linker_1, # of connection points: 2
#     Edge 45, Type (0, 0), BuildingBlock: KIFKEQ_clean_linker_1, # of connection points: 2
#     Edge 46, Type (0, 0), BuildingBlock: KIFKEQ_clean_linker_1, # of connection points: 2
#     Edge 47, Type (0, 0), BuildingBlock: KIFKEQ_clean_linker_1, # of connection points: 2
#     Edge 48, Type (0, 0), BuildingBlock: KIFKEQ_clean_linker_1, # of connection points: 2
#     Edge 49, Type (0, 0), BuildingBlock: KIFKEQ_clean_linker_1, # of connection points: 2
#     Edge 50, Type (0, 0), BuildingBlock: KIFKEQ_clean_linker_1, # of connection points: 2
#     Edge 51, Type (0, 0), BuildingBlock: KIFKEQ_clean_linker_1, # of connection points: 2
#     Edge 52, Type (0, 0), BuildingBlock: KIFKEQ_clean_linker_1, # of connection points: 2
#     Edge 53, Type (0, 0), BuildingBlock: KIFKEQ_clean_linker_1, # of connection points: 2
#     Edge 54, Type (0, 0), BuildingBlock: KIFKEQ_clean_linker_1, # of connection points: 2
#     Edge 55, Type (0, 0), BuildingBlock: KIFKEQ_clean_linker_1, # of connection points: 2
#     Edge 56, Type (0, 0), BuildingBlock: KIFKEQ_clean_linker_1, # of connection points: 2
#     Edge 57, Type (0, 0), BuildingBlock: KIFKEQ_clean_linker_1, # of connection points: 2
#     Edge 58, Type (0, 0), BuildingBlock: KIFKEQ_clean_linker_1, # of connection points: 2
#     Edge 59, Type (0, 0), BuildingBlock: KIFKEQ_clean_linker_1, # of connection points: 2
#     Edge 60, Type (0, 0), BuildingBlock: KIFKEQ_clean_linker_1, # of connection points: 2
#     Edge 61, Type (0, 0), BuildingBlock: KIFKEQ_clean_linker_1, # of connection points: 2
#     Edge 62, Type (0, 0), BuildingBlock: KIFKEQ_clean_linker_1, # of connection points: 2
#     Edge 63, Type (0, 0), BuildingBlock: KIFKEQ_clean_linker_1, # of connection points: 2
# Relax obj value: 0.161
# Max RMSD: 0.229
# Mean RMSD: 0.226
data_MOF--net-snl--node1-KUMJIN_clean_sbu_1--edge1-KIFKEQ_clean_linker_1
_symmetry_space_group_name_H-M    P1
_symmetry_Int_Tables_number       1
_symmetry_cell_setting            triclinic
loop_
_symmetry_equiv_pos_as_xyz
'x, y, z'
_cell_length_a     58.381749
_cell_length_b     58.367454
_cell_length_c     25.188065
_cell_angle_alpha  90.181147
_cell_angle_beta   90.232979
_cell_angle_gamma 90.038354
loop_
_atom_site_label
_atom_site_type_symbol
_atom_site_fract_x
_atom_site_fract_y
_atom_site_fract_z
_atom_type_partial_charge
Eu0 Eu 0.12848 0.62355 0.21057 0.0
C1 C 0.20763 0.63217 0.065 0.0
N2 N 0.19209 0.64932 0.06894 0.0
C3 C 0.22227 0.67685 0.07897 0.0
C4 C 0.23125 0.63654 0.07081 0.0
C5 C 0.19902 0.67159 0.07287 0.0
C6 C 0.23844 0.65917 0.07915 0.0
C7 C 0.21562 0.59283 0.0413 0.0
C8 C 0.19985 0.61063 0.05107 0.0
C9 C 0.23906 0.59653 0.05098 0.0
C10 C 0.24687 0.61838 0.06579 0.0
Eu11 Eu 0.15296 0.639 0.06505 0.0
N12 N 0.17716 0.6079 0.04089 0.0
C13 C 0.2075 0.5724 0.01883 0.0
C14 C 0.1698 0.5893 0.01262 0.0
C15 C 0.1846 0.57092 1.00284 0.0
H16 H 0.18647 0.68516 0.0725 0.0
H17 H 0.17842 0.55578 0.98238 0.0
H18 H 0.138 0.56673 0.22961 0.0
H19 H 0.04735 0.66695 0.24851 0.0
H20 H 0.15245 0.58856 0.99774 0.0
H21 H 0.21902 0.55829 1.01062 0.0
H22 H 0.08966 0.66287 0.24585 0.0
H23 H 0.2277 0.69447 0.08365 0.0
H24 H 0.2514 0.58294 0.04463 0.0
H25 H 0.26508 0.62127 0.07095 0.0
H26 H 0.11648 0.53039 0.22037 0.0
H27 H 0.25644 0.66326 0.08381 0.0
H28 H 0.02266 0.63397 0.22479 0.0
N29 N 0.10909 0.58767 0.21239 0.0
C30 C 0.08599 0.58844 0.20709 0.0
C31 C 0.10772 0.54661 0.21588 0.0
C32 C 0.07291 0.56822 0.2025 0.0
C33 C 0.11985 0.5672 0.22084 0.0
C34 C 0.08421 0.54711 0.20523 0.0
N35 N 0.08847 0.62811 0.22086 0.0
C36 C 0.07884 0.64834 0.23656 0.0
C37 C 0.0512 0.61086 0.21256 0.0
C38 C 0.07528 0.60939 0.2121 0.0
C39 C 0.04109 0.632 0.22452 0.0
C40 C 0.05499 0.65068 0.23793 0.0
H41 H 0.07481 0.53116 0.2018 0.0
H42 H 0.03861 0.55445 0.19303 0.0
H43 H 0.01964 0.59196 0.20057 0.0
O44 O 0.14771 0.63931 0.27603 0.0
O45 O 0.10709 0.6445 0.15208 0.0
O46 O 0.1146 0.62935 0.0706 0.0
O47 O 0.12156 0.61456 0.29325 0.0
O48 O 0.1328 0.66257 0.19758 0.0
O49 O 0.14625 0.6715 0.11228 0.0
O50 O 0.16046 0.63969 0.97992 0.0
O51 O 0.17417 0.64501 0.14207 0.0
O52 O 0.16512 0.61383 0.19128 0.0
O53 O 0.13986 0.66637 0.01408 0.0
O54 O 0.13259 0.60609 0.07496 0.0
O55 O 0.14407 0.59505 0.15759 0.0
C56 C 0.0998 0.6371 0.10582 0.0
C57 C 0.15202 0.6175 0.35445 0.0
C58 C 0.16136 0.61276 0.44867 0.0
C59 C 0.17885 0.59738 0.43428 0.0
C60 C 0.16937 0.60196 0.34115 0.0
C61 C 0.18283 0.59211 0.38092 0.0
C62 C 0.1481 0.62293 0.40815 0.0
C63 C 0.13951 0.67733 0.16052 0.0
C64 C 0.13746 0.62765 0.31291 0.0
C65 C 0.04895 0.56974 0.19799 0.0
C66 C 0.03812 0.59107 0.20278 0.0
C67 C 0.18002 0.62954 0.17782 0.0
C68 C 0.13027 0.65362 0.92693 0.0
C69 C 0.12186 0.64479 0.83359 0.0
C70 C 0.09838 0.64422 0.84588 0.0
C71 C 0.1067 0.65282 0.93801 0.0
C72 C 0.13775 0.64977 0.87444 0.0
C73 C 0.09092 0.64829 0.89761 0.0
C74 C 0.13684 0.58979 0.10932 0.0
C75 C 0.14715 0.65699 0.9703 0.0
H76 H 0.18954 0.58949 0.46432 0.0
H77 H 0.17234 0.59736 0.3001 0.0
H78 H 0.19629 0.58022 0.37038 0.0
H79 H 0.13438 0.63462 0.41836 0.0
H80 H 0.08574 0.64071 0.81531 0.0
H81 H 0.10044 0.65546 0.97798 0.0
H82 H 0.15592 0.64995 0.86579 0.0
H83 H 0.07281 0.64772 0.90654 0.0
Eu84 Eu 0.63354 0.90102 0.31722 0.0
C85 C 0.7069 0.8773 0.46608 0.0
N86 N 0.68754 0.86473 0.45788 0.0
C87 C 0.70976 0.83053 0.44802 0.0
C88 C 0.72866 0.86691 0.46324 0.0
C89 C 0.68856 0.84159 0.4505 0.0
C90 C 0.72991 0.84326 0.45397 0.0
C91 C 0.72479 0.91417 0.48315 0.0
C92 C 0.7049 0.90078 0.47546 0.0
C93 C 0.7465 0.90394 0.47916 0.0
C94 C 0.74843 0.88039 0.4693 0.0
Eu95 Eu 0.65263 0.88476 0.46407 0.0
N96 N 0.68364 0.91039 0.47845 0.0
C97 C 0.72229 0.93738 0.49596 0.0
C98 C 0.68124 0.93236 0.49623 0.0
C99 C 0.70042 0.94638 0.50365 0.0
H100 H 0.67299 0.83177 0.44621 0.0
H101 H 0.69833 0.96395 0.51657 0.0
H102 H 0.64236 0.95738 0.29731 0.0
H103 H 0.55886 0.84866 0.26792 0.0
H104 H 0.66471 0.93893 0.50705 0.0
H105 H 0.73714 0.94822 0.50223 0.0
H106 H 0.59882 0.85608 0.29625 0.0
H107 H 0.71057 0.81222 0.44142 0.0
H108 H 0.76192 0.91404 0.48449 0.0
H109 H 0.7653 0.87275 0.46676 0.0
H110 H 0.61978 0.99169 0.274 0.0
H111 H 0.74631 0.83466 0.45156 0.0
H112 H 0.53337 0.88105 0.24555 0.0
N113 N 0.61387 0.93472 0.29236 0.0
C114 C 0.59145 0.93216 0.27881 0.0
C115 C 0.61156 0.97508 0.27561 0.0
C116 C 0.57806 0.9512 0.26386 0.0
C117 C 0.62423 0.95566 0.28946 0.0
C118 C 0.58832 0.97288 0.2632 0.0
N119 N 0.59544 0.89229 0.29237 0.0
C120 C 0.58768 0.8703 0.28712 0.0
C121 C 0.55922 0.90687 0.26133 0.0
C122 C 0.58207 0.9103 0.27785 0.0
C123 C 0.55077 0.88443 0.25845 0.0
C124 C 0.56512 0.86607 0.271 0.0
H125 H 0.5786 0.98794 0.25202 0.0
H126 H 0.5445 0.96239 0.23746 0.0
H127 H 0.52813 0.92359 0.2345 0.0
O128 O 0.6493 0.87862 0.25843 0.0
O129 O 0.60333 0.8953 0.37155 0.0
O130 O 0.61321 0.88638 0.45882 0.0
O131 O 0.63758 0.91222 0.23455 0.0
O132 O 0.63942 0.86231 0.33474 0.0
O133 O 0.63372 0.85591 0.42443 0.0
O134 O 0.65505 0.89331 0.54855 0.0
O135 O 0.67504 0.8797 0.38903 0.0
O136 O 0.66834 0.91248 0.34524 0.0
O137 O 0.64982 0.85821 0.52457 0.0
O138 O 0.63469 0.9191 0.45489 0.0
O139 O 0.64598 0.93055 0.37179 0.0
C140 C 0.59794 0.89044 0.42087 0.0
C141 C 0.66534 0.89398 0.17957 0.0
C142 C 0.67644 0.89232 0.08621 0.0
C143 C 0.69957 0.8913 0.10181 0.0
C144 C 0.68846 0.89274 0.19426 0.0
C145 C 0.70551 0.89168 0.1556 0.0
C146 C 0.65942 0.89401 0.12545 0.0
C147 C 0.63553 0.84842 0.37543 0.0
C148 C 0.64697 0.89309 0.21942 0.0
C149 C 0.55507 0.94795 0.24892 0.0
C150 C 0.54572 0.92584 0.24736 0.0
C151 C 0.68278 0.89665 0.35971 0.0
C152 C 0.63472 0.86968 0.60763 0.0
C153 C 0.62667 0.87094 0.70291 0.0
C154 C 0.60413 0.86361 0.69193 0.0
C155 C 0.61213 0.86268 0.5976 0.0
C156 C 0.64181 0.87403 0.66004 0.0
C157 C 0.59695 0.85967 0.63967 0.0
C158 C 0.63812 0.93539 0.41982 0.0
C159 C 0.65128 0.87247 0.56425 0.0
H160 H 0.71301 0.89008 0.07241 0.0
H161 H 0.69321 0.89204 0.23545 0.0
H162 H 0.72334 0.89067 0.16736 0.0
H163 H 0.6415 0.89431 0.11396 0.0
H164 H 0.59207 0.86057 0.72367 0.0
H165 H 0.60629 0.85942 0.5574 0.0
H166 H 0.65914 0.87998 0.66712 0.0
H167 H 0.57958 0.85408 0.6318 0.0
Eu168 Eu 0.38908 0.40109 0.70267 0.0
C169 C 0.31594 0.35964 0.55882 0.0
N170 N 0.33789 0.35205 0.56386 0.0
C171 C 0.32478 0.3132 0.56778 0.0
C172 C 0.29743 0.34411 0.55962 0.0
C173 C 0.34258 0.32923 0.56725 0.0
C174 C 0.30211 0.32066 0.56425 0.0
C175 C 0.2893 0.39145 0.5516 0.0
C176 C 0.31196 0.38315 0.55516 0.0
C177 C 0.27085 0.37599 0.55253 0.0
C178 C 0.27491 0.35242 0.5565 0.0
Eu179 Eu 0.36674 0.38034 0.56306 0.0
N180 N 0.33014 0.39787 0.55618 0.0
C181 C 0.28582 0.41506 0.54704 0.0
C182 C 0.32681 0.42074 0.54824 0.0
C183 C 0.30467 0.42972 0.54457 0.0
H184 H 0.36006 0.32336 0.5685 0.0
H185 H 0.30217 0.44793 0.53907 0.0
H186 H 0.38949 0.45865 0.71033 0.0
H187 H 0.45998 0.34031 0.72614 0.0
H188 H 0.34101 0.43214 0.54295 0.0
H189 H 0.26869 0.4221 0.54419 0.0
H190 H 0.41981 0.35203 0.71722 0.0
H191 H 0.32857 0.29509 0.5707 0.0
H192 H 0.25336 0.38211 0.55011 0.0
H193 H 0.26048 0.34074 0.55726 0.0
H194 H 0.41766 0.49 0.71786 0.0
H195 H 0.28835 0.3082 0.56495 0.0
H196 H 0.49049 0.36961 0.73184 0.0
N197 N 0.4146 0.43227 0.71304 0.0
C198 C 0.43713 0.427 0.71937 0.0
C199 C 0.42338 0.47236 0.71803 0.0
C200 C 0.4538 0.44441 0.72416 0.0
C201 C 0.40748 0.45455 0.71324 0.0
C202 C 0.44665 0.46729 0.72321 0.0
N203 N 0.42722 0.38768 0.71374 0.0
C204 C 0.43281 0.36504 0.71774 0.0
C205 C 0.4669 0.3981 0.72611 0.0
C206 C 0.44362 0.40408 0.72014 0.0
C207 C 0.47281 0.37489 0.72738 0.0
C208 C 0.45565 0.35831 0.72385 0.0
H209 H 0.45893 0.48115 0.72677 0.0
H210 H 0.49004 0.45163 0.7329 0.0
H211 H 0.50151 0.4111 0.73459 0.0
O212 O 0.38679 0.38341 0.77856 0.0
O213 O 0.41405 0.40501 0.63391 0.0
O214 O 0.40569 0.37556 0.5763 0.0
O215 O 0.38338 0.42015 0.77663 0.0
O216 O 0.37992 0.36232 0.69216 0.0
O217 O 0.38821 0.35411 0.60493 0.0
O218 O 0.36784 0.39458 0.48292 0.0
O219 O 0.34354 0.37619 0.63698 0.0
O220 O 0.35152 0.408 0.68588 0.0
O221 O 0.36834 0.35793 0.49362 0.0
O222 O 0.37987 0.417 0.56782 0.0
O223 O 0.3719 0.42933 0.65274 0.0
C224 C 0.4205 0.38989 0.5984 0.0
C225 C 0.36463 0.4002 0.84571 0.0
C226 C 0.35312 0.39544 0.93804 0.0
C227 C 0.3302 0.39333 0.92135 0.0
C228 C 0.34173 0.39801 0.82984 0.0
C229 C 0.32456 0.39476 0.8675 0.0
C230 C 0.37027 0.3991 0.89986 0.0
C231 C 0.38494 0.34741 0.65395 0.0
C232 C 0.38296 0.4019 0.80612 0.0
C233 C 0.477 0.43848 0.72947 0.0
C234 C 0.48354 0.4154 0.73046 0.0
C235 C 0.33703 0.39208 0.67102 0.0
C236 C 0.38723 0.37269 0.41852 0.0
C237 C 0.39736 0.37438 0.32448 0.0
C238 C 0.41994 0.36813 0.33808 0.0
C239 C 0.40983 0.3667 0.43123 0.0
C240 C 0.38114 0.37674 0.36544 0.0
C241 C 0.42609 0.36446 0.39107 0.0
C242 C 0.37667 0.43365 0.60239 0.0
C243 C 0.36967 0.37468 0.45987 0.0
H244 H 0.31667 0.39059 0.94996 0.0
H245 H 0.33732 0.39845 0.78834 0.0
H246 H 0.30689 0.39304 0.85487 0.0
H247 H 0.38806 0.4003 0.91207 0.0
H248 H 0.43282 0.36571 0.30778 0.0
H249 H 0.41486 0.36363 0.47203 0.0
H250 H 0.36373 0.38189 0.35633 0.0
H251 H 0.4435 0.35967 0.40099 0.0
Eu252 Eu 0.87147 0.14332 0.95299 0.0
C253 C 0.87967 0.06564 0.79759 0.0
N254 N 0.89657 0.08106 0.80712 0.0
C255 C 0.92392 0.05071 0.81639 0.0
C256 C 0.88401 0.04191 0.79993 0.0
C257 C 0.91873 0.07408 0.81372 0.0
C258 C 0.90639 0.03455 0.81062 0.0
C259 C 0.841 0.05818 0.76709 0.0
C260 C 0.85846 0.07371 0.78172 0.0
C261 C 0.84467 0.03452 0.77292 0.0
C262 C 0.86615 0.0264 0.78933 0.0
Eu263 Eu 0.88632 0.12019 0.80565 0.0
N264 N 0.85573 0.09664 0.77531 0.0
C265 C 0.82092 0.06684 0.74421 0.0
C266 C 0.83729 0.10485 0.74783 0.0
C267 C 0.81933 0.09021 0.73319 0.0
H268 H 0.9322 0.08665 0.81871 0.0
H269 H 0.80439 0.09695 0.71302 0.0
H270 H 0.81404 0.13618 0.96808 0.0
H271 H 0.91824 0.2223 0.99618 0.0
H272 H 0.83632 0.12275 0.73727 0.0
H273 H 0.8071 0.0555 0.73236 0.0
H274 H 0.9124 0.1802 0.99076 0.0
H275 H 0.94137 0.04519 0.82321 0.0
H276 H 0.83135 0.02234 0.76263 0.0
H277 H 0.86904 1.00809 0.79164 0.0
H278 H 0.77888 0.15932 0.95737 0.0
H279 H 0.91044 0.01646 0.8127 0.0
H280 H 0.88644 0.24853 0.97298 0.0
N281 N 0.83651 0.16422 0.95375 0.0
C282 C 0.83838 0.1873 0.94972 0.0
C283 C 0.79552 0.16739 0.95445 0.0
C284 C 0.81884 0.20128 0.94438 0.0
C285 C 0.81547 0.15433 0.96018 0.0
C286 C 0.79722 0.19091 0.94507 0.0
N287 N 0.87784 0.18303 0.96503 0.0
C288 C 0.89839 0.19169 0.98175 0.0
C289 C 0.86229 0.22105 0.95797 0.0
C290 C 0.85975 0.19706 0.95639 0.0
C291 C 0.88374 0.23018 0.97144 0.0
C292 C 0.90173 0.21542 0.98461 0.0
H293 H 0.78177 0.20103 0.94098 0.0
H294 H 0.80677 0.23619 0.93521 0.0
H295 H 0.84502 0.25341 0.94542 0.0
O296 O 0.88716 0.12471 0.01914 0.0
O297 O 0.89218 0.16503 0.89493 0.0
O298 O 0.87634 0.1582 0.81355 0.0
O299 O 0.86086 0.14951 0.03502 0.0
O300 O 0.91017 0.13602 0.94209 0.0
O301 O 0.91826 0.12862 0.85268 0.0
O302 O 0.88723 0.11597 0.71841 0.0
O303 O 0.89109 0.0976 0.88075 0.0
O304 O 0.86038 0.10742 0.93085 0.0
O305 O 0.91553 0.13262 0.76015 0.0
O306 O 0.85344 0.14023 0.81765 0.0
O307 O 0.84297 0.12771 0.89982 0.0
C308 C 0.88463 0.17263 0.84914 0.0
C309 C 0.86498 0.11937 0.09647 0.0
C310 C 0.86278 0.10821 0.18995 0.0
C311 C 0.84735 0.09069 0.17561 0.0
C312 C 0.84929 0.1021 0.08325 0.0
C313 C 0.84065 0.08773 0.12264 0.0
C314 C 0.87159 0.12246 0.14976 0.0
C315 C 0.92466 0.1322 0.90235 0.0
C316 C 0.87458 0.13437 0.05534 0.0
C317 C 0.82149 0.22516 0.94089 0.0
C318 C 0.84324 0.23501 0.9474 0.0
C319 C 0.87551 0.09211 0.91642 0.0
C320 C 0.91952 0.12912 0.6643 0.0
C321 C 0.92062 0.13006 0.56692 0.0
C322 C 0.94402 0.13579 0.56987 0.0
C323 C 0.94283 0.13506 0.66574 0.0
C324 C 0.90847 0.12649 0.61464 0.0
C325 C 0.95496 0.13827 0.61884 0.0
C326 C 0.83744 0.13514 0.85198 0.0
C327 C 0.90713 0.1258 0.71488 0.0
H328 H 0.84013 0.07954 0.20547 0.0
H329 H 0.8437 0.09986 0.04257 0.0
H330 H 0.82861 0.07434 0.11215 0.0
H331 H 0.88378 0.13583 0.15978 0.0
H332 H 0.95403 0.13813 0.53418 0.0
H333 H 0.95179 0.13709 0.70322 0.0
H334 H 0.89043 0.12217 0.61318 0.0
H335 H 0.97297 0.14267 0.62044 0.0
Eu336 Eu 0.12906 0.39849 0.82374 0.0
C337 C 0.19798 0.34887 0.95647 0.0
N338 N 0.17492 0.34601 0.95947 0.0
C339 C 0.1797 0.30525 0.95322 0.0
C340 C 0.21275 0.33002 0.94897 0.0
C341 C 0.1659 0.32445 0.96208 0.0
C342 C 0.20319 0.30807 0.9455 0.0
C343 C 0.23084 0.3739 0.96768 0.0
C344 C 0.20696 0.37047 0.96554 0.0
C345 C 0.24559 0.35547 0.95708 0.0
C346 C 0.23655 0.33357 0.94758 0.0
Eu347 Eu 0.15264 0.37995 0.96768 0.0
N348 N 0.19224 0.388 0.9747 0.0
C349 C 0.23912 0.39561 0.98194 0.0
C350 C 0.20011 0.40879 0.99191 0.0
C351 C 0.22367 0.41301 0.99511 0.0
H352 H 0.14801 0.32197 0.9711 0.0
H353 H 0.2299 0.42967 1.00744 0.0
H354 H 0.10612 0.45024 0.83933 0.0
H355 H 0.08919 0.32195 0.73571 0.0
H356 H 0.18809 0.42217 1.00193 0.0
H357 H 0.25737 0.39894 0.9842 0.0
H358 H 0.12115 0.34753 0.75953 0.0
H359 H 0.17225 0.28829 0.95297 0.0
H360 H 0.26401 0.35782 0.95769 0.0
H361 H 0.24814 0.31934 0.94118 0.0
H362 H 0.06772 0.46828 0.84159 0.0
H363 H 0.2139 0.29314 0.93948 0.0
H364 H 0.0492 0.33466 0.74889 0.0
N365 N 0.09312 0.41698 0.82285 0.0
C366 C 0.07453 0.40404 0.81069 0.0
C367 C 0.06938 0.45017 0.83313 0.0
C368 C 0.05233 0.41353 0.81131 0.0
C369 C 0.09104 0.43995 0.83192 0.0
C370 C 0.04989 0.43684 0.82345 0.0
N371 N 0.09969 0.3735 0.79223 0.0
C372 C 0.10386 0.35293 0.76802 0.0
C373 C 0.05903 0.36776 0.78067 0.0
C374 C 0.07789 0.38148 0.79573 0.0
C375 C 0.0632 0.34576 0.76082 0.0
C376 C 0.08574 0.33851 0.7534 0.0
H377 H 0.03312 0.44476 0.82451 0.0
H378 H 0.01616 0.40645 0.80022 0.0
H379 H 0.02205 0.36635 0.77308 0.0
O380 O 0.12495 0.40138 0.7374 0.0
O381 O 0.10767 0.4056 0.89743 0.0
O382 O 0.11395 0.37501 0.95174 0.0
O383 O 0.1483 0.42388 0.77866 0.0
O384 O 0.14062 0.36111 0.83692 0.0
O385 O 0.13061 0.35377 0.92316 0.0
O386 O 0.14818 0.39828 0.04253 0.0
O387 O 0.17647 0.39576 0.90346 0.0
O388 O 0.16256 0.37925 0.82865 0.0
O389 O 0.15347 0.36191 0.04415 0.0
O390 O 0.14229 0.41723 0.9643 0.0
O391 O 0.14253 0.42876 0.8755 0.0
C392 C 0.0998 0.38979 0.92932 0.0
C393 C 0.15806 0.41311 0.69002 0.0
C394 C 0.16695 0.40555 0.59606 0.0
C395 C 0.19039 0.40832 0.60832 0.0
C396 C 0.18158 0.41552 0.70067 0.0
C397 C 0.19756 0.41303 0.66012 0.0
C398 C 0.15089 0.40796 0.6377 0.0
C399 C 0.13375 0.34674 0.87402 0.0
C400 C 0.14089 0.41677 0.73256 0.0
C401 C 0.0334 0.3996 0.79909 0.0
C402 C 0.03675 0.37673 0.78386 0.0
C403 C 0.17997 0.38745 0.85535 0.0
C404 C 0.1321 0.37853 0.1144 0.0
C405 C 0.12222 0.38152 0.20845 0.0
C406 C 0.09893 0.37995 0.1947 0.0
C407 C 0.10877 0.37674 0.10154 0.0
C408 C 0.1388 0.3806 0.168 0.0
C409 C 0.0923 0.37736 0.14161 0.0
C410 C 0.14327 0.43314 0.92746 0.0
C411 C 0.14942 0.38018 0.07221 0.0
H412 H 0.20334 0.40731 0.57778 0.0
H413 H 0.1877 0.41955 0.74025 0.0
H414 H 0.21563 0.41508 0.66876 0.0
H415 H 0.13277 0.40579 0.62975 0.0
H416 H 0.08588 0.38064 0.22512 0.0
H417 H 0.1033 0.37529 0.06052 0.0
H418 H 0.1568 0.38227 0.17807 0.0
H419 H 0.07431 0.37613 0.13143 0.0
Eu420 Eu 0.89088 0.90321 0.20209 0.0
C421 C 0.81988 0.85581 0.05589 0.0
N422 N 0.84244 0.85031 0.06097 0.0
C423 C 0.83314 0.81032 0.06102 0.0
C424 C 0.80296 0.83856 0.05439 0.0
C425 C 0.8493 0.82799 0.06249 0.0
C426 C 0.80987 0.81561 0.05719 0.0
C427 C 0.79027 0.885 0.05028 0.0
C428 C 0.81359 0.87886 0.05383 0.0
C429 C 0.77343 0.86781 0.04867 0.0
C430 C 0.77975 0.84469 0.05069 0.0
Eu431 Eu 0.86826 0.88138 0.06352 0.0
N432 N 0.83021 0.89523 0.05767 0.0
C433 C 0.78453 0.90826 0.04894 0.0
C434 C 0.82475 0.91789 0.05428 0.0
C435 C 0.80186 0.92475 0.05048 0.0
H436 H 0.86729 0.82378 0.0637 0.0
H437 H 0.7976 0.94277 0.04846 0.0
H438 H 0.89186 0.96071 0.21005 0.0
H439 H 0.96128 0.84172 0.22336 0.0
H440 H 0.83788 0.93077 0.05387 0.0
H441 H 0.76681 0.91366 0.04627 0.0
H442 H 0.92119 0.85386 0.21563 0.0
H443 H 0.83866 0.79263 0.06253 0.0
H444 H 0.75543 0.87224 0.0461 0.0
H445 H 0.76653 0.83165 0.04962 0.0
H446 H 0.92036 0.99179 0.21706 0.0
H447 H 0.79738 0.80187 0.05618 0.0
H448 H 0.99211 0.87071 0.2283 0.0
N449 N 0.91674 0.93411 0.21168 0.0
C450 C 0.93926 0.92862 0.21716 0.0
C451 C 0.92591 0.97411 0.21684 0.0
C452 C 0.95611 0.94586 0.22165 0.0
C453 C 0.90983 0.95644 0.21237 0.0
C454 C 0.94916 0.96881 0.2212 0.0
N455 N 0.92894 0.8894 0.21157 0.0
C456 C 0.93433 0.86672 0.21551 0.0
C457 C 0.96878 0.89944 0.22294 0.0
C458 C 0.94553 0.90564 0.2175 0.0
C459 C 0.97446 0.87617 0.22414 0.0
C460 C 0.95712 0.85976 0.22105 0.0
H461 H 0.96158 0.98255 0.22455 0.0
H462 H 0.99246 0.95273 0.22948 0.0
H463 H 1.00355 0.91209 0.23066 0.0
O464 O 0.89092 0.88624 0.27894 0.0
O465 O 0.91494 0.90755 0.1318 0.0
O466 O 0.90705 0.87686 0.07773 0.0
O467 O 0.88397 0.92242 0.27537 0.0
O468 O 0.88028 0.86477 0.19312 0.0
O469 O 0.8901 0.85601 0.10737 0.0
O470 O 0.86949 0.89742 0.98531 0.0
O471 O 0.844 0.87906 0.13616 0.0
O472 O 0.85347 0.91039 0.18583 0.0
O473 O 0.87056 0.86056 0.99157 0.0
O474 O 0.87976 0.91861 0.06679 0.0
O475 O 0.87381 0.93166 0.15233 0.0
C476 C 0.92154 0.89216 0.0971 0.0
C477 C 0.86713 0.90117 0.3451 0.0
C478 C 0.85571 0.89613 0.43744 0.0
C479 C 0.83334 0.89096 0.42023 0.0
C480 C 0.84489 0.8955 0.32877 0.0
C481 C 0.82798 0.89076 0.36616 0.0
C482 C 0.87249 0.9016 0.39949 0.0
C483 C 0.88573 0.84954 0.15604 0.0
C484 C 0.88533 0.90447 0.30571 0.0
C485 C 0.97929 0.93971 0.22628 0.0
C486 C 0.9856 0.91657 0.22697 0.0
C487 C 0.8385 0.89485 0.17148 0.0
C488 C 0.88952 0.87731 0.91892 0.0
C489 C 0.89985 0.87981 0.82512 0.0
C490 C 0.92276 0.87516 0.83913 0.0
C491 C 0.91244 0.87288 0.93206 0.0
C492 C 0.88335 0.88099 0.86575 0.0
C493 C 0.92896 0.87184 0.89223 0.0
C494 C 0.87715 0.9355 0.10107 0.0
C495 C 0.87174 0.87808 0.95994 0.0
H496 H 0.82006 0.88687 0.44861 0.0
H497 H 0.84089 0.89418 0.28713 0.0
H498 H 0.8108 0.88645 0.35314 0.0
H499 H 0.88991 0.9052 0.41207 0.0
H500 H 0.93589 0.8737 0.80907 0.0
H501 H 0.91751 0.8701 0.97294 0.0
H502 H 0.86566 0.8849 0.85628 0.0
H503 H 0.94662 0.86826 0.90248 0.0
Eu504 Eu 0.37506 0.64098 0.45842 0.0
C505 C 0.3886 0.56413 0.30908 0.0
N506 N 0.40346 0.58177 0.31672 0.0
C507 C 0.43463 0.55541 0.32625 0.0
C508 C 0.39608 0.54123 0.31248 0.0
C509 C 0.42637 0.57785 0.32302 0.0
C510 C 0.41938 0.53702 0.32175 0.0
C511 C 0.3502 0.55118 0.28768 0.0
C512 C 0.36591 0.56912 0.29726 0.0
C513 C 0.35732 0.52833 0.2934 0.0
C514 C 0.38021 0.52336 0.30574 0.0
Eu515 Eu 0.38814 0.61913 0.31201 0.0
N516 N 0.35958 0.59143 0.29155 0.0
C517 C 0.32807 0.55673 0.2705 0.0
C518 C 0.33892 0.59665 0.2692 0.0
C519 C 0.32259 0.57955 0.25999 0.0
H520 H 0.43812 0.59209 0.32658 0.0
H521 H 0.30597 0.58394 0.24373 0.0
H522 H 0.31666 0.64508 0.46496 0.0
H523 H 0.43674 0.70547 0.52191 0.0
H524 H 0.33517 0.61392 0.257 0.0
H525 H 0.31549 0.54347 0.26269 0.0
H526 H 0.4228 0.66643 0.50012 0.0
H527 H 0.45272 0.55231 0.33241 0.0
H528 H 0.34541 0.51434 0.28681 0.0
H529 H 0.38557 0.50564 0.30882 0.0
H530 H 0.28738 0.6753 0.46175 0.0
H531 H 0.42582 0.51965 0.32456 0.0
H532 H 0.41042 0.73857 0.51452 0.0
N533 N 0.34484 0.66834 0.46214 0.0
C534 C 0.35141 0.69058 0.46806 0.0
C535 C 0.30535 0.67987 0.46256 0.0
C536 C 0.33513 0.70845 0.46884 0.0
C537 C 0.32209 0.66275 0.46323 0.0
C538 C 0.31191 0.70285 0.46418 0.0
N539 N 0.38934 0.67766 0.47947 0.0
C540 C 0.41131 0.68087 0.49681 0.0
C541 C 0.38143 0.71784 0.49001 0.0
C542 C 0.37427 0.69531 0.47821 0.0
C543 C 0.40427 0.72151 0.50505 0.0
C544 C 0.41919 0.70288 0.50926 0.0
H545 H 0.29888 0.71607 0.46452 0.0
H546 H 0.33018 0.7451 0.47706 0.0
H547 H 0.37081 0.75325 0.49602 0.0
O548 O 0.38995 0.62151 0.52436 0.0
O549 O 0.39437 0.664 0.40123 0.0
O550 O 0.37838 0.6573 0.31999 0.0
O551 O 0.36298 0.64577 0.53967 0.0
O552 O 0.41291 0.62967 0.44435 0.0
O553 O 0.42007 0.63227 0.35359 0.0
O554 O 0.3845 0.61381 0.22626 0.0
O555 O 0.39261 0.59647 0.38686 0.0
O556 O 0.36158 0.6062 0.43482 0.0
O557 O 0.41554 0.62862 0.25735 0.0
O558 O 0.35459 0.63845 0.32241 0.0
O559 O 0.34405 0.62866 0.40713 0.0
C560 C 0.38647 0.67171 0.35592 0.0
C561 C 0.36742 0.61584 0.60141 0.0
C562 C 0.36363 0.60656 0.69554 0.0
C563 C 0.34767 0.58942 0.68202 0.0
C564 C 0.3514 0.5988 0.58872 0.0
C565 C 0.34177 0.58548 0.62888 0.0
C566 C 0.37367 0.61953 0.65474 0.0
C567 C 0.42721 0.63078 0.40328 0.0
C568 C 0.37689 0.63083 0.56018 0.0
C569 C 0.34242 0.73115 0.47693 0.0
C570 C 0.36552 0.73581 0.48778 0.0
C571 C 0.37628 0.5906 0.42018 0.0
C572 C 0.40326 0.64059 0.17178 0.0
C573 C 0.39792 0.64959 0.07759 0.0
C574 C 0.40076 0.67297 0.08977 0.0
C575 C 0.40582 0.66405 0.18293 0.0
C576 C 0.3994 0.63344 0.11901 0.0
C577 C 0.40471 0.68008 0.14201 0.0
C578 C 0.33858 0.63487 0.35804 0.0
C579 C 0.40388 0.62346 0.21477 0.0
H580 H 0.33976 0.57912 0.7126 0.0
H581 H 0.34612 0.5961 0.54798 0.0
H582 H 0.32942 0.57229 0.61888 0.0
H583 H 0.38573 0.63303 0.66463 0.0
H584 H 0.40003 0.68578 0.0588 0.0
H585 H 0.40859 0.67001 0.22323 0.0
H586 H 0.39702 0.61538 0.11048 0.0
H587 H 0.40682 0.69812 0.15086 0.0
Eu588 Eu 0.64822 0.1426 0.57201 0.0
C589 C 0.6287 0.06587 0.72073 0.0
N590 N 0.61429 0.0836 0.71069 0.0
C591 C 0.58308 0.05754 0.69715 0.0
C592 C 0.62102 0.04303 0.71661 0.0
C593 C 0.59153 0.07991 0.70134 0.0
C594 C 0.59797 0.03901 0.70393 0.0
C595 C 0.66605 0.05268 0.74954 0.0
C596 C 0.65095 0.07071 0.73664 0.0
C597 C 0.65887 0.02986 0.74291 0.0
C598 C 0.6364 0.02505 0.72651 0.0
Eu599 Eu 0.62989 0.1208 0.71687 0.0
N600 N 0.65726 0.09297 0.74334 0.0
C601 C 0.68755 0.05813 0.7709 0.0
C602 C 0.67722 0.09819 0.76915 0.0
C603 C 0.69293 0.08097 0.78191 0.0
H604 H 0.58011 0.09429 0.69577 0.0
H605 H 0.70902 0.0853 0.80094 0.0
H606 H 0.70605 0.13606 0.56448 0.0
H607 H 0.60107 0.22078 0.52436 0.0
H608 H 0.68101 0.11561 0.78069 0.0
H609 H 0.69964 0.0448 0.78136 0.0
H610 H 0.60735 0.17876 0.53022 0.0
H611 H 0.56515 0.0546 0.68843 0.0
H612 H 0.67034 0.01581 0.75202 0.0
H613 H 0.63092 1.00737 0.72296 0.0
H614 H 0.7406 0.1598 0.57866 0.0
H615 H 0.5914 0.0217 0.70047 0.0
H616 H 0.63218 0.2475 0.55012 0.0
N617 N 0.68292 0.16391 0.57481 0.0
C618 C 0.68066 0.18701 0.57771 0.0
C619 C 0.72382 0.16766 0.57918 0.0
C620 C 0.6999 0.20131 0.58505 0.0
C621 C 0.70419 0.15426 0.57155 0.0
C622 C 0.72163 0.19124 0.58737 0.0
N623 N 0.64147 0.18216 0.55873 0.0
C624 C 0.62109 0.19048 0.54017 0.0
C625 C 0.65649 0.22041 0.56673 0.0
C626 C 0.65931 0.19646 0.56854 0.0
C627 C 0.63511 0.2292 0.55172 0.0
C628 C 0.61749 0.21416 0.53716 0.0
H629 H 0.73685 0.2016 0.59305 0.0
H630 H 0.71133 0.23642 0.59501 0.0
H631 H 0.67311 0.25305 0.58091 0.0
O632 O 0.63183 0.12668 0.50277 0.0
O633 O 0.62851 0.16611 0.62826 0.0
O634 O 0.64194 0.15831 0.71147 0.0
O635 O 0.66221 0.14688 0.4921 0.0
O636 O 0.60974 0.13349 0.58047 0.0
O637 O 0.60006 0.1354 0.67034 0.0
O638 O 0.63044 0.1171 0.80427 0.0
O639 O 0.6258 0.09821 0.64101 0.0
O640 O 0.65791 0.10644 0.59446 0.0
O641 O 0.60072 0.13189 0.76436 0.0
O642 O 0.66423 0.1387 0.70964 0.0
O643 O 0.67555 0.12649 0.62732 0.0
C644 C 0.63548 0.17318 0.67509 0.0
C645 C 0.65469 0.11815 0.42798 0.0
C646 C 0.65555 0.10631 0.33454 0.0
C647 C 0.66914 0.0874 0.34911 0.0
C648 C 0.66845 0.09939 0.44138 0.0
C649 C 0.67552 0.08403 0.40211 0.0
C650 C 0.64834 0.12161 0.37465 0.0
C651 C 0.59451 0.13466 0.61954 0.0
C652 C 0.64675 0.13429 0.46898 0.0
C653 C 0.69688 0.22516 0.58781 0.0
C654 C 0.67516 0.23467 0.57901 0.0
C655 C 0.64195 0.09178 0.60749 0.0
C656 C 0.59821 0.1289 0.86061 0.0
C657 C 0.59806 0.1297 0.95811 0.0
C658 C 0.57468 0.13554 0.95651 0.0
C659 C 0.57491 0.13486 0.8606 0.0
C660 C 0.60974 0.12614 0.90967 0.0
C661 C 0.56326 0.13806 0.9082 0.0
C662 C 0.68052 0.13374 0.67579 0.0
C663 C 0.61009 0.12587 0.80914 0.0
H664 H 0.67518 0.07541 0.31942 0.0
H665 H 0.67373 0.09673 0.48211 0.0
H666 H 0.68609 0.06951 0.41273 0.0
H667 H 0.63755 0.13608 0.36458 0.0
H668 H 0.56507 0.13793 0.99281 0.0
H669 H 0.56557 0.13699 0.82369 0.0
H670 H 0.62777 0.12174 0.91017 0.0
H671 H 0.54527 0.14252 0.90766 0.0
Eu672 Eu 0.88983 0.39898 0.80953 0.0
C673 C 0.84523 0.33499 0.97588 0.0
N674 N 0.84035 0.35708 0.96293 0.0
C675 C 0.80013 0.34833 0.9628 0.0
C676 C 0.82764 0.31855 0.98127 0.0
C677 C 0.81805 0.36415 0.95967 0.0
C678 C 0.80496 0.32534 0.97277 0.0
C679 C 0.87301 0.30716 1.00748 0.0
C680 C 0.86766 0.32923 0.98847 0.0
C681 C 0.85566 0.29063 1.01133 0.0
C682 C 0.83306 0.29624 0.99776 0.0
Eu683 Eu 0.87235 0.38219 0.95686 0.0
N684 N 0.88404 0.34566 0.98546 0.0
C685 C 0.89547 0.30265 0.02417 0.0
C686 C 0.9056 0.34186 1.00474 0.0
C687 C 0.91176 0.32019 0.02353 0.0
H688 H 0.81383 0.38206 0.9555 0.0
H689 H 0.929 0.31706 0.03765 0.0
H690 H 0.94043 0.42436 0.82881 0.0
H691 H 0.81151 0.43525 0.72314 0.0
H692 H 0.91809 0.35553 1.00485 0.0
H693 H 0.90023 0.2859 0.03898 0.0
H694 H 0.83855 0.4045 0.74656 0.0
H695 H 0.78256 0.35398 0.95878 0.0
H696 H 0.85941 0.27365 0.02624 0.0
H697 H 0.81977 0.28342 1.00211 0.0
H698 H 0.95658 0.46366 0.83203 0.0
H699 H 0.79099 0.31322 0.97635 0.0
H700 H 0.82242 0.47578 0.73721 0.0
N701 N 0.90665 0.43575 0.8119 0.0
C702 C 0.89284 0.45369 0.79932 0.0
C703 C 0.9386 0.46109 0.82319 0.0
C704 C 0.90123 0.47632 0.80092 0.0
C705 C 0.92948 0.43894 0.82135 0.0
C706 C 0.92434 0.47989 0.81374 0.0
N707 N 0.86321 0.42709 0.78063 0.0
C708 C 0.84296 0.42199 0.75599 0.0
C709 C 0.85586 0.46746 0.76931 0.0
C710 C 0.87038 0.44924 0.7842 0.0
C711 C 0.83408 0.46229 0.74913 0.0
C712 C 0.82783 0.43944 0.7413 0.0
H713 H 0.93144 0.49704 0.81536 0.0
H714 H 0.8925 0.5121 0.79029 0.0
H715 H 0.85281 0.50434 0.7623 0.0
O716 O 0.8883 0.40068 0.7219 0.0
O717 O 0.89399 0.42369 0.88181 0.0
O718 O 0.86154 0.41694 0.92721 0.0
O719 O 0.91871 0.38735 0.76166 0.0
O720 O 0.85514 0.38165 0.81819 0.0
O721 O 0.84353 0.39485 0.89979 0.0
O722 O 0.8882 0.40135 0.02239 0.0
O723 O 0.89028 0.35534 0.90575 0.0
O724 O 0.87779 0.36162 0.82077 0.0
O725 O 0.85752 0.38177 0.03654 0.0
O726 O 0.9108 0.39148 0.94491 0.0
O727 O 0.91934 0.38397 0.85645 0.0
C728 C 0.87758 0.43124 0.91326 0.0
C729 C 0.92005 0.38827 0.66491 0.0
C730 C 0.91987 0.38844 0.56734 0.0
C731 C 0.94254 0.38024 0.56819 0.0
C732 C 0.94264 0.37998 0.66411 0.0
C733 C 0.95375 0.37607 0.61612 0.0
C734 C 0.90873 0.39263 0.6162 0.0
C735 C 0.83871 0.38711 0.85143 0.0
C736 C 0.90878 0.39228 0.71679 0.0
C737 C 0.88645 0.49456 0.78878 0.0
C738 C 0.86382 0.49014 0.77301 0.0
C739 C 0.88379 0.34743 0.85918 0.0
C740 C 0.86627 0.41116 0.09859 0.0
C741 C 0.86558 0.42211 0.19264 0.0
C742 C 0.85354 0.44211 0.17868 0.0
C743 C 0.85391 0.43093 0.08577 0.0
C744 C 0.87198 0.40677 0.15193 0.0
C745 C 0.84774 0.44642 0.12565 0.0
C746 C 0.92568 0.38729 0.90616 0.0
C747 C 0.87331 0.39468 0.05746 0.0
H748 H 0.95178 0.37728 0.53161 0.0
H749 H 0.95182 0.37656 0.70069 0.0
H750 H 0.9712 0.36979 0.61607 0.0
H751 H 0.89127 0.3989 0.61629 0.0
H752 H 0.84819 0.45422 0.20884 0.0
H753 H 0.84897 0.43423 0.04513 0.0
H754 H 0.8816 0.39145 0.16158 0.0
H755 H 0.83828 0.46174 0.11548 0.0
Eu756 Eu 0.36924 0.14189 0.56709 0.0
C757 C 0.44183 0.09626 0.71413 0.0
N758 N 0.41954 0.08986 0.70843 0.0
C759 C 0.43047 0.05029 0.70711 0.0
C760 C 0.45943 0.07972 0.71556 0.0
C761 C 0.4136 0.06728 0.70581 0.0
C762 C 0.45349 0.05653 0.71176 0.0
C763 C 0.4701 0.12657 0.72307 0.0
C764 C 0.4471 0.11947 0.71734 0.0
C765 C 0.48766 0.11015 0.72428 0.0
C766 C 0.48235 0.0868 0.72044 0.0
Eu767 Eu 0.39232 0.11971 0.70501 0.0
N768 N 0.42981 0.13508 0.71419 0.0
C769 C 0.47479 0.15 0.72754 0.0
C770 C 0.43425 0.15782 0.72166 0.0
C771 C 0.45675 0.16566 0.72746 0.0
H772 H 0.39583 0.06225 0.70324 0.0
H773 H 0.46014 0.18376 0.73262 0.0
H774 H 0.37224 0.19954 0.56481 0.0
H775 H 0.29488 0.08523 0.55285 0.0
H776 H 0.42058 0.17 0.72498 0.0
H777 H 0.4922 0.15614 0.73218 0.0
H778 H 0.33594 0.09478 0.55889 0.0
H779 H 0.4257 0.0324 0.7047 0.0
H780 H 0.50542 0.11534 0.72815 0.0
H781 H 0.49609 0.07434 0.72135 0.0
H782 H 0.34575 0.23247 0.56272 0.0
H783 H 0.46652 0.04332 0.71266 0.0
H784 H 0.26604 0.11622 0.54934 0.0
N785 N 0.34564 0.17465 0.56306 0.0
C786 C 0.32276 0.17062 0.55843 0.0
C787 C 0.33906 0.21517 0.56178 0.0
C788 C 0.30704 0.18894 0.55626 0.0
C789 C 0.354 0.19649 0.5637 0.0
C790 C 0.31547 0.21139 0.55827 0.0
N791 N 0.33042 0.13069 0.5612 0.0
C792 C 0.32356 0.1084 0.55836 0.0
C793 C 0.29129 0.14339 0.55309 0.0
C794 C 0.31494 0.14806 0.55682 0.0
C795 C 0.28407 0.12051 0.55215 0.0
C796 C 0.30029 0.10296 0.55439 0.0
H797 H 0.30394 0.22592 0.55679 0.0
H798 H 0.27116 0.19817 0.55087 0.0
H799 H 0.25739 0.15835 0.54813 0.0
O800 O 0.37146 0.12445 0.49041 0.0
O801 O 0.3446 0.14335 0.639 0.0
O802 O 0.35462 0.11298 0.69145 0.0
O803 O 0.37152 0.16143 0.49354 0.0
O804 O 0.37925 0.10415 0.57046 0.0
O805 O 0.37354 0.09186 0.65671 0.0
O806 O 0.39315 0.13531 0.78362 0.0
O807 O 0.41515 0.11499 0.63242 0.0
O808 O 0.4077 0.14672 0.58238 0.0
O809 O 0.38687 0.09908 0.7766 0.0
O810 O 0.3809 0.15784 0.69767 0.0
O811 O 0.39124 0.16681 0.61258 0.0
C812 C 0.33952 0.1281 0.67574 0.0
C813 C 0.39161 0.14391 0.42341 0.0
C814 C 0.40274 0.14125 0.33013 0.0
C815 C 0.42555 0.14585 0.34522 0.0
C816 C 0.41442 0.14833 0.43765 0.0
C817 C 0.4313 0.14924 0.39862 0.0
C818 C 0.38589 0.14015 0.36997 0.0
C819 C 0.37598 0.08772 0.60532 0.0
C820 C 0.37345 0.14337 0.46352 0.0
C821 C 0.28347 0.18431 0.55247 0.0
C822 C 0.27563 0.16162 0.55088 0.0
C823 C 0.42199 0.13088 0.59941 0.0
C824 C 0.37028 0.11886 0.84917 0.0
C825 C 0.35955 0.1237 0.94202 0.0
C826 C 0.33682 0.12783 0.926 0.0
C827 C 0.34766 0.12341 0.83402 0.0
C828 C 0.37619 0.11885 0.90327 0.0
C829 C 0.33092 0.12755 0.87224 0.0
C830 C 0.38627 0.17317 0.66108 0.0
C831 C 0.38821 0.11654 0.80875 0.0
H832 H 0.43894 0.14725 0.31579 0.0
H833 H 0.41913 0.15122 0.47874 0.0
H834 H 0.44888 0.1528 0.40972 0.0
H835 H 0.36827 0.13626 0.35968 0.0
H836 H 0.32369 0.13148 0.95508 0.0
H837 H 0.3432 0.12436 0.7926 0.0
H838 H 0.39386 0.11611 0.91499 0.0
H839 H 0.31346 0.13105 0.86012 0.0
Eu840 Eu 0.65477 0.63558 0.45862 0.0
C841 C 0.58439 0.59385 0.30789 0.0
N842 N 0.6071 0.58884 0.31062 0.0
C843 C 0.59833 0.54863 0.31013 0.0
C844 C 0.56769 0.57637 0.30914 0.0
C845 C 0.61421 0.56655 0.30775 0.0
C846 C 0.57496 0.55358 0.31212 0.0
C847 C 0.55469 0.62192 0.29038 0.0
C848 C 0.5779 0.61631 0.2988 0.0
C849 C 0.53789 0.60483 0.29515 0.0
C850 C 0.54438 0.5821 0.30472 0.0
Eu851 Eu 0.63242 0.62084 0.31325 0.0
N852 N 0.59448 0.63251 0.29512 0.0
C853 C 0.54916 0.64441 0.27586 0.0
C854 C 0.58941 0.65412 0.27804 0.0
C855 C 0.56664 0.66048 0.26887 0.0
H856 H 0.63218 0.56244 0.3039 0.0
H857 H 0.56257 0.67777 0.25663 0.0
H858 H 0.67898 0.68698 0.44436 0.0
H859 H 0.69465 0.55455 0.51891 0.0
H860 H 0.60296 0.66655 0.27294 0.0
H861 H 0.53153 0.64938 0.26881 0.0
H862 H 0.66306 0.58208 0.50862 0.0
H863 H 0.60413 0.53102 0.30971 0.0
H864 H 0.51992 0.60887 0.28982 0.0
H865 H 0.5313 0.56894 0.30642 0.0
H866 H 0.7179 0.70377 0.4386 0.0
H867 H 0.56269 0.53966 0.31324 0.0
H868 H 0.73444 0.56665 0.50045 0.0
N869 N 0.69118 0.65293 0.45337 0.0
C870 C 0.70961 0.639 0.46016 0.0
C871 C 0.71579 0.68552 0.4443 0.0
C872 C 0.73206 0.64777 0.45672 0.0
C873 C 0.69384 0.67602 0.44746 0.0
C874 C 0.73499 0.6713 0.44829 0.0
N875 N 0.68399 0.60825 0.47588 0.0
C876 C 0.68 0.587 0.49638 0.0
C877 C 0.72471 0.60116 0.47854 0.0
C878 C 0.7059 0.61593 0.47053 0.0
C879 C 0.72047 0.57853 0.49386 0.0
C880 C 0.69803 0.57159 0.50403 0.0
H881 H 0.75196 0.6787 0.44549 0.0
H882 H 0.76818 0.63921 0.4591 0.0
H883 H 0.76176 0.59844 0.47846 0.0
O884 O 0.66146 0.63169 0.54362 0.0
O885 O 0.67699 0.64073 0.38307 0.0
O886 O 0.66808 0.60913 0.33549 0.0
O887 O 0.64445 0.66201 0.51555 0.0
O888 O 0.63605 0.60172 0.44956 0.0
O889 O 0.64591 0.59077 0.36515 0.0
O890 O 0.65076 0.63629 0.24659 0.0
O891 O 0.60901 0.6398 0.37048 0.0
O892 O 0.6167 0.62483 0.45206 0.0
O893 O 0.62743 0.60839 0.23209 0.0
O894 O 0.64205 0.65923 0.32681 0.0
O895 O 0.63997 0.66674 0.41782 0.0
C896 C 0.68328 0.62444 0.34971 0.0
C897 C 0.63353 0.6474 0.59967 0.0
C898 C 0.62495 0.63947 0.69292 0.0
C899 C 0.6015 0.63882 0.68003 0.0
C900 C 0.61002 0.64656 0.58781 0.0
C901 C 0.59413 0.64244 0.62791 0.0
C902 C 0.64091 0.644 0.65239 0.0
C903 C 0.63936 0.58557 0.41399 0.0
C904 C 0.65056 0.65018 0.55701 0.0
C905 C 0.75079 0.63286 0.46221 0.0
C906 C 0.74712 0.60961 0.47303 0.0
C907 C 0.60184 0.63219 0.41634 0.0
C908 C 0.65726 0.6133 0.17047 0.0
C909 C 0.66732 0.60915 0.07673 0.0
C910 C 0.6853 0.59441 0.09152 0.0
C911 C 0.67508 0.59839 0.18429 0.0
C912 C 0.65348 0.61872 0.11679 0.0
C913 C 0.68917 0.58918 0.14497 0.0
C914 C 0.64048 0.67358 0.36794 0.0
C915 C 0.64185 0.62265 0.21112 0.0
H916 H 0.58881 0.63559 0.71038 0.0
H917 H 0.60393 0.64884 0.54749 0.0
H918 H 0.57604 0.64182 0.61846 0.0
H919 H 0.65908 0.64418 0.66149 0.0
H920 H 0.6964 0.58696 0.06175 0.0
H921 H 0.67784 0.59373 0.22531 0.0
H922 H 0.63935 0.62987 0.10616 0.0
H923 H 0.70299 0.57775 0.15589 0.0
Eu924 Eu 0.12941 0.90271 0.21908 0.0
C925 C 0.17009 0.83125 0.07154 0.0
N926 N 0.17687 0.85341 0.07756 0.0
C927 C 0.21592 0.84107 0.0869 0.0
C928 C 0.18588 0.81304 0.07567 0.0
C929 C 0.19967 0.8585 0.08153 0.0
C930 C 0.20893 0.81821 0.08509 0.0
C931 C 0.14015 0.80427 0.0473 0.0
C932 C 0.14757 0.82684 0.05758 0.0
C933 C 0.15553 0.786 0.05397 0.0
C934 C 0.17834 0.79038 0.06827 0.0
Eu935 Eu 0.14748 0.8817 0.073 0.0
N936 N 0.13301 0.84483 0.05242 0.0
C937 C 0.1176 0.80081 0.02989 0.0
C938 C 0.11138 0.84173 0.03279 0.0
C939 C 0.10325 0.81966 0.02191 0.0
H940 H 0.20555 0.87602 0.08 0.0
H941 H 0.08594 0.81719 1.00748 0.0
H942 H 0.07741 0.92456 0.19746 0.0
H943 H 0.207 0.94533 0.29347 0.0
H944 H 0.10031 0.85633 0.02666 0.0
H945 H 0.11124 0.78372 0.0216 0.0
H946 H 0.18185 0.91258 0.27398 0.0
H947 H 0.23387 0.84528 0.09158 0.0
H948 H 0.15007 0.76849 0.04718 0.0
H949 H 0.19016 0.77617 0.07198 0.0
H950 H 0.05852 0.96251 0.1951 0.0
H951 H 0.2216 0.80473 0.08863 0.0
H952 H 0.19258 0.98483 0.28183 0.0
N953 N 0.11024 0.93825 0.21559 0.0
C954 C 0.12279 0.95719 0.22783 0.0
C955 C 0.07663 0.96126 0.20397 0.0
C956 C 0.11279 0.97916 0.22657 0.0
C957 C 0.08734 0.93985 0.20508 0.0
C958 C 0.08944 0.98102 0.21428 0.0
N959 N 0.15465 0.93294 0.24354 0.0
C960 C 0.1759 0.92956 0.26487 0.0
C961 C 0.15915 0.97382 0.25423 0.0
C962 C 0.14574 0.95448 0.24109 0.0
C963 C 0.18173 0.97044 0.27133 0.0
C964 C 0.18998 0.94818 0.27765 0.0
H965 H 0.08112 0.9976 0.21306 0.0
H966 H 0.11902 0.01553 0.23657 0.0
H967 H 0.15958 0.01086 0.26104 0.0
O968 O 0.13322 0.90385 0.30543 0.0
O969 O 0.12591 0.92687 0.14663 0.0
O970 O 0.15743 0.91742 0.09941 0.0
O971 O 0.10141 0.89209 0.27121 0.0
O972 O 0.1644 0.88584 0.21172 0.0
O973 O 0.17637 0.89563 0.12787 0.0
O974 O 0.13271 0.89438 0.99806 0.0
O975 O 0.12799 0.85774 0.12779 0.0
O976 O 0.14172 0.86542 0.21073 0.0
O977 O 0.1676 0.88293 1.00031 0.0
O978 O 0.10995 0.89434 0.08255 0.0
O979 O 0.10028 0.88729 0.17074 0.0
C980 C 0.14194 0.93255 0.11244 0.0
C981 C 0.10011 0.90946 0.35725 0.0
C982 C 0.09581 0.91794 0.45211 0.0
C983 C 0.07715 0.93223 0.4398 0.0
C984 C 0.08136 0.9237 0.34607 0.0
C985 C 0.07005 0.93507 0.38717 0.0
C986 C 0.10726 0.90668 0.41028 0.0
C987 C 0.18094 0.88974 0.17758 0.0
C988 C 0.11244 0.89711 0.31481 0.0
C989 C 0.12633 0.99848 0.23778 0.0
C990 C 0.14946 0.99582 0.25152 0.0
C991 C 0.13507 0.85064 0.17421 0.0
C992 C 0.14715 0.87565 0.92127 0.0
C993 C 0.13971 0.87298 0.82562 0.0
C994 C 0.14228 0.84905 0.82883 0.0
C995 C 0.15014 0.85179 0.92273 0.0
C996 C 0.1418 0.88624 0.87248 0.0
C997 C 0.14743 0.8386 0.87701 0.0
C998 C 0.09459 0.89043 0.12045 0.0
C999 C 0.15073 0.88939 0.97012 0.0
H1000 H 0.06813 0.94136 0.47081 0.0
H1001 H 0.07537 0.92597 0.30579 0.0
H1002 H 0.05565 0.94609 0.37821 0.0
H1003 H 0.12149 0.89535 0.41896 0.0
H1004 H 0.14031 0.83835 0.79388 0.0
H1005 H 0.15497 0.8433 0.95902 0.0
H1006 H 0.13996 0.9047 0.87074 0.0
H1007 H 0.14964 0.8202 0.87882 0.0
Eu1008 Eu 0.87235 0.63686 0.05862 0.0
C1009 C 0.93631 0.59489 0.22946 0.0
N1010 N 0.91409 0.59004 0.21752 0.0
C1011 C 0.92224 0.54975 0.2221 0.0
C1012 C 0.95255 0.57723 0.23643 0.0
C1013 C 0.90665 0.5678 0.2173 0.0
C1014 C 0.94538 0.55448 0.23073 0.0
C1015 C 0.96456 0.62287 0.25841 0.0
C1016 C 0.94236 0.61744 0.23992 0.0
C1017 C 0.98095 0.60544 0.26338 0.0
C1018 C 0.97504 0.5827 0.2519 0.0
Eu1019 Eu 0.88939 0.62216 0.20742 0.0
N1020 N 0.92604 0.63387 0.23594 0.0
C1021 C 0.96928 0.64548 0.27373 0.0
C1022 C 0.93004 0.6556 0.25403 0.0
C1023 C 0.95182 0.66184 0.27237 0.0
H1024 H 0.88864 0.56379 0.21403 0.0
H1025 H 0.95511 0.67921 0.28549 0.0
H1026 H 0.84451 0.68643 0.07224 0.0
H1027 H 0.84028 0.55614 0.97472 0.0
H1028 H 0.91645 0.66817 0.25335 0.0
H1029 H 0.98612 0.65031 0.28816 0.0
H1030 H 0.86947 0.58525 0.99663 0.0
H1031 H 0.9163 0.53219 0.22037 0.0
H1032 H 0.99802 0.60923 0.27794 0.0
H1033 H 0.98771 0.56935 0.25737 0.0
H1034 H 0.80449 0.70071 0.07242 0.0
H1035 H 0.95733 0.54044 0.23563 0.0
H1036 H 0.79921 0.5649 0.98786 0.0
N1037 N 0.83479 0.65188 0.05807 0.0
C1038 C 0.81758 0.63705 0.04604 0.0
C1039 C 0.80794 0.68274 0.06538 0.0
C1040 C 0.79457 0.64432 0.04612 0.0
C1041 C 0.8305 0.67468 0.06526 0.0
C1042 C 0.78986 0.66743 0.05665 0.0
N1043 N 0.84564 0.6087 0.02981 0.0
C1044 C 0.85179 0.58861 1.006 0.0
C1045 C 0.80574 0.59907 0.01816 0.0
C1046 C 0.82316 0.61468 0.03259 0.0
C1047 C 0.81206 0.57739 0.99934 0.0
C1048 C 0.83521 0.57235 0.99204 0.0
H1049 H 0.7724 0.6737 0.05699 0.0
H1050 H 0.75929 0.63365 0.03515 0.0
H1051 H 0.76907 0.59403 1.01045 0.0
O1052 O 0.87103 0.63487 0.97084 0.0
O1053 O 0.84728 0.64123 0.12982 0.0
O1054 O 0.85499 0.60969 0.17799 0.0
O1055 O 0.88332 0.6658 1.01051 0.0
O1056 O 0.89083 0.60302 0.07042 0.0
O1057 O 0.87762 0.59222 0.15219 0.0
O1058 O 0.8689 0.63832 0.26985 0.0
O1059 O 0.91597 0.64013 0.15566 0.0
O1060 O 0.9102 0.62625 0.07155 0.0
O1061 O 0.89029 0.60942 0.28906 0.0
O1062 O 0.87995 0.66048 0.19297 0.0
O1063 O 0.8861 0.66743 0.10345 0.0
C1064 C 0.84009 0.62477 0.1615 0.0
C1065 C 0.88278 0.66695 0.91395 0.0
C1066 C 0.88232 0.667 0.81648 0.0
C1067 C 0.89063 0.68964 0.81751 0.0
C1068 C 0.89116 0.68952 0.91339 0.0
C1069 C 0.89499 0.70074 0.86553 0.0
C1070 C 0.87823 0.65574 0.86518 0.0
C1071 C 0.8856 0.58687 0.1045 0.0
C1072 C 0.87883 0.6556 0.96569 0.0
C1073 C 0.77711 0.62847 0.03467 0.0
C1074 C 0.78268 0.60589 0.02076 0.0
C1075 C 0.9242 0.63317 0.10986 0.0
C1076 C 0.85942 0.61707 0.34714 0.0
C1077 C 0.84802 0.61527 0.44054 0.0
C1078 C 0.82793 0.60364 0.42503 0.0
C1079 C 0.83961 0.60504 0.33273 0.0
C1080 C 0.86362 0.62204 0.40096 0.0
C1081 C 0.82384 0.59853 0.37149 0.0
C1082 C 0.88281 0.67473 0.15232 0.0
C1083 C 0.87607 0.62463 0.30711 0.0
H1084 H 0.89352 0.69894 0.781 0.0
H1085 H 0.89473 0.69862 0.95006 0.0
H1086 H 0.90135 0.71817 0.86565 0.0
H1087 H 0.87187 0.6383 0.86508 0.0
H1088 H 0.81561 0.5981 0.45434 0.0
H1089 H 0.83648 0.60065 0.29168 0.0
H1090 H 0.87899 0.63141 0.41189 0.0
H1091 H 0.80847 0.58935 0.36005 0.0
Eu1092 Eu 0.12871 0.11991 0.82139 0.0
C1093 C 0.17613 0.19048 0.97521 0.0
N1094 N 0.18204 0.16816 0.96784 0.0
C1095 C 0.22185 0.17825 0.96964 0.0
C1096 C 0.19304 0.20769 0.97907 0.0
C1097 C 0.20451 0.16178 0.96597 0.0
C1098 C 0.21611 0.20131 0.97592 0.0
C1099 C 0.14642 0.21924 0.9854 0.0
C1100 C 0.15304 0.19619 0.97805 0.0
C1101 C 0.16322 0.23638 0.98917 0.0
C1102 C 0.18646 0.23065 0.98584 0.0
Eu1103 Eu 0.15161 0.14164 0.96041 0.0
N1104 N 0.13707 0.17929 0.97285 0.0
C1105 C 0.12309 0.2244 0.98884 0.0
C1106 C 0.11439 0.18413 0.97962 0.0
C1107 C 0.10704 0.20672 0.98664 0.0
H1108 H 0.20914 0.14395 0.96236 0.0
H1109 H 0.08898 0.21045 0.99103 0.0
H1110 H 0.07117 0.11952 0.82319 0.0
H1111 H 0.18939 0.04879 0.80383 0.0
H1112 H 0.10185 0.17072 0.9812 0.0
H1113 H 0.11733 0.2419 0.99421 0.0
H1114 H 0.17778 0.08917 0.81032 0.0
H1115 H 0.23965 0.17312 0.96784 0.0
H1116 H 0.15837 0.25412 0.99488 0.0
H1117 H 0.1992 0.24411 0.98874 0.0
H1118 H 0.03973 0.09118 0.82236 0.0
H1119 H 0.2296 0.21402 0.97871 0.0
H1120 H 0.15999 0.01828 0.80161 0.0
N1121 N 0.09741 0.09442 0.81932 0.0
C1122 C 0.10268 0.07182 0.81372 0.0
C1123 C 0.05735 0.0855 0.82027 0.0
C1124 C 0.08527 0.05507 0.81234 0.0
C1125 C 0.07518 0.10149 0.82156 0.0
C1126 C 0.06241 0.06218 0.81586 0.0
N1127 N 0.14221 0.08179 0.81477 0.0
C1128 C 0.16479 0.07614 0.81077 0.0
C1129 C 0.13156 0.04198 0.80684 0.0
C1130 C 0.12566 0.06533 0.81103 0.0
C1131 C 0.15477 0.03604 0.80481 0.0
C1132 C 0.17142 0.0532 0.80636 0.0
H1133 H 0.04855 0.04983 0.81496 0.0
H1134 H 0.07801 0.01873 0.80694 0.0
H1135 H 0.11846 1.00728 0.80213 0.0
O1136 O 0.14436 0.1212 0.74274 0.0
O1137 O 0.1262 0.09554 0.89373 0.0
O1138 O 0.1579 0.10405 0.9432 0.0
O1139 O 0.10755 0.12265 0.75003 0.0
O1140 O 0.16585 0.13133 0.82439 0.0
O1141 O 0.1794 0.12453 0.90918 0.0
O1142 O 0.13577 0.14037 0.03855 0.0
O1143 O 0.15527 0.16619 0.8906 0.0
O1144 O 0.12439 0.15865 0.83663 0.0
O1145 O 0.17216 0.13513 0.03192 0.0
O1146 O 0.11314 0.13145 0.95204 0.0
O1147 O 0.10414 0.14189 0.86667 0.0
C1148 C 0.142 0.08949 0.92852 0.0
C1149 C 0.12406 0.14128 0.67651 0.0
C1150 C 0.12674 0.15133 0.58248 0.0
C1151 C 0.12139 0.17417 0.59592 0.0
C1152 C 0.11899 0.16412 0.68903 0.0
C1153 C 0.1177 0.18047 0.6488 0.0
C1154 C 0.12816 0.13502 0.62355 0.0
C1155 C 0.18289 0.12828 0.85798 0.0
C1156 C 0.12491 0.12362 0.71789 0.0
C1157 C 0.09116 0.03182 0.80799 0.0
C1158 C 0.11422 0.0253 0.80525 0.0
C1159 C 0.13948 0.17311 0.85712 0.0
C1160 C 0.15293 0.11745 0.10374 0.0
C1161 C 0.14789 0.10632 0.1963 0.0
C1162 C 0.14554 0.08336 0.18003 0.0
C1163 C 0.15051 0.09452 0.08831 0.0
C1164 C 0.15182 0.12329 0.1578 0.0
C1165 C 0.14701 0.07752 0.1263 0.0
C1166 C 0.0979 0.13738 0.91539 0.0
C1167 C 0.15467 0.13565 0.06376 0.0
H1168 H 0.11967 0.18715 0.56558 0.0
H1169 H 0.1159 0.16926 0.72973 0.0
H1170 H 0.1136 0.19807 0.65856 0.0
H1171 H 0.13259 0.1174 0.61462 0.0
H1172 H 0.14258 0.06996 0.20888 0.0
H1173 H 0.15092 0.08994 0.04688 0.0
H1174 H 0.15317 0.14112 0.16968 0.0
H1175 H 0.14508 0.05983 0.11401 0.0
Eu1176 Eu 0.63127 0.39986 0.70844 0.0
C1177 C 0.67464 0.33324 0.54414 0.0
N1178 N 0.67961 0.3555 0.55559 0.0
C1179 C 0.71984 0.34692 0.55342 0.0
C1180 C 0.69222 0.31681 0.53842 0.0
C1181 C 0.70191 0.36271 0.55682 0.0
C1182 C 0.71497 0.3238 0.54509 0.0
C1183 C 0.64664 0.30498 0.51519 0.0
C1184 C 0.6521 0.32726 0.53308 0.0
C1185 C 0.664 0.2885 0.51102 0.0
C1186 C 0.68669 0.29431 0.52321 0.0
Eu1187 Eu 0.6476 0.38055 0.56234 0.0
N1188 N 0.63573 0.34368 0.53602 0.0
C1189 C 0.62406 0.30024 0.49968 0.0
C1190 C 0.61403 0.33963 0.51778 0.0
C1191 C 0.60775 0.31775 0.50024 0.0
H1192 H 0.70613 0.38069 0.55963 0.0
H1193 H 0.59041 0.31443 0.48696 0.0
H1194 H 0.57911 0.42221 0.69046 0.0
H1195 H 0.71001 0.44222 0.77689 0.0
H1196 H 0.60152 0.35327 0.51752 0.0
H1197 H 0.61921 0.28333 0.48573 0.0
H1198 H 0.68403 0.40961 0.762 0.0
H1199 H 0.73744 0.3527 0.5559 0.0
H1200 H 0.66016 0.27137 0.49687 0.0
H1201 H 0.69997 0.2815 0.51863 0.0
H1202 H 0.56106 0.46051 0.68435 0.0
H1203 H 0.72893 0.31169 0.5412 0.0
H1204 H 0.69647 0.4817 0.76017 0.0
N1205 N 0.61256 0.43557 0.70309 0.0
C1206 C 0.62569 0.45445 0.71223 0.0
C1207 C 0.57927 0.45903 0.69178 0.0
C1208 C 0.61616 0.47658 0.70888 0.0
C1209 C 0.5895 0.43742 0.69507 0.0
C1210 C 0.5927 0.4787 0.69804 0.0
N1211 N 0.6573 0.42989 0.72902 0.0
C1212 C 0.67848 0.42651 0.75076 0.0
C1213 C 0.66267 0.47083 0.73481 0.0
C1214 C 0.64877 0.45153 0.72446 0.0
C1215 C 0.68526 0.46733 0.75175 0.0
C1216 C 0.69301 0.44508 0.76094 0.0
H1217 H 0.58473 0.49542 0.6952 0.0
H1218 H 0.62328 0.51297 0.71397 0.0
H1219 H 0.66394 0.50794 0.73705 0.0
O1220 O 0.63451 0.40643 0.79362 0.0
O1221 O 0.62668 0.42297 0.63404 0.0
O1222 O 0.65914 0.41551 0.58946 0.0
O1223 O 0.60514 0.38804 0.76434 0.0
O1224 O 0.66589 0.38235 0.70084 0.0
O1225 O 0.67714 0.39339 0.61741 0.0
O1226 O 0.63207 0.4003 0.49753 0.0
O1227 O 0.62964 0.35478 0.61572 0.0
O1228 O 0.64287 0.36223 0.69961 0.0
O1229 O 0.66066 0.37808 0.48136 0.0
O1230 O 0.60913 0.3896 0.57546 0.0
O1231 O 0.60088 0.38432 0.66507 0.0
C1232 C 0.64328 0.43013 0.60277 0.0
C1233 C 0.61972 0.37813 0.84971 0.0
C1234 C 0.62789 0.37056 0.94357 0.0
C1235 C 0.62948 0.34706 0.93161 0.0
C1236 C 0.62152 0.35459 0.83882 0.0
C1237 C 0.62622 0.33918 0.87969 0.0
C1238 C 0.62274 0.38601 0.90226 0.0
C1239 C 0.68214 0.38647 0.66621 0.0
C1240 C 0.61645 0.39478 0.80631 0.0
C1241 C 0.63024 0.49581 0.71684 0.0
C1242 C 0.65342 0.49294 0.72978 0.0
C1243 C 0.63641 0.34752 0.66248 0.0
C1244 C 0.65411 0.40795 0.42026 0.0
C1245 C 0.65736 0.41742 0.32594 0.0
C1246 C 0.67141 0.43613 0.33981 0.0
C1247 C 0.66837 0.42645 0.4331 0.0
C1248 C 0.64855 0.40355 0.36677 0.0
C1249 C 0.67675 0.44063 0.39303 0.0
C1250 C 0.59441 0.38635 0.61504 0.0
C1251 C 0.6458 0.39222 0.46143 0.0
H1252 H 0.6332 0.33473 0.96252 0.0
H1253 H 0.61959 0.34814 0.79867 0.0
H1254 H 0.62759 0.32106 0.87099 0.0
H1255 H 0.62185 0.40422 0.9106 0.0
H1256 H 0.67828 0.44727 0.30946 0.0
H1257 H 0.67325 0.42965 0.47389 0.0
H1258 H 0.63796 0.38886 0.35687 0.0
H1259 H 0.68768 0.45499 0.4032 0.0
Eu1260 Eu 0.37112 0.87603 0.4605 0.0
C1261 C 0.44308 0.92227 0.31783 0.0
N1262 N 0.4211 0.92925 0.32533 0.0
C1263 C 0.43356 0.96822 0.33407 0.0
C1264 C 0.46131 0.93815 0.31938 0.0
C1265 C 0.41606 0.95186 0.33263 0.0
C1266 C 0.45629 0.96133 0.32764 0.0
C1267 C 0.47017 0.89126 0.30432 0.0
C1268 C 0.44745 0.89901 0.3107 0.0
C1269 C 0.48832 0.90702 0.3063 0.0
C1270 C 0.48392 0.93039 0.31359 0.0
Eu1271 Eu 0.39278 0.90035 0.32378 0.0
N1272 N 0.42958 0.88395 0.31095 0.0
C1273 C 0.474 0.86788 0.29606 0.0
C1274 C 0.43316 0.86145 0.29868 0.0
C1275 C 0.45538 0.85298 0.2923 0.0
H1276 H 0.39852 0.9574 0.33677 0.0
H1277 H 0.45809 0.83501 0.28365 0.0
H1278 H 0.3751 0.8185 0.46171 0.0
H1279 H 0.29579 0.9313 0.47447 0.0
H1280 H 0.41904 0.85 0.29196 0.0
H1281 H 0.49121 0.86127 0.29112 0.0
H1282 H 0.33699 0.92254 0.46876 0.0
H1283 H 0.42951 0.98613 0.34011 0.0
H1284 H 0.50584 0.90127 0.30255 0.0
H1285 H 0.49816 0.9423 0.31513 0.0
H1286 H 0.34914 0.78514 0.46222 0.0
H1287 H 0.46982 0.97404 0.32913 0.0
H1288 H 0.26749 0.89976 0.4772 0.0
N1289 N 0.34807 0.84288 0.46389 0.0
C1290 C 0.32512 0.84646 0.46823 0.0
C1291 C 0.34217 0.80226 0.46401 0.0
C1292 C 0.30972 0.82785 0.46977 0.0
C1293 C 0.3568 0.82121 0.46297 0.0
C1294 C 0.31853 0.80557 0.4673 0.0
N1295 N 0.3321 0.88651 0.46605 0.0
C1296 C 0.32486 0.90867 0.46908 0.0
C1297 C 0.29319 0.87308 0.47348 0.0
C1298 C 0.31691 0.86886 0.47006 0.0
C1299 C 0.28558 0.89581 0.47461 0.0
C1300 C 0.3015 0.91367 0.47282 0.0
H1301 H 0.30727 0.79081 0.46808 0.0
H1302 H 0.274 0.81793 0.47438 0.0
H1303 H 0.25956 0.85748 0.47765 0.0
O1304 O 0.37081 0.89285 0.53795 0.0
O1305 O 0.34611 0.87476 0.38832 0.0
O1306 O 0.35496 0.90611 0.33794 0.0
O1307 O 0.37573 0.85627 0.53354 0.0
O1308 O 0.38132 0.91375 0.45892 0.0
O1309 O 0.37366 0.92705 0.37438 0.0
O1310 O 0.38917 0.88683 0.243 0.0
O1311 O 0.41616 0.90397 0.39637 0.0
O1312 O 0.40983 0.87186 0.44587 0.0
O1313 O 0.39073 0.92334 0.25559 0.0
O1314 O 0.38207 0.86196 0.32851 0.0
O1315 O 0.39272 0.8516 0.41294 0.0
C1316 C 0.34043 0.89017 0.3522 0.0
C1317 C 0.39302 0.87611 0.60532 0.0
C1318 C 0.40365 0.88223 0.69826 0.0
C1319 C 0.42683 0.8827 0.6833 0.0
C1320 C 0.41623 0.87659 0.59123 0.0
C1321 C 0.43303 0.87979 0.63017 0.0
C1322 C 0.3868 0.87876 0.65885 0.0
C1323 C 0.37699 0.93062 0.42579 0.0
C1324 C 0.37509 0.87419 0.56439 0.0
C1325 C 0.28608 0.83202 0.47326 0.0
C1326 C 0.27785 0.85456 0.47515 0.0
C1327 C 0.4238 0.88774 0.42767 0.0
C1328 C 0.37116 0.91019 0.17879 0.0
C1329 C 0.36101 0.90852 0.08436 0.0
C1330 C 0.33918 0.91721 0.09708 0.0
C1331 C 0.34938 0.91884 0.19036 0.0
C1332 C 0.37685 0.9049 0.12598 0.0
C1333 C 0.33344 0.92219 0.14969 0.0
C1334 C 0.3875 0.84609 0.36393 0.0
C1335 C 0.38838 0.90694 0.22092 0.0
H1336 H 0.44017 0.88518 0.71278 0.0
H1337 H 0.42133 0.87473 0.55018 0.0
H1338 H 0.45092 0.88018 0.61908 0.0
H1339 H 0.36883 0.87875 0.66956 0.0
H1340 H 0.32665 0.92063 0.06634 0.0
H1341 H 0.34487 0.9232 0.2307 0.0
H1342 H 0.39364 0.8979 0.11757 0.0
H1343 H 0.31665 0.92896 0.1589 0.0
H1344 H 0.15284 0.66836 0.77264 0.0
H1345 H 0.10784 0.60967 0.76955 0.0
H1346 H 0.16341 0.6608 0.68004 0.0
H1347 H 0.11819 0.60224 0.67739 0.0
H1348 H 0.15935 0.5822 0.53061 0.0
H1349 H 0.15152 0.58987 0.62407 0.0
H1350 H 0.14456 0.66195 0.58982 0.0
H1351 H 0.15273 0.65431 0.49612 0.0
C1352 C 0.14536 0.65376 0.75233 0.0
C1353 C 0.12944 0.63967 0.77836 0.0
C1354 C 0.15124 0.64955 0.6992 0.0
C1355 C 0.1416 0.63095 0.67125 0.0
C1356 C 0.12607 0.61661 0.69778 0.0
C1357 C 0.12 0.62097 0.75051 0.0
C1358 C 0.15636 0.59973 0.54303 0.0
C1359 C 0.15667 0.61764 0.50581 0.0
C1360 C 0.15169 0.60409 0.59657 0.0
C1361 C 0.14739 0.62652 0.61447 0.0
C1362 C 0.14799 0.64451 0.57743 0.0
C1363 C 0.15243 0.6401 0.52367 0.0
H1364 H 0.69112 0.86052 0.01477 0.0
H1365 H 0.647 0.91941 0.02977 0.0
H1366 H 0.67921 0.85576 0.9227 0.0
H1367 H 0.63578 0.91549 0.93673 0.0
H1368 H 0.60186 0.88839 0.78648 0.0
H1369 H 0.614 0.89349 0.87801 0.0
H1370 H 0.68186 0.86988 0.83699 0.0
H1371 H 0.66915 0.86286 0.74667 0.0
C1372 C 0.67914 0.87269 0.99793 0.0
C1373 C 0.66998 0.89034 0.02934 0.0
C1374 C 0.67235 0.87006 0.94498 0.0
C1375 C 0.65649 0.88525 0.92176 0.0
C1376 C 0.64765 0.90316 0.95323 0.0
C1377 C 0.65417 0.90554 1.0065 0.0
C1378 C 0.61928 0.88391 0.79704 0.0
C1379 C 0.63442 0.87506 0.75878 0.0
C1380 C 0.6264 0.88724 0.84961 0.0
C1381 C 0.64899 0.88215 0.86537 0.0
C1382 C 0.66423 0.87367 0.82688 0.0
C1383 C 0.65701 0.87 0.77453 0.0
H1384 H 0.3565 0.36376 0.27569 0.0
H1385 H 0.42296 0.39338 0.24438 0.0
H1386 H 0.34535 0.37026 0.18416 0.0
H1387 H 0.41247 0.3981 0.15165 0.0
H1388 H 0.38016 0.42357 0.99844 0.0
H1389 H 0.39029 0.41934 0.092 0.0
H1390 H 0.35088 0.35661 0.09825 0.0
H1391 H 0.34003 0.36158 1.00557 0.0
C1392 C 0.36878 0.37169 0.24941 0.0
C1393 C 0.39066 0.37809 0.26788 0.0
C1394 C 0.36249 0.37506 0.19642 0.0
C1395 C 0.37801 0.3846 0.16001 0.0
C1396 C 0.3999 0.39099 0.17844 0.0
C1397 C 0.40608 0.38791 0.23166 0.0
C1398 C 0.37368 0.40893 0.02006 0.0
C1399 C 0.35925 0.39296 0.99493 0.0
C1400 C 0.37957 0.4064 0.07362 0.0
C1401 C 0.37146 0.3876 0.10308 0.0
C1402 C 0.3571 0.37158 0.07749 0.0
C1403 C 0.35093 0.37433 0.02422 0.0
H1404 H 0.88958 0.09759 0.53271 0.0
H1405 H 0.92621 0.15767 0.48048 0.0
H1406 H 0.87363 0.09279 0.44339 0.0
H1407 H 0.91127 0.15233 0.39124 0.0
H1408 H 0.86682 0.1487 0.24445 0.0
H1409 H 0.87818 0.15451 0.33672 0.0
H1410 H 0.88562 0.08135 0.35603 0.0
H1411 H 0.87386 0.07558 0.26389 0.0
C1412 C 0.8941 0.10987 0.50235 0.0
C1413 C 0.90935 0.1279 0.51379 0.0
C1414 C 0.88519 0.10696 0.45092 0.0
C1415 C 0.89125 0.12207 0.40973 0.0
C1416 C 0.90598 0.14045 0.42177 0.0
C1417 C 0.91482 0.14336 0.473 0.0
C1418 C 0.87098 0.13386 0.26833 0.0
C1419 C 0.86954 0.11169 0.24661 0.0
C1420 C 0.8775 0.13718 0.32135 0.0
C1421 C 0.88294 0.11841 0.35408 0.0
C1422 C 0.88123 0.0962 0.33245 0.0
C1423 C 0.87457 0.09289 0.27947 0.0
H1424 H 0.11044 0.41652 0.27445 0.0
H1425 H 0.149 0.35367 0.26948 0.0
H1426 H 0.1211 0.422 0.36723 0.0
H1427 H 0.15847 0.35797 0.3634 0.0
H1428 H 0.18982 0.38106 0.51875 0.0
H1429 H 0.17974 0.37616 0.42636 0.0
H1430 H 0.11585 0.41169 0.45349 0.0
H1431 H 0.12715 0.41883 0.54469 0.0
C1432 C 0.12106 0.40376 0.29365 0.0
C1433 C 0.129 0.38475 0.26489 0.0
C1434 C 0.12702 0.40671 0.34717 0.0
C1435 C 0.14065 0.39041 0.37385 0.0
C1436 C 0.1484 0.37124 0.34464 0.0
C1437 C 0.14287 0.36862 0.29072 0.0
C1438 C 0.17379 0.3883 0.50507 0.0
C1439 C 0.15955 0.4007 0.53989 0.0
C1440 C 0.16773 0.38503 0.45174 0.0
C1441 C 0.1469 0.39352 0.43143 0.0
C1442 C 0.13228 0.40527 0.46669 0.0
C1443 C 0.1386 0.409 0.51981 0.0
H1444 H 0.92417 0.90086 0.74561 0.0
H1445 H 0.86015 0.86604 0.77556 0.0
H1446 H 0.91369 0.90472 0.65256 0.0
H1447 H 0.84893 0.87151 0.6837 0.0
H1448 H 0.84574 0.86141 0.50537 0.0
H1449 H 0.8565 0.85783 0.59836 0.0
H1450 H 0.88978 0.92399 0.59194 0.0
H1451 H 0.87968 0.927 0.498 0.0
C1452 C 0.90783 0.89407 0.73252 0.0
C1453 C 0.89309 0.88304 0.76841 0.0
C1454 C 0.90163 0.89662 0.67914 0.0
C1455 C 0.88043 0.88843 0.66026 0.0
C1456 C 0.86556 0.87772 0.69636 0.0
C1457 C 0.87187 0.87491 0.74951 0.0
C1458 C 0.85523 0.87524 0.52401 0.0
C1459 C 0.86181 0.89452 0.49455 0.0
C1460 C 0.86135 0.87326 0.57747 0.0
C1461 C 0.87395 0.89067 0.6031 0.0
C1462 C 0.8804 0.91006 0.57351 0.0
C1463 C 0.87453 0.91188 0.51974 0.0
H1464 H 0.33339 0.61459 0.7755 0.0
H1465 H 0.40577 0.61011 0.74312 0.0
H1466 H 0.34179 0.62414 0.86819 0.0
H1467 H 0.41423 0.61948 0.83624 0.0
H1468 H 0.41659 0.61372 0.02164 0.0
H1469 H 0.40856 0.60243 0.92955 0.0
H1470 H 0.36003 0.65787 0.91586 0.0
H1471 H 0.36789 0.66903 1.00759 0.0
C1472 C 0.3511 0.61546 0.7884 0.0
C1473 C 0.36893 0.61161 0.75216 0.0
C1474 C 0.35591 0.62106 0.84133 0.0
C1475 C 0.37867 0.62259 0.8595 0.0
C1476 C 0.39653 0.6183 0.82348 0.0
C1477 C 0.3917 0.61309 0.7702 0.0
C1478 C 0.40412 0.62339 0.99901 0.0
C1479 C 0.39291 0.6423 0.02194 0.0
C1480 C 0.39966 0.61704 0.9462 0.0
C1481 C 0.38365 0.62925 0.91549 0.0
C1482 C 0.37232 0.648 0.93861 0.0
C1483 C 0.37697 0.65451 0.99104 0.0
H1484 H 0.6281 0.09629 0.99144 0.0
H1485 H 0.59427 0.15798 0.0442 0.0
H1486 H 0.64405 0.09103 0.08067 0.0
H1487 H 0.6094 0.15237 0.13322 0.0
H1488 H 0.65419 0.14681 0.27958 0.0
H1489 H 0.64308 0.15299 0.18733 0.0
H1490 H 0.63091 0.08041 0.16839 0.0
H1491 H 0.64216 0.07424 0.26058 0.0
C1492 C 0.62426 0.10884 0.02188 0.0
C1493 C 0.60975 0.12745 1.0107 0.0
C1494 C 0.63317 0.1057 0.07322 0.0
C1495 C 0.6279 0.12117 0.1145 0.0
C1496 C 0.61403 0.14018 0.10261 0.0
C1497 C 0.60513 0.14328 0.05153 0.0
C1498 C 0.64901 0.13218 0.25586 0.0
C1499 C 0.64898 0.11004 0.27778 0.0
C1500 C 0.64267 0.13571 0.20281 0.0
C1501 C 0.63602 0.11722 0.17015 0.0
C1502 C 0.63626 0.09504 0.19191 0.0
C1503 C 0.64266 0.0915 0.24495 0.0
H1504 H 0.86298 0.38104 0.24481 0.0
H1505 H 0.88107 0.45204 0.26927 0.0
H1506 H 0.8731 0.37271 0.33668 0.0
H1507 H 0.89146 0.44369 0.36112 0.0
H1508 H 0.8932 0.42508 0.53677 0.0
H1509 H 0.87782 0.4331 0.44814 0.0
H1510 H 0.90636 0.36944 0.39075 0.0
H1511 H 0.9208 0.36112 0.47914 0.0
C1512 C 0.86928 0.39486 0.26968 0.0
C1513 C 0.87135 0.41719 0.24936 0.0
C1514 C 0.87508 0.39009 0.32252 0.0
C1515 C 0.88324 0.40748 0.35659 0.0
C1516 C 0.88494 0.4299 0.33649 0.0
C1517 C 0.87904 0.43469 0.28364 0.0
C1518 C 0.89579 0.41263 0.50539 0.0
C1519 C 0.90841 0.39254 0.51507 0.0
C1520 C 0.88722 0.41735 0.45437 0.0
C1521 C 0.89095 0.40202 0.4119 0.0
C1522 C 0.90291 0.38159 0.42227 0.0
C1523 C 0.91144 0.37692 0.47303 0.0
H1524 H 0.42766 0.12027 0.2512 0.0
H1525 H 0.36344 0.15502 0.27925 0.0
H1526 H 0.4178 0.11636 0.15773 0.0
H1527 H 0.3528 0.14941 0.18708 0.0
H1528 H 0.34973 0.15877 1.00936 0.0
H1529 H 0.36062 0.16288 0.10221 0.0
H1530 H 0.3944 0.09698 0.09613 0.0
H1531 H 0.38425 0.09352 1.00221 0.0
C1532 C 0.41141 0.12704 0.2376 0.0
C1533 C 0.39642 0.13804 0.2731 0.0
C1534 C 0.40557 0.12445 0.18398 0.0
C1535 C 0.38447 0.13257 0.16448 0.0
C1536 C 0.36937 0.14327 0.20018 0.0
C1537 C 0.37534 0.14614 0.25354 0.0
C1538 C 0.35941 0.14514 0.02805 0.0
C1539 C 0.36606 0.12578 0.99877 0.0
C1540 C 0.36558 0.14741 0.08141 0.0
C1541 C 0.37828 0.13019 0.10716 0.0
C1542 C 0.38493 0.11077 0.07763 0.0
C1543 C 0.37903 0.10868 0.0239 0.0
H1544 H 0.66589 0.57846 0.9946 0.0
H1545 H 0.65779 0.65043 0.02979 0.0
H1546 H 0.65705 0.58581 0.90133 0.0
H1547 H 0.64873 0.65776 0.93635 0.0
H1548 H 0.65597 0.66361 0.75319 0.0
H1549 H 0.66734 0.65648 0.84551 0.0
H1550 H 0.62232 0.5978 0.84985 0.0
H1551 H 0.6111 0.60486 0.75789 0.0
C1552 C 0.6624 0.59589 0.98233 0.0
C1553 C 0.66253 0.61386 0.01964 0.0
C1554 C 0.65715 0.60006 0.92897 0.0
C1555 C 0.65214 0.62236 0.91145 0.0
C1556 C 0.65268 0.64042 0.94853 0.0
C1557 C 0.65766 0.6362 1.0021 0.0
C1558 C 0.64866 0.64911 0.77384 0.0
C1559 C 0.63258 0.63485 0.74834 0.0
C1560 C 0.65502 0.64513 0.82677 0.0
C1561 C 0.64572 0.62658 0.85501 0.0
C1562 C 0.62994 0.61213 0.82912 0.0
C1563 C 0.62337 0.61627 0.77657 0.0
H1564 H 0.06852 0.912 0.53935 0.0
H1565 H 0.13948 0.91598 0.49252 0.0
H1566 H 0.08026 0.90454 0.63064 0.0
H1567 H 0.15125 0.90863 0.58392 0.0
H1568 H 0.1612 0.86361 0.73231 0.0
H1569 H 0.15117 0.87679 0.64384 0.0
H1570 H 0.09839 0.91995 0.71033 0.0
H1571 H 0.1081 0.90605 0.79938 0.0
C1572 C 0.08664 0.91163 0.54865 0.0
C1573 C 0.10305 0.91444 0.50841 0.0
C1574 C 0.09338 0.90741 0.60113 0.0
C1575 C 0.11672 0.9059 0.6148 0.0
C1576 C 0.13313 0.90929 0.57475 0.0
C1577 C 0.12638 0.91347 0.52227 0.0
C1578 C 0.1475 0.87599 0.72814 0.0
C1579 C 0.13526 0.88357 0.77284 0.0
C1580 C 0.14188 0.88375 0.67735 0.0
C1581 C 0.12387 0.89938 0.66971 0.0
C1582 C 0.11216 0.90767 0.71467 0.0
C1583 C 0.11786 0.89992 0.76574 0.0
H1584 H 0.84525 0.64091 0.78546 0.0
H1585 H 0.90957 0.66771 0.72879 0.0
H1586 H 0.83688 0.62584 0.69655 0.0
H1587 H 0.90094 0.65357 0.64019 0.0
H1588 H 0.88873 0.61102 0.49384 0.0
H1589 H 0.89708 0.62028 0.58627 0.0
H1590 H 0.82653 0.64011 0.60938 0.0
H1591 H 0.81813 0.63053 0.51688 0.0
C1592 C 0.8577 0.64337 0.75422 0.0
C1593 C 0.878 0.65567 0.76419 0.0
C1594 C 0.8528 0.63498 0.70309 0.0
C1595 C 0.86815 0.63859 0.66088 0.0
C1596 C 0.88878 0.65022 0.67156 0.0
C1597 C 0.89363 0.65857 0.7224 0.0
C1598 C 0.875 0.61743 0.51857 0.0
C1599 C 0.85281 0.62023 0.4977 0.0
C1600 C 0.87978 0.62274 0.57169 0.0
C1601 C 0.86254 0.63113 0.60546 0.0
C1602 C 0.84019 0.63343 0.58489 0.0
C1603 C 0.83539 0.62801 0.53172 0.0
H1604 H 0.14692 0.17629 0.50271 0.0
H1605 H 0.11502 0.11081 0.53334 0.0
H1606 H 0.15158 0.16571 0.41011 0.0
H1607 H 0.12151 0.09948 0.442 0.0
H1608 H 0.11356 0.09407 0.26337 0.0
H1609 H 0.10855 0.10513 0.35587 0.0
H1610 H 0.17211 0.14321 0.35038 0.0
H1611 H 0.17633 0.13294 0.25692 0.0
C1612 C 0.14094 0.1596 0.48989 0.0
C1613 C 0.13048 0.1445 0.52592 0.0
C1614 C 0.14398 0.15335 0.43671 0.0
C1615 C 0.13696 0.13167 0.41809 0.0
C1616 C 0.12682 0.11646 0.45432 0.0
C1617 C 0.12345 0.12284 0.50727 0.0
C1618 C 0.12646 0.10474 0.28214 0.0
C1619 C 0.14533 0.11264 0.25307 0.0
C1620 C 0.1237 0.11101 0.33534 0.0
C1621 C 0.13996 0.12505 0.36114 0.0
C1622 C 0.15898 0.13276 0.33189 0.0
C1623 C 0.16152 0.12678 0.27837 0.0
H1624 H 0.61635 0.40572 0.2794 0.0
H1625 H 0.68782 0.41647 0.24378 0.0
H1626 H 0.60912 0.39554 0.18638 0.0
H1627 H 0.68057 0.40646 0.15099 0.0
H1628 H 0.66304 0.35855 1.00962 0.0
H1629 H 0.66979 0.37078 0.10113 0.0
H1630 H 0.60946 0.41341 0.09436 0.0
H1631 H 0.60265 0.40107 1.00243 0.0
C1632 C 0.6305 0.40593 0.25171 0.0
C1633 C 0.65266 0.4119 0.26904 0.0
C1634 C 0.62632 0.40029 0.19837 0.0
C1635 C 0.64428 0.40016 0.16128 0.0
C1636 C 0.6664 0.40623 0.1786 0.0
C1637 C 0.67051 0.41215 0.23171 0.0
C1638 C 0.65119 0.37051 0.02765 0.0
C1639 C 0.63226 0.37878 0.99881 0.0
C1640 C 0.65516 0.37766 0.07997 0.0
C1641 C 0.64017 0.39307 0.10508 0.0
C1642 C 0.62124 0.4014 0.07625 0.0
C1643 C 0.61743 0.39448 0.02353 0.0
H1644 H 0.40276 0.91468 0.0362 0.0
H1645 H 0.33371 0.89165 1.00382 0.0
H1646 H 0.41305 0.9072 0.94454 0.0
H1647 H 0.34356 0.88584 0.91111 0.0
H1648 H 0.37354 0.85721 0.75769 0.0
H1649 H 0.36359 0.86264 0.85093 0.0
H1650 H 0.40852 0.92151 0.8586 0.0
H1651 H 0.419 0.91542 0.76617 0.0
C1652 C 0.38973 0.90796 1.00969 0.0
C1653 C 0.36736 0.90377 0.02789 0.0
C1654 C 0.39556 0.90403 0.95661 0.0
C1655 C 0.37914 0.89605 0.91986 0.0
C1656 C 0.35679 0.89174 0.9381 0.0
C1657 C 0.35102 0.89543 0.99135 0.0
C1658 C 0.38121 0.87132 0.77943 0.0
C1659 C 0.39712 0.88581 0.75471 0.0
C1660 C 0.37546 0.87452 0.83289 0.0
C1661 C 0.38526 0.89251 0.86278 0.0
C1662 C 0.40097 0.90715 0.83755 0.0
C1663 C 0.40693 0.90376 0.78437 0.0
H1664 H 0.17264 0.7089 0.13955 0.0
H1665 H 0.10547 0.70268 0.20827 0.0
H1666 H 0.17122 0.75043 0.15093 0.0
H1667 H 0.10385 0.74455 0.21935 0.0
H1668 H 0.10066 0.82057 0.15235 0.0
H1669 H 0.10162 0.77869 0.15669 0.0
H1670 H 0.17028 0.78175 0.22042 0.0
H1671 H 0.16905 0.82384 0.21687 0.0
C1672 C 0.15756 0.71641 0.15724 0.0
C1673 C 0.13913 0.70241 0.17268 0.0
C1674 C 0.15682 0.74028 0.16422 0.0
C1675 C 0.13741 0.75099 0.18598 0.0
C1676 C 0.11905 0.73695 0.20224 0.0
C1677 C 0.12001 0.71293 0.19626 0.0
C1678 C 0.11574 0.81229 0.16857 0.0
C1679 C 0.13468 0.82552 0.18486 0.0
C1680 C 0.11629 0.78826 0.17112 0.0
C1681 C 0.13601 0.77671 0.18896 0.0
C1682 C 0.15481 0.79002 0.20637 0.0
C1683 C 0.15405 0.81414 0.2049 0.0
H1684 H 0.57256 0.86122 0.48519 0.0
H1685 H 0.566 0.91972 0.38233 0.0
H1686 H 0.53054 0.85991 0.49445 0.0
H1687 H 0.5247 0.9182 0.39012 0.0
H1688 H 0.45206 0.9244 0.44079 0.0
H1689 H 0.49364 0.92505 0.44722 0.0
H1690 H 0.49483 0.85109 0.44569 0.0
H1691 H 0.45275 0.85058 0.44051 0.0
C1692 C 0.56223 0.87393 0.46505 0.0
C1693 C 0.57276 0.8905 0.43275 0.0
C1694 C 0.53807 0.87304 0.46977 0.0
C1695 C 0.52387 0.88892 0.44299 0.0
C1696 C 0.5347 0.90575 0.41193 0.0
C1697 C 0.55858 0.90651 0.40698 0.0
C1698 C 0.46113 0.90822 0.44269 0.0
C1699 C 0.44896 0.88744 0.43997 0.0
C1700 C 0.48513 0.90857 0.44596 0.0
C1701 C 0.49798 0.88812 0.44611 0.0
C1702 C 0.48572 0.86723 0.44597 0.0
C1703 C 0.46152 0.8669 0.4431 0.0
H1704 H 0.40564 0.31548 0.59175 0.0
H1705 H 0.36854 0.32153 0.73887 0.0
H1706 H 0.40605 0.27438 0.60013 0.0
H1707 H 0.36989 0.27959 0.74899 0.0
H1708 H 0.35529 0.2011 0.71331 0.0
H1709 H 0.35572 0.24322 0.71779 0.0
H1710 H 0.42196 0.2435 0.64182 0.0
H1711 H 0.42069 0.202 0.63494 0.0
C1712 C 0.39781 0.30806 0.62661 0.0
C1713 C 0.38695 0.32211 0.66447 0.0
C1714 C 0.39825 0.28419 0.63177 0.0
C1715 C 0.38822 0.27315 0.6756 0.0
C1716 C 0.37769 0.28721 0.71436 0.0
C1717 C 0.37712 0.31136 0.70893 0.0
C1718 C 0.37008 0.21027 0.69854 0.0
C1719 C 0.38796 0.19819 0.67371 0.0
C1720 C 0.37035 0.23449 0.70097 0.0
C1721 C 0.38867 0.24722 0.6792 0.0
C1722 C 0.40711 0.23474 0.65746 0.0
C1723 C 0.40659 0.21077 0.65408 0.0
H1724 H 0.95855 0.13272 0.828 0.0
H1725 H 0.94892 0.13364 0.99806 0.0
H1726 H 0.99956 0.1348 0.84034 0.0
H1727 H 0.99085 0.13565 1.01024 0.0
H1728 H 0.07135 0.11187 0.98502 0.0
H1729 H 0.02908 0.11103 0.98908 0.0
H1730 H 0.02605 0.16583 0.87479 0.0
H1731 H 0.06763 0.16671 0.87093 0.0
C1732 C 0.96507 0.13332 0.86829 0.0
C1733 C 0.95006 0.13314 0.91204 0.0
C1734 C 0.98879 0.13462 0.87528 0.0
C1735 C 0.99861 0.13562 0.92624 0.0
C1736 C 0.98385 0.13489 0.9704 0.0
C1737 C 0.95982 0.13386 0.96338 0.0
C1738 C 0.06159 0.1241 0.96193 0.0
C1739 C 0.07289 0.13918 0.92721 0.0
C1740 C 0.03739 0.12358 0.96411 0.0
C1741 C 0.02413 0.13811 0.93155 0.0
C1742 C 0.03563 0.15411 0.89966 0.0
C1743 C 0.05954 0.15466 0.89761 0.0
H1744 H 0.15942 0.3213 0.80419 0.0
H1745 H 0.10533 0.31504 0.91926 0.0
H1746 H 0.16 0.27951 0.79338 0.0
H1747 H 0.10575 0.27331 0.90825 0.0
H1748 H 0.10059 0.1992 0.84349 0.0
H1749 H 0.09783 0.24122 0.84232 0.0
H1750 H 0.17149 0.24611 0.85103 0.0
H1751 H 0.17417 0.20435 0.85277 0.0
C1752 C 0.14736 0.31104 0.82647 0.0
C1753 C 0.13233 0.32157 0.86261 0.0
C1754 C 0.14782 0.28704 0.82064 0.0
C1755 C 0.13293 0.2729 0.84997 0.0
C1756 C 0.11731 0.28356 0.88461 0.0
C1757 C 0.11712 0.30751 0.89106 0.0
C1758 C 0.11619 0.20927 0.84393 0.0
C1759 C 0.1376 0.19835 0.84784 0.0
C1760 C 0.11461 0.23337 0.84388 0.0
C1761 C 0.13444 0.24719 0.84654 0.0
C1762 C 0.15586 0.23616 0.84824 0.0
C1763 C 0.1574 0.21215 0.8493 0.0
H1764 H 0.07003 0.91413 0.0443 0.0
H1765 H 0.06236 0.86354 0.16738 0.0
H1766 H 0.02828 0.91381 0.02993 0.0
H1767 H 0.02102 0.86282 0.15224 0.0
H1768 H 0.9485 0.85388 0.08292 0.0
H1769 H 0.99059 0.85227 0.08172 0.0
H1770 H 0.99351 0.92607 0.08726 0.0
H1771 H 0.95168 0.92763 0.08959 0.0
C1772 C 0.05953 0.90267 0.06761 0.0
C1773 C 0.06961 0.8889 0.10705 0.0
C1774 C 0.03558 0.90257 0.05962 0.0
C1775 C 0.0212 0.88823 0.08985 0.0
C1776 C 0.03147 0.87391 0.1279 0.0
C1777 C 0.05523 0.87443 0.13675 0.0
C1778 C 0.95813 0.86975 0.08246 0.0
C1779 C 0.94667 0.89088 0.08602 0.0
C1780 C 0.98227 0.86884 0.08232 0.0
C1781 C 0.99554 0.88906 0.08437 0.0
C1782 C 0.98396 0.91018 0.08502 0.0
C1783 C 0.95992 0.91106 0.08638 0.0
H1784 H 0.41843 0.70145 0.39353 0.0
H1785 H 0.35805 0.69941 0.29505 0.0
H1786 H 0.41833 0.74268 0.39148 0.0
H1787 H 0.35893 0.74128 0.28811 0.0
H1788 H 0.35219 0.81837 0.33015 0.0
H1789 H 0.35219 0.77656 0.32294 0.0
H1790 H 0.42503 0.7763 0.35601 0.0
H1791 H 0.42406 0.8175 0.36828 0.0
C1792 C 0.40521 0.70992 0.37065 0.0
C1793 C 0.38797 0.69698 0.34558 0.0
C1794 C 0.40534 0.73391 0.36847 0.0
C1795 C 0.38862 0.74615 0.33948 0.0
C1796 C 0.37192 0.733 0.31197 0.0
C1797 C 0.37157 0.70879 0.31512 0.0
C1798 C 0.3682 0.80923 0.33504 0.0
C1799 C 0.38817 0.82127 0.34933 0.0
C1800 C 0.36829 0.78509 0.33091 0.0
C1801 C 0.38855 0.77226 0.33957 0.0
C1802 C 0.40874 0.78482 0.35092 0.0
C1803 C 0.4084 0.80874 0.35696 0.0
H1804 H 0.57032 0.11288 0.53982 0.0
H1805 H 0.56216 0.15952 0.67157 0.0
H1806 H 0.52851 0.11267 0.52634 0.0
H1807 H 0.52076 0.15981 0.65723 0.0
H1808 H 0.44835 0.16956 0.58899 0.0
H1809 H 0.49034 0.1718 0.58685 0.0
H1810 H 0.49424 0.09801 0.58472 0.0
H1811 H 0.4524 0.09579 0.58812 0.0
C1812 C 0.55967 0.12341 0.56519 0.0
C1813 C 0.56959 0.13622 0.60673 0.0
C1814 C 0.53573 0.12319 0.55771 0.0
C1815 C 0.52126 0.13628 0.59067 0.0
C1816 C 0.53134 0.14969 0.63089 0.0
C1817 C 0.5551 0.14944 0.6392 0.0
C1818 C 0.45816 0.15385 0.58676 0.0
C1819 C 0.44703 0.1325 0.58858 0.0
C1820 C 0.48223 0.15512 0.58598 0.0
C1821 C 0.49569 0.13508 0.58558 0.0
C1822 C 0.48445 0.11377 0.58442 0.0
C1823 C 0.46046 0.1125 0.58645 0.0
H1824 H 0.92063 0.20153 0.86423 0.0
H1825 H 0.85029 0.20087 0.8124 0.0
H1826 H 0.9213 0.24314 0.85881 0.0
H1827 H 0.85022 0.24287 0.81001 0.0
H1828 H 0.85979 0.32076 0.78618 0.0
H1829 H 0.86056 0.27889 0.77613 0.0
H1830 H 0.9099 0.27479 0.90413 0.0
H1831 H 0.91035 0.31609 0.91057 0.0
C1832 C 0.90529 0.21037 0.85126 0.0
C1833 C 0.88546 0.19784 0.83868 0.0
C1834 C 0.90551 0.23441 0.84879 0.0
C1835 C 0.88564 0.24694 0.83514 0.0
C1836 C 0.86599 0.23421 0.82035 0.0
C1837 C 0.86597 0.21 0.82169 0.0
C1838 C 0.87104 0.31085 0.81151 0.0
C1839 C 0.88476 0.32197 0.84983 0.0
C1840 C 0.8713 0.2867 0.80626 0.0
C1841 C 0.88534 0.27292 0.83915 0.0
C1842 C 0.89914 0.28432 0.877 0.0
C1843 C 0.89906 0.30827 0.88164 0.0
H1844 H 0.64097 0.82228 0.28312 0.0
H1845 H 0.62836 0.81587 0.45121 0.0
H1846 H 0.64069 0.78026 0.27481 0.0
H1847 H 0.62908 0.7748 0.44354 0.0
H1848 H 0.6118 0.70192 0.42079 0.0
H1849 H 0.60873 0.74329 0.41618 0.0
H1850 H 0.65996 0.7445 0.29288 0.0
H1851 H 0.66205 0.70238 0.29601 0.0
C1852 C 0.63808 0.81204 0.31824 0.0
C1853 C 0.63454 0.8228 0.36777 0.0
C1854 C 0.6381 0.78784 0.31359 0.0
C1855 C 0.63459 0.7737 0.35835 0.0
C1856 C 0.63118 0.78467 0.40759 0.0
C1857 C 0.63097 0.80858 0.41211 0.0
C1858 C 0.62228 0.71095 0.39223 0.0
C1859 C 0.63731 0.69875 0.35912 0.0
C1860 C 0.62071 0.73488 0.38987 0.0
C1861 C 0.63455 0.74775 0.35517 0.0
C1862 C 0.64896 0.73543 0.32019 0.0
C1863 C 0.65021 0.71122 0.32194 0.0
H1864 H 0.88778 0.70749 0.07613 0.0
H1865 H 0.87828 0.7009 0.24539 0.0
H1866 H 0.88879 0.74858 0.08459 0.0
H1867 H 0.87963 0.74305 0.25392 0.0
H1868 H 0.8601 0.82282 0.2255 0.0
H1869 H 0.85944 0.78059 0.23067 0.0
H1870 H 0.91444 0.77741 0.11694 0.0
H1871 H 0.91474 0.81892 0.11128 0.0
C1872 C 0.88604 0.71469 0.11557 0.0
C1873 C 0.88316 0.7004 0.16016 0.0
C1874 C 0.88675 0.73857 0.1204 0.0
C1875 C 0.88471 0.74947 0.17005 0.0
C1876 C 0.88131 0.73538 0.21493 0.0
C1877 C 0.88063 0.71116 0.21008 0.0
C1878 C 0.8723 0.81303 0.20247 0.0
C1879 C 0.88732 0.82435 0.16756 0.0
C1880 C 0.87192 0.78878 0.20531 0.0
C1881 C 0.88657 0.77531 0.17339 0.0
C1882 C 0.90243 0.78692 0.1411 0.0
C1883 C 0.90273 0.81089 0.13811 0.0
H1884 H 0.59938 0.2018 0.66095 0.0
H1885 H 0.66965 0.20144 0.71324 0.0
H1886 H 0.59859 0.24338 0.66669 0.0
H1887 H 0.66964 0.24347 0.71588 0.0
H1888 H 0.66021 0.32162 0.73713 0.0
H1889 H 0.65933 0.27983 0.74874 0.0
H1890 H 0.60997 0.2746 0.62088 0.0
H1891 H 0.60954 0.31576 0.61315 0.0
C1892 C 0.61466 0.21071 0.67424 0.0
C1893 C 0.6345 0.19828 0.68691 0.0
C1894 C 0.6144 0.23474 0.6768 0.0
C1895 C 0.63424 0.24736 0.6905 0.0
C1896 C 0.65389 0.23473 0.70551 0.0
C1897 C 0.65395 0.21052 0.70407 0.0
C1898 C 0.64893 0.31147 0.71219 0.0
C1899 C 0.63525 0.32222 0.67338 0.0
C1900 C 0.6486 0.28737 0.71835 0.0
C1901 C 0.63455 0.27329 0.6859 0.0
C1902 C 0.62074 0.28435 0.64773 0.0
C1903 C 0.62085 0.30823 0.64227 0.0
H1904 H 0.95086 0.40879 0.98558 0.0
H1905 H 0.95808 0.36311 0.85177 0.0
H1906 H 0.99272 0.40868 0.99779 0.0
H1907 H 0.99948 0.36267 0.86447 0.0
H1908 H 0.07252 0.35146 0.92639 0.0
H1909 H 0.03047 0.34977 0.9263 0.0
H1910 H 0.02764 0.42306 0.94812 0.0
H1911 H 0.0696 0.42468 0.94721 0.0
C1912 C 0.96128 0.39848 0.95927 0.0
C1913 C 0.95093 0.38597 0.91769 0.0
C1914 C 0.98533 0.39852 0.966 0.0
C1915 C 0.99968 0.38564 0.93215 0.0
C1916 C 0.98917 0.37265 0.89165 0.0
C1917 C 0.9653 0.373 0.88424 0.0
C1918 C 0.0629 0.36712 0.93232 0.0
C1919 C 0.07445 0.38818 0.93719 0.0
C1920 C 0.03876 0.36622 0.93174 0.0
C1921 C 0.02546 0.38629 0.93724 0.0
C1922 C 0.03714 0.40721 0.94446 0.0
C1923 C 0.06124 0.40815 0.94383 0.0
H1924 H 0.45276 0.61893 0.49305 0.0
H1925 H 0.4602 0.64383 0.33286 0.0
H1926 H 0.49478 0.61942 0.50358 0.0
H1927 H 0.50146 0.64442 0.34348 0.0
H1928 H 0.57244 0.66628 0.3895 0.0
H1929 H 0.53072 0.66619 0.39192 0.0
H1930 H 0.53168 0.60025 0.46878 0.0
H1931 H 0.57392 0.60046 0.46633 0.0
C1932 C 0.46322 0.6246 0.4602 0.0
C1933 C 0.45279 0.63139 0.41213 0.0
C1934 C 0.48737 0.62474 0.46613 0.0
C1935 C 0.50174 0.63211 0.42452 0.0
C1936 C 0.49118 0.63893 0.37678 0.0
C1937 C 0.46729 0.63847 0.37062 0.0
C1938 C 0.56382 0.65185 0.4076 0.0
C1939 C 0.57663 0.63332 0.42734 0.0
C1940 C 0.53978 0.65174 0.40879 0.0
C1941 C 0.52756 0.63304 0.42976 0.0
C1942 C 0.54038 0.61498 0.45236 0.0
C1943 C 0.56463 0.61512 0.45116 0.0
H1944 H 0.44717 0.35129 0.58508 0.0
H1945 H 0.45116 0.42499 0.59132 0.0
H1946 H 0.48929 0.34922 0.58393 0.0
H1947 H 0.493 0.42297 0.58856 0.0
H1948 H 0.56904 0.40893 0.53846 0.0
H1949 H 0.52712 0.40912 0.52719 0.0
H1950 H 0.52065 0.36077 0.65528 0.0
H1951 H 0.56225 0.3611 0.66756 0.0
C1952 C 0.45698 0.36705 0.5845 0.0
C1953 C 0.4457 0.3883 0.5877 0.0
C1954 C 0.48114 0.36588 0.58441 0.0
C1955 C 0.49466 0.38595 0.58597 0.0
C1956 C 0.48327 0.40718 0.58667 0.0
C1957 C 0.45922 0.40832 0.58819 0.0
C1958 C 0.55869 0.39815 0.56378 0.0
C1959 C 0.56914 0.38499 0.60388 0.0
C1960 C 0.53463 0.39834 0.55754 0.0
C1961 C 0.5204 0.38488 0.5902 0.0
C1962 C 0.53097 0.37118 0.62909 0.0
C1963 C 0.55489 0.37146 0.63624 0.0
H1964 H 0.07209 0.60213 0.06858 0.0
H1965 H 0.07 0.67248 0.11988 0.0
H1966 H 0.03009 0.60119 0.06521 0.0
H1967 H 0.02842 0.67232 0.11337 0.0
H1968 H 0.95502 0.66106 0.16019 0.0
H1969 H 0.99635 0.66121 0.15583 0.0
H1970 H 0.99375 0.61001 0.03164 0.0
H1971 H 0.95185 0.60862 0.0399 0.0
C1972 C 0.06265 0.61763 0.07756 0.0
C1973 C 0.07449 0.63738 0.09461 0.0
C1974 C 0.03841 0.61715 0.07567 0.0
C1975 C 0.0252 0.63655 0.08991 0.0
C1976 C 0.03741 0.65666 0.10375 0.0
C1977 C 0.06149 0.65694 0.10678 0.0
C1978 C 0.96317 0.64947 0.13261 0.0
C1979 C 0.9498 0.63448 0.10143 0.0
C1980 C 0.98718 0.6499 0.12908 0.0
C1981 C 0.99909 0.63578 0.0929 0.0
C1982 C 0.98564 0.62105 0.06057 0.0
C1983 C 0.96143 0.62042 0.06477 0.0
H1984 H 0.10837 0.57276 0.03315 0.0
H1985 H 0.16305 0.552 0.13779 0.0
H1986 H 0.11013 0.53606 0.98749 0.0
H1987 H 0.16453 0.51461 0.09281 0.0
H1988 H 0.17865 0.45969 0.96452 0.0
H1989 H 0.17626 0.49634 1.01201 0.0
H1990 H 0.10292 0.49652 0.98864 0.0
H1991 H 0.10562 0.46013 0.94072 0.0
C1992 C 0.1205 0.5601 0.04723 0.0
C1993 C 0.13559 0.5655 0.08928 0.0
C1994 C 0.12151 0.53888 0.0209 0.0
C1995 C 0.13762 0.52206 0.03562 0.0
C1996 C 0.15213 0.5271 0.07932 0.0
C1997 C 0.15106 0.54846 0.1059 0.0
C1998 C 0.1621 0.46786 0.96863 0.0
C1999 C 0.14242 0.45728 0.94737 0.0
C2000 C 0.16063 0.48877 0.99667 0.0
C2001 C 0.13936 0.49971 1.00487 0.0
C2002 C 0.11971 0.4891 0.9828 0.0
C2003 C 0.12122 0.46822 0.95479 0.0
H2004 H 0.71202 0.85987 0.34519 0.0
H2005 H 0.70664 0.93248 0.31734 0.0
H2006 H 0.74907 0.85932 0.29997 0.0
H2007 H 0.74293 0.9319 0.27019 0.0
H2008 H 0.81873 0.92932 0.22955 0.0
H2009 H 0.78252 0.92929 0.27669 0.0
H2010 H 0.76797 0.86143 0.21655 0.0
H2011 H 0.80499 0.86112 0.17118 0.0
C2012 C 0.71882 0.87578 0.32992 0.0
C2013 C 0.70627 0.89624 0.33547 0.0
C2014 C 0.74 0.87543 0.30305 0.0
C2015 C 0.74934 0.89554 0.28072 0.0
C2016 C 0.73681 0.91604 0.28717 0.0
C2017 C 0.71577 0.91639 0.31417 0.0
C2018 C 0.80783 0.91436 0.22607 0.0
C2019 C 0.81507 0.89519 0.19642 0.0
C2020 C 0.78681 0.91438 0.2531 0.0
C2021 C 0.77193 0.89534 0.25106 0.0
C2022 C 0.77893 0.87632 0.22027 0.0
C2023 C 0.80014 0.87624 0.19347 0.0
H2024 H 0.39842 0.44796 0.51299 0.0
H2025 H 0.35742 0.47403 0.64179 0.0
H2026 H 0.39845 0.48544 0.47167 0.0
H2027 H 0.35764 0.51216 0.6002 0.0
H2028 H 0.34147 0.56938 0.47453 0.0
H2029 H 0.34234 0.53303 0.52271 0.0
H2030 H 0.41303 0.5238 0.47803 0.0
H2031 H 0.41221 0.56035 0.43111 0.0
C2032 C 0.3895 0.46177 0.53295 0.0
C2033 C 0.37789 0.45772 0.58104 0.0
C2034 C 0.38966 0.48348 0.50917 0.0
C2035 C 0.37808 0.50214 0.53219 0.0
C2036 C 0.36663 0.49827 0.58078 0.0
C2037 C 0.36666 0.47641 0.60505 0.0
C2038 C 0.3573 0.55972 0.47546 0.0
C2039 C 0.37678 0.56796 0.44865 0.0
C2040 C 0.35781 0.5388 0.50329 0.0
C2041 C 0.37775 0.52519 0.50467 0.0
C2042 C 0.39721 0.53347 0.47762 0.0
C2043 C 0.39675 0.5545 0.45034 0.0
H2044 H 0.81795 0.1687 0.79298 0.0
H2045 H 0.80256 0.1037 0.86534 0.0
H2046 H 0.78056 0.16852 0.74863 0.0
H2047 H 0.76519 0.10313 0.81921 0.0
H2048 H 0.71561 0.10235 0.66495 0.0
H2049 H 0.7528 0.10253 0.71194 0.0
H2050 H 0.73659 0.16838 0.78004 0.0
H2051 H 0.69936 0.16778 0.73494 0.0
C2052 C 0.8064 0.1545 0.79999 0.0
C2053 C 0.81317 0.13632 0.83308 0.0
C2054 C 0.78503 0.15434 0.77429 0.0
C2055 C 0.76998 0.13568 0.77973 0.0
C2056 C 0.77648 0.11765 0.81378 0.0
C2057 C 0.79771 0.11813 0.84082 0.0
C2058 C 0.72022 0.117 0.68923 0.0
C2059 C 0.7046 0.13513 0.69591 0.0
C2060 C 0.74134 0.11697 0.71675 0.0
C2061 C 0.74758 0.13539 0.75022 0.0
C2062 C 0.73233 0.15391 0.75483 0.0
C2063 C 0.71105 0.15362 0.72872 0.0
H2064 H 0.85918 0.54905 0.13264 0.0
H2065 H 0.91392 0.56943 0.02872 0.0
H2066 H 0.85788 0.5114 0.08882 0.0
H2067 H 0.91224 0.53255 0.98398 0.0
H2068 H 0.91612 0.45765 0.93218 0.0
H2069 H 0.91925 0.49333 0.98268 0.0
H2070 H 0.84629 0.49219 1.01018 0.0
H2071 H 0.8434 0.4564 0.96007 0.0
C2072 C 0.8712 0.54542 0.10108 0.0
C2073 C 0.88666 0.56246 0.0845 0.0
C2074 C 0.87024 0.52386 0.07513 0.0
C2075 C 0.88481 0.51857 0.03191 0.0
C2076 C 0.90083 0.53544 0.01708 0.0
C2077 C 0.90177 0.55684 0.04288 0.0
C2078 C 0.90071 0.4651 0.94859 0.0
C2079 C 0.87952 0.45391 0.94193 0.0
C2080 C 0.90246 0.48572 0.97784 0.0
C2081 C 0.88304 0.49605 1.00141 0.0
C2082 C 0.86181 0.48487 0.99404 0.0
C2083 C 0.8601 0.46427 0.96477 0.0
H2084 H 0.22424 0.11185 0.89886 0.0
H2085 H 0.19544 0.1465 0.76299 0.0
H2086 H 0.26197 0.11212 0.85562 0.0
H2087 H 0.23249 0.14643 0.72009 0.0
H2088 H 0.30684 0.16224 0.67556 0.0
H2089 H 0.27015 0.16297 0.7219 0.0
H2090 H 0.28266 0.09472 0.78073 0.0
H2091 H 0.31925 0.09397 0.73413 0.0
C2092 C 0.2259 0.11964 0.86011 0.0
C2093 C 0.20659 0.12911 0.83472 0.0
C2094 C 0.24753 0.11963 0.83497 0.0
C2095 C 0.25049 0.1293 0.784 0.0
C2096 C 0.23119 0.13907 0.75938 0.0
C2097 C 0.20973 0.13893 0.78412 0.0
C2098 C 0.30171 0.14728 0.69791 0.0
C2099 C 0.31623 0.1281 0.70107 0.0
C2100 C 0.28059 0.14769 0.72475 0.0
C2101 C 0.27329 0.12896 0.75581 0.0
C2102 C 0.28771 0.10965 0.75823 0.0
C2103 C 0.3087 0.10916 0.73099 0.0
H2104 H 0.66286 0.54644 0.38135 0.0
H2105 H 0.61206 0.56961 0.49292 0.0
H2106 H 0.66312 0.50867 0.42445 0.0
H2107 H 0.61263 0.53256 0.53648 0.0
H2108 H 0.60548 0.45767 0.58554 0.0
H2109 H 0.60317 0.49339 0.53543 0.0
H2110 H 0.67569 0.48956 0.50362 0.0
H2111 H 0.67784 0.45389 0.55389 0.0
C2112 C 0.65145 0.54339 0.41437 0.0
C2113 C 0.63741 0.56122 0.43334 0.0
C2114 C 0.65181 0.52178 0.4398 0.0
C2115 C 0.638 0.51725 0.48471 0.0
C2116 C 0.62337 0.53492 0.502 0.0
C2117 C 0.6231 0.55639 0.47689 0.0
C2118 C 0.62097 0.46452 0.56824 0.0
C2119 C 0.64182 0.45265 0.57381 0.0
C2120 C 0.61969 0.48513 0.53921 0.0
C2121 C 0.63922 0.49469 0.51463 0.0
C2122 C 0.6601 0.4828 0.52066 0.0
C2123 C 0.66137 0.46227 0.5499 0.0
H2124 H 0.31782 0.92486 0.30002 0.0
H2125 H 0.3094 0.85445 0.34722 0.0
H2126 H 0.28081 0.92378 0.25485 0.0
H2127 H 0.27228 0.85324 0.30214 0.0
H2128 H 0.19636 0.86539 0.26293 0.0
H2129 H 0.23404 0.86538 0.30412 0.0
H2130 H 0.25895 0.91022 0.18112 0.0
H2131 H 0.22062 0.91074 0.14064 0.0
C2132 C 0.30823 0.90899 0.30021 0.0
C2133 C 0.31701 0.88963 0.32674 0.0
C2134 C 0.28684 0.90835 0.2741 0.0
C2135 C 0.27322 0.88837 0.27388 0.0
C2136 C 0.28189 0.8691 0.30136 0.0
C2137 C 0.30335 0.86974 0.32736 0.0
C2138 C 0.20986 0.87519 0.24426 0.0
C2139 C 0.20519 0.88814 0.19826 0.0
C2140 C 0.23171 0.87506 0.26792 0.0
C2141 C 0.24996 0.88784 0.24656 0.0
C2142 C 0.24546 0.90039 0.19963 0.0
C2143 C 0.22346 0.90049 0.17582 0.0
H2144 H 0.61237 0.95104 0.50241 0.0
H2145 H 0.66034 0.97488 0.38521 0.0
H2146 H 0.61297 0.98834 0.54542 0.0
H2147 H 0.66059 0.01282 0.42779 0.0
H2148 H 0.67622 0.06885 0.55489 0.0
H2149 H 0.67412 0.03286 0.50533 0.0
H2150 H 0.60233 0.0273 0.54373 0.0
H2151 H 0.60453 0.06342 0.59274 0.0
C2152 C 0.6228 0.96441 0.48508 0.0
C2153 C 0.63628 0.95972 0.43997 0.0
C2154 C 0.62308 0.98603 0.50987 0.0
C2155 C 0.63689 1.00398 0.49073 0.0
C2156 C 0.64992 0.99952 0.44453 0.0
C2157 C 0.64955 0.97778 0.41943 0.0
C2158 C 0.65991 0.06005 0.55248 0.0
C2159 C 0.64056 0.06922 0.57826 0.0
C2160 C 0.65867 0.03931 0.5237 0.0
C2161 C 0.63804 0.02679 0.51992 0.0
C2162 C 0.61868 0.03601 0.54595 0.0
C2163 C 0.61992 0.05683 0.57445 0.0
H2164 H 0.1942 0.36338 0.76783 0.0
H2165 H 0.21833 0.41331 0.8813 0.0
H2166 H 0.23085 0.36482 0.72214 0.0
H2167 H 0.25563 0.41393 0.8374 0.0
H2168 H 0.31334 0.42729 0.7185 0.0
H2169 H 0.27613 0.42625 0.7622 0.0
H2170 H 0.26972 0.35447 0.72275 0.0
H2171 H 0.30686 0.35573 0.67846 0.0
C2172 C 0.20745 0.37451 0.78364 0.0
C2173 C 0.20317 0.38801 0.82908 0.0
C2174 C 0.22872 0.3752 0.75745 0.0
C2175 C 0.24669 0.38941 0.77564 0.0
C2176 C 0.24239 0.40291 0.82129 0.0
C2177 C 0.22099 0.40229 0.84732 0.0
C2178 C 0.30396 0.41127 0.71892 0.0
C2179 C 0.31337 0.39157 0.69491 0.0
C2180 C 0.28255 0.4106 0.74456 0.0
C2181 C 0.26958 0.39022 0.74702 0.0
C2182 C 0.2788 0.37063 0.72173 0.0
C2183 C 0.30027 0.37131 0.69613 0.0
H2184 H 0.89643 0.94901 1.00789 0.0
H2185 H 0.85962 0.97642 0.14197 0.0
H2186 H 0.89633 0.98642 0.9661 0.0
H2187 H 0.8596 0.01442 0.09964 0.0
H2188 H 0.84143 0.07135 0.97411 0.0
H2189 H 0.84265 0.03517 0.02273 0.0
H2190 H 0.91229 0.02473 0.97137 0.0
H2191 H 0.91126 0.06133 0.92447 0.0
C2192 C 0.88836 0.96307 0.02884 0.0
C2193 C 0.87798 0.95942 0.07863 0.0
C2194 C 0.88846 0.98473 1.00475 0.0
C2195 C 0.87799 1.00374 0.02909 0.0
C2196 C 0.86771 1.00025 0.07923 0.0
C2197 C 0.86787 0.97846 0.10384 0.0
C2198 C 0.85714 0.06152 0.97371 0.0
C2199 C 0.87624 0.06946 0.94496 0.0
C2200 C 0.85784 0.04066 1.00176 0.0
C2201 C 0.87756 0.02674 1.00136 0.0
C2202 C 0.89664 0.03467 0.97237 0.0
C2203 C 0.89604 0.0557 0.94498 0.0
H2204 H 0.20877 0.6668 0.18972 0.0
H2205 H 0.20294 0.59568 0.23269 0.0
H2206 H 0.24528 0.66924 0.23688 0.0
H2207 H 0.23953 0.59793 0.27996 0.0
H2208 H 0.29981 0.61184 0.39429 0.0
H2209 H 0.26142 0.61108 0.35386 0.0
H2210 H 0.28387 0.65943 0.23554 0.0
H2211 H 0.32154 0.66061 0.27671 0.0
C2212 C 0.21535 0.65156 0.2088 0.0
C2213 C 0.20271 0.63102 0.20683 0.0
C2214 C 0.23647 0.65293 0.23616 0.0
C2215 C 0.24588 0.63378 0.26281 0.0
C2216 C 0.23305 0.61325 0.26106 0.0
C2217 C 0.21193 0.61191 0.23358 0.0
C2218 C 0.29636 0.62267 0.36035 0.0
C2219 C 0.31399 0.63631 0.3391 0.0
C2220 C 0.27433 0.62201 0.33644 0.0
C2221 C 0.26911 0.6351 0.29066 0.0
C2222 C 0.28667 0.64926 0.27082 0.0
C2223 C 0.30854 0.64988 0.29454 0.0
H2224 H 0.40788 0.94843 0.49541 0.0
H2225 H 0.34641 0.96626 0.4098 0.0
H2226 H 0.40752 0.98575 0.54002 0.0
H2227 H 0.34558 1.0036 0.45615 0.0
H2228 H 0.34182 0.05497 0.60659 0.0
H2229 H 0.3416 0.01764 0.56027 0.0
H2230 H 0.41106 0.02926 0.50947 0.0
H2231 H 0.41091 0.06673 0.55383 0.0
C2232 C 0.3943 0.9604 0.48593 0.0
C2233 C 0.37727 0.95437 0.44864 0.0
C2234 C 0.39408 0.98181 0.51163 0.0
C2235 C 0.37644 0.9977 0.50213 0.0
C2236 C 0.35934 0.99173 0.46476 0.0
C2237 C 0.35993 0.97045 0.43776 0.0
C2238 C 0.3571 0.04937 0.58605 0.0
C2239 C 0.37648 0.0637 0.58441 0.0
C2240 C 0.3569 0.02812 0.55899 0.0
C2241 C 0.37628 0.02042 0.53078 0.0
C2242 C 0.39585 0.03455 0.5307 0.0
C2243 C 0.3958 0.05599 0.55636 0.0
H2244 H 0.81675 0.58911 0.20666 0.0
H2245 H 0.80963 0.66101 0.17264 0.0
H2246 H 0.78024 0.5894 0.25274 0.0
H2247 H 0.77218 0.6612 0.21603 0.0
H2248 H 0.71416 0.66032 0.33994 0.0
H2249 H 0.75125 0.66062 0.29509 0.0
H2250 H 0.74105 0.58996 0.24909 0.0
H2251 H 0.705 0.58943 0.29707 0.0
C2252 C 0.80725 0.60503 0.20848 0.0
C2253 C 0.81648 0.62506 0.18596 0.0
C2254 C 0.78596 0.60518 0.23469 0.0
C2255 C 0.77266 0.62533 0.23881 0.0
C2256 C 0.78172 0.64532 0.21503 0.0
C2257 C 0.80321 0.64518 0.1892 0.0
C2258 C 0.72001 0.64475 0.32095 0.0
C2259 C 0.70633 0.62485 0.32249 0.0
C2260 C 0.74129 0.64497 0.29427 0.0
C2261 C 0.74969 0.62532 0.26764 0.0
C2262 C 0.73584 0.60546 0.26937 0.0
C2263 C 0.71476 0.6052 0.29651 0.0
H2264 H 0.17759 0.06648 0.97591 0.0
H2265 H 0.10628 0.05847 0.93475 0.0
H2266 H 0.17721 0.02931 0.01977 0.0
H2267 H 0.10594 0.02086 0.97777 0.0
H2268 H 0.17582 0.95226 0.05252 0.0
H2269 H 0.17556 0.98892 1.0064 0.0
H2270 H 0.10718 1.00199 0.06352 0.0
H2271 H 0.10728 0.96486 0.10845 0.0
C2272 C 0.16181 0.05671 0.97579 0.0
C2273 C 0.14192 0.06577 0.95197 0.0
C2274 C 0.16161 0.03519 1.00087 0.0
C2275 C 0.14152 0.02178 1.00294 0.0
C2276 C 0.1217 0.03065 0.97805 0.0
C2277 C 0.12193 0.05222 0.95277 0.0
C2278 C 0.16068 0.9629 0.05537 0.0
C2279 C 0.14165 0.95547 0.08498 0.0
C2280 C 0.16058 0.98415 0.02902 0.0
C2281 C 0.14138 0.99881 0.03095 0.0
C2282 C 0.12226 0.99129 0.06037 0.0
C2283 C 0.12241 0.97002 0.08691 0.0
H2284 H 0.71772 0.41762 0.65445 0.0
H2285 H 0.70101 0.35326 0.72805 0.0
H2286 H 0.75463 0.41818 0.70269 0.0
H2287 H 0.73803 0.35332 0.77421 0.0
H2288 H 0.81934 0.35288 0.79287 0.0
H2289 H 0.78242 0.35254 0.74623 0.0
H2290 H 0.76709 0.41941 0.80969 0.0
H2291 H 0.80388 0.41932 0.85842 0.0
C2292 C 0.72217 0.40329 0.67965 0.0
C2293 C 0.70641 0.38525 0.6867 0.0
C2294 C 0.74319 0.40376 0.70799 0.0
C2295 C 0.74936 0.38585 0.74286 0.0
C2296 C 0.73397 0.36742 0.74794 0.0
C2297 C 0.71276 0.36731 0.72108 0.0
C2298 C 0.8079 0.36733 0.79791 0.0
C2299 C 0.81455 0.38597 0.83022 0.0
C2300 C 0.78675 0.3672 0.77079 0.0
C2301 C 0.77173 0.38604 0.77351 0.0
C2302 C 0.77824 0.40467 0.80623 0.0
C2303 C 0.79919 0.40448 0.83485 0.0
loop_
_geom_bond_atom_site_label_1
_geom_bond_atom_site_label_2
_geom_bond_distance
_geom_bond_site_symmetry_2
_ccdc_geom_bond_type
Eu0 N29 2.600 . S
Eu0 N35 2.562 . S
Eu0 O44 2.462 . S
Eu0 O45 2.373 . S
Eu0 O47 2.432 . S
Eu0 O48 2.291 . S
Eu0 O52 2.335 . S
Eu0 O55 2.372 . S
Eu0 C64 2.787 . S
C1 N2 1.365 . S
C1 C4 1.405 . S
C1 C8 1.448 . S
N2 C1 1.365 . S
N2 C5 1.319 . S
N2 Eu11 2.600 . S
C3 C5 1.397 . S
C3 C6 1.367 . S
C3 H23 0.931 . S
C4 C1 1.405 . S
C4 C6 1.403 . S
C4 C10 1.439 1_554 S
C5 N2 1.319 . S
C5 C3 1.397 . S
C5 H16 0.930 . S
C6 C3 1.367 . S
C6 C4 1.403 . S
C6 H27 0.929 . S
C7 C8 1.430 1_556 S
C7 C9 1.387 . S
C7 C13 1.404 . S
C8 C1 1.448 . S
C8 C7 1.430 1_554 S
C8 N12 1.351 . S
C9 C7 1.387 . S
C9 C10 1.374 . S
C9 H24 0.931 . S
C10 C4 1.439 1_556 S
C10 C9 1.374 . S
C10 H25 0.931 . S
Eu11 N2 2.600 . S
Eu11 N12 2.562 . S
Eu11 O46 2.335 . S
Eu11 O49 2.372 . S
Eu11 O50 2.462 1_554 S
Eu11 O51 2.373 . S
Eu11 O53 2.432 1_554 S
Eu11 O54 2.291 . S
Eu11 C75 2.787 1_554 S
N12 C8 1.351 . S
N12 Eu11 2.562 . S
N12 C14 1.325 . S
C13 C7 1.404 . S
C13 C15 1.366 . S
C13 H21 0.930 . S
C14 N12 1.325 . S
C14 C15 1.416 1_554 S
C14 H20 0.929 . S
C15 C13 1.366 . S
C15 C14 1.416 1_556 S
C15 H17 0.930 . S
H16 C5 0.930 . S
H17 C15 0.930 . S
H18 C33 0.930 . S
H19 C40 0.930 . S
H20 C14 0.929 . S
H21 C13 0.930 . S
H22 C36 0.929 . S
H23 C3 0.931 . S
H24 C9 0.931 . S
H25 C10 0.931 . S
H26 C31 0.931 . S
H27 C6 0.929 . S
H28 C39 0.930 . S
N29 Eu0 2.600 . S
N29 C30 1.365 . S
N29 C33 1.319 . S
C30 N29 1.365 . S
C30 C32 1.405 . S
C30 C38 1.448 . S
C31 H26 0.931 . S
C31 C33 1.397 . S
C31 C34 1.367 . S
C32 C30 1.405 . S
C32 C34 1.403 . S
C32 C65 1.439 . S
C33 H18 0.930 . S
C33 N29 1.319 . S
C33 C31 1.397 . S
C34 C31 1.367 . S
C34 C32 1.403 . S
C34 H41 0.929 . S
N35 Eu0 2.562 . S
N35 C36 1.325 . S
N35 C38 1.351 . S
C36 H22 0.929 . S
C36 N35 1.325 . S
C36 C40 1.416 . S
C37 C38 1.430 . S
C37 C39 1.404 . S
C37 C66 1.387 . S
C38 C30 1.448 . S
C38 N35 1.351 . S
C38 C37 1.430 . S
C39 H28 0.930 . S
C39 C37 1.404 . S
C39 C40 1.366 . S
C40 H19 0.930 . S
C40 C36 1.416 . S
C40 C39 1.366 . S
H41 C34 0.929 . S
H42 C65 0.931 . S
H43 C66 0.931 . S
O44 Eu0 2.462 . S
O44 C64 1.252 . S
O45 Eu0 2.373 . S
O45 C56 1.249 . S
O46 Eu11 2.335 . S
O46 C56 1.264 . S
O47 Eu0 2.432 . S
O47 C64 1.268 . S
O48 Eu0 2.291 . S
O48 C63 1.255 . S
O49 Eu11 2.372 . S
O49 C63 1.257 . S
O50 Eu11 2.462 1_556 S
O50 C75 1.252 . S
O51 Eu11 2.373 . S
O51 C67 1.249 . S
O52 Eu0 2.335 . S
O52 C67 1.264 . S
O53 Eu11 2.432 1_556 S
O53 C75 1.268 . S
O54 Eu11 2.291 . S
O54 C74 1.255 . S
O55 Eu0 2.372 . S
O55 C74 1.257 . S
C56 O45 1.249 . S
C56 O46 1.264 . S
C57 C60 1.382 . S
C57 C62 1.390 . S
C57 C64 1.506 . S
C58 C59 1.398 . S
C58 C62 1.392 . S
C59 C58 1.398 . S
C59 C61 1.372 . S
C59 H76 0.931 . S
C60 C57 1.382 . S
C60 C61 1.390 . S
C60 H77 0.931 . S
C61 C59 1.372 . S
C61 C60 1.390 . S
C61 H78 0.929 . S
C62 C57 1.390 . S
C62 C58 1.392 . S
C62 H79 0.930 . S
C63 O48 1.255 . S
C63 O49 1.257 . S
C64 Eu0 2.787 . S
C64 O44 1.252 . S
C64 O47 1.268 . S
C64 C57 1.506 . S
C65 C32 1.439 . S
C65 H42 0.931 . S
C65 C66 1.374 . S
C66 C37 1.387 . S
C66 H43 0.931 . S
C66 C65 1.374 . S
C67 O51 1.249 . S
C67 O52 1.264 . S
C68 C71 1.382 . S
C68 C72 1.390 . S
C68 C75 1.506 . S
C69 C70 1.398 . S
C69 C72 1.392 . S
C70 C69 1.398 . S
C70 C73 1.372 . S
C70 H80 0.931 . S
C71 C68 1.382 . S
C71 C73 1.390 . S
C71 H81 0.931 . S
C72 C68 1.390 . S
C72 C69 1.392 . S
C72 H82 0.930 . S
C73 C70 1.372 . S
C73 C71 1.390 . S
C73 H83 0.929 . S
C74 O54 1.255 . S
C74 O55 1.257 . S
C75 Eu11 2.787 1_556 S
C75 O50 1.252 . S
C75 O53 1.268 . S
C75 C68 1.506 . S
H76 C59 0.931 . S
H77 C60 0.931 . S
H78 C61 0.929 . S
H79 C62 0.930 . S
H80 C70 0.931 . S
H81 C71 0.931 . S
H82 C72 0.930 . S
H83 C73 0.929 . S
Eu84 N113 2.600 . S
Eu84 N119 2.562 . S
Eu84 O128 2.462 . S
Eu84 O129 2.373 . S
Eu84 O131 2.432 . S
Eu84 O132 2.291 . S
Eu84 O136 2.335 . S
Eu84 O139 2.372 . S
Eu84 C148 2.787 . S
C85 N86 1.365 . S
C85 C88 1.405 . S
C85 C92 1.448 . S
N86 C85 1.365 . S
N86 C89 1.319 . S
N86 Eu95 2.600 . S
C87 C89 1.397 . S
C87 C90 1.367 . S
C87 H107 0.931 . S
C88 C85 1.405 . S
C88 C90 1.403 . S
C88 C94 1.439 . S
C89 N86 1.319 . S
C89 C87 1.397 . S
C89 H100 0.930 . S
C90 C87 1.367 . S
C90 C88 1.403 . S
C90 H111 0.929 . S
C91 C92 1.430 . S
C91 C93 1.387 . S
C91 C97 1.404 . S
C92 C85 1.448 . S
C92 C91 1.430 . S
C92 N96 1.351 . S
C93 C91 1.387 . S
C93 C94 1.374 . S
C93 H108 0.931 . S
C94 C88 1.439 . S
C94 C93 1.374 . S
C94 H109 0.931 . S
Eu95 N86 2.600 . S
Eu95 N96 2.562 . S
Eu95 O130 2.335 . S
Eu95 O133 2.372 . S
Eu95 O134 2.462 . S
Eu95 O135 2.373 . S
Eu95 O137 2.432 . S
Eu95 O138 2.291 . S
Eu95 C159 2.787 . S
N96 C92 1.351 . S
N96 Eu95 2.562 . S
N96 C98 1.325 . S
C97 C91 1.404 . S
C97 C99 1.366 . S
C97 H105 0.930 . S
C98 N96 1.325 . S
C98 C99 1.416 . S
C98 H104 0.929 . S
C99 C97 1.366 . S
C99 C98 1.416 . S
C99 H101 0.930 . S
H100 C89 0.930 . S
H101 C99 0.930 . S
H102 C117 0.930 . S
H103 C124 0.930 . S
H104 C98 0.929 . S
H105 C97 0.930 . S
H106 C120 0.929 . S
H107 C87 0.931 . S
H108 C93 0.931 . S
H109 C94 0.931 . S
H110 C115 0.931 . S
H111 C90 0.929 . S
H112 C123 0.930 . S
N113 Eu84 2.600 . S
N113 C114 1.365 . S
N113 C117 1.319 . S
C114 N113 1.365 . S
C114 C116 1.405 . S
C114 C122 1.448 . S
C115 H110 0.931 . S
C115 C117 1.397 . S
C115 C118 1.367 . S
C116 C114 1.405 . S
C116 C118 1.403 . S
C116 C149 1.439 . S
C117 H102 0.930 . S
C117 N113 1.319 . S
C117 C115 1.397 . S
C118 C115 1.367 . S
C118 C116 1.403 . S
C118 H125 0.929 . S
N119 Eu84 2.562 . S
N119 C120 1.325 . S
N119 C122 1.351 . S
C120 H106 0.929 . S
C120 N119 1.325 . S
C120 C124 1.416 . S
C121 C122 1.430 . S
C121 C123 1.404 . S
C121 C150 1.387 . S
C122 C114 1.448 . S
C122 N119 1.351 . S
C122 C121 1.430 . S
C123 H112 0.930 . S
C123 C121 1.404 . S
C123 C124 1.366 . S
C124 H103 0.930 . S
C124 C120 1.416 . S
C124 C123 1.366 . S
H125 C118 0.929 . S
H126 C149 0.931 . S
H127 C150 0.931 . S
O128 Eu84 2.462 . S
O128 C148 1.252 . S
O129 Eu84 2.373 . S
O129 C140 1.249 . S
O130 Eu95 2.335 . S
O130 C140 1.264 . S
O131 Eu84 2.432 . S
O131 C148 1.268 . S
O132 Eu84 2.291 . S
O132 C147 1.255 . S
O133 Eu95 2.372 . S
O133 C147 1.257 . S
O134 Eu95 2.462 . S
O134 C159 1.252 . S
O135 Eu95 2.373 . S
O135 C151 1.249 . S
O136 Eu84 2.335 . S
O136 C151 1.264 . S
O137 Eu95 2.432 . S
O137 C159 1.268 . S
O138 Eu95 2.291 . S
O138 C158 1.255 . S
O139 Eu84 2.372 . S
O139 C158 1.257 . S
C140 O129 1.249 . S
C140 O130 1.264 . S
C141 C144 1.382 . S
C141 C146 1.390 . S
C141 C148 1.506 . S
C142 C143 1.398 . S
C142 C146 1.392 . S
C143 C142 1.398 . S
C143 C145 1.372 . S
C143 H160 0.931 . S
C144 C141 1.382 . S
C144 C145 1.390 . S
C144 H161 0.931 . S
C145 C143 1.372 . S
C145 C144 1.390 . S
C145 H162 0.929 . S
C146 C141 1.390 . S
C146 C142 1.392 . S
C146 H163 0.930 . S
C147 O132 1.255 . S
C147 O133 1.257 . S
C148 Eu84 2.787 . S
C148 O128 1.252 . S
C148 O131 1.268 . S
C148 C141 1.506 . S
C149 C116 1.439 . S
C149 H126 0.931 . S
C149 C150 1.374 . S
C150 C121 1.387 . S
C150 H127 0.931 . S
C150 C149 1.374 . S
C151 O135 1.249 . S
C151 O136 1.264 . S
C152 C155 1.382 . S
C152 C156 1.390 . S
C152 C159 1.506 . S
C153 C154 1.398 . S
C153 C156 1.392 . S
C154 C153 1.398 . S
C154 C157 1.372 . S
C154 H164 0.931 . S
C155 C152 1.382 . S
C155 C157 1.390 . S
C155 H165 0.931 . S
C156 C152 1.390 . S
C156 C153 1.392 . S
C156 H166 0.930 . S
C157 C154 1.372 . S
C157 C155 1.390 . S
C157 H167 0.929 . S
C158 O138 1.255 . S
C158 O139 1.257 . S
C159 Eu95 2.787 . S
C159 O134 1.252 . S
C159 O137 1.268 . S
C159 C152 1.506 . S
H160 C143 0.931 . S
H161 C144 0.931 . S
H162 C145 0.929 . S
H163 C146 0.930 . S
H164 C154 0.931 . S
H165 C155 0.931 . S
H166 C156 0.930 . S
H167 C157 0.929 . S
Eu168 N197 2.600 . S
Eu168 N203 2.562 . S
Eu168 O212 2.462 . S
Eu168 O213 2.373 . S
Eu168 O215 2.432 . S
Eu168 O216 2.291 . S
Eu168 O220 2.335 . S
Eu168 O223 2.372 . S
Eu168 C232 2.787 . S
C169 N170 1.365 . S
C169 C172 1.405 . S
C169 C176 1.448 . S
N170 C169 1.365 . S
N170 C173 1.319 . S
N170 Eu179 2.600 . S
C171 C173 1.397 . S
C171 C174 1.367 . S
C171 H191 0.931 . S
C172 C169 1.405 . S
C172 C174 1.403 . S
C172 C178 1.439 . S
C173 N170 1.319 . S
C173 C171 1.397 . S
C173 H184 0.930 . S
C174 C171 1.367 . S
C174 C172 1.403 . S
C174 H195 0.929 . S
C175 C176 1.430 . S
C175 C177 1.387 . S
C175 C181 1.404 . S
C176 C169 1.448 . S
C176 C175 1.430 . S
C176 N180 1.351 . S
C177 C175 1.387 . S
C177 C178 1.374 . S
C177 H192 0.931 . S
C178 C172 1.439 . S
C178 C177 1.374 . S
C178 H193 0.931 . S
Eu179 N170 2.600 . S
Eu179 N180 2.562 . S
Eu179 O214 2.335 . S
Eu179 O217 2.372 . S
Eu179 O218 2.462 . S
Eu179 O219 2.373 . S
Eu179 O221 2.432 . S
Eu179 O222 2.291 . S
Eu179 C243 2.787 . S
N180 C176 1.351 . S
N180 Eu179 2.562 . S
N180 C182 1.325 . S
C181 C175 1.404 . S
C181 C183 1.366 . S
C181 H189 0.930 . S
C182 N180 1.325 . S
C182 C183 1.416 . S
C182 H188 0.929 . S
C183 C181 1.366 . S
C183 C182 1.416 . S
C183 H185 0.930 . S
H184 C173 0.930 . S
H185 C183 0.930 . S
H186 C201 0.930 . S
H187 C208 0.930 . S
H188 C182 0.929 . S
H189 C181 0.930 . S
H190 C204 0.929 . S
H191 C171 0.931 . S
H192 C177 0.931 . S
H193 C178 0.931 . S
H194 C199 0.931 . S
H195 C174 0.929 . S
H196 C207 0.930 . S
N197 Eu168 2.600 . S
N197 C198 1.365 . S
N197 C201 1.319 . S
C198 N197 1.365 . S
C198 C200 1.405 . S
C198 C206 1.448 . S
C199 H194 0.931 . S
C199 C201 1.397 . S
C199 C202 1.367 . S
C200 C198 1.405 . S
C200 C202 1.403 . S
C200 C233 1.439 . S
C201 H186 0.930 . S
C201 N197 1.319 . S
C201 C199 1.397 . S
C202 C199 1.367 . S
C202 C200 1.403 . S
C202 H209 0.929 . S
N203 Eu168 2.562 . S
N203 C204 1.325 . S
N203 C206 1.351 . S
C204 H190 0.929 . S
C204 N203 1.325 . S
C204 C208 1.416 . S
C205 C206 1.430 . S
C205 C207 1.404 . S
C205 C234 1.387 . S
C206 C198 1.448 . S
C206 N203 1.351 . S
C206 C205 1.430 . S
C207 H196 0.930 . S
C207 C205 1.404 . S
C207 C208 1.366 . S
C208 H187 0.930 . S
C208 C204 1.416 . S
C208 C207 1.366 . S
H209 C202 0.929 . S
H210 C233 0.931 . S
H211 C234 0.931 . S
O212 Eu168 2.462 . S
O212 C232 1.252 . S
O213 Eu168 2.373 . S
O213 C224 1.249 . S
O214 Eu179 2.335 . S
O214 C224 1.264 . S
O215 Eu168 2.432 . S
O215 C232 1.268 . S
O216 Eu168 2.291 . S
O216 C231 1.255 . S
O217 Eu179 2.372 . S
O217 C231 1.257 . S
O218 Eu179 2.462 . S
O218 C243 1.252 . S
O219 Eu179 2.373 . S
O219 C235 1.249 . S
O220 Eu168 2.335 . S
O220 C235 1.264 . S
O221 Eu179 2.432 . S
O221 C243 1.268 . S
O222 Eu179 2.291 . S
O222 C242 1.255 . S
O223 Eu168 2.372 . S
O223 C242 1.257 . S
C224 O213 1.249 . S
C224 O214 1.264 . S
C225 C228 1.382 . S
C225 C230 1.390 . S
C225 C232 1.506 . S
C226 C227 1.398 . S
C226 C230 1.392 . S
C227 C226 1.398 . S
C227 C229 1.372 . S
C227 H244 0.931 . S
C228 C225 1.382 . S
C228 C229 1.390 . S
C228 H245 0.931 . S
C229 C227 1.372 . S
C229 C228 1.390 . S
C229 H246 0.929 . S
C230 C225 1.390 . S
C230 C226 1.392 . S
C230 H247 0.930 . S
C231 O216 1.255 . S
C231 O217 1.257 . S
C232 Eu168 2.787 . S
C232 O212 1.252 . S
C232 O215 1.268 . S
C232 C225 1.506 . S
C233 C200 1.439 . S
C233 H210 0.931 . S
C233 C234 1.374 . S
C234 C205 1.387 . S
C234 H211 0.931 . S
C234 C233 1.374 . S
C235 O219 1.249 . S
C235 O220 1.264 . S
C236 C239 1.382 . S
C236 C240 1.390 . S
C236 C243 1.506 . S
C237 C238 1.398 . S
C237 C240 1.392 . S
C238 C237 1.398 . S
C238 C241 1.372 . S
C238 H248 0.931 . S
C239 C236 1.382 . S
C239 C241 1.390 . S
C239 H249 0.931 . S
C240 C236 1.390 . S
C240 C237 1.392 . S
C240 H250 0.930 . S
C241 C238 1.372 . S
C241 C239 1.390 . S
C241 H251 0.929 . S
C242 O222 1.255 . S
C242 O223 1.257 . S
C243 Eu179 2.787 . S
C243 O218 1.252 . S
C243 O221 1.268 . S
C243 C236 1.506 . S
H244 C227 0.931 . S
H245 C228 0.931 . S
H246 C229 0.929 . S
H247 C230 0.930 . S
H248 C238 0.931 . S
H249 C239 0.931 . S
H250 C240 0.930 . S
H251 C241 0.929 . S
Eu252 N281 2.600 . S
Eu252 N287 2.562 . S
Eu252 O296 2.462 1_556 S
Eu252 O297 2.373 . S
Eu252 O299 2.432 1_556 S
Eu252 O300 2.291 . S
Eu252 O304 2.335 . S
Eu252 O307 2.372 . S
Eu252 C316 2.787 1_556 S
C253 N254 1.365 . S
C253 C256 1.405 . S
C253 C260 1.448 . S
N254 C253 1.365 . S
N254 C257 1.319 . S
N254 Eu263 2.600 . S
C255 C257 1.397 . S
C255 C258 1.367 . S
C255 H275 0.931 . S
C256 C253 1.405 . S
C256 C258 1.403 . S
C256 C262 1.439 . S
C257 N254 1.319 . S
C257 C255 1.397 . S
C257 H268 0.930 . S
C258 C255 1.367 . S
C258 C256 1.403 . S
C258 H279 0.929 . S
C259 C260 1.430 . S
C259 C261 1.387 . S
C259 C265 1.404 . S
C260 C253 1.448 . S
C260 C259 1.430 . S
C260 N264 1.351 . S
C261 C259 1.387 . S
C261 C262 1.374 . S
C261 H276 0.896 1_545 S
C262 C256 1.439 . S
C262 C261 1.374 . S
C262 H277 0.931 . S
Eu263 N254 2.600 . S
Eu263 N264 2.562 . S
Eu263 O298 2.335 . S
Eu263 O301 2.372 . S
Eu263 O302 2.462 . S
Eu263 O303 2.373 . S
Eu263 O305 2.432 . S
Eu263 O306 2.291 . S
Eu263 C327 2.787 . S
N264 C260 1.351 . S
N264 Eu263 2.562 . S
N264 C266 1.325 . S
C265 C259 1.404 . S
C265 C267 1.366 . S
C265 H273 0.930 . S
C266 N264 1.325 . S
C266 C267 1.416 . S
C266 H272 0.929 . S
C267 C265 1.366 . S
C267 C266 1.416 . S
C267 H269 0.930 . S
H268 C257 0.930 . S
H269 C267 0.930 . S
H270 C285 0.930 . S
H271 C292 0.930 . S
H272 C266 0.929 . S
H273 C265 0.930 . S
H274 C288 0.929 . S
H275 C255 0.931 . S
H276 C261 0.896 1_565 S
H277 C262 0.931 . S
H278 C283 0.931 . S
H279 C258 0.929 . S
H280 C291 0.930 . S
N281 Eu252 2.600 . S
N281 C282 1.365 . S
N281 C285 1.319 . S
C282 N281 1.365 . S
C282 C284 1.405 . S
C282 C290 1.448 . S
C283 H278 0.931 . S
C283 C285 1.397 . S
C283 C286 1.367 . S
C284 C282 1.405 . S
C284 C286 1.403 . S
C284 C317 1.439 1_556 S
C285 H270 0.930 . S
C285 N281 1.319 . S
C285 C283 1.397 . S
C286 C283 1.367 . S
C286 C284 1.403 . S
C286 H293 0.929 . S
N287 Eu252 2.562 . S
N287 C288 1.325 . S
N287 C290 1.351 . S
C288 H274 0.929 . S
C288 N287 1.325 . S
C288 C292 1.416 1_556 S
C289 C290 1.430 1_554 S
C289 C291 1.404 . S
C289 C318 1.387 . S
C290 C282 1.448 . S
C290 N287 1.351 . S
C290 C289 1.430 1_556 S
C291 H280 0.930 . S
C291 C289 1.404 . S
C291 C292 1.366 . S
C292 H271 0.930 . S
C292 C288 1.416 1_554 S
C292 C291 1.366 . S
H293 C286 0.929 . S
H294 C317 0.931 . S
H295 C318 0.931 . S
O296 Eu252 2.462 1_554 S
O296 C316 1.252 . S
O297 Eu252 2.373 . S
O297 C308 1.249 . S
O298 Eu263 2.335 . S
O298 C308 1.264 . S
O299 Eu252 2.432 1_554 S
O299 C316 1.268 . S
O300 Eu252 2.291 . S
O300 C315 1.255 . S
O301 Eu263 2.372 . S
O301 C315 1.257 . S
O302 Eu263 2.462 . S
O302 C327 1.252 . S
O303 Eu263 2.373 . S
O303 C319 1.249 . S
O304 Eu252 2.335 . S
O304 C319 1.264 . S
O305 Eu263 2.432 . S
O305 C327 1.268 . S
O306 Eu263 2.291 . S
O306 C326 1.255 . S
O307 Eu252 2.372 . S
O307 C326 1.257 . S
C308 O297 1.249 . S
C308 O298 1.264 . S
C309 C312 1.382 . S
C309 C314 1.390 . S
C309 C316 1.506 . S
C310 C311 1.398 . S
C310 C314 1.392 . S
C311 C310 1.398 . S
C311 C313 1.372 . S
C311 H328 0.931 . S
C312 C309 1.382 . S
C312 C313 1.390 . S
C312 H329 0.931 . S
C313 C311 1.372 . S
C313 C312 1.390 . S
C313 H330 0.929 . S
C314 C309 1.390 . S
C314 C310 1.392 . S
C314 H331 0.930 . S
C315 O300 1.255 . S
C315 O301 1.257 . S
C316 Eu252 2.787 1_554 S
C316 O296 1.252 . S
C316 O299 1.268 . S
C316 C309 1.506 . S
C317 C284 1.439 1_554 S
C317 H294 0.931 . S
C317 C318 1.374 . S
C318 C289 1.387 . S
C318 H295 0.931 . S
C318 C317 1.374 . S
C319 O303 1.249 . S
C319 O304 1.264 . S
C320 C323 1.382 . S
C320 C324 1.390 . S
C320 C327 1.506 . S
C321 C322 1.398 . S
C321 C324 1.392 . S
C322 C321 1.398 . S
C322 C325 1.372 . S
C322 H332 0.931 . S
C323 C320 1.382 . S
C323 C325 1.390 . S
C323 H333 0.931 . S
C324 C320 1.390 . S
C324 C321 1.392 . S
C324 H334 0.930 . S
C325 C322 1.372 . S
C325 C323 1.390 . S
C325 H335 0.929 . S
C326 O306 1.255 . S
C326 O307 1.257 . S
C327 Eu263 2.787 . S
C327 O302 1.252 . S
C327 O305 1.268 . S
C327 C320 1.506 . S
H328 C311 0.931 . S
H329 C312 0.931 . S
H330 C313 0.929 . S
H331 C314 0.930 . S
H332 C322 0.931 . S
H333 C323 0.931 . S
H334 C324 0.930 . S
H335 C325 0.929 . S
Eu336 N365 2.600 . S
Eu336 N371 2.562 . S
Eu336 O380 2.462 . S
Eu336 O381 2.373 . S
Eu336 O383 2.432 . S
Eu336 O384 2.291 . S
Eu336 O388 2.335 . S
Eu336 O391 2.372 . S
Eu336 C400 2.787 . S
C337 N338 1.365 . S
C337 C340 1.405 . S
C337 C344 1.448 . S
N338 C337 1.365 . S
N338 C341 1.319 . S
N338 Eu347 2.600 . S
C339 C341 1.397 . S
C339 C342 1.367 . S
C339 H359 0.931 . S
C340 C337 1.405 . S
C340 C342 1.403 . S
C340 C346 1.439 1_556 S
C341 N338 1.319 . S
C341 C339 1.397 . S
C341 H352 0.930 . S
C342 C339 1.367 . S
C342 C340 1.403 . S
C342 H363 0.929 . S
C343 C344 1.430 1_554 S
C343 C345 1.387 . S
C343 C349 1.404 . S
C344 C337 1.448 . S
C344 C343 1.430 1_556 S
C344 N348 1.351 . S
C345 C343 1.387 . S
C345 C346 1.374 . S
C345 H360 0.931 . S
C346 C340 1.439 1_554 S
C346 C345 1.374 . S
C346 H361 0.931 . S
Eu347 N338 2.600 . S
Eu347 N348 2.562 . S
Eu347 O382 2.335 . S
Eu347 O385 2.372 . S
Eu347 O386 2.462 1_556 S
Eu347 O387 2.373 . S
Eu347 O389 2.432 1_556 S
Eu347 O390 2.291 . S
Eu347 C411 2.787 1_556 S
N348 C344 1.351 . S
N348 Eu347 2.562 . S
N348 C350 1.325 . S
C349 C343 1.404 . S
C349 C351 1.366 . S
C349 H357 0.930 . S
C350 N348 1.325 . S
C350 C351 1.416 1_556 S
C350 H356 0.929 . S
C351 C349 1.366 . S
C351 C350 1.416 1_554 S
C351 H353 0.930 . S
H352 C341 0.930 . S
H353 C351 0.930 . S
H354 C369 0.930 . S
H355 C376 0.930 . S
H356 C350 0.929 . S
H357 C349 0.930 . S
H358 C372 0.929 . S
H359 C339 0.931 . S
H360 C345 0.931 . S
H361 C346 0.931 . S
H362 C367 0.931 . S
H363 C342 0.929 . S
H364 C375 0.930 . S
N365 Eu336 2.600 . S
N365 C366 1.365 . S
N365 C369 1.319 . S
C366 N365 1.365 . S
C366 C368 1.405 . S
C366 C374 1.448 . S
C367 H362 0.931 . S
C367 C369 1.397 . S
C367 C370 1.367 . S
C368 C366 1.405 . S
C368 C370 1.403 . S
C368 C401 1.439 . S
C369 H354 0.930 . S
C369 N365 1.319 . S
C369 C367 1.397 . S
C370 C367 1.367 . S
C370 C368 1.403 . S
C370 H377 0.929 . S
N371 Eu336 2.562 . S
N371 C372 1.325 . S
N371 C374 1.351 . S
C372 H358 0.929 . S
C372 N371 1.325 . S
C372 C376 1.416 . S
C373 C374 1.430 . S
C373 C375 1.404 . S
C373 C402 1.387 . S
C374 C366 1.448 . S
C374 N371 1.351 . S
C374 C373 1.430 . S
C375 H364 0.930 . S
C375 C373 1.404 . S
C375 C376 1.366 . S
C376 H355 0.930 . S
C376 C372 1.416 . S
C376 C375 1.366 . S
H377 C370 0.929 . S
H378 C401 0.931 . S
H379 C402 0.931 . S
O380 Eu336 2.462 . S
O380 C400 1.252 . S
O381 Eu336 2.373 . S
O381 C392 1.249 . S
O382 Eu347 2.335 . S
O382 C392 1.264 . S
O383 Eu336 2.432 . S
O383 C400 1.268 . S
O384 Eu336 2.291 . S
O384 C399 1.255 . S
O385 Eu347 2.372 . S
O385 C399 1.257 . S
O386 Eu347 2.462 1_554 S
O386 C411 1.252 . S
O387 Eu347 2.373 . S
O387 C403 1.249 . S
O388 Eu336 2.335 . S
O388 C403 1.264 . S
O389 Eu347 2.432 1_554 S
O389 C411 1.268 . S
O390 Eu347 2.291 . S
O390 C410 1.255 . S
O391 Eu336 2.372 . S
O391 C410 1.257 . S
C392 O381 1.249 . S
C392 O382 1.264 . S
C393 C396 1.382 . S
C393 C398 1.390 . S
C393 C400 1.506 . S
C394 C395 1.398 . S
C394 C398 1.392 . S
C395 C394 1.398 . S
C395 C397 1.372 . S
C395 H412 0.931 . S
C396 C393 1.382 . S
C396 C397 1.390 . S
C396 H413 0.931 . S
C397 C395 1.372 . S
C397 C396 1.390 . S
C397 H414 0.929 . S
C398 C393 1.390 . S
C398 C394 1.392 . S
C398 H415 0.930 . S
C399 O384 1.255 . S
C399 O385 1.257 . S
C400 Eu336 2.787 . S
C400 O380 1.252 . S
C400 O383 1.268 . S
C400 C393 1.506 . S
C401 C368 1.439 . S
C401 H378 0.931 . S
C401 C402 1.374 . S
C402 C373 1.387 . S
C402 H379 0.931 . S
C402 C401 1.374 . S
C403 O387 1.249 . S
C403 O388 1.264 . S
C404 C407 1.382 . S
C404 C408 1.390 . S
C404 C411 1.506 . S
C405 C406 1.398 . S
C405 C408 1.392 . S
C406 C405 1.398 . S
C406 C409 1.372 . S
C406 H416 0.931 . S
C407 C404 1.382 . S
C407 C409 1.390 . S
C407 H417 0.931 . S
C408 C404 1.390 . S
C408 C405 1.392 . S
C408 H418 0.930 . S
C409 C406 1.372 . S
C409 C407 1.390 . S
C409 H419 0.929 . S
C410 O390 1.255 . S
C410 O391 1.257 . S
C411 Eu347 2.787 1_554 S
C411 O386 1.252 . S
C411 O389 1.268 . S
C411 C404 1.506 . S
H412 C395 0.931 . S
H413 C396 0.931 . S
H414 C397 0.929 . S
H415 C398 0.930 . S
H416 C406 0.931 . S
H417 C407 0.931 . S
H418 C408 0.930 . S
H419 C409 0.929 . S
Eu420 N449 2.600 . S
Eu420 N455 2.562 . S
Eu420 O464 2.462 . S
Eu420 O465 2.373 . S
Eu420 O467 2.432 . S
Eu420 O468 2.291 . S
Eu420 O472 2.335 . S
Eu420 O475 2.372 . S
Eu420 C484 2.787 . S
C421 N422 1.365 . S
C421 C424 1.405 . S
C421 C428 1.448 . S
N422 C421 1.365 . S
N422 C425 1.319 . S
N422 Eu431 2.600 . S
C423 C425 1.397 . S
C423 C426 1.367 . S
C423 H443 0.931 . S
C424 C421 1.405 . S
C424 C426 1.403 . S
C424 C430 1.439 1_554 S
C425 N422 1.319 . S
C425 C423 1.397 . S
C425 H436 0.930 . S
C426 C423 1.367 . S
C426 C424 1.403 . S
C426 H447 0.929 . S
C427 C428 1.430 1_556 S
C427 C429 1.387 . S
C427 C433 1.404 . S
C428 C421 1.448 . S
C428 C427 1.430 1_554 S
C428 N432 1.351 . S
C429 C427 1.387 . S
C429 C430 1.374 . S
C429 H444 0.931 . S
C430 C424 1.439 1_556 S
C430 C429 1.374 . S
C430 H445 0.931 . S
Eu431 N422 2.600 . S
Eu431 N432 2.562 . S
Eu431 O466 2.335 . S
Eu431 O469 2.372 . S
Eu431 O470 2.462 1_554 S
Eu431 O471 2.373 . S
Eu431 O473 2.432 1_554 S
Eu431 O474 2.291 . S
Eu431 C495 2.787 1_554 S
N432 C428 1.351 . S
N432 Eu431 2.562 . S
N432 C434 1.325 . S
C433 C427 1.404 . S
C433 C435 1.366 . S
C433 H441 0.930 . S
C434 N432 1.325 . S
C434 C435 1.416 1_554 S
C434 H440 0.929 . S
C435 C433 1.366 . S
C435 C434 1.416 1_556 S
C435 H437 0.930 . S
H436 C425 0.930 . S
H437 C435 0.930 . S
H438 C453 0.930 . S
H439 C460 0.930 . S
H440 C434 0.929 . S
H441 C433 0.930 . S
H442 C456 0.929 . S
H443 C423 0.931 . S
H444 C429 0.931 . S
H445 C430 0.931 . S
H446 C451 0.931 . S
H447 C426 0.929 . S
H448 C459 0.930 . S
N449 Eu420 2.600 . S
N449 C450 1.365 . S
N449 C453 1.319 . S
C450 N449 1.365 . S
C450 C452 1.405 . S
C450 C458 1.448 . S
C451 H446 0.931 . S
C451 C453 1.397 . S
C451 C454 1.367 . S
C452 C450 1.405 . S
C452 C454 1.403 . S
C452 C485 1.439 . S
C453 H438 0.930 . S
C453 N449 1.319 . S
C453 C451 1.397 . S
C454 C451 1.367 . S
C454 C452 1.403 . S
C454 H461 0.929 . S
N455 Eu420 2.562 . S
N455 C456 1.325 . S
N455 C458 1.351 . S
C456 H442 0.929 . S
C456 N455 1.325 . S
C456 C460 1.416 . S
C457 C458 1.430 . S
C457 C459 1.404 . S
C457 C486 1.387 . S
C458 C450 1.448 . S
C458 N455 1.351 . S
C458 C457 1.430 . S
C459 H448 0.930 . S
C459 C457 1.404 . S
C459 C460 1.366 . S
C460 H439 0.930 . S
C460 C456 1.416 . S
C460 C459 1.366 . S
H461 C454 0.929 . S
H462 C485 0.931 . S
H463 C486 0.931 . S
O464 Eu420 2.462 . S
O464 C484 1.252 . S
O465 Eu420 2.373 . S
O465 C476 1.249 . S
O466 Eu431 2.335 . S
O466 C476 1.264 . S
O467 Eu420 2.432 . S
O467 C484 1.268 . S
O468 Eu420 2.291 . S
O468 C483 1.255 . S
O469 Eu431 2.372 . S
O469 C483 1.257 . S
O470 Eu431 2.462 1_556 S
O470 C495 1.252 . S
O471 Eu431 2.373 . S
O471 C487 1.249 . S
O472 Eu420 2.335 . S
O472 C487 1.264 . S
O473 Eu431 2.432 1_556 S
O473 C495 1.268 . S
O474 Eu431 2.291 . S
O474 C494 1.255 . S
O475 Eu420 2.372 . S
O475 C494 1.257 . S
C476 O465 1.249 . S
C476 O466 1.264 . S
C477 C480 1.382 . S
C477 C482 1.390 . S
C477 C484 1.506 . S
C478 C479 1.398 . S
C478 C482 1.392 . S
C479 C478 1.398 . S
C479 C481 1.372 . S
C479 H496 0.931 . S
C480 C477 1.382 . S
C480 C481 1.390 . S
C480 H497 0.931 . S
C481 C479 1.372 . S
C481 C480 1.390 . S
C481 H498 0.929 . S
C482 C477 1.390 . S
C482 C478 1.392 . S
C482 H499 0.930 . S
C483 O468 1.255 . S
C483 O469 1.257 . S
C484 Eu420 2.787 . S
C484 O464 1.252 . S
C484 O467 1.268 . S
C484 C477 1.506 . S
C485 C452 1.439 . S
C485 H462 0.931 . S
C485 C486 1.374 . S
C486 C457 1.387 . S
C486 H463 0.931 . S
C486 C485 1.374 . S
C487 O471 1.249 . S
C487 O472 1.264 . S
C488 C491 1.382 . S
C488 C492 1.390 . S
C488 C495 1.506 . S
C489 C490 1.398 . S
C489 C492 1.392 . S
C490 C489 1.398 . S
C490 C493 1.372 . S
C490 H500 0.931 . S
C491 C488 1.382 . S
C491 C493 1.390 . S
C491 H501 0.931 . S
C492 C488 1.390 . S
C492 C489 1.392 . S
C492 H502 0.930 . S
C493 C490 1.372 . S
C493 C491 1.390 . S
C493 H503 0.929 . S
C494 O474 1.255 . S
C494 O475 1.257 . S
C495 Eu431 2.787 1_556 S
C495 O470 1.252 . S
C495 O473 1.268 . S
C495 C488 1.506 . S
H496 C479 0.931 . S
H497 C480 0.931 . S
H498 C481 0.929 . S
H499 C482 0.930 . S
H500 C490 0.931 . S
H501 C491 0.931 . S
H502 C492 0.930 . S
H503 C493 0.929 . S
Eu504 N533 2.600 . S
Eu504 N539 2.562 . S
Eu504 O548 2.462 . S
Eu504 O549 2.373 . S
Eu504 O551 2.432 . S
Eu504 O552 2.291 . S
Eu504 O556 2.335 . S
Eu504 O559 2.372 . S
Eu504 C568 2.787 . S
C505 N506 1.365 . S
C505 C508 1.405 . S
C505 C512 1.448 . S
N506 C505 1.365 . S
N506 C509 1.319 . S
N506 Eu515 2.600 . S
C507 C509 1.397 . S
C507 C510 1.367 . S
C507 H527 0.931 . S
C508 C505 1.405 . S
C508 C510 1.403 . S
C508 C514 1.439 . S
C509 N506 1.319 . S
C509 C507 1.397 . S
C509 H520 0.930 . S
C510 C507 1.367 . S
C510 C508 1.403 . S
C510 H531 0.929 . S
C511 C512 1.430 . S
C511 C513 1.387 . S
C511 C517 1.404 . S
C512 C505 1.448 . S
C512 C511 1.430 . S
C512 N516 1.351 . S
C513 C511 1.387 . S
C513 C514 1.374 . S
C513 H528 0.931 . S
C514 C508 1.439 . S
C514 C513 1.374 . S
C514 H529 0.931 . S
Eu515 N506 2.600 . S
Eu515 N516 2.562 . S
Eu515 O550 2.335 . S
Eu515 O553 2.372 . S
Eu515 O554 2.462 . S
Eu515 O555 2.373 . S
Eu515 O557 2.432 . S
Eu515 O558 2.291 . S
Eu515 C579 2.787 . S
N516 C512 1.351 . S
N516 Eu515 2.562 . S
N516 C518 1.325 . S
C517 C511 1.404 . S
C517 C519 1.366 . S
C517 H525 0.930 . S
C518 N516 1.325 . S
C518 C519 1.416 . S
C518 H524 0.929 . S
C519 C517 1.366 . S
C519 C518 1.416 . S
C519 H521 0.930 . S
H520 C509 0.930 . S
H521 C519 0.930 . S
H522 C537 0.930 . S
H523 C544 0.930 . S
H524 C518 0.929 . S
H525 C517 0.930 . S
H526 C540 0.929 . S
H527 C507 0.931 . S
H528 C513 0.931 . S
H529 C514 0.931 . S
H530 C535 0.931 . S
H531 C510 0.929 . S
H532 C543 0.930 . S
N533 Eu504 2.600 . S
N533 C534 1.365 . S
N533 C537 1.319 . S
C534 N533 1.365 . S
C534 C536 1.405 . S
C534 C542 1.448 . S
C535 H530 0.931 . S
C535 C537 1.397 . S
C535 C538 1.367 . S
C536 C534 1.405 . S
C536 C538 1.403 . S
C536 C569 1.439 . S
C537 H522 0.930 . S
C537 N533 1.319 . S
C537 C535 1.397 . S
C538 C535 1.367 . S
C538 C536 1.403 . S
C538 H545 0.929 . S
N539 Eu504 2.562 . S
N539 C540 1.325 . S
N539 C542 1.351 . S
C540 H526 0.929 . S
C540 N539 1.325 . S
C540 C544 1.416 . S
C541 C542 1.430 . S
C541 C543 1.404 . S
C541 C570 1.387 . S
C542 C534 1.448 . S
C542 N539 1.351 . S
C542 C541 1.430 . S
C543 H532 0.930 . S
C543 C541 1.404 . S
C543 C544 1.366 . S
C544 H523 0.930 . S
C544 C540 1.416 . S
C544 C543 1.366 . S
H545 C538 0.929 . S
H546 C569 0.931 . S
H547 C570 0.931 . S
O548 Eu504 2.462 . S
O548 C568 1.252 . S
O549 Eu504 2.373 . S
O549 C560 1.249 . S
O550 Eu515 2.335 . S
O550 C560 1.264 . S
O551 Eu504 2.432 . S
O551 C568 1.268 . S
O552 Eu504 2.291 . S
O552 C567 1.255 . S
O553 Eu515 2.372 . S
O553 C567 1.257 . S
O554 Eu515 2.462 . S
O554 C579 1.252 . S
O555 Eu515 2.373 . S
O555 C571 1.249 . S
O556 Eu504 2.335 . S
O556 C571 1.264 . S
O557 Eu515 2.432 . S
O557 C579 1.268 . S
O558 Eu515 2.291 . S
O558 C578 1.255 . S
O559 Eu504 2.372 . S
O559 C578 1.257 . S
C560 O549 1.249 . S
C560 O550 1.264 . S
C561 C564 1.382 . S
C561 C566 1.390 . S
C561 C568 1.506 . S
C562 C563 1.398 . S
C562 C566 1.392 . S
C563 C562 1.398 . S
C563 C565 1.372 . S
C563 H580 0.931 . S
C564 C561 1.382 . S
C564 C565 1.390 . S
C564 H581 0.931 . S
C565 C563 1.372 . S
C565 C564 1.390 . S
C565 H582 0.929 . S
C566 C561 1.390 . S
C566 C562 1.392 . S
C566 H583 0.930 . S
C567 O552 1.255 . S
C567 O553 1.257 . S
C568 Eu504 2.787 . S
C568 O548 1.252 . S
C568 O551 1.268 . S
C568 C561 1.506 . S
C569 C536 1.439 . S
C569 H546 0.931 . S
C569 C570 1.374 . S
C570 C541 1.387 . S
C570 H547 0.931 . S
C570 C569 1.374 . S
C571 O555 1.249 . S
C571 O556 1.264 . S
C572 C575 1.382 . S
C572 C576 1.390 . S
C572 C579 1.506 . S
C573 C574 1.398 . S
C573 C576 1.392 . S
C574 C573 1.398 . S
C574 C577 1.372 . S
C574 H584 0.931 . S
C575 C572 1.382 . S
C575 C577 1.390 . S
C575 H585 0.931 . S
C576 C572 1.390 . S
C576 C573 1.392 . S
C576 H586 0.930 . S
C577 C574 1.372 . S
C577 C575 1.390 . S
C577 H587 0.929 . S
C578 O558 1.255 . S
C578 O559 1.257 . S
C579 Eu515 2.787 . S
C579 O554 1.252 . S
C579 O557 1.268 . S
C579 C572 1.506 . S
H580 C563 0.931 . S
H581 C564 0.931 . S
H582 C565 0.929 . S
H583 C566 0.930 . S
H584 C574 0.931 . S
H585 C575 0.931 . S
H586 C576 0.930 . S
H587 C577 0.929 . S
Eu588 N617 2.600 . S
Eu588 N623 2.562 . S
Eu588 O632 2.462 . S
Eu588 O633 2.373 . S
Eu588 O635 2.432 . S
Eu588 O636 2.291 . S
Eu588 O640 2.335 . S
Eu588 O643 2.372 . S
Eu588 C652 2.787 . S
C589 N590 1.365 . S
C589 C592 1.405 . S
C589 C596 1.448 . S
N590 C589 1.365 . S
N590 C593 1.319 . S
N590 Eu599 2.600 . S
C591 C593 1.397 . S
C591 C594 1.367 . S
C591 H611 0.931 . S
C592 C589 1.405 . S
C592 C594 1.403 . S
C592 C598 1.439 . S
C593 N590 1.319 . S
C593 C591 1.397 . S
C593 H604 0.930 . S
C594 C591 1.367 . S
C594 C592 1.403 . S
C594 H615 0.929 . S
C595 C596 1.430 . S
C595 C597 1.387 . S
C595 C601 1.404 . S
C596 C589 1.448 . S
C596 C595 1.430 . S
C596 N600 1.351 . S
C597 C595 1.387 . S
C597 C598 1.374 . S
C597 H612 0.924 1_545 S
C598 C592 1.439 . S
C598 C597 1.374 . S
C598 H613 0.931 . S
Eu599 N590 2.600 . S
Eu599 N600 2.562 . S
Eu599 O634 2.335 . S
Eu599 O637 2.372 . S
Eu599 O638 2.462 . S
Eu599 O639 2.373 . S
Eu599 O641 2.432 . S
Eu599 O642 2.291 . S
Eu599 C663 2.787 . S
N600 C596 1.351 . S
N600 Eu599 2.562 . S
N600 C602 1.325 . S
C601 C595 1.404 . S
C601 C603 1.366 . S
C601 H609 0.930 . S
C602 N600 1.325 . S
C602 C603 1.416 . S
C602 H608 0.929 . S
C603 C601 1.366 . S
C603 C602 1.416 . S
C603 H605 0.930 . S
H604 C593 0.930 . S
H605 C603 0.930 . S
H606 C621 0.930 . S
H607 C628 0.930 . S
H608 C602 0.929 . S
H609 C601 0.930 . S
H610 C624 0.929 . S
H611 C591 0.931 . S
H612 C597 0.924 1_565 S
H613 C598 0.931 . S
H614 C619 0.931 . S
H615 C594 0.929 . S
H616 C627 0.930 . S
N617 Eu588 2.600 . S
N617 C618 1.365 . S
N617 C621 1.319 . S
C618 N617 1.365 . S
C618 C620 1.405 . S
C618 C626 1.448 . S
C619 H614 0.931 . S
C619 C621 1.397 . S
C619 C622 1.367 . S
C620 C618 1.405 . S
C620 C622 1.403 . S
C620 C653 1.439 . S
C621 H606 0.930 . S
C621 N617 1.319 . S
C621 C619 1.397 . S
C622 C619 1.367 . S
C622 C620 1.403 . S
C622 H629 0.929 . S
N623 Eu588 2.562 . S
N623 C624 1.325 . S
N623 C626 1.351 . S
C624 H610 0.929 . S
C624 N623 1.325 . S
C624 C628 1.416 . S
C625 C626 1.430 . S
C625 C627 1.404 . S
C625 C654 1.387 . S
C626 C618 1.448 . S
C626 N623 1.351 . S
C626 C625 1.430 . S
C627 H616 0.930 . S
C627 C625 1.404 . S
C627 C628 1.366 . S
C628 H607 0.930 . S
C628 C624 1.416 . S
C628 C627 1.366 . S
H629 C622 0.929 . S
H630 C653 0.931 . S
H631 C654 0.931 . S
O632 Eu588 2.462 . S
O632 C652 1.252 . S
O633 Eu588 2.373 . S
O633 C644 1.249 . S
O634 Eu599 2.335 . S
O634 C644 1.264 . S
O635 Eu588 2.432 . S
O635 C652 1.268 . S
O636 Eu588 2.291 . S
O636 C651 1.255 . S
O637 Eu599 2.372 . S
O637 C651 1.257 . S
O638 Eu599 2.462 . S
O638 C663 1.252 . S
O639 Eu599 2.373 . S
O639 C655 1.249 . S
O640 Eu588 2.335 . S
O640 C655 1.264 . S
O641 Eu599 2.432 . S
O641 C663 1.268 . S
O642 Eu599 2.291 . S
O642 C662 1.255 . S
O643 Eu588 2.372 . S
O643 C662 1.257 . S
C644 O633 1.249 . S
C644 O634 1.264 . S
C645 C648 1.382 . S
C645 C650 1.390 . S
C645 C652 1.506 . S
C646 C647 1.398 . S
C646 C650 1.392 . S
C647 C646 1.398 . S
C647 C649 1.372 . S
C647 H664 0.931 . S
C648 C645 1.382 . S
C648 C649 1.390 . S
C648 H665 0.931 . S
C649 C647 1.372 . S
C649 C648 1.390 . S
C649 H666 0.929 . S
C650 C645 1.390 . S
C650 C646 1.392 . S
C650 H667 0.930 . S
C651 O636 1.255 . S
C651 O637 1.257 . S
C652 Eu588 2.787 . S
C652 O632 1.252 . S
C652 O635 1.268 . S
C652 C645 1.506 . S
C653 C620 1.439 . S
C653 H630 0.931 . S
C653 C654 1.374 . S
C654 C625 1.387 . S
C654 H631 0.931 . S
C654 C653 1.374 . S
C655 O639 1.249 . S
C655 O640 1.264 . S
C656 C659 1.382 . S
C656 C660 1.390 . S
C656 C663 1.506 . S
C657 C658 1.398 . S
C657 C660 1.392 . S
C658 C657 1.398 . S
C658 C661 1.372 . S
C658 H668 0.931 . S
C659 C656 1.382 . S
C659 C661 1.390 . S
C659 H669 0.931 . S
C660 C656 1.390 . S
C660 C657 1.392 . S
C660 H670 0.930 . S
C661 C658 1.372 . S
C661 C659 1.390 . S
C661 H671 0.929 . S
C662 O642 1.255 . S
C662 O643 1.257 . S
C663 Eu599 2.787 . S
C663 O638 1.252 . S
C663 O641 1.268 . S
C663 C656 1.506 . S
H664 C647 0.931 . S
H665 C648 0.931 . S
H666 C649 0.929 . S
H667 C650 0.930 . S
H668 C658 0.931 . S
H669 C659 0.931 . S
H670 C660 0.930 . S
H671 C661 0.929 . S
Eu672 N701 2.600 . S
Eu672 N707 2.562 . S
Eu672 O716 2.462 . S
Eu672 O717 2.373 . S
Eu672 O719 2.432 . S
Eu672 O720 2.291 . S
Eu672 O724 2.335 . S
Eu672 O727 2.372 . S
Eu672 C736 2.787 . S
C673 N674 1.365 . S
C673 C676 1.405 . S
C673 C680 1.448 . S
N674 C673 1.365 . S
N674 C677 1.319 . S
N674 Eu683 2.600 . S
C675 C677 1.397 . S
C675 C678 1.367 . S
C675 H695 0.931 . S
C676 C673 1.405 . S
C676 C678 1.403 . S
C676 C682 1.439 1_556 S
C677 N674 1.319 . S
C677 C675 1.397 . S
C677 H688 0.930 . S
C678 C675 1.367 . S
C678 C676 1.403 . S
C678 H699 0.929 . S
C679 C680 1.430 1_554 S
C679 C681 1.387 . S
C679 C685 1.404 . S
C680 C673 1.448 . S
C680 C679 1.430 1_556 S
C680 N684 1.351 . S
C681 C679 1.387 . S
C681 C682 1.374 . S
C681 H696 0.931 . S
C682 C676 1.439 1_554 S
C682 C681 1.374 . S
C682 H697 0.931 . S
Eu683 N674 2.600 . S
Eu683 N684 2.562 . S
Eu683 O718 2.335 . S
Eu683 O721 2.372 . S
Eu683 O722 2.462 1_556 S
Eu683 O723 2.373 . S
Eu683 O725 2.432 1_556 S
Eu683 O726 2.291 . S
Eu683 C747 2.787 1_556 S
N684 C680 1.351 . S
N684 Eu683 2.562 . S
N684 C686 1.325 . S
C685 C679 1.404 . S
C685 C687 1.366 . S
C685 H693 0.930 . S
C686 N684 1.325 . S
C686 C687 1.416 1_556 S
C686 H692 0.929 . S
C687 C685 1.366 . S
C687 C686 1.416 1_554 S
C687 H689 0.930 . S
H688 C677 0.930 . S
H689 C687 0.930 . S
H690 C705 0.930 . S
H691 C712 0.930 . S
H692 C686 0.929 . S
H693 C685 0.930 . S
H694 C708 0.929 . S
H695 C675 0.931 . S
H696 C681 0.931 . S
H697 C682 0.931 . S
H698 C703 0.931 . S
H699 C678 0.929 . S
H700 C711 0.930 . S
N701 Eu672 2.600 . S
N701 C702 1.365 . S
N701 C705 1.319 . S
C702 N701 1.365 . S
C702 C704 1.405 . S
C702 C710 1.448 . S
C703 H698 0.931 . S
C703 C705 1.397 . S
C703 C706 1.367 . S
C704 C702 1.405 . S
C704 C706 1.403 . S
C704 C737 1.439 . S
C705 H690 0.930 . S
C705 N701 1.319 . S
C705 C703 1.397 . S
C706 C703 1.367 . S
C706 C704 1.403 . S
C706 H713 0.929 . S
N707 Eu672 2.562 . S
N707 C708 1.325 . S
N707 C710 1.351 . S
C708 H694 0.929 . S
C708 N707 1.325 . S
C708 C712 1.416 . S
C709 C710 1.430 . S
C709 C711 1.404 . S
C709 C738 1.387 . S
C710 C702 1.448 . S
C710 N707 1.351 . S
C710 C709 1.430 . S
C711 H700 0.930 . S
C711 C709 1.404 . S
C711 C712 1.366 . S
C712 H691 0.930 . S
C712 C708 1.416 . S
C712 C711 1.366 . S
H713 C706 0.929 . S
H714 C737 0.931 . S
H715 C738 0.931 . S
O716 Eu672 2.462 . S
O716 C736 1.252 . S
O717 Eu672 2.373 . S
O717 C728 1.249 . S
O718 Eu683 2.335 . S
O718 C728 1.264 . S
O719 Eu672 2.432 . S
O719 C736 1.268 . S
O720 Eu672 2.291 . S
O720 C735 1.255 . S
O721 Eu683 2.372 . S
O721 C735 1.257 . S
O722 Eu683 2.462 1_554 S
O722 C747 1.252 . S
O723 Eu683 2.373 . S
O723 C739 1.249 . S
O724 Eu672 2.335 . S
O724 C739 1.264 . S
O725 Eu683 2.432 1_554 S
O725 C747 1.268 . S
O726 Eu683 2.291 . S
O726 C746 1.255 . S
O727 Eu672 2.372 . S
O727 C746 1.257 . S
C728 O717 1.249 . S
C728 O718 1.264 . S
C729 C732 1.382 . S
C729 C734 1.390 . S
C729 C736 1.506 . S
C730 C731 1.398 . S
C730 C734 1.392 . S
C731 C730 1.398 . S
C731 C733 1.372 . S
C731 H748 0.931 . S
C732 C729 1.382 . S
C732 C733 1.390 . S
C732 H749 0.931 . S
C733 C731 1.372 . S
C733 C732 1.390 . S
C733 H750 0.929 . S
C734 C729 1.390 . S
C734 C730 1.392 . S
C734 H751 0.930 . S
C735 O720 1.255 . S
C735 O721 1.257 . S
C736 Eu672 2.787 . S
C736 O716 1.252 . S
C736 O719 1.268 . S
C736 C729 1.506 . S
C737 C704 1.439 . S
C737 H714 0.931 . S
C737 C738 1.374 . S
C738 C709 1.387 . S
C738 H715 0.931 . S
C738 C737 1.374 . S
C739 O723 1.249 . S
C739 O724 1.264 . S
C740 C743 1.382 . S
C740 C744 1.390 . S
C740 C747 1.506 . S
C741 C742 1.398 . S
C741 C744 1.392 . S
C742 C741 1.398 . S
C742 C745 1.372 . S
C742 H752 0.931 . S
C743 C740 1.382 . S
C743 C745 1.390 . S
C743 H753 0.931 . S
C744 C740 1.390 . S
C744 C741 1.392 . S
C744 H754 0.930 . S
C745 C742 1.372 . S
C745 C743 1.390 . S
C745 H755 0.929 . S
C746 O726 1.255 . S
C746 O727 1.257 . S
C747 Eu683 2.787 1_554 S
C747 O722 1.252 . S
C747 O725 1.268 . S
C747 C740 1.506 . S
H748 C731 0.931 . S
H749 C732 0.931 . S
H750 C733 0.929 . S
H751 C734 0.930 . S
H752 C742 0.931 . S
H753 C743 0.931 . S
H754 C744 0.930 . S
H755 C745 0.929 . S
Eu756 N785 2.600 . S
Eu756 N791 2.562 . S
Eu756 O800 2.462 . S
Eu756 O801 2.373 . S
Eu756 O803 2.432 . S
Eu756 O804 2.291 . S
Eu756 O808 2.335 . S
Eu756 O811 2.372 . S
Eu756 C820 2.787 . S
C757 N758 1.365 . S
C757 C760 1.405 . S
C757 C764 1.448 . S
N758 C757 1.365 . S
N758 C761 1.319 . S
N758 Eu767 2.600 . S
C759 C761 1.397 . S
C759 C762 1.367 . S
C759 H779 0.931 . S
C760 C757 1.405 . S
C760 C762 1.403 . S
C760 C766 1.439 . S
C761 N758 1.319 . S
C761 C759 1.397 . S
C761 H772 0.930 . S
C762 C759 1.367 . S
C762 C760 1.403 . S
C762 H783 0.929 . S
C763 C764 1.430 . S
C763 C765 1.387 . S
C763 C769 1.404 . S
C764 C757 1.448 . S
C764 C763 1.430 . S
C764 N768 1.351 . S
C765 C763 1.387 . S
C765 C766 1.374 . S
C765 H780 0.931 . S
C766 C760 1.439 . S
C766 C765 1.374 . S
C766 H781 0.931 . S
Eu767 N758 2.600 . S
Eu767 N768 2.562 . S
Eu767 O802 2.335 . S
Eu767 O805 2.372 . S
Eu767 O806 2.462 . S
Eu767 O807 2.373 . S
Eu767 O809 2.432 . S
Eu767 O810 2.291 . S
Eu767 C831 2.787 . S
N768 C764 1.351 . S
N768 Eu767 2.562 . S
N768 C770 1.325 . S
C769 C763 1.404 . S
C769 C771 1.366 . S
C769 H777 0.930 . S
C770 N768 1.325 . S
C770 C771 1.416 . S
C770 H776 0.929 . S
C771 C769 1.366 . S
C771 C770 1.416 . S
C771 H773 0.930 . S
H772 C761 0.930 . S
H773 C771 0.930 . S
H774 C789 0.930 . S
H775 C796 0.930 . S
H776 C770 0.929 . S
H777 C769 0.930 . S
H778 C792 0.929 . S
H779 C759 0.931 . S
H780 C765 0.931 . S
H781 C766 0.931 . S
H782 C787 0.931 . S
H783 C762 0.929 . S
H784 C795 0.930 . S
N785 Eu756 2.600 . S
N785 C786 1.365 . S
N785 C789 1.319 . S
C786 N785 1.365 . S
C786 C788 1.405 . S
C786 C794 1.448 . S
C787 H782 0.931 . S
C787 C789 1.397 . S
C787 C790 1.367 . S
C788 C786 1.405 . S
C788 C790 1.403 . S
C788 C821 1.439 . S
C789 H774 0.930 . S
C789 N785 1.319 . S
C789 C787 1.397 . S
C790 C787 1.367 . S
C790 C788 1.403 . S
C790 H797 0.929 . S
N791 Eu756 2.562 . S
N791 C792 1.325 . S
N791 C794 1.351 . S
C792 H778 0.929 . S
C792 N791 1.325 . S
C792 C796 1.416 . S
C793 C794 1.430 . S
C793 C795 1.404 . S
C793 C822 1.387 . S
C794 C786 1.448 . S
C794 N791 1.351 . S
C794 C793 1.430 . S
C795 H784 0.930 . S
C795 C793 1.404 . S
C795 C796 1.366 . S
C796 H775 0.930 . S
C796 C792 1.416 . S
C796 C795 1.366 . S
H797 C790 0.929 . S
H798 C821 0.931 . S
H799 C822 0.931 . S
O800 Eu756 2.462 . S
O800 C820 1.252 . S
O801 Eu756 2.373 . S
O801 C812 1.249 . S
O802 Eu767 2.335 . S
O802 C812 1.264 . S
O803 Eu756 2.432 . S
O803 C820 1.268 . S
O804 Eu756 2.291 . S
O804 C819 1.255 . S
O805 Eu767 2.372 . S
O805 C819 1.257 . S
O806 Eu767 2.462 . S
O806 C831 1.252 . S
O807 Eu767 2.373 . S
O807 C823 1.249 . S
O808 Eu756 2.335 . S
O808 C823 1.264 . S
O809 Eu767 2.432 . S
O809 C831 1.268 . S
O810 Eu767 2.291 . S
O810 C830 1.255 . S
O811 Eu756 2.372 . S
O811 C830 1.257 . S
C812 O801 1.249 . S
C812 O802 1.264 . S
C813 C816 1.382 . S
C813 C818 1.390 . S
C813 C820 1.506 . S
C814 C815 1.398 . S
C814 C818 1.392 . S
C815 C814 1.398 . S
C815 C817 1.372 . S
C815 H832 0.931 . S
C816 C813 1.382 . S
C816 C817 1.390 . S
C816 H833 0.931 . S
C817 C815 1.372 . S
C817 C816 1.390 . S
C817 H834 0.929 . S
C818 C813 1.390 . S
C818 C814 1.392 . S
C818 H835 0.930 . S
C819 O804 1.255 . S
C819 O805 1.257 . S
C820 Eu756 2.787 . S
C820 O800 1.252 . S
C820 O803 1.268 . S
C820 C813 1.506 . S
C821 C788 1.439 . S
C821 H798 0.931 . S
C821 C822 1.374 . S
C822 C793 1.387 . S
C822 H799 0.931 . S
C822 C821 1.374 . S
C823 O807 1.249 . S
C823 O808 1.264 . S
C824 C827 1.382 . S
C824 C828 1.390 . S
C824 C831 1.506 . S
C825 C826 1.398 . S
C825 C828 1.392 . S
C826 C825 1.398 . S
C826 C829 1.372 . S
C826 H836 0.931 . S
C827 C824 1.382 . S
C827 C829 1.390 . S
C827 H837 0.931 . S
C828 C824 1.390 . S
C828 C825 1.392 . S
C828 H838 0.930 . S
C829 C826 1.372 . S
C829 C827 1.390 . S
C829 H839 0.929 . S
C830 O810 1.255 . S
C830 O811 1.257 . S
C831 Eu767 2.787 . S
C831 O806 1.252 . S
C831 O809 1.268 . S
C831 C824 1.506 . S
H832 C815 0.931 . S
H833 C816 0.931 . S
H834 C817 0.929 . S
H835 C818 0.930 . S
H836 C826 0.931 . S
H837 C827 0.931 . S
H838 C828 0.930 . S
H839 C829 0.929 . S
Eu840 N869 2.600 . S
Eu840 N875 2.562 . S
Eu840 O884 2.462 . S
Eu840 O885 2.373 . S
Eu840 O887 2.432 . S
Eu840 O888 2.291 . S
Eu840 O892 2.335 . S
Eu840 O895 2.372 . S
Eu840 C904 2.787 . S
C841 N842 1.365 . S
C841 C844 1.405 . S
C841 C848 1.448 . S
N842 C841 1.365 . S
N842 C845 1.319 . S
N842 Eu851 2.600 . S
C843 C845 1.397 . S
C843 C846 1.367 . S
C843 H863 0.931 . S
C844 C841 1.405 . S
C844 C846 1.403 . S
C844 C850 1.439 . S
C845 N842 1.319 . S
C845 C843 1.397 . S
C845 H856 0.930 . S
C846 C843 1.367 . S
C846 C844 1.403 . S
C846 H867 0.929 . S
C847 C848 1.430 . S
C847 C849 1.387 . S
C847 C853 1.404 . S
C848 C841 1.448 . S
C848 C847 1.430 . S
C848 N852 1.351 . S
C849 C847 1.387 . S
C849 C850 1.374 . S
C849 H864 0.931 . S
C850 C844 1.439 . S
C850 C849 1.374 . S
C850 H865 0.931 . S
Eu851 N842 2.600 . S
Eu851 N852 2.562 . S
Eu851 O886 2.335 . S
Eu851 O889 2.372 . S
Eu851 O890 2.462 . S
Eu851 O891 2.373 . S
Eu851 O893 2.432 . S
Eu851 O894 2.291 . S
Eu851 C915 2.787 . S
N852 C848 1.351 . S
N852 Eu851 2.562 . S
N852 C854 1.325 . S
C853 C847 1.404 . S
C853 C855 1.366 . S
C853 H861 0.930 . S
C854 N852 1.325 . S
C854 C855 1.416 . S
C854 H860 0.929 . S
C855 C853 1.366 . S
C855 C854 1.416 . S
C855 H857 0.930 . S
H856 C845 0.930 . S
H857 C855 0.930 . S
H858 C873 0.930 . S
H859 C880 0.930 . S
H860 C854 0.929 . S
H861 C853 0.930 . S
H862 C876 0.929 . S
H863 C843 0.931 . S
H864 C849 0.931 . S
H865 C850 0.931 . S
H866 C871 0.931 . S
H867 C846 0.929 . S
H868 C879 0.930 . S
N869 Eu840 2.600 . S
N869 C870 1.365 . S
N869 C873 1.319 . S
C870 N869 1.365 . S
C870 C872 1.405 . S
C870 C878 1.448 . S
C871 H866 0.931 . S
C871 C873 1.397 . S
C871 C874 1.367 . S
C872 C870 1.405 . S
C872 C874 1.403 . S
C872 C905 1.439 . S
C873 H858 0.930 . S
C873 N869 1.319 . S
C873 C871 1.397 . S
C874 C871 1.367 . S
C874 C872 1.403 . S
C874 H881 0.929 . S
N875 Eu840 2.562 . S
N875 C876 1.325 . S
N875 C878 1.351 . S
C876 H862 0.929 . S
C876 N875 1.325 . S
C876 C880 1.416 . S
C877 C878 1.430 . S
C877 C879 1.404 . S
C877 C906 1.387 . S
C878 C870 1.448 . S
C878 N875 1.351 . S
C878 C877 1.430 . S
C879 H868 0.930 . S
C879 C877 1.404 . S
C879 C880 1.366 . S
C880 H859 0.930 . S
C880 C876 1.416 . S
C880 C879 1.366 . S
H881 C874 0.929 . S
H882 C905 0.931 . S
H883 C906 0.931 . S
O884 Eu840 2.462 . S
O884 C904 1.252 . S
O885 Eu840 2.373 . S
O885 C896 1.249 . S
O886 Eu851 2.335 . S
O886 C896 1.264 . S
O887 Eu840 2.432 . S
O887 C904 1.268 . S
O888 Eu840 2.291 . S
O888 C903 1.255 . S
O889 Eu851 2.372 . S
O889 C903 1.257 . S
O890 Eu851 2.462 . S
O890 C915 1.252 . S
O891 Eu851 2.373 . S
O891 C907 1.249 . S
O892 Eu840 2.335 . S
O892 C907 1.264 . S
O893 Eu851 2.432 . S
O893 C915 1.268 . S
O894 Eu851 2.291 . S
O894 C914 1.255 . S
O895 Eu840 2.372 . S
O895 C914 1.257 . S
C896 O885 1.249 . S
C896 O886 1.264 . S
C897 C900 1.382 . S
C897 C902 1.390 . S
C897 C904 1.506 . S
C898 C899 1.398 . S
C898 C902 1.392 . S
C899 C898 1.398 . S
C899 C901 1.372 . S
C899 H916 0.931 . S
C900 C897 1.382 . S
C900 C901 1.390 . S
C900 H917 0.931 . S
C901 C899 1.372 . S
C901 C900 1.390 . S
C901 H918 0.929 . S
C902 C897 1.390 . S
C902 C898 1.392 . S
C902 H919 0.930 . S
C903 O888 1.255 . S
C903 O889 1.257 . S
C904 Eu840 2.787 . S
C904 O884 1.252 . S
C904 O887 1.268 . S
C904 C897 1.506 . S
C905 C872 1.439 . S
C905 H882 0.931 . S
C905 C906 1.374 . S
C906 C877 1.387 . S
C906 H883 0.931 . S
C906 C905 1.374 . S
C907 O891 1.249 . S
C907 O892 1.264 . S
C908 C911 1.382 . S
C908 C912 1.390 . S
C908 C915 1.506 . S
C909 C910 1.398 . S
C909 C912 1.392 . S
C910 C909 1.398 . S
C910 C913 1.372 . S
C910 H920 0.931 . S
C911 C908 1.382 . S
C911 C913 1.390 . S
C911 H921 0.931 . S
C912 C908 1.390 . S
C912 C909 1.392 . S
C912 H922 0.930 . S
C913 C910 1.372 . S
C913 C911 1.390 . S
C913 H923 0.929 . S
C914 O894 1.255 . S
C914 O895 1.257 . S
C915 Eu851 2.787 . S
C915 O890 1.252 . S
C915 O893 1.268 . S
C915 C908 1.506 . S
H916 C899 0.931 . S
H917 C900 0.931 . S
H918 C901 0.929 . S
H919 C902 0.930 . S
H920 C910 0.931 . S
H921 C911 0.931 . S
H922 C912 0.930 . S
H923 C913 0.929 . S
Eu924 N953 2.600 . S
Eu924 N959 2.562 . S
Eu924 O968 2.462 . S
Eu924 O969 2.373 . S
Eu924 O971 2.432 . S
Eu924 O972 2.291 . S
Eu924 O976 2.335 . S
Eu924 O979 2.372 . S
Eu924 C988 2.787 . S
C925 N926 1.365 . S
C925 C928 1.405 . S
C925 C932 1.448 . S
N926 C925 1.365 . S
N926 C929 1.319 . S
N926 Eu935 2.600 . S
C927 C929 1.397 . S
C927 C930 1.367 . S
C927 H947 0.931 . S
C928 C925 1.405 . S
C928 C930 1.403 . S
C928 C934 1.439 1_554 S
C929 N926 1.319 . S
C929 C927 1.397 . S
C929 H940 0.930 . S
C930 C927 1.367 . S
C930 C928 1.403 . S
C930 H951 0.929 . S
C931 C932 1.430 1_556 S
C931 C933 1.387 . S
C931 C937 1.404 . S
C932 C925 1.448 . S
C932 C931 1.430 1_554 S
C932 N936 1.351 . S
C933 C931 1.387 . S
C933 C934 1.374 . S
C933 H948 0.931 . S
C934 C928 1.439 1_556 S
C934 C933 1.374 . S
C934 H949 0.931 . S
Eu935 N926 2.600 . S
Eu935 N936 2.562 . S
Eu935 O970 2.335 . S
Eu935 O973 2.372 . S
Eu935 O974 2.462 1_554 S
Eu935 O975 2.373 . S
Eu935 O977 2.432 1_554 S
Eu935 O978 2.291 . S
Eu935 C999 2.787 1_554 S
N936 C932 1.351 . S
N936 Eu935 2.562 . S
N936 C938 1.325 . S
C937 C931 1.404 . S
C937 C939 1.366 . S
C937 H945 0.930 . S
C938 N936 1.325 . S
C938 C939 1.416 1_554 S
C938 H944 0.929 . S
C939 C937 1.366 . S
C939 C938 1.416 1_556 S
C939 H941 0.930 . S
H940 C929 0.930 . S
H941 C939 0.930 . S
H942 C957 0.930 . S
H943 C964 0.930 . S
H944 C938 0.929 . S
H945 C937 0.930 . S
H946 C960 0.929 . S
H947 C927 0.931 . S
H948 C933 0.931 . S
H949 C934 0.931 . S
H950 C955 0.931 . S
H951 C930 0.929 . S
H952 C963 0.930 . S
N953 Eu924 2.600 . S
N953 C954 1.365 . S
N953 C957 1.319 . S
C954 N953 1.365 . S
C954 C956 1.405 . S
C954 C962 1.448 . S
C955 H950 0.931 . S
C955 C957 1.397 . S
C955 C958 1.367 . S
C956 C954 1.405 . S
C956 C958 1.403 . S
C956 C989 1.439 . S
C957 H942 0.930 . S
C957 N953 1.319 . S
C957 C955 1.397 . S
C958 C955 1.367 . S
C958 C956 1.403 . S
C958 H965 0.929 . S
N959 Eu924 2.562 . S
N959 C960 1.325 . S
N959 C962 1.351 . S
C960 H946 0.929 . S
C960 N959 1.325 . S
C960 C964 1.416 . S
C961 C962 1.430 . S
C961 C963 1.404 . S
C961 C990 1.387 . S
C962 C954 1.448 . S
C962 N959 1.351 . S
C962 C961 1.430 . S
C963 H952 0.930 . S
C963 C961 1.404 . S
C963 C964 1.366 . S
C964 H943 0.930 . S
C964 C960 1.416 . S
C964 C963 1.366 . S
H965 C958 0.929 . S
H966 C989 0.931 . S
H967 C990 0.970 . S
O968 Eu924 2.462 . S
O968 C988 1.252 . S
O969 Eu924 2.373 . S
O969 C980 1.249 . S
O970 Eu935 2.335 . S
O970 C980 1.264 . S
O971 Eu924 2.432 . S
O971 C988 1.268 . S
O972 Eu924 2.291 . S
O972 C987 1.255 . S
O973 Eu935 2.372 . S
O973 C987 1.257 . S
O974 Eu935 2.462 1_556 S
O974 C999 1.252 . S
O975 Eu935 2.373 . S
O975 C991 1.249 . S
O976 Eu924 2.335 . S
O976 C991 1.264 . S
O977 Eu935 2.432 1_556 S
O977 C999 1.268 . S
O978 Eu935 2.291 . S
O978 C998 1.255 . S
O979 Eu924 2.372 . S
O979 C998 1.257 . S
C980 O969 1.249 . S
C980 O970 1.264 . S
C981 C984 1.382 . S
C981 C986 1.390 . S
C981 C988 1.506 . S
C982 C983 1.398 . S
C982 C986 1.392 . S
C983 C982 1.398 . S
C983 C985 1.372 . S
C983 H1000 0.931 . S
C984 C981 1.382 . S
C984 C985 1.390 . S
C984 H1001 0.931 . S
C985 C983 1.372 . S
C985 C984 1.390 . S
C985 H1002 0.929 . S
C986 C981 1.390 . S
C986 C982 1.392 . S
C986 H1003 0.930 . S
C987 O972 1.255 . S
C987 O973 1.257 . S
C988 Eu924 2.787 . S
C988 O968 1.252 . S
C988 O971 1.268 . S
C988 C981 1.506 . S
C989 C956 1.439 . S
C989 H966 0.931 . S
C989 C990 1.374 . S
C990 C961 1.387 . S
C990 H967 0.970 . S
C990 C989 1.374 . S
C991 O975 1.249 . S
C991 O976 1.264 . S
C992 C995 1.382 . S
C992 C996 1.390 . S
C992 C999 1.506 . S
C993 C994 1.398 . S
C993 C996 1.392 . S
C994 C993 1.398 . S
C994 C997 1.372 . S
C994 H1004 0.931 . S
C995 C992 1.382 . S
C995 C997 1.390 . S
C995 H1005 0.931 . S
C996 C992 1.390 . S
C996 C993 1.392 . S
C996 H1006 0.930 . S
C997 C994 1.372 . S
C997 C995 1.390 . S
C997 H1007 0.929 . S
C998 O978 1.255 . S
C998 O979 1.257 . S
C999 Eu935 2.787 1_556 S
C999 O974 1.252 . S
C999 O977 1.268 . S
C999 C992 1.506 . S
H1000 C983 0.931 . S
H1001 C984 0.931 . S
H1002 C985 0.929 . S
H1003 C986 0.930 . S
H1004 C994 0.931 . S
H1005 C995 0.931 . S
H1006 C996 0.930 . S
H1007 C997 0.929 . S
Eu1008 N1037 2.600 . S
Eu1008 N1043 2.562 . S
Eu1008 O1052 2.462 1_554 S
Eu1008 O1053 2.373 . S
Eu1008 O1055 2.432 1_554 S
Eu1008 O1056 2.291 . S
Eu1008 O1060 2.335 . S
Eu1008 O1063 2.372 . S
Eu1008 C1072 2.787 1_554 S
C1009 N1010 1.365 . S
C1009 C1012 1.405 . S
C1009 C1016 1.448 . S
N1010 C1009 1.365 . S
N1010 C1013 1.319 . S
N1010 Eu1019 2.600 . S
C1011 C1013 1.397 . S
C1011 C1014 1.367 . S
C1011 H1031 0.931 . S
C1012 C1009 1.405 . S
C1012 C1014 1.403 . S
C1012 C1018 1.439 . S
C1013 N1010 1.319 . S
C1013 C1011 1.397 . S
C1013 H1024 0.930 . S
C1014 C1011 1.367 . S
C1014 C1012 1.403 . S
C1014 H1035 0.929 . S
C1015 C1016 1.430 . S
C1015 C1017 1.387 . S
C1015 C1021 1.404 . S
C1016 C1009 1.448 . S
C1016 C1015 1.430 . S
C1016 N1020 1.351 . S
C1017 C1015 1.387 . S
C1017 C1018 1.374 . S
C1017 H1032 0.931 . S
C1018 C1012 1.439 . S
C1018 C1017 1.374 . S
C1018 H1033 0.931 . S
Eu1019 N1010 2.600 . S
Eu1019 N1020 2.562 . S
Eu1019 O1054 2.335 . S
Eu1019 O1057 2.372 . S
Eu1019 O1058 2.462 . S
Eu1019 O1059 2.373 . S
Eu1019 O1061 2.432 . S
Eu1019 O1062 2.291 . S
Eu1019 C1083 2.787 . S
N1020 C1016 1.351 . S
N1020 Eu1019 2.562 . S
N1020 C1022 1.325 . S
C1021 C1015 1.404 . S
C1021 C1023 1.366 . S
C1021 H1029 0.930 . S
C1022 N1020 1.325 . S
C1022 C1023 1.416 . S
C1022 H1028 0.929 . S
C1023 C1021 1.366 . S
C1023 C1022 1.416 . S
C1023 H1025 0.930 . S
H1024 C1013 0.930 . S
H1025 C1023 0.930 . S
H1026 C1041 0.930 . S
H1027 C1048 0.930 . S
H1028 C1022 0.929 . S
H1029 C1021 0.930 . S
H1030 C1044 0.929 . S
H1031 C1011 0.931 . S
H1032 C1017 0.931 . S
H1033 C1018 0.931 . S
H1034 C1039 0.931 . S
H1035 C1014 0.929 . S
H1036 C1047 0.930 . S
N1037 Eu1008 2.600 . S
N1037 C1038 1.365 . S
N1037 C1041 1.319 . S
C1038 N1037 1.365 . S
C1038 C1040 1.405 . S
C1038 C1046 1.448 . S
C1039 H1034 0.931 . S
C1039 C1041 1.397 . S
C1039 C1042 1.367 . S
C1040 C1038 1.405 . S
C1040 C1042 1.403 . S
C1040 C1073 1.439 1_554 S
C1041 H1026 0.930 . S
C1041 N1037 1.319 . S
C1041 C1039 1.397 . S
C1042 C1039 1.367 . S
C1042 C1040 1.403 . S
C1042 H1049 0.929 . S
N1043 Eu1008 2.562 . S
N1043 C1044 1.325 . S
N1043 C1046 1.351 . S
C1044 H1030 0.929 . S
C1044 N1043 1.325 . S
C1044 C1048 1.416 1_554 S
C1045 C1046 1.430 1_556 S
C1045 C1047 1.404 . S
C1045 C1074 1.387 . S
C1046 C1038 1.448 . S
C1046 N1043 1.351 . S
C1046 C1045 1.430 1_554 S
C1047 H1036 0.930 . S
C1047 C1045 1.404 . S
C1047 C1048 1.366 . S
C1048 H1027 0.930 . S
C1048 C1044 1.416 1_556 S
C1048 C1047 1.366 . S
H1049 C1042 0.929 . S
H1050 C1073 0.931 . S
H1051 C1074 0.931 . S
O1052 Eu1008 2.462 1_556 S
O1052 C1072 1.252 . S
O1053 Eu1008 2.373 . S
O1053 C1064 1.249 . S
O1054 Eu1019 2.335 . S
O1054 C1064 1.264 . S
O1055 Eu1008 2.432 1_556 S
O1055 C1072 1.268 . S
O1056 Eu1008 2.291 . S
O1056 C1071 1.255 . S
O1057 Eu1019 2.372 . S
O1057 C1071 1.257 . S
O1058 Eu1019 2.462 . S
O1058 C1083 1.252 . S
O1059 Eu1019 2.373 . S
O1059 C1075 1.249 . S
O1060 Eu1008 2.335 . S
O1060 C1075 1.264 . S
O1061 Eu1019 2.432 . S
O1061 C1083 1.268 . S
O1062 Eu1019 2.291 . S
O1062 C1082 1.255 . S
O1063 Eu1008 2.372 . S
O1063 C1082 1.257 . S
C1064 O1053 1.249 . S
C1064 O1054 1.264 . S
C1065 C1068 1.382 . S
C1065 C1070 1.390 . S
C1065 C1072 1.506 . S
C1066 C1067 1.398 . S
C1066 C1070 1.392 . S
C1067 C1066 1.398 . S
C1067 C1069 1.372 . S
C1067 H1084 0.931 . S
C1068 C1065 1.382 . S
C1068 C1069 1.390 . S
C1068 H1085 0.931 . S
C1069 C1067 1.372 . S
C1069 C1068 1.390 . S
C1069 H1086 0.929 . S
C1070 C1065 1.390 . S
C1070 C1066 1.392 . S
C1070 H1087 0.930 . S
C1071 O1056 1.255 . S
C1071 O1057 1.257 . S
C1072 Eu1008 2.787 1_556 S
C1072 O1052 1.252 . S
C1072 O1055 1.268 . S
C1072 C1065 1.506 . S
C1073 C1040 1.439 1_556 S
C1073 H1050 0.931 . S
C1073 C1074 1.374 . S
C1074 C1045 1.387 . S
C1074 H1051 0.931 . S
C1074 C1073 1.374 . S
C1075 O1059 1.249 . S
C1075 O1060 1.264 . S
C1076 C1079 1.382 . S
C1076 C1080 1.390 . S
C1076 C1083 1.506 . S
C1077 C1078 1.398 . S
C1077 C1080 1.392 . S
C1078 C1077 1.398 . S
C1078 C1081 1.372 . S
C1078 H1088 0.931 . S
C1079 C1076 1.382 . S
C1079 C1081 1.390 . S
C1079 H1089 0.931 . S
C1080 C1076 1.390 . S
C1080 C1077 1.392 . S
C1080 H1090 0.930 . S
C1081 C1078 1.372 . S
C1081 C1079 1.390 . S
C1081 H1091 0.929 . S
C1082 O1062 1.255 . S
C1082 O1063 1.257 . S
C1083 Eu1019 2.787 . S
C1083 O1058 1.252 . S
C1083 O1061 1.268 . S
C1083 C1076 1.506 . S
H1084 C1067 0.931 . S
H1085 C1068 0.931 . S
H1086 C1069 0.929 . S
H1087 C1070 0.930 . S
H1088 C1078 0.931 . S
H1089 C1079 0.931 . S
H1090 C1080 0.930 . S
H1091 C1081 0.929 . S
Eu1092 N1121 2.600 . S
Eu1092 N1127 2.562 . S
Eu1092 O1136 2.462 . S
Eu1092 O1137 2.373 . S
Eu1092 O1139 2.432 . S
Eu1092 O1140 2.291 . S
Eu1092 O1144 2.335 . S
Eu1092 O1147 2.372 . S
Eu1092 C1156 2.787 . S
C1093 N1094 1.365 . S
C1093 C1096 1.405 . S
C1093 C1100 1.448 . S
N1094 C1093 1.365 . S
N1094 C1097 1.319 . S
N1094 Eu1103 2.600 . S
C1095 C1097 1.397 . S
C1095 C1098 1.367 . S
C1095 H1115 0.931 . S
C1096 C1093 1.405 . S
C1096 C1098 1.403 . S
C1096 C1102 1.439 1_556 S
C1097 N1094 1.319 . S
C1097 C1095 1.397 . S
C1097 H1108 0.930 . S
C1098 C1095 1.367 . S
C1098 C1096 1.403 . S
C1098 H1119 0.929 . S
C1099 C1100 1.430 1_554 S
C1099 C1101 1.387 . S
C1099 C1105 1.404 . S
C1100 C1093 1.448 . S
C1100 C1099 1.430 1_556 S
C1100 N1104 1.351 . S
C1101 C1099 1.387 . S
C1101 C1102 1.374 . S
C1101 H1116 0.931 . S
C1102 C1096 1.439 1_554 S
C1102 C1101 1.374 . S
C1102 H1117 0.931 . S
Eu1103 N1094 2.600 . S
Eu1103 N1104 2.562 . S
Eu1103 O1138 2.335 . S
Eu1103 O1141 2.372 . S
Eu1103 O1142 2.462 1_556 S
Eu1103 O1143 2.373 . S
Eu1103 O1145 2.432 1_556 S
Eu1103 O1146 2.291 . S
Eu1103 C1167 2.787 1_556 S
N1104 C1100 1.351 . S
N1104 Eu1103 2.562 . S
N1104 C1106 1.325 . S
C1105 C1099 1.404 . S
C1105 C1107 1.366 . S
C1105 H1113 0.930 . S
C1106 N1104 1.325 . S
C1106 C1107 1.416 1_556 S
C1106 H1112 0.929 . S
C1107 C1105 1.366 . S
C1107 C1106 1.416 1_554 S
C1107 H1109 0.930 . S
H1108 C1097 0.930 . S
H1109 C1107 0.930 . S
H1110 C1125 0.930 . S
H1111 C1132 0.930 . S
H1112 C1106 0.929 . S
H1113 C1105 0.930 . S
H1114 C1128 0.929 . S
H1115 C1095 0.931 . S
H1116 C1101 0.931 . S
H1117 C1102 0.931 . S
H1118 C1123 0.931 . S
H1119 C1098 0.929 . S
H1120 C1131 0.930 . S
N1121 Eu1092 2.600 . S
N1121 C1122 1.365 . S
N1121 C1125 1.319 . S
C1122 N1121 1.365 . S
C1122 C1124 1.405 . S
C1122 C1130 1.448 . S
C1123 H1118 0.931 . S
C1123 C1125 1.397 . S
C1123 C1126 1.367 . S
C1124 C1122 1.405 . S
C1124 C1126 1.403 . S
C1124 C1157 1.439 . S
C1125 H1110 0.930 . S
C1125 N1121 1.319 . S
C1125 C1123 1.397 . S
C1126 C1123 1.367 . S
C1126 C1124 1.403 . S
C1126 H1133 0.929 . S
N1127 Eu1092 2.562 . S
N1127 C1128 1.325 . S
N1127 C1130 1.351 . S
C1128 H1114 0.929 . S
C1128 N1127 1.325 . S
C1128 C1132 1.416 . S
C1129 C1130 1.430 . S
C1129 C1131 1.404 . S
C1129 C1158 1.387 . S
C1130 C1122 1.448 . S
C1130 N1127 1.351 . S
C1130 C1129 1.430 . S
C1131 H1120 0.930 . S
C1131 C1129 1.404 . S
C1131 C1132 1.366 . S
C1132 H1111 0.930 . S
C1132 C1128 1.416 . S
C1132 C1131 1.366 . S
H1133 C1126 0.929 . S
H1134 C1157 0.931 . S
H1135 C1158 0.955 . S
O1136 Eu1092 2.462 . S
O1136 C1156 1.252 . S
O1137 Eu1092 2.373 . S
O1137 C1148 1.249 . S
O1138 Eu1103 2.335 . S
O1138 C1148 1.264 . S
O1139 Eu1092 2.432 . S
O1139 C1156 1.268 . S
O1140 Eu1092 2.291 . S
O1140 C1155 1.255 . S
O1141 Eu1103 2.372 . S
O1141 C1155 1.257 . S
O1142 Eu1103 2.462 1_554 S
O1142 C1167 1.252 . S
O1143 Eu1103 2.373 . S
O1143 C1159 1.249 . S
O1144 Eu1092 2.335 . S
O1144 C1159 1.264 . S
O1145 Eu1103 2.432 1_554 S
O1145 C1167 1.268 . S
O1146 Eu1103 2.291 . S
O1146 C1166 1.255 . S
O1147 Eu1092 2.372 . S
O1147 C1166 1.257 . S
C1148 O1137 1.249 . S
C1148 O1138 1.264 . S
C1149 C1152 1.382 . S
C1149 C1154 1.390 . S
C1149 C1156 1.506 . S
C1150 C1151 1.398 . S
C1150 C1154 1.392 . S
C1151 C1150 1.398 . S
C1151 C1153 1.372 . S
C1151 H1168 0.931 . S
C1152 C1149 1.382 . S
C1152 C1153 1.390 . S
C1152 H1169 0.931 . S
C1153 C1151 1.372 . S
C1153 C1152 1.390 . S
C1153 H1170 0.929 . S
C1154 C1149 1.390 . S
C1154 C1150 1.392 . S
C1154 H1171 0.930 . S
C1155 O1140 1.255 . S
C1155 O1141 1.257 . S
C1156 Eu1092 2.787 . S
C1156 O1136 1.252 . S
C1156 O1139 1.268 . S
C1156 C1149 1.506 . S
C1157 C1124 1.439 . S
C1157 H1134 0.931 . S
C1157 C1158 1.374 . S
C1158 C1129 1.387 . S
C1158 H1135 0.955 . S
C1158 C1157 1.374 . S
C1159 O1143 1.249 . S
C1159 O1144 1.264 . S
C1160 C1163 1.382 . S
C1160 C1164 1.390 . S
C1160 C1167 1.506 . S
C1161 C1162 1.398 . S
C1161 C1164 1.392 . S
C1162 C1161 1.398 . S
C1162 C1165 1.372 . S
C1162 H1172 0.931 . S
C1163 C1160 1.382 . S
C1163 C1165 1.390 . S
C1163 H1173 0.931 . S
C1164 C1160 1.390 . S
C1164 C1161 1.392 . S
C1164 H1174 0.930 . S
C1165 C1162 1.372 . S
C1165 C1163 1.390 . S
C1165 H1175 0.929 . S
C1166 O1146 1.255 . S
C1166 O1147 1.257 . S
C1167 Eu1103 2.787 1_554 S
C1167 O1142 1.252 . S
C1167 O1145 1.268 . S
C1167 C1160 1.506 . S
H1168 C1151 0.931 . S
H1169 C1152 0.931 . S
H1170 C1153 0.929 . S
H1171 C1154 0.930 . S
H1172 C1162 0.931 . S
H1173 C1163 0.931 . S
H1174 C1164 0.930 . S
H1175 C1165 0.929 . S
Eu1176 N1205 2.600 . S
Eu1176 N1211 2.562 . S
Eu1176 O1220 2.462 . S
Eu1176 O1221 2.373 . S
Eu1176 O1223 2.432 . S
Eu1176 O1224 2.291 . S
Eu1176 O1228 2.335 . S
Eu1176 O1231 2.372 . S
Eu1176 C1240 2.787 . S
C1177 N1178 1.365 . S
C1177 C1180 1.405 . S
C1177 C1184 1.448 . S
N1178 C1177 1.365 . S
N1178 C1181 1.319 . S
N1178 Eu1187 2.600 . S
C1179 C1181 1.397 . S
C1179 C1182 1.367 . S
C1179 H1199 0.931 . S
C1180 C1177 1.405 . S
C1180 C1182 1.403 . S
C1180 C1186 1.439 . S
C1181 N1178 1.319 . S
C1181 C1179 1.397 . S
C1181 H1192 0.930 . S
C1182 C1179 1.367 . S
C1182 C1180 1.403 . S
C1182 H1203 0.929 . S
C1183 C1184 1.430 . S
C1183 C1185 1.387 . S
C1183 C1189 1.404 . S
C1184 C1177 1.448 . S
C1184 C1183 1.430 . S
C1184 N1188 1.351 . S
C1185 C1183 1.387 . S
C1185 C1186 1.374 . S
C1185 H1200 0.931 . S
C1186 C1180 1.439 . S
C1186 C1185 1.374 . S
C1186 H1201 0.931 . S
Eu1187 N1178 2.600 . S
Eu1187 N1188 2.562 . S
Eu1187 O1222 2.335 . S
Eu1187 O1225 2.372 . S
Eu1187 O1226 2.462 . S
Eu1187 O1227 2.373 . S
Eu1187 O1229 2.432 . S
Eu1187 O1230 2.291 . S
Eu1187 C1251 2.787 . S
N1188 C1184 1.351 . S
N1188 Eu1187 2.562 . S
N1188 C1190 1.325 . S
C1189 C1183 1.404 . S
C1189 C1191 1.366 . S
C1189 H1197 0.930 . S
C1190 N1188 1.325 . S
C1190 C1191 1.416 . S
C1190 H1196 0.929 . S
C1191 C1189 1.366 . S
C1191 C1190 1.416 . S
C1191 H1193 0.930 . S
H1192 C1181 0.930 . S
H1193 C1191 0.930 . S
H1194 C1209 0.930 . S
H1195 C1216 0.930 . S
H1196 C1190 0.929 . S
H1197 C1189 0.930 . S
H1198 C1212 0.929 . S
H1199 C1179 0.931 . S
H1200 C1185 0.931 . S
H1201 C1186 0.931 . S
H1202 C1207 0.931 . S
H1203 C1182 0.929 . S
H1204 C1215 0.930 . S
N1205 Eu1176 2.600 . S
N1205 C1206 1.365 . S
N1205 C1209 1.319 . S
C1206 N1205 1.365 . S
C1206 C1208 1.405 . S
C1206 C1214 1.448 . S
C1207 H1202 0.931 . S
C1207 C1209 1.397 . S
C1207 C1210 1.367 . S
C1208 C1206 1.405 . S
C1208 C1210 1.403 . S
C1208 C1241 1.439 . S
C1209 H1194 0.930 . S
C1209 N1205 1.319 . S
C1209 C1207 1.397 . S
C1210 C1207 1.367 . S
C1210 C1208 1.403 . S
C1210 H1217 0.929 . S
N1211 Eu1176 2.562 . S
N1211 C1212 1.325 . S
N1211 C1214 1.351 . S
C1212 H1198 0.929 . S
C1212 N1211 1.325 . S
C1212 C1216 1.416 . S
C1213 C1214 1.430 . S
C1213 C1215 1.404 . S
C1213 C1242 1.387 . S
C1214 C1206 1.448 . S
C1214 N1211 1.351 . S
C1214 C1213 1.430 . S
C1215 H1204 0.930 . S
C1215 C1213 1.404 . S
C1215 C1216 1.366 . S
C1216 H1195 0.930 . S
C1216 C1212 1.416 . S
C1216 C1215 1.366 . S
H1217 C1210 0.929 . S
H1218 C1241 0.931 . S
H1219 C1242 0.931 . S
O1220 Eu1176 2.462 . S
O1220 C1240 1.252 . S
O1221 Eu1176 2.373 . S
O1221 C1232 1.249 . S
O1222 Eu1187 2.335 . S
O1222 C1232 1.264 . S
O1223 Eu1176 2.432 . S
O1223 C1240 1.268 . S
O1224 Eu1176 2.291 . S
O1224 C1239 1.255 . S
O1225 Eu1187 2.372 . S
O1225 C1239 1.257 . S
O1226 Eu1187 2.462 . S
O1226 C1251 1.252 . S
O1227 Eu1187 2.373 . S
O1227 C1243 1.249 . S
O1228 Eu1176 2.335 . S
O1228 C1243 1.264 . S
O1229 Eu1187 2.432 . S
O1229 C1251 1.268 . S
O1230 Eu1187 2.291 . S
O1230 C1250 1.255 . S
O1231 Eu1176 2.372 . S
O1231 C1250 1.257 . S
C1232 O1221 1.249 . S
C1232 O1222 1.264 . S
C1233 C1236 1.382 . S
C1233 C1238 1.390 . S
C1233 C1240 1.506 . S
C1234 C1235 1.398 . S
C1234 C1238 1.392 . S
C1235 C1234 1.398 . S
C1235 C1237 1.372 . S
C1235 H1252 0.931 . S
C1236 C1233 1.382 . S
C1236 C1237 1.390 . S
C1236 H1253 0.931 . S
C1237 C1235 1.372 . S
C1237 C1236 1.390 . S
C1237 H1254 0.929 . S
C1238 C1233 1.390 . S
C1238 C1234 1.392 . S
C1238 H1255 0.930 . S
C1239 O1224 1.255 . S
C1239 O1225 1.257 . S
C1240 Eu1176 2.787 . S
C1240 O1220 1.252 . S
C1240 O1223 1.268 . S
C1240 C1233 1.506 . S
C1241 C1208 1.439 . S
C1241 H1218 0.931 . S
C1241 C1242 1.374 . S
C1242 C1213 1.387 . S
C1242 H1219 0.931 . S
C1242 C1241 1.374 . S
C1243 O1227 1.249 . S
C1243 O1228 1.264 . S
C1244 C1247 1.382 . S
C1244 C1248 1.390 . S
C1244 C1251 1.506 . S
C1245 C1246 1.398 . S
C1245 C1248 1.392 . S
C1246 C1245 1.398 . S
C1246 C1249 1.372 . S
C1246 H1256 0.931 . S
C1247 C1244 1.382 . S
C1247 C1249 1.390 . S
C1247 H1257 0.931 . S
C1248 C1244 1.390 . S
C1248 C1245 1.392 . S
C1248 H1258 0.930 . S
C1249 C1246 1.372 . S
C1249 C1247 1.390 . S
C1249 H1259 0.929 . S
C1250 O1230 1.255 . S
C1250 O1231 1.257 . S
C1251 Eu1187 2.787 . S
C1251 O1226 1.252 . S
C1251 O1229 1.268 . S
C1251 C1244 1.506 . S
H1252 C1235 0.931 . S
H1253 C1236 0.931 . S
H1254 C1237 0.929 . S
H1255 C1238 0.930 . S
H1256 C1246 0.931 . S
H1257 C1247 0.931 . S
H1258 C1248 0.930 . S
H1259 C1249 0.929 . S
Eu1260 N1289 2.600 . S
Eu1260 N1295 2.562 . S
Eu1260 O1304 2.462 . S
Eu1260 O1305 2.373 . S
Eu1260 O1307 2.432 . S
Eu1260 O1308 2.291 . S
Eu1260 O1312 2.335 . S
Eu1260 O1315 2.372 . S
Eu1260 C1324 2.787 . S
C1261 N1262 1.365 . S
C1261 C1264 1.405 . S
C1261 C1268 1.448 . S
N1262 C1261 1.365 . S
N1262 C1265 1.319 . S
N1262 Eu1271 2.600 . S
C1263 C1265 1.397 . S
C1263 C1266 1.367 . S
C1263 H1283 0.931 . S
C1264 C1261 1.405 . S
C1264 C1266 1.403 . S
C1264 C1270 1.439 . S
C1265 N1262 1.319 . S
C1265 C1263 1.397 . S
C1265 H1276 0.930 . S
C1266 C1263 1.367 . S
C1266 C1264 1.403 . S
C1266 H1287 0.929 . S
C1267 C1268 1.430 . S
C1267 C1269 1.387 . S
C1267 C1273 1.404 . S
C1268 C1261 1.448 . S
C1268 C1267 1.430 . S
C1268 N1272 1.351 . S
C1269 C1267 1.387 . S
C1269 C1270 1.374 . S
C1269 H1284 0.931 . S
C1270 C1264 1.439 . S
C1270 C1269 1.374 . S
C1270 H1285 0.931 . S
Eu1271 N1262 2.600 . S
Eu1271 N1272 2.562 . S
Eu1271 O1306 2.335 . S
Eu1271 O1309 2.372 . S
Eu1271 O1310 2.462 . S
Eu1271 O1311 2.373 . S
Eu1271 O1313 2.432 . S
Eu1271 O1314 2.291 . S
Eu1271 C1335 2.787 . S
N1272 C1268 1.351 . S
N1272 Eu1271 2.562 . S
N1272 C1274 1.325 . S
C1273 C1267 1.404 . S
C1273 C1275 1.366 . S
C1273 H1281 0.930 . S
C1274 N1272 1.325 . S
C1274 C1275 1.416 . S
C1274 H1280 0.929 . S
C1275 C1273 1.366 . S
C1275 C1274 1.416 . S
C1275 H1277 0.930 . S
H1276 C1265 0.930 . S
H1277 C1275 0.930 . S
H1278 C1293 0.930 . S
H1279 C1300 0.930 . S
H1280 C1274 0.929 . S
H1281 C1273 0.930 . S
H1282 C1296 0.929 . S
H1283 C1263 0.931 . S
H1284 C1269 0.931 . S
H1285 C1270 0.931 . S
H1286 C1291 0.931 . S
H1287 C1266 0.929 . S
H1288 C1299 0.930 . S
N1289 Eu1260 2.600 . S
N1289 C1290 1.365 . S
N1289 C1293 1.319 . S
C1290 N1289 1.365 . S
C1290 C1292 1.405 . S
C1290 C1298 1.448 . S
C1291 H1286 0.931 . S
C1291 C1293 1.397 . S
C1291 C1294 1.367 . S
C1292 C1290 1.405 . S
C1292 C1294 1.403 . S
C1292 C1325 1.439 . S
C1293 H1278 0.930 . S
C1293 N1289 1.319 . S
C1293 C1291 1.397 . S
C1294 C1291 1.367 . S
C1294 C1292 1.403 . S
C1294 H1301 0.929 . S
N1295 Eu1260 2.562 . S
N1295 C1296 1.325 . S
N1295 C1298 1.351 . S
C1296 H1282 0.929 . S
C1296 N1295 1.325 . S
C1296 C1300 1.416 . S
C1297 C1298 1.430 . S
C1297 C1299 1.404 . S
C1297 C1326 1.387 . S
C1298 C1290 1.448 . S
C1298 N1295 1.351 . S
C1298 C1297 1.430 . S
C1299 H1288 0.930 . S
C1299 C1297 1.404 . S
C1299 C1300 1.366 . S
C1300 H1279 0.930 . S
C1300 C1296 1.416 . S
C1300 C1299 1.366 . S
H1301 C1294 0.929 . S
H1302 C1325 0.931 . S
H1303 C1326 0.931 . S
O1304 Eu1260 2.462 . S
O1304 C1324 1.252 . S
O1305 Eu1260 2.373 . S
O1305 C1316 1.249 . S
O1306 Eu1271 2.335 . S
O1306 C1316 1.264 . S
O1307 Eu1260 2.432 . S
O1307 C1324 1.268 . S
O1308 Eu1260 2.291 . S
O1308 C1323 1.255 . S
O1309 Eu1271 2.372 . S
O1309 C1323 1.257 . S
O1310 Eu1271 2.462 . S
O1310 C1335 1.252 . S
O1311 Eu1271 2.373 . S
O1311 C1327 1.249 . S
O1312 Eu1260 2.335 . S
O1312 C1327 1.264 . S
O1313 Eu1271 2.432 . S
O1313 C1335 1.268 . S
O1314 Eu1271 2.291 . S
O1314 C1334 1.255 . S
O1315 Eu1260 2.372 . S
O1315 C1334 1.257 . S
C1316 O1305 1.249 . S
C1316 O1306 1.264 . S
C1317 C1320 1.382 . S
C1317 C1322 1.390 . S
C1317 C1324 1.506 . S
C1318 C1319 1.398 . S
C1318 C1322 1.392 . S
C1319 C1318 1.398 . S
C1319 C1321 1.372 . S
C1319 H1336 0.931 . S
C1320 C1317 1.382 . S
C1320 C1321 1.390 . S
C1320 H1337 0.931 . S
C1321 C1319 1.372 . S
C1321 C1320 1.390 . S
C1321 H1338 0.929 . S
C1322 C1317 1.390 . S
C1322 C1318 1.392 . S
C1322 H1339 0.930 . S
C1323 O1308 1.255 . S
C1323 O1309 1.257 . S
C1324 Eu1260 2.787 . S
C1324 O1304 1.252 . S
C1324 O1307 1.268 . S
C1324 C1317 1.506 . S
C1325 C1292 1.439 . S
C1325 H1302 0.931 . S
C1325 C1326 1.374 . S
C1326 C1297 1.387 . S
C1326 H1303 0.931 . S
C1326 C1325 1.374 . S
C1327 O1311 1.249 . S
C1327 O1312 1.264 . S
C1328 C1331 1.382 . S
C1328 C1332 1.390 . S
C1328 C1335 1.506 . S
C1329 C1330 1.398 . S
C1329 C1332 1.392 . S
C1330 C1329 1.398 . S
C1330 C1333 1.372 . S
C1330 H1340 0.931 . S
C1331 C1328 1.382 . S
C1331 C1333 1.390 . S
C1331 H1341 0.931 . S
C1332 C1328 1.390 . S
C1332 C1329 1.392 . S
C1332 H1342 0.930 . S
C1333 C1330 1.372 . S
C1333 C1331 1.390 . S
C1333 H1343 0.929 . S
C1334 O1314 1.255 . S
C1334 O1315 1.257 . S
C1335 Eu1271 2.787 . S
C1335 O1310 1.252 . S
C1335 O1313 1.268 . S
C1335 C1328 1.506 . S
H1336 C1319 0.931 . S
H1337 C1320 0.931 . S
H1338 C1321 0.929 . S
H1339 C1322 0.930 . S
H1340 C1330 0.931 . S
H1341 C1331 0.931 . S
H1342 C1332 0.930 . S
H1343 C1333 0.929 . S
H1344 C1352 0.950 . S
H1345 C1357 0.950 . S
H1346 C1354 0.950 . S
H1347 C1356 0.950 . S
H1348 C1358 0.950 . S
H1349 C1360 0.950 . S
H1350 C1362 0.950 . S
H1351 C1363 0.950 . S
C1352 H1344 0.950 . S
C1352 C1353 1.386 . S
C1352 C1354 1.391 . S
C1353 C1352 1.386 . S
C1353 C1357 1.393 . S
C1354 H1346 0.950 . S
C1354 C1352 1.391 . S
C1354 C1355 1.400 . S
C1355 C1354 1.400 . S
C1355 C1356 1.398 . S
C1355 C1361 1.491 . S
C1356 H1347 0.950 . S
C1356 C1355 1.398 . S
C1356 C1357 1.391 . S
C1357 H1345 0.950 . S
C1357 C1353 1.393 . S
C1357 C1356 1.391 . S
C1358 H1348 0.950 . S
C1358 C1359 1.386 . S
C1358 C1360 1.391 . S
C1359 C1358 1.386 . S
C1359 C1363 1.393 . S
C1360 H1349 0.950 . S
C1360 C1358 1.391 . S
C1360 C1361 1.400 . S
C1361 C1355 1.491 . S
C1361 C1360 1.400 . S
C1361 C1362 1.398 . S
C1362 H1350 0.950 . S
C1362 C1361 1.398 . S
C1362 C1363 1.391 . S
C1363 H1351 0.950 . S
C1363 C1359 1.393 . S
C1363 C1362 1.391 . S
H1364 C1372 0.950 . S
H1365 C1377 0.950 1_554 S
H1366 C1374 0.950 . S
H1367 C1376 0.950 . S
H1368 C1378 0.950 . S
H1369 C1380 0.950 . S
H1370 C1382 0.950 . S
H1371 C1383 0.950 . S
C1372 H1364 0.950 . S
C1372 C1373 1.386 1_556 S
C1372 C1374 1.391 . S
C1373 C1372 1.386 1_554 S
C1373 C1377 1.393 1_554 S
C1374 H1366 0.950 . S
C1374 C1372 1.391 . S
C1374 C1375 1.400 . S
C1375 C1374 1.400 . S
C1375 C1376 1.398 . S
C1375 C1381 1.491 . S
C1376 H1367 0.950 . S
C1376 C1375 1.398 . S
C1376 C1377 1.391 . S
C1377 H1365 0.950 1_556 S
C1377 C1373 1.393 1_556 S
C1377 C1376 1.391 . S
C1378 H1368 0.950 . S
C1378 C1379 1.386 . S
C1378 C1380 1.391 . S
C1379 C1378 1.386 . S
C1379 C1383 1.393 . S
C1380 H1369 0.950 . S
C1380 C1378 1.391 . S
C1380 C1381 1.400 . S
C1381 C1375 1.491 . S
C1381 C1380 1.400 . S
C1381 C1382 1.398 . S
C1382 H1370 0.950 . S
C1382 C1381 1.398 . S
C1382 C1383 1.391 . S
C1383 H1371 0.950 . S
C1383 C1379 1.393 . S
C1383 C1382 1.391 . S
H1384 C1392 0.950 . S
H1385 C1397 0.950 . S
H1386 C1394 0.950 . S
H1387 C1396 0.950 . S
H1388 C1398 0.950 . S
H1389 C1400 0.950 . S
H1390 C1402 0.950 . S
H1391 C1403 0.950 . S
C1392 H1384 0.950 . S
C1392 C1393 1.386 . S
C1392 C1394 1.391 . S
C1393 C1392 1.386 . S
C1393 C1397 1.393 . S
C1394 H1386 0.950 . S
C1394 C1392 1.391 . S
C1394 C1395 1.400 . S
C1395 C1394 1.400 . S
C1395 C1396 1.398 . S
C1395 C1401 1.491 . S
C1396 H1387 0.950 . S
C1396 C1395 1.398 . S
C1396 C1397 1.391 . S
C1397 H1385 0.950 . S
C1397 C1393 1.393 . S
C1397 C1396 1.391 . S
C1398 H1388 0.950 . S
C1398 C1399 1.386 1_554 S
C1398 C1400 1.391 . S
C1399 C1398 1.386 1_556 S
C1399 C1403 1.393 1_556 S
C1400 H1389 0.950 . S
C1400 C1398 1.391 . S
C1400 C1401 1.400 . S
C1401 C1395 1.491 . S
C1401 C1400 1.400 . S
C1401 C1402 1.398 . S
C1402 H1390 0.950 . S
C1402 C1401 1.398 . S
C1402 C1403 1.391 . S
C1403 H1391 0.950 . S
C1403 C1399 1.393 1_554 S
C1403 C1402 1.391 . S
H1404 C1412 0.950 . S
H1405 C1417 0.950 . S
H1406 C1414 0.950 . S
H1407 C1416 0.950 . S
H1408 C1418 0.950 . S
H1409 C1420 0.950 . S
H1410 C1422 0.950 . S
H1411 C1423 0.950 . S
C1412 H1404 0.950 . S
C1412 C1413 1.386 . S
C1412 C1414 1.391 . S
C1413 C1412 1.386 . S
C1413 C1417 1.393 . S
C1414 H1406 0.950 . S
C1414 C1412 1.391 . S
C1414 C1415 1.400 . S
C1415 C1414 1.400 . S
C1415 C1416 1.398 . S
C1415 C1421 1.491 . S
C1416 H1407 0.950 . S
C1416 C1415 1.398 . S
C1416 C1417 1.391 . S
C1417 H1405 0.950 . S
C1417 C1413 1.393 . S
C1417 C1416 1.391 . S
C1418 H1408 0.950 . S
C1418 C1419 1.386 . S
C1418 C1420 1.391 . S
C1419 C1418 1.386 . S
C1419 C1423 1.393 . S
C1420 H1409 0.950 . S
C1420 C1418 1.391 . S
C1420 C1421 1.400 . S
C1421 C1415 1.491 . S
C1421 C1420 1.400 . S
C1421 C1422 1.398 . S
C1422 H1410 0.950 . S
C1422 C1421 1.398 . S
C1422 C1423 1.391 . S
C1423 H1411 0.950 . S
C1423 C1419 1.393 . S
C1423 C1422 1.391 . S
H1424 C1432 0.950 . S
H1425 C1437 0.950 . S
H1426 C1434 0.950 . S
H1427 C1436 0.950 . S
H1428 C1438 0.950 . S
H1429 C1440 0.950 . S
H1430 C1442 0.950 . S
H1431 C1443 0.950 . S
C1432 H1424 0.950 . S
C1432 C1433 1.386 . S
C1432 C1434 1.391 . S
C1433 C1432 1.386 . S
C1433 C1437 1.393 . S
C1434 H1426 0.950 . S
C1434 C1432 1.391 . S
C1434 C1435 1.400 . S
C1435 C1434 1.400 . S
C1435 C1436 1.398 . S
C1435 C1441 1.491 . S
C1436 H1427 0.950 . S
C1436 C1435 1.398 . S
C1436 C1437 1.391 . S
C1437 H1425 0.950 . S
C1437 C1433 1.393 . S
C1437 C1436 1.391 . S
C1438 H1428 0.950 . S
C1438 C1439 1.386 . S
C1438 C1440 1.391 . S
C1439 C1438 1.386 . S
C1439 C1443 1.393 . S
C1440 H1429 0.950 . S
C1440 C1438 1.391 . S
C1440 C1441 1.400 . S
C1441 C1435 1.491 . S
C1441 C1440 1.400 . S
C1441 C1442 1.398 . S
C1442 H1430 0.950 . S
C1442 C1441 1.398 . S
C1442 C1443 1.391 . S
C1443 H1431 0.950 . S
C1443 C1439 1.393 . S
C1443 C1442 1.391 . S
H1444 C1452 0.950 . S
H1445 C1457 0.950 . S
H1446 C1454 0.950 . S
H1447 C1456 0.950 . S
H1448 C1458 0.950 . S
H1449 C1460 0.950 . S
H1450 C1462 0.950 . S
H1451 C1463 0.950 . S
C1452 H1444 0.950 . S
C1452 C1453 1.386 . S
C1452 C1454 1.391 . S
C1453 C1452 1.386 . S
C1453 C1457 1.393 . S
C1454 H1446 0.950 . S
C1454 C1452 1.391 . S
C1454 C1455 1.400 . S
C1455 C1454 1.400 . S
C1455 C1456 1.398 . S
C1455 C1461 1.491 . S
C1456 H1447 0.950 . S
C1456 C1455 1.398 . S
C1456 C1457 1.391 . S
C1457 H1445 0.950 . S
C1457 C1453 1.393 . S
C1457 C1456 1.391 . S
C1458 H1448 0.950 . S
C1458 C1459 1.386 . S
C1458 C1460 1.391 . S
C1459 C1458 1.386 . S
C1459 C1463 1.393 . S
C1460 H1449 0.950 . S
C1460 C1458 1.391 . S
C1460 C1461 1.400 . S
C1461 C1455 1.491 . S
C1461 C1460 1.400 . S
C1461 C1462 1.398 . S
C1462 H1450 0.950 . S
C1462 C1461 1.398 . S
C1462 C1463 1.391 . S
C1463 H1451 0.950 . S
C1463 C1459 1.393 . S
C1463 C1462 1.391 . S
H1464 C1472 0.950 . S
H1465 C1477 0.950 . S
H1466 C1474 0.950 . S
H1467 C1476 0.950 . S
H1468 C1478 0.950 1_554 S
H1469 C1480 0.950 . S
H1470 C1482 0.950 . S
H1471 C1483 0.950 . S
C1472 H1464 0.950 . S
C1472 C1473 1.386 . S
C1472 C1474 1.391 . S
C1473 C1472 1.386 . S
C1473 C1477 1.393 . S
C1474 H1466 0.950 . S
C1474 C1472 1.391 . S
C1474 C1475 1.400 . S
C1475 C1474 1.400 . S
C1475 C1476 1.398 . S
C1475 C1481 1.491 . S
C1476 H1467 0.950 . S
C1476 C1475 1.398 . S
C1476 C1477 1.391 . S
C1477 H1465 0.950 . S
C1477 C1473 1.393 . S
C1477 C1476 1.391 . S
C1478 H1468 0.950 1_556 S
C1478 C1479 1.386 1_556 S
C1478 C1480 1.391 . S
C1479 C1478 1.386 1_554 S
C1479 C1483 1.393 1_554 S
C1480 H1469 0.950 . S
C1480 C1478 1.391 . S
C1480 C1481 1.400 . S
C1481 C1475 1.491 . S
C1481 C1480 1.400 . S
C1481 C1482 1.398 . S
C1482 H1470 0.950 . S
C1482 C1481 1.398 . S
C1482 C1483 1.391 . S
C1483 H1471 0.950 . S
C1483 C1479 1.393 1_556 S
C1483 C1482 1.391 . S
H1484 C1492 0.950 1_556 S
H1485 C1497 0.950 . S
H1486 C1494 0.950 . S
H1487 C1496 0.950 . S
H1488 C1498 0.950 . S
H1489 C1500 0.950 . S
H1490 C1502 0.950 . S
H1491 C1503 0.950 . S
C1492 H1484 0.950 1_554 S
C1492 C1493 1.386 1_554 S
C1492 C1494 1.391 . S
C1493 C1492 1.386 1_556 S
C1493 C1497 1.393 1_556 S
C1494 H1486 0.950 . S
C1494 C1492 1.391 . S
C1494 C1495 1.400 . S
C1495 C1494 1.400 . S
C1495 C1496 1.398 . S
C1495 C1501 1.491 . S
C1496 H1487 0.950 . S
C1496 C1495 1.398 . S
C1496 C1497 1.391 . S
C1497 H1485 0.950 . S
C1497 C1493 1.393 1_554 S
C1497 C1496 1.391 . S
C1498 H1488 0.950 . S
C1498 C1499 1.386 . S
C1498 C1500 1.391 . S
C1499 C1498 1.386 . S
C1499 C1503 1.393 . S
C1500 H1489 0.950 . S
C1500 C1498 1.391 . S
C1500 C1501 1.400 . S
C1501 C1495 1.491 . S
C1501 C1500 1.400 . S
C1501 C1502 1.398 . S
C1502 H1490 0.950 . S
C1502 C1501 1.398 . S
C1502 C1503 1.391 . S
C1503 H1491 0.950 . S
C1503 C1499 1.393 . S
C1503 C1502 1.391 . S
H1504 C1512 0.950 . S
H1505 C1517 0.950 . S
H1506 C1514 0.950 . S
H1507 C1516 0.950 . S
H1508 C1518 0.950 . S
H1509 C1520 0.950 . S
H1510 C1522 0.950 . S
H1511 C1523 0.950 . S
C1512 H1504 0.950 . S
C1512 C1513 1.386 . S
C1512 C1514 1.391 . S
C1513 C1512 1.386 . S
C1513 C1517 1.393 . S
C1514 H1506 0.950 . S
C1514 C1512 1.391 . S
C1514 C1515 1.400 . S
C1515 C1514 1.400 . S
C1515 C1516 1.398 . S
C1515 C1521 1.491 . S
C1516 H1507 0.950 . S
C1516 C1515 1.398 . S
C1516 C1517 1.391 . S
C1517 H1505 0.950 . S
C1517 C1513 1.393 . S
C1517 C1516 1.391 . S
C1518 H1508 0.950 . S
C1518 C1519 1.386 . S
C1518 C1520 1.391 . S
C1519 C1518 1.386 . S
C1519 C1523 1.393 . S
C1520 H1509 0.950 . S
C1520 C1518 1.391 . S
C1520 C1521 1.400 . S
C1521 C1515 1.491 . S
C1521 C1520 1.400 . S
C1521 C1522 1.398 . S
C1522 H1510 0.950 . S
C1522 C1521 1.398 . S
C1522 C1523 1.391 . S
C1523 H1511 0.950 . S
C1523 C1519 1.393 . S
C1523 C1522 1.391 . S
H1524 C1532 0.950 . S
H1525 C1537 0.950 . S
H1526 C1534 0.950 . S
H1527 C1536 0.950 . S
H1528 C1538 0.950 . S
H1529 C1540 0.950 . S
H1530 C1542 0.950 . S
H1531 C1543 0.950 1_556 S
C1532 H1524 0.950 . S
C1532 C1533 1.386 . S
C1532 C1534 1.391 . S
C1533 C1532 1.386 . S
C1533 C1537 1.393 . S
C1534 H1526 0.950 . S
C1534 C1532 1.391 . S
C1534 C1535 1.400 . S
C1535 C1534 1.400 . S
C1535 C1536 1.398 . S
C1535 C1541 1.491 . S
C1536 H1527 0.950 . S
C1536 C1535 1.398 . S
C1536 C1537 1.391 . S
C1537 H1525 0.950 . S
C1537 C1533 1.393 . S
C1537 C1536 1.391 . S
C1538 H1528 0.950 . S
C1538 C1539 1.386 1_554 S
C1538 C1540 1.391 . S
C1539 C1538 1.386 1_556 S
C1539 C1543 1.393 1_556 S
C1540 H1529 0.950 . S
C1540 C1538 1.391 . S
C1540 C1541 1.400 . S
C1541 C1535 1.491 . S
C1541 C1540 1.400 . S
C1541 C1542 1.398 . S
C1542 H1530 0.950 . S
C1542 C1541 1.398 . S
C1542 C1543 1.391 . S
C1543 H1531 0.950 1_554 S
C1543 C1539 1.393 1_554 S
C1543 C1542 1.391 . S
H1544 C1552 0.950 1_554 S
H1545 C1557 0.950 . S
H1546 C1554 0.950 . S
H1547 C1556 0.950 . S
H1548 C1558 0.950 . S
H1549 C1560 0.950 . S
H1550 C1562 0.950 . S
H1551 C1563 0.950 . S
C1552 H1544 0.950 1_556 S
C1552 C1553 1.386 1_556 S
C1552 C1554 1.391 . S
C1553 C1552 1.386 1_554 S
C1553 C1557 1.393 1_554 S
C1554 H1546 0.950 . S
C1554 C1552 1.391 . S
C1554 C1555 1.400 . S
C1555 C1554 1.400 . S
C1555 C1556 1.398 . S
C1555 C1561 1.491 . S
C1556 H1547 0.950 . S
C1556 C1555 1.398 . S
C1556 C1557 1.391 . S
C1557 H1545 0.950 . S
C1557 C1553 1.393 1_556 S
C1557 C1556 1.391 . S
C1558 H1548 0.950 . S
C1558 C1559 1.386 . S
C1558 C1560 1.391 . S
C1559 C1558 1.386 . S
C1559 C1563 1.393 . S
C1560 H1549 0.950 . S
C1560 C1558 1.391 . S
C1560 C1561 1.400 . S
C1561 C1555 1.491 . S
C1561 C1560 1.400 . S
C1561 C1562 1.398 . S
C1562 H1550 0.950 . S
C1562 C1561 1.398 . S
C1562 C1563 1.391 . S
C1563 H1551 0.950 . S
C1563 C1559 1.393 . S
C1563 C1562 1.391 . S
H1564 C1572 0.950 . S
H1565 C1577 0.950 . S
H1566 C1574 0.950 . S
H1567 C1576 0.950 . S
H1568 C1578 0.950 . S
H1569 C1580 0.950 . S
H1570 C1582 0.950 . S
H1571 C1583 0.950 . S
C1572 H1564 0.950 . S
C1572 C1573 1.386 . S
C1572 C1574 1.391 . S
C1573 C1572 1.386 . S
C1573 C1577 1.393 . S
C1574 H1566 0.950 . S
C1574 C1572 1.391 . S
C1574 C1575 1.400 . S
C1575 C1574 1.400 . S
C1575 C1576 1.398 . S
C1575 C1581 1.491 . S
C1576 H1567 0.950 . S
C1576 C1575 1.398 . S
C1576 C1577 1.391 . S
C1577 H1565 0.950 . S
C1577 C1573 1.393 . S
C1577 C1576 1.391 . S
C1578 H1568 0.950 . S
C1578 C1579 1.386 . S
C1578 C1580 1.391 . S
C1579 C1578 1.386 . S
C1579 C1583 1.393 . S
C1580 H1569 0.950 . S
C1580 C1578 1.391 . S
C1580 C1581 1.400 . S
C1581 C1575 1.491 . S
C1581 C1580 1.400 . S
C1581 C1582 1.398 . S
C1582 H1570 0.950 . S
C1582 C1581 1.398 . S
C1582 C1583 1.391 . S
C1583 H1571 0.950 . S
C1583 C1579 1.393 . S
C1583 C1582 1.391 . S
H1584 C1592 0.950 . S
H1585 C1597 0.950 . S
H1586 C1594 0.950 . S
H1587 C1596 0.950 . S
H1588 C1598 0.950 . S
H1589 C1600 0.950 . S
H1590 C1602 0.950 . S
H1591 C1603 0.950 . S
C1592 H1584 0.950 . S
C1592 C1593 1.386 . S
C1592 C1594 1.391 . S
C1593 C1592 1.386 . S
C1593 C1597 1.393 . S
C1594 H1586 0.950 . S
C1594 C1592 1.391 . S
C1594 C1595 1.400 . S
C1595 C1594 1.400 . S
C1595 C1596 1.398 . S
C1595 C1601 1.491 . S
C1596 H1587 0.950 . S
C1596 C1595 1.398 . S
C1596 C1597 1.391 . S
C1597 H1585 0.950 . S
C1597 C1593 1.393 . S
C1597 C1596 1.391 . S
C1598 H1588 0.950 . S
C1598 C1599 1.386 . S
C1598 C1600 1.391 . S
C1599 C1598 1.386 . S
C1599 C1603 1.393 . S
C1600 H1589 0.950 . S
C1600 C1598 1.391 . S
C1600 C1601 1.400 . S
C1601 C1595 1.491 . S
C1601 C1600 1.400 . S
C1601 C1602 1.398 . S
C1602 H1590 0.950 . S
C1602 C1601 1.398 . S
C1602 C1603 1.391 . S
C1603 H1591 0.950 . S
C1603 C1599 1.393 . S
C1603 C1602 1.391 . S
H1604 C1612 0.950 . S
H1605 C1617 0.950 . S
H1606 C1614 0.950 . S
H1607 C1616 0.950 . S
H1608 C1618 0.950 . S
H1609 C1620 0.950 . S
H1610 C1622 0.950 . S
H1611 C1623 0.950 . S
C1612 H1604 0.950 . S
C1612 C1613 1.386 . S
C1612 C1614 1.391 . S
C1613 C1612 1.386 . S
C1613 C1617 1.393 . S
C1614 H1606 0.950 . S
C1614 C1612 1.391 . S
C1614 C1615 1.400 . S
C1615 C1614 1.400 . S
C1615 C1616 1.398 . S
C1615 C1621 1.491 . S
C1616 H1607 0.950 . S
C1616 C1615 1.398 . S
C1616 C1617 1.391 . S
C1617 H1605 0.950 . S
C1617 C1613 1.393 . S
C1617 C1616 1.391 . S
C1618 H1608 0.950 . S
C1618 C1619 1.386 . S
C1618 C1620 1.391 . S
C1619 C1618 1.386 . S
C1619 C1623 1.393 . S
C1620 H1609 0.950 . S
C1620 C1618 1.391 . S
C1620 C1621 1.400 . S
C1621 C1615 1.491 . S
C1621 C1620 1.400 . S
C1621 C1622 1.398 . S
C1622 H1610 0.950 . S
C1622 C1621 1.398 . S
C1622 C1623 1.391 . S
C1623 H1611 0.950 . S
C1623 C1619 1.393 . S
C1623 C1622 1.391 . S
H1624 C1632 0.950 . S
H1625 C1637 0.950 . S
H1626 C1634 0.950 . S
H1627 C1636 0.950 . S
H1628 C1638 0.950 . S
H1629 C1640 0.950 . S
H1630 C1642 0.950 . S
H1631 C1643 0.950 1_556 S
C1632 H1624 0.950 . S
C1632 C1633 1.386 . S
C1632 C1634 1.391 . S
C1633 C1632 1.386 . S
C1633 C1637 1.393 . S
C1634 H1626 0.950 . S
C1634 C1632 1.391 . S
C1634 C1635 1.400 . S
C1635 C1634 1.400 . S
C1635 C1636 1.398 . S
C1635 C1641 1.491 . S
C1636 H1627 0.950 . S
C1636 C1635 1.398 . S
C1636 C1637 1.391 . S
C1637 H1625 0.950 . S
C1637 C1633 1.393 . S
C1637 C1636 1.391 . S
C1638 H1628 0.950 . S
C1638 C1639 1.386 1_554 S
C1638 C1640 1.391 . S
C1639 C1638 1.386 1_556 S
C1639 C1643 1.393 1_556 S
C1640 H1629 0.950 . S
C1640 C1638 1.391 . S
C1640 C1641 1.400 . S
C1641 C1635 1.491 . S
C1641 C1640 1.400 . S
C1641 C1642 1.398 . S
C1642 H1630 0.950 . S
C1642 C1641 1.398 . S
C1642 C1643 1.391 . S
C1643 H1631 0.950 1_554 S
C1643 C1639 1.393 1_554 S
C1643 C1642 1.391 . S
H1644 C1652 0.950 1_554 S
H1645 C1657 0.950 . S
H1646 C1654 0.950 . S
H1647 C1656 0.950 . S
H1648 C1658 0.950 . S
H1649 C1660 0.950 . S
H1650 C1662 0.950 . S
H1651 C1663 0.950 . S
C1652 H1644 0.950 1_556 S
C1652 C1653 1.386 1_556 S
C1652 C1654 1.391 . S
C1653 C1652 1.386 1_554 S
C1653 C1657 1.393 1_554 S
C1654 H1646 0.950 . S
C1654 C1652 1.391 . S
C1654 C1655 1.400 . S
C1655 C1654 1.400 . S
C1655 C1656 1.398 . S
C1655 C1661 1.491 . S
C1656 H1647 0.950 . S
C1656 C1655 1.398 . S
C1656 C1657 1.391 . S
C1657 H1645 0.950 . S
C1657 C1653 1.393 1_556 S
C1657 C1656 1.391 . S
C1658 H1648 0.950 . S
C1658 C1659 1.386 . S
C1658 C1660 1.391 . S
C1659 C1658 1.386 . S
C1659 C1663 1.393 . S
C1660 H1649 0.950 . S
C1660 C1658 1.391 . S
C1660 C1661 1.400 . S
C1661 C1655 1.491 . S
C1661 C1660 1.400 . S
C1661 C1662 1.398 . S
C1662 H1650 0.950 . S
C1662 C1661 1.398 . S
C1662 C1663 1.391 . S
C1663 H1651 0.950 . S
C1663 C1659 1.393 . S
C1663 C1662 1.391 . S
H1664 C1672 0.950 . S
H1665 C1677 0.950 . S
H1666 C1674 0.950 . S
H1667 C1676 0.950 . S
H1668 C1678 0.950 . S
H1669 C1680 0.950 . S
H1670 C1682 0.950 . S
H1671 C1683 0.950 . S
C1672 H1664 0.950 . S
C1672 C1673 1.386 . S
C1672 C1674 1.391 . S
C1673 C1672 1.386 . S
C1673 C1677 1.393 . S
C1674 H1666 0.950 . S
C1674 C1672 1.391 . S
C1674 C1675 1.400 . S
C1675 C1674 1.400 . S
C1675 C1676 1.398 . S
C1675 C1681 1.491 . S
C1676 H1667 0.950 . S
C1676 C1675 1.398 . S
C1676 C1677 1.391 . S
C1677 H1665 0.950 . S
C1677 C1673 1.393 . S
C1677 C1676 1.391 . S
C1678 H1668 0.950 . S
C1678 C1679 1.386 . S
C1678 C1680 1.391 . S
C1679 C1678 1.386 . S
C1679 C1683 1.393 . S
C1680 H1669 0.950 . S
C1680 C1678 1.391 . S
C1680 C1681 1.400 . S
C1681 C1675 1.491 . S
C1681 C1680 1.400 . S
C1681 C1682 1.398 . S
C1682 H1670 0.950 . S
C1682 C1681 1.398 . S
C1682 C1683 1.391 . S
C1683 H1671 0.950 . S
C1683 C1679 1.393 . S
C1683 C1682 1.391 . S
H1684 C1692 0.950 . S
H1685 C1697 0.950 . S
H1686 C1694 0.950 . S
H1687 C1696 0.950 . S
H1688 C1698 0.950 . S
H1689 C1700 0.950 . S
H1690 C1702 0.950 . S
H1691 C1703 0.950 . S
C1692 H1684 0.950 . S
C1692 C1693 1.386 . S
C1692 C1694 1.391 . S
C1693 C1692 1.386 . S
C1693 C1697 1.393 . S
C1694 H1686 0.950 . S
C1694 C1692 1.391 . S
C1694 C1695 1.400 . S
C1695 C1694 1.400 . S
C1695 C1696 1.398 . S
C1695 C1701 1.491 . S
C1696 H1687 0.950 . S
C1696 C1695 1.398 . S
C1696 C1697 1.391 . S
C1697 H1685 0.950 . S
C1697 C1693 1.393 . S
C1697 C1696 1.391 . S
C1698 H1688 0.950 . S
C1698 C1699 1.386 . S
C1698 C1700 1.391 . S
C1699 C1698 1.386 . S
C1699 C1703 1.393 . S
C1700 H1689 0.950 . S
C1700 C1698 1.391 . S
C1700 C1701 1.400 . S
C1701 C1695 1.491 . S
C1701 C1700 1.400 . S
C1701 C1702 1.398 . S
C1702 H1690 0.950 . S
C1702 C1701 1.398 . S
C1702 C1703 1.391 . S
C1703 H1691 0.950 . S
C1703 C1699 1.393 . S
C1703 C1702 1.391 . S
H1704 C1712 0.950 . S
H1705 C1717 0.950 . S
H1706 C1714 0.950 . S
H1707 C1716 0.950 . S
H1708 C1718 0.950 . S
H1709 C1720 0.950 . S
H1710 C1722 0.950 . S
H1711 C1723 0.950 . S
C1712 H1704 0.950 . S
C1712 C1713 1.386 . S
C1712 C1714 1.391 . S
C1713 C1712 1.386 . S
C1713 C1717 1.393 . S
C1714 H1706 0.950 . S
C1714 C1712 1.391 . S
C1714 C1715 1.400 . S
C1715 C1714 1.400 . S
C1715 C1716 1.398 . S
C1715 C1721 1.491 . S
C1716 H1707 0.950 . S
C1716 C1715 1.398 . S
C1716 C1717 1.391 . S
C1717 H1705 0.950 . S
C1717 C1713 1.393 . S
C1717 C1716 1.391 . S
C1718 H1708 0.950 . S
C1718 C1719 1.386 . S
C1718 C1720 1.391 . S
C1719 C1718 1.386 . S
C1719 C1723 1.393 . S
C1720 H1709 0.950 . S
C1720 C1718 1.391 . S
C1720 C1721 1.400 . S
C1721 C1715 1.491 . S
C1721 C1720 1.400 . S
C1721 C1722 1.398 . S
C1722 H1710 0.950 . S
C1722 C1721 1.398 . S
C1722 C1723 1.391 . S
C1723 H1711 0.950 . S
C1723 C1719 1.393 . S
C1723 C1722 1.391 . S
H1724 C1732 0.950 . S
H1725 C1737 0.950 . S
H1726 C1734 0.950 . S
H1727 C1736 0.950 . S
H1728 C1738 0.950 . S
H1729 C1740 0.950 . S
H1730 C1742 0.950 . S
H1731 C1743 0.950 . S
C1732 H1724 0.950 . S
C1732 C1733 1.386 . S
C1732 C1734 1.391 . S
C1733 C1732 1.386 . S
C1733 C1737 1.393 . S
C1734 H1726 0.950 . S
C1734 C1732 1.391 . S
C1734 C1735 1.400 . S
C1735 C1734 1.400 . S
C1735 C1736 1.398 . S
C1735 C1741 1.491 1_655 S
C1736 H1727 0.950 . S
C1736 C1735 1.398 . S
C1736 C1737 1.391 . S
C1737 H1725 0.950 . S
C1737 C1733 1.393 . S
C1737 C1736 1.391 . S
C1738 H1728 0.950 . S
C1738 C1739 1.386 . S
C1738 C1740 1.391 . S
C1739 C1738 1.386 . S
C1739 C1743 1.393 . S
C1740 H1729 0.950 . S
C1740 C1738 1.391 . S
C1740 C1741 1.400 . S
C1741 C1735 1.491 1_455 S
C1741 C1740 1.400 . S
C1741 C1742 1.398 . S
C1742 H1730 0.950 . S
C1742 C1741 1.398 . S
C1742 C1743 1.391 . S
C1743 H1731 0.950 . S
C1743 C1739 1.393 . S
C1743 C1742 1.391 . S
H1744 C1752 0.950 . S
H1745 C1757 0.950 . S
H1746 C1754 0.950 . S
H1747 C1756 0.950 . S
H1748 C1758 0.950 . S
H1749 C1760 0.950 . S
H1750 C1762 0.950 . S
H1751 C1763 0.950 . S
C1752 H1744 0.950 . S
C1752 C1753 1.386 . S
C1752 C1754 1.391 . S
C1753 C1752 1.386 . S
C1753 C1757 1.393 . S
C1754 H1746 0.950 . S
C1754 C1752 1.391 . S
C1754 C1755 1.400 . S
C1755 C1754 1.400 . S
C1755 C1756 1.398 . S
C1755 C1761 1.491 . S
C1756 H1747 0.950 . S
C1756 C1755 1.398 . S
C1756 C1757 1.391 . S
C1757 H1745 0.950 . S
C1757 C1753 1.393 . S
C1757 C1756 1.391 . S
C1758 H1748 0.950 . S
C1758 C1759 1.386 . S
C1758 C1760 1.391 . S
C1759 C1758 1.386 . S
C1759 C1763 1.393 . S
C1760 H1749 0.950 . S
C1760 C1758 1.391 . S
C1760 C1761 1.400 . S
C1761 C1755 1.491 . S
C1761 C1760 1.400 . S
C1761 C1762 1.398 . S
C1762 H1750 0.950 . S
C1762 C1761 1.398 . S
C1762 C1763 1.391 . S
C1763 H1751 0.950 . S
C1763 C1759 1.393 . S
C1763 C1762 1.391 . S
H1764 C1772 0.950 . S
H1765 C1777 0.950 . S
H1766 C1774 0.950 . S
H1767 C1776 0.950 . S
H1768 C1778 0.950 . S
H1769 C1780 0.950 . S
H1770 C1782 0.950 . S
H1771 C1783 0.950 . S
C1772 H1764 0.950 . S
C1772 C1773 1.386 . S
C1772 C1774 1.391 . S
C1773 C1772 1.386 . S
C1773 C1777 1.393 . S
C1774 H1766 0.950 . S
C1774 C1772 1.391 . S
C1774 C1775 1.400 . S
C1775 C1774 1.400 . S
C1775 C1776 1.398 . S
C1775 C1781 1.491 1_455 S
C1776 H1767 0.950 . S
C1776 C1775 1.398 . S
C1776 C1777 1.391 . S
C1777 H1765 0.950 . S
C1777 C1773 1.393 . S
C1777 C1776 1.391 . S
C1778 H1768 0.950 . S
C1778 C1779 1.386 . S
C1778 C1780 1.391 . S
C1779 C1778 1.386 . S
C1779 C1783 1.393 . S
C1780 H1769 0.950 . S
C1780 C1778 1.391 . S
C1780 C1781 1.400 . S
C1781 C1775 1.491 1_655 S
C1781 C1780 1.400 . S
C1781 C1782 1.398 . S
C1782 H1770 0.950 . S
C1782 C1781 1.398 . S
C1782 C1783 1.391 . S
C1783 H1771 0.950 . S
C1783 C1779 1.393 . S
C1783 C1782 1.391 . S
H1784 C1792 0.950 . S
H1785 C1797 0.950 . S
H1786 C1794 0.950 . S
H1787 C1796 0.950 . S
H1788 C1798 0.950 . S
H1789 C1800 0.950 . S
H1790 C1802 0.950 . S
H1791 C1803 0.950 . S
C1792 H1784 0.950 . S
C1792 C1793 1.386 . S
C1792 C1794 1.391 . S
C1793 C1792 1.386 . S
C1793 C1797 1.393 . S
C1794 H1786 0.950 . S
C1794 C1792 1.391 . S
C1794 C1795 1.400 . S
C1795 C1794 1.400 . S
C1795 C1796 1.398 . S
C1795 C1801 1.491 . S
C1796 H1787 0.950 . S
C1796 C1795 1.398 . S
C1796 C1797 1.391 . S
C1797 H1785 0.950 . S
C1797 C1793 1.393 . S
C1797 C1796 1.391 . S
C1798 H1788 0.950 . S
C1798 C1799 1.386 . S
C1798 C1800 1.391 . S
C1799 C1798 1.386 . S
C1799 C1803 1.393 . S
C1800 H1789 0.950 . S
C1800 C1798 1.391 . S
C1800 C1801 1.400 . S
C1801 C1795 1.491 . S
C1801 C1800 1.400 . S
C1801 C1802 1.398 . S
C1802 H1790 0.950 . S
C1802 C1801 1.398 . S
C1802 C1803 1.391 . S
C1803 H1791 0.950 . S
C1803 C1799 1.393 . S
C1803 C1802 1.391 . S
H1804 C1812 0.950 . S
H1805 C1817 0.950 . S
H1806 C1814 0.950 . S
H1807 C1816 0.950 . S
H1808 C1818 0.950 . S
H1809 C1820 0.950 . S
H1810 C1822 0.950 . S
H1811 C1823 0.950 . S
C1812 H1804 0.950 . S
C1812 C1813 1.386 . S
C1812 C1814 1.391 . S
C1813 C1812 1.386 . S
C1813 C1817 1.393 . S
C1814 H1806 0.950 . S
C1814 C1812 1.391 . S
C1814 C1815 1.400 . S
C1815 C1814 1.400 . S
C1815 C1816 1.398 . S
C1815 C1821 1.491 . S
C1816 H1807 0.950 . S
C1816 C1815 1.398 . S
C1816 C1817 1.391 . S
C1817 H1805 0.950 . S
C1817 C1813 1.393 . S
C1817 C1816 1.391 . S
C1818 H1808 0.950 . S
C1818 C1819 1.386 . S
C1818 C1820 1.391 . S
C1819 C1818 1.386 . S
C1819 C1823 1.393 . S
C1820 H1809 0.950 . S
C1820 C1818 1.391 . S
C1820 C1821 1.400 . S
C1821 C1815 1.491 . S
C1821 C1820 1.400 . S
C1821 C1822 1.398 . S
C1822 H1810 0.950 . S
C1822 C1821 1.398 . S
C1822 C1823 1.391 . S
C1823 H1811 0.950 . S
C1823 C1819 1.393 . S
C1823 C1822 1.391 . S
H1824 C1832 0.950 . S
H1825 C1837 0.950 . S
H1826 C1834 0.950 . S
H1827 C1836 0.950 . S
H1828 C1838 0.950 . S
H1829 C1840 0.950 . S
H1830 C1842 0.950 . S
H1831 C1843 0.950 . S
C1832 H1824 0.950 . S
C1832 C1833 1.386 . S
C1832 C1834 1.391 . S
C1833 C1832 1.386 . S
C1833 C1837 1.393 . S
C1834 H1826 0.950 . S
C1834 C1832 1.391 . S
C1834 C1835 1.400 . S
C1835 C1834 1.400 . S
C1835 C1836 1.398 . S
C1835 C1841 1.491 . S
C1836 H1827 0.950 . S
C1836 C1835 1.398 . S
C1836 C1837 1.391 . S
C1837 H1825 0.950 . S
C1837 C1833 1.393 . S
C1837 C1836 1.391 . S
C1838 H1828 0.950 . S
C1838 C1839 1.386 . S
C1838 C1840 1.391 . S
C1839 C1838 1.386 . S
C1839 C1843 1.393 . S
C1840 H1829 0.950 . S
C1840 C1838 1.391 . S
C1840 C1841 1.400 . S
C1841 C1835 1.491 . S
C1841 C1840 1.400 . S
C1841 C1842 1.398 . S
C1842 H1830 0.950 . S
C1842 C1841 1.398 . S
C1842 C1843 1.391 . S
C1843 H1831 0.950 . S
C1843 C1839 1.393 . S
C1843 C1842 1.391 . S
H1844 C1852 0.950 . S
H1845 C1857 0.950 . S
H1846 C1854 0.950 . S
H1847 C1856 0.950 . S
H1848 C1858 0.950 . S
H1849 C1860 0.950 . S
H1850 C1862 0.950 . S
H1851 C1863 0.950 . S
C1852 H1844 0.950 . S
C1852 C1853 1.386 . S
C1852 C1854 1.391 . S
C1853 C1852 1.386 . S
C1853 C1857 1.393 . S
C1854 H1846 0.950 . S
C1854 C1852 1.391 . S
C1854 C1855 1.400 . S
C1855 C1854 1.400 . S
C1855 C1856 1.398 . S
C1855 C1861 1.491 . S
C1856 H1847 0.950 . S
C1856 C1855 1.398 . S
C1856 C1857 1.391 . S
C1857 H1845 0.950 . S
C1857 C1853 1.393 . S
C1857 C1856 1.391 . S
C1858 H1848 0.950 . S
C1858 C1859 1.386 . S
C1858 C1860 1.391 . S
C1859 C1858 1.386 . S
C1859 C1863 1.393 . S
C1860 H1849 0.950 . S
C1860 C1858 1.391 . S
C1860 C1861 1.400 . S
C1861 C1855 1.491 . S
C1861 C1860 1.400 . S
C1861 C1862 1.398 . S
C1862 H1850 0.950 . S
C1862 C1861 1.398 . S
C1862 C1863 1.391 . S
C1863 H1851 0.950 . S
C1863 C1859 1.393 . S
C1863 C1862 1.391 . S
H1864 C1872 0.950 . S
H1865 C1877 0.950 . S
H1866 C1874 0.950 . S
H1867 C1876 0.950 . S
H1868 C1878 0.950 . S
H1869 C1880 0.950 . S
H1870 C1882 0.950 . S
H1871 C1883 0.950 . S
C1872 H1864 0.950 . S
C1872 C1873 1.386 . S
C1872 C1874 1.391 . S
C1873 C1872 1.386 . S
C1873 C1877 1.393 . S
C1874 H1866 0.950 . S
C1874 C1872 1.391 . S
C1874 C1875 1.400 . S
C1875 C1874 1.400 . S
C1875 C1876 1.398 . S
C1875 C1881 1.491 . S
C1876 H1867 0.950 . S
C1876 C1875 1.398 . S
C1876 C1877 1.391 . S
C1877 H1865 0.950 . S
C1877 C1873 1.393 . S
C1877 C1876 1.391 . S
C1878 H1868 0.950 . S
C1878 C1879 1.386 . S
C1878 C1880 1.391 . S
C1879 C1878 1.386 . S
C1879 C1883 1.393 . S
C1880 H1869 0.950 . S
C1880 C1878 1.391 . S
C1880 C1881 1.400 . S
C1881 C1875 1.491 . S
C1881 C1880 1.400 . S
C1881 C1882 1.398 . S
C1882 H1870 0.950 . S
C1882 C1881 1.398 . S
C1882 C1883 1.391 . S
C1883 H1871 0.950 . S
C1883 C1879 1.393 . S
C1883 C1882 1.391 . S
H1884 C1892 0.950 . S
H1885 C1897 0.950 . S
H1886 C1894 0.950 . S
H1887 C1896 0.950 . S
H1888 C1898 0.950 . S
H1889 C1900 0.950 . S
H1890 C1902 0.950 . S
H1891 C1903 0.950 . S
C1892 H1884 0.950 . S
C1892 C1893 1.386 . S
C1892 C1894 1.391 . S
C1893 C1892 1.386 . S
C1893 C1897 1.393 . S
C1894 H1886 0.950 . S
C1894 C1892 1.391 . S
C1894 C1895 1.400 . S
C1895 C1894 1.400 . S
C1895 C1896 1.398 . S
C1895 C1901 1.491 . S
C1896 H1887 0.950 . S
C1896 C1895 1.398 . S
C1896 C1897 1.391 . S
C1897 H1885 0.950 . S
C1897 C1893 1.393 . S
C1897 C1896 1.391 . S
C1898 H1888 0.950 . S
C1898 C1899 1.386 . S
C1898 C1900 1.391 . S
C1899 C1898 1.386 . S
C1899 C1903 1.393 . S
C1900 H1889 0.950 . S
C1900 C1898 1.391 . S
C1900 C1901 1.400 . S
C1901 C1895 1.491 . S
C1901 C1900 1.400 . S
C1901 C1902 1.398 . S
C1902 H1890 0.950 . S
C1902 C1901 1.398 . S
C1902 C1903 1.391 . S
C1903 H1891 0.950 . S
C1903 C1899 1.393 . S
C1903 C1902 1.391 . S
H1904 C1912 0.950 . S
H1905 C1917 0.950 . S
H1906 C1914 0.950 . S
H1907 C1916 0.950 . S
H1908 C1918 0.950 . S
H1909 C1920 0.950 . S
H1910 C1922 0.950 . S
H1911 C1923 0.950 . S
C1912 H1904 0.950 . S
C1912 C1913 1.386 . S
C1912 C1914 1.391 . S
C1913 C1912 1.386 . S
C1913 C1917 1.393 . S
C1914 H1906 0.950 . S
C1914 C1912 1.391 . S
C1914 C1915 1.400 . S
C1915 C1914 1.400 . S
C1915 C1916 1.398 . S
C1915 C1921 1.491 1_655 S
C1916 H1907 0.950 . S
C1916 C1915 1.398 . S
C1916 C1917 1.391 . S
C1917 H1905 0.950 . S
C1917 C1913 1.393 . S
C1917 C1916 1.391 . S
C1918 H1908 0.950 . S
C1918 C1919 1.386 . S
C1918 C1920 1.391 . S
C1919 C1918 1.386 . S
C1919 C1923 1.393 . S
C1920 H1909 0.950 . S
C1920 C1918 1.391 . S
C1920 C1921 1.400 . S
C1921 C1915 1.491 1_455 S
C1921 C1920 1.400 . S
C1921 C1922 1.398 . S
C1922 H1910 0.950 . S
C1922 C1921 1.398 . S
C1922 C1923 1.391 . S
C1923 H1911 0.950 . S
C1923 C1919 1.393 . S
C1923 C1922 1.391 . S
H1924 C1932 0.950 . S
H1925 C1937 0.950 . S
H1926 C1934 0.950 . S
H1927 C1936 0.950 . S
H1928 C1938 0.950 . S
H1929 C1940 0.950 . S
H1930 C1942 0.950 . S
H1931 C1943 0.950 . S
C1932 H1924 0.950 . S
C1932 C1933 1.386 . S
C1932 C1934 1.391 . S
C1933 C1932 1.386 . S
C1933 C1937 1.393 . S
C1934 H1926 0.950 . S
C1934 C1932 1.391 . S
C1934 C1935 1.400 . S
C1935 C1934 1.400 . S
C1935 C1936 1.398 . S
C1935 C1941 1.491 . S
C1936 H1927 0.950 . S
C1936 C1935 1.398 . S
C1936 C1937 1.391 . S
C1937 H1925 0.950 . S
C1937 C1933 1.393 . S
C1937 C1936 1.391 . S
C1938 H1928 0.950 . S
C1938 C1939 1.386 . S
C1938 C1940 1.391 . S
C1939 C1938 1.386 . S
C1939 C1943 1.393 . S
C1940 H1929 0.950 . S
C1940 C1938 1.391 . S
C1940 C1941 1.400 . S
C1941 C1935 1.491 . S
C1941 C1940 1.400 . S
C1941 C1942 1.398 . S
C1942 H1930 0.950 . S
C1942 C1941 1.398 . S
C1942 C1943 1.391 . S
C1943 H1931 0.950 . S
C1943 C1939 1.393 . S
C1943 C1942 1.391 . S
H1944 C1952 0.950 . S
H1945 C1957 0.950 . S
H1946 C1954 0.950 . S
H1947 C1956 0.950 . S
H1948 C1958 0.950 . S
H1949 C1960 0.950 . S
H1950 C1962 0.950 . S
H1951 C1963 0.950 . S
C1952 H1944 0.950 . S
C1952 C1953 1.386 . S
C1952 C1954 1.391 . S
C1953 C1952 1.386 . S
C1953 C1957 1.393 . S
C1954 H1946 0.950 . S
C1954 C1952 1.391 . S
C1954 C1955 1.400 . S
C1955 C1954 1.400 . S
C1955 C1956 1.398 . S
C1955 C1961 1.491 . S
C1956 H1947 0.950 . S
C1956 C1955 1.398 . S
C1956 C1957 1.391 . S
C1957 H1945 0.950 . S
C1957 C1953 1.393 . S
C1957 C1956 1.391 . S
C1958 H1948 0.950 . S
C1958 C1959 1.386 . S
C1958 C1960 1.391 . S
C1959 C1958 1.386 . S
C1959 C1963 1.393 . S
C1960 H1949 0.950 . S
C1960 C1958 1.391 . S
C1960 C1961 1.400 . S
C1961 C1955 1.491 . S
C1961 C1960 1.400 . S
C1961 C1962 1.398 . S
C1962 H1950 0.950 . S
C1962 C1961 1.398 . S
C1962 C1963 1.391 . S
C1963 H1951 0.950 . S
C1963 C1959 1.393 . S
C1963 C1962 1.391 . S
H1964 C1972 0.950 . S
H1965 C1977 0.950 . S
H1966 C1974 0.950 . S
H1967 C1976 0.950 . S
H1968 C1978 0.950 . S
H1969 C1980 0.950 . S
H1970 C1982 0.950 . S
H1971 C1983 0.950 . S
C1972 H1964 0.950 . S
C1972 C1973 1.386 . S
C1972 C1974 1.391 . S
C1973 C1972 1.386 . S
C1973 C1977 1.393 . S
C1974 H1966 0.950 . S
C1974 C1972 1.391 . S
C1974 C1975 1.400 . S
C1975 C1974 1.400 . S
C1975 C1976 1.398 . S
C1975 C1981 1.491 1_455 S
C1976 H1967 0.950 . S
C1976 C1975 1.398 . S
C1976 C1977 1.391 . S
C1977 H1965 0.950 . S
C1977 C1973 1.393 . S
C1977 C1976 1.391 . S
C1978 H1968 0.950 . S
C1978 C1979 1.386 . S
C1978 C1980 1.391 . S
C1979 C1978 1.386 . S
C1979 C1983 1.393 . S
C1980 H1969 0.950 . S
C1980 C1978 1.391 . S
C1980 C1981 1.400 . S
C1981 C1975 1.491 1_655 S
C1981 C1980 1.400 . S
C1981 C1982 1.398 . S
C1982 H1970 0.950 . S
C1982 C1981 1.398 . S
C1982 C1983 1.391 . S
C1983 H1971 0.950 . S
C1983 C1979 1.393 . S
C1983 C1982 1.391 . S
H1984 C1992 0.950 . S
H1985 C1997 0.950 . S
H1986 C1994 0.950 . S
H1987 C1996 0.951 1_556 S
H1988 C1998 0.950 . S
H1989 C2000 0.950 . S
H1990 C2002 0.949 . S
H1991 C2003 0.950 . S
C1992 H1984 0.950 . S
C1992 C1993 1.386 . S
C1992 C1994 1.391 . S
C1993 C1992 1.386 . S
C1993 C1997 1.393 . S
C1994 H1986 0.950 . S
C1994 C1992 1.391 . S
C1994 C1995 1.400 . S
C1995 C1994 1.400 . S
C1995 C1996 1.398 . S
C1995 C2001 1.491 1_554 S
C1996 H1987 0.951 1_554 S
C1996 C1995 1.398 . S
C1996 C1997 1.390 . S
C1997 H1985 0.950 . S
C1997 C1993 1.393 . S
C1997 C1996 1.390 . S
C1998 H1988 0.950 . S
C1998 C1999 1.386 . S
C1998 C2000 1.391 . S
C1999 C1998 1.386 . S
C1999 C2003 1.393 . S
C2000 H1989 0.950 . S
C2000 C1998 1.391 . S
C2000 C2001 1.400 . S
C2001 C1995 1.491 1_556 S
C2001 C2000 1.400 . S
C2001 C2002 1.399 1_556 S
C2002 H1990 0.949 . S
C2002 C2001 1.399 1_554 S
C2002 C2003 1.391 1_554 S
C2003 H1991 0.950 . S
C2003 C1999 1.393 . S
C2003 C2002 1.391 1_556 S
H2004 C2012 0.950 . S
H2005 C2017 0.950 . S
H2006 C2014 0.950 . S
H2007 C2016 0.950 . S
H2008 C2018 0.950 . S
H2009 C2020 0.950 . S
H2010 C2022 0.950 . S
H2011 C2023 0.950 . S
C2012 H2004 0.950 . S
C2012 C2013 1.386 . S
C2012 C2014 1.391 . S
C2013 C2012 1.386 . S
C2013 C2017 1.393 . S
C2014 H2006 0.950 . S
C2014 C2012 1.391 . S
C2014 C2015 1.400 . S
C2015 C2014 1.400 . S
C2015 C2016 1.398 . S
C2015 C2021 1.491 . S
C2016 H2007 0.950 . S
C2016 C2015 1.398 . S
C2016 C2017 1.391 . S
C2017 H2005 0.950 . S
C2017 C2013 1.393 . S
C2017 C2016 1.391 . S
C2018 H2008 0.950 . S
C2018 C2019 1.386 . S
C2018 C2020 1.391 . S
C2019 C2018 1.386 . S
C2019 C2023 1.393 . S
C2020 H2009 0.950 . S
C2020 C2018 1.391 . S
C2020 C2021 1.400 . S
C2021 C2015 1.491 . S
C2021 C2020 1.400 . S
C2021 C2022 1.398 . S
C2022 H2010 0.950 . S
C2022 C2021 1.398 . S
C2022 C2023 1.391 . S
C2023 H2011 0.950 . S
C2023 C2019 1.393 . S
C2023 C2022 1.391 . S
H2024 C2032 0.950 . S
H2025 C2037 0.950 . S
H2026 C2034 0.950 . S
H2027 C2036 0.950 . S
H2028 C2038 0.950 . S
H2029 C2040 0.950 . S
H2030 C2042 0.950 . S
H2031 C2043 0.950 . S
C2032 H2024 0.950 . S
C2032 C2033 1.386 . S
C2032 C2034 1.391 . S
C2033 C2032 1.386 . S
C2033 C2037 1.393 . S
C2034 H2026 0.950 . S
C2034 C2032 1.391 . S
C2034 C2035 1.400 . S
C2035 C2034 1.400 . S
C2035 C2036 1.398 . S
C2035 C2041 1.491 . S
C2036 H2027 0.950 . S
C2036 C2035 1.398 . S
C2036 C2037 1.391 . S
C2037 H2025 0.950 . S
C2037 C2033 1.393 . S
C2037 C2036 1.391 . S
C2038 H2028 0.950 . S
C2038 C2039 1.386 . S
C2038 C2040 1.391 . S
C2039 C2038 1.386 . S
C2039 C2043 1.393 . S
C2040 H2029 0.950 . S
C2040 C2038 1.391 . S
C2040 C2041 1.400 . S
C2041 C2035 1.491 . S
C2041 C2040 1.400 . S
C2041 C2042 1.398 . S
C2042 H2030 0.950 . S
C2042 C2041 1.398 . S
C2042 C2043 1.391 . S
C2043 H2031 0.950 . S
C2043 C2039 1.393 . S
C2043 C2042 1.391 . S
H2044 C2052 0.950 . S
H2045 C2057 0.950 . S
H2046 C2054 0.950 . S
H2047 C2056 0.950 . S
H2048 C2058 0.950 . S
H2049 C2060 0.950 . S
H2050 C2062 0.950 . S
H2051 C2063 0.950 . S
C2052 H2044 0.950 . S
C2052 C2053 1.386 . S
C2052 C2054 1.391 . S
C2053 C2052 1.386 . S
C2053 C2057 1.393 . S
C2054 H2046 0.950 . S
C2054 C2052 1.391 . S
C2054 C2055 1.400 . S
C2055 C2054 1.400 . S
C2055 C2056 1.398 . S
C2055 C2061 1.491 . S
C2056 H2047 0.950 . S
C2056 C2055 1.398 . S
C2056 C2057 1.391 . S
C2057 H2045 0.950 . S
C2057 C2053 1.393 . S
C2057 C2056 1.391 . S
C2058 H2048 0.950 . S
C2058 C2059 1.386 . S
C2058 C2060 1.391 . S
C2059 C2058 1.386 . S
C2059 C2063 1.393 . S
C2060 H2049 0.950 . S
C2060 C2058 1.391 . S
C2060 C2061 1.400 . S
C2061 C2055 1.491 . S
C2061 C2060 1.400 . S
C2061 C2062 1.398 . S
C2062 H2050 0.950 . S
C2062 C2061 1.398 . S
C2062 C2063 1.391 . S
C2063 H2051 0.950 . S
C2063 C2059 1.393 . S
C2063 C2062 1.391 . S
H2064 C2072 0.950 . S
H2065 C2077 0.950 1_556 S
H2066 C2074 0.950 . S
H2067 C2076 0.950 . S
H2068 C2078 0.950 . S
H2069 C2080 0.950 . S
H2070 C2082 0.950 . S
H2071 C2083 0.950 1_554 S
C2072 H2064 0.950 . S
C2072 C2073 1.386 . S
C2072 C2074 1.391 . S
C2073 C2072 1.386 . S
C2073 C2077 1.393 . S
C2074 H2066 0.950 . S
C2074 C2072 1.391 . S
C2074 C2075 1.400 . S
C2075 C2074 1.400 . S
C2075 C2076 1.398 1_554 S
C2075 C2081 1.491 1_554 S
C2076 H2067 0.950 . S
C2076 C2075 1.398 1_556 S
C2076 C2077 1.391 1_556 S
C2077 H2065 0.950 1_554 S
C2077 C2073 1.393 . S
C2077 C2076 1.391 1_554 S
C2078 H2068 0.950 . S
C2078 C2079 1.386 . S
C2078 C2080 1.391 . S
C2079 C2078 1.386 . S
C2079 C2083 1.393 . S
C2080 H2069 0.950 . S
C2080 C2078 1.391 . S
C2080 C2081 1.400 . S
C2081 C2075 1.491 1_556 S
C2081 C2080 1.400 . S
C2081 C2082 1.398 1_556 S
C2082 H2070 0.950 . S
C2082 C2081 1.398 1_554 S
C2082 C2083 1.391 1_554 S
C2083 H2071 0.950 1_556 S
C2083 C2079 1.393 . S
C2083 C2082 1.391 1_556 S
H2084 C2092 0.950 . S
H2085 C2097 0.950 . S
H2086 C2094 0.950 . S
H2087 C2096 0.950 . S
H2088 C2098 0.950 . S
H2089 C2100 0.950 . S
H2090 C2102 0.950 . S
H2091 C2103 0.950 . S
C2092 H2084 0.950 . S
C2092 C2093 1.386 . S
C2092 C2094 1.391 . S
C2093 C2092 1.386 . S
C2093 C2097 1.393 . S
C2094 H2086 0.950 . S
C2094 C2092 1.391 . S
C2094 C2095 1.400 . S
C2095 C2094 1.400 . S
C2095 C2096 1.398 . S
C2095 C2101 1.491 . S
C2096 H2087 0.950 . S
C2096 C2095 1.398 . S
C2096 C2097 1.391 . S
C2097 H2085 0.950 . S
C2097 C2093 1.393 . S
C2097 C2096 1.391 . S
C2098 H2088 0.950 . S
C2098 C2099 1.386 . S
C2098 C2100 1.391 . S
C2099 C2098 1.386 . S
C2099 C2103 1.393 . S
C2100 H2089 0.950 . S
C2100 C2098 1.391 . S
C2100 C2101 1.400 . S
C2101 C2095 1.491 . S
C2101 C2100 1.400 . S
C2101 C2102 1.398 . S
C2102 H2090 0.950 . S
C2102 C2101 1.398 . S
C2102 C2103 1.391 . S
C2103 H2091 0.950 . S
C2103 C2099 1.393 . S
C2103 C2102 1.391 . S
H2104 C2112 0.950 . S
H2105 C2117 0.950 . S
H2106 C2114 0.950 . S
H2107 C2116 0.950 . S
H2108 C2118 0.950 . S
H2109 C2120 0.950 . S
H2110 C2122 0.950 . S
H2111 C2123 0.950 . S
C2112 H2104 0.950 . S
C2112 C2113 1.386 . S
C2112 C2114 1.391 . S
C2113 C2112 1.386 . S
C2113 C2117 1.393 . S
C2114 H2106 0.950 . S
C2114 C2112 1.391 . S
C2114 C2115 1.400 . S
C2115 C2114 1.400 . S
C2115 C2116 1.398 . S
C2115 C2121 1.491 . S
C2116 H2107 0.950 . S
C2116 C2115 1.398 . S
C2116 C2117 1.391 . S
C2117 H2105 0.950 . S
C2117 C2113 1.393 . S
C2117 C2116 1.391 . S
C2118 H2108 0.950 . S
C2118 C2119 1.386 . S
C2118 C2120 1.391 . S
C2119 C2118 1.386 . S
C2119 C2123 1.393 . S
C2120 H2109 0.950 . S
C2120 C2118 1.391 . S
C2120 C2121 1.400 . S
C2121 C2115 1.491 . S
C2121 C2120 1.400 . S
C2121 C2122 1.398 . S
C2122 H2110 0.950 . S
C2122 C2121 1.398 . S
C2122 C2123 1.391 . S
C2123 H2111 0.950 . S
C2123 C2119 1.393 . S
C2123 C2122 1.391 . S
H2124 C2132 0.950 . S
H2125 C2137 0.950 . S
H2126 C2134 0.950 . S
H2127 C2136 0.950 . S
H2128 C2138 0.950 . S
H2129 C2140 0.950 . S
H2130 C2142 0.950 . S
H2131 C2143 0.950 . S
C2132 H2124 0.950 . S
C2132 C2133 1.386 . S
C2132 C2134 1.391 . S
C2133 C2132 1.386 . S
C2133 C2137 1.393 . S
C2134 H2126 0.950 . S
C2134 C2132 1.391 . S
C2134 C2135 1.400 . S
C2135 C2134 1.400 . S
C2135 C2136 1.398 . S
C2135 C2141 1.491 . S
C2136 H2127 0.950 . S
C2136 C2135 1.398 . S
C2136 C2137 1.391 . S
C2137 H2125 0.950 . S
C2137 C2133 1.393 . S
C2137 C2136 1.391 . S
C2138 H2128 0.950 . S
C2138 C2139 1.386 . S
C2138 C2140 1.391 . S
C2139 C2138 1.386 . S
C2139 C2143 1.393 . S
C2140 H2129 0.950 . S
C2140 C2138 1.391 . S
C2140 C2141 1.400 . S
C2141 C2135 1.491 . S
C2141 C2140 1.400 . S
C2141 C2142 1.398 . S
C2142 H2130 0.950 . S
C2142 C2141 1.398 . S
C2142 C2143 1.391 . S
C2143 H2131 0.950 . S
C2143 C2139 1.393 . S
C2143 C2142 1.391 . S
H2144 C2152 0.950 . S
H2145 C2157 0.950 . S
H2146 C2154 0.950 . S
H2147 C2156 0.950 . S
H2148 C2158 0.950 . S
H2149 C2160 0.950 . S
H2150 C2162 0.950 . S
H2151 C2163 0.950 . S
C2152 H2144 0.950 . S
C2152 C2153 1.386 . S
C2152 C2154 1.391 . S
C2153 C2152 1.386 . S
C2153 C2157 1.393 . S
C2154 H2146 0.950 . S
C2154 C2152 1.391 . S
C2154 C2155 1.400 . S
C2155 C2154 1.400 . S
C2155 C2156 1.398 . S
C2155 C2161 1.491 1_565 S
C2156 H2147 0.950 . S
C2156 C2155 1.398 . S
C2156 C2157 1.391 . S
C2157 H2145 0.950 . S
C2157 C2153 1.393 . S
C2157 C2156 1.391 . S
C2158 H2148 0.950 . S
C2158 C2159 1.386 . S
C2158 C2160 1.391 . S
C2159 C2158 1.386 . S
C2159 C2163 1.393 . S
C2160 H2149 0.950 . S
C2160 C2158 1.391 . S
C2160 C2161 1.400 . S
C2161 C2155 1.491 1_545 S
C2161 C2160 1.400 . S
C2161 C2162 1.398 . S
C2162 H2150 0.950 . S
C2162 C2161 1.398 . S
C2162 C2163 1.391 . S
C2163 H2151 0.950 . S
C2163 C2159 1.393 . S
C2163 C2162 1.391 . S
H2164 C2172 0.950 . S
H2165 C2177 0.950 . S
H2166 C2174 0.950 . S
H2167 C2176 0.950 . S
H2168 C2178 0.950 . S
H2169 C2180 0.950 . S
H2170 C2182 0.950 . S
H2171 C2183 0.950 . S
C2172 H2164 0.950 . S
C2172 C2173 1.386 . S
C2172 C2174 1.391 . S
C2173 C2172 1.386 . S
C2173 C2177 1.393 . S
C2174 H2166 0.950 . S
C2174 C2172 1.391 . S
C2174 C2175 1.400 . S
C2175 C2174 1.400 . S
C2175 C2176 1.398 . S
C2175 C2181 1.491 . S
C2176 H2167 0.950 . S
C2176 C2175 1.398 . S
C2176 C2177 1.391 . S
C2177 H2165 0.950 . S
C2177 C2173 1.393 . S
C2177 C2176 1.391 . S
C2178 H2168 0.950 . S
C2178 C2179 1.386 . S
C2178 C2180 1.391 . S
C2179 C2178 1.386 . S
C2179 C2183 1.393 . S
C2180 H2169 0.950 . S
C2180 C2178 1.391 . S
C2180 C2181 1.400 . S
C2181 C2175 1.491 . S
C2181 C2180 1.400 . S
C2181 C2182 1.398 . S
C2182 H2170 0.950 . S
C2182 C2181 1.398 . S
C2182 C2183 1.391 . S
C2183 H2171 0.950 . S
C2183 C2179 1.393 . S
C2183 C2182 1.391 . S
H2184 C2192 0.950 . S
H2185 C2197 0.950 . S
H2186 C2194 0.950 . S
H2187 C2196 0.950 . S
H2188 C2198 0.950 . S
H2189 C2200 0.950 . S
H2190 C2202 0.950 . S
H2191 C2203 0.950 . S
C2192 H2184 0.950 . S
C2192 C2193 1.386 . S
C2192 C2194 1.391 1_554 S
C2193 C2192 1.386 . S
C2193 C2197 1.393 . S
C2194 H2186 0.950 . S
C2194 C2192 1.391 1_556 S
C2194 C2195 1.400 1_556 S
C2195 C2194 1.400 1_554 S
C2195 C2196 1.398 . S
C2195 C2201 1.491 1_564 S
C2196 H2187 0.950 . S
C2196 C2195 1.398 . S
C2196 C2197 1.391 . S
C2197 H2185 0.950 . S
C2197 C2193 1.393 . S
C2197 C2196 1.391 . S
C2198 H2188 0.950 . S
C2198 C2199 1.386 . S
C2198 C2200 1.391 1_556 S
C2199 C2198 1.386 . S
C2199 C2203 1.393 . S
C2200 H2189 0.950 . S
C2200 C2198 1.391 1_554 S
C2200 C2201 1.400 1_554 S
C2201 C2195 1.491 1_546 S
C2201 C2200 1.400 1_556 S
C2201 C2202 1.398 . S
C2202 H2190 0.950 . S
C2202 C2201 1.398 . S
C2202 C2203 1.391 . S
C2203 H2191 0.950 . S
C2203 C2199 1.393 . S
C2203 C2202 1.391 . S
H2204 C2212 0.950 . S
H2205 C2217 0.950 . S
H2206 C2214 0.950 . S
H2207 C2216 0.950 . S
H2208 C2218 0.950 . S
H2209 C2220 0.950 . S
H2210 C2222 0.950 . S
H2211 C2223 0.950 . S
C2212 H2204 0.950 . S
C2212 C2213 1.386 . S
C2212 C2214 1.391 . S
C2213 C2212 1.386 . S
C2213 C2217 1.393 . S
C2214 H2206 0.950 . S
C2214 C2212 1.391 . S
C2214 C2215 1.400 . S
C2215 C2214 1.400 . S
C2215 C2216 1.398 . S
C2215 C2221 1.491 . S
C2216 H2207 0.950 . S
C2216 C2215 1.398 . S
C2216 C2217 1.391 . S
C2217 H2205 0.950 . S
C2217 C2213 1.393 . S
C2217 C2216 1.391 . S
C2218 H2208 0.950 . S
C2218 C2219 1.386 . S
C2218 C2220 1.391 . S
C2219 C2218 1.386 . S
C2219 C2223 1.393 . S
C2220 H2209 0.950 . S
C2220 C2218 1.391 . S
C2220 C2221 1.400 . S
C2221 C2215 1.491 . S
C2221 C2220 1.400 . S
C2221 C2222 1.398 . S
C2222 H2210 0.950 . S
C2222 C2221 1.398 . S
C2222 C2223 1.391 . S
C2223 H2211 0.950 . S
C2223 C2219 1.393 . S
C2223 C2222 1.391 . S
H2224 C2232 0.950 . S
H2225 C2237 0.950 . S
H2226 C2234 0.950 . S
H2227 C2236 0.950 . S
H2228 C2238 0.950 . S
H2229 C2240 0.950 . S
H2230 C2242 0.950 . S
H2231 C2243 0.950 . S
C2232 H2224 0.950 . S
C2232 C2233 1.386 . S
C2232 C2234 1.391 . S
C2233 C2232 1.386 . S
C2233 C2237 1.393 . S
C2234 H2226 0.950 . S
C2234 C2232 1.391 . S
C2234 C2235 1.400 . S
C2235 C2234 1.400 . S
C2235 C2236 1.398 . S
C2235 C2241 1.491 1_565 S
C2236 H2227 0.950 . S
C2236 C2235 1.398 . S
C2236 C2237 1.391 . S
C2237 H2225 0.950 . S
C2237 C2233 1.393 . S
C2237 C2236 1.391 . S
C2238 H2228 0.950 . S
C2238 C2239 1.386 . S
C2238 C2240 1.391 . S
C2239 C2238 1.386 . S
C2239 C2243 1.393 . S
C2240 H2229 0.950 . S
C2240 C2238 1.391 . S
C2240 C2241 1.400 . S
C2241 C2235 1.491 1_545 S
C2241 C2240 1.400 . S
C2241 C2242 1.398 . S
C2242 H2230 0.950 . S
C2242 C2241 1.398 . S
C2242 C2243 1.391 . S
C2243 H2231 0.950 . S
C2243 C2239 1.393 . S
C2243 C2242 1.391 . S
H2244 C2252 0.950 . S
H2245 C2257 0.950 . S
H2246 C2254 0.950 . S
H2247 C2256 0.950 . S
H2248 C2258 0.950 . S
H2249 C2260 0.950 . S
H2250 C2262 0.950 . S
H2251 C2263 0.950 . S
C2252 H2244 0.950 . S
C2252 C2253 1.386 . S
C2252 C2254 1.391 . S
C2253 C2252 1.386 . S
C2253 C2257 1.393 . S
C2254 H2246 0.950 . S
C2254 C2252 1.391 . S
C2254 C2255 1.400 . S
C2255 C2254 1.400 . S
C2255 C2256 1.398 . S
C2255 C2261 1.491 . S
C2256 H2247 0.950 . S
C2256 C2255 1.398 . S
C2256 C2257 1.391 . S
C2257 H2245 0.950 . S
C2257 C2253 1.393 . S
C2257 C2256 1.391 . S
C2258 H2248 0.950 . S
C2258 C2259 1.386 . S
C2258 C2260 1.391 . S
C2259 C2258 1.386 . S
C2259 C2263 1.393 . S
C2260 H2249 0.950 . S
C2260 C2258 1.391 . S
C2260 C2261 1.400 . S
C2261 C2255 1.491 . S
C2261 C2260 1.400 . S
C2261 C2262 1.398 . S
C2262 H2250 0.950 . S
C2262 C2261 1.398 . S
C2262 C2263 1.391 . S
C2263 H2251 0.950 . S
C2263 C2259 1.393 . S
C2263 C2262 1.391 . S
H2264 C2272 0.950 . S
H2265 C2277 0.950 . S
H2266 C2274 0.950 . S
H2267 C2276 0.992 . S
H2268 C2278 0.950 1_556 S
H2269 C2280 0.950 . S
H2270 C2282 0.950 . S
H2271 C2283 0.950 . S
C2272 H2264 0.950 . S
C2272 C2273 1.386 . S
C2272 C2274 1.391 1_556 S
C2273 C2272 1.386 . S
C2273 C2277 1.393 . S
C2274 H2266 0.950 . S
C2274 C2272 1.391 1_554 S
C2274 C2275 1.400 1_554 S
C2275 C2274 1.400 1_556 S
C2275 C2276 1.398 . S
C2275 C2281 1.491 1_546 S
C2276 H2267 0.992 . S
C2276 C2275 1.398 . S
C2276 C2277 1.391 . S
C2277 H2265 0.950 . S
C2277 C2273 1.393 . S
C2277 C2276 1.391 . S
C2278 H2268 0.950 1_554 S
C2278 C2279 1.386 . S
C2278 C2280 1.391 1_554 S
C2279 C2278 1.386 . S
C2279 C2283 1.393 . S
C2280 H2269 0.950 . S
C2280 C2278 1.391 1_556 S
C2280 C2281 1.400 1_556 S
C2281 C2275 1.491 1_564 S
C2281 C2280 1.400 1_554 S
C2281 C2282 1.398 . S
C2282 H2270 0.950 . S
C2282 C2281 1.398 . S
C2282 C2283 1.391 . S
C2283 H2271 0.950 . S
C2283 C2279 1.393 . S
C2283 C2282 1.391 . S
H2284 C2292 0.950 . S
H2285 C2297 0.950 . S
H2286 C2294 0.950 . S
H2287 C2296 0.950 . S
H2288 C2298 0.950 . S
H2289 C2300 0.950 . S
H2290 C2302 0.950 . S
H2291 C2303 0.950 . S
C2292 H2284 0.950 . S
C2292 C2293 1.386 . S
C2292 C2294 1.391 . S
C2293 C2292 1.386 . S
C2293 C2297 1.393 . S
C2294 H2286 0.950 . S
C2294 C2292 1.391 . S
C2294 C2295 1.400 . S
C2295 C2294 1.400 . S
C2295 C2296 1.398 . S
C2295 C2301 1.491 . S
C2296 H2287 0.950 . S
C2296 C2295 1.398 . S
C2296 C2297 1.391 . S
C2297 H2285 0.950 . S
C2297 C2293 1.393 . S
C2297 C2296 1.391 . S
C2298 H2288 0.950 . S
C2298 C2299 1.386 . S
C2298 C2300 1.391 . S
C2299 C2298 1.386 . S
C2299 C2303 1.393 . S
C2300 H2289 0.950 . S
C2300 C2298 1.391 . S
C2300 C2301 1.400 . S
C2301 C2295 1.491 . S
C2301 C2300 1.400 . S
C2301 C2302 1.398 . S
C2302 H2290 0.950 . S
C2302 C2301 1.398 . S
C2302 C2303 1.391 . S
C2303 H2291 0.950 . S
C2303 C2299 1.393 . S
C2303 C2302 1.391 . S
C1353 C69 1.555 . S
C1359 C58 1.555 . S
C1373 C142 1.556 . S
C1379 C153 1.556 . S
C1393 C237 1.556 . S
C1399 C226 1.556 . S
C1413 C321 1.567 . S
C1419 C310 1.567 . S
C1433 C405 1.531 . S
C1439 C394 1.531 . S
C1453 C489 1.520 . S
C1459 C478 1.520 . S
C1473 C562 1.550 . S
C1479 C573 1.550 . S
C1493 C657 1.575 . S
C1499 C646 1.575 . S
C1513 C741 1.576 . S
C1519 C730 1.576 . S
C1533 C814 1.564 . S
C1539 C825 1.564 . S
C1553 C909 1.535 . S
C1559 C898 1.535 . S
C1573 C982 1.558 . S
C1579 C993 1.558 . S
C1593 C1066 1.517 . S
C1599 C1077 1.517 . S
C1613 C1150 1.544 . S
C1619 C1161 1.544 . S
C1633 C1245 1.546 . S
C1639 C1234 1.546 . S
C1653 C1329 1.572 . S
C1659 C1318 1.572 . S
C1673 C63 1.698 . S
C1679 C991 1.758 . S
C1693 C140 1.758 . S
C1699 C1327 1.747 . S
C1713 C231 1.743 . S
C1719 C830 1.717 . S
C1733 C315 1.736 . S
C1739 C1166 1.723 . S
C1753 C399 1.704 . S
C1759 C1159 1.762 . S
C1773 C998 1.713 . S
C1779 C476 1.752 . S
C1793 C560 1.769 . S
C1799 C1334 1.712 . S
C1813 C651 1.725 . S
C1819 C823 1.784 . S
C1833 C308 1.766 . S
C1839 C739 1.758 . S
C1853 C147 1.694 . S
C1859 C914 1.717 . S
C1873 C1082 1.699 . S
C1879 C483 1.710 . S
C1893 C644 1.760 . S
C1899 C1243 1.748 . S
C1913 C746 1.725 . S
C1919 C392 1.760 . S
C1933 C567 1.701 . S
C1939 C907 1.771 . S
C1953 C224 1.774 . S
C1959 C1250 1.702 . S
C1973 C56 1.746 . S
C1979 C1075 1.760 . S
C1993 C74 1.660 . S
C1999 C410 1.657 . S
C2013 C151 1.636 . S
C2019 C487 1.640 . S
C2033 C242 1.661 . S
C2039 C571 1.644 . S
C2053 C326 1.661 . S
C2059 C662 1.658 . S
C2073 C1071 1.628 . S
C2079 C728 1.613 . S
C2093 C1155 1.688 . S
C2099 C812 1.668 . S
C2113 C903 1.655 . S
C2119 C1232 1.640 . S
C2133 C1316 1.621 . S
C2139 C987 1.639 . S
C2153 C158 1.630 . S
C2159 C655 1.614 . S
C2173 C403 1.640 . S
C2179 C235 1.634 . S
C2193 C494 1.669 . S
C2199 C319 1.649 . S
C2213 C67 1.624 . S
C2219 C578 1.644 . S
C2233 C1323 1.669 . S
C2239 C819 1.672 . S
C2253 C1064 1.641 . S
C2259 C896 1.632 . S
C2273 C1148 1.621 . S
C2279 C980 1.630 . S
C2293 C1239 1.648 . S
C2299 C735 1.648 . S
