# Generated by pormake.
# Topology vmc, (5)-cn, num edge types: 1
# Building blocks:
#     Node 0, Type 0, BuildingBlock: XOMCOT_clean_sbu_0, # of connection points: 5
#     Node 1, Type 0, BuildingBlock: XOMCOT_clean_sbu_0, # of connection points: 5
#     Node 2, Type 0, BuildingBlock: XOMCOT_clean_sbu_0, # of connection points: 5
#     Node 3, Type 0, BuildingBlock: XOMCOT_clean_sbu_0, # of connection points: 5
#     Node 4, Type 0, BuildingBlock: XOMCOT_clean_sbu_0, # of connection points: 5
#     Node 5, Type 0, BuildingBlock: XOMCOT_clean_sbu_0, # of connection points: 5
#     Node 6, Type 0, BuildingBlock: XOMCOT_clean_sbu_0, # of connection points: 5
#     Node 7, Type 0, BuildingBlock: XOMCOT_clean_sbu_0, # of connection points: 5
#     Edge 8, Type (0, 0), BuildingBlock: UVAHIK_clean_linker_0, # of connection points: 2
#     Edge 9, Type (0, 0), BuildingBlock: UVAHIK_clean_linker_0, # of connection points: 2
#     Edge 10, Type (0, 0), BuildingBlock: UVAHIK_clean_linker_0, # of connection points: 2
#     Edge 11, Type (0, 0), BuildingBlock: UVAHIK_clean_linker_0, # of connection points: 2
#     Edge 12, Type (0, 0), BuildingBlock: UVAHIK_clean_linker_0, # of connection points: 2
#     Edge 13, Type (0, 0), BuildingBlock: UVAHIK_clean_linker_0, # of connection points: 2
#     Edge 14, Type (0, 0), BuildingBlock: UVAHIK_clean_linker_0, # of connection points: 2
#     Edge 15, Type (0, 0), BuildingBlock: UVAHIK_clean_linker_0, # of connection points: 2
#     Edge 16, Type (0, 0), BuildingBlock: UVAHIK_clean_linker_0, # of connection points: 2
#     Edge 17, Type (0, 0), BuildingBlock: UVAHIK_clean_linker_0, # of connection points: 2
#     Edge 18, Type (0, 0), BuildingBlock: UVAHIK_clean_linker_0, # of connection points: 2
#     Edge 19, Type (0, 0), BuildingBlock: UVAHIK_clean_linker_0, # of connection points: 2
#     Edge 20, Type (0, 0), BuildingBlock: UVAHIK_clean_linker_0, # of connection points: 2
#     Edge 21, Type (0, 0), BuildingBlock: UVAHIK_clean_linker_0, # of connection points: 2
#     Edge 22, Type (0, 0), BuildingBlock: UVAHIK_clean_linker_0, # of connection points: 2
#     Edge 23, Type (0, 0), BuildingBlock: UVAHIK_clean_linker_0, # of connection points: 2
#     Edge 24, Type (0, 0), BuildingBlock: UVAHIK_clean_linker_0, # of connection points: 2
#     Edge 25, Type (0, 0), BuildingBlock: UVAHIK_clean_linker_0, # of connection points: 2
#     Edge 26, Type (0, 0), BuildingBlock: UVAHIK_clean_linker_0, # of connection points: 2
#     Edge 27, Type (0, 0), BuildingBlock: UVAHIK_clean_linker_0, # of connection points: 2
# Relax obj value: 0.326
# Max RMSD: 0.193
# Mean RMSD: 0.193
data_MOF--net-vmc--node1-XOMCOT_clean_sbu_0--edge1-UVAHIK_clean_linker_0
_symmetry_space_group_name_H-M    P1
_symmetry_Int_Tables_number       1
_symmetry_cell_setting            triclinic
loop_
_symmetry_equiv_pos_as_xyz
'x, y, z'
_cell_length_a     36.342919
_cell_length_b     60.235485
_cell_length_c     36.928016
_cell_angle_alpha  90.074316
_cell_angle_beta   91.480003
_cell_angle_gamma 89.987835
loop_
_atom_site_label
_atom_site_type_symbol
_atom_site_fract_x
_atom_site_fract_y
_atom_site_fract_z
_atom_type_partial_charge
Co0 Co 0.2616 0.45089 0.06919 0.0
C1 C 0.2226 0.47037 1.00574 0.0
C2 C 0.20477 0.48551 0.05459 0.0
C3 C 0.18958 0.497 0.02549 0.0
N4 N 0.22497 0.46842 0.04223 0.0
N5 N 0.20119 0.48754 0.99473 0.0
H6 H 0.23851 0.46055 0.98744 0.0
H7 H 0.20354 0.4906 0.08259 0.0
C8 C 0.20378 0.45516 0.12782 0.0
O9 O 0.17622 0.44992 0.10573 0.0
N10 N 0.29887 0.43401 0.09507 0.0
C11 C 0.31475 0.41513 0.08366 0.0
C12 C 0.34228 0.40935 0.10805 0.0
C13 C 0.31731 0.43975 0.12578 0.0
N14 N 0.34394 0.42487 0.13442 0.0
C15 C 0.23384 0.41563 0.02415 0.0
C16 C 0.22056 0.38649 0.08003 0.0
C17 C 0.22141 0.37823 0.04451 0.0
C18 C 0.22635 0.39339 1.0163 0.0
C19 C 0.22773 0.40899 0.08671 0.0
N20 N 0.23548 0.42317 0.05901 0.0
H21 H 0.24185 0.42608 1.00223 0.0
H22 H 0.23101 0.41429 0.11452 0.0
H23 H 0.30752 0.40651 0.05877 0.0
H24 H 0.31184 0.45471 0.14098 0.0
O25 O 0.29394 0.45167 0.02824 0.0
O26 O 0.29253 0.47664 0.07241 0.0
O27 O 0.23663 0.45584 0.11652 0.0
C28 C 0.30766 0.46962 0.04303 0.0
H29 H 0.17369 0.51216 0.02695 0.0
H30 H 0.3607 0.39533 0.10571 0.0
H31 H 0.21749 0.37541 0.10283 0.0
H32 H 0.22681 0.3879 0.98838 0.0
Co33 Co 0.71834 0.45286 0.46325 0.0
C34 C 0.76131 0.47289 0.52464 0.0
C35 C 0.76457 0.49204 0.47608 0.0
C36 C 0.7792 0.50437 0.50439 0.0
N37 N 0.75364 0.4721 0.48855 0.0
N38 N 0.777 0.49231 0.53494 0.0
H39 H 0.75193 0.46086 0.54384 0.0
H40 H 0.75924 0.49802 0.44884 0.0
C41 C 0.7777 0.45932 0.40719 0.0
O42 O 0.80416 0.46079 0.43196 0.0
N43 N 0.68226 0.43445 0.43855 0.0
C44 C 0.667 0.41566 0.45101 0.0
C45 C 0.63909 0.40932 0.42737 0.0
C46 C 0.66323 0.43948 0.40787 0.0
N47 N 0.63661 0.42439 0.40041 0.0
C48 C 0.74127 0.41848 0.51223 0.0
C49 C 0.76474 0.38939 0.45975 0.0
C50 C 0.7587 0.38122 0.49468 0.0
C51 C 0.74867 0.39643 0.52145 0.0
C52 C 0.75763 0.41174 0.45174 0.0
N53 N 0.74484 0.4259 0.47756 0.0
H54 H 0.7288 0.42875 0.53234 0.0
H55 H 0.75869 0.41676 0.4238 0.0
H56 H 0.6744 0.40765 0.47633 0.0
H57 H 0.66801 0.45429 0.3921 0.0
O58 O 0.68511 0.45551 0.50328 0.0
O59 O 0.68662 0.47809 0.456 0.0
O60 O 0.74453 0.45564 0.41598 0.0
C61 C 0.67114 0.47248 0.48593 0.0
H62 H 0.78837 0.52143 0.50303 0.0
H63 H 0.6207 0.3954 0.43088 0.0
H64 H 0.7719 0.37832 0.43792 0.0
H65 H 0.74407 0.39107 0.54894 0.0
Co66 Co 0.71881 0.56814 0.96398 0.0
C67 C 0.76233 0.54859 0.02528 0.0
C68 C 0.76665 0.52963 0.97656 0.0
C69 C 0.78152 0.51742 1.00485 0.0
N70 N 0.75491 0.54939 0.98913 0.0
N71 N 0.77865 0.52936 0.0355 0.0
H72 H 0.7522 0.5604 0.04453 0.0
H73 H 0.76162 0.52359 0.94929 0.0
C74 C 0.77746 0.56199 0.90711 0.0
O75 O 0.80438 0.56125 0.93149 0.0
N76 N 0.6819 0.58606 0.9395 0.0
C77 C 0.66662 0.60491 0.9518 0.0
C78 C 0.63788 0.61072 0.92879 0.0
C79 C 0.66206 0.58047 0.90954 0.0
N80 N 0.6349 0.59527 0.90239 0.0
C81 C 0.7423 0.60303 1.01198 0.0
C82 C 0.76402 0.63187 0.95852 0.0
C83 C 0.75896 0.64023 0.99354 0.0
C84 C 0.74974 0.62516 0.02075 0.0
C85 C 0.75685 0.60948 0.95095 0.0
N86 N 0.745 0.59541 0.97729 0.0
H87 H 0.73057 0.59282 0.03255 0.0
H88 H 0.75712 0.60431 0.92302 0.0
H89 H 0.67455 0.61329 0.97668 0.0
H90 H 0.66666 0.56548 0.89412 0.0
O91 O 0.68632 0.56564 1.00461 0.0
O92 O 0.6876 0.54263 0.95776 0.0
O93 O 0.74429 0.56515 0.91635 0.0
C94 C 0.67248 0.5484 0.98782 0.0
H95 H 0.79128 0.50047 1.0034 0.0
H96 H 0.61931 0.62455 0.93242 0.0
H97 H 0.77047 0.64284 0.93637 0.0
H98 H 0.74587 0.63067 0.04832 0.0
Co99 Co 0.2606 0.56936 0.56887 0.0
C100 C 0.22022 0.55116 0.50479 0.0
C101 C 0.19989 0.53729 0.55363 0.0
C102 C 0.18307 0.52664 0.52452 0.0
N103 N 0.22281 0.55304 0.54131 0.0
N104 N 0.19595 0.53541 0.49377 0.0
H105 H 0.23807 0.55969 0.48648 0.0
H106 H 0.19729 0.53258 0.58164 0.0
C107 C 0.20378 0.5664 0.6287 0.0
O108 O 0.17726 0.5753 0.60869 0.0
N109 N 0.29889 0.58507 0.59542 0.0
C110 C 0.3162 0.60354 0.58438 0.0
C111 C 0.34338 0.60881 0.60947 0.0
C112 C 0.31611 0.57905 0.62665 0.0
N113 N 0.34335 0.59339 0.63594 0.0
C114 C 0.2321 0.60532 0.52596 0.0
C115 C 0.22378 0.63447 0.58302 0.0
C116 C 0.22262 0.64283 0.54756 0.0
C117 C 0.22518 0.62771 0.51884 0.0
C118 C 0.23045 0.61187 0.58897 0.0
N119 N 0.23564 0.59765 0.56063 0.0
H120 H 0.23788 0.5947 0.50343 0.0
H121 H 0.23522 0.60636 0.6165 0.0
H122 H 0.30994 0.6123 0.55942 0.0
H123 H 0.30914 0.56438 0.64191 0.0
O124 O 0.29245 0.56905 0.52755 0.0
O125 O 0.29049 0.54313 0.57008 0.0
O126 O 0.23578 0.56362 0.61603 0.0
C127 C 0.30568 0.55063 0.54108 0.0
H128 H 0.16403 0.51288 0.52598 0.0
H129 H 0.36258 0.62248 0.60769 0.0
H130 H 0.2226 0.64551 0.60613 0.0
H131 H 0.22406 0.63331 0.49098 0.0
Co132 Co 0.7624 0.95169 0.06475 0.0
C133 C 0.72331 0.96971 0.99983 0.0
C134 C 0.69875 0.98154 0.04815 0.0
C135 C 0.68186 0.9918 0.01879 0.0
N136 N 0.7244 0.96727 0.0363 0.0
N137 N 0.69746 0.98444 0.98825 0.0
H138 H 0.74287 0.96204 0.98223 0.0
H139 H 0.69395 0.98553 0.07611 0.0
C140 C 0.70507 0.95387 0.12464 0.0
O141 O 0.67893 0.94412 0.1052 0.0
N142 N 0.80088 0.93671 0.09213 0.0
C143 C 0.81892 0.91831 0.08178 0.0
C144 C 0.84628 0.91379 0.10705 0.0
C145 C 0.81789 0.94345 0.12309 0.0
N146 N 0.84566 0.92963 0.1329 0.0
C147 C 0.73603 0.91528 0.02156 0.0
C148 C 0.72755 0.88613 0.07851 0.0
C149 C 0.72724 0.8777 0.04307 0.0
C150 C 0.73008 0.89277 1.01437 0.0
C151 C 0.73359 0.90879 0.08454 0.0
N152 N 0.73875 0.92302 0.05628 0.0
H153 H 0.74159 0.92605 0.99915 0.0
H154 H 0.73777 0.9144 0.11212 0.0
H155 H 0.81309 0.90913 0.0571 0.0
H156 H 0.81044 0.95829 0.13774 0.0
O157 O 0.79511 0.95223 0.02411 0.0
O158 O 0.79115 0.97838 0.06621 0.0
O159 O 0.73667 0.95732 0.11149 0.0
C160 C 0.80733 0.9709 0.03771 0.0
H161 H 0.66068 1.00436 0.02023 0.0
H162 H 0.866 0.90037 0.10579 0.0
H163 H 0.72614 0.8751 0.10157 0.0
H164 H 0.72971 0.88706 0.98654 0.0
Co165 Co 0.21725 0.95298 0.46864 0.0
C166 C 0.25726 0.97175 0.5324 0.0
C167 C 0.27994 0.9839 0.48343 0.0
C168 C 0.29726 0.99442 0.51238 0.0
N169 N 0.25529 0.96924 0.49597 0.0
N170 N 0.28287 0.98679 0.5433 0.0
H171 H 0.23837 0.96398 0.55053 0.0
H172 H 0.28373 0.98793 0.45532 0.0
C173 C 0.27441 0.95464 0.4089 0.0
O174 O 0.30083 0.94592 0.42925 0.0
N175 N 0.17866 0.9373 0.44245 0.0
C176 C 0.16148 0.91887 0.45388 0.0
C177 C 0.13306 0.91402 0.42997 0.0
C178 C 0.16009 0.94371 0.41216 0.0
N179 N 0.13212 0.92967 0.40385 0.0
C180 C 0.24471 0.91736 0.51299 0.0
C181 C 0.25335 0.88749 0.45695 0.0
C182 C 0.25432 0.87958 0.49268 0.0
C183 C 0.2515 0.89505 0.52088 0.0
C184 C 0.24676 0.91001 0.45022 0.0
N185 N 0.24146 0.92459 0.47805 0.0
H186 H 0.23894 0.92832 0.53511 0.0
H187 H 0.24219 0.91519 0.42249 0.0
H188 H 0.16837 0.91001 0.47859 0.0
H189 H 0.16637 0.9586 0.39715 0.0
O190 O 0.18498 0.95417 0.50961 0.0
O191 O 0.1882 0.97952 0.46625 0.0
O192 O 0.24246 0.9578 0.42147 0.0
C193 C 0.17244 0.97255 0.49528 0.0
H194 H 0.3179 1.00727 0.51049 0.0
H195 H 0.11351 0.9006 0.43259 0.0
H196 H 0.25469 0.87618 0.43421 0.0
H197 H 0.25246 0.88978 0.54893 0.0
Co198 Co 0.21989 0.06765 0.96555 0.0
C199 C 0.25657 0.04951 0.03146 0.0
C200 C 0.28248 0.03735 0.98407 0.0
C201 C 0.29783 0.02677 1.01398 0.0
N202 N 0.25691 0.05199 0.99506 0.0
N203 N 0.28123 0.03434 0.04379 0.0
H204 H 0.23727 0.05781 0.0486 0.0
H205 H 0.28798 0.03326 0.95628 0.0
C206 C 0.27911 0.06588 0.90807 0.0
O207 O 0.30337 0.0769 0.92801 0.0
N208 N 0.18227 0.08268 0.93709 0.0
C209 C 0.16403 0.10107 0.94712 0.0
C210 C 0.13697 0.1055 0.92152 0.0
C211 C 0.16565 0.07583 0.906 0.0
N212 N 0.13794 0.08961 0.8958 0.0
C213 C 0.24646 0.10384 1.00925 0.0
C214 C 0.25446 0.13337 0.95278 0.0
C215 C 0.255 0.14156 0.98837 0.0
C216 C 0.25251 0.12628 1.0168 0.0
C217 C 0.24856 0.11073 0.94639 0.0
N218 N 0.24357 0.0963 0.97444 0.0
H219 H 0.24093 0.09302 0.03154 0.0
H220 H 0.24437 0.10526 0.91872 0.0
H221 H 0.16939 0.11025 0.97189 0.0
H222 H 0.17319 0.0609 0.89164 0.0
O223 O 0.18607 0.06742 1.00528 0.0
O224 O 0.19084 0.04107 0.96361 0.0
O225 O 0.24717 0.06166 0.91981 0.0
C226 C 0.17401 0.04874 0.99162 0.0
H227 H 0.31785 0.01348 1.01349 0.0
H228 H 0.11709 0.11886 0.92256 0.0
H229 H 0.25564 0.14454 0.92988 0.0
H230 H 0.25314 0.13177 0.04475 0.0
Co231 Co 0.76041 0.07013 0.56677 0.0
C232 C 0.7229 0.05201 0.50122 0.0
C233 C 0.69919 0.03877 0.54894 0.0
C234 C 0.68391 0.02801 0.51913 0.0
N235 N 0.72332 0.05418 0.53771 0.0
N236 N 0.69914 0.03625 0.48908 0.0
H237 H 0.74128 0.06084 0.48386 0.0
H238 H 0.69488 0.03424 0.57677 0.0
C239 C 0.70189 0.06728 0.62496 0.0
O240 O 0.67664 0.07756 0.60519 0.0
N241 N 0.79814 0.0855 0.59465 0.0
C242 C 0.81518 0.10426 0.58446 0.0
C243 C 0.84358 0.10859 0.60861 0.0
C244 C 0.81683 0.07837 0.62443 0.0
N245 N 0.84472 0.09229 0.63363 0.0
C246 C 0.73388 0.10648 0.52359 0.0
C247 C 0.72433 0.13548 0.58067 0.0
C248 C 0.72474 0.144 0.54535 0.0
C249 C 0.728 0.129 0.51656 0.0
C250 C 0.73027 0.11278 0.58655 0.0
N251 N 0.73606 0.09863 0.55823 0.0
H252 H 0.74007 0.09588 0.50115 0.0
H253 H 0.73405 0.10712 0.61412 0.0
H254 H 0.80839 0.11363 0.56024 0.0
H255 H 0.81086 0.063 0.63826 0.0
O256 O 0.79375 0.06997 0.52657 0.0
O257 O 0.78984 0.04373 0.56839 0.0
O258 O 0.73402 0.06396 0.61295 0.0
C259 C 0.8062 0.05137 0.54014 0.0
H260 H 0.66507 0.01411 0.51981 0.0
H261 H 0.86315 0.12206 0.60671 0.0
H262 H 0.72254 0.14645 0.60381 0.0
H263 H 0.72818 0.13478 0.48881 0.0
C264 C 0.22457 0.54594 0.68435 0.0
C265 C 0.19725 0.55855 0.66617 0.0
C266 C 0.21939 0.53818 0.71939 0.0
C267 C 0.16999 0.54797 0.80301 0.0
H268 H 0.20163 0.48779 0.82439 0.0
C269 C 0.16515 0.50825 0.94756 0.0
C270 C 0.19638 0.49575 0.95808 0.0
C271 C 0.16057 0.51589 0.9118 0.0
C272 C 0.19285 0.50468 0.819 0.0
H273 H 0.14306 0.57312 0.67113 0.0
H274 H 0.13411 0.55959 0.73312 0.0
H275 H 0.20146 0.50111 0.76222 0.0
H276 H 0.24808 0.48252 0.93919 0.0
H277 H 0.24001 0.49556 0.87755 0.0
H278 H 0.1623 0.55162 0.86019 0.0
C279 C 0.15953 0.55574 0.71979 0.0
C280 C 0.19267 0.5123 0.78331 0.0
C281 C 0.16459 0.56339 0.68428 0.0
C282 C 0.22312 0.49145 0.93209 0.0
C283 C 0.21852 0.49901 0.89655 0.0
C284 C 0.17026 0.54032 0.83894 0.0
C285 C 0.18682 0.54286 0.73756 0.0
C286 C 0.18217 0.5342 0.77495 0.0
C287 C 0.18708 0.51115 0.88577 0.0
C288 C 0.18264 0.51875 0.84745 0.0
H289 H 0.25016 0.54188 0.67148 0.0
H290 H 0.24124 0.52866 0.73248 0.0
H291 H 0.16187 0.56495 0.79744 0.0
H292 H 0.14398 0.5118 0.96681 0.0
H293 H 0.13597 0.52515 0.90438 0.0
C294 C 0.79619 0.48597 0.59893 0.0
C295 C 0.7823 0.50016 0.57165 0.0
C296 C 0.7995 0.4933 0.63495 0.0
C297 C 0.75666 0.5303 0.69836 0.0
H298 H 0.84757 0.52839 0.75553 0.0
C299 C 0.762 0.56767 0.84158 0.0
C300 C 0.78431 0.55756 0.8684 0.0
C301 C 0.76485 0.56168 0.80518 0.0
C302 C 0.82174 0.52875 0.74028 0.0
H303 H 0.7607 0.53307 0.56075 0.0
H304 H 0.76553 0.54566 0.62373 0.0
H305 H 0.84654 0.5151 0.69289 0.0
H306 H 0.82756 0.53346 0.87815 0.0
H307 H 0.83154 0.52212 0.81483 0.0
H308 H 0.73107 0.54281 0.74549 0.0
C309 C 0.77446 0.52901 0.61713 0.0
C310 C 0.82131 0.52123 0.70427 0.0
C311 C 0.77193 0.52186 0.58108 0.0
C312 C 0.8103 0.5417 0.85795 0.0
C313 C 0.81256 0.53526 0.82151 0.0
C314 C 0.75684 0.53735 0.73446 0.0
C315 C 0.78811 0.51479 0.64445 0.0
C316 C 0.78882 0.52216 0.68289 0.0
C317 C 0.78935 0.54487 0.79459 0.0
C318 C 0.78947 0.53697 0.75599 0.0
H319 H 0.80435 0.46918 0.59233 0.0
H320 H 0.80992 0.48198 0.65554 0.0
H321 H 0.7311 0.53089 0.68262 0.0
H322 H 0.7419 0.5801 0.84883 0.0
H323 H 0.74736 0.57013 0.78545 0.0
C324 C 0.76343 0.45323 0.34147 0.0
C325 C 0.7849 0.46375 0.36856 0.0
C326 C 0.76648 0.45922 0.30511 0.0
C327 C 0.8226 0.49313 0.24097 0.0
H328 H 0.73281 0.48943 0.18221 0.0
C329 C 0.7969 0.53576 0.09975 0.0
C330 C 0.78385 0.52146 0.07217 0.0
C331 C 0.80011 0.52836 0.13571 0.0
C332 C 0.75814 0.49046 0.19825 0.0
H333 H 0.82688 0.48859 0.37882 0.0
H334 H 0.83116 0.4999 0.31558 0.0
H335 H 0.73259 0.47742 0.24497 0.0
H336 H 0.76364 0.4883 0.0607 0.0
H337 H 0.76829 0.47558 0.12356 0.0
H338 H 0.84731 0.5073 0.19399 0.0
C339 C 0.81272 0.48646 0.32202 0.0
C340 C 0.75823 0.48336 0.23429 0.0
C341 C 0.81029 0.48002 0.35842 0.0
C342 C 0.77422 0.4996 0.08127 0.0
C343 C 0.77664 0.49238 0.11725 0.0
C344 C 0.82224 0.50069 0.20501 0.0
C345 C 0.79032 0.47643 0.29481 0.0
C346 C 0.79055 0.48432 0.25624 0.0
C347 C 0.78946 0.50669 0.14487 0.0
C348 C 0.79007 0.49922 0.18323 0.0
H349 H 0.74381 0.44049 0.34848 0.0
H350 H 0.74964 0.45046 0.28517 0.0
H351 H 0.84821 0.49394 0.25652 0.0
H352 H 0.8045 0.55267 0.09342 0.0
H353 H 0.80988 0.53977 0.15653 0.0
C354 C 0.22822 0.46385 0.19009 0.0
C355 C 0.1977 0.46148 0.16616 0.0
C356 C 0.22393 0.47155 0.22535 0.0
C357 C 0.15774 0.48009 0.29816 0.0
H358 H 0.23066 0.523 0.33149 0.0
C359 C 0.17937 0.50576 0.44937 0.0
C360 C 0.18931 0.52791 0.45694 0.0
C361 C 0.176 0.49818 0.41351 0.0
C362 C 0.20977 0.51123 0.32261 0.0
H363 H 0.13837 0.46461 0.16131 0.0
H364 H 0.13082 0.47823 0.22343 0.0
H365 H 0.23274 0.50867 0.27008 0.0
H366 H 0.20124 0.55971 0.43249 0.0
H367 H 0.19535 0.54657 0.37021 0.0
H368 H 0.13477 0.48281 0.35098 0.0
C369 C 0.15813 0.47403 0.21458 0.0
C370 C 0.21124 0.50279 0.28744 0.0
C371 C 0.16245 0.46627 0.179 0.0
C372 C 0.19436 0.54245 0.42772 0.0
C373 C 0.19097 0.5349 0.39196 0.0
C374 C 0.15634 0.48852 0.33357 0.0
C375 C 0.189 0.47718 0.2379 0.0
C376 C 0.18556 0.48691 0.27484 0.0
C377 C 0.18246 0.51256 0.38435 0.0
C378 C 0.18252 0.50411 0.34631 0.0
H379 H 0.25577 0.46002 0.18148 0.0
H380 H 0.2482 0.47322 0.24279 0.0
H381 H 0.13761 0.46784 0.28934 0.0
H382 H 0.17553 0.49404 0.47111 0.0
H383 H 0.16975 0.48083 0.40871 0.0
C384 C 0.67116 0.01194 0.94426 0.0
C385 C 0.69093 0.99222 0.95142 0.0
C386 C 0.66632 0.01986 0.90877 0.0
C387 C 0.67483 1.00277 0.81168 0.0
H388 H 0.6811 0.06619 0.79484 0.0
C389 C 0.7145 0.04057 0.67533 0.0
C390 C 0.69362 0.05841 0.66133 0.0
C391 C 0.70854 0.03242 0.71004 0.0
C392 C 0.67876 0.04846 0.79917 0.0
H393 H 0.7199 0.96512 0.92571 0.0
H394 H 0.71305 0.97935 0.86478 0.0
H395 H 0.6819 0.05208 0.85683 0.0
H396 H 0.64997 0.08166 0.67288 0.0
H397 H 0.64015 0.06765 0.7345 0.0
H398 H 0.67356 0.99922 0.7539 0.0
C399 C 0.70058 0.98856 0.88646 0.0
C400 C 0.67914 0.04032 0.83474 0.0
C401 C 0.70508 0.98052 0.92181 0.0
C402 C 0.66636 0.06784 0.68288 0.0
C403 C 0.66088 0.05992 0.71812 0.0
C404 C 0.67498 0.0109 0.77623 0.0
C405 C 0.68129 1.00841 0.87934 0.0
C406 C 0.67783 0.0173 0.84153 0.0
C407 C 0.68196 0.04209 0.732 0.0
C408 C 0.67752 0.0338 0.76956 0.0
H409 H 0.65979 0.02158 0.96599 0.0
H410 H 0.65079 0.03501 0.90448 0.0
H411 H 0.67276 0.98502 0.81561 0.0
H412 H 0.73564 0.03286 0.65942 0.0
H413 H 0.72546 0.01883 0.72008 0.0
C414 C 0.2694 0.03886 0.85754 0.0
C415 C 0.28825 0.05746 0.87165 0.0
C416 C 0.27582 0.03126 0.82257 0.0
C417 C 0.30157 0.0495 0.7335 0.0
H418 H 0.31488 0.98669 0.71483 0.0
C419 C 0.30813 0.01483 0.58698 0.0
C420 C 0.29022 0.99446 0.58004 0.0
C421 C 0.31358 0.02259 0.62253 0.0
C422 C 0.31077 1.00426 0.7194 0.0
H423 H 0.32884 0.08264 0.86012 0.0
H424 H 0.33945 0.06957 0.79804 0.0
H425 H 0.31416 1.00016 0.77704 0.0
H426 H 0.2654 0.966 0.60598 0.0
H427 H 0.27324 0.97987 0.66711 0.0
H428 H 0.29622 0.05356 0.67603 0.0
C429 C 0.31997 0.06081 0.81452 0.0
C430 C 0.31067 0.01198 0.75513 0.0
C431 C 0.31407 0.0682 0.85002 0.0
C432 C 0.27866 0.98192 0.60982 0.0
C433 C 0.28377 0.98977 0.64523 0.0
C434 C 0.30113 0.04174 0.69768 0.0
C435 C 0.30083 0.04226 0.80049 0.0
C436 C 0.30545 0.03461 0.76258 0.0
C437 C 0.30113 1.01027 0.65219 0.0
C438 C 0.30501 0.01892 0.69012 0.0
H439 H 0.2494 0.03017 0.87353 0.0
H440 H 0.2604 0.01707 0.8124 0.0
H441 H 0.29714 0.06701 0.73847 0.0
H442 H 0.31742 0.02508 0.56502 0.0
H443 H 0.32755 0.03829 0.6267 0.0
C444 C 0.31876 0.01626 0.09274 0.0
C445 C 0.28568 0.02629 0.08056 0.0
C446 C 0.3229 1.00868 0.12855 0.0
C447 C 0.28379 0.01658 0.21924 0.0
H448 H 0.32435 0.95851 0.24182 0.0
C449 C 0.2526 0.97289 0.35159 0.0
C450 C 0.2811 0.96217 0.3713 0.0
C451 C 0.25814 0.98086 0.31677 0.0
C452 C 0.31351 0.97491 0.23599 0.0
H453 H 0.23051 0.03521 0.09657 0.0
H454 H 0.23786 0.02235 0.1584 0.0
H455 H 0.32486 0.9723 0.17933 0.0
H456 H 0.33774 0.95104 0.36913 0.0
H457 H 0.34737 0.96498 0.3075 0.0
H458 H 0.27166 0.0191 0.27543 0.0
C459 C 0.26095 0.02076 0.1406 0.0
C460 C 0.31377 0.9828 0.20023 0.0
C461 C 0.25677 0.02823 0.10498 0.0
C462 C 0.31525 0.95927 0.35478 0.0
C463 C 0.32073 0.96718 0.3195 0.0
C464 C 0.28351 1.00873 0.25476 0.0
C465 C 0.2941 0.01105 0.15299 0.0
C466 C 0.29798 1.0035 0.19132 0.0
C467 C 0.29229 0.97834 0.30036 0.0
C468 C 0.29742 0.98756 0.26343 0.0
H469 H 0.34166 0.01459 0.07478 0.0
H470 H 0.34884 1.00134 0.13728 0.0
H471 H 0.27226 0.03282 0.21352 0.0
H472 H 0.2258 0.97536 0.36311 0.0
H473 H 0.23541 0.98894 0.30254 0.0
C474 C 0.66239 0.01697 0.44071 0.0
C475 C 0.69467 0.02813 0.45229 0.0
C476 C 0.65833 1.00914 0.405 0.0
C477 C 0.69516 0.01771 0.3134 0.0
H478 H 0.65887 0.9584 0.29245 0.0
C479 C 0.72629 0.97415 0.18042 0.0
C480 C 0.69849 0.96203 0.16198 0.0
C481 C 0.72099 0.98238 0.21518 0.0
C482 C 0.6685 0.97513 0.2978 0.0
H483 H 0.74853 0.03893 0.43516 0.0
H484 H 0.74129 0.02564 0.37352 0.0
H485 H 0.65854 0.97256 0.35473 0.0
H486 H 0.64329 0.94881 0.16628 0.0
H487 H 0.63405 0.96326 0.22771 0.0
H488 H 0.70584 0.02023 0.2569 0.0
C489 C 0.71873 0.02332 0.39174 0.0
C490 C 0.66834 0.98324 0.33348 0.0
C491 C 0.72284 0.03103 0.42728 0.0
C492 C 0.66523 0.95813 0.17962 0.0
C493 C 0.65999 0.96632 0.21482 0.0
C494 C 0.69532 1.00964 0.27795 0.0
C495 C 0.68639 0.01239 0.38 0.0
C496 C 0.68258 1.00444 0.34181 0.0
C497 C 0.68776 0.97876 0.2328 0.0
C498 C 0.68292 0.98805 0.26981 0.0
H499 H 0.64005 0.01454 0.4591 0.0
H500 H 0.63299 1.00088 0.3968 0.0
H501 H 0.70546 0.03431 0.31866 0.0
H502 H 0.75239 0.97746 0.16798 0.0
H503 H 0.74325 0.99148 0.22844 0.0
C504 C 0.3551 0.49934 0.04736 0.0
C505 C 0.34195 0.47985 0.03062 0.0
C506 C 0.39048 0.50705 0.04087 0.0
C507 C 0.48064 0.48614 1.0145 0.0
H508 H 0.50561 0.54864 1.01 0.0
C509 C 0.62513 0.51875 0.9807 0.0
C510 C 0.638 0.53782 0.99894 0.0
C511 C 0.58963 0.51085 0.98616 0.0
C512 C 0.49909 0.53114 1.01174 0.0
H513 H 0.35466 0.45382 0.99233 0.0
H514 H 0.41653 0.46751 0.98049 0.0
H515 H 0.44119 0.53753 1.01196 0.0
H516 H 0.62462 0.56291 0.03862 0.0
H517 H 0.56251 0.54895 0.04846 0.0
H518 H 0.5386 0.47977 1.01419 0.0
C519 C 0.39961 0.4766 0.99915 0.0
C520 C 0.4622 0.52477 1.01266 0.0
C521 C 0.36408 0.4689 1.00561 0.0
C522 C 0.61544 0.54815 0.02424 0.0
C523 C 0.57979 0.5403 0.02957 0.0
C524 C 0.51755 0.49251 1.0135 0.0
C525 C 0.41352 0.49543 0.01747 0.0
C526 C 0.45255 0.5022 1.01418 0.0
C527 C 0.56622 0.52192 1.00987 0.0
C528 C 0.52717 0.51508 1.01224 0.0
H529 H 0.33866 0.50815 0.06678 0.0
H530 H 0.40039 0.52151 0.05561 0.0
H531 H 0.47416 0.46863 1.01638 0.0
H532 H 0.64193 0.51043 0.96102 0.0
H533 H 0.57994 0.49672 0.97045 0.0
C534 C 0.61351 0.47263 0.52147 0.0
C535 C 0.63629 0.48294 0.49638 0.0
C536 C 0.5777 0.48038 0.52634 0.0
C537 C 0.51541 0.52802 0.51002 0.0
H538 H 0.43919 0.48294 0.50774 0.0
C539 C 0.36191 0.5517 0.50338 0.0
C540 C 0.3398 0.54046 0.52801 0.0
C541 C 0.39741 0.54405 0.49653 0.0
C542 C 0.46014 0.49573 0.50867 0.0
H543 H 0.64038 0.51016 0.45829 0.0
H544 H 0.57812 0.52374 0.467 0.0
H545 H 0.50365 0.4719 0.50579 0.0
H546 H 0.33654 0.51169 0.56306 0.0
H547 H 0.3982 0.49846 0.5513 0.0
H548 H 0.47198 0.55185 0.51328 0.0
C549 C 0.58777 0.50969 0.48286 0.0
C550 C 0.49707 0.48939 0.50772 0.0
C551 C 0.62342 0.50187 0.47782 0.0
C552 C 0.35294 0.52073 0.54394 0.0
C553 C 0.3883 0.51309 0.53709 0.0
C554 C 0.47848 0.53436 0.51111 0.0
C555 C 0.5642 0.49866 0.50641 0.0
C556 C 0.5251 0.50547 0.50852 0.0
C557 C 0.41134 0.52499 0.51411 0.0
C558 C 0.45041 0.51828 0.51057 0.0
H559 H 0.62268 0.45797 0.53607 0.0
H560 H 0.56029 0.47176 0.5451 0.0
H561 H 0.53644 0.54077 0.51092 0.0
H562 H 0.35252 0.56697 0.49073 0.0
H563 H 0.41429 0.55337 0.47818 0.0
C564 C 0.12798 0.01817 0.98787 0.0
C565 C 0.13935 0.03851 1.00307 0.0
C566 C 0.09226 1.01043 0.99256 0.0
C567 C 0.00828 0.0178 0.04568 0.0
H568 H 0.95916 0.99636 0.95784 0.0
C569 C 0.85296 1.00168 0.04068 0.0
C570 C 0.84168 0.98126 0.02572 0.0
C571 C 0.8886 1.00949 0.03577 0.0
C572 C 0.97257 1.00213 0.98264 0.0
H573 H 0.12302 0.06607 0.03687 0.0
H574 H 0.06045 0.05255 0.04507 0.0
H575 H 0.02383 1.00703 0.95667 0.0
H576 H 0.85803 0.95365 0.99205 0.0
H577 H 0.92045 0.9673 0.98345 0.0
H578 H 0.95701 0.0129 0.07165 0.0
C579 C 0.07922 0.04254 0.02962 0.0
C580 C 0.00964 1.00817 0.98204 0.0
C581 C 0.11507 0.05028 0.02498 0.0
C582 C 0.86591 0.9695 1.00374 0.0
C583 C 0.90169 0.97731 0.99888 0.0
C584 C 0.9712 0.01176 0.04628 0.0
C585 C 0.06711 0.02288 1.0125 0.0
C586 C 0.02793 0.01604 1.01357 0.0
C587 C 0.91375 0.99703 1.01585 0.0
C588 C 0.95291 1.0039 1.01475 0.0
H589 H 0.14619 1.00865 0.97103 0.0
H590 H 0.08403 0.99496 0.97975 0.0
H591 H 0.02168 0.02356 0.07048 0.0
H592 H 0.83479 0.01119 0.05757 0.0
H593 H 0.8968 0.02501 0.04846 0.0
C594 C 0.86525 0.05308 0.50694 0.0
C595 C 0.84078 0.04117 0.52838 0.0
C596 C 0.90111 0.04532 0.50232 0.0
C597 C 0.97015 0.01064 0.54976 0.0
H598 H 0.02351 0.01537 0.46061 0.0
C599 C 0.1137 0.97148 0.529 0.0
C600 C 0.13818 0.98309 0.50714 0.0
C601 C 0.07797 0.97944 0.53363 0.0
C602 C 0.00913 0.01423 0.48587 0.0
H603 H 0.83359 0.01103 0.55951 0.0
H604 H 0.89575 0.99733 0.55086 0.0
H605 H 0.95893 0.0263 0.46143 0.0
H606 H 0.14557 0.0129 0.47527 0.0
H607 H 0.08367 0.02701 0.48403 0.0
H608 H 0.02034 0.99859 0.57422 0.0
C609 C 0.88766 0.01291 0.5384 0.0
C610 C 0.9721 0.02042 0.48625 0.0
C611 C 0.85195 0.02067 0.54306 0.0
C612 C 0.12719 1.00351 0.49207 0.0
C613 C 0.09161 0.01149 0.49678 0.0
C614 C 0.00719 1.00447 0.54938 0.0
C615 C 0.91301 0.02551 0.51902 0.0
C616 C 0.95218 0.01863 0.51818 0.0
C617 C 0.06621 0.99918 0.51656 0.0
C618 C 0.0271 1.00622 0.51744 0.0
H619 H 0.85744 0.069 0.49549 0.0
H620 H 0.92004 0.05543 0.48728 0.0
H621 H 0.95574 1.00947 0.575 0.0
H622 H 0.12135 0.95561 0.54073 0.0
H623 H 0.059 0.96953 0.54895 0.0
C624 C 0.246 0.34506 1.01169 0.0
C625 C 0.2219 0.35385 0.03729 0.0
C626 C 0.24867 0.32218 1.00624 0.0
C627 C 0.23289 0.2686 0.05129 0.0
H628 H 0.2428 0.24461 0.95452 0.0
C629 C 0.23011 0.17435 0.02192 0.0
C630 C 0.25376 0.1659 0.99564 0.0
C631 C 0.22671 0.19721 0.02738 0.0
C632 C 0.24057 0.25105 0.98177 0.0
H633 H 0.18131 0.34522 0.07692 0.0
H634 H 0.18603 0.30513 0.06741 0.0
H635 H 0.23412 0.28441 0.96272 0.0
H636 H 0.29288 0.17503 0.95492 0.0
H637 H 0.28716 0.21502 0.96463 0.0
H638 H 0.23951 0.23526 0.07036 0.0
C639 C 0.20309 0.31608 0.05176 0.0
C640 C 0.23546 0.27388 0.98647 0.0
C641 C 0.20032 0.33905 0.05716 0.0
C642 C 0.27423 0.18096 0.97519 0.0
C643 C 0.27084 0.20388 0.98069 0.0
C644 C 0.23806 0.24577 0.04659 0.0
C645 C 0.22746 0.30737 0.02634 0.0
C646 C 0.23162 0.28296 0.02129 0.0
C647 C 0.24681 0.2123 1.00669 0.0
C648 C 0.242 0.23668 1.01177 0.0
H649 H 0.26384 0.35582 0.99655 0.0
H650 H 0.26822 0.31607 0.98695 0.0
H651 H 0.23065 0.27507 0.07852 0.0
H652 H 0.21321 0.16332 0.03759 0.0
H653 H 0.20746 0.20305 0.04717 0.0
C654 C 0.73134 0.34775 0.52452 0.0
C655 C 0.75822 0.35682 0.50204 0.0
C656 C 0.72883 0.32484 0.52974 0.0
C657 C 0.75074 0.27152 0.48685 0.0
H658 H 0.73228 0.24722 0.58187 0.0
C659 C 0.75147 0.17707 0.51422 0.0
C660 C 0.72633 0.1684 0.53886 0.0
C661 C 0.75514 0.19998 0.50957 0.0
C662 C 0.73688 0.25372 0.55504 0.0
H663 H 0.80393 0.34857 0.46787 0.0
H664 H 0.79921 0.30844 0.47671 0.0
H665 H 0.74064 0.28713 0.57477 0.0
H666 H 0.68489 0.17714 0.57753 0.0
H667 H 0.69078 0.21721 0.56899 0.0
H668 H 0.74647 0.23822 0.46694 0.0
C669 C 0.77999 0.31922 0.49015 0.0
C670 C 0.74186 0.27662 0.55101 0.0
C671 C 0.7827 0.34223 0.48511 0.0
C672 C 0.70465 0.18327 0.55849 0.0
C673 C 0.70818 0.20625 0.55369 0.0
C674 C 0.74555 0.24863 0.49083 0.0
C675 C 0.75287 0.31026 0.5124 0.0
C676 C 0.74882 0.2858 0.51686 0.0
C677 C 0.7337 0.21492 0.52934 0.0
C678 C 0.73855 0.2394 0.52499 0.0
H679 H 0.71127 0.35827 0.53726 0.0
H680 H 0.70722 0.31849 0.54654 0.0
H681 H 0.75545 0.27809 0.46007 0.0
H682 H 0.76927 0.16616 0.49927 0.0
H683 H 0.77558 0.20596 0.49112 0.0
C684 C 0.7069 0.83855 0.0564 0.0
C685 C 0.72834 0.85331 0.03635 0.0
C686 C 0.71015 0.81556 0.05158 0.0
C687 C 0.74599 0.7728 0.98836 0.0
H688 H 0.74288 0.73481 0.0729 0.0
C689 C 0.78272 0.67912 0.98293 0.0
C690 C 0.75868 0.66466 1.00065 0.0
C691 C 0.78016 0.70216 0.98774 0.0
C692 C 0.74358 0.74518 0.04897 0.0
H693 H 0.77038 0.85532 0.99583 0.0
H694 H 0.77618 0.81546 0.98763 0.0
H695 H 0.73481 0.77476 0.07971 0.0
H696 H 0.71269 0.66346 0.03707 0.0
H697 H 0.70888 0.7033 0.04591 0.0
H698 H 0.75507 0.74314 0.95773 0.0
C699 C 0.75619 0.82156 1.00648 0.0
C700 C 0.73877 0.7681 0.05284 0.0
C701 C 0.75282 0.8445 1.01116 0.0
C702 C 0.73242 0.67389 0.02369 0.0
C703 C 0.73004 0.69684 0.02866 0.0
C704 C 0.751 0.74988 0.98454 0.0
C705 C 0.73511 0.80674 0.02678 0.0
C706 C 0.7398 0.78224 0.02258 0.0
C707 C 0.75362 0.71129 1.01053 0.0
C708 C 0.74972 0.73577 1.01478 0.0
H709 H 0.68761 0.84479 0.07584 0.0
H710 H 0.693 0.80469 0.06728 0.0
H711 H 0.74641 0.78307 0.96434 0.0
H712 H 0.80349 0.67266 0.96524 0.0
H713 H 0.79903 0.71284 0.97369 0.0
C714 C 0.23074 0.84677 0.52698 0.0
C715 C 0.2538 0.85527 0.50027 0.0
C716 C 0.22773 0.82391 0.53251 0.0
C717 C 0.27359 0.77016 0.51533 0.0
H718 H 0.17645 0.7459 0.53113 0.0
C719 C 0.2464 0.67591 0.51414 0.0
C720 C 0.22335 0.66721 0.54069 0.0
C721 C 0.24951 0.6988 0.50913 0.0
C722 C 0.20382 0.75242 0.52716 0.0
H723 H 0.29236 0.84622 0.45893 0.0
H724 H 0.28674 0.80623 0.46826 0.0
H725 H 0.18395 0.78579 0.52289 0.0
H726 H 0.18501 0.67596 0.5824 0.0
H727 H 0.19077 0.71605 0.57392 0.0
H728 H 0.29345 0.73679 0.51954 0.0
C729 C 0.27122 0.81733 0.48517 0.0
C730 C 0.20815 0.77531 0.52245 0.0
C731 C 0.27423 0.84026 0.47961 0.0
C732 C 0.2031 0.68208 0.56181 0.0
C733 C 0.2062 0.70505 0.55674 0.0
C734 C 0.26926 0.74728 0.52004 0.0
C735 C 0.2476 0.80887 0.51143 0.0
C736 C 0.24309 0.78448 0.51647 0.0
C737 C 0.22977 0.71369 0.53058 0.0
C738 C 0.2343 0.73811 0.52594 0.0
H739 H 0.21406 0.85774 0.54302 0.0
H740 H 0.20966 0.81801 0.55329 0.0
H741 H 0.30096 0.77667 0.51134 0.0
H742 H 0.26296 0.66505 0.49779 0.0
H743 H 0.26753 0.70484 0.48842 0.0
C744 C 0.5919 0.40579 0.35922 0.0
C745 C 0.60843 0.42538 0.37234 0.0
C746 C 0.56277 0.4067 0.3339 0.0
C747 C 0.51646 0.4431 0.26637 0.0
H748 H 0.43483 0.40264 0.27932 0.0
C749 C 0.38318 0.44654 0.17725 0.0
C750 C 0.37066 0.42597 0.16381 0.0
C751 C 0.41097 0.44746 0.20413 0.0
C752 C 0.45751 0.41395 0.27523 0.0
H753 H 0.60757 0.46131 0.36888 0.0
H754 H 0.55661 0.46292 0.32467 0.0
H755 H 0.48664 0.40231 0.32252 0.0
H756 H 0.37642 0.3903 0.16885 0.0
H757 H 0.42496 0.39187 0.21552 0.0
H758 H 0.4872 0.45467 0.21896 0.0
C759 C 0.5665 0.44683 0.33365 0.0
C760 C 0.48725 0.41372 0.2999 0.0
C761 C 0.59576 0.44591 0.35893 0.0
C762 C 0.38579 0.40638 0.17842 0.0
C763 C 0.41333 0.40729 0.20539 0.0
C764 C 0.48661 0.44336 0.24172 0.0
C765 C 0.54938 0.42723 0.32119 0.0
C766 C 0.51727 0.4281 0.29553 0.0
C767 C 0.42649 0.42783 0.21828 0.0
C768 C 0.45703 0.42861 0.24568 0.0
H769 H 0.60147 0.38973 0.36861 0.0
H770 H 0.55073 0.39127 0.32425 0.0
H771 H 0.5393 0.45424 0.26205 0.0
H772 H 0.37227 0.46191 0.16629 0.0
H773 H 0.42037 0.46353 0.21377 0.0
C774 C 0.38044 0.57137 0.68004 0.0
C775 C 0.36891 0.59205 0.66627 0.0
C776 C 0.40744 0.57021 0.70769 0.0
C777 C 0.45345 0.60345 0.77975 0.0
H778 H 0.53543 0.56321 0.76696 0.0
C779 C 0.58861 0.61304 0.86195 0.0
C780 C 0.60595 0.59373 0.87513 0.0
C781 C 0.55891 0.61163 0.83734 0.0
C782 C 0.5125 0.57432 0.77121 0.0
H783 H 0.37538 0.62765 0.67162 0.0
H784 H 0.42246 0.62568 0.71965 0.0
H785 H 0.48339 0.56254 0.7238 0.0
H786 H 0.60582 0.55776 0.87259 0.0
H787 H 0.55388 0.55528 0.82957 0.0
H788 H 0.48251 0.61537 0.82693 0.0
C789 C 0.41073 0.61036 0.70918 0.0
C790 C 0.48268 0.57392 0.74651 0.0
C791 C 0.38404 0.6115 0.68143 0.0
C792 C 0.59339 0.57296 0.86257 0.0
C793 C 0.56357 0.57154 0.83798 0.0
C794 C 0.48315 0.60382 0.80445 0.0
C795 C 0.42306 0.58971 0.72232 0.0
C796 C 0.45312 0.58872 0.75022 0.0
C797 C 0.54573 0.59087 0.8254 0.0
C798 C 0.51331 0.58952 0.80016 0.0
H799 H 0.36945 0.55611 0.66868 0.0
H800 H 0.41622 0.55407 0.71749 0.0
H801 H 0.43076 0.61481 0.78365 0.0
H802 H 0.59803 0.62927 0.87069 0.0
H803 H 0.54634 0.62687 0.82756 0.0
C804 C 0.09303 0.9526 0.36262 0.0
C805 C 0.10457 0.93166 0.37532 0.0
C806 C 0.06384 0.95437 0.33728 0.0
C807 C 0.98295 0.92282 0.30336 0.0
H808 H 0.98486 0.9628 0.22123 0.0
C809 C 0.88648 0.91269 0.17935 0.0
C810 C 0.87109 0.93175 0.16321 0.0
C811 C 0.91284 0.91453 0.20729 0.0
C812 C 0.98371 0.95181 0.24436 0.0
H813 H 0.09608 0.8962 0.36991 0.0
H814 H 0.04559 0.89922 0.32567 0.0
H815 H 0.03636 0.96255 0.26522 0.0
H816 H 0.87094 0.96772 0.16389 0.0
H817 H 0.91724 0.97098 0.21305 0.0
H818 H 0.93076 0.91175 0.28227 0.0
C819 C 0.0583 0.91431 0.33594 0.0
C820 C 0.0132 0.95164 0.2695 0.0
C821 C 0.08729 0.91256 0.36121 0.0
C822 C 0.88214 0.95275 0.17606 0.0
C823 C 0.90884 0.95462 0.2039 0.0
C824 C 0.95361 0.92295 0.27828 0.0
C825 C 0.04574 0.93523 0.32419 0.0
C826 C 0.01345 0.9368 0.29886 0.0
C827 C 0.92458 0.9355 0.21966 0.0
C828 C 0.95398 0.93712 0.24814 0.0
H829 H 0.10562 0.96761 0.37324 0.0
H830 H 0.05471 0.97072 0.32883 0.0
H831 H 0.98188 0.91158 0.3262 0.0
H832 H 0.87822 0.8963 0.17023 0.0
H833 H 0.92471 0.89949 0.21861 0.0
C834 C 0.09717 0.10628 0.84914 0.0
C835 C 0.11253 0.0873 0.86554 0.0
C836 C 0.07039 0.10431 0.82165 0.0
C837 C -0.0017 0.06706 0.78703 0.0
H838 H -0.00246 0.10755 0.70545 0.0
C839 C 0.88465 0.06827 0.67233 0.0
C840 C 0.87279 0.08952 0.66148 0.0
C841 C 0.91469 0.06584 0.69654 0.0
C842 C -0.00273 0.0962 0.72819 0.0
H843 H 0.11232 0.05133 0.8657 0.0
H844 H 0.06529 0.04783 0.81722 0.0
H845 H 0.05041 0.10685 0.74729 0.0
H846 H 0.88152 0.12481 0.66917 0.0
H847 H 0.93362 0.12063 0.71126 0.0
H848 H 0.94468 0.05674 0.76808 0.0
C849 C 0.07403 0.06424 0.82585 0.0
C850 C 0.02757 0.09578 0.75208 0.0
C851 C 0.10115 0.06623 0.85329 0.0
C852 C 0.89052 0.10824 0.67642 0.0
C853 C 0.92042 0.10583 0.70046 0.0
C854 C 0.96788 0.06748 0.76301 0.0
C855 C 0.0582 0.0833 0.80995 0.0
C856 C 0.02806 0.0816 0.78225 0.0
C857 C 0.93335 0.08464 0.71018 0.0
C858 C 0.96672 0.08247 0.73387 0.0
H859 H 0.10567 0.12271 0.85784 0.0
H860 H 0.05846 0.11932 0.81025 0.0
H861 H -0.00219 0.05607 0.81019 0.0
H862 H 0.87171 0.05354 0.66104 0.0
H863 H 0.9241 0.0493 0.70356 0.0
loop_
_geom_bond_atom_site_label_1
_geom_bond_atom_site_label_2
_geom_bond_distance
_geom_bond_site_symmetry_2
_ccdc_geom_bond_type
Co0 N4 2.148 . S
Co0 N10 2.128 . S
Co0 N20 2.194 . S
Co0 O25 2.351 . S
Co0 O26 2.155 . S
Co0 O27 2.096 . S
C1 N4 1.301 1_556 S
C1 N5 1.328 . S
C1 H6 0.930 . S
C2 C3 1.333 . S
C2 N4 1.317 . S
C2 H7 0.930 . S
C3 C2 1.333 . S
C3 N5 1.350 1_554 S
C3 H29 0.931 . S
N4 Co0 2.148 . S
N4 C1 1.301 1_554 S
N4 C2 1.317 . S
N5 C1 1.328 . S
N5 C3 1.350 1_556 S
H6 C1 0.930 . S
H7 C2 0.930 . S
C8 O9 1.224 . S
C8 O27 1.247 . S
O9 C8 1.224 . S
N10 Co0 2.128 . S
N10 C11 1.355 . S
N10 C13 1.311 . S
C11 N10 1.355 . S
C11 C12 1.363 . S
C11 H23 0.929 . S
C12 C11 1.363 . S
C12 N14 1.375 . S
C12 H30 0.931 . S
C13 N10 1.311 . S
C13 N14 1.347 . S
C13 H24 0.929 . S
N14 C12 1.375 . S
N14 C13 1.347 . S
C15 C18 1.365 . S
C15 N20 1.328 . S
C15 H21 0.929 . S
C16 C17 1.362 . S
C16 C19 1.378 . S
C16 H31 0.929 . S
C17 C16 1.362 . S
C17 C18 1.366 . S
C18 C15 1.365 . S
C18 C17 1.366 . S
C18 H32 0.930 1_554 S
C19 C16 1.378 . S
C19 N20 1.315 . S
C19 H22 0.930 . S
N20 Co0 2.194 . S
N20 C15 1.328 . S
N20 C19 1.315 . S
H21 C15 0.929 . S
H22 C19 0.930 . S
H23 C11 0.929 . S
H24 C13 0.929 . S
O25 Co0 2.351 . S
O25 C28 1.244 . S
O26 Co0 2.155 . S
O26 C28 1.240 . S
O27 Co0 2.096 . S
O27 C8 1.247 . S
C28 O25 1.244 . S
C28 O26 1.240 . S
H29 C3 0.931 . S
H30 C12 0.931 . S
H31 C16 0.929 . S
H32 C18 0.930 1_556 S
Co33 N37 2.148 . S
Co33 N43 2.128 . S
Co33 N53 2.194 . S
Co33 O58 2.351 . S
Co33 O59 2.155 . S
Co33 O60 2.096 . S
C34 N37 1.301 . S
C34 N38 1.328 . S
C34 H39 0.930 . S
C35 C36 1.333 . S
C35 N37 1.317 . S
C35 H40 0.930 . S
C36 C35 1.333 . S
C36 N38 1.350 . S
C36 H62 0.931 . S
N37 Co33 2.148 . S
N37 C34 1.301 . S
N37 C35 1.317 . S
N38 C34 1.328 . S
N38 C36 1.350 . S
H39 C34 0.930 . S
H40 C35 0.930 . S
C41 O42 1.224 . S
C41 O60 1.247 . S
O42 C41 1.224 . S
N43 Co33 2.128 . S
N43 C44 1.355 . S
N43 C46 1.311 . S
C44 N43 1.355 . S
C44 C45 1.363 . S
C44 H56 0.929 . S
C45 C44 1.363 . S
C45 N47 1.375 . S
C45 H63 0.931 . S
C46 N43 1.311 . S
C46 N47 1.347 . S
C46 H57 0.929 . S
N47 C45 1.375 . S
N47 C46 1.347 . S
C48 C51 1.365 . S
C48 N53 1.328 . S
C48 H54 0.929 . S
C49 C50 1.362 . S
C49 C52 1.378 . S
C49 H64 0.929 . S
C50 C49 1.362 . S
C50 C51 1.366 . S
C51 C48 1.365 . S
C51 C50 1.366 . S
C51 H65 0.930 . S
C52 C49 1.378 . S
C52 N53 1.315 . S
C52 H55 0.930 . S
N53 Co33 2.194 . S
N53 C48 1.328 . S
N53 C52 1.315 . S
H54 C48 0.929 . S
H55 C52 0.930 . S
H56 C44 0.929 . S
H57 C46 0.929 . S
O58 Co33 2.351 . S
O58 C61 1.244 . S
O59 Co33 2.155 . S
O59 C61 1.240 . S
O60 Co33 2.096 . S
O60 C41 1.247 . S
C61 O58 1.244 . S
C61 O59 1.240 . S
H62 C36 0.931 . S
H63 C45 0.931 . S
H64 C49 0.929 . S
H65 C51 0.930 . S
Co66 N70 2.148 . S
Co66 N76 2.128 . S
Co66 N86 2.194 . S
Co66 O91 2.351 . S
Co66 O92 2.155 . S
Co66 O93 2.096 . S
C67 N70 1.301 1_554 S
C67 N71 1.328 . S
C67 H72 0.930 . S
C68 C69 1.333 . S
C68 N70 1.317 . S
C68 H73 0.930 . S
C69 C68 1.333 . S
C69 N71 1.350 1_556 S
C69 H95 0.931 . S
N70 Co66 2.148 . S
N70 C67 1.301 1_556 S
N70 C68 1.317 . S
N71 C67 1.328 . S
N71 C69 1.350 1_554 S
H72 C67 0.930 . S
H73 C68 0.930 . S
C74 O75 1.224 . S
C74 O93 1.247 . S
O75 C74 1.224 . S
N76 Co66 2.128 . S
N76 C77 1.355 . S
N76 C79 1.311 . S
C77 N76 1.355 . S
C77 C78 1.363 . S
C77 H89 0.929 . S
C78 C77 1.363 . S
C78 N80 1.375 . S
C78 H96 0.931 . S
C79 N76 1.311 . S
C79 N80 1.347 . S
C79 H90 0.929 . S
N80 C78 1.375 . S
N80 C79 1.347 . S
C81 C84 1.365 . S
C81 N86 1.328 . S
C81 H87 0.929 . S
C82 C83 1.362 . S
C82 C85 1.378 . S
C82 H97 0.929 . S
C83 C82 1.362 . S
C83 C84 1.366 . S
C84 C81 1.365 . S
C84 C83 1.366 . S
C84 H98 0.930 1_556 S
C85 C82 1.378 . S
C85 N86 1.315 . S
C85 H88 0.930 . S
N86 Co66 2.194 . S
N86 C81 1.328 . S
N86 C85 1.315 . S
H87 C81 0.929 . S
H88 C85 0.930 . S
H89 C77 0.929 . S
H90 C79 0.929 . S
O91 Co66 2.351 . S
O91 C94 1.244 . S
O92 Co66 2.155 . S
O92 C94 1.240 . S
O93 Co66 2.096 . S
O93 C74 1.247 . S
C94 O91 1.244 . S
C94 O92 1.240 . S
H95 C69 0.931 . S
H96 C78 0.931 . S
H97 C82 0.929 . S
H98 C84 0.930 1_554 S
Co99 N103 2.148 . S
Co99 N109 2.128 . S
Co99 N119 2.194 . S
Co99 O124 2.351 . S
Co99 O125 2.155 . S
Co99 O126 2.096 . S
C100 N103 1.301 . S
C100 N104 1.328 . S
C100 H105 0.930 . S
C101 C102 1.333 . S
C101 N103 1.317 . S
C101 H106 0.930 . S
C102 C101 1.333 . S
C102 N104 1.350 . S
C102 H128 0.931 . S
N103 Co99 2.148 . S
N103 C100 1.301 . S
N103 C101 1.317 . S
N104 C100 1.328 . S
N104 C102 1.350 . S
H105 C100 0.930 . S
H106 C101 0.930 . S
C107 O108 1.224 . S
C107 O126 1.247 . S
O108 C107 1.224 . S
N109 Co99 2.128 . S
N109 C110 1.355 . S
N109 C112 1.311 . S
C110 N109 1.355 . S
C110 C111 1.363 . S
C110 H122 0.929 . S
C111 C110 1.363 . S
C111 N113 1.375 . S
C111 H129 0.931 . S
C112 N109 1.311 . S
C112 N113 1.347 . S
C112 H123 0.929 . S
N113 C111 1.375 . S
N113 C112 1.347 . S
C114 C117 1.365 . S
C114 N119 1.328 . S
C114 H120 0.929 . S
C115 C116 1.362 . S
C115 C118 1.378 . S
C115 H130 0.929 . S
C116 C115 1.362 . S
C116 C117 1.366 . S
C117 C114 1.365 . S
C117 C116 1.366 . S
C117 H131 0.930 . S
C118 C115 1.378 . S
C118 N119 1.315 . S
C118 H121 0.930 . S
N119 Co99 2.194 . S
N119 C114 1.328 . S
N119 C118 1.315 . S
H120 C114 0.929 . S
H121 C118 0.930 . S
H122 C110 0.929 . S
H123 C112 0.929 . S
O124 Co99 2.351 . S
O124 C127 1.244 . S
O125 Co99 2.155 . S
O125 C127 1.240 . S
O126 Co99 2.096 . S
O126 C107 1.247 . S
C127 O124 1.244 . S
C127 O125 1.240 . S
H128 C102 0.931 . S
H129 C111 0.931 . S
H130 C115 0.929 . S
H131 C117 0.930 . S
Co132 N136 2.148 . S
Co132 N142 2.128 . S
Co132 N152 2.194 . S
Co132 O157 2.351 . S
Co132 O158 2.155 . S
Co132 O159 2.096 . S
C133 N136 1.301 1_556 S
C133 N137 1.328 . S
C133 H138 0.930 . S
C134 C135 1.333 . S
C134 N136 1.317 . S
C134 H139 0.930 . S
C135 C134 1.333 . S
C135 N137 1.350 1_554 S
C135 H161 0.931 . S
N136 Co132 2.148 . S
N136 C133 1.301 1_554 S
N136 C134 1.317 . S
N137 C133 1.328 . S
N137 C135 1.350 1_556 S
H138 C133 0.930 . S
H139 C134 0.930 . S
C140 O141 1.224 . S
C140 O159 1.247 . S
O141 C140 1.224 . S
N142 Co132 2.128 . S
N142 C143 1.355 . S
N142 C145 1.311 . S
C143 N142 1.355 . S
C143 C144 1.363 . S
C143 H155 0.929 . S
C144 C143 1.363 . S
C144 N146 1.375 . S
C144 H162 0.931 . S
C145 N142 1.311 . S
C145 N146 1.347 . S
C145 H156 0.929 . S
N146 C144 1.375 . S
N146 C145 1.347 . S
C147 C150 1.365 . S
C147 N152 1.328 . S
C147 H153 0.929 . S
C148 C149 1.362 . S
C148 C151 1.378 . S
C148 H163 0.929 . S
C149 C148 1.362 . S
C149 C150 1.366 . S
C150 C147 1.365 . S
C150 C149 1.366 . S
C150 H164 0.930 1_554 S
C151 C148 1.378 . S
C151 N152 1.315 . S
C151 H154 0.930 . S
N152 Co132 2.194 . S
N152 C147 1.328 . S
N152 C151 1.315 . S
H153 C147 0.929 . S
H154 C151 0.930 . S
H155 C143 0.929 . S
H156 C145 0.929 . S
O157 Co132 2.351 . S
O157 C160 1.244 . S
O158 Co132 2.155 . S
O158 C160 1.240 . S
O159 Co132 2.096 . S
O159 C140 1.247 . S
C160 O157 1.244 . S
C160 O158 1.240 . S
H161 C135 0.931 . S
H162 C144 0.931 . S
H163 C148 0.929 . S
H164 C150 0.930 1_556 S
Co165 N169 2.148 . S
Co165 N175 2.128 . S
Co165 N185 2.194 . S
Co165 O190 2.351 . S
Co165 O191 2.155 . S
Co165 O192 2.096 . S
C166 N169 1.301 . S
C166 N170 1.328 . S
C166 H171 0.930 . S
C167 C168 1.333 . S
C167 N169 1.317 . S
C167 H172 0.930 . S
C168 C167 1.333 . S
C168 N170 1.350 . S
C168 H194 0.931 . S
N169 Co165 2.148 . S
N169 C166 1.301 . S
N169 C167 1.317 . S
N170 C166 1.328 . S
N170 C168 1.350 . S
H171 C166 0.930 . S
H172 C167 0.930 . S
C173 O174 1.224 . S
C173 O192 1.247 . S
O174 C173 1.224 . S
N175 Co165 2.128 . S
N175 C176 1.355 . S
N175 C178 1.311 . S
C176 N175 1.355 . S
C176 C177 1.363 . S
C176 H188 0.929 . S
C177 C176 1.363 . S
C177 N179 1.375 . S
C177 H195 0.931 . S
C178 N175 1.311 . S
C178 N179 1.347 . S
C178 H189 0.929 . S
N179 C177 1.375 . S
N179 C178 1.347 . S
C180 C183 1.365 . S
C180 N185 1.328 . S
C180 H186 0.929 . S
C181 C182 1.362 . S
C181 C184 1.378 . S
C181 H196 0.929 . S
C182 C181 1.362 . S
C182 C183 1.366 . S
C183 C180 1.365 . S
C183 C182 1.366 . S
C183 H197 0.930 . S
C184 C181 1.378 . S
C184 N185 1.315 . S
C184 H187 0.930 . S
N185 Co165 2.194 . S
N185 C180 1.328 . S
N185 C184 1.315 . S
H186 C180 0.929 . S
H187 C184 0.930 . S
H188 C176 0.929 . S
H189 C178 0.929 . S
O190 Co165 2.351 . S
O190 C193 1.244 . S
O191 Co165 2.155 . S
O191 C193 1.240 . S
O192 Co165 2.096 . S
O192 C173 1.247 . S
C193 O190 1.244 . S
C193 O191 1.240 . S
H194 C168 0.931 . S
H195 C177 0.931 . S
H196 C181 0.929 . S
H197 C183 0.930 . S
Co198 N202 2.148 . S
Co198 N208 2.128 . S
Co198 N218 2.194 . S
Co198 O223 2.351 . S
Co198 O224 2.155 . S
Co198 O225 2.096 . S
C199 N202 1.301 1_554 S
C199 N203 1.328 . S
C199 H204 0.930 . S
C200 C201 1.333 . S
C200 N202 1.317 . S
C200 H205 0.930 . S
C201 C200 1.333 . S
C201 N203 1.350 1_556 S
C201 H227 0.931 . S
N202 Co198 2.148 . S
N202 C199 1.301 1_556 S
N202 C200 1.317 . S
N203 C199 1.328 . S
N203 C201 1.350 1_554 S
H204 C199 0.930 . S
H205 C200 0.930 . S
C206 O207 1.224 . S
C206 O225 1.247 . S
O207 C206 1.224 . S
N208 Co198 2.128 . S
N208 C209 1.355 . S
N208 C211 1.311 . S
C209 N208 1.355 . S
C209 C210 1.363 . S
C209 H221 0.929 . S
C210 C209 1.363 . S
C210 N212 1.375 . S
C210 H228 0.931 . S
C211 N208 1.311 . S
C211 N212 1.347 . S
C211 H222 0.929 . S
N212 C210 1.375 . S
N212 C211 1.347 . S
C213 C216 1.365 . S
C213 N218 1.328 . S
C213 H219 0.929 . S
C214 C215 1.362 . S
C214 C217 1.378 . S
C214 H229 0.929 . S
C215 C214 1.362 . S
C215 C216 1.366 . S
C216 C213 1.365 . S
C216 C215 1.366 . S
C216 H230 0.930 1_556 S
C217 C214 1.378 . S
C217 N218 1.315 . S
C217 H220 0.930 . S
N218 Co198 2.194 . S
N218 C213 1.328 . S
N218 C217 1.315 . S
H219 C213 0.929 . S
H220 C217 0.930 . S
H221 C209 0.929 . S
H222 C211 0.929 . S
O223 Co198 2.351 . S
O223 C226 1.244 . S
O224 Co198 2.155 . S
O224 C226 1.240 . S
O225 Co198 2.096 . S
O225 C206 1.247 . S
C226 O223 1.244 . S
C226 O224 1.240 . S
H227 C201 0.931 . S
H228 C210 0.931 . S
H229 C214 0.929 . S
H230 C216 0.930 1_554 S
Co231 N235 2.148 . S
Co231 N241 2.128 . S
Co231 N251 2.194 . S
Co231 O256 2.351 . S
Co231 O257 2.155 . S
Co231 O258 2.096 . S
C232 N235 1.301 . S
C232 N236 1.328 . S
C232 H237 0.930 . S
C233 C234 1.333 . S
C233 N235 1.317 . S
C233 H238 0.930 . S
C234 C233 1.333 . S
C234 N236 1.350 . S
C234 H260 0.931 . S
N235 Co231 2.148 . S
N235 C232 1.301 . S
N235 C233 1.317 . S
N236 C232 1.328 . S
N236 C234 1.350 . S
H237 C232 0.930 . S
H238 C233 0.930 . S
C239 O240 1.224 . S
C239 O258 1.247 . S
O240 C239 1.224 . S
N241 Co231 2.128 . S
N241 C242 1.355 . S
N241 C244 1.311 . S
C242 N241 1.355 . S
C242 C243 1.363 . S
C242 H254 0.929 . S
C243 C242 1.363 . S
C243 N245 1.375 . S
C243 H261 0.931 . S
C244 N241 1.311 . S
C244 N245 1.347 . S
C244 H255 0.929 . S
N245 C243 1.375 . S
N245 C244 1.347 . S
C246 C249 1.365 . S
C246 N251 1.328 . S
C246 H252 0.929 . S
C247 C248 1.362 . S
C247 C250 1.378 . S
C247 H262 0.929 . S
C248 C247 1.362 . S
C248 C249 1.366 . S
C249 C246 1.365 . S
C249 C248 1.366 . S
C249 H263 0.930 . S
C250 C247 1.378 . S
C250 N251 1.315 . S
C250 H253 0.930 . S
N251 Co231 2.194 . S
N251 C246 1.328 . S
N251 C250 1.315 . S
H252 C246 0.929 . S
H253 C250 0.930 . S
H254 C242 0.929 . S
H255 C244 0.929 . S
O256 Co231 2.351 . S
O256 C259 1.244 . S
O257 Co231 2.155 . S
O257 C259 1.240 . S
O258 Co231 2.096 . S
O258 C239 1.247 . S
C259 O256 1.244 . S
C259 O257 1.240 . S
H260 C234 0.931 . S
H261 C243 0.931 . S
H262 C247 0.929 . S
H263 C249 0.930 . S
C264 C265 1.349 . S
C264 C266 1.327 . S
C264 H289 0.950 . S
C265 C264 1.349 . S
C265 C281 1.349 . S
C266 C264 1.327 . S
C266 C285 1.429 . S
C266 H290 0.950 . S
C267 C284 1.574 . S
C267 C286 1.368 . S
C267 H291 0.949 . S
H268 C272 0.949 . S
C269 C270 1.349 . S
C269 C271 1.327 . S
C269 H292 0.950 . S
C270 C269 1.349 . S
C270 C282 1.349 . S
C271 C269 1.327 . S
C271 C287 1.429 . S
C271 H293 0.950 . S
C272 H268 0.949 . S
C272 C280 1.574 . S
C272 C288 1.368 . S
H273 C281 0.950 . S
H274 C279 0.950 . S
H275 C280 0.949 . S
H276 C282 0.950 . S
H277 C283 0.950 . S
H278 C284 0.949 . S
C279 H274 0.950 . S
C279 C281 1.327 . S
C279 C285 1.429 . S
C280 C272 1.574 . S
C280 H275 0.949 . S
C280 C286 1.368 . S
C281 C265 1.349 . S
C281 H273 0.950 . S
C281 C279 1.327 . S
C282 C270 1.349 . S
C282 H276 0.950 . S
C282 C283 1.327 . S
C283 H277 0.950 . S
C283 C282 1.327 . S
C283 C287 1.429 . S
C284 C267 1.574 . S
C284 H278 0.949 . S
C284 C288 1.368 . S
C285 C266 1.429 . S
C285 C279 1.429 . S
C285 C286 1.523 . S
C286 C267 1.368 . S
C286 C280 1.368 . S
C286 C285 1.523 . S
C287 C271 1.429 . S
C287 C283 1.429 . S
C287 C288 1.523 . S
C288 C272 1.368 . S
C288 C284 1.368 . S
C288 C287 1.523 . S
H289 C264 0.950 . S
H290 C266 0.950 . S
H291 C267 0.949 . S
H292 C269 0.950 . S
H293 C271 0.950 . S
C294 C295 1.349 . S
C294 C296 1.327 . S
C294 H319 0.950 . S
C295 C294 1.349 . S
C295 C311 1.349 . S
C296 C294 1.327 . S
C296 C315 1.429 . S
C296 H320 0.950 . S
C297 C314 1.574 . S
C297 C316 1.368 . S
C297 H321 0.949 . S
H298 C302 0.949 . S
C299 C300 1.349 . S
C299 C301 1.327 . S
C299 H322 0.950 . S
C300 C299 1.349 . S
C300 C312 1.349 . S
C301 C299 1.327 . S
C301 C317 1.429 . S
C301 H323 0.950 . S
C302 H298 0.949 . S
C302 C310 1.574 . S
C302 C318 1.368 . S
H303 C311 0.950 . S
H304 C309 0.950 . S
H305 C310 0.949 . S
H306 C312 0.950 . S
H307 C313 0.950 . S
H308 C314 0.949 . S
C309 H304 0.950 . S
C309 C311 1.327 . S
C309 C315 1.429 . S
C310 C302 1.574 . S
C310 H305 0.949 . S
C310 C316 1.368 . S
C311 C295 1.349 . S
C311 H303 0.950 . S
C311 C309 1.327 . S
C312 C300 1.349 . S
C312 H306 0.950 . S
C312 C313 1.327 . S
C313 H307 0.950 . S
C313 C312 1.327 . S
C313 C317 1.429 . S
C314 C297 1.574 . S
C314 H308 0.949 . S
C314 C318 1.368 . S
C315 C296 1.429 . S
C315 C309 1.429 . S
C315 C316 1.523 . S
C316 C297 1.368 . S
C316 C310 1.368 . S
C316 C315 1.523 . S
C317 C301 1.429 . S
C317 C313 1.429 . S
C317 C318 1.523 . S
C318 C302 1.368 . S
C318 C314 1.368 . S
C318 C317 1.523 . S
H319 C294 0.950 . S
H320 C296 0.950 . S
H321 C297 0.949 . S
H322 C299 0.950 . S
H323 C301 0.950 . S
C324 C325 1.349 . S
C324 C326 1.327 . S
C324 H349 0.950 . S
C325 C324 1.349 . S
C325 C341 1.349 . S
C326 C324 1.327 . S
C326 C345 1.429 . S
C326 H350 0.950 . S
C327 C344 1.574 . S
C327 C346 1.368 . S
C327 H351 0.949 . S
H328 C332 0.949 . S
C329 C330 1.349 . S
C329 C331 1.327 . S
C329 H352 0.950 . S
C330 C329 1.349 . S
C330 C342 1.349 . S
C331 C329 1.327 . S
C331 C347 1.429 . S
C331 H353 0.950 . S
C332 H328 0.949 . S
C332 C340 1.574 . S
C332 C348 1.368 . S
H333 C341 0.950 . S
H334 C339 0.950 . S
H335 C340 0.949 . S
H336 C342 0.950 . S
H337 C343 0.950 . S
H338 C344 0.949 . S
C339 H334 0.950 . S
C339 C341 1.327 . S
C339 C345 1.429 . S
C340 C332 1.574 . S
C340 H335 0.949 . S
C340 C346 1.368 . S
C341 C325 1.349 . S
C341 H333 0.950 . S
C341 C339 1.327 . S
C342 C330 1.349 . S
C342 H336 0.950 . S
C342 C343 1.327 . S
C343 H337 0.950 . S
C343 C342 1.327 . S
C343 C347 1.429 . S
C344 C327 1.574 . S
C344 H338 0.949 . S
C344 C348 1.368 . S
C345 C326 1.429 . S
C345 C339 1.429 . S
C345 C346 1.523 . S
C346 C327 1.368 . S
C346 C340 1.368 . S
C346 C345 1.523 . S
C347 C331 1.429 . S
C347 C343 1.429 . S
C347 C348 1.523 . S
C348 C332 1.368 . S
C348 C344 1.368 . S
C348 C347 1.523 . S
H349 C324 0.950 . S
H350 C326 0.950 . S
H351 C327 0.949 . S
H352 C329 0.950 . S
H353 C331 0.950 . S
C354 C355 1.349 . S
C354 C356 1.327 . S
C354 H379 0.950 . S
C355 C354 1.349 . S
C355 C371 1.349 . S
C356 C354 1.327 . S
C356 C375 1.429 . S
C356 H380 0.950 . S
C357 C374 1.574 . S
C357 C376 1.368 . S
C357 H381 0.949 . S
H358 C362 0.949 . S
C359 C360 1.349 . S
C359 C361 1.327 . S
C359 H382 0.950 . S
C360 C359 1.349 . S
C360 C372 1.349 . S
C361 C359 1.327 . S
C361 C377 1.429 . S
C361 H383 0.950 . S
C362 H358 0.949 . S
C362 C370 1.574 . S
C362 C378 1.368 . S
H363 C371 0.950 . S
H364 C369 0.950 . S
H365 C370 0.949 . S
H366 C372 0.950 . S
H367 C373 0.950 . S
H368 C374 0.949 . S
C369 H364 0.950 . S
C369 C371 1.327 . S
C369 C375 1.429 . S
C370 C362 1.574 . S
C370 H365 0.949 . S
C370 C376 1.368 . S
C371 C355 1.349 . S
C371 H363 0.950 . S
C371 C369 1.327 . S
C372 C360 1.349 . S
C372 H366 0.950 . S
C372 C373 1.327 . S
C373 H367 0.950 . S
C373 C372 1.327 . S
C373 C377 1.429 . S
C374 C357 1.574 . S
C374 H368 0.949 . S
C374 C378 1.368 . S
C375 C356 1.429 . S
C375 C369 1.429 . S
C375 C376 1.523 . S
C376 C357 1.368 . S
C376 C370 1.368 . S
C376 C375 1.523 . S
C377 C361 1.429 . S
C377 C373 1.429 . S
C377 C378 1.523 . S
C378 C362 1.368 . S
C378 C374 1.368 . S
C378 C377 1.523 . S
H379 C354 0.950 . S
H380 C356 0.950 . S
H381 C357 0.949 . S
H382 C359 0.950 . S
H383 C361 0.950 . S
C384 C385 1.349 . S
C384 C386 1.327 . S
C384 H409 0.950 . S
C385 C384 1.349 . S
C385 C401 1.349 . S
C386 C384 1.327 . S
C386 C405 1.429 . S
C386 H410 0.950 1_565 S
C387 C404 1.574 . S
C387 C406 1.368 . S
C387 H411 0.949 . S
H388 C392 0.949 . S
C389 C390 1.349 . S
C389 C391 1.327 . S
C389 H412 0.950 . S
C390 C389 1.349 . S
C390 C402 1.349 . S
C391 C389 1.327 . S
C391 C407 1.429 . S
C391 H413 0.950 1_545 S
C392 H388 0.949 . S
C392 C400 1.574 . S
C392 C408 1.368 . S
H393 C401 0.950 . S
H394 C399 0.950 . S
H395 C400 0.949 . S
H396 C402 0.950 . S
H397 C403 0.950 . S
H398 C404 0.949 . S
C399 H394 0.950 . S
C399 C401 1.327 . S
C399 C405 1.429 . S
C400 C392 1.574 . S
C400 H395 0.949 . S
C400 C406 1.368 1_545 S
C401 C385 1.349 . S
C401 H393 0.950 . S
C401 C399 1.327 . S
C402 C390 1.349 . S
C402 H396 0.950 . S
C402 C403 1.327 . S
C403 H397 0.950 . S
C403 C402 1.327 . S
C403 C407 1.429 . S
C404 C387 1.574 . S
C404 H398 0.949 . S
C404 C408 1.368 1_565 S
C405 C386 1.429 . S
C405 C399 1.429 . S
C405 C406 1.523 . S
C406 C387 1.368 . S
C406 C400 1.368 1_565 S
C406 C405 1.523 . S
C407 C391 1.429 . S
C407 C403 1.429 . S
C407 C408 1.523 . S
C408 C392 1.368 . S
C408 C404 1.368 1_545 S
C408 C407 1.523 . S
H409 C384 0.950 . S
H410 C386 0.950 1_545 S
H411 C387 0.949 . S
H412 C389 0.950 . S
H413 C391 0.950 1_565 S
C414 C415 1.349 . S
C414 C416 1.327 . S
C414 H439 0.950 . S
C415 C414 1.349 . S
C415 C431 1.349 . S
C416 C414 1.327 . S
C416 C435 1.429 . S
C416 H440 0.950 1_545 S
C417 C434 1.574 . S
C417 C436 1.368 . S
C417 H441 0.949 . S
H418 C422 0.949 . S
C419 C420 1.349 . S
C419 C421 1.327 . S
C419 H442 0.950 . S
C420 C419 1.349 . S
C420 C432 1.349 . S
C421 C419 1.327 . S
C421 C437 1.429 . S
C421 H443 0.950 1_565 S
C422 H418 0.949 . S
C422 C430 1.574 . S
C422 C438 1.368 . S
H423 C431 0.950 . S
H424 C429 0.950 . S
H425 C430 0.949 . S
H426 C432 0.950 . S
H427 C433 0.950 . S
H428 C434 0.949 . S
C429 H424 0.950 . S
C429 C431 1.327 . S
C429 C435 1.429 . S
C430 C422 1.574 . S
C430 H425 0.949 . S
C430 C436 1.368 1_565 S
C431 C415 1.349 . S
C431 H423 0.950 . S
C431 C429 1.327 . S
C432 C420 1.349 . S
C432 H426 0.950 . S
C432 C433 1.327 . S
C433 H427 0.950 . S
C433 C432 1.327 . S
C433 C437 1.429 . S
C434 C417 1.574 . S
C434 H428 0.949 . S
C434 C438 1.368 1_545 S
C435 C416 1.429 . S
C435 C429 1.429 . S
C435 C436 1.523 . S
C436 C417 1.368 . S
C436 C430 1.368 1_545 S
C436 C435 1.523 . S
C437 C421 1.429 . S
C437 C433 1.429 . S
C437 C438 1.523 . S
C438 C422 1.368 . S
C438 C434 1.368 1_565 S
C438 C437 1.523 . S
H439 C414 0.950 . S
H440 C416 0.950 1_565 S
H441 C417 0.949 . S
H442 C419 0.950 . S
H443 C421 0.950 1_545 S
C444 C445 1.349 . S
C444 C446 1.327 . S
C444 H469 0.950 . S
C445 C444 1.349 . S
C445 C461 1.349 . S
C446 C444 1.327 . S
C446 C465 1.429 . S
C446 H470 0.950 1_545 S
C447 C464 1.574 . S
C447 C466 1.368 . S
C447 H471 0.949 . S
H448 C452 0.949 . S
C449 C450 1.349 . S
C449 C451 1.327 . S
C449 H472 0.950 . S
C450 C449 1.349 . S
C450 C462 1.349 . S
C451 C449 1.327 . S
C451 C467 1.429 . S
C451 H473 0.921 1_565 S
C452 H448 0.949 . S
C452 C460 1.574 . S
C452 C468 1.368 . S
H453 C461 0.950 . S
H454 C459 0.950 . S
H455 C460 0.949 . S
H456 C462 0.950 . S
H457 C463 0.950 . S
H458 C464 0.949 . S
C459 H454 0.950 . S
C459 C461 1.327 . S
C459 C465 1.429 . S
C460 C452 1.574 . S
C460 H455 0.949 . S
C460 C466 1.368 1_565 S
C461 C445 1.349 . S
C461 H453 0.950 . S
C461 C459 1.327 . S
C462 C450 1.349 . S
C462 H456 0.950 . S
C462 C463 1.327 . S
C463 H457 0.950 . S
C463 C462 1.327 . S
C463 C467 1.429 . S
C464 C447 1.574 . S
C464 H458 0.949 . S
C464 C468 1.368 1_545 S
C465 C446 1.429 . S
C465 C459 1.429 . S
C465 C466 1.523 . S
C466 C447 1.368 . S
C466 C460 1.368 1_545 S
C466 C465 1.523 . S
C467 C451 1.429 . S
C467 C463 1.429 . S
C467 C468 1.523 . S
C468 C452 1.368 . S
C468 C464 1.368 1_565 S
C468 C467 1.523 . S
H469 C444 0.950 . S
H470 C446 0.950 1_565 S
H471 C447 0.949 . S
H472 C449 0.950 . S
H473 C451 0.921 1_545 S
C474 C475 1.349 . S
C474 C476 1.327 . S
C474 H499 0.950 . S
C475 C474 1.349 . S
C475 C491 1.349 . S
C476 C474 1.327 . S
C476 C495 1.429 . S
C476 H500 0.950 1_545 S
C477 C494 1.574 . S
C477 C496 1.368 . S
C477 H501 0.949 . S
H478 C482 0.949 . S
C479 C480 1.349 . S
C479 C481 1.327 . S
C479 H502 0.950 . S
C480 C479 1.349 . S
C480 C492 1.349 . S
C481 C479 1.327 . S
C481 C497 1.429 . S
C481 H503 0.950 1_565 S
C482 H478 0.949 . S
C482 C490 1.574 . S
C482 C498 1.368 . S
H483 C491 0.950 . S
H484 C489 0.950 . S
H485 C490 0.949 . S
H486 C492 0.950 . S
H487 C493 0.950 . S
H488 C494 0.949 . S
C489 H484 0.950 . S
C489 C491 1.327 . S
C489 C495 1.429 . S
C490 C482 1.574 . S
C490 H485 0.949 . S
C490 C496 1.368 1_565 S
C491 C475 1.349 . S
C491 H483 0.950 . S
C491 C489 1.327 . S
C492 C480 1.349 . S
C492 H486 0.950 . S
C492 C493 1.327 . S
C493 H487 0.950 . S
C493 C492 1.327 . S
C493 C497 1.429 . S
C494 C477 1.574 . S
C494 H488 0.949 . S
C494 C498 1.368 1_545 S
C495 C476 1.429 . S
C495 C489 1.429 . S
C495 C496 1.523 . S
C496 C477 1.368 . S
C496 C490 1.368 1_545 S
C496 C495 1.523 . S
C497 C481 1.429 . S
C497 C493 1.429 . S
C497 C498 1.523 . S
C498 C482 1.368 . S
C498 C494 1.368 1_565 S
C498 C497 1.523 . S
H499 C474 0.950 . S
H500 C476 0.950 1_565 S
H501 C477 0.949 . S
H502 C479 0.950 . S
H503 C481 0.950 1_545 S
C504 C505 1.349 . S
C504 C506 1.327 . S
C504 H529 0.950 . S
C505 C504 1.349 . S
C505 C521 1.349 1_554 S
C506 C504 1.327 . S
C506 C525 1.429 . S
C506 H530 0.950 . S
C507 C524 1.574 . S
C507 C526 1.368 1_556 S
C507 H531 0.949 . S
H508 C512 0.949 . S
C509 C510 1.349 . S
C509 C511 1.327 . S
C509 H532 0.950 . S
C510 C509 1.349 . S
C510 C522 1.349 1_556 S
C511 C509 1.327 . S
C511 C527 1.429 . S
C511 H533 0.950 . S
C512 H508 0.949 . S
C512 C520 1.574 . S
C512 C528 1.368 1_554 S
H513 C521 0.950 . S
H514 C519 0.950 . S
H515 C520 0.949 . S
H516 C522 0.950 . S
H517 C523 0.950 . S
H518 C524 0.949 . S
C519 H514 0.950 . S
C519 C521 1.327 . S
C519 C525 1.429 1_556 S
C520 C512 1.574 . S
C520 H515 0.949 . S
C520 C526 1.368 . S
C521 C505 1.349 1_556 S
C521 H513 0.950 . S
C521 C519 1.327 . S
C522 C510 1.349 1_554 S
C522 H516 0.950 . S
C522 C523 1.327 . S
C523 H517 0.950 . S
C523 C522 1.327 . S
C523 C527 1.429 1_554 S
C524 C507 1.574 . S
C524 H518 0.949 . S
C524 C528 1.368 . S
C525 C506 1.429 . S
C525 C519 1.429 1_554 S
C525 C526 1.523 . S
C526 C507 1.368 1_554 S
C526 C520 1.368 . S
C526 C525 1.523 . S
C527 C511 1.429 . S
C527 C523 1.429 1_556 S
C527 C528 1.523 . S
C528 C512 1.368 1_556 S
C528 C524 1.368 . S
C528 C527 1.523 . S
H529 C504 0.950 . S
H530 C506 0.950 . S
H531 C507 0.949 . S
H532 C509 0.950 . S
H533 C511 0.950 . S
C534 C535 1.349 . S
C534 C536 1.327 . S
C534 H559 0.950 . S
C535 C534 1.349 . S
C535 C551 1.349 . S
C536 C534 1.327 . S
C536 C555 1.429 . S
C536 H560 0.950 . S
C537 C554 1.574 . S
C537 C556 1.368 . S
C537 H561 0.949 . S
H538 C542 0.949 . S
C539 C540 1.349 . S
C539 C541 1.327 . S
C539 H562 0.950 . S
C540 C539 1.349 . S
C540 C552 1.349 . S
C541 C539 1.327 . S
C541 C557 1.429 . S
C541 H563 0.950 . S
C542 H538 0.949 . S
C542 C550 1.574 . S
C542 C558 1.368 . S
H543 C551 0.950 . S
H544 C549 0.950 . S
H545 C550 0.949 . S
H546 C552 0.950 . S
H547 C553 0.950 . S
H548 C554 0.949 . S
C549 H544 0.950 . S
C549 C551 1.327 . S
C549 C555 1.429 . S
C550 C542 1.574 . S
C550 H545 0.949 . S
C550 C556 1.368 . S
C551 C535 1.349 . S
C551 H543 0.950 . S
C551 C549 1.327 . S
C552 C540 1.349 . S
C552 H546 0.950 . S
C552 C553 1.327 . S
C553 H547 0.950 . S
C553 C552 1.327 . S
C553 C557 1.429 . S
C554 C537 1.574 . S
C554 H548 0.949 . S
C554 C558 1.368 . S
C555 C536 1.429 . S
C555 C549 1.429 . S
C555 C556 1.523 . S
C556 C537 1.368 . S
C556 C550 1.368 . S
C556 C555 1.523 . S
C557 C541 1.429 . S
C557 C553 1.429 . S
C557 C558 1.523 . S
C558 C542 1.368 . S
C558 C554 1.368 . S
C558 C557 1.523 . S
H559 C534 0.950 . S
H560 C536 0.950 . S
H561 C537 0.949 . S
H562 C539 0.950 . S
H563 C541 0.950 . S
C564 C565 1.349 . S
C564 C566 1.327 . S
C564 H589 0.950 . S
C565 C564 1.349 . S
C565 C581 1.353 . S
C566 C564 1.327 . S
C566 C585 1.429 . S
C566 H590 0.930 1_545 S
C567 C584 1.574 1_455 S
C567 C586 1.368 1_554 S
C567 H591 0.949 . S
H568 C572 0.949 . S
C569 C570 1.349 . S
C569 C571 1.327 . S
C569 H592 0.950 . S
C570 C569 1.349 . S
C570 C582 1.353 . S
C571 C569 1.327 . S
C571 C587 1.429 . S
C571 H593 0.930 1_565 S
C572 H568 0.949 . S
C572 C580 1.574 1_655 S
C572 C588 1.368 1_556 S
H573 C581 0.947 1_554 S
H574 C579 0.950 . S
H575 C580 0.949 . S
H576 C582 0.947 1_556 S
H577 C583 0.950 . S
H578 C584 0.949 . S
C579 H574 0.950 . S
C579 C581 1.326 1_554 S
C579 C585 1.429 1_554 S
C580 C572 1.574 1_455 S
C580 H575 0.949 . S
C580 C586 1.368 1_565 S
C581 C565 1.353 . S
C581 H573 0.947 1_556 S
C581 C579 1.326 1_556 S
C582 C570 1.353 . S
C582 H576 0.947 1_554 S
C582 C583 1.326 1_554 S
C583 H577 0.950 . S
C583 C582 1.326 1_556 S
C583 C587 1.429 1_556 S
C584 C567 1.574 1_655 S
C584 H578 0.949 . S
C584 C588 1.368 1_545 S
C585 C566 1.429 . S
C585 C579 1.429 1_556 S
C585 C586 1.523 . S
C586 C567 1.368 1_556 S
C586 C580 1.368 1_545 S
C586 C585 1.523 . S
C587 C571 1.429 . S
C587 C583 1.429 1_554 S
C587 C588 1.523 . S
C588 C572 1.368 1_554 S
C588 C584 1.368 1_565 S
C588 C587 1.523 . S
H589 C564 0.950 . S
H590 C566 0.930 1_565 S
H591 C567 0.949 . S
H592 C569 0.950 . S
H593 C571 0.930 1_545 S
C594 C595 1.349 . S
C594 C596 1.327 . S
C594 H619 0.950 . S
C595 C594 1.349 . S
C595 C611 1.349 . S
C596 C594 1.327 . S
C596 C615 1.429 . S
C596 H620 0.950 . S
C597 C614 1.574 1_655 S
C597 C616 1.368 1_565 S
C597 H621 0.949 . S
H598 C602 0.949 . S
C599 C600 1.349 . S
C599 C601 1.327 . S
C599 H622 0.950 . S
C600 C599 1.349 . S
C600 C612 1.349 . S
C601 C599 1.327 . S
C601 C617 1.429 . S
C601 H623 0.950 . S
C602 H598 0.949 . S
C602 C610 1.574 1_455 S
C602 C618 1.368 1_545 S
H603 C611 0.950 . S
H604 C609 0.950 1_565 S
H605 C610 0.949 . S
H606 C612 0.950 . S
H607 C613 0.950 1_545 S
H608 C614 0.949 . S
C609 H604 0.950 1_545 S
C609 C611 1.327 . S
C609 C615 1.429 . S
C610 C602 1.574 1_655 S
C610 H605 0.949 . S
C610 C616 1.368 . S
C611 C595 1.349 . S
C611 H603 0.950 . S
C611 C609 1.327 . S
C612 C600 1.349 . S
C612 H606 0.950 . S
C612 C613 1.327 . S
C613 H607 0.950 1_565 S
C613 C612 1.327 . S
C613 C617 1.429 . S
C614 C597 1.574 1_455 S
C614 H608 0.949 . S
C614 C618 1.368 . S
C615 C596 1.429 . S
C615 C609 1.429 . S
C615 C616 1.523 . S
C616 C597 1.368 1_545 S
C616 C610 1.368 . S
C616 C615 1.523 . S
C617 C601 1.429 . S
C617 C613 1.429 . S
C617 C618 1.523 . S
C618 C602 1.368 1_565 S
C618 C614 1.368 . S
C618 C617 1.523 . S
H619 C594 0.950 . S
H620 C596 0.950 . S
H621 C597 0.949 . S
H622 C599 0.950 . S
H623 C601 0.950 . S
C624 C625 1.349 . S
C624 C626 1.327 1_554 S
C624 H649 0.950 1_554 S
C625 C624 1.349 . S
C625 C641 1.349 . S
C626 C624 1.327 1_556 S
C626 C645 1.429 1_556 S
C626 H650 0.950 . S
C627 C644 1.574 . S
C627 C646 1.368 . S
C627 H651 0.949 . S
H628 C632 0.949 . S
C629 C630 1.349 . S
C629 C631 1.327 1_556 S
C629 H652 0.950 1_556 S
C630 C629 1.349 . S
C630 C642 1.349 . S
C631 C629 1.327 1_554 S
C631 C647 1.429 1_554 S
C631 H653 0.950 . S
C632 H628 0.949 . S
C632 C640 1.574 . S
C632 C648 1.368 . S
H633 C641 0.950 . S
H634 C639 0.950 . S
H635 C640 0.949 . S
H636 C642 0.950 . S
H637 C643 0.950 . S
H638 C644 0.949 . S
C639 H634 0.950 . S
C639 C641 1.327 . S
C639 C645 1.429 . S
C640 C632 1.574 . S
C640 H635 0.949 . S
C640 C646 1.368 1_556 S
C641 C625 1.349 . S
C641 H633 0.950 . S
C641 C639 1.327 . S
C642 C630 1.349 . S
C642 H636 0.950 . S
C642 C643 1.327 . S
C643 H637 0.950 . S
C643 C642 1.327 . S
C643 C647 1.429 . S
C644 C627 1.574 . S
C644 H638 0.949 . S
C644 C648 1.368 1_554 S
C645 C626 1.429 1_554 S
C645 C639 1.429 . S
C645 C646 1.523 . S
C646 C627 1.368 . S
C646 C640 1.368 1_554 S
C646 C645 1.523 . S
C647 C631 1.429 1_556 S
C647 C643 1.429 . S
C647 C648 1.523 . S
C648 C632 1.368 . S
C648 C644 1.368 1_556 S
C648 C647 1.523 . S
H649 C624 0.950 1_556 S
H650 C626 0.950 . S
H651 C627 0.949 . S
H652 C629 0.950 1_554 S
H653 C631 0.950 . S
C654 C655 1.349 . S
C654 C656 1.327 . S
C654 H679 0.950 . S
C655 C654 1.349 . S
C655 C671 1.349 . S
C656 C654 1.327 . S
C656 C675 1.429 . S
C656 H680 0.950 . S
C657 C674 1.574 . S
C657 C676 1.368 . S
C657 H681 0.949 . S
H658 C662 0.949 . S
C659 C660 1.349 . S
C659 C661 1.327 . S
C659 H682 0.950 . S
C660 C659 1.349 . S
C660 C672 1.349 . S
C661 C659 1.327 . S
C661 C677 1.429 . S
C661 H683 0.950 . S
C662 H658 0.949 . S
C662 C670 1.574 . S
C662 C678 1.368 . S
H663 C671 0.950 . S
H664 C669 0.950 . S
H665 C670 0.949 . S
H666 C672 0.950 . S
H667 C673 0.950 . S
H668 C674 0.949 . S
C669 H664 0.950 . S
C669 C671 1.327 . S
C669 C675 1.429 . S
C670 C662 1.574 . S
C670 H665 0.949 . S
C670 C676 1.368 . S
C671 C655 1.349 . S
C671 H663 0.950 . S
C671 C669 1.327 . S
C672 C660 1.349 . S
C672 H666 0.950 . S
C672 C673 1.327 . S
C673 H667 0.950 . S
C673 C672 1.327 . S
C673 C677 1.429 . S
C674 C657 1.574 . S
C674 H668 0.949 . S
C674 C678 1.368 . S
C675 C656 1.429 . S
C675 C669 1.429 . S
C675 C676 1.523 . S
C676 C657 1.368 . S
C676 C670 1.368 . S
C676 C675 1.523 . S
C677 C661 1.429 . S
C677 C673 1.429 . S
C677 C678 1.523 . S
C678 C662 1.368 . S
C678 C674 1.368 . S
C678 C677 1.523 . S
H679 C654 0.950 . S
H680 C656 0.950 . S
H681 C657 0.949 . S
H682 C659 0.950 . S
H683 C661 0.950 . S
C684 C685 1.349 . S
C684 C686 1.327 . S
C684 H709 0.950 . S
C685 C684 1.349 . S
C685 C701 1.349 . S
C686 C684 1.327 . S
C686 C705 1.429 . S
C686 H710 0.950 . S
C687 C704 1.574 . S
C687 C706 1.368 1_556 S
C687 H711 0.949 . S
H688 C692 0.949 . S
C689 C690 1.349 . S
C689 C691 1.327 . S
C689 H712 0.950 . S
C690 C689 1.349 . S
C690 C702 1.349 . S
C691 C689 1.327 . S
C691 C707 1.429 . S
C691 H713 0.950 . S
C692 H688 0.949 . S
C692 C700 1.574 . S
C692 C708 1.368 1_554 S
H693 C701 0.950 1_556 S
H694 C699 0.950 . S
H695 C700 0.949 . S
H696 C702 0.950 1_554 S
H697 C703 0.950 . S
H698 C704 0.949 . S
C699 H694 0.950 . S
C699 C701 1.327 1_556 S
C699 C705 1.429 1_556 S
C700 C692 1.574 . S
C700 H695 0.949 . S
C700 C706 1.368 . S
C701 C685 1.349 . S
C701 H693 0.950 1_554 S
C701 C699 1.327 1_554 S
C702 C690 1.349 . S
C702 H696 0.950 1_556 S
C702 C703 1.327 1_556 S
C703 H697 0.950 . S
C703 C702 1.327 1_554 S
C703 C707 1.429 1_554 S
C704 C687 1.574 . S
C704 H698 0.949 . S
C704 C708 1.368 . S
C705 C686 1.429 . S
C705 C699 1.429 1_554 S
C705 C706 1.523 . S
C706 C687 1.368 1_554 S
C706 C700 1.368 . S
C706 C705 1.523 . S
C707 C691 1.429 . S
C707 C703 1.429 1_556 S
C707 C708 1.523 . S
C708 C692 1.368 1_556 S
C708 C704 1.368 . S
C708 C707 1.523 . S
H709 C684 0.950 . S
H710 C686 0.950 . S
H711 C687 0.949 . S
H712 C689 0.950 . S
H713 C691 0.950 . S
C714 C715 1.349 . S
C714 C716 1.327 . S
C714 H739 0.950 . S
C715 C714 1.349 . S
C715 C731 1.349 . S
C716 C714 1.327 . S
C716 C735 1.429 . S
C716 H740 0.950 . S
C717 C734 1.574 . S
C717 C736 1.368 . S
C717 H741 0.949 . S
H718 C722 0.949 . S
C719 C720 1.349 . S
C719 C721 1.327 . S
C719 H742 0.950 . S
C720 C719 1.349 . S
C720 C732 1.349 . S
C721 C719 1.327 . S
C721 C737 1.429 . S
C721 H743 0.950 . S
C722 H718 0.949 . S
C722 C730 1.574 . S
C722 C738 1.368 . S
H723 C731 0.950 . S
H724 C729 0.950 . S
H725 C730 0.949 . S
H726 C732 0.950 . S
H727 C733 0.950 . S
H728 C734 0.949 . S
C729 H724 0.950 . S
C729 C731 1.327 . S
C729 C735 1.429 . S
C730 C722 1.574 . S
C730 H725 0.949 . S
C730 C736 1.368 . S
C731 C715 1.349 . S
C731 H723 0.950 . S
C731 C729 1.327 . S
C732 C720 1.349 . S
C732 H726 0.950 . S
C732 C733 1.327 . S
C733 H727 0.950 . S
C733 C732 1.327 . S
C733 C737 1.429 . S
C734 C717 1.574 . S
C734 H728 0.949 . S
C734 C738 1.368 . S
C735 C716 1.429 . S
C735 C729 1.429 . S
C735 C736 1.523 . S
C736 C717 1.368 . S
C736 C730 1.368 . S
C736 C735 1.523 . S
C737 C721 1.429 . S
C737 C733 1.429 . S
C737 C738 1.523 . S
C738 C722 1.368 . S
C738 C734 1.368 . S
C738 C737 1.523 . S
H739 C714 0.950 . S
H740 C716 0.950 . S
H741 C717 0.949 . S
H742 C719 0.950 . S
H743 C721 0.950 . S
C744 C745 1.349 . S
C744 C746 1.327 . S
C744 H769 0.950 . S
C745 C744 1.349 . S
C745 C761 1.349 . S
C746 C744 1.327 . S
C746 C765 1.429 . S
C746 H770 0.950 . S
C747 C764 1.574 . S
C747 C766 1.368 . S
C747 H771 0.949 . S
H748 C752 0.949 . S
C749 C750 1.349 . S
C749 C751 1.327 . S
C749 H772 0.950 . S
C750 C749 1.349 . S
C750 C762 1.349 . S
C751 C749 1.327 . S
C751 C767 1.429 . S
C751 H773 0.950 . S
C752 H748 0.949 . S
C752 C760 1.574 . S
C752 C768 1.368 . S
H753 C761 0.950 . S
H754 C759 0.950 . S
H755 C760 0.949 . S
H756 C762 0.950 . S
H757 C763 0.950 . S
H758 C764 0.949 . S
C759 H754 0.950 . S
C759 C761 1.327 . S
C759 C765 1.429 . S
C760 C752 1.574 . S
C760 H755 0.949 . S
C760 C766 1.368 . S
C761 C745 1.349 . S
C761 H753 0.950 . S
C761 C759 1.327 . S
C762 C750 1.349 . S
C762 H756 0.950 . S
C762 C763 1.327 . S
C763 H757 0.950 . S
C763 C762 1.327 . S
C763 C767 1.429 . S
C764 C747 1.574 . S
C764 H758 0.949 . S
C764 C768 1.368 . S
C765 C746 1.429 . S
C765 C759 1.429 . S
C765 C766 1.523 . S
C766 C747 1.368 . S
C766 C760 1.368 . S
C766 C765 1.523 . S
C767 C751 1.429 . S
C767 C763 1.429 . S
C767 C768 1.523 . S
C768 C752 1.368 . S
C768 C764 1.368 . S
C768 C767 1.523 . S
H769 C744 0.950 . S
H770 C746 0.950 . S
H771 C747 0.949 . S
H772 C749 0.950 . S
H773 C751 0.950 . S
C774 C775 1.349 . S
C774 C776 1.327 . S
C774 H799 0.950 . S
C775 C774 1.349 . S
C775 C791 1.349 . S
C776 C774 1.327 . S
C776 C795 1.429 . S
C776 H800 0.950 . S
C777 C794 1.574 . S
C777 C796 1.368 . S
C777 H801 0.949 . S
H778 C782 0.949 . S
C779 C780 1.349 . S
C779 C781 1.327 . S
C779 H802 0.950 . S
C780 C779 1.349 . S
C780 C792 1.349 . S
C781 C779 1.327 . S
C781 C797 1.429 . S
C781 H803 0.950 . S
C782 H778 0.949 . S
C782 C790 1.574 . S
C782 C798 1.368 . S
H783 C791 0.950 . S
H784 C789 0.950 . S
H785 C790 0.949 . S
H786 C792 0.950 . S
H787 C793 0.950 . S
H788 C794 0.949 . S
C789 H784 0.950 . S
C789 C791 1.327 . S
C789 C795 1.429 . S
C790 C782 1.574 . S
C790 H785 0.949 . S
C790 C796 1.368 . S
C791 C775 1.349 . S
C791 H783 0.950 . S
C791 C789 1.327 . S
C792 C780 1.349 . S
C792 H786 0.950 . S
C792 C793 1.327 . S
C793 H787 0.950 . S
C793 C792 1.327 . S
C793 C797 1.429 . S
C794 C777 1.574 . S
C794 H788 0.949 . S
C794 C798 1.368 . S
C795 C776 1.429 . S
C795 C789 1.429 . S
C795 C796 1.523 . S
C796 C777 1.368 . S
C796 C790 1.368 . S
C796 C795 1.523 . S
C797 C781 1.429 . S
C797 C793 1.429 . S
C797 C798 1.523 . S
C798 C782 1.368 . S
C798 C794 1.368 . S
C798 C797 1.523 . S
H799 C774 0.950 . S
H800 C776 0.950 . S
H801 C777 0.949 . S
H802 C779 0.950 . S
H803 C781 0.950 . S
C804 C805 1.349 . S
C804 C806 1.327 . S
C804 H829 0.950 . S
C805 C804 1.349 . S
C805 C821 1.349 . S
C806 C804 1.327 . S
C806 C825 1.429 . S
C806 H830 0.950 . S
C807 C824 1.574 1_455 S
C807 C826 1.368 . S
C807 H831 0.949 . S
H808 C812 0.949 . S
C809 C810 1.349 . S
C809 C811 1.327 . S
C809 H832 0.950 . S
C810 C809 1.349 . S
C810 C822 1.349 . S
C811 C809 1.327 . S
C811 C827 1.429 . S
C811 H833 0.950 . S
C812 H808 0.949 . S
C812 C820 1.574 1_655 S
C812 C828 1.368 . S
H813 C821 0.950 . S
H814 C819 0.950 . S
H815 C820 0.949 . S
H816 C822 0.950 . S
H817 C823 0.950 . S
H818 C824 0.949 . S
C819 H814 0.950 . S
C819 C821 1.327 . S
C819 C825 1.429 . S
C820 C812 1.574 1_455 S
C820 H815 0.949 . S
C820 C826 1.368 . S
C821 C805 1.349 . S
C821 H813 0.950 . S
C821 C819 1.327 . S
C822 C810 1.349 . S
C822 H816 0.950 . S
C822 C823 1.327 . S
C823 H817 0.950 . S
C823 C822 1.327 . S
C823 C827 1.429 . S
C824 C807 1.574 1_655 S
C824 H818 0.949 . S
C824 C828 1.368 . S
C825 C806 1.429 . S
C825 C819 1.429 . S
C825 C826 1.523 . S
C826 C807 1.368 . S
C826 C820 1.368 . S
C826 C825 1.523 . S
C827 C811 1.429 . S
C827 C823 1.429 . S
C827 C828 1.523 . S
C828 C812 1.368 . S
C828 C824 1.368 . S
C828 C827 1.523 . S
H829 C804 0.950 . S
H830 C806 0.950 . S
H831 C807 0.949 . S
H832 C809 0.950 . S
H833 C811 0.950 . S
C834 C835 1.349 . S
C834 C836 1.327 . S
C834 H859 0.950 . S
C835 C834 1.349 . S
C835 C851 1.349 . S
C836 C834 1.327 . S
C836 C855 1.429 . S
C836 H860 0.950 . S
C837 C854 1.574 1_455 S
C837 C856 1.368 . S
C837 H861 0.949 . S
H838 C842 0.949 . S
C839 C840 1.349 . S
C839 C841 1.327 . S
C839 H862 0.950 . S
C840 C839 1.349 . S
C840 C852 1.349 . S
C841 C839 1.327 . S
C841 C857 1.429 . S
C841 H863 0.950 . S
C842 H838 0.949 . S
C842 C850 1.574 1_655 S
C842 C858 1.368 . S
H843 C851 0.950 . S
H844 C849 0.950 . S
H845 C850 0.949 . S
H846 C852 0.950 . S
H847 C853 0.950 . S
H848 C854 0.949 . S
C849 H844 0.950 . S
C849 C851 1.327 . S
C849 C855 1.429 . S
C850 C842 1.574 1_455 S
C850 H845 0.949 . S
C850 C856 1.368 . S
C851 C835 1.349 . S
C851 H843 0.950 . S
C851 C849 1.327 . S
C852 C840 1.349 . S
C852 H846 0.950 . S
C852 C853 1.327 . S
C853 H847 0.950 . S
C853 C852 1.327 . S
C853 C857 1.429 . S
C854 C837 1.574 1_655 S
C854 H848 0.949 . S
C854 C858 1.368 . S
C855 C836 1.429 . S
C855 C849 1.429 . S
C855 C856 1.523 . S
C856 C837 1.368 . S
C856 C850 1.368 . S
C856 C855 1.523 . S
C857 C841 1.429 . S
C857 C853 1.429 . S
C857 C858 1.523 . S
C858 C842 1.368 . S
C858 C854 1.368 . S
C858 C857 1.523 . S
H859 C834 0.950 . S
H860 C836 0.950 . S
H861 C837 0.949 . S
H862 C839 0.950 . S
H863 C841 0.950 . S
C265 C107 1.805 . S
C270 N5 1.820 . S
C295 N38 1.820 . S
C300 C74 1.805 . S
C325 C41 1.805 . S
C330 N71 1.820 . S
C355 C8 1.805 . S
C360 N104 1.820 . S
C385 N137 1.820 . S
C390 C239 1.805 . S
C415 C206 1.805 . S
C420 N170 1.820 . S
C445 N203 1.820 . S
C450 C173 1.805 . S
C475 N236 1.820 . S
C480 C140 1.805 . S
C505 C28 0.533 . S
C510 C94 0.533 . S
C535 C61 0.533 . S
C540 C127 0.533 . S
C565 C226 0.533 . S
C570 C160 0.533 . S
C595 C259 0.533 . S
C600 C193 0.533 . S
C625 C17 1.442 . S
C630 C215 1.442 . S
C655 C50 1.442 . S
C660 C248 1.442 . S
C685 C149 1.442 . S
C690 C83 1.442 . S
C715 C182 1.442 . S
C720 C116 1.442 . S
C745 N47 0.676 . S
C750 N14 0.676 . S
C775 N113 0.676 . S
C780 N80 0.676 . S
C805 N179 0.676 . S
C810 N146 0.676 . S
C835 N212 0.676 . S
C840 N245 0.676 . S
