# Generated by pormake.
# Topology whk, (6)-cn, num edge types: 1
# Building blocks:
#     Node 0, Type 0, BuildingBlock: KUMBUR_clean_sbu_1, # of connection points: 6
#     Node 1, Type 0, BuildingBlock: KUMBUR_clean_sbu_1, # of connection points: 6
#     Node 2, Type 0, BuildingBlock: KUMBUR_clean_sbu_1, # of connection points: 6
#     Node 3, Type 0, BuildingBlock: KUMBUR_clean_sbu_1, # of connection points: 6
#     Node 4, Type 0, BuildingBlock: KUMBUR_clean_sbu_1, # of connection points: 6
#     Node 5, Type 0, BuildingBlock: KUMBUR_clean_sbu_1, # of connection points: 6
#     Node 6, Type 0, BuildingBlock: KUMBUR_clean_sbu_1, # of connection points: 6
#     Node 7, Type 0, BuildingBlock: KUMBUR_clean_sbu_1, # of connection points: 6
#     Node 8, Type 0, BuildingBlock: KUMBUR_clean_sbu_1, # of connection points: 6
#     Node 9, Type 0, BuildingBlock: KUMBUR_clean_sbu_1, # of connection points: 6
#     Node 10, Type 0, BuildingBlock: KUMBUR_clean_sbu_1, # of connection points: 6
#     Node 11, Type 0, BuildingBlock: KUMBUR_clean_sbu_1, # of connection points: 6
#     Node 12, Type 0, BuildingBlock: KUMBUR_clean_sbu_1, # of connection points: 6
#     Node 13, Type 0, BuildingBlock: KUMBUR_clean_sbu_1, # of connection points: 6
#     Node 14, Type 0, BuildingBlock: KUMBUR_clean_sbu_1, # of connection points: 6
#     Node 15, Type 0, BuildingBlock: KUMBUR_clean_sbu_1, # of connection points: 6
#     Edge 16, Type (0, 0), BuildingBlock: KIFKEQ_clean_linker_1, # of connection points: 2
#     Edge 17, Type (0, 0), BuildingBlock: KIFKEQ_clean_linker_1, # of connection points: 2
#     Edge 18, Type (0, 0), BuildingBlock: KIFKEQ_clean_linker_1, # of connection points: 2
#     Edge 19, Type (0, 0), BuildingBlock: KIFKEQ_clean_linker_1, # of connection points: 2
#     Edge 20, Type (0, 0), BuildingBlock: KIFKEQ_clean_linker_1, # of connection points: 2
#     Edge 21, Type (0, 0), BuildingBlock: KIFKEQ_clean_linker_1, # of connection points: 2
#     Edge 22, Type (0, 0), BuildingBlock: KIFKEQ_clean_linker_1, # of connection points: 2
#     Edge 23, Type (0, 0), BuildingBlock: KIFKEQ_clean_linker_1, # of connection points: 2
#     Edge 24, Type (0, 0), BuildingBlock: KIFKEQ_clean_linker_1, # of connection points: 2
#     Edge 25, Type (0, 0), BuildingBlock: KIFKEQ_clean_linker_1, # of connection points: 2
#     Edge 26, Type (0, 0), BuildingBlock: KIFKEQ_clean_linker_1, # of connection points: 2
#     Edge 27, Type (0, 0), BuildingBlock: KIFKEQ_clean_linker_1, # of connection points: 2
#     Edge 28, Type (0, 0), BuildingBlock: KIFKEQ_clean_linker_1, # of connection points: 2
#     Edge 29, Type (0, 0), BuildingBlock: KIFKEQ_clean_linker_1, # of connection points: 2
#     Edge 30, Type (0, 0), BuildingBlock: KIFKEQ_clean_linker_1, # of connection points: 2
#     Edge 31, Type (0, 0), BuildingBlock: KIFKEQ_clean_linker_1, # of connection points: 2
#     Edge 32, Type (0, 0), BuildingBlock: KIFKEQ_clean_linker_1, # of connection points: 2
#     Edge 33, Type (0, 0), BuildingBlock: KIFKEQ_clean_linker_1, # of connection points: 2
#     Edge 34, Type (0, 0), BuildingBlock: KIFKEQ_clean_linker_1, # of connection points: 2
#     Edge 35, Type (0, 0), BuildingBlock: KIFKEQ_clean_linker_1, # of connection points: 2
#     Edge 36, Type (0, 0), BuildingBlock: KIFKEQ_clean_linker_1, # of connection points: 2
#     Edge 37, Type (0, 0), BuildingBlock: KIFKEQ_clean_linker_1, # of connection points: 2
#     Edge 38, Type (0, 0), BuildingBlock: KIFKEQ_clean_linker_1, # of connection points: 2
#     Edge 39, Type (0, 0), BuildingBlock: KIFKEQ_clean_linker_1, # of connection points: 2
#     Edge 40, Type (0, 0), BuildingBlock: KIFKEQ_clean_linker_1, # of connection points: 2
#     Edge 41, Type (0, 0), BuildingBlock: KIFKEQ_clean_linker_1, # of connection points: 2
#     Edge 42, Type (0, 0), BuildingBlock: KIFKEQ_clean_linker_1, # of connection points: 2
#     Edge 43, Type (0, 0), BuildingBlock: KIFKEQ_clean_linker_1, # of connection points: 2
#     Edge 44, Type (0, 0), BuildingBlock: KIFKEQ_clean_linker_1, # of connection points: 2
#     Edge 45, Type (0, 0), BuildingBlock: KIFKEQ_clean_linker_1, # of connection points: 2
#     Edge 46, Type (0, 0), BuildingBlock: KIFKEQ_clean_linker_1, # of connection points: 2
#     Edge 47, Type (0, 0), BuildingBlock: KIFKEQ_clean_linker_1, # of connection points: 2
#     Edge 48, Type (0, 0), BuildingBlock: KIFKEQ_clean_linker_1, # of connection points: 2
#     Edge 49, Type (0, 0), BuildingBlock: KIFKEQ_clean_linker_1, # of connection points: 2
#     Edge 50, Type (0, 0), BuildingBlock: KIFKEQ_clean_linker_1, # of connection points: 2
#     Edge 51, Type (0, 0), BuildingBlock: KIFKEQ_clean_linker_1, # of connection points: 2
#     Edge 52, Type (0, 0), BuildingBlock: KIFKEQ_clean_linker_1, # of connection points: 2
#     Edge 53, Type (0, 0), BuildingBlock: KIFKEQ_clean_linker_1, # of connection points: 2
#     Edge 54, Type (0, 0), BuildingBlock: KIFKEQ_clean_linker_1, # of connection points: 2
#     Edge 55, Type (0, 0), BuildingBlock: KIFKEQ_clean_linker_1, # of connection points: 2
#     Edge 56, Type (0, 0), BuildingBlock: KIFKEQ_clean_linker_1, # of connection points: 2
#     Edge 57, Type (0, 0), BuildingBlock: KIFKEQ_clean_linker_1, # of connection points: 2
#     Edge 58, Type (0, 0), BuildingBlock: KIFKEQ_clean_linker_1, # of connection points: 2
#     Edge 59, Type (0, 0), BuildingBlock: KIFKEQ_clean_linker_1, # of connection points: 2
#     Edge 60, Type (0, 0), BuildingBlock: KIFKEQ_clean_linker_1, # of connection points: 2
#     Edge 61, Type (0, 0), BuildingBlock: KIFKEQ_clean_linker_1, # of connection points: 2
#     Edge 62, Type (0, 0), BuildingBlock: KIFKEQ_clean_linker_1, # of connection points: 2
#     Edge 63, Type (0, 0), BuildingBlock: KIFKEQ_clean_linker_1, # of connection points: 2
# Relax obj value: 0.453
# Max RMSD: 0.277
# Mean RMSD: 0.275
data_MOF--net-whk--node1-KUMBUR_clean_sbu_1--edge1-KIFKEQ_clean_linker_1
_symmetry_space_group_name_H-M    P1
_symmetry_Int_Tables_number       1
_symmetry_cell_setting            triclinic
loop_
_symmetry_equiv_pos_as_xyz
'x, y, z'
_cell_length_a     45.787176
_cell_length_b     45.802929
_cell_length_c     40.955962
_cell_angle_alpha  90.138877
_cell_angle_beta   90.1795
_cell_angle_gamma 90.104274
loop_
_atom_site_label
_atom_site_type_symbol
_atom_site_fract_x
_atom_site_fract_y
_atom_site_fract_z
_atom_type_partial_charge
Tb0 Tb 0.56445 0.19976 0.43003 0.0
C1 C 0.57849 0.31773 0.35684 0.0
N2 N 0.58005 0.29006 0.34537 0.0
C3 C 0.54891 0.30264 0.30033 0.0
C4 C 0.56081 0.33878 0.34141 0.0
C5 C 0.56664 0.28253 0.31668 0.0
C6 C 0.54551 0.33075 0.31311 0.0
C7 C 0.59764 0.35463 0.39332 0.0
C8 C 0.59666 0.32542 0.3823 0.0
C9 C 0.57831 0.37523 0.37996 0.0
C10 C 0.55992 0.36732 0.35396 0.0
Tb11 Tb 0.60819 0.25799 0.37404 0.0
N12 N 0.61545 0.30495 0.39385 0.0
C13 C 0.6191 0.36263 0.41599 0.0
C14 C 0.63806 0.31349 0.41384 0.0
C15 C 0.63988 0.34213 0.42559 0.0
H16 H 0.56917 0.26075 0.3069 0.0
H17 H 0.65722 0.34829 0.44226 0.0
H18 H 0.52144 0.23644 0.48044 0.0
H19 H 0.61645 0.09573 0.45055 0.0
H20 H 0.65421 0.29805 0.42216 0.0
H21 H 0.62061 0.38482 0.42509 0.0
H22 H 0.59146 0.13376 0.41792 0.0
H23 H 0.53777 0.29641 0.27803 0.0
H24 H 0.57837 0.39764 0.38851 0.0
H25 H 0.54601 0.38369 0.34292 0.0
H26 H 0.51615 0.24295 0.54008 0.0
H27 H 0.53173 0.34629 0.30048 0.0
H28 H 0.62195 0.10198 0.51038 0.0
N29 N 0.55471 0.20425 0.4847 0.0
C30 C 0.56979 0.18672 0.50518 0.0
C31 C 0.53154 0.22718 0.53058 0.0
C32 C 0.56732 0.18926 0.53932 0.0
C33 C 0.53459 0.22343 0.49681 0.0
C34 C 0.5484 0.21039 0.55197 0.0
N35 N 0.58416 0.16161 0.45868 0.0
C36 C 0.5938 0.1366 0.44402 0.0
C37 C 0.59895 0.14325 0.51127 0.0
C38 C 0.58527 0.16433 0.49151 0.0
C39 C 0.61116 0.11873 0.49614 0.0
C40 C 0.60795 0.11506 0.46241 0.0
H41 H 0.54582 0.21312 0.57809 0.0
H42 H 0.58156 0.17154 0.58579 0.0
H43 H 0.60937 0.13104 0.56111 0.0
O44 O 0.52961 0.19525 0.39617 0.0
O45 O 0.61053 0.18903 0.4187 0.0
O46 O 0.63626 0.23206 0.40885 0.0
O47 O 0.53115 0.1687 0.4391 0.0
O48 O 0.58765 0.18331 0.38532 0.0
O49 O 0.58174 0.22278 0.35328 0.0
O50 O 0.63225 0.2794 0.33776 0.0
O51 O 0.56005 0.25455 0.37516 0.0
O52 O 0.54645 0.24457 0.42691 0.0
O53 O 0.63851 0.23389 0.3462 0.0
O54 O 0.61697 0.26139 0.42658 0.0
O55 O 0.57837 0.24105 0.45601 0.0
C56 C 0.63477 0.20474 0.42023 0.0
C57 C 0.48364 0.17668 0.41636 0.0
C58 C 0.43417 0.15383 0.41563 0.0
C59 C 0.42228 0.18185 0.42006 0.0
C60 C 0.47052 0.20397 0.42117 0.0
C61 C 0.4402 0.20645 0.42301 0.0
C62 C 0.46526 0.15137 0.41408 0.0
C63 C 0.58938 0.19539 0.35606 0.0
C64 C 0.51626 0.17492 0.41295 0.0
C65 C 0.58274 0.16974 0.55944 0.0
C66 C 0.59858 0.1467 0.5454 0.0
C67 C 0.54465 0.26142 0.4011 0.0
C68 C 0.67929 0.26195 0.33225 0.0
C69 C 0.721 0.27894 0.36419 0.0
C70 C 0.73905 0.27378 0.33691 0.0
C71 C 0.69731 0.25699 0.30532 0.0
C72 C 0.69113 0.27295 0.36121 0.0
C73 C 0.72719 0.26297 0.3077 0.0
C74 C 0.60067 0.25962 0.45293 0.0
C75 C 0.64786 0.25672 0.33067 0.0
H76 H 0.39884 0.18473 0.42158 0.0
H77 H 0.48378 0.22352 0.42328 0.0
H78 H 0.43044 0.22772 0.42661 0.0
H79 H 0.47503 0.1301 0.4104 0.0
H80 H 0.76241 0.2772 0.33826 0.0
H81 H 0.68833 0.24858 0.28267 0.0
H82 H 0.67667 0.27667 0.38138 0.0
H83 H 0.74126 0.25894 0.28698 0.0
Tb84 Tb 0.35027 0.56161 0.4283 0.0
C85 C 0.2469 0.56783 0.33897 0.0
N86 N 0.27488 0.57797 0.33802 0.0
C87 C 0.28079 0.55836 0.28412 0.0
C88 C 0.23504 0.55187 0.31259 0.0
C89 C 0.29164 0.57416 0.3108 0.0
C90 C 0.25242 0.54713 0.28502 0.0
C91 C 0.2018 0.5613 0.36928 0.0
C92 C 0.23044 0.57251 0.36711 0.0
C93 C 0.18987 0.54564 0.34288 0.0
C94 C 0.20643 0.54094 0.31464 0.0
Tb95 Tb 0.28757 0.607 0.38088 0.0
N96 N 0.24273 0.58753 0.39249 0.0
C97 C 0.18602 0.56596 0.39801 0.0
C98 C 0.22693 0.59297 0.42014 0.0
C99 C 0.19863 0.5819 0.42349 0.0
H100 H 0.31328 0.58333 0.30938 0.0
H101 H 0.18632 0.58621 0.4455 0.0
H102 H 0.31809 0.51871 0.48228 0.0
H103 H 0.45556 0.61503 0.43489 0.0
H104 H 0.23526 0.60704 0.43903 0.0
H105 H 0.16401 0.55758 0.40064 0.0
H106 H 0.41361 0.59142 0.40708 0.0
H107 H 0.29422 0.55511 0.26272 0.0
H108 H 0.16793 0.5368 0.34418 0.0
H109 H 0.19698 0.5286 0.29461 0.0
H110 H 0.31944 0.51124 0.54204 0.0
H111 H 0.24411 0.53493 0.26427 0.0
H112 H 0.45759 0.61679 0.4953 0.0
N113 N 0.35193 0.55061 0.48268 0.0
C114 C 0.3726 0.56446 0.50067 0.0
C115 C 0.3344 0.52646 0.53074 0.0
C116 C 0.37451 0.56068 0.53473 0.0
C117 C 0.33367 0.53076 0.49692 0.0
C118 C 0.35462 0.54185 0.54983 0.0
N119 N 0.39156 0.58134 0.45133 0.0
C120 C 0.41434 0.59216 0.43346 0.0
C121 C 0.41693 0.5932 0.50129 0.0
C122 C 0.39335 0.5804 0.48431 0.0
C123 C 0.43911 0.60659 0.48322 0.0
C124 C 0.43807 0.60557 0.44912 0.0
H125 H 0.35531 0.53831 0.57597 0.0
H126 H 0.39857 0.5726 0.57849 0.0
H127 H 0.4358 0.60118 0.54912 0.0
O128 O 0.35406 0.52662 0.39442 0.0
O129 O 0.35929 0.60867 0.42483 0.0
O130 O 0.31649 0.63476 0.41307 0.0
O131 O 0.38144 0.52838 0.43681 0.0
O132 O 0.36357 0.58059 0.37929 0.0
O133 O 0.32888 0.61233 0.3566 0.0
O134 O 0.25036 0.63297 0.37568 0.0
O135 O 0.29524 0.55923 0.37849 0.0
O136 O 0.30614 0.54307 0.42865 0.0
O137 O 0.28752 0.64039 0.34527 0.0
O138 O 0.28723 0.61363 0.43312 0.0
O139 O 0.31063 0.57425 0.45863 0.0
C140 C 0.34368 0.63286 0.42498 0.0
C141 C 0.37356 0.48076 0.41439 0.0
C142 C 0.3964 0.43122 0.41233 0.0
C143 C 0.36895 0.41949 0.42051 0.0
C144 C 0.34693 0.46767 0.42265 0.0
C145 C 0.34473 0.43742 0.4257 0.0
C146 C 0.3986 0.46234 0.40964 0.0
C147 C 0.35481 0.60008 0.35693 0.0
C148 C 0.37488 0.51345 0.41078 0.0
C149 C 0.39689 0.57489 0.55223 0.0
C150 C 0.41809 0.59116 0.53551 0.0
C151 C 0.28918 0.5418 0.40306 0.0
C152 C 0.2573 0.6806 0.35822 0.0
C153 C 0.2584 0.72356 0.39369 0.0
C154 C 0.24757 0.74026 0.36732 0.0
C155 C 0.24659 0.69756 0.33252 0.0
C156 C 0.26245 0.69338 0.38888 0.0
C157 C 0.24148 0.72724 0.3372 0.0
C158 C 0.29232 0.59705 0.45867 0.0
C159 C 0.26152 0.64926 0.35323 0.0
H160 H 0.36618 0.39613 0.42323 0.0
H161 H 0.32769 0.48092 0.4267 0.0
H162 H 0.32396 0.42771 0.43209 0.0
H163 H 0.41938 0.4721 0.40329 0.0
H164 H 0.24493 0.76366 0.36919 0.0
H165 H 0.24207 0.68782 0.3089 0.0
H166 H 0.26995 0.67966 0.40869 0.0
H167 H 0.2334 0.74038 0.31719 0.0
Tb168 Tb 0.9328 0.29439 0.3776 0.0
C169 C 0.98188 0.37014 0.49593 0.0
N170 N 0.9791 0.37931 0.46463 0.0
C171 C 0.96456 0.42675 0.48328 0.0
C172 C 0.97474 0.38855 0.52232 0.0
C173 C 0.97225 0.40769 0.45797 0.0
C174 C 0.96515 0.41693 0.51557 0.0
C175 C 1.00173 0.33446 0.53342 0.0
C176 C 0.99518 0.34354 0.5014 0.0
C177 C 0.9925 0.35158 0.55997 0.0
C178 C 0.97902 0.37862 0.55442 0.0
Tb179 Tb 0.98984 0.3457 0.42535 0.0
N180 N 1.00449 0.32814 0.47509 0.0
C181 C 1.01879 0.3094 0.53765 0.0
C182 C 0.02368 0.30549 0.47902 0.0
C183 C 0.03036 0.29524 0.51032 0.0
H184 H 0.97183 0.41525 0.43296 0.0
H185 H 0.04456 0.27657 0.51335 0.0
H186 H 0.9863 0.26462 0.33467 0.0
H187 H 0.83232 0.34728 0.34077 0.0
H188 H 0.03273 0.29462 0.45795 0.0
H189 H 0.02431 0.30165 0.56187 0.0
H190 H 0.86597 0.32374 0.37942 0.0
H191 H 0.9582 0.44897 0.47787 0.0
H192 H 0.99693 0.34478 0.58482 0.0
H193 H 0.97326 0.39224 0.57508 0.0
H194 H 1.0006 0.26086 0.27682 0.0
H195 H 0.95945 0.4318 0.53515 0.0
H196 H 0.84458 0.34916 0.28201 0.0
N197 N 0.94849 0.29013 0.32497 0.0
C198 C 0.93054 0.30126 0.30169 0.0
C199 C 0.98096 0.27253 0.28351 0.0
C200 C 0.93772 0.29952 0.2683 0.0
C201 C 0.97291 0.27488 0.31634 0.0
C202 C 0.96346 0.28516 0.25939 0.0
N203 N 0.89852 0.3149 0.34388 0.0
C204 C 0.87236 0.3257 0.35431 0.0
C205 C 0.88583 0.3268 0.28825 0.0
C206 C 0.90492 0.31451 0.31153 0.0
C207 C 0.85978 0.33938 0.29908 0.0
C208 C 0.85287 0.3385 0.33224 0.0
H209 H 0.96977 0.28335 0.234 0.0
H210 H 0.92428 0.31126 0.21925 0.0
H211 H 0.87891 0.33536 0.23676 0.0
O212 O 0.89573 0.26822 0.36882 0.0
O213 O 0.96388 0.3248 0.35483 0.0
O214 O 0.9655 0.3662 0.38436 0.0
O215 O 0.93667 0.24892 0.38262 0.0
O216 O 0.91151 0.3281 0.40877 0.0
O217 O 0.94471 0.36496 0.42388 0.0
O218 O 1.02339 0.3563 0.39166 0.0
O219 O 0.97297 0.30471 0.4492 0.0
O220 O 0.92609 0.29906 0.43016 0.0
O221 O 0.02591 0.37129 0.44079 0.0
O222 O 1.00883 0.30653 0.40066 0.0
O223 O 0.97238 0.27174 0.39427 0.0
C224 C 0.95979 0.35314 0.35639 0.0
C225 C 0.89493 0.22955 0.40711 0.0
C226 C 0.86321 0.23046 0.45508 0.0
C227 C 0.87021 0.20109 0.46106 0.0
C228 C 0.90214 0.20046 0.41392 0.0
C229 C 0.88986 0.18636 0.44084 0.0
C230 C 0.87589 0.2445 0.42807 0.0
C231 C 0.91762 0.35435 0.42128 0.0
C232 C 0.90873 0.24482 0.37949 0.0
C233 C 0.91901 0.31209 0.24501 0.0
C234 C 0.89318 0.32582 0.25498 0.0
C235 C 0.94595 0.29476 0.45272 0.0
C236 C 0.05061 0.40053 0.40167 0.0
C237 C 0.09107 0.43672 0.39737 0.0
C238 C 0.07096 0.45639 0.38363 0.0
C239 C 0.03162 0.42101 0.3878 0.0
C240 C 0.08067 0.40839 0.40618 0.0
C241 C 0.04175 0.44857 0.37879 0.0
C242 C 1.00012 0.27902 0.39731 0.0
C243 C 0.03862 0.37167 0.41255 0.0
H244 H 0.86026 0.18946 0.48113 0.0
H245 H 0.91728 0.1887 0.39846 0.0
H246 H 0.89532 0.16382 0.44585 0.0
H247 H 0.87016 0.26691 0.4226 0.0
H248 H 0.07793 0.47805 0.37643 0.0
H249 H 1.00876 0.41573 0.38414 0.0
H250 H 0.09559 0.3929 0.41714 0.0
H251 H 0.02676 0.46415 0.36814 0.0
Tb252 Tb 0.20125 0.98389 0.42207 0.0
C253 C 0.29412 0.98538 0.34226 0.0
N254 N 0.26542 0.97791 0.3469 0.0
C255 C 0.25076 1.01788 0.31257 0.0
C256 C 0.30197 1.00887 0.32181 0.0
C257 C 0.24387 0.99469 0.33329 0.0
C258 C 0.27987 1.02469 0.30635 0.0
C259 C 0.34521 0.97994 0.3583 0.0
C260 C 0.31575 0.97126 0.36051 0.0
C261 C 0.35304 1.00229 0.33665 0.0
C262 C 0.3315 1.01673 0.31852 0.0
Tb263 Tb 0.26005 0.93717 0.37953 0.0
N264 N 0.30745 0.95079 0.38263 0.0
C265 C 0.36577 0.96669 0.3789 0.0
C266 C 0.32715 0.93819 0.40331 0.0
C267 C 0.35665 0.94593 0.4017 0.0
H268 H 0.22128 0.99138 0.33878 0.0
H269 H 0.37233 0.93582 0.41793 0.0
H270 H 0.24712 0.02942 0.46109 0.0
H271 H 0.09614 0.9431 0.46048 0.0
H272 H 0.31997 0.92204 0.42076 0.0
H273 H 0.38862 0.9728 0.3779 0.0
H274 H 0.13329 0.95887 0.42029 0.0
H275 H 0.23351 0.03083 0.30178 0.0
H276 H 0.37559 1.00922 0.33451 0.0
H277 H 0.33783 0.03459 0.30274 0.0
H278 H 0.25785 0.04326 0.51792 0.0
H279 H 0.28503 0.04294 0.29058 0.0
H280 H 0.10587 0.94871 0.51967 0.0
N281 N 0.21205 1.00094 0.47344 0.0
C282 C 0.19385 0.99189 0.49755 0.0
C283 C 0.23999 0.02849 0.51257 0.0
C284 C 0.19886 0.9996 0.53042 0.0
C285 C 0.23395 1.0204 0.48028 0.0
C286 C 0.22271 1.0176 0.53783 0.0
N287 N 0.16406 0.97175 0.45656 0.0
C288 C 0.1377 0.96112 0.44614 0.0
C289 C 0.14846 0.96829 0.51254 0.0
C290 C 0.16908 0.97648 0.48878 0.0
C291 C 0.12228 0.95538 0.50218 0.0
C292 C 0.11666 0.95228 0.46879 0.0
H293 H 0.22732 1.02407 0.56279 0.0
H294 H 0.18295 0.99541 0.58001 0.0
H295 H 0.13876 0.96793 0.56432 0.0
O296 O 0.19516 1.01886 0.38893 0.0
O297 O 0.18626 0.93837 0.41746 0.0
O298 O 0.22689 0.90992 0.40542 0.0
O299 O 0.16776 1.01493 0.43063 0.0
O300 O 0.18324 0.95972 0.37753 0.0
O301 O 0.22183 0.93929 0.34823 0.0
O302 O 0.27129 0.89296 0.37892 0.0
O303 O 0.27728 0.97163 0.41207 0.0
O304 O 0.24199 1.00592 0.40518 0.0
O305 O 0.2826 0.91937 0.33872 0.0
O306 O 0.26034 0.92636 0.43107 0.0
O307 O 0.23536 0.96446 0.45679 0.0
C308 C 0.20007 0.91308 0.41716 0.0
C309 C 0.1751 0.06336 0.41085 0.0
C310 C 0.15283 0.11309 0.41021 0.0
C311 C 0.17991 0.12417 0.42101 0.0
C312 C 0.20145 0.07586 0.42137 0.0
C313 C 0.20374 0.10585 0.4265 0.0
C314 C 0.15048 0.08215 0.40556 0.0
C315 C 0.19399 0.94571 0.35134 0.0
C316 C 0.17389 0.03088 0.40543 0.0
C317 C 0.17931 0.99001 0.55454 0.0
C318 C 0.15415 0.97435 0.54561 0.0
C319 C 0.26933 0.99911 0.41209 0.0
C320 C 0.31797 0.88525 0.35744 0.0
C321 C 0.35379 0.86303 0.39395 0.0
C322 C 0.37651 0.87342 0.37429 0.0
C323 C 0.34085 0.89589 0.33796 0.0
C324 C 0.32483 0.86797 0.38451 0.0
C325 C 0.36997 0.88975 0.34628 0.0
C326 C 0.25222 0.94048 0.45751 0.0
C327 C 0.28729 0.89478 0.35313 0.0
H328 H 0.18272 0.14732 0.42555 0.0
H329 H 0.22044 0.06236 0.42557 0.0
H330 H 0.22427 0.11505 0.43476 0.0
H331 H 0.12997 0.07287 0.39731 0.0
H332 H 0.39905 0.86884 0.38049 0.0
H333 H 0.33632 0.90954 0.317 0.0
H334 H 0.30736 0.85872 0.39906 0.0
H335 H 0.3875 0.89807 0.33126 0.0
Tb336 Tb 0.11103 0.79421 0.13469 0.0
C337 C 0.06704 0.86466 0.01174 0.0
N338 N 0.07037 0.8758 0.04222 0.0
C339 C 0.08952 0.92021 0.01986 0.0
C340 C 0.07601 0.88038 0.984 0.0
C341 C 0.07983 0.90385 0.04655 0.0
C342 C 0.08819 0.90818 0.98848 0.0
C343 C 0.04525 0.82758 0.9771 0.0
C344 C 0.05195 0.83869 0.00833 0.0
C345 C 0.05584 0.84209 0.94933 0.0
C346 C 0.07125 0.86844 0.95277 0.0
Tb347 Tb 0.05724 0.84572 0.08406 0.0
N348 N 0.0419 0.82553 0.03577 0.0
C349 C 0.02706 0.80305 0.97479 0.0
C350 C 1.02193 0.80334 0.03357 0.0
C351 C 1.01484 0.79127 1.00313 0.0
H352 H 0.08044 0.91329 0.07079 0.0
H353 H 0.99987 0.77301 1.00152 0.0
H354 H 0.05746 0.77386 0.18299 0.0
H355 H 0.21919 0.83645 0.16023 0.0
H356 H 1.01225 0.79439 0.05534 0.0
H357 H 1.02136 0.79381 0.95124 0.0
H358 H 0.18065 0.81463 0.12591 0.0
H359 H 0.0979 0.94209 0.02349 0.0
H360 H 0.0513 0.8337 0.92507 0.0
H361 H 0.07834 0.87998 0.93113 0.0
H362 H 0.04661 0.77449 0.24225 0.0
H363 H 0.09546 0.92097 0.96782 0.0
H364 H 0.21073 0.84421 0.21927 0.0
N365 N 0.09815 0.79578 0.18844 0.0
C366 C 0.11863 0.80609 0.20949 0.0
C367 C 0.06685 0.78368 0.23333 0.0
C368 C 0.11353 0.80687 0.24339 0.0
C369 C 0.07297 0.78342 0.19987 0.0
C370 C 0.08709 0.79575 0.25518 0.0
N371 N 0.1494 0.81264 0.1643 0.0
C372 C 0.17609 0.81907 0.15127 0.0
C373 C 0.16672 0.82689 0.21772 0.0
C374 C 0.1449 0.81554 0.19687 0.0
C375 C 0.19343 0.83525 0.20413 0.0
C376 C 0.19825 0.83098 0.17081 0.0
H377 H 0.08228 0.79598 0.28106 0.0
H378 H 0.1313 0.81986 0.29038 0.0
H379 H 0.17779 0.83777 0.26782 0.0
O380 O 0.14466 0.76293 0.13937 0.0
O381 O 0.08057 0.82621 0.15577 0.0
O382 O 0.08106 0.86682 0.12528 0.0
O383 O 0.09948 0.75036 0.14101 0.0
O384 O 0.13409 0.82603 0.10207 0.0
O385 O 0.10223 0.86438 0.08941 0.0
O386 O 1.02091 0.85498 0.11428 0.0
O387 O 0.07515 0.80502 0.05969 0.0
O388 O 0.12051 0.79627 0.08261 0.0
O389 O 0.02507 0.87586 0.06822 0.0
O390 O 0.03686 0.80861 0.11104 0.0
O391 O 0.07218 0.7731 0.11344 0.0
C392 C 0.08542 0.85437 0.15382 0.0
C393 C 0.13057 0.71742 0.11478 0.0
C394 C 0.15923 0.69424 0.07167 0.0
C395 C 0.13866 0.67154 0.06981 0.0
C396 C 0.11037 0.69432 0.11275 0.0
C397 C 0.11418 0.67182 0.09005 0.0
C398 C 0.15473 0.71732 0.09394 0.0
C399 C 0.1288 0.8526 0.09004 0.0
C400 C 0.12618 0.74121 0.13882 0.0
C401 C 0.13494 0.81865 0.26429 0.0
C402 C 0.16139 0.82888 0.25143 0.0
C403 C 0.10206 0.79411 0.05813 0.0
C404 C 0.9989 0.9022 0.10896 0.0
C405 C 0.96095 0.94038 0.1174 0.0
C406 C 0.98142 0.95579 0.1366 0.0
C407 C 1.01833 0.91873 0.12796 0.0
C408 C 0.96989 0.91304 0.10383 0.0
C409 C 1.00959 0.94512 0.14176 0.0
C410 C 0.04455 0.78081 0.11266 0.0
C411 C 1.00939 0.87404 0.09446 0.0
H412 H 0.14194 0.65323 0.05345 0.0
H413 H 0.09173 0.69355 0.12894 0.0
H414 H 0.0985 0.65414 0.08876 0.0
H415 H 0.17091 0.73449 0.09631 0.0
H416 H 0.97558 0.97634 0.14798 0.0
H417 H 0.04043 0.91118 0.13219 0.0
H418 H 0.95471 0.90061 0.08895 0.0
H419 H 0.02484 0.95752 0.15656 0.0
Tb420 Tb 0.75018 0.12465 0.14044 0.0
C421 C 0.66368 0.07123 0.02662 0.0
N422 N 0.66007 0.07272 0.05936 0.0
C423 C 0.60902 0.08247 0.05193 0.0
C424 C 0.64037 0.07664 1.00497 0.0
C425 C 0.63296 0.07695 0.07235 0.0
C426 C 0.61288 0.08299 0.01807 0.0
C427 C 0.69413 0.05623 0.98153 0.0
C428 C 0.69001 0.06112 0.01518 0.0
C429 C 0.67182 0.06376 0.95945 0.0
C430 C 0.64491 0.07392 0.97118 0.0
Tb431 Tb 0.70037 0.06449 0.0909 0.0
N432 N 0.71035 0.05306 0.03747 0.0
C433 C 0.7198 0.04243 0.97136 0.0
C434 C 0.73416 0.0372 0.02791 0.0
C435 C 0.73964 0.03236 0.99473 0.0
H436 H 0.63009 0.07707 0.09851 0.0
H437 H 0.75902 1.02066 0.98724 0.0
H438 H 0.77953 0.07533 0.19097 0.0
H439 H 0.7029 0.23041 0.16526 0.0
H440 H 0.74946 0.02906 0.04584 0.0
H441 H 0.72385 0.03828 0.94572 0.0
H442 H 0.7276 0.193 0.13188 0.0
H443 H 0.5877 0.08657 0.0623 0.0
H444 H 0.67467 0.06054 0.93343 0.0
H445 H 0.62742 0.07838 0.95404 0.0
H446 H 0.78136 0.06633 0.24995 0.0
H447 H 0.59433 0.08719 1.0023 0.0
H448 H 0.69602 0.22208 0.22446 0.0
N449 N 0.7537 0.11393 0.19502 0.0
C450 C 0.7415 0.13349 0.21584 0.0
C451 C 0.7699 0.08523 0.24067 0.0
C452 C 0.74223 0.12926 0.24994 0.0
C453 C 0.76867 0.09042 0.20704 0.0
C454 C 0.75638 0.10457 0.26221 0.0
N455 N 0.73043 0.16217 0.17011 0.0
C456 C 0.72265 0.18835 0.15691 0.0
C457 C 0.71639 0.17946 0.22348 0.0
C458 C 0.72886 0.15818 0.20285 0.0
C459 C 0.70581 0.20521 0.2095 0.0
C460 C 0.70952 0.20993 0.1761 0.0
H461 H 0.75738 0.10047 0.28824 0.0
H462 H 0.72894 0.14679 0.29683 0.0
H463 H 0.70616 0.19077 0.2736 0.0
O464 O 0.77905 0.15926 0.15095 0.0
O465 O 0.72176 0.09175 0.16243 0.0
O466 O 0.68054 0.08848 0.13271 0.0
O467 O 0.79397 0.12117 0.12538 0.0
O468 O 0.71413 0.14403 0.11016 0.0
O469 O 0.6812 0.10935 0.08836 0.0
O470 O 0.6931 0.03292 0.12789 0.0
O471 O 0.74211 0.08161 0.0688 0.0
O472 O 0.7444 0.12855 0.08793 0.0
O473 O 0.67938 1.02454 0.07893 0.0
O474 O 0.74455 0.04821 0.10471 0.0
O475 O 0.77206 0.08241 0.13428 0.0
C476 C 0.69335 0.09479 0.16068 0.0
C477 C 0.81292 0.16616 0.10821 0.0
C478 C 0.80772 0.20453 0.06735 0.0
C479 C 0.83761 0.20238 0.0603 0.0
C480 C 0.84259 0.16366 0.10031 0.0
C481 C 0.85481 0.18162 0.07631 0.0
C482 C 0.79548 0.18608 0.09103 0.0
C483 C 0.6895 0.13679 0.09424 0.0
C484 C 0.80013 0.14779 0.134 0.0
C485 C 0.72896 0.14985 0.2706 0.0
C486 C 0.7159 0.17483 0.25737 0.0
C487 C 0.75275 0.10855 0.06721 0.0
C488 C 0.65098 1.00157 0.12051 0.0
C489 C 0.61613 0.95992 0.12786 0.0
C490 C 0.59732 0.97953 0.14391 0.0
C491 C 0.63138 1.01964 0.13722 0.0
C492 C 0.64312 0.97143 0.11556 0.0
C493 C 0.60484 1.00878 0.1485 0.0
C494 C 0.76854 0.05646 0.12065 0.0
C495 C 0.67928 1.01463 0.10861 0.0
H496 H 0.84759 0.21679 0.04259 0.0
H497 H 0.85631 0.14803 0.11286 0.0
H498 H 0.87778 0.17978 0.0705 0.0
H499 H 0.77251 0.18801 0.09698 0.0
H500 H 0.57634 0.97224 0.15299 0.0
H501 H 0.63662 0.04236 0.14167 0.0
H502 H 0.65808 0.95706 0.10292 0.0
H503 H 0.58993 1.02321 0.16111 0.0
Tb504 Tb 0.48906 0.70067 0.08929 0.0
C505 C 0.48134 0.80252 0.17782 0.0
N506 N 0.47338 0.77387 0.17763 0.0
C507 C 0.49636 0.76695 0.22973 0.0
C508 C 0.49825 0.8142 0.20355 0.0
C509 C 0.47965 0.75629 0.20364 0.0
C510 C 0.50585 0.79597 0.22961 0.0
C511 C 0.48242 0.84929 0.15012 0.0
C512 C 0.47326 0.8199 0.1515 0.0
C513 C 0.49959 0.86092 0.17551 0.0
C514 C 0.50733 0.84349 0.20224 0.0
Tb515 Tb 0.44249 0.76078 0.13644 0.0
N516 N 0.4564 0.80805 0.12742 0.0
C517 C 0.47376 0.86625 0.12345 0.0
C518 C 0.44632 0.82514 0.1025 0.0
C519 C 0.45539 0.85419 0.09972 0.0
H520 H 0.47173 0.73412 0.20429 0.0
H521 H 0.4477 0.86745 0.07962 0.0
H522 H 0.52493 0.73 0.02727 0.0
H523 H 0.4408 0.59333 0.0983 0.0
H524 H 0.4305 0.81693 0.08521 0.0
H525 H 0.48049 0.88886 0.12139 0.0
H526 H 0.46518 0.638 0.11933 0.0
H527 H 0.50169 0.75286 0.25006 0.0
H528 H 0.50689 0.88342 0.17479 0.0
H529 H 0.52054 0.8528 0.22165 0.0
H530 H 0.52501 0.72528 0.967 0.0
H531 H 0.51885 0.80412 0.24983 0.0
H532 H 0.43083 0.58812 0.03908 0.0
N533 N 0.49355 0.69628 0.03398 0.0
C534 C 0.47787 0.67453 0.0198 0.0
C535 C 0.51147 0.711 0.98156 0.0
C536 C 0.47758 0.67062 0.98569 0.0
C537 C 0.51137 0.71363 0.01562 0.0
C538 C 0.4941 0.68971 0.96647 0.0
N539 N 0.46771 0.65801 0.07261 0.0
C540 C 0.46091 0.63573 0.09347 0.0
C541 C 0.45092 0.62948 0.02675 0.0
C542 C 0.46459 0.65444 0.03993 0.0
C543 C 0.44142 0.6077 0.04819 0.0
C544 C 0.44712 0.6105 0.08164 0.0
H545 H 0.49447 0.6875 0.94013 0.0
H546 H 0.46114 0.64382 0.94593 0.0
H547 H 0.43787 0.60764 0.98198 0.0
O548 O 0.52558 0.6945 0.1206 0.0
O549 O 0.44185 0.69069 0.09402 0.0
O550 O 0.41658 0.73437 0.10002 0.0
O551 O 0.52246 0.67108 0.0756 0.0
O552 O 0.47705 0.69147 0.14209 0.0
O553 O 0.4348 0.71697 0.15387 0.0
O554 O 0.40846 0.79095 0.14378 0.0
O555 O 0.4907 0.75517 0.13778 0.0
O556 O 0.50831 0.74476 0.08817 0.0
O557 O 0.41721 0.75724 0.17875 0.0
O558 O 0.43754 0.76551 0.08392 0.0
O559 O 0.4769 0.74097 0.05957 0.0
C560 C 0.41826 0.7068 0.08956 0.0
C561 C 0.57061 0.67568 0.09815 0.0
C562 C 0.61961 0.65185 0.10085 0.0
C563 C 0.63196 0.67897 0.09238 0.0
C564 C 0.58424 0.70196 0.0897 0.0
C565 C 0.61455 0.70351 0.0868 0.0
C566 C 0.58846 0.65034 0.10335 0.0
C567 C 0.45267 0.69528 0.15938 0.0
C568 C 0.53797 0.67497 0.10186 0.0
C569 C 0.46199 0.64702 0.97214 0.0
C570 C 0.44871 0.62643 0.99267 0.0
C571 C 0.50791 0.76236 0.11336 0.0
C572 C 0.36903 0.7715 0.17316 0.0
C573 C 0.32647 0.74575 0.1526 0.0
C574 C 0.31128 0.75317 0.18125 0.0
C575 C 0.35377 0.77892 0.20158 0.0
C576 C 0.35531 0.75511 0.14864 0.0
C577 C 0.3249 0.76981 0.20553 0.0
C578 C 0.45507 0.76051 0.05911 0.0
C579 C 0.39999 0.7785 0.17062 0.0
H580 H 0.65538 0.68122 0.0897 0.0
H581 H 0.57136 0.72142 0.08543 0.0
H582 H 0.62473 0.72401 0.08023 0.0
H583 H 0.57823 0.62985 0.10992 0.0
H584 H 0.2888 0.74645 0.18462 0.0
H585 H 0.36434 0.7913 0.22087 0.0
H586 H 0.36724 0.74909 0.12685 0.0
H587 H 0.31312 0.7755 0.22751 0.0
Tb588 Tb 0.84773 0.48484 0.08657 0.0
C589 C 0.73836 0.47003 0.16223 0.0
N590 N 0.76645 0.46391 0.17062 0.0
C591 C 0.76101 0.49046 0.22077 0.0
C592 C 0.72059 0.48718 0.18273 0.0
C593 C 0.77783 0.47333 0.19973 0.0
C594 C 0.73231 0.49752 0.21219 0.0
C595 C 0.69815 0.46435 0.12402 0.0
C596 C 0.72745 0.45898 0.13296 0.0
C597 C 0.68068 0.48225 0.14382 0.0
C598 C 0.69185 0.49358 0.17312 0.0
Tb599 Tb 0.79072 0.43418 0.13527 0.0
N600 N 0.74488 0.44155 0.11438 0.0
C601 C 0.68687 0.45048 0.09625 0.0
C602 C 0.73274 0.42527 0.0898 0.0
C603 C 0.70404 0.43029 0.07954 0.0
H604 H 0.7999 0.46768 0.2066 0.0
H605 H 0.69491 0.41798 0.05934 0.0
H606 H 0.8118 0.52672 0.03421 0.0
H607 H 0.95618 0.43911 0.07869 0.0
H608 H 0.7447 0.40767 0.0786 0.0
H609 H 0.66448 0.45398 0.08859 0.0
H610 H 0.91233 0.45754 0.10705 0.0
H611 H 0.77013 0.49815 0.24364 0.0
H612 H 0.65825 0.48684 0.13712 0.0
H613 H 0.67796 0.50701 0.18835 0.0
H614 H 0.81286 0.5369 0.97506 0.0
H615 H 0.71937 0.51084 0.22855 0.0
H616 H 0.95916 0.44152 0.01839 0.0
N617 N 0.84859 0.49838 0.03291 0.0
C618 C 0.87049 0.48727 0.01456 0.0
C619 C 0.82912 0.52271 0.98583 0.0
C620 C 0.87228 0.49276 0.9808 0.0
C621 C 0.82854 0.51682 0.01934 0.0
C622 C 0.85085 0.5103 0.96636 0.0
N623 N 0.89028 0.46922 0.06315 0.0
C624 C 0.91341 0.45869 0.08075 0.0
C625 C 0.91695 0.46226 0.01308 0.0
C626 C 0.89233 0.47224 0.03034 0.0
C627 C 0.93986 0.44955 0.0307 0.0
C628 C 0.93828 0.44822 0.06476 0.0
H629 H 0.85139 0.51507 0.94047 0.0
H630 H 0.89752 0.48509 0.93689 0.0
H631 H 0.93675 0.45834 0.96525 0.0
O632 O 0.84966 0.5185 0.12233 0.0
O633 O 0.85759 0.43835 0.08283 0.0
O634 O 0.82934 0.40878 0.11708 0.0
O635 O 0.87656 0.5203 0.07953 0.0
O636 O 0.86369 0.46421 0.13393 0.0
O637 O 0.82923 0.43873 0.1654 0.0
O638 O 0.77999 0.38992 0.13347 0.0
O639 O 0.79297 0.48281 0.13556 0.0
O640 O 0.80252 0.50047 0.0858 0.0
O641 O 0.77307 0.41363 0.17737 0.0
O642 O 0.79306 0.42721 0.08253 0.0
O643 O 0.8082 0.47007 0.05735 0.0
C644 C 0.85049 0.41273 0.09518 0.0
C645 C 0.86668 0.56625 0.10456 0.0
C646 C 0.88828 0.61641 0.10611 0.0
C647 C 0.85994 0.62742 0.10087 0.0
C648 C 0.83912 0.5786 0.09936 0.0
C649 C 0.83586 0.60883 0.0975 0.0
C650 C 0.89148 0.58534 0.10754 0.0
C651 C 0.85547 0.44949 0.16072 0.0
C652 C 0.86948 0.53359 0.10643 0.0
C653 C 0.89588 0.48142 0.96295 0.0
C654 C 0.91822 0.4662 0.97909 0.0
C655 C 0.78499 0.49928 0.11077 0.0
C656 C 0.73586 0.3807 0.15922 0.0
C657 C 0.70049 0.35417 0.12598 0.0
C658 C 0.67761 0.36986 0.14019 0.0
C659 C 0.71287 0.39632 0.17378 0.0
C660 C 0.72912 0.35871 0.13674 0.0
C661 C 0.68385 0.39059 0.16453 0.0
C662 C 0.79387 0.44461 0.05713 0.0
C663 C 0.76671 0.3901 0.16128 0.0
H664 H 0.85629 0.6507 0.09891 0.0
H665 H 0.82 0.56482 0.09663 0.0
H666 H 0.8144 0.618 0.09336 0.0
H667 H 0.91294 0.57608 0.11149 0.0
H668 H 0.65529 0.36643 0.13222 0.0
H669 H 0.71731 0.41364 0.19115 0.0
H670 H 0.74668 0.34644 0.1254 0.0
H671 H 0.66628 0.40301 0.17538 0.0
Tb672 Tb 0.43893 0.78998 0.63789 0.0
C673 C 0.49188 0.8554 0.51637 0.0
N674 N 0.50063 0.83691 0.54036 0.0
C675 C 0.52814 0.8092 0.50133 0.0
C676 C 0.49981 0.85074 0.48357 0.0
C677 C 0.51994 0.81497 0.53358 0.0
C678 C 0.51759 0.82682 0.47612 0.0
C679 C 0.46945 0.90145 0.50176 0.0
C680 C 0.47688 0.88032 0.52527 0.0
C681 C 0.47566 0.8961 0.4687 0.0
C682 C 0.49082 0.87076 0.45961 0.0
Tb683 Tb 0.48378 0.84754 0.59163 0.0
N684 N 0.47201 0.885 0.55749 0.0
C685 C 0.45722 0.92781 0.5124 0.0
C686 C 0.46165 0.91129 0.56825 0.0
C687 C 0.45382 0.93297 0.54584 0.0
H688 H 0.52864 0.80156 0.55282 0.0
H689 H 0.44505 0.95354 0.55435 0.0
H690 H 0.49407 0.83231 0.67437 0.0
H691 H 0.43586 0.6749 0.61278 0.0
H692 H 0.45892 0.9152 0.59412 0.0
H693 H 0.45123 0.94465 0.4951 0.0
H694 H 0.4218 0.72667 0.60498 0.0
H695 H 0.54277 0.79129 0.49597 0.0
H696 H 0.46979 0.91188 0.45015 0.0
H697 H 0.49639 0.86739 0.43419 0.0
H698 H 0.53485 0.82301 0.71056 0.0
H699 H 0.52422 0.82245 0.45121 0.0
H700 H 0.47501 0.66228 0.65206 0.0
N701 N 0.48041 0.78762 0.67055 0.0
C702 C 0.48846 0.75938 0.67729 0.0
C703 C 0.52167 0.80495 0.70182 0.0
C704 C 0.51281 0.75325 0.69741 0.0
C705 C 0.49769 0.81014 0.6815 0.0
C706 C 0.52897 0.77648 0.71026 0.0
N707 N 0.45206 0.74249 0.64024 0.0
C708 C 0.43868 0.72109 0.62238 0.0
C709 C 0.48287 0.70715 0.66651 0.0
C710 C 0.47389 0.73625 0.66174 0.0
C711 C 0.46869 0.68489 0.64902 0.0
C712 C 0.44664 0.69192 0.62671 0.0
H713 H 0.54783 0.77263 0.7257 0.0
H714 H 0.53965 0.71923 0.71861 0.0
H715 H 0.51338 0.679 0.69177 0.0
O716 O 0.39355 0.788 0.64495 0.0
O717 O 0.47277 0.77098 0.60645 0.0
O718 O 0.50675 0.80741 0.60913 0.0
O719 O 0.42116 0.76312 0.67517 0.0
O720 O 0.43054 0.78356 0.58598 0.0
O721 O 0.4648 0.81228 0.55805 0.0
O722 O 0.5183 0.85509 0.62532 0.0
O723 O 0.43757 0.86063 0.59384 0.0
O724 O 0.41071 0.81931 0.60738 0.0
O725 O 0.51473 0.88104 0.58242 0.0
O726 O 0.45803 0.86682 0.63406 0.0
O727 O 0.44297 0.82868 0.66752 0.0
C728 C 0.50005 0.77955 0.60465 0.0
C729 C 0.3789 0.73965 0.65537 0.0
C730 C 0.35127 0.71358 0.61338 0.0
C731 C 0.35441 0.68754 0.63102 0.0
C732 C 0.382 0.71347 0.67284 0.0
C733 C 0.36976 0.68756 0.66065 0.0
C734 C 0.36307 0.73944 0.62607 0.0
C735 C 0.44314 0.79245 0.55881 0.0
C736 C 0.39476 0.76642 0.66512 0.0
C737 C 0.52113 0.72418 0.70306 0.0
C738 C 0.5062 0.70123 0.68772 0.0
C739 C 0.41289 0.8456 0.59388 0.0
C740 C 0.56291 0.87575 0.60388 0.0
C741 C 0.6118 0.89998 0.60402 0.0
C742 C 0.6242 0.87271 0.59661 0.0
C743 C 0.57657 0.84936 0.59586 0.0
C744 C 0.58072 0.90141 0.60745 0.0
C745 C 0.60682 0.84788 0.59237 0.0
C746 C 0.44632 0.85662 0.66176 0.0
C747 C 0.53028 0.87608 0.6083 0.0
H748 H 0.34483 0.66741 0.62205 0.0
H749 H 0.39444 0.71293 0.69536 0.0
H750 H 0.37231 0.66743 0.67414 0.0
H751 H 0.3598 0.75966 0.61287 0.0
H752 H 0.64761 0.87063 0.59366 0.0
H753 H 0.56374 0.82974 0.5923 0.0
H754 H 0.57056 0.92209 0.61334 0.0
H755 H 0.61695 0.82723 0.58634 0.0
Tb756 Tb 0.76214 0.44043 0.63105 0.0
C757 C 0.67629 0.48433 0.51349 0.0
N758 N 0.69785 0.49778 0.53054 0.0
C759 C 0.71471 0.52084 0.48153 0.0
C760 C 0.67355 0.48774 0.47946 0.0
C761 C 0.71625 0.51693 0.51538 0.0
C762 C 0.69355 0.50581 0.46339 0.0
C763 C 0.63112 0.45693 0.51484 0.0
C764 C 0.65551 0.46922 0.53082 0.0
C765 C 0.62911 0.45856 0.48063 0.0
C766 C 0.65032 0.47398 0.46294 0.0
Tb767 Tb 0.70059 0.48746 0.58503 0.0
N768 N 0.65817 0.46858 0.56375 0.0
C769 C 0.60904 0.44447 0.53385 0.0
C770 C 0.63554 0.45876 0.58255 0.0
C771 C 0.611 0.44591 0.56789 0.0
H772 H 0.73256 0.52869 0.52932 0.0
H773 H 0.59361 0.4372 0.58284 0.0
H774 H 0.73681 0.46223 0.70347 0.0
H775 H 0.86287 0.46332 0.5663 0.0
H776 H 0.63701 0.45982 0.60887 0.0
H777 H 0.58995 0.43469 0.52255 0.0
H778 H 0.81406 0.44212 0.57248 0.0
H779 H 0.72977 0.53549 0.46949 0.0
H780 H 0.61077 0.44888 0.46777 0.0
H781 H 0.648 0.47599 0.43671 0.0
H782 H 0.75604 0.48938 0.75081 0.0
H783 H 0.69224 0.50905 0.43723 0.0
H784 H 0.88543 0.49075 0.61194 0.0
N785 N 0.77505 0.46831 0.67477 0.0
C786 C 0.80306 0.47842 0.674 0.0
C787 C 0.76938 0.48663 0.72925 0.0
C788 C 0.81502 0.49375 0.70078 0.0
C789 C 0.75841 0.47149 0.70216 0.0
C790 C 0.79775 0.49786 0.72855 0.0
N791 N 0.80695 0.46013 0.61983 0.0
C792 C 0.82252 0.45559 0.59182 0.0
C793 C 0.84796 0.48585 0.64358 0.0
C794 C 0.81937 0.47447 0.64561 0.0
C795 C 0.8635 0.48214 0.61452 0.0
C796 C 0.85074 0.46689 0.58859 0.0
H797 H 0.80615 0.50956 0.74962 0.0
H798 H 0.85319 0.51655 0.71925 0.0
H799 H 0.88198 0.50958 0.66928 0.0
O800 O 0.79906 0.41387 0.63471 0.0
O801 O 0.75547 0.48838 0.63417 0.0
O802 O 0.74505 0.5052 0.58417 0.0
O803 O 0.76252 0.4067 0.66622 0.0
O804 O 0.7622 0.43415 0.57876 0.0
O805 O 0.73969 0.47447 0.55429 0.0
O806 O 0.69759 0.52227 0.61903 0.0
O807 O 0.69022 0.44072 0.58859 0.0
O808 O 0.73259 0.41362 0.59863 0.0
O809 O 0.67074 0.52176 0.57606 0.0
O810 O 0.68818 0.4702 0.63511 0.0
O811 O 0.72061 0.43482 0.65487 0.0
C812 C 0.76192 0.50598 0.60985 0.0
C813 C 0.79159 0.36615 0.65157 0.0
C814 C 0.78887 0.32371 0.61543 0.0
C815 C 0.80016 0.30652 0.64117 0.0
C816 C 0.80277 0.3487 0.67659 0.0
C817 C 0.80726 0.31902 0.67127 0.0
C818 C 0.78527 0.35386 0.6209 0.0
C819 C 0.75712 0.45106 0.55351 0.0
C820 C 0.78814 0.39747 0.65724 0.0
C821 C 0.84363 0.50472 0.69891 0.0
C822 C 0.86004 0.50076 0.67042 0.0
C823 C 0.70531 0.41627 0.58731 0.0
C824 C 0.67995 0.56875 0.59933 0.0
C825 C 0.6578 0.61836 0.60044 0.0
C826 C 0.68598 0.62999 0.596 0.0
C827 C 0.70743 0.58155 0.59463 0.0
C828 C 0.65493 0.58734 0.60176 0.0
C829 C 0.71033 0.61184 0.59296 0.0
C830 C 0.69585 0.44923 0.65623 0.0
C831 C 0.67753 0.53622 0.60235 0.0
H832 H 0.80243 0.28311 0.63885 0.0
H833 H 0.80815 0.35807 0.70019 0.0
H834 H 0.8157 0.3055 0.69078 0.0
H835 H 0.77733 0.36791 0.60162 0.0
H836 H 0.68921 0.65339 0.59449 0.0
H837 H 0.72676 0.56809 0.59243 0.0
H838 H 0.63355 0.57775 0.60537 0.0
H839 H 0.73173 0.6214 0.58939 0.0
Tb840 Tb 0.05914 0.70595 0.58505 0.0
C841 C 0.12091 0.75164 0.70774 0.0
N842 N 0.10316 0.76326 0.6846 0.0
C843 C 0.07242 0.78333 0.72631 0.0
C844 C 0.11448 0.75444 0.74124 0.0
C845 C 0.07972 0.77991 0.69337 0.0
C846 C 0.0897 0.7703 0.75035 0.0
C847 C 0.16449 0.72411 0.72085 0.0
C848 C 0.1456 0.73686 0.69768 0.0
C849 C 0.15784 0.72615 0.75425 0.0
C850 C 0.13295 0.74139 0.76444 0.0
Tb851 Tb 0.11746 0.75696 0.63174 0.0
N852 N 0.15137 0.73551 0.6652 0.0
C853 C 0.18969 0.71005 0.70978 0.0
C854 C 0.17685 0.72333 0.6545 0.0
C855 C 0.19606 0.70999 0.67647 0.0
H856 H 0.06654 0.79053 0.6751 0.0
H857 H 0.216 0.70005 0.66774 0.0
H858 H 0.07845 0.63689 0.57309 0.0
H859 H 1.0032 0.77802 0.50117 0.0
H860 H 0.18294 0.72448 0.6292 0.0
H861 H 0.20469 0.69986 0.72677 0.0
H862 H 1.01532 0.75759 0.55542 0.0
H863 H 0.05355 0.79614 0.73313 0.0
H864 H 0.17195 0.71628 0.7724 0.0
H865 H 0.12822 0.74302 0.79028 0.0
H866 H 0.09357 0.60607 0.52629 0.0
H867 H 0.08397 0.77295 0.77583 0.0
H868 H 0.02397 0.75568 0.45128 0.0
N869 N 0.07081 0.6744 0.54384 0.0
C870 C 0.06782 0.68502 0.51313 0.0
C871 C 0.08668 0.62837 0.52226 0.0
C872 C 0.07557 0.66818 0.48566 0.0
C873 C 0.07827 0.64586 0.54867 0.0
C874 C 0.08598 0.63981 0.49066 0.0
N875 N 0.0442 0.72547 0.53639 0.0
C876 C 0.02463 0.74793 0.53378 0.0
C877 C 0.04714 0.72199 0.47778 0.0
C878 C 0.0538 0.71148 0.50922 0.0
C879 C 0.02959 0.74688 0.47501 0.0
C880 C 1.01774 0.7595 0.50312 0.0
H881 H 0.09219 0.62613 0.47022 0.0
H882 H 0.0773 0.66715 0.43277 0.0
H883 H 0.05238 0.71437 0.42586 0.0
O884 O 0.02376 0.69661 0.61682 0.0
O885 O 0.07666 0.74684 0.56127 0.0
O886 O 0.12377 0.75028 0.57967 0.0
O887 O 0.02468 0.67831 0.56919 0.0
O888 O 0.04082 0.74488 0.61081 0.0
O889 O 0.07743 0.77974 0.6162 0.0
O890 O 0.15499 0.78242 0.64056 0.0
O891 O 0.08523 0.72849 0.65559 0.0
O892 O 0.08253 0.68635 0.62724 0.0
O893 O 0.11549 0.80212 0.62273 0.0
O894 O 0.13724 0.72203 0.60091 0.0
O895 O 0.10344 0.68501 0.58876 0.0
C896 C 0.10396 0.75598 0.5576 0.0
C897 C 0.99862 0.65098 0.60903 0.0
C898 C 0.95813 0.61555 0.61876 0.0
C899 C 0.97876 0.59703 0.63363 0.0
C900 C 1.018 0.63161 0.62415 0.0
C901 C 1.00815 0.60494 0.63621 0.0
C902 C 0.96849 0.64272 0.60599 0.0
C903 C 0.0496 0.77241 0.6139 0.0
C904 C 1.01025 0.6794 0.59632 0.0
C905 C 0.07109 0.67956 0.45421 0.0
C906 C 0.05688 0.70645 0.45027 0.0
C907 C 0.0881 0.69998 0.65493 0.0
C908 C 0.15938 0.81955 0.6006 0.0
C909 C 0.19554 0.81711 0.55691 0.0
C910 C 0.19008 0.84648 0.54944 0.0
C911 C 0.15373 0.84872 0.59237 0.0
C912 C 0.17982 0.80369 0.58224 0.0
C913 C 0.16891 0.86203 0.56679 0.0
C914 C 0.13067 0.69534 0.58991 0.0
C915 C 0.14333 0.80561 0.62765 0.0
H916 H 0.97221 0.57596 0.64311 0.0
H917 H 0.04094 0.63714 0.62656 0.0
H918 H 0.02347 0.59018 0.64771 0.0
H919 H 0.95326 0.65747 0.59433 0.0
H920 H 0.20227 0.85738 0.53039 0.0
H921 H 0.13766 0.86121 0.6058 0.0
H922 H 0.18432 0.78113 0.58841 0.0
H923 H 0.16457 0.8846 0.56071 0.0
Tb924 Tb 0.79101 0.11667 0.63596 0.0
C925 C 0.85176 0.05384 0.51784 0.0
N926 N 0.83368 0.04662 0.54283 0.0
C927 C 0.8041 1.01822 0.5061 0.0
C928 C 0.84596 0.04459 0.48564 0.0
C929 C 0.81097 0.02771 0.5377 0.0
C930 C 0.82135 0.02713 0.47985 0.0
C931 C 0.89786 0.0747 0.50052 0.0
C932 C 0.87728 0.06873 0.52513 0.0
C933 C 0.89141 0.0671 0.46802 0.0
C934 C 0.8655 0.05207 0.46059 0.0
Tb935 Tb 0.84606 0.0657 0.59271 0.0
N936 N 0.88302 0.07501 0.55689 0.0
C937 C 0.92474 0.08699 0.50955 0.0
C938 C 0.90989 0.08532 0.56614 0.0
C939 C 0.93097 0.09183 0.54257 0.0
H940 H 0.79783 1.02022 0.55774 0.0
H941 H 0.95195 0.10065 0.54986 0.0
H942 H 0.83059 0.06338 0.67698 0.0
H943 H 0.67708 0.11903 0.60429 0.0
H944 H 0.91466 0.08913 0.59168 0.0
H945 H 0.94114 0.09194 0.49136 0.0
H946 H 0.72949 0.13165 0.5978 0.0
H947 H 0.78563 1.00387 0.50203 0.0
H948 H 0.90676 0.07184 0.44866 0.0
H949 H 0.86126 0.04546 0.4356 0.0
H950 H 0.8195 0.02567 0.71659 0.0
H951 H 0.81612 1.01954 0.45544 0.0
H952 H 0.66206 0.08389 0.64692 0.0
N953 N 0.78641 0.07736 0.67077 0.0
C954 C 0.75786 0.07071 0.67752 0.0
C955 C 0.80199 0.03852 0.70618 0.0
C956 C 0.75058 0.04821 0.69956 0.0
C957 C 0.80827 0.06073 0.68393 0.0
C958 C 0.77311 0.03254 0.71445 0.0
N959 N 0.74327 0.10401 0.63641 0.0
C960 C 0.72284 0.11628 0.61637 0.0
C961 C 0.70619 0.07661 0.66431 0.0
C962 C 0.73565 0.0846 0.65997 0.0
C963 C 0.68493 0.08949 0.64431 0.0
C964 C 0.69333 0.10921 0.62004 0.0
H965 H 0.7684 1.01504 0.73141 0.0
H966 H 0.71523 1.02403 0.72203 0.0
H967 H 0.67648 0.04894 0.69129 0.0
O968 O 0.7784 0.16039 0.63375 0.0
O969 O 0.77117 0.08122 0.60636 0.0
O970 O 0.80537 0.04556 0.61223 0.0
O971 O 0.77211 0.137 0.67764 0.0
O972 O 0.78957 0.12532 0.58379 0.0
O973 O 0.81074 0.08442 0.55909 0.0
O974 O 0.85282 0.03194 0.62737 0.0
O975 O 0.86136 0.11114 0.5905 0.0
O976 O 0.82499 0.14247 0.60942 0.0
O977 O 0.87849 0.03363 0.58414 0.0
O978 O 0.86632 0.09078 0.63515 0.0
O979 O 0.83078 0.11591 0.66502 0.0
C980 C 0.77804 0.05338 0.60688 0.0
C981 C 0.73453 0.16979 0.66084 0.0
C982 C 0.69574 0.19046 0.62712 0.0
C983 C 0.67469 0.17991 0.64886 0.0
C984 C 0.71335 0.15898 0.6825 0.0
C985 C 0.6836 0.16444 0.67671 0.0
C986 C 0.72537 0.18677 0.63443 0.0
C987 C 0.79527 0.10933 0.55785 0.0
C988 C 0.7655 0.16045 0.66175 0.0
C989 C 0.72112 0.04112 0.705 0.0
C990 C 0.69901 0.05529 0.68747 0.0
C991 C 0.84987 0.13741 0.59373 0.0
C992 C 0.87182 0.98628 0.60675 0.0
C993 C 0.89451 0.9367 0.60736 0.0
C994 C 0.86693 0.92521 0.59891 0.0
C995 C 0.84504 0.97339 0.59847 0.0
C996 C 0.89684 0.96776 0.61085 0.0
C997 C 0.8427 0.94325 0.59453 0.0
C998 C 0.85787 0.10744 0.6604 0.0
C999 C 0.87328 1.01893 0.61047 0.0
H1000 H 0.65167 0.18341 0.64421 0.0
H1001 H 0.71965 0.14562 0.70312 0.0
H1002 H 0.66737 0.15593 0.69333 0.0
H1003 H 0.74158 0.19615 0.61822 0.0
H1004 H 0.86404 0.90195 0.59527 0.0
H1005 H 0.8258 0.98672 0.59493 0.0
H1006 H 0.91772 0.97739 0.61721 0.0
H1007 H 0.82182 0.93373 0.58799 0.0
Tb1008 Tb 0.98939 0.20252 0.93246 0.0
C1009 C 0.91022 0.25089 0.81675 0.0
N1010 N 0.93498 0.26079 0.83104 0.0
C1011 C 0.95528 0.27112 0.77834 0.0
C1012 C 0.90729 0.24943 0.78253 0.0
C1013 C 0.95702 0.27205 0.81248 0.0
C1014 C 0.93052 0.25921 0.76327 0.0
C1015 C 0.85968 0.23708 0.82312 0.0
C1016 C 0.88696 0.24487 0.83664 0.0
C1017 C 0.85709 0.23323 0.78916 0.0
C1018 C 0.88092 0.23943 0.76884 0.0
Tb1019 Tb 0.93712 0.25957 0.8868 0.0
N1020 N 0.89037 0.24982 0.86904 0.0
C1021 C 0.83561 0.23503 0.84393 0.0
C1022 C 0.8664 0.25049 0.88886 0.0
C1023 C 0.83888 0.24243 0.87684 0.0
H1024 H 0.97619 0.2813 0.82398 0.0
H1025 H 0.82019 0.24219 0.89286 0.0
H1026 H 0.97327 0.13546 0.90937 0.0
H1027 H 0.03092 0.24107 0.04857 0.0
H1028 H 0.86854 0.25675 0.91413 0.0
H1029 H 0.81421 0.22917 0.83459 0.0
H1030 H 0.02463 0.24163 0.98864 0.0
H1031 H 0.97306 0.27947 0.7637 0.0
H1032 H 0.83645 0.22677 0.77829 0.0
H1033 H 0.87836 0.23757 0.7426 0.0
H1034 H 0.95879 0.08894 0.93535 0.0
H1035 H 0.92919 0.2585 0.73686 0.0
H1036 H 1.01068 0.20026 0.08102 0.0
N1037 N 0.97835 0.15806 0.95446 0.0
C1038 C 0.97881 0.15597 0.98737 0.0
C1039 C 0.96418 0.10771 0.95031 0.0
C1040 C 0.97089 0.12998 1.00338 0.0
C1041 C 0.9724 0.13406 0.93567 0.0
C1042 C 0.96288 0.10581 0.98435 0.0
N1043 N 0.99947 0.20248 0.98738 0.0
C1044 C 1.01533 0.22392 1.0026 0.0
C1045 C 0.99328 0.17762 0.03873 0.0
C1046 C 0.98975 0.17926 1.00461 0.0
C1047 C 1.00751 0.20061 0.0548 0.0
C1048 C 1.01903 0.22364 0.03655 0.0
H1049 H 0.95665 0.08537 0.99565 0.0
H1050 H 0.96619 0.10905 0.05052 0.0
H1051 H 0.98586 0.15092 0.08161 0.0
O1052 O 1.01973 0.19934 0.89366 0.0
O1053 O 0.97572 0.24342 0.95863 0.0
O1054 O 0.92974 0.25457 0.93924 0.0
O1055 O 0.02988 0.18171 0.94081 0.0
O1056 O 1.00428 0.24856 0.9296 0.0
O1057 O 0.98508 0.26227 0.88062 0.0
O1058 O 0.91804 0.29987 0.87452 0.0
O1059 O 0.96404 0.22838 0.85971 0.0
O1060 O 0.96375 0.1868 0.88912 0.0
O1061 O 0.95318 0.29789 0.909 0.0
O1062 O 0.91341 0.22557 0.91665 0.0
O1063 O 0.94356 0.18716 0.93398 0.0
C1064 C 0.94935 0.25482 0.9627 0.0
C1065 C 0.05168 0.15746 0.89563 0.0
C1066 C 0.09223 0.12196 0.88915 0.0
C1067 C 0.07446 0.10601 0.86751 0.0
C1068 C 0.0349 0.14072 0.87379 0.0
C1069 C 0.04624 0.11534 0.85988 0.0
C1070 C 0.08067 0.14798 0.90323 0.0
C1071 C 1.00424 0.26632 0.90429 0.0
C1072 C 0.03864 0.18427 0.91079 0.0
C1073 C 0.9725 0.12869 0.03763 0.0
C1074 C 0.98369 0.15253 0.05532 0.0
C1075 C 0.959 0.20026 0.86117 0.0
C1076 C 0.91757 0.33326 0.91812 0.0
C1077 C 0.87743 0.33911 0.95651 0.0
C1078 C 0.88422 0.36895 0.95929 0.0
C1079 C 0.92466 0.36285 0.92171 0.0
C1080 C 0.89455 0.32148 0.93609 0.0
C1081 C 0.90808 0.3806 0.94242 0.0
C1082 C 0.91757 0.1995 0.93068 0.0
C1083 C 0.93375 0.31449 0.89548 0.0
H1084 H 0.08249 0.08607 0.85646 0.0
H1085 H 1.01285 0.14721 0.86751 0.0
H1086 H 0.03295 0.10266 0.84313 0.0
H1087 H 0.09389 0.16046 0.92025 0.0
H1088 H 0.87114 0.38321 0.97447 0.0
H1089 H 0.94271 0.37224 0.90826 0.0
H1090 H 0.8892 0.29869 0.93287 0.0
H1091 H 0.9134 0.40353 0.94495 0.0
Tb1092 Tb 0.34419 0.9892 0.92772 0.0
C1093 C 0.30204 0.91769 0.80864 0.0
N1094 N 0.2894 0.93762 0.82861 0.0
C1095 C 0.27042 0.96329 0.78224 0.0
C1096 C 0.30031 0.92037 0.77442 0.0
C1097 C 0.2728 0.95968 0.81606 0.0
C1098 C 0.28446 0.94371 0.76131 0.0
C1099 C 0.3302 0.87331 0.8029 0.0
C1100 C 0.31653 0.89443 0.82271 0.0
C1101 C 0.32957 0.87641 0.76876 0.0
C1102 C 0.31446 0.89977 0.75454 0.0
Tb1103 Tb 0.29314 0.92901 0.88315 0.0
N1104 N 0.31615 0.89192 0.85575 0.0
C1105 C 0.34337 0.8493 0.81794 0.0
C1106 C 0.32704 0.86736 0.87028 0.0
C1107 C 0.34136 0.84609 0.85175 0.0
H1108 H 0.26163 0.97463 0.83216 0.0
H1109 H 0.35037 0.82696 0.86351 0.0
H1110 H 0.41098 0.96416 0.94388 0.0
H1111 H 0.27276 0.05204 1.00607 0.0
H1112 H 0.3242 0.86355 0.89604 0.0
H1113 H 0.35419 0.83263 0.80361 0.0
H1114 H 0.29327 0.03594 0.95343 0.0
H1115 H 0.25769 0.9811 0.77234 0.0
H1116 H 0.34018 0.86055 0.75315 0.0
H1117 H 0.31375 0.90165 0.72819 0.0
H1118 H 0.43853 0.94775 0.9925 0.0
H1119 H 0.28265 0.94659 0.73513 0.0
H1120 H 0.2932 0.03306 0.05784 0.0
N1121 N 0.37337 0.97654 0.97097 0.0
C1122 C 0.36234 0.98196 1.00107 0.0
C1123 C 0.41694 0.957 0.99526 0.0
C1124 C 0.37758 0.97383 0.02958 0.0
C1125 C 0.40115 0.966 0.96778 0.0
C1126 C 0.40483 0.96036 0.0263 0.0
N1127 N 0.32452 1.00747 0.975 0.0
C1128 C 0.30255 0.02773 0.97579 0.0
C1129 C 0.32618 1.00692 0.03384 0.0
C1130 C 0.33713 0.9983 1.00319 0.0
C1131 C 0.30228 0.02591 0.03477 0.0
C1132 C 0.29075 0.03675 1.00561 0.0
H1133 H 0.41724 0.95371 0.04759 0.0
H1134 H 0.377 0.97432 0.08252 0.0
H1135 H 0.33188 1.00333 0.08625 0.0
O1136 O 0.35443 1.02363 0.89508 0.0
O1137 O 0.30236 0.974 0.95183 0.0
O1138 O 0.29789 0.9262 0.93592 0.0
O1139 O 0.37631 1.02084 0.94065 0.0
O1140 O 0.30535 1.00775 0.90184 0.0
O1141 O 0.27137 0.97041 0.89398 0.0
O1142 O 0.26612 0.89239 0.87544 0.0
O1143 O 0.32104 0.9606 0.85724 0.0
O1144 O 0.36283 0.96409 0.88629 0.0
O1145 O 0.24789 0.9335 0.89003 0.0
O1146 O 0.32564 0.91114 0.91836 0.0
O1147 O 0.36401 0.94443 0.92304 0.0
C1148 C 0.29128 0.94744 0.95593 0.0
C1149 C 0.37233 0.06878 0.91767 0.0
C1150 C 0.39439 0.11868 0.91481 0.0
C1151 C 0.36683 0.13004 0.92305 0.0
C1152 C 0.34551 0.08162 0.92547 0.0
C1153 C 0.34287 0.11181 0.92833 0.0
C1154 C 0.39711 0.08754 0.91259 0.0
C1155 C 0.27823 0.99829 0.89676 0.0
C1156 C 0.37366 0.03605 0.91414 0.0
C1157 C 0.36582 0.9807 0.0603 0.0
C1158 C 0.34015 0.99725 0.06243 0.0
C1159 C 0.34963 0.95876 0.85828 0.0
C1160 C 0.22715 0.8918 0.91322 0.0
C1161 C 0.22691 0.85891 0.95998 0.0
C1162 C 0.19693 0.8641 0.96411 0.0
C1163 C 0.19738 0.89743 0.91813 0.0
C1164 C 0.24188 0.8732 0.93475 0.0
C1165 C 0.18241 0.88374 0.94363 0.0
C1166 C 0.35304 0.91766 0.92645 0.0
C1167 C 0.24301 0.9058 0.88621 0.0
H1168 H 0.36372 0.15338 0.92556 0.0
H1169 H 0.32637 0.06823 0.9291 0.0
H1170 H 0.32193 0.12124 0.93448 0.0
H1171 H 0.41799 0.07807 0.90623 0.0
H1172 H 0.18476 0.85276 0.98285 0.0
H1173 H 0.18574 0.91222 0.90213 0.0
H1174 H 0.26488 0.86877 0.93092 0.0
H1175 H 0.15936 0.88791 0.94712 0.0
Tb1176 Tb 0.60347 0.29146 0.87852 0.0
C1177 C 0.5593 0.37728 0.99874 0.0
N1178 N 0.54748 0.35497 0.98142 0.0
C1179 C 0.52429 0.33706 0.02995 0.0
C1180 C 0.55484 0.38005 0.03262 0.0
C1181 C 0.52907 0.33559 0.99624 0.0
C1182 C 0.53758 0.35915 0.04833 0.0
C1183 C 0.58431 0.42377 0.99786 0.0
C1184 C 0.57381 0.39862 0.98176 0.0
C1185 C 0.58148 0.42604 0.03194 0.0
C1186 C 0.56677 0.40415 0.04933 0.0
Tb1187 Tb 0.55887 0.3527 0.92703 0.0
N1188 N 0.57573 0.39561 0.94895 0.0
C1189 C 0.59638 0.44621 0.97905 0.0
C1190 C 0.58566 0.41824 0.93026 0.0
C1191 C 0.59662 0.44361 0.94504 0.0
H1192 H 0.5184 0.31862 0.98223 0.0
H1193 H 0.60518 0.46115 0.93019 0.0
H1194 H 0.57729 0.31776 0.80834 0.0
H1195 H 0.58419 0.19006 0.94349 0.0
H1196 H 0.58582 0.41646 0.90397 0.0
H1197 H 0.60474 0.46591 0.99044 0.0
H1198 H 0.60562 0.23864 0.9361 0.0
H1199 H 0.51022 0.32125 0.04168 0.0
H1200 H 0.58975 0.44499 0.04489 0.0
H1201 H 0.56389 0.40656 0.07544 0.0
H1202 H 0.54755 0.29901 0.76267 0.0
H1203 H 0.53361 0.36043 0.07436 0.0
H1204 H 0.5535 0.16834 0.89997 0.0
N1205 N 0.57292 0.27914 0.83681 0.0
C1206 C 0.56288 0.25111 0.8379 0.0
C1207 C 0.55153 0.28543 0.7838 0.0
C1208 C 0.54593 0.2395 0.81216 0.0
C1209 C 0.56821 0.29609 0.80991 0.0
C1210 C 0.54029 0.25707 0.78495 0.0
N1211 N 0.58449 0.2465 0.89052 0.0
C1212 C 0.59074 0.23056 0.91786 0.0
C1213 C 0.55686 0.20602 0.86839 0.0
C1214 C 0.56842 0.23449 0.86576 0.0
C1215 C 0.5622 0.19018 0.89694 0.0
C1216 C 0.5793 0.20246 0.92169 0.0
H1217 H 0.52734 0.24895 0.76468 0.0
H1218 H 0.52166 0.20175 0.79508 0.0
H1219 H 0.53108 0.17256 0.84428 0.0
O1220 O 0.62894 0.25428 0.87115 0.0
O1221 O 0.55545 0.29835 0.8777 0.0
O1222 O 0.54078 0.30836 0.92847 0.0
O1223 O 0.63546 0.29203 0.84133 0.0
O1224 O 0.6118 0.29077 0.93061 0.0
O1225 O 0.57212 0.31306 0.95654 0.0
O1226 O 0.52547 0.35529 0.89126 0.0
O1227 O 0.60598 0.3624 0.92506 0.0
O1228 O 0.63226 0.32049 0.91004 0.0
O1229 O 0.52361 0.38162 0.93473 0.0
O1230 O 0.57814 0.36712 0.8787 0.0
O1231 O 0.60872 0.3326 0.8541 0.0
C1232 C 0.53883 0.29166 0.90277 0.0
C1233 C 0.67586 0.26119 0.85115 0.0
C1234 C 0.71904 0.25419 0.88511 0.0
C1235 C 0.7355 0.24919 0.85657 0.0
C1236 C 0.69248 0.25612 0.82309 0.0
C1237 C 0.72221 0.25003 0.82585 0.0
C1238 C 0.68908 0.25995 0.88204 0.0
C1239 C 0.5953 0.29535 0.95636 0.0
C1240 C 0.6444 0.26582 0.84817 0.0
C1241 C 0.53479 0.21101 0.81459 0.0
C1242 C 0.54016 0.19436 0.84263 0.0
C1243 C 0.63058 0.34732 0.92324 0.0
C1244 C 0.47782 0.37158 0.90906 0.0
C1245 C 0.42791 0.39324 0.91084 0.0
C1246 C 0.41666 0.36454 0.90974 0.0
C1247 C 0.4653 0.34366 0.90884 0.0
C1248 C 0.45897 0.39647 0.91009 0.0
C1249 C 0.43506 0.34026 0.90899 0.0
C1250 C 0.59686 0.35859 0.85555 0.0
C1251 C 0.51037 0.37472 0.90765 0.0
H1252 H 0.75884 0.2456 0.85774 0.0
H1253 H 0.6824 0.25665 0.79912 0.0
H1254 H 0.73508 0.2463 0.80412 0.0
H1255 H 0.67591 0.26345 0.90363 0.0
H1256 H 0.39336 0.36061 0.90903 0.0
H1257 H 0.47893 0.32436 0.90823 0.0
H1258 H 0.46849 0.41812 0.91064 0.0
H1259 H 0.42573 0.31853 0.90832 0.0
Tb1260 Tb 0.25585 0.6139 0.87316 0.0
C1261 C 0.19684 0.56018 0.99858 0.0
N1262 N 0.21467 0.55158 0.97393 0.0
C1263 C 0.24522 0.52645 0.01244 0.0
C1264 C 0.20325 0.55348 0.03138 0.0
C1265 C 0.23782 0.53356 0.98026 0.0
C1266 C 0.22817 0.53689 0.03817 0.0
C1267 C 0.15099 0.582 0.01497 0.0
C1268 C 0.17114 0.5742 0.99055 0.0
C1269 C 0.15801 0.57697 0.0479 0.0
C1270 C 0.1841 0.56269 0.0561 0.0
Tb1271 Tb 0.20147 0.56704 0.92271 0.0
N1272 N 0.16502 0.57826 0.95849 0.0
C1273 C 0.12404 0.59369 1.00543 0.0
C1274 C 0.13819 0.58823 0.94888 0.0
C1275 C 0.11741 0.59632 0.97221 0.0
H1276 H 0.25106 0.52526 0.96068 0.0
H1277 H 0.09643 0.60478 0.96458 0.0
H1278 H 0.21338 0.5571 0.84058 0.0
H1279 H 0.37198 0.62097 0.88978 0.0
H1280 H 0.13317 0.59049 0.92319 0.0
H1281 H 0.10796 0.60002 0.02345 0.0
H1282 H 0.3203 0.63355 0.90103 0.0
H1283 H 0.26404 0.51287 0.01736 0.0
H1284 H 0.14302 0.58321 0.06711 0.0
H1285 H 0.18883 0.5581 0.08151 0.0
H1286 H 0.22176 0.51648 0.80388 0.0
H1287 H 0.23389 0.53123 0.06305 0.0
H1288 H 0.38357 0.58179 0.8502 0.0
N1289 N 0.25765 0.57237 0.84064 0.0
C1290 C 0.28568 0.56512 0.83203 0.0
C1291 C 0.23986 0.53032 0.81112 0.0
C1292 C 0.2914 0.54084 0.81168 0.0
C1293 C 0.23512 0.55423 0.83164 0.0
C1294 C 0.268 0.52389 0.80062 0.0
N1295 N 0.30349 0.60232 0.86746 0.0
C1296 C 0.32543 0.61657 0.88358 0.0
C1297 C 0.33822 0.57236 0.83908 0.0
C1298 C 0.30918 0.58047 0.84583 0.0
C1299 C 0.36098 0.58741 0.85479 0.0
C1300 C 0.35454 0.60949 0.87727 0.0
H1301 H 0.27154 0.50507 0.78506 0.0
H1302 H 0.32499 0.51494 0.78829 0.0
H1303 H 0.36583 0.54259 0.81208 0.0
O1304 O 0.25495 0.65931 0.86608 0.0
O1305 O 0.27727 0.58055 0.90352 0.0
O1306 O 0.24153 0.54562 0.9034 0.0
O1307 O 0.28139 0.63335 0.83574 0.0
O1308 O 0.26439 0.62202 0.92489 0.0
O1309 O 0.23719 0.58763 0.9546 0.0
O1310 O 0.19524 0.53072 0.89092 0.0
O1311 O 0.18676 0.61253 0.9191 0.0
O1312 O 0.2272 0.64069 0.90579 0.0
O1313 O 0.16808 0.53617 0.9324 0.0
O1314 O 0.18045 0.59194 0.8807 0.0
O1315 O 0.21614 0.60898 0.84481 0.0
C1316 C 0.2693 0.55312 0.90648 0.0
C1317 C 0.3019 0.67765 0.85439 0.0
C1318 C 0.32651 0.70871 0.89464 0.0
C1319 C 0.35217 0.70753 0.87604 0.0
C1320 C 0.32773 0.67666 0.83602 0.0
C1321 C 0.35269 0.69159 0.84682 0.0
C1322 C 0.30145 0.6942 0.88321 0.0
C1323 C 0.2568 0.60944 0.95262 0.0
C1324 C 0.27627 0.65952 0.84554 0.0
C1325 C 0.32035 0.53338 0.80405 0.0
C1326 C 0.34365 0.54909 0.81766 0.0
C1327 C 0.20123 0.63749 0.91967 0.0
C1328 C 0.17464 0.48708 0.9149 0.0
C1329 C 0.15222 0.43712 0.91655 0.0
C1330 C 0.17775 0.4277 0.93279 0.0
C1331 C 0.19956 0.47585 0.93016 0.0
C1332 C 0.15069 0.46753 0.90811 0.0
C1333 C 0.20097 0.44663 0.93917 0.0
C1334 C 0.18877 0.60445 0.85262 0.0
C1335 C 0.17384 0.51935 0.90777 0.0
H1336 H 0.37173 0.71881 0.88409 0.0
H1337 H 0.32877 0.66386 0.81378 0.0
H1338 H 0.37257 0.69059 0.83265 0.0
H1339 H 0.28136 0.69583 0.897 0.0
H1340 H 0.17989 0.4054 0.94114 0.0
H1341 H 0.21796 0.48989 0.93555 0.0
H1342 H 0.13131 0.47587 0.89616 0.0
H1343 H 0.22029 0.43855 0.95146 0.0
H1344 H 0.61167 0.13892 0.35265 0.0
H1345 H 0.59928 0.21544 0.29331 0.0
H1346 H 0.63464 0.11405 0.30654 0.0
H1347 H 0.62339 0.19138 0.24778 0.0
H1348 H 0.64942 0.13614 0.15943 0.0
H1349 H 0.62382 0.15892 0.20518 0.0
H1350 H 0.67353 0.10605 0.2725 0.0
H1351 H 0.69815 0.08283 0.22645 0.0
C1352 C 0.61382 0.15058 0.32981 0.0
C1353 C 0.6032 0.17941 0.32722 0.0
C1354 C 0.62743 0.1363 0.30308 0.0
C1355 C 0.63129 0.15022 0.27248 0.0
C1356 C 0.62064 0.17914 0.27011 0.0
C1357 C 0.6068 0.19325 0.29668 0.0
C1358 C 0.65468 0.12918 0.18401 0.0
C1359 C 0.67628 0.10775 0.18896 0.0
C1360 C 0.64016 0.14261 0.21064 0.0
C1361 C 0.64635 0.13501 0.2435 0.0
C1362 C 0.66742 0.11278 0.24813 0.0
C1363 C 0.68195 0.09945 0.22149 0.0
H1364 H 0.39695 0.68102 0.17439 0.0
H1365 H 0.485 0.6631 0.20601 0.0
H1366 H 0.37781 0.6561 0.22182 0.0
H1367 H 0.46535 0.63749 0.25455 0.0
H1368 H 0.40376 0.57414 0.32591 0.0
H1369 H 0.4308 0.59314 0.27799 0.0
H1370 H 0.37832 0.67111 0.28019 0.0
H1371 H 0.35211 0.65285 0.3269 0.0
C1372 C 0.41243 0.67142 0.19131 0.0
C1373 C 0.44273 0.67456 0.18605 0.0
C1374 C 0.4013 0.65708 0.21886 0.0
C1375 C 0.4198 0.64503 0.2428 0.0
C1376 C 0.45025 0.64644 0.23683 0.0
C1377 C 0.46158 0.66107 0.20885 0.0
C1378 C 0.39831 0.59549 0.3164 0.0
C1379 C 0.37508 0.61147 0.3304 0.0
C1380 C 0.41385 0.60643 0.2888 0.0
C1381 C 0.4065 0.63358 0.2744 0.0
C1382 C 0.38436 0.64988 0.28965 0.0
C1383 C 0.36917 0.6392 0.31682 0.0
H1384 H 0.9146 0.39293 0.35529 0.0
H1385 H 0.97653 0.35141 0.29169 0.0
H1386 H 0.8922 0.41725 0.30852 0.0
H1387 H 0.95543 0.37673 0.24481 0.0
H1388 H 0.89485 0.4043 0.1598 0.0
H1389 H 0.92027 0.38212 0.20602 0.0
H1390 H 0.88893 0.45127 0.26866 0.0
H1391 H 0.86234 0.47212 0.2225 0.0
C1392 C 0.92385 0.3894 0.33129 0.0
C1393 C 0.94742 0.36994 0.32756 0.0
C1394 C 0.91101 0.40359 0.30407 0.0
C1395 C 0.92156 0.39951 0.27183 0.0
C1396 C 0.94581 0.38053 0.26851 0.0
C1397 C 0.95828 0.36598 0.29569 0.0
C1398 C 0.89418 0.41528 0.18325 0.0
C1399 C 0.87727 0.44078 0.18681 0.0
C1400 C 0.90877 0.40237 0.21021 0.0
C1401 C 0.90716 0.4144 0.24213 0.0
C1402 C 0.89078 0.44051 0.24523 0.0
C1403 C 0.87587 0.4531 0.21834 0.0
H1404 H 0.13272 0.93836 0.34603 0.0
H1405 H 0.21199 0.9296 0.29027 0.0
H1406 H 0.10479 0.91887 0.29913 0.0
H1407 H 0.18486 0.90967 0.24488 0.0
H1408 H 0.13098 0.89375 0.15431 0.0
H1409 H 0.15421 0.91797 0.2009 0.0
H1410 H 0.09224 0.87729 0.26577 0.0
H1411 H 0.06877 0.85359 0.21868 0.0
C1412 C 0.14428 0.93261 0.32391 0.0
C1413 C 0.17493 0.93594 0.32258 0.0
C1414 C 0.12823 0.92105 0.29686 0.0
C1415 C 0.14217 0.9126 0.26735 0.0
C1416 C 0.17271 0.91629 0.26628 0.0
C1417 C 0.18855 0.92766 0.29297 0.0
C1418 C 0.12207 0.89021 0.17846 0.0
C1419 C 0.09812 0.87126 0.18248 0.0
C1420 C 0.13567 0.90392 0.20555 0.0
C1421 C 0.12575 0.89958 0.23796 0.0
C1422 C 0.10081 0.88163 0.24166 0.0
C1423 C 0.08735 0.86773 0.2145 0.0
H1424 H 0.39744 0.92253 0.8575 0.0
H1425 H 0.34118 0.97034 0.79259 0.0
H1426 H 0.42331 0.9021 0.81083 0.0
H1427 H 0.36616 0.94897 0.74536 0.0
H1428 H 0.42701 0.9153 0.66234 0.0
H1429 H 0.40592 0.94242 0.70878 0.0
H1430 H 0.42025 0.8677 0.77079 0.0
H1431 H 0.44203 0.84188 0.72589 0.0
C1432 C 0.39055 0.92876 0.83317 0.0
C1433 C 0.36671 0.94776 0.82911 0.0
C1434 C 0.40524 0.91667 0.80603 0.0
C1435 C 0.39682 0.92307 0.77348 0.0
C1436 C 0.37373 0.94324 0.76956 0.0
C1437 C 0.35905 0.95536 0.79683 0.0
C1438 C 0.42626 0.905 0.6861 0.0
C1439 C 0.43656 0.87617 0.68981 0.0
C1440 C 0.41371 0.92044 0.71288 0.0
C1441 C 0.41116 0.90767 0.74436 0.0
C1442 C 0.42206 0.87909 0.74777 0.0
C1443 C 0.4345 0.86392 0.72141 0.0
H1444 H 0.65309 0.36527 0.8374 0.0
H1445 H 0.56739 0.39797 0.81405 0.0
H1446 H 0.67316 0.38957 0.78992 0.0
H1447 H 0.58782 0.42273 0.76541 0.0
H1448 H 0.65185 0.47925 0.69141 0.0
H1449 H 0.62551 0.46179 0.74048 0.0
H1450 H 0.66848 0.37852 0.73165 0.0
H1451 H 0.69407 0.3954 0.68382 0.0
C1452 C 0.63845 0.37811 0.82235 0.0
C1453 C 0.60845 0.37939 0.82992 0.0
C1454 C 0.65004 0.39199 0.79472 0.0
C1455 C 0.63224 0.40783 0.77294 0.0
C1456 C 0.60238 0.41077 0.78137 0.0
C1457 C 0.59062 0.39666 0.80945 0.0
C1458 C 0.6553 0.4571 0.69972 0.0
C1459 C 0.67572 0.4391 0.68348 0.0
C1460 C 0.6402 0.44705 0.72801 0.0
C1461 C 0.64519 0.41878 0.74092 0.0
C1462 C 0.66442 0.40062 0.72347 0.0
C1463 C 0.67921 0.41046 0.69561 0.0
H1464 H 0.13096 0.6579 0.65747 0.0
H1465 H 0.07174 0.70496 0.7195 0.0
H1466 H 0.15227 0.63409 0.70518 0.0
H1467 H 0.09184 0.68027 0.76743 0.0
H1468 H 0.15327 0.65299 0.85246 0.0
H1469 H 0.1283 0.67505 0.80568 0.0
H1470 H 0.15215 0.60077 0.74633 0.0
H1471 H 0.17816 0.57988 0.79279 0.0
C1472 C 0.12205 0.66277 0.68134 0.0
C1473 C 0.09961 0.68357 0.68437 0.0
C1474 C 0.13426 0.64891 0.70908 0.0
C1475 C 0.12413 0.65475 0.74113 0.0
C1476 C 0.101 0.6751 0.74381 0.0
C1477 C 0.08914 0.68928 0.71607 0.0
C1478 C 0.15234 0.64097 0.82966 0.0
C1479 C 0.16703 0.61406 0.82698 0.0
C1480 C 0.13807 0.65376 0.80243 0.0
C1481 C 0.13787 0.64016 0.77125 0.0
C1482 C 0.1519 0.61269 0.76915 0.0
C1483 C 0.16644 0.60018 0.79624 0.0
H1484 H 0.87813 0.16295 0.66961 0.0
H1485 H 0.8828 0.07737 0.7122 0.0
H1486 H 0.90342 0.18361 0.71704 0.0
H1487 H 0.90838 0.09786 0.76002 0.0
H1488 H 0.92368 0.1508 0.85754 0.0
H1489 H 0.90251 0.12727 0.8089 0.0
H1490 H 0.94741 0.18917 0.74767 0.0
H1491 H 0.96873 0.21203 0.79613 0.0
C1492 C 0.88545 0.1483 0.68868 0.0
C1493 C 0.87921 0.1182 0.68616 0.0
C1494 C 0.89994 0.16023 0.71626 0.0
C1495 C 0.90839 0.14271 0.74308 0.0
C1496 C 0.90233 0.11243 0.74037 0.0
C1497 C 0.88805 0.10044 0.7125 0.0
C1498 C 0.92926 0.15925 0.83368 0.0
C1499 C 0.94758 0.18399 0.83121 0.0
C1500 C 0.91706 0.14566 0.80551 0.0
C1501 C 0.92265 0.15621 0.77362 0.0
C1502 C 0.94171 0.18044 0.77135 0.0
C1503 C 0.95401 0.19381 0.79942 0.0
H1504 H 0.43006 0.10363 0.4532 0.0
H1505 H 0.38906 0.147 0.37212 0.0
H1506 H 0.39067 0.06747 0.4537 0.0
H1507 H 0.3505 0.11035 0.37113 0.0
H1508 H 0.26851 0.05698 0.39162 0.0
H1509 H 0.30833 0.09252 0.39211 0.0
H1510 H 0.36527 0.0281 0.43547 0.0
H1511 H 0.32485 0.99378 0.43713 0.0
C1512 C 0.41306 0.10499 0.43483 0.0
C1513 C 0.41311 0.12832 0.4125 0.0
C1514 C 0.39013 0.08412 0.43505 0.0
C1515 C 0.36643 0.08552 0.41266 0.0
C1516 C 0.36736 0.10838 0.38954 0.0
C1517 C 0.38997 0.12939 0.3897 0.0
C1518 C 0.28941 0.05056 0.40173 0.0
C1519 C 0.29318 1.02214 0.41406 0.0
C1520 C 0.31272 0.07094 0.40155 0.0
C1521 C 0.34094 0.06373 0.41349 0.0
C1522 C 0.34432 0.0353 0.42631 0.0
C1523 C 0.32094 1.01518 0.4269 0.0
H1524 H 0.39667 0.38245 0.37332 0.0
H1525 H 0.45253 0.43004 0.43945 0.0
H1526 H 0.43243 0.34329 0.37011 0.0
H1527 H 0.48899 0.39068 0.43601 0.0
H1528 H 0.53149 0.29847 0.4521 0.0
H1529 H 0.4989 0.34088 0.45286 0.0
H1530 H 0.47798 0.32577 0.35142 0.0
H1531 H 0.51016 0.28315 0.35117 0.0
C1532 C 0.41691 0.38487 0.38684 0.0
C1533 C 0.42142 0.40985 0.40657 0.0
C1534 C 0.4377 0.3622 0.38491 0.0
C1535 C 0.46405 0.36316 0.40287 0.0
C1536 C 0.46901 0.38856 0.42201 0.0
C1537 C 0.44818 0.41152 0.42367 0.0
C1538 C 0.52005 0.30429 0.42988 0.0
C1539 C 0.52417 0.28747 0.40134 0.0
C1540 C 0.50137 0.32892 0.43021 0.0
C1541 C 0.48546 0.33747 0.40217 0.0
C1542 C 0.48939 0.32026 0.37374 0.0
C1543 C 0.50828 0.29581 0.37339 0.0
H1544 H 0.10936 0.48508 0.43095 0.0
H1545 H 0.14323 0.41372 0.37396 0.0
H1546 H 0.15773 0.50736 0.433 0.0
H1547 H 0.19219 0.43614 0.37587 0.0
H1548 H 0.26607 0.5066 0.354 0.0
H1549 H 0.22036 0.4783 0.35469 0.0
H1550 H 0.20653 0.50399 0.45487 0.0
H1551 H 0.25198 0.53201 0.45391 0.0
C1552 C 0.12732 0.47379 0.41931 0.0
C1553 C 0.12216 0.44729 0.40263 0.0
C1554 C 0.15529 0.48665 0.42048 0.0
C1555 C 0.17939 0.47381 0.40461 0.0
C1556 C 0.17438 0.44698 0.38827 0.0
C1557 C 0.14629 0.43383 0.38751 0.0
C1558 C 0.25327 0.5061 0.37617 0.0
C1559 C 0.26247 0.52235 0.40363 0.0
C1560 C 0.22707 0.48959 0.37672 0.0
C1561 C 0.20905 0.48895 0.4047 0.0
C1562 C 0.21914 0.50421 0.43256 0.0
C1563 C 0.24546 0.52026 0.43212 0.0
H1564 H 0.09431 0.11118 0.42937 0.0
H1565 H 0.15563 0.16545 0.37783 0.0
H1566 H 0.05784 0.15036 0.42622 0.0
H1567 H 0.11955 0.20418 0.37426 0.0
H1568 H 0.06085 0.28155 0.40127 0.0
H1569 H 0.09577 0.24126 0.40324 0.0
H1570 H 0.02482 0.17941 0.39599 0.0
H1571 H 0.99008 0.21952 0.39482 0.0
C1572 C 0.09992 0.13118 0.4168 0.0
C1573 C 0.12828 0.13486 0.4041 0.0
C1574 C 0.07893 0.15393 0.41504 0.0
C1575 C 0.08545 0.18122 0.40042 0.0
C1576 C 0.11348 0.18422 0.38661 0.0
C1577 C 0.13431 0.16165 0.38842 0.0
C1578 C 0.05261 0.2594 0.40003 0.0
C1579 C 1.02229 0.2543 0.39774 0.0
C1580 C 0.0728 0.23601 0.40097 0.0
C1581 C 0.0636 0.20646 0.39966 0.0
C1582 C 0.03322 0.20147 0.39746 0.0
C1583 C 1.01309 0.22481 0.3965 0.0
H1584 H 0.90504 0.9159 0.12232 0.0
H1585 H 0.94883 0.997 0.10112 0.0
H1586 H 0.85779 0.94172 0.12251 0.0
H1587 H 0.90235 1.02249 0.10137 0.0
H1588 H 0.8237 0.06773 0.14464 0.0
H1589 H 0.86756 0.03835 0.14129 0.0
H1590 H 0.81934 0.97021 0.0921 0.0
H1591 H 0.77475 0.99994 0.09551 0.0
C1592 C 0.90465 0.93906 0.11709 0.0
C1593 C 0.93114 0.95423 0.11211 0.0
C1594 C 0.87746 0.95399 0.11734 0.0
C1595 C 0.87591 0.98459 0.11273 0.0
C1596 C 0.90232 0.99924 0.10604 0.0
C1597 C 0.9292 0.98444 0.10568 0.0
C1598 C 0.82205 0.04647 0.13317 0.0
C1599 C 0.79512 0.03661 0.1203 0.0
C1600 C 0.84759 0.02953 0.131 0.0
C1601 C 0.84757 1.00175 0.116 0.0
C1602 C 0.82052 0.99136 0.1039 0.0
C1603 C 0.79481 1.00855 0.10581 0.0
H1604 H 0.52254 0.80012 0.06378 0.0
H1605 H 0.54109 0.78355 0.16487 0.0
H1606 H 0.55049 0.84568 0.06654 0.0
H1607 H 0.57023 0.82825 0.16778 0.0
H1608 H 0.59192 0.92568 0.17564 0.0
H1609 H 0.56843 0.87839 0.17125 0.0
H1610 H 0.59398 0.87295 0.07005 0.0
H1611 H 0.61672 0.92151 0.07438 0.0
C1612 C 0.53243 0.80632 0.08676 0.0
C1613 C 0.52795 0.7888 0.11456 0.0
C1614 C 0.549 0.83245 0.08832 0.0
C1615 C 0.56256 0.84177 0.11764 0.0
C1616 C 0.55957 0.823 0.1449 0.0
C1617 C 0.54271 0.79709 0.14333 0.0
C1618 C 0.59281 0.91448 0.15235 0.0
C1619 C 0.60636 0.92806 0.12535 0.0
C1620 C 0.57934 0.88684 0.14986 0.0
C1621 C 0.5788 0.87104 0.12022 0.0
C1622 C 0.59325 0.88414 0.09333 0.0
C1623 C 0.60683 0.91203 0.09587 0.0
H1624 H 0.66943 0.65108 0.13838 0.0
H1625 H 0.61798 0.59486 0.07634 0.0
H1626 H 0.70726 0.61396 0.14201 0.0
H1627 H 0.65593 0.55704 0.08034 0.0
H1628 H 0.74573 0.51119 0.06207 0.0
H1629 H 0.70436 0.54495 0.06204 0.0
H1630 H 0.72409 0.56842 0.16182 0.0
H1631 H 0.76576 0.53482 0.16133 0.0
C1632 C 0.6659 0.63054 0.12581 0.0
C1633 C 0.6403 0.62635 0.10698 0.0
C1634 C 0.68778 0.60895 0.12805 0.0
C1635 C 0.68531 0.58206 0.11136 0.0
C1636 C 0.65922 0.57741 0.09329 0.0
C1637 C 0.63708 0.59906 0.0913 0.0
C1638 C 0.74118 0.52348 0.08406 0.0
C1639 C 0.75909 0.51981 0.11183 0.0
C1640 C 0.71712 0.54282 0.08419 0.0
C1641 C 0.71025 0.55983 0.11194 0.0
C1642 C 0.72841 0.55621 0.13971 0.0
C1643 C 0.75234 0.53663 0.13962 0.0
H1644 H 0.98385 0.78432 0.11778 0.0
H1645 H 0.05288 0.72163 0.10522 0.0
H1646 H 0.94792 0.7447 0.11659 0.0
H1647 H 1.01749 0.682 0.10541 0.0
H1648 H 0.94413 0.61601 0.07866 0.0
H1649 H 0.98102 0.65491 0.07959 0.0
H1650 H 0.92603 0.70587 0.14333 0.0
H1651 H 0.88937 0.66746 0.14177 0.0
C1652 C 0.99153 0.76211 0.11506 0.0
C1653 C 1.0217 0.75659 0.11207 0.0
C1654 C 0.97078 0.73906 0.11462 0.0
C1655 C 0.97925 0.70941 0.11116 0.0
C1656 C 1.00947 0.70411 0.10784 0.0
C1657 C 0.0301 0.7271 0.1082 0.0
C1658 C 0.94008 0.63533 0.09323 0.0
C1659 C 0.91332 0.63826 0.10991 0.0
C1660 C 0.96137 0.65795 0.09377 0.0
C1661 C 0.95689 0.68441 0.11119 0.0
C1662 C 0.9305 0.68666 0.12875 0.0
C1663 C 0.90931 0.66424 0.12808 0.0
H1664 H 0.72156 0.06027 0.58472 0.0
H1665 H 0.77814 0.99532 0.62658 0.0
H1666 H 0.68066 0.02646 0.58694 0.0
H1667 H 0.7378 0.96041 0.62668 0.0
H1668 H 0.6572 0.90606 0.64726 0.0
H1669 H 0.69586 0.94262 0.64853 0.0
H1670 H 0.65449 0.9875 0.56809 0.0
H1671 H 0.61506 0.95132 0.56825 0.0
C1672 C 0.7254 0.03866 0.59438 0.0
C1673 C 0.75344 0.03103 0.60592 0.0
C1674 C 0.70173 1.01882 0.59525 0.0
C1675 C 0.70504 0.99006 0.60715 0.0
C1676 C 0.73345 0.98225 0.61797 0.0
C1677 C 0.75706 1.00231 0.61748 0.0
C1678 C 0.65599 0.92414 0.6303 0.0
C1679 C 0.63249 0.92574 0.608 0.0
C1680 C 0.67867 0.94509 0.63058 0.0
C1681 C 0.67934 0.96846 0.60808 0.0
C1682 C 0.65526 0.97043 0.58626 0.0
C1683 C 0.63228 0.94958 0.58633 0.0
H1684 H 0.65356 0.66637 0.64038 0.0
H1685 H 0.60489 0.61933 0.56708 0.0
H1686 H 0.61629 0.70412 0.64164 0.0
H1687 H 0.56785 0.65779 0.567 0.0
H1688 H 0.49382 0.72178 0.58746 0.0
H1689 H 0.52935 0.68267 0.58877 0.0
H1690 H 0.59593 0.74443 0.61817 0.0
H1691 H 0.55943 0.78321 0.61903 0.0
C1692 C 0.63475 0.66402 0.62447 0.0
C1693 C 0.63244 0.63948 0.60369 0.0
C1694 C 0.61331 0.68608 0.62486 0.0
C1695 C 0.58864 0.68493 0.60409 0.0
C1696 C 0.58601 0.65989 0.58381 0.0
C1697 C 0.60738 0.63754 0.58378 0.0
C1698 C 0.516 0.72717 0.59433 0.0
C1699 C 0.52338 0.75609 0.60311 0.0
C1700 C 0.53676 0.70448 0.59477 0.0
C1701 C 0.56617 0.70965 0.60353 0.0
C1702 C 0.57367 0.73882 0.61179 0.0
C1703 C 0.55269 0.7615 0.61175 0.0
H1704 H 0.92581 0.5905 0.66766 0.0
H1705 H 0.91831 0.61633 0.56691 0.0
H1706 H 0.87831 0.56705 0.66484 0.0
H1707 H 0.8698 0.59337 0.56413 0.0
H1708 H 0.79962 0.5191 0.55998 0.0
H1709 H 0.84438 0.54831 0.56156 0.0
H1710 H 0.82763 0.5695 0.66257 0.0
H1711 H 0.78334 0.53953 0.66088 0.0
C1712 C 0.91385 0.59155 0.64484 0.0
C1713 C 0.92645 0.60539 0.61747 0.0
C1714 C 0.88617 0.57811 0.64326 0.0
C1715 C 0.86956 0.57779 0.61418 0.0
C1716 C 0.88171 0.5925 0.58696 0.0
C1717 C 0.90955 0.60616 0.58863 0.0
C1718 C 0.8054 0.53018 0.58248 0.0
C1719 C 0.78807 0.52622 0.61053 0.0
C1720 C 0.8312 0.54719 0.5834 0.0
C1721 C 0.84049 0.56138 0.61233 0.0
C1722 C 0.82212 0.55856 0.63992 0.0
C1723 C 0.79647 0.54134 0.63902 0.0
H1724 H 0.95208 0.93904 0.58473 0.0
H1725 H 0.89399 0.88461 0.64055 0.0
H1726 H 0.9892 0.90038 0.5864 0.0
H1727 H 0.93069 0.84641 0.64255 0.0
H1728 H 0.98884 0.76943 0.61314 0.0
H1729 H 0.9535 0.80934 0.61254 0.0
H1730 H 0.02403 0.87192 0.61527 0.0
H1731 H 0.05923 0.83208 0.61513 0.0
C1732 C 0.94731 0.91913 0.59788 0.0
C1733 C 0.91961 0.91525 0.61223 0.0
C1734 C 0.96869 0.89668 0.59879 0.0
C1735 C 0.96323 0.86947 0.61415 0.0
C1736 C 0.93591 0.86629 0.62958 0.0
C1737 C 0.9147 0.88857 0.62865 0.0
C1738 C 0.99693 0.79165 0.61368 0.0
C1739 C 0.02727 0.79702 0.61431 0.0
C1740 C 0.97648 0.81484 0.61353 0.0
C1741 C 0.98542 0.84448 0.614 0.0
C1742 C 1.01581 0.84976 0.61452 0.0
C1743 C 0.03622 0.82661 0.61472 0.0
H1744 H 0.14638 0.1393 0.86633 0.0
H1745 H 0.10503 0.07499 0.92715 0.0
H1746 H 0.19249 0.11184 0.86911 0.0
H1747 H 0.15079 0.04792 0.93074 0.0
H1748 H 0.21975 0.98531 0.89511 0.0
H1749 H 0.17804 1.0173 0.89615 0.0
H1750 H 0.23512 0.0923 0.89908 0.0
H1751 H 0.2778 0.05966 0.89743 0.0
C1752 C 0.14739 0.11983 0.88123 0.0
C1753 C 0.12199 0.10967 0.89696 0.0
C1754 C 0.17388 0.10389 0.88272 0.0
C1755 C 0.1757 0.07712 0.89973 0.0
C1756 C 0.15049 0.06792 0.91671 0.0
C1757 C 0.12418 0.08374 0.91514 0.0
C1758 C 0.22388 1.00856 0.89586 0.0
C1759 C 0.25276 1.01949 0.89623 0.0
C1760 C 0.19954 0.02715 0.89685 0.0
C1761 C 0.20267 0.05774 0.89826 0.0
C1762 C 0.23151 0.06895 0.89801 0.0
C1763 C 0.25614 0.05014 0.89716 0.0
H1764 H 0.45101 0.12126 0.94052 0.0
H1765 H 0.39294 0.16703 0.87558 0.0
H1766 H 0.48634 0.16165 0.93648 0.0
H1767 H 0.42735 0.20736 0.87215 0.0
H1768 H 0.50255 0.27103 0.85349 0.0
H1769 H 0.471 0.22779 0.85361 0.0
H1770 H 0.49571 0.21067 0.95355 0.0
H1771 H 0.52762 0.25356 0.95282 0.0
C1772 C 0.44592 0.13961 0.92491 0.0
C1773 C 0.41886 0.14051 0.90838 0.0
C1774 C 0.46607 0.1632 0.92294 0.0
C1775 C 0.46002 0.1885 0.90419 0.0
C1776 C 0.43344 0.18861 0.88666 0.0
C1777 C 0.41341 0.16526 0.88875 0.0
C1778 C 0.5014 0.25791 0.87541 0.0
C1779 C 0.51824 0.2657 0.90292 0.0
C1780 C 0.48296 0.23305 0.87568 0.0
C1781 C 0.48049 0.21497 0.90357 0.0
C1782 C 0.49709 0.22323 0.93127 0.0
C1783 C 0.51531 0.24821 0.93101 0.0
H1784 H 0.4317 0.44906 0.8833 0.0
H1785 H 0.37483 0.39605 0.94268 0.0
H1786 H 0.3944 0.48761 0.88252 0.0
H1787 H 0.33769 0.43373 0.94079 0.0
H1788 H 0.26434 0.49303 0.90016 0.0
H1789 H 0.30302 0.4562 0.9018 0.0
H1790 H 0.36721 0.52386 0.91734 0.0
H1791 H 0.32849 0.56047 0.91692 0.0
C1792 C 0.4115 0.44552 0.89639 0.0
C1793 C 0.40654 0.41874 0.9125 0.0
C1794 C 0.38991 0.4677 0.89581 0.0
C1795 C 0.3625 0.46382 0.91107 0.0
C1796 C 0.358 0.43748 0.92796 0.0
C1797 C 0.37956 0.41563 0.92893 0.0
C1798 C 0.28663 0.50013 0.90419 0.0
C1799 C 0.29296 0.53006 0.90816 0.0
C1800 C 0.30898 0.4789 0.90511 0.0
C1801 C 0.3386 0.48678 0.90959 0.0
C1802 C 0.34491 0.51672 0.9134 0.0
C1803 C 0.32252 0.53786 0.91312 0.0
H1804 H 0.09075 0.44195 0.91696 0.0
H1805 H 0.1591 0.37916 0.89946 0.0
H1806 H 0.05423 0.40235 0.91237 0.0
H1807 H 0.12323 0.34018 0.89687 0.0
H1808 H 0.05524 0.27437 0.93911 0.0
H1809 H 0.08861 0.31618 0.93946 0.0
H1810 H 0.03339 0.36074 0.87043 0.0
H1811 H 1.00033 0.31827 0.86914 0.0
C1812 C 0.09817 0.41998 0.91192 0.0
C1813 C 0.12845 0.41425 0.90947 0.0
C1814 C 0.07712 0.39709 0.90947 0.0
C1815 C 0.0856 0.36762 0.90494 0.0
C1816 C 0.11563 0.36224 0.90116 0.0
C1817 C 0.1364 0.38493 0.90286 0.0
C1818 C 0.05011 0.29293 0.92382 0.0
C1819 C 0.02488 0.29243 0.90395 0.0
C1820 C 0.06939 0.31709 0.92402 0.0
C1821 C 0.06396 0.34223 0.90504 0.0
C1822 C 0.03842 0.34206 0.88558 0.0
C1823 C 1.01947 0.31747 0.8847 0.0
H1824 H 0.76855 0.31422 0.37655 0.0
H1825 H 0.70098 0.26557 0.42586 0.0
H1826 H 0.79672 0.31525 0.42624 0.0
H1827 H 0.72829 0.26813 0.47628 0.0
H1828 H 0.81177 0.20736 0.47681 0.0
H1829 H 0.76709 0.23466 0.47997 0.0
H1830 H 0.8157 0.31532 0.48036 0.0
H1831 H 0.86049 0.28809 0.47449 0.0
C1832 C 0.7593 0.30431 0.39816 0.0
C1833 C 0.73344 0.28791 0.3964 0.0
C1834 C 0.77516 0.30556 0.42723 0.0
C1835 C 0.7655 0.29023 0.45508 0.0
C1836 C 0.73695 0.27908 0.45496 0.0
C1837 C 0.72128 0.27749 0.42575 0.0
C1838 C 0.81324 0.23086 0.47907 0.0
C1839 C 0.83966 0.24552 0.47339 0.0
C1840 C 0.78736 0.24674 0.48119 0.0
C1841 C 0.78786 0.27729 0.47712 0.0
C1842 C 0.81466 0.29174 0.48114 0.0
C1843 C 0.8405 0.27599 0.47789 0.0
H1844 H 0.30266 0.70564 0.43539 0.0
H1845 H 0.23977 0.77518 0.42269 0.0
H1846 H 0.33366 0.73832 0.46563 0.0
H1847 H 0.27277 0.80848 0.45045 0.0
H1848 H 0.33673 0.87112 0.4573 0.0
H1849 H 0.31315 0.83077 0.48593 0.0
H1850 H 0.35484 0.77023 0.42005 0.0
H1851 H 0.37873 0.81001 0.39264 0.0
C1852 C 0.29478 0.72753 0.43961 0.0
C1853 C 0.26977 0.73843 0.42369 0.0
C1854 C 0.31294 0.74638 0.45705 0.0
C1855 C 0.30693 0.77635 0.4578 0.0
C1856 C 0.27876 0.78564 0.44896 0.0
C1857 C 0.26009 0.76661 0.43222 0.0
C1858 C 0.3427 0.84896 0.45085 0.0
C1859 C 0.35849 0.84346 0.42198 0.0
C1860 C 0.32885 0.82591 0.46698 0.0
C1861 C 0.33135 0.79743 0.45462 0.0
C1862 C 0.35241 0.79184 0.43036 0.0
C1863 C 0.36638 0.81478 0.41454 0.0
H1864 H 0.29604 0.69521 0.15882 0.0
H1865 H 0.32445 0.75842 0.08769 0.0
H1866 H 0.26375 0.6733 0.11875 0.0
H1867 H 0.29235 0.73636 0.04701 0.0
H1868 H 0.18952 0.73717 0.04048 0.0
H1869 H 0.2417 0.74136 0.044 0.0
H1870 H 0.24748 0.65016 0.07018 0.0
H1871 H 0.19457 0.64631 0.06726 0.0
C1872 C 0.29581 0.7039 0.13423 0.0
C1873 C 0.31187 0.72896 0.12652 0.0
C1874 C 0.27768 0.69106 0.11094 0.0
C1875 C 0.27499 0.70331 0.07955 0.0
C1876 C 0.29348 0.72662 0.071 0.0
C1877 C 0.31186 0.73929 0.0943 0.0
C1878 C 0.20194 0.71756 0.04497 0.0
C1879 C 0.18795 0.69197 0.05545 0.0
C1880 C 0.23216 0.71991 0.04718 0.0
C1881 C 0.2485 0.69658 0.05989 0.0
C1882 C 0.23509 0.669 0.06224 0.0
C1883 C 0.20474 0.6667 0.06019 0.0
H1884 H 0.71141 0.36439 0.06233 0.0
H1885 H 0.68542 0.29745 0.13004 0.0
H1886 H 0.73562 0.32787 0.02873 0.0
H1887 H 0.70931 0.26099 0.09638 0.0
H1888 H 0.75492 0.19921 0.03696 0.0
H1889 H 0.71866 0.23766 0.03118 0.0
H1890 H 0.782 0.30115 0.0637 0.0
H1891 H 0.81886 0.26285 0.06784 0.0
C1892 C 0.70874 0.34157 0.06852 0.0
C1893 C 0.69662 0.3336 0.09874 0.0
C1894 C 0.72282 0.3207 0.04932 0.0
C1895 C 0.72386 0.29156 0.05955 0.0
C1896 C 0.70781 0.28309 0.08718 0.0
C1897 C 0.69401 0.30399 0.10653 0.0
C1898 C 0.76148 0.22153 0.0413 0.0
C1899 C 0.78949 0.228 0.05339 0.0
C1900 C 0.74061 0.24347 0.03835 0.0
C1901 C 0.74728 0.27201 0.04817 0.0
C1902 C 0.77632 0.27919 0.05603 0.0
C1903 C 0.79738 0.25727 0.05856 0.0
H1904 H 0.19404 0.76284 0.52921 0.0
H1905 H 0.252 0.83439 0.55171 0.0
H1906 H 0.23576 0.73102 0.52051 0.0
H1907 H 0.29379 0.80216 0.54519 0.0
H1908 H 0.36386 0.74043 0.55563 0.0
H1909 H 0.32719 0.76457 0.5221 0.0
H1910 H 0.25967 0.71774 0.57345 0.0
H1911 H 0.29596 0.69394 0.60665 0.0
C1912 C 0.2157 0.77208 0.53089 0.0
C1913 C 0.21982 0.80098 0.54146 0.0
C1914 C 0.23962 0.75378 0.52621 0.0
C1915 C 0.2679 0.76373 0.53353 0.0
C1916 C 0.27225 0.7937 0.53954 0.0
C1917 C 0.24829 0.81223 0.54341 0.0
C1918 C 0.34119 0.73398 0.55817 0.0
C1919 C 0.33256 0.71578 0.58408 0.0
C1920 C 0.32019 0.74779 0.53889 0.0
C1921 C 0.29039 0.74263 0.54445 0.0
C1922 C 0.28231 0.72115 0.56725 0.0
C1923 C 0.30323 0.70759 0.58668 0.0
H1924 H 0.66905 0.24294 0.62433 0.0
H1925 H 0.70937 0.17727 0.56422 0.0
H1926 H 0.69065 0.28055 0.59129 0.0
H1927 H 0.73269 0.21503 0.53216 0.0
H1928 H 0.80672 0.27256 0.58508 0.0
H1929 H 0.77269 0.23938 0.55928 0.0
H1930 H 0.71186 0.30987 0.54537 0.0
H1931 H 0.74394 0.34243 0.57475 0.0
C1932 C 0.68054 0.23652 0.60236 0.0
C1933 C 0.68866 0.20744 0.59761 0.0
C1934 C 0.69326 0.25821 0.58326 0.0
C1935 C 0.71388 0.25089 0.55904 0.0
C1936 C 0.71658 0.22147 0.54995 0.0
C1937 C 0.70318 0.19977 0.56857 0.0
C1938 C 0.78614 0.28122 0.57639 0.0
C1939 C 0.7768 0.30935 0.58545 0.0
C1940 C 0.76679 0.26224 0.56066 0.0
C1941 C 0.73831 0.27161 0.55315 0.0
C1942 C 0.73276 0.30169 0.55333 0.0
C1943 C 0.7515 0.32046 0.57025 0.0
H1944 H 0.8704 0.28565 0.98472 0.0
H1945 H 0.82315 0.36318 0.95769 0.0
H1946 H 0.82521 0.25953 0.99237 0.0
H1947 H 0.77819 0.33608 0.96035 0.0
H1948 H 0.70522 0.29075 0.9362 0.0
H1949 H 0.73896 0.30781 0.97719 0.0
H1950 H 0.79995 0.24039 0.94912 0.0
H1951 H 0.76578 0.22288 0.9086 0.0
C1952 C 0.85036 0.29761 0.98214 0.0
C1953 C 0.85055 0.32656 0.97086 0.0
C1954 C 0.82425 0.28239 0.9858 0.0
C1955 C 0.79782 0.29533 0.97632 0.0
C1956 C 0.79778 0.32537 0.9688 0.0
C1957 C 0.82386 0.34097 0.96669 0.0
C1958 C 0.72536 0.27884 0.93938 0.0
C1959 C 0.73383 0.25687 0.91732 0.0
C1960 C 0.74478 0.28867 0.96322 0.0
C1961 C 0.77301 0.27685 0.96511 0.0
C1962 C 0.77888 0.25096 0.94771 0.0
C1963 C 0.75941 0.24109 0.9239 0.0
H1964 H 0.28033 0.86146 0.98986 0.0
H1965 H 0.20881 0.80308 0.96841 0.0
H1966 H 0.31281 0.82009 0.99639 0.0
H1967 H 0.24143 0.76177 0.97322 0.0
H1968 H 0.29991 0.69401 0.95152 0.0
H1969 H 0.27884 0.72851 0.99015 0.0
H1970 H 0.32723 0.7983 0.94449 0.0
H1971 H 0.34704 0.76407 0.90523 0.0
C1972 C 0.2712 0.83975 0.98823 0.0
C1973 C 0.24224 0.83546 0.97781 0.0
C1974 C 0.28994 0.81602 0.9916 0.0
C1975 C 0.28016 0.78786 0.98359 0.0
C1976 C 0.24996 0.78323 0.97909 0.0
C1977 C 0.23108 0.80698 0.97628 0.0
C1978 C 0.30686 0.71657 0.9507 0.0
C1979 C 0.32419 0.72658 0.92474 0.0
C1980 C 0.29501 0.73624 0.97301 0.0
C1981 C 0.30097 0.76614 0.97025 0.0
C1982 C 0.32216 0.77537 0.94754 0.0
C1983 C 0.33359 0.75572 0.92481 0.0
H1984 H 0.68053 0.22933 0.45488 0.0
H1985 H 0.6498 0.14638 0.41951 0.0
H1986 H 0.7219 0.20544 0.4806 0.0
H1987 H 0.68965 0.12177 0.44774 0.0
H1988 H 0.74742 0.08232 0.53003 0.0
H1989 H 0.71044 0.10475 0.49496 0.0
H1990 H 0.76466 0.18152 0.48615 0.0
H1991 H 0.80057 0.15944 0.5225 0.0
C1992 C 0.68278 0.20598 0.45222 0.0
C1993 C 0.66153 0.19012 0.43479 0.0
C1994 C 0.70644 0.19185 0.46786 0.0
C1995 C 0.70944 0.16102 0.46789 0.0
C1996 C 0.68829 0.14527 0.44974 0.0
C1997 C 0.66508 0.15952 0.43339 0.0
C1998 C 0.75193 0.10353 0.51953 0.0
C1999 C 0.77772 0.11846 0.52835 0.0
C2000 C 0.73042 0.11677 0.49943 0.0
C2001 C 0.73377 0.14557 0.48722 0.0
C2002 C 0.76033 0.15981 0.4951 0.0
C2003 C 0.78154 0.14674 0.51551 0.0
H2004 H 0.39876 0.80069 0.5146 0.0
H2005 H 0.46585 0.73972 0.54157 0.0
H2006 H 0.37562 0.763 0.48078 0.0
H2007 H 0.44245 0.70192 0.5079 0.0
H2008 H 0.36589 0.63523 0.48664 0.0
H2009 H 0.39327 0.67439 0.51367 0.0
H2010 H 0.38291 0.72825 0.42839 0.0
H2011 H 0.35483 0.68887 0.4014 0.0
C2012 C 0.40947 0.77975 0.51195 0.0
C2013 C 0.4351 0.77387 0.52983 0.0
C2014 C 0.39594 0.75793 0.4926 0.0
C2015 C 0.407 0.72923 0.49094 0.0
C2016 C 0.4331 0.72362 0.50822 0.0
C2017 C 0.44688 0.74553 0.52719 0.0
C2018 C 0.36937 0.65543 0.47356 0.0
C2019 C 0.35788 0.65871 0.44178 0.0
C2020 C 0.38524 0.67798 0.4891 0.0
C2021 C 0.39039 0.70489 0.4735 0.0
C2022 C 0.37901 0.7082 0.44155 0.0
C2023 C 0.36282 0.68559 0.42603 0.0
H2024 H 0.8615 0.33533 0.43235 0.0
H2025 H 0.91493 0.41232 0.44288 0.0
H2026 H 0.82019 0.36144 0.45322 0.0
H2027 H 0.87457 0.43729 0.46975 0.0
H2028 H 0.7941 0.48243 0.51226 0.0
H2029 H 0.83138 0.46129 0.47627 0.0
H2030 H 0.79693 0.3752 0.49676 0.0
H2031 H 0.75941 0.39651 0.52973 0.0
C2032 C 0.86472 0.35792 0.43917 0.0
C2033 C 0.89219 0.37141 0.43537 0.0
C2034 C 0.8408 0.37289 0.45253 0.0
C2035 C 0.84341 0.40163 0.46484 0.0
C2036 C 0.87093 0.41534 0.46085 0.0
C2037 C 0.89464 0.40066 0.44592 0.0
C2038 C 0.79374 0.45917 0.50751 0.0
C2039 C 0.77323 0.44133 0.52352 0.0
C2040 C 0.81575 0.44674 0.48747 0.0
C2041 C 0.81811 0.41605 0.48312 0.0
C2042 C 0.79636 0.39875 0.49805 0.0
C2043 C 0.77438 0.41111 0.51735 0.0
H2044 H 0.08528 0.81212 0.54605 0.0
H2045 H 0.14482 0.7469 0.51064 0.0
H2046 H 0.10779 0.84844 0.51006 0.0
H2047 H 0.16696 0.78266 0.47387 0.0
H2048 H 0.2234 0.86182 0.44186 0.0
H2049 H 0.19856 0.82342 0.47258 0.0
H2050 H 0.11607 0.86673 0.45681 0.0
H2051 H 0.14092 0.90461 0.42589 0.0
C2052 C 0.10254 0.80529 0.5297 0.0
C2053 C 0.11289 0.77642 0.53086 0.0
C2054 C 0.11568 0.8262 0.50903 0.0
C2055 C 0.1396 0.81892 0.48874 0.0
C2056 C 0.14908 0.78962 0.48924 0.0
C2057 C 0.13609 0.76887 0.51007 0.0
C2058 C 0.19992 0.86304 0.44462 0.0
C2059 C 0.18447 0.8871 0.43192 0.0
C2060 C 0.1855 0.84083 0.46235 0.0
C2061 C 0.15502 0.8418 0.46805 0.0
C2062 C 0.13953 0.86529 0.4541 0.0
C2063 C 0.15392 0.8873 0.43627 0.0
H2064 H 0.29813 0.91261 0.00917 0.0
H2065 H 0.23358 0.964 0.9591 0.0
H2066 H 0.26021 0.8919 0.04421 0.0
H2067 H 0.1952 0.94289 0.99358 0.0
H2068 H 0.13342 0.91178 0.07595 0.0
H2069 H 0.17208 0.93736 0.04649 0.0
H2070 H 0.22138 0.85734 0.04135 0.0
H2071 H 0.18208 0.83158 0.06906 0.0
C2072 C 0.27585 0.9201 1.00624 0.0
C2073 C 0.26913 0.94053 0.98178 0.0
C2074 C 0.25387 0.90785 0.02608 0.0
C2075 C 0.22417 0.91526 0.02191 0.0
C2076 C 0.21764 0.93667 0.99813 0.0
C2077 C 0.23974 0.94902 0.97834 0.0
C2078 C 0.15217 0.89941 0.06799 0.0
C2079 C 0.15391 0.86924 0.07462 0.0
C2080 C 0.17466 0.91426 0.05117 0.0
C2081 C 0.20024 0.8997 0.04101 0.0
C2082 C 0.20242 0.86972 0.04877 0.0
C2083 C 0.17967 0.85478 0.06492 0.0
H2084 H 0.63406 0.13608 0.06518 0.0
H2085 H 0.70563 0.19424 0.08598 0.0
H2086 H 0.60872 0.1757 0.03675 0.0
H2087 H 0.67833 0.23424 0.06353 0.0
H2088 H 0.65006 0.29031 0.9793 0.0
H2089 H 0.66983 0.2527 0.01376 0.0
H2090 H 0.58265 0.22126 0.0338 0.0
H2091 H 0.56281 0.2592 0.99737 0.0
C2092 C 0.64424 0.15727 0.06461 0.0
C2093 C 0.67205 0.16145 0.07899 0.0
C2094 C 0.62939 0.18035 0.04858 0.0
C2095 C 0.64162 0.20867 0.04696 0.0
C2096 C 0.66859 0.21288 0.0628 0.0
C2097 C 0.6839 0.18977 0.07726 0.0
C2098 C 0.63489 0.27603 0.99184 0.0
C2099 C 0.60473 0.27828 0.98576 0.0
C2100 C 0.64632 0.2541 0.01188 0.0
C2101 C 0.62812 0.23337 0.02722 0.0
C2102 C 0.59762 0.2364 0.02239 0.0
C2103 C 0.58608 0.25861 1.002 0.0
H2104 H 0.302 0.58141 0.98468 0.0
H2105 H 0.25512 0.66258 0.98204 0.0
H2106 H 0.33994 0.6042 0.01872 0.0
H2107 H 0.29241 0.68521 0.01607 0.0
H2108 H 0.37576 0.73083 0.04946 0.0
H2109 H 0.33686 0.7061 0.0194 0.0
H2110 H 0.36047 0.62459 0.06519 0.0
H2111 H 0.40021 0.64942 0.09375 0.0
C2112 C 0.29905 0.60378 0.99264 0.0
C2113 C 0.27468 0.61972 0.98143 0.0
C2114 C 0.32116 0.61718 0.01203 0.0
C2115 C 0.31993 0.64718 0.02069 0.0
C2116 C 0.29487 0.66246 0.01022 0.0
C2117 C 0.27292 0.64918 0.99097 0.0
C2118 C 0.3727 0.70763 0.05312 0.0
C2119 C 0.3919 0.69224 0.07373 0.0
C2120 C 0.34994 0.69319 0.03593 0.0
C2121 C 0.34467 0.66279 0.03936 0.0
C2122 C 0.36354 0.64768 0.06083 0.0
C2123 C 0.38662 0.66205 0.07747 0.0
H2124 H 0.88504 0.41217 0.04115 0.0
H2125 H 0.85386 0.35417 0.11611 0.0
H2126 H 0.9137 0.3741 0.01799 0.0
H2127 H 0.8821 0.31422 0.09116 0.0
H2128 H 0.90915 0.24495 0.01077 0.0
H2129 H 0.8883 0.28089 0.04829 0.0
H2130 H 0.95222 0.34406 0.01606 0.0
H2131 H 0.9723 0.30812 0.97839 0.0
C2132 C 0.88467 0.39136 0.05338 0.0
C2133 C 0.8675 0.38711 0.0815 0.0
C2134 C 0.90124 0.36892 0.03957 0.0
C2135 C 0.90087 0.34043 0.05228 0.0
C2136 C 0.88321 0.33566 0.08021 0.0
C2137 C 0.8669 0.35867 0.09469 0.0
C2138 C 0.91929 0.2663 0.01258 0.0
C2139 C 0.94241 0.27364 0.99154 0.0
C2140 C 0.90728 0.28712 0.03423 0.0
C2141 C 0.91752 0.31622 0.03481 0.0
C2142 C 0.94247 0.32254 0.01564 0.0
C2143 C 0.95457 0.30167 0.9943 0.0
H2144 H 0.35298 0.83384 0.60106 0.0
H2145 H 0.41222 0.8879 0.54671 0.0
H2146 H 0.31153 0.85798 0.57377 0.0
H2147 H 0.37172 0.91242 0.52061 0.0
H2148 H 0.29536 0.96907 0.49205 0.0
H2149 H 0.33235 0.94648 0.52734 0.0
H2150 H 0.28589 0.86466 0.52206 0.0
H2151 H 0.249 0.88742 0.48726 0.0
C2152 C 0.35737 0.85111 0.58374 0.0
C2153 C 0.3865 0.85961 0.57747 0.0
C2154 C 0.33347 0.86505 0.56792 0.0
C2155 C 0.3378 0.88809 0.54534 0.0
C2156 C 0.36694 0.89584 0.53863 0.0
C2157 C 0.39055 0.88178 0.55405 0.0
C2158 C 0.29229 0.94664 0.49969 0.0
C2159 C 0.26844 0.93049 0.4875 0.0
C2160 C 0.31396 0.93333 0.51943 0.0
C2161 C 0.31263 0.90332 0.52772 0.0
C2162 C 0.28785 0.8877 0.5169 0.0
C2163 C 0.26641 0.90093 0.49697 0.0
H2164 H 0.68326 0.41535 0.52559 0.0
H2165 H 0.69227 0.36046 0.61011 0.0
H2166 H 0.65437 0.37762 0.4981 0.0
H2167 H 0.66283 0.32242 0.5826 0.0
H2168 H 0.64378 0.25066 0.49826 0.0
H2169 H 0.66778 0.28742 0.53256 0.0
H2170 H 0.60549 0.35179 0.50107 0.0
H2171 H 0.58138 0.31486 0.46677 0.0
C2172 C 0.67899 0.39518 0.53841 0.0
C2173 C 0.69033 0.39112 0.57012 0.0
C2174 C 0.66227 0.37342 0.52259 0.0
C2175 C 0.65618 0.34652 0.53781 0.0
C2176 C 0.66747 0.34245 0.56969 0.0
C2177 C 0.68443 0.36429 0.58552 0.0
C2178 C 0.63444 0.27234 0.4997 0.0
C2179 C 0.60989 0.27935 0.4805 0.0
C2180 C 0.64842 0.29361 0.51934 0.0
C2181 C 0.63889 0.32289 0.51998 0.0
C2182 C 0.6137 0.32964 0.50148 0.0
C2183 C 0.59944 0.30824 0.48217 0.0
H2184 H 0.28929 0.65175 0.48157 0.0
H2185 H 0.25474 0.566 0.50001 0.0
H2186 H 0.25114 0.67334 0.51271 0.0
H2187 H 0.21666 0.58745 0.53462 0.0
H2188 H 0.13382 0.636 0.57195 0.0
H2189 H 0.17396 0.61057 0.5448 0.0
H2190 H 0.22581 0.68903 0.55212 0.0
H2191 H 0.18531 0.71482 0.57413 0.0
C2192 C 0.27416 0.63725 0.49386 0.0
C2193 C 0.27567 0.60697 0.48832 0.0
C2194 C 0.25167 0.6498 0.51224 0.0
C2195 C 0.22967 0.63271 0.52719 0.0
C2196 C 0.23236 0.60196 0.52349 0.0
C2197 C 0.25486 0.58933 0.5042 0.0
C2198 C 0.15361 0.648 0.5669 0.0
C2199 C 0.15564 0.67786 0.57535 0.0
C2200 C 0.17721 0.63313 0.55171 0.0
C2201 C 0.20411 0.64737 0.54514 0.0
C2202 C 0.206 0.67687 0.55503 0.0
C2203 C 0.18239 0.69182 0.5689 0.0
H2204 H 0.88454 0.13437 0.53986 0.0
H2205 H 0.85041 0.19738 0.60773 0.0
H2206 H 0.91112 0.17196 0.51181 0.0
H2207 H 0.87697 0.23615 0.57908 0.0
H2208 H 0.90468 0.30314 0.49971 0.0
H2209 H 0.88304 0.26688 0.53599 0.0
H2210 H 0.94746 0.20407 0.5043 0.0
H2211 H 0.96768 0.24025 0.46687 0.0
C2212 C 0.88342 0.15623 0.54961 0.0
C2213 C 0.86594 0.1622 0.57708 0.0
C2214 C 0.89879 0.17829 0.53314 0.0
C2215 C 0.89705 0.20784 0.54279 0.0
C2216 C 0.87912 0.21401 0.57018 0.0
C2217 C 0.86379 0.19163 0.58693 0.0
C2218 C 0.91433 0.28158 0.50085 0.0
C2219 C 0.93776 0.27462 0.48014 0.0
C2220 C 0.902 0.2606 0.52198 0.0
C2221 C 0.91266 0.23167 0.52322 0.0
C2222 C 0.93753 0.22546 0.5038 0.0
C2223 C 0.94972 0.24649 0.48256 0.0
H2224 H 0.9101 0.14105 0.94533 0.0
H2225 H 0.86716 0.22406 0.95594 0.0
H2226 H 0.87067 0.11745 0.97538 0.0
H2227 H 0.82752 0.20071 0.9854 0.0
H2228 H 0.74804 0.15026 0.02033 0.0
H2229 H 0.78635 0.17119 0.9861 0.0
H2230 H 0.84794 0.10923 0.02575 0.0
H2231 H 0.80901 0.08813 0.05935 0.0
C2232 C 0.89219 0.15437 0.95382 0.0
C2233 C 0.89195 0.1846 0.94723 0.0
C2234 C 0.86939 0.14076 0.97138 0.0
C2235 C 0.84528 0.15681 0.98322 0.0
C2236 C 0.84502 0.18708 0.9764 0.0
C2237 C 0.8679 0.20066 0.959 0.0
C2238 C 0.76972 0.14089 0.02132 0.0
C2239 C 0.77525 0.11733 0.04239 0.0
C2240 C 0.79197 0.15309 1.00184 0.0
C2241 C 0.82089 0.14237 1.00286 0.0
C2242 C 0.82616 0.11813 0.0235 0.0
C2243 C 0.80372 0.10581 0.04285 0.0
H2244 H 0.41366 0.91176 0.93112 0.0
H2245 H 0.33354 0.86837 0.9575 0.0
H2246 H 0.44167 0.87258 0.95724 0.0
H2247 H 0.36128 0.82958 0.98335 0.0
H2248 H 0.41252 0.75153 0.01334 0.0
H2249 H 0.38997 0.78826 0.97827 0.0
H2250 H 0.45662 0.85018 1.00675 0.0
H2251 H 0.47919 0.81301 0.04097 0.0
C2252 C 0.40191 0.89408 0.94266 0.0
C2253 C 0.3711 0.8937 0.94209 0.0
C2254 C 0.41807 0.87135 0.95768 0.0
C2255 C 0.40402 0.84724 0.97252 0.0
C2256 C 0.37322 0.84703 0.97172 0.0
C2257 C 0.35716 0.86964 0.95688 0.0
C2258 C 0.42303 0.77262 0.01108 0.0
C2259 C 0.44827 0.77878 0.02956 0.0
C2260 C 0.40971 0.79412 0.99137 0.0
C2261 C 0.42085 0.82293 0.98974 0.0
C2262 C 0.44721 0.82849 1.00671 0.0
C2263 C 0.46058 0.80684 0.02623 0.0
H2264 H 0.79359 0.38984 0.03102 0.0
H2265 H 0.75152 0.47322 0.02007 0.0
H2266 H 0.7561 0.36705 0.99703 0.0
H2267 H 0.71399 0.45031 0.98527 0.0
H2268 H 0.632 0.39197 0.96809 0.0
H2269 H 0.67271 0.4168 0.99362 0.0
H2270 H 0.73231 0.36038 0.94238 0.0
H2271 H 0.69063 0.33604 0.91526 0.0
C2272 C 0.77699 0.40365 0.02022 0.0
C2273 C 0.77619 0.43372 0.02816 0.0
C2274 C 0.7553 0.39038 1.00056 0.0
C2275 C 0.73166 0.40643 0.98791 0.0
C2276 C 0.73158 0.43687 0.99451 0.0
C2277 C 0.75351 0.45028 0.01411 0.0
C2278 C 0.65357 0.38503 0.96138 0.0
C2279 C 0.65732 0.3618 0.93896 0.0
C2280 C 0.67731 0.39946 0.97637 0.0
C2281 C 0.70635 0.39119 0.97021 0.0
C2282 C 0.71044 0.3676 0.94813 0.0
C2283 C 0.6864 0.35336 0.9326 0.0
H2284 H 0.07677 0.74456 0.03197 0.0
H2285 H 0.15204 0.80035 0.02289 0.0
H2286 H 0.09981 0.70867 0.99575 0.0
H2287 H 0.17501 0.76491 0.98642 0.0
H2288 H 0.206 0.69773 0.90844 0.0
H2289 H 0.17997 0.7375 0.93662 0.0
H2290 H 0.13803 0.67423 0.9987 0.0
H2291 H 0.16512 0.63572 0.97231 0.0
C2292 C 0.09781 0.74963 0.02136 0.0
C2293 C 0.11227 0.77561 0.03007 0.0
C2294 C 0.11139 0.7288 1.00089 0.0
C2295 C 0.13976 0.73339 0.9881 0.0
C2296 C 0.15323 0.76038 0.99522 0.0
C2297 C 0.13998 0.78082 0.01628 0.0
C2298 C 0.19121 0.69238 0.92813 0.0
C2299 C 0.18673 0.66294 0.93688 0.0
C2300 C 0.17614 0.71526 0.94439 0.0
C2301 C 0.15598 0.70942 0.96979 0.0
C2302 C 0.15234 0.68001 0.9788 0.0
C2303 C 0.1677 0.65752 0.96311 0.0
loop_
_geom_bond_atom_site_label_1
_geom_bond_atom_site_label_2
_geom_bond_distance
_geom_bond_site_symmetry_2
_ccdc_geom_bond_type
Tb0 N29 2.617 . S
Tb0 N35 2.572 . S
Tb0 O44 2.465 . S
Tb0 O45 2.387 . S
Tb0 O47 2.428 . S
Tb0 O48 2.308 . S
Tb0 O52 2.349 . S
Tb0 O55 2.393 . S
Tb0 C64 2.802 . S
C1 N2 1.379 . S
C1 C4 1.416 . S
C1 C8 1.424 . S
N2 C1 1.379 . S
N2 C5 1.334 . S
N2 Tb11 2.617 . S
C3 C5 1.390 . S
C3 C6 1.339 . S
C3 H23 0.930 . S
C4 C1 1.416 . S
C4 C6 1.416 . S
C4 C10 1.448 . S
C5 N2 1.334 . S
C5 C3 1.390 . S
C5 H16 0.930 . S
C6 C3 1.339 . S
C6 C4 1.416 . S
C6 H27 0.930 . S
C7 C8 1.413 . S
C7 C9 1.427 . S
C7 C13 1.416 . S
C8 C1 1.424 . S
C8 C7 1.413 . S
C8 N12 1.361 . S
C9 C7 1.427 . S
C9 C10 1.328 . S
C9 H24 0.929 . S
C10 C4 1.448 . S
C10 C9 1.328 . S
C10 H25 0.930 . S
Tb11 N2 2.617 . S
Tb11 N12 2.572 . S
Tb11 O46 2.349 . S
Tb11 O49 2.393 . S
Tb11 O50 2.465 . S
Tb11 O51 2.387 . S
Tb11 O53 2.428 . S
Tb11 O54 2.308 . S
Tb11 C75 2.802 . S
N12 C8 1.361 . S
N12 Tb11 2.572 . S
N12 C14 1.340 . S
C13 C7 1.416 . S
C13 C15 1.332 . S
C13 H21 0.931 . S
C14 N12 1.340 . S
C14 C15 1.407 . S
C14 H20 0.930 . S
C15 C13 1.332 . S
C15 C14 1.407 . S
C15 H17 0.929 . S
H16 C5 0.930 . S
H17 C15 0.929 . S
H18 C33 0.930 . S
H19 C40 0.929 . S
H20 C14 0.930 . S
H21 C13 0.931 . S
H22 C36 0.930 . S
H23 C3 0.930 . S
H24 C9 0.929 . S
H25 C10 0.930 . S
H26 C31 0.930 . S
H27 C6 0.930 . S
H28 C39 0.931 . S
N29 Tb0 2.617 . S
N29 C30 1.379 . S
N29 C33 1.334 . S
C30 N29 1.379 . S
C30 C32 1.416 . S
C30 C38 1.424 . S
C31 H26 0.930 . S
C31 C33 1.390 . S
C31 C34 1.339 . S
C32 C30 1.416 . S
C32 C34 1.416 . S
C32 C65 1.448 . S
C33 H18 0.930 . S
C33 N29 1.334 . S
C33 C31 1.390 . S
C34 C31 1.339 . S
C34 C32 1.416 . S
C34 H41 0.930 . S
N35 Tb0 2.572 . S
N35 C36 1.340 . S
N35 C38 1.361 . S
C36 H22 0.930 . S
C36 N35 1.340 . S
C36 C40 1.407 . S
C37 C38 1.413 . S
C37 C39 1.416 . S
C37 C66 1.427 . S
C38 C30 1.424 . S
C38 N35 1.361 . S
C38 C37 1.413 . S
C39 H28 0.931 . S
C39 C37 1.416 . S
C39 C40 1.332 . S
C40 H19 0.929 . S
C40 C36 1.407 . S
C40 C39 1.332 . S
H41 C34 0.930 . S
H42 C65 0.930 . S
H43 C66 0.929 . S
O44 Tb0 2.465 . S
O44 C64 1.264 . S
O45 Tb0 2.387 . S
O45 C56 1.264 . S
O46 Tb11 2.349 . S
O46 C56 1.243 . S
O47 Tb0 2.428 . S
O47 C64 1.256 . S
O48 Tb0 2.308 . S
O48 C63 1.266 . S
O49 Tb11 2.393 . S
O49 C63 1.248 . S
O50 Tb11 2.465 . S
O50 C75 1.264 . S
O51 Tb11 2.387 . S
O51 C67 1.264 . S
O52 Tb0 2.349 . S
O52 C67 1.243 . S
O53 Tb11 2.428 . S
O53 C75 1.256 . S
O54 Tb11 2.308 . S
O54 C74 1.266 . S
O55 Tb0 2.393 . S
O55 C74 1.248 . S
C56 O45 1.264 . S
C56 O46 1.243 . S
C57 C60 1.399 . S
C57 C62 1.383 . S
C57 C64 1.496 . S
C58 C59 1.399 . S
C58 C62 1.389 . S
C59 C58 1.399 . S
C59 C61 1.380 . S
C59 H76 0.929 . S
C60 C57 1.399 . S
C60 C61 1.392 . S
C60 H77 0.929 . S
C61 C59 1.380 . S
C61 C60 1.392 . S
C61 H78 0.929 . S
C62 C57 1.383 . S
C62 C58 1.389 . S
C62 H79 0.931 . S
C63 O48 1.266 . S
C63 O49 1.248 . S
C64 Tb0 2.802 . S
C64 O44 1.264 . S
C64 O47 1.256 . S
C64 C57 1.496 . S
C65 C32 1.448 . S
C65 H42 0.930 . S
C65 C66 1.328 . S
C66 C37 1.427 . S
C66 H43 0.929 . S
C66 C65 1.328 . S
C67 O51 1.264 . S
C67 O52 1.243 . S
C68 C71 1.399 . S
C68 C72 1.383 . S
C68 C75 1.496 . S
C69 C70 1.399 . S
C69 C72 1.389 . S
C70 C69 1.399 . S
C70 C73 1.380 . S
C70 H80 0.929 . S
C71 C68 1.399 . S
C71 C73 1.392 . S
C71 H81 0.929 . S
C72 C68 1.383 . S
C72 C69 1.389 . S
C72 H82 0.931 . S
C73 C70 1.380 . S
C73 C71 1.392 . S
C73 H83 0.929 . S
C74 O54 1.266 . S
C74 O55 1.248 . S
C75 Tb11 2.802 . S
C75 O50 1.264 . S
C75 O53 1.256 . S
C75 C68 1.496 . S
H76 C59 0.929 . S
H77 C60 0.929 . S
H78 C61 0.929 . S
H79 C62 0.931 . S
H80 C70 0.929 . S
H81 C71 0.929 . S
H82 C72 0.931 . S
H83 C73 0.929 . S
Tb84 N113 2.617 . S
Tb84 N119 2.572 . S
Tb84 O128 2.465 . S
Tb84 O129 2.387 . S
Tb84 O131 2.428 . S
Tb84 O132 2.308 . S
Tb84 O136 2.349 . S
Tb84 O139 2.393 . S
Tb84 C148 2.802 . S
C85 N86 1.379 . S
C85 C88 1.416 . S
C85 C92 1.424 . S
N86 C85 1.379 . S
N86 C89 1.334 . S
N86 Tb95 2.617 . S
C87 C89 1.390 . S
C87 C90 1.339 . S
C87 H107 0.930 . S
C88 C85 1.416 . S
C88 C90 1.416 . S
C88 C94 1.448 . S
C89 N86 1.334 . S
C89 C87 1.390 . S
C89 H100 0.930 . S
C90 C87 1.339 . S
C90 C88 1.416 . S
C90 H111 0.930 . S
C91 C92 1.413 . S
C91 C93 1.427 . S
C91 C97 1.416 . S
C92 C85 1.424 . S
C92 C91 1.413 . S
C92 N96 1.361 . S
C93 C91 1.427 . S
C93 C94 1.328 . S
C93 H108 0.929 . S
C94 C88 1.448 . S
C94 C93 1.328 . S
C94 H109 0.930 . S
Tb95 N86 2.617 . S
Tb95 N96 2.572 . S
Tb95 O130 2.349 . S
Tb95 O133 2.393 . S
Tb95 O134 2.465 . S
Tb95 O135 2.387 . S
Tb95 O137 2.428 . S
Tb95 O138 2.308 . S
Tb95 C159 2.802 . S
N96 C92 1.361 . S
N96 Tb95 2.572 . S
N96 C98 1.340 . S
C97 C91 1.416 . S
C97 C99 1.332 . S
C97 H105 0.931 . S
C98 N96 1.340 . S
C98 C99 1.407 . S
C98 H104 0.930 . S
C99 C97 1.332 . S
C99 C98 1.407 . S
C99 H101 0.929 . S
H100 C89 0.930 . S
H101 C99 0.929 . S
H102 C117 0.930 . S
H103 C124 0.929 . S
H104 C98 0.930 . S
H105 C97 0.931 . S
H106 C120 0.930 . S
H107 C87 0.930 . S
H108 C93 0.929 . S
H109 C94 0.930 . S
H110 C115 0.930 . S
H111 C90 0.930 . S
H112 C123 0.931 . S
N113 Tb84 2.617 . S
N113 C114 1.379 . S
N113 C117 1.334 . S
C114 N113 1.379 . S
C114 C116 1.416 . S
C114 C122 1.424 . S
C115 H110 0.930 . S
C115 C117 1.390 . S
C115 C118 1.339 . S
C116 C114 1.416 . S
C116 C118 1.416 . S
C116 C149 1.448 . S
C117 H102 0.930 . S
C117 N113 1.334 . S
C117 C115 1.390 . S
C118 C115 1.339 . S
C118 C116 1.416 . S
C118 H125 0.930 . S
N119 Tb84 2.572 . S
N119 C120 1.340 . S
N119 C122 1.361 . S
C120 H106 0.930 . S
C120 N119 1.340 . S
C120 C124 1.407 . S
C121 C122 1.413 . S
C121 C123 1.416 . S
C121 C150 1.427 . S
C122 C114 1.424 . S
C122 N119 1.361 . S
C122 C121 1.413 . S
C123 H112 0.931 . S
C123 C121 1.416 . S
C123 C124 1.332 . S
C124 H103 0.929 . S
C124 C120 1.407 . S
C124 C123 1.332 . S
H125 C118 0.930 . S
H126 C149 0.930 . S
H127 C150 0.929 . S
O128 Tb84 2.465 . S
O128 C148 1.264 . S
O129 Tb84 2.387 . S
O129 C140 1.264 . S
O130 Tb95 2.349 . S
O130 C140 1.243 . S
O131 Tb84 2.428 . S
O131 C148 1.256 . S
O132 Tb84 2.308 . S
O132 C147 1.266 . S
O133 Tb95 2.393 . S
O133 C147 1.248 . S
O134 Tb95 2.465 . S
O134 C159 1.264 . S
O135 Tb95 2.387 . S
O135 C151 1.264 . S
O136 Tb84 2.349 . S
O136 C151 1.243 . S
O137 Tb95 2.428 . S
O137 C159 1.256 . S
O138 Tb95 2.308 . S
O138 C158 1.266 . S
O139 Tb84 2.393 . S
O139 C158 1.248 . S
C140 O129 1.264 . S
C140 O130 1.243 . S
C141 C144 1.399 . S
C141 C146 1.383 . S
C141 C148 1.496 . S
C142 C143 1.399 . S
C142 C146 1.389 . S
C143 C142 1.399 . S
C143 C145 1.380 . S
C143 H160 0.929 . S
C144 C141 1.399 . S
C144 C145 1.392 . S
C144 H161 0.929 . S
C145 C143 1.380 . S
C145 C144 1.392 . S
C145 H162 0.929 . S
C146 C141 1.383 . S
C146 C142 1.389 . S
C146 H163 0.931 . S
C147 O132 1.266 . S
C147 O133 1.248 . S
C148 Tb84 2.802 . S
C148 O128 1.264 . S
C148 O131 1.256 . S
C148 C141 1.496 . S
C149 C116 1.448 . S
C149 H126 0.930 . S
C149 C150 1.328 . S
C150 C121 1.427 . S
C150 H127 0.929 . S
C150 C149 1.328 . S
C151 O135 1.264 . S
C151 O136 1.243 . S
C152 C155 1.399 . S
C152 C156 1.383 . S
C152 C159 1.496 . S
C153 C154 1.399 . S
C153 C156 1.389 . S
C154 C153 1.399 . S
C154 C157 1.380 . S
C154 H164 0.929 . S
C155 C152 1.399 . S
C155 C157 1.392 . S
C155 H165 0.929 . S
C156 C152 1.383 . S
C156 C153 1.389 . S
C156 H166 0.931 . S
C157 C154 1.380 . S
C157 C155 1.392 . S
C157 H167 0.929 . S
C158 O138 1.266 . S
C158 O139 1.248 . S
C159 Tb95 2.802 . S
C159 O134 1.264 . S
C159 O137 1.256 . S
C159 C152 1.496 . S
H160 C143 0.929 . S
H161 C144 0.929 . S
H162 C145 0.929 . S
H163 C146 0.931 . S
H164 C154 0.929 . S
H165 C155 0.929 . S
H166 C156 0.931 . S
H167 C157 0.929 . S
Tb168 N197 2.617 . S
Tb168 N203 2.572 . S
Tb168 O212 2.465 . S
Tb168 O213 2.387 . S
Tb168 O215 2.428 . S
Tb168 O216 2.308 . S
Tb168 O220 2.349 . S
Tb168 O223 2.393 . S
Tb168 C232 2.802 . S
C169 N170 1.379 . S
C169 C172 1.416 . S
C169 C176 1.424 1_655 S
N170 C169 1.379 . S
N170 C173 1.334 . S
N170 Tb179 2.617 . S
C171 C173 1.390 . S
C171 C174 1.339 . S
C171 H191 0.930 . S
C172 C169 1.416 . S
C172 C174 1.416 . S
C172 C178 1.448 1_655 S
C173 N170 1.334 . S
C173 C171 1.390 . S
C173 H184 0.930 . S
C174 C171 1.339 . S
C174 C172 1.416 . S
C174 H195 0.930 . S
C175 C176 1.413 . S
C175 C177 1.427 . S
C175 C181 1.416 . S
C176 C169 1.424 1_455 S
C176 C175 1.413 . S
C176 N180 1.361 . S
C177 C175 1.427 . S
C177 C178 1.328 . S
C177 H192 0.929 . S
C178 C172 1.448 1_455 S
C178 C177 1.328 . S
C178 H193 0.930 . S
Tb179 N170 2.617 . S
Tb179 N180 2.572 1_655 S
Tb179 O214 2.349 . S
Tb179 O217 2.393 . S
Tb179 O218 2.465 1_655 S
Tb179 O219 2.387 . S
Tb179 O221 2.428 1_655 S
Tb179 O222 2.308 . S
Tb179 C243 2.802 1_655 S
N180 C176 1.361 . S
N180 Tb179 2.572 1_455 S
N180 C182 1.340 . S
C181 C175 1.416 . S
C181 C183 1.332 . S
C181 H189 0.931 . S
C182 N180 1.340 . S
C182 C183 1.407 . S
C182 H188 0.930 . S
C183 C181 1.332 . S
C183 C182 1.407 . S
C183 H185 0.929 . S
H184 C173 0.930 . S
H185 C183 0.929 . S
H186 C201 0.930 . S
H187 C208 0.929 . S
H188 C182 0.930 . S
H189 C181 0.931 . S
H190 C204 0.930 . S
H191 C171 0.930 . S
H192 C177 0.929 . S
H193 C178 0.930 . S
H194 C199 0.930 . S
H195 C174 0.930 . S
H196 C207 0.931 . S
N197 Tb168 2.617 . S
N197 C198 1.379 . S
N197 C201 1.334 . S
C198 N197 1.379 . S
C198 C200 1.416 . S
C198 C206 1.424 . S
C199 H194 0.930 . S
C199 C201 1.390 . S
C199 C202 1.339 . S
C200 C198 1.416 . S
C200 C202 1.416 . S
C200 C233 1.448 . S
C201 H186 0.930 . S
C201 N197 1.334 . S
C201 C199 1.390 . S
C202 C199 1.339 . S
C202 C200 1.416 . S
C202 H209 0.930 . S
N203 Tb168 2.572 . S
N203 C204 1.340 . S
N203 C206 1.361 . S
C204 H190 0.930 . S
C204 N203 1.340 . S
C204 C208 1.407 . S
C205 C206 1.413 . S
C205 C207 1.416 . S
C205 C234 1.427 . S
C206 C198 1.424 . S
C206 N203 1.361 . S
C206 C205 1.413 . S
C207 H196 0.931 . S
C207 C205 1.416 . S
C207 C208 1.332 . S
C208 H187 0.929 . S
C208 C204 1.407 . S
C208 C207 1.332 . S
H209 C202 0.930 . S
H210 C233 0.930 . S
H211 C234 0.929 . S
O212 Tb168 2.465 . S
O212 C232 1.264 . S
O213 Tb168 2.387 . S
O213 C224 1.264 . S
O214 Tb179 2.349 . S
O214 C224 1.243 . S
O215 Tb168 2.428 . S
O215 C232 1.256 . S
O216 Tb168 2.308 . S
O216 C231 1.266 . S
O217 Tb179 2.393 . S
O217 C231 1.248 . S
O218 Tb179 2.465 1_455 S
O218 C243 1.264 . S
O219 Tb179 2.387 . S
O219 C235 1.264 . S
O220 Tb168 2.349 . S
O220 C235 1.243 . S
O221 Tb179 2.428 1_455 S
O221 C243 1.256 . S
O222 Tb179 2.308 . S
O222 C242 1.266 . S
O223 Tb168 2.393 . S
O223 C242 1.248 . S
C224 O213 1.264 . S
C224 O214 1.243 . S
C225 C228 1.399 . S
C225 C230 1.383 . S
C225 C232 1.496 . S
C226 C227 1.399 . S
C226 C230 1.389 . S
C227 C226 1.399 . S
C227 C229 1.380 . S
C227 H244 0.929 . S
C228 C225 1.399 . S
C228 C229 1.392 . S
C228 H245 0.929 . S
C229 C227 1.380 . S
C229 C228 1.392 . S
C229 H246 0.929 . S
C230 C225 1.383 . S
C230 C226 1.389 . S
C230 H247 0.931 . S
C231 O216 1.266 . S
C231 O217 1.248 . S
C232 Tb168 2.802 . S
C232 O212 1.264 . S
C232 O215 1.256 . S
C232 C225 1.496 . S
C233 C200 1.448 . S
C233 H210 0.930 . S
C233 C234 1.328 . S
C234 C205 1.427 . S
C234 H211 0.929 . S
C234 C233 1.328 . S
C235 O219 1.264 . S
C235 O220 1.243 . S
C236 C239 1.399 . S
C236 C240 1.383 . S
C236 C243 1.496 . S
C237 C238 1.399 . S
C237 C240 1.389 . S
C238 C237 1.399 . S
C238 C241 1.380 . S
C238 H248 0.929 . S
C239 C236 1.399 . S
C239 C241 1.392 . S
C239 H249 0.929 . S
C240 C236 1.383 . S
C240 C237 1.389 . S
C240 H250 0.931 . S
C241 C238 1.380 . S
C241 C239 1.392 . S
C241 H251 0.929 . S
C242 O222 1.266 . S
C242 O223 1.248 . S
C243 Tb179 2.802 1_455 S
C243 O218 1.264 . S
C243 O221 1.256 . S
C243 C236 1.496 . S
H244 C227 0.929 . S
H245 C228 0.929 . S
H246 C229 0.929 . S
H247 C230 0.931 . S
H248 C238 0.929 . S
H249 C239 0.929 . S
H250 C240 0.931 . S
H251 C241 0.929 . S
Tb252 N281 2.617 . S
Tb252 N287 2.572 . S
Tb252 O296 2.465 1_565 S
Tb252 O297 2.387 . S
Tb252 O299 2.428 1_565 S
Tb252 O300 2.308 . S
Tb252 O304 2.349 1_565 S
Tb252 O307 2.393 . S
Tb252 C316 2.802 1_565 S
C253 N254 1.379 . S
C253 C256 1.416 . S
C253 C260 1.424 . S
N254 C253 1.379 . S
N254 C257 1.334 . S
N254 Tb263 2.617 . S
C255 C257 1.390 . S
C255 C258 1.339 . S
C255 H275 0.930 . S
C256 C253 1.416 . S
C256 C258 1.416 . S
C256 C262 1.448 . S
C257 N254 1.334 . S
C257 C255 1.390 . S
C257 H268 0.930 . S
C258 C255 1.339 . S
C258 C256 1.416 . S
C258 H279 0.930 . S
C259 C260 1.413 . S
C259 C261 1.427 . S
C259 C265 1.416 . S
C260 C253 1.424 . S
C260 C259 1.413 . S
C260 N264 1.361 . S
C261 C259 1.427 . S
C261 C262 1.328 . S
C261 H276 0.929 . S
C262 C256 1.448 . S
C262 C261 1.328 . S
C262 H277 0.930 . S
Tb263 N254 2.617 . S
Tb263 N264 2.572 . S
Tb263 O298 2.349 . S
Tb263 O301 2.393 . S
Tb263 O302 2.465 . S
Tb263 O303 2.387 . S
Tb263 O305 2.428 . S
Tb263 O306 2.308 . S
Tb263 C327 2.802 . S
N264 C260 1.361 . S
N264 Tb263 2.572 . S
N264 C266 1.340 . S
C265 C259 1.416 . S
C265 C267 1.332 . S
C265 H273 0.931 . S
C266 N264 1.340 . S
C266 C267 1.407 . S
C266 H272 0.930 . S
C267 C265 1.332 . S
C267 C266 1.407 . S
C267 H269 0.929 . S
H268 C257 0.930 . S
H269 C267 0.929 . S
H270 C285 0.930 . S
H271 C292 0.929 . S
H272 C266 0.930 . S
H273 C265 0.931 . S
H274 C288 0.930 . S
H275 C255 0.930 . S
H276 C261 0.929 . S
H277 C262 0.930 . S
H278 C283 0.930 . S
H279 C258 0.930 . S
H280 C291 0.931 . S
N281 Tb252 2.617 . S
N281 C282 1.379 . S
N281 C285 1.334 . S
C282 N281 1.379 . S
C282 C284 1.416 . S
C282 C290 1.424 . S
C283 H278 0.930 . S
C283 C285 1.390 . S
C283 C286 1.339 . S
C284 C282 1.416 . S
C284 C286 1.416 . S
C284 C317 1.448 . S
C285 H270 0.930 . S
C285 N281 1.334 . S
C285 C283 1.390 . S
C286 C283 1.339 . S
C286 C284 1.416 . S
C286 H293 0.930 . S
N287 Tb252 2.572 . S
N287 C288 1.340 . S
N287 C290 1.361 . S
C288 H274 0.930 . S
C288 N287 1.340 . S
C288 C292 1.407 . S
C289 C290 1.413 . S
C289 C291 1.416 . S
C289 C318 1.427 . S
C290 C282 1.424 . S
C290 N287 1.361 . S
C290 C289 1.413 . S
C291 H280 0.931 . S
C291 C289 1.416 . S
C291 C292 1.332 . S
C292 H271 0.929 . S
C292 C288 1.407 . S
C292 C291 1.332 . S
H293 C286 0.930 . S
H294 C317 0.930 . S
H295 C318 0.929 . S
O296 Tb252 2.465 1_545 S
O296 C316 1.264 . S
O297 Tb252 2.387 . S
O297 C308 1.264 . S
O298 Tb263 2.349 . S
O298 C308 1.243 . S
O299 Tb252 2.428 1_545 S
O299 C316 1.256 . S
O300 Tb252 2.308 . S
O300 C315 1.266 . S
O301 Tb263 2.393 . S
O301 C315 1.248 . S
O302 Tb263 2.465 . S
O302 C327 1.264 . S
O303 Tb263 2.387 . S
O303 C319 1.278 . S
O304 Tb252 2.349 1_545 S
O304 C319 1.240 1_545 S
O305 Tb263 2.428 . S
O305 C327 1.256 . S
O306 Tb263 2.308 . S
O306 C326 1.266 . S
O307 Tb252 2.393 . S
O307 C326 1.248 . S
C308 O297 1.264 . S
C308 O298 1.243 . S
C309 C312 1.399 . S
C309 C314 1.383 . S
C309 C316 1.496 . S
C310 C311 1.399 . S
C310 C314 1.389 . S
C311 C310 1.399 . S
C311 C313 1.380 . S
C311 H328 0.929 . S
C312 C309 1.399 . S
C312 C313 1.392 . S
C312 H329 0.929 . S
C313 C311 1.380 . S
C313 C312 1.392 . S
C313 H330 0.929 . S
C314 C309 1.383 . S
C314 C310 1.389 . S
C314 H331 0.931 . S
C315 O300 1.266 . S
C315 O301 1.248 . S
C316 Tb252 2.802 1_545 S
C316 O296 1.264 . S
C316 O299 1.256 . S
C316 C309 1.496 . S
C317 C284 1.448 . S
C317 H294 0.930 . S
C317 C318 1.328 . S
C318 C289 1.427 . S
C318 H295 0.929 . S
C318 C317 1.328 . S
C319 O303 1.278 . S
C319 O304 1.240 1_565 S
C320 C323 1.399 . S
C320 C324 1.383 . S
C320 C327 1.496 . S
C321 C322 1.399 . S
C321 C324 1.389 . S
C322 C321 1.399 . S
C322 C325 1.380 . S
C322 H332 0.929 . S
C323 C320 1.399 . S
C323 C325 1.392 . S
C323 H333 0.929 . S
C324 C320 1.383 . S
C324 C321 1.389 . S
C324 H334 0.931 . S
C325 C322 1.380 . S
C325 C323 1.392 . S
C325 H335 0.929 . S
C326 O306 1.266 . S
C326 O307 1.248 . S
C327 Tb263 2.802 . S
C327 O302 1.264 . S
C327 O305 1.256 . S
C327 C320 1.496 . S
H328 C311 0.929 . S
H329 C312 0.929 . S
H330 C313 0.929 . S
H331 C314 0.931 . S
H332 C322 0.929 . S
H333 C323 0.929 . S
H334 C324 0.931 . S
H335 C325 0.929 . S
Tb336 N365 2.617 . S
Tb336 N371 2.572 . S
Tb336 O380 2.465 . S
Tb336 O381 2.387 . S
Tb336 O383 2.428 . S
Tb336 O384 2.308 . S
Tb336 O388 2.349 . S
Tb336 O391 2.393 . S
Tb336 C400 2.802 . S
C337 N338 1.379 . S
C337 C340 1.416 . S
C337 C344 1.424 1_455 S
N338 C337 1.379 . S
N338 C341 1.334 . S
N338 Tb347 2.617 1_556 S
C339 C341 1.390 . S
C339 C342 1.339 . S
C339 H359 0.930 . S
C340 C337 1.416 . S
C340 C342 1.416 . S
C340 C346 1.448 1_455 S
C341 N338 1.334 . S
C341 C339 1.390 . S
C341 H352 0.930 1_556 S
C342 C339 1.339 . S
C342 C340 1.416 . S
C342 H363 0.930 . S
C343 C344 1.413 . S
C343 C345 1.427 . S
C343 C349 1.416 . S
C344 C337 1.424 1_655 S
C344 C343 1.413 . S
C344 N348 1.361 1_556 S
C345 C343 1.427 . S
C345 C346 1.328 . S
C345 H360 0.929 . S
C346 C340 1.448 1_655 S
C346 C345 1.328 . S
C346 H361 0.930 . S
Tb347 N338 2.617 1_554 S
Tb347 N348 2.572 1_455 S
Tb347 O382 2.349 . S
Tb347 O385 2.393 . S
Tb347 O386 2.465 1_455 S
Tb347 O387 2.387 . S
Tb347 O389 2.428 1_455 S
Tb347 O390 2.308 . S
Tb347 C411 2.802 1_455 S
N348 C344 1.361 1_554 S
N348 Tb347 2.572 1_655 S
N348 C350 1.340 . S
C349 C343 1.416 . S
C349 C351 1.332 . S
C349 H357 0.931 . S
C350 N348 1.340 . S
C350 C351 1.407 1_554 S
C350 H356 0.930 . S
C351 C349 1.332 . S
C351 C350 1.407 1_556 S
C351 H353 0.929 1_556 S
H352 C341 0.930 1_554 S
H353 C351 0.929 1_554 S
H354 C369 0.930 . S
H355 C376 0.929 . S
H356 C350 0.930 . S
H357 C349 0.931 . S
H358 C372 0.930 . S
H359 C339 0.930 . S
H360 C345 0.929 . S
H361 C346 0.930 . S
H362 C367 0.930 . S
H363 C342 0.930 . S
H364 C375 0.931 . S
N365 Tb336 2.617 . S
N365 C366 1.379 . S
N365 C369 1.334 . S
C366 N365 1.379 . S
C366 C368 1.416 . S
C366 C374 1.424 . S
C367 H362 0.930 . S
C367 C369 1.390 . S
C367 C370 1.339 . S
C368 C366 1.416 . S
C368 C370 1.416 . S
C368 C401 1.448 . S
C369 H354 0.930 . S
C369 N365 1.334 . S
C369 C367 1.390 . S
C370 C367 1.339 . S
C370 C368 1.416 . S
C370 H377 0.930 . S
N371 Tb336 2.572 . S
N371 C372 1.340 . S
N371 C374 1.361 . S
C372 H358 0.930 . S
C372 N371 1.340 . S
C372 C376 1.407 . S
C373 C374 1.413 . S
C373 C375 1.416 . S
C373 C402 1.427 . S
C374 C366 1.424 . S
C374 N371 1.361 . S
C374 C373 1.413 . S
C375 H364 0.931 . S
C375 C373 1.416 . S
C375 C376 1.332 . S
C376 H355 0.929 . S
C376 C372 1.407 . S
C376 C375 1.332 . S
H377 C370 0.930 . S
H378 C401 0.930 . S
H379 C402 0.929 . S
O380 Tb336 2.465 . S
O380 C400 1.264 . S
O381 Tb336 2.387 . S
O381 C392 1.264 . S
O382 Tb347 2.349 . S
O382 C392 1.243 . S
O383 Tb336 2.428 . S
O383 C400 1.256 . S
O384 Tb336 2.308 . S
O384 C399 1.266 . S
O385 Tb347 2.393 . S
O385 C399 1.248 . S
O386 Tb347 2.465 1_655 S
O386 C411 1.264 . S
O387 Tb347 2.387 . S
O387 C403 1.264 . S
O388 Tb336 2.349 . S
O388 C403 1.243 . S
O389 Tb347 2.428 1_655 S
O389 C411 1.256 . S
O390 Tb347 2.308 . S
O390 C410 1.266 . S
O391 Tb336 2.393 . S
O391 C410 1.248 . S
C392 O381 1.264 . S
C392 O382 1.243 . S
C393 C396 1.399 . S
C393 C398 1.383 . S
C393 C400 1.496 . S
C394 C395 1.399 . S
C394 C398 1.389 . S
C395 C394 1.399 . S
C395 C397 1.380 . S
C395 H412 0.929 . S
C396 C393 1.399 . S
C396 C397 1.392 . S
C396 H413 0.929 . S
C397 C395 1.380 . S
C397 C396 1.392 . S
C397 H414 0.929 . S
C398 C393 1.383 . S
C398 C394 1.389 . S
C398 H415 0.931 . S
C399 O384 1.266 . S
C399 O385 1.248 . S
C400 Tb336 2.802 . S
C400 O380 1.264 . S
C400 O383 1.256 . S
C400 C393 1.496 . S
C401 C368 1.448 . S
C401 H378 0.930 . S
C401 C402 1.328 . S
C402 C373 1.427 . S
C402 H379 0.929 . S
C402 C401 1.328 . S
C403 O387 1.264 . S
C403 O388 1.243 . S
C404 C407 1.399 . S
C404 C408 1.383 . S
C404 C411 1.496 . S
C405 C406 1.399 . S
C405 C408 1.389 . S
C406 C405 1.399 . S
C406 C409 1.380 . S
C406 H416 0.929 . S
C407 C404 1.399 . S
C407 C409 1.392 . S
C407 H417 0.929 . S
C408 C404 1.383 . S
C408 C405 1.389 . S
C408 H418 0.931 . S
C409 C406 1.380 . S
C409 C407 1.392 . S
C409 H419 0.929 . S
C410 O390 1.266 . S
C410 O391 1.248 . S
C411 Tb347 2.802 1_655 S
C411 O386 1.264 . S
C411 O389 1.256 . S
C411 C404 1.496 . S
H412 C395 0.929 . S
H413 C396 0.929 . S
H414 C397 0.929 . S
H415 C398 0.931 . S
H416 C406 0.929 . S
H417 C407 0.929 . S
H418 C408 0.931 . S
H419 C409 0.929 . S
Tb420 N449 2.617 . S
Tb420 N455 2.572 . S
Tb420 O464 2.465 . S
Tb420 O465 2.387 . S
Tb420 O467 2.428 . S
Tb420 O468 2.308 . S
Tb420 O472 2.349 . S
Tb420 O475 2.393 . S
Tb420 C484 2.802 . S
C421 N422 1.379 . S
C421 C424 1.416 . S
C421 C428 1.424 1_545 S
N422 C421 1.379 . S
N422 C425 1.334 . S
N422 Tb431 2.617 1_556 S
C423 C425 1.390 . S
C423 C426 1.339 . S
C423 H443 0.930 . S
C424 C421 1.416 . S
C424 C426 1.416 . S
C424 C430 1.448 1_545 S
C425 N422 1.334 . S
C425 C423 1.390 . S
C425 H436 0.930 1_556 S
C426 C423 1.339 . S
C426 C424 1.416 . S
C426 H447 0.930 . S
C427 C428 1.413 . S
C427 C429 1.427 . S
C427 C433 1.416 . S
C428 C421 1.424 1_565 S
C428 C427 1.413 . S
C428 N432 1.361 1_556 S
C429 C427 1.427 . S
C429 C430 1.328 . S
C429 H444 0.929 . S
C430 C424 1.448 1_565 S
C430 C429 1.328 . S
C430 H445 0.936 . S
Tb431 N422 2.617 1_554 S
Tb431 N432 2.572 1_545 S
Tb431 O466 2.349 . S
Tb431 O469 2.393 . S
Tb431 O470 2.465 1_545 S
Tb431 O471 2.387 . S
Tb431 O473 2.428 1_545 S
Tb431 O474 2.308 . S
Tb431 C495 2.802 1_545 S
N432 C428 1.361 1_554 S
N432 Tb431 2.572 1_565 S
N432 C434 1.340 . S
C433 C427 1.416 . S
C433 C435 1.332 . S
C433 H441 0.931 . S
C434 N432 1.340 . S
C434 C435 1.407 1_554 S
C434 H440 0.930 . S
C435 C433 1.332 . S
C435 C434 1.407 1_556 S
C435 H437 0.929 1_556 S
H436 C425 0.930 1_554 S
H437 C435 0.929 1_554 S
H438 C453 0.930 . S
H439 C460 0.929 . S
H440 C434 0.930 . S
H441 C433 0.931 . S
H442 C456 0.930 . S
H443 C423 0.930 . S
H444 C429 0.929 . S
H445 C430 0.936 . S
H446 C451 0.930 . S
H447 C426 0.930 . S
H448 C459 0.931 . S
N449 Tb420 2.617 . S
N449 C450 1.379 . S
N449 C453 1.334 . S
C450 N449 1.379 . S
C450 C452 1.416 . S
C450 C458 1.424 . S
C451 H446 0.930 . S
C451 C453 1.390 . S
C451 C454 1.339 . S
C452 C450 1.416 . S
C452 C454 1.416 . S
C452 C485 1.448 . S
C453 H438 0.930 . S
C453 N449 1.334 . S
C453 C451 1.390 . S
C454 C451 1.339 . S
C454 C452 1.416 . S
C454 H461 0.930 . S
N455 Tb420 2.572 . S
N455 C456 1.340 . S
N455 C458 1.361 . S
C456 H442 0.930 . S
C456 N455 1.340 . S
C456 C460 1.407 . S
C457 C458 1.413 . S
C457 C459 1.416 . S
C457 C486 1.427 . S
C458 C450 1.424 . S
C458 N455 1.361 . S
C458 C457 1.413 . S
C459 H448 0.931 . S
C459 C457 1.416 . S
C459 C460 1.332 . S
C460 H439 0.929 . S
C460 C456 1.407 . S
C460 C459 1.332 . S
H461 C454 0.930 . S
H462 C485 0.930 . S
H463 C486 0.929 . S
O464 Tb420 2.465 . S
O464 C484 1.264 . S
O465 Tb420 2.387 . S
O465 C476 1.264 . S
O466 Tb431 2.349 . S
O466 C476 1.243 . S
O467 Tb420 2.428 . S
O467 C484 1.256 . S
O468 Tb420 2.308 . S
O468 C483 1.266 . S
O469 Tb431 2.393 . S
O469 C483 1.248 . S
O470 Tb431 2.465 1_565 S
O470 C495 1.264 . S
O471 Tb431 2.387 . S
O471 C487 1.264 . S
O472 Tb420 2.349 . S
O472 C487 1.243 . S
O473 Tb431 2.428 1_565 S
O473 C495 1.256 . S
O474 Tb431 2.308 . S
O474 C494 1.266 . S
O475 Tb420 2.393 . S
O475 C494 1.248 . S
C476 O465 1.264 . S
C476 O466 1.243 . S
C477 C480 1.399 . S
C477 C482 1.383 . S
C477 C484 1.496 . S
C478 C479 1.399 . S
C478 C482 1.389 . S
C479 C478 1.399 . S
C479 C481 1.380 . S
C479 H496 0.929 . S
C480 C477 1.399 . S
C480 C481 1.392 . S
C480 H497 0.929 . S
C481 C479 1.380 . S
C481 C480 1.392 . S
C481 H498 0.929 . S
C482 C477 1.383 . S
C482 C478 1.389 . S
C482 H499 0.931 . S
C483 O468 1.266 . S
C483 O469 1.248 . S
C484 Tb420 2.802 . S
C484 O464 1.264 . S
C484 O467 1.256 . S
C484 C477 1.496 . S
C485 C452 1.448 . S
C485 H462 0.930 . S
C485 C486 1.328 . S
C486 C457 1.427 . S
C486 H463 0.929 . S
C486 C485 1.328 . S
C487 O471 1.264 . S
C487 O472 1.243 . S
C488 C491 1.399 . S
C488 C492 1.383 . S
C488 C495 1.496 . S
C489 C490 1.399 . S
C489 C492 1.389 . S
C490 C489 1.399 . S
C490 C493 1.380 . S
C490 H500 0.929 . S
C491 C488 1.399 . S
C491 C493 1.392 . S
C491 H501 0.929 . S
C492 C488 1.383 . S
C492 C489 1.389 . S
C492 H502 0.931 . S
C493 C490 1.380 . S
C493 C491 1.392 . S
C493 H503 0.929 . S
C494 O474 1.266 . S
C494 O475 1.248 . S
C495 Tb431 2.802 1_565 S
C495 O470 1.264 . S
C495 O473 1.256 . S
C495 C488 1.496 . S
H496 C479 0.929 . S
H497 C480 0.929 . S
H498 C481 0.929 . S
H499 C482 0.931 . S
H500 C490 0.929 . S
H501 C491 0.929 . S
H502 C492 0.931 . S
H503 C493 0.929 . S
Tb504 N533 2.617 1_554 S
Tb504 N539 2.572 . S
Tb504 O548 2.465 . S
Tb504 O549 2.387 . S
Tb504 O551 2.428 . S
Tb504 O552 2.308 . S
Tb504 O556 2.349 . S
Tb504 O559 2.393 . S
Tb504 C568 2.802 . S
C505 N506 1.379 . S
C505 C508 1.416 . S
C505 C512 1.424 . S
N506 C505 1.379 . S
N506 C509 1.334 . S
N506 Tb515 2.617 . S
C507 C509 1.390 . S
C507 C510 1.339 . S
C507 H527 0.930 . S
C508 C505 1.416 . S
C508 C510 1.416 . S
C508 C514 1.448 . S
C509 N506 1.334 . S
C509 C507 1.390 . S
C509 H520 0.930 . S
C510 C507 1.339 . S
C510 C508 1.416 . S
C510 H531 0.930 . S
C511 C512 1.413 . S
C511 C513 1.427 . S
C511 C517 1.416 . S
C512 C505 1.424 . S
C512 C511 1.413 . S
C512 N516 1.361 . S
C513 C511 1.427 . S
C513 C514 1.328 . S
C513 H528 0.929 . S
C514 C508 1.448 . S
C514 C513 1.328 . S
C514 H529 0.930 . S
Tb515 N506 2.617 . S
Tb515 N516 2.572 . S
Tb515 O550 2.349 . S
Tb515 O553 2.393 . S
Tb515 O554 2.465 . S
Tb515 O555 2.387 . S
Tb515 O557 2.428 . S
Tb515 O558 2.308 . S
Tb515 C579 2.802 . S
N516 C512 1.361 . S
N516 Tb515 2.572 . S
N516 C518 1.340 . S
C517 C511 1.416 . S
C517 C519 1.332 . S
C517 H525 0.931 . S
C518 N516 1.340 . S
C518 C519 1.407 . S
C518 H524 0.930 . S
C519 C517 1.332 . S
C519 C518 1.407 . S
C519 H521 0.929 . S
H520 C509 0.930 . S
H521 C519 0.929 . S
H522 C537 0.930 . S
H523 C544 0.929 . S
H524 C518 0.930 . S
H525 C517 0.931 . S
H526 C540 0.930 . S
H527 C507 0.930 . S
H528 C513 0.929 . S
H529 C514 0.930 . S
H530 C535 0.930 . S
H531 C510 0.930 . S
H532 C543 0.931 . S
N533 Tb504 2.617 1_556 S
N533 C534 1.379 . S
N533 C537 1.334 . S
C534 N533 1.379 . S
C534 C536 1.416 . S
C534 C542 1.424 1_556 S
C535 H530 0.930 . S
C535 C537 1.390 . S
C535 C538 1.339 . S
C536 C534 1.416 . S
C536 C538 1.416 . S
C536 C569 1.448 . S
C537 H522 0.930 . S
C537 N533 1.334 . S
C537 C535 1.390 . S
C538 C535 1.339 . S
C538 C536 1.416 . S
C538 H545 0.930 . S
N539 Tb504 2.572 . S
N539 C540 1.340 . S
N539 C542 1.361 . S
C540 H526 0.930 . S
C540 N539 1.340 . S
C540 C544 1.407 . S
C541 C542 1.413 . S
C541 C543 1.416 . S
C541 C570 1.427 1_554 S
C542 C534 1.424 1_554 S
C542 N539 1.361 . S
C542 C541 1.413 . S
C543 H532 0.931 . S
C543 C541 1.416 . S
C543 C544 1.332 . S
C544 H523 0.929 . S
C544 C540 1.407 . S
C544 C543 1.332 . S
H545 C538 0.930 . S
H546 C569 0.930 . S
H547 C570 0.929 . S
O548 Tb504 2.465 . S
O548 C568 1.264 . S
O549 Tb504 2.387 . S
O549 C560 1.264 . S
O550 Tb515 2.349 . S
O550 C560 1.243 . S
O551 Tb504 2.428 . S
O551 C568 1.256 . S
O552 Tb504 2.308 . S
O552 C567 1.266 . S
O553 Tb515 2.393 . S
O553 C567 1.248 . S
O554 Tb515 2.465 . S
O554 C579 1.264 . S
O555 Tb515 2.387 . S
O555 C571 1.264 . S
O556 Tb504 2.349 . S
O556 C571 1.243 . S
O557 Tb515 2.428 . S
O557 C579 1.256 . S
O558 Tb515 2.308 . S
O558 C578 1.266 . S
O559 Tb504 2.393 . S
O559 C578 1.248 . S
C560 O549 1.264 . S
C560 O550 1.243 . S
C561 C564 1.399 . S
C561 C566 1.383 . S
C561 C568 1.496 . S
C562 C563 1.399 . S
C562 C566 1.389 . S
C563 C562 1.399 . S
C563 C565 1.380 . S
C563 H580 0.929 . S
C564 C561 1.399 . S
C564 C565 1.392 . S
C564 H581 0.929 . S
C565 C563 1.380 . S
C565 C564 1.392 . S
C565 H582 0.929 . S
C566 C561 1.383 . S
C566 C562 1.389 . S
C566 H583 0.931 . S
C567 O552 1.266 . S
C567 O553 1.248 . S
C568 Tb504 2.802 . S
C568 O548 1.264 . S
C568 O551 1.256 . S
C568 C561 1.496 . S
C569 C536 1.448 . S
C569 H546 0.930 . S
C569 C570 1.328 . S
C570 C541 1.427 1_556 S
C570 H547 0.929 . S
C570 C569 1.328 . S
C571 O555 1.264 . S
C571 O556 1.243 . S
C572 C575 1.399 . S
C572 C576 1.383 . S
C572 C579 1.496 . S
C573 C574 1.399 . S
C573 C576 1.389 . S
C574 C573 1.399 . S
C574 C577 1.380 . S
C574 H584 0.929 . S
C575 C572 1.399 . S
C575 C577 1.392 . S
C575 H585 0.929 . S
C576 C572 1.383 . S
C576 C573 1.389 . S
C576 H586 0.931 . S
C577 C574 1.380 . S
C577 C575 1.392 . S
C577 H587 0.929 . S
C578 O558 1.266 . S
C578 O559 1.248 . S
C579 Tb515 2.802 . S
C579 O554 1.264 . S
C579 O557 1.256 . S
C579 C572 1.496 . S
H580 C563 0.929 . S
H581 C564 0.929 . S
H582 C565 0.929 . S
H583 C566 0.931 . S
H584 C574 0.929 . S
H585 C575 0.929 . S
H586 C576 0.931 . S
H587 C577 0.929 . S
Tb588 N617 2.617 1_554 S
Tb588 N623 2.572 . S
Tb588 O632 2.465 . S
Tb588 O633 2.387 . S
Tb588 O635 2.428 . S
Tb588 O636 2.308 . S
Tb588 O640 2.349 . S
Tb588 O643 2.393 . S
Tb588 C652 2.802 . S
C589 N590 1.379 . S
C589 C592 1.416 . S
C589 C596 1.424 . S
N590 C589 1.379 . S
N590 C593 1.334 . S
N590 Tb599 2.617 . S
C591 C593 1.390 . S
C591 C594 1.339 . S
C591 H611 0.930 . S
C592 C589 1.416 . S
C592 C594 1.416 . S
C592 C598 1.448 . S
C593 N590 1.334 . S
C593 C591 1.390 . S
C593 H604 0.930 . S
C594 C591 1.339 . S
C594 C592 1.416 . S
C594 H615 0.930 . S
C595 C596 1.413 . S
C595 C597 1.427 . S
C595 C601 1.416 . S
C596 C589 1.424 . S
C596 C595 1.413 . S
C596 N600 1.361 . S
C597 C595 1.427 . S
C597 C598 1.328 . S
C597 H612 0.929 . S
C598 C592 1.448 . S
C598 C597 1.328 . S
C598 H613 0.930 . S
Tb599 N590 2.617 . S
Tb599 N600 2.572 . S
Tb599 O634 2.349 . S
Tb599 O637 2.393 . S
Tb599 O638 2.465 . S
Tb599 O639 2.387 . S
Tb599 O641 2.428 . S
Tb599 O642 2.308 . S
Tb599 C663 2.802 . S
N600 C596 1.361 . S
N600 Tb599 2.572 . S
N600 C602 1.340 . S
C601 C595 1.416 . S
C601 C603 1.332 . S
C601 H609 0.931 . S
C602 N600 1.340 . S
C602 C603 1.407 . S
C602 H608 0.930 . S
C603 C601 1.332 . S
C603 C602 1.407 . S
C603 H605 0.929 . S
H604 C593 0.930 . S
H605 C603 0.929 . S
H606 C621 0.930 . S
H607 C628 0.929 . S
H608 C602 0.930 . S
H609 C601 0.931 . S
H610 C624 0.930 . S
H611 C591 0.930 . S
H612 C597 0.929 . S
H613 C598 0.930 . S
H614 C619 0.930 . S
H615 C594 0.930 . S
H616 C627 0.931 . S
N617 Tb588 2.617 1_556 S
N617 C618 1.379 . S
N617 C621 1.334 . S
C618 N617 1.379 . S
C618 C620 1.416 . S
C618 C626 1.424 1_556 S
C619 H614 0.930 . S
C619 C621 1.390 . S
C619 C622 1.339 . S
C620 C618 1.416 . S
C620 C622 1.416 . S
C620 C653 1.448 . S
C621 H606 0.930 . S
C621 N617 1.334 . S
C621 C619 1.390 . S
C622 C619 1.339 . S
C622 C620 1.416 . S
C622 H629 0.930 . S
N623 Tb588 2.572 . S
N623 C624 1.340 . S
N623 C626 1.361 . S
C624 H610 0.930 . S
C624 N623 1.340 . S
C624 C628 1.407 . S
C625 C626 1.413 . S
C625 C627 1.416 . S
C625 C654 1.427 1_554 S
C626 C618 1.424 1_554 S
C626 N623 1.361 . S
C626 C625 1.413 . S
C627 H616 0.931 . S
C627 C625 1.416 . S
C627 C628 1.332 . S
C628 H607 0.929 . S
C628 C624 1.407 . S
C628 C627 1.332 . S
H629 C622 0.930 . S
H630 C653 0.930 . S
H631 C654 0.929 . S
O632 Tb588 2.465 . S
O632 C652 1.264 . S
O633 Tb588 2.387 . S
O633 C644 1.264 . S
O634 Tb599 2.349 . S
O634 C644 1.243 . S
O635 Tb588 2.428 . S
O635 C652 1.256 . S
O636 Tb588 2.308 . S
O636 C651 1.266 . S
O637 Tb599 2.393 . S
O637 C651 1.248 . S
O638 Tb599 2.465 . S
O638 C663 1.264 . S
O639 Tb599 2.387 . S
O639 C655 1.264 . S
O640 Tb588 2.349 . S
O640 C655 1.243 . S
O641 Tb599 2.428 . S
O641 C663 1.256 . S
O642 Tb599 2.308 . S
O642 C662 1.266 . S
O643 Tb588 2.393 . S
O643 C662 1.248 . S
C644 O633 1.264 . S
C644 O634 1.243 . S
C645 C648 1.399 . S
C645 C650 1.383 . S
C645 C652 1.496 . S
C646 C647 1.399 . S
C646 C650 1.389 . S
C647 C646 1.399 . S
C647 C649 1.380 . S
C647 H664 0.929 . S
C648 C645 1.399 . S
C648 C649 1.392 . S
C648 H665 0.929 . S
C649 C647 1.380 . S
C649 C648 1.392 . S
C649 H666 0.929 . S
C650 C645 1.383 . S
C650 C646 1.389 . S
C650 H667 0.931 . S
C651 O636 1.266 . S
C651 O637 1.248 . S
C652 Tb588 2.802 . S
C652 O632 1.264 . S
C652 O635 1.256 . S
C652 C645 1.496 . S
C653 C620 1.448 . S
C653 H630 0.930 . S
C653 C654 1.328 . S
C654 C625 1.427 1_556 S
C654 H631 0.929 . S
C654 C653 1.328 . S
C655 O639 1.264 . S
C655 O640 1.243 . S
C656 C659 1.399 . S
C656 C660 1.383 . S
C656 C663 1.496 . S
C657 C658 1.399 . S
C657 C660 1.389 . S
C658 C657 1.399 . S
C658 C661 1.380 . S
C658 H668 0.929 . S
C659 C656 1.399 . S
C659 C661 1.392 . S
C659 H669 0.929 . S
C660 C656 1.383 . S
C660 C657 1.389 . S
C660 H670 0.931 . S
C661 C658 1.380 . S
C661 C659 1.392 . S
C661 H671 0.929 . S
C662 O642 1.266 . S
C662 O643 1.248 . S
C663 Tb599 2.802 . S
C663 O638 1.264 . S
C663 O641 1.256 . S
C663 C656 1.496 . S
H664 C647 0.929 . S
H665 C648 0.929 . S
H666 C649 0.929 . S
H667 C650 0.931 . S
H668 C658 0.929 . S
H669 C659 0.929 . S
H670 C660 0.931 . S
H671 C661 0.929 . S
Tb672 N701 2.617 . S
Tb672 N707 2.572 . S
Tb672 O716 2.465 . S
Tb672 O717 2.387 . S
Tb672 O719 2.428 . S
Tb672 O720 2.308 . S
Tb672 O724 2.349 . S
Tb672 O727 2.393 . S
Tb672 C736 2.802 . S
C673 N674 1.379 . S
C673 C676 1.416 . S
C673 C680 1.424 . S
N674 C673 1.379 . S
N674 C677 1.334 . S
N674 Tb683 2.617 . S
C675 C677 1.390 . S
C675 C678 1.339 . S
C675 H695 0.930 . S
C676 C673 1.416 . S
C676 C678 1.416 . S
C676 C682 1.448 . S
C677 N674 1.334 . S
C677 C675 1.390 . S
C677 H688 0.930 . S
C678 C675 1.339 . S
C678 C676 1.416 . S
C678 H699 0.930 . S
C679 C680 1.413 . S
C679 C681 1.427 . S
C679 C685 1.416 . S
C680 C673 1.424 . S
C680 C679 1.413 . S
C680 N684 1.361 . S
C681 C679 1.427 . S
C681 C682 1.328 . S
C681 H696 0.929 . S
C682 C676 1.448 . S
C682 C681 1.328 . S
C682 H697 0.930 . S
Tb683 N674 2.617 . S
Tb683 N684 2.572 . S
Tb683 O718 2.349 . S
Tb683 O721 2.393 . S
Tb683 O722 2.465 . S
Tb683 O723 2.387 . S
Tb683 O725 2.428 . S
Tb683 O726 2.308 . S
Tb683 C747 2.802 . S
N684 C680 1.361 . S
N684 Tb683 2.572 . S
N684 C686 1.340 . S
C685 C679 1.416 . S
C685 C687 1.332 . S
C685 H693 0.931 . S
C686 N684 1.340 . S
C686 C687 1.407 . S
C686 H692 0.930 . S
C687 C685 1.332 . S
C687 C686 1.407 . S
C687 H689 0.929 . S
H688 C677 0.930 . S
H689 C687 0.929 . S
H690 C705 0.930 . S
H691 C712 0.929 . S
H692 C686 0.930 . S
H693 C685 0.931 . S
H694 C708 0.930 . S
H695 C675 0.930 . S
H696 C681 0.929 . S
H697 C682 0.930 . S
H698 C703 0.930 . S
H699 C678 0.930 . S
H700 C711 0.931 . S
N701 Tb672 2.617 . S
N701 C702 1.379 . S
N701 C705 1.334 . S
C702 N701 1.379 . S
C702 C704 1.416 . S
C702 C710 1.424 . S
C703 H698 0.930 . S
C703 C705 1.390 . S
C703 C706 1.339 . S
C704 C702 1.416 . S
C704 C706 1.416 . S
C704 C737 1.448 . S
C705 H690 0.930 . S
C705 N701 1.334 . S
C705 C703 1.390 . S
C706 C703 1.339 . S
C706 C704 1.416 . S
C706 H713 0.930 . S
N707 Tb672 2.572 . S
N707 C708 1.340 . S
N707 C710 1.361 . S
C708 H694 0.930 . S
C708 N707 1.340 . S
C708 C712 1.407 . S
C709 C710 1.413 . S
C709 C711 1.416 . S
C709 C738 1.427 . S
C710 C702 1.424 . S
C710 N707 1.361 . S
C710 C709 1.413 . S
C711 H700 0.931 . S
C711 C709 1.416 . S
C711 C712 1.332 . S
C712 H691 0.929 . S
C712 C708 1.407 . S
C712 C711 1.332 . S
H713 C706 0.930 . S
H714 C737 0.930 . S
H715 C738 0.929 . S
O716 Tb672 2.465 . S
O716 C736 1.264 . S
O717 Tb672 2.387 . S
O717 C728 1.264 . S
O718 Tb683 2.349 . S
O718 C728 1.243 . S
O719 Tb672 2.428 . S
O719 C736 1.256 . S
O720 Tb672 2.308 . S
O720 C735 1.266 . S
O721 Tb683 2.393 . S
O721 C735 1.248 . S
O722 Tb683 2.465 . S
O722 C747 1.264 . S
O723 Tb683 2.387 . S
O723 C739 1.264 . S
O724 Tb672 2.349 . S
O724 C739 1.243 . S
O725 Tb683 2.428 . S
O725 C747 1.256 . S
O726 Tb683 2.308 . S
O726 C746 1.266 . S
O727 Tb672 2.393 . S
O727 C746 1.248 . S
C728 O717 1.264 . S
C728 O718 1.243 . S
C729 C732 1.399 . S
C729 C734 1.383 . S
C729 C736 1.496 . S
C730 C731 1.399 . S
C730 C734 1.389 . S
C731 C730 1.399 . S
C731 C733 1.380 . S
C731 H748 0.929 . S
C732 C729 1.399 . S
C732 C733 1.392 . S
C732 H749 0.929 . S
C733 C731 1.380 . S
C733 C732 1.392 . S
C733 H750 0.929 . S
C734 C729 1.383 . S
C734 C730 1.389 . S
C734 H751 0.931 . S
C735 O720 1.266 . S
C735 O721 1.248 . S
C736 Tb672 2.802 . S
C736 O716 1.264 . S
C736 O719 1.256 . S
C736 C729 1.496 . S
C737 C704 1.448 . S
C737 H714 0.930 . S
C737 C738 1.328 . S
C738 C709 1.427 . S
C738 H715 0.929 . S
C738 C737 1.328 . S
C739 O723 1.264 . S
C739 O724 1.243 . S
C740 C743 1.399 . S
C740 C744 1.383 . S
C740 C747 1.496 . S
C741 C742 1.399 . S
C741 C744 1.389 . S
C742 C741 1.399 . S
C742 C745 1.380 . S
C742 H752 0.929 . S
C743 C740 1.399 . S
C743 C745 1.392 . S
C743 H753 0.929 . S
C744 C740 1.383 . S
C744 C741 1.389 . S
C744 H754 0.931 . S
C745 C742 1.380 . S
C745 C743 1.392 . S
C745 H755 0.929 . S
C746 O726 1.266 . S
C746 O727 1.248 . S
C747 Tb683 2.802 . S
C747 O722 1.264 . S
C747 O725 1.256 . S
C747 C740 1.496 . S
H748 C731 0.929 . S
H749 C732 0.929 . S
H750 C733 0.929 . S
H751 C734 0.931 . S
H752 C742 0.929 . S
H753 C743 0.929 . S
H754 C744 0.931 . S
H755 C745 0.929 . S
Tb756 N785 2.617 . S
Tb756 N791 2.572 . S
Tb756 O800 2.465 . S
Tb756 O801 2.387 . S
Tb756 O803 2.428 . S
Tb756 O804 2.308 . S
Tb756 O808 2.349 . S
Tb756 O811 2.393 . S
Tb756 C820 2.802 . S
C757 N758 1.379 . S
C757 C760 1.416 . S
C757 C764 1.424 . S
N758 C757 1.379 . S
N758 C761 1.334 . S
N758 Tb767 2.617 . S
C759 C761 1.390 . S
C759 C762 1.339 . S
C759 H779 0.930 . S
C760 C757 1.416 . S
C760 C762 1.416 . S
C760 C766 1.448 . S
C761 N758 1.334 . S
C761 C759 1.390 . S
C761 H772 0.930 . S
C762 C759 1.339 . S
C762 C760 1.416 . S
C762 H783 0.930 . S
C763 C764 1.413 . S
C763 C765 1.427 . S
C763 C769 1.416 . S
C764 C757 1.424 . S
C764 C763 1.413 . S
C764 N768 1.361 . S
C765 C763 1.427 . S
C765 C766 1.328 . S
C765 H780 0.929 . S
C766 C760 1.448 . S
C766 C765 1.328 . S
C766 H781 0.930 . S
Tb767 N758 2.617 . S
Tb767 N768 2.572 . S
Tb767 O802 2.349 . S
Tb767 O805 2.393 . S
Tb767 O806 2.465 . S
Tb767 O807 2.387 . S
Tb767 O809 2.428 . S
Tb767 O810 2.308 . S
Tb767 C831 2.802 . S
N768 C764 1.361 . S
N768 Tb767 2.572 . S
N768 C770 1.340 . S
C769 C763 1.416 . S
C769 C771 1.332 . S
C769 H777 0.931 . S
C770 N768 1.340 . S
C770 C771 1.407 . S
C770 H776 0.930 . S
C771 C769 1.332 . S
C771 C770 1.407 . S
C771 H773 0.929 . S
H772 C761 0.930 . S
H773 C771 0.929 . S
H774 C789 0.930 . S
H775 C796 0.929 . S
H776 C770 0.930 . S
H777 C769 0.931 . S
H778 C792 0.930 . S
H779 C759 0.930 . S
H780 C765 0.929 . S
H781 C766 0.930 . S
H782 C787 0.930 . S
H783 C762 0.930 . S
H784 C795 0.931 . S
N785 Tb756 2.617 . S
N785 C786 1.379 . S
N785 C789 1.334 . S
C786 N785 1.379 . S
C786 C788 1.416 . S
C786 C794 1.424 . S
C787 H782 0.930 . S
C787 C789 1.390 . S
C787 C790 1.339 . S
C788 C786 1.416 . S
C788 C790 1.416 . S
C788 C821 1.448 . S
C789 H774 0.930 . S
C789 N785 1.334 . S
C789 C787 1.390 . S
C790 C787 1.339 . S
C790 C788 1.416 . S
C790 H797 0.930 . S
N791 Tb756 2.572 . S
N791 C792 1.340 . S
N791 C794 1.361 . S
C792 H778 0.930 . S
C792 N791 1.340 . S
C792 C796 1.407 . S
C793 C794 1.413 . S
C793 C795 1.416 . S
C793 C822 1.427 . S
C794 C786 1.424 . S
C794 N791 1.361 . S
C794 C793 1.413 . S
C795 H784 0.931 . S
C795 C793 1.416 . S
C795 C796 1.332 . S
C796 H775 0.929 . S
C796 C792 1.407 . S
C796 C795 1.332 . S
H797 C790 0.930 . S
H798 C821 0.930 . S
H799 C822 0.929 . S
O800 Tb756 2.465 . S
O800 C820 1.264 . S
O801 Tb756 2.387 . S
O801 C812 1.264 . S
O802 Tb767 2.349 . S
O802 C812 1.243 . S
O803 Tb756 2.428 . S
O803 C820 1.256 . S
O804 Tb756 2.308 . S
O804 C819 1.266 . S
O805 Tb767 2.393 . S
O805 C819 1.248 . S
O806 Tb767 2.465 . S
O806 C831 1.264 . S
O807 Tb767 2.387 . S
O807 C823 1.264 . S
O808 Tb756 2.349 . S
O808 C823 1.243 . S
O809 Tb767 2.428 . S
O809 C831 1.256 . S
O810 Tb767 2.308 . S
O810 C830 1.266 . S
O811 Tb756 2.393 . S
O811 C830 1.248 . S
C812 O801 1.264 . S
C812 O802 1.243 . S
C813 C816 1.399 . S
C813 C818 1.383 . S
C813 C820 1.496 . S
C814 C815 1.399 . S
C814 C818 1.389 . S
C815 C814 1.399 . S
C815 C817 1.380 . S
C815 H832 0.929 . S
C816 C813 1.399 . S
C816 C817 1.392 . S
C816 H833 0.929 . S
C817 C815 1.380 . S
C817 C816 1.392 . S
C817 H834 0.929 . S
C818 C813 1.383 . S
C818 C814 1.389 . S
C818 H835 0.931 . S
C819 O804 1.266 . S
C819 O805 1.248 . S
C820 Tb756 2.802 . S
C820 O800 1.264 . S
C820 O803 1.256 . S
C820 C813 1.496 . S
C821 C788 1.448 . S
C821 H798 0.930 . S
C821 C822 1.328 . S
C822 C793 1.427 . S
C822 H799 0.929 . S
C822 C821 1.328 . S
C823 O807 1.264 . S
C823 O808 1.243 . S
C824 C827 1.399 . S
C824 C828 1.383 . S
C824 C831 1.496 . S
C825 C826 1.399 . S
C825 C828 1.389 . S
C826 C825 1.399 . S
C826 C829 1.380 . S
C826 H836 0.929 . S
C827 C824 1.399 . S
C827 C829 1.392 . S
C827 H837 0.929 . S
C828 C824 1.383 . S
C828 C825 1.389 . S
C828 H838 0.931 . S
C829 C826 1.380 . S
C829 C827 1.392 . S
C829 H839 0.929 . S
C830 O810 1.266 . S
C830 O811 1.248 . S
C831 Tb767 2.802 . S
C831 O806 1.264 . S
C831 O809 1.256 . S
C831 C824 1.496 . S
H832 C815 0.929 . S
H833 C816 0.929 . S
H834 C817 0.929 . S
H835 C818 0.931 . S
H836 C826 0.929 . S
H837 C827 0.929 . S
H838 C828 0.931 . S
H839 C829 0.929 . S
Tb840 N869 2.617 . S
Tb840 N875 2.572 1_455 S
Tb840 O884 2.465 1_455 S
Tb840 O885 2.387 . S
Tb840 O887 2.428 1_455 S
Tb840 O888 2.308 . S
Tb840 O892 2.349 . S
Tb840 O895 2.393 . S
Tb840 C904 2.802 1_455 S
C841 N842 1.379 . S
C841 C844 1.416 . S
C841 C848 1.424 . S
N842 C841 1.379 . S
N842 C845 1.334 . S
N842 Tb851 2.617 . S
C843 C845 1.390 . S
C843 C846 1.339 . S
C843 H863 0.930 . S
C844 C841 1.416 . S
C844 C846 1.416 . S
C844 C850 1.448 . S
C845 N842 1.334 . S
C845 C843 1.390 . S
C845 H856 0.930 . S
C846 C843 1.339 . S
C846 C844 1.416 . S
C846 H867 0.930 . S
C847 C848 1.413 . S
C847 C849 1.427 . S
C847 C853 1.416 . S
C848 C841 1.424 . S
C848 C847 1.413 . S
C848 N852 1.361 . S
C849 C847 1.427 . S
C849 C850 1.328 . S
C849 H864 0.929 . S
C850 C844 1.448 . S
C850 C849 1.328 . S
C850 H865 0.930 . S
Tb851 N842 2.617 . S
Tb851 N852 2.572 . S
Tb851 O886 2.349 . S
Tb851 O889 2.393 . S
Tb851 O890 2.465 . S
Tb851 O891 2.387 . S
Tb851 O893 2.428 . S
Tb851 O894 2.308 . S
Tb851 C915 2.802 . S
N852 C848 1.361 . S
N852 Tb851 2.572 . S
N852 C854 1.340 . S
C853 C847 1.416 . S
C853 C855 1.332 . S
C853 H861 0.931 . S
C854 N852 1.340 . S
C854 C855 1.407 . S
C854 H860 0.930 . S
C855 C853 1.332 . S
C855 C854 1.407 . S
C855 H857 0.929 . S
H856 C845 0.930 . S
H857 C855 0.929 . S
H858 C873 0.930 . S
H859 C880 0.929 . S
H860 C854 0.930 . S
H861 C853 0.931 . S
H862 C876 0.930 . S
H863 C843 0.930 . S
H864 C849 0.929 . S
H865 C850 0.930 . S
H866 C871 0.930 . S
H867 C846 0.930 . S
H868 C879 0.931 . S
N869 Tb840 2.617 . S
N869 C870 1.379 . S
N869 C873 1.334 . S
C870 N869 1.379 . S
C870 C872 1.416 . S
C870 C878 1.424 1_455 S
C871 H866 0.930 . S
C871 C873 1.390 . S
C871 C874 1.339 . S
C872 C870 1.416 . S
C872 C874 1.416 . S
C872 C905 1.448 1_455 S
C873 H858 0.930 . S
C873 N869 1.334 . S
C873 C871 1.390 . S
C874 C871 1.339 . S
C874 C872 1.416 . S
C874 H881 0.930 . S
N875 Tb840 2.572 1_655 S
N875 C876 1.340 . S
N875 C878 1.361 . S
C876 H862 0.930 . S
C876 N875 1.340 . S
C876 C880 1.407 . S
C877 C878 1.413 . S
C877 C879 1.416 . S
C877 C906 1.427 . S
C878 C870 1.424 1_655 S
C878 N875 1.361 . S
C878 C877 1.413 . S
C879 H868 0.931 . S
C879 C877 1.416 . S
C879 C880 1.332 . S
C880 H859 0.929 . S
C880 C876 1.407 . S
C880 C879 1.332 . S
H881 C874 0.930 . S
H882 C905 0.930 . S
H883 C906 0.929 . S
O884 Tb840 2.465 1_655 S
O884 C904 1.264 . S
O885 Tb840 2.387 . S
O885 C896 1.264 . S
O886 Tb851 2.349 . S
O886 C896 1.243 . S
O887 Tb840 2.428 1_655 S
O887 C904 1.256 . S
O888 Tb840 2.308 . S
O888 C903 1.266 . S
O889 Tb851 2.393 . S
O889 C903 1.248 . S
O890 Tb851 2.465 . S
O890 C915 1.264 . S
O891 Tb851 2.387 . S
O891 C907 1.264 . S
O892 Tb840 2.349 . S
O892 C907 1.243 . S
O893 Tb851 2.428 . S
O893 C915 1.256 . S
O894 Tb851 2.308 . S
O894 C914 1.266 . S
O895 Tb840 2.393 . S
O895 C914 1.248 . S
C896 O885 1.264 . S
C896 O886 1.243 . S
C897 C900 1.399 . S
C897 C902 1.383 . S
C897 C904 1.496 . S
C898 C899 1.399 . S
C898 C902 1.389 . S
C899 C898 1.399 . S
C899 C901 1.380 . S
C899 H916 0.929 . S
C900 C897 1.399 . S
C900 C901 1.392 . S
C900 H917 0.929 . S
C901 C899 1.380 . S
C901 C900 1.392 . S
C901 H918 0.929 . S
C902 C897 1.383 . S
C902 C898 1.389 . S
C902 H919 0.931 . S
C903 O888 1.266 . S
C903 O889 1.248 . S
C904 Tb840 2.802 1_655 S
C904 O884 1.264 . S
C904 O887 1.256 . S
C904 C897 1.496 . S
C905 C872 1.448 1_655 S
C905 H882 0.930 . S
C905 C906 1.328 . S
C906 C877 1.427 . S
C906 H883 0.929 . S
C906 C905 1.328 . S
C907 O891 1.264 . S
C907 O892 1.243 . S
C908 C911 1.399 . S
C908 C912 1.383 . S
C908 C915 1.496 . S
C909 C910 1.399 . S
C909 C912 1.389 . S
C910 C909 1.399 . S
C910 C913 1.380 . S
C910 H920 0.929 . S
C911 C908 1.399 . S
C911 C913 1.392 . S
C911 H921 0.929 . S
C912 C908 1.383 . S
C912 C909 1.389 . S
C912 H922 0.931 . S
C913 C910 1.380 . S
C913 C911 1.392 . S
C913 H923 0.929 . S
C914 O894 1.266 . S
C914 O895 1.248 . S
C915 Tb851 2.802 . S
C915 O890 1.264 . S
C915 O893 1.256 . S
C915 C908 1.496 . S
H916 C899 0.929 . S
H917 C900 0.929 . S
H918 C901 0.929 . S
H919 C902 0.931 . S
H920 C910 0.929 . S
H921 C911 0.929 . S
H922 C912 0.931 . S
H923 C913 0.929 . S
Tb924 N953 2.617 . S
Tb924 N959 2.572 . S
Tb924 O968 2.465 . S
Tb924 O969 2.387 . S
Tb924 O971 2.428 . S
Tb924 O972 2.308 . S
Tb924 O976 2.349 . S
Tb924 O979 2.393 . S
Tb924 C988 2.802 . S
C925 N926 1.379 . S
C925 C928 1.416 . S
C925 C932 1.424 . S
N926 C925 1.379 . S
N926 C929 1.334 . S
N926 Tb935 2.617 . S
C927 C929 1.390 . S
C927 C930 1.339 . S
C927 H947 0.930 . S
C928 C925 1.416 . S
C928 C930 1.416 . S
C928 C934 1.448 . S
C929 N926 1.334 . S
C929 C927 1.390 . S
C929 H940 0.930 . S
C930 C927 1.339 . S
C930 C928 1.416 . S
C930 H951 0.930 . S
C931 C932 1.413 . S
C931 C933 1.427 . S
C931 C937 1.416 . S
C932 C925 1.424 . S
C932 C931 1.413 . S
C932 N936 1.361 . S
C933 C931 1.427 . S
C933 C934 1.328 . S
C933 H948 0.929 . S
C934 C928 1.448 . S
C934 C933 1.328 . S
C934 H949 0.930 . S
Tb935 N926 2.617 . S
Tb935 N936 2.572 . S
Tb935 O970 2.349 1_545 S
Tb935 O973 2.393 . S
Tb935 O974 2.465 1_545 S
Tb935 O975 2.387 . S
Tb935 O977 2.428 1_545 S
Tb935 O978 2.308 . S
Tb935 C999 2.802 1_545 S
N936 C932 1.361 . S
N936 Tb935 2.572 . S
N936 C938 1.340 . S
C937 C931 1.416 . S
C937 C939 1.332 . S
C937 H945 0.931 . S
C938 N936 1.340 . S
C938 C939 1.407 . S
C938 H944 0.930 . S
C939 C937 1.332 . S
C939 C938 1.407 . S
C939 H941 0.929 . S
H940 C929 0.930 . S
H941 C939 0.929 . S
H942 C957 0.930 . S
H943 C964 0.929 . S
H944 C938 0.930 . S
H945 C937 0.931 . S
H946 C960 0.930 . S
H947 C927 0.930 . S
H948 C933 0.929 . S
H949 C934 0.930 . S
H950 C955 0.930 . S
H951 C930 0.930 . S
H952 C963 0.931 . S
N953 Tb924 2.617 . S
N953 C954 1.379 . S
N953 C957 1.334 . S
C954 N953 1.379 . S
C954 C956 1.416 . S
C954 C962 1.424 . S
C955 H950 0.930 . S
C955 C957 1.390 . S
C955 C958 1.339 . S
C956 C954 1.416 . S
C956 C958 1.416 . S
C956 C989 1.448 . S
C957 H942 0.930 . S
C957 N953 1.334 . S
C957 C955 1.390 . S
C958 C955 1.339 . S
C958 C956 1.416 . S
C958 H965 0.930 . S
N959 Tb924 2.572 . S
N959 C960 1.340 . S
N959 C962 1.361 . S
C960 H946 0.930 . S
C960 N959 1.340 . S
C960 C964 1.407 . S
C961 C962 1.413 . S
C961 C963 1.416 . S
C961 C990 1.427 . S
C962 C954 1.424 . S
C962 N959 1.361 . S
C962 C961 1.413 . S
C963 H952 0.931 . S
C963 C961 1.416 . S
C963 C964 1.332 . S
C964 H943 0.929 . S
C964 C960 1.407 . S
C964 C963 1.332 . S
H965 C958 0.930 . S
H966 C989 0.930 . S
H967 C990 0.929 . S
O968 Tb924 2.465 . S
O968 C988 1.264 . S
O969 Tb924 2.387 . S
O969 C980 1.278 . S
O970 Tb935 2.349 1_565 S
O970 C980 1.240 1_565 S
O971 Tb924 2.428 . S
O971 C988 1.256 . S
O972 Tb924 2.308 . S
O972 C987 1.266 . S
O973 Tb935 2.393 . S
O973 C987 1.248 . S
O974 Tb935 2.465 1_565 S
O974 C999 1.264 . S
O975 Tb935 2.387 . S
O975 C991 1.264 . S
O976 Tb924 2.349 . S
O976 C991 1.243 . S
O977 Tb935 2.428 1_565 S
O977 C999 1.256 . S
O978 Tb935 2.308 . S
O978 C998 1.266 . S
O979 Tb924 2.393 . S
O979 C998 1.248 . S
C980 O969 1.278 . S
C980 O970 1.240 1_545 S
C981 C984 1.399 . S
C981 C986 1.383 . S
C981 C988 1.496 . S
C982 C983 1.399 . S
C982 C986 1.389 . S
C983 C982 1.399 . S
C983 C985 1.380 . S
C983 H1000 0.929 . S
C984 C981 1.399 . S
C984 C985 1.392 . S
C984 H1001 0.929 . S
C985 C983 1.380 . S
C985 C984 1.392 . S
C985 H1002 0.929 . S
C986 C981 1.383 . S
C986 C982 1.389 . S
C986 H1003 0.931 . S
C987 O972 1.266 . S
C987 O973 1.248 . S
C988 Tb924 2.802 . S
C988 O968 1.264 . S
C988 O971 1.256 . S
C988 C981 1.496 . S
C989 C956 1.448 . S
C989 H966 0.930 . S
C989 C990 1.328 . S
C990 C961 1.427 . S
C990 H967 0.929 . S
C990 C989 1.328 . S
C991 O975 1.264 . S
C991 O976 1.243 . S
C992 C995 1.399 . S
C992 C996 1.383 . S
C992 C999 1.496 . S
C993 C994 1.399 . S
C993 C996 1.389 . S
C994 C993 1.399 . S
C994 C997 1.380 . S
C994 H1004 0.929 . S
C995 C992 1.399 . S
C995 C997 1.392 . S
C995 H1005 0.929 . S
C996 C992 1.383 . S
C996 C993 1.389 . S
C996 H1006 0.931 . S
C997 C994 1.380 . S
C997 C995 1.392 . S
C997 H1007 0.929 . S
C998 O978 1.266 . S
C998 O979 1.248 . S
C999 Tb935 2.802 1_565 S
C999 O974 1.264 . S
C999 O977 1.256 . S
C999 C992 1.496 . S
H1000 C983 0.929 . S
H1001 C984 0.929 . S
H1002 C985 0.929 . S
H1003 C986 0.931 . S
H1004 C994 0.929 . S
H1005 C995 0.929 . S
H1006 C996 0.931 . S
H1007 C997 0.929 . S
Tb1008 N1037 2.617 1_556 S
Tb1008 N1043 2.572 1_655 S
Tb1008 O1052 2.465 1_655 S
Tb1008 O1053 2.387 . S
Tb1008 O1055 2.428 1_655 S
Tb1008 O1056 2.308 . S
Tb1008 O1060 2.349 . S
Tb1008 O1063 2.393 . S
Tb1008 C1072 2.802 1_655 S
C1009 N1010 1.379 . S
C1009 C1012 1.416 . S
C1009 C1016 1.424 . S
N1010 C1009 1.379 . S
N1010 C1013 1.334 . S
N1010 Tb1019 2.617 . S
C1011 C1013 1.390 . S
C1011 C1014 1.339 . S
C1011 H1031 0.930 . S
C1012 C1009 1.416 . S
C1012 C1014 1.416 . S
C1012 C1018 1.448 . S
C1013 N1010 1.334 . S
C1013 C1011 1.390 . S
C1013 H1024 0.930 . S
C1014 C1011 1.339 . S
C1014 C1012 1.416 . S
C1014 H1035 0.930 . S
C1015 C1016 1.413 . S
C1015 C1017 1.427 . S
C1015 C1021 1.416 . S
C1016 C1009 1.424 . S
C1016 C1015 1.413 . S
C1016 N1020 1.361 . S
C1017 C1015 1.427 . S
C1017 C1018 1.328 . S
C1017 H1032 0.929 . S
C1018 C1012 1.448 . S
C1018 C1017 1.328 . S
C1018 H1033 0.930 . S
Tb1019 N1010 2.617 . S
Tb1019 N1020 2.572 . S
Tb1019 O1054 2.349 . S
Tb1019 O1057 2.393 . S
Tb1019 O1058 2.465 . S
Tb1019 O1059 2.387 . S
Tb1019 O1061 2.428 . S
Tb1019 O1062 2.308 . S
Tb1019 C1083 2.802 . S
N1020 C1016 1.361 . S
N1020 Tb1019 2.572 . S
N1020 C1022 1.340 . S
C1021 C1015 1.416 . S
C1021 C1023 1.332 . S
C1021 H1029 0.931 . S
C1022 N1020 1.340 . S
C1022 C1023 1.407 . S
C1022 H1028 0.930 . S
C1023 C1021 1.332 . S
C1023 C1022 1.407 . S
C1023 H1025 0.929 . S
H1024 C1013 0.930 . S
H1025 C1023 0.929 . S
H1026 C1041 0.930 1_556 S
H1027 C1048 0.929 1_556 S
H1028 C1022 0.930 . S
H1029 C1021 0.931 . S
H1030 C1044 0.930 . S
H1031 C1011 0.930 . S
H1032 C1017 0.929 . S
H1033 C1018 0.930 . S
H1034 C1039 0.930 . S
H1035 C1014 0.930 . S
H1036 C1047 0.931 . S
N1037 Tb1008 2.617 1_554 S
N1037 C1038 1.379 . S
N1037 C1041 1.334 . S
C1038 N1037 1.379 . S
C1038 C1040 1.416 . S
C1038 C1046 1.424 1_655 S
C1039 H1034 0.930 . S
C1039 C1041 1.390 . S
C1039 C1042 1.339 . S
C1040 C1038 1.416 . S
C1040 C1042 1.416 . S
C1040 C1073 1.448 1_655 S
C1041 H1026 0.930 1_554 S
C1041 N1037 1.334 . S
C1041 C1039 1.390 . S
C1042 C1039 1.339 . S
C1042 C1040 1.416 . S
C1042 H1049 0.930 . S
N1043 Tb1008 2.572 1_455 S
N1043 C1044 1.340 . S
N1043 C1046 1.361 1_556 S
C1044 H1030 0.930 . S
C1044 N1043 1.340 . S
C1044 C1048 1.407 1_556 S
C1045 C1046 1.413 . S
C1045 C1047 1.416 . S
C1045 C1074 1.427 . S
C1046 C1038 1.424 1_455 S
C1046 N1043 1.361 1_554 S
C1046 C1045 1.413 . S
C1047 H1036 0.931 . S
C1047 C1045 1.416 . S
C1047 C1048 1.332 . S
C1048 H1027 0.929 1_554 S
C1048 C1044 1.407 1_554 S
C1048 C1047 1.332 . S
H1049 C1042 0.930 . S
H1050 C1073 0.930 . S
H1051 C1074 0.929 . S
O1052 Tb1008 2.465 1_455 S
O1052 C1072 1.264 . S
O1053 Tb1008 2.387 . S
O1053 C1064 1.264 . S
O1054 Tb1019 2.349 . S
O1054 C1064 1.243 . S
O1055 Tb1008 2.428 1_455 S
O1055 C1072 1.256 . S
O1056 Tb1008 2.308 . S
O1056 C1071 1.266 . S
O1057 Tb1019 2.393 . S
O1057 C1071 1.248 . S
O1058 Tb1019 2.465 . S
O1058 C1083 1.264 . S
O1059 Tb1019 2.387 . S
O1059 C1075 1.264 . S
O1060 Tb1008 2.349 . S
O1060 C1075 1.243 . S
O1061 Tb1019 2.428 . S
O1061 C1083 1.256 . S
O1062 Tb1019 2.308 . S
O1062 C1082 1.266 . S
O1063 Tb1008 2.393 . S
O1063 C1082 1.248 . S
C1064 O1053 1.264 . S
C1064 O1054 1.243 . S
C1065 C1068 1.399 . S
C1065 C1070 1.383 . S
C1065 C1072 1.496 . S
C1066 C1067 1.399 . S
C1066 C1070 1.389 . S
C1067 C1066 1.399 . S
C1067 C1069 1.380 . S
C1067 H1084 0.929 . S
C1068 C1065 1.399 . S
C1068 C1069 1.392 . S
C1068 H1085 0.929 . S
C1069 C1067 1.380 . S
C1069 C1068 1.392 . S
C1069 H1086 0.929 . S
C1070 C1065 1.383 . S
C1070 C1066 1.389 . S
C1070 H1087 0.931 . S
C1071 O1056 1.266 . S
C1071 O1057 1.248 . S
C1072 Tb1008 2.802 1_455 S
C1072 O1052 1.264 . S
C1072 O1055 1.256 . S
C1072 C1065 1.496 . S
C1073 C1040 1.448 1_455 S
C1073 H1050 0.930 . S
C1073 C1074 1.328 . S
C1074 C1045 1.427 . S
C1074 H1051 0.929 . S
C1074 C1073 1.328 . S
C1075 O1059 1.264 . S
C1075 O1060 1.243 . S
C1076 C1079 1.399 . S
C1076 C1080 1.383 . S
C1076 C1083 1.496 . S
C1077 C1078 1.399 . S
C1077 C1080 1.389 . S
C1078 C1077 1.399 . S
C1078 C1081 1.380 . S
C1078 H1088 0.929 . S
C1079 C1076 1.399 . S
C1079 C1081 1.392 . S
C1079 H1089 0.929 . S
C1080 C1076 1.383 . S
C1080 C1077 1.389 . S
C1080 H1090 0.931 . S
C1081 C1078 1.380 . S
C1081 C1079 1.392 . S
C1081 H1091 0.929 . S
C1082 O1062 1.266 . S
C1082 O1063 1.248 . S
C1083 Tb1019 2.802 . S
C1083 O1058 1.264 . S
C1083 O1061 1.256 . S
C1083 C1076 1.496 . S
H1084 C1067 0.929 . S
H1085 C1068 0.929 . S
H1086 C1069 0.929 . S
H1087 C1070 0.931 . S
H1088 C1078 0.929 . S
H1089 C1079 0.929 . S
H1090 C1080 0.931 . S
H1091 C1081 0.929 . S
Tb1092 N1121 2.617 1_556 S
Tb1092 N1127 2.572 1_565 S
Tb1092 O1136 2.465 1_565 S
Tb1092 O1137 2.387 . S
Tb1092 O1139 2.428 1_565 S
Tb1092 O1140 2.308 . S
Tb1092 O1144 2.349 . S
Tb1092 O1147 2.393 . S
Tb1092 C1156 2.802 1_565 S
C1093 N1094 1.379 . S
C1093 C1096 1.416 . S
C1093 C1100 1.424 . S
N1094 C1093 1.379 . S
N1094 C1097 1.334 . S
N1094 Tb1103 2.617 . S
C1095 C1097 1.390 . S
C1095 C1098 1.339 . S
C1095 H1115 0.930 . S
C1096 C1093 1.416 . S
C1096 C1098 1.416 . S
C1096 C1102 1.448 . S
C1097 N1094 1.334 . S
C1097 C1095 1.390 . S
C1097 H1108 0.930 . S
C1098 C1095 1.339 . S
C1098 C1096 1.416 . S
C1098 H1119 0.930 . S
C1099 C1100 1.413 . S
C1099 C1101 1.427 . S
C1099 C1105 1.416 . S
C1100 C1093 1.424 . S
C1100 C1099 1.413 . S
C1100 N1104 1.361 . S
C1101 C1099 1.427 . S
C1101 C1102 1.328 . S
C1101 H1116 0.929 . S
C1102 C1096 1.448 . S
C1102 C1101 1.328 . S
C1102 H1117 0.930 . S
Tb1103 N1094 2.617 . S
Tb1103 N1104 2.572 . S
Tb1103 O1138 2.349 . S
Tb1103 O1141 2.393 . S
Tb1103 O1142 2.465 . S
Tb1103 O1143 2.387 . S
Tb1103 O1145 2.428 . S
Tb1103 O1146 2.308 . S
Tb1103 C1167 2.802 . S
N1104 C1100 1.361 . S
N1104 Tb1103 2.572 . S
N1104 C1106 1.340 . S
C1105 C1099 1.416 . S
C1105 C1107 1.332 . S
C1105 H1113 0.931 . S
C1106 N1104 1.340 . S
C1106 C1107 1.407 . S
C1106 H1112 0.930 . S
C1107 C1105 1.332 . S
C1107 C1106 1.407 . S
C1107 H1109 0.929 . S
H1108 C1097 0.930 . S
H1109 C1107 0.929 . S
H1110 C1125 0.930 1_556 S
H1111 C1132 0.929 1_556 S
H1112 C1106 0.930 . S
H1113 C1105 0.931 . S
H1114 C1128 0.930 . S
H1115 C1095 0.930 . S
H1116 C1101 0.929 . S
H1117 C1102 0.930 . S
H1118 C1123 0.930 . S
H1119 C1098 0.930 . S
H1120 C1131 0.931 . S
N1121 Tb1092 2.617 1_554 S
N1121 C1122 1.379 . S
N1121 C1125 1.334 . S
C1122 N1121 1.379 . S
C1122 C1124 1.416 . S
C1122 C1130 1.424 1_565 S
C1123 H1118 0.930 . S
C1123 C1125 1.390 . S
C1123 C1126 1.339 . S
C1124 C1122 1.416 . S
C1124 C1126 1.416 . S
C1124 C1157 1.448 1_565 S
C1125 H1110 0.930 1_554 S
C1125 N1121 1.334 . S
C1125 C1123 1.390 . S
C1126 C1123 1.339 . S
C1126 C1124 1.416 . S
C1126 H1133 0.930 . S
N1127 Tb1092 2.572 1_545 S
N1127 C1128 1.340 . S
N1127 C1130 1.361 1_556 S
C1128 H1114 0.930 . S
C1128 N1127 1.340 . S
C1128 C1132 1.407 1_556 S
C1129 C1130 1.413 . S
C1129 C1131 1.416 . S
C1129 C1158 1.427 . S
C1130 C1122 1.424 1_545 S
C1130 N1127 1.361 1_554 S
C1130 C1129 1.413 . S
C1131 H1120 0.931 . S
C1131 C1129 1.416 . S
C1131 C1132 1.332 . S
C1132 H1111 0.929 1_554 S
C1132 C1128 1.407 1_554 S
C1132 C1131 1.332 . S
H1133 C1126 0.930 . S
H1134 C1157 0.936 . S
H1135 C1158 0.929 . S
O1136 Tb1092 2.465 1_545 S
O1136 C1156 1.264 . S
O1137 Tb1092 2.387 . S
O1137 C1148 1.264 . S
O1138 Tb1103 2.349 . S
O1138 C1148 1.243 . S
O1139 Tb1092 2.428 1_545 S
O1139 C1156 1.256 . S
O1140 Tb1092 2.308 . S
O1140 C1155 1.266 . S
O1141 Tb1103 2.393 . S
O1141 C1155 1.248 . S
O1142 Tb1103 2.465 . S
O1142 C1167 1.264 . S
O1143 Tb1103 2.387 . S
O1143 C1159 1.264 . S
O1144 Tb1092 2.349 . S
O1144 C1159 1.243 . S
O1145 Tb1103 2.428 . S
O1145 C1167 1.256 . S
O1146 Tb1103 2.308 . S
O1146 C1166 1.266 . S
O1147 Tb1092 2.393 . S
O1147 C1166 1.248 . S
C1148 O1137 1.264 . S
C1148 O1138 1.243 . S
C1149 C1152 1.399 . S
C1149 C1154 1.383 . S
C1149 C1156 1.496 . S
C1150 C1151 1.399 . S
C1150 C1154 1.389 . S
C1151 C1150 1.399 . S
C1151 C1153 1.380 . S
C1151 H1168 0.929 . S
C1152 C1149 1.399 . S
C1152 C1153 1.392 . S
C1152 H1169 0.929 . S
C1153 C1151 1.380 . S
C1153 C1152 1.392 . S
C1153 H1170 0.929 . S
C1154 C1149 1.383 . S
C1154 C1150 1.389 . S
C1154 H1171 0.931 . S
C1155 O1140 1.266 . S
C1155 O1141 1.248 . S
C1156 Tb1092 2.802 1_545 S
C1156 O1136 1.264 . S
C1156 O1139 1.256 . S
C1156 C1149 1.496 . S
C1157 C1124 1.448 1_545 S
C1157 H1134 0.936 . S
C1157 C1158 1.328 . S
C1158 C1129 1.427 . S
C1158 H1135 0.929 . S
C1158 C1157 1.328 . S
C1159 O1143 1.264 . S
C1159 O1144 1.243 . S
C1160 C1163 1.399 . S
C1160 C1164 1.383 . S
C1160 C1167 1.496 . S
C1161 C1162 1.399 . S
C1161 C1164 1.389 . S
C1162 C1161 1.399 . S
C1162 C1165 1.380 . S
C1162 H1172 0.929 . S
C1163 C1160 1.399 . S
C1163 C1165 1.392 . S
C1163 H1173 0.929 . S
C1164 C1160 1.383 . S
C1164 C1161 1.389 . S
C1164 H1174 0.931 . S
C1165 C1162 1.380 . S
C1165 C1163 1.392 . S
C1165 H1175 0.929 . S
C1166 O1146 1.266 . S
C1166 O1147 1.248 . S
C1167 Tb1103 2.802 . S
C1167 O1142 1.264 . S
C1167 O1145 1.256 . S
C1167 C1160 1.496 . S
H1168 C1151 0.929 . S
H1169 C1152 0.929 . S
H1170 C1153 0.929 . S
H1171 C1154 0.931 . S
H1172 C1162 0.929 . S
H1173 C1163 0.929 . S
H1174 C1164 0.931 . S
H1175 C1165 0.929 . S
Tb1176 N1205 2.617 . S
Tb1176 N1211 2.572 . S
Tb1176 O1220 2.465 . S
Tb1176 O1221 2.387 . S
Tb1176 O1223 2.428 . S
Tb1176 O1224 2.308 . S
Tb1176 O1228 2.349 . S
Tb1176 O1231 2.393 . S
Tb1176 C1240 2.802 . S
C1177 N1178 1.379 . S
C1177 C1180 1.416 . S
C1177 C1184 1.424 1_554 S
N1178 C1177 1.379 . S
N1178 C1181 1.334 . S
N1178 Tb1187 2.617 1_554 S
C1179 C1181 1.390 . S
C1179 C1182 1.339 . S
C1179 H1199 0.930 . S
C1180 C1177 1.416 . S
C1180 C1182 1.416 . S
C1180 C1186 1.448 . S
C1181 N1178 1.334 . S
C1181 C1179 1.390 . S
C1181 H1192 0.930 . S
C1182 C1179 1.339 . S
C1182 C1180 1.416 . S
C1182 H1203 0.930 . S
C1183 C1184 1.413 . S
C1183 C1185 1.427 1_556 S
C1183 C1189 1.416 . S
C1184 C1177 1.424 1_556 S
C1184 C1183 1.413 . S
C1184 N1188 1.361 . S
C1185 C1183 1.427 1_554 S
C1185 C1186 1.328 . S
C1185 H1200 0.929 . S
C1186 C1180 1.448 . S
C1186 C1185 1.328 . S
C1186 H1201 0.930 . S
Tb1187 N1178 2.617 1_556 S
Tb1187 N1188 2.572 . S
Tb1187 O1222 2.349 . S
Tb1187 O1225 2.393 . S
Tb1187 O1226 2.465 . S
Tb1187 O1227 2.387 . S
Tb1187 O1229 2.428 . S
Tb1187 O1230 2.308 . S
Tb1187 C1251 2.802 . S
N1188 C1184 1.361 . S
N1188 Tb1187 2.572 . S
N1188 C1190 1.340 . S
C1189 C1183 1.416 . S
C1189 C1191 1.332 . S
C1189 H1197 0.931 . S
C1190 N1188 1.340 . S
C1190 C1191 1.407 . S
C1190 H1196 0.930 . S
C1191 C1189 1.332 . S
C1191 C1190 1.407 . S
C1191 H1193 0.929 . S
H1192 C1181 0.930 . S
H1193 C1191 0.929 . S
H1194 C1209 0.930 . S
H1195 C1216 0.929 . S
H1196 C1190 0.930 . S
H1197 C1189 0.931 . S
H1198 C1212 0.930 . S
H1199 C1179 0.930 . S
H1200 C1185 0.929 . S
H1201 C1186 0.930 . S
H1202 C1207 0.930 . S
H1203 C1182 0.930 . S
H1204 C1215 0.931 . S
N1205 Tb1176 2.617 . S
N1205 C1206 1.379 . S
N1205 C1209 1.334 . S
C1206 N1205 1.379 . S
C1206 C1208 1.416 . S
C1206 C1214 1.424 . S
C1207 H1202 0.930 . S
C1207 C1209 1.390 . S
C1207 C1210 1.339 . S
C1208 C1206 1.416 . S
C1208 C1210 1.416 . S
C1208 C1241 1.448 . S
C1209 H1194 0.930 . S
C1209 N1205 1.334 . S
C1209 C1207 1.390 . S
C1210 C1207 1.339 . S
C1210 C1208 1.416 . S
C1210 H1217 0.930 . S
N1211 Tb1176 2.572 . S
N1211 C1212 1.340 . S
N1211 C1214 1.361 . S
C1212 H1198 0.930 . S
C1212 N1211 1.340 . S
C1212 C1216 1.407 . S
C1213 C1214 1.413 . S
C1213 C1215 1.416 . S
C1213 C1242 1.427 . S
C1214 C1206 1.424 . S
C1214 N1211 1.361 . S
C1214 C1213 1.413 . S
C1215 H1204 0.931 . S
C1215 C1213 1.416 . S
C1215 C1216 1.332 . S
C1216 H1195 0.929 . S
C1216 C1212 1.407 . S
C1216 C1215 1.332 . S
H1217 C1210 0.930 . S
H1218 C1241 0.930 . S
H1219 C1242 0.929 . S
O1220 Tb1176 2.465 . S
O1220 C1240 1.264 . S
O1221 Tb1176 2.387 . S
O1221 C1232 1.264 . S
O1222 Tb1187 2.349 . S
O1222 C1232 1.243 . S
O1223 Tb1176 2.428 . S
O1223 C1240 1.256 . S
O1224 Tb1176 2.308 . S
O1224 C1239 1.266 . S
O1225 Tb1187 2.393 . S
O1225 C1239 1.248 . S
O1226 Tb1187 2.465 . S
O1226 C1251 1.264 . S
O1227 Tb1187 2.387 . S
O1227 C1243 1.264 . S
O1228 Tb1176 2.349 . S
O1228 C1243 1.243 . S
O1229 Tb1187 2.428 . S
O1229 C1251 1.256 . S
O1230 Tb1187 2.308 . S
O1230 C1250 1.266 . S
O1231 Tb1176 2.393 . S
O1231 C1250 1.248 . S
C1232 O1221 1.264 . S
C1232 O1222 1.243 . S
C1233 C1236 1.399 . S
C1233 C1238 1.383 . S
C1233 C1240 1.496 . S
C1234 C1235 1.399 . S
C1234 C1238 1.389 . S
C1235 C1234 1.399 . S
C1235 C1237 1.380 . S
C1235 H1252 0.929 . S
C1236 C1233 1.399 . S
C1236 C1237 1.392 . S
C1236 H1253 0.929 . S
C1237 C1235 1.380 . S
C1237 C1236 1.392 . S
C1237 H1254 0.929 . S
C1238 C1233 1.383 . S
C1238 C1234 1.389 . S
C1238 H1255 0.931 . S
C1239 O1224 1.266 . S
C1239 O1225 1.248 . S
C1240 Tb1176 2.802 . S
C1240 O1220 1.264 . S
C1240 O1223 1.256 . S
C1240 C1233 1.496 . S
C1241 C1208 1.448 . S
C1241 H1218 0.930 . S
C1241 C1242 1.328 . S
C1242 C1213 1.427 . S
C1242 H1219 0.929 . S
C1242 C1241 1.328 . S
C1243 O1227 1.264 . S
C1243 O1228 1.243 . S
C1244 C1247 1.399 . S
C1244 C1248 1.383 . S
C1244 C1251 1.496 . S
C1245 C1246 1.399 . S
C1245 C1248 1.389 . S
C1246 C1245 1.399 . S
C1246 C1249 1.380 . S
C1246 H1256 0.929 . S
C1247 C1244 1.399 . S
C1247 C1249 1.392 . S
C1247 H1257 0.929 . S
C1248 C1244 1.383 . S
C1248 C1245 1.389 . S
C1248 H1258 0.931 . S
C1249 C1246 1.380 . S
C1249 C1247 1.392 . S
C1249 H1259 0.929 . S
C1250 O1230 1.266 . S
C1250 O1231 1.248 . S
C1251 Tb1187 2.802 . S
C1251 O1226 1.264 . S
C1251 O1229 1.256 . S
C1251 C1244 1.496 . S
H1252 C1235 0.929 . S
H1253 C1236 0.929 . S
H1254 C1237 0.929 . S
H1255 C1238 0.931 . S
H1256 C1246 0.929 . S
H1257 C1247 0.929 . S
H1258 C1248 0.931 . S
H1259 C1249 0.929 . S
Tb1260 N1289 2.617 . S
Tb1260 N1295 2.572 . S
Tb1260 O1304 2.465 . S
Tb1260 O1305 2.387 . S
Tb1260 O1307 2.428 . S
Tb1260 O1308 2.308 . S
Tb1260 O1312 2.349 . S
Tb1260 O1315 2.393 . S
Tb1260 C1324 2.802 . S
C1261 N1262 1.379 . S
C1261 C1264 1.416 . S
C1261 C1268 1.424 1_554 S
N1262 C1261 1.379 . S
N1262 C1265 1.334 . S
N1262 Tb1271 2.617 1_554 S
C1263 C1265 1.390 . S
C1263 C1266 1.339 . S
C1263 H1283 0.930 . S
C1264 C1261 1.416 . S
C1264 C1266 1.416 . S
C1264 C1270 1.448 . S
C1265 N1262 1.334 . S
C1265 C1263 1.390 . S
C1265 H1276 0.930 . S
C1266 C1263 1.339 . S
C1266 C1264 1.416 . S
C1266 H1287 0.930 . S
C1267 C1268 1.413 . S
C1267 C1269 1.427 1_556 S
C1267 C1273 1.416 . S
C1268 C1261 1.424 1_556 S
C1268 C1267 1.413 . S
C1268 N1272 1.361 . S
C1269 C1267 1.427 1_554 S
C1269 C1270 1.328 . S
C1269 H1284 0.929 . S
C1270 C1264 1.448 . S
C1270 C1269 1.328 . S
C1270 H1285 0.930 . S
Tb1271 N1262 2.617 1_556 S
Tb1271 N1272 2.572 . S
Tb1271 O1306 2.349 . S
Tb1271 O1309 2.393 . S
Tb1271 O1310 2.465 . S
Tb1271 O1311 2.387 . S
Tb1271 O1313 2.428 . S
Tb1271 O1314 2.308 . S
Tb1271 C1335 2.802 . S
N1272 C1268 1.361 . S
N1272 Tb1271 2.572 . S
N1272 C1274 1.340 . S
C1273 C1267 1.416 . S
C1273 C1275 1.332 . S
C1273 H1281 0.931 . S
C1274 N1272 1.340 . S
C1274 C1275 1.407 . S
C1274 H1280 0.930 . S
C1275 C1273 1.332 . S
C1275 C1274 1.407 . S
C1275 H1277 0.929 . S
H1276 C1265 0.930 . S
H1277 C1275 0.929 . S
H1278 C1293 0.930 . S
H1279 C1300 0.929 . S
H1280 C1274 0.930 . S
H1281 C1273 0.931 . S
H1282 C1296 0.930 . S
H1283 C1263 0.930 . S
H1284 C1269 0.929 . S
H1285 C1270 0.930 . S
H1286 C1291 0.930 . S
H1287 C1266 0.930 . S
H1288 C1299 0.931 . S
N1289 Tb1260 2.617 . S
N1289 C1290 1.379 . S
N1289 C1293 1.334 . S
C1290 N1289 1.379 . S
C1290 C1292 1.416 . S
C1290 C1298 1.424 . S
C1291 H1286 0.930 . S
C1291 C1293 1.390 . S
C1291 C1294 1.339 . S
C1292 C1290 1.416 . S
C1292 C1294 1.416 . S
C1292 C1325 1.448 . S
C1293 H1278 0.930 . S
C1293 N1289 1.334 . S
C1293 C1291 1.390 . S
C1294 C1291 1.339 . S
C1294 C1292 1.416 . S
C1294 H1301 0.930 . S
N1295 Tb1260 2.572 . S
N1295 C1296 1.340 . S
N1295 C1298 1.361 . S
C1296 H1282 0.930 . S
C1296 N1295 1.340 . S
C1296 C1300 1.407 . S
C1297 C1298 1.413 . S
C1297 C1299 1.416 . S
C1297 C1326 1.427 . S
C1298 C1290 1.424 . S
C1298 N1295 1.361 . S
C1298 C1297 1.413 . S
C1299 H1288 0.931 . S
C1299 C1297 1.416 . S
C1299 C1300 1.332 . S
C1300 H1279 0.929 . S
C1300 C1296 1.407 . S
C1300 C1299 1.332 . S
H1301 C1294 0.930 . S
H1302 C1325 0.930 . S
H1303 C1326 0.929 . S
O1304 Tb1260 2.465 . S
O1304 C1324 1.264 . S
O1305 Tb1260 2.387 . S
O1305 C1316 1.264 . S
O1306 Tb1271 2.349 . S
O1306 C1316 1.243 . S
O1307 Tb1260 2.428 . S
O1307 C1324 1.256 . S
O1308 Tb1260 2.308 . S
O1308 C1323 1.266 . S
O1309 Tb1271 2.393 . S
O1309 C1323 1.248 . S
O1310 Tb1271 2.465 . S
O1310 C1335 1.264 . S
O1311 Tb1271 2.387 . S
O1311 C1327 1.264 . S
O1312 Tb1260 2.349 . S
O1312 C1327 1.243 . S
O1313 Tb1271 2.428 . S
O1313 C1335 1.256 . S
O1314 Tb1271 2.308 . S
O1314 C1334 1.266 . S
O1315 Tb1260 2.393 . S
O1315 C1334 1.248 . S
C1316 O1305 1.264 . S
C1316 O1306 1.243 . S
C1317 C1320 1.399 . S
C1317 C1322 1.383 . S
C1317 C1324 1.496 . S
C1318 C1319 1.399 . S
C1318 C1322 1.389 . S
C1319 C1318 1.399 . S
C1319 C1321 1.380 . S
C1319 H1336 0.929 . S
C1320 C1317 1.399 . S
C1320 C1321 1.392 . S
C1320 H1337 0.929 . S
C1321 C1319 1.380 . S
C1321 C1320 1.392 . S
C1321 H1338 0.929 . S
C1322 C1317 1.383 . S
C1322 C1318 1.389 . S
C1322 H1339 0.931 . S
C1323 O1308 1.266 . S
C1323 O1309 1.248 . S
C1324 Tb1260 2.802 . S
C1324 O1304 1.264 . S
C1324 O1307 1.256 . S
C1324 C1317 1.496 . S
C1325 C1292 1.448 . S
C1325 H1302 0.930 . S
C1325 C1326 1.328 . S
C1326 C1297 1.427 . S
C1326 H1303 0.929 . S
C1326 C1325 1.328 . S
C1327 O1311 1.264 . S
C1327 O1312 1.243 . S
C1328 C1331 1.399 . S
C1328 C1332 1.383 . S
C1328 C1335 1.496 . S
C1329 C1330 1.399 . S
C1329 C1332 1.389 . S
C1330 C1329 1.399 . S
C1330 C1333 1.380 . S
C1330 H1340 0.929 . S
C1331 C1328 1.399 . S
C1331 C1333 1.392 . S
C1331 H1341 0.929 . S
C1332 C1328 1.383 . S
C1332 C1329 1.389 . S
C1332 H1342 0.931 . S
C1333 C1330 1.380 . S
C1333 C1331 1.392 . S
C1333 H1343 0.929 . S
C1334 O1314 1.266 . S
C1334 O1315 1.248 . S
C1335 Tb1271 2.802 . S
C1335 O1310 1.264 . S
C1335 O1313 1.256 . S
C1335 C1328 1.496 . S
H1336 C1319 0.929 . S
H1337 C1320 0.929 . S
H1338 C1321 0.929 . S
H1339 C1322 0.931 . S
H1340 C1330 0.929 . S
H1341 C1331 0.929 . S
H1342 C1332 0.931 . S
H1343 C1333 0.929 . S
H1344 C1352 0.950 . S
H1345 C1357 0.950 . S
H1346 C1354 0.950 . S
H1347 C1356 0.950 . S
H1348 C1358 0.950 . S
H1349 C1360 0.950 . S
H1350 C1362 0.950 . S
H1351 C1363 0.950 . S
C1352 H1344 0.950 . S
C1352 C1353 1.386 . S
C1352 C1354 1.391 . S
C1353 C1352 1.386 . S
C1353 C1357 1.393 . S
C1354 H1346 0.950 . S
C1354 C1352 1.391 . S
C1354 C1355 1.400 . S
C1355 C1354 1.400 . S
C1355 C1356 1.398 . S
C1355 C1361 1.491 . S
C1356 H1347 0.950 . S
C1356 C1355 1.398 . S
C1356 C1357 1.391 . S
C1357 H1345 0.950 . S
C1357 C1353 1.393 . S
C1357 C1356 1.391 . S
C1358 H1348 0.950 . S
C1358 C1359 1.386 . S
C1358 C1360 1.391 . S
C1359 C1358 1.386 . S
C1359 C1363 1.393 . S
C1360 H1349 0.950 . S
C1360 C1358 1.391 . S
C1360 C1361 1.400 . S
C1361 C1355 1.491 . S
C1361 C1360 1.400 . S
C1361 C1362 1.398 . S
C1362 H1350 0.950 . S
C1362 C1361 1.398 . S
C1362 C1363 1.391 . S
C1363 H1351 0.950 . S
C1363 C1359 1.393 . S
C1363 C1362 1.391 . S
H1364 C1372 0.950 . S
H1365 C1377 0.950 . S
H1366 C1374 0.950 . S
H1367 C1376 0.950 . S
H1368 C1378 0.950 . S
H1369 C1380 0.950 . S
H1370 C1382 0.950 . S
H1371 C1383 0.950 . S
C1372 H1364 0.950 . S
C1372 C1373 1.386 . S
C1372 C1374 1.391 . S
C1373 C1372 1.386 . S
C1373 C1377 1.393 . S
C1374 H1366 0.950 . S
C1374 C1372 1.391 . S
C1374 C1375 1.400 . S
C1375 C1374 1.400 . S
C1375 C1376 1.398 . S
C1375 C1381 1.491 . S
C1376 H1367 0.950 . S
C1376 C1375 1.398 . S
C1376 C1377 1.391 . S
C1377 H1365 0.950 . S
C1377 C1373 1.393 . S
C1377 C1376 1.391 . S
C1378 H1368 0.950 . S
C1378 C1379 1.386 . S
C1378 C1380 1.391 . S
C1379 C1378 1.386 . S
C1379 C1383 1.393 . S
C1380 H1369 0.950 . S
C1380 C1378 1.391 . S
C1380 C1381 1.400 . S
C1381 C1375 1.491 . S
C1381 C1380 1.400 . S
C1381 C1382 1.398 . S
C1382 H1370 0.950 . S
C1382 C1381 1.398 . S
C1382 C1383 1.391 . S
C1383 H1371 0.950 . S
C1383 C1379 1.393 . S
C1383 C1382 1.391 . S
H1384 C1392 0.950 . S
H1385 C1397 0.950 . S
H1386 C1394 0.950 . S
H1387 C1396 0.950 . S
H1388 C1398 0.950 . S
H1389 C1400 0.950 . S
H1390 C1402 0.950 . S
H1391 C1403 0.950 . S
C1392 H1384 0.950 . S
C1392 C1393 1.386 . S
C1392 C1394 1.391 . S
C1393 C1392 1.386 . S
C1393 C1397 1.393 . S
C1394 H1386 0.950 . S
C1394 C1392 1.391 . S
C1394 C1395 1.400 . S
C1395 C1394 1.400 . S
C1395 C1396 1.398 . S
C1395 C1401 1.491 . S
C1396 H1387 0.950 . S
C1396 C1395 1.398 . S
C1396 C1397 1.391 . S
C1397 H1385 0.950 . S
C1397 C1393 1.393 . S
C1397 C1396 1.391 . S
C1398 H1388 0.950 . S
C1398 C1399 1.386 . S
C1398 C1400 1.391 . S
C1399 C1398 1.386 . S
C1399 C1403 1.393 . S
C1400 H1389 0.950 . S
C1400 C1398 1.391 . S
C1400 C1401 1.400 . S
C1401 C1395 1.491 . S
C1401 C1400 1.400 . S
C1401 C1402 1.398 . S
C1402 H1390 0.950 . S
C1402 C1401 1.398 . S
C1402 C1403 1.391 . S
C1403 H1391 0.950 . S
C1403 C1399 1.393 . S
C1403 C1402 1.391 . S
H1404 C1412 0.950 . S
H1405 C1417 0.950 . S
H1406 C1414 0.950 . S
H1407 C1416 0.950 . S
H1408 C1418 0.950 . S
H1409 C1420 0.950 . S
H1410 C1422 0.950 . S
H1411 C1423 0.950 . S
C1412 H1404 0.950 . S
C1412 C1413 1.386 . S
C1412 C1414 1.391 . S
C1413 C1412 1.386 . S
C1413 C1417 1.393 . S
C1414 H1406 0.950 . S
C1414 C1412 1.391 . S
C1414 C1415 1.400 . S
C1415 C1414 1.400 . S
C1415 C1416 1.398 . S
C1415 C1421 1.491 . S
C1416 H1407 0.950 . S
C1416 C1415 1.398 . S
C1416 C1417 1.391 . S
C1417 H1405 0.950 . S
C1417 C1413 1.393 . S
C1417 C1416 1.391 . S
C1418 H1408 0.950 . S
C1418 C1419 1.386 . S
C1418 C1420 1.391 . S
C1419 C1418 1.386 . S
C1419 C1423 1.393 . S
C1420 H1409 0.950 . S
C1420 C1418 1.391 . S
C1420 C1421 1.400 . S
C1421 C1415 1.491 . S
C1421 C1420 1.400 . S
C1421 C1422 1.398 . S
C1422 H1410 0.950 . S
C1422 C1421 1.398 . S
C1422 C1423 1.391 . S
C1423 H1411 0.950 . S
C1423 C1419 1.393 . S
C1423 C1422 1.391 . S
H1424 C1432 0.950 . S
H1425 C1437 0.950 . S
H1426 C1434 0.950 . S
H1427 C1436 0.950 . S
H1428 C1438 0.950 . S
H1429 C1440 0.950 . S
H1430 C1442 0.950 . S
H1431 C1443 0.950 . S
C1432 H1424 0.950 . S
C1432 C1433 1.386 . S
C1432 C1434 1.391 . S
C1433 C1432 1.386 . S
C1433 C1437 1.393 . S
C1434 H1426 0.950 . S
C1434 C1432 1.391 . S
C1434 C1435 1.400 . S
C1435 C1434 1.400 . S
C1435 C1436 1.398 . S
C1435 C1441 1.491 . S
C1436 H1427 0.950 . S
C1436 C1435 1.398 . S
C1436 C1437 1.391 . S
C1437 H1425 0.950 . S
C1437 C1433 1.393 . S
C1437 C1436 1.391 . S
C1438 H1428 0.950 . S
C1438 C1439 1.386 . S
C1438 C1440 1.391 . S
C1439 C1438 1.386 . S
C1439 C1443 1.393 . S
C1440 H1429 0.950 . S
C1440 C1438 1.391 . S
C1440 C1441 1.400 . S
C1441 C1435 1.491 . S
C1441 C1440 1.400 . S
C1441 C1442 1.398 . S
C1442 H1430 0.950 . S
C1442 C1441 1.398 . S
C1442 C1443 1.391 . S
C1443 H1431 0.950 . S
C1443 C1439 1.393 . S
C1443 C1442 1.391 . S
H1444 C1452 0.950 . S
H1445 C1457 0.950 . S
H1446 C1454 0.950 . S
H1447 C1456 0.950 . S
H1448 C1458 0.950 . S
H1449 C1460 0.950 . S
H1450 C1462 0.950 . S
H1451 C1463 0.950 . S
C1452 H1444 0.950 . S
C1452 C1453 1.386 . S
C1452 C1454 1.391 . S
C1453 C1452 1.386 . S
C1453 C1457 1.393 . S
C1454 H1446 0.950 . S
C1454 C1452 1.391 . S
C1454 C1455 1.400 . S
C1455 C1454 1.400 . S
C1455 C1456 1.398 . S
C1455 C1461 1.491 . S
C1456 H1447 0.950 . S
C1456 C1455 1.398 . S
C1456 C1457 1.391 . S
C1457 H1445 0.950 . S
C1457 C1453 1.393 . S
C1457 C1456 1.391 . S
C1458 H1448 0.950 . S
C1458 C1459 1.386 . S
C1458 C1460 1.391 . S
C1459 C1458 1.386 . S
C1459 C1463 1.393 . S
C1460 H1449 0.950 . S
C1460 C1458 1.391 . S
C1460 C1461 1.400 . S
C1461 C1455 1.491 . S
C1461 C1460 1.400 . S
C1461 C1462 1.398 . S
C1462 H1450 0.950 . S
C1462 C1461 1.398 . S
C1462 C1463 1.391 . S
C1463 H1451 0.950 . S
C1463 C1459 1.393 . S
C1463 C1462 1.391 . S
H1464 C1472 0.950 . S
H1465 C1477 0.950 . S
H1466 C1474 0.950 . S
H1467 C1476 0.950 . S
H1468 C1478 0.950 . S
H1469 C1480 0.950 . S
H1470 C1482 0.950 . S
H1471 C1483 0.950 . S
C1472 H1464 0.950 . S
C1472 C1473 1.386 . S
C1472 C1474 1.391 . S
C1473 C1472 1.386 . S
C1473 C1477 1.393 . S
C1474 H1466 0.950 . S
C1474 C1472 1.391 . S
C1474 C1475 1.400 . S
C1475 C1474 1.400 . S
C1475 C1476 1.398 . S
C1475 C1481 1.491 . S
C1476 H1467 0.950 . S
C1476 C1475 1.398 . S
C1476 C1477 1.391 . S
C1477 H1465 0.950 . S
C1477 C1473 1.393 . S
C1477 C1476 1.391 . S
C1478 H1468 0.950 . S
C1478 C1479 1.386 . S
C1478 C1480 1.391 . S
C1479 C1478 1.386 . S
C1479 C1483 1.393 . S
C1480 H1469 0.950 . S
C1480 C1478 1.391 . S
C1480 C1481 1.400 . S
C1481 C1475 1.491 . S
C1481 C1480 1.400 . S
C1481 C1482 1.398 . S
C1482 H1470 0.950 . S
C1482 C1481 1.398 . S
C1482 C1483 1.391 . S
C1483 H1471 0.950 . S
C1483 C1479 1.393 . S
C1483 C1482 1.391 . S
H1484 C1492 0.950 . S
H1485 C1497 0.950 . S
H1486 C1494 0.950 . S
H1487 C1496 0.950 . S
H1488 C1498 0.950 . S
H1489 C1500 0.950 . S
H1490 C1502 0.950 . S
H1491 C1503 0.950 . S
C1492 H1484 0.950 . S
C1492 C1493 1.386 . S
C1492 C1494 1.391 . S
C1493 C1492 1.386 . S
C1493 C1497 1.393 . S
C1494 H1486 0.950 . S
C1494 C1492 1.391 . S
C1494 C1495 1.400 . S
C1495 C1494 1.400 . S
C1495 C1496 1.398 . S
C1495 C1501 1.491 . S
C1496 H1487 0.950 . S
C1496 C1495 1.398 . S
C1496 C1497 1.391 . S
C1497 H1485 0.950 . S
C1497 C1493 1.393 . S
C1497 C1496 1.391 . S
C1498 H1488 0.950 . S
C1498 C1499 1.386 . S
C1498 C1500 1.391 . S
C1499 C1498 1.386 . S
C1499 C1503 1.393 . S
C1500 H1489 0.950 . S
C1500 C1498 1.391 . S
C1500 C1501 1.400 . S
C1501 C1495 1.491 . S
C1501 C1500 1.400 . S
C1501 C1502 1.398 . S
C1502 H1490 0.950 . S
C1502 C1501 1.398 . S
C1502 C1503 1.391 . S
C1503 H1491 0.950 . S
C1503 C1499 1.393 . S
C1503 C1502 1.391 . S
H1504 C1512 0.950 . S
H1505 C1517 0.950 . S
H1506 C1514 0.950 . S
H1507 C1516 0.950 . S
H1508 C1518 0.950 . S
H1509 C1520 0.950 . S
H1510 C1522 0.950 . S
H1511 C1523 0.950 1_565 S
C1512 H1504 0.950 . S
C1512 C1513 1.386 . S
C1512 C1514 1.391 . S
C1513 C1512 1.386 . S
C1513 C1517 1.393 . S
C1514 H1506 0.950 . S
C1514 C1512 1.391 . S
C1514 C1515 1.400 . S
C1515 C1514 1.400 . S
C1515 C1516 1.398 . S
C1515 C1521 1.491 . S
C1516 H1507 0.950 . S
C1516 C1515 1.398 . S
C1516 C1517 1.391 . S
C1517 H1505 0.950 . S
C1517 C1513 1.393 . S
C1517 C1516 1.391 . S
C1518 H1508 0.950 . S
C1518 C1519 1.386 . S
C1518 C1520 1.391 . S
C1519 C1518 1.386 . S
C1519 C1523 1.393 . S
C1520 H1509 0.950 . S
C1520 C1518 1.391 . S
C1520 C1521 1.400 . S
C1521 C1515 1.491 . S
C1521 C1520 1.400 . S
C1521 C1522 1.398 . S
C1522 H1510 0.950 . S
C1522 C1521 1.398 . S
C1522 C1523 1.391 . S
C1523 H1511 0.950 1_545 S
C1523 C1519 1.393 . S
C1523 C1522 1.391 . S
H1524 C1532 0.950 . S
H1525 C1537 0.950 . S
H1526 C1534 0.950 . S
H1527 C1536 0.950 . S
H1528 C1538 0.950 . S
H1529 C1540 0.950 . S
H1530 C1542 0.950 . S
H1531 C1543 0.950 . S
C1532 H1524 0.950 . S
C1532 C1533 1.386 . S
C1532 C1534 1.391 . S
C1533 C1532 1.386 . S
C1533 C1537 1.393 . S
C1534 H1526 0.950 . S
C1534 C1532 1.391 . S
C1534 C1535 1.400 . S
C1535 C1534 1.400 . S
C1535 C1536 1.398 . S
C1535 C1541 1.491 . S
C1536 H1527 0.950 . S
C1536 C1535 1.398 . S
C1536 C1537 1.391 . S
C1537 H1525 0.950 . S
C1537 C1533 1.393 . S
C1537 C1536 1.391 . S
C1538 H1528 0.950 . S
C1538 C1539 1.386 . S
C1538 C1540 1.391 . S
C1539 C1538 1.386 . S
C1539 C1543 1.393 . S
C1540 H1529 0.950 . S
C1540 C1538 1.391 . S
C1540 C1541 1.400 . S
C1541 C1535 1.491 . S
C1541 C1540 1.400 . S
C1541 C1542 1.398 . S
C1542 H1530 0.950 . S
C1542 C1541 1.398 . S
C1542 C1543 1.391 . S
C1543 H1531 0.950 . S
C1543 C1539 1.393 . S
C1543 C1542 1.391 . S
H1544 C1552 0.950 . S
H1545 C1557 0.950 . S
H1546 C1554 0.950 . S
H1547 C1556 0.950 . S
H1548 C1558 0.950 . S
H1549 C1560 0.950 . S
H1550 C1562 0.950 . S
H1551 C1563 0.950 . S
C1552 H1544 0.950 . S
C1552 C1553 1.386 . S
C1552 C1554 1.391 . S
C1553 C1552 1.386 . S
C1553 C1557 1.393 . S
C1554 H1546 0.950 . S
C1554 C1552 1.391 . S
C1554 C1555 1.400 . S
C1555 C1554 1.400 . S
C1555 C1556 1.398 . S
C1555 C1561 1.491 . S
C1556 H1547 0.950 . S
C1556 C1555 1.398 . S
C1556 C1557 1.391 . S
C1557 H1545 0.950 . S
C1557 C1553 1.393 . S
C1557 C1556 1.391 . S
C1558 H1548 0.950 . S
C1558 C1559 1.386 . S
C1558 C1560 1.391 . S
C1559 C1558 1.386 . S
C1559 C1563 1.393 . S
C1560 H1549 0.950 . S
C1560 C1558 1.391 . S
C1560 C1561 1.400 . S
C1561 C1555 1.491 . S
C1561 C1560 1.400 . S
C1561 C1562 1.398 . S
C1562 H1550 0.950 . S
C1562 C1561 1.398 . S
C1562 C1563 1.391 . S
C1563 H1551 0.950 . S
C1563 C1559 1.393 . S
C1563 C1562 1.391 . S
H1564 C1572 0.950 . S
H1565 C1577 0.950 . S
H1566 C1574 0.950 . S
H1567 C1576 0.950 . S
H1568 C1578 0.950 . S
H1569 C1580 0.950 . S
H1570 C1582 0.950 . S
H1571 C1583 0.950 1_655 S
C1572 H1564 0.950 . S
C1572 C1573 1.386 . S
C1572 C1574 1.391 . S
C1573 C1572 1.386 . S
C1573 C1577 1.393 . S
C1574 H1566 0.950 . S
C1574 C1572 1.391 . S
C1574 C1575 1.400 . S
C1575 C1574 1.400 . S
C1575 C1576 1.398 . S
C1575 C1581 1.491 . S
C1576 H1567 0.950 . S
C1576 C1575 1.398 . S
C1576 C1577 1.391 . S
C1577 H1565 0.950 . S
C1577 C1573 1.393 . S
C1577 C1576 1.391 . S
C1578 H1568 0.950 . S
C1578 C1579 1.386 . S
C1578 C1580 1.391 . S
C1579 C1578 1.386 . S
C1579 C1583 1.393 . S
C1580 H1569 0.950 . S
C1580 C1578 1.391 . S
C1580 C1581 1.400 . S
C1581 C1575 1.491 . S
C1581 C1580 1.400 . S
C1581 C1582 1.398 . S
C1582 H1570 0.950 . S
C1582 C1581 1.398 . S
C1582 C1583 1.391 . S
C1583 H1571 0.950 1_455 S
C1583 C1579 1.393 . S
C1583 C1582 1.391 . S
H1584 C1592 0.950 . S
H1585 C1597 0.950 . S
H1586 C1594 0.950 . S
H1587 C1596 0.950 . S
H1588 C1598 0.963 . S
H1589 C1600 0.950 . S
H1590 C1602 0.950 . S
H1591 C1603 0.950 . S
C1592 H1584 0.950 . S
C1592 C1593 1.386 . S
C1592 C1594 1.391 . S
C1593 C1592 1.386 . S
C1593 C1597 1.393 . S
C1594 H1586 0.950 . S
C1594 C1592 1.391 . S
C1594 C1595 1.400 . S
C1595 C1594 1.400 . S
C1595 C1596 1.398 . S
C1595 C1601 1.491 . S
C1596 H1587 0.950 . S
C1596 C1595 1.398 . S
C1596 C1597 1.391 . S
C1597 H1585 0.950 . S
C1597 C1593 1.393 . S
C1597 C1596 1.391 . S
C1598 H1588 0.963 . S
C1598 C1599 1.386 . S
C1598 C1600 1.391 . S
C1599 C1598 1.386 . S
C1599 C1603 1.393 . S
C1600 H1589 0.950 . S
C1600 C1598 1.391 . S
C1600 C1601 1.400 . S
C1601 C1595 1.491 . S
C1601 C1600 1.400 . S
C1601 C1602 1.398 . S
C1602 H1590 0.950 . S
C1602 C1601 1.398 . S
C1602 C1603 1.391 . S
C1603 H1591 0.950 . S
C1603 C1599 1.393 . S
C1603 C1602 1.391 . S
H1604 C1612 0.950 . S
H1605 C1617 0.950 . S
H1606 C1614 0.950 . S
H1607 C1616 0.950 . S
H1608 C1618 0.950 . S
H1609 C1620 0.950 . S
H1610 C1622 0.950 . S
H1611 C1623 0.950 . S
C1612 H1604 0.950 . S
C1612 C1613 1.386 . S
C1612 C1614 1.391 . S
C1613 C1612 1.386 . S
C1613 C1617 1.393 . S
C1614 H1606 0.950 . S
C1614 C1612 1.391 . S
C1614 C1615 1.400 . S
C1615 C1614 1.400 . S
C1615 C1616 1.398 . S
C1615 C1621 1.491 . S
C1616 H1607 0.950 . S
C1616 C1615 1.398 . S
C1616 C1617 1.391 . S
C1617 H1605 0.950 . S
C1617 C1613 1.393 . S
C1617 C1616 1.391 . S
C1618 H1608 0.950 . S
C1618 C1619 1.386 . S
C1618 C1620 1.391 . S
C1619 C1618 1.386 . S
C1619 C1623 1.393 . S
C1620 H1609 0.950 . S
C1620 C1618 1.391 . S
C1620 C1621 1.400 . S
C1621 C1615 1.491 . S
C1621 C1620 1.400 . S
C1621 C1622 1.398 . S
C1622 H1610 0.950 . S
C1622 C1621 1.398 . S
C1622 C1623 1.391 . S
C1623 H1611 0.950 . S
C1623 C1619 1.393 . S
C1623 C1622 1.391 . S
H1624 C1632 0.950 . S
H1625 C1637 0.950 . S
H1626 C1634 0.950 . S
H1627 C1636 0.950 . S
H1628 C1638 0.950 . S
H1629 C1640 0.950 . S
H1630 C1642 0.950 . S
H1631 C1643 0.950 . S
C1632 H1624 0.950 . S
C1632 C1633 1.386 . S
C1632 C1634 1.391 . S
C1633 C1632 1.386 . S
C1633 C1637 1.393 . S
C1634 H1626 0.950 . S
C1634 C1632 1.391 . S
C1634 C1635 1.400 . S
C1635 C1634 1.400 . S
C1635 C1636 1.398 . S
C1635 C1641 1.491 . S
C1636 H1627 0.950 . S
C1636 C1635 1.398 . S
C1636 C1637 1.391 . S
C1637 H1625 0.950 . S
C1637 C1633 1.393 . S
C1637 C1636 1.391 . S
C1638 H1628 0.950 . S
C1638 C1639 1.386 . S
C1638 C1640 1.391 . S
C1639 C1638 1.386 . S
C1639 C1643 1.393 . S
C1640 H1629 0.950 . S
C1640 C1638 1.391 . S
C1640 C1641 1.400 . S
C1641 C1635 1.491 . S
C1641 C1640 1.400 . S
C1641 C1642 1.398 . S
C1642 H1630 0.950 . S
C1642 C1641 1.398 . S
C1642 C1643 1.391 . S
C1643 H1631 0.950 . S
C1643 C1639 1.393 . S
C1643 C1642 1.391 . S
H1644 C1652 0.950 . S
H1645 C1657 0.950 1_455 S
H1646 C1654 0.950 . S
H1647 C1656 0.950 . S
H1648 C1658 0.950 . S
H1649 C1660 0.950 . S
H1650 C1662 0.950 . S
H1651 C1663 0.950 . S
C1652 H1644 0.950 . S
C1652 C1653 1.386 . S
C1652 C1654 1.391 . S
C1653 C1652 1.386 . S
C1653 C1657 1.393 . S
C1654 H1646 0.950 . S
C1654 C1652 1.391 . S
C1654 C1655 1.400 . S
C1655 C1654 1.400 . S
C1655 C1656 1.398 . S
C1655 C1661 1.491 . S
C1656 H1647 0.950 . S
C1656 C1655 1.398 . S
C1656 C1657 1.391 . S
C1657 H1645 0.950 1_655 S
C1657 C1653 1.393 . S
C1657 C1656 1.391 . S
C1658 H1648 0.950 . S
C1658 C1659 1.386 . S
C1658 C1660 1.391 . S
C1659 C1658 1.386 . S
C1659 C1663 1.393 . S
C1660 H1649 0.950 . S
C1660 C1658 1.391 . S
C1660 C1661 1.400 . S
C1661 C1655 1.491 . S
C1661 C1660 1.400 . S
C1661 C1662 1.398 . S
C1662 H1650 0.950 . S
C1662 C1661 1.398 . S
C1662 C1663 1.391 . S
C1663 H1651 0.950 . S
C1663 C1659 1.393 . S
C1663 C1662 1.391 . S
H1664 C1672 0.950 1_545 S
H1665 C1677 0.950 . S
H1666 C1674 0.950 . S
H1667 C1676 0.950 . S
H1668 C1678 0.950 . S
H1669 C1680 0.950 . S
H1670 C1682 0.950 . S
H1671 C1683 0.950 . S
C1672 H1664 0.950 1_565 S
C1672 C1673 1.386 . S
C1672 C1674 1.391 . S
C1673 C1672 1.386 . S
C1673 C1677 1.393 . S
C1674 H1666 0.950 . S
C1674 C1672 1.391 . S
C1674 C1675 1.400 . S
C1675 C1674 1.400 . S
C1675 C1676 1.398 . S
C1675 C1681 1.491 . S
C1676 H1667 0.950 . S
C1676 C1675 1.398 . S
C1676 C1677 1.391 . S
C1677 H1665 0.950 . S
C1677 C1673 1.393 . S
C1677 C1676 1.391 . S
C1678 H1668 0.950 . S
C1678 C1679 1.386 . S
C1678 C1680 1.391 . S
C1679 C1678 1.386 . S
C1679 C1683 1.393 . S
C1680 H1669 0.950 . S
C1680 C1678 1.391 . S
C1680 C1681 1.400 . S
C1681 C1675 1.491 . S
C1681 C1680 1.400 . S
C1681 C1682 1.398 . S
C1682 H1670 0.950 . S
C1682 C1681 1.398 . S
C1682 C1683 1.391 . S
C1683 H1671 0.950 . S
C1683 C1679 1.393 . S
C1683 C1682 1.391 . S
H1684 C1692 0.950 . S
H1685 C1697 0.950 . S
H1686 C1694 0.950 . S
H1687 C1696 0.950 . S
H1688 C1698 0.950 . S
H1689 C1700 0.950 . S
H1690 C1702 0.950 . S
H1691 C1703 0.950 . S
C1692 H1684 0.950 . S
C1692 C1693 1.386 . S
C1692 C1694 1.391 . S
C1693 C1692 1.386 . S
C1693 C1697 1.393 . S
C1694 H1686 0.950 . S
C1694 C1692 1.391 . S
C1694 C1695 1.400 . S
C1695 C1694 1.400 . S
C1695 C1696 1.398 . S
C1695 C1701 1.491 . S
C1696 H1687 0.950 . S
C1696 C1695 1.398 . S
C1696 C1697 1.391 . S
C1697 H1685 0.950 . S
C1697 C1693 1.393 . S
C1697 C1696 1.391 . S
C1698 H1688 0.950 . S
C1698 C1699 1.386 . S
C1698 C1700 1.391 . S
C1699 C1698 1.386 . S
C1699 C1703 1.393 . S
C1700 H1689 0.950 . S
C1700 C1698 1.391 . S
C1700 C1701 1.400 . S
C1701 C1695 1.491 . S
C1701 C1700 1.400 . S
C1701 C1702 1.398 . S
C1702 H1690 0.950 . S
C1702 C1701 1.398 . S
C1702 C1703 1.391 . S
C1703 H1691 0.950 . S
C1703 C1699 1.393 . S
C1703 C1702 1.391 . S
H1704 C1712 0.950 . S
H1705 C1717 0.950 . S
H1706 C1714 0.950 . S
H1707 C1716 0.950 . S
H1708 C1718 0.950 . S
H1709 C1720 0.950 . S
H1710 C1722 0.950 . S
H1711 C1723 0.950 . S
C1712 H1704 0.950 . S
C1712 C1713 1.386 . S
C1712 C1714 1.391 . S
C1713 C1712 1.386 . S
C1713 C1717 1.393 . S
C1714 H1706 0.950 . S
C1714 C1712 1.391 . S
C1714 C1715 1.400 . S
C1715 C1714 1.400 . S
C1715 C1716 1.398 . S
C1715 C1721 1.491 . S
C1716 H1707 0.950 . S
C1716 C1715 1.398 . S
C1716 C1717 1.391 . S
C1717 H1705 0.950 . S
C1717 C1713 1.393 . S
C1717 C1716 1.391 . S
C1718 H1708 0.950 . S
C1718 C1719 1.386 . S
C1718 C1720 1.391 . S
C1719 C1718 1.386 . S
C1719 C1723 1.393 . S
C1720 H1709 0.950 . S
C1720 C1718 1.391 . S
C1720 C1721 1.400 . S
C1721 C1715 1.491 . S
C1721 C1720 1.400 . S
C1721 C1722 1.398 . S
C1722 H1710 0.950 . S
C1722 C1721 1.398 . S
C1722 C1723 1.391 . S
C1723 H1711 0.950 . S
C1723 C1719 1.393 . S
C1723 C1722 1.391 . S
H1724 C1732 0.950 . S
H1725 C1737 0.950 . S
H1726 C1734 0.950 . S
H1727 C1736 0.950 . S
H1728 C1738 0.950 . S
H1729 C1740 0.950 . S
H1730 C1742 0.950 . S
H1731 C1743 0.947 . S
C1732 H1724 0.950 . S
C1732 C1733 1.386 . S
C1732 C1734 1.391 . S
C1733 C1732 1.386 . S
C1733 C1737 1.393 . S
C1734 H1726 0.950 . S
C1734 C1732 1.391 . S
C1734 C1735 1.400 . S
C1735 C1734 1.400 . S
C1735 C1736 1.398 . S
C1735 C1741 1.491 . S
C1736 H1727 0.950 . S
C1736 C1735 1.398 . S
C1736 C1737 1.391 . S
C1737 H1725 0.950 . S
C1737 C1733 1.393 . S
C1737 C1736 1.391 . S
C1738 H1728 0.950 . S
C1738 C1739 1.386 . S
C1738 C1740 1.391 . S
C1739 C1738 1.386 . S
C1739 C1743 1.393 . S
C1740 H1729 0.950 . S
C1740 C1738 1.391 . S
C1740 C1741 1.400 . S
C1741 C1735 1.491 . S
C1741 C1740 1.400 . S
C1741 C1742 1.398 . S
C1742 H1730 0.950 . S
C1742 C1741 1.398 . S
C1742 C1743 1.391 . S
C1743 H1731 0.947 . S
C1743 C1739 1.393 . S
C1743 C1742 1.391 . S
H1744 C1752 0.950 . S
H1745 C1757 0.950 . S
H1746 C1754 0.950 . S
H1747 C1756 0.950 . S
H1748 C1758 0.950 . S
H1749 C1760 0.950 . S
H1750 C1762 0.950 . S
H1751 C1763 0.950 . S
C1752 H1744 0.950 . S
C1752 C1753 1.386 . S
C1752 C1754 1.391 . S
C1753 C1752 1.386 . S
C1753 C1757 1.393 . S
C1754 H1746 0.950 . S
C1754 C1752 1.391 . S
C1754 C1755 1.400 . S
C1755 C1754 1.400 . S
C1755 C1756 1.398 . S
C1755 C1761 1.491 . S
C1756 H1747 0.950 . S
C1756 C1755 1.398 . S
C1756 C1757 1.391 . S
C1757 H1745 0.950 . S
C1757 C1753 1.393 . S
C1757 C1756 1.391 . S
C1758 H1748 0.950 . S
C1758 C1759 1.386 . S
C1758 C1760 1.391 . S
C1759 C1758 1.386 . S
C1759 C1763 1.393 . S
C1760 H1749 0.950 . S
C1760 C1758 1.391 . S
C1760 C1761 1.400 . S
C1761 C1755 1.491 . S
C1761 C1760 1.400 . S
C1761 C1762 1.398 . S
C1762 H1750 0.950 . S
C1762 C1761 1.398 . S
C1762 C1763 1.391 . S
C1763 H1751 0.950 . S
C1763 C1759 1.393 . S
C1763 C1762 1.391 . S
H1764 C1772 0.950 . S
H1765 C1777 0.950 . S
H1766 C1774 0.950 . S
H1767 C1776 0.950 . S
H1768 C1778 0.950 . S
H1769 C1780 0.950 . S
H1770 C1782 0.950 . S
H1771 C1783 0.950 . S
C1772 H1764 0.950 . S
C1772 C1773 1.386 . S
C1772 C1774 1.391 . S
C1773 C1772 1.386 . S
C1773 C1777 1.393 . S
C1774 H1766 0.950 . S
C1774 C1772 1.391 . S
C1774 C1775 1.400 . S
C1775 C1774 1.400 . S
C1775 C1776 1.398 . S
C1775 C1781 1.491 . S
C1776 H1767 0.950 . S
C1776 C1775 1.398 . S
C1776 C1777 1.391 . S
C1777 H1765 0.950 . S
C1777 C1773 1.393 . S
C1777 C1776 1.391 . S
C1778 H1768 0.950 . S
C1778 C1779 1.386 . S
C1778 C1780 1.391 . S
C1779 C1778 1.386 . S
C1779 C1783 1.393 . S
C1780 H1769 0.950 . S
C1780 C1778 1.391 . S
C1780 C1781 1.400 . S
C1781 C1775 1.491 . S
C1781 C1780 1.400 . S
C1781 C1782 1.398 . S
C1782 H1770 0.950 . S
C1782 C1781 1.398 . S
C1782 C1783 1.391 . S
C1783 H1771 0.950 . S
C1783 C1779 1.393 . S
C1783 C1782 1.391 . S
H1784 C1792 0.950 . S
H1785 C1797 0.950 . S
H1786 C1794 0.950 . S
H1787 C1796 0.950 . S
H1788 C1798 0.950 . S
H1789 C1800 0.950 . S
H1790 C1802 0.950 . S
H1791 C1803 0.950 . S
C1792 H1784 0.950 . S
C1792 C1793 1.386 . S
C1792 C1794 1.391 . S
C1793 C1792 1.386 . S
C1793 C1797 1.393 . S
C1794 H1786 0.950 . S
C1794 C1792 1.391 . S
C1794 C1795 1.400 . S
C1795 C1794 1.400 . S
C1795 C1796 1.398 . S
C1795 C1801 1.491 . S
C1796 H1787 0.950 . S
C1796 C1795 1.398 . S
C1796 C1797 1.391 . S
C1797 H1785 0.950 . S
C1797 C1793 1.393 . S
C1797 C1796 1.391 . S
C1798 H1788 0.950 . S
C1798 C1799 1.386 . S
C1798 C1800 1.391 . S
C1799 C1798 1.386 . S
C1799 C1803 1.393 . S
C1800 H1789 0.950 . S
C1800 C1798 1.391 . S
C1800 C1801 1.400 . S
C1801 C1795 1.491 . S
C1801 C1800 1.400 . S
C1801 C1802 1.398 . S
C1802 H1790 0.950 . S
C1802 C1801 1.398 . S
C1802 C1803 1.391 . S
C1803 H1791 0.950 . S
C1803 C1799 1.393 . S
C1803 C1802 1.391 . S
H1804 C1812 0.950 . S
H1805 C1817 0.950 . S
H1806 C1814 0.950 . S
H1807 C1816 0.950 . S
H1808 C1818 0.950 . S
H1809 C1820 0.950 . S
H1810 C1822 0.950 . S
H1811 C1823 0.950 1_655 S
C1812 H1804 0.950 . S
C1812 C1813 1.386 . S
C1812 C1814 1.391 . S
C1813 C1812 1.386 . S
C1813 C1817 1.393 . S
C1814 H1806 0.950 . S
C1814 C1812 1.391 . S
C1814 C1815 1.400 . S
C1815 C1814 1.400 . S
C1815 C1816 1.398 . S
C1815 C1821 1.491 . S
C1816 H1807 0.950 . S
C1816 C1815 1.398 . S
C1816 C1817 1.391 . S
C1817 H1805 0.950 . S
C1817 C1813 1.393 . S
C1817 C1816 1.391 . S
C1818 H1808 0.950 . S
C1818 C1819 1.386 . S
C1818 C1820 1.391 . S
C1819 C1818 1.386 . S
C1819 C1823 1.393 . S
C1820 H1809 0.950 . S
C1820 C1818 1.391 . S
C1820 C1821 1.400 . S
C1821 C1815 1.491 . S
C1821 C1820 1.400 . S
C1821 C1822 1.398 . S
C1822 H1810 0.950 . S
C1822 C1821 1.398 . S
C1822 C1823 1.391 . S
C1823 H1811 0.950 1_455 S
C1823 C1819 1.393 . S
C1823 C1822 1.391 . S
H1824 C1832 0.950 . S
H1825 C1837 0.950 . S
H1826 C1834 0.950 . S
H1827 C1836 0.950 . S
H1828 C1838 0.950 . S
H1829 C1840 0.950 . S
H1830 C1842 0.950 . S
H1831 C1843 0.950 . S
C1832 H1824 0.950 . S
C1832 C1833 1.386 . S
C1832 C1834 1.391 . S
C1833 C1832 1.386 . S
C1833 C1837 1.393 . S
C1834 H1826 0.950 . S
C1834 C1832 1.391 . S
C1834 C1835 1.400 . S
C1835 C1834 1.400 . S
C1835 C1836 1.398 . S
C1835 C1841 1.491 . S
C1836 H1827 0.950 . S
C1836 C1835 1.398 . S
C1836 C1837 1.391 . S
C1837 H1825 0.950 . S
C1837 C1833 1.393 . S
C1837 C1836 1.391 . S
C1838 H1828 0.950 . S
C1838 C1839 1.386 . S
C1838 C1840 1.391 . S
C1839 C1838 1.386 . S
C1839 C1843 1.393 . S
C1840 H1829 0.950 . S
C1840 C1838 1.391 . S
C1840 C1841 1.400 . S
C1841 C1835 1.491 . S
C1841 C1840 1.400 . S
C1841 C1842 1.398 . S
C1842 H1830 0.950 . S
C1842 C1841 1.398 . S
C1842 C1843 1.391 . S
C1843 H1831 0.950 . S
C1843 C1839 1.393 . S
C1843 C1842 1.391 . S
H1844 C1852 0.950 . S
H1845 C1857 0.950 . S
H1846 C1854 0.950 . S
H1847 C1856 0.950 . S
H1848 C1858 0.950 . S
H1849 C1860 0.950 . S
H1850 C1862 0.950 . S
H1851 C1863 0.950 . S
C1852 H1844 0.950 . S
C1852 C1853 1.386 . S
C1852 C1854 1.391 . S
C1853 C1852 1.386 . S
C1853 C1857 1.393 . S
C1854 H1846 0.950 . S
C1854 C1852 1.391 . S
C1854 C1855 1.400 . S
C1855 C1854 1.400 . S
C1855 C1856 1.398 . S
C1855 C1861 1.491 . S
C1856 H1847 0.950 . S
C1856 C1855 1.398 . S
C1856 C1857 1.391 . S
C1857 H1845 0.950 . S
C1857 C1853 1.393 . S
C1857 C1856 1.391 . S
C1858 H1848 0.950 . S
C1858 C1859 1.386 . S
C1858 C1860 1.391 . S
C1859 C1858 1.386 . S
C1859 C1863 1.393 . S
C1860 H1849 0.950 . S
C1860 C1858 1.391 . S
C1860 C1861 1.400 . S
C1861 C1855 1.491 . S
C1861 C1860 1.400 . S
C1861 C1862 1.398 . S
C1862 H1850 0.950 . S
C1862 C1861 1.398 . S
C1862 C1863 1.391 . S
C1863 H1851 0.950 . S
C1863 C1859 1.393 . S
C1863 C1862 1.391 . S
H1864 C1872 0.950 . S
H1865 C1877 0.950 . S
H1866 C1874 0.950 . S
H1867 C1876 0.950 . S
H1868 C1878 0.950 . S
H1869 C1880 0.950 . S
H1870 C1882 0.950 . S
H1871 C1883 0.950 . S
C1872 H1864 0.950 . S
C1872 C1873 1.386 . S
C1872 C1874 1.391 . S
C1873 C1872 1.386 . S
C1873 C1877 1.393 . S
C1874 H1866 0.950 . S
C1874 C1872 1.391 . S
C1874 C1875 1.400 . S
C1875 C1874 1.400 . S
C1875 C1876 1.398 . S
C1875 C1881 1.491 . S
C1876 H1867 0.950 . S
C1876 C1875 1.398 . S
C1876 C1877 1.391 . S
C1877 H1865 0.950 . S
C1877 C1873 1.393 . S
C1877 C1876 1.391 . S
C1878 H1868 0.950 . S
C1878 C1879 1.386 . S
C1878 C1880 1.391 . S
C1879 C1878 1.386 . S
C1879 C1883 1.393 . S
C1880 H1869 0.950 . S
C1880 C1878 1.391 . S
C1880 C1881 1.400 . S
C1881 C1875 1.491 . S
C1881 C1880 1.400 . S
C1881 C1882 1.398 . S
C1882 H1870 0.950 . S
C1882 C1881 1.398 . S
C1882 C1883 1.391 . S
C1883 H1871 0.950 . S
C1883 C1879 1.393 . S
C1883 C1882 1.391 . S
H1884 C1892 0.950 . S
H1885 C1897 0.950 . S
H1886 C1894 0.950 . S
H1887 C1896 0.950 . S
H1888 C1898 0.950 . S
H1889 C1900 0.950 . S
H1890 C1902 0.950 . S
H1891 C1903 0.950 . S
C1892 H1884 0.950 . S
C1892 C1893 1.386 . S
C1892 C1894 1.391 . S
C1893 C1892 1.386 . S
C1893 C1897 1.393 . S
C1894 H1886 0.950 . S
C1894 C1892 1.391 . S
C1894 C1895 1.400 . S
C1895 C1894 1.400 . S
C1895 C1896 1.398 . S
C1895 C1901 1.491 . S
C1896 H1887 0.950 . S
C1896 C1895 1.398 . S
C1896 C1897 1.391 . S
C1897 H1885 0.950 . S
C1897 C1893 1.393 . S
C1897 C1896 1.391 . S
C1898 H1888 0.950 . S
C1898 C1899 1.386 . S
C1898 C1900 1.391 . S
C1899 C1898 1.386 . S
C1899 C1903 1.393 . S
C1900 H1889 0.950 . S
C1900 C1898 1.391 . S
C1900 C1901 1.400 . S
C1901 C1895 1.491 . S
C1901 C1900 1.400 . S
C1901 C1902 1.398 . S
C1902 H1890 0.950 . S
C1902 C1901 1.398 . S
C1902 C1903 1.391 . S
C1903 H1891 0.950 . S
C1903 C1899 1.393 . S
C1903 C1902 1.391 . S
H1904 C1912 0.950 . S
H1905 C1917 0.950 . S
H1906 C1914 0.950 . S
H1907 C1916 0.950 . S
H1908 C1918 0.950 . S
H1909 C1920 0.950 . S
H1910 C1922 0.950 . S
H1911 C1923 0.950 . S
C1912 H1904 0.950 . S
C1912 C1913 1.386 . S
C1912 C1914 1.391 . S
C1913 C1912 1.386 . S
C1913 C1917 1.393 . S
C1914 H1906 0.950 . S
C1914 C1912 1.391 . S
C1914 C1915 1.400 . S
C1915 C1914 1.400 . S
C1915 C1916 1.398 . S
C1915 C1921 1.491 . S
C1916 H1907 0.950 . S
C1916 C1915 1.398 . S
C1916 C1917 1.391 . S
C1917 H1905 0.950 . S
C1917 C1913 1.393 . S
C1917 C1916 1.391 . S
C1918 H1908 0.950 . S
C1918 C1919 1.386 . S
C1918 C1920 1.391 . S
C1919 C1918 1.386 . S
C1919 C1923 1.393 . S
C1920 H1909 0.950 . S
C1920 C1918 1.391 . S
C1920 C1921 1.400 . S
C1921 C1915 1.491 . S
C1921 C1920 1.400 . S
C1921 C1922 1.398 . S
C1922 H1910 0.950 . S
C1922 C1921 1.398 . S
C1922 C1923 1.391 . S
C1923 H1911 0.950 . S
C1923 C1919 1.393 . S
C1923 C1922 1.391 . S
H1924 C1932 0.950 . S
H1925 C1937 0.950 . S
H1926 C1934 0.950 . S
H1927 C1936 0.950 . S
H1928 C1938 0.950 . S
H1929 C1940 0.950 . S
H1930 C1942 0.950 . S
H1931 C1943 0.950 . S
C1932 H1924 0.950 . S
C1932 C1933 1.386 . S
C1932 C1934 1.391 . S
C1933 C1932 1.386 . S
C1933 C1937 1.393 . S
C1934 H1926 0.950 . S
C1934 C1932 1.391 . S
C1934 C1935 1.400 . S
C1935 C1934 1.400 . S
C1935 C1936 1.398 . S
C1935 C1941 1.491 . S
C1936 H1927 0.950 . S
C1936 C1935 1.398 . S
C1936 C1937 1.391 . S
C1937 H1925 0.950 . S
C1937 C1933 1.393 . S
C1937 C1936 1.391 . S
C1938 H1928 0.950 . S
C1938 C1939 1.386 . S
C1938 C1940 1.391 . S
C1939 C1938 1.386 . S
C1939 C1943 1.393 . S
C1940 H1929 0.950 . S
C1940 C1938 1.391 . S
C1940 C1941 1.400 . S
C1941 C1935 1.491 . S
C1941 C1940 1.400 . S
C1941 C1942 1.398 . S
C1942 H1930 0.950 . S
C1942 C1941 1.398 . S
C1942 C1943 1.391 . S
C1943 H1931 0.950 . S
C1943 C1939 1.393 . S
C1943 C1942 1.391 . S
H1944 C1952 0.950 . S
H1945 C1957 0.950 . S
H1946 C1954 0.950 . S
H1947 C1956 0.950 . S
H1948 C1958 0.950 . S
H1949 C1960 0.950 . S
H1950 C1962 0.950 . S
H1951 C1963 0.950 . S
C1952 H1944 0.950 . S
C1952 C1953 1.386 . S
C1952 C1954 1.391 . S
C1953 C1952 1.386 . S
C1953 C1957 1.393 . S
C1954 H1946 0.950 . S
C1954 C1952 1.391 . S
C1954 C1955 1.400 . S
C1955 C1954 1.400 . S
C1955 C1956 1.398 . S
C1955 C1961 1.491 . S
C1956 H1947 0.950 . S
C1956 C1955 1.398 . S
C1956 C1957 1.391 . S
C1957 H1945 0.950 . S
C1957 C1953 1.393 . S
C1957 C1956 1.391 . S
C1958 H1948 0.950 . S
C1958 C1959 1.386 . S
C1958 C1960 1.391 . S
C1959 C1958 1.386 . S
C1959 C1963 1.393 . S
C1960 H1949 0.950 . S
C1960 C1958 1.391 . S
C1960 C1961 1.400 . S
C1961 C1955 1.491 . S
C1961 C1960 1.400 . S
C1961 C1962 1.398 . S
C1962 H1950 0.950 . S
C1962 C1961 1.398 . S
C1962 C1963 1.391 . S
C1963 H1951 0.950 . S
C1963 C1959 1.393 . S
C1963 C1962 1.391 . S
H1964 C1972 0.950 . S
H1965 C1977 0.950 . S
H1966 C1974 0.950 . S
H1967 C1976 0.950 . S
H1968 C1978 0.950 . S
H1969 C1980 0.950 . S
H1970 C1982 0.950 . S
H1971 C1983 0.950 . S
C1972 H1964 0.950 . S
C1972 C1973 1.386 . S
C1972 C1974 1.391 . S
C1973 C1972 1.386 . S
C1973 C1977 1.393 . S
C1974 H1966 0.950 . S
C1974 C1972 1.391 . S
C1974 C1975 1.400 . S
C1975 C1974 1.400 . S
C1975 C1976 1.398 . S
C1975 C1981 1.491 . S
C1976 H1967 0.950 . S
C1976 C1975 1.398 . S
C1976 C1977 1.391 . S
C1977 H1965 0.950 . S
C1977 C1973 1.393 . S
C1977 C1976 1.391 . S
C1978 H1968 0.950 . S
C1978 C1979 1.386 . S
C1978 C1980 1.391 . S
C1979 C1978 1.386 . S
C1979 C1983 1.393 . S
C1980 H1969 0.950 . S
C1980 C1978 1.391 . S
C1980 C1981 1.400 . S
C1981 C1975 1.491 . S
C1981 C1980 1.400 . S
C1981 C1982 1.398 . S
C1982 H1970 0.950 . S
C1982 C1981 1.398 . S
C1982 C1983 1.391 . S
C1983 H1971 0.950 . S
C1983 C1979 1.393 . S
C1983 C1982 1.391 . S
H1984 C1992 0.950 . S
H1985 C1997 0.950 . S
H1986 C1994 0.950 . S
H1987 C1996 0.950 . S
H1988 C1998 0.950 . S
H1989 C2000 0.950 . S
H1990 C2002 0.950 . S
H1991 C2003 0.950 . S
C1992 H1984 0.950 . S
C1992 C1993 1.386 . S
C1992 C1994 1.391 . S
C1993 C1992 1.386 . S
C1993 C1997 1.393 . S
C1994 H1986 0.950 . S
C1994 C1992 1.391 . S
C1994 C1995 1.400 . S
C1995 C1994 1.400 . S
C1995 C1996 1.398 . S
C1995 C2001 1.491 . S
C1996 H1987 0.950 . S
C1996 C1995 1.398 . S
C1996 C1997 1.391 . S
C1997 H1985 0.950 . S
C1997 C1993 1.393 . S
C1997 C1996 1.391 . S
C1998 H1988 0.950 . S
C1998 C1999 1.386 . S
C1998 C2000 1.391 . S
C1999 C1998 1.386 . S
C1999 C2003 1.393 . S
C2000 H1989 0.950 . S
C2000 C1998 1.391 . S
C2000 C2001 1.400 . S
C2001 C1995 1.491 . S
C2001 C2000 1.400 . S
C2001 C2002 1.398 . S
C2002 H1990 0.950 . S
C2002 C2001 1.398 . S
C2002 C2003 1.391 . S
C2003 H1991 0.950 . S
C2003 C1999 1.393 . S
C2003 C2002 1.391 . S
H2004 C2012 0.950 . S
H2005 C2017 0.950 . S
H2006 C2014 0.950 . S
H2007 C2016 0.950 . S
H2008 C2018 0.950 . S
H2009 C2020 0.950 . S
H2010 C2022 0.950 . S
H2011 C2023 0.950 . S
C2012 H2004 0.950 . S
C2012 C2013 1.386 . S
C2012 C2014 1.391 . S
C2013 C2012 1.386 . S
C2013 C2017 1.393 . S
C2014 H2006 0.950 . S
C2014 C2012 1.391 . S
C2014 C2015 1.400 . S
C2015 C2014 1.400 . S
C2015 C2016 1.398 . S
C2015 C2021 1.491 . S
C2016 H2007 0.950 . S
C2016 C2015 1.398 . S
C2016 C2017 1.391 . S
C2017 H2005 0.950 . S
C2017 C2013 1.393 . S
C2017 C2016 1.391 . S
C2018 H2008 0.950 . S
C2018 C2019 1.386 . S
C2018 C2020 1.391 . S
C2019 C2018 1.386 . S
C2019 C2023 1.393 . S
C2020 H2009 0.950 . S
C2020 C2018 1.391 . S
C2020 C2021 1.400 . S
C2021 C2015 1.491 . S
C2021 C2020 1.400 . S
C2021 C2022 1.398 . S
C2022 H2010 0.950 . S
C2022 C2021 1.398 . S
C2022 C2023 1.391 . S
C2023 H2011 0.950 . S
C2023 C2019 1.393 . S
C2023 C2022 1.391 . S
H2024 C2032 0.950 . S
H2025 C2037 0.950 . S
H2026 C2034 0.950 . S
H2027 C2036 0.950 . S
H2028 C2038 0.950 . S
H2029 C2040 0.950 . S
H2030 C2042 0.950 . S
H2031 C2043 0.950 . S
C2032 H2024 0.950 . S
C2032 C2033 1.386 . S
C2032 C2034 1.391 . S
C2033 C2032 1.386 . S
C2033 C2037 1.393 . S
C2034 H2026 0.950 . S
C2034 C2032 1.391 . S
C2034 C2035 1.400 . S
C2035 C2034 1.400 . S
C2035 C2036 1.398 . S
C2035 C2041 1.491 . S
C2036 H2027 0.950 . S
C2036 C2035 1.398 . S
C2036 C2037 1.391 . S
C2037 H2025 0.950 . S
C2037 C2033 1.393 . S
C2037 C2036 1.391 . S
C2038 H2028 0.950 . S
C2038 C2039 1.386 . S
C2038 C2040 1.391 . S
C2039 C2038 1.386 . S
C2039 C2043 1.393 . S
C2040 H2029 0.950 . S
C2040 C2038 1.391 . S
C2040 C2041 1.400 . S
C2041 C2035 1.491 . S
C2041 C2040 1.400 . S
C2041 C2042 1.398 . S
C2042 H2030 0.950 . S
C2042 C2041 1.398 . S
C2042 C2043 1.391 . S
C2043 H2031 0.950 . S
C2043 C2039 1.393 . S
C2043 C2042 1.391 . S
H2044 C2052 0.950 . S
H2045 C2057 0.950 . S
H2046 C2054 0.950 . S
H2047 C2056 0.950 . S
H2048 C2058 0.950 . S
H2049 C2060 0.950 . S
H2050 C2062 0.950 . S
H2051 C2063 0.950 . S
C2052 H2044 0.950 . S
C2052 C2053 1.386 . S
C2052 C2054 1.391 . S
C2053 C2052 1.386 . S
C2053 C2057 1.393 . S
C2054 H2046 0.950 . S
C2054 C2052 1.391 . S
C2054 C2055 1.400 . S
C2055 C2054 1.400 . S
C2055 C2056 1.398 . S
C2055 C2061 1.491 . S
C2056 H2047 0.950 . S
C2056 C2055 1.398 . S
C2056 C2057 1.391 . S
C2057 H2045 0.950 . S
C2057 C2053 1.393 . S
C2057 C2056 1.391 . S
C2058 H2048 0.950 . S
C2058 C2059 1.386 . S
C2058 C2060 1.391 . S
C2059 C2058 1.386 . S
C2059 C2063 1.393 . S
C2060 H2049 0.950 . S
C2060 C2058 1.391 . S
C2060 C2061 1.400 . S
C2061 C2055 1.491 . S
C2061 C2060 1.400 . S
C2061 C2062 1.398 . S
C2062 H2050 0.950 . S
C2062 C2061 1.398 . S
C2062 C2063 1.391 . S
C2063 H2051 0.950 . S
C2063 C2059 1.393 . S
C2063 C2062 1.391 . S
H2064 C2072 0.950 . S
H2065 C2077 0.950 . S
H2066 C2074 0.950 . S
H2067 C2076 0.950 . S
H2068 C2078 0.950 1_556 S
H2069 C2080 0.950 1_556 S
H2070 C2082 0.950 . S
H2071 C2083 0.950 . S
C2072 H2064 0.950 . S
C2072 C2073 1.386 1_554 S
C2072 C2074 1.391 . S
C2073 C2072 1.386 1_556 S
C2073 C2077 1.393 . S
C2074 H2066 0.950 . S
C2074 C2072 1.391 . S
C2074 C2075 1.400 . S
C2075 C2074 1.400 . S
C2075 C2076 1.398 1_554 S
C2075 C2081 1.491 . S
C2076 H2067 0.950 . S
C2076 C2075 1.398 1_556 S
C2076 C2077 1.391 . S
C2077 H2065 0.950 . S
C2077 C2073 1.393 . S
C2077 C2076 1.391 . S
C2078 H2068 0.950 1_554 S
C2078 C2079 1.386 . S
C2078 C2080 1.391 . S
C2079 C2078 1.386 . S
C2079 C2083 1.393 . S
C2080 H2069 0.950 1_554 S
C2080 C2078 1.391 . S
C2080 C2081 1.400 . S
C2081 C2075 1.491 . S
C2081 C2080 1.400 . S
C2081 C2082 1.398 . S
C2082 H2070 0.950 . S
C2082 C2081 1.398 . S
C2082 C2083 1.391 . S
C2083 H2071 0.950 . S
C2083 C2079 1.393 . S
C2083 C2082 1.391 . S
H2084 C2092 0.950 . S
H2085 C2097 0.957 . S
H2086 C2094 0.950 . S
H2087 C2096 0.950 1_556 S
H2088 C2098 0.950 . S
H2089 C2100 0.950 . S
H2090 C2102 0.950 . S
H2091 C2103 0.950 . S
C2092 H2084 0.950 . S
C2092 C2093 1.386 . S
C2092 C2094 1.391 . S
C2093 C2092 1.386 . S
C2093 C2097 1.393 . S
C2094 H2086 0.950 . S
C2094 C2092 1.391 . S
C2094 C2095 1.400 . S
C2095 C2094 1.400 . S
C2095 C2096 1.398 . S
C2095 C2101 1.491 . S
C2096 H2087 0.950 1_554 S
C2096 C2095 1.398 . S
C2096 C2097 1.391 . S
C2097 H2085 0.957 . S
C2097 C2093 1.393 . S
C2097 C2096 1.391 . S
C2098 H2088 0.950 . S
C2098 C2099 1.386 . S
C2098 C2100 1.391 . S
C2099 C2098 1.386 . S
C2099 C2103 1.393 1_556 S
C2100 H2089 0.950 . S
C2100 C2098 1.391 . S
C2100 C2101 1.400 1_556 S
C2101 C2095 1.491 . S
C2101 C2100 1.400 1_554 S
C2101 C2102 1.398 . S
C2102 H2090 0.950 . S
C2102 C2101 1.398 . S
C2102 C2103 1.391 . S
C2103 H2091 0.950 . S
C2103 C2099 1.393 1_554 S
C2103 C2102 1.391 . S
H2104 C2112 0.950 . S
H2105 C2117 0.950 . S
H2106 C2114 0.950 . S
H2107 C2116 0.950 . S
H2108 C2118 0.950 . S
H2109 C2120 0.950 . S
H2110 C2122 0.950 . S
H2111 C2123 0.950 . S
C2112 H2104 0.950 . S
C2112 C2113 1.386 . S
C2112 C2114 1.391 . S
C2113 C2112 1.386 . S
C2113 C2117 1.393 1_556 S
C2114 H2106 0.950 . S
C2114 C2112 1.391 . S
C2114 C2115 1.400 1_556 S
C2115 C2114 1.400 1_554 S
C2115 C2116 1.398 . S
C2115 C2121 1.491 . S
C2116 H2107 0.950 . S
C2116 C2115 1.398 . S
C2116 C2117 1.391 . S
C2117 H2105 0.950 . S
C2117 C2113 1.393 1_554 S
C2117 C2116 1.391 . S
C2118 H2108 0.950 . S
C2118 C2119 1.386 . S
C2118 C2120 1.391 . S
C2119 C2118 1.386 . S
C2119 C2123 1.393 . S
C2120 H2109 0.950 . S
C2120 C2118 1.391 . S
C2120 C2121 1.400 . S
C2121 C2115 1.491 . S
C2121 C2120 1.400 . S
C2121 C2122 1.398 . S
C2122 H2110 0.950 . S
C2122 C2121 1.398 . S
C2122 C2123 1.391 . S
C2123 H2111 0.950 . S
C2123 C2119 1.393 . S
C2123 C2122 1.391 . S
H2124 C2132 0.950 . S
H2125 C2137 0.950 . S
H2126 C2134 0.957 . S
H2127 C2136 0.950 . S
H2128 C2138 0.950 . S
H2129 C2140 0.950 . S
H2130 C2142 0.950 . S
H2131 C2143 0.950 . S
C2132 H2124 0.950 . S
C2132 C2133 1.386 . S
C2132 C2134 1.391 . S
C2133 C2132 1.386 . S
C2133 C2137 1.393 . S
C2134 H2126 0.957 . S
C2134 C2132 1.391 . S
C2134 C2135 1.400 . S
C2135 C2134 1.400 . S
C2135 C2136 1.398 . S
C2135 C2141 1.491 . S
C2136 H2127 0.950 . S
C2136 C2135 1.398 . S
C2136 C2137 1.391 . S
C2137 H2125 0.950 . S
C2137 C2133 1.393 . S
C2137 C2136 1.391 . S
C2138 H2128 0.950 . S
C2138 C2139 1.386 1_554 S
C2138 C2140 1.391 . S
C2139 C2138 1.386 1_556 S
C2139 C2143 1.393 . S
C2140 H2129 0.950 . S
C2140 C2138 1.391 . S
C2140 C2141 1.400 . S
C2141 C2135 1.491 . S
C2141 C2140 1.400 . S
C2141 C2142 1.398 1_554 S
C2142 H2130 0.950 . S
C2142 C2141 1.398 1_556 S
C2142 C2143 1.391 . S
C2143 H2131 0.950 . S
C2143 C2139 1.393 . S
C2143 C2142 1.391 . S
H2144 C2152 0.950 . S
H2145 C2157 0.950 . S
H2146 C2154 0.950 . S
H2147 C2156 0.950 . S
H2148 C2158 0.950 . S
H2149 C2160 0.950 . S
H2150 C2162 0.950 . S
H2151 C2163 0.950 . S
C2152 H2144 0.950 . S
C2152 C2153 1.386 . S
C2152 C2154 1.391 . S
C2153 C2152 1.386 . S
C2153 C2157 1.393 . S
C2154 H2146 0.950 . S
C2154 C2152 1.391 . S
C2154 C2155 1.400 . S
C2155 C2154 1.400 . S
C2155 C2156 1.398 . S
C2155 C2161 1.491 . S
C2156 H2147 0.950 . S
C2156 C2155 1.398 . S
C2156 C2157 1.391 . S
C2157 H2145 0.950 . S
C2157 C2153 1.393 . S
C2157 C2156 1.391 . S
C2158 H2148 0.950 . S
C2158 C2159 1.386 . S
C2158 C2160 1.391 . S
C2159 C2158 1.386 . S
C2159 C2163 1.393 . S
C2160 H2149 0.950 . S
C2160 C2158 1.391 . S
C2160 C2161 1.400 . S
C2161 C2155 1.491 . S
C2161 C2160 1.400 . S
C2161 C2162 1.398 . S
C2162 H2150 0.950 . S
C2162 C2161 1.398 . S
C2162 C2163 1.391 . S
C2163 H2151 0.950 . S
C2163 C2159 1.393 . S
C2163 C2162 1.391 . S
H2164 C2172 0.950 . S
H2165 C2177 0.950 . S
H2166 C2174 0.950 . S
H2167 C2176 0.950 . S
H2168 C2178 0.950 . S
H2169 C2180 0.950 . S
H2170 C2182 0.950 . S
H2171 C2183 0.950 . S
C2172 H2164 0.950 . S
C2172 C2173 1.386 . S
C2172 C2174 1.391 . S
C2173 C2172 1.386 . S
C2173 C2177 1.393 . S
C2174 H2166 0.950 . S
C2174 C2172 1.391 . S
C2174 C2175 1.400 . S
C2175 C2174 1.400 . S
C2175 C2176 1.398 . S
C2175 C2181 1.491 . S
C2176 H2167 0.950 . S
C2176 C2175 1.398 . S
C2176 C2177 1.391 . S
C2177 H2165 0.950 . S
C2177 C2173 1.393 . S
C2177 C2176 1.391 . S
C2178 H2168 0.950 . S
C2178 C2179 1.386 . S
C2178 C2180 1.391 . S
C2179 C2178 1.386 . S
C2179 C2183 1.393 . S
C2180 H2169 0.950 . S
C2180 C2178 1.391 . S
C2180 C2181 1.400 . S
C2181 C2175 1.491 . S
C2181 C2180 1.400 . S
C2181 C2182 1.398 . S
C2182 H2170 0.950 . S
C2182 C2181 1.398 . S
C2182 C2183 1.391 . S
C2183 H2171 0.950 . S
C2183 C2179 1.393 . S
C2183 C2182 1.391 . S
H2184 C2192 0.950 . S
H2185 C2197 0.950 . S
H2186 C2194 0.950 . S
H2187 C2196 0.950 . S
H2188 C2198 0.950 . S
H2189 C2200 0.950 . S
H2190 C2202 0.950 . S
H2191 C2203 0.950 . S
C2192 H2184 0.950 . S
C2192 C2193 1.386 . S
C2192 C2194 1.391 . S
C2193 C2192 1.386 . S
C2193 C2197 1.393 . S
C2194 H2186 0.950 . S
C2194 C2192 1.391 . S
C2194 C2195 1.400 . S
C2195 C2194 1.400 . S
C2195 C2196 1.398 . S
C2195 C2201 1.491 . S
C2196 H2187 0.950 . S
C2196 C2195 1.398 . S
C2196 C2197 1.391 . S
C2197 H2185 0.950 . S
C2197 C2193 1.393 . S
C2197 C2196 1.391 . S
C2198 H2188 0.950 . S
C2198 C2199 1.386 . S
C2198 C2200 1.391 . S
C2199 C2198 1.386 . S
C2199 C2203 1.393 . S
C2200 H2189 0.950 . S
C2200 C2198 1.391 . S
C2200 C2201 1.400 . S
C2201 C2195 1.491 . S
C2201 C2200 1.400 . S
C2201 C2202 1.398 . S
C2202 H2190 0.950 . S
C2202 C2201 1.398 . S
C2202 C2203 1.391 . S
C2203 H2191 0.950 . S
C2203 C2199 1.393 . S
C2203 C2202 1.391 . S
H2204 C2212 0.950 . S
H2205 C2217 0.950 . S
H2206 C2214 0.950 . S
H2207 C2216 0.950 . S
H2208 C2218 0.950 . S
H2209 C2220 0.950 . S
H2210 C2222 0.950 . S
H2211 C2223 0.950 . S
C2212 H2204 0.950 . S
C2212 C2213 1.386 . S
C2212 C2214 1.391 . S
C2213 C2212 1.386 . S
C2213 C2217 1.393 . S
C2214 H2206 0.950 . S
C2214 C2212 1.391 . S
C2214 C2215 1.400 . S
C2215 C2214 1.400 . S
C2215 C2216 1.398 . S
C2215 C2221 1.491 . S
C2216 H2207 0.950 . S
C2216 C2215 1.398 . S
C2216 C2217 1.391 . S
C2217 H2205 0.950 . S
C2217 C2213 1.393 . S
C2217 C2216 1.391 . S
C2218 H2208 0.950 . S
C2218 C2219 1.386 . S
C2218 C2220 1.391 . S
C2219 C2218 1.386 . S
C2219 C2223 1.393 . S
C2220 H2209 0.950 . S
C2220 C2218 1.391 . S
C2220 C2221 1.400 . S
C2221 C2215 1.491 . S
C2221 C2220 1.400 . S
C2221 C2222 1.398 . S
C2222 H2210 0.950 . S
C2222 C2221 1.398 . S
C2222 C2223 1.391 . S
C2223 H2211 0.950 . S
C2223 C2219 1.393 . S
C2223 C2222 1.391 . S
H2224 C2232 0.950 . S
H2225 C2237 0.950 . S
H2226 C2234 0.950 . S
H2227 C2236 0.950 . S
H2228 C2238 0.950 . S
H2229 C2240 0.950 . S
H2230 C2242 0.950 . S
H2231 C2243 0.950 . S
C2232 H2224 0.950 . S
C2232 C2233 1.386 . S
C2232 C2234 1.391 . S
C2233 C2232 1.386 . S
C2233 C2237 1.393 . S
C2234 H2226 0.950 . S
C2234 C2232 1.391 . S
C2234 C2235 1.400 . S
C2235 C2234 1.400 . S
C2235 C2236 1.398 . S
C2235 C2241 1.491 . S
C2236 H2227 0.950 . S
C2236 C2235 1.398 . S
C2236 C2237 1.391 . S
C2237 H2225 0.950 . S
C2237 C2233 1.393 . S
C2237 C2236 1.391 . S
C2238 H2228 0.950 . S
C2238 C2239 1.386 . S
C2238 C2240 1.391 1_554 S
C2239 C2238 1.386 . S
C2239 C2243 1.393 . S
C2240 H2229 0.950 . S
C2240 C2238 1.391 1_556 S
C2240 C2241 1.400 . S
C2241 C2235 1.491 . S
C2241 C2240 1.400 . S
C2241 C2242 1.398 . S
C2242 H2230 0.950 . S
C2242 C2241 1.398 . S
C2242 C2243 1.391 1_556 S
C2243 H2231 0.950 . S
C2243 C2239 1.393 . S
C2243 C2242 1.391 1_554 S
H2244 C2252 0.950 . S
H2245 C2257 0.950 . S
H2246 C2254 0.950 . S
H2247 C2256 0.950 . S
H2248 C2258 0.950 . S
H2249 C2260 0.950 . S
H2250 C2262 0.950 . S
H2251 C2263 0.952 . S
C2252 H2244 0.950 . S
C2252 C2253 1.386 . S
C2252 C2254 1.391 . S
C2253 C2252 1.386 . S
C2253 C2257 1.393 . S
C2254 H2246 0.950 . S
C2254 C2252 1.391 . S
C2254 C2255 1.400 . S
C2255 C2254 1.400 . S
C2255 C2256 1.398 . S
C2255 C2261 1.491 . S
C2256 H2247 0.950 . S
C2256 C2255 1.398 . S
C2256 C2257 1.391 . S
C2257 H2245 0.950 . S
C2257 C2253 1.393 . S
C2257 C2256 1.391 . S
C2258 H2248 0.950 . S
C2258 C2259 1.386 . S
C2258 C2260 1.391 1_554 S
C2259 C2258 1.386 . S
C2259 C2263 1.404 . S
C2260 H2249 0.950 . S
C2260 C2258 1.391 1_556 S
C2260 C2261 1.400 . S
C2261 C2255 1.491 . S
C2261 C2260 1.400 . S
C2261 C2262 1.398 . S
C2262 H2250 0.950 . S
C2262 C2261 1.398 . S
C2262 C2263 1.379 1_556 S
C2263 H2251 0.952 . S
C2263 C2259 1.404 . S
C2263 C2262 1.379 1_554 S
H2264 C2272 0.949 1_556 S
H2265 C2277 0.950 . S
H2266 C2274 0.950 . S
H2267 C2276 0.950 . S
H2268 C2278 0.950 . S
H2269 C2280 0.950 . S
H2270 C2282 0.950 . S
H2271 C2283 0.950 . S
C2272 H2264 0.949 1_554 S
C2272 C2273 1.391 . S
C2272 C2274 1.386 1_554 S
C2273 C2272 1.391 . S
C2273 C2277 1.393 . S
C2274 H2266 0.950 . S
C2274 C2272 1.386 1_556 S
C2274 C2275 1.400 . S
C2275 C2274 1.400 . S
C2275 C2276 1.398 1_556 S
C2275 C2281 1.491 . S
C2276 H2267 0.950 . S
C2276 C2275 1.398 1_554 S
C2276 C2277 1.391 . S
C2277 H2265 0.950 . S
C2277 C2273 1.393 . S
C2277 C2276 1.391 . S
C2278 H2268 0.950 . S
C2278 C2279 1.386 . S
C2278 C2280 1.391 . S
C2279 C2278 1.386 . S
C2279 C2283 1.393 . S
C2280 H2269 0.950 . S
C2280 C2278 1.391 . S
C2280 C2281 1.400 . S
C2281 C2275 1.491 . S
C2281 C2280 1.400 . S
C2281 C2282 1.398 . S
C2282 H2270 0.950 . S
C2282 C2281 1.398 . S
C2282 C2283 1.391 . S
C2283 H2271 0.950 . S
C2283 C2279 1.393 . S
C2283 C2282 1.391 . S
H2284 C2292 0.950 . S
H2285 C2297 0.950 . S
H2286 C2294 0.950 . S
H2287 C2296 0.950 . S
H2288 C2298 0.950 . S
H2289 C2300 0.950 . S
H2290 C2302 0.950 . S
H2291 C2303 0.950 . S
C2292 H2284 0.950 . S
C2292 C2293 1.386 . S
C2292 C2294 1.391 . S
C2293 C2292 1.386 . S
C2293 C2297 1.393 1_554 S
C2294 H2286 0.950 . S
C2294 C2292 1.391 . S
C2294 C2295 1.400 1_554 S
C2295 C2294 1.400 1_556 S
C2295 C2296 1.398 . S
C2295 C2301 1.491 . S
C2296 H2287 0.950 . S
C2296 C2295 1.398 . S
C2296 C2297 1.391 . S
C2297 H2285 0.950 . S
C2297 C2293 1.393 1_556 S
C2297 C2296 1.391 . S
C2298 H2288 0.950 . S
C2298 C2299 1.386 . S
C2298 C2300 1.391 . S
C2299 C2298 1.386 . S
C2299 C2303 1.393 . S
C2300 H2289 0.950 . S
C2300 C2298 1.391 . S
C2300 C2301 1.400 . S
C2301 C2295 1.491 . S
C2301 C2300 1.400 . S
C2301 C2302 1.398 . S
C2302 H2290 0.950 . S
C2302 C2301 1.398 . S
C2302 C2303 1.391 . S
C2303 H2291 0.950 . S
C2303 C2299 1.393 . S
C2303 C2302 1.391 . S
C1353 C63 2.433 . S
C1359 C476 2.580 . S
C1373 C567 2.385 . S
C1379 C147 2.389 . S
C1393 C224 2.580 . S
C1399 C651 2.408 . S
C1413 C315 2.383 . S
C1419 C392 2.515 . S
C1433 C1159 2.578 . S
C1439 C746 2.446 . S
C1453 C1250 2.397 . S
C1459 C830 2.398 . S
C1473 C907 2.571 . S
C1479 C1334 2.428 . S
C1493 C998 2.359 . S
C1499 C1075 2.525 . S
C1513 C58 1.615 . S
C1519 C319 1.703 1_545 S
C1533 C142 1.660 . S
C1539 C67 1.753 . S
C1553 C237 1.556 . S
C1559 C151 1.668 . S
C1573 C310 1.569 . S
C1579 C242 1.560 1_455 S
C1593 C405 1.497 . S
C1599 C494 1.532 1_565 S
C1613 C571 1.724 . S
C1619 C489 1.623 . S
C1633 C562 1.668 . S
C1639 C655 1.742 . S
C1653 C410 1.574 1_655 S
C1659 C646 1.633 . S
C1673 C980 1.686 1_565 S
C1679 C741 1.639 . S
C1693 C825 1.655 . S
C1699 C728 1.754 . S
C1713 C898 1.566 . S
C1719 C812 1.661 . S
C1733 C993 1.600 . S
C1739 C903 1.563 1_655 S
C1753 C1066 1.527 . S
C1759 C1155 1.505 1_545 S
C1773 C1150 1.608 . S
C1779 C1232 1.727 . S
C1793 C1245 1.650 . S
C1799 C1316 1.734 . S
C1813 C1329 1.636 . S
C1819 C1071 1.575 1_455 S
C1833 C69 1.302 . S
C1839 C226 0.936 . S
C1853 C153 1.262 . S
C1859 C321 1.306 . S
C1873 C573 1.266 . S
C1879 C394 0.970 . S
C1893 C657 1.253 . S
C1899 C478 0.941 . S
C1913 C909 0.952 . S
C1919 C730 1.281 . S
C1933 C982 1.284 . S
C1939 C814 1.311 . S
C1953 C1077 0.970 . S
C1959 C1234 1.266 . S
C1973 C1161 0.924 . S
C1979 C1318 1.272 . S
C1993 C56 2.291 . S
C1999 C987 2.275 . S
C2013 C735 2.301 . S
C2019 C140 2.316 . S
C2033 C231 2.360 . S
C2039 C819 2.310 . S
C2053 C896 2.259 . S
C2059 C308 2.305 . S
C2073 C1148 2.294 . S
C2079 C399 2.357 . S
C2093 C483 2.359 . S
C2099 C1239 2.299 . S
C2113 C1323 2.280 . S
C2119 C560 2.310 . S
C2133 C644 2.278 . S
C2139 C1064 2.235 . S
C2153 C739 2.295 . S
C2159 C326 2.271 . S
C2173 C823 2.314 . S
C2179 C74 2.293 . S
C2193 C158 2.298 . S
C2199 C914 2.358 . S
C2213 C991 2.296 . S
C2219 C235 2.264 . S
C2233 C1082 2.357 . S
C2239 C487 2.297 . S
C2253 C1166 2.359 . S
C2259 C578 2.310 . S
C2273 C662 2.277 . S
C2279 C1243 2.307 . S
C2293 C403 2.251 . S
C2299 C1327 2.272 . S
