# Generated by pormake.
# Topology wln, (5)-cn, num edge types: 1
# Building blocks:
#     Node 0, Type 0, BuildingBlock: XOMCOT_clean_sbu_1, # of connection points: 5
#     Node 1, Type 0, BuildingBlock: XOMCOT_clean_sbu_1, # of connection points: 5
#     Node 2, Type 0, BuildingBlock: XOMCOT_clean_sbu_1, # of connection points: 5
#     Node 3, Type 0, BuildingBlock: XOMCOT_clean_sbu_1, # of connection points: 5
#     Node 4, Type 0, BuildingBlock: XOMCOT_clean_sbu_1, # of connection points: 5
#     Node 5, Type 0, BuildingBlock: XOMCOT_clean_sbu_1, # of connection points: 5
#     Node 6, Type 0, BuildingBlock: XOMCOT_clean_sbu_1, # of connection points: 5
#     Node 7, Type 0, BuildingBlock: XOMCOT_clean_sbu_1, # of connection points: 5
#     Node 8, Type 0, BuildingBlock: XOMCOT_clean_sbu_1, # of connection points: 5
#     Node 9, Type 0, BuildingBlock: XOMCOT_clean_sbu_1, # of connection points: 5
#     Node 10, Type 0, BuildingBlock: XOMCOT_clean_sbu_1, # of connection points: 5
#     Node 11, Type 0, BuildingBlock: XOMCOT_clean_sbu_1, # of connection points: 5
#     Node 12, Type 0, BuildingBlock: XOMCOT_clean_sbu_1, # of connection points: 5
#     Node 13, Type 0, BuildingBlock: XOMCOT_clean_sbu_1, # of connection points: 5
#     Node 14, Type 0, BuildingBlock: XOMCOT_clean_sbu_1, # of connection points: 5
#     Node 15, Type 0, BuildingBlock: XOMCOT_clean_sbu_1, # of connection points: 5
#     Node 16, Type 0, BuildingBlock: XOMCOT_clean_sbu_1, # of connection points: 5
#     Node 17, Type 0, BuildingBlock: XOMCOT_clean_sbu_1, # of connection points: 5
#     Node 18, Type 0, BuildingBlock: XOMCOT_clean_sbu_1, # of connection points: 5
#     Node 19, Type 0, BuildingBlock: XOMCOT_clean_sbu_1, # of connection points: 5
#     Node 20, Type 0, BuildingBlock: XOMCOT_clean_sbu_1, # of connection points: 5
#     Node 21, Type 0, BuildingBlock: XOMCOT_clean_sbu_1, # of connection points: 5
#     Node 22, Type 0, BuildingBlock: XOMCOT_clean_sbu_1, # of connection points: 5
#     Node 23, Type 0, BuildingBlock: XOMCOT_clean_sbu_1, # of connection points: 5
#     Node 24, Type 0, BuildingBlock: XOMCOT_clean_sbu_1, # of connection points: 5
#     Node 25, Type 0, BuildingBlock: XOMCOT_clean_sbu_1, # of connection points: 5
#     Node 26, Type 0, BuildingBlock: XOMCOT_clean_sbu_1, # of connection points: 5
#     Node 27, Type 0, BuildingBlock: XOMCOT_clean_sbu_1, # of connection points: 5
#     Node 28, Type 0, BuildingBlock: XOMCOT_clean_sbu_1, # of connection points: 5
#     Node 29, Type 0, BuildingBlock: XOMCOT_clean_sbu_1, # of connection points: 5
#     Node 30, Type 0, BuildingBlock: XOMCOT_clean_sbu_1, # of connection points: 5
#     Node 31, Type 0, BuildingBlock: XOMCOT_clean_sbu_1, # of connection points: 5
#     Node 32, Type 0, BuildingBlock: XOMCOT_clean_sbu_1, # of connection points: 5
#     Node 33, Type 0, BuildingBlock: XOMCOT_clean_sbu_1, # of connection points: 5
#     Node 34, Type 0, BuildingBlock: XOMCOT_clean_sbu_1, # of connection points: 5
#     Node 35, Type 0, BuildingBlock: XOMCOT_clean_sbu_1, # of connection points: 5
#     Edge 36, Type (0, 0), None
#     Edge 37, Type (0, 0), None
#     Edge 38, Type (0, 0), None
#     Edge 39, Type (0, 0), None
#     Edge 40, Type (0, 0), None
#     Edge 41, Type (0, 0), None
#     Edge 42, Type (0, 0), None
#     Edge 43, Type (0, 0), None
#     Edge 44, Type (0, 0), None
#     Edge 45, Type (0, 0), None
#     Edge 46, Type (0, 0), None
#     Edge 47, Type (0, 0), None
#     Edge 48, Type (0, 0), None
#     Edge 49, Type (0, 0), None
#     Edge 50, Type (0, 0), None
#     Edge 51, Type (0, 0), None
#     Edge 52, Type (0, 0), None
#     Edge 53, Type (0, 0), None
#     Edge 54, Type (0, 0), None
#     Edge 55, Type (0, 0), None
#     Edge 56, Type (0, 0), None
#     Edge 57, Type (0, 0), None
#     Edge 58, Type (0, 0), None
#     Edge 59, Type (0, 0), None
#     Edge 60, Type (0, 0), None
#     Edge 61, Type (0, 0), None
#     Edge 62, Type (0, 0), None
#     Edge 63, Type (0, 0), None
#     Edge 64, Type (0, 0), None
#     Edge 65, Type (0, 0), None
#     Edge 66, Type (0, 0), None
#     Edge 67, Type (0, 0), None
#     Edge 68, Type (0, 0), None
#     Edge 69, Type (0, 0), None
#     Edge 70, Type (0, 0), None
#     Edge 71, Type (0, 0), None
#     Edge 72, Type (0, 0), None
#     Edge 73, Type (0, 0), None
#     Edge 74, Type (0, 0), None
#     Edge 75, Type (0, 0), None
#     Edge 76, Type (0, 0), None
#     Edge 77, Type (0, 0), None
#     Edge 78, Type (0, 0), None
#     Edge 79, Type (0, 0), None
#     Edge 80, Type (0, 0), None
#     Edge 81, Type (0, 0), None
#     Edge 82, Type (0, 0), None
#     Edge 83, Type (0, 0), None
#     Edge 84, Type (0, 0), None
#     Edge 85, Type (0, 0), None
#     Edge 86, Type (0, 0), None
#     Edge 87, Type (0, 0), None
#     Edge 88, Type (0, 0), None
#     Edge 89, Type (0, 0), None
#     Edge 90, Type (0, 0), None
#     Edge 91, Type (0, 0), None
#     Edge 92, Type (0, 0), None
#     Edge 93, Type (0, 0), None
#     Edge 94, Type (0, 0), None
#     Edge 95, Type (0, 0), None
#     Edge 96, Type (0, 0), None
#     Edge 97, Type (0, 0), None
#     Edge 98, Type (0, 0), None
#     Edge 99, Type (0, 0), None
#     Edge 100, Type (0, 0), None
#     Edge 101, Type (0, 0), None
#     Edge 102, Type (0, 0), None
#     Edge 103, Type (0, 0), None
#     Edge 104, Type (0, 0), None
#     Edge 105, Type (0, 0), None
#     Edge 106, Type (0, 0), None
#     Edge 107, Type (0, 0), None
#     Edge 108, Type (0, 0), None
#     Edge 109, Type (0, 0), None
#     Edge 110, Type (0, 0), None
#     Edge 111, Type (0, 0), None
#     Edge 112, Type (0, 0), None
#     Edge 113, Type (0, 0), None
#     Edge 114, Type (0, 0), None
#     Edge 115, Type (0, 0), None
#     Edge 116, Type (0, 0), None
#     Edge 117, Type (0, 0), None
#     Edge 118, Type (0, 0), None
#     Edge 119, Type (0, 0), None
#     Edge 120, Type (0, 0), None
#     Edge 121, Type (0, 0), None
#     Edge 122, Type (0, 0), None
#     Edge 123, Type (0, 0), None
#     Edge 124, Type (0, 0), None
#     Edge 125, Type (0, 0), None
# Relax obj value: 0.184
# Max RMSD: 0.196
# Mean RMSD: 0.192
data_MOF--net-wln--node1-XOMCOT_clean_sbu_1--edge1-none
_symmetry_space_group_name_H-M    P1
_symmetry_Int_Tables_number       1
_symmetry_cell_setting            triclinic
loop_
_symmetry_equiv_pos_as_xyz
'x, y, z'
_cell_length_a     62.910021
_cell_length_b     62.979548
_cell_length_c     9.1459941
_cell_angle_alpha  90.160215
_cell_angle_beta   90.120097
_cell_angle_gamma 120.00915
loop_
_atom_site_label
_atom_site_type_symbol
_atom_site_fract_x
_atom_site_fract_y
_atom_site_fract_z
_atom_type_partial_charge
C0 C 0.13152 0.41827 0.69922 0.0
C1 C 0.13025 0.41609 0.54906 0.0
N2 N 0.10783 0.39746 0.51311 0.0
N3 N 0.11012 0.40083 0.75631 0.0
C4 C 0.09572 0.38919 0.63947 0.0
H5 H 0.14787 0.42977 0.76274 0.0
Co6 Co 0.10584 0.38882 0.94586 0.0
C7 C 0.08021 0.33509 0.85851 0.0
O8 O 0.09334 0.33079 0.95286 0.0
N9 N 0.10133 0.37765 0.13873 0.0
C10 C 0.08164 0.36266 0.3489 0.0
C11 C 0.08166 0.35842 0.20048 0.0
C12 C 0.11257 0.39342 0.25117 0.0
N13 N 0.1012 0.38474 0.37856 0.0
O14 O 0.08077 0.39703 0.98572 0.0
H15 H 0.06678 0.34385 0.13997 0.0
H16 H 0.12679 0.41227 0.23865 0.0
O17 O 0.08176 0.35608 0.86148 0.0
C18 C 0.0924 0.41822 0.0458 0.0
O19 O 0.11622 0.43139 0.02564 0.0
N20 N 0.13282 0.38338 0.91953 0.0
C21 C 0.17621 0.38073 0.92057 0.0
C22 C 0.15833 0.36913 0.80967 0.0
C23 C 0.13683 0.37087 0.81072 0.0
C24 C 0.15114 0.39666 1.01652 0.0
C25 C 0.1718 0.39437 0.02551 0.0
H26 H 0.12393 0.36292 0.72188 0.0
H27 H 0.15034 0.40989 0.08608 0.0
H28 H 0.07746 0.3735 0.64603 0.0
H29 H 0.1454 0.42571 0.47426 0.0
H30 H 0.06752 0.35142 0.42597 0.0
H31 H 0.16092 0.35925 0.72119 0.0
H32 H 0.1841 0.40372 0.11561 0.0
C33 C 0.56858 0.71084 0.78905 0.0
C34 C 0.57079 0.71196 0.63894 0.0
N35 N 0.58874 0.70719 0.60295 0.0
N36 N 0.58534 0.70579 0.84622 0.0
C37 C 0.59651 0.70254 0.72916 0.0
H38 H 0.55772 0.71642 0.85276 0.0
Co39 Co 0.59757 0.71341 0.03685 0.0
C40 C 0.65075 0.73511 0.93855 0.0
O41 O 0.65876 0.75626 1.00534 0.0
N42 N 0.60884 0.71999 0.22973 0.0
C43 C 0.62326 0.71467 0.4408 0.0
C44 C 0.62766 0.71882 0.29273 0.0
C45 C 0.59323 0.71625 0.34114 0.0
N46 N 0.60152 0.71302 0.46914 0.0
O47 O 0.58608 0.67983 0.08095 0.0
H48 H 0.64206 0.71804 0.23359 0.0
H49 H 0.57478 0.71294 0.32696 0.0
O50 O 0.62889 0.71762 0.96082 0.0
C51 C 0.56489 0.67149 0.13787 0.0
O52 O 0.55294 0.68336 0.11606 0.0
N53 N 0.60661 0.74656 1.00325 0.0
C54 C 0.60862 0.79144 0.96093 0.0
C55 C 0.61999 0.7833 0.86147 0.0
C56 C 0.61863 0.76058 0.88416 0.0
C57 C 0.59493 0.75423 0.09634 0.0
C58 C 0.5965 0.77677 0.08094 0.0
H59 H 0.62595 0.75374 0.80164 0.0
H60 H 0.58275 0.74231 0.17814 0.0
H61 H 0.61162 0.69908 0.73552 0.0
H62 H 0.56178 0.7183 0.5645 0.0
H63 H 0.63423 0.71142 0.51853 0.0
H64 H 0.62858 0.79366 0.76368 0.0
H65 H 0.58715 0.78211 0.1596 0.0
C66 C 0.27645 0.8554 0.8949 0.0
C67 C 0.2752 0.85639 0.74463 0.0
N68 N 0.27962 0.87896 0.70853 0.0
N69 N 0.28122 0.87712 0.95235 0.0
C70 C 0.28429 0.89143 0.83504 0.0
H71 H 0.27099 0.83901 0.95841 0.0
Co72 Co 0.27293 0.88136 0.14291 0.0
C73 C 0.25114 0.91234 0.04017 0.0
O74 O 0.22979 0.89855 0.10268 0.0
N75 N 0.26587 0.88572 0.33516 0.0
C76 C 0.27154 0.9056 0.54637 0.0
C77 C 0.2671 0.90571 0.39837 0.0
C78 C 0.26978 0.87394 0.44651 0.0
N79 N 0.27334 0.8856 0.57471 0.0
O80 O 0.3068 0.90337 0.19387 0.0
H81 H 0.26777 0.92083 0.33938 0.0
H82 H 0.27269 0.85856 0.43166 0.0
O83 O 0.26906 0.90874 0.06698 0.0
C84 C 0.31527 0.89066 0.25175 0.0
O85 O 0.30344 0.86685 0.22925 0.0
N86 N 0.23945 0.85739 0.10255 0.0
C87 C 0.19483 0.81476 0.04191 0.0
C88 C 0.20484 0.83409 0.94166 0.0
C89 C 0.22717 0.85539 0.97443 0.0
C90 C 0.22967 0.83839 0.19901 0.0
C91 C 0.20725 0.81748 0.17335 0.0
H92 H 0.23519 0.86952 0.89248 0.0
H93 H 0.23975 0.83824 0.29277 0.0
H94 H 0.28739 0.90984 0.84149 0.0
H95 H 0.26891 0.84101 0.6702 0.0
H96 H 0.27488 0.91989 0.62401 0.0
H97 H 0.1963 0.83219 0.83592 0.0
H98 H 0.20034 0.80283 0.25307 0.0
C99 C 0.41401 0.13176 0.38363 0.0
C100 C 0.41132 0.13068 0.53359 0.0
N101 N 0.39314 0.10807 0.56733 0.0
N102 N 0.39706 0.11016 0.32356 0.0
C103 C 0.38569 0.09578 0.4401 0.0
H104 H 0.42621 0.14802 0.32297 0.0
Co105 Co 0.38461 0.10443 0.13036 0.0
C106 C 0.33265 0.061 0.25601 0.0
O107 O 0.32517 0.03884 0.20521 0.0
N108 N 0.37288 0.09889 0.9405 0.0
C109 C 0.36211 0.07766 0.73285 0.0
C110 C 0.35748 0.07682 0.88031 0.0
C111 C 0.3864 0.113 0.82794 0.0
N112 N 0.3805 0.10033 0.70137 0.0
O113 O 0.39585 0.08161 0.09074 0.0
H114 H 0.34624 0.06032 0.94164 0.0
H115 H 0.40219 0.13109 0.84199 0.0
O116 O 0.35302 0.07881 0.2103 0.0
C117 C 0.41576 0.09399 1.01877 0.0
O118 O 0.42708 0.11802 0.02694 0.0
N119 N 0.37604 0.12848 0.15262 0.0
C120 C 0.37091 0.16973 0.13513 0.0
C121 C 0.35067 0.14686 0.16884 0.0
C122 C 0.35351 0.12614 0.17468 0.0
C123 C 0.3958 0.15069 0.12112 0.0
C124 C 0.39378 0.17157 0.1144 0.0
H125 H 0.3375 0.10834 0.18832 0.0
H126 H 0.41316 0.152 0.09507 0.0
H127 H 0.37105 0.07705 0.43281 0.0
H128 H 0.4208 0.14575 0.60971 0.0
H129 H 0.35414 0.06223 0.65828 0.0
H130 H 0.33277 0.14495 0.18143 0.0
H131 H 0.40981 0.1889 0.08655 0.0
C132 C 0.85423 0.28206 0.16655 0.0
C133 C 0.85524 0.28076 0.31675 0.0
N134 N 0.87801 0.28569 0.35377 0.0
N135 N 0.87612 0.28736 0.10991 0.0
C136 C 0.89054 0.29071 0.22783 0.0
H137 H 0.83775 0.27626 0.10235 0.0
Co138 Co 0.88058 0.27916 0.91928 0.0
C139 C 0.91268 0.25829 0.03127 0.0
O140 O 0.89946 0.23632 0.97415 0.0
N141 N 0.88507 0.27215 0.7269 0.0
C142 C 0.90514 0.27826 0.51679 0.0
C143 C 0.90529 0.27382 0.66474 0.0
C144 C 0.87314 0.27583 0.615 0.0
N145 N 0.88487 0.27958 0.48748 0.0
O146 O 0.90257 0.31295 0.86999 0.0
H147 H 0.92057 0.27491 0.72485 0.0
H148 H 0.85774 0.27873 0.629 0.0
O149 O 0.90807 0.27537 0.99831 0.0
C150 C 0.88956 0.32096 0.81043 0.0
O151 O 0.86579 0.3091 0.83406 0.0
N152 N 0.85657 0.24585 0.95658 0.0
C153 C 0.81354 0.2014 1.00895 0.0
C154 C 0.83283 0.21076 0.11079 0.0
C155 C 0.85439 0.23304 0.08204 0.0
C156 C 0.83743 0.23689 0.86018 0.0
C157 C 0.81638 0.21453 0.88113 0.0
H158 H 0.86847 0.2407 0.16531 0.0
H159 H 0.83725 0.24762 0.7707 0.0
H160 H 0.90917 0.29445 0.22211 0.0
H161 H 0.83979 0.27409 0.39037 0.0
H162 H 0.91958 0.28199 0.44014 0.0
H163 H 0.83068 0.20175 0.21466 0.0
H164 H 0.80177 0.20821 0.8006 0.0
C165 C 0.69603 0.56662 0.26837 0.0
C166 C 0.69875 0.56934 0.41842 0.0
N167 N 0.69958 0.59044 0.45424 0.0
N168 N 0.69592 0.58632 0.21019 0.0
C169 C 0.69662 0.59961 0.32847 0.0
H170 H 0.69647 0.55229 0.20578 0.0
Co171 Co 0.70523 0.59865 1.01724 0.0
C172 C 0.71693 0.65223 0.13442 0.0
O173 O 0.70324 0.66028 0.07562 0.0
N174 N 0.71407 0.61021 0.82824 0.0
C175 C 0.70834 0.62471 0.62012 0.0
C176 C 0.71249 0.62889 0.76777 0.0
C177 C 0.71155 0.59525 0.71505 0.0
N178 N 0.70734 0.60335 0.58825 0.0
O179 O 0.67213 0.59025 0.96341 0.0
H180 H 0.71092 0.64272 0.82826 0.0
H181 H 0.70971 0.57735 0.7286 0.0
O182 O 0.71368 0.63125 0.09519 0.0
C183 C 0.66416 0.56963 0.8978 0.0
O184 O 0.67532 0.55711 0.92347 0.0
N185 N 0.73665 0.60421 0.05312 0.0
C186 C 0.78088 0.60436 0.07767 0.0
C187 C 0.78013 0.62616 0.09436 0.0
C188 C 0.75772 0.62576 0.0807 0.0
C189 C 0.73721 0.5831 0.03362 0.0
C190 C 0.75883 0.58256 0.05005 0.0
H191 H 0.75756 0.64275 0.08621 0.0
H192 H 0.72065 0.56648 1.00286 0.0
H193 H 0.69655 0.61659 0.32391 0.0
H194 H 0.70163 0.55768 0.49285 0.0
H195 H 0.70403 0.63532 0.54571 0.0
H196 H 0.7968 0.6434 0.1118 0.0
H197 H 0.75818 0.56514 0.03818 0.0
C198 C 0.85141 0.57023 0.28358 0.0
C199 C 0.85226 0.57284 0.4336 0.0
N200 N 0.87432 0.59201 0.47003 0.0
N201 N 0.87266 0.58798 0.22641 0.0
C202 C 0.88663 0.60019 0.34384 0.0
H203 H 0.83528 0.5582 0.21981 0.0
Co204 Co 0.87638 0.60027 0.03639 0.0
C205 C 0.90229 0.65469 0.11734 0.0
O206 O 0.89076 0.65971 1.01544 0.0
N207 N 0.88034 0.61205 0.84439 0.0
C208 C 0.90193 0.62525 0.63836 0.0
C209 C 0.90172 0.6295 0.78627 0.0
C210 C 0.86793 0.59745 0.7292 0.0
N211 N 0.88065 0.60497 0.60414 0.0
O212 O 0.90239 0.5935 0.99346 0.0
H213 H 0.91759 0.64201 0.84991 0.0
H214 H 0.85182 0.57967 0.73884 0.0
O215 O 0.89933 0.63313 0.122 0.0
C216 C 0.89133 0.57312 0.92376 0.0
O217 O 0.86738 0.5597 0.9363 0.0
N218 N 0.84881 0.60417 0.06574 0.0
C219 C 0.80449 0.6043 0.07724 0.0
C220 C 0.82399 0.61939 0.1713 0.0
C221 C 0.84584 0.61856 0.16608 0.0
C222 C 0.82919 0.58779 0.98528 0.0
C223 C 0.80736 0.58817 0.98451 0.0
H224 H 0.85974 0.62854 0.24653 0.0
H225 H 0.83005 0.57359 0.92497 0.0
H226 H 0.90458 0.61633 0.33723 0.0
H227 H 0.83704 0.56294 0.50746 0.0
H228 H 0.91742 0.63476 0.56601 0.0
H229 H 0.82216 0.63114 0.25089 0.0
H230 H 0.79286 0.57568 0.91169 0.0
C231 C 0.40909 0.27159 0.25432 0.0
C232 C 0.40694 0.27061 0.40456 0.0
N233 N 0.38922 0.27571 0.4407 0.0
N234 N 0.39247 0.27685 0.19705 0.0
C235 C 0.38158 0.28049 0.31429 0.0
H236 H 0.41968 0.26569 0.19071 0.0
Co237 Co 0.37996 0.26901 1.00623 0.0
C238 C 0.32723 0.24821 0.10924 0.0
O239 O 0.31901 0.22671 0.04646 0.0
N240 N 0.36863 0.26245 0.8134 0.0
C241 C 0.35468 0.26843 0.6024 0.0
C242 C 0.35005 0.26402 0.75018 0.0
C243 C 0.38433 0.26621 0.70244 0.0
N244 N 0.37636 0.26988 0.57438 0.0
O245 O 0.39216 0.30272 0.96027 0.0
H246 H 0.33568 0.26489 0.80921 0.0
H247 H 0.40253 0.26886 0.71753 0.0
O248 O 0.34896 0.26565 0.08239 0.0
C249 C 0.41334 0.31095 0.90345 0.0
O250 O 0.42515 0.29893 0.92493 0.0
N251 N 0.36994 0.23549 0.04237 0.0
C252 C 0.36818 0.19114 0.10116 0.0
C253 C 0.35875 0.20105 0.20181 0.0
C254 C 0.35962 0.22325 0.1698 0.0
C255 C 0.37907 0.22567 0.94494 0.0
C256 C 0.37767 0.20335 0.96973 0.0
H257 H 0.3536 0.23133 0.25235 0.0
H258 H 0.38931 0.23569 0.85166 0.0
H259 H 0.36664 0.28419 0.30785 0.0
H260 H 0.41577 0.26407 0.47898 0.0
H261 H 0.34387 0.27192 0.52472 0.0
H262 H 0.35225 0.1926 0.30745 0.0
H263 H 0.38547 0.19644 0.88994 0.0
C264 C 0.70681 0.13765 0.25804 0.0
C265 C 0.70894 0.13697 0.40809 0.0
N266 N 0.70624 0.11503 0.4425 0.0
N267 N 0.70358 0.11653 0.19837 0.0
C268 C 0.70186 0.1027 0.31563 0.0
H269 H 0.70968 0.1535 0.19681 0.0
Co270 Co 0.71153 0.11182 1.00524 0.0
C271 C 0.72131 0.06914 0.1301 0.0
O272 O 0.70696 0.04699 0.07783 0.0
N273 N 0.71897 0.10728 0.81586 0.0
C274 C 0.70877 0.08579 0.60911 0.0
C275 C 0.71296 0.08535 0.75636 0.0
C276 C 0.71889 0.121 0.70251 0.0
N277 N 0.71219 0.1081 0.57648 0.0
O278 O 0.67773 0.08808 0.95798 0.0
H279 H 0.70805 0.06899 0.81824 0.0
H280 H 0.72045 0.13879 0.71593 0.0
O281 O 0.71839 0.08679 0.08543 0.0
C282 C 0.67004 0.10003 0.88239 0.0
O283 O 0.68199 0.12406 0.89288 0.0
N284 N 0.7438 0.13669 0.0347 0.0
C285 C 0.78951 0.17924 0.03615 0.0
C286 C 0.78752 0.15651 0.06573 0.0
C287 C 0.76435 0.13518 0.0621 0.0
C288 C 0.74559 0.15872 1.00685 0.0
C289 C 0.76809 0.18022 1.01018 0.0
H290 H 0.7632 0.11762 0.07303 0.0
H291 H 0.72936 0.15947 0.97671 0.0
H292 H 0.6991 0.08445 0.3092 0.0
H293 H 0.71374 0.15195 0.48367 0.0
H294 H 0.70138 0.0702 0.53582 0.0
H295 H 0.80382 0.15523 0.08229 0.0
H296 H 0.76883 0.19739 0.98546 0.0
C297 C 0.56727 0.85679 0.71677 0.0
C298 C 0.56999 0.85742 0.56675 0.0
N299 N 0.58964 0.87909 0.5325 0.0
N300 N 0.5856 0.87767 0.77643 0.0
C301 C 0.59794 0.89134 0.65936 0.0
H302 H 0.55401 0.84113 0.77802 0.0
Co303 Co 0.59814 0.88221 0.96972 0.0
C304 C 0.65063 0.92482 0.85279 0.0
O305 O 0.65697 0.94651 0.90716 0.0
N306 N 0.60991 0.88651 0.15947 0.0
C307 C 0.62206 0.90767 0.3671 0.0
C308 C 0.62658 0.90809 0.21986 0.0
C309 C 0.59574 0.87303 0.27212 0.0
N310 N 0.60248 0.88574 0.3987 0.0
O311 O 0.5891 0.90664 1.01385 0.0
H312 H 0.63861 0.92431 0.15884 0.0
H313 H 0.57903 0.85563 0.25795 0.0
O314 O 0.63023 0.90625 0.89016 0.0
C315 C 0.56907 0.89504 0.08577 0.0
O316 O 0.55646 0.87103 0.07447 0.0
N317 N 0.60482 0.85687 0.94187 0.0
C318 C 0.60729 0.814 0.93826 0.0
C319 C 0.6283 0.83665 0.91061 0.0
C320 C 0.62677 0.85812 0.91473 0.0
C321 C 0.58435 0.83497 0.96826 0.0
C322 C 0.58499 0.81332 0.96323 0.0
H323 H 0.64334 0.87554 0.90353 0.0
H324 H 0.56745 0.83442 0.99753 0.0
H325 H 0.61382 0.90935 0.66593 0.0
H326 H 0.55944 0.84254 0.49107 0.0
H327 H 0.63088 0.92312 0.44109 0.0
H328 H 0.64584 0.83781 0.89419 0.0
H329 H 0.56829 0.79622 0.98498 0.0
C330 C 0.13361 0.70913 0.76654 0.0
C331 C 0.13276 0.71125 0.61666 0.0
N332 N 0.11026 0.70711 0.5813 0.0
N333 N 0.11197 0.70445 0.82554 0.0
C334 C 0.09777 0.70184 0.70764 0.0
H335 H 0.14983 0.71308 0.82823 0.0
Co336 Co 0.1067 0.7121 1.0188 0.0
C337 C 0.06301 0.7201 0.88793 0.0
O338 O 0.04092 0.70515 0.93802 0.0
N339 N 0.10166 0.71929 0.20827 0.0
C340 C 0.08025 0.70861 0.41454 0.0
C341 C 0.07958 0.7127 0.26722 0.0
C342 C 0.11566 0.71969 0.32197 0.0
N343 N 0.10285 0.71269 0.44762 0.0
O344 O 0.0836 0.67816 0.06433 0.0
H345 H 0.06311 0.70745 0.20473 0.0
H346 H 0.13369 0.7218 0.30894 0.0
O347 O 0.0811 0.71798 0.93455 0.0
C348 C 0.09609 0.67121 0.14116 0.0
O349 O 0.12011 0.6836 0.13015 0.0
N350 N 0.13111 0.74458 0.99259 0.0
C351 C 0.17304 0.79069 1.00813 0.0
C352 C 0.15031 0.78832 0.97081 0.0
C353 C 0.12927 0.7649 0.96557 0.0
C354 C 0.15316 0.74674 0.02681 0.0
C355 C 0.17435 0.76946 0.03237 0.0
H356 H 0.1116 0.76334 0.9483 0.0
H357 H 0.15411 0.73062 0.0558 0.0
H358 H 0.07905 0.69781 0.7135 0.0
H359 H 0.14798 0.71709 0.54199 0.0
H360 H 0.0647 0.70093 0.48754 0.0
H361 H 0.14873 0.80443 0.95494 0.0
H362 H 0.19151 0.77048 0.06229 0.0
C363 C 0.28053 0.41339 0.76949 0.0
C364 C 0.27751 0.41042 0.61968 0.0
N365 N 0.27898 0.39052 0.58224 0.0
N366 N 0.28339 0.39515 0.82604 0.0
C367 C 0.28355 0.38231 0.70731 0.0
H368 H 0.27761 0.4261 0.83415 0.0
Co369 Co 0.27377 0.38254 1.01689 0.0
C370 C 0.25055 0.32838 0.92403 0.0
O371 O 0.23008 0.32048 0.99781 0.0
N372 N 0.26457 0.37046 0.20755 0.0
C373 C 0.27196 0.35684 0.41517 0.0
C374 C 0.26778 0.35266 0.2673 0.0
C375 C 0.26642 0.38499 0.32241 0.0
N376 N 0.27144 0.37738 0.4486 0.0
O377 O 0.30701 0.39221 0.0769 0.0
H378 H 0.27085 0.3398 0.20585 0.0
H379 H 0.26764 0.40261 0.3111 0.0
O380 O 0.26787 0.35057 0.93914 0.0
C381 C 0.31427 0.41258 0.14416 0.0
O382 O 0.30262 0.42463 0.11824 0.0
N383 N 0.24201 0.37632 0.97185 0.0
C384 C 0.19958 0.37966 0.92845 0.0
C385 C 0.20272 0.36168 0.85537 0.0
C386 C 0.22452 0.36088 0.87455 0.0
C387 C 0.24001 0.39482 0.03408 0.0
C388 C 0.21954 0.39717 1.01171 0.0
H389 H 0.22751 0.34857 0.80723 0.0
H390 H 0.25522 0.4089 0.09512 0.0
H391 H 0.28466 0.36583 0.71218 0.0
H392 H 0.27242 0.42069 0.54711 0.0
H393 H 0.27748 0.34701 0.48823 0.0
H394 H 0.18887 0.34864 0.78201 0.0
H395 H 0.2201 0.41321 0.05825 0.0
C396 C 0.79189 0.75151 0.10376 0.0
C397 C 0.79171 0.74852 0.95393 0.0
N398 N 0.76991 0.72912 0.91646 0.0
N399 N 0.77051 0.73376 0.16033 0.0
C400 C 0.75714 0.72126 0.04156 0.0
H401 H 0.80775 0.7639 0.1683 0.0
Co402 Co 0.76693 0.72103 0.35145 0.0
C403 C 0.73439 0.66656 0.25476 0.0
O404 O 0.74575 0.65722 0.32798 0.0
N405 N 0.76351 0.70888 0.54196 0.0
C406 C 0.74228 0.69592 0.74886 0.0
C407 C 0.74215 0.69162 0.60106 0.0
C408 C 0.77651 0.72318 0.65692 0.0
N409 N 0.76379 0.71599 0.78271 0.0
O410 O 0.74347 0.73097 0.40769 0.0
H411 H 0.72605 0.67918 0.53888 0.0
H412 H 0.79335 0.74045 0.64583 0.0
O413 O 0.74082 0.68918 0.27128 0.0
C414 C 0.75646 0.75117 0.4771 0.0
O415 O 0.78027 0.76312 0.45536 0.0
N416 N 0.79234 0.71453 0.31096 0.0
C417 C 0.83743 0.71614 0.28499 0.0
C418 C 0.81654 0.69825 0.20972 0.0
C419 C 0.79419 0.69819 0.22079 0.0
C420 C 0.81288 0.73314 0.373 0.0
C421 C 0.83544 0.73456 0.35963 0.0
H422 H 0.77892 0.68558 0.15411 0.0
H423 H 0.81194 0.74773 0.42886 0.0
H424 H 0.73917 0.70527 0.04646 0.0
H425 H 0.80712 0.7584 0.88131 0.0
H426 H 0.72681 0.68658 0.82148 0.0
H427 H 0.81742 0.6846 0.14274 0.0
H428 H 0.85117 0.75029 0.40776 0.0
C429 C 0.23573 0.03903 0.2326 0.0
C430 C 0.23808 0.04055 0.08244 0.0
N431 N 0.25644 0.03645 0.04568 0.0
N432 N 0.25282 0.03443 0.28949 0.0
C433 C 0.26424 0.03167 0.17165 0.0
H434 H 0.22466 0.0443 0.29671 0.0
Co435 Co 0.26547 0.04304 0.48046 0.0
C436 C 0.3185 0.06453 0.37511 0.0
O437 O 0.32658 0.08631 0.43366 0.0
N438 N 0.27699 0.05049 0.673 0.0
C439 C 0.29141 0.04513 0.884 0.0
C440 C 0.29592 0.04956 0.73612 0.0
C441 C 0.26127 0.0465 0.78441 0.0
N442 N 0.26948 0.04307 0.91242 0.0
O443 O 0.254 0.00939 0.53165 0.0
H444 H 0.31047 0.04905 0.67697 0.0
H445 H 0.24286 0.0433 0.76962 0.0
O446 O 0.29684 0.04706 0.40427 0.0
C447 C 0.23286 0.00108 0.58969 0.0
O448 O 0.22073 0.01269 0.56525 0.0
N449 N 0.27452 0.07621 0.44031 0.0
C450 C 0.27491 0.11986 0.37753 0.0
C451 C 0.285 0.11029 0.27891 0.0
C452 C 0.28483 0.08847 0.31293 0.0
C453 C 0.26446 0.08549 0.53492 0.0
C454 C 0.26516 0.10746 0.50825 0.0
H455 H 0.29143 0.08069 0.23199 0.0
H456 H 0.25414 0.07527 0.6276 0.0
H457 H 0.27965 0.02872 0.17758 0.0
H458 H 0.22892 0.04684 1.00882 0.0
H459 H 0.30249 0.04196 0.96137 0.0
H460 H 0.29156 0.11873 0.17337 0.0
H461 H 0.25688 0.11405 0.58678 0.0
C462 C 0.94411 0.19363 0.03024 0.0
C463 C 0.94197 0.19434 0.88022 0.0
N464 N 0.945 0.21641 0.8458 0.0
N465 N 0.94764 0.21487 0.08999 0.0
C466 C 0.94961 0.22878 0.97268 0.0
H467 H 0.94103 0.17771 0.09134 0.0
Co468 Co 0.93969 0.21971 0.28317 0.0
C469 C 0.93032 0.26258 0.15314 0.0
O470 O 0.94447 0.28501 0.20186 0.0
N471 N 0.93226 0.22435 0.47267 0.0
C472 C 0.94282 0.24587 0.6794 0.0
C473 C 0.93859 0.24637 0.53218 0.0
C474 C 0.93217 0.21055 0.58604 0.0
N475 N 0.93911 0.22346 0.712 0.0
O476 O 0.9736 0.24285 0.33227 0.0
H477 H 0.94367 0.26277 0.47019 0.0
H478 H 0.93035 0.19265 0.57258 0.0
O479 O 0.93366 0.24541 0.20255 0.0
C480 C 0.9802 0.22976 0.40539 0.0
O481 O 0.96757 0.20587 0.38766 0.0
N482 N 0.90733 0.19527 0.2531 0.0
C483 C 0.86154 0.15288 0.25255 0.0
C484 C 0.8636 0.17569 0.22451 0.0
C485 C 0.88685 0.19697 0.22776 0.0
C486 C 0.90543 0.17318 0.28056 0.0
C487 C 0.8829 0.15177 0.27748 0.0
H488 H 0.88813 0.21461 0.21828 0.0
H489 H 0.92159 0.17229 0.31026 0.0
H490 H 0.95277 0.24718 0.979 0.0
H491 H 0.93695 0.17931 0.80467 0.0
H492 H 0.9504 0.26148 0.75267 0.0
H493 H 0.84732 0.17704 0.20922 0.0
H494 H 0.88209 0.13454 0.30132 0.0
C495 C 0.07878 0.46373 0.50235 0.0
C496 C 0.07648 0.46281 0.65251 0.0
N497 N 0.05797 0.44042 0.68842 0.0
N498 N 0.06152 0.44215 0.44473 0.0
C499 C 0.04999 0.42796 0.56192 0.0
H500 H 0.09 0.48004 0.4389 0.0
Co501 Co 0.04902 0.43819 0.25399 0.0
C502 C -0.00386 0.40825 0.35579 0.0
O503 O 0.98902 0.42232 0.29206 0.0
N504 N 0.03755 0.43409 0.06131 0.0
C505 C 0.02316 0.41408 0.85041 0.0
C506 C 0.01868 0.4141 0.99831 0.0
C507 C 0.0532 0.44576 0.94975 0.0
N508 N 0.04499 0.43401 0.82182 0.0
O509 O 0.06002 0.41552 0.2032 0.0
H510 H 0.00427 0.399 0.05755 0.0
H511 H 0.07164 0.46094 0.96429 0.0
O512 O 0.01748 0.41134 0.3297 0.0
C513 C 0.0811 0.4283 0.14459 0.0
O514 O 0.09316 0.45206 0.169 0.0
N515 N 0.04046 0.4628 0.29387 0.0
C516 C 0.03948 0.50603 0.35039 0.0
C517 C 0.02932 0.48664 0.45039 0.0
C518 C 0.02996 0.46507 0.41997 0.0
C519 C 0.05067 0.48192 0.19851 0.0
C520 C 0.04964 0.50311 0.22177 0.0
H521 H 0.02332 0.45092 0.50202 0.0
H522 H 0.06133 0.48192 0.10781 0.0
H523 H 0.03441 0.40969 0.55529 0.0
H524 H 0.08583 0.47818 0.72688 0.0
H525 H 0.01218 0.39969 0.77324 0.0
H526 H 0.02228 0.48865 0.55419 0.0
H527 H 0.05803 0.51775 0.14234 0.0
C528 C 0.51745 0.61119 0.58752 0.0
C529 C 0.51844 0.60985 0.7376 0.0
N530 N 0.54105 0.61427 0.77428 0.0
N531 N 0.53921 0.61603 0.53097 0.0
C532 C 0.5535 0.6189 0.64847 0.0
H533 H 0.50108 0.60592 0.5233 0.0
Co534 Co 0.54364 0.60826 0.34069 0.0
C535 C 0.57469 0.58593 0.43648 0.0
O536 O 0.56162 0.56508 0.36643 0.0
N537 N 0.54814 0.6014 0.14808 0.0
C538 C 0.56832 0.60739 0.93846 0.0
C539 C 0.56851 0.60327 0.08658 0.0
C540 C 0.53606 0.60463 0.03545 0.0
N541 N 0.54785 0.60827 0.90831 0.0
O542 O 0.56634 0.6417 0.2966 0.0
H543 H 0.58397 0.60481 0.14692 0.0
H544 H 0.52075 0.60767 0.0481 0.0
O545 O 0.57029 0.60345 0.41763 0.0
C546 C 0.55394 0.65024 0.23569 0.0
O547 O 0.53005 0.6387 0.25421 0.0
N548 N 0.51902 0.57538 0.37397 0.0
C549 C 0.476 0.53021 0.40628 0.0
C550 C 0.49569 0.53738 0.5042 0.0
C551 C 0.51706 0.56032 0.48718 0.0
C552 C 0.49936 0.56896 0.28493 0.0
C553 C 0.47833 0.54632 0.29471 0.0
H554 H 0.53137 0.56635 0.56886 0.0
H555 H 0.49914 0.58192 0.21061 0.0
H556 H 0.57197 0.62206 0.64258 0.0
H557 H 0.50307 0.60364 0.81145 0.0
H558 H 0.58292 0.61137 0.86228 0.0
H559 H 0.49414 0.52595 0.59631 0.0
H560 H 0.46361 0.54191 0.21739 0.0
C561 C 0.3789 0.90302 0.70528 0.0
C562 C 0.38034 0.90569 0.85535 0.0
N563 N 0.375 0.92326 0.88997 0.0
N564 N 0.37337 0.91934 0.64599 0.0
C565 C 0.36975 0.93032 0.76298 0.0
H566 H 0.3837 0.89135 0.64408 0.0
Co567 Co 0.37974 0.93178 0.45361 0.0
C568 C 0.38802 0.98341 0.58188 0.0
O569 O 0.37272 0.99005 0.53055 0.0
N570 N 0.3856 0.94352 0.26423 0.0
C571 C 0.37506 0.95411 0.05664 0.0
C572 C 0.37877 0.95877 0.20449 0.0
C573 C 0.38633 0.93005 0.15118 0.0
N574 N 0.37956 0.93585 0.02464 0.0
O575 O 0.34565 0.92101 0.41744 0.0
H576 H 0.37343 0.96997 0.26622 0.0
H577 H 0.38877 0.91436 0.16462 0.0
O578 O 0.38621 0.96326 0.53781 0.0
C579 C 0.33757 0.90116 0.34337 0.0
O580 O 0.35008 0.88958 0.34619 0.0
N581 N 0.41248 0.94011 0.47279 0.0
C582 C 0.45903 0.9457 0.44568 0.0
C583 C 0.45627 0.9656 0.48746 0.0
C584 C 0.43266 0.96255 0.49811 0.0
C585 C 0.41501 0.92057 0.43522 0.0
C586 C 0.43803 0.92286 0.42279 0.0
H587 H 0.4308 0.97838 0.51846 0.0
H588 H 0.39893 0.90322 0.4087 0.0
H589 H 0.36501 0.94452 0.75599 0.0
H590 H 0.38652 0.89672 0.931 0.0
H591 H 0.36759 0.96201 0.982 0.0
H592 H 0.47221 0.98348 0.50284 0.0
H593 H 0.4394 0.90705 0.38958 0.0
C594 C 0.52476 0.90981 0.54427 0.0
C595 C 0.52568 0.91215 0.69459 0.0
N596 N 0.54827 0.93028 0.73222 0.0
N597 N 0.54654 0.92672 0.48795 0.0
C598 C 0.56084 0.93792 0.60633 0.0
H599 H 0.50835 0.89896 0.47985 0.0
Co600 Co 0.55061 0.93957 0.29767 0.0
C601 C 0.58193 0.99231 0.41106 0.0
O602 O 0.56815 0.0004 0.3543 0.0
N603 N 0.55476 0.9512 0.10561 0.0
C604 C 0.5752 0.96485 0.89636 0.0
C605 C 0.57518 0.96954 0.04416 0.0
C606 C 0.54281 0.93564 0.99307 0.0
N607 N 0.55483 0.94339 0.86602 0.0
O608 O 0.57261 0.9278 0.24428 0.0
H609 H 0.59053 0.98359 0.10479 0.0
H610 H 0.52717 0.91749 1.00675 0.0
O611 O 0.57812 0.97089 0.37691 0.0
C612 C 0.55941 0.90681 0.1843 0.0
O613 O 0.53567 0.89511 0.20885 0.0
N614 N 0.52658 0.94883 0.33956 0.0
C615 C 0.48327 0.94887 0.40774 0.0
C616 C 0.50295 0.95854 0.50648 0.0
C617 C 0.52461 0.95857 0.46977 0.0
C618 C 0.50731 0.93948 0.24375 0.0
C619 C 0.48597 0.93996 0.27351 0.0
H620 H 0.53896 0.96478 0.55102 0.0
H621 H 0.50724 0.92979 0.1476 0.0
H622 H 0.5793 0.95314 0.60087 0.0
H623 H 0.5102 0.90316 0.76782 0.0
H624 H 0.58988 0.97537 0.82077 0.0
H625 H 0.50106 0.96453 0.61418 0.0
H626 H 0.47105 0.93204 0.19479 0.0
C627 C 0.08489 0.61215 0.61653 0.0
C628 C 0.08192 0.60999 0.76638 0.0
N629 N 0.06355 0.6141 0.80125 0.0
N630 N 0.06793 0.61683 0.55706 0.0
C631 C 0.05634 0.6194 0.67469 0.0
H632 H 0.09718 0.60823 0.55514 0.0
Co633 Co 0.05495 0.6091 0.36354 0.0
C634 C 0.00353 0.60192 0.49094 0.0
O635 O -0.00278 0.61743 0.43938 0.0
N636 N 0.04268 0.60185 0.17382 0.0
C637 C 0.0321 0.61268 0.96716 0.0
C638 C 0.0273 0.60856 0.11431 0.0
C639 C 0.05625 0.60139 0.06047 0.0
N640 N 0.05053 0.60849 0.93459 0.0
O641 O 0.06596 0.64305 0.31711 0.0
H642 H 0.01619 0.61394 0.1764 0.0
H643 H 0.07211 0.59919 0.07402 0.0
O644 O 0.02355 0.60334 0.4472 0.0
C645 C 0.08538 0.64991 0.24061 0.0
O646 O 0.09691 0.63743 0.25222 0.0
N647 N 0.04663 0.57659 0.39108 0.0
C648 C 0.042 0.53028 0.38142 0.0
C649 C 0.02176 0.53293 0.41669 0.0
C650 C 0.02436 0.55643 0.41919 0.0
C651 C 0.06639 0.57416 0.35861 0.0
C652 C 0.06466 0.55136 0.35636 0.0
H653 H 0.00836 0.55817 0.43553 0.0
H654 H 0.08355 0.59014 0.32898 0.0
H655 H 0.04163 0.62339 0.66849 0.0
H656 H 0.09129 0.60414 0.84132 0.0
H657 H 0.02436 0.62051 0.89401 0.0
H658 H 0.00396 0.51696 0.43328 0.0
H659 H 0.08075 0.55015 0.32833 0.0
C660 C 0.36854 0.46112 0.62472 0.0
C661 C 0.37108 0.4609 0.77478 0.0
N662 N 0.37048 0.43991 0.80988 0.0
N663 N 0.36715 0.44072 0.56561 0.0
C664 C 0.36688 0.42762 0.68346 0.0
H665 H 0.36998 0.47636 0.56287 0.0
Co666 Co 0.37621 0.43713 0.37246 0.0
C667 C 0.38657 0.39494 0.48884 0.0
O668 O 0.3709 0.37341 0.43356 0.0
N669 N 0.38477 0.43385 0.18312 0.0
C670 C 0.37696 0.41292 0.97521 0.0
C671 C 0.38133 0.41281 0.12247 0.0
C672 C 0.38307 0.44678 0.07023 0.0
N673 N 0.37771 0.43413 0.94351 0.0
O674 O 0.34314 0.41191 0.32167 0.0
H675 H 0.37825 0.39692 0.1833 0.0
H676 H 0.38248 0.46353 0.08439 0.0
O677 O 0.3851 0.41378 0.45345 0.0
C678 C 0.33478 0.42368 0.2505 0.0
O679 O 0.34551 0.44752 0.26988 0.0
N680 N 0.40778 0.46314 0.40614 0.0
C681 C 0.45235 0.50695 0.42126 0.0
C682 C 0.45139 0.48451 0.44594 0.0
C683 C 0.42879 0.46261 0.43657 0.0
C684 C 0.40854 0.48477 0.38208 0.0
C685 C 0.43037 0.50684 0.39355 0.0
H686 H 0.42852 0.44544 0.44696 0.0
H687 H 0.39201 0.48483 0.35042 0.0
H688 H 0.36578 0.41007 0.67782 0.0
H689 H 0.37482 0.47569 0.84974 0.0
H690 H 0.37113 0.39757 0.90134 0.0
H691 H 0.46803 0.48388 0.46473 0.0
H692 H 0.4301 0.52368 0.3752 0.0
C693 C 0.23106 0.18167 0.10107 0.0
C694 C 0.23386 0.18256 0.95112 0.0
N695 N 0.25242 0.20494 0.91698 0.0
N696 N 0.24827 0.20316 0.16103 0.0
C697 C 0.25994 0.21732 0.04406 0.0
H698 H 0.21865 0.16552 0.16201 0.0
Co699 Co 0.26099 0.20838 0.35435 0.0
C700 C 0.31301 0.25127 0.22952 0.0
O701 O 0.32011 0.27324 0.28209 0.0
N702 N 0.27303 0.21339 0.54416 0.0
C703 C 0.28404 0.23474 0.75155 0.0
C704 C 0.28875 0.23537 0.60426 0.0
C705 C 0.25929 0.1995 0.65699 0.0
N706 N 0.26531 0.21227 0.78335 0.0
O707 O 0.25102 0.23221 0.39735 0.0
H708 H 0.30016 0.25178 0.54274 0.0
H709 H 0.24321 0.18161 0.643 0.0
O710 O 0.29267 0.23314 0.27238 0.0
C711 C 0.23134 0.22006 0.47177 0.0
O712 O 0.21949 0.19604 0.46072 0.0
N713 N 0.26846 0.18348 0.32913 0.0
C714 C 0.27249 0.14151 0.34376 0.0
C715 C 0.29287 0.1641 0.30662 0.0
C716 C 0.29059 0.18516 0.30216 0.0
C717 C 0.24849 0.16152 0.36244 0.0
C718 C 0.24996 0.1403 0.36795 0.0
H719 H 0.30678 0.20272 0.28546 0.0
H720 H 0.23142 0.16067 0.39079 0.0
H721 H 0.27491 0.2359 0.05111 0.0
H722 H 0.22424 0.16744 0.87545 0.0
H723 H 0.29213 0.25025 0.82551 0.0
H724 H 0.31054 0.16559 0.29034 0.0
H725 H 0.23379 0.12321 0.39752 0.0
C726 C 0.79818 0.05017 0.10685 0.0
C727 C 0.79691 0.05096 0.95656 0.0
N728 N 0.77399 0.04561 0.92026 0.0
N729 N 0.77626 0.04476 0.16363 0.0
C730 C 0.76163 0.04092 0.04638 0.0
H731 H 0.81472 0.05615 0.17073 0.0
Co732 Co 0.77124 0.05196 0.35417 0.0
C733 C 0.739 0.0728 0.24985 0.0
O734 O 0.75202 0.09439 0.31203 0.0
N735 N 0.76618 0.05792 0.54669 0.0
C736 C 0.74709 0.05351 0.75855 0.0
C737 C 0.74668 0.0576 0.61034 0.0
C738 C 0.77785 0.05368 0.65736 0.0
N739 N 0.76674 0.05101 0.78592 0.0
O740 O 0.74945 0.01809 0.39547 0.0
H741 H 0.73186 0.0577 0.55174 0.0
H742 H 0.79296 0.05035 0.64242 0.0
O743 O 0.74379 0.05569 0.27686 0.0
C744 C 0.76216 0.0094 0.45026 0.0
O745 O 0.78604 0.02139 0.4309 0.0
N746 N 0.79499 0.08551 0.32302 0.0
C747 C 0.83753 0.13064 0.27786 0.0
C748 C 0.81856 0.12131 0.17395 0.0
C749 C 0.79723 0.09867 0.19911 0.0
C750 C 0.81377 0.09452 0.42199 0.0
C751 C 0.83456 0.1172 0.40456 0.0
H752 H 0.7834 0.09106 0.1144 0.0
H753 H 0.81391 0.08363 0.51091 0.0
H754 H 0.7429 0.03694 0.05237 0.0
H755 H 0.81223 0.05746 0.882 0.0
H756 H 0.73341 0.05124 0.83755 0.0
H757 H 0.82082 0.13062 0.07105 0.0
H758 H 0.84896 0.12353 0.4865 0.0
C759 C 0.94467 0.75309 0.09345 0.0
C760 C 0.94378 0.75098 0.94318 0.0
N761 N 0.94639 0.73164 0.90756 0.0
N762 N 0.94743 0.73491 0.15092 0.0
C763 C 0.94956 0.72288 0.03421 0.0
H764 H 0.94054 0.76512 0.15666 0.0
Co765 Co 0.93909 0.7229 0.34068 0.0
C766 C 0.90953 0.66976 0.25424 0.0
O767 O 0.89216 0.6664 0.3464 0.0
N768 N 0.93202 0.7118 0.53345 0.0
C769 C 0.93543 0.69613 0.74456 0.0
C770 C 0.93092 0.69189 0.59628 0.0
C771 C 0.93772 0.72794 0.64502 0.0
N772 N 0.93971 0.7189 0.77303 0.0
O773 O 0.97202 0.73014 0.38314 0.0
H774 H 0.92981 0.67655 0.53696 0.0
H775 H 0.94307 0.74699 0.63099 0.0
O776 O 0.92971 0.69008 0.25829 0.0
C777 C 0.98252 0.75139 0.4426 0.0
O778 O 0.97302 0.76555 0.42069 0.0
N779 N 0.90676 0.71799 0.31037 0.0
C780 C 0.86115 0.71599 0.29071 0.0
C781 C 0.86901 0.7061 0.17899 0.0
C782 C 0.89199 0.70743 0.19072 0.0
C783 C 0.8998 0.72893 0.4132 0.0
C784 C 0.87693 0.72697 0.41016 0.0
H785 H 0.8982 0.70077 0.1014 0.0
H786 H 0.91214 0.74015 0.49721 0.0
H787 H 0.95108 0.70659 0.04092 0.0
H788 H 0.93901 0.76119 0.86801 0.0
H789 H 0.93705 0.68419 0.82259 0.0
H790 H 0.85801 0.69805 0.08178 0.0
H791 H 0.87214 0.73464 0.50165 0.0
C792 C 0.46195 0.08051 0.56257 0.0
C793 C 0.46115 0.07816 0.41226 0.0
N794 N 0.43871 0.05975 0.3745 0.0
N795 N 0.44027 0.06336 0.61863 0.0
C796 C 0.42612 0.05192 0.50016 0.0
H797 H 0.47828 0.0916 0.62723 0.0
Co798 Co 0.43636 0.05067 0.80893 0.0
C799 C 0.40535 -0.00211 0.70208 0.0
O800 O 0.41925 0.99022 0.76224 0.0
N801 N 0.43239 0.03911 1.00088 0.0
C802 C 0.41238 0.02489 0.21084 0.0
C803 C 0.41236 0.02034 0.06287 0.0
C804 C 0.44417 0.05477 0.11319 0.0
N805 N 0.43237 0.04669 0.24063 0.0
O806 O 0.41404 0.06199 0.86181 0.0
H807 H 0.39721 0.00593 1.00286 0.0
H808 H 0.45952 0.07309 0.09929 0.0
O809 O 0.40905 0.01938 0.73137 0.0
C810 C 0.42651 0.08299 0.92282 0.0
O811 O 0.4503 0.09545 0.90065 0.0
N812 N 0.46055 0.0416 0.76691 0.0
C813 C 0.50359 0.04078 0.70155 0.0
C814 C 0.4839 0.03105 0.60274 0.0
C815 C 0.46239 0.03145 0.63796 0.0
C816 C 0.47986 0.05117 0.86231 0.0
C817 C 0.50105 0.05029 0.8341 0.0
H818 H 0.44799 0.02506 0.55691 0.0
H819 H 0.48001 0.06121 0.95706 0.0
H820 H 0.4078 0.03643 0.50537 0.0
H821 H 0.47661 0.08737 0.33915 0.0
H822 H 0.39797 0.01397 0.28725 0.0
H823 H 0.48567 0.02463 0.49611 0.0
H824 H 0.51599 0.05834 0.91268 0.0
C825 C 0.90026 0.38186 0.34639 0.0
C826 C 0.90306 0.38366 0.19647 0.0
N827 N 0.92112 0.37905 0.16179 0.0
N828 N 0.91699 0.37687 0.40579 0.0
C829 C 0.92833 0.37385 0.28854 0.0
H830 H 0.88825 0.38617 0.40773 0.0
Co831 Co 0.92973 0.38398 0.59892 0.0
C832 C 0.98108 0.39138 0.47508 0.0
O833 O 0.98665 0.37538 0.52751 0.0
N834 N 0.94173 0.39061 0.78891 0.0
C835 C 0.95247 0.38013 0.99624 0.0
C836 C 0.95721 0.38406 0.8489 0.0
C837 C 0.9281 0.39104 0.90176 0.0
N838 N 0.93396 0.38424 0.02809 0.0
O839 O 0.91926 0.35014 0.63865 0.0
H840 H 0.96847 0.37882 0.7873 0.0
H841 H 0.91218 0.39314 0.88786 0.0
O842 O 0.9612 0.39053 0.51531 0.0
C843 C 0.89955 0.34242 0.71304 0.0
O844 O 0.88771 0.35464 0.70582 0.0
N845 N 0.93782 0.41651 0.57615 0.0
C846 C 0.94286 0.46292 0.59077 0.0
C847 C 0.9629 0.46016 0.55249 0.0
C848 C 0.9601 0.43663 0.54766 0.0
C849 C 0.91819 0.41902 0.61116 0.0
C850 C 0.92016 0.44192 0.61657 0.0
H851 H 0.97603 0.43485 0.52871 0.0
H852 H 0.90098 0.40302 0.63998 0.0
H853 H 0.94289 0.36961 0.29528 0.0
H854 H 0.89384 0.38963 0.12121 0.0
H855 H 0.96039 0.3726 0.07024 0.0
H856 H 0.98071 0.47607 0.53504 0.0
H857 H 0.90422 0.44326 0.64686 0.0
C858 C 0.60986 0.5217 0.41834 0.0
C859 C 0.60735 0.52196 0.26828 0.0
N860 N 0.60802 0.54299 0.23328 0.0
N861 N 0.61131 0.54212 0.47754 0.0
C862 C 0.61165 0.55526 0.35975 0.0
H863 H 0.60837 0.50643 0.48012 0.0
Co864 Co 0.6023 0.54577 0.67071 0.0
C865 C 0.59201 0.588 0.55418 0.0
O866 O 0.60759 0.60956 0.60953 0.0
N867 N 0.5938 0.54913 0.86008 0.0
C868 C 0.60177 0.57012 0.06788 0.0
C869 C 0.59741 0.57024 0.92063 0.0
C870 C 0.59539 0.53614 0.97304 0.0
N871 N 0.60085 0.54883 0.09966 0.0
O872 O 0.63543 0.57087 0.72133 0.0
H873 H 0.60059 0.58616 0.85974 0.0
H874 H 0.59583 0.51932 0.95896 0.0
O875 O 0.59357 0.56922 0.58992 0.0
C876 C 0.64355 0.55885 0.7921 0.0
O877 O 0.63252 0.535 0.77222 0.0
N878 N 0.57068 0.51984 0.63718 0.0
C879 C 0.52609 0.47604 0.6222 0.0
C880 C 0.52707 0.49849 0.59755 0.0
C881 C 0.54969 0.5204 0.60686 0.0
C882 C 0.5699 0.49819 0.66123 0.0
C883 C 0.54806 0.47614 0.64984 0.0
H884 H 0.54999 0.53758 0.59652 0.0
H885 H 0.58642 0.49811 0.69281 0.0
H886 H 0.61282 0.57285 0.36544 0.0
H887 H 0.60359 0.50717 0.19324 0.0
H888 H 0.60771 0.58549 0.14168 0.0
H889 H 0.51043 0.49914 0.57878 0.0
H890 H 0.54832 0.45928 0.66822 0.0
C891 C 0.74907 0.8002 0.95344 0.0
C892 C 0.74627 0.79969 0.10343 0.0
N893 N 0.72658 0.77806 0.13793 0.0
N894 N 0.73075 0.77931 0.89377 0.0
C895 C 0.71837 0.76573 1.01114 0.0
H896 H 0.76235 0.81586 0.89212 0.0
Co897 Co 0.71801 0.77504 0.70035 0.0
C898 C 0.66557 0.73258 0.82007 0.0
O899 O 0.65904 0.71083 0.76587 0.0
N900 N 0.70602 0.771 0.51065 0.0
C901 C 0.69397 0.74971 0.3033 0.0
C902 C 0.68936 0.74941 0.45041 0.0
C903 C 0.72024 0.7844 0.39776 0.0
N904 N 0.71359 0.77159 0.2714 0.0
O905 O 0.72678 0.75041 0.65277 0.0
H906 H 0.67733 0.73321 0.51174 0.0
H907 H 0.737 0.80176 0.41186 0.0
O908 O 0.68597 0.75106 0.78152 0.0
C909 C 0.74667 0.76232 0.57985 0.0
O910 O 0.75929 0.78626 0.59537 0.0
N911 N 0.71166 0.80059 0.73053 0.0
C912 C 0.70978 0.84382 0.73599 0.0
C913 C 0.68868 0.82128 0.765 0.0
C914 C 0.68992 0.79964 0.75999 0.0
C915 C 0.73221 0.82237 0.70306 0.0
C916 C 0.73187 0.84418 0.70897 0.0
H917 H 0.67327 0.7823 0.77251 0.0
H918 H 0.74896 0.82272 0.67237 0.0
H919 H 0.70248 0.74771 1.00477 0.0
H920 H 0.75678 0.81463 0.1788 0.0
H921 H 0.68522 0.73419 0.22977 0.0
H922 H 0.67127 0.82033 0.78337 0.0
H923 H 0.74866 0.86116 0.68663 0.0
C924 C 0.18259 0.93976 0.04786 0.0
C925 C 0.18364 0.9381 0.19786 0.0
N926 N 0.20631 0.94265 0.23294 0.0
N927 N 0.20427 0.94462 0.98898 0.0
C928 C 0.21867 0.94766 0.10637 0.0
H929 H 0.16627 0.93551 0.9862 0.0
Co930 Co 0.20995 0.93772 0.79618 0.0
C931 C 0.25347 0.9295 0.92119 0.0
O932 O 0.27523 0.945 0.86891 0.0
N933 N 0.21539 0.93132 0.60641 0.0
C934 C 0.23656 0.94153 0.39941 0.0
C935 C 0.23737 0.93768 0.54691 0.0
C936 C 0.20135 0.93096 0.49329 0.0
N937 N 0.21397 0.93758 0.36713 0.0
O938 O 0.23345 0.97157 0.75854 0.0
H939 H 0.25386 0.94274 0.6088 0.0
H940 H 0.18337 0.92898 0.5067 0.0
O941 O 0.23479 0.93094 0.87969 0.0
C942 C 0.22142 0.97943 0.68546 0.0
O943 O 0.19735 0.96713 0.69211 0.0
N944 N 0.18532 0.90523 0.81688 0.0
C945 C 0.1438 0.859 0.79598 0.0
C946 C 0.16645 0.86151 0.83593 0.0
C947 C 0.18729 0.88497 0.84377 0.0
C948 C 0.16329 0.90295 0.78064 0.0
C949 C 0.14228 0.88011 0.77173 0.0
H950 H 0.20492 0.88659 0.86343 0.0
H951 H 0.16224 0.91907 0.75297 0.0
H952 H 0.23743 0.95179 0.09992 0.0
H953 H 0.16849 0.93228 0.27298 0.0
H954 H 0.25198 0.94884 0.32544 0.0
H955 H 0.16817 0.84548 0.8521 0.0
H956 H 0.12512 0.87893 0.73981 0.0
C957 C 0.03458 0.23575 0.8792 0.0
C958 C 0.03651 0.23826 0.02933 0.0
N959 N 0.03505 0.25822 0.06621 0.0
N960 N 0.03238 0.25431 0.82216 0.0
C961 C 0.03151 0.26694 0.94 0.0
H962 H 0.03795 0.22327 0.81525 0.0
Co963 Co 0.0422 0.26664 0.63228 0.0
C964 C 0.07242 0.3203 0.71981 0.0
O965 O 0.08962 0.3237 0.62621 0.0
N966 N 0.05106 0.27834 0.44002 0.0
C967 C 0.04354 0.29241 0.23401 0.0
C968 C 0.04853 0.29665 0.38163 0.0
C969 C 0.04748 0.26324 0.32487 0.0
N970 N 0.04282 0.2713 0.19984 0.0
O971 O 0.00962 0.26 0.57881 0.0
H972 H 0.04621 0.30978 0.44522 0.0
H973 H 0.04411 0.24478 0.33515 0.0
O974 O 0.0522 0.29987 0.71631 0.0
C975 C 0.00076 0.2394 0.51156 0.0
O976 O 0.01086 0.22584 0.53607 0.0
N977 N 0.07349 0.27029 0.67148 0.0
C978 C 0.1172 0.26947 0.70837 0.0
C979 C 0.11083 0.28252 0.80646 0.0
C980 C 0.08848 0.28212 0.78806 0.0
C981 C 0.07876 0.25608 0.58357 0.0
C982 C 0.1007 0.2561 0.59614 0.0
H983 H 0.08273 0.29021 0.87106 0.0
H984 H 0.06545 0.24356 0.50733 0.0
H985 H 0.031 0.28378 0.93379 0.0
H986 H 0.04117 0.22777 0.10282 0.0
H987 H 0.03819 0.30253 0.16216 0.0
H988 H 0.12247 0.29211 0.89923 0.0
H989 H 0.10439 0.24526 0.51914 0.0
C990 C 0.18415 0.22943 0.93747 0.0
C991 C 0.18451 0.23224 0.08747 0.0
N992 N 0.20595 0.25216 0.12368 0.0
N993 N 0.20497 0.24792 0.8796 0.0
C994 C 0.21836 0.2605 0.99797 0.0
H995 H 0.16861 0.21607 0.87469 0.0
Co996 Co 0.20901 0.26048 0.68687 0.0
C997 C 0.25213 0.31295 0.80527 0.0
O998 O 0.27349 0.31897 0.74754 0.0
N999 N 0.21274 0.27229 0.49768 0.0
C1000 C 0.23324 0.28576 0.28964 0.0
C1001 C 0.2336 0.29011 0.43738 0.0
C1002 C 0.19968 0.25767 0.38448 0.0
N1003 N 0.21206 0.26514 0.25773 0.0
O1004 O 0.23337 0.25147 0.63863 0.0
H1005 H 0.24944 0.3033 0.49822 0.0
H1006 H 0.18295 0.24031 0.39802 0.0
O1007 O 0.23315 0.29266 0.76892 0.0
C1008 C 0.22087 0.23108 0.57006 0.0
O1009 O 0.19699 0.21883 0.58879 0.0
N1010 N 0.1835 0.26675 0.71744 0.0
C1011 C 0.14013 0.26843 0.72407 0.0
C1012 C 0.16268 0.28943 0.75664 0.0
C1013 C 0.18437 0.28829 0.75142 0.0
C1014 C 0.16174 0.24627 0.68671 0.0
C1015 C 0.13986 0.2465 0.69301 0.0
H1016 H 0.20166 0.30482 0.76845 0.0
H1017 H 0.16146 0.22963 0.65411 0.0
H1018 H 0.23627 0.27655 0.99311 0.0
H1019 H 0.16952 0.22163 0.16157 0.0
H1020 H 0.24832 0.29568 0.21513 0.0
H1021 H 0.16359 0.30671 0.77923 0.0
H1022 H 0.12292 0.22968 0.66953 0.0
C1023 C 0.74847 0.9476 0.8897 0.0
C1024 C 0.74626 0.94641 0.03983 0.0
N1025 N 0.728 0.9507 0.0759 0.0
N1026 N 0.73141 0.95225 0.83274 0.0
C1027 C 0.72001 0.95513 0.94987 0.0
H1028 H 0.75959 0.94239 0.82579 0.0
Co1029 Co 0.71931 0.94466 0.6421 0.0
C1030 C 0.66588 0.92238 0.7371 0.0
O1031 O 0.65813 0.90129 0.67003 0.0
N1032 N 0.70818 0.93806 0.44938 0.0
C1033 C 0.69314 0.94217 0.23751 0.0
C1034 C 0.68886 0.9382 0.38573 0.0
C1035 C 0.72394 0.94221 0.33835 0.0
N1036 N 0.71529 0.94474 0.20986 0.0
O1037 O 0.73026 0.97824 0.59931 0.0
H1038 H 0.67402 0.93824 0.44416 0.0
H1039 H 0.74257 0.94604 0.35288 0.0
O1040 O 0.68779 0.93992 0.7172 0.0
C1041 C 0.75155 0.98744 0.54257 0.0
O1042 O 0.76411 0.97611 0.56111 0.0
N1043 N 0.7107 0.91157 0.67483 0.0
C1044 C 0.70873 0.86661 0.71508 0.0
C1045 C 0.6972 0.87459 0.81451 0.0
C1046 C 0.69853 0.89732 0.79285 0.0
C1047 C 0.72262 0.90414 0.58198 0.0
C1048 C 0.72111 0.88158 0.59642 0.0
H1049 H 0.69096 0.90396 0.8751 0.0
H1050 H 0.73481 0.91621 0.50054 0.0
H1051 H 0.70465 0.95819 0.94369 0.0
H1052 H 0.75553 0.94035 0.11425 0.0
H1053 H 0.68169 0.94454 0.15889 0.0
H1054 H 0.68842 0.86403 0.9114 0.0
H1055 H 0.73056 0.8764 0.51759 0.0
C1056 C 0.0416 0.79453 0.90276 0.0
C1057 C 0.04276 0.79344 0.05303 0.0
N1058 N 0.03781 0.77068 0.08902 0.0
N1059 N 0.03641 0.77271 0.84503 0.0
C1060 C 0.03289 0.75823 0.96224 0.0
H1061 H 0.04747 0.81103 0.83953 0.0
Co1062 Co 0.04478 0.76831 0.65456 0.0
C1063 C 0.06606 0.73698 0.76497 0.0
O1064 O 0.08775 0.75056 0.70581 0.0
N1065 N 0.05184 0.76377 0.46199 0.0
C1066 C 0.04453 0.74318 0.25196 0.0
C1067 C 0.04924 0.74314 0.3997 0.0
C1068 C 0.04846 0.77587 0.35008 0.0
N1069 N 0.04396 0.76381 0.22259 0.0
O1070 O 0.01087 0.74671 0.60246 0.0
H1071 H 0.04758 0.72766 0.4597 0.0
H1072 H 0.04629 0.79171 0.36437 0.0
O1073 O 0.04834 0.7407 0.73244 0.0
C1074 C 0.0036 0.76038 0.54375 0.0
O1075 O 0.01628 0.78408 0.56926 0.0
N1076 N 0.07828 0.79204 0.69548 0.0
C1077 C 0.12238 0.83487 0.7601 0.0
C1078 C 0.11224 0.81551 0.86003 0.0
C1079 C 0.09018 0.7941 0.82518 0.0
C1080 C 0.08833 0.81101 0.59885 0.0
C1081 C 0.11051 0.83206 0.62664 0.0
H1082 H 0.08195 0.78001 0.90717 0.0
H1083 H 0.0786 0.81117 0.50361 0.0
H1084 H 0.02928 0.73965 0.95548 0.0
H1085 H 0.04937 0.80885 0.1275 0.0
H1086 H 0.04001 0.7284 0.17576 0.0
H1087 H 0.1204 0.81749 0.96707 0.0
H1088 H 0.1176 0.84673 0.54709 0.0
C1089 C 0.90669 0.52908 0.47152 0.0
C1090 C 0.90893 0.53015 0.32133 0.0
N1091 N 0.92711 0.55273 0.28565 0.0
N1092 N 0.9237 0.55076 0.5294 0.0
C1093 C 0.93494 0.56513 0.41241 0.0
H1094 H 0.89574 0.51266 0.53468 0.0
Co1095 Co 0.93628 0.55496 0.72018 0.0
C1096 C 0.98913 0.5852 0.61303 0.0
O1097 O -0.00335 0.5713 0.67455 0.0
N1098 N 0.94774 0.55932 0.91293 0.0
C1099 C 0.96173 0.57955 0.12353 0.0
C1100 C 0.96633 0.57953 0.97576 0.0
C1101 C 0.93207 0.54757 0.02436 0.0
N1102 N 0.94008 0.5594 0.15217 0.0
O1103 O 0.92476 0.57724 0.77031 0.0
H1104 H 0.98058 0.59474 0.91624 0.0
H1105 H 0.91375 0.5322 1.00971 0.0
O1106 O 0.96783 0.58202 0.6431 0.0
C1107 C 0.90357 0.56385 0.82645 0.0
O1108 O 0.89216 0.54016 0.8002 0.0
N1109 N 0.94516 0.53058 0.68133 0.0
C1110 C 0.94572 0.48723 0.62304 0.0
C1111 C 0.95569 0.50655 0.52263 0.0
C1112 C 0.95528 0.52819 0.554 0.0
C1113 C 0.93532 0.51158 0.77776 0.0
C1114 C 0.93613 0.49031 0.75343 0.0
H1115 H 0.96166 0.54224 0.47141 0.0
H1116 H 0.925 0.51165 0.86997 0.0
H1117 H 0.95023 0.58356 0.41931 0.0
H1118 H 0.89979 0.51479 0.24669 0.0
H1119 H 0.97248 0.59407 0.20042 0.0
H1120 H 0.96234 0.5044 0.41773 0.0
H1121 H 0.92795 0.47572 0.8333 0.0
C1122 C 0.46116 0.37174 0.45525 0.0
C1123 C 0.46016 0.37305 0.30517 0.0
N1124 N 0.43753 0.36857 0.2685 0.0
N1125 N 0.43939 0.36686 0.51179 0.0
C1126 C 0.42508 0.36395 0.39431 0.0
H1127 H 0.47754 0.37705 0.51948 0.0
Co1128 Co 0.43492 0.37456 0.70206 0.0
C1129 C 0.40389 0.39692 0.60636 0.0
O1130 O 0.41699 0.41775 0.6766 0.0
N1131 N 0.43038 0.38134 0.89464 0.0
C1132 C 0.41026 0.37546 0.10438 0.0
C1133 C 0.41005 0.37955 0.95624 0.0
C1134 C 0.44244 0.37807 1.00716 0.0
N1135 N 0.4307 0.37451 0.1344 0.0
O1136 O 0.41223 0.34106 0.74587 0.0
H1137 H 0.39462 0.37808 0.89599 0.0
H1138 H 0.45773 0.37499 0.99439 0.0
O1139 O 0.40823 0.37936 0.6251 0.0
C1140 C 0.42449 0.33236 0.8067 0.0
O1141 O 0.4484 0.34383 0.78898 0.0
N1142 N 0.45952 0.4075 0.66907 0.0
C1143 C 0.50244 0.45278 0.63725 0.0
C1144 C 0.48279 0.44553 0.53894 0.0
C1145 C 0.46147 0.42253 0.5557 0.0
C1146 C 0.47913 0.41402 0.75868 0.0
C1147 C 0.50012 0.43671 0.7491 0.0
H1148 H 0.44721 0.41645 0.47374 0.0
H1149 H 0.47938 0.40112 0.83336 0.0
H1150 H 0.4066 0.36075 0.40021 0.0
H1151 H 0.47553 0.37927 0.23128 0.0
H1152 H 0.3957 0.37157 0.18073 0.0
H1153 H 0.48434 0.45694 0.44672 0.0
H1154 H 0.51481 0.4412 0.82674 0.0
C1155 C 0.6088 0.08685 0.41493 0.0
C1156 C 0.60701 0.084 0.2649 0.0
N1157 N 0.61186 0.06612 0.23004 0.0
N1158 N 0.61401 0.0703 0.47427 0.0
C1159 C 0.61721 0.05906 0.35683 0.0
H1160 H 0.60439 0.0988 0.47617 0.0
Co1161 Co 0.60701 0.05757 0.66705 0.0
C1162 C 0.59916 0.006 0.53398 0.0
O1163 O 0.61397 -0.00142 0.58294 0.0
N1164 N 0.60051 0.04553 0.85617 0.0
C1165 C 0.61154 0.03521 0.06298 0.0
C1166 C 0.60762 0.03046 0.91534 0.0
C1167 C 0.59969 0.05889 0.96972 0.0
N1168 N 0.60685 0.05332 0.09575 0.0
O1169 O 0.64124 0.06912 0.71063 0.0
H1170 H 0.61317 0.01948 0.85308 0.0
H1171 H 0.59707 0.07448 0.95665 0.0
O1172 O 0.60158 0.02621 0.58306 0.0
C1173 C 0.64813 0.08866 0.78665 0.0
O1174 O 0.63515 0.09969 0.77774 0.0
N1175 N 0.57426 0.04884 0.64267 0.0
C1176 C 0.52776 0.04359 0.66493 0.0
C1177 C 0.53045 0.02349 0.6269 0.0
C1178 C 0.55407 0.02638 0.61853 0.0
C1179 C 0.57176 0.0685 0.67734 0.0
C1180 C 0.54882 0.06642 0.68657 0.0
H1181 H 0.55594 0.01047 0.60151 0.0
H1182 H 0.58782 0.08582 0.70459 0.0
H1183 H 0.62175 0.04474 0.36323 0.0
H1184 H 0.60094 0.09311 0.18957 0.0
H1185 H 0.61938 0.02756 0.13671 0.0
H1186 H 0.51446 0.0056 0.61307 0.0
H1187 H 0.54754 0.08238 0.71718 0.0
loop_
_geom_bond_atom_site_label_1
_geom_bond_atom_site_label_2
_geom_bond_distance
_geom_bond_site_symmetry_2
_ccdc_geom_bond_type
C0 C1 1.351 . S
C0 N3 1.368 . S
C0 H5 0.931 . S
C1 C0 1.351 . S
C1 N2 1.373 . S
C1 H29 0.930 . S
N2 C1 1.373 . S
N2 C4 1.340 . S
N3 C0 1.368 . S
N3 C4 1.321 . S
N3 Co6 2.135 1_556 S
C4 N2 1.340 . S
C4 N3 1.321 . S
C4 H28 0.930 . S
H5 C0 0.931 . S
Co6 N3 2.135 1_554 S
Co6 N9 2.121 . S
Co6 O14 2.055 . S
Co6 O17 2.039 1_554 S
Co6 N20 2.140 1_554 S
C7 O8 1.227 . S
C7 O17 1.265 . S
O8 C7 1.227 . S
N9 Co6 2.121 . S
N9 C11 1.375 . S
N9 C12 1.313 . S
C10 C11 1.338 . S
C10 N13 1.377 . S
C10 H30 0.930 . S
C11 N9 1.375 . S
C11 C10 1.338 . S
C11 H15 0.931 . S
C12 N9 1.313 . S
C12 N13 1.344 . S
C12 H16 0.930 . S
N13 C10 1.377 . S
N13 C12 1.344 . S
O14 Co6 2.055 . S
O14 C18 1.253 . S
H15 C11 0.931 . S
H16 C12 0.930 . S
O17 Co6 2.039 1_556 S
O17 C7 1.265 . S
C18 O14 1.253 . S
C18 O19 1.227 . S
O19 C18 1.227 . S
N20 Co6 2.140 1_556 S
N20 C23 1.346 . S
N20 C24 1.345 1_556 S
C21 C22 1.387 . S
C21 C25 1.391 1_556 S
C22 C21 1.387 . S
C22 C23 1.369 . S
C22 H31 0.929 . S
C23 N20 1.346 . S
C23 C22 1.369 . S
C23 H26 0.928 . S
C24 N20 1.345 1_554 S
C24 C25 1.371 . S
C24 H27 0.931 . S
C25 C21 1.391 1_554 S
C25 C24 1.371 . S
C25 H32 0.930 . S
H26 C23 0.928 . S
H27 C24 0.931 . S
H28 C4 0.930 . S
H29 C1 0.930 . S
H30 C10 0.930 . S
H31 C22 0.929 . S
H32 C25 0.930 . S
C33 C34 1.351 . S
C33 N36 1.368 . S
C33 H38 0.931 . S
C34 C33 1.351 . S
C34 N35 1.373 . S
C34 H62 0.930 . S
N35 C34 1.373 . S
N35 C37 1.340 . S
N36 C33 1.368 . S
N36 C37 1.321 . S
N36 Co39 2.135 1_556 S
C37 N35 1.340 . S
C37 N36 1.321 . S
C37 H61 0.930 . S
H38 C33 0.931 . S
Co39 N36 2.135 1_554 S
Co39 N42 2.121 . S
Co39 O47 2.055 . S
Co39 O50 2.039 1_554 S
Co39 N53 2.140 1_554 S
C40 O41 1.227 . S
C40 O50 1.265 . S
O41 C40 1.227 . S
N42 Co39 2.121 . S
N42 C44 1.375 . S
N42 C45 1.313 . S
C43 C44 1.338 . S
C43 N46 1.377 . S
C43 H63 0.930 . S
C44 N42 1.375 . S
C44 C43 1.338 . S
C44 H48 0.931 . S
C45 N42 1.313 . S
C45 N46 1.344 . S
C45 H49 0.930 . S
N46 C43 1.377 . S
N46 C45 1.344 . S
O47 Co39 2.055 . S
O47 C51 1.253 . S
H48 C44 0.931 . S
H49 C45 0.930 . S
O50 Co39 2.039 1_556 S
O50 C40 1.265 . S
C51 O47 1.253 . S
C51 O52 1.227 . S
O52 C51 1.227 . S
N53 Co39 2.140 1_556 S
N53 C56 1.346 . S
N53 C57 1.345 1_556 S
C54 C55 1.387 . S
C54 C58 1.391 1_556 S
C55 C54 1.387 . S
C55 C56 1.369 . S
C55 H64 0.929 . S
C56 N53 1.346 . S
C56 C55 1.369 . S
C56 H59 0.928 . S
C57 N53 1.345 1_554 S
C57 C58 1.371 . S
C57 H60 0.931 . S
C58 C54 1.391 1_554 S
C58 C57 1.371 . S
C58 H65 0.930 . S
H59 C56 0.928 . S
H60 C57 0.931 . S
H61 C37 0.930 . S
H62 C34 0.930 . S
H63 C43 0.930 . S
H64 C55 0.929 . S
H65 C58 0.930 . S
C66 C67 1.351 . S
C66 N69 1.368 . S
C66 H71 0.931 . S
C67 C66 1.351 . S
C67 N68 1.373 . S
C67 H95 0.930 . S
N68 C67 1.373 . S
N68 C70 1.340 . S
N69 C66 1.368 . S
N69 C70 1.321 . S
N69 Co72 2.135 1_556 S
C70 N68 1.340 . S
C70 N69 1.321 . S
C70 H94 0.930 . S
H71 C66 0.931 . S
Co72 N69 2.135 1_554 S
Co72 N75 2.121 . S
Co72 O80 2.055 . S
Co72 O83 2.039 1_554 S
Co72 N86 2.140 1_554 S
C73 O74 1.227 . S
C73 O83 1.265 . S
O74 C73 1.227 . S
N75 Co72 2.121 . S
N75 C77 1.375 . S
N75 C78 1.313 . S
C76 C77 1.338 . S
C76 N79 1.377 . S
C76 H96 0.930 . S
C77 N75 1.375 . S
C77 C76 1.338 . S
C77 H81 0.931 . S
C78 N75 1.313 . S
C78 N79 1.344 . S
C78 H82 0.930 . S
N79 C76 1.377 . S
N79 C78 1.344 . S
O80 Co72 2.055 . S
O80 C84 1.253 . S
H81 C77 0.931 . S
H82 C78 0.930 . S
O83 Co72 2.039 1_556 S
O83 C73 1.265 . S
C84 O80 1.253 . S
C84 O85 1.227 . S
O85 C84 1.227 . S
N86 Co72 2.140 1_556 S
N86 C89 1.346 . S
N86 C90 1.345 1_556 S
C87 C88 1.387 . S
C87 C91 1.391 1_556 S
C88 C87 1.387 . S
C88 C89 1.369 . S
C88 H97 0.929 . S
C89 N86 1.346 . S
C89 C88 1.369 . S
C89 H92 0.928 . S
C90 N86 1.345 1_554 S
C90 C91 1.371 . S
C90 H93 0.931 . S
C91 C87 1.391 1_554 S
C91 C90 1.371 . S
C91 H98 0.930 . S
H92 C89 0.928 . S
H93 C90 0.931 . S
H94 C70 0.930 . S
H95 C67 0.930 . S
H96 C76 0.930 . S
H97 C88 0.929 . S
H98 C91 0.930 . S
C99 C100 1.351 . S
C99 N102 1.368 . S
C99 H104 0.931 . S
C100 C99 1.351 . S
C100 N101 1.373 . S
C100 H128 0.930 . S
N101 C100 1.373 . S
N101 C103 1.340 . S
N102 C99 1.368 . S
N102 C103 1.321 . S
N102 Co105 2.135 1_554 S
C103 N101 1.340 . S
C103 N102 1.321 . S
C103 H127 0.930 . S
H104 C99 0.931 . S
Co105 N102 2.135 1_556 S
Co105 N108 2.121 . S
Co105 O113 2.055 . S
Co105 O116 2.039 1_556 S
Co105 N119 2.140 1_556 S
C106 O107 1.227 . S
C106 O116 1.265 . S
O107 C106 1.227 . S
N108 Co105 2.121 . S
N108 C110 1.375 . S
N108 C111 1.313 . S
C109 C110 1.338 . S
C109 N112 1.377 . S
C109 H129 0.930 . S
C110 N108 1.375 . S
C110 C109 1.338 . S
C110 H114 0.931 . S
C111 N108 1.313 . S
C111 N112 1.344 . S
C111 H115 0.930 . S
N112 C109 1.377 . S
N112 C111 1.344 . S
O113 Co105 2.055 . S
O113 C117 1.253 . S
H114 C110 0.931 . S
H115 C111 0.930 . S
O116 Co105 2.039 1_554 S
O116 C106 1.265 . S
C117 O113 1.253 . S
C117 O118 1.227 . S
O118 C117 1.227 . S
N119 Co105 2.140 1_554 S
N119 C122 1.346 . S
N119 C123 1.345 1_554 S
C120 C121 1.387 . S
C120 C124 1.391 1_554 S
C121 C120 1.387 . S
C121 C122 1.369 . S
C121 H130 0.929 . S
C122 N119 1.346 . S
C122 C121 1.369 . S
C122 H125 0.928 . S
C123 N119 1.345 1_556 S
C123 C124 1.371 . S
C123 H126 0.931 . S
C124 C120 1.391 1_556 S
C124 C123 1.371 . S
C124 H131 0.930 . S
H125 C122 0.928 . S
H126 C123 0.931 . S
H127 C103 0.930 . S
H128 C100 0.930 . S
H129 C109 0.930 . S
H130 C121 0.929 . S
H131 C124 0.930 . S
C132 C133 1.351 . S
C132 N135 1.368 . S
C132 H137 0.931 . S
C133 C132 1.351 . S
C133 N134 1.373 . S
C133 H161 0.930 . S
N134 C133 1.373 . S
N134 C136 1.340 . S
N135 C132 1.368 . S
N135 C136 1.321 . S
N135 Co138 2.135 1_554 S
C136 N134 1.340 . S
C136 N135 1.321 . S
C136 H160 0.930 . S
H137 C132 0.931 . S
Co138 N135 2.135 1_556 S
Co138 N141 2.121 . S
Co138 O146 2.055 . S
Co138 O149 2.039 1_556 S
Co138 N152 2.140 1_556 S
C139 O140 1.227 . S
C139 O149 1.265 . S
O140 C139 1.227 . S
N141 Co138 2.121 . S
N141 C143 1.375 . S
N141 C144 1.313 . S
C142 C143 1.338 . S
C142 N145 1.377 . S
C142 H162 0.930 . S
C143 N141 1.375 . S
C143 C142 1.338 . S
C143 H147 0.931 . S
C144 N141 1.313 . S
C144 N145 1.344 . S
C144 H148 0.930 . S
N145 C142 1.377 . S
N145 C144 1.344 . S
O146 Co138 2.055 . S
O146 C150 1.253 . S
H147 C143 0.931 . S
H148 C144 0.930 . S
O149 Co138 2.039 1_554 S
O149 C139 1.265 . S
C150 O146 1.253 . S
C150 O151 1.227 . S
O151 C150 1.227 . S
N152 Co138 2.140 1_554 S
N152 C155 1.346 . S
N152 C156 1.345 1_554 S
C153 C154 1.387 . S
C153 C157 1.391 1_554 S
C154 C153 1.387 . S
C154 C155 1.369 . S
C154 H163 0.929 . S
C155 N152 1.346 . S
C155 C154 1.369 . S
C155 H158 0.928 . S
C156 N152 1.345 1_556 S
C156 C157 1.371 . S
C156 H159 0.931 . S
C157 C153 1.391 1_556 S
C157 C156 1.371 . S
C157 H164 0.930 . S
H158 C155 0.928 . S
H159 C156 0.931 . S
H160 C136 0.930 . S
H161 C133 0.930 . S
H162 C142 0.930 . S
H163 C154 0.929 . S
H164 C157 0.930 . S
C165 C166 1.351 . S
C165 N168 1.368 . S
C165 H170 0.931 . S
C166 C165 1.351 . S
C166 N167 1.373 . S
C166 H194 0.930 . S
N167 C166 1.373 . S
N167 C169 1.340 . S
N168 C165 1.368 . S
N168 C169 1.321 . S
N168 Co171 2.135 1_554 S
C169 N167 1.340 . S
C169 N168 1.321 . S
C169 H193 0.930 . S
H170 C165 0.931 . S
Co171 N168 2.135 1_556 S
Co171 N174 2.121 . S
Co171 O179 2.055 . S
Co171 O182 2.039 1_556 S
Co171 N185 2.140 1_556 S
C172 O173 1.227 . S
C172 O182 1.265 . S
O173 C172 1.227 . S
N174 Co171 2.121 . S
N174 C176 1.375 . S
N174 C177 1.313 . S
C175 C176 1.338 . S
C175 N178 1.377 . S
C175 H195 0.930 . S
C176 N174 1.375 . S
C176 C175 1.338 . S
C176 H180 0.931 . S
C177 N174 1.313 . S
C177 N178 1.344 . S
C177 H181 0.930 . S
N178 C175 1.377 . S
N178 C177 1.344 . S
O179 Co171 2.055 . S
O179 C183 1.253 . S
H180 C176 0.931 . S
H181 C177 0.930 . S
O182 Co171 2.039 1_554 S
O182 C172 1.265 . S
C183 O179 1.253 . S
C183 O184 1.227 . S
O184 C183 1.227 . S
N185 Co171 2.140 1_554 S
N185 C188 1.346 . S
N185 C189 1.345 1_554 S
C186 C187 1.387 . S
C186 C190 1.391 1_554 S
C187 C186 1.387 . S
C187 C188 1.369 . S
C187 H196 0.929 . S
C188 N185 1.346 . S
C188 C187 1.369 . S
C188 H191 0.928 . S
C189 N185 1.345 1_556 S
C189 C190 1.371 . S
C189 H192 0.931 . S
C190 C186 1.391 1_556 S
C190 C189 1.371 . S
C190 H197 0.930 . S
H191 C188 0.928 . S
H192 C189 0.931 . S
H193 C169 0.930 . S
H194 C166 0.930 . S
H195 C175 0.930 . S
H196 C187 0.929 . S
H197 C190 0.930 . S
C198 C199 1.351 . S
C198 N201 1.368 . S
C198 H203 0.931 . S
C199 C198 1.351 . S
C199 N200 1.373 . S
C199 H227 0.930 . S
N200 C199 1.373 . S
N200 C202 1.340 . S
N201 C198 1.368 . S
N201 C202 1.321 . S
N201 Co204 2.135 1_554 S
C202 N200 1.340 . S
C202 N201 1.321 . S
C202 H226 0.930 . S
H203 C198 0.931 . S
Co204 N201 2.135 1_556 S
Co204 N207 2.121 . S
Co204 O212 2.055 . S
Co204 O215 2.039 1_556 S
Co204 N218 2.140 1_556 S
C205 O206 1.227 . S
C205 O215 1.265 . S
O206 C205 1.227 . S
N207 Co204 2.121 . S
N207 C209 1.375 . S
N207 C210 1.313 . S
C208 C209 1.338 . S
C208 N211 1.377 . S
C208 H228 0.930 . S
C209 N207 1.375 . S
C209 C208 1.338 . S
C209 H213 0.931 . S
C210 N207 1.313 . S
C210 N211 1.344 . S
C210 H214 0.930 . S
N211 C208 1.377 . S
N211 C210 1.344 . S
O212 Co204 2.055 . S
O212 C216 1.253 . S
H213 C209 0.931 . S
H214 C210 0.930 . S
O215 Co204 2.039 1_554 S
O215 C205 1.265 . S
C216 O212 1.253 . S
C216 O217 1.227 . S
O217 C216 1.227 . S
N218 Co204 2.140 1_554 S
N218 C221 1.346 . S
N218 C222 1.345 1_554 S
C219 C220 1.387 . S
C219 C223 1.391 1_554 S
C220 C219 1.387 . S
C220 C221 1.369 . S
C220 H229 0.929 . S
C221 N218 1.346 . S
C221 C220 1.369 . S
C221 H224 0.928 . S
C222 N218 1.345 1_556 S
C222 C223 1.371 . S
C222 H225 0.931 . S
C223 C219 1.391 1_556 S
C223 C222 1.371 . S
C223 H230 0.930 . S
H224 C221 0.928 . S
H225 C222 0.931 . S
H226 C202 0.930 . S
H227 C199 0.930 . S
H228 C208 0.930 . S
H229 C220 0.929 . S
H230 C223 0.930 . S
C231 C232 1.351 . S
C231 N234 1.368 . S
C231 H236 0.931 . S
C232 C231 1.351 . S
C232 N233 1.373 . S
C232 H260 0.930 . S
N233 C232 1.373 . S
N233 C235 1.340 . S
N234 C231 1.368 . S
N234 C235 1.321 . S
N234 Co237 2.135 1_554 S
C235 N233 1.340 . S
C235 N234 1.321 . S
C235 H259 0.930 . S
H236 C231 0.931 . S
Co237 N234 2.135 1_556 S
Co237 N240 2.121 . S
Co237 O245 2.055 . S
Co237 O248 2.039 1_556 S
Co237 N251 2.140 1_556 S
C238 O239 1.227 . S
C238 O248 1.265 . S
O239 C238 1.227 . S
N240 Co237 2.121 . S
N240 C242 1.375 . S
N240 C243 1.313 . S
C241 C242 1.338 . S
C241 N244 1.377 . S
C241 H261 0.930 . S
C242 N240 1.375 . S
C242 C241 1.338 . S
C242 H246 0.931 . S
C243 N240 1.313 . S
C243 N244 1.344 . S
C243 H247 0.930 . S
N244 C241 1.377 . S
N244 C243 1.344 . S
O245 Co237 2.055 . S
O245 C249 1.253 . S
H246 C242 0.931 . S
H247 C243 0.930 . S
O248 Co237 2.039 1_554 S
O248 C238 1.265 . S
C249 O245 1.253 . S
C249 O250 1.227 . S
O250 C249 1.227 . S
N251 Co237 2.140 1_554 S
N251 C254 1.346 . S
N251 C255 1.345 1_554 S
C252 C253 1.387 . S
C252 C256 1.391 1_554 S
C253 C252 1.387 . S
C253 C254 1.369 . S
C253 H262 0.929 . S
C254 N251 1.346 . S
C254 C253 1.369 . S
C254 H257 0.928 . S
C255 N251 1.345 1_556 S
C255 C256 1.371 . S
C255 H258 0.931 . S
C256 C252 1.391 1_556 S
C256 C255 1.371 . S
C256 H263 0.930 . S
H257 C254 0.928 . S
H258 C255 0.931 . S
H259 C235 0.930 . S
H260 C232 0.930 . S
H261 C241 0.930 . S
H262 C253 0.929 . S
H263 C256 0.930 . S
C264 C265 1.351 . S
C264 N267 1.368 . S
C264 H269 0.931 . S
C265 C264 1.351 . S
C265 N266 1.373 . S
C265 H293 0.930 . S
N266 C265 1.373 . S
N266 C268 1.340 . S
N267 C264 1.368 . S
N267 C268 1.321 . S
N267 Co270 2.135 1_554 S
C268 N266 1.340 . S
C268 N267 1.321 . S
C268 H292 0.930 . S
H269 C264 0.931 . S
Co270 N267 2.135 1_556 S
Co270 N273 2.121 . S
Co270 O278 2.055 . S
Co270 O281 2.039 1_556 S
Co270 N284 2.140 1_556 S
C271 O272 1.227 . S
C271 O281 1.265 . S
O272 C271 1.227 . S
N273 Co270 2.121 . S
N273 C275 1.375 . S
N273 C276 1.313 . S
C274 C275 1.338 . S
C274 N277 1.377 . S
C274 H294 0.930 . S
C275 N273 1.375 . S
C275 C274 1.338 . S
C275 H279 0.931 . S
C276 N273 1.313 . S
C276 N277 1.344 . S
C276 H280 0.930 . S
N277 C274 1.377 . S
N277 C276 1.344 . S
O278 Co270 2.055 . S
O278 C282 1.253 . S
H279 C275 0.931 . S
H280 C276 0.930 . S
O281 Co270 2.039 1_554 S
O281 C271 1.265 . S
C282 O278 1.253 . S
C282 O283 1.227 . S
O283 C282 1.227 . S
N284 Co270 2.140 1_554 S
N284 C287 1.346 . S
N284 C288 1.345 1_554 S
C285 C286 1.387 . S
C285 C289 1.391 1_554 S
C286 C285 1.387 . S
C286 C287 1.369 . S
C286 H295 0.929 . S
C287 N284 1.346 . S
C287 C286 1.369 . S
C287 H290 0.928 . S
C288 N284 1.345 1_556 S
C288 C289 1.371 . S
C288 H291 0.931 . S
C289 C285 1.391 1_556 S
C289 C288 1.371 . S
C289 H296 0.930 . S
H290 C287 0.928 . S
H291 C288 0.931 . S
H292 C268 0.930 . S
H293 C265 0.930 . S
H294 C274 0.930 . S
H295 C286 0.929 . S
H296 C289 0.930 . S
C297 C298 1.351 . S
C297 N300 1.368 . S
C297 H302 0.931 . S
C298 C297 1.351 . S
C298 N299 1.373 . S
C298 H326 0.930 . S
N299 C298 1.373 . S
N299 C301 1.340 . S
N300 C297 1.368 . S
N300 C301 1.321 . S
N300 Co303 2.135 1_556 S
C301 N299 1.340 . S
C301 N300 1.321 . S
C301 H325 0.930 . S
H302 C297 0.931 . S
Co303 N300 2.135 1_554 S
Co303 N306 2.121 . S
Co303 O311 2.055 . S
Co303 O314 2.039 1_554 S
Co303 N317 2.140 1_554 S
C304 O305 1.227 . S
C304 O314 1.265 . S
O305 C304 1.227 . S
N306 Co303 2.121 . S
N306 C308 1.375 . S
N306 C309 1.313 . S
C307 C308 1.338 . S
C307 N310 1.377 . S
C307 H327 0.930 . S
C308 N306 1.375 . S
C308 C307 1.338 . S
C308 H312 0.931 . S
C309 N306 1.313 . S
C309 N310 1.344 . S
C309 H313 0.930 . S
N310 C307 1.377 . S
N310 C309 1.344 . S
O311 Co303 2.055 . S
O311 C315 1.253 . S
H312 C308 0.931 . S
H313 C309 0.930 . S
O314 Co303 2.039 1_556 S
O314 C304 1.265 . S
C315 O311 1.253 . S
C315 O316 1.227 . S
O316 C315 1.227 . S
N317 Co303 2.140 1_556 S
N317 C320 1.346 . S
N317 C321 1.345 1_556 S
C318 C319 1.387 . S
C318 C322 1.391 1_556 S
C319 C318 1.387 . S
C319 C320 1.369 . S
C319 H328 0.929 . S
C320 N317 1.346 . S
C320 C319 1.369 . S
C320 H323 0.928 . S
C321 N317 1.345 1_554 S
C321 C322 1.371 . S
C321 H324 0.931 . S
C322 C318 1.391 1_554 S
C322 C321 1.371 . S
C322 H329 0.930 . S
H323 C320 0.928 . S
H324 C321 0.931 . S
H325 C301 0.930 . S
H326 C298 0.930 . S
H327 C307 0.930 . S
H328 C319 0.929 . S
H329 C322 0.930 . S
C330 C331 1.351 . S
C330 N333 1.368 . S
C330 H335 0.931 . S
C331 C330 1.351 . S
C331 N332 1.373 . S
C331 H359 0.930 . S
N332 C331 1.373 . S
N332 C334 1.340 . S
N333 C330 1.368 . S
N333 C334 1.321 . S
N333 Co336 2.135 1_556 S
C334 N332 1.340 . S
C334 N333 1.321 . S
C334 H358 0.930 . S
H335 C330 0.931 . S
Co336 N333 2.135 1_554 S
Co336 N339 2.121 . S
Co336 O344 2.055 . S
Co336 O347 2.039 1_554 S
Co336 N350 2.140 1_554 S
C337 O338 1.227 . S
C337 O347 1.265 . S
O338 C337 1.227 . S
N339 Co336 2.121 . S
N339 C341 1.375 . S
N339 C342 1.313 . S
C340 C341 1.338 . S
C340 N343 1.377 . S
C340 H360 0.930 . S
C341 N339 1.375 . S
C341 C340 1.338 . S
C341 H345 0.931 . S
C342 N339 1.313 . S
C342 N343 1.344 . S
C342 H346 0.930 . S
N343 C340 1.377 . S
N343 C342 1.344 . S
O344 Co336 2.055 . S
O344 C348 1.253 . S
H345 C341 0.931 . S
H346 C342 0.930 . S
O347 Co336 2.039 1_556 S
O347 C337 1.265 . S
C348 O344 1.253 . S
C348 O349 1.227 . S
O349 C348 1.227 . S
N350 Co336 2.140 1_556 S
N350 C353 1.346 . S
N350 C354 1.345 1_556 S
C351 C352 1.387 . S
C351 C355 1.391 1_556 S
C352 C351 1.387 . S
C352 C353 1.369 . S
C352 H361 0.929 . S
C353 N350 1.346 . S
C353 C352 1.369 . S
C353 H356 0.928 . S
C354 N350 1.345 1_554 S
C354 C355 1.371 . S
C354 H357 0.931 . S
C355 C351 1.391 1_554 S
C355 C354 1.371 . S
C355 H362 0.930 . S
H356 C353 0.928 . S
H357 C354 0.931 . S
H358 C334 0.930 . S
H359 C331 0.930 . S
H360 C340 0.930 . S
H361 C352 0.929 . S
H362 C355 0.930 . S
C363 C364 1.351 . S
C363 N366 1.368 . S
C363 H368 0.931 . S
C364 C363 1.351 . S
C364 N365 1.373 . S
C364 H392 0.930 . S
N365 C364 1.373 . S
N365 C367 1.340 . S
N366 C363 1.368 . S
N366 C367 1.321 . S
N366 Co369 2.135 1_556 S
C367 N365 1.340 . S
C367 N366 1.321 . S
C367 H391 0.930 . S
H368 C363 0.931 . S
Co369 N366 2.135 1_554 S
Co369 N372 2.121 . S
Co369 O377 2.055 . S
Co369 O380 2.039 1_554 S
Co369 N383 2.140 1_554 S
C370 O371 1.227 . S
C370 O380 1.265 . S
O371 C370 1.227 . S
N372 Co369 2.121 . S
N372 C374 1.375 . S
N372 C375 1.313 . S
C373 C374 1.338 . S
C373 N376 1.377 . S
C373 H393 0.930 . S
C374 N372 1.375 . S
C374 C373 1.338 . S
C374 H378 0.931 . S
C375 N372 1.313 . S
C375 N376 1.344 . S
C375 H379 0.930 . S
N376 C373 1.377 . S
N376 C375 1.344 . S
O377 Co369 2.055 . S
O377 C381 1.253 . S
H378 C374 0.931 . S
H379 C375 0.930 . S
O380 Co369 2.039 1_556 S
O380 C370 1.265 . S
C381 O377 1.253 . S
C381 O382 1.227 . S
O382 C381 1.227 . S
N383 Co369 2.140 1_556 S
N383 C386 1.346 . S
N383 C387 1.345 1_556 S
C384 C385 1.387 . S
C384 C388 1.391 1_556 S
C385 C384 1.387 . S
C385 C386 1.369 . S
C385 H394 0.929 . S
C386 N383 1.346 . S
C386 C385 1.369 . S
C386 H389 0.928 . S
C387 N383 1.345 1_554 S
C387 C388 1.371 . S
C387 H390 0.931 . S
C388 C384 1.391 1_554 S
C388 C387 1.371 . S
C388 H395 0.930 . S
H389 C386 0.928 . S
H390 C387 0.931 . S
H391 C367 0.930 . S
H392 C364 0.930 . S
H393 C373 0.930 . S
H394 C385 0.929 . S
H395 C388 0.930 . S
C396 C397 1.351 1_554 S
C396 N399 1.368 . S
C396 H401 0.931 . S
C397 C396 1.351 1_556 S
C397 N398 1.373 . S
C397 H425 0.930 . S
N398 C397 1.373 . S
N398 C400 1.340 . S
N399 C396 1.368 . S
N399 C400 1.321 1_554 S
N399 Co402 2.135 . S
C400 N398 1.340 . S
C400 N399 1.321 1_556 S
C400 H424 0.930 . S
H401 C396 0.931 . S
Co402 N399 2.135 . S
Co402 N405 2.121 . S
Co402 O410 2.055 . S
Co402 O413 2.039 . S
Co402 N416 2.140 . S
C403 O404 1.227 . S
C403 O413 1.265 . S
O404 C403 1.227 . S
N405 Co402 2.121 . S
N405 C407 1.375 . S
N405 C408 1.313 . S
C406 C407 1.338 . S
C406 N409 1.377 . S
C406 H426 0.930 . S
C407 N405 1.375 . S
C407 C406 1.338 . S
C407 H411 0.931 . S
C408 N405 1.313 . S
C408 N409 1.344 . S
C408 H412 0.930 . S
N409 C406 1.377 . S
N409 C408 1.344 . S
O410 Co402 2.055 . S
O410 C414 1.253 . S
H411 C407 0.931 . S
H412 C408 0.930 . S
O413 Co402 2.039 . S
O413 C403 1.265 . S
C414 O410 1.253 . S
C414 O415 1.227 . S
O415 C414 1.227 . S
N416 Co402 2.140 . S
N416 C419 1.346 . S
N416 C420 1.345 . S
C417 C418 1.387 . S
C417 C421 1.391 . S
C418 C417 1.387 . S
C418 C419 1.369 . S
C418 H427 0.929 . S
C419 N416 1.346 . S
C419 C418 1.369 . S
C419 H422 0.928 . S
C420 N416 1.345 . S
C420 C421 1.371 . S
C420 H423 0.931 . S
C421 C417 1.391 . S
C421 C420 1.371 . S
C421 H428 0.930 . S
H422 C419 0.928 . S
H423 C420 0.931 . S
H424 C400 0.930 . S
H425 C397 0.930 . S
H426 C406 0.930 . S
H427 C418 0.929 . S
H428 C421 0.930 . S
C429 C430 1.351 1_554 S
C429 N432 1.368 . S
C429 H434 0.931 . S
C430 C429 1.351 1_556 S
C430 N431 1.373 . S
C430 H458 0.930 . S
N431 C430 1.373 . S
N431 C433 1.340 . S
N432 C429 1.368 . S
N432 C433 1.321 1_554 S
N432 Co435 2.135 . S
C433 N431 1.340 . S
C433 N432 1.321 1_556 S
C433 H457 0.930 . S
H434 C429 0.931 . S
Co435 N432 2.135 . S
Co435 N438 2.121 . S
Co435 O443 2.055 . S
Co435 O446 2.039 . S
Co435 N449 2.140 . S
C436 O437 1.227 . S
C436 O446 1.265 . S
O437 C436 1.227 . S
N438 Co435 2.121 . S
N438 C440 1.375 . S
N438 C441 1.313 . S
C439 C440 1.338 . S
C439 N442 1.377 . S
C439 H459 0.930 . S
C440 N438 1.375 . S
C440 C439 1.338 . S
C440 H444 0.931 . S
C441 N438 1.313 . S
C441 N442 1.344 . S
C441 H445 0.930 . S
N442 C439 1.377 . S
N442 C441 1.344 . S
O443 Co435 2.055 . S
O443 C447 1.253 . S
H444 C440 0.931 . S
H445 C441 0.930 . S
O446 Co435 2.039 . S
O446 C436 1.265 . S
C447 O443 1.253 . S
C447 O448 1.227 . S
O448 C447 1.227 . S
N449 Co435 2.140 . S
N449 C452 1.346 . S
N449 C453 1.345 . S
C450 C451 1.387 . S
C450 C454 1.391 . S
C451 C450 1.387 . S
C451 C452 1.369 . S
C451 H460 0.929 . S
C452 N449 1.346 . S
C452 C451 1.369 . S
C452 H455 0.928 . S
C453 N449 1.345 . S
C453 C454 1.371 . S
C453 H456 0.931 . S
C454 C450 1.391 . S
C454 C453 1.371 . S
C454 H461 0.930 . S
H455 C452 0.928 . S
H456 C453 0.931 . S
H457 C433 0.930 . S
H458 C430 0.930 . S
H459 C439 0.930 . S
H460 C451 0.929 . S
H461 C454 0.930 . S
C462 C463 1.351 1_554 S
C462 N465 1.368 . S
C462 H467 0.931 . S
C463 C462 1.351 1_556 S
C463 N464 1.373 . S
C463 H491 0.930 . S
N464 C463 1.373 . S
N464 C466 1.340 . S
N465 C462 1.368 . S
N465 C466 1.321 1_554 S
N465 Co468 2.135 . S
C466 N464 1.340 . S
C466 N465 1.321 1_556 S
C466 H490 0.930 . S
H467 C462 0.931 . S
Co468 N465 2.135 . S
Co468 N471 2.121 . S
Co468 O476 2.055 . S
Co468 O479 2.039 . S
Co468 N482 2.140 . S
C469 O470 1.227 . S
C469 O479 1.265 . S
O470 C469 1.227 . S
N471 Co468 2.121 . S
N471 C473 1.375 . S
N471 C474 1.313 . S
C472 C473 1.338 . S
C472 N475 1.377 . S
C472 H492 0.930 . S
C473 N471 1.375 . S
C473 C472 1.338 . S
C473 H477 0.931 . S
C474 N471 1.313 . S
C474 N475 1.344 . S
C474 H478 0.930 . S
N475 C472 1.377 . S
N475 C474 1.344 . S
O476 Co468 2.055 . S
O476 C480 1.253 . S
H477 C473 0.931 . S
H478 C474 0.930 . S
O479 Co468 2.039 . S
O479 C469 1.265 . S
C480 O476 1.253 . S
C480 O481 1.227 . S
O481 C480 1.227 . S
N482 Co468 2.140 . S
N482 C485 1.346 . S
N482 C486 1.345 . S
C483 C484 1.387 . S
C483 C487 1.391 . S
C484 C483 1.387 . S
C484 C485 1.369 . S
C484 H493 0.929 . S
C485 N482 1.346 . S
C485 C484 1.369 . S
C485 H488 0.928 . S
C486 N482 1.345 . S
C486 C487 1.371 . S
C486 H489 0.931 . S
C487 C483 1.391 . S
C487 C486 1.371 . S
C487 H494 0.930 . S
H488 C485 0.928 . S
H489 C486 0.931 . S
H490 C466 0.930 . S
H491 C463 0.930 . S
H492 C472 0.930 . S
H493 C484 0.929 . S
H494 C487 0.930 . S
C495 C496 1.351 . S
C495 N498 1.368 . S
C495 H500 0.931 . S
C496 C495 1.351 . S
C496 N497 1.373 . S
C496 H524 0.930 . S
N497 C496 1.373 . S
N497 C499 1.340 . S
N498 C495 1.368 . S
N498 C499 1.321 . S
N498 Co501 2.135 . S
C499 N497 1.340 . S
C499 N498 1.321 . S
C499 H523 0.930 . S
H500 C495 0.931 . S
Co501 N498 2.135 . S
Co501 N504 2.121 . S
Co501 O509 2.055 . S
Co501 O512 2.039 . S
Co501 N515 2.140 . S
C502 O503 1.227 . S
C502 O512 1.265 . S
O503 C502 1.227 . S
N504 Co501 2.121 . S
N504 C506 1.375 . S
N504 C507 1.313 . S
C505 C506 1.338 1_556 S
C505 N508 1.377 . S
C505 H525 0.930 . S
C506 N504 1.375 . S
C506 C505 1.338 1_554 S
C506 H510 0.931 . S
C507 N504 1.313 . S
C507 N508 1.344 1_554 S
C507 H511 0.930 . S
N508 C505 1.377 . S
N508 C507 1.344 1_556 S
O509 Co501 2.055 . S
O509 C513 1.253 . S
H510 C506 0.931 . S
H511 C507 0.930 . S
O512 Co501 2.039 . S
O512 C502 1.265 . S
C513 O509 1.253 . S
C513 O514 1.227 . S
O514 C513 1.227 . S
N515 Co501 2.140 . S
N515 C518 1.346 . S
N515 C519 1.345 . S
C516 C517 1.387 . S
C516 C520 1.391 . S
C517 C516 1.387 . S
C517 C518 1.369 . S
C517 H526 0.929 . S
C518 N515 1.346 . S
C518 C517 1.369 . S
C518 H521 0.928 . S
C519 N515 1.345 . S
C519 C520 1.371 . S
C519 H522 0.931 . S
C520 C516 1.391 . S
C520 C519 1.371 . S
C520 H527 0.930 . S
H521 C518 0.928 . S
H522 C519 0.931 . S
H523 C499 0.930 . S
H524 C496 0.930 . S
H525 C505 0.930 . S
H526 C517 0.929 . S
H527 C520 0.930 . S
C528 C529 1.351 . S
C528 N531 1.368 . S
C528 H533 0.931 . S
C529 C528 1.351 . S
C529 N530 1.373 . S
C529 H557 0.930 . S
N530 C529 1.373 . S
N530 C532 1.340 . S
N531 C528 1.368 . S
N531 C532 1.321 . S
N531 Co534 2.135 . S
C532 N530 1.340 . S
C532 N531 1.321 . S
C532 H556 0.930 . S
H533 C528 0.931 . S
Co534 N531 2.135 . S
Co534 N537 2.121 . S
Co534 O542 2.055 . S
Co534 O545 2.039 . S
Co534 N548 2.140 . S
C535 O536 1.227 . S
C535 O545 1.265 . S
O536 C535 1.227 . S
N537 Co534 2.121 . S
N537 C539 1.375 . S
N537 C540 1.313 . S
C538 C539 1.338 1_556 S
C538 N541 1.377 . S
C538 H558 0.930 . S
C539 N537 1.375 . S
C539 C538 1.338 1_554 S
C539 H543 0.931 . S
C540 N537 1.313 . S
C540 N541 1.344 1_554 S
C540 H544 0.930 . S
N541 C538 1.377 . S
N541 C540 1.344 1_556 S
O542 Co534 2.055 . S
O542 C546 1.253 . S
H543 C539 0.931 . S
H544 C540 0.930 . S
O545 Co534 2.039 . S
O545 C535 1.265 . S
C546 O542 1.253 . S
C546 O547 1.227 . S
O547 C546 1.227 . S
N548 Co534 2.140 . S
N548 C551 1.346 . S
N548 C552 1.345 . S
C549 C550 1.387 . S
C549 C553 1.391 . S
C550 C549 1.387 . S
C550 C551 1.369 . S
C550 H559 0.929 . S
C551 N548 1.346 . S
C551 C550 1.369 . S
C551 H554 0.928 . S
C552 N548 1.345 . S
C552 C553 1.371 . S
C552 H555 0.931 . S
C553 C549 1.391 . S
C553 C552 1.371 . S
C553 H560 0.930 . S
H554 C551 0.928 . S
H555 C552 0.931 . S
H556 C532 0.930 . S
H557 C529 0.930 . S
H558 C538 0.930 . S
H559 C550 0.929 . S
H560 C553 0.930 . S
C561 C562 1.351 . S
C561 N564 1.368 . S
C561 H566 0.931 . S
C562 C561 1.351 . S
C562 N563 1.373 . S
C562 H590 0.930 . S
N563 C562 1.373 . S
N563 C565 1.340 . S
N564 C561 1.368 . S
N564 C565 1.321 . S
N564 Co567 2.135 . S
C565 N563 1.340 . S
C565 N564 1.321 . S
C565 H589 0.930 . S
H566 C561 0.931 . S
Co567 N564 2.135 . S
Co567 N570 2.121 . S
Co567 O575 2.055 . S
Co567 O578 2.039 . S
Co567 N581 2.140 . S
C568 O569 1.227 . S
C568 O578 1.265 . S
O569 C568 1.227 . S
N570 Co567 2.121 . S
N570 C572 1.375 . S
N570 C573 1.313 . S
C571 C572 1.338 1_556 S
C571 N574 1.377 . S
C571 H591 0.930 . S
C572 N570 1.375 . S
C572 C571 1.338 1_554 S
C572 H576 0.931 . S
C573 N570 1.313 . S
C573 N574 1.344 1_554 S
C573 H577 0.930 . S
N574 C571 1.377 . S
N574 C573 1.344 1_556 S
O575 Co567 2.055 . S
O575 C579 1.253 . S
H576 C572 0.931 . S
H577 C573 0.930 . S
O578 Co567 2.039 . S
O578 C568 1.265 . S
C579 O575 1.253 . S
C579 O580 1.227 . S
O580 C579 1.227 . S
N581 Co567 2.140 . S
N581 C584 1.346 . S
N581 C585 1.345 . S
C582 C583 1.387 . S
C582 C586 1.391 . S
C583 C582 1.387 . S
C583 C584 1.369 . S
C583 H592 0.929 . S
C584 N581 1.346 . S
C584 C583 1.369 . S
C584 H587 0.928 . S
C585 N581 1.345 . S
C585 C586 1.371 . S
C585 H588 0.931 . S
C586 C582 1.391 . S
C586 C585 1.371 . S
C586 H593 0.930 . S
H587 C584 0.928 . S
H588 C585 0.931 . S
H589 C565 0.930 . S
H590 C562 0.930 . S
H591 C571 0.930 . S
H592 C583 0.929 . S
H593 C586 0.930 . S
C594 C595 1.351 . S
C594 N597 1.368 . S
C594 H599 0.931 . S
C595 C594 1.351 . S
C595 N596 1.373 . S
C595 H623 0.930 . S
N596 C595 1.373 . S
N596 C598 1.340 . S
N597 C594 1.368 . S
N597 C598 1.321 . S
N597 Co600 2.135 . S
C598 N596 1.340 . S
C598 N597 1.321 . S
C598 H622 0.930 . S
H599 C594 0.931 . S
Co600 N597 2.135 . S
Co600 N603 2.121 . S
Co600 O608 2.055 . S
Co600 O611 2.039 . S
Co600 N614 2.140 . S
C601 O602 1.227 . S
C601 O611 1.265 . S
O602 C601 1.227 . S
N603 Co600 2.121 . S
N603 C605 1.375 . S
N603 C606 1.313 . S
C604 C605 1.338 1_556 S
C604 N607 1.377 . S
C604 H624 0.930 . S
C605 N603 1.375 . S
C605 C604 1.338 1_554 S
C605 H609 0.931 . S
C606 N603 1.313 . S
C606 N607 1.344 1_554 S
C606 H610 0.930 . S
N607 C604 1.377 . S
N607 C606 1.344 1_556 S
O608 Co600 2.055 . S
O608 C612 1.253 . S
H609 C605 0.931 . S
H610 C606 0.930 . S
O611 Co600 2.039 . S
O611 C601 1.265 . S
C612 O608 1.253 . S
C612 O613 1.227 . S
O613 C612 1.227 . S
N614 Co600 2.140 . S
N614 C617 1.346 . S
N614 C618 1.345 . S
C615 C616 1.387 . S
C615 C619 1.391 . S
C616 C615 1.387 . S
C616 C617 1.369 . S
C616 H625 0.929 . S
C617 N614 1.346 . S
C617 C616 1.369 . S
C617 H620 0.928 . S
C618 N614 1.345 . S
C618 C619 1.371 . S
C618 H621 0.931 . S
C619 C615 1.391 . S
C619 C618 1.371 . S
C619 H626 0.930 . S
H620 C617 0.928 . S
H621 C618 0.931 . S
H622 C598 0.930 . S
H623 C595 0.930 . S
H624 C604 0.930 . S
H625 C616 0.929 . S
H626 C619 0.930 . S
C627 C628 1.351 . S
C627 N630 1.368 . S
C627 H632 0.931 . S
C628 C627 1.351 . S
C628 N629 1.373 . S
C628 H656 0.930 . S
N629 C628 1.373 . S
N629 C631 1.340 . S
N630 C627 1.368 . S
N630 C631 1.321 . S
N630 Co633 2.135 . S
C631 N629 1.340 . S
C631 N630 1.321 . S
C631 H655 0.930 . S
H632 C627 0.931 . S
Co633 N630 2.135 . S
Co633 N636 2.121 . S
Co633 O641 2.055 . S
Co633 O644 2.039 . S
Co633 N647 2.140 . S
C634 O635 1.227 . S
C634 O644 1.265 . S
O635 C634 1.227 . S
N636 Co633 2.121 . S
N636 C638 1.375 . S
N636 C639 1.313 . S
C637 C638 1.338 1_556 S
C637 N640 1.377 . S
C637 H657 0.930 . S
C638 N636 1.375 . S
C638 C637 1.338 1_554 S
C638 H642 0.931 . S
C639 N636 1.313 . S
C639 N640 1.344 1_554 S
C639 H643 0.930 . S
N640 C637 1.377 . S
N640 C639 1.344 1_556 S
O641 Co633 2.055 . S
O641 C645 1.253 . S
H642 C638 0.931 . S
H643 C639 0.930 . S
O644 Co633 2.039 . S
O644 C634 1.265 . S
C645 O641 1.253 . S
C645 O646 1.227 . S
O646 C645 1.227 . S
N647 Co633 2.140 . S
N647 C650 1.346 . S
N647 C651 1.345 . S
C648 C649 1.387 . S
C648 C652 1.391 . S
C649 C648 1.387 . S
C649 C650 1.369 . S
C649 H658 0.929 . S
C650 N647 1.346 . S
C650 C649 1.369 . S
C650 H653 0.928 . S
C651 N647 1.345 . S
C651 C652 1.371 . S
C651 H654 0.931 . S
C652 C648 1.391 . S
C652 C651 1.371 . S
C652 H659 0.930 . S
H653 C650 0.928 . S
H654 C651 0.931 . S
H655 C631 0.930 . S
H656 C628 0.930 . S
H657 C637 0.930 . S
H658 C649 0.929 . S
H659 C652 0.930 . S
C660 C661 1.351 . S
C660 N663 1.368 . S
C660 H665 0.931 . S
C661 C660 1.351 . S
C661 N662 1.373 . S
C661 H689 0.930 . S
N662 C661 1.373 . S
N662 C664 1.340 . S
N663 C660 1.368 . S
N663 C664 1.321 . S
N663 Co666 2.135 . S
C664 N662 1.340 . S
C664 N663 1.321 . S
C664 H688 0.930 . S
H665 C660 0.931 . S
Co666 N663 2.135 . S
Co666 N669 2.121 . S
Co666 O674 2.055 . S
Co666 O677 2.039 . S
Co666 N680 2.140 . S
C667 O668 1.227 . S
C667 O677 1.265 . S
O668 C667 1.227 . S
N669 Co666 2.121 . S
N669 C671 1.375 . S
N669 C672 1.313 . S
C670 C671 1.338 1_556 S
C670 N673 1.377 . S
C670 H690 0.930 . S
C671 N669 1.375 . S
C671 C670 1.338 1_554 S
C671 H675 0.931 . S
C672 N669 1.313 . S
C672 N673 1.344 1_554 S
C672 H676 0.930 . S
N673 C670 1.377 . S
N673 C672 1.344 1_556 S
O674 Co666 2.055 . S
O674 C678 1.253 . S
H675 C671 0.931 . S
H676 C672 0.930 . S
O677 Co666 2.039 . S
O677 C667 1.265 . S
C678 O674 1.253 . S
C678 O679 1.227 . S
O679 C678 1.227 . S
N680 Co666 2.140 . S
N680 C683 1.346 . S
N680 C684 1.345 . S
C681 C682 1.387 . S
C681 C685 1.391 . S
C682 C681 1.387 . S
C682 C683 1.369 . S
C682 H691 0.929 . S
C683 N680 1.346 . S
C683 C682 1.369 . S
C683 H686 0.928 . S
C684 N680 1.345 . S
C684 C685 1.371 . S
C684 H687 0.931 . S
C685 C681 1.391 . S
C685 C684 1.371 . S
C685 H692 0.930 . S
H686 C683 0.928 . S
H687 C684 0.931 . S
H688 C664 0.930 . S
H689 C661 0.930 . S
H690 C670 0.930 . S
H691 C682 0.929 . S
H692 C685 0.930 . S
C693 C694 1.351 1_554 S
C693 N696 1.368 . S
C693 H698 0.931 . S
C694 C693 1.351 1_556 S
C694 N695 1.373 . S
C694 H722 0.930 . S
N695 C694 1.373 . S
N695 C697 1.340 . S
N696 C693 1.368 . S
N696 C697 1.321 1_554 S
N696 Co699 2.135 . S
C697 N695 1.340 . S
C697 N696 1.321 1_556 S
C697 H721 0.930 . S
H698 C693 0.931 . S
Co699 N696 2.135 . S
Co699 N702 2.121 . S
Co699 O707 2.055 . S
Co699 O710 2.039 . S
Co699 N713 2.140 . S
C700 O701 1.227 . S
C700 O710 1.265 . S
O701 C700 1.227 . S
N702 Co699 2.121 . S
N702 C704 1.375 . S
N702 C705 1.313 . S
C703 C704 1.338 . S
C703 N706 1.377 . S
C703 H723 0.930 . S
C704 N702 1.375 . S
C704 C703 1.338 . S
C704 H708 0.931 . S
C705 N702 1.313 . S
C705 N706 1.344 . S
C705 H709 0.930 . S
N706 C703 1.377 . S
N706 C705 1.344 . S
O707 Co699 2.055 . S
O707 C711 1.253 . S
H708 C704 0.931 . S
H709 C705 0.930 . S
O710 Co699 2.039 . S
O710 C700 1.265 . S
C711 O707 1.253 . S
C711 O712 1.227 . S
O712 C711 1.227 . S
N713 Co699 2.140 . S
N713 C716 1.346 . S
N713 C717 1.345 . S
C714 C715 1.387 . S
C714 C718 1.391 . S
C715 C714 1.387 . S
C715 C716 1.369 . S
C715 H724 0.929 . S
C716 N713 1.346 . S
C716 C715 1.369 . S
C716 H719 0.928 . S
C717 N713 1.345 . S
C717 C718 1.371 . S
C717 H720 0.931 . S
C718 C714 1.391 . S
C718 C717 1.371 . S
C718 H725 0.930 . S
H719 C716 0.928 . S
H720 C717 0.931 . S
H721 C697 0.930 . S
H722 C694 0.930 . S
H723 C703 0.930 . S
H724 C715 0.929 . S
H725 C718 0.930 . S
C726 C727 1.351 1_554 S
C726 N729 1.368 . S
C726 H731 0.931 . S
C727 C726 1.351 1_556 S
C727 N728 1.373 . S
C727 H755 0.930 . S
N728 C727 1.373 . S
N728 C730 1.340 . S
N729 C726 1.368 . S
N729 C730 1.321 1_554 S
N729 Co732 2.135 . S
C730 N728 1.340 . S
C730 N729 1.321 1_556 S
C730 H754 0.930 . S
H731 C726 0.931 . S
Co732 N729 2.135 . S
Co732 N735 2.121 . S
Co732 O740 2.055 . S
Co732 O743 2.039 . S
Co732 N746 2.140 . S
C733 O734 1.227 . S
C733 O743 1.265 . S
O734 C733 1.227 . S
N735 Co732 2.121 . S
N735 C737 1.375 . S
N735 C738 1.313 . S
C736 C737 1.338 . S
C736 N739 1.377 . S
C736 H756 0.930 . S
C737 N735 1.375 . S
C737 C736 1.338 . S
C737 H741 0.931 . S
C738 N735 1.313 . S
C738 N739 1.344 . S
C738 H742 0.930 . S
N739 C736 1.377 . S
N739 C738 1.344 . S
O740 Co732 2.055 . S
O740 C744 1.253 . S
H741 C737 0.931 . S
H742 C738 0.930 . S
O743 Co732 2.039 . S
O743 C733 1.265 . S
C744 O740 1.253 . S
C744 O745 1.227 . S
O745 C744 1.227 . S
N746 Co732 2.140 . S
N746 C749 1.346 . S
N746 C750 1.345 . S
C747 C748 1.387 . S
C747 C751 1.391 . S
C748 C747 1.387 . S
C748 C749 1.369 . S
C748 H757 0.929 . S
C749 N746 1.346 . S
C749 C748 1.369 . S
C749 H752 0.928 . S
C750 N746 1.345 . S
C750 C751 1.371 . S
C750 H753 0.931 . S
C751 C747 1.391 . S
C751 C750 1.371 . S
C751 H758 0.930 . S
H752 C749 0.928 . S
H753 C750 0.931 . S
H754 C730 0.930 . S
H755 C727 0.930 . S
H756 C736 0.930 . S
H757 C748 0.929 . S
H758 C751 0.930 . S
C759 C760 1.351 1_554 S
C759 N762 1.368 . S
C759 H764 0.931 . S
C760 C759 1.351 1_556 S
C760 N761 1.373 . S
C760 H788 0.930 . S
N761 C760 1.373 . S
N761 C763 1.340 . S
N762 C759 1.368 . S
N762 C763 1.321 1_554 S
N762 Co765 2.135 . S
C763 N761 1.340 . S
C763 N762 1.321 1_556 S
C763 H787 0.930 . S
H764 C759 0.931 . S
Co765 N762 2.135 . S
Co765 N768 2.121 . S
Co765 O773 2.055 . S
Co765 O776 2.039 . S
Co765 N779 2.140 . S
C766 O767 1.227 . S
C766 O776 1.265 . S
O767 C766 1.227 . S
N768 Co765 2.121 . S
N768 C770 1.375 . S
N768 C771 1.313 . S
C769 C770 1.338 . S
C769 N772 1.377 . S
C769 H789 0.930 . S
C770 N768 1.375 . S
C770 C769 1.338 . S
C770 H774 0.931 . S
C771 N768 1.313 . S
C771 N772 1.344 . S
C771 H775 0.930 . S
N772 C769 1.377 . S
N772 C771 1.344 . S
O773 Co765 2.055 . S
O773 C777 1.253 . S
H774 C770 0.931 . S
H775 C771 0.930 . S
O776 Co765 2.039 . S
O776 C766 1.265 . S
C777 O773 1.253 . S
C777 O778 1.227 . S
O778 C777 1.227 . S
N779 Co765 2.140 . S
N779 C782 1.346 . S
N779 C783 1.345 . S
C780 C781 1.387 . S
C780 C784 1.391 . S
C781 C780 1.387 . S
C781 C782 1.369 . S
C781 H790 0.929 . S
C782 N779 1.346 . S
C782 C781 1.369 . S
C782 H785 0.928 . S
C783 N779 1.345 . S
C783 C784 1.371 . S
C783 H786 0.931 . S
C784 C780 1.391 . S
C784 C783 1.371 . S
C784 H791 0.930 . S
H785 C782 0.928 . S
H786 C783 0.931 . S
H787 C763 0.930 . S
H788 C760 0.930 . S
H789 C769 0.930 . S
H790 C781 0.929 . S
H791 C784 0.930 . S
C792 C793 1.351 . S
C792 N795 1.368 . S
C792 H797 0.931 . S
C793 C792 1.351 . S
C793 N794 1.373 . S
C793 H821 0.930 . S
N794 C793 1.373 . S
N794 C796 1.340 . S
N795 C792 1.368 . S
N795 C796 1.321 . S
N795 Co798 2.135 . S
C796 N794 1.340 . S
C796 N795 1.321 . S
C796 H820 0.930 . S
H797 C792 0.931 . S
Co798 N795 2.135 . S
Co798 N801 2.121 . S
Co798 O806 2.055 . S
Co798 O809 2.039 . S
Co798 N812 2.140 . S
C799 O800 1.227 . S
C799 O809 1.265 . S
O800 C799 1.227 . S
N801 Co798 2.121 . S
N801 C803 1.375 . S
N801 C804 1.313 . S
C802 C803 1.338 1_554 S
C802 N805 1.377 . S
C802 H822 0.930 . S
C803 N801 1.375 . S
C803 C802 1.338 1_556 S
C803 H807 0.931 . S
C804 N801 1.313 . S
C804 N805 1.344 1_556 S
C804 H808 0.930 . S
N805 C802 1.377 . S
N805 C804 1.344 1_554 S
O806 Co798 2.055 . S
O806 C810 1.253 . S
H807 C803 0.931 . S
H808 C804 0.930 . S
O809 Co798 2.039 . S
O809 C799 1.265 . S
C810 O806 1.253 . S
C810 O811 1.227 . S
O811 C810 1.227 . S
N812 Co798 2.140 . S
N812 C815 1.346 . S
N812 C816 1.345 . S
C813 C814 1.387 . S
C813 C817 1.391 . S
C814 C813 1.387 . S
C814 C815 1.369 . S
C814 H823 0.929 . S
C815 N812 1.346 . S
C815 C814 1.369 . S
C815 H818 0.928 . S
C816 N812 1.345 . S
C816 C817 1.371 . S
C816 H819 0.931 . S
C817 C813 1.391 . S
C817 C816 1.371 . S
C817 H824 0.930 . S
H818 C815 0.928 . S
H819 C816 0.931 . S
H820 C796 0.930 . S
H821 C793 0.930 . S
H822 C802 0.930 . S
H823 C814 0.929 . S
H824 C817 0.930 . S
C825 C826 1.351 . S
C825 N828 1.368 . S
C825 H830 0.931 . S
C826 C825 1.351 . S
C826 N827 1.373 . S
C826 H854 0.930 . S
N827 C826 1.373 . S
N827 C829 1.340 . S
N828 C825 1.368 . S
N828 C829 1.321 . S
N828 Co831 2.135 . S
C829 N827 1.340 . S
C829 N828 1.321 . S
C829 H853 0.930 . S
H830 C825 0.931 . S
Co831 N828 2.135 . S
Co831 N834 2.121 . S
Co831 O839 2.055 . S
Co831 O842 2.039 . S
Co831 N845 2.140 . S
C832 O833 1.227 . S
C832 O842 1.265 . S
O833 C832 1.227 . S
N834 Co831 2.121 . S
N834 C836 1.375 . S
N834 C837 1.313 . S
C835 C836 1.338 1_554 S
C835 N838 1.377 . S
C835 H855 0.930 . S
C836 N834 1.375 . S
C836 C835 1.338 1_556 S
C836 H840 0.931 . S
C837 N834 1.313 . S
C837 N838 1.344 1_556 S
C837 H841 0.930 . S
N838 C835 1.377 . S
N838 C837 1.344 1_554 S
O839 Co831 2.055 . S
O839 C843 1.253 . S
H840 C836 0.931 . S
H841 C837 0.930 . S
O842 Co831 2.039 . S
O842 C832 1.265 . S
C843 O839 1.253 . S
C843 O844 1.227 . S
O844 C843 1.227 . S
N845 Co831 2.140 . S
N845 C848 1.346 . S
N845 C849 1.345 . S
C846 C847 1.387 . S
C846 C850 1.391 . S
C847 C846 1.387 . S
C847 C848 1.369 . S
C847 H856 0.929 . S
C848 N845 1.346 . S
C848 C847 1.369 . S
C848 H851 0.928 . S
C849 N845 1.345 . S
C849 C850 1.371 . S
C849 H852 0.931 . S
C850 C846 1.391 . S
C850 C849 1.371 . S
C850 H857 0.930 . S
H851 C848 0.928 . S
H852 C849 0.931 . S
H853 C829 0.930 . S
H854 C826 0.930 . S
H855 C835 0.930 . S
H856 C847 0.929 . S
H857 C850 0.930 . S
C858 C859 1.351 . S
C858 N861 1.368 . S
C858 H863 0.931 . S
C859 C858 1.351 . S
C859 N860 1.373 . S
C859 H887 0.930 . S
N860 C859 1.373 . S
N860 C862 1.340 . S
N861 C858 1.368 . S
N861 C862 1.321 . S
N861 Co864 2.135 . S
C862 N860 1.340 . S
C862 N861 1.321 . S
C862 H886 0.930 . S
H863 C858 0.931 . S
Co864 N861 2.135 . S
Co864 N867 2.121 . S
Co864 O872 2.055 . S
Co864 O875 2.039 . S
Co864 N878 2.140 . S
C865 O866 1.227 . S
C865 O875 1.265 . S
O866 C865 1.227 . S
N867 Co864 2.121 . S
N867 C869 1.375 . S
N867 C870 1.313 . S
C868 C869 1.338 1_554 S
C868 N871 1.377 . S
C868 H888 0.930 . S
C869 N867 1.375 . S
C869 C868 1.338 1_556 S
C869 H873 0.931 . S
C870 N867 1.313 . S
C870 N871 1.344 1_556 S
C870 H874 0.930 . S
N871 C868 1.377 . S
N871 C870 1.344 1_554 S
O872 Co864 2.055 . S
O872 C876 1.253 . S
H873 C869 0.931 . S
H874 C870 0.930 . S
O875 Co864 2.039 . S
O875 C865 1.265 . S
C876 O872 1.253 . S
C876 O877 1.227 . S
O877 C876 1.227 . S
N878 Co864 2.140 . S
N878 C881 1.346 . S
N878 C882 1.345 . S
C879 C880 1.387 . S
C879 C883 1.391 . S
C880 C879 1.387 . S
C880 C881 1.369 . S
C880 H889 0.929 . S
C881 N878 1.346 . S
C881 C880 1.369 . S
C881 H884 0.928 . S
C882 N878 1.345 . S
C882 C883 1.371 . S
C882 H885 0.931 . S
C883 C879 1.391 . S
C883 C882 1.371 . S
C883 H890 0.930 . S
H884 C881 0.928 . S
H885 C882 0.931 . S
H886 C862 0.930 . S
H887 C859 0.930 . S
H888 C868 0.930 . S
H889 C880 0.929 . S
H890 C883 0.930 . S
C891 C892 1.351 1_556 S
C891 N894 1.368 . S
C891 H896 0.931 . S
C892 C891 1.351 1_554 S
C892 N893 1.373 . S
C892 H920 0.930 . S
N893 C892 1.373 . S
N893 C895 1.340 . S
N894 C891 1.368 . S
N894 C895 1.321 1_556 S
N894 Co897 2.135 . S
C895 N893 1.340 . S
C895 N894 1.321 1_554 S
C895 H919 0.930 . S
H896 C891 0.931 . S
Co897 N894 2.135 . S
Co897 N900 2.121 . S
Co897 O905 2.055 . S
Co897 O908 2.039 . S
Co897 N911 2.140 . S
C898 O899 1.227 . S
C898 O908 1.265 . S
O899 C898 1.227 . S
N900 Co897 2.121 . S
N900 C902 1.375 . S
N900 C903 1.313 . S
C901 C902 1.338 . S
C901 N904 1.377 . S
C901 H921 0.930 . S
C902 N900 1.375 . S
C902 C901 1.338 . S
C902 H906 0.931 . S
C903 N900 1.313 . S
C903 N904 1.344 . S
C903 H907 0.930 . S
N904 C901 1.377 . S
N904 C903 1.344 . S
O905 Co897 2.055 . S
O905 C909 1.253 . S
H906 C902 0.931 . S
H907 C903 0.930 . S
O908 Co897 2.039 . S
O908 C898 1.265 . S
C909 O905 1.253 . S
C909 O910 1.227 . S
O910 C909 1.227 . S
N911 Co897 2.140 . S
N911 C914 1.346 . S
N911 C915 1.345 . S
C912 C913 1.387 . S
C912 C916 1.391 . S
C913 C912 1.387 . S
C913 C914 1.369 . S
C913 H922 0.929 . S
C914 N911 1.346 . S
C914 C913 1.369 . S
C914 H917 0.928 . S
C915 N911 1.345 . S
C915 C916 1.371 . S
C915 H918 0.931 . S
C916 C912 1.391 . S
C916 C915 1.371 . S
C916 H923 0.930 . S
H917 C914 0.928 . S
H918 C915 0.931 . S
H919 C895 0.930 . S
H920 C892 0.930 . S
H921 C901 0.930 . S
H922 C913 0.929 . S
H923 C916 0.930 . S
C924 C925 1.351 1_556 S
C924 N927 1.368 . S
C924 H929 0.931 . S
C925 C924 1.351 1_554 S
C925 N926 1.373 . S
C925 H953 0.930 . S
N926 C925 1.373 . S
N926 C928 1.340 . S
N927 C924 1.368 . S
N927 C928 1.321 1_556 S
N927 Co930 2.135 . S
C928 N926 1.340 . S
C928 N927 1.321 1_554 S
C928 H952 0.930 . S
H929 C924 0.931 . S
Co930 N927 2.135 . S
Co930 N933 2.121 . S
Co930 O938 2.055 . S
Co930 O941 2.039 . S
Co930 N944 2.140 . S
C931 O932 1.227 . S
C931 O941 1.265 . S
O932 C931 1.227 . S
N933 Co930 2.121 . S
N933 C935 1.375 . S
N933 C936 1.313 . S
C934 C935 1.338 . S
C934 N937 1.377 . S
C934 H954 0.930 . S
C935 N933 1.375 . S
C935 C934 1.338 . S
C935 H939 0.931 . S
C936 N933 1.313 . S
C936 N937 1.344 . S
C936 H940 0.930 . S
N937 C934 1.377 . S
N937 C936 1.344 . S
O938 Co930 2.055 . S
O938 C942 1.253 . S
H939 C935 0.931 . S
H940 C936 0.930 . S
O941 Co930 2.039 . S
O941 C931 1.265 . S
C942 O938 1.253 . S
C942 O943 1.227 . S
O943 C942 1.227 . S
N944 Co930 2.140 . S
N944 C947 1.346 . S
N944 C948 1.345 . S
C945 C946 1.387 . S
C945 C949 1.391 . S
C946 C945 1.387 . S
C946 C947 1.369 . S
C946 H955 0.929 . S
C947 N944 1.346 . S
C947 C946 1.369 . S
C947 H950 0.928 . S
C948 N944 1.345 . S
C948 C949 1.371 . S
C948 H951 0.931 . S
C949 C945 1.391 . S
C949 C948 1.371 . S
C949 H956 0.930 . S
H950 C947 0.928 . S
H951 C948 0.931 . S
H952 C928 0.930 . S
H953 C925 0.930 . S
H954 C934 0.930 . S
H955 C946 0.929 . S
H956 C949 0.930 . S
C957 C958 1.351 1_556 S
C957 N960 1.368 . S
C957 H962 0.931 . S
C958 C957 1.351 1_554 S
C958 N959 1.373 . S
C958 H986 0.930 . S
N959 C958 1.373 . S
N959 C961 1.340 . S
N960 C957 1.368 . S
N960 C961 1.321 1_556 S
N960 Co963 2.135 . S
C961 N959 1.340 . S
C961 N960 1.321 1_554 S
C961 H985 0.930 . S
H962 C957 0.931 . S
Co963 N960 2.135 . S
Co963 N966 2.121 . S
Co963 O971 2.055 . S
Co963 O974 2.039 . S
Co963 N977 2.140 . S
C964 O965 1.227 . S
C964 O974 1.265 . S
O965 C964 1.227 . S
N966 Co963 2.121 . S
N966 C968 1.375 . S
N966 C969 1.313 . S
C967 C968 1.338 . S
C967 N970 1.377 . S
C967 H987 0.930 . S
C968 N966 1.375 . S
C968 C967 1.338 . S
C968 H972 0.931 . S
C969 N966 1.313 . S
C969 N970 1.344 . S
C969 H973 0.930 . S
N970 C967 1.377 . S
N970 C969 1.344 . S
O971 Co963 2.055 . S
O971 C975 1.253 . S
H972 C968 0.931 . S
H973 C969 0.930 . S
O974 Co963 2.039 . S
O974 C964 1.265 . S
C975 O971 1.253 . S
C975 O976 1.227 . S
O976 C975 1.227 . S
N977 Co963 2.140 . S
N977 C980 1.346 . S
N977 C981 1.345 . S
C978 C979 1.387 . S
C978 C982 1.391 . S
C979 C978 1.387 . S
C979 C980 1.369 . S
C979 H988 0.929 . S
C980 N977 1.346 . S
C980 C979 1.369 . S
C980 H983 0.928 . S
C981 N977 1.345 . S
C981 C982 1.371 . S
C981 H984 0.931 . S
C982 C978 1.391 . S
C982 C981 1.371 . S
C982 H989 0.930 . S
H983 C980 0.928 . S
H984 C981 0.931 . S
H985 C961 0.930 . S
H986 C958 0.930 . S
H987 C967 0.930 . S
H988 C979 0.929 . S
H989 C982 0.930 . S
C990 C991 1.351 1_556 S
C990 N993 1.368 . S
C990 H995 0.931 . S
C991 C990 1.351 1_554 S
C991 N992 1.373 . S
C991 H1019 0.930 . S
N992 C991 1.373 . S
N992 C994 1.340 . S
N993 C990 1.368 . S
N993 C994 1.321 1_556 S
N993 Co996 2.135 . S
C994 N992 1.340 . S
C994 N993 1.321 1_554 S
C994 H1018 0.930 . S
H995 C990 0.931 . S
Co996 N993 2.135 . S
Co996 N999 2.121 . S
Co996 O1004 2.055 . S
Co996 O1007 2.039 . S
Co996 N1010 2.140 . S
C997 O998 1.227 . S
C997 O1007 1.265 . S
O998 C997 1.227 . S
N999 Co996 2.121 . S
N999 C1001 1.375 . S
N999 C1002 1.313 . S
C1000 C1001 1.338 . S
C1000 N1003 1.377 . S
C1000 H1020 0.930 . S
C1001 N999 1.375 . S
C1001 C1000 1.338 . S
C1001 H1005 0.931 . S
C1002 N999 1.313 . S
C1002 N1003 1.344 . S
C1002 H1006 0.930 . S
N1003 C1000 1.377 . S
N1003 C1002 1.344 . S
O1004 Co996 2.055 . S
O1004 C1008 1.253 . S
H1005 C1001 0.931 . S
H1006 C1002 0.930 . S
O1007 Co996 2.039 . S
O1007 C997 1.265 . S
C1008 O1004 1.253 . S
C1008 O1009 1.227 . S
O1009 C1008 1.227 . S
N1010 Co996 2.140 . S
N1010 C1013 1.346 . S
N1010 C1014 1.345 . S
C1011 C1012 1.387 . S
C1011 C1015 1.391 . S
C1012 C1011 1.387 . S
C1012 C1013 1.369 . S
C1012 H1021 0.929 . S
C1013 N1010 1.346 . S
C1013 C1012 1.369 . S
C1013 H1016 0.928 . S
C1014 N1010 1.345 . S
C1014 C1015 1.371 . S
C1014 H1017 0.931 . S
C1015 C1011 1.391 . S
C1015 C1014 1.371 . S
C1015 H1022 0.930 . S
H1016 C1013 0.928 . S
H1017 C1014 0.931 . S
H1018 C994 0.930 . S
H1019 C991 0.930 . S
H1020 C1000 0.930 . S
H1021 C1012 0.929 . S
H1022 C1015 0.930 . S
C1023 C1024 1.351 1_556 S
C1023 N1026 1.368 . S
C1023 H1028 0.931 . S
C1024 C1023 1.351 1_554 S
C1024 N1025 1.373 . S
C1024 H1052 0.930 . S
N1025 C1024 1.373 . S
N1025 C1027 1.340 . S
N1026 C1023 1.368 . S
N1026 C1027 1.321 1_556 S
N1026 Co1029 2.135 . S
C1027 N1025 1.340 . S
C1027 N1026 1.321 1_554 S
C1027 H1051 0.930 . S
H1028 C1023 0.931 . S
Co1029 N1026 2.135 . S
Co1029 N1032 2.121 . S
Co1029 O1037 2.055 . S
Co1029 O1040 2.039 . S
Co1029 N1043 2.140 . S
C1030 O1031 1.227 . S
C1030 O1040 1.265 . S
O1031 C1030 1.227 . S
N1032 Co1029 2.121 . S
N1032 C1034 1.375 . S
N1032 C1035 1.313 . S
C1033 C1034 1.338 . S
C1033 N1036 1.377 . S
C1033 H1053 0.930 . S
C1034 N1032 1.375 . S
C1034 C1033 1.338 . S
C1034 H1038 0.931 . S
C1035 N1032 1.313 . S
C1035 N1036 1.344 . S
C1035 H1039 0.930 . S
N1036 C1033 1.377 . S
N1036 C1035 1.344 . S
O1037 Co1029 2.055 . S
O1037 C1041 1.253 . S
H1038 C1034 0.931 . S
H1039 C1035 0.930 . S
O1040 Co1029 2.039 . S
O1040 C1030 1.265 . S
C1041 O1037 1.253 . S
C1041 O1042 1.227 . S
O1042 C1041 1.227 . S
N1043 Co1029 2.140 . S
N1043 C1046 1.346 . S
N1043 C1047 1.345 . S
C1044 C1045 1.387 . S
C1044 C1048 1.391 . S
C1045 C1044 1.387 . S
C1045 C1046 1.369 . S
C1045 H1054 0.929 . S
C1046 N1043 1.346 . S
C1046 C1045 1.369 . S
C1046 H1049 0.928 . S
C1047 N1043 1.345 . S
C1047 C1048 1.371 . S
C1047 H1050 0.931 . S
C1048 C1044 1.391 . S
C1048 C1047 1.371 . S
C1048 H1055 0.930 . S
H1049 C1046 0.928 . S
H1050 C1047 0.931 . S
H1051 C1027 0.930 . S
H1052 C1024 0.930 . S
H1053 C1033 0.930 . S
H1054 C1045 0.929 . S
H1055 C1048 0.930 . S
C1056 C1057 1.351 1_556 S
C1056 N1059 1.368 . S
C1056 H1061 0.931 . S
C1057 C1056 1.351 1_554 S
C1057 N1058 1.373 . S
C1057 H1085 0.930 . S
N1058 C1057 1.373 . S
N1058 C1060 1.340 . S
N1059 C1056 1.368 . S
N1059 C1060 1.321 1_556 S
N1059 Co1062 2.135 . S
C1060 N1058 1.340 . S
C1060 N1059 1.321 1_554 S
C1060 H1084 0.930 . S
H1061 C1056 0.931 . S
Co1062 N1059 2.135 . S
Co1062 N1065 2.121 . S
Co1062 O1070 2.055 . S
Co1062 O1073 2.039 . S
Co1062 N1076 2.140 . S
C1063 O1064 1.227 . S
C1063 O1073 1.265 . S
O1064 C1063 1.227 . S
N1065 Co1062 2.121 . S
N1065 C1067 1.375 . S
N1065 C1068 1.313 . S
C1066 C1067 1.338 . S
C1066 N1069 1.377 . S
C1066 H1086 0.930 . S
C1067 N1065 1.375 . S
C1067 C1066 1.338 . S
C1067 H1071 0.931 . S
C1068 N1065 1.313 . S
C1068 N1069 1.344 . S
C1068 H1072 0.930 . S
N1069 C1066 1.377 . S
N1069 C1068 1.344 . S
O1070 Co1062 2.055 . S
O1070 C1074 1.253 . S
H1071 C1067 0.931 . S
H1072 C1068 0.930 . S
O1073 Co1062 2.039 . S
O1073 C1063 1.265 . S
C1074 O1070 1.253 . S
C1074 O1075 1.227 . S
O1075 C1074 1.227 . S
N1076 Co1062 2.140 . S
N1076 C1079 1.346 . S
N1076 C1080 1.345 . S
C1077 C1078 1.387 . S
C1077 C1081 1.391 . S
C1078 C1077 1.387 . S
C1078 C1079 1.369 . S
C1078 H1087 0.929 . S
C1079 N1076 1.346 . S
C1079 C1078 1.369 . S
C1079 H1082 0.928 . S
C1080 N1076 1.345 . S
C1080 C1081 1.371 . S
C1080 H1083 0.931 . S
C1081 C1077 1.391 . S
C1081 C1080 1.371 . S
C1081 H1088 0.930 . S
H1082 C1079 0.928 . S
H1083 C1080 0.931 . S
H1084 C1060 0.930 . S
H1085 C1057 0.930 . S
H1086 C1066 0.930 . S
H1087 C1078 0.929 . S
H1088 C1081 0.930 . S
C1089 C1090 1.351 . S
C1089 N1092 1.368 . S
C1089 H1094 0.931 . S
C1090 C1089 1.351 . S
C1090 N1091 1.373 . S
C1090 H1118 0.930 . S
N1091 C1090 1.373 . S
N1091 C1093 1.340 . S
N1092 C1089 1.368 . S
N1092 C1093 1.321 . S
N1092 Co1095 2.135 . S
C1093 N1091 1.340 . S
C1093 N1092 1.321 . S
C1093 H1117 0.930 . S
H1094 C1089 0.931 . S
Co1095 N1092 2.135 . S
Co1095 N1098 2.121 . S
Co1095 O1103 2.055 . S
Co1095 O1106 2.039 . S
Co1095 N1109 2.140 . S
C1096 O1097 1.227 . S
C1096 O1106 1.265 . S
O1097 C1096 1.227 . S
N1098 Co1095 2.121 . S
N1098 C1100 1.375 . S
N1098 C1101 1.313 . S
C1099 C1100 1.338 1_554 S
C1099 N1102 1.377 . S
C1099 H1119 0.930 . S
C1100 N1098 1.375 . S
C1100 C1099 1.338 1_556 S
C1100 H1104 0.931 . S
C1101 N1098 1.313 . S
C1101 N1102 1.344 1_556 S
C1101 H1105 0.930 . S
N1102 C1099 1.377 . S
N1102 C1101 1.344 1_554 S
O1103 Co1095 2.055 . S
O1103 C1107 1.253 . S
H1104 C1100 0.931 . S
H1105 C1101 0.930 . S
O1106 Co1095 2.039 . S
O1106 C1096 1.265 . S
C1107 O1103 1.253 . S
C1107 O1108 1.227 . S
O1108 C1107 1.227 . S
N1109 Co1095 2.140 . S
N1109 C1112 1.346 . S
N1109 C1113 1.345 . S
C1110 C1111 1.387 . S
C1110 C1114 1.391 . S
C1111 C1110 1.387 . S
C1111 C1112 1.369 . S
C1111 H1120 0.929 . S
C1112 N1109 1.346 . S
C1112 C1111 1.369 . S
C1112 H1115 0.928 . S
C1113 N1109 1.345 . S
C1113 C1114 1.371 . S
C1113 H1116 0.931 . S
C1114 C1110 1.391 . S
C1114 C1113 1.371 . S
C1114 H1121 0.930 . S
H1115 C1112 0.928 . S
H1116 C1113 0.931 . S
H1117 C1093 0.930 . S
H1118 C1090 0.930 . S
H1119 C1099 0.930 . S
H1120 C1111 0.929 . S
H1121 C1114 0.930 . S
C1122 C1123 1.351 . S
C1122 N1125 1.368 . S
C1122 H1127 0.931 . S
C1123 C1122 1.351 . S
C1123 N1124 1.373 . S
C1123 H1151 0.930 . S
N1124 C1123 1.373 . S
N1124 C1126 1.340 . S
N1125 C1122 1.368 . S
N1125 C1126 1.321 . S
N1125 Co1128 2.135 . S
C1126 N1124 1.340 . S
C1126 N1125 1.321 . S
C1126 H1150 0.930 . S
H1127 C1122 0.931 . S
Co1128 N1125 2.135 . S
Co1128 N1131 2.121 . S
Co1128 O1136 2.055 . S
Co1128 O1139 2.039 . S
Co1128 N1142 2.140 . S
C1129 O1130 1.227 . S
C1129 O1139 1.265 . S
O1130 C1129 1.227 . S
N1131 Co1128 2.121 . S
N1131 C1133 1.375 . S
N1131 C1134 1.313 . S
C1132 C1133 1.338 1_554 S
C1132 N1135 1.377 . S
C1132 H1152 0.930 . S
C1133 N1131 1.375 . S
C1133 C1132 1.338 1_556 S
C1133 H1137 0.931 . S
C1134 N1131 1.313 . S
C1134 N1135 1.344 1_556 S
C1134 H1138 0.930 . S
N1135 C1132 1.377 . S
N1135 C1134 1.344 1_554 S
O1136 Co1128 2.055 . S
O1136 C1140 1.253 . S
H1137 C1133 0.931 . S
H1138 C1134 0.930 . S
O1139 Co1128 2.039 . S
O1139 C1129 1.265 . S
C1140 O1136 1.253 . S
C1140 O1141 1.227 . S
O1141 C1140 1.227 . S
N1142 Co1128 2.140 . S
N1142 C1145 1.346 . S
N1142 C1146 1.345 . S
C1143 C1144 1.387 . S
C1143 C1147 1.391 . S
C1144 C1143 1.387 . S
C1144 C1145 1.369 . S
C1144 H1153 0.929 . S
C1145 N1142 1.346 . S
C1145 C1144 1.369 . S
C1145 H1148 0.928 . S
C1146 N1142 1.345 . S
C1146 C1147 1.371 . S
C1146 H1149 0.931 . S
C1147 C1143 1.391 . S
C1147 C1146 1.371 . S
C1147 H1154 0.930 . S
H1148 C1145 0.928 . S
H1149 C1146 0.931 . S
H1150 C1126 0.930 . S
H1151 C1123 0.930 . S
H1152 C1132 0.930 . S
H1153 C1144 0.929 . S
H1154 C1147 0.930 . S
C1155 C1156 1.351 . S
C1155 N1158 1.368 . S
C1155 H1160 0.931 . S
C1156 C1155 1.351 . S
C1156 N1157 1.373 . S
C1156 H1184 0.930 . S
N1157 C1156 1.373 . S
N1157 C1159 1.340 . S
N1158 C1155 1.368 . S
N1158 C1159 1.321 . S
N1158 Co1161 2.135 . S
C1159 N1157 1.340 . S
C1159 N1158 1.321 . S
C1159 H1183 0.930 . S
H1160 C1155 0.931 . S
Co1161 N1158 2.135 . S
Co1161 N1164 2.121 . S
Co1161 O1169 2.055 . S
Co1161 O1172 2.039 . S
Co1161 N1175 2.140 . S
C1162 O1163 1.227 . S
C1162 O1172 1.265 . S
O1163 C1162 1.227 . S
N1164 Co1161 2.121 . S
N1164 C1166 1.375 . S
N1164 C1167 1.313 . S
C1165 C1166 1.338 1_554 S
C1165 N1168 1.377 . S
C1165 H1185 0.930 . S
C1166 N1164 1.375 . S
C1166 C1165 1.338 1_556 S
C1166 H1170 0.931 . S
C1167 N1164 1.313 . S
C1167 N1168 1.344 1_556 S
C1167 H1171 0.930 . S
N1168 C1165 1.377 . S
N1168 C1167 1.344 1_554 S
O1169 Co1161 2.055 . S
O1169 C1173 1.253 . S
H1170 C1166 0.931 . S
H1171 C1167 0.930 . S
O1172 Co1161 2.039 . S
O1172 C1162 1.265 . S
C1173 O1169 1.253 . S
C1173 O1174 1.227 . S
O1174 C1173 1.227 . S
N1175 Co1161 2.140 . S
N1175 C1178 1.346 . S
N1175 C1179 1.345 . S
C1176 C1177 1.387 . S
C1176 C1180 1.391 . S
C1177 C1176 1.387 . S
C1177 C1178 1.369 . S
C1177 H1186 0.929 . S
C1178 N1175 1.346 . S
C1178 C1177 1.369 . S
C1178 H1181 0.928 . S
C1179 N1175 1.345 . S
C1179 C1180 1.371 . S
C1179 H1182 0.931 . S
C1180 C1176 1.391 . S
C1180 C1179 1.371 . S
C1180 H1187 0.930 . S
H1181 C1178 0.928 . S
H1182 C1179 0.931 . S
H1183 C1159 0.930 . S
H1184 C1156 0.930 . S
H1185 C1165 0.930 . S
H1186 C1177 0.929 . S
H1187 C1180 0.930 . S
C18 C513 1.666 . S
C546 C51 1.666 . S
C84 C579 1.665 . S
C810 C117 1.666 . S
C843 C150 1.666 . S
C183 C876 1.666 . S
C216 C1107 1.665 . S
C1140 C249 1.666 . S
C282 C1173 1.665 . S
C612 C315 1.666 . S
C348 C645 1.666 . S
C678 C381 1.666 . S
C414 C909 1.805 . S
C447 C942 1.806 1_545 S
C975 C480 1.806 1_455 S
C1008 C711 1.805 . S
C1041 C744 1.806 1_565 S
C777 C1074 1.806 1_655 S
C21 C384 1.613 . S
C54 C318 1.613 . S
C87 C351 1.613 . S
C252 C120 1.613 . S
C285 C153 1.613 . S
C186 C219 1.613 . S
C417 C780 1.637 . S
C714 C450 1.637 . S
C483 C747 1.637 . S
C516 C648 1.626 . S
C549 C681 1.626 . S
C582 C615 1.626 . S
C813 C1176 1.626 . S
C1110 C846 1.626 . S
C1143 C879 1.626 . S
C1044 C912 1.637 . S
C945 C1077 1.637 . S
C978 C1011 1.637 . S
C964 C7 1.654 . S
C40 C898 1.655 . S
C73 C931 1.654 . S
C436 C106 1.654 . S
C139 C469 1.654 . S
C172 C403 1.654 . S
C766 C205 1.654 . S
C238 C700 1.655 . S
C733 C271 1.654 . S
C1030 C304 1.654 . S
C1063 C337 1.654 . S
C997 C370 1.654 . S
C502 C832 1.599 1_455 S
C865 C535 1.599 . S
C568 C799 1.599 1_565 S
C601 C1162 1.599 1_565 S
C634 C1096 1.599 1_455 S
C667 C1129 1.599 . S
N13 N2 2.218 . S
N46 N35 2.219 . S
N79 N68 2.218 . S
N101 N112 2.219 . S
N145 N134 2.218 . S
N167 N178 2.219 . S
N211 N200 2.218 . S
N233 N244 2.219 . S
N266 N277 2.218 . S
N310 N299 2.219 . S
N343 N332 2.218 . S
N365 N376 2.219 . S
N398 N409 2.273 . S
N431 N442 2.273 . S
N475 N464 2.273 . S
N497 N508 2.161 . S
N530 N541 2.161 . S
N574 N563 2.161 . S
N596 N607 2.161 . S
N640 N629 2.161 . S
N673 N662 2.161 . S
N695 N706 2.273 . S
N728 N739 2.273 . S
N761 N772 2.273 . S
N794 N805 2.161 . S
N827 N838 2.162 . S
N871 N860 2.161 . S
N904 N893 2.273 . S
N937 N926 2.273 . S
N970 N959 2.273 . S
N1003 N992 2.273 . S
N1036 N1025 2.273 . S
N1058 N1069 2.273 . S
N1102 N1091 2.161 . S
N1135 N1124 2.161 . S
N1157 N1168 2.161 . S
