# Generated by pormake.
# Topology rac, (4)-cn, num edge types: 1
# Building blocks:
#     Node 0, Type 0, BuildingBlock: ICAMEG_clean_sbu_1, # of connection points: 4
#     Node 1, Type 0, BuildingBlock: ICAMEG_clean_sbu_1, # of connection points: 4
#     Node 2, Type 0, BuildingBlock: ICAMEG_clean_sbu_1, # of connection points: 4
#     Node 3, Type 0, BuildingBlock: ICAMEG_clean_sbu_1, # of connection points: 4
#     Node 4, Type 0, BuildingBlock: ICAMEG_clean_sbu_1, # of connection points: 4
#     Node 5, Type 0, BuildingBlock: ICAMEG_clean_sbu_1, # of connection points: 4
#     Node 6, Type 0, BuildingBlock: ICAMEG_clean_sbu_1, # of connection points: 4
#     Node 7, Type 0, BuildingBlock: ICAMEG_clean_sbu_1, # of connection points: 4
#     Edge 8, Type (0, 0), BuildingBlock: MIFKUJ_clean_linker_0, # of connection points: 2
#     Edge 9, Type (0, 0), BuildingBlock: MIFKUJ_clean_linker_0, # of connection points: 2
#     Edge 10, Type (0, 0), BuildingBlock: MIFKUJ_clean_linker_0, # of connection points: 2
#     Edge 11, Type (0, 0), BuildingBlock: MIFKUJ_clean_linker_0, # of connection points: 2
#     Edge 12, Type (0, 0), BuildingBlock: MIFKUJ_clean_linker_0, # of connection points: 2
#     Edge 13, Type (0, 0), BuildingBlock: MIFKUJ_clean_linker_0, # of connection points: 2
#     Edge 14, Type (0, 0), BuildingBlock: MIFKUJ_clean_linker_0, # of connection points: 2
#     Edge 15, Type (0, 0), BuildingBlock: MIFKUJ_clean_linker_0, # of connection points: 2
#     Edge 16, Type (0, 0), BuildingBlock: MIFKUJ_clean_linker_0, # of connection points: 2
#     Edge 17, Type (0, 0), BuildingBlock: MIFKUJ_clean_linker_0, # of connection points: 2
#     Edge 18, Type (0, 0), BuildingBlock: MIFKUJ_clean_linker_0, # of connection points: 2
#     Edge 19, Type (0, 0), BuildingBlock: MIFKUJ_clean_linker_0, # of connection points: 2
#     Edge 20, Type (0, 0), BuildingBlock: MIFKUJ_clean_linker_0, # of connection points: 2
#     Edge 21, Type (0, 0), BuildingBlock: MIFKUJ_clean_linker_0, # of connection points: 2
#     Edge 22, Type (0, 0), BuildingBlock: MIFKUJ_clean_linker_0, # of connection points: 2
#     Edge 23, Type (0, 0), BuildingBlock: MIFKUJ_clean_linker_0, # of connection points: 2
# Relax obj value: 0.287
# Max RMSD: 0.137
# Mean RMSD: 0.137
data_MOF--net-rac--node1-ICAMEG_clean_sbu_1--edge1-MIFKUJ_clean_linker_0
_symmetry_space_group_name_H-M    P1
_symmetry_Int_Tables_number       1
_symmetry_cell_setting            triclinic
loop_
_symmetry_equiv_pos_as_xyz
'x, y, z'
_cell_length_a     58.859477
_cell_length_b     26.417726
_cell_length_c     52.809674
_cell_angle_alpha  90.026845
_cell_angle_beta   89.954456
_cell_angle_gamma 90.017651
loop_
_atom_site_label
_atom_site_type_symbol
_atom_site_fract_x
_atom_site_fract_y
_atom_site_fract_z
_atom_type_partial_charge
Co0 Co 0.34284 0.31829 0.07871 0.0
Co1 Co 0.37249 0.26624 0.02847 0.0
O2 O 0.37099 0.29841 0.06186 0.0
C3 C 0.36723 0.25742 0.118 0.0
O4 O 0.37445 0.22575 0.1006 0.0
C5 C 0.40061 0.35837 0.0234 0.0
O6 O 0.38332 0.38279 0.03328 0.0
O7 O 0.35143 0.3172 0.01342 0.0
O8 O 0.32991 0.34315 0.04619 0.0
H9 H 0.3408 0.19363 0.94795 0.0
H10 H 0.38724 0.35499 0.09775 0.0
O11 O 0.35492 0.29513 0.11204 0.0
H12 H 0.34348 0.50894 0.07762 0.0
H13 H 0.29698 0.39319 0.14996 0.0
H14 H 0.29371 0.30658 0.06727 0.0
H15 H 0.32648 0.42438 0.07187 0.0
H16 H 0.33217 0.37085 0.12725 0.0
O17 O 0.39921 0.31072 0.01966 0.0
H18 H 0.33875 0.23406 0.99001 0.0
H19 H 0.4107 0.23105 0.99589 0.0
H20 H 0.25803 0.32751 0.08972 0.0
H21 H 0.40486 0.43881 0.10399 0.0
H22 H 0.25957 0.37151 0.13113 0.0
H23 H 0.38296 0.51653 0.09379 0.0
O24 O 0.32953 0.24997 0.07273 0.0
H25 H 0.43999 0.20888 0.07911 0.0
H26 H 0.37456 0.15344 0.02782 0.0
H27 H 0.39994 0.08949 0.04667 0.0
H28 H 0.43296 0.11711 0.07248 0.0
H29 H 0.41403 0.27153 0.06015 0.0
H30 H 0.41355 0.191 0.95379 0.0
H31 H 0.37841 0.17184 0.92958 0.0
O32 O 0.34585 0.22164 0.03687 0.0
C33 C 0.33496 0.34234 0.02274 0.0
C34 C 0.35623 0.20165 0.95835 0.0
C35 C 0.39706 0.20024 0.96161 0.0
N36 N 0.37457 0.23451 0.99545 0.0
C37 C 0.35517 0.2244 0.9822 0.0
C38 C 0.39535 0.22302 0.98541 0.0
C39 C 0.37734 0.18948 0.94804 0.0
C40 C 0.37754 0.38866 0.09348 0.0
N41 N 0.35586 0.3848 0.08445 0.0
C42 C 0.38763 0.43601 0.09697 0.0
C43 C 0.37535 0.47959 0.09121 0.0
C44 C 0.3532 0.47536 0.08212 0.0
C45 C 0.34368 0.42738 0.07884 0.0
C46 C 0.29609 0.37427 0.13181 0.0
C47 C 0.29448 0.32581 0.08533 0.0
C48 C 0.31596 0.3615 0.11884 0.0
N49 N 0.31499 0.33776 0.09585 0.0
C50 C 0.27425 0.3376 0.09788 0.0
C51 C 0.27511 0.36213 0.12123 0.0
C52 C 0.33128 0.21782 0.05475 0.0
C53 C 0.4257 0.19638 0.06784 0.0
C54 C 0.38883 0.16576 0.03912 0.0
C55 C 0.40319 0.12937 0.04969 0.0
C56 C 0.42172 0.14489 0.06415 0.0
N57 N 0.39286 0.21618 0.04281 0.0
C58 C 0.411 0.23169 0.05696 0.0
Co59 Co 0.16229 0.70864 0.07867 0.0
Co60 Co 0.13131 0.74588 0.02701 0.0
O61 O 0.1333 0.71813 0.06134 0.0
C62 C 0.13232 0.75689 0.11752 0.0
O63 O 0.12228 0.78368 0.09988 0.0
C64 C 0.10491 0.65079 0.02459 0.0
O65 O 0.12273 0.62888 0.03472 0.0
O66 O 0.15309 0.69437 0.01411 0.0
O67 O 0.17788 0.69068 0.04622 0.0
H68 H 0.16211 0.80817 0.94392 0.0
H69 H 0.12162 0.6544 0.09753 0.0
O70 O 0.14806 0.72583 0.11195 0.0
H71 H 0.17664 0.52073 0.07542 0.0
H72 H 0.21271 0.64974 0.14982 0.0
H73 H 0.20995 0.73767 0.06753 0.0
H74 H 0.18662 0.61077 0.07017 0.0
H75 H 0.17627 0.66127 0.12756 0.0
O76 O 0.10538 0.69813 0.01979 0.0
H77 H 0.16464 0.77465 0.98743 0.0
H78 H 0.09267 0.77325 0.99326 0.0
H79 H 0.24684 0.72521 0.0887 0.0
H80 H 0.11105 0.56482 0.10341 0.0
H81 H 0.24836 0.68163 0.13031 0.0
H82 H 0.13863 0.49726 0.0922 0.0
O83 O 0.16976 0.781 0.07345 0.0
H84 H 0.06206 0.8048 0.07431 0.0
H85 H 0.12755 0.85814 0.02248 0.0
H86 H 0.10081 0.92247 0.03852 0.0
H87 H 0.06773 0.89591 0.06456 0.0
H88 H 0.08941 0.7418 0.05823 0.0
H89 H 0.08935 0.80637 0.94974 0.0
H90 H 0.12424 0.82424 0.92481 0.0
O91 O 0.15737 0.79431 0.03371 0.0
C92 C 0.17211 0.68118 0.02346 0.0
C93 C 0.14678 0.80071 0.95463 0.0
C94 C 0.10594 0.79963 0.95788 0.0
N95 N 0.12884 0.77246 0.99292 0.0
C96 C 0.14811 0.78188 0.97929 0.0
C97 C 0.10793 0.7808 0.98249 0.0
C98 C 0.12553 0.80966 0.9439 0.0
C99 C 0.13381 0.62523 0.0929 0.0
N100 N 0.15474 0.63783 0.08364 0.0
C101 C 0.12769 0.57457 0.09615 0.0
C102 C 0.14316 0.53668 0.08982 0.0
C103 C 0.16448 0.54982 0.08039 0.0
C104 C 0.17001 0.60089 0.07739 0.0
C105 C 0.21227 0.66895 0.13173 0.0
C106 C 0.21049 0.71803 0.08547 0.0
C107 C 0.19167 0.67576 0.11907 0.0
N108 N 0.191 0.69978 0.09616 0.0
C109 C 0.23142 0.71146 0.09747 0.0
C110 C 0.23226 0.68685 0.12078 0.0
C111 C 0.16902 0.80714 0.05318 0.0
C112 C 0.07638 0.81684 0.06294 0.0
C113 C 0.11331 0.8463 0.03399 0.0
C114 C 0.09817 0.88289 0.04292 0.0
C115 C 0.07959 0.86796 0.0575 0.0
N116 N 0.11005 0.79624 0.03942 0.0
C117 C 0.09186 0.7813 0.05367 0.0
Co118 Co 0.34649 0.2095 0.42518 0.0
Co119 Co 0.37731 0.24561 0.4772 0.0
O120 O 0.37539 0.21731 0.44293 0.0
C121 C 0.38094 0.23836 0.38485 0.0
O122 O 0.39729 0.24335 0.40151 0.0
C123 C 0.40284 0.14962 0.47993 0.0
O124 O 0.38475 0.12856 0.46991 0.0
O125 O 0.35502 0.19514 0.48997 0.0
O126 O 0.33038 0.1937 0.45758 0.0
H127 H 0.34635 0.3106 0.55973 0.0
H128 H 0.38687 0.14893 0.409 0.0
O129 O 0.36096 0.22551 0.39163 0.0
H130 H 0.32748 0.02388 0.42922 0.0
H131 H 0.29545 0.15405 0.35382 0.0
H132 H 0.29938 0.24351 0.43568 0.0
H133 H 0.3197 0.11515 0.4331 0.0
H134 H 0.33188 0.16189 0.37654 0.0
O135 O 0.40284 0.19697 0.48476 0.0
H136 H 0.34389 0.27618 0.51639 0.0
H137 H 0.41587 0.27207 0.51124 0.0
H138 H 0.26258 0.23617 0.4137 0.0
H139 H 0.39524 0.05821 0.40451 0.0
H140 H 0.26045 0.19114 0.37247 0.0
H141 H 0.36546 0.99481 0.41474 0.0
O142 O 0.34022 0.28243 0.43 0.0
H143 H 0.44772 0.30209 0.43121 0.0
H144 H 0.38149 0.35787 0.48117 0.0
H145 H 0.40873 0.42132 0.46536 0.0
H146 H 0.44218 0.39355 0.44023 0.0
H147 H 0.4199 0.23996 0.44711 0.0
H148 H 0.41913 0.30603 0.55462 0.0
H149 H 0.38418 0.32574 0.57912 0.0
O150 O 0.3516 0.2947 0.47013 0.0
C151 C 0.33584 0.18404 0.48038 0.0
C152 C 0.36169 0.30233 0.54922 0.0
C153 C 0.40254 0.2997 0.54636 0.0
N154 N 0.37971 0.27259 0.51124 0.0
C155 C 0.36041 0.28299 0.52464 0.0
C156 C 0.4006 0.28039 0.52183 0.0
C157 C 0.38293 0.31077 0.56009 0.0
C158 C 0.37363 0.12191 0.41296 0.0
N159 N 0.35268 0.13769 0.42082 0.0
C160 C 0.37855 0.0704 0.4106 0.0
C161 C 0.36186 0.03485 0.41642 0.0
C162 C 0.34056 0.05113 0.42455 0.0
C163 C 0.33627 0.10294 0.42671 0.0
C164 C 0.29615 0.17366 0.3718 0.0
C165 C 0.29858 0.22362 0.41781 0.0
C166 C 0.31674 0.17833 0.38473 0.0
N167 N 0.31773 0.20281 0.40752 0.0
C168 C 0.2777 0.2197 0.40542 0.0
C169 C 0.27652 0.19447 0.38228 0.0
C170 C 0.34033 0.30803 0.45047 0.0
C171 C 0.43321 0.31468 0.44212 0.0
C172 C 0.39585 0.34549 0.47001 0.0
C173 C 0.41129 0.3816 0.46123 0.0
C174 C 0.43007 0.36598 0.44716 0.0
N175 N 0.399 0.29523 0.46491 0.0
C176 C 0.41742 0.27964 0.45123 0.0
Co177 Co 0.15482 0.78517 0.41403 0.0
Co178 Co 0.13067 0.75754 0.47194 0.0
O179 O 0.12838 0.77495 0.43587 0.0
C180 C 0.12031 0.73037 0.38093 0.0
O181 O 0.10535 0.72602 0.39921 0.0
C182 C 0.10219 0.84961 0.4712 0.0
O183 O 0.11822 0.86976 0.45714 0.0
O184 O 0.15222 0.81427 0.47838 0.0
O185 O 0.17164 0.81903 0.44198 0.0
H186 H 0.17117 0.72287 0.55384 0.0
H187 H 0.10901 0.8236 0.39895 0.0
O188 O 0.13943 0.75166 0.38467 0.0
H189 H 0.15959 0.97197 0.39605 0.0
H190 H 0.19513 0.82673 0.33241 0.0
H191 H 0.20445 0.77267 0.42114 0.0
H192 H 0.17444 0.88858 0.40857 0.0
H193 H 0.16173 0.81648 0.36016 0.0
O194 O 0.10437 0.8043 0.47924 0.0
H195 H 0.16846 0.74385 0.50842 0.0
H196 H 0.09646 0.73628 0.51217 0.0
H197 H 0.23831 0.78313 0.39411 0.0
H198 H 0.09347 0.90628 0.38653 0.0
H199 H 0.23374 0.81035 0.34939 0.0
H200 H 0.11882 0.98137 0.38495 0.0
O201 O 0.16721 0.71858 0.42434 0.0
H202 H 0.05871 0.67839 0.43938 0.0
H203 H 0.13075 0.64741 0.48436 0.0
H204 H 0.10449 0.57634 0.4767 0.0
H205 H 0.06812 0.59164 0.45413 0.0
H206 H 0.08562 0.74825 0.4471 0.0
H207 H 0.09837 0.71562 0.55768 0.0
H208 H 0.13594 0.7086 0.57877 0.0
O209 O 0.15711 0.71069 0.46521 0.0
C210 C 0.16862 0.83106 0.46508 0.0
C211 C 0.1547 0.72565 0.54484 0.0
C212 C 0.11384 0.72164 0.547 0.0
N213 N 0.13234 0.74083 0.50763 0.0
C214 C 0.15306 0.73736 0.51912 0.0
C215 C 0.11286 0.73344 0.52125 0.0
C216 C 0.13493 0.7177 0.55882 0.0
C217 C 0.12027 0.85568 0.39803 0.0
N218 N 0.14275 0.85072 0.404 0.0
C219 C 0.1113 0.90265 0.39116 0.0
C220 C 0.12552 0.94478 0.39035 0.0
C221 C 0.14838 0.93957 0.39661 0.0
C222 C 0.1567 0.89213 0.40363 0.0
C223 C 0.19732 0.81507 0.35188 0.0
C224 C 0.20233 0.78494 0.40176 0.0
C225 C 0.17848 0.80906 0.36768 0.0
N226 N 0.18115 0.79446 0.39235 0.0
C227 C 0.22157 0.79063 0.38652 0.0
C228 C 0.21899 0.80585 0.36142 0.0
C229 C 0.16861 0.69678 0.44582 0.0
C230 C 0.07449 0.67125 0.44924 0.0
C231 C 0.11508 0.65432 0.47429 0.0
C232 C 0.10021 0.61395 0.47013 0.0
C233 C 0.0798 0.62257 0.4575 0.0
N234 N 0.10977 0.70194 0.46609 0.0
C235 C 0.08977 0.7107 0.45375 0.0
Co236 Co 0.66882 0.70117 0.9248 0.0
Co237 Co 0.63359 0.73299 0.97342 0.0
O238 O 0.63835 0.70569 0.93938 0.0
C239 C 0.64152 0.7456 0.88285 0.0
O240 O 0.63155 0.77587 0.89914 0.0
C241 C 0.60722 0.63717 0.97386 0.0
O242 O 0.62554 0.61474 0.96518 0.0
O243 O 0.65482 0.68163 0.98741 0.0
O244 O 0.68286 0.68821 0.9588 0.0
H245 H 0.65813 0.79426 0.05922 0.0
H246 H 0.63204 0.63714 0.90376 0.0
O247 O 0.65615 0.71343 0.89028 0.0
H248 H 0.69109 0.51782 0.93246 0.0
H249 H 0.72561 0.65333 0.85759 0.0
H250 H 0.71405 0.74217 0.93867 0.0
H251 H 0.69672 0.60985 0.93665 0.0
H252 H 0.68806 0.65316 0.87834 0.0
O253 O 0.60747 0.68465 0.97827 0.0
H254 H 0.66387 0.76156 0.01593 0.0
H255 H 0.59254 0.75886 0.00391 0.0
H256 H 0.75173 0.74426 0.91837 0.0
H257 H 0.62581 0.54525 0.89889 0.0
H258 H 0.75771 0.69961 0.87749 0.0
H259 H 0.65542 0.48491 0.91341 0.0
O260 O 0.67288 0.77498 0.92968 0.0
H261 H 0.5683 0.79085 0.91951 0.0
H262 H 0.62841 0.84498 0.97862 0.0
H263 H 0.60268 0.9088 0.96027 0.0
H264 H 0.57231 0.88183 0.93054 0.0
H265 H 0.5946 0.72837 0.93804 0.0
H266 H 0.58601 0.7911 0.04716 0.0
H267 H 0.61896 0.80924 0.07509 0.0
O268 O 0.65964 0.78247 0.96938 0.0
C269 C 0.67514 0.67369 0.98016 0.0
C270 C 0.64363 0.78665 0.04721 0.0
C271 C 0.60316 0.78482 0.04044 0.0
N272 N 0.62857 0.75872 0.00735 0.0
C273 C 0.64678 0.76826 0.02265 0.0
C274 C 0.60696 0.76646 0.016 0.0
C275 C 0.62165 0.795 0.0561 0.0
C276 C 0.6451 0.61109 0.90985 0.0
N277 N 0.66472 0.62883 0.9204 0.0
C278 C 0.64144 0.55912 0.90715 0.0
C279 C 0.65805 0.52528 0.91534 0.0
C280 C 0.67805 0.54369 0.92604 0.0
C281 C 0.68112 0.59588 0.92842 0.0
C282 C 0.72321 0.67302 0.87537 0.0
C283 C 0.7165 0.72269 0.92092 0.0
C284 C 0.702 0.67299 0.88724 0.0
N285 N 0.69884 0.69779 0.90969 0.0
C286 C 0.73787 0.72406 0.90947 0.0
C287 C 0.74121 0.69903 0.88653 0.0
C288 C 0.67113 0.79889 0.95052 0.0
C289 C 0.58142 0.80306 0.93249 0.0
C290 C 0.61533 0.83297 0.96559 0.0
C291 C 0.60076 0.86927 0.95532 0.0
C292 C 0.58371 0.85411 0.93866 0.0
N293 N 0.61297 0.78297 0.95945 0.0
C294 C 0.5963 0.76782 0.94313 0.0
Co295 Co 0.84163 0.29186 0.92881 0.0
Co296 Co 0.87756 0.25664 0.976 0.0
O297 O 0.8723 0.28677 0.94266 0.0
C298 C 0.86919 0.25319 0.88571 0.0
O299 O 0.87926 0.22169 0.9013 0.0
C300 C 0.90336 0.35277 0.97756 0.0
O301 O 0.88469 0.37476 0.9696 0.0
O302 O 0.85646 0.30643 0.99151 0.0
O303 O 0.82808 0.30122 0.96341 0.0
H304 H 0.85446 0.18823 0.06097 0.0
H305 H 0.87771 0.35891 0.90856 0.0
O306 O 0.85397 0.28339 0.89377 0.0
H307 H 0.81857 0.47378 0.94142 0.0
H308 H 0.78285 0.34658 0.86519 0.0
H309 H 0.79681 0.24935 0.94331 0.0
H310 H 0.81343 0.38129 0.94343 0.0
H311 H 0.82129 0.34237 0.88364 0.0
O312 O 0.9036 0.30506 0.98133 0.0
H313 H 0.84797 0.22409 0.01846 0.0
H314 H 0.9191 0.22896 0.00509 0.0
H315 H 0.7581 0.25308 0.92571 0.0
H316 H 0.88339 0.45129 0.90579 0.0
H317 H 0.75091 0.30186 0.88632 0.0
H318 H 0.85373 0.50938 0.92242 0.0
O319 O 0.83815 0.21762 0.93193 0.0
H320 H 0.94228 0.20398 0.91979 0.0
H321 H 0.88295 0.14441 0.97866 0.0
H322 H 0.90855 0.08241 0.95851 0.0
H323 H 0.93852 0.11212 0.92889 0.0
H324 H 0.91613 0.26462 0.94011 0.0
H325 H 0.92638 0.19351 0.04753 0.0
H326 H 0.89391 0.17272 0.07574 0.0
O327 O 0.85144 0.20734 0.9714 0.0
C328 C 0.836 0.31457 0.98487 0.0
C329 C 0.86875 0.19698 0.04881 0.0
C330 C 0.90911 0.2 0.04128 0.0
N331 N 0.88313 0.22818 0.00925 0.0
C332 C 0.86518 0.21715 0.0247 0.0
C333 C 0.90489 0.22015 0.0173 0.0
C334 C 0.89089 0.18833 0.0571 0.0
C335 C 0.86461 0.38397 0.91554 0.0
N336 N 0.84526 0.36469 0.92608 0.0
C337 C 0.86796 0.43623 0.91404 0.0
C338 C 0.85133 0.46881 0.92341 0.0
C339 C 0.83161 0.44887 0.93408 0.0
C340 C 0.82883 0.39642 0.93524 0.0
C341 C 0.78576 0.32523 0.88237 0.0
C342 C 0.79383 0.27094 0.92627 0.0
C343 C 0.80751 0.32258 0.89286 0.0
N344 N 0.81129 0.29583 0.9146 0.0
C345 C 0.77186 0.27285 0.91636 0.0
C346 C 0.76785 0.30017 0.89425 0.0
C347 C 0.83978 0.19234 0.95235 0.0
C348 C 0.92933 0.19058 0.93271 0.0
C349 C 0.89586 0.15761 0.96567 0.0
C350 C 0.91036 0.12234 0.95439 0.0
C351 C 0.92719 0.13904 0.93779 0.0
N352 N 0.89808 0.2081 0.96059 0.0
C353 C 0.91454 0.22476 0.94436 0.0
Co354 Co 0.66169 0.80442 0.57178 0.0
Co355 Co 0.63043 0.75327 0.52224 0.0
O356 O 0.63302 0.78545 0.55566 0.0
C357 C 0.63348 0.75553 0.61312 0.0
O358 O 0.61722 0.74353 0.59727 0.0
C359 C 0.60482 0.84887 0.51793 0.0
O360 O 0.62276 0.87042 0.52799 0.0
O361 O 0.65267 0.80107 0.5066 0.0
O362 O 0.67347 0.83051 0.5391 0.0
H363 H 0.65951 0.67501 0.44177 0.0
H364 H 0.61748 0.84236 0.59212 0.0
O365 O 0.65123 0.77876 0.60564 0.0
H366 H 0.6622 0.99498 0.57238 0.0
H367 H 0.71095 0.87571 0.64119 0.0
H368 H 0.71008 0.79519 0.55694 0.0
H369 H 0.67837 0.91011 0.56535 0.0
H370 H 0.67465 0.85282 0.62088 0.0
O371 O 0.60493 0.80131 0.51357 0.0
H372 H 0.66297 0.71565 0.48366 0.0
H373 H 0.59111 0.72326 0.49007 0.0
H374 H 0.74673 0.81802 0.57646 0.0
H375 H 0.60077 0.92635 0.59963 0.0
H376 H 0.74731 0.85856 0.6189 0.0
H377 H 0.62314 0.00354 0.58969 0.0
O378 O 0.6747 0.73651 0.56443 0.0
H379 H 0.5605 0.70517 0.57145 0.0
H380 H 0.62583 0.64089 0.52259 0.0
H381 H 0.59855 0.58048 0.54108 0.0
H382 H 0.56554 0.61254 0.56564 0.0
H383 H 0.58842 0.76422 0.55303 0.0
H384 H 0.58687 0.68311 0.44815 0.0
H385 H 0.62124 0.65851 0.42375 0.0
O386 O 0.65597 0.70549 0.53062 0.0
C387 C 0.66883 0.82746 0.51566 0.0
C388 C 0.64441 0.68542 0.45225 0.0
C389 C 0.60364 0.69004 0.45581 0.0
N390 N 0.62726 0.72146 0.48935 0.0
C391 C 0.64626 0.70831 0.476 0.0
C392 C 0.60614 0.71286 0.47951 0.0
C393 C 0.62293 0.67622 0.44214 0.0
C394 C 0.62755 0.87551 0.58821 0.0
N395 N 0.64909 0.87103 0.57879 0.0
C396 C 0.6179 0.92312 0.59231 0.0
C397 C 0.63043 0.96641 0.58666 0.0
C398 C 0.65234 0.96163 0.57696 0.0
C399 C 0.66141 0.91341 0.57305 0.0
C400 C 0.7109 0.85814 0.62268 0.0
C401 C 0.71018 0.81314 0.57534 0.0
C402 C 0.69041 0.84497 0.6111 0.0
N403 N 0.69024 0.82302 0.58765 0.0
C404 C 0.73099 0.82583 0.58633 0.0
C405 C 0.7313 0.84852 0.61016 0.0
C406 C 0.67158 0.7028 0.54744 0.0
C407 C 0.5748 0.69073 0.56077 0.0
C408 C 0.61168 0.65515 0.53351 0.0
C409 C 0.5962 0.62075 0.54381 0.0
C410 C 0.57766 0.63877 0.55754 0.0
N411 N 0.60879 0.70607 0.53681 0.0
C412 C 0.59061 0.72401 0.55018 0.0
Co413 Co 0.8452 0.20292 0.58112 0.0
Co414 Co 0.87343 0.23628 0.52638 0.0
O415 O 0.87319 0.21261 0.56167 0.0
C416 C 0.87921 0.24661 0.61847 0.0
O417 O 0.89503 0.25132 0.60114 0.0
C418 C 0.90016 0.1415 0.52511 0.0
O419 O 0.88313 0.12059 0.53729 0.0
O420 O 0.85123 0.18316 0.51617 0.0
O421 O 0.82913 0.17704 0.55056 0.0
H422 H 0.8385 0.28866 0.44367 0.0
H423 H 0.88857 0.15434 0.59769 0.0
O424 O 0.85973 0.22861 0.61303 0.0
H425 H 0.83382 0.01458 0.58812 0.0
H426 H 0.79848 0.15338 0.6572 0.0
H427 H 0.79671 0.22554 0.57112 0.0
H428 H 0.82216 0.10252 0.57994 0.0
H429 H 0.83383 0.16279 0.63251 0.0
O430 O 0.89914 0.18811 0.51887 0.0
H431 H 0.83816 0.26005 0.48813 0.0
H432 H 0.9103 0.26036 0.48959 0.0
H433 H 0.76098 0.21654 0.59508 0.0
H434 H 0.90092 0.06704 0.60613 0.0
H435 H 0.76171 0.1802 0.63845 0.0
H436 H 0.87349 0.99624 0.60124 0.0
O437 O 0.83561 0.27298 0.57318 0.0
H438 H 0.94493 0.30158 0.56691 0.0
H439 H 0.87633 0.34799 0.51869 0.0
H440 H 0.90355 0.41447 0.53104 0.0
H441 H 0.93819 0.39141 0.55527 0.0
H442 H 0.9171 0.23637 0.55448 0.0
H443 H 0.91144 0.28859 0.44508 0.0
H444 H 0.87534 0.30312 0.42186 0.0
O445 O 0.84765 0.28491 0.53324 0.0
C446 C 0.83349 0.16724 0.52745 0.0
C447 C 0.85434 0.28263 0.45361 0.0
C448 C 0.89528 0.28252 0.4544 0.0
N449 N 0.87418 0.25898 0.49149 0.0
C450 C 0.85425 0.26658 0.47881 0.0
C451 C 0.89453 0.26645 0.47958 0.0
C452 C 0.87502 0.29068 0.44138 0.0
C453 C 0.87638 0.12411 0.59597 0.0
N454 N 0.85454 0.13395 0.58876 0.0
C455 C 0.88354 0.07455 0.60058 0.0
C456 C 0.86817 0.03483 0.59777 0.0
C457 C 0.84594 0.04507 0.59035 0.0
C458 C 0.83942 0.09505 0.58579 0.0
C459 C 0.79793 0.16913 0.6383 0.0
C460 C 0.79717 0.20938 0.58992 0.0
C461 C 0.8179 0.17463 0.62424 0.0
N462 N 0.81731 0.19427 0.6003 0.0
C463 C 0.77687 0.20451 0.60342 0.0
C464 C 0.77731 0.18418 0.62776 0.0
C465 C 0.83575 0.29785 0.5525 0.0
C466 C 0.9299 0.31211 0.55635 0.0
C467 C 0.89122 0.33768 0.52947 0.0
C468 C 0.90665 0.37548 0.53629 0.0
C469 C 0.92609 0.36251 0.54985 0.0
N470 N 0.89505 0.28833 0.53598 0.0
C471 C 0.91411 0.27532 0.54919 0.0
H472 H 0.32608 0.14555 0.01771 0.0
H473 H 0.29837 0.07657 0.01629 0.0
H474 H 0.2719 0.1228 0.08884 0.0
H475 H 0.29948 0.19184 0.09051 0.0
H476 H 0.27846 0.01887 0.08521 0.0
H477 H 0.24537 0.15316 0.03458 0.0
H478 H 0.24575 0.21404 0.99921 0.0
H479 H 0.25113 0.09194 0.94595 0.0
H480 H 0.25154 0.03028 0.98099 0.0
H481 H 0.17972 0.87188 0.09149 0.0
H482 H 0.20625 0.94289 0.09044 0.0
H483 H 0.21939 0.914 0.01129 0.0
H484 H 0.19159 0.84492 0.01197 0.0
H485 H 0.22081 0.00826 0.01694 0.0
H486 H 0.2575 0.87547 0.06235 0.0
H487 H 0.26217 0.80904 0.09469 0.0
H488 H 0.25425 0.91956 0.15365 0.0
H489 H 0.24965 0.98681 0.12163 0.0
C490 C 0.31443 0.14106 0.03344 0.0
C491 C 0.31506 0.17453 0.05422 0.0
C492 C 0.29853 0.10164 0.03253 0.0
C493 C 0.28289 0.09479 0.05234 0.0
C494 C 0.28376 0.12742 0.0733 0.0
C495 C 0.29955 0.16698 0.07419 0.0
C496 C 0.26558 0.05369 0.05134 0.0
C497 C 0.26567 0.01689 0.07047 0.0
C498 C 0.24946 0.04989 0.03152 0.0
C499 C 0.24869 0.08707 0.01046 0.0
C500 C 0.24681 0.13926 0.01535 0.0
C501 C 0.24686 0.17393 0.99536 0.0
C502 C 0.24841 0.1569 0.97037 0.0
C503 C 0.24993 0.1051 0.96532 0.0
C504 C 0.25006 0.07027 0.98524 0.0
C505 C 0.1881 0.88106 0.0738 0.0
C506 C 0.18366 0.85271 0.05184 0.0
C507 C 0.20349 0.9214 0.07326 0.0
C508 C 0.21553 0.93314 0.05099 0.0
C509 C 0.21052 0.90579 0.02879 0.0
C510 C 0.1946 0.86626 0.02917 0.0
C511 C 0.23348 0.97334 0.05102 0.0
C512 C 0.23357 0.01002 0.03172 0.0
C513 C 0.25025 0.97626 0.07027 0.0
C514 C 0.25301 0.93604 0.08961 0.0
C515 C 0.25662 0.88554 0.08222 0.0
C516 C 0.25927 0.84775 0.10049 0.0
C517 C 0.25832 0.85996 0.12621 0.0
C518 C 0.25491 0.91012 0.13372 0.0
C519 C 0.25237 0.94813 0.11552 0.0
H520 H 0.26033 0.83058 0.14031 0.0
H521 H 0.24843 0.18384 0.95494 0.0
H522 H 0.19288 0.65026 0.40823 0.0
H523 H 0.22157 0.58437 0.41238 0.0
H524 H 0.21148 0.58198 0.49324 0.0
H525 H 0.18254 0.64834 0.48933 0.0
H526 H 0.2575 0.58312 0.47941 0.0
H527 H 0.19076 0.48788 0.4593 0.0
H528 H 0.15625 0.46661 0.43511 0.0
H529 H 0.19648 0.44244 0.36833 0.0
H530 H 0.23122 0.46432 0.39203 0.0
H531 H 0.32475 0.35721 0.49299 0.0
H532 H 0.29558 0.42311 0.49513 0.0
H533 H 0.29182 0.42536 0.41355 0.0
H534 H 0.32032 0.35866 0.4113 0.0
H535 H 0.25109 0.42197 0.43171 0.0
H536 H 0.31733 0.52243 0.45026 0.0
H537 H 0.35212 0.54551 0.47355 0.0
H538 H 0.31349 0.56138 0.5421 0.0
H539 H 0.2785 0.53771 0.51927 0.0
C540 C 0.19657 0.63567 0.42695 0.0
C541 C 0.18524 0.65465 0.44845 0.0
C542 C 0.21302 0.59784 0.42926 0.0
C543 C 0.2186 0.57795 0.45309 0.0
C544 C 0.20743 0.59676 0.47465 0.0
C545 C 0.19079 0.6345 0.47235 0.0
C546 C 0.23623 0.53776 0.45523 0.0
C547 C 0.25597 0.54748 0.46934 0.0
C548 C 0.23443 0.4917 0.44169 0.0
C549 C 0.21358 0.47813 0.42741 0.0
C550 C 0.19224 0.47839 0.43941 0.0
C551 C 0.17263 0.46617 0.42579 0.0
C552 C 0.17416 0.45327 0.40019 0.0
C553 C 0.19532 0.45246 0.38816 0.0
C554 C 0.21497 0.46472 0.40169 0.0
C555 C 0.31795 0.37226 0.47549 0.0
C556 C 0.3249 0.3525 0.45197 0.0
C557 C 0.30126 0.41007 0.47674 0.0
C558 C 0.29146 0.42954 0.45449 0.0
C559 C 0.29894 0.41088 0.43101 0.0
C560 C 0.31538 0.37281 0.42975 0.0
C561 C 0.27273 0.46763 0.45542 0.0
C562 C 0.25267 0.45744 0.44192 0.0
C563 C 0.27434 0.51333 0.46939 0.0
C564 C 0.29534 0.52776 0.48311 0.0
C565 C 0.31628 0.53046 0.47034 0.0
C566 C 0.33604 0.54371 0.48345 0.0
C567 C 0.33503 0.55476 0.50931 0.0
C568 C 0.31425 0.55272 0.52209 0.0
C569 C 0.29445 0.53943 0.50907 0.0
H570 H 0.35034 0.56501 0.51943 0.0
H571 H 0.15896 0.44383 0.38967 0.0
H572 H 0.71076 0.79952 0.976 0.0
H573 H 0.73872 0.86772 0.97804 0.0
H574 H 0.69308 0.96529 0.93656 0.0
H575 H 0.66593 0.89501 0.93274 0.0
H576 H 0.73104 0.98161 0.91917 0.0
H577 H 0.70577 0.9767 0.00409 0.0
H578 H 0.69564 0.93935 0.04536 0.0
H579 H 0.76469 0.89152 0.05599 0.0
H580 H 0.77518 0.92793 0.01459 0.0
H581 H 0.81016 0.17529 0.99071 0.0
H582 H 0.7801 0.11139 0.99228 0.0
H583 H 0.80549 0.04586 0.92283 0.0
H584 H 0.83427 0.11263 0.92025 0.0
H585 H 0.77474 0.02016 0.99706 0.0
H586 H 0.76604 0.99094 0.88818 0.0
H587 H 0.77098 0.03997 0.8488 0.0
H588 H 0.7601 0.17829 0.88971 0.0
H589 H 0.75492 0.13014 0.92933 0.0
C590 C 0.70672 0.83575 0.9675 0.0
C591 C 0.68628 0.84244 0.95433 0.0
C592 C 0.72261 0.87497 0.96885 0.0
C593 C 0.71801 0.92244 0.9579 0.0
C594 C 0.69719 0.92925 0.94517 0.0
C595 C 0.68158 0.88936 0.94315 0.0
C596 C 0.73532 0.9639 0.95872 0.0
C597 C 0.74045 0.99016 0.93629 0.0
C598 C 0.74738 0.97644 0.98112 0.0
C599 C 0.74122 0.95472 0.00613 0.0
C600 C 0.71877 0.95794 0.01515 0.0
C601 C 0.71296 0.93696 0.03858 0.0
C602 C 0.7295 0.91299 0.05326 0.0
C603 C 0.75189 0.91007 0.04458 0.0
C604 C 0.75778 0.93092 0.02115 0.0
C605 C 0.80939 0.1468 0.97596 0.0
C606 C 0.82444 0.14867 0.95536 0.0
C607 C 0.79217 0.11027 0.97681 0.0
C608 C 0.78998 0.07418 0.95735 0.0
C609 C 0.80611 0.07422 0.93762 0.0
C610 C 0.82279 0.11189 0.9363 0.0
C611 C 0.77063 0.03742 0.95744 0.0
C612 C 0.76517 0.01194 0.98001 0.0
C613 C 0.75743 0.02755 0.9355 0.0
C614 C 0.76029 0.05689 0.91175 0.0
C615 C 0.76462 0.03181 0.88876 0.0
C616 C 0.7675 0.05947 0.86642 0.0
C617 C 0.76595 0.11224 0.8668 0.0
C618 C 0.76142 0.13746 0.88951 0.0
C619 C 0.75853 0.11001 0.91191 0.0
H620 H 0.7682 0.13358 0.84949 0.0
H621 H 0.72497 0.89676 0.07139 0.0
H622 H 0.71107 0.69127 0.5742 0.0
H623 H 0.73839 0.6221 0.57181 0.0
H624 H 0.69638 0.54623 0.51678 0.0
H625 H 0.66882 0.61571 0.51886 0.0
H626 H 0.71319 0.48086 0.55429 0.0
H627 H 0.7414 0.60439 0.49625 0.0
H628 H 0.75284 0.69002 0.48276 0.0
H629 H 0.80524 0.69187 0.53926 0.0
H630 H 0.79387 0.60652 0.55339 0.0
H631 H 0.82746 0.35809 0.51092 0.0
H632 H 0.79943 0.42628 0.50719 0.0
H633 H 0.78113 0.40661 0.58564 0.0
H634 H 0.80866 0.33828 0.58951 0.0
H635 H 0.79318 0.51708 0.53046 0.0
H636 H 0.72463 0.4212 0.59273 0.0
H637 H 0.71317 0.33494 0.60527 0.0
H638 H 0.74066 0.27562 0.53602 0.0
H639 H 0.75192 0.3616 0.52286 0.0
C640 C 0.70747 0.65987 0.56164 0.0
C641 C 0.68765 0.65927 0.5467 0.0
C642 C 0.72322 0.62037 0.56024 0.0
C643 C 0.71954 0.57918 0.54397 0.0
C644 C 0.69957 0.5777 0.52945 0.0
C645 C 0.68385 0.61753 0.53064 0.0
C646 C 0.73678 0.53814 0.54205 0.0
C647 C 0.73065 0.48873 0.54899 0.0
C648 C 0.7595 0.5482 0.53473 0.0
C649 C 0.76666 0.59918 0.526 0.0
C650 C 0.75527 0.62317 0.50591 0.0
C651 C 0.76175 0.67166 0.49814 0.0
C652 C 0.77973 0.69641 0.51018 0.0
C653 C 0.79131 0.67265 0.52997 0.0
C654 C 0.78487 0.6242 0.53785 0.0
C655 C 0.81758 0.36846 0.52744 0.0
C656 C 0.82026 0.34222 0.55046 0.0
C657 C 0.80158 0.40756 0.52527 0.0
C658 C 0.78789 0.42105 0.54601 0.0
C659 C 0.79116 0.39627 0.56923 0.0
C660 C 0.80705 0.35723 0.57141 0.0
C661 C 0.76975 0.46005 0.5434 0.0
C662 C 0.77569 0.50909 0.5356 0.0
C663 C 0.74679 0.4495 0.54965 0.0
C664 C 0.73926 0.39785 0.55691 0.0
C665 C 0.72806 0.38981 0.58008 0.0
C666 C 0.72163 0.34095 0.58732 0.0
C667 C 0.72623 0.29982 0.57148 0.0
C668 C 0.73715 0.3075 0.5483 0.0
C669 C 0.74356 0.35629 0.54094 0.0
H670 H 0.72132 0.262 0.57716 0.0
H671 H 0.78471 0.73397 0.50414 0.0
H672 H 0.40253 0.20254 0.1386 0.0
H673 H 0.41325 0.19804 0.18357 0.0
H674 H 0.35593 0.29243 0.20281 0.0
H675 H 0.3456 0.29801 0.15845 0.0
H676 H 0.39172 0.32533 0.22643 0.0
H677 H 0.35708 0.16059 0.212 0.0
H678 H 0.35372 0.07696 0.19153 0.0
H679 H 0.4211 0.03865 0.21608 0.0
H680 H 0.42493 0.12236 0.23645 0.0
H681 H 0.35112 0.2642 0.34798 0.0
H682 H 0.35781 0.26713 0.30234 0.0
H683 H 0.42771 0.22438 0.31392 0.0
H684 H 0.4213 0.22268 0.36001 0.0
H685 H 0.39699 0.16491 0.27483 0.0
H686 H 0.42706 0.32811 0.29639 0.0
H687 H 0.42703 0.4106 0.31824 0.0
H688 H 0.36482 0.45091 0.28094 0.0
H689 H 0.36428 0.3683 0.25916 0.0
C690 C 0.3922 0.22199 0.15252 0.0
C691 C 0.37331 0.25084 0.14497 0.0
C692 C 0.39833 0.21944 0.17818 0.0
C693 C 0.38543 0.24506 0.19661 0.0
C694 C 0.36634 0.27288 0.18899 0.0
C695 C 0.3604 0.27587 0.16354 0.0
C696 C 0.3914 0.24385 0.22396 0.0
C697 C 0.39295 0.29017 0.23695 0.0
C698 C 0.3937 0.19809 0.23769 0.0
C699 C 0.3914 0.14792 0.22542 0.0
C700 C 0.37124 0.13448 0.21283 0.0
C701 C 0.36924 0.08705 0.20129 0.0
C702 C 0.38722 0.05259 0.20242 0.0
C703 C 0.40721 0.06543 0.21516 0.0
C704 C 0.4093 0.11285 0.22671 0.0
C705 C 0.36799 0.25588 0.34087 0.0
C706 C 0.38572 0.24338 0.35752 0.0
C707 C 0.37176 0.25753 0.31482 0.0
C708 C 0.39321 0.24588 0.30488 0.0
C709 C 0.41105 0.23346 0.32135 0.0
C710 C 0.40739 0.23286 0.34759 0.0
C711 C 0.39638 0.24624 0.27711 0.0
C712 C 0.39648 0.19992 0.26411 0.0
C713 C 0.39526 0.29194 0.26334 0.0
C714 C 0.39557 0.34184 0.27627 0.0
C715 C 0.41327 0.35438 0.29301 0.0
C716 C 0.41337 0.40121 0.30535 0.0
C717 C 0.39591 0.43595 0.30101 0.0
C718 C 0.37833 0.42396 0.28428 0.0
C719 C 0.37814 0.37717 0.27191 0.0
H720 H 0.39602 0.47218 0.31059 0.0
H721 H 0.38563 0.01588 0.19348 0.0
H722 H 0.1489 0.70517 0.34297 0.0
H723 H 0.14123 0.70989 0.29774 0.0
H724 H 0.07045 0.73879 0.31304 0.0
H725 H 0.07805 0.73401 0.35883 0.0
H726 H 0.08363 0.67357 0.2655 0.0
H727 H 0.09357 0.83544 0.30485 0.0
H728 H 0.11162 0.89418 0.33499 0.0
H729 H 0.17549 0.87654 0.29669 0.0
H730 H 0.15794 0.81664 0.26666 0.0
H731 H 0.09003 0.77708 0.13708 0.0
H732 H 0.079 0.77559 0.18215 0.0
H733 H 0.1486 0.74601 0.20289 0.0
H734 H 0.15951 0.74607 0.15832 0.0
H735 H 0.12539 0.82331 0.23275 0.0
H736 H 0.11683 0.65132 0.19953 0.0
H737 H 0.10008 0.58862 0.17039 0.0
H738 H 0.0333 0.62617 0.1973 0.0
H739 H 0.04968 0.6898 0.2263 0.0
C740 C 0.13155 0.711 0.33676 0.0
C741 C 0.11411 0.71981 0.35438 0.0
C742 C 0.1272 0.71362 0.31091 0.0
C743 C 0.10536 0.72538 0.30215 0.0
C744 C 0.0874 0.72963 0.31953 0.0
C745 C 0.09176 0.72681 0.34562 0.0
C746 C 0.10267 0.74032 0.27534 0.0
C747 C 0.09212 0.70708 0.25832 0.0
C748 C 0.1139 0.78394 0.2661 0.0
C749 C 0.12444 0.82126 0.28359 0.0
C750 C 0.11151 0.84377 0.30296 0.0
C751 C 0.12166 0.87722 0.32007 0.0
C752 C 0.14472 0.88889 0.31786 0.0
C753 C 0.15764 0.86734 0.29844 0.0
C754 C 0.14759 0.83364 0.28135 0.0
C755 C 0.10294 0.77092 0.15136 0.0
C756 C 0.12559 0.76154 0.14432 0.0
C757 C 0.09663 0.76992 0.17699 0.0
C758 C 0.11302 0.76066 0.19574 0.0
C759 C 0.13574 0.75335 0.18868 0.0
C760 C 0.14192 0.75321 0.16323 0.0
C761 C 0.10684 0.75594 0.22279 0.0
C762 C 0.116 0.79099 0.23991 0.0
C763 C 0.09421 0.71425 0.23204 0.0
C764 C 0.08443 0.67579 0.21478 0.0
C765 C 0.09856 0.64658 0.19903 0.0
C766 C 0.08914 0.6108 0.18259 0.0
C767 C 0.06563 0.60354 0.18193 0.0
C768 C 0.0515 0.63194 0.19778 0.0
C769 C 0.06084 0.66787 0.21421 0.0
H770 H 0.05837 0.57581 0.1692 0.0
H771 H 0.15257 0.91467 0.33118 0.0
H772 H 0.60469 0.78853 0.85893 0.0
H773 H 0.59808 0.79404 0.81293 0.0
H774 H 0.66189 0.71868 0.79924 0.0
H775 H 0.66841 0.71227 0.84461 0.0
H776 H 0.65401 0.81222 0.77099 0.0
H777 H 0.61752 0.6518 0.79411 0.0
H778 H 0.58914 0.60162 0.81761 0.0
H779 H 0.53536 0.68953 0.78475 0.0
H780 H 0.56348 0.74072 0.76133 0.0
H781 H 0.66596 0.7333 0.64756 0.0
H782 H 0.66233 0.73323 0.69357 0.0
H783 H 0.59075 0.76611 0.68683 0.0
H784 H 0.59415 0.76324 0.64048 0.0
H785 H 0.5968 0.70765 0.72592 0.0
H786 H 0.63075 0.86069 0.6985 0.0
H787 H 0.65748 0.91532 0.67514 0.0
H788 H 0.7134 0.85164 0.71641 0.0
H789 H 0.68707 0.79587 0.73969 0.0
C790 C 0.61725 0.77318 0.84605 0.0
C791 C 0.63703 0.74985 0.85538 0.0
C792 C 0.61344 0.77624 0.81986 0.0
C793 C 0.62953 0.75674 0.8028 0.0
C794 C 0.6493 0.73398 0.81213 0.0
C795 C 0.65293 0.73018 0.83811 0.0
C796 C 0.62628 0.75983 0.77507 0.0
C797 C 0.64154 0.78938 0.76106 0.0
C798 C 0.60942 0.73153 0.76232 0.0
C799 C 0.59259 0.70046 0.77624 0.0
C800 C 0.59965 0.66073 0.79209 0.0
C801 C 0.58362 0.63204 0.80535 0.0
C802 C 0.56046 0.64249 0.80274 0.0
C803 C 0.5533 0.68154 0.7868 0.0
C804 C 0.56927 0.71038 0.77352 0.0
C805 C 0.64938 0.7396 0.65592 0.0
C806 C 0.63036 0.74855 0.64057 0.0
C807 C 0.64733 0.74002 0.68221 0.0
C808 C 0.62642 0.7514 0.69372 0.0
C809 C 0.6071 0.75773 0.6784 0.0
C810 C 0.60904 0.75599 0.65196 0.0
C811 C 0.6252 0.75859 0.72163 0.0
C812 C 0.60905 0.73128 0.73571 0.0
C813 C 0.64098 0.78992 0.73453 0.0
C814 C 0.65691 0.8239 0.72079 0.0
C815 C 0.64876 0.85812 0.70251 0.0
C816 C 0.66384 0.88929 0.68927 0.0
C817 C 0.68712 0.88698 0.69431 0.0
C818 C 0.69536 0.85343 0.71256 0.0
C819 C 0.68036 0.82205 0.7258 0.0
H820 H 0.69876 0.91128 0.68411 0.0
H821 H 0.54807 0.62024 0.81302 0.0
H822 H 0.84926 0.27498 0.65476 0.0
H823 H 0.85608 0.28321 0.70016 0.0
H824 H 0.92686 0.24767 0.68883 0.0
H825 H 0.92022 0.24042 0.64294 0.0
H826 H 0.90198 0.18695 0.72702 0.0
H827 H 0.91849 0.3587 0.70609 0.0
H828 H 0.91216 0.44097 0.68525 0.0
H829 H 0.84909 0.45829 0.72523 0.0
H830 H 0.85486 0.37576 0.74604 0.0
H831 H 0.90749 0.21566 0.86251 0.0
H832 H 0.91721 0.22043 0.81735 0.0
H833 H 0.85369 0.29652 0.80257 0.0
H834 H 0.84438 0.29354 0.84738 0.0
H835 H 0.88514 0.34115 0.77726 0.0
H836 H 0.86376 0.16552 0.79051 0.0
H837 H 0.867 0.08097 0.80999 0.0
H838 H 0.93579 0.06886 0.78353 0.0
H839 H 0.93302 0.15364 0.76413 0.0
C840 C 0.86637 0.26971 0.66185 0.0
C841 C 0.88423 0.25716 0.64534 0.0
C842 C 0.87024 0.27449 0.68777 0.0
C843 C 0.89197 0.26613 0.69778 0.0
C844 C 0.90999 0.25441 0.68137 0.0
C845 C 0.90621 0.25059 0.65523 0.0
C846 C 0.89508 0.26689 0.72559 0.0
C847 C 0.89891 0.22087 0.73811 0.0
C848 C 0.89057 0.31097 0.73989 0.0
C849 C 0.88707 0.36085 0.72754 0.0
C850 C 0.90319 0.37986 0.71031 0.0
C851 C 0.89971 0.42659 0.69852 0.0
C852 C 0.88022 0.45481 0.70389 0.0
C853 C 0.86418 0.4364 0.72109 0.0
C854 C 0.86757 0.38967 0.73292 0.0
C855 C 0.89563 0.23332 0.84955 0.0
C856 C 0.87517 0.2542 0.8585 0.0
C857 C 0.90118 0.23596 0.82376 0.0
C858 C 0.88612 0.25859 0.80645 0.0
C859 C 0.8657 0.27924 0.81548 0.0
C860 C 0.86034 0.27731 0.84117 0.0
C861 C 0.89111 0.26069 0.77883 0.0
C862 C 0.8888 0.30735 0.76632 0.0
C863 C 0.89663 0.21699 0.76452 0.0
C864 C 0.89829 0.16612 0.77617 0.0
C865 C 0.87963 0.14496 0.78902 0.0
C866 C 0.88137 0.09699 0.80002 0.0
C867 C 0.90162 0.06964 0.79808 0.0
C868 C 0.92014 0.09014 0.78507 0.0
C869 C 0.9185 0.13813 0.77407 0.0
H870 H 0.90293 0.0325 0.8066 0.0
H871 H 0.87756 0.49098 0.69474 0.0
H872 H 0.44028 0.32024 0.00373 0.0
H873 H 0.47542 0.36625 0.99448 0.0
H874 H 0.44446 0.50497 0.02026 0.0
H875 H 0.40924 0.45946 0.02934 0.0
H876 H 0.46782 0.52017 0.97705 0.0
H877 H 0.48197 0.4408 0.05731 0.0
H878 H 0.48427 0.36926 0.08717 0.0
H879 H 0.5344 0.29775 0.04011 0.0
H880 H 0.53215 0.36856 0.00975 0.0
H881 H 0.56637 0.67135 0.99196 0.0
H882 H 0.53176 0.62255 0.99947 0.0
H883 H 0.56546 0.4871 0.97361 0.0
H884 H 0.60032 0.53557 0.96633 0.0
H885 H 0.54101 0.46846 0.01572 0.0
H886 H 0.52748 0.54883 0.93589 0.0
H887 H 0.52518 0.62048 0.90609 0.0
H888 H 0.47387 0.69008 0.95228 0.0
H889 H 0.4761 0.61916 0.98257 0.0
C890 C 0.44091 0.36056 0.00739 0.0
C891 C 0.4219 0.3861 0.01731 0.0
C892 C 0.46107 0.3868 0.00218 0.0
C893 C 0.4627 0.43906 0.00689 0.0
C894 C 0.44364 0.46471 0.01645 0.0
C895 C 0.42351 0.43854 0.02169 0.0
C896 C 0.48425 0.46709 0.00196 0.0
C897 C 0.48376 0.50919 0.98575 0.0
C898 C 0.50521 0.45216 0.01281 0.0
C899 C 0.50672 0.40973 0.03112 0.0
C900 C 0.49336 0.40963 0.05322 0.0
C901 C 0.49467 0.36925 0.07025 0.0
C902 C 0.50943 0.32892 0.0655 0.0
C903 C 0.52295 0.32898 0.04374 0.0
C904 C 0.52167 0.36924 0.02663 0.0
C905 C 0.56647 0.63117 0.98784 0.0
C906 C 0.58616 0.60745 0.97846 0.0
C907 C 0.54659 0.60332 0.99206 0.0
C908 C 0.54587 0.55118 0.98683 0.0
C909 C 0.56557 0.52727 0.97776 0.0
C910 C 0.58549 0.5551 0.97353 0.0
C911 C 0.52456 0.52171 0.9909 0.0
C912 C 0.52508 0.47934 0.00695 0.0
C913 C 0.50363 0.53638 0.9799 0.0
C914 C 0.50211 0.57889 0.96162 0.0
C915 C 0.51582 0.57959 0.93979 0.0
C916 C 0.51452 0.62004 0.9228 0.0
C917 C 0.49943 0.65986 0.92732 0.0
C918 C 0.48557 0.65923 0.94882 0.0
C919 C 0.48684 0.6189 0.96589 0.0
H920 H 0.49845 0.69116 0.91415 0.0
H921 H 0.51042 0.29768 0.07871 0.0
H922 H 0.09831 0.5494 0.03231 0.0
H923 H 0.06415 0.49973 0.02378 0.0
H924 H 0.03029 0.63352 0.99621 0.0
H925 H 0.06438 0.68373 0.00491 0.0
H926 H 1.00285 0.57935 0.02714 0.0
H927 H 0.05008 0.54451 0.95523 0.0
H928 H 0.08512 0.51845 0.93319 0.0
H929 H 0.08098 0.37154 0.96764 0.0
H930 H 0.04607 0.39697 0.99019 0.0
H931 H 0.90924 0.45439 0.96974 0.0
H932 H 0.94335 0.50489 0.97729 0.0
H933 H 0.97863 0.37165 0.00332 0.0
H934 H 0.94465 0.32063 0.99544 0.0
H935 H 0.00532 0.4262 0.97279 0.0
H936 H 0.95844 0.46097 0.04505 0.0
H937 H 0.92349 0.48679 0.06733 0.0
H938 H 0.92705 0.63348 0.03257 0.0
H939 H 0.96187 0.60828 0.00978 0.0
C940 C 0.08364 0.56835 0.02436 0.0
C941 C 0.08417 0.62058 0.01917 0.0
C942 C 0.06412 0.53979 0.01941 0.0
C943 C 0.04469 0.5627 0.00907 0.0
C944 C 0.04507 0.61495 0.00414 0.0
C945 C 0.06462 0.64358 0.00904 0.0
C946 C 0.02396 0.5322 0.00362 0.0
C947 C 0.00332 0.54629 0.01496 0.0
C948 C 0.02464 0.48831 0.98821 0.0
C949 C 0.04557 0.47282 0.97459 0.0
C950 C 0.05673 0.50678 0.95826 0.0
C951 C 0.07656 0.4921 0.94565 0.0
C952 C 0.0853 0.44341 0.94906 0.0
C953 C 0.0742 0.40926 0.96504 0.0
C954 C 0.05439 0.42377 0.97773 0.0
C955 C 0.92423 0.43575 0.97711 0.0
C956 C 0.92413 0.38343 0.98211 0.0
C957 C 0.94373 0.46477 0.98151 0.0
C958 C 0.96353 0.44228 0.9912 0.0
C959 C 0.96357 0.38993 0.99589 0.0
C960 C 0.94409 0.36082 0.99144 0.0
C961 C 0.98419 0.47328 0.99635 0.0
C962 C 0.00482 0.45928 0.98495 0.0
C963 C 0.98352 0.51721 0.01174 0.0
C964 C 0.96264 0.53256 0.02551 0.0
C965 C 0.95168 0.4986 0.042 0.0
C966 C 0.9319 0.51315 0.05475 0.0
C967 C 0.92302 0.5617 0.05132 0.0
C968 C 0.93393 0.59586 0.03518 0.0
C969 C 0.9537 0.58148 0.02236 0.0
H970 H 0.90771 0.57289 0.0612 0.0
H971 H 0.10065 0.43212 0.93928 0.0
H972 H 0.59814 0.94902 0.52852 0.0
H973 H 0.56391 0.99926 0.52172 0.0
H974 H 0.53032 0.86917 0.48958 0.0
H975 H 0.56471 0.81849 0.4961 0.0
H976 H 0.52192 0.95515 0.46219 0.0
H977 H 0.51893 0.90504 0.5494 0.0
H978 H 0.53412 0.89519 0.59261 0.0
H979 H 0.54052 0.05652 0.59951 0.0
H980 H 0.5257 0.06731 0.55614 0.0
H981 H 0.40943 0.04972 0.46849 0.0
H982 H 0.44361 0.99904 0.47501 0.0
H983 H 0.47732 0.12806 0.50806 0.0
H984 H 0.44303 0.17911 0.50183 0.0
H985 H 0.48561 0.0423 0.53501 0.0
H986 H 0.48893 0.09278 0.448 0.0
H987 H 0.47438 0.1032 0.40455 0.0
H988 H 0.46778 0.942 0.39712 0.0
H989 H 0.48197 0.93064 0.44071 0.0
C990 C 0.58354 0.931 0.51988 0.0
C991 C 0.58419 0.8796 0.5129 0.0
C992 C 0.56391 0.95982 0.51611 0.0
C993 C 0.54442 0.93789 0.50541 0.0
C994 C 0.54514 0.88688 0.49791 0.0
C995 C 0.56479 0.85793 0.50172 0.0
C996 C 0.52323 0.96814 0.50241 0.0
C997 C 0.51379 0.9736 0.47817 0.0
C998 C 0.51291 0.99324 0.52316 0.0
C999 C 0.5214 0.98695 0.54943 0.0
C1000 C 0.52371 0.93841 0.56006 0.0
C1001 C 0.53225 0.93266 0.58459 0.0
C1002 C 0.53834 0.9752 0.59877 0.0
C1003 C 0.53582 0.0236 0.58848 0.0
C1004 C 0.52734 0.02956 0.56394 0.0
C1005 C 0.42406 0.06739 0.47725 0.0
C1006 C 0.42347 0.1186 0.48459 0.0
C1007 C 0.44365 0.03835 0.48086 0.0
C1008 C 0.46316 0.05983 0.49176 0.0
C1009 C 0.4625 0.11066 0.49957 0.0
C1010 C 0.44289 0.13984 0.49593 0.0
C1011 C 0.48428 0.02932 0.49477 0.0
C1012 C 0.49371 0.02381 0.51903 0.0
C1013 C 0.49462 0.00424 0.47403 0.0
C1014 C 0.4863 0.01089 0.44772 0.0
C1015 C 0.48421 0.05956 0.43718 0.0
C1016 C 0.47605 0.06564 0.41251 0.0
C1017 C 0.4701 0.0233 0.39811 0.0
C1018 C 0.47237 0.97477 0.40832 0.0
C1019 C 0.48048 0.96848 0.433 0.0
H1020 H 0.46378 0.02808 0.37902 0.0
H1021 H 0.54497 0.97066 0.61774 0.0
H1022 H 0.90919 0.04346 0.53857 0.0
H1023 H 0.94325 0.99391 0.52931 0.0
H1024 H 0.97196 0.12086 0.48915 0.0
H1025 H 0.93781 0.17066 0.49813 0.0
H1026 H 0.97845 0.03296 0.46338 0.0
H1027 H 0.9897 0.09209 0.54836 0.0
H1028 H 0.97933 0.10545 0.59312 0.0
H1029 H 0.97582 0.94471 0.60452 0.0
H1030 H 0.98584 0.93039 0.55971 0.0
H1031 H 0.0922 0.94663 0.45693 0.0
H1032 H 0.05795 0.99529 0.4663 0.0
H1033 H 0.03065 0.86884 0.50806 0.0
H1034 H 0.06512 0.82005 0.49913 0.0
H1035 H 0.0232 0.95584 0.53298 0.0
H1036 H 0.01218 0.89648 0.44813 0.0
H1037 H 0.02264 0.88294 0.40342 0.0
H1038 H 0.02559 0.04363 0.39168 0.0
H1039 H 0.01548 0.05814 0.43646 0.0
C1040 C 0.9227 0.06091 0.52771 0.0
C1041 C 0.92075 0.11116 0.51915 0.0
C1042 C 0.94224 0.03252 0.52252 0.0
C1043 C 0.96031 0.05376 0.50874 0.0
C1044 C 0.95827 0.10364 0.49983 0.0
C1045 C 0.93874 0.13213 0.50506 0.0
C1046 C 0.98137 0.02404 0.50377 0.0
C1047 C 0.98839 0.01666 0.47862 0.0
C1048 C 0.9941 1.0017 0.52359 0.0
C1049 C 0.9883 0.01018 0.55061 0.0
C1050 C 0.98655 0.05959 0.56037 0.0
C1051 C 0.98076 0.06734 0.58575 0.0
C1052 C 0.97685 0.02596 0.60164 0.0
C1053 C 0.97881 0.97673 0.59219 0.0
C1054 C 0.98456 0.96878 0.5668 0.0
C1055 C 0.07896 0.92908 0.46816 0.0
C1056 C 0.08143 0.8793 0.47722 0.0
C1057 C 0.0593 0.95695 0.47341 0.0
C1058 C 0.04153 0.93558 0.48762 0.0
C1059 C 0.04409 0.88615 0.49702 0.0
C1060 C 0.06379 0.85824 0.49183 0.0
C1061 C 0.02031 0.96478 0.49258 0.0
C1062 C 0.01325 0.97207 0.51773 0.0
C1063 C 0.00752 0.98698 0.47274 0.0
C1064 C 0.01328 0.97839 0.44571 0.0
C1065 C 0.01521 0.92893 0.43606 0.0
C1066 C 0.02106 0.92108 0.4107 0.0
C1067 C 0.02484 0.9624 0.39474 0.0
C1068 C 0.02269 0.01166 0.40408 0.0
C1069 C 0.01688 0.01973 0.42945 0.0
H1070 H 0.02938 0.95624 0.37511 0.0
H1071 H 0.97236 0.03203 0.62128 0.0
H1072 H 0.21791 0.67888 0.02819 0.0
H1073 H 0.24433 0.62096 0.00795 0.0
H1074 H 0.18961 0.55715 0.96395 0.0
H1075 H 0.16278 0.61577 0.98439 0.0
H1076 H 0.21318 0.48563 0.98993 0.0
H1077 H 0.23257 0.61423 0.93252 0.0
H1078 H 0.24145 0.70059 0.91789 0.0
H1079 H 0.30178 0.7018 0.96354 0.0
H1080 H 0.29312 0.6158 0.97878 0.0
H1081 H 0.3069 0.31596 0.9836 0.0
H1082 H 0.27859 0.37146 0.96328 0.0
H1083 H 0.30449 0.49834 0.00604 0.0
H1084 H 0.33268 0.44355 0.02564 0.0
H1085 H 0.29075 0.52907 0.96032 0.0
H1086 H 0.26208 0.41655 0.02781 0.0
H1087 H 0.25179 0.33336 0.04559 0.0
H1088 H 0.20772 0.30512 0.98247 0.0
H1089 H 0.21823 0.38767 0.96389 0.0
C1090 C 0.21152 0.65329 0.01383 0.0
C1091 C 0.18826 0.65163 0.00797 0.0
C1092 C 0.2267 0.62045 0.00206 0.0
C1093 C 0.21902 0.58504 0.9842 0.0
C1094 C 0.19592 0.58453 0.97751 0.0
C1095 C 0.18065 0.61804 0.98913 0.0
C1096 C 0.23484 0.5448 0.97563 0.0
C1097 C 0.2299 0.49474 0.98254 0.0
C1098 C 0.25665 0.55668 0.96604 0.0
C1099 C 0.26218 0.60836 0.95677 0.0
C1100 C 0.24769 0.63295 0.93953 0.0
C1101 C 0.25269 0.68188 0.93113 0.0
C1102 C 0.27217 0.70665 0.93976 0.0
C1103 C 0.28672 0.68252 0.95681 0.0
C1104 C 0.2818 0.63359 0.96529 0.0
C1105 C 0.30689 0.35608 0.98787 0.0
C1106 C 0.32166 0.37576 0.00627 0.0
C1107 C 0.29071 0.38763 0.97642 0.0
C1108 C 0.2892 0.43896 0.98339 0.0
C1109 C 0.30527 0.45899 0.00029 0.0
C1110 C 0.32127 0.42763 0.01168 0.0
C1111 C 0.26948 0.47103 0.97634 0.0
C1112 C 0.27369 0.51949 0.96646 0.0
C1113 C 0.24701 0.45784 0.98338 0.0
C1114 C 0.24118 0.40786 0.99429 0.0
C1115 C 0.25039 0.39237 0.01759 0.0
C1116 C 0.24448 0.34541 0.02784 0.0
C1117 C 0.22905 0.31411 0.01526 0.0
C1118 C 0.21967 0.32944 0.99221 0.0
C1119 C 0.22565 0.3762 0.98175 0.0
H1120 H 0.22431 0.27806 0.02342 0.0
H1121 H 0.276 0.74455 0.93325 0.0
H1122 H 0.29453 0.21776 0.4945 0.0
H1123 H 0.26246 0.16524 0.50792 0.0
H1124 H 0.30655 0.03463 0.50988 0.0
H1125 H 0.33875 0.08793 0.49772 0.0
H1126 H 0.24711 0.10011 0.47797 0.0
H1127 H 0.2838 0.93652 0.54067 0.0
H1128 H 0.30929 0.92701 0.57737 0.0
H1129 H 0.2958 0.08043 0.59961 0.0
H1130 H 0.26995 0.09069 0.56328 0.0
H1131 H 0.20728 0.86773 0.44351 0.0
H1132 H 0.23217 0.93365 0.45932 0.0
H1133 H 0.19213 0.94508 0.52748 0.0
H1134 H 0.16671 0.87816 0.51173 0.0
H1135 H 0.24153 0.95094 0.53467 0.0
H1136 H 0.18232 0.02999 0.48796 0.0
H1137 H 0.15583 0.0424 0.45236 0.0
H1138 H 0.21205 0.06548 0.40182 0.0
H1139 H 0.23891 0.05214 0.43698 0.0
C1140 C 0.29747 0.17831 0.49907 0.0
C1141 C 0.31896 0.15669 0.49544 0.0
C1142 C 0.27916 0.14825 0.50657 0.0
C1143 C 0.28198 0.09584 0.50989 0.0
C1144 C 0.30393 0.07503 0.50802 0.0
C1145 C 0.32235 0.10541 0.50102 0.0
C1146 C 0.26177 0.06205 0.51021 0.0
C1147 C 0.24575 0.06811 0.49075 0.0
C1148 C 0.25964 0.02055 0.52704 0.0
C1149 C 0.27499 0.01443 0.54913 0.0
C1150 C 0.28613 0.96814 0.55347 0.0
C1151 C 0.30069 0.96264 0.5742 0.0
C1152 C 0.3042 0.00311 0.59079 0.0
C1153 C 0.29312 0.04915 0.58671 0.0
C1154 C 0.27854 0.05485 0.56602 0.0
C1155 C 0.20369 0.88374 0.46197 0.0
C1156 C 0.18473 0.86801 0.47619 0.0
C1157 C 0.21803 0.92146 0.47098 0.0
C1158 C 0.21379 0.9446 0.49438 0.0
C1159 C 0.19559 0.92763 0.50932 0.0
C1160 C 0.18108 0.88959 0.50025 0.0
C1161 C 0.22784 0.98848 0.50192 0.0
C1162 C 0.24268 0.98401 0.52257 0.0
C1163 C 0.22875 0.0321 0.48647 0.0
C1164 C 0.21265 0.03993 0.46516 0.0
C1165 C 0.18905 0.0373 0.46922 0.0
C1166 C 0.17397 0.04456 0.44912 0.0
C1167 C 0.18225 0.05488 0.42487 0.0
C1168 C 0.20565 0.05763 0.42063 0.0
C1169 C 0.22082 0.05025 0.44065 0.0
H1170 H 0.17055 0.06082 0.40936 0.0
H1171 H 0.31548 0.99878 0.60681 0.0
H1172 H 0.71686 0.6999 0.99724 0.0
H1173 H 0.74576 0.64245 0.01414 0.0
H1174 H 0.69738 0.51955 0.01179 0.0
H1175 H 0.66814 0.57799 0.9966 0.0
H1176 H 0.72515 0.50094 0.04789 0.0
H1177 H 0.73452 0.55072 0.96088 0.0
H1178 H 0.74108 0.60529 0.9237 0.0
H1179 H 0.80362 0.65808 0.95619 0.0
H1180 H 0.79731 0.6042 0.99368 0.0
H1181 H 0.7904 0.30467 0.99052 0.0
H1182 H 0.76446 0.3685 0.00737 0.0
H1183 H 0.82159 0.45908 0.03108 0.0
H1184 H 0.84771 0.39462 0.01464 0.0
H1185 H 0.79342 0.50077 0.9928 0.0
H1186 H 0.78572 0.4282 0.07487 0.0
H1187 H 0.77923 0.35968 0.1057 0.0
H1188 H 0.71203 0.3369 0.07624 0.0
H1189 H 0.71822 0.40476 0.04496 0.0
C1190 C 0.71228 0.66101 0.00133 0.0
C1191 C 0.69041 0.64311 0.99583 0.0
C1192 C 0.7288 0.62808 0.0107 0.0
C1193 C 0.72398 0.57626 0.01353 0.0
C1194 C 0.70159 0.55926 0.00975 0.0
C1195 C 0.68486 0.59261 0.00112 0.0
C1196 C 0.74261 0.53901 0.01744 0.0
C1197 C 0.74009 0.50092 0.03585 0.0
C1198 C 0.76231 0.5391 0.00197 0.0
C1199 C 0.7653 0.57397 0.98022 0.0
C1200 C 0.7495 0.57453 0.96026 0.0
C1201 C 0.75322 0.60519 0.93909 0.0
C1202 C 0.77277 0.63509 0.9376 0.0
C1203 C 0.78849 0.6349 0.95739 0.0
C1204 C 0.78485 0.60438 0.9786 0.0
C1205 C 0.7974 0.33722 0.00027 0.0
C1206 C 0.821 0.34502 0.00118 0.0
C1207 C 0.78258 0.37351 0.01003 0.0
C1208 C 0.79112 0.41842 0.0205 0.0
C1209 C 0.8147 0.42438 0.02329 0.0
C1210 C 0.82958 0.38756 0.01393 0.0
C1211 C 0.77583 0.46256 0.02293 0.0
C1212 C 0.77887 0.50178 0.00545 0.0
C1213 C 0.75635 0.46224 0.03858 0.0
C1214 C 0.75249 0.42151 0.05746 0.0
C1215 C 0.76961 0.40835 0.07482 0.0
C1216 C 0.76598 0.36965 0.09241 0.0
C1217 C 0.74524 0.34392 0.09291 0.0
C1218 C 0.72808 0.35689 0.07584 0.0
C1219 C 0.73163 0.39554 0.0582 0.0
H1220 H 0.74246 0.31396 0.10654 0.0
H1221 H 0.77589 0.65815 0.92106 0.0
H1222 H 0.66809 0.9286 0.51035 0.0
H1223 H 0.69863 0.98083 0.49311 0.0
H1224 H 0.73368 0.84629 0.46805 0.0
H1225 H 0.70279 0.79393 0.4853 0.0
H1226 H 0.75854 0.90056 0.50051 0.0
H1227 H 0.72024 0.9365 0.42441 0.0
H1228 H 0.68808 0.95839 0.39664 0.0
H1229 H 0.6825 0.10368 0.43256 0.0
H1230 H 0.71439 0.08247 0.46082 0.0
H1231 H 0.83711 0.12693 0.47932 0.0
H1232 H 0.8118 0.06377 0.45979 0.0
H1233 H 0.76879 0.06771 0.52584 0.0
H1234 H 0.79329 0.13054 0.54519 0.0
H1235 H 0.75608 0.06605 0.45618 0.0
H1236 H 0.77213 0.94035 0.543 0.0
H1237 H 0.80323 0.92184 0.57286 0.0
H1238 H 0.85241 0.9554 0.51518 0.0
H1239 H 0.82161 0.97317 0.48482 0.0
C1240 C 0.68179 0.91049 0.50005 0.0
C1241 C 0.68309 0.85762 0.49871 0.0
C1242 C 0.69924 0.94026 0.49016 0.0
C1243 C 0.7184 0.91752 0.47908 0.0
C1244 C 0.71895 0.86462 0.47626 0.0
C1245 C 0.70131 0.83479 0.48595 0.0
C1246 C 0.73923 0.94831 0.47538 0.0
C1247 C 0.75826 0.936 0.49014 0.0
C1248 C 0.73894 0.99451 0.46179 0.0
C1249 C 0.71977 0.00781 0.44477 0.0
C1250 C 0.71209 0.97303 0.4265 0.0
C1251 C 0.6939 0.98534 0.41064 0.0
C1252 C 0.68326 0.0324 0.41283 0.0
C1253 C 0.6908 0.06727 0.43085 0.0
C1254 C 0.70897 0.05516 0.44676 0.0
C1255 C 0.82206 0.11488 0.48948 0.0
C1256 C 0.81744 0.1334 0.51398 0.0
C1257 C 0.80765 0.07897 0.47828 0.0
C1258 C 0.78862 0.06105 0.49154 0.0
C1259 C 0.78349 0.08104 0.51541 0.0
C1260 C 0.79764 0.11689 0.52647 0.0
C1261 C 0.77462 0.01877 0.48203 0.0
C1262 C 0.75676 0.02933 0.46531 0.0
C1263 C 0.77591 0.97082 0.49376 0.0
C1264 C 0.79454 0.9583 0.51165 0.0
C1265 C 0.78957 0.94333 0.53661 0.0
C1266 C 0.80715 0.93302 0.55364 0.0
C1267 C 0.82978 0.93744 0.54592 0.0
C1268 C 0.83488 0.95204 0.52114 0.0
C1269 C 0.81736 0.96227 0.50402 0.0
H1270 H 0.84336 0.92962 0.55916 0.0
H1271 H 0.66917 0.04184 0.40054 0.0
loop_
_geom_bond_atom_site_label_1
_geom_bond_atom_site_label_2
_geom_bond_distance
_geom_bond_site_symmetry_2
_ccdc_geom_bond_type
Co0 O2 2.143 . S
Co0 O8 2.074 . S
Co0 O11 2.093 . S
Co0 O24 2.097 . S
Co0 N41 2.151 . S
Co0 N49 2.214 . S
Co1 O2 2.160 . S
Co1 O7 2.058 . S
Co1 O17 2.057 . S
Co1 O32 2.037 . S
Co1 N36 2.145 1_554 S
Co1 N57 2.257 . S
O2 Co0 2.143 . S
O2 Co1 2.160 . S
C3 O4 1.278 . S
C3 O11 1.224 . S
O4 C3 1.278 . S
C5 O6 1.245 . S
C5 O17 1.232 . S
O6 C5 1.245 . S
O7 Co1 2.058 . S
O7 C33 1.269 . S
O8 Co0 2.074 . S
O8 C33 1.257 . S
H9 C34 0.930 . S
H10 C40 0.930 . S
O11 Co0 2.093 . S
O11 C3 1.224 . S
H12 C44 0.929 . S
H13 C46 0.930 . S
H14 C47 0.930 . S
H15 C45 0.929 . S
H16 C48 0.928 . S
O17 Co1 2.057 . S
O17 C5 1.232 . S
H18 C37 0.929 . S
H19 C38 0.929 . S
H20 C50 0.931 . S
H21 C42 0.929 . S
H22 C51 0.930 . S
H23 C43 0.931 . S
O24 Co0 2.097 . S
O24 C52 1.214 . S
H25 C53 0.929 . S
H26 C54 0.929 . S
H27 C55 0.930 . S
H28 C56 0.929 . S
H29 C58 0.930 . S
H30 C35 0.930 . S
H31 C39 0.930 . S
O32 Co1 2.037 . S
O32 C52 1.234 . S
C33 O7 1.269 . S
C33 O8 1.257 . S
C34 H9 0.930 . S
C34 C37 1.388 . S
C34 C39 1.418 . S
C35 H30 0.930 . S
C35 C38 1.404 . S
C35 C39 1.353 . S
N36 Co1 2.145 1_556 S
N36 C37 1.397 . S
N36 C38 1.334 . S
C37 H18 0.929 . S
C37 C34 1.388 . S
C37 N36 1.397 . S
C38 H19 0.929 . S
C38 C35 1.404 . S
C38 N36 1.334 . S
C39 H31 0.930 . S
C39 C34 1.418 . S
C39 C35 1.353 . S
C40 H10 0.930 . S
C40 N41 1.330 . S
C40 C42 1.446 . S
N41 Co0 2.151 . S
N41 C40 1.330 . S
N41 C45 1.418 . S
C42 H21 0.929 . S
C42 C40 1.446 . S
C42 C43 1.332 . S
C43 H23 0.931 . S
C43 C42 1.332 . S
C43 C44 1.267 . S
C44 H12 0.929 . S
C44 C43 1.267 . S
C44 C45 1.251 . S
C45 H15 0.929 . S
C45 N41 1.418 . S
C45 C44 1.251 . S
C46 H13 0.930 . S
C46 C48 1.406 . S
C46 C51 1.261 . S
C47 H14 0.930 . S
C47 N49 1.325 . S
C47 C50 1.357 . S
C48 H16 0.928 . S
C48 C46 1.406 . S
C48 N49 1.261 . S
N49 Co0 2.214 . S
N49 C47 1.325 . S
N49 C48 1.261 . S
C50 H20 0.931 . S
C50 C47 1.357 . S
C50 C51 1.312 . S
C51 H22 0.930 . S
C51 C46 1.261 . S
C51 C50 1.312 . S
C52 O24 1.214 . S
C52 O32 1.234 . S
C53 H25 0.929 . S
C53 C56 1.391 . S
C53 C58 1.391 . S
C54 H26 0.929 . S
C54 C55 1.390 . S
C54 N57 1.391 . S
C55 H27 0.930 . S
C55 C54 1.390 . S
C55 C56 1.392 . S
C56 H28 0.929 . S
C56 C53 1.391 . S
C56 C55 1.392 . S
N57 Co1 2.257 . S
N57 C54 1.391 . S
N57 C58 1.388 . S
C58 H29 0.930 . S
C58 C53 1.391 . S
C58 N57 1.388 . S
Co59 O61 2.143 . S
Co59 O67 2.074 . S
Co59 O70 2.093 . S
Co59 O83 2.097 . S
Co59 N100 2.151 . S
Co59 N108 2.214 . S
Co60 O61 2.160 . S
Co60 O66 2.058 . S
Co60 O76 2.057 . S
Co60 O91 2.037 . S
Co60 N95 2.145 1_554 S
Co60 N116 2.257 . S
O61 Co59 2.143 . S
O61 Co60 2.160 . S
C62 O63 1.278 . S
C62 O70 1.224 . S
O63 C62 1.278 . S
C64 O65 1.245 . S
C64 O76 1.232 . S
O65 C64 1.245 . S
O66 Co60 2.058 . S
O66 C92 1.269 . S
O67 Co59 2.074 . S
O67 C92 1.257 . S
H68 C93 0.930 . S
H69 C99 0.930 . S
O70 Co59 2.093 . S
O70 C62 1.224 . S
H71 C103 0.929 . S
H72 C105 0.930 . S
H73 C106 0.930 . S
H74 C104 0.929 . S
H75 C107 0.928 . S
O76 Co60 2.057 . S
O76 C64 1.232 . S
H77 C96 0.929 . S
H78 C97 0.929 . S
H79 C109 0.931 . S
H80 C101 0.929 . S
H81 C110 0.930 . S
H82 C102 0.931 . S
O83 Co59 2.097 . S
O83 C111 1.214 . S
H84 C112 0.929 . S
H85 C113 0.929 . S
H86 C114 0.930 . S
H87 C115 0.929 . S
H88 C117 0.930 . S
H89 C94 0.930 . S
H90 C98 0.930 . S
O91 Co60 2.037 . S
O91 C111 1.234 . S
C92 O66 1.269 . S
C92 O67 1.257 . S
C93 H68 0.930 . S
C93 C96 1.388 . S
C93 C98 1.418 . S
C94 H89 0.930 . S
C94 C97 1.404 . S
C94 C98 1.353 . S
N95 Co60 2.145 1_556 S
N95 C96 1.397 . S
N95 C97 1.334 . S
C96 H77 0.929 . S
C96 C93 1.388 . S
C96 N95 1.397 . S
C97 H78 0.929 . S
C97 C94 1.404 . S
C97 N95 1.334 . S
C98 H90 0.930 . S
C98 C93 1.418 . S
C98 C94 1.353 . S
C99 H69 0.930 . S
C99 N100 1.330 . S
C99 C101 1.446 . S
N100 Co59 2.151 . S
N100 C99 1.330 . S
N100 C104 1.418 . S
C101 H80 0.929 . S
C101 C99 1.446 . S
C101 C102 1.332 . S
C102 H82 0.931 . S
C102 C101 1.332 . S
C102 C103 1.267 . S
C103 H71 0.929 . S
C103 C102 1.267 . S
C103 C104 1.251 . S
C104 H74 0.929 . S
C104 N100 1.418 . S
C104 C103 1.251 . S
C105 H72 0.930 . S
C105 C107 1.406 . S
C105 C110 1.261 . S
C106 H73 0.930 . S
C106 N108 1.325 . S
C106 C109 1.357 . S
C107 H75 0.928 . S
C107 C105 1.406 . S
C107 N108 1.261 . S
N108 Co59 2.214 . S
N108 C106 1.325 . S
N108 C107 1.261 . S
C109 H79 0.931 . S
C109 C106 1.357 . S
C109 C110 1.312 . S
C110 H81 0.930 . S
C110 C105 1.261 . S
C110 C109 1.312 . S
C111 O83 1.214 . S
C111 O91 1.234 . S
C112 H84 0.929 . S
C112 C115 1.391 . S
C112 C117 1.391 . S
C113 H85 0.929 . S
C113 C114 1.390 . S
C113 N116 1.391 . S
C114 H86 0.930 . S
C114 C113 1.390 . S
C114 C115 1.392 . S
C115 H87 0.929 . S
C115 C112 1.391 . S
C115 C114 1.392 . S
N116 Co60 2.257 . S
N116 C113 1.391 . S
N116 C117 1.388 . S
C117 H88 0.930 . S
C117 C112 1.391 . S
C117 N116 1.388 . S
Co118 O120 2.143 . S
Co118 O126 2.074 . S
Co118 O129 2.093 . S
Co118 O142 2.097 . S
Co118 N159 2.151 . S
Co118 N167 2.214 . S
Co119 O120 2.160 . S
Co119 O125 2.058 . S
Co119 O135 2.057 . S
Co119 O150 2.037 . S
Co119 N154 2.145 . S
Co119 N175 2.257 . S
O120 Co118 2.143 . S
O120 Co119 2.160 . S
C121 O122 1.278 . S
C121 O129 1.224 . S
O122 C121 1.278 . S
C123 O124 1.245 . S
C123 O135 1.232 . S
O124 C123 1.245 . S
O125 Co119 2.058 . S
O125 C151 1.269 . S
O126 Co118 2.074 . S
O126 C151 1.257 . S
H127 C152 0.930 . S
H128 C158 0.930 . S
O129 Co118 2.093 . S
O129 C121 1.224 . S
H130 C162 0.929 . S
H131 C164 0.930 . S
H132 C165 0.930 . S
H133 C163 0.929 . S
H134 C166 0.928 . S
O135 Co119 2.057 . S
O135 C123 1.232 . S
H136 C155 0.929 . S
H137 C156 0.929 . S
H138 C168 0.931 . S
H139 C160 0.929 . S
H140 C169 0.930 . S
H141 C161 0.931 . S
O142 Co118 2.097 . S
O142 C170 1.214 . S
H143 C171 0.929 . S
H144 C172 0.929 . S
H145 C173 0.930 . S
H146 C174 0.929 . S
H147 C176 0.930 . S
H148 C153 0.930 . S
H149 C157 0.930 . S
O150 Co119 2.037 . S
O150 C170 1.234 . S
C151 O125 1.269 . S
C151 O126 1.257 . S
C152 H127 0.930 . S
C152 C155 1.388 . S
C152 C157 1.418 . S
C153 H148 0.930 . S
C153 C156 1.404 . S
C153 C157 1.353 . S
N154 Co119 2.145 . S
N154 C155 1.397 . S
N154 C156 1.334 . S
C155 H136 0.929 . S
C155 C152 1.388 . S
C155 N154 1.397 . S
C156 H137 0.929 . S
C156 C153 1.404 . S
C156 N154 1.334 . S
C157 H149 0.930 . S
C157 C152 1.418 . S
C157 C153 1.353 . S
C158 H128 0.930 . S
C158 N159 1.330 . S
C158 C160 1.446 . S
N159 Co118 2.151 . S
N159 C158 1.330 . S
N159 C163 1.418 . S
C160 H139 0.929 . S
C160 C158 1.446 . S
C160 C161 1.332 . S
C161 H141 0.931 . S
C161 C160 1.332 . S
C161 C162 1.267 . S
C162 H130 0.929 . S
C162 C161 1.267 . S
C162 C163 1.251 . S
C163 H133 0.929 . S
C163 N159 1.418 . S
C163 C162 1.251 . S
C164 H131 0.930 . S
C164 C166 1.406 . S
C164 C169 1.261 . S
C165 H132 0.930 . S
C165 N167 1.325 . S
C165 C168 1.357 . S
C166 H134 0.928 . S
C166 C164 1.406 . S
C166 N167 1.261 . S
N167 Co118 2.214 . S
N167 C165 1.325 . S
N167 C166 1.261 . S
C168 H138 0.931 . S
C168 C165 1.357 . S
C168 C169 1.312 . S
C169 H140 0.930 . S
C169 C164 1.261 . S
C169 C168 1.312 . S
C170 O142 1.214 . S
C170 O150 1.234 . S
C171 H143 0.929 . S
C171 C174 1.391 . S
C171 C176 1.391 . S
C172 H144 0.929 . S
C172 C173 1.390 . S
C172 N175 1.391 . S
C173 H145 0.930 . S
C173 C172 1.390 . S
C173 C174 1.392 . S
C174 H146 0.929 . S
C174 C171 1.391 . S
C174 C173 1.392 . S
N175 Co119 2.257 . S
N175 C172 1.391 . S
N175 C176 1.388 . S
C176 H147 0.930 . S
C176 C171 1.391 . S
C176 N175 1.388 . S
Co177 O179 2.143 . S
Co177 O185 2.074 . S
Co177 O188 2.093 . S
Co177 O201 2.097 . S
Co177 N218 2.151 . S
Co177 N226 2.214 . S
Co178 O179 2.160 . S
Co178 O184 2.058 . S
Co178 O194 2.057 . S
Co178 O209 2.037 . S
Co178 N213 2.145 . S
Co178 N234 2.257 . S
O179 Co177 2.143 . S
O179 Co178 2.160 . S
C180 O181 1.278 . S
C180 O188 1.224 . S
O181 C180 1.278 . S
C182 O183 1.245 . S
C182 O194 1.232 . S
O183 C182 1.245 . S
O184 Co178 2.058 . S
O184 C210 1.269 . S
O185 Co177 2.074 . S
O185 C210 1.257 . S
H186 C211 0.930 . S
H187 C217 0.930 . S
O188 Co177 2.093 . S
O188 C180 1.224 . S
H189 C221 0.929 . S
H190 C223 0.930 . S
H191 C224 0.930 . S
H192 C222 0.929 . S
H193 C225 0.928 . S
O194 Co178 2.057 . S
O194 C182 1.232 . S
H195 C214 0.929 . S
H196 C215 0.929 . S
H197 C227 0.931 . S
H198 C219 0.929 . S
H199 C228 0.930 . S
H200 C220 0.931 . S
O201 Co177 2.097 . S
O201 C229 1.214 . S
H202 C230 0.929 . S
H203 C231 0.929 . S
H204 C232 0.930 . S
H205 C233 0.929 . S
H206 C235 0.930 . S
H207 C212 0.930 . S
H208 C216 0.930 . S
O209 Co178 2.037 . S
O209 C229 1.234 . S
C210 O184 1.269 . S
C210 O185 1.257 . S
C211 H186 0.930 . S
C211 C214 1.388 . S
C211 C216 1.418 . S
C212 H207 0.930 . S
C212 C215 1.404 . S
C212 C216 1.353 . S
N213 Co178 2.145 . S
N213 C214 1.397 . S
N213 C215 1.334 . S
C214 H195 0.929 . S
C214 C211 1.388 . S
C214 N213 1.397 . S
C215 H196 0.929 . S
C215 C212 1.404 . S
C215 N213 1.334 . S
C216 H208 0.930 . S
C216 C211 1.418 . S
C216 C212 1.353 . S
C217 H187 0.930 . S
C217 N218 1.330 . S
C217 C219 1.446 . S
N218 Co177 2.151 . S
N218 C217 1.330 . S
N218 C222 1.418 . S
C219 H198 0.929 . S
C219 C217 1.446 . S
C219 C220 1.332 . S
C220 H200 0.931 . S
C220 C219 1.332 . S
C220 C221 1.267 . S
C221 H189 0.929 . S
C221 C220 1.267 . S
C221 C222 1.251 . S
C222 H192 0.929 . S
C222 N218 1.418 . S
C222 C221 1.251 . S
C223 H190 0.930 . S
C223 C225 1.406 . S
C223 C228 1.261 . S
C224 H191 0.930 . S
C224 N226 1.325 . S
C224 C227 1.357 . S
C225 H193 0.928 . S
C225 C223 1.406 . S
C225 N226 1.261 . S
N226 Co177 2.214 . S
N226 C224 1.325 . S
N226 C225 1.261 . S
C227 H197 0.931 . S
C227 C224 1.357 . S
C227 C228 1.312 . S
C228 H199 0.930 . S
C228 C223 1.261 . S
C228 C227 1.312 . S
C229 O201 1.214 . S
C229 O209 1.234 . S
C230 H202 0.929 . S
C230 C233 1.391 . S
C230 C235 1.391 . S
C231 H203 0.929 . S
C231 C232 1.390 . S
C231 N234 1.391 . S
C232 H204 0.930 . S
C232 C231 1.390 . S
C232 C233 1.392 . S
C233 H205 0.929 . S
C233 C230 1.391 . S
C233 C232 1.392 . S
N234 Co178 2.257 . S
N234 C231 1.391 . S
N234 C235 1.388 . S
C235 H206 0.930 . S
C235 C230 1.391 . S
C235 N234 1.388 . S
Co236 O238 2.143 . S
Co236 O244 2.074 . S
Co236 O247 2.093 . S
Co236 O260 2.097 . S
Co236 N277 2.151 . S
Co236 N285 2.214 . S
Co237 O238 2.160 . S
Co237 O243 2.058 . S
Co237 O253 2.057 . S
Co237 O268 2.037 . S
Co237 N272 2.145 1_556 S
Co237 N293 2.257 . S
O238 Co236 2.143 . S
O238 Co237 2.160 . S
C239 O240 1.278 . S
C239 O247 1.224 . S
O240 C239 1.278 . S
C241 O242 1.245 . S
C241 O253 1.232 . S
O242 C241 1.245 . S
O243 Co237 2.058 . S
O243 C269 1.269 . S
O244 Co236 2.074 . S
O244 C269 1.257 . S
H245 C270 0.930 . S
H246 C276 0.930 . S
O247 Co236 2.093 . S
O247 C239 1.224 . S
H248 C280 0.929 . S
H249 C282 0.930 . S
H250 C283 0.930 . S
H251 C281 0.929 . S
H252 C284 0.928 . S
O253 Co237 2.057 . S
O253 C241 1.232 . S
H254 C273 0.929 . S
H255 C274 0.929 . S
H256 C286 0.931 . S
H257 C278 0.929 . S
H258 C287 0.930 . S
H259 C279 0.931 . S
O260 Co236 2.097 . S
O260 C288 1.214 . S
H261 C289 0.929 . S
H262 C290 0.929 . S
H263 C291 0.930 . S
H264 C292 0.929 . S
H265 C294 0.930 . S
H266 C271 0.930 . S
H267 C275 0.930 . S
O268 Co237 2.037 . S
O268 C288 1.234 . S
C269 O243 1.269 . S
C269 O244 1.257 . S
C270 H245 0.930 . S
C270 C273 1.388 . S
C270 C275 1.418 . S
C271 H266 0.930 . S
C271 C274 1.404 . S
C271 C275 1.353 . S
N272 Co237 2.145 1_554 S
N272 C273 1.397 . S
N272 C274 1.334 . S
C273 H254 0.929 . S
C273 C270 1.388 . S
C273 N272 1.397 . S
C274 H255 0.929 . S
C274 C271 1.404 . S
C274 N272 1.334 . S
C275 H267 0.930 . S
C275 C270 1.418 . S
C275 C271 1.353 . S
C276 H246 0.930 . S
C276 N277 1.330 . S
C276 C278 1.446 . S
N277 Co236 2.151 . S
N277 C276 1.330 . S
N277 C281 1.418 . S
C278 H257 0.929 . S
C278 C276 1.446 . S
C278 C279 1.332 . S
C279 H259 0.931 . S
C279 C278 1.332 . S
C279 C280 1.267 . S
C280 H248 0.929 . S
C280 C279 1.267 . S
C280 C281 1.251 . S
C281 H251 0.929 . S
C281 N277 1.418 . S
C281 C280 1.251 . S
C282 H249 0.930 . S
C282 C284 1.406 . S
C282 C287 1.261 . S
C283 H250 0.930 . S
C283 N285 1.325 . S
C283 C286 1.357 . S
C284 H252 0.928 . S
C284 C282 1.406 . S
C284 N285 1.261 . S
N285 Co236 2.214 . S
N285 C283 1.325 . S
N285 C284 1.261 . S
C286 H256 0.931 . S
C286 C283 1.357 . S
C286 C287 1.312 . S
C287 H258 0.930 . S
C287 C282 1.261 . S
C287 C286 1.312 . S
C288 O260 1.214 . S
C288 O268 1.234 . S
C289 H261 0.929 . S
C289 C292 1.391 . S
C289 C294 1.391 . S
C290 H262 0.929 . S
C290 C291 1.390 . S
C290 N293 1.391 . S
C291 H263 0.930 . S
C291 C290 1.390 . S
C291 C292 1.392 . S
C292 H264 0.929 . S
C292 C289 1.391 . S
C292 C291 1.392 . S
N293 Co237 2.257 . S
N293 C290 1.391 . S
N293 C294 1.388 . S
C294 H265 0.930 . S
C294 C289 1.391 . S
C294 N293 1.388 . S
Co295 O297 2.143 . S
Co295 O303 2.074 . S
Co295 O306 2.093 . S
Co295 O319 2.097 . S
Co295 N336 2.151 . S
Co295 N344 2.214 . S
Co296 O297 2.160 . S
Co296 O302 2.058 . S
Co296 O312 2.057 . S
Co296 O327 2.037 . S
Co296 N331 2.145 1_556 S
Co296 N352 2.257 . S
O297 Co295 2.143 . S
O297 Co296 2.160 . S
C298 O299 1.278 . S
C298 O306 1.224 . S
O299 C298 1.278 . S
C300 O301 1.245 . S
C300 O312 1.232 . S
O301 C300 1.245 . S
O302 Co296 2.058 . S
O302 C328 1.269 . S
O303 Co295 2.074 . S
O303 C328 1.257 . S
H304 C329 0.930 . S
H305 C335 0.930 . S
O306 Co295 2.093 . S
O306 C298 1.224 . S
H307 C339 0.929 . S
H308 C341 0.930 . S
H309 C342 0.930 . S
H310 C340 0.929 . S
H311 C343 0.928 . S
O312 Co296 2.057 . S
O312 C300 1.232 . S
H313 C332 0.929 . S
H314 C333 0.929 . S
H315 C345 0.931 . S
H316 C337 0.929 . S
H317 C346 0.930 . S
H318 C338 0.931 . S
O319 Co295 2.097 . S
O319 C347 1.214 . S
H320 C348 0.929 . S
H321 C349 0.929 . S
H322 C350 0.930 . S
H323 C351 0.929 . S
H324 C353 0.930 . S
H325 C330 0.930 . S
H326 C334 0.930 . S
O327 Co296 2.037 . S
O327 C347 1.234 . S
C328 O302 1.269 . S
C328 O303 1.257 . S
C329 H304 0.930 . S
C329 C332 1.388 . S
C329 C334 1.418 . S
C330 H325 0.930 . S
C330 C333 1.404 . S
C330 C334 1.353 . S
N331 Co296 2.145 1_554 S
N331 C332 1.397 . S
N331 C333 1.334 . S
C332 H313 0.929 . S
C332 C329 1.388 . S
C332 N331 1.397 . S
C333 H314 0.929 . S
C333 C330 1.404 . S
C333 N331 1.334 . S
C334 H326 0.930 . S
C334 C329 1.418 . S
C334 C330 1.353 . S
C335 H305 0.930 . S
C335 N336 1.330 . S
C335 C337 1.446 . S
N336 Co295 2.151 . S
N336 C335 1.330 . S
N336 C340 1.418 . S
C337 H316 0.929 . S
C337 C335 1.446 . S
C337 C338 1.332 . S
C338 H318 0.931 . S
C338 C337 1.332 . S
C338 C339 1.267 . S
C339 H307 0.929 . S
C339 C338 1.267 . S
C339 C340 1.251 . S
C340 H310 0.929 . S
C340 N336 1.418 . S
C340 C339 1.251 . S
C341 H308 0.930 . S
C341 C343 1.406 . S
C341 C346 1.261 . S
C342 H309 0.930 . S
C342 N344 1.325 . S
C342 C345 1.357 . S
C343 H311 0.928 . S
C343 C341 1.406 . S
C343 N344 1.261 . S
N344 Co295 2.214 . S
N344 C342 1.325 . S
N344 C343 1.261 . S
C345 H315 0.931 . S
C345 C342 1.357 . S
C345 C346 1.312 . S
C346 H317 0.930 . S
C346 C341 1.261 . S
C346 C345 1.312 . S
C347 O319 1.214 . S
C347 O327 1.234 . S
C348 H320 0.929 . S
C348 C351 1.391 . S
C348 C353 1.391 . S
C349 H321 0.929 . S
C349 C350 1.390 . S
C349 N352 1.391 . S
C350 H322 0.930 . S
C350 C349 1.390 . S
C350 C351 1.392 . S
C351 H323 0.929 . S
C351 C348 1.391 . S
C351 C350 1.392 . S
N352 Co296 2.257 . S
N352 C349 1.391 . S
N352 C353 1.388 . S
C353 H324 0.930 . S
C353 C348 1.391 . S
C353 N352 1.388 . S
Co354 O356 2.143 . S
Co354 O362 2.074 . S
Co354 O365 2.093 . S
Co354 O378 2.097 . S
Co354 N395 2.151 . S
Co354 N403 2.214 . S
Co355 O356 2.160 . S
Co355 O361 2.058 . S
Co355 O371 2.057 . S
Co355 O386 2.037 . S
Co355 N390 2.145 . S
Co355 N411 2.257 . S
O356 Co354 2.143 . S
O356 Co355 2.160 . S
C357 O358 1.278 . S
C357 O365 1.224 . S
O358 C357 1.278 . S
C359 O360 1.245 . S
C359 O371 1.232 . S
O360 C359 1.245 . S
O361 Co355 2.058 . S
O361 C387 1.269 . S
O362 Co354 2.074 . S
O362 C387 1.257 . S
H363 C388 0.930 . S
H364 C394 0.930 . S
O365 Co354 2.093 . S
O365 C357 1.224 . S
H366 C398 0.929 . S
H367 C400 0.930 . S
H368 C401 0.930 . S
H369 C399 0.929 . S
H370 C402 0.928 . S
O371 Co355 2.057 . S
O371 C359 1.232 . S
H372 C391 0.929 . S
H373 C392 0.929 . S
H374 C404 0.931 . S
H375 C396 0.929 . S
H376 C405 0.930 . S
H377 C397 0.931 . S
O378 Co354 2.097 . S
O378 C406 1.214 . S
H379 C407 0.929 . S
H380 C408 0.929 . S
H381 C409 0.930 . S
H382 C410 0.929 . S
H383 C412 0.930 . S
H384 C389 0.930 . S
H385 C393 0.930 . S
O386 Co355 2.037 . S
O386 C406 1.234 . S
C387 O361 1.269 . S
C387 O362 1.257 . S
C388 H363 0.930 . S
C388 C391 1.388 . S
C388 C393 1.418 . S
C389 H384 0.930 . S
C389 C392 1.404 . S
C389 C393 1.353 . S
N390 Co355 2.145 . S
N390 C391 1.397 . S
N390 C392 1.334 . S
C391 H372 0.929 . S
C391 C388 1.388 . S
C391 N390 1.397 . S
C392 H373 0.929 . S
C392 C389 1.404 . S
C392 N390 1.334 . S
C393 H385 0.930 . S
C393 C388 1.418 . S
C393 C389 1.353 . S
C394 H364 0.930 . S
C394 N395 1.330 . S
C394 C396 1.446 . S
N395 Co354 2.151 . S
N395 C394 1.330 . S
N395 C399 1.418 . S
C396 H375 0.929 . S
C396 C394 1.446 . S
C396 C397 1.332 . S
C397 H377 0.931 . S
C397 C396 1.332 . S
C397 C398 1.267 . S
C398 H366 0.929 . S
C398 C397 1.267 . S
C398 C399 1.251 . S
C399 H369 0.929 . S
C399 N395 1.418 . S
C399 C398 1.251 . S
C400 H367 0.930 . S
C400 C402 1.406 . S
C400 C405 1.261 . S
C401 H368 0.930 . S
C401 N403 1.325 . S
C401 C404 1.357 . S
C402 H370 0.928 . S
C402 C400 1.406 . S
C402 N403 1.261 . S
N403 Co354 2.214 . S
N403 C401 1.325 . S
N403 C402 1.261 . S
C404 H374 0.931 . S
C404 C401 1.357 . S
C404 C405 1.312 . S
C405 H376 0.930 . S
C405 C400 1.261 . S
C405 C404 1.312 . S
C406 O378 1.214 . S
C406 O386 1.234 . S
C407 H379 0.929 . S
C407 C410 1.391 . S
C407 C412 1.391 . S
C408 H380 0.929 . S
C408 C409 1.390 . S
C408 N411 1.391 . S
C409 H381 0.930 . S
C409 C408 1.390 . S
C409 C410 1.392 . S
C410 H382 0.929 . S
C410 C407 1.391 . S
C410 C409 1.392 . S
N411 Co355 2.257 . S
N411 C408 1.391 . S
N411 C412 1.388 . S
C412 H383 0.930 . S
C412 C407 1.391 . S
C412 N411 1.388 . S
Co413 O415 2.143 . S
Co413 O421 2.074 . S
Co413 O424 2.093 . S
Co413 O437 2.097 . S
Co413 N454 2.151 . S
Co413 N462 2.214 . S
Co414 O415 2.160 . S
Co414 O420 2.058 . S
Co414 O430 2.057 . S
Co414 O445 2.037 . S
Co414 N449 2.145 . S
Co414 N470 2.257 . S
O415 Co413 2.143 . S
O415 Co414 2.160 . S
C416 O417 1.278 . S
C416 O424 1.224 . S
O417 C416 1.278 . S
C418 O419 1.245 . S
C418 O430 1.232 . S
O419 C418 1.245 . S
O420 Co414 2.058 . S
O420 C446 1.269 . S
O421 Co413 2.074 . S
O421 C446 1.257 . S
H422 C447 0.930 . S
H423 C453 0.930 . S
O424 Co413 2.093 . S
O424 C416 1.224 . S
H425 C457 0.929 . S
H426 C459 0.930 . S
H427 C460 0.930 . S
H428 C458 0.929 . S
H429 C461 0.928 . S
O430 Co414 2.057 . S
O430 C418 1.232 . S
H431 C450 0.929 . S
H432 C451 0.929 . S
H433 C463 0.931 . S
H434 C455 0.929 . S
H435 C464 0.930 . S
H436 C456 0.931 . S
O437 Co413 2.097 . S
O437 C465 1.214 . S
H438 C466 0.929 . S
H439 C467 0.929 . S
H440 C468 0.930 . S
H441 C469 0.929 . S
H442 C471 0.930 . S
H443 C448 0.930 . S
H444 C452 0.930 . S
O445 Co414 2.037 . S
O445 C465 1.234 . S
C446 O420 1.269 . S
C446 O421 1.257 . S
C447 H422 0.930 . S
C447 C450 1.388 . S
C447 C452 1.418 . S
C448 H443 0.930 . S
C448 C451 1.404 . S
C448 C452 1.353 . S
N449 Co414 2.145 . S
N449 C450 1.397 . S
N449 C451 1.334 . S
C450 H431 0.929 . S
C450 C447 1.388 . S
C450 N449 1.397 . S
C451 H432 0.929 . S
C451 C448 1.404 . S
C451 N449 1.334 . S
C452 H444 0.930 . S
C452 C447 1.418 . S
C452 C448 1.353 . S
C453 H423 0.930 . S
C453 N454 1.330 . S
C453 C455 1.446 . S
N454 Co413 2.151 . S
N454 C453 1.330 . S
N454 C458 1.418 . S
C455 H434 0.929 . S
C455 C453 1.446 . S
C455 C456 1.332 . S
C456 H436 0.931 . S
C456 C455 1.332 . S
C456 C457 1.267 . S
C457 H425 0.929 . S
C457 C456 1.267 . S
C457 C458 1.251 . S
C458 H428 0.929 . S
C458 N454 1.418 . S
C458 C457 1.251 . S
C459 H426 0.930 . S
C459 C461 1.406 . S
C459 C464 1.261 . S
C460 H427 0.930 . S
C460 N462 1.325 . S
C460 C463 1.357 . S
C461 H429 0.928 . S
C461 C459 1.406 . S
C461 N462 1.261 . S
N462 Co413 2.214 . S
N462 C460 1.325 . S
N462 C461 1.261 . S
C463 H433 0.931 . S
C463 C460 1.357 . S
C463 C464 1.312 . S
C464 H435 0.930 . S
C464 C459 1.261 . S
C464 C463 1.312 . S
C465 O437 1.214 . S
C465 O445 1.234 . S
C466 H438 0.929 . S
C466 C469 1.391 . S
C466 C471 1.391 . S
C467 H439 0.929 . S
C467 C468 1.390 . S
C467 N470 1.391 . S
C468 H440 0.930 . S
C468 C467 1.390 . S
C468 C469 1.392 . S
C469 H441 0.929 . S
C469 C466 1.391 . S
C469 C468 1.392 . S
N470 Co414 2.257 . S
N470 C467 1.391 . S
N470 C471 1.388 . S
C471 H442 0.930 . S
C471 C466 1.391 . S
C471 N470 1.388 . S
H472 C490 0.951 . S
H473 C492 0.951 . S
H474 C494 0.950 . S
H475 C495 0.950 . S
H476 C497 0.950 . S
H477 C500 0.950 . S
H478 C501 0.950 . S
H479 C503 0.960 . S
H480 C504 0.950 . S
H481 C505 0.951 . S
H482 C507 0.951 . S
H483 C509 0.950 . S
H484 C510 0.950 . S
H485 C512 0.956 . S
H486 C515 0.950 . S
H487 C516 0.950 . S
H488 C518 0.958 . S
H489 C519 0.950 . S
C490 H472 0.951 . S
C490 C491 1.366 . S
C490 C492 1.388 . S
C491 C490 1.366 . S
C491 C495 1.385 . S
C492 H473 0.951 . S
C492 C490 1.388 . S
C492 C493 1.366 . S
C493 C492 1.366 . S
C493 C494 1.414 . S
C493 C496 1.499 . S
C494 H474 0.950 . S
C494 C493 1.414 . S
C494 C495 1.374 . S
C495 H475 0.950 . S
C495 C491 1.385 . S
C495 C494 1.374 . S
C496 C493 1.499 . S
C496 C497 1.373 . S
C496 C498 1.389 . S
C497 H476 0.950 . S
C497 C496 1.373 . S
C497 C513 1.377 1_545 S
C498 C496 1.389 . S
C498 C499 1.524 1_554 S
C498 C512 1.377 1_545 S
C499 C498 1.524 1_556 S
C499 C500 1.397 . S
C499 C504 1.363 1_545 S
C500 H477 0.950 . S
C500 C499 1.397 . S
C500 C501 1.334 . S
C501 H478 0.950 . S
C501 C500 1.334 . S
C501 C502 1.287 . S
C502 C501 1.287 . S
C502 C503 1.509 1_545 S
C502 H521 0.913 . S
C503 H479 0.960 . S
C503 C502 1.509 1_565 S
C503 C504 1.418 . S
C504 H480 0.950 . S
C504 C499 1.363 1_565 S
C504 C503 1.418 . S
C505 H481 0.951 . S
C505 C506 1.366 . S
C505 C507 1.388 . S
C506 C505 1.366 . S
C506 C510 1.385 . S
C507 H482 0.951 . S
C507 C505 1.388 . S
C507 C508 1.366 . S
C508 C507 1.366 . S
C508 C509 1.414 . S
C508 C511 1.499 . S
C509 H483 0.950 . S
C509 C508 1.414 . S
C509 C510 1.374 . S
C510 H484 0.950 . S
C510 C506 1.385 . S
C510 C509 1.374 . S
C511 C508 1.499 . S
C511 C512 1.373 . S
C511 C513 1.389 . S
C512 H485 0.956 . S
C512 C498 1.377 1_565 S
C512 C511 1.373 . S
C513 C497 1.377 1_565 S
C513 C511 1.389 . S
C513 C514 1.524 . S
C514 C513 1.524 . S
C514 C515 1.397 . S
C514 C519 1.363 1_565 S
C515 H486 0.950 . S
C515 C514 1.397 . S
C515 C516 1.334 . S
C516 H487 0.950 . S
C516 C515 1.334 . S
C516 C517 1.287 . S
C517 C516 1.287 . S
C517 C518 1.511 1_565 S
C517 H520 0.999 . S
C518 H488 0.958 . S
C518 C517 1.511 1_545 S
C518 C519 1.418 . S
C519 H489 0.950 . S
C519 C514 1.363 1_545 S
C519 C518 1.418 . S
H520 C517 0.999 . S
H521 C502 0.913 . S
H522 C540 0.951 . S
H523 C542 0.951 . S
H524 C544 0.950 . S
H525 C545 0.950 . S
H526 C547 0.950 . S
H527 C550 0.950 . S
H528 C551 0.950 . S
H529 C553 0.950 . S
H530 C554 0.950 . S
H531 C555 0.951 . S
H532 C557 0.951 . S
H533 C559 0.950 . S
H534 C560 0.950 . S
H535 C562 0.950 . S
H536 C565 0.950 . S
H537 C566 0.950 . S
H538 C568 0.950 . S
H539 C569 0.950 . S
C540 H522 0.951 . S
C540 C541 1.366 . S
C540 C542 1.388 . S
C541 C540 1.366 . S
C541 C545 1.385 . S
C542 H523 0.951 . S
C542 C540 1.388 . S
C542 C543 1.366 . S
C543 C542 1.366 . S
C543 C544 1.414 . S
C543 C546 1.499 . S
C544 H524 0.950 . S
C544 C543 1.414 . S
C544 C545 1.374 . S
C545 H525 0.950 . S
C545 C541 1.385 . S
C545 C544 1.374 . S
C546 C543 1.499 . S
C546 C547 1.373 . S
C546 C548 1.389 . S
C547 H526 0.950 . S
C547 C546 1.373 . S
C547 C563 1.377 . S
C548 C546 1.389 . S
C548 C549 1.524 . S
C548 C562 1.377 . S
C549 C548 1.524 . S
C549 C550 1.397 . S
C549 C554 1.363 . S
C550 H527 0.950 . S
C550 C549 1.397 . S
C550 C551 1.334 . S
C551 H528 0.950 . S
C551 C550 1.334 . S
C551 C552 1.287 . S
C552 C551 1.287 . S
C552 C553 1.524 . S
C552 H571 0.913 . S
C553 H529 0.950 . S
C553 C552 1.524 . S
C553 C554 1.415 . S
C554 H530 0.950 . S
C554 C549 1.363 . S
C554 C553 1.415 . S
C555 H531 0.951 . S
C555 C556 1.366 . S
C555 C557 1.388 . S
C556 C555 1.366 . S
C556 C560 1.385 . S
C557 H532 0.951 . S
C557 C555 1.388 . S
C557 C558 1.366 . S
C558 C557 1.366 . S
C558 C559 1.414 . S
C558 C561 1.499 . S
C559 H533 0.950 . S
C559 C558 1.414 . S
C559 C560 1.374 . S
C560 H534 0.950 . S
C560 C556 1.385 . S
C560 C559 1.374 . S
C561 C558 1.499 . S
C561 C562 1.373 . S
C561 C563 1.389 . S
C562 H535 0.950 . S
C562 C548 1.377 . S
C562 C561 1.373 . S
C563 C547 1.377 . S
C563 C561 1.389 . S
C563 C564 1.524 . S
C564 C563 1.524 . S
C564 C565 1.397 . S
C564 C569 1.363 . S
C565 H536 0.950 . S
C565 C564 1.397 . S
C565 C566 1.334 . S
C566 H537 0.950 . S
C566 C565 1.334 . S
C566 C567 1.287 . S
C567 C566 1.287 . S
C567 C568 1.524 . S
C567 H570 0.999 . S
C568 H538 0.950 . S
C568 C567 1.524 . S
C568 C569 1.415 . S
C569 H539 0.950 . S
C569 C564 1.363 . S
C569 C568 1.415 . S
H570 C567 0.999 . S
H571 C552 0.913 . S
H572 C590 0.951 . S
H573 C592 0.951 . S
H574 C594 0.950 . S
H575 C595 0.950 . S
H576 C597 0.950 . S
H577 C600 0.950 . S
H578 C601 0.950 . S
H579 C603 0.950 . S
H580 C604 0.931 1_556 S
H581 C605 0.951 . S
H582 C607 0.951 . S
H583 C609 0.950 . S
H584 C610 0.950 . S
H585 C612 0.950 . S
H586 C615 0.950 . S
H587 C616 0.950 . S
H588 C618 0.950 . S
H589 C619 0.950 . S
C590 H572 0.951 . S
C590 C591 1.366 . S
C590 C592 1.388 . S
C591 C590 1.366 . S
C591 C595 1.385 . S
C592 H573 0.951 . S
C592 C590 1.388 . S
C592 C593 1.366 . S
C593 C592 1.366 . S
C593 C594 1.414 . S
C593 C596 1.499 . S
C594 H574 0.950 . S
C594 C593 1.414 . S
C594 C595 1.374 . S
C595 H575 0.950 . S
C595 C591 1.385 . S
C595 C594 1.374 . S
C596 C593 1.499 . S
C596 C597 1.373 1_565 S
C596 C598 1.389 . S
C597 H576 0.950 . S
C597 C596 1.373 1_545 S
C597 C613 1.377 . S
C598 C596 1.389 . S
C598 C599 1.524 1_556 S
C598 C612 1.377 . S
C599 C598 1.524 1_554 S
C599 C600 1.397 . S
C599 C604 1.363 . S
C600 H577 0.950 . S
C600 C599 1.397 . S
C600 C601 1.334 . S
C601 H578 0.950 . S
C601 C600 1.334 . S
C601 C602 1.287 . S
C602 C601 1.287 . S
C602 C603 1.524 . S
C602 H621 0.913 . S
C603 H579 0.950 . S
C603 C602 1.524 . S
C603 C604 1.415 . S
C604 H580 0.931 1_554 S
C604 C599 1.363 . S
C604 C603 1.415 . S
C605 H581 0.951 . S
C605 C606 1.366 . S
C605 C607 1.388 . S
C606 C605 1.366 . S
C606 C610 1.385 . S
C607 H582 0.951 . S
C607 C605 1.388 . S
C607 C608 1.366 . S
C608 C607 1.366 . S
C608 C609 1.414 . S
C608 C611 1.499 . S
C609 H583 0.950 . S
C609 C608 1.414 . S
C609 C610 1.374 . S
C610 H584 0.950 . S
C610 C606 1.385 . S
C610 C609 1.374 . S
C611 C608 1.499 . S
C611 C612 1.373 1_545 S
C611 C613 1.389 . S
C612 H585 0.950 . S
C612 C598 1.377 . S
C612 C611 1.373 1_565 S
C613 C597 1.377 . S
C613 C611 1.389 . S
C613 C614 1.524 . S
C614 C613 1.524 . S
C614 C615 1.397 . S
C614 C619 1.363 . S
C615 H586 0.950 . S
C615 C614 1.397 . S
C615 C616 1.334 . S
C616 H587 0.950 . S
C616 C615 1.334 . S
C616 C617 1.287 . S
C617 C616 1.287 . S
C617 C618 1.524 . S
C617 H620 0.999 . S
C618 H588 0.950 . S
C618 C617 1.524 . S
C618 C619 1.415 . S
C619 H589 0.950 . S
C619 C614 1.363 . S
C619 C618 1.415 . S
H620 C617 0.999 . S
H621 C602 0.913 . S
H622 C640 0.951 . S
H623 C642 0.951 . S
H624 C644 0.950 . S
H625 C645 0.950 . S
H626 C647 0.950 . S
H627 C650 0.950 . S
H628 C651 0.950 . S
H629 C653 0.950 . S
H630 C654 0.950 . S
H631 C655 0.951 . S
H632 C657 0.951 . S
H633 C659 0.950 . S
H634 C660 0.950 . S
H635 C662 0.950 . S
H636 C665 0.950 . S
H637 C666 0.950 . S
H638 C668 0.950 . S
H639 C669 0.950 . S
C640 H622 0.951 . S
C640 C641 1.366 . S
C640 C642 1.388 . S
C641 C640 1.366 . S
C641 C645 1.385 . S
C642 H623 0.951 . S
C642 C640 1.388 . S
C642 C643 1.366 . S
C643 C642 1.366 . S
C643 C644 1.414 . S
C643 C646 1.499 . S
C644 H624 0.950 . S
C644 C643 1.414 . S
C644 C645 1.374 . S
C645 H625 0.950 . S
C645 C641 1.385 . S
C645 C644 1.374 . S
C646 C643 1.499 . S
C646 C647 1.373 . S
C646 C648 1.389 . S
C647 H626 0.950 . S
C647 C646 1.373 . S
C647 C663 1.377 . S
C648 C646 1.389 . S
C648 C649 1.524 . S
C648 C662 1.377 . S
C649 C648 1.524 . S
C649 C650 1.397 . S
C649 C654 1.363 . S
C650 H627 0.950 . S
C650 C649 1.397 . S
C650 C651 1.334 . S
C651 H628 0.950 . S
C651 C650 1.334 . S
C651 C652 1.287 . S
C652 C651 1.287 . S
C652 C653 1.524 . S
C652 H671 0.913 . S
C653 H629 0.950 . S
C653 C652 1.524 . S
C653 C654 1.415 . S
C654 H630 0.950 . S
C654 C649 1.363 . S
C654 C653 1.415 . S
C655 H631 0.951 . S
C655 C656 1.366 . S
C655 C657 1.388 . S
C656 C655 1.366 . S
C656 C660 1.385 . S
C657 H632 0.951 . S
C657 C655 1.388 . S
C657 C658 1.366 . S
C658 C657 1.366 . S
C658 C659 1.414 . S
C658 C661 1.499 . S
C659 H633 0.950 . S
C659 C658 1.414 . S
C659 C660 1.374 . S
C660 H634 0.950 . S
C660 C656 1.385 . S
C660 C659 1.374 . S
C661 C658 1.499 . S
C661 C662 1.373 . S
C661 C663 1.389 . S
C662 H635 0.950 . S
C662 C648 1.377 . S
C662 C661 1.373 . S
C663 C647 1.377 . S
C663 C661 1.389 . S
C663 C664 1.524 . S
C664 C663 1.524 . S
C664 C665 1.397 . S
C664 C669 1.363 . S
C665 H636 0.950 . S
C665 C664 1.397 . S
C665 C666 1.334 . S
C666 H637 0.950 . S
C666 C665 1.334 . S
C666 C667 1.287 . S
C667 C666 1.287 . S
C667 C668 1.524 . S
C667 H670 0.999 . S
C668 H638 0.950 . S
C668 C667 1.524 . S
C668 C669 1.415 . S
C669 H639 0.950 . S
C669 C664 1.363 . S
C669 C668 1.415 . S
H670 C667 0.999 . S
H671 C652 0.913 . S
H672 C690 0.951 . S
H673 C692 0.951 . S
H674 C694 0.950 . S
H675 C695 0.950 . S
H676 C697 0.950 . S
H677 C700 0.950 . S
H678 C701 0.950 . S
H679 C703 0.950 . S
H680 C704 0.950 . S
H681 C705 0.951 . S
H682 C707 0.951 . S
H683 C709 0.950 . S
H684 C710 0.950 . S
H685 C712 0.950 . S
H686 C715 0.950 . S
H687 C716 0.950 . S
H688 C718 0.950 . S
H689 C719 0.950 . S
C690 H672 0.951 . S
C690 C691 1.366 . S
C690 C692 1.388 . S
C691 C690 1.366 . S
C691 C695 1.385 . S
C692 H673 0.951 . S
C692 C690 1.388 . S
C692 C693 1.366 . S
C693 C692 1.366 . S
C693 C694 1.414 . S
C693 C696 1.499 . S
C694 H674 0.950 . S
C694 C693 1.414 . S
C694 C695 1.374 . S
C695 H675 0.950 . S
C695 C691 1.385 . S
C695 C694 1.374 . S
C696 C693 1.499 . S
C696 C697 1.373 . S
C696 C698 1.389 . S
C697 H676 0.950 . S
C697 C696 1.373 . S
C697 C713 1.377 . S
C698 C696 1.389 . S
C698 C699 1.524 . S
C698 C712 1.377 . S
C699 C698 1.524 . S
C699 C700 1.397 . S
C699 C704 1.363 . S
C700 H677 0.950 . S
C700 C699 1.397 . S
C700 C701 1.334 . S
C701 H678 0.950 . S
C701 C700 1.334 . S
C701 C702 1.287 . S
C702 C701 1.287 . S
C702 C703 1.524 . S
C702 H721 0.913 . S
C703 H679 0.950 . S
C703 C702 1.524 . S
C703 C704 1.415 . S
C704 H680 0.950 . S
C704 C699 1.363 . S
C704 C703 1.415 . S
C705 H681 0.951 . S
C705 C706 1.366 . S
C705 C707 1.388 . S
C706 C705 1.366 . S
C706 C710 1.385 . S
C707 H682 0.951 . S
C707 C705 1.388 . S
C707 C708 1.366 . S
C708 C707 1.366 . S
C708 C709 1.414 . S
C708 C711 1.499 . S
C709 H683 0.950 . S
C709 C708 1.414 . S
C709 C710 1.374 . S
C710 H684 0.950 . S
C710 C706 1.385 . S
C710 C709 1.374 . S
C711 C708 1.499 . S
C711 C712 1.373 . S
C711 C713 1.389 . S
C712 H685 0.950 . S
C712 C698 1.377 . S
C712 C711 1.373 . S
C713 C697 1.377 . S
C713 C711 1.389 . S
C713 C714 1.524 . S
C714 C713 1.524 . S
C714 C715 1.397 . S
C714 C719 1.363 . S
C715 H686 0.950 . S
C715 C714 1.397 . S
C715 C716 1.334 . S
C716 H687 0.950 . S
C716 C715 1.334 . S
C716 C717 1.287 . S
C717 C716 1.287 . S
C717 C718 1.524 . S
C717 H720 0.999 . S
C718 H688 0.950 . S
C718 C717 1.524 . S
C718 C719 1.415 . S
C719 H689 0.950 . S
C719 C714 1.363 . S
C719 C718 1.415 . S
H720 C717 0.999 . S
H721 C702 0.913 . S
H722 C740 0.951 . S
H723 C742 0.951 . S
H724 C744 0.950 . S
H725 C745 0.950 . S
H726 C747 0.950 . S
H727 C750 0.950 . S
H728 C751 0.950 . S
H729 C753 0.950 . S
H730 C754 0.950 . S
H731 C755 0.951 . S
H732 C757 0.951 . S
H733 C759 0.950 . S
H734 C760 0.950 . S
H735 C762 0.950 . S
H736 C765 0.950 . S
H737 C766 0.950 . S
H738 C768 0.950 . S
H739 C769 0.950 . S
C740 H722 0.951 . S
C740 C741 1.366 . S
C740 C742 1.388 . S
C741 C740 1.366 . S
C741 C745 1.385 . S
C742 H723 0.951 . S
C742 C740 1.388 . S
C742 C743 1.366 . S
C743 C742 1.366 . S
C743 C744 1.414 . S
C743 C746 1.499 . S
C744 H724 0.950 . S
C744 C743 1.414 . S
C744 C745 1.374 . S
C745 H725 0.950 . S
C745 C741 1.385 . S
C745 C744 1.374 . S
C746 C743 1.499 . S
C746 C747 1.373 . S
C746 C748 1.389 . S
C747 H726 0.950 . S
C747 C746 1.373 . S
C747 C763 1.377 . S
C748 C746 1.389 . S
C748 C749 1.524 . S
C748 C762 1.377 . S
C749 C748 1.524 . S
C749 C750 1.397 . S
C749 C754 1.363 . S
C750 H727 0.950 . S
C750 C749 1.397 . S
C750 C751 1.334 . S
C751 H728 0.950 . S
C751 C750 1.334 . S
C751 C752 1.287 . S
C752 C751 1.287 . S
C752 C753 1.524 . S
C752 H771 0.913 . S
C753 H729 0.950 . S
C753 C752 1.524 . S
C753 C754 1.415 . S
C754 H730 0.950 . S
C754 C749 1.363 . S
C754 C753 1.415 . S
C755 H731 0.951 . S
C755 C756 1.366 . S
C755 C757 1.388 . S
C756 C755 1.366 . S
C756 C760 1.385 . S
C757 H732 0.951 . S
C757 C755 1.388 . S
C757 C758 1.366 . S
C758 C757 1.366 . S
C758 C759 1.414 . S
C758 C761 1.499 . S
C759 H733 0.950 . S
C759 C758 1.414 . S
C759 C760 1.374 . S
C760 H734 0.950 . S
C760 C756 1.385 . S
C760 C759 1.374 . S
C761 C758 1.499 . S
C761 C762 1.373 . S
C761 C763 1.389 . S
C762 H735 0.950 . S
C762 C748 1.377 . S
C762 C761 1.373 . S
C763 C747 1.377 . S
C763 C761 1.389 . S
C763 C764 1.524 . S
C764 C763 1.524 . S
C764 C765 1.397 . S
C764 C769 1.363 . S
C765 H736 0.950 . S
C765 C764 1.397 . S
C765 C766 1.334 . S
C766 H737 0.950 . S
C766 C765 1.334 . S
C766 C767 1.287 . S
C767 C766 1.287 . S
C767 C768 1.524 . S
C767 H770 0.999 . S
C768 H738 0.950 . S
C768 C767 1.524 . S
C768 C769 1.415 . S
C769 H739 0.950 . S
C769 C764 1.363 . S
C769 C768 1.415 . S
H770 C767 0.999 . S
H771 C752 0.913 . S
H772 C790 0.951 . S
H773 C792 0.951 . S
H774 C794 0.950 . S
H775 C795 0.950 . S
H776 C797 0.950 . S
H777 C800 0.950 . S
H778 C801 0.950 . S
H779 C803 0.950 . S
H780 C804 0.950 . S
H781 C805 0.951 . S
H782 C807 0.951 . S
H783 C809 0.950 . S
H784 C810 0.950 . S
H785 C812 0.950 . S
H786 C815 0.950 . S
H787 C816 0.950 . S
H788 C818 0.950 . S
H789 C819 0.950 . S
C790 H772 0.951 . S
C790 C791 1.366 . S
C790 C792 1.388 . S
C791 C790 1.366 . S
C791 C795 1.385 . S
C792 H773 0.951 . S
C792 C790 1.388 . S
C792 C793 1.366 . S
C793 C792 1.366 . S
C793 C794 1.414 . S
C793 C796 1.499 . S
C794 H774 0.950 . S
C794 C793 1.414 . S
C794 C795 1.374 . S
C795 H775 0.950 . S
C795 C791 1.385 . S
C795 C794 1.374 . S
C796 C793 1.499 . S
C796 C797 1.373 . S
C796 C798 1.389 . S
C797 H776 0.950 . S
C797 C796 1.373 . S
C797 C813 1.377 . S
C798 C796 1.389 . S
C798 C799 1.524 . S
C798 C812 1.377 . S
C799 C798 1.524 . S
C799 C800 1.397 . S
C799 C804 1.363 . S
C800 H777 0.950 . S
C800 C799 1.397 . S
C800 C801 1.334 . S
C801 H778 0.950 . S
C801 C800 1.334 . S
C801 C802 1.287 . S
C802 C801 1.287 . S
C802 C803 1.524 . S
C802 H821 0.913 . S
C803 H779 0.950 . S
C803 C802 1.524 . S
C803 C804 1.415 . S
C804 H780 0.950 . S
C804 C799 1.363 . S
C804 C803 1.415 . S
C805 H781 0.951 . S
C805 C806 1.366 . S
C805 C807 1.388 . S
C806 C805 1.366 . S
C806 C810 1.385 . S
C807 H782 0.951 . S
C807 C805 1.388 . S
C807 C808 1.366 . S
C808 C807 1.366 . S
C808 C809 1.414 . S
C808 C811 1.499 . S
C809 H783 0.950 . S
C809 C808 1.414 . S
C809 C810 1.374 . S
C810 H784 0.950 . S
C810 C806 1.385 . S
C810 C809 1.374 . S
C811 C808 1.499 . S
C811 C812 1.373 . S
C811 C813 1.389 . S
C812 H785 0.950 . S
C812 C798 1.377 . S
C812 C811 1.373 . S
C813 C797 1.377 . S
C813 C811 1.389 . S
C813 C814 1.524 . S
C814 C813 1.524 . S
C814 C815 1.397 . S
C814 C819 1.363 . S
C815 H786 0.950 . S
C815 C814 1.397 . S
C815 C816 1.334 . S
C816 H787 0.950 . S
C816 C815 1.334 . S
C816 C817 1.287 . S
C817 C816 1.287 . S
C817 C818 1.524 . S
C817 H820 0.999 . S
C818 H788 0.950 . S
C818 C817 1.524 . S
C818 C819 1.415 . S
C819 H789 0.950 . S
C819 C814 1.363 . S
C819 C818 1.415 . S
H820 C817 0.999 . S
H821 C802 0.913 . S
H822 C840 0.951 . S
H823 C842 0.951 . S
H824 C844 0.950 . S
H825 C845 0.950 . S
H826 C847 0.950 . S
H827 C850 0.950 . S
H828 C851 0.950 . S
H829 C853 0.950 . S
H830 C854 0.950 . S
H831 C855 0.951 . S
H832 C857 0.951 . S
H833 C859 0.950 . S
H834 C860 0.950 . S
H835 C862 0.950 . S
H836 C865 0.950 . S
H837 C866 0.950 . S
H838 C868 0.950 . S
H839 C869 0.950 . S
C840 H822 0.951 . S
C840 C841 1.366 . S
C840 C842 1.388 . S
C841 C840 1.366 . S
C841 C845 1.385 . S
C842 H823 0.951 . S
C842 C840 1.388 . S
C842 C843 1.366 . S
C843 C842 1.366 . S
C843 C844 1.414 . S
C843 C846 1.499 . S
C844 H824 0.950 . S
C844 C843 1.414 . S
C844 C845 1.374 . S
C845 H825 0.950 . S
C845 C841 1.385 . S
C845 C844 1.374 . S
C846 C843 1.499 . S
C846 C847 1.373 . S
C846 C848 1.389 . S
C847 H826 0.950 . S
C847 C846 1.373 . S
C847 C863 1.377 . S
C848 C846 1.389 . S
C848 C849 1.524 . S
C848 C862 1.377 . S
C849 C848 1.524 . S
C849 C850 1.397 . S
C849 C854 1.363 . S
C850 H827 0.950 . S
C850 C849 1.397 . S
C850 C851 1.334 . S
C851 H828 0.950 . S
C851 C850 1.334 . S
C851 C852 1.287 . S
C852 C851 1.287 . S
C852 C853 1.524 . S
C852 H871 0.913 . S
C853 H829 0.950 . S
C853 C852 1.524 . S
C853 C854 1.415 . S
C854 H830 0.950 . S
C854 C849 1.363 . S
C854 C853 1.415 . S
C855 H831 0.951 . S
C855 C856 1.366 . S
C855 C857 1.388 . S
C856 C855 1.366 . S
C856 C860 1.385 . S
C857 H832 0.951 . S
C857 C855 1.388 . S
C857 C858 1.366 . S
C858 C857 1.366 . S
C858 C859 1.414 . S
C858 C861 1.499 . S
C859 H833 0.950 . S
C859 C858 1.414 . S
C859 C860 1.374 . S
C860 H834 0.950 . S
C860 C856 1.385 . S
C860 C859 1.374 . S
C861 C858 1.499 . S
C861 C862 1.373 . S
C861 C863 1.389 . S
C862 H835 0.950 . S
C862 C848 1.377 . S
C862 C861 1.373 . S
C863 C847 1.377 . S
C863 C861 1.389 . S
C863 C864 1.524 . S
C864 C863 1.524 . S
C864 C865 1.397 . S
C864 C869 1.363 . S
C865 H836 0.950 . S
C865 C864 1.397 . S
C865 C866 1.334 . S
C866 H837 0.950 . S
C866 C865 1.334 . S
C866 C867 1.287 . S
C867 C866 1.287 . S
C867 C868 1.524 . S
C867 H870 0.999 . S
C868 H838 0.950 . S
C868 C867 1.524 . S
C868 C869 1.415 . S
C869 H839 0.950 . S
C869 C864 1.363 . S
C869 C868 1.415 . S
H870 C867 0.999 . S
H871 C852 0.913 . S
H872 C890 0.951 . S
H873 C892 0.951 . S
H874 C894 0.955 . S
H875 C895 0.950 . S
H876 C897 0.950 . S
H877 C900 0.950 . S
H878 C901 0.950 . S
H879 C903 0.950 . S
H880 C904 0.950 . S
H881 C905 0.951 . S
H882 C907 0.951 . S
H883 C909 0.955 . S
H884 C910 0.950 . S
H885 C912 0.950 . S
H886 C915 0.950 . S
H887 C916 0.950 . S
H888 C918 0.950 . S
H889 C919 0.950 . S
C890 H872 0.951 . S
C890 C891 1.366 . S
C890 C892 1.388 . S
C891 C890 1.366 . S
C891 C895 1.385 . S
C892 H873 0.951 . S
C892 C890 1.388 . S
C892 C893 1.366 . S
C893 C892 1.366 . S
C893 C894 1.414 . S
C893 C896 1.499 . S
C894 H874 0.955 . S
C894 C893 1.414 . S
C894 C895 1.374 . S
C895 H875 0.950 . S
C895 C891 1.385 . S
C895 C894 1.374 . S
C896 C893 1.499 . S
C896 C897 1.373 1_554 S
C896 C898 1.389 . S
C897 H876 0.950 . S
C897 C896 1.373 1_556 S
C897 C913 1.377 . S
C898 C896 1.389 . S
C898 C899 1.524 . S
C898 C912 1.377 . S
C899 C898 1.524 . S
C899 C900 1.397 . S
C899 C904 1.363 . S
C900 H877 0.950 . S
C900 C899 1.397 . S
C900 C901 1.334 . S
C901 H878 0.950 . S
C901 C900 1.334 . S
C901 C902 1.287 . S
C902 C901 1.287 . S
C902 C903 1.524 . S
C902 H921 0.913 . S
C903 H879 0.950 . S
C903 C902 1.524 . S
C903 C904 1.415 . S
C904 H880 0.950 . S
C904 C899 1.363 . S
C904 C903 1.415 . S
C905 H881 0.951 . S
C905 C906 1.366 . S
C905 C907 1.388 . S
C906 C905 1.366 . S
C906 C910 1.385 . S
C907 H882 0.951 . S
C907 C905 1.388 . S
C907 C908 1.366 . S
C908 C907 1.366 . S
C908 C909 1.414 . S
C908 C911 1.499 . S
C909 H883 0.955 . S
C909 C908 1.414 . S
C909 C910 1.374 . S
C910 H884 0.950 . S
C910 C906 1.385 . S
C910 C909 1.374 . S
C911 C908 1.499 . S
C911 C912 1.373 1_556 S
C911 C913 1.389 . S
C912 H885 0.950 . S
C912 C898 1.377 . S
C912 C911 1.373 1_554 S
C913 C897 1.377 . S
C913 C911 1.389 . S
C913 C914 1.524 . S
C914 C913 1.524 . S
C914 C915 1.397 . S
C914 C919 1.363 . S
C915 H886 0.950 . S
C915 C914 1.397 . S
C915 C916 1.334 . S
C916 H887 0.950 . S
C916 C915 1.334 . S
C916 C917 1.287 . S
C917 C916 1.287 . S
C917 C918 1.524 . S
C917 H920 0.999 . S
C918 H888 0.950 . S
C918 C917 1.524 . S
C918 C919 1.415 . S
C919 H889 0.950 . S
C919 C914 1.363 . S
C919 C918 1.415 . S
H920 C917 0.999 . S
H921 C902 0.913 . S
H922 C940 0.951 . S
H923 C942 0.951 1_556 S
H924 C944 0.950 . S
H925 C945 0.950 . S
H926 C947 0.950 . S
H927 C950 0.950 . S
H928 C951 0.950 . S
H929 C953 0.950 . S
H930 C954 0.950 . S
H931 C955 0.951 . S
H932 C957 0.951 1_554 S
H933 C959 0.950 . S
H934 C960 0.950 . S
H935 C962 0.950 . S
H936 C965 0.950 . S
H937 C966 0.950 . S
H938 C968 0.950 . S
H939 C969 0.950 . S
C940 H922 0.951 . S
C940 C941 1.366 . S
C940 C942 1.388 . S
C941 C940 1.366 . S
C941 C945 1.385 . S
C942 H923 0.951 1_554 S
C942 C940 1.388 . S
C942 C943 1.366 . S
C943 C942 1.366 . S
C943 C944 1.414 . S
C943 C946 1.499 . S
C944 H924 0.950 . S
C944 C943 1.414 . S
C944 C945 1.374 . S
C945 H925 0.950 . S
C945 C941 1.385 . S
C945 C944 1.374 . S
C946 C943 1.499 . S
C946 C947 1.373 . S
C946 C948 1.389 1_554 S
C947 H926 0.950 . S
C947 C946 1.373 . S
C947 C963 1.377 1_455 S
C948 C946 1.389 1_556 S
C948 C949 1.524 . S
C948 C962 1.377 1_455 S
C949 C948 1.524 . S
C949 C950 1.397 . S
C949 C954 1.363 . S
C950 H927 0.950 . S
C950 C949 1.397 . S
C950 C951 1.334 . S
C951 H928 0.950 . S
C951 C950 1.334 . S
C951 C952 1.287 . S
C952 C951 1.287 . S
C952 C953 1.524 . S
C952 H971 0.913 . S
C953 H929 0.950 . S
C953 C952 1.524 . S
C953 C954 1.415 . S
C954 H930 0.950 . S
C954 C949 1.363 . S
C954 C953 1.415 . S
C955 H931 0.951 . S
C955 C956 1.366 . S
C955 C957 1.388 . S
C956 C955 1.366 . S
C956 C960 1.385 . S
C957 H932 0.951 1_556 S
C957 C955 1.388 . S
C957 C958 1.366 . S
C958 C957 1.366 . S
C958 C959 1.414 . S
C958 C961 1.499 . S
C959 H933 0.950 . S
C959 C958 1.414 . S
C959 C960 1.374 . S
C960 H934 0.950 . S
C960 C956 1.385 . S
C960 C959 1.374 . S
C961 C958 1.499 . S
C961 C962 1.373 . S
C961 C963 1.389 1_556 S
C962 H935 0.950 . S
C962 C948 1.377 1_655 S
C962 C961 1.373 . S
C963 C947 1.377 1_655 S
C963 C961 1.389 1_554 S
C963 C964 1.524 . S
C964 C963 1.524 . S
C964 C965 1.397 . S
C964 C969 1.363 . S
C965 H936 0.950 . S
C965 C964 1.397 . S
C965 C966 1.334 . S
C966 H937 0.950 . S
C966 C965 1.334 . S
C966 C967 1.287 . S
C967 C966 1.287 . S
C967 C968 1.524 . S
C967 H970 0.999 . S
C968 H938 0.950 . S
C968 C967 1.524 . S
C968 C969 1.415 . S
C969 H939 0.950 . S
C969 C964 1.363 . S
C969 C968 1.415 . S
H970 C967 0.999 . S
H971 C952 0.913 . S
H972 C990 0.951 . S
H973 C992 0.951 . S
H974 C994 0.950 . S
H975 C995 0.950 . S
H976 C997 0.950 . S
H977 C1000 0.950 . S
H978 C1001 0.950 . S
H979 C1003 0.950 . S
H980 C1004 0.950 . S
H981 C1005 0.951 . S
H982 C1007 0.951 . S
H983 C1009 0.950 . S
H984 C1010 0.950 . S
H985 C1012 0.950 . S
H986 C1015 0.950 . S
H987 C1016 0.950 . S
H988 C1018 0.950 . S
H989 C1019 0.950 . S
C990 H972 0.951 . S
C990 C991 1.366 . S
C990 C992 1.388 . S
C991 C990 1.366 . S
C991 C995 1.385 . S
C992 H973 0.951 . S
C992 C990 1.388 . S
C992 C993 1.366 . S
C993 C992 1.366 . S
C993 C994 1.414 . S
C993 C996 1.499 . S
C994 H974 0.950 . S
C994 C993 1.414 . S
C994 C995 1.374 . S
C995 H975 0.950 . S
C995 C991 1.385 . S
C995 C994 1.374 . S
C996 C993 1.499 . S
C996 C997 1.373 1_565 S
C996 C998 1.389 . S
C997 H976 0.950 . S
C997 C996 1.373 1_545 S
C997 C1013 1.377 . S
C998 C996 1.389 . S
C998 C999 1.524 . S
C998 C1012 1.377 . S
C999 C998 1.524 . S
C999 C1000 1.397 . S
C999 C1004 1.363 . S
C1000 H977 0.950 . S
C1000 C999 1.397 . S
C1000 C1001 1.334 . S
C1001 H978 0.950 . S
C1001 C1000 1.334 . S
C1001 C1002 1.287 . S
C1002 C1001 1.287 . S
C1002 C1003 1.524 . S
C1002 H1021 0.913 . S
C1003 H979 0.950 . S
C1003 C1002 1.524 . S
C1003 C1004 1.415 . S
C1004 H980 0.950 . S
C1004 C999 1.363 . S
C1004 C1003 1.415 . S
C1005 H981 0.951 . S
C1005 C1006 1.366 . S
C1005 C1007 1.388 . S
C1006 C1005 1.366 . S
C1006 C1010 1.385 . S
C1007 H982 0.951 . S
C1007 C1005 1.388 . S
C1007 C1008 1.366 . S
C1008 C1007 1.366 . S
C1008 C1009 1.414 . S
C1008 C1011 1.499 . S
C1009 H983 0.950 . S
C1009 C1008 1.414 . S
C1009 C1010 1.374 . S
C1010 H984 0.950 . S
C1010 C1006 1.385 . S
C1010 C1009 1.374 . S
C1011 C1008 1.499 . S
C1011 C1012 1.373 1_545 S
C1011 C1013 1.389 . S
C1012 H985 0.950 . S
C1012 C998 1.377 . S
C1012 C1011 1.373 1_565 S
C1013 C997 1.377 . S
C1013 C1011 1.389 . S
C1013 C1014 1.524 . S
C1014 C1013 1.524 . S
C1014 C1015 1.397 . S
C1014 C1019 1.363 . S
C1015 H986 0.950 . S
C1015 C1014 1.397 . S
C1015 C1016 1.334 . S
C1016 H987 0.950 . S
C1016 C1015 1.334 . S
C1016 C1017 1.287 . S
C1017 C1016 1.287 . S
C1017 C1018 1.524 . S
C1017 H1020 0.999 . S
C1018 H988 0.950 . S
C1018 C1017 1.524 . S
C1018 C1019 1.415 . S
C1019 H989 0.950 . S
C1019 C1014 1.363 . S
C1019 C1018 1.415 . S
H1020 C1017 0.999 . S
H1021 C1002 0.913 . S
H1022 C1040 0.951 . S
H1023 C1042 0.951 . S
H1024 C1044 0.950 . S
H1025 C1045 0.950 . S
H1026 C1047 0.950 . S
H1027 C1050 0.950 . S
H1028 C1051 0.950 . S
H1029 C1053 0.950 . S
H1030 C1054 0.968 . S
H1031 C1055 0.951 . S
H1032 C1057 0.951 . S
H1033 C1059 0.950 . S
H1034 C1060 0.950 . S
H1035 C1062 0.950 . S
H1036 C1065 0.950 . S
H1037 C1066 0.950 . S
H1038 C1068 0.950 . S
H1039 C1069 0.968 . S
C1040 H1022 0.951 . S
C1040 C1041 1.366 . S
C1040 C1042 1.388 . S
C1041 C1040 1.366 . S
C1041 C1045 1.385 . S
C1042 H1023 0.951 . S
C1042 C1040 1.388 . S
C1042 C1043 1.366 . S
C1043 C1042 1.366 . S
C1043 C1044 1.414 . S
C1043 C1046 1.499 . S
C1044 H1024 0.950 . S
C1044 C1043 1.414 . S
C1044 C1045 1.374 . S
C1045 H1025 0.950 . S
C1045 C1041 1.385 . S
C1045 C1044 1.374 . S
C1046 C1043 1.499 . S
C1046 C1047 1.373 . S
C1046 C1048 1.389 1_655 S
C1047 H1026 0.950 . S
C1047 C1046 1.373 . S
C1047 C1063 1.377 1_545 S
C1048 C1046 1.389 1_455 S
C1048 C1049 1.524 . S
C1048 C1062 1.377 1_545 S
C1049 C1048 1.524 . S
C1049 C1050 1.397 . S
C1049 C1054 1.363 . S
C1050 H1027 0.950 . S
C1050 C1049 1.397 . S
C1050 C1051 1.334 . S
C1051 H1028 0.950 . S
C1051 C1050 1.334 . S
C1051 C1052 1.287 . S
C1052 C1051 1.287 . S
C1052 C1053 1.524 . S
C1052 H1071 0.913 . S
C1053 H1029 0.950 . S
C1053 C1052 1.524 . S
C1053 C1054 1.415 . S
C1054 H1030 0.968 . S
C1054 C1049 1.363 . S
C1054 C1053 1.415 . S
C1055 H1031 0.951 . S
C1055 C1056 1.366 . S
C1055 C1057 1.388 . S
C1056 C1055 1.366 . S
C1056 C1060 1.385 . S
C1057 H1032 0.951 . S
C1057 C1055 1.388 . S
C1057 C1058 1.366 . S
C1058 C1057 1.366 . S
C1058 C1059 1.414 . S
C1058 C1061 1.499 . S
C1059 H1033 0.950 . S
C1059 C1058 1.414 . S
C1059 C1060 1.374 . S
C1060 H1034 0.950 . S
C1060 C1056 1.385 . S
C1060 C1059 1.374 . S
C1061 C1058 1.499 . S
C1061 C1062 1.373 . S
C1061 C1063 1.389 1_455 S
C1062 H1035 0.950 . S
C1062 C1048 1.377 1_565 S
C1062 C1061 1.373 . S
C1063 C1047 1.377 1_565 S
C1063 C1061 1.389 1_655 S
C1063 C1064 1.524 . S
C1064 C1063 1.524 . S
C1064 C1065 1.397 . S
C1064 C1069 1.363 . S
C1065 H1036 0.950 . S
C1065 C1064 1.397 . S
C1065 C1066 1.334 . S
C1066 H1037 0.950 . S
C1066 C1065 1.334 . S
C1066 C1067 1.287 . S
C1067 C1066 1.287 . S
C1067 C1068 1.524 . S
C1067 H1070 0.999 . S
C1068 H1038 0.950 . S
C1068 C1067 1.524 . S
C1068 C1069 1.415 . S
C1069 H1039 0.968 . S
C1069 C1064 1.363 . S
C1069 C1068 1.415 . S
H1070 C1067 0.999 . S
H1071 C1052 0.913 . S
H1072 C1090 0.951 . S
H1073 C1092 0.951 . S
H1074 C1094 0.950 1_556 S
H1075 C1095 0.950 1_556 S
H1076 C1097 0.950 . S
H1077 C1100 0.950 . S
H1078 C1101 0.950 . S
H1079 C1103 0.950 . S
H1080 C1104 0.950 . S
H1081 C1105 0.951 1_556 S
H1082 C1107 0.951 1_556 S
H1083 C1109 0.950 . S
H1084 C1110 0.950 . S
H1085 C1112 0.950 . S
H1086 C1115 0.950 . S
H1087 C1116 0.950 . S
H1088 C1118 0.950 . S
H1089 C1119 0.950 . S
C1090 H1072 0.951 . S
C1090 C1091 1.366 . S
C1090 C1092 1.388 . S
C1091 C1090 1.366 . S
C1091 C1095 1.385 . S
C1092 H1073 0.951 . S
C1092 C1090 1.388 . S
C1092 C1093 1.366 . S
C1093 C1092 1.366 . S
C1093 C1094 1.414 . S
C1093 C1096 1.499 . S
C1094 H1074 0.950 1_554 S
C1094 C1093 1.414 . S
C1094 C1095 1.374 . S
C1095 H1075 0.950 1_554 S
C1095 C1091 1.385 . S
C1095 C1094 1.374 . S
C1096 C1093 1.499 . S
C1096 C1097 1.373 . S
C1096 C1098 1.389 . S
C1097 H1076 0.950 . S
C1097 C1096 1.373 . S
C1097 C1113 1.377 . S
C1098 C1096 1.389 . S
C1098 C1099 1.524 . S
C1098 C1112 1.377 . S
C1099 C1098 1.524 . S
C1099 C1100 1.397 1_554 S
C1099 C1104 1.363 . S
C1100 H1077 0.950 . S
C1100 C1099 1.397 1_556 S
C1100 C1101 1.334 . S
C1101 H1078 0.950 . S
C1101 C1100 1.334 . S
C1101 C1102 1.287 . S
C1102 C1101 1.287 . S
C1102 C1103 1.524 1_556 S
C1102 H1121 0.913 . S
C1103 H1079 0.950 . S
C1103 C1102 1.524 1_554 S
C1103 C1104 1.415 . S
C1104 H1080 0.950 . S
C1104 C1099 1.363 . S
C1104 C1103 1.415 . S
C1105 H1081 0.951 1_554 S
C1105 C1106 1.366 . S
C1105 C1107 1.388 . S
C1106 C1105 1.366 . S
C1106 C1110 1.385 . S
C1107 H1082 0.951 1_554 S
C1107 C1105 1.388 . S
C1107 C1108 1.366 . S
C1108 C1107 1.366 . S
C1108 C1109 1.414 . S
C1108 C1111 1.499 . S
C1109 H1083 0.950 . S
C1109 C1108 1.414 . S
C1109 C1110 1.374 . S
C1110 H1084 0.950 . S
C1110 C1106 1.385 . S
C1110 C1109 1.374 . S
C1111 C1108 1.499 . S
C1111 C1112 1.373 . S
C1111 C1113 1.389 . S
C1112 H1085 0.950 . S
C1112 C1098 1.377 . S
C1112 C1111 1.373 . S
C1113 C1097 1.377 . S
C1113 C1111 1.389 . S
C1113 C1114 1.524 . S
C1114 C1113 1.524 . S
C1114 C1115 1.397 . S
C1114 C1119 1.363 . S
C1115 H1086 0.950 . S
C1115 C1114 1.397 . S
C1115 C1116 1.334 . S
C1116 H1087 0.950 . S
C1116 C1115 1.334 . S
C1116 C1117 1.287 . S
C1117 C1116 1.287 . S
C1117 C1118 1.524 . S
C1117 H1120 0.999 . S
C1118 H1088 0.950 . S
C1118 C1117 1.524 . S
C1118 C1119 1.415 . S
C1119 H1089 0.950 . S
C1119 C1114 1.363 . S
C1119 C1118 1.415 . S
H1120 C1117 0.999 . S
H1121 C1102 0.913 . S
H1122 C1140 0.951 . S
H1123 C1142 0.951 . S
H1124 C1144 0.950 . S
H1125 C1145 0.950 . S
H1126 C1147 0.950 . S
H1127 C1150 0.955 . S
H1128 C1151 0.954 . S
H1129 C1153 0.950 . S
H1130 C1154 0.950 . S
H1131 C1155 0.951 . S
H1132 C1157 0.951 . S
H1133 C1159 0.950 . S
H1134 C1160 0.950 . S
H1135 C1162 0.950 . S
H1136 C1165 0.954 . S
H1137 C1166 0.953 . S
H1138 C1168 0.950 . S
H1139 C1169 0.950 . S
C1140 H1122 0.951 . S
C1140 C1141 1.366 . S
C1140 C1142 1.388 . S
C1141 C1140 1.366 . S
C1141 C1145 1.385 . S
C1142 H1123 0.951 . S
C1142 C1140 1.388 . S
C1142 C1143 1.366 . S
C1143 C1142 1.366 . S
C1143 C1144 1.414 . S
C1143 C1146 1.499 . S
C1144 H1124 0.950 . S
C1144 C1143 1.414 . S
C1144 C1145 1.374 . S
C1145 H1125 0.950 . S
C1145 C1141 1.385 . S
C1145 C1144 1.374 . S
C1146 C1143 1.499 . S
C1146 C1147 1.373 . S
C1146 C1148 1.389 . S
C1147 H1126 0.950 . S
C1147 C1146 1.373 . S
C1147 C1163 1.377 1_545 S
C1148 C1146 1.389 . S
C1148 C1149 1.524 . S
C1148 C1162 1.377 1_545 S
C1149 C1148 1.524 . S
C1149 C1150 1.392 1_545 S
C1149 C1154 1.363 . S
C1150 H1127 0.955 . S
C1150 C1149 1.392 1_565 S
C1150 C1151 1.334 . S
C1151 H1128 0.954 . S
C1151 C1150 1.334 . S
C1151 C1152 1.283 1_565 S
C1152 C1151 1.283 1_545 S
C1152 C1153 1.524 . S
C1152 H1171 0.913 . S
C1153 H1129 0.950 . S
C1153 C1152 1.524 . S
C1153 C1154 1.415 . S
C1154 H1130 0.950 . S
C1154 C1149 1.363 . S
C1154 C1153 1.415 . S
C1155 H1131 0.951 . S
C1155 C1156 1.366 . S
C1155 C1157 1.388 . S
C1156 C1155 1.366 . S
C1156 C1160 1.385 . S
C1157 H1132 0.951 . S
C1157 C1155 1.388 . S
C1157 C1158 1.366 . S
C1158 C1157 1.366 . S
C1158 C1159 1.414 . S
C1158 C1161 1.499 . S
C1159 H1133 0.950 . S
C1159 C1158 1.414 . S
C1159 C1160 1.374 . S
C1160 H1134 0.950 . S
C1160 C1156 1.385 . S
C1160 C1159 1.374 . S
C1161 C1158 1.499 . S
C1161 C1162 1.373 . S
C1161 C1163 1.389 . S
C1162 H1135 0.950 . S
C1162 C1148 1.377 1_565 S
C1162 C1161 1.373 . S
C1163 C1147 1.377 1_565 S
C1163 C1161 1.389 . S
C1163 C1164 1.524 . S
C1164 C1163 1.524 . S
C1164 C1165 1.393 1_565 S
C1164 C1169 1.363 . S
C1165 H1136 0.954 . S
C1165 C1164 1.393 1_545 S
C1165 C1166 1.334 . S
C1166 H1137 0.953 . S
C1166 C1165 1.334 . S
C1166 C1167 1.284 1_545 S
C1167 C1166 1.284 1_565 S
C1167 C1168 1.524 . S
C1167 H1170 0.999 . S
C1168 H1138 0.950 . S
C1168 C1167 1.524 . S
C1168 C1169 1.415 . S
C1169 H1139 0.950 . S
C1169 C1164 1.363 . S
C1169 C1168 1.415 . S
H1170 C1167 0.999 . S
H1171 C1152 0.913 . S
H1172 C1190 0.951 . S
H1173 C1192 0.951 . S
H1174 C1194 0.950 . S
H1175 C1195 0.950 . S
H1176 C1197 0.950 . S
H1177 C1200 0.950 . S
H1178 C1201 0.950 . S
H1179 C1203 0.950 . S
H1180 C1204 0.950 . S
H1181 C1205 0.951 . S
H1182 C1207 0.951 . S
H1183 C1209 0.950 . S
H1184 C1210 0.950 . S
H1185 C1212 0.950 . S
H1186 C1215 0.950 . S
H1187 C1216 0.950 . S
H1188 C1218 0.950 . S
H1189 C1219 0.950 1_556 S
C1190 H1172 0.951 . S
C1190 C1191 1.366 . S
C1190 C1192 1.388 . S
C1191 C1190 1.366 . S
C1191 C1195 1.385 . S
C1192 H1173 0.951 . S
C1192 C1190 1.388 . S
C1192 C1193 1.366 . S
C1193 C1192 1.366 . S
C1193 C1194 1.414 . S
C1193 C1196 1.499 . S
C1194 H1174 0.950 . S
C1194 C1193 1.414 . S
C1194 C1195 1.374 . S
C1195 H1175 0.950 . S
C1195 C1191 1.385 . S
C1195 C1194 1.374 . S
C1196 C1193 1.499 . S
C1196 C1197 1.373 . S
C1196 C1198 1.389 . S
C1197 H1176 0.950 . S
C1197 C1196 1.373 . S
C1197 C1213 1.377 . S
C1198 C1196 1.389 . S
C1198 C1199 1.524 . S
C1198 C1212 1.377 . S
C1199 C1198 1.524 . S
C1199 C1200 1.397 . S
C1199 C1204 1.363 . S
C1200 H1177 0.950 . S
C1200 C1199 1.397 . S
C1200 C1201 1.334 . S
C1201 H1178 0.950 . S
C1201 C1200 1.334 . S
C1201 C1202 1.287 . S
C1202 C1201 1.287 . S
C1202 C1203 1.524 . S
C1202 H1221 0.913 . S
C1203 H1179 0.950 . S
C1203 C1202 1.524 . S
C1203 C1204 1.415 . S
C1204 H1180 0.950 . S
C1204 C1199 1.363 . S
C1204 C1203 1.415 . S
C1205 H1181 0.951 . S
C1205 C1206 1.366 . S
C1205 C1207 1.388 . S
C1206 C1205 1.366 . S
C1206 C1210 1.385 . S
C1207 H1182 0.951 . S
C1207 C1205 1.388 . S
C1207 C1208 1.366 . S
C1208 C1207 1.366 . S
C1208 C1209 1.414 . S
C1208 C1211 1.499 . S
C1209 H1183 0.950 . S
C1209 C1208 1.414 . S
C1209 C1210 1.374 . S
C1210 H1184 0.950 . S
C1210 C1206 1.385 . S
C1210 C1209 1.374 . S
C1211 C1208 1.499 . S
C1211 C1212 1.373 . S
C1211 C1213 1.389 . S
C1212 H1185 0.950 . S
C1212 C1198 1.377 . S
C1212 C1211 1.373 . S
C1213 C1197 1.377 . S
C1213 C1211 1.389 . S
C1213 C1214 1.524 1_556 S
C1214 C1213 1.524 1_554 S
C1214 C1215 1.397 . S
C1214 C1219 1.363 . S
C1215 H1186 0.950 . S
C1215 C1214 1.397 . S
C1215 C1216 1.334 . S
C1216 H1187 0.950 . S
C1216 C1215 1.334 . S
C1216 C1217 1.287 . S
C1217 C1216 1.287 . S
C1217 C1218 1.524 . S
C1217 H1220 0.999 . S
C1218 H1188 0.950 . S
C1218 C1217 1.524 . S
C1218 C1219 1.415 . S
C1219 H1189 0.950 1_554 S
C1219 C1214 1.363 . S
C1219 C1218 1.415 . S
H1220 C1217 0.999 . S
H1221 C1202 0.913 . S
H1222 C1240 0.951 . S
H1223 C1242 0.951 . S
H1224 C1244 0.950 . S
H1225 C1245 0.950 . S
H1226 C1247 0.950 . S
H1227 C1250 0.950 . S
H1228 C1251 0.950 1_565 S
H1229 C1253 0.950 . S
H1230 C1254 0.950 . S
H1231 C1255 0.951 . S
H1232 C1257 0.951 . S
H1233 C1259 0.950 . S
H1234 C1260 0.950 . S
H1235 C1262 0.950 . S
H1236 C1265 0.950 . S
H1237 C1266 0.950 1_545 S
H1238 C1268 0.950 . S
H1239 C1269 0.950 . S
C1240 H1222 0.951 . S
C1240 C1241 1.366 . S
C1240 C1242 1.388 . S
C1241 C1240 1.366 . S
C1241 C1245 1.385 . S
C1242 H1223 0.951 . S
C1242 C1240 1.388 . S
C1242 C1243 1.366 . S
C1243 C1242 1.366 . S
C1243 C1244 1.414 . S
C1243 C1246 1.499 . S
C1244 H1224 0.950 . S
C1244 C1243 1.414 . S
C1244 C1245 1.374 . S
C1245 H1225 0.950 . S
C1245 C1241 1.385 . S
C1245 C1244 1.374 . S
C1246 C1243 1.499 . S
C1246 C1247 1.373 . S
C1246 C1248 1.389 1_565 S
C1247 H1226 0.950 . S
C1247 C1246 1.373 . S
C1247 C1263 1.377 . S
C1248 C1246 1.389 1_545 S
C1248 C1249 1.524 . S
C1248 C1262 1.377 . S
C1249 C1248 1.524 . S
C1249 C1250 1.397 1_545 S
C1249 C1254 1.363 . S
C1250 H1227 0.950 . S
C1250 C1249 1.397 1_565 S
C1250 C1251 1.334 1_565 S
C1251 H1228 0.950 1_545 S
C1251 C1250 1.334 1_545 S
C1251 C1252 1.287 . S
C1252 C1251 1.287 . S
C1252 C1253 1.524 . S
C1252 H1271 0.913 . S
C1253 H1229 0.950 . S
C1253 C1252 1.524 . S
C1253 C1254 1.415 . S
C1254 H1230 0.950 . S
C1254 C1249 1.363 . S
C1254 C1253 1.415 . S
C1255 H1231 0.951 . S
C1255 C1256 1.366 . S
C1255 C1257 1.388 . S
C1256 C1255 1.366 . S
C1256 C1260 1.385 . S
C1257 H1232 0.951 . S
C1257 C1255 1.388 . S
C1257 C1258 1.366 . S
C1258 C1257 1.366 . S
C1258 C1259 1.414 . S
C1258 C1261 1.499 . S
C1259 H1233 0.950 . S
C1259 C1258 1.414 . S
C1259 C1260 1.374 . S
C1260 H1234 0.950 . S
C1260 C1256 1.385 . S
C1260 C1259 1.374 . S
C1261 C1258 1.499 . S
C1261 C1262 1.373 . S
C1261 C1263 1.389 1_545 S
C1262 H1235 0.950 . S
C1262 C1248 1.377 . S
C1262 C1261 1.373 . S
C1263 C1247 1.377 . S
C1263 C1261 1.389 1_565 S
C1263 C1264 1.524 . S
C1264 C1263 1.524 . S
C1264 C1265 1.397 1_565 S
C1264 C1269 1.363 . S
C1265 H1236 0.950 . S
C1265 C1264 1.397 1_545 S
C1265 C1266 1.334 1_545 S
C1266 H1237 0.950 1_565 S
C1266 C1265 1.334 1_565 S
C1266 C1267 1.287 . S
C1267 C1266 1.287 . S
C1267 C1268 1.524 . S
C1267 H1270 0.999 . S
C1268 H1238 0.950 . S
C1268 C1267 1.524 . S
C1268 C1269 1.415 . S
C1269 H1239 0.950 . S
C1269 C1264 1.363 . S
C1269 C1268 1.415 . S
H1270 C1267 0.999 . S
H1271 C1252 0.913 . S
C491 C52 1.698 . S
C506 C111 1.699 . S
C541 C229 1.699 . S
C556 C170 1.699 . S
C591 C288 1.698 . S
C606 C347 1.699 . S
C641 C406 1.699 . S
C656 C465 1.699 . S
C691 C3 1.817 . S
C706 C121 1.817 . S
C741 C180 1.817 . S
C756 C62 1.818 . S
C791 C239 1.817 . S
C806 C357 1.818 . S
C841 C416 1.817 . S
C856 C298 1.817 . S
C891 C5 1.192 . S
C906 C241 1.192 . S
C941 C64 1.191 . S
C956 C300 1.191 . S
C991 C359 1.191 . S
C1006 C123 1.191 . S
C1041 C418 1.192 . S
C1056 C182 1.192 . S
C1091 C92 1.273 . S
C1106 C33 1.274 . S
C1141 C151 1.273 . S
C1156 C210 1.274 . S
C1191 C269 1.274 . S
C1206 C328 1.273 . S
C1241 C387 1.273 . S
C1256 C446 1.274 . S
