# Generated by pormake.
# Topology wmx, (6)-cn, num edge types: 1
# Building blocks:
#     Node 0, Type 0, BuildingBlock: MIDCAF_clean_sbu_0, # of connection points: 6
#     Node 1, Type 0, BuildingBlock: MIDCAF_clean_sbu_0, # of connection points: 6
#     Node 2, Type 0, BuildingBlock: MIDCAF_clean_sbu_0, # of connection points: 6
#     Node 3, Type 0, BuildingBlock: MIDCAF_clean_sbu_0, # of connection points: 6
#     Node 4, Type 0, BuildingBlock: MIDCAF_clean_sbu_0, # of connection points: 6
#     Node 5, Type 0, BuildingBlock: MIDCAF_clean_sbu_0, # of connection points: 6
#     Node 6, Type 0, BuildingBlock: MIDCAF_clean_sbu_0, # of connection points: 6
#     Node 7, Type 0, BuildingBlock: MIDCAF_clean_sbu_0, # of connection points: 6
#     Node 8, Type 0, BuildingBlock: MIDCAF_clean_sbu_0, # of connection points: 6
#     Node 9, Type 0, BuildingBlock: MIDCAF_clean_sbu_0, # of connection points: 6
#     Node 10, Type 0, BuildingBlock: MIDCAF_clean_sbu_0, # of connection points: 6
#     Node 11, Type 0, BuildingBlock: MIDCAF_clean_sbu_0, # of connection points: 6
#     Node 12, Type 0, BuildingBlock: MIDCAF_clean_sbu_0, # of connection points: 6
#     Node 13, Type 0, BuildingBlock: MIDCAF_clean_sbu_0, # of connection points: 6
#     Node 14, Type 0, BuildingBlock: MIDCAF_clean_sbu_0, # of connection points: 6
#     Node 15, Type 0, BuildingBlock: MIDCAF_clean_sbu_0, # of connection points: 6
#     Node 16, Type 0, BuildingBlock: MIDCAF_clean_sbu_0, # of connection points: 6
#     Node 17, Type 0, BuildingBlock: MIDCAF_clean_sbu_0, # of connection points: 6
#     Node 18, Type 0, BuildingBlock: MIDCAF_clean_sbu_0, # of connection points: 6
#     Node 19, Type 0, BuildingBlock: MIDCAF_clean_sbu_0, # of connection points: 6
#     Node 20, Type 0, BuildingBlock: MIDCAF_clean_sbu_0, # of connection points: 6
#     Node 21, Type 0, BuildingBlock: MIDCAF_clean_sbu_0, # of connection points: 6
#     Node 22, Type 0, BuildingBlock: MIDCAF_clean_sbu_0, # of connection points: 6
#     Node 23, Type 0, BuildingBlock: MIDCAF_clean_sbu_0, # of connection points: 6
#     Node 24, Type 0, BuildingBlock: MIDCAF_clean_sbu_0, # of connection points: 6
#     Node 25, Type 0, BuildingBlock: MIDCAF_clean_sbu_0, # of connection points: 6
#     Node 26, Type 0, BuildingBlock: MIDCAF_clean_sbu_0, # of connection points: 6
#     Node 27, Type 0, BuildingBlock: MIDCAF_clean_sbu_0, # of connection points: 6
#     Node 28, Type 0, BuildingBlock: MIDCAF_clean_sbu_0, # of connection points: 6
#     Node 29, Type 0, BuildingBlock: MIDCAF_clean_sbu_0, # of connection points: 6
#     Node 30, Type 0, BuildingBlock: MIDCAF_clean_sbu_0, # of connection points: 6
#     Node 31, Type 0, BuildingBlock: MIDCAF_clean_sbu_0, # of connection points: 6
#     Node 32, Type 0, BuildingBlock: MIDCAF_clean_sbu_0, # of connection points: 6
#     Node 33, Type 0, BuildingBlock: MIDCAF_clean_sbu_0, # of connection points: 6
#     Node 34, Type 0, BuildingBlock: MIDCAF_clean_sbu_0, # of connection points: 6
#     Node 35, Type 0, BuildingBlock: MIDCAF_clean_sbu_0, # of connection points: 6
#     Edge 36, Type (0, 0), None
#     Edge 37, Type (0, 0), None
#     Edge 38, Type (0, 0), None
#     Edge 39, Type (0, 0), None
#     Edge 40, Type (0, 0), None
#     Edge 41, Type (0, 0), None
#     Edge 42, Type (0, 0), None
#     Edge 43, Type (0, 0), None
#     Edge 44, Type (0, 0), None
#     Edge 45, Type (0, 0), None
#     Edge 46, Type (0, 0), None
#     Edge 47, Type (0, 0), None
#     Edge 48, Type (0, 0), None
#     Edge 49, Type (0, 0), None
#     Edge 50, Type (0, 0), None
#     Edge 51, Type (0, 0), None
#     Edge 52, Type (0, 0), None
#     Edge 53, Type (0, 0), None
#     Edge 54, Type (0, 0), None
#     Edge 55, Type (0, 0), None
#     Edge 56, Type (0, 0), None
#     Edge 57, Type (0, 0), None
#     Edge 58, Type (0, 0), None
#     Edge 59, Type (0, 0), None
#     Edge 60, Type (0, 0), None
#     Edge 61, Type (0, 0), None
#     Edge 62, Type (0, 0), None
#     Edge 63, Type (0, 0), None
#     Edge 64, Type (0, 0), None
#     Edge 65, Type (0, 0), None
#     Edge 66, Type (0, 0), None
#     Edge 67, Type (0, 0), None
#     Edge 68, Type (0, 0), None
#     Edge 69, Type (0, 0), None
#     Edge 70, Type (0, 0), None
#     Edge 71, Type (0, 0), None
#     Edge 72, Type (0, 0), None
#     Edge 73, Type (0, 0), None
#     Edge 74, Type (0, 0), None
#     Edge 75, Type (0, 0), None
#     Edge 76, Type (0, 0), None
#     Edge 77, Type (0, 0), None
#     Edge 78, Type (0, 0), None
#     Edge 79, Type (0, 0), None
#     Edge 80, Type (0, 0), None
#     Edge 81, Type (0, 0), None
#     Edge 82, Type (0, 0), None
#     Edge 83, Type (0, 0), None
#     Edge 84, Type (0, 0), None
#     Edge 85, Type (0, 0), None
#     Edge 86, Type (0, 0), None
#     Edge 87, Type (0, 0), None
#     Edge 88, Type (0, 0), None
#     Edge 89, Type (0, 0), None
#     Edge 90, Type (0, 0), None
#     Edge 91, Type (0, 0), None
#     Edge 92, Type (0, 0), None
#     Edge 93, Type (0, 0), None
#     Edge 94, Type (0, 0), None
#     Edge 95, Type (0, 0), None
#     Edge 96, Type (0, 0), None
#     Edge 97, Type (0, 0), None
#     Edge 98, Type (0, 0), None
#     Edge 99, Type (0, 0), None
#     Edge 100, Type (0, 0), None
#     Edge 101, Type (0, 0), None
#     Edge 102, Type (0, 0), None
#     Edge 103, Type (0, 0), None
#     Edge 104, Type (0, 0), None
#     Edge 105, Type (0, 0), None
#     Edge 106, Type (0, 0), None
#     Edge 107, Type (0, 0), None
#     Edge 108, Type (0, 0), None
#     Edge 109, Type (0, 0), None
#     Edge 110, Type (0, 0), None
#     Edge 111, Type (0, 0), None
#     Edge 112, Type (0, 0), None
#     Edge 113, Type (0, 0), None
#     Edge 114, Type (0, 0), None
#     Edge 115, Type (0, 0), None
#     Edge 116, Type (0, 0), None
#     Edge 117, Type (0, 0), None
#     Edge 118, Type (0, 0), None
#     Edge 119, Type (0, 0), None
#     Edge 120, Type (0, 0), None
#     Edge 121, Type (0, 0), None
#     Edge 122, Type (0, 0), None
#     Edge 123, Type (0, 0), None
#     Edge 124, Type (0, 0), None
#     Edge 125, Type (0, 0), None
#     Edge 126, Type (0, 0), None
#     Edge 127, Type (0, 0), None
#     Edge 128, Type (0, 0), None
#     Edge 129, Type (0, 0), None
#     Edge 130, Type (0, 0), None
#     Edge 131, Type (0, 0), None
#     Edge 132, Type (0, 0), None
#     Edge 133, Type (0, 0), None
#     Edge 134, Type (0, 0), None
#     Edge 135, Type (0, 0), None
#     Edge 136, Type (0, 0), None
#     Edge 137, Type (0, 0), None
#     Edge 138, Type (0, 0), None
#     Edge 139, Type (0, 0), None
#     Edge 140, Type (0, 0), None
#     Edge 141, Type (0, 0), None
#     Edge 142, Type (0, 0), None
#     Edge 143, Type (0, 0), None
# Relax obj value: 0.609
# Max RMSD: 0.244
# Mean RMSD: 0.244
data_MOF--net-wmx--node1-MIDCAF_clean_sbu_0--edge1-none
_symmetry_space_group_name_H-M    P1
_symmetry_Int_Tables_number       1
_symmetry_cell_setting            triclinic
loop_
_symmetry_equiv_pos_as_xyz
'x, y, z'
_cell_length_a     23.810834
_cell_length_b     23.810467
_cell_length_c     22.784664
_cell_angle_alpha  90.001941
_cell_angle_beta   89.996027
_cell_angle_gamma 120.00505
loop_
_atom_site_label
_atom_site_type_symbol
_atom_site_fract_x
_atom_site_fract_y
_atom_site_fract_z
_atom_type_partial_charge
Zn0 Zn 0.29666 0.22352 0.02852 0.0
Zn1 Zn 0.10753 0.10412 0.19783 0.0
Zn2 Zn 0.16337 0.1437 0.10573 0.0
C3 C 0.03373 0.13 0.12704 0.0
C4 C 0.09259 -0.0028 0.13426 0.0
O5 O 0.22419 0.10732 0.12832 0.0
O6 O 0.30737 0.20864 0.11778 0.0
C7 C 0.20939 0.25696 0.01044 0.0
O8 O 0.06206 0.10914 0.09356 0.0
O9 O 0.06393 0.15803 0.17345 0.0
O10 O 0.06504 0.01338 0.17253 0.0
O11 O 0.14183 0.04109 0.10539 0.0
O12 O 0.26662 0.28542 0.99093 0.0
O13 O 0.19503 0.21325 0.04769 0.0
O14 O 0.19489 0.07817 0.06178 0.0
O15 O 0.26204 0.13597 0.98817 0.0
C16 C 0.22623 0.08209 0.01373 0.0
O17 O 0.19791 0.2102 0.18273 0.0
O18 O 0.1953 0.13676 0.23863 0.0
C19 C 0.28079 0.15321 0.14331 0.0
C20 C 0.20835 0.19446 0.2335 0.0
Zn21 Zn 0.85683 -0.00437 0.19788 0.0
Zn22 Zn 0.73743 0.06531 0.02855 0.0
Zn23 Zn 0.81723 0.01186 0.10575 0.0
C24 C 0.87886 0.13635 0.01377 0.0
C25 C 0.70398 0.94458 0.01047 0.0
O26 O 0.75075 0.9799 0.18277 0.0
O27 O 0.82418 0.05077 0.23865 0.0
C28 C 0.96374 0.0876 0.13428 0.0
O29 O 0.88278 0.10893 0.06181 0.0
O30 O 0.82499 0.11825 0.9882 0.0
O31 O 0.67554 0.97336 0.99096 0.0
O32 O 0.74768 0.97393 0.04772 0.0
O33 O 0.94756 0.0439 0.17258 0.0
O34 O 0.91986 0.09292 0.10538 0.0
O35 O 0.85182 0.94513 0.09359 0.0
O36 O 0.80295 0.89811 0.1735 0.0
C37 C 0.83097 0.89594 0.12707 0.0
O38 O 0.85359 0.10907 0.12834 0.0
O39 O 0.75227 0.0909 0.1178 0.0
C40 C 0.7665 0.0061 0.23354 0.0
C41 C 0.8077 0.11977 0.14334 0.0
Zn42 Zn 0.89556 0.66422 0.02849 0.0
Zn43 Zn 0.96537 0.85344 0.19788 0.0
Zn44 Zn 0.94911 0.7976 0.10571 0.0
C45 C 0.06503 0.92721 0.12704 0.0
C46 C 0.87337 0.86836 0.13429 0.0
O47 O 0.8519 0.73677 0.12833 0.0
O48 O 0.87 0.65357 0.11776 0.0
C49 C 0.01629 0.75151 0.01047 0.0
O50 O 0.01588 0.89891 0.09353 0.0
O51 O 0.0629 0.8971 0.17351 0.0
O52 O 0.91709 0.89589 0.17257 0.0
O53 O 0.86803 0.81913 0.1054 0.0
O54 O -0.01245 0.69431 0.9909 0.0
O55 O -0.01314 0.76578 0.04771 0.0
O56 O 0.85204 0.76607 0.06178 0.0
O57 O 0.84266 0.6989 0.98819 0.0
C58 C 0.8246 0.73471 0.01374 0.0
O59 O -0.01893 0.76307 0.18271 0.0
O60 O 0.91022 0.76563 0.23862 0.0
C61 C 0.84117 0.68016 0.14331 0.0
C62 C 0.95487 0.7526 0.23348 0.0
Zn63 Zn 0.21684 0.30647 0.48911 0.0
Zn64 Zn 0.09601 0.11457 0.32012 0.0
Zn65 Zn 0.13584 0.17006 0.41212 0.0
C66 C 0.12289 0.041 0.3911 0.0
C67 C -0.01016 0.10112 0.38403 0.0
O68 O 0.09821 0.22977 0.39052 0.0
O69 O 0.19864 0.31537 0.39947 0.0
C70 C 0.25243 0.22008 0.50177 0.0
O71 O 0.10263 0.06936 0.42518 0.0
O72 O 0.15005 0.07108 0.34435 0.0
O73 O 0.00567 0.07266 0.34639 0.0
O74 O 0.03403 0.15084 0.41225 0.0
O75 O 0.28073 0.27609 0.52398 0.0
O76 O 0.20753 0.20805 0.46666 0.0
O77 O 0.07091 0.20171 0.45793 0.0
O78 O 0.12889 0.27032 0.53075 0.0
C79 C 0.0748 0.23342 0.5058 0.0
O80 O 0.20191 0.205 0.33505 0.0
O81 O 0.12846 0.20219 0.27892 0.0
C82 C 0.14294 0.28652 0.3743 0.0
C83 C 0.18626 0.21572 0.28435 0.0
Zn84 Zn 0.65449 0.90252 0.48914 0.0
Zn85 Zn 0.84645 0.97366 0.3201 0.0
Zn86 Zn 0.79094 0.95797 0.41214 0.0
C87 C 0.91995 0.0741 0.39112 0.0
C88 C 0.85986 0.8809 0.384 0.0
O89 O 0.73122 0.86061 0.39051 0.0
O90 O 0.64562 0.87544 0.39949 0.0
C91 C 0.74089 0.02453 0.50174 0.0
O92 O 0.89163 0.02548 0.42522 0.0
O93 O 0.88996 0.07121 0.34433 0.0
O94 O 0.88832 0.92521 0.34637 0.0
O95 O 0.81013 0.87536 0.41222 0.0
O96 O 0.68489 -0.00317 0.52398 0.0
O97 O 0.75289 -0.00838 0.46665 0.0
O98 O 0.75928 0.86138 0.45793 0.0
O99 O 0.69067 0.85075 0.53076 0.0
C100 C 0.72757 0.83356 0.50581 0.0
O101 O 0.75601 -0.01088 0.3351 0.0
O102 O 0.75881 0.91848 0.27894 0.0
C103 C 0.67447 0.84859 0.3743 0.0
C104 C 0.74527 0.96275 0.28439 0.0
Zn105 Zn 0.0584 0.74411 0.48909 0.0
Zn106 Zn -0.01268 0.86495 0.32004 0.0
Zn107 Zn 0.00297 0.82511 0.41209 0.0
C108 C 0.88687 0.83803 0.39107 0.0
C109 C 0.08005 0.97111 0.38398 0.0
O110 O 0.10032 0.86274 0.39048 0.0
O111 O 0.08548 0.76231 0.39946 0.0
C112 C 0.93639 0.7085 0.50172 0.0
O113 O 0.93548 0.8583 0.42518 0.0
O114 O 0.88976 0.81094 0.34427 0.0
O115 O 0.03578 0.95528 0.34632 0.0
O116 O 0.08557 0.92693 0.41221 0.0
O117 O 0.96409 0.68021 0.52395 0.0
O118 O 0.9693 0.75342 0.46661 0.0
O119 O 0.09956 0.89005 0.45789 0.0
O120 O 0.11019 0.83207 0.53071 0.0
C121 C 0.12738 0.88616 0.50576 0.0
O122 O 0.97183 0.75905 0.33503 0.0
O123 O 0.04251 0.83249 0.2789 0.0
C124 C 0.11235 0.81801 0.37427 0.0
C125 C -0.00179 0.77468 0.28433 0.0
Zn126 Zn 0.80422 0.8758 0.80742 0.0
Zn127 Zn 0.65877 0.75835 0.97344 0.0
Zn128 Zn 0.78414 0.8427 0.89996 0.0
C129 C 0.69296 0.88268 0.98845 0.0
C130 C 0.77583 0.74547 0.98456 0.0
O131 O 0.75021 0.76626 0.82836 0.0
O132 O 0.72728 0.8151 0.75879 0.0
C133 C 0.8718 -0.01376 0.86299 0.0
O134 O 0.73483 0.88277 0.95287 0.0
O135 O 0.6495 0.83011 0.01076 0.0
O136 O 0.73235 0.74864 0.01382 0.0
O137 O 0.78246 0.75923 0.93042 0.0
O138 O 0.83247 0.96931 0.82048 0.0
O139 O 0.869 0.9426 0.89813 0.0
O140 O 0.88826 0.89015 0.90315 0.0
O141 O 0.87719 0.85079 0.81491 0.0
C142 C 0.90925 0.86846 0.86226 0.0
O143 O 0.71285 0.86223 0.87819 0.0
O144 O 0.63828 0.75863 0.88365 0.0
C145 C 0.73121 0.76649 0.77518 0.0
C146 C 0.66055 0.81435 0.85992 0.0
Zn147 Zn 0.08515 0.92063 0.80748 0.0
Zn148 Zn 0.20252 0.89258 0.97348 0.0
Zn149 Zn 0.1182 0.93361 0.90003 0.0
C150 C 0.07819 0.80244 0.9885 0.0
C151 C 0.21549 0.02255 0.98456 0.0
O152 O 0.19469 0.9762 0.82847 0.0
O153 O 0.14589 0.90441 0.7589 0.0
C154 C 0.97469 0.87775 0.86302 0.0
O155 O 0.07811 0.84423 0.95292 0.0
O156 O 0.13075 0.81155 0.0108 0.0
O157 O 0.21227 0.9759 0.01383 0.0
O158 O 0.20173 0.01541 0.93041 0.0
O159 O -0.00837 0.85536 0.8205 0.0
O160 O 0.01832 0.9186 0.89817 0.0
O161 O 0.07076 -0.00969 0.90321 0.0
O162 O 0.11016 0.0186 0.81498 0.0
C163 C 0.09247 0.033 0.86232 0.0
O164 O 0.09866 0.84279 0.87822 0.0
O165 O 0.20225 0.87181 0.88369 0.0
C166 C 0.19448 0.95698 0.77529 0.0
C167 C 0.14654 0.83836 0.85996 0.0
Zn168 Zn 0.04035 0.15672 0.80743 0.0
Zn169 Zn 0.06836 0.30217 0.97346 0.0
Zn170 Zn 0.02731 0.17681 0.89997 0.0
C171 C 0.15851 0.26797 0.98842 0.0
C172 C 0.9384 0.18513 0.98458 0.0
O173 O -0.01519 0.21072 0.82835 0.0
O174 O 0.0566 0.23365 0.75879 0.0
C175 C 0.0832 0.08916 0.86305 0.0
O176 O 0.11671 0.22609 0.95285 0.0
O177 O 0.14939 0.31141 0.01075 0.0
O178 O -0.01495 0.2286 0.01384 0.0
O179 O 0.94553 0.17851 0.93044 0.0
O180 O 0.10561 0.12848 0.82053 0.0
O181 O 0.04233 0.09194 0.89818 0.0
O182 O 0.97062 0.07267 0.90316 0.0
O183 O 0.94237 0.08375 0.8149 0.0
C184 C 0.92797 0.05168 0.86225 0.0
O185 O 0.11813 0.2481 0.87817 0.0
O186 O 0.08911 0.32267 0.88366 0.0
C187 C 0.00405 0.22972 0.77518 0.0
C188 C 0.12255 0.30041 0.85992 0.0
Zn189 Zn 0.86625 0.81256 0.7023 0.0
Zn190 Zn 0.75138 0.66614 0.53983 0.0
Zn191 Zn 0.83664 0.79173 0.60934 0.0
C192 C 0.87424 0.69903 0.52174 0.0
C193 C 0.73638 0.78258 0.53366 0.0
O194 O 0.75599 0.75935 0.67604 0.0
O195 O 0.80168 0.73324 0.74616 0.0
C196 C -0.02223 0.87957 0.64621 0.0
O197 O 0.87441 0.74125 0.55669 0.0
O198 O 0.82144 0.655 0.50026 0.0
O199 O 0.74227 0.74182 0.50249 0.0
O200 O 0.748 0.78549 0.58825 0.0
O201 O 0.96008 0.8401 0.68875 0.0
O202 O 0.9346 0.87754 0.61101 0.0
O203 O 0.8825 0.89628 0.60633 0.0
O204 O 0.84248 0.88576 0.69439 0.0
C205 C 0.86064 0.91757 0.64699 0.0
O206 O 0.85806 0.72173 0.63442 0.0
O207 O 0.75508 0.64523 0.62911 0.0
C208 C 0.75467 0.7397 0.72928 0.0
C209 C 0.81124 0.66823 0.65214 0.0
Zn210 Zn 0.2948 0.07741 0.53981 0.0
Zn211 Zn 0.14838 0.04592 0.70233 0.0
Zn212 Zn 0.16924 0.03706 0.60937 0.0
C213 C 0.04338 0.93527 0.64706 0.0
C214 C 0.08141 0.0904 0.64614 0.0
O215 O 0.23926 0.12848 0.63445 0.0
O216 O 0.31574 0.10198 0.62909 0.0
C217 C 0.17835 0.94596 0.53361 0.0
O218 O 0.06469 0.97839 0.60638 0.0
O219 O 0.07518 0.94893 0.69448 0.0
O220 O 0.12087 0.11221 0.68869 0.0
O221 O 0.08344 0.04924 0.61097 0.0
O222 O 0.21912 -0.00738 0.50244 0.0
O223 O 0.17544 0.95467 0.5882 0.0
O224 O 0.2197 0.12535 0.55676 0.0
O225 O 0.30593 0.15863 0.50029 0.0
C226 C 0.26192 0.16741 0.5218 0.0
O227 O 0.2016 -0.01113 0.67615 0.0
O228 O 0.22766 0.06069 0.74626 0.0
C229 C 0.29275 0.13513 0.65215 0.0
C230 C 0.22123 0.00723 0.72939 0.0
Zn231 Zn 0.88355 0.20958 0.53981 0.0
Zn232 Zn 0.91507 0.09468 0.70228 0.0
Zn233 Zn 0.92388 0.12433 0.60932 0.0
C234 C 0.0257 0.1003 0.64699 0.0
C235 C 0.87057 0.98319 0.64614 0.0
O236 O 0.83246 0.10291 0.63443 0.0
O237 O 0.85895 0.20589 0.62909 0.0
C238 C 0.015 0.2246 0.53365 0.0
O239 O -0.01743 0.07847 0.60632 0.0
O240 O 0.01205 0.11845 0.6944 0.0
O241 O 0.84877 0.00086 0.68868 0.0
O242 O 0.91172 0.02636 0.61095 0.0
O243 O 0.96835 0.21871 0.50247 0.0
O244 O 0.00628 0.21298 0.58824 0.0
O245 O 0.83563 0.08654 0.5567 0.0
O246 O 0.80234 0.13949 0.50026 0.0
C247 C 0.79357 0.08669 0.52175 0.0
O248 O 0.97215 0.20496 0.67603 0.0
O249 O 0.90033 0.15925 0.74615 0.0
C250 C 0.82579 0.14974 0.65213 0.0
C251 C 0.95381 0.20626 0.72928 0.0
Zn252 Zn 0.78228 0.43847 0.5271 0.0
Zn253 Zn 0.9617 0.55217 0.35728 0.0
Zn254 Zn 0.8314 0.47494 0.434 0.0
C255 C 0.89061 0.41131 0.34032 0.0
C256 C 0.87844 0.59119 0.34002 0.0
O257 O 0.87108 0.54237 0.51056 0.0
O258 O 0.86847 0.47167 0.57078 0.0
C259 C 0.75977 0.32806 0.46632 0.0
O260 O 0.85997 0.40766 0.38876 0.0
O261 O 0.92658 0.46528 0.31496 0.0
O262 O 0.93597 0.61769 0.32133 0.0
O263 O 0.86072 0.54609 0.37654 0.0
O264 O 0.73765 0.34659 0.5076 0.0
O265 O 0.80519 0.37026 0.43275 0.0
O266 O 0.73014 0.44215 0.42445 0.0
O267 O 0.73452 0.48927 0.50645 0.0
C268 C 0.70348 0.4632 0.45969 0.0
O269 O 0.89008 0.43672 0.45433 0.0
O270 O 0.97425 0.5376 0.4459 0.0
C271 C 0.88283 0.52932 0.56218 0.0
C272 C 0.94647 0.48172 0.47049 0.0
Zn273 Zn 0.40888 0.40169 0.3574 0.0
Zn274 Zn 0.52251 0.33612 0.52717 0.0
Zn275 Zn 0.486 0.34871 0.43409 0.0
C276 C 0.4978 0.23253 0.4598 0.0
C277 C 0.63291 0.42396 0.46633 0.0
O278 O 0.52423 0.44562 0.45432 0.0
O279 O 0.42334 0.42883 0.44596 0.0
C280 C 0.36978 0.27931 0.34005 0.0
O281 O 0.51881 0.28024 0.42454 0.0
O282 O 0.47178 0.23752 0.50659 0.0
O283 O 0.61439 0.38341 0.50769 0.0
O284 O 0.59071 0.42711 0.43272 0.0
O285 O 0.34341 0.31053 0.32153 0.0
O286 O 0.41491 0.3064 0.37659 0.0
O287 O 0.55328 0.44455 0.3888 0.0
O288 O 0.49568 0.45349 0.31498 0.0
C289 C 0.54965 0.47151 0.34034 0.0
O290 O 0.41859 0.32097 0.51067 0.0
O291 O 0.48929 0.38908 0.57088 0.0
C292 C 0.47922 0.45698 0.47052 0.0
C293 C 0.43164 0.34577 0.56229 0.0
Zn294 Zn 0.62493 0.17868 0.52718 0.0
Zn295 Zn 0.55922 -0.00087 0.35721 0.0
Zn296 Zn 0.61236 0.12962 0.43401 0.0
C297 C 0.48947 0.07037 0.34037 0.0
C298 C 0.6814 0.0824 0.34006 0.0
O299 O 0.64012 0.08995 0.51058 0.0
O300 O 0.57197 0.09244 0.57081 0.0
C301 C 0.53705 0.2012 0.46639 0.0
O302 O 0.51648 0.10103 0.38879 0.0
O303 O 0.50745 0.03438 0.31501 0.0
O304 O 0.65061 0.02493 0.32118 0.0
O305 O 0.65364 0.09969 0.37658 0.0
O306 O 0.57764 0.22326 0.50771 0.0
O307 O 0.53385 0.1558 0.4328 0.0
O308 O 0.68082 0.23085 0.42443 0.0
O309 O 0.72352 0.22654 0.50654 0.0
C310 C 0.72849 0.25749 0.45972 0.0
O311 O 0.51546 0.07094 0.45441 0.0
O312 O 0.53211 -0.01326 0.4459 0.0
C313 C 0.6153 0.07813 0.56219 0.0
C314 C 0.50402 0.01452 0.47051 0.0
Zn315 Zn 0.88595 0.6398 0.80944 0.0
Zn316 Zn 0.75719 0.48837 0.6447 0.0
Zn317 Zn 0.79333 0.50601 0.73622 0.0
C318 C 0.7592 0.37966 0.69929 0.0
C319 C 0.64769 0.42593 0.70002 0.0
O320 O 0.77637 0.58198 0.71915 0.0
O321 O 0.87975 0.65818 0.72141 0.0
C322 C 0.90027 0.51838 0.81608 0.0
O323 O 0.73998 0.4024 0.74066 0.0
O324 O 0.7766 0.41122 0.65165 0.0
O325 O 0.66566 0.46568 0.65784 0.0
O326 O 0.69056 0.42607 0.73444 0.0
O327 O 0.90331 0.56738 0.84153 0.0
O328 O 0.87433 0.50087 0.76576 0.0
O329 O 0.76879 0.55718 0.79893 0.0
O330 O 0.81265 0.64433 0.85367 0.0
C331 C 0.76241 0.59349 0.83639 0.0
O332 O 0.86785 0.53591 0.66374 0.0
O333 O 0.82064 0.56755 0.60052 0.0
C334 C 0.82294 0.63498 0.70009 0.0
C335 C 0.86674 0.55774 0.61212 0.0
Zn336 Zn 0.32118 0.2383 0.80946 0.0
Zn337 Zn 0.47262 0.26107 0.64471 0.0
Zn338 Zn 0.45497 0.27947 0.73625 0.0
C339 C 0.58132 0.37175 0.69933 0.0
C340 C 0.5351 0.214 0.69993 0.0
O341 O 0.37903 0.18653 0.71914 0.0
O342 O 0.30282 0.21369 0.72143 0.0
C343 C 0.44259 0.37406 0.81601 0.0
O344 O 0.55858 0.32976 0.74069 0.0
O345 O 0.54975 0.35764 0.6517 0.0
O346 O 0.49537 0.19226 0.65774 0.0
O347 O 0.53493 0.25668 0.73441 0.0
O348 O 0.39364 0.32809 0.84151 0.0
O349 O 0.46 0.36563 0.76564 0.0
O350 O 0.40379 0.20377 0.79897 0.0
O351 O 0.31664 0.16047 0.8537 0.0
C352 C 0.36748 0.16108 0.83643 0.0
O353 O 0.42507 0.32417 0.66385 0.0
O354 O 0.3934 0.24533 0.6006 0.0
C355 C 0.32602 0.18008 0.7001 0.0
C356 C 0.40322 0.30125 0.61223 0.0
Zn357 Zn 0.69997 0.20379 0.64468 0.0
Zn358 Zn 0.72261 0.07503 0.80943 0.0
Zn359 Zn 0.68147 0.16766 0.73621 0.0
C360 C 0.79986 0.19859 0.83639 0.0
C361 C 0.58686 0.06069 0.81605 0.0
O362 O 0.63686 0.09313 0.66375 0.0
O363 O 0.71572 0.14034 0.60053 0.0
C364 C 0.74702 0.3133 0.69997 0.0
O365 O 0.75718 0.19222 0.79893 0.0
O366 O 0.80044 0.14834 0.85366 0.0
O367 O 0.63282 0.05766 0.84151 0.0
O368 O 0.59531 0.08664 0.76573 0.0
O369 O 0.76879 0.29534 0.65778 0.0
O370 O 0.70431 0.27043 0.73442 0.0
O371 O 0.63121 0.221 0.74063 0.0
O372 O 0.6034 0.18438 0.65161 0.0
C373 C 0.58927 0.20181 0.69925 0.0
O374 O 0.7744 0.18462 0.71913 0.0
O375 O 0.74721 0.08124 0.7214 0.0
C376 C 0.6598 0.09423 0.61213 0.0
C377 C 0.78083 0.13805 0.70008 0.0
Zn378 Zn 0.46963 0.21038 0.13947 0.0
Zn379 Zn 0.32023 0.09182 0.30481 0.0
Zn380 Zn 0.44761 0.17815 0.23155 0.0
C381 C 0.3553 0.21661 0.31744 0.0
C382 C 0.43957 0.08007 0.31178 0.0
O383 O 0.4133 0.09983 0.16349 0.0
O384 O 0.38978 0.14845 0.09435 0.0
C385 C 0.53954 0.32168 0.19422 0.0
O386 O 0.39704 0.21496 0.28325 0.0
O387 O 0.31147 0.16486 0.34064 0.0
O388 O 0.39671 0.08361 0.34189 0.0
O389 O 0.44439 0.09258 0.25736 0.0
O390 O 0.50038 0.30516 0.15156 0.0
O391 O 0.53504 0.27753 0.22971 0.0
O392 O 0.55302 0.22419 0.23423 0.0
O393 O 0.54157 0.18401 0.14635 0.0
C394 C 0.57393 0.20204 0.1935 0.0
O395 O 0.3716 0.19141 0.20453 0.0
O396 O 0.29424 0.08909 0.2165 0.0
C397 C 0.39407 0.09993 0.11049 0.0
C398 C 0.31606 0.14388 0.19117 0.0
Zn399 Zn 0.75055 0.25145 0.13948 0.0
Zn400 Zn 0.86907 0.22059 0.30482 0.0
Zn401 Zn 0.78275 0.26166 0.23156 0.0
C402 C 0.74417 0.1311 0.31776 0.0
C403 C 0.88089 0.3517 0.31173 0.0
O404 O 0.86111 0.30568 0.16351 0.0
O405 O 0.81248 0.23353 0.09437 0.0
C406 C 0.63925 0.21005 0.19422 0.0
O407 O 0.74582 0.1744 0.28345 0.0
O408 O 0.79596 0.13886 0.34072 0.0
O409 O 0.87732 0.3053 0.34186 0.0
O410 O 0.86837 0.344 0.25732 0.0
O411 O 0.65577 0.18741 0.15156 0.0
O412 O 0.68339 0.24971 0.22971 0.0
O413 O 0.73674 0.32104 0.23425 0.0
O414 O 0.77693 0.34977 0.14637 0.0
C415 C 0.7589 0.3641 0.19352 0.0
O416 O 0.76948 0.17236 0.20457 0.0
O417 O 0.87181 0.19735 0.21652 0.0
C418 C 0.86101 0.28634 0.11051 0.0
C419 C 0.81701 0.16436 0.1912 0.0
Zn420 Zn 0.70951 0.49131 0.13947 0.0
Zn421 Zn 0.74037 0.64069 0.30483 0.0
Zn422 Zn 0.69929 0.51332 0.23155 0.0
C423 C 0.83 0.60549 0.31755 0.0
C424 C 0.60926 0.52141 0.31176 0.0
O425 O 0.65528 0.54763 0.16348 0.0
O426 O 0.72744 0.57115 0.09434 0.0
C427 C 0.75089 0.42141 0.19424 0.0
O428 O 0.78665 0.56378 0.28331 0.0
O429 O 0.82214 0.64938 0.34067 0.0
O430 O 0.65566 0.56423 0.34189 0.0
O431 O 0.61695 0.51658 0.25734 0.0
O432 O 0.77354 0.46057 0.15158 0.0
O433 O 0.71123 0.4259 0.22973 0.0
O434 O 0.6399 0.40791 0.23423 0.0
O435 O 0.61119 0.41936 0.14634 0.0
C436 C 0.59686 0.38699 0.19349 0.0
O437 O 0.78857 0.58934 0.20453 0.0
O438 O 0.76361 0.6667 0.21652 0.0
C439 C 0.67463 0.56687 0.11048 0.0
C440 C 0.79658 0.64488 0.19118 0.0
Zn441 Zn 0.40456 0.0185 0.89254 0.0
Zn442 Zn 0.52929 0.14499 0.03526 0.0
Zn443 Zn 0.49636 0.127 0.9397 0.0
C444 C 0.52701 0.25357 0.98337 0.0
C445 C 0.64093 0.21075 0.98308 0.0
O446 O 0.51598 0.05338 0.9667 0.0
O447 O 0.4126 0.97797 0.96942 0.0
C448 C 0.38977 0.11971 0.8633 0.0
O449 O 0.54599 0.23129 0.94153 0.0
O450 O 0.5087 0.22108 0.03041 0.0
O451 O 0.62272 0.17166 0.02583 0.0
O452 O 0.59839 0.20816 0.94669 0.0
O453 O 0.35096 0.06518 0.88567 0.0
O454 O 0.45033 0.14093 0.86643 0.0
O455 O 0.54409 0.07767 0.90358 0.0
O456 O 0.47646 0.03483 0.82955 0.0
C457 C 0.5322 0.05398 0.85164 0.0
O458 O 0.42083 0.09513 0.01174 0.0
O459 O 0.46556 0.06752 0.08163 0.0
C460 C 0.47041 0.00024 0.98741 0.0
C461 C 0.41901 0.07467 0.06465 0.0
Zn462 Zn 0.94245 0.37825 0.89253 0.0
Zn463 Zn 0.81595 0.37652 0.03527 0.0
Zn464 Zn 0.83395 0.36156 0.93971 0.0
C465 C 0.70737 0.26566 0.9834 0.0
C466 C 0.75021 0.42239 0.98307 0.0
O467 O 0.9076 0.45479 0.96672 0.0
O468 O -0.01701 0.4268 0.96942 0.0
C469 C 0.84124 0.26225 0.86328 0.0
O470 O 0.72967 0.3069 0.94154 0.0
O471 O 0.73986 0.27983 0.03043 0.0
O472 O 0.78929 0.44328 0.02583 0.0
O473 O 0.75281 0.38244 0.94668 0.0
O474 O 0.89576 0.27796 0.88564 0.0
O475 O 0.82002 0.30158 0.86643 0.0
O476 O 0.8833 0.45863 0.90361 0.0
O477 O 0.92612 0.43383 0.82957 0.0
C478 C 0.90699 0.47043 0.85167 0.0
O479 O 0.8658 0.3179 0.01176 0.0
O480 O 0.89339 0.39025 0.08166 0.0
C481 C 0.96073 0.46235 0.98742 0.0
C482 C 0.88625 0.33655 0.06467 0.0
Zn483 Zn 0.58444 0.43165 0.03525 0.0
Zn484 Zn 0.58273 0.55638 0.89248 0.0
Zn485 Zn 0.59942 0.46458 0.93968 0.0
C486 C 0.49058 0.42872 0.85159 0.0
C487 C 0.69874 0.5712 0.86326 0.0
O488 O 0.64307 0.54011 0.01172 0.0
O489 O 0.57071 0.49538 0.08162 0.0
C490 C 0.53857 0.32001 0.98307 0.0
O491 O 0.50237 0.41685 0.90354 0.0
O492 O 0.52717 0.48447 0.8295 0.0
O493 O 0.68301 0.61 0.88562 0.0
O494 O 0.65941 0.51063 0.86642 0.0
O495 O 0.51768 0.33821 0.02581 0.0
O496 O 0.57852 0.36255 0.94667 0.0
O497 O 0.65407 0.41497 0.94152 0.0
O498 O 0.68112 0.45224 0.03042 0.0
C499 C 0.69531 0.43392 0.98338 0.0
O500 O 0.50616 0.44495 0.96665 0.0
O501 O 0.53415 0.54833 0.96937 0.0
C502 C 0.62443 0.54193 0.06464 0.0
C503 C 0.4986 0.49052 0.98736 0.0
Zn504 Zn 0.48279 0.76441 0.86814 0.0
Zn505 Zn 0.61958 0.88526 0.7068 0.0
Zn506 Zn 0.49918 0.7983 0.77384 0.0
C507 C 0.57086 0.75102 0.68301 0.0
C508 C 0.51547 0.90727 0.68289 0.0
O509 O 0.53469 0.87319 0.84556 0.0
O510 O 0.56168 0.82629 0.91333 0.0
C511 C 0.41667 0.65319 0.81682 0.0
O512 O 0.54007 0.74547 0.73089 0.0
O513 O 0.60405 0.80584 0.65844 0.0
O514 O 0.57652 0.93648 0.67684 0.0
O515 O 0.48672 0.85609 0.71338 0.0
O516 O 0.45589 0.6713 0.85937 0.0
O517 O 0.41895 0.69568 0.78047 0.0
O518 O 0.39588 0.74812 0.77526 0.0
O519 O 0.40714 0.78619 0.86388 0.0
C520 C 0.37415 0.76751 0.81707 0.0
O521 O 0.57285 0.77852 0.79455 0.0
O522 O 0.64878 0.88188 0.79109 0.0
C523 C 0.55585 0.87396 0.89778 0.0
C524 C 0.6265 0.82523 0.81245 0.0
Zn525 Zn 0.19656 0.7106 0.86815 0.0
Zn526 Zn 0.07569 0.72651 0.70682 0.0
Zn527 Zn 0.16266 0.69307 0.77385 0.0
C528 C 0.20995 0.81205 0.68305 0.0
C529 C 0.05366 0.60039 0.68289 0.0
O530 O 0.08779 0.65369 0.84559 0.0
O531 O 0.13468 0.72759 0.91337 0.0
C532 C 0.30777 0.7557 0.81681 0.0
O533 O 0.21549 0.78682 0.73093 0.0
O534 O 0.15513 0.79042 0.65847 0.0
O535 O 0.02447 0.63225 0.67683 0.0
O536 O 0.10483 0.62282 0.7134 0.0
O537 O 0.28967 0.77682 0.85937 0.0
O538 O 0.26528 0.71548 0.78047 0.0
O539 O 0.21284 0.63997 0.77527 0.0
O540 O 0.17479 0.61317 0.8639 0.0
C541 C 0.19347 0.59886 0.81708 0.0
O542 O 0.18239 0.78651 0.79458 0.0
O543 O 0.07903 0.75907 0.79111 0.0
C544 C 0.08702 0.67408 0.89782 0.0
C545 C 0.13567 0.79344 0.81249 0.0
Zn546 Zn 0.25036 0.47816 0.86814 0.0
Zn547 Zn 0.23438 0.34137 0.70676 0.0
Zn548 Zn 0.26786 0.46179 0.77383 0.0
C549 C 0.14887 0.3901 0.68301 0.0
C550 C 0.36053 0.44547 0.68287 0.0
O551 O 0.30724 0.42628 0.84554 0.0
O552 O 0.23336 0.39927 0.91333 0.0
C553 C 0.20527 0.54429 0.81682 0.0
O554 O 0.17414 0.4209 0.73087 0.0
O555 O 0.17047 0.35689 0.65843 0.0
O556 O 0.32865 0.38443 0.67677 0.0
O557 O 0.33812 0.47422 0.7134 0.0
O558 O 0.18415 0.50507 0.85937 0.0
O559 O 0.24548 0.54202 0.78046 0.0
O560 O 0.32099 0.56509 0.77526 0.0
O561 O 0.34779 0.55382 0.86389 0.0
C562 C 0.36209 0.58682 0.81708 0.0
O563 O 0.17441 0.38811 0.79454 0.0
O564 O 0.20183 0.31218 0.79107 0.0
C565 C 0.28686 0.40511 0.89777 0.0
C566 C 0.16748 0.33446 0.81244 0.0
Zn567 Zn 0.42298 0.82475 0.97442 0.0
Zn568 Zn 0.54652 0.96633 0.14005 0.0
Zn569 Zn 0.45761 0.83983 0.06924 0.0
C570 C 0.41367 0.91629 0.16548 0.0
C571 C 0.56564 0.8554 0.16056 0.0
O572 O 0.53151 0.8776 0.99675 0.0
O573 O 0.48399 0.90455 0.92933 0.0
C574 C 0.31184 0.75767 0.02504 0.0
O575 O 0.41009 0.87959 0.12268 0.0
O576 O 0.46831 0.95725 0.1868 0.0
O577 O 0.58989 0.91533 0.17173 0.0
O578 O 0.51736 0.82667 0.12658 0.0
O579 O 0.32969 0.79715 0.98273 0.0
O580 O 0.3545 0.75997 0.06123 0.0
O581 O 0.40653 0.73675 0.06684 0.0
O582 O 0.44536 0.74906 0.97846 0.0
C583 C 0.42636 0.71552 0.025 0.0
O584 O 0.43874 0.91421 0.05359 0.0
O585 O 0.54197 -0.00913 0.05378 0.0
C586 C 0.53178 0.89877 0.94459 0.0
C587 C 0.48462 0.96722 0.03368 0.0
Zn588 Zn -0.00539 0.57233 0.14009 0.0
Zn589 Zn 0.13622 0.59039 0.97442 0.0
Zn590 Zn 0.12115 0.60994 0.06925 0.0
C591 C 0.24545 0.70299 0.025 0.0
C592 C 0.2033 0.54633 0.02501 0.0
O593 O 0.04676 0.51669 0.05362 0.0
O594 O 0.97012 0.54327 0.05381 0.0
C595 C 0.10561 0.70242 0.16057 0.0
O596 O 0.22423 0.66193 0.06684 0.0
O597 O 0.21191 0.68847 0.97847 0.0
O598 O 0.16382 0.52471 0.9827 0.0
O599 O 0.201 0.58668 0.06122 0.0
O600 O 0.04569 0.66671 0.17178 0.0
O601 O 0.13433 0.68288 0.12656 0.0
O602 O 0.08137 0.52272 0.12277 0.0
O603 O 0.00362 0.50314 0.18682 0.0
C604 C 0.04463 0.48953 0.16553 0.0
O605 O 0.08338 0.64608 0.99678 0.0
O606 O 0.05642 0.57161 0.92934 0.0
C607 C -0.00624 0.50957 0.03371 0.0
C608 C 0.06221 0.62519 0.94461 0.0
Zn609 Zn 0.38853 0.41447 0.14001 0.0
Zn610 Zn 0.37057 0.53799 0.97439 0.0
Zn611 Zn 0.35101 0.50335 0.06923 0.0
C612 C 0.25797 0.53461 0.02497 0.0
C613 C 0.41463 0.64912 0.02502 0.0
O614 O 0.44425 0.52221 0.05353 0.0
O615 O 0.41766 0.41898 0.05375 0.0
C616 C 0.2585 0.39532 0.16055 0.0
O617 O 0.29901 0.55442 0.06683 0.0
O618 O 0.2725 0.51561 0.97844 0.0
O619 O 0.43626 0.63128 0.9827 0.0
O620 O 0.37428 0.60647 0.06123 0.0
O621 O 0.29414 0.37102 0.17168 0.0
O622 O 0.27809 0.44363 0.1266 0.0
O623 O 0.43839 0.55099 0.12253 0.0
O624 O 0.45761 0.49271 0.18677 0.0
C625 C 0.4714 0.54736 0.1654 0.0
O626 O 0.31486 0.42946 0.99673 0.0
O627 O 0.38934 0.47697 0.92929 0.0
C628 C 0.45137 0.47632 0.03364 0.0
C629 C 0.33575 0.42919 0.94456 0.0
Zn630 Zn 0.13657 0.54092 0.47428 0.0
Zn631 Zn 0.00268 0.41197 0.61415 0.0
Zn632 Zn 0.11464 0.50733 0.56934 0.0
C633 C 0.03773 0.54386 0.64668 0.0
C634 C 0.10511 0.4059 0.65164 0.0
O635 O 0.0841 0.43189 0.49839 0.0
O636 O 0.05921 0.4779 0.42754 0.0
C637 C 0.20442 0.65235 0.52688 0.0
O638 O 0.06251 0.55448 0.59532 0.0
O639 O 0.01896 0.48896 0.67056 0.0
O640 O 0.05519 0.36406 0.62465 0.0
O641 O 0.12144 0.4652 0.64779 0.0
O642 O 0.16546 0.63516 0.48406 0.0
O643 O 0.1996 0.60886 0.56341 0.0
O644 O 0.22042 0.55495 0.56739 0.0
O645 O 0.21087 0.51796 0.47867 0.0
C646 C 0.24278 0.5354 0.52596 0.0
O647 O 0.0357 0.51602 0.53385 0.0
O648 O 0.95823 0.41288 0.5381 0.0
C649 C 0.06489 0.4306 0.44511 0.0
C650 C -0.01972 0.46959 0.51749 0.0
Zn651 Zn 0.42 0.58784 0.47427 0.0
Zn652 Zn 0.54897 0.58295 0.61415 0.0
Zn653 Zn 0.45361 0.59953 0.56933 0.0
C654 C 0.41707 0.48609 0.64666 0.0
C655 C 0.55505 0.69145 0.65163 0.0
O656 O 0.52903 0.64441 0.49836 0.0
O657 O 0.48302 0.57349 0.42753 0.0
C658 C 0.30859 0.54426 0.52689 0.0
O659 O 0.40646 0.50025 0.59531 0.0
O660 O 0.47197 0.52223 0.67055 0.0
O661 O 0.59689 0.68337 0.62465 0.0
O662 O 0.49575 0.64849 0.64777 0.0
O663 O 0.32577 0.52248 0.48406 0.0
O664 O 0.35208 0.58295 0.56341 0.0
O665 O 0.40599 0.65769 0.56739 0.0
O666 O 0.44297 0.6851 0.47865 0.0
C667 C 0.42554 0.69959 0.52595 0.0
O668 O 0.44492 0.5119 0.53385 0.0
O669 O 0.54807 0.53759 0.5381 0.0
C670 C 0.53033 0.62649 0.44509 0.0
C671 C 0.49136 0.50292 0.5175 0.0
Zn672 Zn 0.37312 0.82438 0.47427 0.0
Zn673 Zn 0.37803 0.95824 0.61417 0.0
Zn674 Zn 0.36143 0.8463 0.56934 0.0
C675 C 0.47487 0.9232 0.64668 0.0
C676 C 0.26952 0.85581 0.65166 0.0
O677 O 0.31656 0.87684 0.49837 0.0
O678 O 0.38748 0.90175 0.42754 0.0
C679 C 0.41668 0.75654 0.52688 0.0
O680 O 0.46071 0.89843 0.59532 0.0
O681 O 0.43874 0.94196 0.67057 0.0
O682 O 0.27761 0.90575 0.62469 0.0
O683 O 0.31247 0.83947 0.64778 0.0
O684 O 0.43846 0.79549 0.48405 0.0
O685 O 0.37801 0.76135 0.56341 0.0
O686 O 0.30327 0.74051 0.56739 0.0
O687 O 0.27586 0.75007 0.47865 0.0
C688 C 0.26138 0.71815 0.52594 0.0
O689 O 0.44908 0.92526 0.53385 0.0
O690 O 0.4234 0.00272 0.53812 0.0
C691 C 0.33449 0.89606 0.4451 0.0
C692 C 0.45807 0.98069 0.5175 0.0
Zn693 Zn 0.07088 0.34427 0.2318 0.0
Zn694 Zn 0.20015 0.47745 0.37061 0.0
Zn695 Zn 0.16608 0.45527 0.27606 0.0
C696 C 0.19414 0.58357 0.31858 0.0
C697 C 0.31153 0.54571 0.31776 0.0
O698 O 0.17607 0.37618 0.31093 0.0
O699 O 0.07324 0.29823 0.30707 0.0
C700 C 0.06164 0.44593 0.19617 0.0
O701 O 0.21376 0.56123 0.27717 0.0
O702 O 0.17665 0.55154 0.36585 0.0
O703 O 0.29452 0.50688 0.36066 0.0
O704 O 0.26782 0.54063 0.28135 0.0
O705 O 0.02058 0.39501 0.22255 0.0
O706 O 0.12129 0.46313 0.1994 0.0
O707 O 0.21281 0.40324 0.24877 0.0
O708 O 0.1471 0.36209 0.17342 0.0
C709 C 0.20201 0.37989 0.19688 0.0
O710 O 0.09101 0.42399 0.34707 0.0
O711 O 0.13777 0.39959 0.41753 0.0
C712 C 0.13015 0.3204 0.32735 0.0
C713 C 0.09016 0.40488 0.40026 0.0
Zn714 Zn 0.61669 0.71881 0.23177 0.0
Zn715 Zn 0.48352 0.71492 0.37059 0.0
Zn716 Zn 0.50571 0.70303 0.27603 0.0
C717 C 0.37739 0.60279 0.31858 0.0
C718 C 0.41527 0.75803 0.31775 0.0
O719 O 0.58482 0.79209 0.31093 0.0
O720 O 0.66274 0.76719 0.30704 0.0
C721 C 0.51502 0.60795 0.19608 0.0
O722 O 0.39974 0.64473 0.27716 0.0
O723 O 0.40942 0.61733 0.36585 0.0
O724 O 0.45411 0.77987 0.36065 0.0
O725 O 0.42035 0.71941 0.28134 0.0
O726 O 0.5659 0.61776 0.22248 0.0
O727 O 0.49784 0.65041 0.19934 0.0
O728 O 0.55775 0.80179 0.24878 0.0
O729 O 0.59888 0.77724 0.17341 0.0
C730 C 0.58109 0.81435 0.19688 0.0
O731 O 0.53695 0.65922 0.34704 0.0
O732 O 0.56136 0.73038 0.4175 0.0
C733 C 0.64058 0.80193 0.32734 0.0
C734 C 0.55606 0.67748 0.40024 0.0
Zn735 Zn 0.24607 0.76081 0.3706 0.0
Zn736 Zn 0.24218 0.89007 0.23178 0.0
Zn737 Zn 0.25797 0.79488 0.27605 0.0
C738 C 0.14666 0.75892 0.19688 0.0
C739 C 0.35307 0.8993 0.19614 0.0
O740 O 0.30177 0.86995 0.34706 0.0
O741 O 0.23059 0.82319 0.41751 0.0
C742 C 0.20295 0.64944 0.31777 0.0
O743 O 0.15921 0.74814 0.24878 0.0
O744 O 0.18378 0.81383 0.17341 0.0
O745 O 0.34323 0.94036 0.22252 0.0
O746 O 0.31061 0.83966 0.19937 0.0
O747 O 0.18112 0.66644 0.36067 0.0
O748 O 0.24158 0.69314 0.28135 0.0
O749 O 0.31625 0.74721 0.27716 0.0
O750 O 0.34366 0.78432 0.36584 0.0
C751 C 0.3582 0.76682 0.31858 0.0
O752 O 0.16889 0.78489 0.31093 0.0
O753 O 0.19378 0.88772 0.30704 0.0
C754 C 0.2835 0.8708 0.40025 0.0
C755 C 0.15904 0.83081 0.32733 0.0
loop_
_geom_bond_atom_site_label_1
_geom_bond_atom_site_label_2
_geom_bond_distance
_geom_bond_site_symmetry_2
_ccdc_geom_bond_type
Zn0 O6 1.924 . S
Zn0 O12 1.898 1_554 S
Zn0 O15 1.904 1_554 S
Zn1 O9 1.905 . S
Zn1 O10 1.898 1_545 S
Zn1 O18 1.920 . S
Zn2 O5 2.080 . S
Zn2 O8 2.114 . S
Zn2 O11 2.120 . S
Zn2 O13 2.120 . S
Zn2 O14 2.114 . S
Zn2 O17 2.080 . S
C3 O8 1.166 . S
C3 O9 1.182 . S
C4 O10 1.167 . S
C4 O11 1.299 1_565 S
O5 Zn2 2.080 . S
O5 C19 1.305 . S
O6 Zn0 1.924 . S
O6 C19 1.234 . S
C7 O12 1.167 1_554 S
C7 O13 1.299 . S
O8 Zn2 2.114 . S
O8 C3 1.166 . S
O9 Zn1 1.905 . S
O9 C3 1.182 . S
O10 Zn1 1.898 1_565 S
O10 C4 1.167 . S
O11 Zn2 2.120 . S
O11 C4 1.299 1_545 S
O12 Zn0 1.898 1_556 S
O12 C7 1.167 1_556 S
O13 Zn2 2.120 . S
O13 C7 1.299 . S
O14 Zn2 2.114 . S
O14 C16 1.166 1_554 S
O15 Zn0 1.904 1_556 S
O15 C16 1.182 . S
C16 O14 1.166 1_556 S
C16 O15 1.182 . S
O17 Zn2 2.080 . S
O17 C20 1.305 . S
O18 Zn1 1.920 . S
O18 C20 1.234 . S
C19 O5 1.305 . S
C19 O6 1.234 . S
C20 O17 1.305 . S
C20 O18 1.234 . S
Zn21 O27 1.920 1_565 S
Zn21 O33 1.898 1_665 S
Zn21 O36 1.905 . S
Zn22 O30 1.903 1_554 S
Zn22 O31 1.897 1_554 S
Zn22 O39 1.924 . S
Zn23 O26 2.080 . S
Zn23 O29 2.114 . S
Zn23 O32 2.120 1_545 S
Zn23 O34 2.120 . S
Zn23 O35 2.114 1_545 S
Zn23 O38 2.080 . S
C24 O29 1.166 1_556 S
C24 O30 1.182 . S
C25 O31 1.167 1_564 S
C25 O32 1.299 . S
O26 Zn23 2.080 . S
O26 C40 1.305 . S
O27 Zn21 1.920 1_545 S
O27 C40 1.234 . S
C28 O33 1.167 . S
C28 O34 1.299 1_455 S
O29 Zn23 2.114 . S
O29 C24 1.166 1_554 S
O30 Zn22 1.903 1_556 S
O30 C24 1.182 . S
O31 Zn22 1.897 1_556 S
O31 C25 1.167 1_546 S
O32 Zn23 2.120 1_565 S
O32 C25 1.299 . S
O33 Zn21 1.898 1_445 S
O33 C28 1.167 . S
O34 Zn23 2.120 . S
O34 C28 1.299 1_655 S
O35 Zn23 2.114 1_565 S
O35 C37 1.166 . S
O36 Zn21 1.905 . S
O36 C37 1.182 . S
C37 O35 1.166 . S
C37 O36 1.182 . S
O38 Zn23 2.080 . S
O38 C41 1.305 . S
O39 Zn22 1.924 . S
O39 C41 1.234 . S
C40 O26 1.305 . S
C40 O27 1.234 . S
C41 O38 1.305 . S
C41 O39 1.234 . S
Zn42 O48 1.923 . S
Zn42 O54 1.898 1_554 S
Zn42 O57 1.904 1_554 S
Zn43 O51 1.905 . S
Zn43 O52 1.898 1_455 S
Zn43 O60 1.920 1_455 S
Zn44 O47 2.080 . S
Zn44 O50 2.114 1_655 S
Zn44 O53 2.120 . S
Zn44 O55 2.120 1_655 S
Zn44 O56 2.114 . S
Zn44 O59 2.080 . S
C45 O50 1.166 . S
C45 O51 1.182 . S
C46 O52 1.167 . S
C46 O53 1.299 . S
O47 Zn44 2.080 . S
O47 C61 1.305 . S
O48 Zn42 1.923 . S
O48 C61 1.234 . S
C49 O54 1.167 1_454 S
C49 O55 1.299 . S
O50 Zn44 2.114 1_455 S
O50 C45 1.166 . S
O51 Zn43 1.905 . S
O51 C45 1.182 . S
O52 Zn43 1.898 1_655 S
O52 C46 1.167 . S
O53 Zn44 2.120 . S
O53 C46 1.299 . S
O54 Zn42 1.898 1_556 S
O54 C49 1.167 1_656 S
O55 Zn44 2.120 1_455 S
O55 C49 1.299 . S
O56 Zn44 2.114 . S
O56 C58 1.166 1_554 S
O57 Zn42 1.904 1_556 S
O57 C58 1.182 . S
C58 O56 1.166 1_556 S
C58 O57 1.182 . S
O59 Zn44 2.080 . S
O59 C62 1.305 . S
O60 Zn43 1.920 1_655 S
O60 C62 1.234 . S
C61 O47 1.305 . S
C61 O48 1.234 . S
C62 O59 1.305 . S
C62 O60 1.234 . S
Zn63 O69 1.920 . S
Zn63 O75 1.898 . S
Zn63 O78 1.905 . S
Zn64 O72 1.905 . S
Zn64 O73 1.898 1_455 S
Zn64 O81 1.920 . S
Zn65 O68 2.080 . S
Zn65 O71 2.114 . S
Zn65 O74 2.120 . S
Zn65 O76 2.120 . S
Zn65 O77 2.114 . S
Zn65 O80 2.080 . S
C66 O71 1.166 . S
C66 O72 1.182 . S
C67 O73 1.167 . S
C67 O74 1.299 1_655 S
O68 Zn65 2.080 . S
O68 C82 1.305 . S
O69 Zn63 1.920 . S
O69 C82 1.234 . S
C70 O75 1.167 . S
C70 O76 1.299 . S
O71 Zn65 2.114 . S
O71 C66 1.166 . S
O72 Zn64 1.905 . S
O72 C66 1.182 . S
O73 Zn64 1.898 1_655 S
O73 C67 1.167 . S
O74 Zn65 2.120 . S
O74 C67 1.299 1_455 S
O75 Zn63 1.898 . S
O75 C70 1.167 . S
O76 Zn65 2.120 . S
O76 C70 1.299 . S
O77 Zn65 2.114 . S
O77 C79 1.166 . S
O78 Zn63 1.905 . S
O78 C79 1.182 . S
C79 O77 1.166 . S
C79 O78 1.182 . S
O80 Zn65 2.080 . S
O80 C83 1.305 . S
O81 Zn64 1.920 . S
O81 C83 1.234 . S
C82 O68 1.305 . S
C82 O69 1.234 . S
C83 O80 1.305 . S
C83 O81 1.234 . S
Zn84 O90 1.920 . S
Zn84 O96 1.898 . S
Zn84 O99 1.905 . S
Zn85 O93 1.905 . S
Zn85 O94 1.898 1_545 S
Zn85 O102 1.920 1_545 S
Zn86 O89 2.080 . S
Zn86 O92 2.114 1_565 S
Zn86 O95 2.120 . S
Zn86 O97 2.120 1_565 S
Zn86 O98 2.114 . S
Zn86 O101 2.080 . S
C87 O92 1.166 . S
C87 O93 1.182 . S
C88 O94 1.167 . S
C88 O95 1.299 . S
O89 Zn86 2.080 . S
O89 C103 1.305 . S
O90 Zn84 1.920 . S
O90 C103 1.234 . S
C91 O96 1.167 1_545 S
C91 O97 1.299 . S
O92 Zn86 2.114 1_545 S
O92 C87 1.166 . S
O93 Zn85 1.905 . S
O93 C87 1.182 . S
O94 Zn85 1.898 1_565 S
O94 C88 1.167 . S
O95 Zn86 2.120 . S
O95 C88 1.299 . S
O96 Zn84 1.898 . S
O96 C91 1.167 1_565 S
O97 Zn86 2.120 1_545 S
O97 C91 1.299 . S
O98 Zn86 2.114 . S
O98 C100 1.166 . S
O99 Zn84 1.905 . S
O99 C100 1.182 . S
C100 O98 1.166 . S
C100 O99 1.182 . S
O101 Zn86 2.080 . S
O101 C104 1.305 . S
O102 Zn85 1.920 1_565 S
O102 C104 1.234 . S
C103 O89 1.305 . S
C103 O90 1.234 . S
C104 O101 1.305 . S
C104 O102 1.234 . S
Zn105 O111 1.920 . S
Zn105 O117 1.898 . S
Zn105 O120 1.905 . S
Zn106 O114 1.905 . S
Zn106 O115 1.898 1_665 S
Zn106 O123 1.920 1_655 S
Zn107 O110 2.080 . S
Zn107 O113 2.114 1_455 S
Zn107 O116 2.120 . S
Zn107 O118 2.120 1_455 S
Zn107 O119 2.114 . S
Zn107 O122 2.080 . S
C108 O113 1.166 . S
C108 O114 1.182 . S
C109 O115 1.167 . S
C109 O116 1.299 1_545 S
O110 Zn107 2.080 . S
O110 C124 1.305 . S
O111 Zn105 1.920 . S
O111 C124 1.234 . S
C112 O117 1.167 1_655 S
C112 O118 1.299 . S
O113 Zn107 2.114 1_655 S
O113 C108 1.166 . S
O114 Zn106 1.905 . S
O114 C108 1.182 . S
O115 Zn106 1.898 1_445 S
O115 C109 1.167 . S
O116 Zn107 2.120 . S
O116 C109 1.299 1_565 S
O117 Zn105 1.898 . S
O117 C112 1.167 1_455 S
O118 Zn107 2.120 1_655 S
O118 C112 1.299 . S
O119 Zn107 2.114 . S
O119 C121 1.166 . S
O120 Zn105 1.905 . S
O120 C121 1.182 . S
C121 O119 1.166 . S
C121 O120 1.182 . S
O122 Zn107 2.080 . S
O122 C125 1.305 . S
O123 Zn106 1.920 1_455 S
O123 C125 1.234 . S
C124 O110 1.305 . S
C124 O111 1.234 . S
C125 O122 1.305 . S
C125 O123 1.234 . S
Zn126 O132 1.920 . S
Zn126 O138 1.898 1_565 S
Zn126 O141 1.905 . S
Zn127 O135 1.904 1_556 S
Zn127 O136 1.898 1_556 S
Zn127 O144 1.924 . S
Zn128 O131 2.080 . S
Zn128 O134 2.114 . S
Zn128 O137 2.120 . S
Zn128 O139 2.120 . S
Zn128 O140 2.114 . S
Zn128 O143 2.080 . S
C129 O134 1.166 1_554 S
C129 O135 1.182 . S
C130 O136 1.167 1_556 S
C130 O137 1.299 . S
O131 Zn128 2.080 . S
O131 C145 1.305 . S
O132 Zn126 1.920 . S
O132 C145 1.234 . S
C133 O138 1.167 . S
C133 O139 1.299 1_545 S
O134 Zn128 2.114 . S
O134 C129 1.166 1_556 S
O135 Zn127 1.904 1_554 S
O135 C129 1.182 . S
O136 Zn127 1.898 1_554 S
O136 C130 1.167 1_554 S
O137 Zn128 2.120 . S
O137 C130 1.299 . S
O138 Zn126 1.898 1_545 S
O138 C133 1.167 . S
O139 Zn128 2.120 . S
O139 C133 1.299 1_565 S
O140 Zn128 2.114 . S
O140 C142 1.166 . S
O141 Zn126 1.905 . S
O141 C142 1.182 . S
C142 O140 1.166 . S
C142 O141 1.182 . S
O143 Zn128 2.080 . S
O143 C146 1.305 . S
O144 Zn127 1.924 . S
O144 C146 1.234 . S
C145 O131 1.305 . S
C145 O132 1.234 . S
C146 O143 1.305 . S
C146 O144 1.234 . S
Zn147 O153 1.920 1_545 S
Zn147 O159 1.898 1_445 S
Zn147 O162 1.905 . S
Zn148 O156 1.903 1_556 S
Zn148 O157 1.897 1_556 S
Zn148 O165 1.924 . S
Zn149 O152 2.080 . S
Zn149 O155 2.114 . S
Zn149 O158 2.120 1_565 S
Zn149 O160 2.120 . S
Zn149 O161 2.114 1_565 S
Zn149 O164 2.080 . S
C150 O155 1.166 1_554 S
C150 O156 1.182 . S
C151 O157 1.167 1_546 S
C151 O158 1.299 . S
O152 Zn149 2.080 . S
O152 C166 1.305 . S
O153 Zn147 1.920 1_565 S
O153 C166 1.234 . S
C154 O159 1.167 . S
C154 O160 1.299 1_655 S
O155 Zn149 2.114 . S
O155 C150 1.166 1_556 S
O156 Zn148 1.903 1_554 S
O156 C150 1.182 . S
O157 Zn148 1.897 1_554 S
O157 C151 1.167 1_564 S
O158 Zn149 2.120 1_545 S
O158 C151 1.299 . S
O159 Zn147 1.898 1_665 S
O159 C154 1.167 . S
O160 Zn149 2.120 . S
O160 C154 1.299 1_455 S
O161 Zn149 2.114 1_545 S
O161 C163 1.166 . S
O162 Zn147 1.905 . S
O162 C163 1.182 . S
C163 O161 1.166 . S
C163 O162 1.182 . S
O164 Zn149 2.080 . S
O164 C167 1.305 . S
O165 Zn148 1.924 . S
O165 C167 1.234 . S
C166 O152 1.305 . S
C166 O153 1.234 . S
C167 O164 1.305 . S
C167 O165 1.234 . S
Zn168 O174 1.920 1_655 S
Zn168 O180 1.898 1_655 S
Zn168 O183 1.905 . S
Zn169 O177 1.904 1_556 S
Zn169 O178 1.898 1_556 S
Zn169 O186 1.923 . S
Zn170 O173 2.080 . S
Zn170 O176 2.114 . S
Zn170 O179 2.120 1_455 S
Zn170 O181 2.120 . S
Zn170 O182 2.114 1_455 S
Zn170 O185 2.080 . S
C171 O176 1.166 1_554 S
C171 O177 1.182 . S
C172 O178 1.167 1_656 S
C172 O179 1.299 . S
O173 Zn170 2.080 . S
O173 C187 1.305 . S
O174 Zn168 1.920 1_455 S
O174 C187 1.234 . S
C175 O180 1.167 . S
C175 O181 1.299 . S
O176 Zn170 2.114 . S
O176 C171 1.166 1_556 S
O177 Zn169 1.904 1_554 S
O177 C171 1.182 . S
O178 Zn169 1.898 1_554 S
O178 C172 1.167 1_454 S
O179 Zn170 2.120 1_655 S
O179 C172 1.299 . S
O180 Zn168 1.898 1_455 S
O180 C175 1.167 . S
O181 Zn170 2.120 . S
O181 C175 1.299 . S
O182 Zn170 2.114 1_655 S
O182 C184 1.166 . S
O183 Zn168 1.905 . S
O183 C184 1.182 . S
C184 O182 1.166 . S
C184 O183 1.182 . S
O185 Zn170 2.080 . S
O185 C188 1.305 . S
O186 Zn169 1.923 . S
O186 C188 1.234 . S
C187 O173 1.305 . S
C187 O174 1.234 . S
C188 O185 1.305 . S
C188 O186 1.234 . S
Zn189 O195 1.920 . S
Zn189 O201 1.898 1_655 S
Zn189 O204 1.905 . S
Zn190 O198 1.905 . S
Zn190 O199 1.898 . S
Zn190 O207 1.920 . S
Zn191 O194 2.080 . S
Zn191 O197 2.114 . S
Zn191 O200 2.120 . S
Zn191 O202 2.120 . S
Zn191 O203 2.114 . S
Zn191 O206 2.080 . S
C192 O197 1.166 . S
C192 O198 1.182 . S
C193 O199 1.167 . S
C193 O200 1.299 . S
O194 Zn191 2.080 . S
O194 C208 1.305 . S
O195 Zn189 1.920 . S
O195 C208 1.234 . S
C196 O201 1.167 . S
C196 O202 1.299 1_455 S
O197 Zn191 2.114 . S
O197 C192 1.166 . S
O198 Zn190 1.905 . S
O198 C192 1.182 . S
O199 Zn190 1.898 . S
O199 C193 1.167 . S
O200 Zn191 2.120 . S
O200 C193 1.299 . S
O201 Zn189 1.898 1_455 S
O201 C196 1.167 . S
O202 Zn191 2.120 . S
O202 C196 1.299 1_655 S
O203 Zn191 2.114 . S
O203 C205 1.166 . S
O204 Zn189 1.905 . S
O204 C205 1.182 . S
C205 O203 1.166 . S
C205 O204 1.182 . S
O206 Zn191 2.080 . S
O206 C209 1.305 . S
O207 Zn190 1.920 . S
O207 C209 1.234 . S
C208 O194 1.305 . S
C208 O195 1.234 . S
C209 O206 1.305 . S
C209 O207 1.234 . S
Zn210 O216 1.920 . S
Zn210 O222 1.898 . S
Zn210 O225 1.905 . S
Zn211 O219 1.905 . S
Zn211 O220 1.898 1_565 S
Zn211 O228 1.920 1_565 S
Zn212 O215 2.080 . S
Zn212 O218 2.114 1_545 S
Zn212 O221 2.120 . S
Zn212 O223 2.120 1_545 S
Zn212 O224 2.114 . S
Zn212 O227 2.080 . S
C213 O218 1.166 . S
C213 O219 1.182 . S
C214 O220 1.167 . S
C214 O221 1.299 . S
O215 Zn212 2.080 . S
O215 C229 1.305 . S
O216 Zn210 1.920 . S
O216 C229 1.234 . S
C217 O222 1.167 1_565 S
C217 O223 1.299 . S
O218 Zn212 2.114 1_565 S
O218 C213 1.166 . S
O219 Zn211 1.905 . S
O219 C213 1.182 . S
O220 Zn211 1.898 1_545 S
O220 C214 1.167 . S
O221 Zn212 2.120 . S
O221 C214 1.299 . S
O222 Zn210 1.898 . S
O222 C217 1.167 1_545 S
O223 Zn212 2.120 1_565 S
O223 C217 1.299 . S
O224 Zn212 2.114 . S
O224 C226 1.166 . S
O225 Zn210 1.905 . S
O225 C226 1.182 . S
C226 O224 1.166 . S
C226 O225 1.182 . S
O227 Zn212 2.080 . S
O227 C230 1.305 . S
O228 Zn211 1.920 1_545 S
O228 C230 1.234 . S
C229 O215 1.305 . S
C229 O216 1.234 . S
C230 O227 1.305 . S
C230 O228 1.234 . S
Zn231 O237 1.920 . S
Zn231 O243 1.898 . S
Zn231 O246 1.905 . S
Zn232 O240 1.905 . S
Zn232 O241 1.898 1_445 S
Zn232 O249 1.920 1_455 S
Zn233 O236 2.080 . S
Zn233 O239 2.114 1_655 S
Zn233 O242 2.120 . S
Zn233 O244 2.120 1_655 S
Zn233 O245 2.114 . S
Zn233 O248 2.080 . S
C234 O239 1.166 . S
C234 O240 1.182 . S
C235 O241 1.167 . S
C235 O242 1.299 1_565 S
O236 Zn233 2.080 . S
O236 C250 1.305 . S
O237 Zn231 1.920 . S
O237 C250 1.234 . S
C238 O243 1.167 1_455 S
C238 O244 1.299 . S
O239 Zn233 2.114 1_455 S
O239 C234 1.166 . S
O240 Zn232 1.905 . S
O240 C234 1.182 . S
O241 Zn232 1.898 1_665 S
O241 C235 1.167 . S
O242 Zn233 2.120 . S
O242 C235 1.299 1_545 S
O243 Zn231 1.898 . S
O243 C238 1.167 1_655 S
O244 Zn233 2.120 1_455 S
O244 C238 1.299 . S
O245 Zn233 2.114 . S
O245 C247 1.166 . S
O246 Zn231 1.905 . S
O246 C247 1.182 . S
C247 O245 1.166 . S
C247 O246 1.182 . S
O248 Zn233 2.080 . S
O248 C251 1.305 . S
O249 Zn232 1.920 1_655 S
O249 C251 1.234 . S
C250 O236 1.305 . S
C250 O237 1.234 . S
C251 O248 1.305 . S
C251 O249 1.234 . S
Zn252 O258 1.920 . S
Zn252 O264 1.898 . S
Zn252 O267 1.905 . S
Zn253 O261 1.905 . S
Zn253 O262 1.898 . S
Zn253 O270 1.920 1_655 S
Zn254 O257 2.080 . S
Zn254 O260 2.114 . S
Zn254 O263 2.120 . S
Zn254 O265 2.120 . S
Zn254 O266 2.114 . S
Zn254 O269 2.080 . S
C255 O260 1.166 . S
C255 O261 1.182 . S
C256 O262 1.167 . S
C256 O263 1.299 . S
O257 Zn254 2.080 . S
O257 C271 1.305 . S
O258 Zn252 1.920 . S
O258 C271 1.234 . S
C259 O264 1.167 . S
C259 O265 1.299 . S
O260 Zn254 2.114 . S
O260 C255 1.166 . S
O261 Zn253 1.905 . S
O261 C255 1.182 . S
O262 Zn253 1.898 . S
O262 C256 1.167 . S
O263 Zn254 2.120 . S
O263 C256 1.299 . S
O264 Zn252 1.898 . S
O264 C259 1.167 . S
O265 Zn254 2.120 . S
O265 C259 1.299 . S
O266 Zn254 2.114 . S
O266 C268 1.166 . S
O267 Zn252 1.905 . S
O267 C268 1.182 . S
C268 O266 1.166 . S
C268 O267 1.182 . S
O269 Zn254 2.080 . S
O269 C272 1.305 1_655 S
O270 Zn253 1.920 1_455 S
O270 C272 1.234 . S
C271 O257 1.305 . S
C271 O258 1.234 . S
C272 O269 1.305 1_455 S
C272 O270 1.234 . S
Zn273 O279 1.920 . S
Zn273 O285 1.898 . S
Zn273 O288 1.905 . S
Zn274 O282 1.905 . S
Zn274 O283 1.898 . S
Zn274 O291 1.920 . S
Zn275 O278 2.080 . S
Zn275 O281 2.114 . S
Zn275 O284 2.120 . S
Zn275 O286 2.120 . S
Zn275 O287 2.114 . S
Zn275 O290 2.080 . S
C276 O281 1.166 . S
C276 O282 1.182 . S
C277 O283 1.167 . S
C277 O284 1.299 . S
O278 Zn275 2.080 . S
O278 C292 1.305 . S
O279 Zn273 1.920 . S
O279 C292 1.234 . S
C280 O285 1.167 . S
C280 O286 1.299 . S
O281 Zn275 2.114 . S
O281 C276 1.166 . S
O282 Zn274 1.905 . S
O282 C276 1.182 . S
O283 Zn274 1.898 . S
O283 C277 1.167 . S
O284 Zn275 2.120 . S
O284 C277 1.299 . S
O285 Zn273 1.898 . S
O285 C280 1.167 . S
O286 Zn275 2.120 . S
O286 C280 1.299 . S
O287 Zn275 2.114 . S
O287 C289 1.166 . S
O288 Zn273 1.905 . S
O288 C289 1.182 . S
C289 O287 1.166 . S
C289 O288 1.182 . S
O290 Zn275 2.080 . S
O290 C293 1.305 . S
O291 Zn274 1.920 . S
O291 C293 1.234 . S
C292 O278 1.305 . S
C292 O279 1.234 . S
C293 O290 1.305 . S
C293 O291 1.234 . S
Zn294 O300 1.920 . S
Zn294 O306 1.898 . S
Zn294 O309 1.905 . S
Zn295 O303 1.905 . S
Zn295 O304 1.898 . S
Zn295 O312 1.920 1_545 S
Zn296 O299 2.080 . S
Zn296 O302 2.114 . S
Zn296 O305 2.120 . S
Zn296 O307 2.120 . S
Zn296 O308 2.114 . S
Zn296 O311 2.080 . S
C297 O302 1.166 . S
C297 O303 1.182 . S
C298 O304 1.167 . S
C298 O305 1.299 . S
O299 Zn296 2.080 . S
O299 C313 1.305 . S
O300 Zn294 1.920 . S
O300 C313 1.234 . S
C301 O306 1.167 . S
C301 O307 1.299 . S
O302 Zn296 2.114 . S
O302 C297 1.166 . S
O303 Zn295 1.905 . S
O303 C297 1.182 . S
O304 Zn295 1.898 . S
O304 C298 1.167 . S
O305 Zn296 2.120 . S
O305 C298 1.299 . S
O306 Zn294 1.898 . S
O306 C301 1.167 . S
O307 Zn296 2.120 . S
O307 C301 1.299 . S
O308 Zn296 2.114 . S
O308 C310 1.166 . S
O309 Zn294 1.905 . S
O309 C310 1.182 . S
C310 O308 1.166 . S
C310 O309 1.182 . S
O311 Zn296 2.080 . S
O311 C314 1.305 1_545 S
O312 Zn295 1.920 1_565 S
O312 C314 1.234 . S
C313 O299 1.305 . S
C313 O300 1.234 . S
C314 O311 1.305 1_565 S
C314 O312 1.234 . S
Zn315 O321 1.920 . S
Zn315 O327 1.898 . S
Zn315 O330 1.905 . S
Zn316 O324 1.905 . S
Zn316 O325 1.898 . S
Zn316 O333 1.920 . S
Zn317 O320 2.080 . S
Zn317 O323 2.114 . S
Zn317 O326 2.120 . S
Zn317 O328 2.120 . S
Zn317 O329 2.114 . S
Zn317 O332 2.080 . S
C318 O323 1.166 . S
C318 O324 1.182 . S
C319 O325 1.167 . S
C319 O326 1.299 . S
O320 Zn317 2.080 . S
O320 C334 1.305 . S
O321 Zn315 1.920 . S
O321 C334 1.234 . S
C322 O327 1.167 . S
C322 O328 1.299 . S
O323 Zn317 2.114 . S
O323 C318 1.166 . S
O324 Zn316 1.905 . S
O324 C318 1.182 . S
O325 Zn316 1.898 . S
O325 C319 1.167 . S
O326 Zn317 2.120 . S
O326 C319 1.299 . S
O327 Zn315 1.898 . S
O327 C322 1.167 . S
O328 Zn317 2.120 . S
O328 C322 1.299 . S
O329 Zn317 2.114 . S
O329 C331 1.166 . S
O330 Zn315 1.905 . S
O330 C331 1.182 . S
C331 O329 1.166 . S
C331 O330 1.182 . S
O332 Zn317 2.080 . S
O332 C335 1.305 . S
O333 Zn316 1.920 . S
O333 C335 1.234 . S
C334 O320 1.305 . S
C334 O321 1.234 . S
C335 O332 1.305 . S
C335 O333 1.234 . S
Zn336 O342 1.920 . S
Zn336 O348 1.898 . S
Zn336 O351 1.905 . S
Zn337 O345 1.905 . S
Zn337 O346 1.898 . S
Zn337 O354 1.920 . S
Zn338 O341 2.080 . S
Zn338 O344 2.114 . S
Zn338 O347 2.120 . S
Zn338 O349 2.120 . S
Zn338 O350 2.114 . S
Zn338 O353 2.080 . S
C339 O344 1.166 . S
C339 O345 1.182 . S
C340 O346 1.167 . S
C340 O347 1.299 . S
O341 Zn338 2.080 . S
O341 C355 1.305 . S
O342 Zn336 1.920 . S
O342 C355 1.234 . S
C343 O348 1.167 . S
C343 O349 1.299 . S
O344 Zn338 2.114 . S
O344 C339 1.166 . S
O345 Zn337 1.905 . S
O345 C339 1.182 . S
O346 Zn337 1.898 . S
O346 C340 1.167 . S
O347 Zn338 2.120 . S
O347 C340 1.299 . S
O348 Zn336 1.898 . S
O348 C343 1.167 . S
O349 Zn338 2.120 . S
O349 C343 1.299 . S
O350 Zn338 2.114 . S
O350 C352 1.166 . S
O351 Zn336 1.905 . S
O351 C352 1.182 . S
C352 O350 1.166 . S
C352 O351 1.182 . S
O353 Zn338 2.080 . S
O353 C356 1.305 . S
O354 Zn337 1.920 . S
O354 C356 1.234 . S
C355 O341 1.305 . S
C355 O342 1.234 . S
C356 O353 1.305 . S
C356 O354 1.234 . S
Zn357 O363 1.920 . S
Zn357 O369 1.898 . S
Zn357 O372 1.905 . S
Zn358 O366 1.905 . S
Zn358 O367 1.898 . S
Zn358 O375 1.920 . S
Zn359 O362 2.080 . S
Zn359 O365 2.114 . S
Zn359 O368 2.120 . S
Zn359 O370 2.120 . S
Zn359 O371 2.114 . S
Zn359 O374 2.080 . S
C360 O365 1.166 . S
C360 O366 1.182 . S
C361 O367 1.167 . S
C361 O368 1.299 . S
O362 Zn359 2.080 . S
O362 C376 1.305 . S
O363 Zn357 1.920 . S
O363 C376 1.234 . S
C364 O369 1.167 . S
C364 O370 1.299 . S
O365 Zn359 2.114 . S
O365 C360 1.166 . S
O366 Zn358 1.905 . S
O366 C360 1.182 . S
O367 Zn358 1.898 . S
O367 C361 1.167 . S
O368 Zn359 2.120 . S
O368 C361 1.299 . S
O369 Zn357 1.898 . S
O369 C364 1.167 . S
O370 Zn359 2.120 . S
O370 C364 1.299 . S
O371 Zn359 2.114 . S
O371 C373 1.166 . S
O372 Zn357 1.905 . S
O372 C373 1.182 . S
C373 O371 1.166 . S
C373 O372 1.182 . S
O374 Zn359 2.080 . S
O374 C377 1.305 . S
O375 Zn358 1.920 . S
O375 C377 1.234 . S
C376 O362 1.305 . S
C376 O363 1.234 . S
C377 O374 1.305 . S
C377 O375 1.234 . S
Zn378 O384 1.920 . S
Zn378 O390 1.898 . S
Zn378 O393 1.905 . S
Zn379 O387 1.905 . S
Zn379 O388 1.898 . S
Zn379 O396 1.920 . S
Zn380 O383 2.080 . S
Zn380 O386 2.114 . S
Zn380 O389 2.120 . S
Zn380 O391 2.120 . S
Zn380 O392 2.114 . S
Zn380 O395 2.080 . S
C381 O386 1.166 . S
C381 O387 1.182 . S
C382 O388 1.167 . S
C382 O389 1.299 . S
O383 Zn380 2.080 . S
O383 C397 1.305 . S
O384 Zn378 1.920 . S
O384 C397 1.234 . S
C385 O390 1.167 . S
C385 O391 1.299 . S
O386 Zn380 2.114 . S
O386 C381 1.166 . S
O387 Zn379 1.905 . S
O387 C381 1.182 . S
O388 Zn379 1.898 . S
O388 C382 1.167 . S
O389 Zn380 2.120 . S
O389 C382 1.299 . S
O390 Zn378 1.898 . S
O390 C385 1.167 . S
O391 Zn380 2.120 . S
O391 C385 1.299 . S
O392 Zn380 2.114 . S
O392 C394 1.166 . S
O393 Zn378 1.905 . S
O393 C394 1.182 . S
C394 O392 1.166 . S
C394 O393 1.182 . S
O395 Zn380 2.080 . S
O395 C398 1.305 . S
O396 Zn379 1.920 . S
O396 C398 1.234 . S
C397 O383 1.305 . S
C397 O384 1.234 . S
C398 O395 1.305 . S
C398 O396 1.234 . S
Zn399 O405 1.920 . S
Zn399 O411 1.898 . S
Zn399 O414 1.905 . S
Zn400 O408 1.905 . S
Zn400 O409 1.898 . S
Zn400 O417 1.920 . S
Zn401 O404 2.080 . S
Zn401 O407 2.114 . S
Zn401 O410 2.120 . S
Zn401 O412 2.120 . S
Zn401 O413 2.114 . S
Zn401 O416 2.080 . S
C402 O407 1.166 . S
C402 O408 1.182 . S
C403 O409 1.167 . S
C403 O410 1.299 . S
O404 Zn401 2.080 . S
O404 C418 1.305 . S
O405 Zn399 1.920 . S
O405 C418 1.234 . S
C406 O411 1.167 . S
C406 O412 1.299 . S
O407 Zn401 2.114 . S
O407 C402 1.166 . S
O408 Zn400 1.905 . S
O408 C402 1.182 . S
O409 Zn400 1.898 . S
O409 C403 1.167 . S
O410 Zn401 2.120 . S
O410 C403 1.299 . S
O411 Zn399 1.898 . S
O411 C406 1.167 . S
O412 Zn401 2.120 . S
O412 C406 1.299 . S
O413 Zn401 2.114 . S
O413 C415 1.166 . S
O414 Zn399 1.905 . S
O414 C415 1.182 . S
C415 O413 1.166 . S
C415 O414 1.182 . S
O416 Zn401 2.080 . S
O416 C419 1.305 . S
O417 Zn400 1.920 . S
O417 C419 1.234 . S
C418 O404 1.305 . S
C418 O405 1.234 . S
C419 O416 1.305 . S
C419 O417 1.234 . S
Zn420 O426 1.920 . S
Zn420 O432 1.898 . S
Zn420 O435 1.905 . S
Zn421 O429 1.905 . S
Zn421 O430 1.898 . S
Zn421 O438 1.920 . S
Zn422 O425 2.080 . S
Zn422 O428 2.114 . S
Zn422 O431 2.120 . S
Zn422 O433 2.120 . S
Zn422 O434 2.114 . S
Zn422 O437 2.080 . S
C423 O428 1.166 . S
C423 O429 1.182 . S
C424 O430 1.167 . S
C424 O431 1.299 . S
O425 Zn422 2.080 . S
O425 C439 1.305 . S
O426 Zn420 1.920 . S
O426 C439 1.234 . S
C427 O432 1.167 . S
C427 O433 1.299 . S
O428 Zn422 2.114 . S
O428 C423 1.166 . S
O429 Zn421 1.905 . S
O429 C423 1.182 . S
O430 Zn421 1.898 . S
O430 C424 1.167 . S
O431 Zn422 2.120 . S
O431 C424 1.299 . S
O432 Zn420 1.898 . S
O432 C427 1.167 . S
O433 Zn422 2.120 . S
O433 C427 1.299 . S
O434 Zn422 2.114 . S
O434 C436 1.166 . S
O435 Zn420 1.905 . S
O435 C436 1.182 . S
C436 O434 1.166 . S
C436 O435 1.182 . S
O437 Zn422 2.080 . S
O437 C440 1.305 . S
O438 Zn421 1.920 . S
O438 C440 1.234 . S
C439 O425 1.305 . S
C439 O426 1.234 . S
C440 O437 1.305 . S
C440 O438 1.234 . S
Zn441 O447 1.920 1_545 S
Zn441 O453 1.898 . S
Zn441 O456 1.905 . S
Zn442 O450 1.905 1_554 S
Zn442 O451 1.898 . S
Zn442 O459 1.920 . S
Zn443 O446 2.080 . S
Zn443 O449 2.114 . S
Zn443 O452 2.120 . S
Zn443 O454 2.120 . S
Zn443 O455 2.114 . S
Zn443 O458 2.080 1_556 S
C444 O449 1.166 . S
C444 O450 1.182 . S
C445 O451 1.167 1_556 S
C445 O452 1.299 . S
O446 Zn443 2.080 . S
O446 C460 1.305 1_545 S
O447 Zn441 1.920 1_565 S
O447 C460 1.234 . S
C448 O453 1.167 . S
C448 O454 1.299 . S
O449 Zn443 2.114 . S
O449 C444 1.166 . S
O450 Zn442 1.905 1_556 S
O450 C444 1.182 . S
O451 Zn442 1.898 . S
O451 C445 1.167 1_554 S
O452 Zn443 2.120 . S
O452 C445 1.299 . S
O453 Zn441 1.898 . S
O453 C448 1.167 . S
O454 Zn443 2.120 . S
O454 C448 1.299 . S
O455 Zn443 2.114 . S
O455 C457 1.166 . S
O456 Zn441 1.905 . S
O456 C457 1.182 . S
C457 O455 1.166 . S
C457 O456 1.182 . S
O458 Zn443 2.080 1_554 S
O458 C461 1.305 . S
O459 Zn442 1.920 . S
O459 C461 1.234 . S
C460 O446 1.305 1_565 S
C460 O447 1.234 . S
C461 O458 1.305 . S
C461 O459 1.234 . S
Zn462 O468 1.920 1_655 S
Zn462 O474 1.898 . S
Zn462 O477 1.905 . S
Zn463 O471 1.905 1_554 S
Zn463 O472 1.898 . S
Zn463 O480 1.920 . S
Zn464 O467 2.080 . S
Zn464 O470 2.114 . S
Zn464 O473 2.120 . S
Zn464 O475 2.120 . S
Zn464 O476 2.114 . S
Zn464 O479 2.080 1_556 S
C465 O470 1.166 . S
C465 O471 1.182 . S
C466 O472 1.167 1_556 S
C466 O473 1.299 . S
O467 Zn464 2.080 . S
O467 C481 1.305 1_655 S
O468 Zn462 1.920 1_455 S
O468 C481 1.234 . S
C469 O474 1.167 . S
C469 O475 1.299 . S
O470 Zn464 2.114 . S
O470 C465 1.166 . S
O471 Zn463 1.905 1_556 S
O471 C465 1.182 . S
O472 Zn463 1.898 . S
O472 C466 1.167 1_554 S
O473 Zn464 2.120 . S
O473 C466 1.299 . S
O474 Zn462 1.898 . S
O474 C469 1.167 . S
O475 Zn464 2.120 . S
O475 C469 1.299 . S
O476 Zn464 2.114 . S
O476 C478 1.166 . S
O477 Zn462 1.905 . S
O477 C478 1.182 . S
C478 O476 1.166 . S
C478 O477 1.182 . S
O479 Zn464 2.080 1_554 S
O479 C482 1.305 . S
O480 Zn463 1.920 . S
O480 C482 1.234 . S
C481 O467 1.305 1_455 S
C481 O468 1.234 . S
C482 O479 1.305 . S
C482 O480 1.234 . S
Zn483 O489 1.920 . S
Zn483 O495 1.898 . S
Zn483 O498 1.905 1_554 S
Zn484 O492 1.905 . S
Zn484 O493 1.898 . S
Zn484 O501 1.920 . S
Zn485 O488 2.080 1_556 S
Zn485 O491 2.114 . S
Zn485 O494 2.120 . S
Zn485 O496 2.120 . S
Zn485 O497 2.114 . S
Zn485 O500 2.080 . S
C486 O491 1.166 . S
C486 O492 1.182 . S
C487 O493 1.167 . S
C487 O494 1.299 . S
O488 Zn485 2.080 1_554 S
O488 C502 1.305 . S
O489 Zn483 1.920 . S
O489 C502 1.234 . S
C490 O495 1.167 1_556 S
C490 O496 1.299 . S
O491 Zn485 2.114 . S
O491 C486 1.166 . S
O492 Zn484 1.905 . S
O492 C486 1.182 . S
O493 Zn484 1.898 . S
O493 C487 1.167 . S
O494 Zn485 2.120 . S
O494 C487 1.299 . S
O495 Zn483 1.898 . S
O495 C490 1.167 1_554 S
O496 Zn485 2.120 . S
O496 C490 1.299 . S
O497 Zn485 2.114 . S
O497 C499 1.166 . S
O498 Zn483 1.905 1_556 S
O498 C499 1.182 . S
C499 O497 1.166 . S
C499 O498 1.182 . S
O500 Zn485 2.080 . S
O500 C503 1.305 . S
O501 Zn484 1.920 . S
O501 C503 1.234 . S
C502 O488 1.305 . S
C502 O489 1.234 . S
C503 O500 1.305 . S
C503 O501 1.234 . S
Zn504 O510 1.920 . S
Zn504 O516 1.898 . S
Zn504 O519 1.905 . S
Zn505 O513 1.905 . S
Zn505 O514 1.898 . S
Zn505 O522 1.920 . S
Zn506 O509 2.080 . S
Zn506 O512 2.114 . S
Zn506 O515 2.120 . S
Zn506 O517 2.120 . S
Zn506 O518 2.114 . S
Zn506 O521 2.080 . S
C507 O512 1.166 . S
C507 O513 1.182 . S
C508 O514 1.167 . S
C508 O515 1.299 . S
O509 Zn506 2.080 . S
O509 C523 1.305 . S
O510 Zn504 1.920 . S
O510 C523 1.234 . S
C511 O516 1.167 . S
C511 O517 1.299 . S
O512 Zn506 2.114 . S
O512 C507 1.166 . S
O513 Zn505 1.905 . S
O513 C507 1.182 . S
O514 Zn505 1.898 . S
O514 C508 1.167 . S
O515 Zn506 2.120 . S
O515 C508 1.299 . S
O516 Zn504 1.898 . S
O516 C511 1.167 . S
O517 Zn506 2.120 . S
O517 C511 1.299 . S
O518 Zn506 2.114 . S
O518 C520 1.166 . S
O519 Zn504 1.905 . S
O519 C520 1.182 . S
C520 O518 1.166 . S
C520 O519 1.182 . S
O521 Zn506 2.080 . S
O521 C524 1.305 . S
O522 Zn505 1.920 . S
O522 C524 1.234 . S
C523 O509 1.305 . S
C523 O510 1.234 . S
C524 O521 1.305 . S
C524 O522 1.234 . S
Zn525 O531 1.920 . S
Zn525 O537 1.898 . S
Zn525 O540 1.905 . S
Zn526 O534 1.905 . S
Zn526 O535 1.898 . S
Zn526 O543 1.920 . S
Zn527 O530 2.080 . S
Zn527 O533 2.114 . S
Zn527 O536 2.120 . S
Zn527 O538 2.120 . S
Zn527 O539 2.114 . S
Zn527 O542 2.080 . S
C528 O533 1.166 . S
C528 O534 1.182 . S
C529 O535 1.167 . S
C529 O536 1.299 . S
O530 Zn527 2.080 . S
O530 C544 1.305 . S
O531 Zn525 1.920 . S
O531 C544 1.234 . S
C532 O537 1.167 . S
C532 O538 1.299 . S
O533 Zn527 2.114 . S
O533 C528 1.166 . S
O534 Zn526 1.905 . S
O534 C528 1.182 . S
O535 Zn526 1.898 . S
O535 C529 1.167 . S
O536 Zn527 2.120 . S
O536 C529 1.299 . S
O537 Zn525 1.898 . S
O537 C532 1.167 . S
O538 Zn527 2.120 . S
O538 C532 1.299 . S
O539 Zn527 2.114 . S
O539 C541 1.166 . S
O540 Zn525 1.905 . S
O540 C541 1.182 . S
C541 O539 1.166 . S
C541 O540 1.182 . S
O542 Zn527 2.080 . S
O542 C545 1.305 . S
O543 Zn526 1.920 . S
O543 C545 1.234 . S
C544 O530 1.305 . S
C544 O531 1.234 . S
C545 O542 1.305 . S
C545 O543 1.234 . S
Zn546 O552 1.920 . S
Zn546 O558 1.898 . S
Zn546 O561 1.905 . S
Zn547 O555 1.905 . S
Zn547 O556 1.898 . S
Zn547 O564 1.920 . S
Zn548 O551 2.080 . S
Zn548 O554 2.114 . S
Zn548 O557 2.120 . S
Zn548 O559 2.120 . S
Zn548 O560 2.114 . S
Zn548 O563 2.080 . S
C549 O554 1.166 . S
C549 O555 1.182 . S
C550 O556 1.167 . S
C550 O557 1.299 . S
O551 Zn548 2.080 . S
O551 C565 1.305 . S
O552 Zn546 1.920 . S
O552 C565 1.234 . S
C553 O558 1.167 . S
C553 O559 1.299 . S
O554 Zn548 2.114 . S
O554 C549 1.166 . S
O555 Zn547 1.905 . S
O555 C549 1.182 . S
O556 Zn547 1.898 . S
O556 C550 1.167 . S
O557 Zn548 2.120 . S
O557 C550 1.299 . S
O558 Zn546 1.898 . S
O558 C553 1.167 . S
O559 Zn548 2.120 . S
O559 C553 1.299 . S
O560 Zn548 2.114 . S
O560 C562 1.166 . S
O561 Zn546 1.905 . S
O561 C562 1.182 . S
C562 O560 1.166 . S
C562 O561 1.182 . S
O563 Zn548 2.080 . S
O563 C566 1.305 . S
O564 Zn547 1.920 . S
O564 C566 1.234 . S
C565 O551 1.305 . S
C565 O552 1.234 . S
C566 O563 1.305 . S
C566 O564 1.234 . S
Zn567 O573 1.920 . S
Zn567 O579 1.898 . S
Zn567 O582 1.905 1_556 S
Zn568 O576 1.905 . S
Zn568 O577 1.898 . S
Zn568 O585 1.920 1_565 S
Zn569 O572 2.080 1_554 S
Zn569 O575 2.114 . S
Zn569 O578 2.120 . S
Zn569 O580 2.120 . S
Zn569 O581 2.114 . S
Zn569 O584 2.080 . S
C570 O575 1.166 . S
C570 O576 1.182 . S
C571 O577 1.167 . S
C571 O578 1.299 . S
O572 Zn569 2.080 1_556 S
O572 C586 1.305 . S
O573 Zn567 1.920 . S
O573 C586 1.234 . S
C574 O579 1.167 1_554 S
C574 O580 1.299 . S
O575 Zn569 2.114 . S
O575 C570 1.166 . S
O576 Zn568 1.905 . S
O576 C570 1.182 . S
O577 Zn568 1.898 . S
O577 C571 1.167 . S
O578 Zn569 2.120 . S
O578 C571 1.299 . S
O579 Zn567 1.898 . S
O579 C574 1.167 1_556 S
O580 Zn569 2.120 . S
O580 C574 1.299 . S
O581 Zn569 2.114 . S
O581 C583 1.166 . S
O582 Zn567 1.905 1_554 S
O582 C583 1.182 . S
C583 O581 1.166 . S
C583 O582 1.182 . S
O584 Zn569 2.080 . S
O584 C587 1.305 1_565 S
O585 Zn568 1.920 1_545 S
O585 C587 1.234 . S
C586 O572 1.305 . S
C586 O573 1.234 . S
C587 O584 1.305 1_545 S
C587 O585 1.234 . S
Zn588 O594 1.920 1_455 S
Zn588 O600 1.898 . S
Zn588 O603 1.905 . S
Zn589 O597 1.905 1_556 S
Zn589 O598 1.898 . S
Zn589 O606 1.920 . S
Zn590 O593 2.080 . S
Zn590 O596 2.114 . S
Zn590 O599 2.120 . S
Zn590 O601 2.120 . S
Zn590 O602 2.114 . S
Zn590 O605 2.080 1_554 S
C591 O596 1.166 . S
C591 O597 1.182 . S
C592 O598 1.167 1_554 S
C592 O599 1.299 . S
O593 Zn590 2.080 . S
O593 C607 1.305 1_455 S
O594 Zn588 1.920 1_655 S
O594 C607 1.234 . S
C595 O600 1.167 . S
C595 O601 1.299 . S
O596 Zn590 2.114 . S
O596 C591 1.166 . S
O597 Zn589 1.905 1_554 S
O597 C591 1.182 . S
O598 Zn589 1.898 . S
O598 C592 1.167 1_556 S
O599 Zn590 2.120 . S
O599 C592 1.299 . S
O600 Zn588 1.898 . S
O600 C595 1.167 . S
O601 Zn590 2.120 . S
O601 C595 1.299 . S
O602 Zn590 2.114 . S
O602 C604 1.166 . S
O603 Zn588 1.905 . S
O603 C604 1.182 . S
C604 O602 1.166 . S
C604 O603 1.182 . S
O605 Zn590 2.080 1_556 S
O605 C608 1.305 . S
O606 Zn589 1.920 . S
O606 C608 1.234 . S
C607 O593 1.305 1_655 S
C607 O594 1.234 . S
C608 O605 1.305 . S
C608 O606 1.234 . S
Zn609 O615 1.920 . S
Zn609 O621 1.898 . S
Zn609 O624 1.905 . S
Zn610 O618 1.905 1_556 S
Zn610 O619 1.898 . S
Zn610 O627 1.920 . S
Zn611 O614 2.080 . S
Zn611 O617 2.114 . S
Zn611 O620 2.120 . S
Zn611 O622 2.120 . S
Zn611 O623 2.114 . S
Zn611 O626 2.080 1_554 S
C612 O617 1.166 . S
C612 O618 1.182 . S
C613 O619 1.167 1_554 S
C613 O620 1.299 . S
O614 Zn611 2.080 . S
O614 C628 1.305 . S
O615 Zn609 1.920 . S
O615 C628 1.234 . S
C616 O621 1.167 . S
C616 O622 1.299 . S
O617 Zn611 2.114 . S
O617 C612 1.166 . S
O618 Zn610 1.905 1_554 S
O618 C612 1.182 . S
O619 Zn610 1.898 . S
O619 C613 1.167 1_556 S
O620 Zn611 2.120 . S
O620 C613 1.299 . S
O621 Zn609 1.898 . S
O621 C616 1.167 . S
O622 Zn611 2.120 . S
O622 C616 1.299 . S
O623 Zn611 2.114 . S
O623 C625 1.166 . S
O624 Zn609 1.905 . S
O624 C625 1.182 . S
C625 O623 1.166 . S
C625 O624 1.182 . S
O626 Zn611 2.080 1_556 S
O626 C629 1.305 . S
O627 Zn610 1.920 . S
O627 C629 1.234 . S
C628 O614 1.305 . S
C628 O615 1.234 . S
C629 O626 1.305 . S
C629 O627 1.234 . S
Zn630 O636 1.920 . S
Zn630 O642 1.898 . S
Zn630 O645 1.905 . S
Zn631 O639 1.905 . S
Zn631 O640 1.898 . S
Zn631 O648 1.920 1_455 S
Zn632 O635 2.080 . S
Zn632 O638 2.114 . S
Zn632 O641 2.120 . S
Zn632 O643 2.120 . S
Zn632 O644 2.114 . S
Zn632 O647 2.080 . S
C633 O638 1.166 . S
C633 O639 1.182 . S
C634 O640 1.167 . S
C634 O641 1.299 . S
O635 Zn632 2.080 . S
O635 C649 1.305 . S
O636 Zn630 1.920 . S
O636 C649 1.234 . S
C637 O642 1.167 . S
C637 O643 1.299 . S
O638 Zn632 2.114 . S
O638 C633 1.166 . S
O639 Zn631 1.905 . S
O639 C633 1.182 . S
O640 Zn631 1.898 . S
O640 C634 1.167 . S
O641 Zn632 2.120 . S
O641 C634 1.299 . S
O642 Zn630 1.898 . S
O642 C637 1.167 . S
O643 Zn632 2.120 . S
O643 C637 1.299 . S
O644 Zn632 2.114 . S
O644 C646 1.166 . S
O645 Zn630 1.905 . S
O645 C646 1.182 . S
C646 O644 1.166 . S
C646 O645 1.182 . S
O647 Zn632 2.080 . S
O647 C650 1.305 1_455 S
O648 Zn631 1.920 1_655 S
O648 C650 1.234 . S
C649 O635 1.305 . S
C649 O636 1.234 . S
C650 O647 1.305 1_655 S
C650 O648 1.234 . S
Zn651 O657 1.920 . S
Zn651 O663 1.898 . S
Zn651 O666 1.905 . S
Zn652 O660 1.905 . S
Zn652 O661 1.898 . S
Zn652 O669 1.920 . S
Zn653 O656 2.080 . S
Zn653 O659 2.114 . S
Zn653 O662 2.120 . S
Zn653 O664 2.120 . S
Zn653 O665 2.114 . S
Zn653 O668 2.080 . S
C654 O659 1.166 . S
C654 O660 1.182 . S
C655 O661 1.167 . S
C655 O662 1.299 . S
O656 Zn653 2.080 . S
O656 C670 1.305 . S
O657 Zn651 1.920 . S
O657 C670 1.234 . S
C658 O663 1.167 . S
C658 O664 1.299 . S
O659 Zn653 2.114 . S
O659 C654 1.166 . S
O660 Zn652 1.905 . S
O660 C654 1.182 . S
O661 Zn652 1.898 . S
O661 C655 1.167 . S
O662 Zn653 2.120 . S
O662 C655 1.299 . S
O663 Zn651 1.898 . S
O663 C658 1.167 . S
O664 Zn653 2.120 . S
O664 C658 1.299 . S
O665 Zn653 2.114 . S
O665 C667 1.166 . S
O666 Zn651 1.905 . S
O666 C667 1.182 . S
C667 O665 1.166 . S
C667 O666 1.182 . S
O668 Zn653 2.080 . S
O668 C671 1.305 . S
O669 Zn652 1.920 . S
O669 C671 1.234 . S
C670 O656 1.305 . S
C670 O657 1.234 . S
C671 O668 1.305 . S
C671 O669 1.234 . S
Zn672 O678 1.920 . S
Zn672 O684 1.898 . S
Zn672 O687 1.905 . S
Zn673 O681 1.905 . S
Zn673 O682 1.898 . S
Zn673 O690 1.920 1_565 S
Zn674 O677 2.080 . S
Zn674 O680 2.114 . S
Zn674 O683 2.120 . S
Zn674 O685 2.120 . S
Zn674 O686 2.114 . S
Zn674 O689 2.080 . S
C675 O680 1.166 . S
C675 O681 1.182 . S
C676 O682 1.167 . S
C676 O683 1.299 . S
O677 Zn674 2.080 . S
O677 C691 1.305 . S
O678 Zn672 1.920 . S
O678 C691 1.234 . S
C679 O684 1.167 . S
C679 O685 1.299 . S
O680 Zn674 2.114 . S
O680 C675 1.166 . S
O681 Zn673 1.905 . S
O681 C675 1.182 . S
O682 Zn673 1.898 . S
O682 C676 1.167 . S
O683 Zn674 2.120 . S
O683 C676 1.299 . S
O684 Zn672 1.898 . S
O684 C679 1.167 . S
O685 Zn674 2.120 . S
O685 C679 1.299 . S
O686 Zn674 2.114 . S
O686 C688 1.166 . S
O687 Zn672 1.905 . S
O687 C688 1.182 . S
C688 O686 1.166 . S
C688 O687 1.182 . S
O689 Zn674 2.080 . S
O689 C692 1.305 1_565 S
O690 Zn673 1.920 1_545 S
O690 C692 1.234 . S
C691 O677 1.305 . S
C691 O678 1.234 . S
C692 O689 1.305 1_545 S
C692 O690 1.234 . S
Zn693 O699 1.920 . S
Zn693 O705 1.898 . S
Zn693 O708 1.905 . S
Zn694 O702 1.905 . S
Zn694 O703 1.898 . S
Zn694 O711 1.920 . S
Zn695 O698 2.080 . S
Zn695 O701 2.114 . S
Zn695 O704 2.120 . S
Zn695 O706 2.120 . S
Zn695 O707 2.114 . S
Zn695 O710 2.080 . S
C696 O701 1.166 . S
C696 O702 1.182 . S
C697 O703 1.167 . S
C697 O704 1.299 . S
O698 Zn695 2.080 . S
O698 C712 1.305 . S
O699 Zn693 1.920 . S
O699 C712 1.234 . S
C700 O705 1.167 . S
C700 O706 1.299 . S
O701 Zn695 2.114 . S
O701 C696 1.166 . S
O702 Zn694 1.905 . S
O702 C696 1.182 . S
O703 Zn694 1.898 . S
O703 C697 1.167 . S
O704 Zn695 2.120 . S
O704 C697 1.299 . S
O705 Zn693 1.898 . S
O705 C700 1.167 . S
O706 Zn695 2.120 . S
O706 C700 1.299 . S
O707 Zn695 2.114 . S
O707 C709 1.166 . S
O708 Zn693 1.905 . S
O708 C709 1.182 . S
C709 O707 1.166 . S
C709 O708 1.182 . S
O710 Zn695 2.080 . S
O710 C713 1.305 . S
O711 Zn694 1.920 . S
O711 C713 1.234 . S
C712 O698 1.305 . S
C712 O699 1.234 . S
C713 O710 1.305 . S
C713 O711 1.234 . S
Zn714 O720 1.920 . S
Zn714 O726 1.898 . S
Zn714 O729 1.905 . S
Zn715 O723 1.905 . S
Zn715 O724 1.898 . S
Zn715 O732 1.920 . S
Zn716 O719 2.080 . S
Zn716 O722 2.114 . S
Zn716 O725 2.120 . S
Zn716 O727 2.120 . S
Zn716 O728 2.114 . S
Zn716 O731 2.080 . S
C717 O722 1.166 . S
C717 O723 1.182 . S
C718 O724 1.167 . S
C718 O725 1.299 . S
O719 Zn716 2.080 . S
O719 C733 1.305 . S
O720 Zn714 1.920 . S
O720 C733 1.234 . S
C721 O726 1.167 . S
C721 O727 1.299 . S
O722 Zn716 2.114 . S
O722 C717 1.166 . S
O723 Zn715 1.905 . S
O723 C717 1.182 . S
O724 Zn715 1.898 . S
O724 C718 1.167 . S
O725 Zn716 2.120 . S
O725 C718 1.299 . S
O726 Zn714 1.898 . S
O726 C721 1.167 . S
O727 Zn716 2.120 . S
O727 C721 1.299 . S
O728 Zn716 2.114 . S
O728 C730 1.166 . S
O729 Zn714 1.905 . S
O729 C730 1.182 . S
C730 O728 1.166 . S
C730 O729 1.182 . S
O731 Zn716 2.080 . S
O731 C734 1.305 . S
O732 Zn715 1.920 . S
O732 C734 1.234 . S
C733 O719 1.305 . S
C733 O720 1.234 . S
C734 O731 1.305 . S
C734 O732 1.234 . S
Zn735 O741 1.920 . S
Zn735 O747 1.898 . S
Zn735 O750 1.905 . S
Zn736 O744 1.905 . S
Zn736 O745 1.898 . S
Zn736 O753 1.920 . S
Zn737 O740 2.080 . S
Zn737 O743 2.114 . S
Zn737 O746 2.120 . S
Zn737 O748 2.120 . S
Zn737 O749 2.114 . S
Zn737 O752 2.080 . S
C738 O743 1.166 . S
C738 O744 1.182 . S
C739 O745 1.167 . S
C739 O746 1.299 . S
O740 Zn737 2.080 . S
O740 C754 1.305 . S
O741 Zn735 1.920 . S
O741 C754 1.234 . S
C742 O747 1.167 . S
C742 O748 1.299 . S
O743 Zn737 2.114 . S
O743 C738 1.166 . S
O744 Zn736 1.905 . S
O744 C738 1.182 . S
O745 Zn736 1.898 . S
O745 C739 1.167 . S
O746 Zn737 2.120 . S
O746 C739 1.299 . S
O747 Zn735 1.898 . S
O747 C742 1.167 . S
O748 Zn737 2.120 . S
O748 C742 1.299 . S
O749 Zn737 2.114 . S
O749 C751 1.166 . S
O750 Zn735 1.905 . S
O750 C751 1.182 . S
C751 O749 1.166 . S
C751 O750 1.182 . S
O752 Zn737 2.080 . S
O752 C755 1.305 . S
O753 Zn736 1.920 . S
O753 C755 1.234 . S
C754 O740 1.305 . S
C754 O741 1.234 . S
C755 O752 1.305 . S
C755 O753 1.234 . S
C20 C83 0.589 . S
C40 C104 0.589 1_545 S
C125 C62 0.589 1_455 S
C145 C208 0.589 . S
C166 C230 0.589 1_565 S
C187 C251 0.589 1_455 S
C335 C271 0.589 . S
C293 C356 0.589 . S
C313 C376 0.589 . S
C397 C461 0.589 . S
C418 C482 0.589 . S
C439 C502 0.589 . S
C523 C586 0.589 . S
C544 C608 0.589 . S
C629 C565 0.589 . S
C649 C713 0.589 . S
C670 C734 0.589 . S
C691 C754 0.589 . S
C19 C398 2.966 . S
C41 C419 2.964 . S
C61 C440 2.965 . S
C712 C82 2.966 . S
C103 C733 2.965 . S
C755 C124 2.964 . S
C146 C524 2.966 . S
C167 C545 2.964 . S
C566 C188 2.965 . S
C209 C334 2.966 . S
C355 C229 2.965 . S
C250 C377 2.964 . S
C272 C650 2.965 1_455 S
C292 C671 2.964 . S
C692 C314 2.965 1_545 S
C587 C460 2.965 1_544 S
C607 C481 2.965 1_654 S
C503 C628 2.964 1_556 S
C28 C3 1.291 . S
C37 C46 1.291 . S
C45 C4 1.291 . S
C66 C109 1.291 . S
C87 C67 1.291 . S
C108 C88 1.291 . S
C154 C142 1.291 . S
C175 C163 1.291 . S
C184 C133 1.291 . S
C205 C235 1.291 . S
C196 C213 1.291 . S
C214 C234 1.291 . S
C277 C268 1.291 . S
C301 C276 1.291 . S
C310 C259 1.291 . S
C364 C318 1.291 . S
C319 C339 1.291 . S
C373 C340 1.291 . S
C394 C406 1.291 . S
C427 C415 1.291 . S
C436 C385 1.291 . S
C444 C490 1.291 . S
C465 C445 1.291 . S
C499 C466 1.291 . S
C532 C520 1.291 . S
C541 C553 1.291 . S
C562 C511 1.291 . S
C613 C583 1.291 . S
C574 C591 1.291 . S
C612 C592 1.291 . S
C646 C658 1.291 . S
C679 C667 1.291 . S
C637 C688 1.291 . S
C742 C696 1.291 . S
C717 C697 1.291 . S
C751 C718 1.291 . S
C151 C16 2.021 . S
C24 C172 2.021 . S
C58 C130 2.021 . S
C79 C238 2.021 . S
C193 C100 2.021 . S
C217 C121 2.021 . S
C25 C129 2.021 . S
C150 C49 2.021 . S
C171 C7 2.021 . S
C112 C192 2.021 . S
C70 C226 2.021 . S
C247 C91 2.021 . S
C255 C403 2.021 . S
C289 C424 2.021 . S
C297 C382 2.021 . S
C487 C331 2.021 . S
C352 C448 2.021 . S
C469 C360 2.021 . S
C280 C381 2.021 . S
C298 C402 2.021 . S
C256 C423 2.021 . S
C361 C457 2.021 . S
C322 C478 2.021 . S
C486 C343 2.021 . S
C507 C655 2.021 . S
C528 C676 2.021 . S
C634 C549 2.021 . S
C739 C570 2.021 . S
C700 C604 2.021 . S
C625 C721 2.021 . S
C633 C529 2.021 . S
C654 C550 2.021 . S
C675 C508 2.021 . S
C709 C616 2.021 . S
C730 C571 2.021 . S
C595 C738 2.021 . S
