# Generated by pormake.
# Topology irl, (4)-cn, num edge types: 1
# Building blocks:
#     Node 0, Type 0, BuildingBlock: KUFVIS_clean_sbu_0, # of connection points: 4
#     Node 1, Type 0, BuildingBlock: KUFVIS_clean_sbu_0, # of connection points: 4
#     Node 2, Type 0, BuildingBlock: KUFVIS_clean_sbu_0, # of connection points: 4
#     Node 3, Type 0, BuildingBlock: KUFVIS_clean_sbu_0, # of connection points: 4
#     Node 4, Type 0, BuildingBlock: KUFVIS_clean_sbu_0, # of connection points: 4
#     Node 5, Type 0, BuildingBlock: KUFVIS_clean_sbu_0, # of connection points: 4
#     Node 6, Type 0, BuildingBlock: KUFVIS_clean_sbu_0, # of connection points: 4
#     Node 7, Type 0, BuildingBlock: KUFVIS_clean_sbu_0, # of connection points: 4
#     Edge 8, Type (0, 0), BuildingBlock: CIFDUS_clean_linker_0, # of connection points: 2
#     Edge 9, Type (0, 0), BuildingBlock: CIFDUS_clean_linker_0, # of connection points: 2
#     Edge 10, Type (0, 0), BuildingBlock: CIFDUS_clean_linker_0, # of connection points: 2
#     Edge 11, Type (0, 0), BuildingBlock: CIFDUS_clean_linker_0, # of connection points: 2
#     Edge 12, Type (0, 0), BuildingBlock: CIFDUS_clean_linker_0, # of connection points: 2
#     Edge 13, Type (0, 0), BuildingBlock: CIFDUS_clean_linker_0, # of connection points: 2
#     Edge 14, Type (0, 0), BuildingBlock: CIFDUS_clean_linker_0, # of connection points: 2
#     Edge 15, Type (0, 0), BuildingBlock: CIFDUS_clean_linker_0, # of connection points: 2
#     Edge 16, Type (0, 0), BuildingBlock: CIFDUS_clean_linker_0, # of connection points: 2
#     Edge 17, Type (0, 0), BuildingBlock: CIFDUS_clean_linker_0, # of connection points: 2
#     Edge 18, Type (0, 0), BuildingBlock: CIFDUS_clean_linker_0, # of connection points: 2
#     Edge 19, Type (0, 0), BuildingBlock: CIFDUS_clean_linker_0, # of connection points: 2
#     Edge 20, Type (0, 0), BuildingBlock: CIFDUS_clean_linker_0, # of connection points: 2
#     Edge 21, Type (0, 0), BuildingBlock: CIFDUS_clean_linker_0, # of connection points: 2
#     Edge 22, Type (0, 0), BuildingBlock: CIFDUS_clean_linker_0, # of connection points: 2
#     Edge 23, Type (0, 0), BuildingBlock: CIFDUS_clean_linker_0, # of connection points: 2
# Relax obj value: 0.100
# Max RMSD: 0.150
# Mean RMSD: 0.150
data_MOF--net-irl--node1-KUFVIS_clean_sbu_0--edge1-CIFDUS_clean_linker_0
_symmetry_space_group_name_H-M    P1
_symmetry_Int_Tables_number       1
_symmetry_cell_setting            triclinic
loop_
_symmetry_equiv_pos_as_xyz
'x, y, z'
_cell_length_a     29.992622
_cell_length_b     39.286835
_cell_length_c     24.044301
_cell_angle_alpha  90.017387
_cell_angle_beta   90.066422
_cell_angle_gamma 89.841033
loop_
_atom_site_label
_atom_site_type_symbol
_atom_site_fract_x
_atom_site_fract_y
_atom_site_fract_z
_atom_type_partial_charge
Mn0 Mn 0.04926 0.16102 0.00251 0.0
Mn1 Mn 0.03083 0.24563 0.01174 0.0
C2 C 0.04067 0.18603 0.08934 0.0
C3 C 0.02205 0.1056 0.99039 0.0
C4 C 0.1228 0.21548 -0.00473 0.0
O5 O 0.0332 0.17378 0.92276 0.0
O6 O 0.02123 0.22978 0.93405 0.0
C7 C 0.93367 0.24299 0.99034 0.0
N8 N 0.96845 0.25249 0.02327 0.0
C9 C 0.91886 0.27791 0.09006 0.0
C10 C 0.88249 0.26862 0.05669 0.0
C11 C 0.88994 0.251 0.00669 0.0
C12 C 0.96165 0.26918 0.07164 0.0
H13 H 0.93925 0.22935 0.95197 0.0
C14 C 0.02312 0.20307 0.90365 0.0
O15 O 0.06324 0.11323 0.97941 0.0
O16 O 0.99664 0.13024 0.00737 0.0
N17 N 0.03851 0.26534 0.0836 0.0
C18 C 0.07718 0.27164 0.11151 0.0
C19 C 0.07563 0.28909 0.16234 0.0
C20 C 0.03448 0.30021 0.18338 0.0
C21 C 0.99515 0.29362 0.15385 0.0
C22 C 0.99882 0.27642 0.10317 0.0
H23 H 0.10893 0.26339 0.09516 0.0
O24 O 0.05936 0.15642 0.084 0.0
O25 O 0.02552 0.19974 0.04355 0.0
O26 O 0.11046 0.1843 -0.00592 0.0
O27 O 0.09569 0.24035 0.00143 0.0
C28 C 0.95248 0.30323 0.17281 0.0
C29 C 0.91434 0.29518 0.1411 0.0
H30 H 0.84871 0.27472 0.06921 0.0
H31 H 0.86204 0.24359 0.98083 0.0
H32 H 0.10606 0.29417 0.18508 0.0
H33 H 0.03357 0.31405 0.22192 0.0
H34 H 0.94851 0.31653 0.21189 0.0
H35 H 0.88168 0.30232 0.15644 0.0
Mn36 Mn 0.9471 0.84936 0.00535 0.0
Mn37 Mn 0.97231 0.76571 0.00847 0.0
C38 C 0.9643 0.82317 0.08917 0.0
C39 C 0.97068 0.90579 0.99361 0.0
C40 C 0.87745 0.79219 -0.00124 0.0
O41 O 0.96008 0.83872 0.9242 0.0
O42 O 0.97924 0.78347 0.93156 0.0
C43 C 0.06865 0.77137 0.98349 0.0
N44 N 0.03524 0.76048 0.01737 0.0
C45 C 0.08759 0.73359 0.07929 0.0
C46 C 0.12258 0.74436 0.04495 0.0
C47 C 0.11306 0.7635 -0.003 0.0
C48 C 0.04407 0.74258 0.06407 0.0
H49 H 0.06144 0.78592 0.94644 0.0
C50 C 0.97357 0.81073 0.90319 0.0
O51 O 0.92924 0.89725 0.98632 0.0
O52 O 0.99804 0.88165 0.00736 0.0
N53 N 0.96762 0.74495 0.08007 0.0
C54 C 0.93013 0.73742 0.1095 0.0
C55 C 0.93368 0.71781 0.15807 0.0
C56 C 0.97561 0.70595 0.17552 0.0
C57 C 0.01385 0.71462 0.14523 0.0
C58 C 0.00819 0.73398 0.09691 0.0
H59 H 0.8977 0.74582 0.09554 0.0
O60 O 0.94213 0.85157 0.08805 0.0
O61 O 0.97634 0.81122 0.04103 0.0
O62 O 0.88715 0.82389 0.00043 0.0
O63 O 0.90686 0.76863 0.00062 0.0
C64 C 0.05728 0.70441 0.16051 0.0
C65 C 0.09416 0.71427 0.12797 0.0
H66 H 0.15686 0.73817 0.05506 0.0
H67 H 0.13988 0.772 0.97037 0.0
H68 H 0.90409 0.71132 0.18145 0.0
H69 H 0.97787 0.68978 0.21177 0.0
H70 H 0.0628 0.68902 0.19721 0.0
H71 H 0.12741 0.70665 0.14056 0.0
Mn72 Mn 0.06704 0.86456 0.47609 0.0
Mn73 Mn 0.03978 0.78157 0.48377 0.0
C74 C 0.04708 0.83529 0.3964 0.0
C75 C 0.04692 0.922 0.48183 0.0
C76 C 0.13541 0.80646 0.48706 0.0
O77 O 0.05559 0.85779 0.55861 0.0
O78 O 0.03489 0.80275 0.55875 0.0
C79 C 0.94422 0.78998 0.51163 0.0
N80 N 0.9765 0.7775 0.47735 0.0
C81 C 0.9217 0.75294 0.41635 0.0
C82 C 0.88787 0.76532 0.45118 0.0
C83 C 0.89921 0.78397 0.49899 0.0
C84 C 0.96597 0.75959 0.43123 0.0
H85 H 0.95274 0.8045 0.54826 0.0
C86 C 0.04169 0.83119 0.58349 0.0
O87 O 0.08786 0.91203 0.48907 0.0
O88 O 0.01762 0.89855 0.47189 0.0
N89 N 0.04233 0.75827 0.41413 0.0
C90 C 0.07887 0.74948 0.38366 0.0
C91 C 0.0733 0.7311 0.33414 0.0
C92 C 0.03033 0.72191 0.31671 0.0
C93 C 0.99321 0.73125 0.34865 0.0
C94 C 1.00085 0.7492 0.39796 0.0
H95 H 0.11198 0.75651 0.39692 0.0
O96 O 0.07017 0.8631 0.39321 0.0
O97 O 0.0359 0.82574 0.44627 0.0
O98 O 0.126 0.83804 0.48189 0.0
O99 O 0.10568 0.78324 0.48921 0.0
C100 C 0.94894 0.72379 0.33329 0.0
C101 C 0.91321 0.73472 0.36701 0.0
H102 H 0.8531 0.76089 0.44141 0.0
H103 H 0.87329 0.79376 0.52594 0.0
H104 H 0.10202 0.72403 0.30946 0.0
H105 H 0.02633 0.70761 0.27886 0.0
H106 H 0.94188 0.70993 0.29543 0.0
H107 H 0.87931 0.72917 0.35441 0.0
Mn108 Mn 0.93122 0.16879 0.47094 0.0
Mn109 Mn 0.97426 0.24756 0.47917 0.0
C110 C 0.94738 0.19783 0.38985 0.0
C111 C 0.94489 0.11017 0.47378 0.0
C112 C 0.87532 0.2335 0.49096 0.0
O113 O 0.94924 0.17232 0.55181 0.0
O114 O 0.97919 0.22451 0.55316 0.0
C115 C 0.06795 0.22602 0.49614 0.0
N116 N 0.03698 0.24398 0.46676 0.0
C117 C 0.09322 0.26672 0.40618 0.0
C118 C 0.1258 0.24862 0.43591 0.0
C119 C 0.11306 0.228 0.48087 0.0
C120 C 0.04872 0.26317 0.4226 0.0
H121 H 0.05831 0.21034 0.53096 0.0
C122 C 0.96859 0.19655 0.57707 0.0
O123 O 0.90562 0.12244 0.4853 0.0
O124 O 0.97535 0.13182 0.45992 0.0
N125 N 0.97275 0.27358 0.4121 0.0
C126 C 0.93716 0.28932 0.38784 0.0
C127 C 0.94425 0.3119 0.34358 0.0
C128 C 0.98782 0.31841 0.32527 0.0
C129 C 0.0239 0.30146 0.35016 0.0
C130 C 0.01478 0.27935 0.39427 0.0
H131 H 0.9037 0.28514 0.40279 0.0
O132 O 0.92094 0.17178 0.38963 0.0
O133 O 0.96568 0.20514 0.43769 0.0
O134 O 0.87778 0.2011 0.48476 0.0
O135 O 0.90943 0.253 0.49046 0.0
C136 C 0.06863 0.30624 0.33397 0.0
C137 C 0.10317 0.28844 0.36132 0.0
H138 H 0.16068 0.25039 0.42464 0.0
H139 H 0.13797 0.21387 0.50395 0.0
H140 H 0.91628 0.32483 0.32439 0.0
H141 H 0.99309 0.33692 0.29267 0.0
H142 H 0.07699 0.32364 0.30072 0.0
H143 H 0.13734 0.29204 0.34805 0.0
Mn144 Mn 0.56403 0.65033 0.00581 0.0
Mn145 Mn 0.53965 0.734 -0.00154 0.0
C146 C 0.54484 0.67988 0.08539 0.0
C147 C 0.53848 0.59417 -0.00179 0.0
C148 C 0.63455 0.70669 -0.00321 0.0
O149 O 0.55441 0.65787 0.92327 0.0
O150 O 0.53476 0.71318 0.92337 0.0
C151 C 0.44413 0.72754 0.96921 0.0
N152 N 0.47646 0.73934 0.00401 0.0
C153 C 0.42184 0.76452 0.06466 0.0
C154 C 0.38796 0.75287 0.02927 0.0
C155 C 0.39918 0.73425 0.98137 0.0
C156 C 0.46605 0.75721 0.05023 0.0
H157 H 0.45255 0.71301 0.93255 0.0
C158 C 0.54142 0.68479 0.89846 0.0
O159 O 0.58057 0.60135 0.99265 0.0
O160 O 0.51187 0.61944 0.00805 0.0
N161 N 0.54234 0.75719 0.06822 0.0
C162 C 0.57891 0.76554 0.09897 0.0
C163 C 0.57342 0.78382 0.14863 0.0
C164 C 0.5305 0.79344 0.16586 0.0
C165 C 0.4934 0.78478 0.1334 0.0
C166 C 0.50096 0.76689 0.084 0.0
H167 H 0.61196 0.75814 0.08588 0.0
O168 O 0.56606 0.65114 0.08877 0.0
O169 O 0.53469 0.68998 0.03549 0.0
O170 O 0.62458 0.67512 0.00175 0.0
O171 O 0.6053 0.73041 -0.00589 0.0
C172 C 0.44919 0.79285 0.14836 0.0
C173 C 0.41344 0.78265 0.11411 0.0
H174 H 0.35324 0.75783 0.03868 0.0
H175 H 0.37322 0.72501 0.95401 0.0
H176 H 0.60215 0.79042 0.17364 0.0
H177 H 0.5265 0.8075 0.20399 0.0
H178 H 0.44218 0.80664 0.1863 0.0
H179 H 0.37959 0.78868 0.12639 0.0
Mn180 Mn 0.44627 0.34147 0.01506 0.0
Mn181 Mn 0.46346 0.25663 0.01818 0.0
C182 C 0.45854 0.31426 0.09874 0.0
C183 C 0.47537 0.39639 0.00472 0.0
C184 C 0.3718 0.28843 0.00462 0.0
O185 O 0.45988 0.33024 0.93479 0.0
O186 O 0.47418 0.27411 0.94195 0.0
C187 C 0.56076 0.25687 -0.00239 0.0
N188 N 0.52543 0.24783 0.02985 0.0
C189 C 0.57318 0.21787 0.09376 0.0
C190 C 0.6101 0.22672 0.06114 0.0
C191 C 0.60388 0.24647 0.01301 0.0
C192 C 0.53112 0.22934 0.07669 0.0
H193 H 0.55605 0.27189 0.96043 0.0
C194 C 0.4713 0.30173 0.9139 0.0
O195 O 0.43346 0.39009 -0.00439 0.0
O196 O 0.50011 0.37084 0.01938 0.0
N197 N 0.45469 0.23606 0.08932 0.0
C198 C 0.41573 0.23063 0.11698 0.0
C199 C 0.41595 0.21081 0.16551 0.0
C200 C 0.45608 0.19655 0.18472 0.0
C201 C 0.49591 0.20303 0.15618 0.0
C202 C 0.49356 0.22275 0.10783 0.0
H203 H 0.38463 0.24089 0.10165 0.0
O204 O 0.43929 0.34388 0.09717 0.0
O205 O 0.47084 0.30174 0.05114 0.0
O206 O 0.38432 0.31948 0.00755 0.0
O207 O 0.39882 0.26328 0.00733 0.0
C208 C 0.53776 0.19034 0.17328 0.0
C209 C 0.57643 0.19813 0.1425 0.0
H210 H 0.64338 0.21857 0.07271 0.0
H211 H 0.63221 0.25349 0.98771 0.0
H212 H 0.38514 0.20603 0.18753 0.0
H213 H 0.45575 0.18036 0.2211 0.0
H214 H 0.54068 0.17465 0.21012 0.0
H215 H 0.60846 0.18862 0.15651 0.0
Mn216 Mn 0.55702 0.35575 0.48625 0.0
Mn217 Mn 0.52108 0.27466 0.49231 0.0
C218 C 0.53493 0.32822 0.40605 0.0
C219 C 0.53644 0.4133 0.49456 0.0
C220 C 0.61926 0.29393 0.49693 0.0
O221 O 0.54612 0.34854 0.56842 0.0
O222 O 0.51717 0.29574 0.56711 0.0
C223 C 0.42617 0.28868 0.5172 0.0
N224 N 0.45774 0.27425 0.48398 0.0
C225 C 0.40185 0.25291 0.42128 0.0
C226 C 0.36869 0.26731 0.45504 0.0
C227 C 0.38093 0.28532 0.50317 0.0
C228 C 0.44636 0.25692 0.43757 0.0
H229 H 0.43545 0.30275 0.55401 0.0
C230 C 0.52844 0.32306 0.59247 0.0
O231 O 0.57787 0.4039 0.50028 0.0
O232 O 0.50802 0.38955 0.48387 0.0
N233 N 0.52269 0.25131 0.42267 0.0
C234 C 0.55885 0.24034 0.39338 0.0
C235 C 0.55245 0.22241 0.34359 0.0
C236 C 0.50903 0.21584 0.32473 0.0
C237 C 0.47232 0.22718 0.35567 0.0
C238 C 0.48076 0.24456 0.40532 0.0
H239 H 0.5923 0.24542 0.40769 0.0
O240 O 0.55949 0.35528 0.40325 0.0
O241 O 0.52324 0.31875 0.45562 0.0
O242 O 0.6145 0.32625 0.49091 0.0
O243 O 0.58643 0.27328 0.49945 0.0
C244 C 0.42775 0.22235 0.33888 0.0
C245 C 0.39254 0.23528 0.37159 0.0
H246 H 0.33378 0.26496 0.44417 0.0
H247 H 0.35555 0.29669 0.52926 0.0
H248 H 0.58087 0.21375 0.31971 0.0
H249 H 0.50436 0.20208 0.28646 0.0
H250 H 0.4201 0.20907 0.30064 0.0
H251 H 0.35845 0.23179 0.35788 0.0
Mn252 Mn 0.45318 0.66835 0.47582 0.0
Mn253 Mn 0.47394 0.75258 0.47322 0.0
C254 C 0.46768 0.69527 0.39229 0.0
C255 C 0.48052 0.61268 0.4865 0.0
C256 C 0.38054 0.7236 0.4835 0.0
O257 O 0.46632 0.679 0.55663 0.0
O258 O 0.4819 0.73484 0.54999 0.0
C259 C 0.57053 0.74907 0.49818 0.0
N260 N 0.53659 0.75922 0.46429 0.0
C261 C 0.58764 0.78703 0.40219 0.0
C262 C 0.62315 0.77704 0.43654 0.0
C263 C 0.61456 0.75781 0.4846 0.0
C264 C 0.54454 0.77721 0.4175 0.0
H265 H 0.56405 0.73443 0.5353 0.0
C266 C 0.47806 0.70728 0.57797 0.0
O267 O 0.43869 0.6199 0.49476 0.0
O268 O 0.50611 0.63773 0.47246 0.0
N269 N 0.46814 0.77339 0.40172 0.0
C270 C 0.43028 0.78021 0.37236 0.0
C271 C 0.43294 0.7997 0.32358 0.0
C272 C 0.47437 0.81224 0.3059 0.0
C273 C 0.51299 0.80442 0.33627 0.0
C274 C 0.50823 0.78507 0.38472 0.0
H275 H 0.39823 0.77126 0.38647 0.0
O276 O 0.44717 0.66624 0.3934 0.0
O277 O 0.47985 0.70736 0.44026 0.0
O278 O 0.3918 0.69213 0.48196 0.0
O279 O 0.40874 0.7479 0.48109 0.0
C280 C 0.55593 0.81544 0.32088 0.0
C281 C 0.59329 0.80639 0.35342 0.0
H282 H 0.65713 0.78391 0.42636 0.0
H283 H 0.64179 0.74991 0.51123 0.0
H284 H 0.40305 0.80555 0.30017 0.0
H285 H 0.47601 0.8282 0.26934 0.0
H286 H 0.56072 0.83087 0.28409 0.0
H287 H 0.62617 0.81465 0.34076 0.0
H288 H 0.92099 0.96427 0.99095 0.0
H289 H 0.05639 0.9272 0.98342 0.0
H290 H 0.08407 0.98543 0.97829 0.0
H291 H 0.07035 0.04712 0.98003 0.0
H292 H 0.93541 0.08458 0.99235 0.0
H293 H 0.90717 0.02628 0.99124 0.0
C294 C 0.9565 0.96897 0.98775 0.0
C295 C 0.98652 0.94137 0.98764 0.0
C296 C 0.97238 1.0027 0.98584 0.0
C297 C 0.0325 0.94793 0.98386 0.0
C298 C 0.04843 0.98127 0.98088 0.0
C299 C 0.03475 0.04254 0.98198 0.0
C300 C 0.00508 0.07022 0.98623 0.0
C301 C 0.01875 0.00888 0.98244 0.0
C302 C 0.95904 0.06377 0.98918 0.0
C303 C 0.94282 0.0304 0.98857 0.0
H304 H 0.96328 0.94965 0.48277 0.0
H305 H 0.10278 0.97646 0.48359 0.0
H306 H 0.08318 0.03674 0.48128 0.0
H307 H 0.02691 0.08176 0.47699 0.0
H308 H 0.88719 0.05609 0.47924 0.0
H309 H 0.90637 0.99538 0.48252 0.0
C310 C 0.98936 0.96871 0.48258 0.0
C311 C 0.03447 0.95852 0.48306 0.0
C312 C 0.97783 1.00347 0.48167 0.0
C313 C 0.06785 0.98354 0.48325 0.0
C314 C 0.05667 0.01805 0.4818 0.0
C315 C 1.00056 0.06292 0.47813 0.0
C316 C 0.95566 0.07341 0.47736 0.0
C317 C 0.01184 0.02827 0.48062 0.0
C318 C 0.922 0.04867 0.47966 0.0
C319 C 0.93298 0.01397 0.48147 0.0
H320 H 0.58481 0.53401 0.00063 0.0
H321 H 0.45183 0.57547 0.98744 0.0
H322 H 0.4207 0.51827 0.98563 0.0
H323 H 0.43059 0.4563 0.9914 0.0
H324 H 0.56307 0.41449 0.00809 0.0
H325 H 0.59479 0.47163 0.00475 0.0
C326 C 0.54908 0.53047 -0.00304 0.0
C327 C 0.52077 0.55903 -0.00569 0.0
C328 C 0.53115 0.49733 -0.00322 0.0
C329 C 0.47446 0.55398 0.98985 0.0
C330 C 0.45654 0.52123 0.98878 0.0
C331 C 0.46641 0.45968 -0.00606 0.0
C332 C 0.49433 0.43112 6e-05 0.0
C333 C 0.48447 0.4927 0.99279 0.0
C334 C 0.54072 0.43601 0.00355 0.0
C335 C 0.55895 0.46872 0.00164 0.0
H336 H 0.58548 0.47228 0.48906 0.0
H337 H 0.45162 0.43461 0.51092 0.0
H338 H 0.42274 0.4925 0.51291 0.0
H339 H 0.43441 0.55399 0.50421 0.0
H340 H 0.56749 0.5924 0.47942 0.0
H341 H 0.59744 0.53456 0.48295 0.0
C342 C 0.55011 0.47683 0.49476 0.0
C343 C 0.52085 0.44907 0.49958 0.0
C344 C 0.53335 0.51046 0.49503 0.0
C345 C 0.47498 0.45543 0.50667 0.0
C346 C 0.4583 0.4886 0.50786 0.0
C347 C 0.46999 0.54974 0.49992 0.0
C348 C 0.49853 0.57754 0.4914 0.0
C349 C 0.48702 0.51633 0.50135 0.0
C350 C 0.54461 0.57149 0.48583 0.0
C351 C 0.56185 0.53836 0.48784 0.0
H352 H 0.96231 0.20745 0.13426 0.0
H353 H 0.10096 0.19131 0.17256 0.0
H354 H 0.08615 0.20101 0.27143 0.0
H355 H 0.03117 0.20398 0.34781 0.0
H356 H 0.8926 0.22011 0.3088 0.0
H357 H 0.91004 0.2223 0.2096 0.0
C358 C 0.98951 0.20756 0.16399 0.0
C359 C 0.03279 0.19941 0.14608 0.0
C360 C 0.98066 0.21311 0.22084 0.0
C361 C 0.06745 0.19799 0.18541 0.0
C362 C 0.05898 0.20348 0.24194 0.0
C363 C 0.00523 0.20966 0.31772 0.0
C364 C 0.96071 0.21213 0.33552 0.0
C365 C 0.01539 0.20981 0.26043 0.0
C366 C 0.92716 0.21841 0.29597 0.0
C367 C 0.93704 0.21921 0.2392 0.0
H368 H 0.08615 0.81753 0.29925 0.0
H369 H 0.95859 0.82698 0.37984 0.0
H370 H 0.92051 0.8173 0.29126 0.0
H371 H 0.92404 0.81583 0.18885 0.0
H372 H 0.05177 0.81006 0.1078 0.0
H373 H 0.08928 0.80747 0.19797 0.0
C374 C 0.05003 0.81652 0.29736 0.0
C375 C 0.02509 0.82234 0.34584 0.0
C376 C 0.02846 0.81168 0.24601 0.0
C377 C 0.97836 0.8217 0.34314 0.0
C378 C 0.95662 0.81651 0.29242 0.0
C379 C 0.95997 0.81292 0.19121 0.0
C380 C 0.98511 0.81247 0.14197 0.0
C381 C 0.98134 0.81276 0.24329 0.0
C382 C 0.03168 0.80936 0.14518 0.0
C383 C 0.05317 0.80846 0.19678 0.0
H384 H 0.02042 0.77919 0.65302 0.0
H385 H 0.03857 0.88819 0.64951 0.0
H386 H 0.01775 0.89169 0.74755 0.0
H387 H 0.99404 0.86373 0.83441 0.0
H388 H 0.97797 0.75454 0.83719 0.0
H389 H 0.99805 0.75137 0.7392 0.0
C390 C 0.01995 0.80378 0.67353 0.0
C391 C 0.03107 0.83336 0.64367 0.0
C392 C 0.00806 0.80563 0.72985 0.0
C393 C 0.03037 0.86493 0.67135 0.0
C394 C 0.01828 0.867 0.72743 0.0
C395 C 0.99464 0.83928 0.81344 0.0
C396 C 0.98432 0.80945 0.84313 0.0
C397 C 0.00689 0.83752 0.75706 0.0
C398 C 0.98584 0.77791 0.81548 0.0
C399 C 0.99733 0.77604 0.75938 0.0
H400 H 0.00564 0.15329 0.82678 0.0
H401 H 0.02009 0.26213 0.84407 0.0
H402 H 0.00593 0.26958 0.74512 0.0
H403 H 0.98884 0.24559 0.65335 0.0
H404 H 0.97165 0.13705 0.63604 0.0
H405 H 0.98753 0.12927 0.7348 0.0
C406 C 0.00577 0.17863 0.80892 0.0
C407 C 0.01397 0.20704 0.84316 0.0
C408 C 0.9971 0.1829 0.75173 0.0
C409 C 0.01368 0.23972 0.81908 0.0
C410 C 0.00569 0.24408 0.76229 0.0
C411 C 0.98875 0.2202 0.67106 0.0
C412 C 0.9791 0.192 0.63707 0.0
C413 C 0.9973 0.21589 0.72818 0.0
C414 C 0.97878 0.15931 0.66108 0.0
C415 C 0.98793 0.15479 0.71766 0.0
H416 H 0.58559 0.69895 0.18056 0.0
H417 H 0.45679 0.68929 0.10299 0.0
H418 H 0.42008 0.7005 0.19196 0.0
H419 H 0.42537 0.70282 0.29412 0.0
H420 H 0.55434 0.70966 0.3721 0.0
H421 H 0.59036 0.71119 0.28105 0.0
C422 C 0.54952 0.70028 0.18318 0.0
C423 C 0.52377 0.69382 0.13562 0.0
C424 C 0.52878 0.70624 0.23462 0.0
C425 C 0.4771 0.69493 0.13911 0.0
C426 C 0.45617 0.70106 0.18999 0.0
C427 C 0.46122 0.70583 0.29084 0.0
C428 C 0.48722 0.70659 0.33938 0.0
C429 C 0.48171 0.7054 0.23838 0.0
C430 C 0.53366 0.70996 0.33514 0.0
C431 C 0.55429 0.71023 0.2831 0.0
H432 H 0.5745 0.30625 0.31198 0.0
H433 H 0.44646 0.32517 0.38683 0.0
H434 H 0.40941 0.31477 0.29779 0.0
H435 H 0.41509 0.30996 0.19616 0.0
H436 H 0.54381 0.29584 0.12036 0.0
H437 H 0.57894 0.29307 0.21191 0.0
C438 C 0.53843 0.30719 0.30873 0.0
C439 C 0.51297 0.31578 0.35554 0.0
C440 C 0.51759 0.30186 0.2572 0.0
C441 C 0.4664 0.31775 0.35127 0.0
C442 C 0.44532 0.31206 0.30038 0.0
C443 C 0.45059 0.30511 0.20006 0.0
C444 C 0.4768 0.30243 0.15201 0.0
C445 C 0.47073 0.30532 0.25271 0.0
C446 C 0.52286 0.29681 0.15698 0.0
C447 C 0.54305 0.29592 0.20929 0.0
H448 H 0.49049 0.35464 0.84512 0.0
H449 H 0.47617 0.24525 0.84837 0.0
H450 H 0.49292 0.24242 0.7494 0.0
H451 H 0.51079 0.27076 0.66214 0.0
H452 H 0.52692 0.37995 0.65829 0.0
H453 H 0.51041 0.383 0.75765 0.0
C454 C 0.4909 0.3302 0.82414 0.0
C455 C 0.48186 0.30025 0.85404 0.0
C456 C 0.50094 0.32866 0.76728 0.0
C457 C 0.48307 0.26872 0.82639 0.0
C458 C 0.49257 0.26704 0.76977 0.0
C459 C 0.51065 0.29528 0.68291 0.0
C460 C 0.51986 0.32507 0.65279 0.0
C461 C 0.50142 0.29684 0.73985 0.0
C462 C 0.52004 0.35658 0.68056 0.0
C463 C 0.51048 0.35838 0.73731 0.0
H464 H 0.52252 0.73745 0.82915 0.0
H465 H 0.53843 0.62814 0.83188 0.0
H466 H 0.51936 0.62539 0.73324 0.0
H467 H 0.4975 0.654 0.64643 0.0
H468 H 0.48319 0.76344 0.64422 0.0
H469 H 0.50215 0.76599 0.74268 0.0
C470 C 0.52193 0.71297 0.80832 0.0
C471 C 0.53186 0.68307 0.83808 0.0
C472 C 0.51102 0.71154 0.7517 0.0
C473 C 0.53109 0.65162 0.81008 0.0
C474 C 0.52003 0.64998 0.75367 0.0
C475 C 0.4983 0.67839 0.66755 0.0
C476 C 0.48874 0.70845 0.63798 0.0
C477 C 0.50973 0.67977 0.72414 0.0
C478 C 0.49046 0.73989 0.66588 0.0
C479 C 0.50129 0.74141 0.72222 0.0
H480 H 0.33299 0.22605 -0.00595 0.0
H481 H 0.3014 0.33327 0.00378 0.0
H482 H 0.22198 0.32006 -0.00043 0.0
H483 H 0.16162 0.2782 -0.00362 0.0
H484 H 0.19324 0.17096 0.98723 0.0
H485 H 0.27267 0.18431 0.98767 0.0
C486 C 0.30887 0.24666 -0.00496 0.0
C487 C 0.32344 0.28068 -0.00054 0.0
C488 C 0.26321 0.23891 0.99276 0.0
C489 C 0.2914 0.30688 0.00047 0.0
C490 C 0.24588 0.29934 -0.00188 0.0
C491 C 0.18575 0.25763 -0.00585 0.0
C492 C 0.17116 0.22354 0.99195 0.0
C493 C 0.23143 0.26545 -0.00527 0.0
C494 C 0.20324 0.19741 0.98899 0.0
C495 C 0.24876 0.20502 0.98935 0.0
H496 H 0.66838 0.77107 0.99136 0.0
H497 H 0.70882 0.66555 -0.00027 0.0
H498 H 0.78701 0.68278 0.00014 0.0
H499 H 0.84381 0.72762 -0.00035 0.0
H500 H 0.80324 0.83313 0.9919 0.0
H501 H 0.72513 0.81584 0.98966 0.0
C502 C 0.69416 0.75169 0.99306 0.0
C503 C 0.68237 0.71694 -0.00452 0.0
C504 C 0.73912 0.76176 0.99348 0.0
C505 C 0.7166 0.69243 -0.00218 0.0
C506 C 0.76143 0.70227 -0.00191 0.0
C507 C 0.81802 0.74696 -0.00275 0.0
C508 C 0.82975 0.78175 -0.00408 0.0
C509 C 0.77306 0.73686 -0.00385 0.0
C510 C 0.79551 0.80623 0.99298 0.0
C511 C 0.75072 0.79635 0.99171 0.0
H512 H 0.1703 0.74183 0.48959 0.0
H513 H 0.20873 0.84776 0.48862 0.0
H514 H 0.28707 0.83132 0.48855 0.0
H515 H 0.34473 0.78738 0.48683 0.0
H516 H 0.3075 0.68126 0.48724 0.0
H517 H 0.22871 0.69745 0.48964 0.0
C518 C 0.19573 0.76139 0.48965 0.0
C519 C 0.18325 0.79609 0.48907 0.0
C520 C 0.24104 0.75177 0.4894 0.0
C521 C 0.21699 0.82091 0.48898 0.0
C522 C 0.26196 0.81153 0.48893 0.0
C523 C 0.31956 0.76762 0.48765 0.0
C524 C 0.3324 0.73304 0.48681 0.0
C525 C 0.27436 0.77708 0.48883 0.0
C526 C 0.29889 0.70804 0.48786 0.0
C527 C 0.25372 0.7173 0.48918 0.0
H528 H 0.70126 0.32568 0.49775 0.0
H529 H 0.63975 0.22632 0.50113 0.0
H530 H 0.71237 0.19929 0.50126 0.0
H531 H 0.79366 0.20296 0.49774 0.0
H532 H 0.85632 0.30178 0.49529 0.0
H533 H 0.78353 0.32934 0.4978 0.0
C534 C 0.70372 0.29815 0.49873 0.0
C535 C 0.66465 0.27835 0.49923 0.0
C536 C 0.74607 0.28235 0.49894 0.0
C537 C 0.66887 0.24256 0.50068 0.0
C538 C 0.71059 0.22685 0.50071 0.0
C539 C 0.79154 0.23052 0.49805 0.0
C540 C 0.83072 0.25004 0.49612 0.0
C541 C 0.74944 0.24641 0.49947 0.0
C542 C 0.82694 0.28584 0.49674 0.0
C543 C 0.78517 0.30178 0.49805 0.0
loop_
_geom_bond_atom_site_label_1
_geom_bond_atom_site_label_2
_geom_bond_distance
_geom_bond_site_symmetry_2
_ccdc_geom_bond_type
Mn0 O5 2.095 1_554 S
Mn0 O15 2.162 . S
Mn0 O16 2.297 . S
Mn0 O24 2.385 . S
Mn0 O25 2.209 . S
Mn0 O26 2.094 . S
Mn1 O6 2.121 1_554 S
Mn1 N8 2.257 1_455 S
Mn1 N17 2.282 . S
Mn1 O25 2.215 . S
Mn1 O27 2.117 . S
C2 O24 1.234 . S
C2 O25 1.283 . S
C3 O15 1.281 . S
C3 O16 1.236 . S
C4 O26 1.240 . S
C4 O27 1.264 . S
O5 Mn0 2.095 1_556 S
O5 C14 1.250 . S
O6 Mn1 2.121 1_556 S
O6 C14 1.258 . S
C7 N8 1.320 1_556 S
C7 C11 1.457 1_556 S
C7 H13 0.938 . S
N8 Mn1 2.257 1_655 S
N8 C7 1.320 1_554 S
N8 C12 1.362 . S
C9 C10 1.258 . S
C9 C12 1.431 . S
C9 C29 1.449 . S
C10 C9 1.258 . S
C10 C11 1.477 . S
C10 H30 0.931 . S
C11 C7 1.457 1_554 S
C11 C10 1.477 . S
C11 H31 0.930 1_554 S
C12 N8 1.362 . S
C12 C9 1.431 . S
C12 C22 1.476 1_655 S
H13 C7 0.938 . S
C14 O5 1.250 . S
C14 O6 1.258 . S
O15 Mn0 2.162 . S
O15 C3 1.281 . S
O16 Mn0 2.297 . S
O16 C3 1.236 . S
N17 Mn1 2.282 . S
N17 C18 1.328 . S
N17 C22 1.318 . S
C18 N17 1.328 . S
C18 C19 1.457 . S
C18 H23 0.929 . S
C19 C18 1.457 . S
C19 C20 1.291 . S
C19 H32 0.931 . S
C20 C19 1.291 . S
C20 C21 1.373 . S
C20 H33 0.929 . S
C21 C20 1.373 . S
C21 C22 1.396 . S
C21 C28 1.403 1_455 S
C22 C12 1.476 1_455 S
C22 N17 1.318 . S
C22 C21 1.396 . S
H23 C18 0.929 . S
O24 Mn0 2.385 . S
O24 C2 1.234 . S
O25 Mn0 2.209 . S
O25 Mn1 2.215 . S
O25 C2 1.283 . S
O26 Mn0 2.094 . S
O26 C4 1.240 . S
O27 Mn1 2.117 . S
O27 C4 1.264 . S
C28 C21 1.403 1_655 S
C28 C29 1.399 . S
C28 H34 0.929 . S
C29 C9 1.449 . S
C29 C28 1.399 . S
C29 H35 0.930 . S
H30 C10 0.931 . S
H31 C11 0.930 1_556 S
H32 C19 0.931 . S
H33 C20 0.929 . S
H34 C28 0.929 . S
H35 C29 0.930 . S
Mn36 O41 2.095 1_554 S
Mn36 O51 2.162 . S
Mn36 O52 2.297 . S
Mn36 O60 2.385 . S
Mn36 O61 2.209 . S
Mn36 O62 2.094 . S
Mn37 O42 2.121 1_554 S
Mn37 N44 2.257 1_655 S
Mn37 N53 2.282 . S
Mn37 O61 2.215 . S
Mn37 O63 2.117 . S
C38 O60 1.234 . S
C38 O61 1.283 . S
C39 O51 1.281 . S
C39 O52 1.236 . S
C40 O62 1.240 . S
C40 O63 1.264 . S
O41 Mn36 2.095 1_556 S
O41 C50 1.250 . S
O42 Mn37 2.121 1_556 S
O42 C50 1.258 . S
C43 N44 1.320 1_556 S
C43 C47 1.457 1_556 S
C43 H49 0.938 . S
N44 Mn37 2.257 1_455 S
N44 C43 1.320 1_554 S
N44 C48 1.362 . S
C45 C46 1.258 . S
C45 C48 1.431 . S
C45 C65 1.449 . S
C46 C45 1.258 . S
C46 C47 1.477 . S
C46 H66 0.931 . S
C47 C43 1.457 1_554 S
C47 C46 1.477 . S
C47 H67 0.930 1_554 S
C48 N44 1.362 . S
C48 C45 1.431 . S
C48 C58 1.476 1_455 S
H49 C43 0.938 . S
C50 O41 1.250 . S
C50 O42 1.258 . S
O51 Mn36 2.162 . S
O51 C39 1.281 . S
O52 Mn36 2.297 . S
O52 C39 1.236 . S
N53 Mn37 2.282 . S
N53 C54 1.328 . S
N53 C58 1.318 . S
C54 N53 1.328 . S
C54 C55 1.457 . S
C54 H59 0.929 . S
C55 C54 1.457 . S
C55 C56 1.291 . S
C55 H68 0.931 . S
C56 C55 1.291 . S
C56 C57 1.373 . S
C56 H69 0.929 . S
C57 C56 1.373 . S
C57 C58 1.396 . S
C57 C64 1.403 1_655 S
C58 C48 1.476 1_655 S
C58 N53 1.318 . S
C58 C57 1.396 . S
H59 C54 0.929 . S
O60 Mn36 2.385 . S
O60 C38 1.234 . S
O61 Mn36 2.209 . S
O61 Mn37 2.215 . S
O61 C38 1.283 . S
O62 Mn36 2.094 . S
O62 C40 1.240 . S
O63 Mn37 2.117 . S
O63 C40 1.264 . S
C64 C57 1.403 1_455 S
C64 C65 1.399 . S
C64 H70 0.929 . S
C65 C45 1.449 . S
C65 C64 1.399 . S
C65 H71 0.930 . S
H66 C46 0.931 . S
H67 C47 0.930 1_556 S
H68 C55 0.931 . S
H69 C56 0.929 . S
H70 C64 0.929 . S
H71 C65 0.930 . S
Mn72 O77 2.095 . S
Mn72 O87 2.162 . S
Mn72 O88 2.297 . S
Mn72 O96 2.385 . S
Mn72 O97 2.209 . S
Mn72 O98 2.094 . S
Mn73 O78 2.121 . S
Mn73 N80 2.257 1_455 S
Mn73 N89 2.282 . S
Mn73 O97 2.215 . S
Mn73 O99 2.117 . S
C74 O96 1.234 . S
C74 O97 1.283 . S
C75 O87 1.281 . S
C75 O88 1.236 . S
C76 O98 1.240 . S
C76 O99 1.264 . S
O77 Mn72 2.095 . S
O77 C86 1.250 . S
O78 Mn73 2.121 . S
O78 C86 1.258 . S
C79 N80 1.326 . S
C79 C83 1.460 . S
C79 H85 0.929 . S
N80 Mn73 2.257 1_655 S
N80 C79 1.326 . S
N80 C84 1.362 . S
C81 C82 1.258 . S
C81 C84 1.431 . S
C81 C101 1.449 . S
C82 C81 1.258 . S
C82 C83 1.477 . S
C82 H102 0.931 . S
C83 C79 1.460 . S
C83 C82 1.477 . S
C83 H103 0.930 . S
C84 N80 1.362 . S
C84 C81 1.431 . S
C84 C94 1.476 1_655 S
H85 C79 0.929 . S
C86 O77 1.250 . S
C86 O78 1.258 . S
O87 Mn72 2.162 . S
O87 C75 1.281 . S
O88 Mn72 2.297 . S
O88 C75 1.236 . S
N89 Mn73 2.282 . S
N89 C90 1.328 . S
N89 C94 1.318 . S
C90 N89 1.328 . S
C90 C91 1.457 . S
C90 H95 0.929 . S
C91 C90 1.457 . S
C91 C92 1.291 . S
C91 H104 0.931 . S
C92 C91 1.291 . S
C92 C93 1.373 . S
C92 H105 0.929 . S
C93 C92 1.373 . S
C93 C94 1.396 . S
C93 C100 1.403 1_455 S
C94 C84 1.476 1_455 S
C94 N89 1.318 . S
C94 C93 1.396 . S
H95 C90 0.929 . S
O96 Mn72 2.385 . S
O96 C74 1.234 . S
O97 Mn72 2.209 . S
O97 Mn73 2.215 . S
O97 C74 1.283 . S
O98 Mn72 2.094 . S
O98 C76 1.240 . S
O99 Mn73 2.117 . S
O99 C76 1.264 . S
C100 C93 1.403 1_655 S
C100 C101 1.399 . S
C100 H106 0.929 . S
C101 C81 1.449 . S
C101 C100 1.399 . S
C101 H107 0.930 . S
H102 C82 0.931 . S
H103 C83 0.930 . S
H104 C91 0.931 . S
H105 C92 0.929 . S
H106 C100 0.929 . S
H107 C101 0.930 . S
Mn108 O113 2.095 . S
Mn108 O123 2.162 . S
Mn108 O124 2.297 . S
Mn108 O132 2.385 . S
Mn108 O133 2.209 . S
Mn108 O134 2.094 . S
Mn109 O114 2.121 . S
Mn109 N116 2.257 1_655 S
Mn109 N125 2.282 . S
Mn109 O133 2.215 . S
Mn109 O135 2.117 . S
C110 O132 1.234 . S
C110 O133 1.283 . S
C111 O123 1.281 . S
C111 O124 1.236 . S
C112 O134 1.240 . S
C112 O135 1.264 . S
O113 Mn108 2.095 . S
O113 C122 1.250 . S
O114 Mn109 2.121 . S
O114 C122 1.258 . S
C115 N116 1.326 . S
C115 C119 1.460 . S
C115 H121 0.929 . S
N116 Mn109 2.257 1_455 S
N116 C115 1.326 . S
N116 C120 1.362 . S
C117 C118 1.258 . S
C117 C120 1.431 . S
C117 C137 1.449 . S
C118 C117 1.258 . S
C118 C119 1.477 . S
C118 H138 0.931 . S
C119 C115 1.460 . S
C119 C118 1.477 . S
C119 H139 0.930 . S
C120 N116 1.362 . S
C120 C117 1.431 . S
C120 C130 1.476 1_455 S
H121 C115 0.929 . S
C122 O113 1.250 . S
C122 O114 1.258 . S
O123 Mn108 2.162 . S
O123 C111 1.281 . S
O124 Mn108 2.297 . S
O124 C111 1.236 . S
N125 Mn109 2.282 . S
N125 C126 1.328 . S
N125 C130 1.318 . S
C126 N125 1.328 . S
C126 C127 1.457 . S
C126 H131 0.929 . S
C127 C126 1.457 . S
C127 C128 1.291 . S
C127 H140 0.931 . S
C128 C127 1.291 . S
C128 C129 1.373 . S
C128 H141 0.929 . S
C129 C128 1.373 . S
C129 C130 1.396 . S
C129 C136 1.403 1_655 S
C130 C120 1.476 1_655 S
C130 N125 1.318 . S
C130 C129 1.396 . S
H131 C126 0.929 . S
O132 Mn108 2.385 . S
O132 C110 1.234 . S
O133 Mn108 2.209 . S
O133 Mn109 2.215 . S
O133 C110 1.283 . S
O134 Mn108 2.094 . S
O134 C112 1.240 . S
O135 Mn109 2.117 . S
O135 C112 1.264 . S
C136 C129 1.403 1_455 S
C136 C137 1.399 . S
C136 H142 0.929 . S
C137 C117 1.449 . S
C137 C136 1.399 . S
C137 H143 0.930 . S
H138 C118 0.931 . S
H139 C119 0.930 . S
H140 C127 0.931 . S
H141 C128 0.929 . S
H142 C136 0.929 . S
H143 C137 0.930 . S
Mn144 O149 2.095 1_554 S
Mn144 O159 2.162 . S
Mn144 O160 2.297 . S
Mn144 O168 2.385 . S
Mn144 O169 2.209 . S
Mn144 O170 2.094 . S
Mn145 O150 2.121 1_554 S
Mn145 N152 2.257 . S
Mn145 N161 2.282 . S
Mn145 O169 2.215 . S
Mn145 O171 2.117 . S
C146 O168 1.234 . S
C146 O169 1.283 . S
C147 O159 1.281 . S
C147 O160 1.236 . S
C148 O170 1.240 . S
C148 O171 1.264 . S
O149 Mn144 2.095 1_556 S
O149 C158 1.250 . S
O150 Mn145 2.121 1_556 S
O150 C158 1.258 . S
C151 N152 1.320 1_556 S
C151 C155 1.457 1_556 S
C151 H157 0.939 . S
N152 Mn145 2.257 . S
N152 C151 1.320 1_554 S
N152 C156 1.362 . S
C153 C154 1.258 . S
C153 C156 1.431 . S
C153 C173 1.449 . S
C154 C153 1.258 . S
C154 C155 1.477 . S
C154 H174 0.931 . S
C155 C151 1.457 1_554 S
C155 C154 1.477 . S
C155 H175 0.930 1_554 S
C156 N152 1.362 . S
C156 C153 1.431 . S
C156 C166 1.476 . S
H157 C151 0.939 . S
C158 O149 1.250 . S
C158 O150 1.258 . S
O159 Mn144 2.162 . S
O159 C147 1.281 . S
O160 Mn144 2.297 . S
O160 C147 1.236 . S
N161 Mn145 2.282 . S
N161 C162 1.328 . S
N161 C166 1.318 . S
C162 N161 1.328 . S
C162 C163 1.457 . S
C162 H167 0.929 . S
C163 C162 1.457 . S
C163 C164 1.291 . S
C163 H176 0.931 . S
C164 C163 1.291 . S
C164 C165 1.373 . S
C164 H177 0.929 . S
C165 C164 1.373 . S
C165 C166 1.396 . S
C165 C172 1.403 . S
C166 C156 1.476 . S
C166 N161 1.318 . S
C166 C165 1.396 . S
H167 C162 0.929 . S
O168 Mn144 2.385 . S
O168 C146 1.234 . S
O169 Mn144 2.209 . S
O169 Mn145 2.215 . S
O169 C146 1.283 . S
O170 Mn144 2.094 . S
O170 C148 1.240 . S
O171 Mn145 2.117 . S
O171 C148 1.264 . S
C172 C165 1.403 . S
C172 C173 1.399 . S
C172 H178 0.929 . S
C173 C153 1.449 . S
C173 C172 1.399 . S
C173 H179 0.930 . S
H174 C154 0.931 . S
H175 C155 0.930 1_556 S
H176 C163 0.931 . S
H177 C164 0.929 . S
H178 C172 0.929 . S
H179 C173 0.930 . S
Mn180 O185 2.095 1_554 S
Mn180 O195 2.162 . S
Mn180 O196 2.297 . S
Mn180 O204 2.385 . S
Mn180 O205 2.209 . S
Mn180 O206 2.094 . S
Mn181 O186 2.121 1_554 S
Mn181 N188 2.257 . S
Mn181 N197 2.282 . S
Mn181 O205 2.215 . S
Mn181 O207 2.117 . S
C182 O204 1.234 . S
C182 O205 1.283 . S
C183 O195 1.281 . S
C183 O196 1.236 . S
C184 O206 1.240 . S
C184 O207 1.264 . S
O185 Mn180 2.095 1_556 S
O185 C194 1.250 . S
O186 Mn181 2.121 1_556 S
O186 C194 1.258 . S
C187 N188 1.320 1_556 S
C187 C191 1.457 1_556 S
C187 H193 0.939 . S
N188 Mn181 2.257 . S
N188 C187 1.320 1_554 S
N188 C192 1.362 . S
C189 C190 1.258 . S
C189 C192 1.431 . S
C189 C209 1.449 . S
C190 C189 1.258 . S
C190 C191 1.477 . S
C190 H210 0.931 . S
C191 C187 1.457 1_554 S
C191 C190 1.477 . S
C191 H211 0.930 1_554 S
C192 N188 1.362 . S
C192 C189 1.431 . S
C192 C202 1.476 . S
H193 C187 0.939 . S
C194 O185 1.250 . S
C194 O186 1.258 . S
O195 Mn180 2.162 . S
O195 C183 1.281 . S
O196 Mn180 2.297 . S
O196 C183 1.236 . S
N197 Mn181 2.282 . S
N197 C198 1.328 . S
N197 C202 1.318 . S
C198 N197 1.328 . S
C198 C199 1.457 . S
C198 H203 0.929 . S
C199 C198 1.457 . S
C199 C200 1.291 . S
C199 H212 0.931 . S
C200 C199 1.291 . S
C200 C201 1.373 . S
C200 H213 0.929 . S
C201 C200 1.373 . S
C201 C202 1.396 . S
C201 C208 1.403 . S
C202 C192 1.476 . S
C202 N197 1.318 . S
C202 C201 1.396 . S
H203 C198 0.929 . S
O204 Mn180 2.385 . S
O204 C182 1.234 . S
O205 Mn180 2.209 . S
O205 Mn181 2.215 . S
O205 C182 1.283 . S
O206 Mn180 2.094 . S
O206 C184 1.240 . S
O207 Mn181 2.117 . S
O207 C184 1.264 . S
C208 C201 1.403 . S
C208 C209 1.399 . S
C208 H214 0.929 . S
C209 C189 1.449 . S
C209 C208 1.399 . S
C209 H215 0.930 . S
H210 C190 0.931 . S
H211 C191 0.930 1_556 S
H212 C199 0.931 . S
H213 C200 0.929 . S
H214 C208 0.929 . S
H215 C209 0.930 . S
Mn216 O221 2.095 . S
Mn216 O231 2.162 . S
Mn216 O232 2.297 . S
Mn216 O240 2.385 . S
Mn216 O241 2.209 . S
Mn216 O242 2.094 . S
Mn217 O222 2.121 . S
Mn217 N224 2.257 . S
Mn217 N233 2.282 . S
Mn217 O241 2.215 . S
Mn217 O243 2.117 . S
C218 O240 1.234 . S
C218 O241 1.283 . S
C219 O231 1.281 . S
C219 O232 1.236 . S
C220 O242 1.240 . S
C220 O243 1.264 . S
O221 Mn216 2.095 . S
O221 C230 1.250 . S
O222 Mn217 2.121 . S
O222 C230 1.258 . S
C223 N224 1.326 . S
C223 C227 1.460 . S
C223 H229 0.929 . S
N224 Mn217 2.257 . S
N224 C223 1.326 . S
N224 C228 1.362 . S
C225 C226 1.258 . S
C225 C228 1.431 . S
C225 C245 1.449 . S
C226 C225 1.258 . S
C226 C227 1.477 . S
C226 H246 0.931 . S
C227 C223 1.460 . S
C227 C226 1.477 . S
C227 H247 0.930 . S
C228 N224 1.362 . S
C228 C225 1.431 . S
C228 C238 1.476 . S
H229 C223 0.929 . S
C230 O221 1.250 . S
C230 O222 1.258 . S
O231 Mn216 2.162 . S
O231 C219 1.281 . S
O232 Mn216 2.297 . S
O232 C219 1.236 . S
N233 Mn217 2.282 . S
N233 C234 1.328 . S
N233 C238 1.318 . S
C234 N233 1.328 . S
C234 C235 1.457 . S
C234 H239 0.929 . S
C235 C234 1.457 . S
C235 C236 1.291 . S
C235 H248 0.931 . S
C236 C235 1.291 . S
C236 C237 1.373 . S
C236 H249 0.929 . S
C237 C236 1.373 . S
C237 C238 1.396 . S
C237 C244 1.403 . S
C238 C228 1.476 . S
C238 N233 1.318 . S
C238 C237 1.396 . S
H239 C234 0.929 . S
O240 Mn216 2.385 . S
O240 C218 1.234 . S
O241 Mn216 2.209 . S
O241 Mn217 2.215 . S
O241 C218 1.283 . S
O242 Mn216 2.094 . S
O242 C220 1.240 . S
O243 Mn217 2.117 . S
O243 C220 1.264 . S
C244 C237 1.403 . S
C244 C245 1.399 . S
C244 H250 0.929 . S
C245 C225 1.449 . S
C245 C244 1.399 . S
C245 H251 0.930 . S
H246 C226 0.931 . S
H247 C227 0.930 . S
H248 C235 0.931 . S
H249 C236 0.929 . S
H250 C244 0.929 . S
H251 C245 0.930 . S
Mn252 O257 2.095 . S
Mn252 O267 2.162 . S
Mn252 O268 2.297 . S
Mn252 O276 2.385 . S
Mn252 O277 2.209 . S
Mn252 O278 2.094 . S
Mn253 O258 2.121 . S
Mn253 N260 2.257 . S
Mn253 N269 2.282 . S
Mn253 O277 2.215 . S
Mn253 O279 2.117 . S
C254 O276 1.234 . S
C254 O277 1.283 . S
C255 O267 1.281 . S
C255 O268 1.236 . S
C256 O278 1.240 . S
C256 O279 1.264 . S
O257 Mn252 2.095 . S
O257 C266 1.250 . S
O258 Mn253 2.121 . S
O258 C266 1.258 . S
C259 N260 1.326 . S
C259 C263 1.460 . S
C259 H265 0.929 . S
N260 Mn253 2.257 . S
N260 C259 1.326 . S
N260 C264 1.362 . S
C261 C262 1.258 . S
C261 C264 1.431 . S
C261 C281 1.449 . S
C262 C261 1.258 . S
C262 C263 1.477 . S
C262 H282 0.931 . S
C263 C259 1.460 . S
C263 C262 1.477 . S
C263 H283 0.930 . S
C264 N260 1.362 . S
C264 C261 1.431 . S
C264 C274 1.476 . S
H265 C259 0.929 . S
C266 O257 1.250 . S
C266 O258 1.258 . S
O267 Mn252 2.162 . S
O267 C255 1.281 . S
O268 Mn252 2.297 . S
O268 C255 1.236 . S
N269 Mn253 2.282 . S
N269 C270 1.328 . S
N269 C274 1.318 . S
C270 N269 1.328 . S
C270 C271 1.457 . S
C270 H275 0.929 . S
C271 C270 1.457 . S
C271 C272 1.291 . S
C271 H284 0.931 . S
C272 C271 1.291 . S
C272 C273 1.373 . S
C272 H285 0.929 . S
C273 C272 1.373 . S
C273 C274 1.396 . S
C273 C280 1.403 . S
C274 C264 1.476 . S
C274 N269 1.318 . S
C274 C273 1.396 . S
H275 C270 0.929 . S
O276 Mn252 2.385 . S
O276 C254 1.234 . S
O277 Mn252 2.209 . S
O277 Mn253 2.215 . S
O277 C254 1.283 . S
O278 Mn252 2.094 . S
O278 C256 1.240 . S
O279 Mn253 2.117 . S
O279 C256 1.264 . S
C280 C273 1.403 . S
C280 C281 1.399 . S
C280 H286 0.929 . S
C281 C261 1.449 . S
C281 C280 1.399 . S
C281 H287 0.930 . S
H282 C262 0.931 . S
H283 C263 0.930 . S
H284 C271 0.931 . S
H285 C272 0.929 . S
H286 C280 0.929 . S
H287 C281 0.930 . S
H288 C294 0.930 . S
H289 C297 0.930 . S
H290 C298 0.935 . S
H291 C299 0.930 . S
H292 C302 0.930 . S
H293 C303 0.935 . S
C294 H288 0.930 . S
C294 C295 1.355 1_556 S
C294 C296 1.415 . S
C295 C294 1.355 1_554 S
C295 C297 1.419 . S
C296 C294 1.415 . S
C296 C301 1.425 1_666 S
C296 C303 1.411 1_565 S
C297 H289 0.930 . S
C297 C295 1.419 . S
C297 C298 1.357 1_655 S
C298 H290 0.935 . S
C298 C297 1.357 1_455 S
C298 C301 1.411 1_565 S
C299 H291 0.930 . S
C299 C300 1.355 . S
C299 C301 1.415 . S
C300 C299 1.355 . S
C300 C302 1.419 1_554 S
C301 C296 1.425 1_444 S
C301 C298 1.411 1_545 S
C301 C299 1.415 . S
C302 H292 0.930 . S
C302 C300 1.419 1_556 S
C302 C303 1.357 1_455 S
C303 H293 0.935 . S
C303 C296 1.411 1_545 S
C303 C302 1.357 1_655 S
H304 C310 0.930 . S
H305 C313 0.930 . S
H306 C314 0.930 1_545 S
H307 C315 0.930 . S
H308 C318 0.930 . S
H309 C319 0.930 1_565 S
C310 H304 0.930 . S
C310 C311 1.355 1_655 S
C310 C312 1.415 . S
C311 C310 1.355 1_455 S
C311 C313 1.419 . S
C312 C310 1.415 . S
C312 C317 1.425 1_665 S
C312 C319 1.409 1_565 S
C313 H305 0.930 . S
C313 C311 1.419 . S
C313 C314 1.362 . S
C314 H306 0.930 1_565 S
C314 C313 1.362 . S
C314 C317 1.409 1_565 S
C315 H307 0.930 . S
C315 C316 1.355 1_455 S
C315 C317 1.415 . S
C316 C315 1.355 1_655 S
C316 C318 1.419 . S
C317 C312 1.425 1_445 S
C317 C314 1.409 1_545 S
C317 C315 1.415 . S
C318 H308 0.930 . S
C318 C316 1.419 . S
C318 C319 1.362 . S
C319 H309 0.930 1_545 S
C319 C312 1.409 1_545 S
C319 C318 1.362 . S
H320 C326 0.930 . S
H321 C329 0.930 . S
H322 C330 0.930 . S
H323 C331 0.930 . S
H324 C334 0.930 . S
H325 C335 0.930 . S
C326 H320 0.930 . S
C326 C327 1.355 . S
C326 C328 1.415 . S
C327 C326 1.355 . S
C327 C329 1.419 1_554 S
C328 C326 1.415 . S
C328 C333 1.425 1_554 S
C328 C335 1.409 . S
C329 H321 0.930 . S
C329 C327 1.419 1_556 S
C329 C330 1.362 . S
C330 H322 0.930 . S
C330 C329 1.362 . S
C330 C333 1.409 . S
C331 H323 0.930 . S
C331 C332 1.355 1_556 S
C331 C333 1.415 . S
C332 C331 1.355 1_554 S
C332 C334 1.419 . S
C333 C328 1.425 1_556 S
C333 C330 1.409 . S
C333 C331 1.415 . S
C334 H324 0.930 . S
C334 C332 1.419 . S
C334 C335 1.362 . S
C335 H325 0.930 . S
C335 C328 1.409 . S
C335 C334 1.362 . S
H336 C342 0.930 . S
H337 C345 0.930 . S
H338 C346 0.930 . S
H339 C347 0.930 . S
H340 C350 0.930 . S
H341 C351 0.930 . S
C342 H336 0.930 . S
C342 C343 1.355 . S
C342 C344 1.415 . S
C343 C342 1.355 . S
C343 C345 1.419 . S
C344 C342 1.415 . S
C344 C349 1.425 . S
C344 C351 1.409 . S
C345 H337 0.930 . S
C345 C343 1.419 . S
C345 C346 1.362 . S
C346 H338 0.930 . S
C346 C345 1.362 . S
C346 C349 1.409 . S
C347 H339 0.930 . S
C347 C348 1.355 . S
C347 C349 1.415 . S
C348 C347 1.355 . S
C348 C350 1.419 . S
C349 C344 1.425 . S
C349 C346 1.409 . S
C349 C347 1.415 . S
C350 H340 0.930 . S
C350 C348 1.419 . S
C350 C351 1.362 . S
C351 H341 0.930 . S
C351 C344 1.409 . S
C351 C350 1.362 . S
H352 C358 0.930 . S
H353 C361 0.930 . S
H354 C362 0.930 . S
H355 C363 0.930 . S
H356 C366 0.930 . S
H357 C367 0.930 . S
C358 H352 0.930 . S
C358 C359 1.355 1_655 S
C358 C360 1.415 . S
C359 C358 1.355 1_455 S
C359 C361 1.419 . S
C360 C358 1.415 . S
C360 C365 1.425 1_655 S
C360 C367 1.409 . S
C361 H353 0.930 . S
C361 C359 1.419 . S
C361 C362 1.362 . S
C362 H354 0.930 . S
C362 C361 1.362 . S
C362 C365 1.409 . S
C363 H355 0.930 . S
C363 C364 1.355 1_455 S
C363 C365 1.415 . S
C364 C363 1.355 1_655 S
C364 C366 1.419 . S
C365 C360 1.425 1_455 S
C365 C362 1.409 . S
C365 C363 1.415 . S
C366 H356 0.930 . S
C366 C364 1.419 . S
C366 C367 1.362 . S
C367 H357 0.930 . S
C367 C360 1.409 . S
C367 C366 1.362 . S
H368 C374 0.930 . S
H369 C377 0.930 . S
H370 C378 0.930 . S
H371 C379 0.930 . S
H372 C382 0.930 . S
H373 C383 0.930 . S
C374 H368 0.930 . S
C374 C375 1.354 1_455 S
C374 C376 1.415 . S
C375 C374 1.354 1_655 S
C375 C377 1.420 . S
C376 C374 1.415 . S
C376 C381 1.425 1_455 S
C376 C383 1.409 . S
C377 H369 0.930 . S
C377 C375 1.420 . S
C377 C378 1.362 . S
C378 H370 0.930 . S
C378 C377 1.362 . S
C378 C381 1.409 . S
C379 H371 0.930 . S
C379 C380 1.354 1_655 S
C379 C381 1.415 . S
C380 C379 1.354 1_455 S
C380 C382 1.420 . S
C381 C376 1.425 1_655 S
C381 C378 1.409 . S
C381 C379 1.415 . S
C382 H372 0.930 . S
C382 C380 1.420 . S
C382 C383 1.362 . S
C383 H373 0.930 . S
C383 C376 1.409 . S
C383 C382 1.362 . S
H384 C390 0.930 . S
H385 C393 0.930 . S
H386 C394 0.930 . S
H387 C395 0.930 . S
H388 C398 0.930 . S
H389 C399 0.930 . S
C390 H384 0.930 . S
C390 C391 1.355 1_655 S
C390 C392 1.415 . S
C391 C390 1.355 1_455 S
C391 C393 1.419 . S
C392 C390 1.415 . S
C392 C397 1.425 1_655 S
C392 C399 1.409 . S
C393 H385 0.930 . S
C393 C391 1.419 . S
C393 C394 1.362 . S
C394 H386 0.930 . S
C394 C393 1.362 . S
C394 C397 1.409 . S
C395 H387 0.930 . S
C395 C396 1.355 1_455 S
C395 C397 1.415 . S
C396 C395 1.355 1_655 S
C396 C398 1.419 . S
C397 C392 1.425 1_455 S
C397 C394 1.409 . S
C397 C395 1.415 . S
C398 H388 0.930 . S
C398 C396 1.419 . S
C398 C399 1.362 . S
C399 H389 0.930 . S
C399 C392 1.409 . S
C399 C398 1.362 . S
H400 C406 0.930 . S
H401 C409 0.930 . S
H402 C410 0.930 . S
H403 C411 0.930 . S
H404 C414 0.930 . S
H405 C415 0.930 . S
C406 H400 0.930 . S
C406 C407 1.355 1_655 S
C406 C408 1.415 . S
C407 C406 1.355 1_455 S
C407 C409 1.419 . S
C408 C406 1.415 . S
C408 C413 1.425 1_655 S
C408 C415 1.409 . S
C409 H401 0.930 . S
C409 C407 1.419 . S
C409 C410 1.362 . S
C410 H402 0.930 . S
C410 C409 1.362 . S
C410 C413 1.409 . S
C411 H403 0.930 . S
C411 C412 1.355 1_455 S
C411 C413 1.415 . S
C412 C411 1.355 1_655 S
C412 C414 1.419 . S
C413 C408 1.425 1_455 S
C413 C410 1.409 . S
C413 C411 1.415 . S
C414 H404 0.930 . S
C414 C412 1.419 . S
C414 C415 1.362 . S
C415 H405 0.930 . S
C415 C408 1.409 . S
C415 C414 1.362 . S
H416 C422 0.930 . S
H417 C425 0.930 . S
H418 C426 0.930 . S
H419 C427 0.930 . S
H420 C430 0.930 . S
H421 C431 0.930 . S
C422 H416 0.930 . S
C422 C423 1.355 . S
C422 C424 1.415 . S
C423 C422 1.355 . S
C423 C425 1.419 . S
C424 C422 1.415 . S
C424 C429 1.425 . S
C424 C431 1.409 . S
C425 H417 0.930 . S
C425 C423 1.419 . S
C425 C426 1.362 . S
C426 H418 0.930 . S
C426 C425 1.362 . S
C426 C429 1.409 . S
C427 H419 0.930 . S
C427 C428 1.355 . S
C427 C429 1.415 . S
C428 C427 1.355 . S
C428 C430 1.419 . S
C429 C424 1.425 . S
C429 C426 1.409 . S
C429 C427 1.415 . S
C430 H420 0.930 . S
C430 C428 1.419 . S
C430 C431 1.362 . S
C431 H421 0.930 . S
C431 C424 1.409 . S
C431 C430 1.362 . S
H432 C438 0.930 . S
H433 C441 0.930 . S
H434 C442 0.930 . S
H435 C443 0.930 . S
H436 C446 0.930 . S
H437 C447 0.930 . S
C438 H432 0.930 . S
C438 C439 1.355 . S
C438 C440 1.415 . S
C439 C438 1.355 . S
C439 C441 1.419 . S
C440 C438 1.415 . S
C440 C445 1.425 . S
C440 C447 1.409 . S
C441 H433 0.930 . S
C441 C439 1.419 . S
C441 C442 1.362 . S
C442 H434 0.930 . S
C442 C441 1.362 . S
C442 C445 1.409 . S
C443 H435 0.930 . S
C443 C444 1.355 . S
C443 C445 1.415 . S
C444 C443 1.355 . S
C444 C446 1.419 . S
C445 C440 1.425 . S
C445 C442 1.409 . S
C445 C443 1.415 . S
C446 H436 0.930 . S
C446 C444 1.419 . S
C446 C447 1.362 . S
C447 H437 0.930 . S
C447 C440 1.409 . S
C447 C446 1.362 . S
H448 C454 0.930 . S
H449 C457 0.930 . S
H450 C458 0.930 . S
H451 C459 0.930 . S
H452 C462 0.930 . S
H453 C463 0.930 . S
C454 H448 0.930 . S
C454 C455 1.355 . S
C454 C456 1.415 . S
C455 C454 1.355 . S
C455 C457 1.419 . S
C456 C454 1.415 . S
C456 C461 1.425 . S
C456 C463 1.409 . S
C457 H449 0.930 . S
C457 C455 1.419 . S
C457 C458 1.362 . S
C458 H450 0.930 . S
C458 C457 1.362 . S
C458 C461 1.409 . S
C459 H451 0.930 . S
C459 C460 1.355 . S
C459 C461 1.415 . S
C460 C459 1.355 . S
C460 C462 1.419 . S
C461 C456 1.425 . S
C461 C458 1.409 . S
C461 C459 1.415 . S
C462 H452 0.930 . S
C462 C460 1.419 . S
C462 C463 1.362 . S
C463 H453 0.930 . S
C463 C456 1.409 . S
C463 C462 1.362 . S
H464 C470 0.930 . S
H465 C473 0.930 . S
H466 C474 0.930 . S
H467 C475 0.930 . S
H468 C478 0.930 . S
H469 C479 0.930 . S
C470 H464 0.930 . S
C470 C471 1.355 . S
C470 C472 1.415 . S
C471 C470 1.355 . S
C471 C473 1.419 . S
C472 C470 1.415 . S
C472 C477 1.425 . S
C472 C479 1.409 . S
C473 H465 0.930 . S
C473 C471 1.419 . S
C473 C474 1.362 . S
C474 H466 0.930 . S
C474 C473 1.362 . S
C474 C477 1.409 . S
C475 H467 0.930 . S
C475 C476 1.355 . S
C475 C477 1.415 . S
C476 C475 1.355 . S
C476 C478 1.419 . S
C477 C472 1.425 . S
C477 C474 1.409 . S
C477 C475 1.415 . S
C478 H468 0.930 . S
C478 C476 1.419 . S
C478 C479 1.362 . S
C479 H469 0.930 . S
C479 C472 1.409 . S
C479 C478 1.362 . S
H480 C486 0.930 . S
H481 C489 0.930 . S
H482 C490 0.930 . S
H483 C491 0.929 1_556 S
H484 C494 0.930 . S
H485 C495 0.930 . S
C486 H480 0.930 . S
C486 C487 1.355 . S
C486 C488 1.415 . S
C487 C486 1.355 . S
C487 C489 1.419 1_554 S
C488 C486 1.415 . S
C488 C493 1.425 . S
C488 C495 1.409 . S
C489 H481 0.930 . S
C489 C487 1.419 1_556 S
C489 C490 1.362 . S
C490 H482 0.930 . S
C490 C489 1.362 . S
C490 C493 1.409 1_556 S
C491 H483 0.929 1_554 S
C491 C492 1.355 . S
C491 C493 1.415 . S
C492 C491 1.355 . S
C492 C494 1.419 . S
C493 C488 1.425 . S
C493 C490 1.409 1_554 S
C493 C491 1.415 . S
C494 H484 0.930 . S
C494 C492 1.419 . S
C494 C495 1.362 . S
C495 H485 0.930 . S
C495 C488 1.409 . S
C495 C494 1.362 . S
H496 C502 0.930 . S
H497 C505 0.930 . S
H498 C506 0.930 . S
H499 C507 0.930 . S
H500 C510 0.930 . S
H501 C511 0.930 . S
C502 H496 0.930 . S
C502 C503 1.355 1_556 S
C502 C504 1.415 . S
C503 C502 1.355 1_554 S
C503 C505 1.419 . S
C504 C502 1.415 . S
C504 C509 1.425 1_556 S
C504 C511 1.409 . S
C505 H497 0.930 . S
C505 C503 1.419 . S
C505 C506 1.362 . S
C506 H498 0.930 . S
C506 C505 1.362 . S
C506 C509 1.409 . S
C507 H499 0.930 . S
C507 C508 1.355 . S
C507 C509 1.415 . S
C508 C507 1.355 . S
C508 C510 1.419 1_554 S
C509 C504 1.425 1_554 S
C509 C506 1.409 . S
C509 C507 1.415 . S
C510 H500 0.930 . S
C510 C508 1.419 1_556 S
C510 C511 1.362 . S
C511 H501 0.930 . S
C511 C504 1.409 . S
C511 C510 1.362 . S
H512 C518 0.930 . S
H513 C521 0.930 . S
H514 C522 0.930 . S
H515 C523 0.930 . S
H516 C526 0.930 . S
H517 C527 0.930 . S
C518 H512 0.930 . S
C518 C519 1.355 . S
C518 C520 1.415 . S
C519 C518 1.355 . S
C519 C521 1.419 . S
C520 C518 1.415 . S
C520 C525 1.425 . S
C520 C527 1.409 . S
C521 H513 0.930 . S
C521 C519 1.419 . S
C521 C522 1.362 . S
C522 H514 0.930 . S
C522 C521 1.362 . S
C522 C525 1.409 . S
C523 H515 0.930 . S
C523 C524 1.355 . S
C523 C525 1.415 . S
C524 C523 1.355 . S
C524 C526 1.419 . S
C525 C520 1.425 . S
C525 C522 1.409 . S
C525 C523 1.415 . S
C526 H516 0.930 . S
C526 C524 1.419 . S
C526 C527 1.362 . S
C527 H517 0.930 . S
C527 C520 1.409 . S
C527 C526 1.362 . S
H528 C534 0.930 . S
H529 C537 0.930 . S
H530 C538 0.930 . S
H531 C539 0.930 . S
H532 C542 0.930 . S
H533 C543 0.930 . S
C534 H528 0.930 . S
C534 C535 1.355 . S
C534 C536 1.415 . S
C535 C534 1.355 . S
C535 C537 1.419 . S
C536 C534 1.415 . S
C536 C541 1.425 . S
C536 C543 1.409 . S
C537 H529 0.930 . S
C537 C535 1.419 . S
C537 C538 1.362 . S
C538 H530 0.930 . S
C538 C537 1.362 . S
C538 C541 1.409 . S
C539 H531 0.930 . S
C539 C540 1.355 . S
C539 C541 1.415 . S
C540 C539 1.355 . S
C540 C542 1.419 . S
C541 C536 1.425 . S
C541 C538 1.409 . S
C541 C539 1.415 . S
C542 H532 0.930 . S
C542 C540 1.419 . S
C542 C543 1.362 . S
C543 H533 0.930 . S
C543 C536 1.409 . S
C543 C542 1.362 . S
C295 C39 1.506 . S
C300 C3 1.496 . S
C311 C75 1.507 . S
C316 C111 1.505 . S
C327 C147 1.498 . S
C332 C183 1.509 . S
C343 C219 1.496 . S
C348 C255 1.506 . S
C359 C2 1.178 . S
C364 C110 1.177 . S
C375 C74 1.272 1_655 S
C380 C38 1.250 1_455 S
C391 C86 1.326 . S
C396 C50 1.292 . S
C407 C14 1.287 . S
C412 C122 1.284 . S
C423 C146 1.193 . S
C428 C254 1.252 . S
C439 C218 1.243 . S
C444 C182 1.274 . S
C455 C194 1.331 . S
C460 C230 1.350 . S
C471 C158 1.349 . S
C476 C266 1.325 . S
C487 C184 1.515 . S
C492 C4 1.512 . S
C503 C148 1.510 . S
C508 C40 1.515 . S
C519 C76 1.515 . S
C524 C256 1.513 . S
C535 C220 1.502 . S
C540 C112 1.503 . S
