# Generated by pormake.
# Topology vbj, (5)-cn, num edge types: 1
# Building blocks:
#     Node 0, Type 0, BuildingBlock: XOMCOT_clean_sbu_0, # of connection points: 5
#     Node 1, Type 0, BuildingBlock: XOMCOT_clean_sbu_0, # of connection points: 5
#     Node 2, Type 0, BuildingBlock: XOMCOT_clean_sbu_0, # of connection points: 5
#     Node 3, Type 0, BuildingBlock: XOMCOT_clean_sbu_0, # of connection points: 5
#     Node 4, Type 0, BuildingBlock: XOMCOT_clean_sbu_0, # of connection points: 5
#     Node 5, Type 0, BuildingBlock: XOMCOT_clean_sbu_0, # of connection points: 5
#     Node 6, Type 0, BuildingBlock: XOMCOT_clean_sbu_0, # of connection points: 5
#     Node 7, Type 0, BuildingBlock: XOMCOT_clean_sbu_0, # of connection points: 5
#     Node 8, Type 0, BuildingBlock: XOMCOT_clean_sbu_0, # of connection points: 5
#     Node 9, Type 0, BuildingBlock: XOMCOT_clean_sbu_0, # of connection points: 5
#     Node 10, Type 0, BuildingBlock: XOMCOT_clean_sbu_0, # of connection points: 5
#     Node 11, Type 0, BuildingBlock: XOMCOT_clean_sbu_0, # of connection points: 5
#     Node 12, Type 0, BuildingBlock: XOMCOT_clean_sbu_0, # of connection points: 5
#     Node 13, Type 0, BuildingBlock: XOMCOT_clean_sbu_0, # of connection points: 5
#     Node 14, Type 0, BuildingBlock: XOMCOT_clean_sbu_0, # of connection points: 5
#     Node 15, Type 0, BuildingBlock: XOMCOT_clean_sbu_0, # of connection points: 5
#     Edge 16, Type (0, 0), BuildingBlock: AJUNOK_clean_linker_0, # of connection points: 2
#     Edge 17, Type (0, 0), BuildingBlock: AJUNOK_clean_linker_0, # of connection points: 2
#     Edge 18, Type (0, 0), BuildingBlock: AJUNOK_clean_linker_0, # of connection points: 2
#     Edge 19, Type (0, 0), BuildingBlock: AJUNOK_clean_linker_0, # of connection points: 2
#     Edge 20, Type (0, 0), BuildingBlock: AJUNOK_clean_linker_0, # of connection points: 2
#     Edge 21, Type (0, 0), BuildingBlock: AJUNOK_clean_linker_0, # of connection points: 2
#     Edge 22, Type (0, 0), BuildingBlock: AJUNOK_clean_linker_0, # of connection points: 2
#     Edge 23, Type (0, 0), BuildingBlock: AJUNOK_clean_linker_0, # of connection points: 2
#     Edge 24, Type (0, 0), BuildingBlock: AJUNOK_clean_linker_0, # of connection points: 2
#     Edge 25, Type (0, 0), BuildingBlock: AJUNOK_clean_linker_0, # of connection points: 2
#     Edge 26, Type (0, 0), BuildingBlock: AJUNOK_clean_linker_0, # of connection points: 2
#     Edge 27, Type (0, 0), BuildingBlock: AJUNOK_clean_linker_0, # of connection points: 2
#     Edge 28, Type (0, 0), BuildingBlock: AJUNOK_clean_linker_0, # of connection points: 2
#     Edge 29, Type (0, 0), BuildingBlock: AJUNOK_clean_linker_0, # of connection points: 2
#     Edge 30, Type (0, 0), BuildingBlock: AJUNOK_clean_linker_0, # of connection points: 2
#     Edge 31, Type (0, 0), BuildingBlock: AJUNOK_clean_linker_0, # of connection points: 2
#     Edge 32, Type (0, 0), BuildingBlock: AJUNOK_clean_linker_0, # of connection points: 2
#     Edge 33, Type (0, 0), BuildingBlock: AJUNOK_clean_linker_0, # of connection points: 2
#     Edge 34, Type (0, 0), BuildingBlock: AJUNOK_clean_linker_0, # of connection points: 2
#     Edge 35, Type (0, 0), BuildingBlock: AJUNOK_clean_linker_0, # of connection points: 2
#     Edge 36, Type (0, 0), BuildingBlock: AJUNOK_clean_linker_0, # of connection points: 2
#     Edge 37, Type (0, 0), BuildingBlock: AJUNOK_clean_linker_0, # of connection points: 2
#     Edge 38, Type (0, 0), BuildingBlock: AJUNOK_clean_linker_0, # of connection points: 2
#     Edge 39, Type (0, 0), BuildingBlock: AJUNOK_clean_linker_0, # of connection points: 2
#     Edge 40, Type (0, 0), BuildingBlock: AJUNOK_clean_linker_0, # of connection points: 2
#     Edge 41, Type (0, 0), BuildingBlock: AJUNOK_clean_linker_0, # of connection points: 2
#     Edge 42, Type (0, 0), BuildingBlock: AJUNOK_clean_linker_0, # of connection points: 2
#     Edge 43, Type (0, 0), BuildingBlock: AJUNOK_clean_linker_0, # of connection points: 2
#     Edge 44, Type (0, 0), BuildingBlock: AJUNOK_clean_linker_0, # of connection points: 2
#     Edge 45, Type (0, 0), BuildingBlock: AJUNOK_clean_linker_0, # of connection points: 2
#     Edge 46, Type (0, 0), BuildingBlock: AJUNOK_clean_linker_0, # of connection points: 2
#     Edge 47, Type (0, 0), BuildingBlock: AJUNOK_clean_linker_0, # of connection points: 2
#     Edge 48, Type (0, 0), BuildingBlock: AJUNOK_clean_linker_0, # of connection points: 2
#     Edge 49, Type (0, 0), BuildingBlock: AJUNOK_clean_linker_0, # of connection points: 2
#     Edge 50, Type (0, 0), BuildingBlock: AJUNOK_clean_linker_0, # of connection points: 2
#     Edge 51, Type (0, 0), BuildingBlock: AJUNOK_clean_linker_0, # of connection points: 2
#     Edge 52, Type (0, 0), BuildingBlock: AJUNOK_clean_linker_0, # of connection points: 2
#     Edge 53, Type (0, 0), BuildingBlock: AJUNOK_clean_linker_0, # of connection points: 2
#     Edge 54, Type (0, 0), BuildingBlock: AJUNOK_clean_linker_0, # of connection points: 2
#     Edge 55, Type (0, 0), BuildingBlock: AJUNOK_clean_linker_0, # of connection points: 2
# Relax obj value: 0.086
# Max RMSD: 0.162
# Mean RMSD: 0.154
data_MOF--net-vbj--node1-XOMCOT_clean_sbu_0--edge1-AJUNOK_clean_linker_0
_symmetry_space_group_name_H-M    P1
_symmetry_Int_Tables_number       1
_symmetry_cell_setting            triclinic
loop_
_symmetry_equiv_pos_as_xyz
'x, y, z'
_cell_length_a     18.783454
_cell_length_b     50.734453
_cell_length_c     38.382812
_cell_angle_alpha  89.410374
_cell_angle_beta   90.9271
_cell_angle_gamma 90.101744
loop_
_atom_site_label
_atom_site_type_symbol
_atom_site_fract_x
_atom_site_fract_y
_atom_site_fract_z
_atom_type_partial_charge
Co0 Co 0.10679 0.14042 0.05898 0.0
C1 C 0.16235 0.08871 0.08276 0.0
C2 C 0.08359 0.08436 0.04219 0.0
C3 C 0.11749 0.06049 0.04742 0.0
N4 N 0.11209 0.10217 0.06421 0.0
N5 N 0.16807 0.0634 0.07245 0.0
H6 H 0.19769 0.0978 0.10165 0.0
H7 H 0.04569 0.08888 0.0215 0.0
C8 C 0.94991 0.145 0.03959 0.0
O9 O 0.93677 0.1541 0.07064 0.0
N10 N 0.1035 0.17905 0.0524 0.0
C11 C 0.1508 0.19386 0.03464 0.0
C12 C 0.13179 0.2199 0.03611 0.0
C13 C 0.05565 0.19683 0.06405 0.0
N14 N 0.07163 0.22204 0.05456 0.0
C15 C 0.09669 0.15976 0.12766 0.0
C16 C 1.00008 0.12299 0.15183 0.0
C17 C 0.0319 0.14049 0.17553 0.0
C18 C 0.0806 0.15908 0.16294 0.0
C19 C 0.0182 0.1242 0.11663 0.0
N20 N 0.06513 0.14274 0.10482 0.0
H21 H 0.13751 0.1732 0.11888 0.0
H22 H 0.99554 0.1099 0.09892 0.0
H23 H 0.19699 0.18666 0.0214 0.0
H24 H 1.01079 0.1914 0.07948 0.0
O25 O 0.20464 0.14283 0.07447 0.0
O26 O 0.16804 0.13715 0.01963 0.0
O27 O 1.01283 0.13761 0.03211 0.0
C28 C 0.22058 0.13874 0.04217 0.0
H29 H 0.11011 0.04305 0.03173 0.0
H30 H 0.1616 0.23608 0.02496 0.0
H31 H 0.9627 0.10814 0.16053 0.0
H32 H 0.10884 0.17222 0.18044 0.0
Co33 Co 0.44405 0.90963 0.07353 0.0
C34 C 0.39353 0.96252 0.09503 0.0
C35 C 0.48428 0.96528 0.06222 0.0
C36 C 0.45406 0.98989 0.06464 0.0
N37 N 0.44594 0.94784 0.08092 0.0
N38 N 0.39626 0.98816 0.08495 0.0
H39 H 0.3502 0.95425 0.1098 0.0
H40 H 0.52679 0.96028 0.0449 0.0
C41 C 0.59658 0.90154 0.05151 0.0
O42 O 0.61037 0.88882 0.08074 0.0
N43 N 0.43998 0.87134 0.0643 0.0
C44 C 0.39013 0.85934 0.04418 0.0
C45 C 0.40392 0.8329 0.04269 0.0
C46 C 0.484 0.85132 0.0746 0.0
N47 N 0.46387 0.8277 0.06118 0.0
C48 C 0.45815 0.88681 0.14119 0.0
C49 C 0.56432 0.92001 0.16569 0.0
C50 C 0.53046 0.90292 0.18903 0.0
C51 C 0.4778 0.88586 0.17639 0.0
C52 C 0.543 0.92036 0.13052 0.0
N53 N 0.49035 0.9039 0.11868 0.0
H54 H 0.41404 0.87478 0.13232 0.0
H55 H 0.56686 0.93457 0.11307 0.0
H56 H 0.34554 0.86874 0.03114 0.0
H57 H 0.52902 0.85367 0.09204 0.0
O58 O 0.34705 0.90843 0.08946 0.0
O59 O 0.38033 0.91647 0.03492 0.0
O60 O 0.53541 0.91186 0.04617 0.0
C61 C 0.32948 0.91476 0.05755 0.0
H62 H 0.46912 1.00698 0.04934 0.0
H63 H 0.3703 0.8186 0.02974 0.0
H64 H 0.60422 0.93385 0.17487 0.0
H65 H 0.4495 0.87285 0.19397 0.0
Co66 Co 0.55824 0.90935 0.46319 0.0
C67 C 0.52162 0.85136 0.45281 0.0
C68 C 0.56527 0.86024 0.50326 0.0
C69 C 0.55125 0.83368 0.50208 0.0
N70 N 0.54667 0.87157 0.47247 0.0
N71 N 0.52412 0.82803 0.47035 0.0
H72 H 0.50162 0.85331 0.42647 0.0
H73 H 0.58865 0.87059 0.52512 0.0
C74 C 0.70673 0.88716 0.46314 0.0
O75 O 0.68452 0.86555 0.44786 0.0
N76 N 0.57196 0.94698 0.45544 0.0
C77 C 0.52874 0.96372 0.43772 0.0
C78 C 0.56111 0.9882 0.43613 0.0
C79 C 0.62992 0.9615 0.46432 0.0
N80 N 0.62482 0.98669 0.45278 0.0
C81 C 0.50204 0.89843 0.39529 0.0
C82 C 0.62272 0.91078 0.35818 0.0
C83 C 0.55984 0.90452 0.33992 0.0
C84 C 0.49933 0.89795 0.35898 0.0
C85 C 0.62316 0.91105 0.39472 0.0
N86 N 0.56361 0.90436 0.41293 0.0
H87 H 0.45385 0.89427 0.40928 0.0
H88 H 0.67055 0.91793 0.40804 0.0
H89 H 0.47823 0.95833 0.42585 0.0
H90 H 0.67542 0.95388 0.47874 0.0
O91 O 0.45664 0.91433 0.4668 0.0
O92 O 0.53266 0.91608 0.51128 0.0
O93 O 0.66365 0.90568 0.47014 0.0
C94 C 0.46696 0.91733 0.50007 0.0
H95 H 0.56163 0.81946 0.52277 0.0
H96 H 0.54068 1.00547 0.42256 0.0
H97 H 0.67019 0.91653 0.34435 0.0
H98 H 0.44972 0.89288 0.34589 0.0
Co99 Co 0.91822 0.14359 0.43989 0.0
C100 C 0.8371 0.093 0.44809 0.0
C101 C 0.94888 0.08713 0.45644 0.0
C102 C 0.91431 0.06326 0.46057 0.0
N103 N 0.90037 0.10601 0.44915 0.0
N104 N 0.84371 0.06696 0.45551 0.0
H105 H 0.78738 0.1021 0.44037 0.0
H106 H 1.00575 0.09019 0.45774 0.0
C107 C 0.06524 0.15608 0.47224 0.0
O108 O 0.07222 0.17781 0.45382 0.0
N109 N 0.93215 0.18105 0.4298 0.0
C110 C 0.92358 0.19247 0.3981 0.0
C111 C 0.93244 0.21927 0.40103 0.0
C112 C 0.94252 0.20141 0.45192 0.0
N113 N 0.94528 0.22489 0.43476 0.0
C114 C 0.91133 0.12207 0.37219 0.0
C115 C 0.03956 0.14168 0.34887 0.0
C116 C 0.99117 0.13075 0.32493 0.0
C117 C 0.92777 0.11988 0.33704 0.0
C118 C 0.02163 0.14299 0.38402 0.0
N119 N 0.95666 0.13443 0.39492 0.0
H120 H 0.85998 0.11523 0.38075 0.0
H121 H 0.05795 0.15255 0.40163 0.0
H122 H 0.91104 0.1821 0.37431 0.0
H123 H 0.94911 0.19904 0.47984 0.0
O124 O 0.81963 0.14837 0.42587 0.0
O125 O 0.86373 0.15219 0.47975 0.0
O126 O 0.01338 0.14018 0.4661 0.0
C127 C 0.80868 0.15253 0.45878 0.0
H128 H 0.93958 0.04458 0.46663 0.0
H129 H 0.93109 0.23351 0.37984 0.0
H130 H 0.08928 0.15016 0.34022 0.0
H131 H 0.88922 0.11133 0.31913 0.0
Co132 Co 0.91348 0.914 0.89046 0.0
C133 C 0.96615 0.85796 0.88221 0.0
C134 C 0.85264 0.86142 0.88207 0.0
C135 C 0.86942 0.83537 0.87777 0.0
N136 N 0.91307 0.87561 0.88658 0.0
N137 N 0.94067 0.83332 0.87775 0.0
H138 H 0.02195 0.86261 0.88099 0.0
H139 H 0.79946 0.86954 0.88156 0.0
C140 C 0.81532 0.8963 0.94493 0.0
O141 O 0.86671 0.87949 0.95229 0.0
N142 N 0.90932 0.95198 0.89224 0.0
C143 C 0.96392 0.96913 0.89444 0.0
C144 C 0.93662 0.99437 0.89429 0.0
C145 C 0.84988 0.96685 0.89053 0.0
N146 N 0.86485 0.99288 0.89205 0.0
C147 C 0.03594 0.90324 0.93272 0.0
C148 C 0.99552 0.93083 0.99089 0.0
C149 C 0.06237 0.91883 0.99027 0.0
C150 C 0.08214 0.90476 0.96103 0.0
C151 C 0.94967 0.92826 0.96195 0.0
N152 N 0.96957 0.91396 0.93358 0.0
H153 H 0.05636 0.89521 0.90926 0.0
H154 H 0.89949 0.93865 0.96178 0.0
H155 H 0.01955 0.96367 0.89575 0.0
H156 H 0.79668 0.95875 0.8883 0.0
O157 O 0.9927 0.91614 0.86009 0.0
O158 O 0.88115 0.91531 0.84136 0.0
O159 O 0.82165 0.91183 0.91842 0.0
C160 C 0.94905 0.91564 0.83391 0.0
H161 H 0.83236 0.81921 0.87418 0.0
H162 H 0.96749 1.01239 0.89482 0.0
H163 H 0.98016 0.94277 1.01274 0.0
H164 H 0.13509 0.89645 0.95917 0.0
Co165 Co 0.626 0.15825 0.87859 0.0
C166 C 0.58131 0.21559 0.87416 0.0
C167 C 0.69415 0.21037 0.87601 0.0
C168 C 0.68026 0.23693 0.87436 0.0
N169 N 0.63221 0.19682 0.87789 0.0
N170 N 0.60931 0.24012 0.87316 0.0
H171 H 0.52516 0.21178 0.87101 0.0
H172 H 0.7465 0.20158 0.87566 0.0
C173 C 0.73453 0.16848 0.93315 0.0
O174 O 0.68993 0.18672 0.94317 0.0
N175 N 0.62485 0.12013 0.87724 0.0
C176 C 0.56896 0.10348 0.87883 0.0
C177 C 0.59463 0.07794 0.88064 0.0
C178 C 0.68314 0.10466 0.87765 0.0
N179 N 0.66644 0.07888 0.88038 0.0
C180 C 0.51523 0.16988 0.92594 0.0
C181 C 0.55252 0.13279 0.97622 0.0
C182 C 0.4885 0.1465 0.97874 0.0
C183 C 0.47109 0.16576 0.95398 0.0
C184 C 0.59686 0.13825 0.94809 0.0
N185 N 0.5777 0.15656 0.92311 0.0
H186 H 0.49493 0.18183 0.90505 0.0
H187 H 0.64432 0.12652 0.94526 0.0
H188 H 0.51383 0.1095 0.87989 0.0
H189 H 0.73701 0.11215 0.87644 0.0
O190 O 0.54118 0.1596 0.85038 0.0
O191 O 0.64891 0.15906 0.82865 0.0
O192 O 0.72224 0.15631 0.90443 0.0
C193 C 0.57985 0.15991 0.82299 0.0
H194 H 0.71914 0.2527 0.87358 0.0
H195 H 0.56318 0.06015 0.88334 0.0
H196 H 0.56615 0.11718 0.99457 0.0
H197 H 0.42026 0.17584 0.95456 0.0
Co198 Co 0.40016 0.15882 0.62833 0.0
C199 C 0.4383 0.21556 0.63983 0.0
C200 C 0.34288 0.21159 0.60907 0.0
C201 C 0.35752 0.23796 0.61274 0.0
N202 N 0.39391 0.19733 0.62571 0.0
N203 N 0.41763 0.24049 0.63201 0.0
H204 H 0.48652 0.21071 0.65423 0.0
H205 H 0.29779 0.20375 0.59491 0.0
C206 C 0.26974 0.13803 0.58673 0.0
O207 O 0.29312 0.11377 0.5889 0.0
N208 N 0.40401 0.12063 0.63291 0.0
C209 C 0.44632 0.10286 0.61768 0.0
C210 C 0.42027 0.07792 0.62492 0.0
C211 C 0.35665 0.10622 0.65121 0.0
N212 N 0.36252 0.08009 0.64528 0.0
C213 C 0.51114 0.17426 0.58448 0.0
C214 C 0.48052 0.14314 0.52761 0.0
C215 C 0.54336 0.15791 0.5286 0.0
C216 C 0.55705 0.17435 0.5567 0.0
C217 C 0.43415 0.14431 0.55581 0.0
N218 N 0.45109 0.15908 0.58446 0.0
H219 H 0.52668 0.18543 0.60699 0.0
H220 H 0.38841 0.13175 0.55526 0.0
H221 H 0.49051 0.10755 0.60102 0.0
H222 H 0.315 0.11507 0.66622 0.0
O223 O 0.48348 0.16057 0.65799 0.0
O224 O 0.37399 0.16035 0.67771 0.0
O225 O 0.30369 0.1569 0.60195 0.0
C226 C 0.44254 0.16091 0.68463 0.0
H227 H 0.32639 0.25407 0.60183 0.0
H228 H 0.43923 0.05976 0.6138 0.0
H229 H 0.46962 0.1297 0.50642 0.0
H230 H 0.60611 0.18559 0.55849 0.0
Co231 Co 0.10855 0.91689 0.63876 0.0
C232 C 0.05536 0.86165 0.63589 0.0
C233 C 0.16956 0.8638 0.6394 0.0
C234 C 0.1499 0.83771 0.63763 0.0
N235 N 0.11043 0.87878 0.63788 0.0
N236 N 0.07831 0.83644 0.6353 0.0
H237 H 0.99999 0.8675 0.6343 0.0
H238 H 0.22332 0.8713 0.64175 0.0
C239 C 0.21611 0.93091 0.58587 0.0
O240 O 0.16724 0.94713 0.57341 0.0
N241 N 0.11001 0.95546 0.64187 0.0
C242 C 0.05827 0.97121 0.65394 0.0
C243 C 0.08584 0.99589 0.66015 0.0
C244 C 0.16907 0.97088 0.64259 0.0
N245 N 0.15574 0.99591 0.65247 0.0
C246 C 0.9947 0.93031 0.59144 0.0
C247 C 0.03116 0.89515 0.54005 0.0
C248 C 0.9656 0.90812 0.53772 0.0
C249 C 0.94856 0.92647 0.56323 0.0
C250 C 0.07644 0.89985 0.56856 0.0
N251 N 0.05741 0.91693 0.59422 0.0
H252 H 0.97724 0.94266 0.61216 0.0
H253 H 0.12516 0.88863 0.57096 0.0
H254 H 1.00517 0.96492 0.6606 0.0
H255 H 0.22178 0.96365 0.63757 0.0
O256 O 0.0261 0.91543 0.66777 0.0
O257 O 0.13722 0.91548 0.68782 0.0
O258 O 0.20392 0.91769 0.61388 0.0
C259 C 0.06904 0.91494 0.69445 0.0
H260 H 0.18538 0.82092 0.63857 0.0
H261 H 0.05682 1.01183 0.67173 0.0
H262 H 0.04597 0.88079 0.52079 0.0
H263 H 0.89761 0.93647 0.56266 0.0
Co264 Co 0.59392 0.64223 0.0746 0.0
C265 C 0.66805 0.59136 0.06093 0.0
C266 C 0.55577 0.58789 0.05238 0.0
C267 C 0.58614 0.56313 0.04987 0.0
N268 N 0.60728 0.60574 0.05937 0.0
N269 N 0.65682 0.56532 0.05584 0.0
H270 H 0.71932 0.59946 0.06721 0.0
H271 H 0.4994 0.59214 0.05137 0.0
C272 C 0.44736 0.66037 0.04683 0.0
O273 O 0.44467 0.67826 0.0712 0.0
N274 N 0.58325 0.6785 0.09058 0.0
C275 C 0.58469 0.68664 0.12388 0.0
C276 C 0.57426 0.71344 0.12442 0.0
C277 C 0.57672 0.70091 0.07127 0.0
N278 N 0.56821 0.72261 0.09134 0.0
C279 C 0.60226 0.61424 0.13837 0.0
C280 C 0.47796 0.63203 0.16725 0.0
C281 C 0.52919 0.61968 0.18885 0.0
C282 C 0.59036 0.60968 0.17364 0.0
C283 C 0.49138 0.63571 0.13163 0.0
N284 N 0.55518 0.62839 0.11813 0.0
H285 H 0.65241 0.60799 0.128 0.0
H286 H 0.45261 0.64605 0.11599 0.0
H287 H 0.59233 0.67405 0.1465 0.0
H288 H 0.57688 0.70094 0.04315 0.0
O289 O 0.6928 0.64421 0.08995 0.0
O290 O 0.65234 0.65512 0.03718 0.0
O291 O 0.49794 0.64326 0.04738 0.0
C292 C 0.70613 0.6531 0.0589 0.0
H293 H 0.55781 0.54475 0.04613 0.0
H294 H 0.5692 0.72507 0.14771 0.0
H295 H 0.42934 0.63966 0.17807 0.0
H296 H 0.63125 0.60001 0.18935 0.0
Co297 Co 0.93777 0.40508 0.08491 0.0
C298 C 0.85658 0.45552 0.06971 0.0
C299 C 0.96875 0.46167 0.07696 0.0
C300 C 0.93622 0.48585 0.07304 0.0
N301 N 0.91919 0.44247 0.07486 0.0
N302 N 0.86561 0.48203 0.06872 0.0
H303 H 0.80496 0.44618 0.06848 0.0
H304 H 0.02445 0.45842 0.08294 0.0
C305 C 0.0792 0.3934 0.04825 0.0
O306 O 0.08256 0.36935 0.06087 0.0
N307 N 0.95347 0.36775 0.09626 0.0
C308 C 0.95361 0.35754 0.12885 0.0
C309 C 0.9614 0.33074 0.12744 0.0
C310 C 0.95614 0.34638 0.07528 0.0
N311 N 0.96287 0.3235 0.09376 0.0
C312 C 0.94292 0.42764 0.15251 0.0
C313 C 0.07417 0.40747 0.1727 0.0
C314 C 0.03077 0.41878 0.19786 0.0
C315 C 0.96572 0.42988 0.18719 0.0
C316 C 0.05012 0.40622 0.138 0.0
N317 N 0.98363 0.41501 0.12875 0.0
H318 H 0.89048 0.43468 0.14511 0.0
H319 H 0.08224 0.39603 0.11946 0.0
H320 H 0.94805 0.36871 0.15246 0.0
H321 H 0.95479 0.34762 0.0471 0.0
O322 O 0.84135 0.40048 0.10096 0.0
O323 O 0.87704 0.39494 0.04661 0.0
O324 O 0.02988 0.40917 0.05759 0.0
C325 C 0.82565 0.39414 0.06894 0.0
H326 H 0.96238 0.50485 0.0742 0.0
H327 H 0.96824 0.31781 0.14981 0.0
H328 H 0.12478 0.39868 0.18009 0.0
H329 H 0.9307 0.43869 0.20595 0.0
Co330 Co 0.06368 0.40982 0.47094 0.0
C331 C 0.02861 0.35125 0.46149 0.0
C332 C 0.06961 0.36144 0.51196 0.0
C333 C 0.05583 0.33491 0.51186 0.0
N334 N 0.05241 0.37201 0.48055 0.0
N335 N 0.03083 0.32831 0.48005 0.0
H336 H 1.01147 0.35237 0.43461 0.0
H337 H 0.09104 0.37236 0.5338 0.0
C338 C 0.21097 0.38769 0.47033 0.0
O339 O 0.18775 0.36695 0.45339 0.0
N340 N 0.07754 0.44744 0.46349 0.0
C341 C 0.04319 0.46315 0.44029 0.0
C342 C 0.07705 0.48735 0.43938 0.0
C343 C 0.13116 0.4624 0.4767 0.0
N344 N 0.13232 0.48688 0.46232 0.0
C345 C 1.01245 0.3975 0.40213 0.0
C346 C 0.13071 0.41541 0.36697 0.0
C347 C 0.07069 0.4074 0.34775 0.0
C348 C 1.01145 0.39797 0.36568 0.0
C349 C 0.13014 0.41406 0.40342 0.0
N350 N 0.0717 0.40491 0.4207 0.0
H351 H 0.96442 0.39196 0.41549 0.0
H352 H 0.1752 0.42201 0.41762 0.0
H353 H 0.99882 0.45705 0.42395 0.0
H354 H 0.17091 0.45508 0.49506 0.0
O355 O 0.9618 0.41455 0.47349 0.0
O356 O 0.03601 0.41653 0.51868 0.0
O357 O 0.16877 0.40617 0.47867 0.0
C358 C 0.97065 0.4173 0.50694 0.0
H359 H 0.06247 0.32165 0.53392 0.0
H360 H 0.06314 0.50384 0.4225 0.0
H361 H 0.17688 0.42336 0.35394 0.0
H362 H 0.96348 0.39221 0.35166 0.0
Co363 Co 0.4173 0.64367 0.44874 0.0
C364 C 0.34698 0.59126 0.45831 0.0
C365 C 0.42866 0.59658 0.49687 0.0
C366 C 0.39432 0.57294 0.50336 0.0
N367 N 0.40059 0.60791 0.46778 0.0
N368 N 0.34237 0.56966 0.4791 0.0
H369 H 0.30864 0.59545 0.43776 0.0
H370 H 0.46877 0.60523 0.51363 0.0
C371 C 0.56462 0.63501 0.48279 0.0
O372 O 0.57162 0.61219 0.46736 0.0
N373 N 0.43002 0.67918 0.4305 0.0
C374 C 0.41426 0.68776 0.39796 0.0
C375 C 0.42708 0.71449 0.39604 0.0
C376 C 0.4507 0.70088 0.44813 0.0
N377 N 0.45053 0.72272 0.42754 0.0
C378 C 0.43059 0.61267 0.38764 0.0
C379 C 0.54928 0.63798 0.36211 0.0
C380 C 0.50968 0.62138 0.34004 0.0
C381 C 0.45152 0.60789 0.35369 0.0
C382 C 0.52764 0.64162 0.39662 0.0
N383 N 0.46707 0.6298 0.40858 0.0
H384 H 0.38084 0.60442 0.39548 0.0
H385 H 0.5556 0.65585 0.41255 0.0
H386 H 0.39372 0.67548 0.37721 0.0
H387 H 0.46454 0.70072 0.47558 0.0
O388 O 0.32204 0.64342 0.42891 0.0
O389 O 0.35201 0.65728 0.48202 0.0
O390 O 0.50809 0.64867 0.47778 0.0
C391 C 0.30274 0.65322 0.45842 0.0
H392 H 0.40661 0.55949 0.52464 0.0
H393 H 0.41742 0.72698 0.37345 0.0
H394 H 0.59433 0.64897 0.3523 0.0
H395 H 0.41851 0.59542 0.33728 0.0
Co396 Co 0.41544 0.41454 0.8999 0.0
C397 C 0.47088 0.36 0.89248 0.0
C398 C 0.35662 0.36165 0.89186 0.0
C399 C 0.37688 0.33611 0.88593 0.0
N400 N 0.4154 0.37659 0.89612 0.0
N401 N 0.44861 0.33515 0.8859 0.0
H402 H 0.52612 0.36612 0.89348 0.0
H403 H 0.30255 0.3689 0.89212 0.0
C404 C 0.30609 0.42359 0.9537 0.0
O405 O 0.35206 0.44023 0.96739 0.0
N406 N 0.41136 0.45307 0.90126 0.0
C407 C 0.46278 0.47072 0.89317 0.0
C408 C 0.43339 0.49552 0.89046 0.0
C409 C 0.35076 0.4675 0.90104 0.0
N410 N 0.36287 0.49336 0.8954 0.0
C411 C 0.52747 0.42569 0.94876 0.0
C412 C 0.49488 0.38622 0.99615 0.0
C413 C 0.55832 0.40039 1.00008 0.0
C414 C 0.5734 0.42078 0.97672 0.0
C415 C 0.44896 0.39231 0.96809 0.0
N416 N 0.46619 0.4116 0.94441 0.0
H417 H 0.54469 0.43941 0.92932 0.0
H418 H 0.40168 0.38044 0.96426 0.0
H419 H 0.51713 0.46604 0.88694 0.0
H420 H 0.29789 0.45918 0.90264 0.0
O421 O 0.49815 0.41637 0.87134 0.0
O422 O 0.38814 0.41681 0.85037 0.0
O423 O 0.32041 0.41206 0.92498 0.0
C424 C 0.45659 0.41734 0.84423 0.0
H425 H 0.34145 0.31953 0.88197 0.0
H426 H 0.46146 0.51358 0.8843 0.0
H427 H 0.48275 0.36988 1.01346 0.0
H428 H 0.62327 0.43152 0.97854 0.0
Co429 Co 0.11479 0.65548 0.88576 0.0
C430 C 0.06894 0.71218 0.87833 0.0
C431 C 0.17894 0.70601 0.86734 0.0
C432 C 0.16441 0.73245 0.86342 0.0
N433 N 0.11956 0.69332 0.87755 0.0
N434 N 0.09503 0.73628 0.87019 0.0
H435 H 0.01384 0.70871 0.88396 0.0
H436 H 0.22995 0.69666 0.86368 0.0
C437 C 0.22688 0.67376 0.93693 0.0
O438 O 0.18443 0.69387 0.94204 0.0
N439 N 0.1145 0.61791 0.8925 0.0
C440 C 0.06121 0.60149 0.90131 0.0
C441 C 0.08784 0.57607 0.90263 0.0
C442 C 0.17194 0.60257 0.88833 0.0
N443 N 0.15733 0.5769 0.89412 0.0
C444 C 0.98891 0.66686 0.92227 0.0
C445 C 0.03439 0.65494 0.98916 0.0
C446 C 0.96381 0.66348 0.98351 0.0
C447 C 0.94173 0.66889 0.94927 0.0
C448 C 0.07997 0.6522 0.96067 0.0
N449 N 0.05812 0.65958 0.92777 0.0
H450 H 0.96758 0.67058 0.89658 0.0
H451 H 0.13177 0.64358 0.96521 0.0
H452 H 1.00719 0.60751 0.90642 0.0
H453 H 0.22385 0.61024 0.88177 0.0
O454 O 0.03512 0.65272 0.85404 0.0
O455 O 0.14559 0.6506 0.83692 0.0
O456 O 0.20918 0.65672 0.91377 0.0
C457 C 0.0777 0.65023 0.82851 0.0
H458 H 0.20272 0.74764 0.85717 0.0
H459 H 0.05835 0.55837 0.90902 0.0
H460 H 0.05426 0.65006 0.01502 0.0
H461 H 0.88705 0.67393 0.94279 0.0
Co462 Co 0.90844 0.65733 0.63132 0.0
C463 C 0.95041 0.71477 0.63225 0.0
C464 C 0.84021 0.70838 0.64272 0.0
C465 C 0.8534 0.73509 0.64342 0.0
N466 N 0.90062 0.69556 0.63477 0.0
N467 N 0.92265 0.73906 0.63643 0.0
H468 H 1.00636 0.71142 0.62918 0.0
H469 H 0.78966 0.69889 0.64755 0.0
C470 C 0.78928 0.67024 0.58015 0.0
O471 O 0.82695 0.69078 0.57035 0.0
N472 N 0.91167 0.6195 0.62915 0.0
C473 C 0.96645 0.60314 0.62327 0.0
C474 C 0.94142 0.57746 0.62504 0.0
C475 C 0.85491 0.60387 0.63455 0.0
N476 N 0.87121 0.57815 0.63214 0.0
C477 C 0.02746 0.66963 0.58981 0.0
C478 C 0.97783 0.65039 0.52701 0.0
C479 C 0.04479 0.66264 0.52872 0.0
C480 C 0.06965 0.67182 0.56081 0.0
C481 C 0.93636 0.64886 0.55711 0.0
N482 N 0.95996 0.65979 0.58769 0.0
H483 H 0.0513 0.67497 0.61435 0.0
H484 H 0.88678 0.63811 0.55596 0.0
H485 H 0.02033 0.60939 0.61797 0.0
H486 H 0.80257 0.61125 0.64066 0.0
O487 O 0.99092 0.65742 0.662 0.0
O488 O 0.88113 0.65419 0.68055 0.0
O489 O 0.81227 0.65555 0.60536 0.0
C490 C 0.94931 0.65497 0.68819 0.0
H491 H 0.81495 0.7504 0.64844 0.0
H492 H 0.97211 0.55978 0.62082 0.0
H493 H 0.95866 0.6416 0.50303 0.0
H494 H 0.12325 0.67948 0.56403 0.0
Co495 Co 0.6125 0.41573 0.64776 0.0
C496 C 0.55655 0.36095 0.64737 0.0
C497 C 0.66737 0.36275 0.66193 0.0
C498 C 0.64552 0.33684 0.66356 0.0
N499 N 0.61169 0.37777 0.65168 0.0
N500 N 0.57596 0.33581 0.65445 0.0
H501 H 0.50341 0.36696 0.63938 0.0
H502 H 0.72011 0.37019 0.66794 0.0
C503 C 0.71766 0.42623 0.59257 0.0
O504 O 0.66815 0.44191 0.57951 0.0
N505 N 0.61718 0.45424 0.64594 0.0
C506 C 0.56583 0.47238 0.65096 0.0
C507 C 0.5962 0.49716 0.65113 0.0
C508 C 0.67838 0.46837 0.64577 0.0
N509 N 0.66711 0.49453 0.64786 0.0
C510 C 0.49496 0.42571 0.60138 0.0
C511 C 0.53347 0.39082 0.55011 0.0
C512 C 0.46829 0.40402 0.54713 0.0
C513 C 0.4497 0.42185 0.57296 0.0
C514 C 0.57797 0.39557 0.57897 0.0
N515 N 0.55887 0.41315 0.60403 0.0
H516 H 0.47595 0.43747 0.62228 0.0
H517 H 0.62654 0.38431 0.58187 0.0
H518 H 0.51071 0.46825 0.65629 0.0
H519 H 0.7306 0.45966 0.64429 0.0
O520 O 0.53178 0.41717 0.67784 0.0
O521 O 0.64354 0.41754 0.69659 0.0
O522 O 0.70664 0.41402 0.62158 0.0
C523 C 0.57577 0.41789 0.70407 0.0
H524 H 0.67852 0.32 0.67021 0.0
H525 H 0.56854 0.51563 0.65456 0.0
H526 H 0.54892 0.37652 0.53091 0.0
H527 H 0.39842 0.43162 0.57227 0.0
C528 C 0.37844 0.12169 0.988 0.0
C529 C 0.43193 0.13796 1.00206 0.0
C530 C 0.31057 0.12114 1.00227 0.0
C531 C 0.29474 0.13653 0.03128 0.0
H532 H 0.38728 0.11121 0.96399 0.0
H533 H 0.26943 0.10953 0.98955 0.0
S534 S 0.42002 0.17937 0.08042 0.0
N535 N 0.46751 0.16775 0.04814 0.0
N536 N 0.34011 0.166 0.07613 0.0
C537 C 0.34977 0.15088 0.04758 0.0
C538 C 0.41861 0.15178 0.03261 0.0
C539 C 0.13392 0.90349 0.04109 0.0
C540 C 0.11774 0.92356 0.01677 0.0
C541 C 0.20186 0.90184 0.0566 0.0
C542 C 0.25545 0.91974 0.04718 0.0
H543 H 0.09596 0.8878 0.04584 0.0
H544 H 0.21415 0.88527 0.07367 0.0
S545 S 0.23603 0.978 0.98895 0.0
N546 N 0.15709 0.96359 0.9877 0.0
N547 N 0.28583 0.95989 0.01574 0.0
C548 C 0.23813 0.94104 0.02513 0.0
C549 C 0.16868 0.94314 1.01023 0.0
C550 C 0.81177 0.91563 0.47442 0.0
C551 C 0.78146 0.89026 0.4746 0.0
C552 C 0.87523 0.92085 0.49257 0.0
C553 C 0.91072 0.90086 0.51147 0.0
H554 H 0.78432 0.93188 0.4616 0.0
H555 H 0.89451 0.94099 0.4935 0.0
S556 S 0.85725 0.83055 0.51727 0.0
N557 N 0.79469 0.84445 0.49257 0.0
N558 N 0.91432 0.85427 0.52701 0.0
C559 C 0.8841 0.87496 0.50958 0.0
C560 C 0.81929 0.86963 0.49098 0.0
C561 C 0.72596 0.13794 0.50403 0.0
C562 C 0.73692 0.15221 0.47306 0.0
C563 C 0.65988 0.13786 0.51988 0.0
C564 C 0.6029 0.15243 0.50563 0.0
H565 H 0.76914 0.12702 0.51643 0.0
H566 H 0.65436 0.12758 0.5446 0.0
S567 S 0.60287 0.19167 0.42386 0.0
N568 N 0.68448 0.17962 0.42717 0.0
N569 N 0.55982 0.18048 0.45824 0.0
C570 C 0.61189 0.16585 0.47391 0.0
C571 C 0.67924 0.16547 0.45724 0.0
C572 C 0.76042 0.8829 1.00105 0.0
C573 C 0.75648 0.89844 0.97039 0.0
C574 C 0.70928 0.88454 0.02692 0.0
C575 C 0.65077 0.90163 0.02354 0.0
H576 H 0.80397 0.86926 1.00556 0.0
H577 H 0.71567 0.87192 0.04969 0.0
S578 S 0.61445 0.94686 0.94854 0.0
N579 N 0.6891 0.93184 0.93826 0.0
N580 N 0.59153 0.93465 0.98683 0.0
C581 C 0.64543 0.91732 0.99298 0.0
C582 C 0.69849 0.91581 0.96651 0.0
C583 C 0.85786 0.15222 0.95024 0.0
C584 C 0.78787 0.15876 0.95926 0.0
C585 C 0.90979 0.14642 0.97623 0.0
C586 C 0.89308 0.14667 1.01202 0.0
H587 H 0.87337 0.15282 0.92318 0.0
H588 H 0.96393 0.14283 0.96827 0.0
S589 S 0.71356 0.15754 0.04842 0.0
N590 N 0.70258 0.16184 1.00604 0.0
N591 N 0.79855 0.15037 0.05427 0.0
C592 C 0.82181 0.15119 0.02089 0.0
C593 C 0.76968 0.15738 0.99469 0.0
C594 C 0.16595 0.17057 0.51182 0.0
C595 C 0.11581 0.15109 0.5021 0.0
C596 C 0.21304 0.16691 0.54033 0.0
C597 C 0.21254 0.14352 0.56029 0.0
H598 H 0.16948 0.18885 0.49715 0.0
H599 H 0.25204 0.1821 0.54572 0.0
S600 S 0.09156 0.08639 0.54661 0.0
N601 N 0.06778 0.10773 0.51589 0.0
N602 N 0.15737 0.10057 0.5684 0.0
C603 C 0.16245 0.12397 0.55108 0.0
C604 C 0.1139 0.12781 0.52236 0.0
C605 C 0.28214 0.93496 0.53022 0.0
C606 C 0.28242 0.92747 0.56569 0.0
C607 C 0.34223 0.93178 0.5096 0.0
C608 C 0.40594 0.92138 0.52354 0.0
H609 H 0.23453 0.94299 0.5179 0.0
H610 H 0.3386 0.93759 0.48238 0.0
S611 S 0.43587 0.89891 0.61494 0.0
N612 N 0.35237 0.90913 0.61393 0.0
N613 N 0.46619 0.90361 0.57517 0.0
C614 C 0.40773 0.9141 0.55907 0.0
C615 C 0.34577 0.91696 0.58009 0.0
C616 C 0.78985 0.68056 0.02503 0.0
C617 C 0.77909 0.65926 0.0478 0.0
C618 C 0.85452 0.68377 1.00803 0.0
C619 C 0.90917 0.66476 1.01127 0.0
H620 H 0.74697 0.69427 0.01922 0.0
H621 H 0.85934 0.70019 0.98993 0.0
S622 S 0.91212 0.60863 0.07415 0.0
N623 N 0.83364 0.6225 0.07936 0.0
N624 N 0.95179 0.62621 0.04366 0.0
C625 C 0.9016 0.64487 0.0368 0.0
C626 C 0.83699 0.64259 0.0558 0.0
C627 C 0.69626 0.40453 0.07141 0.0
C628 C 0.75167 0.38965 0.05718 0.0
C629 C 0.62942 0.40595 0.05466 0.0
C630 C 0.61571 0.39181 0.02402 0.0
H631 H 0.70638 0.41697 0.09373 0.0
H632 H 0.59021 0.41964 0.06417 0.0
S633 S 0.73853 0.34634 0.98018 0.0
N634 N 0.78557 0.35799 1.01336 0.0
N635 N 0.65911 0.36006 0.98261 0.0
C636 C 0.66817 0.37479 1.01174 0.0
C637 C 0.73652 0.37382 0.02821 0.0
C638 C 0.3177 0.41473 0.4832 0.0
C639 C 0.28568 0.3897 0.482 0.0
C640 C 0.38151 0.41871 0.50157 0.0
C641 C 0.4151 0.39784 0.51966 0.0
H642 H 0.29117 0.43167 0.47149 0.0
H643 H 0.40212 0.43861 0.5037 0.0
S644 S 0.35628 0.32805 0.52182 0.0
N645 N 0.29522 0.34327 0.49759 0.0
N646 N 0.41504 0.35086 0.5329 0.0
C647 C 0.38672 0.37231 0.51635 0.0
C648 C 0.32182 0.3682 0.4973 0.0
C649 C 0.18137 0.63593 0.46872 0.0
C650 C 0.22785 0.65757 0.46626 0.0
C651 C 0.11588 0.63837 0.48541 0.0
C652 C 0.0953 0.66258 0.49961 0.0
H653 H 0.19832 0.61657 0.46064 0.0
H654 H 0.08492 0.62071 0.49027 0.0
S655 S 0.19165 0.7262 0.49203 0.0
N656 N 0.24488 0.70452 0.47401 0.0
N657 N 0.12029 0.70952 0.50396 0.0
C658 C 0.13755 0.68498 0.49304 0.0
C659 C 0.20466 0.68233 0.47689 0.0
C660 C 0.22082 0.39028 0.97804 0.0
C661 C 0.24191 0.41671 0.97401 0.0
C662 C 0.16805 0.38304 1.00198 0.0
C663 C 0.13326 0.40198 0.02234 0.0
H664 H 0.24749 0.37495 0.96379 0.0
H665 H 0.1548 0.36234 1.00471 0.0
S666 S 0.16569 0.47417 0.01931 0.0
N667 N 0.22205 0.46202 0.99109 0.0
N668 N 0.12179 0.4486 0.03509 0.0
C669 C 0.15193 0.42861 0.01731 0.0
C670 C 0.20654 0.4359 0.99347 0.0
C671 C 0.30461 0.68957 0.98613 0.0
C672 C 0.28794 0.66948 0.96225 0.0
C673 C 0.35565 0.6861 1.01282 0.0
C674 C 0.39389 0.66237 0.01727 0.0
H675 H 0.27714 0.70832 0.98468 0.0
H676 H 0.36503 0.70247 0.03019 0.0
S677 S 0.3735 0.60348 0.9612 0.0
N678 N 0.31569 0.62481 0.94443 0.0
N679 N 0.41287 0.61846 0.99438 0.0
C680 C 0.37961 0.64219 0.99306 0.0
C681 C 0.32658 0.64569 0.96573 0.0
C682 C 0.66017 0.6262 0.5287 0.0
C683 C 0.6204 0.64433 0.50821 0.0
C684 C 0.71221 0.63469 0.55311 0.0
C685 C 0.72777 0.66168 0.55759 0.0
H686 H 0.65077 0.60525 0.52601 0.0
H687 H 0.74205 0.61994 0.56776 0.0
S688 S 0.63913 0.71718 0.51034 0.0
N689 N 0.60032 0.69057 0.49444 0.0
N690 N 0.69809 0.70644 0.53952 0.0
C691 C 0.68811 0.67996 0.53737 0.0
C692 C 0.63454 0.67134 0.51297 0.0
C693 C 0.8417 0.42633 0.51557 0.0
C694 C 0.90845 0.41977 0.53021 0.0
C695 C 0.78103 0.42804 0.53611 0.0
C696 C 0.78382 0.42293 0.57227 0.0
H697 H 0.83606 0.43033 0.48788 0.0
H698 H 0.73115 0.43328 0.5233 0.0
S699 S 0.9453 0.4045 0.62364 0.0
N700 N 0.97387 0.4079 0.58335 0.0
N701 N 0.85906 0.41085 0.62194 0.0
C702 C 0.84997 0.41606 0.58738 0.0
C703 C 0.91242 0.41463 0.5664 0.0
C704 C 0.21189 1.01786 0.08198 0.0
C705 C 0.22557 0.0451 0.07996 0.0
C706 C 0.26752 0.99946 0.08556 0.0
C707 C 0.3395 1.00748 0.08664 0.0
H708 H 0.15764 1.0107 0.08006 0.0
H709 H 0.2539 0.97874 0.08585 0.0
S710 S 0.40414 0.07667 0.08339 0.0
N711 N 0.31672 0.07922 0.07997 0.0
N712 N 0.42077 0.04481 0.08727 0.0
C713 C 0.35373 0.03475 0.08574 0.0
C714 C 0.29705 0.05349 0.08226 0.0
C715 C 0.7505 1.00093 0.44752 0.0
C716 C 0.67916 1.00692 0.4547 0.0
C717 C 0.80365 1.02053 0.44793 0.0
C718 C 0.788 0.04697 0.45594 0.0
H719 H 0.76501 0.98101 0.44069 0.0
H720 H 0.85722 1.01492 0.44124 0.0
S721 S 0.61009 0.07204 0.48089 0.0
N722 N 0.59614 0.04062 0.47224 0.0
N723 N 0.69566 0.07725 0.47435 0.0
C724 C 0.71688 0.05295 0.4643 0.0
C725 C 0.66268 0.03302 0.46335 0.0
C726 C 0.70338 0.0334 0.86685 0.0
C727 C 0.71552 0.05718 0.88446 0.0
C728 C 0.75207 1.01244 0.86961 0.0
C729 C 0.81459 1.01443 0.89025 0.0
H730 H 0.65667 0.03123 0.85022 0.0
H731 H 0.74139 0.99474 0.8549 0.0
S732 S 0.86569 0.0713 0.94549 0.0
N733 N 0.7911 0.08067 0.92572 0.0
N734 N 0.88211 0.04136 0.93118 0.0
C735 C 0.82597 0.03784 0.90894 0.0
C736 C 0.77658 0.05917 0.906 0.0
C737 C 0.28045 1.01265 0.65627 0.0
C738 C 0.20648 1.0176 0.65439 0.0
C739 C 0.33071 0.03317 0.65463 0.0
C740 C 0.30975 0.05969 0.65151 0.0
H741 H 0.30034 0.99273 0.65868 0.0
H742 H 0.38673 1.02817 0.65535 0.0
S743 S 0.12273 0.08392 0.64797 0.0
N744 N 0.11531 0.0516 0.65039 0.0
N745 N 0.20901 0.08989 0.64843 0.0
C746 C 0.23599 0.06512 0.6512 0.0
C747 C 0.18472 0.04419 0.65238 0.0
C748 C 0.75533 0.50112 0.04195 0.0
C749 C 0.81138 0.50232 0.06673 0.0
C750 C 0.70478 0.52163 0.03862 0.0
C751 C 0.70813 0.54406 0.06005 0.0
H752 H 0.75163 0.48452 0.02451 0.0
H753 H 0.66353 0.52017 0.0187 0.0
S754 S 0.83734 0.55434 0.13297 0.0
N755 N 0.86253 0.52638 0.1154 0.0
N756 N 0.76756 0.56435 0.10976 0.0
C757 C 0.76217 0.5448 0.08594 0.0
C758 C 0.81366 0.5241 0.08911 0.0
C759 C 0.26186 0.54193 0.44275 0.0
C760 C 0.29066 0.54836 0.47578 0.0
C761 C 0.21041 0.52197 0.43863 0.0
C762 C 0.18571 0.50725 0.46728 0.0
H763 H 0.27964 0.55228 0.41967 0.0
H764 H 0.19045 0.51778 0.41265 0.0
S765 S 0.23972 0.51677 0.55964 0.0
N766 N 0.28709 0.53879 0.53804 0.0
N767 N 0.19202 0.50096 0.52997 0.0
C768 C 0.21382 0.5133 0.50044 0.0
C769 C 0.26579 0.53386 0.50477 0.0
C770 C 0.25457 0.51429 0.91787 0.0
C771 C 0.31026 0.51399 0.89379 0.0
C772 C 0.20387 0.5346 0.91746 0.0
C773 C 0.20695 0.55528 0.89284 0.0
H774 H 0.25126 0.49902 0.93766 0.0
H775 H 0.16311 0.53448 0.93708 0.0
S776 S 0.33637 0.56155 0.82114 0.0
N777 N 0.36169 0.53478 0.84278 0.0
N778 N 0.26622 0.57276 0.84167 0.0
C779 C 0.26089 0.55465 0.86782 0.0
C780 C 0.3126 0.53407 0.86838 0.0
C781 C 0.75177 0.55902 0.6226 0.0
C782 C 0.82187 0.55652 0.63573 0.0
C783 C 0.70157 0.53885 0.62702 0.0
C784 C 0.7193 0.51534 0.64483 0.0
H785 H 0.73578 0.57668 0.60849 0.0
H786 H 0.64871 0.5415 0.61589 0.0
S787 S 0.89416 0.4999 0.68669 0.0
N788 N 0.90561 0.52927 0.66866 0.0
N789 N 0.81115 0.49139 0.67742 0.0
C790 C 0.78907 0.51269 0.65848 0.0
C791 C 0.84036 0.53325 0.65379 0.0
C792 C 0.02138 0.29431 0.05154 0.0
C793 C 0.97966 0.29738 0.08126 0.0
C794 C 0.04825 0.26955 0.04234 0.0
C795 C 0.03572 0.24663 0.06267 0.0
H796 H 0.03611 0.31134 0.03602 0.0
H797 H 0.08053 0.26864 0.01932 0.0
S798 S 0.92008 0.24356 0.14046 0.0
N799 N 0.91821 0.27482 0.12823 0.0
N800 N 0.97253 0.22882 0.11269 0.0
C801 C 0.99053 0.24926 0.09146 0.0
C802 C 0.96182 0.27445 0.10033 0.0
C803 C 0.53478 0.79604 0.09739 0.0
C804 C 0.49653 0.80196 0.0665 0.0
C805 C 0.56065 0.7705 0.10442 0.0
C806 C 0.54885 0.74944 0.08115 0.0
H807 H 0.54293 0.81102 0.11692 0.0
H808 H 0.58909 0.76721 0.1288 0.0
S809 S 0.4589 0.75522 0.99435 0.0
N810 N 0.45611 0.78525 1.01028 0.0
N811 N 0.49933 0.73713 0.02459 0.0
C812 C 0.51324 0.75539 0.04941 0.0
C813 C 0.48833 0.78158 0.0419 0.0
C814 C 0.47106 0.78412 0.48148 0.0
C815 C 0.50351 0.80211 0.45844 0.0
C816 C 0.45387 0.75835 0.47124 0.0
C817 C 0.46855 0.74941 0.43752 0.0
H818 H 0.45854 0.7901 0.50767 0.0
H819 H 0.42822 0.7454 0.4898 0.0
S820 S 0.5586 0.78804 0.36821 0.0
N821 N 0.55286 0.80874 0.40096 0.0
N822 N 0.52129 0.76034 0.3817 0.0
C823 C 0.50163 0.76714 0.4143 0.0
C824 C 0.51886 0.79345 0.42473 0.0
C825 C 0.9526 0.2987 0.44535 0.0
C826 C 1.00998 0.30217 0.46891 0.0
C827 C 0.9306 0.27338 0.43504 0.0
C828 C 0.96466 0.25051 0.44808 0.0
H829 H 0.92403 0.31565 0.43507 0.0
H830 H 0.88648 0.27164 0.41671 0.0
S831 S 0.12174 0.2487 0.50776 0.0
N832 N 0.10365 0.28037 0.50296 0.0
N833 N 0.06095 0.23307 0.48427 0.0
C834 C 0.02226 0.25368 0.47144 0.0
C835 C 0.04527 0.2794 0.48164 0.0
C836 C 0.96289 0.78766 0.89644 0.0
C837 C 0.98056 0.80935 0.87531 0.0
C838 C 1.00068 0.764 0.89464 0.0
C839 C 0.05698 0.76096 0.87122 0.0
H840 H 0.92013 0.78922 0.91489 0.0
H841 H 0.98617 0.74809 0.91214 0.0
S842 S 0.11935 0.81162 0.80801 0.0
N843 N 0.05534 0.82639 0.82938 0.0
N844 N 0.12535 0.78158 0.82484 0.0
C845 C 0.07427 0.78252 0.84943 0.0
C846 C 0.03626 0.80679 0.85174 0.0
C847 C 0.59344 0.28463 0.89699 0.0
C848 C 0.57148 0.26472 0.87389 0.0
C849 C 0.55418 0.30796 0.90012 0.0
C850 C 0.49171 0.31218 0.8802 0.0
H851 H 0.63997 0.28171 0.9136 0.0
H852 H 0.5714 0.32239 0.91909 0.0
S853 S 0.41863 0.26795 0.81188 0.0
N854 N 0.48813 0.25189 0.8282 0.0
N855 N 0.41459 0.29582 0.83363 0.0
C856 C 0.4713 0.29295 0.85576 0.0
C857 C 0.5111 0.26919 0.85273 0.0
C858 C 0.45259 0.28576 0.61478 0.0
C859 C 0.45522 0.26477 0.63916 0.0
C860 C 0.49061 0.30918 0.62039 0.0
C861 C 0.53328 0.31243 0.65041 0.0
H862 H 0.42235 0.28385 0.59069 0.0
H863 H 0.48844 0.32455 0.60061 0.0
S864 S 0.55197 0.26514 0.72425 0.0
N865 N 0.49901 0.25001 0.69607 0.0
N866 N 0.57186 0.29383 0.70608 0.0
C867 C 0.53503 0.29203 0.67544 0.0
C868 C 0.49573 0.26825 0.66994 0.0
C869 C 0.94058 0.78502 0.65618 0.0
C870 C 0.9597 0.76401 0.63448 0.0
C871 C 0.97805 0.80903 0.65559 0.0
C872 C 0.03615 0.81277 0.63347 0.0
H873 H 0.89761 0.78264 0.6744 0.0
H874 H 0.96312 0.82445 0.67334 0.0
S875 S 0.10126 0.76571 0.56808 0.0
N876 N 0.03577 0.74989 0.58749 0.0
N877 N 0.10692 0.79468 0.58716 0.0
C878 C 0.0541 0.79239 0.61078 0.0
C879 C 0.01573 0.7681 0.61109 0.0
C880 C 0.01971 0.11341 0.23028 0.0
C881 C 0.01858 0.13829 0.21355 0.0
C882 C 1.01129 0.11101 0.26644 0.0
C883 C 1.00252 0.1334 0.2871 0.0
H884 H 0.02842 0.0957 0.21543 0.0
H885 H 1.01234 0.09157 0.27839 0.0
S886 S 0.98896 0.20263 0.25615 0.0
N887 N 1.00228 0.18553 0.22047 0.0
N888 N 0.98879 0.18092 0.2885 0.0
C889 C 1.00013 0.15827 0.27081 0.0
C890 C 1.00765 0.16074 0.23403 0.0
C891 C 0.59756 0.89152 0.24427 0.0
C892 C 0.54212 0.90523 0.22706 0.0
C893 C 0.60448 0.89195 0.28085 0.0
C894 C 0.55578 0.90591 0.30121 0.0
H895 H 0.63462 0.87996 0.22946 0.0
H896 H 0.64678 0.88064 0.29333 0.0
S897 S 0.40528 0.94674 0.26783 0.0
N898 N 0.44061 0.93425 0.23251 0.0
N899 N 0.45358 0.93529 0.30097 0.0
C900 C 0.50166 0.92036 0.28396 0.0
C901 C 0.49483 0.91994 0.24694 0.0
C902 C 0.93762 0.92135 0.76865 0.0
C903 C 0.97848 0.91429 0.79819 0.0
C904 C 0.96762 0.92146 0.73528 0.0
C905 C 0.0396 0.91455 0.73016 0.0
H906 H 0.88263 0.92728 0.77135 0.0
H907 H 0.93416 0.92738 0.71332 0.0
S908 S 0.16736 0.89185 0.7985 0.0
N909 N 0.0937 0.8982 0.81968 0.0
N910 N 0.14922 0.89884 0.75723 0.0
C911 C 0.08042 0.90685 0.75933 0.0
C912 C 0.05004 0.90657 0.79322 0.0
C913 C 0.584 0.15963 0.75728 0.0
C914 C 0.54434 0.16101 0.78785 0.0
C915 C 0.55025 0.15985 0.72429 0.0
C916 C 0.47528 0.16139 0.72032 0.0
H917 H 0.64149 0.15816 0.75879 0.0
H918 H 0.58366 0.15856 0.70164 0.0
S919 S 0.34662 0.16657 0.79199 0.0
N920 N 0.4251 0.16492 0.81184 0.0
N921 N 0.36287 0.16509 0.74994 0.0
C922 C 0.43503 0.16315 0.75058 0.0
C923 C 0.4692 0.16302 0.78424 0.0
C924 C 0.5155 0.64393 0.28189 0.0
C925 C 0.5214 0.62061 0.30188 0.0
C926 C 0.516 0.64333 0.24531 0.0
C927 C 0.52318 0.61943 0.22741 0.0
H928 H 0.50835 0.66268 0.29461 0.0
H929 H 0.51157 0.66175 0.23091 0.0
S930 S 0.5417 0.553 0.26767 0.0
N931 N 0.53508 0.57302 0.30114 0.0
N932 N 0.53728 0.57195 0.23244 0.0
C933 C 0.5302 0.59605 0.24711 0.0
C934 C 0.52888 0.59662 0.28431 0.0
C935 C 0.06 0.38847 0.28781 0.0
C936 C 0.06734 0.41063 0.30928 0.0
C937 C 0.05164 0.3913 0.25151 0.0
C938 C 0.04879 0.4164 0.23556 0.0
H939 H 0.05984 0.36885 0.29924 0.0
H940 H 0.04469 0.37377 0.23593 0.0
S941 S 0.06591 0.48053 0.28024 0.0
N942 N 0.07282 0.45839 0.312 0.0
N943 N 0.05501 0.46371 0.2439 0.0
C944 C 0.0568 0.43866 0.25671 0.0
C945 C 0.06668 0.43577 0.29355 0.0
C946 C 0.44396 0.41752 0.77875 0.0
C947 C 0.48776 0.41842 0.80869 0.0
C948 C 0.47323 0.41759 0.74526 0.0
C949 C 0.54761 0.41854 0.74017 0.0
H950 H 0.38664 0.4165 0.78113 0.0
H951 H 0.43682 0.41667 0.72313 0.0
S952 S 0.68602 0.42195 0.80986 0.0
N953 N 0.61012 0.42095 0.8309 0.0
N954 N 0.66414 0.42096 0.76809 0.0
C955 C 0.592 0.41975 0.76982 0.0
C956 C 0.56235 0.41973 0.80397 0.0
C957 C 0.08659 0.656 0.7631 0.0
C958 C 0.04685 0.64882 0.79237 0.0
C959 C 0.05427 0.6579 0.72974 0.0
C960 C 0.98078 0.65278 0.72416 0.0
H961 H 0.14247 0.66094 0.76609 0.0
H962 H 0.0873 0.66385 0.70816 0.0
S963 S 0.8542 0.63098 0.79164 0.0
N964 N 0.9304 0.6348 0.81303 0.0
N965 N 0.87067 0.63873 0.75069 0.0
C966 C 0.94099 0.64491 0.75302 0.0
C967 C 0.97376 0.64281 0.78692 0.0
loop_
_geom_bond_atom_site_label_1
_geom_bond_atom_site_label_2
_geom_bond_distance
_geom_bond_site_symmetry_2
_ccdc_geom_bond_type
Co0 N4 2.148 . S
Co0 N10 2.128 . S
Co0 N20 2.194 . S
Co0 O25 2.351 . S
Co0 O26 2.155 . S
Co0 O27 2.096 1_455 S
C1 N4 1.301 . S
C1 N5 1.328 . S
C1 H6 0.930 . S
C2 C3 1.333 . S
C2 N4 1.317 . S
C2 H7 0.930 1_455 S
C3 C2 1.333 . S
C3 N5 1.350 . S
C3 H29 0.931 . S
N4 Co0 2.148 . S
N4 C1 1.301 . S
N4 C2 1.317 . S
N5 C1 1.328 . S
N5 C3 1.350 . S
H6 C1 0.930 . S
H7 C2 0.930 1_655 S
C8 O9 1.224 . S
C8 O27 1.247 . S
O9 C8 1.224 . S
N10 Co0 2.128 . S
N10 C11 1.355 . S
N10 C13 1.311 . S
C11 N10 1.355 . S
C11 C12 1.363 . S
C11 H23 0.929 . S
C12 C11 1.363 . S
C12 N14 1.375 . S
C12 H30 0.931 . S
C13 N10 1.311 . S
C13 N14 1.347 . S
C13 H24 0.929 1_455 S
N14 C12 1.375 . S
N14 C13 1.347 . S
C15 C18 1.365 . S
C15 N20 1.328 . S
C15 H21 0.929 . S
C16 C17 1.362 1_655 S
C16 C19 1.376 1_655 S
C16 H31 0.929 . S
C17 C16 1.362 1_455 S
C17 C18 1.366 . S
C18 C15 1.365 . S
C18 C17 1.366 . S
C18 H32 0.930 . S
C19 C16 1.376 1_455 S
C19 N20 1.329 . S
C19 H22 0.917 1_455 S
N20 Co0 2.194 . S
N20 C15 1.328 . S
N20 C19 1.329 . S
H21 C15 0.929 . S
H22 C19 0.917 1_655 S
H23 C11 0.929 . S
H24 C13 0.929 1_655 S
O25 Co0 2.351 . S
O25 C28 1.244 . S
O26 Co0 2.155 . S
O26 C28 1.240 . S
O27 Co0 2.096 1_655 S
O27 C8 1.247 . S
C28 O25 1.244 . S
C28 O26 1.240 . S
H29 C3 0.931 . S
H30 C12 0.931 . S
H31 C16 0.929 . S
H32 C18 0.930 . S
Co33 N37 2.148 . S
Co33 N43 2.128 . S
Co33 N53 2.194 . S
Co33 O58 2.351 . S
Co33 O59 2.155 . S
Co33 O60 2.096 . S
C34 N37 1.301 . S
C34 N38 1.328 . S
C34 H39 0.930 . S
C35 C36 1.333 . S
C35 N37 1.317 . S
C35 H40 0.930 . S
C36 C35 1.333 . S
C36 N38 1.350 . S
C36 H62 0.931 . S
N37 Co33 2.148 . S
N37 C34 1.301 . S
N37 C35 1.317 . S
N38 C34 1.328 . S
N38 C36 1.350 . S
H39 C34 0.930 . S
H40 C35 0.930 . S
C41 O42 1.224 . S
C41 O60 1.247 . S
O42 C41 1.224 . S
N43 Co33 2.128 . S
N43 C44 1.355 . S
N43 C46 1.311 . S
C44 N43 1.355 . S
C44 C45 1.363 . S
C44 H56 0.929 . S
C45 C44 1.363 . S
C45 N47 1.375 . S
C45 H63 0.931 . S
C46 N43 1.311 . S
C46 N47 1.347 . S
C46 H57 0.929 . S
N47 C45 1.375 . S
N47 C46 1.347 . S
C48 C51 1.365 . S
C48 N53 1.328 . S
C48 H54 0.929 . S
C49 C50 1.362 . S
C49 C52 1.378 . S
C49 H64 0.929 . S
C50 C49 1.362 . S
C50 C51 1.366 . S
C51 C48 1.365 . S
C51 C50 1.366 . S
C51 H65 0.930 . S
C52 C49 1.378 . S
C52 N53 1.315 . S
C52 H55 0.930 . S
N53 Co33 2.194 . S
N53 C48 1.328 . S
N53 C52 1.315 . S
H54 C48 0.929 . S
H55 C52 0.930 . S
H56 C44 0.929 . S
H57 C46 0.929 . S
O58 Co33 2.351 . S
O58 C61 1.244 . S
O59 Co33 2.155 . S
O59 C61 1.240 . S
O60 Co33 2.096 . S
O60 C41 1.247 . S
C61 O58 1.244 . S
C61 O59 1.240 . S
H62 C36 0.931 . S
H63 C45 0.931 . S
H64 C49 0.929 . S
H65 C51 0.930 . S
Co66 N70 2.148 . S
Co66 N76 2.128 . S
Co66 N86 2.194 . S
Co66 O91 2.351 . S
Co66 O92 2.155 . S
Co66 O93 2.096 . S
C67 N70 1.301 . S
C67 N71 1.328 . S
C67 H72 0.930 . S
C68 C69 1.333 . S
C68 N70 1.317 . S
C68 H73 0.930 . S
C69 C68 1.333 . S
C69 N71 1.350 . S
C69 H95 0.931 . S
N70 Co66 2.148 . S
N70 C67 1.301 . S
N70 C68 1.317 . S
N71 C67 1.328 . S
N71 C69 1.350 . S
H72 C67 0.930 . S
H73 C68 0.930 . S
C74 O75 1.224 . S
C74 O93 1.247 . S
O75 C74 1.224 . S
N76 Co66 2.128 . S
N76 C77 1.355 . S
N76 C79 1.311 . S
C77 N76 1.355 . S
C77 C78 1.363 . S
C77 H89 0.929 . S
C78 C77 1.363 . S
C78 N80 1.375 . S
C78 H96 0.931 . S
C79 N76 1.311 . S
C79 N80 1.347 . S
C79 H90 0.929 . S
N80 C78 1.375 . S
N80 C79 1.347 . S
C81 C84 1.365 . S
C81 N86 1.328 . S
C81 H87 0.929 . S
C82 C83 1.362 . S
C82 C85 1.378 . S
C82 H97 0.929 . S
C83 C82 1.362 . S
C83 C84 1.366 . S
C84 C81 1.365 . S
C84 C83 1.366 . S
C84 H98 0.930 . S
C85 C82 1.378 . S
C85 N86 1.315 . S
C85 H88 0.930 . S
N86 Co66 2.194 . S
N86 C81 1.328 . S
N86 C85 1.315 . S
H87 C81 0.929 . S
H88 C85 0.930 . S
H89 C77 0.929 . S
H90 C79 0.929 . S
O91 Co66 2.351 . S
O91 C94 1.244 . S
O92 Co66 2.155 . S
O92 C94 1.240 . S
O93 Co66 2.096 . S
O93 C74 1.247 . S
C94 O91 1.244 . S
C94 O92 1.240 . S
H95 C69 0.931 . S
H96 C78 0.931 . S
H97 C82 0.929 . S
H98 C84 0.930 . S
Co99 N103 2.148 . S
Co99 N109 2.128 . S
Co99 N119 2.194 . S
Co99 O124 2.351 . S
Co99 O125 2.155 . S
Co99 O126 2.096 1_655 S
C100 N103 1.301 . S
C100 N104 1.328 . S
C100 H105 0.930 . S
C101 C102 1.333 . S
C101 N103 1.317 . S
C101 H106 0.930 1_655 S
C102 C101 1.333 . S
C102 N104 1.350 . S
C102 H128 0.931 . S
N103 Co99 2.148 . S
N103 C100 1.301 . S
N103 C101 1.317 . S
N104 C100 1.328 . S
N104 C102 1.350 . S
H105 C100 0.930 . S
H106 C101 0.930 1_455 S
C107 O108 1.224 . S
C107 O126 1.247 . S
O108 C107 1.224 . S
N109 Co99 2.128 . S
N109 C110 1.355 . S
N109 C112 1.311 . S
C110 N109 1.355 . S
C110 C111 1.363 . S
C110 H122 0.929 . S
C111 C110 1.363 . S
C111 N113 1.375 . S
C111 H129 0.931 . S
C112 N109 1.311 . S
C112 N113 1.347 . S
C112 H123 0.929 1_655 S
N113 C111 1.375 . S
N113 C112 1.347 . S
C114 C117 1.365 . S
C114 N119 1.328 . S
C114 H120 0.929 . S
C115 C116 1.362 1_455 S
C115 C118 1.380 . S
C115 H130 0.929 . S
C116 C115 1.362 1_655 S
C116 C117 1.366 . S
C117 C114 1.365 . S
C117 C116 1.366 . S
C117 H131 0.930 . S
C118 C115 1.380 . S
C118 N119 1.301 1_455 S
C118 H121 0.943 . S
N119 Co99 2.194 . S
N119 C114 1.328 . S
N119 C118 1.301 1_655 S
H120 C114 0.929 . S
H121 C118 0.943 . S
H122 C110 0.929 . S
H123 C112 0.929 1_455 S
O124 Co99 2.351 . S
O124 C127 1.244 . S
O125 Co99 2.155 . S
O125 C127 1.240 . S
O126 Co99 2.096 1_455 S
O126 C107 1.247 . S
C127 O124 1.244 . S
C127 O125 1.240 . S
H128 C102 0.931 . S
H129 C111 0.931 . S
H130 C115 0.929 . S
H131 C117 0.930 . S
Co132 N136 2.148 . S
Co132 N142 2.128 . S
Co132 N152 2.194 . S
Co132 O157 2.351 . S
Co132 O158 2.155 . S
Co132 O159 2.096 . S
C133 N136 1.301 . S
C133 N137 1.328 . S
C133 H138 0.930 . S
C134 C135 1.333 . S
C134 N136 1.317 . S
C134 H139 0.930 . S
C135 C134 1.333 . S
C135 N137 1.350 . S
C135 H161 0.931 . S
N136 Co132 2.148 . S
N136 C133 1.301 . S
N136 C134 1.317 . S
N137 C133 1.328 . S
N137 C135 1.350 . S
H138 C133 0.930 . S
H139 C134 0.930 . S
C140 O141 1.224 . S
C140 O159 1.247 . S
O141 C140 1.224 . S
N142 Co132 2.128 . S
N142 C143 1.355 . S
N142 C145 1.311 . S
C143 N142 1.355 . S
C143 C144 1.363 . S
C143 H155 0.929 . S
C144 C143 1.363 . S
C144 N146 1.375 . S
C144 H162 0.931 . S
C145 N142 1.311 . S
C145 N146 1.347 . S
C145 H156 0.929 . S
N146 C144 1.375 . S
N146 C145 1.347 . S
C147 C150 1.365 . S
C147 N152 1.328 1_455 S
C147 H153 0.929 . S
C148 C149 1.362 . S
C148 C151 1.378 1_455 S
C148 H163 0.929 . S
C149 C148 1.362 . S
C149 C150 1.366 . S
C150 C147 1.365 . S
C150 C149 1.366 . S
C150 H164 0.930 . S
C151 C148 1.378 1_655 S
C151 N152 1.315 . S
C151 H154 0.930 . S
N152 Co132 2.194 . S
N152 C147 1.328 1_655 S
N152 C151 1.315 . S
H153 C147 0.929 . S
H154 C151 0.930 . S
H155 C143 0.929 . S
H156 C145 0.929 . S
O157 Co132 2.351 . S
O157 C160 1.244 . S
O158 Co132 2.155 . S
O158 C160 1.240 . S
O159 Co132 2.096 . S
O159 C140 1.247 . S
C160 O157 1.244 . S
C160 O158 1.240 . S
H161 C135 0.931 . S
H162 C144 0.931 . S
H163 C148 0.929 . S
H164 C150 0.930 . S
Co165 N169 2.148 . S
Co165 N175 2.128 . S
Co165 N185 2.194 . S
Co165 O190 2.351 . S
Co165 O191 2.155 . S
Co165 O192 2.096 . S
C166 N169 1.301 . S
C166 N170 1.328 . S
C166 H171 0.930 . S
C167 C168 1.333 . S
C167 N169 1.317 . S
C167 H172 0.930 . S
C168 C167 1.333 . S
C168 N170 1.350 . S
C168 H194 0.931 . S
N169 Co165 2.148 . S
N169 C166 1.301 . S
N169 C167 1.317 . S
N170 C166 1.328 . S
N170 C168 1.350 . S
H171 C166 0.930 . S
H172 C167 0.930 . S
C173 O174 1.224 . S
C173 O192 1.247 . S
O174 C173 1.224 . S
N175 Co165 2.128 . S
N175 C176 1.355 . S
N175 C178 1.311 . S
C176 N175 1.355 . S
C176 C177 1.363 . S
C176 H188 0.929 . S
C177 C176 1.363 . S
C177 N179 1.375 . S
C177 H195 0.931 . S
C178 N175 1.311 . S
C178 N179 1.347 . S
C178 H189 0.929 . S
N179 C177 1.375 . S
N179 C178 1.347 . S
C180 C183 1.365 . S
C180 N185 1.328 . S
C180 H186 0.929 . S
C181 C182 1.362 . S
C181 C184 1.378 . S
C181 H196 0.929 . S
C182 C181 1.362 . S
C182 C183 1.366 . S
C183 C180 1.365 . S
C183 C182 1.366 . S
C183 H197 0.930 . S
C184 C181 1.378 . S
C184 N185 1.315 . S
C184 H187 0.930 . S
N185 Co165 2.194 . S
N185 C180 1.328 . S
N185 C184 1.315 . S
H186 C180 0.929 . S
H187 C184 0.930 . S
H188 C176 0.929 . S
H189 C178 0.929 . S
O190 Co165 2.351 . S
O190 C193 1.244 . S
O191 Co165 2.155 . S
O191 C193 1.240 . S
O192 Co165 2.096 . S
O192 C173 1.247 . S
C193 O190 1.244 . S
C193 O191 1.240 . S
H194 C168 0.931 . S
H195 C177 0.931 . S
H196 C181 0.929 . S
H197 C183 0.930 . S
Co198 N202 2.148 . S
Co198 N208 2.128 . S
Co198 N218 2.194 . S
Co198 O223 2.351 . S
Co198 O224 2.155 . S
Co198 O225 2.096 . S
C199 N202 1.301 . S
C199 N203 1.328 . S
C199 H204 0.930 . S
C200 C201 1.333 . S
C200 N202 1.317 . S
C200 H205 0.930 . S
C201 C200 1.333 . S
C201 N203 1.350 . S
C201 H227 0.931 . S
N202 Co198 2.148 . S
N202 C199 1.301 . S
N202 C200 1.317 . S
N203 C199 1.328 . S
N203 C201 1.350 . S
H204 C199 0.930 . S
H205 C200 0.930 . S
C206 O207 1.224 . S
C206 O225 1.247 . S
O207 C206 1.224 . S
N208 Co198 2.128 . S
N208 C209 1.355 . S
N208 C211 1.311 . S
C209 N208 1.355 . S
C209 C210 1.363 . S
C209 H221 0.929 . S
C210 C209 1.363 . S
C210 N212 1.375 . S
C210 H228 0.931 . S
C211 N208 1.311 . S
C211 N212 1.347 . S
C211 H222 0.929 . S
N212 C210 1.375 . S
N212 C211 1.347 . S
C213 C216 1.365 . S
C213 N218 1.328 . S
C213 H219 0.929 . S
C214 C215 1.362 . S
C214 C217 1.378 . S
C214 H229 0.929 . S
C215 C214 1.362 . S
C215 C216 1.366 . S
C216 C213 1.365 . S
C216 C215 1.366 . S
C216 H230 0.930 . S
C217 C214 1.378 . S
C217 N218 1.315 . S
C217 H220 0.930 . S
N218 Co198 2.194 . S
N218 C213 1.328 . S
N218 C217 1.315 . S
H219 C213 0.929 . S
H220 C217 0.930 . S
H221 C209 0.929 . S
H222 C211 0.929 . S
O223 Co198 2.351 . S
O223 C226 1.244 . S
O224 Co198 2.155 . S
O224 C226 1.240 . S
O225 Co198 2.096 . S
O225 C206 1.247 . S
C226 O223 1.244 . S
C226 O224 1.240 . S
H227 C201 0.931 . S
H228 C210 0.931 . S
H229 C214 0.929 . S
H230 C216 0.930 . S
Co231 N235 2.148 . S
Co231 N241 2.128 . S
Co231 N251 2.194 . S
Co231 O256 2.351 . S
Co231 O257 2.155 . S
Co231 O258 2.096 . S
C232 N235 1.301 . S
C232 N236 1.328 . S
C232 H237 0.930 . S
C233 C234 1.333 . S
C233 N235 1.317 . S
C233 H238 0.930 . S
C234 C233 1.333 . S
C234 N236 1.350 . S
C234 H260 0.931 . S
N235 Co231 2.148 . S
N235 C232 1.301 . S
N235 C233 1.317 . S
N236 C232 1.328 . S
N236 C234 1.350 . S
H237 C232 0.930 . S
H238 C233 0.930 . S
C239 O240 1.224 . S
C239 O258 1.247 . S
O240 C239 1.224 . S
N241 Co231 2.128 . S
N241 C242 1.355 . S
N241 C244 1.311 . S
C242 N241 1.355 . S
C242 C243 1.363 . S
C242 H254 0.929 . S
C243 C242 1.363 . S
C243 N245 1.375 . S
C243 H261 0.931 . S
C244 N241 1.311 . S
C244 N245 1.347 . S
C244 H255 0.929 . S
N245 C243 1.375 . S
N245 C244 1.347 . S
C246 C249 1.365 . S
C246 N251 1.328 1_655 S
C246 H252 0.929 . S
C247 C248 1.362 . S
C247 C250 1.378 1_655 S
C247 H262 0.929 . S
C248 C247 1.362 . S
C248 C249 1.366 . S
C249 C246 1.365 . S
C249 C248 1.366 . S
C249 H263 0.930 . S
C250 C247 1.378 1_455 S
C250 N251 1.315 . S
C250 H253 0.930 . S
N251 Co231 2.194 . S
N251 C246 1.328 1_455 S
N251 C250 1.315 . S
H252 C246 0.929 . S
H253 C250 0.930 . S
H254 C242 0.929 . S
H255 C244 0.929 . S
O256 Co231 2.351 . S
O256 C259 1.244 . S
O257 Co231 2.155 . S
O257 C259 1.240 . S
O258 Co231 2.096 . S
O258 C239 1.247 . S
C259 O256 1.244 . S
C259 O257 1.240 . S
H260 C234 0.931 . S
H261 C243 0.931 . S
H262 C247 0.929 . S
H263 C249 0.930 . S
Co264 N268 2.148 . S
Co264 N274 2.128 . S
Co264 N284 2.194 . S
Co264 O289 2.351 . S
Co264 O290 2.155 . S
Co264 O291 2.096 . S
C265 N268 1.301 . S
C265 N269 1.328 . S
C265 H270 0.930 . S
C266 C267 1.333 . S
C266 N268 1.317 . S
C266 H271 0.930 . S
C267 C266 1.333 . S
C267 N269 1.350 . S
C267 H293 0.931 . S
N268 Co264 2.148 . S
N268 C265 1.301 . S
N268 C266 1.317 . S
N269 C265 1.328 . S
N269 C267 1.350 . S
H270 C265 0.930 . S
H271 C266 0.930 . S
C272 O273 1.224 . S
C272 O291 1.247 . S
O273 C272 1.224 . S
N274 Co264 2.128 . S
N274 C275 1.355 . S
N274 C277 1.311 . S
C275 N274 1.355 . S
C275 C276 1.363 . S
C275 H287 0.929 . S
C276 C275 1.363 . S
C276 N278 1.375 . S
C276 H294 0.931 . S
C277 N274 1.311 . S
C277 N278 1.347 . S
C277 H288 0.929 . S
N278 C276 1.375 . S
N278 C277 1.347 . S
C279 C282 1.365 . S
C279 N284 1.328 . S
C279 H285 0.929 . S
C280 C281 1.362 . S
C280 C283 1.378 . S
C280 H295 0.929 . S
C281 C280 1.362 . S
C281 C282 1.366 . S
C282 C279 1.365 . S
C282 C281 1.366 . S
C282 H296 0.930 . S
C283 C280 1.378 . S
C283 N284 1.315 . S
C283 H286 0.930 . S
N284 Co264 2.194 . S
N284 C279 1.328 . S
N284 C283 1.315 . S
H285 C279 0.929 . S
H286 C283 0.930 . S
H287 C275 0.929 . S
H288 C277 0.929 . S
O289 Co264 2.351 . S
O289 C292 1.244 . S
O290 Co264 2.155 . S
O290 C292 1.240 . S
O291 Co264 2.096 . S
O291 C272 1.247 . S
C292 O289 1.244 . S
C292 O290 1.240 . S
H293 C267 0.931 . S
H294 C276 0.931 . S
H295 C280 0.929 . S
H296 C282 0.930 . S
Co297 N301 2.148 . S
Co297 N307 2.128 . S
Co297 N317 2.194 . S
Co297 O322 2.351 . S
Co297 O323 2.155 . S
Co297 O324 2.096 1_655 S
C298 N301 1.301 . S
C298 N302 1.328 . S
C298 H303 0.930 . S
C299 C300 1.333 . S
C299 N301 1.317 . S
C299 H304 0.930 1_655 S
C300 C299 1.333 . S
C300 N302 1.350 . S
C300 H326 0.931 . S
N301 Co297 2.148 . S
N301 C298 1.301 . S
N301 C299 1.317 . S
N302 C298 1.328 . S
N302 C300 1.350 . S
H303 C298 0.930 . S
H304 C299 0.930 1_455 S
C305 O306 1.224 . S
C305 O324 1.247 . S
O306 C305 1.224 . S
N307 Co297 2.128 . S
N307 C308 1.355 . S
N307 C310 1.311 . S
C308 N307 1.355 . S
C308 C309 1.363 . S
C308 H320 0.929 . S
C309 C308 1.363 . S
C309 N311 1.375 . S
C309 H327 0.931 . S
C310 N307 1.311 . S
C310 N311 1.347 . S
C310 H321 0.929 1_655 S
N311 C309 1.375 . S
N311 C310 1.347 . S
C312 C315 1.365 . S
C312 N317 1.328 . S
C312 H318 0.929 . S
C313 C314 1.362 1_455 S
C313 C316 1.376 1_455 S
C313 H328 0.929 . S
C314 C313 1.362 1_655 S
C314 C315 1.366 . S
C315 C312 1.365 . S
C315 C314 1.366 . S
C315 H329 0.930 . S
C316 C313 1.376 1_655 S
C316 N317 1.325 . S
C316 H319 0.921 1_655 S
N317 Co297 2.194 . S
N317 C312 1.328 . S
N317 C316 1.325 . S
H318 C312 0.929 . S
H319 C316 0.921 1_455 S
H320 C308 0.929 . S
H321 C310 0.929 1_455 S
O322 Co297 2.351 . S
O322 C325 1.244 . S
O323 Co297 2.155 . S
O323 C325 1.240 . S
O324 Co297 2.096 1_455 S
O324 C305 1.247 . S
C325 O322 1.244 . S
C325 O323 1.240 . S
H326 C300 0.931 . S
H327 C309 0.931 . S
H328 C313 0.929 . S
H329 C315 0.930 . S
Co330 N334 2.148 . S
Co330 N340 2.128 . S
Co330 N350 2.194 . S
Co330 O355 2.351 1_455 S
Co330 O356 2.155 1_455 S
Co330 O357 2.096 . S
C331 N334 1.309 . S
C331 N335 1.330 . S
C331 H336 0.921 1_455 S
C332 C333 1.333 . S
C332 N334 1.317 . S
C332 H337 0.930 . S
C333 C332 1.333 . S
C333 N335 1.350 . S
C333 H359 0.931 . S
N334 Co330 2.148 . S
N334 C331 1.309 . S
N334 C332 1.317 . S
N335 C331 1.330 . S
N335 C333 1.350 . S
H336 C331 0.921 1_655 S
H337 C332 0.930 . S
C338 O339 1.224 . S
C338 O357 1.247 . S
O339 C338 1.224 . S
N340 Co330 2.128 . S
N340 C341 1.355 . S
N340 C343 1.311 . S
C341 N340 1.355 . S
C341 C342 1.363 . S
C341 H353 0.929 1_455 S
C342 C341 1.363 . S
C342 N344 1.375 . S
C342 H360 0.931 . S
C343 N340 1.311 . S
C343 N344 1.347 . S
C343 H354 0.929 . S
N344 C342 1.375 . S
N344 C343 1.347 . S
C345 C348 1.365 . S
C345 N350 1.328 1_655 S
C345 H351 0.929 . S
C346 C347 1.362 . S
C346 C349 1.378 . S
C346 H361 0.929 . S
C347 C346 1.362 . S
C347 C348 1.366 1_455 S
C348 C345 1.365 . S
C348 C347 1.366 1_655 S
C348 H362 0.930 . S
C349 C346 1.378 . S
C349 N350 1.315 . S
C349 H352 0.930 . S
N350 Co330 2.194 . S
N350 C345 1.328 1_455 S
N350 C349 1.315 . S
H351 C345 0.929 . S
H352 C349 0.930 . S
H353 C341 0.929 1_655 S
H354 C343 0.929 . S
O355 Co330 2.351 1_655 S
O355 C358 1.244 . S
O356 Co330 2.155 1_655 S
O356 C358 1.240 . S
O357 Co330 2.096 . S
O357 C338 1.247 . S
C358 O355 1.244 . S
C358 O356 1.240 . S
H359 C333 0.931 . S
H360 C342 0.931 . S
H361 C346 0.929 . S
H362 C348 0.930 . S
Co363 N367 2.148 . S
Co363 N373 2.128 . S
Co363 N383 2.194 . S
Co363 O388 2.351 . S
Co363 O389 2.155 . S
Co363 O390 2.096 . S
C364 N367 1.301 . S
C364 N368 1.328 . S
C364 H369 0.930 . S
C365 C366 1.333 . S
C365 N367 1.317 . S
C365 H370 0.930 . S
C366 C365 1.333 . S
C366 N368 1.350 . S
C366 H392 0.931 . S
N367 Co363 2.148 . S
N367 C364 1.301 . S
N367 C365 1.317 . S
N368 C364 1.328 . S
N368 C366 1.350 . S
H369 C364 0.930 . S
H370 C365 0.930 . S
C371 O372 1.224 . S
C371 O390 1.247 . S
O372 C371 1.224 . S
N373 Co363 2.128 . S
N373 C374 1.355 . S
N373 C376 1.311 . S
C374 N373 1.355 . S
C374 C375 1.363 . S
C374 H386 0.929 . S
C375 C374 1.363 . S
C375 N377 1.375 . S
C375 H393 0.931 . S
C376 N373 1.311 . S
C376 N377 1.347 . S
C376 H387 0.929 . S
N377 C375 1.375 . S
N377 C376 1.347 . S
C378 C381 1.365 . S
C378 N383 1.328 . S
C378 H384 0.929 . S
C379 C380 1.362 . S
C379 C382 1.378 . S
C379 H394 0.929 . S
C380 C379 1.362 . S
C380 C381 1.366 . S
C381 C378 1.365 . S
C381 C380 1.366 . S
C381 H395 0.930 . S
C382 C379 1.378 . S
C382 N383 1.315 . S
C382 H385 0.930 . S
N383 Co363 2.194 . S
N383 C378 1.328 . S
N383 C382 1.315 . S
H384 C378 0.929 . S
H385 C382 0.930 . S
H386 C374 0.929 . S
H387 C376 0.929 . S
O388 Co363 2.351 . S
O388 C391 1.244 . S
O389 Co363 2.155 . S
O389 C391 1.240 . S
O390 Co363 2.096 . S
O390 C371 1.247 . S
C391 O388 1.244 . S
C391 O389 1.240 . S
H392 C366 0.931 . S
H393 C375 0.931 . S
H394 C379 0.929 . S
H395 C381 0.930 . S
Co396 N400 2.148 . S
Co396 N406 2.128 . S
Co396 N416 2.194 . S
Co396 O421 2.351 . S
Co396 O422 2.155 . S
Co396 O423 2.096 . S
C397 N400 1.301 . S
C397 N401 1.328 . S
C397 H402 0.930 . S
C398 C399 1.333 . S
C398 N400 1.317 . S
C398 H403 0.930 . S
C399 C398 1.333 . S
C399 N401 1.350 . S
C399 H425 0.931 . S
N400 Co396 2.148 . S
N400 C397 1.301 . S
N400 C398 1.317 . S
N401 C397 1.328 . S
N401 C399 1.350 . S
H402 C397 0.930 . S
H403 C398 0.930 . S
C404 O405 1.224 . S
C404 O423 1.247 . S
O405 C404 1.224 . S
N406 Co396 2.128 . S
N406 C407 1.355 . S
N406 C409 1.311 . S
C407 N406 1.355 . S
C407 C408 1.363 . S
C407 H419 0.929 . S
C408 C407 1.363 . S
C408 N410 1.375 . S
C408 H426 0.931 . S
C409 N406 1.311 . S
C409 N410 1.347 . S
C409 H420 0.929 . S
N410 C408 1.375 . S
N410 C409 1.347 . S
C411 C414 1.365 . S
C411 N416 1.328 . S
C411 H417 0.929 . S
C412 C413 1.362 . S
C412 C415 1.378 . S
C412 H427 0.929 . S
C413 C412 1.362 . S
C413 C414 1.366 . S
C414 C411 1.365 . S
C414 C413 1.366 . S
C414 H428 0.930 . S
C415 C412 1.378 . S
C415 N416 1.315 . S
C415 H418 0.930 . S
N416 Co396 2.194 . S
N416 C411 1.328 . S
N416 C415 1.315 . S
H417 C411 0.929 . S
H418 C415 0.930 . S
H419 C407 0.929 . S
H420 C409 0.929 . S
O421 Co396 2.351 . S
O421 C424 1.244 . S
O422 Co396 2.155 . S
O422 C424 1.240 . S
O423 Co396 2.096 . S
O423 C404 1.247 . S
C424 O421 1.244 . S
C424 O422 1.240 . S
H425 C399 0.931 . S
H426 C408 0.931 . S
H427 C412 0.929 . S
H428 C414 0.930 . S
Co429 N433 2.148 . S
Co429 N439 2.128 . S
Co429 N449 2.194 . S
Co429 O454 2.351 . S
Co429 O455 2.155 . S
Co429 O456 2.096 . S
C430 N433 1.301 . S
C430 N434 1.328 . S
C430 H435 0.930 . S
C431 C432 1.333 . S
C431 N433 1.317 . S
C431 H436 0.930 . S
C432 C431 1.333 . S
C432 N434 1.350 . S
C432 H458 0.931 . S
N433 Co429 2.148 . S
N433 C430 1.301 . S
N433 C431 1.317 . S
N434 C430 1.328 . S
N434 C432 1.350 . S
H435 C430 0.930 . S
H436 C431 0.930 . S
C437 O438 1.224 . S
C437 O456 1.247 . S
O438 C437 1.224 . S
N439 Co429 2.128 . S
N439 C440 1.355 . S
N439 C442 1.311 . S
C440 N439 1.355 . S
C440 C441 1.363 . S
C440 H452 0.929 . S
C441 C440 1.363 . S
C441 N443 1.375 . S
C441 H459 0.931 . S
C442 N439 1.311 . S
C442 N443 1.347 . S
C442 H453 0.929 . S
N443 C441 1.375 . S
N443 C442 1.347 . S
C444 C447 1.365 . S
C444 N449 1.328 1_655 S
C444 H450 0.929 . S
C445 C446 1.362 . S
C445 C448 1.378 1_655 S
C445 H460 0.929 . S
C446 C445 1.362 . S
C446 C447 1.366 . S
C447 C444 1.365 . S
C447 C446 1.366 . S
C447 H461 0.930 . S
C448 C445 1.378 1_455 S
C448 N449 1.315 . S
C448 H451 0.930 . S
N449 Co429 2.194 . S
N449 C444 1.328 1_455 S
N449 C448 1.315 . S
H450 C444 0.929 . S
H451 C448 0.930 . S
H452 C440 0.929 . S
H453 C442 0.929 . S
O454 Co429 2.351 . S
O454 C457 1.244 . S
O455 Co429 2.155 . S
O455 C457 1.240 . S
O456 Co429 2.096 . S
O456 C437 1.247 . S
C457 O454 1.244 . S
C457 O455 1.240 . S
H458 C432 0.931 . S
H459 C441 0.931 . S
H460 C445 0.929 . S
H461 C447 0.930 . S
Co462 N466 2.148 . S
Co462 N472 2.128 . S
Co462 N482 2.194 . S
Co462 O487 2.351 . S
Co462 O488 2.155 . S
Co462 O489 2.096 . S
C463 N466 1.301 . S
C463 N467 1.328 . S
C463 H468 0.930 . S
C464 C465 1.333 . S
C464 N466 1.317 . S
C464 H469 0.930 . S
C465 C464 1.333 . S
C465 N467 1.350 . S
C465 H491 0.931 . S
N466 Co462 2.148 . S
N466 C463 1.301 . S
N466 C464 1.317 . S
N467 C463 1.328 . S
N467 C465 1.350 . S
H468 C463 0.930 . S
H469 C464 0.930 . S
C470 O471 1.224 . S
C470 O489 1.247 . S
O471 C470 1.224 . S
N472 Co462 2.128 . S
N472 C473 1.355 . S
N472 C475 1.311 . S
C473 N472 1.355 . S
C473 C474 1.363 . S
C473 H485 0.929 . S
C474 C473 1.363 . S
C474 N476 1.375 . S
C474 H492 0.931 . S
C475 N472 1.311 . S
C475 N476 1.347 . S
C475 H486 0.929 . S
N476 C474 1.375 . S
N476 C475 1.347 . S
C477 C480 1.365 . S
C477 N482 1.328 1_455 S
C477 H483 0.929 . S
C478 C479 1.362 . S
C478 C481 1.378 1_455 S
C478 H493 0.929 . S
C479 C478 1.362 . S
C479 C480 1.366 . S
C480 C477 1.365 . S
C480 C479 1.366 . S
C480 H494 0.930 . S
C481 C478 1.378 1_655 S
C481 N482 1.315 . S
C481 H484 0.930 . S
N482 Co462 2.194 . S
N482 C477 1.328 1_655 S
N482 C481 1.315 . S
H483 C477 0.929 . S
H484 C481 0.930 . S
H485 C473 0.929 . S
H486 C475 0.929 . S
O487 Co462 2.351 . S
O487 C490 1.244 . S
O488 Co462 2.155 . S
O488 C490 1.240 . S
O489 Co462 2.096 . S
O489 C470 1.247 . S
C490 O487 1.244 . S
C490 O488 1.240 . S
H491 C465 0.931 . S
H492 C474 0.931 . S
H493 C478 0.929 . S
H494 C480 0.930 . S
Co495 N499 2.148 . S
Co495 N505 2.128 . S
Co495 N515 2.194 . S
Co495 O520 2.351 . S
Co495 O521 2.155 . S
Co495 O522 2.096 . S
C496 N499 1.301 . S
C496 N500 1.328 . S
C496 H501 0.930 . S
C497 C498 1.333 . S
C497 N499 1.317 . S
C497 H502 0.930 . S
C498 C497 1.333 . S
C498 N500 1.350 . S
C498 H524 0.931 . S
N499 Co495 2.148 . S
N499 C496 1.301 . S
N499 C497 1.317 . S
N500 C496 1.328 . S
N500 C498 1.350 . S
H501 C496 0.930 . S
H502 C497 0.930 . S
C503 O504 1.224 . S
C503 O522 1.247 . S
O504 C503 1.224 . S
N505 Co495 2.128 . S
N505 C506 1.355 . S
N505 C508 1.311 . S
C506 N505 1.355 . S
C506 C507 1.363 . S
C506 H518 0.929 . S
C507 C506 1.363 . S
C507 N509 1.375 . S
C507 H525 0.931 . S
C508 N505 1.311 . S
C508 N509 1.347 . S
C508 H519 0.929 . S
N509 C507 1.375 . S
N509 C508 1.347 . S
C510 C513 1.365 . S
C510 N515 1.328 . S
C510 H516 0.929 . S
C511 C512 1.362 . S
C511 C514 1.378 . S
C511 H526 0.929 . S
C512 C511 1.362 . S
C512 C513 1.366 . S
C513 C510 1.365 . S
C513 C512 1.366 . S
C513 H527 0.930 . S
C514 C511 1.378 . S
C514 N515 1.315 . S
C514 H517 0.930 . S
N515 Co495 2.194 . S
N515 C510 1.328 . S
N515 C514 1.315 . S
H516 C510 0.929 . S
H517 C514 0.930 . S
H518 C506 0.929 . S
H519 C508 0.929 . S
O520 Co495 2.351 . S
O520 C523 1.244 . S
O521 Co495 2.155 . S
O521 C523 1.240 . S
O522 Co495 2.096 . S
O522 C503 1.247 . S
C523 O520 1.244 . S
C523 O521 1.240 . S
H524 C498 0.931 . S
H525 C507 0.931 . S
H526 C511 0.929 . S
H527 C513 0.930 . S
C528 C529 1.369 . S
C528 C530 1.419 . S
C528 H532 0.930 . S
C529 C528 1.369 . S
C529 C538 1.429 1_556 S
C530 C528 1.419 . S
C530 C531 1.363 1_556 S
C530 H533 0.929 . S
C531 C530 1.363 1_554 S
C531 C537 1.428 . S
H532 C528 0.930 . S
H533 C530 0.929 . S
S534 N535 1.613 . S
S534 N536 1.610 . S
N535 S534 1.613 . S
N535 C538 1.350 . S
N536 S534 1.610 . S
N536 C537 1.351 . S
C537 C531 1.428 . S
C537 N536 1.351 . S
C537 C538 1.434 . S
C538 C529 1.429 1_554 S
C538 N535 1.350 . S
C538 C537 1.434 . S
C539 C540 1.369 . S
C539 C541 1.419 1_556 S
C539 H543 0.930 . S
C540 C539 1.369 . S
C540 C549 1.429 . S
C541 C539 1.419 1_554 S
C541 C542 1.363 . S
C541 H544 0.929 . S
C542 C541 1.363 . S
C542 C548 1.428 1_554 S
H543 C539 0.930 . S
H544 C541 0.929 . S
S545 N546 1.613 . S
S545 N547 1.610 . S
N546 S545 1.613 . S
N546 C549 1.350 . S
N547 S545 1.610 . S
N547 C548 1.351 . S
C548 C542 1.428 1_556 S
C548 N547 1.351 . S
C548 C549 1.434 . S
C549 C540 1.429 . S
C549 N546 1.350 . S
C549 C548 1.434 . S
C550 C551 1.369 . S
C550 C552 1.419 . S
C550 H554 0.930 . S
C551 C550 1.369 . S
C551 C560 1.429 . S
C552 C550 1.419 . S
C552 C553 1.363 . S
C552 H555 0.929 . S
C553 C552 1.363 . S
C553 C559 1.428 . S
H554 C550 0.930 . S
H555 C552 0.929 . S
S556 N557 1.613 . S
S556 N558 1.610 . S
N557 S556 1.613 . S
N557 C560 1.350 . S
N558 S556 1.610 . S
N558 C559 1.351 . S
C559 C553 1.428 . S
C559 N558 1.351 . S
C559 C560 1.434 . S
C560 C551 1.429 . S
C560 N557 1.350 . S
C560 C559 1.434 . S
C561 C562 1.369 . S
C561 C563 1.419 . S
C561 H565 0.930 . S
C562 C561 1.369 . S
C562 C571 1.429 . S
C563 C561 1.419 . S
C563 C564 1.363 . S
C563 H566 0.929 . S
C564 C563 1.363 . S
C564 C570 1.428 . S
H565 C561 0.930 . S
H566 C563 0.929 . S
S567 N568 1.613 . S
S567 N569 1.610 . S
N568 S567 1.613 . S
N568 C571 1.350 . S
N569 S567 1.610 . S
N569 C570 1.351 . S
C570 C564 1.428 . S
C570 N569 1.351 . S
C570 C571 1.434 . S
C571 C562 1.429 . S
C571 N568 1.350 . S
C571 C570 1.434 . S
C572 C573 1.369 . S
C572 C574 1.419 1_556 S
C572 H576 0.930 . S
C573 C572 1.369 . S
C573 C582 1.429 . S
C574 C572 1.419 1_554 S
C574 C575 1.366 . S
C574 H577 0.929 . S
C575 C574 1.366 . S
C575 C581 1.400 1_554 S
H576 C572 0.930 . S
H577 C574 0.929 . S
S578 N579 1.613 . S
S578 N580 1.610 . S
N579 S578 1.613 . S
N579 C582 1.350 . S
N580 S578 1.610 . S
N580 C581 1.351 . S
C581 C575 1.400 1_556 S
C581 N580 1.351 . S
C581 C582 1.434 . S
C582 C573 1.429 . S
C582 N579 1.350 . S
C582 C581 1.434 . S
C583 C584 1.369 . S
C583 C585 1.419 . S
C583 H587 0.930 . S
C584 C583 1.369 . S
C584 C593 1.429 . S
C585 C583 1.419 . S
C585 C586 1.363 1_556 S
C585 H588 0.929 . S
C586 C585 1.363 1_554 S
C586 C592 1.428 . S
H587 C583 0.930 . S
H588 C585 0.929 . S
S589 N590 1.613 1_554 S
S589 N591 1.610 . S
N590 S589 1.613 1_556 S
N590 C593 1.350 . S
N591 S589 1.610 . S
N591 C592 1.351 . S
C592 C586 1.428 . S
C592 N591 1.351 . S
C592 C593 1.434 1_554 S
C593 C584 1.429 . S
C593 N590 1.350 . S
C593 C592 1.434 1_556 S
C594 C595 1.369 . S
C594 C596 1.419 . S
C594 H598 0.930 . S
C595 C594 1.369 . S
C595 C604 1.429 . S
C596 C594 1.419 . S
C596 C597 1.363 . S
C596 H599 0.929 . S
C597 C596 1.363 . S
C597 C603 1.428 . S
H598 C594 0.930 . S
H599 C596 0.929 . S
S600 N601 1.613 . S
S600 N602 1.610 . S
N601 S600 1.613 . S
N601 C604 1.350 . S
N602 S600 1.610 . S
N602 C603 1.351 . S
C603 C597 1.428 . S
C603 N602 1.351 . S
C603 C604 1.434 . S
C604 C595 1.429 . S
C604 N601 1.350 . S
C604 C603 1.434 . S
C605 C606 1.369 . S
C605 C607 1.419 . S
C605 H609 0.930 . S
C606 C605 1.369 . S
C606 C615 1.429 . S
C607 C605 1.419 . S
C607 C608 1.363 . S
C607 H610 0.929 . S
C608 C607 1.363 . S
C608 C614 1.428 . S
H609 C605 0.930 . S
H610 C607 0.929 . S
S611 N612 1.613 . S
S611 N613 1.610 . S
N612 S611 1.613 . S
N612 C615 1.350 . S
N613 S611 1.610 . S
N613 C614 1.351 . S
C614 C608 1.428 . S
C614 N613 1.351 . S
C614 C615 1.434 . S
C615 C606 1.429 . S
C615 N612 1.350 . S
C615 C614 1.434 . S
C616 C617 1.369 1_556 S
C616 C618 1.419 . S
C616 H620 0.930 . S
C617 C616 1.369 1_554 S
C617 C626 1.429 . S
C618 C616 1.419 . S
C618 C619 1.363 . S
C618 H621 0.929 . S
C619 C618 1.363 . S
C619 C625 1.428 1_556 S
H620 C616 0.930 . S
H621 C618 0.929 . S
S622 N623 1.613 . S
S622 N624 1.610 . S
N623 S622 1.613 . S
N623 C626 1.350 . S
N624 S622 1.610 . S
N624 C625 1.351 . S
C625 C619 1.428 1_554 S
C625 N624 1.351 . S
C625 C626 1.434 . S
C626 C617 1.429 . S
C626 N623 1.350 . S
C626 C625 1.434 . S
C627 C628 1.369 1_556 S
C627 C629 1.419 . S
C627 H631 0.930 . S
C628 C627 1.369 1_554 S
C628 C637 1.429 . S
C629 C627 1.419 . S
C629 C630 1.363 . S
C629 H632 0.929 . S
C630 C629 1.363 . S
C630 C636 1.428 1_556 S
H631 C627 0.930 . S
H632 C629 0.929 . S
S633 N634 1.613 . S
S633 N635 1.610 . S
N634 S633 1.613 . S
N634 C637 1.350 . S
N635 S633 1.610 . S
N635 C636 1.351 . S
C636 C630 1.428 1_554 S
C636 N635 1.351 . S
C636 C637 1.434 . S
C637 C628 1.429 . S
C637 N634 1.350 . S
C637 C636 1.434 . S
C638 C639 1.369 . S
C638 C640 1.419 . S
C638 H642 0.930 . S
C639 C638 1.369 . S
C639 C648 1.429 . S
C640 C638 1.419 . S
C640 C641 1.363 . S
C640 H643 0.929 . S
C641 C640 1.363 . S
C641 C647 1.428 . S
H642 C638 0.930 . S
H643 C640 0.929 . S
S644 N645 1.613 . S
S644 N646 1.610 . S
N645 S644 1.613 . S
N645 C648 1.350 . S
N646 S644 1.610 . S
N646 C647 1.351 . S
C647 C641 1.428 . S
C647 N646 1.351 . S
C647 C648 1.434 . S
C648 C639 1.429 . S
C648 N645 1.350 . S
C648 C647 1.434 . S
C649 C650 1.369 . S
C649 C651 1.419 . S
C649 H653 0.930 . S
C650 C649 1.369 . S
C650 C659 1.429 . S
C651 C649 1.419 . S
C651 C652 1.363 . S
C651 H654 0.929 . S
C652 C651 1.363 . S
C652 C658 1.428 . S
H653 C649 0.930 . S
H654 C651 0.929 . S
S655 N656 1.613 . S
S655 N657 1.610 . S
N656 S655 1.613 . S
N656 C659 1.350 . S
N657 S655 1.610 . S
N657 C658 1.351 . S
C658 C652 1.428 . S
C658 N657 1.351 . S
C658 C659 1.434 . S
C659 C650 1.429 . S
C659 N656 1.350 . S
C659 C658 1.434 . S
C660 C661 1.369 . S
C660 C662 1.419 1_556 S
C660 H664 0.930 . S
C661 C660 1.369 . S
C661 C670 1.429 . S
C662 C660 1.419 1_554 S
C662 C663 1.363 . S
C662 H665 0.929 . S
C663 C662 1.363 . S
C663 C669 1.428 1_554 S
H664 C660 0.930 . S
H665 C662 0.929 . S
S666 N667 1.613 . S
S666 N668 1.610 . S
N667 S666 1.613 . S
N667 C670 1.350 . S
N668 S666 1.610 . S
N668 C669 1.351 . S
C669 C663 1.428 1_556 S
C669 N668 1.351 . S
C669 C670 1.434 . S
C670 C661 1.429 . S
C670 N667 1.350 . S
C670 C669 1.434 . S
C671 C672 1.369 . S
C671 C673 1.419 1_556 S
C671 H675 0.930 . S
C672 C671 1.369 . S
C672 C681 1.429 . S
C673 C671 1.419 1_554 S
C673 C674 1.363 . S
C673 H676 0.929 . S
C674 C673 1.363 . S
C674 C680 1.428 1_554 S
H675 C671 0.930 . S
H676 C673 0.929 . S
S677 N678 1.613 . S
S677 N679 1.610 . S
N678 S677 1.613 . S
N678 C681 1.350 . S
N679 S677 1.610 . S
N679 C680 1.351 . S
C680 C674 1.428 1_556 S
C680 N679 1.351 . S
C680 C681 1.434 . S
C681 C672 1.429 . S
C681 N678 1.350 . S
C681 C680 1.434 . S
C682 C683 1.369 . S
C682 C684 1.419 . S
C682 H686 0.930 . S
C683 C682 1.369 . S
C683 C692 1.429 . S
C684 C682 1.419 . S
C684 C685 1.363 . S
C684 H687 0.929 . S
C685 C684 1.363 . S
C685 C691 1.428 . S
H686 C682 0.930 . S
H687 C684 0.929 . S
S688 N689 1.613 . S
S688 N690 1.610 . S
N689 S688 1.613 . S
N689 C692 1.350 . S
N690 S688 1.610 . S
N690 C691 1.351 . S
C691 C685 1.428 . S
C691 N690 1.351 . S
C691 C692 1.434 . S
C692 C683 1.429 . S
C692 N689 1.350 . S
C692 C691 1.434 . S
C693 C694 1.369 . S
C693 C695 1.419 . S
C693 H697 0.930 . S
C694 C693 1.369 . S
C694 C703 1.429 . S
C695 C693 1.419 . S
C695 C696 1.363 . S
C695 H698 0.929 . S
C696 C695 1.363 . S
C696 C702 1.428 . S
H697 C693 0.930 . S
H698 C695 0.929 . S
S699 N700 1.613 . S
S699 N701 1.610 . S
N700 S699 1.613 . S
N700 C703 1.350 . S
N701 S699 1.610 . S
N701 C702 1.351 . S
C702 C696 1.428 . S
C702 N701 1.351 . S
C702 C703 1.434 . S
C703 C694 1.429 . S
C703 N700 1.350 . S
C703 C702 1.434 . S
C704 C705 1.369 1_565 S
C704 C706 1.419 . S
C704 H708 0.930 . S
C705 C704 1.369 1_545 S
C705 C714 1.429 . S
C706 C704 1.419 . S
C706 C707 1.363 . S
C706 H709 0.929 . S
C707 C706 1.363 . S
C707 C713 1.428 1_565 S
H708 C704 0.930 . S
H709 C706 0.929 . S
S710 N711 1.613 . S
S710 N712 1.610 . S
N711 S710 1.613 . S
N711 C714 1.350 . S
N712 S710 1.610 . S
N712 C713 1.351 . S
C713 C707 1.428 1_545 S
C713 N712 1.351 . S
C713 C714 1.434 . S
C714 C705 1.429 . S
C714 N711 1.350 . S
C714 C713 1.434 . S
C715 C716 1.369 . S
C715 C717 1.419 . S
C715 H719 0.930 . S
C716 C715 1.369 . S
C716 C725 1.429 1_565 S
C717 C715 1.419 . S
C717 C718 1.363 1_565 S
C717 H720 0.929 . S
C718 C717 1.363 1_545 S
C718 C724 1.428 . S
H719 C715 0.930 . S
H720 C717 0.929 . S
S721 N722 1.613 . S
S721 N723 1.610 . S
N722 S721 1.613 . S
N722 C725 1.350 . S
N723 S721 1.610 . S
N723 C724 1.351 . S
C724 C718 1.428 . S
C724 N723 1.351 . S
C724 C725 1.434 . S
C725 C716 1.429 1_545 S
C725 N722 1.350 . S
C725 C724 1.434 . S
C726 C727 1.378 . S
C726 C728 1.411 1_545 S
C726 H730 0.929 1_545 S
C727 C726 1.378 . S
C727 C736 1.429 . S
C728 C726 1.411 1_565 S
C728 C729 1.363 . S
C728 H731 0.929 . S
C729 C728 1.363 . S
C729 C735 1.424 1_565 S
H730 C726 0.929 1_565 S
H731 C728 0.929 . S
S732 N733 1.613 . S
S732 N734 1.610 . S
N733 S732 1.613 . S
N733 C736 1.350 . S
N734 S732 1.610 . S
N734 C735 1.352 . S
C735 C729 1.424 1_545 S
C735 N734 1.352 . S
C735 C736 1.438 . S
C736 C727 1.429 . S
C736 N733 1.350 . S
C736 C735 1.438 . S
C737 C738 1.369 . S
C737 C739 1.419 . S
C737 H741 0.930 . S
C738 C737 1.369 . S
C738 C747 1.429 1_565 S
C739 C737 1.419 . S
C739 C740 1.363 1_565 S
C739 H742 0.929 . S
C740 C739 1.363 1_545 S
C740 C746 1.428 . S
H741 C737 0.930 . S
H742 C739 0.929 . S
S743 N744 1.613 . S
S743 N745 1.610 . S
N744 S743 1.613 . S
N744 C747 1.350 . S
N745 S743 1.610 . S
N745 C746 1.351 . S
C746 C740 1.428 . S
C746 N745 1.351 . S
C746 C747 1.434 . S
C747 C738 1.429 1_545 S
C747 N744 1.350 . S
C747 C746 1.434 . S
C748 C749 1.369 . S
C748 C750 1.419 . S
C748 H752 0.930 . S
C749 C748 1.369 . S
C749 C758 1.429 . S
C750 C748 1.419 . S
C750 C751 1.363 . S
C750 H753 0.929 . S
C751 C750 1.363 . S
C751 C757 1.428 . S
H752 C748 0.930 . S
H753 C750 0.929 . S
S754 N755 1.613 . S
S754 N756 1.610 . S
N755 S754 1.613 . S
N755 C758 1.350 . S
N756 S754 1.610 . S
N756 C757 1.351 . S
C757 C751 1.428 . S
C757 N756 1.351 . S
C757 C758 1.434 . S
C758 C749 1.429 . S
C758 N755 1.350 . S
C758 C757 1.434 . S
C759 C760 1.369 . S
C759 C761 1.419 . S
C759 H763 0.930 . S
C760 C759 1.369 . S
C760 C769 1.429 . S
C761 C759 1.419 . S
C761 C762 1.363 . S
C761 H764 0.929 . S
C762 C761 1.363 . S
C762 C768 1.428 . S
H763 C759 0.930 . S
H764 C761 0.929 . S
S765 N766 1.613 . S
S765 N767 1.610 . S
N766 S765 1.613 . S
N766 C769 1.350 . S
N767 S765 1.610 . S
N767 C768 1.351 . S
C768 C762 1.428 . S
C768 N767 1.351 . S
C768 C769 1.434 . S
C769 C760 1.429 . S
C769 N766 1.350 . S
C769 C768 1.434 . S
C770 C771 1.369 . S
C770 C772 1.419 . S
C770 H774 0.930 . S
C771 C770 1.369 . S
C771 C780 1.429 . S
C772 C770 1.419 . S
C772 C773 1.363 . S
C772 H775 0.929 . S
C773 C772 1.363 . S
C773 C779 1.428 . S
H774 C770 0.930 . S
H775 C772 0.929 . S
S776 N777 1.613 . S
S776 N778 1.610 . S
N777 S776 1.613 . S
N777 C780 1.350 . S
N778 S776 1.610 . S
N778 C779 1.351 . S
C779 C773 1.428 . S
C779 N778 1.351 . S
C779 C780 1.434 . S
C780 C771 1.429 . S
C780 N777 1.350 . S
C780 C779 1.434 . S
C781 C782 1.369 . S
C781 C783 1.419 . S
C781 H785 0.930 . S
C782 C781 1.369 . S
C782 C791 1.429 . S
C783 C781 1.419 . S
C783 C784 1.363 . S
C783 H786 0.929 . S
C784 C783 1.363 . S
C784 C790 1.428 . S
H785 C781 0.930 . S
H786 C783 0.929 . S
S787 N788 1.613 . S
S787 N789 1.610 . S
N788 S787 1.613 . S
N788 C791 1.350 . S
N789 S787 1.610 . S
N789 C790 1.351 . S
C790 C784 1.428 . S
C790 N789 1.351 . S
C790 C791 1.434 . S
C791 C782 1.429 . S
C791 N788 1.350 . S
C791 C790 1.434 . S
C792 C793 1.369 . S
C792 C794 1.419 . S
C792 H796 0.930 . S
C793 C792 1.369 . S
C793 C802 1.429 1_455 S
C794 C792 1.419 . S
C794 C795 1.363 1_455 S
C794 H797 0.929 . S
C795 C794 1.363 1_655 S
C795 C801 1.428 . S
H796 C792 0.930 . S
H797 C794 0.929 . S
S798 N799 1.613 . S
S798 N800 1.610 . S
N799 S798 1.613 . S
N799 C802 1.350 . S
N800 S798 1.610 . S
N800 C801 1.351 . S
C801 C795 1.428 . S
C801 N800 1.351 . S
C801 C802 1.434 . S
C802 C793 1.429 1_655 S
C802 N799 1.350 . S
C802 C801 1.434 . S
C803 C804 1.369 . S
C803 C805 1.419 . S
C803 H807 0.930 . S
C804 C803 1.369 . S
C804 C813 1.429 . S
C805 C803 1.419 . S
C805 C806 1.363 . S
C805 H808 0.929 . S
C806 C805 1.363 . S
C806 C812 1.428 . S
H807 C803 0.930 . S
H808 C805 0.929 . S
S809 N810 1.613 . S
S809 N811 1.610 . S
N810 S809 1.613 . S
N810 C813 1.350 . S
N811 S809 1.610 . S
N811 C812 1.351 . S
C812 C806 1.428 . S
C812 N811 1.351 . S
C812 C813 1.434 . S
C813 C804 1.429 . S
C813 N810 1.350 . S
C813 C812 1.434 . S
C814 C815 1.369 . S
C814 C816 1.419 . S
C814 H818 0.930 . S
C815 C814 1.369 . S
C815 C824 1.429 . S
C816 C814 1.419 . S
C816 C817 1.363 . S
C816 H819 0.929 . S
C817 C816 1.363 . S
C817 C823 1.428 . S
H818 C814 0.930 . S
H819 C816 0.929 . S
S820 N821 1.613 . S
S820 N822 1.610 . S
N821 S820 1.613 . S
N821 C824 1.350 . S
N822 S820 1.610 . S
N822 C823 1.351 . S
C823 C817 1.428 . S
C823 N822 1.351 . S
C823 C824 1.434 . S
C824 C815 1.429 . S
C824 N821 1.350 . S
C824 C823 1.434 . S
C825 C826 1.369 . S
C825 C827 1.419 . S
C825 H829 0.930 . S
C826 C825 1.369 . S
C826 C835 1.429 1_655 S
C827 C825 1.419 . S
C827 C828 1.363 1_655 S
C827 H830 0.929 . S
C828 C827 1.363 1_455 S
C828 C834 1.428 . S
H829 C825 0.930 . S
H830 C827 0.929 . S
S831 N832 1.613 . S
S831 N833 1.610 . S
N832 S831 1.613 . S
N832 C835 1.350 . S
N833 S831 1.610 . S
N833 C834 1.351 . S
C834 C828 1.428 . S
C834 N833 1.351 . S
C834 C835 1.434 . S
C835 C826 1.429 1_455 S
C835 N832 1.350 . S
C835 C834 1.434 . S
C836 C837 1.369 . S
C836 C838 1.419 . S
C836 H840 0.930 . S
C837 C836 1.369 . S
C837 C846 1.429 1_655 S
C838 C836 1.419 . S
C838 C839 1.363 1_655 S
C838 H841 0.929 . S
C839 C838 1.363 1_455 S
C839 C845 1.428 . S
H840 C836 0.930 . S
H841 C838 0.929 . S
S842 N843 1.613 . S
S842 N844 1.610 . S
N843 S842 1.613 . S
N843 C846 1.350 . S
N844 S842 1.610 . S
N844 C845 1.351 . S
C845 C839 1.428 . S
C845 N844 1.351 . S
C845 C846 1.434 . S
C846 C837 1.429 1_455 S
C846 N843 1.350 . S
C846 C845 1.434 . S
C847 C848 1.369 . S
C847 C849 1.419 . S
C847 H851 0.930 . S
C848 C847 1.369 . S
C848 C857 1.429 . S
C849 C847 1.419 . S
C849 C850 1.363 . S
C849 H852 0.929 . S
C850 C849 1.363 . S
C850 C856 1.428 . S
H851 C847 0.930 . S
H852 C849 0.929 . S
S853 N854 1.613 . S
S853 N855 1.610 . S
N854 S853 1.613 . S
N854 C857 1.350 . S
N855 S853 1.610 . S
N855 C856 1.351 . S
C856 C850 1.428 . S
C856 N855 1.351 . S
C856 C857 1.434 . S
C857 C848 1.429 . S
C857 N854 1.350 . S
C857 C856 1.434 . S
C858 C859 1.369 . S
C858 C860 1.419 . S
C858 H862 0.930 . S
C859 C858 1.369 . S
C859 C868 1.429 . S
C860 C858 1.419 . S
C860 C861 1.363 . S
C860 H863 0.929 . S
C861 C860 1.363 . S
C861 C867 1.428 . S
H862 C858 0.930 . S
H863 C860 0.929 . S
S864 N865 1.613 . S
S864 N866 1.610 . S
N865 S864 1.613 . S
N865 C868 1.350 . S
N866 S864 1.610 . S
N866 C867 1.351 . S
C867 C861 1.428 . S
C867 N866 1.351 . S
C867 C868 1.434 . S
C868 C859 1.429 . S
C868 N865 1.350 . S
C868 C867 1.434 . S
C869 C870 1.369 . S
C869 C871 1.419 . S
C869 H873 0.930 . S
C870 C869 1.369 . S
C870 C879 1.429 1_655 S
C871 C869 1.419 . S
C871 C872 1.363 1_655 S
C871 H874 0.929 . S
C872 C871 1.363 1_455 S
C872 C878 1.428 . S
H873 C869 0.930 . S
H874 C871 0.929 . S
S875 N876 1.613 . S
S875 N877 1.610 . S
N876 S875 1.613 . S
N876 C879 1.350 . S
N877 S875 1.610 . S
N877 C878 1.351 . S
C878 C872 1.428 . S
C878 N877 1.351 . S
C878 C879 1.434 . S
C879 C870 1.429 1_455 S
C879 N876 1.350 . S
C879 C878 1.434 . S
C880 C881 1.369 . S
C880 C882 1.419 . S
C880 H884 0.930 . S
C881 C880 1.369 . S
C881 C890 1.429 1_455 S
C882 C880 1.419 . S
C882 C883 1.363 1_455 S
C882 H885 0.929 . S
C883 C882 1.363 1_655 S
C883 C889 1.428 . S
H884 C880 0.930 . S
H885 C882 0.929 . S
S886 N887 1.613 . S
S886 N888 1.610 . S
N887 S886 1.613 . S
N887 C890 1.350 . S
N888 S886 1.610 . S
N888 C889 1.351 . S
C889 C883 1.428 . S
C889 N888 1.351 . S
C889 C890 1.434 . S
C890 C881 1.429 1_655 S
C890 N887 1.350 . S
C890 C889 1.434 . S
C891 C892 1.369 . S
C891 C893 1.419 . S
C891 H895 0.930 . S
C892 C891 1.369 . S
C892 C901 1.429 . S
C893 C891 1.419 . S
C893 C894 1.363 . S
C893 H896 0.929 . S
C894 C893 1.363 . S
C894 C900 1.428 . S
H895 C891 0.930 . S
H896 C893 0.929 . S
S897 N898 1.613 . S
S897 N899 1.610 . S
N898 S897 1.613 . S
N898 C901 1.350 . S
N899 S897 1.610 . S
N899 C900 1.351 . S
C900 C894 1.428 . S
C900 N899 1.351 . S
C900 C901 1.434 . S
C901 C892 1.429 . S
C901 N898 1.350 . S
C901 C900 1.434 . S
C902 C903 1.369 . S
C902 C904 1.419 . S
C902 H906 0.930 . S
C903 C902 1.369 . S
C903 C912 1.429 1_655 S
C904 C902 1.419 . S
C904 C905 1.363 1_655 S
C904 H907 0.929 . S
C905 C904 1.363 1_455 S
C905 C911 1.428 . S
H906 C902 0.930 . S
H907 C904 0.929 . S
S908 N909 1.613 . S
S908 N910 1.610 . S
N909 S908 1.613 . S
N909 C912 1.350 . S
N910 S908 1.610 . S
N910 C911 1.351 . S
C911 C905 1.428 . S
C911 N910 1.351 . S
C911 C912 1.434 . S
C912 C903 1.429 1_455 S
C912 N909 1.350 . S
C912 C911 1.434 . S
C913 C914 1.369 . S
C913 C915 1.419 . S
C913 H917 0.930 . S
C914 C913 1.369 . S
C914 C923 1.429 . S
C915 C913 1.419 . S
C915 C916 1.363 . S
C915 H918 0.929 . S
C916 C915 1.363 . S
C916 C922 1.428 . S
H917 C913 0.930 . S
H918 C915 0.929 . S
S919 N920 1.613 . S
S919 N921 1.610 . S
N920 S919 1.613 . S
N920 C923 1.350 . S
N921 S919 1.610 . S
N921 C922 1.351 . S
C922 C916 1.428 . S
C922 N921 1.351 . S
C922 C923 1.434 . S
C923 C914 1.429 . S
C923 N920 1.350 . S
C923 C922 1.434 . S
C924 C925 1.369 . S
C924 C926 1.419 . S
C924 H928 0.930 . S
C925 C924 1.369 . S
C925 C934 1.429 . S
C926 C924 1.419 . S
C926 C927 1.363 . S
C926 H929 0.929 . S
C927 C926 1.363 . S
C927 C933 1.428 . S
H928 C924 0.930 . S
H929 C926 0.929 . S
S930 N931 1.613 . S
S930 N932 1.610 . S
N931 S930 1.613 . S
N931 C934 1.350 . S
N932 S930 1.610 . S
N932 C933 1.351 . S
C933 C927 1.428 . S
C933 N932 1.351 . S
C933 C934 1.434 . S
C934 C925 1.429 . S
C934 N931 1.350 . S
C934 C933 1.434 . S
C935 C936 1.369 1_655 S
C935 C937 1.419 . S
C935 H939 0.930 . S
C936 C935 1.369 1_455 S
C936 C945 1.429 . S
C937 C935 1.419 . S
C937 C938 1.363 . S
C937 H940 0.929 . S
C938 C937 1.363 . S
C938 C944 1.428 1_655 S
H939 C935 0.930 . S
H940 C937 0.929 . S
S941 N942 1.613 . S
S941 N943 1.610 . S
N942 S941 1.613 . S
N942 C945 1.350 . S
N943 S941 1.610 . S
N943 C944 1.351 . S
C944 C938 1.428 1_455 S
C944 N943 1.351 . S
C944 C945 1.434 . S
C945 C936 1.429 . S
C945 N942 1.350 . S
C945 C944 1.434 . S
C946 C947 1.369 . S
C946 C948 1.419 . S
C946 H950 0.930 . S
C947 C946 1.369 . S
C947 C956 1.429 . S
C948 C946 1.419 . S
C948 C949 1.363 . S
C948 H951 0.929 . S
C949 C948 1.363 . S
C949 C955 1.428 . S
H950 C946 0.930 . S
H951 C948 0.929 . S
S952 N953 1.613 . S
S952 N954 1.610 . S
N953 S952 1.613 . S
N953 C956 1.350 . S
N954 S952 1.610 . S
N954 C955 1.351 . S
C955 C949 1.428 . S
C955 N954 1.351 . S
C955 C956 1.434 . S
C956 C947 1.429 . S
C956 N953 1.350 . S
C956 C955 1.434 . S
C957 C958 1.369 . S
C957 C959 1.419 . S
C957 H961 0.930 . S
C958 C957 1.369 . S
C958 C967 1.429 1_455 S
C959 C957 1.419 . S
C959 C960 1.363 1_455 S
C959 H962 0.929 . S
C960 C959 1.363 1_655 S
C960 C966 1.428 . S
H961 C957 0.930 . S
H962 C959 0.929 . S
S963 N964 1.613 . S
S963 N965 1.610 . S
N964 S963 1.613 . S
N964 C967 1.350 . S
N965 S963 1.610 . S
N965 C966 1.351 . S
C966 C960 1.428 . S
C966 N965 1.351 . S
C966 C967 1.434 . S
C967 C958 1.429 1_655 S
C967 N964 1.350 . S
C967 C966 1.434 . S
C529 C182 1.001 . S
C531 C28 1.013 . S
C540 C149 1.008 . S
C542 C61 1.008 . S
C551 C74 1.028 . S
C553 C248 1.018 . S
C562 C127 1.017 . S
C564 C215 1.003 . S
C573 C140 1.437 . S
C575 C41 1.481 . S
C584 C173 1.433 . S
C586 C8 1.465 . S
C595 C107 1.452 . S
C597 C206 1.428 . S
C606 C239 1.419 . S
C608 C94 1.440 . S
C617 C292 1.013 . S
C619 C446 1.003 . S
C628 C325 1.017 . S
C630 C413 1.001 . S
C639 C338 1.033 . S
C641 C512 1.014 . S
C650 C391 1.016 . S
C652 C479 1.001 . S
C661 C404 1.433 . S
C663 C305 1.461 . S
C672 C437 1.440 . S
C674 C272 1.463 . S
C683 C371 1.452 . S
C685 C470 1.427 . S
C694 C358 1.438 . S
C696 C503 1.422 . S
C705 N5 1.835 . S
C707 N38 1.842 . S
C716 N80 1.860 . S
C718 N104 1.852 . S
C727 N179 1.698 . S
C729 N146 1.699 . S
C738 N245 1.688 . S
C740 N212 1.689 . S
C749 N302 1.843 . S
C751 N269 1.838 . S
C760 N368 1.853 . S
C762 N344 1.860 . S
C771 N410 1.697 . S
C773 N443 1.697 . S
C782 N476 1.689 . S
C784 N509 1.686 . S
C793 N311 1.689 1_455 S
C795 N14 1.690 1_655 S
C804 N47 1.689 . S
C806 N278 1.690 . S
C815 N71 1.699 . S
C817 N377 1.689 . S
C826 N335 1.694 1_655 S
C828 N113 1.693 1_455 S
C837 N137 1.406 . S
C839 N434 1.402 . S
C848 N170 1.406 . S
C850 N401 1.404 . S
C859 N203 1.440 . S
C861 N500 1.435 . S
C870 N467 1.438 . S
C872 N236 1.432 . S
C881 C17 1.533 . S
C883 C116 1.534 . S
C892 C50 1.542 . S
C894 C83 1.527 . S
C903 C160 1.630 . S
C905 C259 1.636 . S
C914 C193 1.634 . S
C916 C226 1.635 . S
C925 C380 1.530 . S
C927 C281 1.534 . S
C936 C347 1.529 . S
C938 C314 1.540 . S
C947 C424 1.632 . S
C949 C523 1.634 . S
C958 C457 1.633 . S
C960 C490 1.638 . S
