# Generated by pormake.
# Topology wkd, (5)-cn, num edge types: 1
# Building blocks:
#     Node 0, Type 0, BuildingBlock: XOMCOT_clean_sbu_0, # of connection points: 5
#     Node 1, Type 0, BuildingBlock: XOMCOT_clean_sbu_0, # of connection points: 5
#     Node 2, Type 0, BuildingBlock: XOMCOT_clean_sbu_0, # of connection points: 5
#     Node 3, Type 0, BuildingBlock: XOMCOT_clean_sbu_0, # of connection points: 5
#     Node 4, Type 0, BuildingBlock: XOMCOT_clean_sbu_0, # of connection points: 5
#     Node 5, Type 0, BuildingBlock: XOMCOT_clean_sbu_0, # of connection points: 5
#     Node 6, Type 0, BuildingBlock: XOMCOT_clean_sbu_0, # of connection points: 5
#     Node 7, Type 0, BuildingBlock: XOMCOT_clean_sbu_0, # of connection points: 5
#     Node 8, Type 0, BuildingBlock: XOMCOT_clean_sbu_0, # of connection points: 5
#     Node 9, Type 0, BuildingBlock: XOMCOT_clean_sbu_0, # of connection points: 5
#     Node 10, Type 0, BuildingBlock: XOMCOT_clean_sbu_0, # of connection points: 5
#     Node 11, Type 0, BuildingBlock: XOMCOT_clean_sbu_0, # of connection points: 5
#     Edge 12, Type (0, 0), BuildingBlock: TEMPAE_clean_linker_10, # of connection points: 2
#     Edge 13, Type (0, 0), BuildingBlock: TEMPAE_clean_linker_10, # of connection points: 2
#     Edge 14, Type (0, 0), BuildingBlock: TEMPAE_clean_linker_10, # of connection points: 2
#     Edge 15, Type (0, 0), BuildingBlock: TEMPAE_clean_linker_10, # of connection points: 2
#     Edge 16, Type (0, 0), BuildingBlock: TEMPAE_clean_linker_10, # of connection points: 2
#     Edge 17, Type (0, 0), BuildingBlock: TEMPAE_clean_linker_10, # of connection points: 2
#     Edge 18, Type (0, 0), BuildingBlock: TEMPAE_clean_linker_10, # of connection points: 2
#     Edge 19, Type (0, 0), BuildingBlock: TEMPAE_clean_linker_10, # of connection points: 2
#     Edge 20, Type (0, 0), BuildingBlock: TEMPAE_clean_linker_10, # of connection points: 2
#     Edge 21, Type (0, 0), BuildingBlock: TEMPAE_clean_linker_10, # of connection points: 2
#     Edge 22, Type (0, 0), BuildingBlock: TEMPAE_clean_linker_10, # of connection points: 2
#     Edge 23, Type (0, 0), BuildingBlock: TEMPAE_clean_linker_10, # of connection points: 2
#     Edge 24, Type (0, 0), BuildingBlock: TEMPAE_clean_linker_10, # of connection points: 2
#     Edge 25, Type (0, 0), BuildingBlock: TEMPAE_clean_linker_10, # of connection points: 2
#     Edge 26, Type (0, 0), BuildingBlock: TEMPAE_clean_linker_10, # of connection points: 2
#     Edge 27, Type (0, 0), BuildingBlock: TEMPAE_clean_linker_10, # of connection points: 2
#     Edge 28, Type (0, 0), BuildingBlock: TEMPAE_clean_linker_10, # of connection points: 2
#     Edge 29, Type (0, 0), BuildingBlock: TEMPAE_clean_linker_10, # of connection points: 2
#     Edge 30, Type (0, 0), BuildingBlock: TEMPAE_clean_linker_10, # of connection points: 2
#     Edge 31, Type (0, 0), BuildingBlock: TEMPAE_clean_linker_10, # of connection points: 2
#     Edge 32, Type (0, 0), BuildingBlock: TEMPAE_clean_linker_10, # of connection points: 2
#     Edge 33, Type (0, 0), BuildingBlock: TEMPAE_clean_linker_10, # of connection points: 2
#     Edge 34, Type (0, 0), BuildingBlock: TEMPAE_clean_linker_10, # of connection points: 2
#     Edge 35, Type (0, 0), BuildingBlock: TEMPAE_clean_linker_10, # of connection points: 2
#     Edge 36, Type (0, 0), BuildingBlock: TEMPAE_clean_linker_10, # of connection points: 2
#     Edge 37, Type (0, 0), BuildingBlock: TEMPAE_clean_linker_10, # of connection points: 2
#     Edge 38, Type (0, 0), BuildingBlock: TEMPAE_clean_linker_10, # of connection points: 2
#     Edge 39, Type (0, 0), BuildingBlock: TEMPAE_clean_linker_10, # of connection points: 2
#     Edge 40, Type (0, 0), BuildingBlock: TEMPAE_clean_linker_10, # of connection points: 2
#     Edge 41, Type (0, 0), BuildingBlock: TEMPAE_clean_linker_10, # of connection points: 2
# Relax obj value: 0.120
# Max RMSD: 0.193
# Mean RMSD: 0.192
data_MOF--net-wkd--node1-XOMCOT_clean_sbu_0--edge1-TEMPAE_clean_linker_10
_symmetry_space_group_name_H-M    P1
_symmetry_Int_Tables_number       1
_symmetry_cell_setting            triclinic
loop_
_symmetry_equiv_pos_as_xyz
'x, y, z'
_cell_length_a     26.181779
_cell_length_b     26.175644
_cell_length_c     110.55693
_cell_angle_alpha  89.982741
_cell_angle_beta   90.020677
_cell_angle_gamma 119.87791
loop_
_atom_site_label
_atom_site_type_symbol
_atom_site_fract_x
_atom_site_fract_y
_atom_site_fract_z
_atom_type_partial_charge
Co0 Co 1.0035 0.28727 0.04551 0.0
C1 C 0.95808 0.35949 0.03306 0.0
C2 C 0.96306 0.29707 0.02129 0.0
C3 C 0.94499 0.32957 0.01464 0.0
N4 N 0.97125 0.31549 0.03288 0.0
N5 N 0.94182 0.36896 0.02202 0.0
H6 H 0.96108 0.38486 0.04097 0.0
H7 H 0.97201 0.26382 0.01775 0.0
C8 C 0.96354 0.15947 0.0372 0.0
O9 O 0.9998 0.15415 0.04457 0.0
N10 N 0.03546 0.25909 0.05818 0.0
C11 C 0.09237 0.28523 0.06158 0.0
C12 C 0.09891 0.25061 0.07012 0.0
C13 C 1.00758 0.21037 0.06525 0.0
N14 N 0.04579 0.20285 0.07231 0.0
C15 C 0.09989 0.36935 0.03142 0.0
C16 C 0.15023 0.30133 0.0259 0.0
C17 C 0.17663 0.35922 0.02152 0.0
C18 C 0.1507 0.39325 0.02438 0.0
C19 C 0.09864 0.27876 0.03282 0.0
N20 N 0.07356 0.31246 0.03543 0.0
H21 H 0.08176 0.39716 0.03375 0.0
H22 H 0.08103 0.23531 0.03639 0.0
H23 H 0.12729 0.32565 0.05776 0.0
H24 H 0.96086 0.17918 0.06466 0.0
O25 O 0.03236 0.35989 0.05431 0.0
O26 O 0.94373 0.2829 0.05695 0.0
O27 O 0.95945 0.2064 0.0372 0.0
C28 C 0.98202 0.33739 0.05978 0.0
H29 H 0.93704 0.32577 0.005 0.0
H30 H 0.14035 0.25838 0.07388 0.0
H31 H 0.16942 0.27383 0.02404 0.0
H32 H 0.17045 0.43873 0.02149 0.0
Co33 Co 0.70252 0.98219 0.21263 0.0
C34 C 0.6001 0.96803 0.1979 0.0
C35 C 0.62592 0.90418 0.19355 0.0
C36 C 0.57717 0.89205 0.18683 0.0
N37 N 0.64098 0.95218 0.2004 0.0
N38 N 0.56066 0.93193 0.18956 0.0
H39 H 0.5983 1.00404 0.2023 0.0
H40 H 0.64697 0.87772 0.19379 0.0
C41 C 0.7947 0.96899 0.1989 0.0
O42 O 0.83229 0.02447 0.20137 0.0
N43 N 0.76338 0.00904 0.22534 0.0
C44 C 0.76834 0.0423 0.23508 0.0
C45 C 0.81339 0.04768 0.24235 0.0
C46 C 0.8041 0.99216 0.22733 0.0
N47 N 0.83666 0.01658 0.23745 0.0
C48 C 0.76616 0.10809 0.20943 0.0
C49 C 0.77684 0.10818 0.18457 0.0
C50 C 0.79881 0.16238 0.19058 0.0
C51 C 0.79358 0.16159 0.20321 0.0
C52 C 0.75013 0.05547 0.19117 0.0
N53 N 0.74594 0.05576 0.20352 0.0
H54 H 0.75955 0.10913 0.21899 0.0
H55 H 0.73228 0.01426 0.18632 0.0
H56 H 0.74028 0.06062 0.23704 0.0
H57 H 0.80892 0.96126 0.22172 0.0
O58 O 0.65596 1.00492 0.22235 0.0
O59 O 0.64926 0.91718 0.22315 0.0
O60 O 0.74253 0.94451 0.20334 0.0
C61 C 0.63048 0.95227 0.22689 0.0
H62 H 0.55366 0.85462 0.18087 0.0
H63 H 0.82661 0.07168 0.25079 0.0
H64 H 0.7785 0.10624 0.1748 0.0
H65 H 0.8097 0.20204 0.20831 0.0
Co66 Co 0.72542 0.7153 0.37902 0.0
C67 C 0.64468 0.60274 0.36533 0.0
C68 C 0.73252 0.6188 0.36794 0.0
C69 C 0.70006 0.56463 0.36265 0.0
N70 N 0.69863 0.64385 0.36941 0.0
N71 N 0.6448 0.55438 0.36105 0.0
H72 H 0.60512 0.60539 0.36616 0.0
H73 H 0.77763 0.63783 0.37097 0.0
C74 C 0.81323 0.74782 0.35937 0.0
O75 O 0.76695 0.72184 0.35226 0.0
N76 N 0.75476 0.78513 0.38907 0.0
C77 C 0.72463 0.81124 0.39293 0.0
C78 C 0.76174 0.85972 0.39981 0.0
C79 C 0.80972 0.81791 0.39366 0.0
N80 N 0.81539 0.86406 0.4003 0.0
C81 C 0.63855 0.72557 0.36517 0.0
C82 C 0.71164 0.83352 0.35462 0.0
C83 C 0.65113 0.8047 0.35196 0.0
C84 C 0.61468 0.75022 0.35744 0.0
C85 C 0.73406 0.80653 0.36232 0.0
N86 N 0.69778 0.75195 0.36716 0.0
H87 H 0.60843 0.68652 0.37002 0.0
H88 H 0.78033 0.83026 0.36462 0.0
H89 H 0.67901 0.79636 0.3908 0.0
H90 H 0.84457 0.80773 0.39225 0.0
O91 O 0.65432 0.67662 0.38839 0.0
O92 O 0.73366 0.67104 0.3926 0.0
O93 O 0.8059 0.75058 0.3708 0.0
C94 C 0.67851 0.65384 0.39503 0.0
H95 H 0.7157 0.53456 0.36037 0.0
H96 H 0.75013 0.89005 0.40392 0.0
H97 H 0.74121 0.8766 0.35087 0.0
H98 H 0.56734 0.72782 0.3562 0.0
Co99 Co 0.02075 0.72248 0.54481 0.0
C100 C 0.03685 0.63787 0.5293 0.0
C101 C 0.10405 0.72787 0.52651 0.0
C102 C 0.11698 0.69254 0.51952 0.0
N103 N 0.05351 0.69392 0.53255 0.0
N104 N 0.07499 0.63596 0.52127 0.0
H105 H 0.99871 0.59941 0.53294 0.0
H106 H 0.13152 0.77492 0.52754 0.0
C107 C 0.03887 0.83246 0.53245 0.0
O108 O 0.98336 0.81506 0.53481 0.0
N109 N 0.991 0.75329 0.55761 0.0
C110 C 0.9527 0.72216 0.56652 0.0
C111 C 0.94575 0.75997 0.5741 0.0
C112 C 0.00949 0.81039 0.56051 0.0
N113 N 0.98118 0.81565 0.57028 0.0
C114 C 0.8963 0.66386 0.53987 0.0
C115 C 0.90453 0.68434 0.51523 0.0
C116 C 0.84858 0.652 0.5205 0.0
C117 C 0.84501 0.64194 0.53299 0.0
C118 C 0.95497 0.70636 0.52252 0.0
N119 N 0.95053 0.69726 0.53477 0.0
H120 H 0.89197 0.65165 0.54923 0.0
H121 H 0.9977 0.73055 0.51827 0.0
H122 H 0.93195 0.67502 0.56773 0.0
H123 H 0.04365 0.84775 0.55574 0.0
O124 O 0.99348 0.64985 0.55351 0.0
O125 O 0.08149 0.72831 0.55606 0.0
O126 O 0.06216 0.80291 0.53657 0.0
C127 C 0.04446 0.67331 0.55877 0.0
H128 H 0.15623 0.70723 0.51408 0.0
H129 H 0.91778 0.74732 0.58202 0.0
H130 H 0.90927 0.69227 0.50558 0.0
H131 H 0.80281 0.61508 0.53735 0.0
Co132 Co 0.30629 0.02248 0.71179 0.0
C133 C 0.40979 0.04454 0.69652 0.0
C134 C 0.38237 0.10851 0.69377 0.0
C135 C 0.4322 0.12485 0.68708 0.0
N136 N 0.3678 0.05795 0.69963 0.0
N137 N 0.44977 0.0849 0.68879 0.0
H138 H 0.41196 0.00717 0.70008 0.0
H139 H 0.36025 0.13381 0.69472 0.0
C140 C 0.21288 0.03748 0.69935 0.0
O141 O 0.17646 0.98124 0.70136 0.0
N142 N 0.24523 0.99036 0.72444 0.0
C143 C 0.23777 0.95113 0.73318 0.0
C144 C 0.1927 0.94353 0.74075 0.0
C145 C 0.20645 0.00857 0.72742 0.0
N146 N 0.17267 0.97949 0.73709 0.0
C147 C 0.24725 0.89863 0.70661 0.0
C148 C 0.22959 0.9053 0.68216 0.0
C149 C 0.20941 0.84954 0.68739 0.0
C150 C 0.2195 0.84709 0.69977 0.0
C151 C 0.25763 0.95617 0.68937 0.0
N152 N 0.26399 0.95229 0.70159 0.0
H153 H 0.25724 0.8951 0.71587 0.0
H154 H 0.27387 0.99869 0.68513 0.0
H155 H 0.26446 0.93062 0.73437 0.0
H156 H 0.20339 0.04321 0.72278 0.0
O157 O 0.35291 0.99658 0.72045 0.0
O158 O 0.35943 0.0832 0.72327 0.0
O159 O 0.2652 0.0624 0.70371 0.0
C160 C 0.3788 0.04708 0.72589 0.0
H161 H 0.45555 0.16508 0.68188 0.0
H162 H 0.17721 0.915 0.74859 0.0
H163 H 0.22382 0.90973 0.67259 0.0
H164 H 0.20783 0.80567 0.70415 0.0
Co165 Co 0.29281 0.3003 0.87886 0.0
C166 C 0.37481 0.41212 0.86526 0.0
C167 C 0.28511 0.39256 0.86591 0.0
C168 C 0.31848 0.44778 0.86111 0.0
N169 N 0.31974 0.3691 0.86835 0.0
N170 N 0.37481 0.46015 0.86075 0.0
H171 H 0.41474 0.4114 0.86724 0.0
H172 H 0.23901 0.3725 0.86826 0.0
C173 C 0.207 0.26066 0.85876 0.0
O174 O 0.25448 0.28512 0.85196 0.0
N175 N 0.26392 0.23345 0.88978 0.0
C176 C 0.29549 0.21062 0.89454 0.0
C177 C 0.25891 0.16295 0.90164 0.0
C178 C 0.2085 0.19945 0.89407 0.0
N179 N 0.20405 0.15575 0.90139 0.0
C180 C 0.37951 0.28635 0.86565 0.0
C181 C 0.30569 0.17381 0.85711 0.0
C182 C 0.36589 0.20138 0.85423 0.0
C183 C 0.40278 0.25829 0.85873 0.0
C184 C 0.28413 0.20366 0.86412 0.0
N185 N 0.3206 0.26029 0.86794 0.0
H186 H 0.40977 0.32793 0.86968 0.0
H187 H 0.23819 0.18065 0.86668 0.0
H188 H 0.34175 0.22699 0.89282 0.0
H189 H 0.17238 0.20684 0.89192 0.0
O190 O 0.36386 0.34236 0.88818 0.0
O191 O 0.28356 0.34777 0.89158 0.0
O192 O 0.21272 0.26215 0.87034 0.0
C193 C 0.33889 0.36649 0.89415 0.0
H194 H 0.30297 0.47765 0.85855 0.0
H195 H 0.27174 0.13496 0.90639 0.0
H196 H 0.27553 0.12942 0.85407 0.0
H197 H 0.44999 0.28035 0.85735 0.0
Co198 Co 0.72262 0.01951 0.7973 0.0
C199 C 0.636 0.03344 0.81265 0.0
C200 C 0.7258 0.09716 0.81674 0.0
C201 C 0.68976 0.10911 0.82372 0.0
N202 N 0.69242 0.04934 0.80988 0.0
N203 N 0.6333 0.06934 0.82115 0.0
H204 H 0.5979 0.99756 0.80834 0.0
H205 H 0.77315 0.12368 0.81635 0.0
C206 C 0.83179 0.0366 0.80992 0.0
O207 O 0.81467 0.9813 0.8074 0.0
N208 N 0.75517 0.99292 0.78423 0.0
C209 C 0.7254 0.95746 0.77484 0.0
C210 C 0.76423 0.9524 0.76723 0.0
C211 C 0.8126 0.0116 0.78164 0.0
N212 N 0.81933 0.98629 0.77152 0.0
C213 C 0.66442 0.89433 0.801 0.0
C214 C 0.6775 0.89646 0.82582 0.0
C215 C 0.64405 0.84182 0.82003 0.0
C216 C 0.63901 0.84149 0.80741 0.0
C217 C 0.70319 0.94861 0.81899 0.0
N218 N 0.69687 0.94722 0.80668 0.0
H219 H 0.65523 0.89223 0.79151 0.0
H220 H 0.72706 0.99024 0.82367 0.0
H221 H 0.67845 0.93701 0.77338 0.0
H222 H 0.84927 0.04501 0.7867 0.0
O223 O 0.65072 0.99311 0.78841 0.0
O224 O 0.72842 0.0821 0.78657 0.0
O225 O 0.8024 0.06009 0.80581 0.0
C226 C 0.67384 0.04498 0.78357 0.0
H227 H 0.70411 0.14646 0.82972 0.0
H228 H 0.75236 0.92542 0.75918 0.0
H229 H 0.68189 0.89926 0.83557 0.0
H230 H 0.61409 0.80066 0.80246 0.0
Co231 Co 0.71653 0.71609 0.96377 0.0
C232 C 0.60753 0.63453 0.97839 0.0
C233 C 0.62305 0.72258 0.97656 0.0
C234 C 0.5718 0.69041 0.9829 0.0
N235 N 0.64706 0.68854 0.97406 0.0
N236 N 0.56206 0.63511 0.98406 0.0
H237 H 0.60989 0.595 0.97713 0.0
H238 H 0.64088 0.76773 0.97364 0.0
C239 C 0.75281 0.80286 0.98373 0.0
O240 O 0.7292 0.75619 0.99077 0.0
N241 N 0.78437 0.74604 0.95313 0.0
C242 C 0.80937 0.71586 0.94869 0.0
C243 C 0.85694 0.75329 0.94164 0.0
C244 C 0.81695 0.80141 0.94871 0.0
N245 N 0.86186 0.80725 0.94162 0.0
C246 C 0.72973 0.62891 0.9768 0.0
C247 C 0.83927 0.70183 0.98673 0.0
C248 C 0.81068 0.6413 0.98935 0.0
C249 C 0.75549 0.6049 0.98417 0.0
C250 C 0.81111 0.72441 0.97941 0.0
N251 N 0.75568 0.68822 0.97494 0.0
H252 H 0.68999 0.59887 0.97213 0.0
H253 H 0.83442 0.77074 0.97715 0.0
H254 H 0.79446 0.66999 0.95056 0.0
H255 H 0.80759 0.83649 0.95059 0.0
O256 O 0.67641 0.64533 0.95435 0.0
O257 O 0.6694 0.72444 0.95081 0.0
O258 O 0.75305 0.79624 0.97221 0.0
C259 C 0.65219 0.66948 0.94815 0.0
H260 H 0.54252 0.70579 0.98597 0.0
H261 H 0.88636 0.74169 0.93711 0.0
H262 H 0.88293 0.73126 0.99023 0.0
H263 H 0.73325 0.55755 0.98539 0.0
Co264 Co 0.99419 0.70468 0.13092 0.0
C265 C 0.96469 0.59129 0.14414 0.0
C266 C 0.89425 0.6105 0.14333 0.0
C267 C 0.87266 0.5554 0.14815 0.0
N268 N 0.95239 0.63428 0.14102 0.0
N269 N 0.91675 0.54319 0.14863 0.0
H270 H 1.00555 0.59224 0.14226 0.0
H271 H 0.86808 0.63048 0.14095 0.0
C272 C 0.94478 0.7412 0.15099 0.0
O273 O 0.96736 0.71645 0.15786 0.0
N274 N 0.03138 0.77327 0.12043 0.0
C275 C 0.08572 0.79811 0.11561 0.0
C276 C 0.09559 0.84714 0.10907 0.0
C277 C 0.00889 0.80743 0.11675 0.0
N278 N 0.04729 0.85318 0.10978 0.0
C279 C 0.09333 0.71839 0.14462 0.0
C280 C 0.12985 0.83 0.15351 0.0
C281 C 0.16264 0.80255 0.15647 0.0
C282 C 0.14371 0.74611 0.1518 0.0
C283 C 0.07937 0.80047 0.14623 0.0
N284 N 0.06034 0.7443 0.14222 0.0
H285 H 0.08289 0.67721 0.14049 0.0
H286 H 0.05624 0.82335 0.14365 0.0
H287 H 0.11641 0.7823 0.11694 0.0
H288 H 0.9652 0.79881 0.11911 0.0
O289 O 0.02627 0.66567 0.12152 0.0
O290 O 0.93992 0.6579 0.11778 0.0
O291 O 0.94986 0.74026 0.13944 0.0
C292 C 0.9782 0.64114 0.11524 0.0
H293 H 0.8274 0.52561 0.15072 0.0
H294 H 0.136 0.87688 0.1044 0.0
H295 H 0.14328 0.87405 0.15668 0.0
H296 H 0.16903 0.72419 0.15325 0.0
Co297 Co 0.29546 0.99919 0.29661 0.0
C298 C 0.3711 0.95572 0.30833 0.0
C299 C 0.31638 0.96911 0.32088 0.0
C300 C 0.34987 0.95129 0.32721 0.0
N301 N 0.32925 0.97179 0.30902 0.0
N302 N 0.38429 0.94266 0.31936 0.0
H303 H 0.39178 0.9538 0.30003 0.0
H304 H 0.28584 0.98105 0.32475 0.0
C305 C 0.17078 0.96143 0.30641 0.0
O306 O 0.16414 0.99631 0.29886 0.0
N307 N 0.26206 0.02672 0.28417 0.0
C308 C 0.28548 0.08267 0.28024 0.0
C309 C 0.24807 0.0855 0.27186 0.0
C310 C 0.21208 0.99568 0.27761 0.0
N311 N 0.20132 0.03101 0.27034 0.0
C312 C 0.38439 0.10283 0.30767 0.0
C313 C 0.3172 0.15043 0.31571 0.0
C314 C 0.37822 0.18181 0.31762 0.0
C315 C 0.41172 0.15699 0.31359 0.0
C316 C 0.29149 0.09616 0.30967 0.0
N317 N 0.32499 0.07281 0.30569 0.0
H318 H 0.41136 0.08478 0.30466 0.0
H319 H 0.24527 0.07468 0.30802 0.0
H320 H 0.3261 0.11941 0.28354 0.0
H321 H 0.18227 0.94889 0.27875 0.0
O322 O 0.36345 0.02457 0.2864 0.0
O323 O 0.28572 0.93516 0.28584 0.0
O324 O 0.21803 0.9579 0.30627 0.0
C325 C 0.33784 0.97255 0.28159 0.0
H326 H 0.34997 0.94682 0.33694 0.0
H327 H 0.2532 0.12532 0.26774 0.0
H328 H 0.28973 0.16828 0.31861 0.0
H329 H 0.45888 0.17908 0.31506 0.0
Co330 Co 0.30513 0.29447 0.46385 0.0
C331 C 0.4148 0.37487 0.47834 0.0
C332 C 0.393 0.2845 0.47815 0.0
C333 C 0.44548 0.31634 0.48408 0.0
N334 N 0.37203 0.32033 0.47488 0.0
N335 N 0.45935 0.37321 0.48422 0.0
H336 H 0.41565 0.41533 0.47608 0.0
H337 H 0.37309 0.23843 0.47577 0.0
C338 C 0.26127 0.20741 0.48372 0.0
O339 O 0.28355 0.25446 0.49065 0.0
N340 N 0.24018 0.26643 0.45245 0.0
C341 C 0.21876 0.29853 0.44733 0.0
C342 C 0.17156 0.26213 0.4401 0.0
C343 C 0.20578 0.21089 0.44825 0.0
N344 N 0.16321 0.20685 0.44064 0.0
C345 C 0.28984 0.38028 0.47708 0.0
C346 C 0.17523 0.30666 0.48453 0.0
C347 C 0.20315 0.36638 0.48782 0.0
C348 C 0.26108 0.40322 0.48387 0.0
C349 C 0.20587 0.28539 0.47768 0.0
N350 N 0.26344 0.32169 0.47443 0.0
H351 H 0.33242 0.41062 0.47347 0.0
H352 H 0.18292 0.23981 0.47486 0.0
H353 H 0.23563 0.34499 0.44893 0.0
H354 H 0.21196 0.17431 0.4507 0.0
O355 O 0.34876 0.36622 0.45483 0.0
O356 O 0.35474 0.28616 0.45149 0.0
O357 O 0.26532 0.21378 0.47215 0.0
C358 C 0.37384 0.34171 0.44904 0.0
H359 H 0.47312 0.29945 0.4874 0.0
H360 H 0.14457 0.27536 0.43508 0.0
H361 H 0.13008 0.27668 0.48713 0.0
H362 H 0.28354 0.45018 0.4856 0.0
Co363 Co 0.01945 0.30374 0.63076 0.0
C364 C 0.05132 0.41656 0.64396 0.0
C365 C 0.08715 0.36782 0.65247 0.0
C366 C 0.1069 0.41985 0.65856 0.0
N367 N 0.05167 0.36487 0.64331 0.0
N368 N 0.08537 0.45132 0.65313 0.0
H369 H 0.02873 0.42966 0.63758 0.0
H370 H 0.09913 0.335 0.65468 0.0
C371 C 0.03753 0.21186 0.64297 0.0
O372 O 0.98177 0.17423 0.6408 0.0
N373 N 0.99075 0.24378 0.61784 0.0
C374 C 0.95271 0.23637 0.60884 0.0
C375 C 0.9474 0.19255 0.60117 0.0
C376 C 0.0105 0.20613 0.61494 0.0
N377 N 0.9836 0.17313 0.60502 0.0
C378 C 0.8946 0.23842 0.63524 0.0
C379 C 0.89921 0.22212 0.65981 0.0
C380 C 0.84412 0.2001 0.65425 0.0
C381 C 0.84229 0.20842 0.64181 0.0
C382 C 0.95068 0.25086 0.65283 0.0
N383 N 0.9482 0.25785 0.64059 0.0
H384 H 0.89152 0.24788 0.62592 0.0
H385 H 0.99235 0.26694 0.65735 0.0
H386 H 0.93104 0.26194 0.60761 0.0
H387 H 0.04577 0.20438 0.61961 0.0
O388 O 0.99153 0.34842 0.622 0.0
O389 O 0.08015 0.35926 0.61956 0.0
O390 O 0.06133 0.26444 0.63876 0.0
C391 C 0.04229 0.37607 0.61667 0.0
H392 H 0.13563 0.43331 0.66636 0.0
H393 H 0.91883 0.17637 0.59335 0.0
H394 H 0.90247 0.21724 0.66947 0.0
H395 H 0.80067 0.19405 0.63725 0.0
C396 C 0.82645 0.91187 0.98449 0.0
C397 C 0.7785 0.86176 0.98953 0.0
C398 C 0.85548 0.96523 0.99105 0.0
C399 C 0.83556 0.96852 1.00283 0.0
C400 C 0.78483 0.91897 0.00755 0.0
C401 C 0.7573 0.86637 1.0009 0.0
C402 C 0.90944 0.0169 0.98568 0.0
C403 C 0.76142 0.92031 0.01997 0.0
C404 C 0.94251 0.06504 0.02723 0.0
C405 C 0.93089 0.11185 0.02813 0.0
C406 C 0.91352 0.01975 0.01872 0.0
C407 C 0.87111 0.02045 0.01088 0.0
C408 C 0.85961 0.06792 0.01157 0.0
C409 C 0.88974 0.11315 0.02016 0.0
C410 C 0.92747 0.97027 0.01833 0.0
C411 C 0.81449 0.07019 1.00344 0.0
H412 H 0.84308 0.90858 0.97572 0.0
H413 H 0.71971 0.82806 0.00479 0.0
H414 H 0.90733 0.05795 0.98673 0.0
H415 H 0.94918 0.02327 0.99058 0.0
H416 H 0.91469 0.01023 0.97593 0.0
H417 H 0.71808 0.88053 0.02177 0.0
H418 H 0.79308 0.92292 0.02695 0.0
H419 H 0.75666 0.95989 0.02098 0.0
H420 H 0.9745 0.06353 0.03322 0.0
H421 H 0.88059 0.14917 0.0207 0.0
H422 H 0.93917 0.96447 0.00898 0.0
H423 H 0.88802 0.92832 0.02102 0.0
H424 H 0.96438 0.97822 0.02444 0.0
H425 H 0.82334 0.06474 0.99385 0.0
H426 H 0.81404 0.11221 0.00438 0.0
H427 H 0.77002 0.0332 0.00568 0.0
C428 C 0.91162 0.77005 0.16964 0.0
C429 C 0.91702 0.7723 0.15697 0.0
C430 C 0.8892 0.8014 0.17581 0.0
C431 C 0.87107 0.83592 0.16922 0.0
C432 C 0.87509 0.83757 0.1564 0.0
C433 C 0.89816 0.80581 0.15042 0.0
C434 C 0.88624 0.79857 0.18947 0.0
C435 C 0.85593 0.87363 0.14904 0.0
C436 C 0.77276 0.87828 0.18696 0.0
C437 C 0.81344 0.93515 0.19101 0.0
C438 C 0.79031 0.84647 0.17941 0.0
C439 C 0.85016 0.87171 0.17592 0.0
C440 C 0.89124 0.92937 0.17985 0.0
C441 C 0.87238 0.96038 0.18728 0.0
C442 C 0.74502 0.78528 0.17538 0.0
C443 C 0.95561 0.95773 0.17652 0.0
H444 H 0.9258 0.74425 0.17484 0.0
H445 H 0.90222 0.80796 0.14065 0.0
H446 H 0.91436 0.84324 0.1933 0.0
H447 H 0.8405 0.78304 0.19255 0.0
H448 H 0.901 0.76873 0.19324 0.0
H449 H 0.85956 0.86846 0.13916 0.0
H450 H 0.80963 0.86052 0.15122 0.0
H451 H 0.88343 0.92093 0.15139 0.0
H452 H 0.72711 0.85838 0.18971 0.0
H453 H 0.90428 1.0043 0.19031 0.0
H454 H 0.75477 0.7525 0.17954 0.0
H455 H 0.74698 0.7812 0.16542 0.0
H456 H 0.69955 0.77399 0.17793 0.0
H457 H 0.97493 0.93246 0.18061 0.0
H458 H 0.98126 1.00413 0.17966 0.0
H459 H 0.9606 0.95679 0.16657 0.0
C460 C 0.92194 0.82276 0.3589 0.0
C461 C 0.8726 0.7744 0.35374 0.0
C462 C 0.97577 0.85246 0.35253 0.0
C463 C 0.98037 0.83288 0.3408 0.0
C464 C 0.93163 0.7818 0.33596 0.0
C465 C 0.87854 0.75354 0.34243 0.0
C466 C 0.02656 0.9067 0.35804 0.0
C467 C 0.9343 0.75883 0.32358 0.0
C468 C 0.07686 0.94062 0.31654 0.0
C469 C 0.12407 0.92959 0.31569 0.0
C470 C 0.03153 0.91134 0.32502 0.0
C471 C 0.03262 0.86923 0.33289 0.0
C472 C 0.0807 0.85863 0.33231 0.0
C473 C 0.12597 0.88904 0.32374 0.0
C474 C 0.98141 0.92435 0.32529 0.0
C475 C 0.08346 0.81396 0.3405 0.0
H476 H 0.91769 0.83915 0.36763 0.0
H477 H 0.84089 0.71565 0.33845 0.0
H478 H 0.06807 0.90538 0.35712 0.0
H479 H 0.03261 0.94635 0.35314 0.0
H480 H 0.01907 0.91152 0.36776 0.0
H481 H 0.89506 0.71522 0.32167 0.0
H482 H 0.93694 0.7904 0.31657 0.0
H483 H 0.97434 0.75478 0.32271 0.0
H484 H 0.07487 0.97215 0.31049 0.0
H485 H 0.16231 0.88038 0.32323 0.0
H486 H 0.97479 0.93558 0.33461 0.0
H487 H 0.93996 0.88461 0.32248 0.0
H488 H 0.98918 0.96128 0.31919 0.0
H489 H 0.07675 0.8222 0.35005 0.0
H490 H 0.12614 0.81472 0.33975 0.0
H491 H 0.04746 0.76915 0.33813 0.0
C492 C 0.19642 0.0963 0.48333 0.0
C493 C 0.23189 0.14864 0.48971 0.0
C494 C 0.16586 0.04179 0.48946 0.0
C495 C 0.17102 0.03973 0.50222 0.0
C496 C 0.2081 0.09226 0.50859 0.0
C497 C 0.23794 0.14569 0.50228 0.0
C498 C 0.12695 0.98667 0.48234 0.0
C499 C 0.21501 0.09246 0.52217 0.0
C500 C 0.04906 0.92068 0.52139 0.0
C501 C 0.07305 0.88509 0.52462 0.0
C502 C 0.07959 0.96981 0.51378 0.0
C503 C 0.13551 0.9838 0.50916 0.0
C504 C 0.15957 0.94746 0.51218 0.0
C505 C 0.12828 0.89883 0.51993 0.0
C506 C 0.05258 0.00774 0.51097 0.0
C507 C 0.2189 0.96059 0.50741 0.0
H508 H 0.19145 0.09809 0.47363 0.0
H509 H 0.26564 0.18561 0.50733 0.0
H510 H 0.13879 0.95231 0.48433 0.0
H511 H 0.08036 0.9688 0.48509 0.0
H512 H 0.13043 0.99489 0.47243 0.0
H513 H 0.2473 0.13671 0.52571 0.0
H514 H 0.17191 0.078 0.5266 0.0
H515 H 0.2296 0.06089 0.52483 0.0
H516 H 1.00641 0.91056 0.52491 0.0
H517 H 0.14711 0.87152 0.52227 0.0
H518 H 0.05089 0.01301 0.50105 0.0
H519 H 0.08037 0.05237 0.51486 0.0
H520 H 1.00732 0.98904 0.51468 0.0
H521 H 0.2204 0.96583 0.49744 0.0
H522 H 0.2292 0.92539 0.50972 0.0
H523 H 0.25382 1.0028 0.51126 0.0
C524 C 0.15997 0.04003 0.68087 0.0
C525 C 0.19454 0.06956 0.69097 0.0
C526 C 0.14061 0.06823 0.6728 0.0
C527 C 0.1544 0.127 0.67506 0.0
C528 C 0.18999 0.15739 0.68519 0.0
C529 C 0.21054 0.12858 0.69292 0.0
C530 C 0.10431 0.03456 0.66195 0.0
C531 C 0.20433 0.21942 0.68813 0.0
C532 C 0.12836 0.20869 0.64922 0.0
C533 C 0.07003 0.1944 0.65142 0.0
C534 C 0.15713 0.18812 0.65696 0.0
C535 C 0.12744 0.15432 0.66733 0.0
C536 C 0.06949 0.14247 0.66984 0.0
C537 C 0.04125 0.16174 0.66176 0.0
C538 C 0.2182 0.20031 0.65375 0.0
C539 C 0.03665 0.10818 0.68094 0.0
H540 H 0.14837 0.99466 0.67922 0.0
H541 H 0.23727 0.15146 0.70072 0.0
H542 H 0.05861 0.02612 0.66298 0.0
H543 H 0.12267 0.06096 0.65359 0.0
H544 H 0.10265 0.9916 0.66079 0.0
H545 H 0.23529 0.2382 0.69587 0.0
H546 H 0.22394 0.24848 0.68016 0.0
H547 H 0.16315 0.21964 0.69041 0.0
H548 H 0.15057 0.23388 0.64121 0.0
H549 H 0.9964 0.15144 0.66357 0.0
H550 H 0.21674 0.15823 0.65156 0.0
H551 H 0.24835 0.22002 0.66156 0.0
H552 H 0.23677 0.2304 0.64587 0.0
H553 H 0.02661 0.06185 0.68011 0.0
H554 H 0.99459 0.10817 0.68226 0.0
H555 H 0.06433 0.12699 0.68913 0.0
C556 C 0.90042 0.12746 0.82187 0.0
C557 C 0.88447 0.07067 0.81777 0.0
C558 C 0.94933 0.15893 0.82954 0.0
C559 C 0.98369 0.13339 0.83311 0.0
C560 C 0.96746 0.0759 0.82909 0.0
C561 C 0.91815 0.04531 0.82153 0.0
C562 C 0.96495 0.22001 0.83364 0.0
C563 C 1.00316 0.04719 0.83251 0.0
C564 C 0.14621 0.23333 0.83996 0.0
C565 C 0.14851 0.23026 0.85263 0.0
C566 C 0.09292 0.20303 0.83361 0.0
C567 C 0.03982 0.16864 0.84002 0.0
C568 C 0.0413 0.16623 0.85285 0.0
C569 C 0.09569 0.19702 0.85901 0.0
C570 C 0.09379 0.20676 0.81996 0.0
C571 C 0.98559 0.13029 0.86002 0.0
H572 H 0.87478 0.14752 0.81908 0.0
H573 H 0.90636 1.00146 0.81847 0.0
H574 H 0.97009 0.22359 0.84361 0.0
H575 H 1.00778 0.25283 0.82964 0.0
H576 H 0.93112 0.23166 0.83095 0.0
H577 H 0.9828 1.00099 0.82925 0.0
H578 H 0.04803 0.07263 0.82859 0.0
H579 H 0.00817 0.04745 0.84247 0.0
H580 H 0.18649 0.25902 0.83487 0.0
H581 H 0.0969 0.19431 0.86878 0.0
H582 H 0.06383 0.22259 0.81683 0.0
H583 H 0.07762 0.16233 0.81602 0.0
H584 H 0.13857 0.23676 0.81634 0.0
H585 H 0.95273 0.14373 0.8577 0.0
H586 H 0.9936 0.13517 0.86993 0.0
H587 H 0.96592 0.08303 0.85763 0.0
C588 C 0.99334 0.09405 0.07512 0.0
C589 C 0.03585 0.15076 0.07895 0.0
C590 C 0.98941 0.0431 0.08043 0.0
C591 C 0.02871 0.04867 0.08985 0.0
C592 C 0.06977 0.10573 0.09412 0.0
C593 C 0.07283 0.15578 0.08864 0.0
C594 C 0.94492 0.98336 0.07556 0.0
C595 C 0.11232 0.11415 0.10417 0.0
C596 C 1.00149 0.91694 0.10964 0.0
C597 C 0.03984 0.89993 0.10448 0.0
C598 C 0.99636 0.96426 0.10487 0.0
C599 C 0.03024 0.99559 0.09464 0.0
C600 C 0.06796 0.97776 0.08924 0.0
C601 C 0.07225 0.93044 0.09419 0.0
C602 C 0.9556 0.98155 0.11094 0.0
C603 C 0.10476 0.0094 0.0783 0.0
H604 H 0.9649 0.0894 0.06759 0.0
H605 H 0.10528 0.19922 0.09178 0.0
H606 H 0.96816 0.96321 0.07093 0.0
H607 H 0.9191 0.95353 0.08308 0.0
H608 H 0.91403 0.98597 0.06904 0.0
H609 H 0.13856 0.1609 0.10707 0.0
H610 H 0.0882 0.08695 0.11212 0.0
H611 H 0.14309 0.09921 0.1011 0.0
H612 H 0.97655 0.89428 0.11763 0.0
H613 H 0.10118 0.91729 0.08995 0.0
H614 H 0.92444 0.9823 0.10424 0.0
H615 H 0.98155 0.02671 0.11469 0.0
H616 H 0.92994 0.95102 0.1184 0.0
H617 H 0.07613 0.00945 0.07091 0.0
H618 H 0.13031 0.98893 0.07489 0.0
H619 H 0.13604 0.05605 0.08062 0.0
C620 C 0.92384 0.05083 0.25095 0.0
C621 C 0.88655 0.01198 0.24197 0.0
C622 C 0.97321 0.04841 0.25523 0.0
C623 C 0.98685 0.00658 0.25038 0.0
C624 C 0.94963 0.96698 0.24138 0.0
C625 C 0.9 0.96993 0.23733 0.0
C626 C 0.01144 0.09152 0.26486 0.0
C627 C 0.96266 0.92189 0.2359 0.0
C628 C 0.14823 0.04918 0.25391 0.0
C629 C 0.14698 0.01763 0.26428 0.0
C630 C 0.09621 0.04365 0.24893 0.0
C631 C 0.04125 0.00608 0.25452 0.0
C632 C 0.0394 0.97208 0.26468 0.0
C633 C 0.09216 0.978 0.26939 0.0
C634 C 0.10047 0.08017 0.238 0.0
C635 C 0.98204 0.93185 0.271 0.0
H636 H 0.91541 0.08427 0.25456 0.0
H637 H 0.87199 0.93911 0.23051 0.0
H638 H 0.0157 0.06746 0.2727 0.0
H639 H 0.05638 0.12049 0.26124 0.0
H640 H 0.99355 0.11965 0.2681 0.0
H641 H 0.92915 0.89367 0.2291 0.0
H642 H 1.00649 0.94442 0.23146 0.0
H643 H 0.96446 0.89328 0.24309 0.0
H644 H 0.19033 0.07946 0.24986 0.0
H645 H 0.09071 0.95394 0.27747 0.0
H646 H 0.0889 0.11408 0.24061 0.0
H647 H 0.06864 0.05209 0.23096 0.0
H648 H 0.14541 0.10272 0.23403 0.0
H649 H 0.96505 0.95861 0.27536 0.0
H650 H 0.98712 0.90446 0.27805 0.0
H651 H 0.94842 0.90235 0.26438 0.0
C652 C 0.08987 0.16063 0.42411 0.0
C653 C 0.11709 0.15491 0.43459 0.0
C654 C 0.04279 0.11141 0.4185 0.0
C655 C 0.02201 0.05433 0.42337 0.0
C656 C 0.0502 0.04784 0.43374 0.0
C657 C 0.0972 0.09802 0.43922 0.0
C658 C 0.01439 0.12075 0.40746 0.0
C659 C 0.02981 0.98795 0.43924 0.0
C660 C 0.86193 0.94083 0.4162 0.0
C661 C 0.86744 0.90932 0.40647 0.0
C662 C 0.91166 0.9869 0.42192 0.0
C663 C 0.96896 1.00224 0.41791 0.0
C664 C 0.97505 0.96973 0.4083 0.0
C665 C 0.92441 0.92386 0.40271 0.0
C666 C 0.90274 0.02005 0.43211 0.0
C667 C 0.03512 0.98431 0.40373 0.0
H668 H 0.1053 0.20389 0.42026 0.0
H669 H 0.11729 0.09272 0.44733 0.0
H670 H 0.01478 0.09335 0.39985 0.0
H671 H 0.96763 0.10659 0.40943 0.0
H672 H 0.03694 0.16754 0.40452 0.0
H673 H 0.05843 0.98969 0.44683 0.0
H674 H 0.98413 0.96947 0.44266 0.0
H675 H 0.02912 0.95715 0.43226 0.0
H676 H 0.81849 0.92956 0.41939 0.0
H677 H 0.92958 0.90042 0.39517 0.0
H678 H 0.92091 0.0669 0.4295 0.0
H679 H 0.92693 0.01927 0.44028 0.0
H680 H 0.85553 1.00139 0.43448 0.0
H681 H 0.05781 0.02938 0.39984 0.0
H682 H 0.03266 0.95289 0.39669 0.0
H683 H 0.06264 0.98392 0.41132 0.0
C684 C 0.01042 0.09462 0.60686 0.0
C685 C 0.99043 0.12589 0.59981 0.0
C686 C 0.01327 0.04607 0.60212 0.0
C687 C 0.99545 0.02777 0.59003 0.0
C688 C 0.97675 0.06002 0.58278 0.0
C689 C 0.97466 0.10854 0.58771 0.0
C690 C 0.03376 0.01327 0.61019 0.0
C691 C 0.95736 0.04231 0.56985 0.0
C692 C 0.0374 0.92381 0.5741 0.0
C693 C 0.98583 0.86891 0.57541 0.0
C694 C 0.04157 0.97569 0.57893 0.0
C695 C 0.99294 0.97296 0.58517 0.0
C696 C 0.94091 0.91771 0.58654 0.0
C697 C 0.93805 0.86667 0.58168 0.0
C698 C 0.09801 0.0335 0.57733 0.0
C699 C 0.88772 0.91255 0.593 0.0
H700 H 0.02221 0.10689 0.61623 0.0
H701 H 0.96021 0.13268 0.58206 0.0
H702 H 0.99675 0.96806 0.61186 0.0
H703 H 0.06927 0.00895 0.60568 0.0
H704 H 0.05035 0.03553 0.61904 0.0
H705 H 0.94652 0.07339 0.56522 0.0
H706 H 0.99249 0.04014 0.56466 0.0
H707 H 0.91788 0.99767 0.56964 0.0
H708 H 0.07483 0.92625 0.56941 0.0
H709 H 0.89761 0.82494 0.58258 0.0
H710 H 0.11567 0.05375 0.58628 0.0
H711 H 0.08923 0.0647 0.57218 0.0
H712 H 0.13223 0.02821 0.57247 0.0
H713 H 0.89982 0.93011 0.60233 0.0
H714 H 0.85095 0.8663 0.5935 0.0
H715 H 0.87185 0.93936 0.58825 0.0
C716 C 0.07821 0.93632 0.74831 0.0
C717 C 0.1245 0.98453 0.74233 0.0
C718 C 0.03029 0.93959 0.7532 0.0
C719 C 0.02827 0.99253 0.7522 0.0
C720 C 0.07511 0.04164 0.7463 0.0
C721 C 0.12241 0.03701 0.7414 0.0
C722 C 0.9812 0.88586 0.75928 0.0
C723 C 0.07511 0.09908 0.7451 0.0
C724 C 0.87606 0.97826 0.75431 0.0
C725 C 0.87337 0.99227 0.76649 0.0
C726 C 0.92644 0.9794 0.74952 0.0
C727 C 0.97612 0.99549 0.757 0.0
C728 C 0.9746 0.01156 0.76919 0.0
C729 C 0.92337 0.00957 0.77378 0.0
C730 C 0.92587 0.96189 0.73648 0.0
C731 C 0.02658 0.02938 0.77748 0.0
H732 H 0.07869 0.89528 0.74893 0.0
H733 H 0.15808 0.07477 0.73695 0.0
H734 H 0.97506 0.8967 0.76867 0.0
H735 H 0.9392 0.87154 0.75439 0.0
H736 H 0.98986 0.84842 0.75956 0.0
H737 H 0.11547 0.13369 0.74057 0.0
H738 H 0.03616 0.09217 0.73981 0.0
H739 H 0.07168 0.11525 0.75417 0.0
H740 H 0.83852 0.96592 0.74847 0.0
H741 H 0.92204 0.01999 0.78321 0.0
H742 H 0.93042 0.92199 0.73605 0.0
H743 H 0.96388 0.99746 0.73156 0.0
H744 H 0.8847 0.95248 0.73172 0.0
H745 H 0.03365 0.9914 0.77891 0.0
H746 H 0.02023 0.04467 0.78644 0.0
H747 H 0.06722 0.06513 0.77329 0.0
C748 C 0.92246 0.91646 0.93961 0.0
C749 C 0.90676 0.85968 0.93549 0.0
C750 C 0.96821 0.96737 0.93407 0.0
C751 C 0.99942 0.96175 0.92414 0.0
C752 C 0.98283 0.90469 0.91977 0.0
C753 C 0.93689 0.8547 0.92543 0.0
C754 C 0.98409 0.02719 0.93903 0.0
C755 C 0.01462 0.89626 0.90923 0.0
C756 C 0.09511 0.09147 0.90314 0.0
C757 C 0.15216 0.10982 0.90748 0.0
C758 C 0.04491 0.04458 0.90864 0.0
C759 C 0.05157 0.01491 0.91874 0.0
C760 C 0.10885 0.0342 0.92334 0.0
C761 C 0.15807 0.08124 0.91772 0.0
C762 C 0.9848 0.02583 0.90345 0.0
C763 C 0.11838 1.0042 0.93407 0.0
H764 H 0.90009 0.92123 0.94739 0.0
H765 H 0.92469 0.81146 0.92195 0.0
H766 H 0.02937 0.04877 0.9428 0.0
H767 H 0.9838 0.05587 0.93167 0.0
H768 H 0.95337 0.02448 0.94626 0.0
H769 H 0.99503 0.84924 0.9066 0.0
H770 H 0.01362 0.92162 0.90129 0.0
H771 H 0.06155 0.91342 0.91162 0.0
H772 H 0.08965 0.11266 0.89523 0.0
H773 H 0.20148 0.0955 0.92137 0.0
H774 H 0.95486 0.02481 0.91066 0.0
H775 H 0.96535 0.98053 0.89975 0.0
H776 H 0.98649 0.05566 0.89612 0.0
H777 H 0.09187 1.00432 0.94188 0.0
H778 H 0.16536 0.02575 0.93685 0.0
H779 H 0.10329 0.95748 0.93183 0.0
C780 C 0.48386 0.53032 0.98455 0.0
C781 C 0.51114 0.5869 0.98963 0.0
C782 C 0.43029 0.48506 0.98922 0.0
C783 C 0.40392 0.49685 0.99923 0.0
C784 C 0.43297 0.55319 0.00472 0.0
C785 C 0.48604 0.59742 0.99984 0.0
C786 C 0.40065 0.42562 0.98312 0.0
C787 C 0.40682 0.56762 0.01548 0.0
C788 C 0.23934 0.42096 0.00439 0.0
C789 C 0.23253 0.38596 0.01454 0.0
C790 C 0.29432 0.45423 0.99879 0.0
C791 C 0.34386 0.45262 1.00347 0.0
C792 C 0.33649 0.41431 0.0132 0.0
C793 C 0.28079 0.38132 0.01863 0.0
C794 C 0.30006 0.49408 0.98837 0.0
C795 C 0.38812 0.41115 0.01841 0.0
H796 H 0.50302 0.52222 0.97661 0.0
H797 H 0.50765 0.6409 1.00388 0.0
H798 H 0.3865 0.3899 0.98992 0.0
H799 H 0.3605 0.41904 0.97835 0.0
H800 H 0.42995 0.42133 0.97643 0.0
H801 H 0.43688 0.61224 0.01917 0.0
H802 H 0.36494 0.56545 0.01279 0.0
H803 H 0.3964 0.5348 0.02278 0.0
H804 H 0.20188 0.42388 1.00108 0.0
H805 H 0.27582 0.35448 0.02649 0.0
H806 H 0.32473 0.4886 0.98081 0.0
H807 H 0.32532 0.54072 0.99135 0.0
H808 H 0.25651 0.48531 0.98496 0.0
H809 H 0.41513 0.40755 0.01109 0.0
H810 H 0.37383 0.3732 0.02466 0.0
H811 H 0.4168 0.45225 0.02348 0.0
C812 C 0.95172 0.48644 0.16042 0.0
C813 C 0.91081 0.48791 0.15248 0.0
C814 C 0.94029 0.43328 0.16596 0.0
C815 C 0.88708 0.38054 0.16334 0.0
C816 C 0.84791 0.38139 0.15462 0.0
C817 C 0.86012 0.43505 0.14936 0.0
C818 C 0.98318 0.43433 0.17521 0.0
C819 C 0.79116 0.32628 0.15139 0.0
C820 C 0.85923 0.22935 0.17347 0.0
C821 C 0.82397 0.21917 0.18377 0.0
C822 C 0.88154 0.28227 0.16687 0.0
C823 C 0.86852 0.32619 0.17068 0.0
C824 C 0.8339 0.3166 0.18118 0.0
C825 C 0.81182 0.26329 0.18751 0.0
C826 C 0.91801 0.2907 0.1557 0.0
C827 C 0.81875 0.36212 0.18557 0.0
H828 H 0.99078 0.52738 0.16285 0.0
H829 H 0.82893 0.43614 0.14307 0.0
H830 H 0.96377 0.42845 0.18438 0.0
H831 H 0.99184 0.39746 0.17366 0.0
H832 H 0.02572 0.4765 0.17503 0.0
H833 H 0.76907 0.333 0.14346 0.0
H834 H 0.7995 0.28957 0.14937 0.0
H835 H 0.76052 0.31257 0.1592 0.0
H836 H 0.8695 0.19596 0.17056 0.0
H837 H 0.78369 0.25569 0.19528 0.0
H838 H 0.96062 0.3325 0.15633 0.0
H839 H 0.89468 0.29405 0.14762 0.0
H840 H 0.92695 0.25385 0.1543 0.0
H841 H 0.85946 0.40536 0.18671 0.0
H842 H 0.79458 0.34956 0.1943 0.0
H843 H 0.79102 0.36798 0.17874 0.0
C844 C 0.47591 0.93928 0.31505 0.0
C845 C 0.42673 0.92449 0.32243 0.0
C846 C 0.51833 0.92353 0.31834 0.0
C847 C 0.51162 0.89251 0.32928 0.0
C848 C 0.46175 0.87691 0.33665 0.0
C849 C 0.42003 0.89274 0.33311 0.0
C850 C 0.57058 0.9406 0.31018 0.0
C851 C 0.45233 0.84338 0.34834 0.0
C852 C 0.58043 0.79754 0.33586 0.0
C853 C 0.624 0.83195 0.34436 0.0
C854 C 0.54633 0.81842 0.33019 0.0
C855 C 0.55565 0.8751 0.33312 0.0
C856 C 0.60232 0.91163 0.34106 0.0
C857 C 0.63606 0.88968 0.34656 0.0
C858 C 0.49764 0.77814 0.32169 0.0
C859 C 0.6139 0.97234 0.34443 0.0
H860 H 0.48191 0.96411 0.30683 0.0
H861 H 0.38173 0.87978 0.33875 0.0
H862 H 0.61169 0.97177 0.31498 0.0
H863 H 0.57404 0.90121 0.30785 0.0
H864 H 0.56775 0.96165 0.30167 0.0
H865 H 0.41163 0.83525 0.35312 0.0
H866 H 0.44931 0.8003 0.34649 0.0
H867 H 0.49042 0.86832 0.35447 0.0
H868 H 0.57141 0.75313 0.33399 0.0
H869 H 0.66941 0.91642 0.35316 0.0
H870 H 0.49813 0.80214 0.31338 0.0
H871 H 0.45439 0.76247 0.32615 0.0
H872 H 0.50128 0.73911 0.31906 0.0
H873 H 0.61483 0.99724 0.33623 0.0
H874 H 0.65616 0.99801 0.34937 0.0
H875 H 0.57767 0.96837 0.35028 0.0
C876 C 0.78929 0.59094 0.50288 0.0
C877 C 0.7939 0.62471 0.5131 0.0
C878 C 0.73487 0.55665 0.49705 0.0
C879 C 0.68403 0.55658 0.50148 0.0
C880 C 0.68948 0.5941 0.51122 0.0
C881 C 0.74425 0.6274 0.51696 0.0
C882 C 0.73101 0.51714 0.48673 0.0
C883 C 0.63671 0.59617 0.5161 0.0
C884 C 0.54141 0.47662 0.48323 0.0
C885 C 0.5134 0.42132 0.48891 0.0
C886 C 0.5967 0.52172 0.48728 0.0
C887 C 0.62441 0.51104 0.49722 0.0
C888 C 0.59544 0.45575 0.50313 0.0
C889 C 0.54043 0.41186 0.49893 0.0
C890 C 0.62606 0.5801 0.48076 0.0
C891 C 0.62302 0.44239 0.5138 0.0
H892 H 0.82744 0.58847 0.4999 0.0
H893 H 0.74784 0.65413 0.52475 0.0
H894 H 0.70749 0.47059 0.48981 0.0
H895 H 0.70546 0.52083 0.47911 0.0
H896 H 0.77521 0.52775 0.48337 0.0
H897 H 0.64963 0.63356 0.52244 0.0
H898 H 0.61064 0.60001 0.5086 0.0
H899 H 0.6076 0.55459 0.52099 0.0
H900 H 0.52105 0.48401 0.4754 0.0
H901 H 0.51851 0.36957 0.50347 0.0
H902 H 0.66548 0.58552 0.47589 0.0
H903 H 0.6413 0.61693 0.48732 0.0
H904 H 0.59617 0.58368 0.47411 0.0
H905 H 0.66582 0.44675 0.51109 0.0
H906 H 0.59447 0.39728 0.51743 0.0
H907 H 0.63201 0.47454 0.52117 0.0
C908 C 0.14989 0.54666 0.66326 0.0
C909 C 0.09986 0.511 0.65619 0.0
C910 C 0.16337 0.6032 0.66697 0.0
C911 C 0.1269 0.62606 0.66333 0.0
C912 C 0.0778 0.59176 0.65575 0.0
C913 C 0.06456 0.53447 0.65235 0.0
C914 C 0.2161 0.63793 0.67508 0.0
C915 C 0.03856 0.61503 0.65145 0.0
C916 C 0.13575 0.74179 0.68519 0.0
C917 C 0.181 0.794 0.68011 0.0
C918 C 0.11495 0.68716 0.67943 0.0
C919 C 0.1391 0.68443 0.66816 0.0
C920 C 0.18121 0.73743 0.66248 0.0
C921 C 0.20198 0.79154 0.66855 0.0
C922 C 0.07019 0.63194 0.68586 0.0
C923 C 0.20715 0.73669 0.65034 0.0
H924 H 0.17895 0.53054 0.66599 0.0
H925 H 0.02593 0.50783 0.64689 0.0
H926 H 0.24698 0.6808 0.67083 0.0
H927 H 0.2016 0.6475 0.68381 0.0
H928 H 0.24038 0.61409 0.67701 0.0
H929 H 1.00704 0.58645 0.6444 0.0
H930 H 0.01311 0.61778 0.6592 0.0
H931 H 0.06543 0.6602 0.64775 0.0
H932 H 0.11794 0.74328 0.69395 0.0
H933 H 0.23687 0.8314 0.6645 0.0
H934 H 0.09145 0.60644 0.68883 0.0
H935 H 0.03371 0.6034 0.67966 0.0
H936 H 0.05137 0.64181 0.69394 0.0
H937 H 0.23873 0.72043 0.65145 0.0
H938 H 0.23089 0.78127 0.6462 0.0
H939 H 0.17221 0.70633 0.64403 0.0
C940 C 0.43832 0.20254 0.8392 0.0
C941 C 0.39172 0.17066 0.8473 0.0
C942 C 0.46966 0.17745 0.83402 0.0
C943 C 0.45359 0.11851 0.83682 0.0
C944 C 0.40374 0.08456 0.84422 0.0
C945 C 0.37361 0.11111 0.84944 0.0
C946 C 0.52248 0.21543 0.82619 0.0
C947 C 0.38434 0.02125 0.84723 0.0
C948 C 0.53417 0.05783 0.81816 0.0
C949 C 0.58264 0.07151 0.82565 0.0
C950 C 0.48959 0.06961 0.82192 0.0
C951 C 0.49392 0.09593 0.83337 0.0
C952 C 0.54093 0.10632 0.8412 0.0
C953 C 0.58432 0.09369 0.83727 0.0
C954 C 0.43968 0.05684 0.81337 0.0
C955 C 0.54751 0.1342 0.85349 0.0
H956 H 0.45172 0.24807 0.83722 0.0
H957 H 0.33778 0.08595 0.85568 0.0
H958 H 0.56326 0.22373 0.83095 0.0
H959 H 0.52017 0.1925 0.8176 0.0
H960 H 0.52611 0.25857 0.82402 0.0
H961 H 0.33949 0.9981 0.85124 0.0
H962 H 0.38474 0.99707 0.83902 0.0
H963 H 0.41552 0.01972 0.85382 0.0
H964 H 0.53266 0.04086 0.80915 0.0
H965 H 0.62105 0.1032 0.84317 0.0
H966 H 0.44603 0.09879 0.80954 0.0
H967 H 0.39697 0.03552 0.81825 0.0
H968 H 0.43729 0.02796 0.80577 0.0
H969 H 0.5556 0.1798 0.85238 0.0
H970 H 0.58449 0.13602 0.85877 0.0
H971 H 0.50636 0.10931 0.85879 0.0
C972 C 0.55455 0.74266 0.82325 0.0
C973 C 0.6111 0.78573 0.82702 0.0
C974 C 0.52235 0.68949 0.82955 0.0
C975 C 0.54651 0.67907 0.84009 0.0
C976 C 0.60341 0.72221 0.84403 0.0
C977 C 0.63515 0.77497 0.83742 0.0
C978 C 0.46179 0.64484 0.82502 0.0
C979 C 0.63035 0.71294 0.85529 0.0
C980 C 0.42647 0.5684 0.86057 0.0
C981 C 0.42438 0.51575 0.85723 0.0
C982 C 0.46906 0.62264 0.85575 0.0
C983 C 0.51012 0.62421 0.84721 0.0
C984 C 0.51054 0.57154 0.84439 0.0
C985 C 0.46779 0.51784 0.84952 0.0
C986 C 0.46755 0.67768 0.8592 0.0
C987 C 0.55331 0.5712 0.83529 0.0
H988 H 0.53465 0.75086 0.81544 0.0
H989 H 0.6789 0.80762 0.84038 0.0
H990 H 0.45886 0.60139 0.82377 0.0
H991 H 0.42808 0.63901 0.8318 0.0
H992 H 0.45077 0.65818 0.8163 0.0
H993 H 0.67568 0.74988 0.85696 0.0
H994 H 0.60261 0.70844 0.86325 0.0
H995 H 0.63181 0.67142 0.85455 0.0
H996 H 0.39343 0.56679 0.8667 0.0
H997 H 0.46602 0.47704 0.84695 0.0
H998 H 0.45102 0.69228 0.85146 0.0
H999 H 0.51248 0.71399 0.86136 0.0
H1000 H 0.43849 0.67036 0.86711 0.0
H1001 H 0.54104 0.57841 0.8261 0.0
H1002 H 0.55336 0.52878 0.83532 0.0
H1003 H 0.59863 0.60755 0.83714 0.0
C1004 C 0.89281 0.4053 0.00813 0.0
C1005 C 0.92645 0.41306 0.01858 0.0
C1006 C 0.87863 0.44799 0.00439 0.0
C1007 C 0.89788 0.49991 0.01132 0.0
C1008 C 0.93134 0.50803 0.02195 0.0
C1009 C 0.9454 0.46468 0.02543 0.0
C1010 C 0.84259 0.43722 0.99303 0.0
C1011 C 0.95233 0.56252 0.02964 0.0
C1012 C 0.89483 0.62373 0.99382 0.0
C1013 C 0.83852 0.61402 0.99669 0.0
C1014 C 0.91649 0.58925 0.99909 0.0
C1015 C 0.88113 0.54437 0.00747 0.0
C1016 C 0.8261 0.53748 0.01103 0.0
C1017 C 0.80542 0.57217 0.00557 0.0
C1018 C 0.97538 0.59811 0.99503 0.0
C1019 C 0.78722 0.49082 0.02004 0.0
H1020 H 0.87685 0.36535 1.00287 0.0
H1021 H 0.97193 0.47176 0.03343 0.0
H1022 H 0.80051 0.43568 0.99524 0.0
H1023 H 0.86666 0.47401 0.98656 0.0
H1024 H 0.83238 0.39534 0.98848 0.0
H1025 H 0.97686 0.56171 0.03777 0.0
H1026 H 0.98143 0.60226 0.02423 0.0
H1027 H 0.91423 0.56692 0.03261 0.0
H1028 H 0.92041 0.65574 0.98691 0.0
H1029 H 0.76207 0.56493 0.0079 0.0
H1030 H 0.96846 0.56032 0.98932 0.0
H1031 H 1.00217 0.59958 1.00294 0.0
H1032 H 1.00065 0.63927 0.98971 0.0
H1033 H 0.76949 0.44662 0.01587 0.0
H1034 H 0.74955 0.49609 0.02299 0.0
H1035 H 0.81295 0.49216 0.02812 0.0
C1036 C 0.48677 0.90831 0.17361 0.0
C1037 C 0.50767 0.93 0.18524 0.0
C1038 C 0.43074 0.89605 0.16981 0.0
C1039 C 0.39447 0.90631 0.17778 0.0
C1040 C 0.41679 0.93202 0.18926 0.0
C1041 C 0.4732 0.94346 0.19288 0.0
C1042 C 0.4091 0.86877 0.15748 0.0
C1043 C 0.38007 0.94451 0.19798 0.0
C1044 C 0.25968 0.89267 0.1617 0.0
C1045 C 0.21839 0.83296 0.16364 0.0
C1046 C 0.31598 0.91883 0.16705 0.0
C1047 C 0.33165 0.88434 0.17438 0.0
C1048 C 0.28877 0.82531 0.17703 0.0
C1049 C 0.23271 0.8006 0.17173 0.0
C1050 C 0.35986 0.98233 0.16425 0.0
C1051 C 0.30331 0.78678 0.1848 0.0
H1052 H 0.51374 0.89894 0.1676 0.0
H1053 H 0.48898 0.96008 0.20189 0.0
H1054 H 0.37143 0.82334 0.15854 0.0
H1055 H 0.39313 0.89429 0.15228 0.0
H1056 H 0.44392 0.86669 0.15213 0.0
H1057 H 0.40733 0.97492 0.20532 0.0
H1058 H 0.35643 0.96388 0.19321 0.0
H1059 H 0.34649 0.90265 0.20219 0.0
H1060 H 0.2493 0.91825 0.15549 0.0
H1061 H 0.20065 0.75494 0.17356 0.0
H1062 H 0.39292 0.98428 0.15771 0.0
H1063 H 0.38386 0.00589 0.17255 0.0
H1064 H 0.33832 0.00579 0.16026 0.0
H1065 H 0.33567 0.77836 0.18002 0.0
H1066 H 0.26375 0.74372 0.18691 0.0
H1067 H 0.32386 0.80934 0.19342 0.0
C1068 C 0.55331 0.50344 0.34897 0.0
C1069 C 0.59624 0.50127 0.35618 0.0
C1070 C 0.5102 0.45275 0.34297 0.0
C1071 C 0.51013 0.39885 0.34429 0.0
C1072 C 0.55134 0.39589 0.35212 0.0
C1073 C 0.59376 0.44705 0.35796 0.0
C1074 C 0.46677 0.45759 0.33476 0.0
C1075 C 0.5526 0.33929 0.35389 0.0
C1076 C 0.3848 0.24926 0.3345 0.0
C1077 C 0.40759 0.24012 0.32375 0.0
C1078 C 0.41614 0.3022 0.34101 0.0
C1079 C 0.47139 0.34686 0.33665 0.0
C1080 C 0.49289 0.339 0.32546 0.0
C1081 C 0.46075 0.28582 0.31916 0.0
C1082 C 0.39163 0.30903 0.35287 0.0
C1083 C 0.5514 0.38557 0.32043 0.0
H1084 H 0.55515 0.5453 0.34757 0.0
H1085 H 0.62598 0.44489 0.36376 0.0
H1086 H 0.47753 0.45408 0.3252 0.0
H1087 H 0.42143 0.42094 0.33648 0.0
H1088 H 0.46751 0.50011 0.33594 0.0
H1089 H 0.5844 0.34331 0.361 0.0
H1090 H 0.50823 0.30297 0.3564 0.0
H1091 H 0.56515 0.3267 0.34528 0.0
H1092 H 0.34378 0.21405 0.33809 0.0
H1093 H 0.47794 0.27945 0.31072 0.0
H1094 H 0.39452 0.35272 0.35337 0.0
H1095 H 0.41817 0.30661 0.36044 0.0
H1096 H 0.34501 0.27416 0.3542 0.0
H1097 H 0.55355 0.42896 0.32021 0.0
H1098 H 0.55942 0.37481 0.31116 0.0
H1099 H 0.58751 0.39003 0.3264 0.0
C1100 C 0.10207 0.5892 0.50516 0.0
C1101 C 0.07661 0.58544 0.51651 0.0
C1102 C 0.11368 0.5453 0.50109 0.0
C1103 C 0.099 0.49576 0.50851 0.0
C1104 C 0.06958 0.48961 0.51964 0.0
C1105 C 0.0588 0.53467 0.52354 0.0
C1106 C 0.14495 0.55386 0.48914 0.0
C1107 C 0.05236 0.43711 0.52774 0.0
C1108 C 0.11367 0.3764 0.49188 0.0
C1109 C 0.172 0.39196 0.49466 0.0
C1110 C 0.08739 0.40693 0.49703 0.0
C1111 C 0.12039 0.45448 0.50504 0.0
C1112 C 0.17781 0.46768 0.50848 0.0
C1113 C 0.20266 0.43609 0.50332 0.0
C1114 C 0.02566 0.39066 0.49331 0.0
C1115 C 0.2147 0.51791 0.51699 0.0
H1116 H 0.11484 0.62781 0.4996 0.0
H1117 H 0.0393 0.53158 0.53235 0.0
H1118 H 0.18948 0.55989 0.49074 0.0
H1119 H 0.12058 0.51428 0.48336 0.0
H1120 H 0.14984 0.59279 0.48411 0.0
H1121 H 0.02196 0.43419 0.53507 0.0
H1122 H 0.03098 0.39569 0.52241 0.0
H1123 H 0.09242 0.44058 0.53196 0.0
H1124 H 0.08951 0.34245 0.48521 0.0
H1125 H 0.24719 0.44745 0.50576 0.0
H1126 H 0.02747 0.42418 0.48691 0.0
H1127 H 0.99958 0.39007 0.50127 0.0
H1128 H 1.00241 0.34693 0.48881 0.0
H1129 H 0.22614 0.56035 0.51256 0.0
H1130 H 0.25621 0.51903 0.51962 0.0
H1131 H 0.18953 0.5145 0.5253 0.0
C1132 C 0.5283 0.12098 0.67342 0.0
C1133 C 0.50367 0.08971 0.68416 0.0
C1134 C 0.58401 0.13305 0.66943 0.0
C1135 C 0.61593 0.1123 0.6762 0.0
C1136 C 0.59027 0.07813 0.68674 0.0
C1137 C 0.53452 0.06747 0.69064 0.0
C1138 C 0.60948 0.16975 0.65815 0.0
C1139 C 0.62236 0.05422 0.69407 0.0
C1140 C 0.74101 0.1181 0.65776 0.0
C1141 C 0.78857 0.17243 0.66135 0.0
C1142 C 0.68544 0.09544 0.66324 0.0
C1143 C 0.67684 0.12871 0.67229 0.0
C1144 C 0.72559 0.1822 0.67636 0.0
C1145 C 0.78103 0.20313 0.67092 0.0
C1146 C 0.63517 0.03755 0.65884 0.0
C1147 C 0.71833 0.2196 0.68584 0.0
H1148 H 0.50428 0.13711 0.66819 0.0
H1149 H 0.5161 0.04352 0.69898 0.0
H1150 H 0.65121 0.21052 0.66039 0.0
H1151 H 0.62003 0.14505 0.6514 0.0
H1152 H 0.5789 0.18243 0.65392 0.0
H1153 H 0.59432 0.02399 0.70135 0.0
H1154 H 0.63753 0.03029 0.68811 0.0
H1155 H 0.66207 0.09117 0.69826 0.0
H1156 H 0.74694 0.09409 0.65041 0.0
H1157 H 0.81767 0.24534 0.67364 0.0
H1158 H 0.60482 0.04585 0.65326 0.0
H1159 H 0.6095 0.00963 0.66659 0.0
H1160 H 0.65085 0.01278 0.65326 0.0
H1161 H 0.69175 0.23817 0.68206 0.0
H1162 H 0.76132 0.25661 0.68891 0.0
H1163 H 0.69427 0.1925 0.6938 0.0
C1164 C 1.0001 0.5632 0.10861 0.0
C1165 C 0.96677 0.59135 0.10699 0.0
C1166 C 0.99311 0.51701 0.10108 0.0
C1167 C 0.95209 0.49817 0.09146 0.0
C1168 C 0.9168 0.52505 0.08993 0.0
C1169 C 0.92419 0.57105 0.09779 0.0
C1170 C 0.03152 0.48984 0.10321 0.0
C1171 C 0.87279 0.50662 0.07975 0.0
C1172 C 1.00138 0.43746 0.06558 0.0
C1173 C 0.96858 0.37624 0.06743 0.0
C1174 C 0.99323 0.47697 0.07278 0.0
C1175 C 0.9519 0.45536 0.08236 0.0
C1176 C 0.91688 0.3934 0.08404 0.0
C1177 C 0.92521 0.35447 0.07647 0.0
C1178 C 0.03115 0.54228 0.07046 0.0
C1179 C 0.87256 0.36838 0.09417 0.0
H1180 H 0.03234 0.57744 0.11583 0.0
H1181 H 0.89788 0.59208 0.09653 0.0
H1182 H 1.0042 0.44114 0.10362 0.0
H1183 H 0.06273 0.50086 0.09556 0.0
H1184 H 0.05738 0.50567 0.11171 0.0
H1185 H 0.84446 0.52696 0.08051 0.0
H1186 H 0.89645 0.51988 0.07098 0.0
H1187 H 0.84435 0.45799 0.0796 0.0
H1188 H 0.03423 0.45492 0.05847 0.0
H1189 H 0.8994 0.30732 0.07791 0.0
H1190 H 0.06318 0.56287 0.07796 0.0
H1191 H 1.00371 0.56364 0.07015 0.0
H1192 H 0.05606 0.55167 0.06184 0.0
H1193 H 0.89604 0.37831 0.10296 0.0
H1194 H 0.84377 0.31988 0.09338 0.0
H1195 H 0.84461 0.38921 0.09429 0.0
C1196 C 0.52495 0.92083 0.22992 0.0
C1197 C 0.57912 0.93342 0.23495 0.0
C1198 C 0.47905 0.91702 0.2372 0.0
C1199 C 0.48775 0.92674 0.24984 0.0
C1200 C 0.54142 0.93612 0.25503 0.0
C1201 C 0.58661 0.9397 0.2475 0.0
C1202 C 0.42308 0.90716 0.23119 0.0
C1203 C 0.55287 0.94678 0.26843 0.0
C1204 C 0.41623 1.00365 0.26597 0.0
C1205 C 0.37025 0.9577 0.27247 0.0
C1206 C 0.45337 0.99364 0.25839 0.0
C1207 C 0.44512 0.93609 0.25729 0.0
C1208 C 0.39764 0.88897 0.26355 0.0
C1209 C 0.36051 0.90026 0.27103 0.0
C1210 C 0.50264 0.04527 0.2518 0.0
C1211 C 0.38731 0.82705 0.26265 0.0
H1212 H 0.51958 0.91702 0.22018 0.0
H1213 H 0.62899 0.95076 0.25136 0.0
H1214 H 0.38389 0.87535 0.23643 0.0
H1215 H 0.42279 0.94939 0.23087 0.0
H1216 H 0.41905 0.89059 0.22178 0.0
H1217 H 0.59294 0.94555 0.27127 0.0
H1218 H 0.55885 0.99067 0.27076 0.0
H1219 H 0.51468 0.91343 0.27369 0.0
H1220 H 0.42396 0.04816 0.26697 0.0
H1221 H 0.32551 0.86464 0.27612 0.0
H1222 H 0.49974 0.03617 0.24195 0.0
H1223 H 0.54579 0.05202 0.25497 0.0
H1224 H 0.50167 0.08679 0.25323 0.0
H1225 H 0.38435 0.81386 0.25303 0.0
H1226 H 0.34644 0.79467 0.26739 0.0
H1227 H 0.42518 0.8252 0.26668 0.0
C1228 C 0.46494 0.43751 0.44578 0.0
C1229 C 0.42732 0.37972 0.44174 0.0
C1230 C 0.51239 0.47843 0.43875 0.0
C1231 C 0.52233 0.46195 0.42718 0.0
C1232 C 0.48649 0.40259 0.42331 0.0
C1233 C 0.43961 0.36188 0.4307 0.0
C1234 C 0.54947 0.54055 0.44344 0.0
C1235 C 0.49531 0.38307 0.41103 0.0
C1236 C 0.5807 0.5874 0.4044 0.0
C1237 C 0.64102 0.6056 0.40367 0.0
C1238 C 0.54192 0.53976 0.41166 0.0
C1239 C 0.56347 0.50912 0.4186 0.0
C1240 C 0.62435 0.52701 0.41797 0.0
C1241 C 0.66242 0.57487 0.41045 0.0
C1242 C 0.47764 0.52276 0.41198 0.0
C1243 C 0.64925 0.49591 0.4253 0.0
H1244 H 0.45635 0.45141 0.45441 0.0
H1245 H 0.41085 0.31729 0.42755 0.0
H1246 H 0.597 0.55575 0.44228 0.0
H1247 H 0.53963 0.57072 0.43817 0.0
H1248 H 0.54091 0.54432 0.45315 0.0
H1249 H 0.47026 0.33437 0.41005 0.0
H1250 H 0.48028 0.40257 0.40393 0.0
H1251 H 0.54269 0.39894 0.4094 0.0
H1252 H 0.56316 0.61019 0.39917 0.0
H1253 H 0.70868 0.58805 0.40987 0.0
H1254 H 0.46566 0.52975 0.42121 0.0
H1255 H 0.44953 0.47532 0.40981 0.0
H1256 H 0.46719 0.54873 0.4055 0.0
H1257 H 0.64371 0.50123 0.43509 0.0
H1258 H 0.69675 0.51317 0.42344 0.0
H1259 H 0.62473 0.44799 0.42333 0.0
C1260 C 0.09779 0.6593 0.57649 0.0
C1261 C 0.0589 0.63619 0.56667 0.0
C1262 C 0.10516 0.62162 0.5846 0.0
C1263 C 0.07368 0.55966 0.58271 0.0
C1264 C 0.0374 0.53691 0.57235 0.0
C1265 C 0.03015 0.57521 0.56457 0.0
C1266 C 0.14413 0.64781 0.59553 0.0
C1267 C 1.00346 0.47154 0.5698 0.0
C1268 C 0.10182 0.44893 0.60009 0.0
C1269 C 0.05533 0.42636 0.60845 0.0
C1270 C 0.11019 0.49416 0.59193 0.0
C1271 C 0.07164 0.51772 0.59224 0.0
C1272 C 0.02642 0.49666 0.60104 0.0
C1273 C 0.01873 0.45138 0.60893 0.0
C1274 C 0.15884 0.51516 0.58268 0.0
C1275 C 0.98437 0.52034 0.60185 0.0
H1276 H 0.12027 0.70635 0.57814 0.0
H1277 H 1.00082 0.55703 0.55687 0.0
H1278 H 0.11639 0.6367 0.60377 0.0
H1279 H 0.17349 0.62891 0.59667 0.0
H1280 H 0.17153 0.69653 0.59489 0.0
H1281 H 0.98311 0.46162 0.56066 0.0
H1282 H 0.0327 0.45231 0.57053 0.0
H1283 H 0.96794 0.44932 0.57661 0.0
H1284 H 0.13044 0.43011 0.59969 0.0
H1285 H 0.98318 0.43506 0.61547 0.0
H1286 H 0.18497 0.564 0.58262 0.0
H1287 H 0.13943 0.501 0.57352 0.0
H1288 H 0.18886 0.49741 0.5844 0.0
H1289 H 0.00916 0.56914 0.60238 0.0
H1290 H 0.95482 0.50295 0.60984 0.0
H1291 H 0.95674 0.50809 0.59358 0.0
C1292 C 0.46091 0.03121 0.73232 0.0
C1293 C 0.42998 0.06177 0.73394 0.0
C1294 C 0.50614 0.0388 0.74021 0.0
C1295 C 0.52107 0.07768 0.75017 0.0
C1296 C 0.49199 0.11095 0.75156 0.0
C1297 C 0.44693 0.10286 0.74338 0.0
C1298 C 0.53583 1.00263 0.73821 0.0
C1299 C 0.50653 0.15294 0.76202 0.0
C1300 C 0.57519 0.02589 0.77679 0.0
C1301 C 0.63673 0.05979 0.77571 0.0
C1302 C 0.53743 0.03405 0.76904 0.0
C1303 C 0.56135 0.077 0.75977 0.0
C1304 C 0.62354 0.11345 0.75896 0.0
C1305 C 0.66059 0.10464 0.76699 0.0
C1306 C 0.47169 0.99435 0.7704 0.0
C1307 C 0.65096 0.15984 0.74925 0.0
H1308 H 0.44899 1.00015 0.72491 0.0
H1309 H 0.42349 0.12684 0.74466 0.0
H1310 H 0.58441 0.03111 0.73854 0.0
H1311 H 0.52306 0.96948 0.74554 0.0
H1312 H 0.52359 0.97912 0.7294 0.0
H1313 H 0.48634 0.18129 0.76095 0.0
H1314 H 0.49001 0.12754 0.77054 0.0
H1315 H 0.55493 0.18144 0.76295 0.0
H1316 H 0.55617 0.99183 0.78366 0.0
H1317 H 0.70802 0.13124 0.76614 0.0
H1318 H 0.45428 0.96416 0.76253 0.0
H1319 H 0.44921 0.02076 0.77057 0.0
H1320 H 0.46 0.96737 0.77878 0.0
H1321 H 0.64502 0.13823 0.74032 0.0
H1322 H 0.69882 0.18967 0.75079 0.0
H1323 H 0.62881 0.18654 0.74881 0.0
C1324 C 0.58618 0.57224 0.93852 0.0
C1325 C 0.60303 0.63211 0.93968 0.0
C1326 C 0.53811 0.53347 0.93137 0.0
C1327 C 0.50555 0.55457 0.92497 0.0
C1328 C 0.52195 0.61496 0.92606 0.0
C1329 C 0.57037 0.65304 0.93345 0.0
C1330 C 0.5228 0.46973 0.93055 0.0
C1331 C 0.48872 0.63935 0.91932 0.0
C1332 C 0.43341 0.45887 0.89748 0.0
C1333 C 0.37639 0.4194 0.90164 0.0
C1334 C 0.47402 0.50605 0.9046 0.0
C1335 C 0.45811 0.51372 0.91641 0.0
C1336 C 0.39943 0.4759 0.92046 0.0
C1337 C 0.35892 0.4294 0.91296 0.0
C1338 C 0.5354 0.54524 0.89973 0.0
C1339 C 0.38057 0.4822 0.93299 0.0
H1340 H 0.6105 0.55505 0.94333 0.0
H1341 H 0.58249 0.69893 0.93437 0.0
H1342 H 0.47578 0.44028 0.93287 0.0
H1343 H 0.5293 0.45938 0.92113 0.0
H1344 H 0.55017 0.45946 0.93666 0.0
H1345 H 0.50491 0.68636 0.92153 0.0
H1346 H 0.49319 0.63542 0.90943 0.0
H1347 H 0.44109 0.61337 0.92149 0.0
H1348 H 0.447 0.45198 0.88865 0.0
H1349 H 0.31492 0.39915 0.91621 0.0
H1350 H 0.56665 0.53488 0.90441 0.0
H1351 H 0.55 0.59226 0.90148 0.0
H1352 H 0.53816 0.53918 0.88985 0.0
H1353 H 0.40162 0.46716 0.93974 0.0
H1354 H 0.33204 0.45575 0.93416 0.0
H1355 H 0.39526 0.52906 0.93498 0.0
loop_
_geom_bond_atom_site_label_1
_geom_bond_atom_site_label_2
_geom_bond_distance
_geom_bond_site_symmetry_2
_ccdc_geom_bond_type
Co0 N4 2.148 . S
Co0 N10 2.128 1_655 S
Co0 N20 2.194 1_655 S
Co0 O25 2.351 1_655 S
Co0 O26 2.155 . S
Co0 O27 2.096 . S
C1 N4 1.301 . S
C1 N5 1.328 . S
C1 H6 0.930 . S
C2 C3 1.333 . S
C2 N4 1.317 . S
C2 H7 0.930 . S
C3 C2 1.333 . S
C3 N5 1.350 . S
C3 H29 0.931 . S
N4 Co0 2.148 . S
N4 C1 1.301 . S
N4 C2 1.317 . S
N5 C1 1.328 . S
N5 C3 1.350 . S
H6 C1 0.930 . S
H7 C2 0.930 . S
C8 O9 1.224 . S
C8 O27 1.247 . S
O9 C8 1.224 . S
N10 Co0 2.128 1_455 S
N10 C11 1.355 . S
N10 C13 1.311 1_455 S
C11 N10 1.355 . S
C11 C12 1.363 . S
C11 H23 0.929 . S
C12 C11 1.363 . S
C12 N14 1.375 . S
C12 H30 0.931 . S
C13 N10 1.311 1_655 S
C13 N14 1.347 1_655 S
C13 H24 0.929 . S
N14 C12 1.375 . S
N14 C13 1.347 1_455 S
C15 C18 1.365 . S
C15 N20 1.328 . S
C15 H21 0.929 . S
C16 C17 1.362 . S
C16 C19 1.378 . S
C16 H31 0.929 . S
C17 C16 1.362 . S
C17 C18 1.366 . S
C18 C15 1.365 . S
C18 C17 1.366 . S
C18 H32 0.930 . S
C19 C16 1.378 . S
C19 N20 1.315 . S
C19 H22 0.930 . S
N20 Co0 2.194 1_455 S
N20 C15 1.328 . S
N20 C19 1.315 . S
H21 C15 0.929 . S
H22 C19 0.930 . S
H23 C11 0.929 . S
H24 C13 0.929 . S
O25 Co0 2.351 1_455 S
O25 C28 1.244 1_455 S
O26 Co0 2.155 . S
O26 C28 1.240 . S
O27 Co0 2.096 . S
O27 C8 1.247 . S
C28 O25 1.244 1_655 S
C28 O26 1.240 . S
H29 C3 0.931 . S
H30 C12 0.931 . S
H31 C16 0.929 . S
H32 C18 0.930 . S
Co33 N37 2.148 . S
Co33 N43 2.128 1_565 S
Co33 N53 2.194 1_565 S
Co33 O58 2.351 1_565 S
Co33 O59 2.155 . S
Co33 O60 2.096 . S
C34 N37 1.301 . S
C34 N38 1.328 . S
C34 H39 0.930 . S
C35 C36 1.333 . S
C35 N37 1.317 . S
C35 H40 0.930 . S
C36 C35 1.333 . S
C36 N38 1.350 . S
C36 H62 0.931 . S
N37 Co33 2.148 . S
N37 C34 1.301 . S
N37 C35 1.317 . S
N38 C34 1.328 . S
N38 C36 1.350 . S
H39 C34 0.930 . S
H40 C35 0.930 . S
C41 O42 1.224 . S
C41 O60 1.247 . S
O42 C41 1.224 . S
N43 Co33 2.128 1_545 S
N43 C44 1.355 . S
N43 C46 1.311 1_545 S
C44 N43 1.355 . S
C44 C45 1.363 . S
C44 H56 0.929 . S
C45 C44 1.363 . S
C45 N47 1.375 . S
C45 H63 0.931 . S
C46 N43 1.311 1_565 S
C46 N47 1.347 1_565 S
C46 H57 0.929 . S
N47 C45 1.375 . S
N47 C46 1.347 1_545 S
C48 C51 1.365 . S
C48 N53 1.328 . S
C48 H54 0.929 . S
C49 C50 1.362 . S
C49 C52 1.378 . S
C49 H64 0.929 . S
C50 C49 1.362 . S
C50 C51 1.366 . S
C51 C48 1.365 . S
C51 C50 1.366 . S
C51 H65 0.930 . S
C52 C49 1.378 . S
C52 N53 1.315 . S
C52 H55 0.930 . S
N53 Co33 2.194 1_545 S
N53 C48 1.328 . S
N53 C52 1.315 . S
H54 C48 0.929 . S
H55 C52 0.930 . S
H56 C44 0.929 . S
H57 C46 0.929 . S
O58 Co33 2.351 1_545 S
O58 C61 1.244 1_545 S
O59 Co33 2.155 . S
O59 C61 1.240 . S
O60 Co33 2.096 . S
O60 C41 1.247 . S
C61 O58 1.244 1_565 S
C61 O59 1.240 . S
H62 C36 0.931 . S
H63 C45 0.931 . S
H64 C49 0.929 . S
H65 C51 0.930 . S
Co66 N70 2.148 . S
Co66 N76 2.128 . S
Co66 N86 2.194 . S
Co66 O91 2.351 . S
Co66 O92 2.155 . S
Co66 O93 2.096 . S
C67 N70 1.301 . S
C67 N71 1.328 . S
C67 H72 0.930 . S
C68 C69 1.333 . S
C68 N70 1.317 . S
C68 H73 0.930 . S
C69 C68 1.333 . S
C69 N71 1.350 . S
C69 H95 0.931 . S
N70 Co66 2.148 . S
N70 C67 1.301 . S
N70 C68 1.317 . S
N71 C67 1.328 . S
N71 C69 1.350 . S
H72 C67 0.930 . S
H73 C68 0.930 . S
C74 O75 1.224 . S
C74 O93 1.247 . S
O75 C74 1.224 . S
N76 Co66 2.128 . S
N76 C77 1.355 . S
N76 C79 1.311 . S
C77 N76 1.355 . S
C77 C78 1.363 . S
C77 H89 0.929 . S
C78 C77 1.363 . S
C78 N80 1.375 . S
C78 H96 0.931 . S
C79 N76 1.311 . S
C79 N80 1.347 . S
C79 H90 0.929 . S
N80 C78 1.375 . S
N80 C79 1.347 . S
C81 C84 1.365 . S
C81 N86 1.328 . S
C81 H87 0.929 . S
C82 C83 1.362 . S
C82 C85 1.378 . S
C82 H97 0.929 . S
C83 C82 1.362 . S
C83 C84 1.366 . S
C84 C81 1.365 . S
C84 C83 1.366 . S
C84 H98 0.930 . S
C85 C82 1.378 . S
C85 N86 1.315 . S
C85 H88 0.930 . S
N86 Co66 2.194 . S
N86 C81 1.328 . S
N86 C85 1.315 . S
H87 C81 0.929 . S
H88 C85 0.930 . S
H89 C77 0.929 . S
H90 C79 0.929 . S
O91 Co66 2.351 . S
O91 C94 1.244 . S
O92 Co66 2.155 . S
O92 C94 1.240 . S
O93 Co66 2.096 . S
O93 C74 1.247 . S
C94 O91 1.244 . S
C94 O92 1.240 . S
H95 C69 0.931 . S
H96 C78 0.931 . S
H97 C82 0.929 . S
H98 C84 0.930 . S
Co99 N103 2.148 . S
Co99 N109 2.128 1_455 S
Co99 N119 2.194 1_455 S
Co99 O124 2.351 1_455 S
Co99 O125 2.155 . S
Co99 O126 2.096 . S
C100 N103 1.301 . S
C100 N104 1.328 . S
C100 H105 0.930 . S
C101 C102 1.333 . S
C101 N103 1.317 . S
C101 H106 0.930 . S
C102 C101 1.333 . S
C102 N104 1.350 . S
C102 H128 0.931 . S
N103 Co99 2.148 . S
N103 C100 1.301 . S
N103 C101 1.317 . S
N104 C100 1.328 . S
N104 C102 1.350 . S
H105 C100 0.930 . S
H106 C101 0.930 . S
C107 O108 1.224 . S
C107 O126 1.247 . S
O108 C107 1.224 . S
N109 Co99 2.128 1_655 S
N109 C110 1.355 . S
N109 C112 1.311 1_655 S
C110 N109 1.355 . S
C110 C111 1.363 . S
C110 H122 0.929 . S
C111 C110 1.363 . S
C111 N113 1.375 . S
C111 H129 0.931 . S
C112 N109 1.311 1_455 S
C112 N113 1.347 1_455 S
C112 H123 0.929 . S
N113 C111 1.375 . S
N113 C112 1.347 1_655 S
C114 C117 1.365 . S
C114 N119 1.328 . S
C114 H120 0.929 . S
C115 C116 1.362 . S
C115 C118 1.378 . S
C115 H130 0.929 . S
C116 C115 1.362 . S
C116 C117 1.366 . S
C117 C114 1.365 . S
C117 C116 1.366 . S
C117 H131 0.930 . S
C118 C115 1.378 . S
C118 N119 1.315 . S
C118 H121 0.930 . S
N119 Co99 2.194 1_655 S
N119 C114 1.328 . S
N119 C118 1.315 . S
H120 C114 0.929 . S
H121 C118 0.930 . S
H122 C110 0.929 . S
H123 C112 0.929 . S
O124 Co99 2.351 1_655 S
O124 C127 1.244 1_655 S
O125 Co99 2.155 . S
O125 C127 1.240 . S
O126 Co99 2.096 . S
O126 C107 1.247 . S
C127 O124 1.244 1_455 S
C127 O125 1.240 . S
H128 C102 0.931 . S
H129 C111 0.931 . S
H130 C115 0.929 . S
H131 C117 0.930 . S
Co132 N136 2.148 . S
Co132 N142 2.128 1_545 S
Co132 N152 2.194 1_545 S
Co132 O157 2.351 1_545 S
Co132 O158 2.155 . S
Co132 O159 2.096 . S
C133 N136 1.301 . S
C133 N137 1.328 . S
C133 H138 0.930 . S
C134 C135 1.333 . S
C134 N136 1.317 . S
C134 H139 0.930 . S
C135 C134 1.333 . S
C135 N137 1.350 . S
C135 H161 0.931 . S
N136 Co132 2.148 . S
N136 C133 1.301 . S
N136 C134 1.317 . S
N137 C133 1.328 . S
N137 C135 1.350 . S
H138 C133 0.930 . S
H139 C134 0.930 . S
C140 O141 1.224 . S
C140 O159 1.247 . S
O141 C140 1.224 . S
N142 Co132 2.128 1_565 S
N142 C143 1.355 . S
N142 C145 1.311 1_565 S
C143 N142 1.355 . S
C143 C144 1.363 . S
C143 H155 0.929 . S
C144 C143 1.363 . S
C144 N146 1.375 . S
C144 H162 0.931 . S
C145 N142 1.311 1_545 S
C145 N146 1.347 1_545 S
C145 H156 0.929 . S
N146 C144 1.375 . S
N146 C145 1.347 1_565 S
C147 C150 1.365 . S
C147 N152 1.328 . S
C147 H153 0.929 . S
C148 C149 1.362 . S
C148 C151 1.378 . S
C148 H163 0.929 . S
C149 C148 1.362 . S
C149 C150 1.366 . S
C150 C147 1.365 . S
C150 C149 1.366 . S
C150 H164 0.930 . S
C151 C148 1.378 . S
C151 N152 1.315 . S
C151 H154 0.930 . S
N152 Co132 2.194 1_565 S
N152 C147 1.328 . S
N152 C151 1.315 . S
H153 C147 0.929 . S
H154 C151 0.930 . S
H155 C143 0.929 . S
H156 C145 0.929 . S
O157 Co132 2.351 1_565 S
O157 C160 1.244 1_565 S
O158 Co132 2.155 . S
O158 C160 1.240 . S
O159 Co132 2.096 . S
O159 C140 1.247 . S
C160 O157 1.244 1_545 S
C160 O158 1.240 . S
H161 C135 0.931 . S
H162 C144 0.931 . S
H163 C148 0.929 . S
H164 C150 0.930 . S
Co165 N169 2.148 . S
Co165 N175 2.128 . S
Co165 N185 2.194 . S
Co165 O190 2.351 . S
Co165 O191 2.155 . S
Co165 O192 2.096 . S
C166 N169 1.301 . S
C166 N170 1.328 . S
C166 H171 0.930 . S
C167 C168 1.333 . S
C167 N169 1.317 . S
C167 H172 0.930 . S
C168 C167 1.333 . S
C168 N170 1.350 . S
C168 H194 0.931 . S
N169 Co165 2.148 . S
N169 C166 1.301 . S
N169 C167 1.317 . S
N170 C166 1.328 . S
N170 C168 1.350 . S
H171 C166 0.930 . S
H172 C167 0.930 . S
C173 O174 1.224 . S
C173 O192 1.247 . S
O174 C173 1.224 . S
N175 Co165 2.128 . S
N175 C176 1.355 . S
N175 C178 1.311 . S
C176 N175 1.355 . S
C176 C177 1.363 . S
C176 H188 0.929 . S
C177 C176 1.363 . S
C177 N179 1.375 . S
C177 H195 0.931 . S
C178 N175 1.311 . S
C178 N179 1.347 . S
C178 H189 0.929 . S
N179 C177 1.375 . S
N179 C178 1.347 . S
C180 C183 1.365 . S
C180 N185 1.328 . S
C180 H186 0.929 . S
C181 C182 1.362 . S
C181 C184 1.378 . S
C181 H196 0.929 . S
C182 C181 1.362 . S
C182 C183 1.366 . S
C183 C180 1.365 . S
C183 C182 1.366 . S
C183 H197 0.930 . S
C184 C181 1.378 . S
C184 N185 1.315 . S
C184 H187 0.930 . S
N185 Co165 2.194 . S
N185 C180 1.328 . S
N185 C184 1.315 . S
H186 C180 0.929 . S
H187 C184 0.930 . S
H188 C176 0.929 . S
H189 C178 0.929 . S
O190 Co165 2.351 . S
O190 C193 1.244 . S
O191 Co165 2.155 . S
O191 C193 1.240 . S
O192 Co165 2.096 . S
O192 C173 1.247 . S
C193 O190 1.244 . S
C193 O191 1.240 . S
H194 C168 0.931 . S
H195 C177 0.931 . S
H196 C181 0.929 . S
H197 C183 0.930 . S
Co198 N202 2.148 . S
Co198 N208 2.128 1_545 S
Co198 N218 2.194 1_545 S
Co198 O223 2.351 1_545 S
Co198 O224 2.155 . S
Co198 O225 2.096 . S
C199 N202 1.301 . S
C199 N203 1.328 . S
C199 H204 0.930 . S
C200 C201 1.333 . S
C200 N202 1.317 . S
C200 H205 0.930 . S
C201 C200 1.333 . S
C201 N203 1.350 . S
C201 H227 0.931 . S
N202 Co198 2.148 . S
N202 C199 1.301 . S
N202 C200 1.317 . S
N203 C199 1.328 . S
N203 C201 1.350 . S
H204 C199 0.930 . S
H205 C200 0.930 . S
C206 O207 1.224 . S
C206 O225 1.247 . S
O207 C206 1.224 . S
N208 Co198 2.128 1_565 S
N208 C209 1.355 . S
N208 C211 1.311 1_565 S
C209 N208 1.355 . S
C209 C210 1.363 . S
C209 H221 0.929 . S
C210 C209 1.363 . S
C210 N212 1.375 . S
C210 H228 0.931 . S
C211 N208 1.311 1_545 S
C211 N212 1.347 1_545 S
C211 H222 0.929 . S
N212 C210 1.375 . S
N212 C211 1.347 1_565 S
C213 C216 1.365 . S
C213 N218 1.328 . S
C213 H219 0.929 . S
C214 C215 1.362 . S
C214 C217 1.378 . S
C214 H229 0.929 . S
C215 C214 1.362 . S
C215 C216 1.366 . S
C216 C213 1.365 . S
C216 C215 1.366 . S
C216 H230 0.930 . S
C217 C214 1.378 . S
C217 N218 1.315 . S
C217 H220 0.930 . S
N218 Co198 2.194 1_565 S
N218 C213 1.328 . S
N218 C217 1.315 . S
H219 C213 0.929 . S
H220 C217 0.930 . S
H221 C209 0.929 . S
H222 C211 0.929 . S
O223 Co198 2.351 1_565 S
O223 C226 1.244 1_565 S
O224 Co198 2.155 . S
O224 C226 1.240 . S
O225 Co198 2.096 . S
O225 C206 1.247 . S
C226 O223 1.244 1_545 S
C226 O224 1.240 . S
H227 C201 0.931 . S
H228 C210 0.931 . S
H229 C214 0.929 . S
H230 C216 0.930 . S
Co231 N235 2.148 . S
Co231 N241 2.128 . S
Co231 N251 2.194 . S
Co231 O256 2.351 . S
Co231 O257 2.155 . S
Co231 O258 2.096 . S
C232 N235 1.301 . S
C232 N236 1.328 . S
C232 H237 0.930 . S
C233 C234 1.333 . S
C233 N235 1.317 . S
C233 H238 0.930 . S
C234 C233 1.333 . S
C234 N236 1.350 . S
C234 H260 0.931 . S
N235 Co231 2.148 . S
N235 C232 1.301 . S
N235 C233 1.317 . S
N236 C232 1.328 . S
N236 C234 1.350 . S
H237 C232 0.930 . S
H238 C233 0.930 . S
C239 O240 1.224 . S
C239 O258 1.247 . S
O240 C239 1.224 . S
N241 Co231 2.128 . S
N241 C242 1.355 . S
N241 C244 1.311 . S
C242 N241 1.355 . S
C242 C243 1.363 . S
C242 H254 0.929 . S
C243 C242 1.363 . S
C243 N245 1.375 . S
C243 H261 0.931 . S
C244 N241 1.311 . S
C244 N245 1.347 . S
C244 H255 0.929 . S
N245 C243 1.375 . S
N245 C244 1.347 . S
C246 C249 1.365 . S
C246 N251 1.328 . S
C246 H252 0.929 . S
C247 C248 1.362 . S
C247 C250 1.378 . S
C247 H262 0.929 . S
C248 C247 1.362 . S
C248 C249 1.366 . S
C249 C246 1.365 . S
C249 C248 1.366 . S
C249 H263 0.930 . S
C250 C247 1.378 . S
C250 N251 1.315 . S
C250 H253 0.930 . S
N251 Co231 2.194 . S
N251 C246 1.328 . S
N251 C250 1.315 . S
H252 C246 0.929 . S
H253 C250 0.930 . S
H254 C242 0.929 . S
H255 C244 0.929 . S
O256 Co231 2.351 . S
O256 C259 1.244 . S
O257 Co231 2.155 . S
O257 C259 1.240 . S
O258 Co231 2.096 . S
O258 C239 1.247 . S
C259 O256 1.244 . S
C259 O257 1.240 . S
H260 C234 0.931 . S
H261 C243 0.931 . S
H262 C247 0.929 . S
H263 C249 0.930 . S
Co264 N268 2.148 . S
Co264 N274 2.128 1_655 S
Co264 N284 2.194 1_655 S
Co264 O289 2.351 1_655 S
Co264 O290 2.155 . S
Co264 O291 2.096 . S
C265 N268 1.301 . S
C265 N269 1.328 . S
C265 H270 0.930 . S
C266 C267 1.333 . S
C266 N268 1.317 . S
C266 H271 0.930 . S
C267 C266 1.333 . S
C267 N269 1.350 . S
C267 H293 0.931 . S
N268 Co264 2.148 . S
N268 C265 1.301 . S
N268 C266 1.317 . S
N269 C265 1.328 . S
N269 C267 1.350 . S
H270 C265 0.930 . S
H271 C266 0.930 . S
C272 O273 1.224 . S
C272 O291 1.247 . S
O273 C272 1.224 . S
N274 Co264 2.128 1_455 S
N274 C275 1.355 . S
N274 C277 1.311 1_455 S
C275 N274 1.355 . S
C275 C276 1.363 . S
C275 H287 0.929 . S
C276 C275 1.363 . S
C276 N278 1.375 . S
C276 H294 0.931 . S
C277 N274 1.311 1_655 S
C277 N278 1.347 1_655 S
C277 H288 0.929 . S
N278 C276 1.375 . S
N278 C277 1.347 1_455 S
C279 C282 1.365 . S
C279 N284 1.328 . S
C279 H285 0.929 . S
C280 C281 1.362 . S
C280 C283 1.378 . S
C280 H295 0.929 . S
C281 C280 1.362 . S
C281 C282 1.366 . S
C282 C279 1.365 . S
C282 C281 1.366 . S
C282 H296 0.930 . S
C283 C280 1.378 . S
C283 N284 1.315 . S
C283 H286 0.930 . S
N284 Co264 2.194 1_455 S
N284 C279 1.328 . S
N284 C283 1.315 . S
H285 C279 0.929 . S
H286 C283 0.930 . S
H287 C275 0.929 . S
H288 C277 0.929 . S
O289 Co264 2.351 1_455 S
O289 C292 1.244 1_455 S
O290 Co264 2.155 . S
O290 C292 1.240 . S
O291 Co264 2.096 . S
O291 C272 1.247 . S
C292 O289 1.244 1_655 S
C292 O290 1.240 . S
H293 C267 0.931 . S
H294 C276 0.931 . S
H295 C280 0.929 . S
H296 C282 0.930 . S
Co297 N301 2.148 . S
Co297 N307 2.128 1_565 S
Co297 N317 2.194 1_565 S
Co297 O322 2.351 1_565 S
Co297 O323 2.155 . S
Co297 O324 2.096 . S
C298 N301 1.301 . S
C298 N302 1.328 . S
C298 H303 0.930 . S
C299 C300 1.333 . S
C299 N301 1.317 . S
C299 H304 0.930 . S
C300 C299 1.333 . S
C300 N302 1.350 . S
C300 H326 0.931 . S
N301 Co297 2.148 . S
N301 C298 1.301 . S
N301 C299 1.317 . S
N302 C298 1.328 . S
N302 C300 1.350 . S
H303 C298 0.930 . S
H304 C299 0.930 . S
C305 O306 1.224 . S
C305 O324 1.247 . S
O306 C305 1.224 . S
N307 Co297 2.128 1_545 S
N307 C308 1.355 . S
N307 C310 1.311 1_545 S
C308 N307 1.355 . S
C308 C309 1.363 . S
C308 H320 0.929 . S
C309 C308 1.363 . S
C309 N311 1.375 . S
C309 H327 0.931 . S
C310 N307 1.311 1_565 S
C310 N311 1.347 1_565 S
C310 H321 0.929 . S
N311 C309 1.375 . S
N311 C310 1.347 1_545 S
C312 C315 1.365 . S
C312 N317 1.328 . S
C312 H318 0.929 . S
C313 C314 1.362 . S
C313 C316 1.378 . S
C313 H328 0.929 . S
C314 C313 1.362 . S
C314 C315 1.366 . S
C315 C312 1.365 . S
C315 C314 1.366 . S
C315 H329 0.930 . S
C316 C313 1.378 . S
C316 N317 1.315 . S
C316 H319 0.930 . S
N317 Co297 2.194 1_545 S
N317 C312 1.328 . S
N317 C316 1.315 . S
H318 C312 0.929 . S
H319 C316 0.930 . S
H320 C308 0.929 . S
H321 C310 0.929 . S
O322 Co297 2.351 1_545 S
O322 C325 1.244 1_545 S
O323 Co297 2.155 . S
O323 C325 1.240 . S
O324 Co297 2.096 . S
O324 C305 1.247 . S
C325 O322 1.244 1_565 S
C325 O323 1.240 . S
H326 C300 0.931 . S
H327 C309 0.931 . S
H328 C313 0.929 . S
H329 C315 0.930 . S
Co330 N334 2.148 . S
Co330 N340 2.128 . S
Co330 N350 2.194 . S
Co330 O355 2.351 . S
Co330 O356 2.155 . S
Co330 O357 2.096 . S
C331 N334 1.301 . S
C331 N335 1.328 . S
C331 H336 0.930 . S
C332 C333 1.333 . S
C332 N334 1.317 . S
C332 H337 0.930 . S
C333 C332 1.333 . S
C333 N335 1.350 . S
C333 H359 0.931 . S
N334 Co330 2.148 . S
N334 C331 1.301 . S
N334 C332 1.317 . S
N335 C331 1.328 . S
N335 C333 1.350 . S
H336 C331 0.930 . S
H337 C332 0.930 . S
C338 O339 1.224 . S
C338 O357 1.247 . S
O339 C338 1.224 . S
N340 Co330 2.128 . S
N340 C341 1.355 . S
N340 C343 1.311 . S
C341 N340 1.355 . S
C341 C342 1.363 . S
C341 H353 0.929 . S
C342 C341 1.363 . S
C342 N344 1.375 . S
C342 H360 0.931 . S
C343 N340 1.311 . S
C343 N344 1.347 . S
C343 H354 0.929 . S
N344 C342 1.375 . S
N344 C343 1.347 . S
C345 C348 1.365 . S
C345 N350 1.328 . S
C345 H351 0.929 . S
C346 C347 1.362 . S
C346 C349 1.378 . S
C346 H361 0.929 . S
C347 C346 1.362 . S
C347 C348 1.366 . S
C348 C345 1.365 . S
C348 C347 1.366 . S
C348 H362 0.930 . S
C349 C346 1.378 . S
C349 N350 1.315 . S
C349 H352 0.930 . S
N350 Co330 2.194 . S
N350 C345 1.328 . S
N350 C349 1.315 . S
H351 C345 0.929 . S
H352 C349 0.930 . S
H353 C341 0.929 . S
H354 C343 0.929 . S
O355 Co330 2.351 . S
O355 C358 1.244 . S
O356 Co330 2.155 . S
O356 C358 1.240 . S
O357 Co330 2.096 . S
O357 C338 1.247 . S
C358 O355 1.244 . S
C358 O356 1.240 . S
H359 C333 0.931 . S
H360 C342 0.931 . S
H361 C346 0.929 . S
H362 C348 0.930 . S
Co363 N367 2.148 . S
Co363 N373 2.128 1_455 S
Co363 N383 2.194 1_455 S
Co363 O388 2.351 1_455 S
Co363 O389 2.155 . S
Co363 O390 2.096 . S
C364 N367 1.301 . S
C364 N368 1.328 . S
C364 H369 0.930 . S
C365 C366 1.333 . S
C365 N367 1.317 . S
C365 H370 0.930 . S
C366 C365 1.333 . S
C366 N368 1.350 . S
C366 H392 0.931 . S
N367 Co363 2.148 . S
N367 C364 1.301 . S
N367 C365 1.317 . S
N368 C364 1.328 . S
N368 C366 1.350 . S
H369 C364 0.930 . S
H370 C365 0.930 . S
C371 O372 1.224 . S
C371 O390 1.247 . S
O372 C371 1.224 . S
N373 Co363 2.128 1_655 S
N373 C374 1.355 . S
N373 C376 1.311 1_655 S
C374 N373 1.355 . S
C374 C375 1.363 . S
C374 H386 0.929 . S
C375 C374 1.363 . S
C375 N377 1.375 . S
C375 H393 0.931 . S
C376 N373 1.311 1_455 S
C376 N377 1.347 1_455 S
C376 H387 0.929 . S
N377 C375 1.375 . S
N377 C376 1.347 1_655 S
C378 C381 1.365 . S
C378 N383 1.328 . S
C378 H384 0.929 . S
C379 C380 1.362 . S
C379 C382 1.378 . S
C379 H394 0.929 . S
C380 C379 1.362 . S
C380 C381 1.366 . S
C381 C378 1.365 . S
C381 C380 1.366 . S
C381 H395 0.930 . S
C382 C379 1.378 . S
C382 N383 1.315 . S
C382 H385 0.930 . S
N383 Co363 2.194 1_655 S
N383 C378 1.328 . S
N383 C382 1.315 . S
H384 C378 0.929 . S
H385 C382 0.930 . S
H386 C374 0.929 . S
H387 C376 0.929 . S
O388 Co363 2.351 1_655 S
O388 C391 1.244 1_655 S
O389 Co363 2.155 . S
O389 C391 1.240 . S
O390 Co363 2.096 . S
O390 C371 1.247 . S
C391 O388 1.244 1_455 S
C391 O389 1.240 . S
H392 C366 0.931 . S
H393 C375 0.931 . S
H394 C379 0.929 . S
H395 C381 0.930 . S
C396 C397 1.391 . S
C396 C398 1.394 . S
C396 H412 0.931 . S
C397 C396 1.391 . S
C397 C401 1.376 . S
C398 C396 1.394 . S
C398 C399 1.369 . S
C398 C402 1.531 1_565 S
C399 C398 1.369 . S
C399 C400 1.410 . S
C399 C407 1.503 1_566 S
C400 C399 1.410 . S
C400 C401 1.392 . S
C400 C403 1.511 1_556 S
C401 C397 1.376 . S
C401 C400 1.392 . S
C401 H413 0.929 . S
C402 C398 1.531 1_545 S
C402 H414 0.960 . S
C402 H415 0.962 . S
C402 H416 0.960 . S
C403 C400 1.511 1_554 S
C403 H417 0.961 . S
C403 H418 0.961 . S
C403 H419 0.961 1_554 S
C404 C405 1.370 . S
C404 C406 1.363 . S
C404 H420 0.931 . S
C405 C404 1.370 . S
C405 C409 1.408 . S
C406 C404 1.363 . S
C406 C407 1.370 . S
C406 C410 1.524 1_545 S
C407 C399 1.503 1_544 S
C407 C406 1.370 . S
C407 C408 1.385 1_554 S
C408 C407 1.385 1_556 S
C408 C409 1.360 1_556 S
C408 C411 1.601 . S
C409 C405 1.408 . S
C409 C408 1.360 1_554 S
C409 H421 0.930 . S
C410 C406 1.524 1_565 S
C410 H422 0.956 . S
C410 H423 0.961 . S
C410 H424 0.961 . S
C411 C408 1.601 . S
C411 H425 0.958 . S
C411 H426 0.961 . S
C411 H427 0.960 . S
H412 C396 0.931 . S
H413 C401 0.929 . S
H414 C402 0.960 . S
H415 C402 0.962 . S
H416 C402 0.960 . S
H417 C403 0.961 . S
H418 C403 0.961 . S
H419 C403 0.961 1_556 S
H420 C404 0.931 . S
H421 C409 0.930 . S
H422 C410 0.956 . S
H423 C410 0.961 . S
H424 C410 0.961 . S
H425 C411 0.958 . S
H426 C411 0.961 . S
H427 C411 0.960 . S
C428 C429 1.391 . S
C428 C430 1.394 . S
C428 H444 0.931 . S
C429 C428 1.391 . S
C429 C433 1.376 . S
C430 C428 1.394 . S
C430 C431 1.369 . S
C430 C434 1.531 . S
C431 C430 1.369 . S
C431 C432 1.410 . S
C431 C439 1.503 . S
C432 C431 1.410 . S
C432 C433 1.392 . S
C432 C435 1.511 . S
C433 C429 1.376 . S
C433 C432 1.392 . S
C433 H445 0.929 . S
C434 C430 1.531 . S
C434 H446 0.960 . S
C434 H447 0.962 . S
C434 H448 0.960 . S
C435 C432 1.511 . S
C435 H449 0.961 . S
C435 H450 0.961 . S
C435 H451 0.961 . S
C436 C437 1.370 . S
C436 C438 1.363 . S
C436 H452 0.931 . S
C437 C436 1.370 . S
C437 C441 1.408 . S
C438 C436 1.363 . S
C438 C439 1.370 . S
C438 C442 1.524 . S
C439 C431 1.503 . S
C439 C438 1.370 . S
C439 C440 1.403 . S
C440 C439 1.403 . S
C440 C441 1.404 . S
C440 C443 1.539 . S
C441 C437 1.408 . S
C441 C440 1.404 . S
C441 H453 0.930 . S
C442 C438 1.524 . S
C442 H454 0.956 . S
C442 H455 0.961 . S
C442 H456 0.961 . S
C443 C440 1.539 . S
C443 H457 0.958 . S
C443 H458 0.961 . S
C443 H459 0.960 . S
H444 C428 0.931 . S
H445 C433 0.929 . S
H446 C434 0.960 . S
H447 C434 0.962 . S
H448 C434 0.960 . S
H449 C435 0.961 . S
H450 C435 0.961 . S
H451 C435 0.961 . S
H452 C436 0.931 . S
H453 C441 0.930 . S
H454 C442 0.956 . S
H455 C442 0.961 . S
H456 C442 0.961 . S
H457 C443 0.958 . S
H458 C443 0.961 . S
H459 C443 0.960 . S
C460 C461 1.391 . S
C460 C462 1.394 . S
C460 H476 0.931 . S
C461 C460 1.391 . S
C461 C465 1.376 . S
C462 C460 1.394 . S
C462 C463 1.369 . S
C462 C466 1.531 . S
C463 C462 1.369 . S
C463 C464 1.410 . S
C463 C471 1.503 1_655 S
C464 C463 1.410 . S
C464 C465 1.392 . S
C464 C467 1.511 . S
C465 C461 1.376 . S
C465 C464 1.392 . S
C465 H477 0.929 . S
C466 C462 1.531 . S
C466 H478 0.948 1_655 S
C466 H479 0.969 . S
C466 H480 0.966 . S
C467 C464 1.511 . S
C467 H481 0.961 . S
C467 H482 0.961 . S
C467 H483 0.961 1_655 S
C468 C469 1.370 . S
C468 C470 1.363 . S
C468 H484 0.931 . S
C469 C468 1.370 . S
C469 C473 1.408 . S
C470 C468 1.363 . S
C470 C471 1.370 . S
C470 C474 1.524 1_455 S
C471 C463 1.503 1_455 S
C471 C470 1.370 . S
C471 C472 1.403 . S
C472 C471 1.403 . S
C472 C473 1.404 . S
C472 C475 1.539 . S
C473 C469 1.408 . S
C473 C472 1.404 . S
C473 H485 0.930 . S
C474 C470 1.524 1_655 S
C474 H486 0.956 . S
C474 H487 0.961 . S
C474 H488 0.961 . S
C475 C472 1.539 . S
C475 H489 0.958 . S
C475 H490 0.961 . S
C475 H491 0.960 . S
H476 C460 0.931 . S
H477 C465 0.929 . S
H478 C466 0.948 1_455 S
H479 C466 0.969 . S
H480 C466 0.966 . S
H481 C467 0.961 . S
H482 C467 0.961 . S
H483 C467 0.961 1_455 S
H484 C468 0.931 . S
H485 C473 0.930 . S
H486 C474 0.956 . S
H487 C474 0.961 . S
H488 C474 0.961 . S
H489 C475 0.958 . S
H490 C475 0.961 . S
H491 C475 0.960 . S
C492 C493 1.391 . S
C492 C494 1.394 . S
C492 H508 0.931 . S
C493 C492 1.391 . S
C493 C497 1.376 . S
C494 C492 1.394 . S
C494 C495 1.369 . S
C494 C498 1.531 . S
C495 C494 1.369 . S
C495 C496 1.410 . S
C495 C503 1.503 1_545 S
C496 C495 1.410 . S
C496 C497 1.392 . S
C496 C499 1.511 . S
C497 C493 1.376 . S
C497 C496 1.392 . S
C497 H509 0.929 . S
C498 C494 1.531 . S
C498 H510 0.960 1_545 S
C498 H511 0.962 . S
C498 H512 0.960 . S
C499 C496 1.511 . S
C499 H513 0.961 . S
C499 H514 0.965 . S
C499 H515 0.961 1_545 S
C500 C501 1.370 . S
C500 C502 1.363 . S
C500 H516 0.931 . S
C501 C500 1.370 . S
C501 C505 1.408 . S
C502 C500 1.363 . S
C502 C503 1.370 . S
C502 C506 1.524 1_565 S
C503 C495 1.503 1_565 S
C503 C502 1.370 . S
C503 C504 1.403 . S
C504 C503 1.403 . S
C504 C505 1.404 . S
C504 C507 1.539 . S
C505 C501 1.408 . S
C505 C504 1.404 . S
C505 H517 0.930 . S
C506 C502 1.524 1_545 S
C506 H518 0.956 . S
C506 H519 0.961 . S
C506 H520 0.961 . S
C507 C504 1.539 . S
C507 H521 0.958 . S
C507 H522 0.961 . S
C507 H523 0.960 . S
H508 C492 0.931 . S
H509 C497 0.929 . S
H510 C498 0.960 1_565 S
H511 C498 0.962 . S
H512 C498 0.960 . S
H513 C499 0.961 . S
H514 C499 0.965 . S
H515 C499 0.961 1_565 S
H516 C500 0.931 . S
H517 C505 0.930 . S
H518 C506 0.956 . S
H519 C506 0.961 . S
H520 C506 0.961 . S
H521 C507 0.958 . S
H522 C507 0.961 . S
H523 C507 0.960 . S
C524 C525 1.391 . S
C524 C526 1.394 . S
C524 H540 0.931 . S
C525 C524 1.391 . S
C525 C529 1.376 . S
C526 C524 1.394 . S
C526 C527 1.369 . S
C526 C530 1.531 . S
C527 C526 1.369 . S
C527 C528 1.410 . S
C527 C535 1.503 . S
C528 C527 1.410 . S
C528 C529 1.392 . S
C528 C531 1.511 . S
C529 C525 1.376 . S
C529 C528 1.392 . S
C529 H541 0.929 . S
C530 C526 1.531 . S
C530 H542 0.960 . S
C530 H543 0.962 . S
C530 H544 0.960 . S
C531 C528 1.511 . S
C531 H545 0.961 . S
C531 H546 0.961 . S
C531 H547 0.961 . S
C532 C533 1.370 . S
C532 C534 1.363 . S
C532 H548 0.931 . S
C533 C532 1.370 . S
C533 C537 1.408 . S
C534 C532 1.363 . S
C534 C535 1.370 . S
C534 C538 1.524 . S
C535 C527 1.503 . S
C535 C534 1.370 . S
C535 C536 1.403 . S
C536 C535 1.403 . S
C536 C537 1.404 . S
C536 C539 1.539 . S
C537 C533 1.408 . S
C537 C536 1.404 . S
C537 H549 0.930 . S
C538 C534 1.524 . S
C538 H550 0.956 . S
C538 H551 0.961 . S
C538 H552 0.961 . S
C539 C536 1.539 . S
C539 H553 0.958 . S
C539 H554 0.961 . S
C539 H555 0.960 . S
H540 C524 0.931 . S
H541 C529 0.929 . S
H542 C530 0.960 . S
H543 C530 0.962 . S
H544 C530 0.960 . S
H545 C531 0.961 . S
H546 C531 0.961 . S
H547 C531 0.961 . S
H548 C532 0.931 . S
H549 C537 0.930 . S
H550 C538 0.956 . S
H551 C538 0.961 . S
H552 C538 0.961 . S
H553 C539 0.958 . S
H554 C539 0.961 . S
H555 C539 0.960 . S
C556 C557 1.391 . S
C556 C558 1.394 . S
C556 H572 0.931 . S
C557 C556 1.391 . S
C557 C561 1.376 . S
C558 C556 1.394 . S
C558 C559 1.369 . S
C558 C562 1.531 . S
C559 C558 1.369 . S
C559 C560 1.410 . S
C559 C567 1.503 1_655 S
C560 C559 1.410 . S
C560 C561 1.392 . S
C560 C563 1.511 1_655 S
C561 C557 1.376 . S
C561 C560 1.392 . S
C561 H573 0.929 . S
C562 C558 1.531 . S
C562 H574 0.960 . S
C562 H575 0.962 . S
C562 H576 0.960 . S
C563 C560 1.511 1_455 S
C563 H577 0.961 . S
C563 H578 0.961 . S
C563 H579 0.961 . S
C564 C565 1.370 . S
C564 C566 1.363 . S
C564 H580 0.931 . S
C565 C564 1.370 . S
C565 C569 1.408 . S
C566 C564 1.363 . S
C566 C567 1.370 . S
C566 C570 1.524 . S
C567 C559 1.503 1_455 S
C567 C566 1.370 . S
C567 C568 1.403 . S
C568 C567 1.403 . S
C568 C569 1.404 . S
C568 C571 1.539 . S
C569 C565 1.408 . S
C569 C568 1.404 . S
C569 H581 0.930 . S
C570 C566 1.524 . S
C570 H582 0.956 1_455 S
C570 H583 0.961 . S
C570 H584 0.961 . S
C571 C568 1.539 . S
C571 H585 0.958 1_455 S
C571 H586 0.961 . S
C571 H587 0.960 . S
H572 C556 0.931 . S
H573 C561 0.929 . S
H574 C562 0.960 . S
H575 C562 0.962 . S
H576 C562 0.960 . S
H577 C563 0.961 . S
H578 C563 0.961 . S
H579 C563 0.961 . S
H580 C564 0.931 . S
H581 C569 0.930 . S
H582 C570 0.956 1_655 S
H583 C570 0.961 . S
H584 C570 0.961 . S
H585 C571 0.958 1_655 S
H586 C571 0.961 . S
H587 C571 0.960 . S
C588 C589 1.391 1_655 S
C588 C590 1.394 . S
C588 H604 0.931 . S
C589 C588 1.391 1_455 S
C589 C593 1.376 . S
C590 C588 1.394 . S
C590 C591 1.369 1_655 S
C590 C594 1.531 1_545 S
C591 C590 1.369 1_455 S
C591 C592 1.410 . S
C591 C599 1.503 1_545 S
C592 C591 1.410 . S
C592 C593 1.392 . S
C592 C595 1.511 . S
C593 C589 1.376 . S
C593 C592 1.392 . S
C593 H605 0.929 . S
C594 C590 1.531 1_565 S
C594 H606 0.960 . S
C594 H607 0.962 . S
C594 H608 0.960 . S
C595 C592 1.511 . S
C595 H609 0.961 . S
C595 H610 0.961 . S
C595 H611 0.961 . S
C596 C597 1.370 1_655 S
C596 C598 1.364 1_655 S
C596 H612 0.931 . S
C597 C596 1.370 1_455 S
C597 C601 1.408 . S
C598 C596 1.364 1_455 S
C598 C599 1.372 . S
C598 C602 1.521 1_465 S
C599 C591 1.503 1_565 S
C599 C598 1.372 . S
C599 C600 1.403 . S
C600 C599 1.403 . S
C600 C601 1.404 . S
C600 C603 1.539 . S
C601 C597 1.408 . S
C601 C600 1.404 . S
C601 H613 0.930 . S
C602 C598 1.521 1_645 S
C602 H614 0.956 1_545 S
C602 H615 0.961 . S
C602 H616 0.960 1_545 S
C603 C600 1.539 . S
C603 H617 0.958 . S
C603 H618 0.961 . S
C603 H619 0.960 1_565 S
H604 C588 0.931 . S
H605 C593 0.929 . S
H606 C594 0.960 . S
H607 C594 0.962 . S
H608 C594 0.960 . S
H609 C595 0.961 . S
H610 C595 0.961 . S
H611 C595 0.961 . S
H612 C596 0.931 . S
H613 C601 0.930 . S
H614 C602 0.956 1_565 S
H615 C602 0.961 . S
H616 C602 0.960 1_565 S
H617 C603 0.958 . S
H618 C603 0.961 . S
H619 C603 0.960 1_545 S
C620 C621 1.391 . S
C620 C622 1.394 1_655 S
C620 H636 0.931 . S
C621 C620 1.391 . S
C621 C625 1.376 1_545 S
C622 C620 1.394 1_455 S
C622 C623 1.369 1_455 S
C622 C626 1.531 . S
C623 C622 1.369 1_655 S
C623 C624 1.410 1_545 S
C623 C631 1.503 1_655 S
C624 C623 1.410 1_565 S
C624 C625 1.392 . S
C624 C627 1.511 . S
C625 C621 1.376 1_565 S
C625 C624 1.392 . S
C625 H637 0.929 . S
C626 C622 1.531 . S
C626 H638 0.960 . S
C626 H639 0.962 . S
C626 H640 0.960 . S
C627 C624 1.511 . S
C627 H641 0.961 . S
C627 H642 0.961 . S
C627 H643 0.961 . S
C628 C629 1.370 1_565 S
C628 C630 1.366 . S
C628 H644 0.931 . S
C629 C628 1.370 1_545 S
C629 C633 1.408 . S
C630 C628 1.366 . S
C630 C631 1.364 1_565 S
C630 C634 1.527 . S
C631 C623 1.503 1_455 S
C631 C630 1.364 1_545 S
C631 C632 1.403 . S
C632 C631 1.403 . S
C632 C633 1.404 . S
C632 C635 1.539 . S
C633 C629 1.408 . S
C633 C632 1.404 . S
C633 H645 0.930 . S
C634 C630 1.527 . S
C634 H646 0.956 . S
C634 H647 0.961 1_455 S
C634 H648 0.961 . S
C635 C632 1.539 . S
C635 H649 0.958 . S
C635 H650 0.961 . S
C635 H651 0.960 1_455 S
H636 C620 0.931 . S
H637 C625 0.929 . S
H638 C626 0.960 . S
H639 C626 0.962 . S
H640 C626 0.960 . S
H641 C627 0.961 . S
H642 C627 0.961 . S
H643 C627 0.961 . S
H644 C628 0.931 . S
H645 C633 0.930 . S
H646 C634 0.956 . S
H647 C634 0.961 1_655 S
H648 C634 0.961 . S
H649 C635 0.958 . S
H650 C635 0.961 . S
H651 C635 0.960 1_655 S
C652 C653 1.391 . S
C652 C654 1.394 . S
C652 H668 0.931 . S
C653 C652 1.391 . S
C653 C657 1.376 . S
C654 C652 1.394 . S
C654 C655 1.369 . S
C654 C658 1.530 1_455 S
C655 C654 1.369 . S
C655 C656 1.410 . S
C655 C663 1.503 1_445 S
C656 C655 1.410 . S
C656 C657 1.392 . S
C656 C659 1.511 1_545 S
C657 C653 1.376 . S
C657 C656 1.392 . S
C657 H669 0.929 . S
C658 C654 1.530 1_655 S
C658 H670 0.960 . S
C658 H671 0.963 . S
C658 H672 0.960 1_655 S
C659 C656 1.511 1_565 S
C659 H673 0.961 . S
C659 H674 0.961 . S
C659 H675 0.961 . S
C660 C661 1.370 . S
C660 C662 1.363 . S
C660 H676 0.931 . S
C661 C660 1.370 . S
C661 C665 1.408 . S
C662 C660 1.363 . S
C662 C663 1.370 . S
C662 C666 1.524 . S
C663 C655 1.503 1_665 S
C663 C662 1.370 . S
C663 C664 1.403 . S
C664 C663 1.403 . S
C664 C665 1.404 . S
C664 C667 1.539 1_665 S
C665 C661 1.408 . S
C665 C664 1.404 . S
C665 H677 0.930 . S
C666 C662 1.524 . S
C666 H678 0.956 1_565 S
C666 H679 0.961 . S
C666 H680 0.961 . S
C667 C664 1.539 1_445 S
C667 H681 0.958 . S
C667 H682 0.961 1_545 S
C667 H683 0.960 . S
H668 C652 0.931 . S
H669 C657 0.929 . S
H670 C658 0.960 . S
H671 C658 0.963 . S
H672 C658 0.960 1_455 S
H673 C659 0.961 . S
H674 C659 0.961 . S
H675 C659 0.961 . S
H676 C660 0.931 . S
H677 C665 0.930 . S
H678 C666 0.956 1_545 S
H679 C666 0.961 . S
H680 C666 0.961 . S
H681 C667 0.958 . S
H682 C667 0.961 1_565 S
H683 C667 0.960 . S
C684 C685 1.391 1_455 S
C684 C686 1.394 . S
C684 H700 0.931 . S
C685 C684 1.391 1_655 S
C685 C689 1.376 . S
C686 C684 1.394 . S
C686 C687 1.369 1_445 S
C686 C690 1.531 1_545 S
C687 C686 1.369 1_665 S
C687 C688 1.410 1_565 S
C687 C695 1.503 . S
C688 C687 1.410 1_545 S
C688 C689 1.392 . S
C688 C691 1.511 1_545 S
C689 C685 1.376 . S
C689 C688 1.392 . S
C689 H701 0.929 . S
C690 C686 1.531 1_565 S
C690 H702 0.960 . S
C690 H703 0.962 1_565 S
C690 H704 0.960 1_565 S
C691 C688 1.511 1_565 S
C691 H705 0.961 1_565 S
C691 H706 0.961 . S
C691 H707 0.961 . S
C692 C693 1.370 1_455 S
C692 C694 1.373 . S
C692 H708 0.931 . S
C693 C692 1.370 1_655 S
C693 C697 1.408 . S
C694 C692 1.373 . S
C694 C695 1.359 1_455 S
C694 C698 1.526 1_565 S
C695 C687 1.503 . S
C695 C694 1.359 1_655 S
C695 C696 1.403 . S
C696 C695 1.403 . S
C696 C697 1.404 . S
C696 C699 1.539 . S
C697 C693 1.408 . S
C697 C696 1.404 . S
C697 H709 0.930 . S
C698 C694 1.526 1_545 S
C698 H710 0.956 . S
C698 H711 0.961 . S
C698 H712 0.961 . S
C699 C696 1.539 . S
C699 H713 0.958 . S
C699 H714 0.961 . S
C699 H715 0.960 . S
H700 C684 0.931 . S
H701 C689 0.929 . S
H702 C690 0.960 . S
H703 C690 0.962 1_545 S
H704 C690 0.960 1_545 S
H705 C691 0.961 1_545 S
H706 C691 0.961 . S
H707 C691 0.961 . S
H708 C692 0.931 . S
H709 C697 0.930 . S
H710 C698 0.956 . S
H711 C698 0.961 . S
H712 C698 0.961 . S
H713 C699 0.958 . S
H714 C699 0.961 . S
H715 C699 0.960 . S
C716 C717 1.391 . S
C716 C718 1.394 1_455 S
C716 H732 0.931 . S
C717 C716 1.391 . S
C717 C721 1.376 1_565 S
C718 C716 1.394 1_655 S
C718 C719 1.369 1_655 S
C718 C722 1.531 . S
C719 C718 1.369 1_455 S
C719 C720 1.410 1_565 S
C719 C727 1.503 1_455 S
C720 C719 1.410 1_545 S
C720 C721 1.392 . S
C720 C723 1.511 . S
C721 C717 1.376 1_545 S
C721 C720 1.392 . S
C721 H733 0.929 . S
C722 C718 1.531 . S
C722 H734 0.960 . S
C722 H735 0.962 . S
C722 H736 0.960 . S
C723 C720 1.511 . S
C723 H737 0.961 . S
C723 H738 0.961 . S
C723 H739 0.961 . S
C724 C725 1.370 . S
C724 C726 1.363 . S
C724 H740 0.931 . S
C725 C724 1.370 . S
C725 C729 1.408 . S
C726 C724 1.363 . S
C726 C727 1.370 . S
C726 C730 1.524 1_565 S
C727 C719 1.503 1_655 S
C727 C726 1.370 . S
C727 C728 1.403 . S
C728 C727 1.403 . S
C728 C729 1.404 . S
C728 C731 1.535 1_655 S
C729 C725 1.408 . S
C729 C728 1.404 . S
C729 H741 0.930 . S
C730 C726 1.524 1_545 S
C730 H742 0.956 1_545 S
C730 H743 0.961 . S
C730 H744 0.961 . S
C731 C728 1.535 1_455 S
C731 H745 0.959 1_455 S
C731 H746 0.961 . S
C731 H747 0.964 . S
H732 C716 0.931 . S
H733 C721 0.929 . S
H734 C722 0.960 . S
H735 C722 0.962 . S
H736 C722 0.960 . S
H737 C723 0.961 . S
H738 C723 0.961 . S
H739 C723 0.961 . S
H740 C724 0.931 . S
H741 C729 0.930 . S
H742 C730 0.956 1_565 S
H743 C730 0.961 . S
H744 C730 0.961 . S
H745 C731 0.959 1_655 S
H746 C731 0.961 . S
H747 C731 0.964 . S
C748 C749 1.391 . S
C748 C750 1.394 . S
C748 H764 0.931 . S
C749 C748 1.391 . S
C749 C753 1.376 . S
C750 C748 1.394 . S
C750 C751 1.369 . S
C750 C754 1.531 1_665 S
C751 C750 1.369 . S
C751 C752 1.410 . S
C751 C759 1.503 1_665 S
C752 C751 1.410 . S
C752 C753 1.392 . S
C752 C755 1.511 . S
C753 C749 1.376 . S
C753 C752 1.392 . S
C753 H765 0.929 . S
C754 C750 1.531 1_445 S
C754 H766 0.960 . S
C754 H767 0.962 . S
C754 H768 0.960 . S
C755 C752 1.511 . S
C755 H769 0.961 . S
C755 H770 0.961 . S
C755 H771 0.961 1_655 S
C756 C757 1.370 . S
C756 C758 1.363 . S
C756 H772 0.931 . S
C757 C756 1.370 . S
C757 C761 1.408 . S
C758 C756 1.363 . S
C758 C759 1.370 . S
C758 C762 1.524 1_455 S
C759 C751 1.503 1_445 S
C759 C758 1.370 . S
C759 C760 1.403 . S
C760 C759 1.403 . S
C760 C761 1.404 . S
C760 C763 1.539 1_545 S
C761 C757 1.408 . S
C761 C760 1.404 . S
C761 H773 0.930 . S
C762 C758 1.524 1_655 S
C762 H774 0.956 . S
C762 H775 0.961 1_545 S
C762 H776 0.961 . S
C763 C760 1.539 1_565 S
C763 H777 0.958 1_565 S
C763 H778 0.961 . S
C763 H779 0.960 . S
H764 C748 0.931 . S
H765 C753 0.929 . S
H766 C754 0.960 . S
H767 C754 0.962 . S
H768 C754 0.960 . S
H769 C755 0.961 . S
H770 C755 0.961 . S
H771 C755 0.961 1_455 S
H772 C756 0.931 . S
H773 C761 0.930 . S
H774 C762 0.956 . S
H775 C762 0.961 1_565 S
H776 C762 0.961 . S
H777 C763 0.958 1_545 S
H778 C763 0.961 . S
H779 C763 0.960 . S
C780 C781 1.391 . S
C780 C782 1.394 . S
C780 H796 0.931 . S
C781 C780 1.391 . S
C781 C785 1.428 . S
C782 C780 1.394 . S
C782 C783 1.321 1_556 S
C782 C786 1.531 . S
C783 C782 1.321 1_554 S
C783 C784 1.433 . S
C783 C791 1.528 . S
C784 C783 1.433 . S
C784 C785 1.363 1_554 S
C784 C787 1.511 . S
C785 C781 1.428 . S
C785 C784 1.363 1_556 S
C785 H797 0.910 1_556 S
C786 C782 1.531 . S
C786 H798 0.960 . S
C786 H799 0.962 . S
C786 H800 0.960 . S
C787 C784 1.511 . S
C787 H801 0.961 . S
C787 H802 0.961 . S
C787 H803 0.961 . S
C788 C789 1.370 . S
C788 C790 1.371 . S
C788 H804 0.967 . S
C789 C788 1.370 . S
C789 C793 1.408 . S
C790 C788 1.371 . S
C790 C791 1.380 . S
C790 C794 1.507 1_554 S
C791 C783 1.528 . S
C791 C790 1.380 . S
C791 C792 1.403 . S
C792 C791 1.403 . S
C792 C793 1.404 . S
C792 C795 1.539 . S
C793 C789 1.408 . S
C793 C792 1.404 . S
C793 H805 0.930 . S
C794 C790 1.507 1_556 S
C794 H806 0.956 . S
C794 H807 0.961 . S
C794 H808 0.961 . S
C795 C792 1.539 . S
C795 H809 0.958 . S
C795 H810 0.961 . S
C795 H811 0.960 . S
H796 C780 0.931 . S
H797 C785 0.910 1_554 S
H798 C786 0.960 . S
H799 C786 0.962 . S
H800 C786 0.960 . S
H801 C787 0.961 . S
H802 C787 0.961 . S
H803 C787 0.961 . S
H804 C788 0.967 . S
H805 C793 0.930 . S
H806 C794 0.956 . S
H807 C794 0.961 . S
H808 C794 0.961 . S
H809 C795 0.958 . S
H810 C795 0.961 . S
H811 C795 0.960 . S
C812 C813 1.391 . S
C812 C814 1.394 . S
C812 H828 0.931 . S
C813 C812 1.391 . S
C813 C817 1.376 . S
C814 C812 1.394 . S
C814 C815 1.369 . S
C814 C818 1.531 . S
C815 C814 1.369 . S
C815 C816 1.410 . S
C815 C823 1.503 . S
C816 C815 1.410 . S
C816 C817 1.392 . S
C816 C819 1.511 . S
C817 C813 1.376 . S
C817 C816 1.392 . S
C817 H829 0.929 . S
C818 C814 1.531 . S
C818 H830 0.960 . S
C818 H831 0.962 . S
C818 H832 0.960 . S
C819 C816 1.511 . S
C819 H833 0.961 . S
C819 H834 0.961 . S
C819 H835 0.961 . S
C820 C821 1.370 . S
C820 C822 1.363 . S
C820 H836 0.931 . S
C821 C820 1.370 . S
C821 C825 1.408 . S
C822 C820 1.363 . S
C822 C823 1.370 . S
C822 C826 1.524 . S
C823 C815 1.503 . S
C823 C822 1.370 . S
C823 C824 1.403 . S
C824 C823 1.403 . S
C824 C825 1.404 . S
C824 C827 1.539 . S
C825 C821 1.408 . S
C825 C824 1.404 . S
C825 H837 0.930 . S
C826 C822 1.524 . S
C826 H838 0.956 . S
C826 H839 0.961 . S
C826 H840 0.961 . S
C827 C824 1.539 . S
C827 H841 0.958 . S
C827 H842 0.961 . S
C827 H843 0.960 . S
H828 C812 0.931 . S
H829 C817 0.929 . S
H830 C818 0.960 . S
H831 C818 0.962 . S
H832 C818 0.960 . S
H833 C819 0.961 . S
H834 C819 0.961 . S
H835 C819 0.961 . S
H836 C820 0.931 . S
H837 C825 0.930 . S
H838 C826 0.956 . S
H839 C826 0.961 . S
H840 C826 0.961 . S
H841 C827 0.958 . S
H842 C827 0.961 . S
H843 C827 0.960 . S
C844 C845 1.391 . S
C844 C846 1.394 . S
C844 H860 0.931 . S
C845 C844 1.391 . S
C845 C849 1.376 . S
C846 C844 1.394 . S
C846 C847 1.369 . S
C846 C850 1.531 . S
C847 C846 1.369 . S
C847 C848 1.410 . S
C847 C855 1.503 . S
C848 C847 1.410 . S
C848 C849 1.392 . S
C848 C851 1.511 . S
C849 C845 1.376 . S
C849 C848 1.392 . S
C849 H861 0.929 . S
C850 C846 1.531 . S
C850 H862 0.960 . S
C850 H863 0.962 . S
C850 H864 0.960 1_565 S
C851 C848 1.511 . S
C851 H865 0.961 . S
C851 H866 0.961 . S
C851 H867 0.961 . S
C852 C853 1.370 . S
C852 C854 1.363 . S
C852 H868 0.931 . S
C853 C852 1.370 . S
C853 C857 1.408 . S
C854 C852 1.363 . S
C854 C855 1.370 . S
C854 C858 1.524 . S
C855 C847 1.503 . S
C855 C854 1.370 . S
C855 C856 1.403 . S
C856 C855 1.403 . S
C856 C857 1.404 . S
C856 C859 1.539 . S
C857 C853 1.408 . S
C857 C856 1.404 . S
C857 H869 0.930 . S
C858 C854 1.524 . S
C858 H870 0.956 . S
C858 H871 0.961 . S
C858 H872 0.961 . S
C859 C856 1.539 . S
C859 H873 0.958 . S
C859 H874 0.961 . S
C859 H875 0.960 . S
H860 C844 0.931 . S
H861 C849 0.929 . S
H862 C850 0.960 . S
H863 C850 0.962 . S
H864 C850 0.960 1_545 S
H865 C851 0.961 . S
H866 C851 0.961 . S
H867 C851 0.961 . S
H868 C852 0.931 . S
H869 C857 0.930 . S
H870 C858 0.956 . S
H871 C858 0.961 . S
H872 C858 0.961 . S
H873 C859 0.958 . S
H874 C859 0.961 . S
H875 C859 0.960 . S
C876 C877 1.391 . S
C876 C878 1.394 . S
C876 H892 0.931 . S
C877 C876 1.391 . S
C877 C881 1.376 . S
C878 C876 1.394 . S
C878 C879 1.369 . S
C878 C882 1.531 . S
C879 C878 1.369 . S
C879 C880 1.410 . S
C879 C887 1.503 . S
C880 C879 1.410 . S
C880 C881 1.392 . S
C880 C883 1.511 . S
C881 C877 1.376 . S
C881 C880 1.392 . S
C881 H893 0.929 . S
C882 C878 1.531 . S
C882 H894 0.960 . S
C882 H895 0.962 . S
C882 H896 0.960 . S
C883 C880 1.511 . S
C883 H897 0.961 . S
C883 H898 0.961 . S
C883 H899 0.961 . S
C884 C885 1.370 . S
C884 C886 1.363 . S
C884 H900 0.931 . S
C885 C884 1.370 . S
C885 C889 1.408 . S
C886 C884 1.363 . S
C886 C887 1.370 . S
C886 C890 1.524 . S
C887 C879 1.503 . S
C887 C886 1.370 . S
C887 C888 1.403 . S
C888 C887 1.403 . S
C888 C889 1.404 . S
C888 C891 1.539 . S
C889 C885 1.408 . S
C889 C888 1.404 . S
C889 H901 0.930 . S
C890 C886 1.524 . S
C890 H902 0.956 . S
C890 H903 0.961 . S
C890 H904 0.961 . S
C891 C888 1.539 . S
C891 H905 0.958 . S
C891 H906 0.961 . S
C891 H907 0.960 . S
H892 C876 0.931 . S
H893 C881 0.929 . S
H894 C882 0.960 . S
H895 C882 0.962 . S
H896 C882 0.960 . S
H897 C883 0.961 . S
H898 C883 0.961 . S
H899 C883 0.961 . S
H900 C884 0.931 . S
H901 C889 0.930 . S
H902 C890 0.956 . S
H903 C890 0.961 . S
H904 C890 0.961 . S
H905 C891 0.958 . S
H906 C891 0.961 . S
H907 C891 0.960 . S
C908 C909 1.391 . S
C908 C910 1.394 . S
C908 H924 0.931 . S
C909 C908 1.391 . S
C909 C913 1.376 . S
C910 C908 1.394 . S
C910 C911 1.369 . S
C910 C914 1.531 . S
C911 C910 1.369 . S
C911 C912 1.410 . S
C911 C919 1.503 . S
C912 C911 1.410 . S
C912 C913 1.392 . S
C912 C915 1.511 . S
C913 C909 1.376 . S
C913 C912 1.392 . S
C913 H925 0.929 . S
C914 C910 1.531 . S
C914 H926 0.960 . S
C914 H927 0.962 . S
C914 H928 0.960 . S
C915 C912 1.511 . S
C915 H929 0.961 1_455 S
C915 H930 0.961 . S
C915 H931 0.961 . S
C916 C917 1.370 . S
C916 C918 1.363 . S
C916 H932 0.931 . S
C917 C916 1.370 . S
C917 C921 1.408 . S
C918 C916 1.363 . S
C918 C919 1.370 . S
C918 C922 1.524 . S
C919 C911 1.503 . S
C919 C918 1.370 . S
C919 C920 1.403 . S
C920 C919 1.403 . S
C920 C921 1.404 . S
C920 C923 1.539 . S
C921 C917 1.408 . S
C921 C920 1.404 . S
C921 H933 0.930 . S
C922 C918 1.524 . S
C922 H934 0.956 . S
C922 H935 0.961 . S
C922 H936 0.961 . S
C923 C920 1.539 . S
C923 H937 0.958 . S
C923 H938 0.961 . S
C923 H939 0.960 . S
H924 C908 0.931 . S
H925 C913 0.929 . S
H926 C914 0.960 . S
H927 C914 0.962 . S
H928 C914 0.960 . S
H929 C915 0.961 1_655 S
H930 C915 0.961 . S
H931 C915 0.961 . S
H932 C916 0.931 . S
H933 C921 0.930 . S
H934 C922 0.956 . S
H935 C922 0.961 . S
H936 C922 0.961 . S
H937 C923 0.958 . S
H938 C923 0.961 . S
H939 C923 0.960 . S
C940 C941 1.391 . S
C940 C942 1.394 . S
C940 H956 0.931 . S
C941 C940 1.391 . S
C941 C945 1.376 . S
C942 C940 1.394 . S
C942 C943 1.369 . S
C942 C946 1.531 . S
C943 C942 1.369 . S
C943 C944 1.410 . S
C943 C951 1.503 . S
C944 C943 1.410 . S
C944 C945 1.392 . S
C944 C947 1.511 . S
C945 C941 1.376 . S
C945 C944 1.392 . S
C945 H957 0.929 . S
C946 C942 1.531 . S
C946 H958 0.960 . S
C946 H959 0.962 . S
C946 H960 0.960 . S
C947 C944 1.511 . S
C947 H961 0.961 . S
C947 H962 0.961 . S
C947 H963 0.961 . S
C948 C949 1.370 . S
C948 C950 1.363 . S
C948 H964 0.931 . S
C949 C948 1.370 . S
C949 C953 1.408 . S
C950 C948 1.363 . S
C950 C951 1.370 . S
C950 C954 1.524 . S
C951 C943 1.503 . S
C951 C950 1.370 . S
C951 C952 1.403 . S
C952 C951 1.403 . S
C952 C953 1.404 . S
C952 C955 1.539 . S
C953 C949 1.408 . S
C953 C952 1.404 . S
C953 H965 0.930 . S
C954 C950 1.524 . S
C954 H966 0.956 . S
C954 H967 0.961 . S
C954 H968 0.961 . S
C955 C952 1.539 . S
C955 H969 0.958 . S
C955 H970 0.961 . S
C955 H971 0.960 . S
H956 C940 0.931 . S
H957 C945 0.929 . S
H958 C946 0.960 . S
H959 C946 0.962 . S
H960 C946 0.960 . S
H961 C947 0.961 . S
H962 C947 0.961 . S
H963 C947 0.961 . S
H964 C948 0.931 . S
H965 C953 0.930 . S
H966 C954 0.956 . S
H967 C954 0.961 . S
H968 C954 0.961 . S
H969 C955 0.958 . S
H970 C955 0.961 . S
H971 C955 0.960 . S
C972 C973 1.391 . S
C972 C974 1.394 . S
C972 H988 0.931 . S
C973 C972 1.391 . S
C973 C977 1.376 . S
C974 C972 1.394 . S
C974 C975 1.369 . S
C974 C978 1.531 . S
C975 C974 1.369 . S
C975 C976 1.410 . S
C975 C983 1.503 . S
C976 C975 1.410 . S
C976 C977 1.392 . S
C976 C979 1.511 . S
C977 C973 1.376 . S
C977 C976 1.392 . S
C977 H989 0.929 . S
C978 C974 1.531 . S
C978 H990 0.960 . S
C978 H991 0.962 . S
C978 H992 0.960 . S
C979 C976 1.511 . S
C979 H993 0.961 . S
C979 H994 0.961 . S
C979 H995 0.961 . S
C980 C981 1.370 . S
C980 C982 1.363 . S
C980 H996 0.931 . S
C981 C980 1.370 . S
C981 C985 1.408 . S
C982 C980 1.363 . S
C982 C983 1.370 . S
C982 C986 1.524 . S
C983 C975 1.503 . S
C983 C982 1.370 . S
C983 C984 1.403 . S
C984 C983 1.403 . S
C984 C985 1.404 . S
C984 C987 1.539 . S
C985 C981 1.408 . S
C985 C984 1.404 . S
C985 H997 0.930 . S
C986 C982 1.524 . S
C986 H998 0.956 . S
C986 H999 0.961 . S
C986 H1000 0.961 . S
C987 C984 1.539 . S
C987 H1001 0.958 . S
C987 H1002 0.961 . S
C987 H1003 0.960 . S
H988 C972 0.931 . S
H989 C977 0.929 . S
H990 C978 0.960 . S
H991 C978 0.962 . S
H992 C978 0.960 . S
H993 C979 0.961 . S
H994 C979 0.961 . S
H995 C979 0.961 . S
H996 C980 0.931 . S
H997 C985 0.930 . S
H998 C986 0.956 . S
H999 C986 0.961 . S
H1000 C986 0.961 . S
H1001 C987 0.958 . S
H1002 C987 0.961 . S
H1003 C987 0.960 . S
C1004 C1005 1.391 1_556 S
C1004 C1006 1.394 . S
C1004 H1020 0.931 . S
C1005 C1004 1.391 1_554 S
C1005 C1009 1.376 . S
C1006 C1004 1.394 . S
C1006 C1007 1.369 1_556 S
C1006 C1010 1.531 . S
C1007 C1006 1.369 1_554 S
C1007 C1008 1.410 . S
C1007 C1015 1.503 1_554 S
C1008 C1007 1.410 . S
C1008 C1009 1.392 . S
C1008 C1011 1.511 . S
C1009 C1005 1.376 . S
C1009 C1008 1.392 . S
C1009 H1021 0.929 . S
C1010 C1006 1.531 . S
C1010 H1022 0.960 . S
C1010 H1023 0.962 . S
C1010 H1024 0.960 . S
C1011 C1008 1.511 . S
C1011 H1025 0.961 . S
C1011 H1026 0.961 . S
C1011 H1027 0.961 . S
C1012 C1013 1.370 . S
C1012 C1014 1.363 . S
C1012 H1028 0.931 . S
C1013 C1012 1.370 . S
C1013 C1017 1.408 . S
C1014 C1012 1.363 . S
C1014 C1015 1.370 . S
C1014 C1018 1.524 . S
C1015 C1007 1.503 1_556 S
C1015 C1014 1.370 . S
C1015 C1016 1.403 . S
C1016 C1015 1.403 . S
C1016 C1017 1.404 . S
C1016 C1019 1.539 . S
C1017 C1013 1.408 . S
C1017 C1016 1.404 . S
C1017 H1029 0.930 . S
C1018 C1014 1.524 . S
C1018 H1030 0.956 . S
C1018 H1031 0.961 1_556 S
C1018 H1032 0.961 . S
C1019 C1016 1.539 . S
C1019 H1033 0.958 . S
C1019 H1034 0.967 . S
C1019 H1035 0.960 1_556 S
H1020 C1004 0.931 . S
H1021 C1009 0.929 . S
H1022 C1010 0.960 . S
H1023 C1010 0.962 . S
H1024 C1010 0.960 . S
H1025 C1011 0.961 . S
H1026 C1011 0.961 . S
H1027 C1011 0.961 . S
H1028 C1012 0.931 . S
H1029 C1017 0.930 . S
H1030 C1018 0.956 . S
H1031 C1018 0.961 1_554 S
H1032 C1018 0.961 . S
H1033 C1019 0.958 . S
H1034 C1019 0.967 . S
H1035 C1019 0.960 1_554 S
C1036 C1037 1.391 . S
C1036 C1038 1.394 . S
C1036 H1052 0.931 . S
C1037 C1036 1.391 . S
C1037 C1041 1.376 . S
C1038 C1036 1.394 . S
C1038 C1039 1.369 . S
C1038 C1042 1.531 . S
C1039 C1038 1.369 . S
C1039 C1040 1.410 . S
C1039 C1047 1.503 . S
C1040 C1039 1.410 . S
C1040 C1041 1.392 . S
C1040 C1043 1.511 . S
C1041 C1037 1.376 . S
C1041 C1040 1.392 . S
C1041 H1053 0.929 . S
C1042 C1038 1.531 . S
C1042 H1054 0.960 . S
C1042 H1055 0.962 . S
C1042 H1056 0.960 . S
C1043 C1040 1.511 . S
C1043 H1057 0.961 1_565 S
C1043 H1058 0.961 . S
C1043 H1059 0.961 . S
C1044 C1045 1.370 . S
C1044 C1046 1.363 . S
C1044 H1060 0.931 . S
C1045 C1044 1.370 . S
C1045 C1049 1.408 . S
C1046 C1044 1.363 . S
C1046 C1047 1.370 . S
C1046 C1050 1.524 . S
C1047 C1039 1.503 . S
C1047 C1046 1.370 . S
C1047 C1048 1.403 . S
C1048 C1047 1.403 . S
C1048 C1049 1.404 . S
C1048 C1051 1.539 . S
C1049 C1045 1.408 . S
C1049 C1048 1.404 . S
C1049 H1061 0.930 . S
C1050 C1046 1.524 . S
C1050 H1062 0.956 . S
C1050 H1063 0.961 . S
C1050 H1064 0.961 . S
C1051 C1048 1.539 . S
C1051 H1065 0.958 . S
C1051 H1066 0.961 . S
C1051 H1067 0.960 . S
H1052 C1036 0.931 . S
H1053 C1041 0.929 . S
H1054 C1042 0.960 . S
H1055 C1042 0.962 . S
H1056 C1042 0.960 . S
H1057 C1043 0.961 1_545 S
H1058 C1043 0.961 . S
H1059 C1043 0.961 . S
H1060 C1044 0.931 . S
H1061 C1049 0.930 . S
H1062 C1050 0.956 . S
H1063 C1050 0.961 . S
H1064 C1050 0.961 . S
H1065 C1051 0.958 . S
H1066 C1051 0.961 . S
H1067 C1051 0.960 . S
C1068 C1069 1.391 . S
C1068 C1070 1.394 . S
C1068 H1084 0.931 . S
C1069 C1068 1.391 . S
C1069 C1073 1.376 . S
C1070 C1068 1.394 . S
C1070 C1071 1.369 . S
C1070 C1074 1.531 . S
C1071 C1070 1.369 . S
C1071 C1072 1.410 . S
C1071 C1079 1.503 . S
C1072 C1071 1.410 . S
C1072 C1073 1.392 . S
C1072 C1075 1.511 . S
C1073 C1069 1.376 . S
C1073 C1072 1.392 . S
C1073 H1085 0.929 . S
C1074 C1070 1.531 . S
C1074 H1086 0.960 . S
C1074 H1087 0.962 . S
C1074 H1088 0.960 . S
C1075 C1072 1.511 . S
C1075 H1089 0.961 . S
C1075 H1090 0.961 . S
C1075 H1091 0.961 . S
C1076 C1077 1.370 . S
C1076 C1078 1.363 . S
C1076 H1092 0.931 . S
C1077 C1076 1.370 . S
C1077 C1081 1.408 . S
C1078 C1076 1.363 . S
C1078 C1079 1.370 . S
C1078 C1082 1.524 . S
C1079 C1071 1.503 . S
C1079 C1078 1.370 . S
C1079 C1080 1.403 . S
C1080 C1079 1.403 . S
C1080 C1081 1.404 . S
C1080 C1083 1.539 . S
C1081 C1077 1.408 . S
C1081 C1080 1.404 . S
C1081 H1093 0.930 . S
C1082 C1078 1.524 . S
C1082 H1094 0.956 . S
C1082 H1095 0.961 . S
C1082 H1096 0.961 . S
C1083 C1080 1.539 . S
C1083 H1097 0.958 . S
C1083 H1098 0.961 . S
C1083 H1099 0.960 . S
H1084 C1068 0.931 . S
H1085 C1073 0.929 . S
H1086 C1074 0.960 . S
H1087 C1074 0.962 . S
H1088 C1074 0.960 . S
H1089 C1075 0.961 . S
H1090 C1075 0.961 . S
H1091 C1075 0.961 . S
H1092 C1076 0.931 . S
H1093 C1081 0.930 . S
H1094 C1082 0.956 . S
H1095 C1082 0.961 . S
H1096 C1082 0.961 . S
H1097 C1083 0.958 . S
H1098 C1083 0.961 . S
H1099 C1083 0.960 . S
C1100 C1101 1.391 . S
C1100 C1102 1.394 . S
C1100 H1116 0.931 . S
C1101 C1100 1.391 . S
C1101 C1105 1.376 . S
C1102 C1100 1.394 . S
C1102 C1103 1.369 . S
C1102 C1106 1.531 . S
C1103 C1102 1.369 . S
C1103 C1104 1.410 . S
C1103 C1111 1.503 . S
C1104 C1103 1.410 . S
C1104 C1105 1.392 . S
C1104 C1107 1.511 . S
C1105 C1101 1.376 . S
C1105 C1104 1.392 . S
C1105 H1117 0.929 . S
C1106 C1102 1.531 . S
C1106 H1118 0.960 . S
C1106 H1119 0.962 . S
C1106 H1120 0.960 . S
C1107 C1104 1.511 . S
C1107 H1121 0.961 . S
C1107 H1122 0.961 . S
C1107 H1123 0.961 . S
C1108 C1109 1.370 . S
C1108 C1110 1.363 . S
C1108 H1124 0.931 . S
C1109 C1108 1.370 . S
C1109 C1113 1.408 . S
C1110 C1108 1.363 . S
C1110 C1111 1.370 . S
C1110 C1114 1.524 . S
C1111 C1103 1.503 . S
C1111 C1110 1.370 . S
C1111 C1112 1.403 . S
C1112 C1111 1.403 . S
C1112 C1113 1.404 . S
C1112 C1115 1.539 . S
C1113 C1109 1.408 . S
C1113 C1112 1.404 . S
C1113 H1125 0.930 . S
C1114 C1110 1.524 . S
C1114 H1126 0.956 . S
C1114 H1127 0.961 . S
C1114 H1128 0.961 . S
C1115 C1112 1.539 . S
C1115 H1129 0.958 . S
C1115 H1130 0.961 . S
C1115 H1131 0.960 . S
H1116 C1100 0.931 . S
H1117 C1105 0.929 . S
H1118 C1106 0.960 . S
H1119 C1106 0.962 . S
H1120 C1106 0.960 . S
H1121 C1107 0.961 . S
H1122 C1107 0.961 . S
H1123 C1107 0.961 . S
H1124 C1108 0.931 . S
H1125 C1113 0.930 . S
H1126 C1114 0.956 . S
H1127 C1114 0.961 . S
H1128 C1114 0.961 . S
H1129 C1115 0.958 . S
H1130 C1115 0.961 . S
H1131 C1115 0.960 . S
C1132 C1133 1.391 . S
C1132 C1134 1.394 . S
C1132 H1148 0.931 . S
C1133 C1132 1.391 . S
C1133 C1137 1.376 . S
C1134 C1132 1.394 . S
C1134 C1135 1.369 . S
C1134 C1138 1.531 . S
C1135 C1134 1.369 . S
C1135 C1136 1.410 . S
C1135 C1143 1.503 . S
C1136 C1135 1.410 . S
C1136 C1137 1.392 . S
C1136 C1139 1.511 . S
C1137 C1133 1.376 . S
C1137 C1136 1.392 . S
C1137 H1149 0.929 . S
C1138 C1134 1.531 . S
C1138 H1150 0.960 . S
C1138 H1151 0.962 . S
C1138 H1152 0.960 . S
C1139 C1136 1.511 . S
C1139 H1153 0.961 . S
C1139 H1154 0.961 . S
C1139 H1155 0.961 . S
C1140 C1141 1.370 . S
C1140 C1142 1.363 . S
C1140 H1156 0.931 . S
C1141 C1140 1.370 . S
C1141 C1145 1.408 . S
C1142 C1140 1.363 . S
C1142 C1143 1.370 . S
C1142 C1146 1.524 . S
C1143 C1135 1.503 . S
C1143 C1142 1.370 . S
C1143 C1144 1.403 . S
C1144 C1143 1.403 . S
C1144 C1145 1.404 . S
C1144 C1147 1.539 . S
C1145 C1141 1.408 . S
C1145 C1144 1.404 . S
C1145 H1157 0.930 . S
C1146 C1142 1.524 . S
C1146 H1158 0.956 . S
C1146 H1159 0.961 . S
C1146 H1160 0.961 . S
C1147 C1144 1.539 . S
C1147 H1161 0.958 . S
C1147 H1162 0.961 . S
C1147 H1163 0.960 . S
H1148 C1132 0.931 . S
H1149 C1137 0.929 . S
H1150 C1138 0.960 . S
H1151 C1138 0.962 . S
H1152 C1138 0.960 . S
H1153 C1139 0.961 . S
H1154 C1139 0.961 . S
H1155 C1139 0.961 . S
H1156 C1140 0.931 . S
H1157 C1145 0.930 . S
H1158 C1146 0.956 . S
H1159 C1146 0.961 . S
H1160 C1146 0.961 . S
H1161 C1147 0.958 . S
H1162 C1147 0.961 . S
H1163 C1147 0.960 . S
C1164 C1165 1.391 . S
C1164 C1166 1.394 . S
C1164 H1180 0.931 . S
C1165 C1164 1.391 . S
C1165 C1169 1.376 . S
C1166 C1164 1.394 . S
C1166 C1167 1.369 . S
C1166 C1170 1.531 . S
C1167 C1166 1.369 . S
C1167 C1168 1.410 . S
C1167 C1175 1.503 . S
C1168 C1167 1.410 . S
C1168 C1169 1.392 . S
C1168 C1171 1.511 . S
C1169 C1165 1.376 . S
C1169 C1168 1.392 . S
C1169 H1181 0.929 . S
C1170 C1166 1.531 . S
C1170 H1182 0.960 . S
C1170 H1183 0.962 1_655 S
C1170 H1184 0.960 . S
C1171 C1168 1.511 . S
C1171 H1185 0.961 . S
C1171 H1186 0.961 . S
C1171 H1187 0.961 . S
C1172 C1173 1.370 . S
C1172 C1174 1.363 . S
C1172 H1188 0.931 1_655 S
C1173 C1172 1.370 . S
C1173 C1177 1.408 . S
C1174 C1172 1.363 . S
C1174 C1175 1.370 . S
C1174 C1178 1.524 1_655 S
C1175 C1167 1.503 . S
C1175 C1174 1.370 . S
C1175 C1176 1.403 . S
C1176 C1175 1.403 . S
C1176 C1177 1.404 . S
C1176 C1179 1.539 . S
C1177 C1173 1.408 . S
C1177 C1176 1.404 . S
C1177 H1189 0.930 . S
C1178 C1174 1.524 1_455 S
C1178 H1190 0.956 . S
C1178 H1191 0.961 . S
C1178 H1192 0.961 . S
C1179 C1176 1.539 . S
C1179 H1193 0.958 . S
C1179 H1194 0.961 . S
C1179 H1195 0.960 . S
H1180 C1164 0.931 . S
H1181 C1169 0.929 . S
H1182 C1170 0.960 . S
H1183 C1170 0.962 1_455 S
H1184 C1170 0.960 . S
H1185 C1171 0.961 . S
H1186 C1171 0.961 . S
H1187 C1171 0.961 . S
H1188 C1172 0.931 1_455 S
H1189 C1177 0.930 . S
H1190 C1178 0.956 . S
H1191 C1178 0.961 . S
H1192 C1178 0.961 . S
H1193 C1179 0.958 . S
H1194 C1179 0.961 . S
H1195 C1179 0.960 . S
C1196 C1197 1.391 . S
C1196 C1198 1.394 . S
C1196 H1212 0.931 . S
C1197 C1196 1.391 . S
C1197 C1201 1.376 . S
C1198 C1196 1.394 . S
C1198 C1199 1.369 . S
C1198 C1202 1.531 . S
C1199 C1198 1.369 . S
C1199 C1200 1.410 . S
C1199 C1207 1.503 . S
C1200 C1199 1.410 . S
C1200 C1201 1.392 . S
C1200 C1203 1.505 1_565 S
C1201 C1197 1.376 . S
C1201 C1200 1.392 . S
C1201 H1213 0.929 . S
C1202 C1198 1.531 . S
C1202 H1214 0.960 . S
C1202 H1215 0.962 . S
C1202 H1216 0.960 . S
C1203 C1200 1.505 1_545 S
C1203 H1217 0.967 . S
C1203 H1218 0.975 . S
C1203 H1219 0.947 1_545 S
C1204 C1205 1.370 . S
C1204 C1206 1.363 . S
C1204 H1220 0.931 1_565 S
C1205 C1204 1.370 . S
C1205 C1209 1.408 . S
C1206 C1204 1.363 . S
C1206 C1207 1.370 . S
C1206 C1210 1.524 1_565 S
C1207 C1199 1.503 . S
C1207 C1206 1.370 . S
C1207 C1208 1.403 . S
C1208 C1207 1.403 . S
C1208 C1209 1.404 . S
C1208 C1211 1.539 . S
C1209 C1205 1.408 . S
C1209 C1208 1.404 . S
C1209 H1221 0.930 . S
C1210 C1206 1.524 1_545 S
C1210 H1222 0.956 . S
C1210 H1223 0.961 . S
C1210 H1224 0.961 . S
C1211 C1208 1.539 . S
C1211 H1225 0.958 . S
C1211 H1226 0.961 . S
C1211 H1227 0.960 . S
H1212 C1196 0.931 . S
H1213 C1201 0.929 . S
H1214 C1202 0.960 . S
H1215 C1202 0.962 . S
H1216 C1202 0.960 . S
H1217 C1203 0.967 . S
H1218 C1203 0.975 . S
H1219 C1203 0.947 1_565 S
H1220 C1204 0.931 1_545 S
H1221 C1209 0.930 . S
H1222 C1210 0.956 . S
H1223 C1210 0.961 . S
H1224 C1210 0.961 . S
H1225 C1211 0.958 . S
H1226 C1211 0.961 . S
H1227 C1211 0.960 . S
C1228 C1229 1.391 . S
C1228 C1230 1.394 . S
C1228 H1244 0.931 . S
C1229 C1228 1.391 . S
C1229 C1233 1.376 . S
C1230 C1228 1.394 . S
C1230 C1231 1.369 . S
C1230 C1234 1.531 . S
C1231 C1230 1.369 . S
C1231 C1232 1.410 . S
C1231 C1239 1.503 . S
C1232 C1231 1.410 . S
C1232 C1233 1.392 . S
C1232 C1235 1.511 . S
C1233 C1229 1.376 . S
C1233 C1232 1.392 . S
C1233 H1245 0.929 . S
C1234 C1230 1.531 . S
C1234 H1246 0.960 . S
C1234 H1247 0.962 . S
C1234 H1248 0.960 . S
C1235 C1232 1.511 . S
C1235 H1249 0.961 . S
C1235 H1250 0.961 . S
C1235 H1251 0.961 . S
C1236 C1237 1.370 . S
C1236 C1238 1.363 . S
C1236 H1252 0.931 . S
C1237 C1236 1.370 . S
C1237 C1241 1.408 . S
C1238 C1236 1.363 . S
C1238 C1239 1.370 . S
C1238 C1242 1.524 . S
C1239 C1231 1.503 . S
C1239 C1238 1.370 . S
C1239 C1240 1.403 . S
C1240 C1239 1.403 . S
C1240 C1241 1.404 . S
C1240 C1243 1.539 . S
C1241 C1237 1.408 . S
C1241 C1240 1.404 . S
C1241 H1253 0.930 . S
C1242 C1238 1.524 . S
C1242 H1254 0.956 . S
C1242 H1255 0.961 . S
C1242 H1256 0.961 . S
C1243 C1240 1.539 . S
C1243 H1257 0.958 . S
C1243 H1258 0.961 . S
C1243 H1259 0.960 . S
H1244 C1228 0.931 . S
H1245 C1233 0.929 . S
H1246 C1234 0.960 . S
H1247 C1234 0.962 . S
H1248 C1234 0.960 . S
H1249 C1235 0.961 . S
H1250 C1235 0.961 . S
H1251 C1235 0.961 . S
H1252 C1236 0.931 . S
H1253 C1241 0.930 . S
H1254 C1242 0.956 . S
H1255 C1242 0.961 . S
H1256 C1242 0.961 . S
H1257 C1243 0.958 . S
H1258 C1243 0.961 . S
H1259 C1243 0.960 . S
C1260 C1261 1.391 . S
C1260 C1262 1.394 . S
C1260 H1276 0.931 . S
C1261 C1260 1.391 . S
C1261 C1265 1.376 . S
C1262 C1260 1.394 . S
C1262 C1263 1.369 . S
C1262 C1266 1.531 . S
C1263 C1262 1.369 . S
C1263 C1264 1.410 . S
C1263 C1271 1.503 . S
C1264 C1263 1.410 . S
C1264 C1265 1.392 . S
C1264 C1267 1.511 1_455 S
C1265 C1261 1.376 . S
C1265 C1264 1.392 . S
C1265 H1277 0.929 1_455 S
C1266 C1262 1.531 . S
C1266 H1278 0.960 . S
C1266 H1279 0.962 . S
C1266 H1280 0.960 . S
C1267 C1264 1.511 1_655 S
C1267 H1281 0.961 . S
C1267 H1282 0.961 . S
C1267 H1283 0.961 . S
C1268 C1269 1.370 . S
C1268 C1270 1.363 . S
C1268 H1284 0.931 . S
C1269 C1268 1.370 . S
C1269 C1273 1.417 . S
C1270 C1268 1.363 . S
C1270 C1271 1.370 . S
C1270 C1274 1.524 . S
C1271 C1263 1.503 . S
C1271 C1270 1.370 . S
C1271 C1272 1.403 1_455 S
C1272 C1271 1.403 1_655 S
C1272 C1273 1.400 1_655 S
C1272 C1275 1.539 . S
C1273 C1269 1.417 . S
C1273 C1272 1.400 1_455 S
C1273 H1285 0.925 1_455 S
C1274 C1270 1.524 . S
C1274 H1286 0.956 . S
C1274 H1287 0.961 . S
C1274 H1288 0.961 . S
C1275 C1272 1.539 . S
C1275 H1289 0.958 . S
C1275 H1290 0.961 . S
C1275 H1291 0.960 . S
H1276 C1260 0.931 . S
H1277 C1265 0.929 1_655 S
H1278 C1266 0.960 . S
H1279 C1266 0.962 . S
H1280 C1266 0.960 . S
H1281 C1267 0.961 . S
H1282 C1267 0.961 . S
H1283 C1267 0.961 . S
H1284 C1268 0.931 . S
H1285 C1273 0.925 1_655 S
H1286 C1274 0.956 . S
H1287 C1274 0.961 . S
H1288 C1274 0.961 . S
H1289 C1275 0.958 . S
H1290 C1275 0.961 . S
H1291 C1275 0.960 . S
C1292 C1293 1.391 . S
C1292 C1294 1.394 . S
C1292 H1308 0.931 . S
C1293 C1292 1.391 . S
C1293 C1297 1.376 . S
C1294 C1292 1.394 . S
C1294 C1295 1.369 . S
C1294 C1298 1.531 . S
C1295 C1294 1.369 . S
C1295 C1296 1.410 . S
C1295 C1303 1.503 . S
C1296 C1295 1.410 . S
C1296 C1297 1.392 . S
C1296 C1299 1.511 . S
C1297 C1293 1.376 . S
C1297 C1296 1.392 . S
C1297 H1309 0.929 . S
C1298 C1294 1.531 . S
C1298 H1310 0.960 . S
C1298 H1311 0.962 . S
C1298 H1312 0.960 . S
C1299 C1296 1.511 . S
C1299 H1313 0.961 . S
C1299 H1314 0.961 . S
C1299 H1315 0.961 . S
C1300 C1301 1.364 1_565 S
C1300 C1302 1.357 1_565 S
C1300 H1316 0.944 . S
C1301 C1300 1.364 1_545 S
C1301 C1305 1.408 . S
C1302 C1300 1.357 1_545 S
C1302 C1303 1.370 . S
C1302 C1306 1.524 1_545 S
C1303 C1295 1.503 . S
C1303 C1302 1.370 . S
C1303 C1304 1.403 . S
C1304 C1303 1.403 . S
C1304 C1305 1.404 . S
C1304 C1307 1.539 . S
C1305 C1301 1.408 . S
C1305 C1304 1.404 . S
C1305 H1317 0.930 . S
C1306 C1302 1.524 1_565 S
C1306 H1318 0.956 . S
C1306 H1319 0.961 . S
C1306 H1320 0.961 . S
C1307 C1304 1.539 . S
C1307 H1321 0.958 . S
C1307 H1322 0.961 . S
C1307 H1323 0.960 . S
H1308 C1292 0.931 . S
H1309 C1297 0.929 . S
H1310 C1298 0.960 . S
H1311 C1298 0.962 . S
H1312 C1298 0.960 . S
H1313 C1299 0.961 . S
H1314 C1299 0.961 . S
H1315 C1299 0.961 . S
H1316 C1300 0.944 . S
H1317 C1305 0.930 . S
H1318 C1306 0.956 . S
H1319 C1306 0.961 . S
H1320 C1306 0.961 . S
H1321 C1307 0.958 . S
H1322 C1307 0.961 . S
H1323 C1307 0.960 . S
C1324 C1325 1.391 . S
C1324 C1326 1.394 . S
C1324 H1340 0.931 . S
C1325 C1324 1.391 . S
C1325 C1329 1.376 . S
C1326 C1324 1.394 . S
C1326 C1327 1.369 . S
C1326 C1330 1.531 . S
C1327 C1326 1.369 . S
C1327 C1328 1.410 . S
C1327 C1335 1.503 . S
C1328 C1327 1.410 . S
C1328 C1329 1.392 . S
C1328 C1331 1.511 . S
C1329 C1325 1.376 . S
C1329 C1328 1.392 . S
C1329 H1341 0.929 . S
C1330 C1326 1.531 . S
C1330 H1342 0.960 . S
C1330 H1343 0.962 . S
C1330 H1344 0.960 . S
C1331 C1328 1.511 . S
C1331 H1345 0.961 . S
C1331 H1346 0.961 . S
C1331 H1347 0.961 . S
C1332 C1333 1.370 . S
C1332 C1334 1.363 . S
C1332 H1348 0.931 . S
C1333 C1332 1.370 . S
C1333 C1337 1.408 . S
C1334 C1332 1.363 . S
C1334 C1335 1.370 . S
C1334 C1338 1.524 . S
C1335 C1327 1.503 . S
C1335 C1334 1.370 . S
C1335 C1336 1.403 . S
C1336 C1335 1.403 . S
C1336 C1337 1.404 . S
C1336 C1339 1.539 . S
C1337 C1333 1.408 . S
C1337 C1336 1.404 . S
C1337 H1349 0.930 . S
C1338 C1334 1.524 . S
C1338 H1350 0.956 . S
C1338 H1351 0.961 . S
C1338 H1352 0.961 . S
C1339 C1336 1.539 . S
C1339 H1353 0.958 . S
C1339 H1354 0.961 . S
C1339 H1355 0.960 . S
H1340 C1324 0.931 . S
H1341 C1329 0.929 . S
H1342 C1330 0.960 . S
H1343 C1330 0.962 . S
H1344 C1330 0.960 . S
H1345 C1331 0.961 . S
H1346 C1331 0.961 . S
H1347 C1331 0.961 . S
H1348 C1332 0.931 . S
H1349 C1337 0.930 . S
H1350 C1338 0.956 . S
H1351 C1338 0.961 . S
H1352 C1338 0.961 . S
H1353 C1339 0.958 . S
H1354 C1339 0.961 . S
H1355 C1339 0.960 . S
C397 C239 1.452 . S
C405 C8 1.435 . S
C429 C272 1.412 . S
C437 C41 1.399 . S
C461 C74 1.448 . S
C469 C305 1.432 . S
C493 C338 1.448 . S
C501 C107 1.432 . S
C525 C140 1.393 . S
C533 C371 1.396 . S
C557 C206 1.414 . S
C565 C173 1.424 . S
C589 N14 1.884 . S
C597 N278 1.872 . S
C621 N47 1.858 . S
C629 N311 1.884 . S
C653 N344 1.832 . S
C661 N80 1.856 . S
C685 N377 1.883 . S
C693 N113 1.873 . S
C717 N146 1.856 . S
C725 N212 1.885 . S
C749 N245 1.849 . S
C757 N179 1.846 . S
C781 N236 1.127 . S
C789 C17 1.135 . S
C813 N269 1.123 . S
C821 C50 1.175 . S
C845 N302 1.174 . S
C853 C83 1.207 . S
C877 C116 1.130 . S
C885 N335 1.107 . S
C909 N368 1.172 . S
C917 C149 1.181 . S
C941 C182 1.207 . S
C949 N203 1.183 . S
C973 C215 1.139 . S
C981 N170 1.117 . S
C1005 N5 1.143 . S
C1013 C248 1.200 . S
C1037 N38 1.156 . S
C1045 C281 1.178 . S
C1069 N71 1.087 . S
C1077 C314 1.129 . S
C1101 N104 1.145 . S
C1109 C347 1.200 . S
C1133 N137 1.123 . S
C1141 C380 1.175 . S
C1165 C292 1.411 . S
C1173 C28 1.413 . S
C1197 C61 1.418 . S
C1205 C325 1.408 . S
C1229 C358 1.457 . S
C1237 C94 1.465 . S
C1261 C127 1.397 . S
C1269 C391 1.400 . S
C1293 C160 1.415 . S
C1301 C226 1.411 . S
C1325 C259 1.449 . S
C1333 C193 1.463 . S
