# Generated by pormake.
# Topology wse, (4)-cn, num edge types: 1
# Building blocks:
#     Node 0, Type 0, BuildingBlock: GALJAG_clean_sbu_0, # of connection points: 4
#     Node 1, Type 0, BuildingBlock: GALJAG_clean_sbu_0, # of connection points: 4
#     Node 2, Type 0, BuildingBlock: GALJAG_clean_sbu_0, # of connection points: 4
#     Node 3, Type 0, BuildingBlock: GALJAG_clean_sbu_0, # of connection points: 4
#     Node 4, Type 0, BuildingBlock: GALJAG_clean_sbu_0, # of connection points: 4
#     Node 5, Type 0, BuildingBlock: GALJAG_clean_sbu_0, # of connection points: 4
#     Node 6, Type 0, BuildingBlock: GALJAG_clean_sbu_0, # of connection points: 4
#     Node 7, Type 0, BuildingBlock: GALJAG_clean_sbu_0, # of connection points: 4
#     Node 8, Type 0, BuildingBlock: GALJAG_clean_sbu_0, # of connection points: 4
#     Node 9, Type 0, BuildingBlock: GALJAG_clean_sbu_0, # of connection points: 4
#     Node 10, Type 0, BuildingBlock: GALJAG_clean_sbu_0, # of connection points: 4
#     Node 11, Type 0, BuildingBlock: GALJAG_clean_sbu_0, # of connection points: 4
#     Node 12, Type 0, BuildingBlock: GALJAG_clean_sbu_0, # of connection points: 4
#     Node 13, Type 0, BuildingBlock: GALJAG_clean_sbu_0, # of connection points: 4
#     Node 14, Type 0, BuildingBlock: GALJAG_clean_sbu_0, # of connection points: 4
#     Node 15, Type 0, BuildingBlock: GALJAG_clean_sbu_0, # of connection points: 4
#     Node 16, Type 0, BuildingBlock: GALJAG_clean_sbu_0, # of connection points: 4
#     Node 17, Type 0, BuildingBlock: GALJAG_clean_sbu_0, # of connection points: 4
#     Node 18, Type 0, BuildingBlock: GALJAG_clean_sbu_0, # of connection points: 4
#     Node 19, Type 0, BuildingBlock: GALJAG_clean_sbu_0, # of connection points: 4
#     Node 20, Type 0, BuildingBlock: GALJAG_clean_sbu_0, # of connection points: 4
#     Node 21, Type 0, BuildingBlock: GALJAG_clean_sbu_0, # of connection points: 4
#     Node 22, Type 0, BuildingBlock: GALJAG_clean_sbu_0, # of connection points: 4
#     Node 23, Type 0, BuildingBlock: GALJAG_clean_sbu_0, # of connection points: 4
#     Node 24, Type 0, BuildingBlock: GALJAG_clean_sbu_0, # of connection points: 4
#     Node 25, Type 0, BuildingBlock: GALJAG_clean_sbu_0, # of connection points: 4
#     Node 26, Type 0, BuildingBlock: GALJAG_clean_sbu_0, # of connection points: 4
#     Node 27, Type 0, BuildingBlock: GALJAG_clean_sbu_0, # of connection points: 4
#     Node 28, Type 0, BuildingBlock: GALJAG_clean_sbu_0, # of connection points: 4
#     Node 29, Type 0, BuildingBlock: GALJAG_clean_sbu_0, # of connection points: 4
#     Node 30, Type 0, BuildingBlock: GALJAG_clean_sbu_0, # of connection points: 4
#     Node 31, Type 0, BuildingBlock: GALJAG_clean_sbu_0, # of connection points: 4
#     Node 32, Type 0, BuildingBlock: GALJAG_clean_sbu_0, # of connection points: 4
#     Node 33, Type 0, BuildingBlock: GALJAG_clean_sbu_0, # of connection points: 4
#     Node 34, Type 0, BuildingBlock: GALJAG_clean_sbu_0, # of connection points: 4
#     Node 35, Type 0, BuildingBlock: GALJAG_clean_sbu_0, # of connection points: 4
#     Node 36, Type 0, BuildingBlock: GALJAG_clean_sbu_0, # of connection points: 4
#     Node 37, Type 0, BuildingBlock: GALJAG_clean_sbu_0, # of connection points: 4
#     Node 38, Type 0, BuildingBlock: GALJAG_clean_sbu_0, # of connection points: 4
#     Node 39, Type 0, BuildingBlock: GALJAG_clean_sbu_0, # of connection points: 4
#     Node 40, Type 0, BuildingBlock: GALJAG_clean_sbu_0, # of connection points: 4
#     Node 41, Type 0, BuildingBlock: GALJAG_clean_sbu_0, # of connection points: 4
#     Node 42, Type 0, BuildingBlock: GALJAG_clean_sbu_0, # of connection points: 4
#     Node 43, Type 0, BuildingBlock: GALJAG_clean_sbu_0, # of connection points: 4
#     Node 44, Type 0, BuildingBlock: GALJAG_clean_sbu_0, # of connection points: 4
#     Node 45, Type 0, BuildingBlock: GALJAG_clean_sbu_0, # of connection points: 4
#     Node 46, Type 0, BuildingBlock: GALJAG_clean_sbu_0, # of connection points: 4
#     Node 47, Type 0, BuildingBlock: GALJAG_clean_sbu_0, # of connection points: 4
#     Node 48, Type 0, BuildingBlock: GALJAG_clean_sbu_0, # of connection points: 4
#     Node 49, Type 0, BuildingBlock: GALJAG_clean_sbu_0, # of connection points: 4
#     Node 50, Type 0, BuildingBlock: GALJAG_clean_sbu_0, # of connection points: 4
#     Node 51, Type 0, BuildingBlock: GALJAG_clean_sbu_0, # of connection points: 4
#     Node 52, Type 0, BuildingBlock: GALJAG_clean_sbu_0, # of connection points: 4
#     Node 53, Type 0, BuildingBlock: GALJAG_clean_sbu_0, # of connection points: 4
#     Node 54, Type 0, BuildingBlock: GALJAG_clean_sbu_0, # of connection points: 4
#     Node 55, Type 0, BuildingBlock: GALJAG_clean_sbu_0, # of connection points: 4
#     Node 56, Type 0, BuildingBlock: GALJAG_clean_sbu_0, # of connection points: 4
#     Node 57, Type 0, BuildingBlock: GALJAG_clean_sbu_0, # of connection points: 4
#     Node 58, Type 0, BuildingBlock: GALJAG_clean_sbu_0, # of connection points: 4
#     Node 59, Type 0, BuildingBlock: GALJAG_clean_sbu_0, # of connection points: 4
#     Node 60, Type 0, BuildingBlock: GALJAG_clean_sbu_0, # of connection points: 4
#     Node 61, Type 0, BuildingBlock: GALJAG_clean_sbu_0, # of connection points: 4
#     Node 62, Type 0, BuildingBlock: GALJAG_clean_sbu_0, # of connection points: 4
#     Node 63, Type 0, BuildingBlock: GALJAG_clean_sbu_0, # of connection points: 4
#     Node 64, Type 0, BuildingBlock: GALJAG_clean_sbu_0, # of connection points: 4
#     Node 65, Type 0, BuildingBlock: GALJAG_clean_sbu_0, # of connection points: 4
#     Node 66, Type 0, BuildingBlock: GALJAG_clean_sbu_0, # of connection points: 4
#     Node 67, Type 0, BuildingBlock: GALJAG_clean_sbu_0, # of connection points: 4
#     Node 68, Type 0, BuildingBlock: GALJAG_clean_sbu_0, # of connection points: 4
#     Node 69, Type 0, BuildingBlock: GALJAG_clean_sbu_0, # of connection points: 4
#     Node 70, Type 0, BuildingBlock: GALJAG_clean_sbu_0, # of connection points: 4
#     Node 71, Type 0, BuildingBlock: GALJAG_clean_sbu_0, # of connection points: 4
#     Node 72, Type 0, BuildingBlock: GALJAG_clean_sbu_0, # of connection points: 4
#     Node 73, Type 0, BuildingBlock: GALJAG_clean_sbu_0, # of connection points: 4
#     Node 74, Type 0, BuildingBlock: GALJAG_clean_sbu_0, # of connection points: 4
#     Node 75, Type 0, BuildingBlock: GALJAG_clean_sbu_0, # of connection points: 4
#     Node 76, Type 0, BuildingBlock: GALJAG_clean_sbu_0, # of connection points: 4
#     Node 77, Type 0, BuildingBlock: GALJAG_clean_sbu_0, # of connection points: 4
#     Node 78, Type 0, BuildingBlock: GALJAG_clean_sbu_0, # of connection points: 4
#     Node 79, Type 0, BuildingBlock: GALJAG_clean_sbu_0, # of connection points: 4
#     Node 80, Type 0, BuildingBlock: GALJAG_clean_sbu_0, # of connection points: 4
#     Node 81, Type 0, BuildingBlock: GALJAG_clean_sbu_0, # of connection points: 4
#     Node 82, Type 0, BuildingBlock: GALJAG_clean_sbu_0, # of connection points: 4
#     Node 83, Type 0, BuildingBlock: GALJAG_clean_sbu_0, # of connection points: 4
#     Node 84, Type 0, BuildingBlock: GALJAG_clean_sbu_0, # of connection points: 4
#     Node 85, Type 0, BuildingBlock: GALJAG_clean_sbu_0, # of connection points: 4
#     Node 86, Type 0, BuildingBlock: GALJAG_clean_sbu_0, # of connection points: 4
#     Node 87, Type 0, BuildingBlock: GALJAG_clean_sbu_0, # of connection points: 4
#     Node 88, Type 0, BuildingBlock: GALJAG_clean_sbu_0, # of connection points: 4
#     Node 89, Type 0, BuildingBlock: GALJAG_clean_sbu_0, # of connection points: 4
#     Node 90, Type 0, BuildingBlock: GALJAG_clean_sbu_0, # of connection points: 4
#     Node 91, Type 0, BuildingBlock: GALJAG_clean_sbu_0, # of connection points: 4
#     Node 92, Type 0, BuildingBlock: GALJAG_clean_sbu_0, # of connection points: 4
#     Node 93, Type 0, BuildingBlock: GALJAG_clean_sbu_0, # of connection points: 4
#     Node 94, Type 0, BuildingBlock: GALJAG_clean_sbu_0, # of connection points: 4
#     Node 95, Type 0, BuildingBlock: GALJAG_clean_sbu_0, # of connection points: 4
#     Edge 96, Type (0, 0), BuildingBlock: EZIPEK_clean_linker_0, # of connection points: 2
#     Edge 97, Type (0, 0), BuildingBlock: EZIPEK_clean_linker_0, # of connection points: 2
#     Edge 98, Type (0, 0), BuildingBlock: EZIPEK_clean_linker_0, # of connection points: 2
#     Edge 99, Type (0, 0), BuildingBlock: EZIPEK_clean_linker_0, # of connection points: 2
#     Edge 100, Type (0, 0), BuildingBlock: EZIPEK_clean_linker_0, # of connection points: 2
#     Edge 101, Type (0, 0), BuildingBlock: EZIPEK_clean_linker_0, # of connection points: 2
#     Edge 102, Type (0, 0), BuildingBlock: EZIPEK_clean_linker_0, # of connection points: 2
#     Edge 103, Type (0, 0), BuildingBlock: EZIPEK_clean_linker_0, # of connection points: 2
#     Edge 104, Type (0, 0), BuildingBlock: EZIPEK_clean_linker_0, # of connection points: 2
#     Edge 105, Type (0, 0), BuildingBlock: EZIPEK_clean_linker_0, # of connection points: 2
#     Edge 106, Type (0, 0), BuildingBlock: EZIPEK_clean_linker_0, # of connection points: 2
#     Edge 107, Type (0, 0), BuildingBlock: EZIPEK_clean_linker_0, # of connection points: 2
#     Edge 108, Type (0, 0), BuildingBlock: EZIPEK_clean_linker_0, # of connection points: 2
#     Edge 109, Type (0, 0), BuildingBlock: EZIPEK_clean_linker_0, # of connection points: 2
#     Edge 110, Type (0, 0), BuildingBlock: EZIPEK_clean_linker_0, # of connection points: 2
#     Edge 111, Type (0, 0), BuildingBlock: EZIPEK_clean_linker_0, # of connection points: 2
#     Edge 112, Type (0, 0), BuildingBlock: EZIPEK_clean_linker_0, # of connection points: 2
#     Edge 113, Type (0, 0), BuildingBlock: EZIPEK_clean_linker_0, # of connection points: 2
#     Edge 114, Type (0, 0), BuildingBlock: EZIPEK_clean_linker_0, # of connection points: 2
#     Edge 115, Type (0, 0), BuildingBlock: EZIPEK_clean_linker_0, # of connection points: 2
#     Edge 116, Type (0, 0), BuildingBlock: EZIPEK_clean_linker_0, # of connection points: 2
#     Edge 117, Type (0, 0), BuildingBlock: EZIPEK_clean_linker_0, # of connection points: 2
#     Edge 118, Type (0, 0), BuildingBlock: EZIPEK_clean_linker_0, # of connection points: 2
#     Edge 119, Type (0, 0), BuildingBlock: EZIPEK_clean_linker_0, # of connection points: 2
#     Edge 120, Type (0, 0), BuildingBlock: EZIPEK_clean_linker_0, # of connection points: 2
#     Edge 121, Type (0, 0), BuildingBlock: EZIPEK_clean_linker_0, # of connection points: 2
#     Edge 122, Type (0, 0), BuildingBlock: EZIPEK_clean_linker_0, # of connection points: 2
#     Edge 123, Type (0, 0), BuildingBlock: EZIPEK_clean_linker_0, # of connection points: 2
#     Edge 124, Type (0, 0), BuildingBlock: EZIPEK_clean_linker_0, # of connection points: 2
#     Edge 125, Type (0, 0), BuildingBlock: EZIPEK_clean_linker_0, # of connection points: 2
#     Edge 126, Type (0, 0), BuildingBlock: EZIPEK_clean_linker_0, # of connection points: 2
#     Edge 127, Type (0, 0), BuildingBlock: EZIPEK_clean_linker_0, # of connection points: 2
#     Edge 128, Type (0, 0), BuildingBlock: EZIPEK_clean_linker_0, # of connection points: 2
#     Edge 129, Type (0, 0), BuildingBlock: EZIPEK_clean_linker_0, # of connection points: 2
#     Edge 130, Type (0, 0), BuildingBlock: EZIPEK_clean_linker_0, # of connection points: 2
#     Edge 131, Type (0, 0), BuildingBlock: EZIPEK_clean_linker_0, # of connection points: 2
#     Edge 132, Type (0, 0), BuildingBlock: EZIPEK_clean_linker_0, # of connection points: 2
#     Edge 133, Type (0, 0), BuildingBlock: EZIPEK_clean_linker_0, # of connection points: 2
#     Edge 134, Type (0, 0), BuildingBlock: EZIPEK_clean_linker_0, # of connection points: 2
#     Edge 135, Type (0, 0), BuildingBlock: EZIPEK_clean_linker_0, # of connection points: 2
#     Edge 136, Type (0, 0), BuildingBlock: EZIPEK_clean_linker_0, # of connection points: 2
#     Edge 137, Type (0, 0), BuildingBlock: EZIPEK_clean_linker_0, # of connection points: 2
#     Edge 138, Type (0, 0), BuildingBlock: EZIPEK_clean_linker_0, # of connection points: 2
#     Edge 139, Type (0, 0), BuildingBlock: EZIPEK_clean_linker_0, # of connection points: 2
#     Edge 140, Type (0, 0), BuildingBlock: EZIPEK_clean_linker_0, # of connection points: 2
#     Edge 141, Type (0, 0), BuildingBlock: EZIPEK_clean_linker_0, # of connection points: 2
#     Edge 142, Type (0, 0), BuildingBlock: EZIPEK_clean_linker_0, # of connection points: 2
#     Edge 143, Type (0, 0), BuildingBlock: EZIPEK_clean_linker_0, # of connection points: 2
#     Edge 144, Type (0, 0), BuildingBlock: EZIPEK_clean_linker_0, # of connection points: 2
#     Edge 145, Type (0, 0), BuildingBlock: EZIPEK_clean_linker_0, # of connection points: 2
#     Edge 146, Type (0, 0), BuildingBlock: EZIPEK_clean_linker_0, # of connection points: 2
#     Edge 147, Type (0, 0), BuildingBlock: EZIPEK_clean_linker_0, # of connection points: 2
#     Edge 148, Type (0, 0), BuildingBlock: EZIPEK_clean_linker_0, # of connection points: 2
#     Edge 149, Type (0, 0), BuildingBlock: EZIPEK_clean_linker_0, # of connection points: 2
#     Edge 150, Type (0, 0), BuildingBlock: EZIPEK_clean_linker_0, # of connection points: 2
#     Edge 151, Type (0, 0), BuildingBlock: EZIPEK_clean_linker_0, # of connection points: 2
#     Edge 152, Type (0, 0), BuildingBlock: EZIPEK_clean_linker_0, # of connection points: 2
#     Edge 153, Type (0, 0), BuildingBlock: EZIPEK_clean_linker_0, # of connection points: 2
#     Edge 154, Type (0, 0), BuildingBlock: EZIPEK_clean_linker_0, # of connection points: 2
#     Edge 155, Type (0, 0), BuildingBlock: EZIPEK_clean_linker_0, # of connection points: 2
#     Edge 156, Type (0, 0), BuildingBlock: EZIPEK_clean_linker_0, # of connection points: 2
#     Edge 157, Type (0, 0), BuildingBlock: EZIPEK_clean_linker_0, # of connection points: 2
#     Edge 158, Type (0, 0), BuildingBlock: EZIPEK_clean_linker_0, # of connection points: 2
#     Edge 159, Type (0, 0), BuildingBlock: EZIPEK_clean_linker_0, # of connection points: 2
#     Edge 160, Type (0, 0), BuildingBlock: EZIPEK_clean_linker_0, # of connection points: 2
#     Edge 161, Type (0, 0), BuildingBlock: EZIPEK_clean_linker_0, # of connection points: 2
#     Edge 162, Type (0, 0), BuildingBlock: EZIPEK_clean_linker_0, # of connection points: 2
#     Edge 163, Type (0, 0), BuildingBlock: EZIPEK_clean_linker_0, # of connection points: 2
#     Edge 164, Type (0, 0), BuildingBlock: EZIPEK_clean_linker_0, # of connection points: 2
#     Edge 165, Type (0, 0), BuildingBlock: EZIPEK_clean_linker_0, # of connection points: 2
#     Edge 166, Type (0, 0), BuildingBlock: EZIPEK_clean_linker_0, # of connection points: 2
#     Edge 167, Type (0, 0), BuildingBlock: EZIPEK_clean_linker_0, # of connection points: 2
#     Edge 168, Type (0, 0), BuildingBlock: EZIPEK_clean_linker_0, # of connection points: 2
#     Edge 169, Type (0, 0), BuildingBlock: EZIPEK_clean_linker_0, # of connection points: 2
#     Edge 170, Type (0, 0), BuildingBlock: EZIPEK_clean_linker_0, # of connection points: 2
#     Edge 171, Type (0, 0), BuildingBlock: EZIPEK_clean_linker_0, # of connection points: 2
#     Edge 172, Type (0, 0), BuildingBlock: EZIPEK_clean_linker_0, # of connection points: 2
#     Edge 173, Type (0, 0), BuildingBlock: EZIPEK_clean_linker_0, # of connection points: 2
#     Edge 174, Type (0, 0), BuildingBlock: EZIPEK_clean_linker_0, # of connection points: 2
#     Edge 175, Type (0, 0), BuildingBlock: EZIPEK_clean_linker_0, # of connection points: 2
#     Edge 176, Type (0, 0), BuildingBlock: EZIPEK_clean_linker_0, # of connection points: 2
#     Edge 177, Type (0, 0), BuildingBlock: EZIPEK_clean_linker_0, # of connection points: 2
#     Edge 178, Type (0, 0), BuildingBlock: EZIPEK_clean_linker_0, # of connection points: 2
#     Edge 179, Type (0, 0), BuildingBlock: EZIPEK_clean_linker_0, # of connection points: 2
#     Edge 180, Type (0, 0), BuildingBlock: EZIPEK_clean_linker_0, # of connection points: 2
#     Edge 181, Type (0, 0), BuildingBlock: EZIPEK_clean_linker_0, # of connection points: 2
#     Edge 182, Type (0, 0), BuildingBlock: EZIPEK_clean_linker_0, # of connection points: 2
#     Edge 183, Type (0, 0), BuildingBlock: EZIPEK_clean_linker_0, # of connection points: 2
#     Edge 184, Type (0, 0), BuildingBlock: EZIPEK_clean_linker_0, # of connection points: 2
#     Edge 185, Type (0, 0), BuildingBlock: EZIPEK_clean_linker_0, # of connection points: 2
#     Edge 186, Type (0, 0), BuildingBlock: EZIPEK_clean_linker_0, # of connection points: 2
#     Edge 187, Type (0, 0), BuildingBlock: EZIPEK_clean_linker_0, # of connection points: 2
#     Edge 188, Type (0, 0), BuildingBlock: EZIPEK_clean_linker_0, # of connection points: 2
#     Edge 189, Type (0, 0), BuildingBlock: EZIPEK_clean_linker_0, # of connection points: 2
#     Edge 190, Type (0, 0), BuildingBlock: EZIPEK_clean_linker_0, # of connection points: 2
#     Edge 191, Type (0, 0), BuildingBlock: EZIPEK_clean_linker_0, # of connection points: 2
#     Edge 192, Type (0, 0), BuildingBlock: EZIPEK_clean_linker_0, # of connection points: 2
#     Edge 193, Type (0, 0), BuildingBlock: EZIPEK_clean_linker_0, # of connection points: 2
#     Edge 194, Type (0, 0), BuildingBlock: EZIPEK_clean_linker_0, # of connection points: 2
#     Edge 195, Type (0, 0), BuildingBlock: EZIPEK_clean_linker_0, # of connection points: 2
#     Edge 196, Type (0, 0), BuildingBlock: EZIPEK_clean_linker_0, # of connection points: 2
#     Edge 197, Type (0, 0), BuildingBlock: EZIPEK_clean_linker_0, # of connection points: 2
#     Edge 198, Type (0, 0), BuildingBlock: EZIPEK_clean_linker_0, # of connection points: 2
#     Edge 199, Type (0, 0), BuildingBlock: EZIPEK_clean_linker_0, # of connection points: 2
#     Edge 200, Type (0, 0), BuildingBlock: EZIPEK_clean_linker_0, # of connection points: 2
#     Edge 201, Type (0, 0), BuildingBlock: EZIPEK_clean_linker_0, # of connection points: 2
#     Edge 202, Type (0, 0), BuildingBlock: EZIPEK_clean_linker_0, # of connection points: 2
#     Edge 203, Type (0, 0), BuildingBlock: EZIPEK_clean_linker_0, # of connection points: 2
#     Edge 204, Type (0, 0), BuildingBlock: EZIPEK_clean_linker_0, # of connection points: 2
#     Edge 205, Type (0, 0), BuildingBlock: EZIPEK_clean_linker_0, # of connection points: 2
#     Edge 206, Type (0, 0), BuildingBlock: EZIPEK_clean_linker_0, # of connection points: 2
#     Edge 207, Type (0, 0), BuildingBlock: EZIPEK_clean_linker_0, # of connection points: 2
#     Edge 208, Type (0, 0), BuildingBlock: EZIPEK_clean_linker_0, # of connection points: 2
#     Edge 209, Type (0, 0), BuildingBlock: EZIPEK_clean_linker_0, # of connection points: 2
#     Edge 210, Type (0, 0), BuildingBlock: EZIPEK_clean_linker_0, # of connection points: 2
#     Edge 211, Type (0, 0), BuildingBlock: EZIPEK_clean_linker_0, # of connection points: 2
#     Edge 212, Type (0, 0), BuildingBlock: EZIPEK_clean_linker_0, # of connection points: 2
#     Edge 213, Type (0, 0), BuildingBlock: EZIPEK_clean_linker_0, # of connection points: 2
#     Edge 214, Type (0, 0), BuildingBlock: EZIPEK_clean_linker_0, # of connection points: 2
#     Edge 215, Type (0, 0), BuildingBlock: EZIPEK_clean_linker_0, # of connection points: 2
#     Edge 216, Type (0, 0), BuildingBlock: EZIPEK_clean_linker_0, # of connection points: 2
#     Edge 217, Type (0, 0), BuildingBlock: EZIPEK_clean_linker_0, # of connection points: 2
#     Edge 218, Type (0, 0), BuildingBlock: EZIPEK_clean_linker_0, # of connection points: 2
#     Edge 219, Type (0, 0), BuildingBlock: EZIPEK_clean_linker_0, # of connection points: 2
#     Edge 220, Type (0, 0), BuildingBlock: EZIPEK_clean_linker_0, # of connection points: 2
#     Edge 221, Type (0, 0), BuildingBlock: EZIPEK_clean_linker_0, # of connection points: 2
#     Edge 222, Type (0, 0), BuildingBlock: EZIPEK_clean_linker_0, # of connection points: 2
#     Edge 223, Type (0, 0), BuildingBlock: EZIPEK_clean_linker_0, # of connection points: 2
#     Edge 224, Type (0, 0), BuildingBlock: EZIPEK_clean_linker_0, # of connection points: 2
#     Edge 225, Type (0, 0), BuildingBlock: EZIPEK_clean_linker_0, # of connection points: 2
#     Edge 226, Type (0, 0), BuildingBlock: EZIPEK_clean_linker_0, # of connection points: 2
#     Edge 227, Type (0, 0), BuildingBlock: EZIPEK_clean_linker_0, # of connection points: 2
#     Edge 228, Type (0, 0), BuildingBlock: EZIPEK_clean_linker_0, # of connection points: 2
#     Edge 229, Type (0, 0), BuildingBlock: EZIPEK_clean_linker_0, # of connection points: 2
#     Edge 230, Type (0, 0), BuildingBlock: EZIPEK_clean_linker_0, # of connection points: 2
#     Edge 231, Type (0, 0), BuildingBlock: EZIPEK_clean_linker_0, # of connection points: 2
#     Edge 232, Type (0, 0), BuildingBlock: EZIPEK_clean_linker_0, # of connection points: 2
#     Edge 233, Type (0, 0), BuildingBlock: EZIPEK_clean_linker_0, # of connection points: 2
#     Edge 234, Type (0, 0), BuildingBlock: EZIPEK_clean_linker_0, # of connection points: 2
#     Edge 235, Type (0, 0), BuildingBlock: EZIPEK_clean_linker_0, # of connection points: 2
#     Edge 236, Type (0, 0), BuildingBlock: EZIPEK_clean_linker_0, # of connection points: 2
#     Edge 237, Type (0, 0), BuildingBlock: EZIPEK_clean_linker_0, # of connection points: 2
#     Edge 238, Type (0, 0), BuildingBlock: EZIPEK_clean_linker_0, # of connection points: 2
#     Edge 239, Type (0, 0), BuildingBlock: EZIPEK_clean_linker_0, # of connection points: 2
#     Edge 240, Type (0, 0), BuildingBlock: EZIPEK_clean_linker_0, # of connection points: 2
#     Edge 241, Type (0, 0), BuildingBlock: EZIPEK_clean_linker_0, # of connection points: 2
#     Edge 242, Type (0, 0), BuildingBlock: EZIPEK_clean_linker_0, # of connection points: 2
#     Edge 243, Type (0, 0), BuildingBlock: EZIPEK_clean_linker_0, # of connection points: 2
#     Edge 244, Type (0, 0), BuildingBlock: EZIPEK_clean_linker_0, # of connection points: 2
#     Edge 245, Type (0, 0), BuildingBlock: EZIPEK_clean_linker_0, # of connection points: 2
#     Edge 246, Type (0, 0), BuildingBlock: EZIPEK_clean_linker_0, # of connection points: 2
#     Edge 247, Type (0, 0), BuildingBlock: EZIPEK_clean_linker_0, # of connection points: 2
#     Edge 248, Type (0, 0), BuildingBlock: EZIPEK_clean_linker_0, # of connection points: 2
#     Edge 249, Type (0, 0), BuildingBlock: EZIPEK_clean_linker_0, # of connection points: 2
#     Edge 250, Type (0, 0), BuildingBlock: EZIPEK_clean_linker_0, # of connection points: 2
#     Edge 251, Type (0, 0), BuildingBlock: EZIPEK_clean_linker_0, # of connection points: 2
#     Edge 252, Type (0, 0), BuildingBlock: EZIPEK_clean_linker_0, # of connection points: 2
#     Edge 253, Type (0, 0), BuildingBlock: EZIPEK_clean_linker_0, # of connection points: 2
#     Edge 254, Type (0, 0), BuildingBlock: EZIPEK_clean_linker_0, # of connection points: 2
#     Edge 255, Type (0, 0), BuildingBlock: EZIPEK_clean_linker_0, # of connection points: 2
#     Edge 256, Type (0, 0), BuildingBlock: EZIPEK_clean_linker_0, # of connection points: 2
#     Edge 257, Type (0, 0), BuildingBlock: EZIPEK_clean_linker_0, # of connection points: 2
#     Edge 258, Type (0, 0), BuildingBlock: EZIPEK_clean_linker_0, # of connection points: 2
#     Edge 259, Type (0, 0), BuildingBlock: EZIPEK_clean_linker_0, # of connection points: 2
#     Edge 260, Type (0, 0), BuildingBlock: EZIPEK_clean_linker_0, # of connection points: 2
#     Edge 261, Type (0, 0), BuildingBlock: EZIPEK_clean_linker_0, # of connection points: 2
#     Edge 262, Type (0, 0), BuildingBlock: EZIPEK_clean_linker_0, # of connection points: 2
#     Edge 263, Type (0, 0), BuildingBlock: EZIPEK_clean_linker_0, # of connection points: 2
#     Edge 264, Type (0, 0), BuildingBlock: EZIPEK_clean_linker_0, # of connection points: 2
#     Edge 265, Type (0, 0), BuildingBlock: EZIPEK_clean_linker_0, # of connection points: 2
#     Edge 266, Type (0, 0), BuildingBlock: EZIPEK_clean_linker_0, # of connection points: 2
#     Edge 267, Type (0, 0), BuildingBlock: EZIPEK_clean_linker_0, # of connection points: 2
#     Edge 268, Type (0, 0), BuildingBlock: EZIPEK_clean_linker_0, # of connection points: 2
#     Edge 269, Type (0, 0), BuildingBlock: EZIPEK_clean_linker_0, # of connection points: 2
#     Edge 270, Type (0, 0), BuildingBlock: EZIPEK_clean_linker_0, # of connection points: 2
#     Edge 271, Type (0, 0), BuildingBlock: EZIPEK_clean_linker_0, # of connection points: 2
#     Edge 272, Type (0, 0), BuildingBlock: EZIPEK_clean_linker_0, # of connection points: 2
#     Edge 273, Type (0, 0), BuildingBlock: EZIPEK_clean_linker_0, # of connection points: 2
#     Edge 274, Type (0, 0), BuildingBlock: EZIPEK_clean_linker_0, # of connection points: 2
#     Edge 275, Type (0, 0), BuildingBlock: EZIPEK_clean_linker_0, # of connection points: 2
#     Edge 276, Type (0, 0), BuildingBlock: EZIPEK_clean_linker_0, # of connection points: 2
#     Edge 277, Type (0, 0), BuildingBlock: EZIPEK_clean_linker_0, # of connection points: 2
#     Edge 278, Type (0, 0), BuildingBlock: EZIPEK_clean_linker_0, # of connection points: 2
#     Edge 279, Type (0, 0), BuildingBlock: EZIPEK_clean_linker_0, # of connection points: 2
#     Edge 280, Type (0, 0), BuildingBlock: EZIPEK_clean_linker_0, # of connection points: 2
#     Edge 281, Type (0, 0), BuildingBlock: EZIPEK_clean_linker_0, # of connection points: 2
#     Edge 282, Type (0, 0), BuildingBlock: EZIPEK_clean_linker_0, # of connection points: 2
#     Edge 283, Type (0, 0), BuildingBlock: EZIPEK_clean_linker_0, # of connection points: 2
#     Edge 284, Type (0, 0), BuildingBlock: EZIPEK_clean_linker_0, # of connection points: 2
#     Edge 285, Type (0, 0), BuildingBlock: EZIPEK_clean_linker_0, # of connection points: 2
#     Edge 286, Type (0, 0), BuildingBlock: EZIPEK_clean_linker_0, # of connection points: 2
#     Edge 287, Type (0, 0), BuildingBlock: EZIPEK_clean_linker_0, # of connection points: 2
# Relax obj value: 0.339
# Max RMSD: 0.171
# Mean RMSD: 0.167
data_MOF--net-wse--node1-GALJAG_clean_sbu_0--edge1-EZIPEK_clean_linker_0
_symmetry_space_group_name_H-M    P1
_symmetry_Int_Tables_number       1
_symmetry_cell_setting            triclinic
loop_
_symmetry_equiv_pos_as_xyz
'x, y, z'
_cell_length_a     73.749082
_cell_length_b     73.798013
_cell_length_c     73.77922
_cell_angle_alpha  89.993131
_cell_angle_beta   90.001887
_cell_angle_gamma 90.008791
loop_
_atom_site_label
_atom_site_type_symbol
_atom_site_fract_x
_atom_site_fract_y
_atom_site_fract_z
_atom_type_partial_charge
In0 In 0.07256 0.17053 0.42457 0.0
O1 O 0.05126 0.15776 0.40541 0.0
O2 O 0.04296 0.17885 0.42306 0.0
C3 C 0.09715 0.14483 0.41594 0.0
C4 C 0.08236 0.2049 0.41663 0.0
C5 C 0.07294 0.16738 0.46085 0.0
O6 O 0.08398 0.14191 0.42639 0.0
O7 O 0.09761 0.1605 0.4091 0.0
O8 O 0.08558 0.17495 0.45216 0.0
O9 O 0.06026 0.16101 0.45128 0.0
C10 C 0.03845 0.16749 0.41122 0.0
O11 O 0.07843 0.19961 0.43236 0.0
O12 O 0.08176 0.19273 0.40459 0.0
In13 In 0.82161 0.0723 0.41809 0.0
O14 O 0.82816 0.05085 0.39618 0.0
O15 O 0.82668 0.04251 0.42362 0.0
C16 C 0.84424 0.09897 0.4073 0.0
C17 C 0.78643 0.07903 0.41042 0.0
C18 C 0.82514 0.07337 0.45442 0.0
O19 O 0.84978 0.08369 0.41257 0.0
O20 O 0.82722 0.10044 0.40621 0.0
O21 O 0.8122 0.06534 0.44664 0.0
O22 O 0.8364 0.08084 0.44396 0.0
C23 C 0.82892 0.03797 0.40739 0.0
O24 O 0.79353 0.08267 0.42551 0.0
O25 O 0.79727 0.07295 0.39866 0.0
In26 In 0.92369 0.81848 0.42246 0.0
O27 O 0.94486 0.82028 0.3996 0.0
O28 O 0.95353 0.82423 0.42682 0.0
C29 C 0.90005 0.84419 0.41179 0.0
C30 C 0.91482 0.78403 0.41394 0.0
C31 C 0.9236 0.82261 0.4587 0.0
O32 O 0.91511 0.84199 0.40398 0.0
O33 O 0.89664 0.83304 0.42424 0.0
O34 O 0.91902 0.80801 0.4511 0.0
O35 O 0.92829 0.83518 0.44811 0.0
C36 C 0.95788 0.82314 0.41035 0.0
O37 O 0.90461 0.79714 0.40996 0.0
O38 O 0.92943 0.7883 0.42161 0.0
In39 In 0.17509 0.92221 0.42375 0.0
O40 O 0.19975 0.90386 0.42743 0.0
O41 O 0.20241 0.92598 0.40928 0.0
C42 C 0.1727 0.92459 0.46012 0.0
C43 C 0.17043 0.95591 0.41066 0.0
C44 C 0.14939 0.8983 0.4134 0.0
O45 O 0.18155 0.91231 0.45227 0.0
O46 O 0.16482 0.93564 0.44975 0.0
O47 O 0.14779 0.90857 0.42688 0.0
O48 O 0.16386 0.90029 0.40448 0.0
C49 C 0.21002 0.91293 0.41725 0.0
O50 O 0.16264 0.94242 0.4035 0.0
O51 O 0.18055 0.95233 0.42394 0.0
In52 In 0.07781 0.82383 0.5742 0.0
O53 O 0.08347 0.79432 0.56853 0.0
O54 O 0.08787 0.80341 0.59557 0.0
C55 C 0.07691 0.82715 0.53789 0.0
C56 C 0.04215 0.8256 0.58237 0.0
C57 C 0.10138 0.84901 0.58645 0.0
O58 O 0.0885 0.81753 0.54595 0.0
O59 O 0.06593 0.8354 0.54805 0.0
O60 O 0.08774 0.84427 0.59562 0.0
O61 O 0.10336 0.84074 0.57169 0.0
C62 C 0.08789 0.79031 0.58452 0.0
O63 O 0.05142 0.83959 0.57905 0.0
O64 O 0.05097 0.811 0.58242 0.0
In65 In 0.17959 0.07496 0.57718 0.0
O66 O 0.17718 0.0527 0.59888 0.0
O67 O 0.1737 0.04532 0.57128 0.0
C68 C 0.15272 0.09772 0.58708 0.0
C69 C 0.21354 0.08523 0.58678 0.0
C70 C 0.17754 0.07358 0.54077 0.0
O71 O 0.15188 0.08087 0.58971 0.0
O72 O 0.16755 0.10324 0.58064 0.0
O73 O 0.18954 0.06521 0.54966 0.0
O74 O 0.16639 0.08247 0.55021 0.0
C75 C 0.17446 0.0402 0.58753 0.0
O76 O 0.20717 0.08748 0.57117 0.0
O77 O 0.20259 0.07851 0.59802 0.0
In78 In 0.92626 0.17965 0.57083 0.0
O79 O 0.92636 0.20984 0.56565 0.0
O80 O 0.91434 0.20088 0.59034 0.0
C81 C 0.9259 0.1762 0.53452 0.0
C82 C 0.96051 0.17677 0.58344 0.0
C83 C 0.90168 0.15371 0.57921 0.0
O84 O 0.91741 0.1886 0.54266 0.0
O85 O 0.93441 0.16537 0.54465 0.0
O86 O 0.91844 0.15154 0.58164 0.0
O87 O 0.89726 0.16901 0.57315 0.0
C88 C 0.91838 0.21403 0.58013 0.0
O89 O 0.94719 0.17844 0.59407 0.0
O90 O 0.95653 0.17637 0.56688 0.0
In91 In 0.82401 0.92617 0.57345 0.0
O92 O 0.79415 0.92475 0.56677 0.0
O93 O 0.8026 0.91262 0.59161 0.0
C94 C 0.82752 0.92632 0.53713 0.0
C95 C 0.82493 0.96132 0.58355 0.0
C96 C 0.8501 0.90364 0.58599 0.0
O97 O 0.81724 0.91539 0.54532 0.0
O98 O 0.83631 0.93698 0.54721 0.0
O99 O 0.84663 0.91851 0.59363 0.0
O100 O 0.84011 0.89995 0.57271 0.0
C101 C 0.78971 0.91635 0.58095 0.0
O102 O 0.83567 0.95473 0.57203 0.0
O103 O 0.81436 0.95003 0.59082 0.0
In104 In 0.42268 0.07252 0.18323 0.0
O105 O 0.45013 0.08054 0.19482 0.0
O106 O 0.4496 0.06833 0.16866 0.0
C107 C 0.41181 0.07923 0.21752 0.0
C108 C 0.41303 0.09622 0.15707 0.0
C109 C 0.41304 0.03784 0.17707 0.0
O110 O 0.42178 0.06608 0.21325 0.0
O111 O 0.4066 0.08892 0.20442 0.0
O112 O 0.4013 0.05009 0.17943 0.0
O113 O 0.42925 0.0432 0.17736 0.0
C114 C 0.45899 0.07508 0.18126 0.0
O115 O 0.40633 0.08051 0.15795 0.0
O116 O 0.42373 0.10021 0.16973 0.0
In117 In 0.92492 0.42234 0.17624 0.0
O118 O 0.9106 0.43131 0.20215 0.0
O119 O 0.92577 0.40699 0.20342 0.0
C120 C 0.92469 0.45876 0.17295 0.0
C121 C 0.95895 0.40988 0.17104 0.0
C122 C 0.90168 0.40894 0.15129 0.0
O123 O 0.93704 0.4503 0.18125 0.0
O124 O 0.9124 0.44892 0.16626 0.0
O125 O 0.91606 0.41712 0.14709 0.0
O126 O 0.89957 0.40636 0.16807 0.0
C127 C 0.91637 0.4185 0.2118 0.0
O128 O 0.9462 0.39959 0.17594 0.0
O129 O 0.95435 0.42598 0.1678 0.0
In130 In 0.57722 0.93038 0.17307 0.0
O131 O 0.54844 0.93545 0.1827 0.0
O132 O 0.55171 0.92142 0.15771 0.0
C133 C 0.58538 0.92353 0.20811 0.0
C134 C 0.59276 0.90609 0.15014 0.0
C135 C 0.5851 0.96586 0.16798 0.0
O136 O 0.56962 0.92195 0.20176 0.0
O137 O 0.59741 0.92744 0.19659 0.0
O138 O 0.59614 0.95506 0.17523 0.0
O139 O 0.57058 0.95869 0.16269 0.0
C140 C 0.54094 0.92787 0.16935 0.0
O141 O 0.59102 0.92268 0.14644 0.0
O142 O 0.58638 0.90186 0.16545 0.0
In143 In 0.07388 0.57436 0.17909 0.0
O144 O 0.09354 0.57097 0.2029 0.0
O145 O 0.0693 0.58565 0.20764 0.0
C146 C 0.07513 0.53797 0.17772 0.0
C147 C 0.03989 0.58565 0.17153 0.0
C148 C 0.09627 0.58813 0.15368 0.0
O149 O 0.06298 0.5464 0.18627 0.0
O150 O 0.08665 0.54776 0.16976 0.0
O151 O 0.08502 0.57571 0.15043 0.0
O152 O 0.09545 0.59462 0.1695 0.0
C153 C 0.08361 0.57904 0.21419 0.0
O154 O 0.05248 0.59671 0.17502 0.0
O155 O 0.04466 0.56929 0.17097 0.0
In156 In 0.42242 0.92873 0.82446 0.0
O157 O 0.42276 0.91973 0.85408 0.0
O158 O 0.40588 0.90513 0.83597 0.0
C159 C 0.40841 0.96239 0.82918 0.0
C160 C 0.45844 0.92332 0.82585 0.0
C161 C 0.41733 0.92139 0.78893 0.0
O162 O 0.39862 0.94912 0.82471 0.0
O163 O 0.42477 0.95853 0.83193 0.0
O164 O 0.43017 0.931 0.79472 0.0
O165 O 0.40665 0.91556 0.80093 0.0
C166 C 0.41226 0.90648 0.85175 0.0
O167 O 0.45132 0.93868 0.82819 0.0
O168 O 0.44745 0.91052 0.82294 0.0
In169 In 0.07519 0.42888 0.82525 0.0
O170 O 0.09225 0.43562 0.80036 0.0
O171 O 0.07294 0.41445 0.7978 0.0
C172 C 0.07445 0.4649 0.83069 0.0
C173 C 0.04054 0.41747 0.82723 0.0
C174 C 0.09832 0.41553 0.85038 0.0
O175 O 0.08674 0.45723 0.82165 0.0
O176 O 0.06258 0.45448 0.83723 0.0
O177 O 0.08752 0.42834 0.85344 0.0
O178 O 0.09693 0.40858 0.83481 0.0
C179 C 0.0845 0.4244 0.79009 0.0
O180 O 0.0532 0.4091 0.8352 0.0
O181 O 0.04541 0.43114 0.81824 0.0
In182 In 0.57243 0.07097 0.8254 0.0
O183 O 0.59099 0.07907 0.84909 0.0
O184 O 0.57215 0.09847 0.83919 0.0
C185 C 0.5823 0.03634 0.83155 0.0
C186 C 0.53594 0.07285 0.82682 0.0
C187 C 0.58298 0.07838 0.79115 0.0
O188 O 0.5938 0.04847 0.82779 0.0
O189 O 0.56623 0.04189 0.83311 0.0
O190 O 0.57557 0.06373 0.79571 0.0
O191 O 0.58573 0.08938 0.80395 0.0
C192 C 0.58416 0.09467 0.8507 0.0
O193 O 0.54475 0.07538 0.81241 0.0
O194 O 0.54548 0.0695 0.84062 0.0
In195 In 0.92991 0.57729 0.82317 0.0
O196 O 0.95087 0.59749 0.83474 0.0
O197 O 0.9599 0.57726 0.8164 0.0
C198 C 0.90528 0.58484 0.84923 0.0
C199 C 0.921 0.58639 0.78895 0.0
C200 C 0.9287 0.541 0.82599 0.0
O201 O 0.9196 0.57608 0.85223 0.0
O202 O 0.90355 0.59053 0.83321 0.0
O203 O 0.91694 0.54993 0.81739 0.0
O204 O 0.94114 0.55027 0.83321 0.0
C205 C 0.96404 0.59036 0.82646 0.0
O206 O 0.925 0.57052 0.79377 0.0
O207 O 0.92112 0.59802 0.80152 0.0
In208 In 0.1715 0.42586 0.07197 0.0
O209 O 0.16802 0.4018 0.05229 0.0
O210 O 0.16503 0.42851 0.04204 0.0
C211 C 0.14508 0.41681 0.09575 0.0
C212 C 0.20721 0.41851 0.07523 0.0
C213 C 0.17083 0.46203 0.07683 0.0
O214 O 0.14179 0.42327 0.08029 0.0
O215 O 0.16163 0.41411 0.09902 0.0
O216 O 0.17634 0.45129 0.08896 0.0
O217 O 0.16543 0.45455 0.06244 0.0
C218 C 0.16538 0.41181 0.03866 0.0
O219 O 0.20113 0.43253 0.06767 0.0
O220 O 0.19528 0.4078 0.08124 0.0
In221 In 0.18215 0.57807 0.92801 0.0
O222 O 0.21217 0.58014 0.9345 0.0
O223 O 0.20342 0.59177 0.90965 0.0
C224 C 0.18017 0.54163 0.92669 0.0
C225 C 0.17575 0.5887 0.96243 0.0
C226 C 0.15656 0.58909 0.90431 0.0
O227 O 0.19455 0.55018 0.92315 0.0
O228 O 0.16675 0.55136 0.93086 0.0
O229 O 0.15888 0.59685 0.91937 0.0
O230 O 0.16755 0.57649 0.90093 0.0
C231 C 0.21649 0.58817 0.92009 0.0
O232 O 0.17998 0.59988 0.95019 0.0
O233 O 0.17424 0.57252 0.95724 0.0
In234 In 0.42383 0.17802 0.92767 0.0
O235 O 0.42513 0.15001 0.91499 0.0
O236 O 0.40524 0.16819 0.90476 0.0
C237 C 0.41333 0.17197 0.96224 0.0
C238 C 0.46019 0.17608 0.92543 0.0
C239 C 0.41427 0.21235 0.91944 0.0
O240 O 0.40885 0.16152 0.94947 0.0
O241 O 0.42247 0.18558 0.95752 0.0
O242 O 0.4303 0.20661 0.91844 0.0
O243 O 0.40266 0.20063 0.92404 0.0
C244 C 0.41269 0.15284 0.90367 0.0
O245 O 0.4504 0.17997 0.91197 0.0
O246 O 0.45176 0.17306 0.93999 0.0
In247 In 0.82179 0.42084 0.9269 0.0
O248 O 0.79215 0.42794 0.92263 0.0
O249 O 0.80009 0.40138 0.91523 0.0
C250 C 0.82438 0.45729 0.92789 0.0
C251 C 0.82722 0.40747 0.96058 0.0
C252 C 0.84884 0.41188 0.90399 0.0
O253 O 0.81545 0.44839 0.93943 0.0
O254 O 0.83213 0.44789 0.91591 0.0
O255 O 0.84968 0.40865 0.92077 0.0
O256 O 0.83403 0.41854 0.89867 0.0
C257 C 0.78741 0.41276 0.9166 0.0
O258 O 0.82077 0.3979 0.94796 0.0
O259 O 0.83168 0.42329 0.95598 0.0
In260 In 0.57991 0.82532 0.92841 0.0
O261 O 0.55061 0.81635 0.92551 0.0
O262 O 0.55547 0.84452 0.92945 0.0
C263 C 0.59047 0.79085 0.92244 0.0
C264 C 0.59351 0.84653 0.9014 0.0
C265 C 0.588 0.8298 0.96384 0.0
O266 O 0.57492 0.79669 0.91853 0.0
O267 O 0.6012 0.80257 0.92882 0.0
O268 O 0.59909 0.83395 0.9515 0.0
O269 O 0.57313 0.82348 0.95837 0.0
C270 C 0.54402 0.83198 0.92733 0.0
O271 O 0.59274 0.85145 0.91774 0.0
O272 O 0.58696 0.83099 0.89879 0.0
In273 In 0.82006 0.57196 0.07359 0.0
O274 O 0.79898 0.5837 0.09342 0.0
O275 O 0.78982 0.57322 0.0682 0.0
C276 C 0.8242 0.5357 0.0743 0.0
C277 C 0.82418 0.58336 0.03915 0.0
C278 C 0.84632 0.58388 0.096 0.0
O279 O 0.80959 0.54338 0.07876 0.0
O280 O 0.83676 0.54625 0.06949 0.0
O281 O 0.84318 0.59144 0.081 0.0
O282 O 0.83581 0.57105 0.09999 0.0
C283 C 0.78572 0.5802 0.0832 0.0
O284 O 0.82074 0.59429 0.05188 0.0
O285 O 0.82601 0.56706 0.04387 0.0
In286 In 0.42327 0.8178 0.07649 0.0
O287 O 0.40749 0.84332 0.08458 0.0
O288 O 0.42361 0.83038 0.10463 0.0
C289 C 0.41356 0.8252 0.04207 0.0
C290 C 0.45952 0.82012 0.07991 0.0
C291 C 0.41235 0.78323 0.08143 0.0
O292 O 0.40189 0.82352 0.05451 0.0
O293 O 0.4298 0.82342 0.04706 0.0
O294 O 0.42324 0.78802 0.06922 0.0
O295 O 0.40618 0.79597 0.09103 0.0
C296 C 0.41353 0.84352 0.10056 0.0
O297 O 0.45049 0.8072 0.08653 0.0
O298 O 0.45033 0.8319 0.07161 0.0
In299 In 0.57738 0.17623 0.0732 0.0
O300 O 0.59772 0.15506 0.08355 0.0
O301 O 0.57713 0.16425 0.10148 0.0
C302 C 0.58929 0.17147 0.03882 0.0
C303 C 0.54158 0.16935 0.0742 0.0
C304 C 0.58218 0.2116 0.08108 0.0
O305 O 0.59921 0.17831 0.05096 0.0
O306 O 0.57395 0.16634 0.04422 0.0
O307 O 0.57122 0.20599 0.06928 0.0
O308 O 0.59118 0.19941 0.08901 0.0
C309 C 0.5903 0.1537 0.09891 0.0
O310 O 0.54804 0.18508 0.07569 0.0
O311 O 0.5531 0.15686 0.07212 0.0
In312 In 0.92827 0.82448 0.57285 0.0
O313 O 0.91698 0.80296 0.59245 0.0
O314 O 0.92921 0.79433 0.56777 0.0
C315 C 0.90532 0.85024 0.58524 0.0
C316 C 0.96397 0.8275 0.58031 0.0
C317 C 0.92464 0.82691 0.53673 0.0
O318 O 0.90045 0.83761 0.57491 0.0
O319 O 0.92169 0.84959 0.59012 0.0
O320 O 0.93375 0.83826 0.54572 0.0
O321 O 0.917 0.81469 0.54592 0.0
C322 C 0.92142 0.78993 0.58228 0.0
O323 O 0.95705 0.83227 0.56548 0.0
O324 O 0.95285 0.82163 0.59191 0.0
In325 In 0.17905 0.92901 0.57433 0.0
O326 O 0.17107 0.95834 0.56977 0.0
O327 O 0.17871 0.9508 0.59655 0.0
C328 C 0.17506 0.92767 0.53811 0.0
C329 C 0.21396 0.92222 0.58274 0.0
C330 C 0.15446 0.90466 0.58624 0.0
O331 O 0.16274 0.93355 0.5484 0.0
O332 O 0.1893 0.92245 0.54599 0.0
O333 O 0.16599 0.90114 0.57418 0.0
O334 O 0.15568 0.92031 0.59301 0.0
C335 C 0.17395 0.96329 0.58585 0.0
O336 O 0.2013 0.91214 0.58826 0.0
O337 O 0.20904 0.93564 0.57345 0.0
In338 In 0.07199 0.17673 0.57476 0.0
O339 O 0.08248 0.19842 0.59458 0.0
O340 O 0.07407 0.20657 0.56822 0.0
C341 C 0.09565 0.15086 0.58529 0.0
C342 C 0.03704 0.17559 0.58554 0.0
C343 C 0.07381 0.17055 0.5389 0.0
O344 O 0.10063 0.16604 0.57931 0.0
O345 O 0.07874 0.14892 0.58682 0.0
O346 O 0.06388 0.16123 0.54923 0.0
O347 O 0.08293 0.18279 0.54656 0.0
C348 C 0.08031 0.2112 0.5834 0.0
O349 O 0.04179 0.1776 0.5693 0.0
O350 O 0.0499 0.17402 0.59674 0.0
In351 In 0.82123 0.07354 0.56869 0.0
O352 O 0.79987 0.08145 0.59004 0.0
O353 O 0.79148 0.07749 0.56272 0.0
C354 C 0.84714 0.09771 0.57798 0.0
C355 C 0.82249 0.03867 0.57953 0.0
C356 C 0.82612 0.0744 0.53258 0.0
O357 O 0.83118 0.10236 0.57411 0.0
O358 O 0.84994 0.08087 0.57793 0.0
O359 O 0.8356 0.06451 0.54283 0.0
O360 O 0.81457 0.08417 0.54055 0.0
C361 C 0.78698 0.08115 0.57875 0.0
O362 O 0.81775 0.04351 0.56389 0.0
O363 O 0.8266 0.05147 0.59014 0.0
In364 In 0.92737 0.17605 0.41976 0.0
O365 O 0.95571 0.16454 0.42399 0.0
O366 O 0.9498 0.17507 0.39797 0.0
C367 C 0.92696 0.17456 0.45625 0.0
C368 C 0.92044 0.21093 0.41114 0.0
C369 C 0.90006 0.15373 0.40969 0.0
O370 O 0.93606 0.18616 0.44761 0.0
O371 O 0.91813 0.16358 0.44658 0.0
O372 O 0.89784 0.17045 0.41235 0.0
O373 O 0.91624 0.14834 0.41113 0.0
C374 C 0.96152 0.16838 0.40846 0.0
O375 O 0.92131 0.19871 0.39919 0.0
O376 O 0.9225 0.20545 0.42716 0.0
In377 In 0.8234 0.927 0.42254 0.0
O378 O 0.80158 0.91699 0.40249 0.0
O379 O 0.79404 0.92143 0.42987 0.0
C380 C 0.8479 0.90183 0.41244 0.0
C381 C 0.8285 0.96135 0.41046 0.0
C382 C 0.82697 0.92756 0.45887 0.0
O383 O 0.83317 0.89781 0.42015 0.0
O384 O 0.84996 0.91847 0.40905 0.0
O385 O 0.81312 0.9336 0.45086 0.0
O386 O 0.83923 0.92148 0.44861 0.0
C387 C 0.78909 0.91701 0.41418 0.0
O388 O 0.83219 0.95637 0.42633 0.0
O389 O 0.82282 0.94889 0.40027 0.0
In390 In 0.06833 0.81963 0.42402 0.0
O391 O 0.07786 0.7953 0.40701 0.0
O392 O 0.06557 0.79041 0.43269 0.0
C393 C 0.09458 0.84288 0.41323 0.0
C394 C 0.0343 0.82366 0.4111 0.0
C395 C 0.07189 0.82482 0.45997 0.0
O396 O 0.09718 0.8261 0.41482 0.0
O397 O 0.07847 0.84788 0.41593 0.0
O398 O 0.06237 0.83514 0.45023 0.0
O399 O 0.07973 0.81215 0.45165 0.0
C400 C 0.07296 0.78384 0.41877 0.0
O401 O 0.03818 0.82413 0.42768 0.0
O402 O 0.04764 0.82152 0.4006 0.0
In403 In 0.17753 0.06454 0.42634 0.0
O404 O 0.17024 0.03484 0.42856 0.0
O405 O 0.17369 0.04525 0.40196 0.0
C406 C 0.17634 0.06926 0.46254 0.0
C407 C 0.21342 0.06791 0.41997 0.0
C408 C 0.1523 0.08943 0.41697 0.0
O409 O 0.16994 0.05541 0.45484 0.0
O410 O 0.1831 0.08091 0.45201 0.0
O411 O 0.16896 0.09158 0.41385 0.0
O412 O 0.14819 0.07439 0.42392 0.0
C413 C 0.17049 0.03164 0.41182 0.0
O414 O 0.20172 0.07511 0.40977 0.0
O415 O 0.20706 0.05864 0.43281 0.0
In416 In 0.57288 0.92427 0.82299 0.0
O417 O 0.59297 0.90201 0.83112 0.0
O418 O 0.57299 0.90984 0.85031 0.0
C419 C 0.5822 0.91752 0.78829 0.0
C420 C 0.53658 0.92118 0.82551 0.0
C421 C 0.58259 0.95914 0.82898 0.0
O422 O 0.59393 0.92113 0.80024 0.0
O423 O 0.56613 0.91677 0.79398 0.0
O424 O 0.57404 0.95405 0.81514 0.0
O425 O 0.58682 0.94661 0.83981 0.0
C426 C 0.58613 0.89962 0.8466 0.0
O427 O 0.54499 0.9351 0.83079 0.0
O428 O 0.54642 0.90864 0.81932 0.0
In429 In 0.07505 0.57878 0.82655 0.0
O430 O 0.0879 0.59551 0.80351 0.0
O431 O 0.07275 0.57185 0.79684 0.0
C432 C 0.09996 0.58952 0.85123 0.0
C433 C 0.0407 0.59108 0.82928 0.0
C434 C 0.0754 0.54275 0.83167 0.0
O435 O 0.10384 0.5799 0.83771 0.0
O436 O 0.08366 0.59459 0.85196 0.0
O437 O 0.06754 0.55334 0.84256 0.0
O438 O 0.08322 0.55026 0.81847 0.0
C439 C 0.08207 0.58501 0.79129 0.0
O440 O 0.04537 0.57529 0.83367 0.0
O441 O 0.05347 0.60121 0.82405 0.0
In442 In 0.4211 0.07267 0.82398 0.0
O443 O 0.40785 0.09932 0.83233 0.0
O444 O 0.41783 0.08233 0.85329 0.0
C445 C 0.41578 0.08183 0.78893 0.0
C446 C 0.45757 0.07372 0.82566 0.0
C447 C 0.40718 0.03908 0.82939 0.0
O448 O 0.40331 0.08307 0.80056 0.0
O449 O 0.43068 0.07612 0.79496 0.0
O450 O 0.42202 0.04423 0.83598 0.0
O451 O 0.3985 0.05126 0.82114 0.0
C452 C 0.41083 0.09732 0.84903 0.0
O453 O 0.44897 0.06006 0.82 0.0
O454 O 0.44783 0.08698 0.83034 0.0
In455 In 0.92853 0.42656 0.82422 0.0
O456 O 0.91663 0.40769 0.80242 0.0
O457 O 0.92981 0.43203 0.79411 0.0
C458 C 0.90479 0.41537 0.84986 0.0
C459 C 0.96349 0.41607 0.82719 0.0
C460 C 0.92654 0.46287 0.82703 0.0
O461 O 0.89993 0.42343 0.83565 0.0
O462 O 0.92155 0.41231 0.85099 0.0
O463 O 0.93516 0.45333 0.83829 0.0
O464 O 0.91855 0.45414 0.81471 0.0
C465 C 0.92139 0.41792 0.78953 0.0
O466 O 0.958 0.43164 0.83139 0.0
O467 O 0.9513 0.40531 0.82185 0.0
In468 In 0.57363 0.07859 0.17949 0.0
O469 O 0.54654 0.06388 0.18025 0.0
O470 O 0.5461 0.09261 0.17738 0.0
C471 C 0.58379 0.04374 0.17416 0.0
C472 C 0.58843 0.10134 0.15477 0.0
C473 C 0.57821 0.08845 0.21442 0.0
O474 O 0.57616 0.053 0.162 0.0
O475 O 0.58717 0.05226 0.18854 0.0
O476 O 0.59084 0.08136 0.2053 0.0
O477 O 0.56376 0.09124 0.20577 0.0
C478 C 0.53715 0.07807 0.17859 0.0
O479 O 0.59554 0.09893 0.17012 0.0
O480 O 0.57461 0.09186 0.15181 0.0
In481 In 0.92826 0.5735 0.17294 0.0
O482 O 0.95789 0.5686 0.16621 0.0
O483 O 0.95042 0.59539 0.17383 0.0
C484 C 0.92576 0.53713 0.17084 0.0
C485 C 0.92179 0.58286 0.2076 0.0
C486 C 0.90423 0.58389 0.14725 0.0
O487 O 0.93598 0.54615 0.1605 0.0
O488 O 0.91661 0.54643 0.18187 0.0
O489 O 0.89967 0.57592 0.16159 0.0
O490 O 0.9209 0.58739 0.14601 0.0
C491 C 0.96294 0.58459 0.16937 0.0
O492 O 0.91645 0.5926 0.19458 0.0
O493 O 0.93044 0.56885 0.20316 0.0
In494 In 0.42689 0.92669 0.17708 0.0
O495 O 0.42062 0.89761 0.16846 0.0
O496 O 0.41709 0.91841 0.1489 0.0
C497 C 0.41849 0.91954 0.21189 0.0
C498 C 0.46279 0.92604 0.17036 0.0
C499 C 0.41486 0.96117 0.17488 0.0
O500 O 0.40665 0.91896 0.19952 0.0
O501 O 0.43424 0.92349 0.20667 0.0
O502 O 0.43057 0.95701 0.18008 0.0
O503 O 0.40484 0.94793 0.17073 0.0
C504 C 0.41672 0.9017 0.15236 0.0
O505 O 0.45208 0.93629 0.16183 0.0
O506 O 0.4554 0.91584 0.18189 0.0
In507 In 0.06881 0.42368 0.18035 0.0
O508 O 0.07881 0.40526 0.20365 0.0
O509 O 0.068 0.43112 0.2101 0.0
C510 C 0.09122 0.41482 0.15273 0.0
C511 C 0.0354 0.41017 0.17436 0.0
C512 C 0.07221 0.45995 0.1784 0.0
O513 O 0.09643 0.41528 0.169 0.0
O514 O 0.07454 0.41775 0.15046 0.0
O515 O 0.05701 0.45211 0.17858 0.0
O516 O 0.08575 0.44954 0.17915 0.0
C517 C 0.07486 0.41661 0.21582 0.0
O518 O 0.03936 0.42665 0.17246 0.0
O519 O 0.0485 0.40003 0.17876 0.0
In520 In 0.82355 0.57193 0.92784 0.0
O521 O 0.79552 0.56473 0.91781 0.0
O522 O 0.79937 0.59175 0.92694 0.0
C523 C 0.84939 0.58227 0.90392 0.0
C524 C 0.8258 0.58312 0.96251 0.0
C525 C 0.82655 0.53558 0.9272 0.0
O526 O 0.83277 0.58508 0.90117 0.0
O527 O 0.85301 0.57496 0.91889 0.0
O528 O 0.83431 0.54512 0.93909 0.0
O529 O 0.81775 0.54434 0.91546 0.0
C530 C 0.78852 0.57995 0.92094 0.0
O531 O 0.8193 0.56803 0.95793 0.0
O532 O 0.83122 0.59296 0.94958 0.0
In533 In 0.82452 0.42113 0.07071 0.0
O534 O 0.8016 0.4122 0.09 0.0
O535 O 0.7946 0.42652 0.06607 0.0
C536 C 0.84949 0.40783 0.0937 0.0
C537 C 0.83003 0.40664 0.03749 0.0
C538 C 0.82687 0.45754 0.07377 0.0
O539 O 0.83404 0.40064 0.09194 0.0
O540 O 0.85275 0.42075 0.08297 0.0
O541 O 0.82053 0.44974 0.05998 0.0
O542 O 0.83232 0.447 0.08606 0.0
C543 C 0.78922 0.41897 0.08035 0.0
O544 O 0.83706 0.42134 0.0425 0.0
O545 O 0.82157 0.39827 0.04975 0.0
In546 In 0.57345 0.82519 0.0752 0.0
O547 O 0.54483 0.8342 0.06819 0.0
O548 O 0.54825 0.81714 0.09125 0.0
C549 C 0.58474 0.83108 0.04079 0.0
C550 C 0.58696 0.85132 0.09703 0.0
C551 C 0.57947 0.78967 0.08148 0.0
O552 O 0.56833 0.83074 0.04541 0.0
O553 O 0.59583 0.82912 0.05368 0.0
O554 O 0.58371 0.80172 0.09284 0.0
O555 O 0.57297 0.79555 0.06684 0.0
C556 C 0.53748 0.82548 0.08091 0.0
O557 O 0.59578 0.83722 0.09314 0.0
O558 O 0.57171 0.85258 0.08948 0.0
In559 In 0.17557 0.57625 0.07396 0.0
O560 O 0.1643 0.57418 0.04524 0.0
O561 O 0.17921 0.59782 0.05172 0.0
C562 C 0.17335 0.54009 0.07819 0.0
C563 C 0.21125 0.5811 0.08056 0.0
C564 C 0.15039 0.58841 0.09777 0.0
O565 O 0.17355 0.54762 0.06285 0.0
O566 O 0.1743 0.55072 0.09157 0.0
O567 O 0.16698 0.59215 0.09912 0.0
O568 O 0.14622 0.57968 0.0837 0.0
C569 C 0.17123 0.58872 0.03968 0.0
O570 O 0.19983 0.5936 0.08296 0.0
O571 O 0.20473 0.56636 0.07501 0.0
In572 In 0.42776 0.17156 0.07302 0.0
O573 O 0.45382 0.15822 0.06326 0.0
O574 O 0.45547 0.17599 0.08599 0.0
C575 C 0.41539 0.16752 0.03887 0.0
C576 C 0.41669 0.14726 0.09817 0.0
C577 C 0.42145 0.20749 0.07602 0.0
O578 O 0.43195 0.16733 0.04298 0.0
O579 O 0.40465 0.16911 0.05213 0.0
O580 O 0.40936 0.19594 0.07972 0.0
O581 O 0.43643 0.20092 0.07121 0.0
C582 C 0.4637 0.16586 0.07494 0.0
O583 O 0.42121 0.16323 0.10217 0.0
O584 O 0.4168 0.1438 0.08145 0.0
In585 In 0.17693 0.42698 0.92982 0.0
O586 O 0.16396 0.42794 0.95773 0.0
O587 O 0.17727 0.40356 0.95045 0.0
C588 C 0.1767 0.4634 0.92765 0.0
C589 C 0.21282 0.42315 0.92325 0.0
C590 C 0.15148 0.41507 0.9063 0.0
O591 O 0.17393 0.455 0.94227 0.0
O592 O 0.17931 0.4535 0.91394 0.0
O593 O 0.1651 0.40563 0.91047 0.0
O594 O 0.15025 0.42992 0.91459 0.0
C595 C 0.1691 0.41243 0.96258 0.0
O596 O 0.20097 0.41776 0.91217 0.0
O597 O 0.20663 0.42997 0.9376 0.0
In598 In 0.57462 0.17572 0.92839 0.0
O599 O 0.54653 0.16626 0.9369 0.0
O600 O 0.54839 0.1841 0.91423 0.0
C601 C 0.58786 0.17067 0.96224 0.0
C602 C 0.58537 0.14867 0.90607 0.0
C603 C 0.58093 0.21083 0.92019 0.0
O604 O 0.57123 0.17142 0.95864 0.0
O605 O 0.59822 0.17195 0.94869 0.0
O606 O 0.58507 0.19814 0.90951 0.0
O607 O 0.5743 0.2058 0.9351 0.0
C608 C 0.53835 0.17517 0.92482 0.0
O609 O 0.59532 0.16217 0.90935 0.0
O610 O 0.57065 0.14841 0.91467 0.0
In611 In 0.42979 0.82905 0.93189 0.0
O612 O 0.45612 0.84383 0.9386 0.0
O613 O 0.45774 0.82027 0.92201 0.0
C614 C 0.41692 0.83283 0.96598 0.0
C615 C 0.4163 0.85417 0.90886 0.0
C616 C 0.4248 0.79395 0.92272 0.0
O617 O 0.43352 0.83177 0.96227 0.0
O618 O 0.40647 0.83267 0.95244 0.0
O619 O 0.42429 0.80652 0.91114 0.0
O620 O 0.42747 0.79908 0.93878 0.0
C621 C 0.46605 0.83295 0.92991 0.0
O622 O 0.40726 0.84043 0.91351 0.0
O623 O 0.43157 0.85556 0.91627 0.0
In624 In 0.57789 0.67954 0.92388 0.0
O625 O 0.57543 0.70967 0.92918 0.0
O626 O 0.59716 0.70122 0.91222 0.0
C627 C 0.57849 0.67836 0.96028 0.0
C628 C 0.54408 0.67629 0.90998 0.0
C629 C 0.59867 0.65169 0.91198 0.0
O630 O 0.59261 0.68142 0.95105 0.0
O631 O 0.5642 0.67585 0.95121 0.0
O632 O 0.59335 0.66405 0.90144 0.0
O633 O 0.59312 0.65316 0.92801 0.0
C634 C 0.58895 0.71416 0.91981 0.0
O635 O 0.5495 0.6673 0.92343 0.0
O636 O 0.55604 0.68605 0.90266 0.0
In637 In 0.32768 0.57758 0.92397 0.0
O638 O 0.30591 0.59909 0.91769 0.0
O639 O 0.29844 0.57137 0.91644 0.0
C640 C 0.32779 0.57558 0.96042 0.0
C641 C 0.33503 0.54371 0.91211 0.0
C642 C 0.35375 0.60154 0.91436 0.0
O643 O 0.31356 0.57849 0.95138 0.0
O644 O 0.34203 0.57366 0.9511 0.0
O645 O 0.34673 0.5909 0.90295 0.0
O646 O 0.34746 0.60026 0.93015 0.0
C647 C 0.29341 0.58763 0.91549 0.0
O648 O 0.33348 0.55688 0.90131 0.0
O649 O 0.33359 0.54778 0.9286 0.0
In650 In 0.42336 0.32448 0.9198 0.0
O651 O 0.4266 0.29474 0.9264 0.0
O652 O 0.408 0.30142 0.90537 0.0
C653 C 0.42332 0.32912 0.95592 0.0
C654 C 0.45788 0.32757 0.90789 0.0
C655 C 0.39908 0.34923 0.90759 0.0
O656 O 0.41454 0.31665 0.9482 0.0
O657 O 0.43193 0.33959 0.94545 0.0
O658 O 0.41315 0.34531 0.89873 0.0
O659 O 0.39706 0.34027 0.92192 0.0
C660 C 0.41536 0.2892 0.91483 0.0
O661 O 0.44591 0.31922 0.89897 0.0
O662 O 0.45225 0.3351 0.92213 0.0
In663 In 0.67657 0.42319 0.92433 0.0
O664 O 0.6637 0.45083 0.92886 0.0
O665 O 0.68195 0.44826 0.90668 0.0
C666 C 0.64907 0.40235 0.91204 0.0
C667 C 0.7107 0.41347 0.91493 0.0
C668 C 0.67495 0.42114 0.96084 0.0
O669 O 0.64905 0.41936 0.91037 0.0
O670 O 0.66336 0.39583 0.91873 0.0
O671 O 0.68246 0.43406 0.95257 0.0
O672 O 0.66823 0.40908 0.95077 0.0
C673 C 0.67181 0.45849 0.91592 0.0
O674 O 0.7058 0.41644 0.93096 0.0
O675 O 0.6982 0.41469 0.90328 0.0
In676 In 0.5701 0.32275 0.07288 0.0
O677 O 0.58208 0.29496 0.06781 0.0
O678 O 0.57044 0.29974 0.09378 0.0
C679 C 0.57126 0.32559 0.03651 0.0
C680 C 0.53533 0.32866 0.08283 0.0
C681 C 0.59671 0.34564 0.08312 0.0
O682 O 0.56817 0.31083 0.04453 0.0
O683 O 0.57369 0.33905 0.04675 0.0
O684 O 0.58115 0.35102 0.07859 0.0
O685 O 0.59864 0.32867 0.08349 0.0
C686 C 0.57784 0.2886 0.08307 0.0
O687 O 0.54831 0.33106 0.09371 0.0
O688 O 0.53988 0.32361 0.06722 0.0
In689 In 0.67493 0.56997 0.07659 0.0
O690 O 0.70516 0.56841 0.07218 0.0
O691 O 0.69626 0.58184 0.09613 0.0
C692 C 0.67113 0.57142 0.0403 0.0
C693 C 0.67057 0.53571 0.08863 0.0
C694 C 0.65013 0.59565 0.08485 0.0
O695 O 0.68495 0.57736 0.04838 0.0
O696 O 0.65905 0.56488 0.05049 0.0
O697 O 0.64697 0.57898 0.08677 0.0
O698 O 0.66593 0.5994 0.07955 0.0
C699 C 0.70942 0.57685 0.08637 0.0
O700 O 0.67013 0.54904 0.09934 0.0
O701 O 0.67295 0.53972 0.07224 0.0
In702 In 0.42766 0.67297 0.0736 0.0
O703 O 0.44741 0.66858 0.09745 0.0
O704 O 0.4581 0.67138 0.07079 0.0
C705 C 0.40531 0.64566 0.08367 0.0
C706 C 0.41539 0.7064 0.08181 0.0
C707 C 0.42831 0.67301 0.03686 0.0
O708 O 0.42036 0.6431 0.07605 0.0
O709 O 0.4018 0.662 0.08722 0.0
O710 O 0.42788 0.68731 0.0461 0.0
O711 O 0.42844 0.65865 0.04602 0.0
C712 C 0.46127 0.66915 0.08739 0.0
O713 O 0.40511 0.69416 0.07565 0.0
O714 O 0.43144 0.70138 0.08499 0.0
In715 In 0.32079 0.423 0.07226 0.0
O716 O 0.2952 0.40693 0.06582 0.0
O717 O 0.29351 0.42682 0.08659 0.0
C718 C 0.32601 0.4254 0.03617 0.0
C719 C 0.32489 0.45699 0.08492 0.0
C720 C 0.34388 0.3974 0.08472 0.0
O721 O 0.31447 0.41493 0.04317 0.0
O722 O 0.33524 0.43447 0.04733 0.0
O723 O 0.34777 0.40819 0.07213 0.0
O724 O 0.32846 0.39976 0.09172 0.0
C725 C 0.2853 0.41535 0.07692 0.0
O726 O 0.33213 0.44362 0.09282 0.0
O727 O 0.31556 0.45312 0.07116 0.0
In728 In 0.92684 0.5731 0.67864 0.0
O729 O 0.90767 0.58347 0.65624 0.0
O730 O 0.9303 0.59963 0.66366 0.0
C731 C 0.91441 0.53896 0.67396 0.0
C732 C 0.96322 0.57257 0.67619 0.0
C733 C 0.9183 0.58294 0.7128 0.0
O734 O 0.9042 0.55162 0.67925 0.0
O735 O 0.93035 0.54372 0.67016 0.0
O736 O 0.92693 0.56872 0.70905 0.0
O737 O 0.9134 0.59223 0.6993 0.0
C738 C 0.91675 0.59771 0.65347 0.0
O739 O 0.95503 0.57631 0.69071 0.0
O740 O 0.95315 0.56901 0.66282 0.0
In741 In 0.43328 0.92711 0.67811 0.0
O742 O 0.42768 0.93425 0.70735 0.0
O743 O 0.42496 0.90648 0.70017 0.0
C744 C 0.43313 0.96351 0.6756 0.0
C745 C 0.46671 0.91272 0.67382 0.0
C746 C 0.40895 0.92029 0.65162 0.0
O747 O 0.41998 0.95461 0.68191 0.0
O748 O 0.44644 0.95411 0.67038 0.0
O749 O 0.42405 0.92773 0.64871 0.0
O750 O 0.40637 0.91535 0.66779 0.0
C751 C 0.42413 0.9184 0.71246 0.0
O752 O 0.45311 0.90646 0.66556 0.0
O753 O 0.46335 0.9256 0.68447 0.0
In754 In 0.07569 0.42996 0.67649 0.0
O755 O 0.07877 0.41878 0.64784 0.0
O756 O 0.08743 0.40206 0.66961 0.0
C757 C 0.08874 0.46366 0.67087 0.0
C758 C 0.03964 0.42691 0.67238 0.0
C759 C 0.08303 0.42645 0.71212 0.0
O760 O 0.09858 0.44985 0.6686 0.0
O761 O 0.07269 0.46041 0.67553 0.0
O762 O 0.06802 0.43189 0.70611 0.0
O763 O 0.09471 0.42266 0.70018 0.0
C764 C 0.08489 0.40364 0.65278 0.0
O765 O 0.0485 0.41672 0.68288 0.0
O766 O 0.04891 0.43836 0.66371 0.0
In767 In 0.57805 0.07175 0.67912 0.0
O768 O 0.59716 0.07986 0.70235 0.0
O769 O 0.56906 0.07727 0.7081 0.0
C770 C 0.58359 0.03569 0.67847 0.0
C771 C 0.54333 0.08106 0.67257 0.0
C772 C 0.59901 0.08493 0.65226 0.0
O773 O 0.59322 0.04619 0.68788 0.0
O774 O 0.57152 0.04333 0.66911 0.0
O775 O 0.59172 0.06953 0.65173 0.0
O776 O 0.59535 0.09421 0.66616 0.0
C777 C 0.58475 0.08026 0.71411 0.0
O778 O 0.55618 0.09208 0.66993 0.0
O779 O 0.54806 0.06571 0.67833 0.0
In780 In 0.92221 0.42813 0.3257 0.0
O781 O 0.95092 0.41828 0.321 0.0
O782 O 0.94644 0.43616 0.34329 0.0
C783 C 0.91664 0.4225 0.28993 0.0
C784 C 0.91059 0.40337 0.35007 0.0
C785 C 0.91089 0.46281 0.32784 0.0
O786 O 0.93146 0.42768 0.29657 0.0
O787 O 0.90423 0.41974 0.30141 0.0
O788 O 0.8998 0.4498 0.32705 0.0
O789 O 0.92734 0.45831 0.328 0.0
C790 C 0.95762 0.42707 0.33404 0.0
O791 O 0.90634 0.41986 0.35108 0.0
O792 O 0.91949 0.39917 0.33613 0.0
In793 In 0.57263 0.93206 0.32063 0.0
O794 O 0.59311 0.93233 0.29715 0.0
O795 O 0.56731 0.92081 0.29217 0.0
C796 C 0.56981 0.96809 0.32615 0.0
C797 C 0.53847 0.92025 0.32576 0.0
C798 C 0.59709 0.91939 0.34487 0.0
O799 O 0.56909 0.96107 0.31059 0.0
O800 O 0.57153 0.95698 0.33901 0.0
O801 O 0.58119 0.91317 0.344 0.0
O802 O 0.60082 0.93112 0.3331 0.0
C803 C 0.58249 0.92527 0.28581 0.0
O804 O 0.55135 0.90938 0.32253 0.0
O805 O 0.54296 0.93669 0.32698 0.0
In806 In 0.07483 0.56937 0.32624 0.0
O807 O 0.04801 0.58352 0.32056 0.0
O808 O 0.04721 0.55829 0.3346 0.0
C809 C 0.08473 0.57601 0.29171 0.0
C810 C 0.08514 0.5947 0.35058 0.0
C811 C 0.08518 0.53473 0.33223 0.0
O812 O 0.06864 0.57725 0.29724 0.0
O813 O 0.09626 0.57194 0.30371 0.0
O814 O 0.09061 0.54758 0.34213 0.0
O815 O 0.07507 0.53937 0.31932 0.0
C816 C 0.03847 0.57135 0.32785 0.0
O817 O 0.07311 0.58305 0.35377 0.0
O818 O 0.09269 0.59328 0.33531 0.0
In819 In 0.42244 0.07848 0.3295 0.0
O820 O 0.4435 0.10147 0.33211 0.0
O821 O 0.45252 0.07425 0.33445 0.0
C822 C 0.40005 0.09189 0.35531 0.0
C823 C 0.41318 0.08375 0.29444 0.0
C824 C 0.42147 0.04209 0.33166 0.0
O825 O 0.406 0.07594 0.35547 0.0
O826 O 0.40548 0.10143 0.34223 0.0
O827 O 0.41388 0.05076 0.31904 0.0
O828 O 0.42936 0.05169 0.3434 0.0
C829 C 0.45667 0.09077 0.33426 0.0
O830 O 0.40145 0.08299 0.30689 0.0
O831 O 0.42938 0.08248 0.29973 0.0
In832 In 0.67932 0.92402 0.57068 0.0
O833 O 0.70971 0.92549 0.56668 0.0
O834 O 0.7001 0.9074 0.58701 0.0
C835 C 0.67664 0.96033 0.57322 0.0
C836 C 0.67588 0.91402 0.53567 0.0
C837 C 0.65343 0.91227 0.59377 0.0
O838 O 0.69036 0.9517 0.57866 0.0
O839 O 0.6641 0.9507 0.56669 0.0
O840 O 0.65463 0.90634 0.57778 0.0
O841 O 0.66555 0.92343 0.5982 0.0
C842 C 0.71353 0.91422 0.57889 0.0
O843 O 0.67276 0.92986 0.54117 0.0
O844 O 0.68006 0.90279 0.54788 0.0
In845 In 0.67407 0.07801 0.42638 0.0
O846 O 0.66506 0.07324 0.45545 0.0
O847 O 0.67218 0.10016 0.44834 0.0
C848 C 0.6496 0.09312 0.40372 0.0
C849 C 0.70877 0.08176 0.41514 0.0
C850 C 0.6722 0.04154 0.42542 0.0
O851 O 0.64585 0.08023 0.41426 0.0
O852 O 0.66546 0.09934 0.40537 0.0
O853 O 0.6835 0.04992 0.43513 0.0
O854 O 0.66175 0.05149 0.41626 0.0
C855 C 0.6674 0.08929 0.46065 0.0
O856 O 0.69669 0.07473 0.40532 0.0
O857 O 0.70324 0.0877 0.43016 0.0
In858 In 0.92283 0.67387 0.42782 0.0
O859 O 0.9525 0.67883 0.42168 0.0
O860 O 0.94601 0.65602 0.43821 0.0
C861 C 0.91323 0.70783 0.41804 0.0
C862 C 0.91324 0.65114 0.40083 0.0
C863 C 0.91218 0.67107 0.46278 0.0
O864 O 0.92884 0.70362 0.42344 0.0
O865 O 0.90217 0.69481 0.41715 0.0
O866 O 0.90682 0.66007 0.45082 0.0
O867 O 0.9222 0.6836 0.45696 0.0
C868 C 0.95815 0.66551 0.43076 0.0
O869 O 0.90302 0.65395 0.41428 0.0
O870 O 0.9277 0.66019 0.40079 0.0
In871 In 0.32166 0.92571 0.42731 0.0
O872 O 0.33734 0.91275 0.45085 0.0
O873 O 0.31263 0.92628 0.45683 0.0
C874 C 0.34474 0.91509 0.40094 0.0
C875 C 0.28779 0.91443 0.41887 0.0
C876 C 0.32815 0.96157 0.4294 0.0
O877 O 0.34187 0.90555 0.41481 0.0
O878 O 0.33545 0.92933 0.39998 0.0
O879 O 0.31391 0.95508 0.42255 0.0
O880 O 0.33936 0.95 0.43515 0.0
C881 C 0.32617 0.91776 0.46278 0.0
O882 O 0.29284 0.93064 0.41777 0.0
O883 O 0.3 0.90342 0.42362 0.0
In884 In 0.07716 0.31632 0.42675 0.0
O885 O 0.04819 0.31083 0.41787 0.0
O886 O 0.05296 0.33458 0.43349 0.0
C887 C 0.08567 0.28155 0.41911 0.0
C888 C 0.0904 0.33949 0.40119 0.0
C889 C 0.08707 0.31804 0.462 0.0
O890 O 0.06975 0.287 0.42188 0.0
O891 O 0.09769 0.29373 0.41992 0.0
O892 O 0.09754 0.32313 0.44947 0.0
O893 O 0.0721 0.31178 0.45675 0.0
C894 C 0.04159 0.32451 0.42564 0.0
O895 O 0.08999 0.34314 0.41787 0.0
O896 O 0.08366 0.32424 0.39751 0.0
In897 In 0.32649 0.08252 0.57907 0.0
O898 O 0.30153 0.07746 0.5965 0.0
O899 O 0.29944 0.09752 0.57596 0.0
C900 C 0.33039 0.04625 0.57854 0.0
C901 C 0.32974 0.09249 0.54411 0.0
C902 C 0.35145 0.09574 0.60236 0.0
O903 O 0.32125 0.05433 0.5905 0.0
O904 O 0.33795 0.05641 0.56707 0.0
O905 O 0.33663 0.10382 0.59958 0.0
O906 O 0.35387 0.08179 0.59289 0.0
C907 C 0.29153 0.08847 0.58812 0.0
O908 O 0.33846 0.1005 0.55652 0.0
O909 O 0.31928 0.08009 0.54943 0.0
In910 In 0.92382 0.32477 0.57185 0.0
O911 O 0.95173 0.31419 0.57935 0.0
O912 O 0.95021 0.34023 0.56696 0.0
C913 C 0.91491 0.29023 0.57941 0.0
C914 C 0.91349 0.35015 0.59605 0.0
C915 C 0.913 0.3285 0.53708 0.0
O916 O 0.92739 0.29454 0.56861 0.0
O917 O 0.90641 0.30333 0.58642 0.0
O918 O 0.90218 0.32353 0.54938 0.0
O919 O 0.92878 0.33218 0.54241 0.0
C920 C 0.96007 0.32793 0.57357 0.0
O921 O 0.90781 0.3502 0.57993 0.0
O922 O 0.92356 0.33701 0.60011 0.0
In923 In 0.07736 0.67983 0.57733 0.0
O924 O 0.09672 0.65753 0.58721 0.0
O925 O 0.07518 0.66571 0.60452 0.0
C926 C 0.0876 0.67223 0.54298 0.0
C927 C 0.04083 0.67848 0.57846 0.0
C928 C 0.0876 0.71403 0.58525 0.0
O929 O 0.09879 0.67765 0.55473 0.0
O930 O 0.07172 0.66992 0.54875 0.0
O931 O 0.07945 0.7098 0.57088 0.0
O932 O 0.09119 0.70095 0.59566 0.0
C933 C 0.08838 0.65518 0.60197 0.0
O934 O 0.04954 0.69313 0.57988 0.0
O935 O 0.0505 0.66451 0.57659 0.0
In936 In 0.42483 0.32138 0.07008 0.0
O937 O 0.41092 0.29491 0.06224 0.0
O938 O 0.42829 0.29448 0.08522 0.0
C939 C 0.39846 0.34275 0.08374 0.0
C940 C 0.45876 0.32884 0.08174 0.0
C941 C 0.42427 0.32696 0.03396 0.0
O942 O 0.39751 0.32568 0.08423 0.0
O943 O 0.41317 0.34894 0.07762 0.0
O944 O 0.41591 0.33711 0.04486 0.0
O945 O 0.43301 0.31421 0.04122 0.0
C946 C 0.41831 0.28562 0.07453 0.0
O947 O 0.45443 0.32799 0.06528 0.0
O948 O 0.44579 0.32668 0.0927 0.0
In949 In 0.67702 0.42596 0.07534 0.0
O950 O 0.67283 0.45607 0.07145 0.0
O951 O 0.67158 0.4462 0.09852 0.0
C952 C 0.67484 0.42231 0.03911 0.0
C953 C 0.71229 0.4229 0.08406 0.0
C954 C 0.65288 0.39995 0.08429 0.0
O955 O 0.66521 0.43351 0.04774 0.0
O956 O 0.68528 0.41279 0.04871 0.0
O957 O 0.66967 0.397 0.08341 0.0
O958 O 0.64827 0.41616 0.08158 0.0
C959 C 0.67092 0.45969 0.08801 0.0
O960 O 0.69996 0.41859 0.09514 0.0
O961 O 0.7068 0.42896 0.06909 0.0
In962 In 0.57078 0.67726 0.07483 0.0
O963 O 0.58046 0.70017 0.09361 0.0
O964 O 0.56802 0.70716 0.06854 0.0
C965 C 0.59453 0.65084 0.08416 0.0
C966 C 0.53714 0.6714 0.08806 0.0
C967 C 0.57485 0.67667 0.0385 0.0
O968 O 0.59845 0.66741 0.08495 0.0
O969 O 0.57852 0.64753 0.07924 0.0
O970 O 0.56075 0.67097 0.04628 0.0
O971 O 0.58705 0.6825 0.04897 0.0
C972 C 0.5755 0.71254 0.08289 0.0
O973 O 0.54116 0.67 0.07155 0.0
O974 O 0.55025 0.67529 0.09838 0.0
In975 In 0.32307 0.56801 0.07498 0.0
O976 O 0.33332 0.53921 0.0718 0.0
O977 O 0.32013 0.5458 0.09658 0.0
C978 C 0.32522 0.57079 0.03862 0.0
C979 C 0.28822 0.57631 0.08234 0.0
C980 C 0.35029 0.59002 0.08578 0.0
O981 O 0.32111 0.55619 0.0465 0.0
O982 O 0.3282 0.58402 0.04902 0.0
O983 O 0.33428 0.5955 0.08353 0.0
O984 O 0.35246 0.5732 0.08367 0.0
C985 C 0.32738 0.53374 0.08684 0.0
O986 O 0.3004 0.57731 0.09432 0.0
O987 O 0.29363 0.57142 0.06694 0.0
In988 In 0.43325 0.68128 0.9225 0.0
O989 O 0.46221 0.67127 0.92461 0.0
O990 O 0.45439 0.68363 0.89974 0.0
C991 C 0.43096 0.6772 0.95872 0.0
C992 C 0.42632 0.71682 0.91705 0.0
C993 C 0.4105 0.65473 0.91153 0.0
O994 O 0.44571 0.6805 0.95074 0.0
O995 O 0.41734 0.67584 0.94849 0.0
O996 O 0.4052 0.67057 0.91503 0.0
O997 O 0.42746 0.65255 0.91224 0.0
C998 C 0.46695 0.67677 0.90916 0.0
O999 O 0.42283 0.70508 0.90511 0.0
O1000 O 0.43293 0.71064 0.93149 0.0
In1001 In 0.32613 0.43303 0.92177 0.0
O1002 O 0.33409 0.46224 0.92755 0.0
O1003 O 0.33168 0.45467 0.89994 0.0
C1004 C 0.32847 0.43113 0.95815 0.0
C1005 C 0.29057 0.42643 0.91626 0.0
C1006 C 0.34801 0.40711 0.90793 0.0
O1007 O 0.31629 0.44009 0.95016 0.0
O1008 O 0.33966 0.42331 0.94786 0.0
O1009 O 0.33138 0.40801 0.90405 0.0
O1010 O 0.35371 0.41988 0.91773 0.0
C1011 C 0.33459 0.46714 0.91125 0.0
O1012 O 0.29953 0.4372 0.90647 0.0
O1013 O 0.29973 0.41814 0.92806 0.0
In1014 In 0.56895 0.32295 0.92201 0.0
O1015 O 0.57892 0.29967 0.90373 0.0
O1016 O 0.5707 0.29351 0.93063 0.0
C1017 C 0.59129 0.35004 0.91149 0.0
C1018 C 0.53504 0.32698 0.9089 0.0
C1019 C 0.57133 0.32582 0.95833 0.0
O1020 O 0.59655 0.33391 0.9133 0.0
O1021 O 0.57452 0.3524 0.91384 0.0
O1022 O 0.55644 0.32375 0.95019 0.0
O1023 O 0.58509 0.32659 0.94821 0.0
C1024 C 0.57664 0.28771 0.91575 0.0
O1025 O 0.53968 0.33195 0.92455 0.0
O1026 O 0.54775 0.32078 0.89923 0.0
In1027 In 0.67507 0.57181 0.92602 0.0
O1028 O 0.66199 0.54406 0.92981 0.0
O1029 O 0.68064 0.54705 0.90805 0.0
C1030 C 0.67008 0.57163 0.96215 0.0
C1031 C 0.71029 0.58111 0.92144 0.0
C1032 C 0.65095 0.59511 0.9112 0.0
O1033 O 0.68115 0.56126 0.95431 0.0
O1034 O 0.66114 0.58192 0.95182 0.0
O1035 O 0.6648 0.60023 0.91975 0.0
O1036 O 0.64995 0.57823 0.90878 0.0
C1037 C 0.67036 0.53663 0.91691 0.0
O1038 O 0.70068 0.57557 0.90842 0.0
O1039 O 0.70197 0.58275 0.93622 0.0
In1040 In 0.07141 0.42391 0.32903 0.0
O1041 O 0.0462 0.43649 0.34164 0.0
O1042 O 0.04294 0.41231 0.32618 0.0
C1043 C 0.08371 0.45812 0.33385 0.0
C1044 C 0.08421 0.39728 0.35083 0.0
C1045 C 0.07709 0.41709 0.29351 0.0
O1046 O 0.0725 0.45378 0.32177 0.0
O1047 O 0.08934 0.44513 0.34346 0.0
O1048 O 0.08991 0.42085 0.30422 0.0
O1049 O 0.06166 0.41618 0.3008 0.0
C1050 C 0.03551 0.42476 0.33526 0.0
O1051 O 0.09053 0.40014 0.33522 0.0
O1052 O 0.07193 0.40808 0.35564 0.0
In1053 In 0.56799 0.08233 0.32777 0.0
O1054 O 0.53822 0.08237 0.32026 0.0
O1055 O 0.54609 0.09933 0.3422 0.0
C1056 C 0.5681 0.04604 0.33152 0.0
C1057 C 0.57554 0.08865 0.29257 0.0
C1058 C 0.59311 0.0948 0.35133 0.0
O1059 O 0.55495 0.05567 0.33666 0.0
O1060 O 0.58138 0.05468 0.32513 0.0
O1061 O 0.59138 0.10135 0.33563 0.0
O1062 O 0.58169 0.0828 0.3554 0.0
C1063 C 0.53338 0.09329 0.33243 0.0
O1064 O 0.57936 0.07407 0.30053 0.0
O1065 O 0.56847 0.10067 0.3025 0.0
In1066 In 0.92424 0.57325 0.3193 0.0
O1067 O 0.90801 0.59815 0.32841 0.0
O1068 O 0.92435 0.5847 0.34793 0.0
C1069 C 0.91743 0.58169 0.28429 0.0
C1070 C 0.96031 0.57375 0.32425 0.0
C1071 C 0.91112 0.53926 0.32364 0.0
O1072 O 0.90492 0.5806 0.29592 0.0
O1073 O 0.93313 0.57905 0.29043 0.0
O1074 O 0.92405 0.54308 0.31322 0.0
O1075 O 0.90408 0.55269 0.33154 0.0
C1076 C 0.91394 0.59778 0.34444 0.0
O1077 O 0.95066 0.56022 0.32827 0.0
O1078 O 0.95181 0.58722 0.318 0.0
In1079 In 0.4264 0.92812 0.32337 0.0
O1080 O 0.41632 0.90834 0.30139 0.0
O1081 O 0.42656 0.93405 0.29333 0.0
C1082 C 0.40187 0.91719 0.34831 0.0
C1083 C 0.46156 0.91828 0.32645 0.0
C1084 C 0.42359 0.96402 0.32874 0.0
O1085 O 0.39747 0.92482 0.33371 0.0
O1086 O 0.41862 0.91426 0.35009 0.0
O1087 O 0.43301 0.95404 0.33896 0.0
O1088 O 0.41538 0.95591 0.31613 0.0
C1089 C 0.4198 0.91915 0.28859 0.0
O1090 O 0.45642 0.93449 0.32521 0.0
O1091 O 0.44896 0.90669 0.32643 0.0
In1092 In 0.07776 0.57346 0.67926 0.0
O1093 O 0.05116 0.55908 0.6729 0.0
O1094 O 0.05001 0.58702 0.68014 0.0
C1095 C 0.09029 0.53961 0.67298 0.0
C1096 C 0.08847 0.59862 0.65493 0.0
C1097 C 0.0852 0.58174 0.71415 0.0
O1098 O 0.07962 0.54344 0.68573 0.0
O1099 O 0.09535 0.55297 0.66359 0.0
O1100 O 0.09749 0.57736 0.70308 0.0
O1101 O 0.06952 0.58254 0.7075 0.0
C1102 C 0.04146 0.57286 0.6758 0.0
O1103 O 0.09611 0.5969 0.67014 0.0
O1104 O 0.07613 0.58725 0.65179 0.0
In1105 In 0.4308 0.07824 0.67841 0.0
O1106 O 0.42497 0.09892 0.70105 0.0
O1107 O 0.41952 0.07114 0.706 0.0
C1108 C 0.40598 0.09297 0.65604 0.0
C1109 C 0.4659 0.08557 0.67105 0.0
C1110 C 0.43235 0.04183 0.67527 0.0
O1111 O 0.40307 0.07887 0.66523 0.0
O1112 O 0.42123 0.10031 0.65868 0.0
O1113 O 0.4407 0.05049 0.68738 0.0
O1114 O 0.42335 0.0515 0.66442 0.0
C1115 C 0.41998 0.08698 0.71224 0.0
O1116 O 0.45472 0.08131 0.65884 0.0
O1117 O 0.45914 0.08728 0.68662 0.0
In1118 In 0.92545 0.42785 0.67796 0.0
O1119 O 0.95198 0.43836 0.66622 0.0
O1120 O 0.95281 0.41387 0.68147 0.0
C1121 C 0.91365 0.46234 0.67567 0.0
C1122 C 0.91518 0.4052 0.65105 0.0
C1123 C 0.9179 0.42041 0.71299 0.0
O1124 O 0.93003 0.45813 0.67788 0.0
O1125 O 0.90278 0.44913 0.67465 0.0
O1126 O 0.90624 0.41813 0.70065 0.0
O1127 O 0.93296 0.42636 0.70766 0.0
C1128 C 0.96146 0.42571 0.67269 0.0
O1129 O 0.91891 0.39972 0.66677 0.0
O1130 O 0.91565 0.42215 0.64909 0.0
In1131 In 0.57726 0.92193 0.67575 0.0
O1132 O 0.59483 0.91082 0.69895 0.0
O1133 O 0.56946 0.92291 0.70547 0.0
C1134 C 0.59861 0.91055 0.6482 0.0
C1135 C 0.54311 0.90995 0.67009 0.0
C1136 C 0.58293 0.95786 0.67682 0.0
O1137 O 0.59546 0.90072 0.66183 0.0
O1138 O 0.59028 0.92541 0.64808 0.0
O1139 O 0.56855 0.95098 0.67063 0.0
O1140 O 0.59468 0.94669 0.68227 0.0
C1141 C 0.58373 0.91546 0.71111 0.0
O1142 O 0.54802 0.92602 0.66721 0.0
O1143 O 0.55567 0.89936 0.67487 0.0
In1144 In 0.32612 0.07562 0.43333 0.0
O1145 O 0.33555 0.0729 0.46252 0.0
O1146 O 0.32407 0.09815 0.45465 0.0
C1147 C 0.33139 0.03947 0.43277 0.0
C1148 C 0.29093 0.07625 0.42323 0.0
C1149 C 0.3494 0.09427 0.41164 0.0
O1150 O 0.32073 0.04707 0.44372 0.0
O1151 O 0.33989 0.05008 0.42239 0.0
O1152 O 0.33251 0.09384 0.40903 0.0
O1153 O 0.35438 0.08516 0.42521 0.0
C1154 C 0.33058 0.08854 0.46723 0.0
O1155 O 0.30302 0.0687 0.41382 0.0
O1156 O 0.29667 0.08436 0.43712 0.0
In1157 In 0.32528 0.9321 0.57469 0.0
O1158 O 0.32988 0.93752 0.54489 0.0
O1159 O 0.32668 0.90997 0.55272 0.0
C1160 C 0.32919 0.96822 0.57624 0.0
C1161 C 0.29064 0.92274 0.58152 0.0
C1162 C 0.35092 0.92253 0.59909 0.0
O1163 O 0.34016 0.95825 0.56771 0.0
O1164 O 0.31639 0.96005 0.5841 0.0
O1165 O 0.33722 0.93186 0.6031 0.0
O1166 O 0.35156 0.91736 0.58282 0.0
C1167 C 0.32894 0.92122 0.54001 0.0
O1168 O 0.30373 0.91363 0.58772 0.0
O1169 O 0.29502 0.93622 0.57205 0.0
In1170 In 0.07412 0.32193 0.57384 0.0
O1171 O 0.08242 0.33045 0.60234 0.0
O1172 O 0.08125 0.35101 0.58226 0.0
C1173 C 0.08301 0.28753 0.58198 0.0
C1174 C 0.03813 0.32727 0.57512 0.0
C1175 C 0.08527 0.32229 0.53895 0.0
O1176 O 0.0948 0.29996 0.58157 0.0
O1177 O 0.06704 0.29257 0.57866 0.0
O1178 O 0.06949 0.31802 0.54378 0.0
O1179 O 0.09583 0.32657 0.55174 0.0
C1180 C 0.08375 0.34707 0.59869 0.0
O1181 O 0.04834 0.3366 0.56505 0.0
O1182 O 0.04602 0.31552 0.58469 0.0
In1183 In 0.6751 0.07491 0.5712 0.0
O1184 O 0.69773 0.08428 0.59041 0.0
O1185 O 0.70489 0.0771 0.56347 0.0
C1186 C 0.64965 0.08659 0.59479 0.0
C1187 C 0.66839 0.08713 0.53728 0.0
C1188 C 0.67429 0.03858 0.57382 0.0
O1189 O 0.66138 0.09714 0.58823 0.0
O1190 O 0.65031 0.0706 0.58895 0.0
O1191 O 0.66339 0.04728 0.56391 0.0
O1192 O 0.68536 0.04813 0.58271 0.0
C1193 C 0.71016 0.08221 0.57887 0.0
O1194 O 0.67073 0.07068 0.54103 0.0
O1195 O 0.66894 0.09771 0.55068 0.0
In1196 In 0.92606 0.67806 0.57404 0.0
O1197 O 0.95431 0.68111 0.56231 0.0
O1198 O 0.95217 0.67501 0.59049 0.0
C1199 C 0.91342 0.6717 0.54008 0.0
C1200 C 0.91562 0.65217 0.59784 0.0
C1201 C 0.91948 0.71324 0.58186 0.0
O1202 O 0.92851 0.66611 0.54566 0.0
O1203 O 0.90397 0.67951 0.55196 0.0
O1204 O 0.90752 0.70118 0.58378 0.0
O1205 O 0.93457 0.70758 0.57632 0.0
C1206 C 0.9624 0.67792 0.57705 0.0
O1207 O 0.91001 0.66826 0.59871 0.0
O1208 O 0.92556 0.64886 0.58436 0.0
In1209 In 0.67847 0.92715 0.42389 0.0
O1210 O 0.68134 0.93176 0.45411 0.0
O1211 O 0.67352 0.90533 0.44568 0.0
C1212 C 0.67334 0.96327 0.42358 0.0
C1213 C 0.7126 0.91702 0.41544 0.0
C1214 C 0.65221 0.91816 0.39989 0.0
O1215 O 0.66332 0.95273 0.43259 0.0
O1216 O 0.68557 0.95559 0.41443 0.0
O1217 O 0.66758 0.92382 0.39504 0.0
O1218 O 0.65033 0.91616 0.41675 0.0
C1219 C 0.67699 0.91593 0.45866 0.0
O1220 O 0.69951 0.90603 0.41435 0.0
O1221 O 0.70839 0.93275 0.42044 0.0
In1222 In 0.07161 0.67135 0.43235 0.0
O1223 O 0.08798 0.66474 0.40674 0.0
O1224 O 0.07385 0.64327 0.41968 0.0
C1225 C 0.07672 0.70646 0.42378 0.0
C1226 C 0.03574 0.66465 0.43329 0.0
C1227 C 0.08505 0.66887 0.46634 0.0
O1228 O 0.08985 0.69599 0.42725 0.0
O1229 O 0.0613 0.69914 0.42418 0.0
O1230 O 0.07316 0.68019 0.46174 0.0
O1231 O 0.09073 0.65883 0.4537 0.0
C1232 C 0.08347 0.64827 0.40651 0.0
O1233 O 0.04634 0.65923 0.44557 0.0
O1234 O 0.04325 0.673 0.4204 0.0
In1235 In 0.92722 0.32204 0.42609 0.0
O1236 O 0.95338 0.3352 0.43617 0.0
O1237 O 0.95554 0.31479 0.41593 0.0
C1238 C 0.91505 0.32599 0.46032 0.0
C1239 C 0.91439 0.34815 0.40402 0.0
C1240 C 0.92 0.28781 0.41507 0.0
O1241 O 0.92896 0.31699 0.45628 0.0
O1242 O 0.90679 0.33299 0.44705 0.0
O1243 O 0.92307 0.30045 0.404 0.0
O1244 O 0.91973 0.29257 0.43144 0.0
C1245 C 0.96359 0.32589 0.42612 0.0
O1246 O 0.90454 0.33506 0.40904 0.0
O1247 O 0.93015 0.34825 0.41057 0.0
C1248 C 0.10923 0.1151 0.40462 0.0
C1249 C 0.11211 0.13162 0.41403 0.0
C1250 C 0.14134 0.1205 0.42524 0.0
C1251 C 0.13894 0.10432 0.41507 0.0
N1252 N 0.12231 0.08732 0.39271 0.0
N1253 N 0.13202 0.15145 0.43084 0.0
C1254 C 0.12335 0.10193 0.40407 0.0
C1255 C 0.12861 0.13482 0.4234 0.0
N1256 N 0.0929 0.11193 0.39644 0.0
N1257 N 0.15503 0.12171 0.43772 0.0
H1258 H 0.12267 0.16204 0.43087 0.0
H1259 H 0.14468 0.15526 0.43582 0.0
H1260 H 0.16444 0.11144 0.44 0.0
H1261 H 0.15612 0.13219 0.4471 0.0
H1262 H 0.08909 0.0994 0.39121 0.0
H1263 H 0.08268 0.12168 0.39572 0.0
H1264 H 0.11218 0.08564 0.38304 0.0
H1265 H 0.13249 0.07754 0.3919 0.0
C1266 C 0.85592 0.12854 0.41912 0.0
C1267 C 0.85676 0.11464 0.40583 0.0
C1268 C 0.88415 0.12858 0.39296 0.0
C1269 C 0.88459 0.14099 0.40766 0.0
N1270 N 0.87254 0.15065 0.4366 0.0
N1271 N 0.87196 0.10063 0.38056 0.0
C1272 C 0.87079 0.14059 0.42111 0.0
C1273 C 0.87097 0.11445 0.39285 0.0
N1274 N 0.84113 0.13009 0.43021 0.0
N1275 N 0.89598 0.13069 0.37885 0.0
H1276 H 0.86189 0.09077 0.37931 0.0
H1277 H 0.88312 0.09842 0.37221 0.0
H1278 H 0.90558 0.14106 0.3784 0.0
H1279 H 0.89529 0.12322 0.36691 0.0
H1280 H 0.83882 0.14133 0.43843 0.0
H1281 H 0.83037 0.12099 0.4303 0.0
H1282 H 0.86419 0.14909 0.44788 0.0
H1283 H 0.88336 0.15931 0.43912 0.0
C1284 C 0.87961 0.89059 0.41786 0.0
C1285 C 0.86238 0.88821 0.40953 0.0
C1286 C 0.87079 0.85732 0.40057 0.0
C1287 C 0.88811 0.85992 0.40848 0.0
N1288 N 0.91057 0.88012 0.42105 0.0
N1289 N 0.84299 0.87111 0.38959 0.0
C1290 C 0.89308 0.877 0.41575 0.0
C1291 C 0.8584 0.87209 0.39984 0.0
N1292 N 0.8827 0.90509 0.42901 0.0
N1293 N 0.86607 0.8406 0.39412 0.0
H1294 H 0.83384 0.88184 0.38852 0.0
H1295 H 0.84008 0.8604 0.38088 0.0
H1296 H 0.8752 0.82981 0.39352 0.0
H1297 H 0.85295 0.83717 0.39021 0.0
H1298 H 0.89414 0.90629 0.4372 0.0
H1299 H 0.87319 0.9152 0.43151 0.0
H1300 H 0.91544 0.89291 0.4245 0.0
H1301 H 0.92071 0.8703 0.42052 0.0
C1302 C 0.12331 0.85622 0.42538 0.0
C1303 C 0.10973 0.85598 0.41171 0.0
C1304 C 0.12316 0.88306 0.39774 0.0
C1305 C 0.13706 0.88271 0.41099 0.0
N1306 N 0.15304 0.86668 0.43454 0.0
N1307 N 0.09833 0.86702 0.38317 0.0
C1308 C 0.13799 0.8685 0.42384 0.0
C1309 C 0.11014 0.86878 0.39734 0.0
N1310 N 0.12159 0.84565 0.44053 0.0
N1311 N 0.12209 0.89734 0.386 0.0
H1312 H 0.08872 0.85666 0.38249 0.0
H1313 H 0.09897 0.87486 0.37146 0.0
H1314 H 0.13179 0.90763 0.38564 0.0
H1315 H 0.11116 0.89953 0.37735 0.0
H1316 H 0.12992 0.84695 0.45186 0.0
H1317 H 0.11081 0.83679 0.44271 0.0
H1318 H 0.15532 0.85549 0.44284 0.0
H1319 H 0.1641 0.87547 0.4338 0.0
C1320 C 0.14517 0.87383 0.59651 0.0
C1321 C 0.14006 0.89153 0.59105 0.0
C1322 C 0.10823 0.88197 0.58966 0.0
C1323 C 0.11388 0.86374 0.59175 0.0
N1324 N 0.13735 0.84189 0.59774 0.0
N1325 N 0.11684 0.91253 0.58135 0.0
C1326 C 0.13224 0.85957 0.59556 0.0
C1327 C 0.12155 0.89578 0.58774 0.0
N1328 N 0.16233 0.87081 0.60281 0.0
N1329 N 0.09015 0.88603 0.58904 0.0
H1330 H 0.12606 0.92306 0.57958 0.0
H1331 H 0.10397 0.91567 0.57649 0.0
H1332 H 0.08004 0.87619 0.58985 0.0
H1333 H 0.08514 0.89921 0.58939 0.0
H1334 H 0.16656 0.85859 0.60846 0.0
H1335 H 0.17194 0.88114 0.60394 0.0
H1336 H 0.1508 0.83765 0.5983 0.0
H1337 H 0.128 0.83128 0.59825 0.0
C1338 C 0.10793 0.1206 0.57613 0.0
C1339 C 0.10867 0.13582 0.58787 0.0
C1340 C 0.13762 0.12519 0.60037 0.0
C1341 C 0.13677 0.10983 0.5888 0.0
N1342 N 0.11984 0.09127 0.56765 0.0
N1343 N 0.122 0.15113 0.61338 0.0
C1344 C 0.12142 0.10691 0.57749 0.0
C1345 C 0.1229 0.13767 0.60066 0.0
N1346 N 0.09516 0.11986 0.56268 0.0
N1347 N 0.15264 0.12791 0.6109 0.0
H1348 H 0.11127 0.16032 0.614 0.0
H1349 H 0.13098 0.15236 0.62418 0.0
H1350 H 0.16305 0.11841 0.61204 0.0
H1351 H 0.15522 0.13986 0.61793 0.0
H1352 H 0.09546 0.11055 0.55209 0.0
H1353 H 0.08491 0.12943 0.56108 0.0
H1354 H 0.10786 0.08725 0.56136 0.0
H1355 H 0.13003 0.08159 0.56653 0.0
C1356 C 0.87875 0.13463 0.59562 0.0
C1357 C 0.8887 0.13846 0.57964 0.0
C1358 C 0.87314 0.11384 0.56361 0.0
C1359 C 0.86205 0.11106 0.57909 0.0
N1360 N 0.85308 0.11917 0.60939 0.0
N1361 N 0.89461 0.13314 0.54791 0.0
C1362 C 0.86454 0.12154 0.59502 0.0
C1363 C 0.88576 0.12838 0.56352 0.0
N1364 N 0.88313 0.14335 0.61138 0.0
N1365 N 0.87169 0.1025 0.549 0.0
H1366 H 0.90461 0.14311 0.54743 0.0
H1367 H 0.89133 0.12808 0.53517 0.0
H1368 H 0.86205 0.09222 0.54808 0.0
H1369 H 0.88078 0.10241 0.53821 0.0
H1370 H 0.87766 0.14006 0.62395 0.0
H1371 H 0.89328 0.15317 0.61209 0.0
H1372 H 0.85283 0.12757 0.62071 0.0
H1373 H 0.84303 0.10921 0.6096 0.0
C1374 C 0.89676 0.88326 0.58484 0.0
C1375 C 0.89279 0.86516 0.5901 0.0
C1376 C 0.86143 0.87369 0.59696 0.0
C1377 C 0.86526 0.89159 0.59117 0.0
N1378 N 0.88736 0.91475 0.58456 0.0
N1379 N 0.87325 0.84426 0.60577 0.0
C1380 C 0.88326 0.89685 0.58698 0.0
C1381 C 0.87569 0.86075 0.59769 0.0
N1382 N 0.91278 0.88724 0.57638 0.0
N1383 N 0.84402 0.86898 0.60127 0.0
H1384 H 0.88364 0.8347 0.60678 0.0
H1385 H 0.86162 0.84068 0.61291 0.0
H1386 H 0.83354 0.87845 0.60203 0.0
H1387 H 0.83982 0.85568 0.60338 0.0
H1388 H 0.91542 0.89962 0.57015 0.0
H1389 H 0.92306 0.8778 0.57427 0.0
H1390 H 0.90058 0.91957 0.58335 0.0
H1391 H 0.87774 0.92504 0.58545 0.0
C1392 C 0.40061 0.12363 0.14115 0.0
C1393 C 0.41152 0.10783 0.14081 0.0
C1394 C 0.42556 0.11769 0.1124 0.0
C1395 C 0.414 0.13311 0.11218 0.0
N1396 N 0.38828 0.14913 0.12436 0.0
N1397 N 0.43167 0.08784 0.12454 0.0
C1398 C 0.40084 0.13561 0.126 0.0
C1399 C 0.42299 0.10417 0.12583 0.0
N1400 N 0.39036 0.12736 0.15612 0.0
N1401 N 0.43991 0.11658 0.10068 0.0
H1402 H 0.43072 0.07776 0.13441 0.0
H1403 H 0.43856 0.08364 0.11296 0.0
H1404 H 0.44283 0.12638 0.09095 0.0
H1405 H 0.45005 0.10682 0.10172 0.0
H1406 H 0.38374 0.13965 0.15817 0.0
H1407 H 0.38927 0.11842 0.16704 0.0
H1408 H 0.37728 0.15066 0.13307 0.0
H1409 H 0.38796 0.15795 0.11332 0.0
C1410 C 0.86983 0.41358 0.14014 0.0
C1411 C 0.88719 0.40553 0.13776 0.0
C1412 C 0.87893 0.39673 0.10673 0.0
C1413 C 0.86145 0.40425 0.10941 0.0
N1414 N 0.83878 0.416 0.12995 0.0
N1415 N 0.90696 0.38617 0.12046 0.0
C1416 C 0.85637 0.41118 0.12661 0.0
C1417 C 0.89133 0.39606 0.12154 0.0
N1418 N 0.86662 0.42494 0.15446 0.0
N1419 N 0.88377 0.39058 0.08994 0.0
H1420 H 0.91612 0.3852 0.1312 0.0
H1421 H 0.91007 0.37765 0.10965 0.0
H1422 H 0.87466 0.38999 0.07914 0.0
H1423 H 0.89696 0.38693 0.08648 0.0
H1424 H 0.85503 0.43293 0.15556 0.0
H1425 H 0.87617 0.42798 0.16439 0.0
H1426 H 0.83396 0.41904 0.14288 0.0
H1427 H 0.82855 0.41548 0.12025 0.0
C1428 C 0.60009 0.89658 0.11792 0.0
C1429 C 0.59848 0.89212 0.13655 0.0
C1430 C 0.59527 0.86002 0.12884 0.0
C1431 C 0.59339 0.86491 0.1103 0.0
N1432 N 0.59517 0.88742 0.08669 0.0
N1433 N 0.60485 0.8693 0.15889 0.0
C1434 C 0.59636 0.88307 0.10466 0.0
C1435 C 0.5993 0.87368 0.14179 0.0
N1436 N 0.60645 0.91326 0.11302 0.0
N1437 N 0.59192 0.84263 0.13431 0.0
H1438 H 0.60952 0.8791 0.16797 0.0
H1439 H 0.60716 0.85607 0.1632 0.0
H1440 H 0.58886 0.83214 0.12536 0.0
H1441 H 0.59084 0.83885 0.14786 0.0
H1442 H 0.60901 0.91709 0.09969 0.0
H1443 H 0.61165 0.92238 0.12247 0.0
H1444 H 0.59484 0.90068 0.08187 0.0
H1445 H 0.59369 0.87769 0.07654 0.0
C1446 C 0.1067 0.59899 0.12316 0.0
C1447 C 0.11101 0.59233 0.14068 0.0
C1448 C 0.14143 0.58402 0.13032 0.0
C1449 C 0.1374 0.59121 0.11289 0.0
N1450 N 0.11775 0.60889 0.09374 0.0
N1451 N 0.13384 0.58261 0.16214 0.0
C1452 C 0.12047 0.59974 0.10962 0.0
C1453 C 0.12888 0.58644 0.14469 0.0
N1454 N 0.08935 0.60428 0.1194 0.0
N1455 N 0.15646 0.57344 0.13287 0.0
H1456 H 0.12499 0.58318 0.17311 0.0
H1457 H 0.14725 0.58041 0.16601 0.0
H1458 H 0.16575 0.57037 0.12271 0.0
H1459 H 0.15881 0.56602 0.14465 0.0
H1460 H 0.08471 0.60715 0.10638 0.0
H1461 H 0.07929 0.60504 0.12933 0.0
H1462 H 0.10635 0.6168 0.09115 0.0
H1463 H 0.12768 0.60989 0.08372 0.0
C1464 C 0.40451 0.89748 0.88362 0.0
C1465 C 0.40978 0.89235 0.86584 0.0
C1466 C 0.41308 0.86084 0.87593 0.0
C1467 C 0.41082 0.86658 0.89411 0.0
N1468 N 0.40476 0.89023 0.91573 0.0
N1469 N 0.42185 0.86946 0.84561 0.0
C1470 C 0.40651 0.88487 0.89809 0.0
C1471 C 0.41449 0.87404 0.86201 0.0
N1472 N 0.39728 0.91428 0.88654 0.0
N1473 N 0.41437 0.84278 0.87198 0.0
H1474 H 0.42404 0.87865 0.83513 0.0
H1475 H 0.42754 0.85682 0.84294 0.0
H1476 H 0.41404 0.83269 0.88185 0.0
H1477 H 0.41405 0.83773 0.8588 0.0
H1478 H 0.39169 0.91832 0.89885 0.0
H1479 H 0.39534 0.92365 0.87613 0.0
H1480 H 0.40381 0.90373 0.91971 0.0
H1481 H 0.40513 0.8811 0.92654 0.0
C1482 C 0.1071 0.40629 0.88171 0.0
C1483 C 0.11247 0.41051 0.86375 0.0
C1484 C 0.14432 0.41108 0.87339 0.0
C1485 C 0.13857 0.41017 0.89172 0.0
N1486 N 0.11477 0.40644 0.91373 0.0
N1487 N 0.13615 0.4183 0.84245 0.0
C1488 C 0.12003 0.40745 0.89599 0.0
C1489 C 0.13111 0.41285 0.85945 0.0
N1490 N 0.08966 0.40094 0.88499 0.0
N1491 N 0.1624 0.41074 0.86928 0.0
H1492 H 0.12709 0.41991 0.83176 0.0
H1493 H 0.1492 0.42259 0.8392 0.0
H1494 H 0.17256 0.41029 0.87906 0.0
H1495 H 0.16732 0.4093 0.85613 0.0
H1496 H 0.08513 0.39619 0.89748 0.0
H1497 H 0.08005 0.39967 0.87467 0.0
H1498 H 0.10129 0.40671 0.91792 0.0
H1499 H 0.12403 0.40605 0.92442 0.0
C1500 C 0.58622 0.1027 0.88385 0.0
C1501 C 0.58895 0.1075 0.8654 0.0
C1502 C 0.59233 0.13941 0.87392 0.0
C1503 C 0.58969 0.13461 0.89239 0.0
N1504 N 0.58951 0.11146 0.91537 0.0
N1505 N 0.59987 0.12917 0.84361 0.0
C1506 C 0.58845 0.11613 0.89748 0.0
C1507 C 0.59379 0.12547 0.86071 0.0
N1508 N 0.58028 0.08573 0.88834 0.0
N1509 N 0.59214 0.15719 0.86872 0.0
H1510 H 0.6013 0.11914 0.83373 0.0
H1511 H 0.60524 0.14167 0.83983 0.0
H1512 H 0.59089 0.16794 0.87777 0.0
H1513 H 0.59177 0.16128 0.85521 0.0
H1514 H 0.57597 0.08224 0.90133 0.0
H1515 H 0.57827 0.07544 0.8789 0.0
H1516 H 0.59039 0.09811 0.91985 0.0
H1517 H 0.59141 0.12104 0.92561 0.0
C1518 C 0.86846 0.56733 0.8804 0.0
C1519 C 0.86301 0.5835 0.88928 0.0
C1520 C 0.88512 0.60099 0.87158 0.0
C1521 C 0.89013 0.58488 0.86237 0.0
N1522 N 0.88389 0.55368 0.85488 0.0
N1523 N 0.86388 0.616 0.89188 0.0
C1524 C 0.88106 0.56831 0.86592 0.0
C1525 C 0.87061 0.60046 0.88437 0.0
N1526 N 0.86169 0.55095 0.8859 0.0
N1527 N 0.89468 0.61657 0.86856 0.0
H1528 H 0.85365 0.61594 0.90165 0.0
H1529 H 0.86753 0.62895 0.88766 0.0
H1530 H 0.90513 0.6174 0.85905 0.0
H1531 H 0.89306 0.62836 0.87612 0.0
H1532 H 0.86702 0.53855 0.88177 0.0
H1533 H 0.85139 0.54961 0.89547 0.0
H1534 H 0.87631 0.5418 0.85551 0.0
H1535 H 0.89271 0.55395 0.84385 0.0
C1536 C 0.12245 0.43208 0.11576 0.0
C1537 C 0.13101 0.41582 0.11007 0.0
C1538 C 0.11393 0.39871 0.13297 0.0
C1539 C 0.10426 0.41472 0.13747 0.0
N1540 N 0.09746 0.44624 0.1315 0.0
N1541 N 0.13371 0.38335 0.11153 0.0
C1542 C 0.10786 0.43123 0.12825 0.0
C1543 C 0.12647 0.39902 0.11824 0.0
N1544 N 0.12907 0.44848 0.11019 0.0
N1545 N 0.11122 0.3833 0.14288 0.0
H1546 H 0.14294 0.38317 0.10082 0.0
H1547 H 0.12962 0.37048 0.11561 0.0
H1548 H 0.10154 0.38241 0.15316 0.0
H1549 H 0.11921 0.37174 0.14167 0.0
H1550 H 0.12476 0.46084 0.11545 0.0
H1551 H 0.14027 0.4498 0.10169 0.0
H1552 H 0.09794 0.45786 0.12349 0.0
H1553 H 0.08737 0.44679 0.14135 0.0
C1554 C 0.10996 0.58544 0.88349 0.0
C1555 C 0.11321 0.59273 0.86596 0.0
C1556 C 0.14448 0.60012 0.87455 0.0
C1557 C 0.14115 0.593 0.89209 0.0
N1558 N 0.11985 0.58265 0.91468 0.0
N1559 N 0.13186 0.61052 0.84596 0.0
C1560 C 0.12353 0.5871 0.89707 0.0
C1561 C 0.12998 0.60119 0.86186 0.0
N1562 N 0.09457 0.57562 0.88679 0.0
N1563 N 0.16162 0.60548 0.86993 0.0
H1564 H 0.12136 0.61172 0.83655 0.0
H1565 H 0.14314 0.61839 0.84279 0.0
H1566 H 0.17226 0.60593 0.87925 0.0
H1567 H 0.16552 0.6087 0.85676 0.0
H1568 H 0.09256 0.56802 0.89851 0.0
H1569 H 0.08434 0.57367 0.87726 0.0
H1570 H 0.10678 0.58027 0.91949 0.0
H1571 H 0.12957 0.58281 0.92492 0.0
C1572 C 0.39961 0.10962 0.87875 0.0
C1573 C 0.409 0.1124 0.86219 0.0
C1574 C 0.41612 0.14356 0.87139 0.0
C1575 C 0.40904 0.13986 0.88885 0.0
N1576 N 0.39484 0.1193 0.90985 0.0
N1577 N 0.42915 0.13104 0.84413 0.0
C1578 C 0.40095 0.12286 0.89273 0.0
C1579 C 0.41783 0.1292 0.85872 0.0
N1580 N 0.38904 0.09455 0.8809 0.0
N1581 N 0.42164 0.1607 0.86699 0.0
H1582 H 0.43172 0.12075 0.83483 0.0
H1583 H 0.43758 0.1422 0.84222 0.0
H1584 H 0.42149 0.17148 0.8761 0.0
H1585 H 0.4249 0.1646 0.85381 0.0
H1586 H 0.38052 0.09252 0.89197 0.0
H1587 H 0.38753 0.08478 0.87079 0.0
H1588 H 0.39082 0.10648 0.91417 0.0
H1589 H 0.39468 0.12906 0.92009 0.0
C1590 C 0.86361 0.39913 0.87611 0.0
C1591 C 0.86468 0.41037 0.8917 0.0
C1592 C 0.89314 0.42359 0.88059 0.0
C1593 C 0.8921 0.41229 0.86507 0.0
N1594 N 0.87859 0.38721 0.84926 0.0
N1595 N 0.88174 0.43128 0.91038 0.0
C1596 C 0.87797 0.3994 0.8632 0.0
C1597 C 0.87996 0.4218 0.89453 0.0
N1598 N 0.84869 0.38842 0.87356 0.0
N1599 N 0.90601 0.43696 0.88141 0.0
H1600 H 0.87181 0.43181 0.92038 0.0
H1601 H 0.89363 0.43783 0.91423 0.0
H1602 H 0.91611 0.43864 0.87169 0.0
H1603 H 0.906 0.44727 0.89103 0.0
H1604 H 0.84589 0.38157 0.86156 0.0
H1605 H 0.83858 0.3869 0.88334 0.0
H1606 H 0.86969 0.37635 0.84789 0.0
H1607 H 0.88899 0.38711 0.83967 0.0
C1608 C 0.59921 0.89095 0.87673 0.0
C1609 C 0.59265 0.88564 0.85943 0.0
C1610 C 0.59579 0.85372 0.86802 0.0
C1611 C 0.59844 0.85913 0.88624 0.0
N1612 N 0.61237 0.8815 0.90541 0.0
N1613 N 0.58439 0.8619 0.83839 0.0
C1614 C 0.60308 0.87741 0.88993 0.0
C1615 C 0.59125 0.86699 0.85484 0.0
N1616 N 0.60133 0.90893 0.88064 0.0
N1617 N 0.5987 0.83611 0.86315 0.0
H1618 H 0.58077 0.8711 0.8283 0.0
H1619 H 0.58096 0.84857 0.83525 0.0
H1620 H 0.60411 0.82665 0.87215 0.0
H1621 H 0.59833 0.83158 0.84979 0.0
H1622 H 0.60377 0.91388 0.89363 0.0
H1623 H 0.59996 0.9191 0.87091 0.0
H1624 H 0.61722 0.89437 0.90853 0.0
H1625 H 0.61738 0.87146 0.91401 0.0
C1626 C 0.87481 0.59701 0.13675 0.0
C1627 C 0.89097 0.58745 0.13259 0.0
C1628 C 0.87947 0.58125 0.10203 0.0
C1629 C 0.86229 0.58805 0.10734 0.0
N1630 N 0.84313 0.60229 0.12956 0.0
N1631 N 0.90811 0.56868 0.11188 0.0
C1632 C 0.85986 0.59605 0.12462 0.0
C1633 C 0.89335 0.57939 0.11526 0.0
N1634 N 0.87395 0.60725 0.15217 0.0
N1635 N 0.8824 0.57616 0.08446 0.0
H1636 H 0.91849 0.5665 0.12119 0.0
H1637 H 0.90939 0.56063 0.10035 0.0
H1638 H 0.87239 0.57669 0.0745 0.0
H1639 H 0.89517 0.57295 0.07936 0.0
H1640 H 0.86317 0.61582 0.15525 0.0
H1641 H 0.88485 0.60848 0.16111 0.0
H1642 H 0.83985 0.60625 0.1427 0.0
H1643 H 0.83219 0.60272 0.12059 0.0
C1644 C 0.42429 0.87418 0.10948 0.0
C1645 C 0.41219 0.85955 0.11244 0.0
C1646 C 0.40075 0.87432 0.13992 0.0
C1647 C 0.41439 0.88778 0.13811 0.0
N1648 N 0.44141 0.89861 0.12299 0.0
N1649 N 0.38977 0.84462 0.13086 0.0
C1650 C 0.42666 0.88735 0.12327 0.0
C1651 C 0.40061 0.85932 0.12777 0.0
N1652 N 0.43371 0.87542 0.09355 0.0
N1653 N 0.38769 0.87617 0.15292 0.0
H1654 H 0.38877 0.83384 0.12177 0.0
H1655 H 0.38256 0.84263 0.14283 0.0
H1656 H 0.38732 0.88711 0.16188 0.0
H1657 H 0.37638 0.86778 0.15388 0.0
H1658 H 0.44114 0.88683 0.08983 0.0
H1659 H 0.43292 0.86573 0.0833 0.0
H1660 H 0.45196 0.89735 0.11369 0.0
H1661 H 0.44418 0.9081 0.13307 0.0
C1662 C 0.5953 0.12131 0.10868 0.0
C1663 C 0.59554 0.14013 0.11276 0.0
C1664 C 0.59565 0.13339 0.14528 0.0
C1665 C 0.59492 0.1146 0.14117 0.0
N1666 N 0.60034 0.09074 0.11966 0.0
N1667 N 0.60201 0.16373 0.13431 0.0
C1668 C 0.59695 0.10863 0.12305 0.0
C1669 C 0.59781 0.14602 0.1309 0.0
N1670 N 0.59205 0.11543 0.09141 0.0
N1671 N 0.59296 0.13932 0.16262 0.0
H1672 H 0.60393 0.17317 0.12394 0.0
H1673 H 0.60542 0.16855 0.14713 0.0
H1674 H 0.59142 0.13067 0.17365 0.0
H1675 H 0.59105 0.15291 0.16592 0.0
H1676 H 0.58949 0.10192 0.08822 0.0
H1677 H 0.59052 0.12407 0.08036 0.0
H1678 H 0.60356 0.08578 0.10684 0.0
H1679 H 0.60183 0.08124 0.13004 0.0
C1680 C 0.61824 0.60493 0.91351 0.0
C1681 C 0.63608 0.60793 0.90678 0.0
C1682 C 0.62823 0.63947 0.89971 0.0
C1683 C 0.61049 0.63639 0.90652 0.0
N1684 N 0.58698 0.61504 0.91388 0.0
N1685 N 0.65623 0.62613 0.88868 0.0
C1686 C 0.60497 0.61866 0.91131 0.0
C1687 C 0.64043 0.62459 0.89823 0.0
N1688 N 0.61422 0.58975 0.92336 0.0
N1689 N 0.63389 0.65666 0.89583 0.0
H1690 H 0.66524 0.61533 0.88717 0.0
H1691 H 0.65945 0.63739 0.8808 0.0
H1692 H 0.62544 0.66794 0.8966 0.0
H1693 H 0.64734 0.65992 0.89298 0.0
H1694 H 0.60205 0.58812 0.93035 0.0
H1695 H 0.62344 0.57943 0.92605 0.0
H1696 H 0.58194 0.60198 0.91577 0.0
H1697 H 0.57695 0.62486 0.91211 0.0
C1698 C 0.39855 0.62458 0.922 0.0
C1699 C 0.39753 0.63944 0.90977 0.0
C1700 C 0.36816 0.6283 0.89863 0.0
C1701 C 0.36959 0.61325 0.91048 0.0
N1702 N 0.38843 0.5942 0.92914 0.0
N1703 N 0.38357 0.65327 0.88368 0.0
C1704 C 0.38559 0.61046 0.92071 0.0
C1705 C 0.38301 0.6406 0.89717 0.0
N1706 N 0.41094 0.62451 0.93581 0.0
N1707 N 0.35235 0.63135 0.88947 0.0
H1708 H 0.39439 0.66226 0.88214 0.0
H1709 H 0.37425 0.65377 0.87309 0.0
H1710 H 0.34135 0.62248 0.89002 0.0
H1711 H 0.3497 0.6432 0.88229 0.0
H1712 H 0.41078 0.61498 0.94623 0.0
H1713 H 0.42024 0.63488 0.93809 0.0
H1714 H 0.40067 0.59076 0.93531 0.0
H1715 H 0.37929 0.58344 0.92823 0.0
C1716 C 0.36712 0.35923 0.90385 0.0
C1717 C 0.3858 0.3634 0.9023 0.0
C1718 C 0.37786 0.39523 0.89717 0.0
C1719 C 0.3599 0.39161 0.90302 0.0
N1720 N 0.33787 0.36971 0.91395 0.0
N1721 N 0.40928 0.38601 0.89845 0.0
C1722 C 0.35446 0.37345 0.90657 0.0
C1723 C 0.39131 0.38152 0.89885 0.0
N1724 N 0.36151 0.34162 0.9028 0.0
N1725 N 0.38203 0.41176 0.88995 0.0
H1726 H 0.41971 0.37661 0.89974 0.0
H1727 H 0.41386 0.39937 0.89821 0.0
H1728 H 0.37231 0.42189 0.88814 0.0
H1729 H 0.3945 0.41465 0.88399 0.0
H1730 H 0.34788 0.3379 0.90224 0.0
H1731 H 0.3705 0.33095 0.90042 0.0
H1732 H 0.33431 0.35688 0.91867 0.0
H1733 H 0.32822 0.3795 0.91703 0.0
C1734 C 0.61705 0.36539 0.89538 0.0
C1735 C 0.60436 0.36523 0.90984 0.0
C1736 C 0.61847 0.39248 0.92265 0.0
C1737 C 0.6326 0.39112 0.90965 0.0
N1738 N 0.6461 0.37604 0.88406 0.0
N1739 N 0.59482 0.37681 0.93902 0.0
C1740 C 0.63207 0.37753 0.89607 0.0
C1741 C 0.60534 0.37845 0.92382 0.0
N1742 N 0.61447 0.35422 0.88084 0.0
N1743 N 0.61777 0.40693 0.93423 0.0
H1744 H 0.58539 0.36648 0.94098 0.0
H1745 H 0.59662 0.38468 0.9506 0.0
H1746 H 0.6276 0.41705 0.9347 0.0
H1747 H 0.60661 0.40972 0.94243 0.0
H1748 H 0.62225 0.35478 0.86908 0.0
H1749 H 0.60346 0.34538 0.87988 0.0
H1750 H 0.64767 0.36517 0.87521 0.0
H1751 H 0.65676 0.38533 0.88357 0.0
C1752 C 0.62531 0.3587 0.0706 0.0
C1753 C 0.61215 0.35832 0.08466 0.0
C1754 C 0.62732 0.38374 0.09985 0.0
C1755 C 0.63944 0.38511 0.085 0.0
N1756 N 0.64832 0.37595 0.05484 0.0
N1757 N 0.5995 0.37093 0.11199 0.0
C1758 C 0.63815 0.37301 0.07008 0.0
C1759 C 0.61284 0.37098 0.09912 0.0
N1760 N 0.6254 0.34555 0.05751 0.0
N1761 N 0.63002 0.39433 0.11482 0.0
H1762 H 0.5893 0.36113 0.11242 0.0
H1763 H 0.59795 0.38103 0.1217 0.0
H1764 H 0.6405 0.40379 0.1157 0.0
H1765 H 0.62282 0.39286 0.12687 0.0
H1766 H 0.63606 0.3437 0.04845 0.0
H1767 H 0.61541 0.33564 0.05628 0.0
H1768 H 0.6463 0.36914 0.04265 0.0
H1769 H 0.65783 0.38633 0.05369 0.0
C1770 C 0.62768 0.61516 0.1016 0.0
C1771 C 0.63549 0.60939 0.08499 0.0
C1772 C 0.61589 0.63027 0.06802 0.0
C1773 C 0.60863 0.6366 0.08468 0.0
N1774 N 0.60814 0.63667 0.11727 0.0
N1775 N 0.63742 0.61098 0.05238 0.0
C1776 C 0.61465 0.62946 0.10149 0.0
C1777 C 0.62967 0.61683 0.06819 0.0
N1778 N 0.63262 0.60678 0.11738 0.0
N1779 N 0.60935 0.637 0.05201 0.0
H1780 H 0.64603 0.59984 0.05171 0.0
H1781 H 0.63581 0.61728 0.03988 0.0
H1782 H 0.60028 0.64778 0.05131 0.0
H1783 H 0.61227 0.63167 0.0393 0.0
H1784 H 0.62635 0.609 0.1298 0.0
H1785 H 0.64253 0.59671 0.11792 0.0
H1786 H 0.61304 0.63341 0.13008 0.0
H1787 H 0.59828 0.64681 0.11755 0.0
C1788 C 0.37501 0.60653 0.06984 0.0
C1789 C 0.36565 0.60289 0.08624 0.0
C1790 C 0.38359 0.62628 0.10173 0.0
C1791 C 0.39152 0.63109 0.08488 0.0
N1792 N 0.39107 0.62889 0.0522 0.0
N1793 N 0.35947 0.6102 0.11743 0.0
C1794 C 0.38632 0.62199 0.06875 0.0
C1795 C 0.36947 0.61306 0.10211 0.0
N1796 N 0.37301 0.59538 0.05517 0.0
N1797 N 0.38993 0.63392 0.11737 0.0
H1798 H 0.34965 0.60005 0.11835 0.0
H1799 H 0.36016 0.61848 0.12884 0.0
H1800 H 0.40023 0.64361 0.1175 0.0
H1801 H 0.386 0.62971 0.13025 0.0
H1802 H 0.38113 0.5963 0.04365 0.0
H1803 H 0.36445 0.58416 0.055 0.0
H1804 H 0.38601 0.62393 0.03998 0.0
H1805 H 0.39828 0.64091 0.05063 0.0
C1806 C 0.38493 0.36989 0.09903 0.0
C1807 C 0.38274 0.35476 0.08736 0.0
C1808 C 0.35208 0.36515 0.07971 0.0
C1809 C 0.35562 0.38169 0.08874 0.0
N1810 N 0.3752 0.40033 0.10695 0.0
N1811 N 0.36497 0.33921 0.0645 0.0
C1812 C 0.37194 0.38415 0.09856 0.0
C1813 C 0.36637 0.35247 0.0774 0.0
N1814 N 0.39932 0.37045 0.11069 0.0
N1815 N 0.33518 0.36176 0.07291 0.0
H1816 H 0.3752 0.32994 0.06162 0.0
H1817 H 0.35425 0.33841 0.05535 0.0
H1818 H 0.3245 0.37096 0.07394 0.0
H1819 H 0.33127 0.34918 0.06782 0.0
H1820 H 0.40091 0.38032 0.12064 0.0
H1821 H 0.40884 0.36002 0.11151 0.0
H1822 H 0.38768 0.40386 0.11252 0.0
H1823 H 0.36552 0.41064 0.10759 0.0
C1824 C 0.91562 0.64328 0.63088 0.0
C1825 C 0.91253 0.63862 0.61243 0.0
C1826 C 0.91008 0.60658 0.62097 0.0
C1827 C 0.9123 0.61145 0.63947 0.0
N1828 N 0.91102 0.63484 0.66222 0.0
N1829 N 0.90168 0.61661 0.59083 0.0
C1830 C 0.91297 0.62996 0.64446 0.0
C1831 C 0.90808 0.6205 0.60777 0.0
N1832 N 0.92247 0.65987 0.6355 0.0
N1833 N 0.91103 0.58884 0.61573 0.0
H1834 H 0.89956 0.62657 0.58101 0.0
H1835 H 0.89666 0.60392 0.58722 0.0
H1836 H 0.91278 0.57815 0.62477 0.0
H1837 H 0.9116 0.58485 0.6022 0.0
H1838 H 0.92666 0.66302 0.64862 0.0
H1839 H 0.92594 0.66983 0.62614 0.0
H1840 H 0.90979 0.64828 0.66639 0.0
H1841 H 0.90854 0.6254 0.67247 0.0
C1842 C 0.37626 0.93721 0.61575 0.0
C1843 C 0.36657 0.92117 0.61153 0.0
C1844 C 0.38608 0.90387 0.63219 0.0
C1845 C 0.39435 0.92031 0.63784 0.0
N1846 N 0.3945 0.9531 0.63774 0.0
N1847 N 0.36084 0.88946 0.6166 0.0
C1848 C 0.38873 0.93712 0.63033 0.0
C1849 C 0.37112 0.9045 0.61994 0.0
N1850 N 0.37391 0.95245 0.60547 0.0
N1851 N 0.39288 0.88769 0.6381 0.0
H1852 H 0.3501 0.88945 0.6074 0.0
H1853 H 0.36218 0.87737 0.62375 0.0
H1854 H 0.40381 0.88679 0.64703 0.0
H1855 H 0.38866 0.87518 0.63311 0.0
H1856 H 0.382 0.96396 0.60673 0.0
H1857 H 0.36512 0.95299 0.59442 0.0
H1858 H 0.38926 0.96568 0.63405 0.0
H1859 H 0.40311 0.95381 0.64891 0.0
C1860 C 0.09889 0.38854 0.62561 0.0
C1861 C 0.08617 0.38818 0.64006 0.0
C1862 C 0.07149 0.36153 0.62677 0.0
C1863 C 0.085 0.36103 0.61306 0.0
N1864 N 0.11311 0.37222 0.60079 0.0
N1865 N 0.06232 0.37248 0.65623 0.0
C1866 C 0.09914 0.37406 0.61283 0.0
C1867 C 0.07322 0.37399 0.6413 0.0
N1868 N 0.1106 0.40281 0.62406 0.0
N1869 N 0.05625 0.35104 0.62526 0.0
H1870 H 0.06219 0.38182 0.66681 0.0
H1871 H 0.0543 0.36115 0.65881 0.0
H1872 H 0.05392 0.34218 0.61451 0.0
H1873 H 0.04496 0.35248 0.63362 0.0
H1874 H 0.11872 0.40503 0.61273 0.0
H1875 H 0.11153 0.41305 0.63376 0.0
H1876 H 0.12477 0.38017 0.60107 0.0
H1877 H 0.11374 0.3617 0.59136 0.0
C1878 C 0.63023 0.09329 0.6415 0.0
C1879 C 0.61149 0.09092 0.63775 0.0
C1880 C 0.61765 0.09048 0.60514 0.0
C1881 C 0.63644 0.09191 0.60891 0.0
N1882 N 0.66034 0.09961 0.62987 0.0
N1883 N 0.58679 0.09231 0.61654 0.0
C1884 C 0.64261 0.09518 0.62683 0.0
C1885 C 0.60503 0.0912 0.61967 0.0
N1886 N 0.6364 0.09227 0.65896 0.0
N1887 N 0.61199 0.08791 0.58768 0.0
H1888 H 0.57734 0.09315 0.62704 0.0
H1889 H 0.58111 0.09404 0.60374 0.0
H1890 H 0.62082 0.08859 0.57664 0.0
H1891 H 0.59876 0.08451 0.58414 0.0
H1892 H 0.65006 0.09145 0.66239 0.0
H1893 H 0.62785 0.09107 0.67014 0.0
H1894 H 0.66524 0.10397 0.64237 0.0
H1895 H 0.66996 0.10049 0.61957 0.0
C1896 C 0.91147 0.38078 0.39651 0.0
C1897 C 0.90845 0.36256 0.39138 0.0
C1898 C 0.90067 0.37271 0.36072 0.0
C1899 C 0.90744 0.3902 0.36495 0.0
N1900 N 0.92174 0.41021 0.3868 0.0
N1901 N 0.90107 0.34074 0.36808 0.0
C1902 C 0.9132 0.39423 0.38291 0.0
C1903 C 0.90295 0.35837 0.37342 0.0
N1904 N 0.9128 0.38517 0.41446 0.0
N1905 N 0.89195 0.36986 0.34463 0.0
H1906 H 0.90255 0.32979 0.37687 0.0
H1907 H 0.89928 0.33691 0.35461 0.0
H1908 H 0.88977 0.38021 0.33524 0.0
H1909 H 0.88529 0.35782 0.34147 0.0
H1910 H 0.91336 0.3985 0.4191 0.0
H1911 H 0.91131 0.37556 0.42474 0.0
H1912 H 0.92797 0.41276 0.39922 0.0
H1913 H 0.92431 0.42029 0.37728 0.0
C1914 C 0.63883 0.9049 0.37151 0.0
C1915 C 0.63695 0.91624 0.38693 0.0
C1916 C 0.60656 0.92513 0.37677 0.0
C1917 C 0.60954 0.91587 0.36019 0.0
N1918 N 0.62862 0.89761 0.34106 0.0
N1919 N 0.62025 0.93959 0.40277 0.0
C1920 C 0.6257 0.90586 0.35738 0.0
C1921 C 0.62103 0.92682 0.38935 0.0
N1922 N 0.65293 0.89291 0.37061 0.0
N1923 N 0.59 0.93264 0.38037 0.0
H1924 H 0.63074 0.94196 0.41193 0.0
H1925 H 0.60992 0.94916 0.40379 0.0
H1926 H 0.5792 0.93233 0.37127 0.0
H1927 H 0.58644 0.93778 0.39303 0.0
H1928 H 0.65418 0.88308 0.36057 0.0
H1929 H 0.66261 0.89171 0.38087 0.0
H1930 H 0.64098 0.89193 0.3373 0.0
H1931 H 0.61884 0.89726 0.33084 0.0
C1932 C 0.07975 0.63993 0.37374 0.0
C1933 C 0.08727 0.63605 0.39105 0.0
C1934 C 0.09621 0.60577 0.38069 0.0
C1935 C 0.08871 0.60967 0.36342 0.0
N1936 N 0.07715 0.63159 0.34207 0.0
N1937 N 0.10612 0.61728 0.40992 0.0
C1938 C 0.08192 0.62721 0.35943 0.0
C1939 C 0.09661 0.61956 0.39417 0.0
N1940 N 0.06927 0.65504 0.37131 0.0
N1941 N 0.10254 0.58873 0.38428 0.0
H1942 H 0.1068 0.62727 0.41991 0.0
H1943 H 0.11457 0.60627 0.41244 0.0
H1944 H 0.1035 0.5787 0.37435 0.0
H1945 H 0.10612 0.58428 0.39718 0.0
H1946 H 0.06153 0.65738 0.35974 0.0
H1947 H 0.06701 0.66467 0.38138 0.0
H1948 H 0.07404 0.64473 0.33797 0.0
H1949 H 0.07776 0.62245 0.33133 0.0
C1950 C 0.39415 0.09891 0.38791 0.0
C1951 C 0.38784 0.09863 0.36973 0.0
C1952 C 0.35713 0.10568 0.38022 0.0
C1953 C 0.36268 0.10161 0.39815 0.0
N1954 N 0.38695 0.10412 0.41967 0.0
N1955 N 0.3635 0.10248 0.34817 0.0
C1956 C 0.38144 0.10126 0.40223 0.0
C1957 C 0.36946 0.10269 0.36571 0.0
N1958 N 0.41216 0.09631 0.39142 0.0
N1959 N 0.34051 0.11324 0.37722 0.0
H1960 H 0.37213 0.10062 0.33713 0.0
H1961 H 0.34985 0.10303 0.34461 0.0
H1962 H 0.3322 0.11752 0.38782 0.0
H1963 H 0.33614 0.11766 0.36455 0.0
H1964 H 0.41743 0.09415 0.40432 0.0
H1965 H 0.42192 0.0958 0.38118 0.0
H1966 H 0.40044 0.10513 0.42364 0.0
H1967 H 0.3778 0.1076 0.42989 0.0
C1968 C 0.60674 0.90801 0.61551 0.0
C1969 C 0.61199 0.90606 0.63389 0.0
C1970 C 0.64346 0.90155 0.62422 0.0
C1971 C 0.63871 0.90725 0.60651 0.0
N1972 N 0.61571 0.91727 0.58538 0.0
N1973 N 0.63592 0.90237 0.65607 0.0
C1974 C 0.62027 0.91053 0.60202 0.0
C1975 C 0.63046 0.90284 0.63837 0.0
N1976 N 0.58878 0.9074 0.611 0.0
N1977 N 0.66042 0.89482 0.62746 0.0
H1978 H 0.62708 0.90347 0.66701 0.0
H1979 H 0.6495 0.90231 0.65995 0.0
H1980 H 0.67012 0.89345 0.61726 0.0
H1981 H 0.66416 0.88886 0.63971 0.0
H1982 H 0.58416 0.90709 0.59767 0.0
H1983 H 0.57861 0.90528 0.62062 0.0
H1984 H 0.60276 0.92194 0.58223 0.0
H1985 H 0.62508 0.91958 0.57509 0.0
C1986 C 0.61897 0.10451 0.39451 0.0
C1987 C 0.63666 0.09889 0.38944 0.0
C1988 C 0.62642 0.09388 0.35822 0.0
C1989 C 0.60859 0.09898 0.36342 0.0
N1990 N 0.58865 0.11323 0.38489 0.0
N1991 N 0.65839 0.093 0.36561 0.0
C1992 C 0.60513 0.10565 0.3811 0.0
C1993 C 0.6408 0.09538 0.37097 0.0
N1994 N 0.61537 0.10833 0.41228 0.0
N1995 N 0.6294 0.08616 0.34162 0.0
H1996 H 0.66935 0.09321 0.37447 0.0
H1997 H 0.66234 0.09246 0.35207 0.0
H1998 H 0.61938 0.08468 0.33178 0.0
H1999 H 0.64151 0.07987 0.33801 0.0
H2000 H 0.60237 0.11032 0.41741 0.0
H2001 H 0.62551 0.10894 0.42213 0.0
H2002 H 0.58561 0.11974 0.39702 0.0
H2003 H 0.57841 0.11437 0.37518 0.0
C2004 C 0.90452 0.60682 0.37571 0.0
C2005 C 0.91005 0.61204 0.35806 0.0
C2006 C 0.91119 0.64369 0.36797 0.0
C2007 C 0.90922 0.63798 0.3862 0.0
N2008 N 0.90573 0.61352 0.40777 0.0
N2009 N 0.92094 0.63549 0.33782 0.0
C2010 C 0.90605 0.61941 0.39021 0.0
C2011 C 0.91374 0.63053 0.35417 0.0
N2012 N 0.89761 0.58987 0.37858 0.0
N2013 N 0.9105 0.66173 0.36384 0.0
H2014 H 0.92369 0.62638 0.32741 0.0
H2015 H 0.92578 0.64849 0.33518 0.0
H2016 H 0.90825 0.67169 0.37364 0.0
H2017 H 0.91019 0.66661 0.35059 0.0
H2018 H 0.89178 0.58588 0.3908 0.0
H2019 H 0.89596 0.58046 0.36815 0.0
H2020 H 0.90563 0.59985 0.4113 0.0
H2021 H 0.90706 0.6221 0.41889 0.0
C2022 C 0.39081 0.92204 0.38015 0.0
C2023 C 0.38846 0.91381 0.36289 0.0
C2024 C 0.35768 0.90436 0.37137 0.0
C2025 C 0.36031 0.91214 0.38872 0.0
N2026 N 0.38053 0.92449 0.41124 0.0
N2027 N 0.3715 0.89377 0.34345 0.0
C2028 C 0.37733 0.91955 0.39366 0.0
C2029 C 0.37243 0.90391 0.35892 0.0
N2030 N 0.40512 0.93343 0.38326 0.0
N2031 N 0.34098 0.89787 0.36668 0.0
H2032 H 0.38223 0.89289 0.33426 0.0
H2033 H 0.36087 0.88497 0.34052 0.0
H2034 H 0.33018 0.8973 0.37581 0.0
H2035 H 0.33754 0.89396 0.35356 0.0
H2036 H 0.40623 0.94151 0.39478 0.0
H2037 H 0.41512 0.93623 0.3737 0.0
H2038 H 0.3933 0.92814 0.41603 0.0
H2039 H 0.37083 0.92334 0.42145 0.0
C2040 C 0.08761 0.36388 0.35652 0.0
C2041 C 0.09014 0.38202 0.36246 0.0
C2042 C 0.1008 0.3709 0.39198 0.0
C2043 C 0.0953 0.35317 0.38696 0.0
N2044 N 0.09406 0.33219 0.362 0.0
N2045 N 0.10049 0.40311 0.38519 0.0
C2046 C 0.09195 0.34941 0.36843 0.0
C2047 C 0.09734 0.38562 0.37997 0.0
N2048 N 0.07987 0.36041 0.34004 0.0
N2049 N 0.11056 0.37333 0.40752 0.0
H2050 H 0.09947 0.41406 0.3763 0.0
H2051 H 0.10346 0.40692 0.39844 0.0
H2052 H 0.1153 0.36243 0.41518 0.0
H2053 H 0.11603 0.38567 0.41158 0.0
H2054 H 0.07567 0.34753 0.33607 0.0
H2055 H 0.07623 0.37052 0.33087 0.0
H2056 H 0.09314 0.32885 0.34832 0.0
H2057 H 0.09942 0.32181 0.36996 0.0
C2058 C 0.38327 0.1028 0.61082 0.0
C2059 C 0.36493 0.10115 0.61623 0.0
C2060 C 0.37441 0.10186 0.64804 0.0
C2061 C 0.39263 0.09941 0.64248 0.0
N2062 N 0.41463 0.09684 0.61827 0.0
N2063 N 0.3427 0.09874 0.64021 0.0
C2064 C 0.39724 0.10012 0.6238 0.0
C2065 C 0.36032 0.10102 0.63492 0.0
N2066 N 0.38724 0.1068 0.59317 0.0
N2067 N 0.37065 0.10497 0.66591 0.0
H2068 H 0.33188 0.09824 0.63116 0.0
H2069 H 0.3389 0.0962 0.65356 0.0
H2070 H 0.38081 0.10585 0.67573 0.0
H2071 H 0.35782 0.10849 0.67065 0.0
H2072 H 0.40028 0.10979 0.58864 0.0
H2073 H 0.37715 0.10898 0.58348 0.0
H2074 H 0.41821 0.09493 0.60475 0.0
H2075 H 0.42537 0.09471 0.62717 0.0
C2076 C 0.89966 0.36446 0.62361 0.0
C2077 C 0.91136 0.36572 0.60843 0.0
C2078 C 0.92505 0.39331 0.62077 0.0
C2079 C 0.91284 0.39253 0.63566 0.0
N2080 N 0.88623 0.37964 0.64955 0.0
N2081 N 0.93248 0.38311 0.59048 0.0
C2082 C 0.89943 0.37876 0.63657 0.0
C2083 C 0.92305 0.38083 0.60628 0.0
N2084 N 0.88909 0.34941 0.62581 0.0
N2085 N 0.93946 0.405 0.62107 0.0
H2086 H 0.93196 0.37393 0.57976 0.0
H2087 H 0.93961 0.39489 0.58736 0.0
H2088 H 0.94196 0.41407 0.63159 0.0
H2089 H 0.95003 0.40455 0.61171 0.0
H2090 H 0.88186 0.34661 0.6376 0.0
H2091 H 0.88832 0.33915 0.61611 0.0
H2092 H 0.87508 0.37099 0.64995 0.0
H2093 H 0.88555 0.3901 0.65904 0.0
C2094 C 0.09197 0.63175 0.64717 0.0
C2095 C 0.09276 0.61326 0.64185 0.0
C2096 C 0.09331 0.62226 0.60988 0.0
C2097 C 0.09287 0.64076 0.61522 0.0
N2098 N 0.0975 0.66299 0.63866 0.0
N2099 N 0.09982 0.59131 0.61874 0.0
C2100 C 0.09413 0.64544 0.63381 0.0
C2101 C 0.09533 0.60867 0.62337 0.0
N2102 N 0.08784 0.63638 0.66463 0.0
N2103 N 0.09052 0.61749 0.5922 0.0
H2104 H 0.10177 0.58114 0.62838 0.0
H2105 H 0.1035 0.58753 0.60564 0.0
H2106 H 0.0886 0.62682 0.5818 0.0
H2107 H 0.08856 0.60413 0.58806 0.0
H2108 H 0.08501 0.64963 0.66861 0.0
H2109 H 0.08565 0.62696 0.67491 0.0
H2110 H 0.10023 0.66693 0.65195 0.0
H2111 H 0.09952 0.67325 0.62913 0.0
C2112 C 0.07664 0.23483 0.40105 0.0
C2113 C 0.08712 0.22413 0.41314 0.0
C2114 C 0.10037 0.25156 0.42648 0.0
C2115 C 0.08932 0.26224 0.41492 0.0
N2116 N 0.07184 0.2644 0.38748 0.0
N2117 N 0.11298 0.22186 0.4329 0.0
C2118 C 0.07911 0.25393 0.40093 0.0
C2119 C 0.10036 0.23241 0.42437 0.0
N2120 N 0.06349 0.22702 0.39061 0.0
N2121 N 0.10994 0.25951 0.4402 0.0
H2122 H 0.11345 0.20782 0.43125 0.0
H2123 H 0.12399 0.22712 0.44 0.0
H2124 H 0.11074 0.27348 0.44196 0.0
H2125 H 0.11628 0.25221 0.45048 0.0
H2126 H 0.05388 0.23443 0.38341 0.0
H2127 H 0.06142 0.2131 0.38994 0.0
H2128 H 0.06563 0.25907 0.37598 0.0
H2129 H 0.07375 0.27841 0.38694 0.0
C2130 C 0.75761 0.09707 0.40961 0.0
C2131 C 0.76653 0.08013 0.40774 0.0
C2132 C 0.73727 0.06431 0.40865 0.0
C2133 C 0.72833 0.08127 0.41051 0.0
N2134 N 0.72923 0.11381 0.40886 0.0
N2135 N 0.7649 0.04793 0.40193 0.0
C2136 C 0.7383 0.09768 0.4098 0.0
C2137 C 0.75635 0.06389 0.40588 0.0
N2138 N 0.76765 0.11253 0.41154 0.0
N2139 N 0.7278 0.04852 0.41098 0.0
H2140 H 0.77892 0.04656 0.40124 0.0
H2141 H 0.75807 0.0362 0.39806 0.0
H2142 H 0.71386 0.04799 0.41313 0.0
H2143 H 0.7339 0.03586 0.41224 0.0
H2144 H 0.76219 0.12499 0.41523 0.0
H2145 H 0.78173 0.11274 0.41013 0.0
H2146 H 0.73553 0.12623 0.40665 0.0
H2147 H 0.7151 0.11462 0.40872 0.0
C2148 C 0.89815 0.75628 0.42398 0.0
C2149 C 0.90981 0.76483 0.41129 0.0
C2150 C 0.9193 0.73537 0.3994 0.0
C2151 C 0.90886 0.72679 0.4131 0.0
N2152 N 0.88491 0.72831 0.43528 0.0
N2153 N 0.92797 0.76343 0.38433 0.0
C2154 C 0.89697 0.73702 0.42422 0.0
C2155 C 0.91919 0.7546 0.39807 0.0
N2156 N 0.8892 0.76655 0.43656 0.0
N2157 N 0.92969 0.72501 0.38806 0.0
H2158 H 0.92786 0.77753 0.38311 0.0
H2159 H 0.93422 0.75699 0.37346 0.0
H2160 H 0.92896 0.71088 0.38791 0.0
H2161 H 0.93921 0.7302 0.37906 0.0
H2162 H 0.88231 0.76123 0.44765 0.0
H2163 H 0.8893 0.78068 0.43638 0.0
H2164 H 0.87477 0.73487 0.44256 0.0
H2165 H 0.88404 0.71425 0.43615 0.0
C2166 C 0.23941 0.9121 0.43426 0.0
C2167 C 0.23001 0.9107 0.41749 0.0
C2168 C 0.25907 0.90924 0.40131 0.0
C2169 C 0.26829 0.90979 0.41816 0.0
N2170 N 0.26734 0.90733 0.45073 0.0
N2171 N 0.23055 0.90461 0.38542 0.0
C2172 C 0.25845 0.90956 0.43464 0.0
C2173 C 0.23975 0.90824 0.40108 0.0
N2174 N 0.23047 0.91742 0.44962 0.0
N2175 N 0.26879 0.91012 0.38557 0.0
H2176 H 0.21644 0.90369 0.38491 0.0
H2177 H 0.23688 0.90105 0.37332 0.0
H2178 H 0.28294 0.90991 0.38536 0.0
H2179 H 0.2629 0.9119 0.37286 0.0
H2180 H 0.23705 0.92061 0.4617 0.0
H2181 H 0.21674 0.92067 0.44993 0.0
H2182 H 0.2607 0.90513 0.463 0.0
H2183 H 0.28136 0.90594 0.4516 0.0
C2184 C 0.08092 0.74253 0.60225 0.0
C2185 C 0.0918 0.73315 0.58949 0.0
C2186 C 0.10513 0.76184 0.57951 0.0
C2187 C 0.09174 0.77127 0.58954 0.0
N2188 N 0.06664 0.77091 0.61056 0.0
N2189 N 0.11499 0.73327 0.56654 0.0
C2190 C 0.07987 0.76177 0.60135 0.0
C2191 C 0.10433 0.74264 0.57846 0.0
N2192 N 0.07125 0.73302 0.61488 0.0
N2193 N 0.11858 0.77139 0.57107 0.0
H2194 H 0.11547 0.71913 0.56627 0.0
H2195 H 0.12279 0.73939 0.55651 0.0
H2196 H 0.11953 0.78548 0.57196 0.0
H2197 H 0.12963 0.76539 0.56467 0.0
H2198 H 0.06446 0.73908 0.62567 0.0
H2199 H 0.0713 0.71891 0.61554 0.0
H2200 H 0.05606 0.76456 0.61742 0.0
H2201 H 0.06552 0.78498 0.61056 0.0
C2202 C 0.24208 0.10284 0.5929 0.0
C2203 C 0.2333 0.086 0.58996 0.0
C2204 C 0.26258 0.07113 0.5854 0.0
C2205 C 0.27152 0.08769 0.5895 0.0
N2206 N 0.2702 0.11865 0.59972 0.0
N2207 N 0.23498 0.05348 0.58674 0.0
C2208 C 0.26138 0.1034 0.594 0.0
C2209 C 0.24351 0.06993 0.58746 0.0
N2210 N 0.23196 0.1183 0.59425 0.0
N2211 N 0.27206 0.05692 0.57815 0.0
H2212 H 0.22094 0.052 0.58719 0.0
H2213 H 0.24189 0.04118 0.58718 0.0
H2214 H 0.28592 0.05734 0.57542 0.0
H2215 H 0.26592 0.04531 0.57298 0.0
H2216 H 0.23751 0.13126 0.59436 0.0
H2217 H 0.21781 0.11816 0.59429 0.0
H2218 H 0.26361 0.13002 0.60484 0.0
H2219 H 0.2843 0.11941 0.60065 0.0
C2220 C 0.90015 0.26085 0.5716 0.0
C2221 C 0.91118 0.27102 0.58356 0.0
C2222 C 0.92336 0.24317 0.59691 0.0
C2223 C 0.9134 0.23304 0.58397 0.0
N2224 N 0.88892 0.23124 0.56252 0.0
N2225 N 0.92952 0.27262 0.61042 0.0
C2226 C 0.9006 0.24162 0.57248 0.0
C2227 C 0.92146 0.26237 0.59727 0.0
N2228 N 0.88987 0.26967 0.55895 0.0
N2229 N 0.93536 0.23452 0.60806 0.0
H2230 H 0.92831 0.28671 0.61083 0.0
H2231 H 0.93611 0.26725 0.62167 0.0
H2232 H 0.93651 0.22044 0.60856 0.0
H2233 H 0.94466 0.24117 0.61633 0.0
H2234 H 0.8832 0.26323 0.54832 0.0
H2235 H 0.88846 0.28374 0.55882 0.0
H2236 H 0.87831 0.23647 0.55483 0.0
H2237 H 0.88891 0.2171 0.56315 0.0
C2238 C 0.762 0.89921 0.57238 0.0
C2239 C 0.7706 0.91146 0.58441 0.0
C2240 C 0.74118 0.91952 0.59755 0.0
C2241 C 0.73258 0.90995 0.58331 0.0
N2242 N 0.73398 0.88942 0.55807 0.0
N2243 N 0.769 0.93296 0.60894 0.0
C2244 C 0.74277 0.89916 0.57115 0.0
C2245 C 0.76041 0.9212 0.59748 0.0
N2246 N 0.77235 0.88766 0.56223 0.0
N2247 N 0.73089 0.92724 0.61089 0.0
H2248 H 0.78307 0.93417 0.60955 0.0
H2249 H 0.76227 0.94214 0.61726 0.0
H2250 H 0.71677 0.92636 0.61105 0.0
H2251 H 0.73627 0.93314 0.62251 0.0
H2252 H 0.76705 0.87743 0.55411 0.0
H2253 H 0.78647 0.88737 0.56314 0.0
H2254 H 0.74047 0.88298 0.54733 0.0
H2255 H 0.71988 0.8882 0.55774 0.0
C2256 C 0.41629 0.09939 0.26462 0.0
C2257 C 0.40865 0.08506 0.2749 0.0
C2258 C 0.39754 0.07091 0.24693 0.0
C2259 C 0.40795 0.08338 0.23674 0.0
N2260 N 0.42768 0.10942 0.23547 0.0
N2261 N 0.39229 0.05669 0.27603 0.0
C2262 C 0.41718 0.09784 0.24543 0.0
C2263 C 0.399 0.07085 0.26616 0.0
N2264 N 0.42253 0.11453 0.27328 0.0
N2265 N 0.38626 0.05914 0.23813 0.0
H2266 H 0.3927 0.05618 0.29012 0.0
H2267 H 0.38727 0.04484 0.27024 0.0
H2268 H 0.38493 0.05905 0.22404 0.0
H2269 H 0.37701 0.05077 0.24472 0.0
H2270 H 0.42676 0.12618 0.26654 0.0
H2271 H 0.42185 0.11607 0.28733 0.0
H2272 H 0.43655 0.11877 0.2412 0.0
H2273 H 0.42834 0.10901 0.22136 0.0
C2274 C 0.92332 0.43423 0.24084 0.0
C2275 C 0.91548 0.41919 0.23183 0.0
C2276 C 0.90774 0.40572 0.26127 0.0
C2277 C 0.91406 0.42168 0.27002 0.0
N2278 N 0.92282 0.45313 0.26749 0.0
N2279 N 0.89779 0.39178 0.2331 0.0
C2280 C 0.92024 0.43657 0.25958 0.0
C2281 C 0.90692 0.40525 0.24194 0.0
N2282 N 0.93471 0.4457 0.23179 0.0
N2283 N 0.9034 0.39076 0.27127 0.0
H2284 H 0.89714 0.39101 0.21899 0.0
H2285 H 0.88973 0.38227 0.23971 0.0
H2286 H 0.90392 0.39053 0.28539 0.0
H2287 H 0.9006 0.37817 0.26555 0.0
H2288 H 0.94208 0.45588 0.23824 0.0
H2289 H 0.93844 0.44376 0.2183 0.0
H2290 H 0.92573 0.46478 0.26005 0.0
H2291 H 0.92001 0.45563 0.28112 0.0
C2292 C 0.58993 0.94038 0.25621 0.0
C2293 C 0.58653 0.92422 0.26614 0.0
C2294 C 0.58508 0.9069 0.23777 0.0
C2295 C 0.58872 0.92301 0.22792 0.0
N2296 N 0.59878 0.9542 0.22782 0.0
N2297 N 0.58482 0.89166 0.26698 0.0
C2298 C 0.5927 0.9394 0.23718 0.0
C2299 C 0.58532 0.90732 0.25708 0.0
N2300 N 0.58908 0.95687 0.26466 0.0
N2301 N 0.5811 0.89129 0.22863 0.0
H2302 H 0.58524 0.89157 0.28112 0.0
H2303 H 0.58562 0.87878 0.26129 0.0
H2304 H 0.58206 0.89023 0.21455 0.0
H2305 H 0.57614 0.87964 0.23485 0.0
H2306 H 0.58899 0.96916 0.25772 0.0
H2307 H 0.58681 0.95845 0.27849 0.0
H2308 H 0.60388 0.96576 0.2341 0.0
H2309 H 0.60026 0.95449 0.2138 0.0
C2310 C 0.08837 0.56164 0.24304 0.0
C2311 C 0.08707 0.5786 0.23398 0.0
C2312 C 0.0872 0.59436 0.26326 0.0
C2313 C 0.08896 0.57743 0.27218 0.0
N2314 N 0.09563 0.54548 0.27068 0.0
N2315 N 0.0891 0.61115 0.23499 0.0
C2316 C 0.09124 0.56128 0.26206 0.0
C2317 C 0.08769 0.59501 0.24397 0.0
N2318 N 0.08525 0.54586 0.23382 0.0
N2319 N 0.08462 0.60973 0.27326 0.0
H2320 H 0.0897 0.61201 0.22089 0.0
H2321 H 0.09127 0.62351 0.24145 0.0
H2322 H 0.08528 0.60982 0.28739 0.0
H2323 H 0.08103 0.62217 0.26766 0.0
H2324 H 0.08405 0.53328 0.24009 0.0
H2325 H 0.08193 0.54543 0.22011 0.0
H2326 H 0.09935 0.53372 0.26382 0.0
H2327 H 0.09722 0.54454 0.28468 0.0
C2328 C 0.42861 0.90467 0.76187 0.0
C2329 C 0.41577 0.91673 0.76951 0.0
C2330 C 0.40436 0.924 0.73922 0.0
C2331 C 0.41935 0.91467 0.73159 0.0
N2332 N 0.44597 0.89606 0.73535 0.0
N2333 N 0.39093 0.93758 0.76603 0.0
C2334 C 0.43134 0.90464 0.74279 0.0
C2335 C 0.40325 0.92607 0.75836 0.0
N2336 N 0.43809 0.89323 0.77293 0.0
N2337 N 0.39118 0.93072 0.72807 0.0
H2338 H 0.38929 0.93877 0.78002 0.0
H2339 H 0.38291 0.94653 0.75863 0.0
H2340 H 0.3916 0.9291 0.71402 0.0
H2341 H 0.37911 0.93637 0.73272 0.0
H2342 H 0.44653 0.88298 0.76818 0.0
H2343 H 0.43617 0.89292 0.78695 0.0
H2344 H 0.45649 0.89052 0.74296 0.0
H2345 H 0.44813 0.89531 0.72143 0.0
C2346 C 0.09107 0.40925 0.76024 0.0
C2347 C 0.08641 0.42509 0.7701 0.0
C2348 C 0.08478 0.44231 0.74175 0.0
C2349 C 0.0867 0.42601 0.73184 0.0
N2350 N 0.09038 0.39355 0.73132 0.0
N2351 N 0.07555 0.45608 0.76994 0.0
C2352 C 0.08971 0.40935 0.74096 0.0
C2353 C 0.08257 0.44154 0.76082 0.0
N2354 N 0.09713 0.39426 0.76928 0.0
N2355 N 0.08526 0.4586 0.73292 0.0
H2356 H 0.07277 0.45603 0.78378 0.0
H2357 H 0.07068 0.46763 0.76345 0.0
H2358 H 0.08708 0.45966 0.71893 0.0
H2359 H 0.08578 0.47101 0.73964 0.0
H2360 H 0.10241 0.38289 0.76281 0.0
H2361 H 0.09837 0.39384 0.78336 0.0
H2362 H 0.09042 0.38079 0.73733 0.0
H2363 H 0.08968 0.39314 0.71721 0.0
C2364 C 0.59854 0.06965 0.74346 0.0
C2365 C 0.58812 0.08264 0.73376 0.0
C2366 C 0.57694 0.09543 0.76232 0.0
C2367 C 0.58715 0.08228 0.77195 0.0
N2368 N 0.61132 0.06044 0.77235 0.0
N2369 N 0.57151 0.1107 0.73368 0.0
C2370 C 0.59921 0.0706 0.76268 0.0
C2371 C 0.57869 0.0965 0.74315 0.0
N2372 N 0.60673 0.05565 0.73451 0.0
N2373 N 0.56473 0.1061 0.7713 0.0
H2374 H 0.57276 0.11187 0.71963 0.0
H2375 H 0.5659 0.12211 0.73981 0.0
H2376 H 0.56321 0.10594 0.78534 0.0
H2377 H 0.55529 0.1143 0.76476 0.0
H2378 H 0.61244 0.04453 0.74106 0.0
H2379 H 0.60679 0.05439 0.72047 0.0
H2380 H 0.62165 0.05289 0.7664 0.0
H2381 H 0.61213 0.06102 0.78647 0.0
C2382 C 0.9257 0.60168 0.74001 0.0
C2383 C 0.91479 0.58816 0.7318 0.0
C2384 C 0.90279 0.57955 0.76149 0.0
C2385 C 0.91632 0.59035 0.76982 0.0
N2386 N 0.94039 0.61237 0.76742 0.0
N2387 N 0.89204 0.56491 0.73406 0.0
C2388 C 0.92739 0.60201 0.75924 0.0
C2389 C 0.90284 0.57747 0.74236 0.0
N2390 N 0.93471 0.6139 0.7294 0.0
N2391 N 0.88986 0.57144 0.772 0.0
H2392 H 0.89095 0.56392 0.71999 0.0
H2393 H 0.8847 0.55507 0.74102 0.0
H2394 H 0.88938 0.57315 0.78604 0.0
H2395 H 0.87873 0.5645 0.7668 0.0
H2396 H 0.94156 0.62513 0.7345 0.0
H2397 H 0.93406 0.6137 0.71528 0.0
H2398 H 0.95051 0.61924 0.76041 0.0
H2399 H 0.94159 0.61351 0.78143 0.0
C2400 C 0.23615 0.41254 0.09257 0.0
C2401 C 0.22695 0.4148 0.0758 0.0
C2402 C 0.25595 0.41754 0.05997 0.0
C2403 C 0.26525 0.41411 0.07648 0.0
N2404 N 0.26431 0.40482 0.10778 0.0
N2405 N 0.228 0.41453 0.04313 0.0
C2406 C 0.25537 0.41051 0.09259 0.0
C2407 C 0.23685 0.41568 0.05938 0.0
N2408 N 0.22672 0.41331 0.10849 0.0
N2409 N 0.26511 0.42384 0.04512 0.0
H2410 H 0.21398 0.413 0.04215 0.0
H2411 H 0.23471 0.4132 0.03077 0.0
H2412 H 0.27898 0.42648 0.04506 0.0
H2413 H 0.25862 0.42837 0.03342 0.0
H2414 H 0.23295 0.41384 0.12115 0.0
H2415 H 0.21268 0.41482 0.10908 0.0
H2416 H 0.25772 0.40026 0.1194 0.0
H2417 H 0.27835 0.40309 0.10818 0.0
C2418 C 0.24455 0.58339 0.90124 0.0
C2419 C 0.2357 0.59224 0.91586 0.0
C2420 C 0.26501 0.60147 0.92847 0.0
C2421 C 0.27392 0.59236 0.91401 0.0
N2422 N 0.27243 0.5792 0.88423 0.0
N2423 N 0.23688 0.614 0.94007 0.0
C2424 C 0.26371 0.58487 0.89956 0.0
C2425 C 0.24578 0.60276 0.92834 0.0
N2426 N 0.23489 0.57259 0.8897 0.0
N2427 N 0.27468 0.60772 0.943 0.0
H2428 H 0.22279 0.61531 0.9401 0.0
H2429 H 0.24346 0.62331 0.9484 0.0
H2430 H 0.28876 0.60725 0.9438 0.0
H2431 H 0.26865 0.61228 0.95492 0.0
H2432 H 0.24089 0.56404 0.88022 0.0
H2433 H 0.22084 0.57121 0.89033 0.0
H2434 H 0.2657 0.57511 0.87251 0.0
H2435 H 0.28646 0.58031 0.88264 0.0
C2436 C 0.41555 0.23996 0.89995 0.0
C2437 C 0.41004 0.23173 0.91644 0.0
C2438 C 0.402 0.26154 0.92861 0.0
C2439 C 0.41065 0.26978 0.91359 0.0
N2440 N 0.42598 0.26728 0.88488 0.0
N2441 N 0.399 0.2347 0.94717 0.0
C2442 C 0.41724 0.25914 0.89904 0.0
C2443 C 0.40316 0.24247 0.93087 0.0
N2444 N 0.41901 0.22935 0.88516 0.0
N2445 N 0.3927 0.27205 0.9407 0.0
H2446 H 0.39972 0.22081 0.94957 0.0
H2447 H 0.39611 0.24214 0.95881 0.0
H2448 H 0.39156 0.28607 0.93925 0.0
H2449 H 0.38466 0.26675 0.95103 0.0
H2450 H 0.42157 0.23453 0.87228 0.0
H2451 H 0.4176 0.21528 0.88542 0.0
H2452 H 0.43304 0.26016 0.87495 0.0
H2453 H 0.42703 0.28132 0.88359 0.0
C2454 C 0.75807 0.39609 0.92196 0.0
C2455 C 0.76821 0.40902 0.91195 0.0
C2456 C 0.74016 0.42236 0.9001 0.0
C2457 C 0.72999 0.40983 0.91061 0.0
N2458 N 0.72889 0.38167 0.92695 0.0
N2459 N 0.76945 0.43051 0.88748 0.0
C2460 C 0.73889 0.39561 0.91997 0.0
C2461 C 0.75937 0.4208 0.89963 0.0
N2462 N 0.76654 0.38515 0.93427 0.0
N2463 N 0.73168 0.43651 0.89168 0.0
H2464 H 0.78355 0.42943 0.88677 0.0
H2465 H 0.76381 0.43811 0.87702 0.0
H2466 H 0.71766 0.43812 0.89145 0.0
H2467 H 0.73861 0.44734 0.88585 0.0
H2468 H 0.75961 0.37715 0.94361 0.0
H2469 H 0.78056 0.38483 0.93597 0.0
H2470 H 0.73461 0.37004 0.93255 0.0
H2471 H 0.71483 0.38097 0.92546 0.0
C2472 C 0.59163 0.7628 0.90357 0.0
C2473 C 0.59502 0.77139 0.92045 0.0
C2474 C 0.60165 0.74185 0.93403 0.0
C2475 C 0.59459 0.73331 0.91841 0.0
N2476 N 0.5829 0.73517 0.888 0.0
N2477 N 0.60213 0.76895 0.9524 0.0
C2478 C 0.58989 0.74362 0.90293 0.0
C2479 C 0.60013 0.76095 0.93581 0.0
N2480 N 0.59022 0.77304 0.8882 0.0
N2481 N 0.60975 0.73162 0.94716 0.0
H2482 H 0.60075 0.78282 0.95455 0.0
H2483 H 0.60372 0.76164 0.96437 0.0
H2484 H 0.61121 0.7176 0.94593 0.0
H2485 H 0.61658 0.73716 0.95821 0.0
H2486 H 0.58927 0.76753 0.87524 0.0
H2487 H 0.59181 0.7871 0.88828 0.0
H2488 H 0.57715 0.74209 0.87713 0.0
H2489 H 0.58202 0.7211 0.88692 0.0
C2490 C 0.73879 0.57128 0.1023 0.0
C2491 C 0.72852 0.58174 0.08993 0.0
C2492 C 0.75628 0.59587 0.07835 0.0
C2493 C 0.76657 0.58312 0.08833 0.0
N2494 N 0.76827 0.55888 0.11018 0.0
N2495 N 0.7267 0.60492 0.06705 0.0
C2496 C 0.75805 0.57116 0.10078 0.0
C2497 C 0.73705 0.59455 0.0784 0.0
N2498 N 0.73006 0.56124 0.11518 0.0
N2499 N 0.76503 0.6092 0.06889 0.0
H2500 H 0.71256 0.60505 0.06761 0.0
H2501 H 0.73197 0.61296 0.05672 0.0
H2502 H 0.77913 0.61044 0.06884 0.0
H2503 H 0.75847 0.61984 0.06237 0.0
H2504 H 0.73665 0.5544 0.12561 0.0
H2505 H 0.71596 0.56095 0.11632 0.0
H2506 H 0.76284 0.54834 0.11781 0.0
H2507 H 0.7824 0.55869 0.1097 0.0
C2508 C 0.41424 0.73517 0.09969 0.0
C2509 C 0.40988 0.72569 0.08354 0.0
C2510 C 0.40005 0.75426 0.06967 0.0
C2511 C 0.40797 0.76387 0.08422 0.0
N2512 N 0.42296 0.7638 0.11326 0.0
N2513 N 0.39968 0.72661 0.05227 0.0
C2514 C 0.41485 0.75445 0.09949 0.0
C2515 C 0.40267 0.73525 0.06838 0.0
N2516 N 0.41766 0.7257 0.11524 0.0
N2517 N 0.39012 0.76345 0.05703 0.0
H2518 H 0.4016 0.71281 0.05031 0.0
H2519 H 0.39666 0.73343 0.04028 0.0
H2520 H 0.38788 0.77739 0.05791 0.0
H2521 H 0.38257 0.75707 0.04694 0.0
H2522 H 0.41938 0.73182 0.12784 0.0
H2523 H 0.41695 0.71159 0.11583 0.0
H2524 H 0.43025 0.75759 0.12363 0.0
H2525 H 0.4233 0.77791 0.1138 0.0
C2526 C 0.59823 0.24167 0.08196 0.0
C2527 C 0.58283 0.23098 0.08609 0.0
C2528 C 0.56468 0.25823 0.09133 0.0
C2529 C 0.58005 0.26905 0.08709 0.0
N2530 N 0.61241 0.27134 0.08325 0.0
N2531 N 0.55346 0.22863 0.1001 0.0
C2532 C 0.59718 0.26081 0.08402 0.0
C2533 C 0.56675 0.23917 0.09263 0.0
N2534 N 0.61347 0.23366 0.07512 0.0
N2535 N 0.54784 0.26587 0.0927 0.0
H2536 H 0.55473 0.21461 0.10141 0.0
H2537 H 0.54214 0.23394 0.10668 0.0
H2538 H 0.54539 0.27969 0.09141 0.0
H2539 H 0.53596 0.25828 0.09358 0.0
H2540 H 0.62435 0.24092 0.0698 0.0
H2541 H 0.61481 0.21966 0.07377 0.0
H2542 H 0.62549 0.26607 0.08261 0.0
H2543 H 0.61203 0.28536 0.08505 0.0
C2544 C 0.90369 0.76195 0.57642 0.0
C2545 C 0.91752 0.77077 0.58637 0.0
C2546 C 0.92802 0.74159 0.59807 0.0
C2547 C 0.91643 0.7327 0.58556 0.0
N2548 N 0.89331 0.73413 0.56241 0.0
N2549 N 0.94289 0.7696 0.60686 0.0
C2550 C 0.90396 0.74275 0.57489 0.0
C2551 C 0.92952 0.76079 0.59753 0.0
N2552 N 0.89038 0.77203 0.56839 0.0
N2553 N 0.93744 0.7316 0.61052 0.0
H2554 H 0.94389 0.7837 0.60725 0.0
H2555 H 0.95347 0.763 0.61346 0.0
H2556 H 0.93632 0.71753 0.61136 0.0
H2557 H 0.94499 0.73727 0.621 0.0
H2558 H 0.87895 0.76644 0.56229 0.0
H2559 H 0.88996 0.78614 0.56933 0.0
H2560 H 0.88568 0.74089 0.55266 0.0
H2561 H 0.89287 0.72009 0.56101 0.0
C2562 C 0.24276 0.93036 0.59823 0.0
C2563 C 0.23334 0.91867 0.58629 0.0
C2564 C 0.26207 0.90527 0.57627 0.0
C2565 C 0.27143 0.91904 0.58584 0.0
N2566 N 0.27144 0.94411 0.60673 0.0
N2567 N 0.23331 0.89463 0.56422 0.0
C2568 C 0.26198 0.93127 0.59728 0.0
C2569 C 0.24278 0.90571 0.57567 0.0
N2570 N 0.23321 0.94044 0.6105 0.0
N2571 N 0.27168 0.89205 0.56755 0.0
H2572 H 0.21917 0.89426 0.56386 0.0
H2573 H 0.23932 0.88636 0.55451 0.0
H2574 H 0.28582 0.89166 0.56755 0.0
H2575 H 0.2658 0.88074 0.56154 0.0
H2576 H 0.23915 0.94828 0.62059 0.0
H2577 H 0.21911 0.93974 0.61154 0.0
H2578 H 0.26541 0.95486 0.61358 0.0
H2579 H 0.28558 0.94437 0.60722 0.0
C2580 C 0.07511 0.24056 0.59982 0.0
C2581 C 0.08518 0.23027 0.5871 0.0
C2582 C 0.09802 0.25798 0.57405 0.0
C2583 C 0.08704 0.26831 0.58599 0.0
N2584 N 0.06979 0.26997 0.6136 0.0
N2585 N 0.11013 0.22839 0.56621 0.0
C2586 C 0.07714 0.25971 0.60004 0.0
C2587 C 0.09798 0.23878 0.57559 0.0
N2588 N 0.06284 0.23218 0.61087 0.0
N2589 N 0.10753 0.26636 0.56053 0.0
H2590 H 0.11046 0.21429 0.56732 0.0
H2591 H 0.12089 0.23372 0.55879 0.0
H2592 H 0.10851 0.28038 0.55935 0.0
H2593 H 0.11374 0.25944 0.54992 0.0
H2594 H 0.05339 0.23911 0.61873 0.0
H2595 H 0.06148 0.21814 0.61157 0.0
H2596 H 0.0637 0.26452 0.6251 0.0
H2597 H 0.07138 0.28402 0.61414 0.0
C2598 C 0.75862 0.09876 0.5744 0.0
C2599 C 0.76778 0.08454 0.58345 0.0
C2600 C 0.73878 0.0727 0.5946 0.0
C2601 C 0.72962 0.08496 0.58291 0.0
N2602 N 0.73024 0.11037 0.56242 0.0
N2603 N 0.76715 0.05801 0.6025 0.0
C2604 C 0.73939 0.09836 0.57318 0.0
C2605 C 0.75806 0.07177 0.59404 0.0
N2606 N 0.76843 0.11272 0.56717 0.0
N2607 N 0.72906 0.06168 0.60591 0.0
H2608 H 0.78125 0.05726 0.603 0.0
H2609 H 0.76083 0.04681 0.60829 0.0
H2610 H 0.71495 0.06134 0.60614 0.0
H2611 H 0.7349 0.05383 0.61607 0.0
H2612 H 0.76268 0.12434 0.56162 0.0
H2613 H 0.78254 0.11341 0.56823 0.0
H2614 H 0.73652 0.119 0.55319 0.0
H2615 H 0.71612 0.11129 0.56228 0.0
C2616 C 0.90289 0.23956 0.41561 0.0
C2617 C 0.91758 0.23042 0.4072 0.0
C2618 C 0.93239 0.25941 0.40073 0.0
C2619 C 0.91799 0.26855 0.40971 0.0
N2620 N 0.88748 0.2681 0.42124 0.0
N2621 N 0.9434 0.2316 0.38715 0.0
C2622 C 0.90255 0.25882 0.41572 0.0
C2623 C 0.93126 0.24036 0.39806 0.0
N2624 N 0.8895 0.22973 0.42384 0.0
N2625 N 0.9478 0.2686 0.39604 0.0
H2626 H 0.94324 0.21766 0.38507 0.0
H2627 H 0.95252 0.23833 0.37872 0.0
H2628 H 0.94941 0.2825 0.39773 0.0
H2629 H 0.95964 0.26224 0.39171 0.0
H2630 H 0.87967 0.23538 0.43223 0.0
H2631 H 0.8886 0.21566 0.42272 0.0
H2632 H 0.87518 0.26194 0.42436 0.0
H2633 H 0.88678 0.28223 0.4211 0.0
C2634 C 0.74062 0.92269 0.39767 0.0
C2635 C 0.73165 0.91241 0.41117 0.0
C2636 C 0.76078 0.89991 0.42097 0.0
C2637 C 0.76981 0.913 0.41018 0.0
N2638 N 0.76846 0.93718 0.38811 0.0
N2639 N 0.73281 0.89084 0.43569 0.0
C2640 C 0.75982 0.92421 0.39813 0.0
C2641 C 0.74157 0.90056 0.42258 0.0
N2642 N 0.73065 0.93102 0.38446 0.0
N2643 N 0.77067 0.88685 0.42963 0.0
H2644 H 0.71874 0.89054 0.43692 0.0
H2645 H 0.7395 0.88381 0.44594 0.0
H2646 H 0.78475 0.88598 0.4284 0.0
H2647 H 0.76489 0.87595 0.43648 0.0
H2648 H 0.73638 0.93739 0.37325 0.0
H2649 H 0.71655 0.92994 0.38382 0.0
H2650 H 0.76165 0.94729 0.38099 0.0
H2651 H 0.78249 0.93861 0.3877 0.0
C2652 C 0.0873 0.75627 0.43177 0.0
C2653 C 0.07706 0.76424 0.41761 0.0
C2654 C 0.07137 0.73412 0.40485 0.0
C2655 C 0.07881 0.72618 0.42073 0.0
N2656 N 0.09191 0.72987 0.45055 0.0
N2657 N 0.05864 0.761 0.39081 0.0
C2658 C 0.08651 0.73726 0.43444 0.0
C2659 C 0.0691 0.75326 0.40399 0.0
N2660 N 0.09798 0.76691 0.44255 0.0
N2661 N 0.06676 0.72334 0.3905 0.0
H2662 H 0.05705 0.77497 0.3895 0.0
H2663 H 0.05066 0.75356 0.38186 0.0
H2664 H 0.06853 0.70931 0.39065 0.0
H2665 H 0.06284 0.72839 0.37792 0.0
H2666 H 0.10706 0.76169 0.45202 0.0
H2667 H 0.0992 0.78087 0.44065 0.0
H2668 H 0.09565 0.73761 0.46175 0.0
H2669 H 0.09108 0.71608 0.45341 0.0
C2670 C 0.24443 0.05487 0.41625 0.0
C2671 C 0.23322 0.0704 0.41768 0.0
C2672 C 0.26022 0.08982 0.4181 0.0
C2673 C 0.2713 0.07418 0.4195 0.0
N2674 N 0.27375 0.04158 0.42231 0.0
N2675 N 0.2303 0.10273 0.42204 0.0
C2676 C 0.26341 0.0566 0.41899 0.0
C2677 C 0.24104 0.08795 0.41894 0.0
N2678 N 0.23692 0.03847 0.41204 0.0
N2679 N 0.26806 0.10642 0.41566 0.0
H2680 H 0.21621 0.10202 0.42293 0.0
H2681 H 0.23543 0.11549 0.42521 0.0
H2682 H 0.28208 0.1082 0.41479 0.0
H2683 H 0.2607 0.11811 0.41275 0.0
H2684 H 0.24457 0.02702 0.40891 0.0
H2685 H 0.22305 0.03675 0.40993 0.0
H2686 H 0.26829 0.02871 0.42424 0.0
H2687 H 0.28764 0.04204 0.42478 0.0
C2688 C 0.59719 0.92709 0.73978 0.0
C2689 C 0.5873 0.9134 0.73067 0.0
C2690 C 0.57946 0.89954 0.75977 0.0
C2691 C 0.58645 0.91501 0.76882 0.0
N2692 N 0.60051 0.9446 0.76727 0.0
N2693 N 0.56876 0.88657 0.73149 0.0
C2694 C 0.59527 0.92895 0.75885 0.0
C2695 C 0.57849 0.8995 0.74053 0.0
N2696 N 0.60817 0.93848 0.73015 0.0
N2697 N 0.5741 0.88479 0.76961 0.0
H2698 H 0.56861 0.88562 0.71738 0.0
H2699 H 0.56016 0.8774 0.73791 0.0
H2700 H 0.57513 0.88426 0.78371 0.0
H2701 H 0.57033 0.8725 0.76379 0.0
H2702 H 0.61705 0.94765 0.73619 0.0
H2703 H 0.60967 0.93757 0.71612 0.0
H2704 H 0.60496 0.95605 0.76031 0.0
H2705 H 0.59899 0.94685 0.78111 0.0
C2706 C 0.08175 0.60052 0.74214 0.0
C2707 C 0.08832 0.58447 0.7338 0.0
C2708 C 0.0964 0.57236 0.76361 0.0
C2709 C 0.08678 0.58674 0.7719 0.0
N2710 N 0.06966 0.61443 0.76938 0.0
N2711 N 0.10038 0.55411 0.73672 0.0
C2712 C 0.07952 0.601 0.76129 0.0
C2713 C 0.09557 0.57022 0.74452 0.0
N2714 N 0.07785 0.61532 0.73171 0.0
N2715 N 0.10636 0.56075 0.77407 0.0
H2716 H 0.09965 0.55165 0.72285 0.0
H2717 H 0.10366 0.54258 0.74418 0.0
H2718 H 0.10736 0.56213 0.78811 0.0
H2719 H 0.11506 0.55101 0.7687 0.0
H2720 H 0.07454 0.62795 0.73708 0.0
H2721 H 0.07967 0.61543 0.71768 0.0
H2722 H 0.06216 0.62398 0.76217 0.0
H2723 H 0.06805 0.61539 0.78339 0.0
C2724 C 0.40077 0.08213 0.73954 0.0
C2725 C 0.41622 0.09045 0.73167 0.0
C2726 C 0.42682 0.09882 0.76198 0.0
C2727 C 0.41372 0.08706 0.76966 0.0
N2728 N 0.38848 0.06655 0.76565 0.0
N2729 N 0.44502 0.10578 0.73571 0.0
C2730 C 0.40049 0.0787 0.75849 0.0
C2731 C 0.42939 0.09891 0.74291 0.0
N2732 N 0.38638 0.07752 0.72882 0.0
N2733 N 0.43677 0.10994 0.77296 0.0
H2734 H 0.44782 0.10611 0.7219 0.0
H2735 H 0.45596 0.10994 0.74362 0.0
H2736 H 0.43488 0.11044 0.78697 0.0
H2737 H 0.44539 0.11998 0.76802 0.0
H2738 H 0.37409 0.07283 0.73395 0.0
H2739 H 0.38613 0.08025 0.71493 0.0
H2740 H 0.38003 0.05847 0.75773 0.0
H2741 H 0.38784 0.06347 0.77941 0.0
C2742 C 0.92628 0.40303 0.74067 0.0
C2743 C 0.91483 0.41603 0.73232 0.0
C2744 C 0.90314 0.425 0.76207 0.0
C2745 C 0.9169 0.41445 0.77034 0.0
N2746 N 0.94124 0.39287 0.76818 0.0
N2747 N 0.89184 0.43913 0.73461 0.0
C2748 C 0.92817 0.40302 0.75984 0.0
C2749 C 0.90278 0.42668 0.74287 0.0
N2750 N 0.93517 0.39064 0.73014 0.0
N2751 N 0.89049 0.4334 0.7727 0.0
H2752 H 0.89071 0.4402 0.72057 0.0
H2753 H 0.88448 0.44894 0.74156 0.0
H2754 H 0.89052 0.43232 0.78681 0.0
H2755 H 0.87915 0.44006 0.76761 0.0
H2756 H 0.94259 0.37983 0.73534 0.0
H2757 H 0.93375 0.39024 0.71607 0.0
H2758 H 0.95143 0.38598 0.76126 0.0
H2759 H 0.94236 0.39196 0.78225 0.0
C2760 C 0.58754 0.10259 0.24412 0.0
C2761 C 0.57834 0.08876 0.23444 0.0
C2762 C 0.56536 0.07716 0.26262 0.0
C2763 C 0.5759 0.08979 0.27256 0.0
N2764 N 0.59842 0.11341 0.27331 0.0
N2765 N 0.56169 0.06059 0.23465 0.0
C2766 C 0.58735 0.1023 0.26347 0.0
C2767 C 0.56816 0.07539 0.24375 0.0
N2768 N 0.5961 0.11612 0.23481 0.0
N2769 N 0.55211 0.06732 0.2711 0.0
H2770 H 0.56368 0.05857 0.22081 0.0
H2771 H 0.55589 0.04945 0.2411 0.0
H2772 H 0.54917 0.06857 0.28487 0.0
H2773 H 0.54275 0.05935 0.26416 0.0
H2774 H 0.60149 0.12761 0.24096 0.0
H2775 H 0.5968 0.11637 0.22068 0.0
H2776 H 0.60844 0.12152 0.26756 0.0
H2777 H 0.59838 0.11364 0.28745 0.0
C2778 C 0.90396 0.57485 0.23498 0.0
C2779 C 0.91694 0.58629 0.22669 0.0
C2780 C 0.92473 0.59912 0.25625 0.0
C2781 C 0.91441 0.58527 0.26474 0.0
N2782 N 0.89408 0.55966 0.26229 0.0
N2783 N 0.93943 0.6098 0.22879 0.0
C2784 C 0.90363 0.5733 0.25417 0.0
C2785 C 0.92705 0.59881 0.23711 0.0
N2786 N 0.89196 0.56549 0.22439 0.0
N2787 N 0.93207 0.61265 0.26655 0.0
H2788 H 0.94078 0.61044 0.21472 0.0
H2789 H 0.94888 0.61762 0.23576 0.0
H2790 H 0.93017 0.61338 0.28056 0.0
H2791 H 0.93851 0.62398 0.26115 0.0
H2792 H 0.881 0.55824 0.22955 0.0
H2793 H 0.89194 0.56644 0.21027 0.0
H2794 H 0.88806 0.54905 0.25519 0.0
H2795 H 0.89295 0.55827 0.27626 0.0
C2796 C 0.40386 0.92864 0.24123 0.0
C2797 C 0.41461 0.9162 0.23127 0.0
C2798 C 0.42565 0.90252 0.25947 0.0
C2799 C 0.41553 0.91549 0.26937 0.0
N2800 N 0.39111 0.93706 0.27036 0.0
N2801 N 0.43155 0.88837 0.23033 0.0
C2802 C 0.40329 0.92726 0.26041 0.0
C2803 C 0.42411 0.90212 0.24026 0.0
N2804 N 0.39519 0.94249 0.2325 0.0
N2805 N 0.43748 0.89134 0.26831 0.0
H2806 H 0.4304 0.88771 0.21624 0.0
H2807 H 0.43733 0.87684 0.23606 0.0
H2808 H 0.43845 0.89084 0.2824 0.0
H2809 H 0.44694 0.8832 0.26173 0.0
H2810 H 0.3891 0.95332 0.23917 0.0
H2811 H 0.39499 0.94376 0.21845 0.0
H2812 H 0.38071 0.94469 0.26464 0.0
H2813 H 0.39033 0.93612 0.28446 0.0
C2814 C 0.07213 0.39981 0.26464 0.0
C2815 C 0.07948 0.41517 0.27363 0.0
C2816 C 0.08901 0.42757 0.24436 0.0
C2817 C 0.07874 0.41407 0.23536 0.0
N2818 N 0.05949 0.38767 0.23683 0.0
N2819 N 0.09272 0.44513 0.27169 0.0
C2820 C 0.07021 0.40009 0.24543 0.0
C2821 C 0.08759 0.42935 0.26344 0.0
N2822 N 0.06729 0.38486 0.27444 0.0
N2823 N 0.10023 0.43862 0.23461 0.0
H2824 H 0.09116 0.44751 0.28551 0.0
H2825 H 0.09683 0.45659 0.26455 0.0
H2826 H 0.10191 0.43728 0.22062 0.0
H2827 H 0.10928 0.44766 0.24059 0.0
H2828 H 0.06343 0.37264 0.26853 0.0
H2829 H 0.06889 0.38411 0.28848 0.0
H2830 H 0.05117 0.37855 0.24368 0.0
H2831 H 0.05797 0.38725 0.22279 0.0
C2832 C 0.73987 0.59426 0.91015 0.0
C2833 C 0.73036 0.5814 0.92085 0.0
C2834 C 0.75893 0.57065 0.93378 0.0
C2835 C 0.7686 0.58198 0.92167 0.0
N2836 N 0.76878 0.60367 0.89731 0.0
N2837 N 0.73107 0.55472 0.93985 0.0
C2838 C 0.75923 0.59365 0.9096 0.0
C2839 C 0.73996 0.56889 0.93186 0.0
N2840 N 0.73043 0.60727 0.90096 0.0
N2841 N 0.76782 0.56197 0.94755 0.0
H2842 H 0.7172 0.55258 0.93846 0.0
H2843 H 0.73773 0.54404 0.94626 0.0
H2844 H 0.78172 0.56327 0.9498 0.0
H2845 H 0.76115 0.55505 0.9579 0.0
H2846 H 0.73655 0.61816 0.89439 0.0
H2847 H 0.7163 0.60786 0.90096 0.0
H2848 H 0.76276 0.61103 0.88688 0.0
H2849 H 0.78292 0.60375 0.89689 0.0
C2850 C 0.76154 0.43666 0.08787 0.0
C2851 C 0.76993 0.41951 0.08575 0.0
C2852 C 0.74043 0.40452 0.0891 0.0
C2853 C 0.7319 0.42172 0.08805 0.0
N2854 N 0.73386 0.45431 0.08687 0.0
N2855 N 0.76784 0.38697 0.08407 0.0
C2856 C 0.74235 0.43786 0.08778 0.0
C2857 C 0.75957 0.40334 0.0867 0.0
N2858 N 0.77204 0.45176 0.09024 0.0
N2859 N 0.73022 0.38933 0.09197 0.0
H2860 H 0.78182 0.38558 0.08246 0.0
H2861 H 0.76085 0.37484 0.08239 0.0
H2862 H 0.71614 0.38964 0.09313 0.0
H2863 H 0.73572 0.37662 0.09463 0.0
H2864 H 0.7669 0.46446 0.0936 0.0
H2865 H 0.78616 0.45124 0.09046 0.0
H2866 H 0.74055 0.46645 0.08426 0.0
H2867 H 0.71983 0.45576 0.08795 0.0
C2868 C 0.59223 0.74045 0.07412 0.0
C2869 C 0.57955 0.73193 0.08577 0.0
C2870 C 0.5707 0.7614 0.09833 0.0
C2871 C 0.58151 0.77 0.08488 0.0
N2872 N 0.60357 0.76836 0.06087 0.0
N2873 N 0.55737 0.73341 0.10961 0.0
C2874 C 0.59271 0.75967 0.07314 0.0
C2875 C 0.56924 0.74215 0.09835 0.0
N2876 N 0.60402 0.73001 0.06431 0.0
N2877 N 0.56159 0.77165 0.11081 0.0
H2878 H 0.55678 0.71934 0.11059 0.0
H2879 H 0.54772 0.73989 0.11758 0.0
H2880 H 0.56152 0.78576 0.11069 0.0
H2881 H 0.55487 0.76634 0.122 0.0
H2882 H 0.61458 0.73515 0.05652 0.0
H2883 H 0.60414 0.71589 0.06506 0.0
H2884 H 0.61035 0.76192 0.05032 0.0
H2885 H 0.60551 0.78236 0.061 0.0
C2886 C 0.26072 0.59444 0.0751 0.0
C2887 C 0.26891 0.58058 0.08559 0.0
C2888 C 0.23911 0.5715 0.09705 0.0
C2889 C 0.23086 0.58313 0.08417 0.0
N2890 N 0.23345 0.60571 0.06065 0.0
N2891 N 0.26627 0.55564 0.10657 0.0
C2892 C 0.24154 0.5949 0.07334 0.0
C2893 C 0.25825 0.56923 0.09686 0.0
N2894 N 0.27139 0.60726 0.067 0.0
N2895 N 0.22857 0.56282 0.1096 0.0
H2896 H 0.28027 0.55396 0.10732 0.0
H2897 H 0.25906 0.54542 0.1131 0.0
H2898 H 0.21452 0.56445 0.11019 0.0
H2899 H 0.2338 0.55543 0.12042 0.0
H2900 H 0.26629 0.6187 0.06051 0.0
H2901 H 0.28549 0.60733 0.06827 0.0
H2902 H 0.24059 0.61279 0.05075 0.0
H2903 H 0.21944 0.60688 0.05932 0.0
C2904 C 0.42186 0.23663 0.05907 0.0
C2905 C 0.41819 0.22728 0.07545 0.0
C2906 C 0.41137 0.25621 0.0904 0.0
C2907 C 0.41748 0.26555 0.07473 0.0
N2908 N 0.43189 0.26452 0.04528 0.0
N2909 N 0.41111 0.22801 0.10736 0.0
C2910 C 0.4235 0.25575 0.0593 0.0
C2911 C 0.41321 0.23699 0.09129 0.0
N2912 N 0.42348 0.22725 0.04317 0.0
N2913 N 0.40343 0.26565 0.10422 0.0
H2914 H 0.41229 0.21398 0.10852 0.0
H2915 H 0.40953 0.23455 0.11976 0.0
H2916 H 0.40181 0.27969 0.10392 0.0
H2917 H 0.39705 0.25947 0.11519 0.0
H2918 H 0.42416 0.23353 0.03054 0.0
H2919 H 0.42227 0.2132 0.04237 0.0
H2920 H 0.43832 0.25776 0.03469 0.0
H2921 H 0.43417 0.27844 0.04509 0.0
C2922 C 0.24259 0.40747 0.91736 0.0
C2923 C 0.23241 0.42368 0.91899 0.0
C2924 C 0.26027 0.44165 0.91848 0.0
C2925 C 0.27051 0.42555 0.91588 0.0
N2926 N 0.27133 0.39357 0.9093 0.0
N2927 N 0.23099 0.45619 0.91603 0.0
C2928 C 0.26163 0.40855 0.91424 0.0
C2929 C 0.24109 0.44077 0.91794 0.0
N2930 N 0.23422 0.39109 0.91954 0.0
N2931 N 0.26873 0.45762 0.92267 0.0
H2932 H 0.21688 0.45602 0.91513 0.0
H2933 H 0.23664 0.46886 0.9134 0.0
H2934 H 0.28272 0.45895 0.924 0.0
H2935 H 0.26173 0.46921 0.92667 0.0
H2936 H 0.2412 0.37887 0.92056 0.0
H2937 H 0.22028 0.38981 0.9216 0.0
H2938 H 0.26539 0.38115 0.90619 0.0
H2939 H 0.28523 0.39398 0.90671 0.0
C2940 C 0.59406 0.26031 0.92483 0.0
C2941 C 0.58101 0.26831 0.91322 0.0
C2942 C 0.57219 0.23826 0.90203 0.0
C2943 C 0.58313 0.23028 0.91573 0.0
N2944 N 0.60548 0.23308 0.93935 0.0
N2945 N 0.5579 0.26551 0.89033 0.0
C2946 C 0.5945 0.24115 0.92678 0.0
C2947 C 0.57044 0.25747 0.90136 0.0
N2948 N 0.60623 0.27116 0.93368 0.0
N2949 N 0.56322 0.22748 0.8899 0.0
H2950 H 0.55684 0.27951 0.88885 0.0
H2951 H 0.54799 0.25847 0.88318 0.0
H2952 H 0.56338 0.21339 0.89047 0.0
H2953 H 0.5566 0.23238 0.87846 0.0
H2954 H 0.61706 0.26633 0.94131 0.0
H2955 H 0.60641 0.28522 0.93214 0.0
H2956 H 0.61239 0.24006 0.94946 0.0
H2957 H 0.60733 0.21908 0.93994 0.0
C2958 C 0.40926 0.76422 0.92709 0.0
C2959 C 0.42275 0.77452 0.91807 0.0
C2960 C 0.43417 0.74689 0.90346 0.0
C2961 C 0.42282 0.73644 0.9149 0.0
N2962 N 0.39922 0.73466 0.93742 0.0
N2963 N 0.44896 0.77578 0.89844 0.0
C2964 C 0.41014 0.74498 0.92656 0.0
C2965 C 0.43525 0.76596 0.90615 0.0
N2966 N 0.39537 0.77289 0.93577 0.0
N2967 N 0.44417 0.73856 0.89028 0.0
H2968 H 0.45039 0.78972 0.90007 0.0
H2969 H 0.45978 0.76995 0.8915 0.0
H2970 H 0.44399 0.7246 0.8882 0.0
H2971 H 0.45134 0.74558 0.88035 0.0
H2972 H 0.3842 0.76625 0.94128 0.0
H2973 H 0.39412 0.78698 0.93597 0.0
H2974 H 0.39143 0.73992 0.94793 0.0
H2975 H 0.39853 0.72057 0.93637 0.0
C2976 C 0.0092 0.14991 0.40916 0.0
C2977 C 0.01932 0.16581 0.40527 0.0
C2978 C 0.99129 0.18275 0.39987 0.0
C2979 C 0.98109 0.16694 0.40403 0.0
N2980 N 0.98012 0.13454 0.40749 0.0
N2981 N 0.0205 0.19525 0.39142 0.0
C2982 C 0.99003 0.15018 0.40692 0.0
C2983 C 0.01047 0.18151 0.39871 0.0
N2984 N 0.01767 0.13499 0.41613 0.0
N2985 N 0.98293 0.19923 0.39845 0.0
H2986 H 0.03457 0.19444 0.39018 0.0
H2987 H 0.01481 0.20641 0.38491 0.0
H2988 H 0.96898 0.20101 0.39955 0.0
H2989 H 0.98999 0.21143 0.39763 0.0
H2990 H 0.01073 0.12386 0.42133 0.0
H2991 H 0.03167 0.13412 0.41777 0.0
H2992 H 0.98592 0.12169 0.40794 0.0
H2993 H 0.96608 0.1344 0.40569 0.0
C2994 C 0.84663 0.00917 0.40874 0.0
C2995 C 0.83121 0.01869 0.40239 0.0
C2996 C 0.81487 0.99017 0.39801 0.0
C2997 C 0.83015 0.98059 0.40484 0.0
N2998 N 0.86212 0.98029 0.4115 0.0
N2999 N 0.80312 0.01834 0.38577 0.0
C3000 C 0.84657 0.98991 0.4085 0.0
C3001 C 0.81624 0.00917 0.39508 0.0
N3002 N 0.86107 0.0186 0.4155 0.0
N3003 N 0.79862 0.98154 0.39577 0.0
H3004 H 0.80375 0.03226 0.38348 0.0
H3005 H 0.79268 0.01194 0.37875 0.0
H3006 H 0.79671 0.96778 0.3982 0.0
H3007 H 0.78655 0.98831 0.39296 0.0
H3008 H 0.87177 0.01256 0.42245 0.0
H3009 H 0.86195 0.0327 0.41475 0.0
H3010 H 0.87486 0.98625 0.41277 0.0
H3011 H 0.86254 0.96617 0.41094 0.0
C3012 C 0.9865 0.84112 0.40845 0.0
C3013 C 0.97707 0.8248 0.40464 0.0
C3014 C 0.00584 0.80886 0.39987 0.0
C3015 C 0.01523 0.82484 0.40499 0.0
N3016 N 0.01536 0.85707 0.40944 0.0
N3017 N 0.97715 0.79456 0.39226 0.0
C3018 C 0.00577 0.84131 0.40767 0.0
C3019 C 0.98657 0.80919 0.39865 0.0
N3020 N 0.97694 0.85622 0.41336 0.0
N3021 N 0.01529 0.7931 0.39745 0.0
H3022 H 0.96305 0.79412 0.39172 0.0
H3023 H 0.98324 0.78341 0.38613 0.0
H3024 H 0.0294 0.79251 0.39779 0.0
H3025 H 0.00925 0.78044 0.39597 0.0
H3026 H 0.98285 0.86798 0.41842 0.0
H3027 H 0.96281 0.85679 0.41282 0.0
H3028 H 0.00947 0.86986 0.41012 0.0
H3029 H 0.0295 0.85744 0.40871 0.0
C3030 C 0.1521 0.9844 0.41131 0.0
C3031 C 0.16749 0.97486 0.4049 0.0
C3032 C 0.18251 0.0034 0.39698 0.0
C3033 C 0.16782 0.01295 0.40496 0.0
N3034 N 0.13663 0.01335 0.41426 0.0
N3035 N 0.19473 0.97438 0.38712 0.0
C3036 C 0.15188 0.00363 0.41023 0.0
C3037 C 0.18181 0.98413 0.39612 0.0
N3038 N 0.13826 0.97513 0.41943 0.0
N3039 N 0.19756 0.01262 0.39136 0.0
H3040 H 0.19433 0.96026 0.38636 0.0
H3041 H 0.20484 0.98017 0.37916 0.0
H3042 H 0.19815 0.0267 0.39087 0.0
H3043 H 0.20968 0.0064 0.38769 0.0
H3044 H 0.12768 0.98134 0.42639 0.0
H3045 H 0.13776 0.961 0.41985 0.0
H3046 H 0.12406 0.0075 0.41688 0.0
H3047 H 0.13625 0.02746 0.4133 0.0
C3048 C 0.99343 0.81459 0.57035 0.0
C3049 C 0.98385 0.82604 0.58242 0.0
C3050 C 0.01257 0.8356 0.59624 0.0
C3051 C 0.0221 0.82579 0.58271 0.0
N3052 N 0.02153 0.80897 0.55457 0.0
N3053 N 0.98392 0.84874 0.60588 0.0
C3054 C 0.01252 0.81603 0.56916 0.0
C3055 C 0.99329 0.83684 0.59522 0.0
N3056 N 0.98429 0.80193 0.56033 0.0
N3057 N 0.0219 0.8433 0.61027 0.0
H3058 H 0.96981 0.84975 0.60564 0.0
H3059 H 0.99013 0.85841 0.61407 0.0
H3060 H 0.03599 0.84266 0.61134 0.0
H3061 H 0.01566 0.84907 0.62153 0.0
H3062 H 0.99078 0.79197 0.55272 0.0
H3063 H 0.97028 0.80013 0.56111 0.0
H3064 H 0.01494 0.80351 0.54334 0.0
H3065 H 0.03549 0.81019 0.55269 0.0
C3066 C 0.18793 0.01119 0.59897 0.0
C3067 C 0.17263 0.0208 0.59238 0.0
C3068 C 0.15643 0.99212 0.58793 0.0
C3069 C 0.17283 0.98262 0.59111 0.0
N3070 N 0.20471 0.98299 0.59869 0.0
N3071 N 0.14183 0.0209 0.58155 0.0
C3072 C 0.18864 0.99205 0.59678 0.0
C3073 C 0.15665 0.01138 0.58733 0.0
N3074 N 0.20193 0.02033 0.60696 0.0
N3075 N 0.14066 0.98263 0.58576 0.0
H3076 H 0.14109 0.03501 0.58227 0.0
H3077 H 0.13057 0.01495 0.57548 0.0
H3078 H 0.14014 0.96851 0.58647 0.0
H3079 H 0.12793 0.98865 0.5849 0.0
H3080 H 0.21261 0.01391 0.61359 0.0
H3081 H 0.20205 0.03434 0.60857 0.0
H3082 H 0.21714 0.98944 0.60047 0.0
H3083 H 0.20598 0.96903 0.59713 0.0
C3084 C 0.00795 0.15835 0.58623 0.0
C3085 C 0.01766 0.17436 0.59051 0.0
C3086 C 0.98922 0.19096 0.59487 0.0
C3087 C 0.97956 0.17523 0.58949 0.0
N3088 N 0.9788 0.14302 0.58477 0.0
N3089 N 0.01819 0.20436 0.60319 0.0
C3090 C 0.98868 0.15857 0.58677 0.0
C3091 C 0.00845 0.19014 0.59642 0.0
N3092 N 0.01721 0.14319 0.58096 0.0
N3093 N 0.9801 0.2069 0.59735 0.0
H3094 H 0.03229 0.20407 0.60421 0.0
H3095 H 0.01237 0.21576 0.60911 0.0
H3096 H 0.96601 0.20781 0.59671 0.0
H3097 H 0.98642 0.21937 0.59921 0.0
H3098 H 0.01107 0.13171 0.57555 0.0
H3099 H 0.03134 0.14234 0.58141 0.0
H3100 H 0.98447 0.13013 0.58416 0.0
H3101 H 0.96465 0.14292 0.58529 0.0
C3102 C 0.80623 0.00928 0.58212 0.0
C3103 C 0.8224 0.0193 0.58477 0.0
C3104 C 0.83862 0.9912 0.59196 0.0
C3105 C 0.82329 0.98112 0.58622 0.0
N3106 N 0.79291 0.98056 0.57382 0.0
N3107 N 0.85446 0.01999 0.59133 0.0
C3108 C 0.80707 0.99011 0.58103 0.0
C3109 C 0.8387 0.01037 0.58976 0.0
N3110 N 0.79001 0.01815 0.58075 0.0
N3111 N 0.853 0.98241 0.59964 0.0
H3112 H 0.85509 0.03403 0.58995 0.0
H3113 H 0.86714 0.01396 0.59279 0.0
H3114 H 0.85323 0.96838 0.60148 0.0
H3115 H 0.86387 0.98908 0.60569 0.0
H3116 H 0.77753 0.01153 0.58065 0.0
H3117 H 0.78894 0.03222 0.58156 0.0
H3118 H 0.78172 0.98669 0.56777 0.0
H3119 H 0.79288 0.96652 0.57238 0.0
C3120 C 0.41624 0.00978 0.15865 0.0
C3121 C 0.40868 0.01847 0.17404 0.0
C3122 C 0.39881 0.98897 0.18578 0.0
C3123 C 0.40959 0.98036 0.17246 0.0
N3124 N 0.42803 0.98203 0.14558 0.0
N3125 N 0.39298 0.01651 0.20272 0.0
C3126 C 0.41796 0.99062 0.15855 0.0
C3127 C 0.39962 0.00817 0.18757 0.0
N3128 N 0.42153 0.01995 0.14409 0.0
N3129 N 0.388 0.97876 0.19681 0.0
H3130 H 0.39326 0.03049 0.20458 0.0
H3131 H 0.38824 0.0095 0.21401 0.0
H3132 H 0.38708 0.96473 0.19551 0.0
H3133 H 0.37867 0.98426 0.20586 0.0
H3134 H 0.42575 0.01443 0.13182 0.0
H3135 H 0.42001 0.03401 0.14371 0.0
H3136 H 0.43639 0.98878 0.13643 0.0
H3137 H 0.4286 0.96794 0.14446 0.0
C3138 C 0.00642 0.3985 0.18761 0.0
C3139 C 0.01644 0.4039 0.17213 0.0
C3140 C 0.98827 0.40619 0.15459 0.0
C3141 C 0.97826 0.40436 0.17087 0.0
N3142 N 0.97755 0.39923 0.20322 0.0
N3143 N 0.01753 0.41147 0.14043 0.0
C3144 C 0.9872 0.40016 0.18742 0.0
C3145 C 0.00752 0.40707 0.15539 0.0
N3146 N 0.01527 0.39227 0.20265 0.0
N3147 N 0.97924 0.40696 0.13842 0.0
H3148 H 0.03168 0.41094 0.14034 0.0
H3149 H 0.01197 0.41614 0.12834 0.0
H3150 H 0.96514 0.40609 0.13758 0.0
H3151 H 0.98563 0.40687 0.12585 0.0
H3152 H 0.00869 0.38644 0.21368 0.0
H3153 H 0.02933 0.39132 0.20346 0.0
H3154 H 0.98351 0.39868 0.21599 0.0
H3155 H 0.96348 0.40024 0.20381 0.0
C3156 C 0.59552 0.99641 0.15696 0.0
C3157 C 0.58658 0.98568 0.17015 0.0
C3158 C 0.57551 0.0129 0.18546 0.0
C3159 C 0.58536 0.02377 0.17298 0.0
N3160 N 0.60682 0.02618 0.14848 0.0
N3161 N 0.57127 0.98334 0.19896 0.0
C3162 C 0.59598 0.01561 0.15915 0.0
C3163 C 0.57765 0.99383 0.18506 0.0
N3164 N 0.60316 0.98826 0.14219 0.0
N3165 N 0.56316 0.02064 0.19693 0.0
H3166 H 0.57212 0.96923 0.19904 0.0
H3167 H 0.5666 0.98867 0.21117 0.0
H3168 H 0.56055 0.03449 0.19736 0.0
H3169 H 0.55411 0.01317 0.20479 0.0
H3170 H 0.60819 0.99534 0.13108 0.0
H3171 H 0.60352 0.97421 0.14059 0.0
H3172 H 0.6162 0.021 0.1393 0.0
H3173 H 0.60746 0.04025 0.1498 0.0
C3174 C 0.01146 0.58646 0.15309 0.0
C3175 C 0.02058 0.59081 0.16944 0.0
C3176 C 0.99149 0.59462 0.18506 0.0
C3177 C 0.98237 0.58967 0.16884 0.0
N3178 N 0.98299 0.58552 0.13651 0.0
N3179 N 0.0196 0.60369 0.19949 0.0
C3180 C 0.99219 0.58711 0.15253 0.0
C3181 C 0.01068 0.59665 0.18486 0.0
N3182 N 0.02128 0.58125 0.13826 0.0
N3183 N 0.98205 0.59592 0.20097 0.0
H3184 H 0.03365 0.60486 0.20016 0.0
H3185 H 0.01303 0.60991 0.21033 0.0
H3186 H 0.96804 0.5944 0.20182 0.0
H3187 H 0.98819 0.59718 0.21361 0.0
H3188 H 0.01555 0.5757 0.12662 0.0
H3189 H 0.03542 0.5819 0.13788 0.0
H3190 H 0.98926 0.58513 0.12388 0.0
H3191 H 0.96887 0.58621 0.13576 0.0
C3192 C 0.39829 0.99072 0.81359 0.0
C3193 C 0.40202 0.98142 0.82997 0.0
C3194 C 0.40187 0.01031 0.84641 0.0
C3195 C 0.40187 0.01967 0.82962 0.0
N3196 N 0.4012 0.01872 0.79681 0.0
N3197 N 0.40646 0.98183 0.86227 0.0
C3198 C 0.3999 0.00993 0.81309 0.0
C3199 C 0.40331 0.99108 0.84653 0.0
N3200 N 0.39374 0.9812 0.79837 0.0
N3201 N 0.40034 0.01991 0.86218 0.0
H3202 H 0.40638 0.9677 0.86291 0.0
H3203 H 0.40979 0.98807 0.87448 0.0
H3204 H 0.39893 0.03399 0.86235 0.0
H3205 H 0.39879 0.01394 0.87487 0.0
H3206 H 0.38905 0.98729 0.78653 0.0
H3207 H 0.39294 0.96712 0.79807 0.0
H3208 H 0.40233 0.01204 0.78443 0.0
H3209 H 0.40259 0.03269 0.79552 0.0
C3210 C 0.01201 0.40788 0.81194 0.0
C3211 C 0.02121 0.41217 0.82824 0.0
C3212 C 0.99226 0.41242 0.84454 0.0
C3213 C 0.98301 0.41149 0.82773 0.0
N3214 N 0.98381 0.40899 0.79511 0.0
N3215 N 0.02041 0.41896 0.86022 0.0
C3216 C 0.99277 0.40902 0.81134 0.0
C3217 C 0.01147 0.4142 0.8447 0.0
N3218 N 0.02175 0.40267 0.79707 0.0
N3219 N 0.98259 0.41154 0.86032 0.0
H3220 H 0.03448 0.4201 0.86097 0.0
H3221 H 0.01386 0.42283 0.8721 0.0
H3222 H 0.96851 0.41012 0.86052 0.0
H3223 H 0.98855 0.41048 0.87307 0.0
H3224 H 0.01585 0.39776 0.78522 0.0
H3225 H 0.03586 0.40157 0.79724 0.0
H3226 H 0.99034 0.40947 0.78261 0.0
H3227 H 0.96974 0.40968 0.79406 0.0
C3228 C 0.58051 0.00697 0.84822 0.0
C3229 C 0.58669 0.01678 0.83289 0.0
C3230 C 0.59607 0.9883 0.81863 0.0
C3231 C 0.58661 0.97855 0.83218 0.0
N3232 N 0.56883 0.97854 0.85969 0.0
N3233 N 0.59919 0.01665 0.80253 0.0
C3234 C 0.57883 0.98781 0.84714 0.0
C3235 C 0.59449 0.00747 0.81793 0.0
N3236 N 0.57636 0.01604 0.86383 0.0
N3237 N 0.60667 0.97917 0.8065 0.0
H3238 H 0.59811 0.03065 0.80116 0.0
H3239 H 0.60285 0.01021 0.79051 0.0
H3240 H 0.6084 0.96514 0.80708 0.0
H3241 H 0.61519 0.9856 0.79725 0.0
H3242 H 0.57336 0.00954 0.876 0.0
H3243 H 0.57776 0.03006 0.86506 0.0
H3244 H 0.56102 0.98489 0.86959 0.0
H3245 H 0.56724 0.96451 0.85949 0.0
C3246 C 0.01154 0.595 0.84583 0.0
C3247 C 0.02137 0.5965 0.8294 0.0
C3248 C 0.99296 0.60122 0.81287 0.0
C3249 C 0.98317 0.59609 0.82858 0.0
N3250 N 0.9829 0.58782 0.86024 0.0
N3251 N 0.02167 0.60074 0.79693 0.0
C3252 C 0.99234 0.5933 0.84526 0.0
C3253 C 0.01219 0.59995 0.81284 0.0
N3254 N 0.02067 0.59521 0.86195 0.0
N3255 N 0.98374 0.60729 0.798 0.0
H3256 H 0.03576 0.60007 0.79626 0.0
H3257 H 0.01552 0.60093 0.78423 0.0
H3258 H 0.96965 0.60849 0.79785 0.0
H3259 H 0.99004 0.61279 0.78662 0.0
H3260 H 0.01428 0.59579 0.87452 0.0
H3261 H 0.03475 0.59659 0.86265 0.0
H3262 H 0.98907 0.58337 0.87212 0.0
H3263 H 0.96882 0.58666 0.86049 0.0
C3264 C 0.14866 0.40983 0.00925 0.0
C3265 C 0.16405 0.40515 0.01973 0.0
C3266 C 0.18191 0.4006 0.99216 0.0
C3267 C 0.16674 0.40618 0.9816 0.0
N3268 N 0.13442 0.41021 0.97956 0.0
N3269 N 0.19279 0.38971 0.0212 0.0
C3270 C 0.14965 0.4088 0.99002 0.0
C3271 C 0.17975 0.39819 0.01117 0.0
N3272 N 0.1333 0.41577 0.01772 0.0
N3273 N 0.19874 0.39914 0.98452 0.0
H3274 H 0.19162 0.38771 0.03512 0.0
H3275 H 0.20378 0.38295 0.01545 0.0
H3276 H 0.20132 0.40098 0.97079 0.0
H3277 H 0.21054 0.3975 0.9921 0.0
H3278 H 0.12236 0.42154 0.01092 0.0
H3279 H 0.13184 0.41547 0.0318 0.0
H3280 H 0.12134 0.41074 0.98485 0.0
H3281 H 0.13481 0.40901 0.96547 0.0
C3282 C 0.18996 0.59644 0.99213 0.0
C3283 C 0.17401 0.59355 0.98182 0.0
C3284 C 0.15592 0.59337 0.00973 0.0
C3285 C 0.17215 0.59302 0.02004 0.0
N3286 N 0.20496 0.59179 0.02086 0.0
N3287 N 0.14169 0.5893 0.98031 0.0
C3288 C 0.18929 0.5943 0.01126 0.0
C3289 C 0.15691 0.59219 0.99049 0.0
N3290 N 0.20586 0.6007 0.98362 0.0
N3291 N 0.13963 0.5951 0.01838 0.0
H3292 H 0.14185 0.58945 0.96616 0.0
H3293 H 0.12913 0.58597 0.98582 0.0
H3294 H 0.13859 0.59628 0.03244 0.0
H3295 H 0.12737 0.59701 0.01165 0.0
H3296 H 0.21746 0.60484 0.99054 0.0
H3297 H 0.20705 0.60176 0.96959 0.0
H3298 H 0.21765 0.59044 0.01482 0.0
H3299 H 0.20531 0.58927 0.03473 0.0
C3300 C 0.41608 0.15136 0.00937 0.0
C3301 C 0.4096 0.16617 0.01969 0.0
C3302 C 0.39972 0.18126 0.99179 0.0
C3303 C 0.40943 0.16822 0.98156 0.0
N3304 N 0.42755 0.14095 0.98046 0.0
N3305 N 0.39482 0.19533 0.02107 0.0
C3306 C 0.41748 0.15305 0.99024 0.0
C3307 C 0.40092 0.18101 0.01104 0.0
N3308 N 0.42087 0.13567 0.01797 0.0
N3309 N 0.38926 0.19378 0.983 0.0
H3310 H 0.39477 0.19537 0.03519 0.0
H3311 H 0.39065 0.20757 0.01544 0.0
H3312 H 0.38799 0.19404 0.96891 0.0
H3313 H 0.38056 0.20271 0.98961 0.0
H3314 H 0.42416 0.12376 0.01116 0.0
H3315 H 0.41974 0.13409 0.03199 0.0
H3316 H 0.43557 0.13096 0.98637 0.0
H3317 H 0.42897 0.14158 0.96642 0.0
C3318 C 0.84531 0.4021 0.98884 0.0
C3319 C 0.82835 0.40153 0.97977 0.0
C3320 C 0.81244 0.40046 0.00889 0.0
C3321 C 0.8294 0.40154 0.01804 0.0
N3322 N 0.86185 0.39861 0.01714 0.0
N3323 N 0.79632 0.39476 0.98087 0.0
C3324 C 0.84583 0.40078 0.00809 0.0
C3325 C 0.81214 0.39866 0.9897 0.0
N3326 N 0.86086 0.40436 0.97901 0.0
N3327 N 0.79656 0.40283 0.01819 0.0
H3328 H 0.79523 0.39403 0.96683 0.0
H3329 H 0.7846 0.39053 0.98752 0.0
H3330 H 0.79579 0.40449 0.03217 0.0
H3331 H 0.78407 0.40469 0.01188 0.0
H3332 H 0.87343 0.40716 0.98477 0.0
H3333 H 0.86102 0.40405 0.96487 0.0
H3334 H 0.87424 0.39647 0.01074 0.0
H3335 H 0.86248 0.39732 0.03122 0.0
C3336 C 0.59997 0.81943 0.01243 0.0
C3337 C 0.59002 0.83322 0.02151 0.0
C3338 C 0.58189 0.84694 0.99237 0.0
C3339 C 0.59139 0.83291 0.98334 0.0
N3340 N 0.61344 0.80892 0.98427 0.0
N3341 N 0.57621 0.86276 0.02065 0.0
C3342 C 0.60189 0.82027 0.99325 0.0
C3343 C 0.5825 0.84786 0.0116 0.0
N3344 N 0.60641 0.80485 0.02186 0.0
N3345 N 0.57184 0.85904 0.98257 0.0
H3346 H 0.57694 0.86394 0.03473 0.0
H3347 H 0.57196 0.87458 0.01423 0.0
H3348 H 0.57197 0.85941 0.96843 0.0
H3349 H 0.56275 0.86814 0.98839 0.0
H3350 H 0.61169 0.79331 0.01571 0.0
H3351 H 0.6054 0.80366 0.03588 0.0
H3352 H 0.62271 0.8005 0.99079 0.0
H3353 H 0.61497 0.80919 0.97022 0.0
C3354 C 0.80945 0.59289 0.01014 0.0
C3355 C 0.82551 0.58873 0.01988 0.0
C3356 C 0.8428 0.58758 0.99147 0.0
C3357 C 0.82627 0.58867 0.98176 0.0
N3358 N 0.794 0.59343 0.98103 0.0
N3359 N 0.85768 0.58335 0.0206 0.0
C3360 C 0.80966 0.59196 0.99087 0.0
C3361 C 0.84233 0.58672 0.01075 0.0
N3362 N 0.794 0.5974 0.01935 0.0
N3363 N 0.85885 0.58709 0.9822 0.0
H3364 H 0.85789 0.58378 0.03474 0.0
H3365 H 0.87005 0.57963 0.01495 0.0
H3366 H 0.85951 0.5874 0.96809 0.0
H3367 H 0.87153 0.5877 0.98833 0.0
H3368 H 0.78223 0.60209 0.01317 0.0
H3369 H 0.79327 0.59772 0.03345 0.0
H3370 H 0.78108 0.59356 0.98667 0.0
H3371 H 0.79391 0.59396 0.96689 0.0
C3372 C 0.40275 0.81729 0.99269 0.0
C3373 C 0.41064 0.83308 0.98501 0.0
C3374 C 0.41581 0.84573 0.01526 0.0
C3375 C 0.40908 0.82944 0.02296 0.0
N3376 N 0.39185 0.8019 0.01969 0.0
N3377 N 0.42015 0.86404 0.98817 0.0
C3378 C 0.40093 0.81602 0.01187 0.0
C3379 C 0.41565 0.8479 0.9961 0.0
N3380 N 0.39823 0.80302 0.98176 0.0
N3381 N 0.42283 0.85885 0.02632 0.0
H3382 H 0.41987 0.8659 0.97414 0.0
H3383 H 0.42265 0.87592 0.99533 0.0
H3384 H 0.42193 0.85819 0.04042 0.0
H3385 H 0.42997 0.87008 0.02167 0.0
H3386 H 0.39464 0.79026 0.98658 0.0
H3387 H 0.39892 0.80361 0.96767 0.0
H3388 H 0.38418 0.79255 0.01244 0.0
H3389 H 0.39068 0.80037 0.03367 0.0
C3390 C 0.59992 0.18531 0.99022 0.0
C3391 C 0.59419 0.16936 0.98122 0.0
C3392 C 0.59236 0.15352 0.01034 0.0
C3393 C 0.59439 0.17035 0.01941 0.0
N3394 N 0.59938 0.20274 0.018 0.0
N3395 N 0.58568 0.13792 0.98214 0.0
C3396 C 0.59844 0.18633 0.00942 0.0
C3397 C 0.59086 0.15326 0.99113 0.0
N3398 N 0.60632 0.19961 0.98035 0.0
N3399 N 0.59205 0.13783 0.02018 0.0
H3400 H 0.58553 0.13707 0.96802 0.0
H3401 H 0.58086 0.12633 0.9886 0.0
H3402 H 0.59353 0.13769 0.03426 0.0
H3403 H 0.59208 0.12497 0.01439 0.0
H3404 H 0.61228 0.21101 0.98615 0.0
H3405 H 0.60729 0.19928 0.96627 0.0
H3406 H 0.59997 0.21506 0.01116 0.0
H3407 H 0.59827 0.20431 0.03198 0.0
C3408 C 0.51519 0.66053 0.90171 0.0
C3409 C 0.5246 0.67697 0.90501 0.0
C3410 C 0.49582 0.69365 0.90373 0.0
C3411 C 0.48632 0.67693 0.90382 0.0
N3412 N 0.48651 0.64436 0.90242 0.0
N3413 N 0.52372 0.70922 0.91099 0.0
C3414 C 0.4959 0.66032 0.90247 0.0
C3415 C 0.51495 0.69363 0.90609 0.0
N3416 N 0.52478 0.64521 0.89763 0.0
N3417 N 0.48656 0.7096 0.90198 0.0
H3418 H 0.53761 0.71004 0.91329 0.0
H3419 H 0.51701 0.72117 0.91434 0.0
H3420 H 0.47251 0.71034 0.90104 0.0
H3421 H 0.49291 0.72201 0.89978 0.0
H3422 H 0.5188 0.6331 0.89357 0.0
H3423 H 0.53891 0.64512 0.8967 0.0
H3424 H 0.4926 0.6317 0.90372 0.0
H3425 H 0.47238 0.64385 0.90177 0.0
C3426 C 0.35269 0.51484 0.91296 0.0
C3427 C 0.33748 0.52462 0.90641 0.0
C3428 C 0.32198 0.49623 0.89887 0.0
C3429 C 0.33682 0.48645 0.90629 0.0
N3430 N 0.36796 0.48578 0.91586 0.0
N3431 N 0.31 0.52509 0.88865 0.0
C3432 C 0.35277 0.4956 0.91183 0.0
C3433 C 0.32301 0.51545 0.89767 0.0
N3434 N 0.36679 0.52402 0.92075 0.0
N3435 N 0.30634 0.48735 0.89435 0.0
H3436 H 0.30991 0.53918 0.88797 0.0
H3437 H 0.30018 0.51912 0.88045 0.0
H3438 H 0.30499 0.47331 0.89477 0.0
H3439 H 0.29423 0.49391 0.89127 0.0
H3440 H 0.37726 0.51778 0.92784 0.0
H3441 H 0.36768 0.53814 0.92057 0.0
H3442 H 0.38054 0.49153 0.91862 0.0
H3443 H 0.36833 0.47167 0.91487 0.0
C3444 C 0.48696 0.3437 0.9014 0.0
C3445 C 0.47745 0.32712 0.90336 0.0
C3446 C 0.50621 0.31042 0.90211 0.0
C3447 C 0.51572 0.32709 0.90335 0.0
N3448 N 0.51566 0.3597 0.90362 0.0
N3449 N 0.47787 0.29454 0.90681 0.0
C3450 C 0.50622 0.34379 0.90263 0.0
C3451 C 0.48698 0.31038 0.90361 0.0
N3452 N 0.47748 0.35928 0.89811 0.0
N3453 N 0.51554 0.29455 0.90004 0.0
H3454 H 0.46383 0.2937 0.9081 0.0
H3455 H 0.48427 0.28228 0.90958 0.0
H3456 H 0.52962 0.29384 0.89989 0.0
H3457 H 0.50935 0.28225 0.89696 0.0
H3458 H 0.48354 0.37163 0.89502 0.0
H3459 H 0.46338 0.35948 0.89689 0.0
H3460 H 0.50959 0.3723 0.90544 0.0
H3461 H 0.5298 0.36021 0.90328 0.0
C3462 C 0.68336 0.50726 0.92729 0.0
C3463 C 0.67152 0.51667 0.91538 0.0
C3464 C 0.66206 0.48787 0.9016 0.0
C3465 C 0.67265 0.47847 0.9146 0.0
N3466 N 0.69337 0.47864 0.9399 0.0
N3467 N 0.6491 0.51659 0.89171 0.0
C3468 C 0.68337 0.48803 0.9274 0.0
C3469 C 0.66082 0.50716 0.90254 0.0
N3470 N 0.69495 0.51679 0.93819 0.0
N3471 N 0.65333 0.47829 0.88835 0.0
H3472 H 0.64825 0.53071 0.89189 0.0
H3473 H 0.6396 0.51056 0.88322 0.0
H3474 H 0.65381 0.46418 0.8876 0.0
H3475 H 0.6466 0.4842 0.87747 0.0
H3476 H 0.70546 0.511 0.94559 0.0
H3477 H 0.69487 0.53086 0.93904 0.0
H3478 H 0.69934 0.48449 0.95126 0.0
H3479 H 0.69522 0.46465 0.93936 0.0
C3480 C 0.50659 0.3461 0.07908 0.0
C3481 C 0.51608 0.33169 0.08751 0.0
C3482 C 0.48742 0.31747 0.09642 0.0
C3483 C 0.47791 0.33147 0.0872 0.0
N3484 N 0.47783 0.36146 0.07448 0.0
N3485 N 0.51615 0.30653 0.10827 0.0
C3486 C 0.48736 0.3466 0.0801 0.0
C3487 C 0.50666 0.31843 0.09771 0.0
N3488 N 0.51599 0.35894 0.06957 0.0
N3489 N 0.47828 0.30261 0.10267 0.0
H3490 H 0.53026 0.3067 0.10916 0.0
H3491 H 0.51007 0.2976 0.11734 0.0
H3492 H 0.46422 0.3014 0.10222 0.0
H3493 H 0.48466 0.29093 0.10736 0.0
H3494 H 0.50988 0.36851 0.0612 0.0
H3495 H 0.53013 0.35956 0.06951 0.0
H3496 H 0.48384 0.37358 0.0705 0.0
H3497 H 0.46372 0.3622 0.07543 0.0
C3498 C 0.65276 0.50709 0.08682 0.0
C3499 C 0.66773 0.51665 0.09418 0.0
C3500 C 0.68211 0.48807 0.10313 0.0
C3501 C 0.66802 0.47857 0.0941 0.0
N3502 N 0.63771 0.47812 0.08226 0.0
N3503 N 0.69419 0.51704 0.1133 0.0
C3504 C 0.65255 0.48786 0.0876 0.0
C3505 C 0.68151 0.50737 0.10386 0.0
N3506 N 0.6391 0.5165 0.07852 0.0
N3507 N 0.69656 0.47868 0.10994 0.0
H3508 H 0.6943 0.53115 0.11368 0.0
H3509 H 0.7038 0.51123 0.12182 0.0
H3510 H 0.69694 0.46457 0.1104 0.0
H3511 H 0.70841 0.4847 0.11466 0.0
H3512 H 0.62886 0.51049 0.07091 0.0
H3513 H 0.63828 0.53062 0.0789 0.0
H3514 H 0.62538 0.48387 0.07854 0.0
H3515 H 0.63728 0.46399 0.08305 0.0
C3516 C 0.4888 0.68273 0.10156 0.0
C3517 C 0.4801 0.66739 0.09401 0.0
C3518 C 0.50945 0.65235 0.09031 0.0
C3519 C 0.51818 0.66899 0.09422 0.0
N3520 N 0.5166 0.70011 0.10408 0.0
N3521 N 0.48142 0.63695 0.08247 0.0
C3522 C 0.50803 0.68409 0.1005 0.0
C3523 C 0.49023 0.65185 0.08907 0.0
N3524 N 0.47861 0.69614 0.10926 0.0
N3525 N 0.51967 0.63711 0.08779 0.0
H3526 H 0.4673 0.63589 0.08242 0.0
H3527 H 0.48796 0.62595 0.07653 0.0
H3528 H 0.53379 0.63722 0.08891 0.0
H3529 H 0.51425 0.62419 0.08622 0.0
H3530 H 0.4841 0.707 0.11639 0.0
H3531 H 0.46449 0.69552 0.10991 0.0
H3532 H 0.50985 0.71225 0.10651 0.0
H3533 H 0.53064 0.70153 0.1037 0.0
C3534 C 0.3108 0.48567 0.09534 0.0
C3535 C 0.32677 0.47601 0.09095 0.0
C3536 C 0.34391 0.50445 0.09076 0.0
C3537 C 0.32735 0.51419 0.09146 0.0
N3538 N 0.29454 0.51398 0.09297 0.0
N3539 N 0.35876 0.47585 0.08426 0.0
C3540 C 0.31065 0.50484 0.09378 0.0
C3541 C 0.34351 0.48525 0.08896 0.0
N3542 N 0.29573 0.47641 0.10086 0.0
N3543 N 0.35997 0.51361 0.09186 0.0
H3544 H 0.35907 0.46177 0.08321 0.0
H3545 H 0.37084 0.48205 0.0804 0.0
H3546 H 0.36057 0.52767 0.09339 0.0
H3547 H 0.37251 0.50724 0.09301 0.0
H3548 H 0.28413 0.48272 0.10586 0.0
H3549 H 0.29561 0.46233 0.10222 0.0
H3550 H 0.28199 0.50754 0.09243 0.0
H3551 H 0.2936 0.52795 0.0913 0.0
C3552 C 0.91157 0.50998 0.65686 0.0
C3553 C 0.90888 0.51966 0.67323 0.0
C3554 C 0.90204 0.49117 0.68897 0.0
C3555 C 0.90822 0.48151 0.67361 0.0
N3556 N 0.91825 0.4811 0.64258 0.0
N3557 N 0.90206 0.51963 0.70531 0.0
C3558 C 0.91255 0.49074 0.65734 0.0
C3559 C 0.9038 0.51037 0.68935 0.0
N3560 N 0.91301 0.51926 0.6409 0.0
N3561 N 0.89485 0.4819 0.7033 0.0
H3562 H 0.90328 0.53364 0.70632 0.0
H3563 H 0.90059 0.51334 0.71785 0.0
H3564 H 0.89363 0.46782 0.70331 0.0
H3565 H 0.88858 0.48814 0.71429 0.0
H3566 H 0.9135 0.51304 0.62824 0.0
H3567 H 0.912 0.53336 0.64021 0.0
H3568 H 0.92378 0.48702 0.63103 0.0
H3569 H 0.91811 0.46696 0.64221 0.0
C3570 C 0.51449 0.89988 0.68569 0.0
C3571 C 0.52368 0.90487 0.6695 0.0
C3572 C 0.49464 0.91068 0.65442 0.0
C3573 C 0.48554 0.90643 0.67083 0.0
N3574 N 0.48591 0.89168 0.69982 0.0
N3575 N 0.52277 0.90972 0.6373 0.0
C3576 C 0.49523 0.89919 0.6857 0.0
C3577 C 0.51377 0.90844 0.65344 0.0
N3578 N 0.52397 0.89713 0.70137 0.0
N3579 N 0.48521 0.91794 0.64022 0.0
H3580 H 0.53679 0.90794 0.63631 0.0
H3581 H 0.51628 0.91076 0.62482 0.0
H3582 H 0.47116 0.91944 0.64028 0.0
H3583 H 0.49138 0.92341 0.62877 0.0
H3584 H 0.51784 0.89578 0.71401 0.0
H3585 H 0.53807 0.89732 0.70207 0.0
H3586 H 0.49209 0.88473 0.71044 0.0
H3587 H 0.47179 0.89078 0.69983 0.0
C3588 C 0.08875 0.51175 0.65358 0.0
C3589 C 0.09555 0.52058 0.66927 0.0
C3590 C 0.10462 0.49128 0.68221 0.0
C3591 C 0.09494 0.48251 0.66814 0.0
N3592 N 0.07938 0.4834 0.63956 0.0
N3593 N 0.11228 0.51967 0.69721 0.0
C3594 C 0.08781 0.49248 0.65335 0.0
C3595 C 0.10447 0.51057 0.68308 0.0
N3596 N 0.08281 0.52179 0.63918 0.0
N3597 N 0.11353 0.48107 0.69485 0.0
H3598 H 0.11344 0.53377 0.69738 0.0
H3599 H 0.11752 0.51353 0.70876 0.0
H3600 H 0.11374 0.46694 0.69441 0.0
H3601 H 0.12157 0.48635 0.70515 0.0
H3602 H 0.07898 0.51632 0.62677 0.0
H3603 H 0.08285 0.5359 0.63907 0.0
H3604 H 0.07193 0.48959 0.62932 0.0
H3605 H 0.07949 0.46928 0.6386 0.0
C3606 C 0.49577 0.10113 0.67554 0.0
C3607 C 0.48577 0.08649 0.66805 0.0
C3608 C 0.51416 0.07251 0.6581 0.0
C3609 C 0.52403 0.08507 0.66873 0.0
N3610 N 0.52417 0.11091 0.68883 0.0
N3611 N 0.4859 0.05653 0.6545 0.0
C3612 C 0.51489 0.09949 0.67759 0.0
C3613 C 0.49503 0.07182 0.65966 0.0
N3614 N 0.487 0.11666 0.68051 0.0
N3615 N 0.52314 0.0612 0.64649 0.0
H3616 H 0.47202 0.05471 0.6562 0.0
H3617 H 0.49245 0.04478 0.6502 0.0
H3618 H 0.53718 0.06165 0.64478 0.0
H3619 H 0.5165 0.05289 0.63719 0.0
H3620 H 0.49375 0.12839 0.68453 0.0
H3621 H 0.47306 0.11841 0.67879 0.0
H3622 H 0.51781 0.12026 0.69727 0.0
H3623 H 0.53814 0.11018 0.69078 0.0
C3624 C 0.90988 0.4924 0.34419 0.0
C3625 C 0.90547 0.4821 0.32856 0.0
C3626 C 0.89949 0.50988 0.31142 0.0
C3627 C 0.90545 0.52019 0.32653 0.0
N3628 N 0.91216 0.52198 0.35848 0.0
N3629 N 0.89218 0.48032 0.2988 0.0
C3630 C 0.90911 0.51166 0.34339 0.0
C3631 C 0.89881 0.49064 0.31269 0.0
N3632 N 0.91549 0.48363 0.35954 0.0
N3633 N 0.89506 0.51863 0.29569 0.0
H3634 H 0.89179 0.46621 0.29924 0.0
H3635 H 0.88594 0.48555 0.2873 0.0
H3636 H 0.89408 0.5327 0.29494 0.0
H3637 H 0.89267 0.5122 0.28338 0.0
H3638 H 0.92106 0.49006 0.37078 0.0
H3639 H 0.91501 0.46955 0.36087 0.0
H3640 H 0.91341 0.51675 0.3715 0.0
H3641 H 0.91222 0.53609 0.35829 0.0
C3642 C 0.49041 0.9064 0.31304 0.0
C3643 C 0.48105 0.91373 0.32813 0.0
C3644 C 0.50994 0.91885 0.34377 0.0
C3645 C 0.51924 0.91466 0.3275 0.0
N3646 N 0.51872 0.90454 0.2964 0.0
N3647 N 0.48132 0.92611 0.35832 0.0
C3648 C 0.50964 0.90802 0.31217 0.0
C3649 C 0.49067 0.91951 0.34374 0.0
N3650 N 0.48088 0.89827 0.2994 0.0
N3651 N 0.51965 0.92197 0.35924 0.0
H3652 H 0.4672 0.92562 0.35919 0.0
H3653 H 0.48741 0.93265 0.36923 0.0
H3654 H 0.53379 0.92126 0.3596 0.0
H3655 H 0.51381 0.92364 0.37197 0.0
H3656 H 0.48691 0.89111 0.28884 0.0
H3657 H 0.46679 0.89734 0.29942 0.0
H3658 H 0.51233 0.90194 0.28409 0.0
H3659 H 0.53278 0.90522 0.29527 0.0
C3660 C 0.09967 0.50564 0.32302 0.0
C3661 C 0.08923 0.51542 0.33582 0.0
C3662 C 0.08124 0.48708 0.35127 0.0
C3663 C 0.08895 0.47729 0.33665 0.0
N3664 N 0.10687 0.4765 0.30944 0.0
N3665 N 0.07011 0.51601 0.36232 0.0
C3666 C 0.09878 0.48638 0.32287 0.0
C3667 C 0.08038 0.50634 0.35029 0.0
N3668 N 0.11053 0.5149 0.31119 0.0
N3669 N 0.07443 0.47794 0.36588 0.0
H3670 H 0.06948 0.53012 0.36228 0.0
H3671 H 0.06146 0.51013 0.37177 0.0
H3672 H 0.07445 0.46385 0.36678 0.0
H3673 H 0.07015 0.48423 0.37776 0.0
H3674 H 0.11951 0.50875 0.30223 0.0
H3675 H 0.11165 0.529 0.31142 0.0
H3676 H 0.11238 0.48211 0.29774 0.0
H3677 H 0.10767 0.46239 0.30991 0.0
C3678 C 0.50483 0.09157 0.35097 0.0
C3679 C 0.51398 0.09768 0.33518 0.0
C3680 C 0.48492 0.10338 0.32008 0.0
C3681 C 0.4758 0.09663 0.33561 0.0
N3682 N 0.47633 0.0893 0.36734 0.0
N3683 N 0.51322 0.11398 0.30697 0.0
C3684 C 0.48557 0.09244 0.35159 0.0
C3685 C 0.50412 0.10516 0.32049 0.0
N3686 N 0.51437 0.08378 0.36481 0.0
N3687 N 0.4754 0.10697 0.30459 0.0
H3688 H 0.52729 0.11557 0.30709 0.0
H3689 H 0.50682 0.12115 0.29664 0.0
H3690 H 0.4613 0.10624 0.30386 0.0
H3691 H 0.48149 0.10969 0.29215 0.0
H3692 H 0.50829 0.07703 0.37561 0.0
H3693 H 0.52847 0.08305 0.36503 0.0
H3694 H 0.4826 0.08778 0.37989 0.0
H3695 H 0.4622 0.08996 0.36809 0.0
C3696 C 0.69307 0.90917 0.48764 0.0
C3697 C 0.67652 0.91048 0.47794 0.0
C3698 C 0.6593 0.90998 0.50636 0.0
C3699 C 0.67589 0.90965 0.51609 0.0
N3700 N 0.70828 0.90523 0.51658 0.0
N3701 N 0.64398 0.90822 0.4772 0.0
C3702 C 0.69269 0.90785 0.50688 0.0
C3703 C 0.65963 0.90946 0.48706 0.0
N3704 N 0.70914 0.90993 0.4784 0.0
N3705 N 0.64331 0.91141 0.51565 0.0
H3706 H 0.64384 0.90816 0.46307 0.0
H3707 H 0.63126 0.90596 0.48284 0.0
H3708 H 0.64262 0.91074 0.52976 0.0
H3709 H 0.63082 0.91384 0.50957 0.0
H3710 H 0.72177 0.91126 0.48453 0.0
H3711 H 0.70983 0.9099 0.46427 0.0
H3712 H 0.72075 0.90209 0.51079 0.0
H3713 H 0.70861 0.90499 0.53069 0.0
C3714 C 0.65021 0.08826 0.5087 0.0
C3715 C 0.66612 0.09316 0.51829 0.0
C3716 C 0.68176 0.09985 0.48977 0.0
C3717 C 0.66607 0.09417 0.4801 0.0
N3718 N 0.63408 0.08792 0.47997 0.0
N3719 N 0.69509 0.10822 0.51869 0.0
C3720 C 0.64983 0.09002 0.48951 0.0
C3721 C 0.68117 0.10069 0.50904 0.0
N3722 N 0.63571 0.08138 0.51797 0.0
N3723 N 0.69765 0.103 0.48074 0.0
H3724 H 0.69528 0.10859 0.53281 0.0
H3725 H 0.70561 0.11553 0.51278 0.0
H3726 H 0.6988 0.10267 0.46669 0.0
H3727 H 0.71007 0.10479 0.48719 0.0
H3728 H 0.62451 0.07548 0.51174 0.0
H3729 H 0.63522 0.08097 0.5321 0.0
H3730 H 0.62142 0.08631 0.486 0.0
H3731 H 0.63348 0.08947 0.46592 0.0
C3732 C 0.90171 0.68519 0.49157 0.0
C3733 C 0.90784 0.66952 0.48235 0.0
C3734 C 0.91068 0.65381 0.51148 0.0
C3735 C 0.90838 0.67054 0.52063 0.0
N3736 N 0.90347 0.70299 0.51895 0.0
N3737 N 0.91956 0.63892 0.48368 0.0
C3738 C 0.90401 0.68644 0.51064 0.0
C3739 C 0.91239 0.65366 0.49229 0.0
N3740 N 0.8937 0.69891 0.48204 0.0
N3741 N 0.91118 0.63805 0.52119 0.0
H3742 H 0.9213 0.63815 0.46969 0.0
H3743 H 0.92513 0.62792 0.49057 0.0
H3744 H 0.90961 0.63775 0.53525 0.0
H3745 H 0.91118 0.62527 0.51518 0.0
H3746 H 0.88747 0.70998 0.48822 0.0
H3747 H 0.89157 0.69821 0.46807 0.0
H3748 H 0.90246 0.71514 0.51183 0.0
H3749 H 0.90566 0.70491 0.53274 0.0
C3750 C 0.34387 0.92357 0.4913 0.0
C3751 C 0.32907 0.91504 0.48244 0.0
C3752 C 0.31528 0.90776 0.51177 0.0
C3753 C 0.33013 0.91621 0.52062 0.0
N3754 N 0.36078 0.92735 0.51923 0.0
N3755 N 0.30377 0.89452 0.48395 0.0
C3756 C 0.34518 0.92251 0.51047 0.0
C3757 C 0.31576 0.90565 0.49262 0.0
N3758 N 0.35602 0.93367 0.48161 0.0
N3759 N 0.30023 0.9028 0.52138 0.0
H3760 H 0.3043 0.89229 0.47 0.0
H3761 H 0.29469 0.88609 0.49073 0.0
H3762 H 0.29923 0.9041 0.53541 0.0
H3763 H 0.2882 0.8986 0.5153 0.0
H3764 H 0.36571 0.94199 0.48763 0.0
H3765 H 0.35563 0.93488 0.46754 0.0
H3766 H 0.37281 0.93045 0.5125 0.0
H3767 H 0.36221 0.92642 0.53327 0.0
C3768 C 0.09386 0.33704 0.50952 0.0
C3769 C 0.0908 0.32102 0.51969 0.0
C3770 C 0.09178 0.30295 0.49181 0.0
C3771 C 0.09157 0.31916 0.48153 0.0
N3772 N 0.09218 0.35181 0.48015 0.0
N3773 N 0.08736 0.28856 0.52102 0.0
C3774 C 0.09298 0.33627 0.49023 0.0
C3775 C 0.09014 0.30388 0.51097 0.0
N3776 N 0.09719 0.353 0.51831 0.0
N3777 N 0.09377 0.28669 0.48314 0.0
H3778 H 0.08717 0.2886 0.53515 0.0
H3779 H 0.08447 0.27593 0.51544 0.0
H3780 H 0.09513 0.2857 0.4691 0.0
H3781 H 0.0957 0.27442 0.48981 0.0
H3782 H 0.10125 0.36481 0.51176 0.0
H3783 H 0.09735 0.35409 0.53239 0.0
H3784 H 0.09086 0.36469 0.48572 0.0
H3785 H 0.09177 0.35182 0.46603 0.0
C3786 C 0.31568 0.10151 0.51489 0.0
C3787 C 0.33151 0.09668 0.52459 0.0
C3788 C 0.34793 0.09308 0.49594 0.0
C3789 C 0.33126 0.09435 0.48645 0.0
N3790 N 0.29873 0.09872 0.487 0.0
N3791 N 0.36287 0.08735 0.52463 0.0
C3792 C 0.31501 0.09867 0.49587 0.0
C3793 C 0.34783 0.09267 0.51522 0.0
N3794 N 0.30127 0.10878 0.52399 0.0
N3795 N 0.36383 0.09238 0.48646 0.0
H3796 H 0.36346 0.08716 0.53875 0.0
H3797 H 0.37443 0.08207 0.51847 0.0
H3798 H 0.36426 0.09292 0.47233 0.0
H3799 H 0.37655 0.09308 0.49254 0.0
H3800 H 0.28993 0.11417 0.51753 0.0
H3801 H 0.30153 0.11111 0.53794 0.0
H3802 H 0.28629 0.09953 0.49363 0.0
H3803 H 0.29741 0.09657 0.47312 0.0
C3804 C 0.90422 0.31215 0.48906 0.0
C3805 C 0.90925 0.32794 0.47941 0.0
C3806 C 0.91001 0.34514 0.5078 0.0
C3807 C 0.90839 0.32867 0.51756 0.0
N3808 N 0.90463 0.29615 0.51771 0.0
N3809 N 0.91698 0.35968 0.47912 0.0
C3810 C 0.90527 0.3121 0.50829 0.0
C3811 C 0.9118 0.34463 0.4886 0.0
N3812 N 0.89849 0.29721 0.47973 0.0
N3813 N 0.9098 0.36122 0.51698 0.0
H3814 H 0.91797 0.3599 0.46502 0.0
H3815 H 0.92121 0.37167 0.48523 0.0
H3816 H 0.90838 0.36189 0.53105 0.0
H3817 H 0.90934 0.37382 0.51065 0.0
H3818 H 0.89304 0.28576 0.48594 0.0
H3819 H 0.89753 0.297 0.46561 0.0
H3820 H 0.90461 0.28346 0.51154 0.0
H3821 H 0.90538 0.29545 0.53178 0.0
C3822 C 0.09919 0.68243 0.49375 0.0
C3823 C 0.09088 0.66727 0.48546 0.0
C3824 C 0.08731 0.65299 0.51521 0.0
C3825 C 0.09206 0.66964 0.52356 0.0
N3826 N 0.1019 0.7008 0.52077 0.0
N3827 N 0.07676 0.6379 0.488 0.0
C3828 C 0.09823 0.68444 0.51289 0.0
C3829 C 0.0852 0.65228 0.49606 0.0
N3830 N 0.10798 0.69487 0.48323 0.0
N3831 N 0.08489 0.63789 0.52565 0.0
H3832 H 0.07532 0.63669 0.474 0.0
H3833 H 0.07028 0.62765 0.49522 0.0
H3834 H 0.08664 0.63803 0.5397 0.0
H3835 H 0.08297 0.62497 0.52031 0.0
H3836 H 0.11565 0.70548 0.48849 0.0
H3837 H 0.10916 0.69334 0.46921 0.0
H3838 H 0.10426 0.71259 0.51338 0.0
H3839 H 0.10134 0.70303 0.53469 0.0
C3840 C 0.06028 0.17943 0.50926 0.0
C3841 C 0.07306 0.16888 0.519 0.0
C3842 C 0.08568 0.15708 0.49061 0.0
C3843 C 0.07251 0.16719 0.48087 0.0
N3844 N 0.04611 0.18656 0.48047 0.0
N3845 N 0.09657 0.14629 0.51981 0.0
C3846 C 0.05938 0.17786 0.49008 0.0
C3847 C 0.08539 0.15728 0.50991 0.0
N3848 N 0.04948 0.19147 0.51835 0.0
N3849 N 0.09857 0.14747 0.48135 0.0
H3850 H 0.09708 0.14663 0.53393 0.0
H3851 H 0.1046 0.13612 0.51426 0.0
H3852 H 0.09853 0.1461 0.46728 0.0
H3853 H 0.10979 0.14145 0.48741 0.0
H3854 H 0.04143 0.20117 0.51204 0.0
H3855 H 0.04933 0.19262 0.53244 0.0
H3856 H 0.03484 0.19264 0.48638 0.0
H3857 H 0.04572 0.18698 0.46635 0.0
C3858 C 0.82716 0.05707 0.48404 0.0
C3859 C 0.82702 0.07367 0.47437 0.0
C3860 C 0.83015 0.09035 0.50291 0.0
C3861 C 0.8276 0.07395 0.51261 0.0
N3862 N 0.82055 0.04192 0.5123 0.0
N3863 N 0.82577 0.10639 0.47464 0.0
C3864 C 0.82538 0.05732 0.50318 0.0
C3865 C 0.82794 0.09042 0.48378 0.0
N3866 N 0.82954 0.04107 0.47501 0.0
N3867 N 0.83514 0.10575 0.51192 0.0
H3868 H 0.82365 0.10705 0.46069 0.0
H3869 H 0.82438 0.11886 0.48108 0.0
H3870 H 0.83717 0.10613 0.52591 0.0
H3871 H 0.83899 0.11764 0.50535 0.0
H3872 H 0.83161 0.02874 0.48158 0.0
H3873 H 0.83138 0.04036 0.46101 0.0
H3874 H 0.81681 0.02996 0.50579 0.0
H3875 H 0.81853 0.04148 0.52627 0.0
C3876 C 0.91442 0.83914 0.50674 0.0
C3877 C 0.92485 0.82649 0.51674 0.0
C3878 C 0.93624 0.81306 0.48859 0.0
C3879 C 0.92438 0.82444 0.47862 0.0
N3880 N 0.90071 0.84699 0.47786 0.0
N3881 N 0.94478 0.80055 0.51772 0.0
C3882 C 0.91316 0.83726 0.48758 0.0
C3883 C 0.93547 0.81316 0.50781 0.0
N3884 N 0.90575 0.85294 0.51557 0.0
N3885 N 0.94887 0.80281 0.47966 0.0
H3886 H 0.94568 0.80088 0.53182 0.0
H3887 H 0.95081 0.78911 0.51207 0.0
H3888 H 0.95012 0.80264 0.46558 0.0
H3889 H 0.95921 0.79574 0.48615 0.0
H3890 H 0.89955 0.86376 0.50896 0.0
H3891 H 0.9058 0.85428 0.52965 0.0
H3892 H 0.89079 0.8551 0.48376 0.0
H3893 H 0.89934 0.84593 0.46383 0.0
C3894 C 0.18256 0.93993 0.48864 0.0
C3895 C 0.1722 0.92619 0.48005 0.0
C3896 C 0.16186 0.9149 0.50957 0.0
C3897 C 0.17338 0.92768 0.51817 0.0
N3898 N 0.19529 0.95189 0.51654 0.0
N3899 N 0.1528 0.89995 0.48165 0.0
C3900 C 0.18386 0.94011 0.50788 0.0
C3901 C 0.16201 0.91352 0.49033 0.0
N3902 N 0.19107 0.95283 0.47837 0.0
N3903 N 0.15073 0.90419 0.51984 0.0
H3904 H 0.15185 0.89907 0.46757 0.0
H3905 H 0.14682 0.88902 0.48824 0.0
H3906 H 0.15084 0.90426 0.53398 0.0
H3907 H 0.1406 0.89596 0.5145 0.0
H3908 H 0.19716 0.96437 0.48368 0.0
H3909 H 0.19121 0.95262 0.46424 0.0
H3910 H 0.20496 0.95978 0.50998 0.0
H3911 H 0.19574 0.95328 0.53061 0.0
C3912 C 0.06482 0.81186 0.49035 0.0
C3913 C 0.07234 0.82616 0.47993 0.0
C3914 C 0.08091 0.84226 0.50773 0.0
C3915 C 0.07506 0.82709 0.51799 0.0
N3916 N 0.06279 0.7968 0.51945 0.0
N3917 N 0.08896 0.85423 0.47813 0.0
C3918 C 0.06743 0.81168 0.5094 0.0
C3919 C 0.08065 0.84127 0.48845 0.0
N3920 N 0.05444 0.79889 0.48208 0.0
N3921 N 0.08664 0.85758 0.51643 0.0
H3922 H 0.0888 0.85406 0.46399 0.0
H3923 H 0.09704 0.8645 0.48345 0.0
H3924 H 0.08767 0.85849 0.53051 0.0
H3925 H 0.08925 0.86979 0.50986 0.0
H3926 H 0.04696 0.78921 0.48911 0.0
H3927 H 0.05185 0.79877 0.46819 0.0
H3928 H 0.05936 0.78434 0.51379 0.0
H3929 H 0.0634 0.79647 0.53357 0.0
C3930 C 0.16007 0.0693 0.49238 0.0
C3931 C 0.17645 0.0713 0.48249 0.0
C3932 C 0.19273 0.07771 0.51069 0.0
C3933 C 0.17693 0.07327 0.52072 0.0
N3934 N 0.14624 0.06179 0.52116 0.0
N3935 N 0.20913 0.07404 0.48258 0.0
C3936 C 0.16073 0.06829 0.5116 0.0
C3937 C 0.19301 0.07465 0.49171 0.0
N3938 N 0.14382 0.06899 0.48347 0.0
N3939 N 0.20727 0.08551 0.51914 0.0
H3940 H 0.21012 0.07131 0.46876 0.0
H3941 H 0.22168 0.07444 0.48907 0.0
H3942 H 0.20741 0.08859 0.53293 0.0
H3943 H 0.21838 0.09071 0.51214 0.0
H3944 H 0.13136 0.06941 0.49012 0.0
H3945 H 0.14273 0.07021 0.46943 0.0
H3946 H 0.13483 0.05619 0.51501 0.0
H3947 H 0.14628 0.06033 0.53522 0.0
C3948 C 0.90959 0.17415 0.5048 0.0
C3949 C 0.92618 0.17481 0.51452 0.0
C3950 C 0.94307 0.1724 0.48604 0.0
C3951 C 0.92659 0.17405 0.47628 0.0
N3952 N 0.89434 0.17977 0.47631 0.0
N3953 N 0.95882 0.1779 0.51425 0.0
C3954 C 0.90986 0.17574 0.48562 0.0
C3955 C 0.94298 0.17476 0.50513 0.0
N3956 N 0.89363 0.17142 0.51382 0.0
N3957 N 0.95874 0.16801 0.47715 0.0
H3958 H 0.95939 0.18025 0.52817 0.0
H3959 H 0.9712 0.17995 0.50777 0.0
H3960 H 0.95931 0.16583 0.46319 0.0
H3961 H 0.97075 0.16476 0.48382 0.0
H3962 H 0.88138 0.16891 0.50724 0.0
H3963 H 0.89287 0.16989 0.52785 0.0
H3964 H 0.88215 0.18303 0.48265 0.0
H3965 H 0.89402 0.18164 0.46231 0.0
C3966 C 0.83146 0.91088 0.48822 0.0
C3967 C 0.82849 0.92744 0.47887 0.0
C3968 C 0.82431 0.94321 0.50779 0.0
C3969 C 0.82865 0.92696 0.51713 0.0
N3970 N 0.84025 0.89641 0.51636 0.0
N3971 N 0.8262 0.96004 0.47968 0.0
C3972 C 0.83339 0.9111 0.50738 0.0
C3973 C 0.82613 0.94382 0.48864 0.0
N3974 N 0.83152 0.89482 0.47897 0.0
N3975 N 0.81757 0.95778 0.51704 0.0
H3976 H 0.82792 0.96108 0.46568 0.0
H3977 H 0.82641 0.97252 0.48629 0.0
H3978 H 0.81561 0.95784 0.53104 0.0
H3979 H 0.81232 0.96923 0.51066 0.0
H3980 H 0.83163 0.88223 0.48536 0.0
H3981 H 0.82976 0.89393 0.46498 0.0
H3982 H 0.84571 0.88519 0.50977 0.0
H3983 H 0.84215 0.89618 0.53037 0.0
C3984 C 0.48934 0.06731 0.19412 0.0
C3985 C 0.47897 0.07597 0.18046 0.0
C3986 C 0.50683 0.08489 0.16471 0.0
C3987 C 0.51713 0.07772 0.17929 0.0
N3988 N 0.51813 0.06564 0.2097 0.0
N3989 N 0.47755 0.0957 0.1544 0.0
C3990 C 0.50838 0.0699 0.19452 0.0
C3991 C 0.48762 0.08551 0.16617 0.0
N3992 N 0.48113 0.05597 0.20629 0.0
N3993 N 0.51532 0.09044 0.14919 0.0
H3994 H 0.46346 0.09668 0.15514 0.0
H3995 H 0.48325 0.10447 0.14491 0.0
H3996 H 0.52935 0.09002 0.14752 0.0
H3997 H 0.50839 0.09395 0.13741 0.0
H3998 H 0.48833 0.0478 0.21528 0.0
H3999 H 0.46724 0.05334 0.20624 0.0
H4000 H 0.51216 0.06168 0.22187 0.0
H4001 H 0.53204 0.06785 0.21078 0.0
C4002 C 0.92341 0.48792 0.15518 0.0
C4003 C 0.9242 0.47882 0.17212 0.0
C4004 C 0.92814 0.5078 0.18768 0.0
C4005 C 0.92544 0.51707 0.17104 0.0
N4006 N 0.91702 0.51604 0.13943 0.0
N4007 N 0.92226 0.48052 0.20472 0.0
C4008 C 0.92211 0.50717 0.15488 0.0
C4009 C 0.92513 0.48888 0.18845 0.0
N4010 N 0.92458 0.4783 0.1394 0.0
N4011 N 0.93433 0.51688 0.2026 0.0
H4012 H 0.91876 0.46688 0.20571 0.0
H4013 H 0.92118 0.48753 0.21693 0.0
H4014 H 0.93757 0.53063 0.20248 0.0
H4015 H 0.93818 0.51033 0.21451 0.0
H4016 H 0.926 0.48438 0.12674 0.0
H4017 H 0.92576 0.46422 0.13904 0.0
H4018 H 0.91261 0.50937 0.1278 0.0
H4019 H 0.91554 0.53008 0.13875 0.0
C4020 C 0.49242 0.91076 0.16383 0.0
C4021 C 0.4827 0.9268 0.16807 0.0
C4022 C 0.51113 0.94389 0.16878 0.0
C4023 C 0.52096 0.92744 0.16734 0.0
N4024 N 0.52102 0.89474 0.16563 0.0
N4025 N 0.48299 0.9582 0.17746 0.0
C4026 C 0.51165 0.91072 0.16526 0.0
C4027 C 0.49207 0.94331 0.17119 0.0
N4028 N 0.48329 0.89571 0.15805 0.0
N4029 N 0.51994 0.96013 0.16734 0.0
H4030 H 0.46908 0.95837 0.1799 0.0
H4031 H 0.48953 0.9699 0.18191 0.0
H4032 H 0.53385 0.96114 0.16502 0.0
H4033 H 0.51321 0.97251 0.16647 0.0
H4034 H 0.48975 0.88423 0.15299 0.0
H4035 H 0.46922 0.89536 0.15664 0.0
H4036 H 0.51473 0.88211 0.1662 0.0
H4037 H 0.53507 0.89403 0.16693 0.0
C4038 C 0.06412 0.50883 0.16446 0.0
C4039 C 0.07556 0.51804 0.17684 0.0
C4040 C 0.08442 0.48927 0.19065 0.0
C4041 C 0.07392 0.4799 0.17751 0.0
N4042 N 0.05719 0.48052 0.14937 0.0
N4043 N 0.09968 0.51716 0.19886 0.0
C4044 C 0.06469 0.48961 0.16368 0.0
C4045 C 0.08675 0.50828 0.18899 0.0
N4046 N 0.05259 0.51843 0.15359 0.0
N4047 N 0.09125 0.48024 0.20533 0.0
H4048 H 0.10176 0.53111 0.19795 0.0
H4049 H 0.10942 0.5105 0.20662 0.0
H4050 H 0.08924 0.46644 0.20752 0.0
H4051 H 0.09735 0.48674 0.21627 0.0
H4052 H 0.04242 0.51241 0.14586 0.0
H4053 H 0.05239 0.53256 0.15318 0.0
H4054 H 0.05189 0.48697 0.138 0.0
H4055 H 0.05787 0.46647 0.14797 0.0
C4056 C 0.488 0.92301 0.84255 0.0
C4057 C 0.47832 0.92079 0.82607 0.0
C4058 C 0.50685 0.91855 0.80921 0.0
C4059 C 0.51655 0.92008 0.82578 0.0
N4060 N 0.5167 0.92024 0.85843 0.0
N4061 N 0.47808 0.91346 0.7942 0.0
C4062 C 0.50722 0.92133 0.84253 0.0
C4063 C 0.48762 0.91745 0.80958 0.0
N4064 N 0.47881 0.92687 0.85818 0.0
N4065 N 0.51593 0.91935 0.79306 0.0
H4066 H 0.46397 0.91361 0.7936 0.0
H4067 H 0.48407 0.90872 0.78233 0.0
H4068 H 0.52997 0.92051 0.79211 0.0
H4069 H 0.50952 0.92046 0.78054 0.0
H4070 H 0.48512 0.93087 0.87015 0.0
H4071 H 0.46469 0.92699 0.85899 0.0
H4072 H 0.51062 0.91921 0.87112 0.0
H4073 H 0.53076 0.91877 0.8589 0.0
C4074 C 0.08506 0.5132 0.84517 0.0
C4075 C 0.07385 0.52288 0.83294 0.0
C4076 C 0.061 0.49448 0.82144 0.0
C4077 C 0.07348 0.48477 0.83239 0.0
N4078 N 0.09792 0.4842 0.85406 0.0
N4079 N 0.05159 0.52344 0.809 0.0
C4080 C 0.08562 0.49394 0.84417 0.0
C4081 C 0.06184 0.51371 0.82103 0.0
N4082 N 0.09506 0.52246 0.85775 0.0
N4083 N 0.04833 0.48527 0.8115 0.0
H4084 H 0.05098 0.53756 0.80903 0.0
H4085 H 0.04429 0.51768 0.7984 0.0
H4086 H 0.04782 0.47116 0.81077 0.0
H4087 H 0.03757 0.49144 0.8048 0.0
H4088 H 0.10221 0.51629 0.86821 0.0
H4089 H 0.09526 0.53658 0.85849 0.0
H4090 H 0.1085 0.48999 0.86138 0.0
H4091 H 0.09812 0.47007 0.85428 0.0
C4092 C 0.48751 0.08794 0.81783 0.0
C4093 C 0.47759 0.07405 0.82669 0.0
C4094 C 0.50594 0.05874 0.8347 0.0
C4095 C 0.51588 0.07349 0.82735 0.0
N4096 N 0.51601 0.10405 0.8156 0.0
N4097 N 0.47737 0.04851 0.84715 0.0
C4098 C 0.50664 0.08867 0.81997 0.0
C4099 C 0.48681 0.0601 0.83619 0.0
N4100 N 0.47884 0.09995 0.8067 0.0
N4101 N 0.51458 0.04304 0.83939 0.0
H4102 H 0.46338 0.04935 0.84903 0.0
H4103 H 0.48365 0.0393 0.85583 0.0
H4104 H 0.5285 0.04113 0.83794 0.0
H4105 H 0.5077 0.03124 0.84298 0.0
H4106 H 0.48569 0.10909 0.7984 0.0
H4107 H 0.4649 0.09965 0.80436 0.0
H4108 H 0.5097 0.11612 0.81188 0.0
H4109 H 0.52997 0.10536 0.81749 0.0
C4110 C 0.92074 0.49277 0.8422 0.0
C4111 C 0.92732 0.48288 0.82708 0.0
C4112 C 0.93393 0.51117 0.811 0.0
C4113 C 0.92851 0.52104 0.82657 0.0
N4114 N 0.91917 0.52166 0.85787 0.0
N4115 N 0.94374 0.48237 0.79876 0.0
C4116 C 0.92271 0.51196 0.84249 0.0
C4117 C 0.93483 0.49199 0.81189 0.0
N4118 N 0.91188 0.48391 0.85587 0.0
N4119 N 0.93817 0.52012 0.79533 0.0
H4120 H 0.94525 0.46833 0.79915 0.0
H4121 H 0.95118 0.48838 0.78839 0.0
H4122 H 0.93874 0.53421 0.79438 0.0
H4123 H 0.93997 0.51363 0.78293 0.0
H4124 H 0.90509 0.49049 0.86634 0.0
H4125 H 0.91 0.46991 0.85598 0.0
H4126 H 0.91673 0.51574 0.87045 0.0
H4127 H 0.91994 0.53576 0.8584 0.0
C4128 C 0.18756 0.49102 0.08329 0.0
C4129 C 0.17108 0.48199 0.07901 0.0
C4130 C 0.15579 0.51127 0.07516 0.0
C4131 C 0.17208 0.52021 0.08012 0.0
N4132 N 0.2024 0.51893 0.0923 0.0
N4133 N 0.13867 0.48323 0.0746 0.0
C4134 C 0.18758 0.51017 0.08542 0.0
C4135 C 0.15493 0.49204 0.07599 0.0
N4136 N 0.20346 0.4815 0.08407 0.0
N4137 N 0.14119 0.52117 0.06946 0.0
H4138 H 0.13744 0.46918 0.07526 0.0
H4139 H 0.1262 0.48983 0.07438 0.0
H4140 H 0.14083 0.5353 0.06986 0.0
H4141 H 0.12977 0.51546 0.06344 0.0
H4142 H 0.21616 0.4876 0.08503 0.0
H4143 H 0.20427 0.46755 0.08208 0.0
H4144 H 0.21328 0.51223 0.09831 0.0
H4145 H 0.20325 0.53298 0.09337 0.0
C4146 C 0.19102 0.49249 0.93752 0.0
C4147 C 0.17778 0.4834 0.92694 0.0
C4148 C 0.16731 0.51249 0.91475 0.0
C4149 C 0.17934 0.52161 0.92668 0.0
N4150 N 0.20034 0.52054 0.95175 0.0
N4151 N 0.15151 0.4846 0.90748 0.0
C4152 C 0.19062 0.51168 0.93868 0.0
C4153 C 0.16544 0.49335 0.91603 0.0
N4154 N 0.20442 0.48284 0.94595 0.0
N4155 N 0.15815 0.52206 0.90178 0.0
H4156 H 0.14965 0.47061 0.90815 0.0
H4157 H 0.14093 0.49131 0.90098 0.0
H4158 H 0.15923 0.53608 0.90036 0.0
H4159 H 0.1507 0.51598 0.89145 0.0
H4160 H 0.21562 0.48886 0.95209 0.0
H4161 H 0.20531 0.46875 0.9454 0.0
H4162 H 0.20719 0.51388 0.96215 0.0
H4163 H 0.20023 0.53458 0.95329 0.0
C4164 C 0.4899 0.19115 0.93149 0.0
C4165 C 0.48018 0.17612 0.92447 0.0
C4166 C 0.50865 0.1605 0.91739 0.0
C4167 C 0.51836 0.17579 0.92385 0.0
N4168 N 0.51878 0.2066 0.93476 0.0
N4169 N 0.47964 0.14767 0.90847 0.0
C4170 C 0.50913 0.19144 0.93017 0.0
C4171 C 0.48937 0.16114 0.91669 0.0
N4172 N 0.48071 0.20499 0.93976 0.0
N4173 N 0.51788 0.14529 0.9122 0.0
H4174 H 0.4655 0.1474 0.90827 0.0
H4175 H 0.48545 0.13734 0.90083 0.0
H4176 H 0.532 0.14467 0.91163 0.0
H4177 H 0.5117 0.13294 0.90935 0.0
H4178 H 0.48696 0.21529 0.94708 0.0
H4179 H 0.46659 0.20571 0.94021 0.0
H4180 H 0.51289 0.21912 0.93748 0.0
H4181 H 0.53291 0.20709 0.93477 0.0
C4182 C 0.84267 0.50556 0.92698 0.0
C4183 C 0.82627 0.51556 0.92788 0.0
C4184 C 0.80874 0.48739 0.92715 0.0
C4185 C 0.82511 0.47733 0.92795 0.0
N4186 N 0.8576 0.47669 0.93184 0.0
N4187 N 0.79392 0.51601 0.93302 0.0
C4188 C 0.84209 0.48636 0.92873 0.0
C4189 C 0.80935 0.50648 0.92916 0.0
N4190 N 0.85869 0.5143 0.9238 0.0
N4191 N 0.79267 0.47884 0.92364 0.0
H4192 H 0.79381 0.52997 0.93517 0.0
H4193 H 0.78156 0.50984 0.93596 0.0
H4194 H 0.79164 0.46491 0.92156 0.0
H4195 H 0.78066 0.48577 0.92097 0.0
H4196 H 0.87078 0.50757 0.92098 0.0
H4197 H 0.85966 0.52834 0.92245 0.0
H4198 H 0.87011 0.48271 0.93442 0.0
H4199 H 0.85771 0.46266 0.93349 0.0
C4200 C 0.49624 0.835 0.94556 0.0
C4201 C 0.48604 0.8347 0.92923 0.0
C4202 C 0.51412 0.83398 0.91145 0.0
C4203 C 0.52425 0.83498 0.92774 0.0
N4204 N 0.52532 0.84028 0.95997 0.0
N4205 N 0.48502 0.83813 0.89672 0.0
C4206 C 0.5154 0.83687 0.94469 0.0
C4207 C 0.49491 0.8354 0.91216 0.0
N4208 N 0.48781 0.83226 0.96185 0.0
N4209 N 0.52287 0.83139 0.89531 0.0
H4210 H 0.47096 0.83973 0.89679 0.0
H4211 H 0.49081 0.84053 0.88408 0.0
H4212 H 0.53698 0.83131 0.89416 0.0
H4213 H 0.5162 0.82831 0.88326 0.0
H4214 H 0.49478 0.83029 0.97397 0.0
H4215 H 0.47389 0.83026 0.96315 0.0
H4216 H 0.51951 0.84372 0.97237 0.0
H4217 H 0.53942 0.84123 0.95994 0.0
C4218 C 0.83503 0.48739 0.06001 0.0
C4219 C 0.82809 0.47755 0.07502 0.0
C4220 C 0.82226 0.50616 0.09088 0.0
C4221 C 0.82636 0.51578 0.07475 0.0
N4222 N 0.83402 0.51528 0.04289 0.0
N4223 N 0.81305 0.4777 0.10421 0.0
C4224 C 0.83215 0.50636 0.05903 0.0
C4225 C 0.82127 0.48694 0.09041 0.0
N4226 N 0.84494 0.4787 0.04698 0.0
N4227 N 0.81992 0.51533 0.10681 0.0
H4228 H 0.81205 0.46365 0.10469 0.0
H4229 H 0.80587 0.4841 0.11455 0.0
H4230 H 0.821 0.52939 0.10782 0.0
H4231 H 0.81877 0.5089 0.11933 0.0
H4232 H 0.85176 0.48553 0.03667 0.0
H4233 H 0.84807 0.46494 0.04764 0.0
H4234 H 0.83629 0.50863 0.03064 0.0
H4235 H 0.83156 0.5291 0.04136 0.0
C4236 C 0.49019 0.80662 0.07448 0.0
C4237 C 0.47949 0.8211 0.08125 0.0
C4238 C 0.50696 0.83856 0.08803 0.0
C4239 C 0.51761 0.82364 0.08229 0.0
N4240 N 0.51971 0.79233 0.07296 0.0
N4241 N 0.47741 0.84926 0.09774 0.0
C4242 C 0.50932 0.80726 0.07657 0.0
C4243 C 0.48779 0.83668 0.08893 0.0
N4244 N 0.48222 0.79282 0.065 0.0
N4245 N 0.51518 0.85456 0.0925 0.0
H4246 H 0.46338 0.84808 0.09908 0.0
H4247 H 0.48279 0.86 0.10515 0.0
H4248 H 0.52923 0.85612 0.09296 0.0
H4249 H 0.50811 0.86657 0.09472 0.0
H4250 H 0.48951 0.78299 0.05797 0.0
H4251 H 0.46831 0.79205 0.06262 0.0
H4252 H 0.51429 0.77946 0.07089 0.0
H4253 H 0.53383 0.7924 0.07339 0.0
C4254 C 0.51196 0.17267 0.05846 0.0
C4255 C 0.52184 0.1662 0.0736 0.0
C4256 C 0.49358 0.15668 0.08829 0.0
C4257 C 0.48368 0.16511 0.07412 0.0
N4258 N 0.48316 0.18322 0.04684 0.0
N4259 N 0.52258 0.15306 0.10349 0.0
C4260 C 0.49278 0.17354 0.05941 0.0
C4261 C 0.51282 0.15831 0.08863 0.0
N4262 N 0.52096 0.17764 0.04303 0.0
N4263 N 0.48457 0.14685 0.10117 0.0
H4264 H 0.5367 0.15368 0.104 0.0
H4265 H 0.51672 0.1491 0.1157 0.0
H4266 H 0.47048 0.1456 0.10136 0.0
H4267 H 0.49103 0.13884 0.11082 0.0
H4268 H 0.51447 0.18064 0.03086 0.0
H4269 H 0.53506 0.17714 0.04186 0.0
H4270 H 0.4892 0.19142 0.03707 0.0
H4271 H 0.46907 0.18436 0.04703 0.0
C4272 C 0.57521 0.66111 0.98931 0.0
C4273 C 0.57856 0.67778 0.98031 0.0
C4274 C 0.57912 0.69379 0.00944 0.0
C4275 C 0.57664 0.67699 0.01851 0.0
N4276 N 0.57495 0.64436 0.0176 0.0
N4277 N 0.58557 0.70967 0.98139 0.0
C4278 C 0.57533 0.66056 0.00858 0.0
C4279 C 0.58124 0.694 0.99028 0.0
N4280 N 0.57176 0.64582 0.9794 0.0
N4281 N 0.57826 0.70967 0.019 0.0
H4282 H 0.58564 0.71077 0.96732 0.0
H4283 H 0.59007 0.72137 0.98788 0.0
H4284 H 0.57641 0.7102 0.03298 0.0
H4285 H 0.57789 0.72243 0.01302 0.0
H4286 H 0.56691 0.63381 0.98497 0.0
H4287 H 0.57284 0.64534 0.96531 0.0
H4288 H 0.57618 0.63182 0.01126 0.0
H4289 H 0.57476 0.64335 0.03168 0.0
C4290 C 0.31643 0.58606 0.00952 0.0
C4291 C 0.32628 0.5723 0.01866 0.0
C4292 C 0.3359 0.55973 0.98949 0.0
C4293 C 0.3277 0.57462 0.98047 0.0
N4294 N 0.31383 0.60423 0.98238 0.0
N4295 N 0.34876 0.54853 0.0175 0.0
C4296 C 0.319 0.58846 0.99062 0.0
C4297 C 0.337 0.55983 0.0087 0.0
N4298 N 0.30401 0.59633 0.01867 0.0
N4299 N 0.34186 0.54506 0.97987 0.0
H4300 H 0.35044 0.54857 0.03153 0.0
H4301 H 0.3582 0.54049 0.01074 0.0
H4302 H 0.34072 0.54404 0.96584 0.0
H4303 H 0.3462 0.5331 0.986 0.0
H4304 H 0.29515 0.60523 0.01221 0.0
H4305 H 0.3012 0.59464 0.03242 0.0
H4306 H 0.30903 0.61542 0.98953 0.0
H4307 H 0.31616 0.60692 0.9687 0.0
C4308 C 0.44053 0.33104 0.00451 0.0
C4309 C 0.42392 0.32963 0.01409 0.0
C4310 C 0.40718 0.33222 0.98554 0.0
C4311 C 0.42375 0.33083 0.97588 0.0
N4312 N 0.45622 0.32634 0.97611 0.0
N4313 N 0.3913 0.32644 0.01364 0.0
C4314 C 0.44048 0.3297 0.98531 0.0
C4315 C 0.40716 0.32973 0.00462 0.0
N4316 N 0.45632 0.33417 0.01371 0.0
N4317 N 0.39153 0.33635 0.97651 0.0
H4318 H 0.39063 0.32416 0.02757 0.0
H4319 H 0.37896 0.32436 0.00709 0.0
H4320 H 0.39111 0.3386 0.96255 0.0
H4321 H 0.37938 0.33934 0.98305 0.0
H4322 H 0.46855 0.33713 0.0073 0.0
H4323 H 0.45682 0.3357 0.02776 0.0
H4324 H 0.46843 0.32333 0.98253 0.0
H4325 H 0.45684 0.32493 0.96207 0.0
C4326 C 0.65838 0.41767 0.00967 0.0
C4327 C 0.67477 0.42123 0.01909 0.0
C4328 C 0.69142 0.42125 0.9904 0.0
C4329 C 0.67478 0.42007 0.98086 0.0
N4330 N 0.64203 0.41974 0.98126 0.0
N4331 N 0.70637 0.42992 0.01821 0.0
C4332 C 0.65812 0.41887 0.99043 0.0
C4333 C 0.69118 0.42392 0.00942 0.0
N4334 N 0.64322 0.41259 0.01904 0.0
N4335 N 0.70749 0.41921 0.9814 0.0
H4336 H 0.7067 0.43269 0.03205 0.0
H4337 H 0.71811 0.43394 0.01146 0.0
H4338 H 0.70825 0.41666 0.96752 0.0
H4339 H 0.71995 0.41809 0.98798 0.0
H4340 H 0.63144 0.40795 0.01278 0.0
H4341 H 0.64292 0.41143 0.03313 0.0
H4342 H 0.62951 0.42093 0.98768 0.0
H4343 H 0.64122 0.42088 0.9672 0.0
C4344 C 0.58466 0.31555 0.00708 0.0
C4345 C 0.57228 0.3268 0.01654 0.0
C4346 C 0.56196 0.33977 0.98779 0.0
C4347 C 0.57246 0.32675 0.97832 0.0
N4348 N 0.5917 0.30022 0.97897 0.0
N4349 N 0.54719 0.34783 0.01597 0.0
C4350 C 0.58335 0.31414 0.98794 0.0
C4351 C 0.56045 0.33853 0.00694 0.0
N4352 N 0.59803 0.30664 0.01631 0.0
N4353 N 0.55388 0.35365 0.97855 0.0
H4354 H 0.54542 0.34712 0.02997 0.0
H4355 H 0.53694 0.35498 0.0094 0.0
H4356 H 0.55503 0.35524 0.96454 0.0
H4357 H 0.54758 0.36455 0.98493 0.0
H4358 H 0.60856 0.29974 0.00991 0.0
H4359 H 0.5997 0.30766 0.03032 0.0
H4360 H 0.59812 0.28953 0.9856 0.0
H4361 H 0.5908 0.29835 0.965 0.0
C4362 C 0.66331 0.55635 0.99155 0.0
C4363 C 0.66855 0.5722 0.98208 0.0
C4364 C 0.67247 0.5883 0.01083 0.0
C4365 C 0.66947 0.57182 0.0203 0.0
N4366 N 0.66511 0.53933 0.0195 0.0
N4367 N 0.68077 0.60255 0.98247 0.0
C4368 C 0.66557 0.55561 0.01065 0.0
C4369 C 0.67373 0.58805 0.99163 0.0
N4370 N 0.65587 0.54211 0.98232 0.0
N4371 N 0.67364 0.60431 0.0201 0.0
H4372 H 0.68204 0.60296 0.9684 0.0
H4373 H 0.6868 0.61358 0.98889 0.0
H4374 H 0.67282 0.60518 0.03417 0.0
H4375 H 0.67375 0.61692 0.01376 0.0
H4376 H 0.65004 0.53095 0.9887 0.0
H4377 H 0.65392 0.54225 0.96831 0.0
H4378 H 0.66429 0.52693 0.01282 0.0
H4379 H 0.66736 0.53797 0.03337 0.0
C4380 C 0.44225 0.66389 0.00715 0.0
C4381 C 0.42846 0.67318 0.01682 0.0
C4382 C 0.41704 0.68607 0.98847 0.0
C4383 C 0.42973 0.67545 0.97866 0.0
N4384 N 0.45157 0.65107 0.97843 0.0
N4385 N 0.39999 0.68931 0.01627 0.0
C4386 C 0.44153 0.66341 0.98792 0.0
C4387 C 0.41503 0.68317 0.00736 0.0
N4388 N 0.4565 0.65625 0.0162 0.0
N4389 N 0.40752 0.69953 0.98 0.0
H4390 H 0.3976 0.68669 0.02996 0.0
H4391 H 0.38898 0.6952 0.00966 0.0
H4392 H 0.40902 0.70262 0.9663 0.0
H4393 H 0.39952 0.70884 0.98698 0.0
H4394 H 0.46787 0.65102 0.00964 0.0
H4395 H 0.45786 0.65667 0.03025 0.0
H4396 H 0.459 0.64079 0.98464 0.0
H4397 H 0.451 0.64988 0.96436 0.0
C4398 C 0.32924 0.44567 0.98881 0.0
C4399 C 0.32926 0.42968 0.97814 0.0
C4400 C 0.3308 0.41126 0.00572 0.0
C4401 C 0.32815 0.42708 0.0163 0.0
N4402 N 0.32171 0.45919 0.01769 0.0
N4403 N 0.32692 0.39704 0.97645 0.0
C4404 C 0.32662 0.44429 0.00783 0.0
C4405 C 0.32929 0.41238 0.98657 0.0
N4406 N 0.33227 0.46213 0.98088 0.0
N4407 N 0.33529 0.39526 0.01391 0.0
H4408 H 0.32521 0.39719 0.96243 0.0
H4409 H 0.32488 0.38429 0.98216 0.0
H4410 H 0.337 0.394 0.02789 0.0
H4411 H 0.33915 0.38374 0.00672 0.0
H4412 H 0.33422 0.474 0.98827 0.0
H4413 H 0.33471 0.46366 0.96704 0.0
H4414 H 0.31849 0.47161 0.0118 0.0
H4415 H 0.31912 0.45879 0.03157 0.0
C4416 C 0.9928 0.55944 0.68612 0.0
C4417 C 0.98322 0.57198 0.67516 0.0
C4418 C 0.01189 0.58336 0.66279 0.0
C4419 C 0.02145 0.57222 0.67521 0.0
N4420 N 0.02114 0.55178 0.70078 0.0
N4421 N 0.98335 0.59755 0.65477 0.0
C4422 C 0.01196 0.56075 0.6874 0.0
C4423 C 0.99266 0.58435 0.66386 0.0
N4424 N 0.98363 0.5459 0.69486 0.0
N4425 N 0.02116 0.59254 0.64962 0.0
H4426 H 0.96927 0.59874 0.6552 0.0
H4427 H 0.98963 0.60821 0.64798 0.0
H4428 H 0.03524 0.59206 0.64837 0.0
H4429 H 0.01484 0.59935 0.63899 0.0
H4430 H 0.99006 0.53521 0.70146 0.0
H4431 H 0.96959 0.54436 0.69409 0.0
H4432 H 0.01472 0.54488 0.71129 0.0
H4433 H 0.03517 0.55254 0.7024 0.0
C4434 C 0.43726 0.01224 0.65898 0.0
C4435 C 0.43209 0.02179 0.67487 0.0
C4436 C 0.42984 0.99321 0.69152 0.0
C4437 C 0.43318 0.98355 0.67525 0.0
N4438 N 0.43672 0.98371 0.64272 0.0
N4439 N 0.4191 0.02105 0.70493 0.0
C4440 C 0.43598 0.993 0.65873 0.0
C4441 C 0.42714 0.01219 0.69078 0.0
N4442 N 0.44403 0.02144 0.6444 0.0
N4443 N 0.43001 0.98441 0.70783 0.0
H4444 H 0.41609 0.03484 0.70466 0.0
H4445 H 0.41357 0.01436 0.71607 0.0
H4446 H 0.43262 0.97059 0.70911 0.0
H4447 H 0.4295 0.99116 0.72023 0.0
H4448 H 0.44984 0.01502 0.63324 0.0
H4449 H 0.44532 0.0355 0.64408 0.0
H4450 H 0.43678 0.99004 0.63011 0.0
H4451 H 0.4356 0.96964 0.64193 0.0
C4452 C 0.01036 0.41232 0.66312 0.0
C4453 C 0.01964 0.42676 0.67179 0.0
C4454 C 0.99079 0.43985 0.68173 0.0
C4455 C 0.98145 0.42605 0.67213 0.0
N4456 N 0.98172 0.40037 0.65199 0.0
N4457 N 0.01909 0.45549 0.68747 0.0
C4458 C 0.99106 0.41254 0.6624 0.0
C4459 C 0.00996 0.44095 0.68044 0.0
N4460 N 0.02004 0.3984 0.65563 0.0
N4461 N 0.9814 0.45129 0.69293 0.0
H4462 H 0.03319 0.45633 0.68796 0.0
H4463 H 0.01273 0.46732 0.69178 0.0
H4464 H 0.96736 0.45084 0.6945 0.0
H4465 H 0.98758 0.46024 0.70192 0.0
H4466 H 0.01423 0.38644 0.65091 0.0
H4467 H 0.03416 0.39843 0.6549 0.0
H4468 H 0.98783 0.39134 0.64306 0.0
H4469 H 0.96759 0.4001 0.65133 0.0
C4470 C 0.58811 0.98753 0.66133 0.0
C4471 C 0.58559 0.97765 0.67763 0.0
C4472 C 0.58302 0.00591 0.69487 0.0
C4473 C 0.58585 0.0158 0.67859 0.0
N4474 N 0.59516 0.01642 0.6473 0.0
N4475 N 0.58396 0.97687 0.71027 0.0
C4476 C 0.58959 0.00671 0.66208 0.0
C4477 C 0.58427 0.98669 0.69455 0.0
N4478 N 0.58885 0.97857 0.64512 0.0
N4479 N 0.57798 0.01478 0.71036 0.0
H4480 H 0.58381 0.96275 0.71055 0.0
H4481 H 0.58515 0.98265 0.72309 0.0
H4482 H 0.57673 0.02883 0.7112 0.0
H4483 H 0.57365 0.00822 0.72207 0.0
H4484 H 0.5884 0.98504 0.6326 0.0
H4485 H 0.58898 0.96447 0.64413 0.0
H4486 H 0.59982 0.01053 0.63536 0.0
H4487 H 0.59672 0.03047 0.64751 0.0
C4488 C 0.00562 0.41155 0.34456 0.0
C4489 C 0.01559 0.4262 0.33707 0.0
C4490 C 0.98739 0.44308 0.33212 0.0
C4491 C 0.97738 0.42749 0.33724 0.0
N4492 N 0.97647 0.3966 0.34779 0.0
N4493 N 0.016 0.45493 0.32133 0.0
C4494 C 0.98637 0.41163 0.34336 0.0
C4495 C 0.00653 0.44184 0.33044 0.0
N4496 N 0.01456 0.39788 0.35332 0.0
N4497 N 0.97861 0.45901 0.32858 0.0
H4498 H 0.02995 0.45441 0.3192 0.0
H4499 H 0.00985 0.46554 0.31434 0.0
H4500 H 0.96455 0.46032 0.32884 0.0
H4501 H 0.9853 0.47132 0.32687 0.0
H4502 H 0.00806 0.38768 0.36058 0.0
H4503 H 0.02864 0.39759 0.35472 0.0
H4504 H 0.9822 0.38393 0.35021 0.0
H4505 H 0.96232 0.39657 0.34819 0.0
C4506 C 0.55396 0.01674 0.32171 0.0
C4507 C 0.5676 0.02601 0.33163 0.0
C4508 C 0.58295 0.99724 0.33786 0.0
C4509 C 0.56864 0.98789 0.329 0.0
N4510 N 0.53849 0.98831 0.31633 0.0
N4511 N 0.5929 0.02503 0.3523 0.0
C4512 C 0.55351 0.99752 0.32208 0.0
C4513 C 0.58145 0.01623 0.34068 0.0
N4514 N 0.54203 0.02617 0.31111 0.0
N4515 N 0.59838 0.9882 0.34276 0.0
H4516 H 0.59204 0.03892 0.35484 0.0
H4517 H 0.60207 0.01835 0.3607 0.0
H4518 H 0.60021 0.97435 0.3407 0.0
H4519 H 0.61002 0.99469 0.34742 0.0
H4520 H 0.53318 0.01995 0.30203 0.0
H4521 H 0.54206 0.04026 0.31003 0.0
H4522 H 0.52635 0.99468 0.31293 0.0
H4523 H 0.5375 0.97421 0.31671 0.0
C4524 C 0.98993 0.56061 0.3145 0.0
C4525 C 0.9803 0.57323 0.32534 0.0
C4526 C 0.00893 0.58536 0.33716 0.0
C4527 C 0.01845 0.57181 0.32736 0.0
N4528 N 0.01828 0.54532 0.30811 0.0
N4529 N 0.97999 0.59606 0.34869 0.0
C4530 C 0.00901 0.55899 0.31655 0.0
C4531 C 0.98962 0.58528 0.33708 0.0
N4532 N 0.98097 0.5509 0.30147 0.0
N4533 N 0.01835 0.5983 0.34652 0.0
H4534 H 0.96585 0.59631 0.34903 0.0
H4535 H 0.98587 0.60375 0.35895 0.0
H4536 H 0.03242 0.59813 0.34789 0.0
H4537 H 0.01237 0.60978 0.35213 0.0
H4538 H 0.98746 0.54302 0.29173 0.0
H4539 H 0.96704 0.55194 0.29923 0.0
H4540 H 0.01197 0.53422 0.3021 0.0
H4541 H 0.03238 0.54439 0.30798 0.0
C4542 C 0.41491 0.99264 0.34492 0.0
C4543 C 0.42368 0.98399 0.33014 0.0
C4544 C 0.43277 0.01346 0.31778 0.0
C4545 C 0.42259 0.02212 0.33159 0.0
N4546 N 0.40263 0.02054 0.35738 0.0
N4547 N 0.44012 0.9857 0.30188 0.0
C4548 C 0.41341 0.01188 0.34503 0.0
C4549 C 0.43233 0.99428 0.31636 0.0
N4550 N 0.40799 0.98244 0.35877 0.0
N4551 N 0.44356 0.02357 0.30656 0.0
H4552 H 0.44152 0.97167 0.301 0.0
H4553 H 0.44441 0.99239 0.29022 0.0
H4554 H 0.44441 0.03766 0.30728 0.0
H4555 H 0.45287 0.01803 0.29753 0.0
H4556 H 0.40322 0.98788 0.37088 0.0
H4557 H 0.40799 0.96831 0.35866 0.0
H4558 H 0.394 0.01388 0.36633 0.0
H4559 H 0.40132 0.03461 0.3579 0.0
C4560 C 0.66207 0.98936 0.58335 0.0
C4561 C 0.67588 0.98035 0.57344 0.0
C4562 C 0.68947 0.00955 0.56523 0.0
C4563 C 0.6749 0.01856 0.57397 0.0
N4564 N 0.64622 0.0175 0.58963 0.0
N4565 N 0.7007 0.98161 0.55215 0.0
C4566 C 0.66081 0.00859 0.58246 0.0
C4567 C 0.68911 0.99037 0.5637 0.0
N4568 N 0.6507 0.97959 0.59427 0.0
N4569 N 0.70366 0.01931 0.55834 0.0
H4570 H 0.7006 0.96761 0.55025 0.0
H4571 H 0.70928 0.98828 0.54316 0.0
H4572 H 0.70397 0.03343 0.5581 0.0
H4573 H 0.7157 0.01343 0.55391 0.0
H4574 H 0.64162 0.98544 0.60334 0.0
H4575 H 0.65133 0.96551 0.59541 0.0
H4576 H 0.63453 0.01098 0.59411 0.0
H4577 H 0.64529 0.03159 0.59011 0.0
C4578 C 0.67204 0.99252 0.44102 0.0
C4579 C 0.67152 0.98324 0.42416 0.0
C4580 C 0.67238 0.01225 0.40804 0.0
C4581 C 0.67131 0.0215 0.42487 0.0
N4582 N 0.66566 0.02037 0.45709 0.0
N4583 N 0.66688 0.98427 0.3918 0.0
C4584 C 0.66981 0.01162 0.44129 0.0
C4585 C 0.67039 0.99311 0.4077 0.0
N4586 N 0.67562 0.98331 0.45669 0.0
N4587 N 0.67624 0.02155 0.39248 0.0
H4588 H 0.66483 0.9703 0.39109 0.0
H4589 H 0.66413 0.99099 0.37969 0.0
H4590 H 0.67841 0.0355 0.39215 0.0
H4591 H 0.67906 0.01518 0.3802 0.0
H4592 H 0.67811 0.98976 0.46901 0.0
H4593 H 0.67791 0.96939 0.45716 0.0
H4594 H 0.66259 0.01357 0.46908 0.0
H4595 H 0.6634 0.0343 0.4578 0.0
C4596 C 0.00579 0.66905 0.44893 0.0
C4597 C 0.01587 0.66208 0.43406 0.0
C4598 C 0.98771 0.65511 0.41787 0.0
C4599 C 0.9777 0.66188 0.43281 0.0
N4600 N 0.97668 0.67127 0.46408 0.0
N4601 N 0.01671 0.64451 0.40653 0.0
C4602 C 0.9866 0.66738 0.44891 0.0
C4603 C 0.00689 0.65389 0.41915 0.0
N4604 N 0.01436 0.67846 0.46242 0.0
N4605 N 0.97886 0.65018 0.40234 0.0
H4606 H 0.03076 0.643 0.40733 0.0
H4607 H 0.01087 0.63682 0.39624 0.0
H4608 H 0.96475 0.64984 0.40135 0.0
H4609 H 0.98545 0.64728 0.39021 0.0
H4610 H 0.00751 0.68566 0.47244 0.0
H4611 H 0.02833 0.6805 0.46284 0.0
H4612 H 0.98247 0.67347 0.47676 0.0
H4613 H 0.96255 0.67075 0.46438 0.0
C4614 C 0.33706 0.00926 0.44716 0.0
C4615 C 0.33276 0.01952 0.43148 0.0
C4616 C 0.32992 0.99155 0.41389 0.0
C4617 C 0.33143 0.98133 0.43009 0.0
N4618 N 0.33436 0.98047 0.4627 0.0
N4619 N 0.32214 0.02038 0.40047 0.0
C4620 C 0.33463 0.99014 0.4469 0.0
C4621 C 0.32854 0.01069 0.41492 0.0
N4622 N 0.34386 0.01774 0.46216 0.0
N4623 N 0.33026 0.98299 0.39746 0.0
H4624 H 0.32038 0.03438 0.40067 0.0
H4625 H 0.31693 0.01431 0.38883 0.0
H4626 H 0.33176 0.969 0.39614 0.0
H4627 H 0.33102 0.98991 0.38517 0.0
H4628 H 0.34893 0.01079 0.47336 0.0
H4629 H 0.34607 0.03169 0.46271 0.0
H4630 H 0.33458 0.98649 0.47546 0.0
H4631 H 0.33239 0.96649 0.4632 0.0
C4632 C 0.99316 0.32343 0.44266 0.0
C4633 C 0.98356 0.32753 0.4265 0.0
C4634 C 0.01221 0.33129 0.41005 0.0
C4635 C 0.0218 0.32762 0.42631 0.0
N4636 N 0.02176 0.32356 0.45881 0.0
N4637 N 0.98351 0.3391 0.39595 0.0
C4638 C 0.01237 0.32493 0.44288 0.0
C4639 C 0.99297 0.33253 0.41049 0.0
N4640 N 0.98403 0.31693 0.45745 0.0
N4641 N 0.02152 0.33338 0.39415 0.0
H4642 H 0.96943 0.34045 0.39593 0.0
H4643 H 0.98962 0.34469 0.38453 0.0
H4644 H 0.03564 0.33384 0.39353 0.0
H4645 H 0.01532 0.3338 0.38148 0.0
H4646 H 0.99042 0.31163 0.46886 0.0
H4647 H 0.96999 0.31534 0.45783 0.0
H4648 H 0.01559 0.32377 0.4715 0.0
H4649 H 0.03586 0.32361 0.45955 0.0
C4650 C 0.33796 0.01628 0.5925 0.0
C4651 C 0.33124 0.02629 0.57752 0.0
C4652 C 0.32587 0.99812 0.56077 0.0
C4653 C 0.33073 0.98813 0.57646 0.0
N4654 N 0.33977 0.98727 0.60786 0.0
N4655 N 0.31597 0.02691 0.54855 0.0
C4656 C 0.33628 0.99709 0.59253 0.0
C4657 C 0.32459 0.01729 0.56186 0.0
N4658 N 0.34656 0.02509 0.60636 0.0
N4659 N 0.32233 0.9893 0.54485 0.0
H4660 H 0.31426 0.04092 0.54898 0.0
H4661 H 0.30903 0.0209 0.53784 0.0
H4662 H 0.32213 0.97523 0.54369 0.0
H4663 H 0.32088 0.99593 0.53248 0.0
H4664 H 0.3534 0.01846 0.61677 0.0
H4665 H 0.34832 0.03912 0.60663 0.0
H4666 H 0.34184 0.99311 0.62054 0.0
H4667 H 0.33945 0.97315 0.60819 0.0
C4668 C 0.98962 0.3156 0.56285 0.0
C4669 C 0.98006 0.32871 0.57314 0.0
C4670 C 0.00876 0.34258 0.58263 0.0
C4671 C 0.01821 0.32825 0.57398 0.0
N4672 N 0.01806 0.3003 0.55696 0.0
N4673 N 0.98 0.35372 0.59418 0.0
C4674 C 0.00875 0.31451 0.56442 0.0
C4675 C 0.98947 0.34208 0.58329 0.0
N4676 N 0.98045 0.30475 0.55091 0.0
N4677 N 0.01824 0.35661 0.59016 0.0
H4678 H 0.96588 0.35376 0.59498 0.0
H4679 H 0.98607 0.36249 0.60341 0.0
H4680 H 0.03237 0.35707 0.59038 0.0
H4681 H 0.0122 0.36838 0.59506 0.0
H4682 H 0.9868 0.29628 0.5416 0.0
H4683 H 0.96644 0.30541 0.54906 0.0
H4684 H 0.0118 0.2887 0.55193 0.0
H4685 H 0.03218 0.29954 0.55674 0.0
C4686 C 0.99228 0.66657 0.56574 0.0
C4687 C 0.98243 0.67738 0.57822 0.0
C4688 C 0.01091 0.68663 0.5926 0.0
C4689 C 0.02074 0.67783 0.57858 0.0
N4690 N 0.02046 0.66255 0.54957 0.0
N4691 N 0.9825 0.70038 0.60154 0.0
C4692 C 0.01136 0.6686 0.56454 0.0
C4693 C 0.99175 0.68812 0.59117 0.0
N4694 N 0.98352 0.6539 0.55544 0.0
N4695 N 0.01974 0.69297 0.6076 0.0
H4696 H 0.96853 0.70229 0.60061 0.0
H4697 H 0.98891 0.70988 0.60978 0.0
H4698 H 0.03369 0.69161 0.60948 0.0
H4699 H 0.013 0.69786 0.619 0.0
H4700 H 0.99033 0.64445 0.54746 0.0
H4701 H 0.96961 0.6515 0.55636 0.0
H4702 H 0.01392 0.65744 0.53815 0.0
H4703 H 0.03434 0.6644 0.54767 0.0
loop_
_geom_bond_atom_site_label_1
_geom_bond_atom_site_label_2
_geom_bond_distance
_geom_bond_site_symmetry_2
_ccdc_geom_bond_type
In0 O1 2.294 . S
In0 O2 2.326 . S
In0 O6 2.266 . S
In0 O7 2.326 . S
In0 O8 2.266 . S
In0 O9 2.326 . S
In0 O11 2.294 . S
In0 O12 2.326 . S
O1 In0 2.294 . S
O1 C10 1.240 . S
O2 In0 2.326 . S
O2 C10 1.252 . S
C3 O6 1.252 . S
C3 O7 1.260 . S
C4 O11 1.240 . S
C4 O12 1.252 . S
C5 O8 1.252 . S
C5 O9 1.260 . S
O6 In0 2.266 . S
O6 C3 1.252 . S
O7 In0 2.326 . S
O7 C3 1.260 . S
O8 In0 2.266 . S
O8 C5 1.252 . S
O9 In0 2.326 . S
O9 C5 1.260 . S
C10 O1 1.240 . S
C10 O2 1.252 . S
O11 In0 2.294 . S
O11 C4 1.240 . S
O12 In0 2.326 . S
O12 C4 1.252 . S
In13 O14 2.294 . S
In13 O15 2.326 . S
In13 O19 2.266 . S
In13 O20 2.326 . S
In13 O21 2.266 . S
In13 O22 2.326 . S
In13 O24 2.294 . S
In13 O25 2.326 . S
O14 In13 2.294 . S
O14 C23 1.240 . S
O15 In13 2.326 . S
O15 C23 1.252 . S
C16 O19 1.252 . S
C16 O20 1.260 . S
C17 O24 1.240 . S
C17 O25 1.252 . S
C18 O21 1.252 . S
C18 O22 1.260 . S
O19 In13 2.266 . S
O19 C16 1.252 . S
O20 In13 2.326 . S
O20 C16 1.260 . S
O21 In13 2.266 . S
O21 C18 1.252 . S
O22 In13 2.326 . S
O22 C18 1.260 . S
C23 O14 1.240 . S
C23 O15 1.252 . S
O24 In13 2.294 . S
O24 C17 1.240 . S
O25 In13 2.326 . S
O25 C17 1.252 . S
In26 O27 2.294 . S
In26 O28 2.326 . S
In26 O32 2.266 . S
In26 O33 2.326 . S
In26 O34 2.266 . S
In26 O35 2.326 . S
In26 O37 2.294 . S
In26 O38 2.326 . S
O27 In26 2.294 . S
O27 C36 1.240 . S
O28 In26 2.326 . S
O28 C36 1.252 . S
C29 O32 1.252 . S
C29 O33 1.260 . S
C30 O37 1.240 . S
C30 O38 1.252 . S
C31 O34 1.252 . S
C31 O35 1.260 . S
O32 In26 2.266 . S
O32 C29 1.252 . S
O33 In26 2.326 . S
O33 C29 1.260 . S
O34 In26 2.266 . S
O34 C31 1.252 . S
O35 In26 2.326 . S
O35 C31 1.260 . S
C36 O27 1.240 . S
C36 O28 1.252 . S
O37 In26 2.294 . S
O37 C30 1.240 . S
O38 In26 2.326 . S
O38 C30 1.252 . S
In39 O40 2.294 . S
In39 O41 2.326 . S
In39 O45 2.266 . S
In39 O46 2.326 . S
In39 O47 2.266 . S
In39 O48 2.326 . S
In39 O50 2.294 . S
In39 O51 2.326 . S
O40 In39 2.294 . S
O40 C49 1.240 . S
O41 In39 2.326 . S
O41 C49 1.252 . S
C42 O45 1.252 . S
C42 O46 1.260 . S
C43 O50 1.240 . S
C43 O51 1.252 . S
C44 O47 1.252 . S
C44 O48 1.260 . S
O45 In39 2.266 . S
O45 C42 1.252 . S
O46 In39 2.326 . S
O46 C42 1.260 . S
O47 In39 2.266 . S
O47 C44 1.252 . S
O48 In39 2.326 . S
O48 C44 1.260 . S
C49 O40 1.240 . S
C49 O41 1.252 . S
O50 In39 2.294 . S
O50 C43 1.240 . S
O51 In39 2.326 . S
O51 C43 1.252 . S
In52 O53 2.294 . S
In52 O54 2.326 . S
In52 O58 2.266 . S
In52 O59 2.326 . S
In52 O60 2.266 . S
In52 O61 2.326 . S
In52 O63 2.294 . S
In52 O64 2.326 . S
O53 In52 2.294 . S
O53 C62 1.240 . S
O54 In52 2.326 . S
O54 C62 1.252 . S
C55 O58 1.252 . S
C55 O59 1.260 . S
C56 O63 1.240 . S
C56 O64 1.252 . S
C57 O60 1.252 . S
C57 O61 1.260 . S
O58 In52 2.266 . S
O58 C55 1.252 . S
O59 In52 2.326 . S
O59 C55 1.260 . S
O60 In52 2.266 . S
O60 C57 1.252 . S
O61 In52 2.326 . S
O61 C57 1.260 . S
C62 O53 1.240 . S
C62 O54 1.252 . S
O63 In52 2.294 . S
O63 C56 1.240 . S
O64 In52 2.326 . S
O64 C56 1.252 . S
In65 O66 2.294 . S
In65 O67 2.326 . S
In65 O71 2.266 . S
In65 O72 2.326 . S
In65 O73 2.266 . S
In65 O74 2.326 . S
In65 O76 2.294 . S
In65 O77 2.326 . S
O66 In65 2.294 . S
O66 C75 1.240 . S
O67 In65 2.326 . S
O67 C75 1.252 . S
C68 O71 1.252 . S
C68 O72 1.260 . S
C69 O76 1.240 . S
C69 O77 1.252 . S
C70 O73 1.252 . S
C70 O74 1.260 . S
O71 In65 2.266 . S
O71 C68 1.252 . S
O72 In65 2.326 . S
O72 C68 1.260 . S
O73 In65 2.266 . S
O73 C70 1.252 . S
O74 In65 2.326 . S
O74 C70 1.260 . S
C75 O66 1.240 . S
C75 O67 1.252 . S
O76 In65 2.294 . S
O76 C69 1.240 . S
O77 In65 2.326 . S
O77 C69 1.252 . S
In78 O79 2.294 . S
In78 O80 2.326 . S
In78 O84 2.266 . S
In78 O85 2.326 . S
In78 O86 2.266 . S
In78 O87 2.326 . S
In78 O89 2.294 . S
In78 O90 2.326 . S
O79 In78 2.294 . S
O79 C88 1.240 . S
O80 In78 2.326 . S
O80 C88 1.252 . S
C81 O84 1.252 . S
C81 O85 1.260 . S
C82 O89 1.240 . S
C82 O90 1.252 . S
C83 O86 1.252 . S
C83 O87 1.260 . S
O84 In78 2.266 . S
O84 C81 1.252 . S
O85 In78 2.326 . S
O85 C81 1.260 . S
O86 In78 2.266 . S
O86 C83 1.252 . S
O87 In78 2.326 . S
O87 C83 1.260 . S
C88 O79 1.240 . S
C88 O80 1.252 . S
O89 In78 2.294 . S
O89 C82 1.240 . S
O90 In78 2.326 . S
O90 C82 1.252 . S
In91 O92 2.294 . S
In91 O93 2.326 . S
In91 O97 2.266 . S
In91 O98 2.326 . S
In91 O99 2.266 . S
In91 O100 2.326 . S
In91 O102 2.294 . S
In91 O103 2.326 . S
O92 In91 2.294 . S
O92 C101 1.240 . S
O93 In91 2.326 . S
O93 C101 1.252 . S
C94 O97 1.252 . S
C94 O98 1.260 . S
C95 O102 1.240 . S
C95 O103 1.252 . S
C96 O99 1.252 . S
C96 O100 1.260 . S
O97 In91 2.266 . S
O97 C94 1.252 . S
O98 In91 2.326 . S
O98 C94 1.260 . S
O99 In91 2.266 . S
O99 C96 1.252 . S
O100 In91 2.326 . S
O100 C96 1.260 . S
C101 O92 1.240 . S
C101 O93 1.252 . S
O102 In91 2.294 . S
O102 C95 1.240 . S
O103 In91 2.326 . S
O103 C95 1.252 . S
In104 O105 2.294 . S
In104 O106 2.326 . S
In104 O110 2.266 . S
In104 O111 2.326 . S
In104 O112 2.266 . S
In104 O113 2.326 . S
In104 O115 2.294 . S
In104 O116 2.326 . S
O105 In104 2.294 . S
O105 C114 1.240 . S
O106 In104 2.326 . S
O106 C114 1.252 . S
C107 O110 1.252 . S
C107 O111 1.260 . S
C108 O115 1.240 . S
C108 O116 1.252 . S
C109 O112 1.252 . S
C109 O113 1.260 . S
O110 In104 2.266 . S
O110 C107 1.252 . S
O111 In104 2.326 . S
O111 C107 1.260 . S
O112 In104 2.266 . S
O112 C109 1.252 . S
O113 In104 2.326 . S
O113 C109 1.260 . S
C114 O105 1.240 . S
C114 O106 1.252 . S
O115 In104 2.294 . S
O115 C108 1.240 . S
O116 In104 2.326 . S
O116 C108 1.252 . S
In117 O118 2.294 . S
In117 O119 2.326 . S
In117 O123 2.266 . S
In117 O124 2.326 . S
In117 O125 2.266 . S
In117 O126 2.326 . S
In117 O128 2.294 . S
In117 O129 2.326 . S
O118 In117 2.294 . S
O118 C127 1.240 . S
O119 In117 2.326 . S
O119 C127 1.252 . S
C120 O123 1.252 . S
C120 O124 1.260 . S
C121 O128 1.240 . S
C121 O129 1.252 . S
C122 O125 1.252 . S
C122 O126 1.260 . S
O123 In117 2.266 . S
O123 C120 1.252 . S
O124 In117 2.326 . S
O124 C120 1.260 . S
O125 In117 2.266 . S
O125 C122 1.252 . S
O126 In117 2.326 . S
O126 C122 1.260 . S
C127 O118 1.240 . S
C127 O119 1.252 . S
O128 In117 2.294 . S
O128 C121 1.240 . S
O129 In117 2.326 . S
O129 C121 1.252 . S
In130 O131 2.294 . S
In130 O132 2.326 . S
In130 O136 2.266 . S
In130 O137 2.326 . S
In130 O138 2.266 . S
In130 O139 2.326 . S
In130 O141 2.294 . S
In130 O142 2.326 . S
O131 In130 2.294 . S
O131 C140 1.240 . S
O132 In130 2.326 . S
O132 C140 1.252 . S
C133 O136 1.252 . S
C133 O137 1.260 . S
C134 O141 1.240 . S
C134 O142 1.252 . S
C135 O138 1.252 . S
C135 O139 1.260 . S
O136 In130 2.266 . S
O136 C133 1.252 . S
O137 In130 2.326 . S
O137 C133 1.260 . S
O138 In130 2.266 . S
O138 C135 1.252 . S
O139 In130 2.326 . S
O139 C135 1.260 . S
C140 O131 1.240 . S
C140 O132 1.252 . S
O141 In130 2.294 . S
O141 C134 1.240 . S
O142 In130 2.326 . S
O142 C134 1.252 . S
In143 O144 2.294 . S
In143 O145 2.326 . S
In143 O149 2.266 . S
In143 O150 2.326 . S
In143 O151 2.266 . S
In143 O152 2.326 . S
In143 O154 2.294 . S
In143 O155 2.326 . S
O144 In143 2.294 . S
O144 C153 1.240 . S
O145 In143 2.326 . S
O145 C153 1.252 . S
C146 O149 1.252 . S
C146 O150 1.260 . S
C147 O154 1.240 . S
C147 O155 1.252 . S
C148 O151 1.252 . S
C148 O152 1.260 . S
O149 In143 2.266 . S
O149 C146 1.252 . S
O150 In143 2.326 . S
O150 C146 1.260 . S
O151 In143 2.266 . S
O151 C148 1.252 . S
O152 In143 2.326 . S
O152 C148 1.260 . S
C153 O144 1.240 . S
C153 O145 1.252 . S
O154 In143 2.294 . S
O154 C147 1.240 . S
O155 In143 2.326 . S
O155 C147 1.252 . S
In156 O157 2.294 . S
In156 O158 2.326 . S
In156 O162 2.266 . S
In156 O163 2.326 . S
In156 O164 2.266 . S
In156 O165 2.326 . S
In156 O167 2.294 . S
In156 O168 2.326 . S
O157 In156 2.294 . S
O157 C166 1.240 . S
O158 In156 2.326 . S
O158 C166 1.252 . S
C159 O162 1.252 . S
C159 O163 1.260 . S
C160 O167 1.240 . S
C160 O168 1.252 . S
C161 O164 1.252 . S
C161 O165 1.260 . S
O162 In156 2.266 . S
O162 C159 1.252 . S
O163 In156 2.326 . S
O163 C159 1.260 . S
O164 In156 2.266 . S
O164 C161 1.252 . S
O165 In156 2.326 . S
O165 C161 1.260 . S
C166 O157 1.240 . S
C166 O158 1.252 . S
O167 In156 2.294 . S
O167 C160 1.240 . S
O168 In156 2.326 . S
O168 C160 1.252 . S
In169 O170 2.294 . S
In169 O171 2.326 . S
In169 O175 2.266 . S
In169 O176 2.326 . S
In169 O177 2.266 . S
In169 O178 2.326 . S
In169 O180 2.294 . S
In169 O181 2.326 . S
O170 In169 2.294 . S
O170 C179 1.240 . S
O171 In169 2.326 . S
O171 C179 1.252 . S
C172 O175 1.252 . S
C172 O176 1.260 . S
C173 O180 1.240 . S
C173 O181 1.252 . S
C174 O177 1.252 . S
C174 O178 1.260 . S
O175 In169 2.266 . S
O175 C172 1.252 . S
O176 In169 2.326 . S
O176 C172 1.260 . S
O177 In169 2.266 . S
O177 C174 1.252 . S
O178 In169 2.326 . S
O178 C174 1.260 . S
C179 O170 1.240 . S
C179 O171 1.252 . S
O180 In169 2.294 . S
O180 C173 1.240 . S
O181 In169 2.326 . S
O181 C173 1.252 . S
In182 O183 2.294 . S
In182 O184 2.326 . S
In182 O188 2.266 . S
In182 O189 2.326 . S
In182 O190 2.266 . S
In182 O191 2.326 . S
In182 O193 2.294 . S
In182 O194 2.326 . S
O183 In182 2.294 . S
O183 C192 1.240 . S
O184 In182 2.326 . S
O184 C192 1.252 . S
C185 O188 1.252 . S
C185 O189 1.260 . S
C186 O193 1.240 . S
C186 O194 1.252 . S
C187 O190 1.252 . S
C187 O191 1.260 . S
O188 In182 2.266 . S
O188 C185 1.252 . S
O189 In182 2.326 . S
O189 C185 1.260 . S
O190 In182 2.266 . S
O190 C187 1.252 . S
O191 In182 2.326 . S
O191 C187 1.260 . S
C192 O183 1.240 . S
C192 O184 1.252 . S
O193 In182 2.294 . S
O193 C186 1.240 . S
O194 In182 2.326 . S
O194 C186 1.252 . S
In195 O196 2.294 . S
In195 O197 2.326 . S
In195 O201 2.266 . S
In195 O202 2.326 . S
In195 O203 2.266 . S
In195 O204 2.326 . S
In195 O206 2.294 . S
In195 O207 2.326 . S
O196 In195 2.294 . S
O196 C205 1.240 . S
O197 In195 2.326 . S
O197 C205 1.252 . S
C198 O201 1.252 . S
C198 O202 1.260 . S
C199 O206 1.240 . S
C199 O207 1.252 . S
C200 O203 1.252 . S
C200 O204 1.260 . S
O201 In195 2.266 . S
O201 C198 1.252 . S
O202 In195 2.326 . S
O202 C198 1.260 . S
O203 In195 2.266 . S
O203 C200 1.252 . S
O204 In195 2.326 . S
O204 C200 1.260 . S
C205 O196 1.240 . S
C205 O197 1.252 . S
O206 In195 2.294 . S
O206 C199 1.240 . S
O207 In195 2.326 . S
O207 C199 1.252 . S
In208 O209 2.294 . S
In208 O210 2.326 . S
In208 O214 2.266 . S
In208 O215 2.326 . S
In208 O216 2.266 . S
In208 O217 2.326 . S
In208 O219 2.294 . S
In208 O220 2.326 . S
O209 In208 2.294 . S
O209 C218 1.240 . S
O210 In208 2.326 . S
O210 C218 1.252 . S
C211 O214 1.252 . S
C211 O215 1.260 . S
C212 O219 1.240 . S
C212 O220 1.252 . S
C213 O216 1.252 . S
C213 O217 1.260 . S
O214 In208 2.266 . S
O214 C211 1.252 . S
O215 In208 2.326 . S
O215 C211 1.260 . S
O216 In208 2.266 . S
O216 C213 1.252 . S
O217 In208 2.326 . S
O217 C213 1.260 . S
C218 O209 1.240 . S
C218 O210 1.252 . S
O219 In208 2.294 . S
O219 C212 1.240 . S
O220 In208 2.326 . S
O220 C212 1.252 . S
In221 O222 2.294 . S
In221 O223 2.326 . S
In221 O227 2.266 . S
In221 O228 2.326 . S
In221 O229 2.266 . S
In221 O230 2.326 . S
In221 O232 2.294 . S
In221 O233 2.326 . S
O222 In221 2.294 . S
O222 C231 1.240 . S
O223 In221 2.326 . S
O223 C231 1.252 . S
C224 O227 1.252 . S
C224 O228 1.260 . S
C225 O232 1.240 . S
C225 O233 1.252 . S
C226 O229 1.252 . S
C226 O230 1.260 . S
O227 In221 2.266 . S
O227 C224 1.252 . S
O228 In221 2.326 . S
O228 C224 1.260 . S
O229 In221 2.266 . S
O229 C226 1.252 . S
O230 In221 2.326 . S
O230 C226 1.260 . S
C231 O222 1.240 . S
C231 O223 1.252 . S
O232 In221 2.294 . S
O232 C225 1.240 . S
O233 In221 2.326 . S
O233 C225 1.252 . S
In234 O235 2.294 . S
In234 O236 2.326 . S
In234 O240 2.266 . S
In234 O241 2.326 . S
In234 O242 2.266 . S
In234 O243 2.326 . S
In234 O245 2.294 . S
In234 O246 2.326 . S
O235 In234 2.294 . S
O235 C244 1.240 . S
O236 In234 2.326 . S
O236 C244 1.252 . S
C237 O240 1.252 . S
C237 O241 1.260 . S
C238 O245 1.240 . S
C238 O246 1.252 . S
C239 O242 1.252 . S
C239 O243 1.260 . S
O240 In234 2.266 . S
O240 C237 1.252 . S
O241 In234 2.326 . S
O241 C237 1.260 . S
O242 In234 2.266 . S
O242 C239 1.252 . S
O243 In234 2.326 . S
O243 C239 1.260 . S
C244 O235 1.240 . S
C244 O236 1.252 . S
O245 In234 2.294 . S
O245 C238 1.240 . S
O246 In234 2.326 . S
O246 C238 1.252 . S
In247 O248 2.294 . S
In247 O249 2.326 . S
In247 O253 2.266 . S
In247 O254 2.326 . S
In247 O255 2.266 . S
In247 O256 2.326 . S
In247 O258 2.294 . S
In247 O259 2.326 . S
O248 In247 2.294 . S
O248 C257 1.240 . S
O249 In247 2.326 . S
O249 C257 1.252 . S
C250 O253 1.252 . S
C250 O254 1.260 . S
C251 O258 1.240 . S
C251 O259 1.252 . S
C252 O255 1.252 . S
C252 O256 1.260 . S
O253 In247 2.266 . S
O253 C250 1.252 . S
O254 In247 2.326 . S
O254 C250 1.260 . S
O255 In247 2.266 . S
O255 C252 1.252 . S
O256 In247 2.326 . S
O256 C252 1.260 . S
C257 O248 1.240 . S
C257 O249 1.252 . S
O258 In247 2.294 . S
O258 C251 1.240 . S
O259 In247 2.326 . S
O259 C251 1.252 . S
In260 O261 2.294 . S
In260 O262 2.326 . S
In260 O266 2.266 . S
In260 O267 2.326 . S
In260 O268 2.266 . S
In260 O269 2.326 . S
In260 O271 2.294 . S
In260 O272 2.326 . S
O261 In260 2.294 . S
O261 C270 1.240 . S
O262 In260 2.326 . S
O262 C270 1.252 . S
C263 O266 1.252 . S
C263 O267 1.260 . S
C264 O271 1.240 . S
C264 O272 1.252 . S
C265 O268 1.252 . S
C265 O269 1.260 . S
O266 In260 2.266 . S
O266 C263 1.252 . S
O267 In260 2.326 . S
O267 C263 1.260 . S
O268 In260 2.266 . S
O268 C265 1.252 . S
O269 In260 2.326 . S
O269 C265 1.260 . S
C270 O261 1.240 . S
C270 O262 1.252 . S
O271 In260 2.294 . S
O271 C264 1.240 . S
O272 In260 2.326 . S
O272 C264 1.252 . S
In273 O274 2.294 . S
In273 O275 2.326 . S
In273 O279 2.266 . S
In273 O280 2.326 . S
In273 O281 2.266 . S
In273 O282 2.326 . S
In273 O284 2.294 . S
In273 O285 2.326 . S
O274 In273 2.294 . S
O274 C283 1.240 . S
O275 In273 2.326 . S
O275 C283 1.252 . S
C276 O279 1.252 . S
C276 O280 1.260 . S
C277 O284 1.240 . S
C277 O285 1.252 . S
C278 O281 1.252 . S
C278 O282 1.260 . S
O279 In273 2.266 . S
O279 C276 1.252 . S
O280 In273 2.326 . S
O280 C276 1.260 . S
O281 In273 2.266 . S
O281 C278 1.252 . S
O282 In273 2.326 . S
O282 C278 1.260 . S
C283 O274 1.240 . S
C283 O275 1.252 . S
O284 In273 2.294 . S
O284 C277 1.240 . S
O285 In273 2.326 . S
O285 C277 1.252 . S
In286 O287 2.294 . S
In286 O288 2.326 . S
In286 O292 2.266 . S
In286 O293 2.326 . S
In286 O294 2.266 . S
In286 O295 2.326 . S
In286 O297 2.294 . S
In286 O298 2.326 . S
O287 In286 2.294 . S
O287 C296 1.240 . S
O288 In286 2.326 . S
O288 C296 1.252 . S
C289 O292 1.252 . S
C289 O293 1.260 . S
C290 O297 1.240 . S
C290 O298 1.252 . S
C291 O294 1.252 . S
C291 O295 1.260 . S
O292 In286 2.266 . S
O292 C289 1.252 . S
O293 In286 2.326 . S
O293 C289 1.260 . S
O294 In286 2.266 . S
O294 C291 1.252 . S
O295 In286 2.326 . S
O295 C291 1.260 . S
C296 O287 1.240 . S
C296 O288 1.252 . S
O297 In286 2.294 . S
O297 C290 1.240 . S
O298 In286 2.326 . S
O298 C290 1.252 . S
In299 O300 2.294 . S
In299 O301 2.326 . S
In299 O305 2.266 . S
In299 O306 2.326 . S
In299 O307 2.266 . S
In299 O308 2.326 . S
In299 O310 2.294 . S
In299 O311 2.326 . S
O300 In299 2.294 . S
O300 C309 1.240 . S
O301 In299 2.326 . S
O301 C309 1.252 . S
C302 O305 1.252 . S
C302 O306 1.260 . S
C303 O310 1.240 . S
C303 O311 1.252 . S
C304 O307 1.252 . S
C304 O308 1.260 . S
O305 In299 2.266 . S
O305 C302 1.252 . S
O306 In299 2.326 . S
O306 C302 1.260 . S
O307 In299 2.266 . S
O307 C304 1.252 . S
O308 In299 2.326 . S
O308 C304 1.260 . S
C309 O300 1.240 . S
C309 O301 1.252 . S
O310 In299 2.294 . S
O310 C303 1.240 . S
O311 In299 2.326 . S
O311 C303 1.252 . S
In312 O313 2.294 . S
In312 O314 2.326 . S
In312 O318 2.266 . S
In312 O319 2.326 . S
In312 O320 2.266 . S
In312 O321 2.326 . S
In312 O323 2.294 . S
In312 O324 2.326 . S
O313 In312 2.294 . S
O313 C322 1.240 . S
O314 In312 2.326 . S
O314 C322 1.252 . S
C315 O318 1.252 . S
C315 O319 1.260 . S
C316 O323 1.240 . S
C316 O324 1.252 . S
C317 O320 1.252 . S
C317 O321 1.260 . S
O318 In312 2.266 . S
O318 C315 1.252 . S
O319 In312 2.326 . S
O319 C315 1.260 . S
O320 In312 2.266 . S
O320 C317 1.252 . S
O321 In312 2.326 . S
O321 C317 1.260 . S
C322 O313 1.240 . S
C322 O314 1.252 . S
O323 In312 2.294 . S
O323 C316 1.240 . S
O324 In312 2.326 . S
O324 C316 1.252 . S
In325 O326 2.294 . S
In325 O327 2.326 . S
In325 O331 2.266 . S
In325 O332 2.326 . S
In325 O333 2.266 . S
In325 O334 2.326 . S
In325 O336 2.294 . S
In325 O337 2.326 . S
O326 In325 2.294 . S
O326 C335 1.240 . S
O327 In325 2.326 . S
O327 C335 1.252 . S
C328 O331 1.252 . S
C328 O332 1.260 . S
C329 O336 1.240 . S
C329 O337 1.252 . S
C330 O333 1.252 . S
C330 O334 1.260 . S
O331 In325 2.266 . S
O331 C328 1.252 . S
O332 In325 2.326 . S
O332 C328 1.260 . S
O333 In325 2.266 . S
O333 C330 1.252 . S
O334 In325 2.326 . S
O334 C330 1.260 . S
C335 O326 1.240 . S
C335 O327 1.252 . S
O336 In325 2.294 . S
O336 C329 1.240 . S
O337 In325 2.326 . S
O337 C329 1.252 . S
In338 O339 2.294 . S
In338 O340 2.326 . S
In338 O344 2.266 . S
In338 O345 2.326 . S
In338 O346 2.266 . S
In338 O347 2.326 . S
In338 O349 2.294 . S
In338 O350 2.326 . S
O339 In338 2.294 . S
O339 C348 1.240 . S
O340 In338 2.326 . S
O340 C348 1.252 . S
C341 O344 1.252 . S
C341 O345 1.260 . S
C342 O349 1.240 . S
C342 O350 1.252 . S
C343 O346 1.252 . S
C343 O347 1.260 . S
O344 In338 2.266 . S
O344 C341 1.252 . S
O345 In338 2.326 . S
O345 C341 1.260 . S
O346 In338 2.266 . S
O346 C343 1.252 . S
O347 In338 2.326 . S
O347 C343 1.260 . S
C348 O339 1.240 . S
C348 O340 1.252 . S
O349 In338 2.294 . S
O349 C342 1.240 . S
O350 In338 2.326 . S
O350 C342 1.252 . S
In351 O352 2.294 . S
In351 O353 2.326 . S
In351 O357 2.266 . S
In351 O358 2.326 . S
In351 O359 2.266 . S
In351 O360 2.326 . S
In351 O362 2.294 . S
In351 O363 2.326 . S
O352 In351 2.294 . S
O352 C361 1.240 . S
O353 In351 2.326 . S
O353 C361 1.252 . S
C354 O357 1.252 . S
C354 O358 1.260 . S
C355 O362 1.240 . S
C355 O363 1.252 . S
C356 O359 1.252 . S
C356 O360 1.260 . S
O357 In351 2.266 . S
O357 C354 1.252 . S
O358 In351 2.326 . S
O358 C354 1.260 . S
O359 In351 2.266 . S
O359 C356 1.252 . S
O360 In351 2.326 . S
O360 C356 1.260 . S
C361 O352 1.240 . S
C361 O353 1.252 . S
O362 In351 2.294 . S
O362 C355 1.240 . S
O363 In351 2.326 . S
O363 C355 1.252 . S
In364 O365 2.294 . S
In364 O366 2.326 . S
In364 O370 2.266 . S
In364 O371 2.326 . S
In364 O372 2.266 . S
In364 O373 2.326 . S
In364 O375 2.294 . S
In364 O376 2.326 . S
O365 In364 2.294 . S
O365 C374 1.240 . S
O366 In364 2.326 . S
O366 C374 1.252 . S
C367 O370 1.252 . S
C367 O371 1.260 . S
C368 O375 1.240 . S
C368 O376 1.252 . S
C369 O372 1.252 . S
C369 O373 1.260 . S
O370 In364 2.266 . S
O370 C367 1.252 . S
O371 In364 2.326 . S
O371 C367 1.260 . S
O372 In364 2.266 . S
O372 C369 1.252 . S
O373 In364 2.326 . S
O373 C369 1.260 . S
C374 O365 1.240 . S
C374 O366 1.252 . S
O375 In364 2.294 . S
O375 C368 1.240 . S
O376 In364 2.326 . S
O376 C368 1.252 . S
In377 O378 2.294 . S
In377 O379 2.326 . S
In377 O383 2.266 . S
In377 O384 2.326 . S
In377 O385 2.266 . S
In377 O386 2.326 . S
In377 O388 2.294 . S
In377 O389 2.326 . S
O378 In377 2.294 . S
O378 C387 1.240 . S
O379 In377 2.326 . S
O379 C387 1.252 . S
C380 O383 1.252 . S
C380 O384 1.260 . S
C381 O388 1.240 . S
C381 O389 1.252 . S
C382 O385 1.252 . S
C382 O386 1.260 . S
O383 In377 2.266 . S
O383 C380 1.252 . S
O384 In377 2.326 . S
O384 C380 1.260 . S
O385 In377 2.266 . S
O385 C382 1.252 . S
O386 In377 2.326 . S
O386 C382 1.260 . S
C387 O378 1.240 . S
C387 O379 1.252 . S
O388 In377 2.294 . S
O388 C381 1.240 . S
O389 In377 2.326 . S
O389 C381 1.252 . S
In390 O391 2.294 . S
In390 O392 2.326 . S
In390 O396 2.266 . S
In390 O397 2.326 . S
In390 O398 2.266 . S
In390 O399 2.326 . S
In390 O401 2.294 . S
In390 O402 2.326 . S
O391 In390 2.294 . S
O391 C400 1.240 . S
O392 In390 2.326 . S
O392 C400 1.252 . S
C393 O396 1.252 . S
C393 O397 1.260 . S
C394 O401 1.240 . S
C394 O402 1.252 . S
C395 O398 1.252 . S
C395 O399 1.260 . S
O396 In390 2.266 . S
O396 C393 1.252 . S
O397 In390 2.326 . S
O397 C393 1.260 . S
O398 In390 2.266 . S
O398 C395 1.252 . S
O399 In390 2.326 . S
O399 C395 1.260 . S
C400 O391 1.240 . S
C400 O392 1.252 . S
O401 In390 2.294 . S
O401 C394 1.240 . S
O402 In390 2.326 . S
O402 C394 1.252 . S
In403 O404 2.294 . S
In403 O405 2.326 . S
In403 O409 2.266 . S
In403 O410 2.326 . S
In403 O411 2.266 . S
In403 O412 2.326 . S
In403 O414 2.294 . S
In403 O415 2.326 . S
O404 In403 2.294 . S
O404 C413 1.240 . S
O405 In403 2.326 . S
O405 C413 1.252 . S
C406 O409 1.252 . S
C406 O410 1.260 . S
C407 O414 1.240 . S
C407 O415 1.252 . S
C408 O411 1.252 . S
C408 O412 1.260 . S
O409 In403 2.266 . S
O409 C406 1.252 . S
O410 In403 2.326 . S
O410 C406 1.260 . S
O411 In403 2.266 . S
O411 C408 1.252 . S
O412 In403 2.326 . S
O412 C408 1.260 . S
C413 O404 1.240 . S
C413 O405 1.252 . S
O414 In403 2.294 . S
O414 C407 1.240 . S
O415 In403 2.326 . S
O415 C407 1.252 . S
In416 O417 2.294 . S
In416 O418 2.326 . S
In416 O422 2.266 . S
In416 O423 2.326 . S
In416 O424 2.266 . S
In416 O425 2.326 . S
In416 O427 2.294 . S
In416 O428 2.326 . S
O417 In416 2.294 . S
O417 C426 1.240 . S
O418 In416 2.326 . S
O418 C426 1.252 . S
C419 O422 1.252 . S
C419 O423 1.260 . S
C420 O427 1.240 . S
C420 O428 1.252 . S
C421 O424 1.252 . S
C421 O425 1.260 . S
O422 In416 2.266 . S
O422 C419 1.252 . S
O423 In416 2.326 . S
O423 C419 1.260 . S
O424 In416 2.266 . S
O424 C421 1.252 . S
O425 In416 2.326 . S
O425 C421 1.260 . S
C426 O417 1.240 . S
C426 O418 1.252 . S
O427 In416 2.294 . S
O427 C420 1.240 . S
O428 In416 2.326 . S
O428 C420 1.252 . S
In429 O430 2.294 . S
In429 O431 2.326 . S
In429 O435 2.266 . S
In429 O436 2.326 . S
In429 O437 2.266 . S
In429 O438 2.326 . S
In429 O440 2.294 . S
In429 O441 2.326 . S
O430 In429 2.294 . S
O430 C439 1.240 . S
O431 In429 2.326 . S
O431 C439 1.252 . S
C432 O435 1.252 . S
C432 O436 1.260 . S
C433 O440 1.240 . S
C433 O441 1.252 . S
C434 O437 1.252 . S
C434 O438 1.260 . S
O435 In429 2.266 . S
O435 C432 1.252 . S
O436 In429 2.326 . S
O436 C432 1.260 . S
O437 In429 2.266 . S
O437 C434 1.252 . S
O438 In429 2.326 . S
O438 C434 1.260 . S
C439 O430 1.240 . S
C439 O431 1.252 . S
O440 In429 2.294 . S
O440 C433 1.240 . S
O441 In429 2.326 . S
O441 C433 1.252 . S
In442 O443 2.294 . S
In442 O444 2.326 . S
In442 O448 2.266 . S
In442 O449 2.326 . S
In442 O450 2.266 . S
In442 O451 2.326 . S
In442 O453 2.294 . S
In442 O454 2.326 . S
O443 In442 2.294 . S
O443 C452 1.240 . S
O444 In442 2.326 . S
O444 C452 1.252 . S
C445 O448 1.252 . S
C445 O449 1.260 . S
C446 O453 1.240 . S
C446 O454 1.252 . S
C447 O450 1.252 . S
C447 O451 1.260 . S
O448 In442 2.266 . S
O448 C445 1.252 . S
O449 In442 2.326 . S
O449 C445 1.260 . S
O450 In442 2.266 . S
O450 C447 1.252 . S
O451 In442 2.326 . S
O451 C447 1.260 . S
C452 O443 1.240 . S
C452 O444 1.252 . S
O453 In442 2.294 . S
O453 C446 1.240 . S
O454 In442 2.326 . S
O454 C446 1.252 . S
In455 O456 2.294 . S
In455 O457 2.326 . S
In455 O461 2.266 . S
In455 O462 2.326 . S
In455 O463 2.266 . S
In455 O464 2.326 . S
In455 O466 2.294 . S
In455 O467 2.326 . S
O456 In455 2.294 . S
O456 C465 1.240 . S
O457 In455 2.326 . S
O457 C465 1.252 . S
C458 O461 1.252 . S
C458 O462 1.260 . S
C459 O466 1.240 . S
C459 O467 1.252 . S
C460 O463 1.252 . S
C460 O464 1.260 . S
O461 In455 2.266 . S
O461 C458 1.252 . S
O462 In455 2.326 . S
O462 C458 1.260 . S
O463 In455 2.266 . S
O463 C460 1.252 . S
O464 In455 2.326 . S
O464 C460 1.260 . S
C465 O456 1.240 . S
C465 O457 1.252 . S
O466 In455 2.294 . S
O466 C459 1.240 . S
O467 In455 2.326 . S
O467 C459 1.252 . S
In468 O469 2.294 . S
In468 O470 2.326 . S
In468 O474 2.266 . S
In468 O475 2.326 . S
In468 O476 2.266 . S
In468 O477 2.326 . S
In468 O479 2.294 . S
In468 O480 2.326 . S
O469 In468 2.294 . S
O469 C478 1.240 . S
O470 In468 2.326 . S
O470 C478 1.252 . S
C471 O474 1.252 . S
C471 O475 1.260 . S
C472 O479 1.240 . S
C472 O480 1.252 . S
C473 O476 1.252 . S
C473 O477 1.260 . S
O474 In468 2.266 . S
O474 C471 1.252 . S
O475 In468 2.326 . S
O475 C471 1.260 . S
O476 In468 2.266 . S
O476 C473 1.252 . S
O477 In468 2.326 . S
O477 C473 1.260 . S
C478 O469 1.240 . S
C478 O470 1.252 . S
O479 In468 2.294 . S
O479 C472 1.240 . S
O480 In468 2.326 . S
O480 C472 1.252 . S
In481 O482 2.294 . S
In481 O483 2.326 . S
In481 O487 2.266 . S
In481 O488 2.326 . S
In481 O489 2.266 . S
In481 O490 2.326 . S
In481 O492 2.294 . S
In481 O493 2.326 . S
O482 In481 2.294 . S
O482 C491 1.240 . S
O483 In481 2.326 . S
O483 C491 1.252 . S
C484 O487 1.252 . S
C484 O488 1.260 . S
C485 O492 1.240 . S
C485 O493 1.252 . S
C486 O489 1.252 . S
C486 O490 1.260 . S
O487 In481 2.266 . S
O487 C484 1.252 . S
O488 In481 2.326 . S
O488 C484 1.260 . S
O489 In481 2.266 . S
O489 C486 1.252 . S
O490 In481 2.326 . S
O490 C486 1.260 . S
C491 O482 1.240 . S
C491 O483 1.252 . S
O492 In481 2.294 . S
O492 C485 1.240 . S
O493 In481 2.326 . S
O493 C485 1.252 . S
In494 O495 2.294 . S
In494 O496 2.326 . S
In494 O500 2.266 . S
In494 O501 2.326 . S
In494 O502 2.266 . S
In494 O503 2.326 . S
In494 O505 2.294 . S
In494 O506 2.326 . S
O495 In494 2.294 . S
O495 C504 1.240 . S
O496 In494 2.326 . S
O496 C504 1.252 . S
C497 O500 1.252 . S
C497 O501 1.260 . S
C498 O505 1.240 . S
C498 O506 1.252 . S
C499 O502 1.252 . S
C499 O503 1.260 . S
O500 In494 2.266 . S
O500 C497 1.252 . S
O501 In494 2.326 . S
O501 C497 1.260 . S
O502 In494 2.266 . S
O502 C499 1.252 . S
O503 In494 2.326 . S
O503 C499 1.260 . S
C504 O495 1.240 . S
C504 O496 1.252 . S
O505 In494 2.294 . S
O505 C498 1.240 . S
O506 In494 2.326 . S
O506 C498 1.252 . S
In507 O508 2.294 . S
In507 O509 2.326 . S
In507 O513 2.266 . S
In507 O514 2.326 . S
In507 O515 2.266 . S
In507 O516 2.326 . S
In507 O518 2.294 . S
In507 O519 2.326 . S
O508 In507 2.294 . S
O508 C517 1.240 . S
O509 In507 2.326 . S
O509 C517 1.252 . S
C510 O513 1.252 . S
C510 O514 1.260 . S
C511 O518 1.240 . S
C511 O519 1.252 . S
C512 O515 1.252 . S
C512 O516 1.260 . S
O513 In507 2.266 . S
O513 C510 1.252 . S
O514 In507 2.326 . S
O514 C510 1.260 . S
O515 In507 2.266 . S
O515 C512 1.252 . S
O516 In507 2.326 . S
O516 C512 1.260 . S
C517 O508 1.240 . S
C517 O509 1.252 . S
O518 In507 2.294 . S
O518 C511 1.240 . S
O519 In507 2.326 . S
O519 C511 1.252 . S
In520 O521 2.294 . S
In520 O522 2.326 . S
In520 O526 2.266 . S
In520 O527 2.326 . S
In520 O528 2.266 . S
In520 O529 2.326 . S
In520 O531 2.294 . S
In520 O532 2.326 . S
O521 In520 2.294 . S
O521 C530 1.240 . S
O522 In520 2.326 . S
O522 C530 1.252 . S
C523 O526 1.252 . S
C523 O527 1.260 . S
C524 O531 1.240 . S
C524 O532 1.252 . S
C525 O528 1.252 . S
C525 O529 1.260 . S
O526 In520 2.266 . S
O526 C523 1.252 . S
O527 In520 2.326 . S
O527 C523 1.260 . S
O528 In520 2.266 . S
O528 C525 1.252 . S
O529 In520 2.326 . S
O529 C525 1.260 . S
C530 O521 1.240 . S
C530 O522 1.252 . S
O531 In520 2.294 . S
O531 C524 1.240 . S
O532 In520 2.326 . S
O532 C524 1.252 . S
In533 O534 2.294 . S
In533 O535 2.326 . S
In533 O539 2.266 . S
In533 O540 2.326 . S
In533 O541 2.266 . S
In533 O542 2.326 . S
In533 O544 2.294 . S
In533 O545 2.326 . S
O534 In533 2.294 . S
O534 C543 1.240 . S
O535 In533 2.326 . S
O535 C543 1.252 . S
C536 O539 1.252 . S
C536 O540 1.260 . S
C537 O544 1.240 . S
C537 O545 1.252 . S
C538 O541 1.252 . S
C538 O542 1.260 . S
O539 In533 2.266 . S
O539 C536 1.252 . S
O540 In533 2.326 . S
O540 C536 1.260 . S
O541 In533 2.266 . S
O541 C538 1.252 . S
O542 In533 2.326 . S
O542 C538 1.260 . S
C543 O534 1.240 . S
C543 O535 1.252 . S
O544 In533 2.294 . S
O544 C537 1.240 . S
O545 In533 2.326 . S
O545 C537 1.252 . S
In546 O547 2.294 . S
In546 O548 2.326 . S
In546 O552 2.266 . S
In546 O553 2.326 . S
In546 O554 2.266 . S
In546 O555 2.326 . S
In546 O557 2.294 . S
In546 O558 2.326 . S
O547 In546 2.294 . S
O547 C556 1.240 . S
O548 In546 2.326 . S
O548 C556 1.252 . S
C549 O552 1.252 . S
C549 O553 1.260 . S
C550 O557 1.240 . S
C550 O558 1.252 . S
C551 O554 1.252 . S
C551 O555 1.260 . S
O552 In546 2.266 . S
O552 C549 1.252 . S
O553 In546 2.326 . S
O553 C549 1.260 . S
O554 In546 2.266 . S
O554 C551 1.252 . S
O555 In546 2.326 . S
O555 C551 1.260 . S
C556 O547 1.240 . S
C556 O548 1.252 . S
O557 In546 2.294 . S
O557 C550 1.240 . S
O558 In546 2.326 . S
O558 C550 1.252 . S
In559 O560 2.294 . S
In559 O561 2.326 . S
In559 O565 2.266 . S
In559 O566 2.326 . S
In559 O567 2.266 . S
In559 O568 2.326 . S
In559 O570 2.294 . S
In559 O571 2.326 . S
O560 In559 2.294 . S
O560 C569 1.240 . S
O561 In559 2.326 . S
O561 C569 1.252 . S
C562 O565 1.252 . S
C562 O566 1.260 . S
C563 O570 1.240 . S
C563 O571 1.252 . S
C564 O567 1.252 . S
C564 O568 1.260 . S
O565 In559 2.266 . S
O565 C562 1.252 . S
O566 In559 2.326 . S
O566 C562 1.260 . S
O567 In559 2.266 . S
O567 C564 1.252 . S
O568 In559 2.326 . S
O568 C564 1.260 . S
C569 O560 1.240 . S
C569 O561 1.252 . S
O570 In559 2.294 . S
O570 C563 1.240 . S
O571 In559 2.326 . S
O571 C563 1.252 . S
In572 O573 2.294 . S
In572 O574 2.326 . S
In572 O578 2.266 . S
In572 O579 2.326 . S
In572 O580 2.266 . S
In572 O581 2.326 . S
In572 O583 2.294 . S
In572 O584 2.326 . S
O573 In572 2.294 . S
O573 C582 1.240 . S
O574 In572 2.326 . S
O574 C582 1.252 . S
C575 O578 1.252 . S
C575 O579 1.260 . S
C576 O583 1.240 . S
C576 O584 1.252 . S
C577 O580 1.252 . S
C577 O581 1.260 . S
O578 In572 2.266 . S
O578 C575 1.252 . S
O579 In572 2.326 . S
O579 C575 1.260 . S
O580 In572 2.266 . S
O580 C577 1.252 . S
O581 In572 2.326 . S
O581 C577 1.260 . S
C582 O573 1.240 . S
C582 O574 1.252 . S
O583 In572 2.294 . S
O583 C576 1.240 . S
O584 In572 2.326 . S
O584 C576 1.252 . S
In585 O586 2.294 . S
In585 O587 2.326 . S
In585 O591 2.266 . S
In585 O592 2.326 . S
In585 O593 2.266 . S
In585 O594 2.326 . S
In585 O596 2.294 . S
In585 O597 2.326 . S
O586 In585 2.294 . S
O586 C595 1.240 . S
O587 In585 2.326 . S
O587 C595 1.252 . S
C588 O591 1.252 . S
C588 O592 1.260 . S
C589 O596 1.240 . S
C589 O597 1.252 . S
C590 O593 1.252 . S
C590 O594 1.260 . S
O591 In585 2.266 . S
O591 C588 1.252 . S
O592 In585 2.326 . S
O592 C588 1.260 . S
O593 In585 2.266 . S
O593 C590 1.252 . S
O594 In585 2.326 . S
O594 C590 1.260 . S
C595 O586 1.240 . S
C595 O587 1.252 . S
O596 In585 2.294 . S
O596 C589 1.240 . S
O597 In585 2.326 . S
O597 C589 1.252 . S
In598 O599 2.294 . S
In598 O600 2.326 . S
In598 O604 2.266 . S
In598 O605 2.326 . S
In598 O606 2.266 . S
In598 O607 2.326 . S
In598 O609 2.294 . S
In598 O610 2.326 . S
O599 In598 2.294 . S
O599 C608 1.240 . S
O600 In598 2.326 . S
O600 C608 1.252 . S
C601 O604 1.252 . S
C601 O605 1.260 . S
C602 O609 1.240 . S
C602 O610 1.252 . S
C603 O606 1.252 . S
C603 O607 1.260 . S
O604 In598 2.266 . S
O604 C601 1.252 . S
O605 In598 2.326 . S
O605 C601 1.260 . S
O606 In598 2.266 . S
O606 C603 1.252 . S
O607 In598 2.326 . S
O607 C603 1.260 . S
C608 O599 1.240 . S
C608 O600 1.252 . S
O609 In598 2.294 . S
O609 C602 1.240 . S
O610 In598 2.326 . S
O610 C602 1.252 . S
In611 O612 2.294 . S
In611 O613 2.326 . S
In611 O617 2.266 . S
In611 O618 2.326 . S
In611 O619 2.266 . S
In611 O620 2.326 . S
In611 O622 2.294 . S
In611 O623 2.326 . S
O612 In611 2.294 . S
O612 C621 1.240 . S
O613 In611 2.326 . S
O613 C621 1.252 . S
C614 O617 1.252 . S
C614 O618 1.260 . S
C615 O622 1.240 . S
C615 O623 1.252 . S
C616 O619 1.252 . S
C616 O620 1.260 . S
O617 In611 2.266 . S
O617 C614 1.252 . S
O618 In611 2.326 . S
O618 C614 1.260 . S
O619 In611 2.266 . S
O619 C616 1.252 . S
O620 In611 2.326 . S
O620 C616 1.260 . S
C621 O612 1.240 . S
C621 O613 1.252 . S
O622 In611 2.294 . S
O622 C615 1.240 . S
O623 In611 2.326 . S
O623 C615 1.252 . S
In624 O625 2.294 . S
In624 O626 2.326 . S
In624 O630 2.266 . S
In624 O631 2.326 . S
In624 O632 2.266 . S
In624 O633 2.326 . S
In624 O635 2.294 . S
In624 O636 2.326 . S
O625 In624 2.294 . S
O625 C634 1.240 . S
O626 In624 2.326 . S
O626 C634 1.252 . S
C627 O630 1.252 . S
C627 O631 1.260 . S
C628 O635 1.240 . S
C628 O636 1.252 . S
C629 O632 1.252 . S
C629 O633 1.260 . S
O630 In624 2.266 . S
O630 C627 1.252 . S
O631 In624 2.326 . S
O631 C627 1.260 . S
O632 In624 2.266 . S
O632 C629 1.252 . S
O633 In624 2.326 . S
O633 C629 1.260 . S
C634 O625 1.240 . S
C634 O626 1.252 . S
O635 In624 2.294 . S
O635 C628 1.240 . S
O636 In624 2.326 . S
O636 C628 1.252 . S
In637 O638 2.294 . S
In637 O639 2.326 . S
In637 O643 2.266 . S
In637 O644 2.326 . S
In637 O645 2.266 . S
In637 O646 2.326 . S
In637 O648 2.294 . S
In637 O649 2.326 . S
O638 In637 2.294 . S
O638 C647 1.240 . S
O639 In637 2.326 . S
O639 C647 1.252 . S
C640 O643 1.252 . S
C640 O644 1.260 . S
C641 O648 1.240 . S
C641 O649 1.252 . S
C642 O645 1.252 . S
C642 O646 1.260 . S
O643 In637 2.266 . S
O643 C640 1.252 . S
O644 In637 2.326 . S
O644 C640 1.260 . S
O645 In637 2.266 . S
O645 C642 1.252 . S
O646 In637 2.326 . S
O646 C642 1.260 . S
C647 O638 1.240 . S
C647 O639 1.252 . S
O648 In637 2.294 . S
O648 C641 1.240 . S
O649 In637 2.326 . S
O649 C641 1.252 . S
In650 O651 2.294 . S
In650 O652 2.326 . S
In650 O656 2.266 . S
In650 O657 2.326 . S
In650 O658 2.266 . S
In650 O659 2.326 . S
In650 O661 2.294 . S
In650 O662 2.326 . S
O651 In650 2.294 . S
O651 C660 1.240 . S
O652 In650 2.326 . S
O652 C660 1.252 . S
C653 O656 1.252 . S
C653 O657 1.260 . S
C654 O661 1.240 . S
C654 O662 1.252 . S
C655 O658 1.252 . S
C655 O659 1.260 . S
O656 In650 2.266 . S
O656 C653 1.252 . S
O657 In650 2.326 . S
O657 C653 1.260 . S
O658 In650 2.266 . S
O658 C655 1.252 . S
O659 In650 2.326 . S
O659 C655 1.260 . S
C660 O651 1.240 . S
C660 O652 1.252 . S
O661 In650 2.294 . S
O661 C654 1.240 . S
O662 In650 2.326 . S
O662 C654 1.252 . S
In663 O664 2.294 . S
In663 O665 2.326 . S
In663 O669 2.266 . S
In663 O670 2.326 . S
In663 O671 2.266 . S
In663 O672 2.326 . S
In663 O674 2.294 . S
In663 O675 2.326 . S
O664 In663 2.294 . S
O664 C673 1.240 . S
O665 In663 2.326 . S
O665 C673 1.252 . S
C666 O669 1.252 . S
C666 O670 1.260 . S
C667 O674 1.240 . S
C667 O675 1.252 . S
C668 O671 1.252 . S
C668 O672 1.260 . S
O669 In663 2.266 . S
O669 C666 1.252 . S
O670 In663 2.326 . S
O670 C666 1.260 . S
O671 In663 2.266 . S
O671 C668 1.252 . S
O672 In663 2.326 . S
O672 C668 1.260 . S
C673 O664 1.240 . S
C673 O665 1.252 . S
O674 In663 2.294 . S
O674 C667 1.240 . S
O675 In663 2.326 . S
O675 C667 1.252 . S
In676 O677 2.294 . S
In676 O678 2.326 . S
In676 O682 2.266 . S
In676 O683 2.326 . S
In676 O684 2.266 . S
In676 O685 2.326 . S
In676 O687 2.294 . S
In676 O688 2.326 . S
O677 In676 2.294 . S
O677 C686 1.240 . S
O678 In676 2.326 . S
O678 C686 1.252 . S
C679 O682 1.252 . S
C679 O683 1.260 . S
C680 O687 1.240 . S
C680 O688 1.252 . S
C681 O684 1.252 . S
C681 O685 1.260 . S
O682 In676 2.266 . S
O682 C679 1.252 . S
O683 In676 2.326 . S
O683 C679 1.260 . S
O684 In676 2.266 . S
O684 C681 1.252 . S
O685 In676 2.326 . S
O685 C681 1.260 . S
C686 O677 1.240 . S
C686 O678 1.252 . S
O687 In676 2.294 . S
O687 C680 1.240 . S
O688 In676 2.326 . S
O688 C680 1.252 . S
In689 O690 2.294 . S
In689 O691 2.326 . S
In689 O695 2.266 . S
In689 O696 2.326 . S
In689 O697 2.266 . S
In689 O698 2.326 . S
In689 O700 2.294 . S
In689 O701 2.326 . S
O690 In689 2.294 . S
O690 C699 1.240 . S
O691 In689 2.326 . S
O691 C699 1.252 . S
C692 O695 1.252 . S
C692 O696 1.260 . S
C693 O700 1.240 . S
C693 O701 1.252 . S
C694 O697 1.252 . S
C694 O698 1.260 . S
O695 In689 2.266 . S
O695 C692 1.252 . S
O696 In689 2.326 . S
O696 C692 1.260 . S
O697 In689 2.266 . S
O697 C694 1.252 . S
O698 In689 2.326 . S
O698 C694 1.260 . S
C699 O690 1.240 . S
C699 O691 1.252 . S
O700 In689 2.294 . S
O700 C693 1.240 . S
O701 In689 2.326 . S
O701 C693 1.252 . S
In702 O703 2.294 . S
In702 O704 2.326 . S
In702 O708 2.266 . S
In702 O709 2.326 . S
In702 O710 2.266 . S
In702 O711 2.326 . S
In702 O713 2.294 . S
In702 O714 2.326 . S
O703 In702 2.294 . S
O703 C712 1.240 . S
O704 In702 2.326 . S
O704 C712 1.252 . S
C705 O708 1.252 . S
C705 O709 1.260 . S
C706 O713 1.240 . S
C706 O714 1.252 . S
C707 O710 1.252 . S
C707 O711 1.260 . S
O708 In702 2.266 . S
O708 C705 1.252 . S
O709 In702 2.326 . S
O709 C705 1.260 . S
O710 In702 2.266 . S
O710 C707 1.252 . S
O711 In702 2.326 . S
O711 C707 1.260 . S
C712 O703 1.240 . S
C712 O704 1.252 . S
O713 In702 2.294 . S
O713 C706 1.240 . S
O714 In702 2.326 . S
O714 C706 1.252 . S
In715 O716 2.294 . S
In715 O717 2.326 . S
In715 O721 2.266 . S
In715 O722 2.326 . S
In715 O723 2.266 . S
In715 O724 2.326 . S
In715 O726 2.294 . S
In715 O727 2.326 . S
O716 In715 2.294 . S
O716 C725 1.240 . S
O717 In715 2.326 . S
O717 C725 1.252 . S
C718 O721 1.252 . S
C718 O722 1.260 . S
C719 O726 1.240 . S
C719 O727 1.252 . S
C720 O723 1.252 . S
C720 O724 1.260 . S
O721 In715 2.266 . S
O721 C718 1.252 . S
O722 In715 2.326 . S
O722 C718 1.260 . S
O723 In715 2.266 . S
O723 C720 1.252 . S
O724 In715 2.326 . S
O724 C720 1.260 . S
C725 O716 1.240 . S
C725 O717 1.252 . S
O726 In715 2.294 . S
O726 C719 1.240 . S
O727 In715 2.326 . S
O727 C719 1.252 . S
In728 O729 2.294 . S
In728 O730 2.326 . S
In728 O734 2.266 . S
In728 O735 2.326 . S
In728 O736 2.266 . S
In728 O737 2.326 . S
In728 O739 2.294 . S
In728 O740 2.326 . S
O729 In728 2.294 . S
O729 C738 1.240 . S
O730 In728 2.326 . S
O730 C738 1.252 . S
C731 O734 1.252 . S
C731 O735 1.260 . S
C732 O739 1.240 . S
C732 O740 1.252 . S
C733 O736 1.252 . S
C733 O737 1.260 . S
O734 In728 2.266 . S
O734 C731 1.252 . S
O735 In728 2.326 . S
O735 C731 1.260 . S
O736 In728 2.266 . S
O736 C733 1.252 . S
O737 In728 2.326 . S
O737 C733 1.260 . S
C738 O729 1.240 . S
C738 O730 1.252 . S
O739 In728 2.294 . S
O739 C732 1.240 . S
O740 In728 2.326 . S
O740 C732 1.252 . S
In741 O742 2.294 . S
In741 O743 2.326 . S
In741 O747 2.266 . S
In741 O748 2.326 . S
In741 O749 2.266 . S
In741 O750 2.326 . S
In741 O752 2.294 . S
In741 O753 2.326 . S
O742 In741 2.294 . S
O742 C751 1.240 . S
O743 In741 2.326 . S
O743 C751 1.252 . S
C744 O747 1.252 . S
C744 O748 1.260 . S
C745 O752 1.240 . S
C745 O753 1.252 . S
C746 O749 1.252 . S
C746 O750 1.260 . S
O747 In741 2.266 . S
O747 C744 1.252 . S
O748 In741 2.326 . S
O748 C744 1.260 . S
O749 In741 2.266 . S
O749 C746 1.252 . S
O750 In741 2.326 . S
O750 C746 1.260 . S
C751 O742 1.240 . S
C751 O743 1.252 . S
O752 In741 2.294 . S
O752 C745 1.240 . S
O753 In741 2.326 . S
O753 C745 1.252 . S
In754 O755 2.294 . S
In754 O756 2.326 . S
In754 O760 2.266 . S
In754 O761 2.326 . S
In754 O762 2.266 . S
In754 O763 2.326 . S
In754 O765 2.294 . S
In754 O766 2.326 . S
O755 In754 2.294 . S
O755 C764 1.240 . S
O756 In754 2.326 . S
O756 C764 1.252 . S
C757 O760 1.252 . S
C757 O761 1.260 . S
C758 O765 1.240 . S
C758 O766 1.252 . S
C759 O762 1.252 . S
C759 O763 1.260 . S
O760 In754 2.266 . S
O760 C757 1.252 . S
O761 In754 2.326 . S
O761 C757 1.260 . S
O762 In754 2.266 . S
O762 C759 1.252 . S
O763 In754 2.326 . S
O763 C759 1.260 . S
C764 O755 1.240 . S
C764 O756 1.252 . S
O765 In754 2.294 . S
O765 C758 1.240 . S
O766 In754 2.326 . S
O766 C758 1.252 . S
In767 O768 2.294 . S
In767 O769 2.326 . S
In767 O773 2.266 . S
In767 O774 2.326 . S
In767 O775 2.266 . S
In767 O776 2.326 . S
In767 O778 2.294 . S
In767 O779 2.326 . S
O768 In767 2.294 . S
O768 C777 1.240 . S
O769 In767 2.326 . S
O769 C777 1.252 . S
C770 O773 1.252 . S
C770 O774 1.260 . S
C771 O778 1.240 . S
C771 O779 1.252 . S
C772 O775 1.252 . S
C772 O776 1.260 . S
O773 In767 2.266 . S
O773 C770 1.252 . S
O774 In767 2.326 . S
O774 C770 1.260 . S
O775 In767 2.266 . S
O775 C772 1.252 . S
O776 In767 2.326 . S
O776 C772 1.260 . S
C777 O768 1.240 . S
C777 O769 1.252 . S
O778 In767 2.294 . S
O778 C771 1.240 . S
O779 In767 2.326 . S
O779 C771 1.252 . S
In780 O781 2.294 . S
In780 O782 2.326 . S
In780 O786 2.266 . S
In780 O787 2.326 . S
In780 O788 2.266 . S
In780 O789 2.326 . S
In780 O791 2.294 . S
In780 O792 2.326 . S
O781 In780 2.294 . S
O781 C790 1.240 . S
O782 In780 2.326 . S
O782 C790 1.252 . S
C783 O786 1.252 . S
C783 O787 1.260 . S
C784 O791 1.240 . S
C784 O792 1.252 . S
C785 O788 1.252 . S
C785 O789 1.260 . S
O786 In780 2.266 . S
O786 C783 1.252 . S
O787 In780 2.326 . S
O787 C783 1.260 . S
O788 In780 2.266 . S
O788 C785 1.252 . S
O789 In780 2.326 . S
O789 C785 1.260 . S
C790 O781 1.240 . S
C790 O782 1.252 . S
O791 In780 2.294 . S
O791 C784 1.240 . S
O792 In780 2.326 . S
O792 C784 1.252 . S
In793 O794 2.294 . S
In793 O795 2.326 . S
In793 O799 2.266 . S
In793 O800 2.326 . S
In793 O801 2.266 . S
In793 O802 2.326 . S
In793 O804 2.294 . S
In793 O805 2.326 . S
O794 In793 2.294 . S
O794 C803 1.240 . S
O795 In793 2.326 . S
O795 C803 1.252 . S
C796 O799 1.252 . S
C796 O800 1.260 . S
C797 O804 1.240 . S
C797 O805 1.252 . S
C798 O801 1.252 . S
C798 O802 1.260 . S
O799 In793 2.266 . S
O799 C796 1.252 . S
O800 In793 2.326 . S
O800 C796 1.260 . S
O801 In793 2.266 . S
O801 C798 1.252 . S
O802 In793 2.326 . S
O802 C798 1.260 . S
C803 O794 1.240 . S
C803 O795 1.252 . S
O804 In793 2.294 . S
O804 C797 1.240 . S
O805 In793 2.326 . S
O805 C797 1.252 . S
In806 O807 2.294 . S
In806 O808 2.326 . S
In806 O812 2.266 . S
In806 O813 2.326 . S
In806 O814 2.266 . S
In806 O815 2.326 . S
In806 O817 2.294 . S
In806 O818 2.326 . S
O807 In806 2.294 . S
O807 C816 1.240 . S
O808 In806 2.326 . S
O808 C816 1.252 . S
C809 O812 1.252 . S
C809 O813 1.260 . S
C810 O817 1.240 . S
C810 O818 1.252 . S
C811 O814 1.252 . S
C811 O815 1.260 . S
O812 In806 2.266 . S
O812 C809 1.252 . S
O813 In806 2.326 . S
O813 C809 1.260 . S
O814 In806 2.266 . S
O814 C811 1.252 . S
O815 In806 2.326 . S
O815 C811 1.260 . S
C816 O807 1.240 . S
C816 O808 1.252 . S
O817 In806 2.294 . S
O817 C810 1.240 . S
O818 In806 2.326 . S
O818 C810 1.252 . S
In819 O820 2.294 . S
In819 O821 2.326 . S
In819 O825 2.266 . S
In819 O826 2.326 . S
In819 O827 2.266 . S
In819 O828 2.326 . S
In819 O830 2.294 . S
In819 O831 2.326 . S
O820 In819 2.294 . S
O820 C829 1.240 . S
O821 In819 2.326 . S
O821 C829 1.252 . S
C822 O825 1.252 . S
C822 O826 1.260 . S
C823 O830 1.240 . S
C823 O831 1.252 . S
C824 O827 1.252 . S
C824 O828 1.260 . S
O825 In819 2.266 . S
O825 C822 1.252 . S
O826 In819 2.326 . S
O826 C822 1.260 . S
O827 In819 2.266 . S
O827 C824 1.252 . S
O828 In819 2.326 . S
O828 C824 1.260 . S
C829 O820 1.240 . S
C829 O821 1.252 . S
O830 In819 2.294 . S
O830 C823 1.240 . S
O831 In819 2.326 . S
O831 C823 1.252 . S
In832 O833 2.294 . S
In832 O834 2.326 . S
In832 O838 2.266 . S
In832 O839 2.326 . S
In832 O840 2.266 . S
In832 O841 2.326 . S
In832 O843 2.294 . S
In832 O844 2.326 . S
O833 In832 2.294 . S
O833 C842 1.240 . S
O834 In832 2.326 . S
O834 C842 1.252 . S
C835 O838 1.252 . S
C835 O839 1.260 . S
C836 O843 1.240 . S
C836 O844 1.252 . S
C837 O840 1.252 . S
C837 O841 1.260 . S
O838 In832 2.266 . S
O838 C835 1.252 . S
O839 In832 2.326 . S
O839 C835 1.260 . S
O840 In832 2.266 . S
O840 C837 1.252 . S
O841 In832 2.326 . S
O841 C837 1.260 . S
C842 O833 1.240 . S
C842 O834 1.252 . S
O843 In832 2.294 . S
O843 C836 1.240 . S
O844 In832 2.326 . S
O844 C836 1.252 . S
In845 O846 2.294 . S
In845 O847 2.326 . S
In845 O851 2.266 . S
In845 O852 2.326 . S
In845 O853 2.266 . S
In845 O854 2.326 . S
In845 O856 2.294 . S
In845 O857 2.326 . S
O846 In845 2.294 . S
O846 C855 1.240 . S
O847 In845 2.326 . S
O847 C855 1.252 . S
C848 O851 1.252 . S
C848 O852 1.260 . S
C849 O856 1.240 . S
C849 O857 1.252 . S
C850 O853 1.252 . S
C850 O854 1.260 . S
O851 In845 2.266 . S
O851 C848 1.252 . S
O852 In845 2.326 . S
O852 C848 1.260 . S
O853 In845 2.266 . S
O853 C850 1.252 . S
O854 In845 2.326 . S
O854 C850 1.260 . S
C855 O846 1.240 . S
C855 O847 1.252 . S
O856 In845 2.294 . S
O856 C849 1.240 . S
O857 In845 2.326 . S
O857 C849 1.252 . S
In858 O859 2.294 . S
In858 O860 2.326 . S
In858 O864 2.266 . S
In858 O865 2.326 . S
In858 O866 2.266 . S
In858 O867 2.326 . S
In858 O869 2.294 . S
In858 O870 2.326 . S
O859 In858 2.294 . S
O859 C868 1.240 . S
O860 In858 2.326 . S
O860 C868 1.252 . S
C861 O864 1.252 . S
C861 O865 1.260 . S
C862 O869 1.240 . S
C862 O870 1.252 . S
C863 O866 1.252 . S
C863 O867 1.260 . S
O864 In858 2.266 . S
O864 C861 1.252 . S
O865 In858 2.326 . S
O865 C861 1.260 . S
O866 In858 2.266 . S
O866 C863 1.252 . S
O867 In858 2.326 . S
O867 C863 1.260 . S
C868 O859 1.240 . S
C868 O860 1.252 . S
O869 In858 2.294 . S
O869 C862 1.240 . S
O870 In858 2.326 . S
O870 C862 1.252 . S
In871 O872 2.294 . S
In871 O873 2.326 . S
In871 O877 2.266 . S
In871 O878 2.326 . S
In871 O879 2.266 . S
In871 O880 2.326 . S
In871 O882 2.294 . S
In871 O883 2.326 . S
O872 In871 2.294 . S
O872 C881 1.240 . S
O873 In871 2.326 . S
O873 C881 1.252 . S
C874 O877 1.252 . S
C874 O878 1.260 . S
C875 O882 1.240 . S
C875 O883 1.252 . S
C876 O879 1.252 . S
C876 O880 1.260 . S
O877 In871 2.266 . S
O877 C874 1.252 . S
O878 In871 2.326 . S
O878 C874 1.260 . S
O879 In871 2.266 . S
O879 C876 1.252 . S
O880 In871 2.326 . S
O880 C876 1.260 . S
C881 O872 1.240 . S
C881 O873 1.252 . S
O882 In871 2.294 . S
O882 C875 1.240 . S
O883 In871 2.326 . S
O883 C875 1.252 . S
In884 O885 2.294 . S
In884 O886 2.326 . S
In884 O890 2.266 . S
In884 O891 2.326 . S
In884 O892 2.266 . S
In884 O893 2.326 . S
In884 O895 2.294 . S
In884 O896 2.326 . S
O885 In884 2.294 . S
O885 C894 1.240 . S
O886 In884 2.326 . S
O886 C894 1.252 . S
C887 O890 1.252 . S
C887 O891 1.260 . S
C888 O895 1.240 . S
C888 O896 1.252 . S
C889 O892 1.252 . S
C889 O893 1.260 . S
O890 In884 2.266 . S
O890 C887 1.252 . S
O891 In884 2.326 . S
O891 C887 1.260 . S
O892 In884 2.266 . S
O892 C889 1.252 . S
O893 In884 2.326 . S
O893 C889 1.260 . S
C894 O885 1.240 . S
C894 O886 1.252 . S
O895 In884 2.294 . S
O895 C888 1.240 . S
O896 In884 2.326 . S
O896 C888 1.252 . S
In897 O898 2.294 . S
In897 O899 2.326 . S
In897 O903 2.266 . S
In897 O904 2.326 . S
In897 O905 2.266 . S
In897 O906 2.326 . S
In897 O908 2.294 . S
In897 O909 2.326 . S
O898 In897 2.294 . S
O898 C907 1.240 . S
O899 In897 2.326 . S
O899 C907 1.252 . S
C900 O903 1.252 . S
C900 O904 1.260 . S
C901 O908 1.240 . S
C901 O909 1.252 . S
C902 O905 1.252 . S
C902 O906 1.260 . S
O903 In897 2.266 . S
O903 C900 1.252 . S
O904 In897 2.326 . S
O904 C900 1.260 . S
O905 In897 2.266 . S
O905 C902 1.252 . S
O906 In897 2.326 . S
O906 C902 1.260 . S
C907 O898 1.240 . S
C907 O899 1.252 . S
O908 In897 2.294 . S
O908 C901 1.240 . S
O909 In897 2.326 . S
O909 C901 1.252 . S
In910 O911 2.294 . S
In910 O912 2.326 . S
In910 O916 2.266 . S
In910 O917 2.326 . S
In910 O918 2.266 . S
In910 O919 2.326 . S
In910 O921 2.294 . S
In910 O922 2.326 . S
O911 In910 2.294 . S
O911 C920 1.240 . S
O912 In910 2.326 . S
O912 C920 1.252 . S
C913 O916 1.252 . S
C913 O917 1.260 . S
C914 O921 1.240 . S
C914 O922 1.252 . S
C915 O918 1.252 . S
C915 O919 1.260 . S
O916 In910 2.266 . S
O916 C913 1.252 . S
O917 In910 2.326 . S
O917 C913 1.260 . S
O918 In910 2.266 . S
O918 C915 1.252 . S
O919 In910 2.326 . S
O919 C915 1.260 . S
C920 O911 1.240 . S
C920 O912 1.252 . S
O921 In910 2.294 . S
O921 C914 1.240 . S
O922 In910 2.326 . S
O922 C914 1.252 . S
In923 O924 2.294 . S
In923 O925 2.326 . S
In923 O929 2.266 . S
In923 O930 2.326 . S
In923 O931 2.266 . S
In923 O932 2.326 . S
In923 O934 2.294 . S
In923 O935 2.326 . S
O924 In923 2.294 . S
O924 C933 1.240 . S
O925 In923 2.326 . S
O925 C933 1.252 . S
C926 O929 1.252 . S
C926 O930 1.260 . S
C927 O934 1.240 . S
C927 O935 1.252 . S
C928 O931 1.252 . S
C928 O932 1.260 . S
O929 In923 2.266 . S
O929 C926 1.252 . S
O930 In923 2.326 . S
O930 C926 1.260 . S
O931 In923 2.266 . S
O931 C928 1.252 . S
O932 In923 2.326 . S
O932 C928 1.260 . S
C933 O924 1.240 . S
C933 O925 1.252 . S
O934 In923 2.294 . S
O934 C927 1.240 . S
O935 In923 2.326 . S
O935 C927 1.252 . S
In936 O937 2.294 . S
In936 O938 2.326 . S
In936 O942 2.266 . S
In936 O943 2.326 . S
In936 O944 2.266 . S
In936 O945 2.326 . S
In936 O947 2.294 . S
In936 O948 2.326 . S
O937 In936 2.294 . S
O937 C946 1.240 . S
O938 In936 2.326 . S
O938 C946 1.252 . S
C939 O942 1.252 . S
C939 O943 1.260 . S
C940 O947 1.240 . S
C940 O948 1.252 . S
C941 O944 1.252 . S
C941 O945 1.260 . S
O942 In936 2.266 . S
O942 C939 1.252 . S
O943 In936 2.326 . S
O943 C939 1.260 . S
O944 In936 2.266 . S
O944 C941 1.252 . S
O945 In936 2.326 . S
O945 C941 1.260 . S
C946 O937 1.240 . S
C946 O938 1.252 . S
O947 In936 2.294 . S
O947 C940 1.240 . S
O948 In936 2.326 . S
O948 C940 1.252 . S
In949 O950 2.294 . S
In949 O951 2.326 . S
In949 O955 2.266 . S
In949 O956 2.326 . S
In949 O957 2.266 . S
In949 O958 2.326 . S
In949 O960 2.294 . S
In949 O961 2.326 . S
O950 In949 2.294 . S
O950 C959 1.240 . S
O951 In949 2.326 . S
O951 C959 1.252 . S
C952 O955 1.252 . S
C952 O956 1.260 . S
C953 O960 1.240 . S
C953 O961 1.252 . S
C954 O957 1.252 . S
C954 O958 1.260 . S
O955 In949 2.266 . S
O955 C952 1.252 . S
O956 In949 2.326 . S
O956 C952 1.260 . S
O957 In949 2.266 . S
O957 C954 1.252 . S
O958 In949 2.326 . S
O958 C954 1.260 . S
C959 O950 1.240 . S
C959 O951 1.252 . S
O960 In949 2.294 . S
O960 C953 1.240 . S
O961 In949 2.326 . S
O961 C953 1.252 . S
In962 O963 2.294 . S
In962 O964 2.326 . S
In962 O968 2.266 . S
In962 O969 2.326 . S
In962 O970 2.266 . S
In962 O971 2.326 . S
In962 O973 2.294 . S
In962 O974 2.326 . S
O963 In962 2.294 . S
O963 C972 1.240 . S
O964 In962 2.326 . S
O964 C972 1.252 . S
C965 O968 1.252 . S
C965 O969 1.260 . S
C966 O973 1.240 . S
C966 O974 1.252 . S
C967 O970 1.252 . S
C967 O971 1.260 . S
O968 In962 2.266 . S
O968 C965 1.252 . S
O969 In962 2.326 . S
O969 C965 1.260 . S
O970 In962 2.266 . S
O970 C967 1.252 . S
O971 In962 2.326 . S
O971 C967 1.260 . S
C972 O963 1.240 . S
C972 O964 1.252 . S
O973 In962 2.294 . S
O973 C966 1.240 . S
O974 In962 2.326 . S
O974 C966 1.252 . S
In975 O976 2.294 . S
In975 O977 2.326 . S
In975 O981 2.266 . S
In975 O982 2.326 . S
In975 O983 2.266 . S
In975 O984 2.326 . S
In975 O986 2.294 . S
In975 O987 2.326 . S
O976 In975 2.294 . S
O976 C985 1.240 . S
O977 In975 2.326 . S
O977 C985 1.252 . S
C978 O981 1.252 . S
C978 O982 1.260 . S
C979 O986 1.240 . S
C979 O987 1.252 . S
C980 O983 1.252 . S
C980 O984 1.260 . S
O981 In975 2.266 . S
O981 C978 1.252 . S
O982 In975 2.326 . S
O982 C978 1.260 . S
O983 In975 2.266 . S
O983 C980 1.252 . S
O984 In975 2.326 . S
O984 C980 1.260 . S
C985 O976 1.240 . S
C985 O977 1.252 . S
O986 In975 2.294 . S
O986 C979 1.240 . S
O987 In975 2.326 . S
O987 C979 1.252 . S
In988 O989 2.294 . S
In988 O990 2.326 . S
In988 O994 2.266 . S
In988 O995 2.326 . S
In988 O996 2.266 . S
In988 O997 2.326 . S
In988 O999 2.294 . S
In988 O1000 2.326 . S
O989 In988 2.294 . S
O989 C998 1.240 . S
O990 In988 2.326 . S
O990 C998 1.252 . S
C991 O994 1.252 . S
C991 O995 1.260 . S
C992 O999 1.240 . S
C992 O1000 1.252 . S
C993 O996 1.252 . S
C993 O997 1.260 . S
O994 In988 2.266 . S
O994 C991 1.252 . S
O995 In988 2.326 . S
O995 C991 1.260 . S
O996 In988 2.266 . S
O996 C993 1.252 . S
O997 In988 2.326 . S
O997 C993 1.260 . S
C998 O989 1.240 . S
C998 O990 1.252 . S
O999 In988 2.294 . S
O999 C992 1.240 . S
O1000 In988 2.326 . S
O1000 C992 1.252 . S
In1001 O1002 2.294 . S
In1001 O1003 2.326 . S
In1001 O1007 2.266 . S
In1001 O1008 2.326 . S
In1001 O1009 2.266 . S
In1001 O1010 2.326 . S
In1001 O1012 2.294 . S
In1001 O1013 2.326 . S
O1002 In1001 2.294 . S
O1002 C1011 1.240 . S
O1003 In1001 2.326 . S
O1003 C1011 1.252 . S
C1004 O1007 1.252 . S
C1004 O1008 1.260 . S
C1005 O1012 1.240 . S
C1005 O1013 1.252 . S
C1006 O1009 1.252 . S
C1006 O1010 1.260 . S
O1007 In1001 2.266 . S
O1007 C1004 1.252 . S
O1008 In1001 2.326 . S
O1008 C1004 1.260 . S
O1009 In1001 2.266 . S
O1009 C1006 1.252 . S
O1010 In1001 2.326 . S
O1010 C1006 1.260 . S
C1011 O1002 1.240 . S
C1011 O1003 1.252 . S
O1012 In1001 2.294 . S
O1012 C1005 1.240 . S
O1013 In1001 2.326 . S
O1013 C1005 1.252 . S
In1014 O1015 2.294 . S
In1014 O1016 2.326 . S
In1014 O1020 2.266 . S
In1014 O1021 2.326 . S
In1014 O1022 2.266 . S
In1014 O1023 2.326 . S
In1014 O1025 2.294 . S
In1014 O1026 2.326 . S
O1015 In1014 2.294 . S
O1015 C1024 1.240 . S
O1016 In1014 2.326 . S
O1016 C1024 1.252 . S
C1017 O1020 1.252 . S
C1017 O1021 1.260 . S
C1018 O1025 1.240 . S
C1018 O1026 1.252 . S
C1019 O1022 1.252 . S
C1019 O1023 1.260 . S
O1020 In1014 2.266 . S
O1020 C1017 1.252 . S
O1021 In1014 2.326 . S
O1021 C1017 1.260 . S
O1022 In1014 2.266 . S
O1022 C1019 1.252 . S
O1023 In1014 2.326 . S
O1023 C1019 1.260 . S
C1024 O1015 1.240 . S
C1024 O1016 1.252 . S
O1025 In1014 2.294 . S
O1025 C1018 1.240 . S
O1026 In1014 2.326 . S
O1026 C1018 1.252 . S
In1027 O1028 2.294 . S
In1027 O1029 2.326 . S
In1027 O1033 2.266 . S
In1027 O1034 2.326 . S
In1027 O1035 2.266 . S
In1027 O1036 2.326 . S
In1027 O1038 2.294 . S
In1027 O1039 2.326 . S
O1028 In1027 2.294 . S
O1028 C1037 1.240 . S
O1029 In1027 2.326 . S
O1029 C1037 1.252 . S
C1030 O1033 1.252 . S
C1030 O1034 1.260 . S
C1031 O1038 1.240 . S
C1031 O1039 1.252 . S
C1032 O1035 1.252 . S
C1032 O1036 1.260 . S
O1033 In1027 2.266 . S
O1033 C1030 1.252 . S
O1034 In1027 2.326 . S
O1034 C1030 1.260 . S
O1035 In1027 2.266 . S
O1035 C1032 1.252 . S
O1036 In1027 2.326 . S
O1036 C1032 1.260 . S
C1037 O1028 1.240 . S
C1037 O1029 1.252 . S
O1038 In1027 2.294 . S
O1038 C1031 1.240 . S
O1039 In1027 2.326 . S
O1039 C1031 1.252 . S
In1040 O1041 2.294 . S
In1040 O1042 2.326 . S
In1040 O1046 2.266 . S
In1040 O1047 2.326 . S
In1040 O1048 2.266 . S
In1040 O1049 2.326 . S
In1040 O1051 2.294 . S
In1040 O1052 2.326 . S
O1041 In1040 2.294 . S
O1041 C1050 1.240 . S
O1042 In1040 2.326 . S
O1042 C1050 1.252 . S
C1043 O1046 1.252 . S
C1043 O1047 1.260 . S
C1044 O1051 1.240 . S
C1044 O1052 1.252 . S
C1045 O1048 1.252 . S
C1045 O1049 1.260 . S
O1046 In1040 2.266 . S
O1046 C1043 1.252 . S
O1047 In1040 2.326 . S
O1047 C1043 1.260 . S
O1048 In1040 2.266 . S
O1048 C1045 1.252 . S
O1049 In1040 2.326 . S
O1049 C1045 1.260 . S
C1050 O1041 1.240 . S
C1050 O1042 1.252 . S
O1051 In1040 2.294 . S
O1051 C1044 1.240 . S
O1052 In1040 2.326 . S
O1052 C1044 1.252 . S
In1053 O1054 2.294 . S
In1053 O1055 2.326 . S
In1053 O1059 2.266 . S
In1053 O1060 2.326 . S
In1053 O1061 2.266 . S
In1053 O1062 2.326 . S
In1053 O1064 2.294 . S
In1053 O1065 2.326 . S
O1054 In1053 2.294 . S
O1054 C1063 1.240 . S
O1055 In1053 2.326 . S
O1055 C1063 1.252 . S
C1056 O1059 1.252 . S
C1056 O1060 1.260 . S
C1057 O1064 1.240 . S
C1057 O1065 1.252 . S
C1058 O1061 1.252 . S
C1058 O1062 1.260 . S
O1059 In1053 2.266 . S
O1059 C1056 1.252 . S
O1060 In1053 2.326 . S
O1060 C1056 1.260 . S
O1061 In1053 2.266 . S
O1061 C1058 1.252 . S
O1062 In1053 2.326 . S
O1062 C1058 1.260 . S
C1063 O1054 1.240 . S
C1063 O1055 1.252 . S
O1064 In1053 2.294 . S
O1064 C1057 1.240 . S
O1065 In1053 2.326 . S
O1065 C1057 1.252 . S
In1066 O1067 2.294 . S
In1066 O1068 2.326 . S
In1066 O1072 2.266 . S
In1066 O1073 2.326 . S
In1066 O1074 2.266 . S
In1066 O1075 2.326 . S
In1066 O1077 2.294 . S
In1066 O1078 2.326 . S
O1067 In1066 2.294 . S
O1067 C1076 1.240 . S
O1068 In1066 2.326 . S
O1068 C1076 1.252 . S
C1069 O1072 1.252 . S
C1069 O1073 1.260 . S
C1070 O1077 1.240 . S
C1070 O1078 1.252 . S
C1071 O1074 1.252 . S
C1071 O1075 1.260 . S
O1072 In1066 2.266 . S
O1072 C1069 1.252 . S
O1073 In1066 2.326 . S
O1073 C1069 1.260 . S
O1074 In1066 2.266 . S
O1074 C1071 1.252 . S
O1075 In1066 2.326 . S
O1075 C1071 1.260 . S
C1076 O1067 1.240 . S
C1076 O1068 1.252 . S
O1077 In1066 2.294 . S
O1077 C1070 1.240 . S
O1078 In1066 2.326 . S
O1078 C1070 1.252 . S
In1079 O1080 2.294 . S
In1079 O1081 2.326 . S
In1079 O1085 2.266 . S
In1079 O1086 2.326 . S
In1079 O1087 2.266 . S
In1079 O1088 2.326 . S
In1079 O1090 2.294 . S
In1079 O1091 2.326 . S
O1080 In1079 2.294 . S
O1080 C1089 1.240 . S
O1081 In1079 2.326 . S
O1081 C1089 1.252 . S
C1082 O1085 1.252 . S
C1082 O1086 1.260 . S
C1083 O1090 1.240 . S
C1083 O1091 1.252 . S
C1084 O1087 1.252 . S
C1084 O1088 1.260 . S
O1085 In1079 2.266 . S
O1085 C1082 1.252 . S
O1086 In1079 2.326 . S
O1086 C1082 1.260 . S
O1087 In1079 2.266 . S
O1087 C1084 1.252 . S
O1088 In1079 2.326 . S
O1088 C1084 1.260 . S
C1089 O1080 1.240 . S
C1089 O1081 1.252 . S
O1090 In1079 2.294 . S
O1090 C1083 1.240 . S
O1091 In1079 2.326 . S
O1091 C1083 1.252 . S
In1092 O1093 2.294 . S
In1092 O1094 2.326 . S
In1092 O1098 2.266 . S
In1092 O1099 2.326 . S
In1092 O1100 2.266 . S
In1092 O1101 2.326 . S
In1092 O1103 2.294 . S
In1092 O1104 2.326 . S
O1093 In1092 2.294 . S
O1093 C1102 1.240 . S
O1094 In1092 2.326 . S
O1094 C1102 1.252 . S
C1095 O1098 1.252 . S
C1095 O1099 1.260 . S
C1096 O1103 1.240 . S
C1096 O1104 1.252 . S
C1097 O1100 1.252 . S
C1097 O1101 1.260 . S
O1098 In1092 2.266 . S
O1098 C1095 1.252 . S
O1099 In1092 2.326 . S
O1099 C1095 1.260 . S
O1100 In1092 2.266 . S
O1100 C1097 1.252 . S
O1101 In1092 2.326 . S
O1101 C1097 1.260 . S
C1102 O1093 1.240 . S
C1102 O1094 1.252 . S
O1103 In1092 2.294 . S
O1103 C1096 1.240 . S
O1104 In1092 2.326 . S
O1104 C1096 1.252 . S
In1105 O1106 2.294 . S
In1105 O1107 2.326 . S
In1105 O1111 2.266 . S
In1105 O1112 2.326 . S
In1105 O1113 2.266 . S
In1105 O1114 2.326 . S
In1105 O1116 2.294 . S
In1105 O1117 2.326 . S
O1106 In1105 2.294 . S
O1106 C1115 1.240 . S
O1107 In1105 2.326 . S
O1107 C1115 1.252 . S
C1108 O1111 1.252 . S
C1108 O1112 1.260 . S
C1109 O1116 1.240 . S
C1109 O1117 1.252 . S
C1110 O1113 1.252 . S
C1110 O1114 1.260 . S
O1111 In1105 2.266 . S
O1111 C1108 1.252 . S
O1112 In1105 2.326 . S
O1112 C1108 1.260 . S
O1113 In1105 2.266 . S
O1113 C1110 1.252 . S
O1114 In1105 2.326 . S
O1114 C1110 1.260 . S
C1115 O1106 1.240 . S
C1115 O1107 1.252 . S
O1116 In1105 2.294 . S
O1116 C1109 1.240 . S
O1117 In1105 2.326 . S
O1117 C1109 1.252 . S
In1118 O1119 2.294 . S
In1118 O1120 2.326 . S
In1118 O1124 2.266 . S
In1118 O1125 2.326 . S
In1118 O1126 2.266 . S
In1118 O1127 2.326 . S
In1118 O1129 2.294 . S
In1118 O1130 2.326 . S
O1119 In1118 2.294 . S
O1119 C1128 1.240 . S
O1120 In1118 2.326 . S
O1120 C1128 1.252 . S
C1121 O1124 1.252 . S
C1121 O1125 1.260 . S
C1122 O1129 1.240 . S
C1122 O1130 1.252 . S
C1123 O1126 1.252 . S
C1123 O1127 1.260 . S
O1124 In1118 2.266 . S
O1124 C1121 1.252 . S
O1125 In1118 2.326 . S
O1125 C1121 1.260 . S
O1126 In1118 2.266 . S
O1126 C1123 1.252 . S
O1127 In1118 2.326 . S
O1127 C1123 1.260 . S
C1128 O1119 1.240 . S
C1128 O1120 1.252 . S
O1129 In1118 2.294 . S
O1129 C1122 1.240 . S
O1130 In1118 2.326 . S
O1130 C1122 1.252 . S
In1131 O1132 2.294 . S
In1131 O1133 2.326 . S
In1131 O1137 2.266 . S
In1131 O1138 2.326 . S
In1131 O1139 2.266 . S
In1131 O1140 2.326 . S
In1131 O1142 2.294 . S
In1131 O1143 2.326 . S
O1132 In1131 2.294 . S
O1132 C1141 1.240 . S
O1133 In1131 2.326 . S
O1133 C1141 1.252 . S
C1134 O1137 1.252 . S
C1134 O1138 1.260 . S
C1135 O1142 1.240 . S
C1135 O1143 1.252 . S
C1136 O1139 1.252 . S
C1136 O1140 1.260 . S
O1137 In1131 2.266 . S
O1137 C1134 1.252 . S
O1138 In1131 2.326 . S
O1138 C1134 1.260 . S
O1139 In1131 2.266 . S
O1139 C1136 1.252 . S
O1140 In1131 2.326 . S
O1140 C1136 1.260 . S
C1141 O1132 1.240 . S
C1141 O1133 1.252 . S
O1142 In1131 2.294 . S
O1142 C1135 1.240 . S
O1143 In1131 2.326 . S
O1143 C1135 1.252 . S
In1144 O1145 2.294 . S
In1144 O1146 2.326 . S
In1144 O1150 2.266 . S
In1144 O1151 2.326 . S
In1144 O1152 2.266 . S
In1144 O1153 2.326 . S
In1144 O1155 2.294 . S
In1144 O1156 2.326 . S
O1145 In1144 2.294 . S
O1145 C1154 1.240 . S
O1146 In1144 2.326 . S
O1146 C1154 1.252 . S
C1147 O1150 1.252 . S
C1147 O1151 1.260 . S
C1148 O1155 1.240 . S
C1148 O1156 1.252 . S
C1149 O1152 1.252 . S
C1149 O1153 1.260 . S
O1150 In1144 2.266 . S
O1150 C1147 1.252 . S
O1151 In1144 2.326 . S
O1151 C1147 1.260 . S
O1152 In1144 2.266 . S
O1152 C1149 1.252 . S
O1153 In1144 2.326 . S
O1153 C1149 1.260 . S
C1154 O1145 1.240 . S
C1154 O1146 1.252 . S
O1155 In1144 2.294 . S
O1155 C1148 1.240 . S
O1156 In1144 2.326 . S
O1156 C1148 1.252 . S
In1157 O1158 2.294 . S
In1157 O1159 2.326 . S
In1157 O1163 2.266 . S
In1157 O1164 2.326 . S
In1157 O1165 2.266 . S
In1157 O1166 2.326 . S
In1157 O1168 2.294 . S
In1157 O1169 2.326 . S
O1158 In1157 2.294 . S
O1158 C1167 1.240 . S
O1159 In1157 2.326 . S
O1159 C1167 1.252 . S
C1160 O1163 1.252 . S
C1160 O1164 1.260 . S
C1161 O1168 1.240 . S
C1161 O1169 1.252 . S
C1162 O1165 1.252 . S
C1162 O1166 1.260 . S
O1163 In1157 2.266 . S
O1163 C1160 1.252 . S
O1164 In1157 2.326 . S
O1164 C1160 1.260 . S
O1165 In1157 2.266 . S
O1165 C1162 1.252 . S
O1166 In1157 2.326 . S
O1166 C1162 1.260 . S
C1167 O1158 1.240 . S
C1167 O1159 1.252 . S
O1168 In1157 2.294 . S
O1168 C1161 1.240 . S
O1169 In1157 2.326 . S
O1169 C1161 1.252 . S
In1170 O1171 2.294 . S
In1170 O1172 2.326 . S
In1170 O1176 2.266 . S
In1170 O1177 2.326 . S
In1170 O1178 2.266 . S
In1170 O1179 2.326 . S
In1170 O1181 2.294 . S
In1170 O1182 2.326 . S
O1171 In1170 2.294 . S
O1171 C1180 1.240 . S
O1172 In1170 2.326 . S
O1172 C1180 1.252 . S
C1173 O1176 1.252 . S
C1173 O1177 1.260 . S
C1174 O1181 1.240 . S
C1174 O1182 1.252 . S
C1175 O1178 1.252 . S
C1175 O1179 1.260 . S
O1176 In1170 2.266 . S
O1176 C1173 1.252 . S
O1177 In1170 2.326 . S
O1177 C1173 1.260 . S
O1178 In1170 2.266 . S
O1178 C1175 1.252 . S
O1179 In1170 2.326 . S
O1179 C1175 1.260 . S
C1180 O1171 1.240 . S
C1180 O1172 1.252 . S
O1181 In1170 2.294 . S
O1181 C1174 1.240 . S
O1182 In1170 2.326 . S
O1182 C1174 1.252 . S
In1183 O1184 2.294 . S
In1183 O1185 2.326 . S
In1183 O1189 2.266 . S
In1183 O1190 2.326 . S
In1183 O1191 2.266 . S
In1183 O1192 2.326 . S
In1183 O1194 2.294 . S
In1183 O1195 2.326 . S
O1184 In1183 2.294 . S
O1184 C1193 1.240 . S
O1185 In1183 2.326 . S
O1185 C1193 1.252 . S
C1186 O1189 1.252 . S
C1186 O1190 1.260 . S
C1187 O1194 1.240 . S
C1187 O1195 1.252 . S
C1188 O1191 1.252 . S
C1188 O1192 1.260 . S
O1189 In1183 2.266 . S
O1189 C1186 1.252 . S
O1190 In1183 2.326 . S
O1190 C1186 1.260 . S
O1191 In1183 2.266 . S
O1191 C1188 1.252 . S
O1192 In1183 2.326 . S
O1192 C1188 1.260 . S
C1193 O1184 1.240 . S
C1193 O1185 1.252 . S
O1194 In1183 2.294 . S
O1194 C1187 1.240 . S
O1195 In1183 2.326 . S
O1195 C1187 1.252 . S
In1196 O1197 2.294 . S
In1196 O1198 2.326 . S
In1196 O1202 2.266 . S
In1196 O1203 2.326 . S
In1196 O1204 2.266 . S
In1196 O1205 2.326 . S
In1196 O1207 2.294 . S
In1196 O1208 2.326 . S
O1197 In1196 2.294 . S
O1197 C1206 1.240 . S
O1198 In1196 2.326 . S
O1198 C1206 1.252 . S
C1199 O1202 1.252 . S
C1199 O1203 1.260 . S
C1200 O1207 1.240 . S
C1200 O1208 1.252 . S
C1201 O1204 1.252 . S
C1201 O1205 1.260 . S
O1202 In1196 2.266 . S
O1202 C1199 1.252 . S
O1203 In1196 2.326 . S
O1203 C1199 1.260 . S
O1204 In1196 2.266 . S
O1204 C1201 1.252 . S
O1205 In1196 2.326 . S
O1205 C1201 1.260 . S
C1206 O1197 1.240 . S
C1206 O1198 1.252 . S
O1207 In1196 2.294 . S
O1207 C1200 1.240 . S
O1208 In1196 2.326 . S
O1208 C1200 1.252 . S
In1209 O1210 2.294 . S
In1209 O1211 2.326 . S
In1209 O1215 2.266 . S
In1209 O1216 2.326 . S
In1209 O1217 2.266 . S
In1209 O1218 2.326 . S
In1209 O1220 2.294 . S
In1209 O1221 2.326 . S
O1210 In1209 2.294 . S
O1210 C1219 1.240 . S
O1211 In1209 2.326 . S
O1211 C1219 1.252 . S
C1212 O1215 1.252 . S
C1212 O1216 1.260 . S
C1213 O1220 1.240 . S
C1213 O1221 1.252 . S
C1214 O1217 1.252 . S
C1214 O1218 1.260 . S
O1215 In1209 2.266 . S
O1215 C1212 1.252 . S
O1216 In1209 2.326 . S
O1216 C1212 1.260 . S
O1217 In1209 2.266 . S
O1217 C1214 1.252 . S
O1218 In1209 2.326 . S
O1218 C1214 1.260 . S
C1219 O1210 1.240 . S
C1219 O1211 1.252 . S
O1220 In1209 2.294 . S
O1220 C1213 1.240 . S
O1221 In1209 2.326 . S
O1221 C1213 1.252 . S
In1222 O1223 2.294 . S
In1222 O1224 2.326 . S
In1222 O1228 2.266 . S
In1222 O1229 2.326 . S
In1222 O1230 2.266 . S
In1222 O1231 2.326 . S
In1222 O1233 2.294 . S
In1222 O1234 2.326 . S
O1223 In1222 2.294 . S
O1223 C1232 1.240 . S
O1224 In1222 2.326 . S
O1224 C1232 1.252 . S
C1225 O1228 1.252 . S
C1225 O1229 1.260 . S
C1226 O1233 1.240 . S
C1226 O1234 1.252 . S
C1227 O1230 1.252 . S
C1227 O1231 1.260 . S
O1228 In1222 2.266 . S
O1228 C1225 1.252 . S
O1229 In1222 2.326 . S
O1229 C1225 1.260 . S
O1230 In1222 2.266 . S
O1230 C1227 1.252 . S
O1231 In1222 2.326 . S
O1231 C1227 1.260 . S
C1232 O1223 1.240 . S
C1232 O1224 1.252 . S
O1233 In1222 2.294 . S
O1233 C1226 1.240 . S
O1234 In1222 2.326 . S
O1234 C1226 1.252 . S
In1235 O1236 2.294 . S
In1235 O1237 2.326 . S
In1235 O1241 2.266 . S
In1235 O1242 2.326 . S
In1235 O1243 2.266 . S
In1235 O1244 2.326 . S
In1235 O1246 2.294 . S
In1235 O1247 2.326 . S
O1236 In1235 2.294 . S
O1236 C1245 1.240 . S
O1237 In1235 2.326 . S
O1237 C1245 1.252 . S
C1238 O1241 1.252 . S
C1238 O1242 1.260 . S
C1239 O1246 1.240 . S
C1239 O1247 1.252 . S
C1240 O1243 1.252 . S
C1240 O1244 1.260 . S
O1241 In1235 2.266 . S
O1241 C1238 1.252 . S
O1242 In1235 2.326 . S
O1242 C1238 1.260 . S
O1243 In1235 2.266 . S
O1243 C1240 1.252 . S
O1244 In1235 2.326 . S
O1244 C1240 1.260 . S
C1245 O1236 1.240 . S
C1245 O1237 1.252 . S
O1246 In1235 2.294 . S
O1246 C1239 1.240 . S
O1247 In1235 2.326 . S
O1247 C1239 1.252 . S
C1248 C1249 1.363 . S
C1248 C1254 1.379 . S
C1248 N1256 1.356 . S
C1249 C1248 1.363 . S
C1249 C1255 1.363 . S
C1250 C1251 1.363 . S
C1250 C1255 1.379 . S
C1250 N1257 1.356 . S
C1251 C1250 1.363 . S
C1251 C1254 1.363 . S
N1252 C1254 1.356 . S
N1252 H1264 0.984 . S
N1252 H1265 0.985 . S
N1253 C1255 1.356 . S
N1253 H1258 0.984 . S
N1253 H1259 0.985 . S
C1254 C1248 1.379 . S
C1254 C1251 1.363 . S
C1254 N1252 1.356 . S
C1255 C1249 1.363 . S
C1255 C1250 1.379 . S
C1255 N1253 1.356 . S
N1256 C1248 1.356 . S
N1256 H1262 0.984 . S
N1256 H1263 0.984 . S
N1257 C1250 1.356 . S
N1257 H1260 0.984 . S
N1257 H1261 0.985 . S
H1258 N1253 0.984 . S
H1259 N1253 0.985 . S
H1260 N1257 0.984 . S
H1261 N1257 0.985 . S
H1262 N1256 0.984 . S
H1263 N1256 0.984 . S
H1264 N1252 0.984 . S
H1265 N1252 0.985 . S
C1266 C1267 1.363 . S
C1266 C1272 1.379 . S
C1266 N1274 1.356 . S
C1267 C1266 1.363 . S
C1267 C1273 1.363 . S
C1268 C1269 1.363 . S
C1268 C1273 1.379 . S
C1268 N1275 1.356 . S
C1269 C1268 1.363 . S
C1269 C1272 1.363 . S
N1270 C1272 1.356 . S
N1270 H1282 0.984 . S
N1270 H1283 0.985 . S
N1271 C1273 1.356 . S
N1271 H1276 0.984 . S
N1271 H1277 0.985 . S
C1272 C1266 1.379 . S
C1272 C1269 1.363 . S
C1272 N1270 1.356 . S
C1273 C1267 1.363 . S
C1273 C1268 1.379 . S
C1273 N1271 1.356 . S
N1274 C1266 1.356 . S
N1274 H1280 0.984 . S
N1274 H1281 0.984 . S
N1275 C1268 1.356 . S
N1275 H1278 0.984 . S
N1275 H1279 0.985 . S
H1276 N1271 0.984 . S
H1277 N1271 0.985 . S
H1278 N1275 0.984 . S
H1279 N1275 0.985 . S
H1280 N1274 0.984 . S
H1281 N1274 0.984 . S
H1282 N1270 0.984 . S
H1283 N1270 0.985 . S
C1284 C1285 1.363 . S
C1284 C1290 1.379 . S
C1284 N1292 1.356 . S
C1285 C1284 1.363 . S
C1285 C1291 1.363 . S
C1286 C1287 1.363 . S
C1286 C1291 1.379 . S
C1286 N1293 1.356 . S
C1287 C1286 1.363 . S
C1287 C1290 1.363 . S
N1288 C1290 1.356 . S
N1288 H1300 0.984 . S
N1288 H1301 0.985 . S
N1289 C1291 1.356 . S
N1289 H1294 0.984 . S
N1289 H1295 0.985 . S
C1290 C1284 1.379 . S
C1290 C1287 1.363 . S
C1290 N1288 1.356 . S
C1291 C1285 1.363 . S
C1291 C1286 1.379 . S
C1291 N1289 1.356 . S
N1292 C1284 1.356 . S
N1292 H1298 0.984 . S
N1292 H1299 0.984 . S
N1293 C1286 1.356 . S
N1293 H1296 0.984 . S
N1293 H1297 0.985 . S
H1294 N1289 0.984 . S
H1295 N1289 0.985 . S
H1296 N1293 0.984 . S
H1297 N1293 0.985 . S
H1298 N1292 0.984 . S
H1299 N1292 0.984 . S
H1300 N1288 0.984 . S
H1301 N1288 0.985 . S
C1302 C1303 1.363 . S
C1302 C1308 1.379 . S
C1302 N1310 1.356 . S
C1303 C1302 1.363 . S
C1303 C1309 1.363 . S
C1304 C1305 1.363 . S
C1304 C1309 1.379 . S
C1304 N1311 1.356 . S
C1305 C1304 1.363 . S
C1305 C1308 1.363 . S
N1306 C1308 1.356 . S
N1306 H1318 0.984 . S
N1306 H1319 0.985 . S
N1307 C1309 1.356 . S
N1307 H1312 0.984 . S
N1307 H1313 0.985 . S
C1308 C1302 1.379 . S
C1308 C1305 1.363 . S
C1308 N1306 1.356 . S
C1309 C1303 1.363 . S
C1309 C1304 1.379 . S
C1309 N1307 1.356 . S
N1310 C1302 1.356 . S
N1310 H1316 0.984 . S
N1310 H1317 0.984 . S
N1311 C1304 1.356 . S
N1311 H1314 0.984 . S
N1311 H1315 0.985 . S
H1312 N1307 0.984 . S
H1313 N1307 0.985 . S
H1314 N1311 0.984 . S
H1315 N1311 0.985 . S
H1316 N1310 0.984 . S
H1317 N1310 0.984 . S
H1318 N1306 0.984 . S
H1319 N1306 0.985 . S
C1320 C1321 1.363 . S
C1320 C1326 1.379 . S
C1320 N1328 1.356 . S
C1321 C1320 1.363 . S
C1321 C1327 1.363 . S
C1322 C1323 1.363 . S
C1322 C1327 1.379 . S
C1322 N1329 1.356 . S
C1323 C1322 1.363 . S
C1323 C1326 1.363 . S
N1324 C1326 1.356 . S
N1324 H1336 0.984 . S
N1324 H1337 0.985 . S
N1325 C1327 1.356 . S
N1325 H1330 0.984 . S
N1325 H1331 0.985 . S
C1326 C1320 1.379 . S
C1326 C1323 1.363 . S
C1326 N1324 1.356 . S
C1327 C1321 1.363 . S
C1327 C1322 1.379 . S
C1327 N1325 1.356 . S
N1328 C1320 1.356 . S
N1328 H1334 0.984 . S
N1328 H1335 0.984 . S
N1329 C1322 1.356 . S
N1329 H1332 0.984 . S
N1329 H1333 0.985 . S
H1330 N1325 0.984 . S
H1331 N1325 0.985 . S
H1332 N1329 0.984 . S
H1333 N1329 0.985 . S
H1334 N1328 0.984 . S
H1335 N1328 0.984 . S
H1336 N1324 0.984 . S
H1337 N1324 0.985 . S
C1338 C1339 1.363 . S
C1338 C1344 1.379 . S
C1338 N1346 1.356 . S
C1339 C1338 1.363 . S
C1339 C1345 1.363 . S
C1340 C1341 1.363 . S
C1340 C1345 1.379 . S
C1340 N1347 1.356 . S
C1341 C1340 1.363 . S
C1341 C1344 1.363 . S
N1342 C1344 1.356 . S
N1342 H1354 0.984 . S
N1342 H1355 0.985 . S
N1343 C1345 1.356 . S
N1343 H1348 0.984 . S
N1343 H1349 0.985 . S
C1344 C1338 1.379 . S
C1344 C1341 1.363 . S
C1344 N1342 1.356 . S
C1345 C1339 1.363 . S
C1345 C1340 1.379 . S
C1345 N1343 1.356 . S
N1346 C1338 1.356 . S
N1346 H1352 0.984 . S
N1346 H1353 0.984 . S
N1347 C1340 1.356 . S
N1347 H1350 0.984 . S
N1347 H1351 0.985 . S
H1348 N1343 0.984 . S
H1349 N1343 0.985 . S
H1350 N1347 0.984 . S
H1351 N1347 0.985 . S
H1352 N1346 0.984 . S
H1353 N1346 0.984 . S
H1354 N1342 0.984 . S
H1355 N1342 0.985 . S
C1356 C1357 1.363 . S
C1356 C1362 1.379 . S
C1356 N1364 1.356 . S
C1357 C1356 1.363 . S
C1357 C1363 1.363 . S
C1358 C1359 1.363 . S
C1358 C1363 1.379 . S
C1358 N1365 1.356 . S
C1359 C1358 1.363 . S
C1359 C1362 1.363 . S
N1360 C1362 1.356 . S
N1360 H1372 0.984 . S
N1360 H1373 0.985 . S
N1361 C1363 1.356 . S
N1361 H1366 0.984 . S
N1361 H1367 0.985 . S
C1362 C1356 1.379 . S
C1362 C1359 1.363 . S
C1362 N1360 1.356 . S
C1363 C1357 1.363 . S
C1363 C1358 1.379 . S
C1363 N1361 1.356 . S
N1364 C1356 1.356 . S
N1364 H1370 0.984 . S
N1364 H1371 0.984 . S
N1365 C1358 1.356 . S
N1365 H1368 0.984 . S
N1365 H1369 0.985 . S
H1366 N1361 0.984 . S
H1367 N1361 0.985 . S
H1368 N1365 0.984 . S
H1369 N1365 0.985 . S
H1370 N1364 0.984 . S
H1371 N1364 0.984 . S
H1372 N1360 0.984 . S
H1373 N1360 0.985 . S
C1374 C1375 1.363 . S
C1374 C1380 1.379 . S
C1374 N1382 1.356 . S
C1375 C1374 1.363 . S
C1375 C1381 1.363 . S
C1376 C1377 1.363 . S
C1376 C1381 1.379 . S
C1376 N1383 1.356 . S
C1377 C1376 1.363 . S
C1377 C1380 1.363 . S
N1378 C1380 1.356 . S
N1378 H1390 0.984 . S
N1378 H1391 0.985 . S
N1379 C1381 1.356 . S
N1379 H1384 0.984 . S
N1379 H1385 0.985 . S
C1380 C1374 1.379 . S
C1380 C1377 1.363 . S
C1380 N1378 1.356 . S
C1381 C1375 1.363 . S
C1381 C1376 1.379 . S
C1381 N1379 1.356 . S
N1382 C1374 1.356 . S
N1382 H1388 0.984 . S
N1382 H1389 0.984 . S
N1383 C1376 1.356 . S
N1383 H1386 0.984 . S
N1383 H1387 0.985 . S
H1384 N1379 0.984 . S
H1385 N1379 0.985 . S
H1386 N1383 0.984 . S
H1387 N1383 0.985 . S
H1388 N1382 0.984 . S
H1389 N1382 0.984 . S
H1390 N1378 0.984 . S
H1391 N1378 0.985 . S
C1392 C1393 1.363 . S
C1392 C1398 1.379 . S
C1392 N1400 1.356 . S
C1393 C1392 1.363 . S
C1393 C1399 1.363 . S
C1394 C1395 1.363 . S
C1394 C1399 1.379 . S
C1394 N1401 1.356 . S
C1395 C1394 1.363 . S
C1395 C1398 1.363 . S
N1396 C1398 1.356 . S
N1396 H1408 0.984 . S
N1396 H1409 0.985 . S
N1397 C1399 1.356 . S
N1397 H1402 0.984 . S
N1397 H1403 0.985 . S
C1398 C1392 1.379 . S
C1398 C1395 1.363 . S
C1398 N1396 1.356 . S
C1399 C1393 1.363 . S
C1399 C1394 1.379 . S
C1399 N1397 1.356 . S
N1400 C1392 1.356 . S
N1400 H1406 0.984 . S
N1400 H1407 0.984 . S
N1401 C1394 1.356 . S
N1401 H1404 0.984 . S
N1401 H1405 0.985 . S
H1402 N1397 0.984 . S
H1403 N1397 0.985 . S
H1404 N1401 0.984 . S
H1405 N1401 0.985 . S
H1406 N1400 0.984 . S
H1407 N1400 0.984 . S
H1408 N1396 0.984 . S
H1409 N1396 0.985 . S
C1410 C1411 1.363 . S
C1410 C1416 1.379 . S
C1410 N1418 1.356 . S
C1411 C1410 1.363 . S
C1411 C1417 1.363 . S
C1412 C1413 1.363 . S
C1412 C1417 1.379 . S
C1412 N1419 1.356 . S
C1413 C1412 1.363 . S
C1413 C1416 1.363 . S
N1414 C1416 1.356 . S
N1414 H1426 0.984 . S
N1414 H1427 0.985 . S
N1415 C1417 1.356 . S
N1415 H1420 0.984 . S
N1415 H1421 0.985 . S
C1416 C1410 1.379 . S
C1416 C1413 1.363 . S
C1416 N1414 1.356 . S
C1417 C1411 1.363 . S
C1417 C1412 1.379 . S
C1417 N1415 1.356 . S
N1418 C1410 1.356 . S
N1418 H1424 0.984 . S
N1418 H1425 0.984 . S
N1419 C1412 1.356 . S
N1419 H1422 0.984 . S
N1419 H1423 0.985 . S
H1420 N1415 0.984 . S
H1421 N1415 0.985 . S
H1422 N1419 0.984 . S
H1423 N1419 0.985 . S
H1424 N1418 0.984 . S
H1425 N1418 0.984 . S
H1426 N1414 0.984 . S
H1427 N1414 0.985 . S
C1428 C1429 1.363 . S
C1428 C1434 1.379 . S
C1428 N1436 1.356 . S
C1429 C1428 1.363 . S
C1429 C1435 1.363 . S
C1430 C1431 1.363 . S
C1430 C1435 1.379 . S
C1430 N1437 1.356 . S
C1431 C1430 1.363 . S
C1431 C1434 1.363 . S
N1432 C1434 1.356 . S
N1432 H1444 0.984 . S
N1432 H1445 0.985 . S
N1433 C1435 1.356 . S
N1433 H1438 0.984 . S
N1433 H1439 0.985 . S
C1434 C1428 1.379 . S
C1434 C1431 1.363 . S
C1434 N1432 1.356 . S
C1435 C1429 1.363 . S
C1435 C1430 1.379 . S
C1435 N1433 1.356 . S
N1436 C1428 1.356 . S
N1436 H1442 0.984 . S
N1436 H1443 0.984 . S
N1437 C1430 1.356 . S
N1437 H1440 0.984 . S
N1437 H1441 0.985 . S
H1438 N1433 0.984 . S
H1439 N1433 0.985 . S
H1440 N1437 0.984 . S
H1441 N1437 0.985 . S
H1442 N1436 0.984 . S
H1443 N1436 0.984 . S
H1444 N1432 0.984 . S
H1445 N1432 0.985 . S
C1446 C1447 1.363 . S
C1446 C1452 1.379 . S
C1446 N1454 1.356 . S
C1447 C1446 1.363 . S
C1447 C1453 1.363 . S
C1448 C1449 1.363 . S
C1448 C1453 1.379 . S
C1448 N1455 1.356 . S
C1449 C1448 1.363 . S
C1449 C1452 1.363 . S
N1450 C1452 1.356 . S
N1450 H1462 0.984 . S
N1450 H1463 0.985 . S
N1451 C1453 1.356 . S
N1451 H1456 0.984 . S
N1451 H1457 0.985 . S
C1452 C1446 1.379 . S
C1452 C1449 1.363 . S
C1452 N1450 1.356 . S
C1453 C1447 1.363 . S
C1453 C1448 1.379 . S
C1453 N1451 1.356 . S
N1454 C1446 1.356 . S
N1454 H1460 0.984 . S
N1454 H1461 0.984 . S
N1455 C1448 1.356 . S
N1455 H1458 0.984 . S
N1455 H1459 0.985 . S
H1456 N1451 0.984 . S
H1457 N1451 0.985 . S
H1458 N1455 0.984 . S
H1459 N1455 0.985 . S
H1460 N1454 0.984 . S
H1461 N1454 0.984 . S
H1462 N1450 0.984 . S
H1463 N1450 0.985 . S
C1464 C1465 1.363 . S
C1464 C1470 1.379 . S
C1464 N1472 1.356 . S
C1465 C1464 1.363 . S
C1465 C1471 1.363 . S
C1466 C1467 1.363 . S
C1466 C1471 1.379 . S
C1466 N1473 1.356 . S
C1467 C1466 1.363 . S
C1467 C1470 1.363 . S
N1468 C1470 1.356 . S
N1468 H1480 0.984 . S
N1468 H1481 0.985 . S
N1469 C1471 1.356 . S
N1469 H1474 0.984 . S
N1469 H1475 0.985 . S
C1470 C1464 1.379 . S
C1470 C1467 1.363 . S
C1470 N1468 1.356 . S
C1471 C1465 1.363 . S
C1471 C1466 1.379 . S
C1471 N1469 1.356 . S
N1472 C1464 1.356 . S
N1472 H1478 0.984 . S
N1472 H1479 0.984 . S
N1473 C1466 1.356 . S
N1473 H1476 0.984 . S
N1473 H1477 0.985 . S
H1474 N1469 0.984 . S
H1475 N1469 0.985 . S
H1476 N1473 0.984 . S
H1477 N1473 0.985 . S
H1478 N1472 0.984 . S
H1479 N1472 0.984 . S
H1480 N1468 0.984 . S
H1481 N1468 0.985 . S
C1482 C1483 1.363 . S
C1482 C1488 1.379 . S
C1482 N1490 1.356 . S
C1483 C1482 1.363 . S
C1483 C1489 1.363 . S
C1484 C1485 1.363 . S
C1484 C1489 1.379 . S
C1484 N1491 1.356 . S
C1485 C1484 1.363 . S
C1485 C1488 1.363 . S
N1486 C1488 1.356 . S
N1486 H1498 0.984 . S
N1486 H1499 0.985 . S
N1487 C1489 1.356 . S
N1487 H1492 0.984 . S
N1487 H1493 0.985 . S
C1488 C1482 1.379 . S
C1488 C1485 1.363 . S
C1488 N1486 1.356 . S
C1489 C1483 1.363 . S
C1489 C1484 1.379 . S
C1489 N1487 1.356 . S
N1490 C1482 1.356 . S
N1490 H1496 0.984 . S
N1490 H1497 0.984 . S
N1491 C1484 1.356 . S
N1491 H1494 0.984 . S
N1491 H1495 0.985 . S
H1492 N1487 0.984 . S
H1493 N1487 0.985 . S
H1494 N1491 0.984 . S
H1495 N1491 0.985 . S
H1496 N1490 0.984 . S
H1497 N1490 0.984 . S
H1498 N1486 0.984 . S
H1499 N1486 0.985 . S
C1500 C1501 1.363 . S
C1500 C1506 1.379 . S
C1500 N1508 1.356 . S
C1501 C1500 1.363 . S
C1501 C1507 1.363 . S
C1502 C1503 1.363 . S
C1502 C1507 1.379 . S
C1502 N1509 1.356 . S
C1503 C1502 1.363 . S
C1503 C1506 1.363 . S
N1504 C1506 1.356 . S
N1504 H1516 0.984 . S
N1504 H1517 0.985 . S
N1505 C1507 1.356 . S
N1505 H1510 0.984 . S
N1505 H1511 0.985 . S
C1506 C1500 1.379 . S
C1506 C1503 1.363 . S
C1506 N1504 1.356 . S
C1507 C1501 1.363 . S
C1507 C1502 1.379 . S
C1507 N1505 1.356 . S
N1508 C1500 1.356 . S
N1508 H1514 0.984 . S
N1508 H1515 0.984 . S
N1509 C1502 1.356 . S
N1509 H1512 0.984 . S
N1509 H1513 0.985 . S
H1510 N1505 0.984 . S
H1511 N1505 0.985 . S
H1512 N1509 0.984 . S
H1513 N1509 0.985 . S
H1514 N1508 0.984 . S
H1515 N1508 0.984 . S
H1516 N1504 0.984 . S
H1517 N1504 0.985 . S
C1518 C1519 1.363 . S
C1518 C1524 1.379 . S
C1518 N1526 1.356 . S
C1519 C1518 1.363 . S
C1519 C1525 1.363 . S
C1520 C1521 1.363 . S
C1520 C1525 1.379 . S
C1520 N1527 1.356 . S
C1521 C1520 1.363 . S
C1521 C1524 1.363 . S
N1522 C1524 1.356 . S
N1522 H1534 0.984 . S
N1522 H1535 0.985 . S
N1523 C1525 1.356 . S
N1523 H1528 0.984 . S
N1523 H1529 0.985 . S
C1524 C1518 1.379 . S
C1524 C1521 1.363 . S
C1524 N1522 1.356 . S
C1525 C1519 1.363 . S
C1525 C1520 1.379 . S
C1525 N1523 1.356 . S
N1526 C1518 1.356 . S
N1526 H1532 0.984 . S
N1526 H1533 0.984 . S
N1527 C1520 1.356 . S
N1527 H1530 0.984 . S
N1527 H1531 0.985 . S
H1528 N1523 0.984 . S
H1529 N1523 0.985 . S
H1530 N1527 0.984 . S
H1531 N1527 0.985 . S
H1532 N1526 0.984 . S
H1533 N1526 0.984 . S
H1534 N1522 0.984 . S
H1535 N1522 0.985 . S
C1536 C1537 1.363 . S
C1536 C1542 1.379 . S
C1536 N1544 1.356 . S
C1537 C1536 1.363 . S
C1537 C1543 1.363 . S
C1538 C1539 1.363 . S
C1538 C1543 1.379 . S
C1538 N1545 1.356 . S
C1539 C1538 1.363 . S
C1539 C1542 1.363 . S
N1540 C1542 1.356 . S
N1540 H1552 0.984 . S
N1540 H1553 0.985 . S
N1541 C1543 1.356 . S
N1541 H1546 0.984 . S
N1541 H1547 0.985 . S
C1542 C1536 1.379 . S
C1542 C1539 1.363 . S
C1542 N1540 1.356 . S
C1543 C1537 1.363 . S
C1543 C1538 1.379 . S
C1543 N1541 1.356 . S
N1544 C1536 1.356 . S
N1544 H1550 0.984 . S
N1544 H1551 0.984 . S
N1545 C1538 1.356 . S
N1545 H1548 0.984 . S
N1545 H1549 0.985 . S
H1546 N1541 0.984 . S
H1547 N1541 0.985 . S
H1548 N1545 0.984 . S
H1549 N1545 0.985 . S
H1550 N1544 0.984 . S
H1551 N1544 0.984 . S
H1552 N1540 0.984 . S
H1553 N1540 0.985 . S
C1554 C1555 1.363 . S
C1554 C1560 1.379 . S
C1554 N1562 1.356 . S
C1555 C1554 1.363 . S
C1555 C1561 1.363 . S
C1556 C1557 1.363 . S
C1556 C1561 1.379 . S
C1556 N1563 1.356 . S
C1557 C1556 1.363 . S
C1557 C1560 1.363 . S
N1558 C1560 1.356 . S
N1558 H1570 0.984 . S
N1558 H1571 0.985 . S
N1559 C1561 1.356 . S
N1559 H1564 0.984 . S
N1559 H1565 0.985 . S
C1560 C1554 1.379 . S
C1560 C1557 1.363 . S
C1560 N1558 1.356 . S
C1561 C1555 1.363 . S
C1561 C1556 1.379 . S
C1561 N1559 1.356 . S
N1562 C1554 1.356 . S
N1562 H1568 0.984 . S
N1562 H1569 0.984 . S
N1563 C1556 1.356 . S
N1563 H1566 0.984 . S
N1563 H1567 0.985 . S
H1564 N1559 0.984 . S
H1565 N1559 0.985 . S
H1566 N1563 0.984 . S
H1567 N1563 0.985 . S
H1568 N1562 0.984 . S
H1569 N1562 0.984 . S
H1570 N1558 0.984 . S
H1571 N1558 0.985 . S
C1572 C1573 1.363 . S
C1572 C1578 1.379 . S
C1572 N1580 1.356 . S
C1573 C1572 1.363 . S
C1573 C1579 1.363 . S
C1574 C1575 1.363 . S
C1574 C1579 1.379 . S
C1574 N1581 1.356 . S
C1575 C1574 1.363 . S
C1575 C1578 1.363 . S
N1576 C1578 1.356 . S
N1576 H1588 0.984 . S
N1576 H1589 0.985 . S
N1577 C1579 1.356 . S
N1577 H1582 0.984 . S
N1577 H1583 0.985 . S
C1578 C1572 1.379 . S
C1578 C1575 1.363 . S
C1578 N1576 1.356 . S
C1579 C1573 1.363 . S
C1579 C1574 1.379 . S
C1579 N1577 1.356 . S
N1580 C1572 1.356 . S
N1580 H1586 0.984 . S
N1580 H1587 0.984 . S
N1581 C1574 1.356 . S
N1581 H1584 0.984 . S
N1581 H1585 0.985 . S
H1582 N1577 0.984 . S
H1583 N1577 0.985 . S
H1584 N1581 0.984 . S
H1585 N1581 0.985 . S
H1586 N1580 0.984 . S
H1587 N1580 0.984 . S
H1588 N1576 0.984 . S
H1589 N1576 0.985 . S
C1590 C1591 1.363 . S
C1590 C1596 1.379 . S
C1590 N1598 1.356 . S
C1591 C1590 1.363 . S
C1591 C1597 1.363 . S
C1592 C1593 1.363 . S
C1592 C1597 1.379 . S
C1592 N1599 1.356 . S
C1593 C1592 1.363 . S
C1593 C1596 1.363 . S
N1594 C1596 1.356 . S
N1594 H1606 0.984 . S
N1594 H1607 0.985 . S
N1595 C1597 1.356 . S
N1595 H1600 0.984 . S
N1595 H1601 0.985 . S
C1596 C1590 1.379 . S
C1596 C1593 1.363 . S
C1596 N1594 1.356 . S
C1597 C1591 1.363 . S
C1597 C1592 1.379 . S
C1597 N1595 1.356 . S
N1598 C1590 1.356 . S
N1598 H1604 0.984 . S
N1598 H1605 0.984 . S
N1599 C1592 1.356 . S
N1599 H1602 0.984 . S
N1599 H1603 0.985 . S
H1600 N1595 0.984 . S
H1601 N1595 0.985 . S
H1602 N1599 0.984 . S
H1603 N1599 0.985 . S
H1604 N1598 0.984 . S
H1605 N1598 0.984 . S
H1606 N1594 0.984 . S
H1607 N1594 0.985 . S
C1608 C1609 1.363 . S
C1608 C1614 1.379 . S
C1608 N1616 1.356 . S
C1609 C1608 1.363 . S
C1609 C1615 1.363 . S
C1610 C1611 1.363 . S
C1610 C1615 1.379 . S
C1610 N1617 1.356 . S
C1611 C1610 1.363 . S
C1611 C1614 1.363 . S
N1612 C1614 1.356 . S
N1612 H1624 0.984 . S
N1612 H1625 0.985 . S
N1613 C1615 1.356 . S
N1613 H1618 0.984 . S
N1613 H1619 0.985 . S
C1614 C1608 1.379 . S
C1614 C1611 1.363 . S
C1614 N1612 1.356 . S
C1615 C1609 1.363 . S
C1615 C1610 1.379 . S
C1615 N1613 1.356 . S
N1616 C1608 1.356 . S
N1616 H1622 0.984 . S
N1616 H1623 0.984 . S
N1617 C1610 1.356 . S
N1617 H1620 0.984 . S
N1617 H1621 0.985 . S
H1618 N1613 0.984 . S
H1619 N1613 0.985 . S
H1620 N1617 0.984 . S
H1621 N1617 0.985 . S
H1622 N1616 0.984 . S
H1623 N1616 0.984 . S
H1624 N1612 0.984 . S
H1625 N1612 0.985 . S
C1626 C1627 1.363 . S
C1626 C1632 1.379 . S
C1626 N1634 1.356 . S
C1627 C1626 1.363 . S
C1627 C1633 1.363 . S
C1628 C1629 1.363 . S
C1628 C1633 1.379 . S
C1628 N1635 1.356 . S
C1629 C1628 1.363 . S
C1629 C1632 1.363 . S
N1630 C1632 1.356 . S
N1630 H1642 0.984 . S
N1630 H1643 0.985 . S
N1631 C1633 1.356 . S
N1631 H1636 0.984 . S
N1631 H1637 0.985 . S
C1632 C1626 1.379 . S
C1632 C1629 1.363 . S
C1632 N1630 1.356 . S
C1633 C1627 1.363 . S
C1633 C1628 1.379 . S
C1633 N1631 1.356 . S
N1634 C1626 1.356 . S
N1634 H1640 0.984 . S
N1634 H1641 0.984 . S
N1635 C1628 1.356 . S
N1635 H1638 0.984 . S
N1635 H1639 0.985 . S
H1636 N1631 0.984 . S
H1637 N1631 0.985 . S
H1638 N1635 0.984 . S
H1639 N1635 0.985 . S
H1640 N1634 0.984 . S
H1641 N1634 0.984 . S
H1642 N1630 0.984 . S
H1643 N1630 0.985 . S
C1644 C1645 1.363 . S
C1644 C1650 1.379 . S
C1644 N1652 1.356 . S
C1645 C1644 1.363 . S
C1645 C1651 1.363 . S
C1646 C1647 1.363 . S
C1646 C1651 1.379 . S
C1646 N1653 1.356 . S
C1647 C1646 1.363 . S
C1647 C1650 1.363 . S
N1648 C1650 1.356 . S
N1648 H1660 0.984 . S
N1648 H1661 0.985 . S
N1649 C1651 1.356 . S
N1649 H1654 0.984 . S
N1649 H1655 0.985 . S
C1650 C1644 1.379 . S
C1650 C1647 1.363 . S
C1650 N1648 1.356 . S
C1651 C1645 1.363 . S
C1651 C1646 1.379 . S
C1651 N1649 1.356 . S
N1652 C1644 1.356 . S
N1652 H1658 0.984 . S
N1652 H1659 0.984 . S
N1653 C1646 1.356 . S
N1653 H1656 0.984 . S
N1653 H1657 0.985 . S
H1654 N1649 0.984 . S
H1655 N1649 0.985 . S
H1656 N1653 0.984 . S
H1657 N1653 0.985 . S
H1658 N1652 0.984 . S
H1659 N1652 0.984 . S
H1660 N1648 0.984 . S
H1661 N1648 0.985 . S
C1662 C1663 1.363 . S
C1662 C1668 1.379 . S
C1662 N1670 1.356 . S
C1663 C1662 1.363 . S
C1663 C1669 1.363 . S
C1664 C1665 1.363 . S
C1664 C1669 1.379 . S
C1664 N1671 1.356 . S
C1665 C1664 1.363 . S
C1665 C1668 1.363 . S
N1666 C1668 1.356 . S
N1666 H1678 0.984 . S
N1666 H1679 0.985 . S
N1667 C1669 1.356 . S
N1667 H1672 0.984 . S
N1667 H1673 0.985 . S
C1668 C1662 1.379 . S
C1668 C1665 1.363 . S
C1668 N1666 1.356 . S
C1669 C1663 1.363 . S
C1669 C1664 1.379 . S
C1669 N1667 1.356 . S
N1670 C1662 1.356 . S
N1670 H1676 0.984 . S
N1670 H1677 0.984 . S
N1671 C1664 1.356 . S
N1671 H1674 0.984 . S
N1671 H1675 0.985 . S
H1672 N1667 0.984 . S
H1673 N1667 0.985 . S
H1674 N1671 0.984 . S
H1675 N1671 0.985 . S
H1676 N1670 0.984 . S
H1677 N1670 0.984 . S
H1678 N1666 0.984 . S
H1679 N1666 0.985 . S
C1680 C1681 1.363 . S
C1680 C1686 1.379 . S
C1680 N1688 1.356 . S
C1681 C1680 1.363 . S
C1681 C1687 1.363 . S
C1682 C1683 1.363 . S
C1682 C1687 1.379 . S
C1682 N1689 1.356 . S
C1683 C1682 1.363 . S
C1683 C1686 1.363 . S
N1684 C1686 1.356 . S
N1684 H1696 0.984 . S
N1684 H1697 0.985 . S
N1685 C1687 1.356 . S
N1685 H1690 0.984 . S
N1685 H1691 0.985 . S
C1686 C1680 1.379 . S
C1686 C1683 1.363 . S
C1686 N1684 1.356 . S
C1687 C1681 1.363 . S
C1687 C1682 1.379 . S
C1687 N1685 1.356 . S
N1688 C1680 1.356 . S
N1688 H1694 0.984 . S
N1688 H1695 0.984 . S
N1689 C1682 1.356 . S
N1689 H1692 0.984 . S
N1689 H1693 0.985 . S
H1690 N1685 0.984 . S
H1691 N1685 0.985 . S
H1692 N1689 0.984 . S
H1693 N1689 0.985 . S
H1694 N1688 0.984 . S
H1695 N1688 0.984 . S
H1696 N1684 0.984 . S
H1697 N1684 0.985 . S
C1698 C1699 1.363 . S
C1698 C1704 1.379 . S
C1698 N1706 1.356 . S
C1699 C1698 1.363 . S
C1699 C1705 1.363 . S
C1700 C1701 1.363 . S
C1700 C1705 1.379 . S
C1700 N1707 1.356 . S
C1701 C1700 1.363 . S
C1701 C1704 1.363 . S
N1702 C1704 1.356 . S
N1702 H1714 0.984 . S
N1702 H1715 0.985 . S
N1703 C1705 1.356 . S
N1703 H1708 0.984 . S
N1703 H1709 0.985 . S
C1704 C1698 1.379 . S
C1704 C1701 1.363 . S
C1704 N1702 1.356 . S
C1705 C1699 1.363 . S
C1705 C1700 1.379 . S
C1705 N1703 1.356 . S
N1706 C1698 1.356 . S
N1706 H1712 0.984 . S
N1706 H1713 0.984 . S
N1707 C1700 1.356 . S
N1707 H1710 0.984 . S
N1707 H1711 0.985 . S
H1708 N1703 0.984 . S
H1709 N1703 0.985 . S
H1710 N1707 0.984 . S
H1711 N1707 0.985 . S
H1712 N1706 0.984 . S
H1713 N1706 0.984 . S
H1714 N1702 0.984 . S
H1715 N1702 0.985 . S
C1716 C1717 1.363 . S
C1716 C1722 1.379 . S
C1716 N1724 1.356 . S
C1717 C1716 1.363 . S
C1717 C1723 1.363 . S
C1718 C1719 1.363 . S
C1718 C1723 1.379 . S
C1718 N1725 1.356 . S
C1719 C1718 1.363 . S
C1719 C1722 1.363 . S
N1720 C1722 1.356 . S
N1720 H1732 0.984 . S
N1720 H1733 0.985 . S
N1721 C1723 1.356 . S
N1721 H1726 0.984 . S
N1721 H1727 0.985 . S
C1722 C1716 1.379 . S
C1722 C1719 1.363 . S
C1722 N1720 1.356 . S
C1723 C1717 1.363 . S
C1723 C1718 1.379 . S
C1723 N1721 1.356 . S
N1724 C1716 1.356 . S
N1724 H1730 0.984 . S
N1724 H1731 0.984 . S
N1725 C1718 1.356 . S
N1725 H1728 0.984 . S
N1725 H1729 0.985 . S
H1726 N1721 0.984 . S
H1727 N1721 0.985 . S
H1728 N1725 0.984 . S
H1729 N1725 0.985 . S
H1730 N1724 0.984 . S
H1731 N1724 0.984 . S
H1732 N1720 0.984 . S
H1733 N1720 0.985 . S
C1734 C1735 1.363 . S
C1734 C1740 1.379 . S
C1734 N1742 1.356 . S
C1735 C1734 1.363 . S
C1735 C1741 1.363 . S
C1736 C1737 1.363 . S
C1736 C1741 1.379 . S
C1736 N1743 1.356 . S
C1737 C1736 1.363 . S
C1737 C1740 1.363 . S
N1738 C1740 1.356 . S
N1738 H1750 0.984 . S
N1738 H1751 0.985 . S
N1739 C1741 1.356 . S
N1739 H1744 0.984 . S
N1739 H1745 0.985 . S
C1740 C1734 1.379 . S
C1740 C1737 1.363 . S
C1740 N1738 1.356 . S
C1741 C1735 1.363 . S
C1741 C1736 1.379 . S
C1741 N1739 1.356 . S
N1742 C1734 1.356 . S
N1742 H1748 0.984 . S
N1742 H1749 0.984 . S
N1743 C1736 1.356 . S
N1743 H1746 0.984 . S
N1743 H1747 0.985 . S
H1744 N1739 0.984 . S
H1745 N1739 0.985 . S
H1746 N1743 0.984 . S
H1747 N1743 0.985 . S
H1748 N1742 0.984 . S
H1749 N1742 0.984 . S
H1750 N1738 0.984 . S
H1751 N1738 0.985 . S
C1752 C1753 1.363 . S
C1752 C1758 1.379 . S
C1752 N1760 1.356 . S
C1753 C1752 1.363 . S
C1753 C1759 1.363 . S
C1754 C1755 1.363 . S
C1754 C1759 1.379 . S
C1754 N1761 1.356 . S
C1755 C1754 1.363 . S
C1755 C1758 1.363 . S
N1756 C1758 1.356 . S
N1756 H1768 0.984 . S
N1756 H1769 0.985 . S
N1757 C1759 1.356 . S
N1757 H1762 0.984 . S
N1757 H1763 0.985 . S
C1758 C1752 1.379 . S
C1758 C1755 1.363 . S
C1758 N1756 1.356 . S
C1759 C1753 1.363 . S
C1759 C1754 1.379 . S
C1759 N1757 1.356 . S
N1760 C1752 1.356 . S
N1760 H1766 0.984 . S
N1760 H1767 0.984 . S
N1761 C1754 1.356 . S
N1761 H1764 0.984 . S
N1761 H1765 0.985 . S
H1762 N1757 0.984 . S
H1763 N1757 0.985 . S
H1764 N1761 0.984 . S
H1765 N1761 0.985 . S
H1766 N1760 0.984 . S
H1767 N1760 0.984 . S
H1768 N1756 0.984 . S
H1769 N1756 0.985 . S
C1770 C1771 1.363 . S
C1770 C1776 1.379 . S
C1770 N1778 1.356 . S
C1771 C1770 1.363 . S
C1771 C1777 1.363 . S
C1772 C1773 1.363 . S
C1772 C1777 1.379 . S
C1772 N1779 1.356 . S
C1773 C1772 1.363 . S
C1773 C1776 1.363 . S
N1774 C1776 1.356 . S
N1774 H1786 0.984 . S
N1774 H1787 0.985 . S
N1775 C1777 1.356 . S
N1775 H1780 0.984 . S
N1775 H1781 0.985 . S
C1776 C1770 1.379 . S
C1776 C1773 1.363 . S
C1776 N1774 1.356 . S
C1777 C1771 1.363 . S
C1777 C1772 1.379 . S
C1777 N1775 1.356 . S
N1778 C1770 1.356 . S
N1778 H1784 0.984 . S
N1778 H1785 0.984 . S
N1779 C1772 1.356 . S
N1779 H1782 0.984 . S
N1779 H1783 0.985 . S
H1780 N1775 0.984 . S
H1781 N1775 0.985 . S
H1782 N1779 0.984 . S
H1783 N1779 0.985 . S
H1784 N1778 0.984 . S
H1785 N1778 0.984 . S
H1786 N1774 0.984 . S
H1787 N1774 0.985 . S
C1788 C1789 1.363 . S
C1788 C1794 1.379 . S
C1788 N1796 1.356 . S
C1789 C1788 1.363 . S
C1789 C1795 1.363 . S
C1790 C1791 1.363 . S
C1790 C1795 1.379 . S
C1790 N1797 1.356 . S
C1791 C1790 1.363 . S
C1791 C1794 1.363 . S
N1792 C1794 1.356 . S
N1792 H1804 0.984 . S
N1792 H1805 0.985 . S
N1793 C1795 1.356 . S
N1793 H1798 0.984 . S
N1793 H1799 0.985 . S
C1794 C1788 1.379 . S
C1794 C1791 1.363 . S
C1794 N1792 1.356 . S
C1795 C1789 1.363 . S
C1795 C1790 1.379 . S
C1795 N1793 1.356 . S
N1796 C1788 1.356 . S
N1796 H1802 0.984 . S
N1796 H1803 0.984 . S
N1797 C1790 1.356 . S
N1797 H1800 0.984 . S
N1797 H1801 0.985 . S
H1798 N1793 0.984 . S
H1799 N1793 0.985 . S
H1800 N1797 0.984 . S
H1801 N1797 0.985 . S
H1802 N1796 0.984 . S
H1803 N1796 0.984 . S
H1804 N1792 0.984 . S
H1805 N1792 0.985 . S
C1806 C1807 1.363 . S
C1806 C1812 1.379 . S
C1806 N1814 1.356 . S
C1807 C1806 1.363 . S
C1807 C1813 1.363 . S
C1808 C1809 1.363 . S
C1808 C1813 1.379 . S
C1808 N1815 1.356 . S
C1809 C1808 1.363 . S
C1809 C1812 1.363 . S
N1810 C1812 1.356 . S
N1810 H1822 0.984 . S
N1810 H1823 0.985 . S
N1811 C1813 1.356 . S
N1811 H1816 0.984 . S
N1811 H1817 0.985 . S
C1812 C1806 1.379 . S
C1812 C1809 1.363 . S
C1812 N1810 1.356 . S
C1813 C1807 1.363 . S
C1813 C1808 1.379 . S
C1813 N1811 1.356 . S
N1814 C1806 1.356 . S
N1814 H1820 0.984 . S
N1814 H1821 0.984 . S
N1815 C1808 1.356 . S
N1815 H1818 0.984 . S
N1815 H1819 0.985 . S
H1816 N1811 0.984 . S
H1817 N1811 0.985 . S
H1818 N1815 0.984 . S
H1819 N1815 0.985 . S
H1820 N1814 0.984 . S
H1821 N1814 0.984 . S
H1822 N1810 0.984 . S
H1823 N1810 0.985 . S
C1824 C1825 1.363 . S
C1824 C1830 1.379 . S
C1824 N1832 1.356 . S
C1825 C1824 1.363 . S
C1825 C1831 1.363 . S
C1826 C1827 1.363 . S
C1826 C1831 1.379 . S
C1826 N1833 1.356 . S
C1827 C1826 1.363 . S
C1827 C1830 1.363 . S
N1828 C1830 1.356 . S
N1828 H1840 0.984 . S
N1828 H1841 0.985 . S
N1829 C1831 1.356 . S
N1829 H1834 0.984 . S
N1829 H1835 0.985 . S
C1830 C1824 1.379 . S
C1830 C1827 1.363 . S
C1830 N1828 1.356 . S
C1831 C1825 1.363 . S
C1831 C1826 1.379 . S
C1831 N1829 1.356 . S
N1832 C1824 1.356 . S
N1832 H1838 0.984 . S
N1832 H1839 0.984 . S
N1833 C1826 1.356 . S
N1833 H1836 0.984 . S
N1833 H1837 0.985 . S
H1834 N1829 0.984 . S
H1835 N1829 0.985 . S
H1836 N1833 0.984 . S
H1837 N1833 0.985 . S
H1838 N1832 0.984 . S
H1839 N1832 0.984 . S
H1840 N1828 0.984 . S
H1841 N1828 0.985 . S
C1842 C1843 1.363 . S
C1842 C1848 1.379 . S
C1842 N1850 1.356 . S
C1843 C1842 1.363 . S
C1843 C1849 1.363 . S
C1844 C1845 1.363 . S
C1844 C1849 1.379 . S
C1844 N1851 1.356 . S
C1845 C1844 1.363 . S
C1845 C1848 1.363 . S
N1846 C1848 1.356 . S
N1846 H1858 0.984 . S
N1846 H1859 0.985 . S
N1847 C1849 1.356 . S
N1847 H1852 0.984 . S
N1847 H1853 0.985 . S
C1848 C1842 1.379 . S
C1848 C1845 1.363 . S
C1848 N1846 1.356 . S
C1849 C1843 1.363 . S
C1849 C1844 1.379 . S
C1849 N1847 1.356 . S
N1850 C1842 1.356 . S
N1850 H1856 0.984 . S
N1850 H1857 0.984 . S
N1851 C1844 1.356 . S
N1851 H1854 0.984 . S
N1851 H1855 0.985 . S
H1852 N1847 0.984 . S
H1853 N1847 0.985 . S
H1854 N1851 0.984 . S
H1855 N1851 0.985 . S
H1856 N1850 0.984 . S
H1857 N1850 0.984 . S
H1858 N1846 0.984 . S
H1859 N1846 0.985 . S
C1860 C1861 1.363 . S
C1860 C1866 1.379 . S
C1860 N1868 1.356 . S
C1861 C1860 1.363 . S
C1861 C1867 1.363 . S
C1862 C1863 1.363 . S
C1862 C1867 1.379 . S
C1862 N1869 1.356 . S
C1863 C1862 1.363 . S
C1863 C1866 1.363 . S
N1864 C1866 1.356 . S
N1864 H1876 0.984 . S
N1864 H1877 0.985 . S
N1865 C1867 1.356 . S
N1865 H1870 0.984 . S
N1865 H1871 0.985 . S
C1866 C1860 1.379 . S
C1866 C1863 1.363 . S
C1866 N1864 1.356 . S
C1867 C1861 1.363 . S
C1867 C1862 1.379 . S
C1867 N1865 1.356 . S
N1868 C1860 1.356 . S
N1868 H1874 0.984 . S
N1868 H1875 0.984 . S
N1869 C1862 1.356 . S
N1869 H1872 0.984 . S
N1869 H1873 0.985 . S
H1870 N1865 0.984 . S
H1871 N1865 0.985 . S
H1872 N1869 0.984 . S
H1873 N1869 0.985 . S
H1874 N1868 0.984 . S
H1875 N1868 0.984 . S
H1876 N1864 0.984 . S
H1877 N1864 0.985 . S
C1878 C1879 1.363 . S
C1878 C1884 1.379 . S
C1878 N1886 1.356 . S
C1879 C1878 1.363 . S
C1879 C1885 1.363 . S
C1880 C1881 1.363 . S
C1880 C1885 1.379 . S
C1880 N1887 1.356 . S
C1881 C1880 1.363 . S
C1881 C1884 1.363 . S
N1882 C1884 1.356 . S
N1882 H1894 0.984 . S
N1882 H1895 0.985 . S
N1883 C1885 1.356 . S
N1883 H1888 0.984 . S
N1883 H1889 0.985 . S
C1884 C1878 1.379 . S
C1884 C1881 1.363 . S
C1884 N1882 1.356 . S
C1885 C1879 1.363 . S
C1885 C1880 1.379 . S
C1885 N1883 1.356 . S
N1886 C1878 1.356 . S
N1886 H1892 0.984 . S
N1886 H1893 0.984 . S
N1887 C1880 1.356 . S
N1887 H1890 0.984 . S
N1887 H1891 0.985 . S
H1888 N1883 0.984 . S
H1889 N1883 0.985 . S
H1890 N1887 0.984 . S
H1891 N1887 0.985 . S
H1892 N1886 0.984 . S
H1893 N1886 0.984 . S
H1894 N1882 0.984 . S
H1895 N1882 0.985 . S
C1896 C1897 1.363 . S
C1896 C1902 1.379 . S
C1896 N1904 1.356 . S
C1897 C1896 1.363 . S
C1897 C1903 1.363 . S
C1898 C1899 1.363 . S
C1898 C1903 1.379 . S
C1898 N1905 1.356 . S
C1899 C1898 1.363 . S
C1899 C1902 1.363 . S
N1900 C1902 1.356 . S
N1900 H1912 0.984 . S
N1900 H1913 0.985 . S
N1901 C1903 1.356 . S
N1901 H1906 0.984 . S
N1901 H1907 0.985 . S
C1902 C1896 1.379 . S
C1902 C1899 1.363 . S
C1902 N1900 1.356 . S
C1903 C1897 1.363 . S
C1903 C1898 1.379 . S
C1903 N1901 1.356 . S
N1904 C1896 1.356 . S
N1904 H1910 0.984 . S
N1904 H1911 0.984 . S
N1905 C1898 1.356 . S
N1905 H1908 0.984 . S
N1905 H1909 0.985 . S
H1906 N1901 0.984 . S
H1907 N1901 0.985 . S
H1908 N1905 0.984 . S
H1909 N1905 0.985 . S
H1910 N1904 0.984 . S
H1911 N1904 0.984 . S
H1912 N1900 0.984 . S
H1913 N1900 0.985 . S
C1914 C1915 1.363 . S
C1914 C1920 1.379 . S
C1914 N1922 1.356 . S
C1915 C1914 1.363 . S
C1915 C1921 1.363 . S
C1916 C1917 1.363 . S
C1916 C1921 1.379 . S
C1916 N1923 1.356 . S
C1917 C1916 1.363 . S
C1917 C1920 1.363 . S
N1918 C1920 1.356 . S
N1918 H1930 0.984 . S
N1918 H1931 0.985 . S
N1919 C1921 1.356 . S
N1919 H1924 0.984 . S
N1919 H1925 0.985 . S
C1920 C1914 1.379 . S
C1920 C1917 1.363 . S
C1920 N1918 1.356 . S
C1921 C1915 1.363 . S
C1921 C1916 1.379 . S
C1921 N1919 1.356 . S
N1922 C1914 1.356 . S
N1922 H1928 0.984 . S
N1922 H1929 0.984 . S
N1923 C1916 1.356 . S
N1923 H1926 0.984 . S
N1923 H1927 0.985 . S
H1924 N1919 0.984 . S
H1925 N1919 0.985 . S
H1926 N1923 0.984 . S
H1927 N1923 0.985 . S
H1928 N1922 0.984 . S
H1929 N1922 0.984 . S
H1930 N1918 0.984 . S
H1931 N1918 0.985 . S
C1932 C1933 1.363 . S
C1932 C1938 1.379 . S
C1932 N1940 1.356 . S
C1933 C1932 1.363 . S
C1933 C1939 1.363 . S
C1934 C1935 1.363 . S
C1934 C1939 1.379 . S
C1934 N1941 1.356 . S
C1935 C1934 1.363 . S
C1935 C1938 1.363 . S
N1936 C1938 1.356 . S
N1936 H1948 0.984 . S
N1936 H1949 0.985 . S
N1937 C1939 1.356 . S
N1937 H1942 0.984 . S
N1937 H1943 0.985 . S
C1938 C1932 1.379 . S
C1938 C1935 1.363 . S
C1938 N1936 1.356 . S
C1939 C1933 1.363 . S
C1939 C1934 1.379 . S
C1939 N1937 1.356 . S
N1940 C1932 1.356 . S
N1940 H1946 0.984 . S
N1940 H1947 0.984 . S
N1941 C1934 1.356 . S
N1941 H1944 0.984 . S
N1941 H1945 0.985 . S
H1942 N1937 0.984 . S
H1943 N1937 0.985 . S
H1944 N1941 0.984 . S
H1945 N1941 0.985 . S
H1946 N1940 0.984 . S
H1947 N1940 0.984 . S
H1948 N1936 0.984 . S
H1949 N1936 0.985 . S
C1950 C1951 1.363 . S
C1950 C1956 1.379 . S
C1950 N1958 1.356 . S
C1951 C1950 1.363 . S
C1951 C1957 1.363 . S
C1952 C1953 1.363 . S
C1952 C1957 1.379 . S
C1952 N1959 1.356 . S
C1953 C1952 1.363 . S
C1953 C1956 1.363 . S
N1954 C1956 1.356 . S
N1954 H1966 0.984 . S
N1954 H1967 0.985 . S
N1955 C1957 1.356 . S
N1955 H1960 0.984 . S
N1955 H1961 0.985 . S
C1956 C1950 1.379 . S
C1956 C1953 1.363 . S
C1956 N1954 1.356 . S
C1957 C1951 1.363 . S
C1957 C1952 1.379 . S
C1957 N1955 1.356 . S
N1958 C1950 1.356 . S
N1958 H1964 0.984 . S
N1958 H1965 0.984 . S
N1959 C1952 1.356 . S
N1959 H1962 0.984 . S
N1959 H1963 0.985 . S
H1960 N1955 0.984 . S
H1961 N1955 0.985 . S
H1962 N1959 0.984 . S
H1963 N1959 0.985 . S
H1964 N1958 0.984 . S
H1965 N1958 0.984 . S
H1966 N1954 0.984 . S
H1967 N1954 0.985 . S
C1968 C1969 1.363 . S
C1968 C1974 1.379 . S
C1968 N1976 1.356 . S
C1969 C1968 1.363 . S
C1969 C1975 1.363 . S
C1970 C1971 1.363 . S
C1970 C1975 1.379 . S
C1970 N1977 1.356 . S
C1971 C1970 1.363 . S
C1971 C1974 1.363 . S
N1972 C1974 1.356 . S
N1972 H1984 0.984 . S
N1972 H1985 0.985 . S
N1973 C1975 1.356 . S
N1973 H1978 0.984 . S
N1973 H1979 0.985 . S
C1974 C1968 1.379 . S
C1974 C1971 1.363 . S
C1974 N1972 1.356 . S
C1975 C1969 1.363 . S
C1975 C1970 1.379 . S
C1975 N1973 1.356 . S
N1976 C1968 1.356 . S
N1976 H1982 0.984 . S
N1976 H1983 0.984 . S
N1977 C1970 1.356 . S
N1977 H1980 0.984 . S
N1977 H1981 0.985 . S
H1978 N1973 0.984 . S
H1979 N1973 0.985 . S
H1980 N1977 0.984 . S
H1981 N1977 0.985 . S
H1982 N1976 0.984 . S
H1983 N1976 0.984 . S
H1984 N1972 0.984 . S
H1985 N1972 0.985 . S
C1986 C1987 1.363 . S
C1986 C1992 1.379 . S
C1986 N1994 1.356 . S
C1987 C1986 1.363 . S
C1987 C1993 1.363 . S
C1988 C1989 1.363 . S
C1988 C1993 1.379 . S
C1988 N1995 1.356 . S
C1989 C1988 1.363 . S
C1989 C1992 1.363 . S
N1990 C1992 1.356 . S
N1990 H2002 0.984 . S
N1990 H2003 0.985 . S
N1991 C1993 1.356 . S
N1991 H1996 0.984 . S
N1991 H1997 0.985 . S
C1992 C1986 1.379 . S
C1992 C1989 1.363 . S
C1992 N1990 1.356 . S
C1993 C1987 1.363 . S
C1993 C1988 1.379 . S
C1993 N1991 1.356 . S
N1994 C1986 1.356 . S
N1994 H2000 0.984 . S
N1994 H2001 0.984 . S
N1995 C1988 1.356 . S
N1995 H1998 0.984 . S
N1995 H1999 0.985 . S
H1996 N1991 0.984 . S
H1997 N1991 0.985 . S
H1998 N1995 0.984 . S
H1999 N1995 0.985 . S
H2000 N1994 0.984 . S
H2001 N1994 0.984 . S
H2002 N1990 0.984 . S
H2003 N1990 0.985 . S
C2004 C2005 1.363 . S
C2004 C2010 1.379 . S
C2004 N2012 1.356 . S
C2005 C2004 1.363 . S
C2005 C2011 1.363 . S
C2006 C2007 1.363 . S
C2006 C2011 1.379 . S
C2006 N2013 1.356 . S
C2007 C2006 1.363 . S
C2007 C2010 1.363 . S
N2008 C2010 1.356 . S
N2008 H2020 0.984 . S
N2008 H2021 0.985 . S
N2009 C2011 1.356 . S
N2009 H2014 0.984 . S
N2009 H2015 0.985 . S
C2010 C2004 1.379 . S
C2010 C2007 1.363 . S
C2010 N2008 1.356 . S
C2011 C2005 1.363 . S
C2011 C2006 1.379 . S
C2011 N2009 1.356 . S
N2012 C2004 1.356 . S
N2012 H2018 0.984 . S
N2012 H2019 0.984 . S
N2013 C2006 1.356 . S
N2013 H2016 0.984 . S
N2013 H2017 0.985 . S
H2014 N2009 0.984 . S
H2015 N2009 0.985 . S
H2016 N2013 0.984 . S
H2017 N2013 0.985 . S
H2018 N2012 0.984 . S
H2019 N2012 0.984 . S
H2020 N2008 0.984 . S
H2021 N2008 0.985 . S
C2022 C2023 1.363 . S
C2022 C2028 1.379 . S
C2022 N2030 1.356 . S
C2023 C2022 1.363 . S
C2023 C2029 1.363 . S
C2024 C2025 1.363 . S
C2024 C2029 1.379 . S
C2024 N2031 1.356 . S
C2025 C2024 1.363 . S
C2025 C2028 1.363 . S
N2026 C2028 1.356 . S
N2026 H2038 0.984 . S
N2026 H2039 0.985 . S
N2027 C2029 1.356 . S
N2027 H2032 0.984 . S
N2027 H2033 0.985 . S
C2028 C2022 1.379 . S
C2028 C2025 1.363 . S
C2028 N2026 1.356 . S
C2029 C2023 1.363 . S
C2029 C2024 1.379 . S
C2029 N2027 1.356 . S
N2030 C2022 1.356 . S
N2030 H2036 0.984 . S
N2030 H2037 0.984 . S
N2031 C2024 1.356 . S
N2031 H2034 0.984 . S
N2031 H2035 0.985 . S
H2032 N2027 0.984 . S
H2033 N2027 0.985 . S
H2034 N2031 0.984 . S
H2035 N2031 0.985 . S
H2036 N2030 0.984 . S
H2037 N2030 0.984 . S
H2038 N2026 0.984 . S
H2039 N2026 0.985 . S
C2040 C2041 1.363 . S
C2040 C2046 1.379 . S
C2040 N2048 1.356 . S
C2041 C2040 1.363 . S
C2041 C2047 1.363 . S
C2042 C2043 1.363 . S
C2042 C2047 1.379 . S
C2042 N2049 1.356 . S
C2043 C2042 1.363 . S
C2043 C2046 1.363 . S
N2044 C2046 1.356 . S
N2044 H2056 0.984 . S
N2044 H2057 0.985 . S
N2045 C2047 1.356 . S
N2045 H2050 0.984 . S
N2045 H2051 0.985 . S
C2046 C2040 1.379 . S
C2046 C2043 1.363 . S
C2046 N2044 1.356 . S
C2047 C2041 1.363 . S
C2047 C2042 1.379 . S
C2047 N2045 1.356 . S
N2048 C2040 1.356 . S
N2048 H2054 0.984 . S
N2048 H2055 0.984 . S
N2049 C2042 1.356 . S
N2049 H2052 0.984 . S
N2049 H2053 0.985 . S
H2050 N2045 0.984 . S
H2051 N2045 0.985 . S
H2052 N2049 0.984 . S
H2053 N2049 0.985 . S
H2054 N2048 0.984 . S
H2055 N2048 0.984 . S
H2056 N2044 0.984 . S
H2057 N2044 0.985 . S
C2058 C2059 1.363 . S
C2058 C2064 1.379 . S
C2058 N2066 1.356 . S
C2059 C2058 1.363 . S
C2059 C2065 1.363 . S
C2060 C2061 1.363 . S
C2060 C2065 1.379 . S
C2060 N2067 1.356 . S
C2061 C2060 1.363 . S
C2061 C2064 1.363 . S
N2062 C2064 1.356 . S
N2062 H2074 0.984 . S
N2062 H2075 0.985 . S
N2063 C2065 1.356 . S
N2063 H2068 0.984 . S
N2063 H2069 0.985 . S
C2064 C2058 1.379 . S
C2064 C2061 1.363 . S
C2064 N2062 1.356 . S
C2065 C2059 1.363 . S
C2065 C2060 1.379 . S
C2065 N2063 1.356 . S
N2066 C2058 1.356 . S
N2066 H2072 0.984 . S
N2066 H2073 0.984 . S
N2067 C2060 1.356 . S
N2067 H2070 0.984 . S
N2067 H2071 0.985 . S
H2068 N2063 0.984 . S
H2069 N2063 0.985 . S
H2070 N2067 0.984 . S
H2071 N2067 0.985 . S
H2072 N2066 0.984 . S
H2073 N2066 0.984 . S
H2074 N2062 0.984 . S
H2075 N2062 0.985 . S
C2076 C2077 1.363 . S
C2076 C2082 1.379 . S
C2076 N2084 1.356 . S
C2077 C2076 1.363 . S
C2077 C2083 1.363 . S
C2078 C2079 1.363 . S
C2078 C2083 1.379 . S
C2078 N2085 1.356 . S
C2079 C2078 1.363 . S
C2079 C2082 1.363 . S
N2080 C2082 1.356 . S
N2080 H2092 0.984 . S
N2080 H2093 0.985 . S
N2081 C2083 1.356 . S
N2081 H2086 0.984 . S
N2081 H2087 0.985 . S
C2082 C2076 1.379 . S
C2082 C2079 1.363 . S
C2082 N2080 1.356 . S
C2083 C2077 1.363 . S
C2083 C2078 1.379 . S
C2083 N2081 1.356 . S
N2084 C2076 1.356 . S
N2084 H2090 0.984 . S
N2084 H2091 0.984 . S
N2085 C2078 1.356 . S
N2085 H2088 0.984 . S
N2085 H2089 0.985 . S
H2086 N2081 0.984 . S
H2087 N2081 0.985 . S
H2088 N2085 0.984 . S
H2089 N2085 0.985 . S
H2090 N2084 0.984 . S
H2091 N2084 0.984 . S
H2092 N2080 0.984 . S
H2093 N2080 0.985 . S
C2094 C2095 1.363 . S
C2094 C2100 1.379 . S
C2094 N2102 1.356 . S
C2095 C2094 1.363 . S
C2095 C2101 1.363 . S
C2096 C2097 1.363 . S
C2096 C2101 1.379 . S
C2096 N2103 1.356 . S
C2097 C2096 1.363 . S
C2097 C2100 1.363 . S
N2098 C2100 1.356 . S
N2098 H2110 0.984 . S
N2098 H2111 0.985 . S
N2099 C2101 1.356 . S
N2099 H2104 0.984 . S
N2099 H2105 0.985 . S
C2100 C2094 1.379 . S
C2100 C2097 1.363 . S
C2100 N2098 1.356 . S
C2101 C2095 1.363 . S
C2101 C2096 1.379 . S
C2101 N2099 1.356 . S
N2102 C2094 1.356 . S
N2102 H2108 0.984 . S
N2102 H2109 0.984 . S
N2103 C2096 1.356 . S
N2103 H2106 0.984 . S
N2103 H2107 0.985 . S
H2104 N2099 0.984 . S
H2105 N2099 0.985 . S
H2106 N2103 0.984 . S
H2107 N2103 0.985 . S
H2108 N2102 0.984 . S
H2109 N2102 0.984 . S
H2110 N2098 0.984 . S
H2111 N2098 0.985 . S
C2112 C2113 1.363 . S
C2112 C2118 1.379 . S
C2112 N2120 1.356 . S
C2113 C2112 1.363 . S
C2113 C2119 1.363 . S
C2114 C2115 1.363 . S
C2114 C2119 1.379 . S
C2114 N2121 1.356 . S
C2115 C2114 1.363 . S
C2115 C2118 1.363 . S
N2116 C2118 1.356 . S
N2116 H2128 0.984 . S
N2116 H2129 0.985 . S
N2117 C2119 1.356 . S
N2117 H2122 0.984 . S
N2117 H2123 0.985 . S
C2118 C2112 1.379 . S
C2118 C2115 1.363 . S
C2118 N2116 1.356 . S
C2119 C2113 1.363 . S
C2119 C2114 1.379 . S
C2119 N2117 1.356 . S
N2120 C2112 1.356 . S
N2120 H2126 0.984 . S
N2120 H2127 0.984 . S
N2121 C2114 1.356 . S
N2121 H2124 0.984 . S
N2121 H2125 0.985 . S
H2122 N2117 0.984 . S
H2123 N2117 0.985 . S
H2124 N2121 0.984 . S
H2125 N2121 0.985 . S
H2126 N2120 0.984 . S
H2127 N2120 0.984 . S
H2128 N2116 0.984 . S
H2129 N2116 0.985 . S
C2130 C2131 1.363 . S
C2130 C2136 1.379 . S
C2130 N2138 1.356 . S
C2131 C2130 1.363 . S
C2131 C2137 1.363 . S
C2132 C2133 1.363 . S
C2132 C2137 1.379 . S
C2132 N2139 1.356 . S
C2133 C2132 1.363 . S
C2133 C2136 1.363 . S
N2134 C2136 1.356 . S
N2134 H2146 0.984 . S
N2134 H2147 0.985 . S
N2135 C2137 1.356 . S
N2135 H2140 0.984 . S
N2135 H2141 0.985 . S
C2136 C2130 1.379 . S
C2136 C2133 1.363 . S
C2136 N2134 1.356 . S
C2137 C2131 1.363 . S
C2137 C2132 1.379 . S
C2137 N2135 1.356 . S
N2138 C2130 1.356 . S
N2138 H2144 0.984 . S
N2138 H2145 0.984 . S
N2139 C2132 1.356 . S
N2139 H2142 0.984 . S
N2139 H2143 0.985 . S
H2140 N2135 0.984 . S
H2141 N2135 0.985 . S
H2142 N2139 0.984 . S
H2143 N2139 0.985 . S
H2144 N2138 0.984 . S
H2145 N2138 0.984 . S
H2146 N2134 0.984 . S
H2147 N2134 0.985 . S
C2148 C2149 1.363 . S
C2148 C2154 1.379 . S
C2148 N2156 1.356 . S
C2149 C2148 1.363 . S
C2149 C2155 1.363 . S
C2150 C2151 1.363 . S
C2150 C2155 1.379 . S
C2150 N2157 1.356 . S
C2151 C2150 1.363 . S
C2151 C2154 1.363 . S
N2152 C2154 1.356 . S
N2152 H2164 0.984 . S
N2152 H2165 0.985 . S
N2153 C2155 1.356 . S
N2153 H2158 0.984 . S
N2153 H2159 0.985 . S
C2154 C2148 1.379 . S
C2154 C2151 1.363 . S
C2154 N2152 1.356 . S
C2155 C2149 1.363 . S
C2155 C2150 1.379 . S
C2155 N2153 1.356 . S
N2156 C2148 1.356 . S
N2156 H2162 0.984 . S
N2156 H2163 0.984 . S
N2157 C2150 1.356 . S
N2157 H2160 0.984 . S
N2157 H2161 0.985 . S
H2158 N2153 0.984 . S
H2159 N2153 0.985 . S
H2160 N2157 0.984 . S
H2161 N2157 0.985 . S
H2162 N2156 0.984 . S
H2163 N2156 0.984 . S
H2164 N2152 0.984 . S
H2165 N2152 0.985 . S
C2166 C2167 1.363 . S
C2166 C2172 1.379 . S
C2166 N2174 1.356 . S
C2167 C2166 1.363 . S
C2167 C2173 1.363 . S
C2168 C2169 1.363 . S
C2168 C2173 1.379 . S
C2168 N2175 1.356 . S
C2169 C2168 1.363 . S
C2169 C2172 1.363 . S
N2170 C2172 1.356 . S
N2170 H2182 0.984 . S
N2170 H2183 0.985 . S
N2171 C2173 1.356 . S
N2171 H2176 0.984 . S
N2171 H2177 0.985 . S
C2172 C2166 1.379 . S
C2172 C2169 1.363 . S
C2172 N2170 1.356 . S
C2173 C2167 1.363 . S
C2173 C2168 1.379 . S
C2173 N2171 1.356 . S
N2174 C2166 1.356 . S
N2174 H2180 0.984 . S
N2174 H2181 0.984 . S
N2175 C2168 1.356 . S
N2175 H2178 0.984 . S
N2175 H2179 0.985 . S
H2176 N2171 0.984 . S
H2177 N2171 0.985 . S
H2178 N2175 0.984 . S
H2179 N2175 0.985 . S
H2180 N2174 0.984 . S
H2181 N2174 0.984 . S
H2182 N2170 0.984 . S
H2183 N2170 0.985 . S
C2184 C2185 1.363 . S
C2184 C2190 1.379 . S
C2184 N2192 1.356 . S
C2185 C2184 1.363 . S
C2185 C2191 1.363 . S
C2186 C2187 1.363 . S
C2186 C2191 1.379 . S
C2186 N2193 1.356 . S
C2187 C2186 1.363 . S
C2187 C2190 1.363 . S
N2188 C2190 1.356 . S
N2188 H2200 0.984 . S
N2188 H2201 0.985 . S
N2189 C2191 1.356 . S
N2189 H2194 0.984 . S
N2189 H2195 0.985 . S
C2190 C2184 1.379 . S
C2190 C2187 1.363 . S
C2190 N2188 1.356 . S
C2191 C2185 1.363 . S
C2191 C2186 1.379 . S
C2191 N2189 1.356 . S
N2192 C2184 1.356 . S
N2192 H2198 0.984 . S
N2192 H2199 0.984 . S
N2193 C2186 1.356 . S
N2193 H2196 0.984 . S
N2193 H2197 0.985 . S
H2194 N2189 0.984 . S
H2195 N2189 0.985 . S
H2196 N2193 0.984 . S
H2197 N2193 0.985 . S
H2198 N2192 0.984 . S
H2199 N2192 0.984 . S
H2200 N2188 0.984 . S
H2201 N2188 0.985 . S
C2202 C2203 1.363 . S
C2202 C2208 1.379 . S
C2202 N2210 1.356 . S
C2203 C2202 1.363 . S
C2203 C2209 1.363 . S
C2204 C2205 1.363 . S
C2204 C2209 1.379 . S
C2204 N2211 1.356 . S
C2205 C2204 1.363 . S
C2205 C2208 1.363 . S
N2206 C2208 1.356 . S
N2206 H2218 0.984 . S
N2206 H2219 0.985 . S
N2207 C2209 1.356 . S
N2207 H2212 0.984 . S
N2207 H2213 0.985 . S
C2208 C2202 1.379 . S
C2208 C2205 1.363 . S
C2208 N2206 1.356 . S
C2209 C2203 1.363 . S
C2209 C2204 1.379 . S
C2209 N2207 1.356 . S
N2210 C2202 1.356 . S
N2210 H2216 0.984 . S
N2210 H2217 0.984 . S
N2211 C2204 1.356 . S
N2211 H2214 0.984 . S
N2211 H2215 0.985 . S
H2212 N2207 0.984 . S
H2213 N2207 0.985 . S
H2214 N2211 0.984 . S
H2215 N2211 0.985 . S
H2216 N2210 0.984 . S
H2217 N2210 0.984 . S
H2218 N2206 0.984 . S
H2219 N2206 0.985 . S
C2220 C2221 1.363 . S
C2220 C2226 1.379 . S
C2220 N2228 1.356 . S
C2221 C2220 1.363 . S
C2221 C2227 1.363 . S
C2222 C2223 1.363 . S
C2222 C2227 1.379 . S
C2222 N2229 1.356 . S
C2223 C2222 1.363 . S
C2223 C2226 1.363 . S
N2224 C2226 1.356 . S
N2224 H2236 0.984 . S
N2224 H2237 0.985 . S
N2225 C2227 1.356 . S
N2225 H2230 0.984 . S
N2225 H2231 0.985 . S
C2226 C2220 1.379 . S
C2226 C2223 1.363 . S
C2226 N2224 1.356 . S
C2227 C2221 1.363 . S
C2227 C2222 1.379 . S
C2227 N2225 1.356 . S
N2228 C2220 1.356 . S
N2228 H2234 0.984 . S
N2228 H2235 0.984 . S
N2229 C2222 1.356 . S
N2229 H2232 0.984 . S
N2229 H2233 0.985 . S
H2230 N2225 0.984 . S
H2231 N2225 0.985 . S
H2232 N2229 0.984 . S
H2233 N2229 0.985 . S
H2234 N2228 0.984 . S
H2235 N2228 0.984 . S
H2236 N2224 0.984 . S
H2237 N2224 0.985 . S
C2238 C2239 1.363 . S
C2238 C2244 1.379 . S
C2238 N2246 1.356 . S
C2239 C2238 1.363 . S
C2239 C2245 1.363 . S
C2240 C2241 1.363 . S
C2240 C2245 1.379 . S
C2240 N2247 1.356 . S
C2241 C2240 1.363 . S
C2241 C2244 1.363 . S
N2242 C2244 1.356 . S
N2242 H2254 0.984 . S
N2242 H2255 0.985 . S
N2243 C2245 1.356 . S
N2243 H2248 0.984 . S
N2243 H2249 0.985 . S
C2244 C2238 1.379 . S
C2244 C2241 1.363 . S
C2244 N2242 1.356 . S
C2245 C2239 1.363 . S
C2245 C2240 1.379 . S
C2245 N2243 1.356 . S
N2246 C2238 1.356 . S
N2246 H2252 0.984 . S
N2246 H2253 0.984 . S
N2247 C2240 1.356 . S
N2247 H2250 0.984 . S
N2247 H2251 0.985 . S
H2248 N2243 0.984 . S
H2249 N2243 0.985 . S
H2250 N2247 0.984 . S
H2251 N2247 0.985 . S
H2252 N2246 0.984 . S
H2253 N2246 0.984 . S
H2254 N2242 0.984 . S
H2255 N2242 0.985 . S
C2256 C2257 1.363 . S
C2256 C2262 1.379 . S
C2256 N2264 1.356 . S
C2257 C2256 1.363 . S
C2257 C2263 1.363 . S
C2258 C2259 1.363 . S
C2258 C2263 1.379 . S
C2258 N2265 1.356 . S
C2259 C2258 1.363 . S
C2259 C2262 1.363 . S
N2260 C2262 1.356 . S
N2260 H2272 0.984 . S
N2260 H2273 0.985 . S
N2261 C2263 1.356 . S
N2261 H2266 0.984 . S
N2261 H2267 0.985 . S
C2262 C2256 1.379 . S
C2262 C2259 1.363 . S
C2262 N2260 1.356 . S
C2263 C2257 1.363 . S
C2263 C2258 1.379 . S
C2263 N2261 1.356 . S
N2264 C2256 1.356 . S
N2264 H2270 0.984 . S
N2264 H2271 0.984 . S
N2265 C2258 1.356 . S
N2265 H2268 0.984 . S
N2265 H2269 0.985 . S
H2266 N2261 0.984 . S
H2267 N2261 0.985 . S
H2268 N2265 0.984 . S
H2269 N2265 0.985 . S
H2270 N2264 0.984 . S
H2271 N2264 0.984 . S
H2272 N2260 0.984 . S
H2273 N2260 0.985 . S
C2274 C2275 1.363 . S
C2274 C2280 1.379 . S
C2274 N2282 1.356 . S
C2275 C2274 1.363 . S
C2275 C2281 1.363 . S
C2276 C2277 1.363 . S
C2276 C2281 1.379 . S
C2276 N2283 1.356 . S
C2277 C2276 1.363 . S
C2277 C2280 1.363 . S
N2278 C2280 1.356 . S
N2278 H2290 0.984 . S
N2278 H2291 0.985 . S
N2279 C2281 1.356 . S
N2279 H2284 0.984 . S
N2279 H2285 0.985 . S
C2280 C2274 1.379 . S
C2280 C2277 1.363 . S
C2280 N2278 1.356 . S
C2281 C2275 1.363 . S
C2281 C2276 1.379 . S
C2281 N2279 1.356 . S
N2282 C2274 1.356 . S
N2282 H2288 0.984 . S
N2282 H2289 0.984 . S
N2283 C2276 1.356 . S
N2283 H2286 0.984 . S
N2283 H2287 0.985 . S
H2284 N2279 0.984 . S
H2285 N2279 0.985 . S
H2286 N2283 0.984 . S
H2287 N2283 0.985 . S
H2288 N2282 0.984 . S
H2289 N2282 0.984 . S
H2290 N2278 0.984 . S
H2291 N2278 0.985 . S
C2292 C2293 1.363 . S
C2292 C2298 1.379 . S
C2292 N2300 1.356 . S
C2293 C2292 1.363 . S
C2293 C2299 1.363 . S
C2294 C2295 1.363 . S
C2294 C2299 1.379 . S
C2294 N2301 1.356 . S
C2295 C2294 1.363 . S
C2295 C2298 1.363 . S
N2296 C2298 1.356 . S
N2296 H2308 0.984 . S
N2296 H2309 0.985 . S
N2297 C2299 1.356 . S
N2297 H2302 0.984 . S
N2297 H2303 0.985 . S
C2298 C2292 1.379 . S
C2298 C2295 1.363 . S
C2298 N2296 1.356 . S
C2299 C2293 1.363 . S
C2299 C2294 1.379 . S
C2299 N2297 1.356 . S
N2300 C2292 1.356 . S
N2300 H2306 0.984 . S
N2300 H2307 0.984 . S
N2301 C2294 1.356 . S
N2301 H2304 0.984 . S
N2301 H2305 0.985 . S
H2302 N2297 0.984 . S
H2303 N2297 0.985 . S
H2304 N2301 0.984 . S
H2305 N2301 0.985 . S
H2306 N2300 0.984 . S
H2307 N2300 0.984 . S
H2308 N2296 0.984 . S
H2309 N2296 0.985 . S
C2310 C2311 1.363 . S
C2310 C2316 1.379 . S
C2310 N2318 1.356 . S
C2311 C2310 1.363 . S
C2311 C2317 1.363 . S
C2312 C2313 1.363 . S
C2312 C2317 1.379 . S
C2312 N2319 1.356 . S
C2313 C2312 1.363 . S
C2313 C2316 1.363 . S
N2314 C2316 1.356 . S
N2314 H2326 0.984 . S
N2314 H2327 0.985 . S
N2315 C2317 1.356 . S
N2315 H2320 0.984 . S
N2315 H2321 0.985 . S
C2316 C2310 1.379 . S
C2316 C2313 1.363 . S
C2316 N2314 1.356 . S
C2317 C2311 1.363 . S
C2317 C2312 1.379 . S
C2317 N2315 1.356 . S
N2318 C2310 1.356 . S
N2318 H2324 0.984 . S
N2318 H2325 0.984 . S
N2319 C2312 1.356 . S
N2319 H2322 0.984 . S
N2319 H2323 0.985 . S
H2320 N2315 0.984 . S
H2321 N2315 0.985 . S
H2322 N2319 0.984 . S
H2323 N2319 0.985 . S
H2324 N2318 0.984 . S
H2325 N2318 0.984 . S
H2326 N2314 0.984 . S
H2327 N2314 0.985 . S
C2328 C2329 1.363 . S
C2328 C2334 1.379 . S
C2328 N2336 1.356 . S
C2329 C2328 1.363 . S
C2329 C2335 1.363 . S
C2330 C2331 1.363 . S
C2330 C2335 1.379 . S
C2330 N2337 1.356 . S
C2331 C2330 1.363 . S
C2331 C2334 1.363 . S
N2332 C2334 1.356 . S
N2332 H2344 0.984 . S
N2332 H2345 0.985 . S
N2333 C2335 1.356 . S
N2333 H2338 0.984 . S
N2333 H2339 0.985 . S
C2334 C2328 1.379 . S
C2334 C2331 1.363 . S
C2334 N2332 1.356 . S
C2335 C2329 1.363 . S
C2335 C2330 1.379 . S
C2335 N2333 1.356 . S
N2336 C2328 1.356 . S
N2336 H2342 0.984 . S
N2336 H2343 0.984 . S
N2337 C2330 1.356 . S
N2337 H2340 0.984 . S
N2337 H2341 0.985 . S
H2338 N2333 0.984 . S
H2339 N2333 0.985 . S
H2340 N2337 0.984 . S
H2341 N2337 0.985 . S
H2342 N2336 0.984 . S
H2343 N2336 0.984 . S
H2344 N2332 0.984 . S
H2345 N2332 0.985 . S
C2346 C2347 1.363 . S
C2346 C2352 1.379 . S
C2346 N2354 1.356 . S
C2347 C2346 1.363 . S
C2347 C2353 1.363 . S
C2348 C2349 1.363 . S
C2348 C2353 1.379 . S
C2348 N2355 1.356 . S
C2349 C2348 1.363 . S
C2349 C2352 1.363 . S
N2350 C2352 1.356 . S
N2350 H2362 0.984 . S
N2350 H2363 0.985 . S
N2351 C2353 1.356 . S
N2351 H2356 0.984 . S
N2351 H2357 0.985 . S
C2352 C2346 1.379 . S
C2352 C2349 1.363 . S
C2352 N2350 1.356 . S
C2353 C2347 1.363 . S
C2353 C2348 1.379 . S
C2353 N2351 1.356 . S
N2354 C2346 1.356 . S
N2354 H2360 0.984 . S
N2354 H2361 0.984 . S
N2355 C2348 1.356 . S
N2355 H2358 0.984 . S
N2355 H2359 0.985 . S
H2356 N2351 0.984 . S
H2357 N2351 0.985 . S
H2358 N2355 0.984 . S
H2359 N2355 0.985 . S
H2360 N2354 0.984 . S
H2361 N2354 0.984 . S
H2362 N2350 0.984 . S
H2363 N2350 0.985 . S
C2364 C2365 1.363 . S
C2364 C2370 1.379 . S
C2364 N2372 1.356 . S
C2365 C2364 1.363 . S
C2365 C2371 1.363 . S
C2366 C2367 1.363 . S
C2366 C2371 1.379 . S
C2366 N2373 1.356 . S
C2367 C2366 1.363 . S
C2367 C2370 1.363 . S
N2368 C2370 1.356 . S
N2368 H2380 0.984 . S
N2368 H2381 0.985 . S
N2369 C2371 1.356 . S
N2369 H2374 0.984 . S
N2369 H2375 0.985 . S
C2370 C2364 1.379 . S
C2370 C2367 1.363 . S
C2370 N2368 1.356 . S
C2371 C2365 1.363 . S
C2371 C2366 1.379 . S
C2371 N2369 1.356 . S
N2372 C2364 1.356 . S
N2372 H2378 0.984 . S
N2372 H2379 0.984 . S
N2373 C2366 1.356 . S
N2373 H2376 0.984 . S
N2373 H2377 0.985 . S
H2374 N2369 0.984 . S
H2375 N2369 0.985 . S
H2376 N2373 0.984 . S
H2377 N2373 0.985 . S
H2378 N2372 0.984 . S
H2379 N2372 0.984 . S
H2380 N2368 0.984 . S
H2381 N2368 0.985 . S
C2382 C2383 1.363 . S
C2382 C2388 1.379 . S
C2382 N2390 1.356 . S
C2383 C2382 1.363 . S
C2383 C2389 1.363 . S
C2384 C2385 1.363 . S
C2384 C2389 1.379 . S
C2384 N2391 1.356 . S
C2385 C2384 1.363 . S
C2385 C2388 1.363 . S
N2386 C2388 1.356 . S
N2386 H2398 0.984 . S
N2386 H2399 0.985 . S
N2387 C2389 1.356 . S
N2387 H2392 0.984 . S
N2387 H2393 0.985 . S
C2388 C2382 1.379 . S
C2388 C2385 1.363 . S
C2388 N2386 1.356 . S
C2389 C2383 1.363 . S
C2389 C2384 1.379 . S
C2389 N2387 1.356 . S
N2390 C2382 1.356 . S
N2390 H2396 0.984 . S
N2390 H2397 0.984 . S
N2391 C2384 1.356 . S
N2391 H2394 0.984 . S
N2391 H2395 0.985 . S
H2392 N2387 0.984 . S
H2393 N2387 0.985 . S
H2394 N2391 0.984 . S
H2395 N2391 0.985 . S
H2396 N2390 0.984 . S
H2397 N2390 0.984 . S
H2398 N2386 0.984 . S
H2399 N2386 0.985 . S
C2400 C2401 1.363 . S
C2400 C2406 1.379 . S
C2400 N2408 1.356 . S
C2401 C2400 1.363 . S
C2401 C2407 1.363 . S
C2402 C2403 1.363 . S
C2402 C2407 1.379 . S
C2402 N2409 1.356 . S
C2403 C2402 1.363 . S
C2403 C2406 1.363 . S
N2404 C2406 1.356 . S
N2404 H2416 0.984 . S
N2404 H2417 0.985 . S
N2405 C2407 1.356 . S
N2405 H2410 0.984 . S
N2405 H2411 0.985 . S
C2406 C2400 1.379 . S
C2406 C2403 1.363 . S
C2406 N2404 1.356 . S
C2407 C2401 1.363 . S
C2407 C2402 1.379 . S
C2407 N2405 1.356 . S
N2408 C2400 1.356 . S
N2408 H2414 0.984 . S
N2408 H2415 0.984 . S
N2409 C2402 1.356 . S
N2409 H2412 0.984 . S
N2409 H2413 0.985 . S
H2410 N2405 0.984 . S
H2411 N2405 0.985 . S
H2412 N2409 0.984 . S
H2413 N2409 0.985 . S
H2414 N2408 0.984 . S
H2415 N2408 0.984 . S
H2416 N2404 0.984 . S
H2417 N2404 0.985 . S
C2418 C2419 1.363 . S
C2418 C2424 1.379 . S
C2418 N2426 1.356 . S
C2419 C2418 1.363 . S
C2419 C2425 1.363 . S
C2420 C2421 1.363 . S
C2420 C2425 1.379 . S
C2420 N2427 1.356 . S
C2421 C2420 1.363 . S
C2421 C2424 1.363 . S
N2422 C2424 1.356 . S
N2422 H2434 0.984 . S
N2422 H2435 0.985 . S
N2423 C2425 1.356 . S
N2423 H2428 0.984 . S
N2423 H2429 0.985 . S
C2424 C2418 1.379 . S
C2424 C2421 1.363 . S
C2424 N2422 1.356 . S
C2425 C2419 1.363 . S
C2425 C2420 1.379 . S
C2425 N2423 1.356 . S
N2426 C2418 1.356 . S
N2426 H2432 0.984 . S
N2426 H2433 0.984 . S
N2427 C2420 1.356 . S
N2427 H2430 0.984 . S
N2427 H2431 0.985 . S
H2428 N2423 0.984 . S
H2429 N2423 0.985 . S
H2430 N2427 0.984 . S
H2431 N2427 0.985 . S
H2432 N2426 0.984 . S
H2433 N2426 0.984 . S
H2434 N2422 0.984 . S
H2435 N2422 0.985 . S
C2436 C2437 1.363 . S
C2436 C2442 1.379 . S
C2436 N2444 1.356 . S
C2437 C2436 1.363 . S
C2437 C2443 1.363 . S
C2438 C2439 1.363 . S
C2438 C2443 1.379 . S
C2438 N2445 1.356 . S
C2439 C2438 1.363 . S
C2439 C2442 1.363 . S
N2440 C2442 1.356 . S
N2440 H2452 0.984 . S
N2440 H2453 0.985 . S
N2441 C2443 1.356 . S
N2441 H2446 0.984 . S
N2441 H2447 0.985 . S
C2442 C2436 1.379 . S
C2442 C2439 1.363 . S
C2442 N2440 1.356 . S
C2443 C2437 1.363 . S
C2443 C2438 1.379 . S
C2443 N2441 1.356 . S
N2444 C2436 1.356 . S
N2444 H2450 0.984 . S
N2444 H2451 0.984 . S
N2445 C2438 1.356 . S
N2445 H2448 0.984 . S
N2445 H2449 0.985 . S
H2446 N2441 0.984 . S
H2447 N2441 0.985 . S
H2448 N2445 0.984 . S
H2449 N2445 0.985 . S
H2450 N2444 0.984 . S
H2451 N2444 0.984 . S
H2452 N2440 0.984 . S
H2453 N2440 0.985 . S
C2454 C2455 1.363 . S
C2454 C2460 1.379 . S
C2454 N2462 1.356 . S
C2455 C2454 1.363 . S
C2455 C2461 1.363 . S
C2456 C2457 1.363 . S
C2456 C2461 1.379 . S
C2456 N2463 1.356 . S
C2457 C2456 1.363 . S
C2457 C2460 1.363 . S
N2458 C2460 1.356 . S
N2458 H2470 0.984 . S
N2458 H2471 0.985 . S
N2459 C2461 1.356 . S
N2459 H2464 0.984 . S
N2459 H2465 0.985 . S
C2460 C2454 1.379 . S
C2460 C2457 1.363 . S
C2460 N2458 1.356 . S
C2461 C2455 1.363 . S
C2461 C2456 1.379 . S
C2461 N2459 1.356 . S
N2462 C2454 1.356 . S
N2462 H2468 0.984 . S
N2462 H2469 0.984 . S
N2463 C2456 1.356 . S
N2463 H2466 0.984 . S
N2463 H2467 0.985 . S
H2464 N2459 0.984 . S
H2465 N2459 0.985 . S
H2466 N2463 0.984 . S
H2467 N2463 0.985 . S
H2468 N2462 0.984 . S
H2469 N2462 0.984 . S
H2470 N2458 0.984 . S
H2471 N2458 0.985 . S
C2472 C2473 1.363 . S
C2472 C2478 1.379 . S
C2472 N2480 1.356 . S
C2473 C2472 1.363 . S
C2473 C2479 1.363 . S
C2474 C2475 1.363 . S
C2474 C2479 1.379 . S
C2474 N2481 1.356 . S
C2475 C2474 1.363 . S
C2475 C2478 1.363 . S
N2476 C2478 1.356 . S
N2476 H2488 0.984 . S
N2476 H2489 0.985 . S
N2477 C2479 1.356 . S
N2477 H2482 0.984 . S
N2477 H2483 0.985 . S
C2478 C2472 1.379 . S
C2478 C2475 1.363 . S
C2478 N2476 1.356 . S
C2479 C2473 1.363 . S
C2479 C2474 1.379 . S
C2479 N2477 1.356 . S
N2480 C2472 1.356 . S
N2480 H2486 0.984 . S
N2480 H2487 0.984 . S
N2481 C2474 1.356 . S
N2481 H2484 0.984 . S
N2481 H2485 0.985 . S
H2482 N2477 0.984 . S
H2483 N2477 0.985 . S
H2484 N2481 0.984 . S
H2485 N2481 0.985 . S
H2486 N2480 0.984 . S
H2487 N2480 0.984 . S
H2488 N2476 0.984 . S
H2489 N2476 0.985 . S
C2490 C2491 1.363 . S
C2490 C2496 1.379 . S
C2490 N2498 1.356 . S
C2491 C2490 1.363 . S
C2491 C2497 1.363 . S
C2492 C2493 1.363 . S
C2492 C2497 1.379 . S
C2492 N2499 1.356 . S
C2493 C2492 1.363 . S
C2493 C2496 1.363 . S
N2494 C2496 1.356 . S
N2494 H2506 0.984 . S
N2494 H2507 0.985 . S
N2495 C2497 1.356 . S
N2495 H2500 0.984 . S
N2495 H2501 0.985 . S
C2496 C2490 1.379 . S
C2496 C2493 1.363 . S
C2496 N2494 1.356 . S
C2497 C2491 1.363 . S
C2497 C2492 1.379 . S
C2497 N2495 1.356 . S
N2498 C2490 1.356 . S
N2498 H2504 0.984 . S
N2498 H2505 0.984 . S
N2499 C2492 1.356 . S
N2499 H2502 0.984 . S
N2499 H2503 0.985 . S
H2500 N2495 0.984 . S
H2501 N2495 0.985 . S
H2502 N2499 0.984 . S
H2503 N2499 0.985 . S
H2504 N2498 0.984 . S
H2505 N2498 0.984 . S
H2506 N2494 0.984 . S
H2507 N2494 0.985 . S
C2508 C2509 1.363 . S
C2508 C2514 1.379 . S
C2508 N2516 1.356 . S
C2509 C2508 1.363 . S
C2509 C2515 1.363 . S
C2510 C2511 1.363 . S
C2510 C2515 1.379 . S
C2510 N2517 1.356 . S
C2511 C2510 1.363 . S
C2511 C2514 1.363 . S
N2512 C2514 1.356 . S
N2512 H2524 0.984 . S
N2512 H2525 0.985 . S
N2513 C2515 1.356 . S
N2513 H2518 0.984 . S
N2513 H2519 0.985 . S
C2514 C2508 1.379 . S
C2514 C2511 1.363 . S
C2514 N2512 1.356 . S
C2515 C2509 1.363 . S
C2515 C2510 1.379 . S
C2515 N2513 1.356 . S
N2516 C2508 1.356 . S
N2516 H2522 0.984 . S
N2516 H2523 0.984 . S
N2517 C2510 1.356 . S
N2517 H2520 0.984 . S
N2517 H2521 0.985 . S
H2518 N2513 0.984 . S
H2519 N2513 0.985 . S
H2520 N2517 0.984 . S
H2521 N2517 0.985 . S
H2522 N2516 0.984 . S
H2523 N2516 0.984 . S
H2524 N2512 0.984 . S
H2525 N2512 0.985 . S
C2526 C2527 1.363 . S
C2526 C2532 1.379 . S
C2526 N2534 1.356 . S
C2527 C2526 1.363 . S
C2527 C2533 1.363 . S
C2528 C2529 1.363 . S
C2528 C2533 1.379 . S
C2528 N2535 1.356 . S
C2529 C2528 1.363 . S
C2529 C2532 1.363 . S
N2530 C2532 1.356 . S
N2530 H2542 0.984 . S
N2530 H2543 0.985 . S
N2531 C2533 1.356 . S
N2531 H2536 0.984 . S
N2531 H2537 0.985 . S
C2532 C2526 1.379 . S
C2532 C2529 1.363 . S
C2532 N2530 1.356 . S
C2533 C2527 1.363 . S
C2533 C2528 1.379 . S
C2533 N2531 1.356 . S
N2534 C2526 1.356 . S
N2534 H2540 0.984 . S
N2534 H2541 0.984 . S
N2535 C2528 1.356 . S
N2535 H2538 0.984 . S
N2535 H2539 0.985 . S
H2536 N2531 0.984 . S
H2537 N2531 0.985 . S
H2538 N2535 0.984 . S
H2539 N2535 0.985 . S
H2540 N2534 0.984 . S
H2541 N2534 0.984 . S
H2542 N2530 0.984 . S
H2543 N2530 0.985 . S
C2544 C2545 1.363 . S
C2544 C2550 1.379 . S
C2544 N2552 1.356 . S
C2545 C2544 1.363 . S
C2545 C2551 1.363 . S
C2546 C2547 1.363 . S
C2546 C2551 1.379 . S
C2546 N2553 1.356 . S
C2547 C2546 1.363 . S
C2547 C2550 1.363 . S
N2548 C2550 1.356 . S
N2548 H2560 0.984 . S
N2548 H2561 0.985 . S
N2549 C2551 1.356 . S
N2549 H2554 0.984 . S
N2549 H2555 0.985 . S
C2550 C2544 1.379 . S
C2550 C2547 1.363 . S
C2550 N2548 1.356 . S
C2551 C2545 1.363 . S
C2551 C2546 1.379 . S
C2551 N2549 1.356 . S
N2552 C2544 1.356 . S
N2552 H2558 0.984 . S
N2552 H2559 0.984 . S
N2553 C2546 1.356 . S
N2553 H2556 0.984 . S
N2553 H2557 0.985 . S
H2554 N2549 0.984 . S
H2555 N2549 0.985 . S
H2556 N2553 0.984 . S
H2557 N2553 0.985 . S
H2558 N2552 0.984 . S
H2559 N2552 0.984 . S
H2560 N2548 0.984 . S
H2561 N2548 0.985 . S
C2562 C2563 1.363 . S
C2562 C2568 1.379 . S
C2562 N2570 1.356 . S
C2563 C2562 1.363 . S
C2563 C2569 1.363 . S
C2564 C2565 1.363 . S
C2564 C2569 1.379 . S
C2564 N2571 1.356 . S
C2565 C2564 1.363 . S
C2565 C2568 1.363 . S
N2566 C2568 1.356 . S
N2566 H2578 0.984 . S
N2566 H2579 0.985 . S
N2567 C2569 1.356 . S
N2567 H2572 0.984 . S
N2567 H2573 0.985 . S
C2568 C2562 1.379 . S
C2568 C2565 1.363 . S
C2568 N2566 1.356 . S
C2569 C2563 1.363 . S
C2569 C2564 1.379 . S
C2569 N2567 1.356 . S
N2570 C2562 1.356 . S
N2570 H2576 0.984 . S
N2570 H2577 0.984 . S
N2571 C2564 1.356 . S
N2571 H2574 0.984 . S
N2571 H2575 0.985 . S
H2572 N2567 0.984 . S
H2573 N2567 0.985 . S
H2574 N2571 0.984 . S
H2575 N2571 0.985 . S
H2576 N2570 0.984 . S
H2577 N2570 0.984 . S
H2578 N2566 0.984 . S
H2579 N2566 0.985 . S
C2580 C2581 1.363 . S
C2580 C2586 1.379 . S
C2580 N2588 1.356 . S
C2581 C2580 1.363 . S
C2581 C2587 1.363 . S
C2582 C2583 1.363 . S
C2582 C2587 1.379 . S
C2582 N2589 1.356 . S
C2583 C2582 1.363 . S
C2583 C2586 1.363 . S
N2584 C2586 1.356 . S
N2584 H2596 0.984 . S
N2584 H2597 0.985 . S
N2585 C2587 1.356 . S
N2585 H2590 0.984 . S
N2585 H2591 0.985 . S
C2586 C2580 1.379 . S
C2586 C2583 1.363 . S
C2586 N2584 1.356 . S
C2587 C2581 1.363 . S
C2587 C2582 1.379 . S
C2587 N2585 1.356 . S
N2588 C2580 1.356 . S
N2588 H2594 0.984 . S
N2588 H2595 0.984 . S
N2589 C2582 1.356 . S
N2589 H2592 0.984 . S
N2589 H2593 0.985 . S
H2590 N2585 0.984 . S
H2591 N2585 0.985 . S
H2592 N2589 0.984 . S
H2593 N2589 0.985 . S
H2594 N2588 0.984 . S
H2595 N2588 0.984 . S
H2596 N2584 0.984 . S
H2597 N2584 0.985 . S
C2598 C2599 1.363 . S
C2598 C2604 1.379 . S
C2598 N2606 1.356 . S
C2599 C2598 1.363 . S
C2599 C2605 1.363 . S
C2600 C2601 1.363 . S
C2600 C2605 1.379 . S
C2600 N2607 1.356 . S
C2601 C2600 1.363 . S
C2601 C2604 1.363 . S
N2602 C2604 1.356 . S
N2602 H2614 0.984 . S
N2602 H2615 0.985 . S
N2603 C2605 1.356 . S
N2603 H2608 0.984 . S
N2603 H2609 0.985 . S
C2604 C2598 1.379 . S
C2604 C2601 1.363 . S
C2604 N2602 1.356 . S
C2605 C2599 1.363 . S
C2605 C2600 1.379 . S
C2605 N2603 1.356 . S
N2606 C2598 1.356 . S
N2606 H2612 0.984 . S
N2606 H2613 0.984 . S
N2607 C2600 1.356 . S
N2607 H2610 0.984 . S
N2607 H2611 0.985 . S
H2608 N2603 0.984 . S
H2609 N2603 0.985 . S
H2610 N2607 0.984 . S
H2611 N2607 0.985 . S
H2612 N2606 0.984 . S
H2613 N2606 0.984 . S
H2614 N2602 0.984 . S
H2615 N2602 0.985 . S
C2616 C2617 1.363 . S
C2616 C2622 1.379 . S
C2616 N2624 1.356 . S
C2617 C2616 1.363 . S
C2617 C2623 1.363 . S
C2618 C2619 1.363 . S
C2618 C2623 1.379 . S
C2618 N2625 1.356 . S
C2619 C2618 1.363 . S
C2619 C2622 1.363 . S
N2620 C2622 1.356 . S
N2620 H2632 0.984 . S
N2620 H2633 0.985 . S
N2621 C2623 1.356 . S
N2621 H2626 0.984 . S
N2621 H2627 0.985 . S
C2622 C2616 1.379 . S
C2622 C2619 1.363 . S
C2622 N2620 1.356 . S
C2623 C2617 1.363 . S
C2623 C2618 1.379 . S
C2623 N2621 1.356 . S
N2624 C2616 1.356 . S
N2624 H2630 0.984 . S
N2624 H2631 0.984 . S
N2625 C2618 1.356 . S
N2625 H2628 0.984 . S
N2625 H2629 0.985 . S
H2626 N2621 0.984 . S
H2627 N2621 0.985 . S
H2628 N2625 0.984 . S
H2629 N2625 0.985 . S
H2630 N2624 0.984 . S
H2631 N2624 0.984 . S
H2632 N2620 0.984 . S
H2633 N2620 0.985 . S
C2634 C2635 1.363 . S
C2634 C2640 1.379 . S
C2634 N2642 1.356 . S
C2635 C2634 1.363 . S
C2635 C2641 1.363 . S
C2636 C2637 1.363 . S
C2636 C2641 1.379 . S
C2636 N2643 1.356 . S
C2637 C2636 1.363 . S
C2637 C2640 1.363 . S
N2638 C2640 1.356 . S
N2638 H2650 0.984 . S
N2638 H2651 0.985 . S
N2639 C2641 1.356 . S
N2639 H2644 0.984 . S
N2639 H2645 0.985 . S
C2640 C2634 1.379 . S
C2640 C2637 1.363 . S
C2640 N2638 1.356 . S
C2641 C2635 1.363 . S
C2641 C2636 1.379 . S
C2641 N2639 1.356 . S
N2642 C2634 1.356 . S
N2642 H2648 0.984 . S
N2642 H2649 0.984 . S
N2643 C2636 1.356 . S
N2643 H2646 0.984 . S
N2643 H2647 0.985 . S
H2644 N2639 0.984 . S
H2645 N2639 0.985 . S
H2646 N2643 0.984 . S
H2647 N2643 0.985 . S
H2648 N2642 0.984 . S
H2649 N2642 0.984 . S
H2650 N2638 0.984 . S
H2651 N2638 0.985 . S
C2652 C2653 1.363 . S
C2652 C2658 1.379 . S
C2652 N2660 1.356 . S
C2653 C2652 1.363 . S
C2653 C2659 1.363 . S
C2654 C2655 1.363 . S
C2654 C2659 1.379 . S
C2654 N2661 1.356 . S
C2655 C2654 1.363 . S
C2655 C2658 1.363 . S
N2656 C2658 1.356 . S
N2656 H2668 0.984 . S
N2656 H2669 0.985 . S
N2657 C2659 1.356 . S
N2657 H2662 0.984 . S
N2657 H2663 0.985 . S
C2658 C2652 1.379 . S
C2658 C2655 1.363 . S
C2658 N2656 1.356 . S
C2659 C2653 1.363 . S
C2659 C2654 1.379 . S
C2659 N2657 1.356 . S
N2660 C2652 1.356 . S
N2660 H2666 0.984 . S
N2660 H2667 0.984 . S
N2661 C2654 1.356 . S
N2661 H2664 0.984 . S
N2661 H2665 0.985 . S
H2662 N2657 0.984 . S
H2663 N2657 0.985 . S
H2664 N2661 0.984 . S
H2665 N2661 0.985 . S
H2666 N2660 0.984 . S
H2667 N2660 0.984 . S
H2668 N2656 0.984 . S
H2669 N2656 0.985 . S
C2670 C2671 1.363 . S
C2670 C2676 1.379 . S
C2670 N2678 1.356 . S
C2671 C2670 1.363 . S
C2671 C2677 1.363 . S
C2672 C2673 1.363 . S
C2672 C2677 1.379 . S
C2672 N2679 1.356 . S
C2673 C2672 1.363 . S
C2673 C2676 1.363 . S
N2674 C2676 1.356 . S
N2674 H2686 0.984 . S
N2674 H2687 0.985 . S
N2675 C2677 1.356 . S
N2675 H2680 0.984 . S
N2675 H2681 0.985 . S
C2676 C2670 1.379 . S
C2676 C2673 1.363 . S
C2676 N2674 1.356 . S
C2677 C2671 1.363 . S
C2677 C2672 1.379 . S
C2677 N2675 1.356 . S
N2678 C2670 1.356 . S
N2678 H2684 0.984 . S
N2678 H2685 0.984 . S
N2679 C2672 1.356 . S
N2679 H2682 0.984 . S
N2679 H2683 0.985 . S
H2680 N2675 0.984 . S
H2681 N2675 0.985 . S
H2682 N2679 0.984 . S
H2683 N2679 0.985 . S
H2684 N2678 0.984 . S
H2685 N2678 0.984 . S
H2686 N2674 0.984 . S
H2687 N2674 0.985 . S
C2688 C2689 1.363 . S
C2688 C2694 1.379 . S
C2688 N2696 1.356 . S
C2689 C2688 1.363 . S
C2689 C2695 1.363 . S
C2690 C2691 1.363 . S
C2690 C2695 1.379 . S
C2690 N2697 1.356 . S
C2691 C2690 1.363 . S
C2691 C2694 1.363 . S
N2692 C2694 1.356 . S
N2692 H2704 0.984 . S
N2692 H2705 0.985 . S
N2693 C2695 1.356 . S
N2693 H2698 0.984 . S
N2693 H2699 0.985 . S
C2694 C2688 1.379 . S
C2694 C2691 1.363 . S
C2694 N2692 1.356 . S
C2695 C2689 1.363 . S
C2695 C2690 1.379 . S
C2695 N2693 1.356 . S
N2696 C2688 1.356 . S
N2696 H2702 0.984 . S
N2696 H2703 0.984 . S
N2697 C2690 1.356 . S
N2697 H2700 0.984 . S
N2697 H2701 0.985 . S
H2698 N2693 0.984 . S
H2699 N2693 0.985 . S
H2700 N2697 0.984 . S
H2701 N2697 0.985 . S
H2702 N2696 0.984 . S
H2703 N2696 0.984 . S
H2704 N2692 0.984 . S
H2705 N2692 0.985 . S
C2706 C2707 1.363 . S
C2706 C2712 1.379 . S
C2706 N2714 1.356 . S
C2707 C2706 1.363 . S
C2707 C2713 1.363 . S
C2708 C2709 1.363 . S
C2708 C2713 1.379 . S
C2708 N2715 1.356 . S
C2709 C2708 1.363 . S
C2709 C2712 1.363 . S
N2710 C2712 1.356 . S
N2710 H2722 0.984 . S
N2710 H2723 0.985 . S
N2711 C2713 1.356 . S
N2711 H2716 0.984 . S
N2711 H2717 0.985 . S
C2712 C2706 1.379 . S
C2712 C2709 1.363 . S
C2712 N2710 1.356 . S
C2713 C2707 1.363 . S
C2713 C2708 1.379 . S
C2713 N2711 1.356 . S
N2714 C2706 1.356 . S
N2714 H2720 0.984 . S
N2714 H2721 0.984 . S
N2715 C2708 1.356 . S
N2715 H2718 0.984 . S
N2715 H2719 0.985 . S
H2716 N2711 0.984 . S
H2717 N2711 0.985 . S
H2718 N2715 0.984 . S
H2719 N2715 0.985 . S
H2720 N2714 0.984 . S
H2721 N2714 0.984 . S
H2722 N2710 0.984 . S
H2723 N2710 0.985 . S
C2724 C2725 1.363 . S
C2724 C2730 1.379 . S
C2724 N2732 1.356 . S
C2725 C2724 1.363 . S
C2725 C2731 1.363 . S
C2726 C2727 1.363 . S
C2726 C2731 1.379 . S
C2726 N2733 1.356 . S
C2727 C2726 1.363 . S
C2727 C2730 1.363 . S
N2728 C2730 1.356 . S
N2728 H2740 0.984 . S
N2728 H2741 0.985 . S
N2729 C2731 1.356 . S
N2729 H2734 0.984 . S
N2729 H2735 0.985 . S
C2730 C2724 1.379 . S
C2730 C2727 1.363 . S
C2730 N2728 1.356 . S
C2731 C2725 1.363 . S
C2731 C2726 1.379 . S
C2731 N2729 1.356 . S
N2732 C2724 1.356 . S
N2732 H2738 0.984 . S
N2732 H2739 0.984 . S
N2733 C2726 1.356 . S
N2733 H2736 0.984 . S
N2733 H2737 0.985 . S
H2734 N2729 0.984 . S
H2735 N2729 0.985 . S
H2736 N2733 0.984 . S
H2737 N2733 0.985 . S
H2738 N2732 0.984 . S
H2739 N2732 0.984 . S
H2740 N2728 0.984 . S
H2741 N2728 0.985 . S
C2742 C2743 1.363 . S
C2742 C2748 1.379 . S
C2742 N2750 1.356 . S
C2743 C2742 1.363 . S
C2743 C2749 1.363 . S
C2744 C2745 1.363 . S
C2744 C2749 1.379 . S
C2744 N2751 1.356 . S
C2745 C2744 1.363 . S
C2745 C2748 1.363 . S
N2746 C2748 1.356 . S
N2746 H2758 0.984 . S
N2746 H2759 0.985 . S
N2747 C2749 1.356 . S
N2747 H2752 0.984 . S
N2747 H2753 0.985 . S
C2748 C2742 1.379 . S
C2748 C2745 1.363 . S
C2748 N2746 1.356 . S
C2749 C2743 1.363 . S
C2749 C2744 1.379 . S
C2749 N2747 1.356 . S
N2750 C2742 1.356 . S
N2750 H2756 0.984 . S
N2750 H2757 0.984 . S
N2751 C2744 1.356 . S
N2751 H2754 0.984 . S
N2751 H2755 0.985 . S
H2752 N2747 0.984 . S
H2753 N2747 0.985 . S
H2754 N2751 0.984 . S
H2755 N2751 0.985 . S
H2756 N2750 0.984 . S
H2757 N2750 0.984 . S
H2758 N2746 0.984 . S
H2759 N2746 0.985 . S
C2760 C2761 1.363 . S
C2760 C2766 1.379 . S
C2760 N2768 1.356 . S
C2761 C2760 1.363 . S
C2761 C2767 1.363 . S
C2762 C2763 1.363 . S
C2762 C2767 1.379 . S
C2762 N2769 1.356 . S
C2763 C2762 1.363 . S
C2763 C2766 1.363 . S
N2764 C2766 1.356 . S
N2764 H2776 0.984 . S
N2764 H2777 0.985 . S
N2765 C2767 1.356 . S
N2765 H2770 0.984 . S
N2765 H2771 0.985 . S
C2766 C2760 1.379 . S
C2766 C2763 1.363 . S
C2766 N2764 1.356 . S
C2767 C2761 1.363 . S
C2767 C2762 1.379 . S
C2767 N2765 1.356 . S
N2768 C2760 1.356 . S
N2768 H2774 0.984 . S
N2768 H2775 0.984 . S
N2769 C2762 1.356 . S
N2769 H2772 0.984 . S
N2769 H2773 0.985 . S
H2770 N2765 0.984 . S
H2771 N2765 0.985 . S
H2772 N2769 0.984 . S
H2773 N2769 0.985 . S
H2774 N2768 0.984 . S
H2775 N2768 0.984 . S
H2776 N2764 0.984 . S
H2777 N2764 0.985 . S
C2778 C2779 1.363 . S
C2778 C2784 1.379 . S
C2778 N2786 1.356 . S
C2779 C2778 1.363 . S
C2779 C2785 1.363 . S
C2780 C2781 1.363 . S
C2780 C2785 1.379 . S
C2780 N2787 1.356 . S
C2781 C2780 1.363 . S
C2781 C2784 1.363 . S
N2782 C2784 1.356 . S
N2782 H2794 0.984 . S
N2782 H2795 0.985 . S
N2783 C2785 1.356 . S
N2783 H2788 0.984 . S
N2783 H2789 0.985 . S
C2784 C2778 1.379 . S
C2784 C2781 1.363 . S
C2784 N2782 1.356 . S
C2785 C2779 1.363 . S
C2785 C2780 1.379 . S
C2785 N2783 1.356 . S
N2786 C2778 1.356 . S
N2786 H2792 0.984 . S
N2786 H2793 0.984 . S
N2787 C2780 1.356 . S
N2787 H2790 0.984 . S
N2787 H2791 0.985 . S
H2788 N2783 0.984 . S
H2789 N2783 0.985 . S
H2790 N2787 0.984 . S
H2791 N2787 0.985 . S
H2792 N2786 0.984 . S
H2793 N2786 0.984 . S
H2794 N2782 0.984 . S
H2795 N2782 0.985 . S
C2796 C2797 1.363 . S
C2796 C2802 1.379 . S
C2796 N2804 1.356 . S
C2797 C2796 1.363 . S
C2797 C2803 1.363 . S
C2798 C2799 1.363 . S
C2798 C2803 1.379 . S
C2798 N2805 1.356 . S
C2799 C2798 1.363 . S
C2799 C2802 1.363 . S
N2800 C2802 1.356 . S
N2800 H2812 0.984 . S
N2800 H2813 0.985 . S
N2801 C2803 1.356 . S
N2801 H2806 0.984 . S
N2801 H2807 0.985 . S
C2802 C2796 1.379 . S
C2802 C2799 1.363 . S
C2802 N2800 1.356 . S
C2803 C2797 1.363 . S
C2803 C2798 1.379 . S
C2803 N2801 1.356 . S
N2804 C2796 1.356 . S
N2804 H2810 0.984 . S
N2804 H2811 0.984 . S
N2805 C2798 1.356 . S
N2805 H2808 0.984 . S
N2805 H2809 0.985 . S
H2806 N2801 0.984 . S
H2807 N2801 0.985 . S
H2808 N2805 0.984 . S
H2809 N2805 0.985 . S
H2810 N2804 0.984 . S
H2811 N2804 0.984 . S
H2812 N2800 0.984 . S
H2813 N2800 0.985 . S
C2814 C2815 1.363 . S
C2814 C2820 1.379 . S
C2814 N2822 1.356 . S
C2815 C2814 1.363 . S
C2815 C2821 1.363 . S
C2816 C2817 1.363 . S
C2816 C2821 1.379 . S
C2816 N2823 1.356 . S
C2817 C2816 1.363 . S
C2817 C2820 1.363 . S
N2818 C2820 1.356 . S
N2818 H2830 0.984 . S
N2818 H2831 0.985 . S
N2819 C2821 1.356 . S
N2819 H2824 0.984 . S
N2819 H2825 0.985 . S
C2820 C2814 1.379 . S
C2820 C2817 1.363 . S
C2820 N2818 1.356 . S
C2821 C2815 1.363 . S
C2821 C2816 1.379 . S
C2821 N2819 1.356 . S
N2822 C2814 1.356 . S
N2822 H2828 0.984 . S
N2822 H2829 0.984 . S
N2823 C2816 1.356 . S
N2823 H2826 0.984 . S
N2823 H2827 0.985 . S
H2824 N2819 0.984 . S
H2825 N2819 0.985 . S
H2826 N2823 0.984 . S
H2827 N2823 0.985 . S
H2828 N2822 0.984 . S
H2829 N2822 0.984 . S
H2830 N2818 0.984 . S
H2831 N2818 0.985 . S
C2832 C2833 1.363 . S
C2832 C2838 1.379 . S
C2832 N2840 1.356 . S
C2833 C2832 1.363 . S
C2833 C2839 1.363 . S
C2834 C2835 1.363 . S
C2834 C2839 1.379 . S
C2834 N2841 1.356 . S
C2835 C2834 1.363 . S
C2835 C2838 1.363 . S
N2836 C2838 1.356 . S
N2836 H2848 0.984 . S
N2836 H2849 0.985 . S
N2837 C2839 1.356 . S
N2837 H2842 0.984 . S
N2837 H2843 0.985 . S
C2838 C2832 1.379 . S
C2838 C2835 1.363 . S
C2838 N2836 1.356 . S
C2839 C2833 1.363 . S
C2839 C2834 1.379 . S
C2839 N2837 1.356 . S
N2840 C2832 1.356 . S
N2840 H2846 0.984 . S
N2840 H2847 0.984 . S
N2841 C2834 1.356 . S
N2841 H2844 0.984 . S
N2841 H2845 0.985 . S
H2842 N2837 0.984 . S
H2843 N2837 0.985 . S
H2844 N2841 0.984 . S
H2845 N2841 0.985 . S
H2846 N2840 0.984 . S
H2847 N2840 0.984 . S
H2848 N2836 0.984 . S
H2849 N2836 0.985 . S
C2850 C2851 1.363 . S
C2850 C2856 1.379 . S
C2850 N2858 1.356 . S
C2851 C2850 1.363 . S
C2851 C2857 1.363 . S
C2852 C2853 1.363 . S
C2852 C2857 1.379 . S
C2852 N2859 1.356 . S
C2853 C2852 1.363 . S
C2853 C2856 1.363 . S
N2854 C2856 1.356 . S
N2854 H2866 0.984 . S
N2854 H2867 0.985 . S
N2855 C2857 1.356 . S
N2855 H2860 0.984 . S
N2855 H2861 0.985 . S
C2856 C2850 1.379 . S
C2856 C2853 1.363 . S
C2856 N2854 1.356 . S
C2857 C2851 1.363 . S
C2857 C2852 1.379 . S
C2857 N2855 1.356 . S
N2858 C2850 1.356 . S
N2858 H2864 0.984 . S
N2858 H2865 0.984 . S
N2859 C2852 1.356 . S
N2859 H2862 0.984 . S
N2859 H2863 0.985 . S
H2860 N2855 0.984 . S
H2861 N2855 0.985 . S
H2862 N2859 0.984 . S
H2863 N2859 0.985 . S
H2864 N2858 0.984 . S
H2865 N2858 0.984 . S
H2866 N2854 0.984 . S
H2867 N2854 0.985 . S
C2868 C2869 1.363 . S
C2868 C2874 1.379 . S
C2868 N2876 1.356 . S
C2869 C2868 1.363 . S
C2869 C2875 1.363 . S
C2870 C2871 1.363 . S
C2870 C2875 1.379 . S
C2870 N2877 1.356 . S
C2871 C2870 1.363 . S
C2871 C2874 1.363 . S
N2872 C2874 1.356 . S
N2872 H2884 0.984 . S
N2872 H2885 0.985 . S
N2873 C2875 1.356 . S
N2873 H2878 0.984 . S
N2873 H2879 0.985 . S
C2874 C2868 1.379 . S
C2874 C2871 1.363 . S
C2874 N2872 1.356 . S
C2875 C2869 1.363 . S
C2875 C2870 1.379 . S
C2875 N2873 1.356 . S
N2876 C2868 1.356 . S
N2876 H2882 0.984 . S
N2876 H2883 0.984 . S
N2877 C2870 1.356 . S
N2877 H2880 0.984 . S
N2877 H2881 0.985 . S
H2878 N2873 0.984 . S
H2879 N2873 0.985 . S
H2880 N2877 0.984 . S
H2881 N2877 0.985 . S
H2882 N2876 0.984 . S
H2883 N2876 0.984 . S
H2884 N2872 0.984 . S
H2885 N2872 0.985 . S
C2886 C2887 1.363 . S
C2886 C2892 1.379 . S
C2886 N2894 1.356 . S
C2887 C2886 1.363 . S
C2887 C2893 1.363 . S
C2888 C2889 1.363 . S
C2888 C2893 1.379 . S
C2888 N2895 1.356 . S
C2889 C2888 1.363 . S
C2889 C2892 1.363 . S
N2890 C2892 1.356 . S
N2890 H2902 0.984 . S
N2890 H2903 0.985 . S
N2891 C2893 1.356 . S
N2891 H2896 0.984 . S
N2891 H2897 0.985 . S
C2892 C2886 1.379 . S
C2892 C2889 1.363 . S
C2892 N2890 1.356 . S
C2893 C2887 1.363 . S
C2893 C2888 1.379 . S
C2893 N2891 1.356 . S
N2894 C2886 1.356 . S
N2894 H2900 0.984 . S
N2894 H2901 0.984 . S
N2895 C2888 1.356 . S
N2895 H2898 0.984 . S
N2895 H2899 0.985 . S
H2896 N2891 0.984 . S
H2897 N2891 0.985 . S
H2898 N2895 0.984 . S
H2899 N2895 0.985 . S
H2900 N2894 0.984 . S
H2901 N2894 0.984 . S
H2902 N2890 0.984 . S
H2903 N2890 0.985 . S
C2904 C2905 1.363 . S
C2904 C2910 1.379 . S
C2904 N2912 1.356 . S
C2905 C2904 1.363 . S
C2905 C2911 1.363 . S
C2906 C2907 1.363 . S
C2906 C2911 1.379 . S
C2906 N2913 1.356 . S
C2907 C2906 1.363 . S
C2907 C2910 1.363 . S
N2908 C2910 1.356 . S
N2908 H2920 0.984 . S
N2908 H2921 0.985 . S
N2909 C2911 1.356 . S
N2909 H2914 0.984 . S
N2909 H2915 0.985 . S
C2910 C2904 1.379 . S
C2910 C2907 1.363 . S
C2910 N2908 1.356 . S
C2911 C2905 1.363 . S
C2911 C2906 1.379 . S
C2911 N2909 1.356 . S
N2912 C2904 1.356 . S
N2912 H2918 0.984 . S
N2912 H2919 0.984 . S
N2913 C2906 1.356 . S
N2913 H2916 0.984 . S
N2913 H2917 0.985 . S
H2914 N2909 0.984 . S
H2915 N2909 0.985 . S
H2916 N2913 0.984 . S
H2917 N2913 0.985 . S
H2918 N2912 0.984 . S
H2919 N2912 0.984 . S
H2920 N2908 0.984 . S
H2921 N2908 0.985 . S
C2922 C2923 1.363 . S
C2922 C2928 1.379 . S
C2922 N2930 1.356 . S
C2923 C2922 1.363 . S
C2923 C2929 1.363 . S
C2924 C2925 1.363 . S
C2924 C2929 1.379 . S
C2924 N2931 1.356 . S
C2925 C2924 1.363 . S
C2925 C2928 1.363 . S
N2926 C2928 1.356 . S
N2926 H2938 0.984 . S
N2926 H2939 0.985 . S
N2927 C2929 1.356 . S
N2927 H2932 0.984 . S
N2927 H2933 0.985 . S
C2928 C2922 1.379 . S
C2928 C2925 1.363 . S
C2928 N2926 1.356 . S
C2929 C2923 1.363 . S
C2929 C2924 1.379 . S
C2929 N2927 1.356 . S
N2930 C2922 1.356 . S
N2930 H2936 0.984 . S
N2930 H2937 0.984 . S
N2931 C2924 1.356 . S
N2931 H2934 0.984 . S
N2931 H2935 0.985 . S
H2932 N2927 0.984 . S
H2933 N2927 0.985 . S
H2934 N2931 0.984 . S
H2935 N2931 0.985 . S
H2936 N2930 0.984 . S
H2937 N2930 0.984 . S
H2938 N2926 0.984 . S
H2939 N2926 0.985 . S
C2940 C2941 1.363 . S
C2940 C2946 1.379 . S
C2940 N2948 1.356 . S
C2941 C2940 1.363 . S
C2941 C2947 1.363 . S
C2942 C2943 1.363 . S
C2942 C2947 1.379 . S
C2942 N2949 1.356 . S
C2943 C2942 1.363 . S
C2943 C2946 1.363 . S
N2944 C2946 1.356 . S
N2944 H2956 0.984 . S
N2944 H2957 0.985 . S
N2945 C2947 1.356 . S
N2945 H2950 0.984 . S
N2945 H2951 0.985 . S
C2946 C2940 1.379 . S
C2946 C2943 1.363 . S
C2946 N2944 1.356 . S
C2947 C2941 1.363 . S
C2947 C2942 1.379 . S
C2947 N2945 1.356 . S
N2948 C2940 1.356 . S
N2948 H2954 0.984 . S
N2948 H2955 0.984 . S
N2949 C2942 1.356 . S
N2949 H2952 0.984 . S
N2949 H2953 0.985 . S
H2950 N2945 0.984 . S
H2951 N2945 0.985 . S
H2952 N2949 0.984 . S
H2953 N2949 0.985 . S
H2954 N2948 0.984 . S
H2955 N2948 0.984 . S
H2956 N2944 0.984 . S
H2957 N2944 0.985 . S
C2958 C2959 1.363 . S
C2958 C2964 1.379 . S
C2958 N2966 1.356 . S
C2959 C2958 1.363 . S
C2959 C2965 1.363 . S
C2960 C2961 1.363 . S
C2960 C2965 1.379 . S
C2960 N2967 1.356 . S
C2961 C2960 1.363 . S
C2961 C2964 1.363 . S
N2962 C2964 1.356 . S
N2962 H2974 0.984 . S
N2962 H2975 0.985 . S
N2963 C2965 1.356 . S
N2963 H2968 0.984 . S
N2963 H2969 0.985 . S
C2964 C2958 1.379 . S
C2964 C2961 1.363 . S
C2964 N2962 1.356 . S
C2965 C2959 1.363 . S
C2965 C2960 1.379 . S
C2965 N2963 1.356 . S
N2966 C2958 1.356 . S
N2966 H2972 0.984 . S
N2966 H2973 0.984 . S
N2967 C2960 1.356 . S
N2967 H2970 0.984 . S
N2967 H2971 0.985 . S
H2968 N2963 0.984 . S
H2969 N2963 0.985 . S
H2970 N2967 0.984 . S
H2971 N2967 0.985 . S
H2972 N2966 0.984 . S
H2973 N2966 0.984 . S
H2974 N2962 0.984 . S
H2975 N2962 0.985 . S
C2976 C2977 1.363 . S
C2976 C2982 1.379 1_455 S
C2976 N2984 1.356 . S
C2977 C2976 1.363 . S
C2977 C2983 1.363 . S
C2978 C2979 1.363 . S
C2978 C2983 1.379 1_655 S
C2978 N2985 1.356 . S
C2979 C2978 1.363 . S
C2979 C2982 1.363 . S
N2980 C2982 1.356 . S
N2980 H2992 0.984 . S
N2980 H2993 0.985 . S
N2981 C2983 1.356 . S
N2981 H2986 0.984 . S
N2981 H2987 0.985 . S
C2982 C2976 1.379 1_655 S
C2982 C2979 1.363 . S
C2982 N2980 1.356 . S
C2983 C2977 1.363 . S
C2983 C2978 1.379 1_455 S
C2983 N2981 1.356 . S
N2984 C2976 1.356 . S
N2984 H2990 0.984 . S
N2984 H2991 0.984 . S
N2985 C2978 1.356 . S
N2985 H2988 0.984 . S
N2985 H2989 0.985 . S
H2986 N2981 0.984 . S
H2987 N2981 0.985 . S
H2988 N2985 0.984 . S
H2989 N2985 0.985 . S
H2990 N2984 0.984 . S
H2991 N2984 0.984 . S
H2992 N2980 0.984 . S
H2993 N2980 0.985 . S
C2994 C2995 1.363 . S
C2994 C3000 1.379 1_545 S
C2994 N3002 1.356 . S
C2995 C2994 1.363 . S
C2995 C3001 1.363 . S
C2996 C2997 1.363 . S
C2996 C3001 1.379 1_565 S
C2996 N3003 1.356 . S
C2997 C2996 1.363 . S
C2997 C3000 1.363 . S
N2998 C3000 1.356 . S
N2998 H3010 0.984 . S
N2998 H3011 0.985 . S
N2999 C3001 1.356 . S
N2999 H3004 0.984 . S
N2999 H3005 0.985 . S
C3000 C2994 1.379 1_565 S
C3000 C2997 1.363 . S
C3000 N2998 1.356 . S
C3001 C2995 1.363 . S
C3001 C2996 1.379 1_545 S
C3001 N2999 1.356 . S
N3002 C2994 1.356 . S
N3002 H3008 0.984 . S
N3002 H3009 0.984 . S
N3003 C2996 1.356 . S
N3003 H3006 0.984 . S
N3003 H3007 0.985 . S
H3004 N2999 0.984 . S
H3005 N2999 0.985 . S
H3006 N3003 0.984 . S
H3007 N3003 0.985 . S
H3008 N3002 0.984 . S
H3009 N3002 0.984 . S
H3010 N2998 0.984 . S
H3011 N2998 0.985 . S
C3012 C3013 1.363 . S
C3012 C3018 1.379 1_655 S
C3012 N3020 1.356 . S
C3013 C3012 1.363 . S
C3013 C3019 1.363 . S
C3014 C3015 1.363 . S
C3014 C3019 1.379 1_455 S
C3014 N3021 1.356 . S
C3015 C3014 1.363 . S
C3015 C3018 1.363 . S
N3016 C3018 1.356 . S
N3016 H3028 0.984 . S
N3016 H3029 0.985 . S
N3017 C3019 1.356 . S
N3017 H3022 0.984 . S
N3017 H3023 0.985 . S
C3018 C3012 1.379 1_455 S
C3018 C3015 1.363 . S
C3018 N3016 1.356 . S
C3019 C3013 1.363 . S
C3019 C3014 1.379 1_655 S
C3019 N3017 1.356 . S
N3020 C3012 1.356 . S
N3020 H3026 0.984 . S
N3020 H3027 0.984 . S
N3021 C3014 1.356 . S
N3021 H3024 0.984 . S
N3021 H3025 0.985 . S
H3022 N3017 0.984 . S
H3023 N3017 0.985 . S
H3024 N3021 0.984 . S
H3025 N3021 0.985 . S
H3026 N3020 0.984 . S
H3027 N3020 0.984 . S
H3028 N3016 0.984 . S
H3029 N3016 0.985 . S
C3030 C3031 1.363 . S
C3030 C3036 1.379 1_565 S
C3030 N3038 1.356 . S
C3031 C3030 1.363 . S
C3031 C3037 1.363 . S
C3032 C3033 1.363 . S
C3032 C3037 1.379 1_545 S
C3032 N3039 1.356 . S
C3033 C3032 1.363 . S
C3033 C3036 1.363 . S
N3034 C3036 1.356 . S
N3034 H3046 0.984 . S
N3034 H3047 0.985 . S
N3035 C3037 1.356 . S
N3035 H3040 0.984 . S
N3035 H3041 0.985 . S
C3036 C3030 1.379 1_545 S
C3036 C3033 1.363 . S
C3036 N3034 1.356 . S
C3037 C3031 1.363 . S
C3037 C3032 1.379 1_565 S
C3037 N3035 1.356 . S
N3038 C3030 1.356 . S
N3038 H3044 0.984 . S
N3038 H3045 0.984 . S
N3039 C3032 1.356 . S
N3039 H3042 0.984 . S
N3039 H3043 0.985 . S
H3040 N3035 0.984 . S
H3041 N3035 0.985 . S
H3042 N3039 0.984 . S
H3043 N3039 0.985 . S
H3044 N3038 0.984 . S
H3045 N3038 0.984 . S
H3046 N3034 0.984 . S
H3047 N3034 0.985 . S
C3048 C3049 1.363 . S
C3048 C3054 1.379 1_655 S
C3048 N3056 1.356 . S
C3049 C3048 1.363 . S
C3049 C3055 1.363 . S
C3050 C3051 1.363 . S
C3050 C3055 1.379 1_455 S
C3050 N3057 1.356 . S
C3051 C3050 1.363 . S
C3051 C3054 1.363 . S
N3052 C3054 1.356 . S
N3052 H3064 0.984 . S
N3052 H3065 0.985 . S
N3053 C3055 1.356 . S
N3053 H3058 0.984 . S
N3053 H3059 0.985 . S
C3054 C3048 1.379 1_455 S
C3054 C3051 1.363 . S
C3054 N3052 1.356 . S
C3055 C3049 1.363 . S
C3055 C3050 1.379 1_655 S
C3055 N3053 1.356 . S
N3056 C3048 1.356 . S
N3056 H3062 0.984 . S
N3056 H3063 0.984 . S
N3057 C3050 1.356 . S
N3057 H3060 0.984 . S
N3057 H3061 0.985 . S
H3058 N3053 0.984 . S
H3059 N3053 0.985 . S
H3060 N3057 0.984 . S
H3061 N3057 0.985 . S
H3062 N3056 0.984 . S
H3063 N3056 0.984 . S
H3064 N3052 0.984 . S
H3065 N3052 0.985 . S
C3066 C3067 1.363 . S
C3066 C3072 1.379 1_545 S
C3066 N3074 1.356 . S
C3067 C3066 1.363 . S
C3067 C3073 1.363 . S
C3068 C3069 1.363 . S
C3068 C3073 1.379 1_565 S
C3068 N3075 1.356 . S
C3069 C3068 1.363 . S
C3069 C3072 1.363 . S
N3070 C3072 1.356 . S
N3070 H3082 0.984 . S
N3070 H3083 0.985 . S
N3071 C3073 1.356 . S
N3071 H3076 0.984 . S
N3071 H3077 0.985 . S
C3072 C3066 1.379 1_565 S
C3072 C3069 1.363 . S
C3072 N3070 1.356 . S
C3073 C3067 1.363 . S
C3073 C3068 1.379 1_545 S
C3073 N3071 1.356 . S
N3074 C3066 1.356 . S
N3074 H3080 0.984 . S
N3074 H3081 0.984 . S
N3075 C3068 1.356 . S
N3075 H3078 0.984 . S
N3075 H3079 0.985 . S
H3076 N3071 0.984 . S
H3077 N3071 0.985 . S
H3078 N3075 0.984 . S
H3079 N3075 0.985 . S
H3080 N3074 0.984 . S
H3081 N3074 0.984 . S
H3082 N3070 0.984 . S
H3083 N3070 0.985 . S
C3084 C3085 1.363 . S
C3084 C3090 1.379 1_455 S
C3084 N3092 1.356 . S
C3085 C3084 1.363 . S
C3085 C3091 1.363 . S
C3086 C3087 1.363 . S
C3086 C3091 1.379 1_655 S
C3086 N3093 1.356 . S
C3087 C3086 1.363 . S
C3087 C3090 1.363 . S
N3088 C3090 1.356 . S
N3088 H3100 0.984 . S
N3088 H3101 0.985 . S
N3089 C3091 1.356 . S
N3089 H3094 0.984 . S
N3089 H3095 0.985 . S
C3090 C3084 1.379 1_655 S
C3090 C3087 1.363 . S
C3090 N3088 1.356 . S
C3091 C3085 1.363 . S
C3091 C3086 1.379 1_455 S
C3091 N3089 1.356 . S
N3092 C3084 1.356 . S
N3092 H3098 0.984 . S
N3092 H3099 0.984 . S
N3093 C3086 1.356 . S
N3093 H3096 0.984 . S
N3093 H3097 0.985 . S
H3094 N3089 0.984 . S
H3095 N3089 0.985 . S
H3096 N3093 0.984 . S
H3097 N3093 0.985 . S
H3098 N3092 0.984 . S
H3099 N3092 0.984 . S
H3100 N3088 0.984 . S
H3101 N3088 0.985 . S
C3102 C3103 1.363 . S
C3102 C3108 1.379 1_545 S
C3102 N3110 1.356 . S
C3103 C3102 1.363 . S
C3103 C3109 1.363 . S
C3104 C3105 1.363 . S
C3104 C3109 1.379 1_565 S
C3104 N3111 1.356 . S
C3105 C3104 1.363 . S
C3105 C3108 1.363 . S
N3106 C3108 1.356 . S
N3106 H3118 0.984 . S
N3106 H3119 0.985 . S
N3107 C3109 1.356 . S
N3107 H3112 0.984 . S
N3107 H3113 0.985 . S
C3108 C3102 1.379 1_565 S
C3108 C3105 1.363 . S
C3108 N3106 1.356 . S
C3109 C3103 1.363 . S
C3109 C3104 1.379 1_545 S
C3109 N3107 1.356 . S
N3110 C3102 1.356 . S
N3110 H3116 0.984 . S
N3110 H3117 0.984 . S
N3111 C3104 1.356 . S
N3111 H3114 0.984 . S
N3111 H3115 0.985 . S
H3112 N3107 0.984 . S
H3113 N3107 0.985 . S
H3114 N3111 0.984 . S
H3115 N3111 0.985 . S
H3116 N3110 0.984 . S
H3117 N3110 0.984 . S
H3118 N3106 0.984 . S
H3119 N3106 0.985 . S
C3120 C3121 1.363 . S
C3120 C3126 1.379 1_545 S
C3120 N3128 1.356 . S
C3121 C3120 1.363 . S
C3121 C3127 1.363 . S
C3122 C3123 1.363 . S
C3122 C3127 1.379 1_565 S
C3122 N3129 1.356 . S
C3123 C3122 1.363 . S
C3123 C3126 1.363 . S
N3124 C3126 1.356 . S
N3124 H3136 0.984 . S
N3124 H3137 0.985 . S
N3125 C3127 1.356 . S
N3125 H3130 0.984 . S
N3125 H3131 0.985 . S
C3126 C3120 1.379 1_565 S
C3126 C3123 1.363 . S
C3126 N3124 1.356 . S
C3127 C3121 1.363 . S
C3127 C3122 1.379 1_545 S
C3127 N3125 1.356 . S
N3128 C3120 1.356 . S
N3128 H3134 0.984 . S
N3128 H3135 0.984 . S
N3129 C3122 1.356 . S
N3129 H3132 0.984 . S
N3129 H3133 0.985 . S
H3130 N3125 0.984 . S
H3131 N3125 0.985 . S
H3132 N3129 0.984 . S
H3133 N3129 0.985 . S
H3134 N3128 0.984 . S
H3135 N3128 0.984 . S
H3136 N3124 0.984 . S
H3137 N3124 0.985 . S
C3138 C3139 1.363 . S
C3138 C3144 1.379 1_455 S
C3138 N3146 1.356 . S
C3139 C3138 1.363 . S
C3139 C3145 1.363 . S
C3140 C3141 1.363 . S
C3140 C3145 1.379 1_655 S
C3140 N3147 1.356 . S
C3141 C3140 1.363 . S
C3141 C3144 1.363 . S
N3142 C3144 1.356 . S
N3142 H3154 0.984 . S
N3142 H3155 0.985 . S
N3143 C3145 1.356 . S
N3143 H3148 0.984 . S
N3143 H3149 0.985 . S
C3144 C3138 1.379 1_655 S
C3144 C3141 1.363 . S
C3144 N3142 1.356 . S
C3145 C3139 1.363 . S
C3145 C3140 1.379 1_455 S
C3145 N3143 1.356 . S
N3146 C3138 1.356 . S
N3146 H3152 0.984 . S
N3146 H3153 0.984 . S
N3147 C3140 1.356 . S
N3147 H3150 0.984 . S
N3147 H3151 0.985 . S
H3148 N3143 0.984 . S
H3149 N3143 0.985 . S
H3150 N3147 0.984 . S
H3151 N3147 0.985 . S
H3152 N3146 0.984 . S
H3153 N3146 0.984 . S
H3154 N3142 0.984 . S
H3155 N3142 0.985 . S
C3156 C3157 1.363 . S
C3156 C3162 1.379 1_565 S
C3156 N3164 1.356 . S
C3157 C3156 1.363 . S
C3157 C3163 1.363 . S
C3158 C3159 1.363 . S
C3158 C3163 1.379 1_545 S
C3158 N3165 1.356 . S
C3159 C3158 1.363 . S
C3159 C3162 1.363 . S
N3160 C3162 1.356 . S
N3160 H3172 0.984 . S
N3160 H3173 0.985 . S
N3161 C3163 1.356 . S
N3161 H3166 0.984 . S
N3161 H3167 0.985 . S
C3162 C3156 1.379 1_545 S
C3162 C3159 1.363 . S
C3162 N3160 1.356 . S
C3163 C3157 1.363 . S
C3163 C3158 1.379 1_565 S
C3163 N3161 1.356 . S
N3164 C3156 1.356 . S
N3164 H3170 0.984 . S
N3164 H3171 0.984 . S
N3165 C3158 1.356 . S
N3165 H3168 0.984 . S
N3165 H3169 0.985 . S
H3166 N3161 0.984 . S
H3167 N3161 0.985 . S
H3168 N3165 0.984 . S
H3169 N3165 0.985 . S
H3170 N3164 0.984 . S
H3171 N3164 0.984 . S
H3172 N3160 0.984 . S
H3173 N3160 0.985 . S
C3174 C3175 1.363 . S
C3174 C3180 1.379 1_455 S
C3174 N3182 1.356 . S
C3175 C3174 1.363 . S
C3175 C3181 1.363 . S
C3176 C3177 1.363 . S
C3176 C3181 1.379 1_655 S
C3176 N3183 1.356 . S
C3177 C3176 1.363 . S
C3177 C3180 1.363 . S
N3178 C3180 1.356 . S
N3178 H3190 0.984 . S
N3178 H3191 0.985 . S
N3179 C3181 1.356 . S
N3179 H3184 0.984 . S
N3179 H3185 0.985 . S
C3180 C3174 1.379 1_655 S
C3180 C3177 1.363 . S
C3180 N3178 1.356 . S
C3181 C3175 1.363 . S
C3181 C3176 1.379 1_455 S
C3181 N3179 1.356 . S
N3182 C3174 1.356 . S
N3182 H3188 0.984 . S
N3182 H3189 0.984 . S
N3183 C3176 1.356 . S
N3183 H3186 0.984 . S
N3183 H3187 0.985 . S
H3184 N3179 0.984 . S
H3185 N3179 0.985 . S
H3186 N3183 0.984 . S
H3187 N3183 0.985 . S
H3188 N3182 0.984 . S
H3189 N3182 0.984 . S
H3190 N3178 0.984 . S
H3191 N3178 0.985 . S
C3192 C3193 1.363 . S
C3192 C3198 1.379 1_565 S
C3192 N3200 1.356 . S
C3193 C3192 1.363 . S
C3193 C3199 1.363 . S
C3194 C3195 1.363 . S
C3194 C3199 1.379 1_545 S
C3194 N3201 1.356 . S
C3195 C3194 1.363 . S
C3195 C3198 1.363 . S
N3196 C3198 1.356 . S
N3196 H3208 0.984 . S
N3196 H3209 0.985 . S
N3197 C3199 1.356 . S
N3197 H3202 0.984 . S
N3197 H3203 0.985 . S
C3198 C3192 1.379 1_545 S
C3198 C3195 1.363 . S
C3198 N3196 1.356 . S
C3199 C3193 1.363 . S
C3199 C3194 1.379 1_565 S
C3199 N3197 1.356 . S
N3200 C3192 1.356 . S
N3200 H3206 0.984 . S
N3200 H3207 0.984 . S
N3201 C3194 1.356 . S
N3201 H3204 0.984 . S
N3201 H3205 0.985 . S
H3202 N3197 0.984 . S
H3203 N3197 0.985 . S
H3204 N3201 0.984 . S
H3205 N3201 0.985 . S
H3206 N3200 0.984 . S
H3207 N3200 0.984 . S
H3208 N3196 0.984 . S
H3209 N3196 0.985 . S
C3210 C3211 1.363 . S
C3210 C3216 1.379 1_455 S
C3210 N3218 1.356 . S
C3211 C3210 1.363 . S
C3211 C3217 1.363 . S
C3212 C3213 1.363 . S
C3212 C3217 1.379 1_655 S
C3212 N3219 1.356 . S
C3213 C3212 1.363 . S
C3213 C3216 1.363 . S
N3214 C3216 1.356 . S
N3214 H3226 0.984 . S
N3214 H3227 0.985 . S
N3215 C3217 1.356 . S
N3215 H3220 0.984 . S
N3215 H3221 0.985 . S
C3216 C3210 1.379 1_655 S
C3216 C3213 1.363 . S
C3216 N3214 1.356 . S
C3217 C3211 1.363 . S
C3217 C3212 1.379 1_455 S
C3217 N3215 1.356 . S
N3218 C3210 1.356 . S
N3218 H3224 0.984 . S
N3218 H3225 0.984 . S
N3219 C3212 1.356 . S
N3219 H3222 0.984 . S
N3219 H3223 0.985 . S
H3220 N3215 0.984 . S
H3221 N3215 0.985 . S
H3222 N3219 0.984 . S
H3223 N3219 0.985 . S
H3224 N3218 0.984 . S
H3225 N3218 0.984 . S
H3226 N3214 0.984 . S
H3227 N3214 0.985 . S
C3228 C3229 1.363 . S
C3228 C3234 1.379 1_545 S
C3228 N3236 1.356 . S
C3229 C3228 1.363 . S
C3229 C3235 1.363 . S
C3230 C3231 1.363 . S
C3230 C3235 1.379 1_565 S
C3230 N3237 1.356 . S
C3231 C3230 1.363 . S
C3231 C3234 1.363 . S
N3232 C3234 1.356 . S
N3232 H3244 0.984 . S
N3232 H3245 0.985 . S
N3233 C3235 1.356 . S
N3233 H3238 0.984 . S
N3233 H3239 0.985 . S
C3234 C3228 1.379 1_565 S
C3234 C3231 1.363 . S
C3234 N3232 1.356 . S
C3235 C3229 1.363 . S
C3235 C3230 1.379 1_545 S
C3235 N3233 1.356 . S
N3236 C3228 1.356 . S
N3236 H3242 0.984 . S
N3236 H3243 0.984 . S
N3237 C3230 1.356 . S
N3237 H3240 0.984 . S
N3237 H3241 0.985 . S
H3238 N3233 0.984 . S
H3239 N3233 0.985 . S
H3240 N3237 0.984 . S
H3241 N3237 0.985 . S
H3242 N3236 0.984 . S
H3243 N3236 0.984 . S
H3244 N3232 0.984 . S
H3245 N3232 0.985 . S
C3246 C3247 1.363 . S
C3246 C3252 1.379 1_455 S
C3246 N3254 1.356 . S
C3247 C3246 1.363 . S
C3247 C3253 1.363 . S
C3248 C3249 1.363 . S
C3248 C3253 1.379 1_655 S
C3248 N3255 1.356 . S
C3249 C3248 1.363 . S
C3249 C3252 1.363 . S
N3250 C3252 1.356 . S
N3250 H3262 0.984 . S
N3250 H3263 0.985 . S
N3251 C3253 1.356 . S
N3251 H3256 0.984 . S
N3251 H3257 0.985 . S
C3252 C3246 1.379 1_655 S
C3252 C3249 1.363 . S
C3252 N3250 1.356 . S
C3253 C3247 1.363 . S
C3253 C3248 1.379 1_455 S
C3253 N3251 1.356 . S
N3254 C3246 1.356 . S
N3254 H3260 0.984 . S
N3254 H3261 0.984 . S
N3255 C3248 1.356 . S
N3255 H3258 0.984 . S
N3255 H3259 0.985 . S
H3256 N3251 0.984 . S
H3257 N3251 0.985 . S
H3258 N3255 0.984 . S
H3259 N3255 0.985 . S
H3260 N3254 0.984 . S
H3261 N3254 0.984 . S
H3262 N3250 0.984 . S
H3263 N3250 0.985 . S
C3264 C3265 1.363 . S
C3264 C3270 1.379 1_554 S
C3264 N3272 1.356 . S
C3265 C3264 1.363 . S
C3265 C3271 1.363 . S
C3266 C3267 1.363 . S
C3266 C3271 1.379 1_556 S
C3266 N3273 1.356 . S
C3267 C3266 1.363 . S
C3267 C3270 1.363 . S
N3268 C3270 1.356 . S
N3268 H3280 0.984 . S
N3268 H3281 0.985 . S
N3269 C3271 1.356 . S
N3269 H3274 0.984 . S
N3269 H3275 0.985 . S
C3270 C3264 1.379 1_556 S
C3270 C3267 1.363 . S
C3270 N3268 1.356 . S
C3271 C3265 1.363 . S
C3271 C3266 1.379 1_554 S
C3271 N3269 1.356 . S
N3272 C3264 1.356 . S
N3272 H3278 0.984 . S
N3272 H3279 0.984 . S
N3273 C3266 1.356 . S
N3273 H3276 0.984 . S
N3273 H3277 0.985 . S
H3274 N3269 0.984 . S
H3275 N3269 0.985 . S
H3276 N3273 0.984 . S
H3277 N3273 0.985 . S
H3278 N3272 0.984 . S
H3279 N3272 0.984 . S
H3280 N3268 0.984 . S
H3281 N3268 0.985 . S
C3282 C3283 1.363 . S
C3282 C3288 1.379 1_556 S
C3282 N3290 1.356 . S
C3283 C3282 1.363 . S
C3283 C3289 1.363 . S
C3284 C3285 1.363 . S
C3284 C3289 1.379 1_554 S
C3284 N3291 1.356 . S
C3285 C3284 1.363 . S
C3285 C3288 1.363 . S
N3286 C3288 1.356 . S
N3286 H3298 0.984 . S
N3286 H3299 0.985 . S
N3287 C3289 1.356 . S
N3287 H3292 0.984 . S
N3287 H3293 0.985 . S
C3288 C3282 1.379 1_554 S
C3288 C3285 1.363 . S
C3288 N3286 1.356 . S
C3289 C3283 1.363 . S
C3289 C3284 1.379 1_556 S
C3289 N3287 1.356 . S
N3290 C3282 1.356 . S
N3290 H3296 0.984 . S
N3290 H3297 0.984 . S
N3291 C3284 1.356 . S
N3291 H3294 0.984 . S
N3291 H3295 0.985 . S
H3292 N3287 0.984 . S
H3293 N3287 0.985 . S
H3294 N3291 0.984 . S
H3295 N3291 0.985 . S
H3296 N3290 0.984 . S
H3297 N3290 0.984 . S
H3298 N3286 0.984 . S
H3299 N3286 0.985 . S
C3300 C3301 1.363 . S
C3300 C3306 1.379 1_554 S
C3300 N3308 1.356 . S
C3301 C3300 1.363 . S
C3301 C3307 1.363 . S
C3302 C3303 1.363 . S
C3302 C3307 1.379 1_556 S
C3302 N3309 1.356 . S
C3303 C3302 1.363 . S
C3303 C3306 1.363 . S
N3304 C3306 1.356 . S
N3304 H3316 0.984 . S
N3304 H3317 0.985 . S
N3305 C3307 1.356 . S
N3305 H3310 0.984 . S
N3305 H3311 0.985 . S
C3306 C3300 1.379 1_556 S
C3306 C3303 1.363 . S
C3306 N3304 1.356 . S
C3307 C3301 1.363 . S
C3307 C3302 1.379 1_554 S
C3307 N3305 1.356 . S
N3308 C3300 1.356 . S
N3308 H3314 0.984 . S
N3308 H3315 0.984 . S
N3309 C3302 1.356 . S
N3309 H3312 0.984 . S
N3309 H3313 0.985 . S
H3310 N3305 0.984 . S
H3311 N3305 0.985 . S
H3312 N3309 0.984 . S
H3313 N3309 0.985 . S
H3314 N3308 0.984 . S
H3315 N3308 0.984 . S
H3316 N3304 0.984 . S
H3317 N3304 0.985 . S
C3318 C3319 1.363 . S
C3318 C3324 1.379 1_556 S
C3318 N3326 1.356 . S
C3319 C3318 1.363 . S
C3319 C3325 1.363 . S
C3320 C3321 1.363 . S
C3320 C3325 1.379 1_554 S
C3320 N3327 1.356 . S
C3321 C3320 1.363 . S
C3321 C3324 1.363 . S
N3322 C3324 1.356 . S
N3322 H3334 0.984 . S
N3322 H3335 0.985 . S
N3323 C3325 1.356 . S
N3323 H3328 0.984 . S
N3323 H3329 0.985 . S
C3324 C3318 1.379 1_554 S
C3324 C3321 1.363 . S
C3324 N3322 1.356 . S
C3325 C3319 1.363 . S
C3325 C3320 1.379 1_556 S
C3325 N3323 1.356 . S
N3326 C3318 1.356 . S
N3326 H3332 0.984 . S
N3326 H3333 0.984 . S
N3327 C3320 1.356 . S
N3327 H3330 0.984 . S
N3327 H3331 0.985 . S
H3328 N3323 0.984 . S
H3329 N3323 0.985 . S
H3330 N3327 0.984 . S
H3331 N3327 0.985 . S
H3332 N3326 0.984 . S
H3333 N3326 0.984 . S
H3334 N3322 0.984 . S
H3335 N3322 0.985 . S
C3336 C3337 1.363 . S
C3336 C3342 1.379 1_554 S
C3336 N3344 1.356 . S
C3337 C3336 1.363 . S
C3337 C3343 1.363 . S
C3338 C3339 1.363 . S
C3338 C3343 1.379 1_556 S
C3338 N3345 1.356 . S
C3339 C3338 1.363 . S
C3339 C3342 1.363 . S
N3340 C3342 1.356 . S
N3340 H3352 0.984 . S
N3340 H3353 0.985 . S
N3341 C3343 1.356 . S
N3341 H3346 0.984 . S
N3341 H3347 0.985 . S
C3342 C3336 1.379 1_556 S
C3342 C3339 1.363 . S
C3342 N3340 1.356 . S
C3343 C3337 1.363 . S
C3343 C3338 1.379 1_554 S
C3343 N3341 1.356 . S
N3344 C3336 1.356 . S
N3344 H3350 0.984 . S
N3344 H3351 0.984 . S
N3345 C3338 1.356 . S
N3345 H3348 0.984 . S
N3345 H3349 0.985 . S
H3346 N3341 0.984 . S
H3347 N3341 0.985 . S
H3348 N3345 0.984 . S
H3349 N3345 0.985 . S
H3350 N3344 0.984 . S
H3351 N3344 0.984 . S
H3352 N3340 0.984 . S
H3353 N3340 0.985 . S
C3354 C3355 1.363 . S
C3354 C3360 1.379 1_554 S
C3354 N3362 1.356 . S
C3355 C3354 1.363 . S
C3355 C3361 1.363 . S
C3356 C3357 1.363 . S
C3356 C3361 1.379 1_556 S
C3356 N3363 1.356 . S
C3357 C3356 1.363 . S
C3357 C3360 1.363 . S
N3358 C3360 1.356 . S
N3358 H3370 0.984 . S
N3358 H3371 0.985 . S
N3359 C3361 1.356 . S
N3359 H3364 0.984 . S
N3359 H3365 0.985 . S
C3360 C3354 1.379 1_556 S
C3360 C3357 1.363 . S
C3360 N3358 1.356 . S
C3361 C3355 1.363 . S
C3361 C3356 1.379 1_554 S
C3361 N3359 1.356 . S
N3362 C3354 1.356 . S
N3362 H3368 0.984 . S
N3362 H3369 0.984 . S
N3363 C3356 1.356 . S
N3363 H3366 0.984 . S
N3363 H3367 0.985 . S
H3364 N3359 0.984 . S
H3365 N3359 0.985 . S
H3366 N3363 0.984 . S
H3367 N3363 0.985 . S
H3368 N3362 0.984 . S
H3369 N3362 0.984 . S
H3370 N3358 0.984 . S
H3371 N3358 0.985 . S
C3372 C3373 1.363 . S
C3372 C3378 1.379 1_556 S
C3372 N3380 1.356 . S
C3373 C3372 1.363 . S
C3373 C3379 1.363 . S
C3374 C3375 1.363 . S
C3374 C3379 1.379 1_554 S
C3374 N3381 1.356 . S
C3375 C3374 1.363 . S
C3375 C3378 1.363 . S
N3376 C3378 1.356 . S
N3376 H3388 0.984 . S
N3376 H3389 0.985 . S
N3377 C3379 1.356 . S
N3377 H3382 0.984 . S
N3377 H3383 0.985 . S
C3378 C3372 1.379 1_554 S
C3378 C3375 1.363 . S
C3378 N3376 1.356 . S
C3379 C3373 1.363 . S
C3379 C3374 1.379 1_556 S
C3379 N3377 1.356 . S
N3380 C3372 1.356 . S
N3380 H3386 0.984 . S
N3380 H3387 0.984 . S
N3381 C3374 1.356 . S
N3381 H3384 0.984 . S
N3381 H3385 0.985 . S
H3382 N3377 0.984 . S
H3383 N3377 0.985 . S
H3384 N3381 0.984 . S
H3385 N3381 0.985 . S
H3386 N3380 0.984 . S
H3387 N3380 0.984 . S
H3388 N3376 0.984 . S
H3389 N3376 0.985 . S
C3390 C3391 1.363 . S
C3390 C3396 1.379 1_556 S
C3390 N3398 1.356 . S
C3391 C3390 1.363 . S
C3391 C3397 1.363 . S
C3392 C3393 1.363 . S
C3392 C3397 1.379 1_554 S
C3392 N3399 1.356 . S
C3393 C3392 1.363 . S
C3393 C3396 1.363 . S
N3394 C3396 1.356 . S
N3394 H3406 0.984 . S
N3394 H3407 0.985 . S
N3395 C3397 1.356 . S
N3395 H3400 0.984 . S
N3395 H3401 0.985 . S
C3396 C3390 1.379 1_554 S
C3396 C3393 1.363 . S
C3396 N3394 1.356 . S
C3397 C3391 1.363 . S
C3397 C3392 1.379 1_556 S
C3397 N3395 1.356 . S
N3398 C3390 1.356 . S
N3398 H3404 0.984 . S
N3398 H3405 0.984 . S
N3399 C3392 1.356 . S
N3399 H3402 0.984 . S
N3399 H3403 0.985 . S
H3400 N3395 0.984 . S
H3401 N3395 0.985 . S
H3402 N3399 0.984 . S
H3403 N3399 0.985 . S
H3404 N3398 0.984 . S
H3405 N3398 0.984 . S
H3406 N3394 0.984 . S
H3407 N3394 0.985 . S
C3408 C3409 1.363 . S
C3408 C3414 1.379 . S
C3408 N3416 1.356 . S
C3409 C3408 1.363 . S
C3409 C3415 1.363 . S
C3410 C3411 1.363 . S
C3410 C3415 1.379 . S
C3410 N3417 1.356 . S
C3411 C3410 1.363 . S
C3411 C3414 1.363 . S
N3412 C3414 1.356 . S
N3412 H3424 0.984 . S
N3412 H3425 0.985 . S
N3413 C3415 1.356 . S
N3413 H3418 0.984 . S
N3413 H3419 0.985 . S
C3414 C3408 1.379 . S
C3414 C3411 1.363 . S
C3414 N3412 1.356 . S
C3415 C3409 1.363 . S
C3415 C3410 1.379 . S
C3415 N3413 1.356 . S
N3416 C3408 1.356 . S
N3416 H3422 0.984 . S
N3416 H3423 0.984 . S
N3417 C3410 1.356 . S
N3417 H3420 0.984 . S
N3417 H3421 0.985 . S
H3418 N3413 0.984 . S
H3419 N3413 0.985 . S
H3420 N3417 0.984 . S
H3421 N3417 0.985 . S
H3422 N3416 0.984 . S
H3423 N3416 0.984 . S
H3424 N3412 0.984 . S
H3425 N3412 0.985 . S
C3426 C3427 1.363 . S
C3426 C3432 1.379 . S
C3426 N3434 1.356 . S
C3427 C3426 1.363 . S
C3427 C3433 1.363 . S
C3428 C3429 1.363 . S
C3428 C3433 1.379 . S
C3428 N3435 1.356 . S
C3429 C3428 1.363 . S
C3429 C3432 1.363 . S
N3430 C3432 1.356 . S
N3430 H3442 0.984 . S
N3430 H3443 0.985 . S
N3431 C3433 1.356 . S
N3431 H3436 0.984 . S
N3431 H3437 0.985 . S
C3432 C3426 1.379 . S
C3432 C3429 1.363 . S
C3432 N3430 1.356 . S
C3433 C3427 1.363 . S
C3433 C3428 1.379 . S
C3433 N3431 1.356 . S
N3434 C3426 1.356 . S
N3434 H3440 0.984 . S
N3434 H3441 0.984 . S
N3435 C3428 1.356 . S
N3435 H3438 0.984 . S
N3435 H3439 0.985 . S
H3436 N3431 0.984 . S
H3437 N3431 0.985 . S
H3438 N3435 0.984 . S
H3439 N3435 0.985 . S
H3440 N3434 0.984 . S
H3441 N3434 0.984 . S
H3442 N3430 0.984 . S
H3443 N3430 0.985 . S
C3444 C3445 1.363 . S
C3444 C3450 1.379 . S
C3444 N3452 1.356 . S
C3445 C3444 1.363 . S
C3445 C3451 1.363 . S
C3446 C3447 1.363 . S
C3446 C3451 1.379 . S
C3446 N3453 1.356 . S
C3447 C3446 1.363 . S
C3447 C3450 1.363 . S
N3448 C3450 1.356 . S
N3448 H3460 0.984 . S
N3448 H3461 0.985 . S
N3449 C3451 1.356 . S
N3449 H3454 0.984 . S
N3449 H3455 0.985 . S
C3450 C3444 1.379 . S
C3450 C3447 1.363 . S
C3450 N3448 1.356 . S
C3451 C3445 1.363 . S
C3451 C3446 1.379 . S
C3451 N3449 1.356 . S
N3452 C3444 1.356 . S
N3452 H3458 0.984 . S
N3452 H3459 0.984 . S
N3453 C3446 1.356 . S
N3453 H3456 0.984 . S
N3453 H3457 0.985 . S
H3454 N3449 0.984 . S
H3455 N3449 0.985 . S
H3456 N3453 0.984 . S
H3457 N3453 0.985 . S
H3458 N3452 0.984 . S
H3459 N3452 0.984 . S
H3460 N3448 0.984 . S
H3461 N3448 0.985 . S
C3462 C3463 1.363 . S
C3462 C3468 1.379 . S
C3462 N3470 1.356 . S
C3463 C3462 1.363 . S
C3463 C3469 1.363 . S
C3464 C3465 1.363 . S
C3464 C3469 1.379 . S
C3464 N3471 1.356 . S
C3465 C3464 1.363 . S
C3465 C3468 1.363 . S
N3466 C3468 1.356 . S
N3466 H3478 0.984 . S
N3466 H3479 0.985 . S
N3467 C3469 1.356 . S
N3467 H3472 0.984 . S
N3467 H3473 0.985 . S
C3468 C3462 1.379 . S
C3468 C3465 1.363 . S
C3468 N3466 1.356 . S
C3469 C3463 1.363 . S
C3469 C3464 1.379 . S
C3469 N3467 1.356 . S
N3470 C3462 1.356 . S
N3470 H3476 0.984 . S
N3470 H3477 0.984 . S
N3471 C3464 1.356 . S
N3471 H3474 0.984 . S
N3471 H3475 0.985 . S
H3472 N3467 0.984 . S
H3473 N3467 0.985 . S
H3474 N3471 0.984 . S
H3475 N3471 0.985 . S
H3476 N3470 0.984 . S
H3477 N3470 0.984 . S
H3478 N3466 0.984 . S
H3479 N3466 0.985 . S
C3480 C3481 1.363 . S
C3480 C3486 1.379 . S
C3480 N3488 1.356 . S
C3481 C3480 1.363 . S
C3481 C3487 1.363 . S
C3482 C3483 1.363 . S
C3482 C3487 1.379 . S
C3482 N3489 1.356 . S
C3483 C3482 1.363 . S
C3483 C3486 1.363 . S
N3484 C3486 1.356 . S
N3484 H3496 0.984 . S
N3484 H3497 0.985 . S
N3485 C3487 1.356 . S
N3485 H3490 0.984 . S
N3485 H3491 0.985 . S
C3486 C3480 1.379 . S
C3486 C3483 1.363 . S
C3486 N3484 1.356 . S
C3487 C3481 1.363 . S
C3487 C3482 1.379 . S
C3487 N3485 1.356 . S
N3488 C3480 1.356 . S
N3488 H3494 0.984 . S
N3488 H3495 0.984 . S
N3489 C3482 1.356 . S
N3489 H3492 0.984 . S
N3489 H3493 0.985 . S
H3490 N3485 0.984 . S
H3491 N3485 0.985 . S
H3492 N3489 0.984 . S
H3493 N3489 0.985 . S
H3494 N3488 0.984 . S
H3495 N3488 0.984 . S
H3496 N3484 0.984 . S
H3497 N3484 0.985 . S
C3498 C3499 1.363 . S
C3498 C3504 1.379 . S
C3498 N3506 1.356 . S
C3499 C3498 1.363 . S
C3499 C3505 1.363 . S
C3500 C3501 1.363 . S
C3500 C3505 1.379 . S
C3500 N3507 1.356 . S
C3501 C3500 1.363 . S
C3501 C3504 1.363 . S
N3502 C3504 1.356 . S
N3502 H3514 0.984 . S
N3502 H3515 0.985 . S
N3503 C3505 1.356 . S
N3503 H3508 0.984 . S
N3503 H3509 0.985 . S
C3504 C3498 1.379 . S
C3504 C3501 1.363 . S
C3504 N3502 1.356 . S
C3505 C3499 1.363 . S
C3505 C3500 1.379 . S
C3505 N3503 1.356 . S
N3506 C3498 1.356 . S
N3506 H3512 0.984 . S
N3506 H3513 0.984 . S
N3507 C3500 1.356 . S
N3507 H3510 0.984 . S
N3507 H3511 0.985 . S
H3508 N3503 0.984 . S
H3509 N3503 0.985 . S
H3510 N3507 0.984 . S
H3511 N3507 0.985 . S
H3512 N3506 0.984 . S
H3513 N3506 0.984 . S
H3514 N3502 0.984 . S
H3515 N3502 0.985 . S
C3516 C3517 1.363 . S
C3516 C3522 1.379 . S
C3516 N3524 1.356 . S
C3517 C3516 1.363 . S
C3517 C3523 1.363 . S
C3518 C3519 1.363 . S
C3518 C3523 1.379 . S
C3518 N3525 1.356 . S
C3519 C3518 1.363 . S
C3519 C3522 1.363 . S
N3520 C3522 1.356 . S
N3520 H3532 0.984 . S
N3520 H3533 0.985 . S
N3521 C3523 1.356 . S
N3521 H3526 0.984 . S
N3521 H3527 0.985 . S
C3522 C3516 1.379 . S
C3522 C3519 1.363 . S
C3522 N3520 1.356 . S
C3523 C3517 1.363 . S
C3523 C3518 1.379 . S
C3523 N3521 1.356 . S
N3524 C3516 1.356 . S
N3524 H3530 0.984 . S
N3524 H3531 0.984 . S
N3525 C3518 1.356 . S
N3525 H3528 0.984 . S
N3525 H3529 0.985 . S
H3526 N3521 0.984 . S
H3527 N3521 0.985 . S
H3528 N3525 0.984 . S
H3529 N3525 0.985 . S
H3530 N3524 0.984 . S
H3531 N3524 0.984 . S
H3532 N3520 0.984 . S
H3533 N3520 0.985 . S
C3534 C3535 1.363 . S
C3534 C3540 1.379 . S
C3534 N3542 1.356 . S
C3535 C3534 1.363 . S
C3535 C3541 1.363 . S
C3536 C3537 1.363 . S
C3536 C3541 1.379 . S
C3536 N3543 1.356 . S
C3537 C3536 1.363 . S
C3537 C3540 1.363 . S
N3538 C3540 1.356 . S
N3538 H3550 0.984 . S
N3538 H3551 0.985 . S
N3539 C3541 1.356 . S
N3539 H3544 0.984 . S
N3539 H3545 0.985 . S
C3540 C3534 1.379 . S
C3540 C3537 1.363 . S
C3540 N3538 1.356 . S
C3541 C3535 1.363 . S
C3541 C3536 1.379 . S
C3541 N3539 1.356 . S
N3542 C3534 1.356 . S
N3542 H3548 0.984 . S
N3542 H3549 0.984 . S
N3543 C3536 1.356 . S
N3543 H3546 0.984 . S
N3543 H3547 0.985 . S
H3544 N3539 0.984 . S
H3545 N3539 0.985 . S
H3546 N3543 0.984 . S
H3547 N3543 0.985 . S
H3548 N3542 0.984 . S
H3549 N3542 0.984 . S
H3550 N3538 0.984 . S
H3551 N3538 0.985 . S
C3552 C3553 1.363 . S
C3552 C3558 1.379 . S
C3552 N3560 1.356 . S
C3553 C3552 1.363 . S
C3553 C3559 1.363 . S
C3554 C3555 1.363 . S
C3554 C3559 1.379 . S
C3554 N3561 1.356 . S
C3555 C3554 1.363 . S
C3555 C3558 1.363 . S
N3556 C3558 1.356 . S
N3556 H3568 0.984 . S
N3556 H3569 0.985 . S
N3557 C3559 1.356 . S
N3557 H3562 0.984 . S
N3557 H3563 0.985 . S
C3558 C3552 1.379 . S
C3558 C3555 1.363 . S
C3558 N3556 1.356 . S
C3559 C3553 1.363 . S
C3559 C3554 1.379 . S
C3559 N3557 1.356 . S
N3560 C3552 1.356 . S
N3560 H3566 0.984 . S
N3560 H3567 0.984 . S
N3561 C3554 1.356 . S
N3561 H3564 0.984 . S
N3561 H3565 0.985 . S
H3562 N3557 0.984 . S
H3563 N3557 0.985 . S
H3564 N3561 0.984 . S
H3565 N3561 0.985 . S
H3566 N3560 0.984 . S
H3567 N3560 0.984 . S
H3568 N3556 0.984 . S
H3569 N3556 0.985 . S
C3570 C3571 1.363 . S
C3570 C3576 1.379 . S
C3570 N3578 1.356 . S
C3571 C3570 1.363 . S
C3571 C3577 1.363 . S
C3572 C3573 1.363 . S
C3572 C3577 1.379 . S
C3572 N3579 1.356 . S
C3573 C3572 1.363 . S
C3573 C3576 1.363 . S
N3574 C3576 1.356 . S
N3574 H3586 0.984 . S
N3574 H3587 0.985 . S
N3575 C3577 1.356 . S
N3575 H3580 0.984 . S
N3575 H3581 0.985 . S
C3576 C3570 1.379 . S
C3576 C3573 1.363 . S
C3576 N3574 1.356 . S
C3577 C3571 1.363 . S
C3577 C3572 1.379 . S
C3577 N3575 1.356 . S
N3578 C3570 1.356 . S
N3578 H3584 0.984 . S
N3578 H3585 0.984 . S
N3579 C3572 1.356 . S
N3579 H3582 0.984 . S
N3579 H3583 0.985 . S
H3580 N3575 0.984 . S
H3581 N3575 0.985 . S
H3582 N3579 0.984 . S
H3583 N3579 0.985 . S
H3584 N3578 0.984 . S
H3585 N3578 0.984 . S
H3586 N3574 0.984 . S
H3587 N3574 0.985 . S
C3588 C3589 1.363 . S
C3588 C3594 1.379 . S
C3588 N3596 1.356 . S
C3589 C3588 1.363 . S
C3589 C3595 1.363 . S
C3590 C3591 1.363 . S
C3590 C3595 1.379 . S
C3590 N3597 1.356 . S
C3591 C3590 1.363 . S
C3591 C3594 1.363 . S
N3592 C3594 1.356 . S
N3592 H3604 0.984 . S
N3592 H3605 0.985 . S
N3593 C3595 1.356 . S
N3593 H3598 0.984 . S
N3593 H3599 0.985 . S
C3594 C3588 1.379 . S
C3594 C3591 1.363 . S
C3594 N3592 1.356 . S
C3595 C3589 1.363 . S
C3595 C3590 1.379 . S
C3595 N3593 1.356 . S
N3596 C3588 1.356 . S
N3596 H3602 0.984 . S
N3596 H3603 0.984 . S
N3597 C3590 1.356 . S
N3597 H3600 0.984 . S
N3597 H3601 0.985 . S
H3598 N3593 0.984 . S
H3599 N3593 0.985 . S
H3600 N3597 0.984 . S
H3601 N3597 0.985 . S
H3602 N3596 0.984 . S
H3603 N3596 0.984 . S
H3604 N3592 0.984 . S
H3605 N3592 0.985 . S
C3606 C3607 1.363 . S
C3606 C3612 1.379 . S
C3606 N3614 1.356 . S
C3607 C3606 1.363 . S
C3607 C3613 1.363 . S
C3608 C3609 1.363 . S
C3608 C3613 1.379 . S
C3608 N3615 1.356 . S
C3609 C3608 1.363 . S
C3609 C3612 1.363 . S
N3610 C3612 1.356 . S
N3610 H3622 0.984 . S
N3610 H3623 0.985 . S
N3611 C3613 1.356 . S
N3611 H3616 0.984 . S
N3611 H3617 0.985 . S
C3612 C3606 1.379 . S
C3612 C3609 1.363 . S
C3612 N3610 1.356 . S
C3613 C3607 1.363 . S
C3613 C3608 1.379 . S
C3613 N3611 1.356 . S
N3614 C3606 1.356 . S
N3614 H3620 0.984 . S
N3614 H3621 0.984 . S
N3615 C3608 1.356 . S
N3615 H3618 0.984 . S
N3615 H3619 0.985 . S
H3616 N3611 0.984 . S
H3617 N3611 0.985 . S
H3618 N3615 0.984 . S
H3619 N3615 0.985 . S
H3620 N3614 0.984 . S
H3621 N3614 0.984 . S
H3622 N3610 0.984 . S
H3623 N3610 0.985 . S
C3624 C3625 1.363 . S
C3624 C3630 1.379 . S
C3624 N3632 1.356 . S
C3625 C3624 1.363 . S
C3625 C3631 1.363 . S
C3626 C3627 1.363 . S
C3626 C3631 1.379 . S
C3626 N3633 1.356 . S
C3627 C3626 1.363 . S
C3627 C3630 1.363 . S
N3628 C3630 1.356 . S
N3628 H3640 0.984 . S
N3628 H3641 0.985 . S
N3629 C3631 1.356 . S
N3629 H3634 0.984 . S
N3629 H3635 0.985 . S
C3630 C3624 1.379 . S
C3630 C3627 1.363 . S
C3630 N3628 1.356 . S
C3631 C3625 1.363 . S
C3631 C3626 1.379 . S
C3631 N3629 1.356 . S
N3632 C3624 1.356 . S
N3632 H3638 0.984 . S
N3632 H3639 0.984 . S
N3633 C3626 1.356 . S
N3633 H3636 0.984 . S
N3633 H3637 0.985 . S
H3634 N3629 0.984 . S
H3635 N3629 0.985 . S
H3636 N3633 0.984 . S
H3637 N3633 0.985 . S
H3638 N3632 0.984 . S
H3639 N3632 0.984 . S
H3640 N3628 0.984 . S
H3641 N3628 0.985 . S
C3642 C3643 1.363 . S
C3642 C3648 1.379 . S
C3642 N3650 1.356 . S
C3643 C3642 1.363 . S
C3643 C3649 1.363 . S
C3644 C3645 1.363 . S
C3644 C3649 1.379 . S
C3644 N3651 1.356 . S
C3645 C3644 1.363 . S
C3645 C3648 1.363 . S
N3646 C3648 1.356 . S
N3646 H3658 0.984 . S
N3646 H3659 0.985 . S
N3647 C3649 1.356 . S
N3647 H3652 0.984 . S
N3647 H3653 0.985 . S
C3648 C3642 1.379 . S
C3648 C3645 1.363 . S
C3648 N3646 1.356 . S
C3649 C3643 1.363 . S
C3649 C3644 1.379 . S
C3649 N3647 1.356 . S
N3650 C3642 1.356 . S
N3650 H3656 0.984 . S
N3650 H3657 0.984 . S
N3651 C3644 1.356 . S
N3651 H3654 0.984 . S
N3651 H3655 0.985 . S
H3652 N3647 0.984 . S
H3653 N3647 0.985 . S
H3654 N3651 0.984 . S
H3655 N3651 0.985 . S
H3656 N3650 0.984 . S
H3657 N3650 0.984 . S
H3658 N3646 0.984 . S
H3659 N3646 0.985 . S
C3660 C3661 1.363 . S
C3660 C3666 1.379 . S
C3660 N3668 1.356 . S
C3661 C3660 1.363 . S
C3661 C3667 1.363 . S
C3662 C3663 1.363 . S
C3662 C3667 1.379 . S
C3662 N3669 1.356 . S
C3663 C3662 1.363 . S
C3663 C3666 1.363 . S
N3664 C3666 1.356 . S
N3664 H3676 0.984 . S
N3664 H3677 0.985 . S
N3665 C3667 1.356 . S
N3665 H3670 0.984 . S
N3665 H3671 0.985 . S
C3666 C3660 1.379 . S
C3666 C3663 1.363 . S
C3666 N3664 1.356 . S
C3667 C3661 1.363 . S
C3667 C3662 1.379 . S
C3667 N3665 1.356 . S
N3668 C3660 1.356 . S
N3668 H3674 0.984 . S
N3668 H3675 0.984 . S
N3669 C3662 1.356 . S
N3669 H3672 0.984 . S
N3669 H3673 0.985 . S
H3670 N3665 0.984 . S
H3671 N3665 0.985 . S
H3672 N3669 0.984 . S
H3673 N3669 0.985 . S
H3674 N3668 0.984 . S
H3675 N3668 0.984 . S
H3676 N3664 0.984 . S
H3677 N3664 0.985 . S
C3678 C3679 1.363 . S
C3678 C3684 1.379 . S
C3678 N3686 1.356 . S
C3679 C3678 1.363 . S
C3679 C3685 1.363 . S
C3680 C3681 1.363 . S
C3680 C3685 1.379 . S
C3680 N3687 1.356 . S
C3681 C3680 1.363 . S
C3681 C3684 1.363 . S
N3682 C3684 1.356 . S
N3682 H3694 0.984 . S
N3682 H3695 0.985 . S
N3683 C3685 1.356 . S
N3683 H3688 0.984 . S
N3683 H3689 0.985 . S
C3684 C3678 1.379 . S
C3684 C3681 1.363 . S
C3684 N3682 1.356 . S
C3685 C3679 1.363 . S
C3685 C3680 1.379 . S
C3685 N3683 1.356 . S
N3686 C3678 1.356 . S
N3686 H3692 0.984 . S
N3686 H3693 0.984 . S
N3687 C3680 1.356 . S
N3687 H3690 0.984 . S
N3687 H3691 0.985 . S
H3688 N3683 0.984 . S
H3689 N3683 0.985 . S
H3690 N3687 0.984 . S
H3691 N3687 0.985 . S
H3692 N3686 0.984 . S
H3693 N3686 0.984 . S
H3694 N3682 0.984 . S
H3695 N3682 0.985 . S
C3696 C3697 1.363 . S
C3696 C3702 1.379 . S
C3696 N3704 1.356 . S
C3697 C3696 1.363 . S
C3697 C3703 1.363 . S
C3698 C3699 1.363 . S
C3698 C3703 1.379 . S
C3698 N3705 1.356 . S
C3699 C3698 1.363 . S
C3699 C3702 1.363 . S
N3700 C3702 1.356 . S
N3700 H3712 0.984 . S
N3700 H3713 0.985 . S
N3701 C3703 1.356 . S
N3701 H3706 0.984 . S
N3701 H3707 0.985 . S
C3702 C3696 1.379 . S
C3702 C3699 1.363 . S
C3702 N3700 1.356 . S
C3703 C3697 1.363 . S
C3703 C3698 1.379 . S
C3703 N3701 1.356 . S
N3704 C3696 1.356 . S
N3704 H3710 0.984 . S
N3704 H3711 0.984 . S
N3705 C3698 1.356 . S
N3705 H3708 0.984 . S
N3705 H3709 0.985 . S
H3706 N3701 0.984 . S
H3707 N3701 0.985 . S
H3708 N3705 0.984 . S
H3709 N3705 0.985 . S
H3710 N3704 0.984 . S
H3711 N3704 0.984 . S
H3712 N3700 0.984 . S
H3713 N3700 0.985 . S
C3714 C3715 1.363 . S
C3714 C3720 1.379 . S
C3714 N3722 1.356 . S
C3715 C3714 1.363 . S
C3715 C3721 1.363 . S
C3716 C3717 1.363 . S
C3716 C3721 1.379 . S
C3716 N3723 1.356 . S
C3717 C3716 1.363 . S
C3717 C3720 1.363 . S
N3718 C3720 1.356 . S
N3718 H3730 0.984 . S
N3718 H3731 0.985 . S
N3719 C3721 1.356 . S
N3719 H3724 0.984 . S
N3719 H3725 0.985 . S
C3720 C3714 1.379 . S
C3720 C3717 1.363 . S
C3720 N3718 1.356 . S
C3721 C3715 1.363 . S
C3721 C3716 1.379 . S
C3721 N3719 1.356 . S
N3722 C3714 1.356 . S
N3722 H3728 0.984 . S
N3722 H3729 0.984 . S
N3723 C3716 1.356 . S
N3723 H3726 0.984 . S
N3723 H3727 0.985 . S
H3724 N3719 0.984 . S
H3725 N3719 0.985 . S
H3726 N3723 0.984 . S
H3727 N3723 0.985 . S
H3728 N3722 0.984 . S
H3729 N3722 0.984 . S
H3730 N3718 0.984 . S
H3731 N3718 0.985 . S
C3732 C3733 1.363 . S
C3732 C3738 1.379 . S
C3732 N3740 1.356 . S
C3733 C3732 1.363 . S
C3733 C3739 1.363 . S
C3734 C3735 1.363 . S
C3734 C3739 1.379 . S
C3734 N3741 1.356 . S
C3735 C3734 1.363 . S
C3735 C3738 1.363 . S
N3736 C3738 1.356 . S
N3736 H3748 0.984 . S
N3736 H3749 0.985 . S
N3737 C3739 1.356 . S
N3737 H3742 0.984 . S
N3737 H3743 0.985 . S
C3738 C3732 1.379 . S
C3738 C3735 1.363 . S
C3738 N3736 1.356 . S
C3739 C3733 1.363 . S
C3739 C3734 1.379 . S
C3739 N3737 1.356 . S
N3740 C3732 1.356 . S
N3740 H3746 0.984 . S
N3740 H3747 0.984 . S
N3741 C3734 1.356 . S
N3741 H3744 0.984 . S
N3741 H3745 0.985 . S
H3742 N3737 0.984 . S
H3743 N3737 0.985 . S
H3744 N3741 0.984 . S
H3745 N3741 0.985 . S
H3746 N3740 0.984 . S
H3747 N3740 0.984 . S
H3748 N3736 0.984 . S
H3749 N3736 0.985 . S
C3750 C3751 1.363 . S
C3750 C3756 1.379 . S
C3750 N3758 1.356 . S
C3751 C3750 1.363 . S
C3751 C3757 1.363 . S
C3752 C3753 1.363 . S
C3752 C3757 1.379 . S
C3752 N3759 1.356 . S
C3753 C3752 1.363 . S
C3753 C3756 1.363 . S
N3754 C3756 1.356 . S
N3754 H3766 0.984 . S
N3754 H3767 0.985 . S
N3755 C3757 1.356 . S
N3755 H3760 0.984 . S
N3755 H3761 0.985 . S
C3756 C3750 1.379 . S
C3756 C3753 1.363 . S
C3756 N3754 1.356 . S
C3757 C3751 1.363 . S
C3757 C3752 1.379 . S
C3757 N3755 1.356 . S
N3758 C3750 1.356 . S
N3758 H3764 0.984 . S
N3758 H3765 0.984 . S
N3759 C3752 1.356 . S
N3759 H3762 0.984 . S
N3759 H3763 0.985 . S
H3760 N3755 0.984 . S
H3761 N3755 0.985 . S
H3762 N3759 0.984 . S
H3763 N3759 0.985 . S
H3764 N3758 0.984 . S
H3765 N3758 0.984 . S
H3766 N3754 0.984 . S
H3767 N3754 0.985 . S
C3768 C3769 1.363 . S
C3768 C3774 1.379 . S
C3768 N3776 1.356 . S
C3769 C3768 1.363 . S
C3769 C3775 1.363 . S
C3770 C3771 1.363 . S
C3770 C3775 1.379 . S
C3770 N3777 1.356 . S
C3771 C3770 1.363 . S
C3771 C3774 1.363 . S
N3772 C3774 1.356 . S
N3772 H3784 0.984 . S
N3772 H3785 0.985 . S
N3773 C3775 1.356 . S
N3773 H3778 0.984 . S
N3773 H3779 0.985 . S
C3774 C3768 1.379 . S
C3774 C3771 1.363 . S
C3774 N3772 1.356 . S
C3775 C3769 1.363 . S
C3775 C3770 1.379 . S
C3775 N3773 1.356 . S
N3776 C3768 1.356 . S
N3776 H3782 0.984 . S
N3776 H3783 0.984 . S
N3777 C3770 1.356 . S
N3777 H3780 0.984 . S
N3777 H3781 0.985 . S
H3778 N3773 0.984 . S
H3779 N3773 0.985 . S
H3780 N3777 0.984 . S
H3781 N3777 0.985 . S
H3782 N3776 0.984 . S
H3783 N3776 0.984 . S
H3784 N3772 0.984 . S
H3785 N3772 0.985 . S
C3786 C3787 1.363 . S
C3786 C3792 1.379 . S
C3786 N3794 1.356 . S
C3787 C3786 1.363 . S
C3787 C3793 1.363 . S
C3788 C3789 1.363 . S
C3788 C3793 1.379 . S
C3788 N3795 1.356 . S
C3789 C3788 1.363 . S
C3789 C3792 1.363 . S
N3790 C3792 1.356 . S
N3790 H3802 0.984 . S
N3790 H3803 0.985 . S
N3791 C3793 1.356 . S
N3791 H3796 0.984 . S
N3791 H3797 0.985 . S
C3792 C3786 1.379 . S
C3792 C3789 1.363 . S
C3792 N3790 1.356 . S
C3793 C3787 1.363 . S
C3793 C3788 1.379 . S
C3793 N3791 1.356 . S
N3794 C3786 1.356 . S
N3794 H3800 0.984 . S
N3794 H3801 0.984 . S
N3795 C3788 1.356 . S
N3795 H3798 0.984 . S
N3795 H3799 0.985 . S
H3796 N3791 0.984 . S
H3797 N3791 0.985 . S
H3798 N3795 0.984 . S
H3799 N3795 0.985 . S
H3800 N3794 0.984 . S
H3801 N3794 0.984 . S
H3802 N3790 0.984 . S
H3803 N3790 0.985 . S
C3804 C3805 1.363 . S
C3804 C3810 1.379 . S
C3804 N3812 1.356 . S
C3805 C3804 1.363 . S
C3805 C3811 1.363 . S
C3806 C3807 1.363 . S
C3806 C3811 1.379 . S
C3806 N3813 1.356 . S
C3807 C3806 1.363 . S
C3807 C3810 1.363 . S
N3808 C3810 1.356 . S
N3808 H3820 0.984 . S
N3808 H3821 0.985 . S
N3809 C3811 1.356 . S
N3809 H3814 0.984 . S
N3809 H3815 0.985 . S
C3810 C3804 1.379 . S
C3810 C3807 1.363 . S
C3810 N3808 1.356 . S
C3811 C3805 1.363 . S
C3811 C3806 1.379 . S
C3811 N3809 1.356 . S
N3812 C3804 1.356 . S
N3812 H3818 0.984 . S
N3812 H3819 0.984 . S
N3813 C3806 1.356 . S
N3813 H3816 0.984 . S
N3813 H3817 0.985 . S
H3814 N3809 0.984 . S
H3815 N3809 0.985 . S
H3816 N3813 0.984 . S
H3817 N3813 0.985 . S
H3818 N3812 0.984 . S
H3819 N3812 0.984 . S
H3820 N3808 0.984 . S
H3821 N3808 0.985 . S
C3822 C3823 1.363 . S
C3822 C3828 1.379 . S
C3822 N3830 1.356 . S
C3823 C3822 1.363 . S
C3823 C3829 1.363 . S
C3824 C3825 1.363 . S
C3824 C3829 1.379 . S
C3824 N3831 1.356 . S
C3825 C3824 1.363 . S
C3825 C3828 1.363 . S
N3826 C3828 1.356 . S
N3826 H3838 0.984 . S
N3826 H3839 0.985 . S
N3827 C3829 1.356 . S
N3827 H3832 0.984 . S
N3827 H3833 0.985 . S
C3828 C3822 1.379 . S
C3828 C3825 1.363 . S
C3828 N3826 1.356 . S
C3829 C3823 1.363 . S
C3829 C3824 1.379 . S
C3829 N3827 1.356 . S
N3830 C3822 1.356 . S
N3830 H3836 0.984 . S
N3830 H3837 0.984 . S
N3831 C3824 1.356 . S
N3831 H3834 0.984 . S
N3831 H3835 0.985 . S
H3832 N3827 0.984 . S
H3833 N3827 0.985 . S
H3834 N3831 0.984 . S
H3835 N3831 0.985 . S
H3836 N3830 0.984 . S
H3837 N3830 0.984 . S
H3838 N3826 0.984 . S
H3839 N3826 0.985 . S
C3840 C3841 1.363 . S
C3840 C3846 1.379 . S
C3840 N3848 1.356 . S
C3841 C3840 1.363 . S
C3841 C3847 1.363 . S
C3842 C3843 1.363 . S
C3842 C3847 1.379 . S
C3842 N3849 1.356 . S
C3843 C3842 1.363 . S
C3843 C3846 1.363 . S
N3844 C3846 1.356 . S
N3844 H3856 0.984 . S
N3844 H3857 0.985 . S
N3845 C3847 1.356 . S
N3845 H3850 0.984 . S
N3845 H3851 0.985 . S
C3846 C3840 1.379 . S
C3846 C3843 1.363 . S
C3846 N3844 1.356 . S
C3847 C3841 1.363 . S
C3847 C3842 1.379 . S
C3847 N3845 1.356 . S
N3848 C3840 1.356 . S
N3848 H3854 0.984 . S
N3848 H3855 0.984 . S
N3849 C3842 1.356 . S
N3849 H3852 0.984 . S
N3849 H3853 0.985 . S
H3850 N3845 0.984 . S
H3851 N3845 0.985 . S
H3852 N3849 0.984 . S
H3853 N3849 0.985 . S
H3854 N3848 0.984 . S
H3855 N3848 0.984 . S
H3856 N3844 0.984 . S
H3857 N3844 0.985 . S
C3858 C3859 1.363 . S
C3858 C3864 1.379 . S
C3858 N3866 1.356 . S
C3859 C3858 1.363 . S
C3859 C3865 1.363 . S
C3860 C3861 1.363 . S
C3860 C3865 1.379 . S
C3860 N3867 1.356 . S
C3861 C3860 1.363 . S
C3861 C3864 1.363 . S
N3862 C3864 1.356 . S
N3862 H3874 0.984 . S
N3862 H3875 0.985 . S
N3863 C3865 1.356 . S
N3863 H3868 0.984 . S
N3863 H3869 0.985 . S
C3864 C3858 1.379 . S
C3864 C3861 1.363 . S
C3864 N3862 1.356 . S
C3865 C3859 1.363 . S
C3865 C3860 1.379 . S
C3865 N3863 1.356 . S
N3866 C3858 1.356 . S
N3866 H3872 0.984 . S
N3866 H3873 0.984 . S
N3867 C3860 1.356 . S
N3867 H3870 0.984 . S
N3867 H3871 0.985 . S
H3868 N3863 0.984 . S
H3869 N3863 0.985 . S
H3870 N3867 0.984 . S
H3871 N3867 0.985 . S
H3872 N3866 0.984 . S
H3873 N3866 0.984 . S
H3874 N3862 0.984 . S
H3875 N3862 0.985 . S
C3876 C3877 1.363 . S
C3876 C3882 1.379 . S
C3876 N3884 1.356 . S
C3877 C3876 1.363 . S
C3877 C3883 1.363 . S
C3878 C3879 1.363 . S
C3878 C3883 1.379 . S
C3878 N3885 1.356 . S
C3879 C3878 1.363 . S
C3879 C3882 1.363 . S
N3880 C3882 1.356 . S
N3880 H3892 0.984 . S
N3880 H3893 0.985 . S
N3881 C3883 1.356 . S
N3881 H3886 0.984 . S
N3881 H3887 0.985 . S
C3882 C3876 1.379 . S
C3882 C3879 1.363 . S
C3882 N3880 1.356 . S
C3883 C3877 1.363 . S
C3883 C3878 1.379 . S
C3883 N3881 1.356 . S
N3884 C3876 1.356 . S
N3884 H3890 0.984 . S
N3884 H3891 0.984 . S
N3885 C3878 1.356 . S
N3885 H3888 0.984 . S
N3885 H3889 0.985 . S
H3886 N3881 0.984 . S
H3887 N3881 0.985 . S
H3888 N3885 0.984 . S
H3889 N3885 0.985 . S
H3890 N3884 0.984 . S
H3891 N3884 0.984 . S
H3892 N3880 0.984 . S
H3893 N3880 0.985 . S
C3894 C3895 1.363 . S
C3894 C3900 1.379 . S
C3894 N3902 1.356 . S
C3895 C3894 1.363 . S
C3895 C3901 1.363 . S
C3896 C3897 1.363 . S
C3896 C3901 1.379 . S
C3896 N3903 1.356 . S
C3897 C3896 1.363 . S
C3897 C3900 1.363 . S
N3898 C3900 1.356 . S
N3898 H3910 0.984 . S
N3898 H3911 0.985 . S
N3899 C3901 1.356 . S
N3899 H3904 0.984 . S
N3899 H3905 0.985 . S
C3900 C3894 1.379 . S
C3900 C3897 1.363 . S
C3900 N3898 1.356 . S
C3901 C3895 1.363 . S
C3901 C3896 1.379 . S
C3901 N3899 1.356 . S
N3902 C3894 1.356 . S
N3902 H3908 0.984 . S
N3902 H3909 0.984 . S
N3903 C3896 1.356 . S
N3903 H3906 0.984 . S
N3903 H3907 0.985 . S
H3904 N3899 0.984 . S
H3905 N3899 0.985 . S
H3906 N3903 0.984 . S
H3907 N3903 0.985 . S
H3908 N3902 0.984 . S
H3909 N3902 0.984 . S
H3910 N3898 0.984 . S
H3911 N3898 0.985 . S
C3912 C3913 1.363 . S
C3912 C3918 1.379 . S
C3912 N3920 1.356 . S
C3913 C3912 1.363 . S
C3913 C3919 1.363 . S
C3914 C3915 1.363 . S
C3914 C3919 1.379 . S
C3914 N3921 1.356 . S
C3915 C3914 1.363 . S
C3915 C3918 1.363 . S
N3916 C3918 1.356 . S
N3916 H3928 0.984 . S
N3916 H3929 0.985 . S
N3917 C3919 1.356 . S
N3917 H3922 0.984 . S
N3917 H3923 0.985 . S
C3918 C3912 1.379 . S
C3918 C3915 1.363 . S
C3918 N3916 1.356 . S
C3919 C3913 1.363 . S
C3919 C3914 1.379 . S
C3919 N3917 1.356 . S
N3920 C3912 1.356 . S
N3920 H3926 0.984 . S
N3920 H3927 0.984 . S
N3921 C3914 1.356 . S
N3921 H3924 0.984 . S
N3921 H3925 0.985 . S
H3922 N3917 0.984 . S
H3923 N3917 0.985 . S
H3924 N3921 0.984 . S
H3925 N3921 0.985 . S
H3926 N3920 0.984 . S
H3927 N3920 0.984 . S
H3928 N3916 0.984 . S
H3929 N3916 0.985 . S
C3930 C3931 1.363 . S
C3930 C3936 1.379 . S
C3930 N3938 1.356 . S
C3931 C3930 1.363 . S
C3931 C3937 1.363 . S
C3932 C3933 1.363 . S
C3932 C3937 1.379 . S
C3932 N3939 1.356 . S
C3933 C3932 1.363 . S
C3933 C3936 1.363 . S
N3934 C3936 1.356 . S
N3934 H3946 0.984 . S
N3934 H3947 0.985 . S
N3935 C3937 1.356 . S
N3935 H3940 0.984 . S
N3935 H3941 0.985 . S
C3936 C3930 1.379 . S
C3936 C3933 1.363 . S
C3936 N3934 1.356 . S
C3937 C3931 1.363 . S
C3937 C3932 1.379 . S
C3937 N3935 1.356 . S
N3938 C3930 1.356 . S
N3938 H3944 0.984 . S
N3938 H3945 0.984 . S
N3939 C3932 1.356 . S
N3939 H3942 0.984 . S
N3939 H3943 0.985 . S
H3940 N3935 0.984 . S
H3941 N3935 0.985 . S
H3942 N3939 0.984 . S
H3943 N3939 0.985 . S
H3944 N3938 0.984 . S
H3945 N3938 0.984 . S
H3946 N3934 0.984 . S
H3947 N3934 0.985 . S
C3948 C3949 1.363 . S
C3948 C3954 1.379 . S
C3948 N3956 1.356 . S
C3949 C3948 1.363 . S
C3949 C3955 1.363 . S
C3950 C3951 1.363 . S
C3950 C3955 1.379 . S
C3950 N3957 1.356 . S
C3951 C3950 1.363 . S
C3951 C3954 1.363 . S
N3952 C3954 1.356 . S
N3952 H3964 0.984 . S
N3952 H3965 0.985 . S
N3953 C3955 1.356 . S
N3953 H3958 0.984 . S
N3953 H3959 0.985 . S
C3954 C3948 1.379 . S
C3954 C3951 1.363 . S
C3954 N3952 1.356 . S
C3955 C3949 1.363 . S
C3955 C3950 1.379 . S
C3955 N3953 1.356 . S
N3956 C3948 1.356 . S
N3956 H3962 0.984 . S
N3956 H3963 0.984 . S
N3957 C3950 1.356 . S
N3957 H3960 0.984 . S
N3957 H3961 0.985 . S
H3958 N3953 0.984 . S
H3959 N3953 0.985 . S
H3960 N3957 0.984 . S
H3961 N3957 0.985 . S
H3962 N3956 0.984 . S
H3963 N3956 0.984 . S
H3964 N3952 0.984 . S
H3965 N3952 0.985 . S
C3966 C3967 1.363 . S
C3966 C3972 1.379 . S
C3966 N3974 1.356 . S
C3967 C3966 1.363 . S
C3967 C3973 1.363 . S
C3968 C3969 1.363 . S
C3968 C3973 1.379 . S
C3968 N3975 1.356 . S
C3969 C3968 1.363 . S
C3969 C3972 1.363 . S
N3970 C3972 1.356 . S
N3970 H3982 0.984 . S
N3970 H3983 0.985 . S
N3971 C3973 1.356 . S
N3971 H3976 0.984 . S
N3971 H3977 0.985 . S
C3972 C3966 1.379 . S
C3972 C3969 1.363 . S
C3972 N3970 1.356 . S
C3973 C3967 1.363 . S
C3973 C3968 1.379 . S
C3973 N3971 1.356 . S
N3974 C3966 1.356 . S
N3974 H3980 0.984 . S
N3974 H3981 0.984 . S
N3975 C3968 1.356 . S
N3975 H3978 0.984 . S
N3975 H3979 0.985 . S
H3976 N3971 0.984 . S
H3977 N3971 0.985 . S
H3978 N3975 0.984 . S
H3979 N3975 0.985 . S
H3980 N3974 0.984 . S
H3981 N3974 0.984 . S
H3982 N3970 0.984 . S
H3983 N3970 0.985 . S
C3984 C3985 1.363 . S
C3984 C3990 1.379 . S
C3984 N3992 1.356 . S
C3985 C3984 1.363 . S
C3985 C3991 1.363 . S
C3986 C3987 1.363 . S
C3986 C3991 1.379 . S
C3986 N3993 1.356 . S
C3987 C3986 1.363 . S
C3987 C3990 1.363 . S
N3988 C3990 1.356 . S
N3988 H4000 0.984 . S
N3988 H4001 0.985 . S
N3989 C3991 1.356 . S
N3989 H3994 0.984 . S
N3989 H3995 0.985 . S
C3990 C3984 1.379 . S
C3990 C3987 1.363 . S
C3990 N3988 1.356 . S
C3991 C3985 1.363 . S
C3991 C3986 1.379 . S
C3991 N3989 1.356 . S
N3992 C3984 1.356 . S
N3992 H3998 0.984 . S
N3992 H3999 0.984 . S
N3993 C3986 1.356 . S
N3993 H3996 0.984 . S
N3993 H3997 0.985 . S
H3994 N3989 0.984 . S
H3995 N3989 0.985 . S
H3996 N3993 0.984 . S
H3997 N3993 0.985 . S
H3998 N3992 0.984 . S
H3999 N3992 0.984 . S
H4000 N3988 0.984 . S
H4001 N3988 0.985 . S
C4002 C4003 1.363 . S
C4002 C4008 1.379 . S
C4002 N4010 1.356 . S
C4003 C4002 1.363 . S
C4003 C4009 1.363 . S
C4004 C4005 1.363 . S
C4004 C4009 1.379 . S
C4004 N4011 1.356 . S
C4005 C4004 1.363 . S
C4005 C4008 1.363 . S
N4006 C4008 1.356 . S
N4006 H4018 0.984 . S
N4006 H4019 0.985 . S
N4007 C4009 1.356 . S
N4007 H4012 0.984 . S
N4007 H4013 0.985 . S
C4008 C4002 1.379 . S
C4008 C4005 1.363 . S
C4008 N4006 1.356 . S
C4009 C4003 1.363 . S
C4009 C4004 1.379 . S
C4009 N4007 1.356 . S
N4010 C4002 1.356 . S
N4010 H4016 0.984 . S
N4010 H4017 0.984 . S
N4011 C4004 1.356 . S
N4011 H4014 0.984 . S
N4011 H4015 0.985 . S
H4012 N4007 0.984 . S
H4013 N4007 0.985 . S
H4014 N4011 0.984 . S
H4015 N4011 0.985 . S
H4016 N4010 0.984 . S
H4017 N4010 0.984 . S
H4018 N4006 0.984 . S
H4019 N4006 0.985 . S
C4020 C4021 1.363 . S
C4020 C4026 1.379 . S
C4020 N4028 1.356 . S
C4021 C4020 1.363 . S
C4021 C4027 1.363 . S
C4022 C4023 1.363 . S
C4022 C4027 1.379 . S
C4022 N4029 1.356 . S
C4023 C4022 1.363 . S
C4023 C4026 1.363 . S
N4024 C4026 1.356 . S
N4024 H4036 0.984 . S
N4024 H4037 0.985 . S
N4025 C4027 1.356 . S
N4025 H4030 0.984 . S
N4025 H4031 0.985 . S
C4026 C4020 1.379 . S
C4026 C4023 1.363 . S
C4026 N4024 1.356 . S
C4027 C4021 1.363 . S
C4027 C4022 1.379 . S
C4027 N4025 1.356 . S
N4028 C4020 1.356 . S
N4028 H4034 0.984 . S
N4028 H4035 0.984 . S
N4029 C4022 1.356 . S
N4029 H4032 0.984 . S
N4029 H4033 0.985 . S
H4030 N4025 0.984 . S
H4031 N4025 0.985 . S
H4032 N4029 0.984 . S
H4033 N4029 0.985 . S
H4034 N4028 0.984 . S
H4035 N4028 0.984 . S
H4036 N4024 0.984 . S
H4037 N4024 0.985 . S
C4038 C4039 1.363 . S
C4038 C4044 1.379 . S
C4038 N4046 1.356 . S
C4039 C4038 1.363 . S
C4039 C4045 1.363 . S
C4040 C4041 1.363 . S
C4040 C4045 1.379 . S
C4040 N4047 1.356 . S
C4041 C4040 1.363 . S
C4041 C4044 1.363 . S
N4042 C4044 1.356 . S
N4042 H4054 0.984 . S
N4042 H4055 0.985 . S
N4043 C4045 1.356 . S
N4043 H4048 0.984 . S
N4043 H4049 0.985 . S
C4044 C4038 1.379 . S
C4044 C4041 1.363 . S
C4044 N4042 1.356 . S
C4045 C4039 1.363 . S
C4045 C4040 1.379 . S
C4045 N4043 1.356 . S
N4046 C4038 1.356 . S
N4046 H4052 0.984 . S
N4046 H4053 0.984 . S
N4047 C4040 1.356 . S
N4047 H4050 0.984 . S
N4047 H4051 0.985 . S
H4048 N4043 0.984 . S
H4049 N4043 0.985 . S
H4050 N4047 0.984 . S
H4051 N4047 0.985 . S
H4052 N4046 0.984 . S
H4053 N4046 0.984 . S
H4054 N4042 0.984 . S
H4055 N4042 0.985 . S
C4056 C4057 1.363 . S
C4056 C4062 1.379 . S
C4056 N4064 1.356 . S
C4057 C4056 1.363 . S
C4057 C4063 1.363 . S
C4058 C4059 1.363 . S
C4058 C4063 1.379 . S
C4058 N4065 1.356 . S
C4059 C4058 1.363 . S
C4059 C4062 1.363 . S
N4060 C4062 1.356 . S
N4060 H4072 0.984 . S
N4060 H4073 0.985 . S
N4061 C4063 1.356 . S
N4061 H4066 0.984 . S
N4061 H4067 0.985 . S
C4062 C4056 1.379 . S
C4062 C4059 1.363 . S
C4062 N4060 1.356 . S
C4063 C4057 1.363 . S
C4063 C4058 1.379 . S
C4063 N4061 1.356 . S
N4064 C4056 1.356 . S
N4064 H4070 0.984 . S
N4064 H4071 0.984 . S
N4065 C4058 1.356 . S
N4065 H4068 0.984 . S
N4065 H4069 0.985 . S
H4066 N4061 0.984 . S
H4067 N4061 0.985 . S
H4068 N4065 0.984 . S
H4069 N4065 0.985 . S
H4070 N4064 0.984 . S
H4071 N4064 0.984 . S
H4072 N4060 0.984 . S
H4073 N4060 0.985 . S
C4074 C4075 1.363 . S
C4074 C4080 1.379 . S
C4074 N4082 1.356 . S
C4075 C4074 1.363 . S
C4075 C4081 1.363 . S
C4076 C4077 1.363 . S
C4076 C4081 1.379 . S
C4076 N4083 1.356 . S
C4077 C4076 1.363 . S
C4077 C4080 1.363 . S
N4078 C4080 1.356 . S
N4078 H4090 0.984 . S
N4078 H4091 0.985 . S
N4079 C4081 1.356 . S
N4079 H4084 0.984 . S
N4079 H4085 0.985 . S
C4080 C4074 1.379 . S
C4080 C4077 1.363 . S
C4080 N4078 1.356 . S
C4081 C4075 1.363 . S
C4081 C4076 1.379 . S
C4081 N4079 1.356 . S
N4082 C4074 1.356 . S
N4082 H4088 0.984 . S
N4082 H4089 0.984 . S
N4083 C4076 1.356 . S
N4083 H4086 0.984 . S
N4083 H4087 0.985 . S
H4084 N4079 0.984 . S
H4085 N4079 0.985 . S
H4086 N4083 0.984 . S
H4087 N4083 0.985 . S
H4088 N4082 0.984 . S
H4089 N4082 0.984 . S
H4090 N4078 0.984 . S
H4091 N4078 0.985 . S
C4092 C4093 1.363 . S
C4092 C4098 1.379 . S
C4092 N4100 1.356 . S
C4093 C4092 1.363 . S
C4093 C4099 1.363 . S
C4094 C4095 1.363 . S
C4094 C4099 1.379 . S
C4094 N4101 1.356 . S
C4095 C4094 1.363 . S
C4095 C4098 1.363 . S
N4096 C4098 1.356 . S
N4096 H4108 0.984 . S
N4096 H4109 0.985 . S
N4097 C4099 1.356 . S
N4097 H4102 0.984 . S
N4097 H4103 0.985 . S
C4098 C4092 1.379 . S
C4098 C4095 1.363 . S
C4098 N4096 1.356 . S
C4099 C4093 1.363 . S
C4099 C4094 1.379 . S
C4099 N4097 1.356 . S
N4100 C4092 1.356 . S
N4100 H4106 0.984 . S
N4100 H4107 0.984 . S
N4101 C4094 1.356 . S
N4101 H4104 0.984 . S
N4101 H4105 0.985 . S
H4102 N4097 0.984 . S
H4103 N4097 0.985 . S
H4104 N4101 0.984 . S
H4105 N4101 0.985 . S
H4106 N4100 0.984 . S
H4107 N4100 0.984 . S
H4108 N4096 0.984 . S
H4109 N4096 0.985 . S
C4110 C4111 1.363 . S
C4110 C4116 1.379 . S
C4110 N4118 1.356 . S
C4111 C4110 1.363 . S
C4111 C4117 1.363 . S
C4112 C4113 1.363 . S
C4112 C4117 1.379 . S
C4112 N4119 1.356 . S
C4113 C4112 1.363 . S
C4113 C4116 1.363 . S
N4114 C4116 1.356 . S
N4114 H4126 0.984 . S
N4114 H4127 0.985 . S
N4115 C4117 1.356 . S
N4115 H4120 0.984 . S
N4115 H4121 0.985 . S
C4116 C4110 1.379 . S
C4116 C4113 1.363 . S
C4116 N4114 1.356 . S
C4117 C4111 1.363 . S
C4117 C4112 1.379 . S
C4117 N4115 1.356 . S
N4118 C4110 1.356 . S
N4118 H4124 0.984 . S
N4118 H4125 0.984 . S
N4119 C4112 1.356 . S
N4119 H4122 0.984 . S
N4119 H4123 0.985 . S
H4120 N4115 0.984 . S
H4121 N4115 0.985 . S
H4122 N4119 0.984 . S
H4123 N4119 0.985 . S
H4124 N4118 0.984 . S
H4125 N4118 0.984 . S
H4126 N4114 0.984 . S
H4127 N4114 0.985 . S
C4128 C4129 1.363 . S
C4128 C4134 1.379 . S
C4128 N4136 1.356 . S
C4129 C4128 1.363 . S
C4129 C4135 1.363 . S
C4130 C4131 1.363 . S
C4130 C4135 1.379 . S
C4130 N4137 1.356 . S
C4131 C4130 1.363 . S
C4131 C4134 1.363 . S
N4132 C4134 1.356 . S
N4132 H4144 0.984 . S
N4132 H4145 0.985 . S
N4133 C4135 1.356 . S
N4133 H4138 0.984 . S
N4133 H4139 0.985 . S
C4134 C4128 1.379 . S
C4134 C4131 1.363 . S
C4134 N4132 1.356 . S
C4135 C4129 1.363 . S
C4135 C4130 1.379 . S
C4135 N4133 1.356 . S
N4136 C4128 1.356 . S
N4136 H4142 0.984 . S
N4136 H4143 0.984 . S
N4137 C4130 1.356 . S
N4137 H4140 0.984 . S
N4137 H4141 0.985 . S
H4138 N4133 0.984 . S
H4139 N4133 0.985 . S
H4140 N4137 0.984 . S
H4141 N4137 0.985 . S
H4142 N4136 0.984 . S
H4143 N4136 0.984 . S
H4144 N4132 0.984 . S
H4145 N4132 0.985 . S
C4146 C4147 1.363 . S
C4146 C4152 1.379 . S
C4146 N4154 1.356 . S
C4147 C4146 1.363 . S
C4147 C4153 1.363 . S
C4148 C4149 1.363 . S
C4148 C4153 1.379 . S
C4148 N4155 1.356 . S
C4149 C4148 1.363 . S
C4149 C4152 1.363 . S
N4150 C4152 1.356 . S
N4150 H4162 0.984 . S
N4150 H4163 0.985 . S
N4151 C4153 1.356 . S
N4151 H4156 0.984 . S
N4151 H4157 0.985 . S
C4152 C4146 1.379 . S
C4152 C4149 1.363 . S
C4152 N4150 1.356 . S
C4153 C4147 1.363 . S
C4153 C4148 1.379 . S
C4153 N4151 1.356 . S
N4154 C4146 1.356 . S
N4154 H4160 0.984 . S
N4154 H4161 0.984 . S
N4155 C4148 1.356 . S
N4155 H4158 0.984 . S
N4155 H4159 0.985 . S
H4156 N4151 0.984 . S
H4157 N4151 0.985 . S
H4158 N4155 0.984 . S
H4159 N4155 0.985 . S
H4160 N4154 0.984 . S
H4161 N4154 0.984 . S
H4162 N4150 0.984 . S
H4163 N4150 0.985 . S
C4164 C4165 1.363 . S
C4164 C4170 1.379 . S
C4164 N4172 1.356 . S
C4165 C4164 1.363 . S
C4165 C4171 1.363 . S
C4166 C4167 1.363 . S
C4166 C4171 1.379 . S
C4166 N4173 1.356 . S
C4167 C4166 1.363 . S
C4167 C4170 1.363 . S
N4168 C4170 1.356 . S
N4168 H4180 0.984 . S
N4168 H4181 0.985 . S
N4169 C4171 1.356 . S
N4169 H4174 0.984 . S
N4169 H4175 0.985 . S
C4170 C4164 1.379 . S
C4170 C4167 1.363 . S
C4170 N4168 1.356 . S
C4171 C4165 1.363 . S
C4171 C4166 1.379 . S
C4171 N4169 1.356 . S
N4172 C4164 1.356 . S
N4172 H4178 0.984 . S
N4172 H4179 0.984 . S
N4173 C4166 1.356 . S
N4173 H4176 0.984 . S
N4173 H4177 0.985 . S
H4174 N4169 0.984 . S
H4175 N4169 0.985 . S
H4176 N4173 0.984 . S
H4177 N4173 0.985 . S
H4178 N4172 0.984 . S
H4179 N4172 0.984 . S
H4180 N4168 0.984 . S
H4181 N4168 0.985 . S
C4182 C4183 1.363 . S
C4182 C4188 1.379 . S
C4182 N4190 1.356 . S
C4183 C4182 1.363 . S
C4183 C4189 1.363 . S
C4184 C4185 1.363 . S
C4184 C4189 1.379 . S
C4184 N4191 1.356 . S
C4185 C4184 1.363 . S
C4185 C4188 1.363 . S
N4186 C4188 1.356 . S
N4186 H4198 0.984 . S
N4186 H4199 0.985 . S
N4187 C4189 1.356 . S
N4187 H4192 0.984 . S
N4187 H4193 0.985 . S
C4188 C4182 1.379 . S
C4188 C4185 1.363 . S
C4188 N4186 1.356 . S
C4189 C4183 1.363 . S
C4189 C4184 1.379 . S
C4189 N4187 1.356 . S
N4190 C4182 1.356 . S
N4190 H4196 0.984 . S
N4190 H4197 0.984 . S
N4191 C4184 1.356 . S
N4191 H4194 0.984 . S
N4191 H4195 0.985 . S
H4192 N4187 0.984 . S
H4193 N4187 0.985 . S
H4194 N4191 0.984 . S
H4195 N4191 0.985 . S
H4196 N4190 0.984 . S
H4197 N4190 0.984 . S
H4198 N4186 0.984 . S
H4199 N4186 0.985 . S
C4200 C4201 1.363 . S
C4200 C4206 1.379 . S
C4200 N4208 1.356 . S
C4201 C4200 1.363 . S
C4201 C4207 1.363 . S
C4202 C4203 1.363 . S
C4202 C4207 1.379 . S
C4202 N4209 1.356 . S
C4203 C4202 1.363 . S
C4203 C4206 1.363 . S
N4204 C4206 1.356 . S
N4204 H4216 0.984 . S
N4204 H4217 0.985 . S
N4205 C4207 1.356 . S
N4205 H4210 0.984 . S
N4205 H4211 0.985 . S
C4206 C4200 1.379 . S
C4206 C4203 1.363 . S
C4206 N4204 1.356 . S
C4207 C4201 1.363 . S
C4207 C4202 1.379 . S
C4207 N4205 1.356 . S
N4208 C4200 1.356 . S
N4208 H4214 0.984 . S
N4208 H4215 0.984 . S
N4209 C4202 1.356 . S
N4209 H4212 0.984 . S
N4209 H4213 0.985 . S
H4210 N4205 0.984 . S
H4211 N4205 0.985 . S
H4212 N4209 0.984 . S
H4213 N4209 0.985 . S
H4214 N4208 0.984 . S
H4215 N4208 0.984 . S
H4216 N4204 0.984 . S
H4217 N4204 0.985 . S
C4218 C4219 1.363 . S
C4218 C4224 1.379 . S
C4218 N4226 1.356 . S
C4219 C4218 1.363 . S
C4219 C4225 1.363 . S
C4220 C4221 1.363 . S
C4220 C4225 1.379 . S
C4220 N4227 1.356 . S
C4221 C4220 1.363 . S
C4221 C4224 1.363 . S
N4222 C4224 1.356 . S
N4222 H4234 0.984 . S
N4222 H4235 0.985 . S
N4223 C4225 1.356 . S
N4223 H4228 0.984 . S
N4223 H4229 0.985 . S
C4224 C4218 1.379 . S
C4224 C4221 1.363 . S
C4224 N4222 1.356 . S
C4225 C4219 1.363 . S
C4225 C4220 1.379 . S
C4225 N4223 1.356 . S
N4226 C4218 1.356 . S
N4226 H4232 0.984 . S
N4226 H4233 0.984 . S
N4227 C4220 1.356 . S
N4227 H4230 0.984 . S
N4227 H4231 0.985 . S
H4228 N4223 0.984 . S
H4229 N4223 0.985 . S
H4230 N4227 0.984 . S
H4231 N4227 0.985 . S
H4232 N4226 0.984 . S
H4233 N4226 0.984 . S
H4234 N4222 0.984 . S
H4235 N4222 0.985 . S
C4236 C4237 1.363 . S
C4236 C4242 1.379 . S
C4236 N4244 1.356 . S
C4237 C4236 1.363 . S
C4237 C4243 1.363 . S
C4238 C4239 1.363 . S
C4238 C4243 1.379 . S
C4238 N4245 1.356 . S
C4239 C4238 1.363 . S
C4239 C4242 1.363 . S
N4240 C4242 1.356 . S
N4240 H4252 0.984 . S
N4240 H4253 0.985 . S
N4241 C4243 1.356 . S
N4241 H4246 0.984 . S
N4241 H4247 0.985 . S
C4242 C4236 1.379 . S
C4242 C4239 1.363 . S
C4242 N4240 1.356 . S
C4243 C4237 1.363 . S
C4243 C4238 1.379 . S
C4243 N4241 1.356 . S
N4244 C4236 1.356 . S
N4244 H4250 0.984 . S
N4244 H4251 0.984 . S
N4245 C4238 1.356 . S
N4245 H4248 0.984 . S
N4245 H4249 0.985 . S
H4246 N4241 0.984 . S
H4247 N4241 0.985 . S
H4248 N4245 0.984 . S
H4249 N4245 0.985 . S
H4250 N4244 0.984 . S
H4251 N4244 0.984 . S
H4252 N4240 0.984 . S
H4253 N4240 0.985 . S
C4254 C4255 1.363 . S
C4254 C4260 1.379 . S
C4254 N4262 1.356 . S
C4255 C4254 1.363 . S
C4255 C4261 1.363 . S
C4256 C4257 1.363 . S
C4256 C4261 1.379 . S
C4256 N4263 1.356 . S
C4257 C4256 1.363 . S
C4257 C4260 1.363 . S
N4258 C4260 1.356 . S
N4258 H4270 0.984 . S
N4258 H4271 0.985 . S
N4259 C4261 1.356 . S
N4259 H4264 0.984 . S
N4259 H4265 0.985 . S
C4260 C4254 1.379 . S
C4260 C4257 1.363 . S
C4260 N4258 1.356 . S
C4261 C4255 1.363 . S
C4261 C4256 1.379 . S
C4261 N4259 1.356 . S
N4262 C4254 1.356 . S
N4262 H4268 0.984 . S
N4262 H4269 0.984 . S
N4263 C4256 1.356 . S
N4263 H4266 0.984 . S
N4263 H4267 0.985 . S
H4264 N4259 0.984 . S
H4265 N4259 0.985 . S
H4266 N4263 0.984 . S
H4267 N4263 0.985 . S
H4268 N4262 0.984 . S
H4269 N4262 0.984 . S
H4270 N4258 0.984 . S
H4271 N4258 0.985 . S
C4272 C4273 1.363 . S
C4272 C4278 1.379 1_556 S
C4272 N4280 1.356 . S
C4273 C4272 1.363 . S
C4273 C4279 1.363 . S
C4274 C4275 1.363 1_556 S
C4274 C4279 1.379 . S
C4274 N4281 1.356 1_556 S
C4275 C4274 1.363 1_554 S
C4275 C4278 1.363 . S
N4276 C4278 1.356 . S
N4276 H4288 0.984 . S
N4276 H4289 0.985 . S
N4277 C4279 1.356 . S
N4277 H4282 0.984 . S
N4277 H4283 0.985 . S
C4278 C4272 1.379 1_554 S
C4278 C4275 1.363 . S
C4278 N4276 1.356 . S
C4279 C4273 1.363 . S
C4279 C4274 1.379 . S
C4279 N4277 1.356 . S
N4280 C4272 1.356 . S
N4280 H4286 0.984 . S
N4280 H4287 0.984 . S
N4281 C4274 1.356 1_554 S
N4281 H4284 0.984 . S
N4281 H4285 0.985 . S
H4282 N4277 0.984 . S
H4283 N4277 0.985 . S
H4284 N4281 0.984 . S
H4285 N4281 0.985 . S
H4286 N4280 0.984 . S
H4287 N4280 0.984 . S
H4288 N4276 0.984 . S
H4289 N4276 0.985 . S
C4290 C4291 1.363 1_556 S
C4290 C4296 1.379 . S
C4290 N4298 1.356 1_556 S
C4291 C4290 1.363 1_554 S
C4291 C4297 1.363 . S
C4292 C4293 1.363 . S
C4292 C4297 1.379 1_556 S
C4292 N4299 1.356 . S
C4293 C4292 1.363 . S
C4293 C4296 1.363 . S
N4294 C4296 1.356 . S
N4294 H4306 0.984 . S
N4294 H4307 0.985 . S
N4295 C4297 1.356 . S
N4295 H4300 0.984 . S
N4295 H4301 0.985 . S
C4296 C4290 1.379 . S
C4296 C4293 1.363 . S
C4296 N4294 1.356 . S
C4297 C4291 1.363 . S
C4297 C4292 1.379 1_554 S
C4297 N4295 1.356 . S
N4298 C4290 1.356 1_554 S
N4298 H4304 0.984 . S
N4298 H4305 0.984 . S
N4299 C4292 1.356 . S
N4299 H4302 0.984 . S
N4299 H4303 0.985 . S
H4300 N4295 0.984 . S
H4301 N4295 0.985 . S
H4302 N4299 0.984 . S
H4303 N4299 0.985 . S
H4304 N4298 0.984 . S
H4305 N4298 0.984 . S
H4306 N4294 0.984 . S
H4307 N4294 0.985 . S
C4308 C4309 1.363 . S
C4308 C4314 1.379 1_554 S
C4308 N4316 1.356 . S
C4309 C4308 1.363 . S
C4309 C4315 1.363 . S
C4310 C4311 1.363 . S
C4310 C4315 1.379 1_556 S
C4310 N4317 1.356 . S
C4311 C4310 1.363 . S
C4311 C4314 1.363 . S
N4312 C4314 1.356 . S
N4312 H4324 0.984 . S
N4312 H4325 0.985 . S
N4313 C4315 1.356 . S
N4313 H4318 0.984 . S
N4313 H4319 0.985 . S
C4314 C4308 1.379 1_556 S
C4314 C4311 1.363 . S
C4314 N4312 1.356 . S
C4315 C4309 1.363 . S
C4315 C4310 1.379 1_554 S
C4315 N4313 1.356 . S
N4316 C4308 1.356 . S
N4316 H4322 0.984 . S
N4316 H4323 0.984 . S
N4317 C4310 1.356 . S
N4317 H4320 0.984 . S
N4317 H4321 0.985 . S
H4318 N4313 0.984 . S
H4319 N4313 0.985 . S
H4320 N4317 0.984 . S
H4321 N4317 0.985 . S
H4322 N4316 0.984 . S
H4323 N4316 0.984 . S
H4324 N4312 0.984 . S
H4325 N4312 0.985 . S
C4326 C4327 1.363 . S
C4326 C4332 1.379 1_554 S
C4326 N4334 1.356 . S
C4327 C4326 1.363 . S
C4327 C4333 1.363 1_554 S
C4328 C4329 1.363 . S
C4328 C4333 1.379 . S
C4328 N4335 1.356 . S
C4329 C4328 1.363 . S
C4329 C4332 1.363 . S
N4330 C4332 1.356 . S
N4330 H4342 0.984 . S
N4330 H4343 0.985 . S
N4331 C4333 1.356 1_554 S
N4331 H4336 0.984 . S
N4331 H4337 0.985 . S
C4332 C4326 1.379 1_556 S
C4332 C4329 1.363 . S
C4332 N4330 1.356 . S
C4333 C4327 1.363 1_556 S
C4333 C4328 1.379 . S
C4333 N4331 1.356 1_556 S
N4334 C4326 1.356 . S
N4334 H4340 0.984 . S
N4334 H4341 0.984 . S
N4335 C4328 1.356 . S
N4335 H4338 0.984 . S
N4335 H4339 0.985 . S
H4336 N4331 0.984 . S
H4337 N4331 0.985 . S
H4338 N4335 0.984 . S
H4339 N4335 0.985 . S
H4340 N4334 0.984 . S
H4341 N4334 0.984 . S
H4342 N4330 0.984 . S
H4343 N4330 0.985 . S
C4344 C4345 1.363 . S
C4344 C4350 1.379 . S
C4344 N4352 1.356 . S
C4345 C4344 1.363 . S
C4345 C4351 1.363 . S
C4346 C4347 1.363 . S
C4346 C4351 1.379 1_556 S
C4346 N4353 1.356 . S
C4347 C4346 1.363 . S
C4347 C4350 1.363 1_556 S
N4348 C4350 1.356 1_556 S
N4348 H4360 0.984 . S
N4348 H4361 0.985 . S
N4349 C4351 1.356 . S
N4349 H4354 0.984 . S
N4349 H4355 0.985 . S
C4350 C4344 1.379 . S
C4350 C4347 1.363 1_554 S
C4350 N4348 1.356 1_554 S
C4351 C4345 1.363 . S
C4351 C4346 1.379 1_554 S
C4351 N4349 1.356 . S
N4352 C4344 1.356 . S
N4352 H4358 0.984 . S
N4352 H4359 0.984 . S
N4353 C4346 1.356 . S
N4353 H4356 0.984 . S
N4353 H4357 0.985 . S
H4354 N4349 0.984 . S
H4355 N4349 0.985 . S
H4356 N4353 0.984 . S
H4357 N4353 0.985 . S
H4358 N4352 0.984 . S
H4359 N4352 0.984 . S
H4360 N4348 0.984 . S
H4361 N4348 0.985 . S
C4362 C4363 1.363 . S
C4362 C4368 1.379 1_556 S
C4362 N4370 1.356 . S
C4363 C4362 1.363 . S
C4363 C4369 1.363 1_556 S
C4364 C4365 1.363 . S
C4364 C4369 1.379 . S
C4364 N4371 1.356 . S
C4365 C4364 1.363 . S
C4365 C4368 1.363 . S
N4366 C4368 1.356 . S
N4366 H4378 0.984 . S
N4366 H4379 0.985 . S
N4367 C4369 1.356 1_556 S
N4367 H4372 0.984 . S
N4367 H4373 0.985 . S
C4368 C4362 1.379 1_554 S
C4368 C4365 1.363 . S
C4368 N4366 1.356 . S
C4369 C4363 1.363 1_554 S
C4369 C4364 1.379 . S
C4369 N4367 1.356 1_554 S
N4370 C4362 1.356 . S
N4370 H4376 0.984 . S
N4370 H4377 0.984 . S
N4371 C4364 1.356 . S
N4371 H4374 0.984 . S
N4371 H4375 0.985 . S
H4372 N4367 0.984 . S
H4373 N4367 0.985 . S
H4374 N4371 0.984 . S
H4375 N4371 0.985 . S
H4376 N4370 0.984 . S
H4377 N4370 0.984 . S
H4378 N4366 0.984 . S
H4379 N4366 0.985 . S
C4380 C4381 1.363 . S
C4380 C4386 1.379 1_554 S
C4380 N4388 1.356 . S
C4381 C4380 1.363 . S
C4381 C4387 1.363 . S
C4382 C4383 1.363 1_554 S
C4382 C4387 1.379 . S
C4382 N4389 1.356 1_554 S
C4383 C4382 1.363 1_556 S
C4383 C4386 1.363 . S
N4384 C4386 1.356 . S
N4384 H4396 0.984 . S
N4384 H4397 0.985 . S
N4385 C4387 1.356 . S
N4385 H4390 0.984 . S
N4385 H4391 0.985 . S
C4386 C4380 1.379 1_556 S
C4386 C4383 1.363 . S
C4386 N4384 1.356 . S
C4387 C4381 1.363 . S
C4387 C4382 1.379 . S
C4387 N4385 1.356 . S
N4388 C4380 1.356 . S
N4388 H4394 0.984 . S
N4388 H4395 0.984 . S
N4389 C4382 1.356 1_556 S
N4389 H4392 0.984 . S
N4389 H4393 0.985 . S
H4390 N4385 0.984 . S
H4391 N4385 0.985 . S
H4392 N4389 0.984 . S
H4393 N4389 0.985 . S
H4394 N4388 0.984 . S
H4395 N4388 0.984 . S
H4396 N4384 0.984 . S
H4397 N4384 0.985 . S
C4398 C4399 1.363 . S
C4398 C4404 1.379 1_556 S
C4398 N4406 1.356 . S
C4399 C4398 1.363 . S
C4399 C4405 1.363 1_556 S
C4400 C4401 1.363 . S
C4400 C4405 1.379 . S
C4400 N4407 1.356 . S
C4401 C4400 1.363 . S
C4401 C4404 1.363 . S
N4402 C4404 1.356 . S
N4402 H4414 0.984 . S
N4402 H4415 0.985 . S
N4403 C4405 1.356 1_556 S
N4403 H4408 0.984 . S
N4403 H4409 0.985 . S
C4404 C4398 1.379 1_554 S
C4404 C4401 1.363 . S
C4404 N4402 1.356 . S
C4405 C4399 1.363 1_554 S
C4405 C4400 1.379 . S
C4405 N4403 1.356 1_554 S
N4406 C4398 1.356 . S
N4406 H4412 0.984 . S
N4406 H4413 0.984 . S
N4407 C4400 1.356 . S
N4407 H4410 0.984 . S
N4407 H4411 0.985 . S
H4408 N4403 0.984 . S
H4409 N4403 0.985 . S
H4410 N4407 0.984 . S
H4411 N4407 0.985 . S
H4412 N4406 0.984 . S
H4413 N4406 0.984 . S
H4414 N4402 0.984 . S
H4415 N4402 0.985 . S
C4416 C4417 1.363 . S
C4416 C4422 1.338 1_655 S
C4416 N4424 1.356 . S
C4417 C4416 1.363 . S
C4417 C4423 1.363 . S
C4418 C4419 1.363 . S
C4418 C4423 1.379 1_455 S
C4418 N4425 1.356 . S
C4419 C4418 1.363 . S
C4419 C4422 1.388 . S
N4420 C4422 1.384 . S
N4420 H4432 0.984 . S
N4420 H4433 0.985 . S
N4421 C4423 1.356 . S
N4421 H4426 0.984 . S
N4421 H4427 0.985 . S
C4422 C4416 1.338 1_455 S
C4422 C4419 1.388 . S
C4422 N4420 1.384 . S
C4423 C4417 1.363 . S
C4423 C4418 1.379 1_655 S
C4423 N4421 1.356 . S
N4424 C4416 1.356 . S
N4424 H4430 0.984 . S
N4424 H4431 0.984 . S
N4425 C4418 1.356 . S
N4425 H4428 0.984 . S
N4425 H4429 0.985 . S
H4426 N4421 0.984 . S
H4427 N4421 0.985 . S
H4428 N4425 0.984 . S
H4429 N4425 0.985 . S
H4430 N4424 0.984 . S
H4431 N4424 0.984 . S
H4432 N4420 0.984 . S
H4433 N4420 0.985 . S
C4434 C4435 1.363 . S
C4434 C4440 1.379 1_545 S
C4434 N4442 1.356 . S
C4435 C4434 1.363 . S
C4435 C4441 1.393 . S
C4436 C4437 1.363 . S
C4436 C4441 1.329 1_565 S
C4436 N4443 1.356 . S
C4437 C4436 1.363 . S
C4437 C4440 1.363 . S
N4438 C4440 1.356 . S
N4438 H4450 0.984 . S
N4438 H4451 0.985 . S
N4439 C4441 1.391 . S
N4439 H4444 0.984 . S
N4439 H4445 0.985 . S
C4440 C4434 1.379 1_565 S
C4440 C4437 1.363 . S
C4440 N4438 1.356 . S
C4441 C4435 1.393 . S
C4441 C4436 1.329 1_545 S
C4441 N4439 1.391 . S
N4442 C4434 1.356 . S
N4442 H4448 0.984 . S
N4442 H4449 0.984 . S
N4443 C4436 1.356 . S
N4443 H4446 0.984 . S
N4443 H4447 0.985 . S
H4444 N4439 0.984 . S
H4445 N4439 0.985 . S
H4446 N4443 0.984 . S
H4447 N4443 0.985 . S
H4448 N4442 0.984 . S
H4449 N4442 0.984 . S
H4450 N4438 0.984 . S
H4451 N4438 0.985 . S
C4452 C4453 1.363 . S
C4452 C4458 1.402 . S
C4452 N4460 1.356 . S
C4453 C4452 1.363 . S
C4453 C4459 1.363 . S
C4454 C4455 1.363 . S
C4454 C4459 1.379 1_655 S
C4454 N4461 1.356 . S
C4455 C4454 1.363 . S
C4455 C4458 1.347 1_655 S
N4456 C4458 1.341 1_655 S
N4456 H4468 0.984 . S
N4456 H4469 0.985 . S
N4457 C4459 1.356 . S
N4457 H4462 0.984 . S
N4457 H4463 0.985 . S
C4458 C4452 1.402 . S
C4458 C4455 1.347 1_455 S
C4458 N4456 1.341 1_455 S
C4459 C4453 1.363 . S
C4459 C4454 1.379 1_455 S
C4459 N4457 1.356 . S
N4460 C4452 1.356 . S
N4460 H4466 0.984 . S
N4460 H4467 0.984 . S
N4461 C4454 1.356 . S
N4461 H4464 0.984 . S
N4461 H4465 0.985 . S
H4462 N4457 0.984 . S
H4463 N4457 0.985 . S
H4464 N4461 0.984 . S
H4465 N4461 0.985 . S
H4466 N4460 0.984 . S
H4467 N4460 0.984 . S
H4468 N4456 0.984 . S
H4469 N4456 0.985 . S
C4470 C4471 1.363 . S
C4470 C4476 1.379 1_565 S
C4470 N4478 1.356 . S
C4471 C4470 1.363 . S
C4471 C4477 1.380 . S
C4472 C4473 1.363 . S
C4472 C4477 1.351 1_545 S
C4472 N4479 1.356 . S
C4473 C4472 1.363 . S
C4473 C4476 1.363 . S
N4474 C4476 1.356 . S
N4474 H4486 0.984 . S
N4474 H4487 0.985 . S
N4475 C4477 1.375 . S
N4475 H4480 0.984 . S
N4475 H4481 0.985 . S
C4476 C4470 1.379 1_545 S
C4476 C4473 1.363 . S
C4476 N4474 1.356 . S
C4477 C4471 1.380 . S
C4477 C4472 1.351 1_565 S
C4477 N4475 1.375 . S
N4478 C4470 1.356 . S
N4478 H4484 0.984 . S
N4478 H4485 0.984 . S
N4479 C4472 1.356 . S
N4479 H4482 0.984 . S
N4479 H4483 0.985 . S
H4480 N4475 0.984 . S
H4481 N4475 0.985 . S
H4482 N4479 0.984 . S
H4483 N4479 0.985 . S
H4484 N4478 0.984 . S
H4485 N4478 0.984 . S
H4486 N4474 0.984 . S
H4487 N4474 0.985 . S
C4488 C4489 1.345 1_655 S
C4488 C4494 1.406 . S
C4488 N4496 1.339 1_655 S
C4489 C4488 1.345 1_455 S
C4489 C4495 1.363 . S
C4490 C4491 1.363 . S
C4490 C4495 1.379 1_655 S
C4490 N4497 1.356 . S
C4491 C4490 1.363 . S
C4491 C4494 1.363 . S
N4492 C4494 1.356 . S
N4492 H4504 0.984 . S
N4492 H4505 0.985 . S
N4493 C4495 1.356 . S
N4493 H4498 0.984 . S
N4493 H4499 0.985 . S
C4494 C4488 1.406 . S
C4494 C4491 1.363 . S
C4494 N4492 1.356 . S
C4495 C4489 1.363 . S
C4495 C4490 1.379 1_455 S
C4495 N4493 1.356 . S
N4496 C4488 1.339 1_455 S
N4496 H4502 0.984 . S
N4496 H4503 0.984 . S
N4497 C4490 1.356 . S
N4497 H4500 0.984 . S
N4497 H4501 0.985 . S
H4498 N4493 0.984 . S
H4499 N4493 0.985 . S
H4500 N4497 0.984 . S
H4501 N4497 0.985 . S
H4502 N4496 0.984 . S
H4503 N4496 0.984 . S
H4504 N4492 0.984 . S
H4505 N4492 0.985 . S
C4506 C4507 1.395 . S
C4506 C4512 1.325 1_545 S
C4506 N4514 1.394 . S
C4507 C4506 1.395 . S
C4507 C4513 1.363 . S
C4508 C4509 1.363 . S
C4508 C4513 1.379 1_565 S
C4508 N4515 1.356 . S
C4509 C4508 1.363 . S
C4509 C4512 1.363 . S
N4510 C4512 1.356 . S
N4510 H4522 0.984 . S
N4510 H4523 0.985 . S
N4511 C4513 1.356 . S
N4511 H4516 0.984 . S
N4511 H4517 0.985 . S
C4512 C4506 1.325 1_565 S
C4512 C4509 1.363 . S
C4512 N4510 1.356 . S
C4513 C4507 1.363 . S
C4513 C4508 1.379 1_545 S
C4513 N4511 1.356 . S
N4514 C4506 1.394 . S
N4514 H4520 0.984 . S
N4514 H4521 0.984 . S
N4515 C4508 1.356 . S
N4515 H4518 0.984 . S
N4515 H4519 0.985 . S
H4516 N4511 0.984 . S
H4517 N4511 0.985 . S
H4518 N4515 0.984 . S
H4519 N4515 0.985 . S
H4520 N4514 0.984 . S
H4521 N4514 0.984 . S
H4522 N4510 0.984 . S
H4523 N4510 0.985 . S
C4524 C4525 1.363 . S
C4524 C4530 1.379 1_655 S
C4524 N4532 1.356 . S
C4525 C4524 1.363 . S
C4525 C4531 1.357 1_655 S
C4526 C4527 1.363 . S
C4526 C4531 1.389 . S
C4526 N4533 1.356 . S
C4527 C4526 1.363 . S
C4527 C4530 1.363 . S
N4528 C4530 1.356 . S
N4528 H4540 0.984 . S
N4528 H4541 0.985 . S
N4529 C4531 1.350 1_655 S
N4529 H4534 0.984 . S
N4529 H4535 0.985 . S
C4530 C4524 1.379 1_455 S
C4530 C4527 1.363 . S
C4530 N4528 1.356 . S
C4531 C4525 1.357 1_455 S
C4531 C4526 1.389 . S
C4531 N4529 1.350 1_455 S
N4532 C4524 1.356 . S
N4532 H4538 0.984 . S
N4532 H4539 0.984 . S
N4533 C4526 1.356 . S
N4533 H4536 0.984 . S
N4533 H4537 0.985 . S
H4534 N4529 0.984 . S
H4535 N4529 0.985 . S
H4536 N4533 0.984 . S
H4537 N4533 0.985 . S
H4538 N4532 0.984 . S
H4539 N4532 0.984 . S
H4540 N4528 0.984 . S
H4541 N4528 0.985 . S
C4542 C4543 1.363 . S
C4542 C4548 1.379 1_565 S
C4542 N4550 1.356 . S
C4543 C4542 1.363 . S
C4543 C4549 1.394 . S
C4544 C4545 1.363 . S
C4544 C4549 1.328 1_545 S
C4544 N4551 1.356 . S
C4545 C4544 1.363 . S
C4545 C4548 1.363 . S
N4546 C4548 1.356 . S
N4546 H4558 0.984 . S
N4546 H4559 0.985 . S
N4547 C4549 1.392 . S
N4547 H4552 0.984 . S
N4547 H4553 0.985 . S
C4548 C4542 1.379 1_545 S
C4548 C4545 1.363 . S
C4548 N4546 1.356 . S
C4549 C4543 1.394 . S
C4549 C4544 1.328 1_565 S
C4549 N4547 1.392 . S
N4550 C4542 1.356 . S
N4550 H4556 0.984 . S
N4550 H4557 0.984 . S
N4551 C4544 1.356 . S
N4551 H4554 0.984 . S
N4551 H4555 0.985 . S
H4552 N4547 0.984 . S
H4553 N4547 0.985 . S
H4554 N4551 0.984 . S
H4555 N4551 0.985 . S
H4556 N4550 0.984 . S
H4557 N4550 0.984 . S
H4558 N4546 0.984 . S
H4559 N4546 0.985 . S
C4560 C4561 1.363 . S
C4560 C4566 1.379 1_565 S
C4560 N4568 1.356 . S
C4561 C4560 1.363 . S
C4561 C4567 1.363 . S
C4562 C4563 1.363 . S
C4562 C4567 1.379 1_545 S
C4562 N4569 1.356 . S
C4563 C4562 1.363 . S
C4563 C4566 1.363 . S
N4564 C4566 1.356 . S
N4564 H4576 0.984 . S
N4564 H4577 0.985 . S
N4565 C4567 1.356 . S
N4565 H4570 0.984 . S
N4565 H4571 0.985 . S
C4566 C4560 1.379 1_545 S
C4566 C4563 1.363 . S
C4566 N4564 1.356 . S
C4567 C4561 1.363 . S
C4567 C4562 1.379 1_565 S
C4567 N4565 1.356 . S
N4568 C4560 1.356 . S
N4568 H4574 0.984 . S
N4568 H4575 0.984 . S
N4569 C4562 1.356 . S
N4569 H4572 0.984 . S
N4569 H4573 0.985 . S
H4570 N4565 0.984 . S
H4571 N4565 0.985 . S
H4572 N4569 0.984 . S
H4573 N4569 0.985 . S
H4574 N4568 0.984 . S
H4575 N4568 0.984 . S
H4576 N4564 0.984 . S
H4577 N4564 0.985 . S
C4578 C4579 1.363 . S
C4578 C4584 1.379 1_565 S
C4578 N4586 1.356 . S
C4579 C4578 1.363 . S
C4579 C4585 1.360 1_565 S
C4580 C4581 1.363 . S
C4580 C4585 1.384 . S
C4580 N4587 1.356 . S
C4581 C4580 1.363 . S
C4581 C4584 1.363 . S
N4582 C4584 1.356 . S
N4582 H4594 0.984 . S
N4582 H4595 0.985 . S
N4583 C4585 1.353 1_565 S
N4583 H4588 0.984 . S
N4583 H4589 0.985 . S
C4584 C4578 1.379 1_545 S
C4584 C4581 1.363 . S
C4584 N4582 1.356 . S
C4585 C4579 1.360 1_545 S
C4585 C4580 1.384 . S
C4585 N4583 1.353 1_545 S
N4586 C4578 1.356 . S
N4586 H4592 0.984 . S
N4586 H4593 0.984 . S
N4587 C4580 1.356 . S
N4587 H4590 0.984 . S
N4587 H4591 0.985 . S
H4588 N4583 0.984 . S
H4589 N4583 0.985 . S
H4590 N4587 0.984 . S
H4591 N4587 0.985 . S
H4592 N4586 0.984 . S
H4593 N4586 0.984 . S
H4594 N4582 0.984 . S
H4595 N4582 0.985 . S
C4596 C4597 1.363 . S
C4596 C4602 1.379 1_455 S
C4596 N4604 1.356 . S
C4597 C4596 1.363 . S
C4597 C4603 1.375 . S
C4598 C4599 1.363 . S
C4598 C4603 1.359 1_655 S
C4598 N4605 1.356 . S
C4599 C4598 1.363 . S
C4599 C4602 1.363 . S
N4600 C4602 1.356 . S
N4600 H4612 0.984 . S
N4600 H4613 0.985 . S
N4601 C4603 1.369 . S
N4601 H4606 0.984 . S
N4601 H4607 0.985 . S
C4602 C4596 1.379 1_655 S
C4602 C4599 1.363 . S
C4602 N4600 1.356 . S
C4603 C4597 1.375 . S
C4603 C4598 1.359 1_455 S
C4603 N4601 1.369 . S
N4604 C4596 1.356 . S
N4604 H4610 0.984 . S
N4604 H4611 0.984 . S
N4605 C4598 1.356 . S
N4605 H4608 0.984 . S
N4605 H4609 0.985 . S
H4606 N4601 0.984 . S
H4607 N4601 0.985 . S
H4608 N4605 0.984 . S
H4609 N4605 0.985 . S
H4610 N4604 0.984 . S
H4611 N4604 0.984 . S
H4612 N4600 0.984 . S
H4613 N4600 0.985 . S
C4614 C4615 1.363 . S
C4614 C4620 1.379 1_545 S
C4614 N4622 1.356 . S
C4615 C4614 1.363 . S
C4615 C4621 1.363 1_545 S
C4616 C4617 1.363 . S
C4616 C4621 1.379 . S
C4616 N4623 1.356 . S
C4617 C4616 1.363 . S
C4617 C4620 1.363 . S
N4618 C4620 1.356 . S
N4618 H4630 0.984 . S
N4618 H4631 0.985 . S
N4619 C4621 1.356 1_545 S
N4619 H4624 0.984 . S
N4619 H4625 0.985 . S
C4620 C4614 1.379 1_565 S
C4620 C4617 1.363 . S
C4620 N4618 1.356 . S
C4621 C4615 1.363 1_565 S
C4621 C4616 1.379 . S
C4621 N4619 1.356 1_565 S
N4622 C4614 1.356 . S
N4622 H4628 0.984 . S
N4622 H4629 0.984 . S
N4623 C4616 1.356 . S
N4623 H4626 0.984 . S
N4623 H4627 0.985 . S
H4624 N4619 0.984 . S
H4625 N4619 0.985 . S
H4626 N4623 0.984 . S
H4627 N4623 0.985 . S
H4628 N4622 0.984 . S
H4629 N4622 0.984 . S
H4630 N4618 0.984 . S
H4631 N4618 0.985 . S
C4632 C4633 1.363 . S
C4632 C4638 1.379 1_655 S
C4632 N4640 1.356 . S
C4633 C4632 1.363 . S
C4633 C4639 1.381 . S
C4634 C4635 1.363 . S
C4634 C4639 1.350 1_455 S
C4634 N4641 1.356 . S
C4635 C4634 1.363 . S
C4635 C4638 1.363 . S
N4636 C4638 1.356 . S
N4636 H4648 0.984 . S
N4636 H4649 0.985 . S
N4637 C4639 1.376 . S
N4637 H4642 0.984 . S
N4637 H4643 0.985 . S
C4638 C4632 1.379 1_455 S
C4638 C4635 1.363 . S
C4638 N4636 1.356 . S
C4639 C4633 1.381 . S
C4639 C4634 1.350 1_655 S
C4639 N4637 1.376 . S
N4640 C4632 1.356 . S
N4640 H4646 0.984 . S
N4640 H4647 0.984 . S
N4641 C4634 1.356 . S
N4641 H4644 0.984 . S
N4641 H4645 0.985 . S
H4642 N4637 0.984 . S
H4643 N4637 0.985 . S
H4644 N4641 0.984 . S
H4645 N4641 0.985 . S
H4646 N4640 0.984 . S
H4647 N4640 0.984 . S
H4648 N4636 0.984 . S
H4649 N4636 0.985 . S
C4650 C4651 1.363 . S
C4650 C4656 1.379 1_545 S
C4650 N4658 1.356 . S
C4651 C4650 1.363 . S
C4651 C4657 1.363 . S
C4652 C4653 1.389 . S
C4652 C4657 1.337 1_565 S
C4652 N4659 1.385 . S
C4653 C4652 1.389 . S
C4653 C4656 1.363 . S
N4654 C4656 1.356 . S
N4654 H4666 0.984 . S
N4654 H4667 0.985 . S
N4655 C4657 1.356 . S
N4655 H4660 0.984 . S
N4655 H4661 0.985 . S
C4656 C4650 1.379 1_565 S
C4656 C4653 1.363 . S
C4656 N4654 1.356 . S
C4657 C4651 1.363 . S
C4657 C4652 1.337 1_545 S
C4657 N4655 1.356 . S
N4658 C4650 1.356 . S
N4658 H4664 0.984 . S
N4658 H4665 0.984 . S
N4659 C4652 1.385 . S
N4659 H4662 0.984 . S
N4659 H4663 0.985 . S
H4660 N4655 0.984 . S
H4661 N4655 0.985 . S
H4662 N4659 0.984 . S
H4663 N4659 0.985 . S
H4664 N4658 0.984 . S
H4665 N4658 0.984 . S
H4666 N4654 0.984 . S
H4667 N4654 0.985 . S
C4668 C4669 1.363 . S
C4668 C4674 1.391 . S
C4668 N4676 1.356 . S
C4669 C4668 1.363 . S
C4669 C4675 1.363 . S
C4670 C4671 1.363 . S
C4670 C4675 1.379 1_455 S
C4670 N4677 1.356 . S
C4671 C4670 1.363 . S
C4671 C4674 1.355 1_455 S
N4672 C4674 1.349 1_455 S
N4672 H4684 0.984 . S
N4672 H4685 0.985 . S
N4673 C4675 1.356 . S
N4673 H4678 0.984 . S
N4673 H4679 0.985 . S
C4674 C4668 1.391 . S
C4674 C4671 1.355 1_655 S
C4674 N4672 1.349 1_655 S
C4675 C4669 1.363 . S
C4675 C4670 1.379 1_655 S
C4675 N4673 1.356 . S
N4676 C4668 1.356 . S
N4676 H4682 0.984 . S
N4676 H4683 0.984 . S
N4677 C4670 1.356 . S
N4677 H4680 0.984 . S
N4677 H4681 0.985 . S
H4678 N4673 0.984 . S
H4679 N4673 0.985 . S
H4680 N4677 0.984 . S
H4681 N4677 0.985 . S
H4682 N4676 0.984 . S
H4683 N4676 0.984 . S
H4684 N4672 0.984 . S
H4685 N4672 0.985 . S
C4686 C4687 1.363 . S
C4686 C4692 1.379 1_655 S
C4686 N4694 1.356 . S
C4687 C4686 1.363 . S
C4687 C4693 1.337 1_655 S
C4688 C4689 1.363 . S
C4688 C4693 1.418 . S
C4688 N4695 1.356 . S
C4689 C4688 1.363 . S
C4689 C4692 1.363 . S
N4690 C4692 1.356 . S
N4690 H4702 0.984 . S
N4690 H4703 0.985 . S
N4691 C4693 1.332 1_655 S
N4691 H4696 0.984 . S
N4691 H4697 0.985 . S
C4692 C4686 1.379 1_455 S
C4692 C4689 1.363 . S
C4692 N4690 1.356 . S
C4693 C4687 1.337 1_455 S
C4693 C4688 1.418 . S
C4693 N4691 1.332 1_455 S
N4694 C4686 1.356 . S
N4694 H4700 0.984 . S
N4694 H4701 0.984 . S
N4695 C4688 1.356 . S
N4695 H4698 0.984 . S
N4695 H4699 0.985 . S
H4696 N4691 0.984 . S
H4697 N4691 0.985 . S
H4698 N4695 0.984 . S
H4699 N4695 0.985 . S
H4700 N4694 0.984 . S
H4701 N4694 0.984 . S
H4702 N4690 0.984 . S
H4703 N4690 0.985 . S
C1249 C3 1.335 . S
C1251 C408 1.378 . S
C1267 C16 1.335 . S
C1269 C369 1.379 . S
C1285 C380 1.378 . S
C1287 C29 1.335 . S
C1303 C393 1.379 . S
C1305 C44 1.335 . S
C1321 C330 1.378 . S
C1323 C57 1.335 . S
C1339 C341 1.379 . S
C1341 C68 1.335 . S
C1357 C83 1.335 . S
C1359 C354 1.378 . S
C1375 C315 1.379 . S
C1377 C96 1.335 . S
C1393 C108 1.331 . S
C1395 C576 1.379 . S
C1411 C122 1.335 . S
C1413 C536 1.378 . S
C1429 C134 1.331 . S
C1431 C550 1.379 . S
C1447 C148 1.335 . S
C1449 C564 1.378 . S
C1465 C166 1.331 . S
C1467 C615 1.379 . S
C1483 C174 1.335 . S
C1485 C590 1.378 . S
C1501 C192 1.331 . S
C1503 C602 1.379 . S
C1519 C523 1.378 . S
C1521 C198 1.335 . S
C1537 C211 1.335 . S
C1539 C510 1.379 . S
C1555 C432 1.379 . S
C1557 C226 1.335 . S
C1573 C452 1.379 . S
C1575 C244 1.331 . S
C1591 C252 1.335 . S
C1593 C458 1.379 . S
C1609 C426 1.379 . S
C1611 C264 1.331 . S
C1627 C486 1.379 . S
C1629 C278 1.335 . S
C1645 C296 1.331 . S
C1647 C504 1.379 . S
C1663 C309 1.331 . S
C1665 C472 1.379 . S
C1681 C1032 1.378 . S
C1683 C629 1.335 . S
C1699 C993 1.379 . S
C1701 C642 1.335 . S
C1717 C655 1.335 . S
C1719 C1006 1.378 . S
C1735 C1017 1.379 . S
C1737 C666 1.335 . S
C1753 C681 1.335 . S
C1755 C954 1.378 . S
C1771 C694 1.335 . S
C1773 C965 1.379 . S
C1789 C980 1.378 . S
C1791 C705 1.335 . S
C1807 C939 1.379 . S
C1809 C720 1.335 . S
C1825 C1200 1.379 . S
C1827 C738 1.331 . S
C1843 C1162 1.378 . S
C1845 C746 1.335 . S
C1861 C764 1.331 . S
C1863 C1180 1.379 . S
C1879 C772 1.335 . S
C1881 C1186 1.378 . S
C1897 C1239 1.379 . S
C1899 C784 1.331 . S
C1915 C1214 1.378 . S
C1917 C798 1.335 . S
C1933 C1232 1.379 . S
C1935 C810 1.331 . S
C1951 C822 1.335 . S
C1953 C1149 1.378 . S
C1969 C1134 1.379 . S
C1971 C837 1.335 . S
C1987 C848 1.335 . S
C1989 C1058 1.379 . S
C2005 C1076 1.379 . S
C2007 C862 1.331 . S
C2023 C1082 1.379 . S
C2025 C874 1.335 . S
C2041 C1044 1.379 . S
C2043 C888 1.331 . S
C2059 C902 1.335 . S
C2061 C1108 1.379 . S
C2077 C914 1.331 . S
C2079 C1122 1.379 . S
C2095 C1096 1.379 . S
C2097 C933 1.331 . S
C2113 C4 1.952 . S
C2115 C887 1.960 . S
C2131 C17 1.951 . S
C2133 C849 1.951 . S
C2149 C30 1.952 . S
C2151 C861 1.960 . S
C2167 C49 1.951 . S
C2169 C875 1.951 . S
C2185 C928 1.960 . S
C2187 C62 1.952 . S
C2203 C69 1.951 . S
C2205 C907 1.951 . S
C2221 C913 1.960 . S
C2223 C88 1.952 . S
C2239 C101 1.951 . S
C2241 C842 1.951 . S
C2257 C823 1.952 . S
C2259 C107 1.960 . S
C2275 C127 1.952 . S
C2277 C783 1.960 . S
C2293 C803 1.952 . S
C2295 C133 1.960 . S
C2311 C153 1.952 . S
C2313 C809 1.960 . S
C2329 C161 1.960 . S
C2331 C751 1.952 . S
C2347 C179 1.952 . S
C2349 C759 1.960 . S
C2365 C777 1.952 . S
C2367 C187 1.960 . S
C2383 C733 1.960 . S
C2385 C199 1.952 . S
C2401 C212 1.951 . S
C2403 C725 1.951 . S
C2419 C231 1.951 . S
C2421 C647 1.951 . S
C2437 C239 1.960 . S
C2439 C660 1.952 . S
C2455 C257 1.951 . S
C2457 C667 1.951 . S
C2473 C263 1.960 . S
C2475 C634 1.952 . S
C2491 C699 1.951 . S
C2493 C283 1.951 . S
C2509 C706 1.952 . S
C2511 C291 1.960 . S
C2527 C304 1.960 . S
C2529 C686 1.952 . S
C2545 C322 1.381 . S
C2547 C1201 1.376 . S
C2563 C329 1.381 . S
C2565 C1161 1.381 . S
C2581 C348 1.381 . S
C2583 C1173 1.376 . S
C2599 C361 1.381 . S
C2601 C1193 1.381 . S
C2617 C368 1.381 . S
C2619 C1240 1.376 . S
C2635 C1213 1.381 . S
C2637 C387 1.381 . S
C2653 C400 1.381 . S
C2655 C1225 1.376 . S
C2671 C407 1.381 . S
C2673 C1148 1.381 . S
C2689 C1141 1.381 . S
C2691 C419 1.376 . S
C2707 C1097 1.376 . S
C2709 C439 1.381 . S
C2725 C1115 1.381 . S
C2727 C445 1.376 . S
C2743 C1123 1.376 . S
C2745 C465 1.381 . S
C2761 C473 1.376 . S
C2763 C1057 1.381 . S
C2779 C485 1.381 . S
C2781 C1069 1.376 . S
C2797 C497 1.376 . S
C2799 C1089 1.381 . S
C2815 C1045 1.376 . S
C2817 C517 1.381 . S
C2833 C1031 1.381 . S
C2835 C530 1.381 . S
C2851 C543 1.381 . S
C2853 C953 1.381 . S
C2869 C972 1.381 . S
C2871 C551 1.376 . S
C2887 C979 1.381 . S
C2889 C563 1.381 . S
C2905 C577 1.376 . S
C2907 C946 1.381 . S
C2923 C589 1.381 . S
C2925 C1005 1.381 . S
C2941 C1024 1.381 . S
C2943 C603 1.376 . S
C2959 C616 1.376 . S
C2961 C992 1.381 . S
C2977 C10 1.842 . S
C2979 C374 1.797 . S
C2995 C23 1.839 . S
C2997 C381 1.793 . S
C3013 C36 1.842 . S
C3015 C394 1.797 . S
C3031 C43 1.839 . S
C3033 C413 1.793 . S
C3049 C316 1.797 . S
C3051 C56 1.842 . S
C3067 C75 1.839 . S
C3069 C335 1.793 . S
C3085 C342 1.797 . S
C3087 C82 1.842 . S
C3103 C355 1.793 . S
C3105 C95 1.839 . S
C3121 C109 1.841 . S
C3123 C499 1.811 . S
C3139 C511 1.797 . S
C3141 C121 1.842 . S
C3157 C135 1.841 . S
C3159 C471 1.811 . S
C3175 C147 1.842 . S
C3177 C491 1.797 . S
C3193 C159 1.841 . S
C3195 C447 1.811 . S
C3211 C173 1.842 . S
C3213 C459 1.797 . S
C3229 C185 1.841 . S
C3231 C421 1.811 . S
C3247 C433 1.797 . S
C3249 C205 1.842 . S
C3265 C218 1.839 . S
C3267 C595 1.793 . S
C3283 C225 1.839 . S
C3285 C569 1.793 . S
C3301 C575 1.811 . S
C3303 C237 1.841 . S
C3319 C251 1.839 . S
C3321 C537 1.793 . S
C3337 C549 1.811 . S
C3339 C265 1.841 . S
C3355 C277 1.839 . S
C3357 C524 1.793 . S
C3373 C614 1.811 . S
C3375 C289 1.841 . S
C3391 C601 1.811 . S
C3393 C302 1.841 . S
C3409 C628 1.842 . S
C3411 C998 1.797 . S
C3427 C641 1.839 . S
C3429 C1011 1.793 . S
C3445 C654 1.842 . S
C3447 C1018 1.797 . S
C3463 C1037 1.793 . S
C3465 C673 1.839 . S
C3481 C680 1.842 . S
C3483 C940 1.797 . S
C3499 C693 1.839 . S
C3501 C959 1.793 . S
C3517 C712 1.842 . S
C3519 C966 1.797 . S
C3535 C719 1.839 . S
C3537 C985 1.793 . S
C3553 C731 1.841 . S
C3555 C1121 1.811 . S
C3571 C1135 1.797 . S
C3573 C745 1.842 . S
C3589 C1095 1.811 . S
C3591 C757 1.841 . S
C3607 C1109 1.797 . S
C3609 C771 1.842 . S
C3625 C785 1.841 . S
C3627 C1071 1.811 . S
C3643 C1083 1.797 . S
C3645 C797 1.842 . S
C3661 C811 1.841 . S
C3663 C1043 1.811 . S
C3679 C1063 1.797 . S
C3681 C829 1.842 . S
C3697 C1219 1.793 . S
C3699 C836 1.839 . S
C3715 C1187 1.793 . S
C3717 C855 1.839 . S
C3733 C863 1.841 . S
C3735 C1199 1.811 . S
C3751 C881 1.839 . S
C3753 C1167 1.793 . S
C3769 C1175 1.811 . S
C3771 C889 1.841 . S
C3787 C901 1.839 . S
C3789 C1154 1.793 . S
C3805 C1238 1.811 . S
C3807 C915 1.841 . S
C3823 C1227 1.811 . S
C3825 C926 1.841 . S
C3841 C343 1.434 . S
C3843 C5 1.434 . S
C3859 C18 1.441 . S
C3861 C356 1.441 . S
C3877 C317 1.434 . S
C3879 C31 1.434 . S
C3895 C42 1.441 . S
C3897 C328 1.441 . S
C3913 C395 1.434 . S
C3915 C55 1.434 . S
C3931 C406 1.441 . S
C3933 C70 1.441 . S
C3949 C81 1.434 . S
C3951 C367 1.434 . S
C3967 C382 1.441 . S
C3969 C94 1.441 . S
C3985 C114 1.432 . S
C3987 C478 1.432 . S
C4003 C120 1.434 . S
C4005 C484 1.434 . S
C4021 C498 1.432 . S
C4023 C140 1.432 . S
C4039 C146 1.434 . S
C4041 C512 1.434 . S
C4057 C160 1.432 . S
C4059 C420 1.432 . S
C4075 C434 1.434 . S
C4077 C172 1.434 . S
C4093 C446 1.432 . S
C4095 C186 1.432 . S
C4111 C460 1.434 . S
C4113 C200 1.434 . S
C4129 C213 1.441 . S
C4131 C562 1.441 . S
C4147 C588 1.441 . S
C4149 C224 1.441 . S
C4165 C238 1.432 . S
C4167 C608 1.432 . S
C4183 C525 1.441 . S
C4185 C250 1.441 . S
C4201 C621 1.432 . S
C4203 C270 1.432 . S
C4219 C538 1.441 . S
C4221 C276 1.441 . S
C4237 C290 1.432 . S
C4239 C556 1.432 . S
C4255 C303 1.432 . S
C4257 C582 1.432 . S
C4273 C627 1.434 . S
C4275 C967 1.434 . S
C4291 C978 1.441 . S
C4293 C640 1.441 . S
C4309 C941 1.434 . S
C4311 C653 1.434 . S
C4327 C952 1.441 . S
C4329 C668 1.441 . S
C4345 C679 1.434 . S
C4347 C1019 1.434 . S
C4363 C1030 1.441 . S
C4365 C692 1.441 . S
C4381 C707 1.434 . S
C4383 C991 1.434 . S
C4399 C1004 1.441 . S
C4401 C718 1.441 . S
C4417 C732 1.432 . S
C4419 C1102 1.432 . S
C4435 C1110 1.434 . S
C4437 C744 1.434 . S
C4453 C758 1.432 . S
C4455 C1128 1.432 . S
C4471 C1136 1.434 . S
C4473 C770 1.434 . S
C4489 C1050 1.432 . S
C4491 C790 1.432 . S
C4507 C1056 1.434 . S
C4509 C796 1.434 . S
C4525 C1070 1.432 . S
C4527 C816 1.432 . S
C4543 C1084 1.434 . S
C4545 C824 1.434 . S
C4561 C835 1.441 . S
C4563 C1188 1.441 . S
C4579 C1212 1.441 . S
C4581 C850 1.441 . S
C4597 C1226 1.432 . S
C4599 C868 1.432 . S
C4615 C1147 1.441 . S
C4617 C876 1.441 . S
C4633 C1245 1.432 . S
C4635 C894 1.432 . S
C4651 C900 1.441 . S
C4653 C1160 1.441 . S
C4669 C920 1.432 . S
C4671 C1174 1.432 . S
C4687 C1206 1.432 . S
C4689 C927 1.432 . S
