# Generated by pormake.
# Topology rkf, (6)-cn, num edge types: 1
# Building blocks:
#     Node 0, Type 0, BuildingBlock: HISSIN_clean_sbu_0, # of connection points: 6
#     Node 1, Type 0, BuildingBlock: HISSIN_clean_sbu_0, # of connection points: 6
#     Node 2, Type 0, BuildingBlock: HISSIN_clean_sbu_0, # of connection points: 6
#     Node 3, Type 0, BuildingBlock: HISSIN_clean_sbu_0, # of connection points: 6
#     Node 4, Type 0, BuildingBlock: HISSIN_clean_sbu_0, # of connection points: 6
#     Node 5, Type 0, BuildingBlock: HISSIN_clean_sbu_0, # of connection points: 6
#     Edge 6, Type (0, 0), BuildingBlock: UVAHIK_clean_linker_0, # of connection points: 2
#     Edge 7, Type (0, 0), BuildingBlock: UVAHIK_clean_linker_0, # of connection points: 2
#     Edge 8, Type (0, 0), BuildingBlock: UVAHIK_clean_linker_0, # of connection points: 2
#     Edge 9, Type (0, 0), BuildingBlock: UVAHIK_clean_linker_0, # of connection points: 2
#     Edge 10, Type (0, 0), BuildingBlock: UVAHIK_clean_linker_0, # of connection points: 2
#     Edge 11, Type (0, 0), BuildingBlock: UVAHIK_clean_linker_0, # of connection points: 2
#     Edge 12, Type (0, 0), BuildingBlock: UVAHIK_clean_linker_0, # of connection points: 2
#     Edge 13, Type (0, 0), BuildingBlock: UVAHIK_clean_linker_0, # of connection points: 2
#     Edge 14, Type (0, 0), BuildingBlock: UVAHIK_clean_linker_0, # of connection points: 2
#     Edge 15, Type (0, 0), BuildingBlock: UVAHIK_clean_linker_0, # of connection points: 2
#     Edge 16, Type (0, 0), BuildingBlock: UVAHIK_clean_linker_0, # of connection points: 2
#     Edge 17, Type (0, 0), BuildingBlock: UVAHIK_clean_linker_0, # of connection points: 2
#     Edge 18, Type (0, 0), BuildingBlock: UVAHIK_clean_linker_0, # of connection points: 2
#     Edge 19, Type (0, 0), BuildingBlock: UVAHIK_clean_linker_0, # of connection points: 2
#     Edge 20, Type (0, 0), BuildingBlock: UVAHIK_clean_linker_0, # of connection points: 2
#     Edge 21, Type (0, 0), BuildingBlock: UVAHIK_clean_linker_0, # of connection points: 2
#     Edge 22, Type (0, 0), BuildingBlock: UVAHIK_clean_linker_0, # of connection points: 2
#     Edge 23, Type (0, 0), BuildingBlock: UVAHIK_clean_linker_0, # of connection points: 2
# Relax obj value: 0.540
# Max RMSD: 0.256
# Mean RMSD: 0.256
data_MOF--net-rkf--node1-HISSIN_clean_sbu_0--edge1-UVAHIK_clean_linker_0
_symmetry_space_group_name_H-M    P1
_symmetry_Int_Tables_number       1
_symmetry_cell_setting            triclinic
loop_
_symmetry_equiv_pos_as_xyz
'x, y, z'
_cell_length_a     30.939531
_cell_length_b     31.254853
_cell_length_c     58.362191
_cell_angle_alpha  89.538206
_cell_angle_beta   90.66261
_cell_angle_gamma 120.12398
loop_
_atom_site_label
_atom_site_type_symbol
_atom_site_fract_x
_atom_site_fract_y
_atom_site_fract_z
_atom_type_partial_charge
Eu0 Eu 0.32027 0.15302 0.10381 0.0
Eu1 Eu 0.41148 0.26659 1.09375 0.0
C2 C 0.43506 0.18143 0.10554 0.0
C3 C 0.2071 0.02855 0.12484 0.0
C4 C 0.20408 0.98506 0.1332 0.0
C5 C 0.12534 0.00276 0.14074 0.0
C6 C 0.1621 0.95057 0.14514 0.0
C7 C 0.16761 0.03749 0.12879 0.0
C8 C 0.12195 0.95869 0.14883 0.0
C9 C 0.25031 0.06174 0.11077 0.0
O10 O 0.393 0.22869 1.05819 0.0
O11 O 0.31862 0.15756 1.06533 0.0
C12 C 0.35318 0.18743 1.051 0.0
O13 O 0.28825 0.20312 0.10815 0.0
O14 O 0.48824 0.31402 1.08262 0.0
O15 O 0.44523 0.34707 0.09388 0.0
O16 O 0.3424 0.27091 1.08691 0.0
C17 C 0.30098 0.24588 0.09842 0.0
O18 O 0.33714 0.18714 0.13952 0.0
O19 O 0.39233 0.26937 0.13153 0.0
O20 O 0.44601 0.22626 0.11103 0.0
O21 O 0.24557 0.09184 0.09668 0.0
O22 O 0.29449 0.08152 0.12044 0.0
O23 O 0.39052 0.14975 0.09766 0.0
C24 C 0.50292 0.38799 1.06409 0.0
C25 C 0.50568 0.43416 1.06538 0.0
C26 C 0.52687 0.40417 1.02407 0.0
C27 C 0.51769 0.46455 1.04602 0.0
C28 C 0.51452 0.37368 1.04334 0.0
C29 C 0.52767 0.44949 1.02507 0.0
C30 C 0.48621 0.3546 1.08415 0.0
C31 C 0.36319 0.2339 0.14605 0.0
H32 H 0.23413 0.97747 0.13028 0.0
H33 H 0.09503 0.00993 0.14334 0.0
H34 H 0.16133 0.91765 0.15165 0.0
H35 H 0.16913 0.07084 0.12242 0.0
H36 H 0.49727 0.44615 1.08124 0.0
H37 H 0.5335 0.3911 1.00809 0.0
H38 H 0.51821 0.49937 1.04729 0.0
H39 H 0.51273 0.33833 1.04174 0.0
Eu40 Eu 0.29131 0.31551 0.43614 0.0
Eu41 Eu 0.2628 0.40151 0.4258 0.0
C42 C 0.37302 0.42996 0.43816 0.0
C43 C 0.31146 0.20783 0.45666 0.0
C44 C 0.35062 0.19781 0.45846 0.0
C45 C 0.25994 0.13575 0.48014 0.0
C46 C 0.34472 0.15719 0.47103 0.0
C47 C 0.26594 0.17666 0.46753 0.0
C48 C 0.29928 0.12551 0.48198 0.0
C49 C 0.31918 0.2502 0.44271 0.0
O50 O 0.28466 0.38478 0.39044 0.0
O51 O 0.27792 0.30973 0.39797 0.0
C52 C 0.28396 0.34428 0.38331 0.0
O53 O 0.20891 0.27977 0.44258 0.0
O54 O 0.29103 0.47854 0.41632 0.0
O55 O 0.21225 0.43115 0.42293 0.0
O56 O 0.18844 0.33165 0.42314 0.0
C57 C 0.17583 0.29076 0.43449 0.0
O58 O 0.27322 0.33094 0.47193 0.0
O59 O 0.24462 0.38511 0.46409 0.0
O60 O 0.33679 0.43739 0.44412 0.0
O61 O 0.28291 0.24361 0.42888 0.0
O62 O 0.34107 0.29356 0.45253 0.0
O63 O 0.36272 0.38748 0.4293 0.0
C64 C 0.23467 0.49148 0.39424 0.0
C65 C 0.2098 0.51854 0.39514 0.0
C66 C 0.23211 0.49346 0.35278 0.0
C67 C 0.19553 0.53254 0.37487 0.0
C68 C 0.24603 0.47932 0.37296 0.0
C69 C 0.20628 0.51981 0.35348 0.0
C70 C 0.24683 0.47407 0.41542 0.0
C71 C 0.25251 0.35688 0.47865 0.0
H72 H 0.38601 0.22161 0.45017 0.0
H73 H 0.22464 0.11216 0.48843 0.0
H74 H 0.37631 0.15137 0.47257 0.0
H75 H 0.23524 0.18393 0.46628 0.0
H76 H 0.20064 0.52804 0.41148 0.0
H77 H 0.23989 0.48201 0.33661 0.0
H78 H 0.17563 0.55274 0.3759 0.0
H79 H 0.26476 0.45798 0.37193 0.0
Eu80 Eu 0.1052 0.28557 0.76999 0.0
Eu81 Eu 0.99313 0.26744 0.75985 0.0
C82 C 0.07976 0.37302 0.7755 0.0
C83 C 0.23792 0.33905 0.79312 0.0
C84 C 0.2858 0.36932 0.78415 0.0
C85 C 0.26906 0.37443 0.83073 0.0
C86 C 0.32514 0.40196 0.79836 0.0
C87 C 0.22974 0.34215 0.81649 0.0
C88 C 0.3173 0.40472 0.82187 0.0
C89 C 0.19683 0.30555 0.77777 0.0
O90 O 0.03422 0.28969 0.72503 0.0
O91 O 0.09421 0.26892 0.73211 0.0
C92 C 0.07003 0.28189 0.71762 0.0
O93 O 0.05258 0.20308 0.77083 0.0
O94 O 0.94837 0.29734 0.74526 0.0
O95 O 0.91218 0.22739 0.76339 0.0
O96 O 0.98306 0.19337 0.7515 0.0
C97 C 0.00816 0.17498 0.76154 0.0
O98 O 0.07437 0.27889 0.80594 0.0
O99 O 0.9907 0.24059 0.79691 0.0
O100 O 0.0335 0.33877 0.77915 0.0
O101 O 0.15779 0.26872 0.78726 0.0
O102 O 0.18463 0.32681 0.76172 0.0
O103 O 0.11233 0.36135 0.76807 0.0
C104 C 0.86851 0.23712 0.73204 0.0
C105 C 0.85077 0.18862 0.72432 0.0
C106 C 0.82072 0.24893 0.70185 0.0
C107 C 0.81896 0.17075 0.70531 0.0
C108 C 0.85224 0.26667 0.72103 0.0
C109 C 0.80464 0.20114 0.69353 0.0
C110 C 0.90599 0.25833 0.7506 0.0
C111 C 0.02711 0.25241 0.81208 0.0
H112 H 0.29273 0.36778 0.7661 0.0
H113 H 0.26178 0.37478 0.84881 0.0
H114 H 0.36161 0.4251 0.79092 0.0
H115 H 0.19304 0.31947 0.82384 0.0
H116 H 0.86282 0.16501 0.73243 0.0
H117 H 0.81017 0.27306 0.6931 0.0
H118 H 0.80791 0.13409 0.69906 0.0
H119 H 0.86532 0.30411 0.72679 0.0
Eu120 Eu 0.94587 0.10088 0.10185 0.0
Eu121 Eu 0.86966 0.98325 1.09186 0.0
C122 C 0.82867 0.05825 0.10191 0.0
C123 C 0.02507 0.23316 0.12389 0.0
C124 C 0.06284 0.2815 0.11899 0.0
C125 C 0.00626 0.26189 0.15876 0.0
C126 C 0.07217 0.32006 0.13385 0.0
C127 C -0.00303 0.22338 0.14389 0.0
C128 C 0.0437 0.31072 0.1538 0.0
C129 C 0.01349 0.19382 0.10741 0.0
O130 O 0.9025 0.01821 1.05651 0.0
O131 O 0.92292 0.09772 1.06458 0.0
C132 C 0.91516 0.06348 1.04951 0.0
O133 O 0.98255 0.05968 1.08869 0.0
O134 O 0.79539 0.91732 1.09278 0.0
O135 O 0.85851 0.91282 1.07978 0.0
O136 O 0.93892 0.99064 0.10847 0.0
C137 C 0.98257 0.02649 0.1024 0.0
O138 O 0.93472 0.06828 0.13784 0.0
O139 O 0.87215 0.98774 0.13129 0.0
O140 O 0.8241 0.02174 1.08904 0.0
O141 O 0.01912 0.15722 0.11456 0.0
O142 O 0.97225 0.17883 0.09569 0.0
O143 O 0.8707 0.08782 0.11268 0.0
C144 C 0.77955 0.85586 1.06516 0.0
C145 C 0.7639 0.80544 1.06705 0.0
C146 C 0.74843 0.8429 1.02606 0.0
C147 C 0.74221 0.77416 1.04828 0.0
C148 C 0.77046 0.87427 1.04482 0.0
C149 C 0.73579 0.79296 1.02738 0.0
C150 C 0.81049 0.88923 1.0835 0.0
C151 C 0.90288 0.02341 0.14546 0.0
H152 H 0.08466 0.28951 0.10353 0.0
H153 H 0.98438 0.25337 0.17423 0.0
H154 H 0.10108 0.35727 0.12951 0.0
H155 H 0.96763 0.18609 0.14786 0.0
H156 H 0.77082 0.79078 1.08267 0.0
H157 H 0.74459 0.85854 1.01006 0.0
H158 H 0.73271 0.73584 1.04975 0.0
H159 H 0.78274 0.91326 1.04308 0.0
Eu160 Eu 0.96904 0.94743 0.4386 0.0
Eu161 Eu -0.00261 0.86187 0.42787 0.0
C162 C 0.8843 0.83527 0.43766 0.0
C163 C 0.92806 0.03485 0.46178 0.0
C164 C 0.90688 0.00539 0.48124 0.0
C165 C 0.89321 0.08601 0.47248 0.0
C166 C 0.87859 0.01595 0.49618 0.0
C167 C 0.92152 0.0754 0.45755 0.0
C168 C 0.87094 0.05602 0.49181 0.0
C169 C 0.95392 0.02146 0.44501 0.0
O170 O -0.00198 0.89684 0.39269 0.0
O171 O 0.94748 0.92827 0.40127 0.0
C172 C 0.96961 0.91527 0.38597 0.0
O173 O 0.04595 0.97515 0.42437 0.0
O174 O 0.97922 0.78511 0.43151 0.0
O175 O 0.04154 0.83576 0.41024 0.0
O176 O 0.06745 0.9256 0.44234 0.0
C177 C 0.07859 0.97051 0.437 0.0
O178 O 0.98978 0.93278 0.4741 0.0
O179 O 5e-05 0.86564 0.46742 0.0
O180 O 0.91401 0.82887 0.42405 0.0
O181 O 0.99388 0.02115 0.45221 0.0
O182 O 0.9249 0.9829 0.43256 0.0
O183 O 0.90083 0.87629 0.44939 0.0
C184 C 0.98622 0.75818 0.39481 0.0
C185 C 0.01604 0.75185 0.37883 0.0
C186 C 0.91966 0.73072 0.36636 0.0
C187 C -0.00139 0.73738 0.3564 0.0
C188 C 0.93689 0.74486 0.38873 0.0
C189 C 0.95135 0.72954 0.34973 0.0
C190 C 0.0096 0.7895 0.41507 0.0
C191 C -0.0007 0.89835 0.4816 0.0
H192 H 0.91168 0.97389 0.48468 0.0
H193 H 0.88784 0.11699 0.46863 0.0
H194 H 0.86281 -0.0072 0.51118 0.0
H195 H 0.93756 0.0983 0.44249 0.0
H196 H 0.05428 0.76237 0.38308 0.0
H197 H 0.883 0.72458 0.36163 0.0
H198 H 0.02389 0.73704 0.34381 0.0
H199 H 0.91299 0.74955 0.40063 0.0
Eu200 Eu 0.14411 0.95299 0.77431 0.0
Eu201 Eu 0.26068 -0.00633 0.7623 0.0
C202 C 0.18538 0.8793 0.77396 0.0
C203 C 0.01081 0.89284 0.7978 0.0
C204 C 0.01095 0.85301 0.80901 0.0
C205 C 0.93211 0.87092 0.81577 0.0
C206 C 0.97152 0.82193 0.82333 0.0
C207 C 0.97129 0.90164 0.80129 0.0
C208 C 0.93152 0.83044 0.82685 0.0
C209 C 0.05025 0.92407 0.78163 0.0
O210 O 0.22292 -0.00779 0.72778 0.0
O211 O 0.14338 0.93309 0.73686 0.0
C212 C 0.17691 0.95945 0.72132 0.0
O213 O 0.18273 0.03032 0.75988 0.0
O214 O 0.32556 0.98374 0.76392 0.0
O215 O 0.32948 0.0455 0.74488 0.0
O216 O 0.25712 0.05809 0.77691 0.0
C217 C 0.22026 0.06527 0.77138 0.0
O218 O 0.18204 0.98033 0.80912 0.0
O219 O 0.26179 -0.00426 0.80175 0.0
O220 O 0.21835 0.91024 0.75933 0.0
O221 O 0.08702 0.96562 0.78946 0.0
O222 O 0.06544 0.90109 0.76828 0.0
O223 O 0.15855 0.89249 0.78604 0.0
C224 C 0.36197 0.00094 0.7276 0.0
C225 C 0.40986 0.02651 0.71818 0.0
C226 C 0.33097 0.95077 0.69334 0.0
C227 C 0.41801 0.01495 0.69607 0.0
C228 C 0.32308 0.96202 0.71534 0.0
C229 C 0.37811 0.97816 0.68306 0.0
C230 C 0.34971 0.01802 0.74854 0.0
C231 C 0.22777 -0.00666 0.81618 0.0
H232 H 0.04122 0.8456 0.80645 0.0
H233 H 0.90261 0.87933 0.81849 0.0
H234 H 0.97213 0.79095 0.83144 0.0
H235 H 0.97066 0.93224 0.79273 0.0
H236 H 0.44025 0.05677 0.72742 0.0
H237 H 0.29897 0.92296 0.68388 0.0
H238 H 0.45493 0.03636 0.6888 0.0
H239 H 0.28564 0.9422 0.72225 0.0
C240 C 0.07115 0.08266 0.11294 0.0
C241 C 0.02415 0.04355 0.1191 0.0
C242 C 0.10393 0.11354 0.12977 0.0
C243 C 0.16433 0.16589 0.17435 0.0
H244 H 0.12371 0.25945 0.15511 0.0
C245 C 0.2987 0.3023 0.1266 0.0
C246 C 0.27654 0.27197 0.10737 0.0
C247 C 0.26863 0.30414 0.14382 0.0
C248 C 0.13556 0.2347 0.16205 0.0
H249 H 0.97918 -0.00058 0.14772 0.0
H250 H 0.03493 0.05683 0.17717 0.0
H251 H 0.061 0.17331 0.1611 0.0
H252 H 0.20778 0.2293 1.08837 0.0
H253 H 0.15568 0.23563 0.11723 0.0
H254 H 0.23898 0.22574 0.17279 0.0
C255 C 0.046 0.06341 0.15938 0.0
C256 C 0.09952 0.18501 0.16543 0.0
C257 C 0.01413 0.031 0.14248 0.0
C258 C 0.22558 0.25276 0.1031 0.0
C259 C 0.19581 0.25659 0.11981 0.0
C260 C 0.20009 0.21583 0.17187 0.0
C261 C 0.08963 0.10639 0.15288 0.0
C262 C 0.11474 0.1497 0.16799 0.0
C263 C 0.2164 0.27622 0.14155 0.0
C264 C 0.18624 0.24825 0.16163 0.0
H265 H 0.08036 0.09254 0.09509 0.0
H266 H 0.13802 0.14627 0.12448 0.0
H267 H 0.17685 0.13943 0.17691 0.0
H268 H 0.33822 0.31775 0.13013 0.0
H269 H 0.28562 0.32009 0.16022 0.0
C270 C 0.11218 -0.00116 0.47655 0.0
C271 C 0.10844 0.01048 0.45348 0.0
C272 C 0.11632 0.03124 0.49399 0.0
C273 C 0.05233 0.08605 0.50365 0.0
H274 H 0.15059 0.22482 0.50737 0.0
C275 C 0.09679 0.21297 0.44081 0.0
C276 C 0.12625 0.26374 0.44484 0.0
C277 C 0.06738 0.18164 0.45836 0.0
C278 C 0.12199 0.18619 0.50765 0.0
H279 H 0.1186 0.0691 0.43028 0.0
H280 H 0.1295 0.12681 0.46049 0.0
H281 H 0.17736 0.16449 0.51005 0.0
H282 H 0.14138 0.32288 0.4684 0.0
H283 H 0.09418 0.26791 0.49976 0.0
H284 H -0.00119 0.10857 0.4961 0.0
C285 C 0.12619 0.09169 0.46523 0.0
C286 C 0.13764 0.15145 0.50924 0.0
C287 C 0.12012 0.05876 0.44791 0.0
C288 C 0.11908 0.28359 0.46502 0.0
C289 C 0.09162 0.25213 0.48299 0.0
C290 C 0.037 0.12102 0.50129 0.0
C291 C 0.11981 0.07639 0.48827 0.0
C292 C 0.1037 0.1019 0.50412 0.0
C293 C 0.07022 0.20079 0.48049 0.0
C294 C 0.07325 0.17134 0.49979 0.0
H295 H 0.10545 0.96248 0.48131 0.0
H296 H 0.11253 0.01942 0.5117 0.0
H297 H 0.0252 0.04765 0.5002 0.0
H298 H 0.1018 0.1969 0.42539 0.0
H299 H 0.0506 0.14215 0.45572 0.0
C300 C 0.17356 0.10873 0.77893 0.0
C301 C 0.20932 0.09655 0.78624 0.0
C302 C 0.14614 0.11768 0.79501 0.0
C303 C 0.09422 0.133 0.83694 0.0
H304 H -0.00236 -0.00488 0.82583 0.0
C305 C 0.94933 0.11654 0.78925 0.0
C306 C 0.98051 0.12433 0.77044 0.0
C307 C 0.94922 0.08783 0.80778 0.0
C308 C 0.02342 0.03314 0.83051 0.0
H309 H 0.25155 0.09403 0.81564 0.0
H310 H 0.19993 0.10504 0.84391 0.0
H311 H 0.08513 0.02049 0.83149 0.0
H312 H 0.0248 0.09879 0.75332 0.0
H313 H 0.0208 0.04519 0.78437 0.0
H314 H 0.03372 0.1465 0.83325 0.0
C315 C 0.19367 0.10812 0.82584 0.0
C316 C 0.07386 0.04791 0.8337 0.0
C317 C 0.22279 0.10148 0.80962 0.0
C318 C 0.00082 0.09359 0.76772 0.0
C319 C -0.00159 0.06282 0.78572 0.0
C320 C 0.04359 0.11791 0.83467 0.0
C321 C 0.15313 0.11298 0.81855 0.0
C322 C 0.10986 0.09861 0.83342 0.0
C323 C 0.97907 0.06579 0.80705 0.0
C324 C 0.0097 0.06933 0.8274 0.0
H325 H 0.16293 0.10589 0.76101 0.0
H326 H 0.11505 0.12168 0.78902 0.0
H327 H 0.12124 0.17224 0.83719 0.0
H328 H 0.9328 0.13962 0.79158 0.0
H329 H 0.93339 0.09024 0.82385 0.0
C330 C 0.56803 0.48262 0.98703 0.0
C331 C 0.53331 0.47763 1.00366 0.0
C332 C 0.56553 0.49873 0.96491 0.0
C333 C 0.49795 0.5443 0.92752 0.0
H334 H 0.48644 0.4414 0.88699 0.0
C335 C 0.35181 0.46051 0.8561 0.0
C336 C 0.35945 0.43695 0.83745 0.0
C337 C 0.38888 0.48414 0.87281 0.0
C338 C 0.49071 0.47147 0.89767 0.0
H339 H 0.47177 0.4899 1.01082 0.0
H340 H 0.46695 0.51732 0.97232 0.0
H341 H 0.5263 0.45226 0.92396 0.0
H342 H 0.41391 0.42355 0.82079 0.0
H343 H 0.47914 0.46629 0.84949 0.0
H344 H 0.45978 0.56163 0.90145 0.0
C345 C 0.49654 0.50945 0.97629 0.0
C346 C 0.51373 0.47773 0.91902 0.0
C347 C 0.49919 0.49353 0.99841 0.0
C348 C 0.4066 0.4412 0.83492 0.0
C349 C 0.4439 0.46531 0.85152 0.0
C350 C 0.47503 0.53818 0.90604 0.0
C351 C 0.52805 0.50984 0.95901 0.0
C352 C 0.51563 0.51269 0.9346 0.0
C353 C 0.43473 0.48522 0.87117 0.0
C354 C 0.46914 0.50015 0.8913 0.0
H355 H 0.5954 0.47153 0.99076 0.0
H356 H 0.59097 0.49961 0.95208 0.0
H357 H 0.49958 0.5721 0.93902 0.0
H358 H 0.31638 0.45907 0.85828 0.0
H359 H 0.38022 0.49876 0.88772 0.0
C360 C 0.13685 0.51777 0.33013 0.0
C361 C 0.18691 0.52936 0.33186 0.0
C362 C 0.11504 0.51461 0.30864 0.0
C363 C 0.14119 0.52778 0.24552 0.0
H364 H 0.02461 0.3963 0.24406 0.0
C365 C 0.10296 0.38735 0.17538 0.0
C366 C 0.05364 0.35148 0.1697 0.0
C367 C 0.11243 0.42296 0.19197 0.0
C368 C 0.05627 0.43362 0.244 0.0
H369 H 0.25509 0.55318 0.31289 0.0
H370 H 0.217 0.54607 0.27553 0.0
H371 H 0.05406 0.43857 0.28028 0.0
H372 H 0.97556 0.32701 0.17571 0.0
H373 H 0.99217 0.38897 0.20498 0.0
H374 H 0.1452 0.52068 0.20923 0.0
C375 C 0.19429 0.53961 0.29055 0.0
C376 C 0.0732 0.4581 0.26488 0.0
C377 C 0.2161 0.54305 0.312 0.0
C378 C 0.01398 0.35355 0.1801 0.0
C379 C 0.02345 0.38918 0.19673 0.0
C380 C 0.12435 0.50309 0.22461 0.0
C381 C 0.14284 0.52265 0.28855 0.0
C382 C 0.11736 0.50437 0.26605 0.0
C383 C 0.07278 0.42344 0.20327 0.0
C384 C 0.08316 0.45476 0.22384 0.0
H385 H 0.11343 0.50726 0.34515 0.0
H386 H 0.07555 0.50248 0.30769 0.0
H387 H 0.17469 0.56386 0.24578 0.0
H388 H 0.13431 0.38648 0.16782 0.0
H389 H 0.15085 0.44826 0.19689 0.0
C390 C 0.74061 0.13625 0.66754 0.0
C391 C 0.77926 0.18519 0.67097 0.0
C392 C 0.72556 0.11791 0.64535 0.0
C393 C 0.74997 0.15273 0.58315 0.0
H394 H 0.75941 0.03379 0.58062 0.0
C395 C 0.85613 0.11549 0.5142 0.0
C396 C 0.84031 0.06666 0.50759 0.0
C397 C 0.82972 0.12511 0.53064 0.0
C398 C 0.75541 0.06629 0.58084 0.0
H399 H 0.82917 0.25454 0.65407 0.0
H400 H 0.80398 0.22263 0.61559 0.0
H401 H 0.7431 0.05976 0.61683 0.0
H402 H 0.78237 0.98996 0.51173 0.0
H403 H 0.73659 0.00678 0.54073 0.0
H404 H 0.76617 0.16082 0.54725 0.0
C405 C 0.78442 0.19832 0.62982 0.0
C406 C 0.74583 0.08121 0.60169 0.0
C407 C 0.7991 0.21673 0.65196 0.0
C408 C 0.7961 0.02789 0.51689 0.0
C409 C 0.76971 0.0375 0.53335 0.0
C410 C 0.75991 0.13793 0.56227 0.0
C411 C 0.74939 0.14803 0.62624 0.0
C412 C 0.74537 0.12585 0.60332 0.0
C413 C 0.78696 0.0861 0.54082 0.0
C414 C 0.76494 0.09574 0.56117 0.0
H415 H 0.72409 0.11141 0.68196 0.0
H416 H 0.69759 0.0793 0.64318 0.0
H417 H 0.74877 0.18675 0.58373 0.0
H418 H 0.89025 0.14611 0.50749 0.0
H419 H 0.84446 0.16288 0.5363 0.0
C420 C 0.75219 0.74065 1.00103 0.0
C421 C 0.72429 0.76347 1.00615 0.0
C422 C 0.7512 0.72328 0.97901 0.0
C423 C 0.73441 0.75765 0.92096 0.0
H424 H 0.78786 0.67275 0.90584 0.0
C425 C 0.84095 0.78724 0.83791 0.0
C426 C 0.89028 0.79862 0.84267 0.0
C427 C 0.8035 0.76303 0.85418 0.0
C428 C 0.77223 0.69605 0.90971 0.0
H429 H 0.66899 0.78075 0.99317 0.0
H430 H 0.66564 0.74861 0.95475 0.0
H431 H 0.74619 0.66217 0.94248 0.0
H432 H 0.93805 0.79052 0.86778 0.0
H433 H 0.87268 0.74791 0.89596 0.0
H434 H 0.76193 0.79259 0.8886 0.0
C435 C 0.68979 0.74578 0.96751 0.0
C436 C 0.7486 0.69024 0.93072 0.0
C437 C 0.69145 0.76399 0.98951 0.0
C438 C 0.90046 0.78206 0.86342 0.0
C439 C 0.86292 0.75745 0.87958 0.0
C440 C 0.7572 0.76284 0.89986 0.0
C441 C 0.72187 0.72788 0.96162 0.0
C442 C 0.73214 0.72302 0.93718 0.0
C443 C 0.81451 0.74921 0.87544 0.0
C444 C 0.77872 0.73393 0.89457 0.0
H445 H 0.77814 0.74005 1.01347 0.0
H446 H 0.77689 0.71032 0.97528 0.0
H447 H 0.72275 0.78397 0.9252 0.0
H448 H 0.83153 0.79833 0.82185 0.0
H449 H 0.76636 0.75678 0.85052 0.0
C450 C 0.94673 0.7016 0.30914 0.0
C451 C 0.93983 0.73073 0.32518 0.0
C452 C 0.945 0.71015 0.28568 0.0
C453 C 0.9242 0.78998 0.24325 0.0
H454 H 0.03628 0.79189 0.21331 0.0
C455 C 0.05704 0.93663 0.17913 0.0
C456 C 0.0779 0.92168 0.16185 0.0
C457 C 0.02229 0.90178 0.19428 0.0
C458 C 0.00409 0.79065 0.22114 0.0
H459 H 0.92362 0.79009 0.32946 0.0
H460 H 0.92271 0.80643 0.28897 0.0
H461 H 0.00735 0.74901 0.2494 0.0
H462 H 0.07403 0.85812 0.14508 0.0
H463 H 0.01433 0.7976 0.17185 0.0
H464 H 0.92426 0.83537 0.21541 0.0
C465 C 0.92765 0.7758 0.29408 0.0
C466 C 0.98719 0.76575 0.24191 0.0
C467 C 0.92838 0.76657 0.31742 0.0
C468 C 0.05977 0.87089 0.15867 0.0
C469 C 0.02536 0.8362 0.17386 0.0
C470 C 0.94171 0.8156 0.22256 0.0
C471 C 0.93779 0.74897 0.27788 0.0
C472 C 0.94812 0.76643 0.25367 0.0
C473 C 0.00805 0.85157 0.1924 0.0
C474 C 0.98277 0.81733 0.21171 0.0
H475 H 0.95531 0.67355 0.31476 0.0
H476 H 0.95167 0.68784 0.27371 0.0
H477 H 0.89327 0.7904 0.25152 0.0
H478 H 0.07012 0.97546 0.18198 0.0
H479 H 0.00964 0.91464 0.2085 0.0
C480 C 0.35279 0.9279 0.6468 0.0
C481 C 0.38255 0.97348 0.65795 0.0
C482 C 0.34531 0.92621 0.62309 0.0
C483 C 0.29975 0.95256 0.58239 0.0
H484 H 0.39698 0.03571 0.53708 0.0
C485 C 0.27158 0.07453 0.51794 0.0
C486 C 0.29492 0.08427 0.49649 0.0
C487 C 0.27588 0.04256 0.53343 0.0
C488 C 0.36921 0.01132 0.54927 0.0
H489 H 0.43246 0.05214 0.65238 0.0
H490 H 0.42088 0.04874 0.61121 0.0
H491 H 0.42505 0.01395 0.57222 0.0
H492 H 0.33598 0.06356 0.47348 0.0
H493 H 0.34464 0.00884 0.50086 0.0
H494 H 0.24428 0.953 0.56022 0.0
C495 C 0.40275 0.01441 0.62082 0.0
C496 C 0.38538 -0.00089 0.56941 0.0
C497 C 0.40953 0.01628 0.64452 0.0
C498 C 0.31887 0.05801 0.49015 0.0
C499 C 0.32357 0.02642 0.50572 0.0
C500 C 0.28363 0.96522 0.56236 0.0
C501 C 0.36851 0.96987 0.61007 0.0
C502 C 0.35101 0.97135 0.58655 0.0
C503 C 0.30379 0.01993 0.52781 0.0
C504 C 0.31846 -0.00359 0.54606 0.0
H505 H 0.33257 0.89395 0.65654 0.0
H506 H 0.31921 0.89131 0.61512 0.0
H507 H 0.27247 0.93144 0.59542 0.0
H508 H 0.25298 0.09416 0.52345 0.0
H509 H 0.26053 0.03855 0.55042 0.0
C510 C 0.46165 0.11756 0.10796 0.0
C511 C 0.47436 0.16745 0.10699 0.0
C512 C 0.49892 0.10453 0.1086 0.0
C513 C 0.63725 0.15841 0.11763 0.0
H514 H 0.61064 0.03576 1.08934 0.0
C515 C 0.74947 0.05148 1.08626 0.0
C516 C 0.78638 0.06782 0.1035 0.0
C517 C 0.71091 0.06258 1.08725 0.0
C518 C 0.61922 0.07053 0.09707 0.0
H519 H 0.53622 0.24282 0.10558 0.0
H520 H 0.60089 0.22041 0.1056 0.0
H521 H 0.54621 0.0582 1.08923 0.0
H522 H 0.81083 0.10729 0.13569 0.0
H523 H 0.74256 0.12447 0.1381 0.0
H524 H 0.71122 0.17231 0.12418 0.0
C525 C 0.56237 0.19103 0.10678 0.0
C526 C 0.58163 0.08306 0.0974 0.0
C527 C 0.52514 0.20402 0.10662 0.0
C528 C 0.78323 0.09456 0.12201 0.0
C529 C 0.74413 0.10478 0.12325 0.0
C530 C 0.67512 0.14635 0.11691 0.0
C531 C 0.54995 0.14104 0.10779 0.0
C532 C 0.58996 0.12723 0.1077 0.0
C533 C 0.70758 0.08949 0.10576 0.0
C534 C 0.66678 0.10215 0.10665 0.0
H535 H 0.42284 0.08849 0.10841 0.0
H536 H 0.48748 0.06572 0.10989 0.0
H537 H 0.64528 0.19231 0.12611 0.0
H538 H 0.75107 0.03118 1.07165 0.0
H539 H 0.68439 0.05086 1.07316 0.0
C540 C 0.46535 0.46148 0.44054 0.0
C541 C 0.4255 0.4709 0.44023 0.0
C542 C 0.51485 0.5005 0.44204 0.0
C543 C 0.59191 0.63684 0.45442 0.0
H544 H 0.69382 0.62287 0.42315 0.0
C545 C 0.80974 0.76204 0.4206 0.0
C546 C 0.83108 0.7958 0.43876 0.0
C547 C 0.76036 0.72322 0.42165 0.0
C548 C 0.66589 0.62795 0.43173 0.0
H549 H 0.40635 0.52874 0.441 0.0
H550 H 0.49213 0.59661 0.44248 0.0
H551 H 0.60851 0.55503 0.42282 0.0
H552 H 0.8172 0.81536 0.47227 0.0
H553 H 0.73142 0.74626 0.47463 0.0
H554 H 0.64893 0.71095 0.46212 0.0
C555 C 0.48564 0.55921 0.44246 0.0
C556 C 0.61674 0.58833 0.43194 0.0
C557 C 0.43621 0.52016 0.44143 0.0
C558 C 0.80166 0.79009 0.45795 0.0
C559 C 0.75234 0.75049 0.45921 0.0
C560 C 0.64098 0.67685 0.45386 0.0
C561 C 0.52586 0.5501 0.44276 0.0
C562 C 0.57882 0.5921 0.44321 0.0
C563 C 0.73102 0.7162 0.44111 0.0
C564 C 0.67874 0.67316 0.44237 0.0
H565 H 0.45828 0.42387 0.43983 0.0
H566 H 0.5444 0.49157 0.44274 0.0
H567 H 0.56429 0.64121 0.4637 0.0
H568 H 0.83117 0.76573 0.40542 0.0
H569 H 0.74526 0.69886 0.40701 0.0
C570 C 0.14399 0.46357 0.77948 0.0
C571 C 0.09376 0.42566 0.77827 0.0
C572 C 0.15636 0.51324 0.78113 0.0
C573 C 0.09955 0.59273 0.79277 0.0
H574 H 0.21841 0.69327 0.76244 0.0
C575 C 0.19263 0.80862 0.75846 0.0
C576 C 0.17704 0.82833 0.77595 0.0
C577 C 0.18441 0.7604 0.76006 0.0
C578 C 0.18466 0.66572 0.77078 0.0
H579 H 0.01718 0.41038 0.77758 0.0
H580 H 0.03843 0.49608 0.77947 0.0
H581 H 0.19978 0.60807 0.76238 0.0
H582 H 0.1416 0.81322 0.80914 0.0
H583 H 0.1292 0.73003 0.8125 0.0
H584 H 0.08266 0.64962 0.79991 0.0
C585 C 0.06858 0.48799 0.78003 0.0
C586 C 0.17442 0.61667 0.77112 0.0
C587 C 0.05629 0.43852 0.77879 0.0
C588 C 0.15364 0.79893 0.79526 0.0
C589 C 0.14625 0.75098 0.79709 0.0
C590 C 0.10931 0.64156 0.79208 0.0
C591 C 0.11879 0.52626 0.78123 0.0
C592 C 0.13143 0.57925 0.78195 0.0
C593 C 0.16122 0.73076 0.77943 0.0
C594 C 0.15185 0.67886 0.78093 0.0
H595 H 0.17375 0.45488 0.7792 0.0
H596 H 0.19543 0.54134 0.7824 0.0
H597 H 0.06663 0.5655 0.80175 0.0
H598 H 0.21045 0.83015 0.74325 0.0
H599 H 0.19553 0.74621 0.74583 0.0
C600 C 0.38398 0.2957 0.17888 0.0
C601 C 0.35664 0.24698 0.17033 0.0
C602 C 0.37601 0.30764 0.20125 0.0
C603 C 0.31246 0.24754 0.25783 0.0
H604 H 0.34261 0.38018 0.27294 0.0
C605 C 0.30289 0.29904 0.35268 0.0
C606 C 0.29203 0.33647 0.35835 0.0
C607 C 0.31072 0.29015 0.32991 0.0
C608 C 0.33333 0.34266 0.26918 0.0
H609 H 0.29803 0.17304 0.17925 0.0
H610 H 0.28314 0.19351 0.21723 0.0
H611 H 0.35486 0.36106 0.23397 0.0
H612 H 0.28146 0.39423 0.34345 0.0
H613 H 0.29349 0.37791 0.30357 0.0
H614 H 0.28876 0.22832 0.29253 0.0
C615 C 0.31234 0.22281 0.20721 0.0
C616 C 0.3412 0.33168 0.24658 0.0
C617 C 0.32074 0.21085 0.18503 0.0
C618 C 0.28963 0.36503 0.34004 0.0
C619 C 0.29692 0.35567 0.31699 0.0
C620 C 0.30412 0.25834 0.28024 0.0
C621 C 0.3399 0.27145 0.21602 0.0
C622 C 0.33117 0.28381 0.24034 0.0
C623 C 0.3074 0.3177 0.31136 0.0
C624 C 0.3148 0.30626 0.28665 0.0
H625 H 0.41182 0.32494 0.16827 0.0
H626 H 0.39887 0.34542 0.20697 0.0
H627 H 0.30467 0.21035 0.25447 0.0
H628 H 0.30602 0.27641 0.36603 0.0
H629 H 0.32019 0.26171 0.32706 0.0
C630 C 0.21446 0.37942 0.51206 0.0
C631 C 0.2346 0.35128 0.50323 0.0
C632 C 0.19596 0.37232 0.53471 0.0
C633 C 0.19252 0.30725 0.59125 0.0
H634 H 0.09529 0.34477 0.60775 0.0
C635 C 0.1329 0.29559 0.68676 0.0
C636 C 0.08618 0.28982 0.6927 0.0
C637 C 0.14963 0.30345 0.66393 0.0
C638 C 0.12197 0.33332 0.60364 0.0
H639 H 0.24957 0.29246 0.51203 0.0
H640 H 0.21614 0.27868 0.55042 0.0
H641 H 0.12496 0.35599 0.56859 0.0
H642 H 0.02056 0.28807 0.67831 0.0
H643 H 0.0484 0.29964 0.63843 0.0
H644 H 0.18767 0.28203 0.62578 0.0
C645 C 0.21604 0.30792 0.54043 0.0
C646 C 0.13997 0.34066 0.58088 0.0
C647 C 0.23525 0.31564 0.51799 0.0
C648 C 0.05672 0.2923 0.67466 0.0
C649 C 0.07317 0.29937 0.65158 0.0
C650 C 0.17402 0.29923 0.61383 0.0
C651 C 0.19607 0.33618 0.54951 0.0
C652 C 0.17597 0.32804 0.57408 0.0
C653 C 0.12013 0.30503 0.64561 0.0
C654 C 0.13862 0.31248 0.62077 0.0
H655 H 0.21296 0.40724 0.50143 0.0
H656 H 0.18205 0.39584 0.54057 0.0
H657 H 0.22057 0.29742 0.58753 0.0
H658 H 0.15744 0.2948 0.69994 0.0
H659 H 0.18651 0.30906 0.66088 0.0
C660 C 0.05206 0.23857 0.85224 0.0
C661 C 0.01453 0.23312 0.83652 0.0
C662 C 0.04016 0.21801 0.87455 0.0
C663 C 0.93999 0.17191 0.91933 0.0
H664 H 0.01131 0.11181 0.94695 0.0
C665 C 0.924 0.12211 1.01709 0.0
C666 C 0.92254 0.07815 1.02433 0.0
C667 C 0.93336 0.13833 0.9941 0.0
C668 C 0.99067 0.12816 0.93956 0.0
H669 H 0.9344 0.20096 0.83276 0.0
H670 H 0.91394 0.16655 0.87154 0.0
H671 H 0.03126 0.14512 0.90788 0.0
H672 H 0.93027 0.01711 1.01215 0.0
H673 H 0.94736 0.04573 0.9721 0.0
H674 H 0.89976 0.15549 0.951 0.0
C675 C 0.95284 0.18679 0.86661 0.0
C676 C 0.00254 0.14786 0.91706 0.0
C677 C 0.96466 0.20666 0.84418 0.0
C678 C 0.93074 0.05092 1.00746 0.0
C679 C 0.94098 0.06768 0.9844 0.0
C680 C 0.92869 0.15294 0.94191 0.0
C681 C 0.99029 0.19178 0.88227 0.0
C682 C 0.97745 0.1702 0.90645 0.0
C683 C 0.94248 0.11181 0.97723 0.0
C684 C 0.95379 0.13069 0.95257 0.0
H685 H 0.0909 0.25811 0.84719 0.0
H686 H 0.07038 0.22328 0.88589 0.0
H687 H 0.9198 0.18889 0.91211 0.0
H688 H 0.91806 0.14451 1.02931 0.0
H689 H 0.93459 0.17263 0.98968 0.0
C690 C 0.88212 0.96223 0.17866 0.0
C691 C 0.90603 0.01145 0.1705 0.0
C692 C 0.88935 0.95094 0.20143 0.0
C693 C 0.93547 0.00881 0.25989 0.0
H694 H 0.93717 0.88813 0.27355 0.0
C695 C 0.93629 0.94786 0.3545 0.0
C696 C 0.96269 0.9235 0.3608 0.0
C697 C 0.92995 0.95716 0.3314 0.0
C698 C 0.93717 0.92223 0.2702 0.0
H699 H 0.95669 0.08724 0.18072 0.0
H700 H 0.96892 0.06792 0.21995 0.0
H701 H 0.92544 0.90719 0.23403 0.0
H702 H 0.00219 0.88899 0.34673 0.0
H703 H 0.99129 0.90526 0.3064 0.0
H704 H 0.94808 0.02455 0.29582 0.0
C705 C 0.94392 0.03768 0.20891 0.0
C706 C 0.92977 0.93298 0.24733 0.0
C707 C 0.93688 0.04891 0.18616 0.0
C708 C 0.98189 0.90808 0.34283 0.0
C709 C 0.9753 0.91725 0.31953 0.0
C710 C 0.94265 -0.00198 0.28268 0.0
C711 C 0.92057 0.98841 0.21708 0.0
C712 C 0.92863 0.97651 0.24166 0.0
C713 C 0.94961 0.94257 0.31333 0.0
C714 C 0.94336 0.95435 0.28845 0.0
H715 H 0.85846 0.93204 0.16729 0.0
H716 H 0.87002 0.91258 0.20678 0.0
H717 H 0.93453 0.04249 0.25669 0.0
H718 H 0.92042 0.96023 0.36752 0.0
H719 H 0.9089 0.97558 0.32778 0.0
C720 C 0.03145 0.86916 0.51561 0.0
C721 C 0.0143 0.90012 0.50663 0.0
C722 C 0.04953 0.87447 0.53844 0.0
C723 C 0.10188 0.96599 0.58709 0.0
H724 H 0.07263 0.85173 0.62445 0.0
C725 C 0.19215 0.98439 0.67885 0.0
C726 C 0.16129 0.95222 0.69623 0.0
C727 C 0.17591 0.978 0.65567 0.0
C728 C 0.08122 0.88426 0.61439 0.0
H729 H 0.00255 0.96075 0.51559 0.0
H730 H 0.03397 0.97003 0.55478 0.0
H731 H 0.04068 0.84036 0.58512 0.0
H732 H 0.08876 0.88729 0.70203 0.0
H733 H 0.06111 0.87604 0.66215 0.0
H734 H 0.1423 0.00989 0.61638 0.0
C735 C 0.03385 0.94168 0.54419 0.0
C736 C 0.06311 0.87767 0.59157 0.0
C737 C 0.01523 0.93597 0.52155 0.0
C738 C 0.11397 0.91306 0.68941 0.0
C739 C 0.09804 0.90635 0.66629 0.0
C740 C 0.12054 0.9726 0.60982 0.0
C741 C 0.05176 0.91133 0.55312 0.0
C742 C 0.0726 0.91836 0.57748 0.0
C743 C 0.12843 0.9388 0.64889 0.0
C744 C 0.11022 0.93187 0.62406 0.0
H745 H 0.03186 0.84131 0.50485 0.0
H746 H 0.06307 0.85038 0.54438 0.0
H747 H 0.11081 -0.00148 0.57695 0.0
H748 H 0.2288 0.01498 0.68318 0.0
H749 H 0.20094 0.00369 0.64298 0.0
C750 C 0.2101 0.01839 0.85487 0.0
C751 C 0.24244 0.01081 0.84074 0.0
C752 C 0.22505 0.03942 0.87689 0.0
C753 C 0.31107 0.0585 0.92567 0.0
H754 H 0.28698 0.16388 0.94372 0.0
C755 C 0.32041 0.12021 1.02097 0.0
C756 C 0.34648 0.1712 1.02619 0.0
C757 C 0.31159 0.10314 0.99819 0.0
C758 C 0.29427 0.13467 0.93899 0.0
H759 H 0.31605 0.01859 0.83981 0.0
H760 H 0.34112 0.05301 0.87856 0.0
H761 H 0.26322 0.12834 0.90509 0.0
H762 H 0.38347 0.24409 1.01077 0.0
H763 H 0.36637 0.21423 0.9708 0.0
H764 H 0.34044 0.06358 0.95981 0.0
C765 C 0.30429 0.04346 0.87227 0.0
C766 C 0.28025 0.11393 0.91681 0.0
C767 C 0.2898 0.02354 0.84995 0.0
C768 C 0.36348 0.20465 1.00759 0.0
C769 C 0.35339 0.18743 0.98462 0.0
C770 C 0.32391 0.07838 0.94802 0.0
C771 C 0.27248 0.05253 0.88603 0.0
C772 C 0.28836 0.07541 0.90972 0.0
C773 C 0.32736 0.13626 0.97953 0.0
C774 C 0.31577 0.11684 0.95513 0.0
H775 H 0.17336 0.00934 0.84867 0.0
H776 H 0.19912 0.04516 0.88688 0.0
H777 H 0.31783 0.02889 0.92107 0.0
H778 H 0.30674 0.09303 1.03464 0.0
H779 H 0.29124 0.06363 0.99518 0.0
loop_
_geom_bond_atom_site_label_1
_geom_bond_atom_site_label_2
_geom_bond_distance
_geom_bond_site_symmetry_2
_ccdc_geom_bond_type
Eu0 C9 2.828 . S
Eu0 O11 2.392 1_554 S
Eu0 O13 2.418 . S
Eu0 O18 2.373 . S
Eu0 O21 2.488 . S
Eu0 O22 2.471 . S
Eu0 O23 2.349 . S
Eu1 O10 2.373 . S
Eu1 O14 2.488 . S
Eu1 O15 2.471 . S
Eu1 O16 2.341 1_556 S
Eu1 O19 2.392 1_556 S
Eu1 O20 2.418 . S
Eu1 C30 2.828 . S
C2 O20 1.244 1_554 S
C2 O23 1.265 . S
C3 C4 1.379 . S
C3 C7 1.373 . S
C3 C9 1.505 . S
C4 C3 1.379 . S
C4 C6 1.369 . S
C4 H32 0.930 . S
C5 C7 1.383 . S
C5 C8 1.382 . S
C5 H33 0.930 . S
C6 C4 1.369 . S
C6 C8 1.392 . S
C6 H34 0.930 . S
C7 C3 1.373 . S
C7 C5 1.383 . S
C7 H35 0.931 . S
C8 C5 1.382 . S
C8 C6 1.392 . S
C9 Eu0 2.828 . S
C9 C3 1.505 . S
C9 O21 1.249 . S
C9 O22 1.244 . S
O10 Eu1 2.373 . S
O10 C12 1.258 . S
O11 Eu0 2.392 1_556 S
O11 C12 1.242 . S
C12 O10 1.258 . S
C12 O11 1.242 . S
O13 Eu0 2.418 . S
O13 C17 1.244 . S
O14 Eu1 2.488 . S
O14 C30 1.249 . S
O15 Eu1 2.471 . S
O15 C30 1.244 . S
O16 Eu1 2.341 1_554 S
O16 C17 1.277 . S
C17 O13 1.244 . S
C17 O16 1.277 . S
O18 Eu0 2.373 . S
O18 C31 1.258 . S
O19 Eu1 2.392 1_554 S
O19 C31 1.242 . S
O20 Eu1 2.418 . S
O20 C2 1.244 1_556 S
O21 Eu0 2.488 . S
O21 C9 1.249 . S
O22 Eu0 2.471 . S
O22 C9 1.244 . S
O23 Eu0 2.349 . S
O23 C2 1.265 . S
C24 C25 1.379 . S
C24 C28 1.373 . S
C24 C30 1.505 . S
C25 C24 1.379 . S
C25 C27 1.369 . S
C25 H36 0.930 . S
C26 C28 1.383 . S
C26 C29 1.382 . S
C26 H37 0.930 . S
C27 C25 1.369 . S
C27 C29 1.392 . S
C27 H38 0.930 . S
C28 C24 1.373 . S
C28 C26 1.383 . S
C28 H39 0.931 . S
C29 C26 1.382 . S
C29 C27 1.392 . S
C30 Eu1 2.828 . S
C30 O14 1.249 . S
C30 O15 1.244 . S
C30 C24 1.505 . S
C31 O18 1.258 . S
C31 O19 1.242 . S
H32 C4 0.930 . S
H33 C5 0.930 . S
H34 C6 0.930 . S
H35 C7 0.931 . S
H36 C25 0.930 . S
H37 C26 0.930 . S
H38 C27 0.930 . S
H39 C28 0.931 . S
Eu40 C49 2.828 . S
Eu40 O51 2.392 . S
Eu40 O53 2.418 . S
Eu40 O58 2.373 . S
Eu40 O61 2.488 . S
Eu40 O62 2.471 . S
Eu40 O63 2.349 . S
Eu41 O50 2.373 . S
Eu41 O54 2.488 . S
Eu41 O55 2.471 . S
Eu41 O56 2.349 . S
Eu41 O59 2.392 . S
Eu41 O60 2.418 . S
Eu41 C70 2.828 . S
C42 O60 1.244 . S
C42 O63 1.265 . S
C43 C44 1.379 . S
C43 C47 1.373 . S
C43 C49 1.505 . S
C44 C43 1.379 . S
C44 C46 1.369 . S
C44 H72 0.930 . S
C45 C47 1.383 . S
C45 C48 1.382 . S
C45 H73 0.930 . S
C46 C44 1.369 . S
C46 C48 1.392 . S
C46 H74 0.930 . S
C47 C43 1.373 . S
C47 C45 1.383 . S
C47 H75 0.931 . S
C48 C45 1.382 . S
C48 C46 1.392 . S
C49 Eu40 2.828 . S
C49 C43 1.505 . S
C49 O61 1.249 . S
C49 O62 1.244 . S
O50 Eu41 2.373 . S
O50 C52 1.258 . S
O51 Eu40 2.392 . S
O51 C52 1.242 . S
C52 O50 1.258 . S
C52 O51 1.242 . S
O53 Eu40 2.418 . S
O53 C57 1.244 . S
O54 Eu41 2.488 . S
O54 C70 1.249 . S
O55 Eu41 2.471 . S
O55 C70 1.244 . S
O56 Eu41 2.349 . S
O56 C57 1.265 . S
C57 O53 1.244 . S
C57 O56 1.265 . S
O58 Eu40 2.373 . S
O58 C71 1.258 . S
O59 Eu41 2.392 . S
O59 C71 1.242 . S
O60 Eu41 2.418 . S
O60 C42 1.244 . S
O61 Eu40 2.488 . S
O61 C49 1.249 . S
O62 Eu40 2.471 . S
O62 C49 1.244 . S
O63 Eu40 2.349 . S
O63 C42 1.265 . S
C64 C65 1.379 . S
C64 C68 1.373 . S
C64 C70 1.505 . S
C65 C64 1.379 . S
C65 C67 1.369 . S
C65 H76 0.930 . S
C66 C68 1.383 . S
C66 C69 1.382 . S
C66 H77 0.930 . S
C67 C65 1.369 . S
C67 C69 1.392 . S
C67 H78 0.930 . S
C68 C64 1.373 . S
C68 C66 1.383 . S
C68 H79 0.931 . S
C69 C66 1.382 . S
C69 C67 1.392 . S
C70 Eu41 2.828 . S
C70 O54 1.249 . S
C70 O55 1.244 . S
C70 C64 1.505 . S
C71 O58 1.258 . S
C71 O59 1.242 . S
H72 C44 0.930 . S
H73 C45 0.930 . S
H74 C46 0.930 . S
H75 C47 0.931 . S
H76 C65 0.930 . S
H77 C66 0.930 . S
H78 C67 0.930 . S
H79 C68 0.931 . S
Eu80 C89 2.828 . S
Eu80 O91 2.392 . S
Eu80 O93 2.418 . S
Eu80 O98 2.389 . S
Eu80 O101 2.488 . S
Eu80 O102 2.471 . S
Eu80 O103 2.349 . S
Eu81 O90 2.373 1_655 S
Eu81 O94 2.488 . S
Eu81 O95 2.471 . S
Eu81 O96 2.349 . S
Eu81 O99 2.392 . S
Eu81 O100 2.418 . S
Eu81 C110 2.828 . S
C82 O100 1.244 . S
C82 O103 1.265 1_655 S
C83 C84 1.379 . S
C83 C87 1.373 . S
C83 C89 1.505 . S
C84 C83 1.379 . S
C84 C86 1.369 . S
C84 H112 0.930 . S
C85 C87 1.383 . S
C85 C88 1.382 . S
C85 H113 0.930 . S
C86 C84 1.369 . S
C86 C88 1.392 . S
C86 H114 0.930 . S
C87 C83 1.373 . S
C87 C85 1.383 . S
C87 H115 0.931 . S
C88 C85 1.382 . S
C88 C86 1.392 . S
C89 Eu80 2.828 . S
C89 C83 1.505 . S
C89 O101 1.249 . S
C89 O102 1.244 . S
O90 Eu81 2.373 1_455 S
O90 C92 1.258 . S
O91 Eu80 2.392 . S
O91 C92 1.242 . S
C92 O90 1.258 . S
C92 O91 1.242 . S
O93 Eu80 2.418 . S
O93 C97 1.244 . S
O94 Eu81 2.488 . S
O94 C110 1.249 . S
O95 Eu81 2.471 . S
O95 C110 1.244 . S
O96 Eu81 2.349 . S
O96 C97 1.265 1_655 S
C97 O93 1.244 . S
C97 O96 1.265 1_455 S
O98 Eu80 2.389 . S
O98 C111 1.233 1_455 S
O99 Eu81 2.392 . S
O99 C111 1.242 . S
O100 Eu81 2.418 . S
O100 C82 1.244 . S
O101 Eu80 2.488 . S
O101 C89 1.249 . S
O102 Eu80 2.471 . S
O102 C89 1.244 . S
O103 Eu80 2.349 . S
O103 C82 1.265 1_455 S
C104 C105 1.379 . S
C104 C108 1.373 . S
C104 C110 1.505 . S
C105 C104 1.379 . S
C105 C107 1.369 . S
C105 H116 0.930 . S
C106 C108 1.383 . S
C106 C109 1.382 . S
C106 H117 0.930 . S
C107 C105 1.369 . S
C107 C109 1.392 . S
C107 H118 0.930 . S
C108 C104 1.373 . S
C108 C106 1.383 . S
C108 H119 0.931 . S
C109 C106 1.382 . S
C109 C107 1.392 . S
C110 Eu81 2.828 . S
C110 O94 1.249 . S
C110 O95 1.244 . S
C110 C104 1.505 . S
C111 O98 1.233 1_655 S
C111 O99 1.242 . S
H112 C84 0.930 . S
H113 C85 0.930 . S
H114 C86 0.930 . S
H115 C87 0.931 . S
H116 C105 0.930 . S
H117 C106 0.930 . S
H118 C107 0.930 . S
H119 C108 0.931 . S
Eu120 C129 2.828 . S
Eu120 O131 2.392 1_554 S
Eu120 O133 2.418 . S
Eu120 O138 2.373 . S
Eu120 O141 2.488 . S
Eu120 O142 2.471 . S
Eu120 O143 2.349 . S
Eu121 O130 2.373 1_565 S
Eu121 O134 2.488 . S
Eu121 O135 2.471 . S
Eu121 O136 2.341 1_566 S
Eu121 O139 2.392 1_556 S
Eu121 O140 2.418 . S
Eu121 C150 2.828 . S
C122 O140 1.244 1_554 S
C122 O143 1.265 1_565 S
C123 C124 1.379 . S
C123 C127 1.373 . S
C123 C129 1.505 . S
C124 C123 1.379 . S
C124 C126 1.369 . S
C124 H152 0.930 . S
C125 C127 1.383 . S
C125 C128 1.382 . S
C125 H153 0.930 . S
C126 C124 1.369 . S
C126 C128 1.392 . S
C126 H154 0.930 . S
C127 C123 1.373 . S
C127 C125 1.383 . S
C127 H155 0.931 . S
C128 C125 1.382 . S
C128 C126 1.392 . S
C129 Eu120 2.828 . S
C129 C123 1.505 . S
C129 O141 1.249 . S
C129 O142 1.244 . S
O130 Eu121 2.373 1_545 S
O130 C132 1.258 . S
O131 Eu120 2.392 1_556 S
O131 C132 1.242 . S
C132 O130 1.258 . S
C132 O131 1.242 . S
O133 Eu120 2.418 . S
O133 C137 1.244 . S
O134 Eu121 2.488 . S
O134 C150 1.249 . S
O135 Eu121 2.471 . S
O135 C150 1.244 . S
O136 Eu121 2.341 1_544 S
O136 C137 1.277 . S
C137 O133 1.244 . S
C137 O136 1.277 . S
O138 Eu120 2.373 . S
O138 C151 1.258 1_545 S
O139 Eu121 2.392 1_554 S
O139 C151 1.242 . S
O140 Eu121 2.418 . S
O140 C122 1.244 1_556 S
O141 Eu120 2.488 . S
O141 C129 1.249 . S
O142 Eu120 2.471 . S
O142 C129 1.244 . S
O143 Eu120 2.349 . S
O143 C122 1.265 1_545 S
C144 C145 1.379 . S
C144 C148 1.373 . S
C144 C150 1.505 . S
C145 C144 1.379 . S
C145 C147 1.369 . S
C145 H156 0.930 . S
C146 C148 1.383 . S
C146 C149 1.382 . S
C146 H157 0.930 . S
C147 C145 1.369 . S
C147 C149 1.392 . S
C147 H158 0.930 . S
C148 C144 1.373 . S
C148 C146 1.383 . S
C148 H159 0.931 . S
C149 C146 1.382 . S
C149 C147 1.392 . S
C150 Eu121 2.828 . S
C150 O134 1.249 . S
C150 O135 1.244 . S
C150 C144 1.505 . S
C151 O138 1.258 1_565 S
C151 O139 1.242 . S
H152 C124 0.930 . S
H153 C125 0.930 . S
H154 C126 0.930 . S
H155 C127 0.931 . S
H156 C145 0.930 . S
H157 C146 0.930 . S
H158 C147 0.930 . S
H159 C148 0.931 . S
Eu160 C169 2.828 . S
Eu160 O171 2.392 . S
Eu160 O173 2.418 1_655 S
Eu160 O178 2.373 . S
Eu160 O181 2.488 . S
Eu160 O182 2.471 . S
Eu160 O183 2.349 . S
Eu161 O170 2.373 . S
Eu161 O174 2.488 . S
Eu161 O175 2.471 1_655 S
Eu161 O176 2.349 1_655 S
Eu161 O179 2.392 . S
Eu161 O180 2.418 . S
Eu161 C190 2.828 1_655 S
C162 O180 1.244 . S
C162 O183 1.265 . S
C163 C164 1.379 . S
C163 C167 1.373 . S
C163 C169 1.505 . S
C164 C163 1.379 . S
C164 C166 1.369 . S
C164 H192 0.930 . S
C165 C167 1.383 . S
C165 C168 1.382 . S
C165 H193 0.930 . S
C166 C164 1.369 . S
C166 C168 1.392 . S
C166 H194 0.930 . S
C167 C163 1.373 . S
C167 C165 1.383 . S
C167 H195 0.931 . S
C168 C165 1.382 . S
C168 C166 1.392 . S
C169 Eu160 2.828 . S
C169 C163 1.505 . S
C169 O181 1.249 . S
C169 O182 1.244 . S
O170 Eu161 2.373 . S
O170 C172 1.258 . S
O171 Eu160 2.392 . S
O171 C172 1.242 . S
C172 O170 1.258 . S
C172 O171 1.242 . S
O173 Eu160 2.418 1_455 S
O173 C177 1.244 . S
O174 Eu161 2.488 . S
O174 C190 1.249 1_655 S
O175 Eu161 2.471 1_455 S
O175 C190 1.244 . S
O176 Eu161 2.349 1_455 S
O176 C177 1.265 . S
C177 O173 1.244 . S
C177 O176 1.265 . S
O178 Eu160 2.373 . S
O178 C191 1.258 . S
O179 Eu161 2.392 . S
O179 C191 1.242 . S
O180 Eu161 2.418 . S
O180 C162 1.244 . S
O181 Eu160 2.488 . S
O181 C169 1.249 . S
O182 Eu160 2.471 . S
O182 C169 1.244 . S
O183 Eu160 2.349 . S
O183 C162 1.265 . S
C184 C185 1.379 . S
C184 C188 1.373 . S
C184 C190 1.505 . S
C185 C184 1.379 . S
C185 C187 1.369 . S
C185 H196 0.930 . S
C186 C188 1.383 . S
C186 C189 1.382 . S
C186 H197 0.930 . S
C187 C185 1.369 . S
C187 C189 1.392 . S
C187 H198 0.930 . S
C188 C184 1.373 . S
C188 C186 1.383 . S
C188 H199 0.931 . S
C189 C186 1.382 . S
C189 C187 1.392 . S
C190 Eu161 2.828 1_455 S
C190 O174 1.249 1_455 S
C190 O175 1.244 . S
C190 C184 1.505 . S
C191 O178 1.258 . S
C191 O179 1.242 . S
H192 C164 0.930 . S
H193 C165 0.930 . S
H194 C166 0.930 . S
H195 C167 0.931 . S
H196 C185 0.930 . S
H197 C186 0.930 . S
H198 C187 0.930 . S
H199 C188 0.931 . S
Eu200 C209 2.828 . S
Eu200 O211 2.392 . S
Eu200 O213 2.418 1_565 S
Eu200 O218 2.373 . S
Eu200 O221 2.488 . S
Eu200 O222 2.471 . S
Eu200 O223 2.349 . S
Eu201 O210 2.369 1_545 S
Eu201 O214 2.483 . S
Eu201 O215 2.484 . S
Eu201 O216 2.363 . S
Eu201 O219 2.393 . S
Eu201 O220 2.397 1_545 S
Eu201 C230 2.832 . S
C202 O220 1.244 . S
C202 O223 1.265 . S
C203 C204 1.379 . S
C203 C207 1.373 . S
C203 C209 1.505 . S
C204 C203 1.379 . S
C204 C206 1.369 . S
C204 H232 0.930 . S
C205 C207 1.383 . S
C205 C208 1.382 . S
C205 H233 0.930 . S
C206 C204 1.369 . S
C206 C208 1.392 . S
C206 H234 0.930 . S
C207 C203 1.373 . S
C207 C205 1.383 . S
C207 H235 0.931 . S
C208 C205 1.382 . S
C208 C206 1.392 . S
C209 Eu200 2.828 . S
C209 C203 1.505 . S
C209 O221 1.249 . S
C209 O222 1.244 . S
O210 Eu201 2.369 1_565 S
O210 C212 1.258 . S
O211 Eu200 2.392 . S
O211 C212 1.242 . S
C212 O210 1.258 . S
C212 O211 1.242 . S
O213 Eu200 2.418 1_545 S
O213 C217 1.244 . S
O214 Eu201 2.483 . S
O214 C230 1.249 . S
O215 Eu201 2.484 . S
O215 C230 1.244 . S
O216 Eu201 2.363 . S
O216 C217 1.265 . S
C217 O213 1.244 . S
C217 O216 1.265 . S
O218 Eu200 2.373 . S
O218 C231 1.259 1_565 S
O219 Eu201 2.393 . S
O219 C231 1.240 . S
O220 Eu201 2.397 1_565 S
O220 C202 1.244 . S
O221 Eu200 2.488 . S
O221 C209 1.249 . S
O222 Eu200 2.471 . S
O222 C209 1.244 . S
O223 Eu200 2.349 . S
O223 C202 1.265 . S
C224 C225 1.379 . S
C224 C228 1.373 . S
C224 C230 1.505 . S
C225 C224 1.379 . S
C225 C227 1.369 . S
C225 H236 0.930 . S
C226 C228 1.383 . S
C226 C229 1.382 . S
C226 H237 0.930 . S
C227 C225 1.369 . S
C227 C229 1.392 . S
C227 H238 0.930 . S
C228 C224 1.373 . S
C228 C226 1.383 . S
C228 H239 0.931 . S
C229 C226 1.382 . S
C229 C227 1.392 . S
C230 Eu201 2.832 . S
C230 O214 1.249 . S
C230 O215 1.244 . S
C230 C224 1.505 . S
C231 O218 1.259 1_545 S
C231 O219 1.240 . S
H232 C204 0.930 . S
H233 C205 0.930 . S
H234 C206 0.930 . S
H235 C207 0.931 . S
H236 C225 0.930 . S
H237 C226 0.930 . S
H238 C227 0.930 . S
H239 C228 0.931 . S
C240 C241 1.349 1_546 S
C240 C242 1.327 . S
C240 H265 0.950 . S
C241 C240 1.349 1_564 S
C241 C257 1.349 . S
C242 C240 1.327 . S
C242 C261 1.429 1_656 S
C242 H266 0.950 . S
C243 C260 1.574 . S
C243 C262 1.368 . S
C243 H267 0.949 . S
H244 C248 0.949 . S
C245 C246 1.349 . S
C245 C247 1.327 . S
C245 H268 0.950 . S
C246 C245 1.349 . S
C246 C258 1.349 1_554 S
C247 C245 1.327 . S
C247 C263 1.429 . S
C247 H269 0.950 . S
C248 H244 0.949 . S
C248 C256 1.574 . S
C248 C264 1.368 1_556 S
H249 C257 0.950 . S
H250 C255 0.950 1_455 S
H251 C256 0.949 . S
H252 C258 0.950 . S
H253 C259 0.950 . S
H254 C260 0.949 . S
C255 H250 0.950 1_655 S
C255 C257 1.327 1_545 S
C255 C261 1.429 1_655 S
C256 C248 1.574 . S
C256 H251 0.949 . S
C256 C262 1.368 1_556 S
C257 C241 1.349 . S
C257 H249 0.950 . S
C257 C255 1.327 1_565 S
C258 C246 1.349 1_556 S
C258 H252 0.950 . S
C258 C259 1.327 . S
C259 H253 0.950 . S
C259 C258 1.327 . S
C259 C263 1.429 1_556 S
C260 C243 1.574 . S
C260 H254 0.949 . S
C260 C264 1.368 . S
C261 C242 1.429 1_454 S
C261 C255 1.429 1_455 S
C261 C262 1.523 . S
C262 C243 1.368 . S
C262 C256 1.368 1_554 S
C262 C261 1.523 . S
C263 C247 1.429 . S
C263 C259 1.429 1_554 S
C263 C264 1.523 . S
C264 C248 1.368 1_554 S
C264 C260 1.368 . S
C264 C263 1.523 . S
H265 C240 0.950 . S
H266 C242 0.950 . S
H267 C243 0.949 . S
H268 C245 0.950 . S
H269 C247 0.950 . S
C270 C271 1.349 . S
C270 C272 1.327 . S
C270 H295 0.950 . S
C271 C270 1.349 . S
C271 C287 1.349 . S
C272 C270 1.327 . S
C272 C291 1.429 1_565 S
C272 H296 0.950 1_565 S
C273 C290 1.574 . S
C273 C292 1.368 . S
C273 H297 0.949 . S
H274 C278 0.949 . S
C275 C276 1.349 . S
C275 C277 1.327 . S
C275 H298 0.950 . S
C276 C275 1.349 . S
C276 C288 1.349 . S
C277 C275 1.327 . S
C277 C293 1.429 . S
C277 H299 0.950 . S
C278 H274 0.949 . S
C278 C286 1.574 . S
C278 C294 1.368 . S
H279 C287 0.950 . S
H280 C285 0.950 1_545 S
H281 C286 0.949 . S
H282 C288 0.950 . S
H283 C289 0.950 . S
H284 C290 0.949 . S
C285 H280 0.950 1_565 S
C285 C287 1.327 . S
C285 C291 1.429 1_565 S
C286 C278 1.574 . S
C286 H281 0.949 . S
C286 C292 1.368 . S
C287 C271 1.349 . S
C287 H279 0.950 . S
C287 C285 1.327 . S
C288 C276 1.349 . S
C288 H282 0.950 . S
C288 C289 1.327 . S
C289 H283 0.950 . S
C289 C288 1.327 . S
C289 C293 1.429 . S
C290 C273 1.574 . S
C290 H284 0.949 . S
C290 C294 1.368 . S
C291 C272 1.429 1_545 S
C291 C285 1.429 1_545 S
C291 C292 1.523 . S
C292 C273 1.368 . S
C292 C286 1.368 . S
C292 C291 1.523 . S
C293 C277 1.429 . S
C293 C289 1.429 . S
C293 C294 1.523 . S
C294 C278 1.368 . S
C294 C290 1.368 . S
C294 C293 1.523 . S
H295 C270 0.950 . S
H296 C272 0.950 1_545 S
H297 C273 0.949 . S
H298 C275 0.950 . S
H299 C277 0.950 . S
C300 C301 1.349 . S
C300 C302 1.327 . S
C300 H325 0.950 . S
C301 C300 1.349 . S
C301 C317 1.349 . S
C302 C300 1.327 . S
C302 C321 1.429 . S
C302 H326 0.950 . S
C303 C320 1.574 . S
C303 C322 1.368 . S
C303 H327 0.949 . S
H304 C308 0.949 . S
C305 C306 1.349 1_455 S
C305 C307 1.327 . S
C305 H328 0.950 . S
C306 C305 1.349 1_655 S
C306 C318 1.349 . S
C307 C305 1.327 . S
C307 C323 1.429 . S
C307 H329 0.950 . S
C308 H304 0.949 . S
C308 C316 1.574 . S
C308 C324 1.368 . S
H309 C317 0.950 . S
H310 C315 0.950 . S
H311 C316 0.949 . S
H312 C318 0.950 . S
H313 C319 0.950 . S
H314 C320 0.949 . S
C315 H310 0.950 . S
C315 C317 1.327 . S
C315 C321 1.429 . S
C316 C308 1.574 . S
C316 H311 0.949 . S
C316 C322 1.368 . S
C317 C301 1.349 . S
C317 H309 0.950 . S
C317 C315 1.327 . S
C318 C306 1.349 . S
C318 H312 0.950 . S
C318 C319 1.327 1_655 S
C319 H313 0.950 . S
C319 C318 1.327 1_455 S
C319 C323 1.429 . S
C320 C303 1.574 . S
C320 H314 0.949 . S
C320 C324 1.368 . S
C321 C302 1.429 . S
C321 C315 1.429 . S
C321 C322 1.523 . S
C322 C303 1.368 . S
C322 C316 1.368 . S
C322 C321 1.523 . S
C323 C307 1.429 . S
C323 C319 1.429 . S
C323 C324 1.523 . S
C324 C308 1.368 . S
C324 C320 1.368 . S
C324 C323 1.523 . S
H325 C300 0.950 . S
H326 C302 0.950 . S
H327 C303 0.949 . S
H328 C305 0.950 . S
H329 C307 0.950 . S
C330 C331 1.349 . S
C330 C332 1.327 . S
C330 H355 0.950 . S
C331 C330 1.349 . S
C331 C347 1.349 . S
C332 C330 1.327 . S
C332 C351 1.429 . S
C332 H356 0.950 . S
C333 C350 1.574 . S
C333 C352 1.368 . S
C333 H357 0.949 . S
H334 C338 0.949 . S
C335 C336 1.349 . S
C335 C337 1.327 . S
C335 H358 0.950 . S
C336 C335 1.349 . S
C336 C348 1.349 . S
C337 C335 1.327 . S
C337 C353 1.429 . S
C337 H359 0.950 . S
C338 H334 0.949 . S
C338 C346 1.574 . S
C338 C354 1.368 . S
H339 C347 0.950 . S
H340 C345 0.950 . S
H341 C346 0.949 . S
H342 C348 0.950 . S
H343 C349 0.950 . S
H344 C350 0.949 . S
C345 H340 0.950 . S
C345 C347 1.327 . S
C345 C351 1.429 . S
C346 C338 1.574 . S
C346 H341 0.949 . S
C346 C352 1.368 . S
C347 C331 1.349 . S
C347 H339 0.950 . S
C347 C345 1.327 . S
C348 C336 1.349 . S
C348 H342 0.950 . S
C348 C349 1.327 . S
C349 H343 0.950 . S
C349 C348 1.327 . S
C349 C353 1.429 . S
C350 C333 1.574 . S
C350 H344 0.949 . S
C350 C354 1.368 . S
C351 C332 1.429 . S
C351 C345 1.429 . S
C351 C352 1.523 . S
C352 C333 1.368 . S
C352 C346 1.368 . S
C352 C351 1.523 . S
C353 C337 1.429 . S
C353 C349 1.429 . S
C353 C354 1.523 . S
C354 C338 1.368 . S
C354 C350 1.368 . S
C354 C353 1.523 . S
H355 C330 0.950 . S
H356 C332 0.950 . S
H357 C333 0.949 . S
H358 C335 0.950 . S
H359 C337 0.950 . S
C360 C361 1.349 . S
C360 C362 1.327 . S
C360 H385 0.950 . S
C361 C360 1.349 . S
C361 C377 1.349 . S
C362 C360 1.327 . S
C362 C381 1.429 . S
C362 H386 0.950 . S
C363 C380 1.574 1_455 S
C363 C382 1.368 . S
C363 H387 0.949 . S
H364 C368 0.949 . S
C365 C366 1.349 . S
C365 C367 1.327 . S
C365 H388 0.950 . S
C366 C365 1.349 . S
C366 C378 1.349 . S
C367 C365 1.327 . S
C367 C383 1.429 . S
C367 H389 0.950 . S
C368 H364 0.949 . S
C368 C376 1.574 . S
C368 C384 1.368 1_455 S
H369 C377 0.950 . S
H370 C375 0.950 . S
H371 C376 0.949 . S
H372 C378 0.950 . S
H373 C379 0.950 . S
H374 C380 0.949 . S
C375 H370 0.950 . S
C375 C377 1.327 . S
C375 C381 1.429 . S
C376 C368 1.574 . S
C376 H371 0.949 . S
C376 C382 1.368 . S
C377 C361 1.349 . S
C377 H369 0.950 . S
C377 C375 1.327 . S
C378 C366 1.349 . S
C378 H372 0.950 . S
C378 C379 1.327 . S
C379 H373 0.950 . S
C379 C378 1.327 . S
C379 C383 1.429 . S
C380 C363 1.574 1_655 S
C380 H374 0.949 . S
C380 C384 1.368 . S
C381 C362 1.429 . S
C381 C375 1.429 . S
C381 C382 1.523 . S
C382 C363 1.368 . S
C382 C376 1.368 . S
C382 C381 1.523 . S
C383 C367 1.429 . S
C383 C379 1.429 . S
C383 C384 1.523 . S
C384 C368 1.368 1_655 S
C384 C380 1.368 . S
C384 C383 1.523 . S
H385 C360 0.950 . S
H386 C362 0.950 . S
H387 C363 0.949 . S
H388 C365 0.950 . S
H389 C367 0.950 . S
C390 C391 1.349 . S
C390 C392 1.327 . S
C390 H415 0.950 . S
C391 C390 1.349 . S
C391 C407 1.349 . S
C392 C390 1.327 . S
C392 C411 1.429 . S
C392 H416 0.950 . S
C393 C410 1.574 . S
C393 C412 1.368 . S
C393 H417 0.949 . S
H394 C398 0.949 . S
C395 C396 1.349 . S
C395 C397 1.327 . S
C395 H418 0.950 . S
C396 C395 1.349 . S
C396 C408 1.349 . S
C397 C395 1.327 . S
C397 C413 1.429 . S
C397 H419 0.966 . S
C398 H394 0.949 . S
C398 C406 1.574 1_565 S
C398 C414 1.368 . S
H399 C407 0.950 . S
H400 C405 0.950 . S
H401 C406 0.949 . S
H402 C408 0.950 . S
H403 C409 0.950 . S
H404 C410 0.949 . S
C405 H400 0.950 . S
C405 C407 1.327 . S
C405 C411 1.429 . S
C406 C398 1.574 1_545 S
C406 H401 0.949 . S
C406 C412 1.368 . S
C407 C391 1.349 . S
C407 H399 0.950 . S
C407 C405 1.327 . S
C408 C396 1.349 . S
C408 H402 0.950 . S
C408 C409 1.327 . S
C409 H403 0.950 . S
C409 C408 1.327 . S
C409 C413 1.429 . S
C410 C393 1.574 . S
C410 H404 0.949 . S
C410 C414 1.368 1_545 S
C411 C392 1.429 . S
C411 C405 1.429 . S
C411 C412 1.523 . S
C412 C393 1.368 . S
C412 C406 1.368 . S
C412 C411 1.523 . S
C413 C397 1.429 . S
C413 C409 1.429 . S
C413 C414 1.523 . S
C414 C398 1.368 . S
C414 C410 1.368 1_565 S
C414 C413 1.523 . S
H415 C390 0.950 . S
H416 C392 0.950 . S
H417 C393 0.949 . S
H418 C395 0.950 . S
H419 C397 0.966 . S
C420 C421 1.349 . S
C420 C422 1.327 . S
C420 H445 0.950 . S
C421 C420 1.349 . S
C421 C437 1.349 . S
C422 C420 1.327 . S
C422 C441 1.429 . S
C422 H446 0.950 . S
C423 C440 1.574 . S
C423 C442 1.368 . S
C423 H447 0.949 . S
H424 C428 0.949 1_455 S
C425 C426 1.349 . S
C425 C427 1.327 1_455 S
C425 H448 0.950 . S
C426 C425 1.349 . S
C426 C438 1.349 . S
C427 C425 1.327 1_655 S
C427 C443 1.429 1_655 S
C427 H449 0.950 . S
C428 H424 0.949 1_655 S
C428 C436 1.574 . S
C428 C444 1.368 . S
H429 C437 0.950 . S
H430 C435 0.950 . S
H431 C436 0.949 . S
H432 C438 0.950 . S
H433 C439 0.950 . S
H434 C440 0.949 . S
C435 H430 0.950 . S
C435 C437 1.327 . S
C435 C441 1.429 . S
C436 C428 1.574 . S
C436 H431 0.949 . S
C436 C442 1.368 . S
C437 C421 1.349 . S
C437 H429 0.950 . S
C437 C435 1.327 . S
C438 C426 1.349 . S
C438 H432 0.950 . S
C438 C439 1.327 . S
C439 H433 0.950 . S
C439 C438 1.327 . S
C439 C443 1.429 . S
C440 C423 1.574 . S
C440 H434 0.949 . S
C440 C444 1.368 . S
C441 C422 1.429 . S
C441 C435 1.429 . S
C441 C442 1.523 . S
C442 C423 1.368 . S
C442 C436 1.368 . S
C442 C441 1.523 . S
C443 C427 1.429 1_455 S
C443 C439 1.429 . S
C443 C444 1.523 1_455 S
C444 C428 1.368 . S
C444 C440 1.368 . S
C444 C443 1.523 1_655 S
H445 C420 0.950 . S
H446 C422 0.950 . S
H447 C423 0.949 . S
H448 C425 0.950 . S
H449 C427 0.950 . S
C450 C451 1.349 . S
C450 C452 1.327 . S
C450 H475 0.950 . S
C451 C450 1.349 . S
C451 C467 1.349 . S
C452 C450 1.327 . S
C452 C471 1.429 . S
C452 H476 0.950 . S
C453 C470 1.574 . S
C453 C472 1.368 . S
C453 H477 0.949 . S
H454 C458 0.949 . S
C455 C456 1.349 . S
C455 C457 1.327 . S
C455 H478 0.950 . S
C456 C455 1.349 . S
C456 C468 1.349 . S
C457 C455 1.327 . S
C457 C473 1.429 . S
C457 H479 0.950 . S
C458 H454 0.949 . S
C458 C466 1.574 . S
C458 C474 1.368 . S
H459 C467 0.950 . S
H460 C465 0.950 . S
H461 C466 0.949 . S
H462 C468 0.950 . S
H463 C469 0.950 . S
H464 C470 0.949 . S
C465 H460 0.950 . S
C465 C467 1.327 . S
C465 C471 1.429 . S
C466 C458 1.574 . S
C466 H461 0.949 . S
C466 C472 1.368 . S
C467 C451 1.349 . S
C467 H459 0.950 . S
C467 C465 1.327 . S
C468 C456 1.349 . S
C468 H462 0.950 . S
C468 C469 1.327 . S
C469 H463 0.950 . S
C469 C468 1.327 . S
C469 C473 1.429 . S
C470 C453 1.574 . S
C470 H464 0.949 . S
C470 C474 1.368 . S
C471 C452 1.429 . S
C471 C465 1.429 . S
C471 C472 1.523 . S
C472 C453 1.368 . S
C472 C466 1.368 . S
C472 C471 1.523 . S
C473 C457 1.429 . S
C473 C469 1.429 . S
C473 C474 1.523 1_545 S
C474 C458 1.368 . S
C474 C470 1.368 . S
C474 C473 1.523 1_565 S
H475 C450 0.950 . S
H476 C452 0.950 . S
H477 C453 0.949 . S
H478 C455 0.950 . S
H479 C457 0.950 . S
C480 C481 1.349 . S
C480 C482 1.327 . S
C480 H505 0.950 . S
C481 C480 1.349 . S
C481 C497 1.349 . S
C482 C480 1.327 . S
C482 C501 1.429 . S
C482 H506 0.950 . S
C483 C500 1.574 . S
C483 C502 1.368 . S
C483 H507 0.949 . S
H484 C488 0.949 . S
C485 C486 1.349 . S
C485 C487 1.327 . S
C485 H508 0.950 . S
C486 C485 1.349 . S
C486 C498 1.349 . S
C487 C485 1.327 . S
C487 C503 1.429 . S
C487 H509 0.950 . S
C488 H484 0.949 . S
C488 C496 1.574 . S
C488 C504 1.368 . S
H489 C497 0.950 . S
H490 C495 0.950 . S
H491 C496 0.949 . S
H492 C498 0.950 . S
H493 C499 0.950 . S
H494 C500 0.949 . S
C495 H490 0.950 . S
C495 C497 1.327 . S
C495 C501 1.429 . S
C496 C488 1.574 . S
C496 H491 0.949 . S
C496 C502 1.368 . S
C497 C481 1.349 . S
C497 H489 0.950 . S
C497 C495 1.327 . S
C498 C486 1.349 . S
C498 H492 0.950 . S
C498 C499 1.327 . S
C499 H493 0.950 . S
C499 C498 1.327 . S
C499 C503 1.429 . S
C500 C483 1.574 . S
C500 H494 0.949 . S
C500 C504 1.368 . S
C501 C482 1.429 . S
C501 C495 1.429 . S
C501 C502 1.523 . S
C502 C483 1.368 . S
C502 C496 1.368 . S
C502 C501 1.523 . S
C503 C487 1.429 . S
C503 C499 1.429 . S
C503 C504 1.523 . S
C504 C488 1.368 . S
C504 C500 1.368 . S
C504 C503 1.523 . S
H505 C480 0.950 . S
H506 C482 0.950 . S
H507 C483 0.949 . S
H508 C485 0.950 . S
H509 C487 0.950 . S
C510 C511 1.349 . S
C510 C512 1.327 . S
C510 H535 0.950 . S
C511 C510 1.349 . S
C511 C527 1.349 1_554 S
C512 C510 1.327 . S
C512 C531 1.429 . S
C512 H536 0.950 . S
C513 C530 1.574 . S
C513 C532 1.368 1_556 S
C513 H537 0.949 . S
H514 C518 0.949 . S
C515 C516 1.349 1_556 S
C515 C517 1.327 . S
C515 H538 0.950 . S
C516 C515 1.349 1_554 S
C516 C528 1.349 . S
C517 C515 1.327 . S
C517 C533 1.429 1_556 S
C517 H539 0.950 . S
C518 H514 0.949 . S
C518 C526 1.574 . S
C518 C534 1.368 . S
H519 C527 0.950 . S
H520 C525 0.950 . S
H521 C526 0.949 . S
H522 C528 0.950 1_565 S
H523 C529 0.950 . S
H524 C530 0.949 . S
C525 H520 0.950 . S
C525 C527 1.327 . S
C525 C531 1.429 1_556 S
C526 C518 1.574 . S
C526 H521 0.949 . S
C526 C532 1.368 . S
C527 C511 1.349 1_556 S
C527 H519 0.950 . S
C527 C525 1.327 . S
C528 C516 1.349 . S
C528 H522 0.950 1_545 S
C528 C529 1.327 . S
C529 H523 0.950 . S
C529 C528 1.327 . S
C529 C533 1.429 . S
C530 C513 1.574 . S
C530 H524 0.949 . S
C530 C534 1.368 1_556 S
C531 C512 1.429 . S
C531 C525 1.429 1_554 S
C531 C532 1.523 . S
C532 C513 1.368 1_554 S
C532 C526 1.368 . S
C532 C531 1.523 . S
C533 C517 1.429 1_554 S
C533 C529 1.429 . S
C533 C534 1.523 . S
C534 C518 1.368 . S
C534 C530 1.368 1_554 S
C534 C533 1.523 . S
H535 C510 0.950 . S
H536 C512 0.950 . S
H537 C513 0.949 . S
H538 C515 0.950 . S
H539 C517 0.950 . S
C540 C541 1.349 . S
C540 C542 1.327 . S
C540 H565 0.950 . S
C541 C540 1.349 . S
C541 C557 1.349 . S
C542 C540 1.327 . S
C542 C561 1.429 . S
C542 H566 0.950 . S
C543 C560 1.574 . S
C543 C562 1.368 . S
C543 H567 0.949 . S
H544 C548 0.949 . S
C545 C546 1.349 . S
C545 C547 1.327 . S
C545 H568 0.950 . S
C546 C545 1.349 . S
C546 C558 1.349 . S
C547 C545 1.327 . S
C547 C563 1.429 . S
C547 H569 0.950 . S
C548 H544 0.949 . S
C548 C556 1.574 . S
C548 C564 1.368 . S
H549 C557 0.950 . S
H550 C555 0.950 . S
H551 C556 0.949 . S
H552 C558 0.950 . S
H553 C559 0.950 . S
H554 C560 0.949 . S
C555 H550 0.950 . S
C555 C557 1.327 . S
C555 C561 1.429 . S
C556 C548 1.574 . S
C556 H551 0.949 . S
C556 C562 1.368 . S
C557 C541 1.349 . S
C557 H549 0.950 . S
C557 C555 1.327 . S
C558 C546 1.349 . S
C558 H552 0.950 . S
C558 C559 1.327 . S
C559 H553 0.950 . S
C559 C558 1.327 . S
C559 C563 1.429 . S
C560 C543 1.574 . S
C560 H554 0.949 . S
C560 C564 1.368 . S
C561 C542 1.429 . S
C561 C555 1.429 . S
C561 C562 1.523 . S
C562 C543 1.368 . S
C562 C556 1.368 . S
C562 C561 1.523 . S
C563 C547 1.429 . S
C563 C559 1.429 . S
C563 C564 1.523 . S
C564 C548 1.368 . S
C564 C560 1.368 . S
C564 C563 1.523 . S
H565 C540 0.950 . S
H566 C542 0.950 . S
H567 C543 0.949 . S
H568 C545 0.950 . S
H569 C547 0.950 . S
C570 C571 1.349 . S
C570 C572 1.327 . S
C570 H595 0.950 . S
C571 C570 1.349 . S
C571 C587 1.349 1_455 S
C572 C570 1.327 . S
C572 C591 1.429 . S
C572 H596 0.950 . S
C573 C590 1.574 . S
C573 C592 1.368 . S
C573 H597 0.949 . S
H574 C578 0.949 . S
C575 C576 1.349 . S
C575 C577 1.327 . S
C575 H598 0.950 . S
C576 C575 1.349 . S
C576 C588 1.349 . S
C577 C575 1.327 . S
C577 C593 1.429 . S
C577 H599 0.950 . S
C578 H574 0.949 . S
C578 C586 1.574 . S
C578 C594 1.368 . S
H579 C587 0.950 . S
H580 C585 0.950 . S
H581 C586 0.949 . S
H582 C588 0.950 . S
H583 C589 0.950 . S
H584 C590 0.949 . S
C585 H580 0.950 . S
C585 C587 1.327 1_455 S
C585 C591 1.429 . S
C586 C578 1.574 . S
C586 H581 0.949 . S
C586 C592 1.368 . S
C587 C571 1.349 1_655 S
C587 H579 0.950 . S
C587 C585 1.327 1_655 S
C588 C576 1.349 . S
C588 H582 0.950 . S
C588 C589 1.327 . S
C589 H583 0.950 . S
C589 C588 1.327 . S
C589 C593 1.429 . S
C590 C573 1.574 . S
C590 H584 0.949 . S
C590 C594 1.368 . S
C591 C572 1.429 . S
C591 C585 1.429 . S
C591 C592 1.523 . S
C592 C573 1.368 . S
C592 C586 1.368 . S
C592 C591 1.523 . S
C593 C577 1.429 . S
C593 C589 1.429 . S
C593 C594 1.523 . S
C594 C578 1.368 . S
C594 C590 1.368 . S
C594 C593 1.523 . S
H595 C570 0.950 . S
H596 C572 0.950 . S
H597 C573 0.949 . S
H598 C575 0.950 . S
H599 C577 0.950 . S
C600 C601 1.349 . S
C600 C602 1.327 . S
C600 H625 0.950 . S
C601 C600 1.349 . S
C601 C617 1.349 . S
C602 C600 1.327 . S
C602 C621 1.429 . S
C602 H626 0.950 . S
C603 C620 1.574 . S
C603 C622 1.368 . S
C603 H627 0.949 . S
H604 C608 0.949 . S
C605 C606 1.349 . S
C605 C607 1.327 . S
C605 H628 0.950 . S
C606 C605 1.349 . S
C606 C618 1.349 . S
C607 C605 1.327 . S
C607 C623 1.429 . S
C607 H629 0.950 . S
C608 H604 0.949 . S
C608 C616 1.574 . S
C608 C624 1.368 . S
H609 C617 0.950 . S
H610 C615 0.950 . S
H611 C616 0.949 . S
H612 C618 0.950 . S
H613 C619 0.950 . S
H614 C620 0.949 . S
C615 H610 0.950 . S
C615 C617 1.327 . S
C615 C621 1.429 . S
C616 C608 1.574 . S
C616 H611 0.949 . S
C616 C622 1.368 . S
C617 C601 1.349 . S
C617 H609 0.950 . S
C617 C615 1.327 . S
C618 C606 1.349 . S
C618 H612 0.950 . S
C618 C619 1.327 . S
C619 H613 0.950 . S
C619 C618 1.327 . S
C619 C623 1.429 . S
C620 C603 1.574 . S
C620 H614 0.949 . S
C620 C624 1.368 . S
C621 C602 1.429 . S
C621 C615 1.429 . S
C621 C622 1.523 . S
C622 C603 1.368 . S
C622 C616 1.368 . S
C622 C621 1.523 . S
C623 C607 1.429 . S
C623 C619 1.429 . S
C623 C624 1.523 . S
C624 C608 1.368 . S
C624 C620 1.368 . S
C624 C623 1.523 . S
H625 C600 0.950 . S
H626 C602 0.950 . S
H627 C603 0.949 . S
H628 C605 0.950 . S
H629 C607 0.950 . S
C630 C631 1.349 . S
C630 C632 1.327 . S
C630 H655 0.950 . S
C631 C630 1.349 . S
C631 C647 1.349 . S
C632 C630 1.327 . S
C632 C651 1.429 . S
C632 H656 0.950 . S
C633 C650 1.574 . S
C633 C652 1.368 . S
C633 H657 0.949 . S
H634 C638 0.949 . S
C635 C636 1.349 . S
C635 C637 1.327 . S
C635 H658 0.950 . S
C636 C635 1.349 . S
C636 C648 1.349 . S
C637 C635 1.327 . S
C637 C653 1.429 . S
C637 H659 0.950 . S
C638 H634 0.949 . S
C638 C646 1.574 . S
C638 C654 1.368 . S
H639 C647 0.950 . S
H640 C645 0.950 . S
H641 C646 0.949 . S
H642 C648 0.950 . S
H643 C649 0.950 . S
H644 C650 0.949 . S
C645 H640 0.950 . S
C645 C647 1.327 . S
C645 C651 1.429 . S
C646 C638 1.574 . S
C646 H641 0.949 . S
C646 C652 1.368 . S
C647 C631 1.349 . S
C647 H639 0.950 . S
C647 C645 1.327 . S
C648 C636 1.349 . S
C648 H642 0.950 . S
C648 C649 1.327 . S
C649 H643 0.950 . S
C649 C648 1.327 . S
C649 C653 1.429 . S
C650 C633 1.574 . S
C650 H644 0.949 . S
C650 C654 1.368 . S
C651 C632 1.429 . S
C651 C645 1.429 . S
C651 C652 1.523 . S
C652 C633 1.368 . S
C652 C646 1.368 . S
C652 C651 1.523 . S
C653 C637 1.429 . S
C653 C649 1.429 . S
C653 C654 1.523 . S
C654 C638 1.368 . S
C654 C650 1.368 . S
C654 C653 1.523 . S
H655 C630 0.950 . S
H656 C632 0.950 . S
H657 C633 0.949 . S
H658 C635 0.950 . S
H659 C637 0.950 . S
C660 C661 1.349 . S
C660 C662 1.327 . S
C660 H685 0.950 . S
C661 C660 1.349 . S
C661 C677 1.349 . S
C662 C660 1.327 . S
C662 C681 1.429 . S
C662 H686 0.950 . S
C663 C680 1.574 . S
C663 C682 1.368 . S
C663 H687 0.949 . S
H664 C668 0.949 . S
C665 C666 1.349 . S
C665 C667 1.327 . S
C665 H688 0.950 . S
C666 C665 1.349 . S
C666 C678 1.349 . S
C667 C665 1.327 . S
C667 C683 1.429 . S
C667 H689 0.950 . S
C668 H664 0.949 . S
C668 C676 1.574 . S
C668 C684 1.368 . S
H669 C677 0.950 . S
H670 C675 0.950 . S
H671 C676 0.949 . S
H672 C678 0.950 . S
H673 C679 0.950 . S
H674 C680 0.949 . S
C675 H670 0.950 . S
C675 C677 1.327 . S
C675 C681 1.429 . S
C676 C668 1.574 . S
C676 H671 0.949 . S
C676 C682 1.368 . S
C677 C661 1.349 . S
C677 H669 0.950 . S
C677 C675 1.327 . S
C678 C666 1.349 . S
C678 H672 0.950 . S
C678 C679 1.327 . S
C679 H673 0.950 . S
C679 C678 1.327 . S
C679 C683 1.429 . S
C680 C663 1.574 . S
C680 H674 0.949 . S
C680 C684 1.368 . S
C681 C662 1.429 . S
C681 C675 1.429 . S
C681 C682 1.523 . S
C682 C663 1.368 . S
C682 C676 1.368 . S
C682 C681 1.523 . S
C683 C667 1.429 . S
C683 C679 1.429 . S
C683 C684 1.523 . S
C684 C668 1.368 . S
C684 C680 1.368 . S
C684 C683 1.523 . S
H685 C660 0.950 . S
H686 C662 0.950 . S
H687 C663 0.949 . S
H688 C665 0.950 . S
H689 C667 0.950 . S
C690 C691 1.349 . S
C690 C692 1.327 . S
C690 H715 0.950 . S
C691 C690 1.349 . S
C691 C707 1.349 . S
C692 C690 1.327 . S
C692 C711 1.429 . S
C692 H716 0.950 . S
C693 C710 1.574 . S
C693 C712 1.368 . S
C693 H717 0.949 . S
H694 C698 0.949 . S
C695 C696 1.349 . S
C695 C697 1.327 . S
C695 H718 0.950 . S
C696 C695 1.349 . S
C696 C708 1.349 . S
C697 C695 1.327 . S
C697 C713 1.429 . S
C697 H719 0.950 . S
C698 H694 0.949 . S
C698 C706 1.574 . S
C698 C714 1.368 . S
H699 C707 0.950 . S
H700 C705 0.950 . S
H701 C706 0.949 . S
H702 C708 0.950 . S
H703 C709 0.950 . S
H704 C710 0.949 . S
C705 H700 0.950 . S
C705 C707 1.327 . S
C705 C711 1.429 . S
C706 C698 1.574 . S
C706 H701 0.949 . S
C706 C712 1.368 . S
C707 C691 1.349 . S
C707 H699 0.950 . S
C707 C705 1.327 . S
C708 C696 1.349 . S
C708 H702 0.950 . S
C708 C709 1.327 . S
C709 H703 0.950 . S
C709 C708 1.327 . S
C709 C713 1.429 . S
C710 C693 1.574 . S
C710 H704 0.949 . S
C710 C714 1.368 . S
C711 C692 1.429 . S
C711 C705 1.429 . S
C711 C712 1.523 . S
C712 C693 1.368 . S
C712 C706 1.368 . S
C712 C711 1.523 . S
C713 C697 1.429 . S
C713 C709 1.429 . S
C713 C714 1.523 . S
C714 C698 1.368 . S
C714 C710 1.368 . S
C714 C713 1.523 . S
H715 C690 0.950 . S
H716 C692 0.950 . S
H717 C693 0.949 . S
H718 C695 0.950 . S
H719 C697 0.950 . S
C720 C721 1.349 . S
C720 C722 1.327 . S
C720 H745 0.950 . S
C721 C720 1.349 . S
C721 C737 1.349 . S
C722 C720 1.327 . S
C722 C741 1.429 . S
C722 H746 0.950 . S
C723 C740 1.574 . S
C723 C742 1.368 . S
C723 H747 0.949 . S
H724 C728 0.949 . S
C725 C726 1.349 . S
C725 C727 1.327 . S
C725 H748 0.950 . S
C726 C725 1.349 . S
C726 C738 1.349 . S
C727 C725 1.327 . S
C727 C743 1.429 . S
C727 H749 0.950 . S
C728 H724 0.949 . S
C728 C736 1.574 . S
C728 C744 1.368 . S
H729 C737 0.950 . S
H730 C735 0.950 . S
H731 C736 0.949 . S
H732 C738 0.950 . S
H733 C739 0.950 . S
H734 C740 0.949 . S
C735 H730 0.950 . S
C735 C737 1.327 . S
C735 C741 1.429 . S
C736 C728 1.574 . S
C736 H731 0.949 . S
C736 C742 1.368 . S
C737 C721 1.349 . S
C737 H729 0.950 . S
C737 C735 1.327 . S
C738 C726 1.349 . S
C738 H732 0.950 . S
C738 C739 1.327 . S
C739 H733 0.950 . S
C739 C738 1.327 . S
C739 C743 1.429 . S
C740 C723 1.574 . S
C740 H734 0.949 . S
C740 C744 1.368 . S
C741 C722 1.429 . S
C741 C735 1.429 . S
C741 C742 1.523 . S
C742 C723 1.368 . S
C742 C736 1.368 . S
C742 C741 1.523 . S
C743 C727 1.429 . S
C743 C739 1.429 . S
C743 C744 1.523 . S
C744 C728 1.368 . S
C744 C740 1.368 . S
C744 C743 1.523 . S
H745 C720 0.950 . S
H746 C722 0.950 . S
H747 C723 0.949 . S
H748 C725 0.950 . S
H749 C727 0.950 . S
C750 C751 1.349 . S
C750 C752 1.327 . S
C750 H775 0.950 . S
C751 C750 1.349 . S
C751 C767 1.349 . S
C752 C750 1.327 . S
C752 C771 1.429 . S
C752 H776 0.950 . S
C753 C770 1.574 . S
C753 C772 1.368 . S
C753 H777 0.949 . S
H754 C758 0.949 . S
C755 C756 1.349 . S
C755 C757 1.327 . S
C755 H778 0.950 . S
C756 C755 1.349 . S
C756 C768 1.349 . S
C757 C755 1.327 . S
C757 C773 1.429 . S
C757 H779 0.950 . S
C758 H754 0.949 . S
C758 C766 1.574 . S
C758 C774 1.368 . S
H759 C767 0.942 1_565 S
H760 C765 0.950 . S
H761 C766 0.949 . S
H762 C768 0.950 . S
H763 C769 0.950 . S
H764 C770 0.949 . S
C765 H760 0.950 . S
C765 C767 1.327 . S
C765 C771 1.429 . S
C766 C758 1.574 . S
C766 H761 0.949 . S
C766 C772 1.368 . S
C767 C751 1.349 . S
C767 H759 0.942 1_545 S
C767 C765 1.327 . S
C768 C756 1.349 . S
C768 H762 0.950 . S
C768 C769 1.327 . S
C769 H763 0.950 . S
C769 C768 1.327 . S
C769 C773 1.429 . S
C770 C753 1.574 . S
C770 H764 0.949 . S
C770 C774 1.368 . S
C771 C752 1.429 . S
C771 C765 1.429 . S
C771 C772 1.523 . S
C772 C753 1.368 . S
C772 C766 1.368 . S
C772 C771 1.523 . S
C773 C757 1.429 . S
C773 C769 1.429 . S
C773 C774 1.523 . S
C774 C758 1.368 . S
C774 C770 1.368 . S
C774 C773 1.523 . S
H775 C750 0.950 . S
H776 C752 0.950 . S
H777 C753 0.949 . S
H778 C755 0.950 . S
H779 C757 0.950 . S
C241 C137 0.948 1_565 S
C246 C17 0.948 . S
C271 C177 0.947 . S
C276 C57 0.947 . S
C301 C217 0.948 . S
C306 C97 0.948 1_655 S
C331 C29 0.607 . S
C336 C88 0.617 . S
C361 C69 0.607 . S
C366 C128 0.617 . S
C391 C109 0.607 . S
C396 C168 0.617 . S
C421 C149 0.607 . S
C426 C208 0.617 . S
C451 C189 0.607 . S
C456 C8 0.617 . S
C481 C229 0.607 . S
C486 C48 0.617 . S
C511 C2 1.451 . S
C516 C122 1.451 1_545 S
C541 C42 1.452 . S
C546 C162 1.452 . S
C571 C82 1.451 1_455 S
C576 C202 1.451 . S
C601 C31 3.867 . S
C606 C52 3.889 . S
C631 C71 3.867 . S
C636 C92 3.889 . S
C661 C111 3.866 . S
C666 C132 3.889 . S
C691 C151 3.866 . S
C696 C172 3.889 . S
C721 C191 3.866 1_455 S
C726 C212 3.889 . S
C751 C231 3.869 . S
C756 C12 3.889 . S
