# Generated by pormake.
# Topology wku, (7)-cn, num edge types: 1
# Building blocks:
#     Node 0, Type 0, BuildingBlock: OLANEW_clean_sbu_3, # of connection points: 7
#     Node 1, Type 0, BuildingBlock: OLANEW_clean_sbu_3, # of connection points: 7
#     Node 2, Type 0, BuildingBlock: OLANEW_clean_sbu_3, # of connection points: 7
#     Node 3, Type 0, BuildingBlock: OLANEW_clean_sbu_3, # of connection points: 7
#     Node 4, Type 0, BuildingBlock: OLANEW_clean_sbu_3, # of connection points: 7
#     Node 5, Type 0, BuildingBlock: OLANEW_clean_sbu_3, # of connection points: 7
#     Node 6, Type 0, BuildingBlock: OLANEW_clean_sbu_3, # of connection points: 7
#     Node 7, Type 0, BuildingBlock: OLANEW_clean_sbu_3, # of connection points: 7
#     Node 8, Type 0, BuildingBlock: OLANEW_clean_sbu_3, # of connection points: 7
#     Node 9, Type 0, BuildingBlock: OLANEW_clean_sbu_3, # of connection points: 7
#     Node 10, Type 0, BuildingBlock: OLANEW_clean_sbu_3, # of connection points: 7
#     Node 11, Type 0, BuildingBlock: OLANEW_clean_sbu_3, # of connection points: 7
#     Edge 12, Type (0, 0), BuildingBlock: OJICUG_clean_linker_0, # of connection points: 2
#     Edge 13, Type (0, 0), BuildingBlock: OJICUG_clean_linker_0, # of connection points: 2
#     Edge 14, Type (0, 0), BuildingBlock: OJICUG_clean_linker_0, # of connection points: 2
#     Edge 15, Type (0, 0), BuildingBlock: OJICUG_clean_linker_0, # of connection points: 2
#     Edge 16, Type (0, 0), BuildingBlock: OJICUG_clean_linker_0, # of connection points: 2
#     Edge 17, Type (0, 0), BuildingBlock: OJICUG_clean_linker_0, # of connection points: 2
#     Edge 18, Type (0, 0), BuildingBlock: OJICUG_clean_linker_0, # of connection points: 2
#     Edge 19, Type (0, 0), BuildingBlock: OJICUG_clean_linker_0, # of connection points: 2
#     Edge 20, Type (0, 0), BuildingBlock: OJICUG_clean_linker_0, # of connection points: 2
#     Edge 21, Type (0, 0), BuildingBlock: OJICUG_clean_linker_0, # of connection points: 2
#     Edge 22, Type (0, 0), BuildingBlock: OJICUG_clean_linker_0, # of connection points: 2
#     Edge 23, Type (0, 0), BuildingBlock: OJICUG_clean_linker_0, # of connection points: 2
#     Edge 24, Type (0, 0), BuildingBlock: OJICUG_clean_linker_0, # of connection points: 2
#     Edge 25, Type (0, 0), BuildingBlock: OJICUG_clean_linker_0, # of connection points: 2
#     Edge 26, Type (0, 0), BuildingBlock: OJICUG_clean_linker_0, # of connection points: 2
#     Edge 27, Type (0, 0), BuildingBlock: OJICUG_clean_linker_0, # of connection points: 2
#     Edge 28, Type (0, 0), BuildingBlock: OJICUG_clean_linker_0, # of connection points: 2
#     Edge 29, Type (0, 0), BuildingBlock: OJICUG_clean_linker_0, # of connection points: 2
#     Edge 30, Type (0, 0), BuildingBlock: OJICUG_clean_linker_0, # of connection points: 2
#     Edge 31, Type (0, 0), BuildingBlock: OJICUG_clean_linker_0, # of connection points: 2
#     Edge 32, Type (0, 0), BuildingBlock: OJICUG_clean_linker_0, # of connection points: 2
#     Edge 33, Type (0, 0), BuildingBlock: OJICUG_clean_linker_0, # of connection points: 2
#     Edge 34, Type (0, 0), BuildingBlock: OJICUG_clean_linker_0, # of connection points: 2
#     Edge 35, Type (0, 0), BuildingBlock: OJICUG_clean_linker_0, # of connection points: 2
#     Edge 36, Type (0, 0), BuildingBlock: OJICUG_clean_linker_0, # of connection points: 2
#     Edge 37, Type (0, 0), BuildingBlock: OJICUG_clean_linker_0, # of connection points: 2
#     Edge 38, Type (0, 0), BuildingBlock: OJICUG_clean_linker_0, # of connection points: 2
#     Edge 39, Type (0, 0), BuildingBlock: OJICUG_clean_linker_0, # of connection points: 2
#     Edge 40, Type (0, 0), BuildingBlock: OJICUG_clean_linker_0, # of connection points: 2
#     Edge 41, Type (0, 0), BuildingBlock: OJICUG_clean_linker_0, # of connection points: 2
#     Edge 42, Type (0, 0), BuildingBlock: OJICUG_clean_linker_0, # of connection points: 2
#     Edge 43, Type (0, 0), BuildingBlock: OJICUG_clean_linker_0, # of connection points: 2
#     Edge 44, Type (0, 0), BuildingBlock: OJICUG_clean_linker_0, # of connection points: 2
#     Edge 45, Type (0, 0), BuildingBlock: OJICUG_clean_linker_0, # of connection points: 2
#     Edge 46, Type (0, 0), BuildingBlock: OJICUG_clean_linker_0, # of connection points: 2
#     Edge 47, Type (0, 0), BuildingBlock: OJICUG_clean_linker_0, # of connection points: 2
#     Edge 48, Type (0, 0), BuildingBlock: OJICUG_clean_linker_0, # of connection points: 2
#     Edge 49, Type (0, 0), BuildingBlock: OJICUG_clean_linker_0, # of connection points: 2
#     Edge 50, Type (0, 0), BuildingBlock: OJICUG_clean_linker_0, # of connection points: 2
#     Edge 51, Type (0, 0), BuildingBlock: OJICUG_clean_linker_0, # of connection points: 2
#     Edge 52, Type (0, 0), BuildingBlock: OJICUG_clean_linker_0, # of connection points: 2
#     Edge 53, Type (0, 0), BuildingBlock: OJICUG_clean_linker_0, # of connection points: 2
# Relax obj value: 0.106
# Max RMSD: 0.200
# Mean RMSD: 0.199
data_MOF--net-wku--node1-OLANEW_clean_sbu_3--edge1-OJICUG_clean_linker_0
_symmetry_space_group_name_H-M    P1
_symmetry_Int_Tables_number       1
_symmetry_cell_setting            triclinic
loop_
_symmetry_equiv_pos_as_xyz
'x, y, z'
_cell_length_a     24.801501
_cell_length_b     24.775617
_cell_length_c     103.204
_cell_angle_alpha  89.955052
_cell_angle_beta   90.019154
_cell_angle_gamma 119.8237
loop_
_atom_site_label
_atom_site_type_symbol
_atom_site_fract_x
_atom_site_fract_y
_atom_site_fract_z
_atom_type_partial_charge
C0 C 0.19517 0.37368 0.0413 0.0
C1 C 0.14259 0.34315 0.0334 0.0
C2 C 0.13893 0.29674 0.02484 0.0
C3 C 0.18725 0.28198 0.02429 0.0
C4 C 0.23834 0.31436 0.0325 0.0
N5 N 0.23807 0.35626 0.0406 0.0
C6 C 0.29766 0.31372 0.03283 0.0
C7 C 0.40217 0.36431 0.0428 0.0
C8 C 0.40881 0.32108 0.05041 0.0
C9 C 0.46768 0.32804 0.05241 0.0
C10 C 0.52001 0.37802 0.0468 0.0
C11 C 0.5135 0.42102 0.03916 0.0
C12 C 0.45471 0.41416 0.03713 0.0
Cd13 Cd 0.33823 0.27634 1.00295 0.0
Cd14 Cd 0.20012 0.23936 0.98418 0.0
C15 C 0.27222 0.46151 0.07132 0.0
C16 C 0.32146 0.54751 0.08672 0.0
C17 C 0.28295 0.50671 0.0965 0.0
C18 C 0.24001 0.44422 0.09397 0.0
C19 C 0.23443 0.42223 0.08127 0.0
C20 C 0.31645 0.52336 0.07411 0.0
Co21 Co 0.30825 0.40209 0.0503 0.0
N22 N 0.28348 0.34127 0.06444 0.0
N23 N 0.3792 0.44932 0.05976 0.0
C24 C 0.38286 0.42646 0.07118 0.0
C25 C 0.43383 0.46311 0.07916 0.0
C26 C 0.47854 0.52283 0.07463 0.0
C27 C 0.47129 0.54485 0.06246 0.0
C28 C 0.41902 0.50561 0.05506 0.0
N29 N 0.34393 0.47077 0.03795 0.0
N30 N 0.34211 0.35771 0.04084 0.0
N31 N 0.26341 0.43896 0.05822 0.0
O32 O 0.2645 0.2395 0.96674 0.0
O33 O 0.34408 0.2584 0.97943 0.0
C34 C 0.47191 0.34483 1.00622 0.0
O35 O 0.44021 0.37194 1.00497 0.0
O36 O 0.44148 0.2857 1.00645 0.0
C37 C 0.20853 0.12675 1.00308 0.0
O38 O 0.26707 0.16098 1.00491 0.0
O39 O 0.17698 0.14829 0.99761 0.0
C40 C 0.32873 0.36501 0.07386 0.0
O41 O 0.32197 0.33728 0.0851 0.0
O42 O 0.28754 0.3367 0.99975 0.0
O43 O 0.21092 0.34002 0.99049 0.0
C44 C 0.39883 0.51809 0.04254 0.0
O45 O 0.4315 0.57038 0.03613 0.0
C46 C 0.31628 0.47322 0.02595 0.0
C47 C 0.31489 0.43575 0.01583 0.0
C48 C 0.27333 0.42152 1.0055 0.0
C49 C 0.24034 0.45405 1.00432 0.0
C50 C 0.24638 0.49736 0.01389 0.0
C51 C 0.28316 0.50527 0.02491 0.0
C52 C 0.3186 0.24702 0.96827 0.0
O53 O 0.30657 0.27165 0.02614 0.0
C54 C 0.25871 0.36604 0.99759 0.0
C55 C 0.2286 0.2805 0.06561 0.0
C56 C 0.16882 0.27218 0.0638 0.0
C57 C 0.11599 0.21509 0.06619 0.0
C58 C 0.12159 0.16564 0.07093 0.0
C59 C 0.18055 0.17346 0.07361 0.0
C60 C 0.2338 0.22996 0.07036 0.0
C61 C 0.20924 0.42077 0.05152 0.0
O62 O 0.16782 0.43564 0.05541 0.0
H63 H 0.10572 0.35446 0.03381 0.0
H64 H 0.09904 0.2727 0.01854 0.0
H65 H 0.18536 0.24793 0.01747 0.0
H66 H 0.36859 0.28234 0.05482 0.0
H67 H 0.56553 0.38335 0.04834 0.0
H68 H 0.4502 0.44738 0.03108 0.0
H69 H 0.28202 0.52424 0.10602 0.0
H70 H 0.20042 0.37468 0.07911 0.0
H71 H 0.34456 0.55267 0.06625 0.0
H72 H 0.4387 0.44673 0.08857 0.0
H73 H 0.5183 0.55229 0.08062 0.0
H74 H 0.5048 0.59094 0.0591 0.0
H75 H 0.34212 0.41281 0.01677 0.0
H76 H 0.20832 0.444 0.99634 0.0
H77 H 0.28466 0.53475 0.03282 0.0
H78 H 0.16147 0.30996 0.06149 0.0
H79 H 0.07959 0.12276 0.07328 0.0
H80 H 0.27936 0.23553 0.07211 0.0
C81 C 0.80522 0.19393 0.20772 0.0
C82 C 0.78491 0.14052 0.20012 0.0
C83 C 0.82903 0.13641 0.19208 0.0
C84 C 0.89169 0.18512 0.19172 0.0
C85 C 0.90861 0.23708 0.19959 0.0
N86 N 0.8652 0.23724 0.20722 0.0
C87 C 0.96786 0.29682 0.19992 0.0
C88 C 0.01871 0.40279 0.2093 0.0
C89 C 0.06665 0.41251 0.21784 0.0
C90 C 0.11629 0.4726 0.21987 0.0
C91 C 0.11824 0.52306 0.21337 0.0
C92 C 0.07075 0.51343 0.20477 0.0
C93 C 0.02115 0.4534 0.20269 0.0
Cd94 Cd 0.04944 0.33228 0.17019 0.0
Cd95 Cd 0.95438 0.20303 0.1518 0.0
C96 C 0.78997 0.27149 0.23715 0.0
C97 C 0.7613 0.32716 0.25276 0.0
C98 C 0.76029 0.28659 0.26248 0.0
C99 C 0.76903 0.23619 0.25961 0.0
C100 C 0.78405 0.22919 0.24688 0.0
C101 C 0.77845 0.32006 0.2401 0.0
Co102 Co 0.88754 0.3081 0.2166 0.0
N103 N 0.92228 0.28471 0.23124 0.0
N104 N 0.90958 0.37978 0.22572 0.0
C105 C 0.93511 0.3846 0.23731 0.0
C106 C 0.94927 0.43679 0.2449 0.0
C107 C 0.93532 0.48153 0.23982 0.0
C108 C 0.90734 0.4732 0.22748 0.0
C109 C 0.89443 0.41977 0.22048 0.0
N110 N 0.85563 0.34285 0.20372 0.0
N111 N 0.96671 0.34175 0.20756 0.0
N112 N 0.80497 0.26305 0.22412 0.0
O113 O 0.01897 0.26725 0.13445 0.0
O114 O 0.08906 0.33712 0.14772 0.0
C115 C 0.11036 0.4667 0.172 0.0
O116 O 0.0634 0.43498 0.16484 0.0
O117 O 0.12927 0.43612 0.17868 0.0
C118 C 0.06971 0.20278 0.1704 0.0
O119 O 0.09444 0.26148 0.17218 0.0
O120 O 0.0165 0.17179 0.16505 0.0
C121 C 0.94231 0.33067 0.2405 0.0
O122 O 0.96264 0.32513 0.25191 0.0
O123 O 0.93797 0.2827 0.16701 0.0
O124 O 0.86006 0.20602 0.15726 0.0
C125 C 0.86312 0.3985 0.20787 0.0
O126 O 0.84458 0.43094 0.20099 0.0
C127 C 0.827 0.31427 0.19169 0.0
C128 C 0.86399 0.3109 0.18206 0.0
C129 C 0.83794 0.26728 0.17206 0.0
C130 C 0.77273 0.23338 0.1707 0.0
C131 C 0.7345 0.24266 0.17952 0.0
C132 C 0.76225 0.28222 0.19024 0.0
C133 C 0.0724 0.31405 0.1364 0.0
O134 O 0.01959 0.3056 0.19358 0.0
C135 C 0.88017 0.25305 0.16456 0.0
C136 C 0.92936 0.23055 0.23284 0.0
C137 C 0.87885 0.17027 0.23119 0.0
C138 C 0.88416 0.11815 0.23395 0.0
C139 C 0.93948 0.12506 0.23882 0.0
C140 C -0.00999 0.18467 0.24121 0.0
C141 C 0.98539 0.23715 0.23776 0.0
C142 C 0.77049 0.20844 0.21745 0.0
O143 O 0.71379 0.16709 0.221 0.0
H144 H 0.73704 0.10333 0.2004 0.0
H145 H 0.81453 0.09585 0.18603 0.0
H146 H 0.92492 0.18285 0.18527 0.0
H147 H 0.06531 0.37379 0.22298 0.0
H148 H 0.15667 0.56953 0.21494 0.0
H149 H 0.98479 0.44648 0.19597 0.0
H150 H 0.74838 0.29103 0.27232 0.0
H151 H 0.78934 0.18977 0.24443 0.0
H152 H 0.78024 0.35014 0.23234 0.0
H153 H 0.96978 0.44265 0.25442 0.0
H154 H 0.94555 0.52224 0.24549 0.0
H155 H 0.89569 0.50683 0.22367 0.0
H156 H 0.91387 0.33852 0.18317 0.0
H157 H 0.75189 0.2 0.1629 0.0
H158 H 0.7336 0.28575 0.19774 0.0
H159 H 0.83385 0.1622 0.22856 0.0
H160 H 0.9413 0.08361 0.24137 0.0
H161 H 0.0247 0.28321 0.23935 0.0
C162 C 0.60497 0.81523 0.37421 0.0
C163 C 0.63556 0.79297 0.36634 0.0
C164 C 0.68261 0.83569 0.35792 0.0
C165 C 0.69782 0.89888 0.35745 0.0
C166 C 0.66538 0.9178 0.36564 0.0
N167 N 0.62313 0.87574 0.37367 0.0
C168 C 0.66592 0.97776 0.36589 0.0
C169 C 0.61531 0.03212 0.37579 0.0
C170 C 0.65819 0.08102 0.38358 0.0
C171 C 0.65158 0.13318 0.38566 0.0
C172 C 0.60231 0.13671 0.37995 0.0
C173 C 0.55964 0.08813 0.37215 0.0
C174 C 0.56614 0.03596 0.37003 0.0
Cd175 Cd 0.70381 0.05507 0.33594 0.0
Cd176 Cd 0.74272 0.95421 0.31709 0.0
C177 C 0.51533 0.8042 0.40394 0.0
C178 C 0.42894 0.7679 0.41924 0.0
C179 C 0.4696 0.77054 0.42911 0.0
C180 C 0.53218 0.79006 0.42667 0.0
C181 C 0.55433 0.80579 0.41397 0.0
C182 C 0.4534 0.78677 0.40664 0.0
Co183 Co 0.5762 0.89999 0.38308 0.0
N184 N 0.63528 0.93537 0.39759 0.0
N185 N 0.52763 0.92347 0.39221 0.0
C186 C 0.54873 0.94909 0.40376 0.0
C187 C 0.51079 0.96275 0.41152 0.0
C188 C 0.45169 0.94811 0.40665 0.0
C189 C 0.43149 0.91972 0.39437 0.0
C190 C 0.47192 0.90726 0.38721 0.0
N191 N 0.50905 0.86773 0.37038 0.0
N192 N 0.62149 0.97837 0.37377 0.0
N193 N 0.53843 0.81808 0.39089 0.0
O194 O 0.74162 0.01855 0.29975 0.0
O195 O 0.72183 0.07888 0.3124 0.0
C196 C 0.63474 0.1202 0.33905 0.0
O197 O 0.60786 0.06144 0.33795 0.0
O198 O 0.69382 0.14881 0.3392 0.0
C199 C 0.85393 0.07573 0.33604 0.0
O200 O 0.81914 0.0996 0.3379 0.0
O201 O 0.83306 0.02288 0.33055 0.0
C202 C 0.60966 0.95591 0.40686 0.0
O203 O 0.63448 0.97431 0.41841 0.0
O204 O 0.64557 0.94436 0.33242 0.0
O205 O 0.64234 0.86422 0.3233 0.0
C206 C 0.46113 0.87523 0.37467 0.0
O207 O 0.40957 0.85582 0.36801 0.0
C208 C 0.5077 0.83753 0.35846 0.0
C209 C 0.54592 0.87336 0.34842 0.0
C210 C 0.56049 0.8458 0.33818 0.0
C211 C 0.52782 0.7804 0.33701 0.0
C212 C 0.48386 0.74342 0.3465 0.0
C213 C 0.4754 0.77248 0.35742 0.0
C214 C 0.73351 0.06487 0.30126 0.0
O215 O 0.70805 0.0285 0.3592 0.0
C216 C 0.61622 0.88626 0.33033 0.0
C217 C 0.6956 0.94028 0.39939 0.0
C218 C 0.7044 0.88916 0.3973 0.0
C219 C 0.75981 0.89135 0.40063 0.0
C220 C 0.8068 0.94365 0.40667 0.0
C221 C 0.79815 -0.00597 0.40968 0.0
C222 C 0.74434 -0.00624 0.40528 0.0
C223 C 0.55696 0.78209 0.38425 0.0
O224 O 0.54162 0.72563 0.38809 0.0
H225 H 0.62373 0.74465 0.36665 0.0
H226 H 0.70665 0.81967 0.35163 0.0
H227 H 0.73216 0.93097 0.35068 0.0
H228 H 0.69635 0.07859 0.38808 0.0
H229 H 0.59724 0.17709 0.38156 0.0
H230 H 0.53317 -0.00107 0.36387 0.0
H231 H 0.45201 0.75253 0.43865 0.0
H232 H 0.60187 0.81908 0.41187 0.0
H233 H 0.42435 0.78563 0.39872 0.0
H234 H 0.52573 0.9832 0.42103 0.0
H235 H 0.42128 0.95792 0.41247 0.0
H236 H 0.38581 0.90729 0.39075 0.0
H237 H 0.56896 0.92345 0.34935 0.0
H238 H 0.53818 0.75828 0.32909 0.0
H239 H 0.44525 0.74472 0.36526 0.0
H240 H 0.66776 0.84526 0.39418 0.0
H241 H 0.84866 0.94339 0.40954 0.0
H242 H 0.73831 0.03329 0.40734 0.0
C243 C 0.78404 0.61389 0.54146 0.0
C244 C 0.83728 0.64574 0.53378 0.0
C245 C 0.8414 0.69323 0.52547 0.0
C246 C 0.79293 0.70777 0.52495 0.0
C247 C 0.74113 0.67398 0.53291 0.0
N248 N 0.74093 0.63101 0.54077 0.0
C249 C 0.68165 0.67434 0.53321 0.0
C250 C 0.57642 0.62187 0.54291 0.0
C251 C 0.5685 0.66298 0.55095 0.0
C252 C 0.50905 0.65426 0.5531 0.0
C253 C 0.45744 0.60463 0.54722 0.0
C254 C 0.46525 0.56386 0.53913 0.0
C255 C 0.52463 0.57251 0.53693 0.0
Cd256 Cd 0.64507 0.71836 0.50338 0.0
Cd257 Cd 0.77395 0.75035 0.48532 0.0
C258 C 0.70667 0.52479 0.57133 0.0
C259 C 0.65672 0.43872 0.58672 0.0
C260 C 0.69531 0.47924 0.59652 0.0
C261 C 0.73877 0.5416 0.59399 0.0
C262 C 0.74463 0.56375 0.58129 0.0
C263 C 0.66203 0.46305 0.57411 0.0
Co264 Co 0.67063 0.58461 0.5504 0.0
N265 N 0.69509 0.6449 0.56463 0.0
N266 N 0.59956 0.53689 0.5598 0.0
C267 C 0.59566 0.55931 0.57126 0.0
C268 C 0.54454 0.52234 0.57917 0.0
C269 C 0.49992 0.4628 0.57456 0.0
C270 C 0.50742 0.44125 0.56237 0.0
C271 C 0.55983 0.48078 0.55502 0.0
N272 N 0.63518 0.51624 0.53796 0.0
N273 N 0.63686 0.62936 0.54103 0.0
N274 N 0.71551 0.54759 0.55825 0.0
O275 O 0.71056 0.75044 0.46774 0.0
O276 O 0.64071 0.75209 0.48083 0.0
C277 C 0.51076 0.64477 0.50499 0.0
O278 O 0.54311 0.63003 0.49786 0.0
O279 O 0.54064 0.69385 0.51176 0.0
C280 C 0.77434 0.86732 0.50346 0.0
O281 O 0.7156 0.83398 0.50518 0.0
O282 O 0.80523 0.84439 0.49829 0.0
C283 C 0.64968 0.6207 0.57402 0.0
O284 O 0.65617 0.64797 0.5853 0.0
O285 O 0.69356 0.655 0.50068 0.0
O286 O 0.77035 0.65295 0.4911 0.0
C287 C 0.58023 0.46875 0.54249 0.0
O288 O 0.54759 0.41676 0.53599 0.0
C289 C 0.66283 0.51453 0.52591 0.0
C290 C 0.6657 0.55396 0.51609 0.0
C291 C 0.70894 0.5705 0.50603 0.0
C292 C 0.74269 0.53881 0.50479 0.0
C293 C 0.73384 0.49208 0.5138 0.0
C294 C 0.69485 0.48148 0.52458 0.0
C295 C 0.66386 0.75762 0.46954 0.0
O296 O 0.67301 0.71714 0.52673 0.0
C297 C 0.72319 0.62653 0.49836 0.0
C298 C 0.74988 0.7057 0.5659 0.0
C299 C 0.80973 0.71422 0.5641 0.0
C300 C 0.86246 0.77127 0.56656 0.0
C301 C 0.85669 0.82051 0.57135 0.0
C302 C 0.79766 0.81255 0.57401 0.0
C303 C 0.7445 0.75603 0.57072 0.0
C304 C 0.76982 0.5662 0.55157 0.0
O305 O 0.81128 0.55132 0.55542 0.0
H306 H 0.87439 0.63479 0.53421 0.0
H307 H 0.88185 0.71836 0.51936 0.0
H308 H 0.79528 0.74278 0.51833 0.0
H309 H 0.60814 0.70127 0.55561 0.0
H310 H 0.41147 0.59794 0.54889 0.0
H311 H 0.53014 0.54083 0.5306 0.0
H312 H 0.69592 0.46153 0.60605 0.0
H313 H 0.779 0.61119 0.57914 0.0
H314 H 0.63384 0.43392 0.56625 0.0
H315 H 0.53947 0.53836 0.5886 0.0
H316 H 0.46004 0.43311 0.5805 0.0
H317 H 0.47398 0.39529 0.55893 0.0
H318 H 0.63813 0.57649 0.51711 0.0
H319 H 0.77569 0.55051 0.49694 0.0
H320 H 0.69178 0.45004 0.53223 0.0
H321 H 0.81722 0.67661 0.56174 0.0
H322 H 0.89863 0.86336 0.57374 0.0
H323 H 0.69888 0.75033 0.57246 0.0
C324 C 0.1727 0.79157 0.70841 0.0
C325 C 0.19484 0.84437 0.70054 0.0
C326 C 0.15217 0.8488 0.69208 0.0
C327 C 0.08913 0.80099 0.69159 0.0
C328 C 0.07031 0.74965 0.69977 0.0
N329 N 0.11234 0.74933 0.70783 0.0
C330 C 0.01046 0.69044 0.70002 0.0
C331 C 0.9567 0.58555 0.70993 0.0
C332 C 0.90846 0.57872 0.71807 0.0
C333 C 0.85742 0.51969 0.72032 0.0
C334 C 0.85437 0.46743 0.71444 0.0
C335 C 0.90222 0.47417 0.70626 0.0
C336 C 0.95323 0.53312 0.70397 0.0
Cd337 Cd 0.9296 0.65278 0.6702 0.0
Cd338 Cd 0.0251 0.78011 0.65188 0.0
C339 C 0.18367 0.71275 0.73819 0.0
C340 C 0.21982 0.66195 0.7534 0.0
C341 C 0.21717 0.69975 0.76332 0.0
C342 C 0.19767 0.74305 0.76095 0.0
C343 C 0.18195 0.74988 0.74827 0.0
C344 C 0.20107 0.66804 0.74082 0.0
Co345 Co 0.08814 0.67841 0.71732 0.0
N346 N 0.05257 0.70252 0.73175 0.0
N347 N 0.06465 0.6066 0.72653 0.0
C348 C 0.03882 0.60236 0.73805 0.0
C349 C 0.02494 0.55082 0.74586 0.0
C350 C 0.03957 0.50612 0.74107 0.0
C351 C 0.06813 0.51398 0.72882 0.0
C352 C 0.08081 0.56682 0.7216 0.0
N353 N 0.12068 0.64318 0.70473 0.0
N354 N 0.00997 0.64553 0.70796 0.0
N355 N 0.16981 0.72232 0.72516 0.0
O356 O 0.96091 0.7167 0.63442 0.0
O357 O 0.89006 0.6479 0.64773 0.0
C358 C 0.86891 0.5188 0.67226 0.0
O359 O 0.91575 0.55034 0.66506 0.0
O360 O 0.84996 0.54944 0.67889 0.0
C361 C 0.90924 0.78173 0.67003 0.0
O362 O 0.88441 0.72309 0.67188 0.0
O363 O 0.96279 0.81257 0.66479 0.0
C364 C 0.03192 0.65658 0.74106 0.0
O365 O 0.01326 0.66324 0.75257 0.0
O366 O 0.04068 0.70007 0.6672 0.0
O367 O 0.119 0.77593 0.65739 0.0
C368 C 0.11298 0.58771 0.70907 0.0
O369 O 0.13221 0.55519 0.70244 0.0
C370 C 0.15023 0.67136 0.69273 0.0
C371 C 0.11371 0.67264 0.68272 0.0
C372 C 0.14018 0.71477 0.67245 0.0
C373 C 0.20544 0.74846 0.67119 0.0
C374 C 0.24326 0.74245 0.68065 0.0
C375 C 0.21513 0.70502 0.69163 0.0
C376 C 0.90706 0.67057 0.63638 0.0
O377 O 0.95948 0.68232 0.69347 0.0
C378 C 0.09844 0.72898 0.66473 0.0
C379 C 0.04783 0.75813 0.73348 0.0
C380 C 0.09914 0.81773 0.73145 0.0
C381 C 0.09699 0.87109 0.73471 0.0
C382 C 0.04454 0.86623 0.74063 0.0
C383 C -0.00601 0.80751 0.74359 0.0
C384 C -0.00575 0.75385 0.73925 0.0
C385 C 0.20575 0.77667 0.71851 0.0
O386 O 0.26205 0.8176 0.72237 0.0
H387 H 0.24303 0.88078 0.70088 0.0
H388 H 0.16811 0.88886 0.6858 0.0
H389 H 0.05708 0.80337 0.6848 0.0
H390 H 0.91066 0.61888 0.72273 0.0
H391 H 0.81486 0.42178 0.71618 0.0
H392 H -0.01014 0.53781 0.69757 0.0
H393 H 0.23517 0.69978 0.77285 0.0
H394 H 0.16854 0.78422 0.74621 0.0
H395 H 0.20231 0.64035 0.73287 0.0
H396 H 0.0043 0.54552 0.75535 0.0
H397 H 0.02958 0.46593 0.74692 0.0
H398 H 0.08052 0.48052 0.72525 0.0
H399 H 0.06376 0.64488 0.68373 0.0
H400 H 0.22675 0.78097 0.66326 0.0
H401 H 0.24346 0.70349 0.69946 0.0
H402 H 0.14309 0.82458 0.72844 0.0
H403 H 0.04482 0.90843 0.74347 0.0
H404 H 0.95463 0.70853 0.74128 0.0
C405 C 0.37611 0.17259 0.87503 0.0
C406 C 0.34362 0.19328 0.8673 0.0
C407 C 0.29505 0.14908 0.85938 0.0
C408 C 0.28028 0.086 0.85924 0.0
C409 C 0.31474 0.06872 0.86723 0.0
N410 N 0.35842 0.11217 0.87481 0.0
C411 C 0.31495 0.00914 0.86762 0.0
C412 C 0.36938 0.95762 0.87714 0.0
C413 C 0.33204 0.91075 0.88596 0.0
C414 C 0.342 0.86064 0.88806 0.0
C415 C 0.38914 0.85718 0.88135 0.0
C416 C 0.42619 0.90367 0.8725 0.0
C417 C 0.41625 0.95373 0.87035 0.0
Cd418 Cd 0.26909 0.92801 0.83776 0.0
Cd419 Cd 0.23406 0.02431 0.81926 0.0
C420 C 0.46878 0.18821 0.90447 0.0
C421 C 0.55251 0.21663 0.92017 0.0
C422 C 0.51305 0.21833 0.92982 0.0
C423 C 0.45428 0.21008 0.92684 0.0
C424 C 0.43259 0.195 0.9141 0.0
C425 C 0.52848 0.19914 0.90751 0.0
Co426 Co 0.40707 0.08965 0.88413 0.0
N427 N 0.35009 0.05606 0.89902 0.0
N428 N 0.45702 0.0675 0.89316 0.0
C429 C 0.4374 0.04303 0.90486 0.0
C430 C 0.47589 0.02921 0.91241 0.0
C431 C 0.53389 0.04233 0.90716 0.0
C432 C 0.55244 0.06926 0.89471 0.0
C433 C 0.51154 0.08194 0.88777 0.0
N434 N 0.47261 0.12031 0.87105 0.0
N435 N 0.36076 0.01 0.87531 0.0
N436 N 0.44549 0.17282 0.89143 0.0
O437 O 0.23524 0.95986 0.80205 0.0
O438 O 0.23556 0.88931 0.8152 0.0
C439 C 0.34325 0.86742 0.8393 0.0
O440 O 0.35815 0.91487 0.83228 0.0
O441 O 0.29391 0.84794 0.84599 0.0
C442 C 0.11937 0.90744 0.8378 0.0
O443 O 0.15347 0.88273 0.83961 0.0
O444 O 0.14133 0.9608 0.83248 0.0
C445 C 0.37705 0.03682 0.90826 0.0
O446 O 0.35348 0.0193 0.91994 0.0
O447 O 0.32944 0.0394 0.83437 0.0
O448 O 0.33123 0.11819 0.82479 0.0
C449 C 0.52072 0.11251 0.8751 0.0
O450 O 0.57109 0.13047 0.8681 0.0
C451 C 0.47245 0.14909 0.85904 0.0
C452 C 0.43164 0.11236 0.84946 0.0
C453 C 0.41444 0.13893 0.83947 0.0
C454 C 0.44637 0.2042 0.83806 0.0
C455 C 0.49418 0.24204 0.84682 0.0
C456 C 0.50582 0.2139 0.85753 0.0
C457 C 0.22941 0.90652 0.8039 0.0
O458 O 0.27233 0.95756 0.86122 0.0
C459 C 0.35789 0.09735 0.832 0.0
C460 C 0.28976 0.05065 0.90107 0.0
C461 C 0.28039 0.10142 0.89904 0.0
C462 C 0.22511 0.09889 0.90262 0.0
C463 C 0.17877 0.04645 0.90878 0.0
C464 C 0.18773 -0.00396 0.91159 0.0
C465 C 0.2417 -0.00302 0.90707 0.0
C466 C 0.4258 0.20752 0.88463 0.0
O467 O 0.44187 0.26474 0.888 0.0
H468 H 0.35508 0.24151 0.86737 0.0
H469 H 0.26947 0.16385 0.85322 0.0
H470 H 0.24472 0.05274 0.85283 0.0
H471 H 0.29572 0.91328 0.89126 0.0
H472 H 0.39681 0.81839 0.88298 0.0
H473 H 0.44506 0.98933 0.86344 0.0
H474 H 0.52919 0.23041 0.93966 0.0
H475 H 0.38827 0.1903 0.91157 0.0
H476 H 0.55662 0.1966 0.89982 0.0
H477 H 0.46212 0.00961 0.92202 0.0
H478 H 0.56469 0.03234 0.9128 0.0
H479 H 0.59724 0.08038 0.89078 0.0
H480 H 0.40889 0.0624 0.8506 0.0
H481 H 0.43405 0.22539 0.83027 0.0
H482 H 0.53836 0.24232 0.86498 0.0
H483 H 0.31639 0.14505 0.89559 0.0
H484 H 0.13688 0.04635 0.91178 0.0
H485 H 0.24826 0.95769 0.90904 0.0
C486 C 0.60742 0.78875 0.80971 0.0
C487 C 0.63804 0.84127 0.81764 0.0
C488 C 0.68451 0.84476 0.82616 0.0
C489 C 0.69924 0.79639 0.82664 0.0
C490 C 0.66683 0.74541 0.8184 0.0
N491 N 0.62482 0.74579 0.81035 0.0
C492 C 0.66746 0.68604 0.81801 0.0
C493 C 0.61629 0.5813 0.80811 0.0
C494 C 0.65894 0.57433 0.80039 0.0
C495 C 0.6517 0.51527 0.79841 0.0
C496 C 0.60202 0.4631 0.80414 0.0
C497 C 0.5596 0.46995 0.81188 0.0
C498 C 0.56675 0.52892 0.8139 0.0
Cd499 Cd 0.70492 0.64532 0.84771 0.0
Cd500 Cd 0.73741 0.77645 0.86742 0.0
C501 C 0.51872 0.71157 0.7798 0.0
C502 C 0.43249 0.66172 0.76448 0.0
C503 C 0.47292 0.70027 0.75466 0.0
C504 C 0.53532 0.74355 0.75713 0.0
C505 C 0.5576 0.74939 0.76981 0.0
C506 C 0.45695 0.66703 0.77707 0.0
Co507 Co 0.57864 0.67552 0.80069 0.0
N508 N 0.63892 0.70019 0.78647 0.0
N509 N 0.53108 0.60448 0.79127 0.0
C510 C 0.55356 0.6007 0.77981 0.0
C511 C 0.51671 0.54957 0.77189 0.0
C512 C 0.45723 0.50483 0.77649 0.0
C513 C 0.43563 0.51219 0.78869 0.0
C514 C 0.47505 0.56461 0.79605 0.0
N515 N 0.51042 0.63993 0.81312 0.0
N516 N 0.62318 0.64154 0.81005 0.0
N517 N 0.54164 0.72046 0.79286 0.0
O518 O 0.73475 0.70826 0.88432 0.0
O519 O 0.73086 0.63752 0.87067 0.0
C520 C 0.63472 0.51178 0.84435 0.0
O521 O 0.6086 0.54357 0.8468 0.0
O522 O 0.69345 0.54208 0.84299 0.0
C523 C 0.8537 0.77488 0.84857 0.0
O524 O 0.81964 0.71696 0.84604 0.0
O525 O 0.83158 0.8049 0.85447 0.0
C526 C 0.61488 0.65484 0.77706 0.0
O527 O 0.64224 0.6615 0.76579 0.0
O528 O 0.64467 0.6962 0.85142 0.0
O529 O 0.63895 0.77039 0.86121 0.0
C530 C 0.46301 0.58493 0.80859 0.0
O531 O 0.41098 0.55229 0.81506 0.0
C532 C 0.50828 0.66779 0.82512 0.0
C533 C 0.54585 0.66914 0.83521 0.0
C534 C 0.55962 0.71018 0.84562 0.0
C535 C 0.52689 0.74298 0.84684 0.0
C536 C 0.48377 0.73729 0.83725 0.0
C537 C 0.47608 0.70077 0.82619 0.0
C538 C 0.73773 0.65937 0.88212 0.0
O539 O 0.70978 0.67713 0.82458 0.0
C540 C 0.61449 0.72414 0.85367 0.0
C541 C 0.69962 0.75506 0.78524 0.0
C542 C 0.70808 0.81495 0.78706 0.0
C543 C 0.76509 0.86777 0.78462 0.0
C544 C 0.81433 0.86205 0.77984 0.0
C545 C 0.80638 0.80298 0.77716 0.0
C546 C 0.74994 0.74974 0.78044 0.0
C547 C 0.56009 0.77472 0.79956 0.0
O548 O 0.54516 0.81621 0.79572 0.0
H549 H 0.62671 0.87816 0.81729 0.0
H550 H 0.70858 0.88459 0.83248 0.0
H551 H 0.73332 0.79814 0.83344 0.0
H552 H 0.69744 0.61442 0.79589 0.0
H553 H 0.59647 0.41744 0.80261 0.0
H554 H 0.534 0.5337 0.82002 0.0
H555 H 0.45516 0.70096 0.74514 0.0
H556 H 0.6051 0.7836 0.77193 0.0
H557 H 0.42796 0.6389 0.78495 0.0
H558 H 0.53277 0.5446 0.76245 0.0
H559 H 0.42763 0.46494 0.77055 0.0
H560 H 0.38972 0.47865 0.79212 0.0
H561 H 0.56894 0.64207 0.83423 0.0
H562 H 0.53662 0.7746 0.85489 0.0
H563 H 0.44657 0.6993 0.81829 0.0
H564 H 0.67045 0.82237 0.78943 0.0
H565 H 0.85716 0.90404 0.77745 0.0
H566 H 0.74427 0.7041 0.77868 0.0
C567 C 0.81327 0.60626 0.97574 0.0
C568 C 0.79212 0.63898 0.98325 0.0
C569 C 0.83549 0.6869 0.99142 0.0
C570 C 0.89826 0.70101 0.99197 0.0
C571 C 0.91602 0.66635 0.98418 0.0
N572 N 0.87326 0.62293 0.97645 0.0
C573 C 0.97566 0.66635 0.98394 0.0
C574 C 0.02814 0.61268 0.97452 0.0
C575 C 0.0771 0.65313 0.96644 0.0
C576 C 0.12756 0.64378 0.96439 0.0
C577 C 0.12936 0.59419 0.97043 0.0
C578 C 0.08087 0.5541 0.97858 0.0
C579 C 0.03042 0.56339 0.98067 0.0
Cd580 Cd 0.05531 0.71115 0.0138 0.0
Cd581 Cd 0.9585 0.74413 0.03203 0.0
C582 C 0.80022 0.51391 0.94633 0.0
C583 C 0.76243 0.42618 0.93135 0.0
C584 C 0.76152 0.46528 0.9215 0.0
C585 C 0.78007 0.52784 0.92379 0.0
C586 C 0.7992 0.55164 0.93629 0.0
C587 C 0.78309 0.45182 0.94379 0.0
Co588 Co 0.89692 0.57553 0.96702 0.0
N589 N 0.93219 0.63473 0.95259 0.0
N590 N 0.92005 0.52692 0.95781 0.0
C591 C 0.94593 0.54844 0.94628 0.0
C592 C 0.95999 0.51079 0.93852 0.0
C593 C 0.94537 0.45154 0.94334 0.0
C594 C 0.91674 0.43094 0.9556 0.0
C595 C 0.90397 0.47113 0.96279 0.0
N596 N 0.86456 0.50809 0.97969 0.0
N597 N 0.97543 0.62076 0.97628 0.0
N598 N 0.81495 0.5381 0.95929 0.0
O599 O 0.02142 0.7425 0.04953 0.0
O600 O 0.0927 0.74383 0.03641 0.0
C601 C 0.11621 0.63758 0.01215 0.0
O602 O 0.06881 0.62232 0.01918 0.0
O603 O 0.13559 0.68716 1.00552 0.0
C604 C 0.0763 0.86089 0.01403 0.0
O605 O 0.10094 0.82683 0.01212 0.0
O606 O 0.02278 0.83849 0.01926 0.0
C607 C 0.95315 0.60976 0.9433 0.0
O608 O 0.97426 0.63665 0.932 0.0
O609 O 0.94384 0.64897 0.01665 0.0
O610 O 0.86497 0.64716 0.02615 0.0
C611 C 0.87194 0.46012 0.97534 0.0
O612 O 0.85276 0.40851 0.982 0.0
C613 C 0.83515 0.5072 0.99168 0.0
C614 C 0.8714 0.54731 1.0014 0.0
C615 C 0.84451 0.56428 0.01136 0.0
C616 C 0.77925 0.53242 0.01262 0.0
C617 C 0.7417 0.48514 1.00371 0.0
C618 C 0.7703 0.47412 0.99301 0.0
C619 C 0.07506 0.74921 0.04772 0.0
O620 O 0.02687 0.70926 0.99038 0.0
C621 C 0.88588 0.62061 0.01894 0.0
C622 C 0.93896 0.69594 0.95122 0.0
C623 C 0.88802 0.7053 0.95284 0.0
C624 C 0.89325 0.76297 0.95043 0.0
C625 C 0.94889 0.81203 0.94593 0.0
C626 C -0.00023 0.80337 0.94348 0.0
C627 C -0.00478 0.74595 0.9466 0.0
C628 C 0.77965 0.55774 0.96584 0.0
O629 O 0.72325 0.54263 0.96204 0.0
H630 H 0.74423 0.62833 0.98281 0.0
H631 H 0.82035 0.71271 0.99741 0.0
H632 H 0.93095 0.7364 0.99849 0.0
H633 H 0.0759 0.69139 0.96165 0.0
H634 H 0.16844 0.58701 0.96885 0.0
H635 H -0.00667 0.53228 0.98706 0.0
H636 H 0.74138 0.44615 0.91216 0.0
H637 H 0.81251 0.59937 0.93827 0.0
H638 H 0.78339 0.42339 0.95171 0.0
H639 H 0.98079 0.52608 0.92904 0.0
H640 H 0.95549 0.42133 0.93753 0.0
H641 H 0.90446 0.3852 0.9592 0.0
H642 H 0.92135 0.56987 1.00039 0.0
H643 H 0.75788 0.54439 0.02042 0.0
H644 H 0.74225 0.44227 0.98542 0.0
H645 H 0.84275 0.66794 0.95511 0.0
H646 H 0.95065 0.85552 0.94363 0.0
H647 H 0.0348 0.73949 0.94498 0.0
C648 C 0.1914 0.80791 0.14299 0.0
C649 C 0.13889 0.78589 0.15092 0.0
C650 C 0.13451 0.82884 0.1593 0.0
C651 C 0.1821 0.89204 0.15965 0.0
C652 C 0.2331 0.91074 0.15141 0.0
N653 N 0.2334 0.86843 0.14344 0.0
C654 C 0.29207 0.97074 0.15102 0.0
C655 C 0.39664 0.02468 0.14108 0.0
C656 C 0.40261 0.07331 0.13315 0.0
C657 C 0.46113 0.1253 0.13104 0.0
C658 C 0.51377 0.12893 0.13684 0.0
C659 C 0.50792 0.08062 0.14478 0.0
C660 C 0.44948 0.02862 0.14694 0.0
Cd661 Cd 0.33156 0.04907 0.18074 0.0
Cd662 Cd 0.20011 0.95116 0.20065 0.0
C663 C 0.2698 0.79593 0.11331 0.0
C664 C 0.32037 0.7598 0.09806 0.0
C665 C 0.28227 0.76219 0.08817 0.0
C666 C 0.23889 0.78146 0.09059 0.0
C667 C 0.23229 0.79725 0.10327 0.0
C668 C 0.31455 0.77865 0.11064 0.0
Co669 Co 0.30429 0.89239 0.13398 0.0
N670 N 0.28004 0.92714 0.11941 0.0
N671 N 0.37604 0.91561 0.12482 0.0
C672 C 0.38016 0.9408 0.11322 0.0
C673 C 0.43157 0.95426 0.10544 0.0
C674 C 0.47627 0.9399 0.11034 0.0
C675 C 0.46852 0.91198 0.12267 0.0
C676 C 0.4158 0.89969 0.12986 0.0
N677 N 0.33964 0.86069 0.14675 0.0
N678 N 0.33697 0.97109 0.14314 0.0
N679 N 0.2606 0.81019 0.12633 0.0
O680 O 0.26883 0.01684 0.21743 0.0
O681 O 0.3396 0.08296 0.20372 0.0
C682 C 0.46495 0.11243 0.17731 0.0
O683 O 0.43361 0.0546 0.17975 0.0
O684 O 0.43426 0.14068 0.17601 0.0
C685 C 0.20188 0.06879 0.18155 0.0
O686 O 0.2597 0.0922 0.17897 0.0
O687 O 0.17198 0.01705 0.18756 0.0
C688 C 0.3259 0.94742 0.11011 0.0
O689 O 0.31917 0.96552 0.09853 0.0
O690 O 0.28034 0.93835 0.18474 0.0
O691 O 0.20646 0.85865 0.19453 0.0
C692 C 0.39499 0.86812 0.14245 0.0
O693 O 0.42737 0.84894 0.14915 0.0
C694 C 0.31106 0.83073 0.1587 0.0
C695 C 0.30882 0.86682 0.16871 0.0
C696 C 0.26723 0.83953 0.17903 0.0
C697 C 0.23446 0.7741 0.18022 0.0
C698 C 0.24092 0.73684 0.17069 0.0
C699 C 0.27829 0.7657 0.15976 0.0
C700 C 0.31782 0.06828 0.21518 0.0
O701 O 0.30033 0.02178 0.15757 0.0
C702 C 0.25274 0.88036 0.18701 0.0
C703 C 0.2246 0.93204 0.11763 0.0
C704 C 0.16501 0.88095 0.11976 0.0
C705 C 0.11178 0.88317 0.11644 0.0
C706 C 0.11677 0.93545 0.11037 0.0
C707 C 0.17549 0.98581 0.10735 0.0
C708 C 0.22902 0.98549 0.11173 0.0
C709 C 0.20634 0.77445 0.133 0.0
O710 O 0.1655 0.71791 0.12925 0.0
H711 H 0.1027 0.73756 0.15069 0.0
H712 H 0.09471 0.81299 0.16563 0.0
H713 H 0.17982 0.92432 0.16639 0.0
H714 H 0.36214 0.0708 0.12858 0.0
H715 H 0.55902 0.16916 0.1352 0.0
H716 H 0.44547 0.99182 0.15321 0.0
H717 H 0.2821 0.74415 0.07864 0.0
H718 H 0.19785 0.81044 0.10534 0.0
H719 H 0.34252 0.77763 0.11856 0.0
H720 H 0.43677 0.97437 0.09589 0.0
H721 H 0.51636 0.94956 0.10451 0.0
H722 H 0.50196 0.89976 0.12632 0.0
H723 H 0.33569 0.91689 0.16774 0.0
H724 H 0.20227 0.75218 0.18817 0.0
H725 H 0.28042 0.73777 0.15191 0.0
H726 H 0.15803 0.83708 0.12293 0.0
H727 H 0.07467 0.93523 0.1075 0.0
H728 H 0.27434 0.02496 0.10964 0.0
C729 C 0.37313 0.20012 0.3089 0.0
C730 C 0.3416 0.14739 0.31675 0.0
C731 C 0.29378 0.1434 0.3249 0.0
C732 C 0.27875 0.19159 0.32513 0.0
C733 C 0.31223 0.24287 0.31701 0.0
N734 N 0.35527 0.24278 0.30924 0.0
C735 C 0.31192 0.3024 0.31657 0.0
C736 C 0.3646 0.40746 0.30672 0.0
C737 C 0.32517 0.41575 0.29823 0.0
C738 C 0.33425 0.47535 0.296 0.0
C739 C 0.38257 0.52673 0.30223 0.0
C740 C 0.42173 0.51853 0.31075 0.0
C741 C 0.4127 0.459 0.31303 0.0
Cd742 Cd 0.26863 0.33923 0.34651 0.0
Cd743 Cd 0.23639 0.21046 0.36508 0.0
C744 C 0.46436 0.27679 0.27922 0.0
C745 C 0.5513 0.32661 0.26407 0.0
C746 C 0.51224 0.28605 0.25433 0.0
C747 C 0.45003 0.24182 0.25674 0.0
C748 C 0.42669 0.2373 0.26929 0.0
C749 C 0.52601 0.32201 0.27654 0.0
Co750 Co 0.40243 0.31319 0.29965 0.0
N751 N 0.34355 0.28866 0.28508 0.0
N752 N 0.451 0.38444 0.29033 0.0
C753 C 0.42997 0.38823 0.2787 0.0
C754 C 0.46772 0.43942 0.27085 0.0
C755 C 0.52656 0.48426 0.27571 0.0
C756 C 0.54669 0.47688 0.28808 0.0
C757 C 0.50645 0.4244 0.29534 0.0
N758 N 0.46952 0.34885 0.31238 0.0
N759 N 0.35682 0.3469 0.30869 0.0
N760 N 0.44046 0.26841 0.29219 0.0
O761 O 0.23702 0.27568 0.38232 0.0
O762 O 0.23438 0.34447 0.369 0.0
C763 C 0.34282 0.47349 0.3448 0.0
O764 O 0.35752 0.44105 0.35193 0.0
O765 O 0.29356 0.4437 0.33809 0.0
C766 C 0.11953 0.21066 0.34688 0.0
O767 O 0.15309 0.26922 0.34489 0.0
O768 O 0.14233 0.17991 0.3522 0.0
C769 C 0.36916 0.33406 0.27568 0.0
O770 O 0.3441 0.32715 0.26413 0.0
O771 O 0.3302 0.28911 0.34966 0.0
O772 O 0.33333 0.21307 0.35935 0.0
C773 C 0.51725 0.40401 0.308 0.0
O774 O 0.56864 0.4366 0.31467 0.0
C775 C 0.47083 0.32073 0.32441 0.0
C776 C 0.43106 0.31737 0.33418 0.0
C777 C 0.41497 0.2743 0.34427 0.0
C778 C 0.44714 0.24099 0.34555 0.0
C779 C 0.49395 0.25012 0.33656 0.0
C780 C 0.50431 0.28916 0.32578 0.0
C781 C 0.22923 0.32196 0.38036 0.0
O782 O 0.26957 0.31151 0.32309 0.0
C783 C 0.35911 0.25989 0.35197 0.0
C784 C 0.28319 0.23347 0.28339 0.0
C785 C 0.27466 0.17375 0.28556 0.0
C786 C 0.21902 0.1206 0.28246 0.0
C787 C 0.17147 0.12574 0.27657 0.0
C788 C 0.17972 0.18453 0.27347 0.0
C789 C 0.23405 0.23814 0.27759 0.0
C790 C 0.42166 0.21436 0.29902 0.0
O791 O 0.43744 0.17311 0.29549 0.0
H792 H 0.35318 0.11066 0.3166 0.0
H793 H 0.26894 0.10339 0.33116 0.0
H794 H 0.24372 0.18953 0.33169 0.0
H795 H 0.28792 0.37629 0.2933 0.0
H796 H 0.38955 0.57282 0.3005 0.0
H797 H 0.44312 0.45317 0.31969 0.0
H798 H 0.53119 0.28492 0.24497 0.0
H799 H 0.37932 0.20265 0.27139 0.0
H800 H 0.5544 0.35134 0.28436 0.0
H801 H 0.45281 0.44438 0.26129 0.0
H802 H 0.55683 0.52418 0.26983 0.0
H803 H 0.59217 0.51045 0.29171 0.0
H804 H 0.40812 0.34455 0.33312 0.0
H805 H 0.43573 0.20816 0.35343 0.0
H806 H 0.53592 0.29261 0.31815 0.0
H807 H 0.31158 0.16665 0.28866 0.0
H808 H 0.12933 0.0836 0.27391 0.0
H809 H 0.23996 0.28355 0.27544 0.0
C810 C 0.16756 0.37977 0.4755 0.0
C811 C 0.18964 0.34877 0.48331 0.0
C812 C 0.14716 0.30234 0.49188 0.0
C813 C 0.08434 0.28802 0.49252 0.0
C814 C 0.06557 0.32082 0.48439 0.0
N815 N 0.10748 0.36276 0.47629 0.0
C816 C 0.00585 0.32068 0.48418 0.0
C817 C 0.9523 0.37269 0.47453 0.0
C818 C 0.9023 0.33037 0.4669 0.0
C819 C 0.8507 0.33816 0.46512 0.0
C820 C 0.84882 0.38806 0.47096 0.0
C821 C 0.89847 0.43016 0.47862 0.0
C822 C 0.95008 0.42247 0.48043 0.0
Cd823 Cd 0.92899 0.28251 0.51411 0.0
Cd824 Cd 0.02904 0.24845 0.53315 0.0
C825 C 0.17792 0.46883 0.44565 0.0
C826 C 0.21526 0.55556 0.43038 0.0
C827 C 0.2125 0.51484 0.42052 0.0
C828 C 0.19249 0.45207 0.42295 0.0
C829 C 0.17599 0.42966 0.43562 0.0
C830 C 0.19603 0.53102 0.44296 0.0
Co831 Co 0.08317 0.40934 0.46674 0.0
N832 N 0.04669 0.34898 0.45255 0.0
N833 N 0.0595 0.45732 0.45743 0.0
C834 C 0.03275 0.43494 0.44602 0.0
C835 C 0.01846 0.47216 0.43815 0.0
C836 C 0.03374 0.5319 0.44276 0.0
C837 C 0.06326 0.55339 0.45491 0.0
C838 C 0.07624 0.5136 0.4622 0.0
N839 N 0.11662 0.47772 0.47915 0.0
N840 N 0.00539 0.36521 0.47628 0.0
N841 N 0.16441 0.44585 0.45872 0.0
O842 O 0.9662 0.25149 0.55055 0.0
O843 O 0.89895 0.25698 0.53728 0.0
C844 C 0.86441 0.35218 0.51119 0.0
O845 O 0.92247 0.37867 0.51329 0.0
O846 O 0.83633 0.29332 0.50999 0.0
C847 C 0.9093 0.13308 0.51449 0.0
O848 O 0.88564 0.16768 0.51217 0.0
O849 O 0.96161 0.15461 0.52024 0.0
C850 C 0.02516 0.37334 0.44323 0.0
O851 O 0.00389 0.34601 0.43198 0.0
O852 O 0.04009 0.34305 0.51738 0.0
O853 O 0.1201 0.34727 0.52679 0.0
C854 C 0.10914 0.52548 0.47467 0.0
O855 O 0.12902 0.57767 0.48114 0.0
C856 C 0.14693 0.47963 0.49109 0.0
C857 C 0.11116 0.44203 0.5012 0.0
C858 C 0.13867 0.42788 0.51152 0.0
C859 C 0.20401 0.4605 0.51269 0.0
C860 C 0.24099 0.50388 0.5031 0.0
C861 C 0.21193 0.51174 0.49209 0.0
C862 C 0.91467 0.2495 0.54862 0.0
O863 O 0.95507 0.27852 0.49085 0.0
C864 C 0.09814 0.37266 0.51952 0.0
C865 C 0.04049 0.28796 0.45127 0.0
C866 C 0.09166 0.27898 0.45296 0.0
C867 C 0.08708 0.22168 0.45047 0.0
C868 C 0.03197 0.17266 0.44578 0.0
C869 C 0.98105 0.18112 0.44322 0.0
C870 C 0.98469 0.23787 0.44654 0.0
C871 C 0.20033 0.42706 0.46531 0.0
O872 O 0.25635 0.44166 0.46134 0.0
H873 H 0.23763 0.35976 0.48283 0.0
H874 H 0.16306 0.27797 0.49812 0.0
H875 H 0.0524 0.25397 0.49936 0.0
H876 H 0.90342 0.29169 0.4623 0.0
H877 H 0.80888 0.39403 0.46959 0.0
H878 H 0.98793 0.45499 0.48649 0.0
H879 H 0.23095 0.53255 0.411 0.0
H880 H 0.16213 0.38187 0.43771 0.0
H881 H 0.19756 0.56023 0.45088 0.0
H882 H -0.00297 0.45618 0.42875 0.0
H883 H 0.02347 0.56179 0.43686 0.0
H884 H 0.07607 0.5995 0.45834 0.0
H885 H 0.06113 0.41915 0.5003 0.0
H886 H 0.22609 0.45055 0.52068 0.0
H887 H 0.23964 0.54138 0.48418 0.0
H888 H 0.13676 0.31643 0.45525 0.0
H889 H 0.03081 0.12959 0.44336 0.0
H890 H 0.9449 0.24395 0.44488 0.0
C891 C 0.78742 0.17848 0.64319 0.0
C892 C 0.83967 0.19959 0.65117 0.0
C893 C 0.84311 0.15598 0.65952 0.0
C894 C 0.79486 0.09305 0.65981 0.0
C895 C 0.74412 0.0753 0.65153 0.0
N896 N 0.74472 0.11819 0.64358 0.0
C897 C 0.68465 0.0158 0.65108 0.0
C898 C 0.58021 0.96372 0.64104 0.0
C899 C 0.57234 0.91615 0.63257 0.0
C900 C 0.51296 0.86575 0.6303 0.0
C901 C 0.4614 0.86268 0.6365 0.0
C902 C 0.46918 0.90989 0.645 0.0
C903 C 0.52847 0.96026 0.64731 0.0
Cd904 Cd 0.64674 0.93472 0.68092 0.0
Cd905 Cd 0.77432 0.03008 0.69929 0.0
C906 C 0.71133 0.19285 0.61335 0.0
C907 C 0.66098 0.22914 0.59808 0.0
C908 C 0.70106 0.22954 0.58833 0.0
C909 C 0.74524 0.21133 0.5908 0.0
C910 C 0.75051 0.19374 0.60343 0.0
C911 C 0.66598 0.20922 0.61061 0.0
Co912 Co 0.67458 0.09528 0.63392 0.0
N913 N 0.69917 0.06045 0.61944 0.0
N914 N 0.60353 0.07297 0.62455 0.0
C915 C 0.59986 0.048 0.61296 0.0
C916 C 0.54883 0.03478 0.60507 0.0
C917 C 0.50397 0.04912 0.60987 0.0
C918 C 0.51116 0.07671 0.62221 0.0
C919 C 0.56352 0.08873 0.62951 0.0
N920 N 0.6389 0.12724 0.64654 0.0
N921 N 0.64056 0.01629 0.64306 0.0
N922 N 0.71962 0.17767 0.62636 0.0
O923 O 0.71065 0.96535 0.71665 0.0
O924 O 0.6418 0.89458 0.70334 0.0
C925 C 0.51277 0.87402 0.67902 0.0
O926 O 0.54441 0.92063 0.68627 0.0
O927 O 0.54326 0.85534 0.67226 0.0
C928 C 0.77583 0.91461 0.68097 0.0
O929 O 0.71721 0.88967 0.67916 0.0
O930 O 0.80662 0.96812 0.68623 0.0
C931 C 0.654 0.04098 0.61 0.0
O932 O 0.66121 0.023 0.59845 0.0
O933 O 0.69441 0.04594 0.68405 0.0
O934 O 0.77019 0.12412 0.69391 0.0
C935 C 0.58375 0.11994 0.64213 0.0
O936 O 0.55111 0.139 0.64877 0.0
C937 C 0.66668 0.15642 0.65857 0.0
C938 C 0.66761 0.11954 0.66856 0.0
C939 C 0.70938 0.14573 0.67888 0.0
C940 C 0.74307 0.21102 0.68021 0.0
C941 C 0.73738 0.24914 0.67077 0.0
C942 C 0.7003 0.22134 0.65975 0.0
C943 C 0.6645 0.9115 0.71469 0.0
O944 O 0.67553 0.96429 0.6576 0.0
C945 C 0.72334 0.10372 0.68656 0.0
C946 C 0.75432 0.05496 0.61779 0.0
C947 C 0.81403 0.10573 0.61996 0.0
C948 C 0.86707 0.10301 0.61673 0.0
C949 C 0.86178 0.05052 0.61071 0.0
C950 C 0.80294 0.00046 0.60765 0.0
C951 C 0.74956 0.00128 0.61195 0.0
C952 C 0.77359 0.21269 0.63318 0.0
O953 O 0.81508 0.26925 0.62954 0.0
H954 H 0.8764 0.2477 0.65099 0.0
H955 H 0.88271 0.1711 0.66589 0.0
H956 H 0.79647 0.06026 0.66652 0.0
H957 H 0.61195 0.91834 0.62766 0.0
H958 H 0.41548 0.82366 0.63475 0.0
H959 H 0.53398 -0.00358 0.65395 0.0
H960 H 0.70192 0.2489 0.5789 0.0
H961 H 0.78529 0.18106 0.60557 0.0
H962 H 0.63685 0.20879 0.61843 0.0
H963 H 0.544 0.01482 0.59552 0.0
H964 H 0.46416 0.03964 0.60396 0.0
H965 H 0.47758 0.08887 0.62579 0.0
H966 H 0.63992 0.06958 0.66748 0.0
H967 H 0.77535 0.23213 0.68817 0.0
H968 H 0.69908 0.24995 0.65193 0.0
H969 H 0.82125 0.1497 0.62311 0.0
H970 H 0.90376 0.05037 0.6079 0.0
H971 H 0.70413 0.96209 0.60981 0.0
C972 C 0.36685 0.71493 0.08267 0.0
C973 C 0.3555 0.72606 0.09551 0.0
H974 H 0.36185 0.64731 0.06938 0.0
C975 C 0.3634 0.69138 0.10538 0.0
H976 H 0.36892 0.7448 0.0748 0.0
C977 C 0.36642 0.63816 0.10224 0.0
C978 C 0.35605 0.61616 0.08937 0.0
H979 H 0.36006 0.70014 0.11551 0.0
H980 H 0.36815 0.61022 0.11013 0.0
C981 C 0.36442 0.65899 0.07953 0.0
C982 C 0.71907 0.37566 0.2683 0.0
C983 C 0.73067 0.36525 0.25542 0.0
H984 H 0.65004 0.36776 0.28158 0.0
C985 C 0.69636 0.3741 0.2456 0.0
H986 H 0.7487 0.37729 0.27616 0.0
C987 C 0.64236 0.37552 0.24876 0.0
C988 C 0.61987 0.36342 0.26159 0.0
H989 H 0.70552 0.37173 0.23545 0.0
H990 H 0.61397 0.37666 0.24091 0.0
C991 C 0.6625 0.37182 0.27145 0.0
C992 C 0.26163 0.64688 0.415 0.0
C993 C 0.24985 0.62432 0.42784 0.0
H994 H 0.32978 0.70909 0.40179 0.0
C995 C 0.28438 0.66652 0.43773 0.0
H996 H 0.23197 0.6195 0.40709 0.0
C997 C 0.33785 0.72234 0.43466 0.0
C998 C 0.36028 0.73398 0.42181 0.0
H999 H 0.27519 0.65444 0.44786 0.0
H1000 H 0.36547 0.75174 0.44257 0.0
C1001 C 0.31778 0.69994 0.41192 0.0
C1002 C 0.61137 0.34787 0.6022 0.0
C1003 C 0.62194 0.37005 0.58933 0.0
H1004 H 0.61881 0.28648 0.61549 0.0
C1005 C 0.61434 0.32752 0.57949 0.0
H1006 H 0.60914 0.37558 0.61006 0.0
C1007 C 0.61286 0.27203 0.58265 0.0
C1008 C 0.62431 0.2612 0.5955 0.0
H1009 H 0.61711 0.33934 0.56934 0.0
H1010 H 0.61195 0.24266 0.57479 0.0
C1011 C 0.61531 0.29515 0.60535 0.0
C1012 C 0.28817 0.61905 0.74599 0.0
C1013 C 0.25373 0.62693 0.7559 0.0
H1014 H 0.36927 0.61457 0.74114 0.0
C1015 C 0.26523 0.61563 0.76872 0.0
H1016 H 0.27911 0.62223 0.73587 0.0
C1017 C 0.32129 0.61827 0.77179 0.0
C1018 C 0.36386 0.62678 0.7619 0.0
H1019 H 0.23555 0.61342 0.77663 0.0
H1020 H 0.33321 0.62087 0.78193 0.0
C1021 C 0.34152 0.61623 0.74906 0.0
C1022 C 0.71962 0.33442 0.91619 0.0
C1023 C 0.73005 0.3574 0.92898 0.0
H1024 H 0.65277 0.27117 0.90292 0.0
C1025 C 0.69555 0.31528 0.93889 0.0
H1026 H 0.74928 0.36234 0.90832 0.0
C1027 C 0.64277 0.25884 0.93579 0.0
C1028 C 0.62097 0.24691 0.92289 0.0
H1029 H 0.70392 0.32808 0.949 0.0
H1030 H 0.61466 0.22966 0.94368 0.0
C1031 C 0.66419 0.2806 0.91307 0.0
C1032 C 0.17627 0.96147 0.00963 0.0
C1033 C 0.11109 0.92866 0.01092 0.0
H1034 H 0.25856 0.05002 1.00647 0.0
C1035 C 0.07909 0.96207 0.00997 0.0
H1036 H 0.20249 0.93736 0.01044 0.0
C1037 C 0.11101 0.02619 1.00766 0.0
C1038 C 0.1761 0.05925 1.00642 0.0
H1039 H 0.02899 0.93857 0.01094 0.0
H1040 H 0.08444 0.04995 1.00686 0.0
C1041 C 0.20848 0.02617 1.00751 0.0
C1042 C 0.10367 0.07228 0.17775 0.0
C1043 C 0.16896 0.10366 0.17835 0.0
H1044 H 0.02159 0.07867 0.17482 0.0
C1045 C 0.20161 0.16868 0.17663 0.0
H1046 H 0.07694 0.02232 0.17906 0.0
C1047 C 0.16958 0.2014 0.17447 0.0
C1048 C 0.10425 0.16968 0.17373 0.0
H1049 H 0.25187 0.19444 0.17717 0.0
H1050 H 0.19603 0.25135 0.17313 0.0
C1051 C 0.07186 0.1047 0.17536 0.0
C1052 C 0.01835 0.20929 0.3425 0.0
C1053 C 0.05183 0.17739 0.34378 0.0
H1054 H 0.92932 0.20233 0.33939 0.0
C1055 C 0.01915 0.11211 0.34285 0.0
H1056 H 0.0419 0.2595 0.3433 0.0
C1057 C 0.95509 0.07958 0.34058 0.0
C1058 C 0.92135 0.11114 0.33936 0.0
H1059 H 0.04319 0.08587 0.34382 0.0
H1060 H 0.9319 0.02936 0.3398 0.0
C1061 C 0.9537 0.17647 0.34042 0.0
C1062 C 0.77619 0.96895 0.50754 0.0
C1063 C 0.80768 0.93492 0.50671 0.0
H1064 H 0.78351 0.05837 0.51031 0.0
C1065 C 0.87266 0.96701 0.50823 0.0
H1066 H 0.72625 0.94587 0.50629 0.0
C1067 C 0.90529 0.03111 0.5106 0.0
C1068 C 0.87413 0.06541 0.5113 0.0
H1069 H 0.89854 0.94248 0.50764 0.0
H1070 H 0.95523 0.0539 0.51182 0.0
C1071 C 0.80911 0.03357 0.50969 0.0
C1072 C 0.90626 0.87997 0.67425 0.0
C1073 C 0.87445 0.81474 0.67318 0.0
H1074 H 0.9004 0.96221 0.67748 0.0
C1075 C 0.80926 0.7824 0.67443 0.0
H1076 H 0.95637 0.9065 0.67332 0.0
C1077 C 0.77682 0.81469 0.67658 0.0
C1078 C 0.80893 0.87996 0.67776 0.0
H1079 H 0.78319 0.73221 0.67354 0.0
H1080 H 0.72672 0.78843 0.67755 0.0
C1081 C 0.87406 0.91202 0.6766 0.0
C1082 C 0.95496 0.87319 0.84488 0.0
C1083 C 0.92138 0.80784 0.84547 0.0
H1084 H 0.04303 0.95541 0.84206 0.0
C1085 C 0.95395 0.7752 0.84384 0.0
H1086 H 0.93159 0.89993 0.84612 0.0
C1087 C 0.01858 0.80731 0.84177 0.0
C1088 C 0.05187 0.87273 0.84105 0.0
H1089 H 0.92969 0.72488 0.84437 0.0
H1090 H 0.04223 0.78088 0.84049 0.0
C1091 C 0.01906 0.90509 0.84259 0.0
C1092 C 0.44932 0.26855 0.94632 0.0
C1093 C 0.41815 0.22164 0.93696 0.0
H1094 H 0.44237 0.3124 0.96361 0.0
C1095 C 0.35287 0.18583 0.93755 0.0
H1096 H 0.4992 0.29893 0.94595 0.0
C1097 C 0.32007 0.19559 0.94747 0.0
C1098 C 0.35199 0.24037 0.95712 0.0
H1099 H 0.32721 0.14917 0.93058 0.0
H1100 H 0.26998 0.16651 0.94787 0.0
C1101 C 0.41678 0.27698 0.95639 0.0
C1102 C 0.17944 0.38177 0.12762 0.0
C1103 C 0.11562 0.34303 0.12537 0.0
H1104 H 0.26899 0.44143 0.11946 0.0
C1105 C 0.09364 0.33309 0.11253 0.0
H1106 H 0.19805 0.38944 0.13737 0.0
C1107 C 0.13426 0.36388 0.10223 0.0
C1108 C 0.19784 0.40465 0.10455 0.0
H1109 H 0.04468 0.30323 0.11048 0.0
H1110 H 0.11528 0.3577 0.09255 0.0
C1111 C 0.22009 0.41163 0.11734 0.0
C1112 C 0.79403 0.1596 0.27045 0.0
C1113 C 0.75796 0.18899 0.26982 0.0
H1114 H 0.81384 0.09635 0.28085 0.0
C1115 C 0.71117 0.17355 0.2792 0.0
H1116 H 0.8306 0.17037 0.26346 0.0
C1117 C 0.70308 0.1329 0.28932 0.0
C1118 C 0.7399 0.10474 0.29008 0.0
H1119 H 0.6806 0.19299 0.2788 0.0
H1120 H 0.66771 0.12325 0.29655 0.0
C1121 C 0.7846 0.11735 0.28042 0.0
C1122 C 0.6135 0.76631 0.43522 0.0
C1123 C 0.57192 0.78853 0.43735 0.0
H1124 H 0.6753 0.73917 0.44373 0.0
C1125 C 0.56467 0.8047 0.45004 0.0
H1126 H 0.61996 0.7529 0.42562 0.0
C1127 C 0.59512 0.79536 0.46043 0.0
C1128 C 0.63468 0.77083 0.45838 0.0
H1129 H 0.53426 0.82343 0.452 0.0
H1130 H 0.58721 0.80692 0.47011 0.0
C1131 C 0.64485 0.75792 0.44563 0.0
C1132 C 0.8449 0.62103 0.60224 0.0
C1133 C 0.7812 0.58083 0.60456 0.0
H1134 H 0.93469 0.68096 0.61046 0.0
C1135 C 0.75903 0.57411 0.61736 0.0
H1136 H 0.86381 0.62698 0.59255 0.0
C1137 C 0.79983 0.60371 0.62763 0.0
C1138 C 0.86374 0.64189 0.62536 0.0
H1139 H 0.71007 0.54474 0.61948 0.0
H1140 H 0.78125 0.59627 0.63738 0.0
C1141 C 0.88567 0.65154 0.61252 0.0
C1142 C 0.22925 0.88736 0.78 0.0
C1143 C 0.21677 0.86427 0.79275 0.0
H1144 H 0.23403 0.86772 0.75997 0.0
C1145 C 0.19294 0.80036 0.7948 0.0
H1146 H 0.24747 0.93641 0.7781 0.0
C1147 C 0.18366 0.76072 0.78439 0.0
C1148 C 0.19928 0.78414 0.77168 0.0
H1149 H 0.18173 0.7809 0.80448 0.0
H1150 H 0.16532 0.7117 0.78635 0.0
C1151 C 0.22099 0.84781 0.76958 0.0
C1152 C 0.75212 0.60738 0.91593 0.0
C1153 C 0.77395 0.56583 0.91328 0.0
H1154 H 0.72346 0.66947 0.90818 0.0
C1155 C 0.78592 0.55751 0.90032 0.0
H1156 H 0.74162 0.61448 0.92575 0.0
C1157 C 0.77381 0.58763 0.89025 0.0
C1158 C 0.75069 0.62796 0.89288 0.0
H1159 H 0.8041 0.52706 0.89791 0.0
H1160 H 0.78289 0.57947 0.88039 0.0
C1161 C 0.74106 0.63845 0.90584 0.0
C1162 C 0.22093 0.79587 0.0672 0.0
C1163 C 0.1976 0.77973 0.0799 0.0
H1164 H 0.20063 0.79814 0.04713 0.0
C1165 C 0.13392 0.75743 0.08202 0.0
H1166 H 0.26996 0.81464 0.06523 0.0
C1167 C 0.09425 0.74905 0.07162 0.0
C1168 C 0.11729 0.76203 0.05887 0.0
H1169 H 0.11413 0.74403 0.09163 0.0
H1170 H 0.04518 0.73035 0.07352 0.0
C1171 C 0.18121 0.78652 0.05681 0.0
C1172 C 0.41979 0.21792 0.2333 0.0
C1173 C 0.41192 0.19771 0.24627 0.0
H1174 H 0.39737 0.193 0.21339 0.0
C1175 C 0.37057 0.13451 0.24896 0.0
H1176 H 0.44998 0.26642 0.23086 0.0
C1177 C 0.33932 0.09248 0.2389 0.0
C1178 C 0.34942 0.11253 0.22593 0.0
H1179 H 0.36374 0.11695 0.25878 0.0
H1180 H 0.30845 0.044 0.24126 0.0
C1181 C 0.38953 0.1758 0.22326 0.0
C1182 C 0.1797 0.42009 0.39955 0.0
C1183 C 0.19492 0.41261 0.41232 0.0
H1184 H 0.17936 0.39821 0.3795 0.0
C1185 C 0.21758 0.37144 0.41457 0.0
H1186 H 0.1608 0.45028 0.39749 0.0
C1187 C 0.22726 0.34069 0.40423 0.0
C1188 C 0.2152 0.35102 0.39142 0.0
H1189 H 0.23034 0.3649 0.42424 0.0
H1190 H 0.24623 0.31051 0.40624 0.0
C1191 C 0.1903 0.3902 0.38922 0.0
C1192 C 0.80792 0.21304 0.55718 0.0
C1193 C 0.87152 0.23701 0.55957 0.0
H1194 H 0.71802 0.18305 0.56516 0.0
C1195 C 0.89289 0.24809 0.57245 0.0
H1196 H 0.78974 0.20272 0.5474 0.0
C1197 C 0.8518 0.238 0.58268 0.0
C1198 C 0.78832 0.21572 0.58025 0.0
H1199 H 0.94167 0.26625 0.57459 0.0
H1200 H 0.87027 0.24975 0.59242 0.0
C1201 C 0.76679 0.20183 0.56739 0.0
C1202 C 0.56757 0.76353 0.73375 0.0
C1203 C 0.57453 0.78582 0.74654 0.0
H1204 H 0.58965 0.78563 0.71372 0.0
C1205 C 0.61502 0.84952 0.74884 0.0
H1206 H 0.53796 0.71455 0.73164 0.0
C1207 C 0.64561 0.8902 0.73854 0.0
C1208 C 0.63576 0.86819 0.72571 0.0
H1209 H 0.62116 0.86852 0.75852 0.0
H1210 H 0.67525 0.93924 0.74059 0.0
C1211 C 0.59726 0.80426 0.72346 0.0
C1212 C 0.57334 0.44557 1.008 0.0
C1213 C 0.54106 0.38044 1.00653 0.0
H1214 H 0.66191 0.52969 1.00837 0.0
C1215 C 0.57555 0.35009 1.00461 0.0
H1216 H 0.54821 0.47044 0.00948 0.0
C1217 C 0.64053 0.38413 1.0038 0.0
C1218 C 0.67275 0.44925 1.00511 0.0
H1219 H 0.55226 0.30008 1.00339 0.0
H1220 H 0.6657 0.35945 1.00211 0.0
C1221 C 0.63847 0.47953 1.00741 0.0
C1222 C 0.12982 0.56787 0.16233 0.0
C1223 C 0.1423 0.53594 0.17212 0.0
H1224 H 0.15174 0.65627 0.15419 0.0
C1225 C 0.18627 0.57095 0.18171 0.0
H1226 H 0.09647 0.54251 0.15476 0.0
C1227 C 0.21681 0.63628 0.18153 0.0
C1228 C 0.20528 0.66784 0.17155 0.0
H1229 H 0.19709 0.54787 0.18935 0.0
H1230 H 0.25068 0.66219 0.18898 0.0
C1231 C 0.16144 0.633 0.16198 0.0
C1232 C 0.4999 0.15257 0.34034 0.0
C1233 C 0.52996 0.21695 0.33795 0.0
H1234 H 0.50927 0.07143 0.34247 0.0
C1235 C 0.59496 0.24953 0.33651 0.0
H1236 H 0.44984 0.1261 0.34139 0.0
C1237 C 0.62909 0.21847 0.33731 0.0
C1238 C 0.59897 0.15381 0.33934 0.0
H1239 H 0.61946 0.29921 0.33474 0.0
H1240 H 0.67901 0.24496 0.33601 0.0
C1241 C 0.53396 0.12127 0.34091 0.0
C1242 C 0.34055 0.57976 0.51421 0.0
C1243 C 0.30994 0.53781 0.50404 0.0
H1244 H 0.42809 0.64788 0.52234 0.0
C1245 C 0.34564 0.53032 0.49441 0.0
H1246 H 0.31397 0.58656 0.52172 0.0
C1247 C 0.41067 0.56412 0.49492 0.0
C1248 C 0.44162 0.60733 0.50492 0.0
H1249 H 0.32313 0.49823 0.48647 0.0
H1250 H 0.43671 0.55725 0.48731 0.0
C1251 C 0.40577 0.61487 0.51455 0.0
C1252 C 0.8501 0.41784 0.66272 0.0
C1253 C 0.83702 0.44966 0.67241 0.0
H1254 H 0.82833 0.32955 0.65459 0.0
C1255 C 0.7924 0.41465 0.6819 0.0
H1256 H 0.88399 0.44324 0.65524 0.0
C1257 C 0.76158 0.34935 0.68167 0.0
C1258 C 0.77365 0.31795 0.67176 0.0
H1259 H 0.78111 0.43769 0.68946 0.0
H1260 H 0.72703 0.32336 0.68901 0.0
C1261 C 0.81829 0.35278 0.66233 0.0
C1262 C 0.45769 0.8162 0.82866 0.0
C1263 C 0.44996 0.77262 0.83823 0.0
H1264 H 0.43106 0.88096 0.82165 0.0
C1265 C 0.40792 0.76128 0.8484 0.0
H1266 H 0.48987 0.82581 0.82073 0.0
C1267 C 0.37296 0.79175 0.84878 0.0
C1268 C 0.38071 0.8355 0.8392 0.0
H1269 H 0.40095 0.72764 0.85586 0.0
H1270 H 0.3399 0.78108 0.85657 0.0
C1271 C 0.42404 0.84779 0.82922 0.0
C1272 C 0.62927 0.40784 0.8451 0.0
C1273 C 0.59879 0.44263 0.84394 0.0
H1274 H 0.61994 0.31732 0.84705 0.0
C1275 C 0.53345 0.41065 0.84318 0.0
H1276 H 0.67946 0.43094 0.84576 0.0
C1277 C 0.49942 0.34545 0.84373 0.0
C1278 C 0.52993 0.31091 0.84531 0.0
H1279 H 0.50855 0.43606 0.84229 0.0
H1280 H 0.44915 0.32213 0.84333 0.0
C1281 C 0.59521 0.3428 0.8459 0.0
C1282 C 0.19243 0.60894 1.00266 0.0
C1283 C 0.14813 0.60018 0.01216 0.0
H1284 H 0.25704 0.58176 0.99556 0.0
C1285 C 0.13525 0.55589 0.02198 0.0
H1286 H 0.20357 0.6428 0.995 0.0
C1287 C 0.16681 0.52223 0.02245 0.0
C1288 C 0.21096 0.531 0.01296 0.0
H1289 H 0.10162 0.54809 0.02949 0.0
H1290 H 0.15681 0.48929 0.03026 0.0
C1291 C 0.22291 0.57401 1.00295 0.0
C1292 C 0.63177 0.14426 0.17653 0.0
C1293 C 0.66568 0.20921 0.17805 0.0
H1294 H 0.54165 0.0626 0.17521 0.0
C1295 C 0.63321 0.24221 0.17865 0.0
H1296 H 0.65556 0.11761 0.17612 0.0
C1297 C 0.56822 0.21098 0.17792 0.0
C1298 C 0.53403 0.14582 0.17684 0.0
H1299 H 0.65821 0.29233 0.17976 0.0
H1300 H 0.54469 0.23781 0.17859 0.0
C1301 C 0.56659 0.11283 0.17606 0.0
C1302 C 0.3726 0.57847 0.33518 0.0
C1303 C 0.38044 0.54267 0.3448 0.0
H1304 H 0.40068 0.67029 0.32798 0.0
C1305 C 0.42402 0.57372 0.35473 0.0
H1306 H 0.33932 0.55606 0.32744 0.0
C1307 C 0.45786 0.63881 0.35519 0.0
C1308 C 0.45002 0.67444 0.34558 0.0
H1309 H 0.43111 0.54771 0.36233 0.0
H1310 H 0.49021 0.66143 0.36308 0.0
C1311 C 0.40773 0.64374 0.33547 0.0
C1312 C 0.7346 0.39117 0.51332 0.0
C1313 C 0.76729 0.45643 0.51241 0.0
H1314 H 0.7393 0.30706 0.51335 0.0
C1315 C 0.83196 0.48707 0.51052 0.0
H1316 H 0.6847 0.36633 0.51472 0.0
C1317 C 0.86344 0.4532 0.50992 0.0
C1318 C 0.83077 0.38788 0.51095 0.0
H1319 H 0.8584 0.53735 0.50986 0.0
H1320 H 0.91347 0.47824 0.50875 0.0
C1321 C 0.76586 0.35724 0.51247 0.0
C1322 C 0.34335 0.7679 0.66954 0.0
C1323 C 0.31206 0.77861 0.67969 0.0
H1324 H 0.43151 0.78848 0.66151 0.0
C1325 C 0.347 0.82194 0.68933 0.0
H1326 H 0.31731 0.7344 0.66203 0.0
C1327 C 0.41201 0.8538 0.68888 0.0
C1328 C 0.44368 0.84205 0.67894 0.0
H1329 H 0.32391 0.831 0.69724 0.0
H1330 H 0.43749 0.88669 0.69652 0.0
C1331 C 0.40859 0.79871 0.66927 0.0
C1332 C 0.14364 0.01726 0.08709 0.0
C1333 C 0.18049 0.03454 0.09834 0.0
H1334 H 0.11616 0.04769 0.07022 0.0
C1335 C 0.22218 0.09774 0.10066 0.0
H1336 H 0.11248 0.96871 0.08484 0.0
C1337 C 0.22458 0.143 0.09221 0.0
C1338 C 0.18555 0.12567 0.08127 0.0
H1339 H 0.25133 0.11223 0.10922 0.0
H1340 H 0.25489 0.19159 0.09456 0.0
C1341 C 0.14611 0.06234 0.07865 0.0
C1342 C 0.0688 0.15214 0.24563 0.0
C1343 C 0.04442 0.19114 0.24848 0.0
H1344 H 0.13095 0.12012 0.25125 0.0
C1345 C 0.06793 0.23147 0.25919 0.0
H1346 H 0.0523 0.12134 0.23733 0.0
C1347 C 0.11291 0.23057 0.26725 0.0
C1348 C 0.13477 0.1891 0.26473 0.0
H1349 H 0.0495 0.26161 0.2617 0.0
H1350 H 0.12885 0.26055 0.27567 0.0
C1351 C 0.11346 0.15117 0.25365 0.0
C1352 C 0.90401 0.07022 0.43831 0.0
C1353 C 0.928 0.13361 0.43565 0.0
H1354 H 0.8439 0.97667 0.4322 0.0
C1355 C 0.90612 0.15114 0.42474 0.0
H1356 H 0.91942 0.05543 0.44672 0.0
C1357 C 0.86311 0.10598 0.41634 0.0
C1358 C 0.84163 0.0427 0.41869 0.0
H1359 H 0.92443 0.19977 0.42237 0.0
H1360 H 0.84839 0.12059 0.40779 0.0
C1361 C 0.86127 0.02527 0.42992 0.0
C1362 C 0.7534 0.84312 0.59255 0.0
C1363 C 0.79257 0.86036 0.58164 0.0
H1364 H 0.7266 0.87404 0.60952 0.0
C1365 C 0.83214 0.92369 0.57901 0.0
H1366 H 0.72296 0.79454 0.5949 0.0
C1367 C 0.83469 0.96882 0.58742 0.0
C1368 C 0.79775 0.95163 0.59865 0.0
H1369 H 0.86217 0.9383 0.57058 0.0
H1370 H 0.866 0.01735 0.58517 0.0
C1371 C 0.75585 0.88845 0.60098 0.0
C1372 C 0.88206 0.76108 0.75018 0.0
C1373 C 0.94521 0.80263 0.75255 0.0
H1374 H 0.78827 0.72862 0.7562 0.0
C1375 C 0.9624 0.83948 0.7638 0.0
H1376 H 0.86763 0.73193 0.74162 0.0
C1377 C 0.91734 0.83716 0.77218 0.0
C1378 C 0.85408 0.79787 0.76952 0.0
H1379 H 0.0109 0.8705 0.76609 0.0
H1380 H 0.93194 0.8671 0.78063 0.0
C1381 C 0.8368 0.75883 0.75858 0.0
C1382 C 0.07784 0.83637 0.9255 0.0
C1383 C 0.05426 0.85203 0.93639 0.0
H1384 H 0.13814 0.8698 0.90895 0.0
C1385 C 0.07821 0.91497 0.93951 0.0
H1386 H 0.05973 0.78817 0.92279 0.0
C1387 C 0.1224 0.96135 0.93156 0.0
C1388 C 0.14362 0.94588 0.9203 0.0
H1389 H 0.06158 0.92836 0.94794 0.0
H1390 H 0.1395 0.00954 0.93416 0.0
C1391 C 0.1223 0.88297 0.91753 0.0
loop_
_geom_bond_atom_site_label_1
_geom_bond_atom_site_label_2
_geom_bond_distance
_geom_bond_site_symmetry_2
_ccdc_geom_bond_type
C0 C1 1.359 . S
C0 N5 1.330 . S
C0 C61 1.504 . S
C1 C0 1.359 . S
C1 C2 1.366 . S
C1 H63 0.929 . S
C2 C1 1.366 . S
C2 C3 1.415 . S
C2 H64 0.932 . S
C3 C2 1.415 . S
C3 C4 1.366 . S
C3 H65 0.931 . S
C4 C3 1.366 . S
C4 N5 1.325 . S
C4 C6 1.516 . S
N5 C0 1.330 . S
N5 C4 1.325 . S
N5 Co21 1.869 . S
C6 C4 1.516 . S
C6 N30 1.316 . S
C6 O53 1.263 . S
C7 C8 1.421 . S
C7 C12 1.360 . S
C7 N30 1.436 . S
C8 C7 1.421 . S
C8 C9 1.379 . S
C8 H66 0.929 . S
C9 C8 1.379 . S
C9 C10 1.417 . S
C10 C9 1.417 . S
C10 C11 1.352 . S
C10 H67 0.929 . S
C11 C10 1.352 . S
C11 C12 1.393 . S
C12 C7 1.360 . S
C12 C11 1.393 . S
C12 H68 0.931 . S
Cd13 O33 2.329 1_554 S
Cd13 O35 2.350 . S
Cd13 O36 2.277 . S
Cd13 O38 2.173 . S
Cd13 O42 2.263 1_554 S
Cd13 O53 2.366 . S
Cd14 O32 2.352 . S
Cd14 O39 2.250 . S
Cd14 O43 2.308 . S
C15 C19 1.403 . S
C15 C20 1.370 . S
C15 N31 1.423 . S
C16 C17 1.389 . S
C16 C20 1.389 . S
C17 C16 1.389 . S
C17 C18 1.379 . S
C17 H69 0.929 . S
C18 C17 1.379 . S
C18 C19 1.405 . S
C19 C15 1.403 . S
C19 C18 1.405 . S
C19 H70 0.932 . S
C20 C15 1.370 . S
C20 C16 1.389 . S
C20 H71 0.931 . S
Co21 N5 1.869 . S
Co21 N22 1.955 . S
Co21 N23 1.864 . S
Co21 N29 1.958 . S
Co21 N30 1.953 . S
Co21 N31 1.974 . S
N22 Co21 1.955 . S
N22 C40 1.329 . S
N22 C55 1.432 . S
N23 Co21 1.864 . S
N23 C24 1.327 . S
N23 C28 1.342 . S
C24 N23 1.327 . S
C24 C25 1.407 . S
C24 C40 1.481 . S
C25 C24 1.407 . S
C25 C26 1.364 . S
C25 H72 0.930 . S
C26 C25 1.364 . S
C26 C27 1.390 . S
C26 H73 0.931 . S
C27 C26 1.390 . S
C27 C28 1.346 . S
C27 H74 0.930 . S
C28 N23 1.342 . S
C28 C27 1.346 . S
C28 C44 1.516 . S
N29 Co21 1.958 . S
N29 C44 1.324 . S
N29 C46 1.427 . S
N30 C6 1.316 . S
N30 C7 1.436 . S
N30 Co21 1.953 . S
N31 C15 1.423 . S
N31 Co21 1.974 . S
N31 C61 1.309 . S
O32 Cd14 2.352 . S
O32 C52 1.235 . S
O33 Cd13 2.329 1_556 S
O33 C52 1.270 . S
C34 O35 1.270 . S
C34 O36 1.248 . S
O35 Cd13 2.350 . S
O35 C34 1.270 . S
O36 Cd13 2.277 . S
O36 C34 1.248 . S
C37 O38 1.279 . S
C37 O39 1.226 1_554 S
O38 Cd13 2.173 . S
O38 C37 1.279 . S
O39 Cd14 2.250 . S
O39 C37 1.226 1_556 S
C40 N22 1.329 . S
C40 C24 1.481 . S
C40 O41 1.246 . S
O41 C40 1.246 . S
O42 Cd13 2.263 1_556 S
O42 C54 1.258 . S
O43 Cd14 2.308 . S
O43 C54 1.274 . S
C44 C28 1.516 . S
C44 N29 1.324 . S
C44 O45 1.238 . S
O45 C44 1.238 . S
C46 N29 1.427 . S
C46 C47 1.394 . S
C46 C51 1.395 . S
C47 C46 1.394 . S
C47 C48 1.380 . S
C47 H75 0.929 . S
C48 C47 1.380 . S
C48 C49 1.384 . S
C48 C54 1.495 1_554 S
C49 C48 1.384 . S
C49 C50 1.382 . S
C49 H76 0.930 1_554 S
C50 C49 1.382 . S
C50 C51 1.398 . S
C51 C46 1.395 . S
C51 C50 1.398 . S
C51 H77 0.930 . S
C52 O32 1.235 . S
C52 O33 1.270 . S
O53 C6 1.263 . S
O53 Cd13 2.366 . S
C54 O42 1.258 . S
C54 O43 1.274 . S
C54 C48 1.495 1_556 S
C55 N22 1.432 . S
C55 C56 1.381 . S
C55 C60 1.385 . S
C56 C55 1.381 . S
C56 C57 1.371 . S
C56 H78 0.932 . S
C57 C56 1.371 . S
C57 C58 1.400 . S
C58 C57 1.400 . S
C58 C59 1.351 . S
C58 H79 0.930 . S
C59 C58 1.351 . S
C59 C60 1.388 . S
C60 C55 1.385 . S
C60 C59 1.388 . S
C60 H80 0.929 . S
C61 C0 1.504 . S
C61 N31 1.309 . S
C61 O62 1.258 . S
O62 C61 1.258 . S
H63 C1 0.929 . S
H64 C2 0.932 . S
H65 C3 0.931 . S
H66 C8 0.929 . S
H67 C10 0.929 . S
H68 C12 0.931 . S
H69 C17 0.929 . S
H70 C19 0.932 . S
H71 C20 0.931 . S
H72 C25 0.930 . S
H73 C26 0.931 . S
H74 C27 0.930 . S
H75 C47 0.929 . S
H76 C49 0.930 1_556 S
H77 C51 0.930 . S
H78 C56 0.932 . S
H79 C58 0.930 . S
H80 C60 0.929 . S
C81 C82 1.359 . S
C81 N86 1.330 . S
C81 C142 1.504 . S
C82 C81 1.359 . S
C82 C83 1.366 . S
C82 H144 0.929 . S
C83 C82 1.366 . S
C83 C84 1.415 1_655 S
C83 H145 0.932 1_655 S
C84 C83 1.415 1_455 S
C84 C85 1.366 . S
C84 H146 0.931 . S
C85 C84 1.366 . S
C85 N86 1.325 1_455 S
C85 C87 1.516 . S
N86 C81 1.330 . S
N86 C85 1.325 1_655 S
N86 Co102 1.869 . S
C87 C85 1.516 . S
C87 N111 1.316 . S
C87 O134 1.263 . S
C88 C89 1.421 . S
C88 C93 1.360 . S
C88 N111 1.436 . S
C89 C88 1.421 . S
C89 C90 1.379 . S
C89 H147 0.929 . S
C90 C89 1.379 . S
C90 C91 1.417 . S
C91 C90 1.417 . S
C91 C92 1.352 . S
C91 H148 0.929 . S
C92 C91 1.352 . S
C92 C93 1.393 . S
C93 C88 1.360 . S
C93 C92 1.393 . S
C93 H149 0.931 1_455 S
Cd94 O114 2.329 . S
Cd94 O116 2.350 . S
Cd94 O117 2.277 . S
Cd94 O119 2.173 . S
Cd94 O123 2.263 . S
Cd94 O134 2.366 . S
Cd95 O113 2.352 . S
Cd95 O120 2.250 . S
Cd95 O124 2.308 1_455 S
C96 C100 1.403 . S
C96 C101 1.370 . S
C96 N112 1.423 . S
C97 C98 1.389 . S
C97 C101 1.389 . S
C98 C97 1.389 . S
C98 C99 1.379 . S
C98 H150 0.929 . S
C99 C98 1.379 . S
C99 C100 1.405 . S
C100 C96 1.403 . S
C100 C99 1.405 . S
C100 H151 0.932 . S
C101 C96 1.370 . S
C101 C97 1.389 . S
C101 H152 0.931 . S
Co102 N86 1.869 . S
Co102 N103 1.955 1_655 S
Co102 N104 1.864 . S
Co102 N110 1.958 . S
Co102 N111 1.953 1_655 S
Co102 N112 1.974 . S
N103 Co102 1.955 1_455 S
N103 C121 1.329 . S
N103 C136 1.432 . S
N104 Co102 1.864 . S
N104 C105 1.327 . S
N104 C109 1.342 . S
C105 N104 1.327 . S
C105 C106 1.407 . S
C105 C121 1.481 1_655 S
C106 C105 1.407 . S
C106 C107 1.364 . S
C106 H153 0.930 . S
C107 C106 1.364 . S
C107 C108 1.390 . S
C107 H154 0.931 . S
C108 C107 1.390 . S
C108 C109 1.346 . S
C108 H155 0.930 . S
C109 N104 1.342 . S
C109 C108 1.346 . S
C109 C125 1.516 . S
N110 Co102 1.958 . S
N110 C125 1.324 . S
N110 C127 1.427 . S
N111 C87 1.316 . S
N111 C88 1.436 . S
N111 Co102 1.953 1_455 S
N112 C96 1.423 . S
N112 Co102 1.974 . S
N112 C142 1.309 . S
O113 Cd95 2.352 . S
O113 C133 1.235 . S
O114 Cd94 2.329 . S
O114 C133 1.270 . S
C115 O116 1.270 . S
C115 O117 1.248 . S
O116 Cd94 2.350 . S
O116 C115 1.270 . S
O117 Cd94 2.277 . S
O117 C115 1.248 . S
C118 O119 1.277 . S
C118 O120 1.230 . S
O119 Cd94 2.173 . S
O119 C118 1.277 . S
O120 Cd95 2.250 . S
O120 C118 1.230 . S
C121 N103 1.329 . S
C121 C105 1.481 1_455 S
C121 O122 1.246 . S
O122 C121 1.246 . S
O123 Cd94 2.263 . S
O123 C135 1.258 1_455 S
O124 Cd95 2.308 1_655 S
O124 C135 1.274 . S
C125 C109 1.516 . S
C125 N110 1.324 . S
C125 O126 1.238 . S
O126 C125 1.238 . S
C127 N110 1.427 . S
C127 C128 1.394 . S
C127 C132 1.395 . S
C128 C127 1.394 . S
C128 C129 1.380 . S
C128 H156 0.929 . S
C129 C128 1.380 . S
C129 C130 1.384 . S
C129 C135 1.495 . S
C130 C129 1.384 . S
C130 C131 1.382 . S
C130 H157 0.930 . S
C131 C130 1.382 . S
C131 C132 1.398 . S
C132 C127 1.395 . S
C132 C131 1.398 . S
C132 H158 0.930 . S
C133 O113 1.235 . S
C133 O114 1.270 . S
O134 C87 1.263 . S
O134 Cd94 2.366 . S
C135 O123 1.258 1_655 S
C135 O124 1.274 . S
C135 C129 1.495 . S
C136 N103 1.432 . S
C136 C137 1.381 . S
C136 C141 1.385 . S
C137 C136 1.381 . S
C137 C138 1.371 . S
C137 H159 0.932 1_455 S
C138 C137 1.371 . S
C138 C139 1.400 . S
C139 C138 1.400 . S
C139 C140 1.351 . S
C139 H160 0.930 . S
C140 C139 1.351 . S
C140 C141 1.388 . S
C141 C136 1.385 . S
C141 C140 1.388 . S
C141 H161 0.929 . S
C142 C81 1.504 . S
C142 N112 1.309 . S
C142 O143 1.258 . S
O143 C142 1.258 . S
H144 C82 0.929 . S
H145 C83 0.932 1_455 S
H146 C84 0.931 . S
H147 C89 0.929 . S
H148 C91 0.929 . S
H149 C93 0.931 1_655 S
H150 C98 0.929 . S
H151 C100 0.932 . S
H152 C101 0.931 . S
H153 C106 0.930 . S
H154 C107 0.931 . S
H155 C108 0.930 . S
H156 C128 0.929 . S
H157 C130 0.930 . S
H158 C132 0.930 . S
H159 C137 0.932 1_655 S
H160 C139 0.930 . S
H161 C141 0.929 . S
C162 C163 1.359 . S
C162 N167 1.330 . S
C162 C223 1.504 . S
C163 C162 1.359 . S
C163 C164 1.366 . S
C163 H225 0.929 . S
C164 C163 1.366 . S
C164 C165 1.415 1_565 S
C164 H226 0.932 1_565 S
C165 C164 1.415 1_545 S
C165 C166 1.366 . S
C165 H227 0.931 . S
C166 C165 1.366 . S
C166 N167 1.325 1_545 S
C166 C168 1.516 . S
N167 C162 1.330 . S
N167 C166 1.325 1_565 S
N167 Co183 1.869 . S
C168 C166 1.516 . S
C168 N192 1.316 . S
C168 O215 1.263 . S
C169 C170 1.421 . S
C169 C174 1.360 . S
C169 N192 1.436 . S
C170 C169 1.421 . S
C170 C171 1.379 . S
C170 H228 0.929 . S
C171 C170 1.379 . S
C171 C172 1.417 . S
C172 C171 1.417 . S
C172 C173 1.352 . S
C172 H229 0.929 . S
C173 C172 1.352 . S
C173 C174 1.393 . S
C174 C169 1.360 . S
C174 C173 1.393 . S
C174 H230 0.931 1_545 S
Cd175 O195 2.329 . S
Cd175 O197 2.350 . S
Cd175 O198 2.277 . S
Cd175 O200 2.173 . S
Cd175 O204 2.263 . S
Cd175 O215 2.366 . S
Cd176 O194 2.352 . S
Cd176 O201 2.250 . S
Cd176 O205 2.308 1_545 S
C177 C181 1.403 . S
C177 C182 1.370 . S
C177 N193 1.423 . S
C178 C179 1.389 . S
C178 C182 1.389 . S
C179 C178 1.389 . S
C179 C180 1.379 . S
C179 H231 0.929 . S
C180 C179 1.379 . S
C180 C181 1.405 . S
C181 C177 1.403 . S
C181 C180 1.405 . S
C181 H232 0.932 . S
C182 C177 1.370 . S
C182 C178 1.389 . S
C182 H233 0.931 . S
Co183 N167 1.869 . S
Co183 N184 1.955 1_565 S
Co183 N185 1.864 . S
Co183 N191 1.958 . S
Co183 N192 1.953 1_565 S
Co183 N193 1.974 . S
N184 Co183 1.955 1_545 S
N184 C202 1.329 . S
N184 C217 1.432 . S
N185 Co183 1.864 . S
N185 C186 1.327 . S
N185 C190 1.342 . S
C186 N185 1.327 . S
C186 C187 1.407 . S
C186 C202 1.481 1_565 S
C187 C186 1.407 . S
C187 C188 1.364 . S
C187 H234 0.930 . S
C188 C187 1.364 . S
C188 C189 1.390 . S
C188 H235 0.931 . S
C189 C188 1.390 . S
C189 C190 1.346 . S
C189 H236 0.930 . S
C190 N185 1.342 . S
C190 C189 1.346 . S
C190 C206 1.516 . S
N191 Co183 1.958 . S
N191 C206 1.324 . S
N191 C208 1.427 . S
N192 C168 1.316 . S
N192 C169 1.436 . S
N192 Co183 1.953 1_545 S
N193 C177 1.423 . S
N193 Co183 1.974 . S
N193 C223 1.309 . S
O194 Cd176 2.352 . S
O194 C214 1.235 . S
O195 Cd175 2.329 . S
O195 C214 1.270 . S
C196 O197 1.270 . S
C196 O198 1.248 . S
O197 Cd175 2.350 . S
O197 C196 1.270 . S
O198 Cd175 2.277 . S
O198 C196 1.248 . S
C199 O200 1.277 . S
C199 O201 1.230 . S
O200 Cd175 2.173 . S
O200 C199 1.277 . S
O201 Cd176 2.250 . S
O201 C199 1.230 . S
C202 N184 1.329 . S
C202 C186 1.481 1_545 S
C202 O203 1.246 . S
O203 C202 1.246 . S
O204 Cd175 2.263 . S
O204 C216 1.258 1_545 S
O205 Cd176 2.308 1_565 S
O205 C216 1.274 . S
C206 C190 1.516 . S
C206 N191 1.324 . S
C206 O207 1.238 . S
O207 C206 1.238 . S
C208 N191 1.427 . S
C208 C209 1.394 . S
C208 C213 1.395 . S
C209 C208 1.394 . S
C209 C210 1.380 . S
C209 H237 0.929 . S
C210 C209 1.380 . S
C210 C211 1.384 . S
C210 C216 1.495 . S
C211 C210 1.384 . S
C211 C212 1.382 . S
C211 H238 0.930 . S
C212 C211 1.382 . S
C212 C213 1.398 . S
C213 C208 1.395 . S
C213 C212 1.398 . S
C213 H239 0.930 . S
C214 O194 1.235 . S
C214 O195 1.270 . S
O215 C168 1.263 . S
O215 Cd175 2.366 . S
C216 O204 1.258 1_565 S
C216 O205 1.274 . S
C216 C210 1.495 . S
C217 N184 1.432 . S
C217 C218 1.381 . S
C217 C222 1.385 . S
C218 C217 1.381 . S
C218 C219 1.371 . S
C218 H240 0.932 1_545 S
C219 C218 1.371 . S
C219 C220 1.400 . S
C220 C219 1.400 . S
C220 C221 1.351 . S
C220 H241 0.930 . S
C221 C220 1.351 . S
C221 C222 1.388 . S
C222 C217 1.385 . S
C222 C221 1.388 . S
C222 H242 0.929 . S
C223 C162 1.504 . S
C223 N193 1.309 . S
C223 O224 1.258 . S
O224 C223 1.258 . S
H225 C163 0.929 . S
H226 C164 0.932 1_545 S
H227 C165 0.931 . S
H228 C170 0.929 . S
H229 C172 0.929 . S
H230 C174 0.931 1_565 S
H231 C179 0.929 . S
H232 C181 0.932 . S
H233 C182 0.931 . S
H234 C187 0.930 . S
H235 C188 0.931 . S
H236 C189 0.930 . S
H237 C209 0.929 . S
H238 C211 0.930 . S
H239 C213 0.930 . S
H240 C218 0.932 1_565 S
H241 C220 0.930 . S
H242 C222 0.929 . S
C243 C244 1.359 . S
C243 N248 1.330 . S
C243 C304 1.504 . S
C244 C243 1.359 . S
C244 C245 1.366 . S
C244 H306 0.929 . S
C245 C244 1.366 . S
C245 C246 1.415 . S
C245 H307 0.932 . S
C246 C245 1.415 . S
C246 C247 1.366 . S
C246 H308 0.931 . S
C247 C246 1.366 . S
C247 N248 1.325 . S
C247 C249 1.516 . S
N248 C243 1.330 . S
N248 C247 1.325 . S
N248 Co264 1.869 . S
C249 C247 1.516 . S
C249 N273 1.316 . S
C249 O296 1.263 . S
C250 C251 1.421 . S
C250 C255 1.360 . S
C250 N273 1.436 . S
C251 C250 1.421 . S
C251 C252 1.379 . S
C251 H309 0.929 . S
C252 C251 1.379 . S
C252 C253 1.417 . S
C253 C252 1.417 . S
C253 C254 1.352 . S
C253 H310 0.929 . S
C254 C253 1.352 . S
C254 C255 1.393 . S
C255 C250 1.360 . S
C255 C254 1.393 . S
C255 H311 0.931 . S
Cd256 O276 2.329 . S
Cd256 O278 2.350 . S
Cd256 O279 2.277 . S
Cd256 O281 2.173 . S
Cd256 O285 2.263 . S
Cd256 O296 2.366 . S
Cd257 O275 2.352 . S
Cd257 O282 2.250 . S
Cd257 O286 2.308 . S
C258 C262 1.403 . S
C258 C263 1.370 . S
C258 N274 1.423 . S
C259 C260 1.389 . S
C259 C263 1.389 . S
C260 C259 1.389 . S
C260 C261 1.379 . S
C260 H312 0.929 . S
C261 C260 1.379 . S
C261 C262 1.405 . S
C262 C258 1.403 . S
C262 C261 1.405 . S
C262 H313 0.932 . S
C263 C258 1.370 . S
C263 C259 1.389 . S
C263 H314 0.931 . S
Co264 N248 1.869 . S
Co264 N265 1.955 . S
Co264 N266 1.864 . S
Co264 N272 1.958 . S
Co264 N273 1.953 . S
Co264 N274 1.974 . S
N265 Co264 1.955 . S
N265 C283 1.329 . S
N265 C298 1.432 . S
N266 Co264 1.864 . S
N266 C267 1.327 . S
N266 C271 1.342 . S
C267 N266 1.327 . S
C267 C268 1.407 . S
C267 C283 1.481 . S
C268 C267 1.407 . S
C268 C269 1.364 . S
C268 H315 0.930 . S
C269 C268 1.364 . S
C269 C270 1.390 . S
C269 H316 0.931 . S
C270 C269 1.390 . S
C270 C271 1.346 . S
C270 H317 0.930 . S
C271 N266 1.342 . S
C271 C270 1.346 . S
C271 C287 1.516 . S
N272 Co264 1.958 . S
N272 C287 1.324 . S
N272 C289 1.427 . S
N273 C249 1.316 . S
N273 C250 1.436 . S
N273 Co264 1.953 . S
N274 C258 1.423 . S
N274 Co264 1.974 . S
N274 C304 1.309 . S
O275 Cd257 2.352 . S
O275 C295 1.235 . S
O276 Cd256 2.329 . S
O276 C295 1.270 . S
C277 O278 1.270 . S
C277 O279 1.248 . S
O278 Cd256 2.350 . S
O278 C277 1.270 . S
O279 Cd256 2.277 . S
O279 C277 1.248 . S
C280 O281 1.277 . S
C280 O282 1.230 . S
O281 Cd256 2.173 . S
O281 C280 1.277 . S
O282 Cd257 2.250 . S
O282 C280 1.230 . S
C283 N265 1.329 . S
C283 C267 1.481 . S
C283 O284 1.246 . S
O284 C283 1.246 . S
O285 Cd256 2.263 . S
O285 C297 1.258 . S
O286 Cd257 2.308 . S
O286 C297 1.274 . S
C287 C271 1.516 . S
C287 N272 1.324 . S
C287 O288 1.238 . S
O288 C287 1.238 . S
C289 N272 1.427 . S
C289 C290 1.394 . S
C289 C294 1.395 . S
C290 C289 1.394 . S
C290 C291 1.380 . S
C290 H318 0.929 . S
C291 C290 1.380 . S
C291 C292 1.384 . S
C291 C297 1.495 . S
C292 C291 1.384 . S
C292 C293 1.382 . S
C292 H319 0.930 . S
C293 C292 1.382 . S
C293 C294 1.398 . S
C294 C289 1.395 . S
C294 C293 1.398 . S
C294 H320 0.930 . S
C295 O275 1.235 . S
C295 O276 1.270 . S
O296 C249 1.263 . S
O296 Cd256 2.366 . S
C297 O285 1.258 . S
C297 O286 1.274 . S
C297 C291 1.495 . S
C298 N265 1.432 . S
C298 C299 1.381 . S
C298 C303 1.385 . S
C299 C298 1.381 . S
C299 C300 1.371 . S
C299 H321 0.932 . S
C300 C299 1.371 . S
C300 C301 1.400 . S
C301 C300 1.400 . S
C301 C302 1.351 . S
C301 H322 0.930 . S
C302 C301 1.351 . S
C302 C303 1.388 . S
C303 C298 1.385 . S
C303 C302 1.388 . S
C303 H323 0.929 . S
C304 C243 1.504 . S
C304 N274 1.309 . S
C304 O305 1.258 . S
O305 C304 1.258 . S
H306 C244 0.929 . S
H307 C245 0.932 . S
H308 C246 0.931 . S
H309 C251 0.929 . S
H310 C253 0.929 . S
H311 C255 0.931 . S
H312 C260 0.929 . S
H313 C262 0.932 . S
H314 C263 0.931 . S
H315 C268 0.930 . S
H316 C269 0.931 . S
H317 C270 0.930 . S
H318 C290 0.929 . S
H319 C292 0.930 . S
H320 C294 0.930 . S
H321 C299 0.932 . S
H322 C301 0.930 . S
H323 C303 0.929 . S
C324 C325 1.359 . S
C324 N329 1.330 . S
C324 C385 1.504 . S
C325 C324 1.359 . S
C325 C326 1.366 . S
C325 H387 0.929 . S
C326 C325 1.366 . S
C326 C327 1.415 1_455 S
C326 H388 0.932 1_455 S
C327 C326 1.415 1_655 S
C327 C328 1.366 . S
C327 H389 0.931 . S
C328 C327 1.366 . S
C328 N329 1.325 1_655 S
C328 C330 1.516 . S
N329 C324 1.330 . S
N329 C328 1.325 1_455 S
N329 Co345 1.869 . S
C330 C328 1.516 . S
C330 N354 1.316 . S
C330 O377 1.263 . S
C331 C332 1.421 . S
C331 C336 1.360 . S
C331 N354 1.436 . S
C332 C331 1.421 . S
C332 C333 1.379 . S
C332 H390 0.929 . S
C333 C332 1.379 . S
C333 C334 1.417 . S
C334 C333 1.417 . S
C334 C335 1.352 . S
C334 H391 0.929 . S
C335 C334 1.352 . S
C335 C336 1.393 . S
C336 C331 1.360 . S
C336 C335 1.393 . S
C336 H392 0.931 1_655 S
Cd337 O357 2.329 . S
Cd337 O359 2.350 . S
Cd337 O360 2.277 . S
Cd337 O362 2.173 . S
Cd337 O366 2.263 . S
Cd337 O377 2.366 . S
Cd338 O356 2.352 . S
Cd338 O363 2.250 . S
Cd338 O367 2.308 1_655 S
C339 C343 1.403 . S
C339 C344 1.370 . S
C339 N355 1.423 . S
C340 C341 1.389 . S
C340 C344 1.389 . S
C341 C340 1.389 . S
C341 C342 1.379 . S
C341 H393 0.929 . S
C342 C341 1.379 . S
C342 C343 1.405 . S
C343 C339 1.403 . S
C343 C342 1.405 . S
C343 H394 0.932 . S
C344 C339 1.370 . S
C344 C340 1.389 . S
C344 H395 0.931 . S
Co345 N329 1.869 . S
Co345 N346 1.955 1_455 S
Co345 N347 1.864 . S
Co345 N353 1.958 . S
Co345 N354 1.953 1_455 S
Co345 N355 1.974 . S
N346 Co345 1.955 1_655 S
N346 C364 1.329 . S
N346 C379 1.432 . S
N347 Co345 1.864 . S
N347 C348 1.327 . S
N347 C352 1.342 . S
C348 N347 1.327 . S
C348 C349 1.407 . S
C348 C364 1.481 1_455 S
C349 C348 1.407 . S
C349 C350 1.364 . S
C349 H396 0.930 . S
C350 C349 1.364 . S
C350 C351 1.390 . S
C350 H397 0.931 . S
C351 C350 1.390 . S
C351 C352 1.346 . S
C351 H398 0.930 . S
C352 N347 1.342 . S
C352 C351 1.346 . S
C352 C368 1.516 . S
N353 Co345 1.958 . S
N353 C368 1.324 . S
N353 C370 1.427 . S
N354 C330 1.316 . S
N354 C331 1.436 . S
N354 Co345 1.953 1_655 S
N355 C339 1.423 . S
N355 Co345 1.974 . S
N355 C385 1.309 . S
O356 Cd338 2.352 . S
O356 C376 1.235 . S
O357 Cd337 2.329 . S
O357 C376 1.270 . S
C358 O359 1.270 . S
C358 O360 1.248 . S
O359 Cd337 2.350 . S
O359 C358 1.270 . S
O360 Cd337 2.277 . S
O360 C358 1.248 . S
C361 O362 1.277 . S
C361 O363 1.230 . S
O362 Cd337 2.173 . S
O362 C361 1.277 . S
O363 Cd338 2.250 . S
O363 C361 1.230 . S
C364 N346 1.329 . S
C364 C348 1.481 1_655 S
C364 O365 1.246 . S
O365 C364 1.246 . S
O366 Cd337 2.263 . S
O366 C378 1.258 1_655 S
O367 Cd338 2.308 1_455 S
O367 C378 1.274 . S
C368 C352 1.516 . S
C368 N353 1.324 . S
C368 O369 1.238 . S
O369 C368 1.238 . S
C370 N353 1.427 . S
C370 C371 1.394 . S
C370 C375 1.395 . S
C371 C370 1.394 . S
C371 C372 1.380 . S
C371 H399 0.929 . S
C372 C371 1.380 . S
C372 C373 1.384 . S
C372 C378 1.495 . S
C373 C372 1.384 . S
C373 C374 1.382 . S
C373 H400 0.930 . S
C374 C373 1.382 . S
C374 C375 1.398 . S
C375 C370 1.395 . S
C375 C374 1.398 . S
C375 H401 0.930 . S
C376 O356 1.235 . S
C376 O357 1.270 . S
O377 C330 1.263 . S
O377 Cd337 2.366 . S
C378 O366 1.258 1_455 S
C378 O367 1.274 . S
C378 C372 1.495 . S
C379 N346 1.432 . S
C379 C380 1.381 . S
C379 C384 1.385 . S
C380 C379 1.381 . S
C380 C381 1.371 . S
C380 H402 0.932 1_655 S
C381 C380 1.371 . S
C381 C382 1.400 . S
C382 C381 1.400 . S
C382 C383 1.351 . S
C382 H403 0.930 . S
C383 C382 1.351 . S
C383 C384 1.388 . S
C384 C379 1.385 . S
C384 C383 1.388 . S
C384 H404 0.929 . S
C385 C324 1.504 . S
C385 N355 1.309 . S
C385 O386 1.258 . S
O386 C385 1.258 . S
H387 C325 0.929 . S
H388 C326 0.932 1_655 S
H389 C327 0.931 . S
H390 C332 0.929 . S
H391 C334 0.929 . S
H392 C336 0.931 1_455 S
H393 C341 0.929 . S
H394 C343 0.932 . S
H395 C344 0.931 . S
H396 C349 0.930 . S
H397 C350 0.931 . S
H398 C351 0.930 . S
H399 C371 0.929 . S
H400 C373 0.930 . S
H401 C375 0.930 . S
H402 C380 0.932 1_455 S
H403 C382 0.930 . S
H404 C384 0.929 . S
C405 C406 1.359 . S
C405 N410 1.330 . S
C405 C466 1.504 . S
C406 C405 1.359 . S
C406 C407 1.366 . S
C406 H468 0.929 . S
C407 C406 1.366 . S
C407 C408 1.415 1_545 S
C407 H469 0.932 1_545 S
C408 C407 1.415 1_565 S
C408 C409 1.366 . S
C408 H470 0.931 . S
C409 C408 1.366 . S
C409 N410 1.325 1_565 S
C409 C411 1.516 . S
N410 C405 1.330 . S
N410 C409 1.325 1_545 S
N410 Co426 1.869 . S
C411 C409 1.516 . S
C411 N435 1.316 . S
C411 O458 1.263 . S
C412 C413 1.421 . S
C412 C417 1.360 . S
C412 N435 1.436 . S
C413 C412 1.421 . S
C413 C414 1.379 . S
C413 H471 0.929 . S
C414 C413 1.379 . S
C414 C415 1.417 . S
C415 C414 1.417 . S
C415 C416 1.352 . S
C415 H472 0.929 . S
C416 C415 1.352 . S
C416 C417 1.393 . S
C417 C412 1.360 . S
C417 C416 1.393 . S
C417 H473 0.931 1_565 S
Cd418 O438 2.329 . S
Cd418 O440 2.350 . S
Cd418 O441 2.277 . S
Cd418 O443 2.173 . S
Cd418 O447 2.263 . S
Cd418 O458 2.366 . S
Cd419 O437 2.352 . S
Cd419 O444 2.250 . S
Cd419 O448 2.308 1_565 S
C420 C424 1.403 . S
C420 C425 1.370 . S
C420 N436 1.423 . S
C421 C422 1.389 . S
C421 C425 1.389 . S
C422 C421 1.389 . S
C422 C423 1.379 . S
C422 H474 0.929 . S
C423 C422 1.379 . S
C423 C424 1.405 . S
C424 C420 1.403 . S
C424 C423 1.405 . S
C424 H475 0.932 . S
C425 C420 1.370 . S
C425 C421 1.389 . S
C425 H476 0.931 . S
Co426 N410 1.869 . S
Co426 N427 1.955 1_545 S
Co426 N428 1.864 . S
Co426 N434 1.958 . S
Co426 N435 1.953 1_545 S
Co426 N436 1.974 . S
N427 Co426 1.955 1_565 S
N427 C445 1.329 . S
N427 C460 1.432 . S
N428 Co426 1.864 . S
N428 C429 1.327 . S
N428 C433 1.342 . S
C429 N428 1.327 . S
C429 C430 1.407 . S
C429 C445 1.481 1_545 S
C430 C429 1.407 . S
C430 C431 1.364 . S
C430 H477 0.930 . S
C431 C430 1.364 . S
C431 C432 1.390 . S
C431 H478 0.931 . S
C432 C431 1.390 . S
C432 C433 1.346 . S
C432 H479 0.930 . S
C433 N428 1.342 . S
C433 C432 1.346 . S
C433 C449 1.516 . S
N434 Co426 1.958 . S
N434 C449 1.324 . S
N434 C451 1.427 . S
N435 C411 1.316 . S
N435 C412 1.436 . S
N435 Co426 1.953 1_565 S
N436 C420 1.423 . S
N436 Co426 1.974 . S
N436 C466 1.309 . S
O437 Cd419 2.352 . S
O437 C457 1.235 . S
O438 Cd418 2.329 . S
O438 C457 1.270 . S
C439 O440 1.270 . S
C439 O441 1.248 . S
O440 Cd418 2.350 . S
O440 C439 1.270 . S
O441 Cd418 2.277 . S
O441 C439 1.248 . S
C442 O443 1.277 . S
C442 O444 1.230 . S
O443 Cd418 2.173 . S
O443 C442 1.277 . S
O444 Cd419 2.250 . S
O444 C442 1.230 . S
C445 N427 1.329 . S
C445 C429 1.481 1_565 S
C445 O446 1.246 . S
O446 C445 1.246 . S
O447 Cd418 2.263 . S
O447 C459 1.258 1_565 S
O448 Cd419 2.308 1_545 S
O448 C459 1.274 . S
C449 C433 1.516 . S
C449 N434 1.324 . S
C449 O450 1.238 . S
O450 C449 1.238 . S
C451 N434 1.427 . S
C451 C452 1.394 . S
C451 C456 1.395 . S
C452 C451 1.394 . S
C452 C453 1.380 . S
C452 H480 0.929 . S
C453 C452 1.380 . S
C453 C454 1.384 . S
C453 C459 1.495 . S
C454 C453 1.384 . S
C454 C455 1.382 . S
C454 H481 0.930 . S
C455 C454 1.382 . S
C455 C456 1.398 . S
C456 C451 1.395 . S
C456 C455 1.398 . S
C456 H482 0.930 . S
C457 O437 1.235 . S
C457 O438 1.270 . S
O458 C411 1.263 . S
O458 Cd418 2.366 . S
C459 O447 1.258 1_545 S
C459 O448 1.274 . S
C459 C453 1.495 . S
C460 N427 1.432 . S
C460 C461 1.381 . S
C460 C465 1.385 . S
C461 C460 1.381 . S
C461 C462 1.371 . S
C461 H483 0.932 1_565 S
C462 C461 1.371 . S
C462 C463 1.400 . S
C463 C462 1.400 . S
C463 C464 1.351 . S
C463 H484 0.930 . S
C464 C463 1.351 . S
C464 C465 1.388 . S
C465 C460 1.385 . S
C465 C464 1.388 . S
C465 H485 0.929 . S
C466 C405 1.504 . S
C466 N436 1.309 . S
C466 O467 1.258 . S
O467 C466 1.258 . S
H468 C406 0.929 . S
H469 C407 0.932 1_565 S
H470 C408 0.931 . S
H471 C413 0.929 . S
H472 C415 0.929 . S
H473 C417 0.931 1_545 S
H474 C422 0.929 . S
H475 C424 0.932 . S
H476 C425 0.931 . S
H477 C430 0.930 . S
H478 C431 0.931 . S
H479 C432 0.930 . S
H480 C452 0.929 . S
H481 C454 0.930 . S
H482 C456 0.930 . S
H483 C461 0.932 1_545 S
H484 C463 0.930 . S
H485 C465 0.929 . S
C486 C487 1.359 . S
C486 N491 1.330 . S
C486 C547 1.504 . S
C487 C486 1.359 . S
C487 C488 1.366 . S
C487 H549 0.929 . S
C488 C487 1.366 . S
C488 C489 1.415 . S
C488 H550 0.932 . S
C489 C488 1.415 . S
C489 C490 1.366 . S
C489 H551 0.931 . S
C490 C489 1.366 . S
C490 N491 1.325 . S
C490 C492 1.516 . S
N491 C486 1.330 . S
N491 C490 1.325 . S
N491 Co507 1.869 . S
C492 C490 1.516 . S
C492 N516 1.316 . S
C492 O539 1.263 . S
C493 C494 1.421 . S
C493 C498 1.360 . S
C493 N516 1.436 . S
C494 C493 1.421 . S
C494 C495 1.379 . S
C494 H552 0.929 . S
C495 C494 1.379 . S
C495 C496 1.417 . S
C496 C495 1.417 . S
C496 C497 1.352 . S
C496 H553 0.929 . S
C497 C496 1.352 . S
C497 C498 1.393 . S
C498 C493 1.360 . S
C498 C497 1.393 . S
C498 H554 0.931 . S
Cd499 O519 2.329 . S
Cd499 O521 2.350 . S
Cd499 O522 2.277 . S
Cd499 O524 2.173 . S
Cd499 O528 2.263 . S
Cd499 O539 2.366 . S
Cd500 O518 2.352 . S
Cd500 O525 2.250 . S
Cd500 O529 2.308 . S
C501 C505 1.403 . S
C501 C506 1.370 . S
C501 N517 1.423 . S
C502 C503 1.389 . S
C502 C506 1.389 . S
C503 C502 1.389 . S
C503 C504 1.379 . S
C503 H555 0.929 . S
C504 C503 1.379 . S
C504 C505 1.405 . S
C505 C501 1.403 . S
C505 C504 1.405 . S
C505 H556 0.932 . S
C506 C501 1.370 . S
C506 C502 1.389 . S
C506 H557 0.931 . S
Co507 N491 1.869 . S
Co507 N508 1.955 . S
Co507 N509 1.864 . S
Co507 N515 1.958 . S
Co507 N516 1.953 . S
Co507 N517 1.974 . S
N508 Co507 1.955 . S
N508 C526 1.329 . S
N508 C541 1.432 . S
N509 Co507 1.864 . S
N509 C510 1.327 . S
N509 C514 1.342 . S
C510 N509 1.327 . S
C510 C511 1.407 . S
C510 C526 1.481 . S
C511 C510 1.407 . S
C511 C512 1.364 . S
C511 H558 0.930 . S
C512 C511 1.364 . S
C512 C513 1.390 . S
C512 H559 0.931 . S
C513 C512 1.390 . S
C513 C514 1.346 . S
C513 H560 0.930 . S
C514 N509 1.342 . S
C514 C513 1.346 . S
C514 C530 1.516 . S
N515 Co507 1.958 . S
N515 C530 1.324 . S
N515 C532 1.427 . S
N516 C492 1.316 . S
N516 C493 1.436 . S
N516 Co507 1.953 . S
N517 C501 1.423 . S
N517 Co507 1.974 . S
N517 C547 1.309 . S
O518 Cd500 2.352 . S
O518 C538 1.235 . S
O519 Cd499 2.329 . S
O519 C538 1.270 . S
C520 O521 1.270 . S
C520 O522 1.248 . S
O521 Cd499 2.350 . S
O521 C520 1.270 . S
O522 Cd499 2.277 . S
O522 C520 1.248 . S
C523 O524 1.277 . S
C523 O525 1.230 . S
O524 Cd499 2.173 . S
O524 C523 1.277 . S
O525 Cd500 2.250 . S
O525 C523 1.230 . S
C526 N508 1.329 . S
C526 C510 1.481 . S
C526 O527 1.246 . S
O527 C526 1.246 . S
O528 Cd499 2.263 . S
O528 C540 1.258 . S
O529 Cd500 2.308 . S
O529 C540 1.274 . S
C530 C514 1.516 . S
C530 N515 1.324 . S
C530 O531 1.238 . S
O531 C530 1.238 . S
C532 N515 1.427 . S
C532 C533 1.394 . S
C532 C537 1.395 . S
C533 C532 1.394 . S
C533 C534 1.380 . S
C533 H561 0.929 . S
C534 C533 1.380 . S
C534 C535 1.384 . S
C534 C540 1.495 . S
C535 C534 1.384 . S
C535 C536 1.382 . S
C535 H562 0.930 . S
C536 C535 1.382 . S
C536 C537 1.398 . S
C537 C532 1.395 . S
C537 C536 1.398 . S
C537 H563 0.930 . S
C538 O518 1.235 . S
C538 O519 1.270 . S
O539 C492 1.263 . S
O539 Cd499 2.366 . S
C540 O528 1.258 . S
C540 O529 1.274 . S
C540 C534 1.495 . S
C541 N508 1.432 . S
C541 C542 1.381 . S
C541 C546 1.385 . S
C542 C541 1.381 . S
C542 C543 1.371 . S
C542 H564 0.932 . S
C543 C542 1.371 . S
C543 C544 1.400 . S
C544 C543 1.400 . S
C544 C545 1.351 . S
C544 H565 0.930 . S
C545 C544 1.351 . S
C545 C546 1.388 . S
C546 C541 1.385 . S
C546 C545 1.388 . S
C546 H566 0.929 . S
C547 C486 1.504 . S
C547 N517 1.309 . S
C547 O548 1.258 . S
O548 C547 1.258 . S
H549 C487 0.929 . S
H550 C488 0.932 . S
H551 C489 0.931 . S
H552 C494 0.929 . S
H553 C496 0.929 . S
H554 C498 0.931 . S
H555 C503 0.929 . S
H556 C505 0.932 . S
H557 C506 0.931 . S
H558 C511 0.930 . S
H559 C512 0.931 . S
H560 C513 0.930 . S
H561 C533 0.929 . S
H562 C535 0.930 . S
H563 C537 0.930 . S
H564 C542 0.932 . S
H565 C544 0.930 . S
H566 C546 0.929 . S
C567 C568 1.359 . S
C567 N572 1.330 . S
C567 C628 1.504 . S
C568 C567 1.359 . S
C568 C569 1.366 . S
C568 H630 0.929 . S
C569 C568 1.366 . S
C569 C570 1.415 1_655 S
C569 H631 0.932 1_655 S
C570 C569 1.415 1_455 S
C570 C571 1.366 . S
C570 H632 0.931 . S
C571 C570 1.366 . S
C571 N572 1.325 1_455 S
C571 C573 1.516 . S
N572 C567 1.330 . S
N572 C571 1.325 1_655 S
N572 Co588 1.869 . S
C573 C571 1.516 . S
C573 N597 1.316 . S
C573 O620 1.263 . S
C574 C575 1.421 . S
C574 C579 1.360 . S
C574 N597 1.436 . S
C575 C574 1.421 . S
C575 C576 1.379 . S
C575 H633 0.929 . S
C576 C575 1.379 . S
C576 C577 1.417 . S
C577 C576 1.417 . S
C577 C578 1.352 . S
C577 H634 0.929 . S
C578 C577 1.352 . S
C578 C579 1.393 . S
C579 C574 1.360 . S
C579 C578 1.393 . S
C579 H635 0.931 1_455 S
Cd580 O600 2.329 1_556 S
Cd580 O602 2.350 . S
Cd580 O603 2.277 . S
Cd580 O605 2.173 . S
Cd580 O609 2.263 1_556 S
Cd580 O620 2.366 . S
Cd581 O599 2.352 . S
Cd581 O606 2.250 . S
Cd581 O610 2.308 1_455 S
C582 C586 1.403 . S
C582 C587 1.370 . S
C582 N598 1.423 . S
C583 C584 1.389 . S
C583 C587 1.389 . S
C584 C583 1.389 . S
C584 C585 1.379 . S
C584 H636 0.929 . S
C585 C584 1.379 . S
C585 C586 1.405 . S
C586 C582 1.403 . S
C586 C585 1.405 . S
C586 H637 0.932 . S
C587 C582 1.370 . S
C587 C583 1.389 . S
C587 H638 0.931 . S
Co588 N572 1.869 . S
Co588 N589 1.955 1_655 S
Co588 N590 1.864 . S
Co588 N596 1.958 . S
Co588 N597 1.953 1_655 S
Co588 N598 1.974 . S
N589 Co588 1.955 1_455 S
N589 C607 1.329 . S
N589 C622 1.432 . S
N590 Co588 1.864 . S
N590 C591 1.327 . S
N590 C595 1.342 . S
C591 N590 1.327 . S
C591 C592 1.407 . S
C591 C607 1.481 1_655 S
C592 C591 1.407 . S
C592 C593 1.364 . S
C592 H639 0.930 . S
C593 C592 1.364 . S
C593 C594 1.390 . S
C593 H640 0.931 . S
C594 C593 1.390 . S
C594 C595 1.346 . S
C594 H641 0.930 . S
C595 N590 1.342 . S
C595 C594 1.346 . S
C595 C611 1.516 . S
N596 Co588 1.958 . S
N596 C611 1.324 . S
N596 C613 1.427 . S
N597 C573 1.316 . S
N597 C574 1.436 . S
N597 Co588 1.953 1_455 S
N598 C582 1.423 . S
N598 Co588 1.974 . S
N598 C628 1.309 . S
O599 Cd581 2.352 . S
O599 C619 1.235 . S
O600 Cd580 2.329 1_554 S
O600 C619 1.270 . S
C601 O602 1.270 . S
C601 O603 1.248 . S
O602 Cd580 2.350 . S
O602 C601 1.270 . S
O603 Cd580 2.277 . S
O603 C601 1.248 . S
C604 O605 1.277 1_554 S
C604 O606 1.230 . S
O605 Cd580 2.173 . S
O605 C604 1.277 1_556 S
O606 Cd581 2.250 . S
O606 C604 1.230 . S
C607 N589 1.329 . S
C607 C591 1.481 1_455 S
C607 O608 1.246 . S
O608 C607 1.246 . S
O609 Cd580 2.263 1_554 S
O609 C621 1.258 1_455 S
O610 Cd581 2.308 1_655 S
O610 C621 1.274 . S
C611 C595 1.516 . S
C611 N596 1.324 . S
C611 O612 1.238 . S
O612 C611 1.238 . S
C613 N596 1.427 . S
C613 C614 1.394 . S
C613 C618 1.395 . S
C614 C613 1.394 . S
C614 C615 1.380 . S
C614 H642 0.929 . S
C615 C614 1.380 . S
C615 C616 1.384 . S
C615 C621 1.495 1_556 S
C616 C615 1.384 . S
C616 C617 1.382 . S
C616 H643 0.930 1_556 S
C617 C616 1.382 . S
C617 C618 1.398 . S
C618 C613 1.395 . S
C618 C617 1.398 . S
C618 H644 0.930 . S
C619 O599 1.235 . S
C619 O600 1.270 . S
O620 C573 1.263 . S
O620 Cd580 2.366 . S
C621 O609 1.258 1_655 S
C621 O610 1.274 . S
C621 C615 1.495 1_554 S
C622 N589 1.432 . S
C622 C623 1.381 . S
C622 C627 1.385 . S
C623 C622 1.381 . S
C623 C624 1.371 . S
C623 H645 0.932 1_455 S
C624 C623 1.371 . S
C624 C625 1.400 . S
C625 C624 1.400 . S
C625 C626 1.351 . S
C625 H646 0.930 . S
C626 C625 1.351 . S
C626 C627 1.388 . S
C627 C622 1.385 . S
C627 C626 1.388 . S
C627 H647 0.929 . S
C628 C567 1.504 . S
C628 N598 1.309 . S
C628 O629 1.258 . S
O629 C628 1.258 . S
H630 C568 0.929 . S
H631 C569 0.932 1_455 S
H632 C570 0.931 . S
H633 C575 0.929 . S
H634 C577 0.929 . S
H635 C579 0.931 1_655 S
H636 C584 0.929 . S
H637 C586 0.932 . S
H638 C587 0.931 . S
H639 C592 0.930 . S
H640 C593 0.931 . S
H641 C594 0.930 . S
H642 C614 0.929 . S
H643 C616 0.930 1_554 S
H644 C618 0.930 . S
H645 C623 0.932 1_655 S
H646 C625 0.930 . S
H647 C627 0.929 . S
C648 C649 1.359 . S
C648 N653 1.330 . S
C648 C709 1.504 . S
C649 C648 1.359 . S
C649 C650 1.366 . S
C649 H711 0.929 . S
C650 C649 1.366 . S
C650 C651 1.415 1_565 S
C650 H712 0.932 1_565 S
C651 C650 1.415 1_545 S
C651 C652 1.366 . S
C651 H713 0.931 . S
C652 C651 1.366 . S
C652 N653 1.325 1_545 S
C652 C654 1.516 . S
N653 C648 1.330 . S
N653 C652 1.325 1_565 S
N653 Co669 1.869 . S
C654 C652 1.516 . S
C654 N678 1.316 . S
C654 O701 1.263 . S
C655 C656 1.421 . S
C655 C660 1.360 . S
C655 N678 1.436 . S
C656 C655 1.421 . S
C656 C657 1.379 . S
C656 H714 0.929 . S
C657 C656 1.379 . S
C657 C658 1.417 . S
C658 C657 1.417 . S
C658 C659 1.352 . S
C658 H715 0.929 . S
C659 C658 1.352 . S
C659 C660 1.393 . S
C660 C655 1.360 . S
C660 C659 1.393 . S
C660 H716 0.931 1_545 S
Cd661 O681 2.329 . S
Cd661 O683 2.350 . S
Cd661 O684 2.277 . S
Cd661 O686 2.173 . S
Cd661 O690 2.263 . S
Cd661 O701 2.366 . S
Cd662 O680 2.352 . S
Cd662 O687 2.250 . S
Cd662 O691 2.308 1_545 S
C663 C667 1.403 . S
C663 C668 1.370 . S
C663 N679 1.423 . S
C664 C665 1.389 . S
C664 C668 1.389 . S
C665 C664 1.389 . S
C665 C666 1.379 . S
C665 H717 0.929 . S
C666 C665 1.379 . S
C666 C667 1.405 . S
C667 C663 1.403 . S
C667 C666 1.405 . S
C667 H718 0.932 . S
C668 C663 1.370 . S
C668 C664 1.389 . S
C668 H719 0.931 . S
Co669 N653 1.869 . S
Co669 N670 1.955 1_565 S
Co669 N671 1.864 . S
Co669 N677 1.958 . S
Co669 N678 1.953 1_565 S
Co669 N679 1.974 . S
N670 Co669 1.955 1_545 S
N670 C688 1.329 . S
N670 C703 1.432 . S
N671 Co669 1.864 . S
N671 C672 1.327 . S
N671 C676 1.342 . S
C672 N671 1.327 . S
C672 C673 1.407 . S
C672 C688 1.481 1_565 S
C673 C672 1.407 . S
C673 C674 1.364 . S
C673 H720 0.930 . S
C674 C673 1.364 . S
C674 C675 1.390 . S
C674 H721 0.931 . S
C675 C674 1.390 . S
C675 C676 1.346 . S
C675 H722 0.930 . S
C676 N671 1.342 . S
C676 C675 1.346 . S
C676 C692 1.516 . S
N677 Co669 1.958 . S
N677 C692 1.324 . S
N677 C694 1.427 . S
N678 C654 1.316 . S
N678 C655 1.436 . S
N678 Co669 1.953 1_545 S
N679 C663 1.423 . S
N679 Co669 1.974 . S
N679 C709 1.309 . S
O680 Cd662 2.352 . S
O680 C700 1.235 . S
O681 Cd661 2.329 . S
O681 C700 1.270 . S
C682 O683 1.270 . S
C682 O684 1.248 . S
O683 Cd661 2.350 . S
O683 C682 1.270 . S
O684 Cd661 2.277 . S
O684 C682 1.248 . S
C685 O686 1.277 . S
C685 O687 1.230 . S
O686 Cd661 2.173 . S
O686 C685 1.277 . S
O687 Cd662 2.250 . S
O687 C685 1.230 . S
C688 N670 1.329 . S
C688 C672 1.481 1_545 S
C688 O689 1.246 . S
O689 C688 1.246 . S
O690 Cd661 2.263 . S
O690 C702 1.258 1_545 S
O691 Cd662 2.308 1_565 S
O691 C702 1.274 . S
C692 C676 1.516 . S
C692 N677 1.324 . S
C692 O693 1.238 . S
O693 C692 1.238 . S
C694 N677 1.427 . S
C694 C695 1.394 . S
C694 C699 1.395 . S
C695 C694 1.394 . S
C695 C696 1.380 . S
C695 H723 0.929 . S
C696 C695 1.380 . S
C696 C697 1.384 . S
C696 C702 1.495 . S
C697 C696 1.384 . S
C697 C698 1.382 . S
C697 H724 0.930 . S
C698 C697 1.382 . S
C698 C699 1.398 . S
C699 C694 1.395 . S
C699 C698 1.398 . S
C699 H725 0.930 . S
C700 O680 1.235 . S
C700 O681 1.270 . S
O701 C654 1.263 . S
O701 Cd661 2.366 . S
C702 O690 1.258 1_565 S
C702 O691 1.274 . S
C702 C696 1.495 . S
C703 N670 1.432 . S
C703 C704 1.381 . S
C703 C708 1.385 . S
C704 C703 1.381 . S
C704 C705 1.371 . S
C704 H726 0.932 1_545 S
C705 C704 1.371 . S
C705 C706 1.400 . S
C706 C705 1.400 . S
C706 C707 1.351 . S
C706 H727 0.930 . S
C707 C706 1.351 . S
C707 C708 1.388 . S
C708 C703 1.385 . S
C708 C707 1.388 . S
C708 H728 0.929 . S
C709 C648 1.504 . S
C709 N679 1.309 . S
C709 O710 1.258 . S
O710 C709 1.258 . S
H711 C649 0.929 . S
H712 C650 0.932 1_545 S
H713 C651 0.931 . S
H714 C656 0.929 . S
H715 C658 0.929 . S
H716 C660 0.931 1_565 S
H717 C665 0.929 . S
H718 C667 0.932 . S
H719 C668 0.931 . S
H720 C673 0.930 . S
H721 C674 0.931 . S
H722 C675 0.930 . S
H723 C695 0.929 . S
H724 C697 0.930 . S
H725 C699 0.930 . S
H726 C704 0.932 1_565 S
H727 C706 0.930 . S
H728 C708 0.929 . S
C729 C730 1.359 . S
C729 N734 1.330 . S
C729 C790 1.504 . S
C730 C729 1.359 . S
C730 C731 1.366 . S
C730 H792 0.929 . S
C731 C730 1.366 . S
C731 C732 1.415 . S
C731 H793 0.932 . S
C732 C731 1.415 . S
C732 C733 1.366 . S
C732 H794 0.931 . S
C733 C732 1.366 . S
C733 N734 1.325 . S
C733 C735 1.516 . S
N734 C729 1.330 . S
N734 C733 1.325 . S
N734 Co750 1.869 . S
C735 C733 1.516 . S
C735 N759 1.316 . S
C735 O782 1.263 . S
C736 C737 1.421 . S
C736 C741 1.360 . S
C736 N759 1.436 . S
C737 C736 1.421 . S
C737 C738 1.379 . S
C737 H795 0.929 . S
C738 C737 1.379 . S
C738 C739 1.417 . S
C739 C738 1.417 . S
C739 C740 1.352 . S
C739 H796 0.929 . S
C740 C739 1.352 . S
C740 C741 1.393 . S
C741 C736 1.360 . S
C741 C740 1.393 . S
C741 H797 0.931 . S
Cd742 O762 2.329 . S
Cd742 O764 2.350 . S
Cd742 O765 2.277 . S
Cd742 O767 2.173 . S
Cd742 O771 2.263 . S
Cd742 O782 2.366 . S
Cd743 O761 2.352 . S
Cd743 O768 2.250 . S
Cd743 O772 2.308 . S
C744 C748 1.403 . S
C744 C749 1.370 . S
C744 N760 1.423 . S
C745 C746 1.389 . S
C745 C749 1.389 . S
C746 C745 1.389 . S
C746 C747 1.379 . S
C746 H798 0.929 . S
C747 C746 1.379 . S
C747 C748 1.405 . S
C748 C744 1.403 . S
C748 C747 1.405 . S
C748 H799 0.932 . S
C749 C744 1.370 . S
C749 C745 1.389 . S
C749 H800 0.931 . S
Co750 N734 1.869 . S
Co750 N751 1.955 . S
Co750 N752 1.864 . S
Co750 N758 1.958 . S
Co750 N759 1.953 . S
Co750 N760 1.974 . S
N751 Co750 1.955 . S
N751 C769 1.329 . S
N751 C784 1.432 . S
N752 Co750 1.864 . S
N752 C753 1.327 . S
N752 C757 1.342 . S
C753 N752 1.327 . S
C753 C754 1.407 . S
C753 C769 1.481 . S
C754 C753 1.407 . S
C754 C755 1.364 . S
C754 H801 0.930 . S
C755 C754 1.364 . S
C755 C756 1.390 . S
C755 H802 0.931 . S
C756 C755 1.390 . S
C756 C757 1.346 . S
C756 H803 0.930 . S
C757 N752 1.342 . S
C757 C756 1.346 . S
C757 C773 1.516 . S
N758 Co750 1.958 . S
N758 C773 1.324 . S
N758 C775 1.427 . S
N759 C735 1.316 . S
N759 C736 1.436 . S
N759 Co750 1.953 . S
N760 C744 1.423 . S
N760 Co750 1.974 . S
N760 C790 1.309 . S
O761 Cd743 2.352 . S
O761 C781 1.235 . S
O762 Cd742 2.329 . S
O762 C781 1.270 . S
C763 O764 1.270 . S
C763 O765 1.248 . S
O764 Cd742 2.350 . S
O764 C763 1.270 . S
O765 Cd742 2.277 . S
O765 C763 1.248 . S
C766 O767 1.277 . S
C766 O768 1.230 . S
O767 Cd742 2.173 . S
O767 C766 1.277 . S
O768 Cd743 2.250 . S
O768 C766 1.230 . S
C769 N751 1.329 . S
C769 C753 1.481 . S
C769 O770 1.246 . S
O770 C769 1.246 . S
O771 Cd742 2.263 . S
O771 C783 1.258 . S
O772 Cd743 2.308 . S
O772 C783 1.274 . S
C773 C757 1.516 . S
C773 N758 1.324 . S
C773 O774 1.238 . S
O774 C773 1.238 . S
C775 N758 1.427 . S
C775 C776 1.394 . S
C775 C780 1.395 . S
C776 C775 1.394 . S
C776 C777 1.380 . S
C776 H804 0.929 . S
C777 C776 1.380 . S
C777 C778 1.384 . S
C777 C783 1.495 . S
C778 C777 1.384 . S
C778 C779 1.382 . S
C778 H805 0.930 . S
C779 C778 1.382 . S
C779 C780 1.398 . S
C780 C775 1.395 . S
C780 C779 1.398 . S
C780 H806 0.930 . S
C781 O761 1.235 . S
C781 O762 1.270 . S
O782 C735 1.263 . S
O782 Cd742 2.366 . S
C783 O771 1.258 . S
C783 O772 1.274 . S
C783 C777 1.495 . S
C784 N751 1.432 . S
C784 C785 1.381 . S
C784 C789 1.385 . S
C785 C784 1.381 . S
C785 C786 1.371 . S
C785 H807 0.932 . S
C786 C785 1.371 . S
C786 C787 1.400 . S
C787 C786 1.400 . S
C787 C788 1.351 . S
C787 H808 0.930 . S
C788 C787 1.351 . S
C788 C789 1.388 . S
C789 C784 1.385 . S
C789 C788 1.388 . S
C789 H809 0.929 . S
C790 C729 1.504 . S
C790 N760 1.309 . S
C790 O791 1.258 . S
O791 C790 1.258 . S
H792 C730 0.929 . S
H793 C731 0.932 . S
H794 C732 0.931 . S
H795 C737 0.929 . S
H796 C739 0.929 . S
H797 C741 0.931 . S
H798 C746 0.929 . S
H799 C748 0.932 . S
H800 C749 0.931 . S
H801 C754 0.930 . S
H802 C755 0.931 . S
H803 C756 0.930 . S
H804 C776 0.929 . S
H805 C778 0.930 . S
H806 C780 0.930 . S
H807 C785 0.932 . S
H808 C787 0.930 . S
H809 C789 0.929 . S
C810 C811 1.359 . S
C810 N815 1.330 . S
C810 C871 1.504 . S
C811 C810 1.359 . S
C811 C812 1.366 . S
C811 H873 0.929 . S
C812 C811 1.366 . S
C812 C813 1.415 1_455 S
C812 H874 0.932 1_455 S
C813 C812 1.415 1_655 S
C813 C814 1.366 . S
C813 H875 0.931 . S
C814 C813 1.366 . S
C814 N815 1.325 1_655 S
C814 C816 1.516 . S
N815 C810 1.330 . S
N815 C814 1.325 1_455 S
N815 Co831 1.869 . S
C816 C814 1.516 . S
C816 N840 1.316 . S
C816 O863 1.263 . S
C817 C818 1.421 . S
C817 C822 1.360 . S
C817 N840 1.436 . S
C818 C817 1.421 . S
C818 C819 1.379 . S
C818 H876 0.929 . S
C819 C818 1.379 . S
C819 C820 1.417 . S
C820 C819 1.417 . S
C820 C821 1.352 . S
C820 H877 0.929 . S
C821 C820 1.352 . S
C821 C822 1.393 . S
C822 C817 1.360 . S
C822 C821 1.393 . S
C822 H878 0.931 1_655 S
Cd823 O843 2.329 . S
Cd823 O845 2.350 . S
Cd823 O846 2.277 . S
Cd823 O848 2.173 . S
Cd823 O852 2.263 . S
Cd823 O863 2.366 . S
Cd824 O842 2.352 . S
Cd824 O849 2.250 . S
Cd824 O853 2.308 1_655 S
C825 C829 1.403 . S
C825 C830 1.370 . S
C825 N841 1.423 . S
C826 C827 1.389 . S
C826 C830 1.389 . S
C827 C826 1.389 . S
C827 C828 1.379 . S
C827 H879 0.929 . S
C828 C827 1.379 . S
C828 C829 1.405 . S
C829 C825 1.403 . S
C829 C828 1.405 . S
C829 H880 0.932 . S
C830 C825 1.370 . S
C830 C826 1.389 . S
C830 H881 0.931 . S
Co831 N815 1.869 . S
Co831 N832 1.955 1_455 S
Co831 N833 1.864 . S
Co831 N839 1.958 . S
Co831 N840 1.953 1_455 S
Co831 N841 1.974 . S
N832 Co831 1.955 1_655 S
N832 C850 1.329 . S
N832 C865 1.432 . S
N833 Co831 1.864 . S
N833 C834 1.327 . S
N833 C838 1.342 . S
C834 N833 1.327 . S
C834 C835 1.407 . S
C834 C850 1.481 1_455 S
C835 C834 1.407 . S
C835 C836 1.364 . S
C835 H882 0.930 . S
C836 C835 1.364 . S
C836 C837 1.390 . S
C836 H883 0.931 . S
C837 C836 1.390 . S
C837 C838 1.346 . S
C837 H884 0.930 . S
C838 N833 1.342 . S
C838 C837 1.346 . S
C838 C854 1.516 . S
N839 Co831 1.958 . S
N839 C854 1.324 . S
N839 C856 1.427 . S
N840 C816 1.316 . S
N840 C817 1.436 . S
N840 Co831 1.953 1_655 S
N841 C825 1.423 . S
N841 Co831 1.974 . S
N841 C871 1.309 . S
O842 Cd824 2.352 . S
O842 C862 1.235 . S
O843 Cd823 2.329 . S
O843 C862 1.270 . S
C844 O845 1.270 . S
C844 O846 1.248 . S
O845 Cd823 2.350 . S
O845 C844 1.270 . S
O846 Cd823 2.277 . S
O846 C844 1.248 . S
C847 O848 1.277 . S
C847 O849 1.230 . S
O848 Cd823 2.173 . S
O848 C847 1.277 . S
O849 Cd824 2.250 . S
O849 C847 1.230 . S
C850 N832 1.329 . S
C850 C834 1.481 1_655 S
C850 O851 1.246 . S
O851 C850 1.246 . S
O852 Cd823 2.263 . S
O852 C864 1.258 1_655 S
O853 Cd824 2.308 1_455 S
O853 C864 1.274 . S
C854 C838 1.516 . S
C854 N839 1.324 . S
C854 O855 1.238 . S
O855 C854 1.238 . S
C856 N839 1.427 . S
C856 C857 1.394 . S
C856 C861 1.395 . S
C857 C856 1.394 . S
C857 C858 1.380 . S
C857 H885 0.929 . S
C858 C857 1.380 . S
C858 C859 1.384 . S
C858 C864 1.495 . S
C859 C858 1.384 . S
C859 C860 1.382 . S
C859 H886 0.930 . S
C860 C859 1.382 . S
C860 C861 1.398 . S
C861 C856 1.395 . S
C861 C860 1.398 . S
C861 H887 0.930 . S
C862 O842 1.235 . S
C862 O843 1.270 . S
O863 C816 1.263 . S
O863 Cd823 2.366 . S
C864 O852 1.258 1_455 S
C864 O853 1.274 . S
C864 C858 1.495 . S
C865 N832 1.432 . S
C865 C866 1.381 . S
C865 C870 1.385 . S
C866 C865 1.381 . S
C866 C867 1.371 . S
C866 H888 0.932 1_655 S
C867 C866 1.371 . S
C867 C868 1.400 . S
C868 C867 1.400 . S
C868 C869 1.351 . S
C868 H889 0.930 . S
C869 C868 1.351 . S
C869 C870 1.388 . S
C870 C865 1.385 . S
C870 C869 1.388 . S
C870 H890 0.929 . S
C871 C810 1.504 . S
C871 N841 1.309 . S
C871 O872 1.258 . S
O872 C871 1.258 . S
H873 C811 0.929 . S
H874 C812 0.932 1_655 S
H875 C813 0.931 . S
H876 C818 0.929 . S
H877 C820 0.929 . S
H878 C822 0.931 1_455 S
H879 C827 0.929 . S
H880 C829 0.932 . S
H881 C830 0.931 . S
H882 C835 0.930 . S
H883 C836 0.931 . S
H884 C837 0.930 . S
H885 C857 0.929 . S
H886 C859 0.930 . S
H887 C861 0.930 . S
H888 C866 0.932 1_455 S
H889 C868 0.930 . S
H890 C870 0.929 . S
C891 C892 1.359 . S
C891 N896 1.330 . S
C891 C952 1.504 . S
C892 C891 1.359 . S
C892 C893 1.366 . S
C892 H954 0.929 . S
C893 C892 1.366 . S
C893 C894 1.415 1_545 S
C893 H955 0.932 1_545 S
C894 C893 1.415 1_565 S
C894 C895 1.366 . S
C894 H956 0.931 . S
C895 C894 1.366 . S
C895 N896 1.325 1_565 S
C895 C897 1.516 . S
N896 C891 1.330 . S
N896 C895 1.325 1_545 S
N896 Co912 1.869 . S
C897 C895 1.516 . S
C897 N921 1.316 . S
C897 O944 1.263 . S
C898 C899 1.421 . S
C898 C903 1.360 . S
C898 N921 1.436 . S
C899 C898 1.421 . S
C899 C900 1.379 . S
C899 H957 0.929 . S
C900 C899 1.379 . S
C900 C901 1.417 . S
C901 C900 1.417 . S
C901 C902 1.352 . S
C901 H958 0.929 . S
C902 C901 1.352 . S
C902 C903 1.393 . S
C903 C898 1.360 . S
C903 C902 1.393 . S
C903 H959 0.931 1_565 S
Cd904 O924 2.329 . S
Cd904 O926 2.350 . S
Cd904 O927 2.277 . S
Cd904 O929 2.173 . S
Cd904 O933 2.263 . S
Cd904 O944 2.366 . S
Cd905 O923 2.352 . S
Cd905 O930 2.250 . S
Cd905 O934 2.308 1_565 S
C906 C910 1.403 . S
C906 C911 1.370 . S
C906 N922 1.423 . S
C907 C908 1.389 . S
C907 C911 1.389 . S
C908 C907 1.389 . S
C908 C909 1.379 . S
C908 H960 0.929 . S
C909 C908 1.379 . S
C909 C910 1.405 . S
C910 C906 1.403 . S
C910 C909 1.405 . S
C910 H961 0.932 . S
C911 C906 1.370 . S
C911 C907 1.389 . S
C911 H962 0.931 . S
Co912 N896 1.869 . S
Co912 N913 1.955 1_545 S
Co912 N914 1.864 . S
Co912 N920 1.958 . S
Co912 N921 1.953 1_545 S
Co912 N922 1.974 . S
N913 Co912 1.955 1_565 S
N913 C931 1.329 . S
N913 C946 1.432 . S
N914 Co912 1.864 . S
N914 C915 1.327 . S
N914 C919 1.342 . S
C915 N914 1.327 . S
C915 C916 1.407 . S
C915 C931 1.481 1_545 S
C916 C915 1.407 . S
C916 C917 1.364 . S
C916 H963 0.930 . S
C917 C916 1.364 . S
C917 C918 1.390 . S
C917 H964 0.931 . S
C918 C917 1.390 . S
C918 C919 1.346 . S
C918 H965 0.930 . S
C919 N914 1.342 . S
C919 C918 1.346 . S
C919 C935 1.516 . S
N920 Co912 1.958 . S
N920 C935 1.324 . S
N920 C937 1.427 . S
N921 C897 1.316 . S
N921 C898 1.436 . S
N921 Co912 1.953 1_565 S
N922 C906 1.423 . S
N922 Co912 1.974 . S
N922 C952 1.309 . S
O923 Cd905 2.352 . S
O923 C943 1.235 . S
O924 Cd904 2.329 . S
O924 C943 1.270 . S
C925 O926 1.270 . S
C925 O927 1.248 . S
O926 Cd904 2.350 . S
O926 C925 1.270 . S
O927 Cd904 2.277 . S
O927 C925 1.248 . S
C928 O929 1.277 . S
C928 O930 1.230 . S
O929 Cd904 2.173 . S
O929 C928 1.277 . S
O930 Cd905 2.250 . S
O930 C928 1.230 . S
C931 N913 1.329 . S
C931 C915 1.481 1_565 S
C931 O932 1.246 . S
O932 C931 1.246 . S
O933 Cd904 2.263 . S
O933 C945 1.258 1_565 S
O934 Cd905 2.308 1_545 S
O934 C945 1.274 . S
C935 C919 1.516 . S
C935 N920 1.324 . S
C935 O936 1.238 . S
O936 C935 1.238 . S
C937 N920 1.427 . S
C937 C938 1.394 . S
C937 C942 1.395 . S
C938 C937 1.394 . S
C938 C939 1.380 . S
C938 H966 0.929 . S
C939 C938 1.380 . S
C939 C940 1.384 . S
C939 C945 1.495 . S
C940 C939 1.384 . S
C940 C941 1.382 . S
C940 H967 0.930 . S
C941 C940 1.382 . S
C941 C942 1.398 . S
C942 C937 1.395 . S
C942 C941 1.398 . S
C942 H968 0.930 . S
C943 O923 1.235 . S
C943 O924 1.270 . S
O944 C897 1.263 . S
O944 Cd904 2.366 . S
C945 O933 1.258 1_545 S
C945 O934 1.274 . S
C945 C939 1.495 . S
C946 N913 1.432 . S
C946 C947 1.381 . S
C946 C951 1.385 . S
C947 C946 1.381 . S
C947 C948 1.371 . S
C947 H969 0.932 1_565 S
C948 C947 1.371 . S
C948 C949 1.400 . S
C949 C948 1.400 . S
C949 C950 1.351 . S
C949 H970 0.930 . S
C950 C949 1.351 . S
C950 C951 1.388 . S
C951 C946 1.385 . S
C951 C950 1.388 . S
C951 H971 0.929 . S
C952 C891 1.504 . S
C952 N922 1.309 . S
C952 O953 1.258 . S
O953 C952 1.258 . S
H954 C892 0.929 . S
H955 C893 0.932 1_565 S
H956 C894 0.931 . S
H957 C899 0.929 . S
H958 C901 0.929 . S
H959 C903 0.931 1_545 S
H960 C908 0.929 . S
H961 C910 0.932 . S
H962 C911 0.931 . S
H963 C916 0.930 . S
H964 C917 0.931 . S
H965 C918 0.930 . S
H966 C938 0.929 . S
H967 C940 0.930 . S
H968 C942 0.930 . S
H969 C947 0.932 1_545 S
H970 C949 0.930 . S
H971 C951 0.929 . S
C972 C973 1.387 . S
C972 H976 0.950 . S
C972 C981 1.390 . S
C973 C972 1.387 . S
C973 C975 1.387 . S
H974 C981 0.950 . S
C975 C973 1.387 . S
C975 C977 1.390 . S
C975 H979 0.950 . S
H976 C972 0.950 . S
C977 C975 1.390 . S
C977 C978 1.387 . S
C977 H980 0.950 . S
C978 C977 1.387 . S
C978 C981 1.387 . S
H979 C975 0.950 . S
H980 C977 0.950 . S
C981 C972 1.390 . S
C981 H974 0.950 . S
C981 C978 1.387 . S
C982 C983 1.387 . S
C982 H986 0.950 . S
C982 C991 1.390 . S
C983 C982 1.387 . S
C983 C985 1.387 . S
H984 C991 0.950 . S
C985 C983 1.387 . S
C985 C987 1.390 . S
C985 H989 0.950 . S
H986 C982 0.950 . S
C987 C985 1.390 . S
C987 C988 1.387 . S
C987 H990 0.950 . S
C988 C987 1.387 . S
C988 C991 1.387 . S
H989 C985 0.950 . S
H990 C987 0.950 . S
C991 C982 1.390 . S
C991 H984 0.950 . S
C991 C988 1.387 . S
C992 C993 1.387 . S
C992 H996 0.950 . S
C992 C1001 1.390 . S
C993 C992 1.387 . S
C993 C995 1.387 . S
H994 C1001 0.950 . S
C995 C993 1.387 . S
C995 C997 1.390 . S
C995 H999 0.950 . S
H996 C992 0.950 . S
C997 C995 1.390 . S
C997 C998 1.387 . S
C997 H1000 0.950 . S
C998 C997 1.387 . S
C998 C1001 1.387 . S
H999 C995 0.950 . S
H1000 C997 0.950 . S
C1001 C992 1.390 . S
C1001 H994 0.950 . S
C1001 C998 1.387 . S
C1002 C1003 1.387 . S
C1002 H1006 0.950 . S
C1002 C1011 1.390 . S
C1003 C1002 1.387 . S
C1003 C1005 1.387 . S
H1004 C1011 0.950 . S
C1005 C1003 1.387 . S
C1005 C1007 1.390 . S
C1005 H1009 0.950 . S
H1006 C1002 0.950 . S
C1007 C1005 1.390 . S
C1007 C1008 1.387 . S
C1007 H1010 0.950 . S
C1008 C1007 1.387 . S
C1008 C1011 1.387 . S
H1009 C1005 0.950 . S
H1010 C1007 0.950 . S
C1011 C1002 1.390 . S
C1011 H1004 0.950 . S
C1011 C1008 1.387 . S
C1012 C1013 1.387 . S
C1012 H1016 0.950 . S
C1012 C1021 1.390 . S
C1013 C1012 1.387 . S
C1013 C1015 1.387 . S
H1014 C1021 0.950 . S
C1015 C1013 1.387 . S
C1015 C1017 1.390 . S
C1015 H1019 0.950 . S
H1016 C1012 0.950 . S
C1017 C1015 1.390 . S
C1017 C1018 1.387 . S
C1017 H1020 0.950 . S
C1018 C1017 1.387 . S
C1018 C1021 1.387 . S
H1019 C1015 0.950 . S
H1020 C1017 0.950 . S
C1021 C1012 1.390 . S
C1021 H1014 0.950 . S
C1021 C1018 1.387 . S
C1022 C1023 1.387 . S
C1022 H1026 0.950 . S
C1022 C1031 1.390 . S
C1023 C1022 1.387 . S
C1023 C1025 1.387 . S
H1024 C1031 0.950 . S
C1025 C1023 1.387 . S
C1025 C1027 1.390 . S
C1025 H1029 0.950 . S
H1026 C1022 0.950 . S
C1027 C1025 1.390 . S
C1027 C1028 1.387 . S
C1027 H1030 0.950 . S
C1028 C1027 1.387 . S
C1028 C1031 1.387 . S
H1029 C1025 0.950 . S
H1030 C1027 0.950 . S
C1031 C1022 1.390 . S
C1031 H1024 0.950 . S
C1031 C1028 1.387 . S
C1032 C1033 1.389 1_554 S
C1032 H1036 0.950 . S
C1032 C1041 1.390 1_565 S
C1033 C1032 1.389 1_556 S
C1033 C1035 1.386 . S
H1034 C1041 0.950 . S
C1035 C1033 1.386 . S
C1035 C1037 1.390 1_565 S
C1035 H1039 0.950 . S
H1036 C1032 0.950 . S
C1037 C1035 1.390 1_545 S
C1037 C1038 1.387 1_556 S
C1037 H1040 0.950 . S
C1038 C1037 1.387 1_554 S
C1038 C1041 1.387 . S
H1039 C1035 0.950 . S
H1040 C1037 0.950 . S
C1041 C1032 1.390 1_545 S
C1041 H1034 0.950 . S
C1041 C1038 1.387 . S
C1042 C1043 1.387 . S
C1042 H1046 0.950 . S
C1042 C1051 1.390 . S
C1043 C1042 1.387 . S
C1043 C1045 1.387 . S
H1044 C1051 0.950 . S
C1045 C1043 1.387 . S
C1045 C1047 1.390 . S
C1045 H1049 0.950 . S
H1046 C1042 0.950 . S
C1047 C1045 1.390 . S
C1047 C1048 1.387 . S
C1047 H1050 0.950 . S
C1048 C1047 1.387 . S
C1048 C1051 1.387 . S
H1049 C1045 0.950 . S
H1050 C1047 0.950 . S
C1051 C1042 1.390 . S
C1051 H1044 0.950 . S
C1051 C1048 1.387 . S
C1052 C1053 1.387 . S
C1052 H1056 0.950 . S
C1052 C1061 1.390 1_455 S
C1053 C1052 1.387 . S
C1053 C1055 1.387 . S
H1054 C1061 0.950 . S
C1055 C1053 1.387 . S
C1055 C1057 1.390 1_455 S
C1055 H1059 0.950 . S
H1056 C1052 0.950 . S
C1057 C1055 1.390 1_655 S
C1057 C1058 1.387 . S
C1057 H1060 0.950 . S
C1058 C1057 1.387 . S
C1058 C1061 1.387 . S
H1059 C1055 0.950 . S
H1060 C1057 0.950 . S
C1061 C1052 1.390 1_655 S
C1061 H1054 0.950 . S
C1061 C1058 1.387 . S
C1062 C1063 1.387 . S
C1062 H1066 0.950 . S
C1062 C1071 1.390 1_565 S
C1063 C1062 1.387 . S
C1063 C1065 1.387 . S
H1064 C1071 0.950 . S
C1065 C1063 1.387 . S
C1065 C1067 1.390 1_565 S
C1065 H1069 0.950 . S
H1066 C1062 0.950 . S
C1067 C1065 1.390 1_545 S
C1067 C1068 1.387 . S
C1067 H1070 0.950 . S
C1068 C1067 1.387 . S
C1068 C1071 1.387 . S
H1069 C1065 0.950 . S
H1070 C1067 0.950 . S
C1071 C1062 1.390 1_545 S
C1071 H1064 0.950 . S
C1071 C1068 1.387 . S
C1072 C1073 1.387 . S
C1072 H1076 0.950 . S
C1072 C1081 1.390 . S
C1073 C1072 1.387 . S
C1073 C1075 1.387 . S
H1074 C1081 0.950 . S
C1075 C1073 1.387 . S
C1075 C1077 1.390 . S
C1075 H1079 0.950 . S
H1076 C1072 0.950 . S
C1077 C1075 1.390 . S
C1077 C1078 1.387 . S
C1077 H1080 0.950 . S
C1078 C1077 1.387 . S
C1078 C1081 1.387 . S
H1079 C1075 0.950 . S
H1080 C1077 0.950 . S
C1081 C1072 1.390 . S
C1081 H1074 0.950 . S
C1081 C1078 1.387 . S
C1082 C1083 1.387 . S
C1082 H1086 0.950 . S
C1082 C1091 1.390 1_655 S
C1083 C1082 1.387 . S
C1083 C1085 1.387 . S
H1084 C1091 0.950 . S
C1085 C1083 1.387 . S
C1085 C1087 1.390 1_655 S
C1085 H1089 0.950 . S
H1086 C1082 0.950 . S
C1087 C1085 1.390 1_455 S
C1087 C1088 1.387 . S
C1087 H1090 0.950 . S
C1088 C1087 1.387 . S
C1088 C1091 1.387 . S
H1089 C1085 0.950 . S
H1090 C1087 0.950 . S
C1091 C1082 1.390 1_455 S
C1091 H1084 0.950 . S
C1091 C1088 1.387 . S
C1092 C1093 1.387 . S
C1092 H1096 0.950 . S
C1092 C1101 1.390 . S
C1093 C1092 1.387 . S
C1093 C1095 1.387 . S
H1094 C1101 0.950 . S
C1095 C1093 1.387 . S
C1095 C1097 1.390 . S
C1095 H1099 0.950 . S
H1096 C1092 0.950 . S
C1097 C1095 1.390 . S
C1097 C1098 1.387 . S
C1097 H1100 0.950 . S
C1098 C1097 1.387 . S
C1098 C1101 1.387 . S
H1099 C1095 0.950 . S
H1100 C1097 0.950 . S
C1101 C1092 1.390 . S
C1101 H1094 0.950 . S
C1101 C1098 1.387 . S
C1102 C1103 1.387 . S
C1102 H1106 0.950 . S
C1102 C1111 1.390 . S
C1103 C1102 1.387 . S
C1103 C1105 1.387 . S
H1104 C1111 0.950 . S
C1105 C1103 1.387 . S
C1105 C1107 1.390 . S
C1105 H1109 0.950 . S
H1106 C1102 0.950 . S
C1107 C1105 1.390 . S
C1107 C1108 1.387 . S
C1107 H1110 0.950 . S
C1108 C1107 1.387 . S
C1108 C1111 1.387 . S
H1109 C1105 0.950 . S
H1110 C1107 0.950 . S
C1111 C1102 1.390 . S
C1111 H1104 0.950 . S
C1111 C1108 1.387 . S
C1112 C1113 1.387 . S
C1112 H1116 0.950 . S
C1112 C1121 1.390 . S
C1113 C1112 1.387 . S
C1113 C1115 1.387 . S
H1114 C1121 0.950 . S
C1115 C1113 1.387 . S
C1115 C1117 1.390 . S
C1115 H1119 0.950 . S
H1116 C1112 0.950 . S
C1117 C1115 1.390 . S
C1117 C1118 1.387 . S
C1117 H1120 0.950 . S
C1118 C1117 1.387 . S
C1118 C1121 1.387 . S
H1119 C1115 0.950 . S
H1120 C1117 0.950 . S
C1121 C1112 1.390 . S
C1121 H1114 0.950 . S
C1121 C1118 1.387 . S
C1122 C1123 1.387 . S
C1122 H1126 0.950 . S
C1122 C1131 1.390 . S
C1123 C1122 1.387 . S
C1123 C1125 1.387 . S
H1124 C1131 0.950 . S
C1125 C1123 1.387 . S
C1125 C1127 1.390 . S
C1125 H1129 0.950 . S
H1126 C1122 0.950 . S
C1127 C1125 1.390 . S
C1127 C1128 1.387 . S
C1127 H1130 0.950 . S
C1128 C1127 1.387 . S
C1128 C1131 1.387 . S
H1129 C1125 0.950 . S
H1130 C1127 0.950 . S
C1131 C1122 1.390 . S
C1131 H1124 0.950 . S
C1131 C1128 1.387 . S
C1132 C1133 1.387 . S
C1132 H1136 0.950 . S
C1132 C1141 1.390 . S
C1133 C1132 1.387 . S
C1133 C1135 1.387 . S
H1134 C1141 0.950 . S
C1135 C1133 1.387 . S
C1135 C1137 1.390 . S
C1135 H1139 0.950 . S
H1136 C1132 0.950 . S
C1137 C1135 1.390 . S
C1137 C1138 1.387 . S
C1137 H1140 0.950 . S
C1138 C1137 1.387 . S
C1138 C1141 1.387 . S
H1139 C1135 0.950 . S
H1140 C1137 0.950 . S
C1141 C1132 1.390 . S
C1141 H1134 0.950 . S
C1141 C1138 1.387 . S
C1142 C1143 1.387 . S
C1142 H1146 0.950 . S
C1142 C1151 1.390 . S
C1143 C1142 1.387 . S
C1143 C1145 1.387 . S
H1144 C1151 0.950 . S
C1145 C1143 1.387 . S
C1145 C1147 1.390 . S
C1145 H1149 0.950 . S
H1146 C1142 0.950 . S
C1147 C1145 1.390 . S
C1147 C1148 1.387 . S
C1147 H1150 0.950 . S
C1148 C1147 1.387 . S
C1148 C1151 1.387 . S
H1149 C1145 0.950 . S
H1150 C1147 0.950 . S
C1151 C1142 1.390 . S
C1151 H1144 0.950 . S
C1151 C1148 1.387 . S
C1152 C1153 1.387 . S
C1152 H1156 0.950 . S
C1152 C1161 1.390 . S
C1153 C1152 1.387 . S
C1153 C1155 1.387 . S
H1154 C1161 0.950 . S
C1155 C1153 1.387 . S
C1155 C1157 1.390 . S
C1155 H1159 0.950 . S
H1156 C1152 0.950 . S
C1157 C1155 1.390 . S
C1157 C1158 1.387 . S
C1157 H1160 0.950 . S
C1158 C1157 1.387 . S
C1158 C1161 1.387 . S
H1159 C1155 0.950 . S
H1160 C1157 0.950 . S
C1161 C1152 1.390 . S
C1161 H1154 0.950 . S
C1161 C1158 1.387 . S
C1162 C1163 1.387 . S
C1162 H1166 0.950 . S
C1162 C1171 1.390 . S
C1163 C1162 1.387 . S
C1163 C1165 1.387 . S
H1164 C1171 0.950 . S
C1165 C1163 1.387 . S
C1165 C1167 1.390 . S
C1165 H1169 0.950 . S
H1166 C1162 0.950 . S
C1167 C1165 1.390 . S
C1167 C1168 1.387 . S
C1167 H1170 0.950 . S
C1168 C1167 1.387 . S
C1168 C1171 1.387 . S
H1169 C1165 0.950 . S
H1170 C1167 0.950 . S
C1171 C1162 1.390 . S
C1171 H1164 0.950 . S
C1171 C1168 1.387 . S
C1172 C1173 1.387 . S
C1172 H1176 0.950 . S
C1172 C1181 1.390 . S
C1173 C1172 1.387 . S
C1173 C1175 1.387 . S
H1174 C1181 0.950 . S
C1175 C1173 1.387 . S
C1175 C1177 1.390 . S
C1175 H1179 0.950 . S
H1176 C1172 0.950 . S
C1177 C1175 1.390 . S
C1177 C1178 1.387 . S
C1177 H1180 0.950 . S
C1178 C1177 1.387 . S
C1178 C1181 1.387 . S
H1179 C1175 0.950 . S
H1180 C1177 0.950 . S
C1181 C1172 1.390 . S
C1181 H1174 0.950 . S
C1181 C1178 1.387 . S
C1182 C1183 1.387 . S
C1182 H1186 0.950 . S
C1182 C1191 1.390 . S
C1183 C1182 1.387 . S
C1183 C1185 1.387 . S
H1184 C1191 0.950 . S
C1185 C1183 1.387 . S
C1185 C1187 1.390 . S
C1185 H1189 0.950 . S
H1186 C1182 0.950 . S
C1187 C1185 1.390 . S
C1187 C1188 1.387 . S
C1187 H1190 0.950 . S
C1188 C1187 1.387 . S
C1188 C1191 1.387 . S
H1189 C1185 0.950 . S
H1190 C1187 0.950 . S
C1191 C1182 1.390 . S
C1191 H1184 0.950 . S
C1191 C1188 1.387 . S
C1192 C1193 1.387 . S
C1192 H1196 0.950 . S
C1192 C1201 1.390 . S
C1193 C1192 1.387 . S
C1193 C1195 1.387 . S
H1194 C1201 0.950 . S
C1195 C1193 1.387 . S
C1195 C1197 1.390 . S
C1195 H1199 0.950 . S
H1196 C1192 0.950 . S
C1197 C1195 1.390 . S
C1197 C1198 1.387 . S
C1197 H1200 0.950 . S
C1198 C1197 1.387 . S
C1198 C1201 1.387 . S
H1199 C1195 0.950 . S
H1200 C1197 0.950 . S
C1201 C1192 1.390 . S
C1201 H1194 0.950 . S
C1201 C1198 1.387 . S
C1202 C1203 1.387 . S
C1202 H1206 0.950 . S
C1202 C1211 1.390 . S
C1203 C1202 1.387 . S
C1203 C1205 1.387 . S
H1204 C1211 0.950 . S
C1205 C1203 1.387 . S
C1205 C1207 1.390 . S
C1205 H1209 0.950 . S
H1206 C1202 0.950 . S
C1207 C1205 1.390 . S
C1207 C1208 1.387 . S
C1207 H1210 0.950 . S
C1208 C1207 1.387 . S
C1208 C1211 1.387 . S
H1209 C1205 0.950 . S
H1210 C1207 0.950 . S
C1211 C1202 1.390 . S
C1211 H1204 0.950 . S
C1211 C1208 1.387 . S
C1212 C1213 1.387 . S
C1212 H1216 0.950 . S
C1212 C1221 1.384 1_554 S
C1213 C1212 1.387 . S
C1213 C1215 1.358 1_554 S
H1214 C1221 0.950 . S
C1215 C1213 1.358 1_556 S
C1215 C1217 1.420 . S
C1215 H1219 0.950 . S
H1216 C1212 0.950 . S
C1217 C1215 1.420 . S
C1217 C1218 1.387 . S
C1217 H1220 0.950 . S
C1218 C1217 1.387 . S
C1218 C1221 1.394 . S
H1219 C1215 0.950 . S
H1220 C1217 0.950 . S
C1221 C1212 1.384 1_556 S
C1221 H1214 0.950 . S
C1221 C1218 1.394 . S
C1222 C1223 1.387 . S
C1222 H1226 0.950 . S
C1222 C1231 1.390 . S
C1223 C1222 1.387 . S
C1223 C1225 1.387 . S
H1224 C1231 0.950 . S
C1225 C1223 1.387 . S
C1225 C1227 1.390 . S
C1225 H1229 0.950 . S
H1226 C1222 0.950 . S
C1227 C1225 1.390 . S
C1227 C1228 1.387 . S
C1227 H1230 0.950 . S
C1228 C1227 1.387 . S
C1228 C1231 1.387 . S
H1229 C1225 0.950 . S
H1230 C1227 0.950 . S
C1231 C1222 1.390 . S
C1231 H1224 0.950 . S
C1231 C1228 1.387 . S
C1232 C1233 1.387 . S
C1232 H1236 0.950 . S
C1232 C1241 1.390 . S
C1233 C1232 1.387 . S
C1233 C1235 1.387 . S
H1234 C1241 0.950 . S
C1235 C1233 1.387 . S
C1235 C1237 1.390 . S
C1235 H1239 0.950 . S
H1236 C1232 0.950 . S
C1237 C1235 1.390 . S
C1237 C1238 1.387 . S
C1237 H1240 0.950 . S
C1238 C1237 1.387 . S
C1238 C1241 1.387 . S
H1239 C1235 0.950 . S
H1240 C1237 0.950 . S
C1241 C1232 1.390 . S
C1241 H1234 0.950 . S
C1241 C1238 1.387 . S
C1242 C1243 1.387 . S
C1242 H1246 0.950 . S
C1242 C1251 1.390 . S
C1243 C1242 1.387 . S
C1243 C1245 1.387 . S
H1244 C1251 0.950 . S
C1245 C1243 1.387 . S
C1245 C1247 1.390 . S
C1245 H1249 0.950 . S
H1246 C1242 0.950 . S
C1247 C1245 1.390 . S
C1247 C1248 1.387 . S
C1247 H1250 0.950 . S
C1248 C1247 1.387 . S
C1248 C1251 1.387 . S
H1249 C1245 0.950 . S
H1250 C1247 0.950 . S
C1251 C1242 1.390 . S
C1251 H1244 0.950 . S
C1251 C1248 1.387 . S
C1252 C1253 1.387 . S
C1252 H1256 0.950 . S
C1252 C1261 1.390 . S
C1253 C1252 1.387 . S
C1253 C1255 1.387 . S
H1254 C1261 0.950 . S
C1255 C1253 1.387 . S
C1255 C1257 1.390 . S
C1255 H1259 0.950 . S
H1256 C1252 0.950 . S
C1257 C1255 1.390 . S
C1257 C1258 1.387 . S
C1257 H1260 0.950 . S
C1258 C1257 1.387 . S
C1258 C1261 1.387 . S
H1259 C1255 0.950 . S
H1260 C1257 0.950 . S
C1261 C1252 1.390 . S
C1261 H1254 0.950 . S
C1261 C1258 1.387 . S
C1262 C1263 1.387 . S
C1262 H1266 0.950 . S
C1262 C1271 1.390 . S
C1263 C1262 1.387 . S
C1263 C1265 1.387 . S
H1264 C1271 0.950 . S
C1265 C1263 1.387 . S
C1265 C1267 1.390 . S
C1265 H1269 0.950 . S
H1266 C1262 0.950 . S
C1267 C1265 1.390 . S
C1267 C1268 1.387 . S
C1267 H1270 0.950 . S
C1268 C1267 1.387 . S
C1268 C1271 1.387 . S
H1269 C1265 0.950 . S
H1270 C1267 0.950 . S
C1271 C1262 1.390 . S
C1271 H1264 0.950 . S
C1271 C1268 1.387 . S
C1272 C1273 1.387 . S
C1272 H1276 0.950 . S
C1272 C1281 1.390 . S
C1273 C1272 1.387 . S
C1273 C1275 1.387 . S
H1274 C1281 0.950 . S
C1275 C1273 1.387 . S
C1275 C1277 1.390 . S
C1275 H1279 0.950 . S
H1276 C1272 0.950 . S
C1277 C1275 1.390 . S
C1277 C1278 1.387 . S
C1277 H1280 0.950 . S
C1278 C1277 1.387 . S
C1278 C1281 1.387 . S
H1279 C1275 0.950 . S
H1280 C1277 0.950 . S
C1281 C1272 1.390 . S
C1281 H1274 0.950 . S
C1281 C1278 1.387 . S
C1282 C1283 1.387 1_554 S
C1282 H1286 0.950 . S
C1282 C1291 1.390 . S
C1283 C1282 1.387 1_556 S
C1283 C1285 1.387 . S
H1284 C1291 0.950 . S
C1285 C1283 1.387 . S
C1285 C1287 1.390 . S
C1285 H1289 0.950 . S
H1286 C1282 0.950 . S
C1287 C1285 1.390 . S
C1287 C1288 1.387 1_556 S
C1287 H1290 0.950 . S
C1288 C1287 1.387 1_554 S
C1288 C1291 1.387 . S
H1289 C1285 0.950 . S
H1290 C1287 0.950 . S
C1291 C1282 1.390 . S
C1291 H1284 0.950 . S
C1291 C1288 1.387 . S
C1292 C1293 1.387 . S
C1292 H1296 0.950 . S
C1292 C1301 1.390 . S
C1293 C1292 1.387 . S
C1293 C1295 1.387 . S
H1294 C1301 0.950 . S
C1295 C1293 1.387 . S
C1295 C1297 1.390 . S
C1295 H1299 0.950 . S
H1296 C1292 0.950 . S
C1297 C1295 1.390 . S
C1297 C1298 1.387 . S
C1297 H1300 0.950 . S
C1298 C1297 1.387 . S
C1298 C1301 1.387 . S
H1299 C1295 0.950 . S
H1300 C1297 0.950 . S
C1301 C1292 1.390 . S
C1301 H1294 0.950 . S
C1301 C1298 1.387 . S
C1302 C1303 1.387 . S
C1302 H1306 0.950 . S
C1302 C1311 1.390 . S
C1303 C1302 1.387 . S
C1303 C1305 1.387 . S
H1304 C1311 0.950 . S
C1305 C1303 1.387 . S
C1305 C1307 1.390 . S
C1305 H1309 0.950 . S
H1306 C1302 0.950 . S
C1307 C1305 1.390 . S
C1307 C1308 1.387 . S
C1307 H1310 0.950 . S
C1308 C1307 1.387 . S
C1308 C1311 1.387 . S
H1309 C1305 0.950 . S
H1310 C1307 0.950 . S
C1311 C1302 1.390 . S
C1311 H1304 0.950 . S
C1311 C1308 1.387 . S
C1312 C1313 1.387 . S
C1312 H1316 0.950 . S
C1312 C1321 1.390 . S
C1313 C1312 1.387 . S
C1313 C1315 1.387 . S
H1314 C1321 0.950 . S
C1315 C1313 1.387 . S
C1315 C1317 1.390 . S
C1315 H1319 0.950 . S
H1316 C1312 0.950 . S
C1317 C1315 1.390 . S
C1317 C1318 1.387 . S
C1317 H1320 0.950 . S
C1318 C1317 1.387 . S
C1318 C1321 1.387 . S
H1319 C1315 0.950 . S
H1320 C1317 0.950 . S
C1321 C1312 1.390 . S
C1321 H1314 0.950 . S
C1321 C1318 1.387 . S
C1322 C1323 1.387 . S
C1322 H1326 0.950 . S
C1322 C1331 1.390 . S
C1323 C1322 1.387 . S
C1323 C1325 1.387 . S
H1324 C1331 0.950 . S
C1325 C1323 1.387 . S
C1325 C1327 1.390 . S
C1325 H1329 0.950 . S
H1326 C1322 0.950 . S
C1327 C1325 1.390 . S
C1327 C1328 1.387 . S
C1327 H1330 0.950 . S
C1328 C1327 1.387 . S
C1328 C1331 1.387 . S
H1329 C1325 0.950 . S
H1330 C1327 0.950 . S
C1331 C1322 1.390 . S
C1331 H1324 0.950 . S
C1331 C1328 1.387 . S
C1332 C1333 1.387 . S
C1332 H1336 0.950 . S
C1332 C1341 1.390 . S
C1333 C1332 1.387 . S
C1333 C1335 1.387 . S
H1334 C1341 0.950 . S
C1335 C1333 1.387 . S
C1335 C1337 1.390 . S
C1335 H1339 0.950 . S
H1336 C1332 0.950 . S
C1337 C1335 1.390 . S
C1337 C1338 1.387 . S
C1337 H1340 0.950 . S
C1338 C1337 1.387 . S
C1338 C1341 1.387 . S
H1339 C1335 0.950 . S
H1340 C1337 0.950 . S
C1341 C1332 1.390 . S
C1341 H1334 0.950 . S
C1341 C1338 1.387 . S
C1342 C1343 1.387 . S
C1342 H1346 0.950 . S
C1342 C1351 1.390 . S
C1343 C1342 1.387 . S
C1343 C1345 1.387 . S
H1344 C1351 0.950 . S
C1345 C1343 1.387 . S
C1345 C1347 1.390 . S
C1345 H1349 0.950 . S
H1346 C1342 0.950 . S
C1347 C1345 1.390 . S
C1347 C1348 1.387 . S
C1347 H1350 0.950 . S
C1348 C1347 1.387 . S
C1348 C1351 1.387 . S
H1349 C1345 0.950 . S
H1350 C1347 0.950 . S
C1351 C1342 1.390 . S
C1351 H1344 0.950 . S
C1351 C1348 1.387 . S
C1352 C1353 1.387 . S
C1352 H1356 0.950 . S
C1352 C1361 1.390 . S
C1353 C1352 1.387 . S
C1353 C1355 1.387 . S
H1354 C1361 0.950 . S
C1355 C1353 1.387 . S
C1355 C1357 1.390 . S
C1355 H1359 0.950 . S
H1356 C1352 0.950 . S
C1357 C1355 1.390 . S
C1357 C1358 1.387 . S
C1357 H1360 0.950 . S
C1358 C1357 1.387 . S
C1358 C1361 1.387 . S
H1359 C1355 0.950 . S
H1360 C1357 0.950 . S
C1361 C1352 1.390 . S
C1361 H1354 0.950 . S
C1361 C1358 1.387 . S
C1362 C1363 1.387 . S
C1362 H1366 0.950 . S
C1362 C1371 1.390 . S
C1363 C1362 1.387 . S
C1363 C1365 1.387 . S
H1364 C1371 0.950 . S
C1365 C1363 1.387 . S
C1365 C1367 1.390 . S
C1365 H1369 0.950 . S
H1366 C1362 0.950 . S
C1367 C1365 1.390 . S
C1367 C1368 1.387 . S
C1367 H1370 0.950 . S
C1368 C1367 1.387 . S
C1368 C1371 1.387 . S
H1369 C1365 0.950 . S
H1370 C1367 0.950 . S
C1371 C1362 1.390 . S
C1371 H1364 0.950 . S
C1371 C1368 1.387 . S
C1372 C1373 1.387 . S
C1372 H1376 0.950 . S
C1372 C1381 1.390 . S
C1373 C1372 1.387 . S
C1373 C1375 1.387 . S
H1374 C1381 0.950 . S
C1375 C1373 1.387 . S
C1375 C1377 1.390 . S
C1375 H1379 0.950 . S
H1376 C1372 0.950 . S
C1377 C1375 1.390 . S
C1377 C1378 1.387 . S
C1377 H1380 0.950 . S
C1378 C1377 1.387 . S
C1378 C1381 1.387 . S
H1379 C1375 0.950 . S
H1380 C1377 0.950 . S
C1381 C1372 1.390 . S
C1381 H1374 0.950 . S
C1381 C1378 1.387 . S
C1382 C1383 1.387 . S
C1382 H1386 0.950 . S
C1382 C1391 1.390 . S
C1383 C1382 1.387 . S
C1383 C1385 1.387 . S
H1384 C1391 0.950 . S
C1385 C1383 1.387 . S
C1385 C1387 1.390 . S
C1385 H1389 0.950 . S
H1386 C1382 0.950 . S
C1387 C1385 1.390 . S
C1387 C1388 1.387 . S
C1387 H1390 0.950 . S
C1388 C1387 1.387 . S
C1388 C1391 1.387 . S
H1389 C1385 0.950 . S
H1390 C1387 0.950 . S
C1391 C1382 1.390 . S
C1391 H1384 0.950 . S
C1391 C1388 1.387 . S
C973 C664 1.249 . S
C978 C16 1.247 . S
C983 C97 1.246 . S
C988 C745 1.242 . S
C993 C826 1.120 . S
C998 C178 1.118 . S
C1003 C259 1.246 . S
C1008 C907 1.248 . S
C1013 C340 1.246 . S
C1018 C502 1.242 . S
C1023 C583 1.122 . S
C1028 C421 1.122 . S
C1033 C604 3.160 1_556 S
C1038 C37 3.171 . S
C1043 C685 3.141 . S
C1048 C118 3.146 . S
C1053 C766 3.171 . S
C1058 C199 3.160 . S
C1063 C280 3.172 . S
C1068 C847 3.159 . S
C1073 C361 3.141 . S
C1078 C928 3.146 . S
C1083 C523 3.172 . S
C1088 C442 3.159 . S
C1093 C423 1.877 . S
C1098 C52 1.641 . S
C1103 C133 1.686 . S
C1108 C18 1.885 . S
C1113 C99 1.883 . S
C1118 C214 1.690 . S
C1123 C180 1.876 . S
C1128 C295 1.642 . S
C1133 C261 1.882 . S
C1138 C376 1.691 . S
C1143 C457 1.687 . S
C1148 C342 1.884 . S
C1153 C585 1.876 . S
C1158 C538 1.645 . S
C1163 C666 1.884 . S
C1168 C619 1.690 . S
C1173 C747 1.884 . S
C1178 C700 1.691 . S
C1183 C828 1.878 . S
C1188 C781 1.641 . S
C1193 C862 1.689 . S
C1198 C909 1.885 . S
C1203 C504 1.884 . S
C1208 C943 1.690 . S
C1213 C34 1.426 . S
C1218 C617 1.447 . S
C1223 C115 1.463 . S
C1228 C698 1.487 . S
C1233 C779 1.558 . S
C1238 C196 1.529 . S
C1243 C860 1.454 . S
C1248 C277 1.428 . S
C1253 C358 1.464 . S
C1258 C941 1.485 . S
C1263 C536 1.557 . S
C1268 C439 1.529 . S
C1273 C520 1.431 . S
C1278 C455 1.451 . S
C1283 C601 1.531 . S
C1288 C50 1.563 . S
C1293 C131 1.490 . S
C1298 C682 1.462 . S
C1303 C763 1.429 . S
C1308 C212 1.448 . S
C1313 C293 1.561 . S
C1318 C844 1.533 . S
C1323 C374 1.489 . S
C1328 C925 1.465 . S
C1333 C707 0.805 . S
C1338 C59 0.795 . S
C1343 C140 0.799 . S
C1348 C788 0.796 . S
C1353 C869 0.907 . S
C1358 C221 0.913 . S
C1363 C302 0.802 . S
C1368 C950 0.808 . S
C1373 C383 0.807 . S
C1378 C545 0.803 . S
C1383 C626 0.916 . S
C1388 C464 0.912 . S
