# Generated by pormake.
# Topology smm, (6)-cn, num edge types: 1
# Building blocks:
#     Node 0, Type 0, BuildingBlock: BETFAJ_clean_sbu_0, # of connection points: 6
#     Node 1, Type 0, BuildingBlock: BETFAJ_clean_sbu_0, # of connection points: 6
#     Node 2, Type 0, BuildingBlock: BETFAJ_clean_sbu_0, # of connection points: 6
#     Node 3, Type 0, BuildingBlock: BETFAJ_clean_sbu_0, # of connection points: 6
#     Node 4, Type 0, BuildingBlock: BETFAJ_clean_sbu_0, # of connection points: 6
#     Node 5, Type 0, BuildingBlock: BETFAJ_clean_sbu_0, # of connection points: 6
#     Node 6, Type 0, BuildingBlock: BETFAJ_clean_sbu_0, # of connection points: 6
#     Node 7, Type 0, BuildingBlock: BETFAJ_clean_sbu_0, # of connection points: 6
#     Node 8, Type 0, BuildingBlock: BETFAJ_clean_sbu_0, # of connection points: 6
#     Edge 9, Type (0, 0), BuildingBlock: EYOCIG_clean_linker_4, # of connection points: 2
#     Edge 10, Type (0, 0), BuildingBlock: EYOCIG_clean_linker_4, # of connection points: 2
#     Edge 11, Type (0, 0), BuildingBlock: EYOCIG_clean_linker_4, # of connection points: 2
#     Edge 12, Type (0, 0), BuildingBlock: EYOCIG_clean_linker_4, # of connection points: 2
#     Edge 13, Type (0, 0), BuildingBlock: EYOCIG_clean_linker_4, # of connection points: 2
#     Edge 14, Type (0, 0), BuildingBlock: EYOCIG_clean_linker_4, # of connection points: 2
#     Edge 15, Type (0, 0), BuildingBlock: EYOCIG_clean_linker_4, # of connection points: 2
#     Edge 16, Type (0, 0), BuildingBlock: EYOCIG_clean_linker_4, # of connection points: 2
#     Edge 17, Type (0, 0), BuildingBlock: EYOCIG_clean_linker_4, # of connection points: 2
#     Edge 18, Type (0, 0), BuildingBlock: EYOCIG_clean_linker_4, # of connection points: 2
#     Edge 19, Type (0, 0), BuildingBlock: EYOCIG_clean_linker_4, # of connection points: 2
#     Edge 20, Type (0, 0), BuildingBlock: EYOCIG_clean_linker_4, # of connection points: 2
#     Edge 21, Type (0, 0), BuildingBlock: EYOCIG_clean_linker_4, # of connection points: 2
#     Edge 22, Type (0, 0), BuildingBlock: EYOCIG_clean_linker_4, # of connection points: 2
#     Edge 23, Type (0, 0), BuildingBlock: EYOCIG_clean_linker_4, # of connection points: 2
#     Edge 24, Type (0, 0), BuildingBlock: EYOCIG_clean_linker_4, # of connection points: 2
#     Edge 25, Type (0, 0), BuildingBlock: EYOCIG_clean_linker_4, # of connection points: 2
#     Edge 26, Type (0, 0), BuildingBlock: EYOCIG_clean_linker_4, # of connection points: 2
#     Edge 27, Type (0, 0), BuildingBlock: EYOCIG_clean_linker_4, # of connection points: 2
#     Edge 28, Type (0, 0), BuildingBlock: EYOCIG_clean_linker_4, # of connection points: 2
#     Edge 29, Type (0, 0), BuildingBlock: EYOCIG_clean_linker_4, # of connection points: 2
#     Edge 30, Type (0, 0), BuildingBlock: EYOCIG_clean_linker_4, # of connection points: 2
#     Edge 31, Type (0, 0), BuildingBlock: EYOCIG_clean_linker_4, # of connection points: 2
#     Edge 32, Type (0, 0), BuildingBlock: EYOCIG_clean_linker_4, # of connection points: 2
#     Edge 33, Type (0, 0), BuildingBlock: EYOCIG_clean_linker_4, # of connection points: 2
#     Edge 34, Type (0, 0), BuildingBlock: EYOCIG_clean_linker_4, # of connection points: 2
#     Edge 35, Type (0, 0), BuildingBlock: EYOCIG_clean_linker_4, # of connection points: 2
# Relax obj value: 0.038
# Max RMSD: 0.115
# Mean RMSD: 0.115
data_MOF--net-smm--node1-BETFAJ_clean_sbu_0--edge1-EYOCIG_clean_linker_4
_symmetry_space_group_name_H-M    P1
_symmetry_Int_Tables_number       1
_symmetry_cell_setting            triclinic
loop_
_symmetry_equiv_pos_as_xyz
'x, y, z'
_cell_length_a     60.337876
_cell_length_b     60.351505
_cell_length_c     11.408247
_cell_angle_alpha  90.003888
_cell_angle_beta   89.98851
_cell_angle_gamma 120.01335
loop_
_atom_site_label
_atom_site_type_symbol
_atom_site_fract_x
_atom_site_fract_y
_atom_site_fract_z
_atom_type_partial_charge
Sm0 Sm 0.06943 0.23124 -0.01417 0.0
Sm1 Sm 1.02348 0.17643 0.00511 0.0
C2 C 0.10033 0.27951 0.92197 0.0
C3 C 0.1047 0.30607 0.91967 0.0
C4 C 0.09923 0.31552 0.81742 0.0
C5 C 0.10955 0.34186 0.80126 0.0
C6 C 0.12546 0.35908 0.88691 0.0
C7 C 0.12895 0.3498 -0.00634 0.0
C8 C 0.11863 0.32344 0.01007 0.0
C9 C 0.05991 0.21224 0.20903 0.0
C10 C 1.01176 0.22221 0.04637 0.0
C11 C 0.99205 0.12707 0.04775 0.0
C12 C 0.98781 0.10086 0.0285 0.0
C13 C 0.99146 0.08761 0.12134 0.0
C14 C 0.98151 0.06111 0.11465 0.0
C15 C 0.96785 0.04766 0.01504 0.0
C16 C 0.96616 0.06099 0.91842 0.0
C17 C 0.97609 0.08741 0.92485 0.0
C18 C 1.03443 0.19616 0.78229 0.0
C19 C 0.08193 0.18557 -0.01466 0.0
O20 O 0.0829 0.26232 0.85256 0.0
O21 O 0.10231 0.27005 0.02206 0.0
O22 O 0.04306 0.20872 0.13458 0.0
O23 O 0.08279 0.22766 0.16982 0.0
O24 O 1.0345 0.23723 -0.00035 0.0
O25 O 1.00353 0.19794 0.07131 0.0
O26 O 1.01008 0.14223 0.12044 0.0
O27 O 0.98953 0.13919 0.95825 0.0
O28 O 0.05072 0.19863 0.85766 0.0
O29 O 1.01133 0.18206 0.82125 0.0
O30 O 0.05814 0.17075 0.01943 0.0
O31 O 0.09097 0.20949 0.95142 0.0
H32 H 0.08855 0.30276 0.74618 0.0
H33 H 0.10656 0.3488 0.71852 0.0
H34 H 0.14109 0.36293 0.06103 0.0
H35 H 0.12314 0.31688 0.09012 0.0
H36 H 1.00047 0.0974 0.20215 0.0
H37 H 0.98305 0.051 0.18988 0.0
H38 H 0.95576 0.05077 0.84061 0.0
H39 H 0.97304 0.09693 0.85138 0.0
Sm40 Sm 0.85169 0.86281 -0.01351 0.0
Sm41 Sm 0.90643 0.8716 0.00571 0.0
C42 C 0.80345 0.84558 0.92219 0.0
C43 C 0.77682 0.82352 0.9199 0.0
C44 C 0.7673 0.80861 0.81764 0.0
C45 C 0.74094 0.7927 0.8015 0.0
C46 C 0.72375 0.79148 0.88717 0.0
C47 C 0.7331 0.80426 -0.0061 0.0
C48 C 0.75948 0.82019 0.01029 0.0
C49 C 0.87079 0.87251 0.20952 0.0
C50 C 0.86057 0.81414 0.04814 0.0
C51 C 0.95582 0.88961 0.04785 0.0
C52 C 0.98193 0.91164 0.02737 0.0
C53 C 0.99528 0.92872 0.11949 0.0
C54 C 1.02175 0.94536 0.11174 0.0
C55 C 1.03507 0.94507 0.01177 0.0
C56 C 1.02161 0.92989 0.91576 0.0
C57 C 0.99522 0.91329 0.92324 0.0
C58 C 0.88682 0.86296 0.78267 0.0
C59 C 0.89738 0.92094 -0.01369 0.0
O60 O 0.82061 0.84516 0.85318 0.0
O61 O 0.81293 0.8571 0.02215 0.0
O62 O 0.87423 0.85906 0.1355 0.0
O63 O 0.8553 0.87987 0.17019 0.0
O64 O 0.84556 0.82186 0.00134 0.0
O65 O 0.88487 0.83018 0.07262 0.0
O66 O 0.94071 0.89258 0.12039 0.0
O67 O 0.94362 0.87474 0.95907 0.0
O68 O 0.88432 0.87674 0.8582 0.0
O69 O 0.90078 0.85383 0.82182 0.0
O70 O 0.91217 0.91194 0.02023 0.0
O71 O 0.87346 0.90609 0.95226 0.0
H72 H 0.78003 0.81062 0.74639 0.0
H73 H 0.73395 0.78277 0.71878 0.0
H74 H 0.72 0.80335 0.06129 0.0
H75 H 0.76609 0.83125 0.09033 0.0
H76 H 0.98562 0.928 0.20061 0.0
H77 H 1.03197 0.95714 0.18651 0.0
H78 H 1.03173 0.92963 0.83768 0.0
H79 H 0.98561 0.9006 0.85026 0.0
Sm80 Sm 0.21981 1.01324 -0.01483 0.0
Sm81 Sm 0.21123 0.05934 0.00473 0.0
C82 C 0.23705 0.98226 0.92109 0.0
C83 C 0.25922 0.97785 0.9192 0.0
C84 C 0.27419 0.9833 0.81711 0.0
C85 C 0.29023 0.97298 0.80134 0.0
C86 C 0.29151 0.9571 0.88722 0.0
C87 C 0.27868 0.95364 -0.00616 0.0
C88 C 0.26262 0.96396 0.00986 0.0
C89 C 0.21015 1.02259 0.20846 0.0
C90 C 0.26859 0.07071 0.04699 0.0
C91 C 0.19337 0.09082 0.04763 0.0
C92 C 0.17145 0.09511 0.02783 0.0
C93 C 0.1545 0.09153 0.12041 0.0
C94 C 0.13798 0.10151 0.11321 0.0
C95 C 0.13825 0.11512 0.01333 0.0
C96 C 0.15331 0.11673 0.91695 0.0
C97 C 0.16978 0.10678 0.92389 0.0
C98 C 0.22003 0.04842 0.78172 0.0
C99 C 0.16176 1.00105 -0.01652 0.0
O100 O 0.23744 0.99979 0.85193 0.0
O101 O 0.22548 0.9802 0.02093 0.0
O102 O 0.22364 0.03951 0.13447 0.0
O103 O 0.2026 0.99974 0.16862 0.0
O104 O 0.2608 0.048 -5e-05 0.0
O105 O 0.25263 0.07905 0.07175 0.0
O106 O 0.19032 0.07265 0.11982 0.0
O107 O 0.20819 0.09346 0.95864 0.0
O108 O 0.20613 0.03215 0.85704 0.0
O109 O 0.22912 0.07151 0.82084 0.0
O110 O 0.17081 0.02481 0.01809 0.0
O111 O 0.17657 0.99193 0.94961 0.0
H112 H 0.27214 0.99396 0.74569 0.0
H113 H 0.3002 0.97596 0.7187 0.0
H114 H 0.27964 0.94152 0.06141 0.0
H115 H 0.25152 0.95947 0.08982 0.0
H116 H 0.15523 0.08256 0.20141 0.0
H117 H 0.12629 0.10001 0.18826 0.0
H118 H 0.15354 0.1271 0.83892 0.0
H119 H 0.18237 0.10977 0.85058 0.0
Sm120 Sm 0.7362 0.56449 0.31941 0.0
Sm121 Sm 0.69016 0.50977 0.33889 0.0
C122 C 0.7671 0.6127 0.25466 0.0
C123 C 0.77158 0.6393 0.25271 0.0
C124 C 0.76617 0.64884 0.15058 0.0
C125 C 0.77657 0.67519 0.13466 0.0
C126 C 0.7925 0.69235 0.22042 0.0
C127 C 0.79595 0.68299 0.32706 0.0
C128 C 0.78554 0.65661 0.34324 0.0
C129 C 0.72711 0.54526 0.54208 0.0
C130 C 0.67869 0.55569 0.38225 0.0
C131 C 0.65874 0.46042 0.38193 0.0
C132 C 0.65451 0.43424 0.36234 0.0
C133 C 0.6582 0.42097 0.45496 0.0
C134 C 0.64827 0.39448 0.44807 0.0
C135 C 0.63459 0.38106 0.34846 0.0
C136 C 0.63287 0.39441 0.25201 0.0
C137 C 0.64277 0.42082 0.25864 0.0
C138 C 0.70139 0.52925 0.11535 0.0
C139 C 0.74848 0.51868 0.31785 0.0
O140 O 0.74944 0.59553 0.18602 0.0
O141 O 0.76931 0.60324 0.35435 0.0
O142 O 0.71007 0.54192 0.46889 0.0
O143 O 0.74991 0.56076 0.5022 0.0
O144 O 0.70145 0.5707 0.33567 0.0
O145 O 0.67031 0.53134 0.40588 0.0
O146 O 0.67689 0.47558 0.45409 0.0
O147 O 0.65607 0.47255 0.29282 0.0
O148 O 0.71754 0.5318 0.1916 0.0
O149 O 0.67825 0.51534 0.15414 0.0
O150 O 0.72474 0.50396 0.35277 0.0
O151 O 0.75755 0.54259 0.28359 0.0
H152 H 0.75546 0.63612 0.07926 0.0
H153 H 0.77361 0.68219 0.05201 0.0
H154 H 0.80812 0.69607 0.39452 0.0
H155 H 0.79001 0.64999 0.42321 0.0
H156 H 0.66722 0.43074 0.53579 0.0
H157 H 0.64984 0.38435 0.52318 0.0
H158 H 0.62244 0.3842 0.1742 0.0
H159 H 0.6397 0.43036 0.18533 0.0
Sm160 Sm 0.51809 0.19631 0.31941 0.0
Sm161 Sm 0.57279 0.20494 0.33873 0.0
C162 C 0.46988 0.17902 0.25481 0.0
C163 C 0.44335 0.15677 0.25227 0.0
C164 C 0.43399 0.14185 0.14997 0.0
C165 C 0.40766 0.12575 0.13362 0.0
C166 C 0.39038 0.12436 0.21912 0.0
C167 C 0.39959 0.13713 0.32594 0.0
C168 C 0.42593 0.15325 0.34255 0.0
C169 C 0.53723 0.20615 0.54213 0.0
C170 C 0.52682 0.14753 0.38065 0.0
C171 C 0.62213 0.22272 0.38102 0.0
C172 C 0.64834 0.24462 0.36089 0.0
C173 C 0.66173 0.2616 0.45328 0.0
C174 C 0.68823 0.27812 0.44578 0.0
C175 C 0.70154 0.27782 0.34579 0.0
C176 C 0.68806 0.26273 0.2496 0.0
C177 C 0.66164 0.24625 0.25684 0.0
C178 C 0.55333 0.19681 0.11533 0.0
C179 C 0.5639 0.25438 0.31992 0.0
O180 O 0.48712 0.17885 0.18555 0.0
O181 O 0.47928 0.19043 0.35508 0.0
O182 O 0.54058 0.19256 0.46843 0.0
O183 O 0.52174 0.21351 0.50281 0.0
O184 O 0.51187 0.15533 0.33395 0.0
O185 O 0.55114 0.16349 0.40511 0.0
O186 O 0.60707 0.2258 0.45347 0.0
O187 O 0.6099 0.20791 0.29212 0.0
O188 O 0.55081 0.21041 0.19162 0.0
O189 O 0.56718 0.18751 0.15397 0.0
O190 O 0.57862 0.24531 0.35407 0.0
O191 O 0.53999 0.2396 0.28538 0.0
H192 H 0.4468 0.14399 0.07884 0.0
H193 H 0.40077 0.11581 0.05082 0.0
H194 H 0.3864 0.13608 0.39319 0.0
H195 H 0.43242 0.16431 0.42264 0.0
H196 H 0.65206 0.2609 0.53436 0.0
H197 H 0.69845 0.28984 0.5207 0.0
H198 H 0.69817 0.26247 0.1715 0.0
H199 H 0.652 0.23362 0.18368 0.0
Sm200 Sm 0.88643 0.34645 0.31896 0.0
Sm201 Sm 0.87775 0.39254 0.33822 0.0
C202 C 0.90367 0.3155 0.25452 0.0
C203 C 0.9258 0.31105 0.25194 0.0
C204 C 0.94073 0.31657 0.14966 0.0
C205 C 0.95669 0.3062 0.13315 0.0
C206 C 0.95794 0.2902 0.21845 0.0
C207 C 0.94515 0.28665 0.32525 0.0
C208 C 0.92918 0.29703 0.34202 0.0
C209 C 0.87695 0.35603 0.54211 0.0
C210 C 0.9352 0.40402 0.38015 0.0
C211 C 0.85982 0.42396 0.38074 0.0
C212 C 0.83786 0.42817 0.36042 0.0
C213 C 0.82079 0.42449 0.45259 0.0
C214 C 0.80422 0.4344 0.44492 0.0
C215 C 0.80455 0.44803 0.34498 0.0
C216 C 0.81972 0.44972 0.24896 0.0
C217 C 0.83625 0.43984 0.25637 0.0
C218 C 0.88649 0.38153 0.11541 0.0
C219 C 0.82833 0.33415 0.31799 0.0
O220 O 0.90396 0.33298 0.18535 0.0
O221 O 0.89223 0.31349 0.3547 0.0
O222 O 0.8903 0.37283 0.46754 0.0
O223 O 0.86948 0.33313 0.50313 0.0
O224 O 0.92742 0.38129 0.33322 0.0
O225 O 0.9192 0.41232 0.40501 0.0
O226 O 0.85676 0.40581 0.45307 0.0
O227 O 0.8747 0.42664 0.29196 0.0
O228 O 0.87264 0.36528 0.19088 0.0
O229 O 0.89555 0.40464 0.15426 0.0
O230 O 0.83736 0.35793 0.3522 0.0
O231 O 0.84316 0.32505 0.28416 0.0
H232 H 0.9387 0.32734 0.07867 0.0
H233 H 0.96664 0.30923 0.05038 0.0
H234 H 0.94609 0.27443 0.39236 0.0
H235 H 0.9181 0.29248 0.42207 0.0
H236 H 0.82147 0.41551 0.53367 0.0
H237 H 0.79244 0.43285 0.51971 0.0
H238 H 0.82001 0.4601 0.1709 0.0
H239 H 0.84893 0.4429 0.18335 0.0
Sm240 Sm 0.40284 0.89789 0.65268 0.0
Sm241 Sm 0.3569 0.84319 0.6722 0.0
C242 C 0.43369 0.94611 0.58797 0.0
C243 C 0.43804 0.97266 0.58538 0.0
C244 C 0.43249 0.98204 0.48307 0.0
C245 C 0.44276 1.00836 0.46662 0.0
C246 C 0.4587 0.02564 0.55201 0.0
C247 C 0.46226 1.01643 0.65883 0.0
C248 C 0.45198 0.99009 0.67554 0.0
C249 C 0.39392 0.87855 0.87512 0.0
C250 C 0.34539 0.88908 0.71572 0.0
C251 C 0.32552 0.79383 0.71496 0.0
C252 C 0.3213 0.76767 0.69448 0.0
C253 C 0.325 0.75429 0.78657 0.0
C254 C 0.3151 0.72781 0.77888 0.0
C255 C 0.30145 0.7145 0.67898 0.0
C256 C 0.29973 0.72798 0.58304 0.0
C257 C 0.30959 0.75438 0.59047 0.0
C258 C 0.36817 0.86246 0.44821 0.0
C259 C 0.41526 0.85221 0.6516 0.0
O260 O 0.4162 0.92886 0.51895 0.0
O261 O 0.43577 0.93672 0.68812 0.0
O262 O 0.37683 0.87527 0.80237 0.0
O263 O 0.4167 0.89412 0.83516 0.0
O264 O 0.36808 0.90407 0.6687 0.0
O265 O 0.33705 0.86475 0.73951 0.0
O266 O 0.34378 0.80894 0.78678 0.0
O267 O 0.32272 0.80602 0.62651 0.0
O268 O 0.38431 0.86514 0.52477 0.0
O269 O 0.34503 0.84868 0.48723 0.0
O270 O 0.39151 0.83745 0.68637 0.0
O271 O 0.42428 0.87611 0.61719 0.0
H272 H 0.42178 0.96922 0.41202 0.0
H273 H 0.43971 1.01525 0.38383 0.0
H274 H 0.47442 0.02961 0.72601 0.0
H275 H 0.45655 0.98359 0.75562 0.0
H276 H 0.33399 0.76395 0.86761 0.0
H277 H 0.31667 0.7176 0.85362 0.0
H278 H 0.28932 0.71787 0.50501 0.0
H279 H 0.30652 0.76401 0.51753 0.0
Sm280 Sm 0.18489 0.52967 0.65242 0.0
Sm281 Sm 0.23957 0.53827 0.67207 0.0
C282 C 0.13667 0.51235 0.58769 0.0
C283 C 0.1101 0.49015 0.58513 0.0
C284 C 0.10072 0.47523 0.48284 0.0
C285 C 0.07438 0.45918 0.4664 0.0
C286 C 0.0571 0.45784 0.5518 0.0
C287 C 0.06632 0.47062 0.65861 0.0
C288 C 0.09267 0.48668 0.6753 0.0
C289 C 0.20389 0.53941 0.87566 0.0
C290 C 0.19359 0.48091 0.71479 0.0
C291 C 0.28892 0.55614 0.71502 0.0
C292 C 0.31513 0.57811 0.69559 0.0
C293 C 0.3284 0.59504 0.7883 0.0
C294 C 0.3549 0.61161 0.78145 0.0
C295 C 0.36834 0.6114 0.6818 0.0
C296 C 0.35499 0.59634 0.5853 0.0
C297 C 0.32857 0.57982 0.59189 0.0
C298 C 0.21989 0.52953 0.44896 0.0
C299 C 0.23076 0.58775 0.65092 0.0
O300 O 0.1539 0.51209 0.51869 0.0
O301 O 0.14607 0.52383 0.68781 0.0
O302 O 0.20732 0.5259 0.80182 0.0
O303 O 0.18856 0.54691 0.83574 0.0
O304 O 0.17865 0.48868 0.66786 0.0
O305 O 0.21792 0.49687 0.73917 0.0
O306 O 0.27376 0.55909 0.78741 0.0
O307 O 0.27678 0.54142 0.62573 0.0
O308 O 0.2175 0.54339 0.52436 0.0
O309 O 0.23386 0.52041 0.48812 0.0
O310 O 0.24547 0.5787 0.68542 0.0
O311 O 0.20681 0.57293 0.61713 0.0
H312 H 0.11353 0.47732 0.41178 0.0
H313 H 0.06749 0.44924 0.38362 0.0
H314 H 0.05314 0.46961 0.72581 0.0
H315 H 0.09918 0.49775 0.75538 0.0
H316 H 0.31863 0.59428 0.86915 0.0
H317 H 0.36503 0.6233 0.85661 0.0
H318 H 0.3652 0.59614 0.50746 0.0
H319 H 0.31903 0.56722 0.5185 0.0
Sm320 Sm 0.55321 0.6801 0.65323 0.0
Sm321 Sm 0.54445 0.72609 0.67228 0.0
C322 C 0.5705 0.64915 0.58891 0.0
C323 C 0.59259 0.64459 0.58657 0.0
C324 C 0.60749 0.64996 0.48427 0.0
C325 C 0.62342 0.63954 0.46816 0.0
C326 C 0.62468 0.62361 0.5539 0.0
C327 C 0.6119 0.62019 0.66064 0.0
C328 C 0.59595 0.63062 0.67699 0.0
C329 C 0.5431 0.68937 0.87561 0.0
C330 C 0.60189 0.73764 0.7152 0.0
C331 C 0.52654 0.75754 0.71457 0.0
C332 C 0.5046 0.76175 0.69418 0.0
C333 C 0.48759 0.75813 0.78646 0.0
C334 C 0.47104 0.76806 0.77881 0.0
C335 C 0.47135 0.78165 0.67878 0.0
C336 C 0.48647 0.78328 0.58265 0.0
C337 C 0.50298 0.77338 0.59003 0.0
C338 C 0.55251 0.71479 0.44869 0.0
C339 C 0.49508 0.6677 0.65333 0.0
O340 O 0.5709 0.66671 0.51988 0.0
O341 O 0.55897 0.6471 0.68888 0.0
O342 O 0.55676 0.7063 0.80207 0.0
O343 O 0.5359 0.66653 0.83662 0.0
O344 O 0.59417 0.71491 0.66856 0.0
O345 O 0.58588 0.74597 0.73916 0.0
O346 O 0.52345 0.73937 0.78687 0.0
O347 O 0.54144 0.76021 0.62588 0.0
O348 O 0.53901 0.69863 0.52516 0.0
O349 O 0.56185 0.73793 0.48757 0.0
O350 O 0.5041 0.69149 0.68737 0.0
O351 O 0.50992 0.65863 0.61895 0.0
H352 H 0.60547 0.66067 0.41299 0.0
H353 H 0.63336 0.64249 0.38543 0.0
H354 H 0.61283 0.60804 0.7281 0.0
H355 H 0.58489 0.62617 0.75708 0.0
H356 H 0.48829 0.74918 0.86761 0.0
H357 H 0.4593 0.76656 0.85368 0.0
H358 H 0.48674 0.79364 0.50452 0.0
H359 H 0.51563 0.77639 0.51695 0.0
C360 C 0.15345 0.40803 0.8308 0.0
C361 C 0.1409 0.38583 0.85836 0.0
C362 C 0.16902 0.43348 0.79238 0.0
C363 C 0.18143 0.45529 0.75913 0.0
C364 C 0.6748 0.77061 0.83112 0.0
C365 C 0.697 0.78023 0.85875 0.0
C366 C 0.64934 0.76068 0.79266 0.0
C367 C 0.62752 0.75121 0.75946 0.0
C368 C 0.31249 0.9291 0.83159 0.0
C369 C 0.30282 0.94165 0.859 0.0
C370 C 0.32242 0.91356 0.79329 0.0
C371 C 0.33185 0.90117 0.76008 0.0
C372 C 0.34145 0.10337 0.16271 0.0
C373 C 0.36365 0.11303 0.19031 0.0
C374 C 0.31601 0.09351 0.12435 0.0
C375 C 0.29421 0.08414 0.09123 0.0
C376 C 0.97881 0.26217 0.16172 0.0
C377 C 0.9692 0.27473 0.18953 0.0
C378 C 0.98871 0.24663 0.12328 0.0
C379 C 0.99819 0.23428 0.09035 0.0
C380 C 0.83612 0.76674 0.12588 0.0
C381 C 0.84848 0.78854 0.09255 0.0
C382 C 0.82058 0.7413 0.16446 0.0
C383 C 0.80801 0.7191 0.19208 0.0
C384 C 1.00815 0.43684 0.49535 0.0
C385 C 1.03036 0.44651 0.52296 0.0
C386 C 0.98268 0.42694 0.45711 0.0
C387 C 0.96085 0.41752 0.42416 0.0
C388 C 0.64566 0.59561 0.49806 0.0
C389 C 0.63599 0.60815 0.52558 0.0
C390 C 0.65564 0.58011 0.4597 0.0
C391 C 0.66513 0.56777 0.42648 0.0
C392 C 0.50225 0.10004 0.45732 0.0
C393 C 0.51466 0.12187 0.42449 0.0
C394 C 0.48667 0.07458 0.49551 0.0
C395 C 0.47412 0.05238 0.52312 0.0
C396 C 0.11646 0.14363 0.00534 0.0
C397 C 0.12592 0.13026 0.01393 0.0
C398 C 0.1071 0.16072 -0.00675 0.0
C399 C 0.09775 0.17419 -0.0144 0.0
C400 C 0.92226 0.97095 -0.0049 0.0
C401 C 0.90877 0.94813 -0.01295 0.0
C402 C 0.93936 0.99737 0.00752 0.0
C403 C 0.95275 1.0202 0.0161 0.0
C404 C 0.08535 0.96689 0.0031 0.0
C405 C 0.06252 0.95743 0.01211 0.0
C406 C 0.11175 0.97612 -0.00923 0.0
C407 C 0.13456 0.98535 -0.01667 0.0
C408 C 0.77346 0.49364 0.32447 0.0
C409 C 0.7642 0.5072 0.31731 0.0
C410 C 0.78274 0.4765 0.33646 0.0
C411 C 0.7922 0.46313 0.34531 0.0
C412 C 0.60609 0.33077 0.34087 0.0
C413 C 0.61948 0.35361 0.34947 0.0
C414 C 0.58893 0.30437 0.32853 0.0
C415 C 0.57538 0.28157 0.32054 0.0
C416 C 0.75185 0.29966 0.33748 0.0
C417 C 0.729 0.29017 0.34615 0.0
C418 C 0.77829 0.30904 0.32548 0.0
C419 C 0.80112 0.31839 0.31806 0.0
C420 C 0.44959 0.81015 0.6704 0.0
C421 C 0.45904 0.79678 0.67913 0.0
C422 C 0.4403 0.82727 0.65845 0.0
C423 C 0.43101 0.84079 0.6512 0.0
C424 C 0.25585 0.63778 0.65816 0.0
C425 C 0.24227 0.61496 0.65077 0.0
C426 C 0.27299 0.6642 0.67036 0.0
C427 C 0.28635 0.68704 0.67928 0.0
C428 C 0.44507 0.64259 0.66188 0.0
C429 C 0.46789 0.65192 0.65393 0.0
C430 C 0.41864 0.63326 0.67418 0.0
C431 C 0.3958 0.62378 0.68276 0.0
C432 C 0.04461 0.20328 0.55627 0.0
C433 C 0.04011 0.20009 0.65963 0.0
C434 C 0.04983 0.20594 0.43512 0.0
C435 C 0.05439 0.2088 0.33178 0.0
C436 C 0.8805 0.86667 0.55636 0.0
C437 C 0.88332 0.86507 0.65987 0.0
C438 C 0.87784 0.86928 0.43526 0.0
C439 C 0.87455 0.87083 0.33225 0.0
C440 C 0.21684 0.03826 0.55554 0.0
C441 C 0.21821 0.04275 0.65896 0.0
C442 C 0.21411 0.03283 0.43451 0.0
C443 C 0.2122 0.02797 0.33142 0.0
C444 C 0.71713 0.53768 0.76804 0.0
C445 C 0.72187 0.54123 0.66498 0.0
C446 C 0.71181 0.53502 0.88917 0.0
C447 C 0.70721 0.53245 -0.00739 0.0
C448 C 0.5447 0.20382 0.76813 0.0
C449 C 0.54131 0.20486 0.66482 0.0
C450 C 0.54737 0.20128 0.8893 0.0
C451 C 0.55002 0.19933 -0.00733 0.0
C452 C 0.88074 0.36605 0.76827 0.0
C453 C 0.87908 0.36162 0.66481 0.0
C454 C 0.88333 0.37124 0.88946 0.0
C455 C 0.88469 0.3758 -0.00723 0.0
C456 C 0.37856 0.86735 0.2219 0.0
C457 C 0.37394 0.86517 0.32535 0.0
C458 C 0.38399 0.87009 0.10083 0.0
C459 C 0.38873 0.87405 -0.0021 0.0
C460 C 0.21034 0.53567 0.10175 0.0
C461 C 0.2073 0.53748 -0.00135 0.0
C462 C 0.21305 0.53292 0.22277 0.0
C463 C 0.21613 0.53144 0.32617 0.0
C464 C 0.54725 0.70452 0.22242 0.0
C465 C 0.54956 0.70905 0.32589 0.0
C466 C 0.54469 0.69931 0.10123 0.0
C467 C 0.54398 0.69481 -0.00189 0.0
loop_
_geom_bond_atom_site_label_1
_geom_bond_atom_site_label_2
_geom_bond_distance
_geom_bond_site_symmetry_2
_ccdc_geom_bond_type
Sm0 C2 2.846 1_554 S
Sm0 O20 2.543 1_554 S
Sm0 O21 2.450 . S
Sm0 O22 2.681 . S
Sm0 O23 2.464 . S
Sm0 O24 2.396 . S
Sm0 O28 2.386 1_554 S
Sm0 O31 2.408 . S
Sm1 C11 2.846 1_556 S
Sm1 O22 2.386 1_656 S
Sm1 O25 2.408 1_556 S
Sm1 O26 2.543 1_556 S
Sm1 O27 2.450 . S
Sm1 O28 2.681 1_655 S
Sm1 O29 2.464 . S
Sm1 O30 2.396 1_655 S
C2 Sm0 2.846 1_556 S
C2 C3 1.506 . S
C2 O20 1.261 . S
C2 O21 1.242 1_556 S
C3 C2 1.506 . S
C3 C4 1.358 . S
C3 C8 1.382 1_556 S
C4 C3 1.358 . S
C4 C5 1.385 . S
C4 H32 0.930 . S
C5 C4 1.385 . S
C5 C6 1.395 . S
C5 H33 0.929 . S
C6 C5 1.395 . S
C6 C7 1.335 1_556 S
C7 C6 1.335 1_554 S
C7 C8 1.398 . S
C7 H34 0.930 . S
C8 C3 1.382 1_554 S
C8 C7 1.398 . S
C8 H35 0.929 . S
C9 O22 1.271 . S
C9 O23 1.251 . S
C10 O24 1.252 1_655 S
C10 O25 1.272 . S
C11 Sm1 2.846 1_554 S
C11 C12 1.506 . S
C11 O26 1.261 . S
C11 O27 1.242 1_554 S
C12 C11 1.506 . S
C12 C13 1.358 . S
C12 C17 1.382 1_554 S
C13 C12 1.358 . S
C13 C14 1.385 . S
C13 H36 0.930 . S
C14 C13 1.385 . S
C14 C15 1.395 . S
C14 H37 0.929 . S
C15 C14 1.395 . S
C15 C16 1.335 1_554 S
C16 C15 1.335 1_556 S
C16 C17 1.398 . S
C16 H38 0.930 . S
C17 C12 1.382 1_556 S
C17 C16 1.398 . S
C17 H39 0.929 . S
C18 O28 1.271 . S
C18 O29 1.251 1_455 S
C19 O30 1.252 . S
C19 O31 1.272 1_556 S
O20 Sm0 2.543 1_556 S
O20 C2 1.261 . S
O21 Sm0 2.450 . S
O21 C2 1.242 1_554 S
O22 Sm0 2.681 . S
O22 Sm1 2.386 1_454 S
O22 C9 1.271 . S
O23 Sm0 2.464 . S
O23 C9 1.251 . S
O24 Sm0 2.396 . S
O24 C10 1.252 1_455 S
O25 Sm1 2.408 1_554 S
O25 C10 1.272 . S
O26 Sm1 2.543 1_554 S
O26 C11 1.261 . S
O27 Sm1 2.450 . S
O27 C11 1.242 1_556 S
O28 Sm0 2.386 1_556 S
O28 Sm1 2.681 1_455 S
O28 C18 1.271 . S
O29 Sm1 2.464 . S
O29 C18 1.251 1_655 S
O30 Sm1 2.396 1_455 S
O30 C19 1.252 . S
O31 Sm0 2.408 . S
O31 C19 1.272 1_554 S
H32 C4 0.930 . S
H33 C5 0.929 . S
H34 C7 0.930 . S
H35 C8 0.929 . S
H36 C13 0.930 . S
H37 C14 0.929 . S
H38 C16 0.930 . S
H39 C17 0.929 . S
Sm40 C42 2.846 1_554 S
Sm40 O60 2.543 1_554 S
Sm40 O61 2.450 . S
Sm40 O62 2.681 . S
Sm40 O63 2.464 . S
Sm40 O64 2.396 . S
Sm40 O68 2.386 1_554 S
Sm40 O71 2.408 . S
Sm41 C51 2.846 1_556 S
Sm41 O62 2.386 1_556 S
Sm41 O65 2.408 1_556 S
Sm41 O66 2.543 1_556 S
Sm41 O67 2.450 . S
Sm41 O68 2.681 . S
Sm41 O69 2.464 . S
Sm41 O70 2.396 . S
C42 Sm40 2.846 1_556 S
C42 C43 1.506 . S
C42 O60 1.261 . S
C42 O61 1.242 1_556 S
C43 C42 1.506 . S
C43 C44 1.358 . S
C43 C48 1.382 1_556 S
C44 C43 1.358 . S
C44 C45 1.385 . S
C44 H72 0.930 . S
C45 C44 1.385 . S
C45 C46 1.395 . S
C45 H73 0.929 . S
C46 C45 1.395 . S
C46 C47 1.335 1_556 S
C47 C46 1.335 1_554 S
C47 C48 1.398 . S
C47 H74 0.930 . S
C48 C43 1.382 1_554 S
C48 C47 1.398 . S
C48 H75 0.929 . S
C49 O62 1.271 . S
C49 O63 1.251 . S
C50 O64 1.252 . S
C50 O65 1.272 . S
C51 Sm41 2.846 1_554 S
C51 C52 1.506 . S
C51 O66 1.261 . S
C51 O67 1.242 1_554 S
C52 C51 1.506 . S
C52 C53 1.358 . S
C52 C57 1.382 1_554 S
C53 C52 1.358 . S
C53 C54 1.385 . S
C53 H76 0.930 . S
C54 C53 1.385 . S
C54 C55 1.364 1_655 S
C54 H77 0.929 . S
C55 C54 1.364 1_455 S
C55 C56 1.332 1_454 S
C56 C55 1.332 1_656 S
C56 C57 1.398 . S
C56 H78 0.930 1_655 S
C57 C52 1.382 1_556 S
C57 C56 1.398 . S
C57 H79 0.929 . S
C58 O68 1.271 . S
C58 O69 1.251 . S
C59 O70 1.252 . S
C59 O71 1.272 1_556 S
O60 Sm40 2.543 1_556 S
O60 C42 1.261 . S
O61 Sm40 2.450 . S
O61 C42 1.242 1_554 S
O62 Sm40 2.681 . S
O62 Sm41 2.386 1_554 S
O62 C49 1.271 . S
O63 Sm40 2.464 . S
O63 C49 1.251 . S
O64 Sm40 2.396 . S
O64 C50 1.252 . S
O65 Sm41 2.408 1_554 S
O65 C50 1.272 . S
O66 Sm41 2.543 1_554 S
O66 C51 1.261 . S
O67 Sm41 2.450 . S
O67 C51 1.242 1_556 S
O68 Sm40 2.386 1_556 S
O68 Sm41 2.681 . S
O68 C58 1.271 . S
O69 Sm41 2.464 . S
O69 C58 1.251 . S
O70 Sm41 2.396 . S
O70 C59 1.252 . S
O71 Sm40 2.408 . S
O71 C59 1.272 1_554 S
H72 C44 0.930 . S
H73 C45 0.929 . S
H74 C47 0.930 . S
H75 C48 0.929 . S
H76 C53 0.930 . S
H77 C54 0.929 . S
H78 C56 0.930 1_455 S
H79 C57 0.929 . S
Sm80 C82 2.846 1_554 S
Sm80 O100 2.543 1_554 S
Sm80 O101 2.450 . S
Sm80 O102 2.681 1_565 S
Sm80 O103 2.464 . S
Sm80 O104 2.396 1_565 S
Sm80 O108 2.386 1_564 S
Sm80 O111 2.408 . S
Sm81 C91 2.846 1_556 S
Sm81 O102 2.386 1_556 S
Sm81 O105 2.408 1_556 S
Sm81 O106 2.543 1_556 S
Sm81 O107 2.450 . S
Sm81 O108 2.681 . S
Sm81 O109 2.464 . S
Sm81 O110 2.396 . S
C82 Sm80 2.846 1_556 S
C82 C83 1.506 . S
C82 O100 1.261 . S
C82 O101 1.242 1_556 S
C83 C82 1.506 . S
C83 C84 1.358 . S
C83 C88 1.382 1_556 S
C84 C83 1.358 . S
C84 C85 1.385 . S
C84 H112 0.930 . S
C85 C84 1.385 . S
C85 C86 1.395 . S
C85 H113 0.929 . S
C86 C85 1.395 . S
C86 C87 1.335 1_556 S
C87 C86 1.335 1_554 S
C87 C88 1.398 . S
C87 H114 0.930 . S
C88 C83 1.382 1_554 S
C88 C87 1.398 . S
C88 H115 0.929 . S
C89 O102 1.271 . S
C89 O103 1.251 1_545 S
C90 O104 1.252 . S
C90 O105 1.272 . S
C91 Sm81 2.846 1_554 S
C91 C92 1.506 . S
C91 O106 1.261 . S
C91 O107 1.242 1_554 S
C92 C91 1.506 . S
C92 C93 1.358 . S
C92 C97 1.382 1_554 S
C93 C92 1.358 . S
C93 C94 1.385 . S
C93 H116 0.930 . S
C94 C93 1.385 . S
C94 C95 1.395 . S
C94 H117 0.929 . S
C95 C94 1.395 . S
C95 C96 1.335 1_554 S
C96 C95 1.335 1_556 S
C96 C97 1.398 . S
C96 H118 0.930 . S
C97 C92 1.382 1_556 S
C97 C96 1.398 . S
C97 H119 0.929 . S
C98 O108 1.271 . S
C98 O109 1.251 . S
C99 O110 1.252 1_565 S
C99 O111 1.272 1_556 S
O100 Sm80 2.543 1_556 S
O100 C82 1.261 . S
O101 Sm80 2.450 . S
O101 C82 1.242 1_554 S
O102 Sm80 2.681 1_545 S
O102 Sm81 2.386 1_554 S
O102 C89 1.271 . S
O103 Sm80 2.464 . S
O103 C89 1.251 1_565 S
O104 Sm80 2.396 1_545 S
O104 C90 1.252 . S
O105 Sm81 2.408 1_554 S
O105 C90 1.272 . S
O106 Sm81 2.543 1_554 S
O106 C91 1.261 . S
O107 Sm81 2.450 . S
O107 C91 1.242 1_556 S
O108 Sm80 2.386 1_546 S
O108 Sm81 2.681 . S
O108 C98 1.271 . S
O109 Sm81 2.464 . S
O109 C98 1.251 . S
O110 Sm81 2.396 . S
O110 C99 1.252 1_545 S
O111 Sm80 2.408 . S
O111 C99 1.272 1_554 S
H112 C84 0.930 . S
H113 C85 0.929 . S
H114 C87 0.930 . S
H115 C88 0.929 . S
H116 C93 0.930 . S
H117 C94 0.929 . S
H118 C96 0.930 . S
H119 C97 0.929 . S
Sm120 C122 2.846 . S
Sm120 O140 2.543 . S
Sm120 O141 2.450 . S
Sm120 O142 2.681 . S
Sm120 O143 2.464 . S
Sm120 O144 2.396 . S
Sm120 O148 2.386 . S
Sm120 O151 2.408 . S
Sm121 C131 2.846 . S
Sm121 O142 2.386 . S
Sm121 O145 2.408 . S
Sm121 O146 2.543 . S
Sm121 O147 2.450 . S
Sm121 O148 2.681 . S
Sm121 O149 2.464 . S
Sm121 O150 2.396 . S
C122 Sm120 2.846 . S
C122 C123 1.506 . S
C122 O140 1.261 . S
C122 O141 1.242 . S
C123 C122 1.506 . S
C123 C124 1.358 . S
C123 C128 1.382 . S
C124 C123 1.358 . S
C124 C125 1.385 . S
C124 H152 0.930 . S
C125 C124 1.385 . S
C125 C126 1.395 . S
C125 H153 0.929 . S
C126 C125 1.395 . S
C126 C127 1.335 . S
C127 C126 1.335 . S
C127 C128 1.398 . S
C127 H154 0.930 . S
C128 C123 1.382 . S
C128 C127 1.398 . S
C128 H155 0.929 . S
C129 O142 1.271 . S
C129 O143 1.251 . S
C130 O144 1.252 . S
C130 O145 1.272 . S
C131 Sm121 2.846 . S
C131 C132 1.506 . S
C131 O146 1.261 . S
C131 O147 1.242 . S
C132 C131 1.506 . S
C132 C133 1.358 . S
C132 C137 1.382 . S
C133 C132 1.358 . S
C133 C134 1.385 . S
C133 H156 0.930 . S
C134 C133 1.385 . S
C134 C135 1.395 . S
C134 H157 0.929 . S
C135 C134 1.395 . S
C135 C136 1.335 . S
C136 C135 1.335 . S
C136 C137 1.398 . S
C136 H158 0.930 . S
C137 C132 1.382 . S
C137 C136 1.398 . S
C137 H159 0.929 . S
C138 O148 1.271 . S
C138 O149 1.251 . S
C139 O150 1.252 . S
C139 O151 1.272 . S
O140 Sm120 2.543 . S
O140 C122 1.261 . S
O141 Sm120 2.450 . S
O141 C122 1.242 . S
O142 Sm120 2.681 . S
O142 Sm121 2.386 . S
O142 C129 1.271 . S
O143 Sm120 2.464 . S
O143 C129 1.251 . S
O144 Sm120 2.396 . S
O144 C130 1.252 . S
O145 Sm121 2.408 . S
O145 C130 1.272 . S
O146 Sm121 2.543 . S
O146 C131 1.261 . S
O147 Sm121 2.450 . S
O147 C131 1.242 . S
O148 Sm120 2.386 . S
O148 Sm121 2.681 . S
O148 C138 1.271 . S
O149 Sm121 2.464 . S
O149 C138 1.251 . S
O150 Sm121 2.396 . S
O150 C139 1.252 . S
O151 Sm120 2.408 . S
O151 C139 1.272 . S
H152 C124 0.930 . S
H153 C125 0.929 . S
H154 C127 0.930 . S
H155 C128 0.929 . S
H156 C133 0.930 . S
H157 C134 0.929 . S
H158 C136 0.930 . S
H159 C137 0.929 . S
Sm160 C162 2.846 . S
Sm160 O180 2.543 . S
Sm160 O181 2.450 . S
Sm160 O182 2.681 . S
Sm160 O183 2.464 . S
Sm160 O184 2.396 . S
Sm160 O188 2.386 . S
Sm160 O191 2.408 . S
Sm161 C171 2.846 . S
Sm161 O182 2.386 . S
Sm161 O185 2.408 . S
Sm161 O186 2.543 . S
Sm161 O187 2.450 . S
Sm161 O188 2.681 . S
Sm161 O189 2.464 . S
Sm161 O190 2.396 . S
C162 Sm160 2.846 . S
C162 C163 1.506 . S
C162 O180 1.261 . S
C162 O181 1.242 . S
C163 C162 1.506 . S
C163 C164 1.358 . S
C163 C168 1.382 . S
C164 C163 1.358 . S
C164 C165 1.385 . S
C164 H192 0.930 . S
C165 C164 1.385 . S
C165 C166 1.395 . S
C165 H193 0.929 . S
C166 C165 1.395 . S
C166 C167 1.335 . S
C167 C166 1.335 . S
C167 C168 1.398 . S
C167 H194 0.930 . S
C168 C163 1.382 . S
C168 C167 1.398 . S
C168 H195 0.929 . S
C169 O182 1.271 . S
C169 O183 1.251 . S
C170 O184 1.252 . S
C170 O185 1.272 . S
C171 Sm161 2.846 . S
C171 C172 1.506 . S
C171 O186 1.261 . S
C171 O187 1.242 . S
C172 C171 1.506 . S
C172 C173 1.358 . S
C172 C177 1.382 . S
C173 C172 1.358 . S
C173 C174 1.385 . S
C173 H196 0.930 . S
C174 C173 1.385 . S
C174 C175 1.395 . S
C174 H197 0.929 . S
C175 C174 1.395 . S
C175 C176 1.335 . S
C176 C175 1.335 . S
C176 C177 1.398 . S
C176 H198 0.930 . S
C177 C172 1.382 . S
C177 C176 1.398 . S
C177 H199 0.929 . S
C178 O188 1.271 . S
C178 O189 1.251 . S
C179 O190 1.252 . S
C179 O191 1.272 . S
O180 Sm160 2.543 . S
O180 C162 1.261 . S
O181 Sm160 2.450 . S
O181 C162 1.242 . S
O182 Sm160 2.681 . S
O182 Sm161 2.386 . S
O182 C169 1.271 . S
O183 Sm160 2.464 . S
O183 C169 1.251 . S
O184 Sm160 2.396 . S
O184 C170 1.252 . S
O185 Sm161 2.408 . S
O185 C170 1.272 . S
O186 Sm161 2.543 . S
O186 C171 1.261 . S
O187 Sm161 2.450 . S
O187 C171 1.242 . S
O188 Sm160 2.386 . S
O188 Sm161 2.681 . S
O188 C178 1.271 . S
O189 Sm161 2.464 . S
O189 C178 1.251 . S
O190 Sm161 2.396 . S
O190 C179 1.252 . S
O191 Sm160 2.408 . S
O191 C179 1.272 . S
H192 C164 0.930 . S
H193 C165 0.929 . S
H194 C167 0.930 . S
H195 C168 0.929 . S
H196 C173 0.930 . S
H197 C174 0.929 . S
H198 C176 0.930 . S
H199 C177 0.929 . S
Sm200 C202 2.846 . S
Sm200 O220 2.543 . S
Sm200 O221 2.450 . S
Sm200 O222 2.681 . S
Sm200 O223 2.464 . S
Sm200 O224 2.396 . S
Sm200 O228 2.386 . S
Sm200 O231 2.408 . S
Sm201 C211 2.846 . S
Sm201 O222 2.386 . S
Sm201 O225 2.408 . S
Sm201 O226 2.543 . S
Sm201 O227 2.450 . S
Sm201 O228 2.681 . S
Sm201 O229 2.464 . S
Sm201 O230 2.396 . S
C202 Sm200 2.846 . S
C202 C203 1.506 . S
C202 O220 1.261 . S
C202 O221 1.242 . S
C203 C202 1.506 . S
C203 C204 1.358 . S
C203 C208 1.382 . S
C204 C203 1.358 . S
C204 C205 1.385 . S
C204 H232 0.930 . S
C205 C204 1.385 . S
C205 C206 1.395 . S
C205 H233 0.929 . S
C206 C205 1.395 . S
C206 C207 1.335 . S
C207 C206 1.335 . S
C207 C208 1.398 . S
C207 H234 0.930 . S
C208 C203 1.382 . S
C208 C207 1.398 . S
C208 H235 0.929 . S
C209 O222 1.271 . S
C209 O223 1.251 . S
C210 O224 1.252 . S
C210 O225 1.272 . S
C211 Sm201 2.846 . S
C211 C212 1.506 . S
C211 O226 1.261 . S
C211 O227 1.242 . S
C212 C211 1.506 . S
C212 C213 1.358 . S
C212 C217 1.382 . S
C213 C212 1.358 . S
C213 C214 1.385 . S
C213 H236 0.930 . S
C214 C213 1.385 . S
C214 C215 1.395 . S
C214 H237 0.929 . S
C215 C214 1.395 . S
C215 C216 1.335 . S
C216 C215 1.335 . S
C216 C217 1.398 . S
C216 H238 0.930 . S
C217 C212 1.382 . S
C217 C216 1.398 . S
C217 H239 0.929 . S
C218 O228 1.271 . S
C218 O229 1.251 . S
C219 O230 1.252 . S
C219 O231 1.272 . S
O220 Sm200 2.543 . S
O220 C202 1.261 . S
O221 Sm200 2.450 . S
O221 C202 1.242 . S
O222 Sm200 2.681 . S
O222 Sm201 2.386 . S
O222 C209 1.271 . S
O223 Sm200 2.464 . S
O223 C209 1.251 . S
O224 Sm200 2.396 . S
O224 C210 1.252 . S
O225 Sm201 2.408 . S
O225 C210 1.272 . S
O226 Sm201 2.543 . S
O226 C211 1.261 . S
O227 Sm201 2.450 . S
O227 C211 1.242 . S
O228 Sm200 2.386 . S
O228 Sm201 2.681 . S
O228 C218 1.271 . S
O229 Sm201 2.464 . S
O229 C218 1.251 . S
O230 Sm201 2.396 . S
O230 C219 1.252 . S
O231 Sm200 2.408 . S
O231 C219 1.272 . S
H232 C204 0.930 . S
H233 C205 0.929 . S
H234 C207 0.930 . S
H235 C208 0.929 . S
H236 C213 0.930 . S
H237 C214 0.929 . S
H238 C216 0.930 . S
H239 C217 0.929 . S
Sm240 C242 2.846 . S
Sm240 O260 2.543 . S
Sm240 O261 2.450 . S
Sm240 O262 2.681 . S
Sm240 O263 2.464 . S
Sm240 O264 2.396 . S
Sm240 O268 2.386 . S
Sm240 O271 2.408 . S
Sm241 C251 2.846 . S
Sm241 O262 2.386 . S
Sm241 O265 2.408 . S
Sm241 O266 2.543 . S
Sm241 O267 2.450 . S
Sm241 O268 2.681 . S
Sm241 O269 2.464 . S
Sm241 O270 2.396 . S
C242 Sm240 2.846 . S
C242 C243 1.506 . S
C242 O260 1.261 . S
C242 O261 1.242 . S
C243 C242 1.506 . S
C243 C244 1.358 . S
C243 C248 1.382 . S
C244 C243 1.358 . S
C244 C245 1.385 . S
C244 H272 0.930 . S
C245 C244 1.385 . S
C245 C246 1.395 1_565 S
C245 H273 0.929 . S
C246 C245 1.395 1_545 S
C246 C247 1.335 1_545 S
C247 C246 1.335 1_565 S
C247 C248 1.398 . S
C247 H274 0.930 1_565 S
C248 C243 1.382 . S
C248 C247 1.398 . S
C248 H275 0.929 . S
C249 O262 1.271 . S
C249 O263 1.251 . S
C250 O264 1.252 . S
C250 O265 1.272 . S
C251 Sm241 2.846 . S
C251 C252 1.506 . S
C251 O266 1.261 . S
C251 O267 1.242 . S
C252 C251 1.506 . S
C252 C253 1.358 . S
C252 C257 1.382 . S
C253 C252 1.358 . S
C253 C254 1.385 . S
C253 H276 0.930 . S
C254 C253 1.385 . S
C254 C255 1.395 . S
C254 H277 0.929 . S
C255 C254 1.395 . S
C255 C256 1.335 . S
C256 C255 1.335 . S
C256 C257 1.398 . S
C256 H278 0.930 . S
C257 C252 1.382 . S
C257 C256 1.398 . S
C257 H279 0.929 . S
C258 O268 1.271 . S
C258 O269 1.251 . S
C259 O270 1.252 . S
C259 O271 1.272 . S
O260 Sm240 2.543 . S
O260 C242 1.261 . S
O261 Sm240 2.450 . S
O261 C242 1.242 . S
O262 Sm240 2.681 . S
O262 Sm241 2.386 . S
O262 C249 1.271 . S
O263 Sm240 2.464 . S
O263 C249 1.251 . S
O264 Sm240 2.396 . S
O264 C250 1.252 . S
O265 Sm241 2.408 . S
O265 C250 1.272 . S
O266 Sm241 2.543 . S
O266 C251 1.261 . S
O267 Sm241 2.450 . S
O267 C251 1.242 . S
O268 Sm240 2.386 . S
O268 Sm241 2.681 . S
O268 C258 1.271 . S
O269 Sm241 2.464 . S
O269 C258 1.251 . S
O270 Sm241 2.396 . S
O270 C259 1.252 . S
O271 Sm240 2.408 . S
O271 C259 1.272 . S
H272 C244 0.930 . S
H273 C245 0.929 . S
H274 C247 0.930 1_545 S
H275 C248 0.929 . S
H276 C253 0.930 . S
H277 C254 0.929 . S
H278 C256 0.930 . S
H279 C257 0.929 . S
Sm280 C282 2.846 . S
Sm280 O300 2.543 . S
Sm280 O301 2.450 . S
Sm280 O302 2.681 . S
Sm280 O303 2.464 . S
Sm280 O304 2.396 . S
Sm280 O308 2.386 . S
Sm280 O311 2.408 . S
Sm281 C291 2.846 . S
Sm281 O302 2.386 . S
Sm281 O305 2.408 . S
Sm281 O306 2.543 . S
Sm281 O307 2.450 . S
Sm281 O308 2.681 . S
Sm281 O309 2.464 . S
Sm281 O310 2.396 . S
C282 Sm280 2.846 . S
C282 C283 1.506 . S
C282 O300 1.261 . S
C282 O301 1.242 . S
C283 C282 1.506 . S
C283 C284 1.358 . S
C283 C288 1.382 . S
C284 C283 1.358 . S
C284 C285 1.385 . S
C284 H312 0.930 . S
C285 C284 1.385 . S
C285 C286 1.395 . S
C285 H313 0.929 . S
C286 C285 1.395 . S
C286 C287 1.335 . S
C287 C286 1.335 . S
C287 C288 1.398 . S
C287 H314 0.930 . S
C288 C283 1.382 . S
C288 C287 1.398 . S
C288 H315 0.929 . S
C289 O302 1.271 . S
C289 O303 1.251 . S
C290 O304 1.252 . S
C290 O305 1.272 . S
C291 Sm281 2.846 . S
C291 C292 1.506 . S
C291 O306 1.261 . S
C291 O307 1.242 . S
C292 C291 1.506 . S
C292 C293 1.358 . S
C292 C297 1.382 . S
C293 C292 1.358 . S
C293 C294 1.385 . S
C293 H316 0.930 . S
C294 C293 1.385 . S
C294 C295 1.395 . S
C294 H317 0.929 . S
C295 C294 1.395 . S
C295 C296 1.335 . S
C296 C295 1.335 . S
C296 C297 1.398 . S
C296 H318 0.930 . S
C297 C292 1.382 . S
C297 C296 1.398 . S
C297 H319 0.929 . S
C298 O308 1.271 . S
C298 O309 1.251 . S
C299 O310 1.252 . S
C299 O311 1.272 . S
O300 Sm280 2.543 . S
O300 C282 1.261 . S
O301 Sm280 2.450 . S
O301 C282 1.242 . S
O302 Sm280 2.681 . S
O302 Sm281 2.386 . S
O302 C289 1.271 . S
O303 Sm280 2.464 . S
O303 C289 1.251 . S
O304 Sm280 2.396 . S
O304 C290 1.252 . S
O305 Sm281 2.408 . S
O305 C290 1.272 . S
O306 Sm281 2.543 . S
O306 C291 1.261 . S
O307 Sm281 2.450 . S
O307 C291 1.242 . S
O308 Sm280 2.386 . S
O308 Sm281 2.681 . S
O308 C298 1.271 . S
O309 Sm281 2.464 . S
O309 C298 1.251 . S
O310 Sm281 2.396 . S
O310 C299 1.252 . S
O311 Sm280 2.408 . S
O311 C299 1.272 . S
H312 C284 0.930 . S
H313 C285 0.929 . S
H314 C287 0.930 . S
H315 C288 0.929 . S
H316 C293 0.930 . S
H317 C294 0.929 . S
H318 C296 0.930 . S
H319 C297 0.929 . S
Sm320 C322 2.846 . S
Sm320 O340 2.543 . S
Sm320 O341 2.450 . S
Sm320 O342 2.681 . S
Sm320 O343 2.464 . S
Sm320 O344 2.396 . S
Sm320 O348 2.386 . S
Sm320 O351 2.408 . S
Sm321 C331 2.846 . S
Sm321 O342 2.386 . S
Sm321 O345 2.408 . S
Sm321 O346 2.543 . S
Sm321 O347 2.450 . S
Sm321 O348 2.681 . S
Sm321 O349 2.464 . S
Sm321 O350 2.396 . S
C322 Sm320 2.846 . S
C322 C323 1.506 . S
C322 O340 1.261 . S
C322 O341 1.242 . S
C323 C322 1.506 . S
C323 C324 1.358 . S
C323 C328 1.382 . S
C324 C323 1.358 . S
C324 C325 1.385 . S
C324 H352 0.930 . S
C325 C324 1.385 . S
C325 C326 1.395 . S
C325 H353 0.929 . S
C326 C325 1.395 . S
C326 C327 1.335 . S
C327 C326 1.335 . S
C327 C328 1.398 . S
C327 H354 0.930 . S
C328 C323 1.382 . S
C328 C327 1.398 . S
C328 H355 0.929 . S
C329 O342 1.271 . S
C329 O343 1.251 . S
C330 O344 1.252 . S
C330 O345 1.272 . S
C331 Sm321 2.846 . S
C331 C332 1.506 . S
C331 O346 1.261 . S
C331 O347 1.242 . S
C332 C331 1.506 . S
C332 C333 1.358 . S
C332 C337 1.382 . S
C333 C332 1.358 . S
C333 C334 1.385 . S
C333 H356 0.930 . S
C334 C333 1.385 . S
C334 C335 1.395 . S
C334 H357 0.929 . S
C335 C334 1.395 . S
C335 C336 1.335 . S
C336 C335 1.335 . S
C336 C337 1.398 . S
C336 H358 0.930 . S
C337 C332 1.382 . S
C337 C336 1.398 . S
C337 H359 0.929 . S
C338 O348 1.271 . S
C338 O349 1.251 . S
C339 O350 1.252 . S
C339 O351 1.272 . S
O340 Sm320 2.543 . S
O340 C322 1.261 . S
O341 Sm320 2.450 . S
O341 C322 1.242 . S
O342 Sm320 2.681 . S
O342 Sm321 2.386 . S
O342 C329 1.271 . S
O343 Sm320 2.464 . S
O343 C329 1.251 . S
O344 Sm320 2.396 . S
O344 C330 1.252 . S
O345 Sm321 2.408 . S
O345 C330 1.272 . S
O346 Sm321 2.543 . S
O346 C331 1.261 . S
O347 Sm321 2.450 . S
O347 C331 1.242 . S
O348 Sm320 2.386 . S
O348 Sm321 2.681 . S
O348 C338 1.271 . S
O349 Sm321 2.464 . S
O349 C338 1.251 . S
O350 Sm321 2.396 . S
O350 C339 1.252 . S
O351 Sm320 2.408 . S
O351 C339 1.272 . S
H352 C324 0.930 . S
H353 C325 0.929 . S
H354 C327 0.930 . S
H355 C328 0.929 . S
H356 C333 0.930 . S
H357 C334 0.929 . S
H358 C336 0.930 . S
H359 C337 0.929 . S
C360 C361 1.170 . S
C360 C362 1.380 . S
C361 C360 1.170 . S
C362 C360 1.380 . S
C362 C363 1.170 . S
C363 C362 1.170 . S
C364 C365 1.170 . S
C364 C366 1.380 . S
C365 C364 1.170 . S
C366 C364 1.380 . S
C366 C367 1.170 . S
C367 C366 1.170 . S
C368 C369 1.170 . S
C368 C370 1.380 . S
C369 C368 1.170 . S
C370 C368 1.380 . S
C370 C371 1.170 . S
C371 C370 1.170 . S
C372 C373 1.170 . S
C372 C374 1.380 . S
C373 C372 1.170 . S
C374 C372 1.380 . S
C374 C375 1.170 . S
C375 C374 1.170 . S
C376 C377 1.170 . S
C376 C378 1.380 . S
C377 C376 1.170 . S
C378 C376 1.380 . S
C378 C379 1.170 . S
C379 C378 1.170 . S
C380 C381 1.170 . S
C380 C382 1.380 . S
C381 C380 1.170 . S
C382 C380 1.380 . S
C382 C383 1.170 . S
C383 C382 1.170 . S
C384 C385 1.170 . S
C384 C386 1.380 . S
C385 C384 1.170 . S
C386 C384 1.380 . S
C386 C387 1.170 . S
C387 C386 1.170 . S
C388 C389 1.170 . S
C388 C390 1.380 . S
C389 C388 1.170 . S
C390 C388 1.380 . S
C390 C391 1.170 . S
C391 C390 1.170 . S
C392 C393 1.170 . S
C392 C394 1.380 . S
C393 C392 1.170 . S
C394 C392 1.380 . S
C394 C395 1.170 . S
C395 C394 1.170 . S
C396 C397 1.170 . S
C396 C398 1.380 . S
C397 C396 1.170 . S
C398 C396 1.380 . S
C398 C399 1.170 . S
C399 C398 1.170 . S
C400 C401 1.170 . S
C400 C402 1.380 . S
C401 C400 1.170 . S
C402 C400 1.380 . S
C402 C403 1.170 . S
C403 C402 1.170 . S
C404 C405 1.170 . S
C404 C406 1.380 . S
C405 C404 1.170 . S
C406 C404 1.380 . S
C406 C407 1.170 . S
C407 C406 1.170 . S
C408 C409 1.170 . S
C408 C410 1.380 . S
C409 C408 1.170 . S
C410 C408 1.380 . S
C410 C411 1.170 . S
C411 C410 1.170 . S
C412 C413 1.170 . S
C412 C414 1.380 . S
C413 C412 1.170 . S
C414 C412 1.380 . S
C414 C415 1.170 . S
C415 C414 1.170 . S
C416 C417 1.170 . S
C416 C418 1.380 . S
C417 C416 1.170 . S
C418 C416 1.380 . S
C418 C419 1.170 . S
C419 C418 1.170 . S
C420 C421 1.170 . S
C420 C422 1.380 . S
C421 C420 1.170 . S
C422 C420 1.380 . S
C422 C423 1.170 . S
C423 C422 1.170 . S
C424 C425 1.170 . S
C424 C426 1.380 . S
C425 C424 1.170 . S
C426 C424 1.380 . S
C426 C427 1.170 . S
C427 C426 1.170 . S
C428 C429 1.170 . S
C428 C430 1.380 . S
C429 C428 1.170 . S
C430 C428 1.380 . S
C430 C431 1.170 . S
C431 C430 1.170 . S
C432 C433 1.170 . S
C432 C434 1.380 . S
C433 C432 1.170 . S
C434 C432 1.380 . S
C434 C435 1.170 . S
C435 C434 1.170 . S
C436 C437 1.170 . S
C436 C438 1.380 . S
C437 C436 1.170 . S
C438 C436 1.380 . S
C438 C439 1.170 . S
C439 C438 1.170 . S
C440 C441 1.170 . S
C440 C442 1.380 . S
C441 C440 1.170 . S
C442 C440 1.380 . S
C442 C443 1.170 . S
C443 C442 1.170 . S
C444 C445 1.170 . S
C444 C446 1.380 . S
C445 C444 1.170 . S
C446 C444 1.380 . S
C446 C447 1.170 1_556 S
C447 C446 1.170 1_554 S
C448 C449 1.170 . S
C448 C450 1.380 . S
C449 C448 1.170 . S
C450 C448 1.380 . S
C450 C451 1.170 1_556 S
C451 C450 1.170 1_554 S
C452 C453 1.170 . S
C452 C454 1.380 . S
C453 C452 1.170 . S
C454 C452 1.380 . S
C454 C455 1.170 1_556 S
C455 C454 1.170 1_554 S
C456 C457 1.170 . S
C456 C458 1.380 . S
C457 C456 1.170 . S
C458 C456 1.380 . S
C458 C459 1.170 . S
C459 C458 1.170 . S
C460 C461 1.170 . S
C460 C462 1.380 . S
C461 C460 1.170 . S
C462 C460 1.380 . S
C462 C463 1.170 . S
C463 C462 1.170 . S
C464 C465 1.170 . S
C464 C466 1.380 . S
C465 C464 1.170 . S
C466 C464 1.380 . S
C466 C467 1.170 . S
C467 C466 1.170 . S
C361 C6 1.891 . S
C363 C290 1.802 . S
C365 C46 1.880 . S
C367 C330 1.787 . S
C369 C86 1.892 . S
C371 C250 1.794 . S
C373 C166 1.887 . S
C375 C90 1.814 . S
C377 C206 1.867 . S
C379 C10 1.807 . S
C381 C50 1.786 . S
C383 C126 1.881 . S
C385 C286 1.883 1_655 S
C387 C210 1.821 . S
C389 C326 1.885 . S
C391 C130 1.784 . S
C393 C170 1.820 . S
C395 C246 1.884 . S
C397 C95 1.655 . S
C399 C19 1.675 1_554 S
C401 C59 1.680 1_554 S
C403 C15 1.666 1_565 S
C405 C55 1.703 . S
C407 C99 1.675 1_554 S
C409 C139 1.674 . S
C411 C215 1.661 . S
C413 C135 1.670 . S
C415 C179 1.681 . S
C417 C175 1.654 . S
C419 C219 1.674 . S
C421 C335 1.654 . S
C423 C259 1.673 . S
C425 C299 1.676 . S
C427 C255 1.666 . S
C429 C339 1.681 . S
C431 C295 1.668 . S
C433 C18 1.099 . S
C435 C9 1.069 . S
C437 C58 1.071 . S
C439 C49 1.098 . S
C441 C98 1.100 . S
C443 C89 1.066 . S
C445 C129 1.056 . S
C447 C138 1.091 . S
C449 C169 1.055 . S
C451 C178 1.094 . S
C453 C209 1.066 . S
C455 C218 1.100 . S
C457 C258 1.067 . S
C459 C249 1.075 1_554 S
C461 C289 1.060 1_554 S
C463 C298 1.102 . S
C465 C338 1.054 . S
C467 C329 1.098 1_554 S
