# Generated by pormake.
# Topology wlb, (5)-cn, num edge types: 1
# Building blocks:
#     Node 0, Type 0, BuildingBlock: BEQFEK_clean_sbu_0, # of connection points: 5
#     Node 1, Type 0, BuildingBlock: BEQFEK_clean_sbu_0, # of connection points: 5
#     Node 2, Type 0, BuildingBlock: BEQFEK_clean_sbu_0, # of connection points: 5
#     Node 3, Type 0, BuildingBlock: BEQFEK_clean_sbu_0, # of connection points: 5
#     Node 4, Type 0, BuildingBlock: BEQFEK_clean_sbu_0, # of connection points: 5
#     Node 5, Type 0, BuildingBlock: BEQFEK_clean_sbu_0, # of connection points: 5
#     Node 6, Type 0, BuildingBlock: BEQFEK_clean_sbu_0, # of connection points: 5
#     Node 7, Type 0, BuildingBlock: BEQFEK_clean_sbu_0, # of connection points: 5
#     Node 8, Type 0, BuildingBlock: BEQFEK_clean_sbu_0, # of connection points: 5
#     Node 9, Type 0, BuildingBlock: BEQFEK_clean_sbu_0, # of connection points: 5
#     Node 10, Type 0, BuildingBlock: BEQFEK_clean_sbu_0, # of connection points: 5
#     Node 11, Type 0, BuildingBlock: BEQFEK_clean_sbu_0, # of connection points: 5
#     Node 12, Type 0, BuildingBlock: BEQFEK_clean_sbu_0, # of connection points: 5
#     Node 13, Type 0, BuildingBlock: BEQFEK_clean_sbu_0, # of connection points: 5
#     Node 14, Type 0, BuildingBlock: BEQFEK_clean_sbu_0, # of connection points: 5
#     Node 15, Type 0, BuildingBlock: BEQFEK_clean_sbu_0, # of connection points: 5
#     Node 16, Type 0, BuildingBlock: BEQFEK_clean_sbu_0, # of connection points: 5
#     Node 17, Type 0, BuildingBlock: BEQFEK_clean_sbu_0, # of connection points: 5
#     Edge 18, Type (0, 0), BuildingBlock: EZIPEK_clean_linker_0, # of connection points: 2
#     Edge 19, Type (0, 0), BuildingBlock: EZIPEK_clean_linker_0, # of connection points: 2
#     Edge 20, Type (0, 0), BuildingBlock: EZIPEK_clean_linker_0, # of connection points: 2
#     Edge 21, Type (0, 0), BuildingBlock: EZIPEK_clean_linker_0, # of connection points: 2
#     Edge 22, Type (0, 0), BuildingBlock: EZIPEK_clean_linker_0, # of connection points: 2
#     Edge 23, Type (0, 0), BuildingBlock: EZIPEK_clean_linker_0, # of connection points: 2
#     Edge 24, Type (0, 0), BuildingBlock: EZIPEK_clean_linker_0, # of connection points: 2
#     Edge 25, Type (0, 0), BuildingBlock: EZIPEK_clean_linker_0, # of connection points: 2
#     Edge 26, Type (0, 0), BuildingBlock: EZIPEK_clean_linker_0, # of connection points: 2
#     Edge 27, Type (0, 0), BuildingBlock: EZIPEK_clean_linker_0, # of connection points: 2
#     Edge 28, Type (0, 0), BuildingBlock: EZIPEK_clean_linker_0, # of connection points: 2
#     Edge 29, Type (0, 0), BuildingBlock: EZIPEK_clean_linker_0, # of connection points: 2
#     Edge 30, Type (0, 0), BuildingBlock: EZIPEK_clean_linker_0, # of connection points: 2
#     Edge 31, Type (0, 0), BuildingBlock: EZIPEK_clean_linker_0, # of connection points: 2
#     Edge 32, Type (0, 0), BuildingBlock: EZIPEK_clean_linker_0, # of connection points: 2
#     Edge 33, Type (0, 0), BuildingBlock: EZIPEK_clean_linker_0, # of connection points: 2
#     Edge 34, Type (0, 0), BuildingBlock: EZIPEK_clean_linker_0, # of connection points: 2
#     Edge 35, Type (0, 0), BuildingBlock: EZIPEK_clean_linker_0, # of connection points: 2
#     Edge 36, Type (0, 0), BuildingBlock: EZIPEK_clean_linker_0, # of connection points: 2
#     Edge 37, Type (0, 0), BuildingBlock: EZIPEK_clean_linker_0, # of connection points: 2
#     Edge 38, Type (0, 0), BuildingBlock: EZIPEK_clean_linker_0, # of connection points: 2
#     Edge 39, Type (0, 0), BuildingBlock: EZIPEK_clean_linker_0, # of connection points: 2
#     Edge 40, Type (0, 0), BuildingBlock: EZIPEK_clean_linker_0, # of connection points: 2
#     Edge 41, Type (0, 0), BuildingBlock: EZIPEK_clean_linker_0, # of connection points: 2
#     Edge 42, Type (0, 0), BuildingBlock: EZIPEK_clean_linker_0, # of connection points: 2
#     Edge 43, Type (0, 0), BuildingBlock: EZIPEK_clean_linker_0, # of connection points: 2
#     Edge 44, Type (0, 0), BuildingBlock: EZIPEK_clean_linker_0, # of connection points: 2
#     Edge 45, Type (0, 0), BuildingBlock: EZIPEK_clean_linker_0, # of connection points: 2
#     Edge 46, Type (0, 0), BuildingBlock: EZIPEK_clean_linker_0, # of connection points: 2
#     Edge 47, Type (0, 0), BuildingBlock: EZIPEK_clean_linker_0, # of connection points: 2
#     Edge 48, Type (0, 0), BuildingBlock: EZIPEK_clean_linker_0, # of connection points: 2
#     Edge 49, Type (0, 0), BuildingBlock: EZIPEK_clean_linker_0, # of connection points: 2
#     Edge 50, Type (0, 0), BuildingBlock: EZIPEK_clean_linker_0, # of connection points: 2
#     Edge 51, Type (0, 0), BuildingBlock: EZIPEK_clean_linker_0, # of connection points: 2
#     Edge 52, Type (0, 0), BuildingBlock: EZIPEK_clean_linker_0, # of connection points: 2
#     Edge 53, Type (0, 0), BuildingBlock: EZIPEK_clean_linker_0, # of connection points: 2
#     Edge 54, Type (0, 0), BuildingBlock: EZIPEK_clean_linker_0, # of connection points: 2
#     Edge 55, Type (0, 0), BuildingBlock: EZIPEK_clean_linker_0, # of connection points: 2
#     Edge 56, Type (0, 0), BuildingBlock: EZIPEK_clean_linker_0, # of connection points: 2
#     Edge 57, Type (0, 0), BuildingBlock: EZIPEK_clean_linker_0, # of connection points: 2
#     Edge 58, Type (0, 0), BuildingBlock: EZIPEK_clean_linker_0, # of connection points: 2
#     Edge 59, Type (0, 0), BuildingBlock: EZIPEK_clean_linker_0, # of connection points: 2
#     Edge 60, Type (0, 0), BuildingBlock: EZIPEK_clean_linker_0, # of connection points: 2
#     Edge 61, Type (0, 0), BuildingBlock: EZIPEK_clean_linker_0, # of connection points: 2
#     Edge 62, Type (0, 0), BuildingBlock: EZIPEK_clean_linker_0, # of connection points: 2
# Relax obj value: 0.429
# Max RMSD: 0.225
# Mean RMSD: 0.225
data_MOF--net-wlb--node1-BEQFEK_clean_sbu_0--edge1-EZIPEK_clean_linker_0
_symmetry_space_group_name_H-M    P1
_symmetry_Int_Tables_number       1
_symmetry_cell_setting            triclinic
loop_
_symmetry_equiv_pos_as_xyz
'x, y, z'
_cell_length_a     41.257839
_cell_length_b     41.234165
_cell_length_c     27.172371
_cell_angle_alpha  90.014495
_cell_angle_beta   90.036302
_cell_angle_gamma 119.8734
loop_
_atom_site_label
_atom_site_type_symbol
_atom_site_fract_x
_atom_site_fract_y
_atom_site_fract_z
_atom_type_partial_charge
Co0 Co 0.0475 0.15516 0.22976 0.0
Co1 Co 0.00212 0.19473 0.22589 0.0
C2 C 0.02289 0.16524 0.1333 0.0
O3 O 0.04797 0.16033 0.15403 0.0
O4 O 0.00547 0.17715 0.15922 0.0
C5 C 0.10144 0.12784 0.23431 0.0
O6 O 0.12483 0.15878 0.21124 0.0
C7 C 0.01355 0.26451 0.19196 0.0
C8 C 0.96034 0.26286 0.20909 0.0
C9 C 0.99607 0.28545 0.19065 0.0
N10 N 0.98951 0.23111 0.21129 0.0
N11 N 0.95748 0.22981 0.22063 0.0
C12 C 0.05363 0.2772 0.17961 0.0
H13 H 0.06043 0.2548 0.18665 0.0
H14 H 0.07251 0.30259 0.20106 0.0
H15 H 0.05935 0.28517 0.14039 0.0
C16 C 0.09529 0.22256 0.30191 0.0
N17 N 0.06708 0.20194 0.26939 0.0
N18 N 0.04549 0.21689 0.26744 0.0
C19 C 0.05847 0.24654 0.2984 0.0
C20 C 0.09126 0.25229 0.32127 0.0
C21 C 0.12403 0.2125 0.31679 0.0
H22 H 0.14343 0.21807 0.28557 0.0
H23 H 0.14014 0.22889 0.34935 0.0
H24 H 0.11018 0.18216 0.32502 0.0
O25 O 0.99204 0.1203 0.24174 0.0
O26 O 0.961 0.15055 0.2558 0.0
H27 H 0.00896 0.25167 0.29881 0.0
H28 H 0.04247 0.2804 0.34344 0.0
C29 C 0.03927 0.26899 0.30603 0.0
H30 H 0.05178 0.29347 0.28122 0.0
H31 H 0.93429 0.20695 0.23635 0.0
O32 O 0.06968 0.12285 0.24732 0.0
C33 C 0.96172 0.12019 0.25182 0.0
Co34 Co 0.82537 0.89276 0.20237 0.0
Co35 Co 0.79837 0.81088 0.21261 0.0
C36 C 0.81979 0.85239 0.1114 0.0
O37 O 0.82254 0.88272 0.12805 0.0
O38 O 0.81152 0.82533 0.14082 0.0
C39 C 0.84077 0.97187 0.21017 0.0
O40 O 0.80877 0.96274 0.18883 0.0
C41 C 0.73528 0.74692 0.18289 0.0
C42 C 0.74798 0.70146 0.1948 0.0
C43 C 0.72223 0.7099 0.17428 0.0
N44 N 0.7674 0.7603 0.20755 0.0
N45 N 0.77486 0.73312 0.21563 0.0
C46 C 0.71934 0.7701 0.16341 0.0
H47 H 0.74095 0.80001 0.16133 0.0
H48 H 0.69707 0.76762 0.18852 0.0
H49 H 0.70627 0.75982 0.1268 0.0
C50 C 0.75188 0.86796 0.26416 0.0
N51 N 0.77845 0.86349 0.24002 0.0
N52 N 0.7707 0.82891 0.24723 0.0
C53 C 0.74074 0.81105 0.2772 0.0
C54 C 0.7268 0.8345 0.28827 0.0
C55 C 0.75019 0.90327 0.26453 0.0
H56 H 0.74461 0.90923 0.22663 0.0
H57 H 0.72783 0.901 0.28943 0.0
H58 H 0.77752 0.92675 0.27656 0.0
O59 O 0.8663 0.88189 0.22422 0.0
O60 O 0.84408 0.82283 0.24612 0.0
H61 H 0.71561 0.77052 0.33529 0.0
H62 H 0.7026 0.75208 0.27442 0.0
C63 C 0.72629 0.77243 0.29728 0.0
H64 H 0.7486 0.7649 0.29764 0.0
H65 H 0.79937 0.7368 0.23195 0.0
O66 O 0.85005 0.94719 0.21749 0.0
C67 C 0.87134 0.85571 0.24074 0.0
Co68 Co 0.09478 0.92065 0.19967 0.0
Co69 Co 0.17585 0.97222 0.22382 0.0
C70 C 0.14495 0.9547 0.11594 0.0
O71 O 0.11235 0.92894 0.12869 0.0
O72 O 0.16975 0.97215 0.14884 0.0
C73 C 0.02565 0.8906 0.24563 0.0
O74 O 0.04766 0.90439 0.28413 0.0
C75 C 0.24194 0.97317 0.20624 0.0
C76 C 0.28479 0.03208 0.21858 0.0
C77 C 0.27857 0.99886 0.19715 0.0
N78 N 0.22658 0.99052 0.23016 0.0
N79 N 0.25246 0.02539 0.23938 0.0
C80 C 0.22028 0.93483 0.18387 0.0
H81 H 0.19043 0.92621 0.17919 0.0
H82 H 0.22202 0.91437 0.20857 0.0
H83 H 0.23232 0.93329 0.14808 0.0
C84 C 0.10992 0.86686 0.26298 0.0
N85 N 0.11854 0.90024 0.24219 0.0
N86 N 0.15235 0.92505 0.25631 0.0
C87 C 0.16568 0.90902 0.28779 0.0
C88 C 0.13988 0.87125 0.29247 0.0
C89 C 0.07395 0.83142 0.25459 0.0
H90 H 0.06241 0.83191 0.21787 0.0
H91 H 0.07799 0.80683 0.25786 0.0
H92 H 0.05354 0.829 0.28299 0.0
O93 O 0.10367 0.97177 0.22109 0.0
O94 O 0.16104 0.00731 0.24984 0.0
H95 H 0.20004 0.91798 0.35166 0.0
H96 H 0.22364 0.92528 0.2942 0.0
C97 C 0.20249 0.92939 0.314 0.0
H98 H 0.21209 0.95967 0.31656 0.0
H99 H 0.2471 0.04556 0.25434 0.0
O100 O 0.03978 0.89059 0.20401 0.0
C101 C 0.12869 0.00227 0.24043 0.0
Co102 Co 0.16893 0.04591 0.82666 0.0
Co103 Co 0.19964 0.99217 0.8073 0.0
C104 C 0.18486 0.01354 0.91286 0.0
O105 O 0.17879 0.03943 0.89756 0.0
O106 O 0.19369 0.99549 0.88228 0.0
C107 C 0.14766 0.10638 0.82851 0.0
O108 O 0.17938 0.12957 0.85014 0.0
C109 C 0.26954 0.99731 0.79325 0.0
C110 C 0.25584 0.95431 0.73658 0.0
C111 C 0.28526 0.98782 0.75404 0.0
N112 N 0.23257 0.97354 0.79374 0.0
N113 N 0.22468 0.94677 0.7614 0.0
C114 C 0.28804 0.02639 0.83254 0.0
H115 H 0.27242 0.01569 0.86748 0.0
H116 H 0.28672 0.05186 0.82313 0.0
H117 H 0.31731 0.03321 0.83885 0.0
C118 C 0.23668 0.09627 0.75941 0.0
N119 N 0.21247 0.0643 0.78369 0.0
N120 N 0.21869 0.03762 0.76895 0.0
C121 C 0.2436 0.05051 0.73147 0.0
C122 C 0.25818 0.08873 0.72608 0.0
C123 C 0.23843 0.13301 0.76651 0.0
H124 H 0.24372 0.14103 0.8059 0.0
H125 H 0.26075 0.15514 0.74357 0.0
H126 H 0.21109 0.13019 0.75645 0.0
O127 O 0.12824 0.99304 0.80984 0.0
O128 O 0.14973 0.9559 0.78561 0.0
H129 H 0.23755 0.03163 0.65699 0.0
H130 H 0.27562 0.03255 0.68845 0.0
C131 C 0.24632 0.02599 0.69303 0.0
H132 H 0.22717 0.99617 0.70114 0.0
H133 H 0.19767 0.92622 0.75192 0.0
O134 O 0.14058 0.07352 0.81749 0.0
C135 C 0.12268 0.96143 0.79436 0.0
Co136 Co 0.94304 0.10095 0.82715 0.0
Co137 Co 0.99431 0.18413 0.84096 0.0
C138 C 0.96833 0.13452 0.9296 0.0
O139 O 0.94622 0.10542 0.90427 0.0
O140 O 0.98721 0.16586 0.90859 0.0
C141 C 0.91815 0.02473 0.81592 0.0
O142 O 0.9485 0.03479 0.84206 0.0
C143 C 0.02057 0.2559 0.88238 0.0
C144 C 0.06185 0.29369 0.82771 0.0
C145 C 0.04585 0.29244 0.87287 0.0
N146 N 0.02107 0.23563 0.84445 0.0
N147 N 0.04562 0.25813 0.8116 0.0
C148 C 0.99725 0.24051 0.92766 0.0
H149 H 0.96961 0.21649 0.91786 0.0
H150 H 0.99323 0.26194 0.94697 0.0
H151 H 0.01174 0.23096 0.95326 0.0
C152 C 0.90592 0.1328 0.75561 0.0
N153 N 0.93017 0.13496 0.79139 0.0
N154 N 0.94903 0.16971 0.80609 0.0
C155 C 0.93484 0.18972 0.78523 0.0
C156 C 0.90757 0.1679 0.75009 0.0
C157 C 0.88484 0.09882 0.72405 0.0
H158 H 0.90243 0.08593 0.71679 0.0
H159 H 0.85964 0.07784 0.7441 0.0
H160 H 0.87638 0.10583 0.68866 0.0
O161 O 0.99349 0.10858 0.81056 0.0
O162 O 0.02962 0.16999 0.8113 0.0
H163 H 0.97265 0.249 0.78737 0.0
H164 H 0.92377 0.23584 0.79154 0.0
C165 C 0.94502 0.22821 0.80243 0.0
H166 H 0.94717 0.2294 0.84306 0.0
H167 H 0.05166 0.24912 0.77877 0.0
O168 O 0.90832 0.04875 0.80619 0.0
C169 C 0.02551 0.13751 0.80631 0.0
Co170 Co 0.89206 0.82586 0.81966 0.0
Co171 Co 0.81042 0.79945 0.80623 0.0
C172 C 0.84974 0.82141 0.90876 0.0
O173 O 0.88036 0.8244 0.89314 0.0
O174 O 0.8229 0.81255 0.87866 0.0
C175 C 0.97086 0.84134 0.82082 0.0
O176 O 0.96085 0.81023 0.84511 0.0
C177 C 0.74488 0.73669 0.83306 0.0
C178 C 0.70074 0.75073 0.81824 0.0
C179 C 0.70788 0.72458 0.8404 0.0
N180 N 0.75949 0.76876 0.80805 0.0
N181 N 0.73302 0.77685 0.79792 0.0
C182 C 0.76697 0.7204 0.8552 0.0
H183 H 0.79704 0.74149 0.85757 0.0
H184 H 0.76397 0.69707 0.8317 0.0
H185 H 0.75611 0.70853 0.89216 0.0
C186 C 0.86865 0.75247 0.75968 0.0
N187 N 0.86349 0.77895 0.78273 0.0
N188 N 0.82914 0.77128 0.77375 0.0
C189 C 0.81206 0.74126 0.7436 0.0
C190 C 0.83588 0.72744 0.73429 0.0
C191 C 0.90405 0.75101 0.76155 0.0
H192 H 0.90899 0.74533 0.79991 0.0
H193 H 0.90266 0.72885 0.73695 0.0
H194 H 0.92777 0.77852 0.75061 0.0
O195 O 0.88301 0.86634 0.7927 0.0
O196 O 0.82426 0.8458 0.7724 0.0
H197 H 0.77264 0.71534 0.68431 0.0
H198 H 0.75299 0.70323 0.74465 0.0
C199 C 0.77388 0.72657 0.72182 0.0
H200 H 0.76648 0.74895 0.71975 0.0
H201 H 0.73764 0.80151 0.78102 0.0
O202 O 0.94655 0.84995 0.80818 0.0
C203 C 0.8578 0.87222 0.77473 0.0
Co204 Co 0.71385 0.48966 0.54024 0.0
Co205 Co 0.65596 0.51113 0.57153 0.0
C206 C 0.66136 0.5 0.46568 0.0
O207 O 0.68657 0.49159 0.47724 0.0
O208 O 0.64762 0.51242 0.49825 0.0
C209 C 0.75894 0.46166 0.56739 0.0
O210 O 0.75512 0.47448 0.60996 0.0
C211 C 0.60557 0.53423 0.61417 0.0
C212 C 0.61857 0.53474 0.69329 0.0
C213 C 0.59955 0.54485 0.66049 0.0
N214 N 0.62811 0.52004 0.61941 0.0
N215 N 0.63442 0.51872 0.6669 0.0
C216 C 0.59427 0.54134 0.56492 0.0
H217 H 0.59415 0.52138 0.53746 0.0
H218 H 0.61474 0.57002 0.55265 0.0
H219 H 0.56596 0.53801 0.56669 0.0
C220 C 0.76634 0.56183 0.59792 0.0
N221 N 0.73302 0.53475 0.57946 0.0
N222 N 0.70745 0.54378 0.58984 0.0
C223 C 0.72373 0.57706 0.61365 0.0
C224 C 0.76141 0.58957 0.62078 0.0
C225 C 0.80238 0.56177 0.59331 0.0
H226 H 0.80192 0.54566 0.56036 0.0
H227 H 0.82625 0.5908 0.59117 0.0
H228 H 0.80635 0.54846 0.6265 0.0
O229 O 0.67707 0.44356 0.57459 0.0
O230 O 0.63254 0.45743 0.57931 0.0
H231 H 0.69408 0.59057 0.66611 0.0
H232 H 0.72386 0.62866 0.6267 0.0
C233 C 0.70426 0.59803 0.6278 0.0
H234 H 0.68048 0.59102 0.60274 0.0
H235 H 0.65219 0.50976 0.68094 0.0
O236 O 0.75005 0.47249 0.52828 0.0
C237 C 0.64307 0.43363 0.58068 0.0
Co238 Co 0.49518 0.20757 0.52902 0.0
Co239 Co 0.46583 0.12461 0.53279 0.0
C240 C 0.49063 0.17219 0.4363 0.0
O241 O 0.4922 0.20143 0.4549 0.0
O242 O 0.48247 0.14396 0.46343 0.0
C243 C 0.51662 0.28791 0.54326 0.0
O244 O 0.48709 0.28355 0.51922 0.0
C245 C 0.41626 0.05808 0.48399 0.0
C246 C 0.42728 0.01643 0.51964 0.0
C247 C 0.41021 0.02235 0.47935 0.0
N248 N 0.43697 0.07321 0.52435 0.0
N249 N 0.44252 0.04795 0.54665 0.0
C250 C 0.40812 0.07946 0.44613 0.0
H251 H 0.42839 0.0873 0.41541 0.0
H252 H 0.41005 0.10501 0.46257 0.0
H253 H 0.37981 0.06185 0.43041 0.0
C254 C 0.42224 0.18367 0.58833 0.0
N255 N 0.44771 0.17773 0.56407 0.0
N256 N 0.4364 0.14184 0.56614 0.0
C257 C 0.40411 0.12402 0.59202 0.0
C258 C 0.39353 0.14972 0.60706 0.0
C259 C 0.42482 0.22094 0.59308 0.0
H260 H 0.42167 0.23046 0.55614 0.0
H261 H 0.4028 0.21965 0.61782 0.0
H262 H 0.45273 0.24147 0.60756 0.0
O263 O 0.53523 0.19477 0.54523 0.0
O264 O 0.51253 0.13584 0.56662 0.0
H265 H 0.36251 0.0757 0.63201 0.0
H266 H 0.36984 0.0674 0.56878 0.0
C267 C 0.38386 0.08298 0.60281 0.0
H268 H 0.40415 0.07422 0.61441 0.0
H269 H 0.4597 0.05338 0.57734 0.0
O270 O 0.52197 0.26051 0.54938 0.0
C271 C 0.54031 0.16822 0.55944 0.0
Co272 Co 0.77431 0.26717 0.53298 0.0
Co273 Co 0.85438 0.32651 0.5432 0.0
C274 C 0.83322 0.31833 0.44601 0.0
O275 O 0.80055 0.29519 0.46454 0.0
O276 O 0.86276 0.33121 0.47264 0.0
C277 C 0.69569 0.23164 0.52121 0.0
O278 O 0.70524 0.26574 0.50728 0.0
C279 C 0.92333 0.37925 0.59891 0.0
C280 C 0.89533 0.38021 0.66814 0.0
C281 C 0.92986 0.39305 0.64692 0.0
N282 N 0.88639 0.35881 0.59243 0.0
N283 N 0.86994 0.36011 0.63363 0.0
C284 C 0.95137 0.38237 0.56158 0.0
H285 H 0.93721 0.36659 0.5277 0.0
H286 H 0.9688 0.37136 0.57721 0.0
H287 H 0.97014 0.41221 0.55214 0.0
C288 C 0.80353 0.22699 0.60433 0.0
N289 N 0.8056 0.25362 0.57258 0.0
N290 N 0.84084 0.2776 0.56534 0.0
C291 C 0.86229 0.26548 0.58691 0.0
C292 C 0.84002 0.23327 0.61495 0.0
C293 C 0.76759 0.19888 0.62779 0.0
H294 H 0.74983 0.21164 0.6346 0.0
H295 H 0.75206 0.1751 0.60214 0.0
H296 H 0.77267 0.18839 0.6629 0.0
O297 O 0.76424 0.30337 0.56768 0.0
O298 O 0.82025 0.34681 0.54707 0.0
H299 H 0.91895 0.30738 0.60256 0.0
H300 H 0.91352 0.26326 0.58206 0.0
C301 C 0.90345 0.2835 0.57724 0.0
H302 H 0.90956 0.29476 0.53918 0.0
H303 H 0.84108 0.34559 0.63912 0.0
O304 O 0.72134 0.22347 0.52889 0.0
C305 C 0.78744 0.33739 0.5601 0.0
Co306 Co 0.83311 0.41359 0.16053 0.0
Co307 Co 0.87784 0.37386 0.14275 0.0
C308 C 0.85242 0.3835 0.24685 0.0
O309 O 0.84133 0.40605 0.23288 0.0
O310 O 0.86585 0.37028 0.21563 0.0
C311 C 0.79425 0.46134 0.15723 0.0
O312 O 0.82402 0.49231 0.17127 0.0
C313 C 0.95125 0.38677 0.15827 0.0
C314 C 0.95463 0.347 0.10719 0.0
C315 C 0.97607 0.37694 0.1387 0.0
N316 N 0.9175 0.36464 0.13827 0.0
N317 N 0.9194 0.34058 0.10817 0.0
C318 C 0.95982 0.41909 0.19131 0.0
H319 H 0.93682 0.42565 0.19067 0.0
H320 H 0.98626 0.44408 0.17976 0.0
H321 H 0.96298 0.41182 0.22963 0.0
C322 C 0.90082 0.47527 0.09831 0.0
N323 N 0.87961 0.44127 0.12057 0.0
N324 N 0.89493 0.42078 0.11012 0.0
C325 C 0.92426 0.43979 0.07926 0.0
C326 C 0.93023 0.47547 0.07152 0.0
C327 C 0.89359 0.50716 0.10284 0.0
H328 H 0.89444 0.51453 0.14227 0.0
H329 H 0.91459 0.53196 0.08208 0.0
H330 H 0.86522 0.49844 0.08858 0.0
O331 O 0.80043 0.35937 0.13857 0.0
O332 O 0.83305 0.33361 0.11176 0.0
H333 H 0.9547 0.43666 0.01673 0.0
H334 H 0.97045 0.42994 0.07497 0.0
C335 C 0.94513 0.42367 0.05354 0.0
H336 H 0.92705 0.39314 0.04854 0.0
H337 H 0.8972 0.3211 0.08676 0.0
O338 O 0.79552 0.43126 0.15261 0.0
C339 C 0.80181 0.33144 0.12064 0.0
Co340 Co 0.57262 0.41192 0.16632 0.0
Co341 Co 0.60698 0.49378 0.16958 0.0
C342 C 0.60134 0.46651 0.26334 0.0
O343 O 0.5888 0.43495 0.24002 0.0
O344 O 0.60748 0.49605 0.24043 0.0
C345 C 0.51957 0.33089 0.14369 0.0
O346 O 0.49432 0.33896 0.1282 0.0
C347 C 0.62915 0.57026 0.13879 0.0
C348 C 0.63983 0.56515 0.06004 0.0
C349 C 0.63647 0.58854 0.09343 0.0
N350 N 0.626 0.53685 0.13121 0.0
N351 N 0.63285 0.53409 0.08439 0.0
C352 C 0.62727 0.58432 0.18898 0.0
H353 H 0.62463 0.56405 0.21766 0.0
H354 H 0.60286 0.58858 0.19168 0.0
H355 H 0.65302 0.61138 0.19612 0.0
C356 C 0.52142 0.4268 0.08998 0.0
N357 N 0.54584 0.43222 0.12765 0.0
N358 N 0.55669 0.4654 0.14579 0.0
C359 C 0.53662 0.47976 0.12584 0.0
C360 C 0.51416 0.45696 0.08786 0.0
C361 C 0.50999 0.39703 0.05169 0.0
H362 H 0.52863 0.38481 0.05256 0.0
H363 H 0.48079 0.37469 0.05848 0.0
H364 H 0.51088 0.4088 1.01464 0.0
O365 O 0.61965 0.42206 0.13424 0.0
O366 O 0.64697 0.48047 0.15735 0.0
H367 H 0.55512 0.53832 0.1191 0.0
H368 H 0.50951 0.511 0.14455 0.0
C369 C 0.53808 0.51473 0.14404 0.0
H370 H 0.55026 0.52165 0.18158 0.0
H371 H 0.63132 0.51028 0.06867 0.0
O372 O 0.54901 0.3559 0.16476 0.0
C373 C 0.6492 0.45271 0.14192 0.0
Co374 Co 0.57361 0.16874 0.13712 0.0
Co375 Co 0.49031 0.11711 0.14087 0.0
C376 C 0.52146 0.14628 0.23371 0.0
O377 O 0.55262 0.16454 0.2099 0.0
O378 O 0.49196 0.12156 0.21214 0.0
C379 C 0.65679 0.19571 0.12626 0.0
O380 O 0.65065 0.16173 0.11803 0.0
C381 C 0.41246 0.05917 0.12428 0.0
C382 C 0.41037 0.06398 0.04319 0.0
C383 C 0.39038 0.04258 0.08296 0.0
N384 N 0.44473 0.08789 0.10904 0.0
N385 N 0.44316 0.09104 0.06081 0.0
C386 C 0.40306 0.04897 0.17734 0.0
H387 H 0.4251 0.06989 0.20164 0.0
H388 H 0.40022 0.02121 0.18461 0.0
H389 H 0.37613 0.04749 0.18626 0.0
C390 C 0.56157 0.10225 0.06521 0.0
N391 N 0.55377 0.12039 0.10156 0.0
N392 N 0.52008 0.09713 0.11748 0.0
C393 C 0.50732 0.06321 0.09668 0.0
C394 C 0.53199 0.06487 0.0609 0.0
C395 C 0.59413 0.12112 0.03112 0.0
H396 H 0.61479 0.11229 0.04035 0.0
H397 H 0.5849 0.1124 0.9926 0.0
H398 H 0.60756 0.15197 0.03447 0.0
O399 O 0.5599 0.20302 0.10452 0.0
O400 O 0.50063 0.16714 0.11895 0.0
H401 H 0.44967 0.02391 0.08232 0.0
H402 H 0.47505 0.00422 0.11028 0.0
C403 C 0.47131 0.02909 0.11016 0.0
H404 H 0.46193 0.03249 0.14705 0.0
H405 H 0.46492 0.11148 0.03982 0.0
O406 O 0.62963 0.20109 0.13566 0.0
C407 C 0.52709 0.19816 0.10423 0.0
Co408 Co 0.40235 0.83602 0.84616 0.0
Co409 Co 0.38621 0.89816 0.81448 0.0
C410 C 0.38399 0.84646 0.73784 0.0
O411 O 0.39487 0.83061 0.76936 0.0
O412 O 0.38189 0.87497 0.75028 0.0
C413 C 0.44745 0.80138 0.88407 0.0
O414 O 0.47737 0.83449 0.88835 0.0
C415 C 0.39879 0.96505 0.76489 0.0
C416 C 0.37331 0.98778 0.81538 0.0
C417 C 0.39287 0.99493 0.77118 0.0
N418 N 0.38391 0.94178 0.80325 0.0
N419 N 0.36899 0.95561 0.8337 0.0
C420 C 0.42028 0.95972 0.72463 0.0
H421 H 0.43287 0.94306 0.73801 0.0
H422 H 0.44287 0.98714 0.71123 0.0
H423 H 0.40099 0.94455 0.69383 0.0
C424 C 0.45432 0.90241 0.91648 0.0
N425 N 0.43334 0.88651 0.87515 0.0
N426 N 0.43135 0.91296 0.8509 0.0
C427 C 0.45406 0.94643 0.8723 0.0
C428 C 0.46846 0.94142 0.91605 0.0
C429 C 0.45582 0.8804 0.95925 0.0
H430 H 0.43384 0.85058 0.9559 0.0
H431 H 0.48362 0.88239 0.96049 0.0
H432 H 0.4522 0.89221 0.99419 0.0
O433 O 0.35023 0.81471 0.86718 0.0
O434 O 0.33827 0.86014 0.84807 0.0
H435 H 0.44014 0.98974 0.86268 0.0
H436 H 0.48927 0.00629 0.86629 0.0
C437 C 0.4623 0.98351 0.85184 0.0
H438 H 0.46414 0.98324 0.81127 0.0
H439 H 0.35588 0.94308 0.86677 0.0
O440 O 0.41708 0.79838 0.86795 0.0
C441 C 0.32759 0.82705 0.86362 0.0
Co442 Co 0.1698 0.60895 0.87903 0.0
Co443 Co 0.13098 0.52577 0.88648 0.0
C444 C 0.16417 0.55033 0.7948 0.0
O445 O 0.17723 0.58306 0.81467 0.0
O446 O 0.13826 0.52155 0.81631 0.0
C447 C 0.18676 0.69111 0.87071 0.0
O448 O 0.15207 0.6836 0.87568 0.0
C449 C 0.1009 0.44849 0.91291 0.0
C450 C 0.10057 0.45307 0.99439 0.0
C451 C 0.09285 0.42843 0.95604 0.0
N452 N 0.11271 0.48382 0.92504 0.0
N453 N 0.11289 0.4867 0.97357 0.0
C454 C 0.09801 0.43486 0.86113 0.0
H455 H 0.12483 0.45257 0.84177 0.0
H456 H 0.07604 0.43781 0.84146 0.0
H457 H 0.09123 0.40526 0.8597 0.0
C458 C 0.09527 0.59032 0.93821 0.0
N459 N 0.11853 0.58368 0.90923 0.0
N460 N 0.10168 0.54745 0.90213 0.0
C461 C 0.06729 0.53048 0.92261 0.0
C462 C 0.06165 0.55649 0.94743 0.0
C463 C 0.10606 0.62725 0.96105 0.0
H464 H 0.13693 0.64501 0.96228 0.0
H465 H 0.09424 0.64142 0.93874 0.0
H466 H 0.09432 0.62335 0.99875 0.0
O467 O 0.20713 0.60829 0.92429 0.0
O468 O 0.1816 0.54866 0.91145 0.0
H469 H 0.04243 0.47709 0.95816 0.0
H470 H 0.0118 0.48318 0.91751 0.0
C471 C 0.04098 0.48911 0.92226 0.0
H472 H 0.048 0.47557 0.89207 0.0
H473 H 0.12161 0.51177 0.9924 0.0
O474 O 0.19457 0.6649 0.87007 0.0
C475 C 0.20876 0.57852 0.92737 0.0
Co476 Co 0.40892 0.58384 0.87394 0.0
Co477 Co 0.49266 0.62303 0.87502 0.0
C478 C 0.4605 0.61335 0.77782 0.0
O479 O 0.42826 0.5954 0.79942 0.0
O480 O 0.49039 0.62542 0.80339 0.0
C481 C 0.33845 0.57712 0.86759 0.0
O482 O 0.35495 0.6011 0.83164 0.0
C483 C 0.57036 0.64382 0.89618 0.0
C484 C 0.56904 0.64951 0.97725 0.0
C485 C 0.59059 0.64836 0.93925 0.0
N486 N 0.53761 0.64044 0.9089 0.0
N487 N 0.53712 0.64432 0.95714 0.0
C488 C 0.58159 0.64335 0.84387 0.0
H489 H 0.56019 0.64222 0.81816 0.0
H490 H 0.58494 0.61864 0.83731 0.0
H491 H 0.60867 0.66892 0.83621 0.0
C492 C 0.42263 0.5309 0.94484 0.0
N493 N 0.43053 0.55879 0.91159 0.0
N494 N 0.46514 0.57235 0.89766 0.0
C495 C 0.47878 0.55117 0.91597 0.0
C496 C 0.45363 0.5251 0.94937 0.0
C497 C 0.38719 0.51207 0.97383 0.0
H498 H 0.37748 0.53223 0.98197 0.0
H499 H 0.36528 0.48908 0.95145 0.0
H500 H 0.39111 0.50021 1.00852 0.0
O501 O 0.42016 0.63266 0.90138 0.0
O502 O 0.48088 0.66257 0.89414 0.0
H503 H 0.53743 0.57073 0.92374 0.0
H504 H 0.51122 0.52517 0.8974 0.0
C505 C 0.51426 0.55347 0.89837 0.0
H506 H 0.52137 0.56604 0.86109 0.0
H507 H 0.51425 0.642 0.97657 0.0
O508 O 0.35403 0.55943 0.88458 0.0
C509 C 0.45101 0.66277 0.9034 0.0
Co510 Co 0.48869 0.70751 0.48374 0.0
Co511 Co 0.52407 0.65869 0.47644 0.0
C512 C 0.49561 0.67513 0.57552 0.0
O513 O 0.48994 0.70074 0.55804 0.0
O514 O 0.50774 0.65873 0.54744 0.0
C515 C 0.42782 0.71922 0.48239 0.0
O516 O 0.42034 0.69949 0.52299 0.0
C517 C 0.57953 0.65102 0.5206 0.0
C518 C 0.55913 0.59133 0.50712 0.0
C519 C 0.58072 0.62062 0.53907 0.0
N520 N 0.55617 0.63963 0.48214 0.0
N521 N 0.54555 0.60441 0.47235 0.0
C522 C 0.59573 0.68901 0.54344 0.0
H523 H 0.5777 0.7014 0.53682 0.0
H524 H 0.62299 0.70769 0.52565 0.0
H525 H 0.60124 0.68826 0.5832 0.0
C526 C 0.56062 0.76077 0.42465 0.0
N527 N 0.5369 0.72865 0.44893 0.0
N528 N 0.55024 0.70578 0.44502 0.0
C529 C 0.582 0.72191 0.41809 0.0
C530 C 0.59033 0.75767 0.40437 0.0
C531 C 0.55457 0.7934 0.41941 0.0
H532 H 0.53382 0.79178 0.44672 0.0
H533 H 0.58147 0.8199 0.42399 0.0
H534 H 0.54399 0.79325 0.3818 0.0
O535 O 0.45184 0.65502 0.46403 0.0
O536 O 0.47833 0.62224 0.4418 0.0
H537 H 0.58393 0.67303 0.39544 0.0
H538 H 0.62179 0.71656 0.37181 0.0
C539 C 0.60349 0.70287 0.40403 0.0
H540 H 0.62134 0.70423 0.43535 0.0
H541 H 0.52465 0.58793 0.44716 0.0
O542 O 0.45959 0.73119 0.46222 0.0
C543 C 0.44925 0.6249 0.44795 0.0
Co544 Co 0.24375 0.73429 0.4831 0.0
Co545 Co 0.30577 0.80813 0.43741 0.0
C546 C 0.30391 0.79355 0.54862 0.0
O547 O 0.2717 0.76369 0.5453 0.0
O548 O 0.31989 0.81283 0.50998 0.0
C549 C 0.17073 0.65591 0.50361 0.0
O550 O 0.14573 0.66645 0.50898 0.0
C551 C 0.35845 0.88531 0.40934 0.0
C552 C 0.35581 0.88062 0.32803 0.0
C553 C 0.37031 0.90593 0.36627 0.0
N554 N 0.33698 0.84941 0.39728 0.0
N555 N 0.3366 0.84651 0.34873 0.0
C556 C 0.36392 0.89965 0.46099 0.0
H557 H 0.36913 0.88116 0.48529 0.0
H558 H 0.33815 0.8992 0.4737 0.0
H559 H 0.38782 0.92853 0.46391 0.0
C560 C 0.1952 0.75994 0.42355 0.0
N561 N 0.22782 0.76306 0.44051 0.0
N562 N 0.25522 0.79583 0.4262 0.0
C563 C 0.24103 0.81474 0.40218 0.0
C564 C 0.20258 0.79285 0.39878 0.0
C565 C 0.15764 0.72622 0.43027 0.0
H566 H 0.1594 0.70067 0.42305 0.0
H567 H 0.14857 0.72547 0.46886 0.0
H568 H 0.13672 0.727 0.40532 0.0
O569 O 0.28181 0.7236 0.45309 0.0
O570 O 0.31817 0.77283 0.40961 0.0
H571 H 0.27573 0.85361 0.34751 0.0
H572 H 0.24587 0.86705 0.37852 0.0
C573 C 0.2635 0.85394 0.38365 0.0
H574 H 0.28608 0.87102 0.41004 0.0
H575 H 0.32113 0.82142 0.32962 0.0
O576 O 0.20474 0.68005 0.49495 0.0
C577 C 0.30898 0.74027 0.42352 0.0
Co578 Co 0.22117 0.49545 0.5086 0.0
Co579 Co 0.15298 0.44271 0.56641 0.0
C580 C 0.20872 0.49769 0.62362 0.0
O581 O 0.22448 0.51233 0.58259 0.0
O582 O 0.18422 0.46341 0.62416 0.0
C583 C 0.29524 0.51061 0.47529 0.0
O584 O 0.28346 0.47522 0.48477 0.0
C585 C 0.09074 0.41056 0.63256 0.0
C586 C 0.04455 0.38139 0.57955 0.0
C587 C 0.05263 0.39431 0.62748 0.0
N588 N 0.10487 0.40862 0.58881 0.0
N589 N 0.077 0.38998 0.55776 0.0
C590 C 0.11312 0.43515 0.67451 0.0
H591 H 0.12751 0.46482 0.66265 0.0
H592 H 0.13428 0.42762 0.68619 0.0
H593 H 0.09511 0.43192 0.70659 0.0
C594 C 0.19183 0.42079 0.44883 0.0
N595 N 0.19435 0.44164 0.48922 0.0
N596 N 0.16991 0.41917 0.52141 0.0
C597 C 0.15405 0.38341 0.50553 0.0
C598 C 0.16583 0.38244 0.4574 0.0
C599 C 0.21034 0.43798 0.40098 0.0
H600 H 0.21354 0.46625 0.39729 0.0
H601 H 0.23872 0.44131 0.40037 0.0
H602 H 0.19408 0.42011 0.36949 0.0
O603 O 0.19382 0.51922 0.48459 0.0
O604 O 0.14775 0.48566 0.53627 0.0
H605 H 0.10017 0.34221 0.53368 0.0
H606 H 0.13314 0.32611 0.52738 0.0
C607 C 0.12997 0.35045 0.53763 0.0
H608 H 0.13773 0.35779 0.57684 0.0
H609 H 0.0804 0.38755 0.52018 0.0
O610 O 0.27322 0.52354 0.48125 0.0
C611 C 0.16439 0.51355 0.50709 0.0
C612 C 0.01989 0.38556 0.20279 0.0
C613 C 0.0156 0.39034 0.15271 0.0
C614 C 0.02508 0.3394 0.13139 0.0
C615 C 0.01317 0.32549 0.17999 0.0
N616 N 0.00938 0.33988 0.26581 0.0
N617 N 0.04862 0.3945 0.07922 0.0
C618 C 0.01454 0.35031 0.21757 0.0
C619 C 0.03238 0.37611 0.12139 0.0
N620 N 0.02972 0.41445 0.23453 0.0
N621 N 0.02394 0.31675 0.09405 0.0
H622 H 0.04998 0.41991 0.0711 0.0
H623 H 0.06289 0.38578 0.05606 0.0
H624 H 0.01388 0.28825 0.09879 0.0
H625 H 0.02966 0.3257 0.05759 0.0
H626 H 0.03545 0.41321 0.27162 0.0
H627 H 0.03488 0.44048 0.22173 0.0
H628 H 0.00682 0.35597 0.29346 0.0
H629 H 0.00665 0.31459 0.27761 0.0
C630 C 0.68077 0.65059 0.06289 0.0
C631 C 0.6455 0.62725 0.08368 0.0
C632 C 0.65599 0.67222 0.14703 0.0
C633 C 0.69463 0.68809 0.13682 0.0
N634 N 0.74351 0.70179 0.07761 0.0
N635 N 0.59299 0.62658 0.12112 0.0
C636 C 0.70695 0.68099 0.09143 0.0
C637 C 0.63071 0.64279 0.11643 0.0
N638 N 0.68888 0.64258 0.01745 0.0
N639 N 0.64407 0.68212 0.18827 0.0
H640 H 0.57525 0.60313 0.10028 0.0
H641 H 0.57986 0.63748 0.14278 0.0
H642 H 0.66235 0.70272 0.21251 0.0
H643 H 0.61631 0.66875 0.19968 0.0
H644 H 0.71372 0.65953 0.99879 0.0
H645 H 0.66865 0.62032 0.99683 0.0
H646 H 0.75495 0.69519 0.04776 0.0
H647 H 0.7626 0.72575 0.09669 0.0
C648 C 0.34291 0.98285 0.11573 0.0
C649 C 0.35134 0.01235 0.08302 0.0
C650 C 0.29741 0.0158 0.10978 0.0
C651 C 0.29819 0.99702 0.15335 0.0
N652 N 0.31391 0.95444 0.19362 0.0
N653 N 0.32766 0.04269 0.03143 0.0
C654 C 0.31752 0.97669 0.15437 0.0
C655 C 0.3247 0.02323 0.07338 0.0
N656 N 0.36242 0.9643 0.11218 0.0
N657 N 0.27126 0.02666 0.1041 0.0
H658 H 0.34628 0.04547 1.00358 0.0
H659 H 0.3113 0.05464 0.02317 0.0
H660 H 0.24979 0.0198 0.12932 0.0
H661 H 0.26936 0.04075 0.07352 0.0
H662 H 0.35751 0.94163 0.13414 0.0
H663 H 0.38205 0.97076 0.08415 0.0
H664 H 0.32969 0.94132 0.1982 0.0
H665 H 0.29555 0.94991 0.22261 0.0
C666 C 0.33455 0.99301 0.69264 0.0
C667 C 0.32335 0.0091 0.73072 0.0
C668 C 0.38864 0.04962 0.75215 0.0
C669 C 0.39436 0.02126 0.73299 0.0
N670 N 0.38917 0.99778 0.65109 0.0
N671 N 0.34445 0.07177 0.75964 0.0
C672 C 0.37276 0.00305 0.69129 0.0
C673 C 0.35181 0.04388 0.74964 0.0
N674 N 0.31008 0.97056 0.65756 0.0
N675 N 0.41638 0.07788 0.7784 0.0
H676 H 0.31846 0.06864 0.75117 0.0
H677 H 0.36476 0.09824 0.77138 0.0
H678 H 0.44273 0.08017 0.78093 0.0
H679 H 0.41273 0.09746 0.7982 0.0
H680 H 0.31653 0.95548 0.63247 0.0
H681 H 0.28418 0.96873 0.65244 0.0
H682 H 0.37504 0.98661 0.61813 0.0
H683 H 0.41792 0.00781 0.65046 0.0
C684 C 0.03915 0.36735 0.94288 0.0
C685 C 0.07644 0.38821 0.95874 0.0
C686 C 0.08872 0.33906 0.93325 0.0
C687 C 0.05501 0.32353 0.90594 0.0
N688 N 0.99705 0.32152 0.88463 0.0
N689 N 0.136 0.3938 0.97632 0.0
C690 C 0.02933 0.33664 0.91157 0.0
C691 C 0.10075 0.37346 0.95749 0.0
N692 N 0.01427 0.37858 0.95565 0.0
N693 N 0.10892 0.32103 0.9357 0.0
H694 H 0.14448 0.41851 0.99599 0.0
H695 H 0.15687 0.38693 0.97128 0.0
H696 H 0.10061 0.29561 0.91802 0.0
H697 H 0.13215 0.32964 0.95834 0.0
H698 H 0.98578 0.36313 0.94799 0.0
H699 H 0.022 0.40183 0.9782 0.0
H700 H 0.97926 0.33264 0.88376 0.0
H701 H 0.98924 0.29932 0.86027 0.0
C702 C 0.6552 0.69239 0.95896 0.0
C703 C 0.62928 0.65623 0.94315 0.0
C704 C 0.6681 0.66052 0.87431 0.0
C705 C 0.68637 0.69984 0.88065 0.0
N706 N 0.70607 0.75301 0.93496 0.0
N707 N 0.62165 0.6001 0.90764 0.0
C708 C 0.68344 0.71576 0.92567 0.0
C709 C 0.64032 0.63816 0.90891 0.0
N710 N 0.65164 0.704 1.00458 0.0
N711 N 0.67484 0.64531 0.83364 0.0
H712 H 0.60072 0.58469 0.93332 0.0
H713 H 0.62854 0.5844 0.88437 0.0
H714 H 0.69484 0.66149 0.80738 0.0
H715 H 0.65995 0.61694 0.82513 0.0
H716 H 0.6708 0.7297 0.01979 0.0
H717 H 0.63096 0.68581 0.02886 0.0
H718 H 0.702 0.76692 0.96416 0.0
H719 H 0.72879 0.77029 0.91271 0.0
C720 C 0.62174 0.61096 0.6576 0.0
C721 C 0.59145 0.57533 0.6684 0.0
C722 C 0.5515 0.58882 0.61779 0.0
C723 C 0.58422 0.61455 0.59174 0.0
N724 N 0.65123 0.65543 0.5915 0.0
N725 N 0.52549 0.53632 0.67484 0.0
C726 C 0.61972 0.62854 0.61401 0.0
C727 C 0.55529 0.56723 0.65543 0.0
N728 N 0.65296 0.62539 0.68614 0.0
N729 N 0.5175 0.58422 0.6049 0.0
H730 H 0.52933 0.52068 0.70213 0.0
H731 H 0.49799 0.52611 0.66346 0.0
H732 H 0.51477 0.60046 0.57758 0.0
H733 H 0.49295 0.56705 0.62403 0.0
H734 H 0.67578 0.65212 0.68099 0.0
H735 H 0.65397 0.6112 0.71744 0.0
H736 H 0.67805 0.66368 0.6043 0.0
H737 H 0.65036 0.668 0.55862 0.0
C738 C 0.42185 0.96996 0.37513 0.0
C739 C 0.38396 0.94613 0.36374 0.0
C740 C 0.3648 0.98155 0.41499 0.0
C741 C 0.40192 0.00166 0.43287 0.0
N742 N 0.46767 0.02676 0.41598 0.0
N743 N 0.32402 0.94047 0.3508 0.0
C744 C 0.43131 1.0001 0.40778 0.0
C745 C 0.35725 0.95666 0.37531 0.0
N746 N 0.44778 0.96134 0.35832 0.0
N747 N 0.33663 0.98381 0.43818 0.0
H748 H 0.31887 0.92184 0.32185 0.0
H749 H 0.30375 0.94818 0.35594 0.0
H750 H 0.34127 0.00126 0.46834 0.0
H751 H 0.30852 0.9667 0.42935 0.0
H752 H 0.47556 0.97494 0.36978 0.0
H753 H 0.44047 0.93937 0.33354 0.0
H754 H 0.49002 0.02815 0.39642 0.0
H755 H 0.47507 0.04958 0.43919 0.0
C756 C 0.02769 0.43778 0.63859 0.0
C757 C 0.02941 0.40581 0.65481 0.0
C758 C 0.97225 0.38436 0.70144 0.0
C759 C 0.96569 0.40911 0.67303 0.0
N760 N 0.99096 0.46929 0.63664 0.0
N761 N 0.00997 0.35448 0.7112 0.0
C762 C 0.99554 0.44002 0.6504 0.0
C763 C 0.00426 0.38144 0.6906 0.0
N764 N 0.05467 0.46351 0.60831 0.0
N765 N 0.94726 0.36335 0.73696 0.0
H766 H 0.03405 0.35296 0.7041 0.0
H767 H 0.99122 0.33384 0.73488 0.0
H768 H 0.9244 0.36665 0.74537 0.0
H769 H 0.95087 0.34559 0.76069 0.0
H770 H 0.05334 0.48561 0.5919 0.0
H771 H 0.07846 0.46239 0.59853 0.0
H772 H 0.01185 0.49392 0.62105 0.0
H773 H 0.96617 0.4693 0.64454 0.0
C774 C 0.1096 0.32299 0.42272 0.0
C775 C 0.14879 0.34856 0.42216 0.0
C776 C 0.15231 0.31026 0.35362 0.0
C777 C 0.11389 0.28257 0.35978 0.0
N778 N 0.06239 0.2578 0.41686 0.0
N779 N 0.20855 0.35845 0.39392 0.0
C780 C 0.09496 0.28722 0.40027 0.0
C781 C 0.17061 0.33987 0.38955 0.0
N782 N 0.08547 0.33374 0.44029 0.0
N783 N 0.17123 0.30939 0.31301 0.0
H784 H 0.22242 0.37792 0.42178 0.0
H785 H 0.22551 0.35131 0.37361 0.0
H786 H 0.15883 0.28895 0.28587 0.0
H787 H 0.19812 0.33077 0.30459 0.0
H788 H 0.05652 0.3164 0.43852 0.0
H789 H 0.09434 0.36133 0.45027 0.0
H790 H 0.04873 0.25984 0.44803 0.0
H791 H 0.05126 0.23104 0.40178 0.0
C792 C 0.65825 0.80946 0.39723 0.0
C793 C 0.62371 0.78487 0.37375 0.0
C794 C 0.65601 0.80275 0.2931 0.0
C795 C 0.69121 0.82326 0.31708 0.0
N796 N 0.72627 0.84617 0.39205 0.0
N797 N 0.58942 0.75764 0.2992 0.0
C798 C 0.69232 0.82706 0.36919 0.0
C799 C 0.6225 0.78184 0.32151 0.0
N800 N 0.65836 0.81591 0.44657 0.0
N801 N 0.65474 0.80346 0.24287 0.0
H802 H 0.56429 0.74346 0.31849 0.0
H803 H 0.58695 0.7502 0.26223 0.0
H804 H 0.67865 0.81842 0.2214 0.0
H805 H 0.6301 0.792 0.22256 0.0
H806 H 0.68161 0.83585 0.46578 0.0
H807 H 0.63411 0.8032 0.46785 0.0
H808 H 0.72998 0.84652 0.42995 0.0
H809 H 0.7513 0.86059 0.37258 0.0
C810 C 0.16256 0.82409 0.29243 0.0
C811 C 0.14677 0.84272 0.31872 0.0
C812 C 0.15726 0.81806 0.3968 0.0
C813 C 0.17726 0.80353 0.37102 0.0
N814 N 0.19798 0.7912 0.29424 0.0
N815 N 0.12785 0.85687 0.39558 0.0
C816 C 0.17907 0.80568 0.31868 0.0
C817 C 0.14327 0.83898 0.37083 0.0
N818 N 0.16188 0.82421 0.24212 0.0
N819 N 0.15205 0.81213 0.44635 0.0
H820 H 0.11586 0.87065 0.37751 0.0
H821 H 0.1279 0.8593 0.43367 0.0
H822 H 0.16259 0.79776 0.46618 0.0
H823 H 0.13535 0.81903 0.46748 0.0
H824 H 0.16974 0.80871 0.22001 0.0
H825 H 0.15088 0.83802 0.22199 0.0
H826 H 0.20489 0.79555 0.25711 0.0
H827 H 0.20799 0.77544 0.31184 0.0
C828 C 0.36158 0.14891 0.68815 0.0
C829 C 0.35894 0.14174 0.63656 0.0
C830 C 0.28993 0.11153 0.64286 0.0
C831 C 0.29232 0.11412 0.69498 0.0
N832 N 0.33013 0.14297 0.76659 0.0
N833 N 0.32061 0.11686 0.56429 0.0
C834 C 0.32815 0.13569 0.71727 0.0
C835 C 0.32306 0.12366 0.61377 0.0
N836 N 0.39614 0.16631 0.70971 0.0
N837 N 0.25577 0.09858 0.62125 0.0
H838 H 0.34406 0.12705 0.5416 0.0
H839 H 0.29564 0.09982 0.54592 0.0
H840 H 0.23161 0.09057 0.6419 0.0
H841 H 0.25165 0.09872 0.5835 0.0
H842 H 0.40087 0.16966 0.7474 0.0
H843 H 0.42086 0.17658 0.68964 0.0
H844 H 0.3546 0.16078 0.78537 0.0
H845 H 0.3066 0.13256 0.78902 0.0
C846 C 0.88859 0.23633 0.6767 0.0
C847 C 0.85435 0.21432 0.65121 0.0
C848 C 0.85054 0.16049 0.6975 0.0
C849 C 0.88866 0.18189 0.7132 0.0
N850 N 0.94666 0.23838 0.69374 0.0
N851 N 0.80848 0.15069 0.62942 0.0
C852 C 0.90862 0.21923 0.69528 0.0
C853 C 0.83675 0.17484 0.65925 0.0
N854 N 0.9014 0.27315 0.68621 0.0
N855 N 0.82667 0.12779 0.72034 0.0
H856 H 0.80074 0.15971 0.59804 0.0
H857 H 0.79648 0.12175 0.63265 0.0
H858 H 0.83431 0.11883 0.75185 0.0
H859 H 0.79829 0.11263 0.71158 0.0
H860 H 0.92581 0.28918 0.7064 0.0
H861 H 0.88543 0.28583 0.67895 0.0
H862 H 0.96153 0.26538 0.67923 0.0
H863 H 0.96246 0.22561 0.70145 0.0
C864 C 0.80657 0.6569 0.73033 0.0
C865 C 0.82554 0.69195 0.7058 0.0
C866 C 0.81122 0.65854 0.62588 0.0
C867 C 0.78826 0.62391 0.65012 0.0
N868 N 0.76377 0.58972 0.72549 0.0
N869 N 0.8465 0.72672 0.63043 0.0
C870 C 0.7863 0.62301 0.70247 0.0
C871 C 0.82849 0.69282 0.65358 0.0
N872 N 0.80808 0.65616 0.78055 0.0
N873 N 0.81618 0.65857 0.57616 0.0
H874 H 0.86073 0.75191 0.64969 0.0
H875 H 0.84632 0.73025 0.59256 0.0
H876 H 0.80322 0.63423 0.55503 0.0
H877 H 0.83494 0.68197 0.55618 0.0
H878 H 0.79789 0.63178 0.8012 0.0
H879 H 0.82239 0.68038 0.80172 0.0
H880 H 0.75691 0.58723 0.76265 0.0
H881 H 0.75045 0.56426 0.70672 0.0
C882 C 0.9608 0.51582 0.99478 0.0
C883 C 0.96395 0.50614 0.04414 0.0
C884 C 0.03278 0.537 0.03326 0.0
C885 C 0.02967 0.54625 0.98364 0.0
N886 N 0.99167 0.55139 0.92069 0.0
N887 N 0.00369 0.51562 0.11367 0.0
C888 C 0.99389 0.53802 0.96579 0.0
C889 C 1.0003 0.51958 0.06433 0.0
N890 N 0.92604 0.50203 0.97469 0.0
N891 N 0.06656 0.54301 0.05004 0.0
H892 H 0.98061 0.50334 0.13712 0.0
H893 H 0.0292 0.5275 0.13209 0.0
H894 H 0.09102 0.55684 0.02933 0.0
H895 H 0.07006 0.53251 0.08322 0.0
H896 H 0.92124 0.50393 0.93748 0.0
H897 H 0.90163 0.48688 0.99517 0.0
H898 H 0.96731 0.54945 0.90659 0.0
H899 H 0.01527 0.56743 0.89908 0.0
C900 C 0.4436 0.46569 0.99848 0.0
C901 C 0.46446 0.50487 0.98795 0.0
C902 C 0.51808 0.50616 0.02872 0.0
C903 C 0.49641 0.46966 0.048 0.0
N904 N 0.4348 0.41572 0.0549 0.0
N905 N 0.51723 0.56311 1.0142 0.0
C906 C 0.45791 0.44952 0.03391 0.0
C907 C 0.50029 0.52526 1.00982 0.0
N908 N 0.41115 0.44367 0.9738 0.0
N909 N 0.55589 0.52233 0.02642 0.0
H910 H 0.50323 0.57767 1.00616 0.0
H911 H 0.54344 0.57886 0.03037 0.0
H912 H 0.56929 0.50734 0.03531 0.0
H913 H 0.57252 0.54834 1.00995 0.0
H914 H 0.39645 0.41463 0.97699 0.0
H915 H 0.40098 0.45436 0.94697 0.0
H916 H 0.40598 0.40127 0.04923 0.0
H917 H 0.44429 0.40384 0.081 0.0
C918 C 0.48765 0.02668 0.99281 0.0
C919 C 0.52072 0.03612 0.01952 0.0
C920 C 0.52181 0.98321 0.97707 0.0
C921 C 0.48557 0.97092 0.95675 0.0
N922 N 0.42984 0.97605 0.96141 0.0
N923 N 0.5674 0.0198 0.04075 0.0
C924 C 0.46725 0.99116 0.9697 0.0
C925 C 0.53735 0.01331 1.01269 0.0
N926 N 0.47606 0.05223 0.98821 0.0
N927 N 0.54197 0.9672 0.96129 0.0
H928 H 0.57959 0.04185 0.06586 0.0
H929 H 0.57852 0.002 0.04124 0.0
H930 H 0.53167 0.94574 0.9353 0.0
H931 H 0.56977 0.97718 0.9711 0.0
H932 H 0.45355 0.0477 0.96598 0.0
H933 H 0.49194 0.07943 1.00164 0.0
H934 H 0.41485 0.98872 0.97367 0.0
H935 H 0.41331 0.9491 0.94742 0.0
C936 C 0.99544 0.17613 0.05574 0.0
C937 C 0.01081 0.15595 0.07952 0.0
C938 C 0.99449 0.11658 1.00413 0.0
C939 C 0.97513 0.13415 0.98424 0.0
N940 N 0.94753 0.17229 1.00073 0.0
N941 N 0.0161 0.09987 0.07786 0.0
C942 C 0.97231 0.16096 1.01352 0.0
C943 C 0.00789 0.12409 0.0542 0.0
N944 N 0.00471 0.21115 0.07142 0.0
N945 N 1.0013 0.09367 0.97503 0.0
H946 H 0.02453 0.10291 0.11444 0.0
H947 H 0.01093 0.0746 0.06238 0.0
H948 H 0.99123 0.08679 0.93911 0.0
H949 H 0.01906 0.08371 0.98555 0.0
H950 H 0.99625 0.22786 0.053 0.0
H951 H 0.02502 0.22528 0.09823 0.0
H952 H 0.94237 0.18989 0.02289 0.0
H953 H 0.92963 0.16091 0.97056 0.0
C954 C 0.86885 0.86462 0.98479 0.0
C955 C 0.8445 0.82949 0.96202 0.0
C956 C 0.80106 0.81475 0.032 0.0
C957 C 0.82722 0.84748 0.05773 0.0
N958 N 0.88986 0.90039 0.06079 0.0
N959 N 0.79155 0.76774 0.97129 0.0
C960 C 0.86219 0.87161 0.03466 0.0
C961 C 0.81178 0.80363 0.9879 0.0
N962 N 0.8975 0.89211 0.95836 0.0
N963 N 0.76524 0.79492 0.04879 0.0
H964 H 0.80072 0.75807 0.94208 0.0
H965 H 0.76862 0.74674 0.98982 0.0
H966 H 0.75586 0.80476 0.07757 0.0
H967 H 0.74407 0.77181 0.0307 0.0
H968 H 0.9135 0.91947 0.97108 0.0
H969 H 0.90319 0.88859 0.92202 0.0
H970 H 0.91716 0.91621 0.04791 0.0
H971 H 0.88647 0.90644 0.09703 0.0
C972 C 0.19847 0.98974 0.99313 0.0
C973 C 0.17515 0.99945 0.96557 0.0
C974 C 0.13247 0.98089 0.03734 0.0
C975 C 0.15376 0.96765 0.06281 0.0
N976 N 0.20221 0.95153 0.05851 0.0
N977 N 0.11339 0.99242 0.95819 0.0
C978 C 0.18546 0.9699 0.03879 0.0
C979 C 0.14035 0.99182 0.9868 0.0
N980 N 0.23357 1.00037 0.97648 0.0
N981 N 0.10534 0.98436 0.06156 0.0
H982 H 0.11619 0.99737 0.92044 0.0
H983 H 0.08636 0.98336 0.97082 0.0
H984 H 0.09868 0.97719 0.09843 0.0
H985 H 0.09202 0.99782 0.04625 0.0
H986 H 0.25282 0.9963 0.99636 0.0
H987 H 0.24476 0.0167 0.94507 0.0
H988 H 0.22351 0.94931 0.04111 0.0
H989 H 0.19155 0.93474 0.0896 0.0
C990 C 0.59174 0.4571 0.35672 0.0
C991 C 0.61604 0.47159 0.31558 0.0
C992 C 0.66909 0.50746 0.37266 0.0
C993 C 0.64532 0.49132 0.41399 0.0
N994 N 0.58512 0.44408 0.44456 0.0
N995 N 0.6794 0.50368 0.28543 0.0
C996 C 0.60688 0.46432 0.40578 0.0
C997 C 0.65517 0.49478 0.32399 0.0
N998 N 0.55404 0.43726 0.3491 0.0
N999 N 0.70483 0.53605 0.37969 0.0
H1000 H 0.67053 0.49424 0.24968 0.0
H1001 H 0.70831 0.51702 0.28963 0.0
H1002 H 0.71585 0.54641 0.41447 0.0
H1003 H 0.72233 0.55182 0.35101 0.0
H1004 H 0.53451 0.42959 0.37733 0.0
H1005 H 0.54227 0.4307 0.31397 0.0
H1006 H 0.55834 0.42122 0.44044 0.0
H1007 H 0.59498 0.44785 0.48063 0.0
C1008 C 0.47972 0.17164 0.34373 0.0
C1009 C 0.50161 0.17104 0.3836 0.0
C1010 C 0.53817 0.15557 0.32535 0.0
C1011 C 0.51719 0.15755 0.28521 0.0
N1012 N 0.47494 0.17784 0.25558 0.0
N1013 N 0.55785 0.17216 0.4103 0.0
C1014 C 0.49001 0.16867 0.2943 0.0
C1015 C 0.53269 0.16589 0.37369 0.0
N1016 N 0.44814 0.17348 0.35297 0.0
N1017 N 0.5622 0.14228 0.31788 0.0
H1018 H 0.55541 0.18091 0.44544 0.0
H1019 H 0.58301 0.17261 0.40448 0.0
H1020 H 0.56701 0.13465 0.28322 0.0
H1021 H 0.57506 0.13607 0.34646 0.0
H1022 H 0.42859 0.16953 0.32594 0.0
H1023 H 0.44 0.1761 0.3884 0.0
H1024 H 0.45789 0.18962 0.25987 0.0
H1025 H 0.48267 0.1775 0.21912 0.0
C1026 C 0.86625 0.39038 0.3392 0.0
C1027 C 0.84548 0.36799 0.29872 0.0
C1028 C 0.81817 0.3124 0.35343 0.0
C1029 C 0.83676 0.33517 0.39497 0.0
N1030 N 0.87115 0.39829 0.42766 0.0
N1031 N 0.79469 0.30914 0.27049 0.0
C1032 C 0.85883 0.37486 0.38789 0.0
C1033 C 0.81939 0.32942 0.30688 0.0
N1034 N 0.89391 0.42637 0.33118 0.0
N1035 N 0.80076 0.27437 0.3575 0.0
H1036 H 0.79395 0.32086 0.23678 0.0
H1037 H 0.77256 0.28203 0.27555 0.0
H1038 H 0.80023 0.26083 0.39013 0.0
H1039 H 0.79013 0.25641 0.3274 0.0
H1040 H 0.91313 0.44276 0.3581 0.0
H1041 H 0.89954 0.43882 0.29647 0.0
H1042 H 0.88378 0.42726 0.42468 0.0
H1043 H 0.86493 0.38909 0.46391 0.0
C1044 C 0.34064 0.79174 0.68029 0.0
C1045 C 0.36835 0.83007 0.68738 0.0
C1046 C 0.34882 0.84422 0.60816 0.0
C1047 C 0.32474 0.80559 0.59767 0.0
N1048 N 0.30814 0.74228 0.62052 0.0
N1049 N 0.40625 0.88949 0.64777 0.0
C1050 C 0.32365 0.77918 0.63274 0.0
C1051 C 0.37484 0.85513 0.64785 0.0
N1052 N 0.32873 0.76732 0.71888 0.0
N1053 N 0.34547 0.87087 0.58256 0.0
H1054 H 0.42684 0.8974 0.67479 0.0
H1055 H 0.41356 0.90789 0.61812 0.0
H1056 H 0.32407 0.86421 0.55722 0.0
H1057 H 0.36075 0.89923 0.59144 0.0
H1058 H 0.3058 0.74037 0.7162 0.0
H1059 H 0.33907 0.77474 0.75449 0.0
H1060 H 0.30959 0.72283 0.64358 0.0
H1061 H 0.29819 0.73196 0.58544 0.0
C1062 C 0.20795 0.55333 0.66646 0.0
C1063 C 0.21142 0.52051 0.66942 0.0
C1064 C 0.19692 0.51743 0.75837 0.0
C1065 C 0.18425 0.5437 0.75224 0.0
N1066 N 0.1805 0.58907 0.70059 0.0
N1067 N 0.21449 0.47483 0.72113 0.0
C1068 C 0.19113 0.56278 0.70647 0.0
C1069 C 0.20778 0.50396 0.71651 0.0
N1070 N 0.2213 0.57593 0.62611 0.0
N1071 N 0.20047 0.50674 0.80476 0.0
H1072 H 0.22681 0.46736 0.69308 0.0
H1073 H 0.2069 0.4575 0.75187 0.0
H1074 H 0.19491 0.51743 0.83636 0.0
H1075 H 0.21274 0.49054 0.81243 0.0
H1076 H 0.22195 0.60139 0.62289 0.0
H1077 H 0.23614 0.57184 0.59825 0.0
H1078 H 0.18201 0.60234 0.66742 0.0
H1079 H 0.16788 0.5962 0.72852 0.0
C1080 C 0.43895 0.62999 0.69483 0.0
C1081 C 0.46524 0.62429 0.72305 0.0
C1082 C 0.51221 0.65931 0.65856 0.0
C1083 C 0.48535 0.66107 0.62803 0.0
N1084 N 0.41988 0.63817 0.61318 0.0
N1085 N 0.52269 0.62194 0.71775 0.0
C1086 C 0.44775 0.64353 0.64501 0.0
C1087 C 0.50056 0.63539 0.70051 0.0
N1088 N 0.40613 0.62412 0.71487 0.0
N1089 N 0.54923 0.68156 0.64857 0.0
H1090 H 0.51321 0.6003 0.74343 0.0
H1091 H 0.54822 0.62861 0.70178 0.0
H1092 H 0.55836 0.70181 0.62101 0.0
H1093 H 0.57028 0.68331 0.67159 0.0
H1094 H 0.38906 0.6326 0.6975 0.0
H1095 H 0.39681 0.61362 0.7498 0.0
H1096 H 0.39161 0.62183 0.62184 0.0
H1097 H 0.42487 0.64683 0.57658 0.0
C1098 C 0.12793 0.05499 0.19598 0.0
C1099 C 0.12274 0.03503 0.24056 0.0
C1100 C 0.10711 0.07824 0.28275 0.0
C1101 C 0.10899 0.09599 0.23705 0.0
N1102 N 0.11179 0.09438 0.14826 0.0
N1103 N 0.10262 0.02406 0.32495 0.0
C1104 C 0.11696 0.08258 0.19313 0.0
C1105 C 0.11092 0.04561 0.28361 0.0
N1106 N 0.14395 0.04803 0.15631 0.0
N1107 N 0.103 0.09329 0.32547 0.0
H1108 H 0.10596 1.00061 0.32686 0.0
H1109 H 0.08995 0.02776 0.35591 0.0
H1110 H 0.10048 0.11722 0.32628 0.0
H1111 H 0.10515 0.08398 0.36028 0.0
H1112 H 0.1522 0.06455 0.12474 0.0
H1113 H 0.15214 0.02786 0.15652 0.0
H1114 H 0.11326 0.08247 0.11511 0.0
H1115 H 0.10189 0.11306 0.14403 0.0
C1116 C 0.90692 0.0771 0.19999 0.0
C1117 C 0.92609 0.08444 0.24577 0.0
C1118 C 0.88295 0.02006 0.27185 0.0
C1119 C 0.86769 0.01135 0.22348 0.0
N1120 N 0.87012 0.03052 0.13887 0.0
N1121 N 0.93425 0.06275 0.32444 0.0
C1122 C 0.88059 0.03966 0.18695 0.0
C1123 C 0.91454 0.05587 0.28158 0.0
N1124 N 0.91418 0.10573 0.16837 0.0
N1125 N 0.86661 0.99442 0.30873 0.0
H1126 H 0.95626 0.0892 0.33363 0.0
H1127 H 0.93015 0.04195 0.34951 0.0
H1128 H 0.84301 0.96827 0.30318 0.0
H1129 H 0.8742 1.00027 0.3456 0.0
H1130 H 0.89816 0.1024 0.13712 0.0
H1131 H 0.93377 0.13355 0.17544 0.0
H1132 H 0.88232 0.04928 0.10988 0.0
H1133 H 0.85204 0.00334 0.12691 0.0
C1134 C 0.92128 0.83934 0.22179 0.0
C1135 C 0.91008 0.86262 0.24657 0.0
C1136 C 0.97529 0.90547 0.26905 0.0
C1137 C 0.98568 0.88003 0.24901 0.0
N1138 N 0.96659 0.81847 0.21727 0.0
N1139 N 0.9254 0.91332 0.30315 0.0
C1140 C 0.95801 0.84556 0.22894 0.0
C1141 C 0.93678 0.89425 0.27325 0.0
N1142 N 0.89806 0.81304 0.1886 0.0
N1143 N 0.00194 0.94118 0.28104 0.0
H1144 H 0.89732 0.9054 0.30789 0.0
H1145 H 0.94343 0.93447 0.32698 0.0
H1146 H 0.03047 0.95166 0.27592 0.0
H1147 H 0.99551 0.96173 0.29103 0.0
H1148 H 0.90662 0.79817 0.16622 0.0
H1149 H 0.87183 0.80895 0.17901 0.0
H1150 H 0.94645 0.79147 0.20693 0.0
H1151 H 0.99306 0.82174 0.22296 0.0
C1152 C 0.07084 0.11982 0.76907 0.0
C1153 C 0.05902 0.13282 0.8098 0.0
C1154 C 0.1039 0.12655 0.86309 0.0
C1155 C 0.11804 0.11671 0.82159 0.0
N1156 N 0.11894 0.1094 0.73362 0.0
N1157 N 0.06807 0.15381 0.89456 0.0
C1158 C 0.10255 0.11479 0.77411 0.0
C1159 C 0.07696 0.13809 0.85632 0.0
N1160 N 0.05141 0.11176 0.72583 0.0
N1161 N 0.11413 0.12229 0.90951 0.0
H1162 H 0.04701 0.16066 0.8929 0.0
H1163 H 0.0835 0.16267 0.92704 0.0
H1164 H 0.1328 0.11275 0.91654 0.0
H1165 H 0.10127 0.12448 0.94132 0.0
H1166 H 0.05575 0.0981 0.69651 0.0
H1167 H 0.02915 0.11664 0.72044 0.0
H1168 H 0.11144 0.11143 0.69764 0.0
H1169 H 0.14233 0.10603 0.73581 0.0
C1170 C 0.86072 0.96187 0.80238 0.0
C1171 C 0.89896 0.98724 0.79273 0.0
C1172 C 0.90475 0.93783 0.75047 0.0
C1173 C 0.86765 0.91176 0.7648 0.0
N1174 N 0.80616 0.90344 0.77959 0.0
N1175 N 0.9535 0.00295 0.74365 0.0
C1176 C 0.84411 0.92514 0.78265 0.0
C1177 C 0.91979 0.97634 0.76212 0.0
N1178 N 0.84072 0.97199 0.83248 0.0
N1179 N 0.92555 0.92536 0.72648 0.0
H1180 H 0.96458 0.03146 0.75046 0.0
H1181 H 0.96897 0.99739 0.71827 0.0
H1182 H 0.91371 0.89802 0.71318 0.0
H1183 H 0.95419 0.94156 0.72043 0.0
H1184 H 0.81407 0.95304 0.84529 0.0
H1185 H 0.85179 0.9986 0.84781 0.0
H1186 H 0.78795 0.91297 0.78946 0.0
H1187 H 0.79312 0.87836 0.76013 0.0
C1188 C 0.07318 0.9113 0.84605 0.0
C1189 C 0.08475 0.92856 0.79921 0.0
C1190 C 0.0238 0.88336 0.76475 0.0
C1191 C 0.01085 0.86927 0.81291 0.0
N1192 N 0.02136 0.87548 0.90084 0.0
N1193 N 0.07082 0.9336 0.71458 0.0
C1194 C 0.03508 0.88452 0.85398 0.0
C1195 C 0.06 0.91526 0.7586 0.0
N1196 N 0.09872 0.92013 0.88301 0.0
N1197 N 0.00185 0.8656 0.72488 0.0
H1198 H 0.09753 0.95633 0.70874 0.0
H1199 H 0.05273 0.92797 0.68499 0.0
H1200 H 0.97546 0.84193 0.72799 0.0
H1201 H 0.01097 0.87221 0.68864 0.0
H1202 H 0.09261 0.90561 0.9162 0.0
H1203 H 0.12696 0.93956 0.87882 0.0
H1204 H 0.03696 0.88925 0.93193 0.0
H1205 H 0.99338 0.85694 0.90883 0.0
C1206 C 0.78689 0.39204 0.52118 0.0
C1207 C 0.77645 0.36664 0.5612 0.0
C1208 C 0.74802 0.39951 0.60092 0.0
C1209 C 0.76537 0.42915 0.5658 0.0
N1210 N 0.80816 0.45585 0.49739 0.0
N1211 N 0.75189 0.35007 0.64367 0.0
C1212 C 0.78681 0.42609 0.52727 0.0
C1213 C 0.75839 0.37142 0.60248 0.0
N1214 N 0.79514 0.38291 0.47647 0.0
N1215 N 0.71988 0.39637 0.63061 0.0
H1216 H 0.75947 0.32952 0.64665 0.0
H1217 H 0.74213 0.3553 0.67642 0.0
H1218 H 0.70836 0.41372 0.62796 0.0
H1219 H 0.70455 0.37337 0.65341 0.0
H1220 H 0.79988 0.39927 0.44512 0.0
H1221 H 0.79255 0.35687 0.4695 0.0
H1222 H 0.82658 0.45546 0.47145 0.0
H1223 H 0.81071 0.48211 0.50225 0.0
C1224 C 0.58887 0.37431 0.6126 0.0
C1225 C 0.61393 0.39408 0.57379 0.0
C1226 C 0.57234 0.34647 0.51454 0.0
C1227 C 0.54833 0.32562 0.55374 0.0
N1228 N 0.53596 0.31617 0.64081 0.0
N1229 N 0.63309 0.39599 0.48908 0.0
C1230 C 0.55731 0.33847 0.60308 0.0
C1231 C 0.60679 0.37918 0.52519 0.0
N1232 N 0.59493 0.39022 0.65826 0.0
N1233 N 0.56201 0.33527 0.46689 0.0
H1234 H 0.65853 0.42033 0.49433 0.0
H1235 H 0.63136 0.3841 0.4547 0.0
H1236 H 0.53806 0.31041 0.45728 0.0
H1237 H 0.5756 0.35192 0.43652 0.0
H1238 H 0.57552 0.3795 0.68674 0.0
H1239 H 0.61888 0.41544 0.66695 0.0
H1240 H 0.54328 0.32198 0.67776 0.0
H1241 H 0.51184 0.29048 0.63507 0.0
C1242 C 0.6304 0.17656 0.51114 0.0
C1243 C 0.6568 0.20721 0.53949 0.0
C1244 C 0.6063 0.2044 0.59064 0.0
C1245 C 0.57954 0.17524 0.56048 0.0
N1246 N 0.56621 0.1267 0.50057 0.0
N1247 N 0.67143 0.2428 0.61449 0.0
C1248 C 0.59166 0.15877 0.5239 0.0
C1249 C 0.64514 0.2186 0.58206 0.0
N1250 N 0.64217 0.16594 0.47036 0.0
N1251 N 0.5944 0.21927 0.62654 0.0
H1252 H 0.69994 0.25281 0.6096 0.0
H1253 H 0.66508 0.25014 0.64828 0.0
H1254 H 0.56626 0.20766 0.63599 0.0
H1255 H 0.61204 0.24369 0.64568 0.0
H1256 H 0.62422 0.14704 0.44426 0.0
H1257 H 0.67038 0.17761 0.46131 0.0
H1258 H 0.57356 0.11148 0.47708 0.0
H1259 H 0.53761 0.11338 0.50732 0.0
C1260 C 0.72975 0.44055 0.18943 0.0
C1261 C 0.75742 0.45981 0.15297 0.0
C1262 C 0.7147 0.4758 0.10963 0.0
C1263 C 0.68605 0.45404 0.14397 0.0
N1264 N 0.66506 0.41315 0.21483 0.0
N1265 N 0.77559 0.49245 0.07558 0.0
C1266 C 0.69321 0.43552 0.18319 0.0
C1267 C 0.74978 0.4767 0.11238 0.0
N1268 N 0.73902 0.42867 0.23141 0.0
N1269 N 0.70846 0.49589 0.07467 0.0
H1270 H 0.8016 0.49401 0.07678 0.0
H1271 H 0.77047 0.50167 0.04239 0.0
H1272 H 0.6826 0.49428 0.07003 0.0
H1273 H 0.72927 0.51571 0.05209 0.0
H1274 H 0.72178 0.41848 0.26214 0.0
H1275 H 0.76545 0.43194 0.23753 0.0
H1276 H 0.66691 0.39497 0.23976 0.0
H1277 H 0.63876 0.41086 0.21457 0.0
C1278 C 0.48701 0.22832 0.11568 0.0
C1279 C 0.52061 0.23092 0.09769 0.0
C1280 C 0.54814 0.29937 0.09477 0.0
C1281 C 0.51878 0.29632 0.12556 0.0
N1282 N 0.46 0.25703 0.16629 0.0
N1283 N 0.57955 0.2691 0.05697 0.0
C1284 C 0.48793 0.26055 0.13591 0.0
C1285 C 0.55016 0.26662 0.08312 0.0
N1286 N 0.4538 0.1958 0.11065 0.0
N1287 N 0.5728 0.33319 0.07447 0.0
H1288 H 0.57831 0.246 0.03943 0.0
H1289 H 0.60474 0.29387 0.05205 0.0
H1290 H 0.5709 0.35723 0.07975 0.0
H1291 H 0.593 0.33699 0.04866 0.0
H1292 H 0.42822 0.19325 0.1205 0.0
H1293 H 0.45124 0.17352 0.08953 0.0
H1294 H 0.43896 0.23122 0.17905 0.0
H1295 H 0.45968 0.27994 0.18206 0.0
C1296 C 0.73672 0.29121 0.08653 0.0
C1297 C 0.76641 0.29465 0.11668 0.0
C1298 C 0.72439 0.23257 0.1525 0.0
C1299 C 0.69516 0.22866 0.12117 0.0
N1300 N 0.67561 0.25034 0.05088 0.0
N1301 N 0.79036 0.26539 0.17208 0.0
C1302 C 0.70193 0.25692 0.08605 0.0
C1303 C 0.76092 0.26418 0.14727 0.0
N1304 N 0.74169 0.32085 0.05844 0.0
N1305 N 0.71672 0.20738 0.18965 0.0
H1306 H 0.81696 0.28877 0.17351 0.0
H1307 H 0.789 0.24215 0.18922 0.0
H1308 H 0.69039 0.18404 0.1951 0.0
H1309 H 0.73547 0.21121 0.21777 0.0
H1310 H 0.71992 0.32211 0.04083 0.0
H1311 H 0.76751 0.34519 0.05458 0.0
H1312 H 0.68013 0.26808 0.02124 0.0
H1313 H 0.65025 0.22532 0.04858 0.0
C1314 C 0.4556 0.75538 0.93708 0.0
C1315 C 0.45034 0.767 0.88989 0.0
C1316 C 0.44391 0.70977 0.85316 0.0
C1317 C 0.45098 0.69883 0.89983 0.0
N1318 N 0.46849 0.71302 0.98483 0.0
N1319 N 0.44767 0.75952 0.80176 0.0
C1320 C 0.45839 0.72226 0.94144 0.0
C1321 C 0.4467 0.74532 0.84761 0.0
N1322 N 0.45658 0.77531 0.97782 0.0
N1323 N 0.4339 0.68587 0.81397 0.0
H1324 H 0.45023 0.78571 0.79595 0.0
H1325 H 0.44959 0.74712 0.76934 0.0
H1326 H 0.43344 0.66045 0.81531 0.0
H1327 H 0.42344 0.68993 0.78109 0.0
H1328 H 0.45644 0.76646 1.01372 0.0
H1329 H 0.4551 0.7998 0.97578 0.0
H1330 H 0.47794 0.73056 0.01538 0.0
H1331 H 0.46974 0.68852 0.98919 0.0
C1332 C 0.2665 0.78352 0.82271 0.0
C1333 C 0.28699 0.79886 0.86707 0.0
C1334 C 0.23567 0.74862 0.91427 0.0
C1335 C 0.2181 0.73052 0.86955 0.0
N1336 N 0.21626 0.72963 0.78112 0.0
N1337 N 0.29167 0.79671 0.955 0.0
C1338 C 0.23308 0.74798 0.82375 0.0
C1339 C 0.27145 0.7818 0.91293 0.0
N1340 N 0.27933 0.80258 0.77937 0.0
N1341 N 0.21805 0.73392 0.95797 0.0
H1342 H 0.31684 0.82207 0.95527 0.0
H1343 H 0.28447 0.78353 0.98911 0.0
H1344 H 0.19209 0.70957 0.96001 0.0
H1345 H 0.22751 0.74718 0.99179 0.0
H1346 H 0.26408 0.79491 0.74675 0.0
H1347 H 0.30419 0.82791 0.77636 0.0
H1348 H 0.22814 0.73803 0.74638 0.0
H1349 H 0.1909 0.70449 0.78064 0.0
C1350 C 0.27928 0.61259 0.93225 0.0
C1351 C 0.24492 0.57887 0.93528 0.0
C1352 C 0.27456 0.54333 0.90731 0.0
C1353 C 0.30732 0.57746 0.89531 0.0
N1354 N 0.34336 0.64504 0.90375 0.0
N1355 N 0.21648 0.51336 0.95344 0.0
C1356 C 0.31059 0.61228 0.91051 0.0
C1357 C 0.24485 0.54454 0.93202 0.0
N1358 N 0.28233 0.64409 0.95328 0.0
N1359 N 0.27046 0.50993 0.89193 0.0
H1360 H 0.19585 0.51462 0.97423 0.0
H1361 H 0.21595 0.48787 0.95569 0.0
H1362 H 0.29084 0.50763 0.87214 0.0
H1363 H 0.24548 0.48467 0.89505 0.0
H1364 H 0.30698 0.66966 0.95533 0.0
H1365 H 0.26076 0.64326 0.97427 0.0
H1366 H 0.34612 0.67143 0.90722 0.0
H1367 H 0.36816 0.64614 0.89379 0.0
C1368 C 0.33012 0.69272 0.43724 0.0
C1369 C 0.33698 0.72739 0.41758 0.0
C1370 C 0.40394 0.75445 0.43163 0.0
C1371 C 0.39723 0.7212 0.45588 0.0
N1372 N 0.35652 0.65409 0.46152 0.0
N1373 N 0.38126 0.77971 0.36888 0.0
C1374 C 0.361 0.68873 0.45261 0.0
C1375 C 0.37426 0.75447 0.40555 0.0
N1376 N 0.2943 0.66372 0.4407 0.0
N1377 N 0.4376 0.78663 0.43554 0.0
H1378 H 0.35999 0.77783 0.34613 0.0
H1379 H 0.40823 0.79867 0.35699 0.0
H1380 H 0.45968 0.78888 0.45672 0.0
H1381 H 0.44209 0.81213 0.4217 0.0
H1382 H 0.28681 0.63947 0.46075 0.0
H1383 H 0.27207 0.66436 0.42327 0.0
H1384 H 0.33145 0.62929 0.45603 0.0
H1385 H 0.37888 0.64979 0.46889 0.0
C1386 C 0.15938 0.56278 0.45892 0.0
C1387 C 0.15367 0.54358 0.50427 0.0
C1388 C 0.1446 0.59249 0.54434 0.0
C1389 C 0.15929 0.61527 0.50191 0.0
N1390 N 0.17805 0.62129 0.41681 0.0
N1391 N 0.13854 0.54007 0.59158 0.0
C1392 C 0.16564 0.60002 0.4585 0.0
C1393 C 0.14458 0.55778 0.54717 0.0
N1394 N 0.15767 0.54472 0.41598 0.0
N1395 N 0.13184 0.60457 0.58265 0.0
H1396 H 0.13995 0.51609 0.59806 0.0
H1397 H 0.13393 0.55015 0.62427 0.0
H1398 H 0.13402 0.63083 0.58363 0.0
H1399 H 0.11616 0.5876 0.61173 0.0
H1400 H 0.15839 0.55573 0.38125 0.0
H1401 H 0.15122 0.51681 0.41522 0.0
H1402 H 0.18816 0.61386 0.38626 0.0
H1403 H 0.17965 0.64725 0.41345 0.0
C1404 C 0.38377 0.58759 0.4145 0.0
C1405 C 0.41152 0.59094 0.44831 0.0
C1406 C 0.36303 0.54148 0.49957 0.0
C1407 C 0.33545 0.53673 0.46449 0.0
N1408 N 0.32011 0.55031 0.38439 0.0
N1409 N 0.42852 0.56639 0.51848 0.0
C1410 C 0.34602 0.55834 0.42064 0.0
C1411 C 0.40146 0.56606 0.48901 0.0
N1412 N 0.3934 0.61304 0.37729 0.0
N1413 N 0.35245 0.52483 0.54478 0.0
H1414 H 0.45696 0.58498 0.51409 0.0
H1415 H 0.42304 0.54604 0.54496 0.0
H1416 H 0.32466 0.50757 0.55502 0.0
H1417 H 0.37091 0.53101 0.57407 0.0
H1418 H 0.37396 0.61525 0.3552 0.0
H1419 H 0.42105 0.6334 0.37021 0.0
H1420 H 0.32669 0.56256 0.34965 0.0
H1421 H 0.29238 0.52893 0.38758 0.0
loop_
_geom_bond_atom_site_label_1
_geom_bond_atom_site_label_2
_geom_bond_distance
_geom_bond_site_symmetry_2
_ccdc_geom_bond_type
Co0 O3 1.970 . S
Co0 N17 1.989 . S
Co0 O25 1.967 . S
Co0 O32 1.920 . S
Co1 O4 1.966 . S
Co1 N10 2.022 1_455 S
Co1 N18 1.993 . S
Co1 O26 1.941 1_455 S
C2 O3 1.258 . S
C2 O4 1.263 . S
O3 Co0 1.970 . S
O3 C2 1.258 . S
O4 Co1 1.966 . S
O4 C2 1.263 . S
C5 O6 1.235 . S
C5 O32 1.289 . S
O6 C5 1.235 . S
C7 C9 1.407 . S
C7 N10 1.348 . S
C7 C12 1.498 1_655 S
C8 C9 1.387 . S
C8 N11 1.341 . S
C9 C7 1.407 . S
C9 C8 1.387 . S
N10 Co1 2.022 1_655 S
N10 C7 1.348 . S
N10 N11 1.365 . S
N11 C8 1.341 . S
N11 N10 1.365 . S
N11 H31 0.862 . S
C12 C7 1.498 1_455 S
C12 H13 0.961 . S
C12 H14 0.961 . S
C12 H15 0.960 1_455 S
H13 C12 0.961 . S
H14 C12 0.961 . S
H15 C12 0.960 1_655 S
C16 N17 1.342 . S
C16 C20 1.401 . S
C16 C21 1.499 . S
N17 Co0 1.989 . S
N17 C16 1.342 . S
N17 N18 1.388 . S
N18 Co1 1.993 . S
N18 N17 1.388 . S
N18 C19 1.346 . S
C19 N18 1.346 . S
C19 C20 1.396 . S
C19 C29 1.510 . S
C20 C16 1.401 . S
C20 C19 1.396 . S
C21 C16 1.499 . S
C21 H22 0.959 . S
C21 H23 0.960 . S
C21 H24 0.961 . S
H22 C21 0.959 . S
H23 C21 0.960 . S
H24 C21 0.961 . S
O25 Co0 1.967 . S
O25 C33 1.258 1_455 S
O26 Co1 1.941 1_655 S
O26 C33 1.266 . S
H27 C29 0.959 . S
H28 C29 0.961 . S
C29 C19 1.510 . S
C29 H27 0.959 . S
C29 H28 0.961 . S
C29 H30 0.960 . S
H30 C29 0.960 . S
H31 N11 0.862 . S
O32 Co0 1.920 . S
O32 C5 1.289 . S
C33 O25 1.258 1_655 S
C33 O26 1.266 . S
Co34 O37 1.970 . S
Co34 N51 1.989 . S
Co34 O59 1.967 . S
Co34 O66 1.920 . S
Co35 O38 1.966 . S
Co35 N44 2.022 . S
Co35 N52 1.993 . S
Co35 O60 1.941 . S
C36 O37 1.258 . S
C36 O38 1.263 . S
O37 Co34 1.970 . S
O37 C36 1.258 . S
O38 Co35 1.966 . S
O38 C36 1.263 . S
C39 O40 1.235 . S
C39 O66 1.289 . S
O40 C39 1.235 . S
C41 C43 1.400 . S
C41 N44 1.351 . S
C41 C46 1.501 . S
C42 C43 1.387 . S
C42 N45 1.341 . S
C43 C41 1.400 . S
C43 C42 1.387 . S
N44 Co35 2.022 . S
N44 C41 1.351 . S
N44 N45 1.365 . S
N45 C42 1.341 . S
N45 N44 1.365 . S
N45 H65 0.862 . S
C46 C41 1.501 . S
C46 H47 0.961 . S
C46 H48 0.961 . S
C46 H49 0.960 . S
H47 C46 0.961 . S
H48 C46 0.961 . S
H49 C46 0.960 . S
C50 N51 1.342 . S
C50 C54 1.401 . S
C50 C55 1.499 . S
N51 Co34 1.989 . S
N51 C50 1.342 . S
N51 N52 1.388 . S
N52 Co35 1.993 . S
N52 N51 1.388 . S
N52 C53 1.346 . S
C53 N52 1.346 . S
C53 C54 1.396 . S
C53 C63 1.510 . S
C54 C50 1.401 . S
C54 C53 1.396 . S
C55 C50 1.499 . S
C55 H56 0.959 . S
C55 H57 0.960 . S
C55 H58 0.961 . S
H56 C55 0.959 . S
H57 C55 0.960 . S
H58 C55 0.961 . S
O59 Co34 1.967 . S
O59 C67 1.258 . S
O60 Co35 1.941 . S
O60 C67 1.266 . S
H61 C63 0.959 . S
H62 C63 0.961 . S
C63 C53 1.510 . S
C63 H61 0.959 . S
C63 H62 0.961 . S
C63 H64 0.960 . S
H64 C63 0.960 . S
H65 N45 0.862 . S
O66 Co34 1.920 . S
O66 C39 1.289 . S
C67 O59 1.258 . S
C67 O60 1.266 . S
Co68 O71 1.970 . S
Co68 N85 1.989 . S
Co68 O93 1.967 . S
Co68 O100 1.920 . S
Co69 O72 1.966 . S
Co69 N78 2.022 . S
Co69 N86 1.993 . S
Co69 O94 1.916 1_565 S
C70 O71 1.258 . S
C70 O72 1.263 . S
O71 Co68 1.970 . S
O71 C70 1.258 . S
O72 Co69 1.966 . S
O72 C70 1.263 . S
C73 O74 1.235 . S
C73 O100 1.289 . S
O74 C73 1.235 . S
C75 C77 1.404 1_565 S
C75 N78 1.351 . S
C75 C80 1.501 . S
C76 C77 1.395 . S
C76 N79 1.341 . S
C77 C75 1.404 1_545 S
C77 C76 1.395 . S
N78 Co69 2.022 . S
N78 C75 1.351 . S
N78 N79 1.365 1_565 S
N79 C76 1.341 . S
N79 N78 1.365 1_545 S
N79 H99 0.862 . S
C80 C75 1.501 . S
C80 H81 0.961 . S
C80 H82 0.961 . S
C80 H83 0.960 . S
H81 C80 0.961 . S
H82 C80 0.961 . S
H83 C80 0.960 . S
C84 N85 1.342 . S
C84 C88 1.401 . S
C84 C89 1.499 . S
N85 Co68 1.989 . S
N85 C84 1.342 . S
N85 N86 1.388 . S
N86 Co69 1.993 . S
N86 N85 1.388 . S
N86 C87 1.346 . S
C87 N86 1.346 . S
C87 C88 1.396 . S
C87 C97 1.510 . S
C88 C84 1.401 . S
C88 C87 1.396 . S
C89 C84 1.499 . S
C89 H90 0.959 . S
C89 H91 0.960 . S
C89 H92 0.961 . S
H90 C89 0.959 . S
H91 C89 0.960 . S
H92 C89 0.961 . S
O93 Co68 1.967 . S
O93 C101 1.258 . S
O94 Co69 1.916 1_545 S
O94 C101 1.275 1_545 S
H95 C97 0.959 . S
H96 C97 0.961 . S
C97 C87 1.510 . S
C97 H95 0.959 . S
C97 H96 0.961 . S
C97 H98 0.960 . S
H98 C97 0.960 . S
H99 N79 0.862 . S
O100 Co68 1.920 . S
O100 C73 1.289 . S
C101 O93 1.258 . S
C101 O94 1.275 1_565 S
Co102 O105 1.970 . S
Co102 N119 1.989 . S
Co102 O127 1.967 . S
Co102 O134 1.920 . S
Co103 O106 1.966 . S
Co103 N112 2.022 1_545 S
Co103 N120 1.993 . S
Co103 O128 1.941 1_545 S
C104 O105 1.258 . S
C104 O106 1.263 . S
O105 Co102 1.970 . S
O105 C104 1.258 . S
O106 Co103 1.966 . S
O106 C104 1.263 . S
C107 O108 1.235 . S
C107 O134 1.289 . S
O108 C107 1.235 . S
C109 C111 1.407 . S
C109 N112 1.348 . S
C109 C114 1.498 1_565 S
C110 C111 1.387 . S
C110 N113 1.341 . S
C111 C109 1.407 . S
C111 C110 1.387 . S
N112 Co103 2.022 1_565 S
N112 C109 1.348 . S
N112 N113 1.365 . S
N113 C110 1.341 . S
N113 N112 1.365 . S
N113 H133 0.862 . S
C114 C109 1.498 1_545 S
C114 H115 0.961 . S
C114 H116 0.961 . S
C114 H117 0.960 1_545 S
H115 C114 0.961 . S
H116 C114 0.961 . S
H117 C114 0.960 1_565 S
C118 N119 1.342 . S
C118 C122 1.401 . S
C118 C123 1.499 . S
N119 Co102 1.989 . S
N119 C118 1.342 . S
N119 N120 1.388 . S
N120 Co103 1.993 . S
N120 N119 1.388 . S
N120 C121 1.346 . S
C121 N120 1.346 . S
C121 C122 1.396 . S
C121 C131 1.510 . S
C122 C118 1.401 . S
C122 C121 1.396 . S
C123 C118 1.499 . S
C123 H124 0.959 . S
C123 H125 0.960 . S
C123 H126 0.961 . S
H124 C123 0.959 . S
H125 C123 0.960 . S
H126 C123 0.961 . S
O127 Co102 1.967 . S
O127 C135 1.258 1_545 S
O128 Co103 1.941 1_565 S
O128 C135 1.266 . S
H129 C131 0.959 . S
H130 C131 0.961 . S
C131 C121 1.510 . S
C131 H129 0.959 . S
C131 H130 0.961 . S
C131 H132 0.960 . S
H132 C131 0.960 . S
H133 N113 0.862 . S
O134 Co102 1.920 . S
O134 C107 1.289 . S
C135 O127 1.258 1_565 S
C135 O128 1.266 . S
Co136 O139 1.970 . S
Co136 N153 1.989 . S
Co136 O161 1.967 . S
Co136 O168 1.920 . S
Co137 O140 1.966 . S
Co137 N146 2.022 . S
Co137 N154 1.993 . S
Co137 O162 1.916 1_655 S
C138 O139 1.258 . S
C138 O140 1.263 . S
O139 Co136 1.970 . S
O139 C138 1.258 . S
O140 Co137 1.966 . S
O140 C138 1.263 . S
C141 O142 1.235 . S
C141 O168 1.289 . S
O142 C141 1.235 . S
C143 C145 1.404 1_655 S
C143 N146 1.351 . S
C143 C148 1.501 . S
C144 C145 1.395 . S
C144 N147 1.341 . S
C145 C143 1.404 1_455 S
C145 C144 1.395 . S
N146 Co137 2.022 . S
N146 C143 1.351 . S
N146 N147 1.365 1_655 S
N147 C144 1.341 . S
N147 N146 1.365 1_455 S
N147 H167 0.862 . S
C148 C143 1.501 . S
C148 H149 0.961 . S
C148 H150 0.961 . S
C148 H151 0.960 . S
H149 C148 0.961 . S
H150 C148 0.961 . S
H151 C148 0.960 . S
C152 N153 1.342 . S
C152 C156 1.401 . S
C152 C157 1.499 . S
N153 Co136 1.989 . S
N153 C152 1.342 . S
N153 N154 1.388 . S
N154 Co137 1.993 . S
N154 N153 1.388 . S
N154 C155 1.346 . S
C155 N154 1.346 . S
C155 C156 1.396 . S
C155 C165 1.510 . S
C156 C152 1.401 . S
C156 C155 1.396 . S
C157 C152 1.499 . S
C157 H158 0.959 . S
C157 H159 0.960 . S
C157 H160 0.961 . S
H158 C157 0.959 . S
H159 C157 0.960 . S
H160 C157 0.961 . S
O161 Co136 1.967 . S
O161 C169 1.258 . S
O162 Co137 1.916 1_455 S
O162 C169 1.275 1_455 S
H163 C165 0.959 . S
H164 C165 0.961 . S
C165 C155 1.510 . S
C165 H163 0.959 . S
C165 H164 0.961 . S
C165 H166 0.960 . S
H166 C165 0.960 . S
H167 N147 0.862 . S
O168 Co136 1.920 . S
O168 C141 1.289 . S
C169 O161 1.258 . S
C169 O162 1.275 1_655 S
Co170 O173 1.970 . S
Co170 N187 1.989 . S
Co170 O195 1.967 . S
Co170 O202 1.920 . S
Co171 O174 1.966 . S
Co171 N180 2.022 . S
Co171 N188 1.993 . S
Co171 O196 1.941 . S
C172 O173 1.258 . S
C172 O174 1.263 . S
O173 Co170 1.970 . S
O173 C172 1.258 . S
O174 Co171 1.966 . S
O174 C172 1.263 . S
C175 O176 1.235 . S
C175 O202 1.289 . S
O176 C175 1.235 . S
C177 C179 1.400 . S
C177 N180 1.351 . S
C177 C182 1.501 . S
C178 C179 1.387 . S
C178 N181 1.341 . S
C179 C177 1.400 . S
C179 C178 1.387 . S
N180 Co171 2.022 . S
N180 C177 1.351 . S
N180 N181 1.365 . S
N181 C178 1.341 . S
N181 N180 1.365 . S
N181 H201 0.862 . S
C182 C177 1.501 . S
C182 H183 0.961 . S
C182 H184 0.961 . S
C182 H185 0.960 . S
H183 C182 0.961 . S
H184 C182 0.961 . S
H185 C182 0.960 . S
C186 N187 1.342 . S
C186 C190 1.401 . S
C186 C191 1.499 . S
N187 Co170 1.989 . S
N187 C186 1.342 . S
N187 N188 1.388 . S
N188 Co171 1.993 . S
N188 N187 1.388 . S
N188 C189 1.346 . S
C189 N188 1.346 . S
C189 C190 1.396 . S
C189 C199 1.510 . S
C190 C186 1.401 . S
C190 C189 1.396 . S
C191 C186 1.499 . S
C191 H192 0.959 . S
C191 H193 0.960 . S
C191 H194 0.961 . S
H192 C191 0.959 . S
H193 C191 0.960 . S
H194 C191 0.961 . S
O195 Co170 1.967 . S
O195 C203 1.258 . S
O196 Co171 1.941 . S
O196 C203 1.266 . S
H197 C199 0.959 . S
H198 C199 0.961 . S
C199 C189 1.510 . S
C199 H197 0.959 . S
C199 H198 0.961 . S
C199 H200 0.960 . S
H200 C199 0.960 . S
H201 N181 0.862 . S
O202 Co170 1.920 . S
O202 C175 1.289 . S
C203 O195 1.258 . S
C203 O196 1.266 . S
Co204 O207 1.970 . S
Co204 N221 1.989 . S
Co204 O229 1.967 . S
Co204 O236 1.920 . S
Co205 O208 1.966 . S
Co205 N214 2.022 . S
Co205 N222 1.993 . S
Co205 O230 1.941 . S
C206 O207 1.258 . S
C206 O208 1.263 . S
O207 Co204 1.970 . S
O207 C206 1.258 . S
O208 Co205 1.966 . S
O208 C206 1.263 . S
C209 O210 1.235 . S
C209 O236 1.289 . S
O210 C209 1.235 . S
C211 C213 1.400 . S
C211 N214 1.351 . S
C211 C216 1.501 . S
C212 C213 1.387 . S
C212 N215 1.341 . S
C213 C211 1.400 . S
C213 C212 1.387 . S
N214 Co205 2.022 . S
N214 C211 1.351 . S
N214 N215 1.365 . S
N215 C212 1.341 . S
N215 N214 1.365 . S
N215 H235 0.862 . S
C216 C211 1.501 . S
C216 H217 0.961 . S
C216 H218 0.961 . S
C216 H219 0.960 . S
H217 C216 0.961 . S
H218 C216 0.961 . S
H219 C216 0.960 . S
C220 N221 1.342 . S
C220 C224 1.401 . S
C220 C225 1.499 . S
N221 Co204 1.989 . S
N221 C220 1.342 . S
N221 N222 1.388 . S
N222 Co205 1.993 . S
N222 N221 1.388 . S
N222 C223 1.346 . S
C223 N222 1.346 . S
C223 C224 1.396 . S
C223 C233 1.510 . S
C224 C220 1.401 . S
C224 C223 1.396 . S
C225 C220 1.499 . S
C225 H226 0.959 . S
C225 H227 0.960 . S
C225 H228 0.961 . S
H226 C225 0.959 . S
H227 C225 0.960 . S
H228 C225 0.961 . S
O229 Co204 1.967 . S
O229 C237 1.258 . S
O230 Co205 1.941 . S
O230 C237 1.266 . S
H231 C233 0.959 . S
H232 C233 0.961 . S
C233 C223 1.510 . S
C233 H231 0.959 . S
C233 H232 0.961 . S
C233 H234 0.960 . S
H234 C233 0.960 . S
H235 N215 0.862 . S
O236 Co204 1.920 . S
O236 C209 1.289 . S
C237 O229 1.258 . S
C237 O230 1.266 . S
Co238 O241 1.970 . S
Co238 N255 1.989 . S
Co238 O263 1.967 . S
Co238 O270 1.920 . S
Co239 O242 1.966 . S
Co239 N248 2.022 . S
Co239 N256 1.993 . S
Co239 O264 1.941 . S
C240 O241 1.258 . S
C240 O242 1.263 . S
O241 Co238 1.970 . S
O241 C240 1.258 . S
O242 Co239 1.966 . S
O242 C240 1.263 . S
C243 O244 1.235 . S
C243 O270 1.289 . S
O244 C243 1.235 . S
C245 C247 1.400 . S
C245 N248 1.351 . S
C245 C250 1.501 . S
C246 C247 1.387 . S
C246 N249 1.341 . S
C247 C245 1.400 . S
C247 C246 1.387 . S
N248 Co239 2.022 . S
N248 C245 1.351 . S
N248 N249 1.365 . S
N249 C246 1.341 . S
N249 N248 1.365 . S
N249 H269 0.862 . S
C250 C245 1.501 . S
C250 H251 0.961 . S
C250 H252 0.961 . S
C250 H253 0.960 . S
H251 C250 0.961 . S
H252 C250 0.961 . S
H253 C250 0.960 . S
C254 N255 1.342 . S
C254 C258 1.401 . S
C254 C259 1.499 . S
N255 Co238 1.989 . S
N255 C254 1.342 . S
N255 N256 1.388 . S
N256 Co239 1.993 . S
N256 N255 1.388 . S
N256 C257 1.346 . S
C257 N256 1.346 . S
C257 C258 1.396 . S
C257 C267 1.510 . S
C258 C254 1.401 . S
C258 C257 1.396 . S
C259 C254 1.499 . S
C259 H260 0.959 . S
C259 H261 0.960 . S
C259 H262 0.961 . S
H260 C259 0.959 . S
H261 C259 0.960 . S
H262 C259 0.961 . S
O263 Co238 1.967 . S
O263 C271 1.258 . S
O264 Co239 1.941 . S
O264 C271 1.266 . S
H265 C267 0.959 . S
H266 C267 0.961 . S
C267 C257 1.510 . S
C267 H265 0.959 . S
C267 H266 0.961 . S
C267 H268 0.960 . S
H268 C267 0.960 . S
H269 N249 0.862 . S
O270 Co238 1.920 . S
O270 C243 1.289 . S
C271 O263 1.258 . S
C271 O264 1.266 . S
Co272 O275 1.970 . S
Co272 N289 1.989 . S
Co272 O297 1.967 . S
Co272 O304 1.920 . S
Co273 O276 1.966 . S
Co273 N282 2.022 . S
Co273 N290 1.993 . S
Co273 O298 1.941 . S
C274 O275 1.258 . S
C274 O276 1.263 . S
O275 Co272 1.970 . S
O275 C274 1.258 . S
O276 Co273 1.966 . S
O276 C274 1.263 . S
C277 O278 1.235 . S
C277 O304 1.289 . S
O278 C277 1.235 . S
C279 C281 1.400 . S
C279 N282 1.351 . S
C279 C284 1.501 . S
C280 C281 1.387 . S
C280 N283 1.341 . S
C281 C279 1.400 . S
C281 C280 1.387 . S
N282 Co273 2.022 . S
N282 C279 1.351 . S
N282 N283 1.365 . S
N283 C280 1.341 . S
N283 N282 1.365 . S
N283 H303 0.862 . S
C284 C279 1.501 . S
C284 H285 0.961 . S
C284 H286 0.961 . S
C284 H287 0.960 . S
H285 C284 0.961 . S
H286 C284 0.961 . S
H287 C284 0.960 . S
C288 N289 1.342 . S
C288 C292 1.401 . S
C288 C293 1.499 . S
N289 Co272 1.989 . S
N289 C288 1.342 . S
N289 N290 1.388 . S
N290 Co273 1.993 . S
N290 N289 1.388 . S
N290 C291 1.346 . S
C291 N290 1.346 . S
C291 C292 1.396 . S
C291 C301 1.510 . S
C292 C288 1.401 . S
C292 C291 1.396 . S
C293 C288 1.499 . S
C293 H294 0.959 . S
C293 H295 0.960 . S
C293 H296 0.961 . S
H294 C293 0.959 . S
H295 C293 0.960 . S
H296 C293 0.961 . S
O297 Co272 1.967 . S
O297 C305 1.258 . S
O298 Co273 1.941 . S
O298 C305 1.266 . S
H299 C301 0.959 . S
H300 C301 0.961 . S
C301 C291 1.510 . S
C301 H299 0.959 . S
C301 H300 0.961 . S
C301 H302 0.960 . S
H302 C301 0.960 . S
H303 N283 0.862 . S
O304 Co272 1.920 . S
O304 C277 1.289 . S
C305 O297 1.258 . S
C305 O298 1.266 . S
Co306 O309 1.970 . S
Co306 N323 1.989 . S
Co306 O331 1.967 . S
Co306 O338 1.920 . S
Co307 O310 1.966 . S
Co307 N316 2.022 . S
Co307 N324 1.993 . S
Co307 O332 1.941 . S
C308 O309 1.258 . S
C308 O310 1.263 . S
O309 Co306 1.970 . S
O309 C308 1.258 . S
O310 Co307 1.966 . S
O310 C308 1.263 . S
C311 O312 1.235 . S
C311 O338 1.289 . S
O312 C311 1.235 . S
C313 C315 1.400 . S
C313 N316 1.351 . S
C313 C318 1.501 . S
C314 C315 1.387 . S
C314 N317 1.341 . S
C315 C313 1.400 . S
C315 C314 1.387 . S
N316 Co307 2.022 . S
N316 C313 1.351 . S
N316 N317 1.365 . S
N317 C314 1.341 . S
N317 N316 1.365 . S
N317 H337 0.862 . S
C318 C313 1.501 . S
C318 H319 0.961 . S
C318 H320 0.961 . S
C318 H321 0.960 . S
H319 C318 0.961 . S
H320 C318 0.961 . S
H321 C318 0.960 . S
C322 N323 1.342 . S
C322 C326 1.401 . S
C322 C327 1.499 . S
N323 Co306 1.989 . S
N323 C322 1.342 . S
N323 N324 1.388 . S
N324 Co307 1.993 . S
N324 N323 1.388 . S
N324 C325 1.346 . S
C325 N324 1.346 . S
C325 C326 1.396 . S
C325 C335 1.510 . S
C326 C322 1.401 . S
C326 C325 1.396 . S
C327 C322 1.499 . S
C327 H328 0.959 . S
C327 H329 0.960 . S
C327 H330 0.961 . S
H328 C327 0.959 . S
H329 C327 0.960 . S
H330 C327 0.961 . S
O331 Co306 1.967 . S
O331 C339 1.258 . S
O332 Co307 1.941 . S
O332 C339 1.266 . S
H333 C335 0.959 . S
H334 C335 0.961 . S
C335 C325 1.510 . S
C335 H333 0.959 . S
C335 H334 0.961 . S
C335 H336 0.960 . S
H336 C335 0.960 . S
H337 N317 0.862 . S
O338 Co306 1.920 . S
O338 C311 1.289 . S
C339 O331 1.258 . S
C339 O332 1.266 . S
Co340 O343 1.970 . S
Co340 N357 1.989 . S
Co340 O365 1.967 . S
Co340 O372 1.920 . S
Co341 O344 1.966 . S
Co341 N350 2.022 . S
Co341 N358 1.993 . S
Co341 O366 1.941 . S
C342 O343 1.258 . S
C342 O344 1.263 . S
O343 Co340 1.970 . S
O343 C342 1.258 . S
O344 Co341 1.966 . S
O344 C342 1.263 . S
C345 O346 1.235 . S
C345 O372 1.289 . S
O346 C345 1.235 . S
C347 C349 1.400 . S
C347 N350 1.351 . S
C347 C352 1.501 . S
C348 C349 1.387 . S
C348 N351 1.341 . S
C349 C347 1.400 . S
C349 C348 1.387 . S
N350 Co341 2.022 . S
N350 C347 1.351 . S
N350 N351 1.365 . S
N351 C348 1.341 . S
N351 N350 1.365 . S
N351 H371 0.862 . S
C352 C347 1.501 . S
C352 H353 0.961 . S
C352 H354 0.961 . S
C352 H355 0.960 . S
H353 C352 0.961 . S
H354 C352 0.961 . S
H355 C352 0.960 . S
C356 N357 1.342 . S
C356 C360 1.401 . S
C356 C361 1.499 . S
N357 Co340 1.989 . S
N357 C356 1.342 . S
N357 N358 1.388 . S
N358 Co341 1.993 . S
N358 N357 1.388 . S
N358 C359 1.346 . S
C359 N358 1.346 . S
C359 C360 1.396 . S
C359 C369 1.510 . S
C360 C356 1.401 . S
C360 C359 1.396 . S
C361 C356 1.499 . S
C361 H362 0.959 . S
C361 H363 0.960 . S
C361 H364 0.961 . S
H362 C361 0.959 . S
H363 C361 0.960 . S
H364 C361 0.961 . S
O365 Co340 1.967 . S
O365 C373 1.258 . S
O366 Co341 1.941 . S
O366 C373 1.266 . S
H367 C369 0.959 . S
H368 C369 0.961 . S
C369 C359 1.510 . S
C369 H367 0.959 . S
C369 H368 0.961 . S
C369 H370 0.960 . S
H370 C369 0.960 . S
H371 N351 0.862 . S
O372 Co340 1.920 . S
O372 C345 1.289 . S
C373 O365 1.258 . S
C373 O366 1.266 . S
Co374 O377 1.970 . S
Co374 N391 1.989 . S
Co374 O399 1.967 . S
Co374 O406 1.920 . S
Co375 O378 1.966 . S
Co375 N384 2.022 . S
Co375 N392 1.993 . S
Co375 O400 1.941 . S
C376 O377 1.258 . S
C376 O378 1.263 . S
O377 Co374 1.970 . S
O377 C376 1.258 . S
O378 Co375 1.966 . S
O378 C376 1.263 . S
C379 O380 1.235 . S
C379 O406 1.289 . S
O380 C379 1.235 . S
C381 C383 1.400 . S
C381 N384 1.351 . S
C381 C386 1.501 . S
C382 C383 1.387 . S
C382 N385 1.341 . S
C383 C381 1.400 . S
C383 C382 1.387 . S
N384 Co375 2.022 . S
N384 C381 1.351 . S
N384 N385 1.365 . S
N385 C382 1.341 . S
N385 N384 1.365 . S
N385 H405 0.862 . S
C386 C381 1.501 . S
C386 H387 0.961 . S
C386 H388 0.961 . S
C386 H389 0.960 . S
H387 C386 0.961 . S
H388 C386 0.961 . S
H389 C386 0.960 . S
C390 N391 1.342 . S
C390 C394 1.401 . S
C390 C395 1.499 . S
N391 Co374 1.989 . S
N391 C390 1.342 . S
N391 N392 1.388 . S
N392 Co375 1.993 . S
N392 N391 1.388 . S
N392 C393 1.346 . S
C393 N392 1.346 . S
C393 C394 1.396 . S
C393 C403 1.510 . S
C394 C390 1.401 . S
C394 C393 1.396 . S
C395 C390 1.499 . S
C395 H396 0.959 . S
C395 H397 0.960 . S
C395 H398 0.961 . S
H396 C395 0.959 . S
H397 C395 0.960 . S
H398 C395 0.961 . S
O399 Co374 1.967 . S
O399 C407 1.258 . S
O400 Co375 1.941 . S
O400 C407 1.266 . S
H401 C403 0.959 . S
H402 C403 0.961 . S
C403 C393 1.510 . S
C403 H401 0.959 . S
C403 H402 0.961 . S
C403 H404 0.960 . S
H404 C403 0.960 . S
H405 N385 0.862 . S
O406 Co374 1.920 . S
O406 C379 1.289 . S
C407 O399 1.258 . S
C407 O400 1.266 . S
Co408 O411 1.970 . S
Co408 N425 1.989 . S
Co408 O433 1.967 . S
Co408 O440 1.920 . S
Co409 O412 1.966 . S
Co409 N418 2.022 . S
Co409 N426 1.993 . S
Co409 O434 1.941 . S
C410 O411 1.258 . S
C410 O412 1.263 . S
O411 Co408 1.970 . S
O411 C410 1.258 . S
O412 Co409 1.966 . S
O412 C410 1.263 . S
C413 O414 1.235 . S
C413 O440 1.289 . S
O414 C413 1.235 . S
C415 C417 1.400 . S
C415 N418 1.351 . S
C415 C420 1.501 . S
C416 C417 1.387 . S
C416 N419 1.341 . S
C417 C415 1.400 . S
C417 C416 1.387 . S
N418 Co409 2.022 . S
N418 C415 1.351 . S
N418 N419 1.365 . S
N419 C416 1.341 . S
N419 N418 1.365 . S
N419 H439 0.862 . S
C420 C415 1.501 . S
C420 H421 0.961 . S
C420 H422 0.961 . S
C420 H423 0.960 . S
H421 C420 0.961 . S
H422 C420 0.961 . S
H423 C420 0.960 . S
C424 N425 1.342 . S
C424 C428 1.401 . S
C424 C429 1.499 . S
N425 Co408 1.989 . S
N425 C424 1.342 . S
N425 N426 1.388 . S
N426 Co409 1.993 . S
N426 N425 1.388 . S
N426 C427 1.346 . S
C427 N426 1.346 . S
C427 C428 1.396 . S
C427 C437 1.510 . S
C428 C424 1.401 . S
C428 C427 1.396 . S
C429 C424 1.499 . S
C429 H430 0.959 . S
C429 H431 0.960 . S
C429 H432 0.961 . S
H430 C429 0.959 . S
H431 C429 0.960 . S
H432 C429 0.961 . S
O433 Co408 1.967 . S
O433 C441 1.258 . S
O434 Co409 1.941 . S
O434 C441 1.266 . S
H435 C437 0.959 . S
H436 C437 0.961 . S
C437 C427 1.510 . S
C437 H435 0.959 . S
C437 H436 0.961 . S
C437 H438 0.960 . S
H438 C437 0.960 . S
H439 N419 0.862 . S
O440 Co408 1.920 . S
O440 C413 1.289 . S
C441 O433 1.258 . S
C441 O434 1.266 . S
Co442 O445 1.970 . S
Co442 N459 1.989 . S
Co442 O467 1.967 . S
Co442 O474 1.920 . S
Co443 O446 1.966 . S
Co443 N452 2.022 . S
Co443 N460 1.993 . S
Co443 O468 1.941 . S
C444 O445 1.258 . S
C444 O446 1.263 . S
O445 Co442 1.970 . S
O445 C444 1.258 . S
O446 Co443 1.966 . S
O446 C444 1.263 . S
C447 O448 1.235 . S
C447 O474 1.289 . S
O448 C447 1.235 . S
C449 C451 1.400 . S
C449 N452 1.351 . S
C449 C454 1.501 . S
C450 C451 1.387 . S
C450 N453 1.341 . S
C451 C449 1.400 . S
C451 C450 1.387 . S
N452 Co443 2.022 . S
N452 C449 1.351 . S
N452 N453 1.365 . S
N453 C450 1.341 . S
N453 N452 1.365 . S
N453 H473 0.862 . S
C454 C449 1.501 . S
C454 H455 0.961 . S
C454 H456 0.961 . S
C454 H457 0.960 . S
H455 C454 0.961 . S
H456 C454 0.961 . S
H457 C454 0.960 . S
C458 N459 1.342 . S
C458 C462 1.401 . S
C458 C463 1.499 . S
N459 Co442 1.989 . S
N459 C458 1.342 . S
N459 N460 1.388 . S
N460 Co443 1.993 . S
N460 N459 1.388 . S
N460 C461 1.346 . S
C461 N460 1.346 . S
C461 C462 1.396 . S
C461 C471 1.510 . S
C462 C458 1.401 . S
C462 C461 1.396 . S
C463 C458 1.499 . S
C463 H464 0.959 . S
C463 H465 0.960 . S
C463 H466 0.961 . S
H464 C463 0.959 . S
H465 C463 0.960 . S
H466 C463 0.961 . S
O467 Co442 1.967 . S
O467 C475 1.258 . S
O468 Co443 1.941 . S
O468 C475 1.266 . S
H469 C471 0.959 . S
H470 C471 0.961 . S
C471 C461 1.510 . S
C471 H469 0.959 . S
C471 H470 0.961 . S
C471 H472 0.960 . S
H472 C471 0.960 . S
H473 N453 0.862 . S
O474 Co442 1.920 . S
O474 C447 1.289 . S
C475 O467 1.258 . S
C475 O468 1.266 . S
Co476 O479 1.970 . S
Co476 N493 1.989 . S
Co476 O501 1.967 . S
Co476 O508 1.920 . S
Co477 O480 1.966 . S
Co477 N486 2.022 . S
Co477 N494 1.993 . S
Co477 O502 1.941 . S
C478 O479 1.258 . S
C478 O480 1.263 . S
O479 Co476 1.970 . S
O479 C478 1.258 . S
O480 Co477 1.966 . S
O480 C478 1.263 . S
C481 O482 1.235 . S
C481 O508 1.289 . S
O482 C481 1.235 . S
C483 C485 1.400 . S
C483 N486 1.351 . S
C483 C488 1.501 . S
C484 C485 1.387 . S
C484 N487 1.341 . S
C485 C483 1.400 . S
C485 C484 1.387 . S
N486 Co477 2.022 . S
N486 C483 1.351 . S
N486 N487 1.365 . S
N487 C484 1.341 . S
N487 N486 1.365 . S
N487 H507 0.862 . S
C488 C483 1.501 . S
C488 H489 0.961 . S
C488 H490 0.961 . S
C488 H491 0.960 . S
H489 C488 0.961 . S
H490 C488 0.961 . S
H491 C488 0.960 . S
C492 N493 1.342 . S
C492 C496 1.401 . S
C492 C497 1.499 . S
N493 Co476 1.989 . S
N493 C492 1.342 . S
N493 N494 1.388 . S
N494 Co477 1.993 . S
N494 N493 1.388 . S
N494 C495 1.346 . S
C495 N494 1.346 . S
C495 C496 1.396 . S
C495 C505 1.510 . S
C496 C492 1.401 . S
C496 C495 1.396 . S
C497 C492 1.499 . S
C497 H498 0.959 . S
C497 H499 0.960 . S
C497 H500 0.961 . S
H498 C497 0.959 . S
H499 C497 0.960 . S
H500 C497 0.961 . S
O501 Co476 1.967 . S
O501 C509 1.258 . S
O502 Co477 1.941 . S
O502 C509 1.266 . S
H503 C505 0.959 . S
H504 C505 0.961 . S
C505 C495 1.510 . S
C505 H503 0.959 . S
C505 H504 0.961 . S
C505 H506 0.960 . S
H506 C505 0.960 . S
H507 N487 0.862 . S
O508 Co476 1.920 . S
O508 C481 1.289 . S
C509 O501 1.258 . S
C509 O502 1.266 . S
Co510 O513 1.970 . S
Co510 N527 1.989 . S
Co510 O535 1.967 . S
Co510 O542 1.920 . S
Co511 O514 1.966 . S
Co511 N520 2.022 . S
Co511 N528 1.993 . S
Co511 O536 1.941 . S
C512 O513 1.258 . S
C512 O514 1.263 . S
O513 Co510 1.970 . S
O513 C512 1.258 . S
O514 Co511 1.966 . S
O514 C512 1.263 . S
C515 O516 1.235 . S
C515 O542 1.289 . S
O516 C515 1.235 . S
C517 C519 1.400 . S
C517 N520 1.351 . S
C517 C522 1.501 . S
C518 C519 1.387 . S
C518 N521 1.341 . S
C519 C517 1.400 . S
C519 C518 1.387 . S
N520 Co511 2.022 . S
N520 C517 1.351 . S
N520 N521 1.365 . S
N521 C518 1.341 . S
N521 N520 1.365 . S
N521 H541 0.862 . S
C522 C517 1.501 . S
C522 H523 0.961 . S
C522 H524 0.961 . S
C522 H525 0.960 . S
H523 C522 0.961 . S
H524 C522 0.961 . S
H525 C522 0.960 . S
C526 N527 1.342 . S
C526 C530 1.401 . S
C526 C531 1.499 . S
N527 Co510 1.989 . S
N527 C526 1.342 . S
N527 N528 1.388 . S
N528 Co511 1.993 . S
N528 N527 1.388 . S
N528 C529 1.346 . S
C529 N528 1.346 . S
C529 C530 1.396 . S
C529 C539 1.510 . S
C530 C526 1.401 . S
C530 C529 1.396 . S
C531 C526 1.499 . S
C531 H532 0.959 . S
C531 H533 0.960 . S
C531 H534 0.961 . S
H532 C531 0.959 . S
H533 C531 0.960 . S
H534 C531 0.961 . S
O535 Co510 1.967 . S
O535 C543 1.258 . S
O536 Co511 1.941 . S
O536 C543 1.266 . S
H537 C539 0.959 . S
H538 C539 0.961 . S
C539 C529 1.510 . S
C539 H537 0.959 . S
C539 H538 0.961 . S
C539 H540 0.960 . S
H540 C539 0.960 . S
H541 N521 0.862 . S
O542 Co510 1.920 . S
O542 C515 1.289 . S
C543 O535 1.258 . S
C543 O536 1.266 . S
Co544 O547 1.970 . S
Co544 N561 1.989 . S
Co544 O569 1.967 . S
Co544 O576 1.920 . S
Co545 O548 1.966 . S
Co545 N554 2.022 . S
Co545 N562 1.993 . S
Co545 O570 1.941 . S
C546 O547 1.258 . S
C546 O548 1.263 . S
O547 Co544 1.970 . S
O547 C546 1.258 . S
O548 Co545 1.966 . S
O548 C546 1.263 . S
C549 O550 1.235 . S
C549 O576 1.289 . S
O550 C549 1.235 . S
C551 C553 1.400 . S
C551 N554 1.351 . S
C551 C556 1.501 . S
C552 C553 1.387 . S
C552 N555 1.341 . S
C553 C551 1.400 . S
C553 C552 1.387 . S
N554 Co545 2.022 . S
N554 C551 1.351 . S
N554 N555 1.365 . S
N555 C552 1.341 . S
N555 N554 1.365 . S
N555 H575 0.862 . S
C556 C551 1.501 . S
C556 H557 0.961 . S
C556 H558 0.961 . S
C556 H559 0.960 . S
H557 C556 0.961 . S
H558 C556 0.961 . S
H559 C556 0.960 . S
C560 N561 1.342 . S
C560 C564 1.401 . S
C560 C565 1.499 . S
N561 Co544 1.989 . S
N561 C560 1.342 . S
N561 N562 1.388 . S
N562 Co545 1.993 . S
N562 N561 1.388 . S
N562 C563 1.346 . S
C563 N562 1.346 . S
C563 C564 1.396 . S
C563 C573 1.510 . S
C564 C560 1.401 . S
C564 C563 1.396 . S
C565 C560 1.499 . S
C565 H566 0.959 . S
C565 H567 0.960 . S
C565 H568 0.961 . S
H566 C565 0.959 . S
H567 C565 0.960 . S
H568 C565 0.961 . S
O569 Co544 1.967 . S
O569 C577 1.258 . S
O570 Co545 1.941 . S
O570 C577 1.266 . S
H571 C573 0.959 . S
H572 C573 0.961 . S
C573 C563 1.510 . S
C573 H571 0.959 . S
C573 H572 0.961 . S
C573 H574 0.960 . S
H574 C573 0.960 . S
H575 N555 0.862 . S
O576 Co544 1.920 . S
O576 C549 1.289 . S
C577 O569 1.258 . S
C577 O570 1.266 . S
Co578 O581 1.970 . S
Co578 N595 1.989 . S
Co578 O603 1.967 . S
Co578 O610 1.920 . S
Co579 O582 1.966 . S
Co579 N588 2.022 . S
Co579 N596 1.993 . S
Co579 O604 1.941 . S
C580 O581 1.258 . S
C580 O582 1.263 . S
O581 Co578 1.970 . S
O581 C580 1.258 . S
O582 Co579 1.966 . S
O582 C580 1.263 . S
C583 O584 1.235 . S
C583 O610 1.289 . S
O584 C583 1.235 . S
C585 C587 1.400 . S
C585 N588 1.351 . S
C585 C590 1.501 . S
C586 C587 1.387 . S
C586 N589 1.341 . S
C587 C585 1.400 . S
C587 C586 1.387 . S
N588 Co579 2.022 . S
N588 C585 1.351 . S
N588 N589 1.365 . S
N589 C586 1.341 . S
N589 N588 1.365 . S
N589 H609 0.862 . S
C590 C585 1.501 . S
C590 H591 0.961 . S
C590 H592 0.961 . S
C590 H593 0.960 . S
H591 C590 0.961 . S
H592 C590 0.961 . S
H593 C590 0.960 . S
C594 N595 1.342 . S
C594 C598 1.401 . S
C594 C599 1.499 . S
N595 Co578 1.989 . S
N595 C594 1.342 . S
N595 N596 1.388 . S
N596 Co579 1.993 . S
N596 N595 1.388 . S
N596 C597 1.346 . S
C597 N596 1.346 . S
C597 C598 1.396 . S
C597 C607 1.510 . S
C598 C594 1.401 . S
C598 C597 1.396 . S
C599 C594 1.499 . S
C599 H600 0.959 . S
C599 H601 0.960 . S
C599 H602 0.961 . S
H600 C599 0.959 . S
H601 C599 0.960 . S
H602 C599 0.961 . S
O603 Co578 1.967 . S
O603 C611 1.258 . S
O604 Co579 1.941 . S
O604 C611 1.266 . S
H605 C607 0.959 . S
H606 C607 0.961 . S
C607 C597 1.510 . S
C607 H605 0.959 . S
C607 H606 0.961 . S
C607 H608 0.960 . S
H608 C607 0.960 . S
H609 N589 0.862 . S
O610 Co578 1.920 . S
O610 C583 1.289 . S
C611 O603 1.258 . S
C611 O604 1.266 . S
C612 C613 1.363 . S
C612 C618 1.379 . S
C612 N620 1.356 . S
C613 C612 1.363 . S
C613 C619 1.363 . S
C614 C615 1.363 . S
C614 C619 1.379 . S
C614 N621 1.356 . S
C615 C614 1.363 . S
C615 C618 1.363 . S
N616 C618 1.356 . S
N616 H628 0.984 . S
N616 H629 0.985 1_655 S
N617 C619 1.356 . S
N617 H622 0.984 . S
N617 H623 0.985 . S
C618 C612 1.379 . S
C618 C615 1.363 . S
C618 N616 1.356 . S
C619 C613 1.363 . S
C619 C614 1.379 . S
C619 N617 1.356 . S
N620 C612 1.356 . S
N620 H626 0.984 . S
N620 H627 0.984 . S
N621 C614 1.356 . S
N621 H624 0.984 1_655 S
N621 H625 0.985 . S
H622 N617 0.984 . S
H623 N617 0.985 . S
H624 N621 0.984 1_455 S
H625 N621 0.985 . S
H626 N620 0.984 . S
H627 N620 0.984 . S
H628 N616 0.984 . S
H629 N616 0.985 1_455 S
C630 C631 1.363 . S
C630 C636 1.379 . S
C630 N638 1.356 . S
C631 C630 1.363 . S
C631 C637 1.363 . S
C632 C633 1.363 . S
C632 C637 1.379 . S
C632 N639 1.356 . S
C633 C632 1.363 . S
C633 C636 1.363 . S
N634 C636 1.356 . S
N634 H646 0.984 . S
N634 H647 0.985 . S
N635 C637 1.356 . S
N635 H640 0.984 . S
N635 H641 0.985 . S
C636 C630 1.379 . S
C636 C633 1.363 . S
C636 N634 1.356 . S
C637 C631 1.363 . S
C637 C632 1.379 . S
C637 N635 1.356 . S
N638 C630 1.356 . S
N638 H644 0.984 . S
N638 H645 0.984 . S
N639 C632 1.356 . S
N639 H642 0.984 . S
N639 H643 0.985 . S
H640 N635 0.984 . S
H641 N635 0.985 . S
H642 N639 0.984 . S
H643 N639 0.985 . S
H644 N638 0.984 . S
H645 N638 0.984 . S
H646 N634 0.984 . S
H647 N634 0.985 . S
C648 C649 1.363 . S
C648 C654 1.379 1_545 S
C648 N656 1.356 . S
C649 C648 1.363 . S
C649 C655 1.363 . S
C650 C651 1.363 1_545 S
C650 C655 1.379 . S
C650 N657 1.356 . S
C651 C650 1.363 1_565 S
C651 C654 1.363 . S
N652 C654 1.356 . S
N652 H664 0.984 . S
N652 H665 0.985 . S
N653 C655 1.356 . S
N653 H658 0.984 . S
N653 H659 0.985 . S
C654 C648 1.379 1_565 S
C654 C651 1.363 . S
C654 N652 1.356 . S
C655 C649 1.363 . S
C655 C650 1.379 . S
C655 N653 1.356 . S
N656 C648 1.356 . S
N656 H662 0.984 1_545 S
N656 H663 0.984 . S
N657 C650 1.356 . S
N657 H660 0.984 . S
N657 H661 0.985 . S
H658 N653 0.984 . S
H659 N653 0.985 . S
H660 N657 0.984 . S
H661 N657 0.985 . S
H662 N656 0.984 1_565 S
H663 N656 0.984 . S
H664 N652 0.984 . S
H665 N652 0.985 . S
C666 C667 1.363 . S
C666 C672 1.379 . S
C666 N674 1.356 . S
C667 C666 1.363 . S
C667 C673 1.363 . S
C668 C669 1.363 . S
C668 C673 1.379 . S
C668 N675 1.356 . S
C669 C668 1.363 . S
C669 C672 1.363 . S
N670 C672 1.356 . S
N670 H682 0.984 . S
N670 H683 0.985 . S
N671 C673 1.356 1_545 S
N671 H676 0.984 . S
N671 H677 0.985 . S
C672 C666 1.379 . S
C672 C669 1.363 . S
C672 N670 1.356 . S
C673 C667 1.363 . S
C673 C668 1.379 . S
C673 N671 1.356 1_565 S
N674 C666 1.356 . S
N674 H680 0.984 . S
N674 H681 0.984 . S
N675 C668 1.356 . S
N675 H678 0.984 . S
N675 H679 0.985 . S
H676 N671 0.984 . S
H677 N671 0.985 . S
H678 N675 0.984 . S
H679 N675 0.985 . S
H680 N674 0.984 . S
H681 N674 0.984 . S
H682 N670 0.984 . S
H683 N670 0.985 . S
C684 C685 1.363 . S
C684 C690 1.379 1_455 S
C684 N692 1.356 . S
C685 C684 1.363 . S
C685 C691 1.363 . S
C686 C687 1.363 1_455 S
C686 C691 1.379 . S
C686 N693 1.356 . S
C687 C686 1.363 1_655 S
C687 C690 1.363 . S
N688 C690 1.356 . S
N688 H700 0.984 . S
N688 H701 0.985 . S
N689 C691 1.356 . S
N689 H694 0.984 . S
N689 H695 0.985 . S
C690 C684 1.379 1_655 S
C690 C687 1.363 . S
C690 N688 1.356 . S
C691 C685 1.363 . S
C691 C686 1.379 . S
C691 N689 1.356 . S
N692 C684 1.356 . S
N692 H698 0.984 1_455 S
N692 H699 0.984 . S
N693 C686 1.356 . S
N693 H696 0.984 . S
N693 H697 0.985 . S
H694 N689 0.984 . S
H695 N689 0.985 . S
H696 N693 0.984 . S
H697 N693 0.985 . S
H698 N692 0.984 1_655 S
H699 N692 0.984 . S
H700 N688 0.984 . S
H701 N688 0.985 . S
C702 C703 1.363 . S
C702 C708 1.379 . S
C702 N710 1.356 . S
C703 C702 1.363 . S
C703 C709 1.363 . S
C704 C705 1.363 . S
C704 C709 1.379 . S
C704 N711 1.356 . S
C705 C704 1.363 . S
C705 C708 1.363 . S
N706 C708 1.356 . S
N706 H718 0.984 . S
N706 H719 0.985 . S
N707 C709 1.356 . S
N707 H712 0.984 . S
N707 H713 0.985 . S
C708 C702 1.379 . S
C708 C705 1.363 . S
C708 N706 1.356 . S
C709 C703 1.363 . S
C709 C704 1.379 . S
C709 N707 1.356 . S
N710 C702 1.356 . S
N710 H716 0.984 . S
N710 H717 0.984 . S
N711 C704 1.356 . S
N711 H714 0.984 . S
N711 H715 0.985 . S
H712 N707 0.984 . S
H713 N707 0.985 . S
H714 N711 0.984 . S
H715 N711 0.985 . S
H716 N710 0.984 . S
H717 N710 0.984 . S
H718 N706 0.984 . S
H719 N706 0.985 . S
C720 C721 1.363 . S
C720 C726 1.379 . S
C720 N728 1.356 . S
C721 C720 1.363 . S
C721 C727 1.363 . S
C722 C723 1.363 . S
C722 C727 1.379 . S
C722 N729 1.356 . S
C723 C722 1.363 . S
C723 C726 1.363 . S
N724 C726 1.356 . S
N724 H736 0.984 . S
N724 H737 0.985 . S
N725 C727 1.356 . S
N725 H730 0.984 . S
N725 H731 0.985 . S
C726 C720 1.379 . S
C726 C723 1.363 . S
C726 N724 1.356 . S
C727 C721 1.363 . S
C727 C722 1.379 . S
C727 N725 1.356 . S
N728 C720 1.356 . S
N728 H734 0.984 . S
N728 H735 0.984 . S
N729 C722 1.356 . S
N729 H732 0.984 . S
N729 H733 0.985 . S
H730 N725 0.984 . S
H731 N725 0.985 . S
H732 N729 0.984 . S
H733 N729 0.985 . S
H734 N728 0.984 . S
H735 N728 0.984 . S
H736 N724 0.984 . S
H737 N724 0.985 . S
C738 C739 1.363 . S
C738 C744 1.379 1_565 S
C738 N746 1.356 . S
C739 C738 1.363 . S
C739 C745 1.363 . S
C740 C741 1.363 . S
C740 C745 1.379 1_545 S
C740 N747 1.356 . S
C741 C740 1.363 . S
C741 C744 1.363 . S
N742 C744 1.356 . S
N742 H754 0.984 . S
N742 H755 0.985 . S
N743 C745 1.356 . S
N743 H748 0.984 . S
N743 H749 0.985 . S
C744 C738 1.379 1_545 S
C744 C741 1.363 . S
C744 N742 1.356 . S
C745 C739 1.363 . S
C745 C740 1.379 1_565 S
C745 N743 1.356 . S
N746 C738 1.356 . S
N746 H752 0.984 . S
N746 H753 0.984 . S
N747 C740 1.356 . S
N747 H750 0.984 . S
N747 H751 0.985 . S
H748 N743 0.984 . S
H749 N743 0.985 . S
H750 N747 0.984 . S
H751 N747 0.985 . S
H752 N746 0.984 . S
H753 N746 0.984 . S
H754 N742 0.984 . S
H755 N742 0.985 . S
C756 C757 1.363 . S
C756 C762 1.379 1_455 S
C756 N764 1.356 . S
C757 C756 1.363 . S
C757 C763 1.363 . S
C758 C759 1.363 . S
C758 C763 1.379 1_655 S
C758 N765 1.356 . S
C759 C758 1.363 . S
C759 C762 1.363 . S
N760 C762 1.356 . S
N760 H772 0.984 . S
N760 H773 0.985 . S
N761 C763 1.356 . S
N761 H766 0.984 . S
N761 H767 0.985 . S
C762 C756 1.379 1_655 S
C762 C759 1.363 . S
C762 N760 1.356 . S
C763 C757 1.363 . S
C763 C758 1.379 1_455 S
C763 N761 1.356 . S
N764 C756 1.356 . S
N764 H770 0.984 . S
N764 H771 0.984 . S
N765 C758 1.356 . S
N765 H768 0.984 . S
N765 H769 0.985 . S
H766 N761 0.984 . S
H767 N761 0.985 . S
H768 N765 0.984 . S
H769 N765 0.985 . S
H770 N764 0.984 . S
H771 N764 0.984 . S
H772 N760 0.984 . S
H773 N760 0.985 . S
C774 C775 1.363 . S
C774 C780 1.379 . S
C774 N782 1.356 . S
C775 C774 1.363 . S
C775 C781 1.363 . S
C776 C777 1.363 . S
C776 C781 1.379 . S
C776 N783 1.356 . S
C777 C776 1.363 . S
C777 C780 1.363 . S
N778 C780 1.356 . S
N778 H790 0.984 . S
N778 H791 0.985 . S
N779 C781 1.356 . S
N779 H784 0.984 . S
N779 H785 0.985 . S
C780 C774 1.379 . S
C780 C777 1.363 . S
C780 N778 1.356 . S
C781 C775 1.363 . S
C781 C776 1.379 . S
C781 N779 1.356 . S
N782 C774 1.356 . S
N782 H788 0.984 . S
N782 H789 0.984 . S
N783 C776 1.356 . S
N783 H786 0.984 . S
N783 H787 0.985 . S
H784 N779 0.984 . S
H785 N779 0.985 . S
H786 N783 0.984 . S
H787 N783 0.985 . S
H788 N782 0.984 . S
H789 N782 0.984 . S
H790 N778 0.984 . S
H791 N778 0.985 . S
C792 C793 1.363 . S
C792 C798 1.379 . S
C792 N800 1.356 . S
C793 C792 1.363 . S
C793 C799 1.363 . S
C794 C795 1.363 . S
C794 C799 1.379 . S
C794 N801 1.356 . S
C795 C794 1.363 . S
C795 C798 1.363 . S
N796 C798 1.356 . S
N796 H808 0.984 . S
N796 H809 0.985 . S
N797 C799 1.356 . S
N797 H802 0.984 . S
N797 H803 0.985 . S
C798 C792 1.379 . S
C798 C795 1.363 . S
C798 N796 1.356 . S
C799 C793 1.363 . S
C799 C794 1.379 . S
C799 N797 1.356 . S
N800 C792 1.356 . S
N800 H806 0.984 . S
N800 H807 0.984 . S
N801 C794 1.356 . S
N801 H804 0.984 . S
N801 H805 0.985 . S
H802 N797 0.984 . S
H803 N797 0.985 . S
H804 N801 0.984 . S
H805 N801 0.985 . S
H806 N800 0.984 . S
H807 N800 0.984 . S
H808 N796 0.984 . S
H809 N796 0.985 . S
C810 C811 1.363 . S
C810 C816 1.379 . S
C810 N818 1.356 . S
C811 C810 1.363 . S
C811 C817 1.363 . S
C812 C813 1.363 . S
C812 C817 1.379 . S
C812 N819 1.356 . S
C813 C812 1.363 . S
C813 C816 1.363 . S
N814 C816 1.356 . S
N814 H826 0.984 . S
N814 H827 0.985 . S
N815 C817 1.356 . S
N815 H820 0.984 . S
N815 H821 0.985 . S
C816 C810 1.379 . S
C816 C813 1.363 . S
C816 N814 1.356 . S
C817 C811 1.363 . S
C817 C812 1.379 . S
C817 N815 1.356 . S
N818 C810 1.356 . S
N818 H824 0.984 . S
N818 H825 0.984 . S
N819 C812 1.356 . S
N819 H822 0.984 . S
N819 H823 0.985 . S
H820 N815 0.984 . S
H821 N815 0.985 . S
H822 N819 0.984 . S
H823 N819 0.985 . S
H824 N818 0.984 . S
H825 N818 0.984 . S
H826 N814 0.984 . S
H827 N814 0.985 . S
C828 C829 1.363 . S
C828 C834 1.379 . S
C828 N836 1.356 . S
C829 C828 1.363 . S
C829 C835 1.363 . S
C830 C831 1.363 . S
C830 C835 1.379 . S
C830 N837 1.356 . S
C831 C830 1.363 . S
C831 C834 1.363 . S
N832 C834 1.356 . S
N832 H844 0.984 . S
N832 H845 0.985 . S
N833 C835 1.356 . S
N833 H838 0.984 . S
N833 H839 0.985 . S
C834 C828 1.379 . S
C834 C831 1.363 . S
C834 N832 1.356 . S
C835 C829 1.363 . S
C835 C830 1.379 . S
C835 N833 1.356 . S
N836 C828 1.356 . S
N836 H842 0.984 . S
N836 H843 0.984 . S
N837 C830 1.356 . S
N837 H840 0.984 . S
N837 H841 0.985 . S
H838 N833 0.984 . S
H839 N833 0.985 . S
H840 N837 0.984 . S
H841 N837 0.985 . S
H842 N836 0.984 . S
H843 N836 0.984 . S
H844 N832 0.984 . S
H845 N832 0.985 . S
C846 C847 1.363 . S
C846 C852 1.379 . S
C846 N854 1.356 . S
C847 C846 1.363 . S
C847 C853 1.363 . S
C848 C849 1.363 . S
C848 C853 1.379 . S
C848 N855 1.356 . S
C849 C848 1.363 . S
C849 C852 1.363 . S
N850 C852 1.356 . S
N850 H862 0.984 . S
N850 H863 0.985 . S
N851 C853 1.356 . S
N851 H856 0.984 . S
N851 H857 0.985 . S
C852 C846 1.379 . S
C852 C849 1.363 . S
C852 N850 1.356 . S
C853 C847 1.363 . S
C853 C848 1.379 . S
C853 N851 1.356 . S
N854 C846 1.356 . S
N854 H860 0.984 . S
N854 H861 0.984 . S
N855 C848 1.356 . S
N855 H858 0.984 . S
N855 H859 0.985 . S
H856 N851 0.984 . S
H857 N851 0.985 . S
H858 N855 0.984 . S
H859 N855 0.985 . S
H860 N854 0.984 . S
H861 N854 0.984 . S
H862 N850 0.984 . S
H863 N850 0.985 . S
C864 C865 1.363 . S
C864 C870 1.379 . S
C864 N872 1.356 . S
C865 C864 1.363 . S
C865 C871 1.363 . S
C866 C867 1.363 . S
C866 C871 1.379 . S
C866 N873 1.356 . S
C867 C866 1.363 . S
C867 C870 1.363 . S
N868 C870 1.356 . S
N868 H880 0.984 . S
N868 H881 0.985 . S
N869 C871 1.356 . S
N869 H874 0.984 . S
N869 H875 0.985 . S
C870 C864 1.379 . S
C870 C867 1.363 . S
C870 N868 1.356 . S
C871 C865 1.363 . S
C871 C866 1.379 . S
C871 N869 1.356 . S
N872 C864 1.356 . S
N872 H878 0.984 . S
N872 H879 0.984 . S
N873 C866 1.356 . S
N873 H876 0.984 . S
N873 H877 0.985 . S
H874 N869 0.984 . S
H875 N869 0.985 . S
H876 N873 0.984 . S
H877 N873 0.985 . S
H878 N872 0.984 . S
H879 N872 0.984 . S
H880 N868 0.984 . S
H881 N868 0.985 . S
C882 C883 1.363 1_556 S
C882 C888 1.379 1_655 S
C882 N890 1.356 . S
C883 C882 1.363 1_554 S
C883 C889 1.363 . S
C884 C885 1.363 1_554 S
C884 C889 1.379 1_455 S
C884 N891 1.356 . S
C885 C884 1.363 1_556 S
C885 C888 1.363 . S
N886 C888 1.356 . S
N886 H898 0.984 . S
N886 H899 0.985 . S
N887 C889 1.356 . S
N887 H892 0.984 . S
N887 H893 0.985 . S
C888 C882 1.379 1_455 S
C888 C885 1.363 . S
C888 N886 1.356 . S
C889 C883 1.363 . S
C889 C884 1.379 1_655 S
C889 N887 1.356 . S
N890 C882 1.356 . S
N890 H896 0.984 . S
N890 H897 0.984 1_556 S
N891 C884 1.356 . S
N891 H894 0.984 1_554 S
N891 H895 0.985 . S
H892 N887 0.984 . S
H893 N887 0.985 . S
H894 N891 0.984 1_556 S
H895 N891 0.985 . S
H896 N890 0.984 . S
H897 N890 0.984 1_554 S
H898 N886 0.984 . S
H899 N886 0.985 . S
C900 C901 1.363 . S
C900 C906 1.379 . S
C900 N908 1.356 . S
C901 C900 1.363 . S
C901 C907 1.363 1_556 S
C902 C903 1.363 . S
C902 C907 1.379 . S
C902 N909 1.356 . S
C903 C902 1.363 . S
C903 C906 1.363 1_554 S
N904 C906 1.356 . S
N904 H916 0.984 . S
N904 H917 0.985 1_556 S
N905 C907 1.356 . S
N905 H910 0.984 1_554 S
N905 H911 0.985 . S
C906 C900 1.379 . S
C906 C903 1.363 1_556 S
C906 N904 1.356 . S
C907 C901 1.363 1_554 S
C907 C902 1.379 . S
C907 N905 1.356 . S
N908 C900 1.356 . S
N908 H914 0.984 . S
N908 H915 0.984 . S
N909 C902 1.356 . S
N909 H912 0.984 . S
N909 H913 0.985 . S
H910 N905 0.984 1_556 S
H911 N905 0.985 . S
H912 N909 0.984 . S
H913 N909 0.985 . S
H914 N908 0.984 . S
H915 N908 0.984 . S
H916 N904 0.984 . S
H917 N904 0.985 1_554 S
C918 C919 1.363 1_556 S
C918 C924 1.379 1_545 S
C918 N926 1.356 . S
C919 C918 1.363 1_554 S
C919 C925 1.363 . S
C920 C921 1.363 1_554 S
C920 C925 1.379 1_565 S
C920 N927 1.356 . S
C921 C920 1.363 1_556 S
C921 C924 1.363 . S
N922 C924 1.356 . S
N922 H934 0.984 . S
N922 H935 0.985 . S
N923 C925 1.356 . S
N923 H928 0.984 . S
N923 H929 0.985 . S
C924 C918 1.379 1_565 S
C924 C921 1.363 . S
C924 N922 1.356 . S
C925 C919 1.363 . S
C925 C920 1.379 1_545 S
C925 N923 1.356 . S
N926 C918 1.356 . S
N926 H932 0.984 . S
N926 H933 0.984 1_556 S
N927 C920 1.356 . S
N927 H930 0.984 1_554 S
N927 H931 0.985 . S
H928 N923 0.984 . S
H929 N923 0.985 . S
H930 N927 0.984 1_556 S
H931 N927 0.985 . S
H932 N926 0.984 . S
H933 N926 0.984 1_554 S
H934 N922 0.984 . S
H935 N922 0.985 . S
C936 C937 1.363 . S
C936 C942 1.379 1_454 S
C936 N944 1.356 . S
C937 C936 1.363 . S
C937 C943 1.363 . S
C938 C939 1.363 . S
C938 C943 1.379 1_656 S
C938 N945 1.356 . S
C939 C938 1.363 . S
C939 C942 1.363 . S
N940 C942 1.356 . S
N940 H952 0.984 . S
N940 H953 0.985 . S
N941 C943 1.356 . S
N941 H946 0.984 . S
N941 H947 0.985 . S
C942 C936 1.379 1_656 S
C942 C939 1.363 . S
C942 N940 1.356 . S
C943 C937 1.363 . S
C943 C938 1.379 1_454 S
C943 N941 1.356 . S
N944 C936 1.356 . S
N944 H950 0.984 . S
N944 H951 0.984 . S
N945 C938 1.356 . S
N945 H948 0.984 . S
N945 H949 0.985 . S
H946 N941 0.984 . S
H947 N941 0.985 . S
H948 N945 0.984 . S
H949 N945 0.985 . S
H950 N944 0.984 . S
H951 N944 0.984 . S
H952 N940 0.984 . S
H953 N940 0.985 . S
C954 C955 1.363 . S
C954 C960 1.379 1_556 S
C954 N962 1.356 . S
C955 C954 1.363 . S
C955 C961 1.363 . S
C956 C957 1.363 . S
C956 C961 1.379 1_554 S
C956 N963 1.356 . S
C957 C956 1.363 . S
C957 C960 1.363 . S
N958 C960 1.356 . S
N958 H970 0.984 . S
N958 H971 0.985 . S
N959 C961 1.356 . S
N959 H964 0.984 . S
N959 H965 0.985 . S
C960 C954 1.379 1_554 S
C960 C957 1.363 . S
C960 N958 1.356 . S
C961 C955 1.363 . S
C961 C956 1.379 1_556 S
C961 N959 1.356 . S
N962 C954 1.356 . S
N962 H968 0.984 . S
N962 H969 0.984 . S
N963 C956 1.356 . S
N963 H966 0.984 . S
N963 H967 0.985 . S
H964 N959 0.984 . S
H965 N959 0.985 . S
H966 N963 0.984 . S
H967 N963 0.985 . S
H968 N962 0.984 . S
H969 N962 0.984 . S
H970 N958 0.984 . S
H971 N958 0.985 . S
C972 C973 1.363 1_554 S
C972 C978 1.379 1_545 S
C972 N980 1.356 1_554 S
C973 C972 1.363 1_556 S
C973 C979 1.363 1_545 S
C974 C975 1.363 1_556 S
C974 C979 1.379 . S
C974 N981 1.356 1_556 S
C975 C974 1.363 1_554 S
C975 C978 1.363 . S
N976 C978 1.356 . S
N976 H988 0.984 1_565 S
N976 H989 0.985 . S
N977 C979 1.356 . S
N977 H982 0.984 1_565 S
N977 H983 0.985 . S
C978 C972 1.379 1_565 S
C978 C975 1.363 . S
C978 N976 1.356 . S
C979 C973 1.363 1_565 S
C979 C974 1.379 . S
C979 N977 1.356 . S
N980 C972 1.356 1_556 S
N980 H986 0.984 1_556 S
N980 H987 0.984 . S
N981 C974 1.356 1_554 S
N981 H984 0.984 . S
N981 H985 0.985 1_554 S
H982 N977 0.984 1_545 S
H983 N977 0.985 . S
H984 N981 0.984 . S
H985 N981 0.985 1_556 S
H986 N980 0.984 1_554 S
H987 N980 0.984 . S
H988 N976 0.984 1_545 S
H989 N976 0.985 . S
C990 C991 1.363 . S
C990 C996 1.379 . S
C990 N998 1.356 . S
C991 C990 1.363 . S
C991 C997 1.363 . S
C992 C993 1.363 . S
C992 C997 1.379 . S
C992 N999 1.356 . S
C993 C992 1.363 . S
C993 C996 1.363 . S
N994 C996 1.356 . S
N994 H1006 0.984 . S
N994 H1007 0.985 . S
N995 C997 1.356 . S
N995 H1000 0.984 . S
N995 H1001 0.985 . S
C996 C990 1.379 . S
C996 C993 1.363 . S
C996 N994 1.356 . S
C997 C991 1.363 . S
C997 C992 1.379 . S
C997 N995 1.356 . S
N998 C990 1.356 . S
N998 H1004 0.984 . S
N998 H1005 0.984 . S
N999 C992 1.356 . S
N999 H1002 0.984 . S
N999 H1003 0.985 . S
H1000 N995 0.984 . S
H1001 N995 0.985 . S
H1002 N999 0.984 . S
H1003 N999 0.985 . S
H1004 N998 0.984 . S
H1005 N998 0.984 . S
H1006 N994 0.984 . S
H1007 N994 0.985 . S
C1008 C1009 1.363 . S
C1008 C1014 1.379 . S
C1008 N1016 1.356 . S
C1009 C1008 1.363 . S
C1009 C1015 1.363 . S
C1010 C1011 1.363 . S
C1010 C1015 1.379 . S
C1010 N1017 1.356 . S
C1011 C1010 1.363 . S
C1011 C1014 1.363 . S
N1012 C1014 1.356 . S
N1012 H1024 0.984 . S
N1012 H1025 0.985 . S
N1013 C1015 1.356 . S
N1013 H1018 0.984 . S
N1013 H1019 0.985 . S
C1014 C1008 1.379 . S
C1014 C1011 1.363 . S
C1014 N1012 1.356 . S
C1015 C1009 1.363 . S
C1015 C1010 1.379 . S
C1015 N1013 1.356 . S
N1016 C1008 1.356 . S
N1016 H1022 0.984 . S
N1016 H1023 0.984 . S
N1017 C1010 1.356 . S
N1017 H1020 0.984 . S
N1017 H1021 0.985 . S
H1018 N1013 0.984 . S
H1019 N1013 0.985 . S
H1020 N1017 0.984 . S
H1021 N1017 0.985 . S
H1022 N1016 0.984 . S
H1023 N1016 0.984 . S
H1024 N1012 0.984 . S
H1025 N1012 0.985 . S
C1026 C1027 1.363 . S
C1026 C1032 1.379 . S
C1026 N1034 1.356 . S
C1027 C1026 1.363 . S
C1027 C1033 1.363 . S
C1028 C1029 1.363 . S
C1028 C1033 1.379 . S
C1028 N1035 1.356 . S
C1029 C1028 1.363 . S
C1029 C1032 1.363 . S
N1030 C1032 1.356 . S
N1030 H1042 0.984 . S
N1030 H1043 0.985 . S
N1031 C1033 1.356 . S
N1031 H1036 0.984 . S
N1031 H1037 0.985 . S
C1032 C1026 1.379 . S
C1032 C1029 1.363 . S
C1032 N1030 1.356 . S
C1033 C1027 1.363 . S
C1033 C1028 1.379 . S
C1033 N1031 1.356 . S
N1034 C1026 1.356 . S
N1034 H1040 0.984 . S
N1034 H1041 0.984 . S
N1035 C1028 1.356 . S
N1035 H1038 0.984 . S
N1035 H1039 0.985 . S
H1036 N1031 0.984 . S
H1037 N1031 0.985 . S
H1038 N1035 0.984 . S
H1039 N1035 0.985 . S
H1040 N1034 0.984 . S
H1041 N1034 0.984 . S
H1042 N1030 0.984 . S
H1043 N1030 0.985 . S
C1044 C1045 1.363 . S
C1044 C1050 1.379 . S
C1044 N1052 1.356 . S
C1045 C1044 1.363 . S
C1045 C1051 1.363 . S
C1046 C1047 1.363 . S
C1046 C1051 1.379 . S
C1046 N1053 1.356 . S
C1047 C1046 1.363 . S
C1047 C1050 1.363 . S
N1048 C1050 1.356 . S
N1048 H1060 0.984 . S
N1048 H1061 0.985 . S
N1049 C1051 1.356 . S
N1049 H1054 0.984 . S
N1049 H1055 0.985 . S
C1050 C1044 1.379 . S
C1050 C1047 1.363 . S
C1050 N1048 1.356 . S
C1051 C1045 1.363 . S
C1051 C1046 1.379 . S
C1051 N1049 1.356 . S
N1052 C1044 1.356 . S
N1052 H1058 0.984 . S
N1052 H1059 0.984 . S
N1053 C1046 1.356 . S
N1053 H1056 0.984 . S
N1053 H1057 0.985 . S
H1054 N1049 0.984 . S
H1055 N1049 0.985 . S
H1056 N1053 0.984 . S
H1057 N1053 0.985 . S
H1058 N1052 0.984 . S
H1059 N1052 0.984 . S
H1060 N1048 0.984 . S
H1061 N1048 0.985 . S
C1062 C1063 1.363 . S
C1062 C1068 1.379 . S
C1062 N1070 1.356 . S
C1063 C1062 1.363 . S
C1063 C1069 1.363 . S
C1064 C1065 1.363 . S
C1064 C1069 1.379 . S
C1064 N1071 1.356 . S
C1065 C1064 1.363 . S
C1065 C1068 1.363 . S
N1066 C1068 1.356 . S
N1066 H1078 0.984 . S
N1066 H1079 0.985 . S
N1067 C1069 1.356 . S
N1067 H1072 0.984 . S
N1067 H1073 0.985 . S
C1068 C1062 1.379 . S
C1068 C1065 1.363 . S
C1068 N1066 1.356 . S
C1069 C1063 1.363 . S
C1069 C1064 1.379 . S
C1069 N1067 1.356 . S
N1070 C1062 1.356 . S
N1070 H1076 0.984 . S
N1070 H1077 0.984 . S
N1071 C1064 1.356 . S
N1071 H1074 0.984 . S
N1071 H1075 0.985 . S
H1072 N1067 0.984 . S
H1073 N1067 0.985 . S
H1074 N1071 0.984 . S
H1075 N1071 0.985 . S
H1076 N1070 0.984 . S
H1077 N1070 0.984 . S
H1078 N1066 0.984 . S
H1079 N1066 0.985 . S
C1080 C1081 1.363 . S
C1080 C1086 1.379 . S
C1080 N1088 1.356 . S
C1081 C1080 1.363 . S
C1081 C1087 1.363 . S
C1082 C1083 1.363 . S
C1082 C1087 1.379 . S
C1082 N1089 1.356 . S
C1083 C1082 1.363 . S
C1083 C1086 1.363 . S
N1084 C1086 1.356 . S
N1084 H1096 0.984 . S
N1084 H1097 0.985 . S
N1085 C1087 1.356 . S
N1085 H1090 0.984 . S
N1085 H1091 0.985 . S
C1086 C1080 1.379 . S
C1086 C1083 1.363 . S
C1086 N1084 1.356 . S
C1087 C1081 1.363 . S
C1087 C1082 1.379 . S
C1087 N1085 1.356 . S
N1088 C1080 1.356 . S
N1088 H1094 0.984 . S
N1088 H1095 0.984 . S
N1089 C1082 1.356 . S
N1089 H1092 0.984 . S
N1089 H1093 0.985 . S
H1090 N1085 0.984 . S
H1091 N1085 0.985 . S
H1092 N1089 0.984 . S
H1093 N1089 0.985 . S
H1094 N1088 0.984 . S
H1095 N1088 0.984 . S
H1096 N1084 0.984 . S
H1097 N1084 0.985 . S
C1098 C1099 1.363 . S
C1098 C1104 1.379 . S
C1098 N1106 1.356 . S
C1099 C1098 1.363 . S
C1099 C1105 1.363 . S
C1100 C1101 1.363 . S
C1100 C1105 1.379 . S
C1100 N1107 1.356 . S
C1101 C1100 1.363 . S
C1101 C1104 1.363 . S
N1102 C1104 1.356 . S
N1102 H1114 0.984 . S
N1102 H1115 0.985 . S
N1103 C1105 1.356 . S
N1103 H1108 0.984 . S
N1103 H1109 0.985 . S
C1104 C1098 1.379 . S
C1104 C1101 1.363 . S
C1104 N1102 1.356 . S
C1105 C1099 1.363 . S
C1105 C1100 1.379 . S
C1105 N1103 1.356 . S
N1106 C1098 1.356 . S
N1106 H1112 0.984 . S
N1106 H1113 0.984 1_545 S
N1107 C1100 1.356 . S
N1107 H1110 0.984 . S
N1107 H1111 0.985 . S
H1108 N1103 0.984 . S
H1109 N1103 0.985 . S
H1110 N1107 0.984 . S
H1111 N1107 0.985 . S
H1112 N1106 0.984 . S
H1113 N1106 0.984 1_565 S
H1114 N1102 0.984 . S
H1115 N1102 0.985 . S
C1116 C1117 1.363 . S
C1116 C1122 1.379 . S
C1116 N1124 1.356 . S
C1117 C1116 1.363 . S
C1117 C1123 1.363 . S
C1118 C1119 1.363 . S
C1118 C1123 1.379 . S
C1118 N1125 1.356 1_545 S
C1119 C1118 1.363 . S
C1119 C1122 1.363 . S
N1120 C1122 1.356 . S
N1120 H1132 0.984 . S
N1120 H1133 0.985 . S
N1121 C1123 1.356 . S
N1121 H1126 0.984 . S
N1121 H1127 0.985 . S
C1122 C1116 1.379 . S
C1122 C1119 1.363 . S
C1122 N1120 1.356 . S
C1123 C1117 1.363 . S
C1123 C1118 1.379 . S
C1123 N1121 1.356 . S
N1124 C1116 1.356 . S
N1124 H1130 0.984 . S
N1124 H1131 0.984 . S
N1125 C1118 1.356 1_565 S
N1125 H1128 0.984 . S
N1125 H1129 0.985 . S
H1126 N1121 0.984 . S
H1127 N1121 0.985 . S
H1128 N1125 0.984 . S
H1129 N1125 0.985 . S
H1130 N1124 0.984 . S
H1131 N1124 0.984 . S
H1132 N1120 0.984 . S
H1133 N1120 0.985 . S
C1134 C1135 1.363 . S
C1134 C1140 1.379 . S
C1134 N1142 1.356 . S
C1135 C1134 1.363 . S
C1135 C1141 1.363 . S
C1136 C1137 1.363 . S
C1136 C1141 1.379 . S
C1136 N1143 1.364 . S
C1137 C1136 1.363 . S
C1137 C1140 1.363 . S
N1138 C1140 1.356 . S
N1138 H1150 0.984 . S
N1138 H1151 0.985 . S
N1139 C1141 1.356 . S
N1139 H1144 0.984 . S
N1139 H1145 0.985 . S
C1140 C1134 1.379 . S
C1140 C1137 1.363 . S
C1140 N1138 1.356 . S
C1141 C1135 1.363 . S
C1141 C1136 1.379 . S
C1141 N1139 1.356 . S
N1142 C1134 1.356 . S
N1142 H1148 0.984 . S
N1142 H1149 0.984 . S
N1143 C1136 1.364 . S
N1143 H1146 0.978 1_655 S
N1143 H1147 0.983 1_655 S
H1144 N1139 0.984 . S
H1145 N1139 0.985 . S
H1146 N1143 0.978 1_455 S
H1147 N1143 0.983 1_455 S
H1148 N1142 0.984 . S
H1149 N1142 0.984 . S
H1150 N1138 0.984 . S
H1151 N1138 0.985 . S
C1152 C1153 1.363 . S
C1152 C1158 1.379 . S
C1152 N1160 1.356 . S
C1153 C1152 1.363 . S
C1153 C1159 1.363 . S
C1154 C1155 1.363 . S
C1154 C1159 1.379 . S
C1154 N1161 1.356 . S
C1155 C1154 1.363 . S
C1155 C1158 1.363 . S
N1156 C1158 1.356 . S
N1156 H1168 0.984 . S
N1156 H1169 0.985 . S
N1157 C1159 1.356 . S
N1157 H1162 0.984 1_455 S
N1157 H1163 0.985 . S
C1158 C1152 1.379 . S
C1158 C1155 1.363 . S
C1158 N1156 1.356 . S
C1159 C1153 1.363 . S
C1159 C1154 1.379 . S
C1159 N1157 1.356 . S
N1160 C1152 1.356 . S
N1160 H1166 0.984 . S
N1160 H1167 0.984 . S
N1161 C1154 1.356 . S
N1161 H1164 0.984 . S
N1161 H1165 0.985 . S
H1162 N1157 0.984 1_655 S
H1163 N1157 0.985 . S
H1164 N1161 0.984 . S
H1165 N1161 0.985 . S
H1166 N1160 0.984 . S
H1167 N1160 0.984 . S
H1168 N1156 0.984 . S
H1169 N1156 0.985 . S
C1170 C1171 1.363 . S
C1170 C1176 1.379 . S
C1170 N1178 1.356 . S
C1171 C1170 1.363 . S
C1171 C1177 1.363 . S
C1172 C1173 1.363 . S
C1172 C1177 1.379 . S
C1172 N1179 1.356 . S
C1173 C1172 1.363 . S
C1173 C1176 1.363 . S
N1174 C1176 1.356 . S
N1174 H1186 0.984 . S
N1174 H1187 0.985 . S
N1175 C1177 1.356 . S
N1175 H1180 0.984 1_565 S
N1175 H1181 0.985 1_565 S
C1176 C1170 1.379 . S
C1176 C1173 1.363 . S
C1176 N1174 1.356 . S
C1177 C1171 1.363 . S
C1177 C1172 1.379 . S
C1177 N1175 1.356 . S
N1178 C1170 1.356 . S
N1178 H1184 0.984 . S
N1178 H1185 0.984 . S
N1179 C1172 1.356 . S
N1179 H1182 0.984 . S
N1179 H1183 0.985 . S
H1180 N1175 0.984 1_545 S
H1181 N1175 0.985 1_545 S
H1182 N1179 0.984 . S
H1183 N1179 0.985 . S
H1184 N1178 0.984 . S
H1185 N1178 0.984 . S
H1186 N1174 0.984 . S
H1187 N1174 0.985 . S
C1188 C1189 1.363 . S
C1188 C1194 1.379 . S
C1188 N1196 1.356 . S
C1189 C1188 1.363 . S
C1189 C1195 1.363 . S
C1190 C1191 1.363 . S
C1190 C1195 1.379 . S
C1190 N1197 1.356 1_455 S
C1191 C1190 1.363 . S
C1191 C1194 1.363 . S
N1192 C1194 1.356 . S
N1192 H1204 0.984 . S
N1192 H1205 0.985 . S
N1193 C1195 1.356 . S
N1193 H1198 0.984 . S
N1193 H1199 0.985 . S
C1194 C1188 1.379 . S
C1194 C1191 1.363 . S
C1194 N1192 1.356 . S
C1195 C1189 1.363 . S
C1195 C1190 1.379 . S
C1195 N1193 1.356 . S
N1196 C1188 1.356 . S
N1196 H1202 0.984 . S
N1196 H1203 0.984 . S
N1197 C1190 1.356 1_655 S
N1197 H1200 0.984 . S
N1197 H1201 0.985 . S
H1198 N1193 0.984 . S
H1199 N1193 0.985 . S
H1200 N1197 0.984 . S
H1201 N1197 0.985 . S
H1202 N1196 0.984 . S
H1203 N1196 0.984 . S
H1204 N1192 0.984 . S
H1205 N1192 0.985 . S
C1206 C1207 1.363 . S
C1206 C1212 1.379 . S
C1206 N1214 1.356 . S
C1207 C1206 1.363 . S
C1207 C1213 1.363 . S
C1208 C1209 1.363 . S
C1208 C1213 1.379 . S
C1208 N1215 1.356 . S
C1209 C1208 1.363 . S
C1209 C1212 1.363 . S
N1210 C1212 1.356 . S
N1210 H1222 0.984 . S
N1210 H1223 0.985 . S
N1211 C1213 1.356 . S
N1211 H1216 0.984 . S
N1211 H1217 0.985 . S
C1212 C1206 1.379 . S
C1212 C1209 1.363 . S
C1212 N1210 1.356 . S
C1213 C1207 1.363 . S
C1213 C1208 1.379 . S
C1213 N1211 1.356 . S
N1214 C1206 1.356 . S
N1214 H1220 0.984 . S
N1214 H1221 0.984 . S
N1215 C1208 1.356 . S
N1215 H1218 0.984 . S
N1215 H1219 0.985 . S
H1216 N1211 0.984 . S
H1217 N1211 0.985 . S
H1218 N1215 0.984 . S
H1219 N1215 0.985 . S
H1220 N1214 0.984 . S
H1221 N1214 0.984 . S
H1222 N1210 0.984 . S
H1223 N1210 0.985 . S
C1224 C1225 1.363 . S
C1224 C1230 1.379 . S
C1224 N1232 1.356 . S
C1225 C1224 1.363 . S
C1225 C1231 1.363 . S
C1226 C1227 1.363 . S
C1226 C1231 1.379 . S
C1226 N1233 1.356 . S
C1227 C1226 1.363 . S
C1227 C1230 1.363 . S
N1228 C1230 1.356 . S
N1228 H1240 0.984 . S
N1228 H1241 0.985 . S
N1229 C1231 1.356 . S
N1229 H1234 0.984 . S
N1229 H1235 0.985 . S
C1230 C1224 1.379 . S
C1230 C1227 1.363 . S
C1230 N1228 1.356 . S
C1231 C1225 1.363 . S
C1231 C1226 1.379 . S
C1231 N1229 1.356 . S
N1232 C1224 1.356 . S
N1232 H1238 0.984 . S
N1232 H1239 0.984 . S
N1233 C1226 1.356 . S
N1233 H1236 0.984 . S
N1233 H1237 0.985 . S
H1234 N1229 0.984 . S
H1235 N1229 0.985 . S
H1236 N1233 0.984 . S
H1237 N1233 0.985 . S
H1238 N1232 0.984 . S
H1239 N1232 0.984 . S
H1240 N1228 0.984 . S
H1241 N1228 0.985 . S
C1242 C1243 1.363 . S
C1242 C1248 1.379 . S
C1242 N1250 1.356 . S
C1243 C1242 1.363 . S
C1243 C1249 1.363 . S
C1244 C1245 1.363 . S
C1244 C1249 1.379 . S
C1244 N1251 1.356 . S
C1245 C1244 1.363 . S
C1245 C1248 1.363 . S
N1246 C1248 1.356 . S
N1246 H1258 0.984 . S
N1246 H1259 0.985 . S
N1247 C1249 1.356 . S
N1247 H1252 0.984 . S
N1247 H1253 0.985 . S
C1248 C1242 1.379 . S
C1248 C1245 1.363 . S
C1248 N1246 1.356 . S
C1249 C1243 1.363 . S
C1249 C1244 1.379 . S
C1249 N1247 1.356 . S
N1250 C1242 1.356 . S
N1250 H1256 0.984 . S
N1250 H1257 0.984 . S
N1251 C1244 1.356 . S
N1251 H1254 0.984 . S
N1251 H1255 0.985 . S
H1252 N1247 0.984 . S
H1253 N1247 0.985 . S
H1254 N1251 0.984 . S
H1255 N1251 0.985 . S
H1256 N1250 0.984 . S
H1257 N1250 0.984 . S
H1258 N1246 0.984 . S
H1259 N1246 0.985 . S
C1260 C1261 1.363 . S
C1260 C1266 1.379 . S
C1260 N1268 1.356 . S
C1261 C1260 1.363 . S
C1261 C1267 1.363 . S
C1262 C1263 1.363 . S
C1262 C1267 1.379 . S
C1262 N1269 1.356 . S
C1263 C1262 1.363 . S
C1263 C1266 1.363 . S
N1264 C1266 1.356 . S
N1264 H1276 0.984 . S
N1264 H1277 0.985 . S
N1265 C1267 1.356 . S
N1265 H1270 0.984 . S
N1265 H1271 0.985 . S
C1266 C1260 1.379 . S
C1266 C1263 1.363 . S
C1266 N1264 1.356 . S
C1267 C1261 1.363 . S
C1267 C1262 1.379 . S
C1267 N1265 1.356 . S
N1268 C1260 1.356 . S
N1268 H1274 0.984 . S
N1268 H1275 0.984 . S
N1269 C1262 1.356 . S
N1269 H1272 0.984 . S
N1269 H1273 0.985 . S
H1270 N1265 0.984 . S
H1271 N1265 0.985 . S
H1272 N1269 0.984 . S
H1273 N1269 0.985 . S
H1274 N1268 0.984 . S
H1275 N1268 0.984 . S
H1276 N1264 0.984 . S
H1277 N1264 0.985 . S
C1278 C1279 1.363 . S
C1278 C1284 1.379 . S
C1278 N1286 1.356 . S
C1279 C1278 1.363 . S
C1279 C1285 1.363 . S
C1280 C1281 1.363 . S
C1280 C1285 1.379 . S
C1280 N1287 1.356 . S
C1281 C1280 1.363 . S
C1281 C1284 1.363 . S
N1282 C1284 1.356 . S
N1282 H1294 0.984 . S
N1282 H1295 0.985 . S
N1283 C1285 1.356 . S
N1283 H1288 0.984 . S
N1283 H1289 0.985 . S
C1284 C1278 1.379 . S
C1284 C1281 1.363 . S
C1284 N1282 1.356 . S
C1285 C1279 1.363 . S
C1285 C1280 1.379 . S
C1285 N1283 1.356 . S
N1286 C1278 1.356 . S
N1286 H1292 0.984 . S
N1286 H1293 0.984 . S
N1287 C1280 1.356 . S
N1287 H1290 0.984 . S
N1287 H1291 0.985 . S
H1288 N1283 0.984 . S
H1289 N1283 0.985 . S
H1290 N1287 0.984 . S
H1291 N1287 0.985 . S
H1292 N1286 0.984 . S
H1293 N1286 0.984 . S
H1294 N1282 0.984 . S
H1295 N1282 0.985 . S
C1296 C1297 1.363 . S
C1296 C1302 1.379 . S
C1296 N1304 1.356 . S
C1297 C1296 1.363 . S
C1297 C1303 1.363 . S
C1298 C1299 1.363 . S
C1298 C1303 1.379 . S
C1298 N1305 1.356 . S
C1299 C1298 1.363 . S
C1299 C1302 1.363 . S
N1300 C1302 1.356 . S
N1300 H1312 0.984 . S
N1300 H1313 0.985 . S
N1301 C1303 1.356 . S
N1301 H1306 0.984 . S
N1301 H1307 0.985 . S
C1302 C1296 1.379 . S
C1302 C1299 1.363 . S
C1302 N1300 1.356 . S
C1303 C1297 1.363 . S
C1303 C1298 1.379 . S
C1303 N1301 1.356 . S
N1304 C1296 1.356 . S
N1304 H1310 0.984 . S
N1304 H1311 0.984 . S
N1305 C1298 1.356 . S
N1305 H1308 0.984 . S
N1305 H1309 0.985 . S
H1306 N1301 0.984 . S
H1307 N1301 0.985 . S
H1308 N1305 0.984 . S
H1309 N1305 0.985 . S
H1310 N1304 0.984 . S
H1311 N1304 0.984 . S
H1312 N1300 0.984 . S
H1313 N1300 0.985 . S
C1314 C1315 1.363 . S
C1314 C1320 1.379 . S
C1314 N1322 1.356 . S
C1315 C1314 1.363 . S
C1315 C1321 1.363 . S
C1316 C1317 1.363 . S
C1316 C1321 1.379 . S
C1316 N1323 1.356 . S
C1317 C1316 1.363 . S
C1317 C1320 1.363 . S
N1318 C1320 1.356 . S
N1318 H1330 0.984 . S
N1318 H1331 0.985 . S
N1319 C1321 1.356 . S
N1319 H1324 0.984 . S
N1319 H1325 0.985 . S
C1320 C1314 1.379 . S
C1320 C1317 1.363 . S
C1320 N1318 1.356 . S
C1321 C1315 1.363 . S
C1321 C1316 1.379 . S
C1321 N1319 1.356 . S
N1322 C1314 1.356 . S
N1322 H1328 0.984 . S
N1322 H1329 0.984 . S
N1323 C1316 1.356 . S
N1323 H1326 0.984 . S
N1323 H1327 0.985 . S
H1324 N1319 0.984 . S
H1325 N1319 0.985 . S
H1326 N1323 0.984 . S
H1327 N1323 0.985 . S
H1328 N1322 0.984 . S
H1329 N1322 0.984 . S
H1330 N1318 0.984 . S
H1331 N1318 0.985 . S
C1332 C1333 1.363 . S
C1332 C1338 1.379 . S
C1332 N1340 1.356 . S
C1333 C1332 1.363 . S
C1333 C1339 1.363 . S
C1334 C1335 1.363 . S
C1334 C1339 1.379 . S
C1334 N1341 1.356 . S
C1335 C1334 1.363 . S
C1335 C1338 1.363 . S
N1336 C1338 1.356 . S
N1336 H1348 0.984 . S
N1336 H1349 0.985 . S
N1337 C1339 1.356 . S
N1337 H1342 0.984 . S
N1337 H1343 0.985 . S
C1338 C1332 1.379 . S
C1338 C1335 1.363 . S
C1338 N1336 1.356 . S
C1339 C1333 1.363 . S
C1339 C1334 1.379 . S
C1339 N1337 1.356 . S
N1340 C1332 1.356 . S
N1340 H1346 0.984 . S
N1340 H1347 0.984 . S
N1341 C1334 1.356 . S
N1341 H1344 0.984 . S
N1341 H1345 0.985 . S
H1342 N1337 0.984 . S
H1343 N1337 0.985 . S
H1344 N1341 0.984 . S
H1345 N1341 0.985 . S
H1346 N1340 0.984 . S
H1347 N1340 0.984 . S
H1348 N1336 0.984 . S
H1349 N1336 0.985 . S
C1350 C1351 1.363 . S
C1350 C1356 1.379 . S
C1350 N1358 1.356 . S
C1351 C1350 1.363 . S
C1351 C1357 1.363 . S
C1352 C1353 1.363 . S
C1352 C1357 1.379 . S
C1352 N1359 1.356 . S
C1353 C1352 1.363 . S
C1353 C1356 1.363 . S
N1354 C1356 1.356 . S
N1354 H1366 0.984 . S
N1354 H1367 0.985 . S
N1355 C1357 1.356 . S
N1355 H1360 0.984 . S
N1355 H1361 0.985 . S
C1356 C1350 1.379 . S
C1356 C1353 1.363 . S
C1356 N1354 1.356 . S
C1357 C1351 1.363 . S
C1357 C1352 1.379 . S
C1357 N1355 1.356 . S
N1358 C1350 1.356 . S
N1358 H1364 0.984 . S
N1358 H1365 0.984 . S
N1359 C1352 1.356 . S
N1359 H1362 0.984 . S
N1359 H1363 0.985 . S
H1360 N1355 0.984 . S
H1361 N1355 0.985 . S
H1362 N1359 0.984 . S
H1363 N1359 0.985 . S
H1364 N1358 0.984 . S
H1365 N1358 0.984 . S
H1366 N1354 0.984 . S
H1367 N1354 0.985 . S
C1368 C1369 1.363 . S
C1368 C1374 1.379 . S
C1368 N1376 1.356 . S
C1369 C1368 1.363 . S
C1369 C1375 1.363 . S
C1370 C1371 1.363 . S
C1370 C1375 1.379 . S
C1370 N1377 1.356 . S
C1371 C1370 1.363 . S
C1371 C1374 1.363 . S
N1372 C1374 1.356 . S
N1372 H1384 0.984 . S
N1372 H1385 0.985 . S
N1373 C1375 1.356 . S
N1373 H1378 0.984 . S
N1373 H1379 0.985 . S
C1374 C1368 1.379 . S
C1374 C1371 1.363 . S
C1374 N1372 1.356 . S
C1375 C1369 1.363 . S
C1375 C1370 1.379 . S
C1375 N1373 1.356 . S
N1376 C1368 1.356 . S
N1376 H1382 0.984 . S
N1376 H1383 0.984 . S
N1377 C1370 1.356 . S
N1377 H1380 0.984 . S
N1377 H1381 0.985 . S
H1378 N1373 0.984 . S
H1379 N1373 0.985 . S
H1380 N1377 0.984 . S
H1381 N1377 0.985 . S
H1382 N1376 0.984 . S
H1383 N1376 0.984 . S
H1384 N1372 0.984 . S
H1385 N1372 0.985 . S
C1386 C1387 1.363 . S
C1386 C1392 1.379 . S
C1386 N1394 1.356 . S
C1387 C1386 1.363 . S
C1387 C1393 1.363 . S
C1388 C1389 1.363 . S
C1388 C1393 1.379 . S
C1388 N1395 1.356 . S
C1389 C1388 1.363 . S
C1389 C1392 1.363 . S
N1390 C1392 1.356 . S
N1390 H1402 0.984 . S
N1390 H1403 0.985 . S
N1391 C1393 1.356 . S
N1391 H1396 0.984 . S
N1391 H1397 0.985 . S
C1392 C1386 1.379 . S
C1392 C1389 1.363 . S
C1392 N1390 1.356 . S
C1393 C1387 1.363 . S
C1393 C1388 1.379 . S
C1393 N1391 1.356 . S
N1394 C1386 1.356 . S
N1394 H1400 0.984 . S
N1394 H1401 0.984 . S
N1395 C1388 1.356 . S
N1395 H1398 0.984 . S
N1395 H1399 0.985 . S
H1396 N1391 0.984 . S
H1397 N1391 0.985 . S
H1398 N1395 0.984 . S
H1399 N1395 0.985 . S
H1400 N1394 0.984 . S
H1401 N1394 0.984 . S
H1402 N1390 0.984 . S
H1403 N1390 0.985 . S
C1404 C1405 1.363 . S
C1404 C1410 1.379 . S
C1404 N1412 1.356 . S
C1405 C1404 1.363 . S
C1405 C1411 1.363 . S
C1406 C1407 1.363 . S
C1406 C1411 1.379 . S
C1406 N1413 1.356 . S
C1407 C1406 1.363 . S
C1407 C1410 1.363 . S
N1408 C1410 1.356 . S
N1408 H1420 0.984 . S
N1408 H1421 0.985 . S
N1409 C1411 1.356 . S
N1409 H1414 0.984 . S
N1409 H1415 0.985 . S
C1410 C1404 1.379 . S
C1410 C1407 1.363 . S
C1410 N1408 1.356 . S
C1411 C1405 1.363 . S
C1411 C1406 1.379 . S
C1411 N1409 1.356 . S
N1412 C1404 1.356 . S
N1412 H1418 0.984 . S
N1412 H1419 0.984 . S
N1413 C1406 1.356 . S
N1413 H1416 0.984 . S
N1413 H1417 0.985 . S
H1414 N1409 0.984 . S
H1415 N1409 0.985 . S
H1416 N1413 0.984 . S
H1417 N1413 0.985 . S
H1418 N1412 0.984 . S
H1419 N1412 0.984 . S
H1420 N1408 0.984 . S
H1421 N1408 0.985 . S
C613 C315 0.624 . S
C615 C9 0.624 . S
C631 C349 0.624 . S
C633 C43 0.624 . S
C649 C383 0.624 . S
C651 C77 0.613 1_565 S
C667 C111 0.624 . S
C669 C417 0.624 . S
C685 C451 0.624 . S
C687 C145 0.613 1_655 S
C703 C485 0.624 . S
C705 C179 0.624 . S
C721 C213 0.624 . S
C723 C519 0.624 . S
C739 C553 0.624 . S
C741 C247 0.624 . S
C757 C587 0.624 . S
C759 C281 0.624 . S
C775 C598 1.962 . S
C777 C20 1.962 . S
C793 C530 1.962 . S
C795 C54 1.962 . S
C811 C88 1.962 . S
C813 C564 1.962 . S
C829 C258 1.962 . S
C831 C122 1.962 . S
C847 C292 1.962 . S
C849 C156 1.962 . S
C865 C190 1.962 . S
C867 C224 1.962 . S
C883 C326 1.962 . S
C885 C462 1.962 . S
C901 C496 1.962 . S
C903 C360 1.962 . S
C919 C394 1.962 . S
C921 C428 1.962 . S
C937 C2 1.902 . S
C939 C138 1.902 . S
C955 C172 1.902 . S
C957 C36 1.902 . S
C973 C104 1.902 . S
C975 C70 1.902 . S
C991 C342 1.902 . S
C993 C206 1.902 . S
C1009 C240 1.902 . S
C1011 C376 1.902 . S
C1027 C308 1.902 . S
C1029 C274 1.902 . S
C1045 C410 1.902 . S
C1047 C546 1.902 . S
C1063 C580 1.902 . S
C1065 C444 1.902 . S
C1081 C478 1.902 . S
C1083 C512 1.902 . S
C1099 C101 1.598 1_545 S
C1101 C5 1.587 . S
C1117 C33 1.598 . S
C1119 C39 1.587 1_545 S
C1135 C67 1.598 . S
C1137 C73 1.587 1_655 S
C1153 C169 1.598 1_455 S
C1155 C107 1.587 . S
C1171 C141 1.587 1_565 S
C1173 C203 1.598 . S
C1189 C135 1.598 . S
C1191 C175 1.587 1_455 S
C1207 C305 1.598 . S
C1209 C209 1.587 . S
C1225 C237 1.598 . S
C1227 C243 1.587 . S
C1243 C277 1.587 . S
C1245 C271 1.598 . S
C1261 C311 1.587 . S
C1263 C373 1.598 . S
C1279 C407 1.598 . S
C1281 C345 1.587 . S
C1297 C339 1.598 . S
C1299 C379 1.587 . S
C1315 C413 1.587 . S
C1317 C509 1.598 . S
C1333 C441 1.598 . S
C1335 C447 1.587 . S
C1351 C475 1.598 . S
C1353 C481 1.587 . S
C1369 C577 1.598 . S
C1371 C515 1.587 . S
C1387 C611 1.598 . S
C1389 C549 1.587 . S
C1405 C543 1.598 . S
C1407 C583 1.587 . S
