# Generated by pormake.
# Topology sth, (5)-cn, num edge types: 1
# Building blocks:
#     Node 0, Type 0, BuildingBlock: BEQFEK_clean_sbu_0, # of connection points: 5
#     Node 1, Type 0, BuildingBlock: BEQFEK_clean_sbu_0, # of connection points: 5
#     Node 2, Type 0, BuildingBlock: BEQFEK_clean_sbu_0, # of connection points: 5
#     Node 3, Type 0, BuildingBlock: BEQFEK_clean_sbu_0, # of connection points: 5
#     Node 4, Type 0, BuildingBlock: BEQFEK_clean_sbu_0, # of connection points: 5
#     Node 5, Type 0, BuildingBlock: BEQFEK_clean_sbu_0, # of connection points: 5
#     Node 6, Type 0, BuildingBlock: BEQFEK_clean_sbu_0, # of connection points: 5
#     Node 7, Type 0, BuildingBlock: BEQFEK_clean_sbu_0, # of connection points: 5
#     Node 8, Type 0, BuildingBlock: BEQFEK_clean_sbu_0, # of connection points: 5
#     Node 9, Type 0, BuildingBlock: BEQFEK_clean_sbu_0, # of connection points: 5
#     Node 10, Type 0, BuildingBlock: BEQFEK_clean_sbu_0, # of connection points: 5
#     Node 11, Type 0, BuildingBlock: BEQFEK_clean_sbu_0, # of connection points: 5
#     Node 12, Type 0, BuildingBlock: BEQFEK_clean_sbu_0, # of connection points: 5
#     Node 13, Type 0, BuildingBlock: BEQFEK_clean_sbu_0, # of connection points: 5
#     Node 14, Type 0, BuildingBlock: BEQFEK_clean_sbu_0, # of connection points: 5
#     Node 15, Type 0, BuildingBlock: BEQFEK_clean_sbu_0, # of connection points: 5
#     Node 16, Type 0, BuildingBlock: BEQFEK_clean_sbu_0, # of connection points: 5
#     Node 17, Type 0, BuildingBlock: BEQFEK_clean_sbu_0, # of connection points: 5
#     Edge 18, Type (0, 0), None
#     Edge 19, Type (0, 0), None
#     Edge 20, Type (0, 0), None
#     Edge 21, Type (0, 0), None
#     Edge 22, Type (0, 0), None
#     Edge 23, Type (0, 0), None
#     Edge 24, Type (0, 0), None
#     Edge 25, Type (0, 0), None
#     Edge 26, Type (0, 0), None
#     Edge 27, Type (0, 0), None
#     Edge 28, Type (0, 0), None
#     Edge 29, Type (0, 0), None
#     Edge 30, Type (0, 0), None
#     Edge 31, Type (0, 0), None
#     Edge 32, Type (0, 0), None
#     Edge 33, Type (0, 0), None
#     Edge 34, Type (0, 0), None
#     Edge 35, Type (0, 0), None
#     Edge 36, Type (0, 0), None
#     Edge 37, Type (0, 0), None
#     Edge 38, Type (0, 0), None
#     Edge 39, Type (0, 0), None
#     Edge 40, Type (0, 0), None
#     Edge 41, Type (0, 0), None
#     Edge 42, Type (0, 0), None
#     Edge 43, Type (0, 0), None
#     Edge 44, Type (0, 0), None
#     Edge 45, Type (0, 0), None
#     Edge 46, Type (0, 0), None
#     Edge 47, Type (0, 0), None
#     Edge 48, Type (0, 0), None
#     Edge 49, Type (0, 0), None
#     Edge 50, Type (0, 0), None
#     Edge 51, Type (0, 0), None
#     Edge 52, Type (0, 0), None
#     Edge 53, Type (0, 0), None
#     Edge 54, Type (0, 0), None
#     Edge 55, Type (0, 0), None
#     Edge 56, Type (0, 0), None
#     Edge 57, Type (0, 0), None
#     Edge 58, Type (0, 0), None
#     Edge 59, Type (0, 0), None
#     Edge 60, Type (0, 0), None
#     Edge 61, Type (0, 0), None
#     Edge 62, Type (0, 0), None
# Relax obj value: 0.360
# Max RMSD: 0.148
# Mean RMSD: 0.148
data_MOF--net-sth--node1-BEQFEK_clean_sbu_0--edge1-none
_symmetry_space_group_name_H-M    P1
_symmetry_Int_Tables_number       1
_symmetry_cell_setting            triclinic
loop_
_symmetry_equiv_pos_as_xyz
'x, y, z'
_cell_length_a     22.153857
_cell_length_b     22.153212
_cell_length_c     31.917948
_cell_angle_alpha  90.005503
_cell_angle_beta   89.993432
_cell_angle_gamma 119.99167
loop_
_atom_site_label
_atom_site_type_symbol
_atom_site_fract_x
_atom_site_fract_y
_atom_site_fract_z
_atom_type_partial_charge
Co0 Co 1.0415 0.23535 0.27257 0.0
Co1 Co 0.17855 0.37851 0.25238 0.0
C2 C 1.04592 0.33337 0.20513 0.0
O3 O 1.00986 0.27521 0.22405 0.0
O4 O 0.10943 0.37357 0.21422 0.0
C5 C 0.90785 0.09566 0.26222 0.0
O6 O 0.88539 0.12937 0.23908 0.0
C7 C 0.29222 0.47689 0.20102 0.0
C8 C 0.36575 0.5516 0.24734 0.0
C9 C 0.35727 0.53536 0.20506 0.0
N10 N 0.2634 0.45904 0.23913 0.0
N11 N 0.30679 0.50459 0.26671 0.0
C12 C 0.26135 0.43361 0.16252 0.0
H13 H 0.21562 0.3824 0.17056 0.0
H14 H 0.30089 0.42537 0.14618 0.0
H15 H 0.2448 0.46171 0.14078 0.0
C16 C 0.14982 0.19409 0.27429 0.0
N17 N 0.13092 0.24082 0.26338 0.0
N18 N 0.18672 0.2975 0.25059 0.0
C19 C 0.2409 0.28526 0.24874 0.0
C20 C 0.21881 0.2175 0.26294 0.0
C21 C 0.10616 0.13612 0.30267 0.0
H22 H 0.07822 0.15213 0.32493 0.0
H23 H 0.0675 0.09589 0.28212 0.0
H24 H 0.13682 0.11819 0.32081 0.0
O25 O 0.05612 0.29191 0.32559 0.0
O26 O 0.15202 0.3915 0.3087 0.0
H27 H 0.32735 0.38903 0.25508 0.0
H28 H 0.35263 0.32457 0.24747 0.0
C29 C 0.31409 0.34014 0.2384 0.0
H30 H 0.31818 0.35077 0.20426 0.0
H31 H 0.29739 0.50186 0.29887 0.0
O32 O 0.96825 0.13019 0.27907 0.0
C33 C 0.10323 0.35474 0.3342 0.0
Co34 Co 0.84976 0.82197 0.27256 0.0
Co35 Co 0.70658 0.81587 0.25239 0.0
C36 C 0.75174 0.72837 0.20512 0.0
O37 O 0.80991 0.75048 0.22403 0.0
O38 O 0.71154 0.75169 0.21423 0.0
C39 C 0.98947 0.82802 0.26219 0.0
O40 O 0.95578 0.77188 0.23903 0.0
C41 C 0.60823 0.83116 0.20102 0.0
C42 C 0.53347 0.82996 0.24733 0.0
C43 C 0.54973 0.83771 0.20506 0.0
N44 N 0.62605 0.82018 0.23914 0.0
N45 N 0.58047 0.818 0.26671 0.0
C46 C 0.65154 0.84358 0.16254 0.0
H47 H 0.70276 0.84909 0.17059 0.0
H48 H 0.65976 0.89135 0.1462 0.0
H49 H 0.62347 0.79894 0.14079 0.0
C50 C 0.89102 0.97155 0.27426 0.0
N51 N 0.84428 0.90592 0.26338 0.0
N52 N 0.78758 0.90503 0.25061 0.0
C53 C 0.79982 0.97146 0.24875 0.0
C54 C 0.86761 1.01712 0.2629 0.0
C55 C 0.94903 0.98587 0.3026 0.0
H56 H 0.93307 0.94192 0.32485 0.0
H57 H 0.98926 0.98748 0.28202 0.0
H58 H 0.96693 1.03444 0.32076 0.0
O59 O 0.79319 0.78002 0.32558 0.0
O60 O 0.6936 0.77634 0.3087 0.0
H61 H 0.69603 0.95411 0.25512 0.0
H62 H 0.76046 0.04385 0.24756 0.0
C63 C 0.74492 0.98977 0.23845 0.0
H64 H 0.73431 0.98329 0.20431 0.0
H65 H 0.58318 0.81133 0.29887 0.0
O66 O 0.95492 0.85387 0.27906 0.0
C67 C 0.73036 0.7643 0.33419 0.0
Co68 Co 0.26313 0.04358 0.27257 0.0
Co69 Co 0.26927 0.90653 0.25238 0.0
C70 C 0.35676 0.03918 0.20513 0.0
O71 O 0.33464 0.07524 0.22405 0.0
O72 O 0.33345 0.97567 0.21422 0.0
C73 C 0.25706 0.17721 0.26219 0.0
O74 O 0.31315 0.19961 0.23899 0.0
C75 C 0.25397 0.79287 0.201 0.0
C76 C 0.25517 0.71932 0.24731 0.0
C77 C 0.24741 0.72782 0.20503 0.0
N78 N 0.26496 0.82168 0.23912 0.0
N79 N 0.26714 0.77829 0.26668 0.0
C80 C 0.24155 0.82375 0.16252 0.0
H81 H 0.23608 0.86949 0.17057 0.0
H82 H 0.19377 0.78423 0.14618 0.0
H83 H 0.28618 0.84029 0.14076 0.0
C84 C 0.11357 0.9353 0.27425 0.0
N85 N 0.1792 0.95418 0.26337 0.0
N86 N 0.1801 0.89837 0.25059 0.0
C87 C 0.11368 0.84419 0.24873 0.0
C88 C 0.068 0.86632 0.26288 0.0
C89 C 0.09924 0.97897 0.30262 0.0
H90 H 0.14316 1.0069 0.32489 0.0
H91 H 0.09768 1.01764 0.28206 0.0
H92 H 1.05064 0.94831 0.32075 0.0
O93 O 0.30506 1.02895 0.32558 0.0
O94 O 0.30876 0.93304 0.30869 0.0
H95 H 0.13104 0.75776 0.25508 0.0
H96 H 1.0413 0.73246 0.24753 0.0
C97 C 0.09538 0.77099 0.23842 0.0
H98 H 0.10187 0.76686 0.20427 0.0
H99 H 0.27382 0.78768 0.29884 0.0
O100 O 0.23125 0.11685 0.2791 0.0
C101 C 0.32078 0.98184 0.33419 0.0
Co102 Co 0.25318 1.02367 0.77259 0.0
Co103 Co 0.39635 0.16072 0.79277 0.0
C104 C 0.3512 1.02809 0.84002 0.0
O105 O 0.29303 0.99203 0.82111 0.0
O106 O 0.39139 0.0916 0.83093 0.0
C107 C 0.11348 0.89002 0.78294 0.0
O108 O 0.14719 0.86757 0.80609 0.0
C109 C 0.49472 0.27439 0.84413 0.0
C110 C 0.56943 0.34792 0.7978 0.0
C111 C 0.5532 0.33943 0.84008 0.0
N112 N 0.47687 0.24557 0.80601 0.0
N113 N 0.52242 0.28896 0.77843 0.0
C114 C 0.45145 0.24352 0.88263 0.0
H115 H 0.40023 0.19779 0.87459 0.0
H116 H 0.44322 0.28306 0.89898 0.0
H117 H 0.47955 0.22696 0.90437 0.0
C118 C 0.21192 0.13199 0.77086 0.0
N119 N 0.25865 0.11309 0.78177 0.0
N120 N 0.31534 0.16889 0.79456 0.0
C121 C 0.3031 0.22308 0.79641 0.0
C122 C 0.23534 0.20098 0.78221 0.0
C123 C 0.15395 0.08833 0.74249 0.0
H124 H 0.16995 0.06037 0.72024 0.0
H125 H 0.11372 0.04969 0.76304 0.0
H126 H 0.13604 0.119 0.72434 0.0
O127 O 0.30975 0.03829 0.71957 0.0
O128 O 0.40933 0.13419 0.73646 0.0
H129 H 0.40686 0.30953 0.79007 0.0
H130 H 0.34241 0.33481 0.79768 0.0
C131 C 0.35797 0.29627 0.80675 0.0
H132 H 0.3686 0.30035 0.84089 0.0
H133 H 0.51969 0.27956 0.74627 0.0
O134 O 0.14802 0.95042 0.76608 0.0
C135 C 0.37258 0.08539 0.71096 0.0
Co136 Co 0.06143 0.24531 0.77258 0.0
Co137 Co 0.92438 0.25144 0.79278 0.0
C138 C 0.05702 0.33893 0.84002 0.0
O139 O 0.09308 0.31681 0.8211 0.0
O140 O 0.99351 0.31562 0.83093 0.0
C141 C 0.19505 0.23924 0.78295 0.0
O142 O 0.21745 0.29533 0.80616 0.0
C143 C 0.81071 0.23615 0.84415 0.0
C144 C 0.73716 0.23732 0.79784 0.0
C145 C 0.74565 0.22957 0.84011 0.0
N146 N 0.83953 0.24713 0.80604 0.0
N147 N 0.79613 0.24929 0.77846 0.0
C148 C 0.8416 0.22375 0.88264 0.0
H149 H 0.88734 0.21828 0.8746 0.0
H150 H 0.80207 0.17597 0.89898 0.0
H151 H 0.85812 0.26839 0.90439 0.0
C152 C 0.95313 0.09574 0.77087 0.0
N153 N 0.97202 0.16137 0.78177 0.0
N154 N 0.91622 0.16227 0.79457 0.0
C155 C 0.86204 0.09585 0.79643 0.0
C156 C 0.88414 0.05018 0.78223 0.0
C157 C 0.9968 0.08142 0.7425 0.0
H158 H 1.02471 0.12534 0.72023 0.0
H159 H 1.03548 0.07987 0.76304 0.0
H160 H 0.96614 1.03281 0.72437 0.0
O161 O 1.04679 0.28724 0.71957 0.0
O162 O 0.95088 0.29093 0.73646 0.0
H163 H 0.77559 0.11318 0.79009 0.0
H164 H 0.75032 1.02346 0.79768 0.0
C165 C 0.78885 0.07755 0.80677 0.0
H166 H 0.78476 0.08408 0.84091 0.0
H167 H 0.80552 0.25596 0.74631 0.0
O168 O 0.13469 0.21342 0.76605 0.0
C169 C 0.99968 0.30296 0.71096 0.0
Co170 Co 0.8398 0.83192 0.77259 0.0
Co171 Co 0.83369 0.68875 0.79276 0.0
C172 C 0.7462 0.73391 0.84003 0.0
O173 O 0.7683 0.79208 0.82112 0.0
O174 O 0.76952 0.69371 0.83092 0.0
C175 C 0.84589 0.97164 0.78299 0.0
O176 O 0.78983 0.93799 0.80621 0.0
C177 C 0.84899 0.59039 0.84413 0.0
C178 C 0.84778 0.51563 0.79783 0.0
C179 C 0.85554 0.53189 0.8401 0.0
N180 N 0.83801 0.60821 0.80602 0.0
N181 N 0.83583 0.56263 0.77845 0.0
C182 C 0.86141 0.63371 0.88262 0.0
H183 H 0.86692 0.68493 0.87456 0.0
H184 H 0.90919 0.64193 0.89896 0.0
H185 H 0.81678 0.60564 0.90437 0.0
C186 C 0.98937 0.8732 0.7709 0.0
N187 N 0.92374 0.82645 0.78178 0.0
N188 N 0.92286 0.76975 0.79454 0.0
C189 C 0.98928 0.78198 0.7964 0.0
C190 C 1.03495 0.84978 0.78226 0.0
C191 C 1.0037 0.93122 0.74257 0.0
H192 H 0.95976 0.91527 0.72032 0.0
H193 H 1.0053 0.97145 0.76315 0.0
H194 H 1.05228 0.94913 0.72441 0.0
O195 O 0.79785 0.77535 0.71958 0.0
O196 O 0.79418 0.67575 0.73645 0.0
H197 H 0.97194 0.6782 0.79004 0.0
H198 H 0.06167 0.74263 0.79759 0.0
C199 C 1.00759 0.72709 0.8067 0.0
H200 H 1.00112 0.71647 0.84085 0.0
H201 H 0.82915 0.56534 0.74629 0.0
O202 O 0.87168 0.93708 0.76607 0.0
C203 C 0.78213 0.71252 0.71096 0.0
Co204 Co 0.70817 0.56868 0.60591 0.0
Co205 Co 0.84522 0.71185 0.58571 0.0
C206 C 0.71258 0.6667 0.53846 0.0
O207 O 0.67652 0.60854 0.55739 0.0
O208 O 0.7761 0.70689 0.54755 0.0
C209 C 0.57452 0.42899 0.59556 0.0
O210 O 0.55207 0.4627 0.57241 0.0
C211 C 0.95889 0.81022 0.53435 0.0
C212 C 1.03241 0.88493 0.58068 0.0
C213 C 1.02393 0.8687 0.53839 0.0
N214 N 0.93007 0.79237 0.57246 0.0
N215 N 0.97345 0.83792 0.60004 0.0
C216 C 0.92802 0.76695 0.49585 0.0
H217 H 0.88229 0.71573 0.50389 0.0
H218 H 0.96756 0.7587 0.47951 0.0
H219 H 0.91147 0.79505 0.47411 0.0
C220 C 0.81648 0.52742 0.60764 0.0
N221 N 0.79758 0.57415 0.59673 0.0
N222 N 0.85338 0.63083 0.58393 0.0
C223 C 0.90756 0.61859 0.58208 0.0
C224 C 0.88547 0.55083 0.59628 0.0
C225 C 0.77282 0.46945 0.63602 0.0
H226 H 0.74488 0.48546 0.65828 0.0
H227 H 0.73416 0.42922 0.61547 0.0
H228 H 0.80349 0.45153 0.65416 0.0
O229 O 0.72279 0.62526 0.65893 0.0
O230 O 0.81869 0.72485 0.64202 0.0
H231 H 0.99401 0.72236 0.58841 0.0
H232 H 1.01929 0.6579 0.5808 0.0
C233 C 0.98075 0.67346 0.57173 0.0
H234 H 0.98483 0.68408 0.53759 0.0
H235 H 0.96404 0.83519 0.6322 0.0
O236 O 0.63491 0.46352 0.61242 0.0
C237 C 0.76988 0.6881 0.66751 0.0
Co238 Co 0.51642 0.1553 0.6059 0.0
Co239 Co 0.37325 0.1492 0.58572 0.0
C240 C 0.41842 0.06171 0.53846 0.0
O241 O 0.47658 0.0838 0.55737 0.0
O242 O 0.37822 0.08503 0.54755 0.0
C243 C 0.65614 0.16136 0.59553 0.0
O244 O 0.62245 0.10523 0.57236 0.0
C245 C 0.27489 0.1645 0.53435 0.0
C246 C 0.20013 0.16328 0.58067 0.0
C247 C 0.2164 0.17104 0.53839 0.0
N248 N 0.29272 0.15352 0.57247 0.0
N249 N 0.24714 0.15133 0.60004 0.0
C250 C 0.3182 0.17692 0.49587 0.0
H251 H 0.36943 0.18243 0.50392 0.0
H252 H 0.32642 0.22469 0.47953 0.0
H253 H 0.29014 0.13228 0.47412 0.0
C254 C 0.55769 0.30488 0.6076 0.0
N255 N 0.51094 0.23925 0.59672 0.0
N256 N 0.45425 0.23836 0.58395 0.0
C257 C 0.46649 0.30479 0.58209 0.0
C258 C 0.53428 0.35045 0.59624 0.0
C259 C 0.6157 0.3192 0.63595 0.0
H260 H 0.59974 0.27525 0.65819 0.0
H261 H 0.65593 0.32081 0.61537 0.0
H262 H 0.6336 0.36777 0.65411 0.0
O263 O 0.45985 0.11335 0.65892 0.0
O264 O 0.36025 0.10966 0.64202 0.0
H265 H 0.3627 0.28745 0.58844 0.0
H266 H 0.42714 0.37718 0.58089 0.0
C267 C 0.4116 0.3231 0.57178 0.0
H268 H 0.40099 0.31662 0.53764 0.0
H269 H 0.24985 0.14466 0.6322 0.0
O270 O 0.62158 0.1872 0.61241 0.0
C271 C 0.397 0.09759 0.66751 0.0
Co272 Co 0.92981 0.37692 0.60591 0.0
Co273 Co 0.93594 0.23987 0.5857 0.0
C274 C 1.02342 0.37252 0.53847 0.0
O275 O 1.00131 0.40858 0.55739 0.0
O276 O 1.00011 0.309 0.54755 0.0
C277 C 0.92372 0.51055 0.59553 0.0
O278 O 0.9798 0.53293 0.57232 0.0
C279 C 0.92064 0.1262 0.53433 0.0
C280 C 0.92184 0.05266 0.58064 0.0
C281 C 0.91408 0.06115 0.53836 0.0
N282 N 0.93163 0.15502 0.57244 0.0
N283 N 0.93381 0.11163 0.60001 0.0
C284 C 0.90822 0.15708 0.49585 0.0
H285 H 0.90274 0.20282 0.5039 0.0
H286 H 0.86043 0.11755 0.47951 0.0
H287 H 0.95284 0.17361 0.47408 0.0
C288 C 0.78023 0.26864 0.6076 0.0
N289 N 0.84587 0.28752 0.59671 0.0
N290 N 0.84677 0.23171 0.58393 0.0
C291 C 0.78035 0.17753 0.58206 0.0
C292 C 0.73467 0.19966 0.59622 0.0
C293 C 0.76591 0.31231 0.63596 0.0
H294 H 0.80983 0.34024 0.65823 0.0
H295 H 0.76435 0.35098 0.61541 0.0
H296 H 0.71731 0.28164 0.6541 0.0
O297 O 0.97174 0.36228 0.65892 0.0
O298 O 0.97545 0.26638 0.64202 0.0
H299 H 0.79771 0.0911 0.58841 0.0
H300 H 0.70797 0.0658 0.58086 0.0
C301 C 0.76205 0.10433 0.57175 0.0
H302 H 0.76853 0.1002 0.5376 0.0
H303 H 0.94049 0.12102 0.63217 0.0
O304 O 0.89792 0.45019 0.61245 0.0
C305 C 0.98749 0.31519 0.66751 0.0
Co306 Co 0.91985 0.35702 0.10591 0.0
Co307 Co 0.06301 0.49407 0.1261 0.0
C308 C 1.01785 0.36145 0.17337 0.0
O309 O 0.9597 0.32538 0.15444 0.0
O310 O 0.05805 0.42496 0.16428 0.0
C311 C 0.78017 0.22336 0.11625 0.0
O312 O 0.81387 0.20089 0.13938 0.0
C313 C 0.16135 0.60783 0.17743 0.0
C314 C 0.23613 0.68125 0.13107 0.0
C315 C 0.21979 0.67288 0.17334 0.0
N316 N 0.14353 0.57893 0.13933 0.0
N317 N 0.18912 0.62225 0.11174 0.0
C318 C 0.11809 0.577 0.21593 0.0
H319 H 0.06687 0.53126 0.20791 0.0
H320 H 0.10986 0.61656 0.23226 0.0
H321 H 0.14619 0.56047 0.23768 0.0
C322 C 0.87859 0.46534 0.10418 0.0
N323 N 0.92532 0.44644 0.11509 0.0
N324 N 0.982 0.50224 0.12787 0.0
C325 C 0.96976 0.55643 0.12972 0.0
C326 C 0.902 0.53433 0.11552 0.0
C327 C 0.82062 0.42167 0.0758 0.0
H328 H 0.83662 0.39371 0.05355 0.0
H329 H 0.78038 0.38302 0.09636 0.0
H330 H 0.8027 0.45233 0.05765 0.0
O331 O 0.97641 0.37162 0.0529 0.0
O332 O 0.076 0.46752 0.06979 0.0
H333 H 0.07354 0.64287 0.12338 0.0
H334 H 1.00908 0.66816 0.13093 0.0
C335 C 1.02464 0.62963 0.14004 0.0
H336 H 1.03523 0.63375 0.17419 0.0
H337 H 0.18643 0.61277 0.07959 0.0
O338 O 0.8147 0.28377 0.09941 0.0
C339 C 1.03924 0.41872 0.04429 0.0
Co340 Co 0.72807 0.57863 0.10591 0.0
Co341 Co 0.59103 0.58476 0.12611 0.0
C342 C 0.72366 0.67222 0.17336 0.0
O343 O 0.75972 0.65012 0.15443 0.0
O344 O 0.66014 0.64892 0.16428 0.0
C345 C 0.86171 0.57258 0.11626 0.0
O346 O 0.88412 0.62869 0.13945 0.0
C347 C 0.47727 0.56934 0.17745 0.0
C348 C 0.40383 0.57069 0.13111 0.0
C349 C 0.41221 0.56272 0.17337 0.0
N350 N 0.50617 0.58043 0.13935 0.0
N351 N 0.46284 0.58269 0.11177 0.0
C352 C 0.50811 0.55691 0.21595 0.0
H353 H 0.55387 0.55145 0.20792 0.0
H354 H 0.46857 0.50911 0.23227 0.0
H355 H 0.52461 0.60152 0.23771 0.0
C356 C 0.61979 0.42906 0.10419 0.0
N357 N 0.63867 0.49469 0.11509 0.0
N358 N 0.58287 0.49558 0.12788 0.0
C359 C 0.52869 0.42916 0.12974 0.0
C360 C 0.5508 0.38349 0.11554 0.0
C361 C 0.66346 0.41474 0.07582 0.0
H362 H 0.69137 0.45867 0.05355 0.0
H363 H 0.70214 0.4132 0.09636 0.0
H364 H 0.6328 0.36614 0.05769 0.0
O365 O 0.71346 0.62057 0.0529 0.0
O366 O 0.61756 0.62427 0.0698 0.0
H367 H 0.44224 0.44651 0.1234 0.0
H368 H 0.41697 0.35677 0.13094 0.0
C369 C 0.45549 0.41085 0.14006 0.0
H370 H 0.45136 0.41731 0.1742 0.0
H371 H 0.47232 0.58949 0.07962 0.0
O372 O 0.80134 0.54674 0.09937 0.0
C373 C 0.66635 0.63629 0.04429 0.0
Co374 Co 0.50648 0.16526 0.10592 0.0
Co375 Co 0.50038 1.02208 0.12609 0.0
C376 C 0.41291 0.06726 0.17337 0.0
O377 O 0.435 0.12542 0.15445 0.0
O378 O 0.43623 1.02705 0.16427 0.0
C379 C 0.51255 0.30496 0.11629 0.0
O380 O 0.45647 0.2713 0.1395 0.0
C381 C 0.5158 0.92377 0.17743 0.0
C382 C 0.51441 0.84893 0.1311 0.0
C383 C 0.52239 0.8653 0.17336 0.0
N384 N 0.50471 0.94155 0.13933 0.0
N385 N 0.50242 0.89593 0.11175 0.0
C386 C 0.52826 0.96707 0.21592 0.0
H387 H 0.53374 1.01829 0.20788 0.0
H388 H 0.57605 0.9753 0.23224 0.0
H389 H 0.48364 0.939 0.23769 0.0
C390 C 0.65606 0.20654 0.10422 0.0
N391 N 0.59043 0.15978 0.1151 0.0
N392 N 0.58955 0.10308 0.12786 0.0
C393 C 0.65597 0.11532 0.12971 0.0
C394 C 0.70163 0.18312 0.11557 0.0
C395 C 0.67037 0.26456 0.07588 0.0
H396 H 0.62643 0.2486 0.05364 0.0
H397 H 0.67197 0.30478 0.09647 0.0
H398 H 0.71895 0.28247 0.05773 0.0
O399 O 0.46453 0.10869 0.05291 0.0
O400 O 0.46084 1.00909 0.06979 0.0
H401 H 0.63861 1.01152 0.12335 0.0
H402 H 0.72836 0.07596 0.13084 0.0
C403 C 0.6743 0.06043 0.13999 0.0
H404 H 0.66789 0.04984 0.17414 0.0
H405 H 0.49561 0.89859 0.07961 0.0
O406 O 0.53836 0.2704 0.09939 0.0
C407 C 0.4488 0.04586 0.0443 0.0
Co408 Co 0.37485 0.90202 0.93925 0.0
Co409 Co 0.5119 0.04518 0.91904 0.0
C410 C 0.37928 1.00002 0.87179 0.0
O411 O 0.34321 0.94187 0.89072 0.0
O412 O 0.44279 0.04021 0.88087 0.0
C413 C 0.24119 0.76234 0.92892 0.0
O414 O 0.21873 0.79606 0.90579 0.0
C415 C 0.62566 0.14351 0.86772 0.0
C416 C 0.69907 0.21829 0.91407 0.0
C417 C 0.69071 0.20196 0.87181 0.0
N418 N 0.59676 0.1257 0.90581 0.0
N419 N 0.64007 0.17129 0.9334 0.0
C420 C 0.59483 0.10025 0.82921 0.0
H421 H 0.54909 0.04903 0.83724 0.0
H422 H 0.63439 0.09201 0.81289 0.0
H423 H 0.57832 0.12836 0.80746 0.0
C424 C 0.48316 0.86075 0.94099 0.0
N425 N 0.46427 0.90748 0.93007 0.0
N426 N 0.52007 0.96417 0.91728 0.0
C427 C 0.57425 0.95192 0.91543 0.0
C428 C 0.55215 0.88416 0.92964 0.0
C429 C 0.4395 0.80279 0.96937 0.0
H430 H 0.41156 0.8188 0.99163 0.0
H431 H 0.40083 0.76255 0.94882 0.0
H432 H 0.47016 0.78486 0.98751 0.0
O433 O 0.38946 0.95859 0.99227 0.0
O434 O 0.48535 0.05818 0.97535 0.0
H435 H 0.66069 0.0557 0.92176 0.0
H436 H 0.68598 0.99124 0.91422 0.0
C437 C 0.64745 1.00679 0.90511 0.0
H438 H 0.65157 1.01738 0.87096 0.0
H439 H 0.63058 0.1686 0.96555 0.0
O440 O 0.3016 0.79687 0.94576 0.0
C441 C 0.43655 1.02143 1.00085 0.0
Co442 Co 0.18309 0.48865 0.93924 0.0
Co443 Co 1.03992 0.48255 0.91906 0.0
C444 C 0.0851 0.39509 0.87178 0.0
O445 O 0.14325 0.41716 0.89071 0.0
O446 O 1.04489 0.41841 0.88087 0.0
C447 C 0.32279 0.49468 0.92889 0.0
O448 O 0.2891 0.43854 0.90574 0.0
C449 C 0.9416 0.49798 0.86772 0.0
C450 C 0.86677 0.49658 0.91406 0.0
C451 C 0.88314 0.50456 0.8718 0.0
N452 N 0.95939 0.48688 0.90582 0.0
N453 N 0.91377 0.4846 0.9334 0.0
C454 C 0.9849 0.51043 0.82923 0.0
H455 H 1.03612 0.51592 0.83727 0.0
H456 H 0.99312 0.55822 0.81291 0.0
H457 H 0.95683 0.46581 0.80747 0.0
C458 C 0.22436 0.63822 0.94095 0.0
N459 N 0.17761 0.5726 0.93007 0.0
N460 N 0.12091 0.57172 0.9173 0.0
C461 C 0.13316 0.63815 0.91545 0.0
C462 C 0.20095 0.68381 0.9296 0.0
C463 C 0.28236 0.65254 0.9693 0.0
H464 H 0.2664 0.60859 0.99154 0.0
H465 H 0.32259 0.65415 0.94872 0.0
H466 H 0.30027 0.70111 0.98746 0.0
O467 O 0.12652 0.44669 0.99225 0.0
O468 O 1.02691 0.44298 0.97536 0.0
H469 H 1.02936 0.62079 0.9218 0.0
H470 H 0.0938 0.71054 0.91431 0.0
C471 C 0.07827 0.65647 0.90516 0.0
H472 H 0.06769 0.65006 0.87101 0.0
H473 H 0.91644 0.47778 0.96555 0.0
O474 O 0.28824 0.52055 0.94575 0.0
C475 C 0.06367 0.43093 1.00084 0.0
Co476 Co 0.59646 0.71024 0.93925 0.0
Co477 Co 0.60258 0.57319 0.91904 0.0
C478 C 0.69005 0.70582 0.87179 0.0
O479 O 0.66795 0.74189 0.89073 0.0
O480 O 0.66673 0.6423 0.88087 0.0
C481 C 0.5904 0.84387 0.92889 0.0
O482 O 0.64649 0.86627 0.90569 0.0
C483 C 0.58716 0.45943 0.8677 0.0
C484 C 0.58855 0.386 0.91403 0.0
C485 C 0.58056 0.39437 0.87177 0.0
N486 N 0.59826 0.48833 0.9058 0.0
N487 N 0.60055 0.445 0.93338 0.0
C488 C 0.5747 0.49027 0.82921 0.0
H489 H 0.56925 0.53602 0.83724 0.0
H490 H 0.5269 0.45072 0.8129 0.0
H491 H 0.61931 0.50677 0.80743 0.0
C492 C 0.44689 0.60196 0.94094 0.0
N493 N 0.51252 0.62083 0.93006 0.0
N494 N 0.51341 0.56502 0.91728 0.0
C495 C 0.44699 0.51085 0.91542 0.0
C496 C 0.40132 0.53298 0.92958 0.0
C497 C 0.43257 0.64563 0.96931 0.0
H498 H 0.47649 0.67356 0.99158 0.0
H499 H 0.43101 0.68431 0.94876 0.0
H500 H 0.38397 0.61497 0.98745 0.0
O501 O 0.63839 0.69561 0.99226 0.0
O502 O 0.64212 0.59972 0.97535 0.0
H503 H 0.46437 0.42442 0.92176 0.0
H504 H 0.37462 0.39912 0.91427 0.0
C505 C 0.42868 0.43764 0.90512 0.0
H506 H 0.43509 0.43347 0.87097 0.0
H507 H 0.60736 0.45448 0.96552 0.0
O508 O 0.56457 0.7835 0.94579 0.0
C509 C 0.65416 0.64853 1.00085 0.0
Co510 Co 0.58652 0.69035 0.43924 0.0
Co511 Co 0.72967 0.8274 0.45944 0.0
C512 C 0.68451 0.69478 0.5067 0.0
O513 O 0.62637 0.65871 0.48777 0.0
O514 O 0.72471 0.75829 0.49762 0.0
C515 C 0.44683 0.5567 0.44958 0.0
O516 O 0.48054 0.53424 0.47272 0.0
C517 C 0.82801 0.94116 0.51076 0.0
C518 C 0.90279 1.01457 0.46441 0.0
C519 C 0.88646 1.00621 0.50667 0.0
N520 N 0.81019 0.91226 0.47267 0.0
N521 N 0.85578 0.95558 0.44507 0.0
C522 C 0.78475 0.91033 0.54927 0.0
H523 H 0.73354 0.8646 0.54125 0.0
H524 H 0.77652 0.9499 0.56559 0.0
H525 H 0.81286 0.89381 0.57102 0.0
C526 C 0.54526 0.79867 0.4375 0.0
N527 N 0.59199 0.77977 0.44841 0.0
N528 N 0.64867 0.83557 0.4612 0.0
C529 C 0.63643 0.88976 0.46305 0.0
C530 C 0.56867 0.86766 0.44884 0.0
C531 C 0.48729 0.755 0.40913 0.0
H532 H 0.50329 0.72704 0.38688 0.0
H533 H 0.44705 0.71636 0.42968 0.0
H534 H 0.46937 0.78567 0.39098 0.0
O535 O 0.64309 0.70496 0.38622 0.0
O536 O 0.74268 0.80085 0.40314 0.0
H537 H 0.7402 0.9762 0.45672 0.0
H538 H 0.67574 1.00149 0.46427 0.0
C539 C 0.69129 0.96296 0.47338 0.0
H540 H 0.70188 0.96707 0.50752 0.0
H541 H 0.85309 0.94609 0.41293 0.0
O542 O 0.48136 0.6171 0.43273 0.0
C543 C 0.70593 0.75205 0.37764 0.0
Co544 Co 0.39474 0.91197 0.43923 0.0
Co545 Co 0.2577 0.91809 0.45945 0.0
C546 C 0.39033 1.00556 0.5067 0.0
O547 O 0.42639 0.98346 0.48776 0.0
O548 O 0.32681 0.98224 0.49762 0.0
C549 C 0.52838 0.90591 0.44959 0.0
O550 O 0.55078 0.962 0.47279 0.0
C551 C 0.14394 0.90267 0.51079 0.0
C552 C 0.0705 0.90402 0.46444 0.0
C553 C 0.07888 0.89605 0.50671 0.0
N554 N 0.17284 0.91376 0.47269 0.0
N555 N 0.12951 0.91603 0.4451 0.0
C556 C 0.17478 0.89024 0.54929 0.0
H557 H 0.22053 0.88478 0.54126 0.0
H558 H 0.13523 0.84244 0.5656 0.0
H559 H 0.19127 0.93485 0.57105 0.0
C560 C 0.28646 0.76239 0.43752 0.0
N561 N 0.30534 0.82802 0.44842 0.0
N562 N 0.24954 0.82892 0.46121 0.0
C563 C 0.19536 0.7625 0.46306 0.0
C564 C 0.21747 0.71683 0.44886 0.0
C565 C 0.33013 0.74808 0.40914 0.0
H566 H 0.35804 0.79201 0.38687 0.0
H567 H 0.36881 0.74654 0.42968 0.0
H568 H 0.29947 0.69948 0.39101 0.0
O569 O 0.38012 0.95391 0.38622 0.0
O570 O 0.28422 0.95762 0.40314 0.0
H571 H 0.10891 0.77984 0.45674 0.0
H572 H 0.08364 0.69011 0.46427 0.0
C573 C 0.12216 0.74418 0.47339 0.0
H574 H 0.11804 0.75064 0.50754 0.0
H575 H 0.13899 0.92283 0.41296 0.0
O576 O 0.46801 0.88008 0.43269 0.0
C577 C 0.33303 0.96966 0.37764 0.0
Co578 Co 0.17314 0.49859 0.43925 0.0
Co579 Co 0.16704 0.35542 0.45943 0.0
C580 C 0.07958 0.4006 0.50671 0.0
O581 O 0.10166 0.45875 0.48777 0.0
O582 O 0.1029 0.3604 0.49761 0.0
C583 C 0.17922 0.6383 0.44962 0.0
O584 O 0.12315 0.60463 0.47284 0.0
C585 C 0.18247 0.2571 0.51077 0.0
C586 C 0.18107 0.18226 0.46443 0.0
C587 C 0.18906 0.19863 0.50669 0.0
N588 N 0.17138 0.27489 0.47267 0.0
N589 N 0.16909 0.22927 0.44509 0.0
C590 C 0.19493 0.3004 0.54926 0.0
H591 H 0.20041 0.35162 0.54122 0.0
H592 H 0.24272 0.30863 0.56557 0.0
H593 H 0.15032 0.27233 0.57103 0.0
C594 C 0.32272 0.53987 0.43754 0.0
N595 N 0.25709 0.49312 0.44842 0.0
N596 N 0.25621 0.43642 0.46119 0.0
C597 C 0.32264 0.44866 0.46304 0.0
C598 C 0.3683 0.51646 0.44889 0.0
C599 C 0.33704 0.59789 0.40921 0.0
H600 H 0.29309 0.58193 0.38696 0.0
H601 H 0.33864 0.63811 0.42979 0.0
H602 H 0.38561 0.6158 0.39105 0.0
O603 O 0.13119 0.44201 0.38623 0.0
O604 O 0.12748 0.3424 0.40313 0.0
H605 H 0.30527 0.34486 0.45669 0.0
H606 H 0.39502 0.4093 0.46417 0.0
C607 C 0.34096 0.39377 0.47333 0.0
H608 H 0.33456 0.38319 0.50748 0.0
H609 H 0.16227 0.23193 0.41294 0.0
O610 O 0.20503 0.60374 0.43271 0.0
C611 C 0.11543 0.37917 0.37764 0.0
loop_
_geom_bond_atom_site_label_1
_geom_bond_atom_site_label_2
_geom_bond_distance
_geom_bond_site_symmetry_2
_ccdc_geom_bond_type
Co0 O3 1.970 . S
Co0 N17 1.989 1_655 S
Co0 O25 1.967 1_655 S
Co0 O32 1.920 . S
Co1 O4 1.966 . S
Co1 N10 2.022 . S
Co1 N18 1.993 . S
Co1 O26 1.941 . S
C2 O3 1.258 1_455 S
C2 O4 1.263 . S
O3 Co0 1.970 . S
O3 C2 1.258 1_655 S
O4 Co1 1.966 . S
O4 C2 1.263 . S
C5 O6 1.235 . S
C5 O32 1.289 . S
O6 C5 1.235 . S
C7 C9 1.400 . S
C7 N10 1.351 . S
C7 C12 1.501 . S
C8 C9 1.387 . S
C8 N11 1.341 . S
C9 C7 1.400 . S
C9 C8 1.387 . S
N10 Co1 2.022 . S
N10 C7 1.351 . S
N10 N11 1.365 . S
N11 C8 1.341 . S
N11 N10 1.365 . S
N11 H31 0.862 . S
C12 C7 1.501 . S
C12 H13 0.961 . S
C12 H14 0.961 . S
C12 H15 0.960 . S
H13 C12 0.961 . S
H14 C12 0.961 . S
H15 C12 0.960 . S
C16 N17 1.342 . S
C16 C20 1.401 . S
C16 C21 1.499 1_455 S
N17 Co0 1.989 1_455 S
N17 C16 1.342 . S
N17 N18 1.388 . S
N18 Co1 1.993 . S
N18 N17 1.388 . S
N18 C19 1.346 . S
C19 N18 1.346 . S
C19 C20 1.396 . S
C19 C29 1.510 . S
C20 C16 1.401 . S
C20 C19 1.396 . S
C21 C16 1.499 1_655 S
C21 H22 0.959 . S
C21 H23 0.960 . S
C21 H24 0.961 1_655 S
H22 C21 0.959 . S
H23 C21 0.960 . S
H24 C21 0.961 1_455 S
O25 Co0 1.967 1_455 S
O25 C33 1.258 . S
O26 Co1 1.941 . S
O26 C33 1.266 . S
H27 C29 0.959 . S
H28 C29 0.961 . S
C29 C19 1.510 . S
C29 H27 0.959 . S
C29 H28 0.961 . S
C29 H30 0.960 . S
H30 C29 0.960 . S
H31 N11 0.862 . S
O32 Co0 1.920 . S
O32 C5 1.289 . S
C33 O25 1.258 . S
C33 O26 1.266 . S
Co34 O37 1.970 . S
Co34 N51 1.989 . S
Co34 O59 1.967 . S
Co34 O66 1.920 . S
Co35 O38 1.966 . S
Co35 N44 2.022 . S
Co35 N52 1.993 . S
Co35 O60 1.941 . S
C36 O37 1.258 . S
C36 O38 1.263 . S
O37 Co34 1.970 . S
O37 C36 1.258 . S
O38 Co35 1.966 . S
O38 C36 1.263 . S
C39 O40 1.235 . S
C39 O66 1.289 . S
O40 C39 1.235 . S
C41 C43 1.400 . S
C41 N44 1.351 . S
C41 C46 1.501 . S
C42 C43 1.387 . S
C42 N45 1.341 . S
C43 C41 1.400 . S
C43 C42 1.387 . S
N44 Co35 2.022 . S
N44 C41 1.351 . S
N44 N45 1.365 . S
N45 C42 1.341 . S
N45 N44 1.365 . S
N45 H65 0.862 . S
C46 C41 1.501 . S
C46 H47 0.961 . S
C46 H48 0.961 . S
C46 H49 0.960 . S
H47 C46 0.961 . S
H48 C46 0.961 . S
H49 C46 0.960 . S
C50 N51 1.342 . S
C50 C54 1.401 . S
C50 C55 1.499 . S
N51 Co34 1.989 . S
N51 C50 1.342 . S
N51 N52 1.388 . S
N52 Co35 1.993 . S
N52 N51 1.388 . S
N52 C53 1.346 . S
C53 N52 1.346 . S
C53 C54 1.396 . S
C53 C63 1.510 . S
C54 C50 1.401 . S
C54 C53 1.396 . S
C55 C50 1.499 . S
C55 H56 0.959 . S
C55 H57 0.960 . S
C55 H58 0.961 . S
H56 C55 0.959 . S
H57 C55 0.960 . S
H58 C55 0.961 . S
O59 Co34 1.967 . S
O59 C67 1.258 . S
O60 Co35 1.941 . S
O60 C67 1.266 . S
H61 C63 0.959 1_545 S
H62 C63 0.961 1_545 S
C63 C53 1.510 . S
C63 H61 0.959 1_565 S
C63 H62 0.961 1_565 S
C63 H64 0.960 . S
H64 C63 0.960 . S
H65 N45 0.862 . S
O66 Co34 1.920 . S
O66 C39 1.289 . S
C67 O59 1.258 . S
C67 O60 1.266 . S
Co68 O71 1.970 . S
Co68 N85 1.989 1_545 S
Co68 O93 1.967 1_545 S
Co68 O100 1.920 . S
Co69 O72 1.966 . S
Co69 N78 2.022 . S
Co69 N86 1.993 . S
Co69 O94 1.941 . S
C70 O71 1.258 1_565 S
C70 O72 1.263 . S
O71 Co68 1.970 . S
O71 C70 1.258 1_545 S
O72 Co69 1.966 . S
O72 C70 1.263 . S
C73 O74 1.235 . S
C73 O100 1.289 . S
O74 C73 1.235 . S
C75 C77 1.400 . S
C75 N78 1.351 . S
C75 C80 1.501 . S
C76 C77 1.387 . S
C76 N79 1.341 . S
C77 C75 1.400 . S
C77 C76 1.387 . S
N78 Co69 2.022 . S
N78 C75 1.351 . S
N78 N79 1.365 . S
N79 C76 1.341 . S
N79 N78 1.365 . S
N79 H99 0.862 . S
C80 C75 1.501 . S
C80 H81 0.961 . S
C80 H82 0.961 . S
C80 H83 0.960 . S
H81 C80 0.961 . S
H82 C80 0.961 . S
H83 C80 0.960 . S
C84 N85 1.342 . S
C84 C88 1.401 . S
C84 C89 1.499 . S
N85 Co68 1.989 1_565 S
N85 C84 1.342 . S
N85 N86 1.388 . S
N86 Co69 1.993 . S
N86 N85 1.388 . S
N86 C87 1.346 . S
C87 N86 1.346 . S
C87 C88 1.396 . S
C87 C97 1.510 . S
C88 C84 1.401 . S
C88 C87 1.396 . S
C89 C84 1.499 . S
C89 H90 0.959 1_565 S
C89 H91 0.960 1_565 S
C89 H92 0.961 . S
H90 C89 0.959 1_545 S
H91 C89 0.960 1_545 S
H92 C89 0.961 . S
O93 Co68 1.967 1_565 S
O93 C101 1.258 . S
O94 Co69 1.941 . S
O94 C101 1.266 . S
H95 C97 0.959 1_655 S
H96 C97 0.961 1_655 S
C97 C87 1.510 . S
C97 H95 0.959 1_455 S
C97 H96 0.961 1_455 S
C97 H98 0.960 . S
H98 C97 0.960 . S
H99 N79 0.862 . S
O100 Co68 1.920 . S
O100 C73 1.289 . S
C101 O93 1.258 . S
C101 O94 1.266 . S
Co102 O105 1.970 . S
Co102 N119 1.989 1_565 S
Co102 O127 1.967 1_565 S
Co102 O134 1.920 . S
Co103 O106 1.966 . S
Co103 N112 2.022 . S
Co103 N120 1.993 . S
Co103 O128 1.941 . S
C104 O105 1.258 1_545 S
C104 O106 1.263 . S
O105 Co102 1.970 . S
O105 C104 1.258 1_565 S
O106 Co103 1.966 . S
O106 C104 1.263 . S
C107 O108 1.235 . S
C107 O134 1.289 . S
O108 C107 1.235 . S
C109 C111 1.400 . S
C109 N112 1.351 . S
C109 C114 1.501 . S
C110 C111 1.387 . S
C110 N113 1.341 . S
C111 C109 1.400 . S
C111 C110 1.387 . S
N112 Co103 2.022 . S
N112 C109 1.351 . S
N112 N113 1.365 . S
N113 C110 1.341 . S
N113 N112 1.365 . S
N113 H133 0.862 . S
C114 C109 1.501 . S
C114 H115 0.961 . S
C114 H116 0.961 . S
C114 H117 0.960 . S
H115 C114 0.961 . S
H116 C114 0.961 . S
H117 C114 0.960 . S
C118 N119 1.342 . S
C118 C122 1.401 . S
C118 C123 1.499 1_545 S
N119 Co102 1.989 1_545 S
N119 C118 1.342 . S
N119 N120 1.388 . S
N120 Co103 1.993 . S
N120 N119 1.388 . S
N120 C121 1.346 . S
C121 N120 1.346 . S
C121 C122 1.396 . S
C121 C131 1.510 . S
C122 C118 1.401 . S
C122 C121 1.396 . S
C123 C118 1.499 1_565 S
C123 H124 0.959 . S
C123 H125 0.960 . S
C123 H126 0.961 1_565 S
H124 C123 0.959 . S
H125 C123 0.960 . S
H126 C123 0.961 1_545 S
O127 Co102 1.967 1_545 S
O127 C135 1.258 . S
O128 Co103 1.941 . S
O128 C135 1.266 . S
H129 C131 0.959 . S
H130 C131 0.961 . S
C131 C121 1.510 . S
C131 H129 0.959 . S
C131 H130 0.961 . S
C131 H132 0.960 . S
H132 C131 0.960 . S
H133 N113 0.862 . S
O134 Co102 1.920 . S
O134 C107 1.289 . S
C135 O127 1.258 . S
C135 O128 1.266 . S
Co136 O139 1.970 . S
Co136 N153 1.989 1_455 S
Co136 O161 1.967 1_455 S
Co136 O168 1.920 . S
Co137 O140 1.966 . S
Co137 N146 2.022 . S
Co137 N154 1.993 . S
Co137 O162 1.941 . S
C138 O139 1.258 1_655 S
C138 O140 1.263 . S
O139 Co136 1.970 . S
O139 C138 1.258 1_455 S
O140 Co137 1.966 . S
O140 C138 1.263 . S
C141 O142 1.235 . S
C141 O168 1.289 . S
O142 C141 1.235 . S
C143 C145 1.400 . S
C143 N146 1.351 . S
C143 C148 1.501 . S
C144 C145 1.387 . S
C144 N147 1.341 . S
C145 C143 1.400 . S
C145 C144 1.387 . S
N146 Co137 2.022 . S
N146 C143 1.351 . S
N146 N147 1.365 . S
N147 C144 1.341 . S
N147 N146 1.365 . S
N147 H167 0.862 . S
C148 C143 1.501 . S
C148 H149 0.961 . S
C148 H150 0.961 . S
C148 H151 0.960 . S
H149 C148 0.961 . S
H150 C148 0.961 . S
H151 C148 0.960 . S
C152 N153 1.342 . S
C152 C156 1.401 . S
C152 C157 1.499 . S
N153 Co136 1.989 1_655 S
N153 C152 1.342 . S
N153 N154 1.388 . S
N154 Co137 1.993 . S
N154 N153 1.388 . S
N154 C155 1.346 . S
C155 N154 1.346 . S
C155 C156 1.396 . S
C155 C165 1.510 . S
C156 C152 1.401 . S
C156 C155 1.396 . S
C157 C152 1.499 . S
C157 H158 0.959 1_655 S
C157 H159 0.960 1_655 S
C157 H160 0.961 . S
H158 C157 0.959 1_455 S
H159 C157 0.960 1_455 S
H160 C157 0.961 . S
O161 Co136 1.967 1_655 S
O161 C169 1.258 . S
O162 Co137 1.941 . S
O162 C169 1.266 . S
H163 C165 0.959 1_565 S
H164 C165 0.961 1_565 S
C165 C155 1.510 . S
C165 H163 0.959 1_545 S
C165 H164 0.961 1_545 S
C165 H166 0.960 . S
H166 C165 0.960 . S
H167 N147 0.862 . S
O168 Co136 1.920 . S
O168 C141 1.289 . S
C169 O161 1.258 . S
C169 O162 1.266 . S
Co170 O173 1.970 . S
Co170 N187 1.989 . S
Co170 O195 1.967 . S
Co170 O202 1.920 . S
Co171 O174 1.966 . S
Co171 N180 2.022 . S
Co171 N188 1.993 . S
Co171 O196 1.941 . S
C172 O173 1.258 . S
C172 O174 1.263 . S
O173 Co170 1.970 . S
O173 C172 1.258 . S
O174 Co171 1.966 . S
O174 C172 1.263 . S
C175 O176 1.235 . S
C175 O202 1.289 . S
O176 C175 1.235 . S
C177 C179 1.400 . S
C177 N180 1.351 . S
C177 C182 1.501 . S
C178 C179 1.387 . S
C178 N181 1.341 . S
C179 C177 1.400 . S
C179 C178 1.387 . S
N180 Co171 2.022 . S
N180 C177 1.351 . S
N180 N181 1.365 . S
N181 C178 1.341 . S
N181 N180 1.365 . S
N181 H201 0.862 . S
C182 C177 1.501 . S
C182 H183 0.961 . S
C182 H184 0.961 . S
C182 H185 0.960 . S
H183 C182 0.961 . S
H184 C182 0.961 . S
H185 C182 0.960 . S
C186 N187 1.342 . S
C186 C190 1.401 . S
C186 C191 1.499 . S
N187 Co170 1.989 . S
N187 C186 1.342 . S
N187 N188 1.388 . S
N188 Co171 1.993 . S
N188 N187 1.388 . S
N188 C189 1.346 . S
C189 N188 1.346 . S
C189 C190 1.396 . S
C189 C199 1.510 . S
C190 C186 1.401 . S
C190 C189 1.396 . S
C191 C186 1.499 . S
C191 H192 0.959 . S
C191 H193 0.960 . S
C191 H194 0.961 . S
H192 C191 0.959 . S
H193 C191 0.960 . S
H194 C191 0.961 . S
O195 Co170 1.967 . S
O195 C203 1.258 . S
O196 Co171 1.941 . S
O196 C203 1.266 . S
H197 C199 0.959 1_455 S
H198 C199 0.961 1_455 S
C199 C189 1.510 . S
C199 H197 0.959 1_655 S
C199 H198 0.961 1_655 S
C199 H200 0.960 . S
H200 C199 0.960 . S
H201 N181 0.862 . S
O202 Co170 1.920 . S
O202 C175 1.289 . S
C203 O195 1.258 . S
C203 O196 1.266 . S
Co204 O207 1.970 . S
Co204 N221 1.989 . S
Co204 O229 1.967 . S
Co204 O236 1.920 . S
Co205 O208 1.966 . S
Co205 N214 2.022 . S
Co205 N222 1.993 . S
Co205 O230 1.941 . S
C206 O207 1.258 . S
C206 O208 1.263 . S
O207 Co204 1.970 . S
O207 C206 1.258 . S
O208 Co205 1.966 . S
O208 C206 1.263 . S
C209 O210 1.235 . S
C209 O236 1.289 . S
O210 C209 1.235 . S
C211 C213 1.400 . S
C211 N214 1.351 . S
C211 C216 1.501 . S
C212 C213 1.394 . S
C212 N215 1.352 . S
C213 C211 1.400 . S
C213 C212 1.394 . S
N214 Co205 2.022 . S
N214 C211 1.351 . S
N214 N215 1.365 . S
N215 C212 1.352 . S
N215 N214 1.365 . S
N215 H235 0.862 . S
C216 C211 1.501 . S
C216 H217 0.961 . S
C216 H218 0.961 . S
C216 H219 0.960 . S
H217 C216 0.961 . S
H218 C216 0.961 . S
H219 C216 0.960 . S
C220 N221 1.342 . S
C220 C224 1.401 . S
C220 C225 1.499 . S
N221 Co204 1.989 . S
N221 C220 1.342 . S
N221 N222 1.388 . S
N222 Co205 1.993 . S
N222 N221 1.388 . S
N222 C223 1.346 . S
C223 N222 1.346 . S
C223 C224 1.396 . S
C223 C233 1.510 . S
C224 C220 1.401 . S
C224 C223 1.396 . S
C225 C220 1.499 . S
C225 H226 0.959 . S
C225 H227 0.960 . S
C225 H228 0.961 . S
H226 C225 0.959 . S
H227 C225 0.960 . S
H228 C225 0.961 . S
O229 Co204 1.967 . S
O229 C237 1.258 . S
O230 Co205 1.941 . S
O230 C237 1.266 . S
H231 C233 0.959 . S
H232 C233 0.961 . S
C233 C223 1.510 . S
C233 H231 0.959 . S
C233 H232 0.961 . S
C233 H234 0.960 . S
H234 C233 0.960 . S
H235 N215 0.862 . S
O236 Co204 1.920 . S
O236 C209 1.289 . S
C237 O229 1.258 . S
C237 O230 1.266 . S
Co238 O241 1.970 . S
Co238 N255 1.989 . S
Co238 O263 1.967 . S
Co238 O270 1.920 . S
Co239 O242 1.966 . S
Co239 N248 2.022 . S
Co239 N256 1.993 . S
Co239 O264 1.941 . S
C240 O241 1.258 . S
C240 O242 1.263 . S
O241 Co238 1.970 . S
O241 C240 1.258 . S
O242 Co239 1.966 . S
O242 C240 1.263 . S
C243 O244 1.235 . S
C243 O270 1.289 . S
O244 C243 1.235 . S
C245 C247 1.400 . S
C245 N248 1.351 . S
C245 C250 1.501 . S
C246 C247 1.387 . S
C246 N249 1.341 . S
C247 C245 1.400 . S
C247 C246 1.387 . S
N248 Co239 2.022 . S
N248 C245 1.351 . S
N248 N249 1.365 . S
N249 C246 1.341 . S
N249 N248 1.365 . S
N249 H269 0.862 . S
C250 C245 1.501 . S
C250 H251 0.961 . S
C250 H252 0.961 . S
C250 H253 0.960 . S
H251 C250 0.961 . S
H252 C250 0.961 . S
H253 C250 0.960 . S
C254 N255 1.342 . S
C254 C258 1.401 . S
C254 C259 1.499 . S
N255 Co238 1.989 . S
N255 C254 1.342 . S
N255 N256 1.388 . S
N256 Co239 1.993 . S
N256 N255 1.388 . S
N256 C257 1.346 . S
C257 N256 1.346 . S
C257 C258 1.396 . S
C257 C267 1.510 . S
C258 C254 1.401 . S
C258 C257 1.396 . S
C259 C254 1.499 . S
C259 H260 0.959 . S
C259 H261 0.960 . S
C259 H262 0.961 . S
H260 C259 0.959 . S
H261 C259 0.960 . S
H262 C259 0.961 . S
O263 Co238 1.967 . S
O263 C271 1.258 . S
O264 Co239 1.941 . S
O264 C271 1.266 . S
H265 C267 0.959 . S
H266 C267 0.961 . S
C267 C257 1.510 . S
C267 H265 0.959 . S
C267 H266 0.961 . S
C267 H268 0.960 . S
H268 C267 0.960 . S
H269 N249 0.862 . S
O270 Co238 1.920 . S
O270 C243 1.289 . S
C271 O263 1.258 . S
C271 O264 1.266 . S
Co272 O275 1.970 . S
Co272 N289 1.989 . S
Co272 O297 1.967 . S
Co272 O304 1.920 . S
Co273 O276 1.966 . S
Co273 N282 2.022 . S
Co273 N290 1.993 . S
Co273 O298 1.941 . S
C274 O275 1.258 . S
C274 O276 1.263 . S
O275 Co272 1.970 . S
O275 C274 1.258 . S
O276 Co273 1.966 . S
O276 C274 1.263 . S
C277 O278 1.235 . S
C277 O304 1.289 . S
O278 C277 1.235 . S
C279 C281 1.400 . S
C279 N282 1.351 . S
C279 C284 1.501 . S
C280 C281 1.387 1_565 S
C280 N283 1.341 1_565 S
C281 C279 1.400 . S
C281 C280 1.387 1_545 S
N282 Co273 2.022 . S
N282 C279 1.351 . S
N282 N283 1.365 . S
N283 C280 1.341 1_545 S
N283 N282 1.365 . S
N283 H303 0.862 . S
C284 C279 1.501 . S
C284 H285 0.961 . S
C284 H286 0.961 . S
C284 H287 0.960 . S
H285 C284 0.961 . S
H286 C284 0.961 . S
H287 C284 0.960 . S
C288 N289 1.342 . S
C288 C292 1.401 . S
C288 C293 1.499 . S
N289 Co272 1.989 . S
N289 C288 1.342 . S
N289 N290 1.388 . S
N290 Co273 1.993 . S
N290 N289 1.388 . S
N290 C291 1.346 . S
C291 N290 1.346 . S
C291 C292 1.396 . S
C291 C301 1.510 . S
C292 C288 1.401 . S
C292 C291 1.396 . S
C293 C288 1.499 . S
C293 H294 0.959 . S
C293 H295 0.960 . S
C293 H296 0.961 . S
H294 C293 0.959 . S
H295 C293 0.960 . S
H296 C293 0.961 . S
O297 Co272 1.967 . S
O297 C305 1.258 . S
O298 Co273 1.941 . S
O298 C305 1.266 . S
H299 C301 0.959 . S
H300 C301 0.961 . S
C301 C291 1.510 . S
C301 H299 0.959 . S
C301 H300 0.961 . S
C301 H302 0.960 . S
H302 C301 0.960 . S
H303 N283 0.862 . S
O304 Co272 1.920 . S
O304 C277 1.289 . S
C305 O297 1.258 . S
C305 O298 1.266 . S
Co306 O309 1.970 . S
Co306 N323 1.989 . S
Co306 O331 1.967 . S
Co306 O338 1.920 . S
Co307 O310 1.966 1_655 S
Co307 N316 2.022 1_655 S
Co307 N324 1.993 . S
Co307 O332 1.941 1_655 S
C308 O309 1.258 . S
C308 O310 1.263 1_655 S
O309 Co306 1.970 . S
O309 C308 1.258 . S
O310 Co307 1.966 1_455 S
O310 C308 1.263 1_455 S
C311 O312 1.235 . S
C311 O338 1.289 . S
O312 C311 1.235 . S
C313 C315 1.400 . S
C313 N316 1.351 . S
C313 C318 1.501 . S
C314 C315 1.387 . S
C314 N317 1.341 . S
C315 C313 1.400 . S
C315 C314 1.387 . S
N316 Co307 2.022 1_455 S
N316 C313 1.351 . S
N316 N317 1.365 . S
N317 C314 1.341 . S
N317 N316 1.365 . S
N317 H337 0.862 . S
C318 C313 1.501 . S
C318 H319 0.961 . S
C318 H320 0.961 . S
C318 H321 0.960 . S
H319 C318 0.961 . S
H320 C318 0.961 . S
H321 C318 0.960 . S
C322 N323 1.342 . S
C322 C326 1.401 . S
C322 C327 1.499 . S
N323 Co306 1.989 . S
N323 C322 1.342 . S
N323 N324 1.388 . S
N324 Co307 1.993 . S
N324 N323 1.388 . S
N324 C325 1.346 . S
C325 N324 1.346 . S
C325 C326 1.396 . S
C325 C335 1.510 . S
C326 C322 1.401 . S
C326 C325 1.396 . S
C327 C322 1.499 . S
C327 H328 0.959 . S
C327 H329 0.960 . S
C327 H330 0.961 . S
H328 C327 0.959 . S
H329 C327 0.960 . S
H330 C327 0.961 . S
O331 Co306 1.967 . S
O331 C339 1.258 . S
O332 Co307 1.941 1_455 S
O332 C339 1.266 1_455 S
H333 C335 0.959 . S
H334 C335 0.961 . S
C335 C325 1.510 . S
C335 H333 0.959 . S
C335 H334 0.961 . S
C335 H336 0.960 . S
H336 C335 0.960 . S
H337 N317 0.862 . S
O338 Co306 1.920 . S
O338 C311 1.289 . S
C339 O331 1.258 . S
C339 O332 1.266 1_655 S
Co340 O343 1.970 . S
Co340 N357 1.989 . S
Co340 O365 1.967 . S
Co340 O372 1.920 . S
Co341 O344 1.966 . S
Co341 N350 2.022 . S
Co341 N358 1.993 . S
Co341 O366 1.941 . S
C342 O343 1.258 . S
C342 O344 1.263 . S
O343 Co340 1.970 . S
O343 C342 1.258 . S
O344 Co341 1.966 . S
O344 C342 1.263 . S
C345 O346 1.235 . S
C345 O372 1.289 . S
O346 C345 1.235 . S
C347 C349 1.400 . S
C347 N350 1.351 . S
C347 C352 1.501 . S
C348 C349 1.387 . S
C348 N351 1.341 . S
C349 C347 1.400 . S
C349 C348 1.387 . S
N350 Co341 2.022 . S
N350 C347 1.351 . S
N350 N351 1.365 . S
N351 C348 1.341 . S
N351 N350 1.365 . S
N351 H371 0.862 . S
C352 C347 1.501 . S
C352 H353 0.961 . S
C352 H354 0.961 . S
C352 H355 0.960 . S
H353 C352 0.961 . S
H354 C352 0.961 . S
H355 C352 0.960 . S
C356 N357 1.342 . S
C356 C360 1.401 . S
C356 C361 1.499 . S
N357 Co340 1.989 . S
N357 C356 1.342 . S
N357 N358 1.388 . S
N358 Co341 1.993 . S
N358 N357 1.388 . S
N358 C359 1.346 . S
C359 N358 1.346 . S
C359 C360 1.396 . S
C359 C369 1.510 . S
C360 C356 1.401 . S
C360 C359 1.396 . S
C361 C356 1.499 . S
C361 H362 0.959 . S
C361 H363 0.960 . S
C361 H364 0.961 . S
H362 C361 0.959 . S
H363 C361 0.960 . S
H364 C361 0.961 . S
O365 Co340 1.967 . S
O365 C373 1.258 . S
O366 Co341 1.941 . S
O366 C373 1.266 . S
H367 C369 0.959 . S
H368 C369 0.961 . S
C369 C359 1.510 . S
C369 H367 0.959 . S
C369 H368 0.961 . S
C369 H370 0.960 . S
H370 C369 0.960 . S
H371 N351 0.862 . S
O372 Co340 1.920 . S
O372 C345 1.289 . S
C373 O365 1.258 . S
C373 O366 1.266 . S
Co374 O377 1.970 . S
Co374 N391 1.989 . S
Co374 O399 1.967 . S
Co374 O406 1.920 . S
Co375 O378 1.966 1_545 S
Co375 N384 2.022 1_545 S
Co375 N392 1.993 . S
Co375 O400 1.941 1_545 S
C376 O377 1.258 . S
C376 O378 1.263 1_545 S
O377 Co374 1.970 . S
O377 C376 1.258 . S
O378 Co375 1.966 1_565 S
O378 C376 1.263 1_565 S
C379 O380 1.235 . S
C379 O406 1.289 . S
O380 C379 1.235 . S
C381 C383 1.400 . S
C381 N384 1.351 . S
C381 C386 1.501 . S
C382 C383 1.387 . S
C382 N385 1.341 . S
C383 C381 1.400 . S
C383 C382 1.387 . S
N384 Co375 2.022 1_565 S
N384 C381 1.351 . S
N384 N385 1.365 . S
N385 C382 1.341 . S
N385 N384 1.365 . S
N385 H405 0.862 . S
C386 C381 1.501 . S
C386 H387 0.961 . S
C386 H388 0.961 . S
C386 H389 0.960 . S
H387 C386 0.961 . S
H388 C386 0.961 . S
H389 C386 0.960 . S
C390 N391 1.342 . S
C390 C394 1.401 . S
C390 C395 1.499 . S
N391 Co374 1.989 . S
N391 C390 1.342 . S
N391 N392 1.388 . S
N392 Co375 1.993 . S
N392 N391 1.388 . S
N392 C393 1.346 . S
C393 N392 1.346 . S
C393 C394 1.396 . S
C393 C403 1.510 . S
C394 C390 1.401 . S
C394 C393 1.396 . S
C395 C390 1.499 . S
C395 H396 0.959 . S
C395 H397 0.960 . S
C395 H398 0.961 . S
H396 C395 0.959 . S
H397 C395 0.960 . S
H398 C395 0.961 . S
O399 Co374 1.967 . S
O399 C407 1.258 . S
O400 Co375 1.941 1_565 S
O400 C407 1.266 1_565 S
H401 C403 0.959 . S
H402 C403 0.961 . S
C403 C393 1.510 . S
C403 H401 0.959 . S
C403 H402 0.961 . S
C403 H404 0.960 . S
H404 C403 0.960 . S
H405 N385 0.862 . S
O406 Co374 1.920 . S
O406 C379 1.289 . S
C407 O399 1.258 . S
C407 O400 1.266 1_545 S
Co408 O411 1.970 . S
Co408 N425 1.989 . S
Co408 O433 1.967 . S
Co408 O440 1.920 . S
Co409 O412 1.966 1_565 S
Co409 N418 2.022 1_565 S
Co409 N426 1.993 . S
Co409 O434 1.941 1_565 S
C410 O411 1.258 . S
C410 O412 1.263 1_565 S
O411 Co408 1.970 . S
O411 C410 1.258 . S
O412 Co409 1.966 1_545 S
O412 C410 1.263 1_545 S
C413 O414 1.235 . S
C413 O440 1.289 . S
O414 C413 1.235 . S
C415 C417 1.400 . S
C415 N418 1.351 . S
C415 C420 1.501 . S
C416 C417 1.387 . S
C416 N419 1.341 . S
C417 C415 1.400 . S
C417 C416 1.387 . S
N418 Co409 2.022 1_545 S
N418 C415 1.351 . S
N418 N419 1.365 . S
N419 C416 1.341 . S
N419 N418 1.365 . S
N419 H439 0.862 . S
C420 C415 1.501 . S
C420 H421 0.961 . S
C420 H422 0.961 . S
C420 H423 0.960 . S
H421 C420 0.961 . S
H422 C420 0.961 . S
H423 C420 0.960 . S
C424 N425 1.342 . S
C424 C428 1.401 . S
C424 C429 1.499 . S
N425 Co408 1.989 . S
N425 C424 1.342 . S
N425 N426 1.388 . S
N426 Co409 1.993 . S
N426 N425 1.388 . S
N426 C427 1.346 . S
C427 N426 1.346 . S
C427 C428 1.396 . S
C427 C437 1.510 . S
C428 C424 1.401 . S
C428 C427 1.396 . S
C429 C424 1.499 . S
C429 H430 0.959 . S
C429 H431 0.960 . S
C429 H432 0.961 . S
H430 C429 0.959 . S
H431 C429 0.960 . S
H432 C429 0.961 . S
O433 Co408 1.967 . S
O433 C441 1.258 . S
O434 Co409 1.941 1_545 S
O434 C441 1.266 1_545 S
H435 C437 0.959 . S
H436 C437 0.961 . S
C437 C427 1.510 . S
C437 H435 0.959 . S
C437 H436 0.961 . S
C437 H438 0.960 . S
H438 C437 0.960 . S
H439 N419 0.862 . S
O440 Co408 1.920 . S
O440 C413 1.289 . S
C441 O433 1.258 . S
C441 O434 1.266 1_565 S
Co442 O445 1.970 . S
Co442 N459 1.989 . S
Co442 O467 1.967 . S
Co442 O474 1.920 . S
Co443 O446 1.966 1_455 S
Co443 N452 2.022 1_455 S
Co443 N460 1.993 . S
Co443 O468 1.941 1_455 S
C444 O445 1.258 . S
C444 O446 1.263 1_455 S
O445 Co442 1.970 . S
O445 C444 1.258 . S
O446 Co443 1.966 1_655 S
O446 C444 1.263 1_655 S
C447 O448 1.235 . S
C447 O474 1.289 . S
O448 C447 1.235 . S
C449 C451 1.400 . S
C449 N452 1.351 . S
C449 C454 1.501 . S
C450 C451 1.387 . S
C450 N453 1.341 . S
C451 C449 1.400 . S
C451 C450 1.387 . S
N452 Co443 2.022 1_655 S
N452 C449 1.351 . S
N452 N453 1.365 . S
N453 C450 1.341 . S
N453 N452 1.365 . S
N453 H473 0.862 . S
C454 C449 1.501 . S
C454 H455 0.961 . S
C454 H456 0.961 . S
C454 H457 0.960 . S
H455 C454 0.961 . S
H456 C454 0.961 . S
H457 C454 0.960 . S
C458 N459 1.342 . S
C458 C462 1.401 . S
C458 C463 1.499 . S
N459 Co442 1.989 . S
N459 C458 1.342 . S
N459 N460 1.388 . S
N460 Co443 1.993 . S
N460 N459 1.388 . S
N460 C461 1.346 . S
C461 N460 1.346 . S
C461 C462 1.396 . S
C461 C471 1.510 . S
C462 C458 1.401 . S
C462 C461 1.396 . S
C463 C458 1.499 . S
C463 H464 0.959 . S
C463 H465 0.960 . S
C463 H466 0.961 . S
H464 C463 0.959 . S
H465 C463 0.960 . S
H466 C463 0.961 . S
O467 Co442 1.967 . S
O467 C475 1.258 . S
O468 Co443 1.941 1_655 S
O468 C475 1.266 1_655 S
H469 C471 0.959 . S
H470 C471 0.961 . S
C471 C461 1.510 . S
C471 H469 0.959 . S
C471 H470 0.961 . S
C471 H472 0.960 . S
H472 C471 0.960 . S
H473 N453 0.862 . S
O474 Co442 1.920 . S
O474 C447 1.289 . S
C475 O467 1.258 . S
C475 O468 1.266 1_455 S
Co476 O479 1.970 . S
Co476 N493 1.989 . S
Co476 O501 1.967 . S
Co476 O508 1.920 . S
Co477 O480 1.966 . S
Co477 N486 2.022 . S
Co477 N494 1.993 . S
Co477 O502 1.941 . S
C478 O479 1.258 . S
C478 O480 1.263 . S
O479 Co476 1.970 . S
O479 C478 1.258 . S
O480 Co477 1.966 . S
O480 C478 1.263 . S
C481 O482 1.235 . S
C481 O508 1.289 . S
O482 C481 1.235 . S
C483 C485 1.400 . S
C483 N486 1.351 . S
C483 C488 1.501 . S
C484 C485 1.387 . S
C484 N487 1.341 . S
C485 C483 1.400 . S
C485 C484 1.387 . S
N486 Co477 2.022 . S
N486 C483 1.351 . S
N486 N487 1.365 . S
N487 C484 1.341 . S
N487 N486 1.365 . S
N487 H507 0.862 . S
C488 C483 1.501 . S
C488 H489 0.961 . S
C488 H490 0.961 . S
C488 H491 0.960 . S
H489 C488 0.961 . S
H490 C488 0.961 . S
H491 C488 0.960 . S
C492 N493 1.342 . S
C492 C496 1.401 . S
C492 C497 1.499 . S
N493 Co476 1.989 . S
N493 C492 1.342 . S
N493 N494 1.388 . S
N494 Co477 1.993 . S
N494 N493 1.388 . S
N494 C495 1.346 . S
C495 N494 1.346 . S
C495 C496 1.396 . S
C495 C505 1.510 . S
C496 C492 1.401 . S
C496 C495 1.396 . S
C497 C492 1.499 . S
C497 H498 0.959 . S
C497 H499 0.960 . S
C497 H500 0.961 . S
H498 C497 0.959 . S
H499 C497 0.960 . S
H500 C497 0.961 . S
O501 Co476 1.967 . S
O501 C509 1.258 . S
O502 Co477 1.941 . S
O502 C509 1.266 . S
H503 C505 0.959 . S
H504 C505 0.961 . S
C505 C495 1.510 . S
C505 H503 0.959 . S
C505 H504 0.961 . S
C505 H506 0.960 . S
H506 C505 0.960 . S
H507 N487 0.862 . S
O508 Co476 1.920 . S
O508 C481 1.289 . S
C509 O501 1.258 . S
C509 O502 1.266 . S
Co510 O513 1.970 . S
Co510 N527 1.989 . S
Co510 O535 1.967 . S
Co510 O542 1.920 . S
Co511 O514 1.966 . S
Co511 N520 2.022 . S
Co511 N528 1.993 . S
Co511 O536 1.941 . S
C512 O513 1.258 . S
C512 O514 1.263 . S
O513 Co510 1.970 . S
O513 C512 1.258 . S
O514 Co511 1.966 . S
O514 C512 1.263 . S
C515 O516 1.235 . S
C515 O542 1.289 . S
O516 C515 1.235 . S
C517 C519 1.400 . S
C517 N520 1.351 . S
C517 C522 1.501 . S
C518 C519 1.394 . S
C518 N521 1.352 . S
C519 C517 1.400 . S
C519 C518 1.394 . S
N520 Co511 2.022 . S
N520 C517 1.351 . S
N520 N521 1.365 . S
N521 C518 1.352 . S
N521 N520 1.365 . S
N521 H541 0.862 . S
C522 C517 1.501 . S
C522 H523 0.961 . S
C522 H524 0.961 . S
C522 H525 0.960 . S
H523 C522 0.961 . S
H524 C522 0.961 . S
H525 C522 0.960 . S
C526 N527 1.342 . S
C526 C530 1.401 . S
C526 C531 1.499 . S
N527 Co510 1.989 . S
N527 C526 1.342 . S
N527 N528 1.388 . S
N528 Co511 1.993 . S
N528 N527 1.388 . S
N528 C529 1.346 . S
C529 N528 1.346 . S
C529 C530 1.396 . S
C529 C539 1.510 . S
C530 C526 1.401 . S
C530 C529 1.396 . S
C531 C526 1.499 . S
C531 H532 0.959 . S
C531 H533 0.960 . S
C531 H534 0.961 . S
H532 C531 0.959 . S
H533 C531 0.960 . S
H534 C531 0.961 . S
O535 Co510 1.967 . S
O535 C543 1.258 . S
O536 Co511 1.941 . S
O536 C543 1.266 . S
H537 C539 0.959 . S
H538 C539 0.961 . S
C539 C529 1.510 . S
C539 H537 0.959 . S
C539 H538 0.961 . S
C539 H540 0.960 . S
H540 C539 0.960 . S
H541 N521 0.862 . S
O542 Co510 1.920 . S
O542 C515 1.289 . S
C543 O535 1.258 . S
C543 O536 1.266 . S
Co544 O547 1.970 . S
Co544 N561 1.989 . S
Co544 O569 1.967 . S
Co544 O576 1.920 . S
Co545 O548 1.966 . S
Co545 N554 2.022 . S
Co545 N562 1.993 . S
Co545 O570 1.941 . S
C546 O547 1.258 . S
C546 O548 1.263 . S
O547 Co544 1.970 . S
O547 C546 1.258 . S
O548 Co545 1.966 . S
O548 C546 1.263 . S
C549 O550 1.235 . S
C549 O576 1.289 . S
O550 C549 1.235 . S
C551 C553 1.400 . S
C551 N554 1.351 . S
C551 C556 1.501 . S
C552 C553 1.387 1_655 S
C552 N555 1.341 1_655 S
C553 C551 1.400 . S
C553 C552 1.387 1_455 S
N554 Co545 2.022 . S
N554 C551 1.351 . S
N554 N555 1.365 . S
N555 C552 1.341 1_455 S
N555 N554 1.365 . S
N555 H575 0.862 . S
C556 C551 1.501 . S
C556 H557 0.961 . S
C556 H558 0.961 . S
C556 H559 0.960 . S
H557 C556 0.961 . S
H558 C556 0.961 . S
H559 C556 0.960 . S
C560 N561 1.342 . S
C560 C564 1.401 . S
C560 C565 1.499 . S
N561 Co544 1.989 . S
N561 C560 1.342 . S
N561 N562 1.388 . S
N562 Co545 1.993 . S
N562 N561 1.388 . S
N562 C563 1.346 . S
C563 N562 1.346 . S
C563 C564 1.396 . S
C563 C573 1.510 . S
C564 C560 1.401 . S
C564 C563 1.396 . S
C565 C560 1.499 . S
C565 H566 0.959 . S
C565 H567 0.960 . S
C565 H568 0.961 . S
H566 C565 0.959 . S
H567 C565 0.960 . S
H568 C565 0.961 . S
O569 Co544 1.967 . S
O569 C577 1.258 . S
O570 Co545 1.941 . S
O570 C577 1.266 . S
H571 C573 0.959 . S
H572 C573 0.961 . S
C573 C563 1.510 . S
C573 H571 0.959 . S
C573 H572 0.961 . S
C573 H574 0.960 . S
H574 C573 0.960 . S
H575 N555 0.862 . S
O576 Co544 1.920 . S
O576 C549 1.289 . S
C577 O569 1.258 . S
C577 O570 1.266 . S
Co578 O581 1.970 . S
Co578 N595 1.989 . S
Co578 O603 1.967 . S
Co578 O610 1.920 . S
Co579 O582 1.966 . S
Co579 N588 2.022 . S
Co579 N596 1.993 . S
Co579 O604 1.941 . S
C580 O581 1.258 . S
C580 O582 1.263 . S
O581 Co578 1.970 . S
O581 C580 1.258 . S
O582 Co579 1.966 . S
O582 C580 1.263 . S
C583 O584 1.235 . S
C583 O610 1.289 . S
O584 C583 1.235 . S
C585 C587 1.400 . S
C585 N588 1.351 . S
C585 C590 1.501 . S
C586 C587 1.387 . S
C586 N589 1.341 . S
C587 C585 1.400 . S
C587 C586 1.387 . S
N588 Co579 2.022 . S
N588 C585 1.351 . S
N588 N589 1.365 . S
N589 C586 1.341 . S
N589 N588 1.365 . S
N589 H609 0.862 . S
C590 C585 1.501 . S
C590 H591 0.961 . S
C590 H592 0.961 . S
C590 H593 0.960 . S
H591 C590 0.961 . S
H592 C590 0.961 . S
H593 C590 0.960 . S
C594 N595 1.342 . S
C594 C598 1.401 . S
C594 C599 1.499 . S
N595 Co578 1.989 . S
N595 C594 1.342 . S
N595 N596 1.388 . S
N596 Co579 1.993 . S
N596 N595 1.388 . S
N596 C597 1.346 . S
C597 N596 1.346 . S
C597 C598 1.396 . S
C597 C607 1.510 . S
C598 C594 1.401 . S
C598 C597 1.396 . S
C599 C594 1.499 . S
C599 H600 0.959 . S
C599 H601 0.960 . S
C599 H602 0.961 . S
H600 C599 0.959 . S
H601 C599 0.960 . S
H602 C599 0.961 . S
O603 Co578 1.967 . S
O603 C611 1.258 . S
O604 Co579 1.941 . S
O604 C611 1.266 . S
H605 C607 0.959 . S
H606 C607 0.961 . S
C607 C597 1.510 . S
C607 H605 0.959 . S
C607 H606 0.961 . S
C607 H608 0.960 . S
H608 C607 0.960 . S
H609 N589 0.862 . S
O610 Co578 1.920 . S
O610 C583 1.289 . S
C611 O603 1.258 . S
C611 O604 1.266 . S
C349 C9 1.268 . S
C43 C383 1.268 . S
C315 C77 1.268 . S
C485 C111 1.268 . S
C145 C417 1.268 . S
C451 C179 1.268 . S
C172 C478 2.714 . S
C410 C104 2.714 1_565 S
C444 C138 2.714 1_455 S
C36 C342 2.714 . S
C70 C376 2.714 1_565 S
C2 C308 2.714 1_455 S
C553 C213 1.268 1_455 S
C587 C247 1.268 . S
C519 C281 1.268 1_565 S
C240 C546 2.714 1_545 S
C580 C274 2.714 1_455 S
C206 C512 2.714 . S
C33 C611 1.529 . S
C67 C543 1.529 . S
C101 C577 1.529 . S
C271 C135 1.529 . S
C169 C305 1.529 . S
C203 C237 1.529 . S
C339 C475 1.529 1_654 S
C373 C509 1.529 1_554 S
C407 C441 1.529 1_544 S
C73 C20 2.694 . S
C54 C5 2.694 1_565 S
C39 C88 2.694 1_655 S
C141 C122 2.694 . S
C156 C175 2.694 1_545 S
C107 C190 2.694 1_455 S
C224 C277 2.694 . S
C209 C258 2.694 . S
C292 C243 2.694 . S
C326 C345 2.694 . S
C379 C360 2.694 . S
C394 C311 2.694 . S
C428 C481 2.694 . S
C413 C462 2.694 . S
C496 C447 2.694 . S
C530 C549 2.694 . S
C583 C564 2.694 . S
C515 C598 2.694 . S
