# Generated by pormake.
# Topology vch, (7)-cn, num edge types: 1
# Building blocks:
#     Node 0, Type 0, BuildingBlock: NUHQUE_clean_sbu_2, # of connection points: 7
#     Node 1, Type 0, BuildingBlock: NUHQUE_clean_sbu_2, # of connection points: 7
#     Node 2, Type 0, BuildingBlock: NUHQUE_clean_sbu_2, # of connection points: 7
#     Node 3, Type 0, BuildingBlock: NUHQUE_clean_sbu_2, # of connection points: 7
#     Node 4, Type 0, BuildingBlock: NUHQUE_clean_sbu_2, # of connection points: 7
#     Node 5, Type 0, BuildingBlock: NUHQUE_clean_sbu_2, # of connection points: 7
#     Node 6, Type 0, BuildingBlock: NUHQUE_clean_sbu_2, # of connection points: 7
#     Node 7, Type 0, BuildingBlock: NUHQUE_clean_sbu_2, # of connection points: 7
#     Node 8, Type 0, BuildingBlock: NUHQUE_clean_sbu_2, # of connection points: 7
#     Node 9, Type 0, BuildingBlock: NUHQUE_clean_sbu_2, # of connection points: 7
#     Node 10, Type 0, BuildingBlock: NUHQUE_clean_sbu_2, # of connection points: 7
#     Node 11, Type 0, BuildingBlock: NUHQUE_clean_sbu_2, # of connection points: 7
#     Node 12, Type 0, BuildingBlock: NUHQUE_clean_sbu_2, # of connection points: 7
#     Node 13, Type 0, BuildingBlock: NUHQUE_clean_sbu_2, # of connection points: 7
#     Node 14, Type 0, BuildingBlock: NUHQUE_clean_sbu_2, # of connection points: 7
#     Node 15, Type 0, BuildingBlock: NUHQUE_clean_sbu_2, # of connection points: 7
#     Edge 16, Type (0, 0), BuildingBlock: EZIPEK_clean_linker_0, # of connection points: 2
#     Edge 17, Type (0, 0), BuildingBlock: EZIPEK_clean_linker_0, # of connection points: 2
#     Edge 18, Type (0, 0), BuildingBlock: EZIPEK_clean_linker_0, # of connection points: 2
#     Edge 19, Type (0, 0), BuildingBlock: EZIPEK_clean_linker_0, # of connection points: 2
#     Edge 20, Type (0, 0), BuildingBlock: EZIPEK_clean_linker_0, # of connection points: 2
#     Edge 21, Type (0, 0), BuildingBlock: EZIPEK_clean_linker_0, # of connection points: 2
#     Edge 22, Type (0, 0), BuildingBlock: EZIPEK_clean_linker_0, # of connection points: 2
#     Edge 23, Type (0, 0), BuildingBlock: EZIPEK_clean_linker_0, # of connection points: 2
#     Edge 24, Type (0, 0), BuildingBlock: EZIPEK_clean_linker_0, # of connection points: 2
#     Edge 25, Type (0, 0), BuildingBlock: EZIPEK_clean_linker_0, # of connection points: 2
#     Edge 26, Type (0, 0), BuildingBlock: EZIPEK_clean_linker_0, # of connection points: 2
#     Edge 27, Type (0, 0), BuildingBlock: EZIPEK_clean_linker_0, # of connection points: 2
#     Edge 28, Type (0, 0), BuildingBlock: EZIPEK_clean_linker_0, # of connection points: 2
#     Edge 29, Type (0, 0), BuildingBlock: EZIPEK_clean_linker_0, # of connection points: 2
#     Edge 30, Type (0, 0), BuildingBlock: EZIPEK_clean_linker_0, # of connection points: 2
#     Edge 31, Type (0, 0), BuildingBlock: EZIPEK_clean_linker_0, # of connection points: 2
#     Edge 32, Type (0, 0), BuildingBlock: EZIPEK_clean_linker_0, # of connection points: 2
#     Edge 33, Type (0, 0), BuildingBlock: EZIPEK_clean_linker_0, # of connection points: 2
#     Edge 34, Type (0, 0), BuildingBlock: EZIPEK_clean_linker_0, # of connection points: 2
#     Edge 35, Type (0, 0), BuildingBlock: EZIPEK_clean_linker_0, # of connection points: 2
#     Edge 36, Type (0, 0), BuildingBlock: EZIPEK_clean_linker_0, # of connection points: 2
#     Edge 37, Type (0, 0), BuildingBlock: EZIPEK_clean_linker_0, # of connection points: 2
#     Edge 38, Type (0, 0), BuildingBlock: EZIPEK_clean_linker_0, # of connection points: 2
#     Edge 39, Type (0, 0), BuildingBlock: EZIPEK_clean_linker_0, # of connection points: 2
#     Edge 40, Type (0, 0), BuildingBlock: EZIPEK_clean_linker_0, # of connection points: 2
#     Edge 41, Type (0, 0), BuildingBlock: EZIPEK_clean_linker_0, # of connection points: 2
#     Edge 42, Type (0, 0), BuildingBlock: EZIPEK_clean_linker_0, # of connection points: 2
#     Edge 43, Type (0, 0), BuildingBlock: EZIPEK_clean_linker_0, # of connection points: 2
#     Edge 44, Type (0, 0), BuildingBlock: EZIPEK_clean_linker_0, # of connection points: 2
#     Edge 45, Type (0, 0), BuildingBlock: EZIPEK_clean_linker_0, # of connection points: 2
#     Edge 46, Type (0, 0), BuildingBlock: EZIPEK_clean_linker_0, # of connection points: 2
#     Edge 47, Type (0, 0), BuildingBlock: EZIPEK_clean_linker_0, # of connection points: 2
#     Edge 48, Type (0, 0), BuildingBlock: EZIPEK_clean_linker_0, # of connection points: 2
#     Edge 49, Type (0, 0), BuildingBlock: EZIPEK_clean_linker_0, # of connection points: 2
#     Edge 50, Type (0, 0), BuildingBlock: EZIPEK_clean_linker_0, # of connection points: 2
#     Edge 51, Type (0, 0), BuildingBlock: EZIPEK_clean_linker_0, # of connection points: 2
#     Edge 52, Type (0, 0), BuildingBlock: EZIPEK_clean_linker_0, # of connection points: 2
#     Edge 53, Type (0, 0), BuildingBlock: EZIPEK_clean_linker_0, # of connection points: 2
#     Edge 54, Type (0, 0), BuildingBlock: EZIPEK_clean_linker_0, # of connection points: 2
#     Edge 55, Type (0, 0), BuildingBlock: EZIPEK_clean_linker_0, # of connection points: 2
#     Edge 56, Type (0, 0), BuildingBlock: EZIPEK_clean_linker_0, # of connection points: 2
#     Edge 57, Type (0, 0), BuildingBlock: EZIPEK_clean_linker_0, # of connection points: 2
#     Edge 58, Type (0, 0), BuildingBlock: EZIPEK_clean_linker_0, # of connection points: 2
#     Edge 59, Type (0, 0), BuildingBlock: EZIPEK_clean_linker_0, # of connection points: 2
#     Edge 60, Type (0, 0), BuildingBlock: EZIPEK_clean_linker_0, # of connection points: 2
#     Edge 61, Type (0, 0), BuildingBlock: EZIPEK_clean_linker_0, # of connection points: 2
#     Edge 62, Type (0, 0), BuildingBlock: EZIPEK_clean_linker_0, # of connection points: 2
#     Edge 63, Type (0, 0), BuildingBlock: EZIPEK_clean_linker_0, # of connection points: 2
#     Edge 64, Type (0, 0), BuildingBlock: EZIPEK_clean_linker_0, # of connection points: 2
#     Edge 65, Type (0, 0), BuildingBlock: EZIPEK_clean_linker_0, # of connection points: 2
#     Edge 66, Type (0, 0), BuildingBlock: EZIPEK_clean_linker_0, # of connection points: 2
#     Edge 67, Type (0, 0), BuildingBlock: EZIPEK_clean_linker_0, # of connection points: 2
#     Edge 68, Type (0, 0), BuildingBlock: EZIPEK_clean_linker_0, # of connection points: 2
#     Edge 69, Type (0, 0), BuildingBlock: EZIPEK_clean_linker_0, # of connection points: 2
#     Edge 70, Type (0, 0), BuildingBlock: EZIPEK_clean_linker_0, # of connection points: 2
#     Edge 71, Type (0, 0), BuildingBlock: EZIPEK_clean_linker_0, # of connection points: 2
# Relax obj value: 0.134
# Max RMSD: 0.211
# Mean RMSD: 0.211
data_MOF--net-vch--node1-NUHQUE_clean_sbu_2--edge1-EZIPEK_clean_linker_0
_symmetry_space_group_name_H-M    P1
_symmetry_Int_Tables_number       1
_symmetry_cell_setting            triclinic
loop_
_symmetry_equiv_pos_as_xyz
'x, y, z'
_cell_length_a     17.105505
_cell_length_b     36.897543
_cell_length_c     52.535066
_cell_angle_alpha  90.099666
_cell_angle_beta   90.140273
_cell_angle_gamma 89.73609
loop_
_atom_site_label
_atom_site_type_symbol
_atom_site_fract_x
_atom_site_fract_y
_atom_site_fract_z
_atom_type_partial_charge
O0 O 0.19335 0.14628 0.07182 0.0
Tb1 Tb 0.19894 0.15386 0.11282 0.0
Eu2 Eu 0.01289 0.1338 0.15306 0.0
C3 C 0.23172 0.11864 0.06188 0.0
O4 O 0.27138 0.09684 0.07691 0.0
C5 C 0.1534 0.08313 0.13888 0.0
O6 O 0.99094 0.13551 0.19508 0.0
C7 C 0.89109 0.10621 0.13058 0.0
C8 C 0.04289 0.14887 0.21088 0.0
O9 O 0.10781 0.1629 0.20207 0.0
C10 C 0.074 0.21502 0.13313 0.0
C11 C 0.81991 0.11568 0.11555 0.0
C12 C 0.82239 0.113 0.08885 0.0
C13 C 0.75517 0.11918 0.07419 0.0
C14 C 0.68454 0.12777 0.08613 0.0
C15 C 0.6796 0.12964 0.11267 0.0
C16 C 0.74756 0.12387 0.12746 0.0
O17 O 0.14839 0.10033 0.11714 0.0
O18 O 0.1119 0.09426 0.15826 0.0
O19 O 0.32091 0.16581 0.10361 0.0
O20 O 0.2956 0.14135 0.13916 0.0
C21 C 0.35139 0.1529 0.1244 0.0
O22 O 0.02338 0.19307 0.14403 0.0
O23 O 0.14098 0.20539 0.12227 0.0
O24 O 0.89235 0.11526 0.15477 0.0
O25 O 0.95972 0.10956 0.11942 0.0
H26 H 0.87625 0.10547 0.07933 0.0
H27 H 0.63243 0.13201 0.07468 0.0
H28 H 0.74336 0.12482 0.14802 0.0
O29 O 0.26088 0.86634 0.09116 0.0
Tb30 Tb 0.26502 0.86151 0.13283 0.0
Eu31 Eu 0.45905 0.89537 0.14279 0.0
C32 C 0.31386 0.88124 0.07636 0.0
O33 O 0.37872 0.89402 0.08622 0.0
C34 C 0.30696 0.94316 0.13785 0.0
O35 O 0.43417 0.89751 0.18523 0.0
C36 C 0.60256 0.9158 0.1367 0.0
C37 C 0.42682 0.86839 0.19949 0.0
O38 O 0.41945 0.83655 0.18862 0.0
C39 C 0.4141 0.81339 0.13184 0.0
C40 C 0.67439 0.90285 0.12398 0.0
C41 C 0.68242 0.90502 0.09736 0.0
C42 C 0.75285 0.89497 0.0857 0.0
C43 C 0.81536 0.88273 0.10058 0.0
C44 C 0.80818 0.88035 0.12703 0.0
C45 C 0.73748 0.89 0.13872 0.0
O46 O 0.27161 0.91587 0.14863 0.0
O47 O 0.37898 0.94018 0.12974 0.0
O48 O 0.1455 0.84714 0.1229 0.0
O49 O 0.17565 0.85122 0.16177 0.0
C50 C 0.11864 0.8454 0.14591 0.0
O51 O 0.45159 0.8414 0.12266 0.0
O52 O 0.34419 0.81697 0.14193 0.0
O53 O 0.57907 0.89722 0.15652 0.0
O54 O 0.54476 0.92686 0.12209 0.0
H55 H 0.63476 0.91492 0.08561 0.0
H56 H 0.87028 0.87554 0.09154 0.0
H57 H 0.73284 0.88872 0.15928 0.0
O58 O 0.75879 0.88777 0.45367 0.0
Tb59 Tb 0.7453 0.87575 0.41327 0.0
Eu60 Eu 0.51028 0.88835 0.36587 0.0
C61 C 0.74464 0.86346 0.47134 0.0
O62 O 0.72357 0.83061 0.46463 0.0
C63 C 0.64664 0.93555 0.38422 0.0
O64 O 0.45687 0.88251 0.32657 0.0
C65 C 0.4142 0.88645 0.40404 0.0
C66 C 0.50312 0.88505 0.30665 0.0
O67 O 0.57797 0.89092 0.31039 0.0
C68 C 0.62348 0.82556 0.38838 0.0
C69 C 0.33289 0.88547 0.41301 0.0
C70 C 0.31945 0.88508 0.43942 0.0
C71 C 0.24294 0.88443 0.44894 0.0
C72 C 0.17998 0.88415 0.43198 0.0
C73 C 0.19249 0.88462 0.40565 0.0
C74 C 0.26915 0.88535 0.39605 0.0
O75 O 0.64704 0.90646 0.39849 0.0
O76 O 0.58678 0.93853 0.36855 0.0
O77 O 0.83338 0.9055 0.39184 0.0
O78 O 0.85019 0.84948 0.3983 0.0
C79 C 0.87986 0.87813 0.38759 0.0
O80 O 0.61787 0.85315 0.37255 0.0
O81 O 0.68005 0.82588 0.40563 0.0
O82 O 0.43839 0.91676 0.39362 0.0
O83 O 0.44257 0.85712 0.39311 0.0
H84 H 0.3684 0.8853 0.45258 0.0
H85 H 0.12076 0.88352 0.43933 0.0
H86 H 0.27895 0.8857 0.37567 0.0
O87 O 0.82397 0.1286 0.44693 0.0
Tb88 Tb 0.83347 0.12181 0.4058 0.0
Eu89 Eu 0.02971 0.09446 0.37209 0.0
C90 C 0.81769 0.10027 0.46198 0.0
O91 O 0.82223 0.06771 0.45201 0.0
C92 C 0.88426 0.04799 0.38586 0.0
O93 O 0.04604 0.10683 0.33073 0.0
C94 C 0.15429 0.06376 0.39056 0.0
C95 C 0.99554 0.12727 0.3185 0.0
O96 O 0.93433 0.14037 0.33047 0.0
C97 C 0.96996 0.17695 0.38924 0.0
C98 C 0.22962 0.07347 0.40284 0.0
C99 C 0.23651 0.07191 0.42955 0.0
C100 C 0.30804 0.07937 0.44144 0.0
C101 C 0.37301 0.08822 0.4268 0.0
C102 C 0.368 0.08943 0.40028 0.0
C103 C 0.29631 0.08214 0.3882 0.0
O104 O 0.88789 0.06863 0.40617 0.0
O105 O 0.93249 0.05438 0.36717 0.0
O106 O 0.70868 0.13258 0.41029 0.0
O107 O 0.74716 0.10573 0.37682 0.0
C108 C 0.68625 0.11795 0.38904 0.0
O109 O 0.02566 0.15233 0.3863 0.0
O110 O 0.89464 0.16996 0.39229 0.0
O111 O 0.14583 0.07177 0.36634 0.0
O112 O 0.09003 0.06895 0.40391 0.0
H113 H 0.18672 0.06462 0.44117 0.0
H114 H 0.42845 0.09359 0.43614 0.0
H115 H 0.29328 0.08253 0.3676 0.0
O116 O 0.75572 0.88689 0.96195 0.0
Tb117 Tb 0.77169 0.88804 0.92118 0.0
Eu118 Eu 0.00832 0.90024 0.87663 0.0
C119 C 0.80469 0.90326 0.97733 0.0
O120 O 0.86546 0.92034 0.96807 0.0
C121 C 0.87013 0.94875 0.8932 0.0
O122 O 0.05775 0.892 0.83697 0.0
C123 C 0.0981 0.89747 0.91669 0.0
C124 C 0.00928 0.89717 0.81769 0.0
O125 O 0.9369 0.9068 0.82265 0.0
C126 C 0.89114 0.83825 0.89638 0.0
C127 C 0.17622 0.89384 0.92839 0.0
C128 C 0.18276 0.89142 0.95514 0.0
C129 C 0.25668 0.88875 0.96689 0.0
C130 C 0.32375 0.88852 0.95166 0.0
C131 C 0.31778 0.89133 0.92509 0.0
C132 C 0.24403 0.89386 0.91345 0.0
O133 O 0.8696 0.92153 0.90932 0.0
O134 O 0.93052 0.95033 0.87774 0.0
O135 O 0.67207 0.86492 0.90104 0.0
O136 O 0.67319 0.92118 0.90844 0.0
C137 C 0.63252 0.89493 0.89842 0.0
O138 O 0.89845 0.86775 0.88264 0.0
O139 O 0.83245 0.83721 0.91252 0.0
O140 O 0.08194 0.92774 0.90444 0.0
O141 O 0.06736 0.86855 0.906 0.0
H142 H 0.13059 0.89185 0.96681 0.0
H143 H 0.38098 0.887 0.96055 0.0
H144 H 0.23963 0.89642 0.89294 0.0
O145 O 0.6839 0.12202 0.9523 0.0
Tb146 Tb 0.68439 0.12205 0.91109 0.0
Eu147 Eu 0.46436 0.08765 0.87456 0.0
C148 C 0.74241 0.10698 0.96467 0.0
O149 O 0.79964 0.09154 0.95199 0.0
C150 C 0.61382 0.0523 0.88507 0.0
O151 O 0.45167 0.09868 0.8326 0.0
C152 C 0.33918 0.06159 0.8949 0.0
C153 C 0.51319 0.10568 0.81859 0.0
O154 O 0.58224 0.10826 0.82938 0.0
C155 C 0.54015 0.16631 0.88995 0.0
C156 C 0.27593 0.07422 0.91182 0.0
C157 C 0.28662 0.07919 0.93825 0.0
C158 C 0.22393 0.0912 0.95345 0.0
C159 C 0.15099 0.098 0.94225 0.0
C160 C 0.14058 0.09318 0.91607 0.0
C161 C 0.20262 0.08129 0.90102 0.0
O162 O 0.60352 0.08348 0.89652 0.0
O163 O 0.55432 0.04329 0.87117 0.0
O164 O 0.78108 0.09124 0.89531 0.0
O165 O 0.79287 0.14797 0.8996 0.0
C166 C 0.82741 0.11855 0.89165 0.0
O167 O 0.49577 0.13889 0.89716 0.0
O168 O 0.61641 0.16627 0.8945 0.0
O169 O 0.34064 0.07618 0.87207 0.0
O170 O 0.409 0.05708 0.90491 0.0
H171 H 0.3429 0.07389 0.94703 0.0
H172 H 0.10251 0.10729 0.95387 0.0
H173 H 0.19328 0.07746 0.88075 0.0
O174 O 0.32613 0.09585 0.56453 0.0
Tb175 Tb 0.34212 0.09602 0.60531 0.0
Eu176 Eu 0.53807 0.0837 0.6526 0.0
C177 C 0.36928 0.07576 0.54945 0.0
O178 O 0.42611 0.05586 0.55893 0.0
C179 C 0.4124 0.03417 0.63657 0.0
O180 O 0.55431 0.08948 0.69489 0.0
C181 C 0.66624 0.0698 0.62809 0.0
C182 C 0.49613 0.10229 0.70858 0.0
O183 O 0.43116 0.11233 0.69716 0.0
C184 C 0.4586 0.15871 0.62522 0.0
C185 C 0.7313 0.08576 0.61326 0.0
C186 C 0.72342 0.09222 0.5869 0.0
C187 C 0.7896 0.09932 0.57183 0.0
C188 C 0.86307 0.10152 0.58358 0.0
C189 C 0.87125 0.09745 0.60992 0.0
C190 C 0.80532 0.08963 0.62473 0.0
O191 O 0.42633 0.05819 0.61903 0.0
O192 O 0.46078 0.03497 0.65559 0.0
O193 O 0.2265 0.07267 0.61068 0.0
O194 O 0.25394 0.12202 0.62951 0.0
C195 C 0.19882 0.09862 0.6249 0.0
O196 O 0.49455 0.14075 0.64381 0.0
O197 O 0.4092 0.14583 0.60793 0.0
O198 O 0.66423 0.07601 0.65276 0.0
O199 O 0.59653 0.06846 0.61744 0.0
H200 H 0.66684 0.0897 0.57776 0.0
H201 H 0.91462 0.1063 0.57209 0.0
H202 H 0.81264 0.08497 0.64497 0.0
O203 O 0.22612 0.87743 0.57297 0.0
Tb204 Tb 0.20747 0.87308 0.61376 0.0
Eu205 Eu 0.98715 0.91017 0.65319 0.0
C206 C 0.16873 0.88145 0.55655 0.0
O207 O 0.09621 0.88346 0.56458 0.0
C208 C 0.13482 0.94467 0.63803 0.0
O209 O 0.99488 0.90309 0.69613 0.0
C210 C 0.85002 0.93048 0.63827 0.0
C211 C 0.05676 0.89078 0.7085 0.0
O212 O 0.11801 0.87954 0.69564 0.0
C213 C 0.05703 0.83353 0.63227 0.0
C214 C 0.78957 0.91614 0.62097 0.0
C215 C 0.8019 0.91045 0.59467 0.0
C216 C 0.74163 0.89593 0.57942 0.0
C217 C 0.66964 0.88739 0.59059 0.0
C218 C 0.65761 0.89318 0.61661 0.0
C219 C 0.71753 0.90718 0.63166 0.0
O220 O 0.12582 0.91273 0.62757 0.0
O221 O 0.07446 0.95534 0.65113 0.0
O222 O 0.30037 0.89936 0.63491 0.0
O223 O 0.30966 0.84328 0.62729 0.0
C224 C 0.34384 0.87073 0.63814 0.0
O225 O 0.02152 0.86409 0.62636 0.0
O226 O 0.13124 0.82899 0.62583 0.0
O227 O 0.86203 0.91136 0.65903 0.0
O228 O 0.91447 0.9432 0.62815 0.0
H229 H 0.85752 0.91711 0.58608 0.0
H230 H 0.62267 0.8766 0.57897 0.0
H231 H 0.70736 0.91153 0.65182 0.0
O232 O 0.7231 0.61431 0.06596 0.0
Tb233 Tb 0.71016 0.62563 0.10594 0.0
Eu234 Eu 0.48678 0.59799 0.14573 0.0
C235 C 0.66265 0.60839 0.05122 0.0
O236 O 0.59184 0.60779 0.06081 0.0
C237 C 0.63406 0.55987 0.13585 0.0
O238 O 0.44568 0.60905 0.18591 0.0
C239 C 0.37717 0.58846 0.11174 0.0
C240 C 0.49844 0.61844 0.203 0.0
O241 O 0.57157 0.62192 0.19588 0.0
C242 C 0.56432 0.67235 0.12307 0.0
C243 C 0.30929 0.6053 0.09827 0.0
C244 C 0.31108 0.61055 0.07159 0.0
C245 C 0.24442 0.62343 0.05835 0.0
C246 C 0.17545 0.63017 0.07206 0.0
C247 C 0.17196 0.62389 0.09834 0.0
C248 C 0.23921 0.61237 0.11142 0.0
O249 O 0.62797 0.59138 0.12465 0.0
O250 O 0.57091 0.55081 0.14808 0.0
O251 O 0.81353 0.60226 0.12386 0.0
O252 O 0.80983 0.65868 0.1176 0.0
C253 C 0.85312 0.63216 0.12622 0.0
O254 O 0.55816 0.65031 0.14278 0.0
O255 O 0.62747 0.67102 0.10841 0.0
O256 O 0.36921 0.58068 0.13604 0.0
O257 O 0.44805 0.5993 0.10596 0.0
H258 H 0.36384 0.60425 0.06106 0.0
H259 H 0.12343 0.63935 0.06209 0.0
H260 H 0.23542 0.60752 0.13172 0.0
O261 O 0.80542 0.41175 0.06434 0.0
Tb262 Tb 0.80597 0.40429 0.10541 0.0
Eu263 Eu 0.02321 0.41004 0.16055 0.0
C264 C 0.74141 0.42232 0.05248 0.0
O265 O 0.67853 0.43038 0.06563 0.0
C266 C 0.89997 0.4615 0.13819 0.0
O267 O 0.06114 0.40634 0.20205 0.0
C268 C 0.12233 0.40371 0.12356 0.0
C269 C 0.00663 0.40206 0.21958 0.0
O270 O 0.93343 0.39909 0.21229 0.0
C271 C 0.91152 0.35115 0.13425 0.0
C272 C 0.19916 0.40205 0.11118 0.0
C273 C 0.20241 0.39806 0.08448 0.0
C274 C 0.2744 0.39969 0.07161 0.0
C275 C 0.34283 0.40419 0.08587 0.0
C276 C 0.34025 0.40722 0.11248 0.0
C277 C 0.2683 0.40655 0.12517 0.0
O278 O 0.90283 0.43387 0.12237 0.0
O279 O 0.95366 0.46211 0.15616 0.0
O280 O 0.69103 0.38193 0.11336 0.0
O281 O 0.71614 0.43571 0.1252 0.0
C282 C 0.6625 0.41089 0.12411 0.0
O283 O 0.91442 0.37904 0.14988 0.0
O284 O 0.86017 0.35246 0.11548 0.0
O285 O 0.09808 0.37578 0.13689 0.0
O286 O 0.0977 0.43523 0.13222 0.0
H287 H 0.14884 0.39485 0.07364 0.0
H288 H 0.39866 0.40567 0.07617 0.0
H289 H 0.2662 0.40993 0.14566 0.0
O290 O 0.2007 0.37586 0.43602 0.0
Tb291 Tb 0.21331 0.38113 0.39477 0.0
Eu292 Eu 0.01389 0.40987 0.38937 0.0
C293 C 0.17045 0.40066 0.45108 0.0
O294 O 0.11572 0.42175 0.44172 0.0
C295 C 0.1646 0.4599 0.38494 0.0
O296 O 0.99863 0.40868 0.34601 0.0
C297 C 0.88558 0.42666 0.41315 0.0
C298 C 0.05503 0.39982 0.32992 0.0
O299 O 0.12379 0.39047 0.33894 0.0
C300 C 0.07664 0.32625 0.38912 0.0
C301 C 0.81467 0.4101 0.42444 0.0
C302 C 0.80827 0.40602 0.45112 0.0
C303 C 0.73669 0.39597 0.46233 0.0
C304 C 0.67238 0.38915 0.44651 0.0
C305 C 0.67883 0.39164 0.42004 0.0
C306 C 0.74976 0.40195 0.40901 0.0
O307 O 0.19759 0.43172 0.37434 0.0
O308 O 0.09669 0.45681 0.39614 0.0
O309 O 0.33003 0.39508 0.40713 0.0
O310 O 0.31761 0.35672 0.37711 0.0
C311 C 0.36714 0.37432 0.39135 0.0
O312 O 0.02791 0.35034 0.39864 0.0
O313 O 0.14764 0.33443 0.38149 0.0
O314 O 0.892 0.42705 0.38819 0.0
O315 O 0.95237 0.42074 0.42481 0.0
H316 H 0.85771 0.41223 0.46329 0.0
H317 H 0.61645 0.38227 0.45488 0.0
H318 H 0.75283 0.40505 0.38853 0.0
O319 O 0.28758 0.64295 0.44994 0.0
Tb320 Tb 0.29071 0.65136 0.40896 0.0
Eu321 Eu 0.51253 0.62092 0.3685 0.0
C322 C 0.22393 0.63029 0.46076 0.0
O323 O 0.16288 0.62237 0.44664 0.0
C324 C 0.36544 0.58409 0.37955 0.0
O325 O 0.51825 0.63055 0.32596 0.0
C326 C 0.64342 0.59662 0.38635 0.0
C327 C 0.45564 0.63602 0.31186 0.0
O328 O 0.38722 0.64002 0.32278 0.0
C329 C 0.43322 0.69623 0.38949 0.0
C330 C 0.70659 0.60758 0.40385 0.0
C331 C 0.69872 0.60845 0.43065 0.0
C332 C 0.7644 0.61595 0.44621 0.0
C333 C 0.83629 0.62342 0.43456 0.0
C334 C 0.84248 0.62437 0.4081 0.0
C335 C 0.7784 0.6162 0.39292 0.0
O336 O 0.37127 0.61617 0.39003 0.0
O337 O 0.42624 0.57525 0.36616 0.0
O338 O 0.19556 0.62482 0.38911 0.0
O339 O 0.18504 0.68061 0.3985 0.0
C340 C 0.15106 0.65343 0.38725 0.0
O341 O 0.47476 0.66708 0.39509 0.0
O342 O 0.35903 0.69798 0.39656 0.0
O343 O 0.63769 0.6154 0.36517 0.0
O344 O 0.57558 0.58753 0.39603 0.0
H345 H 0.6429 0.6026 0.43939 0.0
H346 H 0.88742 0.62918 0.44611 0.0
H347 H 0.78522 0.61618 0.37238 0.0
O348 O 0.32078 0.37387 0.94695 0.0
Tb349 Tb 0.3148 0.37984 0.90562 0.0
Eu350 Eu 0.49991 0.39253 0.85923 0.0
C351 C 0.32305 0.40266 0.96182 0.0
O352 O 0.3317 0.43475 0.95141 0.0
C353 C 0.36261 0.44429 0.87391 0.0
O354 O 0.52565 0.38737 0.81695 0.0
C355 C 0.61974 0.42106 0.88265 0.0
C356 C 0.47148 0.37815 0.8003 0.0
O357 O 0.40066 0.37072 0.8083 0.0
C358 C 0.42945 0.31488 0.88458 0.0
C359 C 0.68825 0.41399 0.89965 0.0
C360 C 0.67967 0.41662 0.92629 0.0
C361 C 0.74477 0.41347 0.94249 0.0
C362 C 0.81906 0.40769 0.93213 0.0
C363 C 0.82965 0.40544 0.90575 0.0
C364 C 0.76415 0.40863 0.88949 0.0
O365 O 0.37549 0.42941 0.89618 0.0
O366 O 0.40146 0.43252 0.85407 0.0
O367 O 0.19587 0.39283 0.91788 0.0
O368 O 0.21323 0.37657 0.87963 0.0
C369 C 0.16112 0.3867 0.89634 0.0
O370 O 0.48127 0.33468 0.87208 0.0
O371 O 0.36475 0.32671 0.89596 0.0
O372 O 0.62247 0.40888 0.85915 0.0
O373 O 0.54916 0.4195 0.89253 0.0
H374 H 0.62272 0.42182 0.93456 0.0
H375 H 0.86929 0.40562 0.9447 0.0
H376 H 0.7728 0.40782 0.86908 0.0
O377 O 0.20777 0.63561 0.93132 0.0
Tb378 Tb 0.22208 0.65439 0.89202 0.0
Eu379 Eu 0.02252 0.61953 0.87992 0.0
C380 C 0.21689 0.65862 0.95036 0.0
O381 O 0.22485 0.69321 0.9451 0.0
C382 C 0.18169 0.57712 0.87714 0.0
O383 O 0.02055 0.6152 0.8369 0.0
C384 C 0.89023 0.59558 0.89709 0.0
C385 C 0.05551 0.63842 0.82181 0.0
O386 O 0.09942 0.66397 0.83162 0.0
C387 C 0.07291 0.70655 0.88959 0.0
C388 C 0.8147 0.60845 0.90754 0.0
C389 C 0.80045 0.60405 0.9337 0.0
C390 C 0.72868 0.61445 0.94414 0.0
C391 C 0.67022 0.62871 0.92858 0.0
C392 C 0.6824 0.63278 0.90247 0.0
C393 C 0.75503 0.623 0.89186 0.0
O394 O 0.20865 0.60728 0.86771 0.0
O395 O 0.11396 0.57704 0.88862 0.0
O396 O 0.34167 0.66 0.90609 0.0
O397 O 0.31862 0.67145 0.86738 0.0
C398 C 0.373 0.66923 0.88462 0.0
O399 O 0.02186 0.67981 0.88851 0.0
O400 O 0.14968 0.70278 0.88887 0.0
O401 O 0.90384 0.60096 0.8728 0.0
O402 O 0.95249 0.60009 0.91148 0.0
H403 H 0.84506 0.59262 0.94604 0.0
H404 H 0.61443 0.63636 0.93686 0.0
H405 H 0.76388 0.62594 0.87155 0.0
O406 O 0.792 0.63904 0.57118 0.0
Tb407 Tb 0.78945 0.6324 0.61234 0.0
Eu408 Eu 0.9827 0.61509 0.65547 0.0
C409 C 0.80222 0.61099 0.55602 0.0
O410 O 0.82123 0.57951 0.56598 0.0
C411 C 0.84079 0.56701 0.64236 0.0
O412 O 0.0229 0.62152 0.69633 0.0
C413 C 0.09665 0.59047 0.62739 0.0
C414 C 0.97374 0.63082 0.71446 0.0
O415 O 0.9004 0.63759 0.70862 0.0
C416 C 0.90801 0.69456 0.63396 0.0
C417 C 0.1656 0.60214 0.61216 0.0
C418 C 0.15805 0.6076 0.58569 0.0
C419 C 0.22405 0.61449 0.57059 0.0
C420 C 0.29791 0.61653 0.58201 0.0
C421 C 0.30691 0.61176 0.60829 0.0
C422 C 0.24081 0.60442 0.62335 0.0
O423 O 0.85265 0.58314 0.62055 0.0
O424 O 0.88641 0.575 0.66153 0.0
O425 O 0.67053 0.6208 0.59987 0.0
O426 O 0.68897 0.63435 0.63866 0.0
C427 C 0.6365 0.62564 0.62163 0.0
O428 O 0.95954 0.67364 0.64585 0.0
O429 O 0.84259 0.68439 0.62228 0.0
O430 O 0.10101 0.5935 0.65227 0.0
O431 O 0.02636 0.59772 0.61839 0.0
H432 H 0.10136 0.60536 0.57657 0.0
H433 H 0.34886 0.62161 0.57031 0.0
H434 H 0.24855 0.59967 0.64354 0.0
O435 O 0.6837 0.36198 0.58464 0.0
Tb436 Tb 0.6996 0.35849 0.62602 0.0
Eu437 Eu 0.49715 0.39162 0.63249 0.0
C438 C 0.67175 0.39182 0.57139 0.0
O439 O 0.65098 0.42177 0.58302 0.0
C440 C 0.6534 0.43691 0.63934 0.0
O441 O 0.49076 0.39253 0.6758 0.0
C442 C 0.36388 0.41317 0.61366 0.0
C443 C 0.52826 0.36992 0.69098 0.0
O444 O 0.57505 0.34528 0.68128 0.0
C445 C 0.55566 0.30785 0.62652 0.0
C446 C 0.29396 0.39903 0.6 0.0
C447 C 0.28757 0.40256 0.57335 0.0
C448 C 0.21913 0.39187 0.56052 0.0
C449 C 0.15654 0.37783 0.57441 0.0
C450 C 0.16112 0.37483 0.60096 0.0
C451 C 0.23014 0.38488 0.61366 0.0
O452 O 0.68304 0.40711 0.64877 0.0
O453 O 0.58518 0.43665 0.62783 0.0
O454 O 0.81523 0.35407 0.60896 0.0
O455 O 0.80298 0.3404 0.64778 0.0
C456 C 0.85226 0.34334 0.62907 0.0
O457 O 0.51183 0.33434 0.61749 0.0
O458 O 0.62669 0.31284 0.63548 0.0
O459 O 0.37348 0.40355 0.63753 0.0
O460 O 0.43005 0.41467 0.60103 0.0
H461 H 0.33513 0.41415 0.56252 0.0
H462 H 0.1032 0.37024 0.56458 0.0
H463 H 0.23252 0.38289 0.63422 0.0
C464 C 0.56973 0.17178 0.12493 0.0
C465 C 0.60058 0.13603 0.12396 0.0
C466 C 0.46819 0.11108 0.12776 0.0
C467 C 0.43694 0.14687 0.1281 0.0
N468 N 0.45761 0.21095 0.13297 0.0
N469 N 0.58296 0.07222 0.13093 0.0
C470 C 0.48784 0.17714 0.12866 0.0
C471 C 0.55086 0.1059 0.12781 0.0
N472 N 0.61854 0.20048 0.12116 0.0
N473 N 0.4192 0.08209 0.12533 0.0
H474 H 0.64317 0.06764 0.13056 0.0
H475 H 0.55089 0.04954 0.13622 0.0
H476 H 0.3586 0.08462 0.12457 0.0
H477 H 0.43837 0.05567 0.12208 0.0
H478 H 0.59925 0.22698 0.11846 0.0
H479 H 0.67906 0.19739 0.11972 0.0
H480 H 0.49164 0.23391 0.13582 0.0
H481 H 0.39802 0.2155 0.13587 0.0
C482 C 0.0099 0.88936 0.15337 0.0
C483 C 0.03549 0.85275 0.15141 0.0
C484 C 0.90202 0.83299 0.14249 0.0
C485 C 0.87822 0.86984 0.14196 0.0
N486 N 0.90107 0.93174 0.15432 0.0
N487 N 0.00532 0.78939 0.15186 0.0
C488 C 0.92935 0.89752 0.15021 0.0
C489 C 0.98094 0.82437 0.14869 0.0
N490 N 0.06323 0.91657 0.15625 0.0
N491 N 0.85005 0.80666 0.13569 0.0
H492 H 0.06328 0.78289 0.15627 0.0
H493 H 0.96748 0.76742 0.15252 0.0
H494 H 0.79114 0.81235 0.13221 0.0
H495 H 0.86537 0.77963 0.13281 0.0
H496 H 0.05006 0.94394 0.15392 0.0
H497 H 0.12213 0.91184 0.16 0.0
H498 H 0.9336 0.95242 0.16263 0.0
H499 H 0.84257 0.9387 0.15152 0.0
C500 C 1.00016 0.91474 0.37804 0.0
C501 C 0.96246 0.88071 0.37878 0.0
C502 C 0.08862 0.84999 0.38292 0.0
C503 C 0.12274 0.88392 0.38888 0.0
N504 N 0.11642 0.94909 0.38891 0.0
N505 N 0.97314 0.8176 0.36836 0.0
C506 C 0.0806 0.9166 0.38475 0.0
C507 C 0.00775 0.8487 0.37672 0.0
N508 N 0.95958 0.94469 0.37029 0.0
N509 N 0.13229 0.81905 0.3851 0.0
H510 H 0.91486 0.81724 0.36241 0.0
H511 H 0.0034 0.79365 0.36468 0.0
H512 H 0.19227 0.81958 0.38875 0.0
H513 H 0.1092 0.79306 0.384 0.0
H514 H 0.98441 0.9702 0.36817 0.0
H515 H 0.90315 0.94279 0.36286 0.0
H516 H 0.08693 0.97383 0.38932 0.0
H517 H 0.17613 0.95098 0.39284 0.0
C518 C 0.54952 0.13892 0.38009 0.0
C519 C 0.60323 0.10985 0.38317 0.0
C520 C 0.49418 0.06701 0.38355 0.0
C521 C 0.44152 0.09632 0.38617 0.0
N522 N 0.41583 0.16034 0.38549 0.0
N523 N 0.62601 0.04613 0.39073 0.0
C524 C 0.4681 0.13241 0.38342 0.0
C525 C 0.57564 0.07369 0.38495 0.0
N526 N 0.57675 0.17265 0.3743 0.0
N527 N 0.4659 0.03265 0.38096 0.0
H528 H 0.68569 0.05 0.3932 0.0
H529 H 0.60738 0.02024 0.39561 0.0
H530 H 0.40605 0.0273 0.38034 0.0
H531 H 0.50126 0.01033 0.37687 0.0
H532 H 0.54063 0.19457 0.36994 0.0
H533 H 0.63617 0.17785 0.37176 0.0
H534 H 0.43186 0.18746 0.38674 0.0
H535 H 0.35572 0.15595 0.38683 0.0
C536 C 0.42601 0.86223 0.90001 0.0
C537 C 0.39036 0.89407 0.9099 0.0
C538 C 0.50582 0.92937 0.89853 0.0
C539 C 0.54641 0.89662 0.89378 0.0
N540 N 0.53668 0.836 0.87742 0.0
N541 N 0.3917 0.95866 0.91687 0.0
C542 C 0.50366 0.86418 0.89046 0.0
C543 C 0.42834 0.92807 0.90813 0.0
N544 N 0.38726 0.82997 0.90112 0.0
N545 N 0.54076 0.96147 0.89289 0.0
H546 H 0.33357 0.95889 0.92285 0.0
H547 H 0.41956 0.98343 0.91934 0.0
H548 H 0.59409 0.96237 0.88333 0.0
H549 H 0.51339 0.9865 0.89484 0.0
H550 H 0.41308 0.80505 0.89704 0.0
H551 H 0.32949 0.82797 0.90728 0.0
H552 H 0.50748 0.81214 0.87294 0.0
H553 H 0.59068 0.8385 0.8684 0.0
C554 C 0.03961 0.13738 0.90067 0.0
C555 C 0.06434 0.10085 0.90406 0.0
C556 C 0.94356 0.07934 0.8847 0.0
C557 C 0.91243 0.11462 0.8871 0.0
N558 N 0.93805 0.17838 0.88523 0.0
N559 N 0.0402 0.03655 0.89969 0.0
C560 C 0.96286 0.14426 0.89133 0.0
C561 C 0.01715 0.07161 0.89569 0.0
N562 N 0.0888 0.16512 0.90701 0.0
N563 N 0.90362 0.05382 0.87117 0.0
H564 H 0.09348 0.02954 0.90806 0.0
H565 H 0.00364 0.01447 0.89658 0.0
H566 H 0.85248 0.06031 0.86126 0.0
H567 H 0.92617 0.02822 0.86702 0.0
H568 H 0.07244 0.19228 0.90738 0.0
H569 H 0.14668 0.16087 0.91261 0.0
H570 H 0.97201 0.20156 0.88692 0.0
H571 H 0.88518 0.18289 0.87576 0.0
C572 C 0.99088 0.06992 0.6307 0.0
C573 C 0.9507 0.10081 0.62126 0.0
C574 C 0.07319 0.13508 0.6208 0.0
C575 C 0.11365 0.10366 0.62956 0.0
N576 N 0.10635 0.04766 0.65242 0.0
N577 N 0.94799 0.1655 0.61555 0.0
C578 C 0.07066 0.0732 0.63769 0.0
C579 C 0.99015 0.13439 0.61922 0.0
N580 N 0.95505 0.03693 0.63143 0.0
N581 N 0.11326 0.16459 0.61226 0.0
H582 H 0.88704 0.16564 0.61445 0.0
H583 H 0.97255 0.19128 0.61619 0.0
H584 H 0.17356 0.16727 0.61358 0.0
H585 H 0.0867 0.18591 0.6025 0.0
H586 H 0.98501 0.01299 0.63551 0.0
H587 H 0.89708 0.03293 0.62604 0.0
H588 H 0.0763 0.02646 0.661 0.0
H589 H 0.16378 0.05089 0.65864 0.0
C590 C 0.47782 0.84257 0.63918 0.0
C591 C 0.42831 0.87254 0.64433 0.0
C592 C 0.53375 0.91485 0.63679 0.0
C593 C 0.58104 0.88558 0.62828 0.0
N594 N 0.60825 0.82137 0.62779 0.0
N595 N 0.42173 0.93243 0.66207 0.0
C596 C 0.55639 0.84916 0.63163 0.0
C597 C 0.46079 0.90718 0.64794 0.0
N598 N 0.44919 0.80827 0.64155 0.0
N599 N 0.55582 0.94992 0.63275 0.0
H600 H 0.36985 0.92616 0.67151 0.0
H601 H 0.44555 0.95745 0.66694 0.0
H602 H 0.60784 0.95704 0.62379 0.0
H603 H 0.51901 0.97189 0.63627 0.0
H604 H 0.47835 0.78495 0.63564 0.0
H605 H 0.39565 0.80331 0.65035 0.0
H606 H 0.59573 0.79421 0.63095 0.0
H607 H 0.66635 0.82571 0.62267 0.0
C608 C 0.98287 0.66518 0.12377 0.0
C609 C 0.94026 0.63315 0.12922 0.0
C610 C 0.05516 0.59595 0.11977 0.0
C611 C 0.09574 0.62745 0.11181 0.0
N612 N 0.10782 0.69241 0.1128 0.0
N613 N 0.94909 0.57216 0.14513 0.0
C614 C 0.06253 0.66231 0.11593 0.0
C615 C 0.98092 0.59981 0.13145 0.0
N616 N 0.94708 0.69815 0.12598 0.0
N617 N 0.08504 0.56223 0.1149 0.0
H618 H 0.89772 0.57555 0.15557 0.0
H619 H 0.97843 0.54791 0.14883 0.0
H620 H 0.13872 0.55794 0.10601 0.0
H621 H 0.05344 0.53851 0.11777 0.0
H622 H 0.96928 0.72195 0.11833 0.0
H623 H 0.89491 0.70154 0.13596 0.0
H624 H 0.08975 0.71859 0.11733 0.0
H625 H 0.16637 0.6909 0.10734 0.0
C626 C 0.45617 0.38247 0.13594 0.0
C627 C 0.41488 0.41268 0.12615 0.0
C628 C 0.53564 0.44665 0.12158 0.0
C629 C 0.57833 0.41561 0.13003 0.0
N630 N 0.5777 0.35989 0.15387 0.0
N631 N 0.40951 0.4769 0.1194 0.0
C632 C 0.53781 0.38552 0.14026 0.0
C633 C 0.45294 0.44613 0.12278 0.0
N634 N 0.41844 0.35036 0.13957 0.0
N635 N 0.57217 0.47493 0.10992 0.0
H636 H 0.34847 0.47657 0.11981 0.0
H637 H 0.43378 0.50275 0.11894 0.0
H638 H 0.63192 0.47614 0.10698 0.0
H639 H 0.54218 0.49598 0.10096 0.0
H640 H 0.44735 0.32614 0.14364 0.0
H641 H 0.35813 0.34774 0.13732 0.0
H642 H 0.55044 0.33869 0.16339 0.0
H643 H 0.63734 0.36217 0.15781 0.0
C644 C 0.57881 0.34973 0.40195 0.0
C645 C 0.60808 0.38549 0.40435 0.0
C646 C 0.48766 0.40957 0.38579 0.0
C647 C 0.45287 0.37516 0.38889 0.0
N648 N 0.46407 0.31152 0.39816 0.0
N649 N 0.5916 0.45002 0.39854 0.0
C650 C 0.49856 0.34465 0.39581 0.0
C651 C 0.56365 0.41558 0.39566 0.0
N652 N 0.62776 0.32093 0.40597 0.0
N653 N 0.44694 0.43651 0.37372 0.0
H654 H 0.64737 0.45564 0.40548 0.0
H655 H 0.5579 0.47318 0.39549 0.0
H656 H 0.39113 0.43234 0.36618 0.0
H657 H 0.47096 0.46148 0.36899 0.0
H658 H 0.61204 0.29411 0.40268 0.0
H659 H 0.68674 0.32424 0.41053 0.0
H660 H 0.4917 0.289 0.40608 0.0
H661 H 0.40607 0.30692 0.39298 0.0
C662 C 0.03597 0.61801 0.37396 0.0
C663 C 0.06709 0.65187 0.3808 0.0
C664 C 0.94007 0.67162 0.39654 0.0
C665 C 0.91641 0.63473 0.39601 0.0
N666 N 0.94 0.5724 0.38358 0.0
N667 N 0.04243 0.71526 0.38694 0.0
C668 C 0.96292 0.60785 0.38396 0.0
C669 C 0.01679 0.68035 0.38834 0.0
N670 N 0.07615 0.59618 0.35758 0.0
N671 N 0.88974 0.69768 0.40533 0.0
H672 H 0.09522 0.72168 0.37814 0.0
H673 H 0.01002 0.73785 0.39238 0.0
H674 H 0.83202 0.69208 0.4103 0.0
H675 H 0.90418 0.72478 0.4078 0.0
H676 H 0.05364 0.57215 0.35023 0.0
H677 H 0.12758 0.60499 0.34897 0.0
H678 H 0.97618 0.55133 0.37747 0.0
H679 H 0.88705 0.56359 0.3911 0.0
C680 C 0.02565 0.36325 0.8866 0.0
C681 C 0.07576 0.39291 0.89201 0.0
C682 C 0.96073 0.43268 0.89689 0.0
C683 C 0.91145 0.40191 0.89596 0.0
N684 N 0.8951 0.33775 0.88993 0.0
N685 N 0.09203 0.45632 0.90191 0.0
C686 C 0.94326 0.36721 0.89031 0.0
C687 C 0.04347 0.42788 0.89674 0.0
N688 N 0.05691 0.33114 0.87844 0.0
N689 N 0.92788 0.4665 0.89789 0.0
H690 H 0.15271 0.45439 0.90067 0.0
H691 H 0.07282 0.48141 0.90852 0.0
H692 H 0.86748 0.47065 0.89804 0.0
H693 H 0.95954 0.49041 0.89628 0.0
H694 H 0.02355 0.30952 0.87188 0.0
H695 H 0.11683 0.32698 0.87632 0.0
H696 H 0.91499 0.31108 0.88909 0.0
H697 H 0.83454 0.33994 0.89172 0.0
C698 C 0.51064 0.69152 0.8878 0.0
C699 C 0.45747 0.66468 0.87949 0.0
C700 C 0.56349 0.62004 0.87632 0.0
C701 C 0.61508 0.64585 0.88708 0.0
N702 N 0.6462 0.70792 0.89593 0.0
N703 N 0.43517 0.60728 0.85872 0.0
C704 C 0.59131 0.68244 0.89011 0.0
C705 C 0.4849 0.63033 0.87105 0.0
N706 N 0.48306 0.72499 0.89455 0.0
N707 N 0.58815 0.58504 0.87307 0.0
H708 H 0.37693 0.61373 0.85498 0.0
H709 H 0.45273 0.58304 0.8503 0.0
H710 H 0.64603 0.57702 0.8759 0.0
H711 H 0.55129 0.56364 0.86848 0.0
H712 H 0.51685 0.74485 0.90327 0.0
H713 H 0.42469 0.73252 0.89192 0.0
H714 H 0.63461 0.73559 0.89703 0.0
H715 H 0.70542 0.70131 0.89762 0.0
C716 C 0.51846 0.58565 0.61907 0.0
C717 C 0.55122 0.6198 0.62562 0.0
C718 C 0.41966 0.64686 0.62693 0.0
C719 C 0.38757 0.61315 0.61919 0.0
N720 N 0.40195 0.54868 0.61436 0.0
N721 N 0.53322 0.6805 0.64161 0.0
C722 C 0.43573 0.5819 0.61753 0.0
C723 C 0.50168 0.64953 0.63174 0.0
N724 N 0.56677 0.55715 0.6134 0.0
N725 N 0.37212 0.67668 0.62834 0.0
H726 H 0.59299 0.6836 0.64472 0.0
H727 H 0.5001 0.70205 0.64856 0.0
H728 H 0.31164 0.67522 0.62592 0.0
H729 H 0.39239 0.703 0.63077 0.0
H730 H 0.54774 0.53284 0.60551 0.0
H731 H 0.62728 0.55827 0.61566 0.0
H732 H 0.43254 0.52427 0.61532 0.0
H733 H 0.34155 0.54531 0.61295 0.0
C734 C 0.04456 0.38938 0.6284 0.0
C735 C 0.09048 0.36325 0.61522 0.0
C736 C 0.9848 0.31888 0.61882 0.0
C737 C 0.93829 0.34548 0.63106 0.0
N738 N 0.9312 0.40115 0.65485 0.0
N739 N 0.11385 0.30083 0.60407 0.0
C740 C 0.9712 0.37895 0.63857 0.0
C741 C 0.06373 0.32707 0.61262 0.0
N742 N 0.06788 0.42475 0.62949 0.0
N743 N 0.9522 0.28645 0.61225 0.0
H744 H 0.17201 0.3063 0.59955 0.0
H745 H 0.10013 0.27338 0.60357 0.0
H746 H 0.89575 0.27933 0.61781 0.0
H747 H 0.97962 0.26732 0.60069 0.0
H748 H 0.03211 0.44572 0.63596 0.0
H749 H 0.1208 0.4338 0.62213 0.0
H750 H 0.95486 0.42461 0.66272 0.0
H751 H 0.877 0.39422 0.66241 0.0
C752 C 0.26328 0.13751 0.01712 0.0
C753 C 0.23095 0.11169 0.03407 0.0
C754 C 0.20863 0.06987 0.9984 0.0
C755 C 0.23323 0.09716 0.98126 0.0
N756 N 0.27642 0.15826 0.97354 0.0
N757 N 0.16327 0.05527 0.04086 0.0
C758 C 0.25865 0.13135 0.99041 0.0
C759 C 0.20142 0.07826 0.02473 0.0
N760 N 0.30136 0.16715 0.02657 0.0
N761 N 0.19294 0.03583 0.98946 0.0
H762 H 0.15533 0.06077 0.06016 0.0
H763 H 0.13345 0.03227 0.03482 0.0
H764 H 0.19709 0.02891 0.97024 0.0
H765 H 0.1822 0.01372 1.00119 0.0
H766 H 0.3336 0.18483 0.01535 0.0
H767 H 0.30652 0.1725 0.046 0.0
H768 H 0.28618 0.18504 0.97891 0.0
H769 H 0.27652 0.15438 0.95386 0.0
C770 C 0.29516 0.91772 0.03596 0.0
C771 C 0.29922 0.88344 0.04828 0.0
C772 C 0.26322 0.85342 1.00796 0.0
C773 C 0.26561 0.88732 0.99525 0.0
N774 N 0.29203 0.95141 0.99627 0.0
N775 N 0.30031 0.81825 0.04512 0.0
C776 C 0.28388 0.91938 1.00904 0.0
C777 C 0.28627 0.85117 0.03405 0.0
N778 N 0.29887 0.94882 0.0501 0.0
N779 N 0.23858 0.82333 0.99507 0.0
H780 H 0.31972 0.81555 0.06384 0.0
H781 H 0.30006 0.79381 0.0352 0.0
H782 H 0.22364 0.82372 0.97581 0.0
H783 H 0.22705 0.79864 1.00383 0.0
H784 H 0.28648 0.97445 0.04282 0.0
H785 H 0.30863 0.94895 0.06968 0.0
H786 H 0.31521 0.97472 1.00449 0.0
H787 H 0.27997 0.95421 0.9769 0.0
C788 C 0.70246 0.90251 0.50832 0.0
C789 C 0.74901 0.87352 0.49878 0.0
C790 C 0.79347 0.85971 0.54226 0.0
C791 C 0.7513 0.8902 0.55149 0.0
N792 N 0.67712 0.94449 0.543 0.0
N793 N 0.8511 0.82929 0.50588 0.0
C794 C 0.70966 0.9129 0.53434 0.0
C795 C 0.7981 0.85347 0.51554 0.0
N796 N 0.64807 0.91876 0.49292 0.0
N797 N 0.82615 0.83572 0.55903 0.0
H798 H 0.85725 0.82443 0.48642 0.0
H799 H 0.89385 0.81663 0.51692 0.0
H800 H 0.82559 0.83963 0.5787 0.0
H801 H 0.84819 0.81054 0.55355 0.0
H802 H 0.6067 0.93733 0.49944 0.0
H803 H 0.63893 0.91124 0.47402 0.0
H804 H 0.65072 0.96357 0.53119 0.0
H805 H 0.68227 0.95314 0.56185 0.0
C806 C 0.83877 0.13074 0.50502 0.0
C807 C 0.80102 0.10419 0.48972 0.0
C808 C 0.7526 0.07472 0.52827 0.0
C809 C 0.78474 0.10282 0.54348 0.0
N810 N 0.83592 0.16368 0.54491 0.0
N811 N 0.69695 0.06008 0.48731 0.0
C812 C 0.82019 0.13295 0.53135 0.0
C813 C 0.74977 0.07913 0.5015 0.0
N814 N 0.896 0.15222 0.49517 0.0
N815 N 0.72958 0.04274 0.53883 0.0
H816 H 0.68888 0.06447 0.46786 0.0
H817 H 0.65466 0.04353 0.49551 0.0
H818 H 0.73567 0.03673 0.5581 0.0
H819 H 0.71296 0.0206 0.52777 0.0
H820 H 0.92975 0.16944 0.50643 0.0
H821 H 0.91599 0.1501 0.47653 0.0
H822 H 0.85612 0.18738 0.53644 0.0
H823 H 0.82048 0.16663 0.56401 0.0
C824 C 0.77953 0.93386 0.0192 0.0
C825 C 0.79178 0.90151 1.00508 0.0
C826 C 0.76652 0.86525 0.04313 0.0
C827 C 0.76251 0.89753 0.05775 0.0
N828 N 0.77722 0.96245 0.06074 0.0
N829 N 0.81127 0.83667 1.00427 0.0
C830 C 0.7723 0.93188 0.04609 0.0
C831 C 0.78902 0.86722 0.0172 0.0
N832 N 0.77159 0.96627 1.00685 0.0
N833 N 0.74706 0.83281 0.05389 0.0
H834 H 0.83009 0.83705 0.9854 0.0
H835 H 0.81833 0.81148 0.01292 0.0
H836 H 0.73 0.83033 0.07286 0.0
H837 H 0.74093 0.80893 0.04348 0.0
H838 H 0.75442 0.99016 0.01588 0.0
H839 H 0.77525 0.96874 0.98713 0.0
H840 H 0.79295 0.98766 0.05354 0.0
H841 H 0.77183 0.96215 0.08051 0.0
C842 C 0.70266 0.08605 1.00801 0.0
C843 C 0.74699 0.10984 0.99266 0.0
C844 C 0.79611 0.14067 0.0308 0.0
C845 C 0.75686 0.11488 0.04611 0.0
N846 N 0.68755 0.05827 0.04942 0.0
N847 N 0.84477 0.15649 0.98898 0.0
C848 C 0.71452 0.08609 0.03473 0.0
C849 C 0.79685 0.13603 1.00393 0.0
N850 N 0.64779 0.06408 0.99717 0.0
N851 N 0.82937 0.17049 0.0418 0.0
H852 H 0.84426 0.15517 0.96914 0.0
H853 H 0.88879 0.17296 0.99625 0.0
H854 H 0.82959 0.17501 0.0614 0.0
H855 H 0.85119 0.19222 0.03144 0.0
H856 H 0.60843 0.04872 1.00766 0.0
H857 H 0.6365 0.06386 0.97768 0.0
H858 H 0.66302 0.03479 0.04189 0.0
H859 H 0.69665 0.057 0.06904 0.0
C860 C 0.32376 0.11081 0.4832 0.0
C861 C 0.31689 0.07793 0.46944 0.0
C862 C 0.33742 0.04336 0.50862 0.0
C863 C 0.35338 0.07618 0.52177 0.0
N864 N 0.37691 0.14066 0.52037 0.0
N865 N 0.33029 0.01283 0.46786 0.0
C866 C 0.35042 0.10985 0.50876 0.0
C867 C 0.32733 0.04411 0.4818 0.0
N868 N 0.30403 0.14292 0.47187 0.0
N869 N 0.32827 0.01176 0.52181 0.0
H870 H 0.32142 0.01213 0.44821 0.0
H871 H 0.34752 0.98801 0.47553 0.0
H872 H 0.33264 0.01025 0.54157 0.0
H873 H 0.30897 0.9878 0.51343 0.0
H874 H 0.30026 0.16736 0.48174 0.0
H875 H 0.28431 0.14458 0.45309 0.0
H876 H 0.38349 0.16523 0.5109 0.0
H877 H 0.40008 0.14092 0.53875 0.0
C878 C 0.20032 0.91604 0.48896 0.0
C879 C 0.22735 0.88397 0.47679 0.0
C880 C 0.21743 0.85051 0.51701 0.0
C881 C 0.18646 0.8821 0.5289 0.0
N882 N 0.13996 0.94379 0.52602 0.0
N883 N 0.25147 0.81959 0.47768 0.0
C884 C 0.17518 0.91453 0.51478 0.0
C885 C 0.23359 0.85092 0.49043 0.0
N886 N 0.20059 0.9481 0.4759 0.0
N887 N 0.23112 0.82001 0.53115 0.0
H888 H 0.26474 0.81887 0.45832 0.0
H889 H 0.24802 0.79389 0.48571 0.0
H890 H 0.21399 0.81743 0.55009 0.0
H891 H 0.26273 0.79774 0.52457 0.0
H892 H 0.18858 0.9732 0.48408 0.0
H893 H 0.21862 0.95016 0.45701 0.0
H894 H 0.12224 0.96691 0.51624 0.0
H895 H 0.12352 0.94426 0.5451 0.0
C896 C 0.66757 0.57777 1.00865 0.0
C897 C 0.67446 0.60968 0.02353 0.0
C898 C 0.72603 0.64291 0.98707 0.0
C899 C 0.71429 0.6118 0.97174 0.0
N900 N 0.66476 0.55117 0.96638 0.0
N901 N 0.69506 0.67422 0.02632 0.0
C902 C 0.68246 0.57958 0.98208 0.0
C903 C 0.6995 0.64273 0.01258 0.0
N904 N 0.64923 0.54565 0.02006 0.0
N905 N 0.76376 0.6724 0.97733 0.0
H906 H 0.67451 0.67529 0.04499 0.0
H907 H 0.70465 0.69975 0.01856 0.0
H908 H 0.78298 0.67377 0.95853 0.0
H909 H 0.78181 0.69431 0.98836 0.0
H910 H 0.65234 0.52066 0.01087 0.0
H911 H 0.63524 0.54369 0.03931 0.0
H912 H 0.63357 0.5285 0.97222 0.0
H913 H 0.67736 0.55114 0.94696 0.0
C914 C 0.76386 0.44913 0.98282 0.0
C915 C 0.73656 0.4172 0.97059 0.0
C916 C 0.70226 0.39117 0.01202 0.0
C917 C 0.73752 0.42129 0.02431 0.0
N918 N 0.80558 0.47818 0.02211 0.0
N919 N 0.68712 0.35623 0.97317 0.0
C920 C 0.76933 0.45012 1.00989 0.0
C921 C 0.70703 0.38789 0.98508 0.0
N922 N 0.78277 0.47872 0.96849 0.0
N923 N 0.66385 0.36575 0.02613 0.0
H924 H 0.68899 0.35285 0.95347 0.0
H925 H 0.67406 0.3324 0.98282 0.0
H926 H 0.66207 0.36623 0.04597 0.0
H927 H 0.62896 0.34561 0.0182 0.0
H928 H 0.79663 0.50393 0.97612 0.0
H929 H 0.77854 0.47899 0.94868 0.0
H930 H 0.83731 0.4982 0.01286 0.0
H931 H 0.80772 0.48041 0.0419 0.0
C932 C 0.24918 0.37769 0.48932 0.0
C933 C 0.19455 0.40292 0.47883 0.0
C934 C 0.16761 0.42551 0.52218 0.0
C935 C 0.21195 0.39632 0.53242 0.0
N936 N 0.28789 0.34194 0.52583 0.0
N937 N 0.13889 0.46258 0.48535 0.0
C938 C 0.25084 0.37172 0.51601 0.0
C939 C 0.16341 0.43021 0.49525 0.0
N940 N 0.30621 0.36273 0.47441 0.0
N941 N 0.12895 0.44864 0.53822 0.0
H942 H 0.14977 0.47009 0.4666 0.0
H943 H 0.11959 0.48436 0.49628 0.0
H944 H 0.13494 0.44773 0.55797 0.0
H945 H 0.08712 0.4673 0.53211 0.0
H946 H 0.35056 0.34613 0.48152 0.0
H947 H 0.31835 0.37206 0.45617 0.0
H948 H 0.30899 0.32084 0.51452 0.0
H949 H 0.29138 0.33669 0.54531 0.0
C950 C 0.22326 0.65379 0.53149 0.0
C951 C 0.21726 0.61873 0.54245 0.0
C952 C 0.2146 0.59117 0.49979 0.0
C953 C 0.21961 0.62628 0.48886 0.0
N954 N 0.2144 0.69122 0.49357 0.0
N955 N 0.19881 0.55429 0.5377 0.0
C956 C 0.22019 0.65768 0.50452 0.0
C957 C 0.21008 0.58749 0.52676 0.0
N958 N 0.23302 0.68333 0.54693 0.0
N959 N 0.2174 0.56129 0.48436 0.0
H960 H 0.19978 0.55011 0.55732 0.0
H961 H 0.18419 0.53103 0.52759 0.0
H962 H 0.21713 0.56289 0.46456 0.0
H963 H 0.22443 0.5349 0.49093 0.0
H964 H 0.24776 0.70897 0.54033 0.0
H965 H 0.23018 0.68193 0.56674 0.0
H966 H 0.20618 0.71512 0.50377 0.0
H967 H 0.21163 0.6951 0.47393 0.0
C968 C 0.24544 0.42578 0.02796 0.0
C969 C 0.27979 0.39814 0.04313 0.0
C970 C 0.34618 0.374 1.00513 0.0
C971 C 0.30628 0.39972 0.98968 0.0
N972 N 0.19925 0.44251 0.98607 0.0
N973 N 0.34771 0.34074 0.0449 0.0
C974 C 0.25032 0.42338 1.00099 0.0
C975 C 0.32541 0.37058 0.03128 0.0
N976 N 0.21135 0.45535 0.03912 0.0
N977 N 0.40664 0.35412 0.99532 0.0
H978 H 0.33194 0.33691 0.06388 0.0
H979 H 0.37474 0.31825 0.03666 0.0
H980 H 0.42565 0.35663 0.97657 0.0
H981 H 0.4429 0.33781 1.00646 0.0
H982 H 0.19296 0.47796 0.02881 0.0
H983 H 0.2085 0.459 0.05878 0.0
H984 H 0.1529 0.45755 0.99353 0.0
H985 H 0.19716 0.43991 0.96632 0.0
C986 C 0.29218 0.65987 0.9917 0.0
C987 C 0.22872 0.64585 0.97721 0.0
C988 C 0.19036 0.60966 0.01441 0.0
C989 C 0.24432 0.62898 0.02996 0.0
N990 N 0.33861 0.6773 0.0334 0.0
N991 N 0.11063 0.61022 0.97619 0.0
C992 C 0.29339 0.6553 0.01859 0.0
C993 C 0.17622 0.62122 0.98887 0.0
N994 N 0.35327 0.67636 0.97973 0.0
N995 N 0.15378 0.57974 0.02386 0.0
H996 H 0.09671 0.61876 0.95783 0.0
H997 H 0.06636 0.59535 0.98481 0.0
H998 H 0.16448 0.56988 0.04215 0.0
H999 H 0.11954 0.56263 0.0127 0.0
H1000 H 0.40417 0.68406 0.98922 0.0
H1001 H 0.35734 0.67829 0.95998 0.0
H1002 H 0.36884 0.69948 0.02619 0.0
H1003 H 0.33993 0.67565 0.05316 0.0
C1004 C 0.7407 0.58649 0.51577 0.0
C1005 C 0.7851 0.61391 0.52819 0.0
C1006 C 0.78946 0.64731 0.48796 0.0
C1007 C 0.76089 0.61647 0.4747 0.0
N1008 N 0.71908 0.55398 0.47639 0.0
N1009 N 0.86287 0.66827 0.52439 0.0
C1010 C 0.73861 0.5853 0.4887 0.0
C1011 C 0.81206 0.64397 0.51389 0.0
N1012 N 0.69817 0.56237 0.52971 0.0
N1013 N 0.79427 0.67994 0.47584 0.0
H1014 H 0.88518 0.66579 0.54278 0.0
H1015 H 0.88959 0.68864 0.51385 0.0
H1016 H 0.77525 0.68362 0.45712 0.0
H1017 H 0.80864 0.70392 0.48523 0.0
H1018 H 0.65969 0.54391 0.52148 0.0
H1019 H 0.69364 0.56378 0.54947 0.0
H1020 H 0.707 0.52995 0.48588 0.0
H1021 H 0.72167 0.55085 0.45671 0.0
C1022 C 0.66702 0.36347 0.5274 0.0
C1023 C 0.69031 0.39241 0.54356 0.0
C1024 C 0.74142 0.42466 0.50629 0.0
C1025 C 0.72611 0.39406 0.49065 0.0
N1026 N 0.69352 0.3305 0.48847 0.0
N1027 N 0.77311 0.44511 0.54865 0.0
C1028 C 0.69484 0.36223 0.50189 0.0
C1029 C 0.73443 0.42145 0.53312 0.0
N1030 N 0.61552 0.33802 0.53586 0.0
N1031 N 0.75929 0.45736 0.49571 0.0
H1032 H 0.7745 0.44257 0.56834 0.0
H1033 H 0.81194 0.46447 0.54182 0.0
H1034 H 0.75996 0.46193 0.47615 0.0
H1035 H 0.7652 0.4809 0.50651 0.0
H1036 H 0.5914 0.31834 0.52398 0.0
H1037 H 0.59013 0.33895 0.55387 0.0
H1038 H 0.67771 0.30583 0.49657 0.0
H1039 H 0.71644 0.32812 0.47015 0.0
C1040 C 0.16133 0.01871 0.12384 0.0
C1041 C 0.1902 0.04668 0.13983 0.0
C1042 C 0.29174 0.00556 0.15631 0.0
C1043 C 0.26799 0.97904 0.13833 0.0
N1044 N 0.18341 0.96017 0.10405 0.0
N1045 N 0.28296 0.06779 0.17111 0.0
C1046 C 0.2035 0.98554 0.12188 0.0
C1047 C 0.2551 0.0403 0.15618 0.0
N1048 N 0.09125 0.02318 0.1116 0.0
N1049 N 0.3471 0.99694 0.17417 0.0
H1050 H 0.25515 0.09287 0.1727 0.0
H1051 H 0.33594 0.06664 0.18085 0.0
H1052 H 0.37554 0.97189 0.17472 0.0
H1053 H 0.3611 0.01341 0.1896 0.0
H1054 H 0.06267 1.00257 0.1018 0.0
H1055 H 0.05744 0.04665 0.11321 0.0
H1056 H 0.14377 0.96495 0.08936 0.0
H1057 H 0.21046 0.93487 0.10281 0.0
C1058 C 0.81379 0.99613 0.40681 0.0
C1059 C 0.82867 0.0169 0.38463 0.0
C1060 C 0.73856 0.97753 0.36106 0.0
C1061 C 0.71212 0.96218 0.38425 0.0
N1062 N 0.71505 0.96423 0.43039 0.0
N1063 N 0.79014 0.03124 0.34129 0.0
C1064 C 0.74708 0.97345 0.40752 0.0
C1065 C 0.78735 0.0086 0.36181 0.0
N1066 N 0.86473 0.9967 0.42684 0.0
N1067 N 0.71982 0.96188 0.3383 0.0
H1068 H 0.81998 0.05576 0.34131 0.0
H1069 H 0.75492 0.02765 0.32526 0.0
H1070 H 0.68916 0.9376 0.33694 0.0
H1071 H 0.74336 0.97055 0.32107 0.0
H1072 H 0.85894 0.97966 0.44254 0.0
H1073 H 0.9175 0.01073 0.42633 0.0
H1074 H 0.73546 0.97463 0.44763 0.0
H1075 H 0.66315 0.94978 0.43204 0.0
C1076 C 0.76931 0.98272 0.86735 0.0
C1077 C 0.80466 0.97538 0.89126 0.0
C1078 C 0.71315 0.01783 0.91152 0.0
C1079 C 0.6843 0.02845 0.88726 0.0
N1080 N 0.69944 0.02657 0.84166 0.0
N1081 N 0.82297 0.99352 0.93505 0.0
C1082 C 0.71667 0.01249 0.86502 0.0
C1083 C 0.78033 0.99512 0.91307 0.0
N1084 N 0.78323 0.96041 0.84708 0.0
N1085 N 0.67443 0.0276 0.93315 0.0
H1086 H 0.87423 0.97832 0.93675 0.0
H1087 H 0.81192 0.01039 0.95058 0.0
H1088 H 0.62379 0.04339 0.93308 0.0
H1089 H 0.68849 0.01678 0.95091 0.0
H1090 H 0.75327 0.96263 0.82985 0.0
H1091 H 0.81812 0.93726 0.84842 0.0
H1092 H 0.72673 0.01802 0.82497 0.0
H1093 H 0.66486 0.04966 0.83942 0.0
C1094 C 0.23717 0.98146 0.66052 0.0
C1095 C 0.20834 0.96596 0.6376 0.0
C1096 C 0.31991 0.99137 0.61475 0.0
C1097 C 0.34114 0.01145 0.63678 0.0
N1098 N 0.30778 0.03136 0.67926 0.0
N1099 N 0.21475 0.96258 0.5917 0.0
C1100 C 0.29666 0.00802 0.65936 0.0
C1101 C 0.24753 0.9727 0.61432 0.0
N1102 N 0.20941 0.97024 0.68351 0.0
N1103 N 0.37027 0.98846 0.59471 0.0
H1104 H 0.16056 0.94992 0.59044 0.0
H1105 H 0.23789 0.97003 0.57414 0.0
H1106 H 0.42547 1.0003 0.59463 0.0
H1107 H 0.36069 0.97086 0.57949 0.0
H1108 H 0.23395 0.97827 0.70079 0.0
H1109 H 0.16795 0.94984 0.68529 0.0
H1110 H 0.27171 0.03193 0.69521 0.0
H1111 H 0.34619 0.05316 0.67849 0.0
C1112 C 0.7909 0.49533 0.16026 0.0
C1113 C 0.83478 0.48832 0.13786 0.0
C1114 C 0.74603 0.52781 0.11365 0.0
C1115 C 0.70651 0.53728 0.13648 0.0
N1116 N 0.7063 0.53742 0.18245 0.0
N1117 N 0.8654 0.50512 0.09463 0.0
C1118 C 0.73349 0.52327 0.16009 0.0
C1119 C 0.81585 0.5068 0.11496 0.0
N1120 N 0.80038 0.47401 0.18131 0.0
N1121 N 0.7146 0.53684 0.0906 0.0
H1122 H 0.91777 0.49053 0.09495 0.0
H1123 H 0.85844 0.52122 0.0785 0.0
H1124 H 0.66139 0.55043 0.08877 0.0
H1125 H 0.73698 0.52739 0.07338 0.0
H1126 H 0.76407 0.47577 0.19717 0.0
H1127 H 0.83852 0.45193 0.18193 0.0
H1128 H 0.72963 0.5305 0.20014 0.0
H1129 H 0.66688 0.55903 0.18319 0.0
C1130 C 0.20364 0.51762 0.36312 0.0
C1131 C 0.20679 0.49511 0.38495 0.0
C1132 C 0.29632 0.53803 0.40578 0.0
C1133 C 0.29984 0.55832 0.38296 0.0
N1134 N 0.25982 0.56772 0.33958 0.0
N1135 N 0.26446 0.48072 0.4256 0.0
C1136 C 0.25382 0.54828 0.36157 0.0
C1137 C 0.25469 0.50469 0.40605 0.0
N1138 N 0.15252 0.50955 0.34392 0.0
N1139 N 0.33492 0.55013 0.42696 0.0
H1140 H 0.23729 0.45561 0.42586 0.0
H1141 H 0.30437 0.484 0.44039 0.0
H1142 H 0.36627 0.57428 0.42732 0.0
H1143 H 0.33147 0.53789 0.44473 0.0
H1144 H 0.14214 0.52616 0.32828 0.0
H1145 H 0.1163 0.48695 0.34446 0.0
H1146 H 0.23642 0.5596 0.32219 0.0
H1147 H 0.29016 0.5921 0.33871 0.0
C1148 C 0.35012 0.50998 0.88492 0.0
C1149 C 0.31937 0.47913 0.87239 0.0
C1150 C 0.20205 0.51387 0.86031 0.0
C1151 C 0.2291 0.54338 0.87528 0.0
N1152 N 0.32472 0.56841 0.90416 0.0
N1153 N 0.2169 0.45062 0.84818 0.0
C1154 C 0.30231 0.54122 0.88807 0.0
C1155 C 0.24584 0.48088 0.85985 0.0
N1156 N 0.42619 0.50979 0.89302 0.0
N1157 N 0.13579 0.51782 0.84594 0.0
H1158 H 0.24941 0.42683 0.84608 0.0
H1159 H 0.15963 0.44829 0.84168 0.0
H1160 H 0.10167 0.54132 0.84613 0.0
H1161 H 0.1171 0.49899 0.83251 0.0
H1162 H 0.45489 0.53266 0.89986 0.0
H1163 H 0.46333 0.48755 0.89063 0.0
H1164 H 0.37279 0.56672 0.91629 0.0
H1165 H 0.29161 0.59175 0.90692 0.0
C1166 C 0.72301 0.53221 0.6564 0.0
C1167 C 0.79496 0.53318 0.64304 0.0
C1168 C 0.77634 0.47063 0.62873 0.0
C1169 C 0.70111 0.47048 0.64032 0.0
N1170 N 0.60028 0.50124 0.66416 0.0
N1171 N 0.89145 0.50438 0.61634 0.0
C1172 C 0.67364 0.50136 0.65385 0.0
C1173 C 0.82208 0.50262 0.62924 0.0
N1174 N 0.70274 0.56059 0.67185 0.0
N1175 N 0.80453 0.43994 0.61736 0.0
H1176 H 0.93065 0.52577 0.61832 0.0
H1177 H 0.9096 0.48544 0.60289 0.0
H1178 H 0.77024 0.41736 0.61389 0.0
H1179 H 0.86229 0.43625 0.61174 0.0
H1180 H 0.65488 0.56052 0.68402 0.0
H1181 H 0.73722 0.58365 0.67391 0.0
H1182 H 0.57267 0.52417 0.67147 0.0
H1183 H 0.56457 0.47843 0.66429 0.0
C1184 C 0.03311 0.27028 0.15737 0.0
C1185 C 0.05171 0.25407 0.13363 0.0
C1186 C 0.00443 0.3088 0.11206 0.0
C1187 C 0.96955 0.32086 0.13511 0.0
N1188 N 0.94747 0.31126 0.18011 0.0
N1189 N 0.0505 0.25734 0.08768 0.0
C1190 C 0.98419 0.30155 0.15804 0.0
C1191 C 0.03737 0.27339 0.11074 0.0
N1192 N 0.06259 0.25573 0.17929 0.0
N1193 N 0.00781 0.33156 0.09161 0.0
H1194 H 0.07405 0.2314 0.0857 0.0
H1195 H 0.03236 0.26877 0.07052 0.0
H1196 H 0.98767 0.35828 0.09238 0.0
H1197 H 0.03881 0.3254 0.0751 0.0
H1198 H 0.05753 0.26836 0.19698 0.0
H1199 H 0.09951 0.23313 0.17927 0.0
H1200 H 0.94964 0.2956 0.19659 0.0
H1201 H 0.90936 0.33322 0.18157 0.0
C1202 C 0.41473 0.74899 0.11593 0.0
C1203 C 0.45135 0.77691 0.13025 0.0
C1204 C 0.56204 0.73615 0.13991 0.0
C1205 C 0.5259 0.70848 0.12527 0.0
N1206 N 0.41627 0.68678 0.10111 0.0
N1207 N 0.56337 0.79888 0.15369 0.0
C1208 C 0.45182 0.71448 0.1138 0.0
C1209 C 0.526 0.77096 0.14164 0.0
N1210 N 0.34751 0.75635 0.10267 0.0
N1211 N 0.62924 0.72855 0.15312 0.0
H1212 H 0.53721 0.82388 0.15728 0.0
H1213 H 0.62188 0.7982 0.15912 0.0
H1214 H 0.65861 0.70379 0.15187 0.0
H1215 H 0.65371 0.74568 0.16669 0.0
H1216 H 0.32256 0.73881 0.08945 0.0
H1217 H 0.31863 0.78123 0.10343 0.0
H1218 H 0.35685 0.68638 0.09685 0.0
H1219 H 0.44619 0.66338 0.09579 0.0
C1220 C 0.4992 0.74598 0.36527 0.0
C1221 C 0.47556 0.73123 0.38885 0.0
C1222 C 0.53212 0.78353 0.41105 0.0
C1223 C 0.56662 0.79513 0.38792 0.0
N1224 N 0.59215 0.78376 0.3433 0.0
N1225 N 0.47568 0.73397 0.4348 0.0
C1226 C 0.55194 0.77568 0.36499 0.0
C1227 C 0.49356 0.7495 0.41195 0.0
N1228 N 0.47052 0.73194 0.34309 0.0
N1229 N 0.53343 0.80571 0.43192 0.0
H1230 H 0.44603 0.70945 0.4364 0.0
H1231 H 0.49553 0.74403 0.45219 0.0
H1232 H 0.5581 0.83151 0.43165 0.0
H1233 H 0.50257 0.80032 0.44855 0.0
H1234 H 0.47806 0.74451 0.32553 0.0
H1235 H 0.43285 0.70978 0.34261 0.0
H1236 H 0.59004 0.7677 0.32698 0.0
H1237 H 0.63329 0.80441 0.34221 0.0
C1238 C 0.99668 0.27625 0.37 0.0
C1239 C 0.05105 0.28784 0.38875 0.0
C1240 C 0.05049 0.22727 0.40821 0.0
C1241 C 0.9953 0.21561 0.38959 0.0
N1242 N 0.91177 0.22894 0.35365 0.0
N1243 N 0.12353 0.27685 0.42732 0.0
C1244 C 0.96705 0.24016 0.37077 0.0
C1245 C 0.07679 0.2639 0.40819 0.0
N1246 N 0.97503 0.29971 0.35107 0.0
N1247 N 0.0772 0.20325 0.42609 0.0
H1248 H 0.14486 0.30328 0.42768 0.0
H1249 H 0.13816 0.26243 0.44364 0.0
H1250 H 0.053 0.17765 0.42876 0.0
H1251 H 0.12477 0.20798 0.43799 0.0
H1252 H 0.94274 0.29253 0.33507 0.0
H1253 H 0.99268 0.32671 0.35064 0.0
H1254 H 0.88205 0.24602 0.3412 0.0
H1255 H 0.89265 0.20227 0.35229 0.0
C1256 C 0.98146 0.79265 0.91701 0.0
C1257 C 0.94736 0.80743 0.89457 0.0
C1258 C 0.01672 0.76187 0.86905 0.0
C1259 C 0.0397 0.74368 0.89155 0.0
N1260 N 0.0402 0.74007 0.93732 0.0
N1261 N 0.9209 0.80115 0.84955 0.0
C1262 C 0.02138 0.7587 0.91569 0.0
C1263 C 0.96254 0.79102 0.8706 0.0
N1264 N 0.97776 0.81156 0.93937 0.0
N1265 N 0.04704 0.75147 0.84616 0.0
H1266 H 0.87845 0.82149 0.84975 0.0
H1267 H 0.92275 0.78664 0.83252 0.0
H1268 H 0.08857 0.73084 0.84458 0.0
H1269 H 0.03751 0.76586 0.82937 0.0
H1270 H 0.00776 0.80385 0.95578 0.0
H1271 H 0.95126 0.837 0.94082 0.0
H1272 H 0.02059 0.74752 0.95535 0.0
H1273 H 0.07152 0.71575 0.93702 0.0
C1274 C 0.47998 0.22105 0.91119 0.0
C1275 C 0.50366 0.20294 0.88853 0.0
C1276 C 0.46205 0.25562 0.86339 0.0
C1277 C 0.44767 0.27538 0.88613 0.0
N1278 N 0.45514 0.2786 0.93202 0.0
N1279 N 0.52948 0.20519 0.8435 0.0
C1280 C 0.4589 0.25845 0.91017 0.0
C1281 C 0.49802 0.22084 0.86474 0.0
N1282 N 0.47891 0.20279 0.93381 0.0
N1283 N 0.43916 0.26967 0.84049 0.0
H1284 H 0.55497 0.17946 0.84361 0.0
H1285 H 0.53557 0.21884 0.82628 0.0
H1286 H 0.4107 0.29463 0.83885 0.0
H1287 H 0.44108 0.25501 0.82353 0.0
H1288 H 0.45292 0.21311 0.95022 0.0
H1289 H 0.4991 0.17627 0.93588 0.0
H1290 H 0.4718 0.26879 0.94981 0.0
H1291 H 0.44218 0.30622 0.93227 0.0
C1292 C 0.42868 0.22396 0.63388 0.0
C1293 C 0.47888 0.19736 0.62323 0.0
C1294 C 0.57133 0.24435 0.61047 0.0
C1295 C 0.52665 0.27028 0.6242 0.0
N1296 N 0.41576 0.2848 0.65082 0.0
N1297 N 0.60041 0.18092 0.60291 0.0
C1298 C 0.45552 0.26024 0.63617 0.0
C1299 C 0.55093 0.20718 0.61193 0.0
N1300 N 0.35547 0.21449 0.64179 0.0
N1301 N 0.63099 0.25548 0.59509 0.0
H1302 H 0.5859 0.15349 0.60241 0.0
H1303 H 0.65776 0.18598 0.59737 0.0
H1304 H 0.64573 0.28267 0.59276 0.0
H1305 H 0.66073 0.23828 0.58267 0.0
H1306 H 0.31282 0.23324 0.6471 0.0
H1307 H 0.33506 0.18791 0.64117 0.0
H1308 H 0.36865 0.27804 0.66236 0.0
H1309 H 0.43334 0.31161 0.65314 0.0
C1310 C 0.94127 0.75241 0.6559 0.0
C1311 C 0.93004 0.73325 0.63279 0.0
C1312 C 0.98745 0.78371 0.60908 0.0
C1313 C 0.00876 0.8003 0.63252 0.0
N1314 N 0.0131 0.79906 0.67831 0.0
N1315 N 0.94902 0.7286 0.58734 0.0
C1316 C 0.98703 0.78444 0.65598 0.0
C1317 C 0.95374 0.74856 0.60927 0.0
N1318 N 0.90732 0.74003 0.67773 0.0
N1319 N 1.00008 0.80141 0.58663 0.0
H1320 H 0.92446 0.70284 0.58649 0.0
H1321 H 0.97447 0.73636 0.57023 0.0
H1322 H 0.02673 0.82669 0.5856 0.0
H1323 H 0.97913 0.79239 0.56913 0.0
H1324 H 0.90708 0.75449 0.69477 0.0
H1325 H 0.87285 0.71676 0.67811 0.0
H1326 H 0.00732 0.78635 0.69588 0.0
H1327 H 0.04581 0.82277 0.67899 0.0
C1328 C 0.00491 0.10326 0.2742 0.0
C1329 C 0.00551 0.13341 0.29095 0.0
C1330 C 0.02522 0.17441 0.25487 0.0
C1331 C 0.03201 0.14388 0.23855 0.0
N1332 N 0.04433 0.07905 0.23337 0.0
N1333 N 0.02755 0.19714 0.29823 0.0
C1334 C 0.02623 0.10821 0.24839 0.0
C1335 C 0.0186 0.16893 0.28158 0.0
N1336 N 0.98116 0.07009 0.28274 0.0
N1337 N 0.02241 0.20852 0.24479 0.0
H1338 H 0.02335 0.19412 0.31792 0.0
H1339 H 0.04538 0.22291 0.29275 0.0
H1340 H 0.02699 0.21348 0.22532 0.0
H1341 H 0.00923 0.2316 0.2554 0.0
H1342 H 0.97149 0.04806 0.27073 0.0
H1343 H 0.96367 0.06544 0.30146 0.0
H1344 H 0.04919 0.05271 0.24032 0.0
H1345 H 0.06216 0.08148 0.21448 0.0
C1346 C 0.50065 0.84965 0.23897 0.0
C1347 C 0.44058 0.87093 0.22752 0.0
C1348 C 0.41803 0.90132 0.26867 0.0
C1349 C 0.47435 0.87818 0.28027 0.0
N1350 N 0.55274 0.82387 0.2778 0.0
N1351 N 0.33199 0.91218 0.23256 0.0
C1352 C 0.51029 0.85028 0.26581 0.0
C1353 C 0.39616 0.89536 0.24272 0.0
N1354 N 0.5524 0.83071 0.2242 0.0
N1355 N 0.38806 0.92998 0.28201 0.0
H1356 H 0.31394 0.90814 0.21378 0.0
H1357 H 0.29276 0.92749 0.24328 0.0
H1358 H 0.40217 0.93507 0.301 0.0
H1359 H 0.35378 0.95021 0.27376 0.0
H1360 H 0.60184 0.81783 0.23155 0.0
H1361 H 0.55151 0.83121 0.20439 0.0
H1362 H 0.5735 0.80078 0.26852 0.0
H1363 H 0.55982 0.82308 0.29752 0.0
C1364 C 0.1082 0.90679 0.75257 0.0
C1365 C 0.05412 0.88756 0.73695 0.0
C1366 C 0.98672 0.8667 0.77555 0.0
C1367 C 0.03221 0.89073 0.79061 0.0
N1368 N 0.13207 0.93647 0.7931 0.0
N1369 N 0.94136 0.84866 0.73371 0.0
C1370 C 0.09266 0.91115 0.77911 0.0
C1371 C 0.99337 0.86728 0.74853 0.0
N1372 N 0.17443 0.92102 0.74222 0.0
N1373 N 0.93877 0.84237 0.78725 0.0
H1374 H 0.94774 0.84556 0.71411 0.0
H1375 H 0.88974 0.8376 0.74063 0.0
H1376 H 0.93326 0.84102 0.80695 0.0
H1377 H 0.91046 0.82136 0.77778 0.0
H1378 H 0.2197 0.93187 0.75307 0.0
H1379 H 0.18817 0.91888 0.72304 0.0
H1380 H 0.1696 0.95546 0.78514 0.0
H1381 H 0.12271 0.94058 0.81249 0.0
C1382 C 0.52627 0.07228 0.77729 0.0
C1383 C 0.50672 0.10464 0.79051 0.0
C1384 C 0.48713 0.1362 0.74999 0.0
C1385 C 0.50126 0.10322 0.73676 0.0
N1386 N 0.51743 0.03818 0.73796 0.0
N1387 N 0.45258 0.16499 0.78997 0.0
C1388 C 0.51669 0.07077 0.75042 0.0
C1389 C 0.48221 0.1359 0.77701 0.0
N1390 N 0.55363 0.04287 0.79043 0.0
N1391 N 0.48163 0.16806 0.73683 0.0
H1392 H 0.44695 0.16529 0.80972 0.0
H1393 H 0.42679 0.18727 0.78109 0.0
H1394 H 0.48675 0.16953 0.71708 0.0
H1395 H 0.4794 0.19338 0.7456 0.0
H1396 H 0.57843 0.02026 0.78166 0.0
H1397 H 0.55571 0.04187 0.81025 0.0
H1398 H 0.51995 0.01329 0.74724 0.0
H1399 H 0.50785 0.03561 0.71843 0.0
C1400 C 0.44771 0.59529 0.24501 0.0
C1401 C 0.47799 0.62422 0.23026 0.0
C1402 C 0.49554 0.66064 0.26911 0.0
C1403 C 0.46112 0.6326 0.28367 0.0
N1404 N 0.39515 0.57495 0.28535 0.0
N1405 N 0.51522 0.68698 0.22732 0.0
C1406 C 0.43363 0.60062 0.2715 0.0
C1407 C 0.49739 0.65767 0.24207 0.0
N1408 N 0.43747 0.56192 0.23415 0.0
N1409 N 0.52805 0.68979 0.28115 0.0
H1410 H 0.5154 0.68597 0.20746 0.0
H1411 H 0.52235 0.71306 0.23453 0.0
H1412 H 0.52669 0.69311 0.30085 0.0
H1413 H 0.56152 0.70922 0.2719 0.0
H1414 H 0.42474 0.53864 0.24448 0.0
H1415 H 0.44784 0.55661 0.21496 0.0
H1416 H 0.3648 0.55348 0.27716 0.0
H1417 H 0.38946 0.57618 0.30508 0.0
C1418 C 0.99765 0.43213 0.26266 0.0
C1419 C 0.02486 0.40277 0.24746 0.0
C1420 C 0.06443 0.37016 0.28633 0.0
C1421 C 0.04219 0.40058 0.30154 0.0
N1422 N 0.99986 0.46311 0.30337 0.0
N1423 N 0.09356 0.34587 0.24432 0.0
C1424 C 0.0117 0.4322 0.28948 0.0
C1425 C 0.06161 0.37254 0.25917 0.0
N1426 N 0.95765 0.46006 0.25144 0.0
N1427 N 0.08395 0.33813 0.29782 0.0
H1428 H 0.08954 0.34583 0.22451 0.0
H1429 H 0.1291 0.32524 0.25142 0.0
H1430 H 0.08533 0.33473 0.31749 0.0
H1431 H 0.09173 0.31386 0.288 0.0
H1432 H 0.92673 0.47962 0.26164 0.0
H1433 H 0.95157 0.46268 0.23176 0.0
H1434 H 0.98754 0.48823 0.29527 0.0
H1435 H 0.00852 0.46463 0.32294 0.0
C1436 C 0.53429 0.40407 0.73269 0.0
C1437 C 0.51621 0.37179 0.71914 0.0
C1438 C 0.48022 0.3424 0.75947 0.0
C1439 C 0.48992 0.3758 0.77254 0.0
N1440 N 0.51526 0.44002 0.77092 0.0
N1441 N 0.46003 0.31189 0.71913 0.0
C1442 C 0.51432 0.40707 0.75899 0.0
C1443 C 0.48619 0.34134 0.73242 0.0
N1444 N 0.5732 0.43141 0.72067 0.0
N1445 N 0.46803 0.31131 0.77299 0.0
H1446 H 0.46263 0.31005 0.69937 0.0
H1447 H 0.42936 0.29069 0.72746 0.0
H1448 H 0.46463 0.31089 0.7928 0.0
H1449 H 0.46889 0.28556 0.76485 0.0
H1450 H 0.59544 0.45396 0.73012 0.0
H1451 H 0.58981 0.43002 0.7016 0.0
H1452 H 0.52394 0.46438 0.76137 0.0
H1453 H 0.50067 0.44347 0.79003 0.0
C1454 C 0.03256 0.60267 0.75399 0.0
C1455 C 1.00023 0.63343 0.74147 0.0
C1456 C 1.00189 0.66711 0.78185 0.0
C1457 C 0.03971 0.63736 0.79391 0.0
N1458 N 0.10545 0.57971 0.79029 0.0
N1459 N 0.97062 0.69739 0.74217 0.0
C1460 C 0.05931 0.60596 0.77961 0.0
C1461 C 0.98981 0.66641 0.75503 0.0
N1462 N 0.03428 0.56983 0.74191 0.0
N1463 N 0.97374 0.69529 0.79612 0.0
H1464 H 0.96289 0.69809 0.72248 0.0
H1465 H 0.97013 0.72296 0.75061 0.0
H1466 H 0.979 0.69638 0.81588 0.0
H1467 H 0.93857 0.71584 0.7887 0.0
H1468 H 0.04907 0.54571 0.75104 0.0
H1469 H 0.01419 0.56602 0.72335 0.0
H1470 H 0.12829 0.5579 0.78007 0.0
H1471 H 0.12725 0.58161 0.8088 0.0
loop_
_geom_bond_atom_site_label_1
_geom_bond_atom_site_label_2
_geom_bond_distance
_geom_bond_site_symmetry_2
_ccdc_geom_bond_type
O0 Tb1 2.292 . S
O0 C3 1.255 . S
Tb1 O0 2.292 . S
Tb1 O17 2.326 . S
Tb1 O19 2.500 . S
Tb1 O20 2.473 . S
Tb1 O23 2.324 . S
Eu2 O6 2.292 1_455 S
Eu2 C7 2.852 1_455 S
Eu2 O18 2.324 . S
Eu2 O22 2.326 . S
Eu2 O24 2.500 1_455 S
Eu2 O25 2.473 1_455 S
C3 O0 1.255 . S
C3 O4 1.247 . S
O4 C3 1.247 . S
C5 O17 1.242 . S
C5 O18 1.258 . S
O6 Eu2 2.292 1_655 S
O6 C8 1.255 . S
C7 Eu2 2.852 1_655 S
C7 C11 1.503 . S
C7 O24 1.273 . S
C7 O25 1.257 . S
C8 O6 1.255 . S
C8 O9 1.247 1_655 S
O9 C8 1.247 1_455 S
C10 O22 1.242 . S
C10 O23 1.258 . S
C11 C7 1.503 . S
C11 C12 1.379 . S
C11 C16 1.392 . S
C12 C11 1.379 . S
C12 C13 1.404 . S
C12 H26 0.929 . S
C13 C12 1.404 . S
C13 C14 1.389 . S
C14 C13 1.389 . S
C14 C15 1.399 . S
C14 H27 0.931 . S
C15 C14 1.399 . S
C15 C16 1.390 . S
C16 C11 1.392 . S
C16 C15 1.390 . S
C16 H28 0.929 . S
O17 Tb1 2.326 . S
O17 C5 1.242 . S
O18 Eu2 2.324 . S
O18 C5 1.258 . S
O19 Tb1 2.500 . S
O19 C21 1.273 . S
O20 Tb1 2.473 . S
O20 C21 1.257 . S
C21 O19 1.273 . S
C21 O20 1.257 . S
O22 Eu2 2.326 . S
O22 C10 1.242 . S
O23 Tb1 2.324 . S
O23 C10 1.258 . S
O24 Eu2 2.500 1_655 S
O24 C7 1.273 . S
O25 Eu2 2.473 1_655 S
O25 C7 1.257 . S
H26 C12 0.929 . S
H27 C14 0.931 . S
H28 C16 0.929 . S
O29 Tb30 2.292 . S
O29 C32 1.255 . S
Tb30 O29 2.292 . S
Tb30 O46 2.326 . S
Tb30 O48 2.500 . S
Tb30 O49 2.473 . S
Tb30 O52 2.324 . S
Eu31 O35 2.292 . S
Eu31 C36 2.852 . S
Eu31 O47 2.324 . S
Eu31 O51 2.326 . S
Eu31 O53 2.500 . S
Eu31 O54 2.473 . S
C32 O29 1.255 . S
C32 O33 1.247 . S
O33 C32 1.247 . S
C34 O46 1.242 . S
C34 O47 1.258 . S
O35 Eu31 2.292 . S
O35 C37 1.255 . S
C36 Eu31 2.852 . S
C36 C40 1.503 . S
C36 O53 1.273 . S
C36 O54 1.257 . S
C37 O35 1.255 . S
C37 O38 1.247 . S
O38 C37 1.247 . S
C39 O51 1.242 . S
C39 O52 1.258 . S
C40 C36 1.503 . S
C40 C41 1.379 . S
C40 C45 1.392 . S
C41 C40 1.379 . S
C41 C42 1.404 . S
C41 H55 0.929 . S
C42 C41 1.404 . S
C42 C43 1.389 . S
C43 C42 1.389 . S
C43 C44 1.399 . S
C43 H56 0.931 . S
C44 C43 1.399 . S
C44 C45 1.390 . S
C45 C40 1.392 . S
C45 C44 1.390 . S
C45 H57 0.929 . S
O46 Tb30 2.326 . S
O46 C34 1.242 . S
O47 Eu31 2.324 . S
O47 C34 1.258 . S
O48 Tb30 2.500 . S
O48 C50 1.273 . S
O49 Tb30 2.473 . S
O49 C50 1.257 . S
C50 O48 1.273 . S
C50 O49 1.257 . S
O51 Eu31 2.326 . S
O51 C39 1.242 . S
O52 Tb30 2.324 . S
O52 C39 1.258 . S
O53 Eu31 2.500 . S
O53 C36 1.273 . S
O54 Eu31 2.473 . S
O54 C36 1.257 . S
H55 C41 0.929 . S
H56 C43 0.931 . S
H57 C45 0.929 . S
O58 Tb59 2.292 . S
O58 C61 1.255 . S
Tb59 O58 2.292 . S
Tb59 O75 2.326 . S
Tb59 O77 2.500 . S
Tb59 O78 2.473 . S
Tb59 O81 2.324 . S
Eu60 O64 2.292 . S
Eu60 C65 2.852 . S
Eu60 O76 2.324 . S
Eu60 O80 2.326 . S
Eu60 O82 2.500 . S
Eu60 O83 2.473 . S
C61 O58 1.255 . S
C61 O62 1.247 . S
O62 C61 1.247 . S
C63 O75 1.242 . S
C63 O76 1.258 . S
O64 Eu60 2.292 . S
O64 C66 1.255 . S
C65 Eu60 2.852 . S
C65 C69 1.503 . S
C65 O82 1.273 . S
C65 O83 1.257 . S
C66 O64 1.255 . S
C66 O67 1.247 . S
O67 C66 1.247 . S
C68 O80 1.242 . S
C68 O81 1.258 . S
C69 C65 1.503 . S
C69 C70 1.379 . S
C69 C74 1.392 . S
C70 C69 1.379 . S
C70 C71 1.404 . S
C70 H84 0.929 . S
C71 C70 1.404 . S
C71 C72 1.389 . S
C72 C71 1.389 . S
C72 C73 1.399 . S
C72 H85 0.931 . S
C73 C72 1.399 . S
C73 C74 1.390 . S
C74 C69 1.392 . S
C74 C73 1.390 . S
C74 H86 0.929 . S
O75 Tb59 2.326 . S
O75 C63 1.242 . S
O76 Eu60 2.324 . S
O76 C63 1.258 . S
O77 Tb59 2.500 . S
O77 C79 1.273 . S
O78 Tb59 2.473 . S
O78 C79 1.257 . S
C79 O77 1.273 . S
C79 O78 1.257 . S
O80 Eu60 2.326 . S
O80 C68 1.242 . S
O81 Tb59 2.324 . S
O81 C68 1.258 . S
O82 Eu60 2.500 . S
O82 C65 1.273 . S
O83 Eu60 2.473 . S
O83 C65 1.257 . S
H84 C70 0.929 . S
H85 C72 0.931 . S
H86 C74 0.929 . S
O87 Tb88 2.292 . S
O87 C90 1.255 . S
Tb88 O87 2.292 . S
Tb88 O104 2.326 . S
Tb88 O106 2.500 . S
Tb88 O107 2.473 . S
Tb88 O110 2.324 . S
Eu89 O93 2.292 1_655 S
Eu89 C94 2.852 1_655 S
Eu89 O105 2.324 . S
Eu89 O109 2.326 . S
Eu89 O111 2.500 1_655 S
Eu89 O112 2.473 1_655 S
C90 O87 1.255 . S
C90 O91 1.247 . S
O91 C90 1.247 . S
C92 O104 1.242 . S
C92 O105 1.258 . S
O93 Eu89 2.292 1_455 S
O93 C95 1.255 . S
C94 Eu89 2.852 1_455 S
C94 C98 1.503 . S
C94 O111 1.273 . S
C94 O112 1.257 . S
C95 O93 1.255 . S
C95 O96 1.247 1_455 S
O96 C95 1.247 1_655 S
C97 O109 1.242 . S
C97 O110 1.258 . S
C98 C94 1.503 . S
C98 C99 1.379 . S
C98 C103 1.392 . S
C99 C98 1.379 . S
C99 C100 1.404 . S
C99 H113 0.929 . S
C100 C99 1.404 . S
C100 C101 1.389 . S
C101 C100 1.389 . S
C101 C102 1.399 . S
C101 H114 0.931 . S
C102 C101 1.399 . S
C102 C103 1.390 . S
C103 C98 1.392 . S
C103 C102 1.390 . S
C103 H115 0.929 . S
O104 Tb88 2.326 . S
O104 C92 1.242 . S
O105 Eu89 2.324 . S
O105 C92 1.258 . S
O106 Tb88 2.500 . S
O106 C108 1.273 . S
O107 Tb88 2.473 . S
O107 C108 1.257 . S
C108 O106 1.273 . S
C108 O107 1.257 . S
O109 Eu89 2.326 . S
O109 C97 1.242 . S
O110 Tb88 2.324 . S
O110 C97 1.258 . S
O111 Eu89 2.500 1_455 S
O111 C94 1.273 . S
O112 Eu89 2.473 1_455 S
O112 C94 1.257 . S
H113 C99 0.929 . S
H114 C101 0.931 . S
H115 C103 0.929 . S
O116 Tb117 2.292 . S
O116 C119 1.255 . S
Tb117 O116 2.292 . S
Tb117 O133 2.326 . S
Tb117 O135 2.500 . S
Tb117 O136 2.473 . S
Tb117 O139 2.324 . S
Eu118 O122 2.292 1_655 S
Eu118 C123 2.852 1_655 S
Eu118 O134 2.324 . S
Eu118 O138 2.326 . S
Eu118 O140 2.500 1_655 S
Eu118 O141 2.473 1_655 S
C119 O116 1.255 . S
C119 O120 1.247 . S
O120 C119 1.247 . S
C121 O133 1.242 . S
C121 O134 1.258 . S
O122 Eu118 2.292 1_455 S
O122 C124 1.255 . S
C123 Eu118 2.852 1_455 S
C123 C127 1.503 . S
C123 O140 1.273 . S
C123 O141 1.257 . S
C124 O122 1.255 . S
C124 O125 1.247 1_455 S
O125 C124 1.247 1_655 S
C126 O138 1.242 . S
C126 O139 1.258 . S
C127 C123 1.503 . S
C127 C128 1.379 . S
C127 C132 1.392 . S
C128 C127 1.379 . S
C128 C129 1.404 . S
C128 H142 0.929 . S
C129 C128 1.404 . S
C129 C130 1.389 . S
C130 C129 1.389 . S
C130 C131 1.399 . S
C130 H143 0.931 . S
C131 C130 1.399 . S
C131 C132 1.390 . S
C132 C127 1.392 . S
C132 C131 1.390 . S
C132 H144 0.929 . S
O133 Tb117 2.326 . S
O133 C121 1.242 . S
O134 Eu118 2.324 . S
O134 C121 1.258 . S
O135 Tb117 2.500 . S
O135 C137 1.273 . S
O136 Tb117 2.473 . S
O136 C137 1.257 . S
C137 O135 1.273 . S
C137 O136 1.257 . S
O138 Eu118 2.326 . S
O138 C126 1.242 . S
O139 Tb117 2.324 . S
O139 C126 1.258 . S
O140 Eu118 2.500 1_455 S
O140 C123 1.273 . S
O141 Eu118 2.473 1_455 S
O141 C123 1.257 . S
H142 C128 0.929 . S
H143 C130 0.931 . S
H144 C132 0.929 . S
O145 Tb146 2.292 . S
O145 C148 1.255 . S
Tb146 O145 2.292 . S
Tb146 O162 2.326 . S
Tb146 O164 2.500 . S
Tb146 O165 2.473 . S
Tb146 O168 2.324 . S
Eu147 O151 2.292 . S
Eu147 C152 2.852 . S
Eu147 O163 2.324 . S
Eu147 O167 2.326 . S
Eu147 O169 2.500 . S
Eu147 O170 2.473 . S
C148 O145 1.255 . S
C148 O149 1.247 . S
O149 C148 1.247 . S
C150 O162 1.242 . S
C150 O163 1.258 . S
O151 Eu147 2.292 . S
O151 C153 1.255 . S
C152 Eu147 2.852 . S
C152 C156 1.503 . S
C152 O169 1.273 . S
C152 O170 1.257 . S
C153 O151 1.255 . S
C153 O154 1.247 . S
O154 C153 1.247 . S
C155 O167 1.242 . S
C155 O168 1.258 . S
C156 C152 1.503 . S
C156 C157 1.379 . S
C156 C161 1.392 . S
C157 C156 1.379 . S
C157 C158 1.404 . S
C157 H171 0.929 . S
C158 C157 1.404 . S
C158 C159 1.389 . S
C159 C158 1.389 . S
C159 C160 1.399 . S
C159 H172 0.931 . S
C160 C159 1.399 . S
C160 C161 1.390 . S
C161 C156 1.392 . S
C161 C160 1.390 . S
C161 H173 0.929 . S
O162 Tb146 2.326 . S
O162 C150 1.242 . S
O163 Eu147 2.324 . S
O163 C150 1.258 . S
O164 Tb146 2.500 . S
O164 C166 1.273 . S
O165 Tb146 2.473 . S
O165 C166 1.257 . S
C166 O164 1.273 . S
C166 O165 1.257 . S
O167 Eu147 2.326 . S
O167 C155 1.242 . S
O168 Tb146 2.324 . S
O168 C155 1.258 . S
O169 Eu147 2.500 . S
O169 C152 1.273 . S
O170 Eu147 2.473 . S
O170 C152 1.257 . S
H171 C157 0.929 . S
H172 C159 0.931 . S
H173 C161 0.929 . S
O174 Tb175 2.292 . S
O174 C177 1.255 . S
Tb175 O174 2.292 . S
Tb175 O191 2.326 . S
Tb175 O193 2.500 . S
Tb175 O194 2.473 . S
Tb175 O197 2.324 . S
Eu176 O180 2.292 . S
Eu176 C181 2.852 . S
Eu176 O192 2.324 . S
Eu176 O196 2.326 . S
Eu176 O198 2.500 . S
Eu176 O199 2.473 . S
C177 O174 1.255 . S
C177 O178 1.247 . S
O178 C177 1.247 . S
C179 O191 1.242 . S
C179 O192 1.258 . S
O180 Eu176 2.292 . S
O180 C182 1.255 . S
C181 Eu176 2.852 . S
C181 C185 1.503 . S
C181 O198 1.273 . S
C181 O199 1.257 . S
C182 O180 1.255 . S
C182 O183 1.247 . S
O183 C182 1.247 . S
C184 O196 1.242 . S
C184 O197 1.258 . S
C185 C181 1.503 . S
C185 C186 1.379 . S
C185 C190 1.392 . S
C186 C185 1.379 . S
C186 C187 1.404 . S
C186 H200 0.929 . S
C187 C186 1.404 . S
C187 C188 1.389 . S
C188 C187 1.389 . S
C188 C189 1.399 . S
C188 H201 0.931 . S
C189 C188 1.399 . S
C189 C190 1.390 . S
C190 C185 1.392 . S
C190 C189 1.390 . S
C190 H202 0.929 . S
O191 Tb175 2.326 . S
O191 C179 1.242 . S
O192 Eu176 2.324 . S
O192 C179 1.258 . S
O193 Tb175 2.500 . S
O193 C195 1.273 . S
O194 Tb175 2.473 . S
O194 C195 1.257 . S
C195 O193 1.273 . S
C195 O194 1.257 . S
O196 Eu176 2.326 . S
O196 C184 1.242 . S
O197 Tb175 2.324 . S
O197 C184 1.258 . S
O198 Eu176 2.500 . S
O198 C181 1.273 . S
O199 Eu176 2.473 . S
O199 C181 1.257 . S
H200 C186 0.929 . S
H201 C188 0.931 . S
H202 C190 0.929 . S
O203 Tb204 2.292 . S
O203 C206 1.255 . S
Tb204 O203 2.292 . S
Tb204 O220 2.326 . S
Tb204 O222 2.500 . S
Tb204 O223 2.473 . S
Tb204 O226 2.324 . S
Eu205 O209 2.292 1_455 S
Eu205 C210 2.852 1_455 S
Eu205 O221 2.324 . S
Eu205 O225 2.326 . S
Eu205 O227 2.500 1_455 S
Eu205 O228 2.473 1_455 S
C206 O203 1.255 . S
C206 O207 1.247 . S
O207 C206 1.247 . S
C208 O220 1.242 . S
C208 O221 1.258 . S
O209 Eu205 2.292 1_655 S
O209 C211 1.255 . S
C210 Eu205 2.852 1_655 S
C210 C214 1.503 . S
C210 O227 1.273 . S
C210 O228 1.257 . S
C211 O209 1.255 . S
C211 O212 1.247 1_655 S
O212 C211 1.247 1_455 S
C213 O225 1.242 . S
C213 O226 1.258 . S
C214 C210 1.503 . S
C214 C215 1.379 . S
C214 C219 1.392 . S
C215 C214 1.379 . S
C215 C216 1.404 . S
C215 H229 0.929 . S
C216 C215 1.404 . S
C216 C217 1.389 . S
C217 C216 1.389 . S
C217 C218 1.399 . S
C217 H230 0.931 . S
C218 C217 1.399 . S
C218 C219 1.390 . S
C219 C214 1.392 . S
C219 C218 1.390 . S
C219 H231 0.929 . S
O220 Tb204 2.326 . S
O220 C208 1.242 . S
O221 Eu205 2.324 . S
O221 C208 1.258 . S
O222 Tb204 2.500 . S
O222 C224 1.273 . S
O223 Tb204 2.473 . S
O223 C224 1.257 . S
C224 O222 1.273 . S
C224 O223 1.257 . S
O225 Eu205 2.326 . S
O225 C213 1.242 . S
O226 Tb204 2.324 . S
O226 C213 1.258 . S
O227 Eu205 2.500 1_655 S
O227 C210 1.273 . S
O228 Eu205 2.473 1_655 S
O228 C210 1.257 . S
H229 C215 0.929 . S
H230 C217 0.931 . S
H231 C219 0.929 . S
O232 Tb233 2.292 . S
O232 C235 1.255 . S
Tb233 O232 2.292 . S
Tb233 O249 2.326 . S
Tb233 O251 2.500 . S
Tb233 O252 2.473 . S
Tb233 O255 2.324 . S
Eu234 O238 2.292 . S
Eu234 C239 2.852 . S
Eu234 O250 2.324 . S
Eu234 O254 2.326 . S
Eu234 O256 2.500 . S
Eu234 O257 2.473 . S
C235 O232 1.255 . S
C235 O236 1.247 . S
O236 C235 1.247 . S
C237 O249 1.242 . S
C237 O250 1.258 . S
O238 Eu234 2.292 . S
O238 C240 1.255 . S
C239 Eu234 2.852 . S
C239 C243 1.503 . S
C239 O256 1.273 . S
C239 O257 1.257 . S
C240 O238 1.255 . S
C240 O241 1.247 . S
O241 C240 1.247 . S
C242 O254 1.242 . S
C242 O255 1.258 . S
C243 C239 1.503 . S
C243 C244 1.379 . S
C243 C248 1.392 . S
C244 C243 1.379 . S
C244 C245 1.404 . S
C244 H258 0.929 . S
C245 C244 1.404 . S
C245 C246 1.389 . S
C246 C245 1.389 . S
C246 C247 1.399 . S
C246 H259 0.931 . S
C247 C246 1.399 . S
C247 C248 1.390 . S
C248 C243 1.392 . S
C248 C247 1.390 . S
C248 H260 0.929 . S
O249 Tb233 2.326 . S
O249 C237 1.242 . S
O250 Eu234 2.324 . S
O250 C237 1.258 . S
O251 Tb233 2.500 . S
O251 C253 1.273 . S
O252 Tb233 2.473 . S
O252 C253 1.257 . S
C253 O251 1.273 . S
C253 O252 1.257 . S
O254 Eu234 2.326 . S
O254 C242 1.242 . S
O255 Tb233 2.324 . S
O255 C242 1.258 . S
O256 Eu234 2.500 . S
O256 C239 1.273 . S
O257 Eu234 2.473 . S
O257 C239 1.257 . S
H258 C244 0.929 . S
H259 C246 0.931 . S
H260 C248 0.929 . S
O261 Tb262 2.292 . S
O261 C264 1.255 . S
Tb262 O261 2.292 . S
Tb262 O278 2.326 . S
Tb262 O280 2.500 . S
Tb262 O281 2.473 . S
Tb262 O284 2.324 . S
Eu263 O267 2.292 1_655 S
Eu263 C268 2.852 1_655 S
Eu263 O279 2.324 . S
Eu263 O283 2.326 . S
Eu263 O285 2.500 1_655 S
Eu263 O286 2.473 1_655 S
C264 O261 1.255 . S
C264 O265 1.247 . S
O265 C264 1.247 . S
C266 O278 1.242 . S
C266 O279 1.258 . S
O267 Eu263 2.292 1_455 S
O267 C269 1.255 . S
C268 Eu263 2.852 1_455 S
C268 C272 1.503 . S
C268 O285 1.273 . S
C268 O286 1.257 . S
C269 O267 1.255 . S
C269 O270 1.247 1_455 S
O270 C269 1.247 1_655 S
C271 O283 1.242 . S
C271 O284 1.258 . S
C272 C268 1.503 . S
C272 C273 1.379 . S
C272 C277 1.392 . S
C273 C272 1.379 . S
C273 C274 1.404 . S
C273 H287 0.929 . S
C274 C273 1.404 . S
C274 C275 1.389 . S
C275 C274 1.389 . S
C275 C276 1.399 . S
C275 H288 0.931 . S
C276 C275 1.399 . S
C276 C277 1.390 . S
C277 C272 1.392 . S
C277 C276 1.390 . S
C277 H289 0.929 . S
O278 Tb262 2.326 . S
O278 C266 1.242 . S
O279 Eu263 2.324 . S
O279 C266 1.258 . S
O280 Tb262 2.500 . S
O280 C282 1.273 . S
O281 Tb262 2.473 . S
O281 C282 1.257 . S
C282 O280 1.273 . S
C282 O281 1.257 . S
O283 Eu263 2.326 . S
O283 C271 1.242 . S
O284 Tb262 2.324 . S
O284 C271 1.258 . S
O285 Eu263 2.500 1_455 S
O285 C268 1.273 . S
O286 Eu263 2.473 1_455 S
O286 C268 1.257 . S
H287 C273 0.929 . S
H288 C275 0.931 . S
H289 C277 0.929 . S
O290 Tb291 2.292 . S
O290 C293 1.255 . S
Tb291 O290 2.292 . S
Tb291 O307 2.326 . S
Tb291 O309 2.500 . S
Tb291 O310 2.473 . S
Tb291 O313 2.324 . S
Eu292 O296 2.292 1_455 S
Eu292 C297 2.852 1_455 S
Eu292 O308 2.324 . S
Eu292 O312 2.326 . S
Eu292 O314 2.500 1_455 S
Eu292 O315 2.473 1_455 S
C293 O290 1.255 . S
C293 O294 1.247 . S
O294 C293 1.247 . S
C295 O307 1.242 . S
C295 O308 1.258 . S
O296 Eu292 2.292 1_655 S
O296 C298 1.255 . S
C297 Eu292 2.852 1_655 S
C297 C301 1.503 . S
C297 O314 1.273 . S
C297 O315 1.257 . S
C298 O296 1.255 . S
C298 O299 1.247 1_655 S
O299 C298 1.247 1_455 S
C300 O312 1.242 . S
C300 O313 1.258 . S
C301 C297 1.503 . S
C301 C302 1.379 . S
C301 C306 1.392 . S
C302 C301 1.379 . S
C302 C303 1.404 . S
C302 H316 0.929 . S
C303 C302 1.404 . S
C303 C304 1.389 . S
C304 C303 1.389 . S
C304 C305 1.399 . S
C304 H317 0.931 . S
C305 C304 1.399 . S
C305 C306 1.390 . S
C306 C301 1.392 . S
C306 C305 1.390 . S
C306 H318 0.929 . S
O307 Tb291 2.326 . S
O307 C295 1.242 . S
O308 Eu292 2.324 . S
O308 C295 1.258 . S
O309 Tb291 2.500 . S
O309 C311 1.273 . S
O310 Tb291 2.473 . S
O310 C311 1.257 . S
C311 O309 1.273 . S
C311 O310 1.257 . S
O312 Eu292 2.326 . S
O312 C300 1.242 . S
O313 Tb291 2.324 . S
O313 C300 1.258 . S
O314 Eu292 2.500 1_655 S
O314 C297 1.273 . S
O315 Eu292 2.473 1_655 S
O315 C297 1.257 . S
H316 C302 0.929 . S
H317 C304 0.931 . S
H318 C306 0.929 . S
O319 Tb320 2.292 . S
O319 C322 1.255 . S
Tb320 O319 2.292 . S
Tb320 O336 2.326 . S
Tb320 O338 2.500 . S
Tb320 O339 2.473 . S
Tb320 O342 2.324 . S
Eu321 O325 2.292 . S
Eu321 C326 2.852 . S
Eu321 O337 2.324 . S
Eu321 O341 2.326 . S
Eu321 O343 2.500 . S
Eu321 O344 2.473 . S
C322 O319 1.255 . S
C322 O323 1.247 . S
O323 C322 1.247 . S
C324 O336 1.242 . S
C324 O337 1.258 . S
O325 Eu321 2.292 . S
O325 C327 1.255 . S
C326 Eu321 2.852 . S
C326 C330 1.503 . S
C326 O343 1.273 . S
C326 O344 1.257 . S
C327 O325 1.255 . S
C327 O328 1.247 . S
O328 C327 1.247 . S
C329 O341 1.242 . S
C329 O342 1.258 . S
C330 C326 1.503 . S
C330 C331 1.379 . S
C330 C335 1.392 . S
C331 C330 1.379 . S
C331 C332 1.404 . S
C331 H345 0.929 . S
C332 C331 1.404 . S
C332 C333 1.389 . S
C333 C332 1.389 . S
C333 C334 1.399 . S
C333 H346 0.931 . S
C334 C333 1.399 . S
C334 C335 1.390 . S
C335 C330 1.392 . S
C335 C334 1.390 . S
C335 H347 0.929 . S
O336 Tb320 2.326 . S
O336 C324 1.242 . S
O337 Eu321 2.324 . S
O337 C324 1.258 . S
O338 Tb320 2.500 . S
O338 C340 1.273 . S
O339 Tb320 2.473 . S
O339 C340 1.257 . S
C340 O338 1.273 . S
C340 O339 1.257 . S
O341 Eu321 2.326 . S
O341 C329 1.242 . S
O342 Tb320 2.324 . S
O342 C329 1.258 . S
O343 Eu321 2.500 . S
O343 C326 1.273 . S
O344 Eu321 2.473 . S
O344 C326 1.257 . S
H345 C331 0.929 . S
H346 C333 0.931 . S
H347 C335 0.929 . S
O348 Tb349 2.292 . S
O348 C351 1.255 . S
Tb349 O348 2.292 . S
Tb349 O365 2.326 . S
Tb349 O367 2.500 . S
Tb349 O368 2.473 . S
Tb349 O371 2.324 . S
Eu350 O354 2.292 . S
Eu350 C355 2.852 . S
Eu350 O366 2.324 . S
Eu350 O370 2.326 . S
Eu350 O372 2.500 . S
Eu350 O373 2.473 . S
C351 O348 1.255 . S
C351 O352 1.247 . S
O352 C351 1.247 . S
C353 O365 1.242 . S
C353 O366 1.258 . S
O354 Eu350 2.292 . S
O354 C356 1.255 . S
C355 Eu350 2.852 . S
C355 C359 1.503 . S
C355 O372 1.273 . S
C355 O373 1.257 . S
C356 O354 1.255 . S
C356 O357 1.247 . S
O357 C356 1.247 . S
C358 O370 1.242 . S
C358 O371 1.258 . S
C359 C355 1.503 . S
C359 C360 1.379 . S
C359 C364 1.392 . S
C360 C359 1.379 . S
C360 C361 1.404 . S
C360 H374 0.929 . S
C361 C360 1.404 . S
C361 C362 1.389 . S
C362 C361 1.389 . S
C362 C363 1.399 . S
C362 H375 0.931 . S
C363 C362 1.399 . S
C363 C364 1.390 . S
C364 C359 1.392 . S
C364 C363 1.390 . S
C364 H376 0.929 . S
O365 Tb349 2.326 . S
O365 C353 1.242 . S
O366 Eu350 2.324 . S
O366 C353 1.258 . S
O367 Tb349 2.500 . S
O367 C369 1.273 . S
O368 Tb349 2.473 . S
O368 C369 1.257 . S
C369 O367 1.273 . S
C369 O368 1.257 . S
O370 Eu350 2.326 . S
O370 C358 1.242 . S
O371 Tb349 2.324 . S
O371 C358 1.258 . S
O372 Eu350 2.500 . S
O372 C355 1.273 . S
O373 Eu350 2.473 . S
O373 C355 1.257 . S
H374 C360 0.929 . S
H375 C362 0.931 . S
H376 C364 0.929 . S
O377 Tb378 2.292 . S
O377 C380 1.255 . S
Tb378 O377 2.292 . S
Tb378 O394 2.326 . S
Tb378 O396 2.500 . S
Tb378 O397 2.473 . S
Tb378 O400 2.324 . S
Eu379 O383 2.292 1_455 S
Eu379 C384 2.852 1_455 S
Eu379 O395 2.324 . S
Eu379 O399 2.326 . S
Eu379 O401 2.500 1_455 S
Eu379 O402 2.473 1_455 S
C380 O377 1.255 . S
C380 O381 1.247 . S
O381 C380 1.247 . S
C382 O394 1.242 . S
C382 O395 1.258 . S
O383 Eu379 2.292 1_655 S
O383 C385 1.255 . S
C384 Eu379 2.852 1_655 S
C384 C388 1.503 . S
C384 O401 1.273 . S
C384 O402 1.257 . S
C385 O383 1.255 . S
C385 O386 1.247 1_655 S
O386 C385 1.247 1_455 S
C387 O399 1.242 . S
C387 O400 1.258 . S
C388 C384 1.503 . S
C388 C389 1.379 . S
C388 C393 1.392 . S
C389 C388 1.379 . S
C389 C390 1.404 . S
C389 H403 0.929 . S
C390 C389 1.404 . S
C390 C391 1.389 . S
C391 C390 1.389 . S
C391 C392 1.399 . S
C391 H404 0.931 . S
C392 C391 1.399 . S
C392 C393 1.390 . S
C393 C388 1.392 . S
C393 C392 1.390 . S
C393 H405 0.929 . S
O394 Tb378 2.326 . S
O394 C382 1.242 . S
O395 Eu379 2.324 . S
O395 C382 1.258 . S
O396 Tb378 2.500 . S
O396 C398 1.273 . S
O397 Tb378 2.473 . S
O397 C398 1.257 . S
C398 O396 1.273 . S
C398 O397 1.257 . S
O399 Eu379 2.326 . S
O399 C387 1.242 . S
O400 Tb378 2.324 . S
O400 C387 1.258 . S
O401 Eu379 2.500 1_655 S
O401 C384 1.273 . S
O402 Eu379 2.473 1_655 S
O402 C384 1.257 . S
H403 C389 0.929 . S
H404 C391 0.931 . S
H405 C393 0.929 . S
O406 Tb407 2.292 . S
O406 C409 1.255 . S
Tb407 O406 2.292 . S
Tb407 O423 2.326 . S
Tb407 O425 2.500 . S
Tb407 O426 2.473 . S
Tb407 O429 2.324 . S
Eu408 O412 2.292 1_655 S
Eu408 C413 2.852 1_655 S
Eu408 O424 2.324 . S
Eu408 O428 2.326 . S
Eu408 O430 2.500 1_655 S
Eu408 O431 2.473 1_655 S
C409 O406 1.255 . S
C409 O410 1.247 . S
O410 C409 1.247 . S
C411 O423 1.242 . S
C411 O424 1.258 . S
O412 Eu408 2.292 1_455 S
O412 C414 1.255 . S
C413 Eu408 2.852 1_455 S
C413 C417 1.503 . S
C413 O430 1.273 . S
C413 O431 1.257 . S
C414 O412 1.255 . S
C414 O415 1.247 1_455 S
O415 C414 1.247 1_655 S
C416 O428 1.242 . S
C416 O429 1.258 . S
C417 C413 1.503 . S
C417 C418 1.379 . S
C417 C422 1.392 . S
C418 C417 1.379 . S
C418 C419 1.404 . S
C418 H432 0.929 . S
C419 C418 1.404 . S
C419 C420 1.389 . S
C420 C419 1.389 . S
C420 C421 1.399 . S
C420 H433 0.931 . S
C421 C420 1.399 . S
C421 C422 1.390 . S
C422 C417 1.392 . S
C422 C421 1.390 . S
C422 H434 0.929 . S
O423 Tb407 2.326 . S
O423 C411 1.242 . S
O424 Eu408 2.324 . S
O424 C411 1.258 . S
O425 Tb407 2.500 . S
O425 C427 1.273 . S
O426 Tb407 2.473 . S
O426 C427 1.257 . S
C427 O425 1.273 . S
C427 O426 1.257 . S
O428 Eu408 2.326 . S
O428 C416 1.242 . S
O429 Tb407 2.324 . S
O429 C416 1.258 . S
O430 Eu408 2.500 1_455 S
O430 C413 1.273 . S
O431 Eu408 2.473 1_455 S
O431 C413 1.257 . S
H432 C418 0.929 . S
H433 C420 0.931 . S
H434 C422 0.929 . S
O435 Tb436 2.292 . S
O435 C438 1.255 . S
Tb436 O435 2.292 . S
Tb436 O452 2.326 . S
Tb436 O454 2.500 . S
Tb436 O455 2.473 . S
Tb436 O458 2.324 . S
Eu437 O441 2.292 . S
Eu437 C442 2.852 . S
Eu437 O453 2.324 . S
Eu437 O457 2.326 . S
Eu437 O459 2.500 . S
Eu437 O460 2.473 . S
C438 O435 1.255 . S
C438 O439 1.247 . S
O439 C438 1.247 . S
C440 O452 1.242 . S
C440 O453 1.258 . S
O441 Eu437 2.292 . S
O441 C443 1.255 . S
C442 Eu437 2.852 . S
C442 C446 1.503 . S
C442 O459 1.273 . S
C442 O460 1.257 . S
C443 O441 1.255 . S
C443 O444 1.247 . S
O444 C443 1.247 . S
C445 O457 1.242 . S
C445 O458 1.258 . S
C446 C442 1.503 . S
C446 C447 1.379 . S
C446 C451 1.392 . S
C447 C446 1.379 . S
C447 C448 1.404 . S
C447 H461 0.929 . S
C448 C447 1.404 . S
C448 C449 1.389 . S
C449 C448 1.389 . S
C449 C450 1.399 . S
C449 H462 0.931 . S
C450 C449 1.399 . S
C450 C451 1.390 . S
C451 C446 1.392 . S
C451 C450 1.390 . S
C451 H463 0.929 . S
O452 Tb436 2.326 . S
O452 C440 1.242 . S
O453 Eu437 2.324 . S
O453 C440 1.258 . S
O454 Tb436 2.500 . S
O454 C456 1.273 . S
O455 Tb436 2.473 . S
O455 C456 1.257 . S
C456 O454 1.273 . S
C456 O455 1.257 . S
O457 Eu437 2.326 . S
O457 C445 1.242 . S
O458 Tb436 2.324 . S
O458 C445 1.258 . S
O459 Eu437 2.500 . S
O459 C442 1.273 . S
O460 Eu437 2.473 . S
O460 C442 1.257 . S
H461 C447 0.929 . S
H462 C449 0.931 . S
H463 C451 0.929 . S
C464 C465 1.363 . S
C464 C470 1.379 . S
C464 N472 1.356 . S
C465 C464 1.363 . S
C465 C471 1.363 . S
C466 C467 1.363 . S
C466 C471 1.379 . S
C466 N473 1.356 . S
C467 C466 1.363 . S
C467 C470 1.363 . S
N468 C470 1.356 . S
N468 H480 0.984 . S
N468 H481 0.985 . S
N469 C471 1.356 . S
N469 H474 0.984 . S
N469 H475 0.985 . S
C470 C464 1.379 . S
C470 C467 1.363 . S
C470 N468 1.356 . S
C471 C465 1.363 . S
C471 C466 1.379 . S
C471 N469 1.356 . S
N472 C464 1.356 . S
N472 H478 0.984 . S
N472 H479 0.984 . S
N473 C466 1.356 . S
N473 H476 0.984 . S
N473 H477 0.985 . S
H474 N469 0.984 . S
H475 N469 0.985 . S
H476 N473 0.984 . S
H477 N473 0.985 . S
H478 N472 0.984 . S
H479 N472 0.984 . S
H480 N468 0.984 . S
H481 N468 0.985 . S
C482 C483 1.363 . S
C482 C488 1.379 1_455 S
C482 N490 1.356 . S
C483 C482 1.363 . S
C483 C489 1.363 . S
C484 C485 1.363 . S
C484 C489 1.379 1_655 S
C484 N491 1.356 . S
C485 C484 1.363 . S
C485 C488 1.363 . S
N486 C488 1.356 . S
N486 H498 0.984 . S
N486 H499 0.985 . S
N487 C489 1.356 . S
N487 H492 0.984 . S
N487 H493 0.985 . S
C488 C482 1.379 1_655 S
C488 C485 1.363 . S
C488 N486 1.356 . S
C489 C483 1.363 . S
C489 C484 1.379 1_455 S
C489 N487 1.356 . S
N490 C482 1.356 . S
N490 H496 0.984 . S
N490 H497 0.984 . S
N491 C484 1.356 . S
N491 H494 0.984 . S
N491 H495 0.985 . S
H492 N487 0.984 . S
H493 N487 0.985 . S
H494 N491 0.984 . S
H495 N491 0.985 . S
H496 N490 0.984 . S
H497 N490 0.984 . S
H498 N486 0.984 . S
H499 N486 0.985 . S
C500 C501 1.363 . S
C500 C506 1.379 1_655 S
C500 N508 1.356 . S
C501 C500 1.363 . S
C501 C507 1.363 . S
C502 C503 1.363 . S
C502 C507 1.379 1_455 S
C502 N509 1.356 . S
C503 C502 1.363 . S
C503 C506 1.363 . S
N504 C506 1.356 . S
N504 H516 0.984 . S
N504 H517 0.985 . S
N505 C507 1.356 . S
N505 H510 0.984 . S
N505 H511 0.985 . S
C506 C500 1.379 1_455 S
C506 C503 1.363 . S
C506 N504 1.356 . S
C507 C501 1.363 . S
C507 C502 1.379 1_655 S
C507 N505 1.356 . S
N508 C500 1.356 . S
N508 H514 0.984 . S
N508 H515 0.984 . S
N509 C502 1.356 . S
N509 H512 0.984 . S
N509 H513 0.985 . S
H510 N505 0.984 . S
H511 N505 0.985 . S
H512 N509 0.984 . S
H513 N509 0.985 . S
H514 N508 0.984 . S
H515 N508 0.984 . S
H516 N504 0.984 . S
H517 N504 0.985 . S
C518 C519 1.363 . S
C518 C524 1.379 . S
C518 N526 1.356 . S
C519 C518 1.363 . S
C519 C525 1.363 . S
C520 C521 1.363 . S
C520 C525 1.379 . S
C520 N527 1.356 . S
C521 C520 1.363 . S
C521 C524 1.363 . S
N522 C524 1.356 . S
N522 H534 0.984 . S
N522 H535 0.985 . S
N523 C525 1.356 . S
N523 H528 0.984 . S
N523 H529 0.985 . S
C524 C518 1.379 . S
C524 C521 1.363 . S
C524 N522 1.356 . S
C525 C519 1.363 . S
C525 C520 1.379 . S
C525 N523 1.356 . S
N526 C518 1.356 . S
N526 H532 0.984 . S
N526 H533 0.984 . S
N527 C520 1.356 . S
N527 H530 0.984 . S
N527 H531 0.985 . S
H528 N523 0.984 . S
H529 N523 0.985 . S
H530 N527 0.984 . S
H531 N527 0.985 . S
H532 N526 0.984 . S
H533 N526 0.984 . S
H534 N522 0.984 . S
H535 N522 0.985 . S
C536 C537 1.363 . S
C536 C542 1.379 . S
C536 N544 1.356 . S
C537 C536 1.363 . S
C537 C543 1.363 . S
C538 C539 1.363 . S
C538 C543 1.379 . S
C538 N545 1.356 . S
C539 C538 1.363 . S
C539 C542 1.363 . S
N540 C542 1.356 . S
N540 H552 0.984 . S
N540 H553 0.985 . S
N541 C543 1.356 . S
N541 H546 0.984 . S
N541 H547 0.985 . S
C542 C536 1.379 . S
C542 C539 1.363 . S
C542 N540 1.356 . S
C543 C537 1.363 . S
C543 C538 1.379 . S
C543 N541 1.356 . S
N544 C536 1.356 . S
N544 H550 0.984 . S
N544 H551 0.984 . S
N545 C538 1.356 . S
N545 H548 0.984 . S
N545 H549 0.985 . S
H546 N541 0.984 . S
H547 N541 0.985 . S
H548 N545 0.984 . S
H549 N545 0.985 . S
H550 N544 0.984 . S
H551 N544 0.984 . S
H552 N540 0.984 . S
H553 N540 0.985 . S
C554 C555 1.363 . S
C554 C560 1.379 1_455 S
C554 N562 1.356 . S
C555 C554 1.363 . S
C555 C561 1.363 . S
C556 C557 1.363 . S
C556 C561 1.379 1_655 S
C556 N563 1.356 . S
C557 C556 1.363 . S
C557 C560 1.363 . S
N558 C560 1.356 . S
N558 H570 0.984 . S
N558 H571 0.985 . S
N559 C561 1.356 . S
N559 H564 0.984 . S
N559 H565 0.985 . S
C560 C554 1.379 1_655 S
C560 C557 1.363 . S
C560 N558 1.356 . S
C561 C555 1.363 . S
C561 C556 1.379 1_455 S
C561 N559 1.356 . S
N562 C554 1.356 . S
N562 H568 0.984 . S
N562 H569 0.984 . S
N563 C556 1.356 . S
N563 H566 0.984 . S
N563 H567 0.985 . S
H564 N559 0.984 . S
H565 N559 0.985 . S
H566 N563 0.984 . S
H567 N563 0.985 . S
H568 N562 0.984 . S
H569 N562 0.984 . S
H570 N558 0.984 . S
H571 N558 0.985 . S
C572 C573 1.363 . S
C572 C578 1.379 1_655 S
C572 N580 1.356 . S
C573 C572 1.363 . S
C573 C579 1.363 . S
C574 C575 1.363 . S
C574 C579 1.379 1_455 S
C574 N581 1.356 . S
C575 C574 1.363 . S
C575 C578 1.363 . S
N576 C578 1.356 . S
N576 H588 0.984 . S
N576 H589 0.985 . S
N577 C579 1.356 . S
N577 H582 0.984 . S
N577 H583 0.985 . S
C578 C572 1.379 1_455 S
C578 C575 1.363 . S
C578 N576 1.356 . S
C579 C573 1.363 . S
C579 C574 1.379 1_655 S
C579 N577 1.356 . S
N580 C572 1.356 . S
N580 H586 0.984 . S
N580 H587 0.984 . S
N581 C574 1.356 . S
N581 H584 0.984 . S
N581 H585 0.985 . S
H582 N577 0.984 . S
H583 N577 0.985 . S
H584 N581 0.984 . S
H585 N581 0.985 . S
H586 N580 0.984 . S
H587 N580 0.984 . S
H588 N576 0.984 . S
H589 N576 0.985 . S
C590 C591 1.363 . S
C590 C596 1.379 . S
C590 N598 1.356 . S
C591 C590 1.363 . S
C591 C597 1.363 . S
C592 C593 1.363 . S
C592 C597 1.379 . S
C592 N599 1.356 . S
C593 C592 1.363 . S
C593 C596 1.363 . S
N594 C596 1.356 . S
N594 H606 0.984 . S
N594 H607 0.985 . S
N595 C597 1.356 . S
N595 H600 0.984 . S
N595 H601 0.985 . S
C596 C590 1.379 . S
C596 C593 1.363 . S
C596 N594 1.356 . S
C597 C591 1.363 . S
C597 C592 1.379 . S
C597 N595 1.356 . S
N598 C590 1.356 . S
N598 H604 0.984 . S
N598 H605 0.984 . S
N599 C592 1.356 . S
N599 H602 0.984 . S
N599 H603 0.985 . S
H600 N595 0.984 . S
H601 N595 0.985 . S
H602 N599 0.984 . S
H603 N599 0.985 . S
H604 N598 0.984 . S
H605 N598 0.984 . S
H606 N594 0.984 . S
H607 N594 0.985 . S
C608 C609 1.363 . S
C608 C614 1.379 1_655 S
C608 N616 1.356 . S
C609 C608 1.363 . S
C609 C615 1.363 . S
C610 C611 1.363 . S
C610 C615 1.379 1_455 S
C610 N617 1.356 . S
C611 C610 1.363 . S
C611 C614 1.363 . S
N612 C614 1.356 . S
N612 H624 0.984 . S
N612 H625 0.985 . S
N613 C615 1.356 . S
N613 H618 0.984 . S
N613 H619 0.985 . S
C614 C608 1.379 1_455 S
C614 C611 1.363 . S
C614 N612 1.356 . S
C615 C609 1.363 . S
C615 C610 1.379 1_655 S
C615 N613 1.356 . S
N616 C608 1.356 . S
N616 H622 0.984 . S
N616 H623 0.984 . S
N617 C610 1.356 . S
N617 H620 0.984 . S
N617 H621 0.985 . S
H618 N613 0.984 . S
H619 N613 0.985 . S
H620 N617 0.984 . S
H621 N617 0.985 . S
H622 N616 0.984 . S
H623 N616 0.984 . S
H624 N612 0.984 . S
H625 N612 0.985 . S
C626 C627 1.363 . S
C626 C632 1.379 . S
C626 N634 1.356 . S
C627 C626 1.363 . S
C627 C633 1.363 . S
C628 C629 1.363 . S
C628 C633 1.379 . S
C628 N635 1.356 . S
C629 C628 1.363 . S
C629 C632 1.363 . S
N630 C632 1.356 . S
N630 H642 0.984 . S
N630 H643 0.985 . S
N631 C633 1.356 . S
N631 H636 0.984 . S
N631 H637 0.985 . S
C632 C626 1.379 . S
C632 C629 1.363 . S
C632 N630 1.356 . S
C633 C627 1.363 . S
C633 C628 1.379 . S
C633 N631 1.356 . S
N634 C626 1.356 . S
N634 H640 0.984 . S
N634 H641 0.984 . S
N635 C628 1.356 . S
N635 H638 0.984 . S
N635 H639 0.985 . S
H636 N631 0.984 . S
H637 N631 0.985 . S
H638 N635 0.984 . S
H639 N635 0.985 . S
H640 N634 0.984 . S
H641 N634 0.984 . S
H642 N630 0.984 . S
H643 N630 0.985 . S
C644 C645 1.363 . S
C644 C650 1.379 . S
C644 N652 1.356 . S
C645 C644 1.363 . S
C645 C651 1.363 . S
C646 C647 1.363 . S
C646 C651 1.379 . S
C646 N653 1.356 . S
C647 C646 1.363 . S
C647 C650 1.363 . S
N648 C650 1.356 . S
N648 H660 0.984 . S
N648 H661 0.985 . S
N649 C651 1.356 . S
N649 H654 0.984 . S
N649 H655 0.985 . S
C650 C644 1.379 . S
C650 C647 1.363 . S
C650 N648 1.356 . S
C651 C645 1.363 . S
C651 C646 1.379 . S
C651 N649 1.356 . S
N652 C644 1.356 . S
N652 H658 0.984 . S
N652 H659 0.984 . S
N653 C646 1.356 . S
N653 H656 0.984 . S
N653 H657 0.985 . S
H654 N649 0.984 . S
H655 N649 0.985 . S
H656 N653 0.984 . S
H657 N653 0.985 . S
H658 N652 0.984 . S
H659 N652 0.984 . S
H660 N648 0.984 . S
H661 N648 0.985 . S
C662 C663 1.363 . S
C662 C668 1.379 1_455 S
C662 N670 1.356 . S
C663 C662 1.363 . S
C663 C669 1.363 . S
C664 C665 1.363 . S
C664 C669 1.379 1_655 S
C664 N671 1.356 . S
C665 C664 1.363 . S
C665 C668 1.363 . S
N666 C668 1.356 . S
N666 H678 0.984 . S
N666 H679 0.985 . S
N667 C669 1.356 . S
N667 H672 0.984 . S
N667 H673 0.985 . S
C668 C662 1.379 1_655 S
C668 C665 1.363 . S
C668 N666 1.356 . S
C669 C663 1.363 . S
C669 C664 1.379 1_455 S
C669 N667 1.356 . S
N670 C662 1.356 . S
N670 H676 0.984 . S
N670 H677 0.984 . S
N671 C664 1.356 . S
N671 H674 0.984 . S
N671 H675 0.985 . S
H672 N667 0.984 . S
H673 N667 0.985 . S
H674 N671 0.984 . S
H675 N671 0.985 . S
H676 N670 0.984 . S
H677 N670 0.984 . S
H678 N666 0.984 . S
H679 N666 0.985 . S
C680 C681 1.363 . S
C680 C686 1.379 1_455 S
C680 N688 1.356 . S
C681 C680 1.363 . S
C681 C687 1.363 . S
C682 C683 1.363 . S
C682 C687 1.379 1_655 S
C682 N689 1.356 . S
C683 C682 1.363 . S
C683 C686 1.363 . S
N684 C686 1.356 . S
N684 H696 0.984 . S
N684 H697 0.985 . S
N685 C687 1.356 . S
N685 H690 0.984 . S
N685 H691 0.985 . S
C686 C680 1.379 1_655 S
C686 C683 1.363 . S
C686 N684 1.356 . S
C687 C681 1.363 . S
C687 C682 1.379 1_455 S
C687 N685 1.356 . S
N688 C680 1.356 . S
N688 H694 0.984 . S
N688 H695 0.984 . S
N689 C682 1.356 . S
N689 H692 0.984 . S
N689 H693 0.985 . S
H690 N685 0.984 . S
H691 N685 0.985 . S
H692 N689 0.984 . S
H693 N689 0.985 . S
H694 N688 0.984 . S
H695 N688 0.984 . S
H696 N684 0.984 . S
H697 N684 0.985 . S
C698 C699 1.363 . S
C698 C704 1.379 . S
C698 N706 1.356 . S
C699 C698 1.363 . S
C699 C705 1.363 . S
C700 C701 1.363 . S
C700 C705 1.379 . S
C700 N707 1.356 . S
C701 C700 1.363 . S
C701 C704 1.363 . S
N702 C704 1.356 . S
N702 H714 0.984 . S
N702 H715 0.985 . S
N703 C705 1.356 . S
N703 H708 0.984 . S
N703 H709 0.985 . S
C704 C698 1.379 . S
C704 C701 1.363 . S
C704 N702 1.356 . S
C705 C699 1.363 . S
C705 C700 1.379 . S
C705 N703 1.356 . S
N706 C698 1.356 . S
N706 H712 0.984 . S
N706 H713 0.984 . S
N707 C700 1.356 . S
N707 H710 0.984 . S
N707 H711 0.985 . S
H708 N703 0.984 . S
H709 N703 0.985 . S
H710 N707 0.984 . S
H711 N707 0.985 . S
H712 N706 0.984 . S
H713 N706 0.984 . S
H714 N702 0.984 . S
H715 N702 0.985 . S
C716 C717 1.363 . S
C716 C722 1.379 . S
C716 N724 1.356 . S
C717 C716 1.363 . S
C717 C723 1.363 . S
C718 C719 1.363 . S
C718 C723 1.379 . S
C718 N725 1.356 . S
C719 C718 1.363 . S
C719 C722 1.363 . S
N720 C722 1.356 . S
N720 H732 0.984 . S
N720 H733 0.985 . S
N721 C723 1.356 . S
N721 H726 0.984 . S
N721 H727 0.985 . S
C722 C716 1.379 . S
C722 C719 1.363 . S
C722 N720 1.356 . S
C723 C717 1.363 . S
C723 C718 1.379 . S
C723 N721 1.356 . S
N724 C716 1.356 . S
N724 H730 0.984 . S
N724 H731 0.984 . S
N725 C718 1.356 . S
N725 H728 0.984 . S
N725 H729 0.985 . S
H726 N721 0.984 . S
H727 N721 0.985 . S
H728 N725 0.984 . S
H729 N725 0.985 . S
H730 N724 0.984 . S
H731 N724 0.984 . S
H732 N720 0.984 . S
H733 N720 0.985 . S
C734 C735 1.363 . S
C734 C740 1.379 1_455 S
C734 N742 1.356 . S
C735 C734 1.363 . S
C735 C741 1.363 . S
C736 C737 1.363 . S
C736 C741 1.379 1_655 S
C736 N743 1.356 . S
C737 C736 1.363 . S
C737 C740 1.363 . S
N738 C740 1.356 . S
N738 H750 0.984 . S
N738 H751 0.985 . S
N739 C741 1.356 . S
N739 H744 0.984 . S
N739 H745 0.985 . S
C740 C734 1.379 1_655 S
C740 C737 1.363 . S
C740 N738 1.356 . S
C741 C735 1.363 . S
C741 C736 1.379 1_455 S
C741 N739 1.356 . S
N742 C734 1.356 . S
N742 H748 0.984 . S
N742 H749 0.984 . S
N743 C736 1.356 . S
N743 H746 0.984 . S
N743 H747 0.985 . S
H744 N739 0.984 . S
H745 N739 0.985 . S
H746 N743 0.984 . S
H747 N743 0.985 . S
H748 N742 0.984 . S
H749 N742 0.984 . S
H750 N738 0.984 . S
H751 N738 0.985 . S
C752 C753 1.363 . S
C752 C758 1.379 1_554 S
C752 N760 1.356 . S
C753 C752 1.363 . S
C753 C759 1.363 1_554 S
C754 C755 1.363 . S
C754 C759 1.379 . S
C754 N761 1.356 . S
C755 C754 1.363 . S
C755 C758 1.363 . S
N756 C758 1.356 . S
N756 H768 0.984 . S
N756 H769 0.985 . S
N757 C759 1.356 1_554 S
N757 H762 0.984 . S
N757 H763 0.985 . S
C758 C752 1.379 1_556 S
C758 C755 1.363 . S
C758 N756 1.356 . S
C759 C753 1.363 1_556 S
C759 C754 1.379 . S
C759 N757 1.356 1_556 S
N760 C752 1.356 . S
N760 H766 0.984 . S
N760 H767 0.984 . S
N761 C754 1.356 . S
N761 H764 0.984 . S
N761 H765 0.985 . S
H762 N757 0.984 . S
H763 N757 0.985 . S
H764 N761 0.984 . S
H765 N761 0.985 . S
H766 N760 0.984 . S
H767 N760 0.984 . S
H768 N756 0.984 . S
H769 N756 0.985 . S
C770 C771 1.363 . S
C770 C776 1.379 1_554 S
C770 N778 1.356 . S
C771 C770 1.363 . S
C771 C777 1.363 . S
C772 C773 1.363 . S
C772 C777 1.379 1_556 S
C772 N779 1.356 . S
C773 C772 1.363 . S
C773 C776 1.363 . S
N774 C776 1.356 . S
N774 H786 0.984 . S
N774 H787 0.985 . S
N775 C777 1.356 . S
N775 H780 0.984 . S
N775 H781 0.985 . S
C776 C770 1.379 1_556 S
C776 C773 1.363 . S
C776 N774 1.356 . S
C777 C771 1.363 . S
C777 C772 1.379 1_554 S
C777 N775 1.356 . S
N778 C770 1.356 . S
N778 H784 0.984 . S
N778 H785 0.984 . S
N779 C772 1.356 . S
N779 H782 0.984 . S
N779 H783 0.985 . S
H780 N775 0.984 . S
H781 N775 0.985 . S
H782 N779 0.984 . S
H783 N779 0.985 . S
H784 N778 0.984 . S
H785 N778 0.984 . S
H786 N774 0.984 . S
H787 N774 0.985 . S
C788 C789 1.363 . S
C788 C794 1.379 . S
C788 N796 1.356 . S
C789 C788 1.363 . S
C789 C795 1.363 . S
C790 C791 1.363 . S
C790 C795 1.379 . S
C790 N797 1.356 . S
C791 C790 1.363 . S
C791 C794 1.363 . S
N792 C794 1.356 . S
N792 H804 0.984 . S
N792 H805 0.985 . S
N793 C795 1.356 . S
N793 H798 0.984 . S
N793 H799 0.985 . S
C794 C788 1.379 . S
C794 C791 1.363 . S
C794 N792 1.356 . S
C795 C789 1.363 . S
C795 C790 1.379 . S
C795 N793 1.356 . S
N796 C788 1.356 . S
N796 H802 0.984 . S
N796 H803 0.984 . S
N797 C790 1.356 . S
N797 H800 0.984 . S
N797 H801 0.985 . S
H798 N793 0.984 . S
H799 N793 0.985 . S
H800 N797 0.984 . S
H801 N797 0.985 . S
H802 N796 0.984 . S
H803 N796 0.984 . S
H804 N792 0.984 . S
H805 N792 0.985 . S
C806 C807 1.363 . S
C806 C812 1.379 . S
C806 N814 1.356 . S
C807 C806 1.363 . S
C807 C813 1.363 . S
C808 C809 1.363 . S
C808 C813 1.379 . S
C808 N815 1.356 . S
C809 C808 1.363 . S
C809 C812 1.363 . S
N810 C812 1.356 . S
N810 H822 0.984 . S
N810 H823 0.985 . S
N811 C813 1.356 . S
N811 H816 0.984 . S
N811 H817 0.985 . S
C812 C806 1.379 . S
C812 C809 1.363 . S
C812 N810 1.356 . S
C813 C807 1.363 . S
C813 C808 1.379 . S
C813 N811 1.356 . S
N814 C806 1.356 . S
N814 H820 0.984 . S
N814 H821 0.984 . S
N815 C808 1.356 . S
N815 H818 0.984 . S
N815 H819 0.985 . S
H816 N811 0.984 . S
H817 N811 0.985 . S
H818 N815 0.984 . S
H819 N815 0.985 . S
H820 N814 0.984 . S
H821 N814 0.984 . S
H822 N810 0.984 . S
H823 N810 0.985 . S
C824 C825 1.363 . S
C824 C830 1.379 1_556 S
C824 N832 1.356 . S
C825 C824 1.363 . S
C825 C831 1.348 1_556 S
C826 C827 1.363 . S
C826 C831 1.402 . S
C826 N833 1.356 . S
C827 C826 1.363 . S
C827 C830 1.363 . S
N828 C830 1.356 . S
N828 H840 0.984 . S
N828 H841 0.985 . S
N829 C831 1.342 1_556 S
N829 H834 0.984 . S
N829 H835 0.985 . S
C830 C824 1.379 1_554 S
C830 C827 1.363 . S
C830 N828 1.356 . S
C831 C825 1.348 1_554 S
C831 C826 1.402 . S
C831 N829 1.342 1_554 S
N832 C824 1.356 . S
N832 H838 0.984 . S
N832 H839 0.984 . S
N833 C826 1.356 . S
N833 H836 0.984 . S
N833 H837 0.985 . S
H834 N829 0.984 . S
H835 N829 0.985 . S
H836 N833 0.984 . S
H837 N833 0.985 . S
H838 N832 0.984 . S
H839 N832 0.984 . S
H840 N828 0.984 . S
H841 N828 0.985 . S
C842 C843 1.363 1_554 S
C842 C848 1.379 . S
C842 N850 1.356 1_554 S
C843 C842 1.363 1_556 S
C843 C849 1.363 . S
C844 C845 1.363 . S
C844 C849 1.379 1_554 S
C844 N851 1.356 . S
C845 C844 1.363 . S
C845 C848 1.363 . S
N846 C848 1.356 . S
N846 H858 0.984 . S
N846 H859 0.985 . S
N847 C849 1.356 . S
N847 H852 0.984 . S
N847 H853 0.985 . S
C848 C842 1.379 . S
C848 C845 1.363 . S
C848 N846 1.356 . S
C849 C843 1.363 . S
C849 C844 1.379 1_556 S
C849 N847 1.356 . S
N850 C842 1.356 1_556 S
N850 H856 0.984 . S
N850 H857 0.984 . S
N851 C844 1.356 . S
N851 H854 0.984 . S
N851 H855 0.985 . S
H852 N847 0.984 . S
H853 N847 0.985 . S
H854 N851 0.984 . S
H855 N851 0.985 . S
H856 N850 0.984 . S
H857 N850 0.984 . S
H858 N846 0.984 . S
H859 N846 0.985 . S
C860 C861 1.363 . S
C860 C866 1.379 . S
C860 N868 1.356 . S
C861 C860 1.363 . S
C861 C867 1.363 . S
C862 C863 1.363 . S
C862 C867 1.379 . S
C862 N869 1.356 . S
C863 C862 1.363 . S
C863 C866 1.363 . S
N864 C866 1.356 . S
N864 H876 0.984 . S
N864 H877 0.985 . S
N865 C867 1.356 . S
N865 H870 0.984 . S
N865 H871 0.985 . S
C866 C860 1.379 . S
C866 C863 1.363 . S
C866 N864 1.356 . S
C867 C861 1.363 . S
C867 C862 1.379 . S
C867 N865 1.356 . S
N868 C860 1.356 . S
N868 H874 0.984 . S
N868 H875 0.984 . S
N869 C862 1.356 . S
N869 H872 0.984 . S
N869 H873 0.985 . S
H870 N865 0.984 . S
H871 N865 0.985 . S
H872 N869 0.984 . S
H873 N869 0.985 . S
H874 N868 0.984 . S
H875 N868 0.984 . S
H876 N864 0.984 . S
H877 N864 0.985 . S
C878 C879 1.363 . S
C878 C884 1.379 . S
C878 N886 1.356 . S
C879 C878 1.363 . S
C879 C885 1.363 . S
C880 C881 1.363 . S
C880 C885 1.379 . S
C880 N887 1.356 . S
C881 C880 1.363 . S
C881 C884 1.363 . S
N882 C884 1.356 . S
N882 H894 0.984 . S
N882 H895 0.985 . S
N883 C885 1.356 . S
N883 H888 0.984 . S
N883 H889 0.985 . S
C884 C878 1.379 . S
C884 C881 1.363 . S
C884 N882 1.356 . S
C885 C879 1.363 . S
C885 C880 1.379 . S
C885 N883 1.356 . S
N886 C878 1.356 . S
N886 H892 0.984 . S
N886 H893 0.984 . S
N887 C880 1.356 . S
N887 H890 0.984 . S
N887 H891 0.985 . S
H888 N883 0.984 . S
H889 N883 0.985 . S
H890 N887 0.984 . S
H891 N887 0.985 . S
H892 N886 0.984 . S
H893 N886 0.984 . S
H894 N882 0.984 . S
H895 N882 0.985 . S
C896 C897 1.363 . S
C896 C902 1.379 1_554 S
C896 N904 1.356 . S
C897 C896 1.363 . S
C897 C903 1.363 . S
C898 C899 1.363 . S
C898 C903 1.379 1_556 S
C898 N905 1.356 . S
C899 C898 1.363 . S
C899 C902 1.363 . S
N900 C902 1.356 . S
N900 H912 0.984 . S
N900 H913 0.985 . S
N901 C903 1.356 . S
N901 H906 0.984 . S
N901 H907 0.985 . S
C902 C896 1.379 1_556 S
C902 C899 1.363 . S
C902 N900 1.356 . S
C903 C897 1.363 . S
C903 C898 1.379 1_554 S
C903 N901 1.356 . S
N904 C896 1.356 . S
N904 H910 0.984 . S
N904 H911 0.984 . S
N905 C898 1.356 . S
N905 H908 0.984 . S
N905 H909 0.985 . S
H906 N901 0.984 . S
H907 N901 0.985 . S
H908 N905 0.984 . S
H909 N905 0.985 . S
H910 N904 0.984 . S
H911 N904 0.984 . S
H912 N900 0.984 . S
H913 N900 0.985 . S
C914 C915 1.363 . S
C914 C920 1.379 . S
C914 N922 1.356 . S
C915 C914 1.363 . S
C915 C921 1.363 . S
C916 C917 1.363 . S
C916 C921 1.379 1_554 S
C916 N923 1.356 . S
C917 C916 1.363 . S
C917 C920 1.363 1_554 S
N918 C920 1.356 1_554 S
N918 H930 0.984 . S
N918 H931 0.985 . S
N919 C921 1.356 . S
N919 H924 0.984 . S
N919 H925 0.985 . S
C920 C914 1.379 . S
C920 C917 1.363 1_556 S
C920 N918 1.356 1_556 S
C921 C915 1.363 . S
C921 C916 1.379 1_556 S
C921 N919 1.356 . S
N922 C914 1.356 . S
N922 H928 0.984 . S
N922 H929 0.984 . S
N923 C916 1.356 . S
N923 H926 0.984 . S
N923 H927 0.985 . S
H924 N919 0.984 . S
H925 N919 0.985 . S
H926 N923 0.984 . S
H927 N923 0.985 . S
H928 N922 0.984 . S
H929 N922 0.984 . S
H930 N918 0.984 . S
H931 N918 0.985 . S
C932 C933 1.363 . S
C932 C938 1.379 . S
C932 N940 1.356 . S
C933 C932 1.363 . S
C933 C939 1.363 . S
C934 C935 1.363 . S
C934 C939 1.379 . S
C934 N941 1.356 . S
C935 C934 1.363 . S
C935 C938 1.363 . S
N936 C938 1.356 . S
N936 H948 0.984 . S
N936 H949 0.985 . S
N937 C939 1.356 . S
N937 H942 0.984 . S
N937 H943 0.985 . S
C938 C932 1.379 . S
C938 C935 1.363 . S
C938 N936 1.356 . S
C939 C933 1.363 . S
C939 C934 1.379 . S
C939 N937 1.356 . S
N940 C932 1.356 . S
N940 H946 0.984 . S
N940 H947 0.984 . S
N941 C934 1.356 . S
N941 H944 0.984 . S
N941 H945 0.985 . S
H942 N937 0.984 . S
H943 N937 0.985 . S
H944 N941 0.984 . S
H945 N941 0.985 . S
H946 N940 0.984 . S
H947 N940 0.984 . S
H948 N936 0.984 . S
H949 N936 0.985 . S
C950 C951 1.363 . S
C950 C956 1.379 . S
C950 N958 1.356 . S
C951 C950 1.363 . S
C951 C957 1.363 . S
C952 C953 1.363 . S
C952 C957 1.379 . S
C952 N959 1.356 . S
C953 C952 1.363 . S
C953 C956 1.363 . S
N954 C956 1.356 . S
N954 H966 0.984 . S
N954 H967 0.985 . S
N955 C957 1.356 . S
N955 H960 0.984 . S
N955 H961 0.985 . S
C956 C950 1.379 . S
C956 C953 1.363 . S
C956 N954 1.356 . S
C957 C951 1.363 . S
C957 C952 1.379 . S
C957 N955 1.356 . S
N958 C950 1.356 . S
N958 H964 0.984 . S
N958 H965 0.984 . S
N959 C952 1.356 . S
N959 H962 0.984 . S
N959 H963 0.985 . S
H960 N955 0.984 . S
H961 N955 0.985 . S
H962 N959 0.984 . S
H963 N959 0.985 . S
H964 N958 0.984 . S
H965 N958 0.984 . S
H966 N954 0.984 . S
H967 N954 0.985 . S
C968 C969 1.363 . S
C968 C974 1.379 1_554 S
C968 N976 1.356 . S
C969 C968 1.363 . S
C969 C975 1.363 . S
C970 C971 1.363 . S
C970 C975 1.379 1_556 S
C970 N977 1.356 . S
C971 C970 1.363 . S
C971 C974 1.363 . S
N972 C974 1.356 . S
N972 H984 0.984 . S
N972 H985 0.985 . S
N973 C975 1.356 . S
N973 H978 0.984 . S
N973 H979 0.985 . S
C974 C968 1.379 1_556 S
C974 C971 1.363 . S
C974 N972 1.356 . S
C975 C969 1.363 . S
C975 C970 1.379 1_554 S
C975 N973 1.356 . S
N976 C968 1.356 . S
N976 H982 0.984 . S
N976 H983 0.984 . S
N977 C970 1.356 . S
N977 H980 0.984 . S
N977 H981 0.985 . S
H978 N973 0.984 . S
H979 N973 0.985 . S
H980 N977 0.984 . S
H981 N977 0.985 . S
H982 N976 0.984 . S
H983 N976 0.984 . S
H984 N972 0.984 . S
H985 N972 0.985 . S
C986 C987 1.363 . S
C986 C992 1.379 1_556 S
C986 N994 1.356 . S
C987 C986 1.363 . S
C987 C993 1.363 1_556 S
C988 C989 1.363 . S
C988 C993 1.379 . S
C988 N995 1.356 . S
C989 C988 1.363 . S
C989 C992 1.363 . S
N990 C992 1.356 . S
N990 H1002 0.984 . S
N990 H1003 0.985 . S
N991 C993 1.356 1_556 S
N991 H996 0.984 . S
N991 H997 0.985 . S
C992 C986 1.379 1_554 S
C992 C989 1.363 . S
C992 N990 1.356 . S
C993 C987 1.363 1_554 S
C993 C988 1.379 . S
C993 N991 1.356 1_554 S
N994 C986 1.356 . S
N994 H1000 0.984 . S
N994 H1001 0.984 . S
N995 C988 1.356 . S
N995 H998 0.984 . S
N995 H999 0.985 . S
H996 N991 0.984 . S
H997 N991 0.985 . S
H998 N995 0.984 . S
H999 N995 0.985 . S
H1000 N994 0.984 . S
H1001 N994 0.984 . S
H1002 N990 0.984 . S
H1003 N990 0.985 . S
C1004 C1005 1.363 . S
C1004 C1010 1.379 . S
C1004 N1012 1.356 . S
C1005 C1004 1.363 . S
C1005 C1011 1.363 . S
C1006 C1007 1.363 . S
C1006 C1011 1.379 . S
C1006 N1013 1.356 . S
C1007 C1006 1.363 . S
C1007 C1010 1.363 . S
N1008 C1010 1.356 . S
N1008 H1020 0.984 . S
N1008 H1021 0.985 . S
N1009 C1011 1.356 . S
N1009 H1014 0.984 . S
N1009 H1015 0.985 . S
C1010 C1004 1.379 . S
C1010 C1007 1.363 . S
C1010 N1008 1.356 . S
C1011 C1005 1.363 . S
C1011 C1006 1.379 . S
C1011 N1009 1.356 . S
N1012 C1004 1.356 . S
N1012 H1018 0.984 . S
N1012 H1019 0.984 . S
N1013 C1006 1.356 . S
N1013 H1016 0.984 . S
N1013 H1017 0.985 . S
H1014 N1009 0.984 . S
H1015 N1009 0.985 . S
H1016 N1013 0.984 . S
H1017 N1013 0.985 . S
H1018 N1012 0.984 . S
H1019 N1012 0.984 . S
H1020 N1008 0.984 . S
H1021 N1008 0.985 . S
C1022 C1023 1.363 . S
C1022 C1028 1.379 . S
C1022 N1030 1.356 . S
C1023 C1022 1.363 . S
C1023 C1029 1.363 . S
C1024 C1025 1.363 . S
C1024 C1029 1.379 . S
C1024 N1031 1.356 . S
C1025 C1024 1.363 . S
C1025 C1028 1.363 . S
N1026 C1028 1.356 . S
N1026 H1038 0.984 . S
N1026 H1039 0.985 . S
N1027 C1029 1.356 . S
N1027 H1032 0.984 . S
N1027 H1033 0.985 . S
C1028 C1022 1.379 . S
C1028 C1025 1.363 . S
C1028 N1026 1.356 . S
C1029 C1023 1.363 . S
C1029 C1024 1.379 . S
C1029 N1027 1.356 . S
N1030 C1022 1.356 . S
N1030 H1036 0.984 . S
N1030 H1037 0.984 . S
N1031 C1024 1.356 . S
N1031 H1034 0.984 . S
N1031 H1035 0.985 . S
H1032 N1027 0.984 . S
H1033 N1027 0.985 . S
H1034 N1031 0.984 . S
H1035 N1031 0.985 . S
H1036 N1030 0.984 . S
H1037 N1030 0.984 . S
H1038 N1026 0.984 . S
H1039 N1026 0.985 . S
C1040 C1041 1.363 . S
C1040 C1046 1.379 1_545 S
C1040 N1048 1.356 . S
C1041 C1040 1.363 . S
C1041 C1047 1.363 . S
C1042 C1043 1.363 . S
C1042 C1047 1.379 1_565 S
C1042 N1049 1.356 . S
C1043 C1042 1.363 . S
C1043 C1046 1.363 . S
N1044 C1046 1.356 . S
N1044 H1056 0.984 . S
N1044 H1057 0.985 . S
N1045 C1047 1.356 . S
N1045 H1050 0.984 . S
N1045 H1051 0.985 . S
C1046 C1040 1.379 1_565 S
C1046 C1043 1.363 . S
C1046 N1044 1.356 . S
C1047 C1041 1.363 . S
C1047 C1042 1.379 1_545 S
C1047 N1045 1.356 . S
N1048 C1040 1.356 . S
N1048 H1054 0.972 1_545 S
N1048 H1055 0.984 . S
N1049 C1042 1.356 . S
N1049 H1052 0.984 . S
N1049 H1053 0.972 1_565 S
H1050 N1045 0.984 . S
H1051 N1045 0.985 . S
H1052 N1049 0.984 . S
H1053 N1049 0.972 1_545 S
H1054 N1048 0.972 1_565 S
H1055 N1048 0.984 . S
H1056 N1044 0.984 . S
H1057 N1044 0.985 . S
C1058 C1059 1.363 . S
C1058 C1064 1.379 1_545 S
C1058 N1066 1.356 . S
C1059 C1058 1.363 . S
C1059 C1065 1.363 . S
C1060 C1061 1.363 . S
C1060 C1065 1.379 1_565 S
C1060 N1067 1.356 . S
C1061 C1060 1.363 . S
C1061 C1064 1.363 . S
N1062 C1064 1.356 . S
N1062 H1074 0.984 . S
N1062 H1075 0.985 . S
N1063 C1065 1.356 . S
N1063 H1068 0.984 . S
N1063 H1069 0.985 . S
C1064 C1058 1.379 1_565 S
C1064 C1061 1.363 . S
C1064 N1062 1.356 . S
C1065 C1059 1.363 . S
C1065 C1060 1.379 1_545 S
C1065 N1063 1.356 . S
N1066 C1058 1.356 . S
N1066 H1072 0.972 1_545 S
N1066 H1073 0.984 . S
N1067 C1060 1.356 . S
N1067 H1070 0.984 . S
N1067 H1071 0.972 1_565 S
H1068 N1063 0.984 . S
H1069 N1063 0.985 . S
H1070 N1067 0.984 . S
H1071 N1067 0.972 1_545 S
H1072 N1066 0.972 1_565 S
H1073 N1066 0.984 . S
H1074 N1062 0.984 . S
H1075 N1062 0.985 . S
C1076 C1077 1.363 . S
C1076 C1082 1.379 1_565 S
C1076 N1084 1.356 . S
C1077 C1076 1.363 . S
C1077 C1083 1.363 . S
C1078 C1079 1.363 . S
C1078 C1083 1.379 1_545 S
C1078 N1085 1.356 . S
C1079 C1078 1.363 . S
C1079 C1082 1.363 . S
N1080 C1082 1.356 . S
N1080 H1092 0.984 . S
N1080 H1093 0.985 . S
N1081 C1083 1.356 . S
N1081 H1086 0.984 . S
N1081 H1087 0.985 . S
C1082 C1076 1.379 1_545 S
C1082 C1079 1.363 . S
C1082 N1080 1.356 . S
C1083 C1077 1.363 . S
C1083 C1078 1.379 1_565 S
C1083 N1081 1.356 . S
N1084 C1076 1.356 . S
N1084 H1090 0.972 1_565 S
N1084 H1091 0.984 . S
N1085 C1078 1.356 . S
N1085 H1088 0.984 . S
N1085 H1089 0.972 1_545 S
H1086 N1081 0.984 . S
H1087 N1081 0.985 . S
H1088 N1085 0.984 . S
H1089 N1085 0.972 1_565 S
H1090 N1084 0.972 1_545 S
H1091 N1084 0.984 . S
H1092 N1080 0.984 . S
H1093 N1080 0.985 . S
C1094 C1095 1.363 . S
C1094 C1100 1.379 1_565 S
C1094 N1102 1.356 . S
C1095 C1094 1.363 . S
C1095 C1101 1.363 . S
C1096 C1097 1.363 . S
C1096 C1101 1.379 1_545 S
C1096 N1103 1.356 . S
C1097 C1096 1.363 . S
C1097 C1100 1.363 . S
N1098 C1100 1.356 . S
N1098 H1110 0.984 . S
N1098 H1111 0.985 . S
N1099 C1101 1.356 . S
N1099 H1104 0.984 . S
N1099 H1105 0.985 . S
C1100 C1094 1.379 1_545 S
C1100 C1097 1.363 . S
C1100 N1098 1.356 . S
C1101 C1095 1.363 . S
C1101 C1096 1.379 1_565 S
C1101 N1099 1.356 . S
N1102 C1094 1.356 . S
N1102 H1108 0.972 1_565 S
N1102 H1109 0.984 . S
N1103 C1096 1.356 . S
N1103 H1106 0.984 . S
N1103 H1107 0.972 1_545 S
H1104 N1099 0.984 . S
H1105 N1099 0.985 . S
H1106 N1103 0.984 . S
H1107 N1103 0.972 1_565 S
H1108 N1102 0.972 1_545 S
H1109 N1102 0.984 . S
H1110 N1098 0.984 . S
H1111 N1098 0.985 . S
C1112 C1113 1.363 . S
C1112 C1118 1.379 . S
C1112 N1120 1.356 . S
C1113 C1112 1.363 . S
C1113 C1119 1.363 . S
C1114 C1115 1.363 . S
C1114 C1119 1.379 . S
C1114 N1121 1.356 . S
C1115 C1114 1.363 . S
C1115 C1118 1.363 . S
N1116 C1118 1.356 . S
N1116 H1128 0.984 . S
N1116 H1129 0.985 . S
N1117 C1119 1.356 . S
N1117 H1122 0.984 . S
N1117 H1123 0.985 . S
C1118 C1112 1.379 . S
C1118 C1115 1.363 . S
C1118 N1116 1.356 . S
C1119 C1113 1.363 . S
C1119 C1114 1.379 . S
C1119 N1117 1.356 . S
N1120 C1112 1.356 . S
N1120 H1126 0.984 . S
N1120 H1127 0.984 . S
N1121 C1114 1.356 . S
N1121 H1124 0.984 . S
N1121 H1125 0.985 . S
H1122 N1117 0.984 . S
H1123 N1117 0.985 . S
H1124 N1121 0.984 . S
H1125 N1121 0.985 . S
H1126 N1120 0.984 . S
H1127 N1120 0.984 . S
H1128 N1116 0.984 . S
H1129 N1116 0.985 . S
C1130 C1131 1.363 . S
C1130 C1136 1.379 . S
C1130 N1138 1.356 . S
C1131 C1130 1.363 . S
C1131 C1137 1.363 . S
C1132 C1133 1.363 . S
C1132 C1137 1.379 . S
C1132 N1139 1.356 . S
C1133 C1132 1.363 . S
C1133 C1136 1.363 . S
N1134 C1136 1.356 . S
N1134 H1146 0.984 . S
N1134 H1147 0.985 . S
N1135 C1137 1.356 . S
N1135 H1140 0.984 . S
N1135 H1141 0.985 . S
C1136 C1130 1.379 . S
C1136 C1133 1.363 . S
C1136 N1134 1.356 . S
C1137 C1131 1.363 . S
C1137 C1132 1.379 . S
C1137 N1135 1.356 . S
N1138 C1130 1.356 . S
N1138 H1144 0.984 . S
N1138 H1145 0.984 . S
N1139 C1132 1.356 . S
N1139 H1142 0.984 . S
N1139 H1143 0.985 . S
H1140 N1135 0.984 . S
H1141 N1135 0.985 . S
H1142 N1139 0.984 . S
H1143 N1139 0.985 . S
H1144 N1138 0.984 . S
H1145 N1138 0.984 . S
H1146 N1134 0.984 . S
H1147 N1134 0.985 . S
C1148 C1149 1.363 . S
C1148 C1154 1.379 . S
C1148 N1156 1.356 . S
C1149 C1148 1.363 . S
C1149 C1155 1.363 . S
C1150 C1151 1.363 . S
C1150 C1155 1.379 . S
C1150 N1157 1.356 . S
C1151 C1150 1.363 . S
C1151 C1154 1.363 . S
N1152 C1154 1.356 . S
N1152 H1164 0.984 . S
N1152 H1165 0.985 . S
N1153 C1155 1.356 . S
N1153 H1158 0.984 . S
N1153 H1159 0.985 . S
C1154 C1148 1.379 . S
C1154 C1151 1.363 . S
C1154 N1152 1.356 . S
C1155 C1149 1.363 . S
C1155 C1150 1.379 . S
C1155 N1153 1.356 . S
N1156 C1148 1.356 . S
N1156 H1162 0.984 . S
N1156 H1163 0.984 . S
N1157 C1150 1.356 . S
N1157 H1160 0.984 . S
N1157 H1161 0.985 . S
H1158 N1153 0.984 . S
H1159 N1153 0.985 . S
H1160 N1157 0.984 . S
H1161 N1157 0.985 . S
H1162 N1156 0.984 . S
H1163 N1156 0.984 . S
H1164 N1152 0.984 . S
H1165 N1152 0.985 . S
C1166 C1167 1.363 . S
C1166 C1172 1.379 . S
C1166 N1174 1.356 . S
C1167 C1166 1.363 . S
C1167 C1173 1.363 . S
C1168 C1169 1.363 . S
C1168 C1173 1.379 . S
C1168 N1175 1.356 . S
C1169 C1168 1.363 . S
C1169 C1172 1.363 . S
N1170 C1172 1.356 . S
N1170 H1182 0.984 . S
N1170 H1183 0.985 . S
N1171 C1173 1.356 . S
N1171 H1176 0.984 . S
N1171 H1177 0.985 . S
C1172 C1166 1.379 . S
C1172 C1169 1.363 . S
C1172 N1170 1.356 . S
C1173 C1167 1.363 . S
C1173 C1168 1.379 . S
C1173 N1171 1.356 . S
N1174 C1166 1.356 . S
N1174 H1180 0.984 . S
N1174 H1181 0.984 . S
N1175 C1168 1.356 . S
N1175 H1178 0.984 . S
N1175 H1179 0.985 . S
H1176 N1171 0.984 . S
H1177 N1171 0.985 . S
H1178 N1175 0.984 . S
H1179 N1175 0.985 . S
H1180 N1174 0.984 . S
H1181 N1174 0.984 . S
H1182 N1170 0.984 . S
H1183 N1170 0.985 . S
C1184 C1185 1.363 1_655 S
C1184 C1190 1.379 . S
C1184 N1192 1.356 . S
C1185 C1184 1.363 1_455 S
C1185 C1191 1.363 . S
C1186 C1187 1.363 1_455 S
C1186 C1191 1.379 . S
C1186 N1193 1.356 . S
C1187 C1186 1.363 1_655 S
C1187 C1190 1.363 . S
N1188 C1190 1.356 . S
N1188 H1200 0.984 . S
N1188 H1201 0.985 . S
N1189 C1191 1.356 . S
N1189 H1194 0.984 . S
N1189 H1195 0.985 . S
C1190 C1184 1.379 . S
C1190 C1187 1.363 . S
C1190 N1188 1.356 . S
C1191 C1185 1.363 . S
C1191 C1186 1.379 . S
C1191 N1189 1.356 . S
N1192 C1184 1.356 . S
N1192 H1198 0.984 . S
N1192 H1199 0.984 . S
N1193 C1186 1.356 . S
N1193 H1196 0.984 . S
N1193 H1197 0.985 . S
H1194 N1189 0.984 . S
H1195 N1189 0.985 . S
H1196 N1193 0.984 . S
H1197 N1193 0.985 . S
H1198 N1192 0.984 . S
H1199 N1192 0.984 . S
H1200 N1188 0.984 . S
H1201 N1188 0.985 . S
C1202 C1203 1.363 . S
C1202 C1208 1.379 . S
C1202 N1210 1.356 . S
C1203 C1202 1.363 . S
C1203 C1209 1.363 . S
C1204 C1205 1.363 . S
C1204 C1209 1.379 . S
C1204 N1211 1.356 . S
C1205 C1204 1.363 . S
C1205 C1208 1.363 . S
N1206 C1208 1.356 . S
N1206 H1218 0.984 . S
N1206 H1219 0.985 . S
N1207 C1209 1.356 . S
N1207 H1212 0.984 . S
N1207 H1213 0.985 . S
C1208 C1202 1.379 . S
C1208 C1205 1.363 . S
C1208 N1206 1.356 . S
C1209 C1203 1.363 . S
C1209 C1204 1.379 . S
C1209 N1207 1.356 . S
N1210 C1202 1.356 . S
N1210 H1216 0.984 . S
N1210 H1217 0.984 . S
N1211 C1204 1.356 . S
N1211 H1214 0.984 . S
N1211 H1215 0.985 . S
H1212 N1207 0.984 . S
H1213 N1207 0.985 . S
H1214 N1211 0.984 . S
H1215 N1211 0.985 . S
H1216 N1210 0.984 . S
H1217 N1210 0.984 . S
H1218 N1206 0.984 . S
H1219 N1206 0.985 . S
C1220 C1221 1.363 . S
C1220 C1226 1.379 . S
C1220 N1228 1.356 . S
C1221 C1220 1.363 . S
C1221 C1227 1.363 . S
C1222 C1223 1.363 . S
C1222 C1227 1.379 . S
C1222 N1229 1.356 . S
C1223 C1222 1.363 . S
C1223 C1226 1.363 . S
N1224 C1226 1.356 . S
N1224 H1236 0.984 . S
N1224 H1237 0.985 . S
N1225 C1227 1.356 . S
N1225 H1230 0.984 . S
N1225 H1231 0.985 . S
C1226 C1220 1.379 . S
C1226 C1223 1.363 . S
C1226 N1224 1.356 . S
C1227 C1221 1.363 . S
C1227 C1222 1.379 . S
C1227 N1225 1.356 . S
N1228 C1220 1.356 . S
N1228 H1234 0.984 . S
N1228 H1235 0.984 . S
N1229 C1222 1.356 . S
N1229 H1232 0.984 . S
N1229 H1233 0.985 . S
H1230 N1225 0.984 . S
H1231 N1225 0.985 . S
H1232 N1229 0.984 . S
H1233 N1229 0.985 . S
H1234 N1228 0.984 . S
H1235 N1228 0.984 . S
H1236 N1224 0.984 . S
H1237 N1224 0.985 . S
C1238 C1239 1.363 1_655 S
C1238 C1244 1.379 . S
C1238 N1246 1.356 . S
C1239 C1238 1.363 1_455 S
C1239 C1245 1.363 . S
C1240 C1241 1.363 1_455 S
C1240 C1245 1.379 . S
C1240 N1247 1.356 . S
C1241 C1240 1.363 1_655 S
C1241 C1244 1.363 . S
N1242 C1244 1.356 . S
N1242 H1254 0.984 . S
N1242 H1255 0.985 . S
N1243 C1245 1.356 . S
N1243 H1248 0.984 . S
N1243 H1249 0.985 . S
C1244 C1238 1.379 . S
C1244 C1241 1.363 . S
C1244 N1242 1.356 . S
C1245 C1239 1.363 . S
C1245 C1240 1.379 . S
C1245 N1243 1.356 . S
N1246 C1238 1.356 . S
N1246 H1252 0.984 . S
N1246 H1253 0.984 . S
N1247 C1240 1.356 . S
N1247 H1250 0.984 . S
N1247 H1251 0.985 . S
H1248 N1243 0.984 . S
H1249 N1243 0.985 . S
H1250 N1247 0.984 . S
H1251 N1247 0.985 . S
H1252 N1246 0.984 . S
H1253 N1246 0.984 . S
H1254 N1242 0.984 . S
H1255 N1242 0.985 . S
C1256 C1257 1.363 1_455 S
C1256 C1262 1.379 . S
C1256 N1264 1.356 . S
C1257 C1256 1.363 1_655 S
C1257 C1263 1.363 . S
C1258 C1259 1.363 1_655 S
C1258 C1263 1.379 . S
C1258 N1265 1.356 . S
C1259 C1258 1.363 1_455 S
C1259 C1262 1.363 . S
N1260 C1262 1.356 . S
N1260 H1272 0.984 . S
N1260 H1273 0.985 . S
N1261 C1263 1.356 . S
N1261 H1266 0.984 . S
N1261 H1267 0.985 . S
C1262 C1256 1.379 . S
C1262 C1259 1.363 . S
C1262 N1260 1.356 . S
C1263 C1257 1.363 . S
C1263 C1258 1.379 . S
C1263 N1261 1.356 . S
N1264 C1256 1.356 . S
N1264 H1270 0.984 . S
N1264 H1271 0.984 . S
N1265 C1258 1.356 . S
N1265 H1268 0.984 . S
N1265 H1269 0.985 . S
H1266 N1261 0.984 . S
H1267 N1261 0.985 . S
H1268 N1265 0.984 . S
H1269 N1265 0.985 . S
H1270 N1264 0.984 . S
H1271 N1264 0.984 . S
H1272 N1260 0.984 . S
H1273 N1260 0.985 . S
C1274 C1275 1.363 . S
C1274 C1280 1.379 . S
C1274 N1282 1.356 . S
C1275 C1274 1.363 . S
C1275 C1281 1.363 . S
C1276 C1277 1.363 . S
C1276 C1281 1.379 . S
C1276 N1283 1.356 . S
C1277 C1276 1.363 . S
C1277 C1280 1.363 . S
N1278 C1280 1.356 . S
N1278 H1290 0.984 . S
N1278 H1291 0.985 . S
N1279 C1281 1.356 . S
N1279 H1284 0.984 . S
N1279 H1285 0.985 . S
C1280 C1274 1.379 . S
C1280 C1277 1.363 . S
C1280 N1278 1.356 . S
C1281 C1275 1.363 . S
C1281 C1276 1.379 . S
C1281 N1279 1.356 . S
N1282 C1274 1.356 . S
N1282 H1288 0.984 . S
N1282 H1289 0.984 . S
N1283 C1276 1.356 . S
N1283 H1286 0.984 . S
N1283 H1287 0.985 . S
H1284 N1279 0.984 . S
H1285 N1279 0.985 . S
H1286 N1283 0.984 . S
H1287 N1283 0.985 . S
H1288 N1282 0.984 . S
H1289 N1282 0.984 . S
H1290 N1278 0.984 . S
H1291 N1278 0.985 . S
C1292 C1293 1.363 . S
C1292 C1298 1.379 . S
C1292 N1300 1.356 . S
C1293 C1292 1.363 . S
C1293 C1299 1.363 . S
C1294 C1295 1.363 . S
C1294 C1299 1.379 . S
C1294 N1301 1.356 . S
C1295 C1294 1.363 . S
C1295 C1298 1.363 . S
N1296 C1298 1.356 . S
N1296 H1308 0.984 . S
N1296 H1309 0.985 . S
N1297 C1299 1.356 . S
N1297 H1302 0.984 . S
N1297 H1303 0.985 . S
C1298 C1292 1.379 . S
C1298 C1295 1.363 . S
C1298 N1296 1.356 . S
C1299 C1293 1.363 . S
C1299 C1294 1.379 . S
C1299 N1297 1.356 . S
N1300 C1292 1.356 . S
N1300 H1306 0.984 . S
N1300 H1307 0.984 . S
N1301 C1294 1.356 . S
N1301 H1304 0.984 . S
N1301 H1305 0.985 . S
H1302 N1297 0.984 . S
H1303 N1297 0.985 . S
H1304 N1301 0.984 . S
H1305 N1301 0.985 . S
H1306 N1300 0.984 . S
H1307 N1300 0.984 . S
H1308 N1296 0.984 . S
H1309 N1296 0.985 . S
C1310 C1311 1.363 . S
C1310 C1316 1.379 . S
C1310 N1318 1.356 . S
C1311 C1310 1.363 . S
C1311 C1317 1.363 1_655 S
C1312 C1313 1.363 . S
C1312 C1317 1.379 . S
C1312 N1319 1.356 . S
C1313 C1312 1.363 . S
C1313 C1316 1.363 1_455 S
N1314 C1316 1.356 . S
N1314 H1326 0.984 . S
N1314 H1327 0.985 . S
N1315 C1317 1.356 . S
N1315 H1320 0.984 . S
N1315 H1321 0.985 . S
C1316 C1310 1.379 . S
C1316 C1313 1.363 1_655 S
C1316 N1314 1.356 . S
C1317 C1311 1.363 1_455 S
C1317 C1312 1.379 . S
C1317 N1315 1.356 . S
N1318 C1310 1.356 . S
N1318 H1324 0.984 . S
N1318 H1325 0.984 . S
N1319 C1312 1.356 . S
N1319 H1322 0.984 . S
N1319 H1323 0.985 . S
H1320 N1315 0.984 . S
H1321 N1315 0.985 . S
H1322 N1319 0.984 . S
H1323 N1319 0.985 . S
H1324 N1318 0.984 . S
H1325 N1318 0.984 . S
H1326 N1314 0.984 . S
H1327 N1314 0.985 . S
C1328 C1329 1.363 1_655 S
C1328 C1334 1.379 . S
C1328 N1336 1.356 . S
C1329 C1328 1.363 1_455 S
C1329 C1335 1.363 . S
C1330 C1331 1.363 1_455 S
C1330 C1335 1.379 . S
C1330 N1337 1.356 . S
C1331 C1330 1.363 1_655 S
C1331 C1334 1.363 . S
N1332 C1334 1.356 . S
N1332 H1344 0.984 . S
N1332 H1345 0.985 . S
N1333 C1335 1.356 . S
N1333 H1338 0.984 . S
N1333 H1339 0.985 . S
C1334 C1328 1.379 . S
C1334 C1331 1.363 . S
C1334 N1332 1.356 . S
C1335 C1329 1.363 . S
C1335 C1330 1.379 . S
C1335 N1333 1.356 . S
N1336 C1328 1.356 . S
N1336 H1342 0.984 . S
N1336 H1343 0.984 . S
N1337 C1330 1.356 . S
N1337 H1340 0.984 . S
N1337 H1341 0.985 . S
H1338 N1333 0.984 . S
H1339 N1333 0.985 . S
H1340 N1337 0.984 . S
H1341 N1337 0.985 . S
H1342 N1336 0.984 . S
H1343 N1336 0.984 . S
H1344 N1332 0.984 . S
H1345 N1332 0.985 . S
C1346 C1347 1.363 . S
C1346 C1352 1.379 . S
C1346 N1354 1.356 . S
C1347 C1346 1.363 . S
C1347 C1353 1.363 . S
C1348 C1349 1.363 . S
C1348 C1353 1.379 . S
C1348 N1355 1.356 . S
C1349 C1348 1.363 . S
C1349 C1352 1.363 . S
N1350 C1352 1.356 . S
N1350 H1362 0.984 . S
N1350 H1363 0.985 . S
N1351 C1353 1.356 . S
N1351 H1356 0.984 . S
N1351 H1357 0.985 . S
C1352 C1346 1.379 . S
C1352 C1349 1.363 . S
C1352 N1350 1.356 . S
C1353 C1347 1.363 . S
C1353 C1348 1.379 . S
C1353 N1351 1.356 . S
N1354 C1346 1.356 . S
N1354 H1360 0.984 . S
N1354 H1361 0.984 . S
N1355 C1348 1.356 . S
N1355 H1358 0.984 . S
N1355 H1359 0.985 . S
H1356 N1351 0.984 . S
H1357 N1351 0.985 . S
H1358 N1355 0.984 . S
H1359 N1355 0.985 . S
H1360 N1354 0.984 . S
H1361 N1354 0.984 . S
H1362 N1350 0.984 . S
H1363 N1350 0.985 . S
C1364 C1365 1.363 1_455 S
C1364 C1370 1.379 . S
C1364 N1372 1.356 . S
C1365 C1364 1.363 1_655 S
C1365 C1371 1.363 . S
C1366 C1367 1.363 1_655 S
C1366 C1371 1.379 . S
C1366 N1373 1.356 . S
C1367 C1366 1.363 1_455 S
C1367 C1370 1.363 . S
N1368 C1370 1.356 . S
N1368 H1380 0.984 . S
N1368 H1381 0.985 . S
N1369 C1371 1.356 . S
N1369 H1374 0.984 . S
N1369 H1375 0.985 . S
C1370 C1364 1.379 . S
C1370 C1367 1.363 . S
C1370 N1368 1.356 . S
C1371 C1365 1.363 . S
C1371 C1366 1.379 . S
C1371 N1369 1.356 . S
N1372 C1364 1.356 . S
N1372 H1378 0.984 . S
N1372 H1379 0.984 . S
N1373 C1366 1.356 . S
N1373 H1376 0.984 . S
N1373 H1377 0.985 . S
H1374 N1369 0.984 . S
H1375 N1369 0.985 . S
H1376 N1373 0.984 . S
H1377 N1373 0.985 . S
H1378 N1372 0.984 . S
H1379 N1372 0.984 . S
H1380 N1368 0.984 . S
H1381 N1368 0.985 . S
C1382 C1383 1.363 . S
C1382 C1388 1.379 . S
C1382 N1390 1.356 . S
C1383 C1382 1.363 . S
C1383 C1389 1.363 . S
C1384 C1385 1.363 . S
C1384 C1389 1.379 . S
C1384 N1391 1.356 . S
C1385 C1384 1.363 . S
C1385 C1388 1.363 . S
N1386 C1388 1.356 . S
N1386 H1398 0.984 . S
N1386 H1399 0.985 . S
N1387 C1389 1.356 . S
N1387 H1392 0.984 . S
N1387 H1393 0.985 . S
C1388 C1382 1.379 . S
C1388 C1385 1.363 . S
C1388 N1386 1.356 . S
C1389 C1383 1.363 . S
C1389 C1384 1.379 . S
C1389 N1387 1.356 . S
N1390 C1382 1.356 . S
N1390 H1396 0.984 . S
N1390 H1397 0.984 . S
N1391 C1384 1.356 . S
N1391 H1394 0.984 . S
N1391 H1395 0.985 . S
H1392 N1387 0.984 . S
H1393 N1387 0.985 . S
H1394 N1391 0.984 . S
H1395 N1391 0.985 . S
H1396 N1390 0.984 . S
H1397 N1390 0.984 . S
H1398 N1386 0.984 . S
H1399 N1386 0.985 . S
C1400 C1401 1.363 . S
C1400 C1406 1.379 . S
C1400 N1408 1.356 . S
C1401 C1400 1.363 . S
C1401 C1407 1.363 . S
C1402 C1403 1.363 . S
C1402 C1407 1.379 . S
C1402 N1409 1.356 . S
C1403 C1402 1.363 . S
C1403 C1406 1.363 . S
N1404 C1406 1.356 . S
N1404 H1416 0.984 . S
N1404 H1417 0.985 . S
N1405 C1407 1.356 . S
N1405 H1410 0.984 . S
N1405 H1411 0.985 . S
C1406 C1400 1.379 . S
C1406 C1403 1.363 . S
C1406 N1404 1.356 . S
C1407 C1401 1.363 . S
C1407 C1402 1.379 . S
C1407 N1405 1.356 . S
N1408 C1400 1.356 . S
N1408 H1414 0.984 . S
N1408 H1415 0.984 . S
N1409 C1402 1.356 . S
N1409 H1412 0.984 . S
N1409 H1413 0.985 . S
H1410 N1405 0.984 . S
H1411 N1405 0.985 . S
H1412 N1409 0.984 . S
H1413 N1409 0.985 . S
H1414 N1408 0.984 . S
H1415 N1408 0.984 . S
H1416 N1404 0.984 . S
H1417 N1404 0.985 . S
C1418 C1419 1.363 1_655 S
C1418 C1424 1.379 . S
C1418 N1426 1.356 . S
C1419 C1418 1.363 1_455 S
C1419 C1425 1.363 . S
C1420 C1421 1.363 1_455 S
C1420 C1425 1.379 . S
C1420 N1427 1.356 . S
C1421 C1420 1.363 1_655 S
C1421 C1424 1.363 . S
N1422 C1424 1.356 . S
N1422 H1434 0.984 . S
N1422 H1435 0.985 . S
N1423 C1425 1.356 . S
N1423 H1428 0.984 . S
N1423 H1429 0.985 . S
C1424 C1418 1.379 . S
C1424 C1421 1.363 . S
C1424 N1422 1.356 . S
C1425 C1419 1.363 . S
C1425 C1420 1.379 . S
C1425 N1423 1.356 . S
N1426 C1418 1.356 . S
N1426 H1432 0.984 . S
N1426 H1433 0.984 . S
N1427 C1420 1.356 . S
N1427 H1430 0.984 . S
N1427 H1431 0.985 . S
H1428 N1423 0.984 . S
H1429 N1423 0.985 . S
H1430 N1427 0.984 . S
H1431 N1427 0.985 . S
H1432 N1426 0.984 . S
H1433 N1426 0.984 . S
H1434 N1422 0.984 . S
H1435 N1422 0.985 . S
C1436 C1437 1.363 . S
C1436 C1442 1.379 . S
C1436 N1444 1.356 . S
C1437 C1436 1.363 . S
C1437 C1443 1.363 . S
C1438 C1439 1.363 . S
C1438 C1443 1.379 . S
C1438 N1445 1.356 . S
C1439 C1438 1.363 . S
C1439 C1442 1.363 . S
N1440 C1442 1.356 . S
N1440 H1452 0.984 . S
N1440 H1453 0.985 . S
N1441 C1443 1.356 . S
N1441 H1446 0.984 . S
N1441 H1447 0.985 . S
C1442 C1436 1.379 . S
C1442 C1439 1.363 . S
C1442 N1440 1.356 . S
C1443 C1437 1.363 . S
C1443 C1438 1.379 . S
C1443 N1441 1.356 . S
N1444 C1436 1.356 . S
N1444 H1450 0.984 . S
N1444 H1451 0.984 . S
N1445 C1438 1.356 . S
N1445 H1448 0.984 . S
N1445 H1449 0.985 . S
H1446 N1441 0.984 . S
H1447 N1441 0.985 . S
H1448 N1445 0.984 . S
H1449 N1445 0.985 . S
H1450 N1444 0.984 . S
H1451 N1444 0.984 . S
H1452 N1440 0.984 . S
H1453 N1440 0.985 . S
C1454 C1455 1.363 1_655 S
C1454 C1460 1.379 . S
C1454 N1462 1.356 . S
C1455 C1454 1.363 1_455 S
C1455 C1461 1.363 . S
C1456 C1457 1.363 1_455 S
C1456 C1461 1.379 . S
C1456 N1463 1.356 . S
C1457 C1456 1.363 1_655 S
C1457 C1460 1.363 . S
N1458 C1460 1.356 . S
N1458 H1470 0.984 . S
N1458 H1471 0.985 . S
N1459 C1461 1.356 . S
N1459 H1464 0.984 . S
N1459 H1465 0.985 . S
C1460 C1454 1.379 . S
C1460 C1457 1.363 . S
C1460 N1458 1.356 . S
C1461 C1455 1.363 . S
C1461 C1456 1.379 . S
C1461 N1459 1.356 . S
N1462 C1454 1.356 . S
N1462 H1468 0.984 . S
N1462 H1469 0.984 . S
N1463 C1456 1.356 . S
N1463 H1466 0.984 . S
N1463 H1467 0.985 . S
H1464 N1459 0.984 . S
H1465 N1459 0.985 . S
H1466 N1463 0.984 . S
H1467 N1463 0.985 . S
H1468 N1462 0.984 . S
H1469 N1462 0.984 . S
H1470 N1458 0.984 . S
H1471 N1458 0.985 . S
C465 C15 2.032 . S
C467 C21 1.849 . S
C483 C50 1.849 . S
C485 C44 2.032 . S
C501 C79 1.849 . S
C503 C73 2.032 . S
C519 C108 1.849 . S
C521 C102 2.032 . S
C537 C131 2.032 . S
C539 C137 1.849 . S
C555 C160 2.032 . S
C557 C166 1.849 . S
C573 C189 2.032 . S
C575 C195 1.849 . S
C591 C224 1.849 . S
C593 C218 2.032 . S
C609 C253 1.849 . S
C611 C247 2.032 . S
C627 C276 2.032 . S
C629 C282 1.849 . S
C645 C305 2.032 . S
C647 C311 1.849 . S
C663 C340 1.849 . S
C665 C334 2.032 . S
C681 C369 1.849 . S
C683 C363 2.032 . S
C699 C398 1.849 . S
C701 C392 2.032 . S
C717 C427 1.849 . S
C719 C421 2.032 . S
C735 C450 2.032 . S
C737 C456 1.849 . S
C753 C3 1.222 . S
C755 C158 1.268 . S
C771 C32 1.222 . S
C773 C129 1.268 . S
C789 C61 1.222 . S
C791 C216 1.268 . S
C807 C90 1.222 . S
C809 C187 1.268 . S
C825 C119 1.222 . S
C827 C42 1.268 . S
C843 C148 1.222 . S
C845 C13 1.268 . S
C861 C100 1.268 . S
C863 C177 1.222 . S
C879 C71 1.268 . S
C881 C206 1.222 . S
C897 C235 1.222 . S
C899 C390 1.268 . S
C915 C361 1.268 . S
C917 C264 1.222 . S
C933 C293 1.222 . S
C935 C448 1.268 . S
C951 C419 1.268 . S
C953 C322 1.222 . S
C969 C274 1.268 . S
C971 C351 1.222 . S
C987 C380 1.222 . S
C989 C245 1.268 . S
C1005 C409 1.222 . S
C1007 C332 1.268 . S
C1023 C438 1.222 . S
C1025 C303 1.268 . S
C1041 C5 1.367 . S
C1043 C34 1.367 . S
C1059 C92 1.367 . S
C1061 C63 1.367 . S
C1077 C121 1.367 . S
C1079 C150 1.367 . S
C1095 C208 1.367 . S
C1097 C179 1.367 . S
C1113 C266 1.367 . S
C1115 C237 1.367 . S
C1131 C295 1.367 . S
C1133 C324 1.367 . S
C1149 C353 1.367 . S
C1151 C382 1.367 . S
C1167 C411 1.367 . S
C1169 C440 1.367 . S
C1185 C10 1.611 . S
C1187 C271 1.611 . S
C1203 C39 1.611 . S
C1205 C242 1.611 . S
C1221 C329 1.611 . S
C1223 C68 1.611 . S
C1239 C300 1.611 . S
C1241 C97 1.611 . S
C1257 C126 1.611 . S
C1259 C387 1.611 . S
C1275 C155 1.611 . S
C1277 C358 1.611 . S
C1293 C184 1.611 . S
C1295 C445 1.611 . S
C1311 C416 1.611 . S
C1313 C213 1.611 . S
C1329 C95 1.374 . S
C1331 C8 1.374 . S
C1347 C37 1.373 . S
C1349 C66 1.373 . S
C1365 C211 1.374 . S
C1367 C124 1.374 . S
C1383 C153 1.373 . S
C1385 C182 1.373 . S
C1401 C240 1.373 . S
C1403 C327 1.373 . S
C1419 C269 1.374 . S
C1421 C298 1.374 . S
C1437 C443 1.373 . S
C1439 C356 1.373 . S
C1455 C414 1.374 . S
C1457 C385 1.374 . S
