# Generated by pormake.
# Topology wkj, (6)-cn, num edge types: 1
# Building blocks:
#     Node 0, Type 0, BuildingBlock: CIFDUS_clean_sbu_1, # of connection points: 6
#     Node 1, Type 0, BuildingBlock: CIFDUS_clean_sbu_1, # of connection points: 6
#     Node 2, Type 0, BuildingBlock: CIFDUS_clean_sbu_1, # of connection points: 6
#     Node 3, Type 0, BuildingBlock: CIFDUS_clean_sbu_1, # of connection points: 6
#     Node 4, Type 0, BuildingBlock: CIFDUS_clean_sbu_1, # of connection points: 6
#     Node 5, Type 0, BuildingBlock: CIFDUS_clean_sbu_1, # of connection points: 6
#     Node 6, Type 0, BuildingBlock: CIFDUS_clean_sbu_1, # of connection points: 6
#     Node 7, Type 0, BuildingBlock: CIFDUS_clean_sbu_1, # of connection points: 6
#     Node 8, Type 0, BuildingBlock: CIFDUS_clean_sbu_1, # of connection points: 6
#     Node 9, Type 0, BuildingBlock: CIFDUS_clean_sbu_1, # of connection points: 6
#     Node 10, Type 0, BuildingBlock: CIFDUS_clean_sbu_1, # of connection points: 6
#     Node 11, Type 0, BuildingBlock: CIFDUS_clean_sbu_1, # of connection points: 6
#     Edge 12, Type (0, 0), BuildingBlock: TEMPAE_clean_linker_10, # of connection points: 2
#     Edge 13, Type (0, 0), BuildingBlock: TEMPAE_clean_linker_10, # of connection points: 2
#     Edge 14, Type (0, 0), BuildingBlock: TEMPAE_clean_linker_10, # of connection points: 2
#     Edge 15, Type (0, 0), BuildingBlock: TEMPAE_clean_linker_10, # of connection points: 2
#     Edge 16, Type (0, 0), BuildingBlock: TEMPAE_clean_linker_10, # of connection points: 2
#     Edge 17, Type (0, 0), BuildingBlock: TEMPAE_clean_linker_10, # of connection points: 2
#     Edge 18, Type (0, 0), BuildingBlock: TEMPAE_clean_linker_10, # of connection points: 2
#     Edge 19, Type (0, 0), BuildingBlock: TEMPAE_clean_linker_10, # of connection points: 2
#     Edge 20, Type (0, 0), BuildingBlock: TEMPAE_clean_linker_10, # of connection points: 2
#     Edge 21, Type (0, 0), BuildingBlock: TEMPAE_clean_linker_10, # of connection points: 2
#     Edge 22, Type (0, 0), BuildingBlock: TEMPAE_clean_linker_10, # of connection points: 2
#     Edge 23, Type (0, 0), BuildingBlock: TEMPAE_clean_linker_10, # of connection points: 2
#     Edge 24, Type (0, 0), BuildingBlock: TEMPAE_clean_linker_10, # of connection points: 2
#     Edge 25, Type (0, 0), BuildingBlock: TEMPAE_clean_linker_10, # of connection points: 2
#     Edge 26, Type (0, 0), BuildingBlock: TEMPAE_clean_linker_10, # of connection points: 2
#     Edge 27, Type (0, 0), BuildingBlock: TEMPAE_clean_linker_10, # of connection points: 2
#     Edge 28, Type (0, 0), BuildingBlock: TEMPAE_clean_linker_10, # of connection points: 2
#     Edge 29, Type (0, 0), BuildingBlock: TEMPAE_clean_linker_10, # of connection points: 2
#     Edge 30, Type (0, 0), BuildingBlock: TEMPAE_clean_linker_10, # of connection points: 2
#     Edge 31, Type (0, 0), BuildingBlock: TEMPAE_clean_linker_10, # of connection points: 2
#     Edge 32, Type (0, 0), BuildingBlock: TEMPAE_clean_linker_10, # of connection points: 2
#     Edge 33, Type (0, 0), BuildingBlock: TEMPAE_clean_linker_10, # of connection points: 2
#     Edge 34, Type (0, 0), BuildingBlock: TEMPAE_clean_linker_10, # of connection points: 2
#     Edge 35, Type (0, 0), BuildingBlock: TEMPAE_clean_linker_10, # of connection points: 2
#     Edge 36, Type (0, 0), BuildingBlock: TEMPAE_clean_linker_10, # of connection points: 2
#     Edge 37, Type (0, 0), BuildingBlock: TEMPAE_clean_linker_10, # of connection points: 2
#     Edge 38, Type (0, 0), BuildingBlock: TEMPAE_clean_linker_10, # of connection points: 2
#     Edge 39, Type (0, 0), BuildingBlock: TEMPAE_clean_linker_10, # of connection points: 2
#     Edge 40, Type (0, 0), BuildingBlock: TEMPAE_clean_linker_10, # of connection points: 2
#     Edge 41, Type (0, 0), BuildingBlock: TEMPAE_clean_linker_10, # of connection points: 2
#     Edge 42, Type (0, 0), BuildingBlock: TEMPAE_clean_linker_10, # of connection points: 2
#     Edge 43, Type (0, 0), BuildingBlock: TEMPAE_clean_linker_10, # of connection points: 2
#     Edge 44, Type (0, 0), BuildingBlock: TEMPAE_clean_linker_10, # of connection points: 2
#     Edge 45, Type (0, 0), BuildingBlock: TEMPAE_clean_linker_10, # of connection points: 2
#     Edge 46, Type (0, 0), BuildingBlock: TEMPAE_clean_linker_10, # of connection points: 2
#     Edge 47, Type (0, 0), BuildingBlock: TEMPAE_clean_linker_10, # of connection points: 2
# Relax obj value: 0.527
# Max RMSD: 0.242
# Mean RMSD: 0.242
data_MOF--net-wkj--node1-CIFDUS_clean_sbu_1--edge1-TEMPAE_clean_linker_10
_symmetry_space_group_name_H-M    P1
_symmetry_Int_Tables_number       1
_symmetry_cell_setting            triclinic
loop_
_symmetry_equiv_pos_as_xyz
'x, y, z'
_cell_length_a     51.610196
_cell_length_b     51.629567
_cell_length_c     25.069131
_cell_angle_alpha  90.156693
_cell_angle_beta   89.945137
_cell_angle_gamma 119.96253
loop_
_atom_site_label
_atom_site_type_symbol
_atom_site_fract_x
_atom_site_fract_y
_atom_site_fract_z
_atom_type_partial_charge
O0 O 0.49591 0.11288 0.31713 0.0
Mn1 Mn 0.46242 0.08987 0.2608 0.0
O2 O 0.47465 0.12629 0.38079 0.0
Mn3 Mn 0.44126 0.11971 0.34187 0.0
O4 O 0.43022 0.06463 0.20248 0.0
O5 O 0.47905 0.06324 0.25383 0.0
Mn6 Mn 0.49027 0.06 0.1903 0.0
O7 O 0.49054 0.11733 0.19754 0.0
O8 O 0.45526 0.0479 0.1512 0.0
O9 O 0.4336 0.06178 0.32191 0.0
O10 O 0.40813 0.08327 0.35355 0.0
O11 O 0.49157 0.03097 0.23258 0.0
O12 O 0.52067 0.09873 0.18041 0.0
C13 C 0.44985 0.14354 0.26932 0.0
C14 C 0.49616 0.12331 0.36362 0.0
C15 C 0.43198 0.04985 0.16218 0.0
C16 C 0.48029 0.04036 0.26861 0.0
C17 C 0.51353 0.11876 0.17375 0.0
C18 C 0.41192 0.06084 0.34944 0.0
O19 O 0.44494 0.11656 0.27202 0.0
O20 O 0.4447 0.15355 0.31313 0.0
O21 O 0.37629 0.49257 0.63094 0.0
Mn22 Mn 0.36387 0.4574 0.57815 0.0
O23 O 0.35023 0.46392 0.69784 0.0
Mn24 Mn 0.32163 0.43383 0.65396 0.0
O25 O 0.35429 0.42241 0.52279 0.0
O26 O 0.40695 0.47147 0.57074 0.0
Mn27 Mn 0.42014 0.47743 0.50593 0.0
O28 O 0.36526 0.48493 0.5129 0.0
O29 O 0.39784 0.43978 0.47675 0.0
O30 O 0.36519 0.42956 0.64076 0.0
O31 O 0.31882 0.39737 0.65849 0.0
O32 O 0.45298 0.4879 0.54932 0.0
O33 O 0.41239 0.5063 0.48134 0.0
C34 C 0.29835 0.44805 0.61325 0.0
C35 C 0.37061 0.48895 0.68063 0.0
C36 C 0.37106 0.41941 0.48752 0.0
C37 C 0.43357 0.48065 0.58719 0.0
C38 C 0.38651 0.50354 0.48178 0.0
C39 C 0.3458 0.40461 0.66217 0.0
O40 O 0.3182 0.44374 0.58669 0.0
O41 O 0.28991 0.43691 0.66077 0.0
O42 O 0.86506 0.36578 0.98152 0.0
Mn43 Mn 0.8899 0.36286 0.91849 0.0
O44 O 0.87049 0.33649 0.04103 0.0
Mn45 Mn 0.87633 0.31179 0.99328 0.0
O46 O 0.91664 0.36118 0.85627 0.0
O47 O 0.91002 0.40611 0.91369 0.0
Mn48 Mn 0.91608 0.42237 0.85147 0.0
O49 O 0.85849 0.36059 0.85956 0.0
O50 O 0.93664 0.40642 0.81618 0.0
O51 O 0.92324 0.36744 0.97421 0.0
O52 O 0.91578 0.32194 0.99135 0.0
O53 O 0.93669 0.45297 0.90108 0.0
O54 O 0.87728 0.40838 0.83063 0.0
C55 C 0.84276 0.29586 0.93634 0.0
C56 C 0.86383 0.35652 0.02947 0.0
C57 C 0.93429 0.3807 0.82201 0.0
C58 C 0.92714 0.43124 0.9348 0.0
C59 C 0.8568 0.38097 0.83154 0.0
C60 C 0.93232 0.35016 0.99386 0.0
O61 O 0.86904 0.31839 0.92688 0.0
O62 O 0.84098 0.27886 0.97586 0.0
O63 O 0.49739 0.88055 0.31911 0.0
Mn64 Mn 0.52838 0.90161 0.25776 0.0
O65 O 0.53095 0.88779 0.38141 0.0
Mn66 Mn 0.55999 0.89253 0.33196 0.0
O67 O 0.56017 0.92394 0.19608 0.0
O68 O 0.51057 0.92689 0.24623 0.0
Mn69 Mn 0.50865 0.93712 0.1815 0.0
O70 O 0.49844 0.87133 0.19902 0.0
O71 O 0.54813 0.9566 0.15986 0.0
O72 O 0.55574 0.93614 0.31187 0.0
O73 O 0.59312 0.92966 0.32518 0.0
O74 O 0.49216 0.95457 0.22514 0.0
O75 O 0.48507 0.90019 0.15051 0.0
C76 C 0.5576 0.85766 0.2937 0.0
C77 C 0.50439 0.88017 0.36806 0.0
C78 C 0.56556 0.94587 0.16449 0.0
C79 C 0.49782 0.94103 0.26267 0.0
C80 C 0.48368 0.87526 0.16072 0.0
C81 C 0.58266 0.94676 0.32764 0.0
O82 O 0.54557 0.87231 0.27035 0.0
O83 O 0.56997 0.86542 0.34041 0.0
O84 O 0.6146 0.50952 0.64771 0.0
Mn85 Mn 0.62732 0.54121 0.58648 0.0
O86 O 0.65387 0.52942 0.70417 0.0
Mn87 Mn 0.67997 0.56109 0.66088 0.0
O88 O 0.63964 0.57371 0.52436 0.0
O89 O 0.58624 0.53313 0.58286 0.0
Mn90 Mn 0.57194 0.53261 0.52002 0.0
O91 O 0.61731 0.50769 0.52795 0.0
O92 O 0.59661 0.57141 0.49797 0.0
O93 O 0.63333 0.57318 0.64473 0.0
O94 O 0.68015 0.59626 0.67305 0.0
O95 O 0.54066 0.52013 0.56897 0.0
O96 O 0.57655 0.50336 0.48481 0.0
C97 C 0.69665 0.55295 0.59066 0.0
C98 C 0.62717 0.50948 0.69208 0.0
C99 C 0.62505 0.58386 0.49757 0.0
C100 C 0.56039 0.52239 0.60323 0.0
C101 C 0.59612 0.49545 0.49268 0.0
C102 C 0.6547 0.59406 0.67167 0.0
O103 O 0.66998 0.5495 0.59354 0.0
O104 O 0.71301 0.56243 0.63327 0.0
O105 O 0.12172 0.62078 0.9768 0.0
Mn106 Mn 0.0959 0.62612 0.91775 0.0
O107 O 0.11744 0.64784 0.04025 0.0
Mn108 Mn 0.11186 0.67214 0.99298 0.0
O109 O 0.06911 0.62785 0.85556 0.0
O110 O 0.07405 0.58286 0.91452 0.0
Mn111 Mn 0.06994 0.56578 0.85352 0.0
O112 O 0.12571 0.62664 0.85673 0.0
O113 O 0.05374 0.58397 0.81189 0.0
O114 O 0.0634 0.62259 0.97607 0.0
O115 O 0.07508 0.66835 0.99972 0.0
O116 O 0.04626 0.53602 0.90262 0.0
O117 O 0.10927 0.57785 0.83963 0.0
C118 C 0.14283 0.69691 0.93546 0.0
C119 C 0.12366 0.62821 0.02581 0.0
C120 C 0.05533 0.60948 0.81664 0.0
C121 C 0.0558 0.55818 0.93558 0.0
C122 C 0.12845 0.60541 0.83386 0.0
C123 C 0.05625 0.64075 0.99877 0.0
O124 O 0.1184 0.67221 0.92211 0.0
O125 O 0.14608 0.70569 0.98475 0.0
O126 O 0.87892 0.49333 0.36614 0.0
Mn127 Mn 0.90013 0.52742 0.42286 0.0
O128 O 0.8774 0.52095 0.29963 0.0
Mn129 Mn 0.87877 0.55144 0.34158 0.0
O130 O 0.92164 0.56151 0.48061 0.0
O131 O 0.92996 0.51457 0.43556 0.0
Mn132 Mn 0.93419 0.50825 0.50236 0.0
O133 O 0.87244 0.49735 0.48525 0.0
O134 O 0.93948 0.54145 0.54013 0.0
O135 O 0.93007 0.55652 0.36241 0.0
O136 O 0.91389 0.58668 0.33644 0.0
O137 O 0.96777 0.51283 0.46708 0.0
O138 O 0.89776 0.47449 0.51194 0.0
C139 C 0.84317 0.53393 0.39127 0.0
C140 C 0.87416 0.49642 0.31699 0.0
C141 C 0.9346 0.5622 0.52502 0.0
C142 C 0.95648 0.51942 0.42689 0.0
C143 C 0.87426 0.4767 0.51216 0.0
C144 C 0.93439 0.58013 0.33708 0.0
O145 O 0.86984 0.54175 0.41016 0.0
O146 O 0.84189 0.5453 0.34569 0.0
O147 O 0.38407 0.88199 0.70953 0.0
Mn148 Mn 0.36748 0.90151 0.76448 0.0
O149 O 0.34562 0.84171 0.67659 0.0
Mn150 Mn 0.32522 0.86199 0.68347 0.0
O151 O 0.35564 0.92491 0.82075 0.0
O152 O 0.41009 0.93084 0.77532 0.0
Mn153 Mn 0.42203 0.93869 0.84091 0.0
O154 O 0.36875 0.87425 0.82752 0.0
O155 O 0.39891 0.95411 0.86592 0.0
O156 O 0.36588 0.92831 0.70311 0.0
O157 O 0.33772 0.89489 0.64044 0.0
O158 O 0.45567 0.96034 0.79829 0.0
O159 O 0.41329 0.9023 0.86868 0.0
C160 C 0.29453 0.85323 0.7419 0.0
C161 C 0.37347 0.85806 0.68154 0.0
C162 C 0.37158 0.94567 0.8552 0.0
C163 C 0.43688 0.9479 0.7596 0.0
C164 C 0.38882 0.87782 0.86245 0.0
C165 C 0.35395 0.92166 0.65637 0.0
O166 O 0.32294 0.87202 0.75064 0.0
O167 O 0.28635 0.84027 0.69559 0.0
O168 O 0.49386 0.37842 0.02637 0.0
Mn169 Mn 0.45934 0.36413 0.08192 0.0
O170 O 0.46652 0.35058 0.95911 0.0
Mn171 Mn 0.43711 0.32301 1.00421 0.0
O172 O 0.42671 0.35373 0.14051 0.0
O173 O 0.47066 0.40624 0.09079 0.0
Mn174 Mn 0.48456 0.42114 0.15292 0.0
O175 O 0.48893 0.36733 0.14602 0.0
O176 O 0.45163 0.39444 0.19457 0.0
O177 O 0.43004 0.36536 0.0233 0.0
O178 O 0.40024 0.31972 1.00086 0.0
O179 O 0.47969 0.44951 0.11585 0.0
O180 O 0.51741 0.41624 0.14782 0.0
C181 C 0.44176 0.29356 0.0468 0.0
C182 C 0.4907 0.37202 0.97678 0.0
C183 C 0.42863 0.36909 0.18272 0.0
C184 C 0.46773 0.42867 0.08022 0.0
C185 C 0.51184 0.39108 0.16525 0.0
C186 C 0.40523 0.34594 1.00243 0.0
O187 O 0.44817 0.3191 0.07078 0.0
O188 O 0.43438 0.28859 0.99679 0.0
O189 O 0.10947 0.49332 0.36185 0.0
Mn190 Mn 0.08809 0.46049 0.42081 0.0
O191 O 0.12026 0.46907 0.29814 0.0
Mn192 Mn 0.1124 0.43528 0.33683 0.0
O193 O 0.0651 0.42706 0.47887 0.0
O194 O 0.06042 0.47517 0.43487 0.0
Mn195 Mn 0.05796 0.48417 0.50072 0.0
O196 O 0.11724 0.48998 0.48235 0.0
O197 O 0.05097 0.45055 0.53897 0.0
O198 O 0.05773 0.4321 0.36105 0.0
O199 O 0.07449 0.40318 0.32952 0.0
O200 O 0.02457 0.48041 0.46506 0.0
O201 O 0.09566 0.51677 0.50671 0.0
C202 C 0.13883 0.44087 0.40434 0.0
C203 C 0.11868 0.4917 0.31465 0.0
C204 C 0.05238 0.42777 0.52293 0.0
C205 C 0.03455 0.47142 0.4261 0.0
C206 C 0.11776 0.5123 0.5077 0.0
C207 C 0.05394 0.40962 0.33273 0.0
O208 O 0.11727 0.44668 0.40419 0.0
O209 O 0.1429 0.43022 0.36024 0.0
O210 O 0.61239 0.10251 0.70273 0.0
Mn211 Mn 0.62833 0.08498 0.76241 0.0
O212 O 0.65174 0.1264 0.64668 0.0
Mn213 Mn 0.67971 0.12064 0.68331 0.0
O214 O 0.64539 0.06791 0.82188 0.0
O215 O 0.58816 0.05096 0.77291 0.0
Mn216 Mn 0.58053 0.03575 0.83643 0.0
O217 O 0.61935 0.10753 0.82367 0.0
O218 O 0.60754 0.02236 0.84076 0.0
O219 O 0.63345 0.05967 0.70205 0.0
O220 O 0.67901 0.08542 0.66737 0.0
O221 O 0.54467 0.01729 0.79843 0.0
O222 O 0.58887 0.06897 0.87816 0.0
C223 C 0.69443 0.14388 0.75674 0.0
C224 C 0.62461 0.11761 0.65968 0.0
C225 C 0.63502 0.04205 0.84426 0.0
C226 C 0.56066 0.03557 0.76117 0.0
C227 C 0.60371 0.09693 0.86685 0.0
C228 C 0.65392 0.06159 0.67053 0.0
O229 O 0.66949 0.1194 0.75057 0.0
O230 O 0.71159 0.15278 0.71516 0.0
O231 O 0.50053 0.61494 0.01641 0.0
Mn232 Mn 0.5315 0.62978 0.08042 0.0
O233 O 0.50185 0.65441 0.97668 0.0
Mn234 Mn 0.54006 0.67929 1.00116 0.0
O235 O 0.56317 0.64425 0.14461 0.0
O236 O 0.5224 0.58823 0.08806 0.0
Mn237 Mn 0.52613 0.57811 0.15229 0.0
O238 O 0.49789 0.62077 0.13824 0.0
O239 O 0.56592 0.60371 0.16705 0.0
O240 O 0.56446 0.63652 0.02439 0.0
O241 O 0.56843 0.67272 0.96893 0.0
O242 O 0.51318 0.54426 0.10982 0.0
O243 O 0.49919 0.58516 0.18984 0.0
C244 C 0.54879 0.69967 0.07711 0.0
C245 C 0.49083 0.6264 0.98146 0.0
C246 C 0.57561 0.63162 0.17046 0.0
C247 C 0.51326 0.56154 0.07251 0.0
C248 C 0.48924 0.60287 0.17903 0.0
C249 C 0.57534 0.65322 0.98297 0.0
O250 O 0.54073 0.67197 0.06961 0.0
O251 O 0.5508 0.71471 0.03448 0.0
C252 C 0.47092 0.17196 0.1865 0.0
C253 C 0.44652 0.1561 0.22021 0.0
C254 C 0.47101 0.19286 0.15098 0.0
C255 C 0.44672 0.19832 0.15191 0.0
C256 C 0.42111 0.18054 0.18312 0.0
C257 C 0.4211 0.15901 0.21611 0.0
C258 C 0.49787 0.21058 0.11571 0.0
C259 C 0.39501 0.18614 0.18577 0.0
C260 C 0.45737 0.27463 0.12457 0.0
C261 C 0.44338 0.26966 0.07499 0.0
C262 C 0.46002 0.2518 0.14924 0.0
C263 C 0.44841 0.22374 0.12325 0.0
C264 C 0.43471 0.2188 0.07292 0.0
C265 C 0.43206 0.24173 0.04963 0.0
C266 C 0.47432 0.25735 0.20371 0.0
C267 C 0.42197 0.18901 0.04449 0.0
H268 H 0.49063 0.16976 0.19068 0.0
H269 H 0.40239 0.14654 0.24292 0.0
H270 H 0.49075 0.21235 0.07477 0.0
H271 H 0.51135 0.2336 0.13174 0.0
H272 H 0.51232 0.20031 0.11348 0.0
H273 H 0.3763 0.16922 0.21034 0.0
H274 H 0.40253 0.20855 0.20336 0.0
H275 H 0.38638 0.18603 0.14525 0.0
H276 H 0.46626 0.29623 0.14388 0.0
H277 H 0.42095 0.23758 0.0113 0.0
H278 H 0.49229 0.25152 0.20371 0.0
H279 H 0.45736 0.24281 0.23347 0.0
H280 H 0.48399 0.281 0.21664 0.0
H281 H 0.43868 0.18146 0.04343 0.0
H282 H 0.415 0.18998 1.00298 0.0
H283 H 0.40218 0.17181 0.06645 0.0
C284 C 0.25477 0.4558 0.61546 0.0
C285 C 0.27971 0.45863 0.58743 0.0
C286 C 0.23401 0.46155 0.59101 0.0
C287 C 0.23859 0.47099 0.53747 0.0
C288 C 0.26561 0.4778 0.5112 0.0
C289 C 0.28582 0.47102 0.53631 0.0
C290 C 0.20517 0.45321 0.62008 0.0
C291 C 0.27164 0.48918 0.45467 0.0
C292 C 0.16892 0.42711 0.45701 0.0
C293 C 0.16 0.44801 0.44753 0.0
C294 C 0.19492 0.43484 0.485 0.0
C295 C 0.21195 0.46417 0.50575 0.0
C296 C 0.20211 0.48515 0.49926 0.0
C297 C 0.17615 0.47689 0.46908 0.0
C298 C 0.20439 0.4116 0.49092 0.0
C299 C 0.21949 0.51631 0.52227 0.0
H300 H 0.25011 0.44709 0.65575 0.0
H301 H 0.30558 0.4743 0.51525 0.0
H302 H 0.1975 0.46937 0.61162 0.0
H303 H 0.18744 0.43087 0.60615 0.0
H304 H 0.20752 0.45205 0.66392 0.0
H305 H 0.2959 0.50046 0.44519 0.0
H306 H 0.25966 0.47007 0.42679 0.0
H307 H 0.26338 0.50502 0.44775 0.0
H308 H 0.1563 0.40494 0.43955 0.0
H309 H 0.16959 0.49332 0.45992 0.0
H310 H 0.20593 0.40721 0.53374 0.0
H311 H 0.22678 0.41985 0.47285 0.0
H312 H 0.18854 0.39005 0.47139 0.0
H313 H 0.22446 0.51548 0.56507 0.0
H314 H 0.20723 0.52881 0.5183 0.0
H315 H 0.24127 0.5289 0.50139 0.0
C316 C 0.7895 0.27979 0.93848 0.0
C317 C 0.81553 0.28953 0.90807 0.0
C318 C 0.76149 0.26039 0.91649 0.0
C319 C 0.7601 0.25067 0.86344 0.0
C320 C 0.78563 0.26542 0.83004 0.0
C321 C 0.81349 0.28483 0.85311 0.0
C322 C 0.73448 0.24637 0.95252 0.0
C323 C 0.78454 0.25695 0.77216 0.0
C324 C 0.72412 0.16842 0.83535 0.0
C325 C 0.70118 0.16432 0.80109 0.0
C326 C 0.74196 0.19606 0.85995 0.0
C327 C 0.73663 0.22001 0.84912 0.0
C328 C 0.71115 0.21474 0.81958 0.0
C329 C 0.69357 0.18669 0.79575 0.0
C330 C 0.76843 0.20038 0.89269 0.0
C331 C 0.70418 0.23928 0.80803 0.0
H332 H 0.7913 0.28433 0.98102 0.0
H333 H 0.83374 0.29299 0.82964 0.0
H334 H 0.71379 0.24092 0.93029 0.0
H335 H 0.73178 0.22523 0.96903 0.0
H336 H 0.73709 0.26137 0.98647 0.0
H337 H 0.80375 0.27462 0.74954 0.0
H338 H 0.78548 0.23597 0.76931 0.0
H339 H 0.76342 0.25294 0.75329 0.0
H340 H 0.73007 0.15107 0.83839 0.0
H341 H 0.67599 0.1834 0.76814 0.0
H342 H 0.76903 0.211 0.93152 0.0
H343 H 0.78949 0.21537 0.87119 0.0
H344 H 0.76784 0.17893 0.90056 0.0
H345 H 0.71219 0.25633 0.84021 0.0
H346 H 0.67975 0.22997 0.80257 0.0
H347 H 0.7154 0.25059 0.77038 0.0
C348 C 0.53477 0.70528 0.16817 0.0
C349 C 0.55649 0.71468 0.12834 0.0
C350 C 0.5355 0.72605 0.20506 0.0
C351 C 0.55837 0.75634 0.20083 0.0
C352 C 0.5826 0.76462 0.16549 0.0
C353 C 0.5814 0.74342 0.12968 0.0
C354 C 0.51002 0.71627 0.244 0.0
C355 C 0.60771 0.79659 0.1604 0.0
C356 C 0.54166 0.81903 0.22141 0.0
C357 C 0.5565 0.8311 0.26953 0.0
C358 C 0.54086 0.79357 0.19972 0.0
C359 C 0.55518 0.78012 0.22707 0.0
C360 C 0.56941 0.79167 0.27628 0.0
C361 C 0.57003 0.81708 0.29678 0.0
C362 C 0.52555 0.78164 0.14671 0.0
C363 C 0.58493 0.77789 0.30629 0.0
H364 H 0.51556 0.68288 0.16666 0.0
H365 H 0.59821 0.75027 0.09861 0.0
H366 H 0.51803 0.72787 0.28289 0.0
H367 H 0.49359 0.72211 0.22781 0.0
H368 H 0.49835 0.69172 0.25066 0.0
H369 H 0.62668 0.79831 0.1366 0.0
H370 H 0.5992 0.81001 0.14034 0.0
H371 H 0.61621 0.80671 0.20017 0.0
H372 H 0.53096 0.82956 0.2006 0.0
H373 H 0.58151 0.82606 0.33429 0.0
H374 H 0.5091 0.75742 0.14989 0.0
H375 H 0.54236 0.78425 0.11635 0.0
H376 H 0.5138 0.79341 0.13243 0.0
H377 H 0.57012 0.75333 0.30953 0.0
H378 H 0.59181 0.78739 0.34704 0.0
H379 H 0.6052 0.78182 0.28416 0.0
C380 C 0.73343 0.56328 0.52125 0.0
C381 C 0.70728 0.54235 0.54679 0.0
C382 C 0.75208 0.55449 0.49656 0.0
C383 C 0.74446 0.52405 0.49857 0.0
C384 C 0.717 0.5025 0.52139 0.0
C385 C 0.69852 0.51198 0.54514 0.0
C386 C 0.78085 0.57814 0.4714 0.0
C387 C 0.70836 0.46998 0.52489 0.0
C388 C 0.7886 0.51029 0.39616 0.0
C389 C 0.81577 0.52072 0.42353 0.0
C390 C 0.76368 0.50839 0.42152 0.0
C391 C 0.76562 0.51544 0.47625 0.0
C392 C 0.79122 0.52073 0.50601 0.0
C393 C 0.8165 0.52387 0.47895 0.0
C394 C 0.73721 0.50331 0.38797 0.0
C395 C 0.79319 0.52641 0.56527 0.0
H396 H 0.74043 0.58685 0.52424 0.0
H397 H 0.67873 0.49607 0.56684 0.0
H398 H 0.8002 0.58082 0.49507 0.0
H399 H 0.78315 0.57133 0.43044 0.0
H400 H 0.78205 0.60021 0.46929 0.0
H401 H 0.6845 0.45559 0.53616 0.0
H402 H 0.71238 0.46185 0.48653 0.0
H403 H 0.72244 0.46743 0.5555 0.0
H404 H 0.78778 0.50684 0.35333 0.0
H405 H 0.83728 0.53124 0.50035 0.0
H406 H 0.73838 0.5251 0.38102 0.0
H407 H 0.71581 0.4886 0.40861 0.0
H408 H 0.73699 0.49331 0.34856 0.0
H409 H 0.79943 0.55003 0.57269 0.0
H410 H 0.8104 0.52245 0.58401 0.0
H411 H 0.7713 0.5119 0.58478 0.0
C412 C 0.27372 0.83889 0.83242 0.0
C413 C 0.27104 0.84681 0.78051 0.0
C414 C 0.24802 0.81837 0.86001 0.0
C415 C 0.21996 0.80555 0.83371 0.0
C416 C 0.21699 0.81766 0.78532 0.0
C417 C 0.24283 0.83906 0.7599 0.0
C418 C 0.25141 0.80738 0.91378 0.0
C419 C 0.18755 0.80472 0.75595 0.0
C420 C 0.17701 0.72272 0.86001 0.0
C421 C 0.15653 0.7214 0.89758 0.0
C422 C 0.19657 0.75 0.83558 0.0
C423 C 0.19576 0.77613 0.85084 0.0
C424 C 0.17328 0.77413 0.88529 0.0
C425 C 0.15349 0.74651 0.90753 0.0
C426 C 0.21944 0.75126 0.79645 0.0
C427 C 0.17186 0.80137 0.90314 0.0
H428 H 0.29567 0.84557 0.8486 0.0
H429 H 0.24107 0.84624 0.72007 0.0
H430 H 0.23245 0.80309 0.94029 0.0
H431 H 0.25143 0.78603 0.90866 0.0
H432 H 0.2727 0.82373 0.93342 0.0
H433 H 0.1877 0.82073 0.72624 0.0
H434 H 0.18356 0.78426 0.73433 0.0
H435 H 0.16856 0.79825 0.78367 0.0
H436 H 0.17907 0.70312 0.85253 0.0
H437 H 0.1372 0.74507 0.93655 0.0
H438 H 0.24193 0.76284 0.81514 0.0
H439 H 0.22028 0.76418 0.76053 0.0
H440 H 0.21449 0.72861 0.78375 0.0
H441 H 0.18838 0.81269 0.9356 0.0
H442 H 0.14936 0.79523 0.91877 0.0
H443 H 0.17758 0.81774 0.87041 0.0
C444 C 0.60108 0.10973 0.96071 0.0
C445 C 0.60063 0.11649 0.90676 0.0
C446 C 0.58797 0.11884 1.0 0.0
C447 C 0.57466 0.13611 0.98551 0.0
C448 C 0.57695 0.14575 0.93176 0.0
C449 C 0.58959 0.13548 0.89273 0.0
C450 C 0.58609 0.10757 0.05627 0.0
C451 C 0.56443 0.16527 0.91458 0.0
C452 C 0.50907 0.11666 0.07683 0.0
C453 C 0.52387 0.13403 0.12179 0.0
C454 C 0.52474 0.11877 0.02963 0.0
C455 C 0.55555 0.14043 0.0258 0.0
C456 C 0.56896 0.16167 0.06755 0.0
C457 C 0.55335 0.15754 0.11596 0.0
C458 C 0.50934 0.09494 0.98743 0.0
C459 C 0.60083 0.18684 0.06344 0.0
H460 H 0.60954 0.09501 0.9716 0.0
H461 H 0.58879 0.14051 0.851 0.0
H462 H 0.59686 0.12664 0.08444 0.0
H463 H 0.56231 0.09371 0.0683 0.0
H464 H 0.59711 0.0939 0.06057 0.0
H465 H 0.57645 0.17875 0.87903 0.0
H466 H 0.54057 0.15101 0.90348 0.0
H467 H 0.56585 0.18055 0.94712 0.0
H468 H 0.48638 0.09822 0.08136 0.0
H469 H 0.56506 0.17101 0.15046 0.0
H470 H 0.51887 0.07984 0.98752 0.0
H471 H 0.51312 0.1051 0.9473 0.0
H472 H 0.48484 0.08123 0.9943 0.0
H473 H 0.61613 0.17924 0.07846 0.0
H474 H 0.60434 0.20626 0.08806 0.0
H475 H 0.60696 0.1942 0.02147 0.0
C476 C 0.47651 0.60562 0.27252 0.0
C477 C 0.46759 0.60204 0.21893 0.0
C478 C 0.45563 0.59211 0.31384 0.0
C479 C 0.42465 0.57549 0.30171 0.0
C480 C 0.41536 0.57569 0.2484 0.0
C481 C 0.43696 0.5883 0.2073 0.0
C482 C 0.46716 0.59298 0.36959 0.0
C483 C 0.38268 0.56078 0.23392 0.0
C484 C 0.38476 0.50507 0.385 0.0
C485 C 0.38074 0.51632 0.4334 0.0
C486 C 0.39753 0.52363 0.34053 0.0
C487 C 0.40354 0.55361 0.34224 0.0
C488 C 0.3942 0.5633 0.38782 0.0
C489 C 0.38411 0.54501 0.43383 0.0
C490 C 0.40835 0.51219 0.295 0.0
C491 C 0.39696 0.59375 0.39009 0.0
H492 H 0.50019 0.61622 0.2816 0.0
H493 H 0.42978 0.58524 0.166 0.0
H494 H 0.45826 0.60339 0.3973 0.0
H495 H 0.45945 0.56992 0.38382 0.0
H496 H 0.49197 0.60591 0.37179 0.0
H497 H 0.37916 0.57245 0.19995 0.0
H498 H 0.37468 0.53741 0.22118 0.0
H499 H 0.36888 0.56046 0.26822 0.0
H500 H 0.38241 0.48296 0.38472 0.0
H501 H 0.38113 0.55405 0.47092 0.0
H502 H 0.433 0.52626 0.29099 0.0
H503 H 0.39823 0.51349 0.25695 0.0
H504 H 0.4028 0.48863 0.30082 0.0
H505 H 0.41629 0.60884 0.4155 0.0
H506 H 0.37669 0.59207 0.40892 0.0
H507 H 0.39985 0.60388 0.34996 0.0
C508 C 0.81813 0.38768 0.78622 0.0
C509 C 0.83556 0.37373 0.78681 0.0
C510 C 0.81401 0.39996 0.73886 0.0
C511 C 0.82855 0.39925 0.6913 0.0
C512 C 0.84259 0.38157 0.6903 0.0
C513 C 0.84502 0.36825 0.7377 0.0
C514 C 0.79696 0.41661 0.74143 0.0
C515 C 0.85887 0.38021 0.6413 0.0
C516 C 0.82936 0.43291 0.55421 0.0
C517 C 0.8548 0.46138 0.55877 0.0
C518 C 0.81853 0.41333 0.59858 0.0
C519 C 0.83475 0.42158 0.6474 0.0
C520 C 0.85942 0.45101 0.65266 0.0
C521 C 0.86836 0.47066 0.60906 0.0
C522 C 0.79081 0.3832 0.59196 0.0
C523 C 0.87836 0.46099 0.70265 0.0
H524 H 0.81086 0.3923 0.82387 0.0
H525 H 0.85885 0.35788 0.73778 0.0
H526 H 0.81267 0.44059 0.74972 0.0
H527 H 0.78554 0.41497 0.70302 0.0
H528 H 0.78007 0.40784 0.7739 0.0
H529 H 0.86596 0.36321 0.64506 0.0
H530 H 0.84459 0.37496 0.60542 0.0
H531 H 0.87911 0.40238 0.6349 0.0
H532 H 0.81902 0.42524 0.51543 0.0
H533 H 0.88842 0.49241 0.61255 0.0
H534 H 0.77814 0.37548 0.62993 0.0
H535 H 0.7972 0.36654 0.57947 0.0
H536 H 0.77591 0.3839 0.56072 0.0
H537 H 0.86455 0.45952 0.73759 0.0
H538 H 0.89727 0.48432 0.69977 0.0
H539 H 0.88765 0.44604 0.71033 0.0
C540 C 0.38276 0.86648 0.95751 0.0
C541 C 0.3829 0.85611 0.90583 0.0
C542 C 0.39433 0.85839 1.00099 0.0
C543 C 0.40409 0.83731 0.99367 0.0
C544 C 0.39886 0.82259 0.94347 0.0
C545 C 0.38944 0.83298 0.8995 0.0
C546 C 0.39928 0.87524 0.05286 0.0
C547 C 0.40512 0.79735 0.93462 0.0
C548 C 0.47639 0.85978 0.06764 0.0
C549 C 0.46612 0.85214 0.12023 0.0
C550 C 0.4564 0.85322 0.02495 0.0
C551 C 0.42509 0.83611 0.03411 0.0
C552 C 0.41497 0.8235 0.08555 0.0
C553 C 0.4355 0.8325 0.12845 0.0
C554 C 0.46897 0.8679 0.97175 0.0
C555 C 0.38235 0.80239 0.09694 0.0
H556 H 0.37767 0.88436 0.96245 0.0
H557 H 0.38953 0.82466 0.85979 0.0
H558 H 0.38518 0.85963 0.08451 0.0
H559 H 0.423 0.88551 0.06559 0.0
H560 H 0.39351 0.89325 0.04986 0.0
H561 H 0.386 0.77877 0.91327 0.0
H562 H 0.425 0.80498 0.90857 0.0
H563 H 0.40886 0.78859 0.97248 0.0
H564 H 0.50005 0.87511 0.06118 0.0
H565 H 0.42718 0.82642 0.16886 0.0
H566 H 0.45837 0.88097 0.95862 0.0
H567 H 0.46421 0.85056 0.9412 0.0
H568 H 0.49357 0.88318 0.97307 0.0
H569 H 0.3735 0.81353 0.12314 0.0
H570 H 0.37991 0.78272 0.11922 0.0
H571 H 0.36861 0.79438 0.06013 0.0
C572 C 0.51496 0.41172 0.2556 0.0
C573 C 0.52046 0.39282 0.2227 0.0
C574 C 0.5301 0.42322 0.30376 0.0
C575 C 0.55059 0.41461 0.32209 0.0
C576 C 0.55416 0.39313 0.29208 0.0
C577 C 0.5396 0.38299 0.24195 0.0
C578 C 0.52563 0.44645 0.33284 0.0
C579 C 0.57433 0.38188 0.31162 0.0
C580 C 0.60767 0.47777 0.4085 0.0
C581 C 0.59285 0.4708 0.45766 0.0
C582 C 0.59614 0.45779 0.36495 0.0
C583 C 0.56908 0.43009 0.3707 0.0
C584 C 0.55617 0.42158 0.42216 0.0
C585 C 0.56793 0.44218 0.46476 0.0
C586 C 0.61083 0.46816 0.31121 0.0
C587 C 0.52786 0.39214 0.43095 0.0
H588 H 0.50063 0.41991 0.2413 0.0
H589 H 0.54432 0.36867 0.217 0.0
H590 H 0.51735 0.43881 0.37384 0.0
H591 H 0.54727 0.46767 0.3362 0.0
H592 H 0.50943 0.45127 0.31232 0.0
H593 H 0.56921 0.3606 0.29168 0.0
H594 H 0.59793 0.39873 0.30293 0.0
H595 H 0.57217 0.37834 0.35543 0.0
H596 H 0.62647 0.50009 0.40243 0.0
H597 H 0.55598 0.43685 0.50239 0.0
H598 H 0.59764 0.47541 0.28687 0.0
H599 H 0.61141 0.44972 0.28953 0.0
H600 H 0.63403 0.48726 0.31484 0.0
H601 H 0.50828 0.39413 0.41874 0.0
H602 H 0.52501 0.38551 0.47361 0.0
H603 H 0.52785 0.37416 0.40654 0.0
C604 C 0.13526 0.61296 0.73726 0.0
C605 C 0.14729 0.61056 0.78596 0.0
C606 C 0.13873 0.59999 0.69012 0.0
C607 C 0.15591 0.58541 0.69087 0.0
C608 C 0.17179 0.58703 0.73806 0.0
C609 C 0.16677 0.59893 0.78524 0.0
C610 C 0.12099 0.59877 0.64138 0.0
C611 C 0.19191 0.57367 0.74023 0.0
C612 C 0.12408 0.51509 0.60453 0.0
C613 C 0.13724 0.52655 0.55473 0.0
C614 C 0.13076 0.53373 0.64954 0.0
C615 C 0.15287 0.56444 0.64607 0.0
C616 C 0.16925 0.57508 0.59779 0.0
C617 C 0.16059 0.55632 0.55222 0.0
C618 C 0.11164 0.52117 0.69885 0.0
C619 C 0.1944 0.60689 0.59266 0.0
H620 H 0.11955 0.62115 0.73759 0.0
H621 H 0.17575 0.59638 0.82269 0.0
H622 H 0.13569 0.60679 0.60584 0.0
H623 H 0.10343 0.57527 0.63356 0.0
H624 H 0.11002 0.61247 0.64616 0.0
H625 H 0.20817 0.58326 0.77361 0.0
H626 H 0.17824 0.54919 0.74643 0.0
H627 H 0.20435 0.57747 0.70221 0.0
H628 H 0.10552 0.49232 0.60649 0.0
H629 H 0.17058 0.56561 0.51386 0.0
H630 H 0.09883 0.53288 0.70598 0.0
H631 H 0.12586 0.52492 0.73437 0.0
H632 H 0.09553 0.49682 0.69532 0.0
H633 H 0.1853 0.6212 0.57916 0.0
H634 H 0.21098 0.60859 0.56252 0.0
H635 H 0.20603 0.61577 0.6313 0.0
C636 C 0.33666 0.94792 0.92275 0.0
C637 C 0.35986 0.9623 0.88564 0.0
C638 C 0.33604 0.96314 0.96933 0.0
C639 C 0.36038 0.99225 0.98043 0.0
C640 C 0.38096 0.00802 0.93891 0.0
C641 C 0.37944 0.99313 0.8912 0.0
C642 C 0.3108 0.94687 0.0084 0.0
C643 C 0.4072 0.03922 0.94695 0.0
C644 C 0.38988 0.04375 0.10183 0.0
C645 C 0.40595 0.03193 0.12685 0.0
C646 C 0.37136 0.02902 0.0574 0.0
C647 C 0.3698 0.0025 0.03687 0.0
C648 C 0.38363 0.98914 0.06611 0.0
C649 C 0.40089 0.00374 0.11104 0.0
C650 C 0.35505 0.04306 0.0314 0.0
C651 C 0.38287 0.96084 0.04759 0.0
H652 H 0.32081 0.92426 0.91824 0.0
H653 H 0.39681 0.00449 0.8615 0.0
H654 H 0.31058 0.9265 0.02302 0.0
H655 H 0.31212 0.96105 0.04282 0.0
H656 H 0.28918 0.93923 0.98758 0.0
H657 H 0.42288 0.04688 0.91259 0.0
H658 H 0.39895 0.05518 0.95207 0.0
H659 H 0.42 0.04027 0.98325 0.0
H660 H 0.39323 0.06531 0.11449 0.0
H661 H 0.41258 0.99412 0.13159 0.0
H662 H 0.34047 0.02954 0.99794 0.0
H663 H 0.37145 0.06572 0.01677 0.0
H664 H 0.34105 0.04607 0.06168 0.0
H665 H 0.35984 0.94167 0.05128 0.0
H666 H 0.39779 0.95561 0.07149 0.0
H667 H 0.38972 0.96269 0.00515 0.0
C668 C 0.39497 0.38253 0.22869 0.0
C669 C 0.40243 0.36046 0.21759 0.0
C670 C 0.37823 0.38087 0.27379 0.0
C671 C 0.36764 0.35579 0.30817 0.0
C672 C 0.37114 0.33121 0.29219 0.0
C673 C 0.38909 0.33406 0.24747 0.0
C674 C 0.37489 0.40766 0.28719 0.0
C675 C 0.35786 0.30263 0.32381 0.0
C676 C 0.38316 0.38299 0.44981 0.0
C677 C 0.36136 0.39132 0.45727 0.0
C678 C 0.3841 0.36861 0.40311 0.0
C679 C 0.36085 0.35955 0.36496 0.0
C680 C 0.33536 0.36205 0.37835 0.0
C681 C 0.33636 0.37901 0.42357 0.0
C682 C 0.41207 0.36694 0.3921 0.0
C683 C 0.30801 0.34907 0.34326 0.0
H684 H 0.40468 0.4026 0.20446 0.0
H685 H 0.39432 0.31663 0.23843 0.0
H686 H 0.35093 0.4011 0.28643 0.0
H687 H 0.38369 0.41619 0.32774 0.0
H688 H 0.38681 0.42631 0.25849 0.0
H689 H 0.34471 0.28337 0.29674 0.0
H690 H 0.37603 0.29955 0.34061 0.0
H691 H 0.34306 0.30199 0.35654 0.0
H692 H 0.40203 0.3917 0.47703 0.0
H693 H 0.31893 0.3846 0.42968 0.0
H694 H 0.42198 0.37733 0.35311 0.0
H695 H 0.40643 0.34325 0.39068 0.0
H696 H 0.42948 0.37838 0.42326 0.0
H697 H 0.30469 0.36725 0.32735 0.0
H698 H 0.28797 0.33451 0.36767 0.0
H699 H 0.3092 0.33563 0.3097 0.0
C700 C 0.04508 0.3903 0.59328 0.0
C701 C 0.03311 0.40041 0.55378 0.0
C702 C 0.02785 0.3749 0.63835 0.0
C703 C -0.00104 0.37145 0.64531 0.0
C704 C 0.98561 0.378 0.60191 0.0
C705 C 0.0027 0.39179 0.55629 0.0
C706 C 0.04187 0.36503 0.68044 0.0
C707 C 0.95472 0.37432 0.60624 0.0
C708 C 0.9439 0.34696 0.76148 0.0
C709 C 0.95381 0.37461 0.78675 0.0
C710 C 0.96022 0.3443 0.71853 0.0
C711 C 0.9866 0.37001 0.7001 0.0
C712 C -0.00193 0.39702 0.7296 0.0
C713 C 0.98175 0.39876 0.77269 0.0
C714 C 0.94805 0.31429 0.69168 0.0
C715 C 0.02629 0.42514 0.71306 0.0
H716 H 0.06851 0.39667 0.5915 0.0
H717 H -0.0066 0.39952 0.52553 0.0
H718 H 0.05979 0.38488 0.70131 0.0
H719 H 0.02529 0.34984 0.71013 0.0
H720 H 0.05261 0.35334 0.66129 0.0
H721 H 0.9478 0.38091 0.5691 0.0
H722 H 0.9381 0.35069 0.61488 0.0
H723 H 0.95402 0.38817 0.63958 0.0
H724 H 0.9226 0.32796 0.77283 0.0
H725 H 0.99002 0.41991 0.79344 0.0
H726 H 0.96407 0.31358 0.66298 0.0
H727 H 0.927 0.30865 0.67049 0.0
H728 H 0.94229 0.29672 0.72227 0.0
H729 H 0.0457 0.42158 0.71604 0.0
H730 H 0.03098 0.44469 0.7384 0.0
H731 H 0.02456 0.43078 0.671 0.0
C732 C 0.57765 0.94949 0.06947 0.0
C733 C 0.58833 0.9553 0.12193 0.0
C734 C 0.59567 0.96601 0.02656 0.0
C735 C 0.62586 0.98832 0.03584 0.0
C736 C 0.63781 0.99179 0.08817 0.0
C737 C 0.61866 0.97571 0.13103 0.0
C738 C 0.58129 0.96131 0.97217 0.0
C739 C 0.67024 0.01351 0.10003 0.0
C740 C 0.65493 0.01505 0.89733 0.0
C741 C 0.64931 0.03889 0.89289 0.0
C742 C 0.65281 0.00143 0.94709 0.0
C743 C 0.64243 0.01028 0.99212 0.0
C744 C 0.64065 0.03678 0.98895 0.0
C745 C 0.64507 0.05127 0.9396 0.0
C746 C 0.65862 0.97561 0.94997 0.0
C747 C 0.62985 0.04747 0.03551 0.0
H748 H 0.55412 0.93373 0.06259 0.0
H749 H 0.62702 0.98043 0.17162 0.0
H750 H 0.58378 0.98264 0.95713 0.0
H751 H 0.59245 0.95375 0.94339 0.0
H752 H 0.55709 0.94434 0.9727 0.0
H753 H 0.67914 0.00335 0.12836 0.0
H754 H 0.68431 0.02043 0.06358 0.0
H755 H 0.67222 0.03367 0.1198 0.0
H756 H 0.65836 0.00537 0.86146 0.0
H757 H 0.64055 0.0696 0.93625 0.0
H758 H 0.63834 0.95473 0.93736 0.0
H759 H 0.66458 0.97252 0.99109 0.0
H760 H 0.67702 0.97926 0.92247 0.0
H761 H 0.60616 0.0308 0.04427 0.0
H762 H 0.6314 0.06935 0.02756 0.0
H763 H 0.64318 0.04976 0.07162 0.0
C764 C 0.63861 0.59397 0.40318 0.0
C765 C 0.63916 0.60573 0.45386 0.0
C766 C 0.63566 0.60758 0.35678 0.0
C767 C 0.6346 0.63448 0.36085 0.0
C768 C 0.63997 0.64883 0.41128 0.0
C769 C 0.64115 0.63381 0.45744 0.0
C770 C 0.63014 0.59119 0.30433 0.0
C771 C 0.64202 0.67886 0.41738 0.0
C772 C 0.62411 0.6573 0.22117 0.0
C773 C 0.59298 0.64502 0.21985 0.0
C774 C 0.63885 0.65774 0.26904 0.0
C775 C 0.62177 0.64353 0.31538 0.0
C776 C 0.59062 0.63329 0.31485 0.0
C777 C 0.57695 0.63513 0.26771 0.0
C778 C 0.6724 0.67165 0.26841 0.0
C779 C 0.57089 0.61719 0.36206 0.0
H780 H 0.63651 0.57203 0.4003 0.0
H781 H 0.64124 0.64296 0.49646 0.0
H782 H 0.60768 0.58522 0.28879 0.0
H783 H 0.64689 0.6058 0.27449 0.0
H784 H 0.63137 0.57039 0.30802 0.0
H785 H 0.65741 0.69174 0.45053 0.0
H786 H 0.65001 0.69218 0.38017 0.0
H787 H 0.6197 0.6757 0.42738 0.0
H788 H 0.6367 0.66476 0.18431 0.0
H789 H 0.55282 0.62517 0.26655 0.0
H790 H 0.67852 0.65622 0.24861 0.0
H791 H 0.68212 0.67679 0.30916 0.0
H792 H 0.68261 0.69263 0.2448 0.0
H793 H 0.57304 0.59744 0.3724 0.0
H794 H 0.54692 0.60944 0.35421 0.0
H795 H 0.57794 0.63212 0.39733 0.0
C796 C 0.02949 0.63662 0.77806 0.0
C797 C 0.04094 0.61713 0.77243 0.0
C798 C 0.01223 0.63938 0.73679 0.0
C799 C 0.00576 0.6217 0.68974 0.0
C800 C 0.01912 0.60368 0.68295 0.0
C801 C 0.03687 0.60225 0.72353 0.0
C802 C 0.00037 0.66051 0.74495 0.0
C803 C 0.01328 0.58413 0.63417 0.0
C804 C 0.93405 0.58011 0.61527 0.0
C805 C 0.94495 0.58736 0.56302 0.0
C806 C 0.95247 0.59497 0.65915 0.0
C807 C 0.98231 0.61802 0.65028 0.0
C808 C 0.99087 0.62958 0.59794 0.0
C809 C 0.97237 0.61356 0.55441 0.0
C810 C 0.94153 0.58273 0.71427 0.0
C811 C 0.02114 0.65642 0.58741 0.0
H812 H 0.033 0.64882 0.8151 0.0
H813 H 0.04665 0.58812 0.71756 0.0
H814 H 0.99193 0.66508 0.7075 0.0
H815 H 0.98199 0.65088 0.77465 0.0
H816 H 0.01822 0.68204 0.76161 0.0
H817 H 0.02381 0.56995 0.6371 0.0
H818 H 0.98888 0.5692 0.62835 0.0
H819 H 0.02227 0.5982 0.5981 0.0
H820 H 0.9127 0.56001 0.62196 0.0
H821 H 0.9809 0.61957 0.5141 0.0
H822 H 0.94653 0.60122 0.74247 0.0
H823 H 0.9533 0.57101 0.72861 0.0
H824 H 0.91707 0.56672 0.71498 0.0
H825 H 0.0285 0.67222 0.62165 0.0
H826 H 0.02076 0.66824 0.55072 0.0
H827 H 0.03787 0.64916 0.58154 0.0
C828 C 0.46873 0.02936 0.36577 0.0
C829 C 0.46275 0.02097 0.31215 0.0
C830 C 0.45944 0.00686 0.40474 0.0
C831 C 0.44703 0.97677 0.38784 0.0
C832 C 0.43085 0.96993 0.33893 0.0
C833 C 0.44128 0.99175 0.29949 0.0
C834 C 0.46542 0.01513 0.4625 0.0
C835 C 0.40399 0.94012 0.3262 0.0
C836 C 0.50891 0.97063 0.34359 0.0
C837 C 0.49129 0.94352 0.31805 0.0
C838 C 0.49703 0.97926 0.3854 0.0
C839 C 0.46565 0.96187 0.39612 0.0
C840 C 0.4521 0.9311 0.38295 0.0
C841 C 0.46415 0.92247 0.34084 0.0
C842 C 0.51816 0.00755 0.41438 0.0
C843 C 0.42341 0.90815 0.40841 0.0
H844 H 0.48216 0.05263 0.37679 0.0
H845 H 0.43324 0.98583 0.25879 0.0
H846 H 0.44705 0.01816 0.47777 0.0
H847 H 0.4657 -0.00288 0.48608 0.0
H848 H 0.48657 0.03665 0.4682 0.0
H849 H 0.38892 0.94279 0.2979 0.0
H850 H 0.4111 0.92554 0.3061 0.0
H851 H 0.39095 0.92937 0.36268 0.0
H852 H 0.53119 0.9859 0.32867 0.0
H853 H 0.45144 0.90031 0.32354 0.0
H854 H 0.51136 0.00618 0.45631 0.0
H855 H 0.51895 0.02707 0.39457 0.0
H856 H 0.54133 0.01132 0.41391 0.0
H857 H 0.42794 0.893 0.432 0.0
H858 H 0.40681 0.89371 0.378 0.0
H859 H 0.41389 0.91827 0.43535 0.0
C860 C 0.4336 0.46103 0.67754 0.0
C861 C 0.44287 0.48506 0.6427 0.0
C862 C 0.45169 0.46348 0.72114 0.0
C863 C 0.4809 0.48831 0.72444 0.0
C864 C 0.48561 0.51507 0.69872 0.0
C865 C 0.46692 0.51267 0.65659 0.0
C866 C 0.44097 0.4382 0.75964 0.0
C867 C 0.5107 0.5461 0.71134 0.0
C868 C 0.55667 0.51938 0.70282 0.0
C869 C 0.55122 0.5055 0.65276 0.0
C870 C 0.53464 0.50588 0.74275 0.0
C871 C 0.50645 0.48193 0.72764 0.0
C872 C 0.50718 0.46279 0.68718 0.0
C873 C 0.52917 0.47565 0.64812 0.0
C874 C 0.53928 0.5194 0.79739 0.0
C875 C 0.48363 0.43045 0.67968 0.0
H876 H 0.41448 0.43959 0.66804 0.0
H877 H 0.47265 0.53195 0.6316 0.0
H878 H 0.45943 0.43917 0.78342 0.0
H879 H 0.42578 0.44031 0.78767 0.0
H880 H 0.42819 0.41644 0.73877 0.0
H881 H 0.50424 0.56309 0.70155 0.0
H882 H 0.51646 0.54867 0.75399 0.0
H883 H 0.53053 0.55155 0.68653 0.0
H884 H 0.5755 0.54164 0.70861 0.0
H885 H 0.52705 0.46356 0.61137 0.0
H886 H 0.5177 0.51381 0.81658 0.0
H887 H 0.55394 0.54398 0.79561 0.0
H888 H 0.55038 0.51019 0.82259 0.0
H889 H 0.47581 0.41889 0.7183 0.0
H890 H 0.49262 0.41828 0.65653 0.0
H891 H 0.46449 0.42873 0.6567 0.0
C892 C 0.9724 0.44186 0.97998 0.0
C893 C 0.94266 0.4347 0.98443 0.0
C894 C -0.0062 0.46337 0.01372 0.0
C895 C 0.98425 0.47769 0.05111 0.0
C896 C 0.95398 0.46239 0.0663 0.0
C897 C 0.93272 0.44179 0.03089 0.0
C898 C 0.02619 0.47348 1.0022 0.0
C899 C 0.94477 0.46986 0.11757 0.0
C900 C 0.05168 0.54735 0.03104 0.0
C901 C 0.04133 0.55536 0.98632 0.0
C902 C 0.03087 0.52608 0.06606 0.0
C903 C 0.0004 0.51106 0.05187 0.0
C904 C 0.99046 0.52584 0.01627 0.0
C905 C 0.01164 0.54838 0.9838 0.0
C906 C 0.04112 0.51725 0.11466 0.0
C907 C 0.95801 0.51497 1.0037 0.0
H908 H 0.97947 0.43433 0.94532 0.0
H909 H 0.90917 0.43426 0.03642 0.0
H910 H 0.03603 0.49396 0.97753 0.0
H911 H 0.03927 0.47804 0.03941 0.0
H912 H 0.02856 0.45624 0.97957 0.0
H913 H 0.92096 0.45432 0.12678 0.0
H914 H 0.95908 0.46831 0.14871 0.0
H915 H 0.94914 0.4931 0.11766 0.0
H916 H 0.07517 0.55422 0.03452 0.0
H917 H 0.00431 0.55644 0.95037 0.0
H918 H 0.02948 0.49266 0.11935 0.0
H919 H 0.0346 0.52645 0.14853 0.0
H920 H 0.06565 0.52647 0.11523 0.0
H921 H 0.9552 0.5323 0.98255 0.0
H922 H 0.94418 0.50903 0.04008 0.0
H923 H 0.94922 0.49521 0.97713 0.0
C924 C 0.98756 0.44917 0.37743 0.0
C925 C 0.01835 0.46083 0.37611 0.0
C926 C 0.97372 0.4554 0.33574 0.0
C927 C 0.99243 0.47595 0.29582 0.0
C928 C 0.01926 0.47589 0.28508 0.0
C929 C 0.03336 0.47028 0.32745 0.0
C930 C 0.94088 0.44472 0.34232 0.0
C931 C 0.03554 0.48776 0.23373 0.0
C932 C 0.95479 0.51429 0.32858 0.0
C933 C 0.97132 0.52622 0.37512 0.0
C934 C 0.9671 0.5057 0.28713 0.0
C935 C -0.00589 0.50591 0.29609 0.0
C936 C 0.01416 0.52768 0.33321 0.0
C937 C 0.00201 0.53664 0.37419 0.0
C938 C 0.9501 0.49291 0.237 0.0
C939 C 0.0473 0.53892 0.33542 0.0
H940 H 0.97516 0.43887 0.41365 0.0
H941 H 0.05688 0.47748 0.32461 0.0
H942 H 0.93777 0.45889 0.37203 0.0
H943 H 0.92993 0.44458 0.30466 0.0
H944 H 0.92914 0.42157 0.35828 0.0
H945 H 0.02292 0.47171 0.20163 0.0
H946 H 0.03622 0.50888 0.22448 0.0
H947 H 0.0586 0.49133 0.23464 0.0
H948 H 0.93154 0.50811 0.32707 0.0
H949 H 0.01577 0.54871 0.40825 0.0
H950 H 0.94505 0.46965 0.23143 0.0
H951 H 0.96496 0.5063 0.20413 0.0
H952 H 0.92912 0.49372 0.23571 0.0
H953 H 0.05215 0.52693 0.36693 0.0
H954 H 0.05951 0.56296 0.34671 0.0
H955 H 0.05642 0.53674 0.29702 0.0
C956 C 0.4355 0.96743 0.66985 0.0
C957 C 0.44649 0.95386 0.70412 0.0
C958 C 0.45332 0.98498 0.62738 0.0
C959 C 0.48347 0.99216 0.62524 0.0
C960 C 0.48982 0.97058 0.64765 0.0
C961 C 0.47199 0.95284 0.68956 0.0
C962 C 0.44201 6e-05 0.59124 0.0
C963 C 0.51633 0.9676 0.6319 0.0
C964 C 0.55669 0.04003 0.66318 0.0
C965 C 0.54721 0.04089 0.71508 0.0
C966 C 0.5364 0.0334 0.62102 0.0
C967 C 0.50641 0.02465 0.63355 0.0
C968 C 0.50239 0.03781 0.6806 0.0
C969 C 0.52173 0.04309 0.72302 0.0
C970 C 0.54571 0.03195 0.56507 0.0
C971 C 0.47683 0.04363 0.68943 0.0
H972 H 0.41549 0.968 0.67993 0.0
H973 H 0.47923 0.94007 0.71334 0.0
H974 H 0.42477 0.00341 0.61135 0.0
H975 H 0.46035 0.02148 0.57561 0.0
H976 H 0.43171 0.98523 0.55674 0.0
H977 H 0.51153 0.94432 0.63777 0.0
H978 H 0.52205 0.97352 0.5895 0.0
H979 H 0.53574 0.98173 0.65777 0.0
H980 H 0.57812 0.04155 0.65611 0.0
H981 H 0.5163 0.04765 0.76251 0.0
H982 H 0.52596 0.01959 0.53903 0.0
H983 H 0.55998 0.02153 0.56403 0.0
H984 H 0.55945 0.05505 0.54986 0.0
H985 H 0.46947 0.04901 0.65173 0.0
H986 H 0.48375 0.06293 0.71689 0.0
H987 H 0.45784 0.02413 0.70883 0.0
C988 C 0.47531 0.54611 1.00024 0.0
C989 C 0.5026 0.55 0.01915 0.0
C990 C 0.45786 0.52218 0.96544 0.0
C991 C 0.46587 0.5001 0.9581 0.0
C992 C 0.49694 0.50943 0.96352 0.0
C993 C 0.51472 0.53411 0.99558 0.0
C994 C 0.42899 0.51775 0.94264 0.0
C995 C 0.51166 0.49304 0.94021 0.0
C996 C 0.43081 0.44205 0.05785 0.0
C997 C 0.44723 0.429 0.04086 0.0
C998 C 0.42977 0.46351 0.02597 0.0
C999 C 0.44314 0.4687 0.97381 0.0
C1000 C 0.4462 0.44521 0.95145 0.0
C1001 C 0.45137 0.42709 0.98634 0.0
C1002 C 0.42006 0.48319 0.05456 0.0
C1003 C 0.44938 0.44283 0.89254 0.0
H1004 H 0.46602 0.55906 0.01689 0.0
H1005 H 0.5369 0.53877 0.00728 0.0
H1006 H 0.4319 0.52189 0.89939 0.0
H1007 H 0.41067 0.49421 0.94474 0.0
H1008 H 0.42219 0.5329 0.96157 0.0
H1009 H 0.53644 0.5072 0.93995 0.0
H1010 H 0.50628 0.47295 0.96404 0.0
H1011 H 0.50466 0.48686 0.8984 0.0
H1012 H 0.42473 0.44039 0.09972 0.0
H1013 H 0.46184 0.41476 0.97188 0.0
H1014 H 0.40554 0.48827 0.02992 0.0
H1015 H 0.43989 0.50405 0.06838 0.0
H1016 H 0.40679 0.47223 0.09096 0.0
H1017 H 0.42893 0.42319 0.87751 0.0
H1018 H 0.46786 0.4385 0.88361 0.0
H1019 H 0.45244 0.46293 0.87095 0.0
C1020 C 0.35469 0.96807 0.62417 0.0
C1021 C 0.36099 0.94494 0.61626 0.0
C1022 C 0.35846 0.98784 0.58229 0.0
C1023 C 0.37005 0.98501 0.53247 0.0
C1024 C 0.37582 0.96111 0.52473 0.0
C1025 C 0.37085 0.94132 0.56643 0.0
C1026 C 0.34876 0.01066 0.59141 0.0
C1027 C 0.38822 0.9561 0.47357 0.0
C1028 C 0.37208 0.01473 0.39386 0.0
C1029 C 0.40027 0.04043 0.39464 0.0
C1030 C 0.36024 -0.00214 0.44065 0.0
C1031 C 0.37726 0.00696 0.48859 0.0
C1032 C 0.40434 0.0348 0.49002 0.0
C1033 C 0.41573 0.05065 0.44274 0.0
C1034 C 0.32995 0.96993 0.43841 0.0
C1035 C 0.4218 0.04908 0.54033 0.0
H1036 H 0.34574 0.96997 0.66218 0.0
H1037 H 0.37522 0.92303 0.56016 0.0
H1038 H 0.35935 0.02984 0.56359 0.0
H1039 H 0.32418 -0.00039 0.58568 0.0
H1040 H 0.35368 0.01925 0.63301 0.0
H1041 H 0.40702 0.95225 0.48301 0.0
H1042 H 0.37068 0.93549 0.45385 0.0
H1043 H 0.39649 0.97481 0.44494 0.0
H1044 H 0.35935 0.00794 0.35704 0.0
H1045 H 0.43671 0.07173 0.44366 0.0
H1046 H 0.31799 0.96597 0.47702 0.0
H1047 H 0.33279 0.95041 0.42983 0.0
H1048 H 0.31591 0.97131 0.40624 0.0
H1049 H 0.41201 0.03582 0.57672 0.0
H1050 H 0.42305 0.07101 0.54616 0.0
H1051 H 0.44523 0.05405 0.53581 0.0
C1052 C 0.36694 0.35589 0.95893 0.0
C1053 C 0.39351 0.35486 0.95677 0.0
C1054 C 0.35498 0.36121 0.91222 0.0
C1055 C 0.37022 0.36585 0.8627 0.0
C1056 C 0.39639 0.36336 0.86083 0.0
C1057 C 0.4077 0.35833 0.90777 0.0
C1058 C 0.32606 0.36169 0.91616 0.0
C1059 C 0.41354 0.3661 0.81033 0.0
C1060 C 0.34337 0.36404 0.72043 0.0
C1061 C 0.35364 0.39442 0.71149 0.0
C1062 C 0.34662 0.35393 0.77085 0.0
C1063 C 0.36016 0.37466 0.81342 0.0
C1064 C 0.36742 0.40475 0.80577 0.0
C1065 C 0.36509 0.41434 0.75461 0.0
C1066 C 0.3357 0.3211 0.77856 0.0
C1067 C 0.37631 0.42711 0.85095 0.0
H1068 H 0.35537 0.35217 0.9967 0.0
H1069 H 0.42766 0.35645 0.90573 0.0
H1070 H 0.33109 0.3849 0.92403 0.0
H1071 H 0.3129 0.35382 0.87869 0.0
H1072 H 0.31208 0.34756 0.94965 0.0
H1073 H 0.41551 0.34577 0.80532 0.0
H1074 H 0.40349 0.36905 0.77368 0.0
H1075 H 0.43664 0.38517 0.81439 0.0
H1076 H 0.33267 0.34821 0.68812 0.0
H1077 H 0.37134 0.4375 0.74905 0.0
H1078 H 0.32487 0.31354 0.81817 0.0
H1079 H 0.35497 0.31721 0.77698 0.0
H1080 H 0.31953 0.30722 0.74706 0.0
H1081 H 0.35668 0.42942 0.86157 0.0
H1082 H 0.39414 0.44967 0.83833 0.0
H1083 H 0.38362 0.42059 0.88745 0.0
C1084 C 0.95465 0.38262 0.07332 0.0
C1085 C 0.95471 0.36176 0.03759 0.0
C1086 C 0.97022 0.38926 0.12181 0.0
C1087 C 0.98701 0.37537 0.13486 0.0
C1088 C 0.98834 0.35521 0.09792 0.0
C1089 C 0.97168 0.34817 0.05015 0.0
C1090 C 0.96694 0.40971 0.16056 0.0
C1091 C 0.00699 0.34081 0.10922 0.0
C1092 C 0.04697 0.41826 0.23881 0.0
C1093 C 0.03455 0.40142 0.28512 0.0
C1094 C 0.03237 0.40924 0.18948 0.0
C1095 C 0.00394 0.38311 0.18637 0.0
C1096 C 0.99084 0.36625 0.23341 0.0
C1097 C 0.00661 0.37531 0.28225 0.0
C1098 C 0.04728 0.42811 0.14089 0.0
C1099 C 0.9601 0.33888 0.23213 0.0
H1100 H 0.9407 0.39232 0.06515 0.0
H1101 H 0.97143 0.33163 0.0231 0.0
H1102 H 0.98821 0.42474 0.18099 0.0
H1103 H 0.95908 0.42347 0.14019 0.0
H1104 H 0.95053 0.39598 0.19165 0.0
H1105 H 0.00724 0.3272 0.07505 0.0
H1106 H 0.03034 0.35825 0.11852 0.0
H1107 H -0.00192 0.32618 0.14472 0.0
H1108 H 0.06877 0.43824 0.24095 0.0
H1109 H -0.00273 0.36198 0.31787 0.0
H1110 H 0.03673 0.44173 0.13134 0.0
H1111 H 0.04453 0.41388 0.10567 0.0
H1112 H 0.07154 0.44346 0.14753 0.0
H1113 H 0.94349 0.34519 0.21887 0.0
H1114 H 0.95321 0.32792 0.27174 0.0
H1115 H 0.95952 0.32245 0.20285 0.0
C1116 C 0.64527 0.01795 0.61292 0.0
C1117 C 0.64361 0.04385 0.62128 0.0
C1118 C 0.63591 0.00249 0.56394 0.0
C1119 C 0.62539 0.01376 0.52273 0.0
C1120 C 0.62381 0.03997 0.53154 0.0
C1121 C 0.63272 0.05451 0.5808 0.0
C1122 C 0.63656 0.97381 0.55664 0.0
C1123 C 0.61279 0.05276 0.48885 0.0
C1124 C 0.62414 0.98776 0.38003 0.0
C1125 C 0.59352 0.96822 0.37229 0.0
C1126 C 0.63483 0.00327 0.42856 0.0
C1127 C 0.61456 -0.00239 0.47115 0.0
C1128 C 0.58361 0.97776 0.46322 0.0
C1129 C 0.57351 0.96421 0.4134 0.0
C1130 C 0.66776 0.02549 0.43443 0.0
C1131 C 0.56062 0.96997 0.50673 0.0
H1132 H 0.65367 0.00981 0.64448 0.0
H1133 H 0.63145 0.07459 0.58762 0.0
H1134 H 0.6136 0.95521 0.54829 0.0
H1135 H 0.65063 0.97563 0.52181 0.0
H1136 H 0.64537 0.96807 0.59239 0.0
H1137 H 0.61347 0.07366 0.50198 0.0
H1138 H 0.62669 0.05755 0.45244 0.0
H1139 H 0.58946 0.03621 0.47767 0.0
H1140 H 0.63968 0.99051 0.34847 0.0
H1141 H 0.54995 0.94873 0.40784 0.0
H1142 H 0.6776 0.01799 0.46591 0.0
H1143 H 0.67093 0.04752 0.44707 0.0
H1144 H 0.68025 0.02846 0.39671 0.0
H1145 H 0.57046 0.9774 0.54699 0.0
H1146 H 0.54527 0.9454 0.50785 0.0
H1147 H 0.54675 0.98025 0.49719 0.0
C1148 C 0.57755 0.63754 0.89173 0.0
C1149 C 0.59068 0.64532 0.94233 0.0
C1150 C 0.59123 0.63101 0.84996 0.0
C1151 C 0.6192 0.63288 0.85867 0.0
C1152 C 0.63264 0.64061 0.90997 0.0
C1153 C 0.61795 0.64647 0.95172 0.0
C1154 C 0.57542 0.62163 0.79669 0.0
C1155 C 0.66267 0.64328 0.92036 0.0
C1156 C 0.63094 0.58488 0.75957 0.0
C1157 C 0.64655 0.6053 0.71885 0.0
C1158 C 0.62423 0.59411 0.80753 0.0
C1159 C 0.63268 0.62449 0.81434 0.0
C1160 C 0.64984 0.64557 0.77437 0.0
C1161 C 0.65692 0.63573 0.72699 0.0
C1162 C 0.60803 0.5713 0.85077 0.0
C1163 C 0.66002 0.67831 0.78122 0.0
H1164 H 0.55621 0.63635 0.88496 0.0
H1165 H 0.62802 0.65265 0.991 0.0
H1166 H 0.58983 0.63704 0.76496 0.0
H1167 H 0.57098 0.59888 0.78617 0.0
H1168 H 0.55379 0.62143 0.79671 0.0
H1169 H 0.66949 0.64834 0.96286 0.0
H1170 H 0.66232 0.62234 0.9091 0.0
H1171 H 0.67991 0.66134 0.89526 0.0
H1172 H 0.62427 0.56155 0.75397 0.0
H1173 H 0.67005 0.6516 0.69619 0.0
H1174 H 0.58821 0.57234 0.86501 0.0
H1175 H 0.62304 0.57608 0.88547 0.0
H1176 H 0.60083 0.54827 0.83701 0.0
H1177 H 0.64041 0.68164 0.77892 0.0
H1178 H 0.67638 0.69228 0.75014 0.0
H1179 H 0.67034 0.68622 0.8211 0.0
C1180 C 0.00731 0.62738 0.04378 0.0
C1181 C 0.0357 0.63011 0.04488 0.0
C1182 C 0.99034 0.62137 0.09113 0.0
C1183 C 0.0021 0.61785 0.14015 0.0
C1184 C 0.03095 0.62113 0.141 0.0
C1185 C 0.04744 0.62783 0.09373 0.0
C1186 C 0.96008 0.61913 0.08897 0.0
C1187 C 0.0445 0.61752 0.19188 0.0
C1188 C 0.97186 0.62086 0.27794 0.0
C1189 C 0.95457 0.59038 0.29016 0.0
C1190 C 0.98691 0.63034 0.22864 0.0
C1191 C 0.98392 0.60879 0.1902 0.0
C1192 C 0.96557 0.57806 0.20168 0.0
C1193 C 0.95147 0.56925 0.25161 0.0
C1194 C 0.00572 0.66336 0.21738 0.0
C1195 C 0.96075 0.55443 0.16104 0.0
H1196 H -0.00126 0.63056 0.0064 0.0
H1197 H 0.07024 0.63258 0.09521 0.0
H1198 H 0.94256 0.59689 0.10337 0.0
H1199 H 0.95984 0.6361 0.11589 0.0
H1200 H 0.95417 0.62256 0.04803 0.0
H1201 H 0.06813 0.62321 0.1865 0.0
H1202 H 0.04373 0.63198 0.22387 0.0
H1203 H 0.0313 0.59403 0.20577 0.0
H1204 H 0.97329 0.63725 0.30671 0.0
H1205 H 0.93669 0.54572 0.25938 0.0
H1206 H -0.0018 0.66888 0.17982 0.0
H1207 H 0.02941 0.66945 0.21167 0.0
H1208 H 0.00457 0.67727 0.25016 0.0
H1209 H 0.95746 0.56074 0.12046 0.0
H1210 H 0.94089 0.53259 0.1707 0.0
H1211 H 0.98093 0.552 0.15958 0.0
C1212 C 0.52706 0.14909 0.44399 0.0
C1213 C 0.52032 0.12882 0.40177 0.0
C1214 C 0.54582 0.15074 0.48601 0.0
C1215 C 0.55697 0.13064 0.48721 0.0
C1216 C 0.55124 0.11097 0.44351 0.0
C1217 C 0.53357 0.11084 0.40074 0.0
C1218 C 0.55272 0.17321 0.53016 0.0
C1219 C 0.56176 0.08845 0.44324 0.0
C1220 C 0.62155 0.14215 0.5757 0.0
C1221 C 0.60685 0.12392 0.62 0.0
C1222 C 0.60566 0.14551 0.53352 0.0
C1223 C 0.57409 0.12979 0.53457 0.0
C1224 C 0.55902 0.11275 0.58028 0.0
C1225 C 0.57561 0.11036 0.62281 0.0
C1226 C 0.62273 0.16519 0.48695 0.0
C1227 C 0.52533 0.09574 0.58349 0.0
H1228 H 0.51712 0.16328 0.44473 0.0
H1229 H 0.52869 0.0953 0.36804 0.0
H1230 H 0.54105 0.16144 0.56719 0.0
H1231 H 0.57707 0.1855 0.5388 0.0
H1232 H 0.54557 0.18963 0.51999 0.0
H1233 H 0.56234 0.08059 0.4022 0.0
H1234 H 0.58425 0.09756 0.46125 0.0
H1235 H 0.5459 0.06884 0.46716 0.0
H1236 H 0.64573 0.15349 0.57316 0.0
H1237 H 0.56401 0.09712 0.65733 0.0
H1238 H 0.61425 0.18061 0.4773 0.0
H1239 H 0.61931 0.15114 0.45117 0.0
H1240 H 0.64712 0.17864 0.49501 0.0
H1241 H 0.51506 0.10734 0.56288 0.0
H1242 H 0.51781 0.09227 0.62559 0.0
H1243 H 0.51677 0.07364 0.56394 0.0
C1244 C 0.37804 0.50951 0.77265 0.0
C1245 C 0.3881 0.51312 0.71985 0.0
C1246 C 0.39447 0.53046 0.81229 0.0
C1247 C 0.42245 0.55589 0.79941 0.0
C1248 C 0.43191 0.56068 0.74526 0.0
C1249 C 0.41484 0.53905 0.70623 0.0
C1250 C 0.38058 0.52438 0.86716 0.0
C1251 C 0.45972 0.58891 0.72835 0.0
C1252 C 0.44931 0.61136 0.91526 0.0
C1253 C 0.47256 0.60791 0.93618 0.0
C1254 C 0.43423 0.59626 0.86839 0.0
C1255 C 0.44202 0.57655 0.84263 0.0
C1256 C 0.4673 0.57515 0.86138 0.0
C1257 C 0.48222 0.59098 0.90758 0.0
C1258 C 0.40979 0.60126 0.84688 0.0
C1259 C 0.47907 0.55694 0.83419 0.0
H1260 H 0.35703 0.48996 0.78358 0.0
H1261 H 0.42261 0.5423 0.66529 0.0
H1262 H 0.39429 0.54113 0.8976 0.0
H1263 H 0.35871 0.52358 0.86478 0.0
H1264 H 0.3757 0.50191 0.88069 0.0
H1265 H 0.46145 0.59141 0.68429 0.0
H1266 H 0.4599 0.60873 0.74608 0.0
H1267 H 0.47986 0.58875 0.74298 0.0
H1268 H 0.44307 0.62606 0.93534 0.0
H1269 H 0.50189 0.59038 0.921 0.0
H1270 H 0.3878 0.58335 0.8615 0.0
H1271 H 0.40937 0.60068 0.8026 0.0
H1272 H 0.41263 0.62303 0.86046 0.0
H1273 H 0.46284 0.53972 0.80648 0.0
H1274 H 0.48604 0.54575 0.86403 0.0
H1275 H 0.49955 0.57247 0.81188 0.0
C1276 C 0.83622 0.37972 0.07342 0.0
C1277 C 0.8587 0.37206 0.07453 0.0
C1278 C 0.8325 0.39524 0.11647 0.0
C1279 C 0.85305 0.40514 0.15978 0.0
C1280 C 0.87494 0.39619 0.16176 0.0
C1281 C 0.87716 0.37953 0.11957 0.0
C1282 C 0.80695 0.40152 0.11484 0.0
C1283 C 0.89734 0.40484 0.20655 0.0
C1284 C 0.87166 0.47945 0.22311 0.0
C1285 C 0.86625 0.47207 0.27739 0.0
C1286 C 0.86648 0.4579 0.18416 0.0
C1287 C 0.85411 0.42751 0.19926 0.0
C1288 C 0.84573 0.41946 0.25342 0.0
C1289 C 0.85289 0.44194 0.29216 0.0
C1290 C 0.87482 0.46873 0.12736 0.0
C1291 C 0.83018 0.38721 0.27094 0.0
H1292 H 0.82138 0.37331 0.03928 0.0
H1293 H 0.89441 0.37339 0.121 0.0
H1294 H 0.7986 0.40178 0.15557 0.0
H1295 H 0.81464 0.42367 0.09637 0.0
H1296 H 0.78811 0.38455 0.09043 0.0
H1297 H 0.92004 0.41931 0.19067 0.0
H1298 H 0.89425 0.41713 0.2396 0.0
H1299 H 0.8967 0.38453 0.22279 0.0
H1300 H 0.88139 0.50259 0.21086 0.0
H1301 H 0.84773 0.43587 0.33377 0.0
H1302 H 0.87596 0.45242 0.10017 0.0
H1303 H 0.89677 0.48974 0.12639 0.0
H1304 H 0.85809 0.47422 0.11138 0.0
H1305 H 0.81486 0.37226 0.23943 0.0
H1306 H 0.81719 0.38392 0.30814 0.0
H1307 H 0.84705 0.3804 0.27913 0.0
C1308 C 0.46246 0.84442 0.42659 0.0
C1309 C 0.4828 0.8738 0.41152 0.0
C1310 C 0.44535 0.83854 0.47354 0.0
C1311 C 0.44801 0.86271 0.50496 0.0
C1312 C 0.46899 0.8924 0.48983 0.0
C1313 C 0.48626 0.89745 0.44378 0.0
C1314 C 0.42455 0.8065 0.48947 0.0
C1315 C 0.47267 0.91907 0.52107 0.0
C1316 C 0.38049 0.84898 0.58725 0.0
C1317 C 0.39215 0.85563 0.63913 0.0
C1318 C 0.3979 0.8501 0.54364 0.0
C1319 C 0.42801 0.85739 0.55185 0.0
C1320 C 0.43943 0.86236 0.60493 0.0
C1321 C 0.42163 0.86231 0.64776 0.0
C1322 C 0.38335 0.84465 0.48935 0.0
C1323 C 0.47029 0.86768 0.61773 0.0
H1324 H 0.46064 0.82606 0.40264 0.0
H1325 H 0.50228 0.92012 0.43257 0.0
H1326 H 0.42502 0.80375 0.53331 0.0
H1327 H 0.40131 0.79994 0.47802 0.0
H1328 H 0.43045 0.79095 0.46934 0.0
H1329 H 0.48567 0.94036 0.49882 0.0
H1330 H 0.45062 0.91643 0.53192 0.0
H1331 H 0.48478 0.92075 0.5584 0.0
H1332 H 0.35784 0.84433 0.57996 0.0
H1333 H 0.43076 0.86737 0.68783 0.0
H1334 H 0.397 0.84376 0.4562 0.0
H1335 H 0.37793 0.86253 0.48095 0.0
H1336 H 0.36175 0.82323 0.48976 0.0
H1337 H 0.46834 0.85047 0.64646 0.0
H1338 H 0.48345 0.88965 0.6379 0.0
H1339 H 0.48281 0.86693 0.58238 0.0
C1340 C 0.61151 0.49733 0.78671 0.0
C1341 C 0.60944 0.48747 0.73387 0.0
C1342 C 0.59386 0.4778 0.82726 0.0
C1343 C 0.57475 0.44718 0.81539 0.0
C1344 C 0.57357 0.43677 0.76243 0.0
C1345 C 0.59032 0.45723 0.72191 0.0
C1346 C 0.5943 0.49041 0.88195 0.0
C1347 C 0.55345 0.4043 0.74811 0.0
C1348 C 0.54231 0.39663 0.9373 0.0
C1349 C 0.51313 0.39184 0.93772 0.0
C1350 C 0.5624 0.41361 0.89637 0.0
C1351 C 0.55335 0.42707 0.85672 0.0
C1352 C 0.52385 0.42221 0.85774 0.0
C1353 C 0.50406 0.4043 0.89759 0.0
C1354 C 0.59295 0.4165 0.8947 0.0
C1355 C 0.51271 0.4361 0.81784 0.0
H1356 H 0.62618 0.52074 0.79605 0.0
H1357 H 0.58868 0.44955 0.68111 0.0
H1358 H 0.57272 0.48974 0.88886 0.0
H1359 H 0.59669 0.4768 0.91358 0.0
H1360 H 0.61275 0.51387 0.88637 0.0
H1361 H 0.55915 0.39876 0.70854 0.0
H1362 H 0.55498 0.38962 0.77875 0.0
H1363 H 0.52989 0.39928 0.74683 0.0
H1364 H 0.54902 0.38629 0.96774 0.0
H1365 H 0.48128 0.4001 0.89744 0.0
H1366 H 0.61052 0.44023 0.89975 0.0
H1367 H 0.59653 0.40904 0.85517 0.0
H1368 H 0.59582 0.40307 0.92626 0.0
H1369 H 0.51384 0.45623 0.83591 0.0
H1370 H 0.48906 0.42015 0.80805 0.0
H1371 H 0.52564 0.44288 0.78031 0.0
C1372 C 0.1355 0.54512 0.2893 0.0
C1373 C 0.12533 0.51539 0.27475 0.0
C1374 C 0.14114 0.56694 0.25027 0.0
C1375 C 0.13489 0.55845 0.19561 0.0
C1376 C 0.12464 0.52828 0.18111 0.0
C1377 C 0.12081 0.50755 0.22054 0.0
C1378 C 0.15325 0.59876 0.26878 0.0
C1379 C 0.11639 0.51663 0.12462 0.0
C1380 C 0.10792 0.6009 0.11117 0.0
C1381 C 0.12811 0.61098 0.06848 0.0
C1382 C 0.11083 0.58532 0.15403 0.0
C1383 C 0.13482 0.57948 0.15479 0.0
C1384 C 0.15632 0.59083 0.11295 0.0
C1385 C 0.15237 0.60596 0.06954 0.0
C1386 C 0.08781 0.57511 0.19804 0.0
C1387 C 0.18319 0.58662 0.11357 0.0
H1388 H 0.13938 0.55147 0.33105 0.0
H1389 H 0.11289 0.4846 0.20864 0.0
H1390 H 0.16039 0.61503 0.23555 0.0
H1391 H 0.13594 0.60025 0.29276 0.0
H1392 H 0.17268 0.6053 0.2956 0.0
H1393 H 0.09401 0.49615 0.12426 0.0
H1394 H 0.11582 0.53265 0.0961 0.0
H1395 H 0.1326 0.51006 0.1099 0.0
H1396 H 0.08896 0.60426 0.11035 0.0
H1397 H 0.16844 0.61425 0.03719 0.0
H1398 H 0.09662 0.59152 0.2312 0.0
H1399 H 0.08259 0.55302 0.2138 0.0
H1400 H 0.06671 0.57373 0.18441 0.0
H1401 H 0.19136 0.5876 0.15491 0.0
H1402 H 0.20173 0.60385 0.08912 0.0
H1403 H 0.17689 0.56437 0.09661 0.0
loop_
_geom_bond_atom_site_label_1
_geom_bond_atom_site_label_2
_geom_bond_distance
_geom_bond_site_symmetry_2
_ccdc_geom_bond_type
O0 Mn1 2.163 . S
O0 C14 1.244 . S
Mn1 O0 2.163 . S
Mn1 O4 2.160 . S
Mn1 O5 2.221 . S
Mn1 O7 2.163 . S
Mn1 O9 2.160 . S
Mn1 O19 2.221 . S
O2 Mn3 2.087 . S
O2 C14 1.256 . S
Mn3 O2 2.087 . S
Mn3 O10 2.089 . S
Mn3 O19 2.290 . S
Mn3 O20 2.251 . S
O4 Mn1 2.160 . S
O4 C15 1.239 . S
O5 Mn1 2.221 . S
O5 Mn6 2.290 . S
O5 C16 1.278 . S
Mn6 O5 2.290 . S
Mn6 O8 2.089 . S
Mn6 O11 2.251 . S
Mn6 O12 2.087 . S
O7 Mn1 2.163 . S
O7 C17 1.244 . S
O8 Mn6 2.089 . S
O8 C15 1.256 . S
O9 Mn1 2.160 . S
O9 C18 1.239 . S
O10 Mn3 2.089 . S
O10 C18 1.256 . S
O11 Mn6 2.251 . S
O11 C16 1.241 . S
O12 Mn6 2.087 . S
O12 C17 1.256 . S
C13 O19 1.278 . S
C13 O20 1.241 . S
C14 O0 1.244 . S
C14 O2 1.256 . S
C15 O4 1.239 . S
C15 O8 1.256 . S
C16 O5 1.278 . S
C16 O11 1.241 . S
C17 O7 1.244 . S
C17 O12 1.256 . S
C18 O9 1.239 . S
C18 O10 1.256 . S
O19 Mn1 2.221 . S
O19 Mn3 2.290 . S
O19 C13 1.278 . S
O20 Mn3 2.251 . S
O20 C13 1.241 . S
O21 Mn22 2.163 . S
O21 C35 1.244 . S
Mn22 O21 2.163 . S
Mn22 O25 2.160 . S
Mn22 O26 2.221 . S
Mn22 O28 2.163 . S
Mn22 O30 2.160 . S
Mn22 O40 2.221 . S
O23 Mn24 2.087 . S
O23 C35 1.256 . S
Mn24 O23 2.087 . S
Mn24 O31 2.089 . S
Mn24 O40 2.290 . S
Mn24 O41 2.251 . S
O25 Mn22 2.160 . S
O25 C36 1.239 . S
O26 Mn22 2.221 . S
O26 Mn27 2.290 . S
O26 C37 1.278 . S
Mn27 O26 2.290 . S
Mn27 O29 2.089 . S
Mn27 O32 2.251 . S
Mn27 O33 2.087 . S
O28 Mn22 2.163 . S
O28 C38 1.244 . S
O29 Mn27 2.089 . S
O29 C36 1.256 . S
O30 Mn22 2.160 . S
O30 C39 1.239 . S
O31 Mn24 2.089 . S
O31 C39 1.256 . S
O32 Mn27 2.251 . S
O32 C37 1.241 . S
O33 Mn27 2.087 . S
O33 C38 1.256 . S
C34 O40 1.278 . S
C34 O41 1.241 . S
C35 O21 1.244 . S
C35 O23 1.256 . S
C36 O25 1.239 . S
C36 O29 1.256 . S
C37 O26 1.278 . S
C37 O32 1.241 . S
C38 O28 1.244 . S
C38 O33 1.256 . S
C39 O30 1.239 . S
C39 O31 1.256 . S
O40 Mn22 2.221 . S
O40 Mn24 2.290 . S
O40 C34 1.278 . S
O41 Mn24 2.251 . S
O41 C34 1.241 . S
O42 Mn43 2.163 . S
O42 C56 1.244 1_556 S
Mn43 O42 2.163 . S
Mn43 O46 2.160 . S
Mn43 O47 2.221 . S
Mn43 O49 2.163 . S
Mn43 O51 2.160 . S
Mn43 O61 2.221 . S
O44 Mn45 2.087 . S
O44 C56 1.256 . S
Mn45 O44 2.087 . S
Mn45 O52 2.089 . S
Mn45 O61 2.290 1_554 S
Mn45 O62 2.251 1_554 S
O46 Mn43 2.160 . S
O46 C57 1.239 . S
O47 Mn43 2.221 . S
O47 Mn48 2.290 . S
O47 C58 1.278 . S
Mn48 O47 2.290 . S
Mn48 O50 2.089 . S
Mn48 O53 2.251 . S
Mn48 O54 2.087 . S
O49 Mn43 2.163 . S
O49 C59 1.244 . S
O50 Mn48 2.089 . S
O50 C57 1.256 . S
O51 Mn43 2.160 . S
O51 C60 1.239 1_556 S
O52 Mn45 2.089 . S
O52 C60 1.256 . S
O53 Mn48 2.251 . S
O53 C58 1.241 . S
O54 Mn48 2.087 . S
O54 C59 1.256 . S
C55 O61 1.278 . S
C55 O62 1.241 . S
C56 O42 1.244 1_554 S
C56 O44 1.256 . S
C57 O46 1.239 . S
C57 O50 1.256 . S
C58 O47 1.278 . S
C58 O53 1.241 . S
C59 O49 1.244 . S
C59 O54 1.256 . S
C60 O51 1.239 1_554 S
C60 O52 1.256 . S
O61 Mn43 2.221 . S
O61 Mn45 2.290 1_556 S
O61 C55 1.278 . S
O62 Mn45 2.251 1_556 S
O62 C55 1.241 . S
O63 Mn64 2.163 . S
O63 C77 1.244 . S
Mn64 O63 2.163 . S
Mn64 O67 2.160 . S
Mn64 O68 2.221 . S
Mn64 O70 2.163 . S
Mn64 O72 2.160 . S
Mn64 O82 2.221 . S
O65 Mn66 2.087 . S
O65 C77 1.256 . S
Mn66 O65 2.087 . S
Mn66 O73 2.089 . S
Mn66 O82 2.290 . S
Mn66 O83 2.251 . S
O67 Mn64 2.160 . S
O67 C78 1.239 . S
O68 Mn64 2.221 . S
O68 Mn69 2.290 . S
O68 C79 1.278 . S
Mn69 O68 2.290 . S
Mn69 O71 2.089 . S
Mn69 O74 2.251 . S
Mn69 O75 2.087 . S
O70 Mn64 2.163 . S
O70 C80 1.244 . S
O71 Mn69 2.089 . S
O71 C78 1.256 . S
O72 Mn64 2.160 . S
O72 C81 1.239 . S
O73 Mn66 2.089 . S
O73 C81 1.256 . S
O74 Mn69 2.251 . S
O74 C79 1.241 . S
O75 Mn69 2.087 . S
O75 C80 1.256 . S
C76 O82 1.278 . S
C76 O83 1.241 . S
C77 O63 1.244 . S
C77 O65 1.256 . S
C78 O67 1.239 . S
C78 O71 1.256 . S
C79 O68 1.278 . S
C79 O74 1.241 . S
C80 O70 1.244 . S
C80 O75 1.256 . S
C81 O72 1.239 . S
C81 O73 1.256 . S
O82 Mn64 2.221 . S
O82 Mn66 2.290 . S
O82 C76 1.278 . S
O83 Mn66 2.251 . S
O83 C76 1.241 . S
O84 Mn85 2.163 . S
O84 C98 1.244 . S
Mn85 O84 2.163 . S
Mn85 O88 2.160 . S
Mn85 O89 2.221 . S
Mn85 O91 2.163 . S
Mn85 O93 2.160 . S
Mn85 O103 2.221 . S
O86 Mn87 2.087 . S
O86 C98 1.256 . S
Mn87 O86 2.087 . S
Mn87 O94 2.089 . S
Mn87 O103 2.290 . S
Mn87 O104 2.251 . S
O88 Mn85 2.160 . S
O88 C99 1.239 . S
O89 Mn85 2.221 . S
O89 Mn90 2.290 . S
O89 C100 1.278 . S
Mn90 O89 2.290 . S
Mn90 O92 2.089 . S
Mn90 O95 2.251 . S
Mn90 O96 2.087 . S
O91 Mn85 2.163 . S
O91 C101 1.244 . S
O92 Mn90 2.089 . S
O92 C99 1.256 . S
O93 Mn85 2.160 . S
O93 C102 1.239 . S
O94 Mn87 2.089 . S
O94 C102 1.256 . S
O95 Mn90 2.251 . S
O95 C100 1.241 . S
O96 Mn90 2.087 . S
O96 C101 1.256 . S
C97 O103 1.278 . S
C97 O104 1.241 . S
C98 O84 1.244 . S
C98 O86 1.256 . S
C99 O88 1.239 . S
C99 O92 1.256 . S
C100 O89 1.278 . S
C100 O95 1.241 . S
C101 O91 1.244 . S
C101 O96 1.256 . S
C102 O93 1.239 . S
C102 O94 1.256 . S
O103 Mn85 2.221 . S
O103 Mn87 2.290 . S
O103 C97 1.278 . S
O104 Mn87 2.251 . S
O104 C97 1.241 . S
O105 Mn106 2.163 . S
O105 C119 1.244 1_556 S
Mn106 O105 2.163 . S
Mn106 O109 2.160 . S
Mn106 O110 2.221 . S
Mn106 O112 2.163 . S
Mn106 O114 2.160 . S
Mn106 O124 2.221 . S
O107 Mn108 2.087 . S
O107 C119 1.256 . S
Mn108 O107 2.087 . S
Mn108 O115 2.089 . S
Mn108 O124 2.290 1_554 S
Mn108 O125 2.251 1_554 S
O109 Mn106 2.160 . S
O109 C120 1.239 . S
O110 Mn106 2.221 . S
O110 Mn111 2.290 . S
O110 C121 1.278 . S
Mn111 O110 2.290 . S
Mn111 O113 2.089 . S
Mn111 O116 2.251 . S
Mn111 O117 2.087 . S
O112 Mn106 2.163 . S
O112 C122 1.244 . S
O113 Mn111 2.089 . S
O113 C120 1.256 . S
O114 Mn106 2.160 . S
O114 C123 1.239 1_556 S
O115 Mn108 2.089 . S
O115 C123 1.256 . S
O116 Mn111 2.251 . S
O116 C121 1.241 . S
O117 Mn111 2.087 . S
O117 C122 1.256 . S
C118 O124 1.278 . S
C118 O125 1.241 . S
C119 O105 1.244 1_554 S
C119 O107 1.256 . S
C120 O109 1.239 . S
C120 O113 1.256 . S
C121 O110 1.278 . S
C121 O116 1.241 . S
C122 O112 1.244 . S
C122 O117 1.256 . S
C123 O114 1.239 1_554 S
C123 O115 1.256 . S
O124 Mn106 2.221 . S
O124 Mn108 2.290 1_556 S
O124 C118 1.278 . S
O125 Mn108 2.251 1_556 S
O125 C118 1.241 . S
O126 Mn127 2.163 . S
O126 C140 1.244 . S
Mn127 O126 2.163 . S
Mn127 O130 2.160 . S
Mn127 O131 2.221 . S
Mn127 O133 2.163 . S
Mn127 O135 2.160 . S
Mn127 O145 2.221 . S
O128 Mn129 2.087 . S
O128 C140 1.256 . S
Mn129 O128 2.087 . S
Mn129 O136 2.089 . S
Mn129 O145 2.290 . S
Mn129 O146 2.251 . S
O130 Mn127 2.160 . S
O130 C141 1.239 . S
O131 Mn127 2.221 . S
O131 Mn132 2.290 . S
O131 C142 1.278 . S
Mn132 O131 2.290 . S
Mn132 O134 2.089 . S
Mn132 O137 2.251 . S
Mn132 O138 2.087 . S
O133 Mn127 2.163 . S
O133 C143 1.244 . S
O134 Mn132 2.089 . S
O134 C141 1.256 . S
O135 Mn127 2.160 . S
O135 C144 1.239 . S
O136 Mn129 2.089 . S
O136 C144 1.256 . S
O137 Mn132 2.251 . S
O137 C142 1.241 . S
O138 Mn132 2.087 . S
O138 C143 1.256 . S
C139 O145 1.278 . S
C139 O146 1.241 . S
C140 O126 1.244 . S
C140 O128 1.256 . S
C141 O130 1.239 . S
C141 O134 1.256 . S
C142 O131 1.278 . S
C142 O137 1.241 . S
C143 O133 1.244 . S
C143 O138 1.256 . S
C144 O135 1.239 . S
C144 O136 1.256 . S
O145 Mn127 2.221 . S
O145 Mn129 2.290 . S
O145 C139 1.278 . S
O146 Mn129 2.251 . S
O146 C139 1.241 . S
O147 Mn148 2.163 . S
O147 C161 1.244 . S
Mn148 O147 2.163 . S
Mn148 O151 2.160 . S
Mn148 O152 2.221 . S
Mn148 O154 2.163 . S
Mn148 O156 2.160 . S
Mn148 O166 2.221 . S
O149 Mn150 2.087 . S
O149 C161 1.256 . S
Mn150 O149 2.087 . S
Mn150 O157 2.089 . S
Mn150 O166 2.290 . S
Mn150 O167 2.251 . S
O151 Mn148 2.160 . S
O151 C162 1.239 . S
O152 Mn148 2.221 . S
O152 Mn153 2.290 . S
O152 C163 1.278 . S
Mn153 O152 2.290 . S
Mn153 O155 2.089 . S
Mn153 O158 2.251 . S
Mn153 O159 2.087 . S
O154 Mn148 2.163 . S
O154 C164 1.244 . S
O155 Mn153 2.089 . S
O155 C162 1.256 . S
O156 Mn148 2.160 . S
O156 C165 1.239 . S
O157 Mn150 2.089 . S
O157 C165 1.256 . S
O158 Mn153 2.251 . S
O158 C163 1.241 . S
O159 Mn153 2.087 . S
O159 C164 1.256 . S
C160 O166 1.278 . S
C160 O167 1.241 . S
C161 O147 1.244 . S
C161 O149 1.256 . S
C162 O151 1.239 . S
C162 O155 1.256 . S
C163 O152 1.278 . S
C163 O158 1.241 . S
C164 O154 1.244 . S
C164 O159 1.256 . S
C165 O156 1.239 . S
C165 O157 1.256 . S
O166 Mn148 2.221 . S
O166 Mn150 2.290 . S
O166 C160 1.278 . S
O167 Mn150 2.251 . S
O167 C160 1.241 . S
O168 Mn169 2.163 . S
O168 C182 1.244 1_554 S
Mn169 O168 2.163 . S
Mn169 O172 2.160 . S
Mn169 O173 2.221 . S
Mn169 O175 2.163 . S
Mn169 O177 2.160 . S
Mn169 O187 2.221 . S
O170 Mn171 2.087 . S
O170 C182 1.256 . S
Mn171 O170 2.087 . S
Mn171 O178 2.089 . S
Mn171 O187 2.290 1_556 S
Mn171 O188 2.251 1_556 S
O172 Mn169 2.160 . S
O172 C183 1.239 . S
O173 Mn169 2.221 . S
O173 Mn174 2.290 . S
O173 C184 1.278 . S
Mn174 O173 2.290 . S
Mn174 O176 2.089 . S
Mn174 O179 2.251 . S
Mn174 O180 2.087 . S
O175 Mn169 2.163 . S
O175 C185 1.244 . S
O176 Mn174 2.089 . S
O176 C183 1.256 . S
O177 Mn169 2.160 . S
O177 C186 1.239 1_554 S
O178 Mn171 2.089 . S
O178 C186 1.256 . S
O179 Mn174 2.251 . S
O179 C184 1.241 . S
O180 Mn174 2.087 . S
O180 C185 1.256 . S
C181 O187 1.278 . S
C181 O188 1.241 . S
C182 O168 1.244 1_556 S
C182 O170 1.256 . S
C183 O172 1.239 . S
C183 O176 1.256 . S
C184 O173 1.278 . S
C184 O179 1.241 . S
C185 O175 1.244 . S
C185 O180 1.256 . S
C186 O177 1.239 1_556 S
C186 O178 1.256 . S
O187 Mn169 2.221 . S
O187 Mn171 2.290 1_554 S
O187 C181 1.278 . S
O188 Mn171 2.251 1_554 S
O188 C181 1.241 . S
O189 Mn190 2.163 . S
O189 C203 1.244 . S
Mn190 O189 2.163 . S
Mn190 O193 2.160 . S
Mn190 O194 2.221 . S
Mn190 O196 2.163 . S
Mn190 O198 2.160 . S
Mn190 O208 2.221 . S
O191 Mn192 2.087 . S
O191 C203 1.256 . S
Mn192 O191 2.087 . S
Mn192 O199 2.089 . S
Mn192 O208 2.290 . S
Mn192 O209 2.251 . S
O193 Mn190 2.160 . S
O193 C204 1.239 . S
O194 Mn190 2.221 . S
O194 Mn195 2.290 . S
O194 C205 1.278 . S
Mn195 O194 2.290 . S
Mn195 O197 2.089 . S
Mn195 O200 2.251 . S
Mn195 O201 2.087 . S
O196 Mn190 2.163 . S
O196 C206 1.244 . S
O197 Mn195 2.089 . S
O197 C204 1.256 . S
O198 Mn190 2.160 . S
O198 C207 1.239 . S
O199 Mn192 2.089 . S
O199 C207 1.256 . S
O200 Mn195 2.251 . S
O200 C205 1.241 . S
O201 Mn195 2.087 . S
O201 C206 1.256 . S
C202 O208 1.278 . S
C202 O209 1.241 . S
C203 O189 1.244 . S
C203 O191 1.256 . S
C204 O193 1.239 . S
C204 O197 1.256 . S
C205 O194 1.278 . S
C205 O200 1.241 . S
C206 O196 1.244 . S
C206 O201 1.256 . S
C207 O198 1.239 . S
C207 O199 1.256 . S
O208 Mn190 2.221 . S
O208 Mn192 2.290 . S
O208 C202 1.278 . S
O209 Mn192 2.251 . S
O209 C202 1.241 . S
O210 Mn211 2.163 . S
O210 C224 1.244 . S
Mn211 O210 2.163 . S
Mn211 O214 2.160 . S
Mn211 O215 2.221 . S
Mn211 O217 2.163 . S
Mn211 O219 2.160 . S
Mn211 O229 2.221 . S
O212 Mn213 2.087 . S
O212 C224 1.256 . S
Mn213 O212 2.087 . S
Mn213 O220 2.089 . S
Mn213 O229 2.290 . S
Mn213 O230 2.251 . S
O214 Mn211 2.160 . S
O214 C225 1.239 . S
O215 Mn211 2.221 . S
O215 Mn216 2.290 . S
O215 C226 1.278 . S
Mn216 O215 2.290 . S
Mn216 O218 2.089 . S
Mn216 O221 2.251 . S
Mn216 O222 2.087 . S
O217 Mn211 2.163 . S
O217 C227 1.244 . S
O218 Mn216 2.089 . S
O218 C225 1.256 . S
O219 Mn211 2.160 . S
O219 C228 1.239 . S
O220 Mn213 2.089 . S
O220 C228 1.256 . S
O221 Mn216 2.251 . S
O221 C226 1.241 . S
O222 Mn216 2.087 . S
O222 C227 1.256 . S
C223 O229 1.278 . S
C223 O230 1.241 . S
C224 O210 1.244 . S
C224 O212 1.256 . S
C225 O214 1.239 . S
C225 O218 1.256 . S
C226 O215 1.278 . S
C226 O221 1.241 . S
C227 O217 1.244 . S
C227 O222 1.256 . S
C228 O219 1.239 . S
C228 O220 1.256 . S
O229 Mn211 2.221 . S
O229 Mn213 2.290 . S
O229 C223 1.278 . S
O230 Mn213 2.251 . S
O230 C223 1.241 . S
O231 Mn232 2.163 . S
O231 C245 1.244 1_554 S
Mn232 O231 2.163 . S
Mn232 O235 2.160 . S
Mn232 O236 2.221 . S
Mn232 O238 2.163 . S
Mn232 O240 2.160 . S
Mn232 O250 2.221 . S
O233 Mn234 2.087 . S
O233 C245 1.256 . S
Mn234 O233 2.087 . S
Mn234 O241 2.089 . S
Mn234 O250 2.290 1_556 S
Mn234 O251 2.251 1_556 S
O235 Mn232 2.160 . S
O235 C246 1.239 . S
O236 Mn232 2.221 . S
O236 Mn237 2.290 . S
O236 C247 1.278 . S
Mn237 O236 2.290 . S
Mn237 O239 2.089 . S
Mn237 O242 2.251 . S
Mn237 O243 2.087 . S
O238 Mn232 2.163 . S
O238 C248 1.244 . S
O239 Mn237 2.089 . S
O239 C246 1.256 . S
O240 Mn232 2.160 . S
O240 C249 1.239 1_554 S
O241 Mn234 2.089 . S
O241 C249 1.256 . S
O242 Mn237 2.251 . S
O242 C247 1.241 . S
O243 Mn237 2.087 . S
O243 C248 1.256 . S
C244 O250 1.278 . S
C244 O251 1.241 . S
C245 O231 1.244 1_556 S
C245 O233 1.256 . S
C246 O235 1.239 . S
C246 O239 1.256 . S
C247 O236 1.278 . S
C247 O242 1.241 . S
C248 O238 1.244 . S
C248 O243 1.256 . S
C249 O240 1.239 1_556 S
C249 O241 1.256 . S
O250 Mn232 2.221 . S
O250 Mn234 2.290 1_554 S
O250 C244 1.278 . S
O251 Mn234 2.251 1_554 S
O251 C244 1.241 . S
C252 C253 1.391 . S
C252 C254 1.394 . S
C252 H268 0.931 . S
C253 C252 1.391 . S
C253 C257 1.376 . S
C254 C252 1.394 . S
C254 C255 1.369 . S
C254 C258 1.531 . S
C255 C254 1.369 . S
C255 C256 1.410 . S
C255 C263 1.503 . S
C256 C255 1.410 . S
C256 C257 1.392 . S
C256 C259 1.511 . S
C257 C253 1.376 . S
C257 C256 1.392 . S
C257 H269 0.929 . S
C258 C254 1.531 . S
C258 H270 0.960 . S
C258 H271 0.962 . S
C258 H272 0.960 . S
C259 C256 1.511 . S
C259 H273 0.961 . S
C259 H274 0.961 . S
C259 H275 0.961 . S
C260 C261 1.370 . S
C260 C262 1.363 . S
C260 H276 0.931 . S
C261 C260 1.370 . S
C261 C265 1.408 . S
C262 C260 1.363 . S
C262 C263 1.370 . S
C262 C266 1.524 . S
C263 C255 1.503 . S
C263 C262 1.370 . S
C263 C264 1.403 . S
C264 C263 1.403 . S
C264 C265 1.404 . S
C264 C267 1.539 . S
C265 C261 1.408 . S
C265 C264 1.404 . S
C265 H277 0.930 . S
C266 C262 1.524 . S
C266 H278 0.956 . S
C266 H279 0.961 . S
C266 H280 0.961 . S
C267 C264 1.539 . S
C267 H281 0.958 . S
C267 H282 0.961 . S
C267 H283 0.960 . S
H268 C252 0.931 . S
H269 C257 0.929 . S
H270 C258 0.960 . S
H271 C258 0.962 . S
H272 C258 0.960 . S
H273 C259 0.961 . S
H274 C259 0.961 . S
H275 C259 0.961 . S
H276 C260 0.931 . S
H277 C265 0.930 . S
H278 C266 0.956 . S
H279 C266 0.961 . S
H280 C266 0.961 . S
H281 C267 0.958 . S
H282 C267 0.961 . S
H283 C267 0.960 . S
C284 C285 1.391 . S
C284 C286 1.394 . S
C284 H300 0.931 . S
C285 C284 1.391 . S
C285 C289 1.376 . S
C286 C284 1.394 . S
C286 C287 1.369 . S
C286 C290 1.531 . S
C287 C286 1.369 . S
C287 C288 1.410 . S
C287 C295 1.503 . S
C288 C287 1.410 . S
C288 C289 1.392 . S
C288 C291 1.511 . S
C289 C285 1.376 . S
C289 C288 1.392 . S
C289 H301 0.929 . S
C290 C286 1.531 . S
C290 H302 0.960 . S
C290 H303 0.962 . S
C290 H304 0.960 . S
C291 C288 1.511 . S
C291 H305 0.961 . S
C291 H306 0.961 . S
C291 H307 0.961 . S
C292 C293 1.370 . S
C292 C294 1.363 . S
C292 H308 0.931 . S
C293 C292 1.370 . S
C293 C297 1.408 . S
C294 C292 1.363 . S
C294 C295 1.370 . S
C294 C298 1.524 . S
C295 C287 1.503 . S
C295 C294 1.370 . S
C295 C296 1.403 . S
C296 C295 1.403 . S
C296 C297 1.404 . S
C296 C299 1.539 . S
C297 C293 1.408 . S
C297 C296 1.404 . S
C297 H309 0.930 . S
C298 C294 1.524 . S
C298 H310 0.956 . S
C298 H311 0.961 . S
C298 H312 0.961 . S
C299 C296 1.539 . S
C299 H313 0.958 . S
C299 H314 0.961 . S
C299 H315 0.960 . S
H300 C284 0.931 . S
H301 C289 0.929 . S
H302 C290 0.960 . S
H303 C290 0.962 . S
H304 C290 0.960 . S
H305 C291 0.961 . S
H306 C291 0.961 . S
H307 C291 0.961 . S
H308 C292 0.931 . S
H309 C297 0.930 . S
H310 C298 0.956 . S
H311 C298 0.961 . S
H312 C298 0.961 . S
H313 C299 0.958 . S
H314 C299 0.961 . S
H315 C299 0.960 . S
C316 C317 1.391 . S
C316 C318 1.394 . S
C316 H332 0.931 . S
C317 C316 1.391 . S
C317 C321 1.376 . S
C318 C316 1.394 . S
C318 C319 1.369 . S
C318 C322 1.531 . S
C319 C318 1.369 . S
C319 C320 1.410 . S
C319 C327 1.503 . S
C320 C319 1.410 . S
C320 C321 1.392 . S
C320 C323 1.511 . S
C321 C317 1.376 . S
C321 C320 1.392 . S
C321 H333 0.929 . S
C322 C318 1.531 . S
C322 H334 0.960 . S
C322 H335 0.962 . S
C322 H336 0.960 . S
C323 C320 1.511 . S
C323 H337 0.961 . S
C323 H338 0.961 . S
C323 H339 0.961 . S
C324 C325 1.370 . S
C324 C326 1.363 . S
C324 H340 0.931 . S
C325 C324 1.370 . S
C325 C329 1.408 . S
C326 C324 1.363 . S
C326 C327 1.370 . S
C326 C330 1.524 . S
C327 C319 1.503 . S
C327 C326 1.370 . S
C327 C328 1.403 . S
C328 C327 1.403 . S
C328 C329 1.404 . S
C328 C331 1.539 . S
C329 C325 1.408 . S
C329 C328 1.404 . S
C329 H341 0.930 . S
C330 C326 1.524 . S
C330 H342 0.956 . S
C330 H343 0.961 . S
C330 H344 0.961 . S
C331 C328 1.539 . S
C331 H345 0.958 . S
C331 H346 0.961 . S
C331 H347 0.960 . S
H332 C316 0.931 . S
H333 C321 0.929 . S
H334 C322 0.960 . S
H335 C322 0.962 . S
H336 C322 0.960 . S
H337 C323 0.961 . S
H338 C323 0.961 . S
H339 C323 0.961 . S
H340 C324 0.931 . S
H341 C329 0.930 . S
H342 C330 0.956 . S
H343 C330 0.961 . S
H344 C330 0.961 . S
H345 C331 0.958 . S
H346 C331 0.961 . S
H347 C331 0.960 . S
C348 C349 1.391 . S
C348 C350 1.394 . S
C348 H364 0.931 . S
C349 C348 1.391 . S
C349 C353 1.376 . S
C350 C348 1.394 . S
C350 C351 1.369 . S
C350 C354 1.531 . S
C351 C350 1.369 . S
C351 C352 1.410 . S
C351 C359 1.503 . S
C352 C351 1.410 . S
C352 C353 1.392 . S
C352 C355 1.511 . S
C353 C349 1.376 . S
C353 C352 1.392 . S
C353 H365 0.929 . S
C354 C350 1.531 . S
C354 H366 0.960 . S
C354 H367 0.962 . S
C354 H368 0.960 . S
C355 C352 1.511 . S
C355 H369 0.961 . S
C355 H370 0.961 . S
C355 H371 0.961 . S
C356 C357 1.370 . S
C356 C358 1.363 . S
C356 H372 0.931 . S
C357 C356 1.370 . S
C357 C361 1.408 . S
C358 C356 1.363 . S
C358 C359 1.370 . S
C358 C362 1.524 . S
C359 C351 1.503 . S
C359 C358 1.370 . S
C359 C360 1.403 . S
C360 C359 1.403 . S
C360 C361 1.404 . S
C360 C363 1.539 . S
C361 C357 1.408 . S
C361 C360 1.404 . S
C361 H373 0.930 . S
C362 C358 1.524 . S
C362 H374 0.956 . S
C362 H375 0.961 . S
C362 H376 0.961 . S
C363 C360 1.539 . S
C363 H377 0.958 . S
C363 H378 0.961 . S
C363 H379 0.960 . S
H364 C348 0.931 . S
H365 C353 0.929 . S
H366 C354 0.960 . S
H367 C354 0.962 . S
H368 C354 0.960 . S
H369 C355 0.961 . S
H370 C355 0.961 . S
H371 C355 0.961 . S
H372 C356 0.931 . S
H373 C361 0.930 . S
H374 C362 0.956 . S
H375 C362 0.961 . S
H376 C362 0.961 . S
H377 C363 0.958 . S
H378 C363 0.961 . S
H379 C363 0.960 . S
C380 C381 1.391 . S
C380 C382 1.394 . S
C380 H396 0.931 . S
C381 C380 1.391 . S
C381 C385 1.376 . S
C382 C380 1.394 . S
C382 C383 1.369 . S
C382 C386 1.531 . S
C383 C382 1.369 . S
C383 C384 1.410 . S
C383 C391 1.503 . S
C384 C383 1.410 . S
C384 C385 1.392 . S
C384 C387 1.511 . S
C385 C381 1.376 . S
C385 C384 1.392 . S
C385 H397 0.929 . S
C386 C382 1.531 . S
C386 H398 0.960 . S
C386 H399 0.962 . S
C386 H400 0.960 . S
C387 C384 1.511 . S
C387 H401 0.961 . S
C387 H402 0.961 . S
C387 H403 0.961 . S
C388 C389 1.370 . S
C388 C390 1.363 . S
C388 H404 0.931 . S
C389 C388 1.370 . S
C389 C393 1.408 . S
C390 C388 1.363 . S
C390 C391 1.370 . S
C390 C394 1.524 . S
C391 C383 1.503 . S
C391 C390 1.370 . S
C391 C392 1.403 . S
C392 C391 1.403 . S
C392 C393 1.404 . S
C392 C395 1.539 . S
C393 C389 1.408 . S
C393 C392 1.404 . S
C393 H405 0.930 . S
C394 C390 1.524 . S
C394 H406 0.956 . S
C394 H407 0.961 . S
C394 H408 0.961 . S
C395 C392 1.539 . S
C395 H409 0.958 . S
C395 H410 0.961 . S
C395 H411 0.960 . S
H396 C380 0.931 . S
H397 C385 0.929 . S
H398 C386 0.960 . S
H399 C386 0.962 . S
H400 C386 0.960 . S
H401 C387 0.961 . S
H402 C387 0.961 . S
H403 C387 0.961 . S
H404 C388 0.931 . S
H405 C393 0.930 . S
H406 C394 0.956 . S
H407 C394 0.961 . S
H408 C394 0.961 . S
H409 C395 0.958 . S
H410 C395 0.961 . S
H411 C395 0.960 . S
C412 C413 1.391 . S
C412 C414 1.394 . S
C412 H428 0.931 . S
C413 C412 1.391 . S
C413 C417 1.376 . S
C414 C412 1.394 . S
C414 C415 1.369 . S
C414 C418 1.531 . S
C415 C414 1.369 . S
C415 C416 1.410 . S
C415 C423 1.503 . S
C416 C415 1.410 . S
C416 C417 1.392 . S
C416 C419 1.511 . S
C417 C413 1.376 . S
C417 C416 1.392 . S
C417 H429 0.929 . S
C418 C414 1.531 . S
C418 H430 0.960 . S
C418 H431 0.962 . S
C418 H432 0.960 . S
C419 C416 1.511 . S
C419 H433 0.961 . S
C419 H434 0.961 . S
C419 H435 0.961 . S
C420 C421 1.370 . S
C420 C422 1.363 . S
C420 H436 0.931 . S
C421 C420 1.370 . S
C421 C425 1.408 . S
C422 C420 1.363 . S
C422 C423 1.370 . S
C422 C426 1.524 . S
C423 C415 1.503 . S
C423 C422 1.370 . S
C423 C424 1.403 . S
C424 C423 1.403 . S
C424 C425 1.404 . S
C424 C427 1.539 . S
C425 C421 1.408 . S
C425 C424 1.404 . S
C425 H437 0.930 . S
C426 C422 1.524 . S
C426 H438 0.956 . S
C426 H439 0.961 . S
C426 H440 0.961 . S
C427 C424 1.539 . S
C427 H441 0.958 . S
C427 H442 0.961 . S
C427 H443 0.960 . S
H428 C412 0.931 . S
H429 C417 0.929 . S
H430 C418 0.960 . S
H431 C418 0.962 . S
H432 C418 0.960 . S
H433 C419 0.961 . S
H434 C419 0.961 . S
H435 C419 0.961 . S
H436 C420 0.931 . S
H437 C425 0.930 . S
H438 C426 0.956 . S
H439 C426 0.961 . S
H440 C426 0.961 . S
H441 C427 0.958 . S
H442 C427 0.961 . S
H443 C427 0.960 . S
C444 C445 1.391 . S
C444 C446 1.394 . S
C444 H460 0.931 . S
C445 C444 1.391 . S
C445 C449 1.376 . S
C446 C444 1.394 . S
C446 C447 1.369 . S
C446 C450 1.531 1_556 S
C447 C446 1.369 . S
C447 C448 1.410 . S
C447 C455 1.503 1_556 S
C448 C447 1.410 . S
C448 C449 1.392 . S
C448 C451 1.511 . S
C449 C445 1.376 . S
C449 C448 1.392 . S
C449 H461 0.929 . S
C450 C446 1.531 1_554 S
C450 H462 0.960 . S
C450 H463 0.962 . S
C450 H464 0.960 . S
C451 C448 1.511 . S
C451 H465 0.961 . S
C451 H466 0.961 . S
C451 H467 0.961 . S
C452 C453 1.370 . S
C452 C454 1.363 . S
C452 H468 0.931 . S
C453 C452 1.370 . S
C453 C457 1.408 . S
C454 C452 1.363 . S
C454 C455 1.370 . S
C454 C458 1.524 . S
C455 C447 1.503 1_554 S
C455 C454 1.370 . S
C455 C456 1.403 . S
C456 C455 1.403 . S
C456 C457 1.404 . S
C456 C459 1.539 . S
C457 C453 1.408 . S
C457 C456 1.404 . S
C457 H469 0.930 . S
C458 C454 1.524 . S
C458 H470 0.956 . S
C458 H471 0.961 1_554 S
C458 H472 0.961 . S
C459 C456 1.539 . S
C459 H473 0.958 . S
C459 H474 0.961 . S
C459 H475 0.960 1_554 S
H460 C444 0.931 . S
H461 C449 0.929 . S
H462 C450 0.960 . S
H463 C450 0.962 . S
H464 C450 0.960 . S
H465 C451 0.961 . S
H466 C451 0.961 . S
H467 C451 0.961 . S
H468 C452 0.931 . S
H469 C457 0.930 . S
H470 C458 0.956 . S
H471 C458 0.961 1_556 S
H472 C458 0.961 . S
H473 C459 0.958 . S
H474 C459 0.961 . S
H475 C459 0.960 1_556 S
C476 C477 1.391 . S
C476 C478 1.394 . S
C476 H492 0.931 . S
C477 C476 1.391 . S
C477 C481 1.376 . S
C478 C476 1.394 . S
C478 C479 1.369 . S
C478 C482 1.531 . S
C479 C478 1.369 . S
C479 C480 1.410 . S
C479 C487 1.503 . S
C480 C479 1.410 . S
C480 C481 1.392 . S
C480 C483 1.511 . S
C481 C477 1.376 . S
C481 C480 1.392 . S
C481 H493 0.929 . S
C482 C478 1.531 . S
C482 H494 0.960 . S
C482 H495 0.962 . S
C482 H496 0.960 . S
C483 C480 1.511 . S
C483 H497 0.961 . S
C483 H498 0.961 . S
C483 H499 0.961 . S
C484 C485 1.370 . S
C484 C486 1.363 . S
C484 H500 0.931 . S
C485 C484 1.370 . S
C485 C489 1.408 . S
C486 C484 1.363 . S
C486 C487 1.370 . S
C486 C490 1.524 . S
C487 C479 1.503 . S
C487 C486 1.370 . S
C487 C488 1.403 . S
C488 C487 1.403 . S
C488 C489 1.404 . S
C488 C491 1.539 . S
C489 C485 1.408 . S
C489 C488 1.404 . S
C489 H501 0.930 . S
C490 C486 1.524 . S
C490 H502 0.956 . S
C490 H503 0.961 . S
C490 H504 0.961 . S
C491 C488 1.539 . S
C491 H505 0.958 . S
C491 H506 0.961 . S
C491 H507 0.960 . S
H492 C476 0.931 . S
H493 C481 0.929 . S
H494 C482 0.960 . S
H495 C482 0.962 . S
H496 C482 0.960 . S
H497 C483 0.961 . S
H498 C483 0.961 . S
H499 C483 0.961 . S
H500 C484 0.931 . S
H501 C489 0.930 . S
H502 C490 0.956 . S
H503 C490 0.961 . S
H504 C490 0.961 . S
H505 C491 0.958 . S
H506 C491 0.961 . S
H507 C491 0.960 . S
C508 C509 1.391 . S
C508 C510 1.394 . S
C508 H524 0.931 . S
C509 C508 1.391 . S
C509 C513 1.376 . S
C510 C508 1.394 . S
C510 C511 1.369 . S
C510 C514 1.531 . S
C511 C510 1.369 . S
C511 C512 1.410 . S
C511 C519 1.503 . S
C512 C511 1.410 . S
C512 C513 1.392 . S
C512 C515 1.511 . S
C513 C509 1.376 . S
C513 C512 1.392 . S
C513 H525 0.929 . S
C514 C510 1.531 . S
C514 H526 0.960 . S
C514 H527 0.962 . S
C514 H528 0.960 . S
C515 C512 1.511 . S
C515 H529 0.961 . S
C515 H530 0.961 . S
C515 H531 0.961 . S
C516 C517 1.370 . S
C516 C518 1.363 . S
C516 H532 0.931 . S
C517 C516 1.370 . S
C517 C521 1.408 . S
C518 C516 1.363 . S
C518 C519 1.370 . S
C518 C522 1.524 . S
C519 C511 1.503 . S
C519 C518 1.370 . S
C519 C520 1.403 . S
C520 C519 1.403 . S
C520 C521 1.404 . S
C520 C523 1.539 . S
C521 C517 1.408 . S
C521 C520 1.404 . S
C521 H533 0.930 . S
C522 C518 1.524 . S
C522 H534 0.956 . S
C522 H535 0.961 . S
C522 H536 0.961 . S
C523 C520 1.539 . S
C523 H537 0.958 . S
C523 H538 0.961 . S
C523 H539 0.960 . S
H524 C508 0.931 . S
H525 C513 0.929 . S
H526 C514 0.960 . S
H527 C514 0.962 . S
H528 C514 0.960 . S
H529 C515 0.961 . S
H530 C515 0.961 . S
H531 C515 0.961 . S
H532 C516 0.931 . S
H533 C521 0.930 . S
H534 C522 0.956 . S
H535 C522 0.961 . S
H536 C522 0.961 . S
H537 C523 0.958 . S
H538 C523 0.961 . S
H539 C523 0.960 . S
C540 C541 1.391 . S
C540 C542 1.394 . S
C540 H556 0.931 . S
C541 C540 1.391 . S
C541 C545 1.376 . S
C542 C540 1.394 . S
C542 C543 1.369 . S
C542 C546 1.531 1_556 S
C543 C542 1.369 . S
C543 C544 1.410 . S
C543 C551 1.503 1_556 S
C544 C543 1.410 . S
C544 C545 1.392 . S
C544 C547 1.511 . S
C545 C541 1.376 . S
C545 C544 1.392 . S
C545 H557 0.929 . S
C546 C542 1.531 1_554 S
C546 H558 0.960 . S
C546 H559 0.962 . S
C546 H560 0.960 . S
C547 C544 1.511 . S
C547 H561 0.961 . S
C547 H562 0.961 . S
C547 H563 0.961 . S
C548 C549 1.370 . S
C548 C550 1.363 . S
C548 H564 0.931 . S
C549 C548 1.370 . S
C549 C553 1.408 . S
C550 C548 1.363 . S
C550 C551 1.370 . S
C550 C554 1.524 1_554 S
C551 C543 1.503 1_554 S
C551 C550 1.370 . S
C551 C552 1.403 . S
C552 C551 1.403 . S
C552 C553 1.404 . S
C552 C555 1.539 . S
C553 C549 1.408 . S
C553 C552 1.404 . S
C553 H565 0.930 . S
C554 C550 1.524 1_556 S
C554 H566 0.956 . S
C554 H567 0.961 . S
C554 H568 0.961 . S
C555 C552 1.539 . S
C555 H569 0.958 . S
C555 H570 0.961 . S
C555 H571 0.960 . S
H556 C540 0.931 . S
H557 C545 0.929 . S
H558 C546 0.960 . S
H559 C546 0.962 . S
H560 C546 0.960 . S
H561 C547 0.961 . S
H562 C547 0.961 . S
H563 C547 0.961 . S
H564 C548 0.931 . S
H565 C553 0.930 . S
H566 C554 0.956 . S
H567 C554 0.961 . S
H568 C554 0.961 . S
H569 C555 0.958 . S
H570 C555 0.961 . S
H571 C555 0.960 . S
C572 C573 1.391 . S
C572 C574 1.394 . S
C572 H588 0.931 . S
C573 C572 1.391 . S
C573 C577 1.376 . S
C574 C572 1.394 . S
C574 C575 1.369 . S
C574 C578 1.531 . S
C575 C574 1.369 . S
C575 C576 1.410 . S
C575 C583 1.503 . S
C576 C575 1.410 . S
C576 C577 1.392 . S
C576 C579 1.511 . S
C577 C573 1.376 . S
C577 C576 1.392 . S
C577 H589 0.929 . S
C578 C574 1.531 . S
C578 H590 0.960 . S
C578 H591 0.962 . S
C578 H592 0.960 . S
C579 C576 1.511 . S
C579 H593 0.961 . S
C579 H594 0.961 . S
C579 H595 0.961 . S
C580 C581 1.370 . S
C580 C582 1.363 . S
C580 H596 0.931 . S
C581 C580 1.370 . S
C581 C585 1.408 . S
C582 C580 1.363 . S
C582 C583 1.370 . S
C582 C586 1.524 . S
C583 C575 1.503 . S
C583 C582 1.370 . S
C583 C584 1.403 . S
C584 C583 1.403 . S
C584 C585 1.404 . S
C584 C587 1.539 . S
C585 C581 1.408 . S
C585 C584 1.404 . S
C585 H597 0.930 . S
C586 C582 1.524 . S
C586 H598 0.956 . S
C586 H599 0.961 . S
C586 H600 0.961 . S
C587 C584 1.539 . S
C587 H601 0.958 . S
C587 H602 0.961 . S
C587 H603 0.960 . S
H588 C572 0.931 . S
H589 C577 0.929 . S
H590 C578 0.960 . S
H591 C578 0.962 . S
H592 C578 0.960 . S
H593 C579 0.961 . S
H594 C579 0.961 . S
H595 C579 0.961 . S
H596 C580 0.931 . S
H597 C585 0.930 . S
H598 C586 0.956 . S
H599 C586 0.961 . S
H600 C586 0.961 . S
H601 C587 0.958 . S
H602 C587 0.961 . S
H603 C587 0.960 . S
C604 C605 1.391 . S
C604 C606 1.394 . S
C604 H620 0.931 . S
C605 C604 1.391 . S
C605 C609 1.376 . S
C606 C604 1.394 . S
C606 C607 1.369 . S
C606 C610 1.531 . S
C607 C606 1.369 . S
C607 C608 1.410 . S
C607 C615 1.503 . S
C608 C607 1.410 . S
C608 C609 1.392 . S
C608 C611 1.511 . S
C609 C605 1.376 . S
C609 C608 1.392 . S
C609 H621 0.929 . S
C610 C606 1.531 . S
C610 H622 0.960 . S
C610 H623 0.962 . S
C610 H624 0.960 . S
C611 C608 1.511 . S
C611 H625 0.961 . S
C611 H626 0.961 . S
C611 H627 0.961 . S
C612 C613 1.370 . S
C612 C614 1.363 . S
C612 H628 0.931 . S
C613 C612 1.370 . S
C613 C617 1.408 . S
C614 C612 1.363 . S
C614 C615 1.370 . S
C614 C618 1.524 . S
C615 C607 1.503 . S
C615 C614 1.370 . S
C615 C616 1.403 . S
C616 C615 1.403 . S
C616 C617 1.404 . S
C616 C619 1.539 . S
C617 C613 1.408 . S
C617 C616 1.404 . S
C617 H629 0.930 . S
C618 C614 1.524 . S
C618 H630 0.956 . S
C618 H631 0.961 . S
C618 H632 0.961 . S
C619 C616 1.539 . S
C619 H633 0.958 . S
C619 H634 0.961 . S
C619 H635 0.960 . S
H620 C604 0.931 . S
H621 C609 0.929 . S
H622 C610 0.960 . S
H623 C610 0.962 . S
H624 C610 0.960 . S
H625 C611 0.961 . S
H626 C611 0.961 . S
H627 C611 0.961 . S
H628 C612 0.931 . S
H629 C617 0.930 . S
H630 C618 0.956 . S
H631 C618 0.961 . S
H632 C618 0.961 . S
H633 C619 0.958 . S
H634 C619 0.961 . S
H635 C619 0.960 . S
C636 C637 1.391 . S
C636 C638 1.394 . S
C636 H652 0.931 . S
C637 C636 1.391 . S
C637 C641 1.376 . S
C638 C636 1.394 . S
C638 C639 1.369 . S
C638 C642 1.531 1_556 S
C639 C638 1.369 . S
C639 C640 1.410 . S
C639 C647 1.503 1_566 S
C640 C639 1.410 . S
C640 C641 1.392 . S
C640 C643 1.511 1_565 S
C641 C637 1.376 . S
C641 C640 1.392 . S
C641 H653 0.929 . S
C642 C638 1.531 1_554 S
C642 H654 0.960 . S
C642 H655 0.961 1_554 S
C642 H656 0.960 . S
C643 C640 1.511 1_545 S
C643 H657 0.961 . S
C643 H658 0.961 . S
C643 H659 0.961 1_545 S
C644 C645 1.370 . S
C644 C646 1.363 . S
C644 H660 0.931 . S
C645 C644 1.370 . S
C645 C649 1.408 . S
C646 C644 1.363 . S
C646 C647 1.370 . S
C646 C650 1.524 1_554 S
C647 C639 1.503 1_544 S
C647 C646 1.370 . S
C647 C648 1.403 1_545 S
C648 C647 1.403 1_565 S
C648 C649 1.404 1_565 S
C648 C651 1.539 . S
C649 C645 1.408 . S
C649 C648 1.404 1_545 S
C649 H661 0.930 . S
C650 C646 1.524 1_556 S
C650 H662 0.956 . S
C650 H663 0.961 . S
C650 H664 0.961 . S
C651 C648 1.539 . S
C651 H665 0.958 . S
C651 H666 0.961 . S
C651 H667 0.960 . S
H652 C636 0.931 . S
H653 C641 0.929 . S
H654 C642 0.960 . S
H655 C642 0.961 1_556 S
H656 C642 0.960 . S
H657 C643 0.961 . S
H658 C643 0.961 . S
H659 C643 0.961 1_565 S
H660 C644 0.931 . S
H661 C649 0.930 . S
H662 C650 0.956 . S
H663 C650 0.961 . S
H664 C650 0.961 . S
H665 C651 0.958 . S
H666 C651 0.961 . S
H667 C651 0.960 . S
C668 C669 1.391 . S
C668 C670 1.394 . S
C668 H684 0.931 . S
C669 C668 1.391 . S
C669 C673 1.376 . S
C670 C668 1.394 . S
C670 C671 1.369 . S
C670 C674 1.531 . S
C671 C670 1.369 . S
C671 C672 1.410 . S
C671 C679 1.503 . S
C672 C671 1.410 . S
C672 C673 1.392 . S
C672 C675 1.511 . S
C673 C669 1.376 . S
C673 C672 1.392 . S
C673 H685 0.929 . S
C674 C670 1.531 . S
C674 H686 0.960 . S
C674 H687 0.962 . S
C674 H688 0.960 . S
C675 C672 1.511 . S
C675 H689 0.961 . S
C675 H690 0.961 . S
C675 H691 0.961 . S
C676 C677 1.370 . S
C676 C678 1.363 . S
C676 H692 0.931 . S
C677 C676 1.370 . S
C677 C681 1.408 . S
C678 C676 1.363 . S
C678 C679 1.370 . S
C678 C682 1.524 . S
C679 C671 1.503 . S
C679 C678 1.370 . S
C679 C680 1.403 . S
C680 C679 1.403 . S
C680 C681 1.404 . S
C680 C683 1.539 . S
C681 C677 1.408 . S
C681 C680 1.404 . S
C681 H693 0.930 . S
C682 C678 1.524 . S
C682 H694 0.956 . S
C682 H695 0.961 . S
C682 H696 0.961 . S
C683 C680 1.539 . S
C683 H697 0.958 . S
C683 H698 0.961 . S
C683 H699 0.960 . S
H684 C668 0.931 . S
H685 C673 0.929 . S
H686 C674 0.960 . S
H687 C674 0.962 . S
H688 C674 0.960 . S
H689 C675 0.961 . S
H690 C675 0.961 . S
H691 C675 0.961 . S
H692 C676 0.931 . S
H693 C681 0.930 . S
H694 C682 0.956 . S
H695 C682 0.961 . S
H696 C682 0.961 . S
H697 C683 0.958 . S
H698 C683 0.961 . S
H699 C683 0.960 . S
C700 C701 1.391 . S
C700 C702 1.394 . S
C700 H716 0.931 . S
C701 C700 1.391 . S
C701 C705 1.376 . S
C702 C700 1.394 . S
C702 C703 1.369 . S
C702 C706 1.531 . S
C703 C702 1.369 . S
C703 C704 1.410 . S
C703 C711 1.503 1_455 S
C704 C703 1.410 . S
C704 C705 1.392 . S
C704 C707 1.511 1_455 S
C705 C701 1.376 . S
C705 C704 1.392 . S
C705 H717 0.929 . S
C706 C702 1.531 . S
C706 H718 0.960 . S
C706 H719 0.962 . S
C706 H720 0.960 . S
C707 C704 1.511 1_655 S
C707 H721 0.961 . S
C707 H722 0.961 . S
C707 H723 0.961 . S
C708 C709 1.370 . S
C708 C710 1.363 . S
C708 H724 0.931 . S
C709 C708 1.370 . S
C709 C713 1.408 . S
C710 C708 1.363 . S
C710 C711 1.370 . S
C710 C714 1.524 . S
C711 C703 1.503 1_655 S
C711 C710 1.370 . S
C711 C712 1.403 . S
C712 C711 1.403 . S
C712 C713 1.404 . S
C712 C715 1.539 1_655 S
C713 C709 1.408 . S
C713 C712 1.404 . S
C713 H725 0.930 . S
C714 C710 1.524 . S
C714 H726 0.956 . S
C714 H727 0.961 . S
C714 H728 0.961 . S
C715 C712 1.539 1_455 S
C715 H729 0.958 . S
C715 H730 0.961 . S
C715 H731 0.960 . S
H716 C700 0.931 . S
H717 C705 0.929 . S
H718 C706 0.960 . S
H719 C706 0.962 . S
H720 C706 0.960 . S
H721 C707 0.961 . S
H722 C707 0.961 . S
H723 C707 0.961 . S
H724 C708 0.931 . S
H725 C713 0.930 . S
H726 C714 0.956 . S
H727 C714 0.961 . S
H728 C714 0.961 . S
H729 C715 0.958 . S
H730 C715 0.961 . S
H731 C715 0.960 . S
C732 C733 1.391 . S
C732 C734 1.394 . S
C732 H748 0.931 . S
C733 C732 1.391 . S
C733 C737 1.376 . S
C734 C732 1.394 . S
C734 C735 1.369 . S
C734 C738 1.531 1_554 S
C735 C734 1.369 . S
C735 C736 1.410 1_565 S
C735 C743 1.503 1_564 S
C736 C735 1.410 1_545 S
C736 C737 1.392 1_545 S
C736 C739 1.511 . S
C737 C733 1.376 . S
C737 C736 1.392 1_565 S
C737 H749 0.929 . S
C738 C734 1.531 1_556 S
C738 H750 0.960 . S
C738 H751 0.962 . S
C738 H752 0.960 . S
C739 C736 1.511 . S
C739 H753 0.961 . S
C739 H754 0.961 . S
C739 H755 0.961 . S
C740 C741 1.370 . S
C740 C742 1.363 . S
C740 H756 0.931 . S
C741 C740 1.370 . S
C741 C745 1.408 . S
C742 C740 1.363 . S
C742 C743 1.370 . S
C742 C746 1.524 1_545 S
C743 C735 1.503 1_546 S
C743 C742 1.370 . S
C743 C744 1.403 . S
C744 C743 1.403 . S
C744 C745 1.404 . S
C744 C747 1.539 1_556 S
C745 C741 1.408 . S
C745 C744 1.404 . S
C745 H757 0.930 . S
C746 C742 1.524 1_565 S
C746 H758 0.956 . S
C746 H759 0.961 . S
C746 H760 0.961 . S
C747 C744 1.539 1_554 S
C747 H761 0.958 . S
C747 H762 0.961 . S
C747 H763 0.960 . S
H748 C732 0.931 . S
H749 C737 0.929 . S
H750 C738 0.960 . S
H751 C738 0.962 . S
H752 C738 0.960 . S
H753 C739 0.961 . S
H754 C739 0.961 . S
H755 C739 0.961 . S
H756 C740 0.931 . S
H757 C745 0.930 . S
H758 C746 0.956 . S
H759 C746 0.961 . S
H760 C746 0.961 . S
H761 C747 0.958 . S
H762 C747 0.961 . S
H763 C747 0.960 . S
C764 C765 1.391 . S
C764 C766 1.394 . S
C764 H780 0.931 . S
C765 C764 1.391 . S
C765 C769 1.376 . S
C766 C764 1.394 . S
C766 C767 1.369 . S
C766 C770 1.531 . S
C767 C766 1.369 . S
C767 C768 1.410 . S
C767 C775 1.503 . S
C768 C767 1.410 . S
C768 C769 1.392 . S
C768 C771 1.511 . S
C769 C765 1.376 . S
C769 C768 1.392 . S
C769 H781 0.929 . S
C770 C766 1.531 . S
C770 H782 0.960 . S
C770 H783 0.962 . S
C770 H784 0.960 . S
C771 C768 1.511 . S
C771 H785 0.961 . S
C771 H786 0.961 . S
C771 H787 0.961 . S
C772 C773 1.370 . S
C772 C774 1.363 . S
C772 H788 0.931 . S
C773 C772 1.370 . S
C773 C777 1.408 . S
C774 C772 1.363 . S
C774 C775 1.370 . S
C774 C778 1.524 . S
C775 C767 1.503 . S
C775 C774 1.370 . S
C775 C776 1.403 . S
C776 C775 1.403 . S
C776 C777 1.404 . S
C776 C779 1.539 . S
C777 C773 1.408 . S
C777 C776 1.404 . S
C777 H789 0.930 . S
C778 C774 1.524 . S
C778 H790 0.956 . S
C778 H791 0.961 . S
C778 H792 0.961 . S
C779 C776 1.539 . S
C779 H793 0.958 . S
C779 H794 0.961 . S
C779 H795 0.960 . S
H780 C764 0.931 . S
H781 C769 0.929 . S
H782 C770 0.960 . S
H783 C770 0.962 . S
H784 C770 0.960 . S
H785 C771 0.961 . S
H786 C771 0.961 . S
H787 C771 0.961 . S
H788 C772 0.931 . S
H789 C777 0.930 . S
H790 C778 0.956 . S
H791 C778 0.961 . S
H792 C778 0.961 . S
H793 C779 0.958 . S
H794 C779 0.961 . S
H795 C779 0.960 . S
C796 C797 1.391 . S
C796 C798 1.394 . S
C796 H812 0.931 . S
C797 C796 1.391 . S
C797 C801 1.376 . S
C798 C796 1.394 . S
C798 C799 1.369 . S
C798 C802 1.531 . S
C799 C798 1.369 . S
C799 C800 1.410 . S
C799 C807 1.503 1_455 S
C800 C799 1.410 . S
C800 C801 1.392 . S
C800 C803 1.511 . S
C801 C797 1.376 . S
C801 C800 1.392 . S
C801 H813 0.929 . S
C802 C798 1.531 . S
C802 H814 0.960 . S
C802 H815 0.962 1_455 S
C802 H816 0.960 . S
C803 C800 1.511 . S
C803 H817 0.961 . S
C803 H818 0.959 . S
C803 H819 0.961 . S
C804 C805 1.370 . S
C804 C806 1.363 . S
C804 H820 0.931 . S
C805 C804 1.370 . S
C805 C809 1.408 . S
C806 C804 1.363 . S
C806 C807 1.370 . S
C806 C810 1.524 . S
C807 C799 1.503 1_655 S
C807 C806 1.370 . S
C807 C808 1.403 1_655 S
C808 C807 1.403 1_455 S
C808 C809 1.404 1_455 S
C808 C811 1.539 . S
C809 C805 1.408 . S
C809 C808 1.404 1_655 S
C809 H821 0.930 . S
C810 C806 1.524 . S
C810 H822 0.956 . S
C810 H823 0.961 . S
C810 H824 0.961 . S
C811 C808 1.539 . S
C811 H825 0.958 . S
C811 H826 0.961 . S
C811 H827 0.960 . S
H812 C796 0.931 . S
H813 C801 0.929 . S
H814 C802 0.960 . S
H815 C802 0.962 1_655 S
H816 C802 0.960 . S
H817 C803 0.961 . S
H818 C803 0.959 . S
H819 C803 0.961 . S
H820 C804 0.931 . S
H821 C809 0.930 . S
H822 C810 0.956 . S
H823 C810 0.961 . S
H824 C810 0.961 . S
H825 C811 0.958 . S
H826 C811 0.961 . S
H827 C811 0.960 . S
C828 C829 1.391 . S
C828 C830 1.394 . S
C828 H844 0.931 . S
C829 C828 1.391 . S
C829 C833 1.376 . S
C830 C828 1.394 . S
C830 C831 1.369 . S
C830 C834 1.531 . S
C831 C830 1.369 . S
C831 C832 1.410 . S
C831 C839 1.503 1_545 S
C832 C831 1.410 . S
C832 C833 1.392 . S
C832 C835 1.511 1_545 S
C833 C829 1.376 . S
C833 C832 1.392 . S
C833 H845 0.929 . S
C834 C830 1.531 . S
C834 H846 0.960 . S
C834 H847 0.962 . S
C834 H848 0.960 . S
C835 C832 1.511 1_565 S
C835 H849 0.961 . S
C835 H850 0.961 . S
C835 H851 0.961 . S
C836 C837 1.370 . S
C836 C838 1.363 . S
C836 H852 0.931 . S
C837 C836 1.370 . S
C837 C841 1.408 . S
C838 C836 1.363 . S
C838 C839 1.370 . S
C838 C842 1.524 1_565 S
C839 C831 1.503 1_565 S
C839 C838 1.370 . S
C839 C840 1.403 . S
C840 C839 1.403 . S
C840 C841 1.404 . S
C840 C843 1.539 . S
C841 C837 1.408 . S
C841 C840 1.404 . S
C841 H853 0.930 . S
C842 C838 1.524 1_545 S
C842 H854 0.956 . S
C842 H855 0.961 . S
C842 H856 0.961 . S
C843 C840 1.539 . S
C843 H857 0.958 . S
C843 H858 0.961 . S
C843 H859 0.960 . S
H844 C828 0.931 . S
H845 C833 0.929 . S
H846 C834 0.960 . S
H847 C834 0.962 . S
H848 C834 0.960 . S
H849 C835 0.961 . S
H850 C835 0.961 . S
H851 C835 0.961 . S
H852 C836 0.931 . S
H853 C841 0.930 . S
H854 C842 0.956 . S
H855 C842 0.961 . S
H856 C842 0.961 . S
H857 C843 0.958 . S
H858 C843 0.961 . S
H859 C843 0.960 . S
C860 C861 1.391 . S
C860 C862 1.394 . S
C860 H876 0.931 . S
C861 C860 1.391 . S
C861 C865 1.376 . S
C862 C860 1.394 . S
C862 C863 1.369 . S
C862 C866 1.531 . S
C863 C862 1.369 . S
C863 C864 1.410 . S
C863 C871 1.503 . S
C864 C863 1.410 . S
C864 C865 1.392 . S
C864 C867 1.511 . S
C865 C861 1.376 . S
C865 C864 1.392 . S
C865 H877 0.929 . S
C866 C862 1.531 . S
C866 H878 0.960 . S
C866 H879 0.962 . S
C866 H880 0.960 . S
C867 C864 1.511 . S
C867 H881 0.961 . S
C867 H882 0.961 . S
C867 H883 0.961 . S
C868 C869 1.370 . S
C868 C870 1.363 . S
C868 H884 0.931 . S
C869 C868 1.370 . S
C869 C873 1.408 . S
C870 C868 1.363 . S
C870 C871 1.370 . S
C870 C874 1.524 . S
C871 C863 1.503 . S
C871 C870 1.370 . S
C871 C872 1.403 . S
C872 C871 1.403 . S
C872 C873 1.404 . S
C872 C875 1.539 . S
C873 C869 1.408 . S
C873 C872 1.404 . S
C873 H885 0.930 . S
C874 C870 1.524 . S
C874 H886 0.956 . S
C874 H887 0.961 . S
C874 H888 0.961 . S
C875 C872 1.539 . S
C875 H889 0.958 . S
C875 H890 0.961 . S
C875 H891 0.960 . S
H876 C860 0.931 . S
H877 C865 0.929 . S
H878 C866 0.960 . S
H879 C866 0.962 . S
H880 C866 0.960 . S
H881 C867 0.961 . S
H882 C867 0.961 . S
H883 C867 0.961 . S
H884 C868 0.931 . S
H885 C873 0.930 . S
H886 C874 0.956 . S
H887 C874 0.961 . S
H888 C874 0.961 . S
H889 C875 0.958 . S
H890 C875 0.961 . S
H891 C875 0.960 . S
C892 C893 1.391 . S
C892 C894 1.394 . S
C892 H908 0.931 . S
C893 C892 1.391 . S
C893 C897 1.376 . S
C894 C892 1.394 . S
C894 C895 1.369 . S
C894 C898 1.531 1_655 S
C895 C894 1.369 . S
C895 C896 1.410 . S
C895 C903 1.503 1_655 S
C896 C895 1.410 . S
C896 C897 1.392 . S
C896 C899 1.511 1_556 S
C897 C893 1.376 . S
C897 C896 1.392 . S
C897 H909 0.929 1_556 S
C898 C894 1.531 1_455 S
C898 H910 0.960 . S
C898 H911 0.962 . S
C898 H912 0.960 . S
C899 C896 1.511 1_554 S
C899 H913 0.961 . S
C899 H914 0.961 . S
C899 H915 0.961 1_554 S
C900 C901 1.370 . S
C900 C902 1.363 . S
C900 H916 0.931 . S
C901 C900 1.370 . S
C901 C905 1.408 . S
C902 C900 1.363 . S
C902 C903 1.370 . S
C902 C906 1.524 1_556 S
C903 C895 1.503 1_455 S
C903 C902 1.370 . S
C903 C904 1.403 . S
C904 C903 1.403 . S
C904 C905 1.404 . S
C904 C907 1.539 1_455 S
C905 C901 1.408 . S
C905 C904 1.404 . S
C905 H917 0.930 . S
C906 C902 1.524 1_554 S
C906 H918 0.956 1_554 S
C906 H919 0.961 . S
C906 H920 0.961 . S
C907 C904 1.539 1_655 S
C907 H921 0.958 . S
C907 H922 0.961 . S
C907 H923 0.960 . S
H908 C892 0.931 . S
H909 C897 0.929 1_554 S
H910 C898 0.960 . S
H911 C898 0.962 . S
H912 C898 0.960 . S
H913 C899 0.961 . S
H914 C899 0.961 . S
H915 C899 0.961 1_556 S
H916 C900 0.931 . S
H917 C905 0.930 . S
H918 C906 0.956 1_556 S
H919 C906 0.961 . S
H920 C906 0.961 . S
H921 C907 0.958 . S
H922 C907 0.961 . S
H923 C907 0.960 . S
C924 C925 1.391 . S
C924 C926 1.394 . S
C924 H940 0.931 . S
C925 C924 1.391 . S
C925 C929 1.376 . S
C926 C924 1.394 . S
C926 C927 1.369 . S
C926 C930 1.531 1_455 S
C927 C926 1.369 . S
C927 C928 1.410 . S
C927 C935 1.503 1_455 S
C928 C927 1.410 . S
C928 C929 1.392 . S
C928 C931 1.511 . S
C929 C925 1.376 . S
C929 C928 1.392 . S
C929 H941 0.929 . S
C930 C926 1.531 1_655 S
C930 H942 0.960 . S
C930 H943 0.962 . S
C930 H944 0.960 . S
C931 C928 1.511 . S
C931 H945 0.961 . S
C931 H946 0.961 . S
C931 H947 0.961 . S
C932 C933 1.370 . S
C932 C934 1.363 . S
C932 H948 0.931 . S
C933 C932 1.370 . S
C933 C937 1.408 . S
C934 C932 1.363 . S
C934 C935 1.370 . S
C934 C938 1.524 . S
C935 C927 1.503 1_655 S
C935 C934 1.370 . S
C935 C936 1.403 . S
C936 C935 1.403 . S
C936 C937 1.404 . S
C936 C939 1.539 1_655 S
C937 C933 1.408 . S
C937 C936 1.404 . S
C937 H949 0.930 . S
C938 C934 1.524 . S
C938 H950 0.956 . S
C938 H951 0.961 . S
C938 H952 0.961 . S
C939 C936 1.539 1_455 S
C939 H953 0.958 . S
C939 H954 0.961 . S
C939 H955 0.960 . S
H940 C924 0.931 . S
H941 C929 0.929 . S
H942 C930 0.960 . S
H943 C930 0.962 . S
H944 C930 0.960 . S
H945 C931 0.961 . S
H946 C931 0.961 . S
H947 C931 0.961 . S
H948 C932 0.931 . S
H949 C937 0.930 . S
H950 C938 0.956 . S
H951 C938 0.961 . S
H952 C938 0.961 . S
H953 C939 0.958 . S
H954 C939 0.961 . S
H955 C939 0.960 . S
C956 C957 1.391 . S
C956 C958 1.394 . S
C956 H972 0.931 . S
C957 C956 1.391 . S
C957 C961 1.376 . S
C958 C956 1.394 . S
C958 C959 1.369 . S
C958 C962 1.531 1_565 S
C959 C958 1.369 . S
C959 C960 1.410 . S
C959 C967 1.503 1_565 S
C960 C959 1.410 . S
C960 C961 1.392 . S
C960 C963 1.511 . S
C961 C957 1.376 . S
C961 C960 1.392 . S
C961 H973 0.929 . S
C962 C958 1.531 1_545 S
C962 H974 0.960 . S
C962 H975 0.962 . S
C962 H976 0.960 . S
C963 C960 1.511 . S
C963 H977 0.961 . S
C963 H978 0.961 . S
C963 H979 0.961 . S
C964 C965 1.370 . S
C964 C966 1.363 . S
C964 H980 0.931 . S
C965 C964 1.370 . S
C965 C969 1.408 . S
C966 C964 1.363 . S
C966 C967 1.370 . S
C966 C970 1.524 1_545 S
C967 C959 1.503 1_545 S
C967 C966 1.370 . S
C967 C968 1.403 . S
C968 C967 1.403 . S
C968 C969 1.404 . S
C968 C971 1.539 . S
C969 C965 1.408 . S
C969 C968 1.404 . S
C969 H981 0.930 . S
C970 C966 1.524 1_565 S
C970 H982 0.956 . S
C970 H983 0.961 . S
C970 H984 0.961 . S
C971 C968 1.539 . S
C971 H985 0.958 . S
C971 H986 0.961 . S
C971 H987 0.960 . S
H972 C956 0.931 . S
H973 C961 0.929 . S
H974 C962 0.960 . S
H975 C962 0.962 . S
H976 C962 0.960 . S
H977 C963 0.961 . S
H978 C963 0.961 . S
H979 C963 0.961 . S
H980 C964 0.931 . S
H981 C969 0.930 . S
H982 C970 0.956 . S
H983 C970 0.961 . S
H984 C970 0.961 . S
H985 C971 0.958 . S
H986 C971 0.961 . S
H987 C971 0.960 . S
C988 C989 1.391 . S
C988 C990 1.394 . S
C988 H1004 0.931 . S
C989 C988 1.391 . S
C989 C993 1.376 . S
C990 C988 1.394 . S
C990 C991 1.369 . S
C990 C994 1.531 . S
C991 C990 1.369 . S
C991 C992 1.410 . S
C991 C999 1.503 . S
C992 C991 1.410 . S
C992 C993 1.392 . S
C992 C995 1.511 . S
C993 C989 1.376 . S
C993 C992 1.392 . S
C993 H1005 0.929 . S
C994 C990 1.531 . S
C994 H1006 0.960 1_554 S
C994 H1007 0.962 . S
C994 H1008 0.960 1_554 S
C995 C992 1.511 . S
C995 H1009 0.961 . S
C995 H1010 0.961 . S
C995 H1011 0.961 . S
C996 C997 1.370 . S
C996 C998 1.363 . S
C996 H1012 0.931 . S
C997 C996 1.370 . S
C997 C1001 1.421 . S
C998 C996 1.363 . S
C998 C999 1.370 . S
C998 C1002 1.524 . S
C999 C991 1.503 . S
C999 C998 1.370 . S
C999 C1000 1.403 1_554 S
C1000 C999 1.403 1_556 S
C1000 C1001 1.403 1_556 S
C1000 C1003 1.539 . S
C1001 C997 1.421 . S
C1001 C1000 1.403 1_554 S
C1001 H1013 0.918 1_554 S
C1002 C998 1.524 . S
C1002 H1014 0.956 . S
C1002 H1015 0.961 . S
C1002 H1016 0.961 . S
C1003 C1000 1.539 . S
C1003 H1017 0.958 . S
C1003 H1018 0.961 . S
C1003 H1019 0.960 . S
H1004 C988 0.931 . S
H1005 C993 0.929 . S
H1006 C994 0.960 1_556 S
H1007 C994 0.962 . S
H1008 C994 0.960 1_556 S
H1009 C995 0.961 . S
H1010 C995 0.961 . S
H1011 C995 0.961 . S
H1012 C996 0.931 . S
H1013 C1001 0.918 1_556 S
H1014 C1002 0.956 . S
H1015 C1002 0.961 . S
H1016 C1002 0.961 . S
H1017 C1003 0.958 . S
H1018 C1003 0.961 . S
H1019 C1003 0.960 . S
C1020 C1021 1.391 . S
C1020 C1022 1.401 . S
C1020 H1036 0.931 . S
C1021 C1020 1.391 . S
C1021 C1025 1.376 . S
C1022 C1020 1.401 . S
C1022 C1023 1.375 . S
C1022 C1026 1.517 1_565 S
C1023 C1022 1.375 . S
C1023 C1024 1.410 . S
C1023 C1031 1.503 1_565 S
C1024 C1023 1.410 . S
C1024 C1025 1.392 . S
C1024 C1027 1.511 . S
C1025 C1021 1.376 . S
C1025 C1024 1.392 . S
C1025 H1037 0.929 . S
C1026 C1022 1.517 1_545 S
C1026 H1038 0.960 . S
C1026 H1039 0.962 . S
C1026 H1040 0.960 . S
C1027 C1024 1.511 . S
C1027 H1041 0.961 . S
C1027 H1042 0.961 . S
C1027 H1043 0.961 . S
C1028 C1029 1.370 . S
C1028 C1030 1.363 . S
C1028 H1044 0.931 . S
C1029 C1028 1.370 . S
C1029 C1033 1.408 . S
C1030 C1028 1.363 . S
C1030 C1031 1.370 . S
C1030 C1034 1.524 1_545 S
C1031 C1023 1.503 1_545 S
C1031 C1030 1.370 . S
C1031 C1032 1.403 . S
C1032 C1031 1.403 . S
C1032 C1033 1.404 . S
C1032 C1035 1.539 . S
C1033 C1029 1.408 . S
C1033 C1032 1.404 . S
C1033 H1045 0.930 . S
C1034 C1030 1.524 1_565 S
C1034 H1046 0.956 . S
C1034 H1047 0.961 . S
C1034 H1048 0.961 . S
C1035 C1032 1.539 . S
C1035 H1049 0.958 . S
C1035 H1050 0.961 . S
C1035 H1051 0.960 . S
H1036 C1020 0.931 . S
H1037 C1025 0.929 . S
H1038 C1026 0.960 . S
H1039 C1026 0.962 . S
H1040 C1026 0.960 . S
H1041 C1027 0.961 . S
H1042 C1027 0.961 . S
H1043 C1027 0.961 . S
H1044 C1028 0.931 . S
H1045 C1033 0.930 . S
H1046 C1034 0.956 . S
H1047 C1034 0.961 . S
H1048 C1034 0.961 . S
H1049 C1035 0.958 . S
H1050 C1035 0.961 . S
H1051 C1035 0.960 . S
C1052 C1053 1.391 . S
C1052 C1054 1.394 . S
C1052 H1068 0.931 . S
C1053 C1052 1.391 . S
C1053 C1057 1.376 . S
C1054 C1052 1.394 . S
C1054 C1055 1.369 . S
C1054 C1058 1.531 . S
C1055 C1054 1.369 . S
C1055 C1056 1.410 . S
C1055 C1063 1.503 . S
C1056 C1055 1.410 . S
C1056 C1057 1.392 . S
C1056 C1059 1.511 . S
C1057 C1053 1.376 . S
C1057 C1056 1.392 . S
C1057 H1069 0.929 . S
C1058 C1054 1.531 . S
C1058 H1070 0.960 . S
C1058 H1071 0.962 . S
C1058 H1072 0.960 . S
C1059 C1056 1.511 . S
C1059 H1073 0.961 . S
C1059 H1074 0.961 . S
C1059 H1075 0.961 . S
C1060 C1061 1.370 . S
C1060 C1062 1.363 . S
C1060 H1076 0.931 . S
C1061 C1060 1.370 . S
C1061 C1065 1.408 . S
C1062 C1060 1.363 . S
C1062 C1063 1.370 . S
C1062 C1066 1.524 . S
C1063 C1055 1.503 . S
C1063 C1062 1.370 . S
C1063 C1064 1.403 . S
C1064 C1063 1.403 . S
C1064 C1065 1.404 . S
C1064 C1067 1.539 . S
C1065 C1061 1.408 . S
C1065 C1064 1.404 . S
C1065 H1077 0.930 . S
C1066 C1062 1.524 . S
C1066 H1078 0.956 . S
C1066 H1079 0.961 . S
C1066 H1080 0.961 . S
C1067 C1064 1.539 . S
C1067 H1081 0.958 . S
C1067 H1082 0.961 . S
C1067 H1083 0.960 . S
H1068 C1052 0.931 . S
H1069 C1057 0.929 . S
H1070 C1058 0.960 . S
H1071 C1058 0.962 . S
H1072 C1058 0.960 . S
H1073 C1059 0.961 . S
H1074 C1059 0.961 . S
H1075 C1059 0.961 . S
H1076 C1060 0.931 . S
H1077 C1065 0.930 . S
H1078 C1066 0.956 . S
H1079 C1066 0.961 . S
H1080 C1066 0.961 . S
H1081 C1067 0.958 . S
H1082 C1067 0.961 . S
H1083 C1067 0.960 . S
C1084 C1085 1.391 . S
C1084 C1086 1.394 . S
C1084 H1100 0.931 . S
C1085 C1084 1.391 . S
C1085 C1089 1.376 . S
C1086 C1084 1.394 . S
C1086 C1087 1.369 . S
C1086 C1090 1.531 . S
C1087 C1086 1.369 . S
C1087 C1088 1.410 . S
C1087 C1095 1.503 1_655 S
C1088 C1087 1.410 . S
C1088 C1089 1.392 . S
C1088 C1091 1.511 1_655 S
C1089 C1085 1.376 . S
C1089 C1088 1.392 . S
C1089 H1101 0.929 . S
C1090 C1086 1.531 . S
C1090 H1102 0.960 . S
C1090 H1103 0.962 . S
C1090 H1104 0.960 . S
C1091 C1088 1.511 1_455 S
C1091 H1105 0.961 . S
C1091 H1106 0.961 . S
C1091 H1107 0.961 1_455 S
C1092 C1093 1.370 . S
C1092 C1094 1.363 . S
C1092 H1108 0.931 . S
C1093 C1092 1.370 . S
C1093 C1097 1.408 . S
C1094 C1092 1.363 . S
C1094 C1095 1.370 . S
C1094 C1098 1.524 . S
C1095 C1087 1.503 1_455 S
C1095 C1094 1.370 . S
C1095 C1096 1.403 1_455 S
C1096 C1095 1.403 1_655 S
C1096 C1097 1.384 1_655 S
C1096 C1099 1.557 . S
C1097 C1093 1.408 . S
C1097 C1096 1.384 1_455 S
C1097 H1109 0.930 . S
C1098 C1094 1.524 . S
C1098 H1110 0.956 . S
C1098 H1111 0.961 . S
C1098 H1112 0.961 . S
C1099 C1096 1.557 . S
C1099 H1113 0.958 . S
C1099 H1114 0.961 . S
C1099 H1115 0.960 . S
H1100 C1084 0.931 . S
H1101 C1089 0.929 . S
H1102 C1090 0.960 . S
H1103 C1090 0.962 . S
H1104 C1090 0.960 . S
H1105 C1091 0.961 . S
H1106 C1091 0.961 . S
H1107 C1091 0.961 1_655 S
H1108 C1092 0.931 . S
H1109 C1097 0.930 . S
H1110 C1098 0.956 . S
H1111 C1098 0.961 . S
H1112 C1098 0.961 . S
H1113 C1099 0.958 . S
H1114 C1099 0.961 . S
H1115 C1099 0.960 . S
C1116 C1117 1.391 . S
C1116 C1118 1.394 . S
C1116 H1132 0.931 . S
C1117 C1116 1.391 . S
C1117 C1121 1.376 . S
C1118 C1116 1.394 . S
C1118 C1119 1.369 . S
C1118 C1122 1.531 1_545 S
C1119 C1118 1.369 . S
C1119 C1120 1.410 . S
C1119 C1127 1.503 1_545 S
C1120 C1119 1.410 . S
C1120 C1121 1.392 . S
C1120 C1123 1.511 . S
C1121 C1117 1.376 . S
C1121 C1120 1.392 . S
C1121 H1133 0.929 . S
C1122 C1118 1.531 1_565 S
C1122 H1134 0.960 . S
C1122 H1135 0.962 . S
C1122 H1136 0.960 . S
C1123 C1120 1.511 . S
C1123 H1137 0.961 . S
C1123 H1138 0.961 . S
C1123 H1139 0.961 . S
C1124 C1125 1.370 . S
C1124 C1126 1.363 . S
C1124 H1140 0.931 . S
C1125 C1124 1.370 . S
C1125 C1129 1.408 . S
C1126 C1124 1.363 . S
C1126 C1127 1.370 . S
C1126 C1130 1.524 1_565 S
C1127 C1119 1.503 1_565 S
C1127 C1126 1.370 . S
C1127 C1128 1.403 . S
C1128 C1127 1.403 . S
C1128 C1129 1.404 . S
C1128 C1131 1.539 . S
C1129 C1125 1.408 . S
C1129 C1128 1.404 . S
C1129 H1141 0.930 . S
C1130 C1126 1.524 1_545 S
C1130 H1142 0.956 . S
C1130 H1143 0.961 . S
C1130 H1144 0.961 . S
C1131 C1128 1.539 . S
C1131 H1145 0.958 . S
C1131 H1146 0.961 . S
C1131 H1147 0.960 . S
H1132 C1116 0.931 . S
H1133 C1121 0.929 . S
H1134 C1122 0.960 . S
H1135 C1122 0.962 . S
H1136 C1122 0.960 . S
H1137 C1123 0.961 . S
H1138 C1123 0.961 . S
H1139 C1123 0.961 . S
H1140 C1124 0.931 . S
H1141 C1129 0.930 . S
H1142 C1130 0.956 . S
H1143 C1130 0.961 . S
H1144 C1130 0.961 . S
H1145 C1131 0.958 . S
H1146 C1131 0.961 . S
H1147 C1131 0.960 . S
C1148 C1149 1.391 . S
C1148 C1150 1.394 . S
C1148 H1164 0.931 . S
C1149 C1148 1.391 . S
C1149 C1153 1.376 . S
C1150 C1148 1.394 . S
C1150 C1151 1.369 . S
C1150 C1154 1.531 . S
C1151 C1150 1.369 . S
C1151 C1152 1.410 . S
C1151 C1159 1.503 . S
C1152 C1151 1.410 . S
C1152 C1153 1.392 . S
C1152 C1155 1.511 . S
C1153 C1149 1.376 . S
C1153 C1152 1.392 . S
C1153 H1165 0.929 . S
C1154 C1150 1.531 . S
C1154 H1166 0.960 . S
C1154 H1167 0.962 . S
C1154 H1168 0.960 . S
C1155 C1152 1.511 . S
C1155 H1169 0.961 . S
C1155 H1170 0.961 . S
C1155 H1171 0.961 . S
C1156 C1157 1.370 . S
C1156 C1158 1.363 . S
C1156 H1172 0.931 . S
C1157 C1156 1.370 . S
C1157 C1161 1.408 . S
C1158 C1156 1.363 . S
C1158 C1159 1.370 . S
C1158 C1162 1.524 . S
C1159 C1151 1.503 . S
C1159 C1158 1.370 . S
C1159 C1160 1.403 . S
C1160 C1159 1.403 . S
C1160 C1161 1.404 . S
C1160 C1163 1.539 . S
C1161 C1157 1.408 . S
C1161 C1160 1.404 . S
C1161 H1173 0.930 . S
C1162 C1158 1.524 . S
C1162 H1174 0.956 . S
C1162 H1175 0.961 . S
C1162 H1176 0.961 . S
C1163 C1160 1.539 . S
C1163 H1177 0.958 . S
C1163 H1178 0.961 . S
C1163 H1179 0.960 . S
H1164 C1148 0.931 . S
H1165 C1153 0.929 . S
H1166 C1154 0.960 . S
H1167 C1154 0.962 . S
H1168 C1154 0.960 . S
H1169 C1155 0.961 . S
H1170 C1155 0.961 . S
H1171 C1155 0.961 . S
H1172 C1156 0.931 . S
H1173 C1161 0.930 . S
H1174 C1162 0.956 . S
H1175 C1162 0.961 . S
H1176 C1162 0.961 . S
H1177 C1163 0.958 . S
H1178 C1163 0.961 . S
H1179 C1163 0.960 . S
C1180 C1181 1.391 . S
C1180 C1182 1.394 1_455 S
C1180 H1196 0.931 . S
C1181 C1180 1.391 . S
C1181 C1185 1.376 . S
C1182 C1180 1.394 1_655 S
C1182 C1183 1.369 1_655 S
C1182 C1186 1.531 . S
C1183 C1182 1.369 1_455 S
C1183 C1184 1.410 . S
C1183 C1191 1.503 1_455 S
C1184 C1183 1.410 . S
C1184 C1185 1.392 . S
C1184 C1187 1.511 . S
C1185 C1181 1.376 . S
C1185 C1184 1.392 . S
C1185 H1197 0.929 . S
C1186 C1182 1.531 . S
C1186 H1198 0.960 . S
C1186 H1199 0.962 . S
C1186 H1200 0.960 . S
C1187 C1184 1.511 . S
C1187 H1201 0.961 . S
C1187 H1202 0.961 . S
C1187 H1203 0.961 . S
C1188 C1189 1.370 . S
C1188 C1190 1.363 . S
C1188 H1204 0.931 . S
C1189 C1188 1.370 . S
C1189 C1193 1.408 . S
C1190 C1188 1.363 . S
C1190 C1191 1.370 . S
C1190 C1194 1.524 1_655 S
C1191 C1183 1.503 1_655 S
C1191 C1190 1.370 . S
C1191 C1192 1.403 . S
C1192 C1191 1.403 . S
C1192 C1193 1.404 . S
C1192 C1195 1.539 . S
C1193 C1189 1.408 . S
C1193 C1192 1.404 . S
C1193 H1205 0.930 . S
C1194 C1190 1.524 1_455 S
C1194 H1206 0.956 . S
C1194 H1207 0.961 . S
C1194 H1208 0.961 . S
C1195 C1192 1.539 . S
C1195 H1209 0.958 . S
C1195 H1210 0.961 . S
C1195 H1211 0.960 . S
H1196 C1180 0.931 . S
H1197 C1185 0.929 . S
H1198 C1186 0.960 . S
H1199 C1186 0.962 . S
H1200 C1186 0.960 . S
H1201 C1187 0.961 . S
H1202 C1187 0.961 . S
H1203 C1187 0.961 . S
H1204 C1188 0.931 . S
H1205 C1193 0.930 . S
H1206 C1194 0.956 . S
H1207 C1194 0.961 . S
H1208 C1194 0.961 . S
H1209 C1195 0.958 . S
H1210 C1195 0.961 . S
H1211 C1195 0.960 . S
C1212 C1213 1.391 . S
C1212 C1214 1.394 . S
C1212 H1228 0.931 . S
C1213 C1212 1.391 . S
C1213 C1217 1.376 . S
C1214 C1212 1.394 . S
C1214 C1215 1.369 . S
C1214 C1218 1.531 . S
C1215 C1214 1.369 . S
C1215 C1216 1.410 . S
C1215 C1223 1.503 . S
C1216 C1215 1.410 . S
C1216 C1217 1.392 . S
C1216 C1219 1.511 . S
C1217 C1213 1.376 . S
C1217 C1216 1.392 . S
C1217 H1229 0.929 . S
C1218 C1214 1.531 . S
C1218 H1230 0.960 . S
C1218 H1231 0.962 . S
C1218 H1232 0.960 . S
C1219 C1216 1.511 . S
C1219 H1233 0.961 . S
C1219 H1234 0.961 . S
C1219 H1235 0.961 . S
C1220 C1221 1.370 . S
C1220 C1222 1.363 . S
C1220 H1236 0.931 . S
C1221 C1220 1.370 . S
C1221 C1225 1.408 . S
C1222 C1220 1.363 . S
C1222 C1223 1.370 . S
C1222 C1226 1.524 . S
C1223 C1215 1.503 . S
C1223 C1222 1.370 . S
C1223 C1224 1.403 . S
C1224 C1223 1.403 . S
C1224 C1225 1.404 . S
C1224 C1227 1.539 . S
C1225 C1221 1.408 . S
C1225 C1224 1.404 . S
C1225 H1237 0.930 . S
C1226 C1222 1.524 . S
C1226 H1238 0.956 . S
C1226 H1239 0.961 . S
C1226 H1240 0.961 . S
C1227 C1224 1.539 . S
C1227 H1241 0.958 . S
C1227 H1242 0.961 . S
C1227 H1243 0.960 . S
H1228 C1212 0.931 . S
H1229 C1217 0.929 . S
H1230 C1218 0.960 . S
H1231 C1218 0.962 . S
H1232 C1218 0.960 . S
H1233 C1219 0.961 . S
H1234 C1219 0.961 . S
H1235 C1219 0.961 . S
H1236 C1220 0.931 . S
H1237 C1225 0.930 . S
H1238 C1226 0.956 . S
H1239 C1226 0.961 . S
H1240 C1226 0.961 . S
H1241 C1227 0.958 . S
H1242 C1227 0.961 . S
H1243 C1227 0.960 . S
C1244 C1245 1.391 . S
C1244 C1246 1.394 . S
C1244 H1260 0.931 . S
C1245 C1244 1.391 . S
C1245 C1249 1.376 . S
C1246 C1244 1.394 . S
C1246 C1247 1.369 . S
C1246 C1250 1.531 . S
C1247 C1246 1.369 . S
C1247 C1248 1.410 . S
C1247 C1255 1.503 . S
C1248 C1247 1.410 . S
C1248 C1249 1.392 . S
C1248 C1251 1.511 . S
C1249 C1245 1.376 . S
C1249 C1248 1.392 . S
C1249 H1261 0.929 . S
C1250 C1246 1.531 . S
C1250 H1262 0.960 . S
C1250 H1263 0.962 . S
C1250 H1264 0.960 . S
C1251 C1248 1.511 . S
C1251 H1265 0.961 . S
C1251 H1266 0.961 . S
C1251 H1267 0.961 . S
C1252 C1253 1.370 . S
C1252 C1254 1.363 . S
C1252 H1268 0.931 . S
C1253 C1252 1.370 . S
C1253 C1257 1.408 . S
C1254 C1252 1.363 . S
C1254 C1255 1.370 . S
C1254 C1258 1.524 . S
C1255 C1247 1.503 . S
C1255 C1254 1.370 . S
C1255 C1256 1.403 . S
C1256 C1255 1.403 . S
C1256 C1257 1.404 . S
C1256 C1259 1.539 . S
C1257 C1253 1.408 . S
C1257 C1256 1.404 . S
C1257 H1269 0.930 . S
C1258 C1254 1.524 . S
C1258 H1270 0.956 . S
C1258 H1271 0.961 . S
C1258 H1272 0.961 . S
C1259 C1256 1.539 . S
C1259 H1273 0.958 . S
C1259 H1274 0.961 . S
C1259 H1275 0.960 . S
H1260 C1244 0.931 . S
H1261 C1249 0.929 . S
H1262 C1250 0.960 . S
H1263 C1250 0.962 . S
H1264 C1250 0.960 . S
H1265 C1251 0.961 . S
H1266 C1251 0.961 . S
H1267 C1251 0.961 . S
H1268 C1252 0.931 . S
H1269 C1257 0.930 . S
H1270 C1258 0.956 . S
H1271 C1258 0.961 . S
H1272 C1258 0.961 . S
H1273 C1259 0.958 . S
H1274 C1259 0.961 . S
H1275 C1259 0.960 . S
C1276 C1277 1.391 . S
C1276 C1278 1.394 . S
C1276 H1292 0.931 . S
C1277 C1276 1.391 . S
C1277 C1281 1.376 . S
C1278 C1276 1.394 . S
C1278 C1279 1.369 . S
C1278 C1282 1.531 . S
C1279 C1278 1.369 . S
C1279 C1280 1.410 . S
C1279 C1287 1.503 . S
C1280 C1279 1.410 . S
C1280 C1281 1.392 . S
C1280 C1283 1.511 . S
C1281 C1277 1.376 . S
C1281 C1280 1.392 . S
C1281 H1293 0.929 . S
C1282 C1278 1.531 . S
C1282 H1294 0.960 . S
C1282 H1295 0.962 . S
C1282 H1296 0.960 . S
C1283 C1280 1.511 . S
C1283 H1297 0.961 . S
C1283 H1298 0.961 . S
C1283 H1299 0.961 . S
C1284 C1285 1.370 . S
C1284 C1286 1.363 . S
C1284 H1300 0.931 . S
C1285 C1284 1.370 . S
C1285 C1289 1.408 . S
C1286 C1284 1.363 . S
C1286 C1287 1.370 . S
C1286 C1290 1.524 . S
C1287 C1279 1.503 . S
C1287 C1286 1.370 . S
C1287 C1288 1.403 . S
C1288 C1287 1.403 . S
C1288 C1289 1.404 . S
C1288 C1291 1.539 . S
C1289 C1285 1.408 . S
C1289 C1288 1.404 . S
C1289 H1301 0.930 . S
C1290 C1286 1.524 . S
C1290 H1302 0.956 . S
C1290 H1303 0.961 . S
C1290 H1304 0.961 . S
C1291 C1288 1.539 . S
C1291 H1305 0.958 . S
C1291 H1306 0.961 . S
C1291 H1307 0.960 . S
H1292 C1276 0.931 . S
H1293 C1281 0.929 . S
H1294 C1282 0.960 . S
H1295 C1282 0.962 . S
H1296 C1282 0.960 . S
H1297 C1283 0.961 . S
H1298 C1283 0.961 . S
H1299 C1283 0.961 . S
H1300 C1284 0.931 . S
H1301 C1289 0.930 . S
H1302 C1290 0.956 . S
H1303 C1290 0.961 . S
H1304 C1290 0.961 . S
H1305 C1291 0.958 . S
H1306 C1291 0.961 . S
H1307 C1291 0.960 . S
C1308 C1309 1.391 . S
C1308 C1310 1.394 . S
C1308 H1324 0.931 . S
C1309 C1308 1.391 . S
C1309 C1313 1.376 . S
C1310 C1308 1.394 . S
C1310 C1311 1.369 . S
C1310 C1314 1.531 . S
C1311 C1310 1.369 . S
C1311 C1312 1.410 . S
C1311 C1319 1.503 . S
C1312 C1311 1.410 . S
C1312 C1313 1.392 . S
C1312 C1315 1.511 . S
C1313 C1309 1.376 . S
C1313 C1312 1.392 . S
C1313 H1325 0.929 . S
C1314 C1310 1.531 . S
C1314 H1326 0.960 . S
C1314 H1327 0.962 . S
C1314 H1328 0.960 . S
C1315 C1312 1.511 . S
C1315 H1329 0.961 . S
C1315 H1330 0.961 . S
C1315 H1331 0.961 . S
C1316 C1317 1.370 . S
C1316 C1318 1.363 . S
C1316 H1332 0.931 . S
C1317 C1316 1.370 . S
C1317 C1321 1.408 . S
C1318 C1316 1.363 . S
C1318 C1319 1.370 . S
C1318 C1322 1.524 . S
C1319 C1311 1.503 . S
C1319 C1318 1.370 . S
C1319 C1320 1.403 . S
C1320 C1319 1.403 . S
C1320 C1321 1.404 . S
C1320 C1323 1.539 . S
C1321 C1317 1.408 . S
C1321 C1320 1.404 . S
C1321 H1333 0.930 . S
C1322 C1318 1.524 . S
C1322 H1334 0.956 . S
C1322 H1335 0.961 . S
C1322 H1336 0.961 . S
C1323 C1320 1.539 . S
C1323 H1337 0.958 . S
C1323 H1338 0.961 . S
C1323 H1339 0.960 . S
H1324 C1308 0.931 . S
H1325 C1313 0.929 . S
H1326 C1314 0.960 . S
H1327 C1314 0.962 . S
H1328 C1314 0.960 . S
H1329 C1315 0.961 . S
H1330 C1315 0.961 . S
H1331 C1315 0.961 . S
H1332 C1316 0.931 . S
H1333 C1321 0.930 . S
H1334 C1322 0.956 . S
H1335 C1322 0.961 . S
H1336 C1322 0.961 . S
H1337 C1323 0.958 . S
H1338 C1323 0.961 . S
H1339 C1323 0.960 . S
C1340 C1341 1.391 . S
C1340 C1342 1.394 . S
C1340 H1356 0.931 . S
C1341 C1340 1.391 . S
C1341 C1345 1.376 . S
C1342 C1340 1.394 . S
C1342 C1343 1.369 . S
C1342 C1346 1.531 . S
C1343 C1342 1.369 . S
C1343 C1344 1.410 . S
C1343 C1351 1.503 . S
C1344 C1343 1.410 . S
C1344 C1345 1.392 . S
C1344 C1347 1.511 . S
C1345 C1341 1.376 . S
C1345 C1344 1.392 . S
C1345 H1357 0.929 . S
C1346 C1342 1.531 . S
C1346 H1358 0.960 . S
C1346 H1359 0.962 . S
C1346 H1360 0.960 . S
C1347 C1344 1.511 . S
C1347 H1361 0.961 . S
C1347 H1362 0.961 . S
C1347 H1363 0.961 . S
C1348 C1349 1.370 . S
C1348 C1350 1.363 . S
C1348 H1364 0.931 . S
C1349 C1348 1.370 . S
C1349 C1353 1.408 . S
C1350 C1348 1.363 . S
C1350 C1351 1.370 . S
C1350 C1354 1.524 . S
C1351 C1343 1.503 . S
C1351 C1350 1.370 . S
C1351 C1352 1.403 . S
C1352 C1351 1.403 . S
C1352 C1353 1.404 . S
C1352 C1355 1.539 . S
C1353 C1349 1.408 . S
C1353 C1352 1.404 . S
C1353 H1365 0.930 . S
C1354 C1350 1.524 . S
C1354 H1366 0.956 . S
C1354 H1367 0.961 . S
C1354 H1368 0.961 . S
C1355 C1352 1.539 . S
C1355 H1369 0.958 . S
C1355 H1370 0.961 . S
C1355 H1371 0.960 . S
H1356 C1340 0.931 . S
H1357 C1345 0.929 . S
H1358 C1346 0.960 . S
H1359 C1346 0.962 . S
H1360 C1346 0.960 . S
H1361 C1347 0.961 . S
H1362 C1347 0.961 . S
H1363 C1347 0.961 . S
H1364 C1348 0.931 . S
H1365 C1353 0.930 . S
H1366 C1354 0.956 . S
H1367 C1354 0.961 . S
H1368 C1354 0.961 . S
H1369 C1355 0.958 . S
H1370 C1355 0.961 . S
H1371 C1355 0.960 . S
C1372 C1373 1.391 . S
C1372 C1374 1.394 . S
C1372 H1388 0.931 . S
C1373 C1372 1.391 . S
C1373 C1377 1.376 . S
C1374 C1372 1.394 . S
C1374 C1375 1.369 . S
C1374 C1378 1.531 . S
C1375 C1374 1.369 . S
C1375 C1376 1.410 . S
C1375 C1383 1.503 . S
C1376 C1375 1.410 . S
C1376 C1377 1.392 . S
C1376 C1379 1.511 . S
C1377 C1373 1.376 . S
C1377 C1376 1.392 . S
C1377 H1389 0.929 . S
C1378 C1374 1.531 . S
C1378 H1390 0.960 . S
C1378 H1391 0.962 . S
C1378 H1392 0.960 . S
C1379 C1376 1.511 . S
C1379 H1393 0.961 . S
C1379 H1394 0.961 . S
C1379 H1395 0.961 . S
C1380 C1381 1.370 . S
C1380 C1382 1.363 . S
C1380 H1396 0.931 . S
C1381 C1380 1.370 . S
C1381 C1385 1.408 . S
C1382 C1380 1.363 . S
C1382 C1383 1.370 . S
C1382 C1386 1.524 . S
C1383 C1375 1.503 . S
C1383 C1382 1.370 . S
C1383 C1384 1.403 . S
C1384 C1383 1.403 . S
C1384 C1385 1.404 . S
C1384 C1387 1.539 . S
C1385 C1381 1.408 . S
C1385 C1384 1.404 . S
C1385 H1397 0.930 . S
C1386 C1382 1.524 . S
C1386 H1398 0.956 . S
C1386 H1399 0.961 . S
C1386 H1400 0.961 . S
C1387 C1384 1.539 . S
C1387 H1401 0.958 . S
C1387 H1402 0.961 . S
C1387 H1403 0.960 . S
H1388 C1372 0.931 . S
H1389 C1377 0.929 . S
H1390 C1378 0.960 . S
H1391 C1378 0.962 . S
H1392 C1378 0.960 . S
H1393 C1379 0.961 . S
H1394 C1379 0.961 . S
H1395 C1379 0.961 . S
H1396 C1380 0.931 . S
H1397 C1385 0.930 . S
H1398 C1386 0.956 . S
H1399 C1386 0.961 . S
H1400 C1386 0.961 . S
H1401 C1387 0.958 . S
H1402 C1387 0.961 . S
H1403 C1387 0.960 . S
C253 C13 1.010 . S
C261 C181 0.937 . S
C285 C34 0.910 . S
C293 C202 0.966 . S
C317 C55 0.962 . S
C325 C223 0.943 . S
C349 C244 1.012 . S
C357 C76 0.936 . S
C381 C97 0.885 . S
C389 C139 0.981 . S
C413 C160 0.994 . S
C421 C118 0.946 . S
C445 C227 1.575 . S
C453 C17 1.551 . S
C477 C248 1.575 . S
C485 C38 1.551 . S
C509 C59 1.481 . S
C517 C143 1.514 . S
C541 C164 1.566 . S
C549 C80 1.541 . S
C573 C185 1.521 . S
C581 C101 1.521 . S
C605 C122 1.575 . S
C613 C206 1.549 . S
C637 C162 1.294 . S
C645 C15 1.294 . S
C669 C183 1.359 . S
C677 C36 1.335 . S
C701 C204 1.267 . S
C709 C57 1.287 . S
C733 C78 1.258 . S
C741 C225 1.300 . S
C765 C99 1.249 . S
C773 C246 1.289 . S
C797 C120 1.322 . S
C805 C141 1.304 . S
C829 C16 1.083 . S
C837 C79 1.038 . S
C861 C37 0.977 . S
C869 C100 0.996 . S
C893 C58 0.978 . S
C901 C121 1.007 . S
C925 C205 0.979 . S
C933 C142 1.007 . S
C957 C163 0.966 . S
C965 C226 0.992 . S
C989 C247 1.112 . S
C997 C184 1.055 . S
C1021 C165 1.261 . S
C1029 C18 1.252 . S
C1053 C186 1.264 . S
C1061 C39 1.252 . S
C1085 C60 1.253 . S
C1093 C207 1.278 . S
C1117 C228 1.263 . S
C1125 C81 1.252 . S
C1149 C249 1.270 . S
C1157 C102 1.276 . S
C1181 C123 1.254 . S
C1189 C144 1.253 . S
C1213 C14 1.426 . S
C1221 C224 1.447 . S
C1245 C35 1.429 . S
C1253 C245 1.445 . S
C1277 C56 1.424 . S
C1285 C140 1.449 . S
C1309 C77 1.424 . S
C1317 C161 1.449 . S
C1341 C98 1.442 . S
C1349 C182 1.439 . S
C1373 C203 1.441 . S
C1381 C119 1.446 . S
