# Generated by pormake.
# Topology wge, (5)-cn, num edge types: 1
# Building blocks:
#     Node 0, Type 0, BuildingBlock: XOMCOT_clean_sbu_1, # of connection points: 5
#     Node 1, Type 0, BuildingBlock: XOMCOT_clean_sbu_1, # of connection points: 5
#     Node 2, Type 0, BuildingBlock: XOMCOT_clean_sbu_1, # of connection points: 5
#     Node 3, Type 0, BuildingBlock: XOMCOT_clean_sbu_1, # of connection points: 5
#     Node 4, Type 0, BuildingBlock: XOMCOT_clean_sbu_1, # of connection points: 5
#     Node 5, Type 0, BuildingBlock: XOMCOT_clean_sbu_1, # of connection points: 5
#     Node 6, Type 0, BuildingBlock: XOMCOT_clean_sbu_1, # of connection points: 5
#     Node 7, Type 0, BuildingBlock: XOMCOT_clean_sbu_1, # of connection points: 5
#     Node 8, Type 0, BuildingBlock: XOMCOT_clean_sbu_1, # of connection points: 5
#     Node 9, Type 0, BuildingBlock: XOMCOT_clean_sbu_1, # of connection points: 5
#     Node 10, Type 0, BuildingBlock: XOMCOT_clean_sbu_1, # of connection points: 5
#     Node 11, Type 0, BuildingBlock: XOMCOT_clean_sbu_1, # of connection points: 5
#     Node 12, Type 0, BuildingBlock: XOMCOT_clean_sbu_1, # of connection points: 5
#     Node 13, Type 0, BuildingBlock: XOMCOT_clean_sbu_1, # of connection points: 5
#     Node 14, Type 0, BuildingBlock: XOMCOT_clean_sbu_1, # of connection points: 5
#     Node 15, Type 0, BuildingBlock: XOMCOT_clean_sbu_1, # of connection points: 5
#     Node 16, Type 0, BuildingBlock: XOMCOT_clean_sbu_1, # of connection points: 5
#     Node 17, Type 0, BuildingBlock: XOMCOT_clean_sbu_1, # of connection points: 5
#     Node 18, Type 0, BuildingBlock: XOMCOT_clean_sbu_1, # of connection points: 5
#     Node 19, Type 0, BuildingBlock: XOMCOT_clean_sbu_1, # of connection points: 5
#     Node 20, Type 0, BuildingBlock: XOMCOT_clean_sbu_1, # of connection points: 5
#     Node 21, Type 0, BuildingBlock: XOMCOT_clean_sbu_1, # of connection points: 5
#     Node 22, Type 0, BuildingBlock: XOMCOT_clean_sbu_1, # of connection points: 5
#     Node 23, Type 0, BuildingBlock: XOMCOT_clean_sbu_1, # of connection points: 5
#     Node 24, Type 0, BuildingBlock: XOMCOT_clean_sbu_1, # of connection points: 5
#     Node 25, Type 0, BuildingBlock: XOMCOT_clean_sbu_1, # of connection points: 5
#     Node 26, Type 0, BuildingBlock: XOMCOT_clean_sbu_1, # of connection points: 5
#     Node 27, Type 0, BuildingBlock: XOMCOT_clean_sbu_1, # of connection points: 5
#     Node 28, Type 0, BuildingBlock: XOMCOT_clean_sbu_1, # of connection points: 5
#     Node 29, Type 0, BuildingBlock: XOMCOT_clean_sbu_1, # of connection points: 5
#     Node 30, Type 0, BuildingBlock: XOMCOT_clean_sbu_1, # of connection points: 5
#     Node 31, Type 0, BuildingBlock: XOMCOT_clean_sbu_1, # of connection points: 5
#     Edge 32, Type (0, 0), BuildingBlock: KIFKEQ_clean_linker_1, # of connection points: 2
#     Edge 33, Type (0, 0), BuildingBlock: KIFKEQ_clean_linker_1, # of connection points: 2
#     Edge 34, Type (0, 0), BuildingBlock: KIFKEQ_clean_linker_1, # of connection points: 2
#     Edge 35, Type (0, 0), BuildingBlock: KIFKEQ_clean_linker_1, # of connection points: 2
#     Edge 36, Type (0, 0), BuildingBlock: KIFKEQ_clean_linker_1, # of connection points: 2
#     Edge 37, Type (0, 0), BuildingBlock: KIFKEQ_clean_linker_1, # of connection points: 2
#     Edge 38, Type (0, 0), BuildingBlock: KIFKEQ_clean_linker_1, # of connection points: 2
#     Edge 39, Type (0, 0), BuildingBlock: KIFKEQ_clean_linker_1, # of connection points: 2
#     Edge 40, Type (0, 0), BuildingBlock: KIFKEQ_clean_linker_1, # of connection points: 2
#     Edge 41, Type (0, 0), BuildingBlock: KIFKEQ_clean_linker_1, # of connection points: 2
#     Edge 42, Type (0, 0), BuildingBlock: KIFKEQ_clean_linker_1, # of connection points: 2
#     Edge 43, Type (0, 0), BuildingBlock: KIFKEQ_clean_linker_1, # of connection points: 2
#     Edge 44, Type (0, 0), BuildingBlock: KIFKEQ_clean_linker_1, # of connection points: 2
#     Edge 45, Type (0, 0), BuildingBlock: KIFKEQ_clean_linker_1, # of connection points: 2
#     Edge 46, Type (0, 0), BuildingBlock: KIFKEQ_clean_linker_1, # of connection points: 2
#     Edge 47, Type (0, 0), BuildingBlock: KIFKEQ_clean_linker_1, # of connection points: 2
#     Edge 48, Type (0, 0), BuildingBlock: KIFKEQ_clean_linker_1, # of connection points: 2
#     Edge 49, Type (0, 0), BuildingBlock: KIFKEQ_clean_linker_1, # of connection points: 2
#     Edge 50, Type (0, 0), BuildingBlock: KIFKEQ_clean_linker_1, # of connection points: 2
#     Edge 51, Type (0, 0), BuildingBlock: KIFKEQ_clean_linker_1, # of connection points: 2
#     Edge 52, Type (0, 0), BuildingBlock: KIFKEQ_clean_linker_1, # of connection points: 2
#     Edge 53, Type (0, 0), BuildingBlock: KIFKEQ_clean_linker_1, # of connection points: 2
#     Edge 54, Type (0, 0), BuildingBlock: KIFKEQ_clean_linker_1, # of connection points: 2
#     Edge 55, Type (0, 0), BuildingBlock: KIFKEQ_clean_linker_1, # of connection points: 2
#     Edge 56, Type (0, 0), BuildingBlock: KIFKEQ_clean_linker_1, # of connection points: 2
#     Edge 57, Type (0, 0), BuildingBlock: KIFKEQ_clean_linker_1, # of connection points: 2
#     Edge 58, Type (0, 0), BuildingBlock: KIFKEQ_clean_linker_1, # of connection points: 2
#     Edge 59, Type (0, 0), BuildingBlock: KIFKEQ_clean_linker_1, # of connection points: 2
#     Edge 60, Type (0, 0), BuildingBlock: KIFKEQ_clean_linker_1, # of connection points: 2
#     Edge 61, Type (0, 0), BuildingBlock: KIFKEQ_clean_linker_1, # of connection points: 2
#     Edge 62, Type (0, 0), BuildingBlock: KIFKEQ_clean_linker_1, # of connection points: 2
#     Edge 63, Type (0, 0), BuildingBlock: KIFKEQ_clean_linker_1, # of connection points: 2
#     Edge 64, Type (0, 0), BuildingBlock: KIFKEQ_clean_linker_1, # of connection points: 2
#     Edge 65, Type (0, 0), BuildingBlock: KIFKEQ_clean_linker_1, # of connection points: 2
#     Edge 66, Type (0, 0), BuildingBlock: KIFKEQ_clean_linker_1, # of connection points: 2
#     Edge 67, Type (0, 0), BuildingBlock: KIFKEQ_clean_linker_1, # of connection points: 2
#     Edge 68, Type (0, 0), BuildingBlock: KIFKEQ_clean_linker_1, # of connection points: 2
#     Edge 69, Type (0, 0), BuildingBlock: KIFKEQ_clean_linker_1, # of connection points: 2
#     Edge 70, Type (0, 0), BuildingBlock: KIFKEQ_clean_linker_1, # of connection points: 2
#     Edge 71, Type (0, 0), BuildingBlock: KIFKEQ_clean_linker_1, # of connection points: 2
#     Edge 72, Type (0, 0), BuildingBlock: KIFKEQ_clean_linker_1, # of connection points: 2
#     Edge 73, Type (0, 0), BuildingBlock: KIFKEQ_clean_linker_1, # of connection points: 2
#     Edge 74, Type (0, 0), BuildingBlock: KIFKEQ_clean_linker_1, # of connection points: 2
#     Edge 75, Type (0, 0), BuildingBlock: KIFKEQ_clean_linker_1, # of connection points: 2
#     Edge 76, Type (0, 0), BuildingBlock: KIFKEQ_clean_linker_1, # of connection points: 2
#     Edge 77, Type (0, 0), BuildingBlock: KIFKEQ_clean_linker_1, # of connection points: 2
#     Edge 78, Type (0, 0), BuildingBlock: KIFKEQ_clean_linker_1, # of connection points: 2
#     Edge 79, Type (0, 0), BuildingBlock: KIFKEQ_clean_linker_1, # of connection points: 2
#     Edge 80, Type (0, 0), BuildingBlock: KIFKEQ_clean_linker_1, # of connection points: 2
#     Edge 81, Type (0, 0), BuildingBlock: KIFKEQ_clean_linker_1, # of connection points: 2
#     Edge 82, Type (0, 0), BuildingBlock: KIFKEQ_clean_linker_1, # of connection points: 2
#     Edge 83, Type (0, 0), BuildingBlock: KIFKEQ_clean_linker_1, # of connection points: 2
#     Edge 84, Type (0, 0), BuildingBlock: KIFKEQ_clean_linker_1, # of connection points: 2
#     Edge 85, Type (0, 0), BuildingBlock: KIFKEQ_clean_linker_1, # of connection points: 2
#     Edge 86, Type (0, 0), BuildingBlock: KIFKEQ_clean_linker_1, # of connection points: 2
#     Edge 87, Type (0, 0), BuildingBlock: KIFKEQ_clean_linker_1, # of connection points: 2
#     Edge 88, Type (0, 0), BuildingBlock: KIFKEQ_clean_linker_1, # of connection points: 2
#     Edge 89, Type (0, 0), BuildingBlock: KIFKEQ_clean_linker_1, # of connection points: 2
#     Edge 90, Type (0, 0), BuildingBlock: KIFKEQ_clean_linker_1, # of connection points: 2
#     Edge 91, Type (0, 0), BuildingBlock: KIFKEQ_clean_linker_1, # of connection points: 2
#     Edge 92, Type (0, 0), BuildingBlock: KIFKEQ_clean_linker_1, # of connection points: 2
#     Edge 93, Type (0, 0), BuildingBlock: KIFKEQ_clean_linker_1, # of connection points: 2
#     Edge 94, Type (0, 0), BuildingBlock: KIFKEQ_clean_linker_1, # of connection points: 2
#     Edge 95, Type (0, 0), BuildingBlock: KIFKEQ_clean_linker_1, # of connection points: 2
#     Edge 96, Type (0, 0), BuildingBlock: KIFKEQ_clean_linker_1, # of connection points: 2
#     Edge 97, Type (0, 0), BuildingBlock: KIFKEQ_clean_linker_1, # of connection points: 2
#     Edge 98, Type (0, 0), BuildingBlock: KIFKEQ_clean_linker_1, # of connection points: 2
#     Edge 99, Type (0, 0), BuildingBlock: KIFKEQ_clean_linker_1, # of connection points: 2
#     Edge 100, Type (0, 0), BuildingBlock: KIFKEQ_clean_linker_1, # of connection points: 2
#     Edge 101, Type (0, 0), BuildingBlock: KIFKEQ_clean_linker_1, # of connection points: 2
#     Edge 102, Type (0, 0), BuildingBlock: KIFKEQ_clean_linker_1, # of connection points: 2
#     Edge 103, Type (0, 0), BuildingBlock: KIFKEQ_clean_linker_1, # of connection points: 2
#     Edge 104, Type (0, 0), BuildingBlock: KIFKEQ_clean_linker_1, # of connection points: 2
#     Edge 105, Type (0, 0), BuildingBlock: KIFKEQ_clean_linker_1, # of connection points: 2
#     Edge 106, Type (0, 0), BuildingBlock: KIFKEQ_clean_linker_1, # of connection points: 2
#     Edge 107, Type (0, 0), BuildingBlock: KIFKEQ_clean_linker_1, # of connection points: 2
#     Edge 108, Type (0, 0), BuildingBlock: KIFKEQ_clean_linker_1, # of connection points: 2
#     Edge 109, Type (0, 0), BuildingBlock: KIFKEQ_clean_linker_1, # of connection points: 2
#     Edge 110, Type (0, 0), BuildingBlock: KIFKEQ_clean_linker_1, # of connection points: 2
#     Edge 111, Type (0, 0), BuildingBlock: KIFKEQ_clean_linker_1, # of connection points: 2
# Relax obj value: 0.133
# Max RMSD: 0.142
# Mean RMSD: 0.142
data_MOF--net-wge--node1-XOMCOT_clean_sbu_1--edge1-KIFKEQ_clean_linker_1
_symmetry_space_group_name_H-M    P1
_symmetry_Int_Tables_number       1
_symmetry_cell_setting            triclinic
loop_
_symmetry_equiv_pos_as_xyz
'x, y, z'
_cell_length_a     69.713911
_cell_length_b     69.694192
_cell_length_c     41.6358
_cell_angle_alpha  89.990222
_cell_angle_beta   89.995534
_cell_angle_gamma 89.951461
loop_
_atom_site_label
_atom_site_type_symbol
_atom_site_fract_x
_atom_site_fract_y
_atom_site_fract_z
_atom_type_partial_charge
C0 C 0.20072 0.13403 0.02754 0.0
C1 C 0.18826 0.13197 0.00216 0.0
N2 N 0.19581 0.11902 0.9818 0.0
N3 N 0.2159 0.12231 0.02314 0.0
C4 C 0.21247 0.11331 0.9951 0.0
H5 H 0.199 0.14365 0.04771 0.0
Co6 Co 0.23654 0.12018 0.05078 0.0
C7 C 0.26844 0.11233 0.00522 0.0
O8 O 0.27803 0.12638 0.01882 0.0
N9 N 0.25673 0.11772 0.08023 0.0
C10 C 0.27917 0.1046 0.11143 0.0
C11 C 0.27211 0.10586 0.08062 0.0
C12 C 0.25454 0.12295 0.11119 0.0
N13 N 0.26794 0.1153 0.13065 0.0
O14 O 0.22682 0.09579 0.06637 0.0
H15 H 0.27674 0.0969 0.06096 0.0
H16 H 0.24193 0.13026 0.12004 0.0
O17 O 0.25195 0.10759 0.01629 0.0
C18 C 0.21463 0.09976 0.08835 0.0
O19 O 0.21069 0.11795 0.09347 0.0
N20 N 0.24439 0.14529 0.03811 0.0
C21 C 0.24822 0.18437 0.02384 0.0
C22 C 0.24867 0.17067 0.99925 0.0
C23 C 0.24624 0.15119 0.00683 0.0
C24 C 0.2437 0.15868 0.062 0.0
C25 C 0.24577 0.17817 0.05547 0.0
H26 H 0.24503 0.14099 0.9874 0.0
H27 H 0.24022 0.15455 0.08615 0.0
H28 H 0.22195 0.10276 0.98451 0.0
H29 H 0.175 0.13976 0.99846 0.0
H30 H 0.2907 0.09533 0.11936 0.0
H31 H 0.24986 0.17506 0.97438 0.0
H32 H 0.24472 0.18843 0.07495 0.0
C33 C 0.13195 0.95059 0.27371 0.0
C34 C 0.13496 0.93891 0.24762 0.0
N35 N 0.15001 0.94587 0.23096 0.0
N36 N 0.14497 0.96486 0.27332 0.0
C37 C 0.15588 0.96154 0.24724 0.0
H38 H 0.12082 0.94901 0.29162 0.0
Co39 Co 0.14639 0.98432 0.3031 0.0
C40 C 0.15282 0.01784 0.25953 0.0
O41 O 0.1381 0.02662 0.27273 0.0
N42 N 0.14802 1.00309 0.33478 0.0
C43 C 0.15589 0.02633 0.36895 0.0
C44 C 0.15598 0.02071 0.33721 0.0
C45 C 0.14402 0.99813 0.36529 0.0
N46 N 0.14831 0.012 0.38658 0.0
O47 O 0.1714 0.97561 0.31659 0.0
H48 H 0.16276 0.02854 0.31798 0.0
H49 H 0.13913 0.98393 0.37183 0.0
O50 O 0.15809 1.00142 0.27021 0.0
C51 C 0.17087 0.96086 0.33477 0.0
O52 O 0.15432 0.95221 0.33905 0.0
N53 N 0.1209 0.99175 0.2919 0.0
C54 C 0.08192 0.99867 0.27931 0.0
C55 C 0.09541 0.99825 0.25424 0.0
C56 C 0.11474 0.99435 0.26097 0.0
C57 C 0.10777 0.99115 0.31616 0.0
C58 C 0.0884 0.99477 0.31052 0.0
H59 H 0.12473 0.99325 0.2412 0.0
H60 H 0.11201 0.98704 0.34002 0.0
H61 H 0.16797 0.97039 0.2405 0.0
H62 H 0.12642 0.92656 0.24108 0.0
H63 H 0.16163 0.03962 0.37829 0.0
H64 H 0.09113 1.0008 0.22962 0.0
H65 H 0.07849 0.99384 0.3305 0.0
C66 C 0.31754 0.87719 0.51564 0.0
C67 C 0.32925 0.88038 0.4896 0.0
N68 N 0.3231 0.89635 0.47451 0.0
N69 N 0.30406 0.89104 0.51682 0.0
C70 C 0.30794 0.90261 0.49173 0.0
H71 H 0.31862 0.86538 0.53239 0.0
Co72 Co 0.28436 0.8929 0.54638 0.0
C73 C 0.26192 0.92279 0.51167 0.0
O74 O 0.26517 0.93516 0.53483 0.0
N75 N 0.26497 0.89448 0.57642 0.0
C76 C 0.23835 0.89821 0.60509 0.0
C77 C 0.24591 0.89769 0.57443 0.0
C78 C 0.26857 0.89267 0.60796 0.0
N79 N 0.25274 0.89495 0.62601 0.0
O80 O 0.29478 0.91689 0.56237 0.0
H81 H 0.23802 0.89968 0.55232 0.0
H82 H 0.28274 0.8902 0.61762 0.0
O83 O 0.26838 0.90568 0.51406 0.0
C84 C 0.30847 0.91327 0.58185 0.0
O85 O 0.31418 0.89536 0.58442 0.0
N86 N 0.27561 0.86865 0.53398 0.0
C87 C 0.2703 0.82977 0.52103 0.0
C88 C 0.26408 0.84374 0.49903 0.0
C89 C 0.26709 0.86328 0.50584 0.0
C90 C 0.28099 0.85525 0.55599 0.0
C91 C 0.27853 0.83578 0.54999 0.0
H92 H 0.26327 0.87387 0.48807 0.0
H93 H 0.28808 0.85973 0.57783 0.0
H94 H 0.29984 0.91543 0.48627 0.0
H95 H 0.34103 0.87134 0.48195 0.0
H96 H 0.22352 0.90078 0.61149 0.0
H97 H 0.25779 0.83957 0.4763 0.0
H98 H 0.28345 0.82543 0.5676 0.0
C99 C 0.38734 0.06487 0.77047 0.0
C100 C 0.38496 0.07692 0.74465 0.0
N101 N 0.3705 0.07009 0.72648 0.0
N102 N 0.3745 0.0505 0.76848 0.0
C103 C 0.36436 0.05408 0.7416 0.0
H104 H 0.39778 0.06643 0.78951 0.0
Co105 Co 0.37223 0.0308 0.79785 0.0
C106 C 0.36506 0.99721 0.75573 0.0
O107 O 0.37871 0.98815 0.77141 0.0
N108 N 0.36963 0.0116 0.829 0.0
C109 C 0.35636 0.9903 0.8622 0.0
C110 C 0.35748 0.9965 0.83085 0.0
C111 C 0.37507 0.0146 0.85966 0.0
N112 N 0.36744 1.00183 0.88025 0.0
O113 O 0.34754 0.04061 0.81167 0.0
H114 H 0.34832 0.99152 0.81171 0.0
H115 H 0.38244 0.02741 0.86747 0.0
O116 O 0.36029 0.01422 0.76437 0.0
C117 C 0.3508 0.05368 0.83251 0.0
O118 O 0.36875 0.05854 0.83767 0.0
N119 N 0.39759 0.0228 0.78678 0.0
C120 C 0.43685 0.01846 0.77435 0.0
C121 C 0.42342 0.01651 0.74955 0.0
C122 C 0.40384 0.01929 0.7561 0.0
C123 C 0.41071 0.02505 0.81079 0.0
C124 C 0.43027 0.02274 0.80522 0.0
H125 H 0.39386 0.01943 0.73625 0.0
H126 H 0.4063 0.02998 0.83407 0.0
H127 H 0.35288 0.04498 0.73308 0.0
H128 H 0.39312 0.08982 0.73992 0.0
H129 H 0.347 0.97916 0.87126 0.0
H130 H 0.42807 0.0139 0.72512 0.0
H131 H 0.44027 0.02495 0.8248 0.0
C132 C 0.20737 0.87848 0.98039 0.0
C133 C 0.1961 0.88027 0.00731 0.0
N134 N 0.20178 0.89604 0.02345 0.0
N135 N 0.22013 0.89299 0.97978 0.0
C136 C 0.21627 0.90355 0.00605 0.0
H137 H 0.20656 0.8672 0.9626 0.0
Co138 Co 0.23865 0.89683 0.94886 0.0
C139 C 0.27235 0.90581 0.99027 0.0
O140 O 0.28208 0.89243 0.97508 0.0
N141 N 0.25652 0.901 0.9162 0.0
C142 C 0.27719 0.91389 0.88155 0.0
C143 C 0.2724 0.91203 0.91353 0.0
C144 C 0.25164 0.89704 0.88561 0.0
N145 N 0.26389 0.90459 0.86413 0.0
O146 O 0.22681 0.92088 0.93665 0.0
H147 H 0.27916 0.91982 0.93282 0.0
H148 H 0.23858 0.88964 0.87911 0.0
O149 O 0.25519 0.90973 0.98135 0.0
C150 C 0.21285 0.9173 0.91771 0.0
O151 O 0.20802 0.89924 0.91348 0.0
N152 N 0.24886 0.87205 0.95846 0.0
C153 C 0.25741 0.83314 0.96919 0.0
C154 C 0.25721 0.84634 0.99471 0.0
C155 C 0.25252 0.86563 0.98895 0.0
C156 C 0.24853 0.85926 0.9337 0.0
C157 C 0.25293 0.83995 0.9384 0.0
H158 H 0.25128 0.87525 0.00919 0.0
H159 H 0.24374 0.8636 0.91028 0.0
H160 H 0.22385 0.91659 0.01208 0.0
H161 H 0.1849 0.87047 0.01472 0.0
H162 H 0.28862 0.92264 0.8718 0.0
H163 H 0.26029 0.84182 0.01905 0.0
H164 H 0.25187 0.8303 0.91811 0.0
C165 C 0.39023 0.95872 0.22676 0.0
C166 C 0.38832 0.94664 0.25268 0.0
N167 N 0.37277 0.95218 0.26957 0.0
N168 N 0.37602 0.97182 0.22747 0.0
C169 C 0.36551 0.96738 0.25356 0.0
H170 H 0.40145 0.95824 0.20882 0.0
Co171 Co 0.37264 0.99166 0.19862 0.0
C172 C 0.3632 0.02397 0.24262 0.0
O173 O 0.37642 0.0343 0.22824 0.0
N174 N 0.3689 0.0111 0.16819 0.0
C175 C 0.35488 0.03253 0.13606 0.0
C176 C 0.35619 0.02578 0.16708 0.0
C177 C 0.37451 1.00891 0.13743 0.0
N178 N 0.36646 0.02179 0.1175 0.0
O179 O 0.34866 0.98051 0.18422 0.0
H180 H 0.34688 0.03012 0.18647 0.0
H181 H 0.38249 0.9966 0.129 0.0
O182 O 0.35959 1.00697 0.23259 0.0
C183 C 0.35305 0.9681 0.16282 0.0
O184 O 0.37136 0.9645 0.15823 0.0
N185 N 0.39742 1.00107 0.21001 0.0
C186 C 0.43633 1.00912 0.2216 0.0
C187 C 0.42292 1.00914 0.24684 0.0
C188 C 0.40362 1.00464 0.24066 0.0
C189 C 0.41051 1.00007 0.18575 0.0
C190 C 0.42979 1.00426 0.19083 0.0
H191 H 0.39382 1.00351 0.26067 0.0
H192 H 0.40638 0.99482 0.16253 0.0
H193 H 0.35272 0.9751 0.26056 0.0
H194 H 0.39791 0.93503 0.25898 0.0
H195 H 0.34515 0.04351 0.12751 0.0
H196 H 0.42728 0.0123 0.27122 0.0
H197 H 0.43963 1.00281 0.17085 0.0
C198 C 0.31245 0.14229 0.47949 0.0
C199 C 0.32463 0.13973 0.50513 0.0
N200 N 0.31887 0.12405 0.52147 0.0
N201 N 0.29902 0.1284 0.47992 0.0
C202 C 0.30337 0.11744 0.50554 0.0
H203 H 0.31327 0.15355 0.46165 0.0
Co204 Co 0.27944 0.12505 0.45037 0.0
C205 C 0.24828 0.11631 0.49818 0.0
O206 O 0.23874 0.13178 0.48981 0.0
N207 N 0.26051 0.12123 0.4194 0.0
C208 C 0.23642 0.1126 0.38736 0.0
C209 C 0.242 0.11542 0.41885 0.0
C210 C 0.26577 0.12163 0.38831 0.0
N211 N 0.25159 0.11633 0.36842 0.0
O212 O 0.29078 0.10087 0.43688 0.0
H213 H 0.23326 0.11237 0.43956 0.0
H214 H 0.27997 0.12565 0.38036 0.0
O215 O 0.26385 0.11189 0.48359 0.0
C216 C 0.3052 0.10396 0.41863 0.0
O217 O 0.31092 0.1218 0.41497 0.0
N218 N 0.26971 0.14995 0.46089 0.0
C219 C 0.26435 0.18951 0.47044 0.0
C220 C 0.26691 0.17709 0.49667 0.0
C221 C 0.26969 0.15738 0.49138 0.0
C222 C 0.26671 0.16187 0.43537 0.0
C223 C 0.26359 0.18145 0.43963 0.0
H224 H 0.27279 0.14824 0.51172 0.0
H225 H 0.26786 0.15662 0.41113 0.0
H226 H 0.29518 0.10496 0.51256 0.0
H227 H 0.33688 0.14858 0.51099 0.0
H228 H 0.22266 0.10733 0.37918 0.0
H229 H 0.26786 0.18263 0.5209 0.0
H230 H 0.26144 0.19033 0.41859 0.0
C231 C 0.14342 0.07209 0.71673 0.0
C232 C 0.1458 0.08492 0.74147 0.0
N233 N 0.14974 0.07488 0.7683 0.0
N234 N 0.1461 0.05415 0.72795 0.0
C235 C 0.14978 0.05627 0.75951 0.0
H236 H 0.14021 0.07559 0.69201 0.0
Co237 Co 0.14526 0.03266 0.70246 0.0
C238 C 0.15214 0.99987 0.74696 0.0
O239 O 0.13834 0.99041 0.73241 0.0
N240 N 0.14462 0.01142 0.6749 0.0
C241 C 0.15722 0.98993 0.6414 0.0
C242 C 0.15821 0.9977 0.67173 0.0
C243 C 0.13562 0.01162 0.64623 0.0
N244 N 0.14326 0.99908 0.62519 0.0
O245 O 0.17063 0.0386 0.68627 0.0
H246 H 0.16984 0.99535 0.68844 0.0
H247 H 0.12561 0.02263 0.63915 0.0
O248 O 0.15648 0.01682 0.73752 0.0
C249 C 0.16991 0.04676 0.65881 0.0
O250 O 0.15308 0.05036 0.64604 0.0
N251 N 0.1196 0.02855 0.71609 0.0
C252 C 0.08011 0.02755 0.72839 0.0
C253 C 0.09327 0.02129 0.75162 0.0
C254 C 0.11303 0.02256 0.74543 0.0
C255 C 0.10694 0.03574 0.69423 0.0
C256 C 0.08721 0.03514 0.69963 0.0
H257 H 0.12282 0.01931 0.76469 0.0
H258 H 0.11221 0.04269 0.67283 0.0
H259 H 0.15299 0.04453 0.77564 0.0
H260 H 0.14483 0.10039 0.73988 0.0
H261 H 0.16768 0.98034 0.63077 0.0
H262 H 0.08835 0.01616 0.77476 0.0
H263 H 0.07758 0.0407 0.68145 0.0
C264 C 0.8086 0.88212 0.97889 0.0
C265 C 0.82062 0.88379 0.00489 0.0
N266 N 0.81498 0.89911 0.02227 0.0
N267 N 0.7954 0.89623 0.98004 0.0
C268 C 0.79975 0.90648 0.00647 0.0
H269 H 0.8092 0.87115 0.96054 0.0
Co270 Co 0.77588 0.8998 0.95054 0.0
C271 C 0.74323 0.90772 0.99488 0.0
O272 O 0.73383 0.89347 0.98146 0.0
N273 N 0.75719 0.90375 0.91923 0.0
C274 C 0.73462 0.91465 0.88597 0.0
C275 C 0.73981 0.91239 0.91771 0.0
C276 C 0.76242 0.90159 0.88831 0.0
N277 N 0.74905 0.908 0.8677 0.0
O278 O 0.78676 0.92429 0.93797 0.0
H279 H 0.73198 0.91831 0.9377 0.0
H280 H 0.77627 0.89602 0.88108 0.0
O281 O 0.75989 0.91222 0.98427 0.0
C282 C 0.80182 0.92257 0.92071 0.0
O283 O 0.80906 0.90535 0.91638 0.0
N284 N 0.76631 0.87475 0.9607 0.0
C285 C 0.75931 0.83577 0.97258 0.0
C286 C 0.76221 0.84858 0.99804 0.0
C287 C 0.76559 0.86803 0.99162 0.0
C288 C 0.76354 0.86232 0.93576 0.0
C289 C 0.75963 0.84293 0.94119 0.0
H290 H 0.76841 0.87755 0.01156 0.0
H291 H 0.76528 0.86701 0.91132 0.0
H292 H 0.79195 0.91916 0.0138 0.0
H293 H 0.8323 0.8742 0.01086 0.0
H294 H 0.72195 0.92188 0.87706 0.0
H295 H 0.76224 0.84354 0.02266 0.0
H296 H 0.75795 0.83339 0.92083 0.0
C297 C 0.88793 0.06537 0.73345 0.0
C298 C 0.88564 0.07649 0.76047 0.0
N299 N 0.86995 0.0703 0.77632 0.0
N300 N 0.87383 0.05216 0.73246 0.0
C301 C 0.86298 0.05567 0.75858 0.0
H302 H 0.89934 0.06653 0.71595 0.0
Co303 Co 0.87071 0.03326 0.70157 0.0
C304 C 0.86271 0.99982 0.74438 0.0
O305 O 0.87706 0.99064 0.73081 0.0
N306 N 0.86708 0.01498 0.6691 0.0
C307 C 0.85594 0.99268 0.63553 0.0
C308 C 0.85791 0.99789 0.66729 0.0
C309 C 0.86984 0.02002 0.63816 0.0
N310 N 0.86332 1.00679 0.61737 0.0
O311 O 0.84643 0.04447 0.68875 0.0
H312 H 0.85143 0.99032 0.68707 0.0
H313 H 0.87595 0.03361 0.63095 0.0
O314 O 0.85817 0.01659 0.73423 0.0
C315 C 0.85016 0.05847 0.6699 0.0
O316 O 0.86821 0.06354 0.66662 0.0
N317 N 0.89579 0.02378 0.71148 0.0
C318 C 0.93546 0.0202 0.72195 0.0
C319 C 0.92256 0.02032 0.74789 0.0
C320 C 0.90278 0.02222 0.74215 0.0
C321 C 0.9082 0.02296 0.68618 0.0
C322 C 0.92786 0.02075 0.69081 0.0
H323 H 0.89323 0.02372 0.76246 0.0
H324 H 0.90328 0.02538 0.66208 0.0
H325 H 0.85015 0.04768 0.76431 0.0
H326 H 0.89509 0.0879 0.76817 0.0
H327 H 0.84842 0.98022 0.62648 0.0
H328 H 0.92773 0.02018 0.77241 0.0
H329 H 0.93713 0.02044 0.66994 0.0
C330 C 0.70251 0.14213 0.48688 0.0
C331 C 0.69117 0.13923 0.51344 0.0
N332 N 0.69786 0.12374 0.5293 0.0
N333 N 0.71632 0.12861 0.48616 0.0
C334 C 0.71309 0.11756 0.51213 0.0
H335 H 0.70076 0.15327 0.46902 0.0
Co336 Co 0.73467 0.12591 0.45447 0.0
C337 C 0.769 0.11901 0.4962 0.0
O338 O 0.77791 0.13344 0.48241 0.0
N339 N 0.75222 0.12284 0.42112 0.0
C340 C 0.77388 0.11238 0.38593 0.0
C341 C 0.76973 0.11468 0.41807 0.0
C342 C 0.74591 0.12479 0.39069 0.0
N343 N 0.75872 0.11859 0.36885 0.0
O344 O 0.72451 0.10107 0.44299 0.0
H345 H 0.77836 0.10906 0.43738 0.0
H346 H 0.73168 0.12989 0.38481 0.0
O347 O 0.75232 0.11405 0.48635 0.0
C348 C 0.70883 0.10215 0.42726 0.0
O349 O 0.70053 0.11899 0.4243 0.0
N350 N 0.74345 0.15124 0.4635 0.0
C351 C 0.75126 0.19036 0.47326 0.0
C352 C 0.75095 0.17744 0.49918 0.0
C353 C 0.74663 0.15805 0.49388 0.0
C354 C 0.74313 0.16373 0.43829 0.0
C355 C 0.74712 0.18317 0.44254 0.0
H356 H 0.74556 0.14855 0.51434 0.0
H357 H 0.73892 0.15891 0.41476 0.0
H358 H 0.72181 0.10526 0.5183 0.0
H359 H 0.67875 0.14765 0.52009 0.0
H360 H 0.78642 0.10537 0.37603 0.0
H361 H 0.75384 0.18222 0.52343 0.0
H362 H 0.74622 0.19259 0.42191 0.0
C363 C 0.62696 0.96165 0.2327 0.0
C364 C 0.62946 0.94963 0.25853 0.0
N365 N 0.64538 0.95517 0.27439 0.0
N366 N 0.64115 0.97476 0.2325 0.0
C367 C 0.65225 0.97037 0.25792 0.0
H368 H 0.61549 0.96101 0.21524 0.0
Co369 Co 0.64447 0.99388 0.20225 0.0
C370 C 0.65233 0.02706 0.24533 0.0
O371 O 0.63816 0.0364 0.23151 0.0
N372 N 0.64823 0.01212 0.17022 0.0
C373 C 0.65966 0.03384 0.13594 0.0
C374 C 0.65695 0.02941 0.1679 0.0
C375 C 0.64638 1.00621 0.13959 0.0
N376 N 0.65318 0.01903 0.11838 0.0
O377 O 0.66898 0.98299 0.18994 0.0
H378 H 0.6628 0.03758 0.18756 0.0
H379 H 0.64101 0.99217 0.13309 0.0
O380 O 0.65683 0.01028 0.23526 0.0
C381 C 0.66749 0.96754 0.17363 0.0
O382 O 0.65043 0.95982 0.17012 0.0
N383 N 0.61945 1.00354 0.21227 0.0
C384 C 0.58068 0.01145 0.22428 0.0
C385 C 0.5935 1.00852 0.24972 0.0
C386 C 0.61284 1.00468 0.24323 0.0
C387 C 0.60699 1.00625 0.18735 0.0
C388 C 0.58771 0.01061 0.19283 0.0
H389 H 0.6224 1.00193 0.26316 0.0
H390 H 0.61161 1.00422 0.16292 0.0
H391 H 0.66529 0.97797 0.26384 0.0
H392 H 0.62011 0.93792 0.2653 0.0
H393 H 0.66726 0.04616 0.12651 0.0
H394 H 0.58854 1.00887 0.27437 0.0
H395 H 0.57813 0.01232 0.17253 0.0
C396 C 0.81068 0.13645 0.02722 0.0
C397 C 0.82319 0.13376 0.00204 0.0
N398 N 0.81682 0.1189 0.98426 0.0
N399 N 0.79645 0.12344 0.02511 0.0
C400 C 0.80073 0.11278 0.99908 0.0
H401 H 0.81156 0.14747 0.04544 0.0
Co402 Co 0.77546 0.12147 0.05221 0.0
C403 C 0.74552 0.1146 0.00198 0.0
O404 O 0.73641 0.1302 0.01103 0.0
N405 N 0.75494 0.11902 0.08111 0.0
C406 C 0.72925 0.11116 0.11033 0.0
C407 C 0.73653 0.11288 0.07959 0.0
C408 C 0.75846 0.12058 0.11283 0.0
N409 N 0.74326 0.11586 0.131 0.0
O410 O 0.78477 0.09683 0.06711 0.0
H411 H 0.72909 0.10853 0.05813 0.0
H412 H 0.77222 0.12466 0.12264 0.0
O413 O 0.76051 0.10908 0.0172 0.0
C414 C 0.79757 0.09917 0.08873 0.0
O415 O 0.80355 0.11669 0.0947 0.0
N416 N 0.7676 0.14679 0.03987 0.0
C417 C 0.76167 0.1858 0.02651 0.0
C418 C 0.76631 0.17293 0.00185 0.0
C419 C 0.76918 0.15348 0.009 0.0
C420 C 0.76346 0.15937 0.06408 0.0
C421 C 0.76003 0.17875 0.05784 0.0
H422 H 0.77309 0.14385 0.98973 0.0
H423 H 0.76357 0.15475 0.08875 0.0
H424 H 0.79215 0.10077 0.99113 0.0
H425 H 0.83563 0.14247 0.99675 0.0
H426 H 0.7153 0.10565 0.11699 0.0
H427 H 0.76791 0.17788 0.97734 0.0
H428 H 0.75704 0.18835 0.0777 0.0
C429 C 0.62815 0.05772 0.77249 0.0
C430 C 0.63031 0.07026 0.74726 0.0
N431 N 0.64577 0.06478 0.73007 0.0
N432 N 0.6421 0.04436 0.77103 0.0
C433 C 0.65267 0.04908 0.74514 0.0
H434 H 0.6172 0.05831 0.79087 0.0
Co435 Co 0.64598 0.02469 0.8002 0.0
C436 C 0.65392 0.99263 0.75474 0.0
O437 O 0.63974 0.98295 0.76779 0.0
N438 N 0.65032 1.00572 0.8311 0.0
C439 C 0.66196 0.983 0.86346 0.0
C440 C 0.65907 0.98836 0.83191 0.0
C441 C 0.64862 0.01069 0.86222 0.0
N442 N 0.65553 0.99727 0.88224 0.0
O443 O 0.67028 0.03595 0.8127 0.0
H444 H 0.66469 0.98069 0.81151 0.0
H445 H 0.64311 0.02442 0.87009 0.0
O446 O 0.65836 1.00912 0.76606 0.0
C447 C 0.66725 0.05017 0.8314 0.0
O448 O 0.6494 0.05551 0.83632 0.0
N449 N 0.62098 0.01505 0.79048 0.0
C450 C 0.58134 0.01077 0.78072 0.0
C451 C 0.59395 0.01231 0.75453 0.0
C452 C 0.6137 0.01451 0.75991 0.0
C453 C 0.60891 0.01282 0.81601 0.0
C454 C 0.58926 0.01026 0.81167 0.0
H455 H 0.62298 0.01701 0.73954 0.0
H456 H 0.61411 0.01426 0.8402 0.0
H457 H 0.66512 0.04105 0.73745 0.0
H458 H 0.62138 0.08263 0.74238 0.0
H459 H 0.66955 0.97039 0.87183 0.0
H460 H 0.58855 0.01302 0.73018 0.0
H461 H 0.58023 1.00882 0.83269 0.0
C462 C 0.70555 0.87884 0.51599 0.0
C463 C 0.69385 0.88174 0.48987 0.0
N464 N 0.70026 0.89728 0.47384 0.0
N465 N 0.71932 0.8924 0.51623 0.0
C466 C 0.71566 0.90351 0.49048 0.0
H467 H 0.70421 0.86754 0.53366 0.0
Co468 Co 0.73842 0.89502 0.5467 0.0
C469 C 0.77153 0.90025 0.50141 0.0
O470 O 0.78006 0.885 0.51328 0.0
N471 N 0.7569 0.89802 0.57863 0.0
C472 C 0.78071 0.90603 0.61168 0.0
C473 C 0.77554 0.90337 0.58002 0.0
C474 C 0.75108 0.898 0.60947 0.0
N475 N 0.76516 0.90281 0.62997 0.0
O476 O 0.72902 0.92031 0.55787 0.0
H477 H 0.78464 0.90652 0.55982 0.0
H478 H 0.73648 0.89493 0.61666 0.0
O479 O 0.75562 0.90603 0.51338 0.0
C480 C 0.71334 0.91964 0.57372 0.0
O481 O 0.70484 0.90297 0.57739 0.0
N482 N 0.74622 0.8693 0.53836 0.0
C483 C 0.74952 0.82953 0.53071 0.0
C484 C 0.75009 0.84171 0.50395 0.0
C485 C 0.74794 0.86156 0.50822 0.0
C486 C 0.7458 0.8575 0.5645 0.0
C487 C 0.74755 0.83767 0.56124 0.0
H488 H 0.7469 0.87063 0.48722 0.0
H489 H 0.74293 0.86323 0.58804 0.0
H490 H 0.72394 0.91613 0.48448 0.0
H491 H 0.68174 0.87294 0.48306 0.0
H492 H 0.79445 0.91103 0.62039 0.0
H493 H 0.7511 0.83588 0.4799 0.0
H494 H 0.74673 0.82869 0.58244 0.0
C495 C 0.89053 0.95382 0.2683 0.0
C496 C 0.8874 0.94196 0.2424 0.0
N497 N 0.87153 0.94811 0.227 0.0
N498 N 0.87677 0.96742 0.26896 0.0
C499 C 0.86527 0.96338 0.2439 0.0
H500 H 0.90231 0.95292 0.28515 0.0
Co501 Co 0.87443 0.98747 0.29798 0.0
C502 C 0.86481 0.01748 0.24814 0.0
O503 O 0.88109 0.0265 0.25276 0.0
N504 N 0.8716 1.00699 0.32834 0.0
C505 C 0.86604 0.03282 0.35847 0.0
C506 C 0.8684 0.02613 0.32749 0.0
C507 C 0.8711 1.00251 0.35978 0.0
N508 N 0.86755 0.01778 0.37853 0.0
O509 O 0.85054 0.97652 0.31345 0.0
H510 H 0.86726 0.03476 0.30613 0.0
H511 H 0.87337 0.98817 0.36892 0.0
O512 O 0.86044 1.00281 0.2652 0.0
C513 C 0.85394 0.96217 0.33169 0.0
O514 O 0.87185 0.95656 0.33483 0.0
N515 N 0.89908 0.99684 0.28521 0.0
C516 C 0.93787 1.00383 0.27195 0.0
C517 C 0.92512 0.99907 0.2472 0.0
C518 C 0.90578 0.99567 0.2543 0.0
C519 C 0.91152 1.00126 0.30948 0.0
C520 C 0.93078 1.00522 0.30329 0.0
H521 H 0.89628 0.99158 0.23496 0.0
H522 H 0.90691 1.00083 0.33418 0.0
H523 H 0.85248 0.97149 0.23821 0.0
H524 H 0.89642 0.93011 0.235 0.0
H525 H 0.86279 0.04741 0.36557 0.0
H526 H 0.93014 0.99766 0.22269 0.0
H527 H 0.9403 1.00829 0.3232 0.0
C528 C 0.70485 0.63271 0.52786 0.0
C529 C 0.6923 0.63048 0.50263 0.0
N530 N 0.69977 0.61737 0.48248 0.0
N531 N 0.72002 0.62094 0.52351 0.0
C532 C 0.71646 0.61172 0.49573 0.0
H533 H 0.70317 0.64237 0.54799 0.0
Co534 Co 0.74074 0.61829 0.55105 0.0
C535 C 0.77099 0.61416 0.50005 0.0
O536 O 0.77901 0.6303 0.5092 0.0
N537 N 0.76087 0.61513 0.58005 0.0
C538 C 0.78716 0.61027 0.60939 0.0
C539 C 0.7801 0.61264 0.57866 0.0
C540 C 0.75665 0.61382 0.61152 0.0
N541 N 0.77224 0.61087 0.6298 0.0
O542 O 0.73184 0.59285 0.56297 0.0
H543 H 0.78863 0.61209 0.55714 0.0
H544 H 0.74229 0.61545 0.62098 0.0
O545 O 0.75647 0.60755 0.51535 0.0
C546 C 0.71716 0.59368 0.58131 0.0
O547 O 0.70973 0.61055 0.58786 0.0
N548 N 0.74802 0.64425 0.54208 0.0
C549 C 0.75156 0.68422 0.53486 0.0
C550 C 0.7479 0.67239 0.50825 0.0
C551 C 0.74608 0.65251 0.51238 0.0
C552 C 0.75174 0.65561 0.56806 0.0
C553 C 0.75401 0.6754 0.56487 0.0
H554 H 0.74255 0.64381 0.49172 0.0
H555 H 0.75212 0.64965 0.59191 0.0
H556 H 0.72584 0.60101 0.48535 0.0
H557 H 0.679 0.63821 0.49893 0.0
H558 H 0.80197 0.6079 0.61613 0.0
H559 H 0.74557 0.67846 0.48463 0.0
H560 H 0.75709 0.68375 0.58618 0.0
C561 C 0.62828 0.45506 0.76944 0.0
C562 C 0.63102 0.44368 0.74284 0.0
N563 N 0.6469 0.44983 0.72749 0.0
N564 N 0.6423 0.46834 0.77064 0.0
C565 C 0.65353 0.46466 0.74507 0.0
H566 H 0.61663 0.45399 0.78652 0.0
Co567 Co 0.64482 0.48745 0.80108 0.0
C568 C 0.65379 0.52049 0.75771 0.0
O569 O 0.63932 0.53011 0.76998 0.0
N570 N 0.64762 0.50599 0.83316 0.0
C571 C 0.65568 0.52918 0.86736 0.0
C572 C 0.65584 0.52349 0.83564 0.0
C573 C 0.64346 0.50115 0.86367 0.0
N574 N 0.64777 0.51502 0.88494 0.0
O575 O 0.66904 0.47661 0.81506 0.0
H576 H 0.66263 0.53131 0.81643 0.0
H577 H 0.63801 0.48717 0.87017 0.0
O578 O 0.65783 0.50382 0.76876 0.0
C579 C 0.66572 0.46243 0.8337 0.0
O580 O 0.64783 0.45682 0.83699 0.0
N581 N 0.61986 0.49665 0.78981 0.0
C582 C 0.58051 0.50137 0.77757 0.0
C583 C 0.59386 0.50154 0.75229 0.0
C584 C 0.61347 0.49891 0.75889 0.0
C585 C 0.60693 0.49674 0.81442 0.0
C586 C 0.58745 0.49952 0.80896 0.0
H587 H 0.62337 0.49762 0.739 0.0
H588 H 0.61129 0.49334 0.83847 0.0
H589 H 0.6664 0.47267 0.73961 0.0
H590 H 0.62176 0.43214 0.73504 0.0
H591 H 0.66144 0.54246 0.87669 0.0
H592 H 0.58911 0.50254 0.72759 0.0
H593 H 0.57776 0.4993 0.82929 0.0
C594 C 0.81449 0.37791 0.01747 0.0
C595 C 0.8264 0.38074 0.99158 0.0
N596 N 0.82028 0.39639 0.97551 0.0
N597 N 0.80088 0.39164 0.01756 0.0
C598 C 0.80481 0.40273 0.9919 0.0
H599 H 0.8157 0.36667 0.03527 0.0
Co600 Co 0.78186 0.39469 0.04808 0.0
C601 C 0.74852 0.4023 0.00497 0.0
O602 O 0.73918 0.3882 0.01893 0.0
N603 N 0.76346 0.39818 0.08024 0.0
C604 C 0.74167 0.41033 0.11376 0.0
C605 C 0.74672 0.40798 0.08199 0.0
C606 C 0.76844 0.39531 0.11115 0.0
N607 N 0.75557 0.40252 0.13194 0.0
O608 O 0.7927 0.41913 0.06074 0.0
H609 H 0.73947 0.41478 0.06216 0.0
H610 H 0.78195 0.38899 0.1183 0.0
O611 O 0.76519 0.40704 0.01517 0.0
C612 C 0.80684 0.41594 0.07956 0.0
O613 O 0.81228 0.39804 0.08366 0.0
N614 N 0.77271 0.36957 0.03822 0.0
C615 C 0.76517 0.33042 0.02785 0.0
C616 C 0.76591 0.3434 0.00202 0.0
C617 C 0.77006 0.36281 0.00764 0.0
C618 C 0.77257 0.357 0.06333 0.0
C619 C 0.76867 0.33758 0.05879 0.0
H620 H 0.77157 0.37234 0.9873 0.0
H621 H 0.77649 0.3617 0.08704 0.0
H622 H 0.79641 0.41518 0.98537 0.0
H623 H 0.83881 0.37213 0.98551 0.0
H624 H 0.72964 0.41856 0.12277 0.0
H625 H 0.76357 0.33861 0.9776 0.0
H626 H 0.76924 0.32813 0.0794 0.0
C627 C 0.89196 0.56176 0.27037 0.0
C628 C 0.88944 0.5742 0.24508 0.0
N629 N 0.87387 0.56854 0.22837 0.0
N630 N 0.87813 0.54828 0.26943 0.0
C631 C 0.86722 0.55288 0.24386 0.0
H632 H 0.90328 0.56231 0.28813 0.0
Co633 Co 0.87519 0.52824 0.2982 0.0
C634 C 0.86738 0.4965 0.25228 0.0
O635 O 0.88175 0.48687 0.26488 0.0
N636 N 0.87178 0.50889 0.32871 0.0
C637 C 0.86028 0.4861 0.36088 0.0
C638 C 0.86198 0.49216 0.32946 0.0
C639 C 0.87531 0.51285 0.35982 0.0
N640 N 0.86871 0.49924 0.37992 0.0
O641 O 0.85089 0.53884 0.3121 0.0
H642 H 0.85502 0.48547 0.30924 0.0
H643 H 0.8815 0.52628 0.36764 0.0
O644 O 0.86253 0.51274 0.26418 0.0
C645 C 0.8538 0.55266 0.33165 0.0
O646 O 0.87159 0.55812 0.33665 0.0
N647 N 0.90025 0.51904 0.28676 0.0
C648 C 0.93901 0.51166 0.27356 0.0
C649 C 0.92606 0.51529 0.24856 0.0
C650 C 0.90671 0.51887 0.25564 0.0
C651 C 0.91294 0.51586 0.3112 0.0
C652 C 0.93218 0.5117 0.30511 0.0
H653 H 0.89703 0.52214 0.2361 0.0
H654 H 0.90864 0.51742 0.33583 0.0
H655 H 0.85452 0.54499 0.23697 0.0
H656 H 0.89858 0.58622 0.23914 0.0
H657 H 0.85263 0.47352 0.36907 0.0
H658 H 0.9309 0.51565 0.22385 0.0
H659 H 0.94188 0.50956 0.32513 0.0
C660 C 0.7087 0.38247 0.47972 0.0
C661 C 0.69645 0.38482 0.50528 0.0
N662 N 0.70233 0.40018 0.52232 0.0
N663 N 0.72228 0.3962 0.48083 0.0
C664 C 0.71792 0.40689 0.50676 0.0
H665 H 0.70801 0.37129 0.46174 0.0
Co666 Co 0.7423 0.39896 0.45207 0.0
C667 C 0.77418 0.40618 0.49816 0.0
O668 O 0.78358 0.3916 0.48575 0.0
N669 N 0.76157 0.40212 0.42157 0.0
C670 C 0.78477 0.41241 0.38913 0.0
C671 C 0.7788 0.411 0.42064 0.0
C672 C 0.75723 0.39891 0.39054 0.0
N673 N 0.77109 0.40473 0.37029 0.0
O674 O 0.73221 0.42356 0.43854 0.0
H675 H 0.78604 0.41741 0.44085 0.0
H676 H 0.74346 0.39336 0.38295 0.0
O677 O 0.75805 0.41127 0.48613 0.0
C678 C 0.71749 0.42176 0.42055 0.0
O679 O 0.71044 0.4045 0.41598 0.0
N680 N 0.75109 0.37373 0.46325 0.0
C681 C 0.75765 0.3348 0.47627 0.0
C682 C 0.7544 0.34781 0.50134 0.0
C683 C 0.75121 0.36723 0.49434 0.0
C684 C 0.75397 0.36102 0.43873 0.0
C685 C 0.75771 0.34168 0.44473 0.0
H686 H 0.74818 0.37693 0.51395 0.0
H687 H 0.75248 0.36542 0.41413 0.0
H688 H 0.726 0.41942 0.51394 0.0
H689 H 0.68445 0.37564 0.51124 0.0
H690 H 0.79778 0.41924 0.38077 0.0
H691 H 0.754 0.34295 0.52604 0.0
H692 H 0.75958 0.33196 0.42466 0.0
C693 C 0.89308 0.45959 0.73274 0.0
C694 C 0.89073 0.44772 0.7588 0.0
N695 N 0.87522 0.45371 0.77538 0.0
N696 N 0.87919 0.47304 0.73301 0.0
C697 C 0.86848 0.46906 0.75909 0.0
H698 H 0.9041 0.45845 0.71455 0.0
Co699 Co 0.87577 0.49183 0.70221 0.0
C700 C 0.86792 0.52549 0.74453 0.0
O701 O 0.88171 0.5349 0.72987 0.0
N702 N 0.87198 0.50994 0.66968 0.0
C703 C 0.85967 0.53126 0.63546 0.0
C704 C 0.86199 0.52655 0.6674 0.0
C705 C 0.87496 0.50468 0.63893 0.0
N706 N 0.86767 0.51727 0.61773 0.0
O707 O 0.85139 0.48068 0.69004 0.0
H708 H 0.85508 0.53392 0.68701 0.0
H709 H 0.88141 0.49116 0.63216 0.0
O710 O 0.8634 0.5086 0.73499 0.0
C711 C 0.85457 0.46644 0.67142 0.0
O712 O 0.87246 0.46101 0.66728 0.0
N713 N 0.90082 0.50131 0.71161 0.0
C714 C 0.93996 0.50907 0.72157 0.0
C715 C 0.92699 0.50874 0.74743 0.0
C716 C 0.90759 0.50444 0.74204 0.0
C717 C 0.91336 0.50109 0.68647 0.0
C718 C 0.93278 0.50507 0.69081 0.0
H719 H 0.89811 0.50316 0.76247 0.0
H720 H 0.90866 0.49679 0.66295 0.0
H721 H 0.85601 0.47734 0.76598 0.0
H722 H 0.89954 0.43542 0.76462 0.0
H723 H 0.85137 0.54313 0.62603 0.0
H724 H 0.93176 0.51148 0.77174 0.0
H725 H 0.94221 0.50414 0.6702 0.0
C726 C 0.81582 0.64519 0.98508 0.0
C727 C 0.82708 0.64263 0.01188 0.0
N728 N 0.82135 0.62645 0.02682 0.0
N729 N 0.80302 0.63075 0.98333 0.0
C730 C 0.80685 0.61948 0.00882 0.0
H731 H 0.81674 0.6569 0.9681 0.0
Co732 Co 0.78453 0.62737 0.95202 0.0
C733 C 0.75072 0.61827 0.99343 0.0
O734 O 0.74113 0.63215 0.97926 0.0
N735 N 0.76657 0.62353 0.91919 0.0
C736 C 0.74549 0.61052 0.88538 0.0
C737 C 0.75032 0.61297 0.91714 0.0
C738 C 0.77153 0.6267 0.88833 0.0
N739 N 0.75905 0.61898 0.8674 0.0
O740 O 0.79611 0.60324 0.93937 0.0
H741 H 0.74342 0.60556 0.93668 0.0
H742 H 0.78489 0.63338 0.88129 0.0
O743 O 0.76783 0.61446 0.98415 0.0
C744 C 0.81004 0.60688 0.92038 0.0
O745 O 0.81521 0.62491 0.91703 0.0
N746 N 0.77458 0.6522 0.96172 0.0
C747 C 0.76576 0.69115 0.97143 0.0
C748 C 0.76595 0.67814 0.99728 0.0
C749 C 0.77078 0.65882 0.99202 0.0
C750 C 0.77504 0.6648 0.93669 0.0
C751 C 0.77053 0.68412 0.94089 0.0
H752 H 0.77188 0.6493 0.01243 0.0
H753 H 0.7799 0.66021 0.9134 0.0
H754 H 0.79929 0.60626 0.01378 0.0
H755 H 0.83836 0.65212 0.01997 0.0
H756 H 0.73399 0.60162 0.87622 0.0
H757 H 0.76267 0.68283 0.02145 0.0
H758 H 0.77162 0.69361 0.92038 0.0
C759 C 0.64486 0.5712 0.21867 0.0
C760 C 0.64716 0.58352 0.24412 0.0
N761 N 0.65288 0.57314 0.26964 0.0
N762 N 0.64938 0.55325 0.22808 0.0
C763 C 0.65404 0.55484 0.25939 0.0
H764 H 0.6403 0.5751 0.19473 0.0
Co765 Co 0.649 0.53234 0.20113 0.0
C766 C 0.65956 0.4986 0.24159 0.0
O767 O 0.64655 0.48856 0.2261 0.0
N768 N 0.64869 0.51177 0.17221 0.0
C769 C 0.66126 0.49198 0.13594 0.0
C770 C 0.6633 0.49951 0.16623 0.0
C771 C 0.63809 0.51145 0.14513 0.0
N772 N 0.64562 0.49989 0.12243 0.0
O773 O 0.67346 0.54015 0.18288 0.0
H774 H 0.67597 0.49807 0.18101 0.0
H775 H 0.6267 0.5215 0.14024 0.0
O776 O 0.66201 0.51631 0.23429 0.0
C777 C 0.66999 0.54908 0.15669 0.0
O778 O 0.65197 0.55201 0.1488 0.0
N779 N 0.62407 0.52648 0.21631 0.0
C780 C 0.58498 0.5231 0.23056 0.0
C781 C 0.59889 0.51595 0.25179 0.0
C782 C 0.61844 0.51835 0.24472 0.0
C783 C 0.61067 0.53439 0.19649 0.0
C784 C 0.59112 0.5327 0.2029 0.0
H785 H 0.62878 0.51418 0.26263 0.0
H786 H 0.61522 0.54256 0.17581 0.0
H787 H 0.65863 0.54298 0.27427 0.0
H788 H 0.64484 0.59888 0.24393 0.0
H789 H 0.67192 0.48356 0.12329 0.0
H790 H 0.59469 0.50915 0.27409 0.0
H791 H 0.58088 0.53886 0.18625 0.0
C792 C 0.31036 0.38093 0.47694 0.0
C793 C 0.32261 0.38323 0.5025 0.0
N794 N 0.3169 0.39876 0.51931 0.0
N795 N 0.29697 0.39487 0.4778 0.0
C796 C 0.30137 0.40557 0.50368 0.0
H797 H 0.3111 0.36982 0.45884 0.0
Co798 Co 0.27739 0.39815 0.44845 0.0
C799 C 0.2447 0.40749 0.49167 0.0
O800 O 0.2348 0.39388 0.47743 0.0
N801 N 0.25837 0.40178 0.41732 0.0
C802 C 0.23686 0.41495 0.38428 0.0
C803 C 0.24254 0.41304 0.41582 0.0
C804 C 0.26229 0.3977 0.38637 0.0
N805 N 0.24953 0.40544 0.36597 0.0
O806 O 0.28871 0.42214 0.43426 0.0
H807 H 0.23664 0.42128 0.43538 0.0
H808 H 0.27528 0.3906 0.37861 0.0
O809 O 0.26172 0.41122 0.48187 0.0
C810 C 0.30199 0.41791 0.41428 0.0
O811 O 0.30611 0.39966 0.41022 0.0
N812 N 0.26791 0.37342 0.45977 0.0
C813 C 0.2636 0.33426 0.47283 0.0
C814 C 0.26281 0.34773 0.49775 0.0
C815 C 0.26539 0.36728 0.49078 0.0
C816 C 0.2684 0.36032 0.43544 0.0
C817 C 0.26614 0.34078 0.44138 0.0
H818 H 0.26651 0.37729 0.51051 0.0
H819 H 0.27203 0.36467 0.41144 0.0
H820 H 0.29317 0.41798 0.51108 0.0
H821 H 0.33487 0.37429 0.50798 0.0
H822 H 0.22561 0.42423 0.37531 0.0
H823 H 0.26144 0.34311 0.52248 0.0
H824 H 0.2673 0.33071 0.42164 0.0
C825 C 0.39398 0.56315 0.2333 0.0
C826 C 0.39095 0.57483 0.25945 0.0
N827 N 0.37506 0.56871 0.27478 0.0
N828 N 0.38013 0.54969 0.23236 0.0
C829 C 0.36871 0.55356 0.25764 0.0
H830 H 0.40567 0.56418 0.2163 0.0
Co831 Co 0.37776 0.53037 0.20212 0.0
C832 C 0.36904 0.49766 0.24587 0.0
O833 O 0.38363 0.48825 0.23353 0.0
N834 N 0.37492 0.51177 0.17013 0.0
C835 C 0.36317 0.49001 0.13625 0.0
C836 C 0.36518 0.49503 0.16811 0.0
C837 C 0.37822 0.5167 0.13931 0.0
N838 N 0.3712 0.50387 0.11824 0.0
O839 O 0.35373 0.54128 0.1877 0.0
H840 H 0.35819 0.48779 0.18777 0.0
H841 H 0.38476 0.53016 0.13245 0.0
O842 O 0.36446 0.51411 0.23449 0.0
C843 C 0.35714 0.55539 0.16898 0.0
O844 O 0.37506 0.56087 0.16554 0.0
N845 N 0.40256 0.52095 0.21416 0.0
C846 C 0.44136 0.51463 0.22876 0.0
C847 C 0.42776 0.51685 0.25331 0.0
C848 C 0.40845 0.52 0.24554 0.0
C849 C 0.41573 0.51879 0.19014 0.0
C850 C 0.43502 0.51526 0.19688 0.0
H851 H 0.39836 0.52248 0.26481 0.0
H852 H 0.4117 0.52085 0.16545 0.0
H853 H 0.35587 0.5455 0.26316 0.0
H854 H 0.40001 0.58661 0.26693 0.0
H855 H 0.35497 0.47802 0.12705 0.0
H856 H 0.43209 0.51664 0.2783 0.0
H857 H 0.44511 0.5142 0.17716 0.0
C858 C 0.21022 0.64093 0.98208 0.0
C859 C 0.1982 0.63822 0.00787 0.0
N860 N 0.20427 0.62263 0.02415 0.0
N861 N 0.22384 0.62719 0.98234 0.0
C862 C 0.21974 0.61616 0.00796 0.0
H863 H 0.20926 0.65227 0.96441 0.0
Co864 Co 0.24343 0.62428 0.95274 0.0
C865 C 0.2755 0.61776 0.99921 0.0
O866 O 0.28439 0.63298 0.98802 0.0
N867 N 0.26226 0.62089 0.92156 0.0
C868 C 0.28609 0.61233 0.88892 0.0
C869 C 0.28078 0.61511 0.92051 0.0
C870 C 0.25665 0.62112 0.89063 0.0
N871 N 0.27072 0.61594 0.87038 0.0
O872 O 0.23324 0.59948 0.94031 0.0
H873 H 0.28968 0.61179 0.94092 0.0
H874 H 0.24219 0.62463 0.88318 0.0
O875 O 0.25973 0.61225 0.98641 0.0
C876 C 0.21775 0.60068 0.92404 0.0
O877 O 0.2098 0.61763 0.92023 0.0
N878 N 0.25228 0.64961 0.9627 0.0
C879 C 0.25949 0.68863 0.97359 0.0
C880 C 0.25572 0.67623 0.9993 0.0
C881 C 0.2522 0.65677 0.99338 0.0
C882 C 0.2557 0.66169 0.93749 0.0
C883 C 0.25973 0.68109 0.94245 0.0
H884 H 0.24895 0.64752 0.0135 0.0
H885 H 0.25457 0.65664 0.91311 0.0
H886 H 0.22781 0.60345 0.01429 0.0
H887 H 0.18617 0.64724 0.01437 0.0
H888 H 0.29975 0.60698 0.88041 0.0
H889 H 0.25524 0.68158 0.02371 0.0
H890 H 0.26208 0.69032 0.92189 0.0
C891 C 0.13098 0.46048 0.73076 0.0
C892 C 0.13306 0.44827 0.75644 0.0
N893 N 0.14838 0.45402 0.77369 0.0
N894 N 0.14485 0.47391 0.73194 0.0
C895 C 0.1553 0.46956 0.75816 0.0
H896 H 0.12011 0.45964 0.71228 0.0
Co897 Co 0.14834 0.49326 0.70205 0.0
C898 C 0.15655 0.52597 0.74617 0.0
O899 O 0.14218 0.53545 0.73325 0.0
N900 N 0.15223 0.51174 0.67033 0.0
C901 C 0.16288 0.53419 0.63665 0.0
C902 C 0.16047 0.52929 0.66849 0.0
C903 C 0.15039 0.50617 0.63951 0.0
N904 N 0.15669 0.51945 0.61864 0.0
O905 O 0.17271 0.48224 0.6895 0.0
H906 H 0.16599 0.53748 0.68838 0.0
H907 H 0.14511 0.49217 0.63257 0.0
O908 O 0.16093 0.50933 0.73531 0.0
C909 C 0.17094 0.46704 0.67264 0.0
O910 O 0.15374 0.45973 0.66871 0.0
N911 N 0.12339 0.50303 0.71223 0.0
C912 C 0.08459 0.51089 0.72403 0.0
C913 C 0.0973 0.50765 0.74952 0.0
C914 C 0.11667 0.50384 0.74314 0.0
C915 C 0.11103 0.50603 0.68726 0.0
C916 C 0.09174 0.51038 0.69264 0.0
H917 H 0.12614 0.50086 0.76309 0.0
H918 H 0.11572 0.50421 0.66282 0.0
H919 H 0.16764 0.47776 0.7658 0.0
H920 H 0.12415 0.43595 0.76162 0.0
H921 H 0.16991 0.54692 0.62754 0.0
H922 H 0.09224 0.50774 0.77412 0.0
H923 H 0.08226 0.51231 0.67228 0.0
C924 C 0.31265 0.6383 0.52068 0.0
C925 C 0.32461 0.63606 0.49468 0.0
N926 N 0.31888 0.62044 0.47818 0.0
N927 N 0.29941 0.62424 0.52039 0.0
C928 C 0.30366 0.61347 0.49448 0.0
H929 H 0.31335 0.6496 0.53844 0.0
Co930 Co 0.27993 0.62112 0.55009 0.0
C931 C 0.24714 0.61291 0.50633 0.0
O932 O 0.23766 0.62701 0.52007 0.0
N933 N 0.2611 0.61756 0.58159 0.0
C934 C 0.23904 0.60549 0.61475 0.0
C935 C 0.24432 0.6078 0.58306 0.0
C936 C 0.26588 0.62038 0.61259 0.0
N937 N 0.25284 0.61324 0.6331 0.0
O938 O 0.2908 0.59683 0.56362 0.0
H939 H 0.23721 0.60094 0.56316 0.0
H940 H 0.27938 0.62656 0.62008 0.0
O941 O 0.2639 0.60853 0.51666 0.0
C942 C 0.30437 0.59998 0.5836 0.0
O943 O 0.31033 0.61776 0.58696 0.0
N944 N 0.27061 0.64611 0.53946 0.0
C945 C 0.26596 0.68555 0.52799 0.0
C946 C 0.26657 0.67246 0.50237 0.0
C947 C 0.26911 0.65281 0.5086 0.0
C948 C 0.26951 0.65871 0.56447 0.0
C949 C 0.26684 0.67828 0.55933 0.0
H950 H 0.27096 0.64313 0.48854 0.0
H951 H 0.27196 0.65399 0.58869 0.0
H952 H 0.29583 0.60067 0.48792 0.0
H953 H 0.33632 0.64545 0.48814 0.0
H954 H 0.22698 0.59726 0.62361 0.0
H955 H 0.26629 0.67743 0.47774 0.0
H956 H 0.26635 0.68777 0.57991 0.0
C957 C 0.13128 0.56114 0.26766 0.0
C958 C 0.13373 0.57299 0.24161 0.0
N959 N 0.1494 0.56709 0.2254 0.0
N960 N 0.14527 0.54778 0.26769 0.0
C961 C 0.15618 0.55185 0.2419 0.0
H962 H 0.11994 0.56202 0.28534 0.0
Co963 Co 0.14825 0.52849 0.29774 0.0
C964 C 0.15542 0.49586 0.25217 0.0
O965 O 0.14057 0.48656 0.26375 0.0
N966 N 0.15152 0.50991 0.32941 0.0
C967 C 0.16023 0.48644 0.36269 0.0
C968 C 0.15789 0.49159 0.33093 0.0
C969 C 0.15058 0.5156 0.36028 0.0
N970 N 0.15579 0.50172 0.38092 0.0
O971 O 0.17303 0.53872 0.31008 0.0
H972 H 0.162 0.4828 0.31081 0.0
H973 H 0.14663 0.53 0.36741 0.0
O974 O 0.16036 0.51199 0.26437 0.0
C975 C 0.17181 0.55419 0.32639 0.0
O976 O 0.15488 0.56222 0.32987 0.0
N977 N 0.12299 0.51973 0.28807 0.0
C978 C 0.08367 0.51305 0.27792 0.0
C979 C 0.09652 0.51415 0.25196 0.0
C980 C 0.11599 0.51791 0.25748 0.0
C981 C 0.11064 0.51902 0.31345 0.0
C982 C 0.0911 0.51558 0.30898 0.0
H983 H 0.1254 0.51974 0.23707 0.0
H984 H 0.11566 0.52207 0.33739 0.0
H985 H 0.16899 0.54392 0.23564 0.0
H986 H 0.12448 0.5848 0.23488 0.0
H987 H 0.1659 0.47298 0.37158 0.0
H988 H 0.09161 0.51243 0.22747 0.0
H989 H 0.08181 0.51576 0.32981 0.0
C990 C 0.20647 0.37771 0.01728 0.0
C991 C 0.19437 0.38076 0.99169 0.0
N992 N 0.20063 0.39628 0.97545 0.0
N993 N 0.22034 0.39116 0.01695 0.0
C994 C 0.21635 0.40232 0.99141 0.0
H995 H 0.20525 0.36648 0.0351 0.0
Co996 Co 0.23992 0.394 0.04664 0.0
C997 C 0.27254 0.40077 0.00175 0.0
O998 O 0.28151 0.38604 0.01455 0.0
N999 N 0.25889 0.3974 0.07786 0.0
C1000 C 0.28211 0.40797 0.11019 0.0
C1001 C 0.27659 0.4054 0.07869 0.0
C1002 C 0.25389 0.39584 0.109 0.0
N1003 N 0.26761 0.40212 0.12899 0.0
O1004 O 0.22953 0.41868 0.05945 0.0
H1005 H 0.28447 0.41078 0.05835 0.0
H1006 H 0.23995 0.39092 0.11691 0.0
O1007 O 0.25621 0.4059 0.01299 0.0
C1008 C 0.21527 0.41583 0.07816 0.0
O1009 O 0.20944 0.39807 0.08235 0.0
N1010 N 0.24861 0.36866 0.03677 0.0
C1011 C 0.25233 0.32894 0.02703 0.0
C1012 C 0.2512 0.34159 0.00083 0.0
C1013 C 0.24922 0.36138 0.0062 0.0
C1014 C 0.25022 0.3565 0.06232 0.0
C1015 C 0.2525 0.33681 0.05801 0.0
H1016 H 0.24712 0.37075 0.98579 0.0
H1017 H 0.24857 0.3617 0.08648 0.0
H1018 H 0.22492 0.41458 0.98458 0.0
H1019 H 0.18179 0.37236 0.98586 0.0
H1020 H 0.29501 0.41502 0.11854 0.0
H1021 H 0.25073 0.3362 0.97645 0.0
H1022 H 0.25356 0.32774 0.07906 0.0
C1023 C 0.38901 0.45537 0.76673 0.0
C1024 C 0.38648 0.44386 0.74032 0.0
N1025 N 0.37114 0.45037 0.72385 0.0
N1026 N 0.37537 0.46908 0.76687 0.0
C1027 C 0.36465 0.46564 0.7406 0.0
H1028 H 0.40003 0.45381 0.78483 0.0
Co1029 Co 0.37286 0.48798 0.79762 0.0
C1030 C 0.34487 0.51397 0.76671 0.0
O1031 O 0.33444 0.51377 0.79299 0.0
N1032 N 0.37073 0.50645 0.82913 0.0
C1033 C 0.37143 0.53245 0.85991 0.0
C1034 C 0.37307 0.52566 0.82885 0.0
C1035 C 0.36784 0.50189 0.86012 0.0
N1036 N 0.36803 0.51738 0.8794 0.0
O1037 O 0.34829 0.47756 0.8108 0.0
H1038 H 0.37623 0.53407 0.80766 0.0
H1039 H 0.36648 0.48729 0.8686 0.0
O1040 O 0.36067 0.50471 0.76588 0.0
C1041 C 0.34927 0.46155 0.82562 0.0
O1042 O 0.36603 0.45307 0.82821 0.0
N1043 N 0.39733 0.49696 0.78704 0.0
C1044 C 0.43628 0.50185 0.77455 0.0
C1045 C 0.4225 0.50807 0.75226 0.0
C1046 C 0.40293 0.50528 0.75883 0.0
C1047 C 0.41054 0.4917 0.80946 0.0
C1048 C 0.43007 0.49395 0.80366 0.0
H1049 H 0.39248 0.50896 0.74069 0.0
H1050 H 0.40584 0.48479 0.83135 0.0
H1051 H 0.35246 0.47431 0.73374 0.0
H1052 H 0.39512 0.43151 0.73406 0.0
H1053 H 0.37283 0.54722 0.86757 0.0
H1054 H 0.42685 0.51407 0.72939 0.0
H1055 H 0.44031 0.48899 0.82141 0.0
H1056 H 0.18993 0.01335 0.23697 0.0
H1057 H 0.13638 0.04206 0.21698 0.0
H1058 H 0.20514 0.03098 0.19249 0.0
H1059 H 0.15105 0.05875 0.17227 0.0
H1060 H 0.1865 0.10618 0.1315 0.0
H1061 H 0.17265 0.08461 0.17003 0.0
H1062 H 0.20773 0.03831 0.13374 0.0
H1063 H 0.22246 0.06064 0.09489 0.0
C1064 C 0.18137 0.0232 0.22283 0.0
C1065 C 0.16209 0.0267 0.23101 0.0
C1066 C 0.19003 0.0332 0.19722 0.0
C1067 C 0.17946 0.04666 0.17912 0.0
C1068 C 0.15986 0.04903 0.18621 0.0
C1069 C 0.1514 0.0394 0.21191 0.0
C1070 C 0.19134 0.09141 0.13131 0.0
C1071 C 0.2056 0.0852 0.10978 0.0
C1072 C 0.18319 0.07889 0.15347 0.0
C1073 C 0.18877 0.05954 0.15487 0.0
C1074 C 0.20308 0.05313 0.13337 0.0
C1075 C 0.21139 0.06585 0.11093 0.0
H1076 H 0.17689 0.92594 0.36163 0.0
H1077 H 0.20174 0.98248 0.35454 0.0
H1078 H 0.2006 0.91711 0.40182 0.0
H1079 H 0.2258 0.97355 0.39495 0.0
H1080 H 0.25379 0.90156 0.45785 0.0
H1081 H 0.23451 0.91085 0.41157 0.0
H1082 H 0.22539 0.96678 0.45347 0.0
H1083 H 0.2448 0.95754 0.49977 0.0
C1084 C 0.18769 0.93639 0.36823 0.0
C1085 C 0.18743 0.95491 0.35484 0.0
C1086 C 0.20136 0.93129 0.39125 0.0
C1087 C 0.2151 0.94462 0.4018 0.0
C1088 C 0.2153 0.96299 0.38758 0.0
C1089 C 0.20168 0.96804 0.36417 0.0
C1090 C 0.24769 0.91584 0.4573 0.0
C1091 C 0.25068 0.92868 0.48287 0.0
C1092 C 0.23663 0.92118 0.43067 0.0
C1093 C 0.22831 0.93955 0.42878 0.0
C1094 C 0.23174 0.95259 0.45392 0.0
C1095 C 0.24275 0.94721 0.48064 0.0
H1096 H 0.30089 0.95245 0.58667 0.0
H1097 H 0.33383 0.90662 0.62965 0.0
H1098 H 0.31431 0.975 0.62639 0.0
H1099 H 0.34633 0.92844 0.66913 0.0
H1100 H 0.38211 0.97111 0.7173 0.0
H1101 H 0.36858 0.95353 0.67262 0.0
H1102 H 0.31495 0.98385 0.68423 0.0
H1103 H 0.32909 1.00237 0.7287 0.0
C1104 C 0.31098 0.9472 0.60439 0.0
C1105 C 0.31647 0.92774 0.60454 0.0
C1106 C 0.31855 0.96006 0.6273 0.0
C1107 C 0.3317 0.95367 0.65077 0.0
C1108 C 0.33676 0.93415 0.65098 0.0
C1109 C 0.32943 0.9215 0.62822 0.0
C1110 C 0.36744 0.97415 0.71034 0.0
C1111 C 0.35656 0.98786 0.72701 0.0
C1112 C 0.35961 0.96397 0.68468 0.0
C1113 C 0.34045 0.96682 0.6752 0.0
C1114 C 0.32974 0.98123 0.69085 0.0
C1115 C 0.33778 0.99176 0.71643 0.0
H1116 H 0.35474 0.08492 0.87012 0.0
H1117 H 0.31298 0.04223 0.84269 0.0
H1118 H 0.33271 0.09807 0.90871 0.0
H1119 H 0.29009 0.05616 0.8814 0.0
H1120 H 0.26661 0.07454 0.98504 0.0
H1121 H 0.28412 0.06014 0.93964 0.0
H1122 H 0.30475 0.11636 0.91285 0.0
H1123 H 0.28832 0.13026 0.95861 0.0
C1124 C 0.34065 0.07847 0.87192 0.0
C1125 C 0.33569 0.0625 0.85307 0.0
C1126 C 0.32784 0.0862 0.89407 0.0
C1127 C 0.30939 0.07842 0.89813 0.0
C1128 C 0.30418 0.06252 0.87902 0.0
C1129 C 0.3172 0.05466 0.8566 0.0
C1130 C 0.27479 0.08372 0.96916 0.0
C1131 C 0.27648 0.10344 0.97576 0.0
C1132 C 0.28475 0.07552 0.94306 0.0
C1133 C 0.29629 0.08698 0.92287 0.0
C1134 C 0.29662 0.10691 0.92837 0.0
C1135 C 0.28711 0.11494 0.9546 0.0
H1136 H 0.182 0.91226 0.8794 0.0
H1137 H 0.22258 0.95564 0.90874 0.0
H1138 H 0.1681 0.93409 0.8412 0.0
H1139 H 0.20781 0.9783 0.87065 0.0
H1140 H 0.18939 1.00299 0.76883 0.0
H1141 H 0.20403 0.98519 0.81357 0.0
H1142 H 0.14865 0.96091 0.83645 0.0
H1143 H 0.13457 0.97764 0.79112 0.0
C1144 C 0.18779 0.92666 0.87816 0.0
C1145 C 0.20342 0.93214 0.89738 0.0
C1146 C 0.17962 0.93935 0.85623 0.0
C1147 C 0.18657 0.95818 0.85288 0.0
C1148 C 0.2021 0.9639 0.87242 0.0
C1149 C 0.21044 0.951 0.8945 0.0
C1150 C 0.18043 0.99391 0.78368 0.0
C1151 C 0.16094 0.99135 0.77609 0.0
C1152 C 0.18876 0.98379 0.80943 0.0
C1153 C 0.17766 0.97119 0.82835 0.0
C1154 C 0.15788 0.96986 0.82187 0.0
C1155 C 0.14973 0.97956 0.79591 0.0
H1156 H 0.2657 0.94187 0.01603 0.0
H1157 H 0.29857 0.89007 0.03003 0.0
H1158 H 0.28321 0.95712 0.06063 0.0
H1159 H 0.31515 0.90465 0.07489 0.0
H1160 H 0.36063 0.94181 0.11692 0.0
H1161 H 0.33943 0.92778 0.07803 0.0
H1162 H 0.29159 0.95881 0.11876 0.0
H1163 H 0.31351 0.9738 0.15794 0.0
C1164 C 0.27644 0.93368 0.0289 0.0
C1165 C 0.28111 0.91494 0.01899 0.0
C1166 C 0.28639 0.94235 0.05456 0.0
C1167 C 0.30097 0.93231 0.07101 0.0
C1168 C 0.30455 0.91314 0.06222 0.0
C1169 C 0.29497 0.9047 0.03644 0.0
C1170 C 0.3456 0.9457 0.11803 0.0
C1171 C 0.33884 0.9589 0.14094 0.0
C1172 C 0.33331 0.93745 0.09563 0.0
C1173 C 0.31363 0.94181 0.09538 0.0
C1174 C 0.30667 0.95509 0.1182 0.0
C1175 C 0.31917 0.96355 0.14083 0.0
H1176 H 0.29222 0.0672 0.40436 0.0
H1177 H 0.33809 0.10713 0.3849 0.0
H1178 H 0.30608 0.04478 0.36495 0.0
H1179 H 0.35116 0.08569 0.34532 0.0
H1180 H 0.38152 0.04189 0.29089 0.0
H1181 H 0.36787 0.05751 0.3377 0.0
H1182 H 0.31113 0.03993 0.30788 0.0
H1183 H 0.32529 0.02305 0.2617 0.0
C1184 C 0.30535 0.07108 0.39207 0.0
C1185 C 0.31409 0.08893 0.39801 0.0
C1186 C 0.31318 0.05836 0.36919 0.0
C1187 C 0.32991 0.06324 0.35191 0.0
C1188 C 0.33862 0.08101 0.35848 0.0
C1189 C 0.33095 0.09351 0.3812 0.0
C1190 C 0.36614 0.04117 0.29454 0.0
C1191 C 0.35443 0.03154 0.27244 0.0
C1192 C 0.35824 0.05025 0.32132 0.0
C1193 C 0.33825 0.05056 0.32631 0.0
C1194 C 0.32656 0.04004 0.30497 0.0
C1195 C 0.33462 0.03045 0.27841 0.0
H1196 H 0.17941 0.03518 0.59912 0.0
H1197 H 0.19801 0.07199 0.67622 0.0
H1198 H 0.20247 0.05033 0.56284 0.0
H1199 H 0.22094 0.08756 0.63967 0.0
H1200 H 0.22615 0.12814 0.548 0.0
H1201 H 0.21188 0.10884 0.59056 0.0
H1202 H 0.23875 0.05812 0.55165 0.0
H1203 H 0.25355 0.07767 0.50911 0.0
C1204 C 0.18894 0.0461 0.60852 0.0
C1205 C 0.18714 0.0523 0.64048 0.0
C1206 C 0.20213 0.05478 0.58777 0.0
C1207 C 0.21346 0.0702 0.59834 0.0
C1208 C 0.21237 0.07571 0.63086 0.0
C1209 C 0.19942 0.06671 0.65185 0.0
C1210 C 0.22921 0.1129 0.54865 0.0
C1211 C 0.24085 0.1044 0.52501 0.0
C1212 C 0.22118 0.10188 0.57326 0.0
C1213 C 0.22425 0.08198 0.57456 0.0
C1214 C 0.23617 0.07345 0.55127 0.0
C1215 C 0.24463 0.08461 0.52697 0.0
H1216 H 0.8674 0.9634 0.76629 0.0
H1217 H 0.83442 0.01484 0.78397 0.0
H1218 H 0.85213 0.94788 0.81149 0.0
H1219 H 0.81909 0.99909 0.83022 0.0
H1220 H 0.7829 0.95104 0.88746 0.0
H1221 H 0.79685 0.97184 0.84579 0.0
H1222 H 0.85323 0.95031 0.8693 0.0
H1223 H 0.8393 0.92938 0.9098 0.0
C1224 C 0.85689 0.97148 0.77987 0.0
C1225 C 0.85229 0.99047 0.77146 0.0
C1226 C 0.84819 0.96256 0.80609 0.0
C1227 C 0.8346 0.97231 0.82501 0.0
C1228 C 0.82952 0.99117 0.81622 0.0
C1229 C 0.83832 1.00019 0.78976 0.0
C1230 C 0.79833 0.95128 0.88431 0.0
C1231 C 0.81004 0.93861 0.90186 0.0
C1232 C 0.80631 0.9631 0.86033 0.0
C1233 C 0.82614 0.96246 0.85366 0.0
C1234 C 0.83787 0.95083 0.87311 0.0
C1235 C 0.82992 0.93897 0.89662 0.0
H1236 H 0.76584 0.0816 0.51777 0.0
H1237 H 0.7919 0.13614 0.53985 0.0
H1238 H 0.78342 0.0668 0.56265 0.0
H1239 H 0.80836 0.12194 0.58524 0.0
H1240 H 0.85592 0.08867 0.63048 0.0
H1241 H 0.8348 0.10219 0.59094 0.0
H1242 H 0.78988 0.06319 0.62002 0.0
H1243 H 0.81189 0.0487 0.6595 0.0
C1244 C 0.7751 0.09045 0.53249 0.0
C1245 C 0.77788 0.10991 0.52482 0.0
C1246 C 0.78507 0.08203 0.55835 0.0
C1247 C 0.79773 0.09303 0.57732 0.0
C1248 C 0.79937 0.11277 0.57063 0.0
C1249 C 0.78983 0.12099 0.54458 0.0
C1250 C 0.84152 0.08293 0.62888 0.0
C1251 C 0.83565 0.0676 0.64849 0.0
C1252 C 0.82923 0.09089 0.60614 0.0
C1253 C 0.81039 0.08408 0.60234 0.0
C1254 C 0.80429 0.0688 0.62214 0.0
C1255 C 0.81682 0.06063 0.64502 0.0
H1256 H 0.67173 0.09379 0.41573 0.0
H1257 H 0.72918 0.0753 0.39281 0.0
H1258 H 0.65898 0.07324 0.3736 0.0
H1259 H 0.71639 0.05483 0.3497 0.0
H1260 H 0.68024 0.01166 0.28513 0.0
H1261 H 0.6947 0.02672 0.33279 0.0
H1262 H 0.66128 0.07785 0.31539 0.0
H1263 H 0.64694 0.06305 0.26865 0.0
C1264 C 0.6816 0.08493 0.40211 0.0
C1265 C 0.70141 0.08611 0.40758 0.0
C1266 C 0.67432 0.07329 0.37774 0.0
C1267 C 0.68669 0.06271 0.35777 0.0
C1268 C 0.70647 0.06278 0.36468 0.0
C1269 C 0.71379 0.0744 0.38946 0.0
C1270 C 0.6761 0.02614 0.29148 0.0
C1271 C 0.6623 0.03606 0.27312 0.0
C1272 C 0.68438 0.03476 0.31875 0.0
C1273 C 0.67889 0.05336 0.32826 0.0
C1274 C 0.6655 0.06333 0.30931 0.0
C1275 C 0.65735 0.05484 0.28225 0.0
H1276 H 0.70713 0.90291 0.01797 0.0
H1277 H 0.75868 0.93587 0.03424 0.0
H1278 H 0.69214 0.91797 0.06385 0.0
H1279 H 0.74344 0.95104 0.08117 0.0
H1280 H 0.6953 0.98687 0.13963 0.0
H1281 H 0.71589 0.97321 0.0974 0.0
H1282 H 0.69568 0.9165 0.12179 0.0
H1283 H 0.67494 0.93014 0.16288 0.0
C1284 C 0.71535 0.91337 0.03138 0.0
C1285 C 0.73422 0.91803 0.02239 0.0
C1286 C 0.70674 0.92195 0.05798 0.0
C1287 C 0.71667 0.93548 0.07668 0.0
C1288 C 0.7354 0.94064 0.06733 0.0
C1289 C 0.74413 0.93194 0.04049 0.0
C1290 C 0.6958 0.97145 0.13656 0.0
C1291 C 0.68352 0.95954 0.15448 0.0
C1292 C 0.70751 0.96362 0.11228 0.0
C1293 C 0.70713 0.94378 0.10571 0.0
C1294 C 0.69597 0.93187 0.12557 0.0
C1295 C 0.68422 0.93966 0.14939 0.0
H1296 H 0.80465 0.10239 0.15204 0.0
H1297 H 0.80483 0.061 0.07494 0.0
H1298 H 0.81733 0.07833 0.18878 0.0
H1299 H 0.81869 0.03692 0.1119 0.0
H1300 H 0.87526 0.02801 0.18817 0.0
H1301 H 0.85553 0.04371 0.1472 0.0
H1302 H 0.80617 0.03941 0.20916 0.0
H1303 H 0.82583 0.02288 0.24988 0.0
C1304 C 0.80725 0.08805 0.14301 0.0
C1305 C 0.80372 0.08356 0.11061 0.0
C1306 C 0.8144 0.07426 0.16414 0.0
C1307 C 0.81884 0.05578 0.15321 0.0
C1308 C 0.81516 0.05106 0.1209 0.0
C1309 C 0.80729 0.06478 0.09983 0.0
C1310 C 0.86008 0.02997 0.19269 0.0
C1311 C 0.85204 0.02433 0.22218 0.0
C1312 C 0.84879 0.0388 0.16916 0.0
C1313 C 0.82935 0.04261 0.17497 0.0
C1314 C 0.8211 0.03638 0.20402 0.0
C1315 C 0.83231 0.02699 0.22726 0.0
H1316 H 0.66559 0.08544 0.85757 0.0
H1317 H 0.70291 0.03622 0.84978 0.0
H1318 H 0.68706 0.09991 0.89589 0.0
H1319 H 0.72527 0.05125 0.88807 0.0
H1320 H 0.74401 0.07561 0.99039 0.0
H1321 H 0.72797 0.05961 0.94509 0.0
H1322 H 0.7166 0.11499 0.90235 0.0
H1323 H 0.73146 0.13066 0.94806 0.0
C1324 C 0.67868 0.07785 0.86356 0.0
C1325 C 0.68254 0.05969 0.85045 0.0
C1326 C 0.69117 0.08627 0.88552 0.0
C1327 C 0.70811 0.07691 0.89511 0.0
C1328 C 0.71232 0.05886 0.8814 0.0
C1329 C 0.69967 0.05036 0.85914 0.0
C1330 C 0.7382 0.08423 0.97105 0.0
C1331 C 0.73858 0.10437 0.97302 0.0
C1332 C 0.72911 0.07511 0.945 0.0
C1333 C 0.72054 0.08599 0.92025 0.0
C1334 C 0.72238 0.10609 0.92135 0.0
C1335 C 0.731 0.11512 0.94753 0.0
H1336 H 0.64738 0.958 0.72689 0.0
H1337 H 0.68358 1.00807 0.71869 0.0
H1338 H 0.66256 0.94412 0.68011 0.0
H1339 H 0.6989 0.99395 0.67094 0.0
H1340 H 0.73348 0.9452 0.61099 0.0
H1341 H 0.7199 0.96543 0.65375 0.0
H1342 H 0.66283 0.95037 0.62237 0.0
H1343 H 0.67636 0.92994 0.58069 0.0
C1344 C 0.65859 0.96613 0.7151 0.0
C1345 C 0.66414 0.98425 0.72661 0.0
C1346 C 0.66723 0.95817 0.68798 0.0
C1347 C 0.68173 0.96804 0.67133 0.0
C1348 C 0.68773 0.986 0.68316 0.0
C1349 C 0.67894 0.99408 0.71047 0.0
C1350 C 0.71805 0.94684 0.61259 0.0
C1351 C 0.70593 0.93604 0.59255 0.0
C1352 C 0.71027 0.95832 0.63718 0.0
C1353 C 0.69027 0.95918 0.64193 0.0
C1354 C 0.67828 0.94967 0.61993 0.0
C1355 C 0.68602 0.93813 0.59579 0.0
H1356 H 0.79186 0.88324 0.45419 0.0
H1357 H 0.77045 0.93851 0.48404 0.0
H1358 H 0.80853 0.89806 0.40954 0.0
H1359 H 0.78821 0.9538 0.43986 0.0
H1360 H 0.81648 0.97377 0.34409 0.0
H1361 H 0.79389 0.95911 0.3824 0.0
H1362 H 0.83645 0.91617 0.40561 0.0
H1363 H 0.85818 0.93004 0.36723 0.0
C1364 C 0.79082 0.89865 0.45126 0.0
C1365 C 0.78016 0.90975 0.47299 0.0
C1366 C 0.80046 0.90721 0.42566 0.0
C1367 C 0.80022 0.92725 0.42142 0.0
C1368 C 0.78875 0.93834 0.44229 0.0
C1369 C 0.77867 0.92963 0.46772 0.0
C1370 C 0.82075 0.96098 0.35703 0.0
C1371 C 0.83911 0.95303 0.35235 0.0
C1372 C 0.80791 0.9527 0.37923 0.0
C1373 C 0.8132 0.93628 0.39703 0.0
C1374 C 0.83153 0.92844 0.39194 0.0
C1375 C 0.84416 0.93657 0.36992 0.0
H1376 H 0.64804 0.55527 0.72972 0.0
H1377 H 0.684 0.50489 0.72316 0.0
H1378 H 0.66415 0.56905 0.68369 0.0
H1379 H 0.70026 0.51889 0.67625 0.0
H1380 H 0.73642 0.56751 0.61864 0.0
H1381 H 0.72182 0.54717 0.66033 0.0
H1382 H 0.66554 0.56295 0.62592 0.0
H1383 H 0.68009 0.58345 0.58532 0.0
C1384 C 0.6594 0.54706 0.71846 0.0
C1385 C 0.66461 0.52888 0.73022 0.0
C1386 C 0.66858 0.55495 0.69177 0.0
C1387 C 0.6833 0.54496 0.67583 0.0
C1388 C 0.68894 0.52694 0.68792 0.0
C1389 C 0.67961 0.51893 0.71476 0.0
C1390 C 0.72097 0.56595 0.6193 0.0
C1391 C 0.70935 0.57694 0.59871 0.0
C1392 C 0.71259 0.55443 0.64329 0.0
C1393 C 0.69249 0.55377 0.64693 0.0
C1394 C 0.68104 0.56347 0.62433 0.0
C1395 C 0.68936 0.57503 0.60076 0.0
H1396 H 0.66128 0.43116 0.8713 0.0
H1397 H 0.70362 0.47338 0.84421 0.0
H1398 H 0.68312 0.41763 0.90981 0.0
H1399 H 0.72633 0.459 0.88267 0.0
H1400 H 0.75066 0.44002 0.98469 0.0
H1401 H 0.73282 0.45474 0.94 0.0
H1402 H 0.71049 0.39895 0.91446 0.0
H1403 H 0.72721 0.38478 0.95967 0.0
C1404 C 0.67546 0.43742 0.87312 0.0
C1405 C 0.68063 0.45338 0.85441 0.0
C1406 C 0.68816 0.42947 0.89524 0.0
C1407 C 0.70672 0.43697 0.89931 0.0
C1408 C 0.71214 0.45286 0.88033 0.0
C1409 C 0.69921 0.46098 0.85805 0.0
C1410 C 0.74198 0.43101 0.96929 0.0
C1411 C 0.73994 0.41135 0.97608 0.0
C1412 C 0.73184 0.43939 0.94356 0.0
C1413 C 0.71977 0.42816 0.9239 0.0
C1414 C 0.719 0.40826 0.92962 0.0
C1415 C 0.72869 0.40006 0.95553 0.0
H1416 H 0.8291 0.49722 0.23506 0.0
H1417 H 0.88489 0.47845 0.2032 0.0
H1418 H 0.81423 0.48023 0.18964 0.0
H1419 H 0.87047 0.46263 0.15728 0.0
H1420 H 0.83989 0.41262 0.11274 0.0
H1421 H 0.85349 0.43423 0.15157 0.0
H1422 H 0.8086 0.47545 0.13216 0.0
H1423 H 0.79425 0.45292 0.09341 0.0
C1424 C 0.83818 0.4898 0.21797 0.0
C1425 C 0.85809 0.48876 0.223 0.0
C1426 C 0.8297 0.48015 0.19184 0.0
C1427 C 0.84107 0.4696 0.17003 0.0
C1428 C 0.86112 0.46994 0.17406 0.0
C1429 C 0.86945 0.47912 0.20035 0.0
C1430 C 0.8329 0.42634 0.11632 0.0
C1431 C 0.81597 0.431 0.09975 0.0
C1432 C 0.84086 0.43892 0.1386 0.0
C1433 C 0.83236 0.45682 0.14498 0.0
C1434 C 0.81553 0.46177 0.128 0.0
C1435 C 0.80743 0.44898 0.10552 0.0
H1436 H 0.77274 0.57532 0.48666 0.0
H1437 H 0.78691 0.63101 0.44821 0.0
H1438 H 0.79014 0.56002 0.44204 0.0
H1439 H 0.80331 0.61601 0.40336 0.0
H1440 H 0.85564 0.58666 0.36238 0.0
H1441 H 0.83321 0.60039 0.40003 0.0
H1442 H 0.7942 0.55322 0.38383 0.0
H1443 H 0.8174 0.53895 0.34606 0.0
C1444 C 0.77922 0.58425 0.46834 0.0
C1445 C 0.77885 0.60435 0.47128 0.0
C1446 C 0.7891 0.57551 0.44269 0.0
C1447 C 0.79854 0.58676 0.41937 0.0
C1448 C 0.7968 0.60684 0.42131 0.0
C1449 C 0.78732 0.61548 0.44703 0.0
C1450 C 0.84221 0.57922 0.36643 0.0
C1451 C 0.83834 0.5617 0.35106 0.0
C1452 C 0.82919 0.58721 0.388 0.0
C1453 C 0.81171 0.57806 0.39495 0.0
C1454 C 0.80755 0.56064 0.37916 0.0
C1455 C 0.82072 0.55257 0.35727 0.0
H1456 H 0.68438 0.51509 0.28579 0.0
H1457 H 0.65784 0.46127 0.25985 0.0
H1458 H 0.69895 0.49953 0.33298 0.0
H1459 H 0.67227 0.44602 0.30611 0.0
H1460 H 0.6803 0.42711 0.40555 0.0
H1461 H 0.66712 0.44811 0.36445 0.0
H1462 H 0.72313 0.47285 0.34914 0.0
H1463 H 0.73636 0.45183 0.39127 0.0
C1464 C 0.68174 0.49998 0.28997 0.0
C1465 C 0.66974 0.48951 0.26913 0.0
C1466 C 0.6901 0.49108 0.31696 0.0
C1467 C 0.68647 0.47161 0.32368 0.0
C1468 C 0.67499 0.46114 0.3022 0.0
C1469 C 0.66677 0.46992 0.27544 0.0
C1470 C 0.68974 0.43738 0.39403 0.0
C1471 C 0.70935 0.43778 0.40154 0.0
C1472 C 0.68222 0.44931 0.37026 0.0
C1473 C 0.69415 0.46184 0.35293 0.0
C1474 C 0.71357 0.46334 0.36203 0.0
C1475 C 0.72112 0.45139 0.38623 0.0
H1476 H 0.85777 0.4332 0.63872 0.0
H1477 H 0.81771 0.47917 0.65716 0.0
H1478 H 0.83625 0.41964 0.59971 0.0
H1479 H 0.79527 0.46487 0.61827 0.0
H1480 H 0.77369 0.44446 0.51539 0.0
H1481 H 0.79064 0.45922 0.56094 0.0
H1482 H 0.80787 0.40285 0.59335 0.0
H1483 H 0.79211 0.38854 0.54728 0.0
C1484 C 0.84411 0.44026 0.63492 0.0
C1485 C 0.83951 0.45728 0.65128 0.0
C1486 C 0.83158 0.43233 0.61253 0.0
C1487 C 0.81378 0.44095 0.60583 0.0
C1488 C 0.80887 0.45785 0.62265 0.0
C1489 C 0.82161 0.46593 0.64523 0.0
C1490 C 0.78103 0.43533 0.5325 0.0
C1491 C 0.78198 0.41541 0.52745 0.0
C1492 C 0.79066 0.44374 0.55871 0.0
C1493 C 0.80108 0.43231 0.5806 0.0
C1494 C 0.80066 0.41225 0.57652 0.0
C1495 C 0.79151 0.40399 0.55014 0.0
H1496 H 0.83068 0.52256 0.7671 0.0
H1497 H 0.88576 0.54768 0.78827 0.0
H1498 H 0.8165 0.54022 0.8125 0.0
H1499 H 0.87218 0.56421 0.83413 0.0
H1500 H 0.84002 0.61229 0.88028 0.0
H1501 H 0.8529 0.59101 0.84031 0.0
H1502 H 0.81344 0.54664 0.87004 0.0
H1503 H 0.79965 0.56879 0.90997 0.0
C1504 C 0.83979 0.53159 0.78177 0.0
C1505 C 0.85922 0.53412 0.7737 0.0
C1506 C 0.83172 0.54163 0.8079 0.0
C1507 C 0.84305 0.55408 0.82673 0.0
C1508 C 0.86276 0.5554 0.81966 0.0
C1509 C 0.87063 0.54581 0.79336 0.0
C1510 C 0.83407 0.59797 0.87874 0.0
C1511 C 0.81882 0.59229 0.89869 0.0
C1512 C 0.84164 0.58559 0.85574 0.0
C1513 C 0.83451 0.56686 0.85199 0.0
C1514 C 0.8193 0.56097 0.87211 0.0
C1515 C 0.81153 0.57357 0.89525 0.0
H1516 H 0.66613 0.55262 0.09273 0.0
H1517 H 0.70769 0.56016 0.16854 0.0
H1518 H 0.6877 0.56761 0.05476 0.0
H1519 H 0.72962 0.57569 0.1298 0.0
H1520 H 0.76589 0.58992 0.03272 0.0
H1521 H 0.7488 0.5711 0.07387 0.0
H1522 H 0.69694 0.6026 0.0532 0.0
H1523 H 0.71363 0.62109 0.01269 0.0
C1524 C 0.68001 0.55733 0.10129 0.0
C1525 C 0.68504 0.55548 0.13383 0.0
C1526 C 0.69239 0.56598 0.07943 0.0
C1527 C 0.71019 0.57322 0.08937 0.0
C1528 C 0.71593 0.57028 0.12148 0.0
C1529 C 0.70342 0.56142 0.14362 0.0
C1530 C 0.75084 0.59278 0.03705 0.0
C1531 C 0.7411 0.60689 0.01906 0.0
C1532 C 0.74112 0.5821 0.06074 0.0
C1533 C 0.72147 0.58522 0.06651 0.0
C1534 C 0.71199 0.59962 0.04901 0.0
C1535 C 0.72163 0.61028 0.02573 0.0
H1536 H 0.38426 0.47432 0.29088 0.0
H1537 H 0.33127 0.50233 0.26496 0.0
H1538 H 0.3683 0.45819 0.33494 0.0
H1539 H 0.31474 0.48521 0.30869 0.0
H1540 H 0.29409 0.45678 0.40511 0.0
H1541 H 0.31004 0.47864 0.36691 0.0
H1542 H 0.34702 0.43223 0.33683 0.0
H1543 H 0.33197 0.41115 0.37488 0.0
C1544 C 0.36909 0.47694 0.29452 0.0
C1545 C 0.35895 0.48928 0.27399 0.0
C1546 C 0.35987 0.46762 0.31982 0.0
C1547 C 0.34005 0.46992 0.32502 0.0
C1548 C 0.33 0.48305 0.30545 0.0
C1549 C 0.33942 0.49276 0.28028 0.0
C1550 C 0.30585 0.45146 0.39064 0.0
C1551 C 0.31182 0.43222 0.39339 0.0
C1552 C 0.31487 0.46391 0.36853 0.0
C1553 C 0.33005 0.45733 0.34894 0.0
C1554 C 0.33581 0.43809 0.35194 0.0
C1555 C 0.32698 0.42585 0.37381 0.0
H1556 H 0.3199 0.54344 0.15605 0.0
H1557 H 0.36102 0.58792 0.13442 0.0
H1558 H 0.29725 0.55809 0.11777 0.0
H1559 H 0.33918 0.60186 0.09617 0.0
H1560 H 0.29427 0.63459 0.04823 0.0
H1561 H 0.31063 0.61953 0.09303 0.0
H1562 H 0.29225 0.56378 0.05968 0.0
H1563 H 0.27484 0.57926 0.01522 0.0
C1564 C 0.32402 0.55641 0.14349 0.0
C1565 C 0.34223 0.56457 0.14853 0.0
C1566 C 0.31115 0.56468 0.12132 0.0
C1567 C 0.31625 0.58131 0.10398 0.0
C1568 C 0.33442 0.58939 0.10948 0.0
C1569 C 0.34711 0.58124 0.13141 0.0
C1570 C 0.29355 0.61912 0.05056 0.0
C1571 C 0.2836 0.60807 0.02787 0.0
C1572 C 0.30302 0.61044 0.07624 0.0
C1573 C 0.30326 0.59035 0.07963 0.0
C1574 C 0.2924 0.57928 0.05787 0.0
C1575 C 0.28251 0.5881 0.03231 0.0
H1576 H 0.18042 0.59213 0.9159 0.0
H1577 H 0.23713 0.57362 0.88849 0.0
H1578 H 0.16646 0.57148 0.875 0.0
H1579 H 0.22314 0.55316 0.84642 0.0
H1580 H 0.18575 0.51054 0.78336 0.0
H1581 H 0.20136 0.52532 0.83024 0.0
H1582 H 0.16669 0.57608 0.81715 0.0
H1583 H 0.15119 0.56153 0.7713 0.0
C1584 C 0.18987 0.58324 0.90156 0.0
C1585 C 0.20982 0.58445 0.90539 0.0
C1586 C 0.1819 0.57155 0.87786 0.0
C1587 C 0.19368 0.56101 0.85685 0.0
C1588 C 0.21365 0.56107 0.8622 0.0
C1589 C 0.22167 0.57269 0.88638 0.0
C1590 C 0.18154 0.52487 0.79053 0.0
C1591 C 0.16707 0.53476 0.77362 0.0
C1592 C 0.1905 0.53334 0.81734 0.0
C1593 C 0.18504 0.55176 0.82786 0.0
C1594 C 0.17093 0.56169 0.81035 0.0
C1595 C 0.1621 0.55334 0.78377 0.0
H1596 H 0.17783 0.42963 0.66118 0.0
H1597 H 0.19889 0.48623 0.63881 0.0
H1598 H 0.19811 0.416 0.61944 0.0
H1599 H 0.21906 0.47259 0.59599 0.0
H1600 H 0.26093 0.43487 0.53161 0.0
H1601 H 0.24623 0.4499 0.57912 0.0
H1602 H 0.19407 0.41829 0.56138 0.0
H1603 H 0.20853 0.40336 0.51485 0.0
C1604 C 0.18719 0.4391 0.64776 0.0
C1605 C 0.18682 0.45895 0.65328 0.0
C1606 C 0.19868 0.43133 0.62359 0.0
C1607 C 0.20989 0.44324 0.60382 0.0
C1608 C 0.21062 0.46301 0.61081 0.0
C1609 C 0.19917 0.47082 0.63542 0.0
C1610 C 0.24631 0.43122 0.53788 0.0
C1611 C 0.236 0.41776 0.51947 0.0
C1612 C 0.23789 0.43985 0.56505 0.0
C1613 C 0.21909 0.43504 0.57443 0.0
C1614 C 0.20874 0.42198 0.55543 0.0
C1615 C 0.21704 0.41348 0.52848 0.0
H1616 H 0.35574 0.50946 0.70375 0.0
H1617 H 0.31909 0.54348 0.76508 0.0
H1618 H 0.34516 0.52829 0.65706 0.0
H1619 H 0.30903 0.56249 0.71858 0.0
H1620 H 0.32667 0.60624 0.63591 0.0
H1621 H 0.33528 0.58407 0.67846 0.0
H1622 H 0.30619 0.53828 0.6289 0.0
H1623 H 0.29676 0.56086 0.58597 0.0
C1624 C 0.34542 0.5209 0.70727 0.0
C1625 C 0.33832 0.52503 0.73819 0.0
C1626 C 0.33927 0.53153 0.68051 0.0
C1627 C 0.3262 0.54671 0.68428 0.0
C1628 C 0.31902 0.55075 0.71507 0.0
C1629 C 0.32483 0.5399 0.74166 0.0
C1630 C 0.32214 0.59145 0.63363 0.0
C1631 C 0.31097 0.58538 0.60731 0.0
C1632 C 0.32706 0.57878 0.65823 0.0
C1633 C 0.32136 0.55954 0.65698 0.0
C1634 C 0.31076 0.5531 0.6303 0.0
C1635 C 0.30541 0.56598 0.60578 0.0
H1636 H 0.2626 0.58466 0.46714 0.0
H1637 H 0.21122 0.61812 0.48264 0.0
H1638 H 0.24752 0.56968 0.41992 0.0
H1639 H 0.1964 0.60326 0.4364 0.0
H1640 H 0.17993 0.59145 0.33687 0.0
H1641 H 0.20059 0.60479 0.37833 0.0
H1642 H 0.21963 0.54776 0.40345 0.0
H1643 H 0.19909 0.53439 0.36092 0.0
C1644 C 0.24811 0.58874 0.46066 0.0
C1645 C 0.23821 0.60273 0.47865 0.0
C1646 C 0.23948 0.58015 0.43365 0.0
C1647 C 0.22086 0.58551 0.42399 0.0
C1648 C 0.21092 0.59912 0.44255 0.0
C1649 C 0.21943 0.60758 0.46934 0.0
C1650 C 0.18895 0.58179 0.3506 0.0
C1651 C 0.18792 0.56191 0.34563 0.0
C1652 C 0.20065 0.5894 0.37461 0.0
C1653 C 0.21145 0.57732 0.39477 0.0
C1654 C 0.21153 0.55747 0.38834 0.0
C1655 C 0.19986 0.54981 0.36388 0.0
H1656 H 0.13791 0.47991 0.20113 0.0
H1657 H 0.19397 0.49485 0.23688 0.0
H1658 H 0.15232 0.46447 0.15482 0.0
H1659 H 0.20878 0.47814 0.19108 0.0
H1660 H 0.22943 0.45178 0.09479 0.0
H1661 H 0.2154 0.47428 0.13395 0.0
H1662 H 0.16778 0.43544 0.14754 0.0
H1663 H 0.18112 0.41392 0.10827 0.0
C1664 C 0.15341 0.4798 0.19906 0.0
C1665 C 0.16483 0.48827 0.22287 0.0
C1666 C 0.16173 0.47083 0.17254 0.0
C1667 C 0.18181 0.46948 0.16944 0.0
C1668 C 0.19329 0.47886 0.19252 0.0
C1669 C 0.18485 0.48834 0.21887 0.0
C1670 C 0.21572 0.44841 0.10565 0.0
C1671 C 0.20635 0.4311 0.09819 0.0
C1672 C 0.20779 0.46116 0.1284 0.0
C1673 C 0.19031 0.45685 0.14395 0.0
C1674 C 0.18095 0.43967 0.13575 0.0
C1675 C 0.18875 0.42713 0.11322 0.0
H1676 H 0.25817 0.43071 0.96508 0.0
H1677 H 0.3078 0.39415 0.97637 0.0
H1678 H 0.27355 0.44616 0.91862 0.0
H1679 H 0.32299 0.40953 0.93099 0.0
H1680 H 0.34024 0.42424 0.8332 0.0
H1681 H 0.31911 0.4103 0.87343 0.0
H1682 H 0.30167 0.46708 0.90312 0.0
H1683 H 0.32257 0.48105 0.86169 0.0
C1684 C 0.27234 0.42602 0.95781 0.0
C1685 C 0.28167 0.41107 0.9744 0.0
C1686 C 0.28115 0.43489 0.93124 0.0
C1687 C 0.29938 0.42887 0.92066 0.0
C1688 C 0.30875 0.41422 0.93781 0.0
C1689 C 0.30004 0.40546 0.96414 0.0
C1690 C 0.33148 0.43373 0.8477 0.0
C1691 C 0.33305 0.45369 0.84436 0.0
C1692 C 0.31951 0.42577 0.87101 0.0
C1693 C 0.30904 0.43756 0.89211 0.0
C1694 C 0.30952 0.45758 0.88727 0.0
C1695 C 0.32141 0.46559 0.86348 0.0
H1696 H 0.28245 0.10331 0.33624 0.0
H1697 H 0.22463 0.12415 0.32368 0.0
H1698 H 0.28687 0.10257 0.27819 0.0
H1699 H 0.22889 0.12313 0.26522 0.0
H1700 H 0.25394 0.14338 0.1686 0.0
H1701 H 0.24907 0.14206 0.22652 0.0
H1702 H 0.27513 0.08584 0.22909 0.0
H1703 H 0.27977 0.08702 0.17104 0.0
C1704 C 0.27066 0.10765 0.32094 0.0
C1705 C 0.25327 0.11405 0.33429 0.0
C1706 C 0.27313 0.10706 0.28776 0.0
C1707 C 0.25829 0.11296 0.26726 0.0
C1708 C 0.24065 0.11875 0.28057 0.0
C1709 C 0.23813 0.11917 0.31387 0.0
C1710 C 0.25861 0.13073 0.18152 0.0
C1711 C 0.26716 0.11529 0.16519 0.0
C1712 C 0.25573 0.12994 0.21462 0.0
C1713 C 0.26149 0.11374 0.23217 0.0
C1714 C 0.2706 0.09853 0.2161 0.0
C1715 C 0.27338 0.09928 0.1829 0.0
H1716 H 0.16802 0.03238 0.43148 0.0
H1717 H 0.12473 0.98847 0.42024 0.0
H1718 H 0.1659 0.02893 0.48964 0.0
H1719 H 0.12317 0.98469 0.47825 0.0
H1720 H 0.14528 0.97017 0.58215 0.0
H1721 H 0.14605 0.97329 0.52335 0.0
H1722 H 0.14033 0.03475 0.53241 0.0
H1723 H 0.13965 0.03167 0.59051 0.0
C1724 C 0.15799 0.0221 0.44126 0.0
C1725 C 0.14666 0.01063 0.42101 0.0
C1726 C 0.15685 0.02007 0.47458 0.0
C1727 C 0.14447 1.00644 0.48829 0.0
C1728 C 0.13305 0.99508 0.4682 0.0
C1729 C 0.13401 0.99725 0.43495 0.0
C1730 C 0.14398 0.98426 0.57138 0.0
C1731 C 0.14212 1.00059 0.59082 0.0
C1732 C 0.14439 0.98606 0.53793 0.0
C1733 C 0.1433 1.00428 0.52351 0.0
C1734 C 0.14132 0.02057 0.54296 0.0
C1735 C 0.14065 0.01874 0.57622 0.0
H1736 H 0.22973 0.91656 0.664 0.0
H1737 H 0.27489 0.87416 0.66599 0.0
H1738 H 0.23202 0.91987 0.72243 0.0
H1739 H 0.27723 0.87743 0.72403 0.0
H1740 H 0.29217 0.90449 0.81991 0.0
H1741 H 0.28842 0.90236 0.76162 0.0
H1742 H 0.2268 0.90185 0.7728 0.0
H1743 H 0.23058 0.90459 0.83077 0.0
C1744 C 0.23989 0.90774 0.67699 0.0
C1745 C 0.25227 0.89527 0.66049 0.0
C1746 C 0.24128 0.90968 0.71034 0.0
C1747 C 0.25505 0.89915 0.72766 0.0
C1748 C 0.26685 0.88611 0.71122 0.0
C1749 C 0.26545 0.88419 0.67803 0.0
C1750 C 0.27787 0.90413 0.80979 0.0
C1751 C 0.26171 0.90441 0.82983 0.0
C1752 C 0.2757 0.90273 0.77654 0.0
C1753 C 0.2573 0.9017 0.76274 0.0
C1754 C 0.24114 0.90263 0.78274 0.0
C1755 C 0.24332 0.90395 0.81595 0.0
H1756 H 0.39674 0.01516 0.91589 0.0
H1757 H 0.33926 0.99247 0.92245 0.0
H1758 H 0.3966 0.02162 0.97334 0.0
H1759 H 0.33937 0.99819 0.98028 0.0
H1760 H 0.39663 0.01074 0.08172 0.0
H1761 H 0.39702 1.005 0.02408 0.0
H1762 H 0.33865 0.02555 0.01731 0.0
H1763 H 0.33807 0.03057 0.07535 0.0
C1764 C 0.38415 0.01138 0.92973 0.0
C1765 C 0.36801 1.00337 0.91467 0.0
C1766 C 0.3841 0.01497 0.96264 0.0
C1767 C 0.36792 0.01054 0.9813 0.0
C1768 C 0.35194 1.00204 0.96642 0.0
C1769 C 0.35199 0.99847 0.9334 0.0
C1770 C 0.38392 0.01408 0.06786 0.0
C1771 C 0.3673 0.021 0.08304 0.0
C1772 C 0.38417 0.01092 0.03484 0.0
C1773 C 0.36781 0.01468 0.01619 0.0
C1774 C 0.35137 0.02222 0.03117 0.0
C1775 C 0.35113 0.02539 0.0643 0.0
H1776 H 0.73461 0.91743 0.66124 0.0
H1777 H 0.79138 0.89429 0.67532 0.0
H1778 H 0.73066 0.92077 0.71908 0.0
H1779 H 0.78732 0.89687 0.7334 0.0
H1780 H 0.78094 0.9177 0.8351 0.0
H1781 H 0.78502 0.91844 0.777 0.0
H1782 H 0.72573 0.90154 0.76511 0.0
H1783 H 0.72166 0.90158 0.82342 0.0
C1784 C 0.74619 0.91293 0.67685 0.0
C1785 C 0.76326 0.90546 0.66399 0.0
C1786 C 0.74392 0.91477 0.70997 0.0
C1787 C 0.7586 0.90895 0.73098 0.0
C1788 C 0.77582 0.90177 0.71797 0.0
C1789 C 0.77817 0.9002 0.68476 0.0
C1790 C 0.76883 0.91417 0.81993 0.0
C1791 C 0.75103 0.90938 0.83351 0.0
C1792 C 0.77115 0.91453 0.78669 0.0
C1793 C 0.75578 0.90985 0.76631 0.0
C1794 C 0.73783 0.90547 0.78003 0.0
C1795 C 0.73546 0.9054 0.81334 0.0
H1796 H 0.84997 0.99014 0.41262 0.0
H1797 H 0.87915 0.04442 0.42143 0.0
H1798 H 0.84742 0.98791 0.47079 0.0
H1799 H 0.87725 0.04204 0.47997 0.0
H1800 H 0.8676 0.97853 0.57383 0.0
H1801 H 0.8676 0.98186 0.51545 0.0
H1802 H 0.85641 0.04263 0.52532 0.0
H1803 H 0.857 0.03924 0.58355 0.0
C1804 C 0.85593 1.00156 0.42716 0.0
C1805 C 0.86493 0.01737 0.41271 0.0
C1806 C 0.85455 1.00026 0.46047 0.0
C1807 C 0.86236 0.01465 0.48014 0.0
C1808 C 0.87091 0.03077 0.46557 0.0
C1809 C 0.87206 0.03217 0.43212 0.0
C1810 C 0.86505 0.99253 0.56336 0.0
C1811 C 0.86251 1.00862 0.58306 0.0
C1812 C 0.86496 0.99448 0.52998 0.0
C1813 C 0.86204 0.01255 0.51564 0.0
C1814 C 0.8591 0.02859 0.5355 0.0
C1815 C 0.85941 0.02665 0.56885 0.0
H1816 H 0.78556 0.12166 0.32255 0.0
H1817 H 0.7252 0.11157 0.33816 0.0
H1818 H 0.78057 0.11954 0.26469 0.0
H1819 H 0.72016 0.10916 0.28034 0.0
H1820 H 0.71708 0.12908 0.1734 0.0
H1821 H 0.7201 0.12878 0.23217 0.0
H1822 H 0.77299 0.09669 0.22365 0.0
H1823 H 0.76993 0.0975 0.16536 0.0
C1824 C 0.77127 0.11882 0.31355 0.0
C1825 C 0.75578 0.11695 0.33478 0.0
C1826 C 0.76838 0.11753 0.28045 0.0
C1827 C 0.74994 0.11415 0.26787 0.0
C1828 C 0.73446 0.11209 0.28919 0.0
C1829 C 0.73735 0.11349 0.32231 0.0
C1830 C 0.72914 0.12181 0.18438 0.0
C1831 C 0.74349 0.11362 0.16521 0.0
C1832 C 0.73091 0.12159 0.2179 0.0
C1833 C 0.74699 0.113 0.23259 0.0
C1834 C 0.76074 0.10391 0.21316 0.0
C1835 C 0.75901 0.1043 0.17986 0.0
H1836 H 0.64775 0.97115 0.928 0.0
H1837 H 0.66897 0.02846 0.91255 0.0
H1838 H 0.64864 0.97636 0.98609 0.0
H1839 H 0.67085 0.03358 0.97035 0.0
H1840 H 0.64773 0.04485 0.07124 0.0
H1841 H 0.65 0.03906 0.01352 0.0
H1842 H 0.66766 0.98056 0.03216 0.0
H1843 H 0.66444 0.9863 0.08963 0.0
C1844 C 0.65296 0.9847 0.93725 0.0
C1845 C 0.65804 0.99949 0.91616 0.0
C1846 C 0.65356 0.98773 0.97042 0.0
C1847 C 0.65962 1.0055 0.98298 0.0
C1848 C 0.6656 0.01992 0.9616 0.0
C1849 C 0.66465 0.017 0.92855 0.0
C1850 C 0.65217 0.03084 0.06276 0.0
C1851 C 0.65568 0.01597 0.0846 0.0
C1852 C 0.6536 0.02749 0.02979 0.0
C1853 C 0.65895 1.00928 0.01808 0.0
C1854 C 0.66307 0.9946 0.0402 0.0
C1855 C 0.6613 0.99789 0.0731 0.0
H1856 H 0.79831 0.62574 0.67069 0.0
H1857 H 0.74621 0.59256 0.66615 0.0
H1858 H 0.79579 0.62687 0.72925 0.0
H1859 H 0.74388 0.59303 0.7245 0.0
H1860 H 0.73156 0.61969 0.82213 0.0
H1861 H 0.73592 0.61618 0.76426 0.0
H1862 H 0.79699 0.60916 0.77849 0.0
H1863 H 0.79253 0.61322 0.83617 0.0
C1864 C 0.78659 0.61833 0.68238 0.0
C1865 C 0.77235 0.60927 0.66412 0.0
C1866 C 0.7851 0.61894 0.71584 0.0
C1867 C 0.76945 0.61028 0.73154 0.0
C1868 C 0.75581 0.6003 0.71316 0.0
C1869 C 0.75719 0.59992 0.67981 0.0
C1870 C 0.74586 0.61739 0.81272 0.0
C1871 C 0.76169 0.61695 0.8334 0.0
C1872 C 0.7484 0.61525 0.77968 0.0
C1873 C 0.76683 0.61233 0.76673 0.0
C1874 C 0.78266 0.61171 0.78759 0.0
C1875 C 0.78012 0.61406 0.82059 0.0
H1876 H 0.63678 0.53232 0.08996 0.0
H1877 H 0.64852 0.4719 0.07799 0.0
H1878 H 0.63608 0.53645 0.03194 0.0
H1879 H 0.64755 0.47605 0.01942 0.0
H1880 H 0.6239 0.49132 0.91791 0.0
H1881 H 0.62203 0.48726 0.97575 0.0
H1882 H 0.66355 0.53246 0.98865 0.0
H1883 H 0.66623 0.53609 0.93052 0.0
C1884 C 0.63876 0.51982 0.07494 0.0
C1885 C 0.64259 0.50171 0.08845 0.0
C1886 C 0.63857 0.52227 0.04175 0.0
C1887 C 0.64186 0.5066 0.02144 0.0
C1888 C 0.64492 0.48832 0.03476 0.0
C1889 C 0.64546 0.48594 0.06807 0.0
C1890 C 0.63289 0.50027 0.93284 0.0
C1891 C 0.64552 0.51383 0.91931 0.0
C1892 C 0.63168 0.49796 0.96601 0.0
C1893 C 0.64273 0.50945 0.98641 0.0
C1894 C 0.65483 0.52349 0.97322 0.0
C1895 C 0.6563 0.5256 0.93995 0.0
H1896 H 0.78858 0.42901 0.32838 0.0
H1897 H 0.75115 0.37972 0.33371 0.0
H1898 H 0.78478 0.42951 0.27001 0.0
H1899 H 0.74712 0.38047 0.27574 0.0
H1900 H 0.72766 0.4009 0.17673 0.0
H1901 H 0.73183 0.40222 0.23512 0.0
H1902 H 0.79296 0.40899 0.22239 0.0
H1903 H 0.78871 0.40801 0.16427 0.0
C1904 C 0.77971 0.41819 0.31714 0.0
C1905 C 0.77004 0.40443 0.33575 0.0
C1906 C 0.77746 0.41854 0.28377 0.0
C1907 C 0.76544 0.40518 0.26846 0.0
C1908 C 0.75612 0.39121 0.28698 0.0
C1909 C 0.75845 0.39078 0.3202 0.0
C1910 C 0.74192 0.40281 0.18654 0.0
C1911 C 0.75786 0.40406 0.16612 0.0
C1912 C 0.74434 0.40344 0.21983 0.0
C1913 C 0.76275 0.40555 0.23322 0.0
C1914 C 0.77862 0.40739 0.21273 0.0
C1915 C 0.77621 0.40659 0.17951 0.0
H1916 H 0.87028 0.54461 0.57212 0.0
H1917 H 0.86178 0.48388 0.58642 0.0
H1918 H 0.86986 0.5397 0.5138 0.0
H1919 H 0.86155 0.47891 0.52839 0.0
H1920 H 0.84317 0.48293 0.42112 0.0
H1921 H 0.8418 0.48731 0.47931 0.0
H1922 H 0.89235 0.52297 0.47513 0.0
H1923 H 0.89403 0.51828 0.41733 0.0
C1924 C 0.86821 0.53028 0.56271 0.0
C1925 C 0.86636 0.51462 0.58361 0.0
C1926 C 0.86809 0.52743 0.52949 0.0
C1927 C 0.86583 0.50889 0.51667 0.0
C1928 C 0.86329 0.49333 0.53762 0.0
C1929 C 0.86364 0.49616 0.57078 0.0
C1930 C 0.85415 0.49145 0.43264 0.0
C1931 C 0.8686 0.5004 0.41447 0.0
C1932 C 0.8533 0.49404 0.46592 0.0
C1933 C 0.86681 0.50572 0.48158 0.0
C1934 C 0.88149 0.51426 0.46356 0.0
C1935 C 0.88244 0.51154 0.43045 0.0
H1936 H 0.29377 0.39379 0.17433 0.0
H1937 H 0.23692 0.41649 0.15966 0.0
H1938 H 0.28927 0.39579 0.23245 0.0
H1939 H 0.23254 0.4195 0.21751 0.0
H1940 H 0.22249 0.39982 0.32099 0.0
H1941 H 0.22715 0.40024 0.26276 0.0
H1942 H 0.28655 0.41627 0.2768 0.0
H1943 H 0.28188 0.41482 0.33474 0.0
C1944 C 0.28045 0.39951 0.18374 0.0
C1945 C 0.26561 0.40476 0.1629 0.0
C1946 C 0.27785 0.40077 0.21693 0.0
C1947 C 0.26045 0.4077 0.22975 0.0
C1948 C 0.24591 0.41364 0.20858 0.0
C1949 C 0.24841 0.41202 0.1755 0.0
C1950 C 0.23644 0.40347 0.31132 0.0
C1951 C 0.25188 0.407 0.33194 0.0
C1952 C 0.23916 0.40385 0.27809 0.0
C1953 C 0.2573 0.40817 0.26501 0.0
C1954 C 0.27254 0.4124 0.28594 0.0
C1955 C 0.26988 0.41167 0.31907 0.0
H1956 H 0.34711 0.49276 0.91508 0.0
H1957 H 0.38547 0.54118 0.92171 0.0
H1958 H 0.34692 0.48991 0.97337 0.0
H1959 H 0.38547 0.53827 0.98018 0.0
H1960 H 0.37103 0.4759 0.07332 0.0
H1961 H 0.36906 0.48004 0.01512 0.0
H1962 H 0.36564 0.5415 0.02774 0.0
H1963 H 0.36775 0.53732 0.08564 0.0
C1964 C 0.35551 0.50279 0.92906 0.0
C1965 C 0.36646 0.51708 0.91385 0.0
C1966 C 0.35545 0.50112 0.96244 0.0
C1967 C 0.36636 0.5137 0.98141 0.0
C1968 C 0.37678 0.52844 0.96626 0.0
C1969 C 0.37678 0.53015 0.93279 0.0
C1970 C 0.36978 0.49025 0.06356 0.0
C1971 C 0.36981 0.50626 0.08398 0.0
C1972 C 0.36859 0.49265 0.03029 0.0
C1973 C 0.36725 0.51113 0.01679 0.0
C1974 C 0.36702 0.52711 0.03731 0.0
C1975 C 0.36828 0.52471 0.07051 0.0
H1976 H 0.28512 0.60331 0.66432 0.0
H1977 H 0.22584 0.61872 0.67835 0.0
H1978 H 0.28981 0.60155 0.72222 0.0
H1979 H 0.23051 0.61788 0.73654 0.0
H1980 H 0.24023 0.60119 0.83939 0.0
H1981 H 0.23596 0.59818 0.78158 0.0
H1982 H 0.29248 0.62224 0.76679 0.0
H1983 H 0.29687 0.62441 0.82489 0.0
C1984 C 0.27314 0.60648 0.67999 0.0
C1985 C 0.25517 0.61137 0.66715 0.0
C1986 C 0.27581 0.60555 0.71313 0.0
C1987 C 0.26061 0.60979 0.73415 0.0
C1988 C 0.24249 0.61428 0.72113 0.0
C1989 C 0.23977 0.61488 0.6879 0.0
C1990 C 0.25172 0.60575 0.82367 0.0
C1991 C 0.26882 0.61319 0.83639 0.0
C1992 C 0.24927 0.60411 0.79056 0.0
C1993 C 0.26378 0.61016 0.76942 0.0
C1994 C 0.28109 0.61719 0.78231 0.0
C1995 C 0.28363 0.61854 0.81551 0.0
H1996 H 0.16923 0.53264 0.41247 0.0
H1997 H 0.14725 0.47541 0.42611 0.0
H1998 H 0.17142 0.53692 0.4704 0.0
H1999 H 0.14863 0.47979 0.48428 0.0
H2000 H 0.15042 0.54632 0.57336 0.0
H2001 H 0.15137 0.54176 0.51521 0.0
H2002 H 0.16892 0.48279 0.52926 0.0
H2003 H 0.16714 0.48733 0.5872 0.0
C2004 C 0.16473 0.52103 0.42803 0.0
C2005 C 0.15791 0.50375 0.41502 0.0
C2006 C 0.16591 0.52348 0.4612 0.0
C2007 C 0.16002 0.50879 0.48212 0.0
C2008 C 0.15354 0.49133 0.46896 0.0
C2009 C 0.15265 0.4888 0.4357 0.0
C2010 C 0.15456 0.53248 0.56381 0.0
C2011 C 0.15847 0.51713 0.58454 0.0
C2012 C 0.15522 0.52983 0.53056 0.0
C2013 C 0.16012 0.51184 0.51746 0.0
C2014 C 0.16464 0.49668 0.53843 0.0
C2015 C 0.16369 0.49927 0.5716 0.0
H2016 H 0.15867 0.11296 0.96675 0.0
H2017 H 0.21607 0.11229 0.92799 0.0
H2018 H 0.14597 0.10294 0.91435 0.0
H2019 H 0.20344 0.10249 0.87572 0.0
H2020 H 0.17005 0.10694 0.7805 0.0
H2021 H 0.18035 0.11858 0.83318 0.0
H2022 H 0.15081 0.07143 0.87868 0.0
H2023 H 0.1406 0.0597 0.82586 0.0
C2024 C 0.16849 0.11076 0.94694 0.0
C2025 C 0.1883 0.11329 0.95123 0.0
C2026 C 0.16128 0.10497 0.91718 0.0
C2027 C 0.17378 0.10205 0.8912 0.0
C2028 C 0.19355 0.1048 0.89542 0.0
C2029 C 0.20077 0.11023 0.92527 0.0
C2030 C 0.16556 0.09924 0.8018 0.0
C2031 C 0.1546 0.08243 0.79928 0.0
C2032 C 0.17154 0.1058 0.8318 0.0
C2033 C 0.16637 0.09583 0.85976 0.0
C2034 C 0.15487 0.07937 0.85737 0.0
C2035 C 0.14917 0.07263 0.8273 0.0
H2036 H 0.16978 0.9657 0.18578 0.0
H2037 H 0.14767 0.9094 0.20869 0.0
H2038 H 0.18254 0.95336 0.13547 0.0
H2039 H 0.16018 0.89718 0.15801 0.0
H2040 H 0.16629 0.89004 0.0481 0.0
H2041 H 0.15385 0.90192 0.09908 0.0
H2042 H 0.20785 0.93013 0.11767 0.0
H2043 H 0.22045 0.91803 0.06708 0.0
C2044 C 0.16779 0.95066 0.1803 0.0
C2045 C 0.15773 0.93853 0.20136 0.0
C2046 C 0.17506 0.94362 0.15142 0.0
C2047 C 0.17231 0.92434 0.14291 0.0
C2048 C 0.16227 0.91218 0.16385 0.0
C2049 C 0.15509 0.91919 0.19284 0.0
C2050 C 0.17558 0.89861 0.06317 0.0
C2051 C 0.19435 0.90312 0.05342 0.0
C2052 C 0.16845 0.90542 0.09233 0.0
C2053 C 0.1799 0.91695 0.1122 0.0
C2054 C 0.19864 0.92148 0.10254 0.0
C2055 C 0.20581 0.91459 0.0735 0.0
H2056 H 0.35177 0.97022 0.31532 0.0
H2057 H 0.37805 0.91588 0.29133 0.0
H2058 H 0.33987 0.9566 0.36526 0.0
H2059 H 0.36632 0.90235 0.34165 0.0
H2060 H 0.30378 0.91831 0.43157 0.0
H2061 H 0.31616 0.93193 0.38199 0.0
H2062 H 0.37144 0.90628 0.40074 0.0
H2063 H 0.35916 0.89281 0.45075 0.0
C2064 C 0.35486 0.95533 0.32049 0.0
C2065 C 0.36579 0.94411 0.29918 0.0
C2066 C 0.34809 0.94755 0.34918 0.0
C2067 C 0.35216 0.92842 0.35728 0.0
C2068 C 0.36318 0.91722 0.33616 0.0
C2069 C 0.36989 0.92497 0.30736 0.0
C2070 C 0.31865 0.91577 0.42545 0.0
C2071 C 0.3305 0.90453 0.44527 0.0
C2072 C 0.32571 0.92354 0.39696 0.0
C2073 C 0.34475 0.92017 0.38756 0.0
C2074 C 0.35663 0.90891 0.40725 0.0
C2075 C 0.34958 0.90119 0.43586 0.0
H2076 H 0.38959 0.093 0.68462 0.0
H2077 H 0.33501 0.06527 0.70104 0.0
H2078 H 0.37744 0.10623 0.63444 0.0
H2079 H 0.32303 0.0783 0.65065 0.0
H2080 H 0.31668 0.08726 0.54229 0.0
H2081 H 0.3294 0.07429 0.59218 0.0
H2082 H 0.35281 0.12984 0.61602 0.0
H2083 H 0.33985 0.14296 0.56627 0.0
C2084 C 0.37497 0.08984 0.67773 0.0
C2085 C 0.36329 0.07803 0.69691 0.0
C2086 C 0.36804 0.0974 0.64894 0.0
C2087 C 0.34933 0.09323 0.63864 0.0
C2088 C 0.33763 0.08149 0.65779 0.0
C2089 C 0.34451 0.07401 0.68664 0.0
C2090 C 0.32437 0.09678 0.55823 0.0
C2091 C 0.32712 0.1162 0.55033 0.0
C2092 C 0.33169 0.08932 0.5868 0.0
C2093 C 0.342 0.10108 0.60801 0.0
C2094 C 0.34507 0.1204 0.59993 0.0
C2095 C 0.33767 0.1279 0.5714 0.0
H2096 H 0.85131 0.89352 0.04367 0.0
H2097 H 0.79717 0.91993 0.06852 0.0
H2098 H 0.86504 0.9049 0.09401 0.0
H2099 H 0.81103 0.93152 0.1185 0.0
H2100 H 0.87494 0.91198 0.20333 0.0
H2101 H 0.86125 0.89969 0.15343 0.0
H2102 H 0.8361 0.95518 0.13442 0.0
H2103 H 0.84995 0.96756 0.18374 0.0
C2104 C 0.84229 0.90162 0.0599 0.0
C2105 C 0.82315 0.90587 0.05194 0.0
C2106 C 0.85017 0.90813 0.08872 0.0
C2107 C 0.8391 0.91911 0.11007 0.0
C2108 C 0.81997 0.9233 0.10223 0.0
C2109 C 0.81206 0.91672 0.07352 0.0
C2110 C 0.86662 0.92159 0.18839 0.0
C2111 C 0.86344 0.94072 0.1977 0.0
C2112 C 0.85878 0.91454 0.15986 0.0
C2113 C 0.84755 0.92647 0.1402 0.0
C2114 C 0.84442 0.94558 0.14942 0.0
C2115 C 0.85232 0.95264 0.17778 0.0
H2116 H 0.79801 0.0997 0.93714 0.0
H2117 H 0.85363 0.12209 0.96361 0.0
H2118 H 0.81131 0.0878 0.88702 0.0
H2119 H 0.86682 0.11042 0.91295 0.0
H2120 H 0.87563 0.10548 0.80272 0.0
H2121 H 0.86318 0.11718 0.85382 0.0
H2122 H 0.83487 0.06289 0.86939 0.0
H2123 H 0.84755 0.05101 0.81877 0.0
C2124 C 0.81311 0.10192 0.93252 0.0
C2125 C 0.82477 0.11177 0.95462 0.0
C2126 C 0.82071 0.09514 0.90369 0.0
C2127 C 0.84009 0.09816 0.89615 0.0
C2128 C 0.85176 0.10808 0.91804 0.0
C2129 C 0.84419 0.11477 0.94703 0.0
C2130 C 0.86692 0.09595 0.81714 0.0
C2131 C 0.86254 0.07731 0.80645 0.0
C2132 C 0.85979 0.10267 0.8464 0.0
C2133 C 0.84803 0.09095 0.86548 0.0
C2134 C 0.84368 0.07233 0.85491 0.0
C2135 C 0.85091 0.06556 0.8258 0.0
H2136 H 0.67628 0.14147 0.57472 0.0
H2137 H 0.70208 0.08701 0.54988 0.0
H2138 H 0.66346 0.12733 0.62374 0.0
H2139 H 0.68956 0.07309 0.59915 0.0
H2140 H 0.68219 0.06247 0.7073 0.0
H2141 H 0.6947 0.07688 0.65841 0.0
H2142 H 0.63932 0.1022 0.63932 0.0
H2143 H 0.6266 0.0875 0.68793 0.0
C2144 C 0.67912 0.12648 0.57952 0.0
C2145 C 0.69026 0.11541 0.55829 0.0
C2146 C 0.67181 0.11841 0.60765 0.0
C2147 C 0.67558 0.09915 0.61522 0.0
C2148 C 0.68668 0.08806 0.59409 0.0
C2149 C 0.69389 0.09608 0.56588 0.0
C2150 C 0.67258 0.07092 0.69259 0.0
C2151 C 0.65333 0.07373 0.70156 0.0
C2152 C 0.67979 0.07921 0.66461 0.0
C2153 C 0.66796 0.0906 0.6451 0.0
C2154 C 0.6488 0.09364 0.65416 0.0
C2155 C 0.64154 0.08524 0.68205 0.0
H2156 H 0.66807 0.97258 0.31849 0.0
H2157 H 0.64075 0.91865 0.29541 0.0
H2158 H 0.68158 0.9583 0.36683 0.0
H2159 H 0.65406 0.90451 0.34407 0.0
H2160 H 0.66368 0.89431 0.45234 0.0
H2161 H 0.6504 0.90824 0.40349 0.0
H2162 H 0.70556 0.93305 0.38117 0.0
H2163 H 0.71896 0.91891 0.42971 0.0
C2164 C 0.66507 0.95765 0.32352 0.0
C2165 C 0.65335 0.94675 0.303 0.0
C2166 C 0.67278 0.9495 0.35126 0.0
C2167 C 0.66885 0.93032 0.35915 0.0
C2168 C 0.65711 0.91941 0.33875 0.0
C2169 C 0.64947 0.92753 0.31091 0.0
C2170 C 0.67304 0.90255 0.43689 0.0
C2171 C 0.69239 0.90551 0.44501 0.0
C2172 C 0.66542 0.91054 0.40894 0.0
C2173 C 0.67696 0.92173 0.38863 0.0
C2174 C 0.69628 0.9247 0.39667 0.0
C2175 C 0.70393 0.91663 0.42453 0.0
H2176 H 0.67139 0.60613 0.28244 0.0
H2177 H 0.64629 0.55611 0.32673 0.0
H2178 H 0.682 0.61748 0.33515 0.0
H2179 H 0.65671 0.56761 0.37965 0.0
H2180 H 0.66271 0.61028 0.46828 0.0
H2181 H 0.64992 0.59975 0.41617 0.0
H2182 H 0.70708 0.60092 0.37635 0.0
H2183 H 0.71982 0.61109 0.42839 0.0
C2184 C 0.66793 0.59775 0.30354 0.0
C2185 C 0.65809 0.58027 0.30071 0.0
C2186 C 0.67406 0.60416 0.33353 0.0
C2187 C 0.67012 0.59336 0.36118 0.0
C2188 C 0.65979 0.57617 0.35855 0.0
C2189 C 0.65398 0.56956 0.32843 0.0
C2190 C 0.67243 0.60829 0.44828 0.0
C2191 C 0.69219 0.61139 0.45213 0.0
C2192 C 0.66518 0.60222 0.41871 0.0
C2193 C 0.67758 0.59963 0.39251 0.0
C2194 C 0.69729 0.60294 0.39628 0.0
C2195 C 0.70456 0.60861 0.42596 0.0
H2196 H 0.72046 0.42075 0.56847 0.0
H2197 H 0.66569 0.39598 0.54306 0.0
H2198 H 0.70673 0.43288 0.61819 0.0
H2199 H 0.65207 0.4079 0.59317 0.0
H2200 H 0.6426 0.41413 0.70264 0.0
H2201 H 0.65581 0.40209 0.65229 0.0
H2202 H 0.68232 0.4571 0.63488 0.0
H2203 H 0.66892 0.46926 0.68481 0.0
C2204 C 0.70546 0.41804 0.57327 0.0
C2205 C 0.69416 0.40744 0.55166 0.0
C2206 C 0.69762 0.42495 0.60182 0.0
C2207 C 0.67836 0.42132 0.60947 0.0
C2208 C 0.66704 0.41069 0.58801 0.0
C2209 C 0.67486 0.40386 0.55934 0.0
C2210 C 0.65109 0.42371 0.68796 0.0
C2211 C 0.65476 0.44263 0.69788 0.0
C2212 C 0.65866 0.4168 0.65915 0.0
C2213 C 0.67011 0.42866 0.63979 0.0
C2214 C 0.67376 0.44756 0.64962 0.0
C2215 C 0.66613 0.4545 0.6783 0.0
H2216 H 0.81677 0.43317 0.95474 0.0
H2217 H 0.84256 0.3785 0.93118 0.0
H2218 H 0.8301 0.44693 0.90593 0.0
H2219 H 0.85618 0.39248 0.88265 0.0
H2220 H 0.8939 0.43156 0.81898 0.0
H2221 H 0.88064 0.41744 0.86763 0.0
H2222 H 0.82563 0.44299 0.84649 0.0
H2223 H 0.83868 0.45681 0.79751 0.0
C2224 C 0.82514 0.42402 0.93913 0.0
C2225 C 0.8285 0.40467 0.94693 0.0
C2226 C 0.83282 0.43195 0.91118 0.0
C2227 C 0.84413 0.42075 0.89053 0.0
C2228 C 0.84768 0.40148 0.89838 0.0
C2229 C 0.83989 0.3935 0.92623 0.0
C2230 C 0.87893 0.43401 0.82442 0.0
C2231 C 0.8674 0.44537 0.80422 0.0
C2232 C 0.87136 0.42594 0.85235 0.0
C2233 C 0.85214 0.42916 0.86081 0.0
C2234 C 0.84059 0.4405 0.84074 0.0
C2235 C 0.84811 0.44847 0.8127 0.0
H2236 H 0.87769 0.60546 0.20884 0.0
H2237 H 0.85274 0.55097 0.18231 0.0
H2238 H 0.86497 0.61977 0.15982 0.0
H2239 H 0.83988 0.56534 0.1336 0.0
H2240 H 0.80271 0.60335 0.06888 0.0
H2241 H 0.8155 0.58942 0.11799 0.0
H2242 H 0.86976 0.61746 0.10082 0.0
H2243 H 0.85705 0.63128 0.05141 0.0
C2244 C 0.86961 0.5965 0.19251 0.0
C2245 C 0.86621 0.57708 0.19959 0.0
C2246 C 0.86231 0.60471 0.16445 0.0
C2247 C 0.85141 0.59367 0.14294 0.0
C2248 C 0.84799 0.57427 0.14999 0.0
C2249 C 0.85533 0.56605 0.17797 0.0
C2250 C 0.81743 0.6064 0.07532 0.0
C2251 C 0.82888 0.61838 0.05607 0.0
C2252 C 0.82473 0.59844 0.10352 0.0
C2253 C 0.84363 0.60233 0.11319 0.0
C2254 C 0.85506 0.61441 0.09415 0.0
C2255 C 0.84777 0.62233 0.06586 0.0
H2256 H 0.31422 0.43518 0.54191 0.0
H2257 H 0.33867 0.3795 0.56268 0.0
H2258 H 0.32744 0.44759 0.59181 0.0
H2259 H 0.3522 0.39211 0.61229 0.0
H2260 H 0.38992 0.42896 0.67941 0.0
H2261 H 0.37696 0.41629 0.62945 0.0
H2262 H 0.32213 0.44216 0.65085 0.0
H2263 H 0.33488 0.45453 0.70112 0.0
C2264 C 0.3223 0.42554 0.55712 0.0
C2265 C 0.32529 0.40629 0.54828 0.0
C2266 C 0.3299 0.43268 0.58567 0.0
C2267 C 0.34077 0.42078 0.60587 0.0
C2268 C 0.34402 0.40164 0.59693 0.0
C2269 C 0.33631 0.39444 0.56846 0.0
C2270 C 0.37505 0.43177 0.67374 0.0
C2271 C 0.36347 0.44279 0.69437 0.0
C2272 C 0.36766 0.42455 0.64507 0.0
C2273 C 0.34858 0.4283 0.63633 0.0
C2274 C 0.33698 0.43929 0.65685 0.0
C2275 C 0.34432 0.44641 0.68562 0.0
H2276 H 0.30089 0.59888 0.4331 0.0
H2277 H 0.35525 0.62521 0.4565 0.0
H2278 H 0.31459 0.58637 0.38358 0.0
H2279 H 0.36883 0.61287 0.40669 0.0
H2280 H 0.35294 0.54973 0.31791 0.0
H2281 H 0.33918 0.56249 0.36716 0.0
H2282 H 0.3651 0.61753 0.34767 0.0
H2283 H 0.3787 0.60487 0.29805 0.0
C2284 C 0.3158 0.60187 0.42789 0.0
C2285 C 0.32698 0.61301 0.44889 0.0
C2286 C 0.32362 0.59473 0.39945 0.0
C2287 C 0.34276 0.59866 0.39131 0.0
C2288 C 0.35395 0.60984 0.41217 0.0
C2289 C 0.34615 0.61692 0.44069 0.0
C2290 C 0.35552 0.56462 0.32382 0.0
C2291 C 0.36688 0.5763 0.3039 0.0
C2292 C 0.34766 0.57191 0.35211 0.0
C2293 C 0.35106 0.591 0.36121 0.0
C2294 C 0.36245 0.60268 0.34142 0.0
C2295 C 0.37025 0.59542 0.31303 0.0
H2296 H 0.2226 0.60103 0.06878 0.0
H2297 H 0.16768 0.62631 0.04546 0.0
H2298 H 0.20896 0.58744 0.11749 0.0
H2299 H 0.15417 0.61293 0.09461 0.0
H2300 H 0.14498 0.60348 0.20355 0.0
H2301 H 0.15804 0.61701 0.1542 0.0
H2302 H 0.18457 0.5626 0.13201 0.0
H2303 H 0.17129 0.54893 0.18096 0.0
C2304 C 0.20758 0.60356 0.07383 0.0
C2305 C 0.19621 0.6147 0.05308 0.0
C2306 C 0.1998 0.5958 0.1018 0.0
C2307 C 0.18052 0.59912 0.10973 0.0
C2308 C 0.16915 0.61035 0.0892 0.0
C2309 C 0.1769 0.61802 0.06109 0.0
C2310 C 0.15342 0.59434 0.18802 0.0
C2311 C 0.15713 0.57513 0.19631 0.0
C2312 C 0.1609 0.6021 0.15979 0.0
C2313 C 0.17233 0.59085 0.13939 0.0
C2314 C 0.17603 0.57166 0.14758 0.0
C2315 C 0.16846 0.56387 0.17569 0.0
H2316 H 0.12893 0.43187 0.81628 0.0
H2317 H 0.18462 0.45666 0.79715 0.0
H2318 H 0.14136 0.41762 0.86547 0.0
H2319 H 0.19685 0.44267 0.8466 0.0
H2320 H 0.2044 0.43301 0.95479 0.0
H2321 H 0.19163 0.44679 0.90558 0.0
H2322 H 0.16523 0.39256 0.88206 0.0
H2323 H 0.17827 0.37858 0.93108 0.0
C2324 C 0.14384 0.43418 0.82234 0.0
C2325 C 0.15575 0.44547 0.80268 0.0
C2326 C 0.15093 0.42603 0.85058 0.0
C2327 C 0.17004 0.4291 0.85985 0.0
C2328 C 0.18197 0.44032 0.84024 0.0
C2329 C 0.17493 0.44837 0.81192 0.0
C2330 C 0.19605 0.42392 0.93905 0.0
C2331 C 0.19248 0.40462 0.94687 0.0
C2332 C 0.18871 0.43186 0.91087 0.0
C2333 C 0.17752 0.42072 0.88998 0.0
C2334 C 0.17366 0.40152 0.89793 0.0
C2335 C 0.18111 0.39354 0.92606 0.0
H2336 H 0.21857 0.20891 0.03103 0.0
H2337 H 0.27787 0.20663 0.00208 0.0
H2338 H 0.21899 0.24379 0.02706 0.0
H2339 H 0.27874 0.24183 0.99934 0.0
H2340 H 0.2698 0.30658 0.98052 0.0
H2341 H 0.26815 0.27162 0.97452 0.0
H2342 H 0.23205 0.26845 0.05872 0.0
H2343 H 0.23281 0.30297 0.06356 0.0
C2344 C 0.23167 0.21598 0.02352 0.0
C2345 C 0.2482 0.2052 0.01696 0.0
C2346 C 0.23201 0.23597 0.02153 0.0
C2347 C 0.24902 0.24574 0.01353 0.0
C2348 C 0.26537 0.23483 0.00544 0.0
C2349 C 0.26493 0.21471 0.00706 0.0
C2350 C 0.26136 0.29838 0.99749 0.0
C2351 C 0.25162 0.30766 0.02273 0.0
C2352 C 0.26055 0.27832 0.99423 0.0
C2353 C 0.24989 0.26712 0.01603 0.0
C2354 C 0.24013 0.2765 0.04108 0.0
C2355 C 0.24087 0.2964 0.04423 0.0
H2356 H 0.96154 0.97835 0.24203 0.0
H2357 H 0.96128 0.03333 0.28945 0.0
H2358 H 0.99649 0.97898 0.24002 0.0
H2359 H 0.99618 0.03464 0.286 0.0
H2360 H 0.05653 0.01817 0.31747 0.0
H2361 H 0.02212 0.02075 0.31159 0.0
H2362 H 0.02543 0.99123 0.22041 0.0
H2363 H 0.05988 0.98731 0.22763 0.0
C2364 C 0.969 0.99083 0.25119 0.0
C2365 C 0.95876 1.00574 0.26606 0.0
C2366 C 0.98907 0.99126 0.24997 0.0
C2367 C 0.99936 1.00677 0.2632 0.0
C2368 C 0.9889 0.0222 0.27636 0.0
C2369 C 0.96888 0.02158 0.2781 0.0
C2370 C 0.04996 0.01207 0.29623 0.0
C2371 C 0.06108 1.00224 0.27332 0.0
C2372 C 0.03014 0.01386 0.29253 0.0
C2373 C 0.02077 1.00618 0.2655 0.0
C2374 C 0.032 0.99707 0.24183 0.0
C2375 C 0.05188 0.99506 0.24575 0.0
H2376 H 0.28751 0.71193 0.5598 0.0
H2377 H 0.24567 0.70712 0.48374 0.0
H2378 H 0.288 0.74641 0.55327 0.0
H2379 H 0.24669 0.74209 0.47628 0.0
H2380 H 0.23885 0.80764 0.50651 0.0
H2381 H 0.23761 0.77241 0.50397 0.0
H2382 H 0.29912 0.77015 0.51631 0.0
H2383 H 0.30013 0.80501 0.5198 0.0
C2384 C 0.27834 0.71825 0.54166 0.0
C2385 C 0.26636 0.70671 0.52258 0.0
C2386 C 0.27884 0.73809 0.53756 0.0
C2387 C 0.26751 0.7471 0.51404 0.0
C2388 C 0.25554 0.73562 0.49472 0.0
C2389 C 0.25506 0.7156 0.49881 0.0
C2390 C 0.25208 0.79952 0.50808 0.0
C2391 C 0.26955 0.80895 0.51378 0.0
C2392 C 0.2514 0.77938 0.50658 0.0
C2393 C 0.26823 0.76841 0.5106 0.0
C2394 C 0.28581 0.77807 0.51403 0.0
C2395 C 0.28644 0.79805 0.51582 0.0
H2396 H 0.46228 0.04715 0.78376 0.0
H2397 H 0.4585 0.98846 0.7518 0.0
H2398 H 0.49713 0.04562 0.78093 0.0
H2399 H 0.49367 0.98649 0.75014 0.0
H2400 H 0.55895 0.99428 0.73324 0.0
H2401 H 0.52408 0.99669 0.72672 0.0
H2402 H 0.52094 0.03113 0.81284 0.0
H2403 H 0.55539 0.02966 0.81825 0.0
C2404 C 0.46901 0.03393 0.77592 0.0
C2405 C 0.45779 0.01788 0.76825 0.0
C2406 C 0.48898 0.03296 0.77454 0.0
C2407 C 0.49832 0.01578 0.76602 0.0
C2408 C 0.48701 0.99996 0.75674 0.0
C2409 C 0.4669 1.00104 0.75773 0.0
C2410 C 0.55079 1.0025 0.75057 0.0
C2411 C 0.56007 0.01161 0.77645 0.0
C2412 C 0.53077 1.00374 0.74699 0.0
C2413 C 0.51962 0.01421 0.76912 0.0
C2414 C 0.52898 0.02323 0.79493 0.0
C2415 C 0.54883 0.02207 0.7984 0.0
H2416 H 0.24699 0.81068 0.02092 0.0
H2417 H 0.27579 0.80786 0.92914 0.0
H2418 H 0.25025 0.77608 0.02665 0.0
H2419 H 0.27755 0.77331 0.93349 0.0
H2420 H 0.28858 0.71155 0.95258 0.0
H2421 H 0.29088 0.7464 0.95629 0.0
H2422 H 0.23688 0.74781 0.00753 0.0
H2423 H 0.23538 0.7129 0.0053 0.0
C2424 C 0.25417 0.80276 0.00205 0.0
C2425 C 0.26094 0.81219 0.97439 0.0
C2426 C 0.25575 0.78279 0.00508 0.0
C2427 C 0.26396 0.77165 0.9804 0.0
C2428 C 0.27133 0.78122 0.95329 0.0
C2429 C 0.27001 0.80115 0.9505 0.0
C2430 C 0.2774 0.71938 0.96504 0.0
C2431 C 0.26181 0.70958 0.97862 0.0
C2432 C 0.27858 0.73939 0.96696 0.0
C2433 C 0.26394 0.75016 0.98184 0.0
C2434 C 0.24862 0.74017 0.99628 0.0
C2435 C 0.24767 0.72011 0.99491 0.0
H2436 H 0.55675 0.98786 0.25767 0.0
H2437 H 0.55762 0.0404 0.2031 0.0
H2438 H 0.52186 0.98942 0.26063 0.0
H2439 H 0.52284 0.04283 0.20763 0.0
H2440 H 0.46146 0.02744 0.18142 0.0
H2441 H 0.49595 0.02937 0.18564 0.0
H2442 H 0.49342 1.00268 0.27933 0.0
H2443 H 0.45881 0.99925 0.27373 0.0
C2444 C 0.54944 1.00003 0.24705 0.0
C2445 C 0.55982 0.01395 0.23 0.0
C2446 C 0.52939 1.00102 0.24885 0.0
C2447 C 0.51926 0.01616 0.23408 0.0
C2448 C 0.52992 0.03064 0.21854 0.0
C2449 C 0.54991 0.0294 0.21617 0.0
C2450 C 0.46821 0.02184 0.20289 0.0
C2451 C 0.45723 0.01285 0.22693 0.0
C2452 C 0.48812 0.02326 0.20561 0.0
C2453 C 0.49776 0.01611 0.23281 0.0
C2454 C 0.48667 1.00802 0.25769 0.0
C2455 C 0.46669 1.00633 0.25472 0.0
H2456 H 0.24733 0.21138 0.51809 0.0
H2457 H 0.28152 0.21608 0.43191 0.0
H2458 H 0.2477 0.24642 0.52353 0.0
H2459 H 0.281 0.25061 0.43629 0.0
H2460 H 0.29357 0.3105 0.46308 0.0
H2461 H 0.29426 0.27565 0.46701 0.0
H2462 H 0.23531 0.27586 0.49928 0.0
H2463 H 0.23507 0.3111 0.49651 0.0
C2464 C 0.25487 0.21983 0.50031 0.0
C2465 C 0.26422 0.21082 0.47438 0.0
C2466 C 0.25494 0.23992 0.50326 0.0
C2467 C 0.26447 0.25143 0.48046 0.0
C2468 C 0.2738 0.24233 0.45469 0.0
C2469 C 0.2738 0.2224 0.45183 0.0
C2470 C 0.28088 0.30307 0.47147 0.0
C2471 C 0.26424 0.31337 0.47927 0.0
C2472 C 0.28118 0.28309 0.47349 0.0
C2473 C 0.2647 0.27283 0.48279 0.0
C2474 C 0.24828 0.28326 0.49211 0.0
C2475 C 0.24808 0.3034 0.49046 0.0
H2476 H 0.05471 0.05694 0.72237 0.0
H2477 H 0.0581 0.99695 0.74711 0.0
H2478 H 0.01988 0.05561 0.72557 0.0
H2479 H 0.02299 0.99528 0.74911 0.0
H2480 H 0.95805 1.00198 0.7674 0.0
H2481 H 0.99293 1.00435 0.77402 0.0
H2482 H 0.99549 0.04306 0.69305 0.0
H2483 H 0.96105 0.04157 0.68771 0.0
C2484 C 0.04793 0.04345 0.72856 0.0
C2485 C 0.05907 0.027 0.73411 0.0
C2486 C 0.02794 0.04262 0.73021 0.0
C2487 C 0.01849 0.02522 0.73691 0.0
C2488 C 0.02971 1.00894 0.74401 0.0
C2489 C 0.04982 1.00985 0.74278 0.0
C2490 C 0.9661 0.01115 0.75129 0.0
C2491 C 0.95668 0.02138 0.72677 0.0
C2492 C 0.98612 0.01237 0.75489 0.0
C2493 C 0.99713 0.02396 0.73416 0.0
C2494 C 0.98759 0.03425 0.70989 0.0
C2495 C 0.96774 0.0331 0.70642 0.0
H2496 H 0.78354 0.81254 0.0062 0.0
H2497 H 0.73134 0.81171 0.95078 0.0
H2498 H 0.7832 0.77761 0.00906 0.0
H2499 H 0.73015 0.77684 0.95512 0.0
H2500 H 0.74733 0.71571 0.93015 0.0
H2501 H 0.74456 0.7502 0.93367 0.0
H2502 H 0.77074 0.74889 0.0278 0.0
H2503 H 0.77504 0.71436 0.02294 0.0
C2504 C 0.7717 0.80484 0.99537 0.0
C2505 C 0.75752 0.81479 0.97815 0.0
C2506 C 0.77142 0.78476 0.99708 0.0
C2507 C 0.75674 0.77413 0.98205 0.0
C2508 C 0.74201 0.78432 0.96626 0.0
C2509 C 0.74254 0.80435 0.96399 0.0
C2510 C 0.75268 0.72272 0.95154 0.0
C2511 C 0.76174 0.71209 0.97598 0.0
C2512 C 0.75076 0.74264 0.95385 0.0
C2513 C 0.75747 0.75263 0.98101 0.0
C2514 C 0.76571 0.74189 0.00619 0.0
C2515 C 0.76791 0.72193 0.00364 0.0
H2516 H 0.76987 0.21521 0.43272 0.0
H2517 H 0.74092 0.21334 0.52445 0.0
H2518 H 0.77262 0.24969 0.43702 0.0
H2519 H 0.74515 0.24781 0.5301 0.0
H2520 H 0.73279 0.31167 0.50866 0.0
H2521 H 0.73295 0.27672 0.51107 0.0
H2522 H 0.78711 0.2759 0.46028 0.0
H2523 H 0.78615 0.3108 0.45639 0.0
C2524 C 0.76422 0.2221 0.45402 0.0
C2525 C 0.7549 0.21134 0.47797 0.0
C2526 C 0.76612 0.24199 0.4568 0.0
C2527 C 0.7591 0.25179 0.48393 0.0
C2528 C 0.75047 0.24093 0.50855 0.0
C2529 C 0.7483 0.22101 0.50554 0.0
C2530 C 0.74484 0.30395 0.4985 0.0
C2531 C 0.75941 0.31388 0.48223 0.0
C2532 C 0.74501 0.28387 0.49993 0.0
C2533 C 0.75994 0.27325 0.48554 0.0
C2534 C 0.77507 0.28341 0.47086 0.0
C2535 C 0.77467 0.30344 0.46889 0.0
H2536 H 0.78722 0.20939 0.99643 0.0
H2537 H 0.73219 0.20939 0.04365 0.0
H2538 H 0.78636 0.24433 0.99335 0.0
H2539 H 0.73064 0.24423 0.0391 0.0
H2540 H 0.74569 0.30548 0.06698 0.0
H2541 H 0.74381 0.27092 0.0631 0.0
H2542 H 0.77401 0.27282 0.97245 0.0
H2543 H 0.77726 0.30746 0.97773 0.0
C2544 C 0.7747 0.21689 0.00538 0.0
C2545 C 0.75983 0.20672 0.02044 0.0
C2546 C 0.77413 0.23696 0.00353 0.0
C2547 C 0.75851 0.24733 0.01628 0.0
C2548 C 0.74317 0.23693 0.0298 0.0
C2549 C 0.74393 0.21691 0.03217 0.0
C2550 C 0.75209 0.29859 0.04628 0.0
C2551 C 0.7619 0.30941 0.02295 0.0
C2552 C 0.75071 0.27864 0.04374 0.0
C2553 C 0.75879 0.26883 0.01746 0.0
C2554 C 0.76789 0.27973 0.99336 0.0
C2555 C 0.76949 0.29972 0.99613 0.0
H2556 H 0.77598 0.80643 0.50086 0.0
H2557 H 0.72237 0.80504 0.55241 0.0
H2558 H 0.77663 0.77124 0.5 0.0
H2559 H 0.72236 0.77018 0.55033 0.0
H2560 H 0.73796 0.7103 0.57847 0.0
H2561 H 0.73807 0.74486 0.57529 0.0
H2562 H 0.76335 0.74186 0.48063 0.0
H2563 H 0.7646 0.70691 0.48488 0.0
C2564 C 0.76421 0.79855 0.51153 0.0
C2565 C 0.74928 0.80836 0.52712 0.0
C2566 C 0.7645 0.77841 0.51095 0.0
C2567 C 0.74971 0.76773 0.52559 0.0
C2568 C 0.73433 0.77777 0.53972 0.0
C2569 C 0.73422 0.79778 0.54074 0.0
C2570 C 0.74394 0.71688 0.55716 0.0
C2571 C 0.75148 0.70562 0.5321 0.0
C2572 C 0.74364 0.73685 0.55504 0.0
C2573 C 0.75051 0.74632 0.52752 0.0
C2574 C 0.75805 0.73513 0.50232 0.0
C2575 C 0.75855 0.71504 0.5046 0.0
H2576 H 0.55919 0.5235 0.7355 0.0
H2577 H 0.554 0.47863 0.80649 0.0
H2578 H 0.52415 0.5236 0.72886 0.0
H2579 H 0.5195 0.47928 0.80104 0.0
H2580 H 0.45974 0.47111 0.77092 0.0
H2581 H 0.49452 0.47071 0.76564 0.0
H2582 H 0.49472 0.53256 0.75773 0.0
H2583 H 0.45954 0.53271 0.76172 0.0
C2584 C 0.55061 0.51365 0.74957 0.0
C2585 C 0.5594 0.50123 0.7718 0.0
C2586 C 0.53054 0.51381 0.74599 0.0
C2587 C 0.51893 0.50141 0.76433 0.0
C2588 C 0.52788 0.48882 0.78606 0.0
C2589 C 0.54775 0.48866 0.78958 0.0
C2590 C 0.46723 0.48458 0.76755 0.0
C2591 C 0.45706 0.50194 0.76706 0.0
C2592 C 0.48717 0.4844 0.76474 0.0
C2593 C 0.49754 0.50165 0.76197 0.0
C2594 C 0.48723 0.51901 0.75973 0.0
C2595 C 0.46713 0.51914 0.76212 0.0
H2596 H 0.05808 0.49393 0.31664 0.0
H2597 H 0.06105 0.52603 0.22794 0.0
H2598 H 0.02355 0.49259 0.31209 0.0
H2599 H 0.02652 0.52315 0.22183 0.0
H2600 H 0.96301 0.53662 0.24327 0.0
H2601 H 0.99795 0.53546 0.24131 0.0
H2602 H 0.99685 0.47994 0.28787 0.0
H2603 H 0.96199 0.48192 0.29149 0.0
C2604 C 0.05143 0.50058 0.29594 0.0
C2605 C 0.06256 0.51034 0.27294 0.0
C2606 C 0.03149 0.49949 0.29298 0.0
C2607 C 0.02197 0.50778 0.26656 0.0
C2608 C 0.03316 0.51687 0.24286 0.0
C2609 C 0.05313 0.51825 0.2461 0.0
C2610 C 0.97031 0.52407 0.2526 0.0
C2611 C 0.95986 0.50939 0.2676 0.0
C2612 C 0.99038 0.52332 0.25142 0.0
C2613 C 1.00048 0.50768 0.26476 0.0
C2614 C 0.98978 0.4925 0.27815 0.0
C2615 C 0.96976 0.49347 0.27992 0.0
H2616 H 0.06059 0.48696 0.75655 0.0
H2617 H 0.06151 0.53991 0.70311 0.0
H2618 H 0.02569 0.48835 0.75907 0.0
H2619 H 0.02668 0.54216 0.7072 0.0
H2620 H 0.96516 0.52731 0.68114 0.0
H2621 H 0.9997 0.52893 0.685 0.0
H2622 H 0.99735 0.50143 0.77803 0.0
H2623 H 0.96276 0.49824 0.77274 0.0
C2624 C 0.05328 0.49918 0.74611 0.0
C2625 C 0.06369 0.51328 0.72953 0.0
C2626 C 0.03323 0.50007 0.74763 0.0
C2627 C 0.0231 0.51529 0.73307 0.0
C2628 C 0.03377 0.52991 0.71795 0.0
C2629 C 0.05377 0.52878 0.71584 0.0
C2630 C 0.97195 0.52142 0.70235 0.0
C2631 C 0.961 0.51234 0.72634 0.0
C2632 C 0.9919 0.52267 0.70487 0.0
C2633 C 1.0016 0.51525 0.73182 0.0
C2634 C 0.99056 0.50698 0.75657 0.0
C2635 C 0.97057 0.50544 0.75379 0.0
H2636 H 0.46773 0.48982 0.2033 0.0
H2637 H 0.46225 0.53724 0.26934 0.0
H2638 H 0.50264 0.49088 0.2092 0.0
H2639 H 0.49716 0.53832 0.2752 0.0
H2640 H 0.55787 0.55127 0.23034 0.0
H2641 H 0.52314 0.54772 0.2353 0.0
H2642 H 0.53011 0.48676 0.24966 0.0
H2643 H 0.56504 0.49039 0.24492 0.0
C2644 C 0.47399 0.50027 0.21945 0.0
C2645 C 0.46225 0.51347 0.23581 0.0
C2646 C 0.49396 0.50081 0.22297 0.0
C2647 C 0.50265 0.51474 0.24256 0.0
C2648 C 0.49088 0.5275 0.2598 0.0
C2649 C 0.47089 0.52678 0.25665 0.0
C2650 C 0.55199 0.53715 0.23495 0.0
C2651 C 0.56413 0.52109 0.23713 0.0
C2652 C 0.53212 0.53513 0.238 0.0
C2653 C 0.52389 0.51695 0.24282 0.0
C2654 C 0.53605 0.50093 0.2458 0.0
C2655 C 0.55601 0.50301 0.2433 0.0
loop_
_geom_bond_atom_site_label_1
_geom_bond_atom_site_label_2
_geom_bond_distance
_geom_bond_site_symmetry_2
_ccdc_geom_bond_type
C0 C1 1.351 1_554 S
C0 N3 1.368 . S
C0 H5 0.931 . S
C1 C0 1.351 1_556 S
C1 N2 1.373 . S
C1 H29 0.930 . S
N2 C1 1.373 . S
N2 C4 1.340 . S
N3 C0 1.368 . S
N3 C4 1.321 1_554 S
N3 Co6 2.135 . S
C4 N2 1.340 . S
C4 N3 1.321 1_556 S
C4 H28 0.930 . S
H5 C0 0.931 . S
Co6 N3 2.135 . S
Co6 N9 2.121 . S
Co6 O14 2.055 . S
Co6 O17 2.039 . S
Co6 N20 2.140 . S
C7 O8 1.227 . S
C7 O17 1.265 . S
O8 C7 1.227 . S
N9 Co6 2.121 . S
N9 C11 1.375 . S
N9 C12 1.313 . S
C10 C11 1.338 . S
C10 N13 1.377 . S
C10 H30 0.930 . S
C11 N9 1.375 . S
C11 C10 1.338 . S
C11 H15 0.931 . S
C12 N9 1.313 . S
C12 N13 1.344 . S
C12 H16 0.930 . S
N13 C10 1.377 . S
N13 C12 1.344 . S
O14 Co6 2.055 . S
O14 C18 1.253 . S
H15 C11 0.931 . S
H16 C12 0.930 . S
O17 Co6 2.039 . S
O17 C7 1.265 . S
C18 O14 1.253 . S
C18 O19 1.227 . S
O19 C18 1.227 . S
N20 Co6 2.140 . S
N20 C23 1.346 . S
N20 C24 1.345 . S
C21 C22 1.387 . S
C21 C25 1.391 . S
C22 C21 1.387 . S
C22 C23 1.369 . S
C22 H31 0.929 . S
C23 N20 1.346 . S
C23 C22 1.369 . S
C23 H26 0.928 . S
C24 N20 1.345 . S
C24 C25 1.371 . S
C24 H27 0.931 . S
C25 C21 1.391 . S
C25 C24 1.371 . S
C25 H32 0.930 . S
H26 C23 0.928 . S
H27 C24 0.931 . S
H28 C4 0.930 . S
H29 C1 0.930 . S
H30 C10 0.930 . S
H31 C22 0.929 . S
H32 C25 0.930 . S
C33 C34 1.351 . S
C33 N36 1.368 . S
C33 H38 0.931 . S
C34 C33 1.351 . S
C34 N35 1.373 . S
C34 H62 0.930 . S
N35 C34 1.373 . S
N35 C37 1.340 . S
N36 C33 1.368 . S
N36 C37 1.321 . S
N36 Co39 2.135 . S
C37 N35 1.340 . S
C37 N36 1.321 . S
C37 H61 0.930 . S
H38 C33 0.931 . S
Co39 N36 2.135 . S
Co39 N42 2.121 . S
Co39 O47 2.055 . S
Co39 O50 2.039 . S
Co39 N53 2.140 . S
C40 O41 1.227 . S
C40 O50 1.265 . S
O41 C40 1.227 . S
N42 Co39 2.121 . S
N42 C44 1.375 . S
N42 C45 1.313 . S
C43 C44 1.338 . S
C43 N46 1.377 . S
C43 H63 0.930 1_565 S
C44 N42 1.375 . S
C44 C43 1.338 . S
C44 H48 0.931 . S
C45 N42 1.313 . S
C45 N46 1.344 . S
C45 H49 0.930 . S
N46 C43 1.377 . S
N46 C45 1.344 . S
O47 Co39 2.055 . S
O47 C51 1.253 . S
H48 C44 0.931 . S
H49 C45 0.930 . S
O50 Co39 2.039 . S
O50 C40 1.265 . S
C51 O47 1.253 . S
C51 O52 1.227 . S
O52 C51 1.227 . S
N53 Co39 2.140 . S
N53 C56 1.346 . S
N53 C57 1.345 . S
C54 C55 1.387 . S
C54 C58 1.391 . S
C55 C54 1.387 . S
C55 C56 1.369 . S
C55 H64 0.929 . S
C56 N53 1.346 . S
C56 C55 1.369 . S
C56 H59 0.928 . S
C57 N53 1.345 . S
C57 C58 1.371 . S
C57 H60 0.931 . S
C58 C54 1.391 . S
C58 C57 1.371 . S
C58 H65 0.930 . S
H59 C56 0.928 . S
H60 C57 0.931 . S
H61 C37 0.930 . S
H62 C34 0.930 . S
H63 C43 0.930 1_545 S
H64 C55 0.929 . S
H65 C58 0.930 . S
C66 C67 1.351 . S
C66 N69 1.368 . S
C66 H71 0.931 . S
C67 C66 1.351 . S
C67 N68 1.373 . S
C67 H95 0.930 . S
N68 C67 1.373 . S
N68 C70 1.340 . S
N69 C66 1.368 . S
N69 C70 1.321 . S
N69 Co72 2.135 . S
C70 N68 1.340 . S
C70 N69 1.321 . S
C70 H94 0.930 . S
H71 C66 0.931 . S
Co72 N69 2.135 . S
Co72 N75 2.121 . S
Co72 O80 2.055 . S
Co72 O83 2.039 . S
Co72 N86 2.140 . S
C73 O74 1.227 . S
C73 O83 1.265 . S
O74 C73 1.227 . S
N75 Co72 2.121 . S
N75 C77 1.375 . S
N75 C78 1.313 . S
C76 C77 1.338 . S
C76 N79 1.377 . S
C76 H96 0.930 . S
C77 N75 1.375 . S
C77 C76 1.338 . S
C77 H81 0.931 . S
C78 N75 1.313 . S
C78 N79 1.344 . S
C78 H82 0.930 . S
N79 C76 1.377 . S
N79 C78 1.344 . S
O80 Co72 2.055 . S
O80 C84 1.253 . S
H81 C77 0.931 . S
H82 C78 0.930 . S
O83 Co72 2.039 . S
O83 C73 1.265 . S
C84 O80 1.253 . S
C84 O85 1.227 . S
O85 C84 1.227 . S
N86 Co72 2.140 . S
N86 C89 1.346 . S
N86 C90 1.345 . S
C87 C88 1.387 . S
C87 C91 1.391 . S
C88 C87 1.387 . S
C88 C89 1.369 . S
C88 H97 0.929 . S
C89 N86 1.346 . S
C89 C88 1.369 . S
C89 H92 0.928 . S
C90 N86 1.345 . S
C90 C91 1.371 . S
C90 H93 0.931 . S
C91 C87 1.391 . S
C91 C90 1.371 . S
C91 H98 0.930 . S
H92 C89 0.928 . S
H93 C90 0.931 . S
H94 C70 0.930 . S
H95 C67 0.930 . S
H96 C76 0.930 . S
H97 C88 0.929 . S
H98 C91 0.930 . S
C99 C100 1.351 . S
C99 N102 1.368 . S
C99 H104 0.931 . S
C100 C99 1.351 . S
C100 N101 1.373 . S
C100 H128 0.930 . S
N101 C100 1.373 . S
N101 C103 1.340 . S
N102 C99 1.368 . S
N102 C103 1.321 . S
N102 Co105 2.135 . S
C103 N101 1.340 . S
C103 N102 1.321 . S
C103 H127 0.930 . S
H104 C99 0.931 . S
Co105 N102 2.135 . S
Co105 N108 2.121 . S
Co105 O113 2.055 . S
Co105 O116 2.039 . S
Co105 N119 2.140 . S
C106 O107 1.227 . S
C106 O116 1.265 . S
O107 C106 1.227 . S
N108 Co105 2.121 . S
N108 C110 1.375 . S
N108 C111 1.313 . S
C109 C110 1.338 . S
C109 N112 1.377 . S
C109 H129 0.930 1_545 S
C110 N108 1.375 . S
C110 C109 1.338 . S
C110 H114 0.931 . S
C111 N108 1.313 . S
C111 N112 1.344 . S
C111 H115 0.930 . S
N112 C109 1.377 . S
N112 C111 1.344 . S
O113 Co105 2.055 . S
O113 C117 1.253 . S
H114 C110 0.931 . S
H115 C111 0.930 . S
O116 Co105 2.039 . S
O116 C106 1.265 . S
C117 O113 1.253 . S
C117 O118 1.227 . S
O118 C117 1.227 . S
N119 Co105 2.140 . S
N119 C122 1.346 . S
N119 C123 1.345 . S
C120 C121 1.387 . S
C120 C124 1.391 . S
C121 C120 1.387 . S
C121 C122 1.369 . S
C121 H130 0.929 . S
C122 N119 1.346 . S
C122 C121 1.369 . S
C122 H125 0.928 . S
C123 N119 1.345 . S
C123 C124 1.371 . S
C123 H126 0.931 . S
C124 C120 1.391 . S
C124 C123 1.371 . S
C124 H131 0.930 . S
H125 C122 0.928 . S
H126 C123 0.931 . S
H127 C103 0.930 . S
H128 C100 0.930 . S
H129 C109 0.930 1_565 S
H130 C121 0.929 . S
H131 C124 0.930 . S
C132 C133 1.351 1_556 S
C132 N135 1.368 . S
C132 H137 0.931 . S
C133 C132 1.351 1_554 S
C133 N134 1.373 . S
C133 H161 0.930 . S
N134 C133 1.373 . S
N134 C136 1.340 . S
N135 C132 1.368 . S
N135 C136 1.321 1_556 S
N135 Co138 2.135 . S
C136 N134 1.340 . S
C136 N135 1.321 1_554 S
C136 H160 0.930 . S
H137 C132 0.931 . S
Co138 N135 2.135 . S
Co138 N141 2.121 . S
Co138 O146 2.055 . S
Co138 O149 2.039 . S
Co138 N152 2.140 . S
C139 O140 1.227 . S
C139 O149 1.265 . S
O140 C139 1.227 . S
N141 Co138 2.121 . S
N141 C143 1.375 . S
N141 C144 1.313 . S
C142 C143 1.338 . S
C142 N145 1.377 . S
C142 H162 0.930 . S
C143 N141 1.375 . S
C143 C142 1.338 . S
C143 H147 0.931 . S
C144 N141 1.313 . S
C144 N145 1.344 . S
C144 H148 0.930 . S
N145 C142 1.377 . S
N145 C144 1.344 . S
O146 Co138 2.055 . S
O146 C150 1.253 . S
H147 C143 0.931 . S
H148 C144 0.930 . S
O149 Co138 2.039 . S
O149 C139 1.265 . S
C150 O146 1.253 . S
C150 O151 1.227 . S
O151 C150 1.227 . S
N152 Co138 2.140 . S
N152 C155 1.346 . S
N152 C156 1.345 . S
C153 C154 1.387 . S
C153 C157 1.391 . S
C154 C153 1.387 . S
C154 C155 1.369 . S
C154 H163 0.929 . S
C155 N152 1.346 . S
C155 C154 1.369 . S
C155 H158 0.928 . S
C156 N152 1.345 . S
C156 C157 1.371 . S
C156 H159 0.931 . S
C157 C153 1.391 . S
C157 C156 1.371 . S
C157 H164 0.930 . S
H158 C155 0.928 . S
H159 C156 0.931 . S
H160 C136 0.930 . S
H161 C133 0.930 . S
H162 C142 0.930 . S
H163 C154 0.929 . S
H164 C157 0.930 . S
C165 C166 1.351 . S
C165 N168 1.368 . S
C165 H170 0.931 . S
C166 C165 1.351 . S
C166 N167 1.373 . S
C166 H194 0.930 . S
N167 C166 1.373 . S
N167 C169 1.340 . S
N168 C165 1.368 . S
N168 C169 1.321 . S
N168 Co171 2.135 . S
C169 N167 1.340 . S
C169 N168 1.321 . S
C169 H193 0.930 . S
H170 C165 0.931 . S
Co171 N168 2.135 . S
Co171 N174 2.121 . S
Co171 O179 2.055 . S
Co171 O182 2.039 . S
Co171 N185 2.140 . S
C172 O173 1.227 . S
C172 O182 1.265 . S
O173 C172 1.227 . S
N174 Co171 2.121 . S
N174 C176 1.375 . S
N174 C177 1.313 . S
C175 C176 1.338 . S
C175 N178 1.377 . S
C175 H195 0.930 1_565 S
C176 N174 1.375 . S
C176 C175 1.338 . S
C176 H180 0.931 . S
C177 N174 1.313 . S
C177 N178 1.344 . S
C177 H181 0.930 . S
N178 C175 1.377 . S
N178 C177 1.344 . S
O179 Co171 2.055 . S
O179 C183 1.253 . S
H180 C176 0.931 . S
H181 C177 0.930 . S
O182 Co171 2.039 . S
O182 C172 1.265 . S
C183 O179 1.253 . S
C183 O184 1.227 . S
O184 C183 1.227 . S
N185 Co171 2.140 . S
N185 C188 1.346 . S
N185 C189 1.345 . S
C186 C187 1.387 . S
C186 C190 1.391 . S
C187 C186 1.387 . S
C187 C188 1.369 . S
C187 H196 0.929 . S
C188 N185 1.346 . S
C188 C187 1.369 . S
C188 H191 0.928 . S
C189 N185 1.345 . S
C189 C190 1.371 . S
C189 H192 0.931 . S
C190 C186 1.391 . S
C190 C189 1.371 . S
C190 H197 0.930 . S
H191 C188 0.928 . S
H192 C189 0.931 . S
H193 C169 0.930 . S
H194 C166 0.930 . S
H195 C175 0.930 1_545 S
H196 C187 0.929 . S
H197 C190 0.930 . S
C198 C199 1.351 . S
C198 N201 1.368 . S
C198 H203 0.931 . S
C199 C198 1.351 . S
C199 N200 1.373 . S
C199 H227 0.930 . S
N200 C199 1.373 . S
N200 C202 1.340 . S
N201 C198 1.368 . S
N201 C202 1.321 . S
N201 Co204 2.135 . S
C202 N200 1.340 . S
C202 N201 1.321 . S
C202 H226 0.930 . S
H203 C198 0.931 . S
Co204 N201 2.135 . S
Co204 N207 2.121 . S
Co204 O212 2.055 . S
Co204 O215 2.039 . S
Co204 N218 2.140 . S
C205 O206 1.227 . S
C205 O215 1.265 . S
O206 C205 1.227 . S
N207 Co204 2.121 . S
N207 C209 1.375 . S
N207 C210 1.313 . S
C208 C209 1.338 . S
C208 N211 1.377 . S
C208 H228 0.930 . S
C209 N207 1.375 . S
C209 C208 1.338 . S
C209 H213 0.931 . S
C210 N207 1.313 . S
C210 N211 1.344 . S
C210 H214 0.930 . S
N211 C208 1.377 . S
N211 C210 1.344 . S
O212 Co204 2.055 . S
O212 C216 1.253 . S
H213 C209 0.931 . S
H214 C210 0.930 . S
O215 Co204 2.039 . S
O215 C205 1.265 . S
C216 O212 1.253 . S
C216 O217 1.227 . S
O217 C216 1.227 . S
N218 Co204 2.140 . S
N218 C221 1.346 . S
N218 C222 1.345 . S
C219 C220 1.387 . S
C219 C223 1.391 . S
C220 C219 1.387 . S
C220 C221 1.369 . S
C220 H229 0.929 . S
C221 N218 1.346 . S
C221 C220 1.369 . S
C221 H224 0.928 . S
C222 N218 1.345 . S
C222 C223 1.371 . S
C222 H225 0.931 . S
C223 C219 1.391 . S
C223 C222 1.371 . S
C223 H230 0.930 . S
H224 C221 0.928 . S
H225 C222 0.931 . S
H226 C202 0.930 . S
H227 C199 0.930 . S
H228 C208 0.930 . S
H229 C220 0.929 . S
H230 C223 0.930 . S
C231 C232 1.351 . S
C231 N234 1.368 . S
C231 H236 0.931 . S
C232 C231 1.351 . S
C232 N233 1.373 . S
C232 H260 0.930 . S
N233 C232 1.373 . S
N233 C235 1.340 . S
N234 C231 1.368 . S
N234 C235 1.321 . S
N234 Co237 2.135 . S
C235 N233 1.340 . S
C235 N234 1.321 . S
C235 H259 0.930 . S
H236 C231 0.931 . S
Co237 N234 2.135 . S
Co237 N240 2.121 . S
Co237 O245 2.055 . S
Co237 O248 2.039 . S
Co237 N251 2.140 . S
C238 O239 1.227 . S
C238 O248 1.265 . S
O239 C238 1.227 . S
N240 Co237 2.121 . S
N240 C242 1.375 . S
N240 C243 1.313 . S
C241 C242 1.338 . S
C241 N244 1.377 . S
C241 H261 0.930 1_545 S
C242 N240 1.375 . S
C242 C241 1.338 . S
C242 H246 0.931 . S
C243 N240 1.313 . S
C243 N244 1.344 . S
C243 H247 0.930 . S
N244 C241 1.377 . S
N244 C243 1.344 . S
O245 Co237 2.055 . S
O245 C249 1.253 . S
H246 C242 0.931 . S
H247 C243 0.930 . S
O248 Co237 2.039 . S
O248 C238 1.265 . S
C249 O245 1.253 . S
C249 O250 1.227 . S
O250 C249 1.227 . S
N251 Co237 2.140 . S
N251 C254 1.346 . S
N251 C255 1.345 . S
C252 C253 1.387 . S
C252 C256 1.391 . S
C253 C252 1.387 . S
C253 C254 1.369 . S
C253 H262 0.929 . S
C254 N251 1.346 . S
C254 C253 1.369 . S
C254 H257 0.928 . S
C255 N251 1.345 . S
C255 C256 1.371 . S
C255 H258 0.931 . S
C256 C252 1.391 . S
C256 C255 1.371 . S
C256 H263 0.930 . S
H257 C254 0.928 . S
H258 C255 0.931 . S
H259 C235 0.930 . S
H260 C232 0.930 . S
H261 C241 0.930 1_565 S
H262 C253 0.929 . S
H263 C256 0.930 . S
C264 C265 1.351 1_556 S
C264 N267 1.368 . S
C264 H269 0.931 . S
C265 C264 1.351 1_554 S
C265 N266 1.373 . S
C265 H293 0.930 . S
N266 C265 1.373 . S
N266 C268 1.340 . S
N267 C264 1.368 . S
N267 C268 1.321 1_556 S
N267 Co270 2.135 . S
C268 N266 1.340 . S
C268 N267 1.321 1_554 S
C268 H292 0.930 . S
H269 C264 0.931 . S
Co270 N267 2.135 . S
Co270 N273 2.121 . S
Co270 O278 2.055 . S
Co270 O281 2.039 . S
Co270 N284 2.140 . S
C271 O272 1.227 . S
C271 O281 1.265 . S
O272 C271 1.227 . S
N273 Co270 2.121 . S
N273 C275 1.375 . S
N273 C276 1.313 . S
C274 C275 1.338 . S
C274 N277 1.377 . S
C274 H294 0.930 . S
C275 N273 1.375 . S
C275 C274 1.338 . S
C275 H279 0.931 . S
C276 N273 1.313 . S
C276 N277 1.344 . S
C276 H280 0.930 . S
N277 C274 1.377 . S
N277 C276 1.344 . S
O278 Co270 2.055 . S
O278 C282 1.253 . S
H279 C275 0.931 . S
H280 C276 0.930 . S
O281 Co270 2.039 . S
O281 C271 1.265 . S
C282 O278 1.253 . S
C282 O283 1.227 . S
O283 C282 1.227 . S
N284 Co270 2.140 . S
N284 C287 1.346 . S
N284 C288 1.345 . S
C285 C286 1.387 . S
C285 C289 1.391 . S
C286 C285 1.387 . S
C286 C287 1.369 . S
C286 H295 0.929 . S
C287 N284 1.346 . S
C287 C286 1.369 . S
C287 H290 0.928 . S
C288 N284 1.345 . S
C288 C289 1.371 . S
C288 H291 0.931 . S
C289 C285 1.391 . S
C289 C288 1.371 . S
C289 H296 0.930 . S
H290 C287 0.928 . S
H291 C288 0.931 . S
H292 C268 0.930 . S
H293 C265 0.930 . S
H294 C274 0.930 . S
H295 C286 0.929 . S
H296 C289 0.930 . S
C297 C298 1.351 . S
C297 N300 1.368 . S
C297 H302 0.931 . S
C298 C297 1.351 . S
C298 N299 1.373 . S
C298 H326 0.930 . S
N299 C298 1.373 . S
N299 C301 1.340 . S
N300 C297 1.368 . S
N300 C301 1.321 . S
N300 Co303 2.135 . S
C301 N299 1.340 . S
C301 N300 1.321 . S
C301 H325 0.930 . S
H302 C297 0.931 . S
Co303 N300 2.135 . S
Co303 N306 2.121 . S
Co303 O311 2.055 . S
Co303 O314 2.039 . S
Co303 N317 2.140 . S
C304 O305 1.227 . S
C304 O314 1.265 . S
O305 C304 1.227 . S
N306 Co303 2.121 . S
N306 C308 1.375 . S
N306 C309 1.313 . S
C307 C308 1.338 . S
C307 N310 1.377 . S
C307 H327 0.930 1_545 S
C308 N306 1.375 . S
C308 C307 1.338 . S
C308 H312 0.931 . S
C309 N306 1.313 . S
C309 N310 1.344 . S
C309 H313 0.930 . S
N310 C307 1.377 . S
N310 C309 1.344 . S
O311 Co303 2.055 . S
O311 C315 1.253 . S
H312 C308 0.931 . S
H313 C309 0.930 . S
O314 Co303 2.039 . S
O314 C304 1.265 . S
C315 O311 1.253 . S
C315 O316 1.227 . S
O316 C315 1.227 . S
N317 Co303 2.140 . S
N317 C320 1.346 . S
N317 C321 1.345 . S
C318 C319 1.387 . S
C318 C322 1.391 . S
C319 C318 1.387 . S
C319 C320 1.369 . S
C319 H328 0.929 . S
C320 N317 1.346 . S
C320 C319 1.369 . S
C320 H323 0.928 . S
C321 N317 1.345 . S
C321 C322 1.371 . S
C321 H324 0.931 . S
C322 C318 1.391 . S
C322 C321 1.371 . S
C322 H329 0.930 . S
H323 C320 0.928 . S
H324 C321 0.931 . S
H325 C301 0.930 . S
H326 C298 0.930 . S
H327 C307 0.930 1_565 S
H328 C319 0.929 . S
H329 C322 0.930 . S
C330 C331 1.351 . S
C330 N333 1.368 . S
C330 H335 0.931 . S
C331 C330 1.351 . S
C331 N332 1.373 . S
C331 H359 0.930 . S
N332 C331 1.373 . S
N332 C334 1.340 . S
N333 C330 1.368 . S
N333 C334 1.321 . S
N333 Co336 2.135 . S
C334 N332 1.340 . S
C334 N333 1.321 . S
C334 H358 0.930 . S
H335 C330 0.931 . S
Co336 N333 2.135 . S
Co336 N339 2.121 . S
Co336 O344 2.055 . S
Co336 O347 2.039 . S
Co336 N350 2.140 . S
C337 O338 1.227 . S
C337 O347 1.265 . S
O338 C337 1.227 . S
N339 Co336 2.121 . S
N339 C341 1.375 . S
N339 C342 1.313 . S
C340 C341 1.338 . S
C340 N343 1.377 . S
C340 H360 0.930 . S
C341 N339 1.375 . S
C341 C340 1.338 . S
C341 H345 0.931 . S
C342 N339 1.313 . S
C342 N343 1.344 . S
C342 H346 0.930 . S
N343 C340 1.377 . S
N343 C342 1.344 . S
O344 Co336 2.055 . S
O344 C348 1.253 . S
H345 C341 0.931 . S
H346 C342 0.930 . S
O347 Co336 2.039 . S
O347 C337 1.265 . S
C348 O344 1.253 . S
C348 O349 1.227 . S
O349 C348 1.227 . S
N350 Co336 2.140 . S
N350 C353 1.346 . S
N350 C354 1.345 . S
C351 C352 1.387 . S
C351 C355 1.391 . S
C352 C351 1.387 . S
C352 C353 1.369 . S
C352 H361 0.929 . S
C353 N350 1.346 . S
C353 C352 1.369 . S
C353 H356 0.928 . S
C354 N350 1.345 . S
C354 C355 1.371 . S
C354 H357 0.931 . S
C355 C351 1.391 . S
C355 C354 1.371 . S
C355 H362 0.930 . S
H356 C353 0.928 . S
H357 C354 0.931 . S
H358 C334 0.930 . S
H359 C331 0.930 . S
H360 C340 0.930 . S
H361 C352 0.929 . S
H362 C355 0.930 . S
C363 C364 1.351 . S
C363 N366 1.368 . S
C363 H368 0.931 . S
C364 C363 1.351 . S
C364 N365 1.373 . S
C364 H392 0.930 . S
N365 C364 1.373 . S
N365 C367 1.340 . S
N366 C363 1.368 . S
N366 C367 1.321 . S
N366 Co369 2.135 . S
C367 N365 1.340 . S
C367 N366 1.321 . S
C367 H391 0.930 . S
H368 C363 0.931 . S
Co369 N366 2.135 . S
Co369 N372 2.121 . S
Co369 O377 2.055 . S
Co369 O380 2.039 . S
Co369 N383 2.140 . S
C370 O371 1.227 . S
C370 O380 1.265 . S
O371 C370 1.227 . S
N372 Co369 2.121 . S
N372 C374 1.375 . S
N372 C375 1.313 . S
C373 C374 1.338 . S
C373 N376 1.377 . S
C373 H393 0.930 1_565 S
C374 N372 1.375 . S
C374 C373 1.338 . S
C374 H378 0.931 . S
C375 N372 1.313 . S
C375 N376 1.344 . S
C375 H379 0.930 . S
N376 C373 1.377 . S
N376 C375 1.344 . S
O377 Co369 2.055 . S
O377 C381 1.253 . S
H378 C374 0.931 . S
H379 C375 0.930 . S
O380 Co369 2.039 . S
O380 C370 1.265 . S
C381 O377 1.253 . S
C381 O382 1.227 . S
O382 C381 1.227 . S
N383 Co369 2.140 . S
N383 C386 1.346 . S
N383 C387 1.345 . S
C384 C385 1.387 . S
C384 C388 1.391 . S
C385 C384 1.387 . S
C385 C386 1.369 . S
C385 H394 0.929 . S
C386 N383 1.346 . S
C386 C385 1.369 . S
C386 H389 0.928 . S
C387 N383 1.345 . S
C387 C388 1.371 . S
C387 H390 0.931 . S
C388 C384 1.391 . S
C388 C387 1.371 . S
C388 H395 0.930 . S
H389 C386 0.928 . S
H390 C387 0.931 . S
H391 C367 0.930 . S
H392 C364 0.930 . S
H393 C373 0.930 1_545 S
H394 C385 0.929 . S
H395 C388 0.930 . S
C396 C397 1.351 1_554 S
C396 N399 1.368 . S
C396 H401 0.931 . S
C397 C396 1.351 1_556 S
C397 N398 1.373 . S
C397 H425 0.930 . S
N398 C397 1.373 . S
N398 C400 1.340 . S
N399 C396 1.368 . S
N399 C400 1.321 1_554 S
N399 Co402 2.135 . S
C400 N398 1.340 . S
C400 N399 1.321 1_556 S
C400 H424 0.930 . S
H401 C396 0.931 . S
Co402 N399 2.135 . S
Co402 N405 2.121 . S
Co402 O410 2.055 . S
Co402 O413 2.039 . S
Co402 N416 2.140 . S
C403 O404 1.227 . S
C403 O413 1.265 . S
O404 C403 1.227 . S
N405 Co402 2.121 . S
N405 C407 1.375 . S
N405 C408 1.313 . S
C406 C407 1.338 . S
C406 N409 1.377 . S
C406 H426 0.930 . S
C407 N405 1.375 . S
C407 C406 1.338 . S
C407 H411 0.931 . S
C408 N405 1.313 . S
C408 N409 1.344 . S
C408 H412 0.930 . S
N409 C406 1.377 . S
N409 C408 1.344 . S
O410 Co402 2.055 . S
O410 C414 1.253 . S
H411 C407 0.931 . S
H412 C408 0.930 . S
O413 Co402 2.039 . S
O413 C403 1.265 . S
C414 O410 1.253 . S
C414 O415 1.227 . S
O415 C414 1.227 . S
N416 Co402 2.140 . S
N416 C419 1.346 . S
N416 C420 1.345 . S
C417 C418 1.387 . S
C417 C421 1.391 . S
C418 C417 1.387 . S
C418 C419 1.369 . S
C418 H427 0.929 . S
C419 N416 1.346 . S
C419 C418 1.369 . S
C419 H422 0.928 . S
C420 N416 1.345 . S
C420 C421 1.371 . S
C420 H423 0.931 . S
C421 C417 1.391 . S
C421 C420 1.371 . S
C421 H428 0.930 . S
H422 C419 0.928 . S
H423 C420 0.931 . S
H424 C400 0.930 . S
H425 C397 0.930 . S
H426 C406 0.930 . S
H427 C418 0.929 . S
H428 C421 0.930 . S
C429 C430 1.351 . S
C429 N432 1.368 . S
C429 H434 0.931 . S
C430 C429 1.351 . S
C430 N431 1.373 . S
C430 H458 0.930 . S
N431 C430 1.373 . S
N431 C433 1.340 . S
N432 C429 1.368 . S
N432 C433 1.321 . S
N432 Co435 2.135 . S
C433 N431 1.340 . S
C433 N432 1.321 . S
C433 H457 0.930 . S
H434 C429 0.931 . S
Co435 N432 2.135 . S
Co435 N438 2.121 . S
Co435 O443 2.055 . S
Co435 O446 2.039 . S
Co435 N449 2.140 . S
C436 O437 1.227 . S
C436 O446 1.265 . S
O437 C436 1.227 . S
N438 Co435 2.121 . S
N438 C440 1.375 . S
N438 C441 1.313 . S
C439 C440 1.338 . S
C439 N442 1.377 . S
C439 H459 0.930 1_545 S
C440 N438 1.375 . S
C440 C439 1.338 . S
C440 H444 0.931 . S
C441 N438 1.313 . S
C441 N442 1.344 . S
C441 H445 0.930 . S
N442 C439 1.377 . S
N442 C441 1.344 . S
O443 Co435 2.055 . S
O443 C447 1.253 . S
H444 C440 0.931 . S
H445 C441 0.930 . S
O446 Co435 2.039 . S
O446 C436 1.265 . S
C447 O443 1.253 . S
C447 O448 1.227 . S
O448 C447 1.227 . S
N449 Co435 2.140 . S
N449 C452 1.346 . S
N449 C453 1.345 . S
C450 C451 1.387 . S
C450 C454 1.391 . S
C451 C450 1.387 . S
C451 C452 1.369 . S
C451 H460 0.929 . S
C452 N449 1.346 . S
C452 C451 1.369 . S
C452 H455 0.928 . S
C453 N449 1.345 . S
C453 C454 1.371 . S
C453 H456 0.931 . S
C454 C450 1.391 . S
C454 C453 1.371 . S
C454 H461 0.930 . S
H455 C452 0.928 . S
H456 C453 0.931 . S
H457 C433 0.930 . S
H458 C430 0.930 . S
H459 C439 0.930 1_565 S
H460 C451 0.929 . S
H461 C454 0.930 . S
C462 C463 1.351 . S
C462 N465 1.368 . S
C462 H467 0.931 . S
C463 C462 1.351 . S
C463 N464 1.373 . S
C463 H491 0.930 . S
N464 C463 1.373 . S
N464 C466 1.340 . S
N465 C462 1.368 . S
N465 C466 1.321 . S
N465 Co468 2.135 . S
C466 N464 1.340 . S
C466 N465 1.321 . S
C466 H490 0.930 . S
H467 C462 0.931 . S
Co468 N465 2.135 . S
Co468 N471 2.121 . S
Co468 O476 2.055 . S
Co468 O479 2.039 . S
Co468 N482 2.140 . S
C469 O470 1.227 . S
C469 O479 1.265 . S
O470 C469 1.227 . S
N471 Co468 2.121 . S
N471 C473 1.375 . S
N471 C474 1.313 . S
C472 C473 1.338 . S
C472 N475 1.377 . S
C472 H492 0.930 . S
C473 N471 1.375 . S
C473 C472 1.338 . S
C473 H477 0.931 . S
C474 N471 1.313 . S
C474 N475 1.344 . S
C474 H478 0.930 . S
N475 C472 1.377 . S
N475 C474 1.344 . S
O476 Co468 2.055 . S
O476 C480 1.253 . S
H477 C473 0.931 . S
H478 C474 0.930 . S
O479 Co468 2.039 . S
O479 C469 1.265 . S
C480 O476 1.253 . S
C480 O481 1.227 . S
O481 C480 1.227 . S
N482 Co468 2.140 . S
N482 C485 1.346 . S
N482 C486 1.345 . S
C483 C484 1.387 . S
C483 C487 1.391 . S
C484 C483 1.387 . S
C484 C485 1.369 . S
C484 H493 0.929 . S
C485 N482 1.346 . S
C485 C484 1.369 . S
C485 H488 0.928 . S
C486 N482 1.345 . S
C486 C487 1.371 . S
C486 H489 0.931 . S
C487 C483 1.391 . S
C487 C486 1.371 . S
C487 H494 0.930 . S
H488 C485 0.928 . S
H489 C486 0.931 . S
H490 C466 0.930 . S
H491 C463 0.930 . S
H492 C472 0.930 . S
H493 C484 0.929 . S
H494 C487 0.930 . S
C495 C496 1.351 . S
C495 N498 1.368 . S
C495 H500 0.931 . S
C496 C495 1.351 . S
C496 N497 1.373 . S
C496 H524 0.930 . S
N497 C496 1.373 . S
N497 C499 1.340 . S
N498 C495 1.368 . S
N498 C499 1.321 . S
N498 Co501 2.135 . S
C499 N497 1.340 . S
C499 N498 1.321 . S
C499 H523 0.930 . S
H500 C495 0.931 . S
Co501 N498 2.135 . S
Co501 N504 2.121 . S
Co501 O509 2.055 . S
Co501 O512 2.039 . S
Co501 N515 2.140 . S
C502 O503 1.227 . S
C502 O512 1.265 . S
O503 C502 1.227 . S
N504 Co501 2.121 . S
N504 C506 1.375 . S
N504 C507 1.313 . S
C505 C506 1.338 . S
C505 N508 1.377 . S
C505 H525 0.930 1_565 S
C506 N504 1.375 . S
C506 C505 1.338 . S
C506 H510 0.931 . S
C507 N504 1.313 . S
C507 N508 1.344 . S
C507 H511 0.930 . S
N508 C505 1.377 . S
N508 C507 1.344 . S
O509 Co501 2.055 . S
O509 C513 1.253 . S
H510 C506 0.931 . S
H511 C507 0.930 . S
O512 Co501 2.039 . S
O512 C502 1.265 . S
C513 O509 1.253 . S
C513 O514 1.227 . S
O514 C513 1.227 . S
N515 Co501 2.140 . S
N515 C518 1.346 . S
N515 C519 1.345 . S
C516 C517 1.387 . S
C516 C520 1.391 . S
C517 C516 1.387 . S
C517 C518 1.369 . S
C517 H526 0.929 . S
C518 N515 1.346 . S
C518 C517 1.369 . S
C518 H521 0.928 . S
C519 N515 1.345 . S
C519 C520 1.371 . S
C519 H522 0.931 . S
C520 C516 1.391 . S
C520 C519 1.371 . S
C520 H527 0.930 . S
H521 C518 0.928 . S
H522 C519 0.931 . S
H523 C499 0.930 . S
H524 C496 0.930 . S
H525 C505 0.930 1_545 S
H526 C517 0.929 . S
H527 C520 0.930 . S
C528 C529 1.351 . S
C528 N531 1.368 . S
C528 H533 0.931 . S
C529 C528 1.351 . S
C529 N530 1.373 . S
C529 H557 0.930 . S
N530 C529 1.373 . S
N530 C532 1.340 . S
N531 C528 1.368 . S
N531 C532 1.321 . S
N531 Co534 2.135 . S
C532 N530 1.340 . S
C532 N531 1.321 . S
C532 H556 0.930 . S
H533 C528 0.931 . S
Co534 N531 2.135 . S
Co534 N537 2.121 . S
Co534 O542 2.055 . S
Co534 O545 2.039 . S
Co534 N548 2.140 . S
C535 O536 1.227 . S
C535 O545 1.265 . S
O536 C535 1.227 . S
N537 Co534 2.121 . S
N537 C539 1.375 . S
N537 C540 1.313 . S
C538 C539 1.338 . S
C538 N541 1.377 . S
C538 H558 0.930 . S
C539 N537 1.375 . S
C539 C538 1.338 . S
C539 H543 0.931 . S
C540 N537 1.313 . S
C540 N541 1.344 . S
C540 H544 0.930 . S
N541 C538 1.377 . S
N541 C540 1.344 . S
O542 Co534 2.055 . S
O542 C546 1.253 . S
H543 C539 0.931 . S
H544 C540 0.930 . S
O545 Co534 2.039 . S
O545 C535 1.265 . S
C546 O542 1.253 . S
C546 O547 1.227 . S
O547 C546 1.227 . S
N548 Co534 2.140 . S
N548 C551 1.346 . S
N548 C552 1.345 . S
C549 C550 1.387 . S
C549 C553 1.391 . S
C550 C549 1.387 . S
C550 C551 1.369 . S
C550 H559 0.929 . S
C551 N548 1.346 . S
C551 C550 1.369 . S
C551 H554 0.928 . S
C552 N548 1.345 . S
C552 C553 1.371 . S
C552 H555 0.931 . S
C553 C549 1.391 . S
C553 C552 1.371 . S
C553 H560 0.930 . S
H554 C551 0.928 . S
H555 C552 0.931 . S
H556 C532 0.930 . S
H557 C529 0.930 . S
H558 C538 0.930 . S
H559 C550 0.929 . S
H560 C553 0.930 . S
C561 C562 1.351 . S
C561 N564 1.368 . S
C561 H566 0.931 . S
C562 C561 1.351 . S
C562 N563 1.373 . S
C562 H590 0.930 . S
N563 C562 1.373 . S
N563 C565 1.340 . S
N564 C561 1.368 . S
N564 C565 1.321 . S
N564 Co567 2.135 . S
C565 N563 1.340 . S
C565 N564 1.321 . S
C565 H589 0.930 . S
H566 C561 0.931 . S
Co567 N564 2.135 . S
Co567 N570 2.121 . S
Co567 O575 2.055 . S
Co567 O578 2.039 . S
Co567 N581 2.140 . S
C568 O569 1.227 . S
C568 O578 1.265 . S
O569 C568 1.227 . S
N570 Co567 2.121 . S
N570 C572 1.375 . S
N570 C573 1.313 . S
C571 C572 1.338 . S
C571 N574 1.377 . S
C571 H591 0.930 . S
C572 N570 1.375 . S
C572 C571 1.338 . S
C572 H576 0.931 . S
C573 N570 1.313 . S
C573 N574 1.344 . S
C573 H577 0.930 . S
N574 C571 1.377 . S
N574 C573 1.344 . S
O575 Co567 2.055 . S
O575 C579 1.253 . S
H576 C572 0.931 . S
H577 C573 0.930 . S
O578 Co567 2.039 . S
O578 C568 1.265 . S
C579 O575 1.253 . S
C579 O580 1.227 . S
O580 C579 1.227 . S
N581 Co567 2.140 . S
N581 C584 1.346 . S
N581 C585 1.345 . S
C582 C583 1.387 . S
C582 C586 1.391 . S
C583 C582 1.387 . S
C583 C584 1.369 . S
C583 H592 0.929 . S
C584 N581 1.346 . S
C584 C583 1.369 . S
C584 H587 0.928 . S
C585 N581 1.345 . S
C585 C586 1.371 . S
C585 H588 0.931 . S
C586 C582 1.391 . S
C586 C585 1.371 . S
C586 H593 0.930 . S
H587 C584 0.928 . S
H588 C585 0.931 . S
H589 C565 0.930 . S
H590 C562 0.930 . S
H591 C571 0.930 . S
H592 C583 0.929 . S
H593 C586 0.930 . S
C594 C595 1.351 1_554 S
C594 N597 1.368 . S
C594 H599 0.931 . S
C595 C594 1.351 1_556 S
C595 N596 1.373 . S
C595 H623 0.930 . S
N596 C595 1.373 . S
N596 C598 1.340 . S
N597 C594 1.368 . S
N597 C598 1.321 1_554 S
N597 Co600 2.135 . S
C598 N596 1.340 . S
C598 N597 1.321 1_556 S
C598 H622 0.930 . S
H599 C594 0.931 . S
Co600 N597 2.135 . S
Co600 N603 2.121 . S
Co600 O608 2.055 . S
Co600 O611 2.039 . S
Co600 N614 2.140 . S
C601 O602 1.227 . S
C601 O611 1.265 . S
O602 C601 1.227 . S
N603 Co600 2.121 . S
N603 C605 1.375 . S
N603 C606 1.313 . S
C604 C605 1.338 . S
C604 N607 1.377 . S
C604 H624 0.930 . S
C605 N603 1.375 . S
C605 C604 1.338 . S
C605 H609 0.931 . S
C606 N603 1.313 . S
C606 N607 1.344 . S
C606 H610 0.930 . S
N607 C604 1.377 . S
N607 C606 1.344 . S
O608 Co600 2.055 . S
O608 C612 1.253 . S
H609 C605 0.931 . S
H610 C606 0.930 . S
O611 Co600 2.039 . S
O611 C601 1.265 . S
C612 O608 1.253 . S
C612 O613 1.227 . S
O613 C612 1.227 . S
N614 Co600 2.140 . S
N614 C617 1.346 . S
N614 C618 1.345 . S
C615 C616 1.387 . S
C615 C619 1.391 . S
C616 C615 1.387 . S
C616 C617 1.369 . S
C616 H625 0.929 . S
C617 N614 1.346 . S
C617 C616 1.369 . S
C617 H620 0.928 . S
C618 N614 1.345 . S
C618 C619 1.371 . S
C618 H621 0.931 . S
C619 C615 1.391 . S
C619 C618 1.371 . S
C619 H626 0.930 . S
H620 C617 0.928 . S
H621 C618 0.931 . S
H622 C598 0.930 . S
H623 C595 0.930 . S
H624 C604 0.930 . S
H625 C616 0.929 . S
H626 C619 0.930 . S
C627 C628 1.351 . S
C627 N630 1.368 . S
C627 H632 0.931 . S
C628 C627 1.351 . S
C628 N629 1.373 . S
C628 H656 0.930 . S
N629 C628 1.373 . S
N629 C631 1.340 . S
N630 C627 1.368 . S
N630 C631 1.321 . S
N630 Co633 2.135 . S
C631 N629 1.340 . S
C631 N630 1.321 . S
C631 H655 0.930 . S
H632 C627 0.931 . S
Co633 N630 2.135 . S
Co633 N636 2.121 . S
Co633 O641 2.055 . S
Co633 O644 2.039 . S
Co633 N647 2.140 . S
C634 O635 1.227 . S
C634 O644 1.265 . S
O635 C634 1.227 . S
N636 Co633 2.121 . S
N636 C638 1.375 . S
N636 C639 1.313 . S
C637 C638 1.338 . S
C637 N640 1.377 . S
C637 H657 0.930 . S
C638 N636 1.375 . S
C638 C637 1.338 . S
C638 H642 0.931 . S
C639 N636 1.313 . S
C639 N640 1.344 . S
C639 H643 0.930 . S
N640 C637 1.377 . S
N640 C639 1.344 . S
O641 Co633 2.055 . S
O641 C645 1.253 . S
H642 C638 0.931 . S
H643 C639 0.930 . S
O644 Co633 2.039 . S
O644 C634 1.265 . S
C645 O641 1.253 . S
C645 O646 1.227 . S
O646 C645 1.227 . S
N647 Co633 2.140 . S
N647 C650 1.346 . S
N647 C651 1.345 . S
C648 C649 1.387 . S
C648 C652 1.391 . S
C649 C648 1.387 . S
C649 C650 1.369 . S
C649 H658 0.929 . S
C650 N647 1.346 . S
C650 C649 1.369 . S
C650 H653 0.928 . S
C651 N647 1.345 . S
C651 C652 1.371 . S
C651 H654 0.931 . S
C652 C648 1.391 . S
C652 C651 1.371 . S
C652 H659 0.930 . S
H653 C650 0.928 . S
H654 C651 0.931 . S
H655 C631 0.930 . S
H656 C628 0.930 . S
H657 C637 0.930 . S
H658 C649 0.929 . S
H659 C652 0.930 . S
C660 C661 1.351 . S
C660 N663 1.368 . S
C660 H665 0.931 . S
C661 C660 1.351 . S
C661 N662 1.373 . S
C661 H689 0.930 . S
N662 C661 1.373 . S
N662 C664 1.340 . S
N663 C660 1.368 . S
N663 C664 1.321 . S
N663 Co666 2.135 . S
C664 N662 1.340 . S
C664 N663 1.321 . S
C664 H688 0.930 . S
H665 C660 0.931 . S
Co666 N663 2.135 . S
Co666 N669 2.121 . S
Co666 O674 2.055 . S
Co666 O677 2.039 . S
Co666 N680 2.140 . S
C667 O668 1.227 . S
C667 O677 1.265 . S
O668 C667 1.227 . S
N669 Co666 2.121 . S
N669 C671 1.375 . S
N669 C672 1.313 . S
C670 C671 1.338 . S
C670 N673 1.377 . S
C670 H690 0.930 . S
C671 N669 1.375 . S
C671 C670 1.338 . S
C671 H675 0.931 . S
C672 N669 1.313 . S
C672 N673 1.344 . S
C672 H676 0.930 . S
N673 C670 1.377 . S
N673 C672 1.344 . S
O674 Co666 2.055 . S
O674 C678 1.253 . S
H675 C671 0.931 . S
H676 C672 0.930 . S
O677 Co666 2.039 . S
O677 C667 1.265 . S
C678 O674 1.253 . S
C678 O679 1.227 . S
O679 C678 1.227 . S
N680 Co666 2.140 . S
N680 C683 1.346 . S
N680 C684 1.345 . S
C681 C682 1.387 . S
C681 C685 1.391 . S
C682 C681 1.387 . S
C682 C683 1.369 . S
C682 H691 0.929 . S
C683 N680 1.346 . S
C683 C682 1.369 . S
C683 H686 0.928 . S
C684 N680 1.345 . S
C684 C685 1.371 . S
C684 H687 0.931 . S
C685 C681 1.391 . S
C685 C684 1.371 . S
C685 H692 0.930 . S
H686 C683 0.928 . S
H687 C684 0.931 . S
H688 C664 0.930 . S
H689 C661 0.930 . S
H690 C670 0.930 . S
H691 C682 0.929 . S
H692 C685 0.930 . S
C693 C694 1.351 . S
C693 N696 1.368 . S
C693 H698 0.931 . S
C694 C693 1.351 . S
C694 N695 1.373 . S
C694 H722 0.930 . S
N695 C694 1.373 . S
N695 C697 1.340 . S
N696 C693 1.368 . S
N696 C697 1.321 . S
N696 Co699 2.135 . S
C697 N695 1.340 . S
C697 N696 1.321 . S
C697 H721 0.930 . S
H698 C693 0.931 . S
Co699 N696 2.135 . S
Co699 N702 2.121 . S
Co699 O707 2.055 . S
Co699 O710 2.039 . S
Co699 N713 2.140 . S
C700 O701 1.227 . S
C700 O710 1.265 . S
O701 C700 1.227 . S
N702 Co699 2.121 . S
N702 C704 1.375 . S
N702 C705 1.313 . S
C703 C704 1.338 . S
C703 N706 1.377 . S
C703 H723 0.930 . S
C704 N702 1.375 . S
C704 C703 1.338 . S
C704 H708 0.931 . S
C705 N702 1.313 . S
C705 N706 1.344 . S
C705 H709 0.930 . S
N706 C703 1.377 . S
N706 C705 1.344 . S
O707 Co699 2.055 . S
O707 C711 1.253 . S
H708 C704 0.931 . S
H709 C705 0.930 . S
O710 Co699 2.039 . S
O710 C700 1.265 . S
C711 O707 1.253 . S
C711 O712 1.227 . S
O712 C711 1.227 . S
N713 Co699 2.140 . S
N713 C716 1.346 . S
N713 C717 1.345 . S
C714 C715 1.387 . S
C714 C718 1.391 . S
C715 C714 1.387 . S
C715 C716 1.369 . S
C715 H724 0.929 . S
C716 N713 1.346 . S
C716 C715 1.369 . S
C716 H719 0.928 . S
C717 N713 1.345 . S
C717 C718 1.371 . S
C717 H720 0.931 . S
C718 C714 1.391 . S
C718 C717 1.371 . S
C718 H725 0.930 . S
H719 C716 0.928 . S
H720 C717 0.931 . S
H721 C697 0.930 . S
H722 C694 0.930 . S
H723 C703 0.930 . S
H724 C715 0.929 . S
H725 C718 0.930 . S
C726 C727 1.351 1_556 S
C726 N729 1.368 . S
C726 H731 0.931 . S
C727 C726 1.351 1_554 S
C727 N728 1.373 . S
C727 H755 0.930 . S
N728 C727 1.373 . S
N728 C730 1.340 . S
N729 C726 1.368 . S
N729 C730 1.321 1_556 S
N729 Co732 2.135 . S
C730 N728 1.340 . S
C730 N729 1.321 1_554 S
C730 H754 0.930 . S
H731 C726 0.931 . S
Co732 N729 2.135 . S
Co732 N735 2.121 . S
Co732 O740 2.055 . S
Co732 O743 2.039 . S
Co732 N746 2.140 . S
C733 O734 1.227 . S
C733 O743 1.265 . S
O734 C733 1.227 . S
N735 Co732 2.121 . S
N735 C737 1.375 . S
N735 C738 1.313 . S
C736 C737 1.338 . S
C736 N739 1.377 . S
C736 H756 0.930 . S
C737 N735 1.375 . S
C737 C736 1.338 . S
C737 H741 0.931 . S
C738 N735 1.313 . S
C738 N739 1.344 . S
C738 H742 0.930 . S
N739 C736 1.377 . S
N739 C738 1.344 . S
O740 Co732 2.055 . S
O740 C744 1.253 . S
H741 C737 0.931 . S
H742 C738 0.930 . S
O743 Co732 2.039 . S
O743 C733 1.265 . S
C744 O740 1.253 . S
C744 O745 1.227 . S
O745 C744 1.227 . S
N746 Co732 2.140 . S
N746 C749 1.346 . S
N746 C750 1.345 . S
C747 C748 1.387 . S
C747 C751 1.391 . S
C748 C747 1.387 . S
C748 C749 1.369 . S
C748 H757 0.929 . S
C749 N746 1.346 . S
C749 C748 1.369 . S
C749 H752 0.928 . S
C750 N746 1.345 . S
C750 C751 1.371 . S
C750 H753 0.931 . S
C751 C747 1.391 . S
C751 C750 1.371 . S
C751 H758 0.930 . S
H752 C749 0.928 . S
H753 C750 0.931 . S
H754 C730 0.930 . S
H755 C727 0.930 . S
H756 C736 0.930 . S
H757 C748 0.929 . S
H758 C751 0.930 . S
C759 C760 1.351 . S
C759 N762 1.368 . S
C759 H764 0.931 . S
C760 C759 1.351 . S
C760 N761 1.373 . S
C760 H788 0.930 . S
N761 C760 1.373 . S
N761 C763 1.340 . S
N762 C759 1.368 . S
N762 C763 1.321 . S
N762 Co765 2.135 . S
C763 N761 1.340 . S
C763 N762 1.321 . S
C763 H787 0.930 . S
H764 C759 0.931 . S
Co765 N762 2.135 . S
Co765 N768 2.121 . S
Co765 O773 2.055 . S
Co765 O776 2.039 . S
Co765 N779 2.140 . S
C766 O767 1.227 . S
C766 O776 1.265 . S
O767 C766 1.227 . S
N768 Co765 2.121 . S
N768 C770 1.375 . S
N768 C771 1.313 . S
C769 C770 1.338 . S
C769 N772 1.377 . S
C769 H789 0.930 . S
C770 N768 1.375 . S
C770 C769 1.338 . S
C770 H774 0.931 . S
C771 N768 1.313 . S
C771 N772 1.344 . S
C771 H775 0.930 . S
N772 C769 1.377 . S
N772 C771 1.344 . S
O773 Co765 2.055 . S
O773 C777 1.253 . S
H774 C770 0.931 . S
H775 C771 0.930 . S
O776 Co765 2.039 . S
O776 C766 1.265 . S
C777 O773 1.253 . S
C777 O778 1.227 . S
O778 C777 1.227 . S
N779 Co765 2.140 . S
N779 C782 1.346 . S
N779 C783 1.345 . S
C780 C781 1.387 . S
C780 C784 1.391 . S
C781 C780 1.387 . S
C781 C782 1.369 . S
C781 H790 0.929 . S
C782 N779 1.346 . S
C782 C781 1.369 . S
C782 H785 0.928 . S
C783 N779 1.345 . S
C783 C784 1.371 . S
C783 H786 0.931 . S
C784 C780 1.391 . S
C784 C783 1.371 . S
C784 H791 0.930 . S
H785 C782 0.928 . S
H786 C783 0.931 . S
H787 C763 0.930 . S
H788 C760 0.930 . S
H789 C769 0.930 . S
H790 C781 0.929 . S
H791 C784 0.930 . S
C792 C793 1.351 . S
C792 N795 1.368 . S
C792 H797 0.931 . S
C793 C792 1.351 . S
C793 N794 1.373 . S
C793 H821 0.930 . S
N794 C793 1.373 . S
N794 C796 1.340 . S
N795 C792 1.368 . S
N795 C796 1.321 . S
N795 Co798 2.135 . S
C796 N794 1.340 . S
C796 N795 1.321 . S
C796 H820 0.930 . S
H797 C792 0.931 . S
Co798 N795 2.135 . S
Co798 N801 2.121 . S
Co798 O806 2.055 . S
Co798 O809 2.039 . S
Co798 N812 2.140 . S
C799 O800 1.227 . S
C799 O809 1.265 . S
O800 C799 1.227 . S
N801 Co798 2.121 . S
N801 C803 1.375 . S
N801 C804 1.313 . S
C802 C803 1.338 . S
C802 N805 1.377 . S
C802 H822 0.930 . S
C803 N801 1.375 . S
C803 C802 1.338 . S
C803 H807 0.931 . S
C804 N801 1.313 . S
C804 N805 1.344 . S
C804 H808 0.930 . S
N805 C802 1.377 . S
N805 C804 1.344 . S
O806 Co798 2.055 . S
O806 C810 1.253 . S
H807 C803 0.931 . S
H808 C804 0.930 . S
O809 Co798 2.039 . S
O809 C799 1.265 . S
C810 O806 1.253 . S
C810 O811 1.227 . S
O811 C810 1.227 . S
N812 Co798 2.140 . S
N812 C815 1.346 . S
N812 C816 1.345 . S
C813 C814 1.387 . S
C813 C817 1.391 . S
C814 C813 1.387 . S
C814 C815 1.369 . S
C814 H823 0.929 . S
C815 N812 1.346 . S
C815 C814 1.369 . S
C815 H818 0.928 . S
C816 N812 1.345 . S
C816 C817 1.371 . S
C816 H819 0.931 . S
C817 C813 1.391 . S
C817 C816 1.371 . S
C817 H824 0.930 . S
H818 C815 0.928 . S
H819 C816 0.931 . S
H820 C796 0.930 . S
H821 C793 0.930 . S
H822 C802 0.930 . S
H823 C814 0.929 . S
H824 C817 0.930 . S
C825 C826 1.351 . S
C825 N828 1.368 . S
C825 H830 0.931 . S
C826 C825 1.351 . S
C826 N827 1.373 . S
C826 H854 0.930 . S
N827 C826 1.373 . S
N827 C829 1.340 . S
N828 C825 1.368 . S
N828 C829 1.321 . S
N828 Co831 2.135 . S
C829 N827 1.340 . S
C829 N828 1.321 . S
C829 H853 0.930 . S
H830 C825 0.931 . S
Co831 N828 2.135 . S
Co831 N834 2.121 . S
Co831 O839 2.055 . S
Co831 O842 2.039 . S
Co831 N845 2.140 . S
C832 O833 1.227 . S
C832 O842 1.265 . S
O833 C832 1.227 . S
N834 Co831 2.121 . S
N834 C836 1.375 . S
N834 C837 1.313 . S
C835 C836 1.338 . S
C835 N838 1.377 . S
C835 H855 0.930 . S
C836 N834 1.375 . S
C836 C835 1.338 . S
C836 H840 0.931 . S
C837 N834 1.313 . S
C837 N838 1.344 . S
C837 H841 0.930 . S
N838 C835 1.377 . S
N838 C837 1.344 . S
O839 Co831 2.055 . S
O839 C843 1.253 . S
H840 C836 0.931 . S
H841 C837 0.930 . S
O842 Co831 2.039 . S
O842 C832 1.265 . S
C843 O839 1.253 . S
C843 O844 1.227 . S
O844 C843 1.227 . S
N845 Co831 2.140 . S
N845 C848 1.346 . S
N845 C849 1.345 . S
C846 C847 1.387 . S
C846 C850 1.391 . S
C847 C846 1.387 . S
C847 C848 1.369 . S
C847 H856 0.929 . S
C848 N845 1.346 . S
C848 C847 1.369 . S
C848 H851 0.928 . S
C849 N845 1.345 . S
C849 C850 1.371 . S
C849 H852 0.931 . S
C850 C846 1.391 . S
C850 C849 1.371 . S
C850 H857 0.930 . S
H851 C848 0.928 . S
H852 C849 0.931 . S
H853 C829 0.930 . S
H854 C826 0.930 . S
H855 C835 0.930 . S
H856 C847 0.929 . S
H857 C850 0.930 . S
C858 C859 1.351 1_556 S
C858 N861 1.368 . S
C858 H863 0.931 . S
C859 C858 1.351 1_554 S
C859 N860 1.373 . S
C859 H887 0.930 . S
N860 C859 1.373 . S
N860 C862 1.340 . S
N861 C858 1.368 . S
N861 C862 1.321 1_556 S
N861 Co864 2.135 . S
C862 N860 1.340 . S
C862 N861 1.321 1_554 S
C862 H886 0.930 . S
H863 C858 0.931 . S
Co864 N861 2.135 . S
Co864 N867 2.121 . S
Co864 O872 2.055 . S
Co864 O875 2.039 . S
Co864 N878 2.140 . S
C865 O866 1.227 . S
C865 O875 1.265 . S
O866 C865 1.227 . S
N867 Co864 2.121 . S
N867 C869 1.375 . S
N867 C870 1.313 . S
C868 C869 1.338 . S
C868 N871 1.377 . S
C868 H888 0.930 . S
C869 N867 1.375 . S
C869 C868 1.338 . S
C869 H873 0.931 . S
C870 N867 1.313 . S
C870 N871 1.344 . S
C870 H874 0.930 . S
N871 C868 1.377 . S
N871 C870 1.344 . S
O872 Co864 2.055 . S
O872 C876 1.253 . S
H873 C869 0.931 . S
H874 C870 0.930 . S
O875 Co864 2.039 . S
O875 C865 1.265 . S
C876 O872 1.253 . S
C876 O877 1.227 . S
O877 C876 1.227 . S
N878 Co864 2.140 . S
N878 C881 1.346 . S
N878 C882 1.345 . S
C879 C880 1.387 . S
C879 C883 1.391 . S
C880 C879 1.387 . S
C880 C881 1.369 . S
C880 H889 0.929 . S
C881 N878 1.346 . S
C881 C880 1.369 . S
C881 H884 0.928 . S
C882 N878 1.345 . S
C882 C883 1.371 . S
C882 H885 0.931 . S
C883 C879 1.391 . S
C883 C882 1.371 . S
C883 H890 0.930 . S
H884 C881 0.928 . S
H885 C882 0.931 . S
H886 C862 0.930 . S
H887 C859 0.930 . S
H888 C868 0.930 . S
H889 C880 0.929 . S
H890 C883 0.930 . S
C891 C892 1.351 . S
C891 N894 1.368 . S
C891 H896 0.931 . S
C892 C891 1.351 . S
C892 N893 1.373 . S
C892 H920 0.930 . S
N893 C892 1.373 . S
N893 C895 1.340 . S
N894 C891 1.368 . S
N894 C895 1.321 . S
N894 Co897 2.135 . S
C895 N893 1.340 . S
C895 N894 1.321 . S
C895 H919 0.930 . S
H896 C891 0.931 . S
Co897 N894 2.135 . S
Co897 N900 2.121 . S
Co897 O905 2.055 . S
Co897 O908 2.039 . S
Co897 N911 2.140 . S
C898 O899 1.227 . S
C898 O908 1.265 . S
O899 C898 1.227 . S
N900 Co897 2.121 . S
N900 C902 1.375 . S
N900 C903 1.313 . S
C901 C902 1.338 . S
C901 N904 1.377 . S
C901 H921 0.930 . S
C902 N900 1.375 . S
C902 C901 1.338 . S
C902 H906 0.931 . S
C903 N900 1.313 . S
C903 N904 1.344 . S
C903 H907 0.930 . S
N904 C901 1.377 . S
N904 C903 1.344 . S
O905 Co897 2.055 . S
O905 C909 1.253 . S
H906 C902 0.931 . S
H907 C903 0.930 . S
O908 Co897 2.039 . S
O908 C898 1.265 . S
C909 O905 1.253 . S
C909 O910 1.227 . S
O910 C909 1.227 . S
N911 Co897 2.140 . S
N911 C914 1.346 . S
N911 C915 1.345 . S
C912 C913 1.387 . S
C912 C916 1.391 . S
C913 C912 1.387 . S
C913 C914 1.369 . S
C913 H922 0.929 . S
C914 N911 1.346 . S
C914 C913 1.369 . S
C914 H917 0.928 . S
C915 N911 1.345 . S
C915 C916 1.371 . S
C915 H918 0.931 . S
C916 C912 1.391 . S
C916 C915 1.371 . S
C916 H923 0.930 . S
H917 C914 0.928 . S
H918 C915 0.931 . S
H919 C895 0.930 . S
H920 C892 0.930 . S
H921 C901 0.930 . S
H922 C913 0.929 . S
H923 C916 0.930 . S
C924 C925 1.351 . S
C924 N927 1.368 . S
C924 H929 0.931 . S
C925 C924 1.351 . S
C925 N926 1.373 . S
C925 H953 0.930 . S
N926 C925 1.373 . S
N926 C928 1.340 . S
N927 C924 1.368 . S
N927 C928 1.321 . S
N927 Co930 2.135 . S
C928 N926 1.340 . S
C928 N927 1.321 . S
C928 H952 0.930 . S
H929 C924 0.931 . S
Co930 N927 2.135 . S
Co930 N933 2.121 . S
Co930 O938 2.055 . S
Co930 O941 2.039 . S
Co930 N944 2.140 . S
C931 O932 1.227 . S
C931 O941 1.265 . S
O932 C931 1.227 . S
N933 Co930 2.121 . S
N933 C935 1.375 . S
N933 C936 1.313 . S
C934 C935 1.338 . S
C934 N937 1.377 . S
C934 H954 0.930 . S
C935 N933 1.375 . S
C935 C934 1.338 . S
C935 H939 0.931 . S
C936 N933 1.313 . S
C936 N937 1.344 . S
C936 H940 0.930 . S
N937 C934 1.377 . S
N937 C936 1.344 . S
O938 Co930 2.055 . S
O938 C942 1.253 . S
H939 C935 0.931 . S
H940 C936 0.930 . S
O941 Co930 2.039 . S
O941 C931 1.265 . S
C942 O938 1.253 . S
C942 O943 1.227 . S
O943 C942 1.227 . S
N944 Co930 2.140 . S
N944 C947 1.346 . S
N944 C948 1.345 . S
C945 C946 1.387 . S
C945 C949 1.391 . S
C946 C945 1.387 . S
C946 C947 1.369 . S
C946 H955 0.929 . S
C947 N944 1.346 . S
C947 C946 1.369 . S
C947 H950 0.928 . S
C948 N944 1.345 . S
C948 C949 1.371 . S
C948 H951 0.931 . S
C949 C945 1.391 . S
C949 C948 1.371 . S
C949 H956 0.930 . S
H950 C947 0.928 . S
H951 C948 0.931 . S
H952 C928 0.930 . S
H953 C925 0.930 . S
H954 C934 0.930 . S
H955 C946 0.929 . S
H956 C949 0.930 . S
C957 C958 1.351 . S
C957 N960 1.368 . S
C957 H962 0.931 . S
C958 C957 1.351 . S
C958 N959 1.373 . S
C958 H986 0.930 . S
N959 C958 1.373 . S
N959 C961 1.340 . S
N960 C957 1.368 . S
N960 C961 1.321 . S
N960 Co963 2.135 . S
C961 N959 1.340 . S
C961 N960 1.321 . S
C961 H985 0.930 . S
H962 C957 0.931 . S
Co963 N960 2.135 . S
Co963 N966 2.121 . S
Co963 O971 2.055 . S
Co963 O974 2.039 . S
Co963 N977 2.140 . S
C964 O965 1.227 . S
C964 O974 1.265 . S
O965 C964 1.227 . S
N966 Co963 2.121 . S
N966 C968 1.375 . S
N966 C969 1.313 . S
C967 C968 1.338 . S
C967 N970 1.377 . S
C967 H987 0.930 . S
C968 N966 1.375 . S
C968 C967 1.338 . S
C968 H972 0.931 . S
C969 N966 1.313 . S
C969 N970 1.344 . S
C969 H973 0.930 . S
N970 C967 1.377 . S
N970 C969 1.344 . S
O971 Co963 2.055 . S
O971 C975 1.253 . S
H972 C968 0.931 . S
H973 C969 0.930 . S
O974 Co963 2.039 . S
O974 C964 1.265 . S
C975 O971 1.253 . S
C975 O976 1.227 . S
O976 C975 1.227 . S
N977 Co963 2.140 . S
N977 C980 1.346 . S
N977 C981 1.345 . S
C978 C979 1.387 . S
C978 C982 1.391 . S
C979 C978 1.387 . S
C979 C980 1.369 . S
C979 H988 0.929 . S
C980 N977 1.346 . S
C980 C979 1.369 . S
C980 H983 0.928 . S
C981 N977 1.345 . S
C981 C982 1.371 . S
C981 H984 0.931 . S
C982 C978 1.391 . S
C982 C981 1.371 . S
C982 H989 0.930 . S
H983 C980 0.928 . S
H984 C981 0.931 . S
H985 C961 0.930 . S
H986 C958 0.930 . S
H987 C967 0.930 . S
H988 C979 0.929 . S
H989 C982 0.930 . S
C990 C991 1.351 1_554 S
C990 N993 1.368 . S
C990 H995 0.931 . S
C991 C990 1.351 1_556 S
C991 N992 1.373 . S
C991 H1019 0.930 . S
N992 C991 1.373 . S
N992 C994 1.340 . S
N993 C990 1.368 . S
N993 C994 1.321 1_554 S
N993 Co996 2.135 . S
C994 N992 1.340 . S
C994 N993 1.321 1_556 S
C994 H1018 0.930 . S
H995 C990 0.931 . S
Co996 N993 2.135 . S
Co996 N999 2.121 . S
Co996 O1004 2.055 . S
Co996 O1007 2.039 . S
Co996 N1010 2.140 . S
C997 O998 1.227 . S
C997 O1007 1.265 . S
O998 C997 1.227 . S
N999 Co996 2.121 . S
N999 C1001 1.375 . S
N999 C1002 1.313 . S
C1000 C1001 1.338 . S
C1000 N1003 1.377 . S
C1000 H1020 0.930 . S
C1001 N999 1.375 . S
C1001 C1000 1.338 . S
C1001 H1005 0.931 . S
C1002 N999 1.313 . S
C1002 N1003 1.344 . S
C1002 H1006 0.930 . S
N1003 C1000 1.377 . S
N1003 C1002 1.344 . S
O1004 Co996 2.055 . S
O1004 C1008 1.253 . S
H1005 C1001 0.931 . S
H1006 C1002 0.930 . S
O1007 Co996 2.039 . S
O1007 C997 1.265 . S
C1008 O1004 1.253 . S
C1008 O1009 1.227 . S
O1009 C1008 1.227 . S
N1010 Co996 2.140 . S
N1010 C1013 1.346 . S
N1010 C1014 1.345 . S
C1011 C1012 1.387 . S
C1011 C1015 1.391 . S
C1012 C1011 1.387 . S
C1012 C1013 1.369 . S
C1012 H1021 0.929 . S
C1013 N1010 1.346 . S
C1013 C1012 1.369 . S
C1013 H1016 0.928 . S
C1014 N1010 1.345 . S
C1014 C1015 1.371 . S
C1014 H1017 0.931 . S
C1015 C1011 1.391 . S
C1015 C1014 1.371 . S
C1015 H1022 0.930 . S
H1016 C1013 0.928 . S
H1017 C1014 0.931 . S
H1018 C994 0.930 . S
H1019 C991 0.930 . S
H1020 C1000 0.930 . S
H1021 C1012 0.929 . S
H1022 C1015 0.930 . S
C1023 C1024 1.351 . S
C1023 N1026 1.368 . S
C1023 H1028 0.931 . S
C1024 C1023 1.351 . S
C1024 N1025 1.373 . S
C1024 H1052 0.930 . S
N1025 C1024 1.373 . S
N1025 C1027 1.340 . S
N1026 C1023 1.368 . S
N1026 C1027 1.321 . S
N1026 Co1029 2.135 . S
C1027 N1025 1.340 . S
C1027 N1026 1.321 . S
C1027 H1051 0.930 . S
H1028 C1023 0.931 . S
Co1029 N1026 2.135 . S
Co1029 N1032 2.121 . S
Co1029 O1037 2.055 . S
Co1029 O1040 2.039 . S
Co1029 N1043 2.140 . S
C1030 O1031 1.227 . S
C1030 O1040 1.265 . S
O1031 C1030 1.227 . S
N1032 Co1029 2.121 . S
N1032 C1034 1.375 . S
N1032 C1035 1.313 . S
C1033 C1034 1.338 . S
C1033 N1036 1.377 . S
C1033 H1053 0.930 . S
C1034 N1032 1.375 . S
C1034 C1033 1.338 . S
C1034 H1038 0.931 . S
C1035 N1032 1.313 . S
C1035 N1036 1.344 . S
C1035 H1039 0.930 . S
N1036 C1033 1.377 . S
N1036 C1035 1.344 . S
O1037 Co1029 2.055 . S
O1037 C1041 1.253 . S
H1038 C1034 0.931 . S
H1039 C1035 0.930 . S
O1040 Co1029 2.039 . S
O1040 C1030 1.265 . S
C1041 O1037 1.253 . S
C1041 O1042 1.227 . S
O1042 C1041 1.227 . S
N1043 Co1029 2.140 . S
N1043 C1046 1.346 . S
N1043 C1047 1.345 . S
C1044 C1045 1.387 . S
C1044 C1048 1.391 . S
C1045 C1044 1.387 . S
C1045 C1046 1.369 . S
C1045 H1054 0.929 . S
C1046 N1043 1.346 . S
C1046 C1045 1.369 . S
C1046 H1049 0.928 . S
C1047 N1043 1.345 . S
C1047 C1048 1.371 . S
C1047 H1050 0.931 . S
C1048 C1044 1.391 . S
C1048 C1047 1.371 . S
C1048 H1055 0.930 . S
H1049 C1046 0.928 . S
H1050 C1047 0.931 . S
H1051 C1027 0.930 . S
H1052 C1024 0.930 . S
H1053 C1033 0.930 . S
H1054 C1045 0.929 . S
H1055 C1048 0.930 . S
H1056 C1064 0.950 . S
H1057 C1069 0.950 . S
H1058 C1066 0.950 . S
H1059 C1068 0.950 . S
H1060 C1070 0.950 . S
H1061 C1072 0.950 . S
H1062 C1074 0.950 . S
H1063 C1075 0.950 . S
C1064 H1056 0.950 . S
C1064 C1065 1.386 . S
C1064 C1066 1.391 . S
C1065 C1064 1.386 . S
C1065 C1069 1.393 . S
C1066 H1058 0.950 . S
C1066 C1064 1.391 . S
C1066 C1067 1.400 . S
C1067 C1066 1.400 . S
C1067 C1068 1.398 . S
C1067 C1073 1.491 . S
C1068 H1059 0.950 . S
C1068 C1067 1.398 . S
C1068 C1069 1.391 . S
C1069 H1057 0.950 . S
C1069 C1065 1.393 . S
C1069 C1068 1.391 . S
C1070 H1060 0.950 . S
C1070 C1071 1.386 . S
C1070 C1072 1.391 . S
C1071 C1070 1.386 . S
C1071 C1075 1.393 . S
C1072 H1061 0.950 . S
C1072 C1070 1.391 . S
C1072 C1073 1.400 . S
C1073 C1067 1.491 . S
C1073 C1072 1.400 . S
C1073 C1074 1.398 . S
C1074 H1062 0.950 . S
C1074 C1073 1.398 . S
C1074 C1075 1.391 . S
C1075 H1063 0.950 . S
C1075 C1071 1.393 . S
C1075 C1074 1.391 . S
H1076 C1084 0.950 . S
H1077 C1089 0.950 . S
H1078 C1086 0.950 . S
H1079 C1088 0.950 . S
H1080 C1090 0.950 . S
H1081 C1092 0.950 . S
H1082 C1094 0.950 . S
H1083 C1095 0.950 . S
C1084 H1076 0.950 . S
C1084 C1085 1.386 . S
C1084 C1086 1.391 . S
C1085 C1084 1.386 . S
C1085 C1089 1.393 . S
C1086 H1078 0.950 . S
C1086 C1084 1.391 . S
C1086 C1087 1.400 . S
C1087 C1086 1.400 . S
C1087 C1088 1.398 . S
C1087 C1093 1.491 . S
C1088 H1079 0.950 . S
C1088 C1087 1.398 . S
C1088 C1089 1.391 . S
C1089 H1077 0.950 . S
C1089 C1085 1.393 . S
C1089 C1088 1.391 . S
C1090 H1080 0.950 . S
C1090 C1091 1.386 . S
C1090 C1092 1.391 . S
C1091 C1090 1.386 . S
C1091 C1095 1.393 . S
C1092 H1081 0.950 . S
C1092 C1090 1.391 . S
C1092 C1093 1.400 . S
C1093 C1087 1.491 . S
C1093 C1092 1.400 . S
C1093 C1094 1.398 . S
C1094 H1082 0.950 . S
C1094 C1093 1.398 . S
C1094 C1095 1.391 . S
C1095 H1083 0.950 . S
C1095 C1091 1.393 . S
C1095 C1094 1.391 . S
H1096 C1104 0.950 . S
H1097 C1109 0.950 . S
H1098 C1106 0.950 . S
H1099 C1108 0.950 . S
H1100 C1110 0.950 . S
H1101 C1112 0.950 . S
H1102 C1114 0.950 . S
H1103 C1115 0.950 . S
C1104 H1096 0.950 . S
C1104 C1105 1.386 . S
C1104 C1106 1.391 . S
C1105 C1104 1.386 . S
C1105 C1109 1.393 . S
C1106 H1098 0.950 . S
C1106 C1104 1.391 . S
C1106 C1107 1.400 . S
C1107 C1106 1.400 . S
C1107 C1108 1.398 . S
C1107 C1113 1.491 . S
C1108 H1099 0.950 . S
C1108 C1107 1.398 . S
C1108 C1109 1.391 . S
C1109 H1097 0.950 . S
C1109 C1105 1.393 . S
C1109 C1108 1.391 . S
C1110 H1100 0.950 . S
C1110 C1111 1.386 . S
C1110 C1112 1.391 . S
C1111 C1110 1.386 . S
C1111 C1115 1.393 . S
C1112 H1101 0.950 . S
C1112 C1110 1.391 . S
C1112 C1113 1.400 . S
C1113 C1107 1.491 . S
C1113 C1112 1.400 . S
C1113 C1114 1.398 . S
C1114 H1102 0.950 . S
C1114 C1113 1.398 . S
C1114 C1115 1.391 . S
C1115 H1103 0.950 . S
C1115 C1111 1.393 . S
C1115 C1114 1.391 . S
H1116 C1124 0.950 . S
H1117 C1129 0.950 . S
H1118 C1126 0.950 . S
H1119 C1128 0.950 . S
H1120 C1130 0.950 . S
H1121 C1132 0.950 . S
H1122 C1134 0.950 . S
H1123 C1135 0.950 1_554 S
C1124 H1116 0.950 . S
C1124 C1125 1.386 . S
C1124 C1126 1.391 . S
C1125 C1124 1.386 . S
C1125 C1129 1.393 . S
C1126 H1118 0.950 . S
C1126 C1124 1.391 . S
C1126 C1127 1.400 . S
C1127 C1126 1.400 . S
C1127 C1128 1.398 . S
C1127 C1133 1.491 . S
C1128 H1119 0.950 . S
C1128 C1127 1.398 . S
C1128 C1129 1.391 . S
C1129 H1117 0.950 . S
C1129 C1125 1.393 . S
C1129 C1128 1.391 . S
C1130 H1120 0.950 . S
C1130 C1131 1.386 . S
C1130 C1132 1.391 . S
C1131 C1130 1.386 . S
C1131 C1135 1.393 . S
C1132 H1121 0.950 . S
C1132 C1130 1.391 . S
C1132 C1133 1.400 . S
C1133 C1127 1.491 . S
C1133 C1132 1.400 . S
C1133 C1134 1.398 . S
C1134 H1122 0.950 . S
C1134 C1133 1.398 . S
C1134 C1135 1.391 . S
C1135 H1123 0.950 1_556 S
C1135 C1131 1.393 . S
C1135 C1134 1.391 . S
H1136 C1144 0.950 . S
H1137 C1149 0.950 . S
H1138 C1146 0.950 . S
H1139 C1148 0.950 . S
H1140 C1150 0.950 1_545 S
H1141 C1152 0.950 . S
H1142 C1154 0.950 . S
H1143 C1155 0.950 . S
C1144 H1136 0.950 . S
C1144 C1145 1.386 . S
C1144 C1146 1.391 . S
C1145 C1144 1.386 . S
C1145 C1149 1.393 . S
C1146 H1138 0.950 . S
C1146 C1144 1.391 . S
C1146 C1147 1.400 . S
C1147 C1146 1.400 . S
C1147 C1148 1.398 . S
C1147 C1153 1.491 . S
C1148 H1139 0.950 . S
C1148 C1147 1.398 . S
C1148 C1149 1.391 . S
C1149 H1137 0.950 . S
C1149 C1145 1.393 . S
C1149 C1148 1.391 . S
C1150 H1140 0.950 1_565 S
C1150 C1151 1.386 . S
C1150 C1152 1.391 . S
C1151 C1150 1.386 . S
C1151 C1155 1.393 . S
C1152 H1141 0.950 . S
C1152 C1150 1.391 . S
C1152 C1153 1.400 . S
C1153 C1147 1.491 . S
C1153 C1152 1.400 . S
C1153 C1154 1.398 . S
C1154 H1142 0.950 . S
C1154 C1153 1.398 . S
C1154 C1155 1.391 . S
C1155 H1143 0.950 . S
C1155 C1151 1.393 . S
C1155 C1154 1.391 . S
H1156 C1164 0.950 1_556 S
H1157 C1169 0.950 . S
H1158 C1166 0.950 . S
H1159 C1168 0.950 . S
H1160 C1170 0.950 . S
H1161 C1172 0.950 . S
H1162 C1174 0.950 . S
H1163 C1175 0.950 . S
C1164 H1156 0.950 1_554 S
C1164 C1165 1.386 . S
C1164 C1166 1.391 . S
C1165 C1164 1.386 . S
C1165 C1169 1.393 . S
C1166 H1158 0.950 . S
C1166 C1164 1.391 . S
C1166 C1167 1.400 . S
C1167 C1166 1.400 . S
C1167 C1168 1.398 . S
C1167 C1173 1.491 . S
C1168 H1159 0.950 . S
C1168 C1167 1.398 . S
C1168 C1169 1.391 . S
C1169 H1157 0.950 . S
C1169 C1165 1.393 . S
C1169 C1168 1.391 . S
C1170 H1160 0.950 . S
C1170 C1171 1.386 . S
C1170 C1172 1.391 . S
C1171 C1170 1.386 . S
C1171 C1175 1.393 . S
C1172 H1161 0.950 . S
C1172 C1170 1.391 . S
C1172 C1173 1.400 . S
C1173 C1167 1.491 . S
C1173 C1172 1.400 . S
C1173 C1174 1.398 . S
C1174 H1162 0.950 . S
C1174 C1173 1.398 . S
C1174 C1175 1.391 . S
C1175 H1163 0.950 . S
C1175 C1171 1.393 . S
C1175 C1174 1.391 . S
H1176 C1184 0.950 . S
H1177 C1189 0.950 . S
H1178 C1186 0.950 . S
H1179 C1188 0.950 . S
H1180 C1190 0.950 . S
H1181 C1192 0.950 . S
H1182 C1194 0.950 . S
H1183 C1195 0.950 1_565 S
C1184 H1176 0.950 . S
C1184 C1185 1.386 . S
C1184 C1186 1.391 . S
C1185 C1184 1.386 . S
C1185 C1189 1.393 . S
C1186 H1178 0.950 . S
C1186 C1184 1.391 . S
C1186 C1187 1.400 . S
C1187 C1186 1.400 . S
C1187 C1188 1.398 . S
C1187 C1193 1.491 . S
C1188 H1179 0.950 . S
C1188 C1187 1.398 . S
C1188 C1189 1.391 . S
C1189 H1177 0.950 . S
C1189 C1185 1.393 . S
C1189 C1188 1.391 . S
C1190 H1180 0.950 . S
C1190 C1191 1.386 . S
C1190 C1192 1.391 . S
C1191 C1190 1.386 . S
C1191 C1195 1.393 . S
C1192 H1181 0.950 . S
C1192 C1190 1.391 . S
C1192 C1193 1.400 . S
C1193 C1187 1.491 . S
C1193 C1192 1.400 . S
C1193 C1194 1.398 . S
C1194 H1182 0.950 . S
C1194 C1193 1.398 . S
C1194 C1195 1.391 . S
C1195 H1183 0.950 1_545 S
C1195 C1191 1.393 . S
C1195 C1194 1.391 . S
H1196 C1204 0.950 . S
H1197 C1209 0.950 . S
H1198 C1206 0.950 . S
H1199 C1208 0.950 . S
H1200 C1210 0.950 . S
H1201 C1212 0.950 . S
H1202 C1214 0.950 . S
H1203 C1215 0.950 . S
C1204 H1196 0.950 . S
C1204 C1205 1.386 . S
C1204 C1206 1.391 . S
C1205 C1204 1.386 . S
C1205 C1209 1.393 . S
C1206 H1198 0.950 . S
C1206 C1204 1.391 . S
C1206 C1207 1.400 . S
C1207 C1206 1.400 . S
C1207 C1208 1.398 . S
C1207 C1213 1.491 . S
C1208 H1199 0.950 . S
C1208 C1207 1.398 . S
C1208 C1209 1.391 . S
C1209 H1197 0.950 . S
C1209 C1205 1.393 . S
C1209 C1208 1.391 . S
C1210 H1200 0.950 . S
C1210 C1211 1.386 . S
C1210 C1212 1.391 . S
C1211 C1210 1.386 . S
C1211 C1215 1.393 . S
C1212 H1201 0.950 . S
C1212 C1210 1.391 . S
C1212 C1213 1.400 . S
C1213 C1207 1.491 . S
C1213 C1212 1.400 . S
C1213 C1214 1.398 . S
C1214 H1202 0.950 . S
C1214 C1213 1.398 . S
C1214 C1215 1.391 . S
C1215 H1203 0.950 . S
C1215 C1211 1.393 . S
C1215 C1214 1.391 . S
H1216 C1224 0.950 1_545 S
H1217 C1229 0.950 . S
H1218 C1226 0.950 . S
H1219 C1228 0.950 . S
H1220 C1230 0.950 . S
H1221 C1232 0.950 . S
H1222 C1234 0.950 . S
H1223 C1235 0.950 . S
C1224 H1216 0.950 1_565 S
C1224 C1225 1.386 . S
C1224 C1226 1.391 . S
C1225 C1224 1.386 . S
C1225 C1229 1.393 . S
C1226 H1218 0.950 . S
C1226 C1224 1.391 . S
C1226 C1227 1.400 . S
C1227 C1226 1.400 . S
C1227 C1228 1.398 . S
C1227 C1233 1.491 . S
C1228 H1219 0.950 . S
C1228 C1227 1.398 . S
C1228 C1229 1.391 . S
C1229 H1217 0.950 . S
C1229 C1225 1.393 . S
C1229 C1228 1.391 . S
C1230 H1220 0.950 . S
C1230 C1231 1.386 . S
C1230 C1232 1.391 . S
C1231 C1230 1.386 . S
C1231 C1235 1.393 . S
C1232 H1221 0.950 . S
C1232 C1230 1.391 . S
C1232 C1233 1.400 . S
C1233 C1227 1.491 . S
C1233 C1232 1.400 . S
C1233 C1234 1.398 . S
C1234 H1222 0.950 . S
C1234 C1233 1.398 . S
C1234 C1235 1.391 . S
C1235 H1223 0.950 . S
C1235 C1231 1.393 . S
C1235 C1234 1.391 . S
H1236 C1244 0.950 . S
H1237 C1249 0.950 . S
H1238 C1246 0.950 . S
H1239 C1248 0.950 . S
H1240 C1250 0.950 . S
H1241 C1252 0.950 . S
H1242 C1254 0.950 . S
H1243 C1255 0.950 . S
C1244 H1236 0.950 . S
C1244 C1245 1.386 . S
C1244 C1246 1.391 . S
C1245 C1244 1.386 . S
C1245 C1249 1.393 . S
C1246 H1238 0.950 . S
C1246 C1244 1.391 . S
C1246 C1247 1.400 . S
C1247 C1246 1.400 . S
C1247 C1248 1.398 . S
C1247 C1253 1.491 . S
C1248 H1239 0.950 . S
C1248 C1247 1.398 . S
C1248 C1249 1.391 . S
C1249 H1237 0.950 . S
C1249 C1245 1.393 . S
C1249 C1248 1.391 . S
C1250 H1240 0.950 . S
C1250 C1251 1.386 . S
C1250 C1252 1.391 . S
C1251 C1250 1.386 . S
C1251 C1255 1.393 . S
C1252 H1241 0.950 . S
C1252 C1250 1.391 . S
C1252 C1253 1.400 . S
C1253 C1247 1.491 . S
C1253 C1252 1.400 . S
C1253 C1254 1.398 . S
C1254 H1242 0.950 . S
C1254 C1253 1.398 . S
C1254 C1255 1.391 . S
C1255 H1243 0.950 . S
C1255 C1251 1.393 . S
C1255 C1254 1.391 . S
H1256 C1264 0.950 . S
H1257 C1269 0.950 . S
H1258 C1266 0.950 . S
H1259 C1268 0.950 . S
H1260 C1270 0.950 . S
H1261 C1272 0.950 . S
H1262 C1274 0.950 . S
H1263 C1275 0.919 1_565 S
C1264 H1256 0.950 . S
C1264 C1265 1.386 . S
C1264 C1266 1.391 . S
C1265 C1264 1.386 . S
C1265 C1269 1.393 . S
C1266 H1258 0.950 . S
C1266 C1264 1.391 . S
C1266 C1267 1.400 . S
C1267 C1266 1.400 . S
C1267 C1268 1.398 . S
C1267 C1273 1.491 . S
C1268 H1259 0.950 . S
C1268 C1267 1.398 . S
C1268 C1269 1.391 . S
C1269 H1257 0.950 . S
C1269 C1265 1.393 . S
C1269 C1268 1.391 . S
C1270 H1260 0.950 . S
C1270 C1271 1.386 . S
C1270 C1272 1.391 . S
C1271 C1270 1.386 . S
C1271 C1275 1.393 . S
C1272 H1261 0.950 . S
C1272 C1270 1.391 . S
C1272 C1273 1.400 . S
C1273 C1267 1.491 . S
C1273 C1272 1.400 . S
C1273 C1274 1.398 . S
C1274 H1262 0.950 . S
C1274 C1273 1.398 . S
C1274 C1275 1.391 . S
C1275 H1263 0.919 1_545 S
C1275 C1271 1.393 . S
C1275 C1274 1.391 . S
H1276 C1284 0.950 . S
H1277 C1289 0.950 . S
H1278 C1286 0.950 . S
H1279 C1288 0.950 . S
H1280 C1290 0.950 . S
H1281 C1292 0.950 . S
H1282 C1294 0.950 . S
H1283 C1295 0.950 . S
C1284 H1276 0.950 . S
C1284 C1285 1.386 . S
C1284 C1286 1.391 . S
C1285 C1284 1.386 . S
C1285 C1289 1.393 1_554 S
C1286 H1278 0.950 . S
C1286 C1284 1.391 . S
C1286 C1287 1.400 . S
C1287 C1286 1.400 . S
C1287 C1288 1.398 . S
C1287 C1293 1.491 . S
C1288 H1279 0.950 . S
C1288 C1287 1.398 . S
C1288 C1289 1.391 1_554 S
C1289 H1277 0.950 . S
C1289 C1285 1.393 1_556 S
C1289 C1288 1.391 1_556 S
C1290 H1280 0.950 . S
C1290 C1291 1.386 . S
C1290 C1292 1.391 . S
C1291 C1290 1.386 . S
C1291 C1295 1.393 . S
C1292 H1281 0.950 . S
C1292 C1290 1.391 . S
C1292 C1293 1.400 . S
C1293 C1287 1.491 . S
C1293 C1292 1.400 . S
C1293 C1294 1.398 . S
C1294 H1282 0.950 . S
C1294 C1293 1.398 . S
C1294 C1295 1.391 . S
C1295 H1283 0.950 . S
C1295 C1291 1.393 . S
C1295 C1294 1.391 . S
H1296 C1304 0.950 . S
H1297 C1309 0.950 . S
H1298 C1306 0.950 . S
H1299 C1308 0.950 . S
H1300 C1310 0.950 1_565 S
H1301 C1312 0.950 . S
H1302 C1314 0.950 . S
H1303 C1315 0.950 . S
C1304 H1296 0.950 . S
C1304 C1305 1.386 . S
C1304 C1306 1.391 . S
C1305 C1304 1.386 . S
C1305 C1309 1.393 . S
C1306 H1298 0.950 . S
C1306 C1304 1.391 . S
C1306 C1307 1.400 . S
C1307 C1306 1.400 . S
C1307 C1308 1.398 . S
C1307 C1313 1.491 . S
C1308 H1299 0.950 . S
C1308 C1307 1.398 . S
C1308 C1309 1.391 . S
C1309 H1297 0.950 . S
C1309 C1305 1.393 . S
C1309 C1308 1.391 . S
C1310 H1300 0.950 1_545 S
C1310 C1311 1.386 . S
C1310 C1312 1.391 . S
C1311 C1310 1.386 . S
C1311 C1315 1.393 . S
C1312 H1301 0.950 . S
C1312 C1310 1.391 . S
C1312 C1313 1.400 . S
C1313 C1307 1.491 . S
C1313 C1312 1.400 . S
C1313 C1314 1.398 . S
C1314 H1302 0.950 . S
C1314 C1313 1.398 . S
C1314 C1315 1.391 . S
C1315 H1303 0.950 . S
C1315 C1311 1.393 . S
C1315 C1314 1.391 . S
H1316 C1324 0.950 . S
H1317 C1329 0.950 . S
H1318 C1326 0.950 . S
H1319 C1328 0.950 . S
H1320 C1330 0.950 . S
H1321 C1332 0.950 . S
H1322 C1334 0.950 . S
H1323 C1335 0.941 1_554 S
C1324 H1316 0.950 . S
C1324 C1325 1.386 . S
C1324 C1326 1.391 . S
C1325 C1324 1.386 . S
C1325 C1329 1.393 . S
C1326 H1318 0.950 . S
C1326 C1324 1.391 . S
C1326 C1327 1.400 . S
C1327 C1326 1.400 . S
C1327 C1328 1.398 . S
C1327 C1333 1.491 . S
C1328 H1319 0.950 . S
C1328 C1327 1.398 . S
C1328 C1329 1.391 . S
C1329 H1317 0.950 . S
C1329 C1325 1.393 . S
C1329 C1328 1.391 . S
C1330 H1320 0.950 . S
C1330 C1331 1.386 . S
C1330 C1332 1.391 . S
C1331 C1330 1.386 . S
C1331 C1335 1.393 . S
C1332 H1321 0.950 . S
C1332 C1330 1.391 . S
C1332 C1333 1.400 . S
C1333 C1327 1.491 . S
C1333 C1332 1.400 . S
C1333 C1334 1.398 . S
C1334 H1322 0.950 . S
C1334 C1333 1.398 . S
C1334 C1335 1.391 . S
C1335 H1323 0.941 1_556 S
C1335 C1331 1.393 . S
C1335 C1334 1.391 . S
H1336 C1344 0.950 1_545 S
H1337 C1349 0.950 . S
H1338 C1346 0.950 . S
H1339 C1348 0.950 . S
H1340 C1350 0.950 . S
H1341 C1352 0.950 . S
H1342 C1354 0.950 . S
H1343 C1355 0.950 . S
C1344 H1336 0.950 1_565 S
C1344 C1345 1.386 . S
C1344 C1346 1.391 . S
C1345 C1344 1.386 . S
C1345 C1349 1.393 . S
C1346 H1338 0.950 . S
C1346 C1344 1.391 . S
C1346 C1347 1.400 . S
C1347 C1346 1.400 . S
C1347 C1348 1.398 . S
C1347 C1353 1.491 . S
C1348 H1339 0.950 . S
C1348 C1347 1.398 . S
C1348 C1349 1.391 . S
C1349 H1337 0.950 . S
C1349 C1345 1.393 . S
C1349 C1348 1.391 . S
C1350 H1340 0.950 . S
C1350 C1351 1.386 . S
C1350 C1352 1.391 . S
C1351 C1350 1.386 . S
C1351 C1355 1.393 . S
C1352 H1341 0.950 . S
C1352 C1350 1.391 . S
C1352 C1353 1.400 . S
C1353 C1347 1.491 . S
C1353 C1352 1.400 . S
C1353 C1354 1.398 . S
C1354 H1342 0.950 . S
C1354 C1353 1.398 . S
C1354 C1355 1.391 . S
C1355 H1343 0.950 . S
C1355 C1351 1.393 . S
C1355 C1354 1.391 . S
H1356 C1364 0.950 . S
H1357 C1369 0.950 . S
H1358 C1366 0.950 . S
H1359 C1368 0.950 . S
H1360 C1370 0.950 . S
H1361 C1372 0.950 . S
H1362 C1374 0.950 . S
H1363 C1375 0.950 . S
C1364 H1356 0.950 . S
C1364 C1365 1.386 . S
C1364 C1366 1.391 . S
C1365 C1364 1.386 . S
C1365 C1369 1.393 . S
C1366 H1358 0.950 . S
C1366 C1364 1.391 . S
C1366 C1367 1.400 . S
C1367 C1366 1.400 . S
C1367 C1368 1.398 . S
C1367 C1373 1.491 . S
C1368 H1359 0.950 . S
C1368 C1367 1.398 . S
C1368 C1369 1.391 . S
C1369 H1357 0.950 . S
C1369 C1365 1.393 . S
C1369 C1368 1.391 . S
C1370 H1360 0.950 . S
C1370 C1371 1.386 . S
C1370 C1372 1.391 . S
C1371 C1370 1.386 . S
C1371 C1375 1.393 . S
C1372 H1361 0.950 . S
C1372 C1370 1.391 . S
C1372 C1373 1.400 . S
C1373 C1367 1.491 . S
C1373 C1372 1.400 . S
C1373 C1374 1.398 . S
C1374 H1362 0.950 . S
C1374 C1373 1.398 . S
C1374 C1375 1.391 . S
C1375 H1363 0.950 . S
C1375 C1371 1.393 . S
C1375 C1374 1.391 . S
H1376 C1384 0.950 . S
H1377 C1389 0.950 . S
H1378 C1386 0.950 . S
H1379 C1388 0.950 . S
H1380 C1390 0.950 . S
H1381 C1392 0.950 . S
H1382 C1394 0.950 . S
H1383 C1395 0.950 . S
C1384 H1376 0.950 . S
C1384 C1385 1.386 . S
C1384 C1386 1.391 . S
C1385 C1384 1.386 . S
C1385 C1389 1.393 . S
C1386 H1378 0.950 . S
C1386 C1384 1.391 . S
C1386 C1387 1.400 . S
C1387 C1386 1.400 . S
C1387 C1388 1.398 . S
C1387 C1393 1.491 . S
C1388 H1379 0.950 . S
C1388 C1387 1.398 . S
C1388 C1389 1.391 . S
C1389 H1377 0.950 . S
C1389 C1385 1.393 . S
C1389 C1388 1.391 . S
C1390 H1380 0.950 . S
C1390 C1391 1.386 . S
C1390 C1392 1.391 . S
C1391 C1390 1.386 . S
C1391 C1395 1.393 . S
C1392 H1381 0.950 . S
C1392 C1390 1.391 . S
C1392 C1393 1.400 . S
C1393 C1387 1.491 . S
C1393 C1392 1.400 . S
C1393 C1394 1.398 . S
C1394 H1382 0.950 . S
C1394 C1393 1.398 . S
C1394 C1395 1.391 . S
C1395 H1383 0.950 . S
C1395 C1391 1.393 . S
C1395 C1394 1.391 . S
H1396 C1404 0.950 . S
H1397 C1409 0.950 . S
H1398 C1406 0.950 . S
H1399 C1408 0.950 . S
H1400 C1410 0.950 . S
H1401 C1412 0.950 . S
H1402 C1414 0.950 . S
H1403 C1415 0.950 . S
C1404 H1396 0.950 . S
C1404 C1405 1.386 . S
C1404 C1406 1.391 . S
C1405 C1404 1.386 . S
C1405 C1409 1.393 . S
C1406 H1398 0.950 . S
C1406 C1404 1.391 . S
C1406 C1407 1.400 . S
C1407 C1406 1.400 . S
C1407 C1408 1.398 . S
C1407 C1413 1.491 . S
C1408 H1399 0.950 . S
C1408 C1407 1.398 . S
C1408 C1409 1.391 . S
C1409 H1397 0.950 . S
C1409 C1405 1.393 . S
C1409 C1408 1.391 . S
C1410 H1400 0.950 . S
C1410 C1411 1.386 . S
C1410 C1412 1.391 . S
C1411 C1410 1.386 . S
C1411 C1415 1.393 . S
C1412 H1401 0.950 . S
C1412 C1410 1.391 . S
C1412 C1413 1.400 . S
C1413 C1407 1.491 . S
C1413 C1412 1.400 . S
C1413 C1414 1.398 . S
C1414 H1402 0.950 . S
C1414 C1413 1.398 . S
C1414 C1415 1.391 . S
C1415 H1403 0.950 . S
C1415 C1411 1.393 . S
C1415 C1414 1.391 . S
H1416 C1424 0.950 . S
H1417 C1429 0.950 . S
H1418 C1426 0.950 . S
H1419 C1428 0.950 . S
H1420 C1430 0.950 . S
H1421 C1432 0.950 . S
H1422 C1434 0.950 . S
H1423 C1435 0.950 . S
C1424 H1416 0.950 . S
C1424 C1425 1.386 . S
C1424 C1426 1.391 . S
C1425 C1424 1.386 . S
C1425 C1429 1.393 . S
C1426 H1418 0.950 . S
C1426 C1424 1.391 . S
C1426 C1427 1.400 . S
C1427 C1426 1.400 . S
C1427 C1428 1.398 . S
C1427 C1433 1.491 . S
C1428 H1419 0.950 . S
C1428 C1427 1.398 . S
C1428 C1429 1.391 . S
C1429 H1417 0.950 . S
C1429 C1425 1.393 . S
C1429 C1428 1.391 . S
C1430 H1420 0.950 . S
C1430 C1431 1.386 . S
C1430 C1432 1.391 . S
C1431 C1430 1.386 . S
C1431 C1435 1.393 . S
C1432 H1421 0.950 . S
C1432 C1430 1.391 . S
C1432 C1433 1.400 . S
C1433 C1427 1.491 . S
C1433 C1432 1.400 . S
C1433 C1434 1.398 . S
C1434 H1422 0.950 . S
C1434 C1433 1.398 . S
C1434 C1435 1.391 . S
C1435 H1423 0.950 . S
C1435 C1431 1.393 . S
C1435 C1434 1.391 . S
H1436 C1444 0.950 . S
H1437 C1449 0.950 . S
H1438 C1446 0.950 . S
H1439 C1448 0.950 . S
H1440 C1450 0.950 . S
H1441 C1452 0.950 . S
H1442 C1454 0.950 . S
H1443 C1455 0.950 . S
C1444 H1436 0.950 . S
C1444 C1445 1.386 . S
C1444 C1446 1.391 . S
C1445 C1444 1.386 . S
C1445 C1449 1.393 . S
C1446 H1438 0.950 . S
C1446 C1444 1.391 . S
C1446 C1447 1.400 . S
C1447 C1446 1.400 . S
C1447 C1448 1.398 . S
C1447 C1453 1.491 . S
C1448 H1439 0.950 . S
C1448 C1447 1.398 . S
C1448 C1449 1.391 . S
C1449 H1437 0.950 . S
C1449 C1445 1.393 . S
C1449 C1448 1.391 . S
C1450 H1440 0.950 . S
C1450 C1451 1.386 . S
C1450 C1452 1.391 . S
C1451 C1450 1.386 . S
C1451 C1455 1.393 . S
C1452 H1441 0.950 . S
C1452 C1450 1.391 . S
C1452 C1453 1.400 . S
C1453 C1447 1.491 . S
C1453 C1452 1.400 . S
C1453 C1454 1.398 . S
C1454 H1442 0.950 . S
C1454 C1453 1.398 . S
C1454 C1455 1.391 . S
C1455 H1443 0.950 . S
C1455 C1451 1.393 . S
C1455 C1454 1.391 . S
H1456 C1464 0.950 . S
H1457 C1469 0.950 . S
H1458 C1466 0.950 . S
H1459 C1468 0.950 . S
H1460 C1470 0.950 . S
H1461 C1472 0.950 . S
H1462 C1474 0.950 . S
H1463 C1475 0.950 . S
C1464 H1456 0.950 . S
C1464 C1465 1.386 . S
C1464 C1466 1.391 . S
C1465 C1464 1.386 . S
C1465 C1469 1.393 . S
C1466 H1458 0.950 . S
C1466 C1464 1.391 . S
C1466 C1467 1.400 . S
C1467 C1466 1.400 . S
C1467 C1468 1.398 . S
C1467 C1473 1.491 . S
C1468 H1459 0.950 . S
C1468 C1467 1.398 . S
C1468 C1469 1.391 . S
C1469 H1457 0.950 . S
C1469 C1465 1.393 . S
C1469 C1468 1.391 . S
C1470 H1460 0.950 . S
C1470 C1471 1.386 . S
C1470 C1472 1.391 . S
C1471 C1470 1.386 . S
C1471 C1475 1.393 . S
C1472 H1461 0.950 . S
C1472 C1470 1.391 . S
C1472 C1473 1.400 . S
C1473 C1467 1.491 . S
C1473 C1472 1.400 . S
C1473 C1474 1.398 . S
C1474 H1462 0.950 . S
C1474 C1473 1.398 . S
C1474 C1475 1.391 . S
C1475 H1463 0.950 . S
C1475 C1471 1.393 . S
C1475 C1474 1.391 . S
H1476 C1484 0.950 . S
H1477 C1489 0.950 . S
H1478 C1486 0.950 . S
H1479 C1488 0.950 . S
H1480 C1490 0.950 . S
H1481 C1492 0.950 . S
H1482 C1494 0.950 . S
H1483 C1495 0.950 . S
C1484 H1476 0.950 . S
C1484 C1485 1.386 . S
C1484 C1486 1.391 . S
C1485 C1484 1.386 . S
C1485 C1489 1.393 . S
C1486 H1478 0.950 . S
C1486 C1484 1.391 . S
C1486 C1487 1.400 . S
C1487 C1486 1.400 . S
C1487 C1488 1.398 . S
C1487 C1493 1.491 . S
C1488 H1479 0.950 . S
C1488 C1487 1.398 . S
C1488 C1489 1.391 . S
C1489 H1477 0.950 . S
C1489 C1485 1.393 . S
C1489 C1488 1.391 . S
C1490 H1480 0.950 . S
C1490 C1491 1.386 . S
C1490 C1492 1.391 . S
C1491 C1490 1.386 . S
C1491 C1495 1.393 . S
C1492 H1481 0.950 . S
C1492 C1490 1.391 . S
C1492 C1493 1.400 . S
C1493 C1487 1.491 . S
C1493 C1492 1.400 . S
C1493 C1494 1.398 . S
C1494 H1482 0.950 . S
C1494 C1493 1.398 . S
C1494 C1495 1.391 . S
C1495 H1483 0.950 . S
C1495 C1491 1.393 . S
C1495 C1494 1.391 . S
H1496 C1504 0.950 . S
H1497 C1509 0.950 . S
H1498 C1506 0.950 . S
H1499 C1508 0.950 . S
H1500 C1510 0.950 . S
H1501 C1512 0.950 . S
H1502 C1514 0.950 . S
H1503 C1515 0.950 . S
C1504 H1496 0.950 . S
C1504 C1505 1.386 . S
C1504 C1506 1.391 . S
C1505 C1504 1.386 . S
C1505 C1509 1.393 . S
C1506 H1498 0.950 . S
C1506 C1504 1.391 . S
C1506 C1507 1.400 . S
C1507 C1506 1.400 . S
C1507 C1508 1.398 . S
C1507 C1513 1.491 . S
C1508 H1499 0.950 . S
C1508 C1507 1.398 . S
C1508 C1509 1.391 . S
C1509 H1497 0.950 . S
C1509 C1505 1.393 . S
C1509 C1508 1.391 . S
C1510 H1500 0.950 . S
C1510 C1511 1.386 . S
C1510 C1512 1.391 . S
C1511 C1510 1.386 . S
C1511 C1515 1.393 . S
C1512 H1501 0.950 . S
C1512 C1510 1.391 . S
C1512 C1513 1.400 . S
C1513 C1507 1.491 . S
C1513 C1512 1.400 . S
C1513 C1514 1.398 . S
C1514 H1502 0.950 . S
C1514 C1513 1.398 . S
C1514 C1515 1.391 . S
C1515 H1503 0.950 . S
C1515 C1511 1.393 . S
C1515 C1514 1.391 . S
H1516 C1524 0.950 . S
H1517 C1529 0.950 . S
H1518 C1526 0.950 . S
H1519 C1528 0.950 . S
H1520 C1530 0.950 . S
H1521 C1532 0.950 . S
H1522 C1534 0.950 . S
H1523 C1535 0.950 . S
C1524 H1516 0.950 . S
C1524 C1525 1.386 . S
C1524 C1526 1.391 . S
C1525 C1524 1.386 . S
C1525 C1529 1.393 . S
C1526 H1518 0.950 . S
C1526 C1524 1.391 . S
C1526 C1527 1.400 . S
C1527 C1526 1.400 . S
C1527 C1528 1.398 . S
C1527 C1533 1.491 . S
C1528 H1519 0.950 . S
C1528 C1527 1.398 . S
C1528 C1529 1.391 . S
C1529 H1517 0.950 . S
C1529 C1525 1.393 . S
C1529 C1528 1.391 . S
C1530 H1520 0.950 . S
C1530 C1531 1.386 . S
C1530 C1532 1.391 . S
C1531 C1530 1.386 . S
C1531 C1535 1.393 1_554 S
C1532 H1521 0.950 . S
C1532 C1530 1.391 . S
C1532 C1533 1.400 . S
C1533 C1527 1.491 . S
C1533 C1532 1.400 . S
C1533 C1534 1.398 . S
C1534 H1522 0.950 . S
C1534 C1533 1.398 . S
C1534 C1535 1.391 1_554 S
C1535 H1523 0.950 . S
C1535 C1531 1.393 1_556 S
C1535 C1534 1.391 1_556 S
H1536 C1544 0.950 . S
H1537 C1549 0.950 . S
H1538 C1546 0.950 . S
H1539 C1548 0.950 . S
H1540 C1550 0.950 . S
H1541 C1552 0.950 . S
H1542 C1554 0.950 . S
H1543 C1555 0.950 . S
C1544 H1536 0.950 . S
C1544 C1545 1.386 . S
C1544 C1546 1.391 . S
C1545 C1544 1.386 . S
C1545 C1549 1.393 . S
C1546 H1538 0.950 . S
C1546 C1544 1.391 . S
C1546 C1547 1.400 . S
C1547 C1546 1.400 . S
C1547 C1548 1.398 . S
C1547 C1553 1.491 . S
C1548 H1539 0.950 . S
C1548 C1547 1.398 . S
C1548 C1549 1.391 . S
C1549 H1537 0.950 . S
C1549 C1545 1.393 . S
C1549 C1548 1.391 . S
C1550 H1540 0.950 . S
C1550 C1551 1.386 . S
C1550 C1552 1.391 . S
C1551 C1550 1.386 . S
C1551 C1555 1.393 . S
C1552 H1541 0.950 . S
C1552 C1550 1.391 . S
C1552 C1553 1.400 . S
C1553 C1547 1.491 . S
C1553 C1552 1.400 . S
C1553 C1554 1.398 . S
C1554 H1542 0.950 . S
C1554 C1553 1.398 . S
C1554 C1555 1.391 . S
C1555 H1543 0.950 . S
C1555 C1551 1.393 . S
C1555 C1554 1.391 . S
H1556 C1564 0.950 . S
H1557 C1569 0.950 . S
H1558 C1566 0.950 . S
H1559 C1568 0.950 . S
H1560 C1570 0.950 . S
H1561 C1572 0.950 . S
H1562 C1574 0.950 . S
H1563 C1575 0.950 1_556 S
C1564 H1556 0.950 . S
C1564 C1565 1.386 . S
C1564 C1566 1.391 . S
C1565 C1564 1.386 . S
C1565 C1569 1.393 . S
C1566 H1558 0.950 . S
C1566 C1564 1.391 . S
C1566 C1567 1.400 . S
C1567 C1566 1.400 . S
C1567 C1568 1.398 . S
C1567 C1573 1.491 . S
C1568 H1559 0.950 . S
C1568 C1567 1.398 . S
C1568 C1569 1.391 . S
C1569 H1557 0.950 . S
C1569 C1565 1.393 . S
C1569 C1568 1.391 . S
C1570 H1560 0.950 . S
C1570 C1571 1.386 . S
C1570 C1572 1.391 . S
C1571 C1570 1.386 . S
C1571 C1575 1.393 . S
C1572 H1561 0.950 . S
C1572 C1570 1.391 . S
C1572 C1573 1.400 . S
C1573 C1567 1.491 . S
C1573 C1572 1.400 . S
C1573 C1574 1.398 . S
C1574 H1562 0.950 . S
C1574 C1573 1.398 . S
C1574 C1575 1.391 . S
C1575 H1563 0.950 1_554 S
C1575 C1571 1.393 . S
C1575 C1574 1.391 . S
H1576 C1584 0.950 . S
H1577 C1589 0.950 . S
H1578 C1586 0.950 . S
H1579 C1588 0.950 . S
H1580 C1590 0.950 . S
H1581 C1592 0.950 . S
H1582 C1594 0.950 . S
H1583 C1595 0.950 . S
C1584 H1576 0.950 . S
C1584 C1585 1.386 . S
C1584 C1586 1.391 . S
C1585 C1584 1.386 . S
C1585 C1589 1.393 . S
C1586 H1578 0.950 . S
C1586 C1584 1.391 . S
C1586 C1587 1.400 . S
C1587 C1586 1.400 . S
C1587 C1588 1.398 . S
C1587 C1593 1.491 . S
C1588 H1579 0.950 . S
C1588 C1587 1.398 . S
C1588 C1589 1.391 . S
C1589 H1577 0.950 . S
C1589 C1585 1.393 . S
C1589 C1588 1.391 . S
C1590 H1580 0.950 . S
C1590 C1591 1.386 . S
C1590 C1592 1.391 . S
C1591 C1590 1.386 . S
C1591 C1595 1.393 . S
C1592 H1581 0.950 . S
C1592 C1590 1.391 . S
C1592 C1593 1.400 . S
C1593 C1587 1.491 . S
C1593 C1592 1.400 . S
C1593 C1594 1.398 . S
C1594 H1582 0.950 . S
C1594 C1593 1.398 . S
C1594 C1595 1.391 . S
C1595 H1583 0.950 . S
C1595 C1591 1.393 . S
C1595 C1594 1.391 . S
H1596 C1604 0.950 . S
H1597 C1609 0.950 . S
H1598 C1606 0.950 . S
H1599 C1608 0.950 . S
H1600 C1610 0.950 . S
H1601 C1612 0.950 . S
H1602 C1614 0.950 . S
H1603 C1615 0.950 . S
C1604 H1596 0.950 . S
C1604 C1605 1.386 . S
C1604 C1606 1.391 . S
C1605 C1604 1.386 . S
C1605 C1609 1.393 . S
C1606 H1598 0.950 . S
C1606 C1604 1.391 . S
C1606 C1607 1.400 . S
C1607 C1606 1.400 . S
C1607 C1608 1.398 . S
C1607 C1613 1.491 . S
C1608 H1599 0.950 . S
C1608 C1607 1.398 . S
C1608 C1609 1.391 . S
C1609 H1597 0.950 . S
C1609 C1605 1.393 . S
C1609 C1608 1.391 . S
C1610 H1600 0.950 . S
C1610 C1611 1.386 . S
C1610 C1612 1.391 . S
C1611 C1610 1.386 . S
C1611 C1615 1.393 . S
C1612 H1601 0.950 . S
C1612 C1610 1.391 . S
C1612 C1613 1.400 . S
C1613 C1607 1.491 . S
C1613 C1612 1.400 . S
C1613 C1614 1.398 . S
C1614 H1602 0.950 . S
C1614 C1613 1.398 . S
C1614 C1615 1.391 . S
C1615 H1603 0.950 . S
C1615 C1611 1.393 . S
C1615 C1614 1.391 . S
H1616 C1624 0.950 . S
H1617 C1629 0.950 . S
H1618 C1626 0.950 . S
H1619 C1628 0.950 . S
H1620 C1630 0.950 . S
H1621 C1632 0.950 . S
H1622 C1634 0.950 . S
H1623 C1635 0.950 . S
C1624 H1616 0.950 . S
C1624 C1625 1.386 . S
C1624 C1626 1.391 . S
C1625 C1624 1.386 . S
C1625 C1629 1.393 . S
C1626 H1618 0.950 . S
C1626 C1624 1.391 . S
C1626 C1627 1.400 . S
C1627 C1626 1.400 . S
C1627 C1628 1.398 . S
C1627 C1633 1.491 . S
C1628 H1619 0.950 . S
C1628 C1627 1.398 . S
C1628 C1629 1.391 . S
C1629 H1617 0.950 . S
C1629 C1625 1.393 . S
C1629 C1628 1.391 . S
C1630 H1620 0.950 . S
C1630 C1631 1.386 . S
C1630 C1632 1.391 . S
C1631 C1630 1.386 . S
C1631 C1635 1.393 . S
C1632 H1621 0.950 . S
C1632 C1630 1.391 . S
C1632 C1633 1.400 . S
C1633 C1627 1.491 . S
C1633 C1632 1.400 . S
C1633 C1634 1.398 . S
C1634 H1622 0.950 . S
C1634 C1633 1.398 . S
C1634 C1635 1.391 . S
C1635 H1623 0.950 . S
C1635 C1631 1.393 . S
C1635 C1634 1.391 . S
H1636 C1644 0.950 . S
H1637 C1649 0.950 . S
H1638 C1646 0.950 . S
H1639 C1648 0.950 . S
H1640 C1650 0.950 . S
H1641 C1652 0.950 . S
H1642 C1654 0.950 . S
H1643 C1655 0.950 . S
C1644 H1636 0.950 . S
C1644 C1645 1.386 . S
C1644 C1646 1.391 . S
C1645 C1644 1.386 . S
C1645 C1649 1.393 . S
C1646 H1638 0.950 . S
C1646 C1644 1.391 . S
C1646 C1647 1.400 . S
C1647 C1646 1.400 . S
C1647 C1648 1.398 . S
C1647 C1653 1.491 . S
C1648 H1639 0.950 . S
C1648 C1647 1.398 . S
C1648 C1649 1.391 . S
C1649 H1637 0.950 . S
C1649 C1645 1.393 . S
C1649 C1648 1.391 . S
C1650 H1640 0.950 . S
C1650 C1651 1.386 . S
C1650 C1652 1.391 . S
C1651 C1650 1.386 . S
C1651 C1655 1.393 . S
C1652 H1641 0.950 . S
C1652 C1650 1.391 . S
C1652 C1653 1.400 . S
C1653 C1647 1.491 . S
C1653 C1652 1.400 . S
C1653 C1654 1.398 . S
C1654 H1642 0.950 . S
C1654 C1653 1.398 . S
C1654 C1655 1.391 . S
C1655 H1643 0.950 . S
C1655 C1651 1.393 . S
C1655 C1654 1.391 . S
H1656 C1664 0.950 . S
H1657 C1669 0.950 . S
H1658 C1666 0.950 . S
H1659 C1668 0.950 . S
H1660 C1670 0.950 . S
H1661 C1672 0.950 . S
H1662 C1674 0.950 . S
H1663 C1675 0.950 . S
C1664 H1656 0.950 . S
C1664 C1665 1.386 . S
C1664 C1666 1.391 . S
C1665 C1664 1.386 . S
C1665 C1669 1.393 . S
C1666 H1658 0.950 . S
C1666 C1664 1.391 . S
C1666 C1667 1.400 . S
C1667 C1666 1.400 . S
C1667 C1668 1.398 . S
C1667 C1673 1.491 . S
C1668 H1659 0.950 . S
C1668 C1667 1.398 . S
C1668 C1669 1.391 . S
C1669 H1657 0.950 . S
C1669 C1665 1.393 . S
C1669 C1668 1.391 . S
C1670 H1660 0.950 . S
C1670 C1671 1.386 . S
C1670 C1672 1.391 . S
C1671 C1670 1.386 . S
C1671 C1675 1.393 . S
C1672 H1661 0.950 . S
C1672 C1670 1.391 . S
C1672 C1673 1.400 . S
C1673 C1667 1.491 . S
C1673 C1672 1.400 . S
C1673 C1674 1.398 . S
C1674 H1662 0.950 . S
C1674 C1673 1.398 . S
C1674 C1675 1.391 . S
C1675 H1663 0.950 . S
C1675 C1671 1.393 . S
C1675 C1674 1.391 . S
H1676 C1684 0.950 . S
H1677 C1689 0.950 . S
H1678 C1686 0.950 . S
H1679 C1688 0.950 . S
H1680 C1690 0.950 . S
H1681 C1692 0.950 . S
H1682 C1694 0.950 . S
H1683 C1695 0.950 . S
C1684 H1676 0.950 . S
C1684 C1685 1.386 1_554 S
C1684 C1686 1.391 1_554 S
C1685 C1684 1.386 1_556 S
C1685 C1689 1.393 . S
C1686 H1678 0.950 . S
C1686 C1684 1.391 1_556 S
C1686 C1687 1.400 . S
C1687 C1686 1.400 . S
C1687 C1688 1.398 . S
C1687 C1693 1.491 . S
C1688 H1679 0.950 . S
C1688 C1687 1.398 . S
C1688 C1689 1.391 . S
C1689 H1677 0.950 . S
C1689 C1685 1.393 . S
C1689 C1688 1.391 . S
C1690 H1680 0.950 . S
C1690 C1691 1.386 . S
C1690 C1692 1.391 . S
C1691 C1690 1.386 . S
C1691 C1695 1.393 . S
C1692 H1681 0.950 . S
C1692 C1690 1.391 . S
C1692 C1693 1.400 . S
C1693 C1687 1.491 . S
C1693 C1692 1.400 . S
C1693 C1694 1.398 . S
C1694 H1682 0.950 . S
C1694 C1693 1.398 . S
C1694 C1695 1.391 . S
C1695 H1683 0.950 . S
C1695 C1691 1.393 . S
C1695 C1694 1.391 . S
H1696 C1704 0.950 . S
H1697 C1709 0.950 . S
H1698 C1706 0.950 . S
H1699 C1708 0.950 . S
H1700 C1710 0.950 . S
H1701 C1712 0.950 . S
H1702 C1714 0.950 . S
H1703 C1715 0.950 . S
C1704 H1696 0.950 . S
C1704 C1705 1.386 . S
C1704 C1706 1.391 . S
C1705 C1704 1.386 . S
C1705 C1709 1.393 . S
C1706 H1698 0.950 . S
C1706 C1704 1.391 . S
C1706 C1707 1.400 . S
C1707 C1706 1.400 . S
C1707 C1708 1.398 . S
C1707 C1713 1.491 . S
C1708 H1699 0.950 . S
C1708 C1707 1.398 . S
C1708 C1709 1.391 . S
C1709 H1697 0.950 . S
C1709 C1705 1.393 . S
C1709 C1708 1.391 . S
C1710 H1700 0.950 . S
C1710 C1711 1.386 . S
C1710 C1712 1.391 . S
C1711 C1710 1.386 . S
C1711 C1715 1.393 . S
C1712 H1701 0.950 . S
C1712 C1710 1.391 . S
C1712 C1713 1.400 . S
C1713 C1707 1.491 . S
C1713 C1712 1.400 . S
C1713 C1714 1.398 . S
C1714 H1702 0.950 . S
C1714 C1713 1.398 . S
C1714 C1715 1.391 . S
C1715 H1703 0.950 . S
C1715 C1711 1.393 . S
C1715 C1714 1.391 . S
H1716 C1724 0.950 . S
H1717 C1729 0.950 . S
H1718 C1726 0.950 . S
H1719 C1728 0.950 . S
H1720 C1730 0.950 . S
H1721 C1732 0.950 . S
H1722 C1734 0.950 . S
H1723 C1735 0.950 . S
C1724 H1716 0.950 . S
C1724 C1725 1.386 1_545 S
C1724 C1726 1.391 . S
C1725 C1724 1.386 1_565 S
C1725 C1729 1.393 . S
C1726 H1718 0.950 . S
C1726 C1724 1.391 . S
C1726 C1727 1.400 1_545 S
C1727 C1726 1.400 1_565 S
C1727 C1728 1.398 . S
C1727 C1733 1.491 1_565 S
C1728 H1719 0.950 . S
C1728 C1727 1.398 . S
C1728 C1729 1.391 . S
C1729 H1717 0.950 . S
C1729 C1725 1.393 . S
C1729 C1728 1.391 . S
C1730 H1720 0.950 . S
C1730 C1731 1.386 1_565 S
C1730 C1732 1.391 . S
C1731 C1730 1.386 1_545 S
C1731 C1735 1.393 . S
C1732 H1721 0.950 . S
C1732 C1730 1.391 . S
C1732 C1733 1.400 1_565 S
C1733 C1727 1.491 1_545 S
C1733 C1732 1.400 1_545 S
C1733 C1734 1.398 . S
C1734 H1722 0.950 . S
C1734 C1733 1.398 . S
C1734 C1735 1.391 . S
C1735 H1723 0.950 . S
C1735 C1731 1.393 . S
C1735 C1734 1.391 . S
H1736 C1744 0.950 . S
H1737 C1749 0.950 . S
H1738 C1746 0.950 . S
H1739 C1748 0.950 . S
H1740 C1750 0.950 . S
H1741 C1752 0.950 . S
H1742 C1754 0.950 . S
H1743 C1755 0.950 . S
C1744 H1736 0.950 . S
C1744 C1745 1.386 . S
C1744 C1746 1.391 . S
C1745 C1744 1.386 . S
C1745 C1749 1.393 . S
C1746 H1738 0.950 . S
C1746 C1744 1.391 . S
C1746 C1747 1.400 . S
C1747 C1746 1.400 . S
C1747 C1748 1.398 . S
C1747 C1753 1.491 . S
C1748 H1739 0.950 . S
C1748 C1747 1.398 . S
C1748 C1749 1.391 . S
C1749 H1737 0.950 . S
C1749 C1745 1.393 . S
C1749 C1748 1.391 . S
C1750 H1740 0.950 . S
C1750 C1751 1.386 . S
C1750 C1752 1.391 . S
C1751 C1750 1.386 . S
C1751 C1755 1.393 . S
C1752 H1741 0.950 . S
C1752 C1750 1.391 . S
C1752 C1753 1.400 . S
C1753 C1747 1.491 . S
C1753 C1752 1.400 . S
C1753 C1754 1.398 . S
C1754 H1742 0.950 . S
C1754 C1753 1.398 . S
C1754 C1755 1.391 . S
C1755 H1743 0.950 . S
C1755 C1751 1.393 . S
C1755 C1754 1.391 . S
H1756 C1764 0.950 . S
H1757 C1769 0.950 . S
H1758 C1766 0.950 . S
H1759 C1768 0.950 . S
H1760 C1770 0.950 . S
H1761 C1772 0.950 . S
H1762 C1774 0.950 . S
H1763 C1775 0.950 . S
C1764 H1756 0.950 . S
C1764 C1765 1.386 . S
C1764 C1766 1.391 . S
C1765 C1764 1.386 . S
C1765 C1769 1.393 1_545 S
C1766 H1758 0.950 . S
C1766 C1764 1.391 . S
C1766 C1767 1.400 . S
C1767 C1766 1.400 . S
C1767 C1768 1.398 1_545 S
C1767 C1773 1.491 1_546 S
C1768 H1759 0.950 . S
C1768 C1767 1.398 1_565 S
C1768 C1769 1.391 . S
C1769 H1757 0.950 . S
C1769 C1765 1.393 1_565 S
C1769 C1768 1.391 . S
C1770 H1760 0.950 . S
C1770 C1771 1.386 . S
C1770 C1772 1.391 . S
C1771 C1770 1.386 . S
C1771 C1775 1.393 1_565 S
C1772 H1761 0.950 . S
C1772 C1770 1.391 . S
C1772 C1773 1.400 . S
C1773 C1767 1.491 1_564 S
C1773 C1772 1.400 . S
C1773 C1774 1.398 1_565 S
C1774 H1762 0.950 . S
C1774 C1773 1.398 1_545 S
C1774 C1775 1.391 . S
C1775 H1763 0.950 . S
C1775 C1771 1.393 1_545 S
C1775 C1774 1.391 . S
H1776 C1784 0.950 . S
H1777 C1789 0.950 . S
H1778 C1786 0.950 . S
H1779 C1788 0.950 . S
H1780 C1790 0.950 . S
H1781 C1792 0.950 . S
H1782 C1794 0.950 . S
H1783 C1795 0.950 . S
C1784 H1776 0.950 . S
C1784 C1785 1.386 . S
C1784 C1786 1.391 . S
C1785 C1784 1.386 . S
C1785 C1789 1.393 . S
C1786 H1778 0.950 . S
C1786 C1784 1.391 . S
C1786 C1787 1.400 . S
C1787 C1786 1.400 . S
C1787 C1788 1.398 . S
C1787 C1793 1.491 . S
C1788 H1779 0.950 . S
C1788 C1787 1.398 . S
C1788 C1789 1.391 . S
C1789 H1777 0.950 . S
C1789 C1785 1.393 . S
C1789 C1788 1.391 . S
C1790 H1780 0.950 . S
C1790 C1791 1.386 . S
C1790 C1792 1.391 . S
C1791 C1790 1.386 . S
C1791 C1795 1.393 . S
C1792 H1781 0.950 . S
C1792 C1790 1.391 . S
C1792 C1793 1.400 . S
C1793 C1787 1.491 . S
C1793 C1792 1.400 . S
C1793 C1794 1.398 . S
C1794 H1782 0.950 . S
C1794 C1793 1.398 . S
C1794 C1795 1.391 . S
C1795 H1783 0.950 . S
C1795 C1791 1.393 . S
C1795 C1794 1.391 . S
H1796 C1804 0.950 . S
H1797 C1809 0.950 . S
H1798 C1806 0.951 . S
H1799 C1808 0.950 . S
H1800 C1810 0.950 . S
H1801 C1812 0.951 . S
H1802 C1814 0.950 . S
H1803 C1815 0.950 . S
C1804 H1796 0.950 . S
C1804 C1805 1.386 . S
C1804 C1806 1.391 . S
C1805 C1804 1.386 . S
C1805 C1809 1.393 . S
C1806 H1798 0.951 . S
C1806 C1804 1.391 . S
C1806 C1807 1.400 . S
C1807 C1806 1.400 . S
C1807 C1808 1.398 . S
C1807 C1813 1.491 1_565 S
C1808 H1799 0.950 . S
C1808 C1807 1.398 . S
C1808 C1809 1.391 . S
C1809 H1797 0.950 . S
C1809 C1805 1.393 . S
C1809 C1808 1.391 . S
C1810 H1800 0.950 . S
C1810 C1811 1.386 . S
C1810 C1812 1.391 . S
C1811 C1810 1.386 . S
C1811 C1815 1.393 . S
C1812 H1801 0.951 . S
C1812 C1810 1.391 . S
C1812 C1813 1.400 . S
C1813 C1807 1.491 1_545 S
C1813 C1812 1.400 . S
C1813 C1814 1.398 . S
C1814 H1802 0.950 . S
C1814 C1813 1.398 . S
C1814 C1815 1.391 . S
C1815 H1803 0.950 . S
C1815 C1811 1.393 . S
C1815 C1814 1.391 . S
H1816 C1824 0.950 . S
H1817 C1829 0.950 . S
H1818 C1826 0.950 . S
H1819 C1828 0.950 . S
H1820 C1830 0.950 . S
H1821 C1832 0.950 . S
H1822 C1834 0.950 . S
H1823 C1835 0.950 . S
C1824 H1816 0.950 . S
C1824 C1825 1.386 . S
C1824 C1826 1.391 . S
C1825 C1824 1.386 . S
C1825 C1829 1.393 . S
C1826 H1818 0.950 . S
C1826 C1824 1.391 . S
C1826 C1827 1.400 . S
C1827 C1826 1.400 . S
C1827 C1828 1.398 . S
C1827 C1833 1.491 . S
C1828 H1819 0.950 . S
C1828 C1827 1.398 . S
C1828 C1829 1.391 . S
C1829 H1817 0.950 . S
C1829 C1825 1.393 . S
C1829 C1828 1.391 . S
C1830 H1820 0.950 . S
C1830 C1831 1.386 . S
C1830 C1832 1.391 . S
C1831 C1830 1.386 . S
C1831 C1835 1.393 . S
C1832 H1821 0.950 . S
C1832 C1830 1.391 . S
C1832 C1833 1.400 . S
C1833 C1827 1.491 . S
C1833 C1832 1.400 . S
C1833 C1834 1.398 . S
C1834 H1822 0.950 . S
C1834 C1833 1.398 . S
C1834 C1835 1.391 . S
C1835 H1823 0.950 . S
C1835 C1831 1.393 . S
C1835 C1834 1.391 . S
H1836 C1844 0.950 . S
H1837 C1849 0.950 . S
H1838 C1846 0.963 . S
H1839 C1848 0.950 . S
H1840 C1850 0.950 . S
H1841 C1852 0.963 . S
H1842 C1854 0.950 . S
H1843 C1855 0.950 . S
C1844 H1836 0.950 . S
C1844 C1845 1.386 . S
C1844 C1846 1.384 1_545 S
C1845 C1844 1.386 . S
C1845 C1849 1.393 . S
C1846 H1838 0.963 . S
C1846 C1844 1.384 1_565 S
C1846 C1847 1.396 1_565 S
C1847 C1846 1.396 1_545 S
C1847 C1848 1.398 . S
C1847 C1853 1.491 1_546 S
C1848 H1839 0.950 . S
C1848 C1847 1.398 . S
C1848 C1849 1.391 . S
C1849 H1837 0.950 . S
C1849 C1845 1.393 . S
C1849 C1848 1.391 . S
C1850 H1840 0.950 . S
C1850 C1851 1.386 . S
C1850 C1852 1.384 1_565 S
C1851 C1850 1.386 . S
C1851 C1855 1.393 . S
C1852 H1841 0.963 . S
C1852 C1850 1.384 1_545 S
C1852 C1853 1.396 1_545 S
C1853 C1847 1.491 1_564 S
C1853 C1852 1.396 1_565 S
C1853 C1854 1.398 . S
C1854 H1842 0.950 . S
C1854 C1853 1.398 . S
C1854 C1855 1.391 . S
C1855 H1843 0.950 . S
C1855 C1851 1.393 . S
C1855 C1854 1.391 . S
H1856 C1864 0.950 . S
H1857 C1869 0.950 . S
H1858 C1866 0.950 . S
H1859 C1868 0.950 . S
H1860 C1870 0.950 . S
H1861 C1872 0.950 . S
H1862 C1874 0.950 . S
H1863 C1875 0.950 . S
C1864 H1856 0.950 . S
C1864 C1865 1.386 . S
C1864 C1866 1.391 . S
C1865 C1864 1.386 . S
C1865 C1869 1.393 . S
C1866 H1858 0.950 . S
C1866 C1864 1.391 . S
C1866 C1867 1.400 . S
C1867 C1866 1.400 . S
C1867 C1868 1.398 . S
C1867 C1873 1.491 . S
C1868 H1859 0.950 . S
C1868 C1867 1.398 . S
C1868 C1869 1.391 . S
C1869 H1857 0.950 . S
C1869 C1865 1.393 . S
C1869 C1868 1.391 . S
C1870 H1860 0.950 . S
C1870 C1871 1.386 . S
C1870 C1872 1.391 . S
C1871 C1870 1.386 . S
C1871 C1875 1.393 . S
C1872 H1861 0.950 . S
C1872 C1870 1.391 . S
C1872 C1873 1.400 . S
C1873 C1867 1.491 . S
C1873 C1872 1.400 . S
C1873 C1874 1.398 . S
C1874 H1862 0.950 . S
C1874 C1873 1.398 . S
C1874 C1875 1.391 . S
C1875 H1863 0.950 . S
C1875 C1871 1.393 . S
C1875 C1874 1.391 . S
H1876 C1884 0.950 . S
H1877 C1889 0.950 . S
H1878 C1886 0.950 . S
H1879 C1888 0.950 . S
H1880 C1890 0.950 . S
H1881 C1892 0.950 . S
H1882 C1894 0.950 . S
H1883 C1895 0.950 . S
C1884 H1876 0.950 . S
C1884 C1885 1.386 . S
C1884 C1886 1.391 . S
C1885 C1884 1.386 . S
C1885 C1889 1.393 . S
C1886 H1878 0.950 . S
C1886 C1884 1.391 . S
C1886 C1887 1.400 . S
C1887 C1886 1.400 . S
C1887 C1888 1.398 . S
C1887 C1893 1.491 1_554 S
C1888 H1879 0.950 . S
C1888 C1887 1.398 . S
C1888 C1889 1.391 . S
C1889 H1877 0.950 . S
C1889 C1885 1.393 . S
C1889 C1888 1.391 . S
C1890 H1880 0.950 . S
C1890 C1891 1.386 . S
C1890 C1892 1.391 . S
C1891 C1890 1.386 . S
C1891 C1895 1.393 . S
C1892 H1881 0.950 . S
C1892 C1890 1.391 . S
C1892 C1893 1.400 . S
C1893 C1887 1.491 1_556 S
C1893 C1892 1.400 . S
C1893 C1894 1.398 . S
C1894 H1882 0.950 . S
C1894 C1893 1.398 . S
C1894 C1895 1.391 . S
C1895 H1883 0.950 . S
C1895 C1891 1.393 . S
C1895 C1894 1.391 . S
H1896 C1904 0.950 . S
H1897 C1909 0.950 . S
H1898 C1906 0.950 . S
H1899 C1908 0.950 . S
H1900 C1910 0.950 . S
H1901 C1912 0.950 . S
H1902 C1914 0.950 . S
H1903 C1915 0.950 . S
C1904 H1896 0.950 . S
C1904 C1905 1.386 . S
C1904 C1906 1.391 . S
C1905 C1904 1.386 . S
C1905 C1909 1.393 . S
C1906 H1898 0.950 . S
C1906 C1904 1.391 . S
C1906 C1907 1.400 . S
C1907 C1906 1.400 . S
C1907 C1908 1.398 . S
C1907 C1913 1.491 . S
C1908 H1899 0.950 . S
C1908 C1907 1.398 . S
C1908 C1909 1.391 . S
C1909 H1897 0.950 . S
C1909 C1905 1.393 . S
C1909 C1908 1.391 . S
C1910 H1900 0.950 . S
C1910 C1911 1.386 . S
C1910 C1912 1.391 . S
C1911 C1910 1.386 . S
C1911 C1915 1.393 . S
C1912 H1901 0.950 . S
C1912 C1910 1.391 . S
C1912 C1913 1.400 . S
C1913 C1907 1.491 . S
C1913 C1912 1.400 . S
C1913 C1914 1.398 . S
C1914 H1902 0.950 . S
C1914 C1913 1.398 . S
C1914 C1915 1.391 . S
C1915 H1903 0.950 . S
C1915 C1911 1.393 . S
C1915 C1914 1.391 . S
H1916 C1924 0.950 . S
H1917 C1929 0.950 . S
H1918 C1926 0.950 . S
H1919 C1928 0.950 . S
H1920 C1930 0.950 . S
H1921 C1932 0.950 . S
H1922 C1934 0.950 . S
H1923 C1935 0.950 . S
C1924 H1916 0.950 . S
C1924 C1925 1.386 . S
C1924 C1926 1.391 . S
C1925 C1924 1.386 . S
C1925 C1929 1.393 . S
C1926 H1918 0.950 . S
C1926 C1924 1.391 . S
C1926 C1927 1.400 . S
C1927 C1926 1.400 . S
C1927 C1928 1.398 . S
C1927 C1933 1.491 . S
C1928 H1919 0.950 . S
C1928 C1927 1.398 . S
C1928 C1929 1.391 . S
C1929 H1917 0.950 . S
C1929 C1925 1.393 . S
C1929 C1928 1.391 . S
C1930 H1920 0.950 . S
C1930 C1931 1.386 . S
C1930 C1932 1.391 . S
C1931 C1930 1.386 . S
C1931 C1935 1.393 . S
C1932 H1921 0.950 . S
C1932 C1930 1.391 . S
C1932 C1933 1.400 . S
C1933 C1927 1.491 . S
C1933 C1932 1.400 . S
C1933 C1934 1.398 . S
C1934 H1922 0.950 . S
C1934 C1933 1.398 . S
C1934 C1935 1.391 . S
C1935 H1923 0.950 . S
C1935 C1931 1.393 . S
C1935 C1934 1.391 . S
H1936 C1944 0.950 . S
H1937 C1949 0.950 . S
H1938 C1946 0.950 . S
H1939 C1948 0.950 . S
H1940 C1950 0.950 . S
H1941 C1952 0.950 . S
H1942 C1954 0.950 . S
H1943 C1955 0.950 . S
C1944 H1936 0.950 . S
C1944 C1945 1.386 . S
C1944 C1946 1.391 . S
C1945 C1944 1.386 . S
C1945 C1949 1.393 . S
C1946 H1938 0.950 . S
C1946 C1944 1.391 . S
C1946 C1947 1.400 . S
C1947 C1946 1.400 . S
C1947 C1948 1.398 . S
C1947 C1953 1.491 . S
C1948 H1939 0.950 . S
C1948 C1947 1.398 . S
C1948 C1949 1.391 . S
C1949 H1937 0.950 . S
C1949 C1945 1.393 . S
C1949 C1948 1.391 . S
C1950 H1940 0.950 . S
C1950 C1951 1.386 . S
C1950 C1952 1.391 . S
C1951 C1950 1.386 . S
C1951 C1955 1.393 . S
C1952 H1941 0.950 . S
C1952 C1950 1.391 . S
C1952 C1953 1.400 . S
C1953 C1947 1.491 . S
C1953 C1952 1.400 . S
C1953 C1954 1.398 . S
C1954 H1942 0.950 . S
C1954 C1953 1.398 . S
C1954 C1955 1.391 . S
C1955 H1943 0.950 . S
C1955 C1951 1.393 . S
C1955 C1954 1.391 . S
H1956 C1964 0.950 . S
H1957 C1969 0.950 . S
H1958 C1966 0.950 . S
H1959 C1968 0.950 . S
H1960 C1970 0.950 . S
H1961 C1972 0.950 . S
H1962 C1974 0.950 . S
H1963 C1975 0.950 . S
C1964 H1956 0.950 . S
C1964 C1965 1.386 . S
C1964 C1966 1.391 . S
C1965 C1964 1.386 . S
C1965 C1969 1.393 . S
C1966 H1958 0.950 . S
C1966 C1964 1.391 . S
C1966 C1967 1.400 . S
C1967 C1966 1.400 . S
C1967 C1968 1.398 . S
C1967 C1973 1.491 1_556 S
C1968 H1959 0.950 . S
C1968 C1967 1.398 . S
C1968 C1969 1.391 . S
C1969 H1957 0.950 . S
C1969 C1965 1.393 . S
C1969 C1968 1.391 . S
C1970 H1960 0.950 . S
C1970 C1971 1.386 . S
C1970 C1972 1.391 . S
C1971 C1970 1.386 . S
C1971 C1975 1.393 . S
C1972 H1961 0.950 . S
C1972 C1970 1.391 . S
C1972 C1973 1.400 . S
C1973 C1967 1.491 1_554 S
C1973 C1972 1.400 . S
C1973 C1974 1.398 . S
C1974 H1962 0.950 . S
C1974 C1973 1.398 . S
C1974 C1975 1.391 . S
C1975 H1963 0.950 . S
C1975 C1971 1.393 . S
C1975 C1974 1.391 . S
H1976 C1984 0.950 . S
H1977 C1989 0.950 . S
H1978 C1986 0.950 . S
H1979 C1988 0.950 . S
H1980 C1990 0.950 . S
H1981 C1992 0.950 . S
H1982 C1994 0.950 . S
H1983 C1995 0.950 . S
C1984 H1976 0.950 . S
C1984 C1985 1.386 . S
C1984 C1986 1.391 . S
C1985 C1984 1.386 . S
C1985 C1989 1.393 . S
C1986 H1978 0.950 . S
C1986 C1984 1.391 . S
C1986 C1987 1.400 . S
C1987 C1986 1.400 . S
C1987 C1988 1.398 . S
C1987 C1993 1.491 . S
C1988 H1979 0.950 . S
C1988 C1987 1.398 . S
C1988 C1989 1.391 . S
C1989 H1977 0.950 . S
C1989 C1985 1.393 . S
C1989 C1988 1.391 . S
C1990 H1980 0.950 . S
C1990 C1991 1.386 . S
C1990 C1992 1.391 . S
C1991 C1990 1.386 . S
C1991 C1995 1.393 . S
C1992 H1981 0.950 . S
C1992 C1990 1.391 . S
C1992 C1993 1.400 . S
C1993 C1987 1.491 . S
C1993 C1992 1.400 . S
C1993 C1994 1.398 . S
C1994 H1982 0.950 . S
C1994 C1993 1.398 . S
C1994 C1995 1.391 . S
C1995 H1983 0.950 . S
C1995 C1991 1.393 . S
C1995 C1994 1.391 . S
H1996 C2004 0.950 . S
H1997 C2009 0.950 . S
H1998 C2006 0.950 . S
H1999 C2008 0.950 . S
H2000 C2010 0.950 . S
H2001 C2012 0.950 . S
H2002 C2014 0.950 . S
H2003 C2015 0.950 . S
C2004 H1996 0.950 . S
C2004 C2005 1.386 . S
C2004 C2006 1.391 . S
C2005 C2004 1.386 . S
C2005 C2009 1.393 . S
C2006 H1998 0.950 . S
C2006 C2004 1.391 . S
C2006 C2007 1.400 . S
C2007 C2006 1.400 . S
C2007 C2008 1.398 . S
C2007 C2013 1.491 . S
C2008 H1999 0.950 . S
C2008 C2007 1.398 . S
C2008 C2009 1.391 . S
C2009 H1997 0.950 . S
C2009 C2005 1.393 . S
C2009 C2008 1.391 . S
C2010 H2000 0.950 . S
C2010 C2011 1.386 . S
C2010 C2012 1.391 . S
C2011 C2010 1.386 . S
C2011 C2015 1.393 . S
C2012 H2001 0.950 . S
C2012 C2010 1.391 . S
C2012 C2013 1.400 . S
C2013 C2007 1.491 . S
C2013 C2012 1.400 . S
C2013 C2014 1.398 . S
C2014 H2002 0.950 . S
C2014 C2013 1.398 . S
C2014 C2015 1.391 . S
C2015 H2003 0.950 . S
C2015 C2011 1.393 . S
C2015 C2014 1.391 . S
H2016 C2024 0.950 . S
H2017 C2029 0.950 . S
H2018 C2026 0.950 . S
H2019 C2028 0.950 . S
H2020 C2030 0.950 . S
H2021 C2032 0.950 . S
H2022 C2034 0.950 . S
H2023 C2035 0.950 . S
C2024 H2016 0.950 . S
C2024 C2025 1.386 . S
C2024 C2026 1.391 . S
C2025 C2024 1.386 . S
C2025 C2029 1.393 . S
C2026 H2018 0.950 . S
C2026 C2024 1.391 . S
C2026 C2027 1.400 . S
C2027 C2026 1.400 . S
C2027 C2028 1.398 . S
C2027 C2033 1.491 . S
C2028 H2019 0.950 . S
C2028 C2027 1.398 . S
C2028 C2029 1.391 . S
C2029 H2017 0.950 . S
C2029 C2025 1.393 . S
C2029 C2028 1.391 . S
C2030 H2020 0.950 . S
C2030 C2031 1.386 . S
C2030 C2032 1.391 . S
C2031 C2030 1.386 . S
C2031 C2035 1.393 . S
C2032 H2021 0.950 . S
C2032 C2030 1.391 . S
C2032 C2033 1.400 . S
C2033 C2027 1.491 . S
C2033 C2032 1.400 . S
C2033 C2034 1.398 . S
C2034 H2022 0.950 . S
C2034 C2033 1.398 . S
C2034 C2035 1.391 . S
C2035 H2023 0.950 . S
C2035 C2031 1.393 . S
C2035 C2034 1.391 . S
H2036 C2044 0.950 . S
H2037 C2049 0.950 . S
H2038 C2046 0.950 . S
H2039 C2048 0.950 . S
H2040 C2050 0.950 . S
H2041 C2052 0.950 . S
H2042 C2054 0.950 . S
H2043 C2055 0.950 . S
C2044 H2036 0.950 . S
C2044 C2045 1.386 . S
C2044 C2046 1.391 . S
C2045 C2044 1.386 . S
C2045 C2049 1.393 . S
C2046 H2038 0.950 . S
C2046 C2044 1.391 . S
C2046 C2047 1.400 . S
C2047 C2046 1.400 . S
C2047 C2048 1.398 . S
C2047 C2053 1.491 . S
C2048 H2039 0.950 . S
C2048 C2047 1.398 . S
C2048 C2049 1.391 . S
C2049 H2037 0.950 . S
C2049 C2045 1.393 . S
C2049 C2048 1.391 . S
C2050 H2040 0.950 . S
C2050 C2051 1.386 . S
C2050 C2052 1.391 . S
C2051 C2050 1.386 . S
C2051 C2055 1.393 . S
C2052 H2041 0.950 . S
C2052 C2050 1.391 . S
C2052 C2053 1.400 . S
C2053 C2047 1.491 . S
C2053 C2052 1.400 . S
C2053 C2054 1.398 . S
C2054 H2042 0.950 . S
C2054 C2053 1.398 . S
C2054 C2055 1.391 . S
C2055 H2043 0.950 . S
C2055 C2051 1.393 . S
C2055 C2054 1.391 . S
H2056 C2064 0.950 . S
H2057 C2069 0.950 . S
H2058 C2066 0.950 . S
H2059 C2068 0.950 . S
H2060 C2070 0.950 . S
H2061 C2072 0.950 . S
H2062 C2074 0.950 . S
H2063 C2075 0.950 . S
C2064 H2056 0.950 . S
C2064 C2065 1.386 . S
C2064 C2066 1.391 . S
C2065 C2064 1.386 . S
C2065 C2069 1.393 . S
C2066 H2058 0.950 . S
C2066 C2064 1.391 . S
C2066 C2067 1.400 . S
C2067 C2066 1.400 . S
C2067 C2068 1.398 . S
C2067 C2073 1.491 . S
C2068 H2059 0.950 . S
C2068 C2067 1.398 . S
C2068 C2069 1.391 . S
C2069 H2057 0.950 . S
C2069 C2065 1.393 . S
C2069 C2068 1.391 . S
C2070 H2060 0.950 . S
C2070 C2071 1.386 . S
C2070 C2072 1.391 . S
C2071 C2070 1.386 . S
C2071 C2075 1.393 . S
C2072 H2061 0.950 . S
C2072 C2070 1.391 . S
C2072 C2073 1.400 . S
C2073 C2067 1.491 . S
C2073 C2072 1.400 . S
C2073 C2074 1.398 . S
C2074 H2062 0.950 . S
C2074 C2073 1.398 . S
C2074 C2075 1.391 . S
C2075 H2063 0.950 . S
C2075 C2071 1.393 . S
C2075 C2074 1.391 . S
H2076 C2084 0.950 . S
H2077 C2089 0.950 . S
H2078 C2086 0.950 . S
H2079 C2088 0.950 . S
H2080 C2090 0.950 . S
H2081 C2092 0.950 . S
H2082 C2094 0.950 . S
H2083 C2095 0.950 . S
C2084 H2076 0.950 . S
C2084 C2085 1.386 . S
C2084 C2086 1.391 . S
C2085 C2084 1.386 . S
C2085 C2089 1.393 . S
C2086 H2078 0.950 . S
C2086 C2084 1.391 . S
C2086 C2087 1.400 . S
C2087 C2086 1.400 . S
C2087 C2088 1.398 . S
C2087 C2093 1.491 . S
C2088 H2079 0.950 . S
C2088 C2087 1.398 . S
C2088 C2089 1.391 . S
C2089 H2077 0.950 . S
C2089 C2085 1.393 . S
C2089 C2088 1.391 . S
C2090 H2080 0.950 . S
C2090 C2091 1.386 . S
C2090 C2092 1.391 . S
C2091 C2090 1.386 . S
C2091 C2095 1.393 . S
C2092 H2081 0.950 . S
C2092 C2090 1.391 . S
C2092 C2093 1.400 . S
C2093 C2087 1.491 . S
C2093 C2092 1.400 . S
C2093 C2094 1.398 . S
C2094 H2082 0.950 . S
C2094 C2093 1.398 . S
C2094 C2095 1.391 . S
C2095 H2083 0.950 . S
C2095 C2091 1.393 . S
C2095 C2094 1.391 . S
H2096 C2104 0.950 . S
H2097 C2109 0.950 . S
H2098 C2106 0.950 . S
H2099 C2108 0.950 . S
H2100 C2110 0.950 . S
H2101 C2112 0.950 . S
H2102 C2114 0.950 . S
H2103 C2115 0.950 . S
C2104 H2096 0.950 . S
C2104 C2105 1.386 . S
C2104 C2106 1.391 . S
C2105 C2104 1.386 . S
C2105 C2109 1.393 . S
C2106 H2098 0.950 . S
C2106 C2104 1.391 . S
C2106 C2107 1.400 . S
C2107 C2106 1.400 . S
C2107 C2108 1.398 . S
C2107 C2113 1.491 . S
C2108 H2099 0.950 . S
C2108 C2107 1.398 . S
C2108 C2109 1.391 . S
C2109 H2097 0.950 . S
C2109 C2105 1.393 . S
C2109 C2108 1.391 . S
C2110 H2100 0.950 . S
C2110 C2111 1.386 . S
C2110 C2112 1.391 . S
C2111 C2110 1.386 . S
C2111 C2115 1.393 . S
C2112 H2101 0.950 . S
C2112 C2110 1.391 . S
C2112 C2113 1.400 . S
C2113 C2107 1.491 . S
C2113 C2112 1.400 . S
C2113 C2114 1.398 . S
C2114 H2102 0.950 . S
C2114 C2113 1.398 . S
C2114 C2115 1.391 . S
C2115 H2103 0.950 . S
C2115 C2111 1.393 . S
C2115 C2114 1.391 . S
H2116 C2124 0.950 . S
H2117 C2129 0.950 . S
H2118 C2126 0.950 . S
H2119 C2128 0.950 . S
H2120 C2130 0.950 . S
H2121 C2132 0.950 . S
H2122 C2134 0.950 . S
H2123 C2135 0.950 . S
C2124 H2116 0.950 . S
C2124 C2125 1.386 . S
C2124 C2126 1.391 . S
C2125 C2124 1.386 . S
C2125 C2129 1.393 . S
C2126 H2118 0.950 . S
C2126 C2124 1.391 . S
C2126 C2127 1.400 . S
C2127 C2126 1.400 . S
C2127 C2128 1.398 . S
C2127 C2133 1.491 . S
C2128 H2119 0.950 . S
C2128 C2127 1.398 . S
C2128 C2129 1.391 . S
C2129 H2117 0.950 . S
C2129 C2125 1.393 . S
C2129 C2128 1.391 . S
C2130 H2120 0.950 . S
C2130 C2131 1.386 . S
C2130 C2132 1.391 . S
C2131 C2130 1.386 . S
C2131 C2135 1.393 . S
C2132 H2121 0.950 . S
C2132 C2130 1.391 . S
C2132 C2133 1.400 . S
C2133 C2127 1.491 . S
C2133 C2132 1.400 . S
C2133 C2134 1.398 . S
C2134 H2122 0.950 . S
C2134 C2133 1.398 . S
C2134 C2135 1.391 . S
C2135 H2123 0.950 . S
C2135 C2131 1.393 . S
C2135 C2134 1.391 . S
H2136 C2144 0.950 . S
H2137 C2149 0.950 . S
H2138 C2146 0.950 . S
H2139 C2148 0.950 . S
H2140 C2150 0.950 . S
H2141 C2152 0.950 . S
H2142 C2154 0.950 . S
H2143 C2155 0.950 . S
C2144 H2136 0.950 . S
C2144 C2145 1.386 . S
C2144 C2146 1.391 . S
C2145 C2144 1.386 . S
C2145 C2149 1.393 . S
C2146 H2138 0.950 . S
C2146 C2144 1.391 . S
C2146 C2147 1.400 . S
C2147 C2146 1.400 . S
C2147 C2148 1.398 . S
C2147 C2153 1.491 . S
C2148 H2139 0.950 . S
C2148 C2147 1.398 . S
C2148 C2149 1.391 . S
C2149 H2137 0.950 . S
C2149 C2145 1.393 . S
C2149 C2148 1.391 . S
C2150 H2140 0.950 . S
C2150 C2151 1.386 . S
C2150 C2152 1.391 . S
C2151 C2150 1.386 . S
C2151 C2155 1.393 . S
C2152 H2141 0.950 . S
C2152 C2150 1.391 . S
C2152 C2153 1.400 . S
C2153 C2147 1.491 . S
C2153 C2152 1.400 . S
C2153 C2154 1.398 . S
C2154 H2142 0.950 . S
C2154 C2153 1.398 . S
C2154 C2155 1.391 . S
C2155 H2143 0.950 . S
C2155 C2151 1.393 . S
C2155 C2154 1.391 . S
H2156 C2164 0.950 . S
H2157 C2169 0.950 . S
H2158 C2166 0.950 . S
H2159 C2168 0.950 . S
H2160 C2170 0.950 . S
H2161 C2172 0.950 . S
H2162 C2174 0.950 . S
H2163 C2175 0.950 . S
C2164 H2156 0.950 . S
C2164 C2165 1.386 . S
C2164 C2166 1.391 . S
C2165 C2164 1.386 . S
C2165 C2169 1.393 . S
C2166 H2158 0.950 . S
C2166 C2164 1.391 . S
C2166 C2167 1.400 . S
C2167 C2166 1.400 . S
C2167 C2168 1.398 . S
C2167 C2173 1.491 . S
C2168 H2159 0.950 . S
C2168 C2167 1.398 . S
C2168 C2169 1.391 . S
C2169 H2157 0.950 . S
C2169 C2165 1.393 . S
C2169 C2168 1.391 . S
C2170 H2160 0.950 . S
C2170 C2171 1.386 . S
C2170 C2172 1.391 . S
C2171 C2170 1.386 . S
C2171 C2175 1.393 . S
C2172 H2161 0.950 . S
C2172 C2170 1.391 . S
C2172 C2173 1.400 . S
C2173 C2167 1.491 . S
C2173 C2172 1.400 . S
C2173 C2174 1.398 . S
C2174 H2162 0.950 . S
C2174 C2173 1.398 . S
C2174 C2175 1.391 . S
C2175 H2163 0.950 . S
C2175 C2171 1.393 . S
C2175 C2174 1.391 . S
H2176 C2184 0.950 . S
H2177 C2189 0.950 . S
H2178 C2186 0.950 . S
H2179 C2188 0.950 . S
H2180 C2190 0.950 . S
H2181 C2192 0.950 . S
H2182 C2194 0.950 . S
H2183 C2195 0.950 . S
C2184 H2176 0.950 . S
C2184 C2185 1.386 . S
C2184 C2186 1.391 . S
C2185 C2184 1.386 . S
C2185 C2189 1.393 . S
C2186 H2178 0.950 . S
C2186 C2184 1.391 . S
C2186 C2187 1.400 . S
C2187 C2186 1.400 . S
C2187 C2188 1.398 . S
C2187 C2193 1.491 . S
C2188 H2179 0.950 . S
C2188 C2187 1.398 . S
C2188 C2189 1.391 . S
C2189 H2177 0.950 . S
C2189 C2185 1.393 . S
C2189 C2188 1.391 . S
C2190 H2180 0.950 . S
C2190 C2191 1.386 . S
C2190 C2192 1.391 . S
C2191 C2190 1.386 . S
C2191 C2195 1.393 . S
C2192 H2181 0.950 . S
C2192 C2190 1.391 . S
C2192 C2193 1.400 . S
C2193 C2187 1.491 . S
C2193 C2192 1.400 . S
C2193 C2194 1.398 . S
C2194 H2182 0.950 . S
C2194 C2193 1.398 . S
C2194 C2195 1.391 . S
C2195 H2183 0.950 . S
C2195 C2191 1.393 . S
C2195 C2194 1.391 . S
H2196 C2204 0.950 . S
H2197 C2209 0.950 . S
H2198 C2206 0.950 . S
H2199 C2208 0.950 . S
H2200 C2210 0.950 . S
H2201 C2212 0.950 . S
H2202 C2214 0.950 . S
H2203 C2215 0.950 . S
C2204 H2196 0.950 . S
C2204 C2205 1.386 . S
C2204 C2206 1.391 . S
C2205 C2204 1.386 . S
C2205 C2209 1.393 . S
C2206 H2198 0.950 . S
C2206 C2204 1.391 . S
C2206 C2207 1.400 . S
C2207 C2206 1.400 . S
C2207 C2208 1.398 . S
C2207 C2213 1.491 . S
C2208 H2199 0.950 . S
C2208 C2207 1.398 . S
C2208 C2209 1.391 . S
C2209 H2197 0.950 . S
C2209 C2205 1.393 . S
C2209 C2208 1.391 . S
C2210 H2200 0.950 . S
C2210 C2211 1.386 . S
C2210 C2212 1.391 . S
C2211 C2210 1.386 . S
C2211 C2215 1.393 . S
C2212 H2201 0.950 . S
C2212 C2210 1.391 . S
C2212 C2213 1.400 . S
C2213 C2207 1.491 . S
C2213 C2212 1.400 . S
C2213 C2214 1.398 . S
C2214 H2202 0.950 . S
C2214 C2213 1.398 . S
C2214 C2215 1.391 . S
C2215 H2203 0.950 . S
C2215 C2211 1.393 . S
C2215 C2214 1.391 . S
H2216 C2224 0.950 . S
H2217 C2229 0.950 . S
H2218 C2226 0.950 . S
H2219 C2228 0.950 . S
H2220 C2230 0.950 . S
H2221 C2232 0.950 . S
H2222 C2234 0.950 . S
H2223 C2235 0.950 . S
C2224 H2216 0.950 . S
C2224 C2225 1.386 . S
C2224 C2226 1.391 . S
C2225 C2224 1.386 . S
C2225 C2229 1.393 . S
C2226 H2218 0.950 . S
C2226 C2224 1.391 . S
C2226 C2227 1.400 . S
C2227 C2226 1.400 . S
C2227 C2228 1.398 . S
C2227 C2233 1.491 . S
C2228 H2219 0.950 . S
C2228 C2227 1.398 . S
C2228 C2229 1.391 . S
C2229 H2217 0.950 . S
C2229 C2225 1.393 . S
C2229 C2228 1.391 . S
C2230 H2220 0.950 . S
C2230 C2231 1.386 . S
C2230 C2232 1.391 . S
C2231 C2230 1.386 . S
C2231 C2235 1.393 . S
C2232 H2221 0.950 . S
C2232 C2230 1.391 . S
C2232 C2233 1.400 . S
C2233 C2227 1.491 . S
C2233 C2232 1.400 . S
C2233 C2234 1.398 . S
C2234 H2222 0.950 . S
C2234 C2233 1.398 . S
C2234 C2235 1.391 . S
C2235 H2223 0.950 . S
C2235 C2231 1.393 . S
C2235 C2234 1.391 . S
H2236 C2244 0.950 . S
H2237 C2249 0.950 . S
H2238 C2246 0.950 . S
H2239 C2248 0.950 . S
H2240 C2250 0.950 . S
H2241 C2252 0.950 . S
H2242 C2254 0.950 . S
H2243 C2255 0.950 . S
C2244 H2236 0.950 . S
C2244 C2245 1.386 . S
C2244 C2246 1.391 . S
C2245 C2244 1.386 . S
C2245 C2249 1.393 . S
C2246 H2238 0.950 . S
C2246 C2244 1.391 . S
C2246 C2247 1.400 . S
C2247 C2246 1.400 . S
C2247 C2248 1.398 . S
C2247 C2253 1.491 . S
C2248 H2239 0.950 . S
C2248 C2247 1.398 . S
C2248 C2249 1.391 . S
C2249 H2237 0.950 . S
C2249 C2245 1.393 . S
C2249 C2248 1.391 . S
C2250 H2240 0.950 . S
C2250 C2251 1.386 . S
C2250 C2252 1.391 . S
C2251 C2250 1.386 . S
C2251 C2255 1.393 . S
C2252 H2241 0.950 . S
C2252 C2250 1.391 . S
C2252 C2253 1.400 . S
C2253 C2247 1.491 . S
C2253 C2252 1.400 . S
C2253 C2254 1.398 . S
C2254 H2242 0.950 . S
C2254 C2253 1.398 . S
C2254 C2255 1.391 . S
C2255 H2243 0.950 . S
C2255 C2251 1.393 . S
C2255 C2254 1.391 . S
H2256 C2264 0.950 . S
H2257 C2269 0.950 . S
H2258 C2266 0.950 . S
H2259 C2268 0.950 . S
H2260 C2270 0.950 . S
H2261 C2272 0.950 . S
H2262 C2274 0.950 . S
H2263 C2275 0.950 . S
C2264 H2256 0.950 . S
C2264 C2265 1.386 . S
C2264 C2266 1.391 . S
C2265 C2264 1.386 . S
C2265 C2269 1.393 . S
C2266 H2258 0.950 . S
C2266 C2264 1.391 . S
C2266 C2267 1.400 . S
C2267 C2266 1.400 . S
C2267 C2268 1.398 . S
C2267 C2273 1.491 . S
C2268 H2259 0.950 . S
C2268 C2267 1.398 . S
C2268 C2269 1.391 . S
C2269 H2257 0.950 . S
C2269 C2265 1.393 . S
C2269 C2268 1.391 . S
C2270 H2260 0.950 . S
C2270 C2271 1.386 . S
C2270 C2272 1.391 . S
C2271 C2270 1.386 . S
C2271 C2275 1.393 . S
C2272 H2261 0.950 . S
C2272 C2270 1.391 . S
C2272 C2273 1.400 . S
C2273 C2267 1.491 . S
C2273 C2272 1.400 . S
C2273 C2274 1.398 . S
C2274 H2262 0.950 . S
C2274 C2273 1.398 . S
C2274 C2275 1.391 . S
C2275 H2263 0.950 . S
C2275 C2271 1.393 . S
C2275 C2274 1.391 . S
H2276 C2284 0.950 . S
H2277 C2289 0.950 . S
H2278 C2286 0.950 . S
H2279 C2288 0.950 . S
H2280 C2290 0.950 . S
H2281 C2292 0.950 . S
H2282 C2294 0.950 . S
H2283 C2295 0.950 . S
C2284 H2276 0.950 . S
C2284 C2285 1.386 . S
C2284 C2286 1.391 . S
C2285 C2284 1.386 . S
C2285 C2289 1.393 . S
C2286 H2278 0.950 . S
C2286 C2284 1.391 . S
C2286 C2287 1.400 . S
C2287 C2286 1.400 . S
C2287 C2288 1.398 . S
C2287 C2293 1.491 . S
C2288 H2279 0.950 . S
C2288 C2287 1.398 . S
C2288 C2289 1.391 . S
C2289 H2277 0.950 . S
C2289 C2285 1.393 . S
C2289 C2288 1.391 . S
C2290 H2280 0.950 . S
C2290 C2291 1.386 . S
C2290 C2292 1.391 . S
C2291 C2290 1.386 . S
C2291 C2295 1.393 . S
C2292 H2281 0.950 . S
C2292 C2290 1.391 . S
C2292 C2293 1.400 . S
C2293 C2287 1.491 . S
C2293 C2292 1.400 . S
C2293 C2294 1.398 . S
C2294 H2282 0.950 . S
C2294 C2293 1.398 . S
C2294 C2295 1.391 . S
C2295 H2283 0.950 . S
C2295 C2291 1.393 . S
C2295 C2294 1.391 . S
H2296 C2304 0.950 . S
H2297 C2309 0.950 . S
H2298 C2306 0.950 . S
H2299 C2308 0.950 . S
H2300 C2310 0.950 . S
H2301 C2312 0.950 . S
H2302 C2314 0.950 . S
H2303 C2315 0.950 . S
C2304 H2296 0.950 . S
C2304 C2305 1.386 . S
C2304 C2306 1.391 . S
C2305 C2304 1.386 . S
C2305 C2309 1.393 . S
C2306 H2298 0.950 . S
C2306 C2304 1.391 . S
C2306 C2307 1.400 . S
C2307 C2306 1.400 . S
C2307 C2308 1.398 . S
C2307 C2313 1.491 . S
C2308 H2299 0.950 . S
C2308 C2307 1.398 . S
C2308 C2309 1.391 . S
C2309 H2297 0.950 . S
C2309 C2305 1.393 . S
C2309 C2308 1.391 . S
C2310 H2300 0.950 . S
C2310 C2311 1.386 . S
C2310 C2312 1.391 . S
C2311 C2310 1.386 . S
C2311 C2315 1.393 . S
C2312 H2301 0.950 . S
C2312 C2310 1.391 . S
C2312 C2313 1.400 . S
C2313 C2307 1.491 . S
C2313 C2312 1.400 . S
C2313 C2314 1.398 . S
C2314 H2302 0.950 . S
C2314 C2313 1.398 . S
C2314 C2315 1.391 . S
C2315 H2303 0.950 . S
C2315 C2311 1.393 . S
C2315 C2314 1.391 . S
H2316 C2324 0.950 . S
H2317 C2329 0.950 . S
H2318 C2326 0.950 . S
H2319 C2328 0.950 . S
H2320 C2330 0.950 . S
H2321 C2332 0.950 . S
H2322 C2334 0.950 . S
H2323 C2335 0.950 . S
C2324 H2316 0.950 . S
C2324 C2325 1.386 . S
C2324 C2326 1.391 . S
C2325 C2324 1.386 . S
C2325 C2329 1.393 . S
C2326 H2318 0.950 . S
C2326 C2324 1.391 . S
C2326 C2327 1.400 . S
C2327 C2326 1.400 . S
C2327 C2328 1.398 . S
C2327 C2333 1.491 . S
C2328 H2319 0.950 . S
C2328 C2327 1.398 . S
C2328 C2329 1.391 . S
C2329 H2317 0.950 . S
C2329 C2325 1.393 . S
C2329 C2328 1.391 . S
C2330 H2320 0.950 . S
C2330 C2331 1.386 . S
C2330 C2332 1.391 . S
C2331 C2330 1.386 . S
C2331 C2335 1.393 . S
C2332 H2321 0.950 . S
C2332 C2330 1.391 . S
C2332 C2333 1.400 . S
C2333 C2327 1.491 . S
C2333 C2332 1.400 . S
C2333 C2334 1.398 . S
C2334 H2322 0.950 . S
C2334 C2333 1.398 . S
C2334 C2335 1.391 . S
C2335 H2323 0.950 . S
C2335 C2331 1.393 . S
C2335 C2334 1.391 . S
H2336 C2344 0.950 . S
H2337 C2349 0.950 . S
H2338 C2346 0.950 . S
H2339 C2348 0.950 . S
H2340 C2350 0.950 . S
H2341 C2352 0.950 . S
H2342 C2354 0.950 . S
H2343 C2355 0.950 . S
C2344 H2336 0.950 . S
C2344 C2345 1.386 . S
C2344 C2346 1.391 . S
C2345 C2344 1.386 . S
C2345 C2349 1.393 . S
C2346 H2338 0.950 . S
C2346 C2344 1.391 . S
C2346 C2347 1.400 . S
C2347 C2346 1.400 . S
C2347 C2348 1.398 . S
C2347 C2353 1.491 . S
C2348 H2339 0.950 . S
C2348 C2347 1.398 . S
C2348 C2349 1.391 . S
C2349 H2337 0.950 . S
C2349 C2345 1.393 . S
C2349 C2348 1.391 . S
C2350 H2340 0.950 . S
C2350 C2351 1.386 . S
C2350 C2352 1.391 . S
C2351 C2350 1.386 . S
C2351 C2355 1.393 . S
C2352 H2341 0.950 . S
C2352 C2350 1.391 . S
C2352 C2353 1.400 . S
C2353 C2347 1.491 . S
C2353 C2352 1.400 . S
C2353 C2354 1.398 . S
C2354 H2342 0.950 . S
C2354 C2353 1.398 . S
C2354 C2355 1.391 . S
C2355 H2343 0.950 . S
C2355 C2351 1.393 . S
C2355 C2354 1.391 . S
H2356 C2364 0.950 . S
H2357 C2369 0.950 . S
H2358 C2366 0.950 . S
H2359 C2368 0.950 . S
H2360 C2370 0.950 . S
H2361 C2372 0.950 . S
H2362 C2374 0.950 . S
H2363 C2375 0.950 . S
C2364 H2356 0.950 . S
C2364 C2365 1.386 . S
C2364 C2366 1.391 . S
C2365 C2364 1.386 . S
C2365 C2369 1.393 . S
C2366 H2358 0.950 . S
C2366 C2364 1.391 . S
C2366 C2367 1.400 . S
C2367 C2366 1.400 . S
C2367 C2368 1.398 . S
C2367 C2373 1.491 1_655 S
C2368 H2359 0.950 . S
C2368 C2367 1.398 . S
C2368 C2369 1.391 . S
C2369 H2357 0.950 . S
C2369 C2365 1.393 . S
C2369 C2368 1.391 . S
C2370 H2360 0.950 . S
C2370 C2371 1.386 . S
C2370 C2372 1.391 . S
C2371 C2370 1.386 . S
C2371 C2375 1.393 . S
C2372 H2361 0.950 . S
C2372 C2370 1.391 . S
C2372 C2373 1.400 . S
C2373 C2367 1.491 1_455 S
C2373 C2372 1.400 . S
C2373 C2374 1.398 . S
C2374 H2362 0.950 . S
C2374 C2373 1.398 . S
C2374 C2375 1.391 . S
C2375 H2363 0.950 . S
C2375 C2371 1.393 . S
C2375 C2374 1.391 . S
H2376 C2384 0.950 . S
H2377 C2389 0.950 . S
H2378 C2386 0.950 . S
H2379 C2388 0.950 . S
H2380 C2390 0.950 . S
H2381 C2392 0.950 . S
H2382 C2394 0.950 . S
H2383 C2395 0.950 . S
C2384 H2376 0.950 . S
C2384 C2385 1.386 . S
C2384 C2386 1.391 . S
C2385 C2384 1.386 . S
C2385 C2389 1.393 . S
C2386 H2378 0.950 . S
C2386 C2384 1.391 . S
C2386 C2387 1.400 . S
C2387 C2386 1.400 . S
C2387 C2388 1.398 . S
C2387 C2393 1.491 . S
C2388 H2379 0.950 . S
C2388 C2387 1.398 . S
C2388 C2389 1.391 . S
C2389 H2377 0.950 . S
C2389 C2385 1.393 . S
C2389 C2388 1.391 . S
C2390 H2380 0.950 . S
C2390 C2391 1.386 . S
C2390 C2392 1.391 . S
C2391 C2390 1.386 . S
C2391 C2395 1.393 . S
C2392 H2381 0.950 . S
C2392 C2390 1.391 . S
C2392 C2393 1.400 . S
C2393 C2387 1.491 . S
C2393 C2392 1.400 . S
C2393 C2394 1.398 . S
C2394 H2382 0.950 . S
C2394 C2393 1.398 . S
C2394 C2395 1.391 . S
C2395 H2383 0.950 . S
C2395 C2391 1.393 . S
C2395 C2394 1.391 . S
H2396 C2404 0.950 . S
H2397 C2409 0.950 . S
H2398 C2406 0.950 . S
H2399 C2408 0.950 . S
H2400 C2410 0.950 . S
H2401 C2412 0.950 . S
H2402 C2414 0.950 . S
H2403 C2415 0.950 . S
C2404 H2396 0.950 . S
C2404 C2405 1.386 . S
C2404 C2406 1.391 . S
C2405 C2404 1.386 . S
C2405 C2409 1.393 . S
C2406 H2398 0.950 . S
C2406 C2404 1.391 . S
C2406 C2407 1.400 . S
C2407 C2406 1.400 . S
C2407 C2408 1.398 . S
C2407 C2413 1.491 . S
C2408 H2399 0.950 . S
C2408 C2407 1.398 . S
C2408 C2409 1.391 . S
C2409 H2397 0.950 . S
C2409 C2405 1.393 . S
C2409 C2408 1.391 . S
C2410 H2400 0.950 . S
C2410 C2411 1.386 . S
C2410 C2412 1.391 . S
C2411 C2410 1.386 . S
C2411 C2415 1.393 . S
C2412 H2401 0.950 . S
C2412 C2410 1.391 . S
C2412 C2413 1.400 . S
C2413 C2407 1.491 . S
C2413 C2412 1.400 . S
C2413 C2414 1.398 . S
C2414 H2402 0.950 . S
C2414 C2413 1.398 . S
C2414 C2415 1.391 . S
C2415 H2403 0.950 . S
C2415 C2411 1.393 . S
C2415 C2414 1.391 . S
H2416 C2424 0.950 . S
H2417 C2429 0.950 . S
H2418 C2426 0.950 . S
H2419 C2428 0.950 . S
H2420 C2430 0.950 . S
H2421 C2432 0.950 . S
H2422 C2434 0.950 . S
H2423 C2435 0.950 . S
C2424 H2416 0.950 . S
C2424 C2425 1.386 . S
C2424 C2426 1.391 . S
C2425 C2424 1.386 . S
C2425 C2429 1.393 . S
C2426 H2418 0.950 . S
C2426 C2424 1.391 . S
C2426 C2427 1.400 . S
C2427 C2426 1.400 . S
C2427 C2428 1.398 . S
C2427 C2433 1.491 . S
C2428 H2419 0.950 . S
C2428 C2427 1.398 . S
C2428 C2429 1.391 . S
C2429 H2417 0.950 . S
C2429 C2425 1.393 . S
C2429 C2428 1.391 . S
C2430 H2420 0.950 . S
C2430 C2431 1.386 . S
C2430 C2432 1.391 . S
C2431 C2430 1.386 . S
C2431 C2435 1.393 . S
C2432 H2421 0.950 . S
C2432 C2430 1.391 . S
C2432 C2433 1.400 . S
C2433 C2427 1.491 . S
C2433 C2432 1.400 . S
C2433 C2434 1.398 . S
C2434 H2422 0.950 . S
C2434 C2433 1.398 . S
C2434 C2435 1.391 . S
C2435 H2423 0.950 . S
C2435 C2431 1.393 . S
C2435 C2434 1.391 . S
H2436 C2444 0.950 . S
H2437 C2449 0.950 . S
H2438 C2446 0.950 . S
H2439 C2448 0.950 . S
H2440 C2450 0.950 . S
H2441 C2452 0.950 . S
H2442 C2454 0.950 . S
H2443 C2455 0.950 . S
C2444 H2436 0.950 . S
C2444 C2445 1.386 . S
C2444 C2446 1.391 . S
C2445 C2444 1.386 . S
C2445 C2449 1.393 . S
C2446 H2438 0.950 . S
C2446 C2444 1.391 . S
C2446 C2447 1.400 . S
C2447 C2446 1.400 . S
C2447 C2448 1.398 . S
C2447 C2453 1.491 . S
C2448 H2439 0.950 . S
C2448 C2447 1.398 . S
C2448 C2449 1.391 . S
C2449 H2437 0.950 . S
C2449 C2445 1.393 . S
C2449 C2448 1.391 . S
C2450 H2440 0.950 . S
C2450 C2451 1.386 . S
C2450 C2452 1.391 . S
C2451 C2450 1.386 . S
C2451 C2455 1.393 . S
C2452 H2441 0.950 . S
C2452 C2450 1.391 . S
C2452 C2453 1.400 . S
C2453 C2447 1.491 . S
C2453 C2452 1.400 . S
C2453 C2454 1.398 . S
C2454 H2442 0.950 . S
C2454 C2453 1.398 . S
C2454 C2455 1.391 . S
C2455 H2443 0.950 . S
C2455 C2451 1.393 . S
C2455 C2454 1.391 . S
H2456 C2464 0.950 . S
H2457 C2469 0.950 . S
H2458 C2466 0.950 . S
H2459 C2468 0.950 . S
H2460 C2470 0.950 . S
H2461 C2472 0.950 . S
H2462 C2474 0.950 . S
H2463 C2475 0.950 . S
C2464 H2456 0.950 . S
C2464 C2465 1.386 . S
C2464 C2466 1.391 . S
C2465 C2464 1.386 . S
C2465 C2469 1.393 . S
C2466 H2458 0.950 . S
C2466 C2464 1.391 . S
C2466 C2467 1.400 . S
C2467 C2466 1.400 . S
C2467 C2468 1.398 . S
C2467 C2473 1.491 . S
C2468 H2459 0.950 . S
C2468 C2467 1.398 . S
C2468 C2469 1.391 . S
C2469 H2457 0.950 . S
C2469 C2465 1.393 . S
C2469 C2468 1.391 . S
C2470 H2460 0.950 . S
C2470 C2471 1.386 . S
C2470 C2472 1.391 . S
C2471 C2470 1.386 . S
C2471 C2475 1.393 . S
C2472 H2461 0.950 . S
C2472 C2470 1.391 . S
C2472 C2473 1.400 . S
C2473 C2467 1.491 . S
C2473 C2472 1.400 . S
C2473 C2474 1.398 . S
C2474 H2462 0.950 . S
C2474 C2473 1.398 . S
C2474 C2475 1.391 . S
C2475 H2463 0.950 . S
C2475 C2471 1.393 . S
C2475 C2474 1.391 . S
H2476 C2484 0.950 . S
H2477 C2489 0.950 . S
H2478 C2486 0.950 . S
H2479 C2488 0.950 . S
H2480 C2490 0.950 . S
H2481 C2492 0.950 . S
H2482 C2494 0.950 . S
H2483 C2495 0.950 . S
C2484 H2476 0.950 . S
C2484 C2485 1.386 . S
C2484 C2486 1.391 . S
C2485 C2484 1.386 . S
C2485 C2489 1.393 . S
C2486 H2478 0.950 . S
C2486 C2484 1.391 . S
C2486 C2487 1.400 . S
C2487 C2486 1.400 . S
C2487 C2488 1.398 . S
C2487 C2493 1.491 1_455 S
C2488 H2479 0.950 . S
C2488 C2487 1.398 . S
C2488 C2489 1.391 . S
C2489 H2477 0.950 . S
C2489 C2485 1.393 . S
C2489 C2488 1.391 . S
C2490 H2480 0.950 . S
C2490 C2491 1.386 . S
C2490 C2492 1.391 . S
C2491 C2490 1.386 . S
C2491 C2495 1.393 . S
C2492 H2481 0.950 . S
C2492 C2490 1.391 . S
C2492 C2493 1.400 . S
C2493 C2487 1.491 1_655 S
C2493 C2492 1.400 . S
C2493 C2494 1.398 . S
C2494 H2482 0.950 . S
C2494 C2493 1.398 . S
C2494 C2495 1.391 . S
C2495 H2483 0.950 . S
C2495 C2491 1.393 . S
C2495 C2494 1.391 . S
H2496 C2504 0.950 . S
H2497 C2509 0.950 . S
H2498 C2506 0.950 . S
H2499 C2508 0.950 . S
H2500 C2510 0.950 . S
H2501 C2512 0.950 . S
H2502 C2514 0.950 . S
H2503 C2515 0.950 . S
C2504 H2496 0.950 . S
C2504 C2505 1.386 . S
C2504 C2506 1.391 . S
C2505 C2504 1.386 . S
C2505 C2509 1.393 . S
C2506 H2498 0.950 . S
C2506 C2504 1.391 . S
C2506 C2507 1.400 . S
C2507 C2506 1.400 . S
C2507 C2508 1.398 . S
C2507 C2513 1.491 . S
C2508 H2499 0.950 . S
C2508 C2507 1.398 . S
C2508 C2509 1.391 . S
C2509 H2497 0.950 . S
C2509 C2505 1.393 . S
C2509 C2508 1.391 . S
C2510 H2500 0.950 . S
C2510 C2511 1.386 . S
C2510 C2512 1.391 . S
C2511 C2510 1.386 . S
C2511 C2515 1.393 . S
C2512 H2501 0.950 . S
C2512 C2510 1.391 . S
C2512 C2513 1.400 . S
C2513 C2507 1.491 . S
C2513 C2512 1.400 . S
C2513 C2514 1.398 . S
C2514 H2502 0.950 . S
C2514 C2513 1.398 . S
C2514 C2515 1.391 . S
C2515 H2503 0.950 . S
C2515 C2511 1.393 . S
C2515 C2514 1.391 . S
H2516 C2524 0.950 . S
H2517 C2529 0.950 . S
H2518 C2526 0.950 . S
H2519 C2528 0.950 . S
H2520 C2530 0.950 . S
H2521 C2532 0.950 . S
H2522 C2534 0.950 . S
H2523 C2535 0.950 . S
C2524 H2516 0.950 . S
C2524 C2525 1.386 . S
C2524 C2526 1.391 . S
C2525 C2524 1.386 . S
C2525 C2529 1.393 . S
C2526 H2518 0.950 . S
C2526 C2524 1.391 . S
C2526 C2527 1.400 . S
C2527 C2526 1.400 . S
C2527 C2528 1.398 . S
C2527 C2533 1.491 . S
C2528 H2519 0.950 . S
C2528 C2527 1.398 . S
C2528 C2529 1.391 . S
C2529 H2517 0.950 . S
C2529 C2525 1.393 . S
C2529 C2528 1.391 . S
C2530 H2520 0.950 . S
C2530 C2531 1.386 . S
C2530 C2532 1.391 . S
C2531 C2530 1.386 . S
C2531 C2535 1.393 . S
C2532 H2521 0.950 . S
C2532 C2530 1.391 . S
C2532 C2533 1.400 . S
C2533 C2527 1.491 . S
C2533 C2532 1.400 . S
C2533 C2534 1.398 . S
C2534 H2522 0.950 . S
C2534 C2533 1.398 . S
C2534 C2535 1.391 . S
C2535 H2523 0.950 . S
C2535 C2531 1.393 . S
C2535 C2534 1.391 . S
H2536 C2544 0.950 . S
H2537 C2549 0.950 . S
H2538 C2546 0.950 . S
H2539 C2548 0.950 . S
H2540 C2550 0.950 . S
H2541 C2552 0.950 . S
H2542 C2554 0.950 . S
H2543 C2555 0.950 . S
C2544 H2536 0.950 . S
C2544 C2545 1.386 . S
C2544 C2546 1.391 . S
C2545 C2544 1.386 . S
C2545 C2549 1.393 . S
C2546 H2538 0.950 . S
C2546 C2544 1.391 . S
C2546 C2547 1.400 . S
C2547 C2546 1.400 . S
C2547 C2548 1.398 . S
C2547 C2553 1.491 . S
C2548 H2539 0.950 . S
C2548 C2547 1.398 . S
C2548 C2549 1.391 . S
C2549 H2537 0.950 . S
C2549 C2545 1.393 . S
C2549 C2548 1.391 . S
C2550 H2540 0.950 . S
C2550 C2551 1.386 . S
C2550 C2552 1.391 . S
C2551 C2550 1.386 . S
C2551 C2555 1.393 . S
C2552 H2541 0.950 . S
C2552 C2550 1.391 . S
C2552 C2553 1.400 . S
C2553 C2547 1.491 . S
C2553 C2552 1.400 . S
C2553 C2554 1.398 . S
C2554 H2542 0.950 . S
C2554 C2553 1.398 . S
C2554 C2555 1.391 . S
C2555 H2543 0.950 . S
C2555 C2551 1.393 . S
C2555 C2554 1.391 . S
H2556 C2564 0.950 . S
H2557 C2569 0.950 . S
H2558 C2566 0.950 . S
H2559 C2568 0.950 . S
H2560 C2570 0.950 . S
H2561 C2572 0.950 . S
H2562 C2574 0.950 . S
H2563 C2575 0.950 . S
C2564 H2556 0.950 . S
C2564 C2565 1.386 . S
C2564 C2566 1.391 . S
C2565 C2564 1.386 . S
C2565 C2569 1.393 . S
C2566 H2558 0.950 . S
C2566 C2564 1.391 . S
C2566 C2567 1.400 . S
C2567 C2566 1.400 . S
C2567 C2568 1.398 . S
C2567 C2573 1.491 . S
C2568 H2559 0.950 . S
C2568 C2567 1.398 . S
C2568 C2569 1.391 . S
C2569 H2557 0.950 . S
C2569 C2565 1.393 . S
C2569 C2568 1.391 . S
C2570 H2560 0.950 . S
C2570 C2571 1.386 . S
C2570 C2572 1.391 . S
C2571 C2570 1.386 . S
C2571 C2575 1.393 . S
C2572 H2561 0.950 . S
C2572 C2570 1.391 . S
C2572 C2573 1.400 . S
C2573 C2567 1.491 . S
C2573 C2572 1.400 . S
C2573 C2574 1.398 . S
C2574 H2562 0.950 . S
C2574 C2573 1.398 . S
C2574 C2575 1.391 . S
C2575 H2563 0.950 . S
C2575 C2571 1.393 . S
C2575 C2574 1.391 . S
H2576 C2584 0.950 . S
H2577 C2589 0.950 . S
H2578 C2586 0.950 . S
H2579 C2588 0.950 . S
H2580 C2590 0.950 . S
H2581 C2592 0.950 . S
H2582 C2594 0.950 . S
H2583 C2595 0.950 . S
C2584 H2576 0.950 . S
C2584 C2585 1.386 . S
C2584 C2586 1.391 . S
C2585 C2584 1.386 . S
C2585 C2589 1.393 . S
C2586 H2578 0.950 . S
C2586 C2584 1.391 . S
C2586 C2587 1.400 . S
C2587 C2586 1.400 . S
C2587 C2588 1.398 . S
C2587 C2593 1.491 . S
C2588 H2579 0.950 . S
C2588 C2587 1.398 . S
C2588 C2589 1.391 . S
C2589 H2577 0.950 . S
C2589 C2585 1.393 . S
C2589 C2588 1.391 . S
C2590 H2580 0.950 . S
C2590 C2591 1.386 . S
C2590 C2592 1.391 . S
C2591 C2590 1.386 . S
C2591 C2595 1.393 . S
C2592 H2581 0.950 . S
C2592 C2590 1.391 . S
C2592 C2593 1.400 . S
C2593 C2587 1.491 . S
C2593 C2592 1.400 . S
C2593 C2594 1.398 . S
C2594 H2582 0.950 . S
C2594 C2593 1.398 . S
C2594 C2595 1.391 . S
C2595 H2583 0.950 . S
C2595 C2591 1.393 . S
C2595 C2594 1.391 . S
H2596 C2604 0.950 . S
H2597 C2609 0.950 . S
H2598 C2606 0.950 . S
H2599 C2608 0.950 . S
H2600 C2610 0.950 . S
H2601 C2612 0.950 . S
H2602 C2614 0.950 . S
H2603 C2615 0.950 . S
C2604 H2596 0.950 . S
C2604 C2605 1.386 . S
C2604 C2606 1.391 . S
C2605 C2604 1.386 . S
C2605 C2609 1.393 . S
C2606 H2598 0.950 . S
C2606 C2604 1.391 . S
C2606 C2607 1.400 . S
C2607 C2606 1.400 . S
C2607 C2608 1.398 . S
C2607 C2613 1.491 1_455 S
C2608 H2599 0.950 . S
C2608 C2607 1.398 . S
C2608 C2609 1.391 . S
C2609 H2597 0.950 . S
C2609 C2605 1.393 . S
C2609 C2608 1.391 . S
C2610 H2600 0.950 . S
C2610 C2611 1.386 . S
C2610 C2612 1.391 . S
C2611 C2610 1.386 . S
C2611 C2615 1.393 . S
C2612 H2601 0.950 . S
C2612 C2610 1.391 . S
C2612 C2613 1.400 . S
C2613 C2607 1.491 1_655 S
C2613 C2612 1.400 . S
C2613 C2614 1.398 . S
C2614 H2602 0.950 . S
C2614 C2613 1.398 . S
C2614 C2615 1.391 . S
C2615 H2603 0.950 . S
C2615 C2611 1.393 . S
C2615 C2614 1.391 . S
H2616 C2624 0.950 . S
H2617 C2629 0.950 . S
H2618 C2626 0.950 . S
H2619 C2628 0.950 . S
H2620 C2630 0.950 . S
H2621 C2632 0.950 . S
H2622 C2634 0.950 . S
H2623 C2635 0.950 . S
C2624 H2616 0.950 . S
C2624 C2625 1.386 . S
C2624 C2626 1.391 . S
C2625 C2624 1.386 . S
C2625 C2629 1.393 . S
C2626 H2618 0.950 . S
C2626 C2624 1.391 . S
C2626 C2627 1.400 . S
C2627 C2626 1.400 . S
C2627 C2628 1.398 . S
C2627 C2633 1.491 1_455 S
C2628 H2619 0.950 . S
C2628 C2627 1.398 . S
C2628 C2629 1.391 . S
C2629 H2617 0.950 . S
C2629 C2625 1.393 . S
C2629 C2628 1.391 . S
C2630 H2620 0.950 . S
C2630 C2631 1.386 . S
C2630 C2632 1.391 . S
C2631 C2630 1.386 . S
C2631 C2635 1.393 . S
C2632 H2621 0.950 . S
C2632 C2630 1.391 . S
C2632 C2633 1.400 . S
C2633 C2627 1.491 1_655 S
C2633 C2632 1.400 . S
C2633 C2634 1.398 . S
C2634 H2622 0.950 . S
C2634 C2633 1.398 . S
C2634 C2635 1.391 . S
C2635 H2623 0.950 . S
C2635 C2631 1.393 . S
C2635 C2634 1.391 . S
H2636 C2644 0.950 . S
H2637 C2649 0.950 . S
H2638 C2646 0.950 . S
H2639 C2648 0.950 . S
H2640 C2650 0.950 . S
H2641 C2652 0.950 . S
H2642 C2654 0.950 . S
H2643 C2655 0.950 . S
C2644 H2636 0.950 . S
C2644 C2645 1.386 . S
C2644 C2646 1.391 . S
C2645 C2644 1.386 . S
C2645 C2649 1.393 . S
C2646 H2638 0.950 . S
C2646 C2644 1.391 . S
C2646 C2647 1.400 . S
C2647 C2646 1.400 . S
C2647 C2648 1.398 . S
C2647 C2653 1.491 . S
C2648 H2639 0.950 . S
C2648 C2647 1.398 . S
C2648 C2649 1.391 . S
C2649 H2637 0.950 . S
C2649 C2645 1.393 . S
C2649 C2648 1.391 . S
C2650 H2640 0.950 . S
C2650 C2651 1.386 . S
C2650 C2652 1.391 . S
C2651 C2650 1.386 . S
C2651 C2655 1.393 . S
C2652 H2641 0.950 . S
C2652 C2650 1.391 . S
C2652 C2653 1.400 . S
C2653 C2647 1.491 . S
C2653 C2652 1.400 . S
C2653 C2654 1.398 . S
C2654 H2642 0.950 . S
C2654 C2653 1.398 . S
C2654 C2655 1.391 . S
C2655 H2643 0.950 . S
C2655 C2651 1.393 . S
C2655 C2654 1.391 . S
C1065 C40 2.033 1_545 S
C1071 C18 2.027 . S
C1085 C51 2.022 . S
C1091 C73 2.038 . S
C1105 C84 2.029 . S
C1111 C106 2.034 1_565 S
C1125 C117 2.031 . S
C1131 C7 2.042 1_556 S
C1145 C150 2.031 . S
C1151 C238 2.042 1_565 S
C1165 C139 2.034 1_554 S
C1171 C183 2.029 . S
C1185 C216 2.025 . S
C1191 C172 2.032 1_545 S
C1205 C249 2.033 . S
C1211 C205 2.041 . S
C1225 C304 2.036 1_565 S
C1231 C282 2.032 . S
C1245 C337 2.042 . S
C1251 C315 2.031 . S
C1265 C348 2.029 . S
C1271 C370 2.034 1_545 S
C1285 C271 2.039 1_554 S
C1291 C381 2.033 . S
C1305 C414 2.021 . S
C1311 C502 2.037 1_545 S
C1325 C447 2.023 . S
C1331 C403 2.032 1_556 S
C1345 C436 2.037 1_565 S
C1351 C480 2.032 . S
C1365 C469 2.032 . S
C1371 C513 2.023 . S
C1385 C568 2.035 . S
C1391 C546 2.021 . S
C1405 C579 2.028 . S
C1411 C601 2.042 1_556 S
C1425 C634 2.033 . S
C1431 C612 2.028 . S
C1445 C535 2.033 . S
C1451 C645 2.022 . S
C1465 C766 2.035 . S
C1471 C678 2.031 . S
C1485 C711 2.032 . S
C1491 C667 2.042 . S
C1505 C700 2.033 . S
C1511 C744 2.028 . S
C1525 C777 2.033 . S
C1531 C733 2.041 1_554 S
C1545 C832 2.033 . S
C1551 C810 2.027 . S
C1565 C843 2.026 . S
C1571 C865 2.041 1_554 S
C1585 C876 2.033 . S
C1591 C898 2.038 . S
C1605 C909 2.032 . S
C1611 C799 2.037 . S
C1625 C1030 2.033 . S
C1631 C942 2.021 . S
C1645 C931 2.040 . S
C1651 C975 2.024 . S
C1665 C964 2.033 . S
C1671 C1008 2.028 . S
C1685 C997 2.035 1_556 S
C1691 C1041 2.021 . S
C1705 N211 0.876 . S
C1711 N13 0.873 . S
C1725 N46 0.879 . S
C1731 N244 0.882 . S
C1745 N79 0.869 . S
C1751 N145 0.870 . S
C1765 N112 0.876 . S
C1771 N178 0.873 . S
C1785 N475 0.869 . S
C1791 N277 0.870 . S
C1805 N508 0.886 . S
C1811 N310 0.886 . S
C1825 N343 0.885 . S
C1831 N409 0.882 . S
C1845 N442 0.871 . S
C1851 N376 0.869 . S
C1865 N541 0.885 . S
C1871 N739 0.886 . S
C1885 N772 0.875 . S
C1891 N574 0.872 . S
C1905 N673 0.876 . S
C1911 N607 0.879 . S
C1925 N706 0.881 . S
C1931 N640 0.884 . S
C1945 N1003 0.872 . S
C1951 N805 0.870 . S
C1965 N1036 0.887 . S
C1971 N838 0.886 . S
C1985 N937 0.870 . S
C1991 N871 0.873 . S
C2005 N970 0.887 . S
C2011 N904 0.886 . S
C2025 N2 0.876 . S
C2031 N233 0.870 . S
C2045 N35 0.862 . S
C2051 N134 0.854 . S
C2065 N167 0.863 . S
C2071 N68 0.872 . S
C2085 N101 0.878 . S
C2091 N200 0.875 . S
C2105 N266 0.866 . S
C2111 N497 0.874 . S
C2125 N398 0.873 . S
C2131 N299 0.865 . S
C2145 N332 0.853 . S
C2151 N431 0.850 . S
C2165 N365 0.876 . S
C2171 N464 0.877 . S
C2185 N761 0.874 . S
C2191 N530 0.866 . S
C2205 N662 0.861 . S
C2211 N563 0.853 . S
C2225 N596 0.858 . S
C2231 N695 0.852 . S
C2245 N629 0.874 . S
C2251 N728 0.878 . S
C2265 N794 0.877 . S
C2271 N1025 0.871 . S
C2285 N926 0.868 . S
C2291 N827 0.859 . S
C2305 N860 0.859 . S
C2311 N959 0.868 . S
C2325 N893 0.851 . S
C2331 N992 0.858 . S
C2345 C21 1.252 . S
C2351 C1011 1.258 . S
C2365 C516 1.250 . S
C2371 C54 1.261 . S
C2385 C945 1.259 . S
C2391 C87 1.252 . S
C2405 C120 1.251 . S
C2411 C450 1.260 . S
C2425 C153 1.255 . S
C2431 C879 1.256 . S
C2445 C384 1.250 . S
C2451 C186 1.261 . S
C2465 C219 1.259 . S
C2471 C813 1.252 . S
C2485 C252 1.249 . S
C2491 C318 1.262 . S
C2505 C285 1.254 . S
C2511 C747 1.256 . S
C2525 C351 1.261 . S
C2531 C681 1.249 . S
C2545 C417 1.249 . S
C2551 C615 1.262 . S
C2565 C483 1.255 . S
C2571 C549 1.256 . S
C2585 C582 1.262 . S
C2591 C1044 1.249 . S
C2605 C978 1.261 . S
C2611 C648 1.249 . S
C2625 C912 1.254 . S
C2631 C714 1.257 . S
C2645 C846 1.255 . S
C2651 C780 1.256 . S
