# Generated by pormake.
# Topology zfp, (5)-cn, num edge types: 1
# Building blocks:
#     Node 0, Type 0, BuildingBlock: XOMCOT_clean_sbu_1, # of connection points: 5
#     Node 1, Type 0, BuildingBlock: XOMCOT_clean_sbu_1, # of connection points: 5
#     Node 2, Type 0, BuildingBlock: XOMCOT_clean_sbu_1, # of connection points: 5
#     Node 3, Type 0, BuildingBlock: XOMCOT_clean_sbu_1, # of connection points: 5
#     Node 4, Type 0, BuildingBlock: XOMCOT_clean_sbu_1, # of connection points: 5
#     Node 5, Type 0, BuildingBlock: XOMCOT_clean_sbu_1, # of connection points: 5
#     Node 6, Type 0, BuildingBlock: XOMCOT_clean_sbu_1, # of connection points: 5
#     Node 7, Type 0, BuildingBlock: XOMCOT_clean_sbu_1, # of connection points: 5
#     Node 8, Type 0, BuildingBlock: XOMCOT_clean_sbu_1, # of connection points: 5
#     Node 9, Type 0, BuildingBlock: XOMCOT_clean_sbu_1, # of connection points: 5
#     Node 10, Type 0, BuildingBlock: XOMCOT_clean_sbu_1, # of connection points: 5
#     Node 11, Type 0, BuildingBlock: XOMCOT_clean_sbu_1, # of connection points: 5
#     Node 12, Type 0, BuildingBlock: XOMCOT_clean_sbu_1, # of connection points: 5
#     Node 13, Type 0, BuildingBlock: XOMCOT_clean_sbu_1, # of connection points: 5
#     Node 14, Type 0, BuildingBlock: XOMCOT_clean_sbu_1, # of connection points: 5
#     Node 15, Type 0, BuildingBlock: XOMCOT_clean_sbu_1, # of connection points: 5
#     Edge 16, Type (0, 0), BuildingBlock: CIFDUS_clean_linker_0, # of connection points: 2
#     Edge 17, Type (0, 0), BuildingBlock: CIFDUS_clean_linker_0, # of connection points: 2
#     Edge 18, Type (0, 0), BuildingBlock: CIFDUS_clean_linker_0, # of connection points: 2
#     Edge 19, Type (0, 0), BuildingBlock: CIFDUS_clean_linker_0, # of connection points: 2
#     Edge 20, Type (0, 0), BuildingBlock: CIFDUS_clean_linker_0, # of connection points: 2
#     Edge 21, Type (0, 0), BuildingBlock: CIFDUS_clean_linker_0, # of connection points: 2
#     Edge 22, Type (0, 0), BuildingBlock: CIFDUS_clean_linker_0, # of connection points: 2
#     Edge 23, Type (0, 0), BuildingBlock: CIFDUS_clean_linker_0, # of connection points: 2
#     Edge 24, Type (0, 0), BuildingBlock: CIFDUS_clean_linker_0, # of connection points: 2
#     Edge 25, Type (0, 0), BuildingBlock: CIFDUS_clean_linker_0, # of connection points: 2
#     Edge 26, Type (0, 0), BuildingBlock: CIFDUS_clean_linker_0, # of connection points: 2
#     Edge 27, Type (0, 0), BuildingBlock: CIFDUS_clean_linker_0, # of connection points: 2
#     Edge 28, Type (0, 0), BuildingBlock: CIFDUS_clean_linker_0, # of connection points: 2
#     Edge 29, Type (0, 0), BuildingBlock: CIFDUS_clean_linker_0, # of connection points: 2
#     Edge 30, Type (0, 0), BuildingBlock: CIFDUS_clean_linker_0, # of connection points: 2
#     Edge 31, Type (0, 0), BuildingBlock: CIFDUS_clean_linker_0, # of connection points: 2
#     Edge 32, Type (0, 0), BuildingBlock: CIFDUS_clean_linker_0, # of connection points: 2
#     Edge 33, Type (0, 0), BuildingBlock: CIFDUS_clean_linker_0, # of connection points: 2
#     Edge 34, Type (0, 0), BuildingBlock: CIFDUS_clean_linker_0, # of connection points: 2
#     Edge 35, Type (0, 0), BuildingBlock: CIFDUS_clean_linker_0, # of connection points: 2
#     Edge 36, Type (0, 0), BuildingBlock: CIFDUS_clean_linker_0, # of connection points: 2
#     Edge 37, Type (0, 0), BuildingBlock: CIFDUS_clean_linker_0, # of connection points: 2
#     Edge 38, Type (0, 0), BuildingBlock: CIFDUS_clean_linker_0, # of connection points: 2
#     Edge 39, Type (0, 0), BuildingBlock: CIFDUS_clean_linker_0, # of connection points: 2
#     Edge 40, Type (0, 0), BuildingBlock: CIFDUS_clean_linker_0, # of connection points: 2
#     Edge 41, Type (0, 0), BuildingBlock: CIFDUS_clean_linker_0, # of connection points: 2
#     Edge 42, Type (0, 0), BuildingBlock: CIFDUS_clean_linker_0, # of connection points: 2
#     Edge 43, Type (0, 0), BuildingBlock: CIFDUS_clean_linker_0, # of connection points: 2
#     Edge 44, Type (0, 0), BuildingBlock: CIFDUS_clean_linker_0, # of connection points: 2
#     Edge 45, Type (0, 0), BuildingBlock: CIFDUS_clean_linker_0, # of connection points: 2
#     Edge 46, Type (0, 0), BuildingBlock: CIFDUS_clean_linker_0, # of connection points: 2
#     Edge 47, Type (0, 0), BuildingBlock: CIFDUS_clean_linker_0, # of connection points: 2
#     Edge 48, Type (0, 0), BuildingBlock: CIFDUS_clean_linker_0, # of connection points: 2
#     Edge 49, Type (0, 0), BuildingBlock: CIFDUS_clean_linker_0, # of connection points: 2
#     Edge 50, Type (0, 0), BuildingBlock: CIFDUS_clean_linker_0, # of connection points: 2
#     Edge 51, Type (0, 0), BuildingBlock: CIFDUS_clean_linker_0, # of connection points: 2
#     Edge 52, Type (0, 0), BuildingBlock: CIFDUS_clean_linker_0, # of connection points: 2
#     Edge 53, Type (0, 0), BuildingBlock: CIFDUS_clean_linker_0, # of connection points: 2
#     Edge 54, Type (0, 0), BuildingBlock: CIFDUS_clean_linker_0, # of connection points: 2
#     Edge 55, Type (0, 0), BuildingBlock: CIFDUS_clean_linker_0, # of connection points: 2
# Relax obj value: 0.304
# Max RMSD: 0.220
# Mean RMSD: 0.220
data_MOF--net-zfp--node1-XOMCOT_clean_sbu_1--edge1-CIFDUS_clean_linker_0
_symmetry_space_group_name_H-M    P1
_symmetry_Int_Tables_number       1
_symmetry_cell_setting            triclinic
loop_
_symmetry_equiv_pos_as_xyz
'x, y, z'
_cell_length_a     26.712244
_cell_length_b     27.038031
_cell_length_c     62.638699
_cell_angle_alpha  89.843479
_cell_angle_beta   90.095999
_cell_angle_gamma 90.198772
loop_
_atom_site_label
_atom_site_type_symbol
_atom_site_fract_x
_atom_site_fract_y
_atom_site_fract_z
_atom_type_partial_charge
C0 C 0.24335 0.32176 0.10546 0.0
C1 C 0.23995 0.31637 0.08379 0.0
N2 N 0.20261 0.28451 0.07947 0.0
N3 N 0.20715 0.29495 0.11529 0.0
C4 C 0.18429 0.27107 0.09883 0.0
H5 H 0.27283 0.34212 0.11333 0.0
Co6 Co 0.20218 0.2813 0.14529 0.0
C7 C 0.09545 0.28022 0.13241 0.0
O8 O 0.10465 0.32047 0.12125 0.0
N9 N 0.20067 0.26336 0.17433 0.0
C10 C 0.19889 0.21727 0.20388 0.0
C11 C 0.19014 0.21793 0.18212 0.0
C12 C 0.21546 0.28947 0.1916 0.0
N13 N 0.2153 0.26242 0.20969 0.0
O14 O 0.27237 0.30224 0.14886 0.0
H15 H 0.17862 0.18681 0.17245 0.0
H16 H 0.22549 0.32797 0.19116 0.0
O17 O 0.13171 0.2582 0.14197 0.0
C18 C 0.2982 0.33699 0.15742 0.0
O19 O 0.27626 0.37353 0.16743 0.0
N20 N 0.17606 0.34614 0.15189 0.0
C21 C 0.11832 0.43156 0.15604 0.0
C22 C 0.16121 0.43163 0.14324 0.0
C23 C 0.18968 0.38863 0.14147 0.0
C24 C 0.13681 0.34764 0.16601 0.0
C25 C 0.10764 0.38968 0.16826 0.0
H26 H 0.2218 0.38996 0.1313 0.0
H27 H 0.12458 0.31483 0.1744 0.0
H28 H 0.15593 0.24292 0.10104 0.0
H29 H 0.26534 0.33239 0.07221 0.0
H30 H 0.19568 0.18554 0.21437 0.0
H31 H 0.17124 0.46369 0.13374 0.0
H32 H 0.07537 0.38846 0.17872 0.0
C33 C 0.80717 0.23849 0.60847 0.0
C34 C 0.81299 0.2386 0.58679 0.0
N35 N 0.80818 0.19197 0.57992 0.0
N36 N 0.79578 0.19239 0.61556 0.0
C37 C 0.80045 0.16435 0.59764 0.0
H38 H 0.8133 0.27057 0.61833 0.0
Co39 Co 0.7856 0.17699 0.64527 0.0
C40 C 0.77481 0.06835 0.64814 0.0
O41 O 0.73895 0.07815 0.66183 0.0
N42 N 0.78254 0.16471 0.6752 0.0
C43 C 0.80533 0.13764 0.70753 0.0
C44 C 0.81177 0.13214 0.68588 0.0
C45 C 0.7619 0.19207 0.69101 0.0
N46 N 0.77358 0.17534 0.7107 0.0
O47 O 0.77121 0.24735 0.65127 0.0
H48 H 0.83761 0.10676 0.67848 0.0
H49 H 0.74176 0.2261 0.68844 0.0
O50 O 0.79968 0.10456 0.63982 0.0
C51 C 0.7382 0.27773 0.64427 0.0
O52 O 0.70695 0.2637 0.62921 0.0
N53 N 0.71447 0.16317 0.64094 0.0
C54 C 0.61848 0.12144 0.63826 0.0
C55 C 0.65444 0.11166 0.62276 0.0
C56 C 0.70157 0.13277 0.62436 0.0
C57 C 0.67764 0.17721 0.65489 0.0
C58 C 0.62974 0.15603 0.65412 0.0
H59 H 0.72864 0.11908 0.61348 0.0
H60 H 0.6845 0.20414 0.66701 0.0
H61 H 0.79883 0.12438 0.59743 0.0
H62 H 0.82159 0.27036 0.57687 0.0
H63 H 0.82311 0.11591 0.71992 0.0
H64 H 0.64781 0.08456 0.61035 0.0
H65 H 0.60226 0.16577 0.66607 0.0
C66 C 0.84284 0.83587 0.10517 0.0
C67 C 0.84034 0.8341 0.08324 0.0
N68 N 0.82529 0.78841 0.07746 0.0
N69 N 0.8297 0.79159 0.11335 0.0
C70 C 0.81875 0.76361 0.09604 0.0
H71 H 0.85327 0.86765 0.11466 0.0
Co72 Co 0.82665 0.78104 0.14298 0.0
C73 C 0.93262 0.77292 0.15723 0.0
O74 O 0.91639 0.73748 0.16989 0.0
N75 N 0.82152 0.77712 0.17323 0.0
C76 C 0.83438 0.80404 0.20644 0.0
C77 C 0.84583 0.81086 0.18534 0.0
C78 C 0.79201 0.75277 0.18754 0.0
N79 N 0.80077 0.76711 0.20791 0.0
O80 O 0.75385 0.7673 0.14052 0.0
H81 H 0.86995 0.8397 0.17916 0.0
H82 H 0.76295 0.72683 0.18328 0.0
O83 O 0.90088 0.79659 0.14554 0.0
C84 C 0.7263 0.73351 0.13215 0.0
O85 O 0.74701 0.69559 0.12264 0.0
N86 N 0.84503 0.71223 0.13961 0.0
C87 C 0.89504 0.62178 0.14066 0.0
C88 C 0.90976 0.65879 0.12644 0.0
C89 C 0.88459 0.70349 0.12621 0.0
C90 C 0.82631 0.67382 0.15148 0.0
C91 C 0.8511 0.62832 0.15242 0.0
H92 H 0.90058 0.73268 0.11659 0.0
H93 H 0.79283 0.67788 0.16063 0.0
H94 H 0.80819 0.72517 0.09696 0.0
H95 H 0.84831 0.86449 0.07249 0.0
H96 H 0.84863 0.82571 0.21963 0.0
H97 H 0.94281 0.65461 0.1166 0.0
H98 H 0.83768 0.59979 0.16318 0.0
C99 C 0.30398 0.81157 0.60741 0.0
C100 C 0.30355 0.81409 0.58567 0.0
N101 N 0.26052 0.83536 0.57938 0.0
N102 N 0.26144 0.83121 0.61533 0.0
C103 C 0.23519 0.84502 0.59772 0.0
H104 H 0.3343 0.79692 0.61689 0.0
Co105 Co 0.24897 0.83299 0.64517 0.0
C106 C 0.23002 0.93814 0.65605 0.0
O107 O 0.25744 0.93071 0.6732 0.0
N108 N 0.23452 0.83039 0.67496 0.0
C109 C 0.19597 0.83673 0.70647 0.0
C110 C 0.19492 0.85024 0.68521 0.0
C111 C 0.25647 0.80198 0.69012 0.0
N112 N 0.23523 0.80643 0.70959 0.0
O113 O 0.27236 0.76458 0.64643 0.0
H114 H 0.16658 0.87292 0.67772 0.0
H115 H 0.28595 0.77615 0.6868 0.0
O116 O 0.22133 0.9018 0.6433 0.0
C117 C 0.30694 0.73258 0.64915 0.0
O118 O 0.3527 0.74663 0.65387 0.0
N119 N 0.31486 0.86296 0.64934 0.0
C120 C 0.40097 0.92274 0.65298 0.0
C121 C 0.36482 0.93198 0.63741 0.0
C122 C 0.32364 0.90148 0.63551 0.0
C123 C 0.34985 0.85326 0.66481 0.0
C124 C 0.39334 0.88243 0.6668 0.0
H125 H 0.29718 0.91137 0.62321 0.0
H126 H 0.34516 0.82352 0.67593 0.0
H127 H 0.1986 0.862 0.59837 0.0
H128 H 0.33256 0.80015 0.57528 0.0
H129 H 0.1697 0.84839 0.71856 0.0
H130 H 0.36705 0.96366 0.62684 0.0
H131 H 0.42043 0.87352 0.67908 0.0
C132 C 0.69792 0.1619 0.93277 0.0
C133 C 0.69909 0.1693 0.95432 0.0
N134 N 0.68181 0.215 0.95844 0.0
N135 N 0.67961 0.20249 0.9229 0.0
C136 C 0.67051 0.2345 0.93903 0.0
H137 H 0.70934 0.12837 0.92498 0.0
Co138 Co 0.67588 0.21442 0.89319 0.0
C139 C 0.56923 0.21448 0.88153 0.0
O140 O 0.58411 0.18986 0.86463 0.0
N141 N 0.67587 0.23121 0.86377 0.0
C142 C 0.66292 0.2741 0.83378 0.0
C143 C 0.65014 0.26913 0.85494 0.0
C144 C 0.70703 0.21671 0.84795 0.0
N145 N 0.69878 0.24087 0.8294 0.0
O146 O 0.74775 0.20173 0.89095 0.0
H147 H 0.62416 0.29245 0.86345 0.0
H148 H 0.73691 0.19048 0.85006 0.0
O149 O 0.60208 0.22991 0.89509 0.0
C150 C 0.78039 0.16729 0.89186 0.0
O151 O 0.76692 0.12148 0.89585 0.0
N152 N 0.65685 0.14555 0.88834 0.0
C153 C 0.60598 0.05706 0.87976 0.0
C154 C 0.59381 0.08526 0.89755 0.0
C155 C 0.61951 0.12874 0.90158 0.0
C156 C 0.67241 0.11558 0.87204 0.0
C157 C 0.64727 0.07115 0.86741 0.0
H158 H 0.60608 0.1508 0.9147 0.0
H159 H 0.70353 0.12544 0.86217 0.0
H160 H 0.65663 0.27159 0.93647 0.0
H161 H 0.71328 0.1432 0.96595 0.0
H162 H 0.64799 0.30101 0.82266 0.0
H163 H 0.56313 0.07478 0.90795 0.0
H164 H 0.65876 0.04917 0.85385 0.0
C165 C 0.79351 0.68997 0.42897 0.0
C166 C 0.7898 0.6891 0.45066 0.0
N167 N 0.74679 0.66633 0.45593 0.0
N168 N 0.75314 0.66771 0.42012 0.0
C169 C 0.72472 0.65414 0.43711 0.0
H170 H 0.82526 0.70415 0.42039 0.0
Co171 Co 0.7438 0.66046 0.39023 0.0
C172 C 0.73659 0.55369 0.38213 0.0
O173 O 0.76553 0.56262 0.3656 0.0
N174 N 0.73118 0.65717 0.36019 0.0
C175 C 0.69671 0.64114 0.32836 0.0
C176 C 0.69485 0.63139 0.34999 0.0
C177 C 0.75127 0.68542 0.34448 0.0
N178 N 0.73289 0.67495 0.3249 0.0
O179 O 0.76197 0.72981 0.38673 0.0
H180 H 0.66849 0.6068 0.35773 0.0
H181 H 0.77752 0.71505 0.34731 0.0
O182 O 0.72221 0.58998 0.39384 0.0
C183 C 0.7982 0.76072 0.38574 0.0
O184 O 0.84479 0.74593 0.38746 0.0
N185 N 0.81231 0.63635 0.3878 0.0
C186 C 0.90181 0.58265 0.38494 0.0
C187 C 0.86845 0.57439 0.40166 0.0
C188 C 0.82481 0.60153 0.40289 0.0
C189 C 0.84589 0.6464 0.37184 0.0
C190 C 0.89074 0.61997 0.37011 0.0
H191 H 0.7993 0.59137 0.41551 0.0
H192 H 0.83897 0.67436 0.36012 0.0
H193 H 0.68923 0.63497 0.43573 0.0
H194 H 0.81687 0.70433 0.46174 0.0
H195 H 0.67355 0.62421 0.3162 0.0
H196 H 0.87441 0.54522 0.41326 0.0
H197 H 0.91611 0.62827 0.35711 0.0
C198 C 0.35198 0.6467 0.92866 0.0
C199 C 0.3529 0.65295 0.95043 0.0
N200 N 0.33436 0.698 0.95497 0.0
N201 N 0.33331 0.68759 0.91931 0.0
C202 C 0.32232 0.71803 0.93578 0.0
H203 H 0.36485 0.61452 0.92008 0.0
Co204 Co 0.32727 0.69223 0.88951 0.0
C205 C 0.43228 0.69434 0.87373 0.0
O206 O 0.41816 0.72632 0.85908 0.0
N207 N 0.31937 0.69078 0.85928 0.0
C208 C 0.32972 0.66133 0.82632 0.0
C209 C 0.34237 0.65587 0.84742 0.0
C210 C 0.28907 0.71396 0.84497 0.0
N211 N 0.29642 0.69827 0.82474 0.0
O212 O 0.25566 0.70546 0.89253 0.0
H213 H 0.36704 0.62778 0.85374 0.0
H214 H 0.26063 0.7404 0.8491 0.0
O215 O 0.39982 0.67612 0.88668 0.0
C216 C 0.22583 0.73916 0.899 0.0
O217 O 0.24341 0.78141 0.90611 0.0
N218 N 0.34645 0.76151 0.89008 0.0
C219 C 0.39689 0.85138 0.88438 0.0
C220 C 0.4141 0.8167 0.89917 0.0
C221 C 0.38819 0.77256 0.90197 0.0
C222 C 0.32601 0.79782 0.87758 0.0
C223 C 0.35085 0.84289 0.87434 0.0
H224 H 0.40482 0.74549 0.91248 0.0
H225 H 0.29074 0.79268 0.86983 0.0
H226 H 0.30676 0.75451 0.93371 0.0
H227 H 0.36749 0.62672 0.96191 0.0
H228 H 0.34347 0.63931 0.81318 0.0
H229 H 0.44857 0.82272 0.90796 0.0
H230 H 0.33519 0.86983 0.8634 0.0
C231 C 0.34866 0.33569 0.43066 0.0
C232 C 0.35181 0.33959 0.45238 0.0
N233 N 0.30629 0.35118 0.45988 0.0
N234 N 0.3016 0.34511 0.42408 0.0
C235 C 0.27615 0.35395 0.44253 0.0
H236 H 0.37934 0.32745 0.42001 0.0
Co237 Co 0.29766 0.34276 0.39405 0.0
C238 C 0.29483 0.45021 0.40293 0.0
O239 O 0.26262 0.43985 0.41808 0.0
N240 N 0.30086 0.33808 0.36418 0.0
C241 C 0.33974 0.33688 0.33283 0.0
C242 C 0.34488 0.34612 0.35428 0.0
C243 C 0.26938 0.32378 0.34834 0.0
N244 N 0.29217 0.32268 0.3291 0.0
O245 O 0.28359 0.27158 0.39602 0.0
H246 H 0.37901 0.35696 0.36235 0.0
H247 H 0.23024 0.31547 0.3506 0.0
O248 O 0.3143 0.41475 0.3922 0.0
C249 C 0.24957 0.24173 0.38948 0.0
O250 O 0.21097 0.25837 0.37871 0.0
N251 N 0.22825 0.35916 0.39306 0.0
C252 C 0.13192 0.39841 0.39349 0.0
C253 C 0.14491 0.35987 0.40746 0.0
C254 C 0.19333 0.34025 0.40678 0.0
C255 C 0.21457 0.39459 0.37855 0.0
C256 C 0.167 0.41456 0.37851 0.0
H257 H 0.20318 0.31089 0.41773 0.0
H258 H 0.24144 0.41012 0.36752 0.0
H259 H 0.23737 0.36504 0.44337 0.0
H260 H 0.38527 0.33526 0.46198 0.0
H261 H 0.36922 0.33899 0.32103 0.0
H262 H 0.11842 0.34597 0.41911 0.0
H263 H 0.15897 0.44476 0.36765 0.0
C264 C 0.77231 0.68663 0.92621 0.0
C265 C 0.77077 0.69104 0.948 0.0
N266 N 0.80793 0.72156 0.95418 0.0
N267 N 0.81141 0.71275 0.91829 0.0
C268 C 0.83113 0.73492 0.93582 0.0
H269 H 0.74391 0.66827 0.91684 0.0
Co270 Co 0.82384 0.73148 0.88944 0.0
C271 C 0.92704 0.72461 0.90667 0.0
O272 O 0.91406 0.68254 0.91569 0.0
N273 N 0.83348 0.75561 0.86165 0.0
C274 C 0.8438 0.81385 0.83691 0.0
C275 C 0.84533 0.80351 0.8584 0.0
C276 C 0.8254 0.73737 0.8418 0.0
N277 N 0.83111 0.77217 0.82649 0.0
O278 O 0.75364 0.71539 0.88232 0.0
H279 H 0.8526 0.8298 0.87103 0.0
H280 H 0.81412 0.69988 0.83851 0.0
O281 O 0.89414 0.75004 0.89653 0.0
C282 C 0.73086 0.6843 0.87036 0.0
O283 O 0.75604 0.65233 0.85895 0.0
N284 N 0.84825 0.66666 0.88151 0.0
C285 C 0.90631 0.58087 0.8806 0.0
C286 C 0.85882 0.58057 0.89007 0.0
C287 C 0.83023 0.62371 0.89019 0.0
C288 C 0.8912 0.66499 0.86952 0.0
C289 C 0.92094 0.62276 0.86906 0.0
H290 H 0.79468 0.62244 0.89805 0.0
H291 H 0.90649 0.69811 0.86236 0.0
H292 H 0.86042 0.76246 0.93496 0.0
H293 H 0.74208 0.67556 0.9582 0.0
H294 H 0.84996 0.84966 0.82959 0.0
H295 H 0.84495 0.54804 0.89832 0.0
H296 H 0.95721 0.62474 0.86139 0.0
C297 C 0.18632 0.81721 0.4244 0.0
C298 C 0.18512 0.81542 0.44624 0.0
N299 N 0.22876 0.83332 0.45372 0.0
N300 N 0.23036 0.83593 0.41766 0.0
C301 C 0.25589 0.84484 0.43607 0.0
H302 H 0.15634 0.80594 0.41383 0.0
Co303 Co 0.23151 0.84261 0.38768 0.0
C304 C 0.23968 0.94721 0.40158 0.0
O305 O 0.27592 0.93373 0.41444 0.0
N306 N 0.22436 0.84751 0.3578 0.0
C307 C 0.18246 0.86892 0.32853 0.0
C308 C 0.18356 0.8711 0.35034 0.0
C309 C 0.24741 0.83052 0.33995 0.0
N310 N 0.22241 0.843 0.32181 0.0
O311 O 0.24394 0.77133 0.38578 0.0
H312 H 0.15563 0.88841 0.36029 0.0
H313 H 0.28127 0.80899 0.34019 0.0
O314 O 0.21721 0.91452 0.39024 0.0
C315 C 0.27711 0.74129 0.37888 0.0
O316 O 0.31681 0.75811 0.36886 0.0
N317 N 0.30162 0.85797 0.38623 0.0
C318 C 0.39678 0.90058 0.38938 0.0
C319 C 0.38448 0.85843 0.40143 0.0
C320 C 0.33662 0.83734 0.39947 0.0
C321 C 0.31543 0.89563 0.37279 0.0
C322 C 0.36248 0.91741 0.37417 0.0
H323 H 0.32684 0.80612 0.40945 0.0
H324 H 0.28868 0.91249 0.36211 0.0
H325 H 0.29296 0.86081 0.43672 0.0
H326 H 0.15433 0.80171 0.45578 0.0
H327 H 0.15406 0.88541 0.31849 0.0
H328 H 0.41041 0.84364 0.4131 0.0
H329 H 0.371 0.94892 0.36407 0.0
C330 C 0.17329 0.15883 0.93075 0.0
C331 C 0.17288 0.16402 0.95258 0.0
N332 N 0.17523 0.21259 0.95725 0.0
N333 N 0.17587 0.20371 0.92145 0.0
C334 C 0.17695 0.23581 0.93805 0.0
H335 H 0.17282 0.12428 0.9221 0.0
Co336 Co 0.18069 0.20795 0.89153 0.0
C337 C 0.07616 0.19741 0.87619 0.0
O338 O 0.0856 0.23084 0.86149 0.0
N339 N 0.18752 0.20615 0.86148 0.0
C340 C 0.20303 0.16299 0.83197 0.0
C341 C 0.19919 0.16115 0.85379 0.0
C342 C 0.18467 0.23516 0.84371 0.0
N343 N 0.19385 0.20958 0.82555 0.0
O344 O 0.25111 0.22766 0.89397 0.0
H345 H 0.2047 0.12872 0.86366 0.0
H346 H 0.17438 0.27369 0.84369 0.0
O347 O 0.11099 0.18403 0.88902 0.0
C348 C 0.27746 0.26004 0.90381 0.0
O349 O 0.25563 0.29383 0.91552 0.0
N350 N 0.15757 0.2751 0.89171 0.0
C351 C 0.11082 0.36721 0.888 0.0
C352 C 0.08975 0.3295 0.90044 0.0
C353 C 0.11385 0.28435 0.9023 0.0
C354 C 0.18095 0.31278 0.88103 0.0
C355 C 0.15786 0.359 0.87871 0.0
H356 H 0.09572 0.25584 0.91164 0.0
H357 H 0.21655 0.30663 0.87333 0.0
H358 H 0.17858 0.27548 0.93616 0.0
H359 H 0.17262 0.13403 0.96405 0.0
H360 H 0.21286 0.13247 0.82166 0.0
H361 H 0.05346 0.33364 0.90789 0.0
H362 H 0.17611 0.38753 0.86935 0.0
C363 C 0.84592 0.14156 0.4244 0.0
C364 C 0.85165 0.14302 0.44617 0.0
N365 N 0.8096 0.16183 0.45463 0.0
N366 N 0.80033 0.15886 0.419 0.0
C367 C 0.77919 0.17156 0.43785 0.0
H368 H 0.87334 0.12843 0.41308 0.0
Co369 Co 0.78181 0.15969 0.39014 0.0
C370 C 0.77167 0.05415 0.37935 0.0
O371 O 0.7308 0.06562 0.36872 0.0
N372 N 0.76992 0.16181 0.36019 0.0
C373 C 0.78776 0.14794 0.32593 0.0
C374 C 0.79748 0.13436 0.34656 0.0
C375 C 0.74654 0.19476 0.34712 0.0
N376 N 0.75561 0.18597 0.32621 0.0
O377 O 0.76845 0.23026 0.39146 0.0
H378 H 0.82566 0.10787 0.35125 0.0
H379 H 0.72576 0.22642 0.35268 0.0
O380 O 0.79722 0.08831 0.38847 0.0
C381 C 0.73925 0.26086 0.40065 0.0
O382 O 0.70563 0.24522 0.41437 0.0
N383 N 0.71333 0.14235 0.39709 0.0
C384 C 0.6194 0.09678 0.40125 0.0
C385 C 0.65985 0.08159 0.4138 0.0
C386 C 0.70614 0.10484 0.41158 0.0
C387 C 0.67275 0.1611 0.38653 0.0
C388 C 0.62562 0.13861 0.38821 0.0
H389 H 0.73728 0.08929 0.42029 0.0
H390 H 0.67639 0.19256 0.3762 0.0
H391 H 0.74165 0.18566 0.43947 0.0
H392 H 0.88454 0.13193 0.45506 0.0
H393 H 0.80564 0.13311 0.31185 0.0
H394 H 0.65648 0.0504 0.4246 0.0
H395 H 0.5951 0.15239 0.3785 0.0
C396 C 0.29211 0.83416 0.10105 0.0
C397 C 0.29168 0.82489 0.07957 0.0
N398 N 0.31499 0.78163 0.0761 0.0
N399 N 0.31595 0.79719 0.11142 0.0
C400 C 0.329 0.76533 0.09572 0.0
H401 H 0.27701 0.86678 0.10838 0.0
Co402 Co 0.3255 0.79046 0.14128 0.0
C403 C 0.43484 0.79008 0.14892 0.0
O404 O 0.42405 0.81714 0.16568 0.0
N405 N 0.33188 0.77793 0.17111 0.0
C406 C 0.35614 0.73629 0.20016 0.0
C407 C 0.3586 0.73885 0.17832 0.0
C408 C 0.30962 0.79557 0.18904 0.0
N409 N 0.32552 0.77223 0.20695 0.0
O410 O 0.25322 0.80578 0.14541 0.0
H411 H 0.37881 0.7134 0.16825 0.0
H412 H 0.28112 0.8238 0.18909 0.0
O413 O 0.39898 0.77315 0.13712 0.0
C414 C 0.2246 0.84382 0.14553 0.0
O415 O 0.24383 0.88821 0.14319 0.0
N416 N 0.34802 0.85933 0.14302 0.0
C417 C 0.41066 0.94259 0.14752 0.0
C418 C 0.41258 0.91324 0.12925 0.0
C419 C 0.38105 0.87276 0.12722 0.0
C420 C 0.34198 0.89068 0.15995 0.0
C421 C 0.37292 0.93237 0.16252 0.0
H422 H 0.38861 0.84886 0.11387 0.0
H423 H 0.31464 0.88345 0.17203 0.0
H424 H 0.34874 0.73109 0.09866 0.0
H425 H 0.27474 0.84812 0.06748 0.0
H426 H 0.37458 0.70936 0.21027 0.0
H427 H 0.44129 0.91827 0.11726 0.0
H428 H 0.36843 0.95516 0.17657 0.0
C429 C 0.31722 0.31922 0.61221 0.0
C430 C 0.31926 0.32084 0.5904 0.0
N431 N 0.27382 0.33342 0.58305 0.0
N432 N 0.27086 0.33095 0.61895 0.0
C433 C 0.24478 0.33925 0.60055 0.0
H434 H 0.34821 0.31117 0.62279 0.0
Co435 Co 0.26806 0.33468 0.64894 0.0
C436 C 0.27724 0.43953 0.63522 0.0
O437 O 0.24146 0.43111 0.62131 0.0
N438 N 0.27165 0.33738 0.67888 0.0
C439 C 0.30419 0.35651 0.71045 0.0
C440 C 0.31036 0.35979 0.68878 0.0
C441 C 0.24282 0.31942 0.69498 0.0
N442 N 0.2617 0.33125 0.71444 0.0
O443 O 0.24567 0.26483 0.6512 0.0
H444 H 0.34156 0.37719 0.6807 0.0
H445 H 0.20859 0.29866 0.6925 0.0
O446 O 0.29289 0.40407 0.64708 0.0
C447 C 0.23434 0.23023 0.63804 0.0
O448 O 0.23326 0.23928 0.61746 0.0
N449 N 0.20061 0.35862 0.6497 0.0
C450 C 0.10982 0.40981 0.64671 0.0
C451 C 0.1168 0.36487 0.63585 0.0
C452 C 0.16237 0.33952 0.63777 0.0
C453 C 0.19197 0.39922 0.66217 0.0
C454 C 0.14763 0.42566 0.66062 0.0
H455 H 0.16765 0.30614 0.6287 0.0
H456 H 0.22101 0.41412 0.67232 0.0
H457 H 0.20645 0.3518 0.59984 0.0
H458 H 0.35191 0.31411 0.58062 0.0
H459 H 0.32977 0.37064 0.72241 0.0
H460 H 0.08799 0.35011 0.62547 0.0
H461 H 0.1447 0.45999 0.66936 0.0
C462 C 0.71228 0.34541 0.10681 0.0
C463 C 0.7134 0.34039 0.08499 0.0
N464 N 0.69974 0.2938 0.08012 0.0
N465 N 0.698 0.30249 0.11598 0.0
C466 C 0.69116 0.27158 0.09916 0.0
H467 H 0.7213 0.37864 0.11561 0.0
Co468 Co 0.69372 0.30307 0.14614 0.0
C469 C 0.58822 0.29734 0.13224 0.0
O470 O 0.60233 0.26049 0.12016 0.0
N471 N 0.69194 0.30926 0.17606 0.0
C472 C 0.67447 0.33823 0.20844 0.0
C473 C 0.67144 0.34731 0.18678 0.0
C474 C 0.70807 0.27814 0.19152 0.0
N475 N 0.69717 0.2943 0.21136 0.0
O476 O 0.76597 0.29079 0.14715 0.0
H477 H 0.65411 0.37902 0.17927 0.0
H478 H 0.72552 0.24314 0.18826 0.0
O479 O 0.62058 0.31894 0.14425 0.0
C480 C 0.79965 0.25976 0.15272 0.0
O481 O 0.78708 0.21787 0.16194 0.0
N482 N 0.67687 0.23382 0.14861 0.0
C483 C 0.63224 0.14022 0.14833 0.0
C484 C 0.67538 0.14967 0.13617 0.0
C485 C 0.69804 0.19658 0.13702 0.0
C486 C 0.63764 0.22303 0.16195 0.0
C487 C 0.61522 0.17681 0.16213 0.0
H488 H 0.73044 0.20384 0.12718 0.0
H489 H 0.6203 0.2514 0.17149 0.0
H490 H 0.67788 0.23408 0.10055 0.0
H491 H 0.72382 0.36893 0.07369 0.0
H492 H 0.65939 0.36129 0.22095 0.0
H493 H 0.69007 0.12189 0.12547 0.0
H494 H 0.58186 0.17142 0.1717 0.0
C495 C 0.66451 0.65 0.61082 0.0
C496 C 0.6622 0.64559 0.58902 0.0
N497 N 0.70725 0.65784 0.58091 0.0
N498 N 0.71078 0.66461 0.61665 0.0
C499 C 0.73595 0.66968 0.59803 0.0
H500 H 0.63442 0.64227 0.62189 0.0
Co501 Co 0.72534 0.67293 0.64559 0.0
C502 C 0.72613 0.57009 0.66288 0.0
O503 O 0.76232 0.58273 0.67596 0.0
N504 N 0.73334 0.6838 0.67495 0.0
C505 C 0.70217 0.71722 0.7045 0.0
C506 C 0.6931 0.7061 0.68355 0.0
C507 C 0.76663 0.68105 0.69137 0.0
N508 N 0.74842 0.70154 0.70943 0.0
O509 O 0.74109 0.74295 0.64103 0.0
H510 H 0.65942 0.71494 0.67474 0.0
H511 H 0.80377 0.66557 0.69022 0.0
O512 O 0.70663 0.60293 0.65067 0.0
C513 C 0.76961 0.77351 0.63118 0.0
O514 O 0.80392 0.75723 0.61799 0.0
N515 N 0.79348 0.65286 0.6414 0.0
C516 C 0.88713 0.60686 0.64168 0.0
C517 C 0.84705 0.5864 0.63033 0.0
C518 C 0.80097 0.61 0.63026 0.0
C519 C 0.83356 0.67633 0.65046 0.0
C520 C 0.88064 0.65348 0.65114 0.0
H521 H 0.7702 0.59141 0.62241 0.0
H522 H 0.82865 0.71131 0.65848 0.0
H523 H 0.77472 0.68098 0.59709 0.0
H524 H 0.63011 0.63299 0.57996 0.0
H525 H 0.67683 0.73577 0.7153 0.0
H526 H 0.84997 0.55055 0.62277 0.0
H527 H 0.91107 0.67124 0.65965 0.0
H528 H 0.18385 0.23219 0.24865 0.0
H529 H 0.29001 0.32763 0.21685 0.0
H530 H 0.32214 0.3557 0.25112 0.0
H531 H 0.32067 0.35329 0.29009 0.0
H532 H 0.21599 0.25762 0.32255 0.0
H533 H 0.18242 0.22996 0.28822 0.0
C534 C 0.21413 0.25893 0.2493 0.0
C535 C 0.23416 0.27801 0.23019 0.0
C536 C 0.23259 0.2751 0.26919 0.0
C537 C 0.27322 0.31298 0.23126 0.0
C538 C 0.29189 0.32888 0.25088 0.0
C539 C 0.29076 0.32613 0.28968 0.0
C540 C 0.27107 0.30752 0.3089 0.0
C541 C 0.27188 0.31025 0.26993 0.0
C542 C 0.23155 0.27302 0.30804 0.0
C543 C 0.21255 0.2569 0.28839 0.0
H544 H 0.65793 0.25482 0.79055 0.0
H545 H 0.79194 0.20456 0.8223 0.0
H546 H 0.82777 0.18069 0.78805 0.0
H547 H 0.81973 0.1712 0.74913 0.0
H548 H 0.68533 0.22114 0.71758 0.0
H549 H 0.65159 0.24913 0.75158 0.0
C550 C 0.6953 0.23944 0.78997 0.0
C551 C 0.72191 0.23116 0.80904 0.0
C552 C 0.71568 0.22569 0.77021 0.0
C553 C 0.77014 0.21054 0.80796 0.0
C554 C 0.7908 0.19706 0.78834 0.0
C555 C 0.78304 0.18808 0.7497 0.0
C556 C 0.75513 0.19389 0.73078 0.0
C557 C 0.76359 0.20375 0.76939 0.0
C558 C 0.70792 0.21667 0.73181 0.0
C559 C 0.68841 0.23242 0.75129 0.0
H560 H 0.68434 0.67691 0.28654 0.0
H561 H 0.82422 0.71491 0.31727 0.0
H562 H 0.8565 0.74701 0.28389 0.0
H563 H 0.8466 0.76346 0.24595 0.0
H564 H 0.70899 0.72486 0.21399 0.0
H565 H 0.67496 0.69258 0.24765 0.0
C566 C 0.7219 0.69202 0.28595 0.0
C567 C 0.75123 0.69401 0.30472 0.0
C568 C 0.74097 0.71 0.26638 0.0
C569 C 0.79994 0.71391 0.30344 0.0
C570 C 0.81884 0.73195 0.28422 0.0
C571 C 0.8089 0.74856 0.24634 0.0
C572 C 0.78026 0.74714 0.22748 0.0
C573 C 0.78973 0.73029 0.26564 0.0
C574 C 0.73198 0.72629 0.22822 0.0
C575 C 0.71243 0.70806 0.2475 0.0
H576 H 0.34382 0.70519 0.78722 0.0
H577 H 0.20459 0.73907 0.81844 0.0
H578 H 0.1723 0.7753 0.78522 0.0
H579 H 0.18416 0.79699 0.74714 0.0
H580 H 0.32653 0.76595 0.71733 0.0
H581 H 0.35626 0.72805 0.74994 0.0
C582 C 0.30615 0.7199 0.7867 0.0
C583 C 0.27651 0.71894 0.80522 0.0
C584 C 0.28821 0.74102 0.7677 0.0
C585 C 0.22824 0.73945 0.80443 0.0
C586 C 0.20975 0.76002 0.78541 0.0
C587 C 0.22174 0.78219 0.74771 0.0
C588 C 0.25241 0.78399 0.72935 0.0
C589 C 0.2395 0.76111 0.7669 0.0
C590 C 0.30111 0.7643 0.73072 0.0
C591 C 0.3186 0.74283 0.74955 0.0
H592 H 0.84524 0.69314 0.80085 0.0
H593 H 0.78674 0.84157 0.80212 0.0
H594 H 0.75865 0.83352 0.76527 0.0
H595 H 0.74621 0.78295 0.73336 0.0
H596 H 0.80533 0.63525 0.73091 0.0
H597 H 0.83828 0.6442 0.7674 0.0
C598 C 0.82652 0.72365 0.79296 0.0
C599 C 0.81798 0.76785 0.80423 0.0
C600 C 0.81059 0.71883 0.7716 0.0
C601 C 0.79424 0.8074 0.79377 0.0
C602 C 0.77787 0.80273 0.77272 0.0
C603 C 0.76655 0.75287 0.74083 0.0
C604 C 0.77293 0.70834 0.72969 0.0
C605 C 0.78525 0.75847 0.76161 0.0
C606 C 0.80015 0.66986 0.73926 0.0
C607 C 0.81862 0.67493 0.76012 0.0
H608 H 0.31165 0.81274 0.30558 0.0
H609 H 0.15859 0.84407 0.28786 0.0
H610 H 0.17751 0.8272 0.25081 0.0
H611 H 0.23717 0.80291 0.22288 0.0
H612 H 0.38868 0.76693 0.24047 0.0
H613 H 0.37055 0.78537 0.27784 0.0
C614 C 0.28225 0.81552 0.29372 0.0
C615 C 0.23389 0.83058 0.29983 0.0
C616 C 0.29305 0.80473 0.2722 0.0
C617 C 0.19655 0.83395 0.28392 0.0
C618 C 0.20717 0.82388 0.26256 0.0
C619 C 0.26618 0.79943 0.2349 0.0
C620 C 0.31416 0.78364 0.2289 0.0
C621 C 0.2553 0.80949 0.25645 0.0
C622 C 0.35128 0.77858 0.24472 0.0
C623 C 0.34099 0.7893 0.26609 0.0
H624 H 0.21565 0.24657 0.72676 0.0
H625 H 0.26665 0.38826 0.74957 0.0
H626 H 0.24643 0.36458 0.78618 0.0
H627 H 0.2211 0.30092 0.8122 0.0
H628 H 0.17146 0.15848 0.78966 0.0
H629 H 0.18388 0.18494 0.75274 0.0
C630 C 0.22136 0.27248 0.73972 0.0
C631 C 0.24305 0.31894 0.73544 0.0
C632 C 0.21038 0.25824 0.76091 0.0
C633 C 0.25068 0.35201 0.75247 0.0
C634 C 0.23907 0.33852 0.77343 0.0
C635 C 0.21215 0.27601 0.79921 0.0
C636 C 0.19589 0.22759 0.80378 0.0
C637 C 0.21997 0.29131 0.77794 0.0
C638 C 0.18491 0.19565 0.78666 0.0
C639 C 0.19184 0.21082 0.7655 0.0
H640 H 0.7369 0.14869 0.28757 0.0
H641 H 0.73751 0.28478 0.32316 0.0
H642 H 0.71768 0.33115 0.29049 0.0
H643 H 0.70541 0.3329 0.25122 0.0
H644 H 0.70443 0.19507 0.2165 0.0
H645 H 0.72037 0.14977 0.24928 0.0
C646 C 0.73272 0.18853 0.28817 0.0
C647 C 0.73914 0.21328 0.30769 0.0
C648 C 0.72197 0.21472 0.26939 0.0
C649 C 0.7325 0.2648 0.30835 0.0
C650 C 0.72156 0.29132 0.28964 0.0
C651 C 0.70823 0.29296 0.25085 0.0
C652 C 0.70463 0.26777 0.23119 0.0
C653 C 0.71694 0.2667 0.26997 0.0
C654 C 0.70846 0.21586 0.23113 0.0
C655 C 0.71711 0.18969 0.24996 0.0
H656 H 0.2172 0.33055 0.0417 0.0
H657 H 0.1574 0.19685 0.06967 0.0
H658 H 0.14066 0.16397 0.03407 0.0
H659 H 0.14706 0.17146 0.99499 0.0
H660 H 0.21201 0.30347 0.96743 0.0
H661 H 0.22249 0.33854 1.00287 0.0
C662 C 0.20086 0.29402 0.0401 0.0
C663 C 0.18924 0.26612 0.05851 0.0
C664 C 0.19225 0.27493 0.01958 0.0
C665 C 0.16664 0.21943 0.05595 0.0
C666 C 0.15734 0.20041 0.03552 0.0
C667 C 0.1638 0.20777 0.99664 0.0
C668 C 0.17889 0.23443 0.97831 0.0
C669 C 0.17071 0.22753 1.01722 0.0
C670 C 0.19947 0.28201 0.981 0.0
C671 C 0.20586 0.30208 1.00137 0.0
H672 H 0.8414 0.10696 0.48791 0.0
H673 H 0.75731 0.23746 0.47145 0.0
H674 H 0.74782 0.25734 0.5093 0.0
H675 H 0.76746 0.23999 0.54688 0.0
H676 H 0.84996 0.109 0.56376 0.0
H677 H 0.85608 0.0865 0.52589 0.0
C678 C 0.82098 0.1397 0.49266 0.0
C679 C 0.80049 0.17102 0.47692 0.0
C680 C 0.81563 0.15075 0.51445 0.0
C681 C 0.77319 0.21274 0.48326 0.0
C682 C 0.76805 0.22424 0.50487 0.0
C683 C 0.7868 0.20655 0.54221 0.0
C684 C 0.80892 0.1765 0.55796 0.0
C685 C 0.78976 0.19393 0.52055 0.0
C686 C 0.83278 0.13262 0.55186 0.0
C687 C 0.8364 0.11996 0.53025 0.0
H688 H 0.77418 0.6817 0.99123 0.0
H689 H 0.86368 0.80193 0.96615 0.0
H690 H 0.87793 0.83222 1.00214 0.0
H691 H 0.86409 0.82568 0.04077 0.0
H692 H 0.76983 0.70867 0.06542 0.0
H693 H 0.75837 0.67652 0.02953 0.0
C694 C 0.79633 0.71489 0.99343 0.0
C695 C 0.8174 0.73933 0.97564 0.0
C696 C 0.80367 0.73288 1.01422 0.0
C697 C 0.84707 0.7817 0.97925 0.0
C698 C 0.85509 0.79941 0.99995 0.0
C699 C 0.84058 0.79347 0.03838 0.0
C700 C 0.81809 0.76976 0.05603 0.0
C701 C 0.83333 0.77546 0.01755 0.0
C702 C 0.78842 0.72747 0.05238 0.0
C703 C 0.7815 0.70912 0.03176 0.0
H704 H 0.16594 0.83996 0.48764 0.0
H705 H 0.32246 0.84112 0.47038 0.0
H706 H 0.34548 0.84755 0.50793 0.0
H707 H 0.32169 0.84785 0.54557 0.0
H708 H 0.16589 0.83995 0.56332 0.0
H709 H 0.14201 0.84201 0.52554 0.0
C710 C 0.20516 0.84114 0.49198 0.0
C711 C 0.24237 0.83942 0.47597 0.0
C712 C 0.21823 0.84383 0.51372 0.0
C713 C 0.2929 0.84257 0.48214 0.0
C714 C 0.30615 0.84601 0.50369 0.0
C715 C 0.28243 0.8462 0.54127 0.0
C716 C 0.24567 0.8428 0.55738 0.0
C717 C 0.26917 0.84587 0.51959 0.0
C718 C 0.19498 0.84261 0.55137 0.0
C719 C 0.18137 0.84335 0.52974 0.0
H720 H 0.69017 0.34244 0.04223 0.0
H721 H 0.69696 0.19606 0.07005 0.0
H722 H 0.68701 0.15959 0.03499 0.0
H723 H 0.67885 0.1684 0.99656 0.0
H724 H 0.67974 0.31356 0.96771 0.0
H725 H 0.68331 0.35118 1.00315 0.0
C726 C 0.68998 0.30258 0.04072 0.0
C727 C 0.69424 0.27236 0.05907 0.0
C728 C 0.68534 0.28147 0.02028 0.0
C729 C 0.693 0.22065 0.05652 0.0
C730 C 0.68759 0.19955 0.03636 0.0
C731 C 0.68046 0.20829 0.99784 0.0
C732 C 0.67979 0.23789 0.97928 0.0
C733 C 0.6841 0.22956 0.01816 0.0
C734 C 0.68004 0.28964 0.98158 0.0
C735 C 0.6825 0.31122 1.00188 0.0
H736 H 0.64646 0.66378 0.54628 0.0
H737 H 0.80108 0.64709 0.56521 0.0
H738 H 0.82608 0.64441 0.52788 0.0
H739 H 0.80467 0.6486 0.49004 0.0
H740 H 0.65105 0.66633 0.47046 0.0
H741 H 0.62455 0.66428 0.50799 0.0
C742 C 0.68557 0.65899 0.54232 0.0
C743 C 0.72183 0.65606 0.55871 0.0
C744 C 0.69974 0.65702 0.52072 0.0
C745 C 0.77241 0.65047 0.55309 0.0
C746 C 0.78673 0.64844 0.53169 0.0
C747 C 0.76534 0.65211 0.49396 0.0
C748 C 0.72989 0.65831 0.47751 0.0
C749 C 0.75079 0.65207 0.51543 0.0
C750 C 0.67897 0.66136 0.48282 0.0
C751 C 0.66397 0.66068 0.50427 0.0
H752 H 0.32202 0.82738 0.03794 0.0
H753 H 0.3236 0.68343 0.06775 0.0
H754 H 0.32977 0.64443 0.03262 0.0
H755 H 0.33135 0.65142 0.9934 0.0
H756 H 0.33012 0.79612 0.964 0.0
H757 H 0.32527 0.83446 0.99904 0.0
C758 C 0.3233 0.78744 0.03682 0.0
C759 C 0.32187 0.75842 0.05555 0.0
C760 C 0.32623 0.76536 1.0166 0.0
C761 C 0.32495 0.70672 0.05369 0.0
C762 C 0.32809 0.68441 0.03357 0.0
C763 C 0.3305 0.69135 0.99457 0.0
C764 C 0.3309 0.72062 0.97585 0.0
C765 C 0.32835 0.71338 1.01489 0.0
C766 C 0.32901 0.77238 0.97792 0.0
C767 C 0.32667 0.79447 0.99803 0.0
H768 H 0.32284 0.39406 0.55699 0.0
H769 H 0.20033 0.29085 0.55956 0.0
H770 H 0.19422 0.29187 0.5203 0.0
H771 H 0.23303 0.31358 0.4851 0.0
H772 H 0.35751 0.41515 0.48386 0.0
H773 H 0.35342 0.42426 0.52256 0.0
C774 C 0.29405 0.37282 0.54888 0.0
C775 C 0.26222 0.34232 0.56094 0.0
C776 C 0.29161 0.37306 0.52651 0.0
C777 C 0.22492 0.31484 0.55047 0.0
C778 C 0.22185 0.31512 0.52806 0.0
C779 C 0.25815 0.33865 0.49337 0.0
C780 C 0.29583 0.36345 0.48178 0.0
C781 C 0.25621 0.34283 0.51585 0.0
C782 C 0.32857 0.39554 0.49257 0.0
C783 C 0.32633 0.40061 0.51466 0.0
H784 H 0.01746 0.42499 0.15283 0.0
H785 H 0.1388 0.53053 0.15685 0.0
H786 H 0.0794 0.59855 0.15296 0.0
H787 H 0.99405 0.62736 0.14743 0.0
H788 H 0.87206 0.52288 0.14344 0.0
H789 H 0.93092 0.45439 0.14884 0.0
C790 C 0.03079 0.46293 0.15324 0.0
C791 C 0.08239 0.4729 0.15518 0.0
C792 C 0.99653 0.50165 0.15098 0.0
C793 C 0.09931 0.52208 0.15522 0.0
C794 C 0.06543 0.56086 0.15306 0.0
C795 C 0.98034 0.58957 0.14767 0.0
C796 C 0.92906 0.5799 0.14474 0.0
C797 C 0.01415 0.55094 0.15069 0.0
C798 C 0.91148 0.53099 0.14559 0.0
C799 C 0.94508 0.49201 0.14861 0.0
H800 H 0.44877 0.96874 0.62033 0.0
H801 H 0.45302 0.9529 0.68895 0.0
H802 H 0.51945 0.0155 0.69076 0.0
H803 H 0.57516 0.07588 0.67249 0.0
H804 H 0.55916 0.09826 0.60453 0.0
H805 H 0.49523 0.03405 0.60307 0.0
C806 C 0.46292 0.97963 0.63586 0.0
C807 C 0.44495 0.95653 0.6545 0.0
C808 C 0.49811 0.01771 0.63693 0.0
C809 C 0.46621 0.96963 0.67427 0.0
C810 C 0.50365 0.00601 0.67536 0.0
C811 C 0.55663 0.0676 0.6575 0.0
C812 C 0.57221 0.09134 0.63858 0.0
C813 C 0.51938 0.0308 0.65678 0.0
C814 C 0.54825 0.07997 0.61922 0.0
C815 C 0.51197 0.04311 0.61835 0.0
H816 H 0.49592 0.85256 0.87564 0.0
H817 H 0.36752 0.9479 0.88151 0.0
H818 H 0.42139 0.02066 0.87718 0.0
H819 H 0.50568 0.05662 0.87608 0.0
H820 H 0.63467 0.96174 0.87206 0.0
H821 H 0.57978 0.88885 0.87087 0.0
C822 C 0.4798 0.88934 0.87588 0.0
C823 C 0.42807 0.89512 0.8793 0.0
C824 C 0.51103 0.93076 0.8737 0.0
C825 C 0.40726 0.94269 0.87899 0.0
C826 C 0.43804 0.98418 0.8766 0.0
C827 C 0.52164 0.01994 0.87463 0.0
C828 C 0.57396 0.01417 0.87448 0.0
C829 C 0.49005 0.97858 0.87457 0.0
C830 C 0.59446 0.96682 0.87221 0.0
C831 C 0.56313 0.92529 0.87174 0.0
H832 H 0.0706 0.42982 0.36172 0.0
H833 H 0.08897 0.43102 0.43018 0.0
H834 H 0.02089 0.49058 0.4334 0.0
H835 H 0.96085 0.54634 0.4166 0.0
H836 H 0.94084 0.54427 0.34817 0.0
H837 H 1.00758 0.48322 0.34497 0.0
C838 C 0.05933 0.44285 0.37735 0.0
C839 C 0.08472 0.42619 0.39569 0.0
C840 C 0.02129 0.47807 0.37901 0.0
C841 C 0.06949 0.44277 0.41587 0.0
C842 C 0.03117 0.47739 0.41768 0.0
C843 C 0.97066 0.53224 0.40097 0.0
C844 C 0.94578 0.54984 0.38266 0.0
C845 C 1.00762 0.49598 0.39933 0.0
C846 C 0.95991 0.53203 0.3625 0.0
C847 C 0.99751 0.49656 0.36069 0.0
H848 H 0.97335 0.53882 0.85308 0.0
H849 H 0.92251 0.53442 0.91847 0.0
H850 H 0.98486 0.47196 0.92695 0.0
H851 H 0.05277 0.41792 0.91592 0.0
H852 H 0.10195 0.41846 0.85033 0.0
H853 H 0.04333 0.48516 0.84214 0.0
C854 C 0.976 0.5242 0.86918 0.0
C855 C 0.94267 0.54072 0.88501 0.0
C856 C 0.01233 0.48839 0.87404 0.0
C857 C 0.94665 0.52141 0.90581 0.0
C858 C 0.98277 0.48614 0.91077 0.0
C859 C 0.05066 0.43247 0.89979 0.0
C860 C 0.08142 0.41278 0.88374 0.0
C861 C 0.01559 0.46924 0.89501 0.0
C862 C 0.07911 0.43315 0.86308 0.0
C863 C 0.04508 0.47085 0.8583 0.0
H864 H 0.611 0.9965 0.40077 0.0
H865 H 0.52254 0.12985 0.39997 0.0
H866 H 0.44607 0.08046 0.39687 0.0
H867 H 0.40471 0.99979 0.39358 0.0
H868 H 0.49265 0.86627 0.39439 0.0
H869 H 0.56919 0.91545 0.39898 0.0
C870 C 0.57496 0.01481 0.4003 0.0
C871 C 0.57255 0.06692 0.40065 0.0
C872 C 0.53119 0.98618 0.39855 0.0
C873 C 0.52554 0.08993 0.39953 0.0
C874 C 0.4818 0.0617 0.39784 0.0
C875 C 0.4407 0.98144 0.39465 0.0
C876 C 0.44318 0.92949 0.39335 0.0
C877 C 0.48428 0.00989 0.39713 0.0
C878 C 0.48983 0.90616 0.39534 0.0
C879 C 0.53353 0.93428 0.39786 0.0
H880 H 0.4615 0.99856 0.1181 0.0
H881 H 0.45247 0.96964 0.18591 0.0
H882 H 0.52378 0.02431 0.19198 0.0
H883 H 0.58863 0.08064 0.17804 0.0
H884 H 0.60036 0.10478 0.11013 0.0
H885 H 0.53041 0.04812 0.104 0.0
C886 C 0.47539 0.00326 0.13423 0.0
C887 C 0.45108 0.97972 0.15149 0.0
C888 C 0.51796 0.03271 0.13755 0.0
C889 C 0.46927 0.98795 0.17229 0.0
C890 C 0.51074 0.01857 0.17578 0.0
C891 C 0.57641 0.07264 0.16188 0.0
C892 C 0.59962 0.09674 0.14455 0.0
C893 C 0.53548 0.04093 0.15851 0.0
C894 C 0.58365 0.08608 0.1237 0.0
C895 C 0.54309 0.0544 0.12022 0.0
H896 H 0.06078 0.46967 0.67496 0.0
H897 H 0.06005 0.42431 0.60888 0.0
H898 H 0.99328 0.48303 0.60125 0.0
H899 H 0.93645 0.54873 0.61308 0.0
H900 H 0.93925 0.59568 0.67887 0.0
H901 H 1.00629 0.53706 0.68648 0.0
C902 C 0.04655 0.47282 0.6588 0.0
C903 C 0.06576 0.44228 0.64256 0.0
C904 C 0.00935 0.50791 0.65432 0.0
C905 C 0.0456 0.44639 0.62186 0.0
C906 C 1.00783 0.48057 0.61738 0.0
C907 C 0.95185 0.54627 0.62907 0.0
C908 C 0.9328 0.57668 0.64536 0.0
C909 C 0.98972 0.51177 0.63345 0.0
C910 C 0.95368 0.57341 0.66593 0.0
C911 C 0.99155 0.53936 0.67038 0.0
H912 H 0.53509 0.3488 0.16278 0.0
H913 H 0.51846 0.26788 0.10378 0.0
H914 H 0.42821 0.27232 0.10656 0.0
H915 H 0.35335 0.29508 0.12626 0.0
H916 H 0.36676 0.37936 0.1843 0.0
H917 H 0.45827 0.37766 0.18138 0.0
C918 C 0.51164 0.33289 0.15041 0.0
C919 C 0.53378 0.30759 0.13325 0.0
C920 C 0.45897 0.3356 0.152 0.0
C921 C 0.50271 0.28711 0.11734 0.0
C922 C 0.45086 0.2895 0.11887 0.0
C923 C 0.37628 0.31309 0.13828 0.0
C924 C 0.3534 0.33686 0.15554 0.0
C925 C 0.42857 0.31278 0.13629 0.0
C926 C 0.38359 0.36071 0.17082 0.0
C927 C 0.43591 0.35975 0.16918 0.0
H928 H 0.68124 0.35406 0.62924 0.0
H929 H 0.79485 0.3192 0.67598 0.0
H930 H 0.79791 0.40576 0.68693 0.0
H931 H 0.77179 0.49181 0.68201 0.0
H932 H 0.66014 0.52771 0.63458 0.0
H933 H 0.65243 0.44013 0.62537 0.0
C934 C 0.7065 0.36525 0.64191 0.0
C935 C 0.73807 0.33 0.65164 0.0
C936 C 0.70838 0.41532 0.64804 0.0
C937 C 0.7704 0.3454 0.66808 0.0
C938 C 0.77214 0.39497 0.67438 0.0
C939 C 0.74527 0.48061 0.66981 0.0
C940 C 0.71659 0.51658 0.65901 0.0
C941 C 0.74175 0.43032 0.66431 0.0
C942 C 0.6826 0.50101 0.64321 0.0
C943 C 0.67836 0.45089 0.63786 0.0
H944 H 0.48895 0.71099 0.13324 0.0
H945 H 0.50169 0.86396 0.15192 0.0
H946 H 0.59216 0.86063 0.14833 0.0
H947 H 0.66882 0.81342 0.14222 0.0
H948 H 0.65818 0.66039 0.12347 0.0
H949 H 0.56689 0.66452 0.12488 0.0
C950 C 0.51159 0.74368 0.13609 0.0
C951 C 0.48849 0.78756 0.14288 0.0
C952 C 0.56441 0.74138 0.13436 0.0
C953 C 0.51846 0.82956 0.14676 0.0
C954 C 0.57038 0.82773 0.14481 0.0
C955 C 0.6466 0.78094 0.13844 0.0
C956 C 0.67062 0.73663 0.13293 0.0
C957 C 0.59395 0.78361 0.1391 0.0
C958 C 0.64091 0.69509 0.12784 0.0
C959 C 0.58851 0.69738 0.12861 0.0
H960 H 0.2271 0.52152 0.62333 0.0
H961 H 0.3596 0.47466 0.65713 0.0
H962 H 0.38127 0.56144 0.6643 0.0
H963 H 0.36168 0.65104 0.66095 0.0
H964 H 0.22618 0.69487 0.62837 0.0
H965 H 0.20662 0.60878 0.62083 0.0
C966 C 0.26103 0.53007 0.63214 0.0
C967 C 0.29203 0.49158 0.63945 0.0
C968 C 0.27255 0.57963 0.63652 0.0
C969 C 0.33524 0.50357 0.65121 0.0
C970 C 0.34757 0.55319 0.65532 0.0
C971 C 0.32792 0.64168 0.6522 0.0
C972 C 0.29552 0.67957 0.64523 0.0
C973 C 0.31641 0.59161 0.64807 0.0
C974 C 0.25172 0.66668 0.63404 0.0
C975 C 0.24052 0.61737 0.62963 0.0
H976 H 0.99279 0.2459 0.86347 0.0
H977 H 0.04111 0.11711 0.89858 0.0
H978 H 0.95364 0.09559 0.90615 0.0
H979 H 0.86328 0.11445 0.90318 0.0
H980 H 0.81674 0.24624 0.86966 0.0
H981 H 0.9037 0.26553 0.86111 0.0
C982 C 0.98429 0.21281 0.87261 0.0
C983 C 0.02345 0.18281 0.88024 0.0
C984 C 0.93418 0.20142 0.8773 0.0
C985 C 0.01167 0.14067 0.89244 0.0
C986 C 0.96167 0.12843 0.89679 0.0
C987 C 0.87223 0.14732 0.89398 0.0
C988 C 0.8335 0.17886 0.88709 0.0
C989 C 0.9226 0.15867 0.88937 0.0
C990 C 0.84575 0.22153 0.87531 0.0
C991 C 0.8955 0.23251 0.87034 0.0
H992 H 0.85908 0.83964 0.39397 0.0
H993 H 0.71175 0.80077 0.37084 0.0
H994 H 0.69138 0.88799 0.36653 0.0
H995 H 0.71449 0.97482 0.36975 0.0
H996 H 0.86025 0.01545 0.39396 0.0
H997 H 0.88217 0.92785 0.39746 0.0
C998 C 0.82265 0.85032 0.38788 0.0
C999 C 0.787 0.81376 0.38274 0.0
C1000 C 0.81087 0.90073 0.38568 0.0
C1001 C 0.73978 0.82815 0.37504 0.0
C1002 C 0.7281 0.87802 0.37252 0.0
C1003 C 0.75124 0.96466 0.37568 0.0
C1004 C 0.78584 1.00158 0.38145 0.0
C1005 C 0.76324 0.91454 0.37787 0.0
C1006 C 0.83298 0.98768 0.38938 0.0
C1007 C 0.84552 0.93764 0.39137 0.0
H1008 H 1.00362 0.66023 0.90512 0.0
H1009 H 0.97127 0.8163 0.90388 0.0
H1010 H 0.06123 0.83493 0.90155 0.0
H1011 H 0.14932 0.8062 0.9003 0.0
H1012 H 0.17935 0.64944 0.89912 0.0
H1013 H 0.09001 0.63173 0.90185 0.0
C1014 C 0.01623 0.6984 0.90449 0.0
C1015 C 0.98098 0.73694 0.90507 0.0
C1016 C 0.0676 0.70862 0.90262 0.0
C1017 C 0.99779 0.78608 0.90363 0.0
C1018 C 0.04917 0.79666 0.9023 0.0
C1019 C 0.13625 0.76819 0.90063 0.0
C1020 C 0.17114 0.7292 0.89965 0.0
C1021 C 0.08448 0.75818 0.90185 0.0
C1022 C 0.15348 0.68016 0.89981 0.0
C1023 C 0.10235 0.66996 0.90145 0.0
H1024 H 0.18933 0.16743 0.37474 0.0
H1025 H 0.31793 0.19514 0.41494 0.0
H1026 H 0.32436 0.10695 0.42271 0.0
H1027 H 0.29471 0.02247 0.4178 0.0
H1028 H 0.16791 0.99288 0.37689 0.0
H1029 H 0.1593 0.08172 0.36984 0.0
C1030 C 0.21869 0.15425 0.38526 0.0
C1031 C 0.25311 0.18806 0.39425 0.0
C1032 C 0.22238 0.10329 0.38959 0.0
C1033 C 0.29101 0.17013 0.40776 0.0
C1034 C 0.29467 0.11966 0.41225 0.0
C1035 C 0.26481 0.03522 0.40744 0.0
C1036 C 0.23175 1.0009 0.39798 0.0
C1037 C 0.26065 0.08599 0.40323 0.0
C1038 C 0.19369 0.01841 0.38446 0.0
C1039 C 0.18888 0.0692 0.38039 0.0
H1040 H 0.50372 0.69496 0.84331 0.0
H1041 H 0.48257 0.67631 0.91106 0.0
H1042 H 0.57357 0.67385 0.91634 0.0
H1043 H 0.65965 0.68003 0.90156 0.0
H1044 H 0.67941 0.69181 0.83347 0.0
H1045 H 0.58861 0.69454 0.82839 0.0
C1046 C 0.51907 0.68982 0.85921 0.0
C1047 C 0.48656 0.68583 0.87677 0.0
C1048 C 0.57122 0.68787 0.86205 0.0
C1049 C 0.50686 0.67893 0.89726 0.0
C1050 C 0.55888 0.67798 0.9003 0.0
C1051 C 0.64389 0.6833 0.88567 0.0
C1052 C 0.67593 0.68635 0.8679 0.0
C1053 C 0.59149 0.68303 0.88282 0.0
C1054 C 0.65528 0.68964 0.84734 0.0
C1055 C 0.60345 0.69111 0.84444 0.0
H1056 H 0.23611 0.52664 0.41457 0.0
H1057 H 0.36416 0.49204 0.37553 0.0
H1058 H 0.36967 0.57904 0.36427 0.0
H1059 H 0.33785 0.66523 0.36588 0.0
H1060 H 0.20783 0.69664 0.40443 0.0
H1061 H 0.20328 0.61033 0.41534 0.0
C1062 C 0.2656 0.5379 0.40369 0.0
C1063 C 0.30013 0.50276 0.39613 0.0
C1064 C 0.26793 0.58747 0.39708 0.0
C1065 C 0.33734 0.51827 0.38173 0.0
C1066 C 0.34038 0.56801 0.37527 0.0
C1067 C 0.3084 0.65317 0.3766 0.0
C1068 C 0.27327 0.68775 0.38431 0.0
C1069 C 0.30582 0.60301 0.38286 0.0
C1070 C 0.23531 0.67117 0.39815 0.0
C1071 C 0.23275 0.62172 0.40449 0.0
H1072 H 0.51488 0.28158 0.90546 0.0
H1073 H 0.50015 0.151 0.86635 0.0
H1074 H 0.40994 0.15354 0.86976 0.0
H1075 H 0.33444 0.19324 0.88271 0.0
H1076 H 0.34578 0.32406 0.9217 0.0
H1077 H 0.43719 0.32113 0.91935 0.0
C1078 C 0.49181 0.25365 0.89785 0.0
C1079 C 0.51449 0.21653 0.8855 0.0
C1080 C 0.43903 0.25547 0.89965 0.0
C1081 C 0.48395 0.18053 0.87571 0.0
C1082 C 0.43211 0.18178 0.87765 0.0
C1083 C 0.35675 0.22123 0.89071 0.0
C1084 C 0.33303 0.25887 0.90228 0.0
C1085 C 0.40917 0.21932 0.88934 0.0
C1086 C 0.36288 0.29464 0.9126 0.0
C1087 C 0.41529 0.29297 0.9113 0.0
H1088 H 0.69603 0.34004 0.4208 0.0
H1089 H 0.78714 0.30095 0.36649 0.0
H1090 H 0.79131 0.38723 0.3557 0.0
H1091 H 0.77123 0.4732 0.36175 0.0
H1092 H 0.68343 0.51593 0.41642 0.0
H1093 H 0.67541 0.42859 0.42688 0.0
C1094 C 0.71672 0.35047 0.4066 0.0
C1095 C 0.74139 0.31388 0.39454 0.0
C1096 C 0.71946 0.40067 0.40051 0.0
C1097 C 0.76812 0.32812 0.3762 0.0
C1098 C 0.77042 0.37754 0.36994 0.0
C1099 C 0.74999 0.46377 0.37594 0.0
C1100 C 0.72781 0.50127 0.38825 0.0
C1101 C 0.74648 0.41402 0.382 0.0
C1102 C 0.70068 0.48787 0.40659 0.0
C1103 C 0.69629 0.43794 0.4126 0.0
H1104 H 0.98641 0.85472 0.14343 0.0
H1105 H 1.00376 0.7055 0.16682 0.0
H1106 H 0.09421 0.71314 0.16484 0.0
H1107 H 0.16968 0.76232 0.15724 0.0
H1108 H 0.15383 0.91316 0.13577 0.0
H1109 H 0.06285 0.90488 0.13643 0.0
C1110 C 0.01005 0.82392 0.148 0.0
C1111 C 0.9879 0.77959 0.1552 0.0
C1112 C 0.06287 0.82888 0.14735 0.0
C1113 C 0.01939 0.74018 0.16123 0.0
C1114 C 0.07142 0.74444 0.16014 0.0
C1115 C 0.14637 0.79338 0.15269 0.0
C1116 C 0.16897 0.83823 0.14647 0.0
C1117 C 0.09373 0.78867 0.15336 0.0
C1118 C 0.13781 0.87814 0.14075 0.0
C1119 C 0.08553 0.87345 0.14105 0.0
H1120 H 0.20818 0.14963 0.61427 0.0
H1121 H 0.24382 0.19379 0.67876 0.0
H1122 H 0.24058 0.10739 0.69025 0.0
H1123 H 0.23468 0.01915 0.68145 0.0
H1124 H 0.2009 0.97443 0.61691 0.0
H1125 H 0.19559 0.06136 0.60607 0.0
C1126 C 0.2148 0.14055 0.6309 0.0
C1127 C 0.2268 0.17841 0.64557 0.0
C1128 C 0.21328 0.09063 0.63738 0.0
C1129 C 0.23478 0.16565 0.66708 0.0
C1130 C 0.23303 0.11614 0.67366 0.0
C1131 C 0.22552 0.02829 0.66503 0.0
C1132 C 0.21848 0.99012 0.64998 0.0
C1133 C 0.22336 0.0783 0.65886 0.0
C1134 C 0.20629 0.00287 0.62885 0.0
C1135 C 0.20363 0.05264 0.62262 0.0
H1136 H 0.88168 0.20203 0.16119 0.0
H1137 H 0.83816 0.34093 0.13251 0.0
H1138 H 0.925 0.358 0.1232 0.0
H1139 H 0.01296 0.33422 0.12314 0.0
H1140 H 0.0586 0.19682 0.15236 0.0
H1141 H 0.97114 0.17829 0.1613 0.0
C1142 C 0.89114 0.23606 0.15291 0.0
C1143 C 0.85309 0.27009 0.14759 0.0
C1144 C 0.9415 0.24578 0.14753 0.0
C1145 C 0.86635 0.314 0.13686 0.0
C1146 C 0.91611 0.3238 0.13146 0.0
C1147 C 1.00397 0.29988 0.13128 0.0
C1148 C 0.04245 0.26669 0.13686 0.0
C1149 C 0.95391 0.28994 0.13665 0.0
C1150 C 0.02981 0.22286 0.14773 0.0
C1151 C 0.97978 0.21236 0.15291 0.0
H1152 H 0.72442 0.98938 0.66354 0.0
H1153 H 0.84198 0.02769 0.61926 0.0
H1154 H 0.85089 0.93979 0.60987 0.0
H1155 H 0.82431 0.85157 0.61441 0.0
H1156 H 0.70554 0.81737 0.65892 0.0
H1157 H 0.69816 0.9043 0.66788 0.0
C1158 C 0.75226 0.97895 0.65182 0.0
C1159 C 0.78266 0.01548 0.6422 0.0
C1160 C 0.75681 0.92882 0.64647 0.0
C1161 C 0.81822 1.00056 0.62702 0.0
C1162 C 0.82319 0.95024 0.62162 0.0
C1163 C 0.79676 0.86317 0.62603 0.0
C1164 C 0.76547 0.82747 0.63591 0.0
C1165 C 0.79255 0.91393 0.63124 0.0
C1166 C 0.73008 0.84351 0.65097 0.0
C1167 C 0.72582 0.89342 0.65617 0.0
loop_
_geom_bond_atom_site_label_1
_geom_bond_atom_site_label_2
_geom_bond_distance
_geom_bond_site_symmetry_2
_ccdc_geom_bond_type
C0 C1 1.351 . S
C0 N3 1.368 . S
C0 H5 0.931 . S
C1 C0 1.351 . S
C1 N2 1.373 . S
C1 H29 0.930 . S
N2 C1 1.373 . S
N2 C4 1.340 . S
N3 C0 1.368 . S
N3 C4 1.321 . S
N3 Co6 2.135 . S
C4 N2 1.340 . S
C4 N3 1.321 . S
C4 H28 0.930 . S
H5 C0 0.931 . S
Co6 N3 2.135 . S
Co6 N9 2.121 . S
Co6 O14 2.055 . S
Co6 O17 2.039 . S
Co6 N20 2.140 . S
C7 O8 1.227 1_455 S
C7 O17 1.265 . S
O8 C7 1.227 1_655 S
N9 Co6 2.121 . S
N9 C11 1.375 . S
N9 C12 1.313 . S
C10 C11 1.338 . S
C10 N13 1.377 . S
C10 H30 0.930 . S
C11 N9 1.375 . S
C11 C10 1.338 . S
C11 H15 0.931 . S
C12 N9 1.313 . S
C12 N13 1.344 . S
C12 H16 0.930 . S
N13 C10 1.377 . S
N13 C12 1.344 . S
O14 Co6 2.055 . S
O14 C18 1.253 . S
H15 C11 0.931 . S
H16 C12 0.930 . S
O17 Co6 2.039 . S
O17 C7 1.265 . S
C18 O14 1.253 . S
C18 O19 1.227 . S
O19 C18 1.227 . S
N20 Co6 2.140 . S
N20 C23 1.346 . S
N20 C24 1.345 . S
C21 C22 1.387 . S
C21 C25 1.391 . S
C22 C21 1.387 . S
C22 C23 1.369 . S
C22 H31 0.929 . S
C23 N20 1.346 . S
C23 C22 1.369 . S
C23 H26 0.928 . S
C24 N20 1.345 . S
C24 C25 1.371 . S
C24 H27 0.931 . S
C25 C21 1.391 . S
C25 C24 1.371 . S
C25 H32 0.930 . S
H26 C23 0.928 . S
H27 C24 0.931 . S
H28 C4 0.930 . S
H29 C1 0.930 . S
H30 C10 0.930 . S
H31 C22 0.929 . S
H32 C25 0.930 . S
C33 C34 1.351 . S
C33 N36 1.368 . S
C33 H38 0.931 . S
C34 C33 1.351 . S
C34 N35 1.373 . S
C34 H62 0.930 . S
N35 C34 1.373 . S
N35 C37 1.340 . S
N36 C33 1.368 . S
N36 C37 1.321 . S
N36 Co39 2.135 . S
C37 N35 1.340 . S
C37 N36 1.321 . S
C37 H61 0.930 . S
H38 C33 0.931 . S
Co39 N36 2.135 . S
Co39 N42 2.121 . S
Co39 O47 2.055 . S
Co39 O50 2.039 . S
Co39 N53 2.140 . S
C40 O41 1.227 1_545 S
C40 O50 1.265 . S
O41 C40 1.227 1_565 S
N42 Co39 2.121 . S
N42 C44 1.375 . S
N42 C45 1.313 . S
C43 C44 1.338 . S
C43 N46 1.377 . S
C43 H63 0.930 . S
C44 N42 1.375 . S
C44 C43 1.338 . S
C44 H48 0.931 . S
C45 N42 1.313 . S
C45 N46 1.344 . S
C45 H49 0.930 . S
N46 C43 1.377 . S
N46 C45 1.344 . S
O47 Co39 2.055 . S
O47 C51 1.253 . S
H48 C44 0.931 . S
H49 C45 0.930 . S
O50 Co39 2.039 . S
O50 C40 1.265 . S
C51 O47 1.253 . S
C51 O52 1.227 . S
O52 C51 1.227 . S
N53 Co39 2.140 . S
N53 C56 1.346 . S
N53 C57 1.345 . S
C54 C55 1.387 . S
C54 C58 1.391 . S
C55 C54 1.387 . S
C55 C56 1.369 . S
C55 H64 0.929 . S
C56 N53 1.346 . S
C56 C55 1.369 . S
C56 H59 0.928 . S
C57 N53 1.345 . S
C57 C58 1.371 . S
C57 H60 0.931 . S
C58 C54 1.391 . S
C58 C57 1.371 . S
C58 H65 0.930 . S
H59 C56 0.928 . S
H60 C57 0.931 . S
H61 C37 0.930 . S
H62 C34 0.930 . S
H63 C43 0.930 . S
H64 C55 0.929 . S
H65 C58 0.930 . S
C66 C67 1.351 . S
C66 N69 1.368 . S
C66 H71 0.931 . S
C67 C66 1.351 . S
C67 N68 1.373 . S
C67 H95 0.930 . S
N68 C67 1.373 . S
N68 C70 1.340 . S
N69 C66 1.368 . S
N69 C70 1.321 . S
N69 Co72 2.135 . S
C70 N68 1.340 . S
C70 N69 1.321 . S
C70 H94 0.930 . S
H71 C66 0.931 . S
Co72 N69 2.135 . S
Co72 N75 2.121 . S
Co72 O80 2.055 . S
Co72 O83 2.039 . S
Co72 N86 2.140 . S
C73 O74 1.227 1_655 S
C73 O83 1.265 . S
O74 C73 1.227 1_455 S
N75 Co72 2.121 . S
N75 C77 1.375 . S
N75 C78 1.313 . S
C76 C77 1.338 . S
C76 N79 1.377 . S
C76 H96 0.930 . S
C77 N75 1.375 . S
C77 C76 1.338 . S
C77 H81 0.931 . S
C78 N75 1.313 . S
C78 N79 1.344 . S
C78 H82 0.930 . S
N79 C76 1.377 . S
N79 C78 1.344 . S
O80 Co72 2.055 . S
O80 C84 1.253 . S
H81 C77 0.931 . S
H82 C78 0.930 . S
O83 Co72 2.039 . S
O83 C73 1.265 . S
C84 O80 1.253 . S
C84 O85 1.227 . S
O85 C84 1.227 . S
N86 Co72 2.140 . S
N86 C89 1.346 . S
N86 C90 1.345 . S
C87 C88 1.387 . S
C87 C91 1.391 . S
C88 C87 1.387 . S
C88 C89 1.369 . S
C88 H97 0.929 . S
C89 N86 1.346 . S
C89 C88 1.369 . S
C89 H92 0.928 . S
C90 N86 1.345 . S
C90 C91 1.371 . S
C90 H93 0.931 . S
C91 C87 1.391 . S
C91 C90 1.371 . S
C91 H98 0.930 . S
H92 C89 0.928 . S
H93 C90 0.931 . S
H94 C70 0.930 . S
H95 C67 0.930 . S
H96 C76 0.930 . S
H97 C88 0.929 . S
H98 C91 0.930 . S
C99 C100 1.351 . S
C99 N102 1.368 . S
C99 H104 0.931 . S
C100 C99 1.351 . S
C100 N101 1.373 . S
C100 H128 0.930 . S
N101 C100 1.373 . S
N101 C103 1.340 . S
N102 C99 1.368 . S
N102 C103 1.321 . S
N102 Co105 2.135 . S
C103 N101 1.340 . S
C103 N102 1.321 . S
C103 H127 0.930 . S
H104 C99 0.931 . S
Co105 N102 2.135 . S
Co105 N108 2.121 . S
Co105 O113 2.055 . S
Co105 O116 2.039 . S
Co105 N119 2.140 . S
C106 O107 1.227 1_565 S
C106 O116 1.265 . S
O107 C106 1.227 1_545 S
N108 Co105 2.121 . S
N108 C110 1.375 . S
N108 C111 1.313 . S
C109 C110 1.338 . S
C109 N112 1.377 . S
C109 H129 0.930 . S
C110 N108 1.375 . S
C110 C109 1.338 . S
C110 H114 0.931 . S
C111 N108 1.313 . S
C111 N112 1.344 . S
C111 H115 0.930 . S
N112 C109 1.377 . S
N112 C111 1.344 . S
O113 Co105 2.055 . S
O113 C117 1.253 . S
H114 C110 0.931 . S
H115 C111 0.930 . S
O116 Co105 2.039 . S
O116 C106 1.265 . S
C117 O113 1.253 . S
C117 O118 1.227 . S
O118 C117 1.227 . S
N119 Co105 2.140 . S
N119 C122 1.346 . S
N119 C123 1.345 . S
C120 C121 1.387 . S
C120 C124 1.391 . S
C121 C120 1.387 . S
C121 C122 1.369 . S
C121 H130 0.929 . S
C122 N119 1.346 . S
C122 C121 1.369 . S
C122 H125 0.928 . S
C123 N119 1.345 . S
C123 C124 1.371 . S
C123 H126 0.931 . S
C124 C120 1.391 . S
C124 C123 1.371 . S
C124 H131 0.930 . S
H125 C122 0.928 . S
H126 C123 0.931 . S
H127 C103 0.930 . S
H128 C100 0.930 . S
H129 C109 0.930 . S
H130 C121 0.929 . S
H131 C124 0.930 . S
C132 C133 1.351 . S
C132 N135 1.368 . S
C132 H137 0.931 . S
C133 C132 1.351 . S
C133 N134 1.373 . S
C133 H161 0.930 . S
N134 C133 1.373 . S
N134 C136 1.340 . S
N135 C132 1.368 . S
N135 C136 1.321 . S
N135 Co138 2.135 . S
C136 N134 1.340 . S
C136 N135 1.321 . S
C136 H160 0.930 . S
H137 C132 0.931 . S
Co138 N135 2.135 . S
Co138 N141 2.121 . S
Co138 O146 2.055 . S
Co138 O149 2.039 . S
Co138 N152 2.140 . S
C139 O140 1.227 . S
C139 O149 1.265 . S
O140 C139 1.227 . S
N141 Co138 2.121 . S
N141 C143 1.375 . S
N141 C144 1.313 . S
C142 C143 1.338 . S
C142 N145 1.377 . S
C142 H162 0.930 . S
C143 N141 1.375 . S
C143 C142 1.338 . S
C143 H147 0.931 . S
C144 N141 1.313 . S
C144 N145 1.344 . S
C144 H148 0.930 . S
N145 C142 1.377 . S
N145 C144 1.344 . S
O146 Co138 2.055 . S
O146 C150 1.253 . S
H147 C143 0.931 . S
H148 C144 0.930 . S
O149 Co138 2.039 . S
O149 C139 1.265 . S
C150 O146 1.253 . S
C150 O151 1.227 . S
O151 C150 1.227 . S
N152 Co138 2.140 . S
N152 C155 1.346 . S
N152 C156 1.345 . S
C153 C154 1.387 . S
C153 C157 1.391 . S
C154 C153 1.387 . S
C154 C155 1.369 . S
C154 H163 0.929 . S
C155 N152 1.346 . S
C155 C154 1.369 . S
C155 H158 0.928 . S
C156 N152 1.345 . S
C156 C157 1.371 . S
C156 H159 0.931 . S
C157 C153 1.391 . S
C157 C156 1.371 . S
C157 H164 0.930 . S
H158 C155 0.928 . S
H159 C156 0.931 . S
H160 C136 0.930 . S
H161 C133 0.930 . S
H162 C142 0.930 . S
H163 C154 0.929 . S
H164 C157 0.930 . S
C165 C166 1.351 . S
C165 N168 1.368 . S
C165 H170 0.931 . S
C166 C165 1.351 . S
C166 N167 1.373 . S
C166 H194 0.930 . S
N167 C166 1.373 . S
N167 C169 1.340 . S
N168 C165 1.368 . S
N168 C169 1.321 . S
N168 Co171 2.135 . S
C169 N167 1.340 . S
C169 N168 1.321 . S
C169 H193 0.930 . S
H170 C165 0.931 . S
Co171 N168 2.135 . S
Co171 N174 2.121 . S
Co171 O179 2.055 . S
Co171 O182 2.039 . S
Co171 N185 2.140 . S
C172 O173 1.227 . S
C172 O182 1.265 . S
O173 C172 1.227 . S
N174 Co171 2.121 . S
N174 C176 1.375 . S
N174 C177 1.313 . S
C175 C176 1.338 . S
C175 N178 1.377 . S
C175 H195 0.930 . S
C176 N174 1.375 . S
C176 C175 1.338 . S
C176 H180 0.931 . S
C177 N174 1.313 . S
C177 N178 1.344 . S
C177 H181 0.930 . S
N178 C175 1.377 . S
N178 C177 1.344 . S
O179 Co171 2.055 . S
O179 C183 1.253 . S
H180 C176 0.931 . S
H181 C177 0.930 . S
O182 Co171 2.039 . S
O182 C172 1.265 . S
C183 O179 1.253 . S
C183 O184 1.227 . S
O184 C183 1.227 . S
N185 Co171 2.140 . S
N185 C188 1.346 . S
N185 C189 1.345 . S
C186 C187 1.387 . S
C186 C190 1.391 . S
C187 C186 1.387 . S
C187 C188 1.369 . S
C187 H196 0.929 . S
C188 N185 1.346 . S
C188 C187 1.369 . S
C188 H191 0.928 . S
C189 N185 1.345 . S
C189 C190 1.371 . S
C189 H192 0.931 . S
C190 C186 1.391 . S
C190 C189 1.371 . S
C190 H197 0.930 . S
H191 C188 0.928 . S
H192 C189 0.931 . S
H193 C169 0.930 . S
H194 C166 0.930 . S
H195 C175 0.930 . S
H196 C187 0.929 . S
H197 C190 0.930 . S
C198 C199 1.351 . S
C198 N201 1.368 . S
C198 H203 0.931 . S
C199 C198 1.351 . S
C199 N200 1.373 . S
C199 H227 0.930 . S
N200 C199 1.373 . S
N200 C202 1.340 . S
N201 C198 1.368 . S
N201 C202 1.321 . S
N201 Co204 2.135 . S
C202 N200 1.340 . S
C202 N201 1.321 . S
C202 H226 0.930 . S
H203 C198 0.931 . S
Co204 N201 2.135 . S
Co204 N207 2.121 . S
Co204 O212 2.055 . S
Co204 O215 2.039 . S
Co204 N218 2.140 . S
C205 O206 1.227 . S
C205 O215 1.265 . S
O206 C205 1.227 . S
N207 Co204 2.121 . S
N207 C209 1.375 . S
N207 C210 1.313 . S
C208 C209 1.338 . S
C208 N211 1.377 . S
C208 H228 0.930 . S
C209 N207 1.375 . S
C209 C208 1.338 . S
C209 H213 0.931 . S
C210 N207 1.313 . S
C210 N211 1.344 . S
C210 H214 0.930 . S
N211 C208 1.377 . S
N211 C210 1.344 . S
O212 Co204 2.055 . S
O212 C216 1.253 . S
H213 C209 0.931 . S
H214 C210 0.930 . S
O215 Co204 2.039 . S
O215 C205 1.265 . S
C216 O212 1.253 . S
C216 O217 1.227 . S
O217 C216 1.227 . S
N218 Co204 2.140 . S
N218 C221 1.346 . S
N218 C222 1.345 . S
C219 C220 1.387 . S
C219 C223 1.391 . S
C220 C219 1.387 . S
C220 C221 1.369 . S
C220 H229 0.929 . S
C221 N218 1.346 . S
C221 C220 1.369 . S
C221 H224 0.928 . S
C222 N218 1.345 . S
C222 C223 1.371 . S
C222 H225 0.931 . S
C223 C219 1.391 . S
C223 C222 1.371 . S
C223 H230 0.930 . S
H224 C221 0.928 . S
H225 C222 0.931 . S
H226 C202 0.930 . S
H227 C199 0.930 . S
H228 C208 0.930 . S
H229 C220 0.929 . S
H230 C223 0.930 . S
C231 C232 1.351 . S
C231 N234 1.368 . S
C231 H236 0.931 . S
C232 C231 1.351 . S
C232 N233 1.373 . S
C232 H260 0.930 . S
N233 C232 1.373 . S
N233 C235 1.340 . S
N234 C231 1.368 . S
N234 C235 1.321 . S
N234 Co237 2.135 . S
C235 N233 1.340 . S
C235 N234 1.321 . S
C235 H259 0.930 . S
H236 C231 0.931 . S
Co237 N234 2.135 . S
Co237 N240 2.121 . S
Co237 O245 2.055 . S
Co237 O248 2.039 . S
Co237 N251 2.140 . S
C238 O239 1.227 . S
C238 O248 1.265 . S
O239 C238 1.227 . S
N240 Co237 2.121 . S
N240 C242 1.375 . S
N240 C243 1.313 . S
C241 C242 1.338 . S
C241 N244 1.377 . S
C241 H261 0.930 . S
C242 N240 1.375 . S
C242 C241 1.338 . S
C242 H246 0.931 . S
C243 N240 1.313 . S
C243 N244 1.344 . S
C243 H247 0.930 . S
N244 C241 1.377 . S
N244 C243 1.344 . S
O245 Co237 2.055 . S
O245 C249 1.253 . S
H246 C242 0.931 . S
H247 C243 0.930 . S
O248 Co237 2.039 . S
O248 C238 1.265 . S
C249 O245 1.253 . S
C249 O250 1.227 . S
O250 C249 1.227 . S
N251 Co237 2.140 . S
N251 C254 1.346 . S
N251 C255 1.345 . S
C252 C253 1.387 . S
C252 C256 1.391 . S
C253 C252 1.387 . S
C253 C254 1.369 . S
C253 H262 0.929 . S
C254 N251 1.346 . S
C254 C253 1.369 . S
C254 H257 0.928 . S
C255 N251 1.345 . S
C255 C256 1.371 . S
C255 H258 0.931 . S
C256 C252 1.391 . S
C256 C255 1.371 . S
C256 H263 0.930 . S
H257 C254 0.928 . S
H258 C255 0.931 . S
H259 C235 0.930 . S
H260 C232 0.930 . S
H261 C241 0.930 . S
H262 C253 0.929 . S
H263 C256 0.930 . S
C264 C265 1.351 . S
C264 N267 1.368 . S
C264 H269 0.931 . S
C265 C264 1.351 . S
C265 N266 1.373 . S
C265 H293 0.930 . S
N266 C265 1.373 . S
N266 C268 1.340 . S
N267 C264 1.368 . S
N267 C268 1.321 . S
N267 Co270 2.135 . S
C268 N266 1.340 . S
C268 N267 1.321 . S
C268 H292 0.930 . S
H269 C264 0.931 . S
Co270 N267 2.135 . S
Co270 N273 2.121 . S
Co270 O278 2.055 . S
Co270 O281 2.039 . S
Co270 N284 2.140 . S
C271 O272 1.227 1_655 S
C271 O281 1.265 . S
O272 C271 1.227 1_455 S
N273 Co270 2.121 . S
N273 C275 1.375 . S
N273 C276 1.313 . S
C274 C275 1.338 . S
C274 N277 1.377 . S
C274 H294 0.930 . S
C275 N273 1.375 . S
C275 C274 1.338 . S
C275 H279 0.931 . S
C276 N273 1.313 . S
C276 N277 1.344 . S
C276 H280 0.930 . S
N277 C274 1.377 . S
N277 C276 1.344 . S
O278 Co270 2.055 . S
O278 C282 1.253 . S
H279 C275 0.931 . S
H280 C276 0.930 . S
O281 Co270 2.039 . S
O281 C271 1.265 . S
C282 O278 1.253 . S
C282 O283 1.227 . S
O283 C282 1.227 . S
N284 Co270 2.140 . S
N284 C287 1.346 . S
N284 C288 1.345 . S
C285 C286 1.387 . S
C285 C289 1.391 . S
C286 C285 1.387 . S
C286 C287 1.369 . S
C286 H295 0.929 . S
C287 N284 1.346 . S
C287 C286 1.369 . S
C287 H290 0.928 . S
C288 N284 1.345 . S
C288 C289 1.371 . S
C288 H291 0.931 . S
C289 C285 1.391 . S
C289 C288 1.371 . S
C289 H296 0.930 . S
H290 C287 0.928 . S
H291 C288 0.931 . S
H292 C268 0.930 . S
H293 C265 0.930 . S
H294 C274 0.930 . S
H295 C286 0.929 . S
H296 C289 0.930 . S
C297 C298 1.351 . S
C297 N300 1.368 . S
C297 H302 0.931 . S
C298 C297 1.351 . S
C298 N299 1.373 . S
C298 H326 0.930 . S
N299 C298 1.373 . S
N299 C301 1.340 . S
N300 C297 1.368 . S
N300 C301 1.321 . S
N300 Co303 2.135 . S
C301 N299 1.340 . S
C301 N300 1.321 . S
C301 H325 0.930 . S
H302 C297 0.931 . S
Co303 N300 2.135 . S
Co303 N306 2.121 . S
Co303 O311 2.055 . S
Co303 O314 2.039 . S
Co303 N317 2.140 . S
C304 O305 1.227 1_565 S
C304 O314 1.265 . S
O305 C304 1.227 1_545 S
N306 Co303 2.121 . S
N306 C308 1.375 . S
N306 C309 1.313 . S
C307 C308 1.338 . S
C307 N310 1.377 . S
C307 H327 0.930 . S
C308 N306 1.375 . S
C308 C307 1.338 . S
C308 H312 0.931 . S
C309 N306 1.313 . S
C309 N310 1.344 . S
C309 H313 0.930 . S
N310 C307 1.377 . S
N310 C309 1.344 . S
O311 Co303 2.055 . S
O311 C315 1.253 . S
H312 C308 0.931 . S
H313 C309 0.930 . S
O314 Co303 2.039 . S
O314 C304 1.265 . S
C315 O311 1.253 . S
C315 O316 1.227 . S
O316 C315 1.227 . S
N317 Co303 2.140 . S
N317 C320 1.346 . S
N317 C321 1.345 . S
C318 C319 1.387 . S
C318 C322 1.391 . S
C319 C318 1.387 . S
C319 C320 1.369 . S
C319 H328 0.929 . S
C320 N317 1.346 . S
C320 C319 1.369 . S
C320 H323 0.928 . S
C321 N317 1.345 . S
C321 C322 1.371 . S
C321 H324 0.931 . S
C322 C318 1.391 . S
C322 C321 1.371 . S
C322 H329 0.930 . S
H323 C320 0.928 . S
H324 C321 0.931 . S
H325 C301 0.930 . S
H326 C298 0.930 . S
H327 C307 0.930 . S
H328 C319 0.929 . S
H329 C322 0.930 . S
C330 C331 1.351 . S
C330 N333 1.368 . S
C330 H335 0.931 . S
C331 C330 1.351 . S
C331 N332 1.373 . S
C331 H359 0.930 . S
N332 C331 1.373 . S
N332 C334 1.340 . S
N333 C330 1.368 . S
N333 C334 1.321 . S
N333 Co336 2.135 . S
C334 N332 1.340 . S
C334 N333 1.321 . S
C334 H358 0.930 . S
H335 C330 0.931 . S
Co336 N333 2.135 . S
Co336 N339 2.121 . S
Co336 O344 2.055 . S
Co336 O347 2.039 . S
Co336 N350 2.140 . S
C337 O338 1.227 1_455 S
C337 O347 1.265 . S
O338 C337 1.227 1_655 S
N339 Co336 2.121 . S
N339 C341 1.375 . S
N339 C342 1.313 . S
C340 C341 1.338 . S
C340 N343 1.377 . S
C340 H360 0.930 . S
C341 N339 1.375 . S
C341 C340 1.338 . S
C341 H345 0.931 . S
C342 N339 1.313 . S
C342 N343 1.344 . S
C342 H346 0.930 . S
N343 C340 1.377 . S
N343 C342 1.344 . S
O344 Co336 2.055 . S
O344 C348 1.253 . S
H345 C341 0.931 . S
H346 C342 0.930 . S
O347 Co336 2.039 . S
O347 C337 1.265 . S
C348 O344 1.253 . S
C348 O349 1.227 . S
O349 C348 1.227 . S
N350 Co336 2.140 . S
N350 C353 1.346 . S
N350 C354 1.345 . S
C351 C352 1.387 . S
C351 C355 1.391 . S
C352 C351 1.387 . S
C352 C353 1.369 . S
C352 H361 0.929 . S
C353 N350 1.346 . S
C353 C352 1.369 . S
C353 H356 0.928 . S
C354 N350 1.345 . S
C354 C355 1.371 . S
C354 H357 0.931 . S
C355 C351 1.391 . S
C355 C354 1.371 . S
C355 H362 0.930 . S
H356 C353 0.928 . S
H357 C354 0.931 . S
H358 C334 0.930 . S
H359 C331 0.930 . S
H360 C340 0.930 . S
H361 C352 0.929 . S
H362 C355 0.930 . S
C363 C364 1.351 . S
C363 N366 1.368 . S
C363 H368 0.931 . S
C364 C363 1.351 . S
C364 N365 1.373 . S
C364 H392 0.930 . S
N365 C364 1.373 . S
N365 C367 1.340 . S
N366 C363 1.368 . S
N366 C367 1.321 . S
N366 Co369 2.135 . S
C367 N365 1.340 . S
C367 N366 1.321 . S
C367 H391 0.930 . S
H368 C363 0.931 . S
Co369 N366 2.135 . S
Co369 N372 2.121 . S
Co369 O377 2.055 . S
Co369 O380 2.039 . S
Co369 N383 2.140 . S
C370 O371 1.227 1_545 S
C370 O380 1.265 . S
O371 C370 1.227 1_565 S
N372 Co369 2.121 . S
N372 C374 1.375 . S
N372 C375 1.313 . S
C373 C374 1.338 . S
C373 N376 1.377 . S
C373 H393 0.930 . S
C374 N372 1.375 . S
C374 C373 1.338 . S
C374 H378 0.931 . S
C375 N372 1.313 . S
C375 N376 1.344 . S
C375 H379 0.930 . S
N376 C373 1.377 . S
N376 C375 1.344 . S
O377 Co369 2.055 . S
O377 C381 1.253 . S
H378 C374 0.931 . S
H379 C375 0.930 . S
O380 Co369 2.039 . S
O380 C370 1.265 . S
C381 O377 1.253 . S
C381 O382 1.227 . S
O382 C381 1.227 . S
N383 Co369 2.140 . S
N383 C386 1.346 . S
N383 C387 1.345 . S
C384 C385 1.387 . S
C384 C388 1.391 . S
C385 C384 1.387 . S
C385 C386 1.369 . S
C385 H394 0.929 . S
C386 N383 1.346 . S
C386 C385 1.369 . S
C386 H389 0.928 . S
C387 N383 1.345 . S
C387 C388 1.371 . S
C387 H390 0.931 . S
C388 C384 1.391 . S
C388 C387 1.371 . S
C388 H395 0.930 . S
H389 C386 0.928 . S
H390 C387 0.931 . S
H391 C367 0.930 . S
H392 C364 0.930 . S
H393 C373 0.930 . S
H394 C385 0.929 . S
H395 C388 0.930 . S
C396 C397 1.351 . S
C396 N399 1.368 . S
C396 H401 0.931 . S
C397 C396 1.351 . S
C397 N398 1.373 . S
C397 H425 0.930 . S
N398 C397 1.373 . S
N398 C400 1.340 . S
N399 C396 1.368 . S
N399 C400 1.321 . S
N399 Co402 2.135 . S
C400 N398 1.340 . S
C400 N399 1.321 . S
C400 H424 0.930 . S
H401 C396 0.931 . S
Co402 N399 2.135 . S
Co402 N405 2.121 . S
Co402 O410 2.055 . S
Co402 O413 2.039 . S
Co402 N416 2.140 . S
C403 O404 1.227 . S
C403 O413 1.265 . S
O404 C403 1.227 . S
N405 Co402 2.121 . S
N405 C407 1.375 . S
N405 C408 1.313 . S
C406 C407 1.338 . S
C406 N409 1.377 . S
C406 H426 0.930 . S
C407 N405 1.375 . S
C407 C406 1.338 . S
C407 H411 0.931 . S
C408 N405 1.313 . S
C408 N409 1.344 . S
C408 H412 0.930 . S
N409 C406 1.377 . S
N409 C408 1.344 . S
O410 Co402 2.055 . S
O410 C414 1.253 . S
H411 C407 0.931 . S
H412 C408 0.930 . S
O413 Co402 2.039 . S
O413 C403 1.265 . S
C414 O410 1.253 . S
C414 O415 1.227 . S
O415 C414 1.227 . S
N416 Co402 2.140 . S
N416 C419 1.346 . S
N416 C420 1.345 . S
C417 C418 1.387 . S
C417 C421 1.391 . S
C418 C417 1.387 . S
C418 C419 1.369 . S
C418 H427 0.929 . S
C419 N416 1.346 . S
C419 C418 1.369 . S
C419 H422 0.928 . S
C420 N416 1.345 . S
C420 C421 1.371 . S
C420 H423 0.931 . S
C421 C417 1.391 . S
C421 C420 1.371 . S
C421 H428 0.930 . S
H422 C419 0.928 . S
H423 C420 0.931 . S
H424 C400 0.930 . S
H425 C397 0.930 . S
H426 C406 0.930 . S
H427 C418 0.929 . S
H428 C421 0.930 . S
C429 C430 1.351 . S
C429 N432 1.368 . S
C429 H434 0.931 . S
C430 C429 1.351 . S
C430 N431 1.373 . S
C430 H458 0.930 . S
N431 C430 1.373 . S
N431 C433 1.340 . S
N432 C429 1.368 . S
N432 C433 1.321 . S
N432 Co435 2.135 . S
C433 N431 1.340 . S
C433 N432 1.321 . S
C433 H457 0.930 . S
H434 C429 0.931 . S
Co435 N432 2.135 . S
Co435 N438 2.121 . S
Co435 O443 2.055 . S
Co435 O446 2.039 . S
Co435 N449 2.140 . S
C436 O437 1.227 . S
C436 O446 1.265 . S
O437 C436 1.227 . S
N438 Co435 2.121 . S
N438 C440 1.375 . S
N438 C441 1.313 . S
C439 C440 1.338 . S
C439 N442 1.377 . S
C439 H459 0.930 . S
C440 N438 1.375 . S
C440 C439 1.338 . S
C440 H444 0.931 . S
C441 N438 1.313 . S
C441 N442 1.344 . S
C441 H445 0.930 . S
N442 C439 1.377 . S
N442 C441 1.344 . S
O443 Co435 2.055 . S
O443 C447 1.253 . S
H444 C440 0.931 . S
H445 C441 0.930 . S
O446 Co435 2.039 . S
O446 C436 1.265 . S
C447 O443 1.253 . S
C447 O448 1.227 . S
O448 C447 1.227 . S
N449 Co435 2.140 . S
N449 C452 1.346 . S
N449 C453 1.345 . S
C450 C451 1.387 . S
C450 C454 1.391 . S
C451 C450 1.387 . S
C451 C452 1.369 . S
C451 H460 0.929 . S
C452 N449 1.346 . S
C452 C451 1.369 . S
C452 H455 0.928 . S
C453 N449 1.345 . S
C453 C454 1.371 . S
C453 H456 0.931 . S
C454 C450 1.391 . S
C454 C453 1.371 . S
C454 H461 0.930 . S
H455 C452 0.928 . S
H456 C453 0.931 . S
H457 C433 0.930 . S
H458 C430 0.930 . S
H459 C439 0.930 . S
H460 C451 0.929 . S
H461 C454 0.930 . S
C462 C463 1.351 . S
C462 N465 1.368 . S
C462 H467 0.931 . S
C463 C462 1.351 . S
C463 N464 1.373 . S
C463 H491 0.930 . S
N464 C463 1.373 . S
N464 C466 1.340 . S
N465 C462 1.368 . S
N465 C466 1.321 . S
N465 Co468 2.135 . S
C466 N464 1.340 . S
C466 N465 1.321 . S
C466 H490 0.930 . S
H467 C462 0.931 . S
Co468 N465 2.135 . S
Co468 N471 2.121 . S
Co468 O476 2.055 . S
Co468 O479 2.039 . S
Co468 N482 2.140 . S
C469 O470 1.227 . S
C469 O479 1.265 . S
O470 C469 1.227 . S
N471 Co468 2.121 . S
N471 C473 1.375 . S
N471 C474 1.313 . S
C472 C473 1.338 . S
C472 N475 1.377 . S
C472 H492 0.930 . S
C473 N471 1.375 . S
C473 C472 1.338 . S
C473 H477 0.931 . S
C474 N471 1.313 . S
C474 N475 1.344 . S
C474 H478 0.930 . S
N475 C472 1.377 . S
N475 C474 1.344 . S
O476 Co468 2.055 . S
O476 C480 1.253 . S
H477 C473 0.931 . S
H478 C474 0.930 . S
O479 Co468 2.039 . S
O479 C469 1.265 . S
C480 O476 1.253 . S
C480 O481 1.227 . S
O481 C480 1.227 . S
N482 Co468 2.140 . S
N482 C485 1.346 . S
N482 C486 1.345 . S
C483 C484 1.387 . S
C483 C487 1.391 . S
C484 C483 1.387 . S
C484 C485 1.369 . S
C484 H493 0.929 . S
C485 N482 1.346 . S
C485 C484 1.369 . S
C485 H488 0.928 . S
C486 N482 1.345 . S
C486 C487 1.371 . S
C486 H489 0.931 . S
C487 C483 1.391 . S
C487 C486 1.371 . S
C487 H494 0.930 . S
H488 C485 0.928 . S
H489 C486 0.931 . S
H490 C466 0.930 . S
H491 C463 0.930 . S
H492 C472 0.930 . S
H493 C484 0.929 . S
H494 C487 0.930 . S
C495 C496 1.351 . S
C495 N498 1.368 . S
C495 H500 0.931 . S
C496 C495 1.351 . S
C496 N497 1.373 . S
C496 H524 0.930 . S
N497 C496 1.373 . S
N497 C499 1.340 . S
N498 C495 1.368 . S
N498 C499 1.321 . S
N498 Co501 2.135 . S
C499 N497 1.340 . S
C499 N498 1.321 . S
C499 H523 0.930 . S
H500 C495 0.931 . S
Co501 N498 2.135 . S
Co501 N504 2.121 . S
Co501 O509 2.055 . S
Co501 O512 2.039 . S
Co501 N515 2.140 . S
C502 O503 1.227 . S
C502 O512 1.265 . S
O503 C502 1.227 . S
N504 Co501 2.121 . S
N504 C506 1.375 . S
N504 C507 1.313 . S
C505 C506 1.338 . S
C505 N508 1.377 . S
C505 H525 0.930 . S
C506 N504 1.375 . S
C506 C505 1.338 . S
C506 H510 0.931 . S
C507 N504 1.313 . S
C507 N508 1.344 . S
C507 H511 0.930 . S
N508 C505 1.377 . S
N508 C507 1.344 . S
O509 Co501 2.055 . S
O509 C513 1.253 . S
H510 C506 0.931 . S
H511 C507 0.930 . S
O512 Co501 2.039 . S
O512 C502 1.265 . S
C513 O509 1.253 . S
C513 O514 1.227 . S
O514 C513 1.227 . S
N515 Co501 2.140 . S
N515 C518 1.346 . S
N515 C519 1.345 . S
C516 C517 1.387 . S
C516 C520 1.391 . S
C517 C516 1.387 . S
C517 C518 1.369 . S
C517 H526 0.929 . S
C518 N515 1.346 . S
C518 C517 1.369 . S
C518 H521 0.928 . S
C519 N515 1.345 . S
C519 C520 1.371 . S
C519 H522 0.931 . S
C520 C516 1.391 . S
C520 C519 1.371 . S
C520 H527 0.930 . S
H521 C518 0.928 . S
H522 C519 0.931 . S
H523 C499 0.930 . S
H524 C496 0.930 . S
H525 C505 0.930 . S
H526 C517 0.929 . S
H527 C520 0.930 . S
H528 C534 0.930 . S
H529 C537 0.930 . S
H530 C538 0.930 . S
H531 C539 0.930 . S
H532 C542 0.930 . S
H533 C543 0.930 . S
C534 H528 0.930 . S
C534 C535 1.355 . S
C534 C536 1.415 . S
C535 C534 1.355 . S
C535 C537 1.419 . S
C536 C534 1.415 . S
C536 C541 1.425 . S
C536 C543 1.409 . S
C537 H529 0.930 . S
C537 C535 1.419 . S
C537 C538 1.362 . S
C538 H530 0.930 . S
C538 C537 1.362 . S
C538 C541 1.409 . S
C539 H531 0.930 . S
C539 C540 1.355 . S
C539 C541 1.415 . S
C540 C539 1.355 . S
C540 C542 1.419 . S
C541 C536 1.425 . S
C541 C538 1.409 . S
C541 C539 1.415 . S
C542 H532 0.930 . S
C542 C540 1.419 . S
C542 C543 1.362 . S
C543 H533 0.930 . S
C543 C536 1.409 . S
C543 C542 1.362 . S
H544 C550 0.930 . S
H545 C553 0.930 . S
H546 C554 0.930 . S
H547 C555 0.930 . S
H548 C558 0.930 . S
H549 C559 0.930 . S
C550 H544 0.930 . S
C550 C551 1.355 . S
C550 C552 1.415 . S
C551 C550 1.355 . S
C551 C553 1.419 . S
C552 C550 1.415 . S
C552 C557 1.425 . S
C552 C559 1.409 . S
C553 H545 0.930 . S
C553 C551 1.419 . S
C553 C554 1.362 . S
C554 H546 0.930 . S
C554 C553 1.362 . S
C554 C557 1.409 . S
C555 H547 0.930 . S
C555 C556 1.355 . S
C555 C557 1.415 . S
C556 C555 1.355 . S
C556 C558 1.419 . S
C557 C552 1.425 . S
C557 C554 1.409 . S
C557 C555 1.415 . S
C558 H548 0.930 . S
C558 C556 1.419 . S
C558 C559 1.362 . S
C559 H549 0.930 . S
C559 C552 1.409 . S
C559 C558 1.362 . S
H560 C566 0.930 . S
H561 C569 0.930 . S
H562 C570 0.930 . S
H563 C571 0.930 . S
H564 C574 0.930 . S
H565 C575 0.930 . S
C566 H560 0.930 . S
C566 C567 1.355 . S
C566 C568 1.415 . S
C567 C566 1.355 . S
C567 C569 1.419 . S
C568 C566 1.415 . S
C568 C573 1.425 . S
C568 C575 1.409 . S
C569 H561 0.930 . S
C569 C567 1.419 . S
C569 C570 1.362 . S
C570 H562 0.930 . S
C570 C569 1.362 . S
C570 C573 1.409 . S
C571 H563 0.930 . S
C571 C572 1.355 . S
C571 C573 1.415 . S
C572 C571 1.355 . S
C572 C574 1.419 . S
C573 C568 1.425 . S
C573 C570 1.409 . S
C573 C571 1.415 . S
C574 H564 0.930 . S
C574 C572 1.419 . S
C574 C575 1.362 . S
C575 H565 0.930 . S
C575 C568 1.409 . S
C575 C574 1.362 . S
H576 C582 0.930 . S
H577 C585 0.930 . S
H578 C586 0.930 . S
H579 C587 0.930 . S
H580 C590 0.930 . S
H581 C591 0.930 . S
C582 H576 0.930 . S
C582 C583 1.355 . S
C582 C584 1.415 . S
C583 C582 1.355 . S
C583 C585 1.419 . S
C584 C582 1.415 . S
C584 C589 1.425 . S
C584 C591 1.409 . S
C585 H577 0.930 . S
C585 C583 1.419 . S
C585 C586 1.362 . S
C586 H578 0.930 . S
C586 C585 1.362 . S
C586 C589 1.409 . S
C587 H579 0.930 . S
C587 C588 1.355 . S
C587 C589 1.415 . S
C588 C587 1.355 . S
C588 C590 1.419 . S
C589 C584 1.425 . S
C589 C586 1.409 . S
C589 C587 1.415 . S
C590 H580 0.930 . S
C590 C588 1.419 . S
C590 C591 1.362 . S
C591 H581 0.930 . S
C591 C584 1.409 . S
C591 C590 1.362 . S
H592 C598 0.930 . S
H593 C601 0.930 . S
H594 C602 0.930 . S
H595 C603 0.930 . S
H596 C606 0.930 . S
H597 C607 0.930 . S
C598 H592 0.930 . S
C598 C599 1.355 . S
C598 C600 1.415 . S
C599 C598 1.355 . S
C599 C601 1.419 . S
C600 C598 1.415 . S
C600 C605 1.425 . S
C600 C607 1.409 . S
C601 H593 0.930 . S
C601 C599 1.419 . S
C601 C602 1.362 . S
C602 H594 0.930 . S
C602 C601 1.362 . S
C602 C605 1.409 . S
C603 H595 0.930 . S
C603 C604 1.355 . S
C603 C605 1.415 . S
C604 C603 1.355 . S
C604 C606 1.419 . S
C605 C600 1.425 . S
C605 C602 1.409 . S
C605 C603 1.415 . S
C606 H596 0.930 . S
C606 C604 1.419 . S
C606 C607 1.362 . S
C607 H597 0.930 . S
C607 C600 1.409 . S
C607 C606 1.362 . S
H608 C614 0.930 . S
H609 C617 0.930 . S
H610 C618 0.930 . S
H611 C619 0.930 . S
H612 C622 0.930 . S
H613 C623 0.930 . S
C614 H608 0.930 . S
C614 C615 1.355 . S
C614 C616 1.415 . S
C615 C614 1.355 . S
C615 C617 1.419 . S
C616 C614 1.415 . S
C616 C621 1.425 . S
C616 C623 1.409 . S
C617 H609 0.930 . S
C617 C615 1.419 . S
C617 C618 1.362 . S
C618 H610 0.930 . S
C618 C617 1.362 . S
C618 C621 1.409 . S
C619 H611 0.930 . S
C619 C620 1.355 . S
C619 C621 1.415 . S
C620 C619 1.355 . S
C620 C622 1.419 . S
C621 C616 1.425 . S
C621 C618 1.409 . S
C621 C619 1.415 . S
C622 H612 0.930 . S
C622 C620 1.419 . S
C622 C623 1.362 . S
C623 H613 0.930 . S
C623 C616 1.409 . S
C623 C622 1.362 . S
H624 C630 0.930 . S
H625 C633 0.930 . S
H626 C634 0.930 . S
H627 C635 0.930 . S
H628 C638 0.930 . S
H629 C639 0.930 . S
C630 H624 0.930 . S
C630 C631 1.355 . S
C630 C632 1.415 . S
C631 C630 1.355 . S
C631 C633 1.419 . S
C632 C630 1.415 . S
C632 C637 1.425 . S
C632 C639 1.409 . S
C633 H625 0.930 . S
C633 C631 1.419 . S
C633 C634 1.362 . S
C634 H626 0.930 . S
C634 C633 1.362 . S
C634 C637 1.409 . S
C635 H627 0.930 . S
C635 C636 1.355 . S
C635 C637 1.415 . S
C636 C635 1.355 . S
C636 C638 1.419 . S
C637 C632 1.425 . S
C637 C634 1.409 . S
C637 C635 1.415 . S
C638 H628 0.930 . S
C638 C636 1.419 . S
C638 C639 1.362 . S
C639 H629 0.930 . S
C639 C632 1.409 . S
C639 C638 1.362 . S
H640 C646 0.930 . S
H641 C649 0.930 . S
H642 C650 0.930 . S
H643 C651 0.930 . S
H644 C654 0.930 . S
H645 C655 0.930 . S
C646 H640 0.930 . S
C646 C647 1.355 . S
C646 C648 1.415 . S
C647 C646 1.355 . S
C647 C649 1.419 . S
C648 C646 1.415 . S
C648 C653 1.425 . S
C648 C655 1.409 . S
C649 H641 0.930 . S
C649 C647 1.419 . S
C649 C650 1.362 . S
C650 H642 0.930 . S
C650 C649 1.362 . S
C650 C653 1.409 . S
C651 H643 0.930 . S
C651 C652 1.355 . S
C651 C653 1.415 . S
C652 C651 1.355 . S
C652 C654 1.419 . S
C653 C648 1.425 . S
C653 C650 1.409 . S
C653 C651 1.415 . S
C654 H644 0.930 . S
C654 C652 1.419 . S
C654 C655 1.362 . S
C655 H645 0.930 . S
C655 C648 1.409 . S
C655 C654 1.362 . S
H656 C662 0.930 . S
H657 C665 0.930 . S
H658 C666 0.930 . S
H659 C667 0.930 . S
H660 C670 0.930 . S
H661 C671 0.930 1_655 S
C662 H656 0.930 . S
C662 C663 1.355 . S
C662 C664 1.415 . S
C663 C662 1.355 . S
C663 C665 1.419 . S
C664 C662 1.415 . S
C664 C669 1.425 1_554 S
C664 C671 1.409 1_554 S
C665 H657 0.930 . S
C665 C663 1.419 . S
C665 C666 1.362 . S
C666 H658 0.930 . S
C666 C665 1.362 . S
C666 C669 1.409 1_554 S
C667 H659 0.930 . S
C667 C668 1.355 . S
C667 C669 1.415 . S
C668 C667 1.355 . S
C668 C670 1.419 . S
C669 C664 1.425 1_556 S
C669 C666 1.409 1_556 S
C669 C667 1.415 . S
C670 H660 0.930 . S
C670 C668 1.419 . S
C670 C671 1.362 . S
C671 H661 0.930 1_455 S
C671 C664 1.409 1_556 S
C671 C670 1.362 . S
H672 C678 0.930 . S
H673 C681 0.930 . S
H674 C682 0.930 . S
H675 C683 0.930 . S
H676 C686 0.930 . S
H677 C687 0.930 . S
C678 H672 0.930 . S
C678 C679 1.355 . S
C678 C680 1.415 . S
C679 C678 1.355 . S
C679 C681 1.419 . S
C680 C678 1.415 . S
C680 C685 1.425 . S
C680 C687 1.409 . S
C681 H673 0.930 . S
C681 C679 1.419 . S
C681 C682 1.362 . S
C682 H674 0.930 . S
C682 C681 1.362 . S
C682 C685 1.409 . S
C683 H675 0.930 . S
C683 C684 1.355 . S
C683 C685 1.415 . S
C684 C683 1.355 . S
C684 C686 1.419 . S
C685 C680 1.425 . S
C685 C682 1.409 . S
C685 C683 1.415 . S
C686 H676 0.930 . S
C686 C684 1.419 . S
C686 C687 1.362 . S
C687 H677 0.930 . S
C687 C680 1.409 . S
C687 C686 1.362 . S
H688 C694 0.930 . S
H689 C697 0.930 . S
H690 C698 0.930 . S
H691 C699 0.930 . S
H692 C702 0.930 . S
H693 C703 0.930 . S
C694 H688 0.930 . S
C694 C695 1.355 . S
C694 C696 1.415 . S
C695 C694 1.355 . S
C695 C697 1.419 . S
C696 C694 1.415 . S
C696 C701 1.425 1_556 S
C696 C703 1.409 1_556 S
C697 H689 0.930 . S
C697 C695 1.419 . S
C697 C698 1.362 . S
C698 H690 0.930 . S
C698 C697 1.362 . S
C698 C701 1.409 1_556 S
C699 H691 0.930 . S
C699 C700 1.355 . S
C699 C701 1.415 . S
C700 C699 1.355 . S
C700 C702 1.419 . S
C701 C696 1.425 1_554 S
C701 C698 1.409 1_554 S
C701 C699 1.415 . S
C702 H692 0.930 . S
C702 C700 1.419 . S
C702 C703 1.362 . S
C703 H693 0.930 . S
C703 C696 1.409 1_554 S
C703 C702 1.362 . S
H704 C710 0.930 . S
H705 C713 0.930 . S
H706 C714 0.930 1_545 S
H707 C715 0.930 . S
H708 C718 0.930 . S
H709 C719 0.930 . S
C710 H704 0.930 . S
C710 C711 1.355 . S
C710 C712 1.415 . S
C711 C710 1.355 . S
C711 C713 1.419 . S
C712 C710 1.415 . S
C712 C717 1.425 . S
C712 C719 1.409 . S
C713 H705 0.930 . S
C713 C711 1.419 . S
C713 C714 1.362 . S
C714 H706 0.930 1_565 S
C714 C713 1.362 . S
C714 C717 1.409 . S
C715 H707 0.930 . S
C715 C716 1.355 . S
C715 C717 1.415 . S
C716 C715 1.355 . S
C716 C718 1.419 . S
C717 C712 1.425 . S
C717 C714 1.409 . S
C717 C715 1.415 . S
C718 H708 0.930 . S
C718 C716 1.419 . S
C718 C719 1.362 . S
C719 H709 0.930 . S
C719 C712 1.409 . S
C719 C718 1.362 . S
H720 C726 0.930 . S
H721 C729 0.930 . S
H722 C730 0.930 . S
H723 C731 0.930 . S
H724 C734 0.930 . S
H725 C735 0.930 . S
C726 H720 0.930 . S
C726 C727 1.355 . S
C726 C728 1.415 . S
C727 C726 1.355 . S
C727 C729 1.419 . S
C728 C726 1.415 . S
C728 C733 1.425 1_554 S
C728 C735 1.409 1_554 S
C729 H721 0.930 . S
C729 C727 1.419 . S
C729 C730 1.362 . S
C730 H722 0.930 . S
C730 C729 1.362 . S
C730 C733 1.409 1_554 S
C731 H723 0.930 . S
C731 C732 1.355 . S
C731 C733 1.415 . S
C732 C731 1.355 . S
C732 C734 1.419 . S
C733 C728 1.425 1_556 S
C733 C730 1.409 1_556 S
C733 C731 1.415 . S
C734 H724 0.930 . S
C734 C732 1.419 . S
C734 C735 1.362 . S
C735 H725 0.930 . S
C735 C728 1.409 1_556 S
C735 C734 1.362 . S
H736 C742 0.930 . S
H737 C745 0.930 . S
H738 C746 0.930 . S
H739 C747 0.930 . S
H740 C750 0.930 . S
H741 C751 0.930 . S
C742 H736 0.930 . S
C742 C743 1.355 . S
C742 C744 1.415 . S
C743 C742 1.355 . S
C743 C745 1.419 . S
C744 C742 1.415 . S
C744 C749 1.425 . S
C744 C751 1.409 . S
C745 H737 0.930 . S
C745 C743 1.419 . S
C745 C746 1.362 . S
C746 H738 0.930 . S
C746 C745 1.362 . S
C746 C749 1.409 . S
C747 H739 0.930 . S
C747 C748 1.355 . S
C747 C749 1.415 . S
C748 C747 1.355 . S
C748 C750 1.419 . S
C749 C744 1.425 . S
C749 C746 1.409 . S
C749 C747 1.415 . S
C750 H740 0.930 . S
C750 C748 1.419 . S
C750 C751 1.362 . S
C751 H741 0.930 . S
C751 C744 1.409 . S
C751 C750 1.362 . S
H752 C758 0.930 . S
H753 C761 0.930 . S
H754 C762 0.930 . S
H755 C763 0.930 . S
H756 C766 0.930 . S
H757 C767 0.930 . S
C758 H752 0.930 . S
C758 C759 1.355 . S
C758 C760 1.415 . S
C759 C758 1.355 . S
C759 C761 1.419 . S
C760 C758 1.415 . S
C760 C765 1.425 1_554 S
C760 C767 1.409 1_554 S
C761 H753 0.930 . S
C761 C759 1.419 . S
C761 C762 1.362 . S
C762 H754 0.930 . S
C762 C761 1.362 . S
C762 C765 1.409 1_554 S
C763 H755 0.930 . S
C763 C764 1.355 . S
C763 C765 1.415 . S
C764 C763 1.355 . S
C764 C766 1.419 . S
C765 C760 1.425 1_556 S
C765 C762 1.409 1_556 S
C765 C763 1.415 . S
C766 H756 0.930 . S
C766 C764 1.419 . S
C766 C767 1.362 . S
C767 H757 0.930 . S
C767 C760 1.409 1_556 S
C767 C766 1.362 . S
H768 C774 0.930 . S
H769 C777 0.930 . S
H770 C778 0.930 . S
H771 C779 0.930 . S
H772 C782 0.930 . S
H773 C783 0.930 . S
C774 H768 0.930 . S
C774 C775 1.355 . S
C774 C776 1.415 . S
C775 C774 1.355 . S
C775 C777 1.419 . S
C776 C774 1.415 . S
C776 C781 1.425 . S
C776 C783 1.409 . S
C777 H769 0.930 . S
C777 C775 1.419 . S
C777 C778 1.362 . S
C778 H770 0.930 . S
C778 C777 1.362 . S
C778 C781 1.409 . S
C779 H771 0.930 . S
C779 C780 1.355 . S
C779 C781 1.415 . S
C780 C779 1.355 . S
C780 C782 1.419 . S
C781 C776 1.425 . S
C781 C778 1.409 . S
C781 C779 1.415 . S
C782 H772 0.930 . S
C782 C780 1.419 . S
C782 C783 1.362 . S
C783 H773 0.930 . S
C783 C776 1.409 . S
C783 C782 1.362 . S
H784 C790 0.930 . S
H785 C793 0.930 . S
H786 C794 0.930 . S
H787 C795 0.930 . S
H788 C798 0.930 . S
H789 C799 0.930 . S
C790 H784 0.930 . S
C790 C791 1.355 . S
C790 C792 1.423 . S
C791 C790 1.355 . S
C791 C793 1.419 . S
C792 C790 1.423 . S
C792 C797 1.425 1_455 S
C792 C799 1.401 1_455 S
C793 H785 0.930 . S
C793 C791 1.419 . S
C793 C794 1.362 . S
C794 H786 0.930 . S
C794 C793 1.362 . S
C794 C797 1.401 1_455 S
C795 H787 0.930 . S
C795 C796 1.355 . S
C795 C797 1.423 . S
C796 C795 1.355 . S
C796 C798 1.419 . S
C797 C792 1.425 1_655 S
C797 C794 1.401 1_655 S
C797 C795 1.423 . S
C798 H788 0.930 . S
C798 C796 1.419 . S
C798 C799 1.362 . S
C799 H789 0.930 . S
C799 C792 1.401 1_655 S
C799 C798 1.362 . S
H800 C806 0.930 . S
H801 C809 0.930 . S
H802 C810 0.930 . S
H803 C811 0.930 . S
H804 C814 0.930 . S
H805 C815 0.930 . S
C806 H800 0.930 . S
C806 C807 1.355 . S
C806 C808 1.415 . S
C807 C806 1.355 . S
C807 C809 1.419 . S
C808 C806 1.415 . S
C808 C813 1.425 1_565 S
C808 C815 1.409 1_565 S
C809 H801 0.930 . S
C809 C807 1.419 . S
C809 C810 1.362 . S
C810 H802 0.930 . S
C810 C809 1.362 . S
C810 C813 1.409 1_565 S
C811 H803 0.930 . S
C811 C812 1.355 . S
C811 C813 1.415 . S
C812 C811 1.355 . S
C812 C814 1.419 . S
C813 C808 1.425 1_545 S
C813 C810 1.409 1_545 S
C813 C811 1.415 . S
C814 H804 0.930 . S
C814 C812 1.419 . S
C814 C815 1.362 . S
C815 H805 0.930 . S
C815 C808 1.409 1_545 S
C815 C814 1.362 . S
H816 C822 0.930 . S
H817 C825 0.930 1_545 S
H818 C826 0.930 . S
H819 C827 0.930 . S
H820 C830 0.930 1_565 S
H821 C831 0.930 . S
C822 H816 0.930 . S
C822 C823 1.355 . S
C822 C824 1.415 . S
C823 C822 1.355 . S
C823 C825 1.419 . S
C824 C822 1.415 . S
C824 C829 1.425 1_565 S
C824 C831 1.409 . S
C825 H817 0.930 1_565 S
C825 C823 1.419 . S
C825 C826 1.362 1_565 S
C826 H818 0.930 . S
C826 C825 1.362 1_545 S
C826 C829 1.409 . S
C827 H819 0.930 . S
C827 C828 1.355 . S
C827 C829 1.415 . S
C828 C827 1.355 . S
C828 C830 1.419 . S
C829 C824 1.425 1_545 S
C829 C826 1.409 . S
C829 C827 1.415 . S
C830 H820 0.930 1_545 S
C830 C828 1.419 . S
C830 C831 1.362 1_545 S
C831 H821 0.930 . S
C831 C824 1.409 . S
C831 C830 1.362 1_565 S
H832 C838 0.930 1_655 S
H833 C841 0.930 . S
H834 C842 0.930 . S
H835 C843 0.930 1_455 S
H836 C846 0.930 . S
H837 C847 0.930 . S
C838 H832 0.930 1_455 S
C838 C839 1.355 . S
C838 C840 1.415 1_455 S
C839 C838 1.355 . S
C839 C841 1.419 . S
C840 C838 1.415 1_655 S
C840 C845 1.425 1_655 S
C840 C847 1.409 . S
C841 H833 0.930 . S
C841 C839 1.419 . S
C841 C842 1.362 . S
C842 H834 0.930 . S
C842 C841 1.362 . S
C842 C845 1.409 . S
C843 H835 0.930 1_655 S
C843 C844 1.355 . S
C843 C845 1.415 1_655 S
C844 C843 1.355 . S
C844 C846 1.419 . S
C845 C840 1.425 1_455 S
C845 C842 1.409 . S
C845 C843 1.415 1_455 S
C846 H836 0.930 . S
C846 C844 1.419 . S
C846 C847 1.362 . S
C847 H837 0.930 . S
C847 C840 1.409 . S
C847 C846 1.362 . S
H848 C854 0.930 . S
H849 C857 0.930 . S
H850 C858 0.930 . S
H851 C859 0.930 . S
H852 C862 0.930 . S
H853 C863 0.930 . S
C854 H848 0.930 . S
C854 C855 1.355 . S
C854 C856 1.415 . S
C855 C854 1.355 . S
C855 C857 1.419 . S
C856 C854 1.415 . S
C856 C861 1.425 1_655 S
C856 C863 1.409 . S
C857 H849 0.930 . S
C857 C855 1.419 . S
C857 C858 1.362 1_655 S
C858 H850 0.930 . S
C858 C857 1.362 1_455 S
C858 C861 1.409 . S
C859 H851 0.930 . S
C859 C860 1.355 . S
C859 C861 1.415 . S
C860 C859 1.355 . S
C860 C862 1.419 . S
C861 C856 1.425 1_455 S
C861 C858 1.409 . S
C861 C859 1.415 . S
C862 H852 0.930 . S
C862 C860 1.419 . S
C862 C863 1.362 1_455 S
C863 H853 0.930 . S
C863 C856 1.409 . S
C863 C862 1.362 1_655 S
H864 C870 0.930 . S
H865 C873 0.930 . S
H866 C874 0.930 . S
H867 C875 0.930 . S
H868 C878 0.930 . S
H869 C879 0.930 . S
C870 H864 0.930 . S
C870 C871 1.355 . S
C870 C872 1.415 . S
C871 C870 1.355 . S
C871 C873 1.419 . S
C872 C870 1.415 . S
C872 C877 1.425 1_545 S
C872 C879 1.409 1_545 S
C873 H865 0.930 . S
C873 C871 1.419 . S
C873 C874 1.362 . S
C874 H866 0.930 . S
C874 C873 1.362 . S
C874 C877 1.409 1_545 S
C875 H867 0.930 . S
C875 C876 1.355 . S
C875 C877 1.415 . S
C876 C875 1.355 . S
C876 C878 1.419 . S
C877 C872 1.425 1_565 S
C877 C874 1.409 1_565 S
C877 C875 1.415 . S
C878 H868 0.930 . S
C878 C876 1.419 . S
C878 C879 1.362 . S
C879 H869 0.930 . S
C879 C872 1.409 1_565 S
C879 C878 1.362 . S
H880 C886 0.930 1_545 S
H881 C889 0.930 . S
H882 C890 0.930 . S
H883 C891 0.930 1_565 S
H884 C894 0.930 . S
H885 C895 0.930 . S
C886 H880 0.930 1_565 S
C886 C887 1.355 . S
C886 C888 1.415 1_565 S
C887 C886 1.355 . S
C887 C889 1.419 . S
C888 C886 1.415 1_545 S
C888 C893 1.425 1_545 S
C888 C895 1.409 . S
C889 H881 0.930 . S
C889 C887 1.419 . S
C889 C890 1.362 . S
C890 H882 0.930 . S
C890 C889 1.362 . S
C890 C893 1.409 . S
C891 H883 0.930 1_545 S
C891 C892 1.355 . S
C891 C893 1.415 1_545 S
C892 C891 1.355 . S
C892 C894 1.419 . S
C893 C888 1.425 1_565 S
C893 C890 1.409 . S
C893 C891 1.415 1_565 S
C894 H884 0.930 . S
C894 C892 1.419 . S
C894 C895 1.362 . S
C895 H885 0.930 . S
C895 C888 1.409 . S
C895 C894 1.362 . S
H896 C902 0.930 . S
H897 C905 0.930 . S
H898 C906 0.930 . S
H899 C907 0.930 . S
H900 C910 0.930 . S
H901 C911 0.930 . S
C902 H896 0.930 . S
C902 C903 1.355 . S
C902 C904 1.415 . S
C903 C902 1.355 . S
C903 C905 1.419 . S
C904 C902 1.415 . S
C904 C909 1.425 1_455 S
C904 C911 1.409 . S
C905 H897 0.930 . S
C905 C903 1.419 . S
C905 C906 1.362 1_455 S
C906 H898 0.930 . S
C906 C905 1.362 1_655 S
C906 C909 1.409 . S
C907 H899 0.930 . S
C907 C908 1.355 . S
C907 C909 1.415 . S
C908 C907 1.355 . S
C908 C910 1.419 . S
C909 C904 1.425 1_655 S
C909 C906 1.409 . S
C909 C907 1.415 . S
C910 H900 0.930 . S
C910 C908 1.419 . S
C910 C911 1.362 1_655 S
C911 H901 0.930 . S
C911 C904 1.409 . S
C911 C910 1.362 1_455 S
H912 C918 0.930 . S
H913 C921 0.930 . S
H914 C922 0.930 . S
H915 C923 0.930 . S
H916 C926 0.930 . S
H917 C927 0.930 . S
C918 H912 0.930 . S
C918 C919 1.355 . S
C918 C920 1.415 . S
C919 C918 1.355 . S
C919 C921 1.419 . S
C920 C918 1.415 . S
C920 C925 1.425 . S
C920 C927 1.409 . S
C921 H913 0.930 . S
C921 C919 1.419 . S
C921 C922 1.362 . S
C922 H914 0.930 . S
C922 C921 1.362 . S
C922 C925 1.409 . S
C923 H915 0.930 . S
C923 C924 1.355 . S
C923 C925 1.415 . S
C924 C923 1.355 . S
C924 C926 1.419 . S
C925 C920 1.425 . S
C925 C922 1.409 . S
C925 C923 1.415 . S
C926 H916 0.930 . S
C926 C924 1.419 . S
C926 C927 1.362 . S
C927 H917 0.930 . S
C927 C920 1.409 . S
C927 C926 1.362 . S
H928 C934 0.930 . S
H929 C937 0.930 . S
H930 C938 0.930 . S
H931 C939 0.930 . S
H932 C942 0.930 . S
H933 C943 0.930 . S
C934 H928 0.930 . S
C934 C935 1.355 . S
C934 C936 1.415 . S
C935 C934 1.355 . S
C935 C937 1.419 . S
C936 C934 1.415 . S
C936 C941 1.425 . S
C936 C943 1.409 . S
C937 H929 0.930 . S
C937 C935 1.419 . S
C937 C938 1.362 . S
C938 H930 0.930 . S
C938 C937 1.362 . S
C938 C941 1.409 . S
C939 H931 0.930 . S
C939 C940 1.355 . S
C939 C941 1.415 . S
C940 C939 1.355 . S
C940 C942 1.419 . S
C941 C936 1.425 . S
C941 C938 1.409 . S
C941 C939 1.415 . S
C942 H932 0.930 . S
C942 C940 1.419 . S
C942 C943 1.362 . S
C943 H933 0.930 . S
C943 C936 1.409 . S
C943 C942 1.362 . S
H944 C950 0.930 . S
H945 C953 0.930 . S
H946 C954 0.930 . S
H947 C955 0.930 . S
H948 C958 0.930 . S
H949 C959 0.930 . S
C950 H944 0.930 . S
C950 C951 1.355 . S
C950 C952 1.415 . S
C951 C950 1.355 . S
C951 C953 1.419 . S
C952 C950 1.415 . S
C952 C957 1.425 . S
C952 C959 1.409 . S
C953 H945 0.930 . S
C953 C951 1.419 . S
C953 C954 1.362 . S
C954 H946 0.930 . S
C954 C953 1.362 . S
C954 C957 1.409 . S
C955 H947 0.930 . S
C955 C956 1.355 . S
C955 C957 1.415 . S
C956 C955 1.355 . S
C956 C958 1.419 . S
C957 C952 1.425 . S
C957 C954 1.409 . S
C957 C955 1.415 . S
C958 H948 0.930 . S
C958 C956 1.419 . S
C958 C959 1.362 . S
C959 H949 0.930 . S
C959 C952 1.409 . S
C959 C958 1.362 . S
H960 C966 0.930 . S
H961 C969 0.930 . S
H962 C970 0.930 . S
H963 C971 0.930 . S
H964 C974 0.930 . S
H965 C975 0.930 . S
C966 H960 0.930 . S
C966 C967 1.355 . S
C966 C968 1.415 . S
C967 C966 1.355 . S
C967 C969 1.419 . S
C968 C966 1.415 . S
C968 C973 1.425 . S
C968 C975 1.409 . S
C969 H961 0.930 . S
C969 C967 1.419 . S
C969 C970 1.362 . S
C970 H962 0.930 . S
C970 C969 1.362 . S
C970 C973 1.409 . S
C971 H963 0.930 . S
C971 C972 1.355 . S
C971 C973 1.415 . S
C972 C971 1.355 . S
C972 C974 1.419 . S
C973 C968 1.425 . S
C973 C970 1.409 . S
C973 C971 1.415 . S
C974 H964 0.930 . S
C974 C972 1.419 . S
C974 C975 1.362 . S
C975 H965 0.930 . S
C975 C968 1.409 . S
C975 C974 1.362 . S
H976 C982 0.930 . S
H977 C985 0.930 . S
H978 C986 0.930 . S
H979 C987 0.930 . S
H980 C990 0.930 . S
H981 C991 0.930 . S
C982 H976 0.930 . S
C982 C983 1.355 . S
C982 C984 1.415 . S
C983 C982 1.355 . S
C983 C985 1.419 . S
C984 C982 1.415 . S
C984 C989 1.425 . S
C984 C991 1.409 . S
C985 H977 0.930 . S
C985 C983 1.419 . S
C985 C986 1.362 . S
C986 H978 0.930 . S
C986 C985 1.362 . S
C986 C989 1.409 . S
C987 H979 0.930 . S
C987 C988 1.355 . S
C987 C989 1.415 . S
C988 C987 1.355 . S
C988 C990 1.419 . S
C989 C984 1.425 . S
C989 C986 1.409 . S
C989 C987 1.415 . S
C990 H980 0.930 . S
C990 C988 1.419 . S
C990 C991 1.362 . S
C991 H981 0.930 . S
C991 C984 1.409 . S
C991 C990 1.362 . S
H992 C998 0.930 . S
H993 C1001 0.930 . S
H994 C1002 0.930 . S
H995 C1003 0.930 . S
H996 C1006 0.930 . S
H997 C1007 0.930 . S
C998 H992 0.930 . S
C998 C999 1.355 . S
C998 C1000 1.415 . S
C999 C998 1.355 . S
C999 C1001 1.419 . S
C1000 C998 1.415 . S
C1000 C1005 1.425 . S
C1000 C1007 1.409 . S
C1001 H993 0.930 . S
C1001 C999 1.419 . S
C1001 C1002 1.362 . S
C1002 H994 0.930 . S
C1002 C1001 1.362 . S
C1002 C1005 1.409 . S
C1003 H995 0.930 . S
C1003 C1004 1.355 . S
C1003 C1005 1.415 . S
C1004 C1003 1.355 . S
C1004 C1006 1.419 . S
C1005 C1000 1.425 . S
C1005 C1002 1.409 . S
C1005 C1003 1.415 . S
C1006 H996 0.930 . S
C1006 C1004 1.419 . S
C1006 C1007 1.362 . S
C1007 H997 0.930 . S
C1007 C1000 1.409 . S
C1007 C1006 1.362 . S
H1008 C1014 0.930 . S
H1009 C1017 0.930 . S
H1010 C1018 0.930 . S
H1011 C1019 0.930 . S
H1012 C1022 0.930 . S
H1013 C1023 0.930 . S
C1014 H1008 0.930 . S
C1014 C1015 1.355 . S
C1014 C1016 1.415 . S
C1015 C1014 1.355 . S
C1015 C1017 1.419 . S
C1016 C1014 1.415 . S
C1016 C1021 1.425 . S
C1016 C1023 1.409 . S
C1017 H1009 0.930 . S
C1017 C1015 1.419 . S
C1017 C1018 1.362 . S
C1018 H1010 0.930 . S
C1018 C1017 1.362 . S
C1018 C1021 1.409 . S
C1019 H1011 0.930 . S
C1019 C1020 1.355 . S
C1019 C1021 1.415 . S
C1020 C1019 1.355 . S
C1020 C1022 1.419 . S
C1021 C1016 1.425 . S
C1021 C1018 1.409 . S
C1021 C1019 1.415 . S
C1022 H1012 0.930 . S
C1022 C1020 1.419 . S
C1022 C1023 1.362 . S
C1023 H1013 0.930 . S
C1023 C1016 1.409 . S
C1023 C1022 1.362 . S
H1024 C1030 0.930 . S
H1025 C1033 0.930 . S
H1026 C1034 0.930 . S
H1027 C1035 0.930 . S
H1028 C1038 0.930 . S
H1029 C1039 0.930 . S
C1030 H1024 0.930 . S
C1030 C1031 1.355 . S
C1030 C1032 1.415 . S
C1031 C1030 1.355 . S
C1031 C1033 1.419 . S
C1032 C1030 1.415 . S
C1032 C1037 1.425 . S
C1032 C1039 1.409 . S
C1033 H1025 0.930 . S
C1033 C1031 1.419 . S
C1033 C1034 1.362 . S
C1034 H1026 0.930 . S
C1034 C1033 1.362 . S
C1034 C1037 1.409 . S
C1035 H1027 0.930 . S
C1035 C1036 1.355 . S
C1035 C1037 1.415 . S
C1036 C1035 1.355 . S
C1036 C1038 1.419 . S
C1037 C1032 1.425 . S
C1037 C1034 1.409 . S
C1037 C1035 1.415 . S
C1038 H1028 0.930 . S
C1038 C1036 1.419 . S
C1038 C1039 1.362 . S
C1039 H1029 0.930 . S
C1039 C1032 1.409 . S
C1039 C1038 1.362 . S
H1040 C1046 0.930 . S
H1041 C1049 0.930 . S
H1042 C1050 0.930 . S
H1043 C1051 0.930 . S
H1044 C1054 0.930 . S
H1045 C1055 0.930 . S
C1046 H1040 0.930 . S
C1046 C1047 1.355 . S
C1046 C1048 1.415 . S
C1047 C1046 1.355 . S
C1047 C1049 1.419 . S
C1048 C1046 1.415 . S
C1048 C1053 1.425 . S
C1048 C1055 1.409 . S
C1049 H1041 0.930 . S
C1049 C1047 1.419 . S
C1049 C1050 1.362 . S
C1050 H1042 0.930 . S
C1050 C1049 1.362 . S
C1050 C1053 1.409 . S
C1051 H1043 0.930 . S
C1051 C1052 1.355 . S
C1051 C1053 1.415 . S
C1052 C1051 1.355 . S
C1052 C1054 1.419 . S
C1053 C1048 1.425 . S
C1053 C1050 1.409 . S
C1053 C1051 1.415 . S
C1054 H1044 0.930 . S
C1054 C1052 1.419 . S
C1054 C1055 1.362 . S
C1055 H1045 0.930 . S
C1055 C1048 1.409 . S
C1055 C1054 1.362 . S
H1056 C1062 0.930 . S
H1057 C1065 0.930 . S
H1058 C1066 0.930 . S
H1059 C1067 0.930 . S
H1060 C1070 0.930 . S
H1061 C1071 0.930 . S
C1062 H1056 0.930 . S
C1062 C1063 1.355 . S
C1062 C1064 1.415 . S
C1063 C1062 1.355 . S
C1063 C1065 1.419 . S
C1064 C1062 1.415 . S
C1064 C1069 1.425 . S
C1064 C1071 1.409 . S
C1065 H1057 0.930 . S
C1065 C1063 1.419 . S
C1065 C1066 1.362 . S
C1066 H1058 0.930 . S
C1066 C1065 1.362 . S
C1066 C1069 1.409 . S
C1067 H1059 0.930 . S
C1067 C1068 1.355 . S
C1067 C1069 1.415 . S
C1068 C1067 1.355 . S
C1068 C1070 1.419 . S
C1069 C1064 1.425 . S
C1069 C1066 1.409 . S
C1069 C1067 1.415 . S
C1070 H1060 0.930 . S
C1070 C1068 1.419 . S
C1070 C1071 1.362 . S
C1071 H1061 0.930 . S
C1071 C1064 1.409 . S
C1071 C1070 1.362 . S
H1072 C1078 0.930 . S
H1073 C1081 0.930 . S
H1074 C1082 0.930 . S
H1075 C1083 0.930 . S
H1076 C1086 0.930 . S
H1077 C1087 0.930 . S
C1078 H1072 0.930 . S
C1078 C1079 1.355 . S
C1078 C1080 1.415 . S
C1079 C1078 1.355 . S
C1079 C1081 1.419 . S
C1080 C1078 1.415 . S
C1080 C1085 1.425 . S
C1080 C1087 1.409 . S
C1081 H1073 0.930 . S
C1081 C1079 1.419 . S
C1081 C1082 1.362 . S
C1082 H1074 0.930 . S
C1082 C1081 1.362 . S
C1082 C1085 1.409 . S
C1083 H1075 0.930 . S
C1083 C1084 1.355 . S
C1083 C1085 1.415 . S
C1084 C1083 1.355 . S
C1084 C1086 1.419 . S
C1085 C1080 1.425 . S
C1085 C1082 1.409 . S
C1085 C1083 1.415 . S
C1086 H1076 0.930 . S
C1086 C1084 1.419 . S
C1086 C1087 1.362 . S
C1087 H1077 0.930 . S
C1087 C1080 1.409 . S
C1087 C1086 1.362 . S
H1088 C1094 0.930 . S
H1089 C1097 0.930 . S
H1090 C1098 0.930 . S
H1091 C1099 0.930 . S
H1092 C1102 0.930 . S
H1093 C1103 0.930 . S
C1094 H1088 0.930 . S
C1094 C1095 1.355 . S
C1094 C1096 1.415 . S
C1095 C1094 1.355 . S
C1095 C1097 1.419 . S
C1096 C1094 1.415 . S
C1096 C1101 1.425 . S
C1096 C1103 1.409 . S
C1097 H1089 0.930 . S
C1097 C1095 1.419 . S
C1097 C1098 1.362 . S
C1098 H1090 0.930 . S
C1098 C1097 1.362 . S
C1098 C1101 1.409 . S
C1099 H1091 0.930 . S
C1099 C1100 1.355 . S
C1099 C1101 1.415 . S
C1100 C1099 1.355 . S
C1100 C1102 1.419 . S
C1101 C1096 1.425 . S
C1101 C1098 1.409 . S
C1101 C1099 1.415 . S
C1102 H1092 0.930 . S
C1102 C1100 1.419 . S
C1102 C1103 1.362 . S
C1103 H1093 0.930 . S
C1103 C1096 1.409 . S
C1103 C1102 1.362 . S
H1104 C1110 0.930 . S
H1105 C1113 0.930 . S
H1106 C1114 0.930 . S
H1107 C1115 0.930 . S
H1108 C1118 0.930 . S
H1109 C1119 0.930 . S
C1110 H1104 0.930 . S
C1110 C1111 1.355 . S
C1110 C1112 1.415 . S
C1111 C1110 1.355 . S
C1111 C1113 1.419 . S
C1112 C1110 1.415 . S
C1112 C1117 1.425 . S
C1112 C1119 1.409 . S
C1113 H1105 0.930 . S
C1113 C1111 1.419 . S
C1113 C1114 1.362 . S
C1114 H1106 0.930 . S
C1114 C1113 1.362 . S
C1114 C1117 1.409 . S
C1115 H1107 0.930 . S
C1115 C1116 1.355 . S
C1115 C1117 1.415 . S
C1116 C1115 1.355 . S
C1116 C1118 1.419 . S
C1117 C1112 1.425 . S
C1117 C1114 1.409 . S
C1117 C1115 1.415 . S
C1118 H1108 0.930 . S
C1118 C1116 1.419 . S
C1118 C1119 1.362 . S
C1119 H1109 0.930 . S
C1119 C1112 1.409 . S
C1119 C1118 1.362 . S
H1120 C1126 0.930 . S
H1121 C1129 0.930 . S
H1122 C1130 0.930 . S
H1123 C1131 0.930 . S
H1124 C1134 0.930 . S
H1125 C1135 0.930 . S
C1126 H1120 0.930 . S
C1126 C1127 1.355 . S
C1126 C1128 1.415 . S
C1127 C1126 1.355 . S
C1127 C1129 1.419 . S
C1128 C1126 1.415 . S
C1128 C1133 1.425 . S
C1128 C1135 1.409 . S
C1129 H1121 0.930 . S
C1129 C1127 1.419 . S
C1129 C1130 1.362 . S
C1130 H1122 0.930 . S
C1130 C1129 1.362 . S
C1130 C1133 1.409 . S
C1131 H1123 0.930 . S
C1131 C1132 1.355 . S
C1131 C1133 1.415 . S
C1132 C1131 1.355 . S
C1132 C1134 1.419 . S
C1133 C1128 1.425 . S
C1133 C1130 1.409 . S
C1133 C1131 1.415 . S
C1134 H1124 0.930 . S
C1134 C1132 1.419 . S
C1134 C1135 1.362 . S
C1135 H1125 0.930 . S
C1135 C1128 1.409 . S
C1135 C1134 1.362 . S
H1136 C1142 0.930 . S
H1137 C1145 0.930 . S
H1138 C1146 0.930 . S
H1139 C1147 0.930 . S
H1140 C1150 0.930 . S
H1141 C1151 0.930 . S
C1142 H1136 0.930 . S
C1142 C1143 1.355 . S
C1142 C1144 1.415 . S
C1143 C1142 1.355 . S
C1143 C1145 1.419 . S
C1144 C1142 1.415 . S
C1144 C1149 1.425 . S
C1144 C1151 1.409 . S
C1145 H1137 0.930 . S
C1145 C1143 1.419 . S
C1145 C1146 1.362 . S
C1146 H1138 0.930 . S
C1146 C1145 1.362 . S
C1146 C1149 1.409 . S
C1147 H1139 0.930 . S
C1147 C1148 1.355 . S
C1147 C1149 1.415 . S
C1148 C1147 1.355 . S
C1148 C1150 1.419 . S
C1149 C1144 1.425 . S
C1149 C1146 1.409 . S
C1149 C1147 1.415 . S
C1150 H1140 0.930 . S
C1150 C1148 1.419 . S
C1150 C1151 1.362 . S
C1151 H1141 0.930 . S
C1151 C1144 1.409 . S
C1151 C1150 1.362 . S
H1152 C1158 0.930 . S
H1153 C1161 0.930 . S
H1154 C1162 0.930 . S
H1155 C1163 0.930 . S
H1156 C1166 0.930 . S
H1157 C1167 0.930 . S
C1158 H1152 0.930 . S
C1158 C1159 1.355 . S
C1158 C1160 1.415 . S
C1159 C1158 1.355 . S
C1159 C1161 1.419 . S
C1160 C1158 1.415 . S
C1160 C1165 1.425 . S
C1160 C1167 1.409 . S
C1161 H1153 0.930 . S
C1161 C1159 1.419 . S
C1161 C1162 1.362 . S
C1162 H1154 0.930 . S
C1162 C1161 1.362 . S
C1162 C1165 1.409 . S
C1163 H1155 0.930 . S
C1163 C1164 1.355 . S
C1163 C1165 1.415 . S
C1164 C1163 1.355 . S
C1164 C1166 1.419 . S
C1165 C1160 1.425 . S
C1165 C1162 1.409 . S
C1165 C1163 1.415 . S
C1166 H1156 0.930 . S
C1166 C1164 1.419 . S
C1166 C1167 1.362 . S
C1167 H1157 0.930 . S
C1167 C1160 1.409 . S
C1167 C1166 1.362 . S
C535 N13 1.776 . S
C540 N244 1.807 . S
C551 N145 1.800 . S
C556 N46 1.770 . S
C567 N178 1.783 . S
C572 N79 1.803 . S
C583 N211 1.806 . S
C588 N112 1.769 . S
C599 N277 1.795 . S
C604 N508 1.792 . S
C615 N310 1.787 . S
C620 N409 1.800 . S
C631 N442 1.776 . S
C636 N343 1.807 . S
C647 N376 1.777 . S
C652 N475 1.790 . S
C663 N2 1.518 . S
C668 N332 1.565 . S
C679 N365 1.563 . S
C684 N35 1.521 . S
C695 N266 1.556 . S
C700 N68 1.528 . S
C711 N299 1.577 . S
C716 N101 1.506 . S
C727 N464 1.572 . S
C732 N134 1.512 . S
C743 N497 1.572 . S
C748 N167 1.511 . S
C759 N398 1.507 . S
C764 N200 1.576 . S
C775 N431 1.520 . S
C780 N233 1.563 . S
C791 C21 0.594 . S
C796 C87 0.575 . S
C807 C120 0.588 . S
C812 C54 0.607 . S
C823 C219 0.671 . S
C828 C153 0.675 . S
C839 C252 0.413 . S
C844 C186 0.413 . S
C855 C285 0.432 . S
C860 C351 0.421 . S
C871 C384 0.569 . S
C876 C318 0.589 . S
C887 C417 0.413 . S
C892 C483 0.414 . S
C903 C450 0.637 . S
C908 C516 0.622 . S
C919 C469 1.642 . S
C924 C18 1.778 . S
C935 C51 1.800 . S
C940 C502 1.655 . S
C951 C403 1.614 . S
C956 C84 1.768 . S
C967 C436 1.660 . S
C972 C117 1.788 . S
C983 C337 1.675 1_655 S
C988 C150 1.812 . S
C999 C183 1.820 . S
C1004 C370 1.708 1_565 S
C1015 C271 1.673 1_455 S
C1020 C216 1.795 . S
C1031 C249 1.820 . S
C1036 C304 1.709 1_545 S
C1047 C205 1.625 . S
C1052 C282 1.779 . S
C1063 C238 1.710 . S
C1068 C315 1.828 . S
C1079 C139 1.622 . S
C1084 C348 1.777 . S
C1095 C381 1.785 . S
C1100 C172 1.633 . S
C1111 C73 1.615 1_455 S
C1116 C414 1.767 . S
C1127 C447 1.809 . S
C1132 C106 1.694 1_545 S
C1143 C480 1.823 . S
C1148 C7 1.696 1_655 S
C1159 C40 1.674 1_565 S
C1164 C513 1.796 . S
