# Generated by pormake.
# Topology irl, (4)-cn, num edge types: 1
# Building blocks:
#     Node 0, Type 0, BuildingBlock: CEKHIL_clean_sbu_0, # of connection points: 4
#     Node 1, Type 0, BuildingBlock: CEKHIL_clean_sbu_0, # of connection points: 4
#     Node 2, Type 0, BuildingBlock: CEKHIL_clean_sbu_0, # of connection points: 4
#     Node 3, Type 0, BuildingBlock: CEKHIL_clean_sbu_0, # of connection points: 4
#     Node 4, Type 0, BuildingBlock: CEKHIL_clean_sbu_0, # of connection points: 4
#     Node 5, Type 0, BuildingBlock: CEKHIL_clean_sbu_0, # of connection points: 4
#     Node 6, Type 0, BuildingBlock: CEKHIL_clean_sbu_0, # of connection points: 4
#     Node 7, Type 0, BuildingBlock: CEKHIL_clean_sbu_0, # of connection points: 4
#     Edge 8, Type (0, 0), BuildingBlock: XIVTED_clean_linker_0, # of connection points: 2
#     Edge 9, Type (0, 0), BuildingBlock: XIVTED_clean_linker_0, # of connection points: 2
#     Edge 10, Type (0, 0), BuildingBlock: XIVTED_clean_linker_0, # of connection points: 2
#     Edge 11, Type (0, 0), BuildingBlock: XIVTED_clean_linker_0, # of connection points: 2
#     Edge 12, Type (0, 0), BuildingBlock: XIVTED_clean_linker_0, # of connection points: 2
#     Edge 13, Type (0, 0), BuildingBlock: XIVTED_clean_linker_0, # of connection points: 2
#     Edge 14, Type (0, 0), BuildingBlock: XIVTED_clean_linker_0, # of connection points: 2
#     Edge 15, Type (0, 0), BuildingBlock: XIVTED_clean_linker_0, # of connection points: 2
#     Edge 16, Type (0, 0), BuildingBlock: XIVTED_clean_linker_0, # of connection points: 2
#     Edge 17, Type (0, 0), BuildingBlock: XIVTED_clean_linker_0, # of connection points: 2
#     Edge 18, Type (0, 0), BuildingBlock: XIVTED_clean_linker_0, # of connection points: 2
#     Edge 19, Type (0, 0), BuildingBlock: XIVTED_clean_linker_0, # of connection points: 2
#     Edge 20, Type (0, 0), BuildingBlock: XIVTED_clean_linker_0, # of connection points: 2
#     Edge 21, Type (0, 0), BuildingBlock: XIVTED_clean_linker_0, # of connection points: 2
#     Edge 22, Type (0, 0), BuildingBlock: XIVTED_clean_linker_0, # of connection points: 2
#     Edge 23, Type (0, 0), BuildingBlock: XIVTED_clean_linker_0, # of connection points: 2
# Relax obj value: 0.065
# Max RMSD: 0.129
# Mean RMSD: 0.129
data_MOF--net-irl--node1-CEKHIL_clean_sbu_0--edge1-XIVTED_clean_linker_0
_symmetry_space_group_name_H-M    P1
_symmetry_Int_Tables_number       1
_symmetry_cell_setting            triclinic
loop_
_symmetry_equiv_pos_as_xyz
'x, y, z'
_cell_length_a     32.797452
_cell_length_b     45.884304
_cell_length_c     27.875286
_cell_angle_alpha  90.006146
_cell_angle_beta   89.997246
_cell_angle_gamma 89.985545
loop_
_atom_site_label
_atom_site_type_symbol
_atom_site_fract_x
_atom_site_fract_y
_atom_site_fract_z
_atom_type_partial_charge
Co0 Co 0.06618 0.16773 0.00189 0.0
O1 O 0.09424 0.2042 -0.00189 0.0
O2 O 0.11941 0.16453 0.03232 0.0
C3 C 0.04571 0.16652 0.92519 0.0
O4 O 0.04459 0.12608 0.0105 0.0
Co5 Co 0.97255 0.16923 0.98823 0.0
O6 O 0.97857 0.12626 0.98802 0.0
C7 C 0.00724 0.18989 0.07865 0.0
C8 C 0.1239 0.19195 0.02114 0.0
C9 C 0.01064 0.11283 0.00149 0.0
O10 O 0.04191 0.1802 0.06456 0.0
O11 O 0.9754 0.18964 0.05209 0.0
O12 O 0.08214 0.158 0.93683 0.0
O13 O 0.02474 0.17853 0.95922 0.0
Co14 Co 0.93122 0.83888 -0.00288 0.0
O15 O 0.90475 0.80191 0.99124 0.0
O16 O 0.87739 0.84046 0.02648 0.0
C17 C 0.95291 0.84159 0.92092 0.0
O18 O 0.95102 0.88084 0.00774 0.0
Co19 Co 0.02508 0.83912 0.98572 0.0
O20 O 0.0177 0.88194 0.98803 0.0
C21 C 0.98969 0.81704 0.07478 0.0
C22 C 0.87422 0.81313 0.01411 0.0
C23 C 0.98486 0.89467 0.00076 0.0
O24 O 0.9549 0.82611 0.06 0.0
O25 O 0.02193 0.81809 0.04897 0.0
O26 O 0.91598 0.84922 0.93208 0.0
O27 O 0.97374 0.82948 0.95497 0.0
Co28 Co 0.06579 0.83842 0.50296 0.0
O29 O 0.09283 0.80152 0.50636 0.0
O30 O 0.11893 0.84084 0.47206 0.0
C31 C 0.04581 0.83991 0.57985 0.0
O32 O 0.04523 0.8804 0.49476 0.0
Co33 Co 0.97216 0.83802 0.51744 0.0
O34 O 0.97929 0.88089 0.51767 0.0
C35 C 0.00574 0.81718 0.42658 0.0
C36 C 0.1227 0.81334 0.48311 0.0
C37 C 0.01158 0.89399 0.50407 0.0
O38 O 0.04074 0.82638 0.44043 0.0
O39 O 0.97408 0.81777 0.45342 0.0
O40 O 0.08244 0.84784 0.56794 0.0
O41 O 0.02435 0.8282 0.54597 0.0
Co42 Co 0.93263 0.16802 0.50717 0.0
O43 O 0.90568 0.20492 0.51136 0.0
O44 O 0.87921 0.16578 0.47694 0.0
C45 C 0.95337 0.16633 0.58377 0.0
O46 O 0.95301 0.12606 0.49818 0.0
Co47 Co 0.02635 0.16824 0.52027 0.0
O48 O 0.01934 0.12536 0.51944 0.0
C49 C 0.99184 0.18958 0.43023 0.0
C50 C 0.87561 0.19323 0.4883 0.0
C51 C 0.9868 0.11239 0.50637 0.0
O52 O 0.95701 0.18026 0.44443 0.0
O53 O 0.02375 0.1889 0.45664 0.0
O54 O 0.91666 0.15838 0.57227 0.0
O55 O 0.97453 0.17811 0.54968 0.0
Co56 Co 0.56938 0.66451 -0.0005 0.0
O57 O 0.59763 0.70093 -0.0027 0.0
O58 O 0.62292 0.66054 0.02904 0.0
C59 C 0.54849 0.66488 0.92289 0.0
O60 O 0.54741 0.6228 0.00611 0.0
Co61 Co 0.47566 0.66689 0.98654 0.0
O62 O 0.48104 0.62391 0.98501 0.0
C63 C 0.51117 0.68581 0.07761 0.0
C64 C 0.62747 0.68813 0.01914 0.0
C65 C 0.51308 0.61001 -0.00277 0.0
O66 O 0.5456 0.67591 0.06307 0.0
O67 O 0.47935 0.68643 0.05103 0.0
O68 O 0.58486 0.65593 0.93386 0.0
O69 O 0.52782 0.67634 0.95768 0.0
Co70 Co 0.43096 0.33692 -0.00434 0.0
O71 O 0.40275 0.30046 0.99384 0.0
O72 O 0.37816 0.34065 0.02697 0.0
C73 C 0.45038 0.33703 0.91853 0.0
O74 O 0.45289 0.37864 0.00225 0.0
Co75 Co 0.52446 0.33485 0.98017 0.0
O76 O 0.5186 0.3778 0.97848 0.0
C77 C 0.49105 0.31623 0.07247 0.0
C78 C 0.37345 0.31309 0.01695 0.0
C79 C 0.48687 0.39157 0.99214 0.0
O80 O 0.45607 0.32534 0.05837 0.0
O81 O 0.52261 0.31616 0.04546 0.0
O82 O 0.41412 0.34573 0.93053 0.0
O83 O 0.47175 0.32544 0.95261 0.0
Co84 Co 0.57085 0.34188 0.50322 0.0
O85 O 0.59884 0.30537 0.50602 0.0
O86 O 0.62451 0.34546 0.47377 0.0
C87 C 0.54968 0.3419 0.57974 0.0
O88 O 0.54908 0.38364 0.49602 0.0
Co89 Co 0.4771 0.33967 0.51555 0.0
O90 O 0.48257 0.38264 0.51659 0.0
C91 C 0.5129 0.32048 0.42484 0.0
C92 C 0.6288 0.31788 0.48398 0.0
C93 C 0.51469 0.39648 0.50448 0.0
O94 O 0.5473 0.33026 0.43967 0.0
O95 O 0.48087 0.32009 0.45107 0.0
O96 O 0.58613 0.3507 0.56884 0.0
O97 O 0.52909 0.33034 0.54498 0.0
Co98 Co 0.43096 0.66949 0.50655 0.0
O99 O 0.40294 0.70603 0.50794 0.0
O100 O 0.37825 0.66587 0.47487 0.0
C101 C 0.44989 0.66954 0.58386 0.0
O102 O 0.45292 0.62771 0.50036 0.0
Co103 Co 0.52441 0.67162 0.52304 0.0
O104 O 0.51847 0.62867 0.52476 0.0
C105 C 0.49162 0.69008 0.43032 0.0
C106 C 0.37366 0.69347 0.48474 0.0
C107 C 0.48689 0.61484 0.51083 0.0
O108 O 0.45656 0.68089 0.44401 0.0
O109 O 0.5229 0.69034 0.45777 0.0
O110 O 0.41368 0.66085 0.57164 0.0
O111 O 0.47147 0.68099 0.54986 0.0
H112 H 0.92176 0.93451 0.00626 0.0
H113 H 0.07197 0.07283 0.01864 0.0
H114 H 0.05308 0.9282 0.01042 0.0
H115 H 0.94187 0.07923 -0.00313 0.0
H116 H 0.06502 0.01972 0.02399 0.0
H117 H 0.92782 0.98775 0.01141 0.0
C118 C 0.95178 0.94423 0.00861 0.0
C119 C 0.98691 0.92678 0.00736 0.0
C120 C 0.03801 0.03282 0.01818 0.0
C121 C 0.99414 0.98764 0.01326 0.0
C122 C 0.04199 0.06316 0.01517 0.0
C123 C 0.00759 0.08065 0.00687 0.0
C124 C 0.99934 0.01985 0.01306 0.0
C125 C 0.96943 0.06676 0.00284 0.0
C126 C 0.95527 0.97463 0.0114 0.0
C127 C 0.02508 0.94069 0.01059 0.0
N128 N 0.96639 0.0373 0.00584 0.0
N129 N 0.02764 0.97018 0.01322 0.0
H130 H 0.07391 0.93383 0.49119 0.0
H131 H 0.92404 0.07259 0.4967 0.0
H132 H 0.94303 0.92785 0.50522 0.0
H133 H 0.05535 0.07863 0.50255 0.0
H134 H 0.93021 0.01939 0.49143 0.0
H135 H 0.06759 0.98706 0.48697 0.0
C136 C 0.0439 0.94361 0.49313 0.0
C137 C 0.00907 0.92622 0.49899 0.0
C138 C 0.95765 0.03244 0.49372 0.0
C139 C 0.00154 0.98711 0.49412 0.0
C140 C 0.95411 0.06282 0.4966 0.0
C141 C 0.98914 0.08021 0.50053 0.0
C142 C 0.9965 0.01935 0.49444 0.0
C143 C 0.02737 0.06621 0.50015 0.0
C144 C 0.04028 0.97401 0.49083 0.0
C145 C 0.9709 0.94024 0.50121 0.0
N146 N 0.02999 0.03673 0.4973 0.0
N147 N 0.9682 0.96974 0.49889 0.0
H148 H 0.44318 0.5777 0.00035 0.0
H149 H 0.55657 0.42413 0.98897 0.0
H150 H 0.57422 0.56865 0.00329 0.0
H151 H 0.42624 0.43267 0.00625 0.0
H152 H 0.56334 0.47676 0.99412 0.0
H153 H 0.43649 0.52493 0.00273 0.0
C154 C 0.47068 0.56465 0.00156 0.0
C155 C 0.50945 0.5778 0.00125 0.0
C156 C 0.53325 0.4672 -0.00301 0.0
C157 C 0.50173 0.51691 0.00393 0.0
C158 C 0.52922 0.43702 0.99388 0.0
C159 C 0.49061 0.42375 -0.00313 0.0
C160 C 0.49846 0.48456 0.00284 0.0
C161 C 0.45657 0.44184 0.00366 0.0
C162 C 0.46672 0.53441 0.00307 0.0
C163 C 0.54376 0.55957 0.0034 0.0
N164 N 0.46128 0.47132 0.00612 0.0
N165 N 0.53909 0.53006 0.0043 0.0
H166 H 0.44476 0.42856 0.49842 0.0
H167 H 0.55666 0.58243 0.51612 0.0
H168 H 0.57573 0.43803 0.50083 0.0
H169 H 0.42685 0.57357 0.49442 0.0
H170 H 0.56394 0.52987 0.51044 0.0
H171 H 0.43775 0.48132 0.49636 0.0
C172 C 0.47219 0.44171 0.49844 0.0
C173 C 0.51102 0.42867 0.50021 0.0
C174 C 0.53386 0.53934 0.50673 0.0
C175 C 0.50293 0.48955 0.49792 0.0
C176 C 0.52952 0.56948 0.51014 0.0
C177 C 0.4909 0.58266 0.50605 0.0
C178 C 0.49936 0.5219 0.49943 0.0
C179 C 0.45717 0.56449 0.49791 0.0
C180 C 0.46805 0.47194 0.49711 0.0
C181 C 0.54524 0.44702 0.49956 0.0
N182 N 0.46217 0.53504 0.49515 0.0
N183 N 0.54037 0.47653 0.49884 0.0
H184 H 0.93809 0.20159 0.13118 0.0
H185 H 0.06106 0.20107 0.37771 0.0
H186 H 0.06952 0.20063 0.14127 0.0
H187 H 0.92962 0.20063 0.36764 0.0
H188 H 0.06477 0.21009 0.29139 0.0
H189 H 0.93442 0.21044 0.21757 0.0
C190 C 0.96616 0.20364 0.15136 0.0
C191 C 0.00411 0.1997 0.12908 0.0
C192 C 0.03511 0.20837 0.30822 0.0
C193 C 0.00017 0.20961 0.22792 0.0
C194 C 0.033 0.20327 0.35755 0.0
C195 C 0.99502 0.19943 0.37982 0.0
C196 C 0.99901 0.20954 0.28104 0.0
C197 C 0.95964 0.20279 0.35189 0.0
C198 C 0.96407 0.20864 0.20073 0.0
C199 C 0.03951 0.20287 0.15704 0.0
N200 N 0.96252 0.20726 0.30391 0.0
N201 N 0.03665 0.20725 0.20504 0.0
H202 H 0.93599 0.80705 0.37426 0.0
H203 H 0.05845 0.80433 0.12738 0.0
H204 H 0.06736 0.80514 0.36371 0.0
H205 H 0.92707 0.80732 0.13756 0.0
H206 H 0.06189 0.79558 0.21375 0.0
H207 H 0.93173 0.79819 0.28789 0.0
C208 C 0.96391 0.80436 0.35398 0.0
C209 C 0.00206 0.80749 0.37613 0.0
C210 C 0.03229 0.79781 0.19694 0.0
C211 C 0.99746 0.79754 0.27732 0.0
C212 C 0.03032 0.80276 0.14757 0.0
C213 C 0.99249 0.80722 0.12527 0.0
C214 C 0.9962 0.79744 0.22418 0.0
C215 C 0.95702 0.80463 0.15329 0.0
C216 C 0.96148 0.79936 0.30463 0.0
C217 C 0.03724 0.80354 0.34805 0.0
N218 N 0.95978 0.80032 0.20133 0.0
N219 N 0.03407 0.79915 0.30007 0.0
H220 H 0.96757 0.83497 0.61311 0.0
H221 H 0.03117 0.83477 0.8883 0.0
H222 H 0.09112 0.8508 0.65955 0.0
H223 H 0.90884 0.85418 0.84098 0.0
H224 H 0.05409 0.83664 0.80455 0.0
H225 H 0.94511 0.83785 0.69689 0.0
C226 C 0.98989 0.83909 0.64093 0.0
C227 C 0.0312 0.84255 0.62957 0.0
C228 C 0.02229 0.84066 0.81267 0.0
C229 C 0.00599 0.84558 0.72503 0.0
C230 C 0.00924 0.83952 0.86032 0.0
C231 C 0.96809 0.84419 0.87141 0.0
C232 C 0.9938 0.84601 0.77604 0.0
C233 C 0.94086 0.8504 0.83393 0.0
C234 C 0.9771 0.84084 0.68861 0.0
C235 C 0.05894 0.84801 0.66685 0.0
N236 N 0.95412 0.85085 0.78783 0.0
N237 N 0.04589 0.84909 0.71302 0.0
H238 H 0.96769 0.17342 0.89203 0.0
H239 H 0.03156 0.1725 0.61677 0.0
H240 H 0.09049 0.15495 0.84535 0.0
H241 H 0.90849 0.15533 0.66373 0.0
H242 H 0.05413 0.17068 0.70062 0.0
H243 H 0.94514 0.17146 0.80817 0.0
C244 C 0.98982 0.16891 0.86414 0.0
C245 C 0.03095 0.16441 0.87545 0.0
C246 C 0.02223 0.16717 0.69242 0.0
C247 C 0.00565 0.16245 0.77997 0.0
C248 C 0.00938 0.16829 0.64471 0.0
C249 C 0.96816 0.16414 0.63348 0.0
C250 C 0.99348 0.16237 0.72896 0.0
C251 C 0.9406 0.15863 0.67091 0.0
C252 C 0.97697 0.1677 0.81644 0.0
C253 C 0.05844 0.15852 0.8381 0.0
N254 N 0.95369 0.15816 0.71707 0.0
N255 N 0.04537 0.15796 0.79194 0.0
H256 H 0.44247 0.70015 0.12914 0.0
H257 H 0.56202 0.69883 0.37863 0.0
H258 H 0.57335 0.69278 0.14197 0.0
H259 H 0.4308 0.70079 0.36574 0.0
H260 H 0.56739 0.70571 0.29185 0.0
H261 H 0.43837 0.70936 0.21536 0.0
C262 C 0.47037 0.70079 0.1499 0.0
C263 C 0.50821 0.6951 0.12835 0.0
C264 C 0.53743 0.70497 0.30815 0.0
C265 C 0.50373 0.7055 0.22707 0.0
C266 C 0.53437 0.70113 0.35773 0.0
C267 C 0.49592 0.69863 0.3794 0.0
C268 C 0.50181 0.7063 0.28015 0.0
C269 C 0.46112 0.70198 0.35049 0.0
C270 C 0.46802 0.70602 0.19917 0.0
C271 C 0.54339 0.69649 0.15709 0.0
N272 N 0.4649 0.70529 0.30235 0.0
N273 N 0.54024 0.70121 0.205 0.0
H274 H 0.57584 0.31066 0.36259 0.0
H275 H 0.42965 0.30339 0.13516 0.0
H276 H 0.44436 0.30881 0.37128 0.0
H277 H 0.56084 0.30938 0.12604 0.0
H278 H 0.4352 0.29655 0.22152 0.0
H279 H 0.57136 0.30157 0.2767 0.0
C280 C 0.54596 0.3081 0.34655 0.0
C281 C 0.51033 0.31109 0.37415 0.0
C282 C 0.46282 0.29904 0.20064 0.0
C283 C 0.50512 0.30071 0.2755 0.0
C284 C 0.45972 0.30299 0.15124 0.0
C285 C 0.49484 0.30755 0.12337 0.0
C286 C 0.5013 0.29986 0.22254 0.0
C287 C 0.53294 0.30623 0.14614 0.0
C288 C 0.54349 0.30285 0.29742 0.0
C289 C 0.4726 0.307 0.35141 0.0
N290 N 0.53513 0.30293 0.19454 0.0
N291 N 0.47098 0.30241 0.30327 0.0
H292 H 0.40501 0.34795 0.83889 0.0
H293 H 0.5939 0.35284 0.6602 0.0
H294 H 0.52839 0.33092 0.88488 0.0
H295 H 0.47172 0.33342 0.6124 0.0
H296 H 0.56986 0.35273 0.74311 0.0
H297 H 0.4287 0.35038 0.75585 0.0
C298 C 0.43714 0.34483 0.8315 0.0
C299 C 0.46485 0.33911 0.86868 0.0
C300 C 0.54834 0.3485 0.71447 0.0
C301 C 0.49202 0.34209 0.774 0.0
C302 C 0.56193 0.3487 0.66716 0.0
C303 C 0.53471 0.34299 0.62949 0.0
C304 C 0.50712 0.343 0.72412 0.0
C305 C 0.49368 0.33775 0.6405 0.0
C306 C 0.45054 0.3461 0.78413 0.0
C307 C 0.50606 0.33521 0.85716 0.0
N308 N 0.48103 0.33796 0.68696 0.0
N309 N 0.51849 0.33689 0.81072 0.0
H310 H 0.59273 0.65374 0.84254 0.0
H311 H 0.40418 0.65895 0.66339 0.0
H312 H 0.47061 0.67365 0.8901 0.0
H313 H 0.52779 0.67545 0.61776 0.0
H314 H 0.42765 0.65663 0.74656 0.0
H315 H 0.56878 0.65381 0.75961 0.0
C316 C 0.5608 0.65799 0.83552 0.0
C317 C 0.53357 0.66384 0.87313 0.0
C318 C 0.44958 0.66077 0.71832 0.0
C319 C 0.50608 0.66378 0.77847 0.0
C320 C 0.43631 0.66198 0.6709 0.0
C321 C 0.46416 0.66751 0.63378 0.0
C322 C 0.49106 0.66466 0.72856 0.0
C323 C 0.50536 0.67131 0.64542 0.0
C324 C 0.54725 0.65815 0.7882 0.0
C325 C 0.49258 0.66921 0.86204 0.0
N326 N 0.51765 0.66969 0.6919 0.0
N327 N 0.47998 0.66897 0.81557 0.0
H328 H 0.29688 0.3332 0.04063 0.0
H329 H 0.20066 0.17228 0.04491 0.0
H330 H 0.36703 0.25432 0.02351 0.0
H331 H 0.13039 0.25083 0.02465 0.0
H332 H 0.26211 0.2023 0.05527 0.0
H333 H 0.2355 0.30338 0.053 0.0
C334 C 0.29943 0.30966 0.04013 0.0
C335 C 0.33685 0.29619 0.03028 0.0
C336 C 0.23309 0.21291 0.04904 0.0
C337 C 0.26724 0.26207 0.04448 0.0
C338 C 0.1981 0.19579 0.04328 0.0
C339 C 0.16061 0.20908 0.03315 0.0
C340 C 0.23031 0.24344 0.04507 0.0
C341 C 0.15887 0.23966 0.03159 0.0
C342 C 0.26448 0.29266 0.04702 0.0
C343 C 0.33859 0.2656 0.03018 0.0
N344 N 0.19322 0.25578 0.03716 0.0
N345 N 0.30428 0.24959 0.03683 0.0
H346 H 0.70607 0.66833 0.03122 0.0
H347 H 0.79842 0.83025 0.0464 0.0
H348 H 0.63275 0.74637 0.03335 0.0
H349 H 0.86848 0.75425 0.0072 0.0
H350 H 0.7386 0.7988 0.05824 0.0
H351 H 0.7675 0.69866 0.03945 0.0
C352 C 0.70291 0.69175 0.03426 0.0
C353 C 0.66448 0.70493 0.03098 0.0
C354 C 0.76722 0.78906 0.04737 0.0
C355 C 0.7341 0.73963 0.04037 0.0
C356 C 0.80129 0.80699 0.04069 0.0
C357 C 0.83826 0.79491 0.02518 0.0
C358 C 0.77039 0.75889 0.03887 0.0
C359 C 0.84041 0.76457 0.01856 0.0
C360 C 0.73786 0.70906 0.03868 0.0
C361 C 0.66195 0.73539 0.03499 0.0
N362 N 0.80695 0.74766 0.02521 0.0
N363 N 0.69625 0.75171 0.03921 0.0
H364 H 0.12747 0.75436 0.47922 0.0
H365 H 0.36873 0.75205 0.47422 0.0
H366 H 0.20001 0.83181 0.45909 0.0
H367 H 0.29593 0.67398 0.46501 0.0
H368 H 0.30762 0.78137 0.46247 0.0
H369 H 0.18821 0.72456 0.46806 0.0
C370 C 0.15624 0.76512 0.47207 0.0
C371 C 0.15885 0.79566 0.47075 0.0
C372 C 0.30492 0.75785 0.46241 0.0
C373 C 0.22874 0.76153 0.45825 0.0
C374 C 0.33981 0.74105 0.46928 0.0
C375 C 0.33725 0.71053 0.47124 0.0
C376 C 0.26692 0.7441 0.45822 0.0
C377 C 0.29915 0.69745 0.46396 0.0
C378 C 0.1909 0.74803 0.46551 0.0
C379 C 0.19674 0.80836 0.46067 0.0
N380 N 0.2653 0.71435 0.45851 0.0
N381 N 0.23038 0.79123 0.4555 0.0
H382 H 0.70686 0.33732 0.46598 0.0
H383 H 0.79897 0.17507 0.4609 0.0
H384 H 0.63403 0.25923 0.47502 0.0
H385 H 0.87052 0.25227 0.48784 0.0
H386 H 0.73876 0.20612 0.44883 0.0
H387 H 0.76801 0.30679 0.45656 0.0
C388 C 0.7037 0.31382 0.46527 0.0
C389 C 0.66554 0.30075 0.47201 0.0
C390 C 0.76779 0.21622 0.45698 0.0
C391 C 0.73486 0.26583 0.46122 0.0
C392 C 0.80208 0.19851 0.46374 0.0
C393 C 0.83956 0.21108 0.4761 0.0
C394 C 0.77125 0.24665 0.46219 0.0
C395 C 0.84202 0.24161 0.47913 0.0
C396 C 0.73852 0.29641 0.4601 0.0
C397 C 0.66303 0.27019 0.47073 0.0
N398 N 0.80834 0.25831 0.47251 0.0
N399 N 0.69718 0.25379 0.46579 0.0
loop_
_geom_bond_atom_site_label_1
_geom_bond_atom_site_label_2
_geom_bond_distance
_geom_bond_site_symmetry_2
_ccdc_geom_bond_type
Co0 O1 2.216 1_556 S
Co0 O2 2.091 1_556 S
Co0 O4 2.004 . S
Co0 O10 2.022 1_556 S
Co0 O12 2.136 . S
Co0 O13 2.243 . S
O1 Co0 2.216 1_554 S
O1 C8 1.247 . S
O2 Co0 2.091 1_554 S
O2 C8 1.261 . S
C3 O12 1.247 . S
C3 O13 1.272 . S
O4 Co0 2.004 . S
O4 C9 1.259 1_556 S
Co5 O6 2.061 . S
Co5 O11 2.052 . S
Co5 O13 2.135 1_654 S
O6 Co5 2.061 . S
O6 C9 1.235 1_655 S
C7 O10 1.238 . S
C7 O11 1.241 1_455 S
C8 O1 1.247 . S
C8 O2 1.261 . S
C9 O4 1.259 1_554 S
C9 O6 1.235 1_455 S
O10 Co0 2.022 1_554 S
O10 C7 1.238 . S
O11 Co5 2.052 . S
O11 C7 1.241 1_655 S
O12 Co0 2.136 . S
O12 C3 1.247 . S
O13 Co0 2.243 . S
O13 C3 1.272 . S
O13 Co5 2.135 1_456 S
Co14 O15 2.216 1_556 S
Co14 O16 2.091 1_556 S
Co14 O18 2.004 . S
Co14 O24 2.022 1_556 S
Co14 O26 2.136 . S
Co14 O27 2.243 . S
O15 Co14 2.216 1_554 S
O15 C22 1.247 . S
O16 Co14 2.091 1_554 S
O16 C22 1.261 . S
C17 O26 1.247 . S
C17 O27 1.272 . S
O18 Co14 2.004 . S
O18 C23 1.259 1_556 S
Co19 O20 2.061 . S
Co19 O25 2.052 . S
Co19 O27 2.135 1_454 S
O20 Co19 2.061 . S
O20 C23 1.235 1_455 S
C21 O24 1.238 . S
C21 O25 1.241 1_655 S
C22 O15 1.247 . S
C22 O16 1.261 . S
C23 O18 1.259 1_554 S
C23 O20 1.235 1_655 S
O24 Co14 2.022 1_554 S
O24 C21 1.238 . S
O25 Co19 2.052 . S
O25 C21 1.241 1_455 S
O26 Co14 2.136 . S
O26 C17 1.247 . S
O27 Co14 2.243 . S
O27 C17 1.272 . S
O27 Co19 2.135 1_656 S
Co28 O29 2.216 . S
Co28 O30 2.091 . S
Co28 O32 2.004 . S
Co28 O38 2.021 . S
Co28 O40 2.137 . S
Co28 O41 2.244 . S
O29 Co28 2.216 . S
O29 C36 1.247 . S
O30 Co28 2.091 . S
O30 C36 1.261 . S
C31 O40 1.247 . S
C31 O41 1.272 . S
O32 Co28 2.004 . S
O32 C37 1.259 . S
Co33 O34 2.061 . S
Co33 O39 2.052 . S
Co33 O41 2.135 1_655 S
O34 Co33 2.061 . S
O34 C37 1.235 1_655 S
C35 O38 1.238 . S
C35 O39 1.241 1_455 S
C36 O29 1.247 . S
C36 O30 1.261 . S
C37 O32 1.259 . S
C37 O34 1.235 1_455 S
O38 Co28 2.021 . S
O38 C35 1.238 . S
O39 Co33 2.052 . S
O39 C35 1.241 1_655 S
O40 Co28 2.137 . S
O40 C31 1.247 . S
O41 Co28 2.244 . S
O41 C31 1.272 . S
O41 Co33 2.135 1_455 S
Co42 O43 2.216 . S
Co42 O44 2.091 . S
Co42 O46 2.004 . S
Co42 O52 2.021 . S
Co42 O54 2.137 . S
Co42 O55 2.244 . S
O43 Co42 2.216 . S
O43 C50 1.247 . S
O44 Co42 2.091 . S
O44 C50 1.261 . S
C45 O54 1.247 . S
C45 O55 1.272 . S
O46 Co42 2.004 . S
O46 C51 1.259 . S
Co47 O48 2.061 . S
Co47 O53 2.052 . S
Co47 O55 2.135 1_455 S
O48 Co47 2.061 . S
O48 C51 1.235 1_455 S
C49 O52 1.238 . S
C49 O53 1.241 1_655 S
C50 O43 1.247 . S
C50 O44 1.261 . S
C51 O46 1.259 . S
C51 O48 1.235 1_655 S
O52 Co42 2.021 . S
O52 C49 1.238 . S
O53 Co47 2.052 . S
O53 C49 1.241 1_455 S
O54 Co42 2.137 . S
O54 C45 1.247 . S
O55 Co42 2.244 . S
O55 C45 1.272 . S
O55 Co47 2.135 1_655 S
Co56 O57 2.216 1_556 S
Co56 O58 2.091 1_556 S
Co56 O60 2.004 . S
Co56 O66 2.023 1_556 S
Co56 O68 2.135 . S
Co56 O69 2.243 . S
O57 Co56 2.216 1_554 S
O57 C64 1.247 . S
O58 Co56 2.091 1_554 S
O58 C64 1.261 . S
C59 O68 1.247 . S
C59 O69 1.272 . S
O60 Co56 2.004 . S
O60 C65 1.259 1_556 S
Co61 O62 2.061 . S
Co61 O67 2.052 . S
Co61 O69 2.135 1_554 S
O62 Co61 2.061 . S
O62 C65 1.235 . S
C63 O66 1.238 . S
C63 O67 1.241 . S
C64 O57 1.247 . S
C64 O58 1.261 . S
C65 O60 1.259 1_554 S
C65 O62 1.235 . S
O66 Co56 2.023 1_554 S
O66 C63 1.238 . S
O67 Co61 2.052 . S
O67 C63 1.241 . S
O68 Co56 2.135 . S
O68 C59 1.247 . S
O69 Co56 2.243 . S
O69 C59 1.272 . S
O69 Co61 2.135 1_556 S
Co70 O71 2.216 1_556 S
Co70 O72 2.091 1_556 S
Co70 O74 2.004 . S
Co70 O80 2.023 1_556 S
Co70 O82 2.135 . S
Co70 O83 2.243 . S
O71 Co70 2.216 1_554 S
O71 C78 1.247 . S
O72 Co70 2.091 1_554 S
O72 C78 1.261 . S
C73 O82 1.247 . S
C73 O83 1.272 . S
O74 Co70 2.004 . S
O74 C79 1.259 1_556 S
Co75 O76 2.061 . S
Co75 O81 2.052 . S
Co75 O83 2.135 1_554 S
O76 Co75 2.061 . S
O76 C79 1.235 . S
C77 O80 1.238 . S
C77 O81 1.241 . S
C78 O71 1.247 . S
C78 O72 1.261 . S
C79 O74 1.259 1_554 S
C79 O76 1.235 . S
O80 Co70 2.023 1_554 S
O80 C77 1.238 . S
O81 Co75 2.052 . S
O81 C77 1.241 . S
O82 Co70 2.135 . S
O82 C73 1.247 . S
O83 Co70 2.243 . S
O83 C73 1.272 . S
O83 Co75 2.135 1_556 S
Co84 O85 2.216 . S
Co84 O86 2.091 . S
Co84 O88 2.004 . S
Co84 O94 2.021 . S
Co84 O96 2.137 . S
Co84 O97 2.244 . S
O85 Co84 2.216 . S
O85 C92 1.247 . S
O86 Co84 2.091 . S
O86 C92 1.261 . S
C87 O96 1.247 . S
C87 O97 1.272 . S
O88 Co84 2.004 . S
O88 C93 1.259 . S
Co89 O90 2.061 . S
Co89 O95 2.052 . S
Co89 O97 2.135 . S
O90 Co89 2.061 . S
O90 C93 1.235 . S
C91 O94 1.238 . S
C91 O95 1.241 . S
C92 O85 1.247 . S
C92 O86 1.261 . S
C93 O88 1.259 . S
C93 O90 1.235 . S
O94 Co84 2.021 . S
O94 C91 1.238 . S
O95 Co89 2.052 . S
O95 C91 1.241 . S
O96 Co84 2.137 . S
O96 C87 1.247 . S
O97 Co84 2.244 . S
O97 C87 1.272 . S
O97 Co89 2.135 . S
Co98 O99 2.216 . S
Co98 O100 2.091 . S
Co98 O102 2.004 . S
Co98 O108 2.021 . S
Co98 O110 2.137 . S
Co98 O111 2.244 . S
O99 Co98 2.216 . S
O99 C106 1.247 . S
O100 Co98 2.091 . S
O100 C106 1.261 . S
C101 O110 1.247 . S
C101 O111 1.272 . S
O102 Co98 2.004 . S
O102 C107 1.259 . S
Co103 O104 2.061 . S
Co103 O109 2.052 . S
Co103 O111 2.135 . S
O104 Co103 2.061 . S
O104 C107 1.235 . S
C105 O108 1.238 . S
C105 O109 1.241 . S
C106 O99 1.247 . S
C106 O100 1.261 . S
C107 O102 1.259 . S
C107 O104 1.235 . S
O108 Co98 2.021 . S
O108 C105 1.238 . S
O109 Co103 2.052 . S
O109 C105 1.241 . S
O110 Co98 2.137 . S
O110 C101 1.247 . S
O111 Co98 2.244 . S
O111 C101 1.272 . S
O111 Co103 2.135 . S
H112 C118 0.930 . S
H113 C122 0.930 . S
H114 C127 0.929 . S
H115 C125 0.929 . S
H116 C120 0.929 . S
H117 C126 0.929 . S
C118 H112 0.930 . S
C118 C119 1.367 1_556 S
C118 C126 1.378 . S
C119 C118 1.367 1_554 S
C119 C127 1.433 . S
C120 H116 0.929 . S
C120 C122 1.378 . S
C120 C124 1.350 . S
C121 C124 1.463 1_665 S
C121 C126 1.350 1_554 S
C121 N129 1.427 1_655 S
C122 H113 0.930 . S
C122 C120 1.378 . S
C122 C123 1.367 . S
C123 C122 1.367 . S
C123 C125 1.433 1_554 S
C124 C120 1.350 . S
C124 C121 1.463 1_445 S
C124 N128 1.427 1_454 S
C125 H115 0.929 . S
C125 C123 1.433 1_556 S
C125 N128 1.384 1_455 S
C126 H117 0.929 . S
C126 C118 1.378 . S
C126 C121 1.350 1_556 S
C127 H114 0.929 . S
C127 C119 1.433 . S
C127 N129 1.384 1_655 S
N128 C124 1.427 1_656 S
N128 C125 1.384 1_655 S
N129 C121 1.427 1_455 S
N129 C127 1.384 1_455 S
H130 C136 0.930 . S
H131 C140 0.930 . S
H132 C145 0.929 . S
H133 C143 0.929 . S
H134 C138 0.929 . S
H135 C144 0.929 . S
C136 H130 0.930 . S
C136 C137 1.367 . S
C136 C144 1.378 . S
C137 C136 1.367 . S
C137 C145 1.433 1_455 S
C138 H134 0.929 . S
C138 C140 1.378 . S
C138 C142 1.350 . S
C139 C142 1.463 1_465 S
C139 C144 1.350 . S
C139 N147 1.427 1_455 S
C140 H131 0.930 . S
C140 C138 1.378 . S
C140 C141 1.367 . S
C141 C140 1.367 . S
C141 C143 1.433 1_655 S
C142 C138 1.350 . S
C142 C139 1.463 1_645 S
C142 N146 1.427 1_655 S
C143 H133 0.929 . S
C143 C141 1.433 1_455 S
C143 N146 1.384 . S
C144 H135 0.929 . S
C144 C136 1.378 . S
C144 C139 1.350 . S
C145 H132 0.929 . S
C145 C137 1.433 1_655 S
C145 N147 1.384 . S
N146 C142 1.427 1_455 S
N146 C143 1.384 . S
N147 C139 1.427 1_655 S
N147 C145 1.384 . S
H148 C154 0.930 . S
H149 C158 0.930 . S
H150 C163 0.929 . S
H151 C161 0.929 . S
H152 C156 0.929 . S
H153 C162 0.929 . S
C154 H148 0.930 . S
C154 C155 1.367 . S
C154 C162 1.378 . S
C155 C154 1.367 . S
C155 C163 1.433 1_554 S
C156 H152 0.929 . S
C156 C158 1.378 . S
C156 C160 1.350 1_556 S
C157 C160 1.463 . S
C157 C162 1.350 . S
C157 N165 1.427 1_554 S
C158 H149 0.930 . S
C158 C156 1.378 . S
C158 C159 1.367 1_556 S
C159 C158 1.367 1_554 S
C159 C161 1.433 . S
C160 C156 1.350 1_554 S
C160 C157 1.463 . S
C160 N164 1.427 . S
C161 H151 0.929 . S
C161 C159 1.433 . S
C161 N164 1.384 . S
C162 H153 0.929 . S
C162 C154 1.378 . S
C162 C157 1.350 . S
C163 H150 0.929 . S
C163 C155 1.433 1_556 S
C163 N165 1.384 . S
N164 C160 1.427 . S
N164 C161 1.384 . S
N165 C157 1.427 1_556 S
N165 C163 1.384 . S
H166 C172 0.930 . S
H167 C176 0.930 . S
H168 C181 0.929 . S
H169 C179 0.929 . S
H170 C174 0.929 . S
H171 C180 0.929 . S
C172 H166 0.930 . S
C172 C173 1.367 . S
C172 C180 1.378 . S
C173 C172 1.367 . S
C173 C181 1.433 . S
C174 H170 0.929 . S
C174 C176 1.378 . S
C174 C178 1.350 . S
C175 C178 1.463 . S
C175 C180 1.350 . S
C175 N183 1.427 . S
C176 H167 0.930 . S
C176 C174 1.378 . S
C176 C177 1.367 . S
C177 C176 1.367 . S
C177 C179 1.433 . S
C178 C174 1.350 . S
C178 C175 1.463 . S
C178 N182 1.427 . S
C179 H169 0.929 . S
C179 C177 1.433 . S
C179 N182 1.384 . S
C180 H171 0.929 . S
C180 C172 1.378 . S
C180 C175 1.350 . S
C181 H168 0.929 . S
C181 C173 1.433 . S
C181 N183 1.384 . S
N182 C178 1.427 . S
N182 C179 1.384 . S
N183 C175 1.427 . S
N183 C181 1.384 . S
H184 C190 0.930 . S
H185 C194 0.930 . S
H186 C199 0.929 . S
H187 C197 0.929 . S
H188 C192 0.929 . S
H189 C198 0.929 . S
C190 H184 0.930 . S
C190 C191 1.367 1_655 S
C190 C198 1.378 . S
C191 C190 1.367 1_455 S
C191 C199 1.433 . S
C192 H188 0.929 . S
C192 C194 1.378 . S
C192 C196 1.350 1_455 S
C193 C196 1.463 1_455 S
C193 C198 1.350 1_455 S
C193 N201 1.427 . S
C194 H185 0.930 . S
C194 C192 1.378 . S
C194 C195 1.367 1_455 S
C195 C194 1.367 1_655 S
C195 C197 1.433 . S
C196 C192 1.350 1_655 S
C196 C193 1.463 1_655 S
C196 N200 1.427 . S
C197 H187 0.929 . S
C197 C195 1.433 . S
C197 N200 1.384 . S
C198 H189 0.929 . S
C198 C190 1.378 . S
C198 C193 1.350 1_655 S
C199 H186 0.929 . S
C199 C191 1.433 . S
C199 N201 1.384 . S
N200 C196 1.427 . S
N200 C197 1.384 . S
N201 C193 1.427 . S
N201 C199 1.384 . S
H202 C208 0.930 . S
H203 C212 0.930 . S
H204 C217 0.929 . S
H205 C215 0.929 . S
H206 C210 0.929 . S
H207 C216 0.929 . S
C208 H202 0.930 . S
C208 C209 1.367 1_655 S
C208 C216 1.378 . S
C209 C208 1.367 1_455 S
C209 C217 1.433 . S
C210 H206 0.929 . S
C210 C212 1.378 . S
C210 C214 1.350 1_455 S
C211 C214 1.463 1_455 S
C211 C216 1.350 1_455 S
C211 N219 1.427 . S
C212 H203 0.930 . S
C212 C210 1.378 . S
C212 C213 1.367 1_455 S
C213 C212 1.367 1_655 S
C213 C215 1.433 . S
C214 C210 1.350 1_655 S
C214 C211 1.463 1_655 S
C214 N218 1.427 . S
C215 H205 0.929 . S
C215 C213 1.433 . S
C215 N218 1.384 . S
C216 H207 0.929 . S
C216 C208 1.378 . S
C216 C211 1.350 1_655 S
C217 H204 0.929 . S
C217 C209 1.433 . S
C217 N219 1.384 . S
N218 C214 1.427 . S
N218 C215 1.384 . S
N219 C211 1.427 . S
N219 C217 1.384 . S
H220 C226 0.930 . S
H221 C230 0.930 . S
H222 C235 0.929 . S
H223 C233 0.929 . S
H224 C228 0.929 . S
H225 C234 0.929 . S
C226 H220 0.930 . S
C226 C227 1.367 1_655 S
C226 C234 1.378 . S
C227 C226 1.367 1_455 S
C227 C235 1.433 . S
C228 H224 0.929 . S
C228 C230 1.378 . S
C228 C232 1.336 1_455 S
C229 C232 1.462 1_455 S
C229 C234 1.336 1_455 S
C229 N237 1.443 . S
C230 H221 0.930 . S
C230 C228 1.378 . S
C230 C231 1.367 1_455 S
C231 C230 1.367 1_655 S
C231 C233 1.433 . S
C232 C228 1.336 1_655 S
C232 C229 1.462 1_655 S
C232 N236 1.443 . S
C233 H223 0.929 . S
C233 C231 1.433 . S
C233 N236 1.384 . S
C234 H225 0.929 . S
C234 C226 1.378 . S
C234 C229 1.336 1_655 S
C235 H222 0.929 . S
C235 C227 1.433 . S
C235 N237 1.384 . S
N236 C232 1.443 . S
N236 C233 1.384 . S
N237 C229 1.443 . S
N237 C235 1.384 . S
H238 C244 0.930 . S
H239 C248 0.930 . S
H240 C253 0.929 . S
H241 C251 0.929 . S
H242 C246 0.929 . S
H243 C252 0.929 . S
C244 H238 0.930 . S
C244 C245 1.367 1_655 S
C244 C252 1.378 . S
C245 C244 1.367 1_455 S
C245 C253 1.433 . S
C246 H242 0.929 . S
C246 C248 1.378 . S
C246 C250 1.336 1_455 S
C247 C250 1.462 1_455 S
C247 C252 1.336 1_455 S
C247 N255 1.443 . S
C248 H239 0.930 . S
C248 C246 1.378 . S
C248 C249 1.367 1_455 S
C249 C248 1.367 1_655 S
C249 C251 1.433 . S
C250 C246 1.336 1_655 S
C250 C247 1.462 1_655 S
C250 N254 1.443 . S
C251 H241 0.929 . S
C251 C249 1.433 . S
C251 N254 1.384 . S
C252 H243 0.929 . S
C252 C244 1.378 . S
C252 C247 1.336 1_655 S
C253 H240 0.929 . S
C253 C245 1.433 . S
C253 N255 1.384 . S
N254 C250 1.443 . S
N254 C251 1.384 . S
N255 C247 1.443 . S
N255 C253 1.384 . S
H256 C262 0.930 . S
H257 C266 0.930 . S
H258 C271 0.929 . S
H259 C269 0.929 . S
H260 C264 0.929 . S
H261 C270 0.929 . S
C262 H256 0.930 . S
C262 C263 1.367 . S
C262 C270 1.378 . S
C263 C262 1.367 . S
C263 C271 1.433 . S
C264 H260 0.929 . S
C264 C266 1.378 . S
C264 C268 1.350 . S
C265 C268 1.463 . S
C265 C270 1.350 . S
C265 N273 1.427 . S
C266 H257 0.930 . S
C266 C264 1.378 . S
C266 C267 1.367 . S
C267 C266 1.367 . S
C267 C269 1.433 . S
C268 C264 1.350 . S
C268 C265 1.463 . S
C268 N272 1.427 . S
C269 H259 0.929 . S
C269 C267 1.433 . S
C269 N272 1.384 . S
C270 H261 0.929 . S
C270 C262 1.378 . S
C270 C265 1.350 . S
C271 H258 0.929 . S
C271 C263 1.433 . S
C271 N273 1.384 . S
N272 C268 1.427 . S
N272 C269 1.384 . S
N273 C265 1.427 . S
N273 C271 1.384 . S
H274 C280 0.930 . S
H275 C284 0.930 . S
H276 C289 0.929 . S
H277 C287 0.929 . S
H278 C282 0.929 . S
H279 C288 0.929 . S
C280 H274 0.930 . S
C280 C281 1.367 . S
C280 C288 1.378 . S
C281 C280 1.367 . S
C281 C289 1.433 . S
C282 H278 0.929 . S
C282 C284 1.378 . S
C282 C286 1.350 . S
C283 C286 1.463 . S
C283 C288 1.350 . S
C283 N291 1.427 . S
C284 H275 0.930 . S
C284 C282 1.378 . S
C284 C285 1.367 . S
C285 C284 1.367 . S
C285 C287 1.433 . S
C286 C282 1.350 . S
C286 C283 1.463 . S
C286 N290 1.427 . S
C287 H277 0.929 . S
C287 C285 1.433 . S
C287 N290 1.384 . S
C288 H279 0.929 . S
C288 C280 1.378 . S
C288 C283 1.350 . S
C289 H276 0.929 . S
C289 C281 1.433 . S
C289 N291 1.384 . S
N290 C286 1.427 . S
N290 C287 1.384 . S
N291 C283 1.427 . S
N291 C289 1.384 . S
H292 C298 0.930 . S
H293 C302 0.930 . S
H294 C307 0.929 . S
H295 C305 0.929 . S
H296 C300 0.929 . S
H297 C306 0.929 . S
C298 H292 0.930 . S
C298 C299 1.367 . S
C298 C306 1.378 . S
C299 C298 1.367 . S
C299 C307 1.433 . S
C300 H296 0.929 . S
C300 C302 1.378 . S
C300 C304 1.350 . S
C301 C304 1.463 . S
C301 C306 1.350 . S
C301 N309 1.427 . S
C302 H293 0.930 . S
C302 C300 1.378 . S
C302 C303 1.367 . S
C303 C302 1.367 . S
C303 C305 1.433 . S
C304 C300 1.350 . S
C304 C301 1.463 . S
C304 N308 1.427 . S
C305 H295 0.929 . S
C305 C303 1.433 . S
C305 N308 1.384 . S
C306 H297 0.929 . S
C306 C298 1.378 . S
C306 C301 1.350 . S
C307 H294 0.929 . S
C307 C299 1.433 . S
C307 N309 1.384 . S
N308 C304 1.427 . S
N308 C305 1.384 . S
N309 C301 1.427 . S
N309 C307 1.384 . S
H310 C316 0.930 . S
H311 C320 0.930 . S
H312 C325 0.929 . S
H313 C323 0.929 . S
H314 C318 0.929 . S
H315 C324 0.929 . S
C316 H310 0.930 . S
C316 C317 1.367 . S
C316 C324 1.378 . S
C317 C316 1.367 . S
C317 C325 1.433 . S
C318 H314 0.929 . S
C318 C320 1.378 . S
C318 C322 1.350 . S
C319 C322 1.463 . S
C319 C324 1.350 . S
C319 N327 1.427 . S
C320 H311 0.930 . S
C320 C318 1.378 . S
C320 C321 1.367 . S
C321 C320 1.367 . S
C321 C323 1.433 . S
C322 C318 1.350 . S
C322 C319 1.463 . S
C322 N326 1.427 . S
C323 H313 0.929 . S
C323 C321 1.433 . S
C323 N326 1.384 . S
C324 H315 0.929 . S
C324 C316 1.378 . S
C324 C319 1.350 . S
C325 H312 0.929 . S
C325 C317 1.433 . S
C325 N327 1.384 . S
N326 C322 1.427 . S
N326 C323 1.384 . S
N327 C319 1.427 . S
N327 C325 1.384 . S
H328 C334 0.930 . S
H329 C338 0.930 . S
H330 C343 0.929 . S
H331 C341 0.929 . S
H332 C336 0.929 . S
H333 C342 0.929 . S
C334 H328 0.930 . S
C334 C335 1.367 1_556 S
C334 C342 1.378 . S
C335 C334 1.367 1_554 S
C335 C343 1.433 . S
C336 H332 0.929 . S
C336 C338 1.378 . S
C336 C340 1.350 . S
C337 C340 1.463 . S
C337 C342 1.350 1_554 S
C337 N345 1.427 . S
C338 H329 0.930 . S
C338 C336 1.378 . S
C338 C339 1.367 . S
C339 C338 1.367 . S
C339 C341 1.433 1_554 S
C340 C336 1.350 . S
C340 C337 1.463 . S
C340 N344 1.427 1_554 S
C341 H331 0.929 . S
C341 C339 1.433 1_556 S
C341 N344 1.384 . S
C342 H333 0.929 . S
C342 C334 1.378 . S
C342 C337 1.350 1_556 S
C343 H330 0.929 . S
C343 C335 1.433 . S
C343 N345 1.384 . S
N344 C340 1.427 1_556 S
N344 C341 1.384 . S
N345 C337 1.427 . S
N345 C343 1.384 . S
H346 C352 0.930 . S
H347 C356 0.930 . S
H348 C361 0.929 . S
H349 C359 0.929 . S
H350 C354 0.929 . S
H351 C360 0.929 . S
C352 H346 0.930 . S
C352 C353 1.367 1_556 S
C352 C360 1.378 . S
C353 C352 1.367 1_554 S
C353 C361 1.433 . S
C354 H350 0.929 . S
C354 C356 1.378 . S
C354 C358 1.350 . S
C355 C358 1.463 . S
C355 C360 1.350 1_554 S
C355 N363 1.427 . S
C356 H347 0.930 . S
C356 C354 1.378 . S
C356 C357 1.367 . S
C357 C356 1.367 . S
C357 C359 1.433 1_554 S
C358 C354 1.350 . S
C358 C355 1.463 . S
C358 N362 1.427 1_554 S
C359 H349 0.929 . S
C359 C357 1.433 1_556 S
C359 N362 1.384 . S
C360 H351 0.929 . S
C360 C352 1.378 . S
C360 C355 1.350 1_556 S
C361 H348 0.929 . S
C361 C353 1.433 . S
C361 N363 1.384 . S
N362 C358 1.427 1_556 S
N362 C359 1.384 . S
N363 C355 1.427 . S
N363 C361 1.384 . S
H364 C370 0.930 . S
H365 C374 0.930 . S
H366 C379 0.929 . S
H367 C377 0.929 . S
H368 C372 0.929 . S
H369 C378 0.929 . S
C370 H364 0.930 . S
C370 C371 1.367 . S
C370 C378 1.378 . S
C371 C370 1.367 . S
C371 C379 1.433 . S
C372 H368 0.929 . S
C372 C374 1.378 . S
C372 C376 1.350 . S
C373 C376 1.463 . S
C373 C378 1.350 . S
C373 N381 1.427 . S
C374 H365 0.930 . S
C374 C372 1.378 . S
C374 C375 1.367 . S
C375 C374 1.367 . S
C375 C377 1.433 . S
C376 C372 1.350 . S
C376 C373 1.463 . S
C376 N380 1.427 . S
C377 H367 0.929 . S
C377 C375 1.433 . S
C377 N380 1.384 . S
C378 H369 0.929 . S
C378 C370 1.378 . S
C378 C373 1.350 . S
C379 H366 0.929 . S
C379 C371 1.433 . S
C379 N381 1.384 . S
N380 C376 1.427 . S
N380 C377 1.384 . S
N381 C373 1.427 . S
N381 C379 1.384 . S
H382 C388 0.930 . S
H383 C392 0.930 . S
H384 C397 0.929 . S
H385 C395 0.929 . S
H386 C390 0.929 . S
H387 C396 0.929 . S
C388 H382 0.930 . S
C388 C389 1.367 . S
C388 C396 1.378 . S
C389 C388 1.367 . S
C389 C397 1.433 . S
C390 H386 0.929 . S
C390 C392 1.378 . S
C390 C394 1.350 . S
C391 C394 1.463 . S
C391 C396 1.350 . S
C391 N399 1.427 . S
C392 H383 0.930 . S
C392 C390 1.378 . S
C392 C393 1.367 . S
C393 C392 1.367 . S
C393 C395 1.433 . S
C394 C390 1.350 . S
C394 C391 1.463 . S
C394 N398 1.427 . S
C395 H385 0.929 . S
C395 C393 1.433 . S
C395 N398 1.384 . S
C396 H387 0.929 . S
C396 C388 1.378 . S
C396 C391 1.350 . S
C397 H384 0.929 . S
C397 C389 1.433 . S
C397 N399 1.384 . S
N398 C394 1.427 . S
N398 C395 1.384 . S
N399 C391 1.427 . S
N399 C397 1.384 . S
C119 C23 1.484 . S
C123 C9 1.485 . S
C137 C37 1.486 . S
C141 C51 1.485 . S
C155 C65 1.480 . S
C159 C79 1.479 . S
C173 C93 1.481 . S
C177 C107 1.480 . S
C191 C7 1.279 . S
C195 C49 1.269 . S
C209 C35 1.278 . S
C213 C21 1.269 . S
C227 C31 1.270 . S
C231 C17 1.269 . S
C245 C3 1.268 . S
C249 C45 1.270 . S
C263 C63 1.269 . S
C267 C105 1.280 . S
C281 C91 1.271 . S
C285 C77 1.280 . S
C299 C73 1.255 . S
C303 C87 1.258 . S
C317 C59 1.262 . S
C321 C101 1.256 . S
C335 C78 1.505 . S
C339 C8 1.506 . S
C353 C64 1.506 . S
C357 C22 1.508 . S
C371 C36 1.508 . S
C375 C106 1.509 . S
C389 C92 1.505 . S
C393 C50 1.507 . S
