# Generated by pormake.
# Topology lta, (4)-cn, num edge types: 1
# Building blocks:
#     Node 0, Type 0, BuildingBlock: UXUYUI_clean_sbu_0, # of connection points: 4
#     Node 1, Type 0, BuildingBlock: UXUYUI_clean_sbu_0, # of connection points: 4
#     Node 2, Type 0, BuildingBlock: UXUYUI_clean_sbu_0, # of connection points: 4
#     Node 3, Type 0, BuildingBlock: UXUYUI_clean_sbu_0, # of connection points: 4
#     Node 4, Type 0, BuildingBlock: UXUYUI_clean_sbu_0, # of connection points: 4
#     Node 5, Type 0, BuildingBlock: UXUYUI_clean_sbu_0, # of connection points: 4
#     Node 6, Type 0, BuildingBlock: UXUYUI_clean_sbu_0, # of connection points: 4
#     Node 7, Type 0, BuildingBlock: UXUYUI_clean_sbu_0, # of connection points: 4
#     Node 8, Type 0, BuildingBlock: UXUYUI_clean_sbu_0, # of connection points: 4
#     Node 9, Type 0, BuildingBlock: UXUYUI_clean_sbu_0, # of connection points: 4
#     Node 10, Type 0, BuildingBlock: UXUYUI_clean_sbu_0, # of connection points: 4
#     Node 11, Type 0, BuildingBlock: UXUYUI_clean_sbu_0, # of connection points: 4
#     Node 12, Type 0, BuildingBlock: UXUYUI_clean_sbu_0, # of connection points: 4
#     Node 13, Type 0, BuildingBlock: UXUYUI_clean_sbu_0, # of connection points: 4
#     Node 14, Type 0, BuildingBlock: UXUYUI_clean_sbu_0, # of connection points: 4
#     Node 15, Type 0, BuildingBlock: UXUYUI_clean_sbu_0, # of connection points: 4
#     Node 16, Type 0, BuildingBlock: UXUYUI_clean_sbu_0, # of connection points: 4
#     Node 17, Type 0, BuildingBlock: UXUYUI_clean_sbu_0, # of connection points: 4
#     Node 18, Type 0, BuildingBlock: UXUYUI_clean_sbu_0, # of connection points: 4
#     Node 19, Type 0, BuildingBlock: UXUYUI_clean_sbu_0, # of connection points: 4
#     Node 20, Type 0, BuildingBlock: UXUYUI_clean_sbu_0, # of connection points: 4
#     Node 21, Type 0, BuildingBlock: UXUYUI_clean_sbu_0, # of connection points: 4
#     Node 22, Type 0, BuildingBlock: UXUYUI_clean_sbu_0, # of connection points: 4
#     Node 23, Type 0, BuildingBlock: UXUYUI_clean_sbu_0, # of connection points: 4
#     Edge 24, Type (0, 0), BuildingBlock: XIVTED_clean_linker_0, # of connection points: 2
#     Edge 25, Type (0, 0), BuildingBlock: XIVTED_clean_linker_0, # of connection points: 2
#     Edge 26, Type (0, 0), BuildingBlock: XIVTED_clean_linker_0, # of connection points: 2
#     Edge 27, Type (0, 0), BuildingBlock: XIVTED_clean_linker_0, # of connection points: 2
#     Edge 28, Type (0, 0), BuildingBlock: XIVTED_clean_linker_0, # of connection points: 2
#     Edge 29, Type (0, 0), BuildingBlock: XIVTED_clean_linker_0, # of connection points: 2
#     Edge 30, Type (0, 0), BuildingBlock: XIVTED_clean_linker_0, # of connection points: 2
#     Edge 31, Type (0, 0), BuildingBlock: XIVTED_clean_linker_0, # of connection points: 2
#     Edge 32, Type (0, 0), BuildingBlock: XIVTED_clean_linker_0, # of connection points: 2
#     Edge 33, Type (0, 0), BuildingBlock: XIVTED_clean_linker_0, # of connection points: 2
#     Edge 34, Type (0, 0), BuildingBlock: XIVTED_clean_linker_0, # of connection points: 2
#     Edge 35, Type (0, 0), BuildingBlock: XIVTED_clean_linker_0, # of connection points: 2
#     Edge 36, Type (0, 0), BuildingBlock: XIVTED_clean_linker_0, # of connection points: 2
#     Edge 37, Type (0, 0), BuildingBlock: XIVTED_clean_linker_0, # of connection points: 2
#     Edge 38, Type (0, 0), BuildingBlock: XIVTED_clean_linker_0, # of connection points: 2
#     Edge 39, Type (0, 0), BuildingBlock: XIVTED_clean_linker_0, # of connection points: 2
#     Edge 40, Type (0, 0), BuildingBlock: XIVTED_clean_linker_0, # of connection points: 2
#     Edge 41, Type (0, 0), BuildingBlock: XIVTED_clean_linker_0, # of connection points: 2
#     Edge 42, Type (0, 0), BuildingBlock: XIVTED_clean_linker_0, # of connection points: 2
#     Edge 43, Type (0, 0), BuildingBlock: XIVTED_clean_linker_0, # of connection points: 2
#     Edge 44, Type (0, 0), BuildingBlock: XIVTED_clean_linker_0, # of connection points: 2
#     Edge 45, Type (0, 0), BuildingBlock: XIVTED_clean_linker_0, # of connection points: 2
#     Edge 46, Type (0, 0), BuildingBlock: XIVTED_clean_linker_0, # of connection points: 2
#     Edge 47, Type (0, 0), BuildingBlock: XIVTED_clean_linker_0, # of connection points: 2
#     Edge 48, Type (0, 0), BuildingBlock: XIVTED_clean_linker_0, # of connection points: 2
#     Edge 49, Type (0, 0), BuildingBlock: XIVTED_clean_linker_0, # of connection points: 2
#     Edge 50, Type (0, 0), BuildingBlock: XIVTED_clean_linker_0, # of connection points: 2
#     Edge 51, Type (0, 0), BuildingBlock: XIVTED_clean_linker_0, # of connection points: 2
#     Edge 52, Type (0, 0), BuildingBlock: XIVTED_clean_linker_0, # of connection points: 2
#     Edge 53, Type (0, 0), BuildingBlock: XIVTED_clean_linker_0, # of connection points: 2
#     Edge 54, Type (0, 0), BuildingBlock: XIVTED_clean_linker_0, # of connection points: 2
#     Edge 55, Type (0, 0), BuildingBlock: XIVTED_clean_linker_0, # of connection points: 2
#     Edge 56, Type (0, 0), BuildingBlock: XIVTED_clean_linker_0, # of connection points: 2
#     Edge 57, Type (0, 0), BuildingBlock: XIVTED_clean_linker_0, # of connection points: 2
#     Edge 58, Type (0, 0), BuildingBlock: XIVTED_clean_linker_0, # of connection points: 2
#     Edge 59, Type (0, 0), BuildingBlock: XIVTED_clean_linker_0, # of connection points: 2
#     Edge 60, Type (0, 0), BuildingBlock: XIVTED_clean_linker_0, # of connection points: 2
#     Edge 61, Type (0, 0), BuildingBlock: XIVTED_clean_linker_0, # of connection points: 2
#     Edge 62, Type (0, 0), BuildingBlock: XIVTED_clean_linker_0, # of connection points: 2
#     Edge 63, Type (0, 0), BuildingBlock: XIVTED_clean_linker_0, # of connection points: 2
#     Edge 64, Type (0, 0), BuildingBlock: XIVTED_clean_linker_0, # of connection points: 2
#     Edge 65, Type (0, 0), BuildingBlock: XIVTED_clean_linker_0, # of connection points: 2
#     Edge 66, Type (0, 0), BuildingBlock: XIVTED_clean_linker_0, # of connection points: 2
#     Edge 67, Type (0, 0), BuildingBlock: XIVTED_clean_linker_0, # of connection points: 2
#     Edge 68, Type (0, 0), BuildingBlock: XIVTED_clean_linker_0, # of connection points: 2
#     Edge 69, Type (0, 0), BuildingBlock: XIVTED_clean_linker_0, # of connection points: 2
#     Edge 70, Type (0, 0), BuildingBlock: XIVTED_clean_linker_0, # of connection points: 2
#     Edge 71, Type (0, 0), BuildingBlock: XIVTED_clean_linker_0, # of connection points: 2
# Relax obj value: 0.238
# Max RMSD: 0.085
# Mean RMSD: 0.085
data_MOF--net-lta--node1-UXUYUI_clean_sbu_0--edge1-XIVTED_clean_linker_0
_symmetry_space_group_name_H-M    P1
_symmetry_Int_Tables_number       1
_symmetry_cell_setting            triclinic
loop_
_symmetry_equiv_pos_as_xyz
'x, y, z'
_cell_length_a     83.492303
_cell_length_b     83.477262
_cell_length_c     83.514113
_cell_angle_alpha  89.99998
_cell_angle_beta   89.993249
_cell_angle_gamma 89.99892
loop_
_atom_site_label
_atom_site_type_symbol
_atom_site_fract_x
_atom_site_fract_y
_atom_site_fract_z
_atom_type_partial_charge
Li0 Li 0.12961 0.32321 0.51184 0.0
Li1 Li 0.13717 0.29806 0.49973 0.0
Li2 Li 0.12901 0.32099 0.48367 0.0
Li3 Li 0.10928 0.30622 0.49891 0.0
C4 C 0.16011 0.32821 0.50361 0.0
N5 N 0.18409 0.34705 0.51651 0.0
C6 C 0.17375 0.32112 0.51022 0.0
C7 C 0.15883 0.3449 0.50327 0.0
C8 C 0.1857 0.33084 0.51676 0.0
C9 C 0.17102 0.35421 0.50994 0.0
C10 C 0.11865 0.28702 0.52468 0.0
C11 C 0.11016 0.25954 0.52201 0.0
N12 N 0.11057 0.25793 0.53822 0.0
C13 C 0.11902 0.2851 0.54129 0.0
C14 C 0.11422 0.27414 0.51493 0.0
C15 C 0.11488 0.2703 0.54791 0.0
C16 C 0.12198 0.34845 0.53224 0.0
N17 N 0.13277 0.33652 0.52983 0.0
C18 C 0.14621 0.34287 0.55426 0.0
C19 C 0.1447 0.33349 0.5405 0.0
C20 C 0.13505 0.3551 0.55716 0.0
C21 C 0.12287 0.35791 0.54594 0.0
H22 H 0.11247 0.35039 0.52368 0.0
H23 H 0.15286 0.32365 0.53844 0.0
C24 C 0.1507 0.26729 0.49276 0.0
N25 N 0.15036 0.27995 0.50298 0.0
C26 C 0.16044 0.25415 0.49603 0.0
C27 C 0.16859 0.26691 0.52072 0.0
C28 C 0.15875 0.27984 0.51691 0.0
C29 C 0.16967 0.25392 0.5101 0.0
H30 H 0.1434 0.26725 0.48213 0.0
H31 H 0.15772 0.28982 0.52511 0.0
C32 C 0.10492 0.34145 0.48867 0.0
N33 N 0.09123 0.36494 0.46977 0.0
C34 C 0.09064 0.33841 0.48047 0.0
C35 C 0.11205 0.35656 0.48751 0.0
C36 C 0.08395 0.35041 0.47092 0.0
C37 C 0.10501 0.36824 0.47781 0.0
C38 C 0.12896 0.29193 0.46736 0.0
C39 C 0.14495 0.29525 0.46359 0.0
C40 C 0.11986 0.28235 0.4571 0.0
C41 C 0.15156 0.28886 0.44961 0.0
C42 C 0.12692 0.27616 0.44325 0.0
N43 N 0.14249 0.27952 0.43982 0.0
C44 C 0.14672 0.33878 0.46082 0.0
C45 C 0.12032 0.33191 0.45302 0.0
C46 C 0.14916 0.34692 0.44644 0.0
N47 N 0.13238 0.33175 0.46393 0.0
C48 C 0.1221 0.34019 0.43864 0.0
C49 C 0.13664 0.34799 0.4352 0.0
H50 H 0.15629 0.33802 0.46949 0.0
H51 H 0.10922 0.32576 0.4556 0.0
C52 C 0.08097 0.29803 0.51488 0.0
N53 N 0.08806 0.29869 0.50026 0.0
C54 C 0.06531 0.29247 0.51637 0.0
C55 C 0.06445 0.28872 0.48766 0.0
C56 C 0.08027 0.29403 0.48678 0.0
C57 C 0.05671 0.28794 0.50261 0.0
H58 H 0.0875 0.30183 0.52539 0.0
H59 H 0.08624 0.2948 0.47531 0.0
O60 O 0.14821 0.31888 0.49726 0.0
O61 O 0.12278 0.30143 0.51806 0.0
O62 O 0.11176 0.32977 0.49793 0.0
O63 O 0.12208 0.29825 0.48083 0.0
H64 H 0.17518 0.30826 0.51023 0.0
H65 H 0.14851 0.35058 0.49798 0.0
H66 H 0.19629 0.32549 0.52198 0.0
H67 H 0.1701 0.36714 0.50987 0.0
H68 H 0.1067 0.24947 0.51462 0.0
H69 H 0.12249 0.29495 0.54898 0.0
H70 H 0.11393 0.27538 0.50204 0.0
H71 H 0.1151 0.26864 0.56075 0.0
H72 H 0.15567 0.34031 0.56276 0.0
H73 H 0.11412 0.36732 0.54777 0.0
H74 H 0.16095 0.24443 0.48746 0.0
H75 H 0.17523 0.26706 0.53186 0.0
H76 H 0.08486 0.32687 0.48133 0.0
H77 H 0.12289 0.35926 0.49402 0.0
H78 H 0.07299 0.34817 0.4644 0.0
H79 H 0.11048 0.37993 0.47671 0.0
H80 H 0.15221 0.30263 0.47135 0.0
H81 H 0.10747 0.27969 0.45983 0.0
H82 H 0.16391 0.29132 0.44656 0.0
H83 H 0.12001 0.26871 0.43521 0.0
H84 H 0.16073 0.3523 0.44419 0.0
H85 H 0.11201 0.34076 0.43053 0.0
H86 H 0.06002 0.29181 0.52818 0.0
H87 H 0.05827 0.2857 0.47667 0.0
Li88 Li 0.69435 0.1345 0.5008 0.0
Li89 Li 0.66883 0.12953 0.51406 0.0
Li90 Li 0.68506 0.10766 0.50326 0.0
Li91 Li 0.67103 0.12643 0.48549 0.0
C92 C 0.69675 0.1134 0.53256 0.0
N93 N 0.70894 0.09339 0.55593 0.0
C94 C 0.68797 0.11042 0.54649 0.0
C95 C 0.71179 0.1063 0.53056 0.0
C96 C 0.69434 0.10026 0.55816 0.0
C97 C 0.71772 0.09618 0.54249 0.0
C98 C 0.66725 0.15941 0.50463 0.0
C99 C 0.64397 0.17513 0.51137 0.0
N100 N 0.6535 0.18565 0.51937 0.0
C101 C 0.67682 0.17037 0.5129 0.0
C102 C 0.6507 0.16181 0.5038 0.0
C103 C 0.66963 0.18357 0.52027 0.0
C104 C 0.71272 0.15928 0.48842 0.0
N105 N 0.71243 0.14792 0.50006 0.0
C106 C 0.73776 0.15654 0.51003 0.0
C107 C 0.72454 0.14636 0.5108 0.0
C108 C 0.73842 0.16838 0.49809 0.0
C109 C 0.7257 0.16965 0.48716 0.0
H110 H 0.70277 0.16031 0.4802 0.0
H111 H 0.72389 0.13731 0.52001 0.0
C112 C 0.6403 0.12792 0.53116 0.0
N113 N 0.65474 0.13537 0.5309 0.0
C114 C 0.62914 0.1316 0.54294 0.0
C115 C 0.64798 0.15042 0.55431 0.0
C116 C 0.65885 0.14633 0.54224 0.0
C117 C 0.63284 0.14307 0.55468 0.0
H118 H 0.63749 0.11897 0.52228 0.0
H119 H 0.67055 0.15187 0.5419 0.0
C120 C 0.70607 0.12155 0.47465 0.0
N121 N 0.7327 0.13004 0.45697 0.0
C122 C 0.70434 0.13061 0.46069 0.0
C123 C 0.72131 0.11667 0.47955 0.0
C124 C 0.71796 0.1348 0.45192 0.0
C125 C 0.73464 0.12113 0.47047 0.0
C126 C 0.64983 0.10401 0.49259 0.0
C127 C 0.65176 0.08839 0.48687 0.0
C128 C 0.63581 0.11246 0.48902 0.0
C129 C 0.63967 0.08153 0.47756 0.0
C130 C 0.62402 0.10519 0.47964 0.0
N131 N 0.62618 0.09001 0.47415 0.0
C132 C 0.68539 0.07794 0.51915 0.0
C133 C 0.69984 0.07856 0.49475 0.0
C134 C 0.68926 0.06186 0.52138 0.0
N135 N 0.69087 0.08595 0.50611 0.0
C136 C 0.70364 0.06235 0.49626 0.0
C137 C 0.69832 0.05372 0.50973 0.0
H138 H 0.67792 0.08403 0.52779 0.0
H139 H 0.70372 0.08515 0.4843 0.0
C140 C 0.65384 0.14352 0.46223 0.0
N141 N 0.66015 0.12895 0.46574 0.0
C142 C 0.64449 0.14555 0.44856 0.0
C143 C 0.6489 0.11768 0.44201 0.0
C144 C 0.65835 0.11626 0.45571 0.0
C145 C 0.64154 0.13241 0.43845 0.0
H146 H 0.65583 0.15351 0.4702 0.0
H147 H 0.66378 0.10488 0.45868 0.0
O148 O 0.69068 0.12325 0.52096 0.0
O149 O 0.67402 0.14629 0.49751 0.0
O150 O 0.69291 0.11761 0.48357 0.0
O151 O 0.66161 0.11101 0.50157 0.0
H152 H 0.67632 0.1158 0.54824 0.0
H153 H 0.7187 0.10839 0.51981 0.0
H154 H 0.68764 0.09779 0.56898 0.0
H155 H 0.72928 0.09051 0.54105 0.0
H156 H 0.63117 0.17709 0.51091 0.0
H157 H 0.68963 0.16865 0.51376 0.0
H158 H 0.64311 0.15337 0.49756 0.0
H159 H 0.67688 0.19213 0.52676 0.0
H160 H 0.74737 0.15515 0.51862 0.0
H161 H 0.72562 0.17879 0.47796 0.0
H162 H 0.61781 0.12528 0.54302 0.0
H163 H 0.65133 0.1593 0.56315 0.0
H164 H 0.69262 0.1345 0.45675 0.0
H165 H 0.72284 0.10965 0.49033 0.0
H166 H 0.71683 0.14189 0.44114 0.0
H167 H 0.74652 0.11754 0.47418 0.0
H168 H 0.66251 0.08166 0.4895 0.0
H169 H 0.63417 0.1246 0.49325 0.0
H170 H 0.64103 0.06947 0.473 0.0
H171 H 0.61319 0.11165 0.47667 0.0
H172 H 0.68505 0.0559 0.5321 0.0
H173 H 0.71028 0.05662 0.48673 0.0
H174 H 0.63945 0.15724 0.44608 0.0
H175 H 0.6469 0.10719 0.43466 0.0
Li176 Li 0.86113 0.69522 0.49723 0.0
Li177 Li 0.87298 0.67257 0.51045 0.0
Li178 Li 0.88957 0.69094 0.49328 0.0
Li179 Li 0.86947 0.67205 0.48187 0.0
C180 C 0.87958 0.70908 0.52265 0.0
N181 N 0.88304 0.73625 0.54126 0.0
C182 C 0.87337 0.70949 0.53819 0.0
C183 C 0.88764 0.72247 0.51661 0.0
C184 C 0.87521 0.72334 0.54739 0.0
C185 C 0.88923 0.7361 0.52619 0.0
C186 C 0.84248 0.66461 0.50758 0.0
C187 C 0.83327 0.63925 0.5179 0.0
N188 N 0.8224 0.64707 0.52717 0.0
C189 C 0.83118 0.6724 0.51716 0.0
C190 C 0.84349 0.6479 0.50787 0.0
C191 C 0.82114 0.66332 0.52699 0.0
C192 C 0.83106 0.70653 0.48972 0.0
N193 N 0.84462 0.71089 0.49759 0.0
C194 C 0.83412 0.73706 0.50228 0.0
C195 C 0.84633 0.72579 0.50391 0.0
C196 C 0.8201 0.73298 0.49394 0.0
C197 C 0.81859 0.71744 0.48772 0.0
H198 H 0.83013 0.69467 0.4846 0.0
H199 H 0.8572 0.72916 0.5099 0.0
C200 C 0.88441 0.64782 0.53014 0.0
N201 N 0.87355 0.65991 0.52934 0.0
C202 C 0.88483 0.63776 0.54347 0.0
C203 C 0.86298 0.6529 0.55498 0.0
C204 C 0.86317 0.66283 0.54154 0.0
C205 C 0.87386 0.64013 0.55598 0.0
H206 H 0.89265 0.64588 0.52036 0.0
H207 H 0.85487 0.67272 0.54074 0.0
C208 C 0.86579 0.70615 0.46782 0.0
N209 N 0.84924 0.72927 0.45092 0.0
C210 C 0.8537 0.7017 0.45714 0.0
C211 C 0.86958 0.72234 0.4698 0.0
C212 C 0.84545 0.71358 0.44872 0.0
C213 C 0.86103 0.73385 0.46118 0.0
C214 C 0.89635 0.65526 0.48522 0.0
C215 C 0.90959 0.65879 0.47562 0.0
C216 C 0.89013 0.63972 0.48539 0.0
C217 C 0.9163 0.64671 0.46617 0.0
C218 C 0.89715 0.62798 0.47575 0.0
N219 N 0.90998 0.6317 0.46642 0.0
C220 C 0.92035 0.69903 0.5029 0.0
C221 C 0.91348 0.70841 0.47698 0.0
C222 C 0.93555 0.70576 0.50162 0.0
N223 N 0.90977 0.70042 0.49065 0.0
C224 C 0.92859 0.71534 0.47517 0.0
C225 C 0.93987 0.71398 0.48758 0.0
H226 H 0.91696 0.69256 0.51361 0.0
H227 H 0.90474 0.70931 0.46746 0.0
C228 C 0.85027 0.6514 0.46342 0.0
N229 N 0.8645 0.65928 0.4638 0.0
C230 C 0.84621 0.64198 0.45023 0.0
C231 C 0.87146 0.64917 0.43799 0.0
C232 C 0.87491 0.65862 0.45133 0.0
C233 C 0.85695 0.64062 0.43733 0.0
H234 H 0.84199 0.65253 0.4733 0.0
H235 H 0.88595 0.66536 0.45179 0.0
O236 O 0.87827 0.69543 0.51368 0.0
O237 O 0.85253 0.6733 0.49798 0.0
O238 O 0.87369 0.69474 0.4765 0.0
O239 O 0.88951 0.66696 0.49442 0.0
H240 H 0.86722 0.6992 0.5431 0.0
H241 H 0.89239 0.72249 0.50459 0.0
H242 H 0.87045 0.72382 0.55943 0.0
H243 H 0.89536 0.74656 0.52164 0.0
H244 H 0.83399 0.62632 0.51832 0.0
H245 H 0.8303 0.68533 0.51717 0.0
H246 H 0.85217 0.64169 0.50053 0.0
H247 H 0.81239 0.66919 0.53454 0.0
H248 H 0.83569 0.74885 0.50746 0.0
H249 H 0.8081 0.71385 0.481 0.0
H250 H 0.89334 0.62797 0.54379 0.0
H251 H 0.85446 0.65517 0.56449 0.0
H252 H 0.85058 0.68923 0.45551 0.0
H253 H 0.87889 0.72597 0.47805 0.0
H254 H 0.83599 0.71032 0.44049 0.0
H255 H 0.86374 0.74644 0.46269 0.0
H256 H 0.91458 0.67075 0.47537 0.0
H257 H 0.87992 0.63678 0.4928 0.0
H258 H 0.9265 0.64929 0.45861 0.0
H259 H 0.8924 0.61593 0.47568 0.0
H260 H 0.94397 0.70414 0.51135 0.0
H261 H 0.93142 0.72163 0.46419 0.0
H262 H 0.83474 0.63594 0.45013 0.0
H263 H 0.8802 0.64839 0.42846 0.0
Li264 Li 0.3166 0.86583 0.51197 0.0
Li265 Li 0.29416 0.85729 0.49601 0.0
Li266 Li 0.31814 0.86822 0.48309 0.0
Li267 Li 0.29987 0.88578 0.49766 0.0
C268 C 0.32559 0.83588 0.49991 0.0
N269 N 0.34503 0.81056 0.50867 0.0
C270 C 0.31882 0.82132 0.50469 0.0
C271 C 0.34224 0.83747 0.49934 0.0
C272 C 0.32885 0.80869 0.50913 0.0
C273 C 0.35186 0.82455 0.50389 0.0
C274 C 0.28715 0.86388 0.52862 0.0
C275 C 0.27063 0.86473 0.55229 0.0
N276 N 0.27408 0.84906 0.55515 0.0
C277 C 0.29048 0.8478 0.53176 0.0
C278 C 0.27712 0.87243 0.53893 0.0
C279 C 0.28379 0.84052 0.54525 0.0
C280 C 0.3358 0.87658 0.53681 0.0
N281 N 0.32909 0.86301 0.53085 0.0
C282 C 0.34238 0.84715 0.55062 0.0
C283 C 0.33182 0.84849 0.53773 0.0
C284 C 0.34995 0.86091 0.55662 0.0
C285 C 0.34631 0.87582 0.54977 0.0
H286 H 0.33329 0.888 0.53122 0.0
H287 H 0.32607 0.83789 0.53311 0.0
C288 C 0.28108 0.83018 0.48242 0.0
N289 N 0.27797 0.84201 0.49314 0.0
C290 C 0.26969 0.81838 0.47942 0.0
C291 C 0.25198 0.83141 0.49831 0.0
C292 C 0.26373 0.84296 0.50095 0.0
C293 C 0.25495 0.81887 0.48749 0.0
H294 H 0.29246 0.82996 0.47623 0.0
H295 H 0.2615 0.85268 0.50921 0.0
C296 C 0.33691 0.89261 0.49513 0.0
N297 N 0.36443 0.90871 0.48631 0.0
C298 C 0.33589 0.90771 0.48798 0.0
C299 C 0.35192 0.88584 0.49809 0.0
C300 C 0.34994 0.91562 0.48352 0.0
C301 C 0.3657 0.89413 0.49346 0.0
C302 C 0.28033 0.87601 0.47235 0.0
C303 C 0.27737 0.8754 0.4559 0.0
C304 C 0.26782 0.87953 0.48291 0.0
C305 C 0.26189 0.87834 0.45026 0.0
C306 C 0.25251 0.88238 0.4768 0.0
N307 N 0.24989 0.88174 0.46074 0.0
C308 C 0.33665 0.85239 0.45969 0.0
C309 C 0.33433 0.88045 0.45617 0.0
C310 C 0.34597 0.85114 0.44587 0.0
N311 N 0.33125 0.86691 0.46465 0.0
C312 C 0.34375 0.87981 0.44241 0.0
C313 C 0.34974 0.86499 0.43706 0.0
H314 H 0.33353 0.84172 0.46631 0.0
H315 H 0.32935 0.89175 0.46003 0.0
C316 C 0.28961 0.91373 0.51295 0.0
N317 N 0.29161 0.9067 0.49842 0.0
C318 C 0.28503 0.92977 0.51392 0.0
C319 C 0.28413 0.93076 0.48497 0.0
C320 C 0.28883 0.91475 0.48456 0.0
C321 C 0.28252 0.93854 0.49979 0.0
H322 H 0.29207 0.90701 0.52374 0.0
H323 H 0.29082 0.90889 0.47318 0.0
O324 O 0.31593 0.84842 0.49564 0.0
O325 O 0.29337 0.87122 0.51537 0.0
O326 O 0.32327 0.88467 0.49953 0.0
O327 O 0.29543 0.8731 0.47801 0.0
H328 H 0.30596 0.81981 0.50505 0.0
H329 H 0.34767 0.84852 0.49537 0.0
H330 H 0.32377 0.7974 0.51296 0.0
H331 H 0.36477 0.82565 0.50358 0.0
H332 H 0.26284 0.8712 0.56037 0.0
H333 H 0.29803 0.84099 0.52379 0.0
H334 H 0.27432 0.88488 0.53658 0.0
H335 H 0.28627 0.82806 0.54781 0.0
H336 H 0.34471 0.83546 0.55575 0.0
H337 H 0.35197 0.88671 0.55397 0.0
H338 H 0.27235 0.80904 0.47082 0.0
H339 H 0.24082 0.83213 0.50489 0.0
H340 H 0.32436 0.91319 0.48575 0.0
H341 H 0.35294 0.87437 0.50399 0.0
H342 H 0.34933 0.92725 0.47784 0.0
H343 H 0.3774 0.88899 0.49561 0.0
H344 H 0.28694 0.87268 0.44759 0.0
H345 H 0.26987 0.88007 0.49568 0.0
H346 H 0.25942 0.87791 0.43755 0.0
H347 H 0.24271 0.88511 0.48482 0.0
H348 H 0.34994 0.83941 0.44203 0.0
H349 H 0.34641 0.89084 0.43613 0.0
H350 H 0.2839 0.93538 0.52556 0.0
H351 H 0.2826 0.9372 0.47381 0.0
Li352 Li 0.1058 0.6903 0.49308 0.0
Li353 Li 0.12098 0.67197 0.51019 0.0
Li354 Li 0.13419 0.69272 0.49318 0.0
Li355 Li 0.12302 0.66887 0.48078 0.0
C356 C 0.11048 0.70611 0.52037 0.0
N357 N 0.09141 0.72701 0.53755 0.0
C358 C 0.10377 0.70133 0.53494 0.0
C359 C 0.10764 0.72158 0.51463 0.0
C360 C 0.09413 0.71206 0.54343 0.0
C361 C 0.09791 0.73195 0.52346 0.0
C362 C 0.09494 0.65307 0.49658 0.0
C363 C 0.09249 0.62427 0.49576 0.0
N364 N 0.07692 0.62553 0.50038 0.0
C365 C 0.07884 0.65407 0.50109 0.0
C366 C 0.10176 0.63805 0.49371 0.0
C367 C 0.06997 0.64001 0.50305 0.0
C368 C 0.08261 0.70987 0.47797 0.0
N369 N 0.08603 0.70119 0.49131 0.0
C370 C 0.06037 0.70698 0.50243 0.0
C371 C 0.07532 0.69968 0.50346 0.0
C372 C 0.05633 0.71576 0.48866 0.0
C373 C 0.06772 0.7173 0.47637 0.0
H374 H 0.09132 0.71074 0.46844 0.0
H375 H 0.0783 0.69253 0.51383 0.0
C376 C 0.13544 0.65892 0.5377 0.0
N377 N 0.12127 0.6607 0.52991 0.0
C378 C 0.13634 0.64946 0.55145 0.0
C379 C 0.10788 0.64454 0.54931 0.0
C380 C 0.10754 0.65415 0.53567 0.0
C381 C 0.12248 0.64183 0.55724 0.0
H382 H 0.14613 0.66451 0.53298 0.0
H383 H 0.09635 0.65615 0.52954 0.0
C384 C 0.12718 0.70151 0.46348 0.0
N385 N 0.14258 0.72181 0.44237 0.0
C386 C 0.13614 0.69523 0.45081 0.0
C387 C 0.12589 0.7181 0.4653 0.0
C388 C 0.14386 0.7057 0.44028 0.0
C389 C 0.13383 0.72817 0.45455 0.0
C390 C 0.15141 0.65785 0.49744 0.0
C391 C 0.16734 0.66033 0.49292 0.0
C392 C 0.14667 0.64277 0.50297 0.0
C393 C 0.17818 0.64761 0.49371 0.0
C394 C 0.15786 0.63036 0.50361 0.0
N395 N 0.17325 0.633 0.49898 0.0
C396 C 0.15095 0.72061 0.50122 0.0
C397 C 0.16281 0.70527 0.48046 0.0
C398 C 0.16242 0.73255 0.49934 0.0
N399 N 0.15121 0.70746 0.49167 0.0
C400 C 0.17456 0.71691 0.47817 0.0
C401 C 0.1743 0.73086 0.48756 0.0
H402 H 0.14169 0.72193 0.51015 0.0
H403 H 0.16264 0.6947 0.47298 0.0
C404 C 0.1108 0.65036 0.45584 0.0
N405 N 0.12458 0.65405 0.46367 0.0
C406 C 0.11094 0.63931 0.44332 0.0
C407 C 0.1395 0.63628 0.44696 0.0
C408 C 0.13882 0.64747 0.45934 0.0
C409 C 0.12542 0.63198 0.43881 0.0
H410 H 0.09969 0.65598 0.45941 0.0
H411 H 0.14967 0.65087 0.46546 0.0
O412 O 0.11986 0.69572 0.51184 0.0
O413 O 0.10378 0.66676 0.49462 0.0
O414 O 0.11974 0.69145 0.47405 0.0
O415 O 0.14067 0.67023 0.49672 0.0
H416 H 0.10592 0.68944 0.53961 0.0
H417 H 0.11272 0.72548 0.50337 0.0
H418 H 0.0888 0.70849 0.55468 0.0
H419 H 0.09551 0.74391 0.51909 0.0
H420 H 0.09766 0.61259 0.49361 0.0
H421 H 0.07326 0.66556 0.50317 0.0
H422 H 0.11401 0.637 0.48971 0.0
H423 H 0.05754 0.64063 0.50666 0.0
H424 H 0.05183 0.7052 0.51202 0.0
H425 H 0.06504 0.72395 0.46557 0.0
H426 H 0.14779 0.64798 0.55735 0.0
H427 H 0.0969 0.63886 0.55324 0.0
H428 H 0.13723 0.68242 0.4492 0.0
H429 H 0.11899 0.72315 0.47503 0.0
H430 H 0.15091 0.70101 0.43047 0.0
H431 H 0.13305 0.74103 0.4559 0.0
H432 H 0.1713 0.67195 0.48881 0.0
H433 H 0.13456 0.64071 0.50697 0.0
H434 H 0.19052 0.64936 0.49016 0.0
H435 H 0.15433 0.61864 0.50787 0.0
H436 H 0.16202 0.74299 0.50703 0.0
H437 H 0.18347 0.71522 0.4689 0.0
H438 H 0.09983 0.63663 0.43718 0.0
H439 H 0.15092 0.63088 0.444 0.0
Li440 Li 0.32091 0.12614 0.50277 0.0
Li441 Li 0.30236 0.10995 0.4879 0.0
Li442 Li 0.31788 0.13025 0.47449 0.0
Li443 Li 0.29677 0.13762 0.49218 0.0
C444 C 0.34219 0.10961 0.48319 0.0
N445 N 0.37492 0.10728 0.47866 0.0
C446 C 0.34897 0.09524 0.47791 0.0
C447 C 0.3521 0.12277 0.48624 0.0
C448 C 0.36553 0.09431 0.47567 0.0
C449 C 0.36859 0.12136 0.48386 0.0
C450 C 0.29844 0.11021 0.52118 0.0
C451 C 0.28855 0.1021 0.54708 0.0
N452 N 0.29787 0.08876 0.54638 0.0
C453 C 0.30792 0.09641 0.52072 0.0
C454 C 0.28865 0.11308 0.53445 0.0
C455 C 0.30747 0.08572 0.53358 0.0
C456 C 0.33712 0.14032 0.52865 0.0
N457 N 0.33537 0.12647 0.52031 0.0
C458 C 0.35485 0.11343 0.53666 0.0
C459 C 0.34391 0.11313 0.52407 0.0
C460 C 0.35715 0.12764 0.54538 0.0
C461 C 0.34803 0.1412 0.5413 0.0
H462 H 0.33017 0.15074 0.52534 0.0
H463 H 0.34235 0.10227 0.51721 0.0
C464 C 0.30279 0.07843 0.47765 0.0
N465 N 0.29388 0.089 0.48619 0.0
C466 C 0.29931 0.06213 0.47829 0.0
C467 C 0.27671 0.06807 0.49544 0.0
C468 C 0.28078 0.08427 0.49467 0.0
C469 C 0.2864 0.05682 0.48762 0.0
H470 H 0.31307 0.08259 0.47099 0.0
H471 H 0.27407 0.0929 0.50159 0.0
C472 C 0.31788 0.16189 0.48486 0.0
N473 N 0.31639 0.19218 0.47159 0.0
C474 C 0.30917 0.1645 0.47079 0.0
C475 C 0.32584 0.17467 0.49215 0.0
C476 C 0.30856 0.1799 0.46428 0.0
C477 C 0.32494 0.1899 0.48526 0.0
C478 C 0.2791 0.12231 0.46808 0.0
C479 C 0.27417 0.12154 0.45211 0.0
C480 C 0.26791 0.11989 0.4803 0.0
C481 C 0.25812 0.11833 0.44862 0.0
C482 C 0.25198 0.11672 0.47633 0.0
N483 N 0.24745 0.11601 0.4607 0.0
C484 C 0.32448 0.12707 0.44173 0.0
C485 C 0.34192 0.14484 0.45537 0.0
C486 C 0.33334 0.12876 0.42765 0.0
N487 N 0.32905 0.13488 0.45525 0.0
C488 C 0.35123 0.14671 0.44165 0.0
C489 C 0.34717 0.13839 0.42757 0.0
H490 H 0.31418 0.11922 0.44202 0.0
H491 H 0.3453 0.15091 0.46629 0.0
C492 C 0.27822 0.15644 0.51241 0.0
N493 N 0.28053 0.15257 0.49678 0.0
C494 C 0.26575 0.16666 0.51676 0.0
C495 C 0.25845 0.16879 0.48879 0.0
C496 C 0.27115 0.15869 0.48497 0.0
C497 C 0.25557 0.17275 0.50487 0.0
H498 H 0.28596 0.1514 0.52148 0.0
H499 H 0.27337 0.15553 0.47262 0.0
O500 O 0.32597 0.11065 0.48542 0.0
O501 O 0.2985 0.12083 0.50869 0.0
O502 O 0.31866 0.14695 0.49156 0.0
O503 O 0.29479 0.12554 0.47158 0.0
H504 H 0.34154 0.08489 0.47558 0.0
H505 H 0.34715 0.13398 0.49042 0.0
H506 H 0.37092 0.08326 0.47157 0.0
H507 H 0.37637 0.13147 0.48616 0.0
H508 H 0.28103 0.10417 0.55742 0.0
H509 H 0.31547 0.0939 0.51052 0.0
H510 H 0.28118 0.12366 0.53496 0.0
H511 H 0.31472 0.07498 0.53336 0.0
H512 H 0.3614 0.10261 0.53953 0.0
H513 H 0.34954 0.15245 0.54756 0.0
H514 H 0.30698 0.0537 0.4721 0.0
H515 H 0.26678 0.06429 0.50288 0.0
H516 H 0.30298 0.15478 0.46492 0.0
H517 H 0.33265 0.17284 0.50302 0.0
H518 H 0.30186 0.18209 0.45341 0.0
H519 H 0.33105 0.1999 0.49078 0.0
H520 H 0.28267 0.12343 0.4425 0.0
H521 H 0.27143 0.12058 0.49273 0.0
H522 H 0.25415 0.1177 0.43631 0.0
H523 H 0.2432 0.11485 0.48568 0.0
H524 H 0.32955 0.12233 0.41705 0.0
H525 H 0.36189 0.15407 0.44232 0.0
H526 H 0.26386 0.16947 0.52928 0.0
H527 H 0.25099 0.1735 0.47928 0.0
Li528 Li 0.88711 0.30013 0.49281 0.0
Li529 Li 0.86924 0.31871 0.50674 0.0
Li530 Li 0.85903 0.29567 0.49213 0.0
Li531 Li 0.86995 0.31865 0.47793 0.0
C532 C 0.86622 0.2846 0.52065 0.0
N533 N 0.85069 0.26178 0.5389 0.0
C534 C 0.85605 0.28929 0.53309 0.0
C535 C 0.8686 0.26831 0.51757 0.0
C536 C 0.8483 0.27756 0.54218 0.0
C537 C 0.86059 0.25696 0.52689 0.0
C538 C 0.89538 0.33527 0.50109 0.0
C539 C 0.8972 0.36239 0.51088 0.0
N540 N 0.91023 0.35823 0.51973 0.0
C541 C 0.90883 0.33127 0.51022 0.0
C542 C 0.88955 0.35097 0.50134 0.0
C543 C 0.91616 0.34305 0.51957 0.0
C544 C 0.91861 0.29545 0.48243 0.0
N545 N 0.90772 0.2909 0.49362 0.0
C546 C 0.92741 0.27548 0.50745 0.0
C547 C 0.91171 0.28101 0.50591 0.0
C548 C 0.93895 0.28014 0.49616 0.0
C549 C 0.93434 0.29001 0.48336 0.0
H550 H 0.91516 0.3037 0.47307 0.0
H551 H 0.90286 0.27788 0.51482 0.0
C552 C 0.85563 0.34304 0.52613 0.0
N553 N 0.86726 0.33169 0.52527 0.0
C554 C 0.85504 0.35349 0.53916 0.0
C555 C 0.87811 0.34003 0.55037 0.0
C556 C 0.87818 0.32978 0.53718 0.0
C557 C 0.86654 0.3522 0.55137 0.0
H558 H 0.84702 0.34419 0.51656 0.0
H559 H 0.88718 0.32051 0.53622 0.0
C560 C 0.88399 0.28752 0.46402 0.0
N561 N 0.90579 0.27144 0.445 0.0
C562 C 0.89035 0.29492 0.45042 0.0
C563 C 0.88863 0.27189 0.46788 0.0
C564 C 0.90137 0.28659 0.44097 0.0
C565 C 0.8997 0.26398 0.45814 0.0
C566 C 0.83955 0.32612 0.48366 0.0
C567 C 0.82721 0.31789 0.47591 0.0
C568 C 0.84057 0.34278 0.48227 0.0
C569 C 0.81611 0.32648 0.46679 0.0
C570 C 0.82927 0.35092 0.473 0.0
N571 N 0.81738 0.34268 0.46552 0.0
C572 C 0.83056 0.28075 0.50219 0.0
C573 C 0.84506 0.26681 0.48212 0.0
C574 C 0.81939 0.26837 0.50311 0.0
N575 N 0.84317 0.2796 0.49198 0.0
C576 C 0.83416 0.25418 0.4826 0.0
C577 C 0.82122 0.25481 0.49331 0.0
H578 H 0.82934 0.29118 0.50977 0.0
H579 H 0.85514 0.26629 0.47405 0.0
C580 C 0.87978 0.34356 0.45778 0.0
N581 N 0.86876 0.3317 0.45938 0.0
C582 C 0.87917 0.35389 0.4447 0.0
C583 C 0.856 0.33946 0.43498 0.0
C584 C 0.85725 0.3292 0.44813 0.0
C585 C 0.86702 0.35203 0.43325 0.0
H586 H 0.88901 0.34505 0.46672 0.0
H587 H 0.84892 0.31939 0.44948 0.0
O588 O 0.87363 0.29589 0.5114 0.0
O589 O 0.88778 0.32382 0.49216 0.0
O590 O 0.87328 0.29552 0.4735 0.0
O591 O 0.85059 0.3179 0.49255 0.0
H592 H 0.85403 0.30184 0.5356 0.0
H593 H 0.87636 0.26449 0.50792 0.0
H594 H 0.84033 0.28101 0.55179 0.0
H595 H 0.8622 0.24432 0.52455 0.0
H596 H 0.89274 0.37455 0.5113 0.0
H597 H 0.91346 0.31917 0.51023 0.0
H598 H 0.8791 0.35424 0.49441 0.0
H599 H 0.92653 0.34011 0.52676 0.0
H600 H 0.93059 0.26798 0.51754 0.0
H601 H 0.943 0.29415 0.47463 0.0
H602 H 0.84599 0.36278 0.53941 0.0
H603 H 0.88704 0.33849 0.55964 0.0
H604 H 0.8869 0.30699 0.44722 0.0
H605 H 0.88393 0.26602 0.47843 0.0
H606 H 0.90644 0.2922 0.43044 0.0
H607 H 0.90349 0.25194 0.46105 0.0
H608 H 0.82626 0.305 0.47681 0.0
H609 H 0.85013 0.34932 0.48806 0.0
H610 H 0.80653 0.32026 0.46067 0.0
H611 H 0.82998 0.3638 0.47171 0.0
H612 H 0.80942 0.26942 0.51134 0.0
H613 H 0.83606 0.24389 0.47494 0.0
H614 H 0.88785 0.36349 0.44376 0.0
H615 H 0.84659 0.33758 0.42626 0.0
Li616 Li 0.68898 0.88237 0.49779 0.0
Li617 Li 0.67378 0.86138 0.51216 0.0
Li618 Li 0.6946 0.85485 0.49359 0.0
Li619 Li 0.66957 0.86562 0.48364 0.0
C620 C 0.70925 0.85958 0.5213 0.0
N621 N 0.73476 0.84388 0.53539 0.0
C622 C 0.70656 0.84644 0.53131 0.0
C623 C 0.7249 0.86491 0.51869 0.0
C624 C 0.71962 0.83862 0.53827 0.0
C625 C 0.73764 0.85676 0.52585 0.0
C626 C 0.64932 0.88275 0.50338 0.0
C627 C 0.62293 0.87145 0.50657 0.0
N628 N 0.61674 0.88647 0.50779 0.0
C629 C 0.64271 0.89807 0.50466 0.0
C630 C 0.63937 0.86932 0.50433 0.0
C631 C 0.6262 0.89971 0.50689 0.0
C632 C 0.69421 0.91404 0.4876 0.0
N633 N 0.69678 0.90345 0.49969 0.0
C634 C 0.70813 0.9239 0.5161 0.0
C635 C 0.70376 0.90795 0.51368 0.0
C636 C 0.70541 0.93515 0.50392 0.0
C637 C 0.69866 0.93003 0.4894 0.0
H638 H 0.68832 0.91014 0.47675 0.0
H639 H 0.70545 0.89925 0.52312 0.0
C640 C 0.66014 0.84089 0.53542 0.0
N641 N 0.66353 0.85635 0.53164 0.0
C642 C 0.65186 0.83731 0.5495 0.0
C643 C 0.65088 0.86565 0.55548 0.0
C644 C 0.65928 0.86865 0.54138 0.0
C645 C 0.64695 0.84981 0.55967 0.0
H646 H 0.66379 0.83137 0.52743 0.0
H647 H 0.66211 0.88083 0.53797 0.0
C648 C 0.70198 0.87938 0.46728 0.0
N649 N 0.7228 0.89632 0.4479 0.0
C650 C 0.69791 0.88265 0.45138 0.0
C651 C 0.7167 0.88462 0.47327 0.0
C652 C 0.70858 0.89125 0.44178 0.0
C653 C 0.72705 0.8932 0.46331 0.0
C654 C 0.67158 0.83234 0.4848 0.0
C655 C 0.67792 0.8335 0.46934 0.0
C656 C 0.66392 0.81824 0.48955 0.0
C657 C 0.67646 0.82052 0.45889 0.0
C658 C 0.6627 0.80552 0.47875 0.0
N659 N 0.66894 0.80691 0.46377 0.0
C660 C 0.70927 0.82545 0.49814 0.0
C661 C 0.72322 0.84198 0.47974 0.0
C662 C 0.72087 0.81356 0.49673 0.0
N663 N 0.71077 0.83939 0.48989 0.0
C664 C 0.7351 0.83038 0.47792 0.0
C665 C 0.73406 0.816 0.4866 0.0
H666 H 0.69916 0.82369 0.50604 0.0
H667 H 0.724 0.85302 0.4731 0.0
C668 C 0.65351 0.87902 0.45746 0.0
N669 N 0.65378 0.86609 0.46733 0.0
C670 C 0.64213 0.88008 0.44526 0.0
C671 C 0.63119 0.85472 0.45399 0.0
C672 C 0.64277 0.85417 0.466 0.0
C673 C 0.63084 0.86775 0.44335 0.0
H674 H 0.66215 0.88854 0.45911 0.0
H675 H 0.64283 0.8443 0.47436 0.0
O676 O 0.69663 0.86717 0.51411 0.0
O677 O 0.66546 0.88101 0.50116 0.0
O678 O 0.6915 0.87124 0.47692 0.0
O679 O 0.6729 0.84483 0.49536 0.0
H680 H 0.69454 0.84216 0.5335 0.0
H681 H 0.72721 0.87525 0.51125 0.0
H682 H 0.71771 0.82833 0.54591 0.0
H683 H 0.74982 0.8607 0.52384 0.0
H684 H 0.61509 0.86116 0.50733 0.0
H685 H 0.65027 0.90859 0.50392 0.0
H686 H 0.64427 0.85736 0.50335 0.0
H687 H 0.62092 0.91149 0.50791 0.0
H688 H 0.71325 0.92749 0.52747 0.0
H689 H 0.69612 0.93845 0.47987 0.0
H690 H 0.64927 0.82492 0.55233 0.0
H691 H 0.64709 0.8757 0.56274 0.0
H692 H 0.68668 0.8785 0.44645 0.0
H693 H 0.72004 0.88218 0.48551 0.0
H694 H 0.70557 0.89388 0.42946 0.0
H695 H 0.73844 0.89739 0.46783 0.0
H696 H 0.6839 0.84427 0.46538 0.0
H697 H 0.65895 0.81713 0.50147 0.0
H698 H 0.6813 0.82126 0.4469 0.0
H699 H 0.65679 0.79454 0.48228 0.0
H700 H 0.71969 0.80276 0.50381 0.0
H701 H 0.74496 0.83262 0.4698 0.0
H702 H 0.64231 0.89033 0.43732 0.0
H703 H 0.62246 0.84516 0.4532 0.0
Li704 Li 0.49929 0.13561 0.29679 0.0
Li705 Li 0.51232 0.12654 0.32054 0.0
Li706 Li 0.49777 0.10747 0.30162 0.0
Li707 Li 0.483 0.12677 0.31816 0.0
C708 C 0.52675 0.12485 0.28582 0.0
N709 N 0.54497 0.13507 0.2602 0.0
C710 C 0.53922 0.13575 0.28821 0.0
C711 C 0.52362 0.11901 0.27046 0.0
C712 C 0.54828 0.1408 0.27508 0.0
C713 C 0.53295 0.12436 0.25764 0.0
C714 C 0.49753 0.15399 0.33218 0.0
C715 C 0.49426 0.15518 0.36084 0.0
N716 N 0.49673 0.17128 0.36039 0.0
C717 C 0.49996 0.17056 0.33198 0.0
C718 C 0.49461 0.14625 0.34671 0.0
C719 C 0.49954 0.17908 0.34637 0.0
C720 C 0.49632 0.14842 0.26544 0.0
N721 N 0.50216 0.15081 0.28043 0.0
C722 C 0.51412 0.17552 0.27266 0.0
C723 C 0.51096 0.16394 0.28422 0.0
C724 C 0.50808 0.17355 0.2571 0.0
C725 C 0.49915 0.15974 0.25349 0.0
H726 H 0.48953 0.13771 0.26278 0.0
H727 H 0.51569 0.16527 0.29619 0.0
C728 C 0.53711 0.11497 0.33991 0.0
N729 N 0.53039 0.12852 0.33391 0.0
C730 C 0.55049 0.11594 0.34987 0.0
C731 C 0.54997 0.14477 0.34694 0.0
C732 C 0.53666 0.14323 0.33697 0.0
C733 C 0.55698 0.13101 0.3536 0.0
H734 H 0.53198 0.10343 0.33703 0.0
H735 H 0.53137 0.15376 0.33162 0.0
C736 C 0.46694 0.12984 0.2895 0.0
N737 N 0.44023 0.14611 0.27866 0.0
C738 C 0.46533 0.14626 0.29236 0.0
C739 C 0.45496 0.1217 0.28111 0.0
C740 C 0.45174 0.15427 0.28679 0.0
C741 C 0.44155 0.13014 0.27573 0.0
C742 C 0.49315 0.09848 0.33731 0.0
C743 C 0.48397 0.08491 0.33387 0.0
C744 C 0.49879 0.10087 0.3529 0.0
C745 C 0.48024 0.07417 0.34615 0.0
C746 C 0.49482 0.08985 0.36485 0.0
N747 N 0.48569 0.07685 0.36126 0.0
C748 C 0.51293 0.08009 0.29021 0.0
C749 C 0.48457 0.07888 0.28933 0.0
C750 C 0.51408 0.06447 0.28447 0.0
N751 N 0.49835 0.08681 0.29274 0.0
C752 C 0.48514 0.06311 0.28381 0.0
C753 C 0.50006 0.05559 0.28157 0.0
H754 H 0.52368 0.08682 0.29289 0.0
H755 H 0.47315 0.08462 0.29143 0.0
C756 C 0.45777 0.14495 0.3321 0.0
N757 N 0.4633 0.12985 0.32946 0.0
C758 C 0.44362 0.14741 0.34065 0.0
C759 C 0.44081 0.11873 0.3432 0.0
C760 C 0.45492 0.11684 0.33446 0.0
C761 C 0.43503 0.13419 0.34655 0.0
H762 H 0.46436 0.15514 0.32761 0.0
H763 H 0.45918 0.10498 0.33173 0.0
O764 O 0.51747 0.12009 0.29844 0.0
O765 O 0.49804 0.14553 0.31815 0.0
O766 O 0.48005 0.12163 0.29492 0.0
O767 O 0.49719 0.10898 0.32534 0.0
H768 H 0.54175 0.14038 0.30005 0.0
H769 H 0.51395 0.11062 0.26843 0.0
H770 H 0.5579 0.14932 0.27672 0.0
H771 H 0.5306 0.12006 0.24565 0.0
H772 H 0.49197 0.14932 0.37217 0.0
H773 H 0.50217 0.17677 0.32082 0.0
H774 H 0.49238 0.13354 0.34702 0.0
H775 H 0.50145 0.1919 0.34639 0.0
H776 H 0.52128 0.18586 0.27586 0.0
H777 H 0.49413 0.15786 0.24168 0.0
H778 H 0.55548 0.10506 0.35485 0.0
H779 H 0.55479 0.15658 0.34932 0.0
H780 H 0.47444 0.1528 0.29883 0.0
H781 H 0.45601 0.10898 0.27881 0.0
H782 H 0.45035 0.16697 0.28894 0.0
H783 H 0.43218 0.12398 0.26923 0.0
H784 H 0.47956 0.0828 0.32191 0.0
H785 H 0.50625 0.11106 0.35579 0.0
H786 H 0.47302 0.06371 0.34366 0.0
H787 H 0.49905 0.09161 0.37697 0.0
H788 H 0.52583 0.05932 0.28259 0.0
H789 H 0.47401 0.05671 0.28194 0.0
H790 H 0.43947 0.15954 0.34257 0.0
H791 H 0.43471 0.10814 0.34756 0.0
Li792 Li 0.85946 0.51487 0.3183 0.0
Li793 Li 0.85404 0.49731 0.29523 0.0
Li794 Li 0.86459 0.48589 0.31997 0.0
Li795 Li 0.88085 0.50297 0.30213 0.0
C796 C 0.82949 0.50074 0.32297 0.0
N797 N 0.80014 0.50925 0.33565 0.0
C798 C 0.81728 0.50625 0.31293 0.0
C799 C 0.82676 0.49945 0.33943 0.0
C800 C 0.80252 0.5105 0.31959 0.0
C801 C 0.81185 0.50387 0.34562 0.0
C802 C 0.8736 0.52899 0.28676 0.0
C803 C 0.88969 0.53493 0.26351 0.0
N804 N 0.89364 0.54933 0.27002 0.0
C805 C 0.87771 0.5439 0.29316 0.0
C806 C 0.87952 0.52451 0.27176 0.0
C807 C 0.88789 0.554 0.28453 0.0
C808 C 0.86756 0.54058 0.33717 0.0
N809 N 0.85451 0.53339 0.33062 0.0
C810 C 0.8372 0.55276 0.34271 0.0
C811 C 0.83952 0.53936 0.33293 0.0
C812 C 0.8505 0.56024 0.34974 0.0
C813 C 0.86584 0.55411 0.34675 0.0
H814 H 0.87937 0.53576 0.33493 0.0
H815 H 0.82935 0.53379 0.32726 0.0
C816 C 0.8307 0.47954 0.27894 0.0
N817 N 0.8398 0.49302 0.27833 0.0
C818 C 0.82069 0.47561 0.26618 0.0
C819 C 0.82908 0.49993 0.25283 0.0
C820 C 0.83909 0.50325 0.26574 0.0
C821 C 0.8198 0.48586 0.25287 0.0
H822 H 0.83142 0.47174 0.28925 0.0
H823 H 0.84628 0.51402 0.26575 0.0
C824 C 0.88506 0.50152 0.34048 0.0
N825 N 0.89743 0.49586 0.37061 0.0
C826 C 0.90121 0.49753 0.34231 0.0
C827 C 0.87522 0.50275 0.35395 0.0
C828 C 0.90724 0.49469 0.35765 0.0
C829 C 0.8817 0.49981 0.36909 0.0
C830 C 0.86837 0.47009 0.28685 0.0
C831 C 0.86199 0.45544 0.29185 0.0
C832 C 0.87081 0.47292 0.27053 0.0
C833 C 0.85795 0.44392 0.2804 0.0
C834 C 0.86658 0.46111 0.25945 0.0
N835 N 0.86029 0.44699 0.26457 0.0
C836 C 0.85022 0.4614 0.33798 0.0
C837 C 0.8786 0.46138 0.33848 0.0
C838 C 0.84975 0.44784 0.34773 0.0
N839 N 0.8645 0.4679 0.33368 0.0
C840 C 0.87871 0.44796 0.34842 0.0
C841 C 0.86413 0.44096 0.35317 0.0
H842 H 0.8392 0.46659 0.33361 0.0
H843 H 0.88978 0.46657 0.33453 0.0
C844 C 0.91044 0.51838 0.30258 0.0
N845 N 0.90212 0.50638 0.29542 0.0
C846 C 0.92678 0.5201 0.29971 0.0
C847 C 0.92551 0.49745 0.28167 0.0
C848 C 0.90917 0.49616 0.28491 0.0
C849 C 0.93459 0.50927 0.28947 0.0
H850 H 0.90447 0.52622 0.31099 0.0
H851 H 0.90228 0.48659 0.2796 0.0
O852 O 0.84398 0.49641 0.31669 0.0
O853 O 0.86387 0.51881 0.29516 0.0
O854 O 0.87893 0.50414 0.32554 0.0
O855 O 0.87222 0.48159 0.29787 0.0
H856 H 0.81919 0.50734 0.30017 0.0
H857 H 0.83605 0.49511 0.34734 0.0
H858 H 0.79297 0.51483 0.31198 0.0
H859 H 0.80959 0.503 0.35834 0.0
H860 H 0.89446 0.53155 0.25195 0.0
H861 H 0.87313 0.54764 0.30467 0.0
H862 H 0.87645 0.51302 0.26662 0.0
H863 H 0.89124 0.56554 0.28938 0.0
H864 H 0.8252 0.55728 0.34467 0.0
H865 H 0.87637 0.5595 0.35208 0.0
H866 H 0.81386 0.46459 0.2667 0.0
H867 H 0.82847 0.50842 0.24305 0.0
H868 H 0.90897 0.49652 0.33197 0.0
H869 H 0.86272 0.50591 0.35272 0.0
H870 H 0.9197 0.49151 0.35926 0.0
H871 H 0.87422 0.50067 0.37964 0.0
H872 H 0.86008 0.45301 0.30442 0.0
H873 H 0.87571 0.48418 0.26644 0.0
H874 H 0.85293 0.43257 0.28409 0.0
H875 H 0.86826 0.4632 0.24678 0.0
H876 H 0.83824 0.44269 0.35076 0.0
H877 H 0.89009 0.44323 0.35242 0.0
H878 H 0.93335 0.52945 0.30585 0.0
H879 H 0.93112 0.48872 0.27388 0.0
Li880 Li 0.50407 0.86948 0.32125 0.0
Li881 Li 0.49221 0.88603 0.29909 0.0
Li882 Li 0.47562 0.86818 0.31724 0.0
Li883 Li 0.49301 0.85722 0.2977 0.0
C884 C 0.49497 0.89684 0.33448 0.0
N885 N 0.50891 0.91533 0.35813 0.0
C886 C 0.50344 0.9107 0.33043 0.0
C887 C 0.49345 0.89247 0.35057 0.0
C888 C 0.51043 0.91987 0.34256 0.0
C889 C 0.50063 0.90194 0.36234 0.0
C890 C 0.52282 0.8649 0.29016 0.0
C891 C 0.53581 0.85969 0.2649 0.0
N892 N 0.54519 0.84851 0.27213 0.0
C893 C 0.53262 0.8534 0.29736 0.0
C894 C 0.52444 0.86814 0.27382 0.0
C895 C 0.54385 0.84523 0.28803 0.0
C896 C 0.52195 0.85698 0.34708 0.0
N897 N 0.521 0.86918 0.33636 0.0
C898 C 0.54459 0.88126 0.34711 0.0
C899 C 0.53211 0.88107 0.336 0.0
C900 C 0.54574 0.86894 0.3585 0.0
C901 C 0.53425 0.85665 0.35836 0.0
H902 H 0.51321 0.84746 0.34685 0.0
H903 H 0.53127 0.89039 0.32705 0.0
C904 C 0.48037 0.91556 0.28858 0.0
N905 N 0.49336 0.90579 0.28844 0.0
C906 C 0.48164 0.93126 0.28298 0.0
C907 C 0.50942 0.92616 0.27649 0.0
C908 C 0.50763 0.91062 0.28231 0.0
C909 C 0.49645 0.93687 0.27724 0.0
H910 H 0.46925 0.91138 0.29375 0.0
H911 H 0.51782 0.90264 0.28262 0.0
C912 C 0.48196 0.83984 0.32932 0.0
N913 N 0.46362 0.8196 0.34805 0.0
C914 C 0.47495 0.82617 0.32262 0.0
C915 C 0.47967 0.84315 0.34557 0.0
C916 C 0.46574 0.81609 0.33229 0.0
C917 C 0.47033 0.8328 0.35482 0.0
C918 C 0.46612 0.86537 0.28102 0.0
C919 C 0.45906 0.85023 0.28201 0.0
C920 C 0.46478 0.87426 0.2669 0.0
C921 C 0.45089 0.84413 0.26875 0.0
C922 C 0.45648 0.86775 0.25391 0.0
N923 N 0.44977 0.85295 0.25509 0.0
C924 C 0.45222 0.87951 0.33831 0.0
C925 C 0.44543 0.85461 0.32648 0.0
C926 C 0.43859 0.87898 0.34793 0.0
N927 N 0.45558 0.86725 0.32814 0.0
C928 C 0.4318 0.85344 0.33609 0.0
C929 C 0.42841 0.86564 0.34713 0.0
H930 H 0.46031 0.88956 0.33922 0.0
H931 H 0.44812 0.84518 0.31808 0.0
C932 C 0.50252 0.82628 0.28873 0.0
N933 N 0.49691 0.84039 0.28287 0.0
C934 C 0.5062 0.81372 0.27837 0.0
C935 C 0.49883 0.83067 0.25608 0.0
C936 C 0.49534 0.84289 0.26687 0.0
C937 C 0.50427 0.81582 0.2618 0.0
H938 H 0.50436 0.82486 0.30147 0.0
H939 H 0.49162 0.85446 0.26245 0.0
O940 O 0.48826 0.88755 0.32276 0.0
O941 O 0.51147 0.87271 0.29902 0.0
O942 O 0.49099 0.84991 0.32003 0.0
O943 O 0.47423 0.87157 0.29381 0.0
H944 H 0.50475 0.91428 0.31807 0.0
H945 H 0.48687 0.88184 0.35393 0.0
H946 H 0.51709 0.93058 0.33959 0.0
H947 H 0.49964 0.89865 0.37483 0.0
H948 H 0.53711 0.86198 0.25222 0.0
H949 H 0.53143 0.85067 0.30997 0.0
H950 H 0.5168 0.87686 0.26803 0.0
H951 H 0.55146 0.83623 0.29341 0.0
H952 H 0.55336 0.89081 0.34664 0.0
H953 H 0.53466 0.84697 0.36697 0.0
H954 H 0.4714 0.93915 0.28402 0.0
H955 H 0.521 0.92993 0.27202 0.0
H956 H 0.47638 0.82347 0.31004 0.0
H957 H 0.48491 0.85369 0.35095 0.0
H958 H 0.46019 0.80553 0.32723 0.0
H959 H 0.46839 0.8353 0.36739 0.0
H960 H 0.46016 0.84314 0.29277 0.0
H961 H 0.47017 0.88602 0.26597 0.0
H962 H 0.44547 0.83237 0.2693 0.0
H963 H 0.45538 0.87446 0.24289 0.0
H964 H 0.43639 0.88859 0.35636 0.0
H965 H 0.42411 0.84304 0.33506 0.0
H966 H 0.51071 0.80258 0.28325 0.0
H967 H 0.49713 0.83281 0.2434 0.0
Li968 Li 0.12579 0.50321 0.31919 0.0
Li969 Li 0.10733 0.48949 0.30115 0.0
Li970 Li 0.12651 0.47427 0.31718 0.0
Li971 Li 0.13486 0.49064 0.29458 0.0
C972 C 0.10164 0.49453 0.33761 0.0
N973 N 0.08799 0.5098 0.36361 0.0
C974 C 0.08778 0.50372 0.33565 0.0
C975 C 0.10849 0.49301 0.35281 0.0
C976 C 0.08107 0.51135 0.34895 0.0
C977 C 0.10143 0.50086 0.36579 0.0
C978 C 0.12605 0.51931 0.28614 0.0
C979 C 0.12998 0.52775 0.2588 0.0
N980 N 0.14 0.53952 0.26397 0.0
C981 C 0.13634 0.5315 0.29118 0.0
C982 C 0.12278 0.51743 0.26983 0.0
C983 C 0.14328 0.5416 0.27978 0.0
C984 C 0.13983 0.52251 0.34362 0.0
N985 N 0.12752 0.52107 0.33307 0.0
C986 C 0.11529 0.54488 0.34307 0.0
C987 C 0.11559 0.5321 0.33234 0.0
C988 C 0.12756 0.54644 0.35444 0.0
C989 C 0.1401 0.53522 0.35448 0.0
H990 H 0.14929 0.5137 0.34376 0.0
H991 H 0.10612 0.53076 0.32361 0.0
C992 C 0.07575 0.47927 0.30159 0.0
N993 N 0.0858 0.48979 0.29433 0.0
C994 C 0.05928 0.48051 0.29931 0.0
C995 C 0.06389 0.50291 0.28151 0.0
C996 C 0.08031 0.5013 0.28421 0.0
C997 C 0.05317 0.49273 0.28952 0.0
H998 H 0.0805 0.47043 0.30977 0.0
H999 H 0.08859 0.50969 0.27887 0.0
C1000 C 0.15696 0.48191 0.32369 0.0
N1001 N 0.18127 0.46538 0.33892 0.0
C1002 C 0.16954 0.47534 0.3148 0.0
C1003 C 0.15678 0.48011 0.34034 0.0
C1004 C 0.18171 0.46703 0.32272 0.0
C1005 C 0.16916 0.47169 0.34781 0.0
C1006 C 0.11012 0.46222 0.28657 0.0
C1007 C 0.10418 0.44837 0.29386 0.0
C1008 C 0.10417 0.46693 0.27164 0.0
C1009 C 0.09227 0.43951 0.28614 0.0
C1010 C 0.09224 0.45776 0.26433 0.0
N1011 N 0.08658 0.44436 0.27167 0.0
C1012 C 0.11859 0.45131 0.34022 0.0
C1013 C 0.14216 0.4451 0.32564 0.0
C1014 C 0.12038 0.43757 0.34951 0.0
N1015 N 0.12957 0.45495 0.32877 0.0
C1016 C 0.14464 0.43141 0.33492 0.0
C1017 C 0.13368 0.42761 0.34706 0.0
H1018 H 0.10847 0.45914 0.34219 0.0
H1019 H 0.15038 0.44796 0.31607 0.0
C1020 C 0.16307 0.50174 0.28056 0.0
N1021 N 0.15 0.49243 0.27796 0.0
C1022 C 0.17486 0.50311 0.26884 0.0
C1023 C 0.15926 0.48557 0.25184 0.0
C1024 C 0.14785 0.48443 0.26397 0.0
C1025 C 0.17308 0.49489 0.25426 0.0
H1026 H 0.16444 0.50789 0.29188 0.0
H1027 H 0.13732 0.47712 0.26227 0.0
O1028 O 0.10864 0.48728 0.32468 0.0
O1029 O 0.11944 0.50907 0.29708 0.0
O1030 O 0.14488 0.49003 0.31615 0.0
O1031 O 0.12158 0.47121 0.29406 0.0
H1032 H 0.08239 0.50518 0.32397 0.0
H1033 H 0.1192 0.48595 0.35454 0.0
H1034 H 0.0704 0.51858 0.34759 0.0
H1035 H 0.10667 0.49987 0.3776 0.0
H1036 H 0.12765 0.52637 0.24614 0.0
H1037 H 0.13909 0.53306 0.30375 0.0
H1038 H 0.11497 0.50794 0.26571 0.0
H1039 H 0.15133 0.55105 0.2835 0.0
H1040 H 0.10555 0.55344 0.3425 0.0
H1041 H 0.14976 0.536 0.3631 0.0
H1042 H 0.05137 0.47237 0.3056 0.0
H1043 H 0.05958 0.51259 0.27401 0.0
H1044 H 0.16982 0.47645 0.30191 0.0
H1045 H 0.1471 0.485 0.3474 0.0
H1046 H 0.19148 0.46183 0.31599 0.0
H1047 H 0.16911 0.47013 0.36066 0.0
H1048 H 0.10864 0.44454 0.3054 0.0
H1049 H 0.1085 0.47771 0.2659 0.0
H1050 H 0.08752 0.4288 0.29167 0.0
H1051 H 0.08743 0.46134 0.25284 0.0
H1052 H 0.11171 0.43497 0.3588 0.0
H1053 H 0.15494 0.42385 0.33264 0.0
H1054 H 0.18541 0.51022 0.27135 0.0
H1055 H 0.15728 0.47922 0.24071 0.0
Li1056 Li 0.48615 0.86248 0.66783 0.0
Li1057 Li 0.50211 0.87994 0.68523 0.0
Li1058 Li 0.51478 0.85838 0.66995 0.0
Li1059 Li 0.4974 0.85295 0.69294 0.0
C1060 C 0.49787 0.8847 0.64845 0.0
N1061 N 0.48524 0.8992 0.62155 0.0
C1062 C 0.49126 0.90004 0.6495 0.0
C1063 C 0.49818 0.87677 0.63372 0.0
C1064 C 0.48492 0.90717 0.63576 0.0
C1065 C 0.49169 0.88429 0.62026 0.0
C1066 C 0.46987 0.86694 0.70088 0.0
C1067 C 0.46119 0.86622 0.72841 0.0
N1068 N 0.44717 0.85937 0.72373 0.0
C1069 C 0.45534 0.85998 0.69632 0.0
C1070 C 0.47279 0.87019 0.71703 0.0
C1071 C 0.44402 0.85622 0.70806 0.0
C1072 C 0.46476 0.84745 0.64648 0.0
N1073 N 0.46817 0.86144 0.65404 0.0
C1074 C 0.44543 0.87409 0.6422 0.0
C1075 C 0.45874 0.87459 0.65228 0.0
C1076 C 0.44162 0.85983 0.63408 0.0
C1077 C 0.45147 0.84636 0.63642 0.0
H1078 H 0.47227 0.83709 0.64839 0.0
H1079 H 0.46158 0.88546 0.65871 0.0
C1080 C 0.51731 0.90957 0.685 0.0
N1081 N 0.50492 0.9014 0.69165 0.0
C1082 C 0.51898 0.92595 0.68772 0.0
C1083 C 0.49529 0.92509 0.7044 0.0
C1084 C 0.49412 0.90869 0.70138 0.0
C1085 C 0.50763 0.93399 0.69719 0.0
H1086 H 0.52557 0.90345 0.67712 0.0
H1087 H 0.48423 0.90192 0.70626 0.0
C1088 C 0.50385 0.82852 0.66567 0.0
N1089 N 0.51768 0.80116 0.65323 0.0
C1090 C 0.50873 0.81619 0.67588 0.0
C1091 C 0.50588 0.8269 0.64914 0.0
C1092 C 0.51571 0.80245 0.66935 0.0
C1093 C 0.51295 0.81299 0.64309 0.0
C1094 C 0.52861 0.87363 0.7008 0.0
C1095 C 0.54323 0.87788 0.69384 0.0
C1096 C 0.52456 0.87963 0.71588 0.0
C1097 C 0.55349 0.88825 0.70204 0.0
C1098 C 0.53513 0.88998 0.72369 0.0
N1099 N 0.54926 0.89404 0.71666 0.0
C1100 C 0.5389 0.86456 0.6481 0.0
C1101 C 0.54257 0.83978 0.6615 0.0
C1102 C 0.55316 0.86249 0.63975 0.0
N1103 N 0.53384 0.85326 0.65866 0.0
C1104 C 0.5568 0.83705 0.6531 0.0
C1105 C 0.56225 0.84859 0.64218 0.0
H1106 H 0.53197 0.87535 0.64636 0.0
H1107 H 0.5386 0.83125 0.67037 0.0
C1108 C 0.48041 0.82988 0.71059 0.0
N1109 N 0.49382 0.83909 0.71033 0.0
C1110 C 0.47743 0.81976 0.72352 0.0
C1111 C 0.50251 0.82827 0.73525 0.0
C1112 C 0.50485 0.83843 0.72224 0.0
C1113 C 0.4886 0.81881 0.73608 0.0
H1114 H 0.47201 0.83046 0.70075 0.0
H1115 H 0.51556 0.84566 0.72153 0.0
O1116 O 0.50396 0.87743 0.66179 0.0
O1117 O 0.48116 0.87055 0.68958 0.0
O1118 O 0.49699 0.84206 0.67182 0.0
O1119 O 0.5183 0.86368 0.69286 0.0
H1120 H 0.49088 0.90632 0.66083 0.0
H1121 H 0.50329 0.8649 0.63272 0.0
H1122 H 0.47969 0.919 0.6364 0.0
H1123 H 0.49176 0.87827 0.60879 0.0
H1124 H 0.46334 0.86855 0.74097 0.0
H1125 H 0.45288 0.85737 0.68387 0.0
H1126 H 0.48398 0.87554 0.72077 0.0
H1127 H 0.43276 0.85076 0.70472 0.0
H1128 H 0.43833 0.88483 0.64066 0.0
H1129 H 0.44884 0.83502 0.63072 0.0
H1130 H 0.52875 0.93233 0.68207 0.0
H1131 H 0.48616 0.93087 0.71158 0.0
H1132 H 0.50724 0.81724 0.6887 0.0
H1133 H 0.50216 0.83634 0.64108 0.0
H1134 H 0.5196 0.79282 0.67711 0.0
H1135 H 0.51469 0.81161 0.63032 0.0
H1136 H 0.54659 0.87333 0.68219 0.0
H1137 H 0.51329 0.87645 0.72144 0.0
H1138 H 0.56482 0.8917 0.69677 0.0
H1139 H 0.5321 0.8948 0.73533 0.0
H1140 H 0.557 0.87162 0.63135 0.0
H1141 H 0.56363 0.82625 0.65535 0.0
H1142 H 0.46647 0.81284 0.72366 0.0
H1143 H 0.51169 0.82764 0.74438 0.0
Li1144 Li 0.12064 0.50989 0.67324 0.0
Li1145 Li 0.1337 0.49831 0.69568 0.0
Li1146 Li 0.12276 0.48083 0.67582 0.0
Li1147 Li 0.10515 0.49625 0.69464 0.0
C1148 C 0.15331 0.50549 0.66941 0.0
N1149 N 0.17971 0.52399 0.66196 0.0
C1150 C 0.15544 0.52043 0.67665 0.0
C1151 C 0.16461 0.49995 0.65838 0.0
C1152 C 0.16886 0.5296 0.67273 0.0
C1153 C 0.17788 0.50948 0.65477 0.0
C1154 C 0.11782 0.52663 0.70825 0.0
C1155 C 0.11137 0.53333 0.7356 0.0
N1156 N 0.11753 0.54824 0.73332 0.0
C1157 C 0.12396 0.54207 0.70614 0.0
C1158 C 0.11135 0.52226 0.72305 0.0
C1159 C 0.12376 0.5528 0.71898 0.0
C1160 C 0.11189 0.54059 0.66285 0.0
N1161 N 0.12023 0.52726 0.65871 0.0
C1162 C 0.12893 0.53951 0.63441 0.0
C1163 C 0.12857 0.52643 0.64477 0.0
C1164 C 0.12069 0.55362 0.63849 0.0
C1165 C 0.11199 0.55402 0.65289 0.0
H1166 H 0.10533 0.54087 0.67402 0.0
H1167 H 0.13506 0.51564 0.64174 0.0
C1168 C 0.16322 0.48828 0.70619 0.0
N1169 N 0.15199 0.4997 0.70915 0.0
C1170 C 0.17669 0.48699 0.71592 0.0
C1171 C 0.16747 0.51006 0.73082 0.0
C1172 C 0.15397 0.51067 0.72102 0.0
C1173 C 0.17879 0.49791 0.72845 0.0
H1174 H 0.16147 0.4799 0.69647 0.0
H1175 H 0.14506 0.51973 0.72314 0.0
C1176 C 0.09831 0.49314 0.6552 0.0
N1177 N 0.08836 0.49181 0.62369 0.0
C1178 C 0.08214 0.49519 0.65141 0.0
C1179 C 0.10943 0.49044 0.64299 0.0
C1180 C 0.07735 0.49447 0.63539 0.0
C1181 C 0.10416 0.4898 0.62713 0.0
C1182 C 0.12829 0.47095 0.71124 0.0
C1183 C 0.13772 0.45755 0.70779 0.0
C1184 C 0.12726 0.4765 0.727 0.0
C1185 C 0.14625 0.45014 0.72013 0.0
C1186 C 0.136 0.46877 0.739 0.0
N1187 N 0.14526 0.45587 0.73533 0.0
C1188 C 0.14044 0.45633 0.66149 0.0
C1189 C 0.11229 0.45346 0.65902 0.0
C1190 C 0.14295 0.44261 0.65229 0.0
N1191 N 0.12531 0.4615 0.66449 0.0
C1192 C 0.11423 0.4398 0.6496 0.0
C1193 C 0.12974 0.43428 0.64597 0.0
H1194 H 0.15054 0.46297 0.66614 0.0
H1195 H 0.1004 0.45791 0.66162 0.0
C1196 C 0.07504 0.50795 0.70276 0.0
N1197 N 0.08549 0.49581 0.7055 0.0
C1198 C 0.05978 0.50751 0.70948 0.0
C1199 C 0.06655 0.4823 0.72208 0.0
C1200 C 0.08171 0.48324 0.71511 0.0
C1201 C 0.05526 0.49442 0.71907 0.0
H1202 H 0.07845 0.51773 0.69496 0.0
H1203 H 0.09033 0.47376 0.71702 0.0
O1204 O 0.14019 0.49632 0.67292 0.0
O1205 O 0.11778 0.51605 0.69573 0.0
O1206 O 0.10316 0.49381 0.67083 0.0
O1207 O 0.12016 0.47861 0.69924 0.0
H1208 H 0.14684 0.52488 0.68521 0.0
H1209 H 0.1631 0.48843 0.65263 0.0
H1210 H 0.17065 0.54119 0.67825 0.0
H1211 H 0.18672 0.50536 0.64624 0.0
H1212 H 0.10645 0.53008 0.74713 0.0
H1213 H 0.12884 0.54575 0.69472 0.0
H1214 H 0.10636 0.51047 0.72488 0.0
H1215 H 0.12853 0.56476 0.71753 0.0
H1216 H 0.13554 0.53854 0.62329 0.0
H1217 H 0.10559 0.56467 0.6566 0.0
H1218 H 0.18531 0.47752 0.71377 0.0
H1219 H 0.16878 0.51862 0.74048 0.0
H1220 H 0.0734 0.49731 0.66075 0.0
H1221 H 0.12199 0.48885 0.64571 0.0
H1222 H 0.06487 0.49602 0.63227 0.0
H1223 H 0.11264 0.48772 0.61755 0.0
H1224 H 0.13857 0.45302 0.6957 0.0
H1225 H 0.11994 0.48675 0.72993 0.0
H1226 H 0.15371 0.43984 0.7176 0.0
H1227 H 0.13544 0.47305 0.75121 0.0
H1228 H 0.1551 0.43867 0.65007 0.0
H1229 H 0.10369 0.43398 0.6448 0.0
H1230 H 0.05138 0.51697 0.7066 0.0
H1231 H 0.06358 0.47206 0.72948 0.0
Li1232 Li 0.49202 0.13436 0.69779 0.0
Li1233 Li 0.47854 0.12788 0.6727 0.0
Li1234 Li 0.4929 0.10826 0.68816 0.0
Li1235 Li 0.50791 0.12928 0.67421 0.0
C1236 C 0.46541 0.10822 0.70234 0.0
N1237 N 0.45016 0.08318 0.71771 0.0
C1238 C 0.45244 0.10053 0.69508 0.0
C1239 C 0.47043 0.10336 0.71754 0.0
C1240 C 0.44493 0.08785 0.70301 0.0
C1241 C 0.46262 0.09062 0.72508 0.0
C1242 C 0.48403 0.16081 0.67879 0.0
C1243 C 0.4812 0.18914 0.6739 0.0
N1244 N 0.46717 0.1891 0.68217 0.0
C1245 C 0.46957 0.16105 0.68726 0.0
C1246 C 0.48992 0.17497 0.67208 0.0
C1247 C 0.46124 0.17547 0.68883 0.0
C1248 C 0.50244 0.15929 0.71742 0.0
N1249 N 0.49094 0.14788 0.71586 0.0
C1250 C 0.47725 0.15759 0.73898 0.0
C1251 C 0.47844 0.14685 0.72624 0.0
C1252 C 0.48918 0.16921 0.74104 0.0
C1253 C 0.50194 0.16998 0.73019 0.0
H1254 H 0.51186 0.16021 0.7086 0.0
H1255 H 0.46922 0.13795 0.72441 0.0
C1256 C 0.4551 0.11607 0.65268 0.0
N1257 N 0.46112 0.13019 0.6581 0.0
C1258 C 0.44322 0.11588 0.64096 0.0
C1259 C 0.44385 0.14482 0.64056 0.0
C1260 C 0.45584 0.14445 0.65221 0.0
C1261 C 0.43751 0.13039 0.6347 0.0
H1262 H 0.45984 0.1049 0.65721 0.0
H1263 H 0.46118 0.15553 0.6561 0.0
C1264 C 0.52103 0.12574 0.70813 0.0
N1265 N 0.54016 0.13672 0.73282 0.0
C1266 C 0.53439 0.13529 0.70484 0.0
C1267 C 0.51758 0.12156 0.72397 0.0
C1268 C 0.54388 0.14077 0.71748 0.0
C1269 C 0.52734 0.1273 0.73628 0.0
C1270 C 0.49497 0.11257 0.64849 0.0
C1271 C 0.49559 0.0983 0.63977 0.0
C1272 C 0.49509 0.12725 0.64041 0.0
C1273 C 0.49637 0.09895 0.62307 0.0
C1274 C 0.49589 0.12738 0.62371 0.0
N1275 N 0.49651 0.11335 0.61545 0.0
C1276 C 0.48499 0.07652 0.68265 0.0
C1277 C 0.50262 0.08012 0.70464 0.0
C1278 C 0.48603 0.05994 0.68415 0.0
N1279 N 0.4934 0.08616 0.69267 0.0
C1280 C 0.50396 0.06356 0.70664 0.0
C1281 C 0.49586 0.05329 0.69607 0.0
H1282 H 0.47778 0.08174 0.67324 0.0
H1283 H 0.50929 0.08812 0.71231 0.0
C1284 C 0.53162 0.14929 0.66025 0.0
N1285 N 0.52636 0.13397 0.66199 0.0
C1286 C 0.54411 0.1527 0.64964 0.0
C1287 C 0.54555 0.12449 0.64311 0.0
C1288 C 0.53331 0.12159 0.65405 0.0
C1289 C 0.55086 0.14023 0.64066 0.0
H1290 H 0.52586 0.15885 0.6668 0.0
H1291 H 0.5289 0.10953 0.65577 0.0
O1292 O 0.47317 0.12044 0.69462 0.0
O1293 O 0.49265 0.14693 0.67742 0.0
O1294 O 0.51154 0.12036 0.69589 0.0
O1295 O 0.49417 0.11207 0.66485 0.0
H1296 H 0.44818 0.10431 0.68348 0.0
H1297 H 0.48032 0.10927 0.72341 0.0
H1298 H 0.43494 0.08173 0.69748 0.0
H1299 H 0.46649 0.08665 0.73679 0.0
H1300 H 0.48561 0.20019 0.66875 0.0
H1301 H 0.46478 0.15023 0.6925 0.0
H1302 H 0.50109 0.17502 0.66552 0.0
H1303 H 0.45004 0.17582 0.69534 0.0
H1304 H 0.46717 0.15686 0.74712 0.0
H1305 H 0.51116 0.17905 0.73133 0.0
H1306 H 0.43863 0.10449 0.63678 0.0
H1307 H 0.43998 0.15625 0.63579 0.0
H1308 H 0.53737 0.13853 0.69267 0.0
H1309 H 0.50742 0.11407 0.72676 0.0
H1310 H 0.55418 0.14826 0.71511 0.0
H1311 H 0.52471 0.12427 0.7486 0.0
H1312 H 0.49548 0.08685 0.64585 0.0
H1313 H 0.49458 0.13842 0.64694 0.0
H1314 H 0.49687 0.088 0.61616 0.0
H1315 H 0.49602 0.13865 0.6173 0.0
H1316 H 0.47945 0.0524 0.6759 0.0
H1317 H 0.51176 0.05887 0.71588 0.0
H1318 H 0.54795 0.16498 0.64793 0.0
H1319 H 0.5506 0.11461 0.63638 0.0
Li1320 Li 0.87233 0.50953 0.67312 0.0
Li1321 Li 0.88777 0.49293 0.69195 0.0
Li1322 Li 0.87046 0.48025 0.6724 0.0
Li1323 Li 0.86015 0.49549 0.69509 0.0
C1324 C 0.89301 0.4934 0.65227 0.0
N1325 N 0.90014 0.49273 0.61998 0.0
C1326 C 0.90877 0.491 0.64719 0.0
C1327 C 0.88086 0.49541 0.64093 0.0
C1328 C 0.91214 0.49072 0.63081 0.0
C1329 C 0.88471 0.49505 0.62466 0.0
C1330 C 0.86893 0.52286 0.70718 0.0
C1331 C 0.86183 0.52926 0.73446 0.0
N1332 N 0.85324 0.54204 0.72917 0.0
C1333 C 0.86013 0.53614 0.70204 0.0
C1334 C 0.86991 0.51948 0.72355 0.0
C1335 C 0.85225 0.54567 0.71332 0.0
C1336 C 0.858 0.53504 0.65653 0.0
N1337 N 0.87226 0.52808 0.66011 0.0
C1338 C 0.88626 0.54709 0.64398 0.0
C1339 C 0.88627 0.53389 0.65424 0.0
C1340 C 0.87169 0.55453 0.63994 0.0
C1341 C 0.85744 0.54842 0.64655 0.0
H1342 H 0.84707 0.53021 0.66151 0.0
H1343 H 0.89744 0.52807 0.6573 0.0
C1344 C 0.91823 0.47967 0.6966 0.0
N1345 N 0.90799 0.49112 0.70193 0.0
C1346 C 0.93349 0.47832 0.70325 0.0
C1347 C 0.92719 0.50037 0.72097 0.0
C1348 C 0.91209 0.50135 0.7139 0.0
C1349 C 0.93822 0.48889 0.71549 0.0
H1350 H 0.9146 0.47177 0.687 0.0
H1351 H 0.90373 0.5104 0.71781 0.0
C1352 C 0.83798 0.4895 0.6708 0.0
N1353 N 0.80812 0.47557 0.66773 0.0
C1354 C 0.83442 0.47531 0.67897 0.0
C1355 C 0.82634 0.49661 0.6611 0.0
C1356 C 0.81926 0.46846 0.67725 0.0
C1357 C 0.81132 0.48937 0.65969 0.0
C1358 C 0.88048 0.46505 0.70545 0.0
C1359 C 0.88389 0.44938 0.70062 0.0
C1360 C 0.88537 0.47023 0.7206 0.0
C1361 C 0.89259 0.43935 0.71081 0.0
C1362 C 0.89407 0.45986 0.73043 0.0
N1363 N 0.8975 0.44476 0.72536 0.0
C1364 C 0.88177 0.45265 0.65723 0.0
C1365 C 0.85639 0.46087 0.64762 0.0
C1366 C 0.88201 0.43982 0.64652 0.0
N1367 N 0.86896 0.46267 0.65782 0.0
C1368 C 0.85614 0.44824 0.63668 0.0
C1369 C 0.86903 0.43745 0.63607 0.0
H1370 H 0.89191 0.45474 0.66502 0.0
H1371 H 0.8467 0.4694 0.6476 0.0
C1372 C 0.83086 0.50717 0.70689 0.0
N1373 N 0.84317 0.49698 0.71 0.0
C1374 C 0.81845 0.50893 0.71792 0.0
C1375 C 0.83173 0.48975 0.73512 0.0
C1376 C 0.84375 0.4882 0.72367 0.0
C1377 C 0.81892 0.50025 0.73229 0.0
H1378 H 0.83079 0.51405 0.69591 0.0
H1379 H 0.8536 0.4801 0.72575 0.0
O1380 O 0.88955 0.49354 0.66828 0.0
O1381 O 0.87641 0.51318 0.69624 0.0
O1382 O 0.85266 0.49662 0.67243 0.0
O1383 O 0.87203 0.47507 0.69556 0.0
H1384 H 0.9183 0.48935 0.65584 0.0
H1385 H 0.86857 0.49719 0.64463 0.0
H1386 H 0.92429 0.48888 0.6267 0.0
H1387 H 0.87543 0.49659 0.61576 0.0
H1388 H 0.86236 0.52666 0.74714 0.0
H1389 H 0.85928 0.53904 0.68947 0.0
H1390 H 0.87661 0.50927 0.72781 0.0
H1391 H 0.84533 0.55592 0.70948 0.0
H1392 H 0.89753 0.55113 0.63901 0.0
H1393 H 0.84596 0.55391 0.64409 0.0
H1394 H 0.94167 0.46949 0.69842 0.0
H1395 H 0.93025 0.50865 0.73046 0.0
H1396 H 0.84323 0.46962 0.68654 0.0
H1397 H 0.82889 0.50759 0.6547 0.0
H1398 H 0.81634 0.45749 0.6835 0.0
H1399 H 0.8022 0.49473 0.65221 0.0
H1400 H 0.87969 0.44491 0.68925 0.0
H1401 H 0.8827 0.48222 0.72464 0.0
H1402 H 0.89537 0.42723 0.70717 0.0
H1403 H 0.89811 0.46382 0.74208 0.0
H1404 H 0.89223 0.43183 0.64647 0.0
H1405 H 0.84611 0.4472 0.62853 0.0
H1406 H 0.80876 0.51719 0.7154 0.0
H1407 H 0.83235 0.48271 0.746 0.0
Li1408 Li 0.32304 0.51218 0.1218 0.0
Li1409 Li 0.30074 0.49937 0.13364 0.0
Li1410 Li 0.32243 0.48351 0.12107 0.0
Li1411 Li 0.30385 0.50033 0.10451 0.0
C1412 C 0.32564 0.50508 0.1546 0.0
N1413 N 0.32973 0.52061 0.18353 0.0
C1414 C 0.31948 0.52049 0.15683 0.0
C1415 C 0.33388 0.49757 0.16707 0.0
C1416 C 0.32167 0.52814 0.17154 0.0
C1417 C 0.33582 0.50562 0.18162 0.0
C1418 C 0.28506 0.52425 0.11822 0.0
C1419 C 0.25678 0.51968 0.11448 0.0
N1420 N 0.25408 0.53568 0.11596 0.0
C1421 C 0.28201 0.54064 0.11972 0.0
C1422 C 0.27235 0.51368 0.1156 0.0
C1423 C 0.26626 0.54619 0.11854 0.0
C1424 C 0.33239 0.54413 0.11716 0.0
N1425 N 0.33704 0.52997 0.12368 0.0
C1426 C 0.36168 0.54143 0.13253 0.0
C1427 C 0.35132 0.52838 0.13132 0.0
C1428 C 0.35727 0.55624 0.12583 0.0
C1429 C 0.34237 0.5575 0.11809 0.0
H1430 H 0.32096 0.54499 0.11114 0.0
H1431 H 0.3547 0.51692 0.13632 0.0
C1432 C 0.28149 0.48443 0.15657 0.0
N1433 N 0.28575 0.49891 0.15052 0.0
C1434 C 0.26972 0.48341 0.16837 0.0
C1435 C 0.26728 0.51227 0.16773 0.0
C1436 C 0.27918 0.51273 0.15605 0.0
C1437 C 0.26229 0.49745 0.17394 0.0
H1438 H 0.28712 0.47367 0.15205 0.0
H1439 H 0.28297 0.52412 0.15124 0.0
C1440 C 0.33929 0.50651 0.09598 0.0
N1441 N 0.3635 0.52476 0.08274 0.0
C1442 C 0.33566 0.5185 0.08487 0.0
C1443 C 0.35522 0.50373 0.10028 0.0
C1444 C 0.34807 0.52762 0.07833 0.0
C1445 C 0.36729 0.51311 0.09347 0.0
C1446 C 0.29064 0.46852 0.11308 0.0
C1447 C 0.29829 0.45703 0.1036 0.0
C1448 C 0.27461 0.46631 0.11739 0.0
C1449 C 0.28971 0.44365 0.09839 0.0
C1450 C 0.26644 0.45276 0.11195 0.0
N1451 N 0.27409 0.4418 0.10263 0.0
C1452 C 0.33083 0.4541 0.1348 0.0
C1453 C 0.34415 0.45997 0.1104 0.0
C1454 C 0.33881 0.43945 0.13596 0.0
N1455 N 0.3337 0.46398 0.1222 0.0
C1456 C 0.35241 0.44546 0.1111 0.0
C1457 C 0.34983 0.43499 0.12404 0.0
H1458 H 0.3223 0.45761 0.1439 0.0
H1459 H 0.34603 0.46802 0.10044 0.0
C1460 C 0.28716 0.51566 0.07903 0.0
N1461 N 0.29338 0.50153 0.08426 0.0
C1462 C 0.27996 0.51667 0.064 0.0
C1463 C 0.28623 0.48875 0.0597 0.0
C1464 C 0.29317 0.48826 0.07487 0.0
C1465 C 0.27954 0.50312 0.05404 0.0
H1466 H 0.28806 0.52628 0.08634 0.0
H1467 H 0.29887 0.47741 0.07891 0.0
O1468 O 0.32366 0.49727 0.14033 0.0
O1469 O 0.30043 0.5187 0.11957 0.0
O1470 O 0.32726 0.49779 0.10285 0.0
O1471 O 0.29894 0.48155 0.11861 0.0
H1472 H 0.31311 0.52653 0.14732 0.0
H1473 H 0.33871 0.48563 0.16553 0.0
H1474 H 0.31697 0.54007 0.17343 0.0
H1475 H 0.34217 0.49994 0.19138 0.0
H1476 H 0.24684 0.51162 0.11242 0.0
H1477 H 0.29171 0.54898 0.12184 0.0
H1478 H 0.27448 0.50101 0.11432 0.0
H1479 H 0.26373 0.55884 0.11968 0.0
H1480 H 0.37315 0.53986 0.13838 0.0
H1481 H 0.33841 0.56871 0.11291 0.0
H1482 H 0.26649 0.47175 0.17305 0.0
H1483 H 0.2618 0.5234 0.17152 0.0
H1484 H 0.32337 0.52084 0.08149 0.0
H1485 H 0.35821 0.4946 0.10899 0.0
H1486 H 0.34544 0.537 0.0698 0.0
H1487 H 0.37967 0.51117 0.09678 0.0
H1488 H 0.31066 0.45853 0.1001 0.0
H1489 H 0.26852 0.47493 0.12492 0.0
H1490 H 0.29547 0.43473 0.09096 0.0
H1491 H 0.25403 0.45093 0.11517 0.0
H1492 H 0.33629 0.43167 0.14603 0.0
H1493 H 0.36095 0.44263 0.10176 0.0
H1494 H 0.27499 0.52802 0.06016 0.0
H1495 H 0.28669 0.47813 0.05226 0.0
Li1496 Li 0.31531 0.51218 0.87036 0.0
Li1497 Li 0.29631 0.49645 0.88726 0.0
Li1498 Li 0.31793 0.48314 0.87181 0.0
Li1499 Li 0.29538 0.49501 0.85864 0.0
C1500 C 0.33576 0.49957 0.89434 0.0
N1501 N 0.36739 0.50123 0.90386 0.0
C1502 C 0.33972 0.49837 0.91054 0.0
C1503 C 0.34788 0.50158 0.88296 0.0
C1504 C 0.35579 0.49925 0.91512 0.0
C1505 C 0.3638 0.5024 0.88802 0.0
C1506 C 0.28013 0.52307 0.86518 0.0
C1507 C 0.25249 0.52678 0.85763 0.0
N1508 N 0.25651 0.54062 0.85002 0.0
C1509 C 0.28395 0.53743 0.85745 0.0
C1510 C 0.26425 0.5178 0.86544 0.0
C1511 C 0.27185 0.54609 0.8498 0.0
C1512 C 0.33051 0.53748 0.85418 0.0
N1513 N 0.32688 0.53153 0.86887 0.0
C1514 C 0.3419 0.55218 0.88166 0.0
C1515 C 0.33204 0.53873 0.8825 0.0
C1516 C 0.34626 0.55845 0.86664 0.0
C1517 C 0.34013 0.55108 0.85278 0.0
H1518 H 0.32609 0.53152 0.84356 0.0
H1519 H 0.32889 0.53372 0.89402 0.0
C1520 C 0.2875 0.48414 0.91702 0.0
N1521 N 0.28509 0.49645 0.90669 0.0
C1522 C 0.28087 0.48466 0.93233 0.0
C1523 C 0.26891 0.51024 0.92576 0.0
C1524 C 0.27576 0.5092 0.91056 0.0
C1525 C 0.27178 0.49805 0.937 0.0
H1526 H 0.29509 0.47422 0.91354 0.0
H1527 H 0.27412 0.51883 0.90205 0.0
C1528 C 0.32124 0.48824 0.83894 0.0
N1529 N 0.32728 0.4705 0.81166 0.0
C1530 C 0.31497 0.47279 0.83737 0.0
C1531 C 0.33057 0.49467 0.82662 0.0
C1532 C 0.31816 0.46402 0.8235 0.0
C1533 C 0.3335 0.48551 0.81293 0.0
C1534 C 0.28338 0.466 0.87516 0.0
C1535 C 0.28631 0.45003 0.87103 0.0
C1536 C 0.26816 0.47051 0.88046 0.0
C1537 C 0.27389 0.43888 0.87211 0.0
C1538 C 0.25606 0.45899 0.88139 0.0
N1539 N 0.25914 0.44355 0.87722 0.0
C1540 C 0.32938 0.45373 0.88298 0.0
C1541 C 0.34562 0.46555 0.86289 0.0
C1542 C 0.3395 0.44045 0.88375 0.0
N1543 N 0.33252 0.46582 0.87254 0.0
C1544 C 0.356 0.45247 0.8632 0.0
C1545 C 0.35292 0.43965 0.87365 0.0
H1546 H 0.31892 0.45438 0.89059 0.0
H1547 H 0.34801 0.47547 0.85493 0.0
C1548 C 0.2818 0.50583 0.83014 0.0
N1549 N 0.28185 0.49322 0.84041 0.0
C1550 C 0.27183 0.50577 0.81677 0.0
C1551 C 0.2633 0.47906 0.82393 0.0
C1552 C 0.27313 0.47982 0.83738 0.0
C1553 C 0.26226 0.49229 0.81356 0.0
H1554 H 0.2894 0.51605 0.83244 0.0
H1555 H 0.27386 0.46963 0.84523 0.0
O1556 O 0.32008 0.49871 0.88969 0.0
O1557 O 0.29187 0.51438 0.87262 0.0
O1558 O 0.31825 0.49715 0.85236 0.0
O1559 O 0.29545 0.47703 0.87416 0.0
H1560 H 0.33045 0.49678 0.91948 0.0
H1561 H 0.34503 0.50251 0.87036 0.0
H1562 H 0.35903 0.49835 0.92763 0.0
H1563 H 0.3733 0.50396 0.87935 0.0
H1564 H 0.24018 0.52276 0.85762 0.0
H1565 H 0.29614 0.54179 0.85726 0.0
H1566 H 0.26103 0.50682 0.87147 0.0
H1567 H 0.27466 0.55716 0.84367 0.0
H1568 H 0.34649 0.55721 0.89269 0.0
H1569 H 0.34286 0.55564 0.84095 0.0
H1570 H 0.2836 0.47513 0.94069 0.0
H1571 H 0.26188 0.5207 0.92886 0.0
H1572 H 0.30773 0.46761 0.84675 0.0
H1573 H 0.33551 0.50662 0.82764 0.0
H1574 H 0.31338 0.45205 0.82214 0.0
H1575 H 0.34071 0.49034 0.80331 0.0
H1576 H 0.29803 0.44632 0.86692 0.0
H1577 H 0.26572 0.48273 0.8839 0.0
H1578 H 0.27597 0.4265 0.86888 0.0
H1579 H 0.24422 0.46233 0.88546 0.0
H1580 H 0.33667 0.43077 0.89192 0.0
H1581 H 0.36638 0.45245 0.85543 0.0
H1582 H 0.27146 0.51632 0.80926 0.0
H1583 H 0.25664 0.46815 0.8217 0.0
Li1584 Li 0.4798 0.31944 0.87235 0.0
Li1585 Li 0.49639 0.30104 0.88799 0.0
Li1586 Li 0.50847 0.32113 0.87055 0.0
Li1587 Li 0.49463 0.29774 0.85975 0.0
C1588 C 0.48651 0.33507 0.89868 0.0
N1589 N 0.46763 0.35582 0.91623 0.0
C1590 C 0.47899 0.32979 0.91267 0.0
C1591 C 0.48448 0.35091 0.89364 0.0
C1592 C 0.46951 0.34048 0.92139 0.0
C1593 C 0.47485 0.36121 0.90266 0.0
C1594 C 0.4672 0.28458 0.86984 0.0
C1595 C 0.46205 0.25686 0.86347 0.0
N1596 N 0.44776 0.26111 0.85692 0.0
C1597 C 0.45244 0.28867 0.86309 0.0
C1598 C 0.47203 0.26854 0.87011 0.0
C1599 C 0.44278 0.27663 0.85661 0.0
C1600 C 0.45879 0.3425 0.86005 0.0
N1601 N 0.46061 0.33159 0.87196 0.0
C1602 C 0.43592 0.33968 0.88394 0.0
C1603 C 0.44941 0.32978 0.88364 0.0
C1604 C 0.43393 0.35138 0.872 0.0
C1605 C 0.4455 0.35259 0.85985 0.0
H1606 H 0.46779 0.34356 0.85084 0.0
H1607 H 0.45112 0.32085 0.89286 0.0
C1608 C 0.50895 0.29724 0.91863 0.0
N1609 N 0.49863 0.29064 0.90794 0.0
C1610 C 0.51063 0.29062 0.93384 0.0
C1611 C 0.49121 0.27035 0.92666 0.0
C1612 C 0.48989 0.2774 0.91157 0.0
C1613 C 0.50153 0.2771 0.9381 0.0
H1614 H 0.51558 0.3079 0.91542 0.0
H1615 H 0.48167 0.2725 0.90289 0.0
C1616 C 0.50026 0.32895 0.8411 0.0
N1617 N 0.51653 0.34651 0.81825 0.0
C1618 C 0.50754 0.32121 0.82817 0.0
C1619 C 0.50117 0.34563 0.84237 0.0
C1620 C 0.51572 0.33031 0.81674 0.0
C1621 C 0.50949 0.35429 0.83072 0.0
C1622 C 0.52508 0.29021 0.8818 0.0
C1623 C 0.53776 0.29841 0.88902 0.0
C1624 C 0.52313 0.27381 0.88459 0.0
C1625 C 0.54824 0.29006 0.89904 0.0
C1626 C 0.53385 0.26591 0.89472 0.0
N1627 N 0.54607 0.27413 0.90168 0.0
C1628 C 0.52722 0.34752 0.87895 0.0
C1629 C 0.53715 0.33325 0.85652 0.0
C1630 C 0.53951 0.35871 0.87765 0.0
N1631 N 0.5261 0.33529 0.86831 0.0
C1632 C 0.54962 0.34427 0.85468 0.0
C1633 C 0.55079 0.35733 0.86524 0.0
H1634 H 0.51856 0.3486 0.88849 0.0
H1635 H 0.53613 0.3232 0.84841 0.0
C1636 C 0.48126 0.28151 0.8334 0.0
N1637 N 0.49422 0.28242 0.84319 0.0
C1638 C 0.47996 0.26904 0.82239 0.0
C1639 C 0.50602 0.25958 0.83081 0.0
C1640 C 0.50664 0.27203 0.84189 0.0
C1641 C 0.49236 0.2577 0.82113 0.0
H1642 H 0.47169 0.29015 0.83456 0.0
H1643 H 0.51695 0.27329 0.84961 0.0
O1644 O 0.49562 0.32472 0.88981 0.0
O1645 O 0.47686 0.29622 0.87614 0.0
O1646 O 0.49234 0.32025 0.8525 0.0
O1647 O 0.51449 0.29823 0.87222 0.0
H1648 H 0.48031 0.31755 0.91668 0.0
H1649 H 0.49007 0.35515 0.88274 0.0
H1650 H 0.46357 0.33654 0.93221 0.0
H1651 H 0.47307 0.37346 0.89884 0.0
H1652 H 0.46571 0.24443 0.86347 0.0
H1653 H 0.44852 0.30101 0.86274 0.0
H1654 H 0.4835 0.26518 0.87511 0.0
H1655 H 0.43136 0.27963 0.8513 0.0
H1656 H 0.42719 0.33822 0.89341 0.0
H1657 H 0.44456 0.36155 0.85052 0.0
H1658 H 0.51847 0.29645 0.94236 0.0
H1659 H 0.48403 0.25991 0.92943 0.0
H1660 H 0.50698 0.30833 0.827 0.0
H1661 H 0.49575 0.3518 0.85239 0.0
H1662 H 0.52146 0.32448 0.8067 0.0
H1663 H 0.51041 0.36718 0.83162 0.0
H1664 H 0.53941 0.31111 0.88703 0.0
H1665 H 0.51332 0.26731 0.87917 0.0
H1666 H 0.55806 0.29627 0.90477 0.0
H1667 H 0.53242 0.25325 0.89709 0.0
H1668 H 0.5402 0.36829 0.88636 0.0
H1669 H 0.55803 0.34274 0.84493 0.0
H1670 H 0.46914 0.26807 0.81531 0.0
H1671 H 0.51611 0.25148 0.82994 0.0
Li1672 Li 0.6931 0.4987 0.88425 0.0
Li1673 Li 0.67277 0.48374 0.86723 0.0
Li1674 Li 0.69456 0.49778 0.85607 0.0
Li1675 Li 0.67323 0.51341 0.86591 0.0
C1676 C 0.70624 0.46888 0.86441 0.0
N1677 N 0.72787 0.44812 0.85041 0.0
C1678 C 0.70259 0.46151 0.84984 0.0
C1679 C 0.72081 0.46558 0.87196 0.0
C1680 C 0.71371 0.4511 0.84292 0.0
C1681 C 0.7316 0.45507 0.86467 0.0
C1682 C 0.65857 0.49903 0.89729 0.0
C1683 C 0.63346 0.50656 0.90951 0.0
N1684 N 0.6375 0.49813 0.92285 0.0
C1685 C 0.66246 0.49049 0.91116 0.0
C1686 C 0.64394 0.50717 0.89649 0.0
C1687 C 0.65166 0.49015 0.92393 0.0
C1688 C 0.70826 0.51389 0.91004 0.0
N1689 N 0.70372 0.49946 0.90408 0.0
C1690 C 0.71229 0.48618 0.92786 0.0
C1691 C 0.70605 0.48568 0.91238 0.0
C1692 C 0.71648 0.501 0.93471 0.0
C1693 C 0.71486 0.51493 0.92535 0.0
H1694 H 0.70638 0.52463 0.90304 0.0
H1695 H 0.70234 0.47437 0.90724 0.0
C1696 C 0.65627 0.45819 0.85232 0.0
N1697 N 0.65914 0.46544 0.86662 0.0
C1698 C 0.64526 0.44564 0.85128 0.0
C1699 C 0.64068 0.44802 0.87977 0.0
C1700 C 0.65189 0.46038 0.88027 0.0
C1701 C 0.63709 0.44068 0.86509 0.0
H1702 H 0.66218 0.46247 0.84162 0.0
H1703 H 0.65458 0.46607 0.89152 0.0
C1704 C 0.70752 0.526 0.86217 0.0
N1705 N 0.73058 0.54328 0.84596 0.0
C1706 C 0.70335 0.53491 0.84863 0.0
C1707 C 0.72335 0.52601 0.86759 0.0
C1708 C 0.71521 0.54352 0.84056 0.0
C1709 C 0.73485 0.53481 0.8592 0.0
C1710 C 0.65711 0.49756 0.84158 0.0
C1711 C 0.65471 0.49807 0.82501 0.0
C1712 C 0.64386 0.49676 0.85178 0.0
C1713 C 0.63911 0.49791 0.81897 0.0
C1714 C 0.62845 0.49661 0.84528 0.0
N1715 N 0.62641 0.49719 0.82914 0.0
C1716 C 0.72586 0.49537 0.84308 0.0
C1717 C 0.70529 0.50117 0.8244 0.0
C1718 C 0.73742 0.49633 0.83111 0.0
N1719 N 0.71016 0.4977 0.83952 0.0
C1720 C 0.71647 0.50242 0.81206 0.0
C1721 C 0.7328 0.50002 0.81535 0.0
H1722 H 0.72946 0.4931 0.85529 0.0
H1723 H 0.69278 0.50337 0.82202 0.0
C1724 C 0.65957 0.54107 0.87853 0.0
N1725 N 0.66078 0.53237 0.86484 0.0
C1726 C 0.64979 0.55461 0.87907 0.0
C1727 C 0.64319 0.55034 0.85121 0.0
C1728 C 0.65321 0.53696 0.85118 0.0
C1729 C 0.64117 0.55924 0.86537 0.0
H1730 H 0.66597 0.53727 0.88913 0.0
H1731 H 0.65471 0.53014 0.84031 0.0
O1732 O 0.69557 0.47919 0.87133 0.0
O1733 O 0.66915 0.49968 0.88475 0.0
O1734 O 0.69616 0.5172 0.87 0.0
O1735 O 0.67237 0.49765 0.84761 0.0
H1736 H 0.6914 0.46402 0.84382 0.0
H1737 H 0.7238 0.47118 0.88326 0.0
H1738 H 0.7111 0.44541 0.83158 0.0
H1739 H 0.74296 0.45246 0.87032 0.0
H1740 H 0.62211 0.51279 0.90902 0.0
H1741 H 0.67356 0.48394 0.91196 0.0
H1742 H 0.64065 0.51391 0.88594 0.0
H1743 H 0.65451 0.48351 0.93468 0.0
H1744 H 0.71303 0.47512 0.93458 0.0
H1745 H 0.71826 0.52657 0.92992 0.0
H1746 H 0.64273 0.44029 0.83974 0.0
H1747 H 0.63477 0.44434 0.89071 0.0
H1748 H 0.69113 0.53498 0.8443 0.0
H1749 H 0.72675 0.51914 0.87805 0.0
H1750 H 0.7122 0.55037 0.82998 0.0
H1751 H 0.74718 0.53484 0.86317 0.0
H1752 H 0.66478 0.49859 0.81689 0.0
H1753 H 0.64544 0.49606 0.86455 0.0
H1754 H 0.6371 0.49833 0.80618 0.0
H1755 H 0.61812 0.49596 0.85307 0.0
H1756 H 0.74983 0.4942 0.83419 0.0
H1757 H 0.71239 0.50559 0.80017 0.0
H1758 H 0.64891 0.56129 0.89015 0.0
H1759 H 0.63676 0.55336 0.84038 0.0
Li1760 Li 0.49384 0.69115 0.88769 0.0
Li1761 Li 0.50858 0.67352 0.86966 0.0
Li1762 Li 0.49227 0.69552 0.85946 0.0
Li1763 Li 0.47994 0.67165 0.87081 0.0
C1764 C 0.52051 0.70865 0.86678 0.0
N1765 N 0.53808 0.7328 0.85251 0.0
C1766 C 0.53434 0.70498 0.85809 0.0
C1767 C 0.51569 0.72462 0.86832 0.0
C1768 C 0.54305 0.71736 0.85095 0.0
C1769 C 0.5247 0.73665 0.86097 0.0
C1770 C 0.50441 0.6565 0.89581 0.0
C1771 C 0.51587 0.63002 0.89721 0.0
N1772 N 0.52472 0.63462 0.91009 0.0
C1773 C 0.51354 0.66095 0.90911 0.0
C1774 C 0.50549 0.64089 0.88986 0.0
C1775 C 0.52375 0.64971 0.91615 0.0
C1776 C 0.48417 0.69476 0.91949 0.0
N1777 N 0.49399 0.70091 0.90809 0.0
C1778 C 0.50439 0.72015 0.9265 0.0
C1779 C 0.504 0.71336 0.91124 0.0
C1780 C 0.49437 0.71403 0.93854 0.0
C1781 C 0.48407 0.70125 0.93485 0.0
H1782 H 0.47658 0.68464 0.91668 0.0
H1783 H 0.51185 0.71784 0.902 0.0
C1784 C 0.52929 0.65087 0.85529 0.0
N1785 N 0.52787 0.6618 0.86726 0.0
C1786 C 0.54294 0.64126 0.85427 0.0
C1787 C 0.55353 0.65467 0.87765 0.0
C1788 C 0.53976 0.66411 0.87813 0.0
C1789 C 0.55514 0.64293 0.86572 0.0
H1790 H 0.51971 0.64938 0.84674 0.0
H1791 H 0.53835 0.67306 0.88738 0.0
C1792 C 0.46455 0.7022 0.88486 0.0
N1793 N 0.44557 0.71793 0.90694 0.0
C1794 C 0.45255 0.69389 0.89306 0.0
C1795 C 0.46681 0.71853 0.88778 0.0
C1796 C 0.44309 0.70206 0.90419 0.0
C1797 C 0.45712 0.72626 0.89902 0.0
C1798 C 0.48542 0.66458 0.84039 0.0
C1799 C 0.477 0.67232 0.82817 0.0
C1800 C 0.4849 0.64788 0.84153 0.0
C1801 C 0.46805 0.6632 0.81736 0.0
C1802 C 0.47578 0.63919 0.83051 0.0
N1803 N 0.46761 0.64697 0.81876 0.0
C1804 C 0.50166 0.7134 0.83235 0.0
C1805 C 0.47635 0.72019 0.84336 0.0
C1806 C 0.50031 0.72559 0.82104 0.0
N1807 N 0.48996 0.71125 0.84345 0.0
C1808 C 0.47431 0.73226 0.83202 0.0
C1809 C 0.48652 0.73517 0.82091 0.0
H1810 H 0.51211 0.70577 0.83241 0.0
H1811 H 0.46709 0.71796 0.85213 0.0
C1812 C 0.46046 0.64568 0.88009 0.0
N1813 N 0.4618 0.65812 0.86969 0.0
C1814 C 0.44695 0.63586 0.87972 0.0
C1815 C 0.43653 0.65181 0.85789 0.0
C1816 C 0.4501 0.6615 0.85889 0.0
C1817 C 0.43486 0.63885 0.86844 0.0
H1818 H 0.46981 0.64348 0.88876 0.0
H1819 H 0.4513 0.67176 0.85109 0.0
O1820 O 0.51177 0.69669 0.87377 0.0
O1821 O 0.49465 0.66743 0.8885 0.0
O1822 O 0.47416 0.69436 0.87416 0.0
O1823 O 0.4941 0.67331 0.85119 0.0
H1824 H 0.53824 0.69269 0.85675 0.0
H1825 H 0.50497 0.72766 0.87493 0.0
H1826 H 0.55373 0.71468 0.84413 0.0
H1827 H 0.52104 0.74904 0.86196 0.0
H1828 H 0.51694 0.61794 0.89264 0.0
H1829 H 0.5129 0.67301 0.91383 0.0
H1830 H 0.49854 0.63727 0.87954 0.0
H1831 H 0.53096 0.65302 0.92639 0.0
H1832 H 0.51251 0.72998 0.92889 0.0
H1833 H 0.47642 0.69595 0.94389 0.0
H1834 H 0.54368 0.63227 0.84495 0.0
H1835 H 0.56277 0.65645 0.88658 0.0
H1836 H 0.45066 0.68124 0.89099 0.0
H1837 H 0.47606 0.72513 0.88154 0.0
H1838 H 0.43382 0.69576 0.9107 0.0
H1839 H 0.45881 0.73887 0.90149 0.0
H1840 H 0.47727 0.68522 0.82709 0.0
H1841 H 0.49128 0.6417 0.85096 0.0
H1842 H 0.46141 0.66903 0.80788 0.0
H1843 H 0.47517 0.62628 0.83133 0.0
H1844 H 0.50983 0.72747 0.81243 0.0
H1845 H 0.46351 0.73944 0.83212 0.0
H1846 H 0.44604 0.62593 0.88802 0.0
H1847 H 0.42732 0.65456 0.84918 0.0
Li1848 Li 0.69631 0.49124 0.13149 0.0
Li1849 Li 0.67101 0.48165 0.12062 0.0
Li1850 Li 0.69131 0.49419 0.10356 0.0
Li1851 Li 0.67569 0.50999 0.12271 0.0
C1852 C 0.69946 0.46362 0.10526 0.0
N1853 N 0.71256 0.44339 0.08259 0.0
C1854 C 0.68987 0.45223 0.09762 0.0
C1855 C 0.71574 0.46463 0.10149 0.0
C1856 C 0.69671 0.44212 0.08617 0.0
C1857 C 0.72212 0.45433 0.08995 0.0
C1858 C 0.66551 0.48658 0.15135 0.0
C1859 C 0.63965 0.47948 0.16211 0.0
N1860 N 0.64692 0.4696 0.17283 0.0
C1861 C 0.67273 0.4764 0.1625 0.0
C1862 C 0.64884 0.48821 0.15118 0.0
C1863 C 0.66312 0.46791 0.17326 0.0
C1864 C 0.71482 0.49812 0.15866 0.0
N1865 N 0.71222 0.48716 0.14692 0.0
C1866 C 0.73314 0.47045 0.1569 0.0
C1867 C 0.72086 0.47339 0.14598 0.0
C1868 C 0.73651 0.48192 0.16864 0.0
C1869 C 0.7272 0.49584 0.16959 0.0
H1870 H 0.70745 0.50874 0.15935 0.0
H1871 H 0.71828 0.46475 0.1367 0.0
C1872 C 0.64178 0.46673 0.113 0.0
N1873 N 0.65536 0.46529 0.12182 0.0
C1874 C 0.62982 0.45514 0.11405 0.0
C1875 C 0.64621 0.44061 0.133 0.0
C1876 C 0.65791 0.45246 0.1315 0.0
C1877 C 0.63188 0.44192 0.12426 0.0
H1878 H 0.64024 0.47686 0.10512 0.0
H1879 H 0.66895 0.45154 0.13819 0.0
C1880 C 0.71174 0.51838 0.12486 0.0
N1881 N 0.73775 0.53286 0.1393 0.0
C1882 C 0.70957 0.53196 0.1344 0.0
C1883 C 0.72715 0.51226 0.12252 0.0
C1884 C 0.72287 0.5391 0.14162 0.0
C1885 C 0.74014 0.51972 0.12998 0.0
C1886 C 0.65753 0.50804 0.09657 0.0
C1887 C 0.66207 0.5161 0.08262 0.0
C1888 C 0.64252 0.51104 0.10337 0.0
C1889 C 0.65153 0.52715 0.07576 0.0
C1890 C 0.63235 0.52221 0.09617 0.0
N1891 N 0.63703 0.52997 0.08264 0.0
C1892 C 0.69437 0.48457 0.07149 0.0
C1893 C 0.71279 0.50461 0.07966 0.0
C1894 C 0.70063 0.48474 0.05602 0.0
N1895 N 0.70057 0.49435 0.08291 0.0
C1896 C 0.71925 0.50535 0.06428 0.0
C1897 C 0.71312 0.49534 0.05226 0.0
H1898 H 0.68438 0.47685 0.07434 0.0
H1899 H 0.71729 0.51244 0.08892 0.0
C1900 C 0.65636 0.53158 0.13975 0.0
N1901 N 0.66551 0.52994 0.12642 0.0
C1902 C 0.64645 0.5449 0.14153 0.0
C1903 C 0.65631 0.55504 0.11627 0.0
C1904 C 0.66622 0.54163 0.11511 0.0
C1905 C 0.64584 0.55654 0.12938 0.0
H1906 H 0.6563 0.52227 0.14872 0.0
H1907 H 0.67382 0.54007 0.10473 0.0
O1908 O 0.69295 0.47375 0.11635 0.0
O1909 O 0.67469 0.49483 0.14058 0.0
O1910 O 0.69885 0.51113 0.11785 0.0
O1911 O 0.66778 0.49736 0.1036 0.0
H1912 H 0.67724 0.45129 0.10037 0.0
H1913 H 0.72332 0.4734 0.10729 0.0
H1914 H 0.68942 0.4333 0.0801 0.0
H1915 H 0.73468 0.45505 0.08683 0.0
H1916 H 0.62674 0.48054 0.16204 0.0
H1917 H 0.6856 0.47497 0.16279 0.0
H1918 H 0.64305 0.49596 0.14257 0.0
H1919 H 0.66854 0.45994 0.18192 0.0
H1920 H 0.74014 0.45956 0.15599 0.0
H1921 H 0.7295 0.50481 0.17868 0.0
H1922 H 0.61915 0.45645 0.1068 0.0
H1923 H 0.64828 0.43068 0.14108 0.0
H1924 H 0.69772 0.53686 0.13631 0.0
H1925 H 0.72903 0.50174 0.11519 0.0
H1926 H 0.72137 0.54957 0.14911 0.0
H1927 H 0.75211 0.51503 0.1284 0.0
H1928 H 0.67365 0.51397 0.07722 0.0
H1929 H 0.63887 0.50501 0.11424 0.0
H1930 H 0.65491 0.53354 0.06501 0.0
H1931 H 0.62077 0.52477 0.10139 0.0
H1932 H 0.69536 0.47709 0.04696 0.0
H1933 H 0.72882 0.51374 0.06175 0.0
H1934 H 0.63898 0.54578 0.15209 0.0
H1935 H 0.65625 0.56363 0.10656 0.0
Li1936 Li 0.50315 0.69598 0.13483 0.0
Li1937 Li 0.51503 0.67428 0.12178 0.0
Li1938 Li 0.50128 0.69456 0.10652 0.0
Li1939 Li 0.48572 0.67475 0.12275 0.0
C1940 C 0.52958 0.70876 0.12671 0.0
N1941 N 0.54588 0.73261 0.14295 0.0
C1942 C 0.54015 0.70484 0.13909 0.0
C1943 C 0.52729 0.72485 0.12263 0.0
C1944 C 0.54827 0.71706 0.14715 0.0
C1945 C 0.53565 0.73672 0.13096 0.0
C1946 C 0.50695 0.6599 0.14875 0.0
C1947 C 0.50491 0.63207 0.15633 0.0
N1948 N 0.51927 0.63315 0.16393 0.0
C1949 C 0.52166 0.66073 0.15672 0.0
C1950 C 0.49848 0.64544 0.14859 0.0
C1951 C 0.5277 0.64708 0.16428 0.0
C1952 C 0.49991 0.72567 0.15039 0.0
N1953 N 0.50442 0.71019 0.15252 0.0
C1954 C 0.51235 0.7156 0.17945 0.0
C1955 C 0.51031 0.70494 0.16675 0.0
C1956 C 0.50826 0.73177 0.17739 0.0
C1957 C 0.50183 0.73675 0.16269 0.0
H1958 H 0.49514 0.72949 0.13902 0.0
H1959 H 0.51363 0.69254 0.16819 0.0
C1960 C 0.5478 0.66537 0.12034 0.0
N1961 N 0.53258 0.65963 0.12096 0.0
C1962 C 0.56079 0.65487 0.12091 0.0
C1963 C 0.54219 0.6327 0.12166 0.0
C1964 C 0.52958 0.64363 0.12117 0.0
C1965 C 0.55806 0.63829 0.12187 0.0
H1966 H 0.54988 0.67811 0.11959 0.0
H1967 H 0.51737 0.63935 0.12121 0.0
C1968 C 0.47314 0.70804 0.1132 0.0
N1969 N 0.45279 0.72689 0.09512 0.0
C1970 C 0.45812 0.70223 0.10861 0.0
C1971 C 0.47773 0.72351 0.1087 0.0
C1972 C 0.44802 0.71193 0.09946 0.0
C1973 C 0.4673 0.73283 0.09952 0.0
C1974 C 0.50703 0.66195 0.09292 0.0
C1975 C 0.51977 0.66839 0.08417 0.0
C1976 C 0.50249 0.64602 0.09047 0.0
C1977 C 0.52774 0.65877 0.07304 0.0
C1978 C 0.51077 0.63679 0.07923 0.0
N1979 N 0.52311 0.64331 0.07082 0.0
C1980 C 0.51239 0.71453 0.08105 0.0
C1981 C 0.48769 0.70118 0.07687 0.0
C1982 C 0.51176 0.72109 0.06568 0.0
N1983 N 0.5004 0.70487 0.08632 0.0
C1984 C 0.48655 0.70746 0.06147 0.0
C1985 C 0.49876 0.71746 0.05563 0.0
H1986 H 0.52269 0.71674 0.08854 0.0
H1987 H 0.4786 0.69303 0.08121 0.0
C1988 C 0.45857 0.66138 0.1379 0.0
N1989 N 0.46663 0.66271 0.12383 0.0
C1990 C 0.44494 0.65173 0.13887 0.0
C1991 C 0.4479 0.64556 0.11073 0.0
C1992 C 0.46146 0.6553 0.11031 0.0
C1993 C 0.43956 0.64351 0.1252 0.0
H1994 H 0.46294 0.66755 0.14841 0.0
H1995 H 0.46801 0.65681 0.09924 0.0
O1996 O 0.52122 0.69696 0.11893 0.0
O1997 O 0.50087 0.67311 0.14115 0.0
O1998 O 0.48324 0.69864 0.12208 0.0
O1999 O 0.49929 0.67108 0.1041 0.0
H2000 H 0.54191 0.69253 0.14265 0.0
H2001 H 0.51888 0.72822 0.1134 0.0
H2002 H 0.55642 0.71417 0.1568 0.0
H2003 H 0.53391 0.74921 0.12798 0.0
H2004 H 0.49851 0.6208 0.15622 0.0
H2005 H 0.52851 0.67171 0.15683 0.0
H2006 H 0.48718 0.64445 0.14239 0.0
H2007 H 0.53913 0.64755 0.17036 0.0
H2008 H 0.51736 0.71131 0.19062 0.0
H2009 H 0.49824 0.74907 0.16074 0.0
H2010 H 0.57282 0.65973 0.12101 0.0
H2011 H 0.5395 0.62001 0.12193 0.0
H2012 H 0.45428 0.69036 0.11206 0.0
H2013 H 0.48937 0.72816 0.11192 0.0
H2014 H 0.43639 0.70755 0.09579 0.0
H2015 H 0.47078 0.74475 0.09582 0.0
H2016 H 0.52361 0.68061 0.08611 0.0
H2017 H 0.49282 0.64078 0.09731 0.0
H2018 H 0.53764 0.66358 0.06622 0.0
H2019 H 0.50742 0.62443 0.07724 0.0
H2020 H 0.52147 0.72867 0.06162 0.0
H2021 H 0.47654 0.70395 0.05401 0.0
H2022 H 0.43873 0.65067 0.15021 0.0
H2023 H 0.4443 0.63935 0.09994 0.0
Li2024 Li 0.47504 0.31531 0.12489 0.0
Li2025 Li 0.49321 0.29551 0.13344 0.0
Li2026 Li 0.50452 0.3207 0.12384 0.0
Li2027 Li 0.49176 0.30037 0.10602 0.0
C2028 C 0.48882 0.31472 0.15869 0.0
N2029 N 0.48599 0.30825 0.19103 0.0
C2030 C 0.47368 0.31371 0.1658 0.0
C2031 C 0.50251 0.31249 0.16806 0.0
C2032 C 0.47251 0.31044 0.18216 0.0
C2033 C 0.50083 0.30919 0.18438 0.0
C2034 C 0.46703 0.27926 0.12584 0.0
C2035 C 0.46641 0.25074 0.13045 0.0
N2036 N 0.45277 0.25253 0.13918 0.0
C2037 C 0.45296 0.28081 0.13478 0.0
C2038 C 0.47377 0.26409 0.12357 0.0
C2039 C 0.44595 0.26716 0.14145 0.0
C2040 C 0.44238 0.32173 0.11833 0.0
N2041 N 0.45525 0.32614 0.12725 0.0
C2042 C 0.44112 0.34865 0.13771 0.0
C2043 C 0.45486 0.33922 0.13691 0.0
C2044 C 0.42771 0.34465 0.12837 0.0
C2045 C 0.42838 0.33088 0.1187 0.0
H2046 H 0.44317 0.31138 0.11057 0.0
H2047 H 0.46543 0.34262 0.14357 0.0
C2048 C 0.51177 0.27196 0.14877 0.0
N2049 N 0.49721 0.27926 0.14895 0.0
C2050 C 0.51551 0.26036 0.1602 0.0
C2051 C 0.48926 0.26415 0.17184 0.0
C2052 C 0.48597 0.2755 0.1601 0.0
C2053 C 0.50422 0.25652 0.172 0.0
H2054 H 0.52058 0.27528 0.13991 0.0
H2055 H 0.47449 0.2814 0.16002 0.0
C2056 C 0.47834 0.33465 0.1 0.0
N2057 N 0.45656 0.35625 0.08762 0.0
C2058 C 0.46834 0.33017 0.08737 0.0
C2059 C 0.47733 0.35014 0.1063 0.0
C2060 C 0.45739 0.34127 0.08127 0.0
C2061 C 0.46622 0.36088 0.09989 0.0
C2062 C 0.52221 0.29242 0.10849 0.0
C2063 C 0.5335 0.30235 0.10112 0.0
C2064 C 0.52159 0.27617 0.10449 0.0
C2065 C 0.54386 0.29587 0.08968 0.0
C2066 C 0.53213 0.27017 0.09297 0.0
N2067 N 0.54295 0.28006 0.08586 0.0
C2068 C 0.53208 0.3354 0.13681 0.0
C2069 C 0.52094 0.3483 0.1141 0.0
C2070 C 0.54419 0.34689 0.13774 0.0
N2071 N 0.52072 0.33642 0.12521 0.0
C2072 C 0.53277 0.36008 0.11462 0.0
C2073 C 0.54456 0.35948 0.12659 0.0
H2074 H 0.53183 0.3256 0.14524 0.0
H2075 H 0.51205 0.34854 0.10472 0.0
C2076 C 0.48568 0.27797 0.08116 0.0
N2077 N 0.49318 0.29186 0.08515 0.0
C2078 C 0.48757 0.27152 0.06586 0.0
C2079 C 0.50477 0.29388 0.05916 0.0
C2080 C 0.50242 0.29995 0.0745 0.0
C2081 C 0.49732 0.27947 0.0547 0.0
H2082 H 0.47828 0.27189 0.08985 0.0
H2083 H 0.50808 0.31106 0.07802 0.0
O2084 O 0.49021 0.31781 0.14265 0.0
O2085 O 0.47403 0.29249 0.1192 0.0
O2086 O 0.48872 0.32378 0.10652 0.0
O2087 O 0.51172 0.29859 0.11947 0.0
H2088 H 0.46293 0.31509 0.15873 0.0
H2089 H 0.5143 0.31302 0.16277 0.0
H2090 H 0.46087 0.30952 0.18778 0.0
H2091 H 0.51132 0.30732 0.19174 0.0
H2092 H 0.47157 0.23895 0.1289 0.0
H2093 H 0.4476 0.29245 0.13671 0.0
H2094 H 0.4847 0.26268 0.11676 0.0
H2095 H 0.43511 0.26819 0.14847 0.0
H2096 H 0.44126 0.35934 0.14505 0.0
H2097 H 0.41829 0.32736 0.11136 0.0
H2098 H 0.52721 0.25475 0.16005 0.0
H2099 H 0.48018 0.26133 0.18066 0.0
H2100 H 0.4689 0.31818 0.08245 0.0
H2101 H 0.48483 0.35372 0.11625 0.0
H2102 H 0.44951 0.33795 0.07155 0.0
H2103 H 0.46521 0.37285 0.10474 0.0
H2104 H 0.53415 0.31495 0.10405 0.0
H2105 H 0.51293 0.26833 0.1101 0.0
H2106 H 0.55258 0.30343 0.0838 0.0
H2107 H 0.53169 0.25765 0.08966 0.0
H2108 H 0.55306 0.34601 0.14716 0.0
H2109 H 0.53284 0.36938 0.10559 0.0
H2110 H 0.4816 0.26042 0.06283 0.0
H2111 H 0.51209 0.30055 0.05078 0.0
H2112 H 0.16004 0.42106 0.36508 0.0
H2113 H 0.12331 0.34266 0.40542 0.0
H2114 H 0.11315 0.40298 0.35323 0.0
H2115 H 0.15414 0.37561 0.43086 0.0
H2116 H 0.12419 0.36044 0.3822 0.0
H2117 H 0.16283 0.39973 0.38517 0.0
C2118 C 0.15048 0.4124 0.36653 0.0
C2119 C 0.13631 0.41373 0.35764 0.0
C2120 C 0.13086 0.36361 0.39286 0.0
C2121 C 0.13944 0.38946 0.38033 0.0
C2122 C 0.13029 0.35356 0.40619 0.0
C2123 C 0.13846 0.35769 0.42033 0.0
C2124 C 0.1399 0.37774 0.39353 0.0
C2125 C 0.14774 0.37175 0.42028 0.0
C2126 C 0.15204 0.40035 0.378 0.0
C2127 C 0.12419 0.40235 0.35999 0.0
N2128 N 0.14816 0.38129 0.40711 0.0
N2129 N 0.12602 0.39066 0.37115 0.0
H2130 H 0.61373 0.14979 0.43725 0.0
H2131 H 0.58429 0.1128 0.35451 0.0
H2132 H 0.64308 0.11813 0.40873 0.0
H2133 H 0.56074 0.15227 0.37817 0.0
H2134 H 0.60595 0.11432 0.37421 0.0
H2135 H 0.59432 0.15089 0.41559 0.0
C2136 C 0.61625 0.14324 0.42635 0.0
C2137 C 0.63013 0.13385 0.42487 0.0
C2138 C 0.5961 0.12272 0.375 0.0
C2139 C 0.60762 0.13475 0.40008 0.0
C2140 C 0.58371 0.1218 0.36383 0.0
C2141 C 0.57067 0.13238 0.36477 0.0
C2142 C 0.59535 0.13418 0.38729 0.0
C2143 C 0.57061 0.14396 0.37694 0.0
C2144 C 0.60507 0.1438 0.414 0.0
C2145 C 0.63246 0.12533 0.41054 0.0
N2146 N 0.58269 0.14446 0.3878 0.0
N2147 N 0.62126 0.12589 0.39874 0.0
H2148 H 0.84129 0.61166 0.43746 0.0
H2149 H 0.86657 0.58869 0.34925 0.0
H2150 H 0.86418 0.64534 0.40552 0.0
H2151 H 0.83028 0.56278 0.37531 0.0
H2152 H 0.86579 0.60976 0.3696 0.0
H2153 H 0.83687 0.59373 0.41487 0.0
C2154 C 0.8452 0.61543 0.42569 0.0
C2155 C 0.85326 0.63005 0.42348 0.0
C2156 C 0.85783 0.59958 0.37077 0.0
C2157 C 0.84852 0.60931 0.39759 0.0
C2158 C 0.85831 0.58756 0.3592 0.0
C2159 C 0.84855 0.57398 0.36072 0.0
C2160 C 0.84773 0.59785 0.3841 0.0
C2161 C 0.83797 0.5731 0.37372 0.0
C2162 C 0.84271 0.60512 0.41279 0.0
C2163 C 0.85827 0.63406 0.40792 0.0
N2164 N 0.838 0.58477 0.38506 0.0
N2165 N 0.85597 0.62368 0.39562 0.0
H2166 H 0.3473 0.88263 0.40933 0.0
H2167 H 0.42106 0.83998 0.36593 0.0
H2168 H 0.37536 0.84511 0.43134 0.0
H2169 H 0.40551 0.88789 0.35439 0.0
H2170 H 0.40047 0.83865 0.38681 0.0
H2171 H 0.3651 0.88184 0.38614 0.0
C2172 C 0.3572 0.87426 0.40935 0.0
C2173 C 0.35989 0.86404 0.42246 0.0
C2174 C 0.40149 0.84939 0.3796 0.0
C2175 C 0.38002 0.86283 0.39572 0.0
C2176 C 0.41312 0.85011 0.36764 0.0
C2177 C 0.41496 0.86409 0.35852 0.0
C2178 C 0.39155 0.86267 0.3823 0.0
C2179 C 0.40453 0.87695 0.3613 0.0
C2180 C 0.36727 0.87375 0.39605 0.0
C2181 C 0.37267 0.85312 0.42151 0.0
N2182 N 0.39325 0.87595 0.37297 0.0
N2183 N 0.38227 0.85282 0.40839 0.0
H2184 H 0.09647 0.57475 0.63135 0.0
H2185 H 0.14632 0.62028 0.564 0.0
H2186 H 0.14625 0.56495 0.62125 0.0
H2187 H 0.10053 0.637 0.58135 0.0
H2188 H 0.14655 0.60004 0.58501 0.0
H2189 H 0.09761 0.59758 0.6131 0.0
C2190 C 0.10768 0.57746 0.62542 0.0
C2191 C 0.12126 0.56782 0.62778 0.0
C2192 C 0.13651 0.60822 0.5843 0.0
C2193 C 0.12256 0.59382 0.60669 0.0
C2194 C 0.13641 0.61988 0.57236 0.0
C2195 C 0.12335 0.63037 0.57082 0.0
C2196 C 0.12338 0.60689 0.59472 0.0
C2197 C 0.11072 0.629 0.58186 0.0
C2198 C 0.1083 0.59047 0.61495 0.0
C2199 C 0.13539 0.57182 0.61957 0.0
N2200 N 0.11099 0.6174 0.59327 0.0
N2201 N 0.13564 0.58445 0.60933 0.0
H2202 H 0.38678 0.11356 0.54629 0.0
H2203 H 0.41086 0.14935 0.63173 0.0
H2204 H 0.35506 0.14335 0.57427 0.0
H2205 H 0.43692 0.11155 0.608 0.0
H2206 H 0.39124 0.14909 0.6099 0.0
H2207 H 0.4062 0.11431 0.56803 0.0
C2208 C 0.38382 0.12017 0.55705 0.0
C2209 C 0.36917 0.12831 0.55847 0.0
C2210 C 0.40124 0.14083 0.60951 0.0
C2211 C 0.39157 0.12945 0.58335 0.0
C2212 C 0.41246 0.14103 0.6219 0.0
C2213 C 0.42547 0.1304 0.62169 0.0
C2214 C 0.40316 0.13004 0.59675 0.0
C2215 C 0.42694 0.11979 0.60874 0.0
C2216 C 0.39498 0.12066 0.56943 0.0
C2217 C 0.36624 0.13702 0.57256 0.0
N2218 N 0.41594 0.11991 0.59678 0.0
N2219 N 0.37735 0.13736 0.58446 0.0
H2220 H 0.89433 0.42593 0.61849 0.0
H2221 H 0.84112 0.36387 0.56857 0.0
H2222 H 0.84382 0.41852 0.62679 0.0
H2223 H 0.89254 0.36717 0.56452 0.0
H2224 H 0.8418 0.38403 0.5898 0.0
H2225 H 0.89392 0.40439 0.59874 0.0
C2226 C 0.88317 0.41969 0.61628 0.0
C2227 C 0.86907 0.42409 0.62432 0.0
C2228 C 0.85294 0.38029 0.58433 0.0
C2229 C 0.86848 0.39954 0.60149 0.0
C2230 C 0.85255 0.36884 0.57216 0.0
C2231 C 0.86679 0.36385 0.56476 0.0
C2232 C 0.86768 0.38689 0.58906 0.0
C2233 C 0.88129 0.37054 0.57002 0.0
C2234 C 0.88294 0.40744 0.60492 0.0
C2235 C 0.85492 0.41572 0.62072 0.0
N2236 N 0.88135 0.38178 0.58179 0.0
N2237 N 0.85498 0.4039 0.60954 0.0
H2238 H 0.58741 0.86916 0.64006 0.0
H2239 H 0.62305 0.82746 0.56326 0.0
H2240 H 0.57093 0.82307 0.62362 0.0
H2241 H 0.64802 0.86478 0.58895 0.0
H2242 H 0.60475 0.82459 0.58584 0.0
H2243 H 0.61046 0.86706 0.62214 0.0
C2244 C 0.5888 0.85851 0.63278 0.0
C2245 C 0.57727 0.84633 0.63315 0.0
C2246 C 0.61438 0.83325 0.58662 0.0
C2247 C 0.6034 0.84391 0.61249 0.0
C2248 C 0.6249 0.83486 0.57374 0.0
C2249 C 0.637 0.84655 0.57407 0.0
C2250 C 0.61582 0.84353 0.59984 0.0
C2251 C 0.63863 0.85591 0.58795 0.0
C2252 C 0.60196 0.85728 0.6226 0.0
C2253 C 0.57961 0.8327 0.62363 0.0
N2254 N 0.62802 0.85434 0.60018 0.0
N2255 N 0.59231 0.83196 0.61345 0.0
H2256 H 0.35421 0.11404 0.40659 0.0
H2257 H 0.42907 0.15777 0.36874 0.0
H2258 H 0.36498 0.16376 0.41618 0.0
H2259 H 0.40769 0.11576 0.34738 0.0
H2260 H 0.40596 0.16014 0.38642 0.0
H2261 H 0.37381 0.11428 0.38501 0.0
C2262 C 0.36046 0.12511 0.40403 0.0
C2263 C 0.35793 0.13888 0.41337 0.0
C2264 C 0.40627 0.1505 0.37775 0.0
C2265 C 0.38081 0.13905 0.38887 0.0
C2266 C 0.41945 0.14916 0.36757 0.0
C2267 C 0.42046 0.13646 0.35658 0.0
C2268 C 0.39409 0.13893 0.37712 0.0
C2269 C 0.40767 0.12553 0.35589 0.0
C2270 C 0.37175 0.12519 0.39173 0.0
C2271 C 0.36673 0.15274 0.40958 0.0
N2272 N 0.39511 0.12693 0.36613 0.0
N2273 N 0.3779 0.15241 0.39775 0.0
H2274 H 0.84037 0.36816 0.42338 0.0
H2275 H 0.88516 0.41559 0.35349 0.0
H2276 H 0.89061 0.36213 0.41297 0.0
H2277 H 0.84265 0.43349 0.37699 0.0
H2278 H 0.8853 0.39283 0.37185 0.0
H2279 H 0.83888 0.3889 0.40263 0.0
C2280 C 0.85102 0.37108 0.41656 0.0
C2281 C 0.86565 0.36354 0.41988 0.0
C2282 C 0.87593 0.40175 0.37291 0.0
C2283 C 0.86405 0.38712 0.39627 0.0
C2284 C 0.87588 0.41481 0.36252 0.0
C2285 C 0.86396 0.42663 0.36375 0.0
C2286 C 0.86387 0.40034 0.38451 0.0
C2287 C 0.85199 0.42464 0.37543 0.0
C2288 C 0.85019 0.38295 0.40484 0.0
C2289 C 0.87915 0.36781 0.41084 0.0
N2290 N 0.85227 0.41177 0.38536 0.0
N2291 N 0.87803 0.37933 0.39943 0.0
H2292 H 0.56361 0.84336 0.36854 0.0
H2293 H 0.61373 0.89379 0.43283 0.0
H2294 H 0.55777 0.89424 0.37565 0.0
H2295 H 0.62038 0.84323 0.42427 0.0
H2296 H 0.59356 0.89441 0.41163 0.0
H2297 H 0.58463 0.84322 0.38882 0.0
C2298 C 0.56672 0.8545 0.37442 0.0
C2299 C 0.55887 0.86882 0.37045 0.0
C2300 C 0.59946 0.88319 0.41438 0.0
C2301 C 0.58305 0.86878 0.39361 0.0
C2302 C 0.61103 0.88284 0.42642 0.0
C2303 C 0.61873 0.86842 0.43037 0.0
C2304 C 0.59554 0.86901 0.40621 0.0
C2305 C 0.61458 0.85456 0.42181 0.0
C2306 C 0.57879 0.85443 0.38594 0.0
C2307 C 0.5636 0.88295 0.37824 0.0
N2308 N 0.60327 0.8552 0.41016 0.0
N2309 N 0.57535 0.88257 0.3895 0.0
H2310 H 0.14862 0.6273 0.41591 0.0
H2311 H 0.10188 0.55617 0.37216 0.0
H2312 H 0.10308 0.60882 0.4321 0.0
H2313 H 0.15196 0.56612 0.36417 0.0
H2314 H 0.10116 0.57741 0.39229 0.0
H2315 H 0.14921 0.60668 0.39516 0.0
C2316 C 0.13877 0.61888 0.41517 0.0
C2317 C 0.12579 0.61981 0.42584 0.0
C2318 C 0.11231 0.57495 0.38614 0.0
C2319 C 0.1263 0.59635 0.40191 0.0
C2320 C 0.1127 0.56292 0.37458 0.0
C2321 C 0.127 0.55942 0.36649 0.0
C2322 C 0.12629 0.58365 0.38955 0.0
C2323 C 0.14073 0.56836 0.37024 0.0
C2324 C 0.1391 0.60717 0.40327 0.0
C2325 C 0.11323 0.60876 0.42404 0.0
N2326 N 0.14003 0.58012 0.38148 0.0
N2327 N 0.1138 0.59751 0.41231 0.0
H2328 H 0.35359 0.87986 0.58317 0.0
H2329 H 0.43885 0.84351 0.60566 0.0
H2330 H 0.37447 0.83938 0.55875 0.0
H2331 H 0.41223 0.87432 0.63759 0.0
H2332 H 0.41577 0.84259 0.58782 0.0
H2333 H 0.3754 0.87889 0.60276 0.0
C2334 C 0.36273 0.87073 0.58199 0.0
C2335 C 0.36226 0.8597 0.56933 0.0
C2336 C 0.41496 0.84949 0.59877 0.0
C2337 C 0.38723 0.85857 0.59157 0.0
C2338 C 0.42813 0.84997 0.60903 0.0
C2339 C 0.42755 0.85902 0.6232 0.0
C2340 C 0.40113 0.85825 0.60259 0.0
C2341 C 0.41337 0.86741 0.62669 0.0
C2342 C 0.37513 0.87014 0.59319 0.0
C2343 C 0.37431 0.84801 0.56842 0.0
N2344 N 0.40076 0.86688 0.61642 0.0
N2345 N 0.38638 0.84785 0.57931 0.0
H2346 H 0.11156 0.40692 0.64342 0.0
H2347 H 0.16082 0.37103 0.5696 0.0
H2348 H 0.15324 0.43012 0.62331 0.0
H2349 H 0.1109 0.36097 0.57822 0.0
H2350 H 0.161 0.38864 0.59318 0.0
H2351 H 0.11401 0.38587 0.62325 0.0
C2352 C 0.12125 0.4076 0.63482 0.0
C2353 C 0.13207 0.42048 0.63497 0.0
C2354 C 0.15006 0.38247 0.58994 0.0
C2355 C 0.13509 0.39623 0.61209 0.0
C2356 C 0.14998 0.37241 0.57659 0.0
C2357 C 0.13578 0.36474 0.57195 0.0
C2358 C 0.13591 0.38461 0.59879 0.0
C2359 C 0.12201 0.36689 0.58132 0.0
C2360 C 0.12267 0.39553 0.62338 0.0
C2361 C 0.14466 0.42041 0.62379 0.0
N2362 N 0.12241 0.37666 0.5943 0.0
N2363 N 0.14577 0.40852 0.61274 0.0
H2364 H 0.54759 0.13368 0.60916 0.0
H2365 H 0.63824 0.14791 0.58683 0.0
H2366 H 0.58043 0.15425 0.64324 0.0
H2367 H 0.60045 0.14655 0.55157 0.0
H2368 H 0.61795 0.15026 0.60792 0.0
H2369 H 0.56739 0.13765 0.58799 0.0
C2370 C 0.55901 0.13911 0.61211 0.0
C2371 C 0.56253 0.14357 0.62787 0.0
C2372 C 0.61416 0.14966 0.59554 0.0
C2373 C 0.58526 0.14804 0.60385 0.0
C2374 C 0.62571 0.14839 0.58349 0.0
C2375 C 0.62102 0.14673 0.56742 0.0
C2376 C 0.59786 0.14912 0.59145 0.0
C2377 C 0.60461 0.14733 0.56382 0.0
C2378 C 0.57026 0.14145 0.60005 0.0
C2379 C 0.57738 0.15067 0.63116 0.0
N2380 N 0.59363 0.14825 0.57574 0.0
N2381 N 0.58836 0.1525 0.61925 0.0
H2382 H 0.84872 0.5617 0.61746 0.0
H2383 H 0.89898 0.6295 0.5741 0.0
H2384 H 0.89384 0.57874 0.63625 0.0
H2385 H 0.84778 0.62521 0.56879 0.0
H2386 H 0.89811 0.6096 0.59567 0.0
H2387 H 0.84873 0.58375 0.59837 0.0
C2388 C 0.85855 0.57015 0.61776 0.0
C2389 C 0.87131 0.56826 0.62857 0.0
C2390 C 0.88706 0.61313 0.58987 0.0
C2391 C 0.87155 0.59335 0.60634 0.0
C2392 C 0.88756 0.6244 0.57754 0.0
C2393 C 0.87343 0.62894 0.56969 0.0
C2394 C 0.87236 0.60617 0.59414 0.0
C2395 C 0.85892 0.62209 0.57464 0.0
C2396 C 0.85857 0.5827 0.60676 0.0
C2397 C 0.88389 0.57946 0.62799 0.0
N2398 N 0.85877 0.6109 0.58646 0.0
N2399 N 0.88375 0.59145 0.61698 0.0
H2400 H 0.36273 0.42128 0.15094 0.0
H2401 H 0.41018 0.35406 0.10229 0.0
H2402 H 0.35781 0.41402 0.09999 0.0
H2403 H 0.41331 0.36004 0.15353 0.0
H2404 H 0.38898 0.3742 0.10154 0.0
H2405 H 0.37928 0.39726 0.15246 0.0
C2406 C 0.36495 0.41453 0.14009 0.0
C2407 C 0.35896 0.41978 0.12528 0.0
C2408 C 0.39419 0.371 0.11297 0.0
C2409 C 0.37815 0.39235 0.12691 0.0
C2410 C 0.40622 0.35941 0.11342 0.0
C2411 C 0.41362 0.35545 0.12799 0.0
C2412 C 0.38956 0.37874 0.12717 0.0
C2413 C 0.40814 0.36294 0.142 0.0
C2414 C 0.37449 0.40084 0.14095 0.0
C2415 C 0.36243 0.41062 0.11161 0.0
N2416 N 0.39653 0.37431 0.14123 0.0
N2417 N 0.37188 0.39742 0.11273 0.0
H2418 H 0.4154 0.62987 0.89309 0.0
H2419 H 0.3695 0.56348 0.84384 0.0
H2420 H 0.42198 0.62427 0.84217 0.0
H2421 H 0.34966 0.58428 0.8869 0.0
H2422 H 0.38972 0.58452 0.84341 0.0
H2423 H 0.39238 0.6117 0.89182 0.0
C2424 C 0.41194 0.62481 0.88165 0.0
C2425 C 0.42056 0.62846 0.86772 0.0
C2426 C 0.38083 0.58454 0.85286 0.0
C2427 C 0.39444 0.6077 0.86619 0.0
C2428 C 0.36918 0.57257 0.85308 0.0
C2429 C 0.35782 0.57197 0.8655 0.0
C2430 C 0.38134 0.59584 0.86527 0.0
C2431 C 0.35835 0.58398 0.8773 0.0
C2432 C 0.39878 0.61456 0.88091 0.0
C2433 C 0.41557 0.62176 0.85316 0.0
N2434 N 0.37003 0.5953 0.87699 0.0
N2435 N 0.40292 0.61153 0.85279 0.0
H2436 H 0.41587 0.36211 0.84682 0.0
H2437 H 0.3645 0.4234 0.89973 0.0
H2438 H 0.42087 0.36649 0.89809 0.0
H2439 H 0.36561 0.42369 0.84807 0.0
H2440 H 0.3828 0.40047 0.89967 0.0
H2441 H 0.39505 0.38261 0.8474 0.0
C2442 C 0.41257 0.36737 0.85821 0.0
C2443 C 0.42024 0.36268 0.87241 0.0
C2444 C 0.379 0.40554 0.88836 0.0
C2445 C 0.39631 0.3861 0.87317 0.0
C2446 C 0.36851 0.41856 0.88838 0.0
C2447 C 0.36363 0.42551 0.87388 0.0
C2448 C 0.38455 0.39937 0.87372 0.0
C2449 C 0.36928 0.41885 0.85952 0.0
C2450 C 0.40064 0.37904 0.85854 0.0
C2451 C 0.41521 0.36966 0.88687 0.0
N2452 N 0.37945 0.40617 0.85981 0.0
N2453 N 0.40363 0.3811 0.88686 0.0
H2454 H 0.60714 0.44249 0.8777 0.0
H2455 H 0.58237 0.35287 0.85673 0.0
H2456 H 0.63791 0.41133 0.85028 0.0
H2457 H 0.54841 0.38973 0.86956 0.0
H2458 H 0.60342 0.37328 0.85539 0.0
H2459 H 0.58603 0.42231 0.8765 0.0
C2460 C 0.60945 0.43133 0.87148 0.0
C2461 C 0.62428 0.42848 0.86417 0.0
C2462 C 0.59133 0.37686 0.85842 0.0
C2463 C 0.60019 0.40536 0.86268 0.0
C2464 C 0.57929 0.36524 0.85912 0.0
C2465 C 0.56361 0.36954 0.86346 0.0
C2466 C 0.58766 0.39283 0.8622 0.0
C2467 C 0.56038 0.38575 0.86657 0.0
C2468 C 0.59737 0.41988 0.87069 0.0
C2469 C 0.62659 0.41395 0.85603 0.0
N2470 N 0.57231 0.39676 0.866 0.0
N2471 N 0.61468 0.40283 0.85561 0.0
H2472 H 0.62133 0.56778 0.89012 0.0
H2473 H 0.5733 0.63334 0.84011 0.0
H2474 H 0.63452 0.58158 0.84203 0.0
H2475 H 0.56849 0.6274 0.89121 0.0
H2476 H 0.59528 0.61391 0.84023 0.0
H2477 H 0.60161 0.58927 0.89055 0.0
C2478 C 0.62025 0.57544 0.87971 0.0
C2479 C 0.62965 0.57281 0.86601 0.0
C2480 C 0.58949 0.61696 0.85143 0.0
C2481 C 0.60674 0.59728 0.86632 0.0
C2482 C 0.57691 0.62797 0.85135 0.0
C2483 C 0.56907 0.63196 0.86567 0.0
C2484 C 0.59412 0.60975 0.8659 0.0
C2485 C 0.57432 0.62478 0.87992 0.0
C2486 C 0.60889 0.58767 0.87994 0.0
C2487 C 0.62739 0.58296 0.85277 0.0
N2488 N 0.58643 0.61393 0.87966 0.0
N2489 N 0.6161 0.59468 0.85322 0.0
H2490 H 0.61498 0.55433 0.14025 0.0
H2491 H 0.5876 0.63944 0.10725 0.0
H2492 H 0.64816 0.58783 0.11889 0.0
H2493 H 0.55953 0.61119 0.14027 0.0
H2494 H 0.60963 0.62033 0.11018 0.0
H2495 H 0.59424 0.57471 0.13935 0.0
C2496 C 0.61803 0.56604 0.1356 0.0
C2497 C 0.63345 0.56933 0.12973 0.0
C2498 C 0.59865 0.61838 0.11681 0.0
C2499 C 0.60945 0.59267 0.12822 0.0
C2500 C 0.58608 0.62929 0.11518 0.0
C2501 C 0.57162 0.62688 0.12345 0.0
C2502 C 0.59671 0.60491 0.12668 0.0
C2503 C 0.5703 0.61338 0.13339 0.0
C2504 C 0.60609 0.57766 0.13497 0.0
C2505 C 0.63642 0.58465 0.12339 0.0
N2506 N 0.58264 0.60289 0.13467 0.0
N2507 N 0.6245 0.59573 0.12272 0.0
H2508 H 0.37608 0.56577 0.15103 0.0
H2509 H 0.41559 0.63888 0.10318 0.0
H2510 H 0.36351 0.57853 0.10253 0.0
H2511 H 0.43227 0.62238 0.14925 0.0
H2512 H 0.39451 0.61861 0.10391 0.0
H2513 H 0.39494 0.58814 0.15168 0.0
C2514 C 0.3773 0.57325 0.1405 0.0
C2515 C 0.36826 0.57019 0.12666 0.0
C2516 C 0.40273 0.61948 0.1139 0.0
C2517 C 0.3897 0.59594 0.1274 0.0
C2518 C 0.41481 0.63101 0.11347 0.0
C2519 C 0.42582 0.63226 0.12611 0.0
C2520 C 0.40163 0.60909 0.12707 0.0
C2521 C 0.424 0.62196 0.13928 0.0
C2522 C 0.38801 0.58608 0.14092 0.0
C2523 C 0.37011 0.58051 0.11351 0.0
N2524 N 0.4122 0.61075 0.13937 0.0
N2525 N 0.38066 0.59287 0.11418 0.0
H2526 H 0.63537 0.4093 0.12671 0.0
H2527 H 0.54135 0.39186 0.12283 0.0
H2528 H 0.59938 0.44642 0.12507 0.0
H2529 H 0.57668 0.35521 0.13183 0.0
H2530 H 0.56257 0.41198 0.12304 0.0
H2531 H 0.61414 0.38924 0.12836 0.0
C2532 C 0.62302 0.41325 0.12683 0.0
C2533 C 0.61917 0.42958 0.12568 0.0
C2534 C 0.56569 0.39955 0.12504 0.0
C2535 C 0.59481 0.40665 0.12733 0.0
C2536 C 0.55359 0.38805 0.12483 0.0
C2537 C 0.55727 0.37184 0.12726 0.0
C2538 C 0.58162 0.3948 0.1276 0.0
C2539 C 0.5733 0.3676 0.13003 0.0
C2540 C 0.6109 0.40178 0.12769 0.0
C2541 C 0.60293 0.43396 0.12564 0.0
N2542 N 0.58491 0.379 0.13004 0.0
N2543 N 0.59136 0.42256 0.12639 0.0
H2544 H 0.03395 0.29948 0.52338 0.0
H2545 H 0.96042 0.26863 0.47423 0.0
H2546 H 0.04004 0.26601 0.48434 0.0
H2547 H 0.95633 0.28365 0.52348 0.0
H2548 H 0.98956 0.26706 0.47745 0.0
H2549 H 0.00552 0.29347 0.5237 0.0
C2550 C 0.02944 0.29064 0.51505 0.0
C2551 C 0.03953 0.28333 0.50374 0.0
C2552 C 0.98224 0.27038 0.48763 0.0
C2553 C 0.0067 0.27678 0.50378 0.0
C2554 C 0.96567 0.27133 0.48578 0.0
C2555 C 0.95605 0.27637 0.49859 0.0
C2556 C 0.98919 0.27486 0.50227 0.0
C2557 C 0.96335 0.27965 0.51334 0.0
C2558 C 0.01312 0.28727 0.51521 0.0
C2559 C 0.03273 0.27226 0.49302 0.0
N2560 N 0.97953 0.27911 0.51471 0.0
N2561 N 0.01669 0.26949 0.49315 0.0
H2562 H 0.67915 0.0307 0.52349 0.0
H2563 H 0.72134 0.95672 0.48507 0.0
H2564 H 0.72451 0.03646 0.49912 0.0
H2565 H 0.6947 0.95271 0.52913 0.0
H2566 H 0.72194 0.98595 0.48848 0.0
H2567 H 0.6837 0.00199 0.52445 0.0
C2568 C 0.69021 0.02607 0.51856 0.0
C2569 C 0.70144 0.03621 0.51118 0.0
C2570 C 0.71623 0.97861 0.49752 0.0
C2571 C 0.70637 0.00308 0.51178 0.0
C2572 C 0.71584 0.96201 0.49556 0.0
C2573 C 0.70793 0.9524 0.50683 0.0
C2574 C 0.7083 0.98556 0.51062 0.0
C2575 C 0.70099 0.95974 0.52023 0.0
C2576 C 0.69272 0.0096 0.51905 0.0
C2577 C 0.7153 0.02919 0.50461 0.0
N2578 N 0.70109 0.97593 0.52163 0.0
N2579 N 0.71727 0.01303 0.50487 0.0
H2580 H 0.95885 0.71247 0.46087 0.0
H2581 H 0.0375 0.73106 0.51076 0.0
H2582 H 0.9587 0.72918 0.50978 0.0
H2583 H 0.03744 0.71391 0.46201 0.0
H2584 H 0.00871 0.73591 0.50878 0.0
H2585 H 0.98736 0.71854 0.45918 0.0
C2586 C 0.96473 0.71773 0.47116 0.0
C2587 C 0.95644 0.72003 0.48559 0.0
C2588 C 0.01503 0.73135 0.49841 0.0
C2589 C 0.98917 0.72671 0.48384 0.0
C2590 C 0.03145 0.72854 0.49956 0.0
C2591 C 0.03979 0.72179 0.48663 0.0
C2592 C 0.00689 0.72721 0.48429 0.0
C2593 C 0.03147 0.71908 0.47229 0.0
C2594 C 0.98105 0.72111 0.47022 0.0
C2595 C 0.96473 0.72681 0.49856 0.0
N2596 N 0.01541 0.72154 0.4716 0.0
N2597 N 0.98069 0.72969 0.49745 0.0
H2598 H 0.30835 0.03671 0.50016 0.0
H2599 H 0.26124 0.95679 0.48256 0.0
H2600 H 0.25988 0.0381 0.48243 0.0
H2601 H 0.29875 0.96016 0.51795 0.0
H2602 H 0.26049 0.98617 0.48108 0.0
H2603 H 0.30547 0.00806 0.50524 0.0
C2604 C 0.2971 0.03089 0.4973 0.0
C2605 C 0.28438 0.03959 0.49074 0.0
C2606 C 0.26867 0.98043 0.48935 0.0
C2607 C 0.28096 0.00693 0.49648 0.0
C2608 C 0.26915 0.96372 0.49016 0.0
C2609 C 0.28012 0.95608 0.50035 0.0
C2610 C 0.27946 0.98943 0.49856 0.0
C2611 C 0.29004 0.96556 0.51002 0.0
C2612 C 0.29541 0.01461 0.50032 0.0
C2613 C 0.26995 0.03166 0.48745 0.0
N2614 N 0.28963 0.98174 0.50872 0.0
N2615 N 0.26867 0.01564 0.49018 0.0
H2616 H 0.52227 0.95533 0.28509 0.0
H2617 H 0.48051 0.03808 0.26146 0.0
H2618 H 0.47594 0.95795 0.26226 0.0
H2619 H 0.52163 0.03349 0.29253 0.0
H2620 H 0.48093 0.00905 0.25729 0.0
H2621 H 0.52475 0.98423 0.28284 0.0
C2622 C 0.51273 0.96193 0.2793 0.0
C2623 C 0.49882 0.95416 0.27393 0.0
C2624 C 0.48994 0.01448 0.26487 0.0
C2625 C 0.50143 0.98746 0.27171 0.0
C2626 C 0.48967 0.03103 0.26733 0.0
C2627 C 0.50099 0.0383 0.27746 0.0
C2628 C 0.50165 0.00516 0.27252 0.0
C2629 C 0.51277 0.02855 0.28447 0.0
C2630 C 0.51409 0.97849 0.27817 0.0
C2631 C 0.48676 0.96347 0.26679 0.0
N2632 N 0.51272 0.01252 0.28194 0.0
N2633 N 0.48827 0.97967 0.26601 0.0
H2634 H 0.95348 0.50506 0.26279 0.0
H2635 H 0.03272 0.49408 0.31475 0.0
H2636 H 0.95593 0.51254 0.31388 0.0
H2637 H 0.03416 0.49876 0.26332 0.0
H2638 H 0.00409 0.49955 0.31424 0.0
H2639 H 0.98271 0.5019 0.26222 0.0
C2640 C 0.96018 0.50617 0.27384 0.0
C2641 C 0.95229 0.50908 0.2884 0.0
C2642 C 0.01063 0.49942 0.30304 0.0
C2643 C 0.98553 0.50536 0.28785 0.0
C2644 C 0.02694 0.49613 0.30331 0.0
C2645 C 0.03575 0.4958 0.28903 0.0
C2646 C 0.00297 0.50229 0.28836 0.0
C2647 C 0.02774 0.49891 0.27458 0.0
C2648 C 0.97682 0.50442 0.2735 0.0
C2649 C 0.96152 0.51051 0.30235 0.0
N2650 N 0.01173 0.50193 0.27459 0.0
N2651 N 0.97761 0.5085 0.30175 0.0
H2652 H 0.50166 0.95313 0.72338 0.0
H2653 H 0.50161 0.03324 0.67106 0.0
H2654 H 0.51338 0.95519 0.67307 0.0
H2655 H 0.4963 0.0336 0.72246 0.0
H2656 H 0.50574 0.0044 0.67191 0.0
H2657 H 0.49965 0.98244 0.72373 0.0
C2658 C 0.5039 0.95975 0.71245 0.0
C2659 C 0.50771 0.95171 0.69818 0.0
C2660 C 0.5037 0.01074 0.68303 0.0
C2661 C 0.5054 0.98511 0.69848 0.0
C2662 C 0.50121 0.02719 0.68253 0.0
C2663 C 0.49845 0.03577 0.69669 0.0
C2664 C 0.50335 0.00271 0.6978 0.0
C2665 C 0.49842 0.0274 0.71127 0.0
C2666 C 0.50281 0.97645 0.71267 0.0
C2667 C 0.51063 0.96086 0.6844 0.0
N2668 N 0.50074 0.01127 0.71145 0.0
N2669 N 0.50932 0.97703 0.68488 0.0
H2670 H 0.95768 0.46295 0.72134 0.0
H2671 H 0.03537 0.51777 0.73087 0.0
H2672 H 0.95704 0.51466 0.72314 0.0
H2673 H 0.03672 0.46737 0.71938 0.0
H2674 H 0.00646 0.51574 0.73489 0.0
H2675 H 0.98637 0.46347 0.72721 0.0
C2676 C 0.96352 0.4744 0.72311 0.0
C2677 C 0.95496 0.48879 0.72147 0.0
C2678 C 0.01313 0.50508 0.73172 0.0
C2679 C 0.98771 0.48944 0.72834 0.0
C2680 C 0.02962 0.50624 0.72938 0.0
C2681 C 0.03843 0.49279 0.72448 0.0
C2682 C 0.00539 0.49038 0.72909 0.0
C2683 C 0.03042 0.47806 0.72313 0.0
C2684 C 0.97987 0.47468 0.72654 0.0
C2685 C 0.96308 0.50325 0.72432 0.0
N2686 N 0.01431 0.4773 0.72518 0.0
N2687 N 0.97903 0.50321 0.72742 0.0
H2688 H 0.25959 0.47554 0.95769 0.0
H2689 H 0.28262 0.52818 0.03304 0.0
H2690 H 0.27379 0.5252 0.9551 0.0
H2691 H 0.26271 0.48057 0.03689 0.0
H2692 H 0.27566 0.52851 0.0048 0.0
H2693 H 0.25699 0.47816 0.98675 0.0
C2694 C 0.26193 0.48705 0.96321 0.0
C2695 C 0.26713 0.5001 0.95399 0.0
C2696 C 0.2726 0.51806 0.01184 0.0
C2697 C 0.26427 0.50317 0.98717 0.0
C2698 C 0.27649 0.51789 0.02806 0.0
C2699 C 0.27345 0.50423 0.03737 0.0
C2700 C 0.26581 0.50439 0.00479 0.0
C2701 C 0.26567 0.49121 0.03009 0.0
C2702 C 0.26039 0.48856 0.97978 0.0
C2703 C 0.26972 0.51481 0.96171 0.0
N2704 N 0.26232 0.49152 0.01417 0.0
N2705 N 0.2685 0.51587 0.97787 0.0
H2706 H 0.47613 0.26703 0.95623 0.0
H2707 H 0.52476 0.2772 0.03697 0.0
H2708 H 0.52734 0.27392 0.95821 0.0
H2709 H 0.47396 0.26796 0.03486 0.0
H2710 H 0.52677 0.27115 0.00843 0.0
H2711 H 0.47596 0.26205 0.98495 0.0
C2712 C 0.48741 0.26714 0.96262 0.0
C2713 C 0.50174 0.2712 0.95483 0.0
C2714 C 0.51522 0.2702 0.01424 0.0
C2715 C 0.50156 0.2659 0.98784 0.0
C2716 C 0.51406 0.27372 0.03051 0.0
C2717 C 0.49912 0.27336 0.03818 0.0
C2718 C 0.5013 0.26648 0.00556 0.0
C2719 C 0.4857 0.26844 0.02938 0.0
C2720 C 0.48728 0.2644 0.97908 0.0
C2721 C 0.51596 0.27127 0.96381 0.0
N2722 N 0.48706 0.26545 0.01346 0.0
N2723 N 0.51547 0.26893 0.97989 0.0
H2724 H 0.70949 0.52505 0.95606 0.0
H2725 H 0.72155 0.47131 0.03167 0.0
H2726 H 0.73341 0.47922 0.95299 0.0
H2727 H 0.71702 0.52268 0.03485 0.0
H2728 H 0.72687 0.47386 0.00293 0.0
H2729 H 0.71336 0.52481 0.98484 0.0
C2730 C 0.71588 0.51507 0.9613 0.0
C2731 C 0.72094 0.50202 0.95195 0.0
C2732 C 0.72501 0.48459 0.00998 0.0
C2733 C 0.7249 0.50149 0.98519 0.0
C2734 C 0.7219 0.48313 0.02632 0.0
C2735 C 0.71871 0.4968 0.03554 0.0
C2736 C 0.72458 0.4998 0.0028 0.0
C2737 C 0.71945 0.51185 0.02814 0.0
C2738 C 0.71799 0.51492 0.97784 0.0
C2739 C 0.72887 0.48934 0.95969 0.0
N2740 N 0.72203 0.51294 0.01212 0.0
N2741 N 0.73035 0.48925 0.9759 0.0
H2742 H 0.52134 0.72094 0.95578 0.0
H2743 H 0.47309 0.72783 0.03792 0.0
H2744 H 0.46977 0.72062 0.95918 0.0
H2745 H 0.52392 0.71885 0.03462 0.0
H2746 H 0.47226 0.73182 0.00894 0.0
H2747 H 0.5229 0.72698 0.98436 0.0
C2748 C 0.51034 0.72246 0.96248 0.0
C2749 C 0.4954 0.72005 0.95517 0.0
C2750 C 0.48363 0.72921 0.01461 0.0
C2751 C 0.49711 0.72674 0.98788 0.0
C2752 C 0.48411 0.72688 0.03113 0.0
C2753 C 0.49854 0.72271 0.03868 0.0
C2754 C 0.49768 0.72734 0.00557 0.0
C2755 C 0.51252 0.72204 0.02935 0.0
C2756 C 0.51124 0.72581 0.97881 0.0
C2757 C 0.48153 0.72206 0.96445 0.0
N2758 N 0.5117 0.72411 0.01325 0.0
N2759 N 0.48272 0.72512 0.98036 0.0
H2760 H 0.16503 0.22185 0.50459 0.0
H2761 H 0.25565 0.19867 0.52486 0.0
H2762 H 0.19992 0.2555 0.52266 0.0
H2763 H 0.22471 0.17055 0.4945 0.0
H2764 H 0.23344 0.21724 0.52976 0.0
H2765 H 0.18505 0.2006 0.50644 0.0
C2766 C 0.17686 0.22476 0.50903 0.0
C2767 C 0.18089 0.24054 0.5132 0.0
C2768 C 0.2315 0.20692 0.52215 0.0
C2769 C 0.20374 0.21627 0.51553 0.0
C2770 C 0.24411 0.19632 0.51941 0.0
C2771 C 0.242 0.18324 0.5091 0.0
C2772 C 0.2167 0.20429 0.51461 0.0
C2773 C 0.22687 0.18069 0.50229 0.0
C2774 C 0.18825 0.21262 0.51015 0.0
C2775 C 0.19627 0.24352 0.51933 0.0
N2776 N 0.2148 0.19119 0.5051 0.0
N2777 N 0.2072 0.23151 0.52016 0.0
H2778 H 0.75431 0.17899 0.47148 0.0
H2779 H 0.80825 0.24138 0.52024 0.0
H2780 H 0.75325 0.18372 0.52294 0.0
H2781 H 0.80823 0.23752 0.46869 0.0
H2782 H 0.78909 0.21931 0.5216 0.0
H2783 H 0.7753 0.19933 0.47034 0.0
C2784 C 0.75852 0.18431 0.48254 0.0
C2785 C 0.75197 0.17976 0.49732 0.0
C2786 C 0.7933 0.22327 0.50999 0.0
C2787 C 0.77599 0.20297 0.49612 0.0
C2788 C 0.80415 0.23593 0.5092 0.0
C2789 C 0.80976 0.24134 0.49432 0.0
C2790 C 0.788 0.21599 0.49579 0.0
C2791 C 0.80431 0.23364 0.48042 0.0
C2792 C 0.77054 0.19587 0.48189 0.0
C2793 C 0.75806 0.1868 0.5113 0.0
N2794 N 0.79368 0.22139 0.48149 0.0
N2795 N 0.76967 0.19814 0.51035 0.0
H2796 H 0.78764 0.72827 0.49528 0.0
H2797 H 0.76647 0.82089 0.48536 0.0
H2798 H 0.82322 0.76492 0.48708 0.0
H2799 H 0.7309 0.78334 0.4857 0.0
H2800 H 0.78747 0.80057 0.48561 0.0
H2801 H 0.76666 0.74827 0.49163 0.0
C2802 C 0.79104 0.7405 0.4926 0.0
C2803 C 0.80722 0.74494 0.49157 0.0
C2804 C 0.77507 0.79678 0.48552 0.0
C2805 C 0.78326 0.76793 0.48758 0.0
C2806 C 0.76307 0.80837 0.48527 0.0
C2807 C 0.7469 0.80381 0.48559 0.0
C2808 C 0.77087 0.7805 0.48618 0.0
C2809 C 0.74321 0.7874 0.48574 0.0
C2810 C 0.77905 0.75193 0.49057 0.0
C2811 C 0.81092 0.76102 0.48829 0.0
N2812 N 0.75511 0.77634 0.48613 0.0
N2813 N 0.79903 0.77195 0.48647 0.0
H2814 H 0.20657 0.72767 0.48272 0.0
H2815 H 0.22245 0.82212 0.48449 0.0
H2816 H 0.16918 0.76315 0.48669 0.0
H2817 H 0.26005 0.78661 0.48482 0.0
H2818 H 0.20267 0.8007 0.48228 0.0
H2819 H 0.22628 0.74918 0.4802 0.0
C2820 C 0.20251 0.73999 0.48291 0.0
C2821 C 0.18627 0.74366 0.4851 0.0
C2822 C 0.21525 0.7976 0.48275 0.0
C2823 C 0.20869 0.76828 0.48236 0.0
C2824 C 0.22654 0.80981 0.48409 0.0
C2825 C 0.2429 0.80613 0.485 0.0
C2826 C 0.22037 0.78158 0.48235 0.0
C2827 C 0.24756 0.79 0.48407 0.0
C2828 C 0.21375 0.75226 0.48155 0.0
C2829 C 0.18164 0.75982 0.48535 0.0
N2830 N 0.23633 0.7783 0.48291 0.0
N2831 N 0.19281 0.77154 0.48408 0.0
H2832 H 0.50634 0.20591 0.26132 0.0
H2833 H 0.51705 0.22656 0.16849 0.0
H2834 H 0.5152 0.16997 0.2252 0.0
H2835 H 0.49981 0.25984 0.20406 0.0
H2836 H 0.5209 0.20647 0.1896 0.0
H2837 H 0.50856 0.2266 0.24092 0.0
C2838 C 0.50896 0.20238 0.24912 0.0
C2839 C 0.51048 0.18618 0.24492 0.0
C2840 C 0.51638 0.21821 0.19277 0.0
C2841 C 0.51275 0.20983 0.22144 0.0
C2842 C 0.51427 0.22966 0.18078 0.0
C2843 C 0.50792 0.24474 0.18459 0.0
C2844 C 0.51224 0.222 0.20863 0.0
C2845 C 0.50446 0.24822 0.20063 0.0
C2846 C 0.51011 0.2142 0.23745 0.0
C2847 C 0.51366 0.18231 0.22888 0.0
N2848 N 0.50659 0.2369 0.21205 0.0
N2849 N 0.51461 0.19406 0.21767 0.0
H2850 H 0.82483 0.49143 0.22086 0.0
H2851 H 0.73906 0.46011 0.19271 0.0
H2852 H 0.78996 0.47198 0.25382 0.0
H2853 H 0.76415 0.49879 0.1695 0.0
H2854 H 0.76083 0.45829 0.21253 0.0
H2855 H 0.80558 0.48808 0.19911 0.0
C2856 C 0.81316 0.48643 0.22356 0.0
C2857 C 0.80892 0.48227 0.23929 0.0
C2858 C 0.7616 0.46704 0.20299 0.0
C2859 C 0.78709 0.47803 0.21437 0.0
C2860 C 0.74929 0.46804 0.19174 0.0
C2861 C 0.74995 0.47967 0.17969 0.0
C2862 C 0.77465 0.4776 0.20189 0.0
C2863 C 0.7633 0.48975 0.17877 0.0
C2864 C 0.80226 0.48444 0.21111 0.0
C2865 C 0.79381 0.47532 0.24191 0.0
N2866 N 0.77518 0.48849 0.18977 0.0
N2867 N 0.78339 0.4735 0.22957 0.0
H2868 H 0.52053 0.76204 0.17551 0.0
H2869 H 0.49698 0.78405 0.26541 0.0
H2870 H 0.50098 0.72798 0.20911 0.0
H2871 H 0.51901 0.81733 0.23253 0.0
H2872 H 0.50057 0.76271 0.24576 0.0
H2873 H 0.52203 0.7819 0.19691 0.0
C2874 C 0.51658 0.75875 0.18742 0.0
C2875 C 0.51044 0.74343 0.19053 0.0
C2876 C 0.50473 0.77466 0.24289 0.0
C2877 C 0.51218 0.76603 0.21508 0.0
C2878 C 0.50276 0.78683 0.25414 0.0
C2879 C 0.50755 0.80253 0.25053 0.0
C2880 C 0.51146 0.77823 0.2279 0.0
C2881 C 0.51482 0.80547 0.23567 0.0
C2882 C 0.51752 0.77005 0.19965 0.0
C2883 C 0.50581 0.73966 0.20623 0.0
N2884 N 0.51645 0.79345 0.22485 0.0
N2885 N 0.50663 0.75095 0.2179 0.0
H2886 H 0.1915 0.52074 0.24567 0.0
H2887 H 0.23836 0.47504 0.17627 0.0
H2888 H 0.18374 0.47077 0.23466 0.0
H2889 H 0.25607 0.51819 0.19869 0.0
H2890 H 0.21642 0.47441 0.19558 0.0
H2891 H 0.2133 0.5213 0.2262 0.0
C2892 C 0.19439 0.50987 0.23922 0.0
C2893 C 0.1858 0.49566 0.24189 0.0
C2894 C 0.22515 0.48398 0.19627 0.0
C2895 C 0.21056 0.49632 0.21941 0.0
C2896 C 0.23775 0.4843 0.18533 0.0
C2897 C 0.24913 0.49668 0.18585 0.0
C2898 C 0.22382 0.49621 0.20772 0.0
C2899 C 0.24747 0.50855 0.19765 0.0
C2900 C 0.2068 0.51022 0.22807 0.0
C2901 C 0.18987 0.48205 0.23287 0.0
N2902 N 0.23501 0.50805 0.20809 0.0
N2903 N 0.20196 0.48272 0.22203 0.0
H2904 H 0.46347 0.7392 0.7982 0.0
H2905 H 0.49699 0.82298 0.76764 0.0
H2906 H 0.50619 0.7608 0.81753 0.0
H2907 H 0.47448 0.78903 0.73566 0.0
H2908 H 0.49508 0.80332 0.7892 0.0
H2909 H 0.46203 0.76074 0.77814 0.0
C2910 C 0.47243 0.74858 0.79825 0.0
C2911 C 0.48503 0.74831 0.80931 0.0
C2912 C 0.49048 0.8003 0.77746 0.0
C2913 C 0.48334 0.77284 0.78686 0.0
C2914 C 0.49164 0.81144 0.7651 0.0
C2915 C 0.48612 0.80761 0.74968 0.0
C2916 C 0.48348 0.78535 0.77446 0.0
C2917 C 0.4788 0.79262 0.74733 0.0
C2918 C 0.47164 0.76077 0.78685 0.0
C2919 C 0.4964 0.76063 0.80902 0.0
N2920 N 0.47773 0.78201 0.7596 0.0
N2921 N 0.49527 0.77247 0.79796 0.0
H2922 H 0.26575 0.50681 0.78407 0.0
H2923 H 0.18571 0.47201 0.74673 0.0
H2924 H 0.2329 0.47755 0.81146 0.0
H2925 H 0.20206 0.5197 0.73552 0.0
H2926 H 0.20715 0.46967 0.76672 0.0
H2927 H 0.24614 0.50773 0.76236 0.0
C2928 C 0.25448 0.5006 0.7856 0.0
C2929 C 0.25101 0.49217 0.79977 0.0
C2930 C 0.20608 0.48058 0.75978 0.0
C2931 C 0.22889 0.49276 0.77471 0.0
C2932 C 0.19398 0.48188 0.74839 0.0
C2933 C 0.19224 0.49607 0.73962 0.0
C2934 C 0.21663 0.49344 0.76211 0.0
C2935 C 0.20308 0.50862 0.74218 0.0
C2936 C 0.24338 0.50106 0.77314 0.0
C2937 C 0.23633 0.48398 0.80074 0.0
N2938 N 0.21492 0.507 0.7532 0.0
N2939 N 0.22583 0.48444 0.78836 0.0
H2940 H 0.46554 0.19101 0.74613 0.0
H2941 H 0.50365 0.22707 0.82541 0.0
H2942 H 0.51055 0.17421 0.76503 0.0
H2943 H 0.47769 0.2565 0.7916 0.0
H2944 H 0.50197 0.20471 0.80669 0.0
H2945 H 0.46525 0.21226 0.76653 0.0
C2946 C 0.47522 0.19172 0.75475 0.0
C2947 C 0.4881 0.181 0.75403 0.0
C2948 C 0.49663 0.21609 0.80346 0.0
C2949 C 0.4878 0.20492 0.77719 0.0
C2950 C 0.49769 0.22892 0.81405 0.0
C2951 C 0.49098 0.24384 0.81005 0.0
C2952 C 0.48853 0.21805 0.78892 0.0
C2953 C 0.4829 0.24524 0.79534 0.0
C2954 C 0.4751 0.20382 0.76625 0.0
C2955 C 0.50046 0.18236 0.76528 0.0
N2956 N 0.48188 0.23248 0.78531 0.0
N2957 N 0.5 0.19412 0.77648 0.0
H2958 H 0.73036 0.49061 0.78394 0.0
H2959 H 0.82222 0.50533 0.76433 0.0
H2960 H 0.763 0.5128 0.81741 0.0
H2961 H 0.7866 0.49904 0.72746 0.0
H2962 H 0.80086 0.50669 0.78434 0.0
H2963 H 0.75093 0.4924 0.76324 0.0
C2964 C 0.74178 0.49599 0.78692 0.0
C2965 C 0.74497 0.50146 0.8025 0.0
C2966 C 0.79771 0.50513 0.77186 0.0
C2967 C 0.76863 0.50324 0.77893 0.0
C2968 C 0.80987 0.50427 0.76049 0.0
C2969 C 0.80609 0.50199 0.7443 0.0
C2970 C 0.78169 0.50346 0.76702 0.0
C2971 C 0.78994 0.50087 0.73985 0.0
C2972 C 0.75353 0.49695 0.77511 0.0
C2973 C 0.7601 0.50809 0.80569 0.0
N2974 N 0.7783 0.50145 0.75119 0.0
N2975 N 0.77141 0.50869 0.79404 0.0
loop_
_geom_bond_atom_site_label_1
_geom_bond_atom_site_label_2
_geom_bond_distance
_geom_bond_site_symmetry_2
_ccdc_geom_bond_type
Li0 N17 1.990 . S
Li0 O60 1.956 . S
Li0 O61 1.970 . S
Li0 O62 1.961 . S
Li1 N25 1.990 . S
Li1 O60 1.970 . S
Li1 O61 1.956 . S
Li1 O63 1.961 . S
Li2 N47 1.990 . S
Li2 O60 1.961 . S
Li2 O62 1.956 . S
Li2 O63 1.970 . S
Li3 N53 1.990 . S
Li3 O61 1.961 . S
Li3 O62 1.970 . S
Li3 O63 1.956 . S
C4 C6 1.348 . S
C4 C7 1.356 . S
C4 O60 1.325 . S
N5 C8 1.314 . S
N5 C9 1.279 . S
C6 C4 1.348 . S
C6 C8 1.353 . S
C6 H64 0.929 . S
C7 C4 1.356 . S
C7 C9 1.358 . S
C7 H65 0.930 . S
C8 N5 1.314 . S
C8 C6 1.353 . S
C8 H66 0.930 . S
C9 N5 1.279 . S
C9 C7 1.358 . S
C9 H67 0.930 . S
C10 C13 1.348 . S
C10 C14 1.356 . S
C10 O61 1.325 . S
C11 N12 1.279 . S
C11 C14 1.358 . S
C11 H68 0.930 . S
N12 C11 1.279 . S
N12 C15 1.314 . S
C13 C10 1.348 . S
C13 C15 1.353 . S
C13 H69 0.929 . S
C14 C10 1.356 . S
C14 C11 1.358 . S
C14 H70 0.930 . S
C15 N12 1.314 . S
C15 C13 1.353 . S
C15 H71 0.930 . S
C16 N17 1.314 . S
C16 C21 1.353 . S
C16 H22 0.930 . S
N17 Li0 1.990 . S
N17 C16 1.314 . S
N17 C19 1.279 . S
C18 C19 1.358 . S
C18 C20 1.356 . S
C18 H72 0.930 . S
C19 N17 1.279 . S
C19 C18 1.358 . S
C19 H23 0.930 . S
C20 C18 1.356 . S
C20 C21 1.348 . S
C21 C16 1.353 . S
C21 C20 1.348 . S
C21 H73 0.929 . S
H22 C16 0.930 . S
H23 C19 0.930 . S
C24 N25 1.314 . S
C24 C26 1.353 . S
C24 H30 0.930 . S
N25 Li1 1.990 . S
N25 C24 1.314 . S
N25 C28 1.279 . S
C26 C24 1.353 . S
C26 C29 1.348 . S
C26 H74 0.929 . S
C27 C28 1.358 . S
C27 C29 1.356 . S
C27 H75 0.930 . S
C28 N25 1.279 . S
C28 C27 1.358 . S
C28 H31 0.930 . S
C29 C26 1.348 . S
C29 C27 1.356 . S
H30 C24 0.930 . S
H31 C28 0.930 . S
C32 C34 1.348 . S
C32 C35 1.356 . S
C32 O62 1.325 . S
N33 C36 1.314 . S
N33 C37 1.279 . S
C34 C32 1.348 . S
C34 C36 1.353 . S
C34 H76 0.929 . S
C35 C32 1.356 . S
C35 C37 1.358 . S
C35 H77 0.930 . S
C36 N33 1.314 . S
C36 C34 1.353 . S
C36 H78 0.930 . S
C37 N33 1.279 . S
C37 C35 1.358 . S
C37 H79 0.930 . S
C38 C39 1.348 . S
C38 C40 1.356 . S
C38 O63 1.325 . S
C39 C38 1.348 . S
C39 C41 1.353 . S
C39 H80 0.929 . S
C40 C38 1.356 . S
C40 C42 1.358 . S
C40 H81 0.930 . S
C41 C39 1.353 . S
C41 N43 1.314 . S
C41 H82 0.930 . S
C42 C40 1.358 . S
C42 N43 1.279 . S
C42 H83 0.930 . S
N43 C41 1.314 . S
N43 C42 1.279 . S
C44 C46 1.353 . S
C44 N47 1.314 . S
C44 H50 0.930 . S
C45 N47 1.279 . S
C45 C48 1.358 . S
C45 H51 0.930 . S
C46 C44 1.353 . S
C46 C49 1.348 . S
C46 H84 0.929 . S
N47 Li2 1.990 . S
N47 C44 1.314 . S
N47 C45 1.279 . S
C48 C45 1.358 . S
C48 C49 1.356 . S
C48 H85 0.930 . S
C49 C46 1.348 . S
C49 C48 1.356 . S
H50 C44 0.930 . S
H51 C45 0.930 . S
C52 N53 1.314 . S
C52 C54 1.353 . S
C52 H58 0.930 . S
N53 Li3 1.990 . S
N53 C52 1.314 . S
N53 C56 1.279 . S
C54 C52 1.353 . S
C54 C57 1.348 . S
C54 H86 0.929 . S
C55 C56 1.358 . S
C55 C57 1.356 . S
C55 H87 0.930 . S
C56 N53 1.279 . S
C56 C55 1.358 . S
C56 H59 0.930 . S
C57 C54 1.348 . S
C57 C55 1.356 . S
H58 C52 0.930 . S
H59 C56 0.930 . S
O60 Li0 1.956 . S
O60 Li1 1.970 . S
O60 Li2 1.961 . S
O60 C4 1.325 . S
O61 Li0 1.970 . S
O61 Li1 1.956 . S
O61 Li3 1.961 . S
O61 C10 1.325 . S
O62 Li0 1.961 . S
O62 Li2 1.956 . S
O62 Li3 1.970 . S
O62 C32 1.325 . S
O63 Li1 1.961 . S
O63 Li2 1.970 . S
O63 Li3 1.956 . S
O63 C38 1.325 . S
H64 C6 0.929 . S
H65 C7 0.930 . S
H66 C8 0.930 . S
H67 C9 0.930 . S
H68 C11 0.930 . S
H69 C13 0.929 . S
H70 C14 0.930 . S
H71 C15 0.930 . S
H72 C18 0.930 . S
H73 C21 0.929 . S
H74 C26 0.929 . S
H75 C27 0.930 . S
H76 C34 0.929 . S
H77 C35 0.930 . S
H78 C36 0.930 . S
H79 C37 0.930 . S
H80 C39 0.929 . S
H81 C40 0.930 . S
H82 C41 0.930 . S
H83 C42 0.930 . S
H84 C46 0.929 . S
H85 C48 0.930 . S
H86 C54 0.929 . S
H87 C55 0.930 . S
Li88 N105 1.990 . S
Li88 O148 1.956 . S
Li88 O149 1.970 . S
Li88 O150 1.961 . S
Li89 N113 1.990 . S
Li89 O148 1.970 . S
Li89 O149 1.956 . S
Li89 O151 1.961 . S
Li90 N135 1.990 . S
Li90 O148 1.961 . S
Li90 O150 1.956 . S
Li90 O151 1.970 . S
Li91 N141 1.990 . S
Li91 O149 1.961 . S
Li91 O150 1.970 . S
Li91 O151 1.956 . S
C92 C94 1.348 . S
C92 C95 1.356 . S
C92 O148 1.325 . S
N93 C96 1.314 . S
N93 C97 1.279 . S
C94 C92 1.348 . S
C94 C96 1.353 . S
C94 H152 0.929 . S
C95 C92 1.356 . S
C95 C97 1.358 . S
C95 H153 0.930 . S
C96 N93 1.314 . S
C96 C94 1.353 . S
C96 H154 0.930 . S
C97 N93 1.279 . S
C97 C95 1.358 . S
C97 H155 0.930 . S
C98 C101 1.348 . S
C98 C102 1.356 . S
C98 O149 1.325 . S
C99 N100 1.279 . S
C99 C102 1.358 . S
C99 H156 0.930 . S
N100 C99 1.279 . S
N100 C103 1.314 . S
C101 C98 1.348 . S
C101 C103 1.353 . S
C101 H157 0.929 . S
C102 C98 1.356 . S
C102 C99 1.358 . S
C102 H158 0.930 . S
C103 N100 1.314 . S
C103 C101 1.353 . S
C103 H159 0.930 . S
C104 N105 1.314 . S
C104 C109 1.353 . S
C104 H110 0.930 . S
N105 Li88 1.990 . S
N105 C104 1.314 . S
N105 C107 1.279 . S
C106 C107 1.358 . S
C106 C108 1.356 . S
C106 H160 0.930 . S
C107 N105 1.279 . S
C107 C106 1.358 . S
C107 H111 0.930 . S
C108 C106 1.356 . S
C108 C109 1.348 . S
C109 C104 1.353 . S
C109 C108 1.348 . S
C109 H161 0.929 . S
H110 C104 0.930 . S
H111 C107 0.930 . S
C112 N113 1.314 . S
C112 C114 1.353 . S
C112 H118 0.930 . S
N113 Li89 1.990 . S
N113 C112 1.314 . S
N113 C116 1.279 . S
C114 C112 1.353 . S
C114 C117 1.348 . S
C114 H162 0.929 . S
C115 C116 1.358 . S
C115 C117 1.356 . S
C115 H163 0.930 . S
C116 N113 1.279 . S
C116 C115 1.358 . S
C116 H119 0.930 . S
C117 C114 1.348 . S
C117 C115 1.356 . S
H118 C112 0.930 . S
H119 C116 0.930 . S
C120 C122 1.348 . S
C120 C123 1.356 . S
C120 O150 1.325 . S
N121 C124 1.314 . S
N121 C125 1.279 . S
C122 C120 1.348 . S
C122 C124 1.353 . S
C122 H164 0.929 . S
C123 C120 1.356 . S
C123 C125 1.358 . S
C123 H165 0.930 . S
C124 N121 1.314 . S
C124 C122 1.353 . S
C124 H166 0.930 . S
C125 N121 1.279 . S
C125 C123 1.358 . S
C125 H167 0.930 . S
C126 C127 1.348 . S
C126 C128 1.356 . S
C126 O151 1.325 . S
C127 C126 1.348 . S
C127 C129 1.353 . S
C127 H168 0.929 . S
C128 C126 1.356 . S
C128 C130 1.358 . S
C128 H169 0.930 . S
C129 C127 1.353 . S
C129 N131 1.314 . S
C129 H170 0.930 . S
C130 C128 1.358 . S
C130 N131 1.279 . S
C130 H171 0.930 . S
N131 C129 1.314 . S
N131 C130 1.279 . S
C132 C134 1.353 . S
C132 N135 1.314 . S
C132 H138 0.930 . S
C133 N135 1.279 . S
C133 C136 1.358 . S
C133 H139 0.930 . S
C134 C132 1.353 . S
C134 C137 1.348 . S
C134 H172 0.929 . S
N135 Li90 1.990 . S
N135 C132 1.314 . S
N135 C133 1.279 . S
C136 C133 1.358 . S
C136 C137 1.356 . S
C136 H173 0.930 . S
C137 C134 1.348 . S
C137 C136 1.356 . S
H138 C132 0.930 . S
H139 C133 0.930 . S
C140 N141 1.314 . S
C140 C142 1.353 . S
C140 H146 0.930 . S
N141 Li91 1.990 . S
N141 C140 1.314 . S
N141 C144 1.279 . S
C142 C140 1.353 . S
C142 C145 1.348 . S
C142 H174 0.929 . S
C143 C144 1.358 . S
C143 C145 1.356 . S
C143 H175 0.930 . S
C144 N141 1.279 . S
C144 C143 1.358 . S
C144 H147 0.930 . S
C145 C142 1.348 . S
C145 C143 1.356 . S
H146 C140 0.930 . S
H147 C144 0.930 . S
O148 Li88 1.956 . S
O148 Li89 1.970 . S
O148 Li90 1.961 . S
O148 C92 1.325 . S
O149 Li88 1.970 . S
O149 Li89 1.956 . S
O149 Li91 1.961 . S
O149 C98 1.325 . S
O150 Li88 1.961 . S
O150 Li90 1.956 . S
O150 Li91 1.970 . S
O150 C120 1.325 . S
O151 Li89 1.961 . S
O151 Li90 1.970 . S
O151 Li91 1.956 . S
O151 C126 1.325 . S
H152 C94 0.929 . S
H153 C95 0.930 . S
H154 C96 0.930 . S
H155 C97 0.930 . S
H156 C99 0.930 . S
H157 C101 0.929 . S
H158 C102 0.930 . S
H159 C103 0.930 . S
H160 C106 0.930 . S
H161 C109 0.929 . S
H162 C114 0.929 . S
H163 C115 0.930 . S
H164 C122 0.929 . S
H165 C123 0.930 . S
H166 C124 0.930 . S
H167 C125 0.930 . S
H168 C127 0.929 . S
H169 C128 0.930 . S
H170 C129 0.930 . S
H171 C130 0.930 . S
H172 C134 0.929 . S
H173 C136 0.930 . S
H174 C142 0.929 . S
H175 C143 0.930 . S
Li176 N193 1.990 . S
Li176 O236 1.956 . S
Li176 O237 1.970 . S
Li176 O238 1.961 . S
Li177 N201 1.990 . S
Li177 O236 1.970 . S
Li177 O237 1.956 . S
Li177 O239 1.961 . S
Li178 N223 1.990 . S
Li178 O236 1.961 . S
Li178 O238 1.956 . S
Li178 O239 1.970 . S
Li179 N229 1.990 . S
Li179 O237 1.961 . S
Li179 O238 1.970 . S
Li179 O239 1.956 . S
C180 C182 1.348 . S
C180 C183 1.356 . S
C180 O236 1.325 . S
N181 C184 1.314 . S
N181 C185 1.279 . S
C182 C180 1.348 . S
C182 C184 1.353 . S
C182 H240 0.929 . S
C183 C180 1.356 . S
C183 C185 1.358 . S
C183 H241 0.930 . S
C184 N181 1.314 . S
C184 C182 1.353 . S
C184 H242 0.930 . S
C185 N181 1.279 . S
C185 C183 1.358 . S
C185 H243 0.930 . S
C186 C189 1.348 . S
C186 C190 1.356 . S
C186 O237 1.325 . S
C187 N188 1.279 . S
C187 C190 1.358 . S
C187 H244 0.930 . S
N188 C187 1.279 . S
N188 C191 1.314 . S
C189 C186 1.348 . S
C189 C191 1.353 . S
C189 H245 0.929 . S
C190 C186 1.356 . S
C190 C187 1.358 . S
C190 H246 0.930 . S
C191 N188 1.314 . S
C191 C189 1.353 . S
C191 H247 0.930 . S
C192 N193 1.314 . S
C192 C197 1.353 . S
C192 H198 0.930 . S
N193 Li176 1.990 . S
N193 C192 1.314 . S
N193 C195 1.279 . S
C194 C195 1.358 . S
C194 C196 1.356 . S
C194 H248 0.930 . S
C195 N193 1.279 . S
C195 C194 1.358 . S
C195 H199 0.930 . S
C196 C194 1.356 . S
C196 C197 1.348 . S
C197 C192 1.353 . S
C197 C196 1.348 . S
C197 H249 0.929 . S
H198 C192 0.930 . S
H199 C195 0.930 . S
C200 N201 1.314 . S
C200 C202 1.353 . S
C200 H206 0.930 . S
N201 Li177 1.990 . S
N201 C200 1.314 . S
N201 C204 1.279 . S
C202 C200 1.353 . S
C202 C205 1.348 . S
C202 H250 0.929 . S
C203 C204 1.358 . S
C203 C205 1.356 . S
C203 H251 0.930 . S
C204 N201 1.279 . S
C204 C203 1.358 . S
C204 H207 0.930 . S
C205 C202 1.348 . S
C205 C203 1.356 . S
H206 C200 0.930 . S
H207 C204 0.930 . S
C208 C210 1.348 . S
C208 C211 1.356 . S
C208 O238 1.325 . S
N209 C212 1.314 . S
N209 C213 1.279 . S
C210 C208 1.348 . S
C210 C212 1.353 . S
C210 H252 0.929 . S
C211 C208 1.356 . S
C211 C213 1.358 . S
C211 H253 0.930 . S
C212 N209 1.314 . S
C212 C210 1.353 . S
C212 H254 0.930 . S
C213 N209 1.279 . S
C213 C211 1.358 . S
C213 H255 0.930 . S
C214 C215 1.348 . S
C214 C216 1.356 . S
C214 O239 1.325 . S
C215 C214 1.348 . S
C215 C217 1.353 . S
C215 H256 0.929 . S
C216 C214 1.356 . S
C216 C218 1.358 . S
C216 H257 0.930 . S
C217 C215 1.353 . S
C217 N219 1.314 . S
C217 H258 0.930 . S
C218 C216 1.358 . S
C218 N219 1.279 . S
C218 H259 0.930 . S
N219 C217 1.314 . S
N219 C218 1.279 . S
C220 C222 1.353 . S
C220 N223 1.314 . S
C220 H226 0.930 . S
C221 N223 1.279 . S
C221 C224 1.358 . S
C221 H227 0.930 . S
C222 C220 1.353 . S
C222 C225 1.348 . S
C222 H260 0.929 . S
N223 Li178 1.990 . S
N223 C220 1.314 . S
N223 C221 1.279 . S
C224 C221 1.358 . S
C224 C225 1.356 . S
C224 H261 0.930 . S
C225 C222 1.348 . S
C225 C224 1.356 . S
H226 C220 0.930 . S
H227 C221 0.930 . S
C228 N229 1.314 . S
C228 C230 1.353 . S
C228 H234 0.930 . S
N229 Li179 1.990 . S
N229 C228 1.314 . S
N229 C232 1.279 . S
C230 C228 1.353 . S
C230 C233 1.348 . S
C230 H262 0.929 . S
C231 C232 1.358 . S
C231 C233 1.356 . S
C231 H263 0.930 . S
C232 N229 1.279 . S
C232 C231 1.358 . S
C232 H235 0.930 . S
C233 C230 1.348 . S
C233 C231 1.356 . S
H234 C228 0.930 . S
H235 C232 0.930 . S
O236 Li176 1.956 . S
O236 Li177 1.970 . S
O236 Li178 1.961 . S
O236 C180 1.325 . S
O237 Li176 1.970 . S
O237 Li177 1.956 . S
O237 Li179 1.961 . S
O237 C186 1.325 . S
O238 Li176 1.961 . S
O238 Li178 1.956 . S
O238 Li179 1.970 . S
O238 C208 1.325 . S
O239 Li177 1.961 . S
O239 Li178 1.970 . S
O239 Li179 1.956 . S
O239 C214 1.325 . S
H240 C182 0.929 . S
H241 C183 0.930 . S
H242 C184 0.930 . S
H243 C185 0.930 . S
H244 C187 0.930 . S
H245 C189 0.929 . S
H246 C190 0.930 . S
H247 C191 0.930 . S
H248 C194 0.930 . S
H249 C197 0.929 . S
H250 C202 0.929 . S
H251 C203 0.930 . S
H252 C210 0.929 . S
H253 C211 0.930 . S
H254 C212 0.930 . S
H255 C213 0.930 . S
H256 C215 0.929 . S
H257 C216 0.930 . S
H258 C217 0.930 . S
H259 C218 0.930 . S
H260 C222 0.929 . S
H261 C224 0.930 . S
H262 C230 0.929 . S
H263 C231 0.930 . S
Li264 N281 1.990 . S
Li264 O324 1.956 . S
Li264 O325 1.970 . S
Li264 O326 1.961 . S
Li265 N289 1.990 . S
Li265 O324 1.970 . S
Li265 O325 1.956 . S
Li265 O327 1.961 . S
Li266 N311 1.990 . S
Li266 O324 1.961 . S
Li266 O326 1.956 . S
Li266 O327 1.970 . S
Li267 N317 1.990 . S
Li267 O325 1.961 . S
Li267 O326 1.970 . S
Li267 O327 1.956 . S
C268 C270 1.348 . S
C268 C271 1.356 . S
C268 O324 1.325 . S
N269 C272 1.314 . S
N269 C273 1.279 . S
C270 C268 1.348 . S
C270 C272 1.353 . S
C270 H328 0.929 . S
C271 C268 1.356 . S
C271 C273 1.358 . S
C271 H329 0.930 . S
C272 N269 1.314 . S
C272 C270 1.353 . S
C272 H330 0.930 . S
C273 N269 1.279 . S
C273 C271 1.358 . S
C273 H331 0.930 . S
C274 C277 1.348 . S
C274 C278 1.356 . S
C274 O325 1.325 . S
C275 N276 1.279 . S
C275 C278 1.358 . S
C275 H332 0.930 . S
N276 C275 1.279 . S
N276 C279 1.314 . S
C277 C274 1.348 . S
C277 C279 1.353 . S
C277 H333 0.929 . S
C278 C274 1.356 . S
C278 C275 1.358 . S
C278 H334 0.930 . S
C279 N276 1.314 . S
C279 C277 1.353 . S
C279 H335 0.930 . S
C280 N281 1.314 . S
C280 C285 1.353 . S
C280 H286 0.930 . S
N281 Li264 1.990 . S
N281 C280 1.314 . S
N281 C283 1.279 . S
C282 C283 1.358 . S
C282 C284 1.356 . S
C282 H336 0.930 . S
C283 N281 1.279 . S
C283 C282 1.358 . S
C283 H287 0.930 . S
C284 C282 1.356 . S
C284 C285 1.348 . S
C285 C280 1.353 . S
C285 C284 1.348 . S
C285 H337 0.929 . S
H286 C280 0.930 . S
H287 C283 0.930 . S
C288 N289 1.314 . S
C288 C290 1.353 . S
C288 H294 0.930 . S
N289 Li265 1.990 . S
N289 C288 1.314 . S
N289 C292 1.279 . S
C290 C288 1.353 . S
C290 C293 1.348 . S
C290 H338 0.929 . S
C291 C292 1.358 . S
C291 C293 1.356 . S
C291 H339 0.930 . S
C292 N289 1.279 . S
C292 C291 1.358 . S
C292 H295 0.930 . S
C293 C290 1.348 . S
C293 C291 1.356 . S
H294 C288 0.930 . S
H295 C292 0.930 . S
C296 C298 1.348 . S
C296 C299 1.356 . S
C296 O326 1.325 . S
N297 C300 1.314 . S
N297 C301 1.279 . S
C298 C296 1.348 . S
C298 C300 1.353 . S
C298 H340 0.929 . S
C299 C296 1.356 . S
C299 C301 1.358 . S
C299 H341 0.930 . S
C300 N297 1.314 . S
C300 C298 1.353 . S
C300 H342 0.930 . S
C301 N297 1.279 . S
C301 C299 1.358 . S
C301 H343 0.930 . S
C302 C303 1.348 . S
C302 C304 1.356 . S
C302 O327 1.325 . S
C303 C302 1.348 . S
C303 C305 1.353 . S
C303 H344 0.929 . S
C304 C302 1.356 . S
C304 C306 1.358 . S
C304 H345 0.930 . S
C305 C303 1.353 . S
C305 N307 1.314 . S
C305 H346 0.930 . S
C306 C304 1.358 . S
C306 N307 1.279 . S
C306 H347 0.930 . S
N307 C305 1.314 . S
N307 C306 1.279 . S
C308 C310 1.353 . S
C308 N311 1.314 . S
C308 H314 0.930 . S
C309 N311 1.279 . S
C309 C312 1.358 . S
C309 H315 0.930 . S
C310 C308 1.353 . S
C310 C313 1.348 . S
C310 H348 0.929 . S
N311 Li266 1.990 . S
N311 C308 1.314 . S
N311 C309 1.279 . S
C312 C309 1.358 . S
C312 C313 1.356 . S
C312 H349 0.930 . S
C313 C310 1.348 . S
C313 C312 1.356 . S
H314 C308 0.930 . S
H315 C309 0.930 . S
C316 N317 1.314 . S
C316 C318 1.353 . S
C316 H322 0.930 . S
N317 Li267 1.990 . S
N317 C316 1.314 . S
N317 C320 1.279 . S
C318 C316 1.353 . S
C318 C321 1.348 . S
C318 H350 0.929 . S
C319 C320 1.358 . S
C319 C321 1.356 . S
C319 H351 0.930 . S
C320 N317 1.279 . S
C320 C319 1.358 . S
C320 H323 0.930 . S
C321 C318 1.348 . S
C321 C319 1.356 . S
H322 C316 0.930 . S
H323 C320 0.930 . S
O324 Li264 1.956 . S
O324 Li265 1.970 . S
O324 Li266 1.961 . S
O324 C268 1.325 . S
O325 Li264 1.970 . S
O325 Li265 1.956 . S
O325 Li267 1.961 . S
O325 C274 1.325 . S
O326 Li264 1.961 . S
O326 Li266 1.956 . S
O326 Li267 1.970 . S
O326 C296 1.325 . S
O327 Li265 1.961 . S
O327 Li266 1.970 . S
O327 Li267 1.956 . S
O327 C302 1.325 . S
H328 C270 0.929 . S
H329 C271 0.930 . S
H330 C272 0.930 . S
H331 C273 0.930 . S
H332 C275 0.930 . S
H333 C277 0.929 . S
H334 C278 0.930 . S
H335 C279 0.930 . S
H336 C282 0.930 . S
H337 C285 0.929 . S
H338 C290 0.929 . S
H339 C291 0.930 . S
H340 C298 0.929 . S
H341 C299 0.930 . S
H342 C300 0.930 . S
H343 C301 0.930 . S
H344 C303 0.929 . S
H345 C304 0.930 . S
H346 C305 0.930 . S
H347 C306 0.930 . S
H348 C310 0.929 . S
H349 C312 0.930 . S
H350 C318 0.929 . S
H351 C319 0.930 . S
Li352 N369 1.990 . S
Li352 O412 1.956 . S
Li352 O413 1.970 . S
Li352 O414 1.961 . S
Li353 N377 1.990 . S
Li353 O412 1.970 . S
Li353 O413 1.956 . S
Li353 O415 1.961 . S
Li354 N399 1.990 . S
Li354 O412 1.961 . S
Li354 O414 1.956 . S
Li354 O415 1.970 . S
Li355 N405 1.990 . S
Li355 O413 1.961 . S
Li355 O414 1.970 . S
Li355 O415 1.956 . S
C356 C358 1.348 . S
C356 C359 1.356 . S
C356 O412 1.325 . S
N357 C360 1.314 . S
N357 C361 1.279 . S
C358 C356 1.348 . S
C358 C360 1.353 . S
C358 H416 0.929 . S
C359 C356 1.356 . S
C359 C361 1.358 . S
C359 H417 0.930 . S
C360 N357 1.314 . S
C360 C358 1.353 . S
C360 H418 0.930 . S
C361 N357 1.279 . S
C361 C359 1.358 . S
C361 H419 0.930 . S
C362 C365 1.348 . S
C362 C366 1.356 . S
C362 O413 1.325 . S
C363 N364 1.279 . S
C363 C366 1.358 . S
C363 H420 0.930 . S
N364 C363 1.279 . S
N364 C367 1.314 . S
C365 C362 1.348 . S
C365 C367 1.353 . S
C365 H421 0.929 . S
C366 C362 1.356 . S
C366 C363 1.358 . S
C366 H422 0.930 . S
C367 N364 1.314 . S
C367 C365 1.353 . S
C367 H423 0.930 . S
C368 N369 1.314 . S
C368 C373 1.353 . S
C368 H374 0.930 . S
N369 Li352 1.990 . S
N369 C368 1.314 . S
N369 C371 1.279 . S
C370 C371 1.358 . S
C370 C372 1.356 . S
C370 H424 0.930 . S
C371 N369 1.279 . S
C371 C370 1.358 . S
C371 H375 0.930 . S
C372 C370 1.356 . S
C372 C373 1.348 . S
C373 C368 1.353 . S
C373 C372 1.348 . S
C373 H425 0.929 . S
H374 C368 0.930 . S
H375 C371 0.930 . S
C376 N377 1.314 . S
C376 C378 1.353 . S
C376 H382 0.930 . S
N377 Li353 1.990 . S
N377 C376 1.314 . S
N377 C380 1.279 . S
C378 C376 1.353 . S
C378 C381 1.348 . S
C378 H426 0.929 . S
C379 C380 1.358 . S
C379 C381 1.356 . S
C379 H427 0.930 . S
C380 N377 1.279 . S
C380 C379 1.358 . S
C380 H383 0.930 . S
C381 C378 1.348 . S
C381 C379 1.356 . S
H382 C376 0.930 . S
H383 C380 0.930 . S
C384 C386 1.348 . S
C384 C387 1.356 . S
C384 O414 1.325 . S
N385 C388 1.314 . S
N385 C389 1.279 . S
C386 C384 1.348 . S
C386 C388 1.353 . S
C386 H428 0.929 . S
C387 C384 1.356 . S
C387 C389 1.358 . S
C387 H429 0.930 . S
C388 N385 1.314 . S
C388 C386 1.353 . S
C388 H430 0.930 . S
C389 N385 1.279 . S
C389 C387 1.358 . S
C389 H431 0.930 . S
C390 C391 1.348 . S
C390 C392 1.356 . S
C390 O415 1.325 . S
C391 C390 1.348 . S
C391 C393 1.353 . S
C391 H432 0.929 . S
C392 C390 1.356 . S
C392 C394 1.358 . S
C392 H433 0.930 . S
C393 C391 1.353 . S
C393 N395 1.314 . S
C393 H434 0.930 . S
C394 C392 1.358 . S
C394 N395 1.279 . S
C394 H435 0.930 . S
N395 C393 1.314 . S
N395 C394 1.279 . S
C396 C398 1.353 . S
C396 N399 1.314 . S
C396 H402 0.930 . S
C397 N399 1.279 . S
C397 C400 1.358 . S
C397 H403 0.930 . S
C398 C396 1.353 . S
C398 C401 1.348 . S
C398 H436 0.929 . S
N399 Li354 1.990 . S
N399 C396 1.314 . S
N399 C397 1.279 . S
C400 C397 1.358 . S
C400 C401 1.356 . S
C400 H437 0.930 . S
C401 C398 1.348 . S
C401 C400 1.356 . S
H402 C396 0.930 . S
H403 C397 0.930 . S
C404 N405 1.314 . S
C404 C406 1.353 . S
C404 H410 0.930 . S
N405 Li355 1.990 . S
N405 C404 1.314 . S
N405 C408 1.279 . S
C406 C404 1.353 . S
C406 C409 1.348 . S
C406 H438 0.929 . S
C407 C408 1.358 . S
C407 C409 1.356 . S
C407 H439 0.930 . S
C408 N405 1.279 . S
C408 C407 1.358 . S
C408 H411 0.930 . S
C409 C406 1.348 . S
C409 C407 1.356 . S
H410 C404 0.930 . S
H411 C408 0.930 . S
O412 Li352 1.956 . S
O412 Li353 1.970 . S
O412 Li354 1.961 . S
O412 C356 1.325 . S
O413 Li352 1.970 . S
O413 Li353 1.956 . S
O413 Li355 1.961 . S
O413 C362 1.325 . S
O414 Li352 1.961 . S
O414 Li354 1.956 . S
O414 Li355 1.970 . S
O414 C384 1.325 . S
O415 Li353 1.961 . S
O415 Li354 1.970 . S
O415 Li355 1.956 . S
O415 C390 1.325 . S
H416 C358 0.929 . S
H417 C359 0.930 . S
H418 C360 0.930 . S
H419 C361 0.930 . S
H420 C363 0.930 . S
H421 C365 0.929 . S
H422 C366 0.930 . S
H423 C367 0.930 . S
H424 C370 0.930 . S
H425 C373 0.929 . S
H426 C378 0.929 . S
H427 C379 0.930 . S
H428 C386 0.929 . S
H429 C387 0.930 . S
H430 C388 0.930 . S
H431 C389 0.930 . S
H432 C391 0.929 . S
H433 C392 0.930 . S
H434 C393 0.930 . S
H435 C394 0.930 . S
H436 C398 0.929 . S
H437 C400 0.930 . S
H438 C406 0.929 . S
H439 C407 0.930 . S
Li440 N457 1.990 . S
Li440 O500 1.956 . S
Li440 O501 1.970 . S
Li440 O502 1.961 . S
Li441 N465 1.990 . S
Li441 O500 1.970 . S
Li441 O501 1.956 . S
Li441 O503 1.961 . S
Li442 N487 1.990 . S
Li442 O500 1.961 . S
Li442 O502 1.956 . S
Li442 O503 1.970 . S
Li443 N493 1.990 . S
Li443 O501 1.961 . S
Li443 O502 1.970 . S
Li443 O503 1.956 . S
C444 C446 1.348 . S
C444 C447 1.356 . S
C444 O500 1.325 . S
N445 C448 1.314 . S
N445 C449 1.279 . S
C446 C444 1.348 . S
C446 C448 1.353 . S
C446 H504 0.929 . S
C447 C444 1.356 . S
C447 C449 1.358 . S
C447 H505 0.930 . S
C448 N445 1.314 . S
C448 C446 1.353 . S
C448 H506 0.930 . S
C449 N445 1.279 . S
C449 C447 1.358 . S
C449 H507 0.930 . S
C450 C453 1.348 . S
C450 C454 1.356 . S
C450 O501 1.325 . S
C451 N452 1.279 . S
C451 C454 1.358 . S
C451 H508 0.930 . S
N452 C451 1.279 . S
N452 C455 1.314 . S
C453 C450 1.348 . S
C453 C455 1.353 . S
C453 H509 0.929 . S
C454 C450 1.356 . S
C454 C451 1.358 . S
C454 H510 0.930 . S
C455 N452 1.314 . S
C455 C453 1.353 . S
C455 H511 0.930 . S
C456 N457 1.314 . S
C456 C461 1.353 . S
C456 H462 0.930 . S
N457 Li440 1.990 . S
N457 C456 1.314 . S
N457 C459 1.279 . S
C458 C459 1.358 . S
C458 C460 1.356 . S
C458 H512 0.930 . S
C459 N457 1.279 . S
C459 C458 1.358 . S
C459 H463 0.930 . S
C460 C458 1.356 . S
C460 C461 1.348 . S
C461 C456 1.353 . S
C461 C460 1.348 . S
C461 H513 0.929 . S
H462 C456 0.930 . S
H463 C459 0.930 . S
C464 N465 1.314 . S
C464 C466 1.353 . S
C464 H470 0.930 . S
N465 Li441 1.990 . S
N465 C464 1.314 . S
N465 C468 1.279 . S
C466 C464 1.353 . S
C466 C469 1.348 . S
C466 H514 0.929 . S
C467 C468 1.358 . S
C467 C469 1.356 . S
C467 H515 0.930 . S
C468 N465 1.279 . S
C468 C467 1.358 . S
C468 H471 0.930 . S
C469 C466 1.348 . S
C469 C467 1.356 . S
H470 C464 0.930 . S
H471 C468 0.930 . S
C472 C474 1.348 . S
C472 C475 1.356 . S
C472 O502 1.325 . S
N473 C476 1.314 . S
N473 C477 1.279 . S
C474 C472 1.348 . S
C474 C476 1.353 . S
C474 H516 0.929 . S
C475 C472 1.356 . S
C475 C477 1.358 . S
C475 H517 0.930 . S
C476 N473 1.314 . S
C476 C474 1.353 . S
C476 H518 0.930 . S
C477 N473 1.279 . S
C477 C475 1.358 . S
C477 H519 0.930 . S
C478 C479 1.348 . S
C478 C480 1.356 . S
C478 O503 1.325 . S
C479 C478 1.348 . S
C479 C481 1.353 . S
C479 H520 0.929 . S
C480 C478 1.356 . S
C480 C482 1.358 . S
C480 H521 0.930 . S
C481 C479 1.353 . S
C481 N483 1.314 . S
C481 H522 0.930 . S
C482 C480 1.358 . S
C482 N483 1.279 . S
C482 H523 0.930 . S
N483 C481 1.314 . S
N483 C482 1.279 . S
C484 C486 1.353 . S
C484 N487 1.314 . S
C484 H490 0.930 . S
C485 N487 1.279 . S
C485 C488 1.358 . S
C485 H491 0.930 . S
C486 C484 1.353 . S
C486 C489 1.348 . S
C486 H524 0.929 . S
N487 Li442 1.990 . S
N487 C484 1.314 . S
N487 C485 1.279 . S
C488 C485 1.358 . S
C488 C489 1.356 . S
C488 H525 0.930 . S
C489 C486 1.348 . S
C489 C488 1.356 . S
H490 C484 0.930 . S
H491 C485 0.930 . S
C492 N493 1.314 . S
C492 C494 1.353 . S
C492 H498 0.930 . S
N493 Li443 1.990 . S
N493 C492 1.314 . S
N493 C496 1.279 . S
C494 C492 1.353 . S
C494 C497 1.348 . S
C494 H526 0.929 . S
C495 C496 1.358 . S
C495 C497 1.356 . S
C495 H527 0.930 . S
C496 N493 1.279 . S
C496 C495 1.358 . S
C496 H499 0.930 . S
C497 C494 1.348 . S
C497 C495 1.356 . S
H498 C492 0.930 . S
H499 C496 0.930 . S
O500 Li440 1.956 . S
O500 Li441 1.970 . S
O500 Li442 1.961 . S
O500 C444 1.325 . S
O501 Li440 1.970 . S
O501 Li441 1.956 . S
O501 Li443 1.961 . S
O501 C450 1.325 . S
O502 Li440 1.961 . S
O502 Li442 1.956 . S
O502 Li443 1.970 . S
O502 C472 1.325 . S
O503 Li441 1.961 . S
O503 Li442 1.970 . S
O503 Li443 1.956 . S
O503 C478 1.325 . S
H504 C446 0.929 . S
H505 C447 0.930 . S
H506 C448 0.930 . S
H507 C449 0.930 . S
H508 C451 0.930 . S
H509 C453 0.929 . S
H510 C454 0.930 . S
H511 C455 0.930 . S
H512 C458 0.930 . S
H513 C461 0.929 . S
H514 C466 0.929 . S
H515 C467 0.930 . S
H516 C474 0.929 . S
H517 C475 0.930 . S
H518 C476 0.930 . S
H519 C477 0.930 . S
H520 C479 0.929 . S
H521 C480 0.930 . S
H522 C481 0.930 . S
H523 C482 0.930 . S
H524 C486 0.929 . S
H525 C488 0.930 . S
H526 C494 0.929 . S
H527 C495 0.930 . S
Li528 N545 1.990 . S
Li528 O588 1.956 . S
Li528 O589 1.970 . S
Li528 O590 1.961 . S
Li529 N553 1.990 . S
Li529 O588 1.970 . S
Li529 O589 1.956 . S
Li529 O591 1.961 . S
Li530 N575 1.990 . S
Li530 O588 1.961 . S
Li530 O590 1.956 . S
Li530 O591 1.970 . S
Li531 N581 1.990 . S
Li531 O589 1.961 . S
Li531 O590 1.970 . S
Li531 O591 1.956 . S
C532 C534 1.348 . S
C532 C535 1.356 . S
C532 O588 1.325 . S
N533 C536 1.314 . S
N533 C537 1.279 . S
C534 C532 1.348 . S
C534 C536 1.353 . S
C534 H592 0.929 . S
C535 C532 1.356 . S
C535 C537 1.358 . S
C535 H593 0.930 . S
C536 N533 1.314 . S
C536 C534 1.353 . S
C536 H594 0.930 . S
C537 N533 1.279 . S
C537 C535 1.358 . S
C537 H595 0.930 . S
C538 C541 1.348 . S
C538 C542 1.356 . S
C538 O589 1.325 . S
C539 N540 1.279 . S
C539 C542 1.358 . S
C539 H596 0.930 . S
N540 C539 1.279 . S
N540 C543 1.314 . S
C541 C538 1.348 . S
C541 C543 1.353 . S
C541 H597 0.929 . S
C542 C538 1.356 . S
C542 C539 1.358 . S
C542 H598 0.930 . S
C543 N540 1.314 . S
C543 C541 1.353 . S
C543 H599 0.930 . S
C544 N545 1.314 . S
C544 C549 1.353 . S
C544 H550 0.930 . S
N545 Li528 1.990 . S
N545 C544 1.314 . S
N545 C547 1.279 . S
C546 C547 1.358 . S
C546 C548 1.356 . S
C546 H600 0.930 . S
C547 N545 1.279 . S
C547 C546 1.358 . S
C547 H551 0.930 . S
C548 C546 1.356 . S
C548 C549 1.348 . S
C549 C544 1.353 . S
C549 C548 1.348 . S
C549 H601 0.929 . S
H550 C544 0.930 . S
H551 C547 0.930 . S
C552 N553 1.314 . S
C552 C554 1.353 . S
C552 H558 0.930 . S
N553 Li529 1.990 . S
N553 C552 1.314 . S
N553 C556 1.279 . S
C554 C552 1.353 . S
C554 C557 1.348 . S
C554 H602 0.929 . S
C555 C556 1.358 . S
C555 C557 1.356 . S
C555 H603 0.930 . S
C556 N553 1.279 . S
C556 C555 1.358 . S
C556 H559 0.930 . S
C557 C554 1.348 . S
C557 C555 1.356 . S
H558 C552 0.930 . S
H559 C556 0.930 . S
C560 C562 1.348 . S
C560 C563 1.356 . S
C560 O590 1.325 . S
N561 C564 1.314 . S
N561 C565 1.279 . S
C562 C560 1.348 . S
C562 C564 1.353 . S
C562 H604 0.929 . S
C563 C560 1.356 . S
C563 C565 1.358 . S
C563 H605 0.930 . S
C564 N561 1.314 . S
C564 C562 1.353 . S
C564 H606 0.930 . S
C565 N561 1.279 . S
C565 C563 1.358 . S
C565 H607 0.930 . S
C566 C567 1.348 . S
C566 C568 1.356 . S
C566 O591 1.325 . S
C567 C566 1.348 . S
C567 C569 1.353 . S
C567 H608 0.929 . S
C568 C566 1.356 . S
C568 C570 1.358 . S
C568 H609 0.930 . S
C569 C567 1.353 . S
C569 N571 1.314 . S
C569 H610 0.930 . S
C570 C568 1.358 . S
C570 N571 1.279 . S
C570 H611 0.930 . S
N571 C569 1.314 . S
N571 C570 1.279 . S
C572 C574 1.353 . S
C572 N575 1.314 . S
C572 H578 0.930 . S
C573 N575 1.279 . S
C573 C576 1.358 . S
C573 H579 0.930 . S
C574 C572 1.353 . S
C574 C577 1.348 . S
C574 H612 0.929 . S
N575 Li530 1.990 . S
N575 C572 1.314 . S
N575 C573 1.279 . S
C576 C573 1.358 . S
C576 C577 1.356 . S
C576 H613 0.930 . S
C577 C574 1.348 . S
C577 C576 1.356 . S
H578 C572 0.930 . S
H579 C573 0.930 . S
C580 N581 1.314 . S
C580 C582 1.353 . S
C580 H586 0.930 . S
N581 Li531 1.990 . S
N581 C580 1.314 . S
N581 C584 1.279 . S
C582 C580 1.353 . S
C582 C585 1.348 . S
C582 H614 0.929 . S
C583 C584 1.358 . S
C583 C585 1.356 . S
C583 H615 0.930 . S
C584 N581 1.279 . S
C584 C583 1.358 . S
C584 H587 0.930 . S
C585 C582 1.348 . S
C585 C583 1.356 . S
H586 C580 0.930 . S
H587 C584 0.930 . S
O588 Li528 1.956 . S
O588 Li529 1.970 . S
O588 Li530 1.961 . S
O588 C532 1.325 . S
O589 Li528 1.970 . S
O589 Li529 1.956 . S
O589 Li531 1.961 . S
O589 C538 1.325 . S
O590 Li528 1.961 . S
O590 Li530 1.956 . S
O590 Li531 1.970 . S
O590 C560 1.325 . S
O591 Li529 1.961 . S
O591 Li530 1.970 . S
O591 Li531 1.956 . S
O591 C566 1.325 . S
H592 C534 0.929 . S
H593 C535 0.930 . S
H594 C536 0.930 . S
H595 C537 0.930 . S
H596 C539 0.930 . S
H597 C541 0.929 . S
H598 C542 0.930 . S
H599 C543 0.930 . S
H600 C546 0.930 . S
H601 C549 0.929 . S
H602 C554 0.929 . S
H603 C555 0.930 . S
H604 C562 0.929 . S
H605 C563 0.930 . S
H606 C564 0.930 . S
H607 C565 0.930 . S
H608 C567 0.929 . S
H609 C568 0.930 . S
H610 C569 0.930 . S
H611 C570 0.930 . S
H612 C574 0.929 . S
H613 C576 0.930 . S
H614 C582 0.929 . S
H615 C583 0.930 . S
Li616 N633 1.990 . S
Li616 O676 1.956 . S
Li616 O677 1.970 . S
Li616 O678 1.961 . S
Li617 N641 1.990 . S
Li617 O676 1.970 . S
Li617 O677 1.956 . S
Li617 O679 1.961 . S
Li618 N663 1.990 . S
Li618 O676 1.961 . S
Li618 O678 1.956 . S
Li618 O679 1.970 . S
Li619 N669 1.990 . S
Li619 O677 1.961 . S
Li619 O678 1.970 . S
Li619 O679 1.956 . S
C620 C622 1.348 . S
C620 C623 1.356 . S
C620 O676 1.325 . S
N621 C624 1.314 . S
N621 C625 1.279 . S
C622 C620 1.348 . S
C622 C624 1.353 . S
C622 H680 0.929 . S
C623 C620 1.356 . S
C623 C625 1.358 . S
C623 H681 0.930 . S
C624 N621 1.314 . S
C624 C622 1.353 . S
C624 H682 0.930 . S
C625 N621 1.279 . S
C625 C623 1.358 . S
C625 H683 0.930 . S
C626 C629 1.348 . S
C626 C630 1.356 . S
C626 O677 1.325 . S
C627 N628 1.279 . S
C627 C630 1.358 . S
C627 H684 0.930 . S
N628 C627 1.279 . S
N628 C631 1.314 . S
C629 C626 1.348 . S
C629 C631 1.353 . S
C629 H685 0.929 . S
C630 C626 1.356 . S
C630 C627 1.358 . S
C630 H686 0.930 . S
C631 N628 1.314 . S
C631 C629 1.353 . S
C631 H687 0.930 . S
C632 N633 1.314 . S
C632 C637 1.353 . S
C632 H638 0.930 . S
N633 Li616 1.990 . S
N633 C632 1.314 . S
N633 C635 1.279 . S
C634 C635 1.358 . S
C634 C636 1.356 . S
C634 H688 0.930 . S
C635 N633 1.279 . S
C635 C634 1.358 . S
C635 H639 0.930 . S
C636 C634 1.356 . S
C636 C637 1.348 . S
C637 C632 1.353 . S
C637 C636 1.348 . S
C637 H689 0.929 . S
H638 C632 0.930 . S
H639 C635 0.930 . S
C640 N641 1.314 . S
C640 C642 1.353 . S
C640 H646 0.930 . S
N641 Li617 1.990 . S
N641 C640 1.314 . S
N641 C644 1.279 . S
C642 C640 1.353 . S
C642 C645 1.348 . S
C642 H690 0.929 . S
C643 C644 1.358 . S
C643 C645 1.356 . S
C643 H691 0.930 . S
C644 N641 1.279 . S
C644 C643 1.358 . S
C644 H647 0.930 . S
C645 C642 1.348 . S
C645 C643 1.356 . S
H646 C640 0.930 . S
H647 C644 0.930 . S
C648 C650 1.348 . S
C648 C651 1.356 . S
C648 O678 1.325 . S
N649 C652 1.314 . S
N649 C653 1.279 . S
C650 C648 1.348 . S
C650 C652 1.353 . S
C650 H692 0.929 . S
C651 C648 1.356 . S
C651 C653 1.358 . S
C651 H693 0.930 . S
C652 N649 1.314 . S
C652 C650 1.353 . S
C652 H694 0.930 . S
C653 N649 1.279 . S
C653 C651 1.358 . S
C653 H695 0.930 . S
C654 C655 1.348 . S
C654 C656 1.356 . S
C654 O679 1.325 . S
C655 C654 1.348 . S
C655 C657 1.353 . S
C655 H696 0.929 . S
C656 C654 1.356 . S
C656 C658 1.358 . S
C656 H697 0.930 . S
C657 C655 1.353 . S
C657 N659 1.314 . S
C657 H698 0.930 . S
C658 C656 1.358 . S
C658 N659 1.279 . S
C658 H699 0.930 . S
N659 C657 1.314 . S
N659 C658 1.279 . S
C660 C662 1.353 . S
C660 N663 1.314 . S
C660 H666 0.930 . S
C661 N663 1.279 . S
C661 C664 1.358 . S
C661 H667 0.930 . S
C662 C660 1.353 . S
C662 C665 1.348 . S
C662 H700 0.929 . S
N663 Li618 1.990 . S
N663 C660 1.314 . S
N663 C661 1.279 . S
C664 C661 1.358 . S
C664 C665 1.356 . S
C664 H701 0.930 . S
C665 C662 1.348 . S
C665 C664 1.356 . S
H666 C660 0.930 . S
H667 C661 0.930 . S
C668 N669 1.314 . S
C668 C670 1.353 . S
C668 H674 0.930 . S
N669 Li619 1.990 . S
N669 C668 1.314 . S
N669 C672 1.279 . S
C670 C668 1.353 . S
C670 C673 1.348 . S
C670 H702 0.929 . S
C671 C672 1.358 . S
C671 C673 1.356 . S
C671 H703 0.930 . S
C672 N669 1.279 . S
C672 C671 1.358 . S
C672 H675 0.930 . S
C673 C670 1.348 . S
C673 C671 1.356 . S
H674 C668 0.930 . S
H675 C672 0.930 . S
O676 Li616 1.956 . S
O676 Li617 1.970 . S
O676 Li618 1.961 . S
O676 C620 1.325 . S
O677 Li616 1.970 . S
O677 Li617 1.956 . S
O677 Li619 1.961 . S
O677 C626 1.325 . S
O678 Li616 1.961 . S
O678 Li618 1.956 . S
O678 Li619 1.970 . S
O678 C648 1.325 . S
O679 Li617 1.961 . S
O679 Li618 1.970 . S
O679 Li619 1.956 . S
O679 C654 1.325 . S
H680 C622 0.929 . S
H681 C623 0.930 . S
H682 C624 0.930 . S
H683 C625 0.930 . S
H684 C627 0.930 . S
H685 C629 0.929 . S
H686 C630 0.930 . S
H687 C631 0.930 . S
H688 C634 0.930 . S
H689 C637 0.929 . S
H690 C642 0.929 . S
H691 C643 0.930 . S
H692 C650 0.929 . S
H693 C651 0.930 . S
H694 C652 0.930 . S
H695 C653 0.930 . S
H696 C655 0.929 . S
H697 C656 0.930 . S
H698 C657 0.930 . S
H699 C658 0.930 . S
H700 C662 0.929 . S
H701 C664 0.930 . S
H702 C670 0.929 . S
H703 C671 0.930 . S
Li704 N721 1.990 . S
Li704 O764 1.956 . S
Li704 O765 1.970 . S
Li704 O766 1.961 . S
Li705 N729 1.990 . S
Li705 O764 1.970 . S
Li705 O765 1.956 . S
Li705 O767 1.961 . S
Li706 N751 1.990 . S
Li706 O764 1.961 . S
Li706 O766 1.956 . S
Li706 O767 1.970 . S
Li707 N757 1.990 . S
Li707 O765 1.961 . S
Li707 O766 1.970 . S
Li707 O767 1.956 . S
C708 C710 1.348 . S
C708 C711 1.356 . S
C708 O764 1.325 . S
N709 C712 1.314 . S
N709 C713 1.279 . S
C710 C708 1.348 . S
C710 C712 1.353 . S
C710 H768 0.929 . S
C711 C708 1.356 . S
C711 C713 1.358 . S
C711 H769 0.930 . S
C712 N709 1.314 . S
C712 C710 1.353 . S
C712 H770 0.930 . S
C713 N709 1.279 . S
C713 C711 1.358 . S
C713 H771 0.930 . S
C714 C717 1.348 . S
C714 C718 1.356 . S
C714 O765 1.325 . S
C715 N716 1.279 . S
C715 C718 1.358 . S
C715 H772 0.930 . S
N716 C715 1.279 . S
N716 C719 1.314 . S
C717 C714 1.348 . S
C717 C719 1.353 . S
C717 H773 0.929 . S
C718 C714 1.356 . S
C718 C715 1.358 . S
C718 H774 0.930 . S
C719 N716 1.314 . S
C719 C717 1.353 . S
C719 H775 0.930 . S
C720 N721 1.314 . S
C720 C725 1.353 . S
C720 H726 0.930 . S
N721 Li704 1.990 . S
N721 C720 1.314 . S
N721 C723 1.279 . S
C722 C723 1.358 . S
C722 C724 1.356 . S
C722 H776 0.930 . S
C723 N721 1.279 . S
C723 C722 1.358 . S
C723 H727 0.930 . S
C724 C722 1.356 . S
C724 C725 1.348 . S
C725 C720 1.353 . S
C725 C724 1.348 . S
C725 H777 0.929 . S
H726 C720 0.930 . S
H727 C723 0.930 . S
C728 N729 1.314 . S
C728 C730 1.353 . S
C728 H734 0.930 . S
N729 Li705 1.990 . S
N729 C728 1.314 . S
N729 C732 1.279 . S
C730 C728 1.353 . S
C730 C733 1.348 . S
C730 H778 0.929 . S
C731 C732 1.358 . S
C731 C733 1.356 . S
C731 H779 0.930 . S
C732 N729 1.279 . S
C732 C731 1.358 . S
C732 H735 0.930 . S
C733 C730 1.348 . S
C733 C731 1.356 . S
H734 C728 0.930 . S
H735 C732 0.930 . S
C736 C738 1.348 . S
C736 C739 1.356 . S
C736 O766 1.325 . S
N737 C740 1.314 . S
N737 C741 1.279 . S
C738 C736 1.348 . S
C738 C740 1.353 . S
C738 H780 0.929 . S
C739 C736 1.356 . S
C739 C741 1.358 . S
C739 H781 0.930 . S
C740 N737 1.314 . S
C740 C738 1.353 . S
C740 H782 0.930 . S
C741 N737 1.279 . S
C741 C739 1.358 . S
C741 H783 0.930 . S
C742 C743 1.348 . S
C742 C744 1.356 . S
C742 O767 1.325 . S
C743 C742 1.348 . S
C743 C745 1.353 . S
C743 H784 0.929 . S
C744 C742 1.356 . S
C744 C746 1.358 . S
C744 H785 0.930 . S
C745 C743 1.353 . S
C745 N747 1.314 . S
C745 H786 0.930 . S
C746 C744 1.358 . S
C746 N747 1.279 . S
C746 H787 0.930 . S
N747 C745 1.314 . S
N747 C746 1.279 . S
C748 C750 1.353 . S
C748 N751 1.314 . S
C748 H754 0.930 . S
C749 N751 1.279 . S
C749 C752 1.358 . S
C749 H755 0.930 . S
C750 C748 1.353 . S
C750 C753 1.348 . S
C750 H788 0.929 . S
N751 Li706 1.990 . S
N751 C748 1.314 . S
N751 C749 1.279 . S
C752 C749 1.358 . S
C752 C753 1.356 . S
C752 H789 0.930 . S
C753 C750 1.348 . S
C753 C752 1.356 . S
H754 C748 0.930 . S
H755 C749 0.930 . S
C756 N757 1.314 . S
C756 C758 1.353 . S
C756 H762 0.930 . S
N757 Li707 1.990 . S
N757 C756 1.314 . S
N757 C760 1.279 . S
C758 C756 1.353 . S
C758 C761 1.348 . S
C758 H790 0.929 . S
C759 C760 1.358 . S
C759 C761 1.356 . S
C759 H791 0.930 . S
C760 N757 1.279 . S
C760 C759 1.358 . S
C760 H763 0.930 . S
C761 C758 1.348 . S
C761 C759 1.356 . S
H762 C756 0.930 . S
H763 C760 0.930 . S
O764 Li704 1.956 . S
O764 Li705 1.970 . S
O764 Li706 1.961 . S
O764 C708 1.325 . S
O765 Li704 1.970 . S
O765 Li705 1.956 . S
O765 Li707 1.961 . S
O765 C714 1.325 . S
O766 Li704 1.961 . S
O766 Li706 1.956 . S
O766 Li707 1.970 . S
O766 C736 1.325 . S
O767 Li705 1.961 . S
O767 Li706 1.970 . S
O767 Li707 1.956 . S
O767 C742 1.325 . S
H768 C710 0.929 . S
H769 C711 0.930 . S
H770 C712 0.930 . S
H771 C713 0.930 . S
H772 C715 0.930 . S
H773 C717 0.929 . S
H774 C718 0.930 . S
H775 C719 0.930 . S
H776 C722 0.930 . S
H777 C725 0.929 . S
H778 C730 0.929 . S
H779 C731 0.930 . S
H780 C738 0.929 . S
H781 C739 0.930 . S
H782 C740 0.930 . S
H783 C741 0.930 . S
H784 C743 0.929 . S
H785 C744 0.930 . S
H786 C745 0.930 . S
H787 C746 0.930 . S
H788 C750 0.929 . S
H789 C752 0.930 . S
H790 C758 0.929 . S
H791 C759 0.930 . S
Li792 N809 1.990 . S
Li792 O852 1.956 . S
Li792 O853 1.970 . S
Li792 O854 1.961 . S
Li793 N817 1.990 . S
Li793 O852 1.970 . S
Li793 O853 1.956 . S
Li793 O855 1.961 . S
Li794 N839 1.990 . S
Li794 O852 1.961 . S
Li794 O854 1.956 . S
Li794 O855 1.970 . S
Li795 N845 1.990 . S
Li795 O853 1.961 . S
Li795 O854 1.970 . S
Li795 O855 1.956 . S
C796 C798 1.348 . S
C796 C799 1.356 . S
C796 O852 1.325 . S
N797 C800 1.314 . S
N797 C801 1.279 . S
C798 C796 1.348 . S
C798 C800 1.353 . S
C798 H856 0.929 . S
C799 C796 1.356 . S
C799 C801 1.358 . S
C799 H857 0.930 . S
C800 N797 1.314 . S
C800 C798 1.353 . S
C800 H858 0.930 . S
C801 N797 1.279 . S
C801 C799 1.358 . S
C801 H859 0.930 . S
C802 C805 1.348 . S
C802 C806 1.356 . S
C802 O853 1.325 . S
C803 N804 1.279 . S
C803 C806 1.358 . S
C803 H860 0.930 . S
N804 C803 1.279 . S
N804 C807 1.314 . S
C805 C802 1.348 . S
C805 C807 1.353 . S
C805 H861 0.929 . S
C806 C802 1.356 . S
C806 C803 1.358 . S
C806 H862 0.930 . S
C807 N804 1.314 . S
C807 C805 1.353 . S
C807 H863 0.930 . S
C808 N809 1.314 . S
C808 C813 1.353 . S
C808 H814 0.930 . S
N809 Li792 1.990 . S
N809 C808 1.314 . S
N809 C811 1.279 . S
C810 C811 1.358 . S
C810 C812 1.356 . S
C810 H864 0.930 . S
C811 N809 1.279 . S
C811 C810 1.358 . S
C811 H815 0.930 . S
C812 C810 1.356 . S
C812 C813 1.348 . S
C813 C808 1.353 . S
C813 C812 1.348 . S
C813 H865 0.929 . S
H814 C808 0.930 . S
H815 C811 0.930 . S
C816 N817 1.314 . S
C816 C818 1.353 . S
C816 H822 0.930 . S
N817 Li793 1.990 . S
N817 C816 1.314 . S
N817 C820 1.279 . S
C818 C816 1.353 . S
C818 C821 1.348 . S
C818 H866 0.929 . S
C819 C820 1.358 . S
C819 C821 1.356 . S
C819 H867 0.930 . S
C820 N817 1.279 . S
C820 C819 1.358 . S
C820 H823 0.930 . S
C821 C818 1.348 . S
C821 C819 1.356 . S
H822 C816 0.930 . S
H823 C820 0.930 . S
C824 C826 1.348 . S
C824 C827 1.356 . S
C824 O854 1.325 . S
N825 C828 1.314 . S
N825 C829 1.279 . S
C826 C824 1.348 . S
C826 C828 1.353 . S
C826 H868 0.929 . S
C827 C824 1.356 . S
C827 C829 1.358 . S
C827 H869 0.930 . S
C828 N825 1.314 . S
C828 C826 1.353 . S
C828 H870 0.930 . S
C829 N825 1.279 . S
C829 C827 1.358 . S
C829 H871 0.930 . S
C830 C831 1.348 . S
C830 C832 1.356 . S
C830 O855 1.325 . S
C831 C830 1.348 . S
C831 C833 1.353 . S
C831 H872 0.929 . S
C832 C830 1.356 . S
C832 C834 1.358 . S
C832 H873 0.930 . S
C833 C831 1.353 . S
C833 N835 1.314 . S
C833 H874 0.930 . S
C834 C832 1.358 . S
C834 N835 1.279 . S
C834 H875 0.930 . S
N835 C833 1.314 . S
N835 C834 1.279 . S
C836 C838 1.353 . S
C836 N839 1.314 . S
C836 H842 0.930 . S
C837 N839 1.279 . S
C837 C840 1.358 . S
C837 H843 0.930 . S
C838 C836 1.353 . S
C838 C841 1.348 . S
C838 H876 0.929 . S
N839 Li794 1.990 . S
N839 C836 1.314 . S
N839 C837 1.279 . S
C840 C837 1.358 . S
C840 C841 1.356 . S
C840 H877 0.930 . S
C841 C838 1.348 . S
C841 C840 1.356 . S
H842 C836 0.930 . S
H843 C837 0.930 . S
C844 N845 1.314 . S
C844 C846 1.353 . S
C844 H850 0.930 . S
N845 Li795 1.990 . S
N845 C844 1.314 . S
N845 C848 1.279 . S
C846 C844 1.353 . S
C846 C849 1.348 . S
C846 H878 0.929 . S
C847 C848 1.358 . S
C847 C849 1.356 . S
C847 H879 0.930 . S
C848 N845 1.279 . S
C848 C847 1.358 . S
C848 H851 0.930 . S
C849 C846 1.348 . S
C849 C847 1.356 . S
H850 C844 0.930 . S
H851 C848 0.930 . S
O852 Li792 1.956 . S
O852 Li793 1.970 . S
O852 Li794 1.961 . S
O852 C796 1.325 . S
O853 Li792 1.970 . S
O853 Li793 1.956 . S
O853 Li795 1.961 . S
O853 C802 1.325 . S
O854 Li792 1.961 . S
O854 Li794 1.956 . S
O854 Li795 1.970 . S
O854 C824 1.325 . S
O855 Li793 1.961 . S
O855 Li794 1.970 . S
O855 Li795 1.956 . S
O855 C830 1.325 . S
H856 C798 0.929 . S
H857 C799 0.930 . S
H858 C800 0.930 . S
H859 C801 0.930 . S
H860 C803 0.930 . S
H861 C805 0.929 . S
H862 C806 0.930 . S
H863 C807 0.930 . S
H864 C810 0.930 . S
H865 C813 0.929 . S
H866 C818 0.929 . S
H867 C819 0.930 . S
H868 C826 0.929 . S
H869 C827 0.930 . S
H870 C828 0.930 . S
H871 C829 0.930 . S
H872 C831 0.929 . S
H873 C832 0.930 . S
H874 C833 0.930 . S
H875 C834 0.930 . S
H876 C838 0.929 . S
H877 C840 0.930 . S
H878 C846 0.929 . S
H879 C847 0.930 . S
Li880 N897 1.990 . S
Li880 O940 1.956 . S
Li880 O941 1.970 . S
Li880 O942 1.961 . S
Li881 N905 1.990 . S
Li881 O940 1.970 . S
Li881 O941 1.956 . S
Li881 O943 1.961 . S
Li882 N927 1.990 . S
Li882 O940 1.961 . S
Li882 O942 1.956 . S
Li882 O943 1.970 . S
Li883 N933 1.990 . S
Li883 O941 1.961 . S
Li883 O942 1.970 . S
Li883 O943 1.956 . S
C884 C886 1.348 . S
C884 C887 1.356 . S
C884 O940 1.325 . S
N885 C888 1.314 . S
N885 C889 1.279 . S
C886 C884 1.348 . S
C886 C888 1.353 . S
C886 H944 0.929 . S
C887 C884 1.356 . S
C887 C889 1.358 . S
C887 H945 0.930 . S
C888 N885 1.314 . S
C888 C886 1.353 . S
C888 H946 0.930 . S
C889 N885 1.279 . S
C889 C887 1.358 . S
C889 H947 0.930 . S
C890 C893 1.348 . S
C890 C894 1.356 . S
C890 O941 1.325 . S
C891 N892 1.279 . S
C891 C894 1.358 . S
C891 H948 0.930 . S
N892 C891 1.279 . S
N892 C895 1.314 . S
C893 C890 1.348 . S
C893 C895 1.353 . S
C893 H949 0.929 . S
C894 C890 1.356 . S
C894 C891 1.358 . S
C894 H950 0.930 . S
C895 N892 1.314 . S
C895 C893 1.353 . S
C895 H951 0.930 . S
C896 N897 1.314 . S
C896 C901 1.353 . S
C896 H902 0.930 . S
N897 Li880 1.990 . S
N897 C896 1.314 . S
N897 C899 1.279 . S
C898 C899 1.358 . S
C898 C900 1.356 . S
C898 H952 0.930 . S
C899 N897 1.279 . S
C899 C898 1.358 . S
C899 H903 0.930 . S
C900 C898 1.356 . S
C900 C901 1.348 . S
C901 C896 1.353 . S
C901 C900 1.348 . S
C901 H953 0.929 . S
H902 C896 0.930 . S
H903 C899 0.930 . S
C904 N905 1.314 . S
C904 C906 1.353 . S
C904 H910 0.930 . S
N905 Li881 1.990 . S
N905 C904 1.314 . S
N905 C908 1.279 . S
C906 C904 1.353 . S
C906 C909 1.348 . S
C906 H954 0.929 . S
C907 C908 1.358 . S
C907 C909 1.356 . S
C907 H955 0.930 . S
C908 N905 1.279 . S
C908 C907 1.358 . S
C908 H911 0.930 . S
C909 C906 1.348 . S
C909 C907 1.356 . S
H910 C904 0.930 . S
H911 C908 0.930 . S
C912 C914 1.348 . S
C912 C915 1.356 . S
C912 O942 1.325 . S
N913 C916 1.314 . S
N913 C917 1.279 . S
C914 C912 1.348 . S
C914 C916 1.353 . S
C914 H956 0.929 . S
C915 C912 1.356 . S
C915 C917 1.358 . S
C915 H957 0.930 . S
C916 N913 1.314 . S
C916 C914 1.353 . S
C916 H958 0.930 . S
C917 N913 1.279 . S
C917 C915 1.358 . S
C917 H959 0.930 . S
C918 C919 1.348 . S
C918 C920 1.356 . S
C918 O943 1.325 . S
C919 C918 1.348 . S
C919 C921 1.353 . S
C919 H960 0.929 . S
C920 C918 1.356 . S
C920 C922 1.358 . S
C920 H961 0.930 . S
C921 C919 1.353 . S
C921 N923 1.314 . S
C921 H962 0.930 . S
C922 C920 1.358 . S
C922 N923 1.279 . S
C922 H963 0.930 . S
N923 C921 1.314 . S
N923 C922 1.279 . S
C924 C926 1.353 . S
C924 N927 1.314 . S
C924 H930 0.930 . S
C925 N927 1.279 . S
C925 C928 1.358 . S
C925 H931 0.930 . S
C926 C924 1.353 . S
C926 C929 1.348 . S
C926 H964 0.929 . S
N927 Li882 1.990 . S
N927 C924 1.314 . S
N927 C925 1.279 . S
C928 C925 1.358 . S
C928 C929 1.356 . S
C928 H965 0.930 . S
C929 C926 1.348 . S
C929 C928 1.356 . S
H930 C924 0.930 . S
H931 C925 0.930 . S
C932 N933 1.314 . S
C932 C934 1.353 . S
C932 H938 0.930 . S
N933 Li883 1.990 . S
N933 C932 1.314 . S
N933 C936 1.279 . S
C934 C932 1.353 . S
C934 C937 1.348 . S
C934 H966 0.929 . S
C935 C936 1.358 . S
C935 C937 1.356 . S
C935 H967 0.930 . S
C936 N933 1.279 . S
C936 C935 1.358 . S
C936 H939 0.930 . S
C937 C934 1.348 . S
C937 C935 1.356 . S
H938 C932 0.930 . S
H939 C936 0.930 . S
O940 Li880 1.956 . S
O940 Li881 1.970 . S
O940 Li882 1.961 . S
O940 C884 1.325 . S
O941 Li880 1.970 . S
O941 Li881 1.956 . S
O941 Li883 1.961 . S
O941 C890 1.325 . S
O942 Li880 1.961 . S
O942 Li882 1.956 . S
O942 Li883 1.970 . S
O942 C912 1.325 . S
O943 Li881 1.961 . S
O943 Li882 1.970 . S
O943 Li883 1.956 . S
O943 C918 1.325 . S
H944 C886 0.929 . S
H945 C887 0.930 . S
H946 C888 0.930 . S
H947 C889 0.930 . S
H948 C891 0.930 . S
H949 C893 0.929 . S
H950 C894 0.930 . S
H951 C895 0.930 . S
H952 C898 0.930 . S
H953 C901 0.929 . S
H954 C906 0.929 . S
H955 C907 0.930 . S
H956 C914 0.929 . S
H957 C915 0.930 . S
H958 C916 0.930 . S
H959 C917 0.930 . S
H960 C919 0.929 . S
H961 C920 0.930 . S
H962 C921 0.930 . S
H963 C922 0.930 . S
H964 C926 0.929 . S
H965 C928 0.930 . S
H966 C934 0.929 . S
H967 C935 0.930 . S
Li968 N985 1.990 . S
Li968 O1028 1.956 . S
Li968 O1029 1.970 . S
Li968 O1030 1.961 . S
Li969 N993 1.990 . S
Li969 O1028 1.970 . S
Li969 O1029 1.956 . S
Li969 O1031 1.961 . S
Li970 N1015 1.990 . S
Li970 O1028 1.961 . S
Li970 O1030 1.956 . S
Li970 O1031 1.970 . S
Li971 N1021 1.990 . S
Li971 O1029 1.961 . S
Li971 O1030 1.970 . S
Li971 O1031 1.956 . S
C972 C974 1.348 . S
C972 C975 1.356 . S
C972 O1028 1.325 . S
N973 C976 1.314 . S
N973 C977 1.279 . S
C974 C972 1.348 . S
C974 C976 1.353 . S
C974 H1032 0.929 . S
C975 C972 1.356 . S
C975 C977 1.358 . S
C975 H1033 0.930 . S
C976 N973 1.314 . S
C976 C974 1.353 . S
C976 H1034 0.930 . S
C977 N973 1.279 . S
C977 C975 1.358 . S
C977 H1035 0.930 . S
C978 C981 1.348 . S
C978 C982 1.356 . S
C978 O1029 1.325 . S
C979 N980 1.279 . S
C979 C982 1.358 . S
C979 H1036 0.930 . S
N980 C979 1.279 . S
N980 C983 1.314 . S
C981 C978 1.348 . S
C981 C983 1.353 . S
C981 H1037 0.929 . S
C982 C978 1.356 . S
C982 C979 1.358 . S
C982 H1038 0.930 . S
C983 N980 1.314 . S
C983 C981 1.353 . S
C983 H1039 0.930 . S
C984 N985 1.314 . S
C984 C989 1.353 . S
C984 H990 0.930 . S
N985 Li968 1.990 . S
N985 C984 1.314 . S
N985 C987 1.279 . S
C986 C987 1.358 . S
C986 C988 1.356 . S
C986 H1040 0.930 . S
C987 N985 1.279 . S
C987 C986 1.358 . S
C987 H991 0.930 . S
C988 C986 1.356 . S
C988 C989 1.348 . S
C989 C984 1.353 . S
C989 C988 1.348 . S
C989 H1041 0.929 . S
H990 C984 0.930 . S
H991 C987 0.930 . S
C992 N993 1.314 . S
C992 C994 1.353 . S
C992 H998 0.930 . S
N993 Li969 1.990 . S
N993 C992 1.314 . S
N993 C996 1.279 . S
C994 C992 1.353 . S
C994 C997 1.348 . S
C994 H1042 0.929 . S
C995 C996 1.358 . S
C995 C997 1.356 . S
C995 H1043 0.930 . S
C996 N993 1.279 . S
C996 C995 1.358 . S
C996 H999 0.930 . S
C997 C994 1.348 . S
C997 C995 1.356 . S
H998 C992 0.930 . S
H999 C996 0.930 . S
C1000 C1002 1.348 . S
C1000 C1003 1.356 . S
C1000 O1030 1.325 . S
N1001 C1004 1.314 . S
N1001 C1005 1.279 . S
C1002 C1000 1.348 . S
C1002 C1004 1.353 . S
C1002 H1044 0.929 . S
C1003 C1000 1.356 . S
C1003 C1005 1.358 . S
C1003 H1045 0.930 . S
C1004 N1001 1.314 . S
C1004 C1002 1.353 . S
C1004 H1046 0.930 . S
C1005 N1001 1.279 . S
C1005 C1003 1.358 . S
C1005 H1047 0.930 . S
C1006 C1007 1.348 . S
C1006 C1008 1.356 . S
C1006 O1031 1.325 . S
C1007 C1006 1.348 . S
C1007 C1009 1.353 . S
C1007 H1048 0.929 . S
C1008 C1006 1.356 . S
C1008 C1010 1.358 . S
C1008 H1049 0.930 . S
C1009 C1007 1.353 . S
C1009 N1011 1.314 . S
C1009 H1050 0.930 . S
C1010 C1008 1.358 . S
C1010 N1011 1.279 . S
C1010 H1051 0.930 . S
N1011 C1009 1.314 . S
N1011 C1010 1.279 . S
C1012 C1014 1.353 . S
C1012 N1015 1.314 . S
C1012 H1018 0.930 . S
C1013 N1015 1.279 . S
C1013 C1016 1.358 . S
C1013 H1019 0.930 . S
C1014 C1012 1.353 . S
C1014 C1017 1.348 . S
C1014 H1052 0.929 . S
N1015 Li970 1.990 . S
N1015 C1012 1.314 . S
N1015 C1013 1.279 . S
C1016 C1013 1.358 . S
C1016 C1017 1.356 . S
C1016 H1053 0.930 . S
C1017 C1014 1.348 . S
C1017 C1016 1.356 . S
H1018 C1012 0.930 . S
H1019 C1013 0.930 . S
C1020 N1021 1.314 . S
C1020 C1022 1.353 . S
C1020 H1026 0.930 . S
N1021 Li971 1.990 . S
N1021 C1020 1.314 . S
N1021 C1024 1.279 . S
C1022 C1020 1.353 . S
C1022 C1025 1.348 . S
C1022 H1054 0.929 . S
C1023 C1024 1.358 . S
C1023 C1025 1.356 . S
C1023 H1055 0.930 . S
C1024 N1021 1.279 . S
C1024 C1023 1.358 . S
C1024 H1027 0.930 . S
C1025 C1022 1.348 . S
C1025 C1023 1.356 . S
H1026 C1020 0.930 . S
H1027 C1024 0.930 . S
O1028 Li968 1.956 . S
O1028 Li969 1.970 . S
O1028 Li970 1.961 . S
O1028 C972 1.325 . S
O1029 Li968 1.970 . S
O1029 Li969 1.956 . S
O1029 Li971 1.961 . S
O1029 C978 1.325 . S
O1030 Li968 1.961 . S
O1030 Li970 1.956 . S
O1030 Li971 1.970 . S
O1030 C1000 1.325 . S
O1031 Li969 1.961 . S
O1031 Li970 1.970 . S
O1031 Li971 1.956 . S
O1031 C1006 1.325 . S
H1032 C974 0.929 . S
H1033 C975 0.930 . S
H1034 C976 0.930 . S
H1035 C977 0.930 . S
H1036 C979 0.930 . S
H1037 C981 0.929 . S
H1038 C982 0.930 . S
H1039 C983 0.930 . S
H1040 C986 0.930 . S
H1041 C989 0.929 . S
H1042 C994 0.929 . S
H1043 C995 0.930 . S
H1044 C1002 0.929 . S
H1045 C1003 0.930 . S
H1046 C1004 0.930 . S
H1047 C1005 0.930 . S
H1048 C1007 0.929 . S
H1049 C1008 0.930 . S
H1050 C1009 0.930 . S
H1051 C1010 0.930 . S
H1052 C1014 0.929 . S
H1053 C1016 0.930 . S
H1054 C1022 0.929 . S
H1055 C1023 0.930 . S
Li1056 N1073 1.990 . S
Li1056 O1116 1.956 . S
Li1056 O1117 1.970 . S
Li1056 O1118 1.961 . S
Li1057 N1081 1.990 . S
Li1057 O1116 1.970 . S
Li1057 O1117 1.956 . S
Li1057 O1119 1.961 . S
Li1058 N1103 1.990 . S
Li1058 O1116 1.961 . S
Li1058 O1118 1.956 . S
Li1058 O1119 1.970 . S
Li1059 N1109 1.990 . S
Li1059 O1117 1.961 . S
Li1059 O1118 1.970 . S
Li1059 O1119 1.956 . S
C1060 C1062 1.348 . S
C1060 C1063 1.356 . S
C1060 O1116 1.325 . S
N1061 C1064 1.314 . S
N1061 C1065 1.279 . S
C1062 C1060 1.348 . S
C1062 C1064 1.353 . S
C1062 H1120 0.929 . S
C1063 C1060 1.356 . S
C1063 C1065 1.358 . S
C1063 H1121 0.930 . S
C1064 N1061 1.314 . S
C1064 C1062 1.353 . S
C1064 H1122 0.930 . S
C1065 N1061 1.279 . S
C1065 C1063 1.358 . S
C1065 H1123 0.930 . S
C1066 C1069 1.348 . S
C1066 C1070 1.356 . S
C1066 O1117 1.325 . S
C1067 N1068 1.279 . S
C1067 C1070 1.358 . S
C1067 H1124 0.930 . S
N1068 C1067 1.279 . S
N1068 C1071 1.314 . S
C1069 C1066 1.348 . S
C1069 C1071 1.353 . S
C1069 H1125 0.929 . S
C1070 C1066 1.356 . S
C1070 C1067 1.358 . S
C1070 H1126 0.930 . S
C1071 N1068 1.314 . S
C1071 C1069 1.353 . S
C1071 H1127 0.930 . S
C1072 N1073 1.314 . S
C1072 C1077 1.353 . S
C1072 H1078 0.930 . S
N1073 Li1056 1.990 . S
N1073 C1072 1.314 . S
N1073 C1075 1.279 . S
C1074 C1075 1.358 . S
C1074 C1076 1.356 . S
C1074 H1128 0.930 . S
C1075 N1073 1.279 . S
C1075 C1074 1.358 . S
C1075 H1079 0.930 . S
C1076 C1074 1.356 . S
C1076 C1077 1.348 . S
C1077 C1072 1.353 . S
C1077 C1076 1.348 . S
C1077 H1129 0.929 . S
H1078 C1072 0.930 . S
H1079 C1075 0.930 . S
C1080 N1081 1.314 . S
C1080 C1082 1.353 . S
C1080 H1086 0.930 . S
N1081 Li1057 1.990 . S
N1081 C1080 1.314 . S
N1081 C1084 1.279 . S
C1082 C1080 1.353 . S
C1082 C1085 1.348 . S
C1082 H1130 0.929 . S
C1083 C1084 1.358 . S
C1083 C1085 1.356 . S
C1083 H1131 0.930 . S
C1084 N1081 1.279 . S
C1084 C1083 1.358 . S
C1084 H1087 0.930 . S
C1085 C1082 1.348 . S
C1085 C1083 1.356 . S
H1086 C1080 0.930 . S
H1087 C1084 0.930 . S
C1088 C1090 1.348 . S
C1088 C1091 1.356 . S
C1088 O1118 1.325 . S
N1089 C1092 1.314 . S
N1089 C1093 1.279 . S
C1090 C1088 1.348 . S
C1090 C1092 1.353 . S
C1090 H1132 0.929 . S
C1091 C1088 1.356 . S
C1091 C1093 1.358 . S
C1091 H1133 0.930 . S
C1092 N1089 1.314 . S
C1092 C1090 1.353 . S
C1092 H1134 0.930 . S
C1093 N1089 1.279 . S
C1093 C1091 1.358 . S
C1093 H1135 0.930 . S
C1094 C1095 1.348 . S
C1094 C1096 1.356 . S
C1094 O1119 1.325 . S
C1095 C1094 1.348 . S
C1095 C1097 1.353 . S
C1095 H1136 0.929 . S
C1096 C1094 1.356 . S
C1096 C1098 1.358 . S
C1096 H1137 0.930 . S
C1097 C1095 1.353 . S
C1097 N1099 1.314 . S
C1097 H1138 0.930 . S
C1098 C1096 1.358 . S
C1098 N1099 1.279 . S
C1098 H1139 0.930 . S
N1099 C1097 1.314 . S
N1099 C1098 1.279 . S
C1100 C1102 1.353 . S
C1100 N1103 1.314 . S
C1100 H1106 0.930 . S
C1101 N1103 1.279 . S
C1101 C1104 1.358 . S
C1101 H1107 0.930 . S
C1102 C1100 1.353 . S
C1102 C1105 1.348 . S
C1102 H1140 0.929 . S
N1103 Li1058 1.990 . S
N1103 C1100 1.314 . S
N1103 C1101 1.279 . S
C1104 C1101 1.358 . S
C1104 C1105 1.356 . S
C1104 H1141 0.930 . S
C1105 C1102 1.348 . S
C1105 C1104 1.356 . S
H1106 C1100 0.930 . S
H1107 C1101 0.930 . S
C1108 N1109 1.314 . S
C1108 C1110 1.353 . S
C1108 H1114 0.930 . S
N1109 Li1059 1.990 . S
N1109 C1108 1.314 . S
N1109 C1112 1.279 . S
C1110 C1108 1.353 . S
C1110 C1113 1.348 . S
C1110 H1142 0.929 . S
C1111 C1112 1.358 . S
C1111 C1113 1.356 . S
C1111 H1143 0.930 . S
C1112 N1109 1.279 . S
C1112 C1111 1.358 . S
C1112 H1115 0.930 . S
C1113 C1110 1.348 . S
C1113 C1111 1.356 . S
H1114 C1108 0.930 . S
H1115 C1112 0.930 . S
O1116 Li1056 1.956 . S
O1116 Li1057 1.970 . S
O1116 Li1058 1.961 . S
O1116 C1060 1.325 . S
O1117 Li1056 1.970 . S
O1117 Li1057 1.956 . S
O1117 Li1059 1.961 . S
O1117 C1066 1.325 . S
O1118 Li1056 1.961 . S
O1118 Li1058 1.956 . S
O1118 Li1059 1.970 . S
O1118 C1088 1.325 . S
O1119 Li1057 1.961 . S
O1119 Li1058 1.970 . S
O1119 Li1059 1.956 . S
O1119 C1094 1.325 . S
H1120 C1062 0.929 . S
H1121 C1063 0.930 . S
H1122 C1064 0.930 . S
H1123 C1065 0.930 . S
H1124 C1067 0.930 . S
H1125 C1069 0.929 . S
H1126 C1070 0.930 . S
H1127 C1071 0.930 . S
H1128 C1074 0.930 . S
H1129 C1077 0.929 . S
H1130 C1082 0.929 . S
H1131 C1083 0.930 . S
H1132 C1090 0.929 . S
H1133 C1091 0.930 . S
H1134 C1092 0.930 . S
H1135 C1093 0.930 . S
H1136 C1095 0.929 . S
H1137 C1096 0.930 . S
H1138 C1097 0.930 . S
H1139 C1098 0.930 . S
H1140 C1102 0.929 . S
H1141 C1104 0.930 . S
H1142 C1110 0.929 . S
H1143 C1111 0.930 . S
Li1144 N1161 1.990 . S
Li1144 O1204 1.956 . S
Li1144 O1205 1.970 . S
Li1144 O1206 1.961 . S
Li1145 N1169 1.990 . S
Li1145 O1204 1.970 . S
Li1145 O1205 1.956 . S
Li1145 O1207 1.961 . S
Li1146 N1191 1.990 . S
Li1146 O1204 1.961 . S
Li1146 O1206 1.956 . S
Li1146 O1207 1.970 . S
Li1147 N1197 1.990 . S
Li1147 O1205 1.961 . S
Li1147 O1206 1.970 . S
Li1147 O1207 1.956 . S
C1148 C1150 1.348 . S
C1148 C1151 1.356 . S
C1148 O1204 1.325 . S
N1149 C1152 1.314 . S
N1149 C1153 1.279 . S
C1150 C1148 1.348 . S
C1150 C1152 1.353 . S
C1150 H1208 0.929 . S
C1151 C1148 1.356 . S
C1151 C1153 1.358 . S
C1151 H1209 0.930 . S
C1152 N1149 1.314 . S
C1152 C1150 1.353 . S
C1152 H1210 0.930 . S
C1153 N1149 1.279 . S
C1153 C1151 1.358 . S
C1153 H1211 0.930 . S
C1154 C1157 1.348 . S
C1154 C1158 1.356 . S
C1154 O1205 1.325 . S
C1155 N1156 1.279 . S
C1155 C1158 1.358 . S
C1155 H1212 0.930 . S
N1156 C1155 1.279 . S
N1156 C1159 1.314 . S
C1157 C1154 1.348 . S
C1157 C1159 1.353 . S
C1157 H1213 0.929 . S
C1158 C1154 1.356 . S
C1158 C1155 1.358 . S
C1158 H1214 0.930 . S
C1159 N1156 1.314 . S
C1159 C1157 1.353 . S
C1159 H1215 0.930 . S
C1160 N1161 1.314 . S
C1160 C1165 1.353 . S
C1160 H1166 0.930 . S
N1161 Li1144 1.990 . S
N1161 C1160 1.314 . S
N1161 C1163 1.279 . S
C1162 C1163 1.358 . S
C1162 C1164 1.356 . S
C1162 H1216 0.930 . S
C1163 N1161 1.279 . S
C1163 C1162 1.358 . S
C1163 H1167 0.930 . S
C1164 C1162 1.356 . S
C1164 C1165 1.348 . S
C1165 C1160 1.353 . S
C1165 C1164 1.348 . S
C1165 H1217 0.929 . S
H1166 C1160 0.930 . S
H1167 C1163 0.930 . S
C1168 N1169 1.314 . S
C1168 C1170 1.353 . S
C1168 H1174 0.930 . S
N1169 Li1145 1.990 . S
N1169 C1168 1.314 . S
N1169 C1172 1.279 . S
C1170 C1168 1.353 . S
C1170 C1173 1.348 . S
C1170 H1218 0.929 . S
C1171 C1172 1.358 . S
C1171 C1173 1.356 . S
C1171 H1219 0.930 . S
C1172 N1169 1.279 . S
C1172 C1171 1.358 . S
C1172 H1175 0.930 . S
C1173 C1170 1.348 . S
C1173 C1171 1.356 . S
H1174 C1168 0.930 . S
H1175 C1172 0.930 . S
C1176 C1178 1.348 . S
C1176 C1179 1.356 . S
C1176 O1206 1.325 . S
N1177 C1180 1.314 . S
N1177 C1181 1.279 . S
C1178 C1176 1.348 . S
C1178 C1180 1.353 . S
C1178 H1220 0.929 . S
C1179 C1176 1.356 . S
C1179 C1181 1.358 . S
C1179 H1221 0.930 . S
C1180 N1177 1.314 . S
C1180 C1178 1.353 . S
C1180 H1222 0.930 . S
C1181 N1177 1.279 . S
C1181 C1179 1.358 . S
C1181 H1223 0.930 . S
C1182 C1183 1.348 . S
C1182 C1184 1.356 . S
C1182 O1207 1.325 . S
C1183 C1182 1.348 . S
C1183 C1185 1.353 . S
C1183 H1224 0.929 . S
C1184 C1182 1.356 . S
C1184 C1186 1.358 . S
C1184 H1225 0.930 . S
C1185 C1183 1.353 . S
C1185 N1187 1.314 . S
C1185 H1226 0.930 . S
C1186 C1184 1.358 . S
C1186 N1187 1.279 . S
C1186 H1227 0.930 . S
N1187 C1185 1.314 . S
N1187 C1186 1.279 . S
C1188 C1190 1.353 . S
C1188 N1191 1.314 . S
C1188 H1194 0.930 . S
C1189 N1191 1.279 . S
C1189 C1192 1.358 . S
C1189 H1195 0.930 . S
C1190 C1188 1.353 . S
C1190 C1193 1.348 . S
C1190 H1228 0.929 . S
N1191 Li1146 1.990 . S
N1191 C1188 1.314 . S
N1191 C1189 1.279 . S
C1192 C1189 1.358 . S
C1192 C1193 1.356 . S
C1192 H1229 0.930 . S
C1193 C1190 1.348 . S
C1193 C1192 1.356 . S
H1194 C1188 0.930 . S
H1195 C1189 0.930 . S
C1196 N1197 1.314 . S
C1196 C1198 1.353 . S
C1196 H1202 0.930 . S
N1197 Li1147 1.990 . S
N1197 C1196 1.314 . S
N1197 C1200 1.279 . S
C1198 C1196 1.353 . S
C1198 C1201 1.348 . S
C1198 H1230 0.929 . S
C1199 C1200 1.358 . S
C1199 C1201 1.356 . S
C1199 H1231 0.930 . S
C1200 N1197 1.279 . S
C1200 C1199 1.358 . S
C1200 H1203 0.930 . S
C1201 C1198 1.348 . S
C1201 C1199 1.356 . S
H1202 C1196 0.930 . S
H1203 C1200 0.930 . S
O1204 Li1144 1.956 . S
O1204 Li1145 1.970 . S
O1204 Li1146 1.961 . S
O1204 C1148 1.325 . S
O1205 Li1144 1.970 . S
O1205 Li1145 1.956 . S
O1205 Li1147 1.961 . S
O1205 C1154 1.325 . S
O1206 Li1144 1.961 . S
O1206 Li1146 1.956 . S
O1206 Li1147 1.970 . S
O1206 C1176 1.325 . S
O1207 Li1145 1.961 . S
O1207 Li1146 1.970 . S
O1207 Li1147 1.956 . S
O1207 C1182 1.325 . S
H1208 C1150 0.929 . S
H1209 C1151 0.930 . S
H1210 C1152 0.930 . S
H1211 C1153 0.930 . S
H1212 C1155 0.930 . S
H1213 C1157 0.929 . S
H1214 C1158 0.930 . S
H1215 C1159 0.930 . S
H1216 C1162 0.930 . S
H1217 C1165 0.929 . S
H1218 C1170 0.929 . S
H1219 C1171 0.930 . S
H1220 C1178 0.929 . S
H1221 C1179 0.930 . S
H1222 C1180 0.930 . S
H1223 C1181 0.930 . S
H1224 C1183 0.929 . S
H1225 C1184 0.930 . S
H1226 C1185 0.930 . S
H1227 C1186 0.930 . S
H1228 C1190 0.929 . S
H1229 C1192 0.930 . S
H1230 C1198 0.929 . S
H1231 C1199 0.930 . S
Li1232 N1249 1.990 . S
Li1232 O1292 1.956 . S
Li1232 O1293 1.970 . S
Li1232 O1294 1.961 . S
Li1233 N1257 1.990 . S
Li1233 O1292 1.970 . S
Li1233 O1293 1.956 . S
Li1233 O1295 1.961 . S
Li1234 N1279 1.990 . S
Li1234 O1292 1.961 . S
Li1234 O1294 1.956 . S
Li1234 O1295 1.970 . S
Li1235 N1285 1.990 . S
Li1235 O1293 1.961 . S
Li1235 O1294 1.970 . S
Li1235 O1295 1.956 . S
C1236 C1238 1.348 . S
C1236 C1239 1.356 . S
C1236 O1292 1.325 . S
N1237 C1240 1.314 . S
N1237 C1241 1.279 . S
C1238 C1236 1.348 . S
C1238 C1240 1.353 . S
C1238 H1296 0.929 . S
C1239 C1236 1.356 . S
C1239 C1241 1.358 . S
C1239 H1297 0.930 . S
C1240 N1237 1.314 . S
C1240 C1238 1.353 . S
C1240 H1298 0.930 . S
C1241 N1237 1.279 . S
C1241 C1239 1.358 . S
C1241 H1299 0.930 . S
C1242 C1245 1.348 . S
C1242 C1246 1.356 . S
C1242 O1293 1.325 . S
C1243 N1244 1.279 . S
C1243 C1246 1.358 . S
C1243 H1300 0.930 . S
N1244 C1243 1.279 . S
N1244 C1247 1.314 . S
C1245 C1242 1.348 . S
C1245 C1247 1.353 . S
C1245 H1301 0.929 . S
C1246 C1242 1.356 . S
C1246 C1243 1.358 . S
C1246 H1302 0.930 . S
C1247 N1244 1.314 . S
C1247 C1245 1.353 . S
C1247 H1303 0.930 . S
C1248 N1249 1.314 . S
C1248 C1253 1.353 . S
C1248 H1254 0.930 . S
N1249 Li1232 1.990 . S
N1249 C1248 1.314 . S
N1249 C1251 1.279 . S
C1250 C1251 1.358 . S
C1250 C1252 1.356 . S
C1250 H1304 0.930 . S
C1251 N1249 1.279 . S
C1251 C1250 1.358 . S
C1251 H1255 0.930 . S
C1252 C1250 1.356 . S
C1252 C1253 1.348 . S
C1253 C1248 1.353 . S
C1253 C1252 1.348 . S
C1253 H1305 0.929 . S
H1254 C1248 0.930 . S
H1255 C1251 0.930 . S
C1256 N1257 1.314 . S
C1256 C1258 1.353 . S
C1256 H1262 0.930 . S
N1257 Li1233 1.990 . S
N1257 C1256 1.314 . S
N1257 C1260 1.279 . S
C1258 C1256 1.353 . S
C1258 C1261 1.348 . S
C1258 H1306 0.929 . S
C1259 C1260 1.358 . S
C1259 C1261 1.356 . S
C1259 H1307 0.930 . S
C1260 N1257 1.279 . S
C1260 C1259 1.358 . S
C1260 H1263 0.930 . S
C1261 C1258 1.348 . S
C1261 C1259 1.356 . S
H1262 C1256 0.930 . S
H1263 C1260 0.930 . S
C1264 C1266 1.348 . S
C1264 C1267 1.356 . S
C1264 O1294 1.325 . S
N1265 C1268 1.314 . S
N1265 C1269 1.279 . S
C1266 C1264 1.348 . S
C1266 C1268 1.353 . S
C1266 H1308 0.929 . S
C1267 C1264 1.356 . S
C1267 C1269 1.358 . S
C1267 H1309 0.930 . S
C1268 N1265 1.314 . S
C1268 C1266 1.353 . S
C1268 H1310 0.930 . S
C1269 N1265 1.279 . S
C1269 C1267 1.358 . S
C1269 H1311 0.930 . S
C1270 C1271 1.348 . S
C1270 C1272 1.356 . S
C1270 O1295 1.325 . S
C1271 C1270 1.348 . S
C1271 C1273 1.353 . S
C1271 H1312 0.929 . S
C1272 C1270 1.356 . S
C1272 C1274 1.358 . S
C1272 H1313 0.930 . S
C1273 C1271 1.353 . S
C1273 N1275 1.314 . S
C1273 H1314 0.930 . S
C1274 C1272 1.358 . S
C1274 N1275 1.279 . S
C1274 H1315 0.930 . S
N1275 C1273 1.314 . S
N1275 C1274 1.279 . S
C1276 C1278 1.353 . S
C1276 N1279 1.314 . S
C1276 H1282 0.930 . S
C1277 N1279 1.279 . S
C1277 C1280 1.358 . S
C1277 H1283 0.930 . S
C1278 C1276 1.353 . S
C1278 C1281 1.348 . S
C1278 H1316 0.929 . S
N1279 Li1234 1.990 . S
N1279 C1276 1.314 . S
N1279 C1277 1.279 . S
C1280 C1277 1.358 . S
C1280 C1281 1.356 . S
C1280 H1317 0.930 . S
C1281 C1278 1.348 . S
C1281 C1280 1.356 . S
H1282 C1276 0.930 . S
H1283 C1277 0.930 . S
C1284 N1285 1.314 . S
C1284 C1286 1.353 . S
C1284 H1290 0.930 . S
N1285 Li1235 1.990 . S
N1285 C1284 1.314 . S
N1285 C1288 1.279 . S
C1286 C1284 1.353 . S
C1286 C1289 1.348 . S
C1286 H1318 0.929 . S
C1287 C1288 1.358 . S
C1287 C1289 1.356 . S
C1287 H1319 0.930 . S
C1288 N1285 1.279 . S
C1288 C1287 1.358 . S
C1288 H1291 0.930 . S
C1289 C1286 1.348 . S
C1289 C1287 1.356 . S
H1290 C1284 0.930 . S
H1291 C1288 0.930 . S
O1292 Li1232 1.956 . S
O1292 Li1233 1.970 . S
O1292 Li1234 1.961 . S
O1292 C1236 1.325 . S
O1293 Li1232 1.970 . S
O1293 Li1233 1.956 . S
O1293 Li1235 1.961 . S
O1293 C1242 1.325 . S
O1294 Li1232 1.961 . S
O1294 Li1234 1.956 . S
O1294 Li1235 1.970 . S
O1294 C1264 1.325 . S
O1295 Li1233 1.961 . S
O1295 Li1234 1.970 . S
O1295 Li1235 1.956 . S
O1295 C1270 1.325 . S
H1296 C1238 0.929 . S
H1297 C1239 0.930 . S
H1298 C1240 0.930 . S
H1299 C1241 0.930 . S
H1300 C1243 0.930 . S
H1301 C1245 0.929 . S
H1302 C1246 0.930 . S
H1303 C1247 0.930 . S
H1304 C1250 0.930 . S
H1305 C1253 0.929 . S
H1306 C1258 0.929 . S
H1307 C1259 0.930 . S
H1308 C1266 0.929 . S
H1309 C1267 0.930 . S
H1310 C1268 0.930 . S
H1311 C1269 0.930 . S
H1312 C1271 0.929 . S
H1313 C1272 0.930 . S
H1314 C1273 0.930 . S
H1315 C1274 0.930 . S
H1316 C1278 0.929 . S
H1317 C1280 0.930 . S
H1318 C1286 0.929 . S
H1319 C1287 0.930 . S
Li1320 N1337 1.990 . S
Li1320 O1380 1.956 . S
Li1320 O1381 1.970 . S
Li1320 O1382 1.961 . S
Li1321 N1345 1.990 . S
Li1321 O1380 1.970 . S
Li1321 O1381 1.956 . S
Li1321 O1383 1.961 . S
Li1322 N1367 1.990 . S
Li1322 O1380 1.961 . S
Li1322 O1382 1.956 . S
Li1322 O1383 1.970 . S
Li1323 N1373 1.990 . S
Li1323 O1381 1.961 . S
Li1323 O1382 1.970 . S
Li1323 O1383 1.956 . S
C1324 C1326 1.348 . S
C1324 C1327 1.356 . S
C1324 O1380 1.325 . S
N1325 C1328 1.314 . S
N1325 C1329 1.279 . S
C1326 C1324 1.348 . S
C1326 C1328 1.353 . S
C1326 H1384 0.929 . S
C1327 C1324 1.356 . S
C1327 C1329 1.358 . S
C1327 H1385 0.930 . S
C1328 N1325 1.314 . S
C1328 C1326 1.353 . S
C1328 H1386 0.930 . S
C1329 N1325 1.279 . S
C1329 C1327 1.358 . S
C1329 H1387 0.930 . S
C1330 C1333 1.348 . S
C1330 C1334 1.356 . S
C1330 O1381 1.325 . S
C1331 N1332 1.279 . S
C1331 C1334 1.358 . S
C1331 H1388 0.930 . S
N1332 C1331 1.279 . S
N1332 C1335 1.314 . S
C1333 C1330 1.348 . S
C1333 C1335 1.353 . S
C1333 H1389 0.929 . S
C1334 C1330 1.356 . S
C1334 C1331 1.358 . S
C1334 H1390 0.930 . S
C1335 N1332 1.314 . S
C1335 C1333 1.353 . S
C1335 H1391 0.930 . S
C1336 N1337 1.314 . S
C1336 C1341 1.353 . S
C1336 H1342 0.930 . S
N1337 Li1320 1.990 . S
N1337 C1336 1.314 . S
N1337 C1339 1.279 . S
C1338 C1339 1.358 . S
C1338 C1340 1.356 . S
C1338 H1392 0.930 . S
C1339 N1337 1.279 . S
C1339 C1338 1.358 . S
C1339 H1343 0.930 . S
C1340 C1338 1.356 . S
C1340 C1341 1.348 . S
C1341 C1336 1.353 . S
C1341 C1340 1.348 . S
C1341 H1393 0.929 . S
H1342 C1336 0.930 . S
H1343 C1339 0.930 . S
C1344 N1345 1.314 . S
C1344 C1346 1.353 . S
C1344 H1350 0.930 . S
N1345 Li1321 1.990 . S
N1345 C1344 1.314 . S
N1345 C1348 1.279 . S
C1346 C1344 1.353 . S
C1346 C1349 1.348 . S
C1346 H1394 0.929 . S
C1347 C1348 1.358 . S
C1347 C1349 1.356 . S
C1347 H1395 0.930 . S
C1348 N1345 1.279 . S
C1348 C1347 1.358 . S
C1348 H1351 0.930 . S
C1349 C1346 1.348 . S
C1349 C1347 1.356 . S
H1350 C1344 0.930 . S
H1351 C1348 0.930 . S
C1352 C1354 1.348 . S
C1352 C1355 1.356 . S
C1352 O1382 1.325 . S
N1353 C1356 1.314 . S
N1353 C1357 1.279 . S
C1354 C1352 1.348 . S
C1354 C1356 1.353 . S
C1354 H1396 0.929 . S
C1355 C1352 1.356 . S
C1355 C1357 1.358 . S
C1355 H1397 0.930 . S
C1356 N1353 1.314 . S
C1356 C1354 1.353 . S
C1356 H1398 0.930 . S
C1357 N1353 1.279 . S
C1357 C1355 1.358 . S
C1357 H1399 0.930 . S
C1358 C1359 1.348 . S
C1358 C1360 1.356 . S
C1358 O1383 1.325 . S
C1359 C1358 1.348 . S
C1359 C1361 1.353 . S
C1359 H1400 0.929 . S
C1360 C1358 1.356 . S
C1360 C1362 1.358 . S
C1360 H1401 0.930 . S
C1361 C1359 1.353 . S
C1361 N1363 1.314 . S
C1361 H1402 0.930 . S
C1362 C1360 1.358 . S
C1362 N1363 1.279 . S
C1362 H1403 0.930 . S
N1363 C1361 1.314 . S
N1363 C1362 1.279 . S
C1364 C1366 1.353 . S
C1364 N1367 1.314 . S
C1364 H1370 0.930 . S
C1365 N1367 1.279 . S
C1365 C1368 1.358 . S
C1365 H1371 0.930 . S
C1366 C1364 1.353 . S
C1366 C1369 1.348 . S
C1366 H1404 0.929 . S
N1367 Li1322 1.990 . S
N1367 C1364 1.314 . S
N1367 C1365 1.279 . S
C1368 C1365 1.358 . S
C1368 C1369 1.356 . S
C1368 H1405 0.930 . S
C1369 C1366 1.348 . S
C1369 C1368 1.356 . S
H1370 C1364 0.930 . S
H1371 C1365 0.930 . S
C1372 N1373 1.314 . S
C1372 C1374 1.353 . S
C1372 H1378 0.930 . S
N1373 Li1323 1.990 . S
N1373 C1372 1.314 . S
N1373 C1376 1.279 . S
C1374 C1372 1.353 . S
C1374 C1377 1.348 . S
C1374 H1406 0.929 . S
C1375 C1376 1.358 . S
C1375 C1377 1.356 . S
C1375 H1407 0.930 . S
C1376 N1373 1.279 . S
C1376 C1375 1.358 . S
C1376 H1379 0.930 . S
C1377 C1374 1.348 . S
C1377 C1375 1.356 . S
H1378 C1372 0.930 . S
H1379 C1376 0.930 . S
O1380 Li1320 1.956 . S
O1380 Li1321 1.970 . S
O1380 Li1322 1.961 . S
O1380 C1324 1.325 . S
O1381 Li1320 1.970 . S
O1381 Li1321 1.956 . S
O1381 Li1323 1.961 . S
O1381 C1330 1.325 . S
O1382 Li1320 1.961 . S
O1382 Li1322 1.956 . S
O1382 Li1323 1.970 . S
O1382 C1352 1.325 . S
O1383 Li1321 1.961 . S
O1383 Li1322 1.970 . S
O1383 Li1323 1.956 . S
O1383 C1358 1.325 . S
H1384 C1326 0.929 . S
H1385 C1327 0.930 . S
H1386 C1328 0.930 . S
H1387 C1329 0.930 . S
H1388 C1331 0.930 . S
H1389 C1333 0.929 . S
H1390 C1334 0.930 . S
H1391 C1335 0.930 . S
H1392 C1338 0.930 . S
H1393 C1341 0.929 . S
H1394 C1346 0.929 . S
H1395 C1347 0.930 . S
H1396 C1354 0.929 . S
H1397 C1355 0.930 . S
H1398 C1356 0.930 . S
H1399 C1357 0.930 . S
H1400 C1359 0.929 . S
H1401 C1360 0.930 . S
H1402 C1361 0.930 . S
H1403 C1362 0.930 . S
H1404 C1366 0.929 . S
H1405 C1368 0.930 . S
H1406 C1374 0.929 . S
H1407 C1375 0.930 . S
Li1408 N1425 1.990 . S
Li1408 O1468 1.956 . S
Li1408 O1469 1.970 . S
Li1408 O1470 1.961 . S
Li1409 N1433 1.990 . S
Li1409 O1468 1.970 . S
Li1409 O1469 1.956 . S
Li1409 O1471 1.961 . S
Li1410 N1455 1.990 . S
Li1410 O1468 1.961 . S
Li1410 O1470 1.956 . S
Li1410 O1471 1.970 . S
Li1411 N1461 1.990 . S
Li1411 O1469 1.961 . S
Li1411 O1470 1.970 . S
Li1411 O1471 1.956 . S
C1412 C1414 1.348 . S
C1412 C1415 1.356 . S
C1412 O1468 1.325 . S
N1413 C1416 1.314 . S
N1413 C1417 1.279 . S
C1414 C1412 1.348 . S
C1414 C1416 1.353 . S
C1414 H1472 0.929 . S
C1415 C1412 1.356 . S
C1415 C1417 1.358 . S
C1415 H1473 0.930 . S
C1416 N1413 1.314 . S
C1416 C1414 1.353 . S
C1416 H1474 0.930 . S
C1417 N1413 1.279 . S
C1417 C1415 1.358 . S
C1417 H1475 0.930 . S
C1418 C1421 1.348 . S
C1418 C1422 1.356 . S
C1418 O1469 1.325 . S
C1419 N1420 1.279 . S
C1419 C1422 1.358 . S
C1419 H1476 0.930 . S
N1420 C1419 1.279 . S
N1420 C1423 1.314 . S
C1421 C1418 1.348 . S
C1421 C1423 1.353 . S
C1421 H1477 0.929 . S
C1422 C1418 1.356 . S
C1422 C1419 1.358 . S
C1422 H1478 0.930 . S
C1423 N1420 1.314 . S
C1423 C1421 1.353 . S
C1423 H1479 0.930 . S
C1424 N1425 1.314 . S
C1424 C1429 1.353 . S
C1424 H1430 0.930 . S
N1425 Li1408 1.990 . S
N1425 C1424 1.314 . S
N1425 C1427 1.279 . S
C1426 C1427 1.358 . S
C1426 C1428 1.356 . S
C1426 H1480 0.930 . S
C1427 N1425 1.279 . S
C1427 C1426 1.358 . S
C1427 H1431 0.930 . S
C1428 C1426 1.356 . S
C1428 C1429 1.348 . S
C1429 C1424 1.353 . S
C1429 C1428 1.348 . S
C1429 H1481 0.929 . S
H1430 C1424 0.930 . S
H1431 C1427 0.930 . S
C1432 N1433 1.314 . S
C1432 C1434 1.353 . S
C1432 H1438 0.930 . S
N1433 Li1409 1.990 . S
N1433 C1432 1.314 . S
N1433 C1436 1.279 . S
C1434 C1432 1.353 . S
C1434 C1437 1.348 . S
C1434 H1482 0.929 . S
C1435 C1436 1.358 . S
C1435 C1437 1.356 . S
C1435 H1483 0.930 . S
C1436 N1433 1.279 . S
C1436 C1435 1.358 . S
C1436 H1439 0.930 . S
C1437 C1434 1.348 . S
C1437 C1435 1.356 . S
H1438 C1432 0.930 . S
H1439 C1436 0.930 . S
C1440 C1442 1.348 . S
C1440 C1443 1.356 . S
C1440 O1470 1.325 . S
N1441 C1444 1.314 . S
N1441 C1445 1.279 . S
C1442 C1440 1.348 . S
C1442 C1444 1.353 . S
C1442 H1484 0.929 . S
C1443 C1440 1.356 . S
C1443 C1445 1.358 . S
C1443 H1485 0.930 . S
C1444 N1441 1.314 . S
C1444 C1442 1.353 . S
C1444 H1486 0.930 . S
C1445 N1441 1.279 . S
C1445 C1443 1.358 . S
C1445 H1487 0.930 . S
C1446 C1447 1.348 . S
C1446 C1448 1.356 . S
C1446 O1471 1.325 . S
C1447 C1446 1.348 . S
C1447 C1449 1.353 . S
C1447 H1488 0.929 . S
C1448 C1446 1.356 . S
C1448 C1450 1.358 . S
C1448 H1489 0.930 . S
C1449 C1447 1.353 . S
C1449 N1451 1.314 . S
C1449 H1490 0.930 . S
C1450 C1448 1.358 . S
C1450 N1451 1.279 . S
C1450 H1491 0.930 . S
N1451 C1449 1.314 . S
N1451 C1450 1.279 . S
C1452 C1454 1.353 . S
C1452 N1455 1.314 . S
C1452 H1458 0.930 . S
C1453 N1455 1.279 . S
C1453 C1456 1.358 . S
C1453 H1459 0.930 . S
C1454 C1452 1.353 . S
C1454 C1457 1.348 . S
C1454 H1492 0.929 . S
N1455 Li1410 1.990 . S
N1455 C1452 1.314 . S
N1455 C1453 1.279 . S
C1456 C1453 1.358 . S
C1456 C1457 1.356 . S
C1456 H1493 0.930 . S
C1457 C1454 1.348 . S
C1457 C1456 1.356 . S
H1458 C1452 0.930 . S
H1459 C1453 0.930 . S
C1460 N1461 1.314 . S
C1460 C1462 1.353 . S
C1460 H1466 0.930 . S
N1461 Li1411 1.990 . S
N1461 C1460 1.314 . S
N1461 C1464 1.279 . S
C1462 C1460 1.353 . S
C1462 C1465 1.348 . S
C1462 H1494 0.929 . S
C1463 C1464 1.358 . S
C1463 C1465 1.356 . S
C1463 H1495 0.930 . S
C1464 N1461 1.279 . S
C1464 C1463 1.358 . S
C1464 H1467 0.930 . S
C1465 C1462 1.348 . S
C1465 C1463 1.356 . S
H1466 C1460 0.930 . S
H1467 C1464 0.930 . S
O1468 Li1408 1.956 . S
O1468 Li1409 1.970 . S
O1468 Li1410 1.961 . S
O1468 C1412 1.325 . S
O1469 Li1408 1.970 . S
O1469 Li1409 1.956 . S
O1469 Li1411 1.961 . S
O1469 C1418 1.325 . S
O1470 Li1408 1.961 . S
O1470 Li1410 1.956 . S
O1470 Li1411 1.970 . S
O1470 C1440 1.325 . S
O1471 Li1409 1.961 . S
O1471 Li1410 1.970 . S
O1471 Li1411 1.956 . S
O1471 C1446 1.325 . S
H1472 C1414 0.929 . S
H1473 C1415 0.930 . S
H1474 C1416 0.930 . S
H1475 C1417 0.930 . S
H1476 C1419 0.930 . S
H1477 C1421 0.929 . S
H1478 C1422 0.930 . S
H1479 C1423 0.930 . S
H1480 C1426 0.930 . S
H1481 C1429 0.929 . S
H1482 C1434 0.929 . S
H1483 C1435 0.930 . S
H1484 C1442 0.929 . S
H1485 C1443 0.930 . S
H1486 C1444 0.930 . S
H1487 C1445 0.930 . S
H1488 C1447 0.929 . S
H1489 C1448 0.930 . S
H1490 C1449 0.930 . S
H1491 C1450 0.930 . S
H1492 C1454 0.929 . S
H1493 C1456 0.930 . S
H1494 C1462 0.929 . S
H1495 C1463 0.930 . S
Li1496 N1513 1.990 . S
Li1496 O1556 1.956 . S
Li1496 O1557 1.970 . S
Li1496 O1558 1.961 . S
Li1497 N1521 1.990 . S
Li1497 O1556 1.970 . S
Li1497 O1557 1.956 . S
Li1497 O1559 1.961 . S
Li1498 N1543 1.990 . S
Li1498 O1556 1.961 . S
Li1498 O1558 1.956 . S
Li1498 O1559 1.970 . S
Li1499 N1549 1.990 . S
Li1499 O1557 1.961 . S
Li1499 O1558 1.970 . S
Li1499 O1559 1.956 . S
C1500 C1502 1.348 . S
C1500 C1503 1.356 . S
C1500 O1556 1.325 . S
N1501 C1504 1.314 . S
N1501 C1505 1.279 . S
C1502 C1500 1.348 . S
C1502 C1504 1.353 . S
C1502 H1560 0.929 . S
C1503 C1500 1.356 . S
C1503 C1505 1.358 . S
C1503 H1561 0.930 . S
C1504 N1501 1.314 . S
C1504 C1502 1.353 . S
C1504 H1562 0.930 . S
C1505 N1501 1.279 . S
C1505 C1503 1.358 . S
C1505 H1563 0.930 . S
C1506 C1509 1.348 . S
C1506 C1510 1.356 . S
C1506 O1557 1.325 . S
C1507 N1508 1.279 . S
C1507 C1510 1.358 . S
C1507 H1564 0.930 . S
N1508 C1507 1.279 . S
N1508 C1511 1.314 . S
C1509 C1506 1.348 . S
C1509 C1511 1.353 . S
C1509 H1565 0.929 . S
C1510 C1506 1.356 . S
C1510 C1507 1.358 . S
C1510 H1566 0.930 . S
C1511 N1508 1.314 . S
C1511 C1509 1.353 . S
C1511 H1567 0.930 . S
C1512 N1513 1.314 . S
C1512 C1517 1.353 . S
C1512 H1518 0.930 . S
N1513 Li1496 1.990 . S
N1513 C1512 1.314 . S
N1513 C1515 1.279 . S
C1514 C1515 1.358 . S
C1514 C1516 1.356 . S
C1514 H1568 0.930 . S
C1515 N1513 1.279 . S
C1515 C1514 1.358 . S
C1515 H1519 0.930 . S
C1516 C1514 1.356 . S
C1516 C1517 1.348 . S
C1517 C1512 1.353 . S
C1517 C1516 1.348 . S
C1517 H1569 0.929 . S
H1518 C1512 0.930 . S
H1519 C1515 0.930 . S
C1520 N1521 1.314 . S
C1520 C1522 1.353 . S
C1520 H1526 0.930 . S
N1521 Li1497 1.990 . S
N1521 C1520 1.314 . S
N1521 C1524 1.279 . S
C1522 C1520 1.353 . S
C1522 C1525 1.348 . S
C1522 H1570 0.929 . S
C1523 C1524 1.358 . S
C1523 C1525 1.356 . S
C1523 H1571 0.930 . S
C1524 N1521 1.279 . S
C1524 C1523 1.358 . S
C1524 H1527 0.930 . S
C1525 C1522 1.348 . S
C1525 C1523 1.356 . S
H1526 C1520 0.930 . S
H1527 C1524 0.930 . S
C1528 C1530 1.348 . S
C1528 C1531 1.356 . S
C1528 O1558 1.325 . S
N1529 C1532 1.314 . S
N1529 C1533 1.279 . S
C1530 C1528 1.348 . S
C1530 C1532 1.353 . S
C1530 H1572 0.929 . S
C1531 C1528 1.356 . S
C1531 C1533 1.358 . S
C1531 H1573 0.930 . S
C1532 N1529 1.314 . S
C1532 C1530 1.353 . S
C1532 H1574 0.930 . S
C1533 N1529 1.279 . S
C1533 C1531 1.358 . S
C1533 H1575 0.930 . S
C1534 C1535 1.348 . S
C1534 C1536 1.356 . S
C1534 O1559 1.325 . S
C1535 C1534 1.348 . S
C1535 C1537 1.353 . S
C1535 H1576 0.929 . S
C1536 C1534 1.356 . S
C1536 C1538 1.358 . S
C1536 H1577 0.930 . S
C1537 C1535 1.353 . S
C1537 N1539 1.314 . S
C1537 H1578 0.930 . S
C1538 C1536 1.358 . S
C1538 N1539 1.279 . S
C1538 H1579 0.930 . S
N1539 C1537 1.314 . S
N1539 C1538 1.279 . S
C1540 C1542 1.353 . S
C1540 N1543 1.314 . S
C1540 H1546 0.930 . S
C1541 N1543 1.279 . S
C1541 C1544 1.358 . S
C1541 H1547 0.930 . S
C1542 C1540 1.353 . S
C1542 C1545 1.348 . S
C1542 H1580 0.929 . S
N1543 Li1498 1.990 . S
N1543 C1540 1.314 . S
N1543 C1541 1.279 . S
C1544 C1541 1.358 . S
C1544 C1545 1.356 . S
C1544 H1581 0.930 . S
C1545 C1542 1.348 . S
C1545 C1544 1.356 . S
H1546 C1540 0.930 . S
H1547 C1541 0.930 . S
C1548 N1549 1.314 . S
C1548 C1550 1.353 . S
C1548 H1554 0.930 . S
N1549 Li1499 1.990 . S
N1549 C1548 1.314 . S
N1549 C1552 1.279 . S
C1550 C1548 1.353 . S
C1550 C1553 1.348 . S
C1550 H1582 0.929 . S
C1551 C1552 1.358 . S
C1551 C1553 1.356 . S
C1551 H1583 0.930 . S
C1552 N1549 1.279 . S
C1552 C1551 1.358 . S
C1552 H1555 0.930 . S
C1553 C1550 1.348 . S
C1553 C1551 1.356 . S
H1554 C1548 0.930 . S
H1555 C1552 0.930 . S
O1556 Li1496 1.956 . S
O1556 Li1497 1.970 . S
O1556 Li1498 1.961 . S
O1556 C1500 1.325 . S
O1557 Li1496 1.970 . S
O1557 Li1497 1.956 . S
O1557 Li1499 1.961 . S
O1557 C1506 1.325 . S
O1558 Li1496 1.961 . S
O1558 Li1498 1.956 . S
O1558 Li1499 1.970 . S
O1558 C1528 1.325 . S
O1559 Li1497 1.961 . S
O1559 Li1498 1.970 . S
O1559 Li1499 1.956 . S
O1559 C1534 1.325 . S
H1560 C1502 0.929 . S
H1561 C1503 0.930 . S
H1562 C1504 0.930 . S
H1563 C1505 0.930 . S
H1564 C1507 0.930 . S
H1565 C1509 0.929 . S
H1566 C1510 0.930 . S
H1567 C1511 0.930 . S
H1568 C1514 0.930 . S
H1569 C1517 0.929 . S
H1570 C1522 0.929 . S
H1571 C1523 0.930 . S
H1572 C1530 0.929 . S
H1573 C1531 0.930 . S
H1574 C1532 0.930 . S
H1575 C1533 0.930 . S
H1576 C1535 0.929 . S
H1577 C1536 0.930 . S
H1578 C1537 0.930 . S
H1579 C1538 0.930 . S
H1580 C1542 0.929 . S
H1581 C1544 0.930 . S
H1582 C1550 0.929 . S
H1583 C1551 0.930 . S
Li1584 N1601 1.990 . S
Li1584 O1644 1.956 . S
Li1584 O1645 1.970 . S
Li1584 O1646 1.961 . S
Li1585 N1609 1.990 . S
Li1585 O1644 1.970 . S
Li1585 O1645 1.956 . S
Li1585 O1647 1.961 . S
Li1586 N1631 1.990 . S
Li1586 O1644 1.961 . S
Li1586 O1646 1.956 . S
Li1586 O1647 1.970 . S
Li1587 N1637 1.990 . S
Li1587 O1645 1.961 . S
Li1587 O1646 1.970 . S
Li1587 O1647 1.956 . S
C1588 C1590 1.348 . S
C1588 C1591 1.356 . S
C1588 O1644 1.325 . S
N1589 C1592 1.314 . S
N1589 C1593 1.279 . S
C1590 C1588 1.348 . S
C1590 C1592 1.353 . S
C1590 H1648 0.929 . S
C1591 C1588 1.356 . S
C1591 C1593 1.358 . S
C1591 H1649 0.930 . S
C1592 N1589 1.314 . S
C1592 C1590 1.353 . S
C1592 H1650 0.930 . S
C1593 N1589 1.279 . S
C1593 C1591 1.358 . S
C1593 H1651 0.930 . S
C1594 C1597 1.348 . S
C1594 C1598 1.356 . S
C1594 O1645 1.325 . S
C1595 N1596 1.279 . S
C1595 C1598 1.358 . S
C1595 H1652 0.930 . S
N1596 C1595 1.279 . S
N1596 C1599 1.314 . S
C1597 C1594 1.348 . S
C1597 C1599 1.353 . S
C1597 H1653 0.929 . S
C1598 C1594 1.356 . S
C1598 C1595 1.358 . S
C1598 H1654 0.930 . S
C1599 N1596 1.314 . S
C1599 C1597 1.353 . S
C1599 H1655 0.930 . S
C1600 N1601 1.314 . S
C1600 C1605 1.353 . S
C1600 H1606 0.930 . S
N1601 Li1584 1.990 . S
N1601 C1600 1.314 . S
N1601 C1603 1.279 . S
C1602 C1603 1.358 . S
C1602 C1604 1.356 . S
C1602 H1656 0.930 . S
C1603 N1601 1.279 . S
C1603 C1602 1.358 . S
C1603 H1607 0.930 . S
C1604 C1602 1.356 . S
C1604 C1605 1.348 . S
C1605 C1600 1.353 . S
C1605 C1604 1.348 . S
C1605 H1657 0.929 . S
H1606 C1600 0.930 . S
H1607 C1603 0.930 . S
C1608 N1609 1.314 . S
C1608 C1610 1.353 . S
C1608 H1614 0.930 . S
N1609 Li1585 1.990 . S
N1609 C1608 1.314 . S
N1609 C1612 1.279 . S
C1610 C1608 1.353 . S
C1610 C1613 1.348 . S
C1610 H1658 0.929 . S
C1611 C1612 1.358 . S
C1611 C1613 1.356 . S
C1611 H1659 0.930 . S
C1612 N1609 1.279 . S
C1612 C1611 1.358 . S
C1612 H1615 0.930 . S
C1613 C1610 1.348 . S
C1613 C1611 1.356 . S
H1614 C1608 0.930 . S
H1615 C1612 0.930 . S
C1616 C1618 1.348 . S
C1616 C1619 1.356 . S
C1616 O1646 1.325 . S
N1617 C1620 1.314 . S
N1617 C1621 1.279 . S
C1618 C1616 1.348 . S
C1618 C1620 1.353 . S
C1618 H1660 0.929 . S
C1619 C1616 1.356 . S
C1619 C1621 1.358 . S
C1619 H1661 0.930 . S
C1620 N1617 1.314 . S
C1620 C1618 1.353 . S
C1620 H1662 0.930 . S
C1621 N1617 1.279 . S
C1621 C1619 1.358 . S
C1621 H1663 0.930 . S
C1622 C1623 1.348 . S
C1622 C1624 1.356 . S
C1622 O1647 1.325 . S
C1623 C1622 1.348 . S
C1623 C1625 1.353 . S
C1623 H1664 0.929 . S
C1624 C1622 1.356 . S
C1624 C1626 1.358 . S
C1624 H1665 0.930 . S
C1625 C1623 1.353 . S
C1625 N1627 1.314 . S
C1625 H1666 0.930 . S
C1626 C1624 1.358 . S
C1626 N1627 1.279 . S
C1626 H1667 0.930 . S
N1627 C1625 1.314 . S
N1627 C1626 1.279 . S
C1628 C1630 1.353 . S
C1628 N1631 1.314 . S
C1628 H1634 0.930 . S
C1629 N1631 1.279 . S
C1629 C1632 1.358 . S
C1629 H1635 0.930 . S
C1630 C1628 1.353 . S
C1630 C1633 1.348 . S
C1630 H1668 0.929 . S
N1631 Li1586 1.990 . S
N1631 C1628 1.314 . S
N1631 C1629 1.279 . S
C1632 C1629 1.358 . S
C1632 C1633 1.356 . S
C1632 H1669 0.930 . S
C1633 C1630 1.348 . S
C1633 C1632 1.356 . S
H1634 C1628 0.930 . S
H1635 C1629 0.930 . S
C1636 N1637 1.314 . S
C1636 C1638 1.353 . S
C1636 H1642 0.930 . S
N1637 Li1587 1.990 . S
N1637 C1636 1.314 . S
N1637 C1640 1.279 . S
C1638 C1636 1.353 . S
C1638 C1641 1.348 . S
C1638 H1670 0.929 . S
C1639 C1640 1.358 . S
C1639 C1641 1.356 . S
C1639 H1671 0.930 . S
C1640 N1637 1.279 . S
C1640 C1639 1.358 . S
C1640 H1643 0.930 . S
C1641 C1638 1.348 . S
C1641 C1639 1.356 . S
H1642 C1636 0.930 . S
H1643 C1640 0.930 . S
O1644 Li1584 1.956 . S
O1644 Li1585 1.970 . S
O1644 Li1586 1.961 . S
O1644 C1588 1.325 . S
O1645 Li1584 1.970 . S
O1645 Li1585 1.956 . S
O1645 Li1587 1.961 . S
O1645 C1594 1.325 . S
O1646 Li1584 1.961 . S
O1646 Li1586 1.956 . S
O1646 Li1587 1.970 . S
O1646 C1616 1.325 . S
O1647 Li1585 1.961 . S
O1647 Li1586 1.970 . S
O1647 Li1587 1.956 . S
O1647 C1622 1.325 . S
H1648 C1590 0.929 . S
H1649 C1591 0.930 . S
H1650 C1592 0.930 . S
H1651 C1593 0.930 . S
H1652 C1595 0.930 . S
H1653 C1597 0.929 . S
H1654 C1598 0.930 . S
H1655 C1599 0.930 . S
H1656 C1602 0.930 . S
H1657 C1605 0.929 . S
H1658 C1610 0.929 . S
H1659 C1611 0.930 . S
H1660 C1618 0.929 . S
H1661 C1619 0.930 . S
H1662 C1620 0.930 . S
H1663 C1621 0.930 . S
H1664 C1623 0.929 . S
H1665 C1624 0.930 . S
H1666 C1625 0.930 . S
H1667 C1626 0.930 . S
H1668 C1630 0.929 . S
H1669 C1632 0.930 . S
H1670 C1638 0.929 . S
H1671 C1639 0.930 . S
Li1672 N1689 1.990 . S
Li1672 O1732 1.956 . S
Li1672 O1733 1.970 . S
Li1672 O1734 1.961 . S
Li1673 N1697 1.990 . S
Li1673 O1732 1.970 . S
Li1673 O1733 1.956 . S
Li1673 O1735 1.961 . S
Li1674 N1719 1.990 . S
Li1674 O1732 1.961 . S
Li1674 O1734 1.956 . S
Li1674 O1735 1.970 . S
Li1675 N1725 1.990 . S
Li1675 O1733 1.961 . S
Li1675 O1734 1.970 . S
Li1675 O1735 1.956 . S
C1676 C1678 1.348 . S
C1676 C1679 1.356 . S
C1676 O1732 1.325 . S
N1677 C1680 1.314 . S
N1677 C1681 1.279 . S
C1678 C1676 1.348 . S
C1678 C1680 1.353 . S
C1678 H1736 0.929 . S
C1679 C1676 1.356 . S
C1679 C1681 1.358 . S
C1679 H1737 0.930 . S
C1680 N1677 1.314 . S
C1680 C1678 1.353 . S
C1680 H1738 0.930 . S
C1681 N1677 1.279 . S
C1681 C1679 1.358 . S
C1681 H1739 0.930 . S
C1682 C1685 1.348 . S
C1682 C1686 1.356 . S
C1682 O1733 1.325 . S
C1683 N1684 1.279 . S
C1683 C1686 1.358 . S
C1683 H1740 0.930 . S
N1684 C1683 1.279 . S
N1684 C1687 1.314 . S
C1685 C1682 1.348 . S
C1685 C1687 1.353 . S
C1685 H1741 0.929 . S
C1686 C1682 1.356 . S
C1686 C1683 1.358 . S
C1686 H1742 0.930 . S
C1687 N1684 1.314 . S
C1687 C1685 1.353 . S
C1687 H1743 0.930 . S
C1688 N1689 1.314 . S
C1688 C1693 1.353 . S
C1688 H1694 0.930 . S
N1689 Li1672 1.990 . S
N1689 C1688 1.314 . S
N1689 C1691 1.279 . S
C1690 C1691 1.358 . S
C1690 C1692 1.356 . S
C1690 H1744 0.930 . S
C1691 N1689 1.279 . S
C1691 C1690 1.358 . S
C1691 H1695 0.930 . S
C1692 C1690 1.356 . S
C1692 C1693 1.348 . S
C1693 C1688 1.353 . S
C1693 C1692 1.348 . S
C1693 H1745 0.929 . S
H1694 C1688 0.930 . S
H1695 C1691 0.930 . S
C1696 N1697 1.314 . S
C1696 C1698 1.353 . S
C1696 H1702 0.930 . S
N1697 Li1673 1.990 . S
N1697 C1696 1.314 . S
N1697 C1700 1.279 . S
C1698 C1696 1.353 . S
C1698 C1701 1.348 . S
C1698 H1746 0.929 . S
C1699 C1700 1.358 . S
C1699 C1701 1.356 . S
C1699 H1747 0.930 . S
C1700 N1697 1.279 . S
C1700 C1699 1.358 . S
C1700 H1703 0.930 . S
C1701 C1698 1.348 . S
C1701 C1699 1.356 . S
H1702 C1696 0.930 . S
H1703 C1700 0.930 . S
C1704 C1706 1.348 . S
C1704 C1707 1.356 . S
C1704 O1734 1.325 . S
N1705 C1708 1.314 . S
N1705 C1709 1.279 . S
C1706 C1704 1.348 . S
C1706 C1708 1.353 . S
C1706 H1748 0.929 . S
C1707 C1704 1.356 . S
C1707 C1709 1.358 . S
C1707 H1749 0.930 . S
C1708 N1705 1.314 . S
C1708 C1706 1.353 . S
C1708 H1750 0.930 . S
C1709 N1705 1.279 . S
C1709 C1707 1.358 . S
C1709 H1751 0.930 . S
C1710 C1711 1.348 . S
C1710 C1712 1.356 . S
C1710 O1735 1.325 . S
C1711 C1710 1.348 . S
C1711 C1713 1.353 . S
C1711 H1752 0.929 . S
C1712 C1710 1.356 . S
C1712 C1714 1.358 . S
C1712 H1753 0.930 . S
C1713 C1711 1.353 . S
C1713 N1715 1.314 . S
C1713 H1754 0.930 . S
C1714 C1712 1.358 . S
C1714 N1715 1.279 . S
C1714 H1755 0.930 . S
N1715 C1713 1.314 . S
N1715 C1714 1.279 . S
C1716 C1718 1.353 . S
C1716 N1719 1.314 . S
C1716 H1722 0.930 . S
C1717 N1719 1.279 . S
C1717 C1720 1.358 . S
C1717 H1723 0.930 . S
C1718 C1716 1.353 . S
C1718 C1721 1.348 . S
C1718 H1756 0.929 . S
N1719 Li1674 1.990 . S
N1719 C1716 1.314 . S
N1719 C1717 1.279 . S
C1720 C1717 1.358 . S
C1720 C1721 1.356 . S
C1720 H1757 0.930 . S
C1721 C1718 1.348 . S
C1721 C1720 1.356 . S
H1722 C1716 0.930 . S
H1723 C1717 0.930 . S
C1724 N1725 1.314 . S
C1724 C1726 1.353 . S
C1724 H1730 0.930 . S
N1725 Li1675 1.990 . S
N1725 C1724 1.314 . S
N1725 C1728 1.279 . S
C1726 C1724 1.353 . S
C1726 C1729 1.348 . S
C1726 H1758 0.929 . S
C1727 C1728 1.358 . S
C1727 C1729 1.356 . S
C1727 H1759 0.930 . S
C1728 N1725 1.279 . S
C1728 C1727 1.358 . S
C1728 H1731 0.930 . S
C1729 C1726 1.348 . S
C1729 C1727 1.356 . S
H1730 C1724 0.930 . S
H1731 C1728 0.930 . S
O1732 Li1672 1.956 . S
O1732 Li1673 1.970 . S
O1732 Li1674 1.961 . S
O1732 C1676 1.325 . S
O1733 Li1672 1.970 . S
O1733 Li1673 1.956 . S
O1733 Li1675 1.961 . S
O1733 C1682 1.325 . S
O1734 Li1672 1.961 . S
O1734 Li1674 1.956 . S
O1734 Li1675 1.970 . S
O1734 C1704 1.325 . S
O1735 Li1673 1.961 . S
O1735 Li1674 1.970 . S
O1735 Li1675 1.956 . S
O1735 C1710 1.325 . S
H1736 C1678 0.929 . S
H1737 C1679 0.930 . S
H1738 C1680 0.930 . S
H1739 C1681 0.930 . S
H1740 C1683 0.930 . S
H1741 C1685 0.929 . S
H1742 C1686 0.930 . S
H1743 C1687 0.930 . S
H1744 C1690 0.930 . S
H1745 C1693 0.929 . S
H1746 C1698 0.929 . S
H1747 C1699 0.930 . S
H1748 C1706 0.929 . S
H1749 C1707 0.930 . S
H1750 C1708 0.930 . S
H1751 C1709 0.930 . S
H1752 C1711 0.929 . S
H1753 C1712 0.930 . S
H1754 C1713 0.930 . S
H1755 C1714 0.930 . S
H1756 C1718 0.929 . S
H1757 C1720 0.930 . S
H1758 C1726 0.929 . S
H1759 C1727 0.930 . S
Li1760 N1777 1.990 . S
Li1760 O1820 1.956 . S
Li1760 O1821 1.970 . S
Li1760 O1822 1.961 . S
Li1761 N1785 1.990 . S
Li1761 O1820 1.970 . S
Li1761 O1821 1.956 . S
Li1761 O1823 1.961 . S
Li1762 N1807 1.990 . S
Li1762 O1820 1.961 . S
Li1762 O1822 1.956 . S
Li1762 O1823 1.970 . S
Li1763 N1813 1.990 . S
Li1763 O1821 1.961 . S
Li1763 O1822 1.970 . S
Li1763 O1823 1.956 . S
C1764 C1766 1.348 . S
C1764 C1767 1.356 . S
C1764 O1820 1.325 . S
N1765 C1768 1.314 . S
N1765 C1769 1.279 . S
C1766 C1764 1.348 . S
C1766 C1768 1.353 . S
C1766 H1824 0.929 . S
C1767 C1764 1.356 . S
C1767 C1769 1.358 . S
C1767 H1825 0.930 . S
C1768 N1765 1.314 . S
C1768 C1766 1.353 . S
C1768 H1826 0.930 . S
C1769 N1765 1.279 . S
C1769 C1767 1.358 . S
C1769 H1827 0.930 . S
C1770 C1773 1.348 . S
C1770 C1774 1.356 . S
C1770 O1821 1.325 . S
C1771 N1772 1.279 . S
C1771 C1774 1.358 . S
C1771 H1828 0.930 . S
N1772 C1771 1.279 . S
N1772 C1775 1.314 . S
C1773 C1770 1.348 . S
C1773 C1775 1.353 . S
C1773 H1829 0.929 . S
C1774 C1770 1.356 . S
C1774 C1771 1.358 . S
C1774 H1830 0.930 . S
C1775 N1772 1.314 . S
C1775 C1773 1.353 . S
C1775 H1831 0.930 . S
C1776 N1777 1.314 . S
C1776 C1781 1.353 . S
C1776 H1782 0.930 . S
N1777 Li1760 1.990 . S
N1777 C1776 1.314 . S
N1777 C1779 1.279 . S
C1778 C1779 1.358 . S
C1778 C1780 1.356 . S
C1778 H1832 0.930 . S
C1779 N1777 1.279 . S
C1779 C1778 1.358 . S
C1779 H1783 0.930 . S
C1780 C1778 1.356 . S
C1780 C1781 1.348 . S
C1781 C1776 1.353 . S
C1781 C1780 1.348 . S
C1781 H1833 0.929 . S
H1782 C1776 0.930 . S
H1783 C1779 0.930 . S
C1784 N1785 1.314 . S
C1784 C1786 1.353 . S
C1784 H1790 0.930 . S
N1785 Li1761 1.990 . S
N1785 C1784 1.314 . S
N1785 C1788 1.279 . S
C1786 C1784 1.353 . S
C1786 C1789 1.348 . S
C1786 H1834 0.929 . S
C1787 C1788 1.358 . S
C1787 C1789 1.356 . S
C1787 H1835 0.930 . S
C1788 N1785 1.279 . S
C1788 C1787 1.358 . S
C1788 H1791 0.930 . S
C1789 C1786 1.348 . S
C1789 C1787 1.356 . S
H1790 C1784 0.930 . S
H1791 C1788 0.930 . S
C1792 C1794 1.348 . S
C1792 C1795 1.356 . S
C1792 O1822 1.325 . S
N1793 C1796 1.314 . S
N1793 C1797 1.279 . S
C1794 C1792 1.348 . S
C1794 C1796 1.353 . S
C1794 H1836 0.929 . S
C1795 C1792 1.356 . S
C1795 C1797 1.358 . S
C1795 H1837 0.930 . S
C1796 N1793 1.314 . S
C1796 C1794 1.353 . S
C1796 H1838 0.930 . S
C1797 N1793 1.279 . S
C1797 C1795 1.358 . S
C1797 H1839 0.930 . S
C1798 C1799 1.348 . S
C1798 C1800 1.356 . S
C1798 O1823 1.325 . S
C1799 C1798 1.348 . S
C1799 C1801 1.353 . S
C1799 H1840 0.929 . S
C1800 C1798 1.356 . S
C1800 C1802 1.358 . S
C1800 H1841 0.930 . S
C1801 C1799 1.353 . S
C1801 N1803 1.314 . S
C1801 H1842 0.930 . S
C1802 C1800 1.358 . S
C1802 N1803 1.279 . S
C1802 H1843 0.930 . S
N1803 C1801 1.314 . S
N1803 C1802 1.279 . S
C1804 C1806 1.353 . S
C1804 N1807 1.314 . S
C1804 H1810 0.930 . S
C1805 N1807 1.279 . S
C1805 C1808 1.358 . S
C1805 H1811 0.930 . S
C1806 C1804 1.353 . S
C1806 C1809 1.348 . S
C1806 H1844 0.929 . S
N1807 Li1762 1.990 . S
N1807 C1804 1.314 . S
N1807 C1805 1.279 . S
C1808 C1805 1.358 . S
C1808 C1809 1.356 . S
C1808 H1845 0.930 . S
C1809 C1806 1.348 . S
C1809 C1808 1.356 . S
H1810 C1804 0.930 . S
H1811 C1805 0.930 . S
C1812 N1813 1.314 . S
C1812 C1814 1.353 . S
C1812 H1818 0.930 . S
N1813 Li1763 1.990 . S
N1813 C1812 1.314 . S
N1813 C1816 1.279 . S
C1814 C1812 1.353 . S
C1814 C1817 1.348 . S
C1814 H1846 0.929 . S
C1815 C1816 1.358 . S
C1815 C1817 1.356 . S
C1815 H1847 0.930 . S
C1816 N1813 1.279 . S
C1816 C1815 1.358 . S
C1816 H1819 0.930 . S
C1817 C1814 1.348 . S
C1817 C1815 1.356 . S
H1818 C1812 0.930 . S
H1819 C1816 0.930 . S
O1820 Li1760 1.956 . S
O1820 Li1761 1.970 . S
O1820 Li1762 1.961 . S
O1820 C1764 1.325 . S
O1821 Li1760 1.970 . S
O1821 Li1761 1.956 . S
O1821 Li1763 1.961 . S
O1821 C1770 1.325 . S
O1822 Li1760 1.961 . S
O1822 Li1762 1.956 . S
O1822 Li1763 1.970 . S
O1822 C1792 1.325 . S
O1823 Li1761 1.961 . S
O1823 Li1762 1.970 . S
O1823 Li1763 1.956 . S
O1823 C1798 1.325 . S
H1824 C1766 0.929 . S
H1825 C1767 0.930 . S
H1826 C1768 0.930 . S
H1827 C1769 0.930 . S
H1828 C1771 0.930 . S
H1829 C1773 0.929 . S
H1830 C1774 0.930 . S
H1831 C1775 0.930 . S
H1832 C1778 0.930 . S
H1833 C1781 0.929 . S
H1834 C1786 0.929 . S
H1835 C1787 0.930 . S
H1836 C1794 0.929 . S
H1837 C1795 0.930 . S
H1838 C1796 0.930 . S
H1839 C1797 0.930 . S
H1840 C1799 0.929 . S
H1841 C1800 0.930 . S
H1842 C1801 0.930 . S
H1843 C1802 0.930 . S
H1844 C1806 0.929 . S
H1845 C1808 0.930 . S
H1846 C1814 0.929 . S
H1847 C1815 0.930 . S
Li1848 N1865 1.990 . S
Li1848 O1908 1.956 . S
Li1848 O1909 1.970 . S
Li1848 O1910 1.961 . S
Li1849 N1873 1.990 . S
Li1849 O1908 1.970 . S
Li1849 O1909 1.956 . S
Li1849 O1911 1.961 . S
Li1850 N1895 1.990 . S
Li1850 O1908 1.961 . S
Li1850 O1910 1.956 . S
Li1850 O1911 1.970 . S
Li1851 N1901 1.990 . S
Li1851 O1909 1.961 . S
Li1851 O1910 1.970 . S
Li1851 O1911 1.956 . S
C1852 C1854 1.348 . S
C1852 C1855 1.356 . S
C1852 O1908 1.325 . S
N1853 C1856 1.314 . S
N1853 C1857 1.279 . S
C1854 C1852 1.348 . S
C1854 C1856 1.353 . S
C1854 H1912 0.929 . S
C1855 C1852 1.356 . S
C1855 C1857 1.358 . S
C1855 H1913 0.930 . S
C1856 N1853 1.314 . S
C1856 C1854 1.353 . S
C1856 H1914 0.930 . S
C1857 N1853 1.279 . S
C1857 C1855 1.358 . S
C1857 H1915 0.930 . S
C1858 C1861 1.348 . S
C1858 C1862 1.356 . S
C1858 O1909 1.325 . S
C1859 N1860 1.279 . S
C1859 C1862 1.358 . S
C1859 H1916 0.930 . S
N1860 C1859 1.279 . S
N1860 C1863 1.314 . S
C1861 C1858 1.348 . S
C1861 C1863 1.353 . S
C1861 H1917 0.929 . S
C1862 C1858 1.356 . S
C1862 C1859 1.358 . S
C1862 H1918 0.930 . S
C1863 N1860 1.314 . S
C1863 C1861 1.353 . S
C1863 H1919 0.930 . S
C1864 N1865 1.314 . S
C1864 C1869 1.353 . S
C1864 H1870 0.930 . S
N1865 Li1848 1.990 . S
N1865 C1864 1.314 . S
N1865 C1867 1.279 . S
C1866 C1867 1.358 . S
C1866 C1868 1.356 . S
C1866 H1920 0.930 . S
C1867 N1865 1.279 . S
C1867 C1866 1.358 . S
C1867 H1871 0.930 . S
C1868 C1866 1.356 . S
C1868 C1869 1.348 . S
C1869 C1864 1.353 . S
C1869 C1868 1.348 . S
C1869 H1921 0.929 . S
H1870 C1864 0.930 . S
H1871 C1867 0.930 . S
C1872 N1873 1.314 . S
C1872 C1874 1.353 . S
C1872 H1878 0.930 . S
N1873 Li1849 1.990 . S
N1873 C1872 1.314 . S
N1873 C1876 1.279 . S
C1874 C1872 1.353 . S
C1874 C1877 1.348 . S
C1874 H1922 0.929 . S
C1875 C1876 1.358 . S
C1875 C1877 1.356 . S
C1875 H1923 0.930 . S
C1876 N1873 1.279 . S
C1876 C1875 1.358 . S
C1876 H1879 0.930 . S
C1877 C1874 1.348 . S
C1877 C1875 1.356 . S
H1878 C1872 0.930 . S
H1879 C1876 0.930 . S
C1880 C1882 1.348 . S
C1880 C1883 1.356 . S
C1880 O1910 1.325 . S
N1881 C1884 1.314 . S
N1881 C1885 1.279 . S
C1882 C1880 1.348 . S
C1882 C1884 1.353 . S
C1882 H1924 0.929 . S
C1883 C1880 1.356 . S
C1883 C1885 1.358 . S
C1883 H1925 0.930 . S
C1884 N1881 1.314 . S
C1884 C1882 1.353 . S
C1884 H1926 0.930 . S
C1885 N1881 1.279 . S
C1885 C1883 1.358 . S
C1885 H1927 0.930 . S
C1886 C1887 1.348 . S
C1886 C1888 1.356 . S
C1886 O1911 1.325 . S
C1887 C1886 1.348 . S
C1887 C1889 1.353 . S
C1887 H1928 0.929 . S
C1888 C1886 1.356 . S
C1888 C1890 1.358 . S
C1888 H1929 0.930 . S
C1889 C1887 1.353 . S
C1889 N1891 1.314 . S
C1889 H1930 0.930 . S
C1890 C1888 1.358 . S
C1890 N1891 1.279 . S
C1890 H1931 0.930 . S
N1891 C1889 1.314 . S
N1891 C1890 1.279 . S
C1892 C1894 1.353 . S
C1892 N1895 1.314 . S
C1892 H1898 0.930 . S
C1893 N1895 1.279 . S
C1893 C1896 1.358 . S
C1893 H1899 0.930 . S
C1894 C1892 1.353 . S
C1894 C1897 1.348 . S
C1894 H1932 0.929 . S
N1895 Li1850 1.990 . S
N1895 C1892 1.314 . S
N1895 C1893 1.279 . S
C1896 C1893 1.358 . S
C1896 C1897 1.356 . S
C1896 H1933 0.930 . S
C1897 C1894 1.348 . S
C1897 C1896 1.356 . S
H1898 C1892 0.930 . S
H1899 C1893 0.930 . S
C1900 N1901 1.314 . S
C1900 C1902 1.353 . S
C1900 H1906 0.930 . S
N1901 Li1851 1.990 . S
N1901 C1900 1.314 . S
N1901 C1904 1.279 . S
C1902 C1900 1.353 . S
C1902 C1905 1.348 . S
C1902 H1934 0.929 . S
C1903 C1904 1.358 . S
C1903 C1905 1.356 . S
C1903 H1935 0.930 . S
C1904 N1901 1.279 . S
C1904 C1903 1.358 . S
C1904 H1907 0.930 . S
C1905 C1902 1.348 . S
C1905 C1903 1.356 . S
H1906 C1900 0.930 . S
H1907 C1904 0.930 . S
O1908 Li1848 1.956 . S
O1908 Li1849 1.970 . S
O1908 Li1850 1.961 . S
O1908 C1852 1.325 . S
O1909 Li1848 1.970 . S
O1909 Li1849 1.956 . S
O1909 Li1851 1.961 . S
O1909 C1858 1.325 . S
O1910 Li1848 1.961 . S
O1910 Li1850 1.956 . S
O1910 Li1851 1.970 . S
O1910 C1880 1.325 . S
O1911 Li1849 1.961 . S
O1911 Li1850 1.970 . S
O1911 Li1851 1.956 . S
O1911 C1886 1.325 . S
H1912 C1854 0.929 . S
H1913 C1855 0.930 . S
H1914 C1856 0.930 . S
H1915 C1857 0.930 . S
H1916 C1859 0.930 . S
H1917 C1861 0.929 . S
H1918 C1862 0.930 . S
H1919 C1863 0.930 . S
H1920 C1866 0.930 . S
H1921 C1869 0.929 . S
H1922 C1874 0.929 . S
H1923 C1875 0.930 . S
H1924 C1882 0.929 . S
H1925 C1883 0.930 . S
H1926 C1884 0.930 . S
H1927 C1885 0.930 . S
H1928 C1887 0.929 . S
H1929 C1888 0.930 . S
H1930 C1889 0.930 . S
H1931 C1890 0.930 . S
H1932 C1894 0.929 . S
H1933 C1896 0.930 . S
H1934 C1902 0.929 . S
H1935 C1903 0.930 . S
Li1936 N1953 1.990 . S
Li1936 O1996 1.956 . S
Li1936 O1997 1.970 . S
Li1936 O1998 1.961 . S
Li1937 N1961 1.990 . S
Li1937 O1996 1.970 . S
Li1937 O1997 1.956 . S
Li1937 O1999 1.961 . S
Li1938 N1983 1.990 . S
Li1938 O1996 1.961 . S
Li1938 O1998 1.956 . S
Li1938 O1999 1.970 . S
Li1939 N1989 1.990 . S
Li1939 O1997 1.961 . S
Li1939 O1998 1.970 . S
Li1939 O1999 1.956 . S
C1940 C1942 1.348 . S
C1940 C1943 1.356 . S
C1940 O1996 1.325 . S
N1941 C1944 1.314 . S
N1941 C1945 1.279 . S
C1942 C1940 1.348 . S
C1942 C1944 1.353 . S
C1942 H2000 0.929 . S
C1943 C1940 1.356 . S
C1943 C1945 1.358 . S
C1943 H2001 0.930 . S
C1944 N1941 1.314 . S
C1944 C1942 1.353 . S
C1944 H2002 0.930 . S
C1945 N1941 1.279 . S
C1945 C1943 1.358 . S
C1945 H2003 0.930 . S
C1946 C1949 1.348 . S
C1946 C1950 1.356 . S
C1946 O1997 1.325 . S
C1947 N1948 1.279 . S
C1947 C1950 1.358 . S
C1947 H2004 0.930 . S
N1948 C1947 1.279 . S
N1948 C1951 1.314 . S
C1949 C1946 1.348 . S
C1949 C1951 1.353 . S
C1949 H2005 0.929 . S
C1950 C1946 1.356 . S
C1950 C1947 1.358 . S
C1950 H2006 0.930 . S
C1951 N1948 1.314 . S
C1951 C1949 1.353 . S
C1951 H2007 0.930 . S
C1952 N1953 1.314 . S
C1952 C1957 1.353 . S
C1952 H1958 0.930 . S
N1953 Li1936 1.990 . S
N1953 C1952 1.314 . S
N1953 C1955 1.279 . S
C1954 C1955 1.358 . S
C1954 C1956 1.356 . S
C1954 H2008 0.930 . S
C1955 N1953 1.279 . S
C1955 C1954 1.358 . S
C1955 H1959 0.930 . S
C1956 C1954 1.356 . S
C1956 C1957 1.348 . S
C1957 C1952 1.353 . S
C1957 C1956 1.348 . S
C1957 H2009 0.929 . S
H1958 C1952 0.930 . S
H1959 C1955 0.930 . S
C1960 N1961 1.314 . S
C1960 C1962 1.353 . S
C1960 H1966 0.930 . S
N1961 Li1937 1.990 . S
N1961 C1960 1.314 . S
N1961 C1964 1.279 . S
C1962 C1960 1.353 . S
C1962 C1965 1.348 . S
C1962 H2010 0.929 . S
C1963 C1964 1.358 . S
C1963 C1965 1.356 . S
C1963 H2011 0.930 . S
C1964 N1961 1.279 . S
C1964 C1963 1.358 . S
C1964 H1967 0.930 . S
C1965 C1962 1.348 . S
C1965 C1963 1.356 . S
H1966 C1960 0.930 . S
H1967 C1964 0.930 . S
C1968 C1970 1.348 . S
C1968 C1971 1.356 . S
C1968 O1998 1.325 . S
N1969 C1972 1.314 . S
N1969 C1973 1.279 . S
C1970 C1968 1.348 . S
C1970 C1972 1.353 . S
C1970 H2012 0.929 . S
C1971 C1968 1.356 . S
C1971 C1973 1.358 . S
C1971 H2013 0.930 . S
C1972 N1969 1.314 . S
C1972 C1970 1.353 . S
C1972 H2014 0.930 . S
C1973 N1969 1.279 . S
C1973 C1971 1.358 . S
C1973 H2015 0.930 . S
C1974 C1975 1.348 . S
C1974 C1976 1.356 . S
C1974 O1999 1.325 . S
C1975 C1974 1.348 . S
C1975 C1977 1.353 . S
C1975 H2016 0.929 . S
C1976 C1974 1.356 . S
C1976 C1978 1.358 . S
C1976 H2017 0.930 . S
C1977 C1975 1.353 . S
C1977 N1979 1.314 . S
C1977 H2018 0.930 . S
C1978 C1976 1.358 . S
C1978 N1979 1.279 . S
C1978 H2019 0.930 . S
N1979 C1977 1.314 . S
N1979 C1978 1.279 . S
C1980 C1982 1.353 . S
C1980 N1983 1.314 . S
C1980 H1986 0.930 . S
C1981 N1983 1.279 . S
C1981 C1984 1.358 . S
C1981 H1987 0.930 . S
C1982 C1980 1.353 . S
C1982 C1985 1.348 . S
C1982 H2020 0.929 . S
N1983 Li1938 1.990 . S
N1983 C1980 1.314 . S
N1983 C1981 1.279 . S
C1984 C1981 1.358 . S
C1984 C1985 1.356 . S
C1984 H2021 0.930 . S
C1985 C1982 1.348 . S
C1985 C1984 1.356 . S
H1986 C1980 0.930 . S
H1987 C1981 0.930 . S
C1988 N1989 1.314 . S
C1988 C1990 1.353 . S
C1988 H1994 0.930 . S
N1989 Li1939 1.990 . S
N1989 C1988 1.314 . S
N1989 C1992 1.279 . S
C1990 C1988 1.353 . S
C1990 C1993 1.348 . S
C1990 H2022 0.929 . S
C1991 C1992 1.358 . S
C1991 C1993 1.356 . S
C1991 H2023 0.930 . S
C1992 N1989 1.279 . S
C1992 C1991 1.358 . S
C1992 H1995 0.930 . S
C1993 C1990 1.348 . S
C1993 C1991 1.356 . S
H1994 C1988 0.930 . S
H1995 C1992 0.930 . S
O1996 Li1936 1.956 . S
O1996 Li1937 1.970 . S
O1996 Li1938 1.961 . S
O1996 C1940 1.325 . S
O1997 Li1936 1.970 . S
O1997 Li1937 1.956 . S
O1997 Li1939 1.961 . S
O1997 C1946 1.325 . S
O1998 Li1936 1.961 . S
O1998 Li1938 1.956 . S
O1998 Li1939 1.970 . S
O1998 C1968 1.325 . S
O1999 Li1937 1.961 . S
O1999 Li1938 1.970 . S
O1999 Li1939 1.956 . S
O1999 C1974 1.325 . S
H2000 C1942 0.929 . S
H2001 C1943 0.930 . S
H2002 C1944 0.930 . S
H2003 C1945 0.930 . S
H2004 C1947 0.930 . S
H2005 C1949 0.929 . S
H2006 C1950 0.930 . S
H2007 C1951 0.930 . S
H2008 C1954 0.930 . S
H2009 C1957 0.929 . S
H2010 C1962 0.929 . S
H2011 C1963 0.930 . S
H2012 C1970 0.929 . S
H2013 C1971 0.930 . S
H2014 C1972 0.930 . S
H2015 C1973 0.930 . S
H2016 C1975 0.929 . S
H2017 C1976 0.930 . S
H2018 C1977 0.930 . S
H2019 C1978 0.930 . S
H2020 C1982 0.929 . S
H2021 C1984 0.930 . S
H2022 C1990 0.929 . S
H2023 C1991 0.930 . S
Li2024 N2041 1.990 . S
Li2024 O2084 1.956 . S
Li2024 O2085 1.970 . S
Li2024 O2086 1.961 . S
Li2025 N2049 1.990 . S
Li2025 O2084 1.970 . S
Li2025 O2085 1.956 . S
Li2025 O2087 1.961 . S
Li2026 N2071 1.990 . S
Li2026 O2084 1.961 . S
Li2026 O2086 1.956 . S
Li2026 O2087 1.970 . S
Li2027 N2077 1.990 . S
Li2027 O2085 1.961 . S
Li2027 O2086 1.970 . S
Li2027 O2087 1.956 . S
C2028 C2030 1.348 . S
C2028 C2031 1.356 . S
C2028 O2084 1.325 . S
N2029 C2032 1.314 . S
N2029 C2033 1.279 . S
C2030 C2028 1.348 . S
C2030 C2032 1.353 . S
C2030 H2088 0.929 . S
C2031 C2028 1.356 . S
C2031 C2033 1.358 . S
C2031 H2089 0.930 . S
C2032 N2029 1.314 . S
C2032 C2030 1.353 . S
C2032 H2090 0.930 . S
C2033 N2029 1.279 . S
C2033 C2031 1.358 . S
C2033 H2091 0.930 . S
C2034 C2037 1.348 . S
C2034 C2038 1.356 . S
C2034 O2085 1.325 . S
C2035 N2036 1.279 . S
C2035 C2038 1.358 . S
C2035 H2092 0.930 . S
N2036 C2035 1.279 . S
N2036 C2039 1.314 . S
C2037 C2034 1.348 . S
C2037 C2039 1.353 . S
C2037 H2093 0.929 . S
C2038 C2034 1.356 . S
C2038 C2035 1.358 . S
C2038 H2094 0.930 . S
C2039 N2036 1.314 . S
C2039 C2037 1.353 . S
C2039 H2095 0.930 . S
C2040 N2041 1.314 . S
C2040 C2045 1.353 . S
C2040 H2046 0.930 . S
N2041 Li2024 1.990 . S
N2041 C2040 1.314 . S
N2041 C2043 1.279 . S
C2042 C2043 1.358 . S
C2042 C2044 1.356 . S
C2042 H2096 0.930 . S
C2043 N2041 1.279 . S
C2043 C2042 1.358 . S
C2043 H2047 0.930 . S
C2044 C2042 1.356 . S
C2044 C2045 1.348 . S
C2045 C2040 1.353 . S
C2045 C2044 1.348 . S
C2045 H2097 0.929 . S
H2046 C2040 0.930 . S
H2047 C2043 0.930 . S
C2048 N2049 1.314 . S
C2048 C2050 1.353 . S
C2048 H2054 0.930 . S
N2049 Li2025 1.990 . S
N2049 C2048 1.314 . S
N2049 C2052 1.279 . S
C2050 C2048 1.353 . S
C2050 C2053 1.348 . S
C2050 H2098 0.929 . S
C2051 C2052 1.358 . S
C2051 C2053 1.356 . S
C2051 H2099 0.930 . S
C2052 N2049 1.279 . S
C2052 C2051 1.358 . S
C2052 H2055 0.930 . S
C2053 C2050 1.348 . S
C2053 C2051 1.356 . S
H2054 C2048 0.930 . S
H2055 C2052 0.930 . S
C2056 C2058 1.348 . S
C2056 C2059 1.356 . S
C2056 O2086 1.325 . S
N2057 C2060 1.314 . S
N2057 C2061 1.279 . S
C2058 C2056 1.348 . S
C2058 C2060 1.353 . S
C2058 H2100 0.929 . S
C2059 C2056 1.356 . S
C2059 C2061 1.358 . S
C2059 H2101 0.930 . S
C2060 N2057 1.314 . S
C2060 C2058 1.353 . S
C2060 H2102 0.930 . S
C2061 N2057 1.279 . S
C2061 C2059 1.358 . S
C2061 H2103 0.930 . S
C2062 C2063 1.348 . S
C2062 C2064 1.356 . S
C2062 O2087 1.325 . S
C2063 C2062 1.348 . S
C2063 C2065 1.353 . S
C2063 H2104 0.929 . S
C2064 C2062 1.356 . S
C2064 C2066 1.358 . S
C2064 H2105 0.930 . S
C2065 C2063 1.353 . S
C2065 N2067 1.314 . S
C2065 H2106 0.930 . S
C2066 C2064 1.358 . S
C2066 N2067 1.279 . S
C2066 H2107 0.930 . S
N2067 C2065 1.314 . S
N2067 C2066 1.279 . S
C2068 C2070 1.353 . S
C2068 N2071 1.314 . S
C2068 H2074 0.930 . S
C2069 N2071 1.279 . S
C2069 C2072 1.358 . S
C2069 H2075 0.930 . S
C2070 C2068 1.353 . S
C2070 C2073 1.348 . S
C2070 H2108 0.929 . S
N2071 Li2026 1.990 . S
N2071 C2068 1.314 . S
N2071 C2069 1.279 . S
C2072 C2069 1.358 . S
C2072 C2073 1.356 . S
C2072 H2109 0.930 . S
C2073 C2070 1.348 . S
C2073 C2072 1.356 . S
H2074 C2068 0.930 . S
H2075 C2069 0.930 . S
C2076 N2077 1.314 . S
C2076 C2078 1.353 . S
C2076 H2082 0.930 . S
N2077 Li2027 1.990 . S
N2077 C2076 1.314 . S
N2077 C2080 1.279 . S
C2078 C2076 1.353 . S
C2078 C2081 1.348 . S
C2078 H2110 0.929 . S
C2079 C2080 1.358 . S
C2079 C2081 1.356 . S
C2079 H2111 0.930 . S
C2080 N2077 1.279 . S
C2080 C2079 1.358 . S
C2080 H2083 0.930 . S
C2081 C2078 1.348 . S
C2081 C2079 1.356 . S
H2082 C2076 0.930 . S
H2083 C2080 0.930 . S
O2084 Li2024 1.956 . S
O2084 Li2025 1.970 . S
O2084 Li2026 1.961 . S
O2084 C2028 1.325 . S
O2085 Li2024 1.970 . S
O2085 Li2025 1.956 . S
O2085 Li2027 1.961 . S
O2085 C2034 1.325 . S
O2086 Li2024 1.961 . S
O2086 Li2026 1.956 . S
O2086 Li2027 1.970 . S
O2086 C2056 1.325 . S
O2087 Li2025 1.961 . S
O2087 Li2026 1.970 . S
O2087 Li2027 1.956 . S
O2087 C2062 1.325 . S
H2088 C2030 0.929 . S
H2089 C2031 0.930 . S
H2090 C2032 0.930 . S
H2091 C2033 0.930 . S
H2092 C2035 0.930 . S
H2093 C2037 0.929 . S
H2094 C2038 0.930 . S
H2095 C2039 0.930 . S
H2096 C2042 0.930 . S
H2097 C2045 0.929 . S
H2098 C2050 0.929 . S
H2099 C2051 0.930 . S
H2100 C2058 0.929 . S
H2101 C2059 0.930 . S
H2102 C2060 0.930 . S
H2103 C2061 0.930 . S
H2104 C2063 0.929 . S
H2105 C2064 0.930 . S
H2106 C2065 0.930 . S
H2107 C2066 0.930 . S
H2108 C2070 0.929 . S
H2109 C2072 0.930 . S
H2110 C2078 0.929 . S
H2111 C2079 0.930 . S
H2112 C2118 0.930 . S
H2113 C2122 0.930 . S
H2114 C2127 0.929 . S
H2115 C2125 0.929 . S
H2116 C2120 0.929 . S
H2117 C2126 0.929 . S
C2118 H2112 0.930 . S
C2118 C2119 1.367 . S
C2118 C2126 1.378 . S
C2119 C2118 1.367 . S
C2119 C2127 1.433 . S
C2120 H2116 0.929 . S
C2120 C2122 1.378 . S
C2120 C2124 1.350 . S
C2121 C2124 1.463 . S
C2121 C2126 1.350 . S
C2121 N2129 1.427 . S
C2122 H2113 0.930 . S
C2122 C2120 1.378 . S
C2122 C2123 1.367 . S
C2123 C2122 1.367 . S
C2123 C2125 1.433 . S
C2124 C2120 1.350 . S
C2124 C2121 1.463 . S
C2124 N2128 1.427 . S
C2125 H2115 0.929 . S
C2125 C2123 1.433 . S
C2125 N2128 1.384 . S
C2126 H2117 0.929 . S
C2126 C2118 1.378 . S
C2126 C2121 1.350 . S
C2127 H2114 0.929 . S
C2127 C2119 1.433 . S
C2127 N2129 1.384 . S
N2128 C2124 1.427 . S
N2128 C2125 1.384 . S
N2129 C2121 1.427 . S
N2129 C2127 1.384 . S
H2130 C2136 0.930 . S
H2131 C2140 0.930 . S
H2132 C2145 0.929 . S
H2133 C2143 0.929 . S
H2134 C2138 0.929 . S
H2135 C2144 0.929 . S
C2136 H2130 0.930 . S
C2136 C2137 1.367 . S
C2136 C2144 1.378 . S
C2137 C2136 1.367 . S
C2137 C2145 1.433 . S
C2138 H2134 0.929 . S
C2138 C2140 1.378 . S
C2138 C2142 1.350 . S
C2139 C2142 1.463 . S
C2139 C2144 1.350 . S
C2139 N2147 1.427 . S
C2140 H2131 0.930 . S
C2140 C2138 1.378 . S
C2140 C2141 1.367 . S
C2141 C2140 1.367 . S
C2141 C2143 1.433 . S
C2142 C2138 1.350 . S
C2142 C2139 1.463 . S
C2142 N2146 1.427 . S
C2143 H2133 0.929 . S
C2143 C2141 1.433 . S
C2143 N2146 1.384 . S
C2144 H2135 0.929 . S
C2144 C2136 1.378 . S
C2144 C2139 1.350 . S
C2145 H2132 0.929 . S
C2145 C2137 1.433 . S
C2145 N2147 1.384 . S
N2146 C2142 1.427 . S
N2146 C2143 1.384 . S
N2147 C2139 1.427 . S
N2147 C2145 1.384 . S
H2148 C2154 0.930 . S
H2149 C2158 0.930 . S
H2150 C2163 0.929 . S
H2151 C2161 0.929 . S
H2152 C2156 0.929 . S
H2153 C2162 0.929 . S
C2154 H2148 0.930 . S
C2154 C2155 1.367 . S
C2154 C2162 1.378 . S
C2155 C2154 1.367 . S
C2155 C2163 1.433 . S
C2156 H2152 0.929 . S
C2156 C2158 1.378 . S
C2156 C2160 1.350 . S
C2157 C2160 1.463 . S
C2157 C2162 1.350 . S
C2157 N2165 1.427 . S
C2158 H2149 0.930 . S
C2158 C2156 1.378 . S
C2158 C2159 1.367 . S
C2159 C2158 1.367 . S
C2159 C2161 1.433 . S
C2160 C2156 1.350 . S
C2160 C2157 1.463 . S
C2160 N2164 1.427 . S
C2161 H2151 0.929 . S
C2161 C2159 1.433 . S
C2161 N2164 1.384 . S
C2162 H2153 0.929 . S
C2162 C2154 1.378 . S
C2162 C2157 1.350 . S
C2163 H2150 0.929 . S
C2163 C2155 1.433 . S
C2163 N2165 1.384 . S
N2164 C2160 1.427 . S
N2164 C2161 1.384 . S
N2165 C2157 1.427 . S
N2165 C2163 1.384 . S
H2166 C2172 0.930 . S
H2167 C2176 0.930 . S
H2168 C2181 0.929 . S
H2169 C2179 0.929 . S
H2170 C2174 0.929 . S
H2171 C2180 0.929 . S
C2172 H2166 0.930 . S
C2172 C2173 1.367 . S
C2172 C2180 1.378 . S
C2173 C2172 1.367 . S
C2173 C2181 1.433 . S
C2174 H2170 0.929 . S
C2174 C2176 1.378 . S
C2174 C2178 1.350 . S
C2175 C2178 1.463 . S
C2175 C2180 1.350 . S
C2175 N2183 1.427 . S
C2176 H2167 0.930 . S
C2176 C2174 1.378 . S
C2176 C2177 1.367 . S
C2177 C2176 1.367 . S
C2177 C2179 1.433 . S
C2178 C2174 1.350 . S
C2178 C2175 1.463 . S
C2178 N2182 1.427 . S
C2179 H2169 0.929 . S
C2179 C2177 1.433 . S
C2179 N2182 1.384 . S
C2180 H2171 0.929 . S
C2180 C2172 1.378 . S
C2180 C2175 1.350 . S
C2181 H2168 0.929 . S
C2181 C2173 1.433 . S
C2181 N2183 1.384 . S
N2182 C2178 1.427 . S
N2182 C2179 1.384 . S
N2183 C2175 1.427 . S
N2183 C2181 1.384 . S
H2184 C2190 0.930 . S
H2185 C2194 0.930 . S
H2186 C2199 0.929 . S
H2187 C2197 0.929 . S
H2188 C2192 0.929 . S
H2189 C2198 0.929 . S
C2190 H2184 0.930 . S
C2190 C2191 1.367 . S
C2190 C2198 1.378 . S
C2191 C2190 1.367 . S
C2191 C2199 1.433 . S
C2192 H2188 0.929 . S
C2192 C2194 1.378 . S
C2192 C2196 1.350 . S
C2193 C2196 1.463 . S
C2193 C2198 1.350 . S
C2193 N2201 1.427 . S
C2194 H2185 0.930 . S
C2194 C2192 1.378 . S
C2194 C2195 1.367 . S
C2195 C2194 1.367 . S
C2195 C2197 1.433 . S
C2196 C2192 1.350 . S
C2196 C2193 1.463 . S
C2196 N2200 1.427 . S
C2197 H2187 0.929 . S
C2197 C2195 1.433 . S
C2197 N2200 1.384 . S
C2198 H2189 0.929 . S
C2198 C2190 1.378 . S
C2198 C2193 1.350 . S
C2199 H2186 0.929 . S
C2199 C2191 1.433 . S
C2199 N2201 1.384 . S
N2200 C2196 1.427 . S
N2200 C2197 1.384 . S
N2201 C2193 1.427 . S
N2201 C2199 1.384 . S
H2202 C2208 0.930 . S
H2203 C2212 0.930 . S
H2204 C2217 0.929 . S
H2205 C2215 0.929 . S
H2206 C2210 0.929 . S
H2207 C2216 0.929 . S
C2208 H2202 0.930 . S
C2208 C2209 1.367 . S
C2208 C2216 1.378 . S
C2209 C2208 1.367 . S
C2209 C2217 1.433 . S
C2210 H2206 0.929 . S
C2210 C2212 1.378 . S
C2210 C2214 1.350 . S
C2211 C2214 1.463 . S
C2211 C2216 1.350 . S
C2211 N2219 1.427 . S
C2212 H2203 0.930 . S
C2212 C2210 1.378 . S
C2212 C2213 1.367 . S
C2213 C2212 1.367 . S
C2213 C2215 1.433 . S
C2214 C2210 1.350 . S
C2214 C2211 1.463 . S
C2214 N2218 1.427 . S
C2215 H2205 0.929 . S
C2215 C2213 1.433 . S
C2215 N2218 1.384 . S
C2216 H2207 0.929 . S
C2216 C2208 1.378 . S
C2216 C2211 1.350 . S
C2217 H2204 0.929 . S
C2217 C2209 1.433 . S
C2217 N2219 1.384 . S
N2218 C2214 1.427 . S
N2218 C2215 1.384 . S
N2219 C2211 1.427 . S
N2219 C2217 1.384 . S
H2220 C2226 0.930 . S
H2221 C2230 0.930 . S
H2222 C2235 0.929 . S
H2223 C2233 0.929 . S
H2224 C2228 0.929 . S
H2225 C2234 0.929 . S
C2226 H2220 0.930 . S
C2226 C2227 1.367 . S
C2226 C2234 1.378 . S
C2227 C2226 1.367 . S
C2227 C2235 1.433 . S
C2228 H2224 0.929 . S
C2228 C2230 1.378 . S
C2228 C2232 1.350 . S
C2229 C2232 1.463 . S
C2229 C2234 1.350 . S
C2229 N2237 1.427 . S
C2230 H2221 0.930 . S
C2230 C2228 1.378 . S
C2230 C2231 1.367 . S
C2231 C2230 1.367 . S
C2231 C2233 1.433 . S
C2232 C2228 1.350 . S
C2232 C2229 1.463 . S
C2232 N2236 1.427 . S
C2233 H2223 0.929 . S
C2233 C2231 1.433 . S
C2233 N2236 1.384 . S
C2234 H2225 0.929 . S
C2234 C2226 1.378 . S
C2234 C2229 1.350 . S
C2235 H2222 0.929 . S
C2235 C2227 1.433 . S
C2235 N2237 1.384 . S
N2236 C2232 1.427 . S
N2236 C2233 1.384 . S
N2237 C2229 1.427 . S
N2237 C2235 1.384 . S
H2238 C2244 0.930 . S
H2239 C2248 0.930 . S
H2240 C2253 0.929 . S
H2241 C2251 0.929 . S
H2242 C2246 0.929 . S
H2243 C2252 0.929 . S
C2244 H2238 0.930 . S
C2244 C2245 1.367 . S
C2244 C2252 1.378 . S
C2245 C2244 1.367 . S
C2245 C2253 1.433 . S
C2246 H2242 0.929 . S
C2246 C2248 1.378 . S
C2246 C2250 1.350 . S
C2247 C2250 1.463 . S
C2247 C2252 1.350 . S
C2247 N2255 1.427 . S
C2248 H2239 0.930 . S
C2248 C2246 1.378 . S
C2248 C2249 1.367 . S
C2249 C2248 1.367 . S
C2249 C2251 1.433 . S
C2250 C2246 1.350 . S
C2250 C2247 1.463 . S
C2250 N2254 1.427 . S
C2251 H2241 0.929 . S
C2251 C2249 1.433 . S
C2251 N2254 1.384 . S
C2252 H2243 0.929 . S
C2252 C2244 1.378 . S
C2252 C2247 1.350 . S
C2253 H2240 0.929 . S
C2253 C2245 1.433 . S
C2253 N2255 1.384 . S
N2254 C2250 1.427 . S
N2254 C2251 1.384 . S
N2255 C2247 1.427 . S
N2255 C2253 1.384 . S
H2256 C2262 0.930 . S
H2257 C2266 0.930 . S
H2258 C2271 0.929 . S
H2259 C2269 0.929 . S
H2260 C2264 0.929 . S
H2261 C2270 0.929 . S
C2262 H2256 0.930 . S
C2262 C2263 1.367 . S
C2262 C2270 1.378 . S
C2263 C2262 1.367 . S
C2263 C2271 1.433 . S
C2264 H2260 0.929 . S
C2264 C2266 1.378 . S
C2264 C2268 1.350 . S
C2265 C2268 1.463 . S
C2265 C2270 1.350 . S
C2265 N2273 1.427 . S
C2266 H2257 0.930 . S
C2266 C2264 1.378 . S
C2266 C2267 1.367 . S
C2267 C2266 1.367 . S
C2267 C2269 1.433 . S
C2268 C2264 1.350 . S
C2268 C2265 1.463 . S
C2268 N2272 1.427 . S
C2269 H2259 0.929 . S
C2269 C2267 1.433 . S
C2269 N2272 1.384 . S
C2270 H2261 0.929 . S
C2270 C2262 1.378 . S
C2270 C2265 1.350 . S
C2271 H2258 0.929 . S
C2271 C2263 1.433 . S
C2271 N2273 1.384 . S
N2272 C2268 1.427 . S
N2272 C2269 1.384 . S
N2273 C2265 1.427 . S
N2273 C2271 1.384 . S
H2274 C2280 0.930 . S
H2275 C2284 0.930 . S
H2276 C2289 0.929 . S
H2277 C2287 0.929 . S
H2278 C2282 0.929 . S
H2279 C2288 0.929 . S
C2280 H2274 0.930 . S
C2280 C2281 1.367 . S
C2280 C2288 1.378 . S
C2281 C2280 1.367 . S
C2281 C2289 1.433 . S
C2282 H2278 0.929 . S
C2282 C2284 1.378 . S
C2282 C2286 1.350 . S
C2283 C2286 1.463 . S
C2283 C2288 1.350 . S
C2283 N2291 1.427 . S
C2284 H2275 0.930 . S
C2284 C2282 1.378 . S
C2284 C2285 1.367 . S
C2285 C2284 1.367 . S
C2285 C2287 1.433 . S
C2286 C2282 1.350 . S
C2286 C2283 1.463 . S
C2286 N2290 1.427 . S
C2287 H2277 0.929 . S
C2287 C2285 1.433 . S
C2287 N2290 1.384 . S
C2288 H2279 0.929 . S
C2288 C2280 1.378 . S
C2288 C2283 1.350 . S
C2289 H2276 0.929 . S
C2289 C2281 1.433 . S
C2289 N2291 1.384 . S
N2290 C2286 1.427 . S
N2290 C2287 1.384 . S
N2291 C2283 1.427 . S
N2291 C2289 1.384 . S
H2292 C2298 0.930 . S
H2293 C2302 0.930 . S
H2294 C2307 0.929 . S
H2295 C2305 0.929 . S
H2296 C2300 0.929 . S
H2297 C2306 0.929 . S
C2298 H2292 0.930 . S
C2298 C2299 1.367 . S
C2298 C2306 1.378 . S
C2299 C2298 1.367 . S
C2299 C2307 1.433 . S
C2300 H2296 0.929 . S
C2300 C2302 1.378 . S
C2300 C2304 1.350 . S
C2301 C2304 1.463 . S
C2301 C2306 1.350 . S
C2301 N2309 1.427 . S
C2302 H2293 0.930 . S
C2302 C2300 1.378 . S
C2302 C2303 1.367 . S
C2303 C2302 1.367 . S
C2303 C2305 1.433 . S
C2304 C2300 1.350 . S
C2304 C2301 1.463 . S
C2304 N2308 1.427 . S
C2305 H2295 0.929 . S
C2305 C2303 1.433 . S
C2305 N2308 1.384 . S
C2306 H2297 0.929 . S
C2306 C2298 1.378 . S
C2306 C2301 1.350 . S
C2307 H2294 0.929 . S
C2307 C2299 1.433 . S
C2307 N2309 1.384 . S
N2308 C2304 1.427 . S
N2308 C2305 1.384 . S
N2309 C2301 1.427 . S
N2309 C2307 1.384 . S
H2310 C2316 0.930 . S
H2311 C2320 0.930 . S
H2312 C2325 0.929 . S
H2313 C2323 0.929 . S
H2314 C2318 0.929 . S
H2315 C2324 0.929 . S
C2316 H2310 0.930 . S
C2316 C2317 1.367 . S
C2316 C2324 1.378 . S
C2317 C2316 1.367 . S
C2317 C2325 1.433 . S
C2318 H2314 0.929 . S
C2318 C2320 1.378 . S
C2318 C2322 1.350 . S
C2319 C2322 1.463 . S
C2319 C2324 1.350 . S
C2319 N2327 1.427 . S
C2320 H2311 0.930 . S
C2320 C2318 1.378 . S
C2320 C2321 1.367 . S
C2321 C2320 1.367 . S
C2321 C2323 1.433 . S
C2322 C2318 1.350 . S
C2322 C2319 1.463 . S
C2322 N2326 1.427 . S
C2323 H2313 0.929 . S
C2323 C2321 1.433 . S
C2323 N2326 1.384 . S
C2324 H2315 0.929 . S
C2324 C2316 1.378 . S
C2324 C2319 1.350 . S
C2325 H2312 0.929 . S
C2325 C2317 1.433 . S
C2325 N2327 1.384 . S
N2326 C2322 1.427 . S
N2326 C2323 1.384 . S
N2327 C2319 1.427 . S
N2327 C2325 1.384 . S
H2328 C2334 0.930 . S
H2329 C2338 0.930 . S
H2330 C2343 0.929 . S
H2331 C2341 0.929 . S
H2332 C2336 0.929 . S
H2333 C2342 0.929 . S
C2334 H2328 0.930 . S
C2334 C2335 1.367 . S
C2334 C2342 1.378 . S
C2335 C2334 1.367 . S
C2335 C2343 1.433 . S
C2336 H2332 0.929 . S
C2336 C2338 1.378 . S
C2336 C2340 1.350 . S
C2337 C2340 1.463 . S
C2337 C2342 1.350 . S
C2337 N2345 1.427 . S
C2338 H2329 0.930 . S
C2338 C2336 1.378 . S
C2338 C2339 1.367 . S
C2339 C2338 1.367 . S
C2339 C2341 1.433 . S
C2340 C2336 1.350 . S
C2340 C2337 1.463 . S
C2340 N2344 1.427 . S
C2341 H2331 0.929 . S
C2341 C2339 1.433 . S
C2341 N2344 1.384 . S
C2342 H2333 0.929 . S
C2342 C2334 1.378 . S
C2342 C2337 1.350 . S
C2343 H2330 0.929 . S
C2343 C2335 1.433 . S
C2343 N2345 1.384 . S
N2344 C2340 1.427 . S
N2344 C2341 1.384 . S
N2345 C2337 1.427 . S
N2345 C2343 1.384 . S
H2346 C2352 0.930 . S
H2347 C2356 0.930 . S
H2348 C2361 0.929 . S
H2349 C2359 0.929 . S
H2350 C2354 0.929 . S
H2351 C2360 0.929 . S
C2352 H2346 0.930 . S
C2352 C2353 1.367 . S
C2352 C2360 1.378 . S
C2353 C2352 1.367 . S
C2353 C2361 1.433 . S
C2354 H2350 0.929 . S
C2354 C2356 1.378 . S
C2354 C2358 1.350 . S
C2355 C2358 1.463 . S
C2355 C2360 1.350 . S
C2355 N2363 1.427 . S
C2356 H2347 0.930 . S
C2356 C2354 1.378 . S
C2356 C2357 1.367 . S
C2357 C2356 1.367 . S
C2357 C2359 1.433 . S
C2358 C2354 1.350 . S
C2358 C2355 1.463 . S
C2358 N2362 1.427 . S
C2359 H2349 0.929 . S
C2359 C2357 1.433 . S
C2359 N2362 1.384 . S
C2360 H2351 0.929 . S
C2360 C2352 1.378 . S
C2360 C2355 1.350 . S
C2361 H2348 0.929 . S
C2361 C2353 1.433 . S
C2361 N2363 1.384 . S
N2362 C2358 1.427 . S
N2362 C2359 1.384 . S
N2363 C2355 1.427 . S
N2363 C2361 1.384 . S
H2364 C2370 0.930 . S
H2365 C2374 0.930 . S
H2366 C2379 0.929 . S
H2367 C2377 0.929 . S
H2368 C2372 0.929 . S
H2369 C2378 0.929 . S
C2370 H2364 0.930 . S
C2370 C2371 1.367 . S
C2370 C2378 1.378 . S
C2371 C2370 1.367 . S
C2371 C2379 1.433 . S
C2372 H2368 0.929 . S
C2372 C2374 1.378 . S
C2372 C2376 1.350 . S
C2373 C2376 1.463 . S
C2373 C2378 1.350 . S
C2373 N2381 1.427 . S
C2374 H2365 0.930 . S
C2374 C2372 1.378 . S
C2374 C2375 1.367 . S
C2375 C2374 1.367 . S
C2375 C2377 1.433 . S
C2376 C2372 1.350 . S
C2376 C2373 1.463 . S
C2376 N2380 1.427 . S
C2377 H2367 0.929 . S
C2377 C2375 1.433 . S
C2377 N2380 1.384 . S
C2378 H2369 0.929 . S
C2378 C2370 1.378 . S
C2378 C2373 1.350 . S
C2379 H2366 0.929 . S
C2379 C2371 1.433 . S
C2379 N2381 1.384 . S
N2380 C2376 1.427 . S
N2380 C2377 1.384 . S
N2381 C2373 1.427 . S
N2381 C2379 1.384 . S
H2382 C2388 0.930 . S
H2383 C2392 0.930 . S
H2384 C2397 0.929 . S
H2385 C2395 0.929 . S
H2386 C2390 0.929 . S
H2387 C2396 0.929 . S
C2388 H2382 0.930 . S
C2388 C2389 1.367 . S
C2388 C2396 1.378 . S
C2389 C2388 1.367 . S
C2389 C2397 1.433 . S
C2390 H2386 0.929 . S
C2390 C2392 1.378 . S
C2390 C2394 1.350 . S
C2391 C2394 1.463 . S
C2391 C2396 1.350 . S
C2391 N2399 1.427 . S
C2392 H2383 0.930 . S
C2392 C2390 1.378 . S
C2392 C2393 1.367 . S
C2393 C2392 1.367 . S
C2393 C2395 1.433 . S
C2394 C2390 1.350 . S
C2394 C2391 1.463 . S
C2394 N2398 1.427 . S
C2395 H2385 0.929 . S
C2395 C2393 1.433 . S
C2395 N2398 1.384 . S
C2396 H2387 0.929 . S
C2396 C2388 1.378 . S
C2396 C2391 1.350 . S
C2397 H2384 0.929 . S
C2397 C2389 1.433 . S
C2397 N2399 1.384 . S
N2398 C2394 1.427 . S
N2398 C2395 1.384 . S
N2399 C2391 1.427 . S
N2399 C2397 1.384 . S
H2400 C2406 0.930 . S
H2401 C2410 0.930 . S
H2402 C2415 0.929 . S
H2403 C2413 0.929 . S
H2404 C2408 0.929 . S
H2405 C2414 0.929 . S
C2406 H2400 0.930 . S
C2406 C2407 1.367 . S
C2406 C2414 1.378 . S
C2407 C2406 1.367 . S
C2407 C2415 1.433 . S
C2408 H2404 0.929 . S
C2408 C2410 1.378 . S
C2408 C2412 1.350 . S
C2409 C2412 1.463 . S
C2409 C2414 1.350 . S
C2409 N2417 1.427 . S
C2410 H2401 0.930 . S
C2410 C2408 1.378 . S
C2410 C2411 1.367 . S
C2411 C2410 1.367 . S
C2411 C2413 1.433 . S
C2412 C2408 1.350 . S
C2412 C2409 1.463 . S
C2412 N2416 1.427 . S
C2413 H2403 0.929 . S
C2413 C2411 1.433 . S
C2413 N2416 1.384 . S
C2414 H2405 0.929 . S
C2414 C2406 1.378 . S
C2414 C2409 1.350 . S
C2415 H2402 0.929 . S
C2415 C2407 1.433 . S
C2415 N2417 1.384 . S
N2416 C2412 1.427 . S
N2416 C2413 1.384 . S
N2417 C2409 1.427 . S
N2417 C2415 1.384 . S
H2418 C2424 0.930 . S
H2419 C2428 0.930 . S
H2420 C2433 0.929 . S
H2421 C2431 0.929 . S
H2422 C2426 0.929 . S
H2423 C2432 0.929 . S
C2424 H2418 0.930 . S
C2424 C2425 1.367 . S
C2424 C2432 1.378 . S
C2425 C2424 1.367 . S
C2425 C2433 1.433 . S
C2426 H2422 0.929 . S
C2426 C2428 1.378 . S
C2426 C2430 1.350 . S
C2427 C2430 1.463 . S
C2427 C2432 1.350 . S
C2427 N2435 1.427 . S
C2428 H2419 0.930 . S
C2428 C2426 1.378 . S
C2428 C2429 1.367 . S
C2429 C2428 1.367 . S
C2429 C2431 1.433 . S
C2430 C2426 1.350 . S
C2430 C2427 1.463 . S
C2430 N2434 1.427 . S
C2431 H2421 0.929 . S
C2431 C2429 1.433 . S
C2431 N2434 1.384 . S
C2432 H2423 0.929 . S
C2432 C2424 1.378 . S
C2432 C2427 1.350 . S
C2433 H2420 0.929 . S
C2433 C2425 1.433 . S
C2433 N2435 1.384 . S
N2434 C2430 1.427 . S
N2434 C2431 1.384 . S
N2435 C2427 1.427 . S
N2435 C2433 1.384 . S
H2436 C2442 0.930 . S
H2437 C2446 0.930 . S
H2438 C2451 0.929 . S
H2439 C2449 0.929 . S
H2440 C2444 0.929 . S
H2441 C2450 0.929 . S
C2442 H2436 0.930 . S
C2442 C2443 1.367 . S
C2442 C2450 1.378 . S
C2443 C2442 1.367 . S
C2443 C2451 1.433 . S
C2444 H2440 0.929 . S
C2444 C2446 1.378 . S
C2444 C2448 1.350 . S
C2445 C2448 1.463 . S
C2445 C2450 1.350 . S
C2445 N2453 1.427 . S
C2446 H2437 0.930 . S
C2446 C2444 1.378 . S
C2446 C2447 1.367 . S
C2447 C2446 1.367 . S
C2447 C2449 1.433 . S
C2448 C2444 1.350 . S
C2448 C2445 1.463 . S
C2448 N2452 1.427 . S
C2449 H2439 0.929 . S
C2449 C2447 1.433 . S
C2449 N2452 1.384 . S
C2450 H2441 0.929 . S
C2450 C2442 1.378 . S
C2450 C2445 1.350 . S
C2451 H2438 0.929 . S
C2451 C2443 1.433 . S
C2451 N2453 1.384 . S
N2452 C2448 1.427 . S
N2452 C2449 1.384 . S
N2453 C2445 1.427 . S
N2453 C2451 1.384 . S
H2454 C2460 0.930 . S
H2455 C2464 0.930 . S
H2456 C2469 0.929 . S
H2457 C2467 0.929 . S
H2458 C2462 0.929 . S
H2459 C2468 0.929 . S
C2460 H2454 0.930 . S
C2460 C2461 1.367 . S
C2460 C2468 1.378 . S
C2461 C2460 1.367 . S
C2461 C2469 1.433 . S
C2462 H2458 0.929 . S
C2462 C2464 1.378 . S
C2462 C2466 1.350 . S
C2463 C2466 1.463 . S
C2463 C2468 1.350 . S
C2463 N2471 1.427 . S
C2464 H2455 0.930 . S
C2464 C2462 1.378 . S
C2464 C2465 1.367 . S
C2465 C2464 1.367 . S
C2465 C2467 1.433 . S
C2466 C2462 1.350 . S
C2466 C2463 1.463 . S
C2466 N2470 1.427 . S
C2467 H2457 0.929 . S
C2467 C2465 1.433 . S
C2467 N2470 1.384 . S
C2468 H2459 0.929 . S
C2468 C2460 1.378 . S
C2468 C2463 1.350 . S
C2469 H2456 0.929 . S
C2469 C2461 1.433 . S
C2469 N2471 1.384 . S
N2470 C2466 1.427 . S
N2470 C2467 1.384 . S
N2471 C2463 1.427 . S
N2471 C2469 1.384 . S
H2472 C2478 0.930 . S
H2473 C2482 0.930 . S
H2474 C2487 0.929 . S
H2475 C2485 0.929 . S
H2476 C2480 0.929 . S
H2477 C2486 0.929 . S
C2478 H2472 0.930 . S
C2478 C2479 1.367 . S
C2478 C2486 1.378 . S
C2479 C2478 1.367 . S
C2479 C2487 1.433 . S
C2480 H2476 0.929 . S
C2480 C2482 1.378 . S
C2480 C2484 1.350 . S
C2481 C2484 1.463 . S
C2481 C2486 1.350 . S
C2481 N2489 1.427 . S
C2482 H2473 0.930 . S
C2482 C2480 1.378 . S
C2482 C2483 1.367 . S
C2483 C2482 1.367 . S
C2483 C2485 1.433 . S
C2484 C2480 1.350 . S
C2484 C2481 1.463 . S
C2484 N2488 1.427 . S
C2485 H2475 0.929 . S
C2485 C2483 1.433 . S
C2485 N2488 1.384 . S
C2486 H2477 0.929 . S
C2486 C2478 1.378 . S
C2486 C2481 1.350 . S
C2487 H2474 0.929 . S
C2487 C2479 1.433 . S
C2487 N2489 1.384 . S
N2488 C2484 1.427 . S
N2488 C2485 1.384 . S
N2489 C2481 1.427 . S
N2489 C2487 1.384 . S
H2490 C2496 0.930 . S
H2491 C2500 0.930 . S
H2492 C2505 0.929 . S
H2493 C2503 0.929 . S
H2494 C2498 0.929 . S
H2495 C2504 0.929 . S
C2496 H2490 0.930 . S
C2496 C2497 1.367 . S
C2496 C2504 1.378 . S
C2497 C2496 1.367 . S
C2497 C2505 1.433 . S
C2498 H2494 0.929 . S
C2498 C2500 1.378 . S
C2498 C2502 1.350 . S
C2499 C2502 1.463 . S
C2499 C2504 1.350 . S
C2499 N2507 1.427 . S
C2500 H2491 0.930 . S
C2500 C2498 1.378 . S
C2500 C2501 1.367 . S
C2501 C2500 1.367 . S
C2501 C2503 1.433 . S
C2502 C2498 1.350 . S
C2502 C2499 1.463 . S
C2502 N2506 1.427 . S
C2503 H2493 0.929 . S
C2503 C2501 1.433 . S
C2503 N2506 1.384 . S
C2504 H2495 0.929 . S
C2504 C2496 1.378 . S
C2504 C2499 1.350 . S
C2505 H2492 0.929 . S
C2505 C2497 1.433 . S
C2505 N2507 1.384 . S
N2506 C2502 1.427 . S
N2506 C2503 1.384 . S
N2507 C2499 1.427 . S
N2507 C2505 1.384 . S
H2508 C2514 0.930 . S
H2509 C2518 0.930 . S
H2510 C2523 0.929 . S
H2511 C2521 0.929 . S
H2512 C2516 0.929 . S
H2513 C2522 0.929 . S
C2514 H2508 0.930 . S
C2514 C2515 1.367 . S
C2514 C2522 1.378 . S
C2515 C2514 1.367 . S
C2515 C2523 1.433 . S
C2516 H2512 0.929 . S
C2516 C2518 1.378 . S
C2516 C2520 1.350 . S
C2517 C2520 1.463 . S
C2517 C2522 1.350 . S
C2517 N2525 1.427 . S
C2518 H2509 0.930 . S
C2518 C2516 1.378 . S
C2518 C2519 1.367 . S
C2519 C2518 1.367 . S
C2519 C2521 1.433 . S
C2520 C2516 1.350 . S
C2520 C2517 1.463 . S
C2520 N2524 1.427 . S
C2521 H2511 0.929 . S
C2521 C2519 1.433 . S
C2521 N2524 1.384 . S
C2522 H2513 0.929 . S
C2522 C2514 1.378 . S
C2522 C2517 1.350 . S
C2523 H2510 0.929 . S
C2523 C2515 1.433 . S
C2523 N2525 1.384 . S
N2524 C2520 1.427 . S
N2524 C2521 1.384 . S
N2525 C2517 1.427 . S
N2525 C2523 1.384 . S
H2526 C2532 0.930 . S
H2527 C2536 0.930 . S
H2528 C2541 0.929 . S
H2529 C2539 0.929 . S
H2530 C2534 0.929 . S
H2531 C2540 0.929 . S
C2532 H2526 0.930 . S
C2532 C2533 1.367 . S
C2532 C2540 1.378 . S
C2533 C2532 1.367 . S
C2533 C2541 1.433 . S
C2534 H2530 0.929 . S
C2534 C2536 1.378 . S
C2534 C2538 1.350 . S
C2535 C2538 1.463 . S
C2535 C2540 1.350 . S
C2535 N2543 1.427 . S
C2536 H2527 0.930 . S
C2536 C2534 1.378 . S
C2536 C2537 1.367 . S
C2537 C2536 1.367 . S
C2537 C2539 1.433 . S
C2538 C2534 1.350 . S
C2538 C2535 1.463 . S
C2538 N2542 1.427 . S
C2539 H2529 0.929 . S
C2539 C2537 1.433 . S
C2539 N2542 1.384 . S
C2540 H2531 0.929 . S
C2540 C2532 1.378 . S
C2540 C2535 1.350 . S
C2541 H2528 0.929 . S
C2541 C2533 1.433 . S
C2541 N2543 1.384 . S
N2542 C2538 1.427 . S
N2542 C2539 1.384 . S
N2543 C2535 1.427 . S
N2543 C2541 1.384 . S
H2544 C2550 0.930 . S
H2545 C2554 0.930 . S
H2546 C2559 0.929 . S
H2547 C2557 0.929 . S
H2548 C2552 0.929 . S
H2549 C2558 0.929 . S
C2550 H2544 0.930 . S
C2550 C2551 1.367 . S
C2550 C2558 1.378 . S
C2551 C2550 1.367 . S
C2551 C2559 1.433 . S
C2552 H2548 0.929 . S
C2552 C2554 1.378 . S
C2552 C2556 1.350 . S
C2553 C2556 1.463 1_455 S
C2553 C2558 1.350 . S
C2553 N2561 1.427 . S
C2554 H2545 0.930 . S
C2554 C2552 1.378 . S
C2554 C2555 1.367 . S
C2555 C2554 1.367 . S
C2555 C2557 1.433 . S
C2556 C2552 1.350 . S
C2556 C2553 1.463 1_655 S
C2556 N2560 1.427 . S
C2557 H2547 0.929 . S
C2557 C2555 1.433 . S
C2557 N2560 1.384 . S
C2558 H2549 0.929 . S
C2558 C2550 1.378 . S
C2558 C2553 1.350 . S
C2559 H2546 0.929 . S
C2559 C2551 1.433 . S
C2559 N2561 1.384 . S
N2560 C2556 1.427 . S
N2560 C2557 1.384 . S
N2561 C2553 1.427 . S
N2561 C2559 1.384 . S
H2562 C2568 0.930 . S
H2563 C2572 0.930 . S
H2564 C2577 0.929 . S
H2565 C2575 0.929 . S
H2566 C2570 0.929 . S
H2567 C2576 0.929 . S
C2568 H2562 0.930 . S
C2568 C2569 1.367 . S
C2568 C2576 1.378 . S
C2569 C2568 1.367 . S
C2569 C2577 1.433 . S
C2570 H2566 0.929 . S
C2570 C2572 1.378 . S
C2570 C2574 1.350 . S
C2571 C2574 1.463 1_545 S
C2571 C2576 1.350 . S
C2571 N2579 1.427 . S
C2572 H2563 0.930 . S
C2572 C2570 1.378 . S
C2572 C2573 1.367 . S
C2573 C2572 1.367 . S
C2573 C2575 1.433 . S
C2574 C2570 1.350 . S
C2574 C2571 1.463 1_565 S
C2574 N2578 1.427 . S
C2575 H2565 0.929 . S
C2575 C2573 1.433 . S
C2575 N2578 1.384 . S
C2576 H2567 0.929 . S
C2576 C2568 1.378 . S
C2576 C2571 1.350 . S
C2577 H2564 0.929 . S
C2577 C2569 1.433 . S
C2577 N2579 1.384 . S
N2578 C2574 1.427 . S
N2578 C2575 1.384 . S
N2579 C2571 1.427 . S
N2579 C2577 1.384 . S
H2580 C2586 0.930 . S
H2581 C2590 0.930 . S
H2582 C2595 0.929 . S
H2583 C2593 0.929 . S
H2584 C2588 0.929 . S
H2585 C2594 0.929 . S
C2586 H2580 0.930 . S
C2586 C2587 1.367 . S
C2586 C2594 1.378 . S
C2587 C2586 1.367 . S
C2587 C2595 1.433 . S
C2588 H2584 0.929 . S
C2588 C2590 1.378 . S
C2588 C2592 1.350 . S
C2589 C2592 1.463 1_655 S
C2589 C2594 1.350 . S
C2589 N2597 1.427 . S
C2590 H2581 0.930 . S
C2590 C2588 1.378 . S
C2590 C2591 1.367 . S
C2591 C2590 1.367 . S
C2591 C2593 1.433 . S
C2592 C2588 1.350 . S
C2592 C2589 1.463 1_455 S
C2592 N2596 1.427 . S
C2593 H2583 0.929 . S
C2593 C2591 1.433 . S
C2593 N2596 1.384 . S
C2594 H2585 0.929 . S
C2594 C2586 1.378 . S
C2594 C2589 1.350 . S
C2595 H2582 0.929 . S
C2595 C2587 1.433 . S
C2595 N2597 1.384 . S
N2596 C2592 1.427 . S
N2596 C2593 1.384 . S
N2597 C2589 1.427 . S
N2597 C2595 1.384 . S
H2598 C2604 0.930 . S
H2599 C2608 0.930 . S
H2600 C2613 0.929 . S
H2601 C2611 0.929 . S
H2602 C2606 0.929 . S
H2603 C2612 0.929 . S
C2604 H2598 0.930 . S
C2604 C2605 1.367 . S
C2604 C2612 1.378 . S
C2605 C2604 1.367 . S
C2605 C2613 1.433 . S
C2606 H2602 0.929 . S
C2606 C2608 1.378 . S
C2606 C2610 1.350 . S
C2607 C2610 1.463 1_545 S
C2607 C2612 1.350 . S
C2607 N2615 1.427 . S
C2608 H2599 0.930 . S
C2608 C2606 1.378 . S
C2608 C2609 1.367 . S
C2609 C2608 1.367 . S
C2609 C2611 1.433 . S
C2610 C2606 1.350 . S
C2610 C2607 1.463 1_565 S
C2610 N2614 1.427 . S
C2611 H2601 0.929 . S
C2611 C2609 1.433 . S
C2611 N2614 1.384 . S
C2612 H2603 0.929 . S
C2612 C2604 1.378 . S
C2612 C2607 1.350 . S
C2613 H2600 0.929 . S
C2613 C2605 1.433 . S
C2613 N2615 1.384 . S
N2614 C2610 1.427 . S
N2614 C2611 1.384 . S
N2615 C2607 1.427 . S
N2615 C2613 1.384 . S
H2616 C2622 0.930 . S
H2617 C2626 0.930 . S
H2618 C2631 0.929 . S
H2619 C2629 0.929 . S
H2620 C2624 0.929 . S
H2621 C2630 0.929 . S
C2622 H2616 0.930 . S
C2622 C2623 1.367 . S
C2622 C2630 1.378 . S
C2623 C2622 1.367 . S
C2623 C2631 1.433 . S
C2624 H2620 0.929 . S
C2624 C2626 1.378 . S
C2624 C2628 1.350 . S
C2625 C2628 1.463 1_565 S
C2625 C2630 1.350 . S
C2625 N2633 1.427 . S
C2626 H2617 0.930 . S
C2626 C2624 1.378 . S
C2626 C2627 1.367 . S
C2627 C2626 1.367 . S
C2627 C2629 1.433 . S
C2628 C2624 1.350 . S
C2628 C2625 1.463 1_545 S
C2628 N2632 1.427 . S
C2629 H2619 0.929 . S
C2629 C2627 1.433 . S
C2629 N2632 1.384 . S
C2630 H2621 0.929 . S
C2630 C2622 1.378 . S
C2630 C2625 1.350 . S
C2631 H2618 0.929 . S
C2631 C2623 1.433 . S
C2631 N2633 1.384 . S
N2632 C2628 1.427 . S
N2632 C2629 1.384 . S
N2633 C2625 1.427 . S
N2633 C2631 1.384 . S
H2634 C2640 0.930 . S
H2635 C2644 0.930 . S
H2636 C2649 0.929 . S
H2637 C2647 0.929 . S
H2638 C2642 0.929 . S
H2639 C2648 0.929 . S
C2640 H2634 0.930 . S
C2640 C2641 1.367 . S
C2640 C2648 1.378 . S
C2641 C2640 1.367 . S
C2641 C2649 1.433 . S
C2642 H2638 0.929 . S
C2642 C2644 1.378 . S
C2642 C2646 1.350 . S
C2643 C2646 1.463 1_655 S
C2643 C2648 1.350 . S
C2643 N2651 1.427 . S
C2644 H2635 0.930 . S
C2644 C2642 1.378 . S
C2644 C2645 1.367 . S
C2645 C2644 1.367 . S
C2645 C2647 1.433 . S
C2646 C2642 1.350 . S
C2646 C2643 1.463 1_455 S
C2646 N2650 1.427 . S
C2647 H2637 0.929 . S
C2647 C2645 1.433 . S
C2647 N2650 1.384 . S
C2648 H2639 0.929 . S
C2648 C2640 1.378 . S
C2648 C2643 1.350 . S
C2649 H2636 0.929 . S
C2649 C2641 1.433 . S
C2649 N2651 1.384 . S
N2650 C2646 1.427 . S
N2650 C2647 1.384 . S
N2651 C2643 1.427 . S
N2651 C2649 1.384 . S
H2652 C2658 0.930 . S
H2653 C2662 0.930 . S
H2654 C2667 0.929 . S
H2655 C2665 0.929 . S
H2656 C2660 0.929 . S
H2657 C2666 0.929 . S
C2658 H2652 0.930 . S
C2658 C2659 1.367 . S
C2658 C2666 1.378 . S
C2659 C2658 1.367 . S
C2659 C2667 1.433 . S
C2660 H2656 0.929 . S
C2660 C2662 1.378 . S
C2660 C2664 1.350 . S
C2661 C2664 1.463 1_565 S
C2661 C2666 1.350 . S
C2661 N2669 1.427 . S
C2662 H2653 0.930 . S
C2662 C2660 1.378 . S
C2662 C2663 1.367 . S
C2663 C2662 1.367 . S
C2663 C2665 1.433 . S
C2664 C2660 1.350 . S
C2664 C2661 1.463 1_545 S
C2664 N2668 1.427 . S
C2665 H2655 0.929 . S
C2665 C2663 1.433 . S
C2665 N2668 1.384 . S
C2666 H2657 0.929 . S
C2666 C2658 1.378 . S
C2666 C2661 1.350 . S
C2667 H2654 0.929 . S
C2667 C2659 1.433 . S
C2667 N2669 1.384 . S
N2668 C2664 1.427 . S
N2668 C2665 1.384 . S
N2669 C2661 1.427 . S
N2669 C2667 1.384 . S
H2670 C2676 0.930 . S
H2671 C2680 0.930 . S
H2672 C2685 0.929 . S
H2673 C2683 0.929 . S
H2674 C2678 0.929 . S
H2675 C2684 0.929 . S
C2676 H2670 0.930 . S
C2676 C2677 1.367 . S
C2676 C2684 1.378 . S
C2677 C2676 1.367 . S
C2677 C2685 1.433 . S
C2678 H2674 0.929 . S
C2678 C2680 1.378 . S
C2678 C2682 1.350 . S
C2679 C2682 1.463 1_655 S
C2679 C2684 1.350 . S
C2679 N2687 1.427 . S
C2680 H2671 0.930 . S
C2680 C2678 1.378 . S
C2680 C2681 1.367 . S
C2681 C2680 1.367 . S
C2681 C2683 1.433 . S
C2682 C2678 1.350 . S
C2682 C2679 1.463 1_455 S
C2682 N2686 1.427 . S
C2683 H2673 0.929 . S
C2683 C2681 1.433 . S
C2683 N2686 1.384 . S
C2684 H2675 0.929 . S
C2684 C2676 1.378 . S
C2684 C2679 1.350 . S
C2685 H2672 0.929 . S
C2685 C2677 1.433 . S
C2685 N2687 1.384 . S
N2686 C2682 1.427 . S
N2686 C2683 1.384 . S
N2687 C2679 1.427 . S
N2687 C2685 1.384 . S
H2688 C2694 0.930 . S
H2689 C2698 0.930 . S
H2690 C2703 0.929 . S
H2691 C2701 0.929 . S
H2692 C2696 0.929 . S
H2693 C2702 0.929 . S
C2694 H2688 0.930 . S
C2694 C2695 1.367 . S
C2694 C2702 1.378 . S
C2695 C2694 1.367 . S
C2695 C2703 1.433 . S
C2696 H2692 0.929 . S
C2696 C2698 1.378 . S
C2696 C2700 1.350 . S
C2697 C2700 1.463 1_556 S
C2697 C2702 1.350 . S
C2697 N2705 1.427 . S
C2698 H2689 0.930 . S
C2698 C2696 1.378 . S
C2698 C2699 1.367 . S
C2699 C2698 1.367 . S
C2699 C2701 1.433 . S
C2700 C2696 1.350 . S
C2700 C2697 1.463 1_554 S
C2700 N2704 1.427 . S
C2701 H2691 0.929 . S
C2701 C2699 1.433 . S
C2701 N2704 1.384 . S
C2702 H2693 0.929 . S
C2702 C2694 1.378 . S
C2702 C2697 1.350 . S
C2703 H2690 0.929 . S
C2703 C2695 1.433 . S
C2703 N2705 1.384 . S
N2704 C2700 1.427 . S
N2704 C2701 1.384 . S
N2705 C2697 1.427 . S
N2705 C2703 1.384 . S
H2706 C2712 0.930 . S
H2707 C2716 0.930 . S
H2708 C2721 0.929 . S
H2709 C2719 0.929 . S
H2710 C2714 0.929 . S
H2711 C2720 0.929 . S
C2712 H2706 0.930 . S
C2712 C2713 1.367 . S
C2712 C2720 1.378 . S
C2713 C2712 1.367 . S
C2713 C2721 1.433 . S
C2714 H2710 0.929 . S
C2714 C2716 1.378 . S
C2714 C2718 1.350 . S
C2715 C2718 1.463 1_556 S
C2715 C2720 1.350 . S
C2715 N2723 1.427 . S
C2716 H2707 0.930 . S
C2716 C2714 1.378 . S
C2716 C2717 1.367 . S
C2717 C2716 1.367 . S
C2717 C2719 1.433 . S
C2718 C2714 1.350 . S
C2718 C2715 1.463 1_554 S
C2718 N2722 1.427 . S
C2719 H2709 0.929 . S
C2719 C2717 1.433 . S
C2719 N2722 1.384 . S
C2720 H2711 0.929 . S
C2720 C2712 1.378 . S
C2720 C2715 1.350 . S
C2721 H2708 0.929 . S
C2721 C2713 1.433 . S
C2721 N2723 1.384 . S
N2722 C2718 1.427 . S
N2722 C2719 1.384 . S
N2723 C2715 1.427 . S
N2723 C2721 1.384 . S
H2724 C2730 0.930 . S
H2725 C2734 0.930 . S
H2726 C2739 0.929 . S
H2727 C2737 0.929 . S
H2728 C2732 0.929 . S
H2729 C2738 0.929 . S
C2730 H2724 0.930 . S
C2730 C2731 1.367 . S
C2730 C2738 1.378 . S
C2731 C2730 1.367 . S
C2731 C2739 1.433 . S
C2732 H2728 0.929 . S
C2732 C2734 1.378 . S
C2732 C2736 1.350 . S
C2733 C2736 1.463 1_556 S
C2733 C2738 1.350 . S
C2733 N2741 1.427 . S
C2734 H2725 0.930 . S
C2734 C2732 1.378 . S
C2734 C2735 1.367 . S
C2735 C2734 1.367 . S
C2735 C2737 1.433 . S
C2736 C2732 1.350 . S
C2736 C2733 1.463 1_554 S
C2736 N2740 1.427 . S
C2737 H2727 0.929 . S
C2737 C2735 1.433 . S
C2737 N2740 1.384 . S
C2738 H2729 0.929 . S
C2738 C2730 1.378 . S
C2738 C2733 1.350 . S
C2739 H2726 0.929 . S
C2739 C2731 1.433 . S
C2739 N2741 1.384 . S
N2740 C2736 1.427 . S
N2740 C2737 1.384 . S
N2741 C2733 1.427 . S
N2741 C2739 1.384 . S
H2742 C2748 0.930 . S
H2743 C2752 0.930 . S
H2744 C2757 0.929 . S
H2745 C2755 0.929 . S
H2746 C2750 0.929 . S
H2747 C2756 0.929 . S
C2748 H2742 0.930 . S
C2748 C2749 1.367 . S
C2748 C2756 1.378 . S
C2749 C2748 1.367 . S
C2749 C2757 1.433 . S
C2750 H2746 0.929 . S
C2750 C2752 1.378 . S
C2750 C2754 1.350 . S
C2751 C2754 1.463 1_556 S
C2751 C2756 1.350 . S
C2751 N2759 1.427 . S
C2752 H2743 0.930 . S
C2752 C2750 1.378 . S
C2752 C2753 1.367 . S
C2753 C2752 1.367 . S
C2753 C2755 1.433 . S
C2754 C2750 1.350 . S
C2754 C2751 1.463 1_554 S
C2754 N2758 1.427 . S
C2755 H2745 0.929 . S
C2755 C2753 1.433 . S
C2755 N2758 1.384 . S
C2756 H2747 0.929 . S
C2756 C2748 1.378 . S
C2756 C2751 1.350 . S
C2757 H2744 0.929 . S
C2757 C2749 1.433 . S
C2757 N2759 1.384 . S
N2758 C2754 1.427 . S
N2758 C2755 1.384 . S
N2759 C2751 1.427 . S
N2759 C2757 1.384 . S
H2760 C2766 0.930 . S
H2761 C2770 0.930 . S
H2762 C2775 0.929 . S
H2763 C2773 0.929 . S
H2764 C2768 0.929 . S
H2765 C2774 0.929 . S
C2766 H2760 0.930 . S
C2766 C2767 1.367 . S
C2766 C2774 1.378 . S
C2767 C2766 1.367 . S
C2767 C2775 1.433 . S
C2768 H2764 0.929 . S
C2768 C2770 1.378 . S
C2768 C2772 1.350 . S
C2769 C2772 1.463 . S
C2769 C2774 1.350 . S
C2769 N2777 1.427 . S
C2770 H2761 0.930 . S
C2770 C2768 1.378 . S
C2770 C2771 1.367 . S
C2771 C2770 1.367 . S
C2771 C2773 1.433 . S
C2772 C2768 1.350 . S
C2772 C2769 1.463 . S
C2772 N2776 1.427 . S
C2773 H2763 0.929 . S
C2773 C2771 1.433 . S
C2773 N2776 1.384 . S
C2774 H2765 0.929 . S
C2774 C2766 1.378 . S
C2774 C2769 1.350 . S
C2775 H2762 0.929 . S
C2775 C2767 1.433 . S
C2775 N2777 1.384 . S
N2776 C2772 1.427 . S
N2776 C2773 1.384 . S
N2777 C2769 1.427 . S
N2777 C2775 1.384 . S
H2778 C2784 0.930 . S
H2779 C2788 0.930 . S
H2780 C2793 0.929 . S
H2781 C2791 0.929 . S
H2782 C2786 0.929 . S
H2783 C2792 0.929 . S
C2784 H2778 0.930 . S
C2784 C2785 1.367 . S
C2784 C2792 1.378 . S
C2785 C2784 1.367 . S
C2785 C2793 1.433 . S
C2786 H2782 0.929 . S
C2786 C2788 1.378 . S
C2786 C2790 1.350 . S
C2787 C2790 1.463 . S
C2787 C2792 1.350 . S
C2787 N2795 1.427 . S
C2788 H2779 0.930 . S
C2788 C2786 1.378 . S
C2788 C2789 1.367 . S
C2789 C2788 1.367 . S
C2789 C2791 1.433 . S
C2790 C2786 1.350 . S
C2790 C2787 1.463 . S
C2790 N2794 1.427 . S
C2791 H2781 0.929 . S
C2791 C2789 1.433 . S
C2791 N2794 1.384 . S
C2792 H2783 0.929 . S
C2792 C2784 1.378 . S
C2792 C2787 1.350 . S
C2793 H2780 0.929 . S
C2793 C2785 1.433 . S
C2793 N2795 1.384 . S
N2794 C2790 1.427 . S
N2794 C2791 1.384 . S
N2795 C2787 1.427 . S
N2795 C2793 1.384 . S
H2796 C2802 0.930 . S
H2797 C2806 0.930 . S
H2798 C2811 0.929 . S
H2799 C2809 0.929 . S
H2800 C2804 0.929 . S
H2801 C2810 0.929 . S
C2802 H2796 0.930 . S
C2802 C2803 1.367 . S
C2802 C2810 1.378 . S
C2803 C2802 1.367 . S
C2803 C2811 1.433 . S
C2804 H2800 0.929 . S
C2804 C2806 1.378 . S
C2804 C2808 1.350 . S
C2805 C2808 1.463 . S
C2805 C2810 1.350 . S
C2805 N2813 1.427 . S
C2806 H2797 0.930 . S
C2806 C2804 1.378 . S
C2806 C2807 1.367 . S
C2807 C2806 1.367 . S
C2807 C2809 1.433 . S
C2808 C2804 1.350 . S
C2808 C2805 1.463 . S
C2808 N2812 1.427 . S
C2809 H2799 0.929 . S
C2809 C2807 1.433 . S
C2809 N2812 1.384 . S
C2810 H2801 0.929 . S
C2810 C2802 1.378 . S
C2810 C2805 1.350 . S
C2811 H2798 0.929 . S
C2811 C2803 1.433 . S
C2811 N2813 1.384 . S
N2812 C2808 1.427 . S
N2812 C2809 1.384 . S
N2813 C2805 1.427 . S
N2813 C2811 1.384 . S
H2814 C2820 0.930 . S
H2815 C2824 0.930 . S
H2816 C2829 0.929 . S
H2817 C2827 0.929 . S
H2818 C2822 0.929 . S
H2819 C2828 0.929 . S
C2820 H2814 0.930 . S
C2820 C2821 1.367 . S
C2820 C2828 1.378 . S
C2821 C2820 1.367 . S
C2821 C2829 1.433 . S
C2822 H2818 0.929 . S
C2822 C2824 1.378 . S
C2822 C2826 1.350 . S
C2823 C2826 1.463 . S
C2823 C2828 1.350 . S
C2823 N2831 1.427 . S
C2824 H2815 0.930 . S
C2824 C2822 1.378 . S
C2824 C2825 1.367 . S
C2825 C2824 1.367 . S
C2825 C2827 1.433 . S
C2826 C2822 1.350 . S
C2826 C2823 1.463 . S
C2826 N2830 1.427 . S
C2827 H2817 0.929 . S
C2827 C2825 1.433 . S
C2827 N2830 1.384 . S
C2828 H2819 0.929 . S
C2828 C2820 1.378 . S
C2828 C2823 1.350 . S
C2829 H2816 0.929 . S
C2829 C2821 1.433 . S
C2829 N2831 1.384 . S
N2830 C2826 1.427 . S
N2830 C2827 1.384 . S
N2831 C2823 1.427 . S
N2831 C2829 1.384 . S
H2832 C2838 0.930 . S
H2833 C2842 0.930 . S
H2834 C2847 0.929 . S
H2835 C2845 0.929 . S
H2836 C2840 0.929 . S
H2837 C2846 0.929 . S
C2838 H2832 0.930 . S
C2838 C2839 1.367 . S
C2838 C2846 1.378 . S
C2839 C2838 1.367 . S
C2839 C2847 1.433 . S
C2840 H2836 0.929 . S
C2840 C2842 1.378 . S
C2840 C2844 1.350 . S
C2841 C2844 1.463 . S
C2841 C2846 1.350 . S
C2841 N2849 1.427 . S
C2842 H2833 0.930 . S
C2842 C2840 1.378 . S
C2842 C2843 1.367 . S
C2843 C2842 1.367 . S
C2843 C2845 1.433 . S
C2844 C2840 1.350 . S
C2844 C2841 1.463 . S
C2844 N2848 1.427 . S
C2845 H2835 0.929 . S
C2845 C2843 1.433 . S
C2845 N2848 1.384 . S
C2846 H2837 0.929 . S
C2846 C2838 1.378 . S
C2846 C2841 1.350 . S
C2847 H2834 0.929 . S
C2847 C2839 1.433 . S
C2847 N2849 1.384 . S
N2848 C2844 1.427 . S
N2848 C2845 1.384 . S
N2849 C2841 1.427 . S
N2849 C2847 1.384 . S
H2850 C2856 0.930 . S
H2851 C2860 0.930 . S
H2852 C2865 0.929 . S
H2853 C2863 0.929 . S
H2854 C2858 0.929 . S
H2855 C2864 0.929 . S
C2856 H2850 0.930 . S
C2856 C2857 1.367 . S
C2856 C2864 1.378 . S
C2857 C2856 1.367 . S
C2857 C2865 1.433 . S
C2858 H2854 0.929 . S
C2858 C2860 1.378 . S
C2858 C2862 1.350 . S
C2859 C2862 1.463 . S
C2859 C2864 1.350 . S
C2859 N2867 1.427 . S
C2860 H2851 0.930 . S
C2860 C2858 1.378 . S
C2860 C2861 1.367 . S
C2861 C2860 1.367 . S
C2861 C2863 1.433 . S
C2862 C2858 1.350 . S
C2862 C2859 1.463 . S
C2862 N2866 1.427 . S
C2863 H2853 0.929 . S
C2863 C2861 1.433 . S
C2863 N2866 1.384 . S
C2864 H2855 0.929 . S
C2864 C2856 1.378 . S
C2864 C2859 1.350 . S
C2865 H2852 0.929 . S
C2865 C2857 1.433 . S
C2865 N2867 1.384 . S
N2866 C2862 1.427 . S
N2866 C2863 1.384 . S
N2867 C2859 1.427 . S
N2867 C2865 1.384 . S
H2868 C2874 0.930 . S
H2869 C2878 0.930 . S
H2870 C2883 0.929 . S
H2871 C2881 0.929 . S
H2872 C2876 0.929 . S
H2873 C2882 0.929 . S
C2874 H2868 0.930 . S
C2874 C2875 1.367 . S
C2874 C2882 1.378 . S
C2875 C2874 1.367 . S
C2875 C2883 1.433 . S
C2876 H2872 0.929 . S
C2876 C2878 1.378 . S
C2876 C2880 1.350 . S
C2877 C2880 1.463 . S
C2877 C2882 1.350 . S
C2877 N2885 1.427 . S
C2878 H2869 0.930 . S
C2878 C2876 1.378 . S
C2878 C2879 1.367 . S
C2879 C2878 1.367 . S
C2879 C2881 1.433 . S
C2880 C2876 1.350 . S
C2880 C2877 1.463 . S
C2880 N2884 1.427 . S
C2881 H2871 0.929 . S
C2881 C2879 1.433 . S
C2881 N2884 1.384 . S
C2882 H2873 0.929 . S
C2882 C2874 1.378 . S
C2882 C2877 1.350 . S
C2883 H2870 0.929 . S
C2883 C2875 1.433 . S
C2883 N2885 1.384 . S
N2884 C2880 1.427 . S
N2884 C2881 1.384 . S
N2885 C2877 1.427 . S
N2885 C2883 1.384 . S
H2886 C2892 0.930 . S
H2887 C2896 0.930 . S
H2888 C2901 0.929 . S
H2889 C2899 0.929 . S
H2890 C2894 0.929 . S
H2891 C2900 0.929 . S
C2892 H2886 0.930 . S
C2892 C2893 1.367 . S
C2892 C2900 1.378 . S
C2893 C2892 1.367 . S
C2893 C2901 1.433 . S
C2894 H2890 0.929 . S
C2894 C2896 1.378 . S
C2894 C2898 1.350 . S
C2895 C2898 1.463 . S
C2895 C2900 1.350 . S
C2895 N2903 1.427 . S
C2896 H2887 0.930 . S
C2896 C2894 1.378 . S
C2896 C2897 1.367 . S
C2897 C2896 1.367 . S
C2897 C2899 1.433 . S
C2898 C2894 1.350 . S
C2898 C2895 1.463 . S
C2898 N2902 1.427 . S
C2899 H2889 0.929 . S
C2899 C2897 1.433 . S
C2899 N2902 1.384 . S
C2900 H2891 0.929 . S
C2900 C2892 1.378 . S
C2900 C2895 1.350 . S
C2901 H2888 0.929 . S
C2901 C2893 1.433 . S
C2901 N2903 1.384 . S
N2902 C2898 1.427 . S
N2902 C2899 1.384 . S
N2903 C2895 1.427 . S
N2903 C2901 1.384 . S
H2904 C2910 0.930 . S
H2905 C2914 0.930 . S
H2906 C2919 0.929 . S
H2907 C2917 0.929 . S
H2908 C2912 0.929 . S
H2909 C2918 0.929 . S
C2910 H2904 0.930 . S
C2910 C2911 1.367 . S
C2910 C2918 1.378 . S
C2911 C2910 1.367 . S
C2911 C2919 1.433 . S
C2912 H2908 0.929 . S
C2912 C2914 1.378 . S
C2912 C2916 1.350 . S
C2913 C2916 1.463 . S
C2913 C2918 1.350 . S
C2913 N2921 1.427 . S
C2914 H2905 0.930 . S
C2914 C2912 1.378 . S
C2914 C2915 1.367 . S
C2915 C2914 1.367 . S
C2915 C2917 1.433 . S
C2916 C2912 1.350 . S
C2916 C2913 1.463 . S
C2916 N2920 1.427 . S
C2917 H2907 0.929 . S
C2917 C2915 1.433 . S
C2917 N2920 1.384 . S
C2918 H2909 0.929 . S
C2918 C2910 1.378 . S
C2918 C2913 1.350 . S
C2919 H2906 0.929 . S
C2919 C2911 1.433 . S
C2919 N2921 1.384 . S
N2920 C2916 1.427 . S
N2920 C2917 1.384 . S
N2921 C2913 1.427 . S
N2921 C2919 1.384 . S
H2922 C2928 0.930 . S
H2923 C2932 0.930 . S
H2924 C2937 0.929 . S
H2925 C2935 0.929 . S
H2926 C2930 0.929 . S
H2927 C2936 0.929 . S
C2928 H2922 0.930 . S
C2928 C2929 1.367 . S
C2928 C2936 1.378 . S
C2929 C2928 1.367 . S
C2929 C2937 1.433 . S
C2930 H2926 0.929 . S
C2930 C2932 1.378 . S
C2930 C2934 1.350 . S
C2931 C2934 1.463 . S
C2931 C2936 1.350 . S
C2931 N2939 1.427 . S
C2932 H2923 0.930 . S
C2932 C2930 1.378 . S
C2932 C2933 1.367 . S
C2933 C2932 1.367 . S
C2933 C2935 1.433 . S
C2934 C2930 1.350 . S
C2934 C2931 1.463 . S
C2934 N2938 1.427 . S
C2935 H2925 0.929 . S
C2935 C2933 1.433 . S
C2935 N2938 1.384 . S
C2936 H2927 0.929 . S
C2936 C2928 1.378 . S
C2936 C2931 1.350 . S
C2937 H2924 0.929 . S
C2937 C2929 1.433 . S
C2937 N2939 1.384 . S
N2938 C2934 1.427 . S
N2938 C2935 1.384 . S
N2939 C2931 1.427 . S
N2939 C2937 1.384 . S
H2940 C2946 0.930 . S
H2941 C2950 0.930 . S
H2942 C2955 0.929 . S
H2943 C2953 0.929 . S
H2944 C2948 0.929 . S
H2945 C2954 0.929 . S
C2946 H2940 0.930 . S
C2946 C2947 1.367 . S
C2946 C2954 1.378 . S
C2947 C2946 1.367 . S
C2947 C2955 1.433 . S
C2948 H2944 0.929 . S
C2948 C2950 1.378 . S
C2948 C2952 1.350 . S
C2949 C2952 1.463 . S
C2949 C2954 1.350 . S
C2949 N2957 1.427 . S
C2950 H2941 0.930 . S
C2950 C2948 1.378 . S
C2950 C2951 1.367 . S
C2951 C2950 1.367 . S
C2951 C2953 1.433 . S
C2952 C2948 1.350 . S
C2952 C2949 1.463 . S
C2952 N2956 1.427 . S
C2953 H2943 0.929 . S
C2953 C2951 1.433 . S
C2953 N2956 1.384 . S
C2954 H2945 0.929 . S
C2954 C2946 1.378 . S
C2954 C2949 1.350 . S
C2955 H2942 0.929 . S
C2955 C2947 1.433 . S
C2955 N2957 1.384 . S
N2956 C2952 1.427 . S
N2956 C2953 1.384 . S
N2957 C2949 1.427 . S
N2957 C2955 1.384 . S
H2958 C2964 0.930 . S
H2959 C2968 0.930 . S
H2960 C2973 0.929 . S
H2961 C2971 0.929 . S
H2962 C2966 0.929 . S
H2963 C2972 0.929 . S
C2964 H2958 0.930 . S
C2964 C2965 1.367 . S
C2964 C2972 1.378 . S
C2965 C2964 1.367 . S
C2965 C2973 1.433 . S
C2966 H2962 0.929 . S
C2966 C2968 1.378 . S
C2966 C2970 1.350 . S
C2967 C2970 1.463 . S
C2967 C2972 1.350 . S
C2967 N2975 1.427 . S
C2968 H2959 0.930 . S
C2968 C2966 1.378 . S
C2968 C2969 1.367 . S
C2969 C2968 1.367 . S
C2969 C2971 1.433 . S
C2970 C2966 1.350 . S
C2970 C2967 1.463 . S
C2970 N2974 1.427 . S
C2971 H2961 0.929 . S
C2971 C2969 1.433 . S
C2971 N2974 1.384 . S
C2972 H2963 0.929 . S
C2972 C2964 1.378 . S
C2972 C2967 1.350 . S
C2973 H2960 0.929 . S
C2973 C2965 1.433 . S
C2973 N2975 1.384 . S
N2974 C2970 1.427 . S
N2974 C2971 1.384 . S
N2975 C2967 1.427 . S
N2975 C2973 1.384 . S
C2119 C1017 1.546 . S
C2123 C49 1.546 . S
C2137 C145 1.547 . S
C2141 C733 1.546 . S
C2155 C233 1.544 . S
C2159 C812 1.549 . S
C2173 C313 1.547 . S
C2177 C929 1.545 . S
C2191 C1164 1.546 . S
C2195 C381 1.547 . S
C2209 C460 1.542 . S
C2213 C1261 1.551 . S
C2227 C1369 1.544 . S
C2231 C557 1.549 . S
C2245 C1105 1.547 . S
C2249 C645 1.546 . S
C2263 C489 1.545 . S
C2267 C761 1.548 . S
C2281 C585 1.547 . S
C2285 C841 1.545 . S
C2299 C900 1.549 . S
C2303 C673 1.544 . S
C2317 C409 1.551 . S
C2321 C988 1.541 . S
C2335 C284 1.548 . S
C2339 C1076 1.545 . S
C2353 C1193 1.545 . S
C2357 C20 1.547 . S
C2371 C1289 1.542 . S
C2375 C117 1.551 . S
C2389 C1340 1.546 . S
C2393 C205 1.547 . S
C2407 C1457 1.549 . S
C2411 C2044 1.545 . S
C2425 C1817 1.546 . S
C2429 C1516 1.547 . S
C2443 C1604 1.549 . S
C2447 C1545 1.544 . S
C2461 C1701 1.542 . S
C2465 C1633 1.551 . S
C2479 C1729 1.544 . S
C2483 C1789 1.549 . S
C2497 C1905 1.548 . S
C2501 C1965 1.545 . S
C2515 C1428 1.549 . S
C2519 C1993 1.543 . S
C2533 C1877 1.551 . S
C2537 C2073 1.542 . S
C2551 C57 1.334 . S
C2555 C548 1.342 . S
C2569 C137 1.334 . S
C2573 C636 1.342 . S
C2587 C225 1.335 . S
C2591 C372 1.340 . S
C2605 C469 1.333 . S
C2609 C321 1.343 . S
C2623 C909 1.333 . S
C2627 C753 1.343 . S
C2641 C849 1.343 . S
C2645 C997 1.333 . S
C2659 C1085 1.343 . S
C2663 C1281 1.333 . S
C2677 C1349 1.338 . S
C2681 C1201 1.338 . S
C2695 C1525 1.342 . S
C2699 C1465 1.334 . S
C2713 C1613 1.335 . S
C2717 C2081 1.341 . S
C2731 C1692 1.333 . S
C2735 C1897 1.343 . S
C2749 C1780 1.334 . S
C2753 C1985 1.342 . S
C2767 C29 0.553 . S
C2771 C497 0.551 . S
C2785 C108 0.552 . S
C2789 C577 0.553 . S
C2803 C196 0.551 . S
C2807 C665 0.554 . S
C2821 C401 0.550 . S
C2825 C293 0.552 . S
C2839 C724 0.549 . S
C2843 C2053 0.554 . S
C2857 C821 0.553 . S
C2861 C1868 0.550 . S
C2875 C1956 0.554 . S
C2879 C937 0.550 . S
C2893 C1025 0.552 . S
C2897 C1437 0.553 . S
C2911 C1809 0.549 . S
C2915 C1113 0.554 . S
C2929 C1553 0.551 . S
C2933 C1173 0.554 . S
C2947 C1252 0.549 . S
C2951 C1641 0.553 . S
C2965 C1721 0.549 . S
C2969 C1377 0.554 . S
