# Generated by pormake.
# Topology uol, (4)-cn, num edge types: 1
# Building blocks:
#     Node 0, Type 0, BuildingBlock: ICAMEG_clean_sbu_1, # of connection points: 4
#     Node 1, Type 0, BuildingBlock: ICAMEG_clean_sbu_1, # of connection points: 4
#     Node 2, Type 0, BuildingBlock: ICAMEG_clean_sbu_1, # of connection points: 4
#     Node 3, Type 0, BuildingBlock: ICAMEG_clean_sbu_1, # of connection points: 4
#     Node 4, Type 0, BuildingBlock: ICAMEG_clean_sbu_1, # of connection points: 4
#     Node 5, Type 0, BuildingBlock: ICAMEG_clean_sbu_1, # of connection points: 4
#     Node 6, Type 0, BuildingBlock: ICAMEG_clean_sbu_1, # of connection points: 4
#     Node 7, Type 0, BuildingBlock: ICAMEG_clean_sbu_1, # of connection points: 4
#     Node 8, Type 0, BuildingBlock: ICAMEG_clean_sbu_1, # of connection points: 4
#     Node 9, Type 0, BuildingBlock: ICAMEG_clean_sbu_1, # of connection points: 4
#     Node 10, Type 0, BuildingBlock: ICAMEG_clean_sbu_1, # of connection points: 4
#     Node 11, Type 0, BuildingBlock: ICAMEG_clean_sbu_1, # of connection points: 4
#     Edge 12, Type (0, 0), BuildingBlock: EZIPEK_clean_linker_0, # of connection points: 2
#     Edge 13, Type (0, 0), BuildingBlock: EZIPEK_clean_linker_0, # of connection points: 2
#     Edge 14, Type (0, 0), BuildingBlock: EZIPEK_clean_linker_0, # of connection points: 2
#     Edge 15, Type (0, 0), BuildingBlock: EZIPEK_clean_linker_0, # of connection points: 2
#     Edge 16, Type (0, 0), BuildingBlock: EZIPEK_clean_linker_0, # of connection points: 2
#     Edge 17, Type (0, 0), BuildingBlock: EZIPEK_clean_linker_0, # of connection points: 2
#     Edge 18, Type (0, 0), BuildingBlock: EZIPEK_clean_linker_0, # of connection points: 2
#     Edge 19, Type (0, 0), BuildingBlock: EZIPEK_clean_linker_0, # of connection points: 2
#     Edge 20, Type (0, 0), BuildingBlock: EZIPEK_clean_linker_0, # of connection points: 2
#     Edge 21, Type (0, 0), BuildingBlock: EZIPEK_clean_linker_0, # of connection points: 2
#     Edge 22, Type (0, 0), BuildingBlock: EZIPEK_clean_linker_0, # of connection points: 2
#     Edge 23, Type (0, 0), BuildingBlock: EZIPEK_clean_linker_0, # of connection points: 2
#     Edge 24, Type (0, 0), BuildingBlock: EZIPEK_clean_linker_0, # of connection points: 2
#     Edge 25, Type (0, 0), BuildingBlock: EZIPEK_clean_linker_0, # of connection points: 2
#     Edge 26, Type (0, 0), BuildingBlock: EZIPEK_clean_linker_0, # of connection points: 2
#     Edge 27, Type (0, 0), BuildingBlock: EZIPEK_clean_linker_0, # of connection points: 2
#     Edge 28, Type (0, 0), BuildingBlock: EZIPEK_clean_linker_0, # of connection points: 2
#     Edge 29, Type (0, 0), BuildingBlock: EZIPEK_clean_linker_0, # of connection points: 2
#     Edge 30, Type (0, 0), BuildingBlock: EZIPEK_clean_linker_0, # of connection points: 2
#     Edge 31, Type (0, 0), BuildingBlock: EZIPEK_clean_linker_0, # of connection points: 2
#     Edge 32, Type (0, 0), BuildingBlock: EZIPEK_clean_linker_0, # of connection points: 2
#     Edge 33, Type (0, 0), BuildingBlock: EZIPEK_clean_linker_0, # of connection points: 2
#     Edge 34, Type (0, 0), BuildingBlock: EZIPEK_clean_linker_0, # of connection points: 2
#     Edge 35, Type (0, 0), BuildingBlock: EZIPEK_clean_linker_0, # of connection points: 2
# Relax obj value: 0.048
# Max RMSD: 0.110
# Mean RMSD: 0.110
data_MOF--net-uol--node1-ICAMEG_clean_sbu_1--edge1-EZIPEK_clean_linker_0
_symmetry_space_group_name_H-M    P1
_symmetry_Int_Tables_number       1
_symmetry_cell_setting            triclinic
loop_
_symmetry_equiv_pos_as_xyz
'x, y, z'
_cell_length_a     26.169538
_cell_length_b     26.176151
_cell_length_c     53.672083
_cell_angle_alpha  89.898042
_cell_angle_beta   90.054539
_cell_angle_gamma 120.0855
loop_
_atom_site_label
_atom_site_type_symbol
_atom_site_fract_x
_atom_site_fract_y
_atom_site_fract_z
_atom_type_partial_charge
Co0 Co 0.04582 0.25756 0.11551 0.0
Co1 Co 0.17496 0.38702 0.13078 0.0
O2 O 0.08861 0.33776 0.12927 0.0
C3 C 0.99705 0.24706 0.16661 0.0
O4 O 0.05014 0.28562 0.17441 0.0
C5 C 0.1335 0.46057 0.10476 0.0
O6 O 0.0918 0.41112 0.09512 0.0
O7 O 0.18294 0.36903 0.09548 0.0
O8 O 0.10243 0.28245 0.08652 0.0
H9 H 0.38323 0.43171 0.11683 0.0
H10 H 0.98586 0.32471 0.12801 0.0
O11 O 0.98809 0.23116 0.14388 0.0
H12 H 0.93185 0.26303 0.04069 0.0
H13 H 0.86503 0.06194 0.09583 0.0
H14 H 0.08236 0.17891 0.09162 0.0
H15 H 0.99379 0.23347 0.06425 0.0
H16 H 0.91836 0.1641 0.11158 0.0
O17 O 0.17099 0.45907 0.11954 0.0
H18 H 0.27471 0.37047 0.11572 0.0
H19 H 0.25846 0.50904 0.14867 0.0
H20 H 0.03065 0.07721 0.0753 0.0
H21 H 0.92262 0.35415 0.10542 0.0
H22 H 0.92121 0.01795 0.0774 0.0
H23 H 0.89575 0.32387 0.06131 0.0
O24 O 0.096 0.23381 0.13459 0.0
H25 H 0.08665 0.44079 0.20214 0.0
H26 H 0.23528 0.38701 0.17792 0.0
H27 H 0.22519 0.40597 0.22213 0.0
H28 H 0.15066 0.43341 0.23447 0.0
H29 H 0.09748 0.42025 0.1582 0.0
H30 H 0.36692 0.57205 0.14997 0.0
H31 H 0.43006 0.53336 0.13404 0.0
O32 O 0.18194 0.31756 0.14179 0.0
C33 C 0.15306 0.32627 0.08063 0.0
C34 C 0.35622 0.44901 0.12391 0.0
C35 C 0.34704 0.5278 0.14246 0.0
N36 N 0.26028 0.43597 0.13227 0.0
C37 C 0.29472 0.41443 0.12342 0.0
C38 C 0.28566 0.49198 0.14162 0.0
C39 C 0.38245 0.50606 0.13353 0.0
C40 C 0.97449 0.31142 0.10881 0.0
N41 N 0.99556 0.27934 0.09712 0.0
C42 C 0.93861 0.32821 0.09612 0.0
C43 C 0.92358 0.31124 0.07138 0.0
C44 C 0.94401 0.27732 0.05977 0.0
C45 C 0.97987 0.26145 0.07306 0.0
C46 C 0.91272 0.08739 0.09475 0.0
C47 C 0.03468 0.1537 0.09233 0.0
C48 C 0.94322 0.14523 0.10372 0.0
N49 N 0.00346 0.17777 0.10229 0.0
C50 C 0.00567 0.096 0.08317 0.0
C51 C 0.94427 0.06273 0.0844 0.0
C52 C 0.14878 0.26158 0.1428 0.0
C53 C 0.11969 0.42944 0.19697 0.0
C54 C 0.20284 0.39908 0.18312 0.0
C55 C 0.19732 0.40974 0.2082 0.0
C56 C 0.1555 0.42514 0.21511 0.0
N57 N 0.16795 0.40398 0.1654 0.0
C58 C 0.12638 0.41832 0.17209 0.0
Co59 Co 0.78928 0.04743 0.28085 0.0
Co60 Co 0.78552 0.17635 0.29301 0.0
O61 O 0.75039 0.09 0.29346 0.0
C62 C 0.75753 0.00733 0.33375 0.0
O63 O 0.76659 0.05964 0.33984 0.0
C64 C 0.6673 0.12881 0.26797 0.0
O65 O 0.66845 0.08046 0.26289 0.0
O66 O 0.81339 0.18105 0.25815 0.0
O67 O 0.81421 0.09757 0.24993 0.0
H68 H 0.94762 0.3841 0.27624 0.0
H69 H 0.66392 0.98444 0.29657 0.0
O70 O 0.76502 0.99589 0.31144 0.0
H71 H 0.66294 0.91717 0.2108 0.0
H72 H 0.81037 0.86833 0.26706 0.0
H73 H 0.90061 0.08257 0.2534 0.0
H74 H 0.75651 0.98726 0.23135 0.0
H75 H 0.76053 0.92139 0.28173 0.0
O76 O 0.71007 0.17042 0.2799 0.0
H77 H 0.90186 0.27572 0.27754 0.0
H78 H 0.74431 0.26003 0.30737 0.0
H79 H 0.95163 0.03121 0.2382 0.0
H80 H 0.56931 0.91298 0.27711 0.0
H81 H 0.90661 0.92326 0.24507 0.0
H82 H 0.56835 0.87937 0.23377 0.0
O83 O 0.86554 0.10404 0.29736 0.0
H84 H 0.63969 0.09067 0.3634 0.0
H85 H 0.84149 0.24315 0.33961 0.0
H86 H 0.80964 0.23592 0.38334 0.0
H87 H 0.70804 0.15931 0.39547 0.0
H88 H 0.67361 0.09917 0.31993 0.0
H89 H 0.78822 0.36822 0.30623 0.0
H90 H 0.89067 0.43105 0.29065 0.0
O91 O 0.86165 0.18625 0.30577 0.0
C92 C 0.82229 0.14819 0.2434 0.0
C93 C 0.90302 0.35722 0.28315 0.0
C94 C 0.81351 0.34829 0.29993 0.0
N95 N 0.82059 0.26158 0.29265 0.0
C96 C 0.87693 0.29583 0.28401 0.0
C97 C 0.78881 0.28703 0.30046 0.0
C98 C 0.87101 0.38352 0.2912 0.0
C99 C 0.66389 0.96973 0.2778 0.0
N100 N 0.71561 0.99122 0.26489 0.0
C101 C 0.61015 0.92939 0.26683 0.0
C102 C 0.60964 0.91061 0.24251 0.0
C103 C 0.66266 0.93196 0.22959 0.0
C104 C 0.7155 0.97225 0.24119 0.0
C105 C 0.83051 0.9154 0.264 0.0
C106 C 0.88056 0.03567 0.2564 0.0
C107 C 0.80263 0.9458 0.27239 0.0
N108 N 0.82767 0.00524 0.26851 0.0
C109 C 0.90973 0.00677 0.24777 0.0
C110 C 0.88446 0.94622 0.25164 0.0
C111 C 0.88792 0.15637 0.30592 0.0
C112 C 0.68393 0.12454 0.35831 0.0
C113 C 0.79705 0.20997 0.3447 0.0
C114 C 0.77931 0.20602 0.3695 0.0
C115 C 0.72232 0.16299 0.37631 0.0
N116 N 0.75906 0.17228 0.32713 0.0
C117 C 0.70325 0.12977 0.33369 0.0
Co118 Co 0.74682 0.78683 0.4544 0.0
Co119 Co 0.61743 0.79197 0.45513 0.0
O120 O 0.66185 0.75104 0.46049 0.0
C121 C 0.73255 0.73992 0.50586 0.0
O122 O 0.6938 0.7569 0.50968 0.0
C123 C 0.5512 0.68194 0.42548 0.0
O124 O 0.60162 0.69346 0.4155 0.0
O125 O 0.65144 0.81713 0.42109 0.0
O126 O 0.74207 0.82956 0.42405 0.0
H127 H 0.59139 0.96101 0.42758 0.0
H128 H 0.66884 0.65805 0.45987 0.0
O129 O 0.75573 0.74592 0.48445 0.0
H130 H 0.76328 0.68428 0.37785 0.0
H131 H 0.93831 0.78533 0.44918 0.0
H132 H 0.84469 0.9079 0.44324 0.0
H133 H 0.78721 0.77017 0.40432 0.0
H134 H 0.83097 0.7412 0.4553 0.0
O135 O 0.54927 0.71697 0.44141 0.0
H136 H 0.64714 0.90973 0.43569 0.0
H137 H 0.49142 0.75904 0.46206 0.0
H138 H 0.95208 0.95389 0.43687 0.0
H139 H 0.64413 0.57057 0.43426 0.0
H140 H 0.99961 0.89238 0.43971 0.0
H141 H 0.69141 0.58343 0.39283 0.0
O142 O 0.76302 0.85619 0.47551 0.0
H143 H 0.52308 0.64927 0.52612 0.0
H144 H 0.60269 0.85504 0.49828 0.0
H145 H 0.56419 0.82697 0.54105 0.0
H146 H 0.52403 0.72343 0.55523 0.0
H147 H 0.56273 0.6795 0.4836 0.0
H148 H 0.43389 0.80861 0.45412 0.0
H149 H 0.48396 0.91039 0.43682 0.0
O150 O 0.68379 0.86708 0.46906 0.0
C151 C 0.70292 0.83514 0.41211 0.0
C152 C 0.56911 0.91675 0.43521 0.0
C153 C 0.48071 0.83117 0.45007 0.0
N154 N 0.57266 0.83165 0.44953 0.0
C155 C 0.60049 0.88755 0.43991 0.0
C156 C 0.51348 0.8033 0.45449 0.0
C157 C 0.50883 0.88829 0.44037 0.0
C158 C 0.6904 0.66387 0.44212 0.0
N159 N 0.73011 0.71919 0.43381 0.0
C160 C 0.67588 0.61422 0.42758 0.0
C161 C 0.70227 0.62148 0.40432 0.0
C162 C 0.74254 0.67805 0.3959 0.0
C163 C 0.75583 0.72666 0.41094 0.0
C164 C 0.91807 0.81253 0.44769 0.0
C165 C 0.86492 0.88081 0.44437 0.0
C166 C 0.85726 0.78777 0.4511 0.0
N167 N 0.83125 0.8217 0.44902 0.0
C168 C 0.92582 0.90712 0.44081 0.0
C169 C 0.95245 0.87259 0.44242 0.0
C170 C 0.73554 0.88482 0.47761 0.0
C171 C 0.54033 0.6945 0.52014 0.0
C172 C 0.58526 0.80988 0.5043 0.0
C173 C 0.56345 0.79424 0.52853 0.0
C174 C 0.54093 0.73613 0.53648 0.0
N175 N 0.58482 0.76886 0.48842 0.0
C176 C 0.56258 0.71177 0.49605 0.0
Co177 Co 0.95667 0.74309 0.61643 0.0
Co178 Co 0.83146 0.61036 0.63269 0.0
O179 O 0.91703 0.66061 0.62781 0.0
C180 C 0.01273 0.75277 0.66498 0.0
O181 O 0.95887 0.71974 0.67352 0.0
C182 C 0.87198 0.53616 0.60492 0.0
O183 O 0.92566 0.58143 0.60371 0.0
O184 O 0.81439 0.63624 0.60031 0.0
O185 O 0.89339 0.72469 0.59141 0.0
H186 H 0.62381 0.5736 0.63557 0.0
H187 H 0.03122 0.68722 0.6196 0.0
O188 O 0.02099 0.76463 0.64181 0.0
H189 H 0.02843 0.7327 0.53059 0.0
H190 H 0.1338 0.93685 0.59179 0.0
H191 H 0.91809 0.82913 0.60375 0.0
H192 H 0.97542 0.75846 0.56145 0.0
H193 H 0.08206 0.83287 0.6055 0.0
O194 O 0.83043 0.54109 0.61504 0.0
H195 H 0.73153 0.63299 0.62968 0.0
H196 H 0.74852 0.48294 0.64509 0.0
H197 H 0.96783 0.9329 0.58998 0.0
H198 H 0.08606 0.66204 0.5894 0.0
H199 H 0.07658 0.98758 0.58392 0.0
H200 H 0.08442 0.68426 0.5445 0.0
O201 O 0.9117 0.76286 0.64072 0.0
H202 H 0.93789 0.54342 0.69098 0.0
H203 H 0.77445 0.5844 0.68286 0.0
H204 H 0.79194 0.55111 0.72318 0.0
H205 H 0.87386 0.52967 0.72742 0.0
H206 H 0.92062 0.57944 0.65137 0.0
H207 H 0.64085 0.42167 0.65058 0.0
H208 H 0.57772 0.46708 0.64605 0.0
O209 O 0.82993 0.6775 0.65024 0.0
C210 C 0.84121 0.68275 0.58704 0.0
C211 C 0.65086 0.55333 0.63767 0.0
C212 C 0.66042 0.46804 0.64603 0.0
N213 N 0.74655 0.56168 0.63725 0.0
C214 C 0.71198 0.58681 0.63448 0.0
C215 C 0.72141 0.50292 0.64274 0.0
C216 C 0.62503 0.49356 0.64352 0.0
C217 C 0.03105 0.69794 0.60015 0.0
N218 N 0.9999 0.72408 0.59233 0.0
C219 C 0.06186 0.68318 0.58311 0.0
C220 C 0.06082 0.69554 0.55792 0.0
C221 C 0.02931 0.7226 0.55009 0.0
C222 C 0.99902 0.73672 0.56766 0.0
C223 C 0.08637 0.91346 0.59428 0.0
C224 C 0.96523 0.85236 0.60098 0.0
C225 C 0.05681 0.85453 0.60202 0.0
N226 N 0.99693 0.8247 0.60525 0.0
C227 C 0.99325 0.91125 0.59325 0.0
C228 C 0.05426 0.9419 0.58988 0.0
C229 C 0.86279 0.73367 0.65229 0.0
C230 C 0.90206 0.55263 0.68938 0.0
C231 C 0.81092 0.57643 0.68456 0.0
C232 C 0.82031 0.55705 0.70746 0.0
C233 C 0.86618 0.54496 0.70982 0.0
N234 N 0.84632 0.58405 0.66452 0.0
C235 C 0.89189 0.573 0.66688 0.0
Co236 Co 0.21769 0.96237 0.77923 0.0
Co237 Co 0.23071 0.84018 0.79459 0.0
O238 O 0.26098 0.92471 0.79146 0.0
C239 C 0.25687 0.00946 0.82981 0.0
O240 O 0.24201 0.95535 0.83608 0.0
C241 C 0.3337 0.8811 0.76047 0.0
O242 O 0.31211 0.9083 0.74736 0.0
O243 O 0.19486 0.82546 0.76038 0.0
O244 O 0.18447 0.90423 0.75129 0.0
H245 H 0.07702 0.62285 0.79978 0.0
H246 H 0.34744 0.02624 0.78729 0.0
O247 O 0.25028 0.02113 0.8074 0.0
H248 H 0.32012 0.06971 0.70052 0.0
H249 H 0.19333 0.13795 0.76136 0.0
H250 H 0.09982 0.92168 0.75591 0.0
H251 H 0.23409 0.00656 0.72694 0.0
H252 H 0.24589 0.08759 0.77605 0.0
O253 O 0.30737 0.85255 0.78012 0.0
H254 H 0.11107 0.72821 0.79678 0.0
H255 H 0.28935 0.76882 0.80347 0.0
H256 H 0.04571 0.97012 0.74094 0.0
H257 H 0.43473 0.08994 0.76164 0.0
H258 H 0.09266 0.07924 0.74352 0.0
H259 H 0.42137 0.112 0.71786 0.0
O260 O 0.14668 0.90875 0.79977 0.0
H261 H 0.38681 0.94729 0.8598 0.0
H262 H 0.18638 0.78127 0.84372 0.0
H263 H 0.22658 0.7982 0.88636 0.0
H264 H 0.32761 0.88165 0.89463 0.0
H265 H 0.34414 0.92905 0.81758 0.0
H266 H 0.25679 0.66351 0.80672 0.0
H267 H 0.14992 0.58929 0.80471 0.0
O268 O 0.15467 0.82861 0.80877 0.0
C269 C 0.17737 0.85331 0.74626 0.0
C270 C 0.12384 0.65465 0.80002 0.0
C271 C 0.22462 0.67745 0.80393 0.0
N272 N 0.20271 0.75569 0.79798 0.0
C273 C 0.14368 0.71492 0.79781 0.0
C274 C 0.24285 0.73736 0.80165 0.0
C275 C 0.1647 0.63585 0.80289 0.0
C276 C 0.34121 0.03642 0.76843 0.0
N277 N 0.28566 0.01359 0.75881 0.0
C278 C 0.39084 0.07219 0.75391 0.0
C279 C 0.38332 0.08445 0.72935 0.0
C280 C 0.32654 0.06077 0.71961 0.0
C281 C 0.27798 0.02514 0.73469 0.0
C282 C 0.17231 0.09036 0.76024 0.0
C283 C 0.12032 0.96886 0.75736 0.0
C284 C 0.2017 0.06147 0.7687 0.0
N285 N 0.17566 1.00136 0.76722 0.0
C286 C 0.08953 0.9962 0.74875 0.0
C287 C 0.11583 0.05739 0.75022 0.0
C288 C 0.12699 0.85734 0.80927 0.0
C289 C 0.343 0.91035 0.8564 0.0
C290 C 0.23061 0.81729 0.84708 0.0
C291 C 0.25306 0.82679 0.8713 0.0
C292 C 0.30972 0.87362 0.87594 0.0
N293 N 0.26366 0.85329 0.82796 0.0
C294 C 0.31903 0.89946 0.83243 0.0
Co295 Co 0.25963 0.20915 0.95457 0.0
Co296 Co 0.39508 0.21658 0.95915 0.0
O297 O 0.34395 0.25074 0.96211 0.0
C298 C 0.26392 0.25813 0.00534 0.0
O299 O 0.30368 0.2444 0.01219 0.0
C300 C 0.45859 0.32818 0.92927 0.0
O301 O 0.40823 0.31413 0.9185 0.0
O302 O 0.36554 0.18795 0.92451 0.0
O303 O 0.27127 0.16812 0.92561 0.0
H304 H 0.45261 0.06734 0.93301 0.0
H305 H 0.32337 0.33924 0.96033 0.0
O306 O 0.2443 0.24884 0.98313 0.0
H307 H 0.24841 0.30234 0.87406 0.0
H308 H 0.06449 0.19983 0.94143 0.0
H309 H 0.16417 0.08333 0.94718 0.0
H310 H 0.22733 0.21931 0.90211 0.0
H311 H 0.17114 0.24854 0.94996 0.0
O312 O 0.46112 0.29435 0.94577 0.0
H313 H 0.3862 0.10793 0.9368 0.0
H314 H 0.52024 0.25996 0.97319 0.0
H315 H 0.05805 0.03295 0.93802 0.0
H316 H 0.34493 0.42353 0.93299 0.0
H317 H 0.00719 0.09127 0.93504 0.0
H318 H 0.30746 0.40533 0.8895 0.0
O319 O 0.24669 0.14149 0.97656 0.0
H320 H 0.4694 0.36311 0.02946 0.0
H321 H 0.40772 0.15879 0.0049 0.0
H322 H 0.43729 0.19003 0.04837 0.0
H323 H 0.46856 0.29289 0.06089 0.0
H324 H 0.43847 0.32965 0.98631 0.0
H325 H 0.58873 0.22158 0.96949 0.0
H326 H 0.55491 0.12431 0.94947 0.0
O327 O 0.33101 0.13835 0.97269 0.0
C328 C 0.3134 0.16461 0.9153 0.0
C329 C 0.46759 0.10932 0.94216 0.0
C330 C 0.544 0.19591 0.96256 0.0
N331 N 0.44805 0.18494 0.95622 0.0
C332 C 0.42972 0.13213 0.94465 0.0
C333 C 0.50486 0.21729 0.9647 0.0
C334 C 0.52503 0.14138 0.95131 0.0
C335 C 0.30627 0.33093 0.94152 0.0
N336 N 0.27373 0.2744 0.9329 0.0
C337 C 0.31889 0.37885 0.92609 0.0
C338 C 0.29797 0.36861 0.90167 0.0
C339 C 0.26488 0.31083 0.89299 0.0
C340 C 0.25324 0.264 0.90894 0.0
C341 C 0.08631 0.17401 0.94219 0.0
C342 C 0.14336 0.1094 0.94499 0.0
C343 C 0.14691 0.2014 0.94687 0.0
N344 N 0.17514 0.16934 0.94763 0.0
C345 C 0.08273 0.08045 0.94022 0.0
C346 C 0.05417 0.11313 0.93866 0.0
C347 C 0.27707 0.11581 0.97966 0.0
C348 C 0.45615 0.31825 0.02421 0.0
C349 C 0.42105 0.20358 0.0102 0.0
C350 C 0.43794 0.22106 0.03484 0.0
C351 C 0.45554 0.2788 0.04184 0.0
N352 N 0.42176 0.24254 0.99299 0.0
C353 C 0.43895 0.29919 -0.00026 0.0
Co354 Co 0.74444 0.94889 0.71342 0.0
Co355 Co 0.60834 0.82457 0.70143 0.0
O356 O 0.66264 0.91038 0.70149 0.0
C357 C 0.75456 0.99542 0.66179 0.0
O358 O 0.71592 0.94213 0.65416 0.0
C359 C 0.54312 0.8754 0.72758 0.0
O360 O 0.5944 0.91756 0.73557 0.0
O361 O 0.62882 0.81781 0.73669 0.0
O362 O 0.71979 0.89441 0.74314 0.0
H363 H 0.54574 0.61316 0.72069 0.0
H364 H 0.6844 0.01669 0.70221 0.0
O365 O 0.77064 0.0049 0.68448 0.0
H366 H 0.76024 0.07344 0.78781 0.0
H367 H 0.94896 0.12113 0.72856 0.0
H368 H 0.81938 0.90544 0.73551 0.0
H369 H 0.77857 0.00378 0.76397 0.0
H370 H 0.84509 0.0736 0.71499 0.0
O371 O 0.54098 0.83503 0.71361 0.0
H372 H 0.61446 0.72064 0.71955 0.0
H373 H 0.48415 0.74707 0.68438 0.0
H374 H 0.92277 0.95136 0.74965 0.0
H375 H 0.66597 0.08744 0.72511 0.0
H376 H 0.98825 0.05996 0.74626 0.0
H377 H 0.70347 0.11581 0.76835 0.0
O378 O 0.75994 0.89342 0.69393 0.0
H379 H 0.55705 0.91592 0.63022 0.0
H380 H 0.59721 0.75786 0.65476 0.0
H381 H 0.57515 0.76676 0.61083 0.0
H382 H 0.55447 0.84601 0.59833 0.0
H383 H 0.58089 0.9063 0.67386 0.0
H384 H 0.41387 0.63988 0.68517 0.0
H385 H 0.44462 0.57207 0.70332 0.0
O386 O 0.67287 0.81055 0.68923 0.0
C387 C 0.67433 0.84643 0.75039 0.0
C388 C 0.5319 0.64216 0.71256 0.0
C389 C 0.45792 0.65718 0.69264 0.0
N390 N 0.55382 0.73998 0.70147 0.0
C391 C 0.57069 0.70304 0.7118 0.0
C392 C 0.49795 0.71784 0.69223 0.0
C393 C 0.47518 0.61916 0.70284 0.0
C394 C 0.70075 0.02867 0.72104 0.0
N395 N 0.73068 0.00435 0.73211 0.0
C396 C 0.69021 0.06882 0.73391 0.0
C397 C 0.71125 0.08471 0.75816 0.0
C398 C 0.74292 0.06081 0.76911 0.0
C399 C 0.75254 0.02078 0.75566 0.0
C400 C 0.92076 0.07378 0.73023 0.0
C401 C 0.84742 0.95281 0.73419 0.0
C402 C 0.86192 0.04656 0.72249 0.0
N403 N 0.8259 0.98681 0.72473 0.0
C404 C 0.90603 0.97851 0.74212 0.0
C405 C 0.9428 0.03943 0.74015 0.0
C406 C 0.72872 0.84049 0.68615 0.0
C407 C 0.56553 0.8809 0.63547 0.0
C408 C 0.58834 0.79252 0.64949 0.0
C409 C 0.57581 0.79729 0.62457 0.0
C410 C 0.5642 0.84175 0.61757 0.0
N411 N 0.58898 0.83073 0.667 0.0
C412 C 0.57855 0.87495 0.66019 0.0
Co413 Co 0.79949 0.75435 0.87939 0.0
Co414 Co 0.79229 0.61843 0.87546 0.0
O415 O 0.75751 0.6694 0.87249 0.0
C416 C 0.74919 0.74842 0.82873 0.0
O417 O 0.76447 0.70972 0.82212 0.0
C418 C 0.66718 0.54649 0.8967 0.0
O419 O 0.66046 0.59273 0.89517 0.0
O420 O 0.82148 0.6491 0.90984 0.0
O421 O 0.84197 0.7436 0.90819 0.0
H422 H 0.94527 0.56572 0.90171 0.0
H423 H 0.66906 0.69604 0.87409 0.0
O424 O 0.75841 0.76854 0.85086 0.0
H425 H 0.71084 0.76732 0.9608 0.0
H426 H 0.80918 0.94968 0.89218 0.0
H427 H 0.92584 0.85044 0.88515 0.0
H428 H 0.79202 0.78552 0.93231 0.0
H429 H 0.76021 0.8429 0.88416 0.0
O430 O 0.71597 0.55039 0.88995 0.0
H431 H 0.90215 0.62987 0.89792 0.0
H432 H 0.75193 0.49365 0.86138 0.0
H433 H 0.97651 0.95671 0.89376 0.0
H434 H 0.58669 0.67819 0.90182 0.0
H435 H 0.91812 0.00738 0.8974 0.0
H436 H 0.60727 0.71347 0.94559 0.0
O437 O 0.86612 0.76669 0.857 0.0
H438 H 0.64703 0.54721 0.8043 0.0
H439 H 0.84897 0.60251 0.83033 0.0
H440 H 0.8181 0.57211 0.78691 0.0
H441 H 0.71633 0.54379 0.77367 0.0
H442 H 0.68005 0.57899 0.84733 0.0
H443 H 0.79274 0.42731 0.86518 0.0
H444 H 0.89047 0.46338 0.88524 0.0
O445 O 0.86965 0.68278 0.86139 0.0
C446 C 0.84552 0.70158 0.91869 0.0
C447 C 0.9031 0.54975 0.89255 0.0
C448 C 0.81747 0.47206 0.87213 0.0
N449 N 0.82575 0.56687 0.87845 0.0
C450 C 0.87881 0.58638 0.89005 0.0
C451 C 0.79461 0.50999 0.86999 0.0
C452 C 0.87225 0.4923 0.88339 0.0
C453 C 0.67855 0.71234 0.89299 0.0
N454 N 0.73538 0.74155 0.90154 0.0
C455 C 0.63164 0.70175 0.90866 0.0
C456 C 0.6432 0.72144 0.93323 0.0
C457 C 0.70128 0.75153 0.94179 0.0
C458 C 0.74707 0.7613 0.9256 0.0
C459 C 0.83505 0.92794 0.89116 0.0
C460 C 0.89975 0.87112 0.88767 0.0
C461 C 0.80751 0.86724 0.8868 0.0
N462 N 0.83964 0.83911 0.88573 0.0
C463 C 0.92887 0.93186 0.8921 0.0
C464 C 0.89614 0.96031 0.89403 0.0
C465 C 0.89192 0.73645 0.85411 0.0
C466 C 0.6913 0.55884 0.80991 0.0
C467 C 0.80452 0.59014 0.82477 0.0
C468 C 0.78732 0.57294 0.80014 0.0
C469 C 0.73023 0.55708 0.79272 0.0
N470 N 0.76585 0.59103 0.84166 0.0
C471 C 0.71012 0.57643 0.83437 0.0
Co472 Co 0.04768 0.79149 0.05463 0.0
Co473 Co 0.16988 0.77711 0.04071 0.0
O474 O 0.08512 0.74737 0.04309 0.0
C475 C 1.00121 0.75285 0.00384 0.0
O476 O 0.05521 0.76714 0.99765 0.0
C477 C 0.12901 0.67303 0.07481 0.0
O478 O 0.10199 0.69406 0.08834 0.0
O479 O 0.1833 0.81248 0.07504 0.0
O480 O 0.10497 0.82449 0.08282 0.0
H481 H 0.38787 0.92982 0.03713 0.0
H482 H 0.98236 0.66181 0.0468 0.0
O483 O 0.98949 0.75917 0.02624 0.0
H484 H 0.93781 0.69068 0.1331 0.0
H485 H 0.87341 0.81954 0.07018 0.0
H486 H 0.08917 0.90991 0.07731 0.0
H487 H 1.00239 0.77616 0.10665 0.0
H488 H 0.92271 0.7649 0.05697 0.0
O489 O 0.15663 0.69984 0.05506 0.0
H490 H 0.28255 0.89641 0.03907 0.0
H491 H 0.24111 0.71791 0.03266 0.0
H492 H 0.04185 0.96607 0.09078 0.0
H493 H 0.91724 0.57504 0.07249 0.0
H494 H 0.93305 0.92094 0.08723 0.0
H495 H 0.89463 0.58919 0.11602 0.0
O496 O 0.1023 0.86199 0.03404 0.0
H497 H 0.06388 0.62325 0.97462 0.0
H498 H 0.23179 0.82163 0.99213 0.0
H499 H 0.21661 0.78219 0.94945 0.0
H500 H 0.13225 0.68217 0.94045 0.0
H501 H 0.08041 0.66516 0.0169 0.0
H502 H 0.34636 0.74984 0.03045 0.0
H503 H 0.421 0.85649 0.03287 0.0
O504 O 0.18269 0.85358 0.02643 0.0
C505 C 0.15523 0.83076 0.08857 0.0
C506 C 0.35586 0.88307 0.03675 0.0
C507 C 0.33259 0.78218 0.03299 0.0
N508 N 0.25448 0.80464 0.03806 0.0
C509 C 0.29555 0.86358 0.03839 0.0
C510 C 0.27266 0.7643 0.0347 0.0
C511 C 0.37442 0.84198 0.03426 0.0
C512 C 0.97206 0.66836 0.06558 0.0
N513 N 0.99541 0.72403 0.07506 0.0
C514 C 0.93544 0.61904 0.0801 0.0
C515 C 0.92286 0.627 0.10453 0.0
C516 C 0.94703 0.68392 0.11412 0.0
C517 C 0.98349 0.73216 0.09904 0.0
C518 C 0.92091 0.83985 0.07168 0.0
C519 C 0.04211 0.89004 0.07551 0.0
C520 C 0.94919 0.80925 0.06408 0.0
N521 N 0.00919 0.83449 0.06596 0.0
C522 C 0.01539 0.92202 0.08327 0.0
C523 C 0.95436 0.89669 0.08128 0.0
C524 C 0.15421 0.88142 0.02517 0.0
C525 C 0.10128 0.66657 0.97835 0.0
C526 C 0.19541 0.77778 0.98849 0.0
C527 C 0.18689 0.75579 0.96422 0.0
C528 C 0.13953 0.69971 0.95918 0.0
N529 N 0.15799 0.74483 0.00726 0.0
C530 C 0.11122 0.69009 0.00238 0.0
Co531 Co 0.26379 0.05005 0.21929 0.0
Co532 Co 0.39416 0.17513 0.20093 0.0
O533 O 0.34336 0.09007 0.20516 0.0
C534 C 0.24857 0.99696 0.16949 0.0
O535 O 0.28063 0.05113 0.16118 0.0
C536 C 0.46038 0.13898 0.23479 0.0
O537 O 0.41178 0.11093 0.2479 0.0
O538 O 0.37412 0.19134 0.23494 0.0
O539 O 0.28796 0.11122 0.24606 0.0
H540 H 0.44629 0.38877 0.19516 0.0
H541 H 0.32815 0.98533 0.21048 0.0
O542 O 0.23808 0.98782 0.19269 0.0
H543 H 0.28171 0.96293 0.30025 0.0
H544 H 0.07191 0.86854 0.24218 0.0
H545 H 0.18324 0.08567 0.24351 0.0
H546 H 0.24961 0.01782 0.27315 0.0
H547 H 0.17361 0.92311 0.2261 0.0
O548 O 0.46196 0.16788 0.21531 0.0
H549 H 0.37966 0.28243 0.20007 0.0
H550 H 0.52221 0.25095 0.1893 0.0
H551 H 0.08177 0.03316 0.25965 0.0
H552 H 0.36106 0.93004 0.23688 0.0
H553 H 0.02505 0.92356 0.25901 0.0
H554 H 0.33796 0.91867 0.28213 0.0
O555 O 0.24051 0.09814 0.19787 0.0
H556 H 0.46105 0.08061 0.13696 0.0
H557 H 0.39854 0.22716 0.15116 0.0
H558 H 0.42514 0.21296 0.10874 0.0
H559 H 0.45717 0.13953 0.10143 0.0
H560 H 0.43132 0.09465 0.17882 0.0
H561 H 0.59051 0.35727 0.18418 0.0
H562 H 0.5529 0.42728 0.18719 0.0
O563 O 0.32569 0.18068 0.18697 0.0
C564 C 0.33048 0.16365 0.24983 0.0
C565 C 0.46349 0.35885 0.1943 0.0
C566 C 0.54435 0.34118 0.18813 0.0
N567 N 0.44688 0.25988 0.19644 0.0
C568 C 0.42581 0.2982 0.19746 0.0
C569 C 0.50535 0.28082 0.1914 0.0
C570 C 0.52323 0.38042 0.18976 0.0
C571 C 0.31755 0.98018 0.23012 0.0
N572 N 0.28691 0.00466 0.24027 0.0
C573 C 0.33644 0.94897 0.24499 0.0
C574 C 0.32353 0.94268 0.27038 0.0
C575 C 0.29197 0.96749 0.28056 0.0
C576 C 0.27391 0.99851 0.26513 0.0
C577 C 0.09589 0.91632 0.24232 0.0
C578 C 0.15893 0.03838 0.2427 0.0
C579 C 0.15349 0.9476 0.23307 0.0
N580 N 0.18414 0.00801 0.23303 0.0
C581 C 0.10141 0.00865 0.25211 0.0
C582 C 0.06966 0.94718 0.25179 0.0
C583 C 0.26921 0.14866 0.18709 0.0
C584 C 0.44734 0.11288 0.1399 0.0
C585 C 0.41176 0.19463 0.14812 0.0
C586 C 0.42703 0.18698 0.12405 0.0
C587 C 0.44506 0.14586 0.11997 0.0
N588 N 0.41377 0.16185 0.16757 0.0
C589 C 0.4309 0.12119 0.16364 0.0
Co590 Co 0.21034 0.25605 0.37922 0.0
Co591 Co 0.2187 0.39194 0.37265 0.0
O592 O 0.2537 0.34093 0.37154 0.0
C593 C 0.27165 0.26561 0.33157 0.0
O594 O 0.25237 0.30086 0.32432 0.0
C595 C 0.34307 0.46463 0.39377 0.0
O596 O 0.35071 0.41903 0.39187 0.0
O597 O 0.18849 0.36332 0.40704 0.0
O598 O 0.16415 0.26777 0.40618 0.0
H599 H 0.06112 0.44177 0.39369 0.0
H600 H 0.34135 0.31371 0.37764 0.0
O601 O 0.25562 0.2411 0.3528 0.0
H602 H 0.2866 0.24643 0.46441 0.0
H603 H 0.19506 0.06022 0.39867 0.0
H604 H 0.08301 0.16104 0.38103 0.0
H605 H 0.20988 0.22664 0.4332 0.0
H606 H 0.24694 0.16669 0.38983 0.0
O607 O 0.29402 0.4604 0.38724 0.0
H608 H 0.10552 0.37844 0.39166 0.0
H609 H 0.25954 0.51674 0.35804 0.0
H610 H 0.02944 0.05498 0.39032 0.0
H611 H 0.41932 0.33307 0.40816 0.0
H612 H 0.08539 0.00354 0.39932 0.0
H613 H 0.39223 0.29985 0.45198 0.0
O614 O 0.14766 0.24372 0.35456 0.0
H615 H 0.36812 0.46828 0.30282 0.0
H616 H 0.16286 0.40448 0.32652 0.0
H617 H 0.19553 0.43653 0.28343 0.0
H618 H 0.2991 0.46954 0.27139 0.0
H619 H 0.33276 0.43274 0.34529 0.0
H620 H 0.21743 0.58222 0.36007 0.0
H621 H 0.11721 0.5447 0.37781 0.0
O622 O 0.14262 0.32686 0.3584 0.0
C623 C 0.16216 0.31103 0.41614 0.0
C624 C 0.10457 0.45848 0.38566 0.0
C625 C 0.19231 0.5373 0.36687 0.0
N626 N 0.18441 0.44293 0.37409 0.0
C627 C 0.12971 0.42244 0.38424 0.0
C628 C 0.21598 0.49995 0.36578 0.0
C629 C 0.1361 0.51624 0.37682 0.0
C630 C 0.32898 0.29828 0.39655 0.0
N631 N 0.27097 0.26935 0.40356 0.0
C632 C 0.37344 0.30972 0.41381 0.0
C633 C 0.35823 0.29119 0.4384 0.0
C634 C 0.29899 0.26135 0.4454 0.0
C635 C 0.25572 0.25069 0.42764 0.0
C636 C 0.17011 0.08229 0.39523 0.0
C637 C 0.10799 0.13999 0.38574 0.0
C638 C 0.19931 0.14286 0.3903 0.0
N639 N 0.16833 0.17146 0.38622 0.0
C640 C 0.07724 0.07939 0.39061 0.0
C641 C 0.10863 0.0505 0.39555 0.0
C642 C 0.12185 0.27366 0.35091 0.0
C643 C 0.32297 0.45437 0.30789 0.0
C644 C 0.20787 0.41812 0.32144 0.0
C645 C 0.22615 0.43647 0.29699 0.0
C646 C 0.28424 0.455 0.29025 0.0
N647 N 0.24628 0.41814 0.33878 0.0
C648 C 0.30284 0.43474 0.33207 0.0
Co649 Co 0.95488 0.21517 0.54887 0.0
Co650 Co 0.8227 0.21353 0.53805 0.0
O651 O 0.90952 0.25221 0.53747 0.0
C652 C 0.01648 0.28402 0.50206 0.0
O653 O 0.98528 0.31044 0.50168 0.0
C654 C 0.86234 0.32517 0.5659 0.0
O655 O 0.90102 0.31467 0.57683 0.0
O656 O 0.82063 0.18881 0.57326 0.0
O657 O 0.90192 0.18199 0.57889 0.0
H658 H 0.61786 0.04826 0.55717 0.0
H659 H 1.00319 0.34665 0.54282 0.0
O660 O 0.00877 0.24623 0.51886 0.0
H661 H 0.08264 0.32481 0.62261 0.0
H662 H 0.13717 0.19819 0.56082 0.0
H663 H 0.92138 0.09941 0.57193 0.0
H664 H 0.01732 0.23751 0.5978 0.0
H665 H 0.08237 0.24795 0.54827 0.0
O666 O 0.82741 0.28923 0.5496 0.0
H667 H 0.72641 0.09689 0.55519 0.0
H668 H 0.7355 0.24978 0.52317 0.0
H669 H 0.97461 0.04858 0.58515 0.0
H670 H 0.06915 0.43472 0.56673 0.0
H671 H 0.08332 0.09795 0.57958 0.0
H672 H 0.10957 0.42463 0.60711 0.0
O673 O 0.90272 0.14228 0.52945 0.0
H674 H 0.89966 0.35199 0.46482 0.0
H675 H 0.75492 0.1507 0.49253 0.0
H676 H 0.7588 0.17713 0.44819 0.0
H677 H 0.83152 0.27847 0.43406 0.0
H678 H 0.89473 0.32311 0.50893 0.0
H679 H 0.62697 0.20288 0.52494 0.0
H680 H 0.5674 0.10134 0.54198 0.0
O681 O 0.81463 0.13738 0.52662 0.0
C682 C 0.85266 0.17557 0.58661 0.0
C683 C 0.6433 0.09244 0.54962 0.0
C684 C 0.64844 0.17927 0.53159 0.0
N685 N 0.73725 0.17599 0.53894 0.0
C686 C 0.70479 0.12015 0.54838 0.0
C687 C 0.70988 0.20566 0.53069 0.0
C688 C 0.61504 0.12228 0.54113 0.0
C689 C 0.02136 0.34099 0.55979 0.0
N690 N 0.0071 0.28601 0.56817 0.0
C691 C 0.05842 0.39152 0.57355 0.0
C692 C 0.08091 0.38586 0.59623 0.0
C693 C 0.06581 0.32993 0.60492 0.0
C694 C 0.02862 0.28044 0.59065 0.0
C695 C 0.0898 0.17624 0.56336 0.0
C696 C 0.9687 0.12151 0.56966 0.0
C697 C 0.05842 0.20405 0.55614 0.0
N698 N 0.99862 0.17685 0.55952 0.0
C699 C 0.9986 0.09235 0.57708 0.0
C700 C 0.05958 0.12003 0.57391 0.0
C701 C 0.84837 0.11606 0.52332 0.0
C702 C 0.86741 0.30784 0.47076 0.0
C703 C 0.78645 0.19503 0.48659 0.0
C704 C 0.78847 0.20969 0.46143 0.0
C705 C 0.82928 0.26654 0.45351 0.0
N706 N 0.82393 0.23585 0.50343 0.0
C707 C 0.86409 0.2915 0.49576 0.0
C708 C 0.10995 0.57008 0.06692 0.0
C709 C 0.1302 0.61913 0.08309 0.0
C710 C 0.15141 0.56434 0.11479 0.0
C711 C 0.13743 0.51791 0.09735 0.0
N712 N 0.12296 0.48926 0.05389 0.0
N713 N 0.183 0.6679 0.12056 0.0
C714 C 0.12257 0.52458 0.07252 0.0
C715 C 0.15476 0.61778 0.10649 0.0
N716 N 0.07588 0.56517 0.04683 0.0
N717 N 0.1588 0.55718 0.13946 0.0
H718 H 0.18706 0.70803 0.11509 0.0
H719 H 0.20733 0.67104 0.13645 0.0
H720 H 0.15616 0.51933 0.14682 0.0
H721 H 0.16213 0.587 0.1531 0.0
H722 H 0.05627 0.52786 0.03547 0.0
H723 H 0.06072 0.59458 0.0438 0.0
H724 H 0.11667 0.49574 0.03522 0.0
H725 H 0.13729 0.45896 0.05657 0.0
C726 C 0.59061 0.11236 0.23553 0.0
C727 C 0.6162 0.13509 0.25925 0.0
C728 C 0.54399 0.1684 0.26509 0.0
C729 C 0.51401 0.13794 0.2432 0.0
N730 N 0.49967 0.06578 0.21208 0.0
N731 N 0.6075 0.17441 0.29896 0.0
C732 C 0.5347 0.10562 0.22964 0.0
C733 C 0.59054 0.16072 0.27469 0.0
N734 N 0.62042 0.09937 0.21812 0.0
N735 N 0.52838 0.205 0.27669 0.0
H736 H 0.63867 0.16673 0.30744 0.0
H737 H 0.58586 0.18741 0.31153 0.0
H738 H 0.49397 0.21099 0.27042 0.0
H739 H 0.55288 0.23323 0.29116 0.0
H740 H 0.60497 0.08692 0.19996 0.0
H741 H 0.66362 0.1083 0.2207 0.0
H742 H 0.51116 0.0378 0.20298 0.0
H743 H 0.45606 0.0552 0.20929 0.0
C744 C 0.46027 0.62921 0.39892 0.0
C745 C 0.49594 0.62734 0.41835 0.0
C746 C 0.42443 0.5222 0.4248 0.0
C747 C 0.39331 0.52192 0.403 0.0
N748 N 0.38963 0.5747 0.36657 0.0
N749 N 0.51631 0.5706 0.448 0.0
C750 C 0.41298 0.57543 0.38941 0.0
C751 C 0.47931 0.57336 0.43076 0.0
N752 N 0.47143 0.6824 0.38952 0.0
N753 N 0.40037 0.47449 0.44044 0.0
H754 H 0.5562 0.60734 0.45321 0.0
H755 H 0.50972 0.5311 0.4556 0.0
H756 H 0.35902 0.43734 0.43742 0.0
H757 H 0.41831 0.4743 0.45774 0.0
H758 H 0.44312 0.68683 0.37719 0.0
H759 H 0.50613 0.7226 0.39581 0.0
H760 H 0.40667 0.61123 0.35477 0.0
H761 H 0.35738 0.53629 0.35817 0.0
C762 C 0.87061 0.47512 0.56857 0.0
C763 C 0.86045 0.47869 0.59434 0.0
C764 C 0.84343 0.37806 0.60065 0.0
C765 C 0.85496 0.37513 0.57496 0.0
N766 N 0.86338 0.41419 0.53341 0.0
N767 N 0.82832 0.43081 0.63435 0.0
C768 C 0.86343 0.42153 0.55858 0.0
C769 C 0.84374 0.42911 0.61017 0.0
N770 N 0.88836 0.52357 0.55364 0.0
N771 N 0.83261 0.33191 0.61603 0.0
H772 H 0.83152 0.46823 0.64252 0.0
H773 H 0.80912 0.39439 0.64616 0.0
H774 H 0.82523 0.29132 0.60942 0.0
H775 H 0.83228 0.33378 0.63537 0.0
H776 H 0.90493 0.52702 0.53571 0.0
H777 H 0.88974 0.56212 0.55958 0.0
H778 H 0.86272 0.44345 0.52043 0.0
H779 H 0.85797 0.37594 0.52527 0.0
C780 C 0.48375 0.89117 0.76056 0.0
C781 C 0.48759 0.87391 0.73583 0.0
C782 C 0.38633 0.85421 0.72831 0.0
C783 C 0.38708 0.88023 0.75154 0.0
N784 N 0.44429 0.93848 0.78646 0.0
N785 N 0.44425 0.84957 0.69443 0.0
C786 C 0.43803 0.90302 0.76675 0.0
C787 C 0.43926 0.85805 0.71919 0.0
N788 N 0.52178 0.8936 0.7786 0.0
N789 N 0.33483 0.82439 0.71517 0.0
H790 H 0.48225 0.85391 0.68645 0.0
H791 H 0.4126 0.8443 0.68131 0.0
H792 H 0.29505 0.82024 0.72122 0.0
H793 H 0.33044 0.79907 0.69949 0.0
H794 H 0.51739 0.90164 0.79727 0.0
H795 H 0.55252 0.87998 0.77563 0.0
H796 H 0.48285 0.95994 0.79703 0.0
H797 H 0.41425 0.95267 0.7899 0.0
C798 C 0.54835 0.38164 0.90177 0.0
C799 C 0.51351 0.38322 0.92164 0.0
C800 C 0.58566 0.48846 0.92792 0.0
C801 C 0.61643 0.48899 0.90595 0.0
N802 N 0.61915 0.43645 0.86937 0.0
N803 N 0.49384 0.44027 0.95124 0.0
C804 C 0.596 0.43553 0.89227 0.0
C805 C 0.53067 0.43729 0.93402 0.0
N806 N 0.53608 0.32852 0.89195 0.0
N807 N 0.61017 0.53591 0.94362 0.0
H808 H 0.45335 0.40385 0.95615 0.0
H809 H 0.50096 0.47981 0.95895 0.0
H810 H 0.65158 0.57296 0.94055 0.0
H811 H 0.59257 0.53587 0.96103 0.0
H812 H 0.56378 0.32392 0.87936 0.0
H813 H 0.50081 0.28837 0.89801 0.0
H814 H 0.60163 0.40024 0.85744 0.0
H815 H 0.65203 0.47479 0.86111 0.0
C816 C 0.19687 0.18538 0.18964 0.0
C817 C 0.23492 0.17343 0.17502 0.0
C818 C 0.21516 0.21838 0.13869 0.0
C819 C 0.17457 0.22684 0.15313 0.0
N820 N 0.11553 0.20434 0.19032 0.0
N821 N 0.271 0.1678 0.13439 0.0
C822 C 0.16168 0.20562 0.17792 0.0
C823 C 0.24155 0.187 0.14915 0.0
N824 N 0.19708 0.1812 0.21497 0.0
N825 N 0.22862 0.2405 0.115 0.0
H826 H 0.28952 0.14359 0.14133 0.0
H827 H 0.27254 0.17107 0.11504 0.0
H828 H 0.20719 0.26003 0.10613 0.0
H829 H 0.26311 0.24239 0.10461 0.0
H830 H 0.17513 0.19546 0.22676 0.0
H831 H 0.22464 0.16977 0.22434 0.0
H832 H 0.10037 0.18379 0.20754 0.0
H833 H 0.08843 0.21815 0.18219 0.0
C834 C 0.99829 0.20001 0.30225 0.0
C835 C 0.9478 0.18442 0.31721 0.0
C836 C 0.0119 0.23446 0.35283 0.0
C837 C 0.06221 0.24382 0.33891 0.0
N838 N 0.1025 0.23096 0.30054 0.0
N839 N 0.9061 0.17674 0.35798 0.0
C840 C 0.05504 0.22465 0.31371 0.0
C841 C 0.95453 0.19893 0.34282 0.0
N842 N 0.99254 0.19474 0.27693 0.0
N843 N 0.01841 0.26028 0.37553 0.0
H844 H 0.86329 0.14986 0.35145 0.0
H845 H 0.90875 0.18015 0.37734 0.0
H846 H 0.05875 0.28351 0.3845 0.0
H847 H 0.98416 0.26174 0.38478 0.0
H848 H 0.02824 0.21066 0.26475 0.0
H849 H 0.95219 0.1797 0.26791 0.0
H850 H 0.09886 0.21165 0.28319 0.0
H851 H 0.14535 0.25279 0.30757 0.0
C852 C 0.79387 0.0058 0.52698 0.0
C853 C 0.82204 0.05689 0.51171 0.0
C854 C 0.79675 0.99492 0.4743 0.0
C855 C 0.76631 0.94385 0.48949 0.0
N856 N 0.72656 0.90015 0.5295 0.0
N857 N 0.84339 0.10152 0.47098 0.0
C858 C 0.76249 0.9491 0.51566 0.0
C859 C 0.82179 0.05184 0.48538 0.0
N860 N 0.7974 0.01158 0.55235 0.0
N861 N 0.80176 0.98889 0.44925 0.0
H862 H 0.86232 0.14369 0.47859 0.0
H863 H 0.83894 0.10116 0.45171 0.0
H864 H 0.7808 0.94818 0.44022 0.0
H865 H 0.82918 0.02363 0.43751 0.0
H866 H 0.78399 0.97624 0.56458 0.0
H867 H 0.81729 0.05244 0.56128 0.0
H868 H 0.71628 0.90148 0.54812 0.0
H869 H 0.70336 0.858 0.52183 0.0
C870 C 0.85742 0.82695 0.66088 0.0
C871 C 0.83801 0.76669 0.66598 0.0
C872 C 0.74319 0.75206 0.68029 0.0
C873 C 0.76104 0.81191 0.67494 0.0
N874 N 0.82878 0.89993 0.65237 0.0
N875 N 0.77821 0.68736 0.69382 0.0
C876 C 0.81672 0.84782 0.66318 0.0
C877 C 0.7856 0.7339 0.67977 0.0
N878 N 0.91575 0.86559 0.65635 0.0
N879 N 0.68523 0.71065 0.68331 0.0
H880 H 0.81315 0.67943 0.69642 0.0
H881 H 0.74207 0.66384 0.70559 0.0
H882 H 0.65158 0.71814 0.67769 0.0
H883 H 0.67102 0.66611 0.68631 0.0
H884 H 0.93309 0.9109 0.65429 0.0
H885 H 0.94824 0.85411 0.65875 0.0
H886 H 0.86599 0.92537 0.64145 0.0
H887 H 0.79757 0.91344 0.65147 0.0
C888 C 1.00243 0.77432 0.8559 0.0
C889 C 0.952 0.76586 0.84219 0.0
C890 C 0.01637 0.81158 0.80579 0.0
C891 C 0.06701 0.82753 0.82071 0.0
N892 N 0.10829 0.83324 0.86139 0.0
N893 N 0.91282 0.78191 0.80406 0.0
C894 C 0.06002 0.81136 0.84615 0.0
C895 C 0.95969 0.78675 0.81721 0.0
N896 N 0.99598 0.74624 0.87807 0.0
N897 N 0.0217 0.81621 0.78046 0.0
H898 H 0.86982 0.75953 0.81077 0.0
H899 H 0.91727 0.80303 0.78705 0.0
H900 H 0.06179 0.83052 0.77141 0.0
H901 H 0.98575 0.79971 0.76837 0.0
H902 H 0.0306 0.74503 0.88712 0.0
H903 H 0.95544 0.72069 0.88659 0.0
H904 H 0.10532 0.82827 0.8807 0.0
H905 H 0.15105 0.86149 0.85505 0.0
C906 C 0.20084 0.99214 0.02829 0.0
C907 C 0.18487 0.94127 0.01359 0.0
C908 C 0.23963 0.0053 0.97846 0.0
C909 C 0.24772 0.05595 0.99181 0.0
N910 N 0.23128 0.09586 0.02957 0.0
N911 N 0.18026 0.89946 0.97317 0.0
C912 C 0.22629 0.04869 0.01669 0.0
C913 C 0.20189 0.94789 0.98826 0.0
N914 N 0.19559 0.98711 0.05361 0.0
N915 N 0.26881 0.01133 0.95666 0.0
H916 H 0.1515 0.85686 0.97955 0.0
H917 H 0.18597 0.90223 0.9539 0.0
H918 H 0.29557 0.05179 0.94826 0.0
H919 H 0.26995 0.9764 0.94792 0.0
H920 H 0.21205 0.0232 0.06559 0.0
H921 H 0.1808 0.94708 0.0628 0.0
H922 H 0.20978 0.09178 0.04642 0.0
H923 H 0.25435 0.1388 0.0228 0.0
C924 C 0.24414 0.35591 0.05304 0.0
C925 C 0.18196 0.32204 0.05691 0.0
C926 C 0.17444 0.25057 0.02576 0.0
C927 C 0.23693 0.28012 0.02373 0.0
N928 N 0.33231 0.36188 0.03503 0.0
N929 N 0.09105 0.26243 0.03531 0.0
C930 C 0.2722 0.33316 0.03728 0.0
C931 C 0.14782 0.27656 0.03984 0.0
N932 N 0.275 0.41238 0.06187 0.0
N933 N 0.14023 0.19611 0.01533 0.0
H934 H 0.07509 0.28895 0.04225 0.0
H935 H 0.06455 0.23222 0.02176 0.0
H936 H 0.15773 0.17336 0.00604 0.0
H937 H 0.09483 0.17088 0.01836 0.0
H938 H 0.31985 0.44079 0.05884 0.0
H939 H 0.25418 0.43427 0.06899 0.0
H940 H 0.36097 0.39588 0.04675 0.0
H941 H 0.35409 0.34984 0.02212 0.0
C942 C 0.88159 0.23487 0.21366 0.0
C943 C 0.85224 0.17327 0.21875 0.0
C944 C 0.91066 0.15982 0.18662 0.0
C945 C 0.94625 0.22202 0.18411 0.0
N946 N 0.96341 0.31957 0.19352 0.0
N947 N 0.81505 0.07954 0.19882 0.0
C948 C 0.931 0.25989 0.19711 0.0
C949 C 0.85966 0.13621 0.20184 0.0
N950 N 0.85825 0.26791 0.22229 0.0
N951 N 0.92699 0.12311 0.17563 0.0
H952 H 0.77395 0.0652 0.20705 0.0
H953 H 0.81563 0.05096 0.18547 0.0
H954 H 0.96531 0.13828 0.16504 0.0
H955 H 0.90541 0.07784 0.1791 0.0
H956 H 0.87558 0.31254 0.21845 0.0
H957 H 0.8163 0.24881 0.23021 0.0
H958 H 0.96041 0.35017 0.20486 0.0
H959 H 0.9952 0.33898 0.17958 0.0
C960 C 0.68547 0.92008 0.35888 0.0
C961 C 0.74472 0.96247 0.35331 0.0
C962 C 0.77916 0.91188 0.38151 0.0
C963 C 0.71918 0.87059 0.38805 0.0
N964 N 0.61902 0.82048 0.37284 0.0
N965 N 0.84842 0.99545 0.35616 0.0
C966 C 0.67332 0.8703 0.37372 0.0
C967 C 0.79175 0.95754 0.36382 0.0
N968 N 0.64058 0.9278 0.35039 0.0
N969 N 0.82422 0.90665 0.39144 0.0
H970 H 0.85942 0.03077 0.34409 0.0
H971 H 0.88467 0.99116 0.3608 0.0
H972 H 0.81865 0.8661 0.39686 0.0
H973 H 0.86775 0.94106 0.3924 0.0
H974 H 0.59682 0.90112 0.35595 0.0
H975 H 0.64795 0.96435 0.33982 0.0
H976 H 0.58504 0.81607 0.36128 0.0
H977 H 0.61109 0.78083 0.38087 0.0
C978 C 0.78962 0.65713 0.54529 0.0
C979 C 0.80779 0.69244 0.56706 0.0
C980 C 0.7793 0.75964 0.54828 0.0
C981 C 0.75637 0.72202 0.52725 0.0
N982 N 0.72889 0.62832 0.50811 0.0
N983 N 0.80219 0.76592 0.59212 0.0
C984 C 0.75842 0.66874 0.52641 0.0
C985 C 0.79703 0.74013 0.56945 0.0
N986 N 0.80358 0.61374 0.54232 0.0
N987 N 0.78808 0.81567 0.54755 0.0
H988 H 0.81276 0.75111 0.6083 0.0
H989 H 0.78972 0.79746 0.59526 0.0
H990 H 0.78067 0.83381 0.53163 0.0
H991 H 0.80963 0.8464 0.56168 0.0
H992 H 0.7974 0.59093 0.52569 0.0
H993 H 0.82533 0.60347 0.556 0.0
H994 H 0.72421 0.58641 0.50782 0.0
H995 H 0.70396 0.6345 0.49459 0.0
C996 C 0.15391 0.85637 0.70097 0.0
C997 C 0.14265 0.82371 0.72339 0.0
C998 C 0.06134 0.73935 0.70242 0.0
C999 C 0.06312 0.77632 0.68279 0.0
N1000 N 0.10816 0.87578 0.66602 0.0
N1001 N 0.07369 0.7367 0.74653 0.0
C1002 C 0.10908 0.83644 0.68247 0.0
C1003 C 0.09359 0.76539 0.7244 0.0
N1004 N 0.20734 0.90589 0.69722 0.0
N1005 N 0.02879 0.67949 0.70016 0.0
H1006 H 0.09007 0.75801 0.76337 0.0
H1007 H 0.0354 0.69559 0.7481 0.0
H1008 H 0.00827 0.65944 0.68344 0.0
H1009 H 0.02901 0.65083 0.71364 0.0
H1010 H 0.21894 0.9291 0.68043 0.0
H1011 H 0.24206 0.91895 0.70982 0.0
H1012 H 0.13847 0.92091 0.66678 0.0
H1013 H 0.07362 0.86489 0.65364 0.0
C1014 C 0.24609 0.07091 0.89164 0.0
C1015 C 0.29875 0.12723 0.89236 0.0
C1016 C 0.32489 0.10733 0.85089 0.0
C1017 C 0.27018 0.05343 0.84983 0.0
N1018 N 0.17148 0.99404 0.86593 0.0
N1019 N 0.38077 0.20442 0.86956 0.0
C1020 C 0.2285 0.03859 0.86915 0.0
C1021 C 0.33615 0.14709 0.87107 0.0
N1022 N 0.21448 0.04589 0.91279 0.0
N1023 N 0.36688 0.11985 0.83315 0.0
H1024 H 0.38862 0.23543 0.88336 0.0
H1025 H 0.40589 0.22273 0.85354 0.0
H1026 H 0.35981 0.09237 0.81799 0.0
H1027 H 0.40999 0.15507 0.8345 0.0
H1028 H 0.17951 0.00253 0.91366 0.0
H1029 H 0.22771 0.06552 0.93011 0.0
H1030 H 0.13789 0.98532 0.8786 0.0
H1031 H 0.15629 0.97028 0.84936 0.0
C1032 C 0.64732 0.75838 0.77976 0.0
C1033 C 0.6788 0.82018 0.77488 0.0
C1034 C 0.75024 0.8344 0.80742 0.0
C1035 C 0.72401 0.77227 0.81021 0.0
N1036 N 0.64536 0.67421 0.80006 0.0
N1037 N 0.73314 0.91337 0.79532 0.0
C1038 C 0.67178 0.73389 0.79667 0.0
C1039 C 0.72244 0.85729 0.79209 0.0
N1040 N 0.59128 0.72453 0.77081 0.0
N1041 N 0.80356 0.87186 0.81815 0.0
H1042 H 0.70608 0.92704 0.78685 0.0
H1043 H 0.76142 0.94182 0.80897 0.0
H1044 H 0.82788 0.85737 0.8283 0.0
H1045 H 0.82654 0.91714 0.81462 0.0
H1046 H 0.5645 0.67973 0.77453 0.0
H1047 H 0.56787 0.74284 0.76279 0.0
H1048 H 0.61257 0.64342 0.78843 0.0
H1049 H 0.65788 0.65504 0.81405 0.0
C1050 C 0.86297 0.67763 0.96267 0.0
C1051 C 0.88289 0.71606 0.94169 0.0
C1052 C 0.97237 0.7842 0.96507 0.0
C1053 C 0.9575 0.74111 0.98382 0.0
N1054 N 0.89038 0.64376 -0.00029 0.0
N1055 N 0.96409 0.80179 0.92186 0.0
C1056 C 0.90308 0.68699 0.98252 0.0
C1057 C 0.93942 0.76853 0.94268 0.0
N1058 N 0.80523 0.63384 0.96422 0.0
N1059 N 0.01752 0.84072 0.96876 0.0
H1060 H 0.94417 0.79012 0.90455 0.0
H1061 H 0.00754 0.83662 0.9211 0.0
H1062 H 0.04194 0.85446 0.98523 0.0
H1063 H 0.02626 0.87537 0.95666 0.0
H1064 H 0.78708 0.60803 0.9801 0.0
H1065 H 0.77386 0.62758 0.95076 0.0
H1066 H 0.85452 0.60107 0.99811 0.0
H1067 H 0.91834 0.64929 0.01454 0.0
C1068 C 0.24142 0.91572 0.1108 0.0
C1069 C 0.18363 0.86574 0.11152 0.0
C1070 C 0.16761 0.8994 0.15181 0.0
C1071 C 0.22701 0.94682 0.15167 0.0
N1072 N 0.32519 0.9831 0.13554 0.0
N1073 N 0.10067 0.80032 0.13712 0.0
C1074 C 0.26557 0.94922 0.13268 0.0
C1075 C 0.14962 0.85429 0.13355 0.0
N1076 N 0.27141 0.93508 0.08893 0.0
N1077 N 0.12721 0.89895 0.16801 0.0
H1078 H 0.08893 0.76561 0.12467 0.0
H1079 H 0.07652 0.78841 0.15366 0.0
H1080 H 0.13702 0.93309 0.18045 0.0
H1081 H 0.08236 0.86764 0.16711 0.0
H1082 H 0.31198 0.97405 0.08746 0.0
H1083 H 0.25161 0.91713 0.07199 0.0
H1084 H 0.35503 0.98319 0.12265 0.0
H1085 H 0.34401 0.00446 0.15228 0.0
C1086 C 0.32491 0.17289 0.29652 0.0
C1087 C 0.32677 0.19533 0.2722 0.0
C1088 C 0.32291 0.27873 0.29058 0.0
C1089 C 0.30495 0.24864 0.3136 0.0
N1090 N 0.30902 0.17708 0.34082 0.0
N1091 N 0.32098 0.2678 0.24618 0.0
C1092 C 0.31201 0.19854 0.31737 0.0
C1093 C 0.32481 0.24823 0.26926 0.0
N1094 N 0.3384 0.12918 0.29972 0.0
N1095 N 0.34122 0.33747 0.28936 0.0
H1096 H 0.31776 0.24438 0.23013 0.0
H1097 H 0.31393 0.30323 0.24335 0.0
H1098 H 0.34748 0.36219 0.30546 0.0
H1099 H 0.35853 0.36258 0.27324 0.0
H1100 H 0.34209 0.11307 0.31694 0.0
H1101 H 0.35048 0.11173 0.28496 0.0
H1102 H 0.30241 0.13518 0.34463 0.0
H1103 H 0.31712 0.20318 0.35658 0.0
C1104 C 0.153 0.33438 0.46114 0.0
C1105 C 0.12651 0.29994 0.4394 0.0
C1106 C 0.02869 0.26006 0.4585 0.0
C1107 C 0.05494 0.2914 0.4806 0.0
N1108 N 0.1421 0.35225 0.50483 0.0
N1109 N 0.04028 0.21438 0.42207 0.0
C1110 C 0.11726 0.32671 0.48252 0.0
C1111 C 0.06487 0.25795 0.43949 0.0
N1112 N 0.21234 0.37372 0.46146 0.0
N1113 N 0.96892 0.23327 0.45519 0.0
H1114 H 0.06343 0.21102 0.40723 0.0
H1115 H 0.99739 0.17866 0.42348 0.0
H1116 H 0.94048 0.2341 0.46853 0.0
H1117 H 0.94835 0.21553 0.43819 0.0
H1118 H 0.23327 0.40524 0.47533 0.0
H1119 H 0.2408 0.37606 0.44734 0.0
H1120 H 0.18725 0.37347 0.50838 0.0
H1121 H 0.11698 0.34916 0.52045 0.0
C1122 C 0.74165 0.06315 0.6322 0.0
C1123 C 0.77939 0.04627 0.64427 0.0
C1124 C 0.86533 0.13323 0.62678 0.0
C1125 C 0.82804 0.143 0.61085 0.0
N1126 N 0.73382 0.13869 0.60907 0.0
N1127 N 0.87804 0.06368 0.65177 0.0
C1128 C 0.76662 0.11393 0.61639 0.0
C1129 C 0.84156 0.08125 0.64143 0.0
N1130 N 0.68207 0.0311 0.63608 0.0
N1131 N 0.92254 0.17681 0.62964 0.0
H1132 H 0.86271 0.02521 0.66228 0.0
H1133 H 0.92313 0.08457 0.64796 0.0
H1134 H 0.93712 0.21861 0.62209 0.0
H1135 H 0.95156 0.1747 0.64234 0.0
H1136 H 0.65133 0.03528 0.62527 0.0
H1137 H 0.66293 0.9984 0.64967 0.0
H1138 H 0.68947 0.12157 0.61342 0.0
H1139 H 0.75292 0.18136 0.60191 0.0
loop_
_geom_bond_atom_site_label_1
_geom_bond_atom_site_label_2
_geom_bond_distance
_geom_bond_site_symmetry_2
_ccdc_geom_bond_type
Co0 O2 2.143 . S
Co0 O8 2.074 . S
Co0 O11 2.093 . S
Co0 O24 2.097 . S
Co0 N41 2.151 . S
Co0 N49 2.214 . S
Co1 O2 2.160 . S
Co1 O7 2.058 . S
Co1 O17 2.057 . S
Co1 O32 2.037 . S
Co1 N36 2.145 . S
Co1 N57 2.257 . S
O2 Co0 2.143 . S
O2 Co1 2.160 . S
C3 O4 1.278 . S
C3 O11 1.224 . S
O4 C3 1.278 . S
C5 O6 1.245 . S
C5 O17 1.232 . S
O6 C5 1.245 . S
O7 Co1 2.058 . S
O7 C33 1.269 . S
O8 Co0 2.074 . S
O8 C33 1.257 . S
H9 C34 0.930 . S
H10 C40 0.930 . S
O11 Co0 2.093 . S
O11 C3 1.224 . S
H12 C44 0.929 . S
H13 C46 0.930 . S
H14 C47 0.930 . S
H15 C45 0.939 . S
H16 C48 0.928 1_655 S
O17 Co1 2.057 . S
O17 C5 1.232 . S
H18 C37 0.929 . S
H19 C38 0.929 . S
H20 C50 0.931 . S
H21 C42 0.929 . S
H22 C51 0.930 . S
H23 C43 0.931 . S
O24 Co0 2.097 . S
O24 C52 1.214 . S
H25 C53 0.929 . S
H26 C54 0.929 . S
H27 C55 0.930 . S
H28 C56 0.929 . S
H29 C58 0.930 . S
H30 C35 0.930 . S
H31 C39 0.930 . S
O32 Co1 2.037 . S
O32 C52 1.234 . S
C33 O7 1.269 . S
C33 O8 1.257 . S
C34 H9 0.930 . S
C34 C37 1.388 . S
C34 C39 1.418 . S
C35 H30 0.930 . S
C35 C38 1.404 . S
C35 C39 1.353 . S
N36 Co1 2.145 . S
N36 C37 1.397 . S
N36 C38 1.334 . S
C37 H18 0.929 . S
C37 C34 1.388 . S
C37 N36 1.397 . S
C38 H19 0.929 . S
C38 C35 1.404 . S
C38 N36 1.334 . S
C39 H31 0.930 . S
C39 C34 1.418 . S
C39 C35 1.353 . S
C40 H10 0.930 . S
C40 N41 1.330 1_655 S
C40 C42 1.446 . S
N41 Co0 2.151 . S
N41 C40 1.330 1_455 S
N41 C45 1.417 . S
C42 H21 0.929 . S
C42 C40 1.446 . S
C42 C43 1.332 . S
C43 H23 0.931 . S
C43 C42 1.332 . S
C43 C44 1.267 . S
C44 H12 0.929 . S
C44 C43 1.267 . S
C44 C45 1.242 1_655 S
C45 H15 0.939 . S
C45 N41 1.417 . S
C45 C44 1.242 1_455 S
C46 H13 0.930 . S
C46 C48 1.406 1_655 S
C46 C51 1.261 1_655 S
C47 H14 0.930 . S
C47 N49 1.325 . S
C47 C50 1.357 . S
C48 H16 0.928 1_455 S
C48 C46 1.406 1_455 S
C48 N49 1.261 . S
N49 Co0 2.214 . S
N49 C47 1.325 . S
N49 C48 1.261 . S
C50 H20 0.931 . S
C50 C47 1.357 . S
C50 C51 1.312 . S
C51 H22 0.930 . S
C51 C46 1.261 1_455 S
C51 C50 1.312 . S
C52 O24 1.214 . S
C52 O32 1.234 . S
C53 H25 0.929 . S
C53 C56 1.391 . S
C53 C58 1.391 . S
C54 H26 0.929 . S
C54 C55 1.390 . S
C54 N57 1.391 . S
C55 H27 0.930 . S
C55 C54 1.390 . S
C55 C56 1.392 . S
C56 H28 0.929 . S
C56 C53 1.391 . S
C56 C55 1.392 . S
N57 Co1 2.257 . S
N57 C54 1.391 . S
N57 C58 1.388 . S
C58 H29 0.930 . S
C58 C53 1.391 . S
C58 N57 1.388 . S
Co59 O61 2.143 . S
Co59 O67 2.074 . S
Co59 O70 2.093 . S
Co59 O83 2.097 . S
Co59 N100 2.151 . S
Co59 N108 2.214 . S
Co60 O61 2.160 . S
Co60 O66 2.058 . S
Co60 O76 2.057 . S
Co60 O91 2.037 . S
Co60 N95 2.145 . S
Co60 N116 2.257 . S
O61 Co59 2.143 . S
O61 Co60 2.160 . S
C62 O63 1.278 . S
C62 O70 1.224 . S
O63 C62 1.278 . S
C64 O65 1.245 . S
C64 O76 1.232 . S
O65 C64 1.245 . S
O66 Co60 2.058 . S
O66 C92 1.269 . S
O67 Co59 2.074 . S
O67 C92 1.257 . S
H68 C93 0.930 . S
H69 C99 0.930 . S
O70 Co59 2.093 . S
O70 C62 1.224 . S
H71 C103 0.929 . S
H72 C105 0.930 . S
H73 C106 0.930 . S
H74 C104 0.931 . S
H75 C107 0.928 1_565 S
O76 Co60 2.057 . S
O76 C64 1.232 . S
H77 C96 0.929 . S
H78 C97 0.929 . S
H79 C109 0.931 1_455 S
H80 C101 0.929 . S
H81 C110 0.930 1_455 S
H82 C102 0.931 . S
O83 Co59 2.097 . S
O83 C111 1.214 . S
H84 C112 0.929 . S
H85 C113 0.929 . S
H86 C114 0.930 . S
H87 C115 0.929 . S
H88 C117 0.930 . S
H89 C94 0.930 . S
H90 C98 0.930 . S
O91 Co60 2.037 . S
O91 C111 1.234 . S
C92 O66 1.269 . S
C92 O67 1.257 . S
C93 H68 0.930 . S
C93 C96 1.388 . S
C93 C98 1.418 . S
C94 H89 0.930 . S
C94 C97 1.404 . S
C94 C98 1.353 . S
N95 Co60 2.145 . S
N95 C96 1.397 . S
N95 C97 1.334 . S
C96 H77 0.929 . S
C96 C93 1.388 . S
C96 N95 1.397 . S
C97 H78 0.929 . S
C97 C94 1.404 . S
C97 N95 1.334 . S
C98 H90 0.930 . S
C98 C93 1.418 . S
C98 C94 1.353 . S
C99 H69 0.930 . S
C99 N100 1.330 1_565 S
C99 C101 1.446 . S
N100 Co59 2.151 . S
N100 C99 1.330 1_545 S
N100 C104 1.423 . S
C101 H80 0.929 . S
C101 C99 1.446 . S
C101 C102 1.332 . S
C102 H82 0.931 . S
C102 C101 1.332 . S
C102 C103 1.267 . S
C103 H71 0.929 . S
C103 C102 1.267 . S
C103 C104 1.244 1_565 S
C104 H74 0.931 . S
C104 N100 1.423 . S
C104 C103 1.244 1_545 S
C105 H72 0.930 . S
C105 C107 1.406 1_565 S
C105 C110 1.261 1_565 S
C106 H73 0.930 . S
C106 N108 1.325 . S
C106 C109 1.357 . S
C107 H75 0.928 1_545 S
C107 C105 1.406 1_545 S
C107 N108 1.261 . S
N108 Co59 2.214 . S
N108 C106 1.325 . S
N108 C107 1.261 . S
C109 H79 0.931 1_655 S
C109 C106 1.357 . S
C109 C110 1.312 . S
C110 H81 0.930 1_655 S
C110 C105 1.261 1_545 S
C110 C109 1.312 . S
C111 O83 1.214 . S
C111 O91 1.234 . S
C112 H84 0.929 . S
C112 C115 1.391 . S
C112 C117 1.391 . S
C113 H85 0.929 . S
C113 C114 1.390 . S
C113 N116 1.391 . S
C114 H86 0.930 . S
C114 C113 1.390 . S
C114 C115 1.392 . S
C115 H87 0.929 . S
C115 C112 1.391 . S
C115 C114 1.392 . S
N116 Co60 2.257 . S
N116 C113 1.391 . S
N116 C117 1.388 . S
C117 H88 0.930 . S
C117 C112 1.391 . S
C117 N116 1.388 . S
Co118 O120 2.143 . S
Co118 O126 2.074 . S
Co118 O129 2.093 . S
Co118 O142 2.097 . S
Co118 N159 2.151 . S
Co118 N167 2.214 . S
Co119 O120 2.160 . S
Co119 O125 2.058 . S
Co119 O135 2.057 . S
Co119 O150 2.037 . S
Co119 N154 2.145 . S
Co119 N175 2.257 . S
O120 Co118 2.143 . S
O120 Co119 2.160 . S
C121 O122 1.278 . S
C121 O129 1.224 . S
O122 C121 1.278 . S
C123 O124 1.245 . S
C123 O135 1.232 . S
O124 C123 1.245 . S
O125 Co119 2.058 . S
O125 C151 1.269 . S
O126 Co118 2.074 . S
O126 C151 1.257 . S
H127 C152 0.930 . S
H128 C158 0.930 . S
O129 Co118 2.093 . S
O129 C121 1.224 . S
H130 C162 0.929 . S
H131 C164 0.930 . S
H132 C165 0.930 . S
H133 C163 0.929 . S
H134 C166 0.928 . S
O135 Co119 2.057 . S
O135 C123 1.232 . S
H136 C155 0.929 . S
H137 C156 0.929 . S
H138 C168 0.931 1_545 S
H139 C160 0.929 . S
H140 C169 0.930 1_545 S
H141 C161 0.931 . S
O142 Co118 2.097 . S
O142 C170 1.214 . S
H143 C171 0.929 . S
H144 C172 0.929 . S
H145 C173 0.930 . S
H146 C174 0.929 . S
H147 C176 0.930 . S
H148 C153 0.930 . S
H149 C157 0.930 . S
O150 Co119 2.037 . S
O150 C170 1.234 . S
C151 O125 1.269 . S
C151 O126 1.257 . S
C152 H127 0.930 . S
C152 C155 1.388 . S
C152 C157 1.418 . S
C153 H148 0.930 . S
C153 C156 1.404 . S
C153 C157 1.353 . S
N154 Co119 2.145 . S
N154 C155 1.397 . S
N154 C156 1.334 . S
C155 H136 0.929 . S
C155 C152 1.388 . S
C155 N154 1.397 . S
C156 H137 0.929 . S
C156 C153 1.404 . S
C156 N154 1.334 . S
C157 H149 0.930 . S
C157 C152 1.418 . S
C157 C153 1.353 . S
C158 H128 0.930 . S
C158 N159 1.330 . S
C158 C160 1.446 . S
N159 Co118 2.151 . S
N159 C158 1.330 . S
N159 C163 1.418 . S
C160 H139 0.929 . S
C160 C158 1.446 . S
C160 C161 1.332 . S
C161 H141 0.931 . S
C161 C160 1.332 . S
C161 C162 1.267 . S
C162 H130 0.929 . S
C162 C161 1.267 . S
C162 C163 1.251 . S
C163 H133 0.929 . S
C163 N159 1.418 . S
C163 C162 1.251 . S
C164 H131 0.930 . S
C164 C166 1.406 . S
C164 C169 1.261 . S
C165 H132 0.930 . S
C165 N167 1.325 . S
C165 C168 1.357 . S
C166 H134 0.928 . S
C166 C164 1.406 . S
C166 N167 1.261 . S
N167 Co118 2.214 . S
N167 C165 1.325 . S
N167 C166 1.261 . S
C168 H138 0.931 1_565 S
C168 C165 1.357 . S
C168 C169 1.312 . S
C169 H140 0.930 1_565 S
C169 C164 1.261 . S
C169 C168 1.312 . S
C170 O142 1.214 . S
C170 O150 1.234 . S
C171 H143 0.929 . S
C171 C174 1.391 . S
C171 C176 1.391 . S
C172 H144 0.929 . S
C172 C173 1.390 . S
C172 N175 1.391 . S
C173 H145 0.930 . S
C173 C172 1.390 . S
C173 C174 1.392 . S
C174 H146 0.929 . S
C174 C171 1.391 . S
C174 C173 1.392 . S
N175 Co119 2.257 . S
N175 C172 1.391 . S
N175 C176 1.388 . S
C176 H147 0.930 . S
C176 C171 1.391 . S
C176 N175 1.388 . S
Co177 O179 2.143 . S
Co177 O185 2.074 . S
Co177 O188 2.093 . S
Co177 O201 2.097 . S
Co177 N218 2.151 . S
Co177 N226 2.214 . S
Co178 O179 2.160 . S
Co178 O184 2.058 . S
Co178 O194 2.057 . S
Co178 O209 2.037 . S
Co178 N213 2.145 . S
Co178 N234 2.257 . S
O179 Co177 2.143 . S
O179 Co178 2.160 . S
C180 O181 1.278 . S
C180 O188 1.224 . S
O181 C180 1.278 . S
C182 O183 1.245 . S
C182 O194 1.232 . S
O183 C182 1.245 . S
O184 Co178 2.058 . S
O184 C210 1.269 . S
O185 Co177 2.074 . S
O185 C210 1.257 . S
H186 C211 0.930 . S
H187 C217 0.930 . S
O188 Co177 2.093 . S
O188 C180 1.224 . S
H189 C221 0.929 . S
H190 C223 0.930 . S
H191 C224 0.930 . S
H192 C222 0.939 . S
H193 C225 0.928 1_455 S
O194 Co178 2.057 . S
O194 C182 1.232 . S
H195 C214 0.929 . S
H196 C215 0.929 . S
H197 C227 0.931 . S
H198 C219 0.929 . S
H199 C228 0.930 . S
H200 C220 0.931 . S
O201 Co177 2.097 . S
O201 C229 1.214 . S
H202 C230 0.929 . S
H203 C231 0.929 . S
H204 C232 0.930 . S
H205 C233 0.929 . S
H206 C235 0.930 . S
H207 C212 0.930 . S
H208 C216 0.930 . S
O209 Co178 2.037 . S
O209 C229 1.234 . S
C210 O184 1.269 . S
C210 O185 1.257 . S
C211 H186 0.930 . S
C211 C214 1.388 . S
C211 C216 1.418 . S
C212 H207 0.930 . S
C212 C215 1.404 . S
C212 C216 1.353 . S
N213 Co178 2.145 . S
N213 C214 1.397 . S
N213 C215 1.334 . S
C214 H195 0.929 . S
C214 C211 1.388 . S
C214 N213 1.397 . S
C215 H196 0.929 . S
C215 C212 1.404 . S
C215 N213 1.334 . S
C216 H208 0.930 . S
C216 C211 1.418 . S
C216 C212 1.353 . S
C217 H187 0.930 . S
C217 N218 1.330 1_455 S
C217 C219 1.446 . S
N218 Co177 2.151 . S
N218 C217 1.330 1_655 S
N218 C222 1.417 . S
C219 H198 0.929 . S
C219 C217 1.446 . S
C219 C220 1.332 . S
C220 H200 0.931 . S
C220 C219 1.332 . S
C220 C221 1.267 . S
C221 H189 0.929 . S
C221 C220 1.267 . S
C221 C222 1.242 1_455 S
C222 H192 0.939 . S
C222 N218 1.417 . S
C222 C221 1.242 1_655 S
C223 H190 0.930 . S
C223 C225 1.406 1_455 S
C223 C228 1.261 1_455 S
C224 H191 0.930 . S
C224 N226 1.325 . S
C224 C227 1.357 . S
C225 H193 0.928 1_655 S
C225 C223 1.406 1_655 S
C225 N226 1.261 . S
N226 Co177 2.214 . S
N226 C224 1.325 . S
N226 C225 1.261 . S
C227 H197 0.931 . S
C227 C224 1.357 . S
C227 C228 1.312 . S
C228 H199 0.930 . S
C228 C223 1.261 1_655 S
C228 C227 1.312 . S
C229 O201 1.214 . S
C229 O209 1.234 . S
C230 H202 0.929 . S
C230 C233 1.391 . S
C230 C235 1.391 . S
C231 H203 0.929 . S
C231 C232 1.390 . S
C231 N234 1.391 . S
C232 H204 0.930 . S
C232 C231 1.390 . S
C232 C233 1.392 . S
C233 H205 0.929 . S
C233 C230 1.391 . S
C233 C232 1.392 . S
N234 Co178 2.257 . S
N234 C231 1.391 . S
N234 C235 1.388 . S
C235 H206 0.930 . S
C235 C230 1.391 . S
C235 N234 1.388 . S
Co236 O238 2.143 . S
Co236 O244 2.074 . S
Co236 O247 2.093 . S
Co236 O260 2.097 . S
Co236 N277 2.151 . S
Co236 N285 2.214 . S
Co237 O238 2.160 . S
Co237 O243 2.058 . S
Co237 O253 2.057 . S
Co237 O268 2.037 . S
Co237 N272 2.145 . S
Co237 N293 2.257 . S
O238 Co236 2.143 . S
O238 Co237 2.160 . S
C239 O240 1.278 . S
C239 O247 1.224 . S
O240 C239 1.278 . S
C241 O242 1.245 . S
C241 O253 1.232 . S
O242 C241 1.245 . S
O243 Co237 2.058 . S
O243 C269 1.269 . S
O244 Co236 2.074 . S
O244 C269 1.257 . S
H245 C270 0.930 . S
H246 C276 0.930 . S
O247 Co236 2.093 . S
O247 C239 1.224 . S
H248 C280 0.929 . S
H249 C282 0.930 . S
H250 C283 0.930 . S
H251 C281 0.931 . S
H252 C284 0.928 1_545 S
O253 Co237 2.057 . S
O253 C241 1.232 . S
H254 C273 0.929 . S
H255 C274 0.929 . S
H256 C286 0.931 1_655 S
H257 C278 0.929 . S
H258 C287 0.930 1_655 S
H259 C279 0.931 . S
O260 Co236 2.097 . S
O260 C288 1.214 . S
H261 C289 0.929 . S
H262 C290 0.929 . S
H263 C291 0.930 . S
H264 C292 0.929 . S
H265 C294 0.930 . S
H266 C271 0.930 . S
H267 C275 0.930 . S
O268 Co237 2.037 . S
O268 C288 1.234 . S
C269 O243 1.269 . S
C269 O244 1.257 . S
C270 H245 0.930 . S
C270 C273 1.388 . S
C270 C275 1.418 . S
C271 H266 0.930 . S
C271 C274 1.404 . S
C271 C275 1.353 . S
N272 Co237 2.145 . S
N272 C273 1.397 . S
N272 C274 1.334 . S
C273 H254 0.929 . S
C273 C270 1.388 . S
C273 N272 1.397 . S
C274 H255 0.929 . S
C274 C271 1.404 . S
C274 N272 1.334 . S
C275 H267 0.930 . S
C275 C270 1.418 . S
C275 C271 1.353 . S
C276 H246 0.930 . S
C276 N277 1.330 1_545 S
C276 C278 1.446 . S
N277 Co236 2.151 . S
N277 C276 1.330 1_565 S
N277 C281 1.423 . S
C278 H257 0.929 . S
C278 C276 1.446 . S
C278 C279 1.332 . S
C279 H259 0.931 . S
C279 C278 1.332 . S
C279 C280 1.267 . S
C280 H248 0.929 . S
C280 C279 1.267 . S
C280 C281 1.244 1_545 S
C281 H251 0.931 . S
C281 N277 1.423 . S
C281 C280 1.244 1_565 S
C282 H249 0.930 . S
C282 C284 1.406 1_545 S
C282 C287 1.261 1_545 S
C283 H250 0.930 . S
C283 N285 1.325 . S
C283 C286 1.357 . S
C284 H252 0.928 1_565 S
C284 C282 1.406 1_565 S
C284 N285 1.261 . S
N285 Co236 2.214 . S
N285 C283 1.325 . S
N285 C284 1.261 . S
C286 H256 0.931 1_455 S
C286 C283 1.357 . S
C286 C287 1.312 . S
C287 H258 0.930 1_455 S
C287 C282 1.261 1_565 S
C287 C286 1.312 . S
C288 O260 1.214 . S
C288 O268 1.234 . S
C289 H261 0.929 . S
C289 C292 1.391 . S
C289 C294 1.391 . S
C290 H262 0.929 . S
C290 C291 1.390 . S
C290 N293 1.391 . S
C291 H263 0.930 . S
C291 C290 1.390 . S
C291 C292 1.392 . S
C292 H264 0.929 . S
C292 C289 1.391 . S
C292 C291 1.392 . S
N293 Co237 2.257 . S
N293 C290 1.391 . S
N293 C294 1.388 . S
C294 H265 0.930 . S
C294 C289 1.391 . S
C294 N293 1.388 . S
Co295 O297 2.143 . S
Co295 O303 2.074 . S
Co295 O306 2.093 . S
Co295 O319 2.097 . S
Co295 N336 2.151 . S
Co295 N344 2.214 . S
Co296 O297 2.160 . S
Co296 O302 2.058 . S
Co296 O312 2.057 . S
Co296 O327 2.037 . S
Co296 N331 2.145 . S
Co296 N352 2.257 . S
O297 Co295 2.143 . S
O297 Co296 2.160 . S
C298 O299 1.276 1_556 S
C298 O306 1.247 . S
O299 C298 1.276 1_554 S
C300 O301 1.245 . S
C300 O312 1.232 . S
O301 C300 1.245 . S
O302 Co296 2.058 . S
O302 C328 1.269 . S
O303 Co295 2.074 . S
O303 C328 1.257 . S
H304 C329 0.930 . S
H305 C335 0.930 . S
O306 Co295 2.093 . S
O306 C298 1.247 . S
H307 C339 0.929 . S
H308 C341 0.930 . S
H309 C342 0.930 . S
H310 C340 0.929 . S
H311 C343 0.928 . S
O312 Co296 2.057 . S
O312 C300 1.232 . S
H313 C332 0.929 . S
H314 C333 0.929 . S
H315 C345 0.931 1_565 S
H316 C337 0.929 . S
H317 C346 0.930 1_565 S
H318 C338 0.931 . S
O319 Co295 2.097 . S
O319 C347 1.214 . S
H320 C348 0.929 . S
H321 C349 0.929 . S
H322 C350 0.930 . S
H323 C351 0.929 . S
H324 C353 0.930 . S
H325 C330 0.930 . S
H326 C334 0.930 . S
O327 Co296 2.037 . S
O327 C347 1.234 . S
C328 O302 1.269 . S
C328 O303 1.257 . S
C329 H304 0.930 . S
C329 C332 1.388 . S
C329 C334 1.418 . S
C330 H325 0.930 . S
C330 C333 1.404 . S
C330 C334 1.353 . S
N331 Co296 2.145 . S
N331 C332 1.397 . S
N331 C333 1.334 . S
C332 H313 0.929 . S
C332 C329 1.388 . S
C332 N331 1.397 . S
C333 H314 0.929 . S
C333 C330 1.404 . S
C333 N331 1.334 . S
C334 H326 0.930 . S
C334 C329 1.418 . S
C334 C330 1.353 . S
C335 H305 0.930 . S
C335 N336 1.330 . S
C335 C337 1.446 . S
N336 Co295 2.151 . S
N336 C335 1.330 . S
N336 C340 1.418 . S
C337 H316 0.929 . S
C337 C335 1.446 . S
C337 C338 1.332 . S
C338 H318 0.931 . S
C338 C337 1.332 . S
C338 C339 1.267 . S
C339 H307 0.929 . S
C339 C338 1.267 . S
C339 C340 1.251 . S
C340 H310 0.929 . S
C340 N336 1.418 . S
C340 C339 1.251 . S
C341 H308 0.930 . S
C341 C343 1.406 . S
C341 C346 1.261 . S
C342 H309 0.930 . S
C342 N344 1.325 . S
C342 C345 1.357 . S
C343 H311 0.928 . S
C343 C341 1.406 . S
C343 N344 1.261 . S
N344 Co295 2.214 . S
N344 C342 1.325 . S
N344 C343 1.261 . S
C345 H315 0.931 1_545 S
C345 C342 1.357 . S
C345 C346 1.312 . S
C346 H317 0.930 1_545 S
C346 C341 1.261 . S
C346 C345 1.312 . S
C347 O319 1.214 . S
C347 O327 1.234 . S
C348 H320 0.929 . S
C348 C351 1.391 . S
C348 C353 1.391 1_554 S
C349 H321 0.929 . S
C349 C350 1.390 . S
C349 N352 1.391 1_554 S
C350 H322 0.930 . S
C350 C349 1.390 . S
C350 C351 1.392 . S
C351 H323 0.929 . S
C351 C348 1.391 . S
C351 C350 1.392 . S
N352 Co296 2.257 . S
N352 C349 1.391 1_556 S
N352 C353 1.388 . S
C353 H324 0.930 . S
C353 C348 1.391 1_556 S
C353 N352 1.388 . S
Co354 O356 2.143 . S
Co354 O362 2.074 . S
Co354 O365 2.093 . S
Co354 O378 2.097 . S
Co354 N395 2.151 . S
Co354 N403 2.214 . S
Co355 O356 2.160 . S
Co355 O361 2.058 . S
Co355 O371 2.057 . S
Co355 O386 2.037 . S
Co355 N390 2.145 . S
Co355 N411 2.257 . S
O356 Co354 2.143 . S
O356 Co355 2.160 . S
C357 O358 1.278 . S
C357 O365 1.224 . S
O358 C357 1.278 . S
C359 O360 1.245 . S
C359 O371 1.232 . S
O360 C359 1.245 . S
O361 Co355 2.058 . S
O361 C387 1.269 . S
O362 Co354 2.074 . S
O362 C387 1.257 . S
H363 C388 0.930 . S
H364 C394 0.930 . S
O365 Co354 2.093 . S
O365 C357 1.224 . S
H366 C398 0.929 . S
H367 C400 0.930 . S
H368 C401 0.930 . S
H369 C399 0.939 . S
H370 C402 0.928 1_545 S
O371 Co355 2.057 . S
O371 C359 1.232 . S
H372 C391 0.929 . S
H373 C392 0.929 . S
H374 C404 0.931 . S
H375 C396 0.929 . S
H376 C405 0.930 . S
H377 C397 0.931 . S
O378 Co354 2.097 . S
O378 C406 1.214 . S
H379 C407 0.929 . S
H380 C408 0.929 . S
H381 C409 0.930 . S
H382 C410 0.929 . S
H383 C412 0.930 . S
H384 C389 0.930 . S
H385 C393 0.930 . S
O386 Co355 2.037 . S
O386 C406 1.234 . S
C387 O361 1.269 . S
C387 O362 1.257 . S
C388 H363 0.930 . S
C388 C391 1.388 . S
C388 C393 1.418 . S
C389 H384 0.930 . S
C389 C392 1.404 . S
C389 C393 1.353 . S
N390 Co355 2.145 . S
N390 C391 1.397 . S
N390 C392 1.334 . S
C391 H372 0.929 . S
C391 C388 1.388 . S
C391 N390 1.397 . S
C392 H373 0.929 . S
C392 C389 1.404 . S
C392 N390 1.334 . S
C393 H385 0.930 . S
C393 C388 1.418 . S
C393 C389 1.353 . S
C394 H364 0.930 . S
C394 N395 1.330 1_545 S
C394 C396 1.446 . S
N395 Co354 2.151 . S
N395 C394 1.330 1_565 S
N395 C399 1.417 . S
C396 H375 0.929 . S
C396 C394 1.446 . S
C396 C397 1.332 . S
C397 H377 0.931 . S
C397 C396 1.332 . S
C397 C398 1.267 . S
C398 H366 0.929 . S
C398 C397 1.267 . S
C398 C399 1.242 1_545 S
C399 H369 0.939 . S
C399 N395 1.417 . S
C399 C398 1.242 1_565 S
C400 H367 0.930 . S
C400 C402 1.406 1_545 S
C400 C405 1.261 1_545 S
C401 H368 0.930 . S
C401 N403 1.325 . S
C401 C404 1.357 . S
C402 H370 0.928 1_565 S
C402 C400 1.406 1_565 S
C402 N403 1.261 . S
N403 Co354 2.214 . S
N403 C401 1.325 . S
N403 C402 1.261 . S
C404 H374 0.931 . S
C404 C401 1.357 . S
C404 C405 1.312 . S
C405 H376 0.930 . S
C405 C400 1.261 1_565 S
C405 C404 1.312 . S
C406 O378 1.214 . S
C406 O386 1.234 . S
C407 H379 0.929 . S
C407 C410 1.391 . S
C407 C412 1.391 . S
C408 H380 0.929 . S
C408 C409 1.390 . S
C408 N411 1.391 . S
C409 H381 0.930 . S
C409 C408 1.390 . S
C409 C410 1.392 . S
C410 H382 0.929 . S
C410 C407 1.391 . S
C410 C409 1.392 . S
N411 Co355 2.257 . S
N411 C408 1.391 . S
N411 C412 1.388 . S
C412 H383 0.930 . S
C412 C407 1.391 . S
C412 N411 1.388 . S
Co413 O415 2.143 . S
Co413 O421 2.074 . S
Co413 O424 2.093 . S
Co413 O437 2.097 . S
Co413 N454 2.151 . S
Co413 N462 2.214 . S
Co414 O415 2.160 . S
Co414 O420 2.058 . S
Co414 O430 2.057 . S
Co414 O445 2.037 . S
Co414 N449 2.145 . S
Co414 N470 2.257 . S
O415 Co413 2.143 . S
O415 Co414 2.160 . S
C416 O417 1.278 . S
C416 O424 1.224 . S
O417 C416 1.278 . S
C418 O419 1.245 . S
C418 O430 1.232 . S
O419 C418 1.245 . S
O420 Co414 2.058 . S
O420 C446 1.269 . S
O421 Co413 2.074 . S
O421 C446 1.257 . S
H422 C447 0.930 . S
H423 C453 0.930 . S
O424 Co413 2.093 . S
O424 C416 1.224 . S
H425 C457 0.929 . S
H426 C459 0.930 . S
H427 C460 0.930 . S
H428 C458 0.929 . S
H429 C461 0.928 . S
O430 Co414 2.057 . S
O430 C418 1.232 . S
H431 C450 0.929 . S
H432 C451 0.929 . S
H433 C463 0.931 1_455 S
H434 C455 0.929 . S
H435 C464 0.930 1_455 S
H436 C456 0.931 . S
O437 Co413 2.097 . S
O437 C465 1.214 . S
H438 C466 0.929 . S
H439 C467 0.929 . S
H440 C468 0.930 . S
H441 C469 0.929 . S
H442 C471 0.930 . S
H443 C448 0.930 . S
H444 C452 0.930 . S
O445 Co414 2.037 . S
O445 C465 1.234 . S
C446 O420 1.269 . S
C446 O421 1.257 . S
C447 H422 0.930 . S
C447 C450 1.388 . S
C447 C452 1.418 . S
C448 H443 0.930 . S
C448 C451 1.404 . S
C448 C452 1.353 . S
N449 Co414 2.145 . S
N449 C450 1.397 . S
N449 C451 1.334 . S
C450 H431 0.929 . S
C450 C447 1.388 . S
C450 N449 1.397 . S
C451 H432 0.929 . S
C451 C448 1.404 . S
C451 N449 1.334 . S
C452 H444 0.930 . S
C452 C447 1.418 . S
C452 C448 1.353 . S
C453 H423 0.930 . S
C453 N454 1.330 . S
C453 C455 1.446 . S
N454 Co413 2.151 . S
N454 C453 1.330 . S
N454 C458 1.418 . S
C455 H434 0.929 . S
C455 C453 1.446 . S
C455 C456 1.332 . S
C456 H436 0.931 . S
C456 C455 1.332 . S
C456 C457 1.267 . S
C457 H425 0.929 . S
C457 C456 1.267 . S
C457 C458 1.251 . S
C458 H428 0.929 . S
C458 N454 1.418 . S
C458 C457 1.251 . S
C459 H426 0.930 . S
C459 C461 1.406 . S
C459 C464 1.261 . S
C460 H427 0.930 . S
C460 N462 1.325 . S
C460 C463 1.357 . S
C461 H429 0.928 . S
C461 C459 1.406 . S
C461 N462 1.261 . S
N462 Co413 2.214 . S
N462 C460 1.325 . S
N462 C461 1.261 . S
C463 H433 0.931 1_655 S
C463 C460 1.357 . S
C463 C464 1.312 . S
C464 H435 0.930 1_655 S
C464 C459 1.261 . S
C464 C463 1.312 . S
C465 O437 1.214 . S
C465 O445 1.234 . S
C466 H438 0.929 . S
C466 C469 1.391 . S
C466 C471 1.391 . S
C467 H439 0.929 . S
C467 C468 1.390 . S
C467 N470 1.391 . S
C468 H440 0.930 . S
C468 C467 1.390 . S
C468 C469 1.392 . S
C469 H441 0.929 . S
C469 C466 1.391 . S
C469 C468 1.392 . S
N470 Co414 2.257 . S
N470 C467 1.391 . S
N470 C471 1.388 . S
C471 H442 0.930 . S
C471 C466 1.391 . S
C471 N470 1.388 . S
Co472 O474 2.143 . S
Co472 O480 2.074 . S
Co472 O483 2.093 . S
Co472 O496 2.097 . S
Co472 N513 2.151 . S
Co472 N521 2.214 . S
Co473 O474 2.160 . S
Co473 O479 2.058 . S
Co473 O489 2.057 . S
Co473 O504 2.037 . S
Co473 N508 2.145 . S
Co473 N529 2.257 . S
O474 Co472 2.143 . S
O474 Co473 2.160 . S
C475 O476 1.276 1_554 S
C475 O483 1.247 . S
O476 C475 1.276 1_556 S
C477 O478 1.245 . S
C477 O489 1.232 . S
O478 C477 1.245 . S
O479 Co473 2.058 . S
O479 C505 1.269 . S
O480 Co472 2.074 . S
O480 C505 1.257 . S
H481 C506 0.930 . S
H482 C512 0.930 . S
O483 Co472 2.093 . S
O483 C475 1.247 . S
H484 C516 0.929 . S
H485 C518 0.930 . S
H486 C519 0.930 . S
H487 C517 0.931 . S
H488 C520 0.928 1_655 S
O489 Co473 2.057 . S
O489 C477 1.232 . S
H490 C509 0.929 . S
H491 C510 0.929 . S
H492 C522 0.931 1_545 S
H493 C514 0.929 . S
H494 C523 0.930 1_545 S
H495 C515 0.931 . S
O496 Co472 2.097 . S
O496 C524 1.214 . S
H497 C525 0.929 . S
H498 C526 0.929 . S
H499 C527 0.930 . S
H500 C528 0.929 . S
H501 C530 0.930 . S
H502 C507 0.930 . S
H503 C511 0.930 . S
O504 Co473 2.037 . S
O504 C524 1.234 . S
C505 O479 1.269 . S
C505 O480 1.257 . S
C506 H481 0.930 . S
C506 C509 1.388 . S
C506 C511 1.418 . S
C507 H502 0.930 . S
C507 C510 1.404 . S
C507 C511 1.353 . S
N508 Co473 2.145 . S
N508 C509 1.397 . S
N508 C510 1.334 . S
C509 H490 0.929 . S
C509 C506 1.388 . S
C509 N508 1.397 . S
C510 H491 0.929 . S
C510 C507 1.404 . S
C510 N508 1.334 . S
C511 H503 0.930 . S
C511 C506 1.418 . S
C511 C507 1.353 . S
C512 H482 0.930 . S
C512 N513 1.330 1_655 S
C512 C514 1.446 . S
N513 Co472 2.151 . S
N513 C512 1.330 1_455 S
N513 C517 1.424 . S
C514 H493 0.929 . S
C514 C512 1.446 . S
C514 C515 1.332 . S
C515 H495 0.931 . S
C515 C514 1.332 . S
C515 C516 1.267 . S
C516 H484 0.929 . S
C516 C515 1.267 . S
C516 C517 1.243 1_655 S
C517 H487 0.931 . S
C517 N513 1.424 . S
C517 C516 1.243 1_455 S
C518 H485 0.930 . S
C518 C520 1.406 1_655 S
C518 C523 1.261 1_655 S
C519 H486 0.930 . S
C519 N521 1.325 . S
C519 C522 1.357 . S
C520 H488 0.928 1_455 S
C520 C518 1.406 1_455 S
C520 N521 1.261 . S
N521 Co472 2.214 . S
N521 C519 1.325 . S
N521 C520 1.261 . S
C522 H492 0.931 1_565 S
C522 C519 1.357 . S
C522 C523 1.312 . S
C523 H494 0.930 1_565 S
C523 C518 1.261 1_455 S
C523 C522 1.312 . S
C524 O496 1.214 . S
C524 O504 1.234 . S
C525 H497 0.929 . S
C525 C528 1.391 . S
C525 C530 1.391 1_556 S
C526 H498 0.929 . S
C526 C527 1.390 . S
C526 N529 1.391 1_556 S
C527 H499 0.930 . S
C527 C526 1.390 . S
C527 C528 1.392 . S
C528 H500 0.929 . S
C528 C525 1.391 . S
C528 C527 1.392 . S
N529 Co473 2.257 . S
N529 C526 1.391 1_554 S
N529 C530 1.388 . S
C530 H501 0.930 . S
C530 C525 1.391 1_554 S
C530 N529 1.388 . S
Co531 O533 2.143 . S
Co531 O539 2.074 . S
Co531 O542 2.093 . S
Co531 O555 2.097 . S
Co531 N572 2.151 . S
Co531 N580 2.214 . S
Co532 O533 2.160 . S
Co532 O538 2.058 . S
Co532 O548 2.057 . S
Co532 O563 2.037 . S
Co532 N567 2.145 . S
Co532 N588 2.257 . S
O533 Co531 2.143 . S
O533 Co532 2.160 . S
C534 O535 1.278 . S
C534 O542 1.224 . S
O535 C534 1.278 . S
C536 O537 1.245 . S
C536 O548 1.232 . S
O537 C536 1.245 . S
O538 Co532 2.058 . S
O538 C564 1.269 . S
O539 Co531 2.074 . S
O539 C564 1.257 . S
H540 C565 0.930 . S
H541 C571 0.930 . S
O542 Co531 2.093 . S
O542 C534 1.224 . S
H543 C575 0.929 . S
H544 C577 0.930 . S
H545 C578 0.930 . S
H546 C576 0.939 . S
H547 C579 0.928 1_565 S
O548 Co532 2.057 . S
O548 C536 1.232 . S
H549 C568 0.929 . S
H550 C569 0.929 . S
H551 C581 0.931 . S
H552 C573 0.929 . S
H553 C582 0.930 . S
H554 C574 0.931 . S
O555 Co531 2.097 . S
O555 C583 1.214 . S
H556 C584 0.929 . S
H557 C585 0.929 . S
H558 C586 0.930 . S
H559 C587 0.929 . S
H560 C589 0.930 . S
H561 C566 0.930 . S
H562 C570 0.930 . S
O563 Co532 2.037 . S
O563 C583 1.234 . S
C564 O538 1.269 . S
C564 O539 1.257 . S
C565 H540 0.930 . S
C565 C568 1.388 . S
C565 C570 1.418 . S
C566 H561 0.930 . S
C566 C569 1.404 . S
C566 C570 1.353 . S
N567 Co532 2.145 . S
N567 C568 1.397 . S
N567 C569 1.334 . S
C568 H549 0.929 . S
C568 C565 1.388 . S
C568 N567 1.397 . S
C569 H550 0.929 . S
C569 C566 1.404 . S
C569 N567 1.334 . S
C570 H562 0.930 . S
C570 C565 1.418 . S
C570 C566 1.353 . S
C571 H541 0.930 . S
C571 N572 1.330 1_565 S
C571 C573 1.446 . S
N572 Co531 2.151 . S
N572 C571 1.330 1_545 S
N572 C576 1.417 . S
C573 H552 0.929 . S
C573 C571 1.446 . S
C573 C574 1.332 . S
C574 H554 0.931 . S
C574 C573 1.332 . S
C574 C575 1.267 . S
C575 H543 0.929 . S
C575 C574 1.267 . S
C575 C576 1.242 1_565 S
C576 H546 0.939 . S
C576 N572 1.417 . S
C576 C575 1.242 1_545 S
C577 H544 0.930 . S
C577 C579 1.406 1_565 S
C577 C582 1.261 1_565 S
C578 H545 0.930 . S
C578 N580 1.325 . S
C578 C581 1.357 . S
C579 H547 0.928 1_545 S
C579 C577 1.406 1_545 S
C579 N580 1.261 . S
N580 Co531 2.214 . S
N580 C578 1.325 . S
N580 C579 1.261 . S
C581 H551 0.931 . S
C581 C578 1.357 . S
C581 C582 1.312 . S
C582 H553 0.930 . S
C582 C577 1.261 1_545 S
C582 C581 1.312 . S
C583 O555 1.214 . S
C583 O563 1.234 . S
C584 H556 0.929 . S
C584 C587 1.391 . S
C584 C589 1.391 . S
C585 H557 0.929 . S
C585 C586 1.390 . S
C585 N588 1.391 . S
C586 H558 0.930 . S
C586 C585 1.390 . S
C586 C587 1.392 . S
C587 H559 0.929 . S
C587 C584 1.391 . S
C587 C586 1.392 . S
N588 Co532 2.257 . S
N588 C585 1.391 . S
N588 C589 1.388 . S
C589 H560 0.930 . S
C589 C584 1.391 . S
C589 N588 1.388 . S
Co590 O592 2.143 . S
Co590 O598 2.074 . S
Co590 O601 2.093 . S
Co590 O614 2.097 . S
Co590 N631 2.151 . S
Co590 N639 2.214 . S
Co591 O592 2.160 . S
Co591 O597 2.058 . S
Co591 O607 2.057 . S
Co591 O622 2.037 . S
Co591 N626 2.145 . S
Co591 N647 2.257 . S
O592 Co590 2.143 . S
O592 Co591 2.160 . S
C593 O594 1.278 . S
C593 O601 1.224 . S
O594 C593 1.278 . S
C595 O596 1.245 . S
C595 O607 1.232 . S
O596 C595 1.245 . S
O597 Co591 2.058 . S
O597 C623 1.269 . S
O598 Co590 2.074 . S
O598 C623 1.257 . S
H599 C624 0.930 . S
H600 C630 0.930 . S
O601 Co590 2.093 . S
O601 C593 1.224 . S
H602 C634 0.929 . S
H603 C636 0.930 . S
H604 C637 0.930 . S
H605 C635 0.929 . S
H606 C638 0.928 . S
O607 Co591 2.057 . S
O607 C595 1.232 . S
H608 C627 0.929 . S
H609 C628 0.929 . S
H610 C640 0.931 1_655 S
H611 C632 0.929 . S
H612 C641 0.930 1_655 S
H613 C633 0.931 . S
O614 Co590 2.097 . S
O614 C642 1.214 . S
H615 C643 0.929 . S
H616 C644 0.929 . S
H617 C645 0.930 . S
H618 C646 0.929 . S
H619 C648 0.930 . S
H620 C625 0.930 . S
H621 C629 0.930 . S
O622 Co591 2.037 . S
O622 C642 1.234 . S
C623 O597 1.269 . S
C623 O598 1.257 . S
C624 H599 0.930 . S
C624 C627 1.388 . S
C624 C629 1.418 . S
C625 H620 0.930 . S
C625 C628 1.404 . S
C625 C629 1.353 . S
N626 Co591 2.145 . S
N626 C627 1.397 . S
N626 C628 1.334 . S
C627 H608 0.929 . S
C627 C624 1.388 . S
C627 N626 1.397 . S
C628 H609 0.929 . S
C628 C625 1.404 . S
C628 N626 1.334 . S
C629 H621 0.930 . S
C629 C624 1.418 . S
C629 C625 1.353 . S
C630 H600 0.930 . S
C630 N631 1.330 . S
C630 C632 1.446 . S
N631 Co590 2.151 . S
N631 C630 1.330 . S
N631 C635 1.418 . S
C632 H611 0.929 . S
C632 C630 1.446 . S
C632 C633 1.332 . S
C633 H613 0.931 . S
C633 C632 1.332 . S
C633 C634 1.267 . S
C634 H602 0.929 . S
C634 C633 1.267 . S
C634 C635 1.251 . S
C635 H605 0.929 . S
C635 N631 1.418 . S
C635 C634 1.251 . S
C636 H603 0.930 . S
C636 C638 1.406 . S
C636 C641 1.261 . S
C637 H604 0.930 . S
C637 N639 1.325 . S
C637 C640 1.357 . S
C638 H606 0.928 . S
C638 C636 1.406 . S
C638 N639 1.261 . S
N639 Co590 2.214 . S
N639 C637 1.325 . S
N639 C638 1.261 . S
C640 H610 0.931 1_455 S
C640 C637 1.357 . S
C640 C641 1.312 . S
C641 H612 0.930 1_455 S
C641 C636 1.261 . S
C641 C640 1.312 . S
C642 O614 1.214 . S
C642 O622 1.234 . S
C643 H615 0.929 . S
C643 C646 1.391 . S
C643 C648 1.391 . S
C644 H616 0.929 . S
C644 C645 1.390 . S
C644 N647 1.391 . S
C645 H617 0.930 . S
C645 C644 1.390 . S
C645 C646 1.392 . S
C646 H618 0.929 . S
C646 C643 1.391 . S
C646 C645 1.392 . S
N647 Co591 2.257 . S
N647 C644 1.391 . S
N647 C648 1.388 . S
C648 H619 0.930 . S
C648 C643 1.391 . S
C648 N647 1.388 . S
Co649 O651 2.143 . S
Co649 O657 2.074 . S
Co649 O660 2.093 . S
Co649 O673 2.097 . S
Co649 N690 2.151 . S
Co649 N698 2.214 . S
Co650 O651 2.160 . S
Co650 O656 2.058 . S
Co650 O666 2.057 . S
Co650 O681 2.037 . S
Co650 N685 2.145 . S
Co650 N706 2.257 . S
O651 Co649 2.143 . S
O651 Co650 2.160 . S
C652 O653 1.278 . S
C652 O660 1.224 . S
O653 C652 1.278 . S
C654 O655 1.245 . S
C654 O666 1.232 . S
O655 C654 1.245 . S
O656 Co650 2.058 . S
O656 C682 1.269 . S
O657 Co649 2.074 . S
O657 C682 1.257 . S
H658 C683 0.930 . S
H659 C689 0.930 . S
O660 Co649 2.093 . S
O660 C652 1.224 . S
H661 C693 0.929 . S
H662 C695 0.930 . S
H663 C696 0.930 . S
H664 C694 0.931 . S
H665 C697 0.928 1_455 S
O666 Co650 2.057 . S
O666 C654 1.232 . S
H667 C686 0.929 . S
H668 C687 0.929 . S
H669 C699 0.931 1_565 S
H670 C691 0.929 . S
H671 C700 0.930 1_565 S
H672 C692 0.931 . S
O673 Co649 2.097 . S
O673 C701 1.214 . S
H674 C702 0.929 . S
H675 C703 0.929 . S
H676 C704 0.930 . S
H677 C705 0.929 . S
H678 C707 0.930 . S
H679 C684 0.930 . S
H680 C688 0.930 . S
O681 Co650 2.037 . S
O681 C701 1.234 . S
C682 O656 1.269 . S
C682 O657 1.257 . S
C683 H658 0.930 . S
C683 C686 1.388 . S
C683 C688 1.418 . S
C684 H679 0.930 . S
C684 C687 1.404 . S
C684 C688 1.353 . S
N685 Co650 2.145 . S
N685 C686 1.397 . S
N685 C687 1.334 . S
C686 H667 0.929 . S
C686 C683 1.388 . S
C686 N685 1.397 . S
C687 H668 0.929 . S
C687 C684 1.404 . S
C687 N685 1.334 . S
C688 H680 0.930 . S
C688 C683 1.418 . S
C688 C684 1.353 . S
C689 H659 0.930 . S
C689 N690 1.330 1_455 S
C689 C691 1.446 . S
N690 Co649 2.151 . S
N690 C689 1.330 1_655 S
N690 C694 1.424 . S
C691 H670 0.929 . S
C691 C689 1.446 . S
C691 C692 1.332 . S
C692 H672 0.931 . S
C692 C691 1.332 . S
C692 C693 1.267 . S
C693 H661 0.929 . S
C693 C692 1.267 . S
C693 C694 1.243 1_455 S
C694 H664 0.931 . S
C694 N690 1.424 . S
C694 C693 1.243 1_655 S
C695 H662 0.930 . S
C695 C697 1.406 1_455 S
C695 C700 1.261 1_455 S
C696 H663 0.930 . S
C696 N698 1.325 . S
C696 C699 1.357 . S
C697 H665 0.928 1_655 S
C697 C695 1.406 1_655 S
C697 N698 1.261 . S
N698 Co649 2.214 . S
N698 C696 1.325 . S
N698 C697 1.261 . S
C699 H669 0.931 1_545 S
C699 C696 1.357 . S
C699 C700 1.312 . S
C700 H671 0.930 1_545 S
C700 C695 1.261 1_655 S
C700 C699 1.312 . S
C701 O673 1.214 . S
C701 O681 1.234 . S
C702 H674 0.929 . S
C702 C705 1.391 . S
C702 C707 1.391 . S
C703 H675 0.929 . S
C703 C704 1.390 . S
C703 N706 1.391 . S
C704 H676 0.930 . S
C704 C703 1.390 . S
C704 C705 1.392 . S
C705 H677 0.929 . S
C705 C702 1.391 . S
C705 C704 1.392 . S
N706 Co650 2.257 . S
N706 C703 1.391 . S
N706 C707 1.388 . S
C707 H678 0.930 . S
C707 C702 1.391 . S
C707 N706 1.388 . S
C708 C709 1.363 . S
C708 C714 1.379 . S
C708 N716 1.356 . S
C709 C708 1.363 . S
C709 C715 1.363 . S
C710 C711 1.363 . S
C710 C715 1.379 . S
C710 N717 1.356 . S
C711 C710 1.363 . S
C711 C714 1.363 . S
N712 C714 1.356 . S
N712 H724 0.984 . S
N712 H725 0.985 . S
N713 C715 1.356 . S
N713 H718 0.984 . S
N713 H719 0.985 . S
C714 C708 1.379 . S
C714 C711 1.363 . S
C714 N712 1.356 . S
C715 C709 1.363 . S
C715 C710 1.379 . S
C715 N713 1.356 . S
N716 C708 1.356 . S
N716 H722 0.984 . S
N716 H723 0.984 . S
N717 C710 1.356 . S
N717 H720 0.984 . S
N717 H721 0.985 . S
H718 N713 0.984 . S
H719 N713 0.985 . S
H720 N717 0.984 . S
H721 N717 0.985 . S
H722 N716 0.984 . S
H723 N716 0.984 . S
H724 N712 0.984 . S
H725 N712 0.985 . S
C726 C727 1.363 . S
C726 C732 1.379 . S
C726 N734 1.356 . S
C727 C726 1.363 . S
C727 C733 1.363 . S
C728 C729 1.363 . S
C728 C733 1.379 . S
C728 N735 1.356 . S
C729 C728 1.363 . S
C729 C732 1.363 . S
N730 C732 1.356 . S
N730 H742 0.984 . S
N730 H743 0.985 . S
N731 C733 1.356 . S
N731 H736 0.984 . S
N731 H737 0.985 . S
C732 C726 1.379 . S
C732 C729 1.363 . S
C732 N730 1.356 . S
C733 C727 1.363 . S
C733 C728 1.379 . S
C733 N731 1.356 . S
N734 C726 1.356 . S
N734 H740 0.984 . S
N734 H741 0.984 . S
N735 C728 1.356 . S
N735 H738 0.984 . S
N735 H739 0.985 . S
H736 N731 0.984 . S
H737 N731 0.985 . S
H738 N735 0.984 . S
H739 N735 0.985 . S
H740 N734 0.984 . S
H741 N734 0.984 . S
H742 N730 0.984 . S
H743 N730 0.985 . S
C744 C745 1.363 . S
C744 C750 1.379 . S
C744 N752 1.356 . S
C745 C744 1.363 . S
C745 C751 1.363 . S
C746 C747 1.363 . S
C746 C751 1.379 . S
C746 N753 1.356 . S
C747 C746 1.363 . S
C747 C750 1.363 . S
N748 C750 1.356 . S
N748 H760 0.984 . S
N748 H761 0.985 . S
N749 C751 1.356 . S
N749 H754 0.984 . S
N749 H755 0.985 . S
C750 C744 1.379 . S
C750 C747 1.363 . S
C750 N748 1.356 . S
C751 C745 1.363 . S
C751 C746 1.379 . S
C751 N749 1.356 . S
N752 C744 1.356 . S
N752 H758 0.984 . S
N752 H759 0.984 . S
N753 C746 1.356 . S
N753 H756 0.984 . S
N753 H757 0.985 . S
H754 N749 0.984 . S
H755 N749 0.985 . S
H756 N753 0.984 . S
H757 N753 0.985 . S
H758 N752 0.984 . S
H759 N752 0.984 . S
H760 N748 0.984 . S
H761 N748 0.985 . S
C762 C763 1.363 . S
C762 C768 1.379 . S
C762 N770 1.356 . S
C763 C762 1.363 . S
C763 C769 1.363 . S
C764 C765 1.363 . S
C764 C769 1.379 . S
C764 N771 1.356 . S
C765 C764 1.363 . S
C765 C768 1.363 . S
N766 C768 1.356 . S
N766 H778 0.984 . S
N766 H779 0.985 . S
N767 C769 1.356 . S
N767 H772 0.984 . S
N767 H773 0.985 . S
C768 C762 1.379 . S
C768 C765 1.363 . S
C768 N766 1.356 . S
C769 C763 1.363 . S
C769 C764 1.379 . S
C769 N767 1.356 . S
N770 C762 1.356 . S
N770 H776 0.984 . S
N770 H777 0.984 . S
N771 C764 1.356 . S
N771 H774 0.984 . S
N771 H775 0.985 . S
H772 N767 0.984 . S
H773 N767 0.985 . S
H774 N771 0.984 . S
H775 N771 0.985 . S
H776 N770 0.984 . S
H777 N770 0.984 . S
H778 N766 0.984 . S
H779 N766 0.985 . S
C780 C781 1.363 . S
C780 C786 1.379 . S
C780 N788 1.356 . S
C781 C780 1.363 . S
C781 C787 1.363 . S
C782 C783 1.363 . S
C782 C787 1.379 . S
C782 N789 1.356 . S
C783 C782 1.363 . S
C783 C786 1.363 . S
N784 C786 1.356 . S
N784 H796 0.984 . S
N784 H797 0.985 . S
N785 C787 1.356 . S
N785 H790 0.984 . S
N785 H791 0.985 . S
C786 C780 1.379 . S
C786 C783 1.363 . S
C786 N784 1.356 . S
C787 C781 1.363 . S
C787 C782 1.379 . S
C787 N785 1.356 . S
N788 C780 1.356 . S
N788 H794 0.984 . S
N788 H795 0.984 . S
N789 C782 1.356 . S
N789 H792 0.984 . S
N789 H793 0.985 . S
H790 N785 0.984 . S
H791 N785 0.985 . S
H792 N789 0.984 . S
H793 N789 0.985 . S
H794 N788 0.984 . S
H795 N788 0.984 . S
H796 N784 0.984 . S
H797 N784 0.985 . S
C798 C799 1.363 . S
C798 C804 1.379 . S
C798 N806 1.356 . S
C799 C798 1.363 . S
C799 C805 1.363 . S
C800 C801 1.363 . S
C800 C805 1.379 . S
C800 N807 1.356 . S
C801 C800 1.363 . S
C801 C804 1.363 . S
N802 C804 1.356 . S
N802 H814 0.984 . S
N802 H815 0.985 . S
N803 C805 1.356 . S
N803 H808 0.984 . S
N803 H809 0.985 . S
C804 C798 1.379 . S
C804 C801 1.363 . S
C804 N802 1.356 . S
C805 C799 1.363 . S
C805 C800 1.379 . S
C805 N803 1.356 . S
N806 C798 1.356 . S
N806 H812 0.984 . S
N806 H813 0.984 . S
N807 C800 1.356 . S
N807 H810 0.984 . S
N807 H811 0.985 . S
H808 N803 0.984 . S
H809 N803 0.985 . S
H810 N807 0.984 . S
H811 N807 0.985 . S
H812 N806 0.984 . S
H813 N806 0.984 . S
H814 N802 0.984 . S
H815 N802 0.985 . S
C816 C817 1.363 . S
C816 C822 1.379 . S
C816 N824 1.356 . S
C817 C816 1.363 . S
C817 C823 1.363 . S
C818 C819 1.363 . S
C818 C823 1.379 . S
C818 N825 1.356 . S
C819 C818 1.363 . S
C819 C822 1.363 . S
N820 C822 1.356 . S
N820 H832 0.984 . S
N820 H833 0.985 . S
N821 C823 1.356 . S
N821 H826 0.984 . S
N821 H827 0.985 . S
C822 C816 1.379 . S
C822 C819 1.363 . S
C822 N820 1.356 . S
C823 C817 1.363 . S
C823 C818 1.379 . S
C823 N821 1.356 . S
N824 C816 1.356 . S
N824 H830 0.984 . S
N824 H831 0.984 . S
N825 C818 1.356 . S
N825 H828 0.984 . S
N825 H829 0.985 . S
H826 N821 0.984 . S
H827 N821 0.985 . S
H828 N825 0.984 . S
H829 N825 0.985 . S
H830 N824 0.984 . S
H831 N824 0.984 . S
H832 N820 0.984 . S
H833 N820 0.985 . S
C834 C835 1.363 . S
C834 C840 1.379 1_655 S
C834 N842 1.356 . S
C835 C834 1.363 . S
C835 C841 1.363 . S
C836 C837 1.363 . S
C836 C841 1.379 1_455 S
C836 N843 1.356 . S
C837 C836 1.363 . S
C837 C840 1.363 . S
N838 C840 1.356 . S
N838 H850 0.984 . S
N838 H851 0.985 . S
N839 C841 1.356 . S
N839 H844 0.984 . S
N839 H845 0.985 . S
C840 C834 1.379 1_455 S
C840 C837 1.363 . S
C840 N838 1.356 . S
C841 C835 1.363 . S
C841 C836 1.379 1_655 S
C841 N839 1.356 . S
N842 C834 1.356 . S
N842 H848 0.984 . S
N842 H849 0.984 . S
N843 C836 1.356 . S
N843 H846 0.984 . S
N843 H847 0.985 . S
H844 N839 0.984 . S
H845 N839 0.985 . S
H846 N843 0.984 . S
H847 N843 0.985 . S
H848 N842 0.984 . S
H849 N842 0.984 . S
H850 N838 0.984 . S
H851 N838 0.985 . S
C852 C853 1.363 . S
C852 C858 1.379 1_545 S
C852 N860 1.356 . S
C853 C852 1.363 . S
C853 C859 1.363 . S
C854 C855 1.363 . S
C854 C859 1.379 1_565 S
C854 N861 1.356 . S
C855 C854 1.363 . S
C855 C858 1.363 . S
N856 C858 1.356 . S
N856 H868 0.984 . S
N856 H869 0.985 . S
N857 C859 1.356 . S
N857 H862 0.984 . S
N857 H863 0.985 . S
C858 C852 1.379 1_565 S
C858 C855 1.363 . S
C858 N856 1.356 . S
C859 C853 1.363 . S
C859 C854 1.379 1_545 S
C859 N857 1.356 . S
N860 C852 1.356 . S
N860 H866 0.984 . S
N860 H867 0.984 . S
N861 C854 1.356 . S
N861 H864 0.984 . S
N861 H865 0.985 . S
H862 N857 0.984 . S
H863 N857 0.985 . S
H864 N861 0.984 . S
H865 N861 0.985 . S
H866 N860 0.984 . S
H867 N860 0.984 . S
H868 N856 0.984 . S
H869 N856 0.985 . S
C870 C871 1.363 . S
C870 C876 1.379 . S
C870 N878 1.356 . S
C871 C870 1.363 . S
C871 C877 1.363 . S
C872 C873 1.363 . S
C872 C877 1.379 . S
C872 N879 1.356 . S
C873 C872 1.363 . S
C873 C876 1.363 . S
N874 C876 1.356 . S
N874 H886 0.984 . S
N874 H887 0.985 . S
N875 C877 1.356 . S
N875 H880 0.984 . S
N875 H881 0.985 . S
C876 C870 1.379 . S
C876 C873 1.363 . S
C876 N874 1.356 . S
C877 C871 1.363 . S
C877 C872 1.379 . S
C877 N875 1.356 . S
N878 C870 1.356 . S
N878 H884 0.984 . S
N878 H885 0.984 . S
N879 C872 1.356 . S
N879 H882 0.984 . S
N879 H883 0.985 . S
H880 N875 0.984 . S
H881 N875 0.985 . S
H882 N879 0.984 . S
H883 N879 0.985 . S
H884 N878 0.984 . S
H885 N878 0.984 . S
H886 N874 0.984 . S
H887 N874 0.985 . S
C888 C889 1.363 . S
C888 C894 1.379 1_655 S
C888 N896 1.356 . S
C889 C888 1.363 . S
C889 C895 1.363 . S
C890 C891 1.363 . S
C890 C895 1.379 1_455 S
C890 N897 1.356 . S
C891 C890 1.363 . S
C891 C894 1.363 . S
N892 C894 1.356 . S
N892 H904 0.984 . S
N892 H905 0.985 . S
N893 C895 1.356 . S
N893 H898 0.984 . S
N893 H899 0.985 . S
C894 C888 1.379 1_455 S
C894 C891 1.363 . S
C894 N892 1.356 . S
C895 C889 1.363 . S
C895 C890 1.379 1_655 S
C895 N893 1.356 . S
N896 C888 1.356 . S
N896 H902 0.984 . S
N896 H903 0.984 . S
N897 C890 1.356 . S
N897 H900 0.984 . S
N897 H901 0.985 . S
H898 N893 0.984 . S
H899 N893 0.985 . S
H900 N897 0.984 . S
H901 N897 0.985 . S
H902 N896 0.984 . S
H903 N896 0.984 . S
H904 N892 0.984 . S
H905 N892 0.985 . S
C906 C907 1.363 . S
C906 C912 1.379 1_565 S
C906 N914 1.356 . S
C907 C906 1.363 . S
C907 C913 1.363 1_554 S
C908 C909 1.363 . S
C908 C913 1.379 1_545 S
C908 N915 1.356 . S
C909 C908 1.363 . S
C909 C912 1.363 1_556 S
N910 C912 1.356 . S
N910 H922 0.984 . S
N910 H923 0.985 . S
N911 C913 1.356 . S
N911 H916 0.984 . S
N911 H917 0.985 . S
C912 C906 1.379 1_545 S
C912 C909 1.363 1_554 S
C912 N910 1.356 . S
C913 C907 1.363 1_556 S
C913 C908 1.379 1_565 S
C913 N911 1.356 . S
N914 C906 1.356 . S
N914 H920 0.984 . S
N914 H921 0.984 . S
N915 C908 1.356 . S
N915 H918 0.984 . S
N915 H919 0.985 . S
H916 N911 0.984 . S
H917 N911 0.985 . S
H918 N915 0.984 . S
H919 N915 0.985 . S
H920 N914 0.984 . S
H921 N914 0.984 . S
H922 N910 0.984 . S
H923 N910 0.985 . S
C924 C925 1.363 . S
C924 C930 1.379 . S
C924 N932 1.356 . S
C925 C924 1.363 . S
C925 C931 1.363 . S
C926 C927 1.363 . S
C926 C931 1.379 . S
C926 N933 1.356 . S
C927 C926 1.363 . S
C927 C930 1.363 . S
N928 C930 1.356 1_556 S
N928 H940 0.984 . S
N928 H941 0.985 . S
N929 C931 1.356 . S
N929 H934 0.984 . S
N929 H935 0.985 . S
C930 C924 1.379 . S
C930 C927 1.363 . S
C930 N928 1.356 1_554 S
C931 C925 1.363 . S
C931 C926 1.379 . S
C931 N929 1.356 . S
N932 C924 1.356 . S
N932 H938 0.984 . S
N932 H939 0.984 . S
N933 C926 1.356 . S
N933 H936 0.984 . S
N933 H937 0.985 . S
H934 N929 0.984 . S
H935 N929 0.985 . S
H936 N933 0.984 . S
H937 N933 0.985 . S
H938 N932 0.984 . S
H939 N932 0.984 . S
H940 N928 0.984 . S
H941 N928 0.985 . S
C942 C943 1.363 . S
C942 C948 1.379 . S
C942 N950 1.356 . S
C943 C942 1.363 . S
C943 C949 1.363 . S
C944 C945 1.363 . S
C944 C949 1.379 . S
C944 N951 1.356 . S
C945 C944 1.363 . S
C945 C948 1.363 . S
N946 C948 1.356 . S
N946 H958 0.984 . S
N946 H959 0.985 . S
N947 C949 1.356 . S
N947 H952 0.984 . S
N947 H953 0.985 . S
C948 C942 1.379 . S
C948 C945 1.363 . S
C948 N946 1.356 . S
C949 C943 1.363 . S
C949 C944 1.379 . S
C949 N947 1.356 . S
N950 C942 1.356 . S
N950 H956 0.984 . S
N950 H957 0.984 . S
N951 C944 1.356 . S
N951 H954 0.984 1_655 S
N951 H955 0.985 . S
H952 N947 0.984 . S
H953 N947 0.985 . S
H954 N951 0.984 1_455 S
H955 N951 0.985 . S
H956 N950 0.984 . S
H957 N950 0.984 . S
H958 N946 0.984 . S
H959 N946 0.985 . S
C960 C961 1.363 . S
C960 C966 1.379 . S
C960 N968 1.356 . S
C961 C960 1.363 . S
C961 C967 1.363 . S
C962 C963 1.363 . S
C962 C967 1.379 . S
C962 N969 1.356 . S
C963 C962 1.363 . S
C963 C966 1.363 . S
N964 C966 1.356 . S
N964 H976 0.984 . S
N964 H977 0.985 . S
N965 C967 1.356 1_545 S
N965 H970 0.984 . S
N965 H971 0.985 . S
C966 C960 1.379 . S
C966 C963 1.363 . S
C966 N964 1.356 . S
C967 C961 1.363 . S
C967 C962 1.379 . S
C967 N965 1.356 1_565 S
N968 C960 1.356 . S
N968 H974 0.984 . S
N968 H975 0.984 . S
N969 C962 1.356 . S
N969 H972 0.984 . S
N969 H973 0.985 . S
H970 N965 0.984 . S
H971 N965 0.985 . S
H972 N969 0.984 . S
H973 N969 0.985 . S
H974 N968 0.984 . S
H975 N968 0.984 . S
H976 N964 0.984 . S
H977 N964 0.985 . S
C978 C979 1.363 . S
C978 C984 1.379 . S
C978 N986 1.356 . S
C979 C978 1.363 . S
C979 C985 1.363 . S
C980 C981 1.363 . S
C980 C985 1.379 . S
C980 N987 1.356 . S
C981 C980 1.363 . S
C981 C984 1.363 . S
N982 C984 1.356 . S
N982 H994 0.984 . S
N982 H995 0.985 . S
N983 C985 1.356 . S
N983 H988 0.984 . S
N983 H989 0.985 . S
C984 C978 1.379 . S
C984 C981 1.363 . S
C984 N982 1.356 . S
C985 C979 1.363 . S
C985 C980 1.379 . S
C985 N983 1.356 . S
N986 C978 1.356 . S
N986 H992 0.984 . S
N986 H993 0.984 . S
N987 C980 1.356 . S
N987 H990 0.984 . S
N987 H991 0.985 . S
H988 N983 0.984 . S
H989 N983 0.985 . S
H990 N987 0.984 . S
H991 N987 0.985 . S
H992 N986 0.984 . S
H993 N986 0.984 . S
H994 N982 0.984 . S
H995 N982 0.985 . S
C996 C997 1.363 . S
C996 C1002 1.379 . S
C996 N1004 1.356 . S
C997 C996 1.363 . S
C997 C1003 1.363 . S
C998 C999 1.363 . S
C998 C1003 1.379 . S
C998 N1005 1.356 . S
C999 C998 1.363 . S
C999 C1002 1.363 . S
N1000 C1002 1.356 . S
N1000 H1012 0.984 . S
N1000 H1013 0.985 . S
N1001 C1003 1.356 . S
N1001 H1006 0.984 . S
N1001 H1007 0.985 . S
C1002 C996 1.379 . S
C1002 C999 1.363 . S
C1002 N1000 1.356 . S
C1003 C997 1.363 . S
C1003 C998 1.379 . S
C1003 N1001 1.356 . S
N1004 C996 1.356 . S
N1004 H1010 0.984 . S
N1004 H1011 0.984 . S
N1005 C998 1.356 . S
N1005 H1008 0.984 1_455 S
N1005 H1009 0.978 . S
H1006 N1001 0.984 . S
H1007 N1001 0.985 . S
H1008 N1005 0.984 1_655 S
H1009 N1005 0.978 . S
H1010 N1004 0.984 . S
H1011 N1004 0.984 . S
H1012 N1000 0.984 . S
H1013 N1000 0.985 . S
C1014 C1015 1.363 . S
C1014 C1020 1.379 . S
C1014 N1022 1.356 . S
C1015 C1014 1.363 . S
C1015 C1021 1.363 . S
C1016 C1017 1.363 . S
C1016 C1021 1.379 . S
C1016 N1023 1.356 . S
C1017 C1016 1.363 . S
C1017 C1020 1.363 . S
N1018 C1020 1.356 1_565 S
N1018 H1030 0.984 . S
N1018 H1031 0.985 . S
N1019 C1021 1.356 . S
N1019 H1024 0.984 . S
N1019 H1025 0.985 . S
C1020 C1014 1.379 . S
C1020 C1017 1.363 . S
C1020 N1018 1.356 1_545 S
C1021 C1015 1.363 . S
C1021 C1016 1.379 . S
C1021 N1019 1.356 . S
N1022 C1014 1.356 . S
N1022 H1028 0.999 . S
N1022 H1029 0.984 . S
N1023 C1016 1.356 . S
N1023 H1026 0.984 . S
N1023 H1027 0.985 . S
H1024 N1019 0.984 . S
H1025 N1019 0.985 . S
H1026 N1023 0.984 . S
H1027 N1023 0.985 . S
H1028 N1022 0.999 . S
H1029 N1022 0.984 . S
H1030 N1018 0.984 . S
H1031 N1018 0.985 . S
C1032 C1033 1.363 . S
C1032 C1038 1.379 . S
C1032 N1040 1.356 . S
C1033 C1032 1.363 . S
C1033 C1039 1.363 . S
C1034 C1035 1.363 . S
C1034 C1039 1.379 . S
C1034 N1041 1.356 . S
C1035 C1034 1.363 . S
C1035 C1038 1.363 . S
N1036 C1038 1.356 . S
N1036 H1048 0.984 . S
N1036 H1049 0.985 . S
N1037 C1039 1.356 . S
N1037 H1042 0.984 . S
N1037 H1043 0.985 . S
C1038 C1032 1.379 . S
C1038 C1035 1.363 . S
C1038 N1036 1.356 . S
C1039 C1033 1.363 . S
C1039 C1034 1.379 . S
C1039 N1037 1.356 . S
N1040 C1032 1.356 . S
N1040 H1046 0.984 . S
N1040 H1047 0.984 . S
N1041 C1034 1.356 . S
N1041 H1044 0.984 . S
N1041 H1045 0.985 . S
H1042 N1037 0.984 . S
H1043 N1037 0.985 . S
H1044 N1041 0.984 . S
H1045 N1041 0.985 . S
H1046 N1040 0.984 . S
H1047 N1040 0.984 . S
H1048 N1036 0.984 . S
H1049 N1036 0.985 . S
C1050 C1051 1.363 . S
C1050 C1056 1.379 . S
C1050 N1058 1.356 . S
C1051 C1050 1.363 . S
C1051 C1057 1.363 . S
C1052 C1053 1.363 . S
C1052 C1057 1.379 . S
C1052 N1059 1.356 1_655 S
C1053 C1052 1.363 . S
C1053 C1056 1.363 . S
N1054 C1056 1.356 1_554 S
N1054 H1066 0.984 . S
N1054 H1067 0.985 . S
N1055 C1057 1.356 . S
N1055 H1060 0.984 . S
N1055 H1061 0.985 . S
C1056 C1050 1.379 . S
C1056 C1053 1.363 . S
C1056 N1054 1.356 1_556 S
C1057 C1051 1.363 . S
C1057 C1052 1.379 . S
C1057 N1055 1.356 . S
N1058 C1050 1.356 . S
N1058 H1064 0.984 . S
N1058 H1065 0.984 . S
N1059 C1052 1.356 1_455 S
N1059 H1062 0.984 . S
N1059 H1063 0.985 . S
H1060 N1055 0.984 . S
H1061 N1055 0.985 . S
H1062 N1059 0.984 . S
H1063 N1059 0.985 . S
H1064 N1058 0.984 . S
H1065 N1058 0.984 . S
H1066 N1054 0.984 . S
H1067 N1054 0.985 . S
C1068 C1069 1.363 . S
C1068 C1074 1.379 . S
C1068 N1076 1.356 . S
C1069 C1068 1.363 . S
C1069 C1075 1.363 . S
C1070 C1071 1.363 . S
C1070 C1075 1.379 . S
C1070 N1077 1.356 . S
C1071 C1070 1.363 . S
C1071 C1074 1.363 . S
N1072 C1074 1.356 1_545 S
N1072 H1084 0.984 . S
N1072 H1085 0.985 . S
N1073 C1075 1.356 . S
N1073 H1078 0.984 . S
N1073 H1079 0.985 . S
C1074 C1068 1.379 . S
C1074 C1071 1.363 . S
C1074 N1072 1.356 1_565 S
C1075 C1069 1.363 . S
C1075 C1070 1.379 . S
C1075 N1073 1.356 . S
N1076 C1068 1.356 . S
N1076 H1082 0.984 . S
N1076 H1083 0.984 . S
N1077 C1070 1.356 . S
N1077 H1080 0.984 . S
N1077 H1081 0.985 . S
H1078 N1073 0.984 . S
H1079 N1073 0.985 . S
H1080 N1077 0.984 . S
H1081 N1077 0.985 . S
H1082 N1076 0.984 . S
H1083 N1076 0.984 . S
H1084 N1072 0.984 . S
H1085 N1072 0.985 . S
C1086 C1087 1.363 . S
C1086 C1092 1.379 . S
C1086 N1094 1.356 . S
C1087 C1086 1.363 . S
C1087 C1093 1.363 . S
C1088 C1089 1.363 . S
C1088 C1093 1.379 . S
C1088 N1095 1.356 . S
C1089 C1088 1.363 . S
C1089 C1092 1.363 . S
N1090 C1092 1.356 . S
N1090 H1102 0.984 . S
N1090 H1103 0.985 . S
N1091 C1093 1.356 . S
N1091 H1096 0.984 . S
N1091 H1097 0.985 . S
C1092 C1086 1.379 . S
C1092 C1089 1.363 . S
C1092 N1090 1.356 . S
C1093 C1087 1.363 . S
C1093 C1088 1.379 . S
C1093 N1091 1.356 . S
N1094 C1086 1.356 . S
N1094 H1100 0.984 . S
N1094 H1101 0.984 . S
N1095 C1088 1.356 . S
N1095 H1098 0.984 . S
N1095 H1099 0.985 . S
H1096 N1091 0.984 . S
H1097 N1091 0.985 . S
H1098 N1095 0.984 . S
H1099 N1095 0.985 . S
H1100 N1094 0.984 . S
H1101 N1094 0.984 . S
H1102 N1090 0.984 . S
H1103 N1090 0.985 . S
C1104 C1105 1.363 . S
C1104 C1110 1.379 . S
C1104 N1112 1.356 . S
C1105 C1104 1.363 . S
C1105 C1111 1.363 . S
C1106 C1107 1.363 . S
C1106 C1111 1.379 . S
C1106 N1113 1.356 1_455 S
C1107 C1106 1.363 . S
C1107 C1110 1.363 . S
N1108 C1110 1.356 . S
N1108 H1120 0.984 . S
N1108 H1121 0.985 . S
N1109 C1111 1.356 . S
N1109 H1114 0.984 . S
N1109 H1115 0.985 . S
C1110 C1104 1.379 . S
C1110 C1107 1.363 . S
C1110 N1108 1.356 . S
C1111 C1105 1.363 . S
C1111 C1106 1.379 . S
C1111 N1109 1.356 . S
N1112 C1104 1.356 . S
N1112 H1118 0.984 . S
N1112 H1119 0.984 . S
N1113 C1106 1.356 1_655 S
N1113 H1116 0.984 . S
N1113 H1117 0.985 . S
H1114 N1109 0.984 . S
H1115 N1109 0.985 . S
H1116 N1113 0.984 . S
H1117 N1113 0.985 . S
H1118 N1112 0.984 . S
H1119 N1112 0.984 . S
H1120 N1108 0.984 . S
H1121 N1108 0.985 . S
C1122 C1123 1.363 . S
C1122 C1128 1.379 . S
C1122 N1130 1.356 . S
C1123 C1122 1.363 . S
C1123 C1129 1.363 . S
C1124 C1125 1.363 . S
C1124 C1129 1.379 . S
C1124 N1131 1.356 . S
C1125 C1124 1.363 . S
C1125 C1128 1.363 . S
N1126 C1128 1.356 . S
N1126 H1138 0.984 . S
N1126 H1139 0.985 . S
N1127 C1129 1.356 1_565 S
N1127 H1132 0.984 . S
N1127 H1133 0.985 . S
C1128 C1122 1.379 . S
C1128 C1125 1.363 . S
C1128 N1126 1.356 . S
C1129 C1123 1.363 . S
C1129 C1124 1.379 . S
C1129 N1127 1.356 1_545 S
N1130 C1122 1.356 . S
N1130 H1136 0.984 . S
N1130 H1137 0.984 . S
N1131 C1124 1.356 . S
N1131 H1134 0.984 . S
N1131 H1135 0.985 . S
H1132 N1127 0.984 . S
H1133 N1127 0.985 . S
H1134 N1131 0.984 . S
H1135 N1131 0.985 . S
H1136 N1130 0.984 . S
H1137 N1130 0.984 . S
H1138 N1126 0.984 . S
H1139 N1126 0.985 . S
C709 C477 1.377 . S
C711 C5 1.377 . S
C727 C64 1.377 . S
C729 C536 1.377 . S
C745 C123 1.377 . S
C747 C595 1.377 . S
C763 C182 1.377 . S
C765 C654 1.377 . S
C781 C359 1.377 . S
C783 C241 1.377 . S
C799 C300 1.377 . S
C801 C418 1.377 . S
C817 C583 1.166 . S
C819 C52 1.166 . S
C835 C111 1.165 . S
C837 C642 1.165 . S
C853 C701 1.166 . S
C855 C170 1.166 . S
C871 C229 1.166 . S
C873 C406 1.166 . S
C889 C465 1.165 . S
C891 C288 1.165 . S
C907 C524 1.165 . S
C909 C347 1.165 . S
C925 C33 1.542 . S
C927 C298 1.479 1_554 S
C943 C92 1.542 . S
C945 C3 1.507 1_655 S
C961 C62 1.507 1_565 S
C963 C151 1.542 . S
C979 C210 1.542 . S
C981 C121 1.507 . S
C997 C269 1.542 . S
C999 C180 1.507 1_455 S
C1015 C328 1.542 . S
C1017 C239 1.507 1_545 S
C1033 C387 1.542 . S
C1035 C416 1.507 . S
C1051 C446 1.542 . S
C1053 C475 1.479 1_656 S
C1069 C505 1.542 . S
C1071 C534 1.507 1_565 S
C1087 C564 1.542 . S
C1089 C593 1.507 . S
C1105 C623 1.542 . S
C1107 C652 1.507 1_455 S
C1123 C357 1.507 1_545 S
C1125 C682 1.542 . S
