# Generated by pormake.
# Topology mmt, (4)-cn, num edge types: 1
# Building blocks:
#     Node 0, Type 0, BuildingBlock: QUQFOY_clean_sbu_3, # of connection points: 4
#     Node 1, Type 0, BuildingBlock: QUQFOY_clean_sbu_3, # of connection points: 4
#     Node 2, Type 0, BuildingBlock: QUQFOY_clean_sbu_3, # of connection points: 4
#     Node 3, Type 0, BuildingBlock: QUQFOY_clean_sbu_3, # of connection points: 4
#     Node 4, Type 0, BuildingBlock: QUQFOY_clean_sbu_3, # of connection points: 4
#     Node 5, Type 0, BuildingBlock: QUQFOY_clean_sbu_3, # of connection points: 4
#     Node 6, Type 0, BuildingBlock: QUQFOY_clean_sbu_3, # of connection points: 4
#     Node 7, Type 0, BuildingBlock: QUQFOY_clean_sbu_3, # of connection points: 4
#     Edge 8, Type (0, 0), BuildingBlock: FUNLAD_clean_linker_1, # of connection points: 2
#     Edge 9, Type (0, 0), BuildingBlock: FUNLAD_clean_linker_1, # of connection points: 2
#     Edge 10, Type (0, 0), BuildingBlock: FUNLAD_clean_linker_1, # of connection points: 2
#     Edge 11, Type (0, 0), BuildingBlock: FUNLAD_clean_linker_1, # of connection points: 2
#     Edge 12, Type (0, 0), BuildingBlock: FUNLAD_clean_linker_1, # of connection points: 2
#     Edge 13, Type (0, 0), BuildingBlock: FUNLAD_clean_linker_1, # of connection points: 2
#     Edge 14, Type (0, 0), BuildingBlock: FUNLAD_clean_linker_1, # of connection points: 2
#     Edge 15, Type (0, 0), BuildingBlock: FUNLAD_clean_linker_1, # of connection points: 2
#     Edge 16, Type (0, 0), BuildingBlock: FUNLAD_clean_linker_1, # of connection points: 2
#     Edge 17, Type (0, 0), BuildingBlock: FUNLAD_clean_linker_1, # of connection points: 2
#     Edge 18, Type (0, 0), BuildingBlock: FUNLAD_clean_linker_1, # of connection points: 2
#     Edge 19, Type (0, 0), BuildingBlock: FUNLAD_clean_linker_1, # of connection points: 2
#     Edge 20, Type (0, 0), BuildingBlock: FUNLAD_clean_linker_1, # of connection points: 2
#     Edge 21, Type (0, 0), BuildingBlock: FUNLAD_clean_linker_1, # of connection points: 2
#     Edge 22, Type (0, 0), BuildingBlock: FUNLAD_clean_linker_1, # of connection points: 2
#     Edge 23, Type (0, 0), BuildingBlock: FUNLAD_clean_linker_1, # of connection points: 2
# Relax obj value: 0.026
# Max RMSD: 0.041
# Mean RMSD: 0.041
data_MOF--net-mmt--node1-QUQFOY_clean_sbu_3--edge1-FUNLAD_clean_linker_1
_symmetry_space_group_name_H-M    P1
_symmetry_Int_Tables_number       1
_symmetry_cell_setting            triclinic
loop_
_symmetry_equiv_pos_as_xyz
'x, y, z'
_cell_length_a     23.673538
_cell_length_b     39.435665
_cell_length_c     47.93866
_cell_angle_alpha  89.984768
_cell_angle_beta   89.94368
_cell_angle_gamma 90.108079
loop_
_atom_site_label
_atom_site_type_symbol
_atom_site_fract_x
_atom_site_fract_y
_atom_site_fract_z
_atom_type_partial_charge
C0 C 0.0883 0.65869 0.32369 0.0
O1 O 0.05818 0.65512 0.30201 0.0
Cd2 Cd 0.01573 0.60213 0.28842 0.0
O3 O 0.09202 0.63497 0.34166 0.0
Cd4 Cd 0.04963 0.57791 0.34937 0.0
C5 C 0.13206 0.55052 0.29686 0.0
O6 O 0.95816 0.58092 0.32516 0.0
O7 O 0.9907 0.531 0.3346 0.0
O8 O 0.01973 0.59392 0.39623 0.0
C9 C 0.95085 0.54899 0.32516 0.0
O10 O 0.0955 0.56397 0.28081 0.0
C11 C 0.04154 0.56835 0.40812 0.0
O12 O 0.12853 0.55346 0.32327 0.0
O13 O 0.06981 0.5481 0.39293 0.0
C14 C 0.40188 0.84102 0.32342 0.0
O15 O 0.43823 0.8417 0.30397 0.0
Cd16 Cd 0.47674 0.89379 0.28558 0.0
O17 O 0.39003 0.86779 0.33704 0.0
Cd18 Cd 0.42466 0.92718 0.33918 0.0
C19 C 0.35469 0.94108 0.27977 0.0
O20 O 0.52109 0.92823 0.3199 0.0
O21 O 0.47209 0.97454 0.31798 0.0
O22 O 0.45545 0.92415 0.3874 0.0
C23 C 0.51882 0.9597 0.31412 0.0
O24 O 0.3965 0.9264 0.26822 0.0
C25 C 0.42331 0.94758 0.39619 0.0
O26 O 0.35051 0.9431 0.30627 0.0
O27 O 0.38931 0.96062 0.37872 0.0
C28 C 0.60391 0.34588 0.15922 0.0
O29 O 0.57447 0.3442 0.18126 0.0
Cd30 Cd 0.52816 0.39172 0.20146 0.0
O31 O 0.60499 0.37292 0.14459 0.0
Cd32 Cd 0.55316 0.42858 0.14693 0.0
C33 C 0.63509 0.4509 0.20043 0.0
O34 O 0.46186 0.4135 0.16852 0.0
O35 O 0.48973 0.46519 0.17338 0.0
O36 O 0.52944 0.42636 0.09683 0.0
C37 C 0.45045 0.44356 0.17585 0.0
O38 O 0.60221 0.4324 0.21504 0.0
C39 C 0.54189 0.45726 0.09243 0.0
O40 O 0.62963 0.45264 0.1741 0.0
O41 O 0.56146 0.474 0.11281 0.0
C42 C 0.91064 0.16494 0.16041 0.0
O43 O 0.94512 0.16394 0.18063 0.0
Cd44 Cd 0.97938 0.11239 0.20157 0.0
O45 O 0.89639 0.13792 0.14765 0.0
Cd46 Cd 0.92333 0.07702 0.14939 0.0
C47 C 0.85493 0.06799 0.2102 0.0
O48 O 0.02015 0.0755 0.16798 0.0
O49 O 0.96922 0.03013 0.17216 0.0
O50 O 0.95171 0.073 0.1008 0.0
C51 C 0.01667 0.0445 0.17512 0.0
O52 O 0.89795 0.08228 0.22099 0.0
C53 C 0.9157 0.05048 0.09423 0.0
O54 O 0.84984 0.06498 0.18382 0.0
O55 O 0.8809 0.04136 0.11299 0.0
C56 C 0.88349 0.3439 0.66413 0.0
O57 O 0.91222 0.33952 0.68621 0.0
Cd58 Cd 0.97009 0.38244 0.70777 0.0
O59 O 0.88773 0.37126 0.6502 0.0
Cd60 Cd 0.94527 0.42396 0.65187 0.0
C61 C 0.87277 0.44739 0.70896 0.0
O62 O 0.03342 0.40647 0.67487 0.0
O63 O 0.01354 0.45994 0.67458 0.0
O64 O 0.97497 0.41729 0.60359 0.0
C65 C 0.04801 0.43661 0.68082 0.0
O66 O 0.90491 0.42708 0.72213 0.0
C67 C 0.95878 0.44643 0.59578 0.0
O68 O 0.8744 0.44973 0.68243 0.0
O69 O 0.93389 0.46482 0.61375 0.0
C70 C 0.60478 0.14051 0.65714 0.0
O71 O 0.5696 0.14481 0.67682 0.0
Cd72 Cd 0.51516 0.09929 0.6968 0.0
O73 O 0.60859 0.11199 0.64489 0.0
Cd74 Cd 0.55863 0.05656 0.64662 0.0
C75 C 0.62161 0.04157 0.70795 0.0
O76 O 0.46222 0.06924 0.66254 0.0
O77 O 0.49368 0.01854 0.66988 0.0
O78 O 0.53346 0.05601 0.59749 0.0
C79 C 0.45249 0.03904 0.6704 0.0
O80 O 0.58336 0.06057 0.71814 0.0
C81 C 0.55939 0.02875 0.5917 0.0
O82 O 0.62624 0.0372 0.68169 0.0
O83 O 0.58761 0.01502 0.61119 0.0
C84 C 0.40891 0.66716 0.83449 0.0
O85 O 0.43831 0.66976 0.8125 0.0
Cd86 Cd 0.47034 0.62081 0.78759 0.0
O87 O 0.40343 0.63865 0.84671 0.0
Cd88 Cd 0.44428 0.58065 0.84104 0.0
C89 C 0.35427 0.56747 0.78888 0.0
O90 O 0.53235 0.58587 0.81396 0.0
O91 O 0.48583 0.53857 0.81088 0.0
O92 O 0.50078 0.57385 0.88282 0.0
C93 C 0.53039 0.55525 0.80564 0.0
O94 O 0.38676 0.58735 0.77539 0.0
C95 C 0.46771 0.55334 0.895 0.0
O96 O 0.36292 0.56085 0.81455 0.0
O97 O 0.42181 0.54597 0.88264 0.0
C98 C 0.08356 0.83579 0.83822 0.0
O99 O 0.05328 0.83547 0.81642 0.0
Cd100 Cd 0.01696 0.8859 0.7948 0.0
O101 O 0.09034 0.86304 0.85211 0.0
Cd102 Cd 0.05336 0.92206 0.84979 0.0
C103 C 0.13794 0.93451 0.79476 0.0
O104 O 0.96126 0.91846 0.82625 0.0
O105 O 0.00577 0.96632 0.82382 0.0
O106 O 0.01573 0.92401 0.89717 0.0
C107 C 0.96111 0.94953 0.81922 0.0
O108 O 0.09985 0.91917 0.7808 0.0
C109 C 0.04697 0.9484 0.90508 0.0
O110 O 0.13457 0.93719 0.82117 0.0
O111 O 0.08292 0.95964 0.8877 0.0
H112 H 0.21712 0.52759 0.29788 0.0
C113 C 0.18101 0.53291 0.2846 0.0
H114 H 0.14693 0.53041 0.244 0.0
H115 H 0.37385 0.53426 0.17745 0.0
H116 H 0.33078 0.58759 0.16442 0.0
H117 H 0.2443 0.60762 0.18788 0.0
H118 H 0.20004 0.57425 0.22423 0.0
C119 C 0.18275 0.52475 0.25738 0.0
C120 C 0.23538 0.51238 0.24382 0.0
C121 C 0.26123 0.53255 0.22286 0.0
C122 C 0.31191 0.52146 0.20988 0.0
C123 C 0.33602 0.54174 0.1885 0.0
C124 C 0.31163 0.57241 0.18072 0.0
C125 C 0.2629 0.58365 0.19387 0.0
C126 C 0.23782 0.56411 0.21469 0.0
H127 H 0.36172 0.43434 0.18821 0.0
C128 C 0.39697 0.45191 0.18995 0.0
H129 H 0.42705 0.49791 0.20678 0.0
H130 H 0.19259 0.46523 0.28023 0.0
H131 H 0.23842 0.41343 0.29527 0.0
H132 H 0.33164 0.39729 0.27651 0.0
H133 H 0.37875 0.43231 0.24208 0.0
C134 C 0.39178 0.48031 0.20521 0.0
C135 C 0.33742 0.49059 0.21827 0.0
C136 C 0.31201 0.47063 0.23953 0.0
C137 C 0.25994 0.481 0.25165 0.0
C138 C 0.23345 0.45944 0.27136 0.0
C139 C 0.25911 0.42949 0.28004 0.0
C140 C 0.31146 0.42032 0.26938 0.0
C141 C 0.33784 0.44056 0.24941 0.0
H142 H 0.05055 0.0029 0.20027 0.0
C143 C 0.06129 0.02716 0.19083 0.0
H144 H 0.1241 0.06467 0.18582 0.0
H145 H 0.25708 0.02646 0.29548 0.0
H146 H 0.23014 0.08473 0.3041 0.0
H147 H 0.16719 0.11502 0.27162 0.0
H148 H 0.13159 0.0874 0.23008 0.0
C149 C 0.11318 0.04008 0.19453 0.0
C150 C 0.15435 0.02244 0.21302 0.0
C151 C 0.17402 0.03885 0.23749 0.0
C152 C 0.20914 0.02109 0.25661 0.0
C153 C 0.22946 0.03843 0.28048 0.0
C154 C 0.21439 0.07196 0.28569 0.0
C155 C 0.17901 0.08902 0.26739 0.0
C156 C 0.15892 0.07281 0.24356 0.0
H157 H 0.32258 0.95901 0.23947 0.0
C158 C 0.31243 0.95698 0.26154 0.0
H159 H 0.2525 0.96768 0.29292 0.0
H160 H 0.13411 0.98555 0.16552 0.0
H161 H 0.15486 0.92596 0.15844 0.0
H162 H 0.2031 0.89271 0.19491 0.0
H163 H 0.23279 0.91921 0.2381 0.0
C164 C 0.26285 0.96894 0.27085 0.0
C165 C 0.2234 0.9867 0.25156 0.0
C166 C 0.2024 0.97004 0.22743 0.0
C167 C 0.17041 0.98843 0.20747 0.0
C168 C 0.1552 0.97216 0.18221 0.0
C169 C 0.16733 0.93805 0.17775 0.0
C170 C 0.19478 0.91939 0.1982 0.0
C171 C 0.21214 0.93504 0.22279 0.0
H172 H 0.7062 0.48708 0.20072 0.0
C173 C 0.68015 0.47088 0.21386 0.0
H174 H 0.66358 0.45423 0.25496 0.0
H175 H 0.92606 0.51776 0.25801 0.0
H176 H 0.95063 0.47283 0.22573 0.0
H177 H 0.87757 0.43409 0.20745 0.0
H178 H 0.77948 0.44069 0.22072 0.0
C179 C 0.69026 0.4695 0.24141 0.0
C180 C 0.73547 0.49042 0.25447 0.0
C181 C 0.79308 0.48493 0.2476 0.0
C182 C 0.83566 0.50582 0.25953 0.0
C183 C 0.89236 0.50145 0.25075 0.0
C184 C 0.90702 0.47593 0.23204 0.0
C185 C 0.86587 0.45424 0.22165 0.0
C186 C 0.80955 0.45852 0.22928 0.0
H187 H 0.89838 0.50522 0.31374 0.0
C188 C 0.90235 0.53257 0.31157 0.0
H189 H 0.86885 0.57666 0.29276 0.0
H190 H 0.62914 0.50837 0.27149 0.0
H191 H 0.60527 0.55191 0.3052 0.0
H192 H 0.67974 0.58592 0.32788 0.0
H193 H 0.77858 0.5768 0.3168 0.0
C194 C 0.86609 0.5493 0.29507 0.0
C195 C 0.82104 0.53053 0.27982 0.0
C196 C 0.76356 0.53608 0.28662 0.0
C197 C 0.7207 0.5161 0.27385 0.0
C198 C 0.66352 0.52247 0.28081 0.0
C199 C 0.64919 0.54744 0.3001 0.0
C200 C 0.69111 0.56661 0.31286 0.0
C201 C 0.7477 0.5611 0.3063 0.0
H202 H 0.82388 0.05106 0.25109 0.0
C203 C 0.81298 0.05274 0.2291 0.0
H204 H 0.75281 0.04081 0.19822 0.0
H205 H 0.63717 0.91841 0.25932 0.0
H206 H 0.67419 0.8923 0.21744 0.0
H207 H 0.73663 0.92421 0.18563 0.0
H208 H 0.76158 0.98259 0.19526 0.0
C209 C 0.76359 0.03993 0.22024 0.0
C210 C 0.72571 0.02096 0.23963 0.0
C211 C 0.7128 0.98645 0.23405 0.0
C212 C 0.67808 0.96772 0.25281 0.0
C213 C 0.66415 0.93371 0.24614 0.0
C214 C 0.68509 0.91836 0.22211 0.0
C215 C 0.72017 0.93634 0.20419 0.0
C216 C 0.73404 0.96994 0.20997 0.0
H217 H 0.55356 0.00212 0.29013 0.0
C218 C 0.56395 0.97752 0.29901 0.0
H219 H 0.62661 0.94001 0.30358 0.0
H220 H 0.73335 0.08813 0.25453 0.0
H221 H 0.70308 0.11289 0.2983 0.0
H222 H 0.65579 0.07793 0.33411 0.0
H223 H 0.63654 0.01834 0.32576 0.0
C224 C 0.61593 0.96484 0.29532 0.0
C225 C 0.65756 0.98325 0.27749 0.0
C226 C 0.6729 0.01723 0.28375 0.0
C227 C 0.70442 0.03661 0.26415 0.0
C228 C 0.71319 0.07156 0.26951 0.0
C229 C 0.69547 0.08622 0.29446 0.0
C230 C 0.66855 0.06661 0.31453 0.0
C231 C 0.65729 0.03251 0.30936 0.0
H232 H 0.56449 0.51635 0.77775 0.0
C233 C 0.57465 0.54003 0.78825 0.0
H234 H 0.63761 0.57677 0.7961 0.0
H235 H 0.74804 0.43165 0.74458 0.0
H236 H 0.71089 0.40448 0.78606 0.0
H237 H 0.65932 0.43759 0.82152 0.0
H238 H 0.64247 0.49768 0.81495 0.0
C239 C 0.62693 0.55296 0.78598 0.0
C240 C 0.6704 0.53538 0.76873 0.0
C241 C 0.6846 0.50107 0.77432 0.0
C242 C 0.71896 0.48277 0.75529 0.0
C243 C 0.72611 0.44745 0.75948 0.0
C244 C 0.70441 0.43141 0.78306 0.0
C245 C 0.67507 0.44998 0.80292 0.0
C246 C 0.66518 0.4844 0.79872 0.0
H247 H 0.84004 0.4695 0.74773 0.0
C248 C 0.83287 0.46781 0.72536 0.0
H249 H 0.77853 0.48053 0.69208 0.0
H250 H 0.65316 0.6011 0.75226 0.0
H251 H 0.69688 0.62946 0.71288 0.0
H252 H 0.76406 0.59922 0.68245 0.0
H253 H 0.78724 0.54026 0.69093 0.0
C254 C 0.7863 0.48185 0.71439 0.0
C255 C 0.74479 0.49985 0.73249 0.0
C256 C 0.73265 0.53454 0.72758 0.0
C257 C 0.69489 0.55222 0.74553 0.0
C258 C 0.68216 0.58656 0.7396 0.0
C259 C 0.70694 0.60317 0.71703 0.0
C260 C 0.74472 0.58613 0.69988 0.0
C261 C 0.75761 0.55225 0.70498 0.0
H262 H 0.64873 0.02379 0.74929 0.0
C263 C 0.66065 0.02475 0.72739 0.0
H264 H 0.72333 0.01319 0.69758 0.0
H265 H 0.83905 0.00456 0.82585 0.0
H266 H 0.8133 0.06372 0.83101 0.0
H267 H 0.76274 0.09374 0.79343 0.0
H268 H 0.73562 0.06441 0.75113 0.0
C269 C 0.71105 0.01252 0.71943 0.0
C270 C 0.75023 0.99654 0.73992 0.0
C271 C 0.76981 0.015 0.76347 0.0
C272 C 0.80341 0.99861 0.78398 0.0
C273 C 0.81701 0.01649 0.80872 0.0
C274 C 0.80199 0.05036 0.81208 0.0
C275 C 0.77322 0.0672 0.79102 0.0
C276 C 0.75731 0.04989 0.76695 0.0
H277 H 0.92455 0.98876 0.79234 0.0
C278 C 0.91589 0.96448 0.80224 0.0
H279 H 0.85668 0.92505 0.80789 0.0
H280 H 0.71934 0.95356 0.69765 0.0
H281 H 0.75112 0.89577 0.69094 0.0
H282 H 0.817 0.86918 0.72419 0.0
H283 H 0.85075 0.89999 0.76457 0.0
C284 C 0.86545 0.94957 0.79847 0.0
C285 C 0.82269 0.96498 0.77947 0.0
C286 C 0.80408 0.94673 0.75568 0.0
C287 C 0.76725 0.96238 0.73609 0.0
C288 C 0.74817 0.94323 0.71292 0.0
C289 C 0.766 0.90996 0.70883 0.0
C290 C 0.80302 0.89498 0.72756 0.0
C291 C 0.82202 0.913 0.75072 0.0
H292 H 0.29879 0.56019 0.75268 0.0
C293 C 0.30799 0.55096 0.77358 0.0
H294 H 0.2885 0.51391 0.80407 0.0
H295 H 0.04656 0.48857 0.74913 0.0
H296 H 0.02049 0.51194 0.79414 0.0
H297 H 0.09331 0.53315 0.82657 0.0
H298 H 0.19271 0.53089 0.81424 0.0
C299 C 0.28034 0.52363 0.78326 0.0
C300 C 0.23734 0.5065 0.76555 0.0
C301 C 0.17964 0.50779 0.7732 0.0
C302 C 0.1377 0.49602 0.75434 0.0
C303 C 0.08019 0.49766 0.76247 0.0
C304 C 0.06464 0.5109 0.78829 0.0
C305 C 0.10564 0.52281 0.80655 0.0
C306 C 0.16253 0.52138 0.79921 0.0
H307 H 0.1232 0.42263 0.70574 0.0
C308 C 0.09743 0.44367 0.69857 0.0
H309 H 0.08188 0.49629 0.70076 0.0
H310 H 0.34472 0.49321 0.74736 0.0
H311 H 0.37125 0.47007 0.70231 0.0
H312 H 0.29851 0.45386 0.66796 0.0
H313 H 0.19902 0.45998 0.67866 0.0
C314 C 0.10896 0.47542 0.70706 0.0
C315 C 0.15362 0.48317 0.72784 0.0
C316 C 0.21157 0.48025 0.72076 0.0
C317 C 0.25351 0.49114 0.73999 0.0
C318 C 0.31117 0.48665 0.73302 0.0
C319 C 0.32697 0.47318 0.70733 0.0
C320 C 0.28602 0.46394 0.68804 0.0
C321 C 0.22895 0.46743 0.69453 0.0
H322 H 0.22328 0.95692 0.79271 0.0
C323 C 0.187 0.94932 0.78029 0.0
H324 H 0.15155 0.94644 0.73996 0.0
H325 H 0.3758 0.05141 0.73365 0.0
H326 H 0.32473 0.08737 0.76583 0.0
H327 H 0.23165 0.07008 0.78418 0.0
H328 H 0.19013 0.01615 0.77112 0.0
C329 C 0.18752 0.95417 0.75253 0.0
C330 C 0.2384 0.96749 0.7379 0.0
C331 C 0.26004 0.0002 0.7442 0.0
C332 C 0.3117 0.01125 0.73202 0.0
C333 C 0.33508 0.04257 0.74083 0.0
C334 C 0.30643 0.06338 0.75954 0.0
C335 C 0.25419 0.05357 0.76999 0.0
C336 C 0.23107 0.02239 0.7625 0.0
H337 H 0.36196 0.04604 0.68019 0.0
C338 C 0.39812 0.02947 0.6831 0.0
H339 H 0.42967 0.98491 0.70173 0.0
H340 H 0.20787 0.90365 0.72075 0.0
H341 H 0.25534 0.86939 0.68603 0.0
H342 H 0.34074 0.89046 0.66209 0.0
H343 H 0.37956 0.94575 0.67302 0.0
C344 C 0.39349 0.00152 0.69899 0.0
C345 C 0.33918 0.99068 0.71186 0.0
C346 C 0.31608 0.95866 0.70462 0.0
C347 C 0.26603 0.94688 0.71788 0.0
C348 C 0.24513 0.91424 0.71097 0.0
C349 C 0.27204 0.89421 0.69109 0.0
C350 C 0.32017 0.90604 0.67766 0.0
C351 C 0.34211 0.93783 0.68423 0.0
H352 H 0.00698 0.58023 0.44972 0.0
C353 C 0.02976 0.56126 0.43773 0.0
H354 H 0.06308 0.51156 0.4375 0.0
H355 H 0.06957 0.49873 0.56937 0.0
H356 H 0.16911 0.50793 0.55988 0.0
H357 H 0.20168 0.5237 0.51271 0.0
H358 H 0.13483 0.53048 0.47475 0.0
C359 C 0.04035 0.53084 0.44916 0.0
C360 C 0.02026 0.52209 0.47769 0.0
C361 C 0.05989 0.5179 0.49953 0.0
C362 C 0.04115 0.5085 0.52665 0.0
C363 C 0.08156 0.50521 0.54824 0.0
C364 C 0.13882 0.51058 0.54312 0.0
C365 C 0.15715 0.51949 0.51657 0.0
C366 C 0.11835 0.52322 0.49496 0.0
H367 H 0.99248 0.44115 0.55317 0.0
C368 C 0.97194 0.45864 0.56747 0.0
H369 H 0.94291 0.50885 0.57342 0.0
H370 H 0.93302 0.52566 0.44005 0.0
H371 H 0.8336 0.51722 0.44983 0.0
H372 H 0.8011 0.50257 0.49724 0.0
H373 H 0.86815 0.49598 0.53514 0.0
C374 C 0.96353 0.4909 0.55959 0.0
C375 C 0.98284 0.50288 0.53175 0.0
C376 C 0.94308 0.50768 0.51008 0.0
C377 C 0.9618 0.51685 0.48289 0.0
C378 C 0.92125 0.51977 0.4613 0.0
C379 C 0.86396 0.51475 0.46658 0.0
C380 C 0.84567 0.50645 0.49326 0.0
C381 C 0.88458 0.50277 0.51481 0.0
H382 H 0.40048 0.98161 0.43102 0.0
C383 C 0.42826 0.96104 0.4248 0.0
H384 H 0.49884 0.93115 0.43556 0.0
H385 H 0.60485 0.03887 0.51712 0.0
H386 H 0.67074 0.04057 0.47839 0.0
H387 H 0.65083 0.00946 0.43486 0.0
H388 H 0.56491 0.97657 0.42975 0.0
C389 C 0.4693 0.95063 0.44217 0.0
C390 C 0.48128 0.96859 0.46884 0.0
C391 C 0.53225 0.9873 0.47163 0.0
C392 C 0.54395 0.00509 0.49679 0.0
C393 C 0.59432 0.02439 0.49869 0.0
C394 C 0.63241 0.02572 0.47655 0.0
C395 C 0.62119 0.00822 0.45204 0.0
C396 C 0.57172 0.98932 0.44944 0.0
H397 H 0.57966 0.99022 0.55973 0.0
C398 C 0.55422 0.01251 0.56411 0.0
H399 H 0.48815 0.04419 0.55017 0.0
H400 H 0.38241 0.93247 0.47142 0.0
H401 H 0.3166 0.93081 0.51019 0.0
H402 H 0.33593 0.96264 0.55344 0.0
H403 H 0.42141 0.99613 0.55826 0.0
C404 C 0.51589 0.02305 0.54535 0.0
C405 C 0.50489 0.00388 0.51919 0.0
C406 C 0.45415 0.98498 0.51649 0.0
C407 C 0.44256 0.96704 0.49139 0.0
C408 C 0.39262 0.94733 0.4897 0.0
C409 C 0.35462 0.94597 0.51188 0.0
C410 C 0.36553 0.96386 0.53624 0.0
C411 C 0.41471 0.98307 0.53869 0.0
H412 H 0.52322 0.50155 0.0664 0.0
C413 C 0.52974 0.47428 0.06579 0.0
H414 H 0.53222 0.43037 0.04099 0.0
H415 H 0.38149 0.47704 0.9409 0.0
H416 H 0.33627 0.42524 0.95616 0.0
H417 H 0.3669 0.39638 -0.00083 0.0
H418 H 0.44383 0.41868 0.02677 0.0
C419 C 0.52568 0.45763 0.04142 0.0
C420 C 0.50766 0.47525 0.01521 0.0
C421 C 0.46093 0.46253 -0.00016 0.0
C422 C 0.44164 0.47998 0.97561 0.0
C423 C 0.39692 0.46559 0.9599 0.0
C424 C 0.37057 0.43571 0.96837 0.0
C425 C 0.3879 0.41943 0.99254 0.0
C426 C 0.43242 0.43253 0.00816 0.0
H427 H 0.52986 0.53318 0.92445 0.0
C428 C 0.48492 0.53718 0.92129 0.0
H429 H 0.40327 0.53279 0.93816 0.0
H430 H 0.60769 0.50213 0.03428 0.0
H431 H 0.64639 0.55729 0.02253 0.0
H432 H 0.59918 0.59389 0.98793 0.0
H433 H 0.51527 0.57453 0.96371 0.0
C434 C 0.44811 0.52847 0.94139 0.0
C435 C 0.4671 0.51113 0.96756 0.0
C436 C 0.5119 0.5247 0.98387 0.0
C437 C 0.53492 0.50549 0.00624 0.0
C438 C 0.58528 0.51714 0.01903 0.0
C439 C 0.60837 0.54858 0.01222 0.0
C440 C 0.58209 0.56905 0.99259 0.0
C441 C 0.53436 0.55741 0.97856 0.0
H442 H 0.06967 0.98431 0.93854 0.0
C443 C 0.04007 0.96447 0.93262 0.0
H444 H 0.96479 0.93858 0.9431 0.0
H445 H 0.04595 0.0061 0.06427 0.0
H446 H 0.1239 0.96642 0.06225 0.0
H447 H 0.13883 0.93057 0.02075 0.0
H448 H 0.076 0.93432 0.98096 0.0
C449 C -0.00372 0.95712 0.94944 0.0
C450 C 0.98562 0.97704 0.97528 0.0
C451 C 0.02248 0.97429 -0.00155 0.0
C452 C 0.01345 0.99469 0.0225 0.0
C453 C 0.05092 0.9914 0.04538 0.0
C454 C 0.09577 0.96861 0.04456 0.0
C455 C 0.10421 0.94845 0.02118 0.0
C456 C 0.06801 0.95104 -0.0016 0.0
H457 H 0.88547 0.01422 0.06239 0.0
C458 C 0.91704 0.03354 0.06682 0.0
H459 H 0.99246 0.05717 0.05351 0.0
H460 H 0.90579 0.98752 0.93486 0.0
H461 H 0.8272 0.02677 0.93705 0.0
H462 H 0.81221 0.06263 0.97854 0.0
H463 H 0.8756 0.05936 0.01814 0.0
C464 C 0.95918 0.03913 0.04857 0.0
C465 C 0.96709 0.01741 0.0235 0.0
C466 C 0.92963 0.01973 0.00052 0.0
C467 C 0.93868 -0.00069 0.97647 0.0
C468 C 0.90089 0.00231 0.9537 0.0
C469 C 0.85563 0.02481 0.95465 0.0
C470 C 0.84717 0.04498 0.97802 0.0
C471 C 0.88373 0.0427 0.00069 0.0
H472 H 0.11129 0.71152 0.31376 0.0
C473 C 0.12253 0.68978 0.32655 0.0
H474 H 0.18275 0.66884 0.35407 0.0
H475 H 0.30525 0.79814 0.28523 0.0
H476 H 0.28793 0.76554 0.24338 0.0
H477 H 0.23893 0.71035 0.24568 0.0
H478 H 0.20492 0.6883 0.28974 0.0
C479 C 0.17074 0.69051 0.3414 0.0
C480 C 0.20961 0.72038 0.3406 0.0
C481 C 0.23363 0.73137 0.31496 0.0
C482 C 0.26651 0.76159 0.314 0.0
C483 C 0.28395 0.77406 0.28761 0.0
C484 C 0.27368 0.75578 0.26329 0.0
C485 C 0.24577 0.72484 0.26456 0.0
C486 C 0.2259 0.71266 0.29001 0.0
H487 H 0.38712 0.78589 0.32015 0.0
C488 C 0.36979 0.80945 0.32822 0.0
H489 H 0.299 0.83332 0.34638 0.0
H490 H 0.17198 0.70578 0.39328 0.0
H491 H 0.19604 0.73578 0.43579 0.0
H492 H 0.25983 0.78529 0.4347 0.0
H493 H 0.29949 0.80535 0.39105 0.0
C494 C 0.3169 0.80981 0.33854 0.0
C495 C 0.28051 0.77884 0.33911 0.0
C496 C 0.25852 0.76698 0.36488 0.0
C497 C 0.22262 0.73797 0.36559 0.0
C498 C 0.20011 0.72732 0.39155 0.0
C499 C 0.2135 0.74435 0.41613 0.0
C500 C 0.24936 0.77225 0.41551 0.0
C501 C 0.27174 0.78354 0.39027 0.0
H502 H 0.90181 0.22051 0.16238 0.0
C503 C 0.88315 0.19753 0.15386 0.0
H504 H 0.81237 0.17625 0.13352 0.0
H505 H 0.72149 0.32083 0.19091 0.0
H506 H 0.74923 0.29653 0.23526 0.0
H507 H 0.79517 0.24049 0.23735 0.0
H508 H 0.8157 0.20928 0.19519 0.0
C509 C 0.83179 0.19904 0.14194 0.0
C510 C 0.79838 0.23112 0.14118 0.0
C511 C 0.78264 0.24765 0.16637 0.0
C512 C 0.75153 0.27842 0.16538 0.0
C513 C 0.74155 0.29621 0.1906 0.0
C514 C 0.75772 0.28272 0.2162 0.0
C515 C 0.7839 0.2513 0.21736 0.0
C516 C 0.79613 0.23382 0.19286 0.0
H517 H 0.62933 0.29261 0.16244 0.0
C518 C 0.63993 0.31659 0.15249 0.0
H519 H 0.70198 0.34323 0.12938 0.0
H520 H 0.82271 0.20682 0.08909 0.0
H521 H 0.79022 0.22989 0.045 0.0
H522 H 0.72975 0.28076 0.04369 0.0
H523 H 0.70184 0.30913 0.0865 0.0
C524 C 0.68965 0.31945 0.13911 0.0
C525 C 0.7307 0.29073 0.13952 0.0
C526 C 0.74643 0.27437 0.1144 0.0
C527 C 0.78064 0.2447 0.11521 0.0
C528 C 0.79622 0.22913 0.08973 0.0
C529 C 0.77794 0.24215 0.06427 0.0
C530 C 0.74392 0.27081 0.06354 0.0
C531 C 0.72817 0.28683 0.08824 0.0
H532 H 0.68546 0.15957 0.64031 0.0
C533 C 0.64681 0.16713 0.65085 0.0
H534 H 0.60287 0.20637 0.67111 0.0
H535 H 0.8089 0.28635 0.71852 0.0
H536 H 0.75878 0.26916 0.76015 0.0
H537 H 0.67812 0.22968 0.75746 0.0
H538 H 0.64653 0.20768 0.71311 0.0
C539 C 0.64141 0.19902 0.66038 0.0
C540 C 0.69055 0.22277 0.66143 0.0
C541 C 0.70957 0.23465 0.68777 0.0
C542 C 0.75743 0.25641 0.68944 0.0
C543 C 0.77394 0.26895 0.71595 0.0
C544 C 0.74536 0.25941 0.74011 0.0
C545 C 0.69989 0.23727 0.73859 0.0
C546 C 0.68205 0.22493 0.71285 0.0
H547 H 0.80706 0.32671 0.64189 0.0
C548 C 0.8403 0.31871 0.65605 0.0
H549 H 0.87134 0.27983 0.68188 0.0
H550 H 0.66025 0.20948 0.60736 0.0
H551 H 0.71366 0.22392 0.5658 0.0
H552 H 0.80328 0.25566 0.56922 0.0
H553 H 0.83911 0.27402 0.61411 0.0
C554 C 0.83842 0.28758 0.66744 0.0
C555 C 0.7876 0.26535 0.66491 0.0
C556 C 0.76908 0.25312 0.6386 0.0
C557 C 0.71934 0.23284 0.63678 0.0
C558 C 0.69936 0.22329 0.61008 0.0
C559 C 0.72936 0.23167 0.58603 0.0
C560 C 0.77967 0.24968 0.58794 0.0
C561 C 0.79953 0.26031 0.61385 0.0
H562 H 0.38835 0.72152 0.83555 0.0
C563 C 0.37536 0.69676 0.84325 0.0
H564 H 0.30963 0.66864 0.86224 0.0
H565 H 0.17419 0.79404 0.91043 0.0
H566 H 0.20487 0.76665 0.95317 0.0
H567 H 0.27222 0.71902 0.95186 0.0
H568 H 0.309 0.69821 0.90778 0.0
C569 C 0.324 0.6933 0.85497 0.0
C570 C 0.28322 0.72213 0.8558 0.0
C571 C 0.26261 0.73425 0.88172 0.0
C572 C 0.22432 0.76207 0.88251 0.0
C573 C 0.20372 0.77324 0.90867 0.0
C574 C 0.22096 0.75773 0.93335 0.0
C575 C 0.25887 0.73089 0.9326 0.0
C576 C 0.27962 0.71918 0.90717 0.0
H577 H 0.10449 0.78161 0.83471 0.0
C578 C 0.11662 0.80518 0.84486 0.0
H579 H 0.18003 0.83035 0.86806 0.0
H580 H 0.30344 0.70081 0.80202 0.0
H581 H 0.27848 0.73053 0.75966 0.0
H582 H 0.22486 0.78405 0.76152 0.0
H583 H 0.19393 0.80722 0.80566 0.0
C584 C 0.16657 0.8069 0.85816 0.0
C585 C 0.20726 0.77803 0.85741 0.0
C586 C 0.22925 0.76653 0.8315 0.0
C587 C 0.26466 0.73747 0.83059 0.0
C588 C 0.28025 0.72423 0.80418 0.0
C589 C 0.26561 0.74083 0.77961 0.0
C590 C 0.23511 0.77081 0.78064 0.0
C591 C 0.21706 0.78363 0.80618 0.0
loop_
_geom_bond_atom_site_label_1
_geom_bond_atom_site_label_2
_geom_bond_distance
_geom_bond_site_symmetry_2
_ccdc_geom_bond_type
C0 O1 1.306 . S
C0 O3 1.160 . S
O1 C0 1.306 . S
O1 Cd2 2.228 . S
Cd2 O1 2.228 . S
Cd2 O6 2.273 . S
Cd2 O10 2.277 . S
O3 C0 1.160 . S
O3 Cd4 2.203 . S
Cd4 O3 2.203 . S
Cd4 O6 2.411 . S
Cd4 O7 2.333 . S
Cd4 O8 2.352 . S
Cd4 O12 2.277 . S
Cd4 O13 2.356 . S
C5 O10 1.209 . S
C5 O12 1.226 . S
O6 Cd2 2.273 . S
O6 Cd4 2.411 . S
O6 C9 1.320 . S
O7 Cd4 2.333 . S
O7 C9 1.214 . S
O8 Cd4 2.352 . S
O8 C11 1.258 . S
C9 O6 1.320 . S
C9 O7 1.214 . S
O10 Cd2 2.277 . S
O10 C5 1.209 . S
C11 O8 1.258 . S
C11 O13 1.282 . S
O12 Cd4 2.277 . S
O12 C5 1.226 . S
O13 Cd4 2.356 . S
O13 C11 1.282 . S
C14 O15 1.306 . S
C14 O17 1.160 . S
O15 C14 1.306 . S
O15 Cd16 2.228 . S
Cd16 O15 2.228 . S
Cd16 O20 2.273 . S
Cd16 O24 2.277 . S
O17 C14 1.160 . S
O17 Cd18 2.203 . S
Cd18 O17 2.203 . S
Cd18 O20 2.411 . S
Cd18 O21 2.333 . S
Cd18 O22 2.352 . S
Cd18 O26 2.277 . S
Cd18 O27 2.356 . S
C19 O24 1.209 . S
C19 O26 1.226 . S
O20 Cd16 2.273 . S
O20 Cd18 2.411 . S
O20 C23 1.320 . S
O21 Cd18 2.333 . S
O21 C23 1.214 . S
O22 Cd18 2.352 . S
O22 C25 1.258 . S
C23 O20 1.320 . S
C23 O21 1.214 . S
O24 Cd16 2.277 . S
O24 C19 1.209 . S
C25 O22 1.258 . S
C25 O27 1.282 . S
O26 Cd18 2.277 . S
O26 C19 1.226 . S
O27 Cd18 2.356 . S
O27 C25 1.282 . S
C28 O29 1.306 . S
C28 O31 1.160 . S
O29 C28 1.306 . S
O29 Cd30 2.228 . S
Cd30 O29 2.228 . S
Cd30 O34 2.273 . S
Cd30 O38 2.277 . S
O31 C28 1.160 . S
O31 Cd32 2.203 . S
Cd32 O31 2.203 . S
Cd32 O34 2.411 . S
Cd32 O35 2.333 . S
Cd32 O36 2.352 . S
Cd32 O40 2.277 . S
Cd32 O41 2.356 . S
C33 O38 1.209 . S
C33 O40 1.226 . S
O34 Cd30 2.273 . S
O34 Cd32 2.411 . S
O34 C37 1.320 . S
O35 Cd32 2.333 . S
O35 C37 1.214 . S
O36 Cd32 2.352 . S
O36 C39 1.258 . S
C37 O34 1.320 . S
C37 O35 1.214 . S
O38 Cd30 2.277 . S
O38 C33 1.209 . S
C39 O36 1.258 . S
C39 O41 1.282 . S
O40 Cd32 2.277 . S
O40 C33 1.226 . S
O41 Cd32 2.356 . S
O41 C39 1.282 . S
C42 O43 1.306 . S
C42 O45 1.160 . S
O43 C42 1.306 . S
O43 Cd44 2.228 . S
Cd44 O43 2.228 . S
Cd44 O48 2.273 . S
Cd44 O52 2.277 . S
O45 C42 1.160 . S
O45 Cd46 2.203 . S
Cd46 O45 2.203 . S
Cd46 O48 2.411 . S
Cd46 O49 2.333 . S
Cd46 O50 2.352 . S
Cd46 O54 2.277 . S
Cd46 O55 2.356 . S
C47 O52 1.209 . S
C47 O54 1.226 . S
O48 Cd44 2.273 . S
O48 Cd46 2.411 . S
O48 C51 1.320 . S
O49 Cd46 2.333 . S
O49 C51 1.214 . S
O50 Cd46 2.352 . S
O50 C53 1.258 . S
C51 O48 1.320 . S
C51 O49 1.214 . S
O52 Cd44 2.277 . S
O52 C47 1.209 . S
C53 O50 1.258 . S
C53 O55 1.282 . S
O54 Cd46 2.277 . S
O54 C47 1.226 . S
O55 Cd46 2.356 . S
O55 C53 1.282 . S
C56 O57 1.306 . S
C56 O59 1.160 . S
O57 C56 1.306 . S
O57 Cd58 2.228 . S
Cd58 O57 2.228 . S
Cd58 O62 2.273 . S
Cd58 O66 2.277 . S
O59 C56 1.160 . S
O59 Cd60 2.203 . S
Cd60 O59 2.203 . S
Cd60 O62 2.411 . S
Cd60 O63 2.333 . S
Cd60 O64 2.352 . S
Cd60 O68 2.277 . S
Cd60 O69 2.356 . S
C61 O66 1.209 . S
C61 O68 1.226 . S
O62 Cd58 2.273 . S
O62 Cd60 2.411 . S
O62 C65 1.320 . S
O63 Cd60 2.333 . S
O63 C65 1.214 . S
O64 Cd60 2.352 . S
O64 C67 1.258 . S
C65 O62 1.320 . S
C65 O63 1.214 . S
O66 Cd58 2.277 . S
O66 C61 1.209 . S
C67 O64 1.258 . S
C67 O69 1.282 . S
O68 Cd60 2.277 . S
O68 C61 1.226 . S
O69 Cd60 2.356 . S
O69 C67 1.282 . S
C70 O71 1.306 . S
C70 O73 1.160 . S
O71 C70 1.306 . S
O71 Cd72 2.228 . S
Cd72 O71 2.228 . S
Cd72 O76 2.273 . S
Cd72 O80 2.277 . S
O73 C70 1.160 . S
O73 Cd74 2.203 . S
Cd74 O73 2.203 . S
Cd74 O76 2.411 . S
Cd74 O77 2.333 . S
Cd74 O78 2.352 . S
Cd74 O82 2.277 . S
Cd74 O83 2.356 . S
C75 O80 1.209 . S
C75 O82 1.226 . S
O76 Cd72 2.273 . S
O76 Cd74 2.411 . S
O76 C79 1.320 . S
O77 Cd74 2.333 . S
O77 C79 1.214 . S
O78 Cd74 2.352 . S
O78 C81 1.258 . S
C79 O76 1.320 . S
C79 O77 1.214 . S
O80 Cd72 2.277 . S
O80 C75 1.209 . S
C81 O78 1.258 . S
C81 O83 1.282 . S
O82 Cd74 2.277 . S
O82 C75 1.226 . S
O83 Cd74 2.356 . S
O83 C81 1.282 . S
C84 O85 1.306 . S
C84 O87 1.160 . S
O85 C84 1.306 . S
O85 Cd86 2.228 . S
Cd86 O85 2.228 . S
Cd86 O90 2.273 . S
Cd86 O94 2.277 . S
O87 C84 1.160 . S
O87 Cd88 2.203 . S
Cd88 O87 2.203 . S
Cd88 O90 2.411 . S
Cd88 O91 2.333 . S
Cd88 O92 2.352 . S
Cd88 O96 2.277 . S
Cd88 O97 2.356 . S
C89 O94 1.209 . S
C89 O96 1.226 . S
O90 Cd86 2.273 . S
O90 Cd88 2.411 . S
O90 C93 1.320 . S
O91 Cd88 2.333 . S
O91 C93 1.214 . S
O92 Cd88 2.352 . S
O92 C95 1.258 . S
C93 O90 1.320 . S
C93 O91 1.214 . S
O94 Cd86 2.277 . S
O94 C89 1.209 . S
C95 O92 1.258 . S
C95 O97 1.282 . S
O96 Cd88 2.277 . S
O96 C89 1.226 . S
O97 Cd88 2.356 . S
O97 C95 1.282 . S
C98 O99 1.306 . S
C98 O101 1.160 . S
O99 C98 1.306 . S
O99 Cd100 2.228 . S
Cd100 O99 2.228 . S
Cd100 O104 2.273 . S
Cd100 O108 2.277 . S
O101 C98 1.160 . S
O101 Cd102 2.203 . S
Cd102 O101 2.203 . S
Cd102 O104 2.411 . S
Cd102 O105 2.333 . S
Cd102 O106 2.352 . S
Cd102 O110 2.277 . S
Cd102 O111 2.356 . S
C103 O108 1.209 . S
C103 O110 1.226 . S
O104 Cd100 2.273 . S
O104 Cd102 2.411 . S
O104 C107 1.320 . S
O105 Cd102 2.333 . S
O105 C107 1.214 . S
O106 Cd102 2.352 . S
O106 C109 1.258 . S
C107 O104 1.320 . S
C107 O105 1.214 . S
O108 Cd100 2.277 . S
O108 C103 1.209 . S
C109 O106 1.258 . S
C109 O111 1.282 . S
O110 Cd102 2.277 . S
O110 C103 1.226 . S
O111 Cd102 2.356 . S
O111 C109 1.282 . S
H112 C113 0.951 . S
C113 H112 0.951 . S
C113 C119 1.265 . S
H114 C119 0.950 . S
H115 C123 0.949 . S
H116 C124 0.950 . S
H117 C125 0.951 . S
H118 C126 0.951 . S
C119 C113 1.265 . S
C119 H114 0.950 . S
C119 C120 1.478 . S
C120 C119 1.478 . S
C120 C121 1.397 . S
C120 C137 1.394 . S
C121 C120 1.397 . S
C121 C122 1.438 . S
C121 C126 1.429 . S
C122 C121 1.438 . S
C122 C123 1.428 . S
C122 C135 1.394 . S
C123 H115 0.949 . S
C123 C122 1.428 . S
C123 C124 1.345 . S
C124 H116 0.950 . S
C124 C123 1.345 . S
C124 C125 1.424 . S
C125 H117 0.951 . S
C125 C124 1.424 . S
C125 C126 1.347 . S
C126 H118 0.951 . S
C126 C121 1.429 . S
C126 C125 1.347 . S
H127 C128 0.951 . S
C128 H127 0.951 . S
C128 C134 1.265 . S
H129 C134 0.950 . S
H130 C138 0.949 . S
H131 C139 0.950 . S
H132 C140 0.951 . S
H133 C141 0.951 . S
C134 C128 1.265 . S
C134 H129 0.950 . S
C134 C135 1.478 . S
C135 C122 1.394 . S
C135 C134 1.478 . S
C135 C136 1.397 . S
C136 C135 1.397 . S
C136 C137 1.438 . S
C136 C141 1.429 . S
C137 C120 1.394 . S
C137 C136 1.438 . S
C137 C138 1.428 . S
C138 H130 0.949 . S
C138 C137 1.428 . S
C138 C139 1.345 . S
C139 H131 0.950 . S
C139 C138 1.345 . S
C139 C140 1.424 . S
C140 H132 0.951 . S
C140 C139 1.424 . S
C140 C141 1.347 . S
C141 H133 0.951 . S
C141 C136 1.429 . S
C141 C140 1.347 . S
H142 C143 0.951 . S
C143 H142 0.951 . S
C143 C149 1.265 1_655 S
H144 C149 0.950 . S
H145 C153 0.949 . S
H146 C154 0.950 . S
H147 C155 0.951 . S
H148 C156 0.951 . S
C149 C143 1.265 1_455 S
C149 H144 0.950 . S
C149 C150 1.478 . S
C150 C149 1.478 . S
C150 C151 1.397 . S
C150 C167 1.394 1_545 S
C151 C150 1.397 . S
C151 C152 1.438 . S
C151 C156 1.429 . S
C152 C151 1.438 . S
C152 C153 1.428 . S
C152 C165 1.394 1_545 S
C153 H145 0.949 . S
C153 C152 1.428 . S
C153 C154 1.345 . S
C154 H146 0.950 . S
C154 C153 1.345 . S
C154 C155 1.424 . S
C155 H147 0.951 . S
C155 C154 1.424 . S
C155 C156 1.347 . S
C156 H148 0.951 . S
C156 C151 1.429 . S
C156 C155 1.347 . S
H157 C158 0.951 . S
C158 H157 0.951 . S
C158 C164 1.265 . S
H159 C164 0.950 . S
H160 C168 0.949 . S
H161 C169 0.950 . S
H162 C170 0.951 . S
H163 C171 0.951 . S
C164 C158 1.265 . S
C164 H159 0.950 . S
C164 C165 1.478 . S
C165 C152 1.394 1_565 S
C165 C164 1.478 . S
C165 C166 1.397 . S
C166 C165 1.397 . S
C166 C167 1.438 . S
C166 C171 1.429 . S
C167 C150 1.394 1_565 S
C167 C166 1.438 . S
C167 C168 1.428 . S
C168 H160 0.949 . S
C168 C167 1.428 . S
C168 C169 1.345 . S
C169 H161 0.950 . S
C169 C168 1.345 . S
C169 C170 1.424 . S
C170 H162 0.951 . S
C170 C169 1.424 . S
C170 C171 1.347 . S
C171 H163 0.951 . S
C171 C166 1.429 . S
C171 C170 1.347 . S
H172 C173 0.951 . S
C173 H172 0.951 . S
C173 C179 1.265 . S
H174 C179 0.950 . S
H175 C183 0.949 1_455 S
H176 C184 0.950 1_455 S
H177 C185 0.951 . S
H178 C186 0.951 . S
C179 C173 1.265 . S
C179 H174 0.950 . S
C179 C180 1.478 . S
C180 C179 1.478 . S
C180 C181 1.397 . S
C180 C197 1.394 . S
C181 C180 1.397 . S
C181 C182 1.438 . S
C181 C186 1.429 . S
C182 C181 1.438 . S
C182 C183 1.428 . S
C182 C195 1.394 . S
C183 H175 0.949 1_655 S
C183 C182 1.428 . S
C183 C184 1.345 . S
C184 H176 0.950 1_655 S
C184 C183 1.345 . S
C184 C185 1.424 . S
C185 H177 0.951 . S
C185 C184 1.424 . S
C185 C186 1.347 . S
C186 H178 0.951 . S
C186 C181 1.429 . S
C186 C185 1.347 . S
H187 C188 0.951 . S
C188 H187 0.951 . S
C188 C194 1.265 . S
H189 C194 0.950 . S
H190 C198 0.949 . S
H191 C199 0.950 . S
H192 C200 0.951 . S
H193 C201 0.951 . S
C194 C188 1.265 . S
C194 H189 0.950 . S
C194 C195 1.478 . S
C195 C182 1.394 . S
C195 C194 1.478 . S
C195 C196 1.397 . S
C196 C195 1.397 . S
C196 C197 1.438 . S
C196 C201 1.429 . S
C197 C180 1.394 . S
C197 C196 1.438 . S
C197 C198 1.428 . S
C198 H190 0.949 . S
C198 C197 1.428 . S
C198 C199 1.345 . S
C199 H191 0.950 . S
C199 C198 1.345 . S
C199 C200 1.424 . S
C200 H192 0.951 . S
C200 C199 1.424 . S
C200 C201 1.347 . S
C201 H193 0.951 . S
C201 C196 1.429 . S
C201 C200 1.347 . S
H202 C203 0.951 . S
C203 H202 0.951 . S
C203 C209 1.265 . S
H204 C209 0.950 . S
H205 C213 0.949 . S
H206 C214 0.950 . S
H207 C215 0.951 . S
H208 C216 0.951 . S
C209 C203 1.265 . S
C209 H204 0.950 . S
C209 C210 1.478 . S
C210 C209 1.478 . S
C210 C211 1.397 1_545 S
C210 C227 1.394 . S
C211 C210 1.397 1_565 S
C211 C212 1.438 . S
C211 C216 1.429 . S
C212 C211 1.438 . S
C212 C213 1.428 . S
C212 C225 1.394 . S
C213 H205 0.949 . S
C213 C212 1.428 . S
C213 C214 1.345 . S
C214 H206 0.950 . S
C214 C213 1.345 . S
C214 C215 1.424 . S
C215 H207 0.951 . S
C215 C214 1.424 . S
C215 C216 1.347 . S
C216 H208 0.951 . S
C216 C211 1.429 . S
C216 C215 1.347 . S
H217 C218 0.951 . S
C218 H217 0.951 . S
C218 C224 1.265 . S
H219 C224 0.950 . S
H220 C228 0.949 . S
H221 C229 0.950 . S
H222 C230 0.951 . S
H223 C231 0.951 . S
C224 C218 1.265 . S
C224 H219 0.950 . S
C224 C225 1.478 . S
C225 C212 1.394 . S
C225 C224 1.478 . S
C225 C226 1.397 1_565 S
C226 C225 1.397 1_545 S
C226 C227 1.438 . S
C226 C231 1.429 . S
C227 C210 1.394 . S
C227 C226 1.438 . S
C227 C228 1.428 . S
C228 H220 0.949 . S
C228 C227 1.428 . S
C228 C229 1.345 . S
C229 H221 0.950 . S
C229 C228 1.345 . S
C229 C230 1.424 . S
C230 H222 0.951 . S
C230 C229 1.424 . S
C230 C231 1.347 . S
C231 H223 0.951 . S
C231 C226 1.429 . S
C231 C230 1.347 . S
H232 C233 0.951 . S
C233 H232 0.951 . S
C233 C239 1.265 . S
H234 C239 0.950 . S
H235 C243 0.949 . S
H236 C244 0.950 . S
H237 C245 0.951 . S
H238 C246 0.951 . S
C239 C233 1.265 . S
C239 H234 0.950 . S
C239 C240 1.478 . S
C240 C239 1.478 . S
C240 C241 1.397 . S
C240 C257 1.394 . S
C241 C240 1.397 . S
C241 C242 1.438 . S
C241 C246 1.429 . S
C242 C241 1.438 . S
C242 C243 1.428 . S
C242 C255 1.394 . S
C243 H235 0.949 . S
C243 C242 1.428 . S
C243 C244 1.345 . S
C244 H236 0.950 . S
C244 C243 1.345 . S
C244 C245 1.424 . S
C245 H237 0.951 . S
C245 C244 1.424 . S
C245 C246 1.347 . S
C246 H238 0.951 . S
C246 C241 1.429 . S
C246 C245 1.347 . S
H247 C248 0.951 . S
C248 H247 0.951 . S
C248 C254 1.265 . S
H249 C254 0.950 . S
H250 C258 0.949 . S
H251 C259 0.950 . S
H252 C260 0.951 . S
H253 C261 0.951 . S
C254 C248 1.265 . S
C254 H249 0.950 . S
C254 C255 1.478 . S
C255 C242 1.394 . S
C255 C254 1.478 . S
C255 C256 1.397 . S
C256 C255 1.397 . S
C256 C257 1.438 . S
C256 C261 1.429 . S
C257 C240 1.394 . S
C257 C256 1.438 . S
C257 C258 1.428 . S
C258 H250 0.949 . S
C258 C257 1.428 . S
C258 C259 1.345 . S
C259 H251 0.950 . S
C259 C258 1.345 . S
C259 C260 1.424 . S
C260 H252 0.951 . S
C260 C259 1.424 . S
C260 C261 1.347 . S
C261 H253 0.951 . S
C261 C256 1.429 . S
C261 C260 1.347 . S
H262 C263 0.951 . S
C263 H262 0.951 . S
C263 C269 1.265 . S
H264 C269 0.950 . S
H265 C273 0.938 1_455 S
H266 C274 0.950 1_455 S
H267 C275 0.951 . S
H268 C276 0.951 . S
C269 C263 1.265 . S
C269 H264 0.950 . S
C269 C270 1.478 . S
C270 C269 1.478 . S
C270 C271 1.397 . S
C270 C287 1.394 1_545 S
C271 C270 1.397 . S
C271 C272 1.438 . S
C271 C276 1.429 . S
C272 C271 1.438 . S
C272 C273 1.428 . S
C272 C285 1.394 1_545 S
C273 H265 0.938 1_655 S
C273 C272 1.428 . S
C273 C274 1.345 . S
C274 H266 0.950 1_655 S
C274 C273 1.345 . S
C274 C275 1.424 . S
C275 H267 0.951 . S
C275 C274 1.424 . S
C275 C276 1.347 . S
C276 H268 0.951 . S
C276 C271 1.429 . S
C276 C275 1.347 . S
H277 C278 0.951 . S
C278 H277 0.951 . S
C278 C284 1.265 1_455 S
H279 C284 0.950 . S
H280 C288 0.949 . S
H281 C289 0.950 . S
H282 C290 0.951 . S
H283 C291 0.951 . S
C284 C278 1.265 1_655 S
C284 H279 0.950 . S
C284 C285 1.478 . S
C285 C272 1.394 1_565 S
C285 C284 1.478 . S
C285 C286 1.397 . S
C286 C285 1.397 . S
C286 C287 1.438 . S
C286 C291 1.429 . S
C287 C270 1.394 1_565 S
C287 C286 1.438 . S
C287 C288 1.428 . S
C288 H280 0.949 . S
C288 C287 1.428 . S
C288 C289 1.345 . S
C289 H281 0.950 . S
C289 C288 1.345 . S
C289 C290 1.424 . S
C290 H282 0.951 . S
C290 C289 1.424 . S
C290 C291 1.347 . S
C291 H283 0.951 . S
C291 C286 1.429 . S
C291 C290 1.347 . S
H292 C293 0.951 . S
C293 H292 0.951 . S
C293 C299 1.265 . S
H294 C299 0.950 . S
H295 C303 0.949 1_655 S
H296 C304 0.950 . S
H297 C305 0.951 . S
H298 C306 0.951 . S
C299 C293 1.265 . S
C299 H294 0.950 . S
C299 C300 1.478 . S
C300 C299 1.478 . S
C300 C301 1.397 . S
C300 C317 1.394 . S
C301 C300 1.397 . S
C301 C302 1.438 . S
C301 C306 1.429 . S
C302 C301 1.438 . S
C302 C303 1.428 . S
C302 C315 1.394 . S
C303 H295 0.949 1_455 S
C303 C302 1.428 . S
C303 C304 1.345 1_455 S
C304 H296 0.950 . S
C304 C303 1.345 1_655 S
C304 C305 1.424 1_655 S
C305 H297 0.951 . S
C305 C304 1.424 1_455 S
C305 C306 1.347 . S
C306 H298 0.951 . S
C306 C301 1.429 . S
C306 C305 1.347 . S
H307 C308 0.951 . S
C308 H307 0.951 . S
C308 C314 1.265 . S
H309 C314 0.950 . S
H310 C318 0.949 . S
H311 C319 0.950 . S
H312 C320 0.951 . S
H313 C321 0.951 . S
C314 C308 1.265 . S
C314 H309 0.950 . S
C314 C315 1.478 . S
C315 C302 1.394 . S
C315 C314 1.478 . S
C315 C316 1.397 . S
C316 C315 1.397 . S
C316 C317 1.438 . S
C316 C321 1.429 . S
C317 C300 1.394 . S
C317 C316 1.438 . S
C317 C318 1.428 . S
C318 H310 0.949 . S
C318 C317 1.428 . S
C318 C319 1.345 . S
C319 H311 0.950 . S
C319 C318 1.345 . S
C319 C320 1.424 . S
C320 H312 0.951 . S
C320 C319 1.424 . S
C320 C321 1.347 . S
C321 H313 0.951 . S
C321 C316 1.429 . S
C321 C320 1.347 . S
H322 C323 0.951 . S
C323 H322 0.951 . S
C323 C329 1.265 . S
H324 C329 0.950 . S
H325 C333 0.949 . S
H326 C334 0.950 . S
H327 C335 0.951 . S
H328 C336 0.951 . S
C329 C323 1.265 . S
C329 H324 0.950 . S
C329 C330 1.478 . S
C330 C329 1.478 . S
C330 C331 1.397 1_565 S
C330 C347 1.394 . S
C331 C330 1.397 1_545 S
C331 C332 1.438 . S
C331 C336 1.429 . S
C332 C331 1.438 . S
C332 C333 1.428 . S
C332 C345 1.394 . S
C333 H325 0.949 . S
C333 C332 1.428 . S
C333 C334 1.345 . S
C334 H326 0.950 . S
C334 C333 1.345 . S
C334 C335 1.424 . S
C335 H327 0.951 . S
C335 C334 1.424 . S
C335 C336 1.347 . S
C336 H328 0.951 . S
C336 C331 1.429 . S
C336 C335 1.347 . S
H337 C338 0.951 . S
C338 H337 0.951 . S
C338 C344 1.265 . S
H339 C344 0.950 . S
H340 C348 0.949 . S
H341 C349 0.950 . S
H342 C350 0.951 . S
H343 C351 0.951 . S
C344 C338 1.265 . S
C344 H339 0.950 . S
C344 C345 1.478 . S
C345 C332 1.394 . S
C345 C344 1.478 . S
C345 C346 1.397 1_545 S
C346 C345 1.397 1_565 S
C346 C347 1.438 . S
C346 C351 1.429 . S
C347 C330 1.394 . S
C347 C346 1.438 . S
C347 C348 1.428 . S
C348 H340 0.949 . S
C348 C347 1.428 . S
C348 C349 1.345 . S
C349 H341 0.950 . S
C349 C348 1.345 . S
C349 C350 1.424 . S
C350 H342 0.951 . S
C350 C349 1.424 . S
C350 C351 1.347 . S
C351 H343 0.951 . S
C351 C346 1.429 . S
C351 C350 1.347 . S
H352 C353 0.951 . S
C353 H352 0.951 . S
C353 C359 1.265 . S
H354 C359 0.950 . S
H355 C363 0.949 . S
H356 C364 0.950 . S
H357 C365 0.951 . S
H358 C366 0.951 . S
C359 C353 1.265 . S
C359 H354 0.950 . S
C359 C360 1.478 . S
C360 C359 1.478 . S
C360 C361 1.397 . S
C360 C377 1.394 1_455 S
C361 C360 1.397 . S
C361 C362 1.438 . S
C361 C366 1.429 . S
C362 C361 1.438 . S
C362 C363 1.428 . S
C362 C375 1.394 1_455 S
C363 H355 0.949 . S
C363 C362 1.428 . S
C363 C364 1.345 . S
C364 H356 0.950 . S
C364 C363 1.345 . S
C364 C365 1.424 . S
C365 H357 0.951 . S
C365 C364 1.424 . S
C365 C366 1.347 . S
C366 H358 0.951 . S
C366 C361 1.429 . S
C366 C365 1.347 . S
H367 C368 0.951 . S
C368 H367 0.951 . S
C368 C374 1.265 . S
H369 C374 0.950 . S
H370 C378 0.949 . S
H371 C379 0.950 . S
H372 C380 0.951 . S
H373 C381 0.951 . S
C374 C368 1.265 . S
C374 H369 0.950 . S
C374 C375 1.478 . S
C375 C362 1.394 1_655 S
C375 C374 1.478 . S
C375 C376 1.397 . S
C376 C375 1.397 . S
C376 C377 1.438 . S
C376 C381 1.429 . S
C377 C360 1.394 1_655 S
C377 C376 1.438 . S
C377 C378 1.428 . S
C378 H370 0.949 . S
C378 C377 1.428 . S
C378 C379 1.345 . S
C379 H371 0.950 . S
C379 C378 1.345 . S
C379 C380 1.424 . S
C380 H372 0.951 . S
C380 C379 1.424 . S
C380 C381 1.347 . S
C381 H373 0.951 . S
C381 C376 1.429 . S
C381 C380 1.347 . S
H382 C383 0.951 . S
C383 H382 0.951 . S
C383 C389 1.265 . S
H384 C389 0.950 . S
H385 C393 0.949 . S
H386 C394 0.950 . S
H387 C395 0.951 . S
H388 C396 0.951 . S
C389 C383 1.265 . S
C389 H384 0.950 . S
C389 C390 1.478 . S
C390 C389 1.478 . S
C390 C391 1.397 1_565 S
C390 C407 1.394 . S
C391 C390 1.397 1_545 S
C391 C392 1.438 . S
C391 C396 1.429 . S
C392 C391 1.438 . S
C392 C393 1.428 . S
C392 C405 1.394 . S
C393 H385 0.949 . S
C393 C392 1.428 . S
C393 C394 1.345 . S
C394 H386 0.950 . S
C394 C393 1.345 . S
C394 C395 1.424 . S
C395 H387 0.951 . S
C395 C394 1.424 . S
C395 C396 1.347 . S
C396 H388 0.951 . S
C396 C391 1.429 . S
C396 C395 1.347 . S
H397 C398 0.951 . S
C398 H397 0.951 . S
C398 C404 1.265 . S
H399 C404 0.950 . S
H400 C408 0.949 . S
H401 C409 0.950 . S
H402 C410 0.951 . S
H403 C411 0.951 . S
C404 C398 1.265 . S
C404 H399 0.950 . S
C404 C405 1.478 . S
C405 C392 1.394 . S
C405 C404 1.478 . S
C405 C406 1.397 1_545 S
C406 C405 1.397 1_565 S
C406 C407 1.438 . S
C406 C411 1.429 . S
C407 C390 1.394 . S
C407 C406 1.438 . S
C407 C408 1.428 . S
C408 H400 0.949 . S
C408 C407 1.428 . S
C408 C409 1.345 . S
C409 H401 0.950 . S
C409 C408 1.345 . S
C409 C410 1.424 . S
C410 H402 0.951 . S
C410 C409 1.424 . S
C410 C411 1.347 . S
C411 H403 0.951 . S
C411 C406 1.429 . S
C411 C410 1.347 . S
H412 C413 0.951 . S
C413 H412 0.951 . S
C413 C419 1.265 . S
H414 C419 0.950 . S
H415 C423 0.949 . S
H416 C424 0.950 . S
H417 C425 0.951 . S
H418 C426 0.951 . S
C419 C413 1.265 . S
C419 H414 0.950 . S
C419 C420 1.478 . S
C420 C419 1.478 . S
C420 C421 1.397 . S
C420 C437 1.394 . S
C421 C420 1.397 . S
C421 C422 1.438 1_554 S
C421 C426 1.429 . S
C422 C421 1.438 1_556 S
C422 C423 1.428 . S
C422 C435 1.394 . S
C423 H415 0.949 . S
C423 C422 1.428 . S
C423 C424 1.345 . S
C424 H416 0.950 . S
C424 C423 1.345 . S
C424 C425 1.424 . S
C425 H417 0.951 . S
C425 C424 1.424 . S
C425 C426 1.347 1_556 S
C426 H418 0.951 . S
C426 C421 1.429 . S
C426 C425 1.347 1_554 S
H427 C428 0.951 . S
C428 H427 0.951 . S
C428 C434 1.265 . S
H429 C434 0.950 . S
H430 C438 0.949 . S
H431 C439 0.950 . S
H432 C440 0.951 . S
H433 C441 0.951 . S
C434 C428 1.265 . S
C434 H429 0.950 . S
C434 C435 1.478 . S
C435 C422 1.394 . S
C435 C434 1.478 . S
C435 C436 1.397 . S
C436 C435 1.397 . S
C436 C437 1.438 1_556 S
C436 C441 1.429 . S
C437 C420 1.394 . S
C437 C436 1.438 1_554 S
C437 C438 1.428 . S
C438 H430 0.949 . S
C438 C437 1.428 . S
C438 C439 1.345 . S
C439 H431 0.950 . S
C439 C438 1.345 . S
C439 C440 1.424 . S
C440 H432 0.951 . S
C440 C439 1.424 . S
C440 C441 1.347 1_554 S
C441 H433 0.951 . S
C441 C436 1.429 . S
C441 C440 1.347 1_556 S
H442 C443 0.951 . S
C443 H442 0.951 . S
C443 C449 1.265 . S
H444 C449 0.950 . S
H445 C453 0.949 . S
H446 C454 0.950 . S
H447 C455 0.951 . S
H448 C456 0.951 1_565 S
C449 C443 1.265 . S
C449 H444 0.950 . S
C449 C450 1.478 . S
C450 C449 1.478 . S
C450 C451 1.397 1_565 S
C450 C467 1.394 1_455 S
C451 C450 1.397 1_545 S
C451 C452 1.438 1_556 S
C451 C456 1.429 . S
C452 C451 1.438 1_554 S
C452 C453 1.428 . S
C452 C465 1.394 1_455 S
C453 H445 0.949 . S
C453 C452 1.428 . S
C453 C454 1.345 . S
C454 H446 0.950 . S
C454 C453 1.345 . S
C454 C455 1.424 . S
C455 H447 0.951 . S
C455 C454 1.424 . S
C455 C456 1.347 1_554 S
C456 H448 0.951 1_545 S
C456 C451 1.429 . S
C456 C455 1.347 1_556 S
H457 C458 0.951 . S
C458 H457 0.951 . S
C458 C464 1.265 . S
H459 C464 0.950 . S
H460 C468 0.949 . S
H461 C469 0.950 . S
H462 C470 0.951 . S
H463 C471 0.951 1_545 S
C464 C458 1.265 . S
C464 H459 0.950 . S
C464 C465 1.478 . S
C465 C452 1.394 1_655 S
C465 C464 1.478 . S
C465 C466 1.397 1_545 S
C466 C465 1.397 1_565 S
C466 C467 1.438 1_554 S
C466 C471 1.429 . S
C467 C450 1.394 1_655 S
C467 C466 1.438 1_556 S
C467 C468 1.428 . S
C468 H460 0.949 . S
C468 C467 1.428 . S
C468 C469 1.345 . S
C469 H461 0.950 . S
C469 C468 1.345 . S
C469 C470 1.424 . S
C470 H462 0.951 . S
C470 C469 1.424 . S
C470 C471 1.347 1_556 S
C471 H463 0.951 1_565 S
C471 C466 1.429 . S
C471 C470 1.347 1_554 S
H472 C473 0.951 . S
C473 H472 0.951 . S
C473 C479 1.265 . S
H474 C479 0.950 . S
H475 C483 0.949 . S
H476 C484 0.950 . S
H477 C485 0.951 . S
H478 C486 0.951 . S
C479 C473 1.265 . S
C479 H474 0.950 . S
C479 C480 1.478 . S
C480 C479 1.478 . S
C480 C481 1.397 . S
C480 C497 1.394 . S
C481 C480 1.397 . S
C481 C482 1.438 . S
C481 C486 1.429 . S
C482 C481 1.438 . S
C482 C483 1.428 . S
C482 C495 1.394 . S
C483 H475 0.949 . S
C483 C482 1.428 . S
C483 C484 1.345 . S
C484 H476 0.950 . S
C484 C483 1.345 . S
C484 C485 1.424 . S
C485 H477 0.951 . S
C485 C484 1.424 . S
C485 C486 1.347 . S
C486 H478 0.951 . S
C486 C481 1.429 . S
C486 C485 1.347 . S
H487 C488 0.951 . S
C488 H487 0.951 . S
C488 C494 1.265 . S
H489 C494 0.950 . S
H490 C498 0.949 . S
H491 C499 0.950 . S
H492 C500 0.951 . S
H493 C501 0.951 . S
C494 C488 1.265 . S
C494 H489 0.950 . S
C494 C495 1.478 . S
C495 C482 1.394 . S
C495 C494 1.478 . S
C495 C496 1.397 . S
C496 C495 1.397 . S
C496 C497 1.438 . S
C496 C501 1.429 . S
C497 C480 1.394 . S
C497 C496 1.438 . S
C497 C498 1.428 . S
C498 H490 0.949 . S
C498 C497 1.428 . S
C498 C499 1.345 . S
C499 H491 0.950 . S
C499 C498 1.345 . S
C499 C500 1.424 . S
C500 H492 0.951 . S
C500 C499 1.424 . S
C500 C501 1.347 . S
C501 H493 0.951 . S
C501 C496 1.429 . S
C501 C500 1.347 . S
H502 C503 0.951 . S
C503 H502 0.951 . S
C503 C509 1.265 . S
H504 C509 0.950 . S
H505 C513 0.949 . S
H506 C514 0.950 . S
H507 C515 0.951 . S
H508 C516 0.951 . S
C509 C503 1.265 . S
C509 H504 0.950 . S
C509 C510 1.478 . S
C510 C509 1.478 . S
C510 C511 1.397 . S
C510 C527 1.394 . S
C511 C510 1.397 . S
C511 C512 1.438 . S
C511 C516 1.429 . S
C512 C511 1.438 . S
C512 C513 1.428 . S
C512 C525 1.394 . S
C513 H505 0.949 . S
C513 C512 1.428 . S
C513 C514 1.345 . S
C514 H506 0.950 . S
C514 C513 1.345 . S
C514 C515 1.424 . S
C515 H507 0.951 . S
C515 C514 1.424 . S
C515 C516 1.347 . S
C516 H508 0.951 . S
C516 C511 1.429 . S
C516 C515 1.347 . S
H517 C518 0.951 . S
C518 H517 0.951 . S
C518 C524 1.265 . S
H519 C524 0.950 . S
H520 C528 0.949 . S
H521 C529 0.950 . S
H522 C530 0.951 . S
H523 C531 0.951 . S
C524 C518 1.265 . S
C524 H519 0.950 . S
C524 C525 1.478 . S
C525 C512 1.394 . S
C525 C524 1.478 . S
C525 C526 1.397 . S
C526 C525 1.397 . S
C526 C527 1.438 . S
C526 C531 1.429 . S
C527 C510 1.394 . S
C527 C526 1.438 . S
C527 C528 1.428 . S
C528 H520 0.949 . S
C528 C527 1.428 . S
C528 C529 1.345 . S
C529 H521 0.950 . S
C529 C528 1.345 . S
C529 C530 1.424 . S
C530 H522 0.951 . S
C530 C529 1.424 . S
C530 C531 1.347 . S
C531 H523 0.951 . S
C531 C526 1.429 . S
C531 C530 1.347 . S
H532 C533 0.951 . S
C533 H532 0.951 . S
C533 C539 1.265 . S
H534 C539 0.950 . S
H535 C543 0.949 . S
H536 C544 0.950 . S
H537 C545 0.951 . S
H538 C546 0.951 . S
C539 C533 1.265 . S
C539 H534 0.950 . S
C539 C540 1.478 . S
C540 C539 1.478 . S
C540 C541 1.397 . S
C540 C557 1.394 . S
C541 C540 1.397 . S
C541 C542 1.438 . S
C541 C546 1.429 . S
C542 C541 1.438 . S
C542 C543 1.428 . S
C542 C555 1.394 . S
C543 H535 0.949 . S
C543 C542 1.428 . S
C543 C544 1.345 . S
C544 H536 0.950 . S
C544 C543 1.345 . S
C544 C545 1.424 . S
C545 H537 0.951 . S
C545 C544 1.424 . S
C545 C546 1.347 . S
C546 H538 0.951 . S
C546 C541 1.429 . S
C546 C545 1.347 . S
H547 C548 0.951 . S
C548 H547 0.951 . S
C548 C554 1.265 . S
H549 C554 0.950 . S
H550 C558 0.949 . S
H551 C559 0.950 . S
H552 C560 0.951 . S
H553 C561 0.951 . S
C554 C548 1.265 . S
C554 H549 0.950 . S
C554 C555 1.478 . S
C555 C542 1.394 . S
C555 C554 1.478 . S
C555 C556 1.397 . S
C556 C555 1.397 . S
C556 C557 1.438 . S
C556 C561 1.429 . S
C557 C540 1.394 . S
C557 C556 1.438 . S
C557 C558 1.428 . S
C558 H550 0.949 . S
C558 C557 1.428 . S
C558 C559 1.345 . S
C559 H551 0.950 . S
C559 C558 1.345 . S
C559 C560 1.424 . S
C560 H552 0.951 . S
C560 C559 1.424 . S
C560 C561 1.347 . S
C561 H553 0.951 . S
C561 C556 1.429 . S
C561 C560 1.347 . S
H562 C563 0.951 . S
C563 H562 0.951 . S
C563 C569 1.265 . S
H564 C569 0.950 . S
H565 C573 0.949 . S
H566 C574 0.950 . S
H567 C575 0.951 . S
H568 C576 0.951 . S
C569 C563 1.265 . S
C569 H564 0.950 . S
C569 C570 1.478 . S
C570 C569 1.478 . S
C570 C571 1.397 . S
C570 C587 1.394 . S
C571 C570 1.397 . S
C571 C572 1.438 . S
C571 C576 1.429 . S
C572 C571 1.438 . S
C572 C573 1.428 . S
C572 C585 1.394 . S
C573 H565 0.949 . S
C573 C572 1.428 . S
C573 C574 1.345 . S
C574 H566 0.950 . S
C574 C573 1.345 . S
C574 C575 1.424 . S
C575 H567 0.951 . S
C575 C574 1.424 . S
C575 C576 1.347 . S
C576 H568 0.951 . S
C576 C571 1.429 . S
C576 C575 1.347 . S
H577 C578 0.951 . S
C578 H577 0.951 . S
C578 C584 1.265 . S
H579 C584 0.950 . S
H580 C588 0.949 . S
H581 C589 0.950 . S
H582 C590 0.951 . S
H583 C591 0.951 . S
C584 C578 1.265 . S
C584 H579 0.950 . S
C584 C585 1.478 . S
C585 C572 1.394 . S
C585 C584 1.478 . S
C585 C586 1.397 . S
C586 C585 1.397 . S
C586 C587 1.438 . S
C586 C591 1.429 . S
C587 C570 1.394 . S
C587 C586 1.438 . S
C587 C588 1.428 . S
C588 H580 0.949 . S
C588 C587 1.428 . S
C588 C589 1.345 . S
C589 H581 0.950 . S
C589 C588 1.345 . S
C589 C590 1.424 . S
C590 H582 0.951 . S
C590 C589 1.424 . S
C590 C591 1.347 . S
C591 H583 0.951 . S
C591 C586 1.429 . S
C591 C590 1.347 . S
C113 C5 1.412 . S
C128 C37 1.403 . S
C143 C51 1.405 . S
C158 C19 1.397 . S
C173 C33 1.416 . S
C188 C9 1.397 1_655 S
C203 C47 1.393 . S
C218 C23 1.409 . S
C233 C93 1.404 . S
C248 C61 1.399 . S
C263 C75 1.393 . S
C278 C107 1.409 . S
C293 C89 1.393 . S
C308 C65 1.413 1_455 S
C323 C103 1.409 . S
C338 C79 1.405 . S
C353 C11 1.518 . S
C368 C67 1.518 . S
C383 C25 1.496 . S
C398 C81 1.496 . S
C413 C39 1.485 . S
C428 C95 1.485 . S
C443 C109 1.482 . S
C458 C53 1.482 . S
C473 C0 1.504 . S
C488 C14 1.502 . S
C503 C42 1.505 . S
C518 C28 1.501 . S
C533 C70 1.497 . S
C548 C56 1.488 . S
C563 C84 1.503 . S
C578 C98 1.503 . S
