# Generated by pormake.
# Topology sod, (4)-cn, num edge types: 1
# Building blocks:
#     Node 0, Type 0, BuildingBlock: QUQFOY_clean_sbu_1, # of connection points: 4
#     Node 1, Type 0, BuildingBlock: QUQFOY_clean_sbu_1, # of connection points: 4
#     Node 2, Type 0, BuildingBlock: QUQFOY_clean_sbu_1, # of connection points: 4
#     Node 3, Type 0, BuildingBlock: QUQFOY_clean_sbu_1, # of connection points: 4
#     Node 4, Type 0, BuildingBlock: QUQFOY_clean_sbu_1, # of connection points: 4
#     Node 5, Type 0, BuildingBlock: QUQFOY_clean_sbu_1, # of connection points: 4
#     Node 6, Type 0, BuildingBlock: QUQFOY_clean_sbu_1, # of connection points: 4
#     Node 7, Type 0, BuildingBlock: QUQFOY_clean_sbu_1, # of connection points: 4
#     Node 8, Type 0, BuildingBlock: QUQFOY_clean_sbu_1, # of connection points: 4
#     Node 9, Type 0, BuildingBlock: QUQFOY_clean_sbu_1, # of connection points: 4
#     Node 10, Type 0, BuildingBlock: QUQFOY_clean_sbu_1, # of connection points: 4
#     Node 11, Type 0, BuildingBlock: QUQFOY_clean_sbu_1, # of connection points: 4
#     Edge 12, Type (0, 0), BuildingBlock: XUDNAN_clean_linker_2, # of connection points: 2
#     Edge 13, Type (0, 0), BuildingBlock: XUDNAN_clean_linker_2, # of connection points: 2
#     Edge 14, Type (0, 0), BuildingBlock: XUDNAN_clean_linker_2, # of connection points: 2
#     Edge 15, Type (0, 0), BuildingBlock: XUDNAN_clean_linker_2, # of connection points: 2
#     Edge 16, Type (0, 0), BuildingBlock: XUDNAN_clean_linker_2, # of connection points: 2
#     Edge 17, Type (0, 0), BuildingBlock: XUDNAN_clean_linker_2, # of connection points: 2
#     Edge 18, Type (0, 0), BuildingBlock: XUDNAN_clean_linker_2, # of connection points: 2
#     Edge 19, Type (0, 0), BuildingBlock: XUDNAN_clean_linker_2, # of connection points: 2
#     Edge 20, Type (0, 0), BuildingBlock: XUDNAN_clean_linker_2, # of connection points: 2
#     Edge 21, Type (0, 0), BuildingBlock: XUDNAN_clean_linker_2, # of connection points: 2
#     Edge 22, Type (0, 0), BuildingBlock: XUDNAN_clean_linker_2, # of connection points: 2
#     Edge 23, Type (0, 0), BuildingBlock: XUDNAN_clean_linker_2, # of connection points: 2
#     Edge 24, Type (0, 0), BuildingBlock: XUDNAN_clean_linker_2, # of connection points: 2
#     Edge 25, Type (0, 0), BuildingBlock: XUDNAN_clean_linker_2, # of connection points: 2
#     Edge 26, Type (0, 0), BuildingBlock: XUDNAN_clean_linker_2, # of connection points: 2
#     Edge 27, Type (0, 0), BuildingBlock: XUDNAN_clean_linker_2, # of connection points: 2
#     Edge 28, Type (0, 0), BuildingBlock: XUDNAN_clean_linker_2, # of connection points: 2
#     Edge 29, Type (0, 0), BuildingBlock: XUDNAN_clean_linker_2, # of connection points: 2
#     Edge 30, Type (0, 0), BuildingBlock: XUDNAN_clean_linker_2, # of connection points: 2
#     Edge 31, Type (0, 0), BuildingBlock: XUDNAN_clean_linker_2, # of connection points: 2
#     Edge 32, Type (0, 0), BuildingBlock: XUDNAN_clean_linker_2, # of connection points: 2
#     Edge 33, Type (0, 0), BuildingBlock: XUDNAN_clean_linker_2, # of connection points: 2
#     Edge 34, Type (0, 0), BuildingBlock: XUDNAN_clean_linker_2, # of connection points: 2
#     Edge 35, Type (0, 0), BuildingBlock: XUDNAN_clean_linker_2, # of connection points: 2
# Relax obj value: 0.195
# Max RMSD: 0.259
# Mean RMSD: 0.229
data_MOF--net-sod--node1-QUQFOY_clean_sbu_1--edge1-XUDNAN_clean_linker_2
_symmetry_space_group_name_H-M    P1
_symmetry_Int_Tables_number       1
_symmetry_cell_setting            triclinic
loop_
_symmetry_equiv_pos_as_xyz
'x, y, z'
_cell_length_a     44.234477
_cell_length_b     44.20195
_cell_length_c     44.138687
_cell_angle_alpha  93.644878
_cell_angle_beta   89.434204
_cell_angle_gamma 97.23709
loop_
_atom_site_label
_atom_site_type_symbol
_atom_site_fract_x
_atom_site_fract_y
_atom_site_fract_z
_atom_type_partial_charge
O0 O 0.0327 0.23845 0.50172 0.0
Cd1 Cd 0.07371 0.26373 0.4905 0.0
Cd2 Cd 0.04615 0.31323 0.52301 0.0
O3 O 0.01403 0.27629 0.52776 0.0
O4 O 0.10407 0.23464 0.48198 0.0
O5 O 0.10746 0.26884 0.52113 0.0
C6 C 0.11842 0.24666 0.506 0.0
C7 C 0.04127 0.35315 0.55987 0.0
C8 C 0.0116 0.24858 0.51765 0.0
C9 C 0.06509 0.31807 0.45614 0.0
O10 O 0.05365 0.3286 0.48046 0.0
O11 O 0.07533 0.29242 0.45488 0.0
O12 O 0.02166 0.34564 0.53864 0.0
O13 O 0.06422 0.33787 0.56057 0.0
O14 O 0.74868 0.0578 0.5819 0.0
Cd15 Cd 0.77268 0.06389 0.54233 0.0
Cd16 Cd 0.8155 0.03093 0.57682 0.0
O17 O 0.77968 0.03307 0.60725 0.0
O18 O 0.74598 0.0872 0.51911 0.0
O19 O 0.75655 0.04134 0.50327 0.0
C20 C 0.74275 0.06476 0.49893 0.0
C21 C 0.83735 0.9854 0.57571 0.0
C22 C 0.75501 0.04482 0.60546 0.0
C23 C 0.83841 0.09288 0.55419 0.0
O24 O 0.84465 0.06996 0.56785 0.0
O25 O 0.81205 0.09379 0.54348 0.0
O26 O 0.84144 0.00543 0.59823 0.0
O27 O 0.82095 0.99125 0.55327 0.0
O28 O 0.04967 0.83404 0.52171 0.0
Cd29 Cd 0.01054 0.80333 0.52356 0.0
Cd30 Cd 0.04854 0.77111 0.55705 0.0
O31 O 0.07099 0.81498 0.55996 0.0
O32 O 0.97695 0.82633 0.51216 0.0
O33 O 0.98212 0.81041 0.5582 0.0
C34 C 0.96763 0.82519 0.5399 0.0
C35 C 0.04945 0.74559 0.60173 0.0
C36 C 0.06998 0.83619 0.54208 0.0
C37 C 0.024 0.74269 0.49699 0.0
O38 O 0.045 0.74388 0.51666 0.0
O39 O 0.00583 0.76277 0.49764 0.0
O40 O 0.07307 0.74975 0.58449 0.0
O41 O 0.02481 0.75562 0.59341 0.0
O42 O 0.24174 0.02805 0.56655 0.0
Cd43 Cd 0.27792 0.06216 0.56299 0.0
Cd44 Cd 0.2975 0.01681 0.52471 0.0
O45 O 0.25191 0.00027 0.52534 0.0
O46 O 0.26276 0.09946 0.58204 0.0
O47 O 0.27351 0.09389 0.53308 0.0
C48 C 0.26334 0.11002 0.55547 0.0
C49 C 0.32484 0.00839 0.47984 0.0
C50 C 0.23402 0.00617 0.54697 0.0
C51 C 0.32968 0.03379 0.58464 0.0
O52 O 0.3225 0.01343 0.56344 0.0
O53 O 0.31719 0.05819 0.58642 0.0
O54 O 0.31465 0.98647 0.49646 0.0
O55 O 0.31865 0.03548 0.4881 0.0
O56 O 0.52357 0.00217 0.23806 0.0
Cd57 Cd 0.5124 0.03801 0.26713 0.0
Cd58 Cd 0.54877 0.01243 0.30615 0.0
O59 O 0.55805 0.98706 0.26746 0.0
O60 O 0.49722 0.06796 0.24094 0.0
O61 O 0.53982 0.07785 0.26763 0.0
C62 C 0.52103 0.08667 0.24878 0.0
C63 C 0.58989 0.0315 0.33746 0.0
C64 C 0.54411 0.98514 0.24229 0.0
C65 C 0.48264 0.01296 0.32288 0.0
O66 O 0.50738 0.00216 0.32743 0.0
O67 O 0.48023 0.02982 0.30099 0.0
O68 O 0.57929 0.00294 0.3358 0.0
O69 O 0.57715 0.0495 0.32105 0.0
O70 O 0.01394 0.55536 0.33178 0.0
Cd71 Cd 0.01941 0.51979 0.30012 0.0
Cd72 Cd 0.04704 0.56628 0.27118 0.0
O73 O 0.04547 0.59155 0.3119 0.0
O74 O 0.00715 0.48273 0.32283 0.0
O75 O 0.05351 0.49391 0.30434 0.0
C76 C 0.03448 0.47591 0.31931 0.0
C77 C 0.09264 0.55839 0.2475 0.0
C78 C 0.02794 0.58236 0.33328 0.0
C79 C 0.98975 0.53451 0.24344 0.0
O80 O 0.00829 0.55897 0.24455 0.0
O81 O 0.99193 0.51432 0.26226 0.0
O82 O 0.0811 0.58358 0.24523 0.0
O83 O 0.07865 0.53802 0.26417 0.0
O84 O 0.51769 0.05572 0.8346 0.0
Cd85 Cd 0.51566 0.02046 0.80098 0.0
Cd86 Cd 0.53919 0.06901 0.76993 0.0
O87 O 0.5378 0.09517 0.8098 0.0
O88 O 0.50288 0.98447 0.825 0.0
O89 O 0.54733 0.99124 0.80152 0.0
C90 C 0.52889 0.97529 0.81895 0.0
C91 C 0.58503 0.06056 0.74727 0.0
C92 C 0.52754 0.08399 0.83418 0.0
C93 C 0.48129 0.03561 0.7459 0.0
O94 O 0.50027 0.05953 0.74444 0.0
O95 O 0.48415 0.01666 0.76588 0.0
O96 O 0.57314 0.0853 0.74347 0.0
O97 O 0.57101 0.04082 0.76462 0.0
O98 O 0.00843 0.51815 0.74067 0.0
Cd99 Cd 0.01006 0.55141 0.77581 0.0
Cd100 Cd 0.04258 0.50935 0.80171 0.0
O101 O 0.04271 0.49128 0.75757 0.0
O102 O 0.99591 0.58631 0.75601 0.0
O103 O 0.04276 0.58717 0.77335 0.0
C104 C 0.02319 0.60028 0.75898 0.0
C105 C 0.08737 0.51045 0.82967 0.0
C106 C 0.02521 0.49693 0.7366 0.0
C107 C 0.98176 0.52118 0.82922 0.0
O108 O 0.00244 0.50364 0.82629 0.0
O109 O 0.9821 0.54398 0.81302 0.0
O110 O 0.07917 0.53541 0.82061 0.0
O111 O 0.07032 0.48523 0.8226 0.0
O112 O 0.34128 0.56503 0.0549 0.0
Cd113 Cd 0.31286 0.52572 0.06462 0.0
Cd114 Cd 0.2706 0.55486 0.03264 0.0
O115 O 0.3075 0.58785 0.03117 0.0
O116 O 0.33961 0.4998 0.0843 0.0
O117 O 0.3172 0.48629 0.04005 0.0
C118 C 0.33442 0.48004 0.06167 0.0
C119 C 0.24343 0.54031 0.98791 0.0
C120 C 0.33425 0.58768 0.04129 0.0
C121 C 0.25392 0.53947 0.09611 0.0
O122 O 0.24655 0.55184 0.07255 0.0
O123 O 0.27868 0.52776 0.09694 0.0
O124 O 0.24139 0.56616 0.00252 0.0
O125 O 0.26132 0.52262 0.99861 0.0
O126 O 0.55346 0.3364 0.02307 0.0
Cd127 Cd 0.51496 0.3058 0.01653 0.0
Cd128 Cd 0.53978 0.27491 0.06428 0.0
O129 O 0.56381 0.31857 0.06691 0.0
O130 O 0.48193 0.32797 0.00223 0.0
O131 O 0.48209 0.30871 0.04746 0.0
C132 C 0.46929 0.32426 0.02848 0.0
C133 C 0.53913 0.25013 0.10975 0.0
C134 C 0.56839 0.3389 0.04768 0.0
C135 C 0.5296 0.24379 0.99957 0.0
O136 O 0.53991 0.24429 0.02644 0.0
O137 O 0.51754 0.26621 0.99061 0.0
O138 O 0.56358 0.25532 0.09395 0.0
O139 O 0.51463 0.25933 0.10004 0.0
O140 O 0.74234 0.52947 0.07641 0.0
Cd141 Cd 0.77757 0.56393 0.07023 0.0
Cd142 Cd 0.79625 0.5216 0.03162 0.0
O143 O 0.75094 0.50389 0.03342 0.0
O144 O 0.76099 0.60356 0.07776 0.0
O145 O 0.77594 0.58627 0.03247 0.0
C146 C 0.76353 0.60669 0.04889 0.0
C147 C 0.82304 0.5143 0.98622 0.0
C148 C 0.73406 0.50825 0.05631 0.0
C149 C 0.83035 0.53834 0.09077 0.0
O150 O 0.8227 0.51839 0.06932 0.0
O151 O 0.81742 0.56245 0.0937 0.0
O152 O 0.81331 0.49198 0.00252 0.0
O153 O 0.81645 0.54113 0.995 0.0
O154 O 0.5299 0.73492 0.99722 0.0
Cd155 Cd 0.5711 0.76006 0.98622 0.0
Cd156 Cd 0.54679 0.8064 0.0229 0.0
O157 O 0.51167 0.77171 0.02533 0.0
O158 O 0.59766 0.73033 0.96841 0.0
O159 O 0.60806 0.75732 0.01185 0.0
C160 C 0.61547 0.73729 0.99142 0.0
C161 C 0.5557 0.83861 0.06698 0.0
C162 C 0.50877 0.74457 0.01349 0.0
C163 C 0.56209 0.81844 0.9575 0.0
O164 O 0.55176 0.82758 0.98292 0.0
O165 O 0.57158 0.79247 0.954 0.0
O166 O 0.53211 0.83904 0.05029 0.0
O167 O 0.57459 0.81963 0.05871 0.0
H168 H 0.0211 0.35125 0.441 0.0
H169 H 0.10847 0.32572 0.41097 0.0
H170 H 0.10934 0.36147 0.36955 0.0
H171 H 0.99098 0.35941 0.36484 0.0
H172 H 0.97127 0.39097 0.37825 0.0
H173 H 0.97701 0.36161 0.40333 0.0
H174 H 0.00331 0.40281 0.44222 0.0
H175 H 0.99789 0.43224 0.41724 0.0
H176 H 0.0356 0.42847 0.4304 0.0
H177 H 0.10252 0.40526 0.33538 0.0
H178 H 0.087 0.44903 0.30944 0.0
H179 H 0.00299 0.44244 0.3615 0.0
C180 C 0.04025 0.35284 0.42543 0.0
C181 C 0.06481 0.33598 0.42912 0.0
C182 C 0.08938 0.33843 0.40829 0.0
C183 C 0.09005 0.3587 0.38484 0.0
C184 C 0.06566 0.37565 0.38233 0.0
C185 C 0.04097 0.37237 0.40182 0.0
C186 C 0.01792 0.39352 0.39524 0.0
C187 C 0.9875 0.37528 0.38479 0.0
C188 C 0.01345 0.41556 0.42291 0.0
C189 C 0.03383 0.4101 0.36959 0.0
C190 C 0.06132 0.39961 0.3623 0.0
C191 C 0.08079 0.41321 0.34057 0.0
C192 C 0.07185 0.4381 0.32604 0.0
C193 C 0.04367 0.44893 0.33326 0.0
C194 C 0.02445 0.43443 0.3551 0.0
H195 H 0.71562 0.01684 0.46198 0.0
H196 H 0.72528 0.11563 0.47606 0.0
H197 H 0.6901 0.11821 0.43354 0.0
H198 H 0.70844 0.01271 0.37875 0.0
H199 H 0.6801 0.9796 0.37822 0.0
H200 H 0.70852 0.98571 0.40769 0.0
H201 H 0.66593 0.98262 0.44854 0.0
H202 H 0.63741 0.97657 0.41924 0.0
H203 H 0.63683 0.00767 0.44762 0.0
H204 H 0.65181 0.10998 0.39123 0.0
H205 H 0.61154 0.09118 0.35371 0.0
H206 H 0.62547 0.99778 0.36856 0.0
C207 C 0.71076 0.03902 0.45571 0.0
C208 C 0.72333 0.06604 0.47213 0.0
C209 C 0.71592 0.09463 0.46372 0.0
C210 C 0.69606 0.09635 0.43953 0.0
C211 C 0.68365 0.06927 0.42407 0.0
C212 C 0.69063 0.04113 0.43185 0.0
C213 C 0.67248 0.01538 0.41304 0.0
C214 C 0.69365 0.99729 0.39325 0.0
C215 C 0.65194 0.99434 0.43333 0.0
C216 C 0.65388 0.03343 0.39388 0.0
C217 C 0.66095 0.06449 0.40027 0.0
C218 C 0.64619 0.0857 0.38589 0.0
C219 C 0.62337 0.07483 0.36462 0.0
C220 C 0.61534 0.04305 0.35825 0.0
C221 C 0.63108 0.02222 0.37292 0.0
H222 H 0.06857 0.6267 0.36225 0.0
H223 H 0.97423 0.58554 0.36273 0.0
H224 H 0.96318 0.62208 0.40484 0.0
H225 H 0.07467 0.63847 0.4447 0.0
H226 H 0.09952 0.67397 0.44339 0.0
H227 H 0.09997 0.64498 0.41284 0.0
H228 H 0.08904 0.68405 0.37429 0.0
H229 H 0.08847 0.71313 0.40471 0.0
H230 H 0.05618 0.70415 0.37969 0.0
H231 H 0.96143 0.66533 0.44371 0.0
H232 H 0.97038 0.70894 0.48184 0.0
H233 H 0.06687 0.71879 0.46051 0.0
C234 C 0.04564 0.62546 0.37132 0.0
C235 C 0.02215 0.60355 0.35922 0.0
C236 C 0.9925 0.60218 0.37181 0.0
C237 C 0.986 0.62287 0.39561 0.0
C238 C 0.00958 0.64431 0.40699 0.0
C239 C 0.03894 0.64541 0.39572 0.0
C240 C 0.06027 0.67003 0.41291 0.0
C241 C 0.08507 0.65602 0.42944 0.0
C242 C 0.07431 0.69428 0.39163 0.0
C243 C 0.03816 0.68293 0.43519 0.0
C244 C 0.00897 0.66797 0.43105 0.0
C245 C 0.98424 0.67691 0.44754 0.0
C246 C 0.98949 0.7017 0.46901 0.0
C247 C 0.01929 0.71679 0.4742 0.0
C248 C 0.04396 0.70719 0.45723 0.0
H249 H 0.35035 0.04901 0.43878 0.0
H250 H 0.34471 0.95432 0.46165 0.0
H251 H 0.38173 0.94464 0.42143 0.0
H252 H 0.35902 0.03335 0.35558 0.0
H253 H 0.38534 0.0675 0.35173 0.0
H254 H 0.35635 0.06666 0.38075 0.0
H255 H 0.39789 0.08269 0.42163 0.0
H256 H 0.42699 0.08342 0.39281 0.0
H257 H 0.42883 0.06011 0.42464 0.0
H258 H 0.42367 0.94641 0.38382 0.0
H259 H 0.46537 0.95868 0.34726 0.0
H260 H 0.44225 0.05103 0.34547 0.0
C261 C 0.3565 0.02613 0.43492 0.0
C262 C 0.34461 0.00245 0.45342 0.0
C263 C 0.35341 0.97285 0.4478 0.0
C264 C 0.37445 0.96708 0.42496 0.0
C265 C 0.38623 0.99099 0.40759 0.0
C266 C 0.37732 0.01983 0.41189 0.0
C267 C 0.39443 0.04165 0.3906 0.0
C268 C 0.37247 0.05295 0.36834 0.0
C269 C 0.41314 0.06855 0.4085 0.0
C270 C 0.41492 0.02073 0.37439 0.0
C271 C 0.40978 0.99163 0.38465 0.0
C272 C 0.42751 0.9689 0.37508 0.0
C273 C 0.45118 0.97609 0.35447 0.0
C274 C 0.45661 0.00559 0.34334 0.0
C275 C 0.43802 0.02808 0.35315 0.0
H276 H 0.98669 0.63219 0.72682 0.0
H277 H 0.08052 0.63148 0.75433 0.0
H278 H 0.0968 0.673 0.72057 0.0
H279 H 0.00091 0.64031 0.65128 0.0
H280 H 0.97261 0.66529 0.64525 0.0
H281 H 0.96751 0.63928 0.67512 0.0
H282 H 0.96242 0.68428 0.71463 0.0
H283 H 0.96713 0.71049 0.68477 0.0
H284 H 0.99193 0.71641 0.71734 0.0
H285 H 0.10368 0.70833 0.67825 0.0
H286 H 0.1004 0.73772 0.63297 0.0
H287 H 0.00193 0.71655 0.63367 0.0
C288 C 0.01057 0.64137 0.72647 0.0
C289 C 0.03234 0.62865 0.74332 0.0
C290 C 0.06341 0.64101 0.74183 0.0
C291 C 0.07287 0.66458 0.72268 0.0
C292 C 0.05093 0.67577 0.7055 0.0
C293 C 0.02035 0.66492 0.70757 0.0
C294 C 0.00165 0.67911 0.68497 0.0
C295 C 0.98469 0.65453 0.66286 0.0
C296 C 0.97948 0.69875 0.70142 0.0
C297 C 0.02664 0.69874 0.66901 0.0
C298 C 0.05487 0.69665 0.68135 0.0
C299 C 0.08166 0.71066 0.66883 0.0
C300 C 0.07957 0.72714 0.64299 0.0
C301 C 0.05089 0.72959 0.62998 0.0
C302 C 0.0241 0.71553 0.64347 0.0
H303 H 0.45559 0.07693 0.71395 0.0
H304 H 0.45123 0.97995 0.72682 0.0
H305 H 0.41211 0.96898 0.68665 0.0
H306 H 0.37429 0.07609 0.7015 0.0
H307 H 0.37968 0.10451 0.67375 0.0
H308 H 0.40728 0.10461 0.7035 0.0
H309 H 0.45 0.10203 0.66316 0.0
H310 H 0.42251 0.10172 0.63328 0.0
H311 H 0.44637 0.07156 0.63376 0.0
H312 H 0.37627 0.96844 0.64284 0.0
H313 H 0.34164 0.97854 0.60218 0.0
H314 H 0.36659 0.07611 0.62028 0.0
C315 C 0.4463 0.0534 0.70838 0.0
C316 C 0.4565 0.02924 0.72334 0.0
C317 C 0.44363 0.99878 0.71568 0.0
C318 C 0.42153 0.99233 0.69283 0.0
C319 C 0.41223 0.01665 0.67827 0.0
C320 C 0.42382 0.0466 0.68606 0.0
C321 C 0.40942 0.06857 0.66738 0.0
C322 C 0.39161 0.08968 0.68776 0.0
C323 C 0.43352 0.08705 0.64827 0.0
C324 C 0.38821 0.04625 0.64757 0.0
C325 C 0.39044 0.01641 0.654 0.0
C326 C 0.37406 0.99171 0.63783 0.0
C327 C 0.35459 0.99768 0.61468 0.0
C328 C 0.35134 0.02809 0.60824 0.0
C329 C 0.3684 0.05264 0.62495 0.0
H330 H 0.07039 0.36796 0.61486 0.0
H331 H 0.0016 0.3949 0.5561 0.0
H332 H 0.99138 0.4354 0.59423 0.0
H333 H 0.02982 0.37839 0.68396 0.0
H334 H 0.06299 0.39316 0.70622 0.0
H335 H 0.06657 0.36729 0.67356 0.0
H336 H 0.10748 0.40679 0.65088 0.0
H337 H 0.1041 0.43274 0.68355 0.0
H338 H 0.09879 0.44495 0.64599 0.0
H339 H 0.98702 0.47161 0.63883 0.0
H340 H 0.98881 0.50169 0.68784 0.0
H341 H 0.05976 0.45129 0.71863 0.0
C342 C 0.05346 0.38264 0.60992 0.0
C343 C 0.03683 0.37831 0.58249 0.0
C344 C 0.01459 0.39774 0.57698 0.0
C345 C 0.00864 0.42088 0.59846 0.0
C346 C 0.02507 0.42432 0.62541 0.0
C347 C 0.04704 0.40584 0.63129 0.0
C348 C 0.06054 0.41384 0.66265 0.0
C349 C 0.05461 0.38654 0.68278 0.0
C350 C 0.09476 0.42526 0.66063 0.0
C351 C 0.04246 0.43943 0.67346 0.0
C352 C 0.02227 0.44518 0.65151 0.0
C353 C 0.0028 0.46745 0.65621 0.0
C354 C 0.00397 0.48438 0.68417 0.0
C355 C 0.02439 0.47888 0.70714 0.0
C356 C 0.04389 0.45608 0.70157 0.0
H357 H 0.61099 0.08968 0.69908 0.0
H358 H 0.62246 0.01758 0.75867 0.0
H359 H 0.66883 0.00681 0.73017 0.0
H360 H 0.63198 0.05004 0.63141 0.0
H361 H 0.65098 0.08367 0.61503 0.0
H362 H 0.62015 0.08695 0.64146 0.0
H363 H 0.65514 0.12646 0.67541 0.0
H364 H 0.68609 0.12336 0.64903 0.0
H365 H 0.69094 0.11661 0.68843 0.0
H366 H 0.71384 0.00383 0.69434 0.0
H367 H 0.75187 0.007 0.65277 0.0
H368 H 0.70867 0.07953 0.61593 0.0
C369 C 0.62345 0.07187 0.70642 0.0
C370 C 0.61334 0.05464 0.73124 0.0
C371 C 0.62993 0.03113 0.73975 0.0
C372 C 0.65629 0.02491 0.72376 0.0
C373 C 0.66551 0.04224 0.69922 0.0
C374 C 0.64945 0.06512 0.69052 0.0
C375 C 0.66307 0.07942 0.66246 0.0
C376 C 0.64018 0.07472 0.63603 0.0
C377 C 0.67449 0.11348 0.66925 0.0
C378 C 0.68927 0.06094 0.65658 0.0
C379 C 0.69057 0.03983 0.67816 0.0
C380 C 0.71301 0.02027 0.67732 0.0
C381 C 0.73452 0.02227 0.65367 0.0
C382 C 0.73314 0.0434 0.63104 0.0
C383 C 0.71023 0.06299 0.63274 0.0
H384 H 0.43673 0.35743 0.99314 0.0
H385 H 0.44232 0.32737 0.08443 0.0
H386 H 0.4033 0.35997 0.10144 0.0
H387 H 0.43196 0.43281 0.01309 0.0
H388 H 0.40519 0.43876 0.9842 0.0
H389 H 0.42986 0.40961 0.97789 0.0
H390 H 0.3831 0.36886 0.96748 0.0
H391 H 0.35818 0.39799 0.9735 0.0
H392 H 0.35294 0.36454 0.99523 0.0
H393 H 0.37098 0.40183 0.11038 0.0
H394 H 0.34401 0.44742 0.10983 0.0
H395 H 0.35675 0.44885 0.01241 0.0
C396 C 0.42913 0.35703 0.01652 0.0
C397 C 0.44255 0.3398 0.03746 0.0
C398 C 0.43226 0.34022 0.06794 0.0
C399 C 0.41009 0.35867 0.07782 0.0
C400 C 0.39808 0.37618 0.05684 0.0
C401 C 0.40683 0.37514 0.0267 0.0
C402 C 0.39204 0.39787 0.00929 0.0
C403 C 0.41621 0.42113 0.99532 0.0
C404 C 0.37027 0.38132 0.98493 0.0
C405 C 0.37468 0.4128 0.03466 0.0
C406 C 0.37837 0.39979 0.06186 0.0
C407 C 0.36724 0.41168 0.08912 0.0
C408 C 0.35212 0.43764 0.08861 0.0
C409 C 0.348 0.45124 0.06103 0.0
C410 C 0.35894 0.43833 0.03365 0.0
H411 H 0.3965 0.59001 0.03466 0.0
H412 H 0.32286 0.64642 0.03992 0.0
H413 H 0.35979 0.6923 0.03398 0.0
H414 H 0.45351 0.64372 0.07422 0.0
H415 H 0.48437 0.63462 0.0497 0.0
H416 H 0.4524 0.60607 0.05564 0.0
H417 H 0.44355 0.5987 0.99757 0.0
H418 H 0.47546 0.62726 0.99145 0.0
H419 H 0.43853 0.6313 0.97644 0.0
H420 H 0.40398 0.73191 0.02915 0.0
H421 H 0.45317 0.76339 0.02164 0.0
H422 H 0.4987 0.68174 0.01536 0.0
C423 C 0.38829 0.61209 0.03475 0.0
C424 C 0.35689 0.61478 0.03793 0.0
C425 C 0.34682 0.6439 0.03746 0.0
C426 C 0.36761 0.67008 0.0342 0.0
C427 C 0.39835 0.6667 0.03095 0.0
C428 C 0.40874 0.6385 0.03083 0.0
C429 C 0.44293 0.64134 0.02562 0.0
C430 C 0.45926 0.63082 0.05293 0.0
C431 C 0.45055 0.6236 0.996 0.0
C432 C 0.45005 0.67557 0.02303 0.0
C433 C 0.42395 0.68967 0.02655 0.0
C434 C 0.42457 0.72117 0.02613 0.0
C435 C 0.45263 0.73884 0.02194 0.0
C436 C 0.47966 0.72497 0.01776 0.0
C437 C 0.47831 0.69287 0.01815 0.0
H438 H 0.60402 0.37258 0.00769 0.0
H439 H 0.58321 0.36617 0.10349 0.0
H440 H 0.62047 0.41174 0.11567 0.0
H441 H 0.68383 0.39194 0.01795 0.0
H442 H 0.68852 0.41737 0.98744 0.0
H443 H 0.65817 0.38612 0.98604 0.0
H444 H 0.61885 0.42406 0.97972 0.0
H445 H 0.64911 0.45548 0.98125 0.0
H446 H 0.61754 0.45571 0.00736 0.0
H447 H 0.66013 0.45759 0.11747 0.0
H448 H 0.70378 0.49697 0.10946 0.0
H449 H 0.70134 0.47127 0.01286 0.0
C450 C 0.6071 0.38105 0.03117 0.0
C451 C 0.59063 0.36613 0.05467 0.0
C452 C 0.59566 0.37735 0.08519 0.0
C453 C 0.61659 0.4033 0.0923 0.0
C454 C 0.63256 0.41747 0.06863 0.0
C455 C 0.62839 0.40653 0.03872 0.0
C456 C 0.65024 0.42447 0.01786 0.0
C457 C 0.67145 0.40374 0.00137 0.0
C458 C 0.63289 0.44091 0.99521 0.0
C459 C 0.66751 0.44701 0.04076 0.0
C460 C 0.65654 0.44297 0.06983 0.0
C461 C 0.66894 0.46099 0.09481 0.0
C462 C 0.69364 0.48336 0.09003 0.0
C463 C 0.70597 0.48708 0.06058 0.0
C464 C 0.69243 0.46887 0.03565 0.0
H465 H 0.73241 0.65046 0.07716 0.0
H466 H 0.76176 0.61703 0.98846 0.0
H467 H 0.7311 0.65167 0.96426 0.0
H468 H 0.65783 0.65297 0.05854 0.0
H469 H 0.65287 0.68743 0.08113 0.0
H470 H 0.68084 0.66394 0.09188 0.0
H471 H 0.72303 0.71017 0.09094 0.0
H472 H 0.69508 0.73398 0.08048 0.0
H473 H 0.72849 0.73125 0.05725 0.0
H474 H 0.69129 0.68322 0.9496 0.0
H475 H 0.64759 0.71235 0.94548 0.0
H476 H 0.64499 0.72699 0.04352 0.0
C477 C 0.73315 0.65108 0.05268 0.0
C478 C 0.74961 0.63108 0.03471 0.0
C479 C 0.74951 0.63224 0.00272 0.0
C480 C 0.73215 0.65186 0.98875 0.0
C481 C 0.71531 0.67046 0.00709 0.0
C482 C 0.71602 0.67061 0.03838 0.0
C483 C 0.69399 0.691 0.05278 0.0
C484 C 0.66997 0.67273 0.07221 0.0
C485 C 0.71118 0.71822 0.07146 0.0
C486 C 0.67988 0.7013 0.02466 0.0
C487 C 0.69268 0.68934 0.99855 0.0
C488 C 0.68157 0.69329 0.96984 0.0
C489 C 0.65664 0.70972 0.96774 0.0
C490 C 0.64317 0.72217 0.99416 0.0
C491 C 0.6553 0.71829 0.02294 0.0
H492 H 0.5236 0.86047 0.94997 0.0
H493 H 0.59898 0.8205 0.90676 0.0
H494 H 0.59821 0.85533 0.86484 0.0
H495 H 0.48338 0.86901 0.88066 0.0
H496 H 0.47036 0.90428 0.89485 0.0
H497 H 0.47708 0.87599 0.92078 0.0
H498 H 0.5142 0.91631 0.95164 0.0
H499 H 0.50759 0.94471 0.92586 0.0
H500 H 0.54589 0.93686 0.93259 0.0
H501 H 0.59083 0.89796 0.82955 0.0
H502 H 0.57535 0.94129 0.8028 0.0
H503 H 0.50289 0.94952 0.86858 0.0
C504 C 0.53999 0.85899 0.9317 0.0
C505 C 0.56157 0.83806 0.93168 0.0
C506 C 0.58229 0.83647 0.90715 0.0
C507 C 0.58202 0.85616 0.88333 0.0
C508 C 0.56051 0.87677 0.88424 0.0
C509 C 0.53965 0.87792 0.90768 0.0
C510 C 0.51861 0.90171 0.90354 0.0
C511 C 0.4854 0.88685 0.89972 0.0
C512 C 0.52178 0.92635 0.92997 0.0
C513 C 0.53117 0.91432 0.87436 0.0
C514 C 0.55542 0.89988 0.86351 0.0
C515 C 0.57158 0.90909 0.83764 0.0
C516 C 0.5627 0.9337 0.82263 0.0
C517 C 0.5377 0.94846 0.83341 0.0
C518 C 0.52173 0.93834 0.85944 0.0
H519 H 0.20778 0.57501 0.95798 0.0
H520 H 0.23672 0.48463 0.95588 0.0
H521 H 0.20264 0.46834 0.91222 0.0
H522 H 0.13077 0.55148 0.94236 0.0
H523 H 0.12586 0.58239 0.91886 0.0
H524 H 0.15443 0.58768 0.9481 0.0
H525 H 0.19589 0.6036 0.90829 0.0
H526 H 0.1674 0.59842 0.87887 0.0
H527 H 0.20047 0.57843 0.87525 0.0
H528 H 0.16185 0.46057 0.87233 0.0
H529 H 0.1186 0.46225 0.83782 0.0
H530 H 0.11743 0.55823 0.86473 0.0
C531 C 0.2073 0.55189 0.9481 0.0
C532 C 0.22492 0.53106 0.96034 0.0
C533 C 0.22351 0.501 0.94682 0.0
C534 C 0.20424 0.49156 0.92201 0.0
C535 C 0.18682 0.51255 0.91082 0.0
C536 C 0.18838 0.54218 0.92325 0.0
C537 C 0.16637 0.5599 0.90784 0.0
C538 C 0.14298 0.571 0.93065 0.0
C539 C 0.18356 0.58667 0.8916 0.0
C540 C 0.15155 0.53537 0.88531 0.0
C541 C 0.16377 0.50826 0.88732 0.0
C542 C 0.15244 0.48178 0.87022 0.0
C543 C 0.12781 0.48294 0.85077 0.0
C544 C 0.11486 0.51043 0.84844 0.0
C545 C 0.12723 0.53705 0.86564 0.0
H546 H 0.52807 0.14629 0.84056 0.0
H547 H 0.52769 0.06574 0.89201 0.0
H548 H 0.52948 0.09811 0.93977 0.0
H549 H 0.57828 0.19782 0.88934 0.0
H550 H 0.55764 0.23 0.88541 0.0
H551 H 0.55719 0.20066 0.85511 0.0
H552 H 0.49816 0.19249 0.85655 0.0
H553 H 0.49841 0.22187 0.88678 0.0
H554 H 0.47888 0.1842 0.89181 0.0
H555 H 0.53305 0.13914 0.98174 0.0
H556 H 0.53338 0.18581 0.01561 0.0
H557 H 0.52813 0.23947 0.93722 0.0
C558 C 0.52846 0.13552 0.86189 0.0
C559 C 0.5279 0.10355 0.86261 0.0
C560 C 0.52803 0.0902 0.89095 0.0
C561 C 0.52918 0.10839 0.91819 0.0
C562 C 0.52978 0.13983 0.9167 0.0
C563 C 0.52905 0.15329 0.88934 0.0
C564 C 0.52871 0.18749 0.89419 0.0
C565 C 0.55715 0.20502 0.88018 0.0
C566 C 0.49929 0.19707 0.88159 0.0
C567 C 0.5295 0.19113 0.92854 0.0
C568 C 0.53048 0.16339 0.94103 0.0
C569 C 0.53209 0.16098 0.97226 0.0
C570 C 0.53239 0.18762 0.99129 0.0
C571 C 0.53064 0.2162 0.97904 0.0
C572 C 0.52923 0.21789 0.94723 0.0
H573 H 0.94516 0.56077 0.85695 0.0
H574 H 0.96194 0.46589 0.85097 0.0
H575 H 0.9202 0.45355 0.88729 0.0
H576 H 0.93112 0.56476 0.93664 0.0
H577 H 0.90191 0.5896 0.93506 0.0
H578 H 0.93148 0.59069 0.90669 0.0
H579 H 0.89057 0.58025 0.86443 0.0
H580 H 0.86086 0.57896 0.89272 0.0
H581 H 0.86237 0.54711 0.86538 0.0
H582 H 0.87792 0.45137 0.92456 0.0
H583 H 0.84027 0.46007 0.96446 0.0
H584 H 0.85163 0.55687 0.94869 0.0
C585 C 0.93979 0.53736 0.86308 0.0
C586 C 0.95665 0.51422 0.85101 0.0
C587 C 0.94936 0.48397 0.85996 0.0
C588 C 0.92557 0.47669 0.88042 0.0
C589 C 0.90945 0.49998 0.89194 0.0
C590 C 0.91636 0.52976 0.8839 0.0
C591 C 0.89674 0.55074 0.90133 0.0
C592 C 0.9165 0.57539 0.92111 0.0
C593 C 0.87643 0.56511 0.87966 0.0
C594 C 0.87797 0.52808 0.9206 0.0
C595 C 0.88544 0.49889 0.91441 0.0
C596 C 0.8718 0.4741 0.9296 0.0
C597 C 0.85038 0.47932 0.95224 0.0
C598 C 0.84296 0.50916 0.95975 0.0
C599 C 0.85666 0.53378 0.94334 0.0
H600 H 0.48334 0.113 0.21227 0.0
H601 H 0.57289 0.12767 0.25396 0.0
H602 H 0.58503 0.17497 0.22696 0.0
H603 H 0.50588 0.1352 0.14091 0.0
H604 H 0.47302 0.15394 0.13361 0.0
H605 H 0.46995 0.12344 0.15898 0.0
H606 H 0.44996 0.15898 0.20151 0.0
H607 H 0.45291 0.18965 0.17618 0.0
H608 H 0.47203 0.19509 0.21236 0.0
H609 H 0.58998 0.2162 0.19033 0.0
H610 H 0.58661 0.24986 0.14823 0.0
H611 H 0.49304 0.21018 0.13197 0.0
C612 C 0.50529 0.12647 0.21622 0.0
C613 C 0.52718 0.11664 0.23526 0.0
C614 C 0.55572 0.1348 0.23961 0.0
C615 C 0.5628 0.16173 0.2244 0.0
C616 C 0.54094 0.17041 0.20529 0.0
C617 C 0.51262 0.15353 0.20143 0.0
C618 C 0.4939 0.16681 0.17818 0.0
C619 C 0.4852 0.14346 0.15134 0.0
C620 C 0.46552 0.17832 0.19295 0.0
C621 C 0.51655 0.19315 0.16869 0.0
C622 C 0.54348 0.19492 0.18476 0.0
C623 C 0.5688 0.2155 0.17809 0.0
C624 C 0.56671 0.23444 0.15411 0.0
C625 C 0.53943 0.23288 0.13726 0.0
C626 C 0.51386 0.2124 0.14508 0.0
H627 H 0.9632 0.57751 0.21432 0.0
H628 H 0.96159 0.47968 0.22037 0.0
H629 H 0.92113 0.47039 0.18157 0.0
H630 H 0.88191 0.57563 0.20676 0.0
H631 H 0.88458 0.6057 0.18076 0.0
H632 H 0.91432 0.60483 0.20816 0.0
H633 H 0.95436 0.60548 0.16488 0.0
H634 H 0.92474 0.60637 0.13734 0.0
H635 H 0.94931 0.57674 0.13387 0.0
H636 H 0.88234 0.47153 0.14143 0.0
H637 H 0.84445 0.48282 0.10462 0.0
H638 H 0.86824 0.58 0.12666 0.0
C639 C 0.95443 0.55415 0.20731 0.0
C640 C 0.96563 0.52927 0.22015 0.0
C641 C 0.95329 0.49904 0.21081 0.0
C642 C 0.93039 0.49354 0.18875 0.0
C643 C 0.91979 0.51853 0.17659 0.0
C644 C 0.93111 0.54824 0.1857 0.0
C645 C 0.91481 0.57093 0.16977 0.0
C646 C 0.8979 0.59042 0.19274 0.0
C647 C 0.93714 0.59106 0.15031 0.0
C648 C 0.8927 0.54927 0.15016 0.0
C649 C 0.89626 0.51918 0.15428 0.0
C650 C 0.87918 0.49497 0.13812 0.0
C651 C 0.85779 0.50165 0.11721 0.0
C652 C 0.85333 0.53227 0.1129 0.0
C653 C 0.87097 0.55638 0.12972 0.0
H654 H 0.52118 0.88301 0.08677 0.0
H655 H 0.60066 0.8408 0.10991 0.0
H656 H 0.60716 0.87473 0.15683 0.0
H657 H 0.55004 0.95998 0.11421 0.0
H658 H 0.51343 0.96852 0.12814 0.0
H659 H 0.51562 0.94143 0.09619 0.0
H660 H 0.48084 0.90055 0.12431 0.0
H661 H 0.47856 0.92749 0.15635 0.0
H662 H 0.49154 0.89111 0.16154 0.0
H663 H 0.60369 0.91211 0.20201 0.0
H664 H 0.59129 0.95052 0.24163 0.0
H665 H 0.51436 0.96857 0.18818 0.0
C666 C 0.54006 0.88091 0.1016 0.0
C667 C 0.56042 0.85922 0.09471 0.0
C668 C 0.58481 0.85728 0.11473 0.0
C669 C 0.58867 0.87644 0.14141 0.0
C670 C 0.56804 0.89746 0.14756 0.0
C671 C 0.54429 0.89987 0.12815 0.0
C672 C 0.52503 0.92404 0.14007 0.0
C673 C 0.52611 0.95003 0.11836 0.0
C674 C 0.49205 0.90994 0.14592 0.0
C675 C 0.54146 0.93472 0.16945 0.0
C676 C 0.56622 0.91913 0.17334 0.0
C677 C 0.58446 0.92455 0.19912 0.0
C678 C 0.57716 0.9464 0.22153 0.0
C679 C 0.55185 0.96265 0.21803 0.0
C680 C 0.53394 0.95672 0.19149 0.0
H681 H 0.20835 0.57484 0.10885 0.0
H682 H 0.25311 0.50231 0.14364 0.0
H683 H 0.21774 0.50018 0.18743 0.0
H684 H 0.19565 0.61321 0.18204 0.0
H685 H 0.15926 0.62343 0.17122 0.0
H686 H 0.18834 0.61934 0.14293 0.0
H687 H 0.15097 0.57974 0.11157 0.0
H688 H 0.12178 0.58373 0.13971 0.0
H689 H 0.13272 0.54654 0.12928 0.0
H690 H 0.17518 0.50403 0.2258 0.0
H691 H 0.13066 0.51546 0.25695 0.0
H692 H 0.11613 0.58728 0.19813 0.0
C693 C 0.21078 0.55852 0.12568 0.0
C694 C 0.23339 0.53864 0.12278 0.0
C695 C 0.23597 0.51781 0.14545 0.0
C696 C 0.21598 0.5164 0.17037 0.0
C697 C 0.19384 0.53627 0.17245 0.0
C698 C 0.19135 0.55713 0.15085 0.0
C699 C 0.16572 0.57601 0.15832 0.0
C700 C 0.17799 0.61001 0.16397 0.0
C701 C 0.14136 0.5712 0.13323 0.0
C702 C 0.15384 0.56225 0.18729 0.0
C703 C 0.17024 0.53926 0.19506 0.0
C704 C 0.16243 0.52224 0.22015 0.0
C705 C 0.13712 0.52885 0.23766 0.0
C706 C 0.12021 0.55247 0.23014 0.0
C707 C 0.12894 0.56946 0.20477 0.0
H708 H 0.85517 0.95039 0.52679 0.0
H709 H 0.8525 0.95701 0.6252 0.0
H710 H 0.88 0.91186 0.62635 0.0
H711 H 0.84957 0.86559 0.51618 0.0
H712 H 0.87637 0.86722 0.48511 0.0
H713 H 0.85233 0.89702 0.49177 0.0
H714 H 0.90007 0.93762 0.49471 0.0
H715 H 0.92418 0.90801 0.48806 0.0
H716 H 0.92992 0.93397 0.52126 0.0
H717 H 0.91156 0.86913 0.61719 0.0
H718 H 0.94789 0.83415 0.59842 0.0
H719 H 0.93191 0.85646 0.50603 0.0
C720 C 0.85971 0.94179 0.5485 0.0
C721 C 0.85148 0.9569 0.5759 0.0
C722 C 0.85856 0.94564 0.60395 0.0
C723 C 0.874 0.91991 0.60484 0.0
C724 C 0.88236 0.90582 0.57746 0.0
C725 C 0.87559 0.9164 0.54979 0.0
C726 C 0.89008 0.8992 0.52387 0.0
C727 C 0.86562 0.88119 0.50301 0.0
C728 C 0.91239 0.921 0.50594 0.0
C729 C 0.9067 0.87795 0.54136 0.0
C730 C 0.90144 0.88169 0.57219 0.0
C731 C 0.91559 0.86572 0.59306 0.0
C732 C 0.93618 0.84589 0.58219 0.0
C733 C 0.94271 0.84252 0.55078 0.0
C734 C 0.92723 0.85834 0.53016 0.0
H735 H 0.00188 0.18558 0.52029 0.0
H736 H 0.95653 0.26736 0.52917 0.0
H737 H 0.90826 0.23623 0.54051 0.0
H738 H 0.93924 0.13548 0.48555 0.0
H739 H 0.94568 0.10285 0.50599 0.0
H740 H 0.9771 0.13134 0.49806 0.0
H741 H 0.9899 0.13872 0.5554 0.0
H742 H 0.95843 0.11033 0.56351 0.0
H743 H 0.96086 0.14807 0.58209 0.0
H744 H 0.86485 0.19738 0.54882 0.0
H745 H 0.82794 0.15184 0.55598 0.0
H746 H 0.90046 0.09434 0.54527 0.0
C747 C 0.98172 0.19681 0.5245 0.0
C748 C 0.98295 0.22889 0.52379 0.0
C749 C 0.95618 0.24285 0.52973 0.0
C750 C 0.92861 0.22538 0.53615 0.0
C751 C 0.92814 0.19396 0.53693 0.0
C752 C 0.95388 0.17967 0.5315 0.0
C753 C 0.94678 0.14544 0.5344 0.0
C754 C 0.95254 0.12774 0.50419 0.0
C755 C 0.96508 0.13504 0.5604 0.0
C756 C 0.91301 0.14289 0.54193 0.0
C757 C 0.90287 0.17126 0.54306 0.0
C758 C 0.87248 0.17503 0.54827 0.0
C759 C 0.8517 0.14905 0.55224 0.0
C760 C 0.86144 0.11971 0.55137 0.0
C761 C 0.89257 0.11661 0.54649 0.0
H762 H 0.10557 0.86791 0.50047 0.0
H763 H 0.08144 0.86779 0.59588 0.0
H764 H 0.11705 0.91494 0.60635 0.0
H765 H 0.18431 0.88902 0.51331 0.0
H766 H 0.19048 0.91231 0.48121 0.0
H767 H 0.16015 0.88105 0.48037 0.0
H768 H 0.12127 0.91814 0.46922 0.0
H769 H 0.15153 0.94957 0.47012 0.0
H770 H 0.11881 0.95141 0.49452 0.0
H771 H 0.15602 0.96069 0.60692 0.0
H772 H 0.2006 0.99883 0.59887 0.0
H773 H 0.20291 0.9671 0.50382 0.0
C774 C 0.10751 0.87825 0.5234 0.0
C775 C 0.09068 0.86468 0.54739 0.0
C776 C 0.09421 0.87811 0.57729 0.0
C777 C 0.11417 0.90492 0.58338 0.0
C778 C 0.13074 0.9177 0.55936 0.0
C779 C 0.12801 0.90465 0.53003 0.0
C780 C 0.15088 0.9212 0.50906 0.0
C781 C 0.17275 0.89961 0.49518 0.0
C782 C 0.13464 0.93596 0.48426 0.0
C783 C 0.16714 0.94521 0.53132 0.0
C784 C 0.15464 0.9432 0.56003 0.0
C785 C 0.166 0.96258 0.58452 0.0
C786 C 0.19127 0.98422 0.57971 0.0
C787 C 0.20525 0.98586 0.55076 0.0
C788 C 0.1927 0.96634 0.52621 0.0
H789 H 0.14919 0.20371 0.47614 0.0
H790 H 0.14908 0.26097 0.55974 0.0
H791 H 0.19156 0.23635 0.57907 0.0
H792 H 0.16063 0.13713 0.5086 0.0
H793 H 0.18516 0.12384 0.47914 0.0
H794 H 0.15769 0.14868 0.4704 0.0
H795 H 0.2007 0.18692 0.44908 0.0
H796 H 0.22839 0.16212 0.45779 0.0
H797 H 0.23308 0.20139 0.47257 0.0
H798 H 0.22866 0.20066 0.59198 0.0
H799 H 0.25845 0.15756 0.59697 0.0
H800 H 0.23615 0.12504 0.50415 0.0
C801 C 0.15849 0.21154 0.49828 0.0
C802 C 0.14584 0.2343 0.51644 0.0
C803 C 0.15851 0.24369 0.54537 0.0
C804 C 0.18268 0.22988 0.55651 0.0
C805 C 0.19421 0.20706 0.53825 0.0
C806 C 0.18274 0.19819 0.50961 0.0
C807 C 0.19766 0.17168 0.49537 0.0
C808 C 0.17387 0.14369 0.48796 0.0
C809 C 0.21605 0.1811 0.46702 0.0
C810 C 0.21844 0.16618 0.52096 0.0
C811 C 0.21632 0.18701 0.5454 0.0
C812 C 0.23106 0.18468 0.57276 0.0
C813 C 0.24788 0.16012 0.5754 0.0
C814 C 0.24997 0.13832 0.55078 0.0
C815 C 0.23566 0.14189 0.52302 0.0
loop_
_geom_bond_atom_site_label_1
_geom_bond_atom_site_label_2
_geom_bond_distance
_geom_bond_site_symmetry_2
_ccdc_geom_bond_type
O0 Cd1 2.223 . S
O0 C8 1.315 1_455 S
Cd1 O0 2.223 . S
Cd1 O4 2.297 . S
Cd1 O5 2.439 . S
Cd1 O11 2.240 . S
Cd2 O3 2.240 . S
Cd2 O10 2.223 . S
Cd2 O12 2.297 1_655 S
Cd2 O13 2.439 1_655 S
O3 Cd2 2.240 . S
O3 C8 1.279 . S
O4 Cd1 2.297 . S
O4 C6 1.247 . S
O5 Cd1 2.439 . S
O5 C6 1.208 . S
C6 O4 1.247 . S
C6 O5 1.208 . S
C7 O12 1.247 . S
C7 O13 1.208 . S
C8 O0 1.315 1_655 S
C8 O3 1.279 . S
C9 O10 1.315 1_455 S
C9 O11 1.279 . S
O10 Cd2 2.223 . S
O10 C9 1.315 1_655 S
O11 Cd1 2.240 . S
O11 C9 1.279 . S
O12 Cd2 2.297 1_455 S
O12 C7 1.247 . S
O13 Cd2 2.439 1_455 S
O13 C7 1.208 . S
O14 Cd15 2.223 . S
O14 C22 1.315 . S
Cd15 O14 2.223 . S
Cd15 O18 2.297 . S
Cd15 O19 2.439 . S
Cd15 O25 2.240 . S
Cd16 O17 2.240 . S
Cd16 O24 2.223 . S
Cd16 O26 2.297 1_545 S
Cd16 O27 2.439 1_545 S
O17 Cd16 2.240 . S
O17 C22 1.279 . S
O18 Cd15 2.297 . S
O18 C20 1.247 . S
O19 Cd15 2.439 . S
O19 C20 1.208 . S
C20 O18 1.247 . S
C20 O19 1.208 . S
C21 O26 1.247 . S
C21 O27 1.208 . S
C22 O14 1.315 . S
C22 O17 1.279 . S
C23 O24 1.315 . S
C23 O25 1.279 . S
O24 Cd16 2.223 . S
O24 C23 1.315 . S
O25 Cd15 2.240 . S
O25 C23 1.279 . S
O26 Cd16 2.297 1_565 S
O26 C21 1.247 . S
O27 Cd16 2.439 1_565 S
O27 C21 1.208 . S
O28 Cd29 2.223 . S
O28 C36 1.315 . S
Cd29 O28 2.223 . S
Cd29 O32 2.297 1_455 S
Cd29 O33 2.439 1_455 S
Cd29 O39 2.240 . S
Cd30 O31 2.240 . S
Cd30 O38 2.223 . S
Cd30 O40 2.297 . S
Cd30 O41 2.439 . S
O31 Cd30 2.240 . S
O31 C36 1.279 . S
O32 Cd29 2.297 1_655 S
O32 C34 1.247 . S
O33 Cd29 2.439 1_655 S
O33 C34 1.208 . S
C34 O32 1.247 . S
C34 O33 1.208 . S
C35 O40 1.247 . S
C35 O41 1.208 . S
C36 O28 1.315 . S
C36 O31 1.279 . S
C37 O38 1.315 . S
C37 O39 1.279 . S
O38 Cd30 2.223 . S
O38 C37 1.315 . S
O39 Cd29 2.240 . S
O39 C37 1.279 . S
O40 Cd30 2.297 . S
O40 C35 1.247 . S
O41 Cd30 2.439 . S
O41 C35 1.208 . S
O42 Cd43 2.223 . S
O42 C50 1.315 1_545 S
Cd43 O42 2.223 . S
Cd43 O46 2.297 . S
Cd43 O47 2.439 . S
Cd43 O53 2.240 . S
Cd44 O45 2.240 . S
Cd44 O52 2.223 1_545 S
Cd44 O54 2.297 . S
Cd44 O55 2.439 . S
O45 Cd44 2.240 . S
O45 C50 1.279 1_545 S
O46 Cd43 2.297 . S
O46 C48 1.247 . S
O47 Cd43 2.439 . S
O47 C48 1.208 . S
C48 O46 1.247 . S
C48 O47 1.208 . S
C49 O54 1.247 . S
C49 O55 1.208 . S
C50 O42 1.315 1_565 S
C50 O45 1.279 1_565 S
C51 O52 1.315 1_545 S
C51 O53 1.279 . S
O52 Cd44 2.223 1_565 S
O52 C51 1.315 1_565 S
O53 Cd43 2.240 . S
O53 C51 1.279 . S
O54 Cd44 2.297 . S
O54 C49 1.247 . S
O55 Cd44 2.439 . S
O55 C49 1.208 . S
O56 Cd57 2.223 . S
O56 C64 1.315 . S
Cd57 O56 2.223 . S
Cd57 O60 2.297 . S
Cd57 O61 2.439 . S
Cd57 O67 2.240 . S
Cd58 O59 2.240 . S
Cd58 O66 2.223 . S
Cd58 O68 2.297 . S
Cd58 O69 2.439 . S
O59 Cd58 2.240 . S
O59 C64 1.279 . S
O60 Cd57 2.297 . S
O60 C62 1.247 . S
O61 Cd57 2.439 . S
O61 C62 1.208 . S
C62 O60 1.247 . S
C62 O61 1.208 . S
C63 O68 1.247 . S
C63 O69 1.208 . S
C64 O56 1.315 . S
C64 O59 1.279 . S
C65 O66 1.315 . S
C65 O67 1.279 . S
O66 Cd58 2.223 . S
O66 C65 1.315 . S
O67 Cd57 2.240 . S
O67 C65 1.279 . S
O68 Cd58 2.297 . S
O68 C63 1.247 . S
O69 Cd58 2.439 . S
O69 C63 1.208 . S
O70 Cd71 2.231 . S
O70 C78 1.315 1_655 S
Cd71 O70 2.231 . S
Cd71 O74 2.292 1_655 S
Cd71 O75 2.415 1_655 S
Cd71 O81 2.238 1_655 S
Cd72 O73 2.240 . S
Cd72 O80 2.223 . S
Cd72 O82 2.297 . S
Cd72 O83 2.439 . S
O73 Cd72 2.240 . S
O73 C78 1.279 . S
O74 Cd71 2.292 1_455 S
O74 C76 1.247 . S
O75 Cd71 2.415 1_455 S
O75 C76 1.208 . S
C76 O74 1.247 . S
C76 O75 1.208 . S
C77 O82 1.247 . S
C77 O83 1.208 . S
C78 O70 1.315 1_455 S
C78 O73 1.279 . S
C79 O80 1.315 1_655 S
C79 O81 1.279 1_655 S
O80 Cd72 2.223 . S
O80 C79 1.315 1_455 S
O81 Cd71 2.238 1_455 S
O81 C79 1.279 1_455 S
O82 Cd72 2.297 . S
O82 C77 1.247 . S
O83 Cd72 2.439 . S
O83 C77 1.208 . S
O84 Cd85 2.221 1_545 S
O84 C92 1.315 . S
Cd85 O84 2.221 1_565 S
Cd85 O88 2.298 . S
Cd85 O89 2.440 . S
Cd85 O95 2.239 1_565 S
Cd86 O87 2.240 . S
Cd86 O94 2.223 . S
Cd86 O96 2.297 . S
Cd86 O97 2.439 . S
O87 Cd86 2.240 . S
O87 C92 1.279 . S
O88 Cd85 2.298 . S
O88 C90 1.247 . S
O89 Cd85 2.440 . S
O89 C90 1.208 . S
C90 O88 1.247 . S
C90 O89 1.208 . S
C91 O96 1.247 . S
C91 O97 1.208 . S
C92 O84 1.315 . S
C92 O87 1.279 . S
C93 O94 1.315 . S
C93 O95 1.279 . S
O94 Cd86 2.223 . S
O94 C93 1.315 . S
O95 Cd85 2.239 1_545 S
O95 C93 1.279 . S
O96 Cd86 2.297 . S
O96 C91 1.247 . S
O97 Cd86 2.439 . S
O97 C91 1.208 . S
O98 Cd99 2.223 1_655 S
O98 C106 1.315 1_655 S
Cd99 O98 2.223 1_455 S
Cd99 O102 2.297 . S
Cd99 O103 2.439 . S
Cd99 O109 2.240 . S
Cd100 O101 2.240 . S
Cd100 O108 2.223 . S
Cd100 O110 2.297 . S
Cd100 O111 2.439 . S
O101 Cd100 2.240 . S
O101 C106 1.279 . S
O102 Cd99 2.297 . S
O102 C104 1.247 . S
O103 Cd99 2.439 . S
O103 C104 1.208 . S
C104 O102 1.247 . S
C104 O103 1.208 . S
C105 O110 1.247 . S
C105 O111 1.208 . S
C106 O98 1.315 1_455 S
C106 O101 1.279 . S
C107 O108 1.332 . S
C107 O109 1.287 . S
O108 Cd100 2.223 . S
O108 C107 1.332 . S
O109 Cd99 2.240 . S
O109 C107 1.287 . S
O110 Cd100 2.297 . S
O110 C105 1.247 . S
O111 Cd100 2.439 . S
O111 C105 1.208 . S
O112 Cd113 2.223 . S
O112 C120 1.315 . S
Cd113 O112 2.223 . S
Cd113 O116 2.297 . S
Cd113 O117 2.439 . S
Cd113 O123 2.240 . S
Cd114 O115 2.240 . S
Cd114 O122 2.223 . S
Cd114 O124 2.297 1_554 S
Cd114 O125 2.439 1_554 S
O115 Cd114 2.240 . S
O115 C120 1.279 . S
O116 Cd113 2.297 . S
O116 C118 1.247 . S
O117 Cd113 2.439 . S
O117 C118 1.208 . S
C118 O116 1.247 . S
C118 O117 1.208 . S
C119 O124 1.247 . S
C119 O125 1.208 . S
C120 O112 1.315 . S
C120 O115 1.279 . S
C121 O122 1.315 . S
C121 O123 1.279 . S
O122 Cd114 2.223 . S
O122 C121 1.315 . S
O123 Cd113 2.240 . S
O123 C121 1.279 . S
O124 Cd114 2.297 1_556 S
O124 C119 1.247 . S
O125 Cd114 2.439 1_556 S
O125 C119 1.208 . S
O126 Cd127 2.223 . S
O126 C134 1.315 1_556 S
Cd127 O126 2.223 . S
Cd127 O130 2.297 1_556 S
Cd127 O131 2.439 1_556 S
Cd127 O137 2.240 . S
Cd128 O129 2.240 . S
Cd128 O136 2.223 . S
Cd128 O138 2.297 . S
Cd128 O139 2.439 . S
O129 Cd128 2.240 . S
O129 C134 1.279 . S
O130 Cd127 2.297 1_554 S
O130 C132 1.247 . S
O131 Cd127 2.439 1_554 S
O131 C132 1.208 . S
C132 O130 1.247 . S
C132 O131 1.208 . S
C133 O138 1.247 . S
C133 O139 1.208 . S
C134 O126 1.315 1_554 S
C134 O129 1.279 . S
C135 O136 1.315 1_556 S
C135 O137 1.279 . S
O136 Cd128 2.223 . S
O136 C135 1.315 1_554 S
O137 Cd127 2.240 . S
O137 C135 1.279 . S
O138 Cd128 2.297 . S
O138 C133 1.247 . S
O139 Cd128 2.439 . S
O139 C133 1.208 . S
O140 Cd141 2.223 . S
O140 C148 1.315 . S
Cd141 O140 2.223 . S
Cd141 O144 2.297 . S
Cd141 O145 2.439 . S
Cd141 O151 2.240 . S
Cd142 O143 2.240 . S
Cd142 O150 2.223 . S
Cd142 O152 2.297 1_554 S
Cd142 O153 2.439 1_554 S
O143 Cd142 2.240 . S
O143 C148 1.279 . S
O144 Cd141 2.297 . S
O144 C146 1.247 . S
O145 Cd141 2.439 . S
O145 C146 1.208 . S
C146 O144 1.247 . S
C146 O145 1.208 . S
C147 O152 1.247 . S
C147 O153 1.208 . S
C148 O140 1.315 . S
C148 O143 1.279 . S
C149 O150 1.315 . S
C149 O151 1.279 . S
O150 Cd142 2.223 . S
O150 C149 1.315 . S
O151 Cd141 2.240 . S
O151 C149 1.279 . S
O152 Cd142 2.297 1_556 S
O152 C147 1.247 . S
O153 Cd142 2.439 1_556 S
O153 C147 1.208 . S
O154 Cd155 2.223 . S
O154 C162 1.315 . S
Cd155 O154 2.223 . S
Cd155 O158 2.297 . S
Cd155 O159 2.439 . S
Cd155 O165 2.240 . S
Cd156 O157 2.240 . S
Cd156 O164 2.223 . S
Cd156 O166 2.297 . S
Cd156 O167 2.439 . S
O157 Cd156 2.240 . S
O157 C162 1.279 . S
O158 Cd155 2.297 . S
O158 C160 1.247 . S
O159 Cd155 2.439 . S
O159 C160 1.208 . S
C160 O158 1.247 . S
C160 O159 1.208 . S
C161 O166 1.247 . S
C161 O167 1.208 . S
C162 O154 1.315 . S
C162 O157 1.279 . S
C163 O164 1.315 . S
C163 O165 1.279 . S
O164 Cd156 2.223 . S
O164 C163 1.315 . S
O165 Cd155 2.240 . S
O165 C163 1.279 . S
O166 Cd156 2.297 . S
O166 C161 1.247 . S
O167 Cd156 2.439 . S
O167 C161 1.208 . S
H168 C180 0.930 . S
H169 C182 0.930 . S
H170 C183 0.930 . S
H171 C187 0.959 . S
H172 C187 0.959 . S
H173 C187 0.961 . S
H174 C188 0.960 . S
H175 C188 0.961 . S
H176 C188 0.959 . S
H177 C191 0.929 . S
H178 C192 0.931 . S
H179 C194 0.930 . S
C180 H168 0.930 . S
C180 C181 1.399 . S
C180 C185 1.399 . S
C181 C180 1.399 . S
C181 C182 1.376 . S
C182 H169 0.930 . S
C182 C181 1.376 . S
C182 C183 1.388 . S
C183 H170 0.930 . S
C183 C182 1.388 . S
C183 C184 1.390 . S
C184 C183 1.390 . S
C184 C185 1.394 . S
C184 C190 1.465 . S
C185 C180 1.399 . S
C185 C184 1.394 . S
C185 C186 1.516 . S
C186 C185 1.516 . S
C186 C187 1.502 . S
C186 C188 1.561 1_455 S
C186 C189 1.526 . S
C187 H171 0.959 . S
C187 H172 0.959 . S
C187 H173 0.961 . S
C187 C186 1.502 . S
C188 H174 0.960 . S
C188 H175 0.961 . S
C188 H176 0.959 . S
C188 C186 1.561 1_655 S
C189 C186 1.526 . S
C189 C190 1.396 . S
C189 C194 1.390 . S
C190 C184 1.465 . S
C190 C189 1.396 . S
C190 C191 1.399 . S
C191 H177 0.929 . S
C191 C190 1.399 . S
C191 C192 1.385 . S
C192 H178 0.931 . S
C192 C191 1.385 . S
C192 C193 1.389 . S
C193 C192 1.389 . S
C193 C194 1.387 . S
C194 H179 0.930 . S
C194 C189 1.390 . S
C194 C193 1.387 . S
H195 C207 0.930 . S
H196 C209 0.930 . S
H197 C210 0.930 . S
H198 C214 0.959 . S
H199 C214 0.959 . S
H200 C214 0.961 . S
H201 C215 0.960 . S
H202 C215 0.961 . S
H203 C215 0.959 . S
H204 C218 0.929 . S
H205 C219 0.931 . S
H206 C221 0.930 . S
C207 H195 0.930 . S
C207 C208 1.399 . S
C207 C212 1.399 . S
C208 C207 1.399 . S
C208 C209 1.376 . S
C209 H196 0.930 . S
C209 C208 1.376 . S
C209 C210 1.388 . S
C210 H197 0.930 . S
C210 C209 1.388 . S
C210 C211 1.390 . S
C211 C210 1.390 . S
C211 C212 1.394 . S
C211 C217 1.465 . S
C212 C207 1.399 . S
C212 C211 1.394 . S
C212 C213 1.516 . S
C213 C212 1.516 . S
C213 C214 1.502 . S
C213 C215 1.561 . S
C213 C216 1.526 . S
C214 H198 0.959 . S
C214 H199 0.959 . S
C214 H200 0.961 . S
C214 C213 1.502 . S
C215 H201 0.960 . S
C215 H202 0.961 . S
C215 H203 0.959 . S
C215 C213 1.561 . S
C216 C213 1.526 . S
C216 C217 1.396 . S
C216 C221 1.390 . S
C217 C211 1.465 . S
C217 C216 1.396 . S
C217 C218 1.399 . S
C218 H204 0.929 . S
C218 C217 1.399 . S
C218 C219 1.385 . S
C219 H205 0.931 . S
C219 C218 1.385 . S
C219 C220 1.389 . S
C220 C219 1.389 . S
C220 C221 1.387 . S
C221 H206 0.930 . S
C221 C216 1.390 . S
C221 C220 1.387 . S
H222 C234 0.930 . S
H223 C236 0.930 . S
H224 C237 0.930 . S
H225 C241 0.959 . S
H226 C241 0.959 . S
H227 C241 0.961 . S
H228 C242 0.960 . S
H229 C242 0.961 . S
H230 C242 0.959 . S
H231 C245 0.929 1_655 S
H232 C246 0.931 . S
H233 C248 0.930 . S
C234 H222 0.930 . S
C234 C235 1.399 . S
C234 C239 1.399 . S
C235 C234 1.399 . S
C235 C236 1.376 1_455 S
C236 H223 0.930 . S
C236 C235 1.376 1_655 S
C236 C237 1.388 . S
C237 H224 0.930 . S
C237 C236 1.388 . S
C237 C238 1.390 1_655 S
C238 C237 1.390 1_455 S
C238 C239 1.394 . S
C238 C244 1.465 . S
C239 C234 1.399 . S
C239 C238 1.394 . S
C239 C240 1.516 . S
C240 C239 1.516 . S
C240 C241 1.502 . S
C240 C242 1.561 . S
C240 C243 1.526 . S
C241 H225 0.959 . S
C241 H226 0.959 . S
C241 H227 0.961 . S
C241 C240 1.502 . S
C242 H228 0.960 . S
C242 H229 0.961 . S
C242 H230 0.959 . S
C242 C240 1.561 . S
C243 C240 1.526 . S
C243 C244 1.396 . S
C243 C248 1.390 . S
C244 C238 1.465 . S
C244 C243 1.396 . S
C244 C245 1.399 . S
C245 H231 0.929 1_455 S
C245 C244 1.399 . S
C245 C246 1.385 . S
C246 H232 0.931 . S
C246 C245 1.385 . S
C246 C247 1.389 . S
C247 C246 1.389 . S
C247 C248 1.387 . S
C248 H233 0.930 . S
C248 C243 1.390 . S
C248 C247 1.387 . S
H249 C261 0.930 . S
H250 C263 0.941 . S
H251 C264 0.930 1_565 S
H252 C268 0.959 . S
H253 C268 0.959 . S
H254 C268 0.961 . S
H255 C269 0.960 . S
H256 C269 0.961 . S
H257 C269 0.959 . S
H258 C272 0.929 . S
H259 C273 0.931 . S
H260 C275 0.930 . S
C261 H249 0.930 . S
C261 C262 1.399 . S
C261 C266 1.399 . S
C262 C261 1.399 . S
C262 C263 1.376 . S
C263 H250 0.941 . S
C263 C262 1.376 . S
C263 C264 1.388 . S
C264 H251 0.930 1_545 S
C264 C263 1.388 . S
C264 C265 1.390 . S
C265 C264 1.390 . S
C265 C266 1.394 . S
C265 C271 1.465 . S
C266 C261 1.399 . S
C266 C265 1.394 . S
C266 C267 1.516 . S
C267 C266 1.516 . S
C267 C268 1.502 . S
C267 C269 1.561 . S
C267 C270 1.526 . S
C268 H252 0.959 . S
C268 H253 0.959 . S
C268 H254 0.961 . S
C268 C267 1.502 . S
C269 H255 0.960 . S
C269 H256 0.961 . S
C269 H257 0.959 . S
C269 C267 1.561 . S
C270 C267 1.526 . S
C270 C271 1.396 . S
C270 C275 1.390 . S
C271 C265 1.465 . S
C271 C270 1.396 . S
C271 C272 1.399 1_545 S
C272 H258 0.929 . S
C272 C271 1.399 1_565 S
C272 C273 1.385 . S
C273 H259 0.931 . S
C273 C272 1.385 . S
C273 C274 1.389 1_565 S
C274 C273 1.389 1_545 S
C274 C275 1.387 . S
C275 H260 0.930 . S
C275 C270 1.390 . S
C275 C274 1.387 . S
H276 C288 0.930 . S
H277 C290 0.930 . S
H278 C291 0.930 . S
H279 C295 0.959 . S
H280 C295 0.959 . S
H281 C295 0.961 . S
H282 C296 0.960 . S
H283 C296 0.961 . S
H284 C296 0.959 . S
H285 C299 0.929 . S
H286 C300 0.931 . S
H287 C302 0.930 . S
C288 H276 0.930 . S
C288 C289 1.399 . S
C288 C293 1.399 . S
C289 C288 1.399 . S
C289 C290 1.376 . S
C290 H277 0.930 . S
C290 C289 1.376 . S
C290 C291 1.388 . S
C291 H278 0.930 . S
C291 C290 1.388 . S
C291 C292 1.390 . S
C292 C291 1.390 . S
C292 C293 1.394 . S
C292 C298 1.465 . S
C293 C288 1.399 . S
C293 C292 1.394 . S
C293 C294 1.516 . S
C294 C293 1.516 . S
C294 C295 1.502 . S
C294 C296 1.561 1_455 S
C294 C297 1.526 . S
C295 H279 0.959 . S
C295 H280 0.959 . S
C295 H281 0.961 . S
C295 C294 1.502 . S
C296 H282 0.960 . S
C296 H283 0.961 . S
C296 H284 0.959 . S
C296 C294 1.561 1_655 S
C297 C294 1.526 . S
C297 C298 1.396 . S
C297 C302 1.390 . S
C298 C292 1.465 . S
C298 C297 1.396 . S
C298 C299 1.399 . S
C299 H285 0.929 . S
C299 C298 1.399 . S
C299 C300 1.385 . S
C300 H286 0.931 . S
C300 C299 1.385 . S
C300 C301 1.389 . S
C301 C300 1.389 . S
C301 C302 1.387 . S
C302 H287 0.930 . S
C302 C297 1.390 . S
C302 C301 1.387 . S
H303 C315 0.930 . S
H304 C317 0.930 1_565 S
H305 C318 0.930 . S
H306 C322 0.959 . S
H307 C322 0.959 . S
H308 C322 0.961 . S
H309 C323 0.960 . S
H310 C323 0.961 . S
H311 C323 0.959 . S
H312 C326 0.929 . S
H313 C327 0.931 . S
H314 C329 0.930 . S
C315 H303 0.930 . S
C315 C316 1.399 . S
C315 C320 1.399 . S
C316 C315 1.399 . S
C316 C317 1.376 . S
C317 H304 0.930 1_545 S
C317 C316 1.376 . S
C317 C318 1.388 1_545 S
C318 H305 0.930 . S
C318 C317 1.388 1_565 S
C318 C319 1.390 1_565 S
C319 C318 1.390 1_545 S
C319 C320 1.394 . S
C319 C325 1.465 . S
C320 C315 1.399 . S
C320 C319 1.394 . S
C320 C321 1.516 . S
C321 C320 1.516 . S
C321 C322 1.502 . S
C321 C323 1.561 . S
C321 C324 1.526 . S
C322 H306 0.959 . S
C322 H307 0.959 . S
C322 H308 0.961 . S
C322 C321 1.502 . S
C323 H309 0.960 . S
C323 H310 0.961 . S
C323 H311 0.959 . S
C323 C321 1.561 . S
C324 C321 1.526 . S
C324 C325 1.396 . S
C324 C329 1.390 . S
C325 C319 1.465 . S
C325 C324 1.396 . S
C325 C326 1.399 1_545 S
C326 H312 0.929 . S
C326 C325 1.399 1_565 S
C326 C327 1.385 . S
C327 H313 0.931 . S
C327 C326 1.385 . S
C327 C328 1.389 1_565 S
C328 C327 1.389 1_545 S
C328 C329 1.387 . S
C329 H314 0.930 . S
C329 C324 1.390 . S
C329 C328 1.387 . S
H330 C342 0.930 . S
H331 C344 0.941 . S
H332 C345 0.913 1_655 S
H333 C349 0.959 . S
H334 C349 0.959 . S
H335 C349 0.961 . S
H336 C350 0.960 . S
H337 C350 0.961 . S
H338 C350 0.959 . S
H339 C353 0.929 . S
H340 C354 0.931 . S
H341 C356 0.930 . S
C342 H330 0.930 . S
C342 C343 1.399 . S
C342 C347 1.399 . S
C343 C342 1.399 . S
C343 C344 1.376 . S
C344 H331 0.941 . S
C344 C343 1.376 . S
C344 C345 1.398 . S
C345 H332 0.913 1_455 S
C345 C344 1.398 . S
C345 C346 1.399 . S
C346 C345 1.399 . S
C346 C347 1.394 . S
C346 C352 1.465 . S
C347 C342 1.399 . S
C347 C346 1.394 . S
C347 C348 1.516 . S
C348 C347 1.516 . S
C348 C349 1.502 . S
C348 C350 1.561 . S
C348 C351 1.526 . S
C349 H333 0.959 . S
C349 H334 0.959 . S
C349 H335 0.961 . S
C349 C348 1.502 . S
C350 H336 0.960 . S
C350 H337 0.961 . S
C350 H338 0.959 . S
C350 C348 1.561 . S
C351 C348 1.526 . S
C351 C352 1.396 . S
C351 C356 1.390 . S
C352 C346 1.465 . S
C352 C351 1.396 . S
C352 C353 1.399 1_455 S
C353 H339 0.929 . S
C353 C352 1.399 1_655 S
C353 C354 1.385 . S
C354 H340 0.931 . S
C354 C353 1.385 . S
C354 C355 1.389 1_655 S
C355 C354 1.389 1_455 S
C355 C356 1.387 . S
C356 H341 0.930 . S
C356 C351 1.390 . S
C356 C355 1.387 . S
H357 C369 0.930 . S
H358 C371 0.930 . S
H359 C372 0.930 . S
H360 C376 0.959 . S
H361 C376 0.959 . S
H362 C376 0.961 . S
H363 C377 0.960 . S
H364 C377 0.961 . S
H365 C377 0.959 . S
H366 C380 0.929 1_565 S
H367 C381 0.931 . S
H368 C383 0.930 . S
C369 H357 0.930 . S
C369 C370 1.399 . S
C369 C374 1.399 . S
C370 C369 1.399 . S
C370 C371 1.376 1_545 S
C371 H358 0.930 . S
C371 C370 1.376 1_565 S
C371 C372 1.388 . S
C372 H359 0.930 . S
C372 C371 1.388 . S
C372 C373 1.390 1_565 S
C373 C372 1.390 1_545 S
C373 C374 1.394 . S
C373 C379 1.465 . S
C374 C369 1.399 . S
C374 C373 1.394 . S
C374 C375 1.516 . S
C375 C374 1.516 . S
C375 C376 1.502 . S
C375 C377 1.561 . S
C375 C378 1.526 . S
C376 H360 0.959 . S
C376 H361 0.959 . S
C376 H362 0.961 . S
C376 C375 1.502 . S
C377 H363 0.960 . S
C377 H364 0.961 . S
C377 H365 0.959 . S
C377 C375 1.561 . S
C378 C375 1.526 . S
C378 C379 1.396 . S
C378 C383 1.390 . S
C379 C373 1.465 . S
C379 C378 1.396 . S
C379 C380 1.399 . S
C380 H366 0.929 1_545 S
C380 C379 1.399 . S
C380 C381 1.385 . S
C381 H367 0.931 . S
C381 C380 1.385 . S
C381 C382 1.389 . S
C382 C381 1.389 . S
C382 C383 1.387 . S
C383 H368 0.930 . S
C383 C378 1.390 . S
C383 C382 1.387 . S
H384 C396 0.930 1_556 S
H385 C398 0.930 . S
H386 C399 0.930 . S
H387 C403 0.959 . S
H388 C403 0.959 . S
H389 C403 0.961 . S
H390 C404 0.960 . S
H391 C404 0.961 . S
H392 C404 0.959 1_554 S
H393 C407 0.929 . S
H394 C408 0.931 . S
H395 C410 0.930 1_556 S
C396 H384 0.930 1_554 S
C396 C397 1.399 . S
C396 C401 1.399 . S
C397 C396 1.399 . S
C397 C398 1.376 . S
C398 H385 0.930 . S
C398 C397 1.376 . S
C398 C399 1.388 . S
C399 H386 0.930 . S
C399 C398 1.388 . S
C399 C400 1.390 . S
C400 C399 1.390 . S
C400 C401 1.394 . S
C400 C406 1.465 . S
C401 C396 1.399 . S
C401 C400 1.394 . S
C401 C402 1.516 1_554 S
C402 C401 1.516 1_556 S
C402 C403 1.502 . S
C402 C404 1.561 . S
C402 C405 1.526 1_556 S
C403 H387 0.959 . S
C403 H388 0.959 . S
C403 H389 0.961 . S
C403 C402 1.502 . S
C404 H390 0.960 . S
C404 H391 0.961 . S
C404 H392 0.959 1_556 S
C404 C402 1.561 . S
C405 C402 1.526 1_554 S
C405 C406 1.396 . S
C405 C410 1.390 . S
C406 C400 1.465 . S
C406 C405 1.396 . S
C406 C407 1.399 . S
C407 H393 0.929 . S
C407 C406 1.399 . S
C407 C408 1.385 . S
C408 H394 0.931 . S
C408 C407 1.385 . S
C408 C409 1.389 . S
C409 C408 1.389 . S
C409 C410 1.387 . S
C410 H395 0.930 1_554 S
C410 C405 1.390 . S
C410 C409 1.387 . S
H411 C423 0.930 . S
H412 C425 0.930 . S
H413 C426 0.930 . S
H414 C430 0.959 . S
H415 C430 0.959 . S
H416 C430 0.961 . S
H417 C431 0.960 . S
H418 C431 0.961 . S
H419 C431 0.959 . S
H420 C434 0.929 . S
H421 C435 0.931 . S
H422 C437 0.930 . S
C423 H411 0.930 . S
C423 C424 1.399 . S
C423 C428 1.399 . S
C424 C423 1.399 . S
C424 C425 1.376 . S
C425 H412 0.930 . S
C425 C424 1.376 . S
C425 C426 1.388 . S
C426 H413 0.930 . S
C426 C425 1.388 . S
C426 C427 1.390 . S
C427 C426 1.390 . S
C427 C428 1.394 . S
C427 C433 1.465 . S
C428 C423 1.399 . S
C428 C427 1.394 . S
C428 C429 1.516 . S
C429 C428 1.516 . S
C429 C430 1.502 . S
C429 C431 1.561 1_554 S
C429 C432 1.526 . S
C430 H414 0.959 . S
C430 H415 0.959 . S
C430 H416 0.961 . S
C430 C429 1.502 . S
C431 H417 0.960 . S
C431 H418 0.961 . S
C431 H419 0.959 . S
C431 C429 1.561 1_556 S
C432 C429 1.526 . S
C432 C433 1.396 . S
C432 C437 1.390 . S
C433 C427 1.465 . S
C433 C432 1.396 . S
C433 C434 1.399 . S
C434 H420 0.929 . S
C434 C433 1.399 . S
C434 C435 1.385 . S
C435 H421 0.931 . S
C435 C434 1.385 . S
C435 C436 1.389 . S
C436 C435 1.389 . S
C436 C437 1.387 . S
C437 H422 0.930 . S
C437 C432 1.390 . S
C437 C436 1.387 . S
H438 C450 0.930 . S
H439 C452 0.930 . S
H440 C453 0.930 . S
H441 C457 0.959 . S
H442 C457 0.959 . S
H443 C457 0.961 . S
H444 C458 0.960 . S
H445 C458 0.961 . S
H446 C458 0.959 . S
H447 C461 0.929 . S
H448 C462 0.931 . S
H449 C464 0.930 . S
C450 H438 0.930 . S
C450 C451 1.399 1_556 S
C450 C455 1.399 1_556 S
C451 C450 1.399 1_554 S
C451 C452 1.376 . S
C452 H439 0.930 . S
C452 C451 1.376 . S
C452 C453 1.388 . S
C453 H440 0.930 . S
C453 C452 1.388 . S
C453 C454 1.390 . S
C454 C453 1.390 . S
C454 C455 1.394 . S
C454 C460 1.465 . S
C455 C450 1.399 1_554 S
C455 C454 1.394 . S
C455 C456 1.516 1_554 S
C456 C455 1.516 1_556 S
C456 C457 1.502 . S
C456 C458 1.561 . S
C456 C459 1.526 1_556 S
C457 H441 0.959 . S
C457 H442 0.959 . S
C457 H443 0.961 . S
C457 C456 1.502 . S
C458 H444 0.960 . S
C458 H445 0.961 . S
C458 H446 0.959 . S
C458 C456 1.561 . S
C459 C456 1.526 1_554 S
C459 C460 1.396 . S
C459 C464 1.390 . S
C460 C454 1.465 . S
C460 C459 1.396 . S
C460 C461 1.399 . S
C461 H447 0.929 . S
C461 C460 1.399 . S
C461 C462 1.385 . S
C462 H448 0.931 . S
C462 C461 1.385 . S
C462 C463 1.389 . S
C463 C462 1.389 . S
C463 C464 1.387 . S
C464 H449 0.930 . S
C464 C459 1.390 . S
C464 C463 1.387 . S
H465 C477 0.930 . S
H466 C479 0.930 1_556 S
H467 C480 0.930 1_556 S
H468 C484 0.959 . S
H469 C484 0.959 . S
H470 C484 0.961 . S
H471 C485 0.960 . S
H472 C485 0.961 . S
H473 C485 0.959 . S
H474 C488 0.911 1_556 S
H475 C489 0.931 . S
H476 C491 0.930 . S
C477 H465 0.930 . S
C477 C478 1.399 . S
C477 C482 1.399 . S
C478 C477 1.399 . S
C478 C479 1.376 . S
C479 H466 0.930 1_554 S
C479 C478 1.376 . S
C479 C480 1.388 . S
C480 H467 0.930 1_554 S
C480 C479 1.388 . S
C480 C481 1.390 . S
C481 C480 1.390 . S
C481 C482 1.394 . S
C481 C487 1.465 . S
C482 C477 1.399 . S
C482 C481 1.394 . S
C482 C483 1.516 . S
C483 C482 1.516 . S
C483 C484 1.502 . S
C483 C485 1.561 . S
C483 C486 1.526 . S
C484 H468 0.959 . S
C484 H469 0.959 . S
C484 H470 0.961 . S
C484 C483 1.502 . S
C485 H471 0.960 . S
C485 H472 0.961 . S
C485 H473 0.959 . S
C485 C483 1.561 . S
C486 C483 1.526 . S
C486 C487 1.396 . S
C486 C491 1.390 . S
C487 C481 1.465 . S
C487 C486 1.396 . S
C487 C488 1.399 . S
C488 H474 0.911 1_554 S
C488 C487 1.399 . S
C488 C489 1.385 . S
C489 H475 0.931 . S
C489 C488 1.385 . S
C489 C490 1.389 . S
C490 C489 1.389 . S
C490 C491 1.387 . S
C491 H476 0.930 . S
C491 C486 1.390 . S
C491 C490 1.387 . S
H492 C504 0.930 . S
H493 C506 0.930 . S
H494 C507 0.930 . S
H495 C511 0.959 . S
H496 C511 0.959 . S
H497 C511 0.961 . S
H498 C512 0.960 . S
H499 C512 0.961 . S
H500 C512 0.959 . S
H501 C515 0.929 . S
H502 C516 0.931 . S
H503 C518 0.930 . S
C504 H492 0.930 . S
C504 C505 1.399 . S
C504 C509 1.399 . S
C505 C504 1.399 . S
C505 C506 1.376 . S
C506 H493 0.930 . S
C506 C505 1.376 . S
C506 C507 1.388 . S
C507 H494 0.930 . S
C507 C506 1.388 . S
C507 C508 1.390 . S
C508 C507 1.390 . S
C508 C509 1.394 . S
C508 C514 1.465 . S
C509 C504 1.399 . S
C509 C508 1.394 . S
C509 C510 1.516 . S
C510 C509 1.516 . S
C510 C511 1.502 . S
C510 C512 1.561 . S
C510 C513 1.526 . S
C511 H495 0.959 . S
C511 H496 0.959 . S
C511 H497 0.961 . S
C511 C510 1.502 . S
C512 H498 0.960 . S
C512 H499 0.961 . S
C512 H500 0.959 . S
C512 C510 1.561 . S
C513 C510 1.526 . S
C513 C514 1.396 . S
C513 C518 1.390 . S
C514 C508 1.465 . S
C514 C513 1.396 . S
C514 C515 1.399 . S
C515 H501 0.929 . S
C515 C514 1.399 . S
C515 C516 1.385 . S
C516 H502 0.931 . S
C516 C515 1.385 . S
C516 C517 1.389 . S
C517 C516 1.389 . S
C517 C518 1.387 . S
C518 H503 0.930 . S
C518 C513 1.390 . S
C518 C517 1.387 . S
H519 C531 0.930 . S
H520 C533 0.930 . S
H521 C534 0.930 . S
H522 C538 0.959 . S
H523 C538 0.959 . S
H524 C538 0.961 . S
H525 C539 0.960 . S
H526 C539 0.961 . S
H527 C539 0.959 . S
H528 C542 0.929 . S
H529 C543 0.931 . S
H530 C545 0.930 . S
C531 H519 0.930 . S
C531 C532 1.399 . S
C531 C536 1.399 . S
C532 C531 1.399 . S
C532 C533 1.376 . S
C533 H520 0.930 . S
C533 C532 1.376 . S
C533 C534 1.388 . S
C534 H521 0.930 . S
C534 C533 1.388 . S
C534 C535 1.390 . S
C535 C534 1.390 . S
C535 C536 1.394 . S
C535 C541 1.465 . S
C536 C531 1.399 . S
C536 C535 1.394 . S
C536 C537 1.516 . S
C537 C536 1.516 . S
C537 C538 1.502 . S
C537 C539 1.561 . S
C537 C540 1.526 . S
C538 H522 0.959 . S
C538 H523 0.959 . S
C538 H524 0.961 . S
C538 C537 1.502 . S
C539 H525 0.960 . S
C539 H526 0.961 . S
C539 H527 0.959 . S
C539 C537 1.561 . S
C540 C537 1.526 . S
C540 C541 1.396 . S
C540 C545 1.390 . S
C541 C535 1.465 . S
C541 C540 1.396 . S
C541 C542 1.399 . S
C542 H528 0.929 . S
C542 C541 1.399 . S
C542 C543 1.385 . S
C543 H529 0.931 . S
C543 C542 1.385 . S
C543 C544 1.389 . S
C544 C543 1.389 . S
C544 C545 1.387 . S
C545 H530 0.930 . S
C545 C540 1.390 . S
C545 C544 1.387 . S
H546 C558 0.930 . S
H547 C560 0.930 . S
H548 C561 0.930 . S
H549 C565 0.959 . S
H550 C565 0.959 . S
H551 C565 0.961 . S
H552 C566 0.960 . S
H553 C566 0.961 . S
H554 C566 0.959 . S
H555 C569 0.929 . S
H556 C570 0.931 . S
H557 C572 0.930 . S
C558 H546 0.930 . S
C558 C559 1.399 . S
C558 C563 1.399 . S
C559 C558 1.399 . S
C559 C560 1.376 . S
C560 H547 0.930 . S
C560 C559 1.376 . S
C560 C561 1.388 . S
C561 H548 0.930 . S
C561 C560 1.388 . S
C561 C562 1.390 . S
C562 C561 1.390 . S
C562 C563 1.394 . S
C562 C568 1.465 . S
C563 C558 1.399 . S
C563 C562 1.394 . S
C563 C564 1.516 . S
C564 C563 1.516 . S
C564 C565 1.502 . S
C564 C566 1.561 . S
C564 C567 1.526 . S
C565 H549 0.959 . S
C565 H550 0.959 . S
C565 H551 0.961 . S
C565 C564 1.502 . S
C566 H552 0.960 . S
C566 H553 0.961 . S
C566 H554 0.959 . S
C566 C564 1.561 . S
C567 C564 1.526 . S
C567 C568 1.396 . S
C567 C572 1.390 . S
C568 C562 1.465 . S
C568 C567 1.396 . S
C568 C569 1.399 . S
C569 H555 0.929 . S
C569 C568 1.399 . S
C569 C570 1.385 . S
C570 H556 0.931 . S
C570 C569 1.385 . S
C570 C571 1.389 . S
C571 C570 1.389 . S
C571 C572 1.387 . S
C572 H557 0.930 . S
C572 C567 1.390 . S
C572 C571 1.387 . S
H573 C585 0.930 . S
H574 C587 0.930 . S
H575 C588 0.930 . S
H576 C592 0.959 . S
H577 C592 0.959 . S
H578 C592 0.961 . S
H579 C593 0.960 . S
H580 C593 0.961 . S
H581 C593 0.959 . S
H582 C596 0.929 . S
H583 C597 0.931 . S
H584 C599 0.930 . S
C585 H573 0.930 . S
C585 C586 1.399 . S
C585 C590 1.399 . S
C586 C585 1.399 . S
C586 C587 1.376 . S
C587 H574 0.930 . S
C587 C586 1.376 . S
C587 C588 1.388 . S
C588 H575 0.930 . S
C588 C587 1.388 . S
C588 C589 1.390 . S
C589 C588 1.390 . S
C589 C590 1.394 . S
C589 C595 1.465 . S
C590 C585 1.399 . S
C590 C589 1.394 . S
C590 C591 1.516 . S
C591 C590 1.516 . S
C591 C592 1.502 . S
C591 C593 1.561 . S
C591 C594 1.526 . S
C592 H576 0.959 . S
C592 H577 0.959 . S
C592 H578 0.961 . S
C592 C591 1.502 . S
C593 H579 0.960 . S
C593 H580 0.961 . S
C593 H581 0.959 . S
C593 C591 1.561 . S
C594 C591 1.526 . S
C594 C595 1.396 . S
C594 C599 1.390 . S
C595 C589 1.465 . S
C595 C594 1.396 . S
C595 C596 1.399 . S
C596 H582 0.929 . S
C596 C595 1.399 . S
C596 C597 1.385 . S
C597 H583 0.931 . S
C597 C596 1.385 . S
C597 C598 1.389 . S
C598 C597 1.389 . S
C598 C599 1.387 . S
C599 H584 0.930 . S
C599 C594 1.390 . S
C599 C598 1.387 . S
H600 C612 0.930 . S
H601 C614 0.930 . S
H602 C615 0.930 . S
H603 C619 0.959 . S
H604 C619 0.959 . S
H605 C619 0.961 . S
H606 C620 0.960 . S
H607 C620 0.961 . S
H608 C620 0.959 . S
H609 C623 0.929 . S
H610 C624 0.931 . S
H611 C626 0.930 . S
C612 H600 0.930 . S
C612 C613 1.399 . S
C612 C617 1.399 . S
C613 C612 1.399 . S
C613 C614 1.376 . S
C614 H601 0.930 . S
C614 C613 1.376 . S
C614 C615 1.388 . S
C615 H602 0.930 . S
C615 C614 1.388 . S
C615 C616 1.390 . S
C616 C615 1.390 . S
C616 C617 1.394 . S
C616 C622 1.465 . S
C617 C612 1.399 . S
C617 C616 1.394 . S
C617 C618 1.516 . S
C618 C617 1.516 . S
C618 C619 1.502 . S
C618 C620 1.561 . S
C618 C621 1.526 . S
C619 H603 0.959 . S
C619 H604 0.959 . S
C619 H605 0.961 . S
C619 C618 1.502 . S
C620 H606 0.960 . S
C620 H607 0.961 . S
C620 H608 0.959 . S
C620 C618 1.561 . S
C621 C618 1.526 . S
C621 C622 1.396 . S
C621 C626 1.390 . S
C622 C616 1.465 . S
C622 C621 1.396 . S
C622 C623 1.399 . S
C623 H609 0.929 . S
C623 C622 1.399 . S
C623 C624 1.385 . S
C624 H610 0.931 . S
C624 C623 1.385 . S
C624 C625 1.389 . S
C625 C624 1.389 . S
C625 C626 1.387 . S
C626 H611 0.930 . S
C626 C621 1.390 . S
C626 C625 1.387 . S
H627 C639 0.930 . S
H628 C641 0.930 . S
H629 C642 0.930 . S
H630 C646 0.959 . S
H631 C646 0.959 . S
H632 C646 0.961 . S
H633 C647 0.960 . S
H634 C647 0.961 . S
H635 C647 0.959 . S
H636 C650 0.929 . S
H637 C651 0.931 . S
H638 C653 0.930 . S
C639 H627 0.930 . S
C639 C640 1.399 . S
C639 C644 1.399 . S
C640 C639 1.399 . S
C640 C641 1.376 . S
C641 H628 0.930 . S
C641 C640 1.376 . S
C641 C642 1.388 . S
C642 H629 0.930 . S
C642 C641 1.388 . S
C642 C643 1.390 . S
C643 C642 1.390 . S
C643 C644 1.394 . S
C643 C649 1.465 . S
C644 C639 1.399 . S
C644 C643 1.394 . S
C644 C645 1.516 . S
C645 C644 1.516 . S
C645 C646 1.502 . S
C645 C647 1.561 . S
C645 C648 1.526 . S
C646 H630 0.959 . S
C646 H631 0.959 . S
C646 H632 0.961 . S
C646 C645 1.502 . S
C647 H633 0.960 . S
C647 H634 0.961 . S
C647 H635 0.959 . S
C647 C645 1.561 . S
C648 C645 1.526 . S
C648 C649 1.396 . S
C648 C653 1.390 . S
C649 C643 1.465 . S
C649 C648 1.396 . S
C649 C650 1.399 . S
C650 H636 0.929 . S
C650 C649 1.399 . S
C650 C651 1.385 . S
C651 H637 0.931 . S
C651 C650 1.385 . S
C651 C652 1.389 . S
C652 C651 1.389 . S
C652 C653 1.387 . S
C653 H638 0.930 . S
C653 C648 1.390 . S
C653 C652 1.387 . S
H654 C666 0.930 . S
H655 C668 0.930 . S
H656 C669 0.930 . S
H657 C673 0.959 . S
H658 C673 0.959 . S
H659 C673 0.961 . S
H660 C674 0.960 . S
H661 C674 0.961 . S
H662 C674 0.959 . S
H663 C677 0.929 . S
H664 C678 0.931 . S
H665 C680 0.930 1_545 S
C666 H654 0.930 . S
C666 C667 1.399 . S
C666 C671 1.399 . S
C667 C666 1.399 . S
C667 C668 1.376 . S
C668 H655 0.930 . S
C668 C667 1.376 . S
C668 C669 1.388 . S
C669 H656 0.930 . S
C669 C668 1.388 . S
C669 C670 1.390 . S
C670 C669 1.390 . S
C670 C671 1.394 . S
C670 C676 1.465 . S
C671 C666 1.399 . S
C671 C670 1.394 . S
C671 C672 1.516 . S
C672 C671 1.516 . S
C672 C673 1.502 . S
C672 C674 1.561 . S
C672 C675 1.526 . S
C673 H657 0.959 . S
C673 H658 0.959 . S
C673 H659 0.961 . S
C673 C672 1.502 . S
C674 H660 0.960 . S
C674 H661 0.961 . S
C674 H662 0.959 . S
C674 C672 1.561 . S
C675 C672 1.526 . S
C675 C676 1.396 . S
C675 C680 1.390 . S
C676 C670 1.465 . S
C676 C675 1.396 . S
C676 C677 1.399 . S
C677 H663 0.929 . S
C677 C676 1.399 . S
C677 C678 1.385 . S
C678 H664 0.931 . S
C678 C677 1.385 . S
C678 C679 1.389 . S
C679 C678 1.389 . S
C679 C680 1.387 . S
C680 H665 0.930 1_565 S
C680 C675 1.390 . S
C680 C679 1.387 . S
H681 C693 0.930 . S
H682 C695 0.930 . S
H683 C696 0.930 . S
H684 C700 0.959 . S
H685 C700 0.959 . S
H686 C700 0.961 . S
H687 C701 0.960 . S
H688 C701 0.961 . S
H689 C701 0.959 . S
H690 C704 0.929 . S
H691 C705 0.931 . S
H692 C707 0.930 . S
C693 H681 0.930 . S
C693 C694 1.399 . S
C693 C698 1.399 . S
C694 C693 1.399 . S
C694 C695 1.376 . S
C695 H682 0.930 . S
C695 C694 1.376 . S
C695 C696 1.388 . S
C696 H683 0.930 . S
C696 C695 1.388 . S
C696 C697 1.390 . S
C697 C696 1.390 . S
C697 C698 1.394 . S
C697 C703 1.465 . S
C698 C693 1.399 . S
C698 C697 1.394 . S
C698 C699 1.516 . S
C699 C698 1.516 . S
C699 C700 1.502 . S
C699 C701 1.561 . S
C699 C702 1.526 . S
C700 H684 0.959 . S
C700 H685 0.959 . S
C700 H686 0.961 . S
C700 C699 1.502 . S
C701 H687 0.960 . S
C701 H688 0.961 . S
C701 H689 0.959 . S
C701 C699 1.561 . S
C702 C699 1.526 . S
C702 C703 1.396 . S
C702 C707 1.390 . S
C703 C697 1.465 . S
C703 C702 1.396 . S
C703 C704 1.399 . S
C704 H690 0.929 . S
C704 C703 1.399 . S
C704 C705 1.385 . S
C705 H691 0.931 . S
C705 C704 1.385 . S
C705 C706 1.389 . S
C706 C705 1.389 . S
C706 C707 1.387 . S
C707 H692 0.930 . S
C707 C702 1.390 . S
C707 C706 1.387 . S
H708 C720 0.930 . S
H709 C722 0.930 . S
H710 C723 0.930 . S
H711 C727 0.959 . S
H712 C727 0.959 . S
H713 C727 0.961 . S
H714 C728 0.960 . S
H715 C728 0.961 . S
H716 C728 0.959 . S
H717 C731 0.929 . S
H718 C732 0.931 . S
H719 C734 0.930 . S
C720 H708 0.930 . S
C720 C721 1.399 . S
C720 C725 1.399 . S
C721 C720 1.399 . S
C721 C722 1.376 . S
C722 H709 0.930 . S
C722 C721 1.376 . S
C722 C723 1.388 . S
C723 H710 0.930 . S
C723 C722 1.388 . S
C723 C724 1.390 . S
C724 C723 1.390 . S
C724 C725 1.394 . S
C724 C730 1.465 . S
C725 C720 1.399 . S
C725 C724 1.394 . S
C725 C726 1.516 . S
C726 C725 1.516 . S
C726 C727 1.502 . S
C726 C728 1.561 . S
C726 C729 1.526 . S
C727 H711 0.959 . S
C727 H712 0.959 . S
C727 H713 0.961 . S
C727 C726 1.502 . S
C728 H714 0.960 . S
C728 H715 0.961 . S
C728 H716 0.959 . S
C728 C726 1.561 . S
C729 C726 1.526 . S
C729 C730 1.396 . S
C729 C734 1.390 . S
C730 C724 1.465 . S
C730 C729 1.396 . S
C730 C731 1.399 . S
C731 H717 0.929 . S
C731 C730 1.399 . S
C731 C732 1.385 . S
C732 H718 0.931 . S
C732 C731 1.385 . S
C732 C733 1.389 . S
C733 C732 1.389 . S
C733 C734 1.387 . S
C734 H719 0.930 . S
C734 C729 1.390 . S
C734 C733 1.387 . S
H735 C747 0.930 . S
H736 C749 0.930 . S
H737 C750 0.930 . S
H738 C754 0.959 . S
H739 C754 0.959 . S
H740 C754 0.961 . S
H741 C755 0.960 . S
H742 C755 0.961 . S
H743 C755 0.959 . S
H744 C758 0.929 . S
H745 C759 0.931 . S
H746 C761 0.930 . S
C747 H735 0.930 . S
C747 C748 1.399 . S
C747 C752 1.399 . S
C748 C747 1.399 . S
C748 C749 1.376 . S
C749 H736 0.930 . S
C749 C748 1.376 . S
C749 C750 1.388 . S
C750 H737 0.930 . S
C750 C749 1.388 . S
C750 C751 1.390 . S
C751 C750 1.390 . S
C751 C752 1.394 . S
C751 C757 1.465 . S
C752 C747 1.399 . S
C752 C751 1.394 . S
C752 C753 1.516 . S
C753 C752 1.516 . S
C753 C754 1.502 . S
C753 C755 1.561 . S
C753 C756 1.526 . S
C754 H738 0.959 . S
C754 H739 0.959 . S
C754 H740 0.961 . S
C754 C753 1.502 . S
C755 H741 0.960 . S
C755 H742 0.961 . S
C755 H743 0.959 . S
C755 C753 1.561 . S
C756 C753 1.526 . S
C756 C757 1.396 . S
C756 C761 1.390 . S
C757 C751 1.465 . S
C757 C756 1.396 . S
C757 C758 1.399 . S
C758 H744 0.929 . S
C758 C757 1.399 . S
C758 C759 1.385 . S
C759 H745 0.931 . S
C759 C758 1.385 . S
C759 C760 1.389 . S
C760 C759 1.389 . S
C760 C761 1.387 . S
C761 H746 0.930 . S
C761 C756 1.390 . S
C761 C760 1.387 . S
H762 C774 0.930 . S
H763 C776 0.930 . S
H764 C777 0.930 . S
H765 C781 0.959 . S
H766 C781 0.959 . S
H767 C781 0.961 . S
H768 C782 0.960 . S
H769 C782 0.961 . S
H770 C782 0.959 . S
H771 C785 0.929 . S
H772 C786 0.931 . S
H773 C788 0.930 . S
C774 H762 0.930 . S
C774 C775 1.399 . S
C774 C779 1.399 . S
C775 C774 1.399 . S
C775 C776 1.376 . S
C776 H763 0.930 . S
C776 C775 1.376 . S
C776 C777 1.388 . S
C777 H764 0.930 . S
C777 C776 1.388 . S
C777 C778 1.390 . S
C778 C777 1.390 . S
C778 C779 1.394 . S
C778 C784 1.465 . S
C779 C774 1.399 . S
C779 C778 1.394 . S
C779 C780 1.516 . S
C780 C779 1.516 . S
C780 C781 1.502 . S
C780 C782 1.561 . S
C780 C783 1.526 . S
C781 H765 0.959 . S
C781 H766 0.959 . S
C781 H767 0.961 . S
C781 C780 1.502 . S
C782 H768 0.960 . S
C782 H769 0.961 . S
C782 H770 0.959 . S
C782 C780 1.561 . S
C783 C780 1.526 . S
C783 C784 1.396 . S
C783 C788 1.390 . S
C784 C778 1.465 . S
C784 C783 1.396 . S
C784 C785 1.399 . S
C785 H771 0.929 . S
C785 C784 1.399 . S
C785 C786 1.385 . S
C786 H772 0.931 . S
C786 C785 1.385 . S
C786 C787 1.389 . S
C787 C786 1.389 . S
C787 C788 1.387 . S
C788 H773 0.930 . S
C788 C783 1.390 . S
C788 C787 1.387 . S
H789 C801 0.930 . S
H790 C803 0.930 . S
H791 C804 0.930 . S
H792 C808 0.959 . S
H793 C808 0.959 . S
H794 C808 0.961 . S
H795 C809 0.960 . S
H796 C809 0.961 . S
H797 C809 0.959 . S
H798 C812 0.929 . S
H799 C813 0.931 . S
H800 C815 0.930 . S
C801 H789 0.930 . S
C801 C802 1.399 . S
C801 C806 1.399 . S
C802 C801 1.399 . S
C802 C803 1.376 . S
C803 H790 0.930 . S
C803 C802 1.376 . S
C803 C804 1.388 . S
C804 H791 0.930 . S
C804 C803 1.388 . S
C804 C805 1.390 . S
C805 C804 1.390 . S
C805 C806 1.394 . S
C805 C811 1.465 . S
C806 C801 1.399 . S
C806 C805 1.394 . S
C806 C807 1.516 . S
C807 C806 1.516 . S
C807 C808 1.502 . S
C807 C809 1.561 . S
C807 C810 1.526 . S
C808 H792 0.959 . S
C808 H793 0.959 . S
C808 H794 0.961 . S
C808 C807 1.502 . S
C809 H795 0.960 . S
C809 H796 0.961 . S
C809 H797 0.959 . S
C809 C807 1.561 . S
C810 C807 1.526 . S
C810 C811 1.396 . S
C810 C815 1.390 . S
C811 C805 1.465 . S
C811 C810 1.396 . S
C811 C812 1.399 . S
C812 H798 0.929 . S
C812 C811 1.399 . S
C812 C813 1.385 . S
C813 H799 0.931 . S
C813 C812 1.385 . S
C813 C814 1.389 . S
C814 C813 1.389 . S
C814 C815 1.387 . S
C815 H800 0.930 . S
C815 C810 1.390 . S
C815 C814 1.387 . S
C181 C9 1.863 . S
C193 C76 1.842 . S
C208 C20 1.098 . S
C220 C63 1.029 . S
C235 C78 1.823 . S
C247 C37 1.776 . S
C262 C49 1.343 . S
C274 C65 1.435 . S
C289 C104 1.218 . S
C301 C35 1.198 . S
C316 C93 2.000 . S
C328 C51 2.022 . S
C343 C7 1.130 . S
C355 C106 1.268 . S
C370 C91 1.666 . S
C382 C22 1.669 . S
C397 C132 1.463 . S
C409 C118 1.364 . S
C424 C120 1.348 . S
C436 C162 1.344 . S
C451 C134 1.580 . S
C463 C148 1.621 . S
C478 C146 1.696 . S
C490 C160 1.606 . S
C505 C163 1.883 1_556 S
C517 C90 1.860 . S
C532 C119 1.128 . S
C544 C105 0.975 . S
C559 C92 1.809 . S
C571 C135 1.768 . S
C586 C107 1.433 1_655 S
C598 C147 1.334 . S
C613 C62 1.250 . S
C625 C133 1.207 . S
C640 C79 1.998 . S
C652 C149 2.019 . S
C667 C161 1.156 . S
C679 C64 1.267 1_565 S
C694 C121 1.656 . S
C706 C77 1.665 . S
C721 C21 1.372 . S
C733 C34 1.461 . S
C748 C8 1.329 . S
C760 C23 1.355 . S
C775 C36 1.578 . S
C787 C50 1.616 . S
C802 C6 1.672 . S
C814 C48 1.626 . S
