# Generated by pormake.
# Topology wkp, (6)-cn, num edge types: 1
# Building blocks:
#     Node 0, Type 0, BuildingBlock: OJICUG_clean_sbu_0, # of connection points: 6
#     Node 1, Type 0, BuildingBlock: OJICUG_clean_sbu_0, # of connection points: 6
#     Node 2, Type 0, BuildingBlock: OJICUG_clean_sbu_0, # of connection points: 6
#     Node 3, Type 0, BuildingBlock: OJICUG_clean_sbu_0, # of connection points: 6
#     Node 4, Type 0, BuildingBlock: OJICUG_clean_sbu_0, # of connection points: 6
#     Node 5, Type 0, BuildingBlock: OJICUG_clean_sbu_0, # of connection points: 6
#     Node 6, Type 0, BuildingBlock: OJICUG_clean_sbu_0, # of connection points: 6
#     Node 7, Type 0, BuildingBlock: OJICUG_clean_sbu_0, # of connection points: 6
#     Node 8, Type 0, BuildingBlock: OJICUG_clean_sbu_0, # of connection points: 6
#     Node 9, Type 0, BuildingBlock: OJICUG_clean_sbu_0, # of connection points: 6
#     Node 10, Type 0, BuildingBlock: OJICUG_clean_sbu_0, # of connection points: 6
#     Node 11, Type 0, BuildingBlock: OJICUG_clean_sbu_0, # of connection points: 6
#     Edge 12, Type (0, 0), BuildingBlock: TEMPAE_clean_linker_10, # of connection points: 2
#     Edge 13, Type (0, 0), BuildingBlock: TEMPAE_clean_linker_10, # of connection points: 2
#     Edge 14, Type (0, 0), BuildingBlock: TEMPAE_clean_linker_10, # of connection points: 2
#     Edge 15, Type (0, 0), BuildingBlock: TEMPAE_clean_linker_10, # of connection points: 2
#     Edge 16, Type (0, 0), BuildingBlock: TEMPAE_clean_linker_10, # of connection points: 2
#     Edge 17, Type (0, 0), BuildingBlock: TEMPAE_clean_linker_10, # of connection points: 2
#     Edge 18, Type (0, 0), BuildingBlock: TEMPAE_clean_linker_10, # of connection points: 2
#     Edge 19, Type (0, 0), BuildingBlock: TEMPAE_clean_linker_10, # of connection points: 2
#     Edge 20, Type (0, 0), BuildingBlock: TEMPAE_clean_linker_10, # of connection points: 2
#     Edge 21, Type (0, 0), BuildingBlock: TEMPAE_clean_linker_10, # of connection points: 2
#     Edge 22, Type (0, 0), BuildingBlock: TEMPAE_clean_linker_10, # of connection points: 2
#     Edge 23, Type (0, 0), BuildingBlock: TEMPAE_clean_linker_10, # of connection points: 2
#     Edge 24, Type (0, 0), BuildingBlock: TEMPAE_clean_linker_10, # of connection points: 2
#     Edge 25, Type (0, 0), BuildingBlock: TEMPAE_clean_linker_10, # of connection points: 2
#     Edge 26, Type (0, 0), BuildingBlock: TEMPAE_clean_linker_10, # of connection points: 2
#     Edge 27, Type (0, 0), BuildingBlock: TEMPAE_clean_linker_10, # of connection points: 2
#     Edge 28, Type (0, 0), BuildingBlock: TEMPAE_clean_linker_10, # of connection points: 2
#     Edge 29, Type (0, 0), BuildingBlock: TEMPAE_clean_linker_10, # of connection points: 2
#     Edge 30, Type (0, 0), BuildingBlock: TEMPAE_clean_linker_10, # of connection points: 2
#     Edge 31, Type (0, 0), BuildingBlock: TEMPAE_clean_linker_10, # of connection points: 2
#     Edge 32, Type (0, 0), BuildingBlock: TEMPAE_clean_linker_10, # of connection points: 2
#     Edge 33, Type (0, 0), BuildingBlock: TEMPAE_clean_linker_10, # of connection points: 2
#     Edge 34, Type (0, 0), BuildingBlock: TEMPAE_clean_linker_10, # of connection points: 2
#     Edge 35, Type (0, 0), BuildingBlock: TEMPAE_clean_linker_10, # of connection points: 2
#     Edge 36, Type (0, 0), BuildingBlock: TEMPAE_clean_linker_10, # of connection points: 2
#     Edge 37, Type (0, 0), BuildingBlock: TEMPAE_clean_linker_10, # of connection points: 2
#     Edge 38, Type (0, 0), BuildingBlock: TEMPAE_clean_linker_10, # of connection points: 2
#     Edge 39, Type (0, 0), BuildingBlock: TEMPAE_clean_linker_10, # of connection points: 2
#     Edge 40, Type (0, 0), BuildingBlock: TEMPAE_clean_linker_10, # of connection points: 2
#     Edge 41, Type (0, 0), BuildingBlock: TEMPAE_clean_linker_10, # of connection points: 2
#     Edge 42, Type (0, 0), BuildingBlock: TEMPAE_clean_linker_10, # of connection points: 2
#     Edge 43, Type (0, 0), BuildingBlock: TEMPAE_clean_linker_10, # of connection points: 2
#     Edge 44, Type (0, 0), BuildingBlock: TEMPAE_clean_linker_10, # of connection points: 2
#     Edge 45, Type (0, 0), BuildingBlock: TEMPAE_clean_linker_10, # of connection points: 2
#     Edge 46, Type (0, 0), BuildingBlock: TEMPAE_clean_linker_10, # of connection points: 2
#     Edge 47, Type (0, 0), BuildingBlock: TEMPAE_clean_linker_10, # of connection points: 2
# Relax obj value: 0.288
# Max RMSD: 0.309
# Mean RMSD: 0.309
data_MOF--net-wkp--node1-OJICUG_clean_sbu_0--edge1-TEMPAE_clean_linker_10
_symmetry_space_group_name_H-M    P1
_symmetry_Int_Tables_number       1
_symmetry_cell_setting            triclinic
loop_
_symmetry_equiv_pos_as_xyz
'x, y, z'
_cell_length_a     43.844037
_cell_length_b     43.83681
_cell_length_c     30.899382
_cell_angle_alpha  90.127009
_cell_angle_beta   89.978061
_cell_angle_gamma 120.02707
loop_
_atom_site_label
_atom_site_type_symbol
_atom_site_fract_x
_atom_site_fract_y
_atom_site_fract_z
_atom_type_partial_charge
Sc0 Sc 0.22373 0.44231 0.02298 0.0
Sc1 Sc 0.19469 0.35168 0.01466 0.0
Sc2 Sc 0.28103 0.41081 0.04931 0.0
O3 O 0.23315 0.40154 0.02903 0.0
C4 C 0.30331 0.47775 0.99093 0.0
C5 C 0.18899 0.39776 0.93789 0.0
C6 C 0.26224 0.35339 0.97524 0.0
C7 C 0.1503 0.38169 0.05963 0.0
C8 C 0.265 0.45883 0.11253 0.0
C9 C 0.23035 0.33834 0.09691 0.0
O10 O 0.27442 0.47729 0.99608 0.0
O11 O 0.18125 0.36874 0.95604 0.0
O12 O 0.28399 0.37757 0.00026 0.0
O13 O 0.17146 0.4132 0.04848 0.0
O14 O 0.28246 0.44419 0.10101 0.0
O15 O 0.20496 0.3282 0.07028 0.0
O16 O 0.2418 0.45965 0.08844 0.0
O17 O 0.15597 0.35646 0.05205 0.0
O18 O 0.25852 0.36791 0.09414 0.0
O19 O 0.20518 0.42735 0.9573 0.0
O20 O 0.30938 0.45469 0.00685 0.0
O21 O 0.22932 0.34189 0.97591 0.0
Sc22 Sc 0.84911 0.27533 0.23981 0.0
Sc23 Sc 0.84803 0.21027 0.17224 0.0
Sc24 Sc 0.77261 0.21873 0.18031 0.0
O25 O 0.82323 0.23471 0.19762 0.0
C26 C 0.77186 0.23348 0.2805 0.0
C27 C 0.87872 0.22592 0.26923 0.0
C28 C 0.77192 0.14587 0.18848 0.0
C29 C 0.90865 0.28983 0.17037 0.0
C30 C 0.80699 0.30223 0.18357 0.0
C31 C 0.8047 0.21389 0.09061 0.0
O32 O 0.80442 0.25632 0.28208 0.0
O33 O 0.87387 0.2111 0.2324 0.0
O34 O 0.75697 0.16406 0.18371 0.0
O35 O 0.89718 0.29896 0.20278 0.0
O36 O 0.78242 0.27151 0.17387 0.0
O37 O 0.82744 0.20792 0.1081 0.0
O38 O 0.83369 0.308 0.20583 0.0
O39 O 0.89261 0.25921 0.15379 0.0
O40 O 0.78366 0.21989 0.11233 0.0
O41 O 0.86806 0.24739 0.278 0.0
O42 O 0.75642 0.21586 0.24678 0.0
O43 O 0.80516 0.15901 0.18858 0.0
Sc44 Sc 0.537 0.77673 0.34498 0.0
Sc45 Sc 0.62605 0.84293 0.33984 0.0
Sc46 Sc 0.5629 0.86267 0.38056 0.0
O47 O 0.57536 0.82751 0.35523 0.0
C48 C 0.49777 0.81845 0.31871 0.0
C49 C 0.5829 0.79246 0.26031 0.0
C50 C 0.61862 0.90717 0.30702 0.0
C51 C 0.60041 0.76765 0.37978 0.0
C52 C 0.5172 0.7939 0.43744 0.0
C53 C 0.63694 0.88835 0.42569 0.0
O54 O 0.50035 0.79093 0.31984 0.0
O55 O 0.61122 0.81446 0.27934 0.0
O56 O 0.59464 0.90242 0.33388 0.0
O57 O 0.56872 0.75583 0.36811 0.0
O58 O 0.53049 0.82667 0.4302 0.0
O59 O 0.64822 0.87579 0.39673 0.0
O60 O 0.51819 0.77253 0.4103 0.0
O61 O 0.62438 0.79953 0.37427 0.0
O62 O 0.6059 0.8836 0.42551 0.0
O63 O 0.55317 0.77702 0.27917 0.0
O64 O 0.51883 0.84668 0.33833 0.0
O65 O 0.63175 0.88718 0.3043 0.0
Sc66 Sc 0.7176 0.58317 0.56188 0.0
Sc67 Sc 0.7793 0.64703 0.4921 0.0
Sc68 Sc 0.77491 0.56515 0.50138 0.0
O69 O 0.75734 0.59843 0.51866 0.0
C70 C 0.76272 0.55112 0.60187 0.0
C71 C 0.76261 0.66282 0.5884 0.0
C72 C 0.846 0.63983 0.50814 0.0
C73 C 0.69915 0.62415 0.49068 0.0
C74 C 0.69189 0.51317 0.50792 0.0
C75 C 0.7773 0.59987 0.41148 0.0
O76 O 0.73878 0.55931 0.6037 0.0
O77 O 0.77562 0.67243 0.55069 0.0
O78 O 0.82909 0.60664 0.50232 0.0
O79 O 0.69199 0.60577 0.52494 0.0
O80 O 0.72273 0.5201 0.49742 0.0
O81 O 0.78382 0.62889 0.42868 0.0
O82 O 0.68567 0.53422 0.52925 0.0
O83 O 0.72903 0.63837 0.47229 0.0
O84 O 0.77105 0.57294 0.43347 0.0
O85 O 0.74499 0.63062 0.59926 0.0
O86 O 0.78028 0.55381 0.56794 0.0
O87 O 0.83137 0.65858 0.51007 0.0
Sc88 Sc 0.20746 0.75225 0.68389 0.0
Sc89 Sc 0.1488 0.78391 0.66864 0.0
Sc90 Sc 0.11786 0.69769 0.70578 0.0
O91 O 0.15796 0.74464 0.68615 0.0
C92 C 0.16195 0.67299 0.65114 0.0
C93 C 0.20313 0.78723 0.59684 0.0
C94 C 0.08274 0.71789 0.62834 0.0
C95 C 0.22099 0.82679 0.71775 0.0
C96 C 0.17925 0.71197 0.7726 0.0
C97 C 0.09655 0.74966 0.74923 0.0
O98 O 0.19096 0.70043 0.65992 0.0
O99 O 0.18372 0.79823 0.61324 0.0
O100 O 0.08293 0.69673 0.65628 0.0
O101 O 0.23147 0.80566 0.70669 0.0
O102 O 0.1479 0.69397 0.75841 0.0
O103 O 0.1114 0.77351 0.72059 0.0
O104 O 0.20422 0.73591 0.75038 0.0
O105 O 0.19016 0.82114 0.70976 0.0
O106 O 0.09912 0.72208 0.75008 0.0
O107 O 0.21255 0.7682 0.61738 0.0
O108 O 0.13236 0.66857 0.66314 0.0
O109 O 0.10646 0.75014 0.62632 0.0
Sc110 Sc 0.39896 0.12589 0.90553 0.0
Sc111 Sc 0.33614 0.12486 0.834 0.0
Sc112 Sc 0.418 0.20295 0.84817 0.0
O113 O 0.3843 0.15127 0.86269 0.0
C114 C 0.4274 0.20099 0.95009 0.0
C115 C 0.31757 0.0926 0.9293 0.0
C116 C 0.34379 0.19981 0.85007 0.0
C117 C 0.36026 0.06736 0.83333 0.0
C118 C 0.47079 0.1734 0.85539 0.0
C119 C 0.38619 0.17056 0.7558 0.0
O120 O 0.41698 0.16827 0.95091 0.0
O121 O 0.30847 0.09944 0.89313 0.0
O122 O 0.37722 0.21617 0.85057 0.0
O123 O 0.38156 0.08025 0.86489 0.0
O124 O 0.46259 0.19587 0.84285 0.0
O125 O 0.3578 0.14536 0.77102 0.0
O126 O 0.45047 0.1467 0.87795 0.0
O127 O 0.34258 0.08082 0.81868 0.0
O128 O 0.41061 0.19354 0.7795 0.0
O129 O 0.34925 0.10151 0.93804 0.0
O130 O 0.42946 0.2178 0.91565 0.0
O131 O 0.32496 0.16656 0.84641 0.0
Sc132 Sc 0.56855 0.71484 0.7861 0.0
Sc133 Sc 0.63199 0.78029 0.85313 0.0
Sc134 Sc 0.54768 0.77033 0.84613 0.0
O135 O 0.58272 0.7552 0.82831 0.0
C136 C 0.5312 0.75511 0.7464 0.0
C137 C 0.64674 0.76356 0.75628 0.0
C138 C 0.61941 0.84365 0.83595 0.0
C139 C 0.61463 0.70184 0.85574 0.0
C140 C 0.50005 0.6865 0.84323 0.0
C141 C 0.58558 0.77714 0.93512 0.0
O142 O 0.54052 0.73197 0.74494 0.0
O143 O 0.65672 0.77732 0.79366 0.0
O144 O 0.58651 0.82531 0.84311 0.0
O145 O 0.59534 0.69305 0.82208 0.0
O146 O 0.50506 0.71699 0.85216 0.0
O147 O 0.61457 0.78477 0.917 0.0
O148 O 0.52165 0.68136 0.82152 0.0
O149 O 0.62727 0.73178 0.87381 0.0
O150 O 0.55765 0.76883 0.91397 0.0
O151 O 0.61443 0.74407 0.74657 0.0
O152 O 0.53451 0.77354 0.77973 0.0
O153 O 0.6397 0.83074 0.83411 0.0
Sc154 Sc 0.77345 0.5457 0.00179 0.0
Sc155 Sc 0.8388 0.63508 0.00821 0.0
Sc156 Sc 0.86033 0.57253 0.96992 0.0
O157 O 0.82425 0.58448 0.99318 0.0
C158 C 0.81491 0.50664 0.02996 0.0
C159 C 0.78754 0.59145 0.08653 0.0
C160 C 0.90242 0.62791 0.04476 0.0
C161 C 0.76409 0.60874 0.96617 0.0
C162 C 0.79317 0.52689 0.91022 0.0
C163 C 0.88567 0.64641 0.92412 0.0
O164 O 0.78736 0.50907 0.02759 0.0
O165 O 0.80938 0.61987 0.0677 0.0
O166 O 0.89846 0.60386 0.01842 0.0
O167 O 0.75245 0.57709 0.97777 0.0
O168 O 0.82576 0.5405 0.919 0.0
O169 O 0.87208 0.65744 0.95198 0.0
O170 O 0.7709 0.5273 0.93636 0.0
O171 O 0.79577 0.63294 0.97237 0.0
O172 O 0.88211 0.61585 0.92554 0.0
O173 O 0.77261 0.56165 0.06762 0.0
O174 O 0.8436 0.52809 0.01162 0.0
O175 O 0.88262 0.64133 0.04549 0.0
Sc176 Sc 0.26189 0.85452 0.1236 0.0
Sc177 Sc 0.19928 0.85113 0.19665 0.0
Sc178 Sc 0.20853 0.7768 0.18123 0.0
O179 O 0.22318 0.82744 0.16698 0.0
C180 C 0.21847 0.77828 0.07984 0.0
C181 C 0.21219 0.88473 0.10144 0.0
C182 C 0.13522 0.77612 0.17865 0.0
C183 C 0.27832 0.91168 0.19774 0.0
C184 C 0.2917 0.81181 0.17239 0.0
C185 C 0.20569 0.80575 0.27334 0.0
O186 O 0.24158 0.81081 0.0797 0.0
O187 O 0.20023 0.88073 0.13982 0.0
O188 O 0.15349 0.76116 0.18341 0.0
O189 O 0.28567 0.9017 0.1625 0.0
O190 O 0.2614 0.78634 0.18158 0.0
O191 O 0.19562 0.82628 0.25844 0.0
O192 O 0.29649 0.83955 0.15351 0.0
O193 O 0.24888 0.89429 0.21697 0.0
O194 O 0.21476 0.78805 0.24946 0.0
O195 O 0.23159 0.87249 0.08924 0.0
O196 O 0.20221 0.76162 0.11374 0.0
O197 O 0.14841 0.80936 0.17789 0.0
Sc198 Sc 0.44171 0.2278 0.3461 0.0
Sc199 Sc 0.35159 0.20027 0.3566 0.0
Sc200 Sc 0.41107 0.28622 0.32188 0.0
O201 O 0.40143 0.23812 0.34148 0.0
C202 C 0.47957 0.30785 0.37724 0.0
C203 C 0.39834 0.19355 0.43173 0.0
C204 C 0.35572 0.26846 0.39801 0.0
C205 C 0.37942 0.15477 0.3101 0.0
C206 C 0.45663 0.2686 0.25649 0.0
C207 C 0.33717 0.23666 0.27617 0.0
O208 O 0.47828 0.27854 0.37218 0.0
O209 O 0.36923 0.18606 0.41399 0.0
O210 O 0.3797 0.29007 0.37276 0.0
O211 O 0.4112 0.17528 0.32103 0.0
O212 O 0.44253 0.28641 0.26871 0.0
O213 O 0.32735 0.21106 0.30228 0.0
O214 O 0.45785 0.24548 0.2803 0.0
O215 O 0.35486 0.16131 0.31806 0.0
O216 O 0.36697 0.26458 0.27863 0.0
O217 O 0.42778 0.20972 0.41208 0.0
O218 O 0.45632 0.31414 0.36249 0.0
O219 O 0.34345 0.23541 0.39656 0.0
Sc220 Sc 0.12564 0.40041 0.46064 0.0
Sc221 Sc 0.12388 0.33848 0.53394 0.0
Sc222 Sc 0.20165 0.42063 0.52135 0.0
O223 O 0.15044 0.38644 0.50514 0.0
C224 C 0.20175 0.42977 0.41906 0.0
C225 C 0.09091 0.31901 0.4385 0.0
C226 C 0.19873 0.34634 0.51909 0.0
C227 C 0.06689 0.36272 0.53292 0.0
C228 C 0.17117 0.47246 0.51157 0.0
C229 C 0.16911 0.38822 0.61298 0.0
O230 O 0.16899 0.4189 0.4168 0.0
O231 O 0.0966 0.31036 0.47564 0.0
O232 O 0.21494 0.3798 0.5204 0.0
O233 O 0.07917 0.38234 0.49982 0.0
O234 O 0.19377 0.4649 0.52552 0.0
O235 O 0.14496 0.35946 0.59706 0.0
O236 O 0.14524 0.45179 0.48806 0.0
O237 O 0.08088 0.34626 0.54976 0.0
O238 O 0.19131 0.41353 0.58982 0.0
O239 O 0.10224 0.35082 0.4278 0.0
O240 O 0.21785 0.4321 0.45427 0.0
O241 O 0.16537 0.32718 0.52046 0.0
Sc242 Sc 0.75334 0.21382 0.68103 0.0
Sc243 Sc 0.77616 0.14758 0.68647 0.0
Sc244 Sc 0.69322 0.12771 0.64595 0.0
O245 O 0.74089 0.16297 0.67105 0.0
C246 C 0.6725 0.17224 0.70765 0.0
C247 C 0.7838 0.1984 0.76572 0.0
C248 C 0.70445 0.08326 0.71946 0.0
C249 C 0.82572 0.22279 0.64608 0.0
C250 C 0.71607 0.19627 0.58872 0.0
C251 C 0.74162 0.10198 0.6008 0.0
O252 O 0.70262 0.19972 0.70644 0.0
O253 O 0.78982 0.17614 0.74684 0.0
O254 O 0.6852 0.08814 0.6928 0.0
O255 O 0.80583 0.23463 0.6575 0.0
O256 O 0.69684 0.1635 0.59611 0.0
O257 O 0.76558 0.11481 0.62959 0.0
O258 O 0.73837 0.2178 0.6158 0.0
O259 O 0.8179 0.19098 0.65201 0.0
O260 O 0.71518 0.10649 0.60113 0.0
O261 O 0.7696 0.21387 0.74679 0.0
O262 O 0.66526 0.14396 0.6881 0.0
O263 O 0.73761 0.1032 0.72202 0.0
C264 C 0.2033 0.41316 0.68141 0.0
C265 C 0.17092 0.39236 0.66058 0.0
C266 C 0.20537 0.41572 0.72676 0.0
C267 C 0.17418 0.39779 0.75172 0.0
C268 C 0.14126 0.37798 0.73069 0.0
C269 C 0.14007 0.37511 0.68541 0.0
C270 C 0.24106 0.43643 0.748 0.0
C271 C 0.10734 0.35917 0.75606 0.0
C272 C 0.18171 0.36998 0.86545 0.0
C273 C 0.18249 0.397 0.89075 0.0
C274 C 0.1791 0.37006 0.82029 0.0
C275 C 0.17629 0.39738 0.79978 0.0
C276 C 0.17604 0.42424 0.82512 0.0
C277 C 0.17967 0.42403 0.87036 0.0
C278 C 0.18029 0.34135 0.79447 0.0
C279 C 0.17225 0.45332 0.80441 0.0
H280 H 0.22718 0.42648 0.66229 0.0
H281 H 0.1149 0.35943 0.66936 0.0
H282 H 0.24144 0.45639 0.77045 0.0
H283 H 0.2465 0.41845 0.76752 0.0
H284 H 0.2626 0.45003 0.72401 0.0
H285 H 0.08375 0.34795 0.73475 0.0
H286 H 0.10676 0.33742 0.77498 0.0
H287 H 0.10568 0.37753 0.77945 0.0
H288 H 0.18448 0.34929 0.88085 0.0
H289 H 0.18029 0.44497 0.88975 0.0
H290 H 0.20263 0.35317 0.77135 0.0
H291 H 0.15581 0.32654 0.7752 0.0
H292 H 0.18331 0.32243 0.81538 0.0
H293 H 0.19513 0.46929 0.78306 0.0
H294 H 0.17049 0.47105 0.82877 0.0
H295 H 0.14829 0.4419 0.78381 0.0
C296 C 0.77121 0.20462 0.02174 0.0
C297 C 0.80306 0.21423 0.04284 0.0
C298 C 0.76915 0.20373 0.97637 0.0
C299 C 0.79989 0.21358 0.95162 0.0
C300 C 0.83236 0.22441 0.9728 0.0
C301 C 0.83346 0.22415 0.01818 0.0
C302 C 0.73388 0.1913 0.95496 0.0
C303 C 0.86587 0.23591 0.94755 0.0
C304 C 0.78855 0.17627 0.83814 0.0
C305 C 0.79056 0.20374 0.8128 0.0
C306 C 0.79158 0.1792 0.88329 0.0
C307 C 0.79767 0.21073 0.90361 0.0
C308 C 0.8008 0.239 0.87815 0.0
C309 C 0.79669 0.23498 0.83302 0.0
C310 C 0.78726 0.14814 0.90932 0.0
C311 C 0.80812 0.27332 0.89863 0.0
H312 H 0.74764 0.19684 0.04072 0.0
H313 H 0.85826 0.23208 0.03441 0.0
H314 H 0.73544 0.21171 0.93248 0.0
H315 H 0.72657 0.16731 0.93544 0.0
H316 H 0.71261 0.18511 0.97883 0.0
H317 H 0.88937 0.24616 0.96888 0.0
H318 H 0.86373 0.21336 0.92871 0.0
H319 H 0.86996 0.25674 0.92405 0.0
H320 H 0.78328 0.15184 0.82276 0.0
H321 H 0.79831 0.25627 0.81353 0.0
H322 H 0.76496 0.13955 0.93224 0.0
H323 H 0.81128 0.15588 0.92883 0.0
H324 H 0.78224 0.12537 0.88854 0.0
H325 H 0.78587 0.26878 0.91993 0.0
H326 H 0.81198 0.29345 0.87414 0.0
H327 H 0.83202 0.28395 0.91924 0.0
C328 C 0.56151 0.78591 0.00448 0.0
C329 C 0.58434 0.77732 0.98291 0.0
C330 C 0.56093 0.7871 0.04988 0.0
C331 C 0.58299 0.77851 0.07418 0.0
C332 C 0.60532 0.76879 0.05251 0.0
C333 C 0.60608 0.76879 0.00712 0.0
C334 C 0.53737 0.79839 0.0718 0.0
C335 C 0.62855 0.75859 0.07727 0.0
C336 C 0.6089 0.81558 0.18781 0.0
C337 C 0.58425 0.78752 0.21315 0.0
C338 C 0.60869 0.81298 0.14259 0.0
C339 C 0.58383 0.78119 0.12221 0.0
C340 C 0.55954 0.75235 0.14768 0.0
C341 C 0.55968 0.75605 0.19289 0.0
C342 C 0.63446 0.84463 0.11657 0.0
C343 C 0.53324 0.71775 0.12715 0.0
H344 H 0.54476 0.79262 0.98581 0.0
H345 H 0.62342 0.76165 0.99051 0.0
H346 H 0.51902 0.77757 0.09426 0.0
H347 H 0.55357 0.82245 0.09141 0.0
H348 H 0.52168 0.80401 0.04824 0.0
H349 H 0.64248 0.7493 0.0556 0.0
H350 H 0.64849 0.78151 0.09608 0.0
H351 H 0.61256 0.73741 0.10076 0.0
H352 H 0.62759 0.84018 0.20327 0.0
H353 H 0.54061 0.73432 0.21241 0.0
H354 H 0.61992 0.85249 0.09401 0.0
H355 H 0.65133 0.8379 0.09666 0.0
H356 H 0.65171 0.8676 0.13739 0.0
H357 H 0.51486 0.72156 0.10625 0.0
H358 H 0.5176 0.69727 0.15162 0.0
H359 H 0.54706 0.70795 0.10615 0.0
C360 C 0.7856 0.57489 0.3426 0.0
C361 C 0.77621 0.59729 0.36378 0.0
C362 C 0.78556 0.57305 0.29724 0.0
C363 C 0.77495 0.59338 0.27262 0.0
C364 C 0.76431 0.61513 0.29394 0.0
C365 C 0.76553 0.61719 0.33927 0.0
C366 C 0.79789 0.55018 0.27565 0.0
C367 C 0.75204 0.63656 0.26886 0.0
C368 C 0.81041 0.61875 0.15858 0.0
C369 C 0.78269 0.59297 0.13368 0.0
C370 C 0.80818 0.61908 0.20377 0.0
C371 C 0.77708 0.59355 0.2246 0.0
C372 C 0.74855 0.56803 0.19962 0.0
C373 C 0.7519 0.56771 0.15438 0.0
C374 C 0.83954 0.6462 0.22925 0.0
C375 C 0.71468 0.54093 0.22071 0.0
H376 H 0.79393 0.55954 0.36151 0.0
H377 H 0.75773 0.63414 0.3556 0.0
H378 H 0.77722 0.53101 0.25355 0.0
H379 H 0.82155 0.5668 0.2557 0.0
H380 H 0.80457 0.53545 0.29943 0.0
H381 H 0.74185 0.64978 0.29036 0.0
H382 H 0.7742 0.65699 0.24963 0.0
H383 H 0.73098 0.61942 0.24573 0.0
H384 H 0.83454 0.638 0.14283 0.0
H385 H 0.73044 0.54776 0.13522 0.0
H386 H 0.8487 0.63281 0.25186 0.0
H387 H 0.83192 0.66245 0.24906 0.0
H388 H 0.86191 0.66398 0.20806 0.0
H389 H 0.71978 0.52361 0.24194 0.0
H390 H 0.69428 0.52425 0.19657 0.0
H391 H 0.7041 0.55417 0.24148 0.0
C392 C 0.21791 0.82432 0.5303 0.0
C393 C 0.21082 0.79274 0.55012 0.0
C394 C 0.22068 0.82789 0.48508 0.0
C395 C 0.21468 0.79867 0.45918 0.0
C396 C 0.20829 0.76698 0.4792 0.0
C397 C 0.20707 0.76464 0.5245 0.0
C398 C 0.22891 0.86255 0.465 0.0
C399 C 0.2006 0.73484 0.45285 0.0
C400 C 0.17855 0.79518 0.34643 0.0
C401 C 0.20779 0.80318 0.32057 0.0
C402 C 0.18028 0.79292 0.39158 0.0
C403 C 0.2125 0.80036 0.41126 0.0
C404 C 0.24232 0.80912 0.38513 0.0
C405 C 0.23938 0.80972 0.33991 0.0
C406 C 0.14755 0.78225 0.41814 0.0
C407 C 0.27743 0.81849 0.40494 0.0
H408 H 0.22085 0.84605 0.55017 0.0
H409 H 0.20104 0.74 0.53981 0.0
H410 H 0.25005 0.8707 0.44044 0.0
H411 H 0.20522 0.85957 0.44818 0.0
H412 H 0.23733 0.88384 0.48953 0.0
H413 H 0.1979 0.71283 0.47335 0.0
H414 H 0.17573 0.72565 0.43451 0.0
H415 H 0.22179 0.7414 0.42885 0.0
H416 H 0.15414 0.79003 0.3312 0.0
H417 H 0.26207 0.81632 0.31967 0.0
H418 H 0.15185 0.80402 0.44024 0.0
H419 H 0.14172 0.75915 0.43855 0.0
H420 H 0.12416 0.77546 0.39766 0.0
H421 H 0.28591 0.84105 0.42752 0.0
H422 H 0.29825 0.82559 0.38013 0.0
H423 H 0.27502 0.79604 0.42411 0.0
C424 C 0.4252 0.18448 0.499 0.0
C425 C 0.39775 0.18668 0.47872 0.0
C426 C 0.42534 0.18036 0.54415 0.0
C427 C 0.39791 0.1794 0.56949 0.0
C428 C 0.37017 0.18154 0.54909 0.0
C429 C 0.37023 0.18472 0.50405 0.0
C430 C 0.45492 0.17737 0.56479 0.0
C431 C 0.34081 0.18139 0.57492 0.0
C432 C 0.37517 0.14207 0.68304 0.0
C433 C 0.39111 0.17279 0.70835 0.0
C434 C 0.37885 0.14369 0.63787 0.0
C435 C 0.39817 0.17689 0.61747 0.0
C436 C 0.41493 0.20795 0.64293 0.0
C437 C 0.41155 0.20548 0.68817 0.0
C438 C 0.36128 0.10993 0.61193 0.0
C439 C 0.43509 0.24391 0.62233 0.0
H440 H 0.44652 0.18601 0.4796 0.0
H441 H 0.34917 0.18696 0.48879 0.0
H442 H 0.47032 0.20018 0.58656 0.0
H443 H 0.44403 0.15325 0.58494 0.0
H444 H 0.47307 0.17645 0.54039 0.0
H445 H 0.32154 0.18391 0.55409 0.0
H446 H 0.32653 0.1566 0.59367 0.0
H447 H 0.35194 0.20349 0.5985 0.0
H448 H 0.35983 0.11667 0.69861 0.0
H449 H 0.42391 0.22927 0.70765 0.0
H450 H 0.38021 0.10926 0.58864 0.0
H451 H 0.33921 0.1086 0.59286 0.0
H452 H 0.35069 0.08621 0.63286 0.0
H453 H 0.45539 0.24501 0.59994 0.0
H454 H 0.44819 0.26529 0.64671 0.0
H455 H 0.41683 0.24898 0.60287 0.0
C456 C 0.25677 0.31792 0.90954 0.0
C457 C 0.2751 0.33509 0.94732 0.0
C458 C 0.26606 0.29645 0.88597 0.0
C459 C 0.2936 0.29147 0.90143 0.0
C460 C 0.31298 0.30978 0.93867 0.0
C461 C 0.30374 0.33177 0.96088 0.0
C462 C 0.24561 0.27815 0.84562 0.0
C463 C 0.34231 0.30478 0.95642 0.0
C464 C 0.29677 0.20814 0.88286 0.0
C465 C 0.3265 0.22073 0.85636 0.0
C466 C 0.28412 0.23043 0.89568 0.0
C467 C 0.30124 0.26565 0.88063 0.0
C468 C 0.32918 0.27735 0.85061 0.0
C469 C 0.34187 0.25483 0.8393 0.0
C470 C 0.25449 0.21721 0.92819 0.0
C471 C 0.34728 0.31438 0.83286 0.0
H472 H 0.23475 0.32077 0.8989 0.0
H473 H 0.31774 0.34482 0.99027 0.0
H474 H 0.26377 0.28072 0.81905 0.0
H475 H 0.22843 0.24963 0.85217 0.0
H476 H 0.22877 0.28891 0.8345 0.0
H477 H 0.35509 0.32147 0.98533 0.0
H478 H 0.33172 0.27678 0.96554 0.0
H479 H 0.36273 0.31123 0.93132 0.0
H480 H 0.28497 0.18171 0.89599 0.0
H481 H 0.36457 0.26426 0.81817 0.0
H482 H 0.23421 0.22368 0.91767 0.0
H483 H 0.26499 0.23049 0.95977 0.0
H484 H 0.24168 0.18828 0.93312 0.0
H485 H 0.32766 0.3221 0.82342 0.0
H486 H 0.36394 0.31722 0.80435 0.0
H487 H 0.36436 0.33306 0.85826 0.0
C488 C 0.97126 0.33445 0.18372 0.0
C489 C 0.94426 0.31396 0.15439 0.0
C490 C 0.00661 0.35078 0.17085 0.0
C491 C 0.01468 0.34681 0.1276 0.0
C492 C -0.01267 0.32876 0.09706 0.0
C493 C 0.95233 0.31225 0.11098 0.0
C494 C 0.03513 0.36963 0.20433 0.0
C495 C -0.00502 0.32454 0.05045 0.0
C496 C 0.10606 0.39911 0.08027 0.0
C497 C 0.11708 0.37404 0.08087 0.0
C498 C 0.07327 0.39122 0.09711 0.0
C499 C 0.05124 0.35761 0.11516 0.0
C500 C 0.06292 0.33285 0.11789 0.0
C501 C 0.09569 0.34132 0.10049 0.0
C502 C 0.06157 0.4182 0.09379 0.0
C503 C 0.04021 0.29687 0.13766 0.0
H504 H 0.96495 0.33548 0.21744 0.0
H505 H 0.9313 0.29656 0.08833 0.0
H506 H 0.04646 0.35283 0.21321 0.0
H507 H 0.05684 0.39467 0.19125 0.0
H508 H 0.02483 0.37543 0.23421 0.0
H509 H 0.97095 0.31341 0.02993 0.0
H510 H 0.01493 0.35027 0.03678 0.0
H511 H 0.00599 0.30662 0.0487 0.0
H512 H 0.12251 0.42456 0.06531 0.0
H513 H 0.10426 0.32204 0.10164 0.0
H514 H 0.05149 0.42139 0.12542 0.0
H515 H 0.03964 0.409 0.07017 0.0
H516 H 0.08323 0.44432 0.08315 0.0
H517 H 0.03132 0.29941 0.17041 0.0
H518 H 0.0543 0.28179 0.14029 0.0
H519 H 0.01632 0.28147 0.11751 0.0
C520 C 0.71482 0.09036 0.17975 0.0
C521 C 0.74921 0.108 0.19634 0.0
C522 C 0.6913 0.05541 0.19113 0.0
C523 C 0.70237 0.03821 0.22046 0.0
C524 C 0.73755 0.05535 0.23572 0.0
C525 C 0.76076 0.09007 0.22306 0.0
C526 C 0.6542 0.03755 0.17348 0.0
C527 C 0.75009 0.03779 0.26744 0.0
C528 C 0.63694 0.97015 0.29711 0.0
C529 C 0.63482 0.93934 0.28078 0.0
C530 C 0.65791 0.0025 0.27668 0.0
C531 C 0.67646 0.0037 0.23862 0.0
C532 C 0.67231 0.9723 0.22021 0.0
C533 C 0.65175 0.9404 0.24185 0.0
C534 C 0.662 0.03561 0.2974 0.0
C535 C 0.691 0.97261 0.17903 0.0
H536 H 0.70608 0.10415 0.15854 0.0
H537 H 0.78734 0.10379 0.23593 0.0
H538 H 0.64636 0.01072 0.16155 0.0
H539 H 0.63563 0.03464 0.19968 0.0
H540 H 0.65127 0.05276 0.14668 0.0
H541 H 0.7788 0.05391 0.27402 0.0
H542 H 0.73572 0.03325 0.29849 0.0
H543 H 0.74434 0.0117 0.25495 0.0
H544 H 0.624 0.96935 0.32735 0.0
H545 H 0.64975 0.91642 0.22899 0.0
H546 H 0.65653 0.05109 0.27349 0.0
H547 H 0.68958 0.05242 0.3086 0.0
H548 H 0.64417 0.02984 0.32556 0.0
H549 H 0.68789 0.98899 0.15403 0.0
H550 H 0.68101 0.94565 0.1658 0.0
H551 H 0.71961 0.98445 0.18552 0.0
C552 C 0.6533 0.64051 0.50368 0.0
C553 C 0.67374 0.63386 0.47447 0.0
C554 C 0.6361 0.65852 0.49026 0.0
C555 C 0.63925 0.66949 0.44667 0.0
C556 C 0.65712 0.65987 0.41631 0.0
C557 C 0.67437 0.64227 0.43069 0.0
C558 C 0.61714 0.66834 0.52339 0.0
C559 C 0.66053 0.67067 0.36936 0.0
C560 C 0.58509 0.70643 0.39951 0.0
C561 C 0.60955 0.74274 0.3998 0.0
C562 C 0.59387 0.68218 0.41618 0.0
C563 C 0.62782 0.6946 0.43365 0.0
C564 C 0.65215 0.73123 0.43569 0.0
C565 C 0.64275 0.7549 0.41855 0.0
C566 C 0.56737 0.64328 0.41352 0.0
C567 C 0.68854 0.74536 0.45471 0.0
H568 H 0.65302 0.63417 0.53764 0.0
H569 H 0.68998 0.63678 0.4081 0.0
H570 H 0.63278 0.69704 0.53005 0.0
H571 H 0.59113 0.66274 0.5109 0.0
H572 H 0.6132 0.65401 0.55437 0.0
H573 H 0.67156 0.6575 0.34914 0.0
H574 H 0.63454 0.66433 0.35598 0.0
H575 H 0.6782 0.69959 0.36677 0.0
H576 H 0.55927 0.69676 0.38524 0.0
H577 H 0.6616 0.7829 0.4194 0.0
H578 H 0.56483 0.63049 0.44529 0.0
H579 H 0.5766 0.63055 0.38992 0.0
H580 H 0.54094 0.63817 0.40322 0.0
H581 H 0.6867 0.73479 0.4878 0.0
H582 H 0.70341 0.77461 0.45639 0.0
H583 H 0.70376 0.73659 0.4347 0.0
C584 C 0.05179 0.72539 0.56478 0.0
C585 C 0.05135 0.70556 0.60061 0.0
C586 C 0.02064 0.7167 0.54243 0.0
C587 C -0.01155 0.68801 0.55692 0.0
C588 C -0.01186 0.66695 0.59175 0.0
C589 C 0.01967 0.67578 0.61288 0.0
C590 C 0.02197 0.73911 0.50465 0.0
C591 C 0.95422 0.63619 0.60828 0.0
C592 C 0.90114 0.6844 0.54447 0.0
C593 C 0.8842 0.65659 0.51499 0.0
C594 C 0.93615 0.69654 0.55657 0.0
C595 C 0.95457 0.6809 0.5379 0.0
C596 C 0.93845 0.65489 0.5054 0.0
C597 C 0.9032 0.64269 0.4947 0.0
C598 C 0.95245 0.7241 0.59173 0.0
C599 C 0.95763 0.63833 0.48401 0.0
H600 H 0.07629 0.74826 0.55491 0.0
H601 H 0.01908 0.66037 0.64059 0.0
H602 H 0.00623 0.7223 0.47713 0.0
H603 H 0.0103 0.75546 0.51429 0.0
H604 H 0.04938 0.75691 0.49348 0.0
H605 H 0.95875 0.62183 0.63479 0.0
H606 H 0.93669 0.64575 0.62056 0.0
H607 H 0.94008 0.61734 0.58164 0.0
H608 H 0.88637 0.69512 0.56011 0.0
H609 H 0.89016 0.62153 0.47131 0.0
H610 H 0.97896 0.74536 0.58184 0.0
H611 H 0.95578 0.71188 0.62145 0.0
H612 H 0.93598 0.73604 0.59978 0.0
H613 H 0.98476 0.65876 0.47491 0.0
H614 H 0.94367 0.6231 0.4546 0.0
H615 H 0.95982 0.62016 0.50708 0.0
C616 C 0.34858 0.00632 0.84382 0.0
C617 C 0.35207 0.03297 0.81582 0.0
C618 C 0.33199 0.97119 0.82985 0.0
C619 C 0.31929 0.96303 0.78685 0.0
C620 C 0.32603 0.99038 0.7574 0.0
C621 C 0.34211 0.0251 0.7724 0.0
C622 C 0.32515 0.94271 0.86221 0.0
C623 C 0.31348 0.98274 0.71103 0.0
C624 C 0.28258 0.87252 0.73693 0.0
C625 C 0.24623 0.86002 0.73935 0.0
C626 C 0.30693 0.90553 0.75402 0.0
C627 C 0.29451 0.92618 0.77418 0.0
C628 C 0.25786 0.91288 0.7788 0.0
C629 C 0.23414 0.88 0.76109 0.0
C630 C 0.34584 0.91895 0.7487 0.0
C631 C 0.24366 0.934 0.80089 0.0
H632 H 0.35615 0.01247 0.87751 0.0
H633 H 0.34521 0.0459 0.75073 0.0
H634 H 0.29746 0.93036 0.8735 0.0
H635 H 0.32881 0.92172 0.84731 0.0
H636 H 0.34269 0.95344 0.89089 0.0
H637 H 0.32501 0.00703 0.69105 0.0
H638 H 0.32031 0.96388 0.69615 0.0
H639 H 0.28436 0.97041 0.71019 0.0
H640 H 0.29211 0.85713 0.72029 0.0
H641 H 0.20608 0.8702 0.76367 0.0
H642 H 0.35988 0.92949 0.77982 0.0
H643 H 0.35704 0.94093 0.72508 0.0
H644 H 0.35118 0.8981 0.73696 0.0
H645 H 0.25579 0.9428 0.83335 0.0
H646 H 0.21457 0.91872 0.80473 0.0
H647 H 0.25058 0.95795 0.78166 0.0
C648 C 0.63474 0.65891 0.84206 0.0
C649 C 0.62704 0.67844 0.87155 0.0
C650 C 0.65419 0.64313 0.85508 0.0
C651 C 0.66549 0.64667 0.89861 0.0
C652 C 0.65528 0.66396 0.92916 0.0
C653 C 0.63632 0.6799 0.91513 0.0
C654 C 0.66482 0.62498 0.82171 0.0
C655 C 0.66645 0.66775 0.97603 0.0
C656 C 0.70292 0.59291 0.94548 0.0
C657 C 0.73915 0.61761 0.94568 0.0
C658 C 0.67857 0.60153 0.92872 0.0
C659 C 0.69082 0.63553 0.91161 0.0
C660 C 0.72738 0.66009 0.90998 0.0
C661 C 0.75116 0.65086 0.92724 0.0
C662 C 0.63972 0.57479 0.93098 0.0
C663 C 0.74131 0.69653 0.89136 0.0
H664 H 0.62779 0.65809 0.80823 0.0
H665 H 0.63009 0.69486 0.9379 0.0
H666 H 0.69362 0.64088 0.81594 0.0
H667 H 0.65921 0.59882 0.83358 0.0
H668 H 0.65101 0.62145 0.79036 0.0
H669 H 0.65325 0.67869 0.99634 0.0
H670 H 0.66042 0.64188 0.98946 0.0
H671 H 0.69536 0.6856 0.97845 0.0
H672 H 0.69337 0.56706 0.95951 0.0
H673 H 0.77911 0.6699 0.92679 0.0
H674 H 0.62709 0.57206 0.89902 0.0
H675 H 0.62672 0.58394 0.95428 0.0
H676 H 0.63476 0.54846 0.94143 0.0
H677 H 0.73064 0.69479 0.85832 0.0
H678 H 0.77054 0.71152 0.88971 0.0
H679 H 0.73248 0.71158 0.91165 0.0
C680 C 0.93181 0.65802 0.11332 0.0
C681 C 0.93308 0.64316 0.07363 0.0
C682 C 0.96229 0.67706 0.13827 0.0
C683 C -0.00533 0.682 0.1223 0.0
C684 C -0.00431 0.66547 0.08335 0.0
C685 C 0.96467 0.64581 0.05968 0.0
C686 C 0.96012 0.69342 0.18037 0.0
C687 C 0.02991 0.67055 0.06507 0.0
C688 C 0.0798 0.76593 0.14413 0.0
C689 C 0.09736 0.75359 0.17028 0.0
C690 C 0.04539 0.74313 0.13005 0.0
C691 C 0.02811 0.70746 0.14333 0.0
C692 C 0.0447 0.69558 0.17252 0.0
C693 C 0.07945 0.71876 0.18528 0.0
C694 C 0.02856 0.75661 0.0985 0.0
C695 C 0.02654 0.65798 0.18832 0.0
H696 H 0.90715 0.65549 0.12433 0.0
H697 H 0.9656 0.63437 0.02889 0.0
H698 H 0.97596 0.68997 0.20585 0.0
H699 H 0.97111 0.72214 0.17582 0.0
H700 H 0.93252 0.68187 0.19189 0.0
H701 H 0.02578 0.6542 0.03575 0.0
H702 H 0.04729 0.69864 0.05635 0.0
H703 H 0.04399 0.6638 0.08964 0.0
H704 H 0.09366 0.79287 0.13252 0.0
H705 H 0.09291 0.70938 0.20612 0.0
H706 H 0.00199 0.75008 0.1099 0.0
H707 H 0.02525 0.74355 0.06664 0.0
H708 H 0.04458 0.78557 0.09381 0.0
H709 H -0.00098 0.64926 0.19803 0.0
H710 H 0.04056 0.6546 0.21622 0.0
H711 H 0.02547 0.6404 0.16176 0.0
C712 C 0.32423 0.97406 0.18515 0.0
C713 C 0.30303 0.94714 0.21417 0.0
C714 C 0.34198 0.00933 0.19852 0.0
C715 C 0.33871 0.0175 0.24196 0.0
C716 C 0.31982 0.99018 0.27216 0.0
C717 C 0.30194 0.95523 0.25778 0.0
C718 C 0.36174 0.03784 0.16541 0.0
C719 C 0.31626 -0.00204 0.31895 0.0
C720 C 0.39434 0.10864 0.28947 0.0
C721 C 0.37046 0.12114 0.28881 0.0
C722 C 0.38494 0.07534 0.27275 0.0
C723 C 0.35101 0.05434 0.25482 0.0
C724 C 0.32745 0.0675 0.2521 0.0
C725 C 0.33742 0.10073 0.26931 0.0
C726 C 0.41067 0.06206 0.27599 0.0
C727 C 0.29116 0.04593 0.23249 0.0
H728 H 0.32496 0.96786 0.15131 0.0
H729 H 0.28584 0.93434 0.28029 0.0
H730 H 0.34632 0.05088 0.15751 0.0
H731 H 0.38753 0.05834 0.17844 0.0
H732 H 0.36626 0.02714 0.13497 0.0
H733 H 0.30436 0.97379 0.33917 0.0
H734 H 0.34235 0.01709 0.33266 0.0
H735 H 0.29931 0.01005 0.32108 0.0
H736 H 0.41999 0.12433 0.30436 0.0
H737 H 0.31904 0.11044 0.26813 0.0
H738 H 0.41317 0.05151 0.24434 0.0
H739 H 0.40072 0.0401 0.2996 0.0
H740 H 0.43722 0.08299 0.28661 0.0
H741 H 0.29304 0.03677 0.19961 0.0
H742 H 0.27704 0.06099 0.23015 0.0
H743 H 0.27517 0.02217 0.25253 0.0
C744 C 0.25326 0.34433 0.53356 0.0
C745 C 0.22016 0.32953 0.51363 0.0
C746 C 0.27661 0.33243 0.52332 0.0
C747 C 0.26683 0.30593 0.49152 0.0
C748 C 0.23251 0.28928 0.47347 0.0
C749 C 0.2093 0.30108 0.48523 0.0
C750 C 0.31257 0.3499 0.54425 0.0
C751 C 0.22133 0.26114 0.43908 0.0
C752 C 0.33608 0.31124 0.41474 0.0
C753 C 0.33816 0.28159 0.42683 0.0
C754 C 0.3138 0.32019 0.43674 0.0
C755 C 0.29387 0.2994 0.47225 0.0
C756 C 0.29796 0.27109 0.48673 0.0
C757 C 0.31983 0.2622 0.46343 0.0
C758 C 0.3099 0.35048 0.42017 0.0
C759 C 0.27795 0.2491 0.52533 0.0
H760 H 0.26131 0.36602 0.55613 0.0
H761 H 0.18364 0.28972 0.46992 0.0
H762 H 0.32005 0.33004 0.55328 0.0
H763 H 0.3325 0.36831 0.52092 0.0
H764 H 0.31361 0.36507 0.57362 0.0
H765 H 0.1928 0.2486 0.43144 0.0
H766 H 0.2365 0.273 0.40899 0.0
H767 H 0.22716 0.2404 0.4495 0.0
H768 H 0.35011 0.32616 0.38634 0.0
H769 H 0.32176 0.23945 0.47306 0.0
H770 H 0.31471 0.3695 0.44663 0.0
H771 H 0.28257 0.34042 0.40847 0.0
H772 H 0.32835 0.36477 0.39322 0.0
H773 H 0.27865 0.26612 0.55239 0.0
H774 H 0.28873 0.23239 0.53687 0.0
H775 H 0.24993 0.23162 0.51635 0.0
C776 C 0.88056 0.23526 0.60692 0.0
C777 C 0.85968 0.24757 0.62577 0.0
C778 C 0.91355 0.25881 0.58946 0.0
C779 C 0.92594 0.29545 0.5913 0.0
C780 C 0.90456 0.30802 0.60886 0.0
C781 C 0.87159 0.28388 0.62585 0.0
C782 C 0.93564 0.24452 0.57032 0.0
C783 C 0.91707 0.34695 0.61125 0.0
C784 C 0.02479 0.34658 0.59342 0.0
C785 C 0.03234 0.35448 0.54952 0.0
C786 C -0.00995 0.32982 0.60819 0.0
C787 C 0.96245 0.32041 0.57804 0.0
C788 C 0.97015 0.33104 0.53431 0.0
C789 C 0.00528 0.34831 0.52054 0.0
C790 C 0.9828 0.31944 0.65526 0.0
C791 C 0.9413 0.32135 0.50135 0.0
H792 H 0.87134 0.20725 0.60623 0.0
H793 H 0.85555 0.29366 0.64019 0.0
H794 H 0.94425 0.25495 0.53715 0.0
H795 H 0.95972 0.25329 0.59017 0.0
H796 H 0.92118 0.21527 0.5688 0.0
H797 H 0.89583 0.35215 0.62165 0.0
H798 H 0.93915 0.35977 0.63467 0.0
H799 H 0.92719 0.35957 0.57936 0.0
H800 H 0.04592 0.3517 0.61575 0.0
H801 H 0.01122 0.35424 0.48648 0.0
H802 H 0.97147 0.29053 0.65823 0.0
H803 H 0.96326 0.32596 0.66859 0.0
H804 H 0.0071 0.33272 0.67529 0.0
H805 H 0.92853 0.29276 0.49409 0.0
H806 H 0.95161 0.3361 0.47062 0.0
H807 H 0.92067 0.32649 0.51422 0.0
C808 C 0.61759 0.89906 0.84505 0.0
C809 C 0.63401 0.88139 0.82751 0.0
C810 C 0.6288 0.93399 0.83383 0.0
C811 C 0.65652 0.95119 0.80374 0.0
C812 C 0.6741 0.93395 0.78723 0.0
C813 C 0.66281 0.89924 0.79972 0.0
C814 C 0.61007 0.95195 0.85274 0.0
C815 C 0.70356 0.95148 0.75462 0.0
C816 C 0.65913 0.02043 0.72927 0.0
C817 C 0.68839 0.05088 0.7454 0.0
C818 C 0.64753 0.98784 0.74914 0.0
C819 C 0.66526 0.986 0.78645 0.0
C820 C 0.69312 0.01706 0.80475 0.0
C821 C 0.70465 0.04922 0.78367 0.0
C822 C 0.61788 0.95512 0.72852 0.0
C823 C 0.71197 0.01608 0.84516 0.0
H824 H 0.59558 0.88535 0.86705 0.0
H825 H 0.67541 0.88553 0.78608 0.0
H826 H 0.62942 0.97854 0.86502 0.0
H827 H 0.59435 0.95547 0.82717 0.0
H828 H 0.59208 0.93653 0.87957 0.0
H829 H 0.71563 0.93511 0.74672 0.0
H830 H 0.69324 0.95652 0.7243 0.0
H831 H 0.72441 0.97733 0.76709 0.0
H832 H 0.64665 0.02166 0.69955 0.0
H833 H 0.72707 0.07291 0.79641 0.0
H834 H 0.59732 0.93948 0.75282 0.0
H835 H 0.62816 0.93824 0.71603 0.0
H836 H 0.60542 0.96139 0.70127 0.0
H837 H 0.69274 -0.00028 0.87041 0.0
H838 H 0.72949 0.04286 0.85854 0.0
H839 H 0.72823 0.00387 0.83761 0.0
C840 C 0.36658 0.51734 0.97306 0.0
C841 C 0.33112 0.50674 0.96572 0.0
C842 C 0.39331 0.54619 0.95099 0.0
C843 C 0.38417 0.56427 0.92042 0.0
C844 C 0.3484 0.55297 0.91184 0.0
C845 C 0.32223 0.52445 0.93494 0.0
C846 C 0.43131 0.55793 0.96127 0.0
C847 C 0.33781 0.5713 0.87879 0.0
C848 C 0.45247 0.65905 0.89825 0.0
C849 C 0.46862 0.65564 0.86086 0.0
C850 C 0.42452 0.62946 0.91767 0.0
C851 C 0.41218 0.5959 0.89871 0.0
C852 C 0.42747 0.59243 0.86007 0.0
C853 C 0.45581 0.6224 0.84176 0.0
C854 C 0.40902 0.63397 0.95923 0.0
C855 C 0.4144 0.55703 0.83863 0.0
H856 H 0.37346 0.50374 0.99697 0.0
H857 H 0.29476 0.51598 0.92886 0.0
H858 H 0.44548 0.55827 0.93136 0.0
H859 H 0.4446 0.5852 0.97429 0.0
H860 H 0.43389 0.54054 0.98531 0.0
H861 H 0.30882 0.55778 0.87403 0.0
H862 H 0.3471 0.59879 0.88927 0.0
H863 H 0.35046 0.57261 0.84721 0.0
H864 H 0.46249 0.6847 0.91326 0.0
H865 H 0.4681 0.61977 0.81261 0.0
H866 H 0.41299 0.61918 0.98564 0.0
H867 H 0.38022 0.62294 0.95556 0.0
H868 H 0.42112 0.66204 0.96914 0.0
H869 H 0.41922 0.53966 0.86017 0.0
H870 H 0.42758 0.55925 0.80713 0.0
H871 H 0.38555 0.54397 0.83315 0.0
C872 C 0.83752 0.46615 0.04749 0.0
C873 C 0.81351 0.47773 0.05553 0.0
C874 C 0.83589 0.4381 0.07086 0.0
C875 C 0.81 0.42176 0.10341 0.0
C876 C 0.78627 0.43389 0.11247 0.0
C877 C 0.78812 0.46163 0.0881 0.0
C878 C 0.86133 0.42542 0.06006 0.0
C879 C 0.75871 0.41733 0.14748 0.0
C880 C 0.78417 0.3279 0.12965 0.0
C881 C 0.80545 0.33253 0.16574 0.0
C882 C 0.78481 0.35677 0.10962 0.0
C883 C 0.80687 0.39092 0.12655 0.0
C884 C 0.82729 0.39568 0.16404 0.0
C885 C 0.82655 0.36636 0.18307 0.0
C886 C 0.76295 0.35085 0.06936 0.0
C887 C 0.85064 0.43179 0.18326 0.0
H888 H 0.85711 0.47852 0.02224 0.0
H889 H 0.7698 0.47086 0.09476 0.0
H890 H 0.87638 0.42628 0.08933 0.0
H891 H 0.84653 0.39759 0.04902 0.0
H892 H 0.88029 0.44147 0.03434 0.0
H893 H 0.74366 0.43129 0.15213 0.0
H894 H 0.73992 0.38944 0.13913 0.0
H895 H 0.77131 0.41736 0.17864 0.0
H896 H 0.76792 0.30183 0.11599 0.0
H897 H 0.8428 0.36998 0.21121 0.0
H898 H 0.78055 0.36415 0.04143 0.0
H899 H 0.74583 0.36258 0.07342 0.0
H900 H 0.74609 0.32244 0.06146 0.0
H901 H 0.87217 0.44809 0.16032 0.0
H902 H 0.86255 0.4306 0.21448 0.0
H903 H 0.83535 0.44538 0.18862 0.0
C904 C 0.45461 0.79416 0.25819 0.0
C905 C 0.46914 0.81759 0.2931 0.0
C906 C 0.42703 0.79275 0.23387 0.0
C907 C 0.41339 0.81481 0.24546 0.0
C908 C 0.42826 0.83884 0.2803 0.0
C909 C 0.45626 0.84017 0.30351 0.0
C910 C 0.41208 0.7673 0.19636 0.0
C911 C 0.41391 0.86237 0.29389 0.0
C912 C 0.35619 0.83299 0.17074 0.0
C913 C 0.32262 0.81004 0.18744 0.0
C914 C 0.38607 0.83369 0.18799 0.0
C915 C 0.38209 0.81134 0.22308 0.0
C916 C 0.34819 0.78727 0.23903 0.0
C917 C 0.3188 0.78673 0.22076 0.0
C918 C 0.42192 0.85919 0.16978 0.0
C919 C 0.34307 0.76332 0.27681 0.0
H920 H 0.46493 0.77704 0.24974 0.0
H921 H 0.46746 0.85824 0.33057 0.0
H922 H 0.38454 0.74678 0.20357 0.0
H923 H 0.41145 0.78127 0.16678 0.0
H924 H 0.42758 0.75409 0.18946 0.0
H925 H 0.42917 0.88028 0.32094 0.0
H926 H 0.41427 0.87855 0.26614 0.0
H927 H 0.38607 0.846 0.30427 0.0
H928 H 0.3592 0.85081 0.14469 0.0
H929 H 0.29292 0.76901 0.23393 0.0
H930 H 0.43682 0.84543 0.16278 0.0
H931 H 0.43728 0.88002 0.19403 0.0
H932 H 0.42013 0.872 0.13965 0.0
H933 H 0.35621 0.74775 0.27039 0.0
H934 H 0.3148 0.74483 0.28373 0.0
H935 H 0.35542 0.77941 0.30622 0.0
C936 C 0.62949 0.46532 0.51515 0.0
C937 C 0.6617 0.47976 0.49313 0.0
C938 C 0.59972 0.43516 0.49946 0.0
C939 C 0.60223 0.41963 0.46046 0.0
C940 C 0.63493 0.4334 0.43882 0.0
C941 C 0.66444 0.46322 0.45569 0.0
C942 C 0.56535 0.42068 0.52375 0.0
C943 C 0.63837 0.4177 0.39681 0.0
C944 C 0.5302 0.32833 0.42828 0.0
C945 C 0.5101 0.33625 0.40005 0.0
C946 C 0.56 0.35524 0.44895 0.0
C947 C 0.57009 0.39074 0.44047 0.0
C948 C 0.54979 0.39888 0.41222 0.0
C949 C 0.51981 0.37148 0.39262 0.0
C950 C 0.58079 0.34574 0.47956 0.0
C951 C 0.5601 0.43655 0.40208 0.0
H952 H 0.62745 0.47786 0.54443 0.0
H953 H 0.6893 0.47443 0.43852 0.0
H954 H 0.5463 0.42462 0.50436 0.0
H955 H 0.55361 0.39192 0.52887 0.0
H956 H 0.56869 0.43368 0.55569 0.0
H957 H 0.6661 0.43024 0.38549 0.0
H958 H 0.62802 0.38901 0.40054 0.0
H959 H 0.6224 0.42102 0.37138 0.0
H960 H 0.52255 0.30107 0.43436 0.0
H961 H 0.50447 0.3777 0.37058 0.0
H962 H 0.58305 0.35814 0.51163 0.0
H963 H 0.60793 0.35611 0.46706 0.0
H964 H 0.56853 0.31681 0.484 0.0
H965 H 0.5611 0.45074 0.43228 0.0
H966 H 0.54146 0.43831 0.37928 0.0
H967 H 0.58685 0.45041 0.38762 0.0
C968 C 0.19197 0.52184 0.5642 0.0
C969 C 0.17354 0.50553 0.52617 0.0
C970 C 0.19095 0.55076 0.5816 0.0
C971 C 0.17152 0.56393 0.55998 0.0
C972 C 0.15439 0.5488 0.5204 0.0
C973 C 0.15534 0.51947 0.50409 0.0
C974 C 0.20928 0.56615 0.62416 0.0
C975 C 0.13409 0.56279 0.49613 0.0
C976 C 0.1369 0.60995 0.63111 0.0
C977 C 0.16301 0.64521 0.62575 0.0
C978 C 0.13897 0.58315 0.60903 0.0
C979 C 0.16743 0.59212 0.5804 0.0
C980 C 0.19302 0.6278 0.57344 0.0
C981 C 0.19069 0.65399 0.59661 0.0
C982 C 0.11145 0.54523 0.61753 0.0
C983 C 0.22326 0.63823 0.5424 0.0
H984 H 0.20595 0.51106 0.58149 0.0
H985 H 0.14136 0.50711 0.47443 0.0
H986 H 0.22751 0.5949 0.62092 0.0
H987 H 0.18949 0.5624 0.64911 0.0
H988 H 0.2245 0.55375 0.63583 0.0
H989 H 0.12529 0.55032 0.46377 0.0
H990 H 0.11052 0.55776 0.51507 0.0
H991 H 0.15049 0.59173 0.4919 0.0
H992 H 0.11553 0.60323 0.65368 0.0
H993 H 0.21059 0.68139 0.59196 0.0
H994 H 0.12407 0.53121 0.63222 0.0
H995 H 0.09917 0.53164 0.58668 0.0
H996 H 0.09036 0.54285 0.6396 0.0
H997 H 0.24102 0.62907 0.55494 0.0
H998 H 0.23891 0.6672 0.53763 0.0
H999 H 0.2133 0.6254 0.5105 0.0
C1000 C 0.51742 0.15662 0.85811 0.0
C1001 C 0.50436 0.1772 0.84023 0.0
C1002 C 0.54719 0.15729 0.84058 0.0
C1003 C 0.56379 0.17867 0.80412 0.0
C1004 C 0.55172 0.20066 0.78716 0.0
C1005 C 0.52224 0.19983 0.80563 0.0
C1006 C 0.55991 0.13399 0.85984 0.0
C1007 C 0.56873 0.22362 0.74803 0.0
C1008 C 0.65372 0.198 0.76668 0.0
C1009 C 0.64475 0.17321 0.73329 0.0
C1010 C 0.62757 0.19942 0.79108 0.0
C1011 C 0.59181 0.17587 0.78123 0.0
C1012 C 0.58259 0.15056 0.7479 0.0
C1013 C 0.60925 0.14936 0.72449 0.0
C1014 C 0.63817 0.22635 0.82692 0.0
C1015 C 0.54458 0.12532 0.73625 0.0
H1016 H 0.50393 0.13939 0.88517 0.0
H1017 H 0.51232 0.21583 0.79163 0.0
H1018 H 0.55465 0.11241 0.83687 0.0
H1019 H 0.58878 0.14923 0.86532 0.0
H1020 H 0.54667 0.12211 0.891 0.0
H1021 H 0.55766 0.24097 0.74078 0.0
H1022 H 0.59754 0.24034 0.75301 0.0
H1023 H 0.56474 0.20675 0.71933 0.0
H1024 H 0.68121 0.21619 0.77392 0.0
H1025 H 0.60228 0.13024 0.69863 0.0
H1026 H 0.62503 0.21326 0.8576 0.0
H1027 H 0.62943 0.24544 0.81894 0.0
H1028 H 0.66711 0.24113 0.83228 0.0
H1029 H 0.53002 0.1098 0.76505 0.0
H1030 H 0.54195 0.10677 0.71003 0.0
H1031 H 0.53173 0.14032 0.72552 0.0
C1032 C 0.24832 0.32602 0.16785 0.0
C1033 C 0.23018 0.31325 0.12873 0.0
C1034 C 0.25777 0.30545 0.1929 0.0
C1035 C 0.24934 0.27152 0.17798 0.0
C1036 C 0.22796 0.25718 0.14075 0.0
C1037 C 0.21841 0.27825 0.11657 0.0
C1038 C 0.27977 0.32147 0.23304 0.0
C1039 C 0.21809 0.22104 0.12403 0.0
C1040 C 0.32388 0.25581 0.20664 0.0
C1041 C 0.31163 0.23679 0.24521 0.0
C1042 C 0.30245 0.26451 0.18219 0.0
C1043 C 0.2681 0.25437 0.1971 0.0
C1044 C 0.25448 0.23241 0.23389 0.0
C1045 C 0.27645 0.22368 0.2575 0.0
C1046 C 0.31779 0.28725 0.14251 0.0
C1047 C 0.21796 0.22079 0.25063 0.0
H1048 H 0.25713 0.35299 0.17745 0.0
H1049 H 0.2045 0.26836 0.08618 0.0
H1050 H 0.26988 0.30237 0.26014 0.0
H1051 H 0.30736 0.32828 0.22651 0.0
H1052 H 0.27983 0.3458 0.24341 0.0
H1053 H 0.19541 0.21076 0.10133 0.0
H1054 H 0.24087 0.22251 0.10646 0.0
H1055 H 0.21145 0.20208 0.151 0.0
H1056 H 0.351 0.26565 0.1969 0.0
H1057 H 0.26694 0.20907 0.28745 0.0
H1058 H 0.32285 0.31425 0.14949 0.0
H1059 H 0.29894 0.27666 0.11511 0.0
H1060 H 0.34298 0.28911 0.13232 0.0
H1061 H 0.21833 0.24282 0.26883 0.0
H1062 H 0.20854 0.19788 0.27276 0.0
H1063 H 0.19889 0.21374 0.22364 0.0
C1064 C 0.03819 0.25912 0.42652 0.0
C1065 C 0.06407 0.2916 0.40961 0.0
C1066 C 0.00629 0.23831 0.40431 0.0
C1067 C 0.00015 0.25055 0.36471 0.0
C1068 C 0.02786 0.28108 0.34517 0.0
C1069 C 0.05959 0.30099 0.36768 0.0
C1070 C 0.97808 0.20507 0.42534 0.0
C1071 C 0.02276 0.29502 0.30271 0.0
C1072 C 0.92174 0.20607 0.28903 0.0
C1073 C 0.90333 0.22353 0.30037 0.0
C1074 C 0.95167 0.21178 0.31246 0.0
C1075 C 0.96372 0.23591 0.34744 0.0
C1076 C 0.94316 0.25066 0.36171 0.0
C1077 C 0.91304 0.24397 0.3383 0.0
C1078 C 0.97183 0.19413 0.29753 0.0
C1079 C 0.9547 0.27625 0.39925 0.0
H1080 H 0.04144 0.25133 0.45868 0.0
H1081 H 0.07973 0.32565 0.35392 0.0
H1082 H 0.96035 0.21118 0.4444 0.0
H1083 H 0.96189 0.18487 0.40079 0.0
H1084 H -0.01031 0.19385 0.44777 0.0
H1085 H 0.04783 0.31704 0.28996 0.0
H1086 H 0.01143 0.27381 0.27802 0.0
H1087 H 0.00393 0.30471 0.30731 0.0
H1088 H 0.91422 0.1897 0.26026 0.0
H1089 H 0.8987 0.25706 0.34801 0.0
H1090 H 0.9833 0.18737 0.32538 0.0
H1091 H -0.00617 0.21238 0.27629 0.0
H1092 H 0.95475 0.16977 0.27877 0.0
H1093 H 0.96003 0.26474 0.42819 0.0
H1094 H 0.93463 0.28362 0.40789 0.0
H1095 H 0.97954 0.30062 0.3908 0.0
C1096 C 0.7533 0.05324 0.58219 0.0
C1097 C 0.74066 0.07571 0.56982 0.0
C1098 C 0.74373 0.02206 0.55904 0.0
C1099 C 0.72132 0.01349 0.52259 0.0
C1100 C 0.71156 0.03792 0.50753 0.0
C1101 C 0.72119 0.06863 0.53147 0.0
C1102 C 0.75504 -0.00303 0.5759 0.0
C1103 C 0.68836 0.03026 0.46819 0.0
C1104 C 0.69685 0.93825 0.44373 0.0
C1105 C 0.66212 0.91474 0.45664 0.0
C1106 C 0.71783 0.96962 0.46684 0.0
C1107 C 0.70376 0.97732 0.5038 0.0
C1108 C 0.67011 0.95187 0.5194 0.0
C1109 C 0.64963 0.92099 0.49548 0.0
C1110 C 0.75369 -0.00418 0.44939 0.0
C1111 C 0.65436 0.95858 0.55927 0.0
H1112 H 0.76827 0.05846 0.6119 0.0
H1113 H 0.71168 0.08612 0.52153 0.0
H1114 H 0.73287 0.97538 0.5939 0.0
H1115 H 0.76202 0.98485 0.54894 0.0
H1116 H 0.77791 0.01033 0.5982 0.0
H1117 H 0.68674 0.05365 0.45776 0.0
H1118 H 0.69836 0.02139 0.44077 0.0
H1119 H 0.66134 0.00865 0.4757 0.0
H1120 H 0.70663 0.93367 0.41361 0.0
H1121 H 0.62292 0.90271 0.50579 0.0
H1122 H 0.77299 0.00855 0.47601 0.0
H1123 H 0.75187 0.01686 0.4317 0.0
H1124 H 0.76375 0.98323 0.42667 0.0
H1125 H 0.67362 0.96817 0.58629 0.0
H1126 H 0.63004 0.93456 0.57006 0.0
H1127 H 0.64768 0.97937 0.55222 0.0
C1128 C 0.77024 0.72274 0.60251 0.0
C1129 C 0.76123 0.68907 0.61775 0.0
C1130 C 0.75935 0.74374 0.62465 0.0
C1131 C 0.73871 0.73057 0.66257 0.0
C1132 C 0.73275 0.6983 0.68042 0.0
C1133 C 0.74437 0.67815 0.65803 0.0
C1134 C 0.76747 0.7786 0.60539 0.0
C1135 C 0.71115 0.68332 0.72106 0.0
C1136 C 0.70864 0.77814 0.73898 0.0
C1137 C 0.67339 0.76413 0.72593 0.0
C1138 C 0.73156 0.77008 0.71629 0.0
C1139 C 0.7188 0.74719 0.68012 0.0
C1140 C 0.68444 0.73595 0.66431 0.0
C1141 C 0.66232 0.74484 0.68714 0.0
C1142 C 0.76845 0.78381 0.73318 0.0
C1143 C 0.66979 0.7118 0.62551 0.0
H1144 H 0.7836 0.73176 0.57171 0.0
H1145 H 0.73778 0.6525 0.67059 0.0
H1146 H 0.7445 0.77502 0.58625 0.0
H1147 H 0.77261 0.79836 0.63104 0.0
H1148 H 0.79063 0.78913 0.58347 0.0
H1149 H 0.71137 0.65944 0.73258 0.0
H1150 H 0.72119 0.70321 0.74739 0.0
H1151 H 0.68343 0.67616 0.71467 0.0
H1152 H 0.71777 0.79348 0.76853 0.0
H1153 H 0.6354 0.73433 0.67622 0.0
H1154 H 0.78747 0.79063 0.70619 0.0
H1155 H 0.76929 0.76309 0.75282 0.0
H1156 H 0.77705 0.80742 0.75402 0.0
H1157 H 0.68803 0.72278 0.59763 0.0
H1158 H 0.6436 0.70754 0.61556 0.0
H1159 H 0.66705 0.68583 0.6333 0.0
C1160 C 0.06457 0.73346 0.81919 0.0
C1161 C 0.07077 0.75053 0.77919 0.0
C1162 C 0.03391 0.72436 0.84274 0.0
C1163 C 0.00869 0.73228 0.82563 0.0
C1164 C 0.01653 0.75271 0.78748 0.0
C1165 C 0.04767 0.76173 0.76466 0.0
C1166 C 0.02704 0.70323 0.88379 0.0
C1167 C -0.00934 0.76219 0.76852 0.0
C1168 C 0.91809 0.65842 0.85444 0.0
C1169 C 0.91121 0.67138 0.89247 0.0
C1170 C 0.94833 0.67939 0.82987 0.0
C1171 C 0.97245 0.71409 0.84395 0.0
C1172 C 0.96381 0.72849 0.87978 0.0
C1173 C 0.93312 0.70693 0.90364 0.0
C1174 C 0.95603 0.66318 0.79121 0.0
C1175 C -0.01153 0.76551 0.89537 0.0
H1176 H 0.08262 0.72512 0.83068 0.0
H1177 H 0.05232 0.77484 0.73363 0.0
H1178 H 0.01773 0.71401 0.90986 0.0
H1179 H 0.00601 0.67561 0.87781 0.0
H1180 H 0.05091 0.703 0.89537 0.0
H1181 H 0.00375 0.78472 0.74577 0.0
H1182 H 0.97006 0.73922 0.75038 0.0
H1183 H 0.97737 0.7689 0.79428 0.0
H1184 H 0.90092 0.6311 0.84535 0.0
H1185 H 0.92793 0.71714 0.93302 0.0
H1186 H 0.97783 0.6582 0.79926 0.0
H1187 H 0.96463 0.68145 0.76326 0.0
H1188 H 0.93273 0.63782 0.78132 0.0
H1189 H 0.01019 0.76587 0.91419 0.0
H1190 H 0.97476 0.77533 0.9166 0.0
H1191 H 0.00042 0.78385 0.86774 0.0
C1192 C 0.3006 0.06151 0.00017 0.0
C1193 C 0.29017 0.06821 0.96003 0.0
C1194 C 0.27817 0.03139 0.02403 0.0
C1195 C 0.24402 0.00781 0.00794 0.0
C1196 C 0.23159 0.01707 0.97077 0.0
C1197 C 0.25498 0.04706 0.94685 0.0
C1198 C 0.29256 0.02298 0.06392 0.0
C1199 C 0.19465 -0.00615 0.95406 0.0
C1200 C 0.2241 0.91542 0.03038 0.0
C1201 C 0.20936 0.90992 0.07195 0.0
C1202 C 0.23251 0.94597 0.00704 0.0
C1203 C 0.22505 0.97124 0.02519 0.0
C1204 C 0.20553 0.96339 0.06412 0.0
C1205 C 0.19821 0.93292 0.0874 0.0
C1206 C 0.25295 0.95291 0.96531 0.0
C1207 C 0.19509 0.98852 0.08324 0.0
H1208 H 0.32741 0.07826 0.01134 0.0
H1209 H 0.24633 0.05232 0.91633 0.0
H1210 H 0.27424 0.01669 0.09153 0.0
H1211 H 0.2952 -0.00054 0.05764 0.0
H1212 H 0.31877 0.04512 0.07359 0.0
H1213 H 0.18552 0.0094 0.93533 0.0
H1214 H 0.19417 0.97356 0.93211 0.0
H1215 H 0.17588 0.98016 0.98088 0.0
H1216 H 0.23193 0.89734 0.0175 0.0
H1217 H 0.1861 0.92863 0.11907 0.0
H1218 H 0.28026 0.97503 0.97011 0.0
H1219 H 0.24078 0.96071 0.93939 0.0
H1220 H 0.25432 0.92953 0.95404 0.0
H1221 H 0.21668 0.00791 0.10418 0.0
H1222 H 0.17112 0.97428 0.10361 0.0
H1223 H 0.19009 0.00321 0.05764 0.0
C1224 C 0.20869 0.41473 0.34427 0.0
C1225 C 0.22112 0.43926 0.37807 0.0
C1226 C 0.22259 0.42432 0.30258 0.0
C1227 C 0.24892 0.45965 0.29433 0.0
C1228 C 0.26252 0.48428 0.3288 0.0
C1229 C 0.24857 0.47365 0.37063 0.0
C1230 C 0.20802 0.39692 0.26701 0.0
C1231 C 0.29031 0.52218 0.32113 0.0
C1232 C 0.29119 0.46589 0.18623 0.0
C1233 C 0.26793 0.46979 0.15852 0.0
C1234 C 0.28755 0.4659 0.23127 0.0
C1235 C 0.26038 0.47044 0.24898 0.0
C1236 C 0.23974 0.47876 0.22146 0.0
C1237 C 0.24367 0.47822 0.17643 0.0
C1238 C 0.31023 0.45707 0.25939 0.0
C1239 C 0.21101 0.48462 0.23927 0.0
H1240 H 0.18737 0.38816 0.35035 0.0
H1241 H 0.25769 0.49263 0.3969 0.0
H1242 H 0.19396 0.40408 0.24284 0.0
H1243 H 0.22977 0.39593 0.24993 0.0
H1244 H 0.1894 0.37018 0.27953 0.0
H1245 H 0.3015 0.53663 0.35192 0.0
H1246 H 0.31202 0.52382 0.30096 0.0
H1247 H 0.27849 0.53562 0.30317 0.0
H1248 H 0.31056 0.46005 0.17285 0.0
H1249 H 0.22592 0.48182 0.15543 0.0
H1250 H 0.29499 0.42883 0.26852 0.0
H1251 H 0.31793 0.47278 0.28969 0.0
H1252 H 0.33445 0.46168 0.24225 0.0
H1253 H 0.1882 0.45893 0.24895 0.0
H1254 H 0.20181 0.4969 0.215 0.0
H1255 H 0.22027 0.50164 0.26849 0.0
C1256 C 0.68703 0.19003 0.51719 0.0
C1257 C 0.71653 0.20834 0.54409 0.0
C1258 C 0.68974 0.19559 0.47232 0.0
C1259 C 0.72294 0.21915 0.4541 0.0
C1260 C 0.75213 0.23964 0.48148 0.0
C1261 C 0.74841 0.23432 0.52628 0.0
C1262 C 0.65773 0.17431 0.44428 0.0
C1263 C 0.78816 0.26475 0.46332 0.0
C1264 C 0.75012 0.19839 0.34705 0.0
C1265 C 0.75232 0.22545 0.32112 0.0
C1266 C 0.73862 0.19483 0.38998 0.0
C1267 C 0.72876 0.21878 0.40686 0.0
C1268 C 0.72856 0.24459 0.37959 0.0
C1269 C 0.74097 0.248 0.33698 0.0
C1270 C 0.73954 0.16713 0.41808 0.0
C1271 C 0.71727 0.26985 0.39606 0.0
H1272 H 0.66223 0.17016 0.53097 0.0
H1273 H 0.77133 0.24841 0.54692 0.0
H1274 H 0.65645 0.19072 0.41783 0.0
H1275 H 0.65941 0.15223 0.42913 0.0
H1276 H 0.63296 0.16307 0.46335 0.0
H1277 H 0.80729 0.28081 0.48897 0.0
H1278 H 0.79848 0.24954 0.44609 0.0
H1279 H 0.78657 0.28277 0.4395 0.0
H1280 H 0.75941 0.18136 0.3345 0.0
H1281 H 0.74308 0.2691 0.31663 0.0
H1282 H 0.71378 0.15089 0.43428 0.0
H1283 H 0.7597 0.18012 0.44381 0.0
H1284 H 0.7459 0.14939 0.3993 0.0
H1285 H 0.69307 0.25582 0.416 0.0
H1286 H 0.71227 0.28355 0.36915 0.0
H1287 H 0.73828 0.29003 0.41695 0.0
C1288 C 0.54313 0.79256 0.68219 0.0
C1289 C 0.51947 0.76295 0.7058 0.0
C1290 C 0.53615 0.79648 0.63896 0.0
C1291 C 0.50433 0.77046 0.61958 0.0
C1292 C 0.47903 0.74206 0.64469 0.0
C1293 C 0.48728 0.7382 0.68746 0.0
C1294 C 0.56415 0.82683 0.61313 0.0
C1295 C 0.44427 0.71463 0.62567 0.0
C1296 C 0.49151 0.79767 0.50801 0.0
C1297 C 0.5058 0.78168 0.48201 0.0
C1298 C 0.48785 0.79178 0.55282 0.0
C1299 C 0.50014 0.77063 0.57196 0.0
C1300 C 0.51263 0.7528 0.54543 0.0
C1301 C 0.5147 0.75808 0.50062 0.0
C1302 C 0.47293 0.80993 0.57986 0.0
C1303 C 0.52671 0.73058 0.56457 0.0
H1304 H 0.5682 0.81133 0.69662 0.0
H1305 H 0.46917 0.71523 0.70604 0.0
H1306 H 0.57473 0.81655 0.58793 0.0
H1307 H 0.55276 0.84115 0.59632 0.0
H1308 H 0.58638 0.84585 0.63372 0.0
H1309 H 0.42504 0.69873 0.65123 0.0
H1310 H 0.43276 0.72718 0.60535 0.0
H1311 H 0.44846 0.69653 0.60461 0.0
H1312 H 0.48443 0.81578 0.49353 0.0
H1313 H 0.52609 0.74598 0.48061 0.0
H1314 H 0.49472 0.83326 0.59608 0.0
H1315 H 0.45533 0.79208 0.60548 0.0
H1316 H 0.45795 0.81899 0.55983 0.0
H1317 H 0.55055 0.74753 0.58416 0.0
H1318 H 0.53382 0.71713 0.53933 0.0
H1319 H 0.50697 0.71033 0.58648 0.0
C1320 C 0.7561 0.5207 0.84634 0.0
C1321 C 0.78244 0.51581 0.86503 0.0
C1322 C 0.75219 0.52014 0.80131 0.0
C1323 C 0.77461 0.51367 0.77458 0.0
C1324 C 0.79863 0.50496 0.79346 0.0
C1325 C 0.80257 0.50653 0.83858 0.0
C1326 C 0.72639 0.52982 0.78242 0.0
C1327 C 0.82212 0.49674 0.76603 0.0
C1328 C 0.74969 0.50474 0.65608 0.0
C1329 C 0.77104 0.53946 0.64213 0.0
C1330 C 0.75234 0.49506 0.69856 0.0
C1331 C 0.77623 0.52109 0.72758 0.0
C1332 C 0.7992 0.55579 0.71262 0.0
C1333 C 0.79634 0.56453 0.66984 0.0
C1334 C 0.72808 0.45766 0.71305 0.0
C1335 C 0.82499 0.58437 0.7426 0.0
H1336 H 0.74056 0.52801 0.8666 0.0
H1337 H 0.82273 0.50235 0.85299 0.0
H1338 H 0.7411 0.55608 0.76681 0.0
H1339 H 0.70998 0.51061 0.75712 0.0
H1340 H 0.70871 0.53088 0.80742 0.0
H1341 H 0.83381 0.48368 0.78513 0.0
H1342 H 0.80727 0.47951 0.73835 0.0
H1343 H 0.84391 0.52157 0.7526 0.0
H1344 H 0.72988 0.48561 0.63438 0.0
H1345 H 0.8124 0.59147 0.65877 0.0
H1346 H 0.70665 0.45666 0.7332 0.0
H1347 H 0.74249 0.44809 0.73322 0.0
H1348 H 0.71593 0.43949 0.68514 0.0
H1349 H 0.81033 0.58994 0.76775 0.0
H1350 H 0.84251 0.60926 0.72514 0.0
H1351 H 0.84159 0.57561 0.75946 0.0
C1352 C 0.21915 0.72645 0.83684 0.0
C1353 C 0.18514 0.70861 0.81916 0.0
C1354 C 0.22415 0.73053 0.88181 0.0
C1355 C 0.19444 0.71708 0.90945 0.0
C1356 C 0.16028 0.69612 0.89205 0.0
C1357 C 0.15607 0.69182 0.84713 0.0
C1358 C 0.2611 0.75219 0.89933 0.0
C1359 C 0.12782 0.68162 0.9202 0.0
C1360 C 0.20703 0.72762 0.03166 0.0
C1361 C 0.20925 0.76034 0.03767 0.0
C1362 C 0.20212 0.71284 0.98999 0.0
C1363 C 0.19856 0.73099 0.9542 0.0
C1364 C 0.19933 0.76336 0.96073 0.0
C1365 C 0.20512 0.7778 0.00229 0.0
C1366 C 0.20201 0.67862 0.98403 0.0
C1367 C 0.19464 0.78315 0.9237 0.0
H1368 H 0.2418 0.739 0.81556 0.0
H1369 H 0.12961 0.67767 0.83396 0.0
H1370 H 0.26624 0.77903 0.9074 0.0
H1371 H 0.26434 0.74035 0.92944 0.0
H1372 H 0.28114 0.75466 0.87541 0.0
H1373 H 0.10421 0.66051 0.90347 0.0
H1374 H 0.13168 0.67099 0.95094 0.0
H1375 H 0.12255 0.70321 0.92852 0.0
H1376 H 0.21057 0.71438 0.05916 0.0
H1377 H 0.2066 0.80302 0.00719 0.0
H1378 H 0.22567 0.68352 0.96539 0.0
H1379 H 0.17863 0.65964 0.96508 0.0
H1380 H 0.20208 0.66636 0.01543 0.0
H1381 H 0.21656 0.79148 0.90027 0.0
H1382 H 0.19404 0.80697 0.9348 0.0
H1383 H 0.16975 0.76577 0.90617 0.0
C1384 C 0.46914 0.25006 0.9982 0.0
C1385 C 0.43658 0.21944 0.99185 0.0
C1386 C 0.47967 0.26457 0.03987 0.0
C1387 C 0.45663 0.24835 0.07528 0.0
C1388 C 0.42304 0.21832 0.06833 0.0
C1389 C 0.41367 0.20397 0.02678 0.0
C1390 C 0.51586 0.2962 0.04626 0.0
C1391 C 0.3972 0.20077 0.10496 0.0
C1392 C 0.47934 0.24999 0.1931 0.0
C1393 C 0.46659 0.27113 0.2102 0.0
C1394 C 0.48001 0.24537 0.14821 0.0
C1395 C 0.4671 0.26181 0.12007 0.0
C1396 C 0.45776 0.28601 0.13688 0.0
C1397 C 0.458 0.29069 0.18172 0.0
C1398 C 0.49123 0.22017 0.13128 0.0
C1399 C 0.44357 0.3039 0.10814 0.0
H1400 H 0.48694 0.26162 0.97104 0.0
H1401 H 0.38845 0.18028 0.02156 0.0
H1402 H 0.51431 0.31681 0.06543 0.0
H1403 H 0.53242 0.28827 0.06484 0.0
H1404 H 0.52913 0.30776 0.01502 0.0
H1405 H 0.37145 0.17891 0.0935 0.0
H1406 H 0.40824 0.18997 0.12877 0.0
H1407 H 0.39255 0.22032 0.12216 0.0
H1408 H 0.48664 0.23525 0.21471 0.0
H1409 H 0.44862 0.30759 0.19439 0.0
H1410 H 0.5071 0.23055 0.10135 0.0
H1411 H 0.4675 0.19466 0.12307 0.0
H1412 H 0.50685 0.21513 0.1556 0.0
H1413 H 0.45878 0.31311 0.07761 0.0
H1414 H 0.44406 0.32672 0.12455 0.0
H1415 H 0.41585 0.28471 0.09945 0.0
loop_
_geom_bond_atom_site_label_1
_geom_bond_atom_site_label_2
_geom_bond_distance
_geom_bond_site_symmetry_2
_ccdc_geom_bond_type
Sc0 O3 2.025 . S
Sc0 O10 2.105 1_554 S
Sc0 O13 2.105 . S
Sc0 O16 2.105 . S
Sc0 O19 2.105 1_554 S
Sc1 O3 2.025 1_556 S
Sc1 O11 2.105 . S
Sc1 O15 2.105 1_556 S
Sc1 O17 2.105 1_556 S
Sc1 O21 2.105 . S
Sc2 O3 2.025 . S
Sc2 O12 2.105 1_554 S
Sc2 O14 2.105 . S
Sc2 O18 2.105 . S
Sc2 O20 2.105 . S
O3 Sc0 2.025 . S
O3 Sc1 2.025 1_554 S
O3 Sc2 2.025 . S
C4 O10 1.268 . S
C4 O20 1.268 1_556 S
C5 O11 1.268 . S
C5 O19 1.268 . S
C6 O12 1.268 . S
C6 O21 1.268 . S
C7 O13 1.268 . S
C7 O17 1.268 . S
C8 O14 1.268 . S
C8 O16 1.268 . S
C9 O15 1.268 . S
C9 O18 1.268 . S
O10 Sc0 2.105 1_556 S
O10 C4 1.268 . S
O11 Sc1 2.105 . S
O11 C5 1.268 . S
O12 Sc2 2.105 1_556 S
O12 C6 1.268 . S
O13 Sc0 2.105 . S
O13 C7 1.268 . S
O14 Sc2 2.105 . S
O14 C8 1.268 . S
O15 Sc1 2.105 1_554 S
O15 C9 1.268 . S
O16 Sc0 2.105 . S
O16 C8 1.268 . S
O17 Sc1 2.105 1_554 S
O17 C7 1.268 . S
O18 Sc2 2.105 . S
O18 C9 1.268 . S
O19 Sc0 2.105 1_556 S
O19 C5 1.268 . S
O20 Sc2 2.105 . S
O20 C4 1.268 1_554 S
O21 Sc1 2.105 . S
O21 C6 1.268 . S
Sc22 O25 2.025 . S
Sc22 O32 2.105 . S
Sc22 O35 2.105 . S
Sc22 O38 2.105 . S
Sc22 O41 2.105 . S
Sc23 O25 2.025 . S
Sc23 O33 2.105 . S
Sc23 O37 2.105 . S
Sc23 O39 2.105 . S
Sc23 O43 2.105 . S
Sc24 O25 2.025 . S
Sc24 O34 2.105 . S
Sc24 O36 2.105 . S
Sc24 O40 2.105 . S
Sc24 O42 2.105 . S
O25 Sc22 2.025 . S
O25 Sc23 2.025 . S
O25 Sc24 2.025 . S
C26 O32 1.268 . S
C26 O42 1.268 . S
C27 O33 1.268 . S
C27 O41 1.268 . S
C28 O34 1.268 . S
C28 O43 1.268 . S
C29 O35 1.268 . S
C29 O39 1.268 . S
C30 O36 1.268 . S
C30 O38 1.268 . S
C31 O37 1.268 . S
C31 O40 1.268 . S
O32 Sc22 2.105 . S
O32 C26 1.268 . S
O33 Sc23 2.105 . S
O33 C27 1.268 . S
O34 Sc24 2.105 . S
O34 C28 1.268 . S
O35 Sc22 2.105 . S
O35 C29 1.268 . S
O36 Sc24 2.105 . S
O36 C30 1.268 . S
O37 Sc23 2.105 . S
O37 C31 1.268 . S
O38 Sc22 2.105 . S
O38 C30 1.268 . S
O39 Sc23 2.105 . S
O39 C29 1.268 . S
O40 Sc24 2.105 . S
O40 C31 1.268 . S
O41 Sc22 2.105 . S
O41 C27 1.268 . S
O42 Sc24 2.105 . S
O42 C26 1.268 . S
O43 Sc23 2.105 . S
O43 C28 1.268 . S
Sc44 O47 2.025 . S
Sc44 O54 2.105 . S
Sc44 O57 2.105 . S
Sc44 O60 2.105 . S
Sc44 O63 2.105 . S
Sc45 O47 2.025 . S
Sc45 O55 2.105 . S
Sc45 O59 2.105 . S
Sc45 O61 2.105 . S
Sc45 O65 2.105 . S
Sc46 O47 2.025 . S
Sc46 O56 2.105 . S
Sc46 O58 2.105 . S
Sc46 O62 2.105 . S
Sc46 O64 2.105 . S
O47 Sc44 2.025 . S
O47 Sc45 2.025 . S
O47 Sc46 2.025 . S
C48 O54 1.268 . S
C48 O64 1.268 . S
C49 O55 1.268 . S
C49 O63 1.268 . S
C50 O56 1.268 . S
C50 O65 1.268 . S
C51 O57 1.268 . S
C51 O61 1.268 . S
C52 O58 1.268 . S
C52 O60 1.268 . S
C53 O59 1.268 . S
C53 O62 1.268 . S
O54 Sc44 2.105 . S
O54 C48 1.268 . S
O55 Sc45 2.105 . S
O55 C49 1.268 . S
O56 Sc46 2.105 . S
O56 C50 1.268 . S
O57 Sc44 2.105 . S
O57 C51 1.268 . S
O58 Sc46 2.105 . S
O58 C52 1.268 . S
O59 Sc45 2.105 . S
O59 C53 1.268 . S
O60 Sc44 2.105 . S
O60 C52 1.268 . S
O61 Sc45 2.105 . S
O61 C51 1.268 . S
O62 Sc46 2.105 . S
O62 C53 1.268 . S
O63 Sc44 2.105 . S
O63 C49 1.268 . S
O64 Sc46 2.105 . S
O64 C48 1.268 . S
O65 Sc45 2.105 . S
O65 C50 1.268 . S
Sc66 O69 2.025 . S
Sc66 O76 2.105 . S
Sc66 O79 2.105 . S
Sc66 O82 2.105 . S
Sc66 O85 2.105 . S
Sc67 O69 2.025 . S
Sc67 O77 2.105 . S
Sc67 O81 2.105 . S
Sc67 O83 2.105 . S
Sc67 O87 2.105 . S
Sc68 O69 2.025 . S
Sc68 O78 2.105 . S
Sc68 O80 2.105 . S
Sc68 O84 2.105 . S
Sc68 O86 2.105 . S
O69 Sc66 2.025 . S
O69 Sc67 2.025 . S
O69 Sc68 2.025 . S
C70 O76 1.268 . S
C70 O86 1.268 . S
C71 O77 1.268 . S
C71 O85 1.268 . S
C72 O78 1.268 . S
C72 O87 1.268 . S
C73 O79 1.268 . S
C73 O83 1.268 . S
C74 O80 1.268 . S
C74 O82 1.268 . S
C75 O81 1.268 . S
C75 O84 1.268 . S
O76 Sc66 2.105 . S
O76 C70 1.268 . S
O77 Sc67 2.105 . S
O77 C71 1.268 . S
O78 Sc68 2.105 . S
O78 C72 1.268 . S
O79 Sc66 2.105 . S
O79 C73 1.268 . S
O80 Sc68 2.105 . S
O80 C74 1.268 . S
O81 Sc67 2.105 . S
O81 C75 1.268 . S
O82 Sc66 2.105 . S
O82 C74 1.268 . S
O83 Sc67 2.105 . S
O83 C73 1.268 . S
O84 Sc68 2.105 . S
O84 C75 1.268 . S
O85 Sc66 2.105 . S
O85 C71 1.268 . S
O86 Sc68 2.105 . S
O86 C70 1.268 . S
O87 Sc67 2.105 . S
O87 C72 1.268 . S
Sc88 O91 2.025 . S
Sc88 O98 2.105 . S
Sc88 O101 2.105 . S
Sc88 O104 2.105 . S
Sc88 O107 2.105 . S
Sc89 O91 2.025 . S
Sc89 O99 2.105 . S
Sc89 O103 2.105 . S
Sc89 O105 2.105 . S
Sc89 O109 2.105 . S
Sc90 O91 2.025 . S
Sc90 O100 2.105 . S
Sc90 O102 2.105 . S
Sc90 O106 2.105 . S
Sc90 O108 2.105 . S
O91 Sc88 2.025 . S
O91 Sc89 2.025 . S
O91 Sc90 2.025 . S
C92 O98 1.268 . S
C92 O108 1.268 . S
C93 O99 1.268 . S
C93 O107 1.268 . S
C94 O100 1.268 . S
C94 O109 1.268 . S
C95 O101 1.268 . S
C95 O105 1.268 . S
C96 O102 1.268 . S
C96 O104 1.268 . S
C97 O103 1.268 . S
C97 O106 1.268 . S
O98 Sc88 2.105 . S
O98 C92 1.268 . S
O99 Sc89 2.105 . S
O99 C93 1.268 . S
O100 Sc90 2.105 . S
O100 C94 1.268 . S
O101 Sc88 2.105 . S
O101 C95 1.268 . S
O102 Sc90 2.105 . S
O102 C96 1.268 . S
O103 Sc89 2.105 . S
O103 C97 1.268 . S
O104 Sc88 2.105 . S
O104 C96 1.268 . S
O105 Sc89 2.105 . S
O105 C95 1.268 . S
O106 Sc90 2.105 . S
O106 C97 1.268 . S
O107 Sc88 2.105 . S
O107 C93 1.268 . S
O108 Sc90 2.105 . S
O108 C92 1.268 . S
O109 Sc89 2.105 . S
O109 C94 1.268 . S
Sc110 O113 2.025 . S
Sc110 O120 2.105 . S
Sc110 O123 2.105 . S
Sc110 O126 2.105 . S
Sc110 O129 2.105 . S
Sc111 O113 2.025 . S
Sc111 O121 2.105 . S
Sc111 O125 2.105 . S
Sc111 O127 2.105 . S
Sc111 O131 2.105 . S
Sc112 O113 2.025 . S
Sc112 O122 2.105 . S
Sc112 O124 2.105 . S
Sc112 O128 2.105 . S
Sc112 O130 2.105 . S
O113 Sc110 2.025 . S
O113 Sc111 2.025 . S
O113 Sc112 2.025 . S
C114 O120 1.268 . S
C114 O130 1.268 . S
C115 O121 1.268 . S
C115 O129 1.268 . S
C116 O122 1.268 . S
C116 O131 1.268 . S
C117 O123 1.268 . S
C117 O127 1.268 . S
C118 O124 1.268 . S
C118 O126 1.268 . S
C119 O125 1.268 . S
C119 O128 1.268 . S
O120 Sc110 2.105 . S
O120 C114 1.268 . S
O121 Sc111 2.105 . S
O121 C115 1.268 . S
O122 Sc112 2.105 . S
O122 C116 1.268 . S
O123 Sc110 2.105 . S
O123 C117 1.268 . S
O124 Sc112 2.105 . S
O124 C118 1.268 . S
O125 Sc111 2.105 . S
O125 C119 1.268 . S
O126 Sc110 2.105 . S
O126 C118 1.268 . S
O127 Sc111 2.105 . S
O127 C117 1.268 . S
O128 Sc112 2.105 . S
O128 C119 1.268 . S
O129 Sc110 2.105 . S
O129 C115 1.268 . S
O130 Sc112 2.105 . S
O130 C114 1.268 . S
O131 Sc111 2.105 . S
O131 C116 1.268 . S
Sc132 O135 2.025 . S
Sc132 O142 2.105 . S
Sc132 O145 2.105 . S
Sc132 O148 2.105 . S
Sc132 O151 2.105 . S
Sc133 O135 2.025 . S
Sc133 O143 2.105 . S
Sc133 O147 2.105 . S
Sc133 O149 2.105 . S
Sc133 O153 2.105 . S
Sc134 O135 2.025 . S
Sc134 O144 2.105 . S
Sc134 O146 2.105 . S
Sc134 O150 2.105 . S
Sc134 O152 2.105 . S
O135 Sc132 2.025 . S
O135 Sc133 2.025 . S
O135 Sc134 2.025 . S
C136 O142 1.268 . S
C136 O152 1.268 . S
C137 O143 1.268 . S
C137 O151 1.268 . S
C138 O144 1.268 . S
C138 O153 1.268 . S
C139 O145 1.268 . S
C139 O149 1.268 . S
C140 O146 1.268 . S
C140 O148 1.268 . S
C141 O147 1.268 . S
C141 O150 1.268 . S
O142 Sc132 2.105 . S
O142 C136 1.268 . S
O143 Sc133 2.105 . S
O143 C137 1.268 . S
O144 Sc134 2.105 . S
O144 C138 1.268 . S
O145 Sc132 2.105 . S
O145 C139 1.268 . S
O146 Sc134 2.105 . S
O146 C140 1.268 . S
O147 Sc133 2.105 . S
O147 C141 1.268 . S
O148 Sc132 2.105 . S
O148 C140 1.268 . S
O149 Sc133 2.105 . S
O149 C139 1.268 . S
O150 Sc134 2.105 . S
O150 C141 1.268 . S
O151 Sc132 2.105 . S
O151 C137 1.268 . S
O152 Sc134 2.105 . S
O152 C136 1.268 . S
O153 Sc133 2.105 . S
O153 C138 1.268 . S
Sc154 O157 2.025 . S
Sc154 O164 2.105 . S
Sc154 O167 2.105 . S
Sc154 O170 2.105 1_554 S
Sc154 O173 2.105 . S
Sc155 O157 2.025 . S
Sc155 O165 2.105 . S
Sc155 O169 2.105 1_554 S
Sc155 O171 2.105 . S
Sc155 O175 2.105 . S
Sc156 O157 2.025 1_556 S
Sc156 O166 2.105 1_556 S
Sc156 O168 2.105 . S
Sc156 O172 2.105 . S
Sc156 O174 2.105 1_556 S
O157 Sc154 2.025 . S
O157 Sc155 2.025 . S
O157 Sc156 2.025 1_554 S
C158 O164 1.268 . S
C158 O174 1.268 . S
C159 O165 1.268 . S
C159 O173 1.268 . S
C160 O166 1.268 . S
C160 O175 1.268 . S
C161 O167 1.268 1_556 S
C161 O171 1.268 1_556 S
C162 O168 1.268 . S
C162 O170 1.268 . S
C163 O169 1.268 . S
C163 O172 1.268 . S
O164 Sc154 2.105 . S
O164 C158 1.268 . S
O165 Sc155 2.105 . S
O165 C159 1.268 . S
O166 Sc156 2.105 1_554 S
O166 C160 1.268 . S
O167 Sc154 2.105 . S
O167 C161 1.268 1_554 S
O168 Sc156 2.105 . S
O168 C162 1.268 . S
O169 Sc155 2.105 1_556 S
O169 C163 1.268 . S
O170 Sc154 2.105 1_556 S
O170 C162 1.268 . S
O171 Sc155 2.105 . S
O171 C161 1.268 1_554 S
O172 Sc156 2.105 . S
O172 C163 1.268 . S
O173 Sc154 2.105 . S
O173 C159 1.268 . S
O174 Sc156 2.105 1_554 S
O174 C158 1.268 . S
O175 Sc155 2.105 . S
O175 C160 1.268 . S
Sc176 O179 2.025 . S
Sc176 O186 2.105 . S
Sc176 O189 2.105 . S
Sc176 O192 2.105 . S
Sc176 O195 2.105 . S
Sc177 O179 2.025 . S
Sc177 O187 2.105 . S
Sc177 O191 2.105 . S
Sc177 O193 2.105 . S
Sc177 O197 2.105 . S
Sc178 O179 2.025 . S
Sc178 O188 2.105 . S
Sc178 O190 2.105 . S
Sc178 O194 2.105 . S
Sc178 O196 2.105 . S
O179 Sc176 2.025 . S
O179 Sc177 2.025 . S
O179 Sc178 2.025 . S
C180 O186 1.268 . S
C180 O196 1.268 . S
C181 O187 1.268 . S
C181 O195 1.268 . S
C182 O188 1.268 . S
C182 O197 1.268 . S
C183 O189 1.268 . S
C183 O193 1.268 . S
C184 O190 1.268 . S
C184 O192 1.268 . S
C185 O191 1.268 . S
C185 O194 1.268 . S
O186 Sc176 2.105 . S
O186 C180 1.268 . S
O187 Sc177 2.105 . S
O187 C181 1.268 . S
O188 Sc178 2.105 . S
O188 C182 1.268 . S
O189 Sc176 2.105 . S
O189 C183 1.268 . S
O190 Sc178 2.105 . S
O190 C184 1.268 . S
O191 Sc177 2.105 . S
O191 C185 1.268 . S
O192 Sc176 2.105 . S
O192 C184 1.268 . S
O193 Sc177 2.105 . S
O193 C183 1.268 . S
O194 Sc178 2.105 . S
O194 C185 1.268 . S
O195 Sc176 2.105 . S
O195 C181 1.268 . S
O196 Sc178 2.105 . S
O196 C180 1.268 . S
O197 Sc177 2.105 . S
O197 C182 1.268 . S
Sc198 O201 2.025 . S
Sc198 O208 2.105 . S
Sc198 O211 2.105 . S
Sc198 O214 2.105 . S
Sc198 O217 2.105 . S
Sc199 O201 2.025 . S
Sc199 O209 2.105 . S
Sc199 O213 2.105 . S
Sc199 O215 2.105 . S
Sc199 O219 2.105 . S
Sc200 O201 2.025 . S
Sc200 O210 2.105 . S
Sc200 O212 2.105 . S
Sc200 O216 2.105 . S
Sc200 O218 2.105 . S
O201 Sc198 2.025 . S
O201 Sc199 2.025 . S
O201 Sc200 2.025 . S
C202 O208 1.268 . S
C202 O218 1.268 . S
C203 O209 1.268 . S
C203 O217 1.268 . S
C204 O210 1.268 . S
C204 O219 1.268 . S
C205 O211 1.268 . S
C205 O215 1.268 . S
C206 O212 1.268 . S
C206 O214 1.268 . S
C207 O213 1.268 . S
C207 O216 1.268 . S
O208 Sc198 2.105 . S
O208 C202 1.268 . S
O209 Sc199 2.105 . S
O209 C203 1.268 . S
O210 Sc200 2.105 . S
O210 C204 1.268 . S
O211 Sc198 2.105 . S
O211 C205 1.268 . S
O212 Sc200 2.105 . S
O212 C206 1.268 . S
O213 Sc199 2.105 . S
O213 C207 1.268 . S
O214 Sc198 2.105 . S
O214 C206 1.268 . S
O215 Sc199 2.105 . S
O215 C205 1.268 . S
O216 Sc200 2.105 . S
O216 C207 1.268 . S
O217 Sc198 2.105 . S
O217 C203 1.268 . S
O218 Sc200 2.105 . S
O218 C202 1.268 . S
O219 Sc199 2.105 . S
O219 C204 1.268 . S
Sc220 O223 2.025 . S
Sc220 O230 2.105 . S
Sc220 O233 2.105 . S
Sc220 O236 2.105 . S
Sc220 O239 2.105 . S
Sc221 O223 2.025 . S
Sc221 O231 2.105 . S
Sc221 O235 2.105 . S
Sc221 O237 2.105 . S
Sc221 O241 2.105 . S
Sc222 O223 2.025 . S
Sc222 O232 2.105 . S
Sc222 O234 2.105 . S
Sc222 O238 2.105 . S
Sc222 O240 2.105 . S
O223 Sc220 2.025 . S
O223 Sc221 2.025 . S
O223 Sc222 2.025 . S
C224 O230 1.268 . S
C224 O240 1.268 . S
C225 O231 1.268 . S
C225 O239 1.268 . S
C226 O232 1.268 . S
C226 O241 1.268 . S
C227 O233 1.268 . S
C227 O237 1.268 . S
C228 O234 1.268 . S
C228 O236 1.268 . S
C229 O235 1.268 . S
C229 O238 1.268 . S
O230 Sc220 2.105 . S
O230 C224 1.268 . S
O231 Sc221 2.105 . S
O231 C225 1.268 . S
O232 Sc222 2.105 . S
O232 C226 1.268 . S
O233 Sc220 2.105 . S
O233 C227 1.268 . S
O234 Sc222 2.105 . S
O234 C228 1.268 . S
O235 Sc221 2.105 . S
O235 C229 1.268 . S
O236 Sc220 2.105 . S
O236 C228 1.268 . S
O237 Sc221 2.105 . S
O237 C227 1.268 . S
O238 Sc222 2.105 . S
O238 C229 1.268 . S
O239 Sc220 2.105 . S
O239 C225 1.268 . S
O240 Sc222 2.105 . S
O240 C224 1.268 . S
O241 Sc221 2.105 . S
O241 C226 1.268 . S
Sc242 O245 2.025 . S
Sc242 O252 2.105 . S
Sc242 O255 2.105 . S
Sc242 O258 2.105 . S
Sc242 O261 2.105 . S
Sc243 O245 2.025 . S
Sc243 O253 2.105 . S
Sc243 O257 2.105 . S
Sc243 O259 2.105 . S
Sc243 O263 2.105 . S
Sc244 O245 2.025 . S
Sc244 O254 2.105 . S
Sc244 O256 2.105 . S
Sc244 O260 2.105 . S
Sc244 O262 2.105 . S
O245 Sc242 2.025 . S
O245 Sc243 2.025 . S
O245 Sc244 2.025 . S
C246 O252 1.268 . S
C246 O262 1.268 . S
C247 O253 1.268 . S
C247 O261 1.268 . S
C248 O254 1.268 . S
C248 O263 1.268 . S
C249 O255 1.268 . S
C249 O259 1.268 . S
C250 O256 1.268 . S
C250 O258 1.268 . S
C251 O257 1.268 . S
C251 O260 1.268 . S
O252 Sc242 2.105 . S
O252 C246 1.268 . S
O253 Sc243 2.105 . S
O253 C247 1.268 . S
O254 Sc244 2.105 . S
O254 C248 1.268 . S
O255 Sc242 2.105 . S
O255 C249 1.268 . S
O256 Sc244 2.105 . S
O256 C250 1.268 . S
O257 Sc243 2.105 . S
O257 C251 1.268 . S
O258 Sc242 2.105 . S
O258 C250 1.268 . S
O259 Sc243 2.105 . S
O259 C249 1.268 . S
O260 Sc244 2.105 . S
O260 C251 1.268 . S
O261 Sc242 2.105 . S
O261 C247 1.268 . S
O262 Sc244 2.105 . S
O262 C246 1.268 . S
O263 Sc243 2.105 . S
O263 C248 1.268 . S
C264 C265 1.391 . S
C264 C266 1.394 . S
C264 H280 0.931 . S
C265 C264 1.391 . S
C265 C269 1.376 . S
C266 C264 1.394 . S
C266 C267 1.369 . S
C266 C270 1.531 . S
C267 C266 1.369 . S
C267 C268 1.410 . S
C267 C275 1.503 . S
C268 C267 1.410 . S
C268 C269 1.392 . S
C268 C271 1.511 . S
C269 C265 1.376 . S
C269 C268 1.392 . S
C269 H281 0.929 . S
C270 C266 1.531 . S
C270 H282 0.960 . S
C270 H283 0.962 . S
C270 H284 0.960 . S
C271 C268 1.511 . S
C271 H285 0.961 . S
C271 H286 0.961 . S
C271 H287 0.961 . S
C272 C273 1.370 . S
C272 C274 1.363 . S
C272 H288 0.931 . S
C273 C272 1.370 . S
C273 C277 1.408 . S
C274 C272 1.363 . S
C274 C275 1.370 . S
C274 C278 1.524 . S
C275 C267 1.503 . S
C275 C274 1.370 . S
C275 C276 1.403 . S
C276 C275 1.403 . S
C276 C277 1.404 . S
C276 C279 1.539 . S
C277 C273 1.408 . S
C277 C276 1.404 . S
C277 H289 0.930 . S
C278 C274 1.524 . S
C278 H290 0.956 . S
C278 H291 0.961 . S
C278 H292 0.961 . S
C279 C276 1.539 . S
C279 H293 0.958 . S
C279 H294 0.961 . S
C279 H295 0.960 . S
H280 C264 0.931 . S
H281 C269 0.929 . S
H282 C270 0.960 . S
H283 C270 0.962 . S
H284 C270 0.960 . S
H285 C271 0.961 . S
H286 C271 0.961 . S
H287 C271 0.961 . S
H288 C272 0.931 . S
H289 C277 0.930 . S
H290 C278 0.956 . S
H291 C278 0.961 . S
H292 C278 0.961 . S
H293 C279 0.958 . S
H294 C279 0.961 . S
H295 C279 0.960 . S
C296 C297 1.391 . S
C296 C298 1.394 1_554 S
C296 H312 0.931 . S
C297 C296 1.391 . S
C297 C301 1.376 . S
C298 C296 1.394 1_556 S
C298 C299 1.369 . S
C298 C302 1.531 . S
C299 C298 1.369 . S
C299 C300 1.410 . S
C299 C307 1.503 . S
C300 C299 1.410 . S
C300 C301 1.392 1_556 S
C300 C303 1.511 . S
C301 C297 1.376 . S
C301 C300 1.392 1_554 S
C301 H313 0.929 . S
C302 C298 1.531 . S
C302 H314 0.960 . S
C302 H315 0.962 . S
C302 H316 0.960 . S
C303 C300 1.511 . S
C303 H317 0.961 . S
C303 H318 0.961 . S
C303 H319 0.961 . S
C304 C305 1.370 . S
C304 C306 1.363 . S
C304 H320 0.931 . S
C305 C304 1.370 . S
C305 C309 1.408 . S
C306 C304 1.363 . S
C306 C307 1.370 . S
C306 C310 1.524 . S
C307 C299 1.503 . S
C307 C306 1.370 . S
C307 C308 1.403 . S
C308 C307 1.403 . S
C308 C309 1.404 . S
C308 C311 1.539 . S
C309 C305 1.408 . S
C309 C308 1.404 . S
C309 H321 0.930 . S
C310 C306 1.524 . S
C310 H322 0.956 . S
C310 H323 0.961 . S
C310 H324 0.961 . S
C311 C308 1.539 . S
C311 H325 0.958 . S
C311 H326 0.961 . S
C311 H327 0.960 . S
H312 C296 0.931 . S
H313 C301 0.929 . S
H314 C302 0.960 . S
H315 C302 0.962 . S
H316 C302 0.960 . S
H317 C303 0.961 . S
H318 C303 0.961 . S
H319 C303 0.961 . S
H320 C304 0.931 . S
H321 C309 0.930 . S
H322 C310 0.956 . S
H323 C310 0.961 . S
H324 C310 0.961 . S
H325 C311 0.958 . S
H326 C311 0.961 . S
H327 C311 0.960 . S
C328 C329 1.391 1_554 S
C328 C330 1.394 . S
C328 H344 0.931 1_554 S
C329 C328 1.391 1_556 S
C329 C333 1.376 1_556 S
C330 C328 1.394 . S
C330 C331 1.369 . S
C330 C334 1.531 . S
C331 C330 1.369 . S
C331 C332 1.410 . S
C331 C339 1.503 . S
C332 C331 1.410 . S
C332 C333 1.392 . S
C332 C335 1.511 . S
C333 C329 1.376 1_554 S
C333 C332 1.392 . S
C333 H345 0.929 1_554 S
C334 C330 1.531 . S
C334 H346 0.960 . S
C334 H347 0.962 . S
C334 H348 0.960 . S
C335 C332 1.511 . S
C335 H349 0.961 . S
C335 H350 0.961 . S
C335 H351 0.961 . S
C336 C337 1.370 . S
C336 C338 1.363 . S
C336 H352 0.931 . S
C337 C336 1.370 . S
C337 C341 1.408 . S
C338 C336 1.363 . S
C338 C339 1.370 . S
C338 C342 1.524 . S
C339 C331 1.503 . S
C339 C338 1.370 . S
C339 C340 1.403 . S
C340 C339 1.403 . S
C340 C341 1.404 . S
C340 C343 1.539 . S
C341 C337 1.408 . S
C341 C340 1.404 . S
C341 H353 0.930 . S
C342 C338 1.524 . S
C342 H354 0.956 . S
C342 H355 0.961 . S
C342 H356 0.961 . S
C343 C340 1.539 . S
C343 H357 0.958 . S
C343 H358 0.961 . S
C343 H359 0.960 . S
H344 C328 0.931 1_556 S
H345 C333 0.929 1_556 S
H346 C334 0.960 . S
H347 C334 0.962 . S
H348 C334 0.960 . S
H349 C335 0.961 . S
H350 C335 0.961 . S
H351 C335 0.961 . S
H352 C336 0.931 . S
H353 C341 0.930 . S
H354 C342 0.956 . S
H355 C342 0.961 . S
H356 C342 0.961 . S
H357 C343 0.958 . S
H358 C343 0.961 . S
H359 C343 0.960 . S
C360 C361 1.391 . S
C360 C362 1.394 . S
C360 H376 0.931 . S
C361 C360 1.391 . S
C361 C365 1.376 . S
C362 C360 1.394 . S
C362 C363 1.369 . S
C362 C366 1.531 . S
C363 C362 1.369 . S
C363 C364 1.410 . S
C363 C371 1.503 . S
C364 C363 1.410 . S
C364 C365 1.392 . S
C364 C367 1.511 . S
C365 C361 1.376 . S
C365 C364 1.392 . S
C365 H377 0.929 . S
C366 C362 1.531 . S
C366 H378 0.960 . S
C366 H379 0.962 . S
C366 H380 0.960 . S
C367 C364 1.511 . S
C367 H381 0.961 . S
C367 H382 0.961 . S
C367 H383 0.961 . S
C368 C369 1.370 . S
C368 C370 1.363 . S
C368 H384 0.931 . S
C369 C368 1.370 . S
C369 C373 1.408 . S
C370 C368 1.363 . S
C370 C371 1.370 . S
C370 C374 1.524 . S
C371 C363 1.503 . S
C371 C370 1.370 . S
C371 C372 1.403 . S
C372 C371 1.403 . S
C372 C373 1.404 . S
C372 C375 1.539 . S
C373 C369 1.408 . S
C373 C372 1.404 . S
C373 H385 0.930 . S
C374 C370 1.524 . S
C374 H386 0.956 . S
C374 H387 0.961 . S
C374 H388 0.961 . S
C375 C372 1.539 . S
C375 H389 0.958 . S
C375 H390 0.961 . S
C375 H391 0.960 . S
H376 C360 0.931 . S
H377 C365 0.929 . S
H378 C366 0.960 . S
H379 C366 0.962 . S
H380 C366 0.960 . S
H381 C367 0.961 . S
H382 C367 0.961 . S
H383 C367 0.961 . S
H384 C368 0.931 . S
H385 C373 0.930 . S
H386 C374 0.956 . S
H387 C374 0.961 . S
H388 C374 0.961 . S
H389 C375 0.958 . S
H390 C375 0.961 . S
H391 C375 0.960 . S
C392 C393 1.391 . S
C392 C394 1.394 . S
C392 H408 0.931 . S
C393 C392 1.391 . S
C393 C397 1.376 . S
C394 C392 1.394 . S
C394 C395 1.369 . S
C394 C398 1.531 . S
C395 C394 1.369 . S
C395 C396 1.410 . S
C395 C403 1.503 . S
C396 C395 1.410 . S
C396 C397 1.392 . S
C396 C399 1.511 . S
C397 C393 1.376 . S
C397 C396 1.392 . S
C397 H409 0.929 . S
C398 C394 1.531 . S
C398 H410 0.960 . S
C398 H411 0.962 . S
C398 H412 0.960 . S
C399 C396 1.511 . S
C399 H413 0.961 . S
C399 H414 0.961 . S
C399 H415 0.961 . S
C400 C401 1.370 . S
C400 C402 1.363 . S
C400 H416 0.931 . S
C401 C400 1.370 . S
C401 C405 1.408 . S
C402 C400 1.363 . S
C402 C403 1.370 . S
C402 C406 1.524 . S
C403 C395 1.503 . S
C403 C402 1.370 . S
C403 C404 1.403 . S
C404 C403 1.403 . S
C404 C405 1.404 . S
C404 C407 1.539 . S
C405 C401 1.408 . S
C405 C404 1.404 . S
C405 H417 0.930 . S
C406 C402 1.524 . S
C406 H418 0.956 . S
C406 H419 0.961 . S
C406 H420 0.961 . S
C407 C404 1.539 . S
C407 H421 0.958 . S
C407 H422 0.961 . S
C407 H423 0.960 . S
H408 C392 0.931 . S
H409 C397 0.929 . S
H410 C398 0.960 . S
H411 C398 0.962 . S
H412 C398 0.960 . S
H413 C399 0.961 . S
H414 C399 0.961 . S
H415 C399 0.961 . S
H416 C400 0.931 . S
H417 C405 0.930 . S
H418 C406 0.956 . S
H419 C406 0.961 . S
H420 C406 0.961 . S
H421 C407 0.958 . S
H422 C407 0.961 . S
H423 C407 0.960 . S
C424 C425 1.391 . S
C424 C426 1.394 . S
C424 H440 0.931 . S
C425 C424 1.391 . S
C425 C429 1.376 . S
C426 C424 1.394 . S
C426 C427 1.369 . S
C426 C430 1.531 . S
C427 C426 1.369 . S
C427 C428 1.410 . S
C427 C435 1.503 . S
C428 C427 1.410 . S
C428 C429 1.392 . S
C428 C431 1.511 . S
C429 C425 1.376 . S
C429 C428 1.392 . S
C429 H441 0.929 . S
C430 C426 1.531 . S
C430 H442 0.960 . S
C430 H443 0.962 . S
C430 H444 0.960 . S
C431 C428 1.511 . S
C431 H445 0.961 . S
C431 H446 0.961 . S
C431 H447 0.961 . S
C432 C433 1.370 . S
C432 C434 1.363 . S
C432 H448 0.931 . S
C433 C432 1.370 . S
C433 C437 1.408 . S
C434 C432 1.363 . S
C434 C435 1.370 . S
C434 C438 1.524 . S
C435 C427 1.503 . S
C435 C434 1.370 . S
C435 C436 1.403 . S
C436 C435 1.403 . S
C436 C437 1.404 . S
C436 C439 1.539 . S
C437 C433 1.408 . S
C437 C436 1.404 . S
C437 H449 0.930 . S
C438 C434 1.524 . S
C438 H450 0.956 . S
C438 H451 0.961 . S
C438 H452 0.961 . S
C439 C436 1.539 . S
C439 H453 0.958 . S
C439 H454 0.961 . S
C439 H455 0.960 . S
H440 C424 0.931 . S
H441 C429 0.929 . S
H442 C430 0.960 . S
H443 C430 0.962 . S
H444 C430 0.960 . S
H445 C431 0.961 . S
H446 C431 0.961 . S
H447 C431 0.961 . S
H448 C432 0.931 . S
H449 C437 0.930 . S
H450 C438 0.956 . S
H451 C438 0.961 . S
H452 C438 0.961 . S
H453 C439 0.958 . S
H454 C439 0.961 . S
H455 C439 0.960 . S
C456 C457 1.391 . S
C456 C458 1.394 . S
C456 H472 0.931 . S
C457 C456 1.391 . S
C457 C461 1.376 . S
C458 C456 1.394 . S
C458 C459 1.369 . S
C458 C462 1.531 . S
C459 C458 1.369 . S
C459 C460 1.410 . S
C459 C467 1.503 . S
C460 C459 1.410 . S
C460 C461 1.392 . S
C460 C463 1.511 . S
C461 C457 1.376 . S
C461 C460 1.392 . S
C461 H473 0.929 . S
C462 C458 1.531 . S
C462 H474 0.960 . S
C462 H475 0.962 . S
C462 H476 0.960 . S
C463 C460 1.511 . S
C463 H477 0.961 . S
C463 H478 0.961 . S
C463 H479 0.961 . S
C464 C465 1.370 . S
C464 C466 1.363 . S
C464 H480 0.931 . S
C465 C464 1.370 . S
C465 C469 1.408 . S
C466 C464 1.363 . S
C466 C467 1.370 . S
C466 C470 1.524 . S
C467 C459 1.503 . S
C467 C466 1.370 . S
C467 C468 1.403 . S
C468 C467 1.403 . S
C468 C469 1.404 . S
C468 C471 1.539 . S
C469 C465 1.408 . S
C469 C468 1.404 . S
C469 H481 0.930 . S
C470 C466 1.524 . S
C470 H482 0.956 . S
C470 H483 0.961 . S
C470 H484 0.961 . S
C471 C468 1.539 . S
C471 H485 0.958 . S
C471 H486 0.961 . S
C471 H487 0.960 . S
H472 C456 0.931 . S
H473 C461 0.929 . S
H474 C462 0.960 . S
H475 C462 0.962 . S
H476 C462 0.960 . S
H477 C463 0.961 . S
H478 C463 0.961 . S
H479 C463 0.961 . S
H480 C464 0.931 . S
H481 C469 0.930 . S
H482 C470 0.956 . S
H483 C470 0.961 . S
H484 C470 0.961 . S
H485 C471 0.958 . S
H486 C471 0.961 . S
H487 C471 0.960 . S
C488 C489 1.391 . S
C488 C490 1.394 1_655 S
C488 H504 0.931 . S
C489 C488 1.391 . S
C489 C493 1.376 . S
C490 C488 1.394 1_455 S
C490 C491 1.369 . S
C490 C494 1.531 . S
C491 C490 1.369 . S
C491 C492 1.410 . S
C491 C499 1.503 . S
C492 C491 1.410 . S
C492 C493 1.392 1_455 S
C492 C495 1.511 . S
C493 C489 1.376 . S
C493 C492 1.392 1_655 S
C493 H505 0.929 . S
C494 C490 1.531 . S
C494 H506 0.960 . S
C494 H507 0.962 . S
C494 H508 0.960 . S
C495 C492 1.511 . S
C495 H509 0.961 1_455 S
C495 H510 0.961 . S
C495 H511 0.961 . S
C496 C497 1.370 . S
C496 C498 1.363 . S
C496 H512 0.931 1_554 S
C497 C496 1.370 . S
C497 C501 1.408 . S
C498 C496 1.363 . S
C498 C499 1.370 . S
C498 C502 1.524 . S
C499 C491 1.503 . S
C499 C498 1.370 . S
C499 C500 1.403 . S
C500 C499 1.403 . S
C500 C501 1.404 . S
C500 C503 1.539 . S
C501 C497 1.408 . S
C501 C500 1.404 . S
C501 H513 0.930 . S
C502 C498 1.524 . S
C502 H514 0.959 . S
C502 H515 0.961 . S
C502 H516 0.961 1_554 S
C503 C500 1.539 . S
C503 H517 0.958 . S
C503 H518 0.961 . S
C503 H519 0.960 . S
H504 C488 0.931 . S
H505 C493 0.929 . S
H506 C494 0.960 . S
H507 C494 0.962 . S
H508 C494 0.960 . S
H509 C495 0.961 1_655 S
H510 C495 0.961 . S
H511 C495 0.961 . S
H512 C496 0.931 1_556 S
H513 C501 0.930 . S
H514 C502 0.959 . S
H515 C502 0.961 . S
H516 C502 0.961 1_556 S
H517 C503 0.958 . S
H518 C503 0.961 . S
H519 C503 0.960 . S
C520 C521 1.391 . S
C520 C522 1.394 . S
C520 H536 0.931 . S
C521 C520 1.391 . S
C521 C525 1.376 . S
C522 C520 1.394 . S
C522 C523 1.369 . S
C522 C526 1.531 . S
C523 C522 1.369 . S
C523 C524 1.410 . S
C523 C531 1.503 . S
C524 C523 1.410 . S
C524 C525 1.392 . S
C524 C527 1.511 . S
C525 C521 1.376 . S
C525 C524 1.392 . S
C525 H537 0.929 . S
C526 C522 1.531 . S
C526 H538 0.960 . S
C526 H539 0.962 . S
C526 H540 0.960 . S
C527 C524 1.511 . S
C527 H541 0.961 . S
C527 H542 0.961 . S
C527 H543 0.961 . S
C528 C529 1.370 . S
C528 C530 1.363 1_565 S
C528 H544 0.931 . S
C529 C528 1.370 . S
C529 C533 1.408 . S
C530 C528 1.363 1_545 S
C530 C531 1.370 . S
C530 C534 1.524 . S
C531 C523 1.503 . S
C531 C530 1.370 . S
C531 C532 1.403 1_545 S
C532 C531 1.403 1_565 S
C532 C533 1.404 . S
C532 C535 1.539 . S
C533 C529 1.408 . S
C533 C532 1.404 . S
C533 H545 0.930 . S
C534 C530 1.524 . S
C534 H546 0.956 . S
C534 H547 0.961 . S
C534 H548 0.961 . S
C535 C532 1.539 . S
C535 H549 0.962 . S
C535 H550 0.961 . S
C535 H551 0.960 1_565 S
H536 C520 0.931 . S
H537 C525 0.929 . S
H538 C526 0.960 . S
H539 C526 0.962 . S
H540 C526 0.960 . S
H541 C527 0.961 . S
H542 C527 0.961 . S
H543 C527 0.961 . S
H544 C528 0.931 . S
H545 C533 0.930 . S
H546 C534 0.956 . S
H547 C534 0.961 . S
H548 C534 0.961 . S
H549 C535 0.962 . S
H550 C535 0.961 . S
H551 C535 0.960 1_545 S
C552 C553 1.391 . S
C552 C554 1.394 . S
C552 H568 0.931 . S
C553 C552 1.391 . S
C553 C557 1.376 . S
C554 C552 1.394 . S
C554 C555 1.369 . S
C554 C558 1.531 . S
C555 C554 1.369 . S
C555 C556 1.410 . S
C555 C563 1.503 . S
C556 C555 1.410 . S
C556 C557 1.392 . S
C556 C559 1.511 . S
C557 C553 1.376 . S
C557 C556 1.392 . S
C557 H569 0.929 . S
C558 C554 1.531 . S
C558 H570 0.960 . S
C558 H571 0.962 . S
C558 H572 0.960 . S
C559 C556 1.511 . S
C559 H573 0.961 . S
C559 H574 0.961 . S
C559 H575 0.961 . S
C560 C561 1.370 . S
C560 C562 1.363 . S
C560 H576 0.931 . S
C561 C560 1.370 . S
C561 C565 1.408 . S
C562 C560 1.363 . S
C562 C563 1.370 . S
C562 C566 1.524 . S
C563 C555 1.503 . S
C563 C562 1.370 . S
C563 C564 1.403 . S
C564 C563 1.403 . S
C564 C565 1.404 . S
C564 C567 1.539 . S
C565 C561 1.408 . S
C565 C564 1.404 . S
C565 H577 0.930 . S
C566 C562 1.524 . S
C566 H578 0.956 . S
C566 H579 0.961 . S
C566 H580 0.961 . S
C567 C564 1.539 . S
C567 H581 0.958 . S
C567 H582 0.961 . S
C567 H583 0.960 . S
H568 C552 0.931 . S
H569 C557 0.929 . S
H570 C558 0.960 . S
H571 C558 0.962 . S
H572 C558 0.960 . S
H573 C559 0.961 . S
H574 C559 0.961 . S
H575 C559 0.961 . S
H576 C560 0.931 . S
H577 C565 0.930 . S
H578 C566 0.956 . S
H579 C566 0.961 . S
H580 C566 0.961 . S
H581 C567 0.958 . S
H582 C567 0.961 . S
H583 C567 0.960 . S
C584 C585 1.391 . S
C584 C586 1.394 . S
C584 H600 0.931 . S
C585 C584 1.391 . S
C585 C589 1.376 . S
C586 C584 1.394 . S
C586 C587 1.369 1_455 S
C586 C590 1.520 1_455 S
C587 C586 1.369 1_655 S
C587 C588 1.410 . S
C587 C595 1.503 . S
C588 C587 1.410 . S
C588 C589 1.392 1_655 S
C588 C591 1.511 . S
C589 C585 1.376 . S
C589 C588 1.392 1_455 S
C589 H601 0.929 . S
C590 C586 1.520 1_655 S
C590 H602 0.972 . S
C590 H603 0.972 . S
C590 H604 0.949 1_655 S
C591 C588 1.511 . S
C591 H605 0.961 . S
C591 H606 0.961 . S
C591 H607 0.961 . S
C592 C593 1.370 . S
C592 C594 1.363 . S
C592 H608 0.931 . S
C593 C592 1.370 . S
C593 C597 1.408 . S
C594 C592 1.363 . S
C594 C595 1.370 . S
C594 C598 1.524 . S
C595 C587 1.503 . S
C595 C594 1.370 . S
C595 C596 1.403 . S
C596 C595 1.403 . S
C596 C597 1.404 . S
C596 C599 1.539 . S
C597 C593 1.408 . S
C597 C596 1.404 . S
C597 H609 0.930 . S
C598 C594 1.524 . S
C598 H610 0.956 . S
C598 H611 0.961 . S
C598 H612 0.961 . S
C599 C596 1.539 . S
C599 H613 0.958 . S
C599 H614 0.961 . S
C599 H615 0.960 . S
H600 C584 0.931 . S
H601 C589 0.929 . S
H602 C590 0.972 . S
H603 C590 0.972 . S
H604 C590 0.949 1_455 S
H605 C591 0.961 . S
H606 C591 0.961 . S
H607 C591 0.961 . S
H608 C592 0.931 . S
H609 C597 0.930 . S
H610 C598 0.956 . S
H611 C598 0.961 . S
H612 C598 0.961 . S
H613 C599 0.958 . S
H614 C599 0.961 . S
H615 C599 0.960 . S
C616 C617 1.391 . S
C616 C618 1.394 1_545 S
C616 H632 0.931 . S
C617 C616 1.391 . S
C617 C621 1.376 . S
C618 C616 1.394 1_565 S
C618 C619 1.369 . S
C618 C622 1.531 . S
C619 C618 1.369 . S
C619 C620 1.410 1_565 S
C619 C627 1.503 . S
C620 C619 1.410 1_545 S
C620 C621 1.392 . S
C620 C623 1.514 1_545 S
C621 C617 1.376 . S
C621 C620 1.392 . S
C621 H633 0.929 . S
C622 C618 1.531 . S
C622 H634 0.960 . S
C622 H635 0.962 . S
C622 H636 0.960 . S
C623 C620 1.514 1_565 S
C623 H637 0.954 1_565 S
C623 H638 0.967 . S
C623 H639 0.958 . S
C624 C625 1.370 . S
C624 C626 1.363 . S
C624 H640 0.931 . S
C625 C624 1.370 . S
C625 C629 1.408 . S
C626 C624 1.363 . S
C626 C627 1.370 . S
C626 C630 1.524 . S
C627 C619 1.503 . S
C627 C626 1.370 . S
C627 C628 1.403 . S
C628 C627 1.403 . S
C628 C629 1.404 . S
C628 C631 1.539 . S
C629 C625 1.408 . S
C629 C628 1.404 . S
C629 H641 0.930 . S
C630 C626 1.524 . S
C630 H642 0.956 . S
C630 H643 0.961 . S
C630 H644 0.961 . S
C631 C628 1.539 . S
C631 H645 0.958 . S
C631 H646 0.961 . S
C631 H647 0.960 . S
H632 C616 0.931 . S
H633 C621 0.929 . S
H634 C622 0.960 . S
H635 C622 0.962 . S
H636 C622 0.960 . S
H637 C623 0.954 1_545 S
H638 C623 0.967 . S
H639 C623 0.958 . S
H640 C624 0.931 . S
H641 C629 0.930 . S
H642 C630 0.956 . S
H643 C630 0.961 . S
H644 C630 0.961 . S
H645 C631 0.958 . S
H646 C631 0.961 . S
H647 C631 0.960 . S
C648 C649 1.391 . S
C648 C650 1.394 . S
C648 H664 0.931 . S
C649 C648 1.391 . S
C649 C653 1.376 . S
C650 C648 1.394 . S
C650 C651 1.369 . S
C650 C654 1.531 . S
C651 C650 1.369 . S
C651 C652 1.410 . S
C651 C659 1.503 . S
C652 C651 1.410 . S
C652 C653 1.392 . S
C652 C655 1.511 1_556 S
C653 C649 1.376 . S
C653 C652 1.392 . S
C653 H665 0.929 . S
C654 C650 1.531 . S
C654 H666 0.960 . S
C654 H667 0.962 . S
C654 H668 0.960 . S
C655 C652 1.511 1_554 S
C655 H669 0.961 . S
C655 H670 0.961 . S
C655 H671 0.961 . S
C656 C657 1.370 . S
C656 C658 1.363 . S
C656 H672 0.931 . S
C657 C656 1.370 . S
C657 C661 1.408 . S
C658 C656 1.363 . S
C658 C659 1.370 . S
C658 C662 1.524 . S
C659 C651 1.503 . S
C659 C658 1.370 . S
C659 C660 1.403 . S
C660 C659 1.403 . S
C660 C661 1.404 . S
C660 C663 1.539 . S
C661 C657 1.408 . S
C661 C660 1.404 . S
C661 H673 0.930 . S
C662 C658 1.524 . S
C662 H674 0.956 . S
C662 H675 0.961 . S
C662 H676 0.961 . S
C663 C660 1.539 . S
C663 H677 0.958 . S
C663 H678 0.961 . S
C663 H679 0.960 . S
H664 C648 0.931 . S
H665 C653 0.929 . S
H666 C654 0.960 . S
H667 C654 0.962 . S
H668 C654 0.960 . S
H669 C655 0.961 . S
H670 C655 0.961 . S
H671 C655 0.961 . S
H672 C656 0.931 . S
H673 C661 0.930 . S
H674 C662 0.956 . S
H675 C662 0.961 . S
H676 C662 0.961 . S
H677 C663 0.958 . S
H678 C663 0.961 . S
H679 C663 0.960 . S
C680 C681 1.391 . S
C680 C682 1.394 . S
C680 H696 0.931 . S
C681 C680 1.391 . S
C681 C685 1.376 . S
C682 C680 1.394 . S
C682 C683 1.369 1_655 S
C682 C686 1.531 1_655 S
C683 C682 1.369 1_455 S
C683 C684 1.410 . S
C683 C691 1.503 . S
C684 C683 1.410 . S
C684 C685 1.392 1_455 S
C684 C687 1.511 . S
C685 C681 1.376 . S
C685 C684 1.392 1_655 S
C685 H697 0.929 . S
C686 C682 1.531 1_455 S
C686 H698 0.960 . S
C686 H699 0.962 . S
C686 H700 0.960 1_455 S
C687 C684 1.511 . S
C687 H701 0.961 . S
C687 H702 0.961 . S
C687 H703 0.961 . S
C688 C689 1.370 . S
C688 C690 1.363 . S
C688 H704 0.931 . S
C689 C688 1.370 . S
C689 C693 1.408 . S
C690 C688 1.363 . S
C690 C691 1.370 . S
C690 C694 1.524 . S
C691 C683 1.503 . S
C691 C690 1.370 . S
C691 C692 1.403 . S
C692 C691 1.403 . S
C692 C693 1.404 . S
C692 C695 1.539 . S
C693 C689 1.408 . S
C693 C692 1.404 . S
C693 H705 0.930 . S
C694 C690 1.524 . S
C694 H706 0.956 . S
C694 H707 0.961 . S
C694 H708 0.961 . S
C695 C692 1.539 . S
C695 H709 0.958 . S
C695 H710 0.961 . S
C695 H711 0.960 . S
H696 C680 0.931 . S
H697 C685 0.929 . S
H698 C686 0.960 . S
H699 C686 0.962 . S
H700 C686 0.960 1_655 S
H701 C687 0.961 . S
H702 C687 0.961 . S
H703 C687 0.961 . S
H704 C688 0.931 . S
H705 C693 0.930 . S
H706 C694 0.956 . S
H707 C694 0.961 . S
H708 C694 0.961 . S
H709 C695 0.958 . S
H710 C695 0.961 . S
H711 C695 0.960 . S
C712 C713 1.391 . S
C712 C714 1.394 1_565 S
C712 H728 0.931 . S
C713 C712 1.391 . S
C713 C717 1.376 . S
C714 C712 1.394 1_545 S
C714 C715 1.369 . S
C714 C718 1.531 . S
C715 C714 1.369 . S
C715 C716 1.410 . S
C715 C723 1.503 . S
C716 C715 1.410 . S
C716 C717 1.392 1_545 S
C716 C719 1.511 . S
C717 C713 1.376 . S
C717 C716 1.392 1_565 S
C717 H729 0.929 . S
C718 C714 1.531 . S
C718 H730 0.960 . S
C718 H731 0.962 . S
C718 H732 0.960 . S
C719 C716 1.511 . S
C719 H733 0.961 1_545 S
C719 H734 0.961 . S
C719 H735 0.961 . S
C720 C721 1.370 . S
C720 C722 1.363 . S
C720 H736 0.931 . S
C721 C720 1.370 . S
C721 C725 1.408 . S
C722 C720 1.363 . S
C722 C723 1.370 . S
C722 C726 1.524 . S
C723 C715 1.503 . S
C723 C722 1.370 . S
C723 C724 1.403 . S
C724 C723 1.403 . S
C724 C725 1.404 . S
C724 C727 1.539 . S
C725 C721 1.408 . S
C725 C724 1.404 . S
C725 H737 0.930 . S
C726 C722 1.524 . S
C726 H738 0.956 . S
C726 H739 0.961 . S
C726 H740 0.961 . S
C727 C724 1.539 . S
C727 H741 0.958 . S
C727 H742 0.961 . S
C727 H743 0.960 . S
H728 C712 0.931 . S
H729 C717 0.929 . S
H730 C718 0.960 . S
H731 C718 0.962 . S
H732 C718 0.960 . S
H733 C719 0.961 1_565 S
H734 C719 0.961 . S
H735 C719 0.961 . S
H736 C720 0.931 . S
H737 C725 0.930 . S
H738 C726 0.956 . S
H739 C726 0.961 . S
H740 C726 0.961 . S
H741 C727 0.958 . S
H742 C727 0.961 . S
H743 C727 0.960 . S
C744 C745 1.391 . S
C744 C746 1.394 . S
C744 H760 0.931 . S
C745 C744 1.391 . S
C745 C749 1.376 . S
C746 C744 1.394 . S
C746 C747 1.369 . S
C746 C750 1.531 . S
C747 C746 1.369 . S
C747 C748 1.410 . S
C747 C755 1.503 . S
C748 C747 1.410 . S
C748 C749 1.392 . S
C748 C751 1.511 . S
C749 C745 1.376 . S
C749 C748 1.392 . S
C749 H761 0.929 . S
C750 C746 1.531 . S
C750 H762 0.960 . S
C750 H763 0.962 . S
C750 H764 0.960 . S
C751 C748 1.511 . S
C751 H765 0.961 . S
C751 H766 0.961 . S
C751 H767 0.961 . S
C752 C753 1.370 . S
C752 C754 1.363 . S
C752 H768 0.931 . S
C753 C752 1.370 . S
C753 C757 1.408 . S
C754 C752 1.363 . S
C754 C755 1.370 . S
C754 C758 1.524 . S
C755 C747 1.503 . S
C755 C754 1.370 . S
C755 C756 1.403 . S
C756 C755 1.403 . S
C756 C757 1.404 . S
C756 C759 1.539 . S
C757 C753 1.408 . S
C757 C756 1.404 . S
C757 H769 0.930 . S
C758 C754 1.524 . S
C758 H770 0.956 . S
C758 H771 0.961 . S
C758 H772 0.961 . S
C759 C756 1.539 . S
C759 H773 0.958 . S
C759 H774 0.961 . S
C759 H775 0.960 . S
H760 C744 0.931 . S
H761 C749 0.929 . S
H762 C750 0.960 . S
H763 C750 0.962 . S
H764 C750 0.960 . S
H765 C751 0.961 . S
H766 C751 0.961 . S
H767 C751 0.961 . S
H768 C752 0.931 . S
H769 C757 0.930 . S
H770 C758 0.956 . S
H771 C758 0.961 . S
H772 C758 0.961 . S
H773 C759 0.958 . S
H774 C759 0.961 . S
H775 C759 0.960 . S
C776 C777 1.391 . S
C776 C778 1.394 . S
C776 H792 0.931 . S
C777 C776 1.391 . S
C777 C781 1.376 . S
C778 C776 1.394 . S
C778 C779 1.369 . S
C778 C782 1.531 . S
C779 C778 1.369 . S
C779 C780 1.410 . S
C779 C787 1.503 . S
C780 C779 1.410 . S
C780 C781 1.392 . S
C780 C783 1.511 . S
C781 C777 1.376 . S
C781 C780 1.392 . S
C781 H793 0.929 . S
C782 C778 1.531 . S
C782 H794 0.960 . S
C782 H795 0.962 . S
C782 H796 0.960 . S
C783 C780 1.511 . S
C783 H797 0.961 . S
C783 H798 0.961 . S
C783 H799 0.961 . S
C784 C785 1.370 . S
C784 C786 1.363 1_455 S
C784 H800 0.931 . S
C785 C784 1.370 . S
C785 C789 1.408 . S
C786 C784 1.363 1_655 S
C786 C787 1.370 . S
C786 C790 1.524 . S
C787 C779 1.503 . S
C787 C786 1.370 . S
C787 C788 1.403 . S
C788 C787 1.403 . S
C788 C789 1.404 1_655 S
C788 C791 1.539 . S
C789 C785 1.408 . S
C789 C788 1.404 1_455 S
C789 H801 0.930 . S
C790 C786 1.524 . S
C790 H802 0.956 . S
C790 H803 0.961 . S
C790 H804 0.961 1_655 S
C791 C788 1.539 . S
C791 H805 0.958 . S
C791 H806 0.961 . S
C791 H807 0.960 . S
H792 C776 0.931 . S
H793 C781 0.929 . S
H794 C782 0.960 . S
H795 C782 0.962 . S
H796 C782 0.960 . S
H797 C783 0.961 . S
H798 C783 0.961 . S
H799 C783 0.961 . S
H800 C784 0.931 . S
H801 C789 0.930 . S
H802 C790 0.956 . S
H803 C790 0.961 . S
H804 C790 0.961 1_455 S
H805 C791 0.958 . S
H806 C791 0.961 . S
H807 C791 0.960 . S
C808 C809 1.391 . S
C808 C810 1.394 . S
C808 H824 0.931 . S
C809 C808 1.391 . S
C809 C813 1.376 . S
C810 C808 1.394 . S
C810 C811 1.369 . S
C810 C814 1.531 . S
C811 C810 1.369 . S
C811 C812 1.410 . S
C811 C819 1.503 . S
C812 C811 1.410 . S
C812 C813 1.392 . S
C812 C815 1.511 . S
C813 C809 1.376 . S
C813 C812 1.392 . S
C813 H825 0.929 . S
C814 C810 1.531 . S
C814 H826 0.960 . S
C814 H827 0.962 . S
C814 H828 0.960 . S
C815 C812 1.511 . S
C815 H829 0.961 . S
C815 H830 0.961 . S
C815 H831 0.961 . S
C816 C817 1.370 . S
C816 C818 1.363 1_545 S
C816 H832 0.931 . S
C817 C816 1.370 . S
C817 C821 1.408 . S
C818 C816 1.363 1_565 S
C818 C819 1.370 . S
C818 C822 1.524 . S
C819 C811 1.503 . S
C819 C818 1.370 . S
C819 C820 1.403 1_565 S
C820 C819 1.403 1_545 S
C820 C821 1.404 . S
C820 C823 1.539 . S
C821 C817 1.408 . S
C821 C820 1.404 . S
C821 H833 0.930 . S
C822 C818 1.524 . S
C822 H834 0.956 . S
C822 H835 0.961 . S
C822 H836 0.961 . S
C823 C820 1.539 . S
C823 H837 0.964 1_545 S
C823 H838 0.961 . S
C823 H839 0.960 1_545 S
H824 C808 0.931 . S
H825 C813 0.929 . S
H826 C814 0.960 . S
H827 C814 0.962 . S
H828 C814 0.960 . S
H829 C815 0.961 . S
H830 C815 0.961 . S
H831 C815 0.961 . S
H832 C816 0.931 . S
H833 C821 0.930 . S
H834 C822 0.956 . S
H835 C822 0.961 . S
H836 C822 0.961 . S
H837 C823 0.964 1_565 S
H838 C823 0.961 . S
H839 C823 0.960 1_565 S
C840 C841 1.391 . S
C840 C842 1.394 . S
C840 H856 0.931 . S
C841 C840 1.391 . S
C841 C845 1.376 . S
C842 C840 1.394 . S
C842 C843 1.369 . S
C842 C846 1.531 . S
C843 C842 1.369 . S
C843 C844 1.410 . S
C843 C851 1.503 . S
C844 C843 1.410 . S
C844 C845 1.392 . S
C844 C847 1.511 . S
C845 C841 1.376 . S
C845 C844 1.392 . S
C845 H857 0.929 . S
C846 C842 1.531 . S
C846 H858 0.960 . S
C846 H859 0.962 . S
C846 H860 0.960 . S
C847 C844 1.511 . S
C847 H861 0.961 . S
C847 H862 0.961 . S
C847 H863 0.961 . S
C848 C849 1.370 . S
C848 C850 1.363 . S
C848 H864 0.931 . S
C849 C848 1.370 . S
C849 C853 1.408 . S
C850 C848 1.363 . S
C850 C851 1.370 . S
C850 C854 1.524 . S
C851 C843 1.503 . S
C851 C850 1.370 . S
C851 C852 1.403 . S
C852 C851 1.403 . S
C852 C853 1.404 . S
C852 C855 1.539 . S
C853 C849 1.408 . S
C853 C852 1.404 . S
C853 H865 0.930 . S
C854 C850 1.524 . S
C854 H866 0.956 1_556 S
C854 H867 0.961 . S
C854 H868 0.961 1_556 S
C855 C852 1.539 . S
C855 H869 0.958 . S
C855 H870 0.961 . S
C855 H871 0.960 . S
H856 C840 0.931 . S
H857 C845 0.929 . S
H858 C846 0.960 . S
H859 C846 0.962 . S
H860 C846 0.960 . S
H861 C847 0.961 . S
H862 C847 0.961 . S
H863 C847 0.961 . S
H864 C848 0.931 . S
H865 C853 0.930 . S
H866 C854 0.956 1_554 S
H867 C854 0.961 . S
H868 C854 0.961 1_554 S
H869 C855 0.958 . S
H870 C855 0.961 . S
H871 C855 0.960 . S
C872 C873 1.391 . S
C872 C874 1.394 . S
C872 H888 0.931 . S
C873 C872 1.391 . S
C873 C877 1.376 . S
C874 C872 1.394 . S
C874 C875 1.369 . S
C874 C878 1.531 . S
C875 C874 1.369 . S
C875 C876 1.410 . S
C875 C883 1.503 . S
C876 C875 1.410 . S
C876 C877 1.392 . S
C876 C879 1.511 . S
C877 C873 1.376 . S
C877 C876 1.392 . S
C877 H889 0.929 . S
C878 C874 1.531 . S
C878 H890 0.960 . S
C878 H891 0.962 . S
C878 H892 0.960 . S
C879 C876 1.511 . S
C879 H893 0.961 . S
C879 H894 0.961 . S
C879 H895 0.961 . S
C880 C881 1.370 . S
C880 C882 1.363 . S
C880 H896 0.931 . S
C881 C880 1.370 . S
C881 C885 1.408 . S
C882 C880 1.363 . S
C882 C883 1.370 . S
C882 C886 1.524 . S
C883 C875 1.503 . S
C883 C882 1.370 . S
C883 C884 1.403 . S
C884 C883 1.403 . S
C884 C885 1.404 . S
C884 C887 1.539 . S
C885 C881 1.408 . S
C885 C884 1.404 . S
C885 H897 0.930 . S
C886 C882 1.524 . S
C886 H898 0.956 . S
C886 H899 0.961 . S
C886 H900 0.961 . S
C887 C884 1.539 . S
C887 H901 0.958 . S
C887 H902 0.961 . S
C887 H903 0.960 . S
H888 C872 0.931 . S
H889 C877 0.929 . S
H890 C878 0.960 . S
H891 C878 0.962 . S
H892 C878 0.960 . S
H893 C879 0.961 . S
H894 C879 0.961 . S
H895 C879 0.961 . S
H896 C880 0.931 . S
H897 C885 0.930 . S
H898 C886 0.956 . S
H899 C886 0.961 . S
H900 C886 0.961 . S
H901 C887 0.958 . S
H902 C887 0.961 . S
H903 C887 0.960 . S
C904 C905 1.391 . S
C904 C906 1.394 . S
C904 H920 0.931 . S
C905 C904 1.391 . S
C905 C909 1.376 . S
C906 C904 1.394 . S
C906 C907 1.369 . S
C906 C910 1.531 . S
C907 C906 1.369 . S
C907 C908 1.410 . S
C907 C915 1.503 . S
C908 C907 1.410 . S
C908 C909 1.392 . S
C908 C911 1.511 . S
C909 C905 1.376 . S
C909 C908 1.392 . S
C909 H921 0.929 . S
C910 C906 1.531 . S
C910 H922 0.960 . S
C910 H923 0.962 . S
C910 H924 0.960 . S
C911 C908 1.511 . S
C911 H925 0.961 . S
C911 H926 0.961 . S
C911 H927 0.961 . S
C912 C913 1.370 . S
C912 C914 1.363 . S
C912 H928 0.931 . S
C913 C912 1.370 . S
C913 C917 1.408 . S
C914 C912 1.363 . S
C914 C915 1.370 . S
C914 C918 1.524 . S
C915 C907 1.503 . S
C915 C914 1.370 . S
C915 C916 1.403 . S
C916 C915 1.403 . S
C916 C917 1.404 . S
C916 C919 1.539 . S
C917 C913 1.408 . S
C917 C916 1.404 . S
C917 H929 0.930 . S
C918 C914 1.524 . S
C918 H930 0.956 . S
C918 H931 0.961 . S
C918 H932 0.961 . S
C919 C916 1.539 . S
C919 H933 0.958 . S
C919 H934 0.961 . S
C919 H935 0.960 . S
H920 C904 0.931 . S
H921 C909 0.929 . S
H922 C910 0.960 . S
H923 C910 0.962 . S
H924 C910 0.960 . S
H925 C911 0.961 . S
H926 C911 0.961 . S
H927 C911 0.961 . S
H928 C912 0.931 . S
H929 C917 0.930 . S
H930 C918 0.956 . S
H931 C918 0.961 . S
H932 C918 0.961 . S
H933 C919 0.958 . S
H934 C919 0.961 . S
H935 C919 0.960 . S
C936 C937 1.391 . S
C936 C938 1.394 . S
C936 H952 0.931 . S
C937 C936 1.391 . S
C937 C941 1.376 . S
C938 C936 1.394 . S
C938 C939 1.369 . S
C938 C942 1.531 . S
C939 C938 1.369 . S
C939 C940 1.410 . S
C939 C947 1.503 . S
C940 C939 1.410 . S
C940 C941 1.392 . S
C940 C943 1.511 . S
C941 C937 1.376 . S
C941 C940 1.392 . S
C941 H953 0.929 . S
C942 C938 1.531 . S
C942 H954 0.960 . S
C942 H955 0.962 . S
C942 H956 0.960 . S
C943 C940 1.511 . S
C943 H957 0.961 . S
C943 H958 0.961 . S
C943 H959 0.961 . S
C944 C945 1.370 . S
C944 C946 1.363 . S
C944 H960 0.931 . S
C945 C944 1.370 . S
C945 C949 1.408 . S
C946 C944 1.363 . S
C946 C947 1.370 . S
C946 C950 1.524 . S
C947 C939 1.503 . S
C947 C946 1.370 . S
C947 C948 1.403 . S
C948 C947 1.403 . S
C948 C949 1.404 . S
C948 C951 1.539 . S
C949 C945 1.408 . S
C949 C948 1.404 . S
C949 H961 0.930 . S
C950 C946 1.524 . S
C950 H962 0.956 . S
C950 H963 0.961 . S
C950 H964 0.961 . S
C951 C948 1.539 . S
C951 H965 0.958 . S
C951 H966 0.961 . S
C951 H967 0.960 . S
H952 C936 0.931 . S
H953 C941 0.929 . S
H954 C942 0.960 . S
H955 C942 0.962 . S
H956 C942 0.960 . S
H957 C943 0.961 . S
H958 C943 0.961 . S
H959 C943 0.961 . S
H960 C944 0.931 . S
H961 C949 0.930 . S
H962 C950 0.956 . S
H963 C950 0.961 . S
H964 C950 0.961 . S
H965 C951 0.958 . S
H966 C951 0.961 . S
H967 C951 0.960 . S
C968 C969 1.391 . S
C968 C970 1.394 . S
C968 H984 0.931 . S
C969 C968 1.391 . S
C969 C973 1.376 . S
C970 C968 1.394 . S
C970 C971 1.369 . S
C970 C974 1.531 . S
C971 C970 1.369 . S
C971 C972 1.410 . S
C971 C979 1.503 . S
C972 C971 1.410 . S
C972 C973 1.392 . S
C972 C975 1.511 . S
C973 C969 1.376 . S
C973 C972 1.392 . S
C973 H985 0.929 . S
C974 C970 1.531 . S
C974 H986 0.960 . S
C974 H987 0.962 . S
C974 H988 0.960 . S
C975 C972 1.511 . S
C975 H989 0.961 . S
C975 H990 0.961 . S
C975 H991 0.961 . S
C976 C977 1.370 . S
C976 C978 1.363 . S
C976 H992 0.931 . S
C977 C976 1.370 . S
C977 C981 1.408 . S
C978 C976 1.363 . S
C978 C979 1.370 . S
C978 C982 1.524 . S
C979 C971 1.503 . S
C979 C978 1.370 . S
C979 C980 1.403 . S
C980 C979 1.403 . S
C980 C981 1.404 . S
C980 C983 1.539 . S
C981 C977 1.408 . S
C981 C980 1.404 . S
C981 H993 0.930 . S
C982 C978 1.524 . S
C982 H994 0.956 . S
C982 H995 0.961 . S
C982 H996 0.961 . S
C983 C980 1.539 . S
C983 H997 0.958 . S
C983 H998 0.961 . S
C983 H999 0.960 . S
H984 C968 0.931 . S
H985 C973 0.929 . S
H986 C974 0.960 . S
H987 C974 0.962 . S
H988 C974 0.960 . S
H989 C975 0.961 . S
H990 C975 0.961 . S
H991 C975 0.961 . S
H992 C976 0.931 . S
H993 C981 0.930 . S
H994 C982 0.956 . S
H995 C982 0.961 . S
H996 C982 0.961 . S
H997 C983 0.958 . S
H998 C983 0.961 . S
H999 C983 0.960 . S
C1000 C1001 1.391 . S
C1000 C1002 1.394 . S
C1000 H1016 0.931 . S
C1001 C1000 1.391 . S
C1001 C1005 1.376 . S
C1002 C1000 1.394 . S
C1002 C1003 1.369 . S
C1002 C1006 1.531 . S
C1003 C1002 1.369 . S
C1003 C1004 1.410 . S
C1003 C1011 1.503 . S
C1004 C1003 1.410 . S
C1004 C1005 1.392 . S
C1004 C1007 1.511 . S
C1005 C1001 1.376 . S
C1005 C1004 1.392 . S
C1005 H1017 0.929 . S
C1006 C1002 1.531 . S
C1006 H1018 0.960 . S
C1006 H1019 0.962 . S
C1006 H1020 0.960 . S
C1007 C1004 1.511 . S
C1007 H1021 0.961 . S
C1007 H1022 0.961 . S
C1007 H1023 0.961 . S
C1008 C1009 1.370 . S
C1008 C1010 1.363 . S
C1008 H1024 0.931 . S
C1009 C1008 1.370 . S
C1009 C1013 1.408 . S
C1010 C1008 1.363 . S
C1010 C1011 1.370 . S
C1010 C1014 1.524 . S
C1011 C1003 1.503 . S
C1011 C1010 1.370 . S
C1011 C1012 1.403 . S
C1012 C1011 1.403 . S
C1012 C1013 1.404 . S
C1012 C1015 1.539 . S
C1013 C1009 1.408 . S
C1013 C1012 1.404 . S
C1013 H1025 0.930 . S
C1014 C1010 1.524 . S
C1014 H1026 0.956 . S
C1014 H1027 0.961 . S
C1014 H1028 0.961 . S
C1015 C1012 1.539 . S
C1015 H1029 0.958 . S
C1015 H1030 0.961 . S
C1015 H1031 0.960 . S
H1016 C1000 0.931 . S
H1017 C1005 0.929 . S
H1018 C1006 0.960 . S
H1019 C1006 0.962 . S
H1020 C1006 0.960 . S
H1021 C1007 0.961 . S
H1022 C1007 0.961 . S
H1023 C1007 0.961 . S
H1024 C1008 0.931 . S
H1025 C1013 0.930 . S
H1026 C1014 0.956 . S
H1027 C1014 0.961 . S
H1028 C1014 0.961 . S
H1029 C1015 0.958 . S
H1030 C1015 0.961 . S
H1031 C1015 0.960 . S
C1032 C1033 1.391 . S
C1032 C1034 1.394 . S
C1032 H1048 0.931 . S
C1033 C1032 1.391 . S
C1033 C1037 1.376 . S
C1034 C1032 1.394 . S
C1034 C1035 1.369 . S
C1034 C1038 1.531 . S
C1035 C1034 1.369 . S
C1035 C1036 1.410 . S
C1035 C1043 1.503 . S
C1036 C1035 1.410 . S
C1036 C1037 1.392 . S
C1036 C1039 1.511 . S
C1037 C1033 1.376 . S
C1037 C1036 1.392 . S
C1037 H1049 0.929 . S
C1038 C1034 1.531 . S
C1038 H1050 0.960 . S
C1038 H1051 0.962 . S
C1038 H1052 0.960 . S
C1039 C1036 1.511 . S
C1039 H1053 0.961 . S
C1039 H1054 0.961 . S
C1039 H1055 0.961 . S
C1040 C1041 1.370 . S
C1040 C1042 1.363 . S
C1040 H1056 0.931 . S
C1041 C1040 1.370 . S
C1041 C1045 1.408 . S
C1042 C1040 1.363 . S
C1042 C1043 1.370 . S
C1042 C1046 1.524 . S
C1043 C1035 1.503 . S
C1043 C1042 1.370 . S
C1043 C1044 1.403 . S
C1044 C1043 1.403 . S
C1044 C1045 1.404 . S
C1044 C1047 1.539 . S
C1045 C1041 1.408 . S
C1045 C1044 1.404 . S
C1045 H1057 0.930 . S
C1046 C1042 1.524 . S
C1046 H1058 0.956 . S
C1046 H1059 0.961 . S
C1046 H1060 0.961 . S
C1047 C1044 1.539 . S
C1047 H1061 0.958 . S
C1047 H1062 0.961 . S
C1047 H1063 0.960 . S
H1048 C1032 0.931 . S
H1049 C1037 0.929 . S
H1050 C1038 0.960 . S
H1051 C1038 0.962 . S
H1052 C1038 0.960 . S
H1053 C1039 0.961 . S
H1054 C1039 0.961 . S
H1055 C1039 0.961 . S
H1056 C1040 0.931 . S
H1057 C1045 0.930 . S
H1058 C1046 0.956 . S
H1059 C1046 0.961 . S
H1060 C1046 0.961 . S
H1061 C1047 0.958 . S
H1062 C1047 0.961 . S
H1063 C1047 0.960 . S
C1064 C1065 1.391 . S
C1064 C1066 1.394 . S
C1064 H1080 0.931 . S
C1065 C1064 1.391 . S
C1065 C1069 1.376 . S
C1066 C1064 1.394 . S
C1066 C1067 1.369 . S
C1066 C1070 1.531 1_455 S
C1067 C1066 1.369 . S
C1067 C1068 1.410 . S
C1067 C1075 1.503 1_455 S
C1068 C1067 1.410 . S
C1068 C1069 1.392 . S
C1068 C1071 1.511 . S
C1069 C1065 1.376 . S
C1069 C1068 1.392 . S
C1069 H1081 0.929 . S
C1070 C1066 1.531 1_655 S
C1070 H1082 0.960 . S
C1070 H1083 0.962 . S
C1070 H1084 0.960 . S
C1071 C1068 1.511 . S
C1071 H1085 0.961 . S
C1071 H1086 0.961 . S
C1071 H1087 0.961 . S
C1072 C1073 1.370 . S
C1072 C1074 1.363 . S
C1072 H1088 0.931 . S
C1073 C1072 1.370 . S
C1073 C1077 1.408 . S
C1074 C1072 1.363 . S
C1074 C1075 1.370 . S
C1074 C1078 1.524 . S
C1075 C1067 1.503 1_655 S
C1075 C1074 1.370 . S
C1075 C1076 1.403 . S
C1076 C1075 1.403 . S
C1076 C1077 1.404 . S
C1076 C1079 1.539 1_655 S
C1077 C1073 1.408 . S
C1077 C1076 1.404 . S
C1077 H1089 0.930 . S
C1078 C1074 1.524 . S
C1078 H1090 0.956 . S
C1078 H1091 0.961 . S
C1078 H1092 0.961 . S
C1079 C1076 1.539 1_455 S
C1079 H1093 0.958 1_455 S
C1079 H1094 0.961 . S
C1079 H1095 0.960 . S
H1080 C1064 0.931 . S
H1081 C1069 0.929 . S
H1082 C1070 0.960 . S
H1083 C1070 0.962 . S
H1084 C1070 0.960 . S
H1085 C1071 0.961 . S
H1086 C1071 0.961 . S
H1087 C1071 0.961 . S
H1088 C1072 0.931 . S
H1089 C1077 0.930 . S
H1090 C1078 0.956 . S
H1091 C1078 0.961 . S
H1092 C1078 0.961 . S
H1093 C1079 0.958 1_655 S
H1094 C1079 0.961 . S
H1095 C1079 0.960 . S
C1096 C1097 1.391 . S
C1096 C1098 1.394 . S
C1096 H1112 0.931 . S
C1097 C1096 1.391 . S
C1097 C1101 1.376 . S
C1098 C1096 1.394 . S
C1098 C1099 1.369 . S
C1098 C1102 1.531 1_545 S
C1099 C1098 1.369 . S
C1099 C1100 1.410 . S
C1099 C1107 1.503 1_545 S
C1100 C1099 1.410 . S
C1100 C1101 1.392 . S
C1100 C1103 1.511 . S
C1101 C1097 1.376 . S
C1101 C1100 1.392 . S
C1101 H1113 0.929 . S
C1102 C1098 1.531 1_565 S
C1102 H1114 0.960 . S
C1102 H1115 0.962 . S
C1102 H1116 0.960 . S
C1103 C1100 1.511 . S
C1103 H1117 0.961 . S
C1103 H1118 0.961 . S
C1103 H1119 0.961 . S
C1104 C1105 1.370 . S
C1104 C1106 1.363 . S
C1104 H1120 0.931 . S
C1105 C1104 1.370 . S
C1105 C1109 1.408 . S
C1106 C1104 1.363 . S
C1106 C1107 1.370 . S
C1106 C1110 1.524 1_565 S
C1107 C1099 1.503 1_565 S
C1107 C1106 1.370 . S
C1107 C1108 1.403 . S
C1108 C1107 1.403 . S
C1108 C1109 1.404 . S
C1108 C1111 1.539 . S
C1109 C1105 1.408 . S
C1109 C1108 1.404 . S
C1109 H1121 0.930 . S
C1110 C1106 1.524 1_545 S
C1110 H1122 0.956 . S
C1110 H1123 0.961 . S
C1110 H1124 0.961 . S
C1111 C1108 1.539 . S
C1111 H1125 0.958 . S
C1111 H1126 0.961 . S
C1111 H1127 0.960 . S
H1112 C1096 0.931 . S
H1113 C1101 0.929 . S
H1114 C1102 0.960 . S
H1115 C1102 0.962 . S
H1116 C1102 0.960 . S
H1117 C1103 0.961 . S
H1118 C1103 0.961 . S
H1119 C1103 0.961 . S
H1120 C1104 0.931 . S
H1121 C1109 0.930 . S
H1122 C1110 0.956 . S
H1123 C1110 0.961 . S
H1124 C1110 0.961 . S
H1125 C1111 0.958 . S
H1126 C1111 0.961 . S
H1127 C1111 0.960 . S
C1128 C1129 1.391 . S
C1128 C1130 1.394 . S
C1128 H1144 0.931 . S
C1129 C1128 1.391 . S
C1129 C1133 1.376 . S
C1130 C1128 1.394 . S
C1130 C1131 1.369 . S
C1130 C1134 1.531 . S
C1131 C1130 1.369 . S
C1131 C1132 1.410 . S
C1131 C1139 1.503 . S
C1132 C1131 1.410 . S
C1132 C1133 1.392 . S
C1132 C1135 1.511 . S
C1133 C1129 1.376 . S
C1133 C1132 1.392 . S
C1133 H1145 0.929 . S
C1134 C1130 1.531 . S
C1134 H1146 0.960 . S
C1134 H1147 0.962 . S
C1134 H1148 0.960 . S
C1135 C1132 1.511 . S
C1135 H1149 0.961 . S
C1135 H1150 0.961 . S
C1135 H1151 0.961 . S
C1136 C1137 1.370 . S
C1136 C1138 1.363 . S
C1136 H1152 0.931 . S
C1137 C1136 1.370 . S
C1137 C1141 1.408 . S
C1138 C1136 1.363 . S
C1138 C1139 1.370 . S
C1138 C1142 1.524 . S
C1139 C1131 1.503 . S
C1139 C1138 1.370 . S
C1139 C1140 1.403 . S
C1140 C1139 1.403 . S
C1140 C1141 1.404 . S
C1140 C1143 1.539 . S
C1141 C1137 1.408 . S
C1141 C1140 1.404 . S
C1141 H1153 0.930 . S
C1142 C1138 1.524 . S
C1142 H1154 0.956 . S
C1142 H1155 0.961 . S
C1142 H1156 0.961 . S
C1143 C1140 1.539 . S
C1143 H1157 0.958 . S
C1143 H1158 0.961 . S
C1143 H1159 0.960 . S
H1144 C1128 0.931 . S
H1145 C1133 0.929 . S
H1146 C1134 0.960 . S
H1147 C1134 0.962 . S
H1148 C1134 0.960 . S
H1149 C1135 0.961 . S
H1150 C1135 0.961 . S
H1151 C1135 0.961 . S
H1152 C1136 0.931 . S
H1153 C1141 0.930 . S
H1154 C1142 0.956 . S
H1155 C1142 0.961 . S
H1156 C1142 0.961 . S
H1157 C1143 0.958 . S
H1158 C1143 0.961 . S
H1159 C1143 0.960 . S
C1160 C1161 1.391 . S
C1160 C1162 1.394 . S
C1160 H1176 0.931 . S
C1161 C1160 1.391 . S
C1161 C1165 1.376 . S
C1162 C1160 1.394 . S
C1162 C1163 1.369 . S
C1162 C1166 1.531 . S
C1163 C1162 1.369 . S
C1163 C1164 1.410 . S
C1163 C1171 1.503 1_455 S
C1164 C1163 1.410 . S
C1164 C1165 1.392 . S
C1164 C1167 1.501 1_455 S
C1165 C1161 1.376 . S
C1165 C1164 1.392 . S
C1165 H1177 0.929 . S
C1166 C1162 1.531 . S
C1166 H1178 0.960 . S
C1166 H1179 0.962 . S
C1166 H1180 0.960 . S
C1167 C1164 1.501 1_655 S
C1167 H1181 0.963 . S
C1167 H1182 0.969 . S
C1167 H1183 0.961 1_655 S
C1168 C1169 1.370 . S
C1168 C1170 1.363 . S
C1168 H1184 0.931 . S
C1169 C1168 1.370 . S
C1169 C1173 1.408 . S
C1170 C1168 1.363 . S
C1170 C1171 1.370 . S
C1170 C1174 1.524 . S
C1171 C1163 1.503 1_655 S
C1171 C1170 1.370 . S
C1171 C1172 1.403 . S
C1172 C1171 1.403 . S
C1172 C1173 1.404 . S
C1172 C1175 1.539 1_655 S
C1173 C1169 1.408 . S
C1173 C1172 1.404 . S
C1173 H1185 0.930 . S
C1174 C1170 1.524 . S
C1174 H1186 0.956 . S
C1174 H1187 0.961 . S
C1174 H1188 0.961 . S
C1175 C1172 1.539 1_455 S
C1175 H1189 0.958 . S
C1175 H1190 0.961 . S
C1175 H1191 0.960 . S
H1176 C1160 0.931 . S
H1177 C1165 0.929 . S
H1178 C1166 0.960 . S
H1179 C1166 0.962 . S
H1180 C1166 0.960 . S
H1181 C1167 0.963 . S
H1182 C1167 0.969 . S
H1183 C1167 0.961 1_455 S
H1184 C1168 0.931 . S
H1185 C1173 0.930 . S
H1186 C1174 0.956 . S
H1187 C1174 0.961 . S
H1188 C1174 0.961 . S
H1189 C1175 0.958 . S
H1190 C1175 0.961 . S
H1191 C1175 0.960 . S
C1192 C1193 1.391 . S
C1192 C1194 1.394 . S
C1192 H1208 0.931 . S
C1193 C1192 1.391 . S
C1193 C1197 1.376 . S
C1194 C1192 1.394 . S
C1194 C1195 1.369 1_556 S
C1194 C1198 1.531 1_545 S
C1195 C1194 1.369 1_554 S
C1195 C1196 1.410 . S
C1195 C1203 1.503 1_545 S
C1196 C1195 1.410 . S
C1196 C1197 1.392 1_554 S
C1196 C1199 1.511 . S
C1197 C1193 1.376 . S
C1197 C1196 1.392 1_556 S
C1197 H1209 0.929 . S
C1198 C1194 1.531 1_565 S
C1198 H1210 0.960 . S
C1198 H1211 0.962 . S
C1198 H1212 0.960 1_565 S
C1199 C1196 1.511 . S
C1199 H1213 0.961 . S
C1199 H1214 0.961 . S
C1199 H1215 0.961 . S
C1200 C1201 1.370 . S
C1200 C1202 1.363 . S
C1200 H1216 0.931 . S
C1201 C1200 1.370 . S
C1201 C1205 1.408 . S
C1202 C1200 1.363 . S
C1202 C1203 1.370 . S
C1202 C1206 1.524 1_554 S
C1203 C1195 1.503 1_565 S
C1203 C1202 1.370 . S
C1203 C1204 1.403 . S
C1204 C1203 1.403 . S
C1204 C1205 1.404 . S
C1204 C1207 1.539 1_565 S
C1205 C1201 1.408 . S
C1205 C1204 1.404 . S
C1205 H1217 0.930 . S
C1206 C1202 1.524 1_556 S
C1206 H1218 0.956 . S
C1206 H1219 0.961 . S
C1206 H1220 0.961 . S
C1207 C1204 1.539 1_545 S
C1207 H1221 0.958 . S
C1207 H1222 0.961 . S
C1207 H1223 0.960 . S
H1208 C1192 0.931 . S
H1209 C1197 0.929 . S
H1210 C1198 0.960 . S
H1211 C1198 0.962 . S
H1212 C1198 0.960 1_545 S
H1213 C1199 0.961 . S
H1214 C1199 0.961 . S
H1215 C1199 0.961 . S
H1216 C1200 0.931 . S
H1217 C1205 0.930 . S
H1218 C1206 0.956 . S
H1219 C1206 0.961 . S
H1220 C1206 0.961 . S
H1221 C1207 0.958 . S
H1222 C1207 0.961 . S
H1223 C1207 0.960 . S
C1224 C1225 1.391 . S
C1224 C1226 1.394 . S
C1224 H1240 0.931 . S
C1225 C1224 1.391 . S
C1225 C1229 1.376 . S
C1226 C1224 1.394 . S
C1226 C1227 1.369 . S
C1226 C1230 1.531 . S
C1227 C1226 1.369 . S
C1227 C1228 1.410 . S
C1227 C1235 1.503 . S
C1228 C1227 1.410 . S
C1228 C1229 1.392 . S
C1228 C1231 1.511 . S
C1229 C1225 1.376 . S
C1229 C1228 1.392 . S
C1229 H1241 0.929 . S
C1230 C1226 1.531 . S
C1230 H1242 0.960 . S
C1230 H1243 0.962 . S
C1230 H1244 0.960 . S
C1231 C1228 1.511 . S
C1231 H1245 0.961 . S
C1231 H1246 0.961 . S
C1231 H1247 0.961 . S
C1232 C1233 1.370 . S
C1232 C1234 1.363 . S
C1232 H1248 0.931 . S
C1233 C1232 1.370 . S
C1233 C1237 1.408 . S
C1234 C1232 1.363 . S
C1234 C1235 1.370 . S
C1234 C1238 1.524 . S
C1235 C1227 1.503 . S
C1235 C1234 1.370 . S
C1235 C1236 1.403 . S
C1236 C1235 1.403 . S
C1236 C1237 1.404 . S
C1236 C1239 1.539 . S
C1237 C1233 1.408 . S
C1237 C1236 1.404 . S
C1237 H1249 0.930 . S
C1238 C1234 1.524 . S
C1238 H1250 0.956 . S
C1238 H1251 0.961 . S
C1238 H1252 0.961 . S
C1239 C1236 1.539 . S
C1239 H1253 0.958 . S
C1239 H1254 0.961 . S
C1239 H1255 0.960 . S
H1240 C1224 0.931 . S
H1241 C1229 0.929 . S
H1242 C1230 0.960 . S
H1243 C1230 0.962 . S
H1244 C1230 0.960 . S
H1245 C1231 0.961 . S
H1246 C1231 0.961 . S
H1247 C1231 0.961 . S
H1248 C1232 0.931 . S
H1249 C1237 0.930 . S
H1250 C1238 0.956 . S
H1251 C1238 0.961 . S
H1252 C1238 0.961 . S
H1253 C1239 0.958 . S
H1254 C1239 0.961 . S
H1255 C1239 0.960 . S
C1256 C1257 1.391 . S
C1256 C1258 1.394 . S
C1256 H1272 0.931 . S
C1257 C1256 1.391 . S
C1257 C1261 1.376 . S
C1258 C1256 1.394 . S
C1258 C1259 1.369 . S
C1258 C1262 1.531 . S
C1259 C1258 1.369 . S
C1259 C1260 1.410 . S
C1259 C1267 1.503 . S
C1260 C1259 1.410 . S
C1260 C1261 1.392 . S
C1260 C1263 1.511 . S
C1261 C1257 1.376 . S
C1261 C1260 1.392 . S
C1261 H1273 0.929 . S
C1262 C1258 1.531 . S
C1262 H1274 0.960 . S
C1262 H1275 0.962 . S
C1262 H1276 0.960 . S
C1263 C1260 1.511 . S
C1263 H1277 0.961 . S
C1263 H1278 0.961 . S
C1263 H1279 0.961 . S
C1264 C1265 1.370 . S
C1264 C1266 1.363 . S
C1264 H1280 0.931 . S
C1265 C1264 1.370 . S
C1265 C1269 1.408 . S
C1266 C1264 1.363 . S
C1266 C1267 1.370 . S
C1266 C1270 1.524 . S
C1267 C1259 1.503 . S
C1267 C1266 1.370 . S
C1267 C1268 1.403 . S
C1268 C1267 1.403 . S
C1268 C1269 1.404 . S
C1268 C1271 1.539 . S
C1269 C1265 1.408 . S
C1269 C1268 1.404 . S
C1269 H1281 0.930 . S
C1270 C1266 1.524 . S
C1270 H1282 0.956 . S
C1270 H1283 0.961 . S
C1270 H1284 0.961 . S
C1271 C1268 1.539 . S
C1271 H1285 0.958 . S
C1271 H1286 0.961 . S
C1271 H1287 0.960 . S
H1272 C1256 0.931 . S
H1273 C1261 0.929 . S
H1274 C1262 0.960 . S
H1275 C1262 0.962 . S
H1276 C1262 0.960 . S
H1277 C1263 0.961 . S
H1278 C1263 0.961 . S
H1279 C1263 0.961 . S
H1280 C1264 0.931 . S
H1281 C1269 0.930 . S
H1282 C1270 0.956 . S
H1283 C1270 0.961 . S
H1284 C1270 0.961 . S
H1285 C1271 0.958 . S
H1286 C1271 0.961 . S
H1287 C1271 0.960 . S
C1288 C1289 1.391 . S
C1288 C1290 1.394 . S
C1288 H1304 0.931 . S
C1289 C1288 1.391 . S
C1289 C1293 1.376 . S
C1290 C1288 1.394 . S
C1290 C1291 1.369 . S
C1290 C1294 1.531 . S
C1291 C1290 1.369 . S
C1291 C1292 1.410 . S
C1291 C1299 1.503 . S
C1292 C1291 1.410 . S
C1292 C1293 1.392 . S
C1292 C1295 1.511 . S
C1293 C1289 1.376 . S
C1293 C1292 1.392 . S
C1293 H1305 0.929 . S
C1294 C1290 1.531 . S
C1294 H1306 0.960 . S
C1294 H1307 0.962 . S
C1294 H1308 0.960 . S
C1295 C1292 1.511 . S
C1295 H1309 0.961 . S
C1295 H1310 0.961 . S
C1295 H1311 0.961 . S
C1296 C1297 1.370 . S
C1296 C1298 1.363 . S
C1296 H1312 0.931 . S
C1297 C1296 1.370 . S
C1297 C1301 1.408 . S
C1298 C1296 1.363 . S
C1298 C1299 1.370 . S
C1298 C1302 1.524 . S
C1299 C1291 1.503 . S
C1299 C1298 1.370 . S
C1299 C1300 1.403 . S
C1300 C1299 1.403 . S
C1300 C1301 1.404 . S
C1300 C1303 1.539 . S
C1301 C1297 1.408 . S
C1301 C1300 1.404 . S
C1301 H1313 0.930 . S
C1302 C1298 1.524 . S
C1302 H1314 0.956 . S
C1302 H1315 0.961 . S
C1302 H1316 0.961 . S
C1303 C1300 1.539 . S
C1303 H1317 0.958 . S
C1303 H1318 0.961 . S
C1303 H1319 0.960 . S
H1304 C1288 0.931 . S
H1305 C1293 0.929 . S
H1306 C1294 0.960 . S
H1307 C1294 0.962 . S
H1308 C1294 0.960 . S
H1309 C1295 0.961 . S
H1310 C1295 0.961 . S
H1311 C1295 0.961 . S
H1312 C1296 0.931 . S
H1313 C1301 0.930 . S
H1314 C1302 0.956 . S
H1315 C1302 0.961 . S
H1316 C1302 0.961 . S
H1317 C1303 0.958 . S
H1318 C1303 0.961 . S
H1319 C1303 0.960 . S
C1320 C1321 1.391 . S
C1320 C1322 1.394 . S
C1320 H1336 0.931 . S
C1321 C1320 1.391 . S
C1321 C1325 1.376 . S
C1322 C1320 1.394 . S
C1322 C1323 1.369 . S
C1322 C1326 1.531 . S
C1323 C1322 1.369 . S
C1323 C1324 1.410 . S
C1323 C1331 1.503 . S
C1324 C1323 1.410 . S
C1324 C1325 1.392 . S
C1324 C1327 1.511 . S
C1325 C1321 1.376 . S
C1325 C1324 1.392 . S
C1325 H1337 0.929 . S
C1326 C1322 1.531 . S
C1326 H1338 0.960 . S
C1326 H1339 0.962 . S
C1326 H1340 0.960 . S
C1327 C1324 1.511 . S
C1327 H1341 0.961 . S
C1327 H1342 0.961 . S
C1327 H1343 0.961 . S
C1328 C1329 1.370 . S
C1328 C1330 1.363 . S
C1328 H1344 0.931 . S
C1329 C1328 1.370 . S
C1329 C1333 1.408 . S
C1330 C1328 1.363 . S
C1330 C1331 1.370 . S
C1330 C1334 1.524 . S
C1331 C1323 1.503 . S
C1331 C1330 1.370 . S
C1331 C1332 1.403 . S
C1332 C1331 1.403 . S
C1332 C1333 1.404 . S
C1332 C1335 1.539 . S
C1333 C1329 1.408 . S
C1333 C1332 1.404 . S
C1333 H1345 0.930 . S
C1334 C1330 1.524 . S
C1334 H1346 0.956 . S
C1334 H1347 0.961 . S
C1334 H1348 0.961 . S
C1335 C1332 1.539 . S
C1335 H1349 0.958 . S
C1335 H1350 0.961 . S
C1335 H1351 0.960 . S
H1336 C1320 0.931 . S
H1337 C1325 0.929 . S
H1338 C1326 0.960 . S
H1339 C1326 0.962 . S
H1340 C1326 0.960 . S
H1341 C1327 0.961 . S
H1342 C1327 0.961 . S
H1343 C1327 0.961 . S
H1344 C1328 0.931 . S
H1345 C1333 0.930 . S
H1346 C1334 0.956 . S
H1347 C1334 0.961 . S
H1348 C1334 0.961 . S
H1349 C1335 0.958 . S
H1350 C1335 0.961 . S
H1351 C1335 0.960 . S
C1352 C1353 1.391 . S
C1352 C1354 1.394 . S
C1352 H1368 0.931 . S
C1353 C1352 1.391 . S
C1353 C1357 1.376 . S
C1354 C1352 1.394 . S
C1354 C1355 1.369 . S
C1354 C1358 1.531 . S
C1355 C1354 1.369 . S
C1355 C1356 1.410 . S
C1355 C1363 1.503 . S
C1356 C1355 1.410 . S
C1356 C1357 1.392 . S
C1356 C1359 1.511 . S
C1357 C1353 1.376 . S
C1357 C1356 1.392 . S
C1357 H1369 0.929 . S
C1358 C1354 1.531 . S
C1358 H1370 0.960 . S
C1358 H1371 0.962 . S
C1358 H1372 0.960 . S
C1359 C1356 1.511 . S
C1359 H1373 0.961 . S
C1359 H1374 0.961 . S
C1359 H1375 0.961 . S
C1360 C1361 1.370 . S
C1360 C1362 1.363 1_554 S
C1360 H1376 0.931 . S
C1361 C1360 1.370 . S
C1361 C1365 1.408 . S
C1362 C1360 1.363 1_556 S
C1362 C1363 1.370 . S
C1362 C1366 1.524 . S
C1363 C1355 1.503 . S
C1363 C1362 1.370 . S
C1363 C1364 1.403 . S
C1364 C1363 1.403 . S
C1364 C1365 1.404 1_556 S
C1364 C1367 1.539 . S
C1365 C1361 1.408 . S
C1365 C1364 1.404 1_554 S
C1365 H1377 0.930 . S
C1366 C1362 1.524 . S
C1366 H1378 0.956 . S
C1366 H1379 0.961 . S
C1366 H1380 0.961 . S
C1367 C1364 1.539 . S
C1367 H1381 0.958 . S
C1367 H1382 0.961 . S
C1367 H1383 0.960 . S
H1368 C1352 0.931 . S
H1369 C1357 0.929 . S
H1370 C1358 0.960 . S
H1371 C1358 0.962 . S
H1372 C1358 0.960 . S
H1373 C1359 0.961 . S
H1374 C1359 0.961 . S
H1375 C1359 0.961 . S
H1376 C1360 0.931 . S
H1377 C1365 0.930 . S
H1378 C1366 0.956 . S
H1379 C1366 0.961 . S
H1380 C1366 0.961 . S
H1381 C1367 0.958 . S
H1382 C1367 0.961 . S
H1383 C1367 0.960 . S
C1384 C1385 1.391 1_554 S
C1384 C1386 1.394 . S
C1384 H1400 0.931 1_554 S
C1385 C1384 1.391 1_556 S
C1385 C1389 1.376 1_556 S
C1386 C1384 1.394 . S
C1386 C1387 1.369 . S
C1386 C1390 1.531 . S
C1387 C1386 1.369 . S
C1387 C1388 1.410 . S
C1387 C1395 1.503 . S
C1388 C1387 1.410 . S
C1388 C1389 1.392 . S
C1388 C1391 1.511 . S
C1389 C1385 1.376 1_554 S
C1389 C1388 1.392 . S
C1389 H1401 0.938 . S
C1390 C1386 1.531 . S
C1390 H1402 0.960 . S
C1390 H1403 0.962 . S
C1390 H1404 0.960 . S
C1391 C1388 1.511 . S
C1391 H1405 0.961 . S
C1391 H1406 0.961 . S
C1391 H1407 0.961 . S
C1392 C1393 1.370 . S
C1392 C1394 1.363 . S
C1392 H1408 0.931 . S
C1393 C1392 1.370 . S
C1393 C1397 1.408 . S
C1394 C1392 1.363 . S
C1394 C1395 1.370 . S
C1394 C1398 1.524 . S
C1395 C1387 1.503 . S
C1395 C1394 1.370 . S
C1395 C1396 1.403 . S
C1396 C1395 1.403 . S
C1396 C1397 1.404 . S
C1396 C1399 1.539 . S
C1397 C1393 1.408 . S
C1397 C1396 1.404 . S
C1397 H1409 0.930 . S
C1398 C1394 1.524 . S
C1398 H1410 0.956 . S
C1398 H1411 0.961 . S
C1398 H1412 0.961 . S
C1399 C1396 1.539 . S
C1399 H1413 0.958 . S
C1399 H1414 0.961 . S
C1399 H1415 0.960 . S
H1400 C1384 0.931 1_556 S
H1401 C1389 0.938 . S
H1402 C1390 0.960 . S
H1403 C1390 0.962 . S
H1404 C1390 0.960 . S
H1405 C1391 0.961 . S
H1406 C1391 0.961 . S
H1407 C1391 0.961 . S
H1408 C1392 0.931 . S
H1409 C1397 0.930 . S
H1410 C1398 0.956 . S
H1411 C1398 0.961 . S
H1412 C1398 0.961 . S
H1413 C1399 0.958 . S
H1414 C1399 0.961 . S
H1415 C1399 0.960 . S
C265 C229 1.220 . S
C273 C5 1.217 . S
C297 C31 1.218 . S
C305 C247 1.212 . S
C329 C141 1.219 . S
C337 C49 1.212 . S
C361 C75 1.221 . S
C369 C159 1.214 . S
C393 C93 1.207 . S
C401 C185 1.218 . S
C425 C203 1.220 . S
C433 C119 1.213 . S
C457 C6 1.275 . S
C465 C116 1.306 . S
C489 C29 1.200 . S
C497 C7 1.324 . S
C521 C28 1.300 . S
C529 C50 1.240 . S
C553 C73 1.179 . S
C561 C51 1.326 . S
C585 C94 1.279 . S
C593 C72 1.305 . S
C617 C117 1.180 . S
C625 C95 1.326 . S
C649 C139 1.203 . S
C657 C161 1.319 . S
C681 C160 1.270 . S
C689 C182 1.306 . S
C713 C183 1.193 . S
C721 C205 1.325 . S
C745 C226 1.287 . S
C753 C204 1.256 . S
C777 C249 1.333 . S
C785 C227 1.220 . S
C809 C138 1.300 . S
C817 C248 1.241 . S
C841 C4 1.303 . S
C849 C140 1.275 . S
C873 C158 1.303 . S
C881 C30 1.276 . S
C905 C48 1.269 . S
C913 C184 1.292 . S
C937 C74 1.276 . S
C945 C202 1.283 . S
C969 C228 1.259 . S
C977 C92 1.293 . S
C1001 C118 1.290 . S
C1009 C246 1.278 . S
C1033 C9 1.196 . S
C1041 C207 1.150 . S
C1065 C225 1.135 . S
C1073 C27 1.133 . S
C1097 C251 1.102 . S
C1105 C53 1.151 . S
C1129 C71 1.140 . S
C1137 C137 1.133 . S
C1161 C97 1.198 . S
C1169 C163 1.152 . S
C1193 C115 1.155 . S
C1201 C181 1.134 . S
C1225 C224 1.814 . S
C1233 C8 1.823 . S
C1257 C250 1.820 . S
C1265 C26 1.824 . S
C1289 C136 1.811 . S
C1297 C52 1.821 . S
C1321 C162 1.812 . S
C1329 C70 1.822 . S
C1353 C96 1.821 . S
C1361 C180 1.825 . S
C1385 C114 1.817 . S
C1393 C206 1.823 . S
