# Generated by pormake.
# Topology atn, (4)-cn, num edge types: 1
# Building blocks:
#     Node 0, Type 0, BuildingBlock: GALJAG_clean_sbu_0, # of connection points: 4
#     Node 1, Type 0, BuildingBlock: GALJAG_clean_sbu_0, # of connection points: 4
#     Node 2, Type 0, BuildingBlock: GALJAG_clean_sbu_0, # of connection points: 4
#     Node 3, Type 0, BuildingBlock: GALJAG_clean_sbu_0, # of connection points: 4
#     Node 4, Type 0, BuildingBlock: GALJAG_clean_sbu_0, # of connection points: 4
#     Node 5, Type 0, BuildingBlock: GALJAG_clean_sbu_0, # of connection points: 4
#     Node 6, Type 0, BuildingBlock: GALJAG_clean_sbu_0, # of connection points: 4
#     Node 7, Type 0, BuildingBlock: GALJAG_clean_sbu_0, # of connection points: 4
#     Node 8, Type 0, BuildingBlock: GALJAG_clean_sbu_0, # of connection points: 4
#     Node 9, Type 0, BuildingBlock: GALJAG_clean_sbu_0, # of connection points: 4
#     Node 10, Type 0, BuildingBlock: GALJAG_clean_sbu_0, # of connection points: 4
#     Node 11, Type 0, BuildingBlock: GALJAG_clean_sbu_0, # of connection points: 4
#     Node 12, Type 0, BuildingBlock: GALJAG_clean_sbu_0, # of connection points: 4
#     Node 13, Type 0, BuildingBlock: GALJAG_clean_sbu_0, # of connection points: 4
#     Node 14, Type 0, BuildingBlock: GALJAG_clean_sbu_0, # of connection points: 4
#     Node 15, Type 0, BuildingBlock: GALJAG_clean_sbu_0, # of connection points: 4
#     Edge 16, Type (0, 0), BuildingBlock: TEMPAE_clean_linker_10, # of connection points: 2
#     Edge 17, Type (0, 0), BuildingBlock: TEMPAE_clean_linker_10, # of connection points: 2
#     Edge 18, Type (0, 0), BuildingBlock: TEMPAE_clean_linker_10, # of connection points: 2
#     Edge 19, Type (0, 0), BuildingBlock: TEMPAE_clean_linker_10, # of connection points: 2
#     Edge 20, Type (0, 0), BuildingBlock: TEMPAE_clean_linker_10, # of connection points: 2
#     Edge 21, Type (0, 0), BuildingBlock: TEMPAE_clean_linker_10, # of connection points: 2
#     Edge 22, Type (0, 0), BuildingBlock: TEMPAE_clean_linker_10, # of connection points: 2
#     Edge 23, Type (0, 0), BuildingBlock: TEMPAE_clean_linker_10, # of connection points: 2
#     Edge 24, Type (0, 0), BuildingBlock: TEMPAE_clean_linker_10, # of connection points: 2
#     Edge 25, Type (0, 0), BuildingBlock: TEMPAE_clean_linker_10, # of connection points: 2
#     Edge 26, Type (0, 0), BuildingBlock: TEMPAE_clean_linker_10, # of connection points: 2
#     Edge 27, Type (0, 0), BuildingBlock: TEMPAE_clean_linker_10, # of connection points: 2
#     Edge 28, Type (0, 0), BuildingBlock: TEMPAE_clean_linker_10, # of connection points: 2
#     Edge 29, Type (0, 0), BuildingBlock: TEMPAE_clean_linker_10, # of connection points: 2
#     Edge 30, Type (0, 0), BuildingBlock: TEMPAE_clean_linker_10, # of connection points: 2
#     Edge 31, Type (0, 0), BuildingBlock: TEMPAE_clean_linker_10, # of connection points: 2
#     Edge 32, Type (0, 0), BuildingBlock: TEMPAE_clean_linker_10, # of connection points: 2
#     Edge 33, Type (0, 0), BuildingBlock: TEMPAE_clean_linker_10, # of connection points: 2
#     Edge 34, Type (0, 0), BuildingBlock: TEMPAE_clean_linker_10, # of connection points: 2
#     Edge 35, Type (0, 0), BuildingBlock: TEMPAE_clean_linker_10, # of connection points: 2
#     Edge 36, Type (0, 0), BuildingBlock: TEMPAE_clean_linker_10, # of connection points: 2
#     Edge 37, Type (0, 0), BuildingBlock: TEMPAE_clean_linker_10, # of connection points: 2
#     Edge 38, Type (0, 0), BuildingBlock: TEMPAE_clean_linker_10, # of connection points: 2
#     Edge 39, Type (0, 0), BuildingBlock: TEMPAE_clean_linker_10, # of connection points: 2
#     Edge 40, Type (0, 0), BuildingBlock: TEMPAE_clean_linker_10, # of connection points: 2
#     Edge 41, Type (0, 0), BuildingBlock: TEMPAE_clean_linker_10, # of connection points: 2
#     Edge 42, Type (0, 0), BuildingBlock: TEMPAE_clean_linker_10, # of connection points: 2
#     Edge 43, Type (0, 0), BuildingBlock: TEMPAE_clean_linker_10, # of connection points: 2
#     Edge 44, Type (0, 0), BuildingBlock: TEMPAE_clean_linker_10, # of connection points: 2
#     Edge 45, Type (0, 0), BuildingBlock: TEMPAE_clean_linker_10, # of connection points: 2
#     Edge 46, Type (0, 0), BuildingBlock: TEMPAE_clean_linker_10, # of connection points: 2
#     Edge 47, Type (0, 0), BuildingBlock: TEMPAE_clean_linker_10, # of connection points: 2
# Relax obj value: 0.083
# Max RMSD: 0.111
# Mean RMSD: 0.111
data_MOF--net-atn--node1-GALJAG_clean_sbu_0--edge1-TEMPAE_clean_linker_10
_symmetry_space_group_name_H-M    P1
_symmetry_Int_Tables_number       1
_symmetry_cell_setting            triclinic
loop_
_symmetry_equiv_pos_as_xyz
'x, y, z'
_cell_length_a     59.194145
_cell_length_b     59.21726
_cell_length_c     28.621874
_cell_angle_alpha  89.928603
_cell_angle_beta   90.040764
_cell_angle_gamma 89.989649
loop_
_atom_site_label
_atom_site_type_symbol
_atom_site_fract_x
_atom_site_fract_y
_atom_site_fract_z
_atom_type_partial_charge
In0 In 0.1825 0.36337 0.98066 0.0
O1 O 0.15337 0.36808 0.03299 0.0
O2 O 0.17337 0.33868 0.03897 0.0
C3 C 0.16692 0.36044 0.89214 0.0
C4 C 0.19021 0.40723 0.9973 0.0
C5 C 0.22096 0.33917 0.97741 0.0
O6 O 0.15691 0.35087 0.92583 0.0
O7 O 0.18443 0.37123 0.90339 0.0
O8 O 0.22023 0.35894 0.99372 0.0
O9 O 0.20238 0.3318 0.96215 0.0
C10 C 0.15773 0.35046 0.05597 0.0
O11 O 0.20082 0.39181 0.0185 0.0
O12 O 0.17584 0.40046 0.96792 0.0
In13 In 0.62386 0.18771 0.99652 0.0
O14 O 0.63198 0.15836 0.0466 0.0
O15 O 0.6195 0.1892 0.07471 0.0
C16 C 0.6342 0.17181 0.91094 0.0
C17 C 0.57914 0.19463 0.9901 0.0
C18 C 0.6564 0.21896 0.00415 0.0
O19 O 0.63276 0.15882 0.946 0.0
O20 O 0.63066 0.19236 0.91957 0.0
O21 O 0.63675 0.22368 0.98987 0.0
O22 O 0.65965 0.19845 0.01427 0.0
C23 C 0.62653 0.16948 0.08267 0.0
O24 O 0.59268 0.21006 1.00191 0.0
O25 O 0.58821 0.17583 0.98139 0.0
In26 In 0.80096 0.61998 1.00096 0.0
O27 O 0.77633 0.5906 0.99609 0.0
O28 O 0.81154 0.5835 0.00422 0.0
C29 C 0.76842 0.65132 0.01071 0.0
C30 C 0.82394 0.62752 0.08102 0.0
C31 C 0.81654 0.62285 0.91255 0.0
O32 O 0.76585 0.63127 0.0248 0.0
O33 O 0.78725 0.65535 0.992 0.0
O34 O 0.82965 0.6244 0.94733 0.0
O35 O 0.79607 0.61994 0.92279 0.0
C36 C 0.79171 0.57588 0.99992 0.0
O37 O 0.82574 0.64041 0.04606 0.0
O38 O 0.81123 0.61075 0.075 0.0
In39 In 0.37115 0.79754 0.99431 0.0
O40 O 0.36107 0.82603 0.04493 0.0
O41 O 0.3709 0.79412 0.07262 0.0
C42 C 0.36561 0.8152 0.90837 0.0
C43 C 0.41594 0.79098 0.99241 0.0
C44 C 0.33853 0.76629 0.99742 0.0
O45 O 0.36449 0.82736 0.94466 0.0
O46 O 0.36942 0.79456 0.91588 0.0
O47 O 0.35889 0.76179 0.00679 0.0
O48 O 0.33463 0.78653 0.98598 0.0
C49 C 0.36431 0.81394 0.08088 0.0
O50 O 0.40216 0.7754 0.98286 0.0
O51 O 0.40707 0.80971 0.00257 0.0
In52 In 0.1841 0.61819 0.03589 0.0
O53 O 0.15611 0.62962 0.98481 0.0
O54 O 0.18482 0.61253 0.958 0.0
C55 C 0.16778 0.62656 0.12179 0.0
C56 C 0.19056 0.57364 0.04571 0.0
C57 C 0.21616 0.64988 0.02804 0.0
O58 O 0.15491 0.62493 0.08659 0.0
O59 O 0.18855 0.62418 0.11324 0.0
O60 O 0.22033 0.62907 0.02384 0.0
O61 O 0.19582 0.65474 0.0367 0.0
C62 C 0.16635 0.62215 0.94926 0.0
O63 O 0.20677 0.58728 0.0409 0.0
O64 O 0.17119 0.58252 0.04587 0.0
In65 In 0.36679 0.18617 0.03314 0.0
O66 O 0.39672 0.20594 0.00413 0.0
O67 O 0.40336 0.17793 0.04878 0.0
C68 C 0.34199 0.22412 0.02694 0.0
C69 C 0.35322 0.16015 0.96024 0.0
C70 C 0.36243 0.17254 0.12266 0.0
O71 O 0.36042 0.22176 0.00532 0.0
O72 O 0.33639 0.20754 0.05206 0.0
O73 O 0.35742 0.15977 0.08876 0.0
O74 O 0.36948 0.19184 0.11107 0.0
C75 C 0.41128 0.19377 0.0243 0.0
O76 O 0.37301 0.15955 0.97627 0.0
O77 O 0.33997 0.17259 0.98296 0.0
In78 In 0.81019 0.36842 0.00248 0.0
O79 O 0.8401 0.36887 0.95129 0.0
O80 O 0.80814 0.35705 0.92735 0.0
C81 C 0.83421 0.36915 0.08343 0.0
C82 C 0.79272 0.40953 0.98662 0.0
C83 C 0.77929 0.33558 0.01399 0.0
O84 O 0.83496 0.35269 0.05561 0.0
O85 O 0.82243 0.3854 0.06919 0.0
O86 O 0.77508 0.35602 0.02279 0.0
O87 O 0.79912 0.3317 1.0001 0.0
C88 C 0.82849 0.36122 0.91767 0.0
O89 O 0.78275 0.39508 0.01166 0.0
O90 O 0.81125 0.40312 0.96942 0.0
In91 In 0.62477 0.81082 0.01338 0.0
O92 O 0.62095 0.84086 0.9632 0.0
O93 O 0.64734 0.81745 0.95047 0.0
C94 C 0.6229 0.83205 0.09726 0.0
C95 C 0.58319 0.79504 0.99515 0.0
C96 C 0.6528 0.77519 0.02 0.0
O97 O 0.63875 0.83547 0.06861 0.0
O98 O 0.6078 0.81891 0.0826 0.0
O99 O 0.63609 0.77559 0.99266 0.0
O100 O 0.65547 0.79286 0.04397 0.0
C101 C 0.63678 0.83468 0.93659 0.0
O102 O 0.59606 0.78585 0.02475 0.0
O103 O 0.59137 0.81205 0.97471 0.0
In104 In 0.67858 0.86777 0.51045 0.0
O105 O 0.65427 0.85356 0.56634 0.0
O106 O 0.67366 0.88244 0.58306 0.0
C107 C 0.65245 0.8562 0.43671 0.0
C108 C 0.69331 0.90984 0.4932 0.0
C109 C 0.71453 0.83998 0.50746 0.0
O110 O 0.64848 0.87344 0.46129 0.0
O111 O 0.66844 0.84409 0.45147 0.0
O112 O 0.71195 0.85615 0.47927 0.0
O113 O 0.69905 0.83791 0.53743 0.0
C114 C 0.65964 0.86797 0.59686 0.0
O115 O 0.70388 0.89643 0.51963 0.0
O116 O 0.67552 0.90194 0.47534 0.0
In117 In 0.12 0.68547 0.53534 0.0
O118 O 0.08929 0.70828 0.52638 0.0
O119 O 0.08424 0.67536 0.55436 0.0
C120 C 0.15264 0.71668 0.52923 0.0
C121 C 0.12972 0.66796 0.61987 0.0
C122 C 0.12283 0.66705 0.44943 0.0
O123 O 0.13318 0.7212 0.54474 0.0
O124 O 0.15565 0.69639 0.51721 0.0
O125 O 0.12954 0.65653 0.4854 0.0
O126 O 0.11441 0.6862 0.45742 0.0
C127 C 0.07555 0.69384 0.54189 0.0
O128 O 0.12566 0.65546 0.58501 0.0
O129 O 0.12921 0.68886 0.61151 0.0
In130 In 0.30191 0.12326 0.53647 0.0
O131 O 0.28287 0.09128 0.51726 0.0
O132 O 0.31788 0.08853 0.53377 0.0
C133 C 0.2653 0.14962 0.54394 0.0
C134 C 0.31708 0.12683 0.62497 0.0
C135 C 0.32027 0.13646 0.45431 0.0
O136 O 0.26395 0.12868 0.53606 0.0
O137 O 0.28513 0.15709 0.54929 0.0
O138 O 0.33249 0.13137 0.489 0.0
O139 O 0.29939 0.13526 0.4618 0.0
C140 C 0.2999 0.07865 0.52191 0.0
O141 O 0.32527 0.13856 0.59206 0.0
O142 O 0.30153 0.1135 0.61295 0.0
In143 In 0.86819 0.31342 0.49847 0.0
O144 O 0.85677 0.34096 0.55045 0.0
O145 O 0.88059 0.31661 0.57301 0.0
C146 C 0.85879 0.33851 0.42197 0.0
C147 C 0.90985 0.29667 0.4849 0.0
C148 C 0.83779 0.27972 0.49795 0.0
O149 O 0.84572 0.32341 0.43724 0.0
O150 O 0.87598 0.34202 0.44703 0.0
O151 O 0.85452 0.28017 0.47067 0.0
O152 O 0.83635 0.29632 0.52539 0.0
C153 C 0.86873 0.33344 0.58356 0.0
O154 O 0.89522 0.28638 0.50883 0.0
O155 O 0.90331 0.31508 0.46741 0.0
In156 In 0.69131 0.12228 0.49426 0.0
O157 O 0.7133 0.09108 0.48386 0.0
O158 O 0.67888 0.08644 0.50307 0.0
C159 C 0.72243 0.15511 0.49438 0.0
C160 C 0.67307 0.12788 0.40869 0.0
C161 C 0.67586 0.1293 0.58158 0.0
O162 O 0.72748 0.13459 0.50061 0.0
O163 O 0.70167 0.15902 0.48806 0.0
O164 O 0.66337 0.13224 0.54613 0.0
O165 O 0.69569 0.1229 0.57254 0.0
C166 C 0.69759 0.07743 0.49336 0.0
O167 O 0.66114 0.12901 0.44531 0.0
O168 O 0.69371 0.12392 0.41568 0.0
In169 In 0.86313 0.68582 0.49908 0.0
O170 O 0.84602 0.66211 0.44674 0.0
O171 O 0.8735 0.68232 0.42313 0.0
C172 C 0.85365 0.66742 0.5834 0.0
C173 C 0.90771 0.69148 0.50897 0.0
C174 C 0.83442 0.72059 0.48877 0.0
O175 O 0.85764 0.65528 0.5481 0.0
O176 O 0.85405 0.6883 0.57554 0.0
O177 O 0.85531 0.72344 0.49552 0.0
O178 O 0.82817 0.70025 0.48651 0.0
C179 C 0.85863 0.66788 0.41315 0.0
O180 O 0.89395 0.70764 0.51324 0.0
O181 O 0.89896 0.67257 0.49972 0.0
In182 In 0.30676 0.86562 0.4959 0.0
O183 O 0.3355 0.85664 0.44519 0.0
O184 O 0.30197 0.85966 0.41884 0.0
C185 C 0.32506 0.86181 0.58179 0.0
C186 C 0.30073 0.91043 0.49112 0.0
C187 C 0.27454 0.83395 0.50129 0.0
O188 O 0.33606 0.85647 0.5455 0.0
O189 O 0.30546 0.86926 0.57416 0.0
O190 O 0.27046 0.85389 0.48798 0.0
O191 O 0.29491 0.82995 0.51154 0.0
C192 C 0.32248 0.85582 0.41009 0.0
O193 O 0.28551 0.89725 0.50547 0.0
O194 O 0.31891 0.90101 0.47906 0.0
In195 In 0.12001 0.30277 0.4806 0.0
O196 O 0.09036 0.27841 0.47662 0.0
O197 O 0.0846 0.31114 0.50498 0.0
C198 C 0.14476 0.26494 0.48898 0.0
C199 C 0.12251 0.3206 0.39322 0.0
C200 C 0.13386 0.32712 0.55538 0.0
O201 O 0.12839 0.26939 0.51564 0.0
O202 O 0.14835 0.27939 0.45736 0.0
O203 O 0.14565 0.3119 0.53676 0.0
O204 O 0.11562 0.33131 0.53423 0.0
C205 C 0.07645 0.29218 0.49401 0.0
O206 O 0.13518 0.32726 0.42593 0.0
O207 O 0.10868 0.30555 0.40499 0.0
C208 C 0.17612 0.53512 0.06248 0.0
C209 C 0.19376 0.54904 0.04731 0.0
C210 C 0.17777 0.51161 0.05894 0.0
C211 C 0.19736 0.50193 0.0389 0.0
C212 C 0.21568 0.51588 0.02563 0.0
C213 C 0.21373 0.53935 0.03038 0.0
C214 C 0.15806 0.49722 0.07431 0.0
C215 C 0.23671 0.50615 0.00365 0.0
C216 C 0.20397 0.43841 0.04845 0.0
C217 C 0.19373 0.43135 0.0068 0.0
C218 C 0.20577 0.46145 0.05917 0.0
C219 C 0.19745 0.47761 0.02702 0.0
C220 C 0.18793 0.47053 0.9841 0.0
C221 C 0.18599 0.44744 0.97472 0.0
C222 C 0.21574 0.46845 0.10549 0.0
C223 C 0.17922 0.48731 0.94858 0.0
H224 H 0.16076 0.54263 0.07606 0.0
H225 H 0.22738 0.55015 0.01861 0.0
H226 H 0.14966 0.48984 0.04319 0.0
H227 H 0.16399 0.483 0.09641 0.0
H228 H 0.14533 0.50708 0.09421 0.0
H229 H 0.25038 0.5189 1.00032 0.0
H230 H 0.24312 0.49168 0.02445 0.0
H231 H 0.23259 0.49969 0.96827 0.0
H232 H 0.2099 0.42591 0.07332 0.0
H233 H 0.17826 0.44197 0.9423 0.0
H234 H 0.20248 0.4765 0.12721 0.0
H235 H 0.22926 0.48117 0.10017 0.0
H236 H 0.22287 0.4539 0.12511 0.0
H237 H 0.1646 0.49663 0.96327 0.0
H238 H 0.17379 0.47905 0.91561 0.0
H239 H 0.19249 0.49993 0.94026 0.0
C240 C 0.45076 0.18661 0.04954 0.0
C241 C 0.43574 0.19718 0.01868 0.0
C242 C 0.47413 0.18849 0.04338 0.0
C243 C 0.48261 0.20093 0.00496 0.0
C244 C 0.46753 0.21204 0.97419 0.0
C245 C 0.44418 0.21018 0.98166 0.0
C246 C 0.48972 0.17668 0.07735 0.0
C247 C 0.47603 0.2252 0.93255 0.0
C248 C 0.54463 0.21616 0.01241 0.0
C249 C 0.5545 0.1978 0.98929 0.0
C250 C 0.52108 0.21794 0.01629 0.0
C251 C 0.50724 0.20113 0.99592 0.0
C252 C 0.51714 0.18325 0.97035 0.0
C253 C 0.5407 0.18169 0.96768 0.0
C254 C 0.5111 0.2371 0.04424 0.0
C255 C 0.50288 0.16521 0.94751 0.0
H256 H 0.44424 0.1767 0.07841 0.0
H257 H 0.43254 0.2183 0.9577 0.0
H258 H 0.49918 0.16316 0.05903 0.0
H259 H 0.50232 0.18877 0.0914 0.0
H260 H 0.48044 0.16899 0.1071 0.0
H261 H 0.46217 0.23398 0.91366 0.0
H262 H 0.48868 0.23791 0.94373 0.0
H263 H 0.4846 0.21358 0.90789 0.0
H264 H 0.55531 0.22862 0.02916 0.0
H265 H 0.54834 0.1676 0.94939 0.0
H266 H 0.50338 0.23031 0.07666 0.0
H267 H 0.49748 0.24558 0.02417 0.0
H268 H 0.52399 0.24988 0.05407 0.0
H269 H 0.4945 0.15487 0.97481 0.0
H270 H 0.51306 0.15381 0.92502 0.0
H271 H 0.4894 0.17301 0.92594 0.0
C272 C 0.77171 0.44271 0.01745 0.0
C273 C 0.78503 0.43304 0.98235 0.0
C274 C 0.76849 0.46615 0.01922 0.0
C275 C 0.77853 0.47996 0.98458 0.0
C276 C 0.79007 0.46997 0.94657 0.0
C277 C 0.79341 0.44658 0.94621 0.0
C278 C 0.7562 0.47621 0.06044 0.0
C279 C 0.80056 0.4841 0.90837 0.0
C280 C 0.76746 0.54303 0.97803 0.0
C281 C 0.78712 0.55149 0.99895 0.0
C282 C 0.76402 0.51966 0.97393 0.0
C283 C 0.78045 0.50464 0.99198 0.0
C284 C 0.79984 0.5132 0.01493 0.0
C285 C 0.80304 0.53654 0.01769 0.0
C286 C 0.74334 0.51108 0.94869 0.0
C287 C 0.81757 0.49771 0.03544 0.0
H288 H 0.76522 0.43219 0.04542 0.0
H289 H 0.80347 0.43901 0.91871 0.0
H290 H 0.76871 0.48357 0.08498 0.0
H291 H 0.74479 0.49003 0.04914 0.0
H292 H 0.74616 0.46334 0.07959 0.0
H293 H 0.80564 0.47371 0.87785 0.0
H294 H 0.78864 0.49736 0.89639 0.0
H295 H 0.81582 0.49271 0.92216 0.0
H296 H 0.75519 0.55466 0.96343 0.0
H297 H 0.81812 0.54312 0.03433 0.0
H298 H 0.73471 0.49791 0.9697 0.0
H299 H 0.7485 0.50314 0.91526 0.0
H300 H 0.73111 0.52482 0.94091 0.0
H301 H 0.8096 0.48525 0.05926 0.0
H302 H 0.83072 0.5071 0.05518 0.0
H303 H 0.82596 0.48812 0.00704 0.0
C304 C 0.54715 0.7967 0.95083 0.0
C305 C 0.55957 0.7881 0.9885 0.0
C306 C 0.52377 0.79345 0.94818 0.0
C307 C 0.51265 0.78165 0.98451 0.0
C308 C 0.52535 0.77153 0.02082 0.0
C309 C 0.54879 0.77476 0.02222 0.0
C310 C 0.51081 0.80413 0.90842 0.0
C311 C 0.51404 0.75894 0.06029 0.0
C312 C 0.45452 0.8041 0.01222 0.0
C313 C 0.44056 0.7878 0.99176 0.0
C314 C 0.47801 0.80189 0.01107 0.0
C315 C 0.48776 0.78306 0.98828 0.0
C316 C 0.47377 0.76636 0.968 0.0
C317 C 0.45021 0.76886 0.97026 0.0
C318 C 0.4924 0.81992 0.03366 0.0
C319 C 0.48367 0.74623 0.94303 0.0
H320 H 0.55556 0.80676 0.92438 0.0
H321 H 0.55842 0.76803 0.05131 0.0
H322 H 0.49815 0.79218 0.89417 0.0
H323 H 0.50153 0.81913 0.92148 0.0
H324 H 0.52213 0.80963 0.87962 0.0
H325 H 0.52637 0.74921 0.08159 0.0
H326 H 0.50537 0.77119 0.08346 0.0
H327 H 0.50104 0.74717 0.0467 0.0
H328 H 0.44706 0.81866 0.0292 0.0
H329 H 0.43939 0.75627 0.95435 0.0
H330 H 0.50282 0.82848 0.00674 0.0
H331 H 0.50414 0.81218 0.05931 0.0
H332 H 0.48211 0.83289 0.05189 0.0
H333 H 0.49327 0.75201 0.91196 0.0
H334 H 0.47047 0.73413 0.93143 0.0
H335 H 0.49574 0.73723 0.96614 0.0
C336 C 0.68453 0.03899 0.51458 0.0
C337 C 0.70061 0.05278 0.49289 0.0
C338 C 0.6865 0.01547 0.51333 0.0
C339 C 0.70481 0.00555 0.48907 0.0
C340 C 0.7213 0.01938 0.4676 0.0
C341 C 0.71909 0.04295 0.4701 0.0
C342 C 0.66874 0.00125 0.53729 0.0
C343 C 0.74085 0.00931 0.44095 0.0
C344 C 0.71367 0.94418 0.52036 0.0
C345 C 0.69978 0.93364 0.4873 0.0
C346 C 0.71669 0.96765 0.51976 0.0
C347 C 0.70584 0.98065 0.4848 0.0
C348 C 0.69331 0.96982 0.44916 0.0
C349 C 0.69025 0.9464 0.45111 0.0
C350 C 0.73 0.97865 0.55857 0.0
C351 C 0.68185 0.98309 0.41078 0.0
H352 H 0.67033 0.0466 0.53257 0.0
H353 H 0.7315 0.05366 0.45321 0.0
H354 H 0.65945 0.99111 0.51097 0.0
H355 H 0.67684 0.98926 0.56196 0.0
H356 H 0.65634 0.01165 0.55688 0.0
H357 H 0.7529 0.02238 0.42855 0.0
H358 H 0.7501 -0.00295 0.46319 0.0
H359 H 0.73438 -0.00011 0.41025 0.0
H360 H 0.72106 0.93428 0.54837 0.0
H361 H 0.67971 0.93818 0.4252 0.0
H362 H 0.7182 0.98739 0.58263 0.0
H363 H 0.74171 0.99156 0.54439 0.0
H364 H 0.7399 0.96614 0.57906 0.0
H365 H 0.66728 0.99248 0.42549 0.0
H366 H 0.67557 0.97199 0.38233 0.0
H367 H 0.69363 -0.00432 0.39562 0.0
C368 C 0.9409 0.71185 0.54187 0.0
C369 C 0.93221 0.69437 0.51429 0.0
C370 C 0.96426 0.714 0.54885 0.0
C371 C 0.97909 0.69867 0.52661 0.0
C372 C 0.97035 0.68143 0.49755 0.0
C373 C 0.94695 0.67929 0.49229 0.0
C374 C 0.97301 0.73223 0.58096 0.0
C375 C 0.9857 0.66509 0.47237 0.0
C376 C 0.04107 0.7121 0.50965 0.0
C377 C 0.051 0.69743 0.54208 0.0
C378 C 0.01751 0.71332 0.50519 0.0
C379 C 0.00376 0.69997 0.53477 0.0
C380 C 0.01377 0.68621 0.56955 0.0
C381 C 0.03734 0.68485 0.57233 0.0
C382 C 0.00743 0.7278 0.46705 0.0
C383 C -0.00039 0.67218 0.6025 0.0
H384 H 0.92941 0.72342 0.55906 0.0
H385 H 0.94017 0.6659 0.47062 0.0
H386 H 0.98196 0.72439 0.61097 0.0
H387 H 0.98542 0.743 0.56236 0.0
H388 H 0.95926 0.74314 0.59462 0.0
H389 H 0.97623 0.65363 0.44869 0.0
H390 H -0.0016 0.67448 0.4515 0.0
H391 H -0.00496 0.65465 0.49813 0.0
H392 H 0.0517 0.72173 0.48609 0.0
H393 H 0.04511 0.67365 0.59769 0.0
H394 H 0.99397 0.73883 0.48134 0.0
H395 H -0.00051 0.7168 0.44031 0.0
H396 H 0.0203 0.73856 0.44964 0.0
H397 H 0.9861 0.68265 0.61835 0.0
H398 H 0.00988 0.66455 0.63095 0.0
H399 H 0.99127 0.65837 0.58284 0.0
C400 C 0.28216 0.04467 0.4863 0.0
C401 C 0.29881 0.05412 0.51503 0.0
C402 C 0.28117 0.02127 0.47926 0.0
C403 C 0.2968 0.00713 0.50266 0.0
C404 C 0.31343 0.01664 0.53226 0.0
C405 C 0.31443 0.0401 0.53755 0.0
C406 C 0.26363 0.0117 0.44649 0.0
C407 C 0.33004 0.00202 0.55864 0.0
C408 C 0.28329 0.94541 0.5225 0.0
C409 C 0.29805 0.93507 0.49091 0.0
C410 C 0.2823 0.96898 0.52603 0.0
C411 C 0.29595 0.98235 0.49629 0.0
C412 C 0.31002 0.97194 0.46266 0.0
C413 C 0.31116 0.94833 0.46087 0.0
C414 C 0.26752 0.97952 0.56306 0.0
C415 C 0.32433 0.9857 0.42953 0.0
H416 H 0.27018 0.05561 0.46868 0.0
H417 H 0.32718 0.04747 0.56007 0.0
H418 H 0.27202 0.00194 0.41833 0.0
H419 H 0.25244 -0.00016 0.46557 0.0
H420 H 0.25303 0.02507 0.43027 0.0
H421 H 0.34133 0.01207 0.58164 0.0
H422 H 0.32082 0.98955 0.58043 0.0
H423 H 0.34063 0.99238 0.5337 0.0
H424 H 0.27326 0.93507 0.54589 0.0
H425 H 0.32243 0.94024 0.43616 0.0
H426 H 0.25608 0.99224 0.54723 0.0
H427 H 0.27825 0.98847 0.5889 0.0
H428 H 0.25715 0.96679 0.58183 0.0
H429 H 0.31389 -0.00123 0.41201 0.0
H430 H 0.33248 0.97507 0.40237 0.0
H431 H 0.33775 -0.00541 0.44935 0.0
C432 C 0.03812 0.30194 0.52274 0.0
C433 C 0.05214 0.28731 0.49763 0.0
C434 C 0.01464 0.29937 0.5217 0.0
C435 C 0.00502 0.28191 0.49442 0.0
C436 C 0.01915 0.26631 0.47109 0.0
C437 C 0.04265 0.26915 0.47315 0.0
C438 C 0.0001 0.31616 0.54766 0.0
C439 C 0.00946 0.24751 0.44168 0.0
C440 C 0.94238 0.27416 0.5148 0.0
C441 C 0.93352 0.2893 0.48188 0.0
C442 C 0.96573 0.27035 0.5176 0.0
C443 C 0.98031 0.28181 0.4864 0.0
C444 C 0.9712 0.29566 0.45071 0.0
C445 C 0.94788 0.29936 0.44909 0.0
C446 C 0.97486 0.25546 0.55605 0.0
C447 C 0.9862 0.30787 0.41625 0.0
H448 H 0.04547 0.31584 0.54212 0.0
H449 H 0.05352 0.25778 0.45378 0.0
H450 H 0.9909 0.32693 0.52223 0.0
H451 H 0.98729 0.30723 0.56909 0.0
H452 H 0.01021 0.32728 0.57089 0.0
H453 H 0.02252 0.23494 0.43165 0.0
H454 H -0.00431 0.23869 0.46059 0.0
H455 H 0.00207 0.25474 0.40931 0.0
H456 H 0.93125 0.26634 0.54016 0.0
H457 H 0.94098 0.31087 0.42326 0.0
H458 H 0.98248 0.26617 0.58366 0.0
H459 H 0.98834 0.24419 0.54263 0.0
H460 H 0.96141 0.24496 0.57221 0.0
H461 H -0.00425 0.32132 0.43462 0.0
H462 H 0.97636 0.31578 0.38748 0.0
H463 H -0.0013 0.29607 0.40088 0.0
C464 C 0.2417 0.30391 0.95753 0.0
C465 C 0.24143 0.32504 0.97946 0.0
C466 C 0.26 0.28917 0.96332 0.0
C467 C 0.27834 0.29568 0.99209 0.0
C468 C 0.27861 0.31739 0.01269 0.0
C469 C 0.26014 0.33189 0.00595 0.0
C470 C 0.25923 0.26623 0.94036 0.0
C471 C 0.29783 0.32485 0.04372 0.0
C472 C 0.30829 0.2466 0.04974 0.0
C473 C 0.3272 0.24394 0.0209 0.0
C474 C 0.29274 0.264 0.04181 0.0
C475 C 0.29611 0.27895 0.00382 0.0
C476 C 0.31561 0.27685 0.97556 0.0
C477 C 0.33103 0.25937 0.98459 0.0
C478 C 0.27226 0.26585 0.07305 0.0
C479 C 0.31966 0.29244 0.93465 0.0
H480 H 0.22733 0.29864 0.93674 0.0
H481 H 0.25998 0.34824 0.02294 0.0
H482 H 0.27512 0.26301 0.92095 0.0
H483 H 0.25769 0.25293 0.96753 0.0
H484 H 0.24478 0.26457 0.9158 0.0
H485 H 0.29657 0.34299 0.05325 0.0
H486 H 0.29779 0.31469 0.07631 0.0
H487 H 0.31429 0.32192 0.02622 0.0
H488 H 0.30538 0.23477 0.07805 0.0
H489 H 0.34564 0.25732 0.96219 0.0
H490 H 0.25676 0.26222 0.05256 0.0
H491 H 0.27068 0.28328 0.08682 0.0
H492 H 0.273 0.25393 0.10302 0.0
H493 H 0.30657 0.28952 0.90758 0.0
H494 H 0.33655 0.28981 0.91863 0.0
H495 H 0.31823 0.31033 0.94576 0.0
C496 C 0.74293 0.32064 0.04507 0.0
C497 C 0.76198 0.31782 0.01671 0.0
C498 C 0.72583 0.30426 0.0461 0.0
C499 C 0.72762 0.28503 0.01698 0.0
C500 C 0.74693 0.28207 0.9885 0.0
C501 C 0.76405 0.29839 0.98922 0.0
C502 C 0.70576 0.30764 0.07785 0.0
C503 C 0.74917 0.26205 0.95618 0.0
C504 C 0.69231 0.23272 0.03928 0.0
C505 C 0.67428 0.23606 0.00831 0.0
C506 C 0.70952 0.24885 0.04345 0.0
C507 C 0.70894 0.26838 0.01493 0.0
C508 C 0.69078 0.27176 0.98344 0.0
C509 C 0.67347 0.25567 0.98101 0.0
C510 C 0.72832 0.24499 0.07826 0.0
C511 C 0.68989 0.29212 0.95166 0.0
H512 H 0.74143 0.33564 0.06653 0.0
H513 H 0.77873 0.29632 0.96699 0.0
H514 H 0.69021 0.30978 0.05667 0.0
H515 H 0.70329 0.29251 0.10019 0.0
H516 H 0.70773 0.32266 0.10071 0.0
H517 H 0.76535 0.2622 0.93652 0.0
H518 H 0.74813 0.24609 0.97637 0.0
H519 H 0.73501 0.26201 0.93075 0.0
H520 H 0.69279 0.21761 0.06069 0.0
H521 H 0.65956 0.25815 0.95686 0.0
H522 H 0.72973 0.25971 0.10205 0.0
H523 H 0.74468 0.24337 0.05972 0.0
H524 H 0.7256 0.22954 0.09959 0.0
H525 H 0.68986 0.30784 0.97268 0.0
H526 H 0.6747 0.2921 0.92886 0.0
H527 H 0.70516 0.29256 0.9292 0.0
C528 C 0.75378 0.68969 0.99279 0.0
C529 C 0.75084 0.6688 0.01502 0.0
C530 C 0.73724 0.70651 0.99564 0.0
C531 C 0.71738 0.70241 0.02177 0.0
C532 C 0.7144 0.68145 0.0448 0.0
C533 C 0.73117 0.66479 0.04093 0.0
C534 C 0.74092 0.72859 0.97024 0.0
C535 C 0.6935 0.67663 0.07331 0.0
C536 C 0.68512 0.75492 0.05712 0.0
C537 C 0.6684 0.75584 0.02249 0.0
C538 C 0.70069 0.73709 0.05845 0.0
C539 C 0.69962 0.72001 0.02396 0.0
C540 C 0.68245 0.72061 0.98955 0.0
C541 C 0.66695 0.73849 0.9894 0.0
C542 C 0.71865 0.73684 0.09595 0.0
C543 C 0.68095 0.70282 0.95191 0.0
H544 H 0.76896 0.69284 0.97264 0.0
H545 H 0.72891 0.64867 0.05829 0.0
H546 H 0.72717 0.73135 0.9445 0.0
H547 H 0.74038 0.74284 0.99534 0.0
H548 H 0.75735 0.72909 0.95152 0.0
H549 H 0.69408 0.65972 0.09014 0.0
H550 H 0.6915 0.68963 0.10087 0.0
H551 H 0.67831 0.67751 0.05068 0.0
H552 H 0.68616 0.76825 0.08296 0.0
H553 H 0.65402 0.73916 0.96258 0.0
H554 H 0.73553 0.73916 0.07983 0.0
H555 H 0.71879 0.72027 0.11409 0.0
H556 H 0.71606 0.75036 0.12229 0.0
H557 H 0.6963 0.70347 0.92973 0.0
H558 H 0.6659 0.70511 0.92919 0.0
H559 H 0.68024 0.68574 0.96781 0.0
C560 C 0.23196 0.68774 0.04658 0.0
C561 C 0.23374 0.66719 0.02278 0.0
C562 C 0.24893 0.70414 0.04269 0.0
C563 C 0.26764 0.70008 0.01307 0.0
C564 C 0.26919 0.67953 0.98808 0.0
C565 C 0.25237 0.66314 0.99387 0.0
C566 C 0.24706 0.7256 0.07089 0.0
C567 C 0.28857 0.67491 0.95513 0.0
C568 C 0.30125 0.751 0.97279 0.0
C569 C 0.32053 0.74932 1.00091 0.0
C570 C 0.28399 0.73485 0.97583 0.0
C571 C 0.28585 0.71714 0.0089 0.0
C572 C 0.30517 0.71563 0.0379 0.0
C573 C 0.3225 0.73156 0.03297 0.0
C574 C 0.26394 0.73659 0.94339 0.0
C575 C 0.30742 0.69735 0.07446 0.0
H576 H 0.21756 0.69075 0.06914 0.0
H577 H 0.25356 0.64728 0.97514 0.0
H578 H 0.26204 0.72736 0.09394 0.0
H579 H 0.24683 0.74047 0.04731 0.0
H580 H 0.2316 0.72596 0.09286 0.0
H581 H 0.2866 0.65859 0.93645 0.0
H582 H 0.28986 0.68867 0.92891 0.0
H583 H 0.30471 0.67454 0.97479 0.0
H584 H 0.29987 0.76472 0.94782 0.0
H585 H 0.33736 0.73046 0.05501 0.0
H586 H 0.24819 0.73869 0.96391 0.0
H587 H 0.26219 0.72076 0.92298 0.0
H588 H 0.26544 0.75099 0.91867 0.0
H589 H 0.29271 0.69784 0.09845 0.0
H590 H 0.32312 0.69911 0.09543 0.0
H591 H 0.30748 0.68051 0.05756 0.0
C592 C 0.82444 0.76092 0.50283 0.0
C593 C 0.81822 0.73945 0.48683 0.0
C594 C 0.80852 0.77843 0.50528 0.0
C595 C 0.78604 0.77437 0.49069 0.0
C596 C 0.77993 0.75294 0.47282 0.0
C597 C 0.79608 0.73567 0.47146 0.0
C598 C 0.81555 0.801 0.525 0.0
C599 C 0.75619 0.7481 0.45623 0.0
C600 C 0.73788 0.80883 0.54063 0.0
C601 C 0.73363 0.8241 0.50426 0.0
C602 C 0.75534 0.79295 0.53715 0.0
C603 C 0.76858 0.79214 0.49601 0.0
C604 C 0.76455 0.80771 0.45942 0.0
C605 C 0.74718 0.82365 0.46414 0.0
C606 C 0.75938 0.77679 0.57717 0.0
C607 C 0.77814 0.80712 0.41481 0.0
H608 H 0.84155 0.76384 0.51492 0.0
H609 H 0.79129 0.71909 0.45882 0.0
H610 H 0.81133 0.81474 0.50009 0.0
H611 H 0.80607 0.80437 0.5577 0.0
H612 H 0.83392 0.80173 0.53281 0.0
H613 H 0.7546 0.73104 0.44046 0.0
H614 H 0.74428 0.74929 0.48603 0.0
H615 H 0.75091 0.76086 0.42999 0.0
H616 H 0.72748 0.80924 0.57178 0.0
H617 H 0.74385 0.8354 0.43589 0.0
H618 H 0.77729 0.77761 0.58848 0.0
H619 H 0.75607 0.75923 0.56557 0.0
H620 H 0.74842 0.78048 0.60772 0.0
H621 H 0.79643 0.80856 0.42275 0.0
H622 H 0.77337 0.82091 0.39035 0.0
H623 H 0.77556 0.7907 0.39697 0.0
C624 C 0.25973 0.79811 0.53478 0.0
C625 C 0.2568 0.81667 0.50502 0.0
C626 C 0.24275 0.78178 0.53955 0.0
C627 C 0.22269 0.78384 0.51294 0.0
C628 C 0.21982 0.80239 0.48226 0.0
C629 C 0.23683 0.81878 0.47914 0.0
C630 C 0.24617 0.76249 0.5734 0.0
C631 C 0.19887 0.80482 0.45253 0.0
C632 C 0.18839 0.73062 0.49388 0.0
C633 C 0.17052 0.73381 0.52524 0.0
C634 C 0.20537 0.74694 0.48907 0.0
C635 C 0.20469 0.76656 0.51721 0.0
C636 C 0.18682 0.7697 0.54941 0.0
C637 C 0.16975 0.75337 0.5526 0.0
C638 C 0.22389 0.7433 0.4536 0.0
C639 C 0.18585 0.79018 0.58073 0.0
H640 H 0.27514 0.7966 0.55506 0.0
H641 H 0.23465 0.83309 0.45589 0.0
H642 H 0.23226 0.76225 0.59938 0.0
H643 H 0.24565 0.74617 0.55448 0.0
H644 H 0.26251 0.76369 0.59234 0.0
H645 H 0.19957 0.8199 0.42944 0.0
H646 H 0.19664 0.78958 0.43049 0.0
H647 H 0.18373 0.8062 0.47515 0.0
H648 H 0.18887 0.71553 0.47247 0.0
H649 H 0.15597 0.75573 0.57706 0.0
H650 H 0.24054 0.74271 0.47135 0.0
H651 H 0.22434 0.75765 0.42866 0.0
H652 H 0.2216 0.7274 0.43358 0.0
H653 H 0.20155 0.79131 0.60184 0.0
H654 H 0.17114 0.78974 0.6048 0.0
H655 H 0.18481 0.80576 0.55929 0.0
C656 C 0.24757 0.18731 0.55549 0.0
C657 C 0.24549 0.16466 0.5422 0.0
C658 C 0.22968 0.20249 0.54897 0.0
C659 C 0.20939 0.19481 0.52815 0.0
C660 C 0.2069 0.17176 0.51624 0.0
C661 C 0.22499 0.15689 0.52369 0.0
C662 C 0.23281 0.2269 0.56275 0.0
C663 C 0.18555 0.16304 0.49371 0.0
C664 C 0.15845 0.23321 0.53872 0.0
C665 C 0.15977 0.24547 0.49687 0.0
C666 C 0.17418 0.21621 0.54898 0.0
C667 C 0.19139 0.21126 0.51632 0.0
C668 C 0.19221 0.22295 0.47316 0.0
C669 C 0.17643 0.24004 0.46407 0.0
C670 C 0.17293 0.2042 0.59549 0.0
C671 C 0.21018 0.2179 0.43722 0.0
H672 H 0.26338 0.19332 0.57004 0.0
H673 H 0.22337 0.13937 0.51325 0.0
H674 H 0.23271 0.2377 0.53104 0.0
H675 H 0.21863 0.23252 0.58523 0.0
H676 H 0.24893 0.22975 0.58176 0.0
H677 H 0.18569 0.14439 0.48971 0.0
H678 H 0.17058 0.16792 0.51468 0.0
H679 H 0.18354 0.1708 0.45864 0.0
H680 H 0.1456 0.23743 0.56423 0.0
H681 H 0.17741 0.24944 0.43161 0.0
H682 H 0.18807 0.20841 0.61663 0.0
H683 H 0.17292 0.18564 0.59032 0.0
H684 H 0.15762 0.20897 0.61565 0.0
H685 H 0.22704 0.22242 0.45139 0.0
H686 H 0.2075 0.2274 0.40418 0.0
H687 H 0.21047 0.19958 0.42922 0.0
C688 C 0.82022 0.24624 0.45984 0.0
C689 C 0.82107 0.2613 0.4975 0.0
C690 C 0.80419 0.22883 0.45863 0.0
C691 C 0.78897 0.22627 0.49639 0.0
C692 C 0.78994 0.24129 0.53475 0.0
C693 C 0.80588 0.25879 0.53465 0.0
C694 C 0.8034 0.21332 0.41681 0.0
C695 C 0.77419 0.23884 0.57594 0.0
C696 C 0.73411 0.19465 0.47709 0.0
C697 C 0.73949 0.17321 0.49462 0.0
C698 C 0.75016 0.21204 0.47699 0.0
C699 C 0.77193 0.20793 0.49563 0.0
C700 C 0.7774 0.18634 0.51366 0.0
C701 C 0.76113 0.16914 0.51256 0.0
C702 C 0.74387 0.23476 0.4568 0.0
C703 C 0.80035 0.18147 0.53444 0.0
H704 H 0.8319 0.24824 0.43097 0.0
H705 H 0.80661 0.27037 0.56391 0.0
H706 H 0.80624 0.19561 0.42801 0.0
H707 H 0.78642 0.21406 0.40038 0.0
H708 H 0.81625 0.21778 0.39009 0.0
H709 H 0.7775 0.25161 0.60349 0.0
H710 H 0.75641 0.24058 0.56421 0.0
H711 H 0.77598 0.22176 0.59148 0.0
H712 H 0.7174 0.19777 0.46298 0.0
H713 H 0.76527 0.15259 0.52634 0.0
H714 H 0.75572 0.23931 0.42828 0.0
H715 H 0.74535 0.24799 0.48404 0.0
H716 H 0.72638 0.23502 0.44272 0.0
H717 H 0.81369 0.18432 0.50789 0.0
H718 H 0.80179 0.16386 0.54756 0.0
H719 H 0.80372 0.19322 0.5638 0.0
C720 C 0.10891 0.32073 0.31074 0.0
C721 C 0.12463 0.32815 0.34409 0.0
C722 C 0.11184 0.32541 0.26307 0.0
C723 C 0.13103 0.33771 0.24829 0.0
C724 C 0.14645 0.34611 0.282 0.0
C725 C 0.14303 0.34127 0.32958 0.0
C726 C 0.09491 0.31631 0.22837 0.0
C727 C 0.1671 0.35934 0.26761 0.0
C728 C 0.15498 0.32655 0.12751 0.0
C729 C 0.14815 0.34583 0.10278 0.0
C730 C 0.14908 0.32351 0.17456 0.0
C731 C 0.13599 0.34015 0.19751 0.0
C732 C 0.12822 0.35921 0.17221 0.0
C733 C 0.13441 0.36183 0.12507 0.0
C734 C 0.15757 0.30286 0.20016 0.0
C735 C 0.11409 0.37721 0.19537 0.0
H736 H 0.09454 0.3107 0.32176 0.0
H737 H 0.15521 0.34705 0.35521 0.0
H738 H 0.08931 0.32987 0.20422 0.0
H739 H 0.10296 0.30298 0.20685 0.0
H740 H 0.07981 0.30899 0.24575 0.0
H741 H 0.17647 0.36616 0.29814 0.0
H742 H 0.17865 0.34828 0.24742 0.0
H743 H 0.16224 0.37359 0.2445 0.0
H744 H 0.16562 0.31413 0.11052 0.0
H745 H 0.12917 0.37683 0.10622 0.0
H746 H 0.14322 0.29362 0.21617 0.0
H747 H 0.16901 0.30805 0.22892 0.0
H748 H 0.16686 0.29111 0.17683 0.0
H749 H 0.09925 0.3695 0.21287 0.0
H750 H 0.10804 0.39012 0.17009 0.0
H751 H 0.1242 0.38579 0.22275 0.0
C752 C 0.64096 0.13055 0.35155 0.0
C753 C 0.66416 0.13167 0.36107 0.0
C754 C 0.63271 0.13448 0.30612 0.0
C755 C 0.64802 0.14017 0.26991 0.0
C756 C 0.67146 0.14112 0.27945 0.0
C757 C 0.67923 0.13662 0.32473 0.0
C758 C 0.60766 0.13285 0.29699 0.0
C759 C 0.68833 0.14762 0.24217 0.0
C760 C 0.63429 0.13833 0.14012 0.0
C761 C 0.62979 0.16114 0.13092 0.0
C762 C 0.63896 0.13093 0.18586 0.0
C763 C 0.63967 0.14684 0.22281 0.0
C764 C 0.63451 0.16976 0.21376 0.0
C765 C 0.6294 0.17656 0.16807 0.0
C766 C 0.64387 0.10626 0.19439 0.0
C767 C 0.63554 0.18737 0.25186 0.0
H768 H 0.62929 0.12653 0.37952 0.0
H769 H 0.69719 0.13757 0.33195 0.0
H770 H 0.60086 0.14976 0.28802 0.0
H771 H 0.6044 0.12165 0.26667 0.0
H772 H 0.59827 0.12626 0.32771 0.0
H773 H 0.70602 0.14713 0.25512 0.0
H774 H 0.68688 0.13609 0.21183 0.0
H775 H 0.68466 0.16495 0.22944 0.0
H776 H 0.63444 0.12633 0.11154 0.0
H777 H 0.62596 0.19424 0.16118 0.0
H778 H 0.63399 0.1 0.2247 0.0
H779 H 0.66201 0.10405 0.20297 0.0
H780 H 0.63986 0.09569 0.16343 0.0
H781 H 0.62488 0.18225 0.2819 0.0
H782 H 0.62987 0.20424 0.23956 0.0
H783 H 0.65315 0.18887 0.26483 0.0
C784 C 0.83398 0.65379 0.34892 0.0
C785 C 0.85552 0.6596 0.36505 0.0
C786 C 0.83043 0.64818 0.30184 0.0
C787 C 0.84904 0.64767 0.2707 0.0
C788 C 0.87099 0.65261 0.2874 0.0
C789 C 0.87391 0.65892 0.33427 0.0
C790 C 0.80668 0.64353 0.28513 0.0
C791 C 0.89133 0.65149 0.25569 0.0
C792 C 0.83819 0.61519 0.15877 0.0
C793 C 0.83362 0.63271 0.1272 0.0
C794 C 0.84443 0.61984 0.20506 0.0
C795 C 0.84531 0.64254 0.22042 0.0
C796 C 0.84133 0.66031 0.18824 0.0
C797 C 0.83586 0.65516 0.14171 0.0
C798 C 0.84931 0.60046 0.23787 0.0
C799 C 0.8416 0.68471 0.20352 0.0
H800 H 0.81974 0.65455 0.37267 0.0
H801 H 0.89061 0.66332 0.34691 0.0
H802 H 0.80207 0.65572 0.25721 0.0
H803 H 0.80564 0.62637 0.26982 0.0
H804 H 0.79406 0.64484 0.31371 0.0
H805 H 0.90741 0.65416 0.27495 0.0
H806 H 0.89203 0.63483 0.23804 0.0
H807 H 0.88994 0.66454 0.22801 0.0
H808 H 0.8365 0.59781 0.14742 0.0
H809 H 0.83205 0.66869 0.11738 0.0
H810 H 0.83573 0.59922 0.26441 0.0
H811 H 0.86541 0.60342 0.25681 0.0
H812 H 0.85045 0.58406 0.21921 0.0
H813 H 0.82809 0.68756 0.22972 0.0
H814 H 0.83895 0.69653 0.17386 0.0
H815 H 0.85791 0.68883 0.22056 0.0
C816 C 0.3532 0.85129 0.35043 0.0
C817 C 0.33021 0.85098 0.36206 0.0
C818 C 0.3603 0.84698 0.3044 0.0
C819 C 0.34401 0.84191 0.26963 0.0
C820 C 0.32079 0.84169 0.2813 0.0
C821 C 0.31419 0.84637 0.32724 0.0
C822 C 0.38518 0.84761 0.29305 0.0
C823 C 0.30291 0.83599 0.2455 0.0
C824 C 0.35643 0.84454 0.13931 0.0
C825 C 0.36022 0.82171 0.12919 0.0
C826 C 0.35206 0.85159 0.18536 0.0
C827 C 0.35111 0.83533 0.22171 0.0
C828 C 0.35527 0.81233 0.21164 0.0
C829 C 0.35993 0.80585 0.16562 0.0
C830 C 0.34802 0.87631 0.19498 0.0
C831 C 0.35404 0.79441 0.24919 0.0
H832 H 0.3656 0.85503 0.3772 0.0
H833 H 0.29638 0.84609 0.33604 0.0
H834 H 0.39097 0.83056 0.28242 0.0
H835 H 0.38828 0.85913 0.26314 0.0
H836 H 0.39554 0.85327 0.32322 0.0
H837 H 0.28555 0.83711 0.26 0.0
H838 H 0.30418 0.84758 0.21516 0.0
H839 H 0.30563 0.81859 0.23228 0.0
H840 H 0.35681 0.85687 0.11129 0.0
H841 H 0.36283 0.78815 0.15802 0.0
H842 H 0.35902 0.88211 0.224 0.0
H843 H 0.33027 0.87889 0.20615 0.0
H844 H 0.35129 0.88701 0.1638 0.0
H845 H 0.3655 0.79872 0.27852 0.0
H846 H 0.35864 0.7774 0.2359 0.0
H847 H 0.33664 0.79364 0.2635 0.0
C848 C 0.1284 0.6371 0.67989 0.0
C849 C 0.13413 0.65926 0.66739 0.0
C850 C 0.13171 0.62932 0.72585 0.0
C851 C 0.14133 0.64394 0.75958 0.0
C852 C 0.14728 0.66627 0.74687 0.0
C853 C 0.14343 0.67369 0.70108 0.0
C854 C 0.12489 0.60551 0.73836 0.0
C855 C 0.15801 0.68226 0.78148 0.0
C856 C 0.13728 0.63476 0.89082 0.0
C857 C 0.15861 0.62568 0.90065 0.0
C858 C 0.13086 0.63968 0.84458 0.0
C859 C 0.14634 0.6358 0.80767 0.0
C860 C 0.16761 0.62598 0.8174 0.0
C861 C 0.1734 0.62088 0.86367 0.0
C862 C 0.10787 0.64976 0.83537 0.0
C863 C 0.18476 0.62192 0.77924 0.0
H864 H 0.12101 0.62599 0.65399 0.0
H865 H 0.14793 0.69083 0.69151 0.0
H866 H 0.13996 0.59571 0.74937 0.0
H867 H 0.11303 0.60573 0.76836 0.0
H868 H 0.11671 0.59661 0.70868 0.0
H869 H 0.16155 0.69911 0.766 0.0
H870 H 0.14677 0.68455 0.81209 0.0
H871 H 0.17413 0.67503 0.79452 0.0
H872 H 0.12575 0.63836 0.91927 0.0
H873 H 0.18994 0.61386 0.871 0.0
H874 H 0.09928 0.64054 0.80668 0.0
H875 H 0.10976 0.66757 0.82402 0.0
H876 H 0.09691 0.64933 0.86687 0.0
H877 H 0.17715 0.61197 0.75047 0.0
H878 H 0.19996 0.61284 0.7922 0.0
H879 H 0.19021 0.63834 0.76426 0.0
C880 C 0.33699 0.14762 0.68895 0.0
C881 C 0.32424 0.12902 0.67425 0.0
C882 C 0.34217 0.15073 0.73642 0.0
C883 C 0.33469 0.13465 0.76975 0.0
C884 C 0.32258 0.11539 0.75477 0.0
C885 C 0.31735 0.11289 0.70724 0.0
C886 C 0.35497 0.1716 0.7511 0.0
C887 C 0.31463 0.0977 0.78908 0.0
C888 C 0.36279 0.13759 0.88909 0.0
C889 C 0.34711 0.15046 0.91434 0.0
C890 C 0.35861 0.13151 0.84243 0.0
C891 C 0.33841 0.13875 0.82047 0.0
C892 C 0.32212 0.1509 0.84647 0.0
C893 C 0.3266 0.15648 0.89318 0.0
C894 C 0.37619 0.11815 0.81611 0.0
C895 C 0.3004 0.159 0.82431 0.0
H896 H 0.3423 0.16014 0.66356 0.0
H897 H 0.30762 0.09838 0.69596 0.0
H898 H 0.34418 0.1821 0.77416 0.0
H899 H 0.37018 0.16682 0.77147 0.0
H900 H 0.36032 0.18202 0.72075 0.0
H901 H 0.30704 0.08284 0.77138 0.0
H902 H 0.32894 0.09188 0.81108 0.0
H903 H 0.30183 0.10512 0.81282 0.0
H904 H 0.37867 0.13289 0.90529 0.0
H905 H 0.31444 0.1665 0.91244 0.0
H906 H 0.3838 0.1289 0.78853 0.0
H907 H 0.36828 0.10346 0.79848 0.0
H908 H 0.3899 0.11196 0.83935 0.0
H909 H 0.30429 0.17118 0.79594 0.0
H910 H 0.28904 0.16737 0.84987 0.0
H911 H 0.29123 0.14463 0.80828 0.0
C912 C 0.8257 0.34433 0.83855 0.0
C913 C 0.83732 0.3583 0.86985 0.0
C914 C 0.83279 0.34211 0.79213 0.0
C915 C 0.85174 0.35452 0.7763 0.0
C916 C 0.8636 0.36868 0.80776 0.0
C917 C 0.85635 0.37024 0.85445 0.0
C918 C 0.81996 0.32644 0.76002 0.0
C919 C 0.88366 0.38241 0.79189 0.0
C920 C 0.87845 0.32979 0.66782 0.0
C921 C 0.86715 0.3416 0.63227 0.0
C922 C 0.87455 0.33469 0.71501 0.0
C923 C 0.85921 0.35205 0.72696 0.0
C924 C 0.84897 0.36511 0.69121 0.0
C925 C 0.85293 0.35961 0.64415 0.0
C926 C 0.88564 0.32019 0.75195 0.0
C927 C 0.83283 0.38404 0.70264 0.0
H928 H 0.81101 0.33502 0.85043 0.0
H929 H 0.86521 0.38124 0.87854 0.0
H930 H 0.8129 0.33609 0.73015 0.0
H931 H 0.83156 0.31352 0.74546 0.0
H932 H 0.80587 0.31766 0.77812 0.0
H933 H 0.89099 0.39266 0.82062 0.0
H934 H 0.89698 0.37112 0.77789 0.0
H935 H 0.87853 0.3939 0.76311 0.0
H936 H 0.88956 0.31589 0.6589 0.0
H937 H 0.84428 0.36888 0.61679 0.0
H938 H 0.87266 0.30944 0.76897 0.0
H939 H 0.89333 0.33085 0.77953 0.0
H940 H 0.89891 0.30903 0.73717 0.0
H941 H 0.81682 0.37688 0.71632 0.0
H942 H 0.82885 0.39454 0.67151 0.0
H943 H 0.83999 0.39505 0.73026 0.0
C944 C 0.62395 0.85817 0.86878 0.0
C945 C 0.6404 0.84431 0.88946 0.0
C946 C 0.62539 0.86425 0.82137 0.0
C947 C 0.6438 0.85643 0.79424 0.0
C948 C 0.66098 0.84335 0.81561 0.0
C949 C 0.65902 0.83739 0.86288 0.0
C950 C 0.60675 0.87822 0.79985 0.0
C951 C 0.68106 0.83494 0.78812 0.0
C952 C 0.63987 0.8483 0.66277 0.0
C953 C 0.65249 0.86668 0.64637 0.0
C954 C 0.63593 0.84535 0.71083 0.0
C955 C 0.64489 0.86113 0.74313 0.0
C956 C 0.65661 0.88033 0.72651 0.0
C957 C 0.66024 0.88288 0.67835 0.0
C958 C 0.62317 0.82474 0.72718 0.0
C959 C 0.66637 0.89757 0.75969 0.0
H960 H 0.60943 0.86343 0.88908 0.0
H961 H 0.67179 0.82669 0.87869 0.0
H962 H 0.61392 0.89291 0.78089 0.0
H963 H 0.59741 0.86789 0.77394 0.0
H964 H 0.59458 0.88447 0.82639 0.0
H965 H 0.69352 0.82598 0.81048 0.0
H966 H 0.67527 0.82321 0.76039 0.0
H967 H 0.68968 0.84927 0.77062 0.0
H968 H 0.6338 0.83575 0.63824 0.0
H969 H 0.66995 0.8972 0.66591 0.0
H970 H 0.60959 0.82966 0.75185 0.0
H971 H 0.63482 0.81329 0.74624 0.0
H972 H 0.61551 0.81525 0.69769 0.0
H973 H 0.65343 0.90308 0.78526 0.0
H974 H 0.67295 0.91268 0.74111 0.0
H975 H 0.68043 0.88984 0.77978 0.0
C976 C 0.84288 0.67329 0.6664 0.0
C977 C 0.84934 0.65841 0.63075 0.0
C978 C 0.83898 0.66556 0.71191 0.0
C979 C 0.84175 0.64236 0.72227 0.0
C980 C 0.84852 0.62722 0.6866 0.0
C981 C 0.85215 0.63543 0.64106 0.0
C982 C 0.83155 0.68224 0.74877 0.0
C983 C 0.85175 0.6024 0.69653 0.0
C984 C 0.84644 0.63032 0.85233 0.0
C985 C 0.82395 0.6253 0.86347 0.0
C986 C 0.85285 0.63466 0.80587 0.0
C987 C 0.83633 0.63406 0.77002 0.0
C988 C 0.81384 0.62797 0.78093 0.0
C989 C 0.80795 0.62363 0.82745 0.0
C990 C 0.87705 0.64091 0.79547 0.0
C991 C 0.79567 0.62724 0.74384 0.0
H992 H 0.84069 0.69108 0.65868 0.0
H993 H 0.8573 0.62392 0.61365 0.0
H994 H 0.81464 0.67747 0.76223 0.0
H995 H 0.84343 0.68187 0.77875 0.0
H996 H 0.83066 0.6998 0.73518 0.0
H997 H 0.85805 0.59304 0.66554 0.0
H998 H 0.8639 0.6001 0.72568 0.0
H999 H 0.8355 0.5948 0.70771 0.0
H1000 H 0.85889 0.63148 0.88001 0.0
H1001 H 0.79055 0.61958 0.83576 0.0
H1002 H 0.87798 0.65905 0.78589 0.0
H1003 H 0.88344 0.63109 0.76526 0.0
H1004 H 0.88832 0.63792 0.8259 0.0
H1005 H 0.79242 0.64458 0.73071 0.0
H1006 H 0.77955 0.62019 0.75729 0.0
H1007 H 0.80128 0.61693 0.71369 0.0
C1008 C 0.35614 0.85348 0.63911 0.0
C1009 C 0.33335 0.85813 0.62993 0.0
C1010 C 0.36348 0.84867 0.68483 0.0
C1011 C 0.34754 0.84797 0.72173 0.0
C1012 C 0.32462 0.85318 0.71266 0.0
C1013 C 0.31789 0.85843 0.66703 0.0
C1014 C 0.38814 0.84371 0.69342 0.0
C1015 C 0.30697 0.85215 0.75073 0.0
C1016 C 0.35732 0.80871 0.82432 0.0
C1017 C 0.3621 0.82391 0.86051 0.0
C1018 C 0.3531 0.81633 0.77881 0.0
C1019 C 0.35415 0.83973 0.76893 0.0
C1020 C 0.35972 0.85514 0.805 0.0
C1021 C 0.36337 0.84706 0.85063 0.0
C1022 C 0.34672 0.79937 0.74168 0.0
C1023 C 0.36144 0.88016 0.79552 0.0
H1024 H 0.36816 0.85341 0.61056 0.0
H1025 H 0.30022 0.86197 0.66015 0.0
H1026 H 0.39443 0.85369 0.72354 0.0
H1027 H 0.3903 0.82561 0.70236 0.0
H1028 H 0.39874 0.84757 0.66239 0.0
H1029 H 0.29006 0.85767 0.7383 0.0
H1030 H 0.30556 0.83458 0.76397 0.0
H1031 H 0.312 0.86294 0.78061 0.0
H1032 H 0.35628 0.79079 0.83183 0.0
H1033 H 0.36728 0.85882 0.87848 0.0
H1034 H 0.35828 0.80081 0.71135 0.0
H1035 H 0.32938 0.80293 0.72886 0.0
H1036 H 0.34728 0.78171 0.75481 0.0
H1037 H 0.37264 0.8833 0.76512 0.0
H1038 H 0.36807 0.88961 0.8261 0.0
H1039 H 0.34453 0.88698 0.78653 0.0
C1040 C 0.1581 0.32809 0.62653 0.0
C1041 C 0.1393 0.33637 0.60208 0.0
C1042 C 0.16173 0.3337 0.67351 0.0
C1043 C 0.14631 0.34817 0.69658 0.0
C1044 C 0.12787 0.35744 0.67151 0.0
C1045 C 0.12451 0.35134 0.62453 0.0
C1046 C 0.18161 0.32343 0.69896 0.0
C1047 C 0.11129 0.37322 0.69471 0.0
C1048 C 0.1446 0.34168 0.82873 0.0
C1049 C 0.15958 0.35864 0.84289 0.0
C1050 C 0.13948 0.33855 0.7812 0.0
C1051 C 0.14935 0.35296 0.74726 0.0
C1052 C 0.1636 0.37081 0.76171 0.0
C1053 C 0.16868 0.37332 0.80929 0.0
C1054 C 0.12434 0.3192 0.76713 0.0
C1055 C 0.17415 0.38675 0.72677 0.0
H1056 H 0.16958 0.31646 0.60946 0.0
H1057 H 0.10991 0.35775 0.60585 0.0
H1058 H 0.19224 0.3369 0.71444 0.0
H1059 H 0.17548 0.31268 0.7281 0.0
H1060 H 0.19233 0.31294 0.67567 0.0
H1061 H 0.09893 0.38038 0.6695 0.0
H1062 H 0.10188 0.36401 0.7223 0.0
H1063 H 0.1204 0.38731 0.71195 0.0
H1064 H 0.13755 0.3303 0.8546 0.0
H1065 H 0.18012 0.38662 0.82014 0.0
H1066 H 0.13419 0.30674 0.74657 0.0
H1067 H 0.11045 0.32537 0.74444 0.0
H1068 H 0.11689 0.31045 0.79781 0.0
H1069 H 0.1866 0.37747 0.7051 0.0
H1070 H 0.18293 0.40109 0.74397 0.0
H1071 H 0.16109 0.39359 0.70282 0.0
C1072 C 0.6446 0.1799 0.82842 0.0
C1073 C 0.63942 0.16399 0.86312 0.0
C1074 C 0.64951 0.17321 0.78263 0.0
C1075 C 0.64896 0.15001 0.77096 0.0
C1076 C 0.64344 0.13382 0.80565 0.0
C1077 C 0.63889 0.141 0.85153 0.0
C1078 C 0.65567 0.19098 0.74691 0.0
C1079 C 0.64247 0.10896 0.79431 0.0
C1080 C 0.64569 0.13763 0.6407 0.0
C1081 C 0.66842 0.13344 0.63014 0.0
C1082 C 0.6389 0.14215 0.68683 0.0
C1083 C 0.6553 0.14282 0.72292 0.0
C1084 C 0.67819 0.13822 0.71245 0.0
C1085 C 0.68443 0.13346 0.66629 0.0
C1086 C 0.61428 0.1467 0.69682 0.0
C1087 C 0.69626 0.1391 0.74972 0.0
H1088 H 0.64508 0.1977 0.83719 0.0
H1089 H 0.63474 0.12867 0.87819 0.0
H1090 H 0.67299 0.18784 0.73359 0.0
H1091 H 0.64401 0.19006 0.71662 0.0
H1092 H 0.655 0.20834 0.76151 0.0
H1093 H 0.63685 0.09865 0.8246 0.0
H1094 H 0.63073 0.10602 0.7647 0.0
H1095 H 0.65939 0.10297 0.78321 0.0
H1096 H 0.63324 0.13747 0.61291 0.0
H1097 H 0.70205 0.13024 0.65837 0.0
H1098 H 0.61211 0.16448 0.7081 0.0
H1099 H 0.60834 0.13579 0.72587 0.0
H1100 H 0.60342 0.1437 0.66578 0.0
H1101 H 0.69746 0.15648 0.76392 0.0
H1102 H 0.71312 0.1341 0.73621 0.0
H1103 H 0.69178 0.12777 0.77919 0.0
C1104 C 0.836 0.3446 0.34986 0.0
C1105 C 0.856 0.34837 0.37486 0.0
C1106 C 0.83432 0.35038 0.30247 0.0
C1107 C 0.85317 0.36001 0.27941 0.0
C1108 C 0.87307 0.36483 0.30499 0.0
C1109 C 0.87422 0.35903 0.35256 0.0
C1110 C 0.81266 0.34528 0.27662 0.0
C1111 C 0.8935 0.37507 0.28163 0.0
C1112 C 0.853 0.34848 0.14908 0.0
C1113 C 0.84314 0.36829 0.13169 0.0
C1114 C 0.85764 0.34607 0.19696 0.0
C1115 C 0.8522 0.36387 0.22806 0.0
C1116 C 0.84363 0.38444 0.21019 0.0
C1117 C 0.83924 0.38642 0.16218 0.0
C1118 C 0.86707 0.32396 0.21462 0.0
C1119 C 0.83768 0.40384 0.24209 0.0
H1120 H 0.82186 0.33641 0.36698 0.0
H1121 H 0.88978 0.36185 0.37167 0.0
H1122 H 0.8065 0.36062 0.25831 0.0
H1123 H 0.81583 0.33221 0.24967 0.0
H1124 H 0.79912 0.33912 0.30028 0.0
H1125 H 0.90678 0.37984 0.30722 0.0
H1126 H 0.90079 0.36275 0.25665 0.0
H1127 H 0.88865 0.39028 0.2613 0.0
H1128 H 0.85611 0.33445 0.12566 0.0
H1129 H 0.8317 0.40183 0.14893 0.0
H1130 H 0.85393 0.31495 0.23506 0.0
H1131 H 0.88159 0.327 0.23831 0.0
H1132 H 0.87267 0.3128 0.18568 0.0
H1133 H 0.82258 0.39931 0.26306 0.0
H1134 H 0.83392 0.41956 0.22234 0.0
H1135 H 0.85166 0.40725 0.26693 0.0
C1136 C 0.6056 0.8342 0.17663 0.0
C1137 C 0.6233 0.84 0.14628 0.0
C1138 C 0.60723 0.83817 0.22485 0.0
C1139 C 0.62703 0.8482 0.24315 0.0
C1140 C 0.64436 0.85534 0.21232 0.0
C1141 C 0.64229 0.85114 0.1642 0.0
C1142 C 0.58833 0.83043 0.25643 0.0
C1143 C 0.66567 0.86627 0.23045 0.0
C1144 C 0.63022 0.87004 0.36799 0.0
C1145 C 0.6423 0.85264 0.39003 0.0
C1146 C 0.62437 0.86856 0.32046 0.0
C1147 C 0.63068 0.84919 0.29461 0.0
C1148 C 0.64171 0.83104 0.31748 0.0
C1149 C 0.64742 0.83302 0.36485 0.0
C1150 C 0.61252 0.88821 0.2974 0.0
C1151 C 0.64847 0.80995 0.29136 0.0
H1152 H 0.59081 0.82566 0.16299 0.0
H1153 H 0.656 0.85569 0.14092 0.0
H1154 H 0.59406 0.81566 0.27719 0.0
H1155 H 0.58369 0.84394 0.28147 0.0
H1156 H 0.57301 0.82548 0.23645 0.0
H1157 H 0.67653 0.87276 0.20178 0.0
H1158 H 0.66146 0.88046 0.25418 0.0
H1159 H 0.67551 0.85377 0.25098 0.0
H1160 H 0.62632 0.88531 0.38721 0.0
H1161 H 0.65673 0.81951 0.38173 0.0
H1162 H 0.59782 0.88224 0.27679 0.0
H1163 H 0.62427 0.89664 0.27273 0.0
H1164 H 0.60661 0.90089 0.32322 0.0
H1165 H 0.63368 0.80275 0.27279 0.0
H1166 H 0.65558 0.79681 0.31488 0.0
H1167 H 0.66134 0.81422 0.2646 0.0
C1168 C 0.12362 0.67398 0.36376 0.0
C1169 C 0.12625 0.65888 0.40117 0.0
C1170 C 0.12881 0.66756 0.31793 0.0
C1171 C 0.13641 0.64533 0.30906 0.0
C1172 C 0.13809 0.62965 0.34636 0.0
C1173 C 0.13321 0.63669 0.39218 0.0
C1174 C 0.1272 0.68494 0.27936 0.0
C1175 C 0.1457 0.60567 0.33805 0.0
C1176 C 0.13677 0.62755 0.18134 0.0
C1177 C 0.1595 0.63091 0.16961 0.0
C1178 C 0.12908 0.63141 0.22712 0.0
C1179 C 0.14443 0.63927 0.26146 0.0
C1180 C 0.16739 0.64266 0.24964 0.0
C1181 C 0.17468 0.63823 0.20401 0.0
C1182 C 0.10456 0.62725 0.23868 0.0
C1183 C 0.18421 0.65149 0.28492 0.0
H1184 H 0.11828 0.69119 0.37047 0.0
H1185 H 0.13513 0.62494 0.42098 0.0
H1186 H 0.14428 0.68831 0.26501 0.0
H1187 H 0.11665 0.67848 0.25028 0.0
H1188 H 0.1199 0.70116 0.29168 0.0
H1189 H 0.14374 0.59495 0.36967 0.0
H1190 H 0.13591 0.59804 0.309 0.0
H1191 H 0.16374 0.60555 0.3276 0.0
H1192 H 0.12505 0.62169 0.15488 0.0
H1193 H 0.19227 0.64091 0.19503 0.0
H1194 H 0.09629 0.64338 0.24837 0.0
H1195 H 0.1032 0.6158 0.26926 0.0
H1196 H 0.09517 0.61971 0.20892 0.0
H1197 H 0.17883 0.6684 0.29734 0.0
H1198 H 0.20152 0.65292 0.27024 0.0
H1199 H 0.1848 0.64018 0.31581 0.0
C1200 C 0.31438 0.15162 0.37431 0.0
C1201 C 0.32911 0.14236 0.4076 0.0
C1202 C 0.32156 0.15601 0.32862 0.0
C1203 C 0.34402 0.15084 0.31561 0.0
C1204 C 0.35912 0.14173 0.34916 0.0
C1205 C 0.3515 0.1377 0.395 0.0
C1206 C 0.305 0.16604 0.29414 0.0
C1207 C 0.38315 0.1359 0.33639 0.0
C1208 C 0.35185 0.14449 0.18456 0.0
C1209 C 0.35963 0.16602 0.17222 0.0
C1210 C 0.34779 0.13887 0.23155 0.0
C1211 C 0.35147 0.15525 0.26681 0.0
C1212 C 0.36011 0.17673 0.25461 0.0
C1213 C 0.36414 0.18183 0.2075 0.0
C1214 C 0.33872 0.11572 0.24326 0.0
C1215 C 0.36411 0.19472 0.29106 0.0
H1216 H 0.29706 0.15533 0.38392 0.0
H1217 H 0.36287 0.1304 0.42059 0.0
H1218 H 0.31176 0.18211 0.27988 0.0
H1219 H 0.3026 0.15436 0.26428 0.0
H1220 H 0.28825 0.16946 0.31013 0.0
H1221 H 0.39286 0.12924 0.36666 0.0
H1222 H 0.38323 0.12303 0.30824 0.0
H1223 H 0.39194 0.15105 0.32261 0.0
H1224 H 0.34848 0.13217 0.15746 0.0
H1225 H 0.37028 0.19849 0.19823 0.0
H1226 H 0.32104 0.11721 0.25574 0.0
H1227 H 0.34873 0.108 0.27191 0.0
H1228 H 0.33899 0.10421 0.21265 0.0
H1229 H 0.34769 0.20012 0.30605 0.0
H1230 H 0.37273 0.20981 0.27641 0.0
H1231 H 0.37446 0.18792 0.32016 0.0
loop_
_geom_bond_atom_site_label_1
_geom_bond_atom_site_label_2
_geom_bond_distance
_geom_bond_site_symmetry_2
_ccdc_geom_bond_type
In0 O1 2.294 . S
In0 O2 2.326 . S
In0 O6 2.266 1_554 S
In0 O7 2.326 1_554 S
In0 O8 2.266 1_554 S
In0 O9 2.327 . S
In0 O11 2.294 . S
In0 O12 2.326 . S
O1 In0 2.294 . S
O1 C10 1.240 . S
O2 In0 2.326 . S
O2 C10 1.252 . S
C3 O6 1.252 . S
C3 O7 1.260 . S
C4 O11 1.240 . S
C4 O12 1.252 . S
C5 O8 1.252 . S
C5 O9 1.258 1_556 S
O6 In0 2.266 1_556 S
O6 C3 1.252 . S
O7 In0 2.326 1_556 S
O7 C3 1.260 . S
O8 In0 2.266 1_556 S
O8 C5 1.252 . S
O9 In0 2.327 . S
O9 C5 1.258 1_554 S
C10 O1 1.240 . S
C10 O2 1.252 . S
O11 In0 2.294 . S
O11 C4 1.240 . S
O12 In0 2.326 . S
O12 C4 1.252 . S
In13 O14 2.294 . S
In13 O15 2.326 . S
In13 O19 2.266 1_554 S
In13 O20 2.326 1_554 S
In13 O21 2.266 1_554 S
In13 O22 2.327 . S
In13 O24 2.294 . S
In13 O25 2.326 . S
O14 In13 2.294 . S
O14 C23 1.240 . S
O15 In13 2.326 . S
O15 C23 1.252 . S
C16 O19 1.252 . S
C16 O20 1.260 . S
C17 O24 1.240 . S
C17 O25 1.252 . S
C18 O21 1.252 . S
C18 O22 1.258 1_556 S
O19 In13 2.266 1_556 S
O19 C16 1.252 . S
O20 In13 2.326 1_556 S
O20 C16 1.260 . S
O21 In13 2.266 1_556 S
O21 C18 1.252 . S
O22 In13 2.327 . S
O22 C18 1.258 1_554 S
C23 O14 1.240 . S
C23 O15 1.252 . S
O24 In13 2.294 . S
O24 C17 1.240 . S
O25 In13 2.326 . S
O25 C17 1.252 . S
In26 O27 2.294 . S
In26 O28 2.326 . S
In26 O32 2.266 1_554 S
In26 O33 2.327 . S
In26 O34 2.266 1_554 S
In26 O35 2.326 1_554 S
In26 O37 2.294 . S
In26 O38 2.326 . S
O27 In26 2.294 . S
O27 C36 1.240 . S
O28 In26 2.326 . S
O28 C36 1.252 . S
C29 O32 1.252 . S
C29 O33 1.258 1_556 S
C30 O37 1.240 . S
C30 O38 1.252 . S
C31 O34 1.252 . S
C31 O35 1.260 . S
O32 In26 2.266 1_556 S
O32 C29 1.252 . S
O33 In26 2.327 . S
O33 C29 1.258 1_554 S
O34 In26 2.266 1_556 S
O34 C31 1.252 . S
O35 In26 2.326 1_556 S
O35 C31 1.260 . S
C36 O27 1.240 . S
C36 O28 1.252 . S
O37 In26 2.294 . S
O37 C30 1.240 . S
O38 In26 2.326 . S
O38 C30 1.252 . S
In39 O40 2.294 . S
In39 O41 2.326 . S
In39 O45 2.266 1_554 S
In39 O46 2.326 1_554 S
In39 O47 2.266 1_554 S
In39 O48 2.327 . S
In39 O50 2.294 . S
In39 O51 2.326 . S
O40 In39 2.294 . S
O40 C49 1.240 . S
O41 In39 2.326 . S
O41 C49 1.252 . S
C42 O45 1.252 . S
C42 O46 1.260 . S
C43 O50 1.240 . S
C43 O51 1.252 . S
C44 O47 1.252 . S
C44 O48 1.258 1_556 S
O45 In39 2.266 1_556 S
O45 C42 1.252 . S
O46 In39 2.326 1_556 S
O46 C42 1.260 . S
O47 In39 2.266 1_556 S
O47 C44 1.252 . S
O48 In39 2.327 . S
O48 C44 1.258 1_554 S
C49 O40 1.240 . S
C49 O41 1.252 . S
O50 In39 2.294 . S
O50 C43 1.240 . S
O51 In39 2.326 . S
O51 C43 1.252 . S
In52 O53 2.294 1_554 S
In52 O54 2.326 1_554 S
In52 O58 2.266 . S
In52 O59 2.326 . S
In52 O60 2.266 . S
In52 O61 2.326 . S
In52 O63 2.294 1_554 S
In52 O64 2.326 1_554 S
O53 In52 2.294 1_556 S
O53 C62 1.240 . S
O54 In52 2.326 1_556 S
O54 C62 1.252 . S
C55 O58 1.252 . S
C55 O59 1.260 . S
C56 O63 1.240 . S
C56 O64 1.252 . S
C57 O60 1.252 . S
C57 O61 1.260 . S
O58 In52 2.266 . S
O58 C55 1.252 . S
O59 In52 2.326 . S
O59 C55 1.260 . S
O60 In52 2.266 . S
O60 C57 1.252 . S
O61 In52 2.326 . S
O61 C57 1.260 . S
C62 O53 1.240 . S
C62 O54 1.252 . S
O63 In52 2.294 1_556 S
O63 C56 1.240 . S
O64 In52 2.326 1_556 S
O64 C56 1.252 . S
In65 O66 2.294 1_554 S
In65 O67 2.326 1_554 S
In65 O71 2.266 . S
In65 O72 2.326 . S
In65 O73 2.266 . S
In65 O74 2.326 . S
In65 O76 2.294 1_554 S
In65 O77 2.326 1_554 S
O66 In65 2.294 1_556 S
O66 C75 1.240 . S
O67 In65 2.326 1_556 S
O67 C75 1.252 . S
C68 O71 1.252 . S
C68 O72 1.260 . S
C69 O76 1.240 . S
C69 O77 1.252 . S
C70 O73 1.252 . S
C70 O74 1.260 . S
O71 In65 2.266 . S
O71 C68 1.252 . S
O72 In65 2.326 . S
O72 C68 1.260 . S
O73 In65 2.266 . S
O73 C70 1.252 . S
O74 In65 2.326 . S
O74 C70 1.260 . S
C75 O66 1.240 . S
C75 O67 1.252 . S
O76 In65 2.294 1_556 S
O76 C69 1.240 . S
O77 In65 2.326 1_556 S
O77 C69 1.252 . S
In78 O79 2.294 1_554 S
In78 O80 2.326 1_554 S
In78 O84 2.266 . S
In78 O85 2.326 . S
In78 O86 2.266 . S
In78 O87 2.326 . S
In78 O89 2.294 1_554 S
In78 O90 2.326 1_554 S
O79 In78 2.294 1_556 S
O79 C88 1.240 . S
O80 In78 2.326 1_556 S
O80 C88 1.252 . S
C81 O84 1.252 . S
C81 O85 1.260 . S
C82 O89 1.240 . S
C82 O90 1.252 . S
C83 O86 1.252 . S
C83 O87 1.260 . S
O84 In78 2.266 . S
O84 C81 1.252 . S
O85 In78 2.326 . S
O85 C81 1.260 . S
O86 In78 2.266 . S
O86 C83 1.252 . S
O87 In78 2.326 . S
O87 C83 1.260 . S
C88 O79 1.240 . S
C88 O80 1.252 . S
O89 In78 2.294 1_556 S
O89 C82 1.240 . S
O90 In78 2.326 1_556 S
O90 C82 1.252 . S
In91 O92 2.294 1_554 S
In91 O93 2.326 1_554 S
In91 O97 2.266 . S
In91 O98 2.326 . S
In91 O99 2.266 . S
In91 O100 2.326 . S
In91 O102 2.294 1_554 S
In91 O103 2.326 1_554 S
O92 In91 2.294 1_556 S
O92 C101 1.240 . S
O93 In91 2.326 1_556 S
O93 C101 1.252 . S
C94 O97 1.252 . S
C94 O98 1.260 . S
C95 O102 1.240 . S
C95 O103 1.252 . S
C96 O99 1.252 . S
C96 O100 1.260 . S
O97 In91 2.266 . S
O97 C94 1.252 . S
O98 In91 2.326 . S
O98 C94 1.260 . S
O99 In91 2.266 . S
O99 C96 1.252 . S
O100 In91 2.326 . S
O100 C96 1.260 . S
C101 O92 1.240 . S
C101 O93 1.252 . S
O102 In91 2.294 1_556 S
O102 C95 1.240 . S
O103 In91 2.326 1_556 S
O103 C95 1.252 . S
In104 O105 2.294 . S
In104 O106 2.326 . S
In104 O110 2.266 . S
In104 O111 2.326 . S
In104 O112 2.266 . S
In104 O113 2.326 . S
In104 O115 2.294 . S
In104 O116 2.326 . S
O105 In104 2.294 . S
O105 C114 1.240 . S
O106 In104 2.326 . S
O106 C114 1.252 . S
C107 O110 1.252 . S
C107 O111 1.260 . S
C108 O115 1.240 . S
C108 O116 1.252 . S
C109 O112 1.252 . S
C109 O113 1.260 . S
O110 In104 2.266 . S
O110 C107 1.252 . S
O111 In104 2.326 . S
O111 C107 1.260 . S
O112 In104 2.266 . S
O112 C109 1.252 . S
O113 In104 2.326 . S
O113 C109 1.260 . S
C114 O105 1.240 . S
C114 O106 1.252 . S
O115 In104 2.294 . S
O115 C108 1.240 . S
O116 In104 2.326 . S
O116 C108 1.252 . S
In117 O118 2.294 . S
In117 O119 2.326 . S
In117 O123 2.266 . S
In117 O124 2.326 . S
In117 O125 2.266 . S
In117 O126 2.326 . S
In117 O128 2.294 . S
In117 O129 2.326 . S
O118 In117 2.294 . S
O118 C127 1.240 . S
O119 In117 2.326 . S
O119 C127 1.252 . S
C120 O123 1.252 . S
C120 O124 1.260 . S
C121 O128 1.240 . S
C121 O129 1.252 . S
C122 O125 1.252 . S
C122 O126 1.260 . S
O123 In117 2.266 . S
O123 C120 1.252 . S
O124 In117 2.326 . S
O124 C120 1.260 . S
O125 In117 2.266 . S
O125 C122 1.252 . S
O126 In117 2.326 . S
O126 C122 1.260 . S
C127 O118 1.240 . S
C127 O119 1.252 . S
O128 In117 2.294 . S
O128 C121 1.240 . S
O129 In117 2.326 . S
O129 C121 1.252 . S
In130 O131 2.294 . S
In130 O132 2.326 . S
In130 O136 2.266 . S
In130 O137 2.326 . S
In130 O138 2.266 . S
In130 O139 2.326 . S
In130 O141 2.294 . S
In130 O142 2.326 . S
O131 In130 2.294 . S
O131 C140 1.240 . S
O132 In130 2.326 . S
O132 C140 1.252 . S
C133 O136 1.252 . S
C133 O137 1.260 . S
C134 O141 1.240 . S
C134 O142 1.252 . S
C135 O138 1.252 . S
C135 O139 1.260 . S
O136 In130 2.266 . S
O136 C133 1.252 . S
O137 In130 2.326 . S
O137 C133 1.260 . S
O138 In130 2.266 . S
O138 C135 1.252 . S
O139 In130 2.326 . S
O139 C135 1.260 . S
C140 O131 1.240 . S
C140 O132 1.252 . S
O141 In130 2.294 . S
O141 C134 1.240 . S
O142 In130 2.326 . S
O142 C134 1.252 . S
In143 O144 2.294 . S
In143 O145 2.326 . S
In143 O149 2.266 . S
In143 O150 2.326 . S
In143 O151 2.266 . S
In143 O152 2.326 . S
In143 O154 2.294 . S
In143 O155 2.326 . S
O144 In143 2.294 . S
O144 C153 1.240 . S
O145 In143 2.326 . S
O145 C153 1.252 . S
C146 O149 1.252 . S
C146 O150 1.260 . S
C147 O154 1.240 . S
C147 O155 1.252 . S
C148 O151 1.252 . S
C148 O152 1.260 . S
O149 In143 2.266 . S
O149 C146 1.252 . S
O150 In143 2.326 . S
O150 C146 1.260 . S
O151 In143 2.266 . S
O151 C148 1.252 . S
O152 In143 2.326 . S
O152 C148 1.260 . S
C153 O144 1.240 . S
C153 O145 1.252 . S
O154 In143 2.294 . S
O154 C147 1.240 . S
O155 In143 2.326 . S
O155 C147 1.252 . S
In156 O157 2.294 . S
In156 O158 2.326 . S
In156 O162 2.266 . S
In156 O163 2.326 . S
In156 O164 2.266 . S
In156 O165 2.326 . S
In156 O167 2.294 . S
In156 O168 2.326 . S
O157 In156 2.294 . S
O157 C166 1.240 . S
O158 In156 2.326 . S
O158 C166 1.252 . S
C159 O162 1.252 . S
C159 O163 1.260 . S
C160 O167 1.240 . S
C160 O168 1.252 . S
C161 O164 1.252 . S
C161 O165 1.260 . S
O162 In156 2.266 . S
O162 C159 1.252 . S
O163 In156 2.326 . S
O163 C159 1.260 . S
O164 In156 2.266 . S
O164 C161 1.252 . S
O165 In156 2.326 . S
O165 C161 1.260 . S
C166 O157 1.240 . S
C166 O158 1.252 . S
O167 In156 2.294 . S
O167 C160 1.240 . S
O168 In156 2.326 . S
O168 C160 1.252 . S
In169 O170 2.294 . S
In169 O171 2.326 . S
In169 O175 2.266 . S
In169 O176 2.326 . S
In169 O177 2.266 . S
In169 O178 2.326 . S
In169 O180 2.294 . S
In169 O181 2.326 . S
O170 In169 2.294 . S
O170 C179 1.240 . S
O171 In169 2.326 . S
O171 C179 1.252 . S
C172 O175 1.252 . S
C172 O176 1.260 . S
C173 O180 1.240 . S
C173 O181 1.252 . S
C174 O177 1.252 . S
C174 O178 1.260 . S
O175 In169 2.266 . S
O175 C172 1.252 . S
O176 In169 2.326 . S
O176 C172 1.260 . S
O177 In169 2.266 . S
O177 C174 1.252 . S
O178 In169 2.326 . S
O178 C174 1.260 . S
C179 O170 1.240 . S
C179 O171 1.252 . S
O180 In169 2.294 . S
O180 C173 1.240 . S
O181 In169 2.326 . S
O181 C173 1.252 . S
In182 O183 2.294 . S
In182 O184 2.326 . S
In182 O188 2.266 . S
In182 O189 2.326 . S
In182 O190 2.266 . S
In182 O191 2.326 . S
In182 O193 2.294 . S
In182 O194 2.326 . S
O183 In182 2.294 . S
O183 C192 1.240 . S
O184 In182 2.326 . S
O184 C192 1.252 . S
C185 O188 1.252 . S
C185 O189 1.260 . S
C186 O193 1.240 . S
C186 O194 1.252 . S
C187 O190 1.252 . S
C187 O191 1.260 . S
O188 In182 2.266 . S
O188 C185 1.252 . S
O189 In182 2.326 . S
O189 C185 1.260 . S
O190 In182 2.266 . S
O190 C187 1.252 . S
O191 In182 2.326 . S
O191 C187 1.260 . S
C192 O183 1.240 . S
C192 O184 1.252 . S
O193 In182 2.294 . S
O193 C186 1.240 . S
O194 In182 2.326 . S
O194 C186 1.252 . S
In195 O196 2.294 . S
In195 O197 2.326 . S
In195 O201 2.266 . S
In195 O202 2.326 . S
In195 O203 2.266 . S
In195 O204 2.326 . S
In195 O206 2.294 . S
In195 O207 2.326 . S
O196 In195 2.294 . S
O196 C205 1.240 . S
O197 In195 2.326 . S
O197 C205 1.252 . S
C198 O201 1.252 . S
C198 O202 1.260 . S
C199 O206 1.240 . S
C199 O207 1.252 . S
C200 O203 1.252 . S
C200 O204 1.260 . S
O201 In195 2.266 . S
O201 C198 1.252 . S
O202 In195 2.326 . S
O202 C198 1.260 . S
O203 In195 2.266 . S
O203 C200 1.252 . S
O204 In195 2.326 . S
O204 C200 1.260 . S
C205 O196 1.240 . S
C205 O197 1.252 . S
O206 In195 2.294 . S
O206 C199 1.240 . S
O207 In195 2.326 . S
O207 C199 1.252 . S
C208 C209 1.391 1_554 S
C208 C210 1.394 . S
C208 H224 0.931 . S
C209 C208 1.391 1_556 S
C209 C213 1.376 . S
C210 C208 1.394 . S
C210 C211 1.369 1_554 S
C210 C214 1.531 . S
C211 C210 1.369 1_556 S
C211 C212 1.410 . S
C211 C219 1.502 1_556 S
C212 C211 1.410 . S
C212 C213 1.392 . S
C212 C215 1.511 . S
C213 C209 1.376 . S
C213 C212 1.392 . S
C213 H225 0.929 . S
C214 C210 1.531 . S
C214 H226 0.960 . S
C214 H227 0.962 . S
C214 H228 0.960 . S
C215 C212 1.511 . S
C215 H229 0.961 . S
C215 H230 0.961 . S
C215 H231 0.961 . S
C216 C217 1.370 . S
C216 C218 1.363 . S
C216 H232 0.931 . S
C217 C216 1.370 . S
C217 C221 1.408 1_554 S
C218 C216 1.363 . S
C218 C219 1.380 . S
C218 C222 1.524 . S
C219 C211 1.502 1_554 S
C219 C218 1.380 . S
C219 C220 1.394 1_554 S
C220 C219 1.394 1_556 S
C220 C221 1.404 . S
C220 C223 1.539 . S
C221 C217 1.408 1_556 S
C221 C220 1.404 . S
C221 H233 0.930 . S
C222 C218 1.524 . S
C222 H234 0.956 . S
C222 H235 0.961 . S
C222 H236 0.961 . S
C223 C220 1.539 . S
C223 H237 0.958 . S
C223 H238 0.961 . S
C223 H239 0.960 . S
H224 C208 0.931 . S
H225 C213 0.929 . S
H226 C214 0.960 . S
H227 C214 0.962 . S
H228 C214 0.960 . S
H229 C215 0.961 . S
H230 C215 0.961 . S
H231 C215 0.961 . S
H232 C216 0.931 . S
H233 C221 0.930 . S
H234 C222 0.956 . S
H235 C222 0.961 . S
H236 C222 0.961 . S
H237 C223 0.958 . S
H238 C223 0.961 . S
H239 C223 0.960 . S
C240 C241 1.391 1_554 S
C240 C242 1.394 . S
C240 H256 0.931 . S
C241 C240 1.391 1_556 S
C241 C245 1.376 . S
C242 C240 1.394 . S
C242 C243 1.369 1_554 S
C242 C246 1.531 . S
C243 C242 1.369 1_556 S
C243 C244 1.410 . S
C243 C251 1.503 1_556 S
C244 C243 1.410 . S
C244 C245 1.392 . S
C244 C247 1.511 . S
C245 C241 1.376 . S
C245 C244 1.392 . S
C245 H257 0.929 . S
C246 C242 1.531 . S
C246 H258 0.960 . S
C246 H259 0.962 . S
C246 H260 0.960 . S
C247 C244 1.511 . S
C247 H261 0.961 . S
C247 H262 0.961 . S
C247 H263 0.961 . S
C248 C249 1.370 . S
C248 C250 1.363 . S
C248 H264 0.931 . S
C249 C248 1.370 . S
C249 C253 1.408 1_554 S
C250 C248 1.363 . S
C250 C251 1.370 . S
C250 C254 1.524 . S
C251 C243 1.503 1_554 S
C251 C250 1.370 . S
C251 C252 1.403 1_554 S
C252 C251 1.403 1_556 S
C252 C253 1.404 . S
C252 C255 1.539 . S
C253 C249 1.408 1_556 S
C253 C252 1.404 . S
C253 H265 0.930 . S
C254 C250 1.524 . S
C254 H266 0.956 . S
C254 H267 0.961 . S
C254 H268 0.961 . S
C255 C252 1.539 . S
C255 H269 0.958 . S
C255 H270 0.961 . S
C255 H271 0.960 . S
H256 C240 0.931 . S
H257 C245 0.929 . S
H258 C246 0.960 . S
H259 C246 0.962 . S
H260 C246 0.960 . S
H261 C247 0.961 . S
H262 C247 0.961 . S
H263 C247 0.961 . S
H264 C248 0.931 . S
H265 C253 0.930 . S
H266 C254 0.956 . S
H267 C254 0.961 . S
H268 C254 0.961 . S
H269 C255 0.958 . S
H270 C255 0.961 . S
H271 C255 0.960 . S
C272 C273 1.395 . S
C272 C274 1.394 . S
C272 H288 0.931 . S
C273 C272 1.395 . S
C273 C277 1.375 1_554 S
C274 C272 1.394 . S
C274 C275 1.369 . S
C274 C278 1.531 . S
C275 C274 1.369 . S
C275 C276 1.410 . S
C275 C283 1.503 . S
C276 C275 1.410 . S
C276 C277 1.392 1_554 S
C276 C279 1.511 1_554 S
C277 C273 1.375 1_556 S
C277 C276 1.392 1_556 S
C277 H289 0.929 . S
C278 C274 1.531 . S
C278 H290 0.960 . S
C278 H291 0.962 . S
C278 H292 0.960 . S
C279 C276 1.511 1_556 S
C279 H293 0.965 . S
C279 H294 0.964 . S
C279 H295 0.954 1_556 S
C280 C281 1.370 1_556 S
C280 C282 1.363 . S
C280 H296 0.931 . S
C281 C280 1.370 1_554 S
C281 C285 1.408 . S
C282 C280 1.363 . S
C282 C283 1.370 1_556 S
C282 C286 1.524 . S
C283 C275 1.503 . S
C283 C282 1.370 1_554 S
C283 C284 1.403 . S
C284 C283 1.403 . S
C284 C285 1.404 . S
C284 C287 1.539 . S
C285 C281 1.408 . S
C285 C284 1.404 . S
C285 H297 0.930 . S
C286 C282 1.524 . S
C286 H298 0.956 . S
C286 H299 0.961 . S
C286 H300 0.961 . S
C287 C284 1.539 . S
C287 H301 0.958 . S
C287 H302 0.961 . S
C287 H303 0.960 . S
H288 C272 0.931 . S
H289 C277 0.929 . S
H290 C278 0.960 . S
H291 C278 0.962 . S
H292 C278 0.960 . S
H293 C279 0.965 . S
H294 C279 0.964 . S
H295 C279 0.954 1_554 S
H296 C280 0.931 . S
H297 C285 0.930 . S
H298 C286 0.956 . S
H299 C286 0.961 . S
H300 C286 0.961 . S
H301 C287 0.958 . S
H302 C287 0.961 . S
H303 C287 0.960 . S
C304 C305 1.391 . S
C304 C306 1.394 . S
C304 H320 0.931 . S
C305 C304 1.391 . S
C305 C309 1.376 1_556 S
C306 C304 1.394 . S
C306 C307 1.369 . S
C306 C310 1.531 . S
C307 C306 1.369 . S
C307 C308 1.410 1_556 S
C307 C315 1.503 1_556 S
C308 C307 1.410 1_554 S
C308 C309 1.392 . S
C308 C311 1.511 . S
C309 C305 1.376 1_554 S
C309 C308 1.392 . S
C309 H321 0.929 . S
C310 C306 1.531 . S
C310 H322 0.960 . S
C310 H323 0.962 . S
C310 H324 0.960 . S
C311 C308 1.511 . S
C311 H325 0.961 . S
C311 H326 0.961 . S
C311 H327 0.961 . S
C312 C313 1.370 . S
C312 C314 1.363 . S
C312 H328 0.931 . S
C313 C312 1.370 . S
C313 C317 1.408 1_554 S
C314 C312 1.363 . S
C314 C315 1.370 . S
C314 C318 1.524 . S
C315 C307 1.503 1_554 S
C315 C314 1.370 . S
C315 C316 1.403 1_554 S
C316 C315 1.403 1_556 S
C316 C317 1.404 . S
C316 C319 1.539 . S
C317 C313 1.408 1_556 S
C317 C316 1.404 . S
C317 H329 0.930 . S
C318 C314 1.524 . S
C318 H330 0.956 . S
C318 H331 0.961 . S
C318 H332 0.961 . S
C319 C316 1.539 . S
C319 H333 0.958 . S
C319 H334 0.961 . S
C319 H335 0.960 . S
H320 C304 0.931 . S
H321 C309 0.929 . S
H322 C310 0.960 . S
H323 C310 0.962 . S
H324 C310 0.960 . S
H325 C311 0.961 . S
H326 C311 0.961 . S
H327 C311 0.961 . S
H328 C312 0.931 . S
H329 C317 0.930 . S
H330 C318 0.956 . S
H331 C318 0.961 . S
H332 C318 0.961 . S
H333 C319 0.958 . S
H334 C319 0.961 . S
H335 C319 0.960 . S
C336 C337 1.391 . S
C336 C338 1.394 . S
C336 H352 0.931 . S
C337 C336 1.391 . S
C337 C341 1.376 . S
C338 C336 1.394 . S
C338 C339 1.369 . S
C338 C342 1.531 . S
C339 C338 1.369 . S
C339 C340 1.410 . S
C339 C347 1.503 1_545 S
C340 C339 1.410 . S
C340 C341 1.392 . S
C340 C343 1.511 . S
C341 C337 1.376 . S
C341 C340 1.392 . S
C341 H353 0.929 . S
C342 C338 1.531 . S
C342 H354 0.960 1_545 S
C342 H355 0.962 . S
C342 H356 0.960 . S
C343 C340 1.511 . S
C343 H357 0.961 . S
C343 H358 0.961 1_545 S
C343 H359 0.961 . S
C344 C345 1.370 . S
C344 C346 1.363 . S
C344 H360 0.931 . S
C345 C344 1.370 . S
C345 C349 1.408 . S
C346 C344 1.363 . S
C346 C347 1.370 . S
C346 C350 1.524 . S
C347 C339 1.503 1_565 S
C347 C346 1.370 . S
C347 C348 1.403 . S
C348 C347 1.403 . S
C348 C349 1.404 . S
C348 C351 1.539 . S
C349 C345 1.408 . S
C349 C348 1.404 . S
C349 H361 0.930 . S
C350 C346 1.524 . S
C350 H362 0.956 1_565 S
C350 H363 0.961 1_565 S
C350 H364 0.961 . S
C351 C348 1.539 . S
C351 H365 0.958 . S
C351 H366 0.961 . S
C351 H367 0.960 . S
H352 C336 0.931 . S
H353 C341 0.929 . S
H354 C342 0.960 1_565 S
H355 C342 0.962 . S
H356 C342 0.960 . S
H357 C343 0.961 . S
H358 C343 0.961 1_565 S
H359 C343 0.961 . S
H360 C344 0.931 . S
H361 C349 0.930 . S
H362 C350 0.956 1_545 S
H363 C350 0.961 1_545 S
H364 C350 0.961 . S
H365 C351 0.958 . S
H366 C351 0.961 . S
H367 C351 0.960 . S
C368 C369 1.391 . S
C368 C370 1.394 . S
C368 H384 0.931 . S
C369 C368 1.391 . S
C369 C373 1.376 . S
C370 C368 1.394 . S
C370 C371 1.369 . S
C370 C374 1.531 . S
C371 C370 1.369 . S
C371 C372 1.410 . S
C371 C379 1.503 1_655 S
C372 C371 1.410 . S
C372 C373 1.392 . S
C372 C375 1.511 . S
C373 C369 1.376 . S
C373 C372 1.392 . S
C373 H385 0.929 . S
C374 C370 1.531 . S
C374 H386 0.960 . S
C374 H387 0.962 . S
C374 H388 0.960 . S
C375 C372 1.511 . S
C375 H389 0.961 . S
C375 H390 0.961 1_655 S
C375 H391 0.961 . S
C376 C377 1.370 . S
C376 C378 1.363 . S
C376 H392 0.931 . S
C377 C376 1.370 . S
C377 C381 1.408 . S
C378 C376 1.363 . S
C378 C379 1.370 . S
C378 C382 1.524 . S
C379 C371 1.503 1_455 S
C379 C378 1.370 . S
C379 C380 1.403 . S
C380 C379 1.403 . S
C380 C381 1.404 . S
C380 C383 1.539 . S
C381 C377 1.408 . S
C381 C380 1.404 . S
C381 H393 0.930 . S
C382 C378 1.524 . S
C382 H394 0.975 . S
C382 H395 0.966 . S
C382 H396 0.961 . S
C383 C380 1.539 . S
C383 H397 0.958 . S
C383 H398 0.961 . S
C383 H399 0.962 . S
H384 C368 0.931 . S
H385 C373 0.929 . S
H386 C374 0.960 . S
H387 C374 0.962 . S
H388 C374 0.960 . S
H389 C375 0.961 . S
H390 C375 0.961 1_455 S
H391 C375 0.961 . S
H392 C376 0.931 . S
H393 C381 0.930 . S
H394 C382 0.975 . S
H395 C382 0.966 . S
H396 C382 0.961 . S
H397 C383 0.958 . S
H398 C383 0.961 . S
H399 C383 0.962 . S
C400 C401 1.391 . S
C400 C402 1.394 . S
C400 H416 0.931 . S
C401 C400 1.391 . S
C401 C405 1.376 . S
C402 C400 1.394 . S
C402 C403 1.369 . S
C402 C406 1.531 . S
C403 C402 1.369 . S
C403 C404 1.410 . S
C403 C411 1.503 1_545 S
C404 C403 1.410 . S
C404 C405 1.392 . S
C404 C407 1.511 . S
C405 C401 1.376 . S
C405 C404 1.392 . S
C405 H417 0.929 . S
C406 C402 1.531 . S
C406 H418 0.937 1_545 S
C406 H419 0.962 . S
C406 H420 0.960 . S
C407 C404 1.511 . S
C407 H421 0.961 . S
C407 H422 0.961 1_545 S
C407 H423 0.961 . S
C408 C409 1.370 . S
C408 C410 1.363 . S
C408 H424 0.931 . S
C409 C408 1.370 . S
C409 C413 1.408 . S
C410 C408 1.363 . S
C410 C411 1.370 . S
C410 C414 1.524 . S
C411 C403 1.503 1_565 S
C411 C410 1.370 . S
C411 C412 1.403 . S
C412 C411 1.403 . S
C412 C413 1.404 . S
C412 C415 1.539 . S
C413 C409 1.408 . S
C413 C412 1.404 . S
C413 H425 0.930 . S
C414 C410 1.524 . S
C414 H426 0.956 . S
C414 H427 0.961 . S
C414 H428 0.961 . S
C415 C412 1.539 . S
C415 H429 0.958 . S
C415 H430 0.961 . S
C415 H431 0.960 1_565 S
H416 C400 0.931 . S
H417 C405 0.929 . S
H418 C406 0.937 1_565 S
H419 C406 0.962 . S
H420 C406 0.960 . S
H421 C407 0.961 . S
H422 C407 0.961 1_565 S
H423 C407 0.961 . S
H424 C408 0.931 . S
H425 C413 0.930 . S
H426 C414 0.956 . S
H427 C414 0.961 . S
H428 C414 0.961 . S
H429 C415 0.958 . S
H430 C415 0.961 . S
H431 C415 0.960 1_545 S
C432 C433 1.391 . S
C432 C434 1.394 . S
C432 H448 0.931 . S
C433 C432 1.391 . S
C433 C437 1.376 . S
C434 C432 1.394 . S
C434 C435 1.369 . S
C434 C438 1.531 . S
C435 C434 1.369 . S
C435 C436 1.410 . S
C435 C443 1.503 1_455 S
C436 C435 1.410 . S
C436 C437 1.392 . S
C436 C439 1.511 . S
C437 C433 1.376 . S
C437 C436 1.392 . S
C437 H449 0.929 . S
C438 C434 1.531 . S
C438 H450 0.960 1_455 S
C438 H451 0.962 . S
C438 H452 0.960 . S
C439 C436 1.511 . S
C439 H453 0.961 . S
C439 H454 0.961 1_455 S
C439 H455 0.961 . S
C440 C441 1.370 . S
C440 C442 1.363 . S
C440 H456 0.931 . S
C441 C440 1.370 . S
C441 C445 1.408 . S
C442 C440 1.363 . S
C442 C443 1.370 . S
C442 C446 1.524 . S
C443 C435 1.503 1_655 S
C443 C442 1.370 . S
C443 C444 1.403 . S
C444 C443 1.403 . S
C444 C445 1.404 . S
C444 C447 1.539 . S
C445 C441 1.408 . S
C445 C444 1.404 . S
C445 H457 0.930 . S
C446 C442 1.524 . S
C446 H458 0.956 1_655 S
C446 H459 0.961 1_655 S
C446 H460 0.961 . S
C447 C444 1.539 . S
C447 H461 0.958 . S
C447 H462 0.961 . S
C447 H463 0.960 . S
H448 C432 0.931 . S
H449 C437 0.929 . S
H450 C438 0.960 1_655 S
H451 C438 0.962 . S
H452 C438 0.960 . S
H453 C439 0.961 . S
H454 C439 0.961 1_655 S
H455 C439 0.961 . S
H456 C440 0.931 . S
H457 C445 0.930 . S
H458 C446 0.956 1_455 S
H459 C446 0.961 1_455 S
H460 C446 0.961 . S
H461 C447 0.958 . S
H462 C447 0.961 . S
H463 C447 0.960 . S
C464 C465 1.391 . S
C464 C466 1.394 . S
C464 H480 0.931 . S
C465 C464 1.391 . S
C465 C469 1.376 1_556 S
C466 C464 1.394 . S
C466 C467 1.369 . S
C466 C470 1.531 . S
C467 C466 1.369 . S
C467 C468 1.410 1_556 S
C467 C475 1.503 1_556 S
C468 C467 1.410 1_554 S
C468 C469 1.392 . S
C468 C471 1.511 . S
C469 C465 1.376 1_554 S
C469 C468 1.392 . S
C469 H481 0.929 . S
C470 C466 1.531 . S
C470 H482 0.960 . S
C470 H483 0.962 . S
C470 H484 0.960 . S
C471 C468 1.511 . S
C471 H485 0.961 . S
C471 H486 0.961 . S
C471 H487 0.961 . S
C472 C473 1.370 . S
C472 C474 1.363 . S
C472 H488 0.931 . S
C473 C472 1.370 . S
C473 C477 1.408 1_554 S
C474 C472 1.363 . S
C474 C475 1.370 . S
C474 C478 1.524 . S
C475 C467 1.503 1_554 S
C475 C474 1.370 . S
C475 C476 1.403 1_554 S
C476 C475 1.403 1_556 S
C476 C477 1.404 . S
C476 C479 1.539 . S
C477 C473 1.408 1_556 S
C477 C476 1.404 . S
C477 H489 0.930 . S
C478 C474 1.524 . S
C478 H490 0.956 . S
C478 H491 0.961 . S
C478 H492 0.961 . S
C479 C476 1.539 . S
C479 H493 0.958 . S
C479 H494 0.961 . S
C479 H495 0.960 . S
H480 C464 0.931 . S
H481 C469 0.929 . S
H482 C470 0.960 . S
H483 C470 0.962 . S
H484 C470 0.960 . S
H485 C471 0.961 . S
H486 C471 0.961 . S
H487 C471 0.961 . S
H488 C472 0.931 . S
H489 C477 0.930 . S
H490 C478 0.956 . S
H491 C478 0.961 . S
H492 C478 0.961 . S
H493 C479 0.958 . S
H494 C479 0.961 . S
H495 C479 0.960 . S
C496 C497 1.391 . S
C496 C498 1.394 . S
C496 H512 0.931 . S
C497 C496 1.391 . S
C497 C501 1.376 1_554 S
C498 C496 1.394 . S
C498 C499 1.369 1_554 S
C498 C502 1.531 . S
C499 C498 1.369 1_556 S
C499 C500 1.410 . S
C499 C507 1.503 . S
C500 C499 1.410 . S
C500 C501 1.392 . S
C500 C503 1.511 . S
C501 C497 1.376 1_556 S
C501 C500 1.392 . S
C501 H513 0.929 . S
C502 C498 1.531 . S
C502 H514 0.960 . S
C502 H515 0.962 . S
C502 H516 0.960 . S
C503 C500 1.511 . S
C503 H517 0.961 . S
C503 H518 0.961 . S
C503 H519 0.961 . S
C504 C505 1.370 1_554 S
C504 C506 1.363 . S
C504 H520 0.931 . S
C505 C504 1.370 1_556 S
C505 C509 1.408 . S
C506 C504 1.363 . S
C506 C507 1.370 1_554 S
C506 C510 1.524 . S
C507 C499 1.503 . S
C507 C506 1.370 1_556 S
C507 C508 1.403 . S
C508 C507 1.403 . S
C508 C509 1.404 . S
C508 C511 1.539 . S
C509 C505 1.408 . S
C509 C508 1.404 . S
C509 H521 0.930 . S
C510 C506 1.524 . S
C510 H522 0.956 . S
C510 H523 0.961 . S
C510 H524 0.961 . S
C511 C508 1.539 . S
C511 H525 0.958 . S
C511 H526 0.961 . S
C511 H527 0.960 . S
H512 C496 0.931 . S
H513 C501 0.929 . S
H514 C502 0.960 . S
H515 C502 0.962 . S
H516 C502 0.960 . S
H517 C503 0.961 . S
H518 C503 0.961 . S
H519 C503 0.961 . S
H520 C504 0.931 . S
H521 C509 0.930 . S
H522 C510 0.956 . S
H523 C510 0.961 . S
H524 C510 0.961 . S
H525 C511 0.958 . S
H526 C511 0.961 . S
H527 C511 0.960 . S
C528 C529 1.391 . S
C528 C530 1.394 . S
C528 H544 0.931 . S
C529 C528 1.391 . S
C529 C533 1.376 1_556 S
C530 C528 1.394 . S
C530 C531 1.369 . S
C530 C534 1.531 . S
C531 C530 1.369 . S
C531 C532 1.410 1_556 S
C531 C539 1.503 . S
C532 C531 1.410 1_554 S
C532 C533 1.392 . S
C532 C535 1.511 . S
C533 C529 1.376 1_554 S
C533 C532 1.392 . S
C533 H545 0.929 . S
C534 C530 1.531 . S
C534 H546 0.960 . S
C534 H547 0.962 . S
C534 H548 0.960 . S
C535 C532 1.511 . S
C535 H549 0.961 . S
C535 H550 0.961 . S
C535 H551 0.961 1_554 S
C536 C537 1.370 . S
C536 C538 1.363 . S
C536 H552 0.931 . S
C537 C536 1.370 . S
C537 C541 1.408 1_554 S
C538 C536 1.363 . S
C538 C539 1.373 1_554 S
C538 C542 1.524 . S
C539 C531 1.503 . S
C539 C538 1.373 1_556 S
C539 C540 1.400 . S
C540 C539 1.400 . S
C540 C541 1.404 . S
C540 C543 1.539 . S
C541 C537 1.408 1_556 S
C541 C540 1.404 . S
C541 H553 0.930 . S
C542 C538 1.524 . S
C542 H554 0.956 . S
C542 H555 0.961 . S
C542 H556 0.961 . S
C543 C540 1.539 . S
C543 H557 0.958 . S
C543 H558 0.961 . S
C543 H559 0.960 . S
H544 C528 0.931 . S
H545 C533 0.929 . S
H546 C534 0.960 . S
H547 C534 0.962 . S
H548 C534 0.960 . S
H549 C535 0.961 . S
H550 C535 0.961 . S
H551 C535 0.961 1_556 S
H552 C536 0.931 . S
H553 C541 0.930 . S
H554 C542 0.956 . S
H555 C542 0.961 . S
H556 C542 0.961 . S
H557 C543 0.958 . S
H558 C543 0.961 . S
H559 C543 0.960 . S
C560 C561 1.391 . S
C560 C562 1.394 . S
C560 H576 0.931 . S
C561 C560 1.391 . S
C561 C565 1.376 . S
C562 C560 1.394 . S
C562 C563 1.369 . S
C562 C566 1.531 . S
C563 C562 1.369 . S
C563 C564 1.410 . S
C563 C571 1.503 . S
C564 C563 1.410 . S
C564 C565 1.392 . S
C564 C567 1.511 . S
C565 C561 1.376 . S
C565 C564 1.392 . S
C565 H577 0.929 . S
C566 C562 1.531 . S
C566 H578 0.960 . S
C566 H579 0.962 . S
C566 H580 0.960 . S
C567 C564 1.511 . S
C567 H581 0.961 1_554 S
C567 H582 0.961 1_554 S
C567 H583 0.961 . S
C568 C569 1.370 . S
C568 C570 1.363 . S
C568 H584 0.931 . S
C569 C568 1.370 . S
C569 C573 1.408 1_556 S
C570 C568 1.363 . S
C570 C571 1.370 1_556 S
C570 C574 1.524 . S
C571 C563 1.503 . S
C571 C570 1.370 1_554 S
C571 C572 1.403 . S
C572 C571 1.403 . S
C572 C573 1.404 . S
C572 C575 1.539 . S
C573 C569 1.408 1_554 S
C573 C572 1.404 . S
C573 H585 0.930 . S
C574 C570 1.524 . S
C574 H586 0.956 . S
C574 H587 0.961 . S
C574 H588 0.961 . S
C575 C572 1.539 . S
C575 H589 0.958 . S
C575 H590 0.961 . S
C575 H591 0.960 . S
H576 C560 0.931 . S
H577 C565 0.929 . S
H578 C566 0.960 . S
H579 C566 0.962 . S
H580 C566 0.960 . S
H581 C567 0.961 1_556 S
H582 C567 0.961 1_556 S
H583 C567 0.961 . S
H584 C568 0.931 . S
H585 C573 0.930 . S
H586 C574 0.956 . S
H587 C574 0.961 . S
H588 C574 0.961 . S
H589 C575 0.958 . S
H590 C575 0.961 . S
H591 C575 0.960 . S
C592 C593 1.391 . S
C592 C594 1.394 . S
C592 H608 0.931 . S
C593 C592 1.391 . S
C593 C597 1.376 . S
C594 C592 1.394 . S
C594 C595 1.369 . S
C594 C598 1.531 . S
C595 C594 1.369 . S
C595 C596 1.410 . S
C595 C603 1.503 . S
C596 C595 1.410 . S
C596 C597 1.392 . S
C596 C599 1.511 . S
C597 C593 1.376 . S
C597 C596 1.392 . S
C597 H609 0.929 . S
C598 C594 1.531 . S
C598 H610 0.960 . S
C598 H611 0.962 . S
C598 H612 0.960 . S
C599 C596 1.511 . S
C599 H613 0.961 . S
C599 H614 0.961 . S
C599 H615 0.961 . S
C600 C601 1.370 . S
C600 C602 1.363 . S
C600 H616 0.931 . S
C601 C600 1.370 . S
C601 C605 1.408 . S
C602 C600 1.363 . S
C602 C603 1.370 . S
C602 C606 1.524 . S
C603 C595 1.503 . S
C603 C602 1.370 . S
C603 C604 1.403 . S
C604 C603 1.403 . S
C604 C605 1.404 . S
C604 C607 1.539 . S
C605 C601 1.408 . S
C605 C604 1.404 . S
C605 H617 0.930 . S
C606 C602 1.524 . S
C606 H618 0.956 . S
C606 H619 0.961 . S
C606 H620 0.961 . S
C607 C604 1.539 . S
C607 H621 0.958 . S
C607 H622 0.961 . S
C607 H623 0.960 . S
H608 C592 0.931 . S
H609 C597 0.929 . S
H610 C598 0.960 . S
H611 C598 0.962 . S
H612 C598 0.960 . S
H613 C599 0.961 . S
H614 C599 0.961 . S
H615 C599 0.961 . S
H616 C600 0.931 . S
H617 C605 0.930 . S
H618 C606 0.956 . S
H619 C606 0.961 . S
H620 C606 0.961 . S
H621 C607 0.958 . S
H622 C607 0.961 . S
H623 C607 0.960 . S
C624 C625 1.391 . S
C624 C626 1.394 . S
C624 H640 0.931 . S
C625 C624 1.391 . S
C625 C629 1.376 . S
C626 C624 1.394 . S
C626 C627 1.369 . S
C626 C630 1.531 . S
C627 C626 1.369 . S
C627 C628 1.410 . S
C627 C635 1.503 . S
C628 C627 1.410 . S
C628 C629 1.392 . S
C628 C631 1.511 . S
C629 C625 1.376 . S
C629 C628 1.392 . S
C629 H641 0.929 . S
C630 C626 1.531 . S
C630 H642 0.960 . S
C630 H643 0.962 . S
C630 H644 0.960 . S
C631 C628 1.511 . S
C631 H645 0.961 . S
C631 H646 0.961 . S
C631 H647 0.961 . S
C632 C633 1.370 . S
C632 C634 1.363 . S
C632 H648 0.931 . S
C633 C632 1.370 . S
C633 C637 1.408 . S
C634 C632 1.363 . S
C634 C635 1.370 . S
C634 C638 1.524 . S
C635 C627 1.503 . S
C635 C634 1.370 . S
C635 C636 1.403 . S
C636 C635 1.403 . S
C636 C637 1.404 . S
C636 C639 1.539 . S
C637 C633 1.408 . S
C637 C636 1.404 . S
C637 H649 0.930 . S
C638 C634 1.524 . S
C638 H650 0.956 . S
C638 H651 0.961 . S
C638 H652 0.961 . S
C639 C636 1.539 . S
C639 H653 0.958 . S
C639 H654 0.961 . S
C639 H655 0.960 . S
H640 C624 0.931 . S
H641 C629 0.929 . S
H642 C630 0.960 . S
H643 C630 0.962 . S
H644 C630 0.960 . S
H645 C631 0.961 . S
H646 C631 0.961 . S
H647 C631 0.961 . S
H648 C632 0.931 . S
H649 C637 0.930 . S
H650 C638 0.956 . S
H651 C638 0.961 . S
H652 C638 0.961 . S
H653 C639 0.958 . S
H654 C639 0.961 . S
H655 C639 0.960 . S
C656 C657 1.391 . S
C656 C658 1.394 . S
C656 H672 0.931 . S
C657 C656 1.391 . S
C657 C661 1.376 . S
C658 C656 1.394 . S
C658 C659 1.369 . S
C658 C662 1.531 . S
C659 C658 1.369 . S
C659 C660 1.410 . S
C659 C667 1.503 . S
C660 C659 1.410 . S
C660 C661 1.392 . S
C660 C663 1.511 . S
C661 C657 1.376 . S
C661 C660 1.392 . S
C661 H673 0.929 . S
C662 C658 1.531 . S
C662 H674 0.960 . S
C662 H675 0.962 . S
C662 H676 0.960 . S
C663 C660 1.511 . S
C663 H677 0.961 . S
C663 H678 0.961 . S
C663 H679 0.961 . S
C664 C665 1.370 . S
C664 C666 1.363 . S
C664 H680 0.931 . S
C665 C664 1.370 . S
C665 C669 1.408 . S
C666 C664 1.363 . S
C666 C667 1.370 . S
C666 C670 1.524 . S
C667 C659 1.503 . S
C667 C666 1.370 . S
C667 C668 1.403 . S
C668 C667 1.403 . S
C668 C669 1.404 . S
C668 C671 1.539 . S
C669 C665 1.408 . S
C669 C668 1.404 . S
C669 H681 0.930 . S
C670 C666 1.524 . S
C670 H682 0.956 . S
C670 H683 0.961 . S
C670 H684 0.961 . S
C671 C668 1.539 . S
C671 H685 0.958 . S
C671 H686 0.961 . S
C671 H687 0.960 . S
H672 C656 0.931 . S
H673 C661 0.929 . S
H674 C662 0.960 . S
H675 C662 0.962 . S
H676 C662 0.960 . S
H677 C663 0.961 . S
H678 C663 0.961 . S
H679 C663 0.961 . S
H680 C664 0.931 . S
H681 C669 0.930 . S
H682 C670 0.956 . S
H683 C670 0.961 . S
H684 C670 0.961 . S
H685 C671 0.958 . S
H686 C671 0.961 . S
H687 C671 0.960 . S
C688 C689 1.391 . S
C688 C690 1.394 . S
C688 H704 0.931 . S
C689 C688 1.391 . S
C689 C693 1.376 . S
C690 C688 1.394 . S
C690 C691 1.369 . S
C690 C694 1.531 . S
C691 C690 1.369 . S
C691 C692 1.410 . S
C691 C699 1.503 . S
C692 C691 1.410 . S
C692 C693 1.392 . S
C692 C695 1.511 . S
C693 C689 1.376 . S
C693 C692 1.392 . S
C693 H705 0.929 . S
C694 C690 1.531 . S
C694 H706 0.960 . S
C694 H707 0.962 . S
C694 H708 0.960 . S
C695 C692 1.511 . S
C695 H709 0.961 . S
C695 H710 0.961 . S
C695 H711 0.961 . S
C696 C697 1.370 . S
C696 C698 1.363 . S
C696 H712 0.931 . S
C697 C696 1.370 . S
C697 C701 1.408 . S
C698 C696 1.363 . S
C698 C699 1.370 . S
C698 C702 1.524 . S
C699 C691 1.503 . S
C699 C698 1.370 . S
C699 C700 1.403 . S
C700 C699 1.403 . S
C700 C701 1.404 . S
C700 C703 1.539 . S
C701 C697 1.408 . S
C701 C700 1.404 . S
C701 H713 0.930 . S
C702 C698 1.524 . S
C702 H714 0.956 . S
C702 H715 0.961 . S
C702 H716 0.961 . S
C703 C700 1.539 . S
C703 H717 0.958 . S
C703 H718 0.961 . S
C703 H719 0.960 . S
H704 C688 0.931 . S
H705 C693 0.929 . S
H706 C694 0.960 . S
H707 C694 0.962 . S
H708 C694 0.960 . S
H709 C695 0.961 . S
H710 C695 0.961 . S
H711 C695 0.961 . S
H712 C696 0.931 . S
H713 C701 0.930 . S
H714 C702 0.956 . S
H715 C702 0.961 . S
H716 C702 0.961 . S
H717 C703 0.958 . S
H718 C703 0.961 . S
H719 C703 0.960 . S
C720 C721 1.391 . S
C720 C722 1.394 . S
C720 H736 0.931 . S
C721 C720 1.391 . S
C721 C725 1.376 . S
C722 C720 1.394 . S
C722 C723 1.369 . S
C722 C726 1.531 . S
C723 C722 1.369 . S
C723 C724 1.410 . S
C723 C731 1.503 . S
C724 C723 1.410 . S
C724 C725 1.392 . S
C724 C727 1.511 . S
C725 C721 1.376 . S
C725 C724 1.392 . S
C725 H737 0.929 . S
C726 C722 1.531 . S
C726 H738 0.960 . S
C726 H739 0.962 . S
C726 H740 0.960 . S
C727 C724 1.511 . S
C727 H741 0.961 . S
C727 H742 0.961 . S
C727 H743 0.961 . S
C728 C729 1.370 . S
C728 C730 1.363 . S
C728 H744 0.931 . S
C729 C728 1.370 . S
C729 C733 1.408 . S
C730 C728 1.363 . S
C730 C731 1.370 . S
C730 C734 1.524 . S
C731 C723 1.503 . S
C731 C730 1.370 . S
C731 C732 1.403 . S
C732 C731 1.403 . S
C732 C733 1.404 . S
C732 C735 1.539 . S
C733 C729 1.408 . S
C733 C732 1.404 . S
C733 H745 0.930 . S
C734 C730 1.524 . S
C734 H746 0.956 . S
C734 H747 0.961 . S
C734 H748 0.961 . S
C735 C732 1.539 . S
C735 H749 0.958 . S
C735 H750 0.961 . S
C735 H751 0.960 . S
H736 C720 0.931 . S
H737 C725 0.929 . S
H738 C726 0.960 . S
H739 C726 0.962 . S
H740 C726 0.960 . S
H741 C727 0.961 . S
H742 C727 0.961 . S
H743 C727 0.961 . S
H744 C728 0.931 . S
H745 C733 0.930 . S
H746 C734 0.956 . S
H747 C734 0.961 . S
H748 C734 0.961 . S
H749 C735 0.958 . S
H750 C735 0.961 . S
H751 C735 0.960 . S
C752 C753 1.391 . S
C752 C754 1.394 . S
C752 H768 0.931 . S
C753 C752 1.391 . S
C753 C757 1.376 . S
C754 C752 1.394 . S
C754 C755 1.369 . S
C754 C758 1.531 . S
C755 C754 1.369 . S
C755 C756 1.410 . S
C755 C763 1.503 . S
C756 C755 1.410 . S
C756 C757 1.392 . S
C756 C759 1.511 . S
C757 C753 1.376 . S
C757 C756 1.392 . S
C757 H769 0.929 . S
C758 C754 1.531 . S
C758 H770 0.960 . S
C758 H771 0.962 . S
C758 H772 0.960 . S
C759 C756 1.511 . S
C759 H773 0.961 . S
C759 H774 0.961 . S
C759 H775 0.961 . S
C760 C761 1.370 . S
C760 C762 1.363 . S
C760 H776 0.931 . S
C761 C760 1.370 . S
C761 C765 1.408 . S
C762 C760 1.363 . S
C762 C763 1.370 . S
C762 C766 1.524 . S
C763 C755 1.503 . S
C763 C762 1.370 . S
C763 C764 1.403 . S
C764 C763 1.403 . S
C764 C765 1.404 . S
C764 C767 1.539 . S
C765 C761 1.408 . S
C765 C764 1.404 . S
C765 H777 0.930 . S
C766 C762 1.524 . S
C766 H778 0.956 . S
C766 H779 0.961 . S
C766 H780 0.961 . S
C767 C764 1.539 . S
C767 H781 0.958 . S
C767 H782 0.961 . S
C767 H783 0.960 . S
H768 C752 0.931 . S
H769 C757 0.929 . S
H770 C758 0.960 . S
H771 C758 0.962 . S
H772 C758 0.960 . S
H773 C759 0.961 . S
H774 C759 0.961 . S
H775 C759 0.961 . S
H776 C760 0.931 . S
H777 C765 0.930 . S
H778 C766 0.956 . S
H779 C766 0.961 . S
H780 C766 0.961 . S
H781 C767 0.958 . S
H782 C767 0.961 . S
H783 C767 0.960 . S
C784 C785 1.391 . S
C784 C786 1.394 . S
C784 H800 0.931 . S
C785 C784 1.391 . S
C785 C789 1.376 . S
C786 C784 1.394 . S
C786 C787 1.369 . S
C786 C790 1.531 . S
C787 C786 1.369 . S
C787 C788 1.410 . S
C787 C795 1.503 . S
C788 C787 1.410 . S
C788 C789 1.392 . S
C788 C791 1.511 . S
C789 C785 1.376 . S
C789 C788 1.392 . S
C789 H801 0.929 . S
C790 C786 1.531 . S
C790 H802 0.960 . S
C790 H803 0.962 . S
C790 H804 0.960 . S
C791 C788 1.511 . S
C791 H805 0.961 . S
C791 H806 0.961 . S
C791 H807 0.961 . S
C792 C793 1.370 . S
C792 C794 1.363 . S
C792 H808 0.931 . S
C793 C792 1.370 . S
C793 C797 1.408 . S
C794 C792 1.363 . S
C794 C795 1.370 . S
C794 C798 1.524 . S
C795 C787 1.503 . S
C795 C794 1.370 . S
C795 C796 1.403 . S
C796 C795 1.403 . S
C796 C797 1.404 . S
C796 C799 1.539 . S
C797 C793 1.408 . S
C797 C796 1.404 . S
C797 H809 0.930 . S
C798 C794 1.524 . S
C798 H810 0.956 . S
C798 H811 0.961 . S
C798 H812 0.961 . S
C799 C796 1.539 . S
C799 H813 0.958 . S
C799 H814 0.961 . S
C799 H815 0.960 . S
H800 C784 0.931 . S
H801 C789 0.929 . S
H802 C790 0.960 . S
H803 C790 0.962 . S
H804 C790 0.960 . S
H805 C791 0.961 . S
H806 C791 0.961 . S
H807 C791 0.961 . S
H808 C792 0.931 . S
H809 C797 0.930 . S
H810 C798 0.956 . S
H811 C798 0.961 . S
H812 C798 0.961 . S
H813 C799 0.958 . S
H814 C799 0.961 . S
H815 C799 0.960 . S
C816 C817 1.391 . S
C816 C818 1.394 . S
C816 H832 0.931 . S
C817 C816 1.391 . S
C817 C821 1.376 . S
C818 C816 1.394 . S
C818 C819 1.369 . S
C818 C822 1.531 . S
C819 C818 1.369 . S
C819 C820 1.410 . S
C819 C827 1.503 . S
C820 C819 1.410 . S
C820 C821 1.392 . S
C820 C823 1.511 . S
C821 C817 1.376 . S
C821 C820 1.392 . S
C821 H833 0.929 . S
C822 C818 1.531 . S
C822 H834 0.960 . S
C822 H835 0.962 . S
C822 H836 0.960 . S
C823 C820 1.511 . S
C823 H837 0.961 . S
C823 H838 0.961 . S
C823 H839 0.961 . S
C824 C825 1.370 . S
C824 C826 1.363 . S
C824 H840 0.931 . S
C825 C824 1.370 . S
C825 C829 1.408 . S
C826 C824 1.363 . S
C826 C827 1.370 . S
C826 C830 1.524 . S
C827 C819 1.503 . S
C827 C826 1.370 . S
C827 C828 1.403 . S
C828 C827 1.403 . S
C828 C829 1.404 . S
C828 C831 1.539 . S
C829 C825 1.408 . S
C829 C828 1.404 . S
C829 H841 0.930 . S
C830 C826 1.524 . S
C830 H842 0.956 . S
C830 H843 0.961 . S
C830 H844 0.961 . S
C831 C828 1.539 . S
C831 H845 0.958 . S
C831 H846 0.961 . S
C831 H847 0.960 . S
H832 C816 0.931 . S
H833 C821 0.929 . S
H834 C822 0.960 . S
H835 C822 0.962 . S
H836 C822 0.960 . S
H837 C823 0.961 . S
H838 C823 0.961 . S
H839 C823 0.961 . S
H840 C824 0.931 . S
H841 C829 0.930 . S
H842 C830 0.956 . S
H843 C830 0.961 . S
H844 C830 0.961 . S
H845 C831 0.958 . S
H846 C831 0.961 . S
H847 C831 0.960 . S
C848 C849 1.391 . S
C848 C850 1.394 . S
C848 H864 0.931 . S
C849 C848 1.391 . S
C849 C853 1.376 . S
C850 C848 1.394 . S
C850 C851 1.369 . S
C850 C854 1.531 . S
C851 C850 1.369 . S
C851 C852 1.410 . S
C851 C859 1.503 . S
C852 C851 1.410 . S
C852 C853 1.392 . S
C852 C855 1.511 . S
C853 C849 1.376 . S
C853 C852 1.392 . S
C853 H865 0.929 . S
C854 C850 1.531 . S
C854 H866 0.960 . S
C854 H867 0.962 . S
C854 H868 0.960 . S
C855 C852 1.511 . S
C855 H869 0.961 . S
C855 H870 0.961 . S
C855 H871 0.961 . S
C856 C857 1.370 . S
C856 C858 1.363 . S
C856 H872 0.931 . S
C857 C856 1.370 . S
C857 C861 1.408 . S
C858 C856 1.363 . S
C858 C859 1.370 . S
C858 C862 1.524 . S
C859 C851 1.503 . S
C859 C858 1.370 . S
C859 C860 1.403 . S
C860 C859 1.403 . S
C860 C861 1.404 . S
C860 C863 1.539 . S
C861 C857 1.408 . S
C861 C860 1.404 . S
C861 H873 0.930 . S
C862 C858 1.524 . S
C862 H874 0.956 . S
C862 H875 0.961 . S
C862 H876 0.961 . S
C863 C860 1.539 . S
C863 H877 0.958 . S
C863 H878 0.961 . S
C863 H879 0.960 . S
H864 C848 0.931 . S
H865 C853 0.929 . S
H866 C854 0.960 . S
H867 C854 0.962 . S
H868 C854 0.960 . S
H869 C855 0.961 . S
H870 C855 0.961 . S
H871 C855 0.961 . S
H872 C856 0.931 . S
H873 C861 0.930 . S
H874 C862 0.956 . S
H875 C862 0.961 . S
H876 C862 0.961 . S
H877 C863 0.958 . S
H878 C863 0.961 . S
H879 C863 0.960 . S
C880 C881 1.391 . S
C880 C882 1.394 . S
C880 H896 0.931 . S
C881 C880 1.391 . S
C881 C885 1.376 . S
C882 C880 1.394 . S
C882 C883 1.369 . S
C882 C886 1.531 . S
C883 C882 1.369 . S
C883 C884 1.410 . S
C883 C891 1.503 . S
C884 C883 1.410 . S
C884 C885 1.392 . S
C884 C887 1.511 . S
C885 C881 1.376 . S
C885 C884 1.392 . S
C885 H897 0.929 . S
C886 C882 1.531 . S
C886 H898 0.960 . S
C886 H899 0.962 . S
C886 H900 0.960 . S
C887 C884 1.511 . S
C887 H901 0.961 . S
C887 H902 0.961 . S
C887 H903 0.961 . S
C888 C889 1.370 . S
C888 C890 1.363 . S
C888 H904 0.931 . S
C889 C888 1.370 . S
C889 C893 1.408 . S
C890 C888 1.363 . S
C890 C891 1.370 . S
C890 C894 1.524 . S
C891 C883 1.503 . S
C891 C890 1.370 . S
C891 C892 1.403 . S
C892 C891 1.403 . S
C892 C893 1.404 . S
C892 C895 1.539 . S
C893 C889 1.408 . S
C893 C892 1.404 . S
C893 H905 0.930 . S
C894 C890 1.524 . S
C894 H906 0.956 . S
C894 H907 0.961 . S
C894 H908 0.961 . S
C895 C892 1.539 . S
C895 H909 0.958 . S
C895 H910 0.961 . S
C895 H911 0.960 . S
H896 C880 0.931 . S
H897 C885 0.929 . S
H898 C886 0.960 . S
H899 C886 0.962 . S
H900 C886 0.960 . S
H901 C887 0.961 . S
H902 C887 0.961 . S
H903 C887 0.961 . S
H904 C888 0.931 . S
H905 C893 0.930 . S
H906 C894 0.956 . S
H907 C894 0.961 . S
H908 C894 0.961 . S
H909 C895 0.958 . S
H910 C895 0.961 . S
H911 C895 0.960 . S
C912 C913 1.391 . S
C912 C914 1.394 . S
C912 H928 0.931 . S
C913 C912 1.391 . S
C913 C917 1.376 . S
C914 C912 1.394 . S
C914 C915 1.369 . S
C914 C918 1.531 . S
C915 C914 1.369 . S
C915 C916 1.410 . S
C915 C923 1.503 . S
C916 C915 1.410 . S
C916 C917 1.392 . S
C916 C919 1.511 . S
C917 C913 1.376 . S
C917 C916 1.392 . S
C917 H929 0.929 . S
C918 C914 1.531 . S
C918 H930 0.960 . S
C918 H931 0.962 . S
C918 H932 0.960 . S
C919 C916 1.511 . S
C919 H933 0.961 . S
C919 H934 0.961 . S
C919 H935 0.961 . S
C920 C921 1.370 . S
C920 C922 1.363 . S
C920 H936 0.931 . S
C921 C920 1.370 . S
C921 C925 1.408 . S
C922 C920 1.363 . S
C922 C923 1.370 . S
C922 C926 1.524 . S
C923 C915 1.503 . S
C923 C922 1.370 . S
C923 C924 1.403 . S
C924 C923 1.403 . S
C924 C925 1.404 . S
C924 C927 1.539 . S
C925 C921 1.408 . S
C925 C924 1.404 . S
C925 H937 0.930 . S
C926 C922 1.524 . S
C926 H938 0.956 . S
C926 H939 0.961 . S
C926 H940 0.961 . S
C927 C924 1.539 . S
C927 H941 0.958 . S
C927 H942 0.961 . S
C927 H943 0.960 . S
H928 C912 0.931 . S
H929 C917 0.929 . S
H930 C918 0.960 . S
H931 C918 0.962 . S
H932 C918 0.960 . S
H933 C919 0.961 . S
H934 C919 0.961 . S
H935 C919 0.961 . S
H936 C920 0.931 . S
H937 C925 0.930 . S
H938 C926 0.956 . S
H939 C926 0.961 . S
H940 C926 0.961 . S
H941 C927 0.958 . S
H942 C927 0.961 . S
H943 C927 0.960 . S
C944 C945 1.391 . S
C944 C946 1.394 . S
C944 H960 0.931 . S
C945 C944 1.391 . S
C945 C949 1.376 . S
C946 C944 1.394 . S
C946 C947 1.369 . S
C946 C950 1.531 . S
C947 C946 1.369 . S
C947 C948 1.410 . S
C947 C955 1.503 . S
C948 C947 1.410 . S
C948 C949 1.392 . S
C948 C951 1.511 . S
C949 C945 1.376 . S
C949 C948 1.392 . S
C949 H961 0.929 . S
C950 C946 1.531 . S
C950 H962 0.960 . S
C950 H963 0.962 . S
C950 H964 0.960 . S
C951 C948 1.511 . S
C951 H965 0.961 . S
C951 H966 0.961 . S
C951 H967 0.961 . S
C952 C953 1.370 . S
C952 C954 1.363 . S
C952 H968 0.931 . S
C953 C952 1.370 . S
C953 C957 1.408 . S
C954 C952 1.363 . S
C954 C955 1.370 . S
C954 C958 1.524 . S
C955 C947 1.503 . S
C955 C954 1.370 . S
C955 C956 1.403 . S
C956 C955 1.403 . S
C956 C957 1.404 . S
C956 C959 1.539 . S
C957 C953 1.408 . S
C957 C956 1.404 . S
C957 H969 0.930 . S
C958 C954 1.524 . S
C958 H970 0.956 . S
C958 H971 0.961 . S
C958 H972 0.961 . S
C959 C956 1.539 . S
C959 H973 0.958 . S
C959 H974 0.961 . S
C959 H975 0.960 . S
H960 C944 0.931 . S
H961 C949 0.929 . S
H962 C950 0.960 . S
H963 C950 0.962 . S
H964 C950 0.960 . S
H965 C951 0.961 . S
H966 C951 0.961 . S
H967 C951 0.961 . S
H968 C952 0.931 . S
H969 C957 0.930 . S
H970 C958 0.956 . S
H971 C958 0.961 . S
H972 C958 0.961 . S
H973 C959 0.958 . S
H974 C959 0.961 . S
H975 C959 0.960 . S
C976 C977 1.391 . S
C976 C978 1.394 . S
C976 H992 0.931 . S
C977 C976 1.391 . S
C977 C981 1.376 . S
C978 C976 1.394 . S
C978 C979 1.369 . S
C978 C982 1.531 . S
C979 C978 1.369 . S
C979 C980 1.410 . S
C979 C987 1.503 . S
C980 C979 1.410 . S
C980 C981 1.392 . S
C980 C983 1.511 . S
C981 C977 1.376 . S
C981 C980 1.392 . S
C981 H993 0.929 . S
C982 C978 1.531 . S
C982 H994 0.960 . S
C982 H995 0.962 . S
C982 H996 0.960 . S
C983 C980 1.511 . S
C983 H997 0.961 . S
C983 H998 0.961 . S
C983 H999 0.961 . S
C984 C985 1.370 . S
C984 C986 1.363 . S
C984 H1000 0.931 . S
C985 C984 1.370 . S
C985 C989 1.408 . S
C986 C984 1.363 . S
C986 C987 1.370 . S
C986 C990 1.524 . S
C987 C979 1.503 . S
C987 C986 1.370 . S
C987 C988 1.403 . S
C988 C987 1.403 . S
C988 C989 1.404 . S
C988 C991 1.539 . S
C989 C985 1.408 . S
C989 C988 1.404 . S
C989 H1001 0.930 . S
C990 C986 1.524 . S
C990 H1002 0.956 . S
C990 H1003 0.961 . S
C990 H1004 0.961 . S
C991 C988 1.539 . S
C991 H1005 0.958 . S
C991 H1006 0.961 . S
C991 H1007 0.960 . S
H992 C976 0.931 . S
H993 C981 0.929 . S
H994 C982 0.960 . S
H995 C982 0.962 . S
H996 C982 0.960 . S
H997 C983 0.961 . S
H998 C983 0.961 . S
H999 C983 0.961 . S
H1000 C984 0.931 . S
H1001 C989 0.930 . S
H1002 C990 0.956 . S
H1003 C990 0.961 . S
H1004 C990 0.961 . S
H1005 C991 0.958 . S
H1006 C991 0.961 . S
H1007 C991 0.960 . S
C1008 C1009 1.391 . S
C1008 C1010 1.394 . S
C1008 H1024 0.931 . S
C1009 C1008 1.391 . S
C1009 C1013 1.376 . S
C1010 C1008 1.394 . S
C1010 C1011 1.369 . S
C1010 C1014 1.531 . S
C1011 C1010 1.369 . S
C1011 C1012 1.410 . S
C1011 C1019 1.503 . S
C1012 C1011 1.410 . S
C1012 C1013 1.392 . S
C1012 C1015 1.511 . S
C1013 C1009 1.376 . S
C1013 C1012 1.392 . S
C1013 H1025 0.929 . S
C1014 C1010 1.531 . S
C1014 H1026 0.960 . S
C1014 H1027 0.962 . S
C1014 H1028 0.960 . S
C1015 C1012 1.511 . S
C1015 H1029 0.961 . S
C1015 H1030 0.961 . S
C1015 H1031 0.961 . S
C1016 C1017 1.370 . S
C1016 C1018 1.363 . S
C1016 H1032 0.931 . S
C1017 C1016 1.370 . S
C1017 C1021 1.408 . S
C1018 C1016 1.363 . S
C1018 C1019 1.370 . S
C1018 C1022 1.524 . S
C1019 C1011 1.503 . S
C1019 C1018 1.370 . S
C1019 C1020 1.403 . S
C1020 C1019 1.403 . S
C1020 C1021 1.404 . S
C1020 C1023 1.539 . S
C1021 C1017 1.408 . S
C1021 C1020 1.404 . S
C1021 H1033 0.930 . S
C1022 C1018 1.524 . S
C1022 H1034 0.956 . S
C1022 H1035 0.961 . S
C1022 H1036 0.961 . S
C1023 C1020 1.539 . S
C1023 H1037 0.958 . S
C1023 H1038 0.961 . S
C1023 H1039 0.960 . S
H1024 C1008 0.931 . S
H1025 C1013 0.929 . S
H1026 C1014 0.960 . S
H1027 C1014 0.962 . S
H1028 C1014 0.960 . S
H1029 C1015 0.961 . S
H1030 C1015 0.961 . S
H1031 C1015 0.961 . S
H1032 C1016 0.931 . S
H1033 C1021 0.930 . S
H1034 C1022 0.956 . S
H1035 C1022 0.961 . S
H1036 C1022 0.961 . S
H1037 C1023 0.958 . S
H1038 C1023 0.961 . S
H1039 C1023 0.960 . S
C1040 C1041 1.391 . S
C1040 C1042 1.394 . S
C1040 H1056 0.931 . S
C1041 C1040 1.391 . S
C1041 C1045 1.376 . S
C1042 C1040 1.394 . S
C1042 C1043 1.369 . S
C1042 C1046 1.531 . S
C1043 C1042 1.369 . S
C1043 C1044 1.410 . S
C1043 C1051 1.503 . S
C1044 C1043 1.410 . S
C1044 C1045 1.392 . S
C1044 C1047 1.511 . S
C1045 C1041 1.376 . S
C1045 C1044 1.392 . S
C1045 H1057 0.929 . S
C1046 C1042 1.531 . S
C1046 H1058 0.960 . S
C1046 H1059 0.962 . S
C1046 H1060 0.960 . S
C1047 C1044 1.511 . S
C1047 H1061 0.961 . S
C1047 H1062 0.961 . S
C1047 H1063 0.961 . S
C1048 C1049 1.370 . S
C1048 C1050 1.363 . S
C1048 H1064 0.931 . S
C1049 C1048 1.370 . S
C1049 C1053 1.408 . S
C1050 C1048 1.363 . S
C1050 C1051 1.370 . S
C1050 C1054 1.524 . S
C1051 C1043 1.503 . S
C1051 C1050 1.370 . S
C1051 C1052 1.403 . S
C1052 C1051 1.403 . S
C1052 C1053 1.404 . S
C1052 C1055 1.539 . S
C1053 C1049 1.408 . S
C1053 C1052 1.404 . S
C1053 H1065 0.930 . S
C1054 C1050 1.524 . S
C1054 H1066 0.956 . S
C1054 H1067 0.961 . S
C1054 H1068 0.961 . S
C1055 C1052 1.539 . S
C1055 H1069 0.958 . S
C1055 H1070 0.961 . S
C1055 H1071 0.960 . S
H1056 C1040 0.931 . S
H1057 C1045 0.929 . S
H1058 C1046 0.960 . S
H1059 C1046 0.962 . S
H1060 C1046 0.960 . S
H1061 C1047 0.961 . S
H1062 C1047 0.961 . S
H1063 C1047 0.961 . S
H1064 C1048 0.931 . S
H1065 C1053 0.930 . S
H1066 C1054 0.956 . S
H1067 C1054 0.961 . S
H1068 C1054 0.961 . S
H1069 C1055 0.958 . S
H1070 C1055 0.961 . S
H1071 C1055 0.960 . S
C1072 C1073 1.391 . S
C1072 C1074 1.394 . S
C1072 H1088 0.931 . S
C1073 C1072 1.391 . S
C1073 C1077 1.376 . S
C1074 C1072 1.394 . S
C1074 C1075 1.369 . S
C1074 C1078 1.531 . S
C1075 C1074 1.369 . S
C1075 C1076 1.410 . S
C1075 C1083 1.503 . S
C1076 C1075 1.410 . S
C1076 C1077 1.392 . S
C1076 C1079 1.511 . S
C1077 C1073 1.376 . S
C1077 C1076 1.392 . S
C1077 H1089 0.929 . S
C1078 C1074 1.531 . S
C1078 H1090 0.960 . S
C1078 H1091 0.962 . S
C1078 H1092 0.960 . S
C1079 C1076 1.511 . S
C1079 H1093 0.961 . S
C1079 H1094 0.961 . S
C1079 H1095 0.961 . S
C1080 C1081 1.370 . S
C1080 C1082 1.363 . S
C1080 H1096 0.931 . S
C1081 C1080 1.370 . S
C1081 C1085 1.408 . S
C1082 C1080 1.363 . S
C1082 C1083 1.370 . S
C1082 C1086 1.524 . S
C1083 C1075 1.503 . S
C1083 C1082 1.370 . S
C1083 C1084 1.403 . S
C1084 C1083 1.403 . S
C1084 C1085 1.404 . S
C1084 C1087 1.539 . S
C1085 C1081 1.408 . S
C1085 C1084 1.404 . S
C1085 H1097 0.930 . S
C1086 C1082 1.524 . S
C1086 H1098 0.956 . S
C1086 H1099 0.961 . S
C1086 H1100 0.961 . S
C1087 C1084 1.539 . S
C1087 H1101 0.958 . S
C1087 H1102 0.961 . S
C1087 H1103 0.960 . S
H1088 C1072 0.931 . S
H1089 C1077 0.929 . S
H1090 C1078 0.960 . S
H1091 C1078 0.962 . S
H1092 C1078 0.960 . S
H1093 C1079 0.961 . S
H1094 C1079 0.961 . S
H1095 C1079 0.961 . S
H1096 C1080 0.931 . S
H1097 C1085 0.930 . S
H1098 C1086 0.956 . S
H1099 C1086 0.961 . S
H1100 C1086 0.961 . S
H1101 C1087 0.958 . S
H1102 C1087 0.961 . S
H1103 C1087 0.960 . S
C1104 C1105 1.391 . S
C1104 C1106 1.394 . S
C1104 H1120 0.931 . S
C1105 C1104 1.391 . S
C1105 C1109 1.376 . S
C1106 C1104 1.394 . S
C1106 C1107 1.369 . S
C1106 C1110 1.531 . S
C1107 C1106 1.369 . S
C1107 C1108 1.410 . S
C1107 C1115 1.503 . S
C1108 C1107 1.410 . S
C1108 C1109 1.392 . S
C1108 C1111 1.511 . S
C1109 C1105 1.376 . S
C1109 C1108 1.392 . S
C1109 H1121 0.929 . S
C1110 C1106 1.531 . S
C1110 H1122 0.960 . S
C1110 H1123 0.962 . S
C1110 H1124 0.960 . S
C1111 C1108 1.511 . S
C1111 H1125 0.961 . S
C1111 H1126 0.961 . S
C1111 H1127 0.961 . S
C1112 C1113 1.370 . S
C1112 C1114 1.363 . S
C1112 H1128 0.931 . S
C1113 C1112 1.370 . S
C1113 C1117 1.408 . S
C1114 C1112 1.363 . S
C1114 C1115 1.370 . S
C1114 C1118 1.524 . S
C1115 C1107 1.503 . S
C1115 C1114 1.370 . S
C1115 C1116 1.403 . S
C1116 C1115 1.403 . S
C1116 C1117 1.404 . S
C1116 C1119 1.539 . S
C1117 C1113 1.408 . S
C1117 C1116 1.404 . S
C1117 H1129 0.930 . S
C1118 C1114 1.524 . S
C1118 H1130 0.956 . S
C1118 H1131 0.961 . S
C1118 H1132 0.961 . S
C1119 C1116 1.539 . S
C1119 H1133 0.958 . S
C1119 H1134 0.961 . S
C1119 H1135 0.960 . S
H1120 C1104 0.931 . S
H1121 C1109 0.929 . S
H1122 C1110 0.960 . S
H1123 C1110 0.962 . S
H1124 C1110 0.960 . S
H1125 C1111 0.961 . S
H1126 C1111 0.961 . S
H1127 C1111 0.961 . S
H1128 C1112 0.931 . S
H1129 C1117 0.930 . S
H1130 C1118 0.956 . S
H1131 C1118 0.961 . S
H1132 C1118 0.961 . S
H1133 C1119 0.958 . S
H1134 C1119 0.961 . S
H1135 C1119 0.960 . S
C1136 C1137 1.391 . S
C1136 C1138 1.394 . S
C1136 H1152 0.931 . S
C1137 C1136 1.391 . S
C1137 C1141 1.376 . S
C1138 C1136 1.394 . S
C1138 C1139 1.369 . S
C1138 C1142 1.531 . S
C1139 C1138 1.369 . S
C1139 C1140 1.410 . S
C1139 C1147 1.503 . S
C1140 C1139 1.410 . S
C1140 C1141 1.392 . S
C1140 C1143 1.511 . S
C1141 C1137 1.376 . S
C1141 C1140 1.392 . S
C1141 H1153 0.929 . S
C1142 C1138 1.531 . S
C1142 H1154 0.960 . S
C1142 H1155 0.962 . S
C1142 H1156 0.960 . S
C1143 C1140 1.511 . S
C1143 H1157 0.961 . S
C1143 H1158 0.961 . S
C1143 H1159 0.961 . S
C1144 C1145 1.370 . S
C1144 C1146 1.363 . S
C1144 H1160 0.931 . S
C1145 C1144 1.370 . S
C1145 C1149 1.408 . S
C1146 C1144 1.363 . S
C1146 C1147 1.370 . S
C1146 C1150 1.524 . S
C1147 C1139 1.503 . S
C1147 C1146 1.370 . S
C1147 C1148 1.403 . S
C1148 C1147 1.403 . S
C1148 C1149 1.404 . S
C1148 C1151 1.539 . S
C1149 C1145 1.408 . S
C1149 C1148 1.404 . S
C1149 H1161 0.930 . S
C1150 C1146 1.524 . S
C1150 H1162 0.956 . S
C1150 H1163 0.961 . S
C1150 H1164 0.961 . S
C1151 C1148 1.539 . S
C1151 H1165 0.958 . S
C1151 H1166 0.961 . S
C1151 H1167 0.960 . S
H1152 C1136 0.931 . S
H1153 C1141 0.929 . S
H1154 C1142 0.960 . S
H1155 C1142 0.962 . S
H1156 C1142 0.960 . S
H1157 C1143 0.961 . S
H1158 C1143 0.961 . S
H1159 C1143 0.961 . S
H1160 C1144 0.931 . S
H1161 C1149 0.930 . S
H1162 C1150 0.956 . S
H1163 C1150 0.961 . S
H1164 C1150 0.961 . S
H1165 C1151 0.958 . S
H1166 C1151 0.961 . S
H1167 C1151 0.960 . S
C1168 C1169 1.391 . S
C1168 C1170 1.394 . S
C1168 H1184 0.931 . S
C1169 C1168 1.391 . S
C1169 C1173 1.376 . S
C1170 C1168 1.394 . S
C1170 C1171 1.369 . S
C1170 C1174 1.531 . S
C1171 C1170 1.369 . S
C1171 C1172 1.410 . S
C1171 C1179 1.503 . S
C1172 C1171 1.410 . S
C1172 C1173 1.392 . S
C1172 C1175 1.511 . S
C1173 C1169 1.376 . S
C1173 C1172 1.392 . S
C1173 H1185 0.929 . S
C1174 C1170 1.531 . S
C1174 H1186 0.960 . S
C1174 H1187 0.962 . S
C1174 H1188 0.960 . S
C1175 C1172 1.511 . S
C1175 H1189 0.961 . S
C1175 H1190 0.961 . S
C1175 H1191 0.961 . S
C1176 C1177 1.370 . S
C1176 C1178 1.363 . S
C1176 H1192 0.931 . S
C1177 C1176 1.370 . S
C1177 C1181 1.408 . S
C1178 C1176 1.363 . S
C1178 C1179 1.370 . S
C1178 C1182 1.524 . S
C1179 C1171 1.503 . S
C1179 C1178 1.370 . S
C1179 C1180 1.403 . S
C1180 C1179 1.403 . S
C1180 C1181 1.404 . S
C1180 C1183 1.539 . S
C1181 C1177 1.408 . S
C1181 C1180 1.404 . S
C1181 H1193 0.930 . S
C1182 C1178 1.524 . S
C1182 H1194 0.956 . S
C1182 H1195 0.961 . S
C1182 H1196 0.961 . S
C1183 C1180 1.539 . S
C1183 H1197 0.958 . S
C1183 H1198 0.961 . S
C1183 H1199 0.960 . S
H1184 C1168 0.931 . S
H1185 C1173 0.929 . S
H1186 C1174 0.960 . S
H1187 C1174 0.962 . S
H1188 C1174 0.960 . S
H1189 C1175 0.961 . S
H1190 C1175 0.961 . S
H1191 C1175 0.961 . S
H1192 C1176 0.931 . S
H1193 C1181 0.930 . S
H1194 C1182 0.956 . S
H1195 C1182 0.961 . S
H1196 C1182 0.961 . S
H1197 C1183 0.958 . S
H1198 C1183 0.961 . S
H1199 C1183 0.960 . S
C1200 C1201 1.391 . S
C1200 C1202 1.394 . S
C1200 H1216 0.931 . S
C1201 C1200 1.391 . S
C1201 C1205 1.376 . S
C1202 C1200 1.394 . S
C1202 C1203 1.369 . S
C1202 C1206 1.531 . S
C1203 C1202 1.369 . S
C1203 C1204 1.410 . S
C1203 C1211 1.503 . S
C1204 C1203 1.410 . S
C1204 C1205 1.392 . S
C1204 C1207 1.511 . S
C1205 C1201 1.376 . S
C1205 C1204 1.392 . S
C1205 H1217 0.929 . S
C1206 C1202 1.531 . S
C1206 H1218 0.960 . S
C1206 H1219 0.962 . S
C1206 H1220 0.960 . S
C1207 C1204 1.511 . S
C1207 H1221 0.961 . S
C1207 H1222 0.961 . S
C1207 H1223 0.961 . S
C1208 C1209 1.370 . S
C1208 C1210 1.363 . S
C1208 H1224 0.931 . S
C1209 C1208 1.370 . S
C1209 C1213 1.408 . S
C1210 C1208 1.363 . S
C1210 C1211 1.370 . S
C1210 C1214 1.524 . S
C1211 C1203 1.503 . S
C1211 C1210 1.370 . S
C1211 C1212 1.403 . S
C1212 C1211 1.403 . S
C1212 C1213 1.404 . S
C1212 C1215 1.539 . S
C1213 C1209 1.408 . S
C1213 C1212 1.404 . S
C1213 H1225 0.930 . S
C1214 C1210 1.524 . S
C1214 H1226 0.956 . S
C1214 H1227 0.961 . S
C1214 H1228 0.961 . S
C1215 C1212 1.539 . S
C1215 H1229 0.958 . S
C1215 H1230 0.961 . S
C1215 H1231 0.960 . S
H1216 C1200 0.931 . S
H1217 C1205 0.929 . S
H1218 C1206 0.960 . S
H1219 C1206 0.962 . S
H1220 C1206 0.960 . S
H1221 C1207 0.961 . S
H1222 C1207 0.961 . S
H1223 C1207 0.961 . S
H1224 C1208 0.931 . S
H1225 C1213 0.930 . S
H1226 C1214 0.956 . S
H1227 C1214 0.961 . S
H1228 C1214 0.961 . S
H1229 C1215 0.958 . S
H1230 C1215 0.961 . S
H1231 C1215 0.960 . S
C209 C56 1.500 . S
C217 C4 1.495 . S
C241 C75 1.499 . S
C249 C17 1.496 . S
C273 C82 1.486 1_554 S
C281 C36 1.500 . S
C305 C95 1.496 . S
C313 C43 1.496 . S
C337 C166 1.500 . S
C345 C108 1.495 . S
C369 C173 1.494 . S
C377 C127 1.498 . S
C401 C140 1.487 . S
C409 C186 1.500 . S
C433 C205 1.500 . S
C441 C147 1.495 . S
C465 C5 1.548 . S
C473 C68 1.543 . S
C497 C83 1.534 . S
C505 C18 1.548 . S
C529 C29 1.550 . S
C537 C96 1.541 . S
C561 C57 1.549 . S
C569 C44 1.541 . S
C593 C174 1.531 . S
C601 C109 1.547 . S
C625 C187 1.549 . S
C633 C120 1.542 . S
C657 C133 1.549 . S
C665 C198 1.540 . S
C689 C148 1.541 . S
C697 C159 1.547 . S
C721 C199 1.430 . S
C729 C10 1.425 . S
C753 C160 1.410 . S
C761 C23 1.417 . S
C785 C179 1.408 . S
C793 C30 1.422 . S
C817 C192 1.409 . S
C825 C49 1.417 . S
C849 C121 1.414 . S
C857 C62 1.416 . S
C881 C134 1.406 . S
C889 C69 1.418 . S
C913 C88 1.409 . S
C921 C153 1.423 . S
C945 C101 1.428 . S
C953 C114 1.420 . S
C977 C172 1.396 . S
C985 C31 1.383 . S
C1009 C185 1.375 . S
C1017 C42 1.394 . S
C1041 C200 1.396 . S
C1049 C3 1.387 . S
C1073 C16 1.383 . S
C1081 C161 1.385 . S
C1105 C146 1.395 . S
C1113 C81 1.388 . S
C1137 C94 1.378 . S
C1145 C107 1.387 . S
C1169 C122 1.398 . S
C1177 C55 1.383 . S
C1201 C135 1.396 . S
C1209 C70 1.383 . S
