# Generated by pormake.
# Topology wfa, (4)-cn, num edge types: 1
# Building blocks:
#     Node 0, Type 0, BuildingBlock: QUQFOY_clean_sbu_1, # of connection points: 4
#     Node 1, Type 0, BuildingBlock: QUQFOY_clean_sbu_1, # of connection points: 4
#     Node 2, Type 0, BuildingBlock: QUQFOY_clean_sbu_1, # of connection points: 4
#     Node 3, Type 0, BuildingBlock: QUQFOY_clean_sbu_1, # of connection points: 4
#     Node 4, Type 0, BuildingBlock: QUQFOY_clean_sbu_1, # of connection points: 4
#     Node 5, Type 0, BuildingBlock: QUQFOY_clean_sbu_1, # of connection points: 4
#     Node 6, Type 0, BuildingBlock: QUQFOY_clean_sbu_1, # of connection points: 4
#     Node 7, Type 0, BuildingBlock: QUQFOY_clean_sbu_1, # of connection points: 4
#     Node 8, Type 0, BuildingBlock: QUQFOY_clean_sbu_1, # of connection points: 4
#     Node 9, Type 0, BuildingBlock: QUQFOY_clean_sbu_1, # of connection points: 4
#     Node 10, Type 0, BuildingBlock: QUQFOY_clean_sbu_1, # of connection points: 4
#     Node 11, Type 0, BuildingBlock: QUQFOY_clean_sbu_1, # of connection points: 4
#     Node 12, Type 0, BuildingBlock: QUQFOY_clean_sbu_1, # of connection points: 4
#     Node 13, Type 0, BuildingBlock: QUQFOY_clean_sbu_1, # of connection points: 4
#     Node 14, Type 0, BuildingBlock: QUQFOY_clean_sbu_1, # of connection points: 4
#     Node 15, Type 0, BuildingBlock: QUQFOY_clean_sbu_1, # of connection points: 4
#     Edge 16, Type (0, 0), BuildingBlock: CIFDUS_clean_linker_0, # of connection points: 2
#     Edge 17, Type (0, 0), BuildingBlock: CIFDUS_clean_linker_0, # of connection points: 2
#     Edge 18, Type (0, 0), BuildingBlock: CIFDUS_clean_linker_0, # of connection points: 2
#     Edge 19, Type (0, 0), BuildingBlock: CIFDUS_clean_linker_0, # of connection points: 2
#     Edge 20, Type (0, 0), BuildingBlock: CIFDUS_clean_linker_0, # of connection points: 2
#     Edge 21, Type (0, 0), BuildingBlock: CIFDUS_clean_linker_0, # of connection points: 2
#     Edge 22, Type (0, 0), BuildingBlock: CIFDUS_clean_linker_0, # of connection points: 2
#     Edge 23, Type (0, 0), BuildingBlock: CIFDUS_clean_linker_0, # of connection points: 2
#     Edge 24, Type (0, 0), BuildingBlock: CIFDUS_clean_linker_0, # of connection points: 2
#     Edge 25, Type (0, 0), BuildingBlock: CIFDUS_clean_linker_0, # of connection points: 2
#     Edge 26, Type (0, 0), BuildingBlock: CIFDUS_clean_linker_0, # of connection points: 2
#     Edge 27, Type (0, 0), BuildingBlock: CIFDUS_clean_linker_0, # of connection points: 2
#     Edge 28, Type (0, 0), BuildingBlock: CIFDUS_clean_linker_0, # of connection points: 2
#     Edge 29, Type (0, 0), BuildingBlock: CIFDUS_clean_linker_0, # of connection points: 2
#     Edge 30, Type (0, 0), BuildingBlock: CIFDUS_clean_linker_0, # of connection points: 2
#     Edge 31, Type (0, 0), BuildingBlock: CIFDUS_clean_linker_0, # of connection points: 2
#     Edge 32, Type (0, 0), BuildingBlock: CIFDUS_clean_linker_0, # of connection points: 2
#     Edge 33, Type (0, 0), BuildingBlock: CIFDUS_clean_linker_0, # of connection points: 2
#     Edge 34, Type (0, 0), BuildingBlock: CIFDUS_clean_linker_0, # of connection points: 2
#     Edge 35, Type (0, 0), BuildingBlock: CIFDUS_clean_linker_0, # of connection points: 2
#     Edge 36, Type (0, 0), BuildingBlock: CIFDUS_clean_linker_0, # of connection points: 2
#     Edge 37, Type (0, 0), BuildingBlock: CIFDUS_clean_linker_0, # of connection points: 2
#     Edge 38, Type (0, 0), BuildingBlock: CIFDUS_clean_linker_0, # of connection points: 2
#     Edge 39, Type (0, 0), BuildingBlock: CIFDUS_clean_linker_0, # of connection points: 2
#     Edge 40, Type (0, 0), BuildingBlock: CIFDUS_clean_linker_0, # of connection points: 2
#     Edge 41, Type (0, 0), BuildingBlock: CIFDUS_clean_linker_0, # of connection points: 2
#     Edge 42, Type (0, 0), BuildingBlock: CIFDUS_clean_linker_0, # of connection points: 2
#     Edge 43, Type (0, 0), BuildingBlock: CIFDUS_clean_linker_0, # of connection points: 2
#     Edge 44, Type (0, 0), BuildingBlock: CIFDUS_clean_linker_0, # of connection points: 2
#     Edge 45, Type (0, 0), BuildingBlock: CIFDUS_clean_linker_0, # of connection points: 2
#     Edge 46, Type (0, 0), BuildingBlock: CIFDUS_clean_linker_0, # of connection points: 2
#     Edge 47, Type (0, 0), BuildingBlock: CIFDUS_clean_linker_0, # of connection points: 2
# Relax obj value: 0.078
# Max RMSD: 0.144
# Mean RMSD: 0.144
data_MOF--net-wfa--node1-QUQFOY_clean_sbu_1--edge1-CIFDUS_clean_linker_0
_symmetry_space_group_name_H-M    P1
_symmetry_Int_Tables_number       1
_symmetry_cell_setting            triclinic
loop_
_symmetry_equiv_pos_as_xyz
'x, y, z'
_cell_length_a     44.912884
_cell_length_b     45.133214
_cell_length_c     21.195305
_cell_angle_alpha  90.076184
_cell_angle_beta   89.950486
_cell_angle_gamma 90.170946
loop_
_atom_site_label
_atom_site_type_symbol
_atom_site_fract_x
_atom_site_fract_y
_atom_site_fract_z
_atom_type_partial_charge
O0 O 0.68252 0.01243 0.13444 0.0
Cd1 Cd 0.68338 0.0442 0.06593 0.0
Cd2 Cd 0.62501 0.05416 0.10386 0.0
O3 O 0.6441 0.03311 0.18139 0.0
O4 O 0.72186 0.0367 0.02075 0.0
O5 O 0.67809 0.03516 0.97344 0.0
C6 C 0.70666 0.03211 0.97014 0.0
C7 C 0.57494 0.04543 0.07384 0.0
C8 C 0.66735 0.01706 0.18405 0.0
C9 C 0.66536 0.10445 0.11484 0.0
O10 O 0.63891 0.09753 0.09929 0.0
O11 O 0.68635 0.08598 0.10651 0.0
O12 O 0.58165 0.05751 0.12702 0.0
O13 O 0.59668 0.03731 0.03794 0.0
O14 O 0.51196 0.70121 0.16784 0.0
Cd15 Cd 0.48573 0.70474 0.08735 0.0
Cd16 Cd 0.50769 0.63075 0.12908 0.0
O17 O 0.5288 0.65654 0.19785 0.0
O18 O 0.49055 0.7432 0.04308 0.0
O19 O 0.5051 0.69983 0.00367 0.0
C20 C 0.50315 0.72835 0.99811 0.0
C21 C 0.51998 0.58397 0.09064 0.0
C22 C 0.5265 0.68464 0.2058 0.0
C23 C 0.44882 0.66286 0.11859 0.0
O24 O 0.47222 0.65255 0.09282 0.0
O25 O 0.44251 0.68918 0.10326 0.0
O26 O 0.50279 0.5868 0.13939 0.0
O27 O 0.53121 0.60779 0.06606 0.0
O28 O 0.80676 0.5064 0.15264 0.0
Cd29 Cd 0.8201 0.48275 0.07519 0.0
Cd30 Cd 0.87538 0.50144 0.12787 0.0
O31 O 0.8486 0.52606 0.18856 0.0
O32 O 0.78207 0.4794 0.02634 0.0
O33 O 0.82214 0.50186 0.98911 0.0
C34 C 0.79449 0.49457 0.98206 0.0
C35 C 0.92364 0.51573 0.0932 0.0
C36 C 0.8205 0.52227 0.19274 0.0
C37 C 0.85607 0.43608 0.13425 0.0
O38 O 0.87314 0.45733 0.14978 0.0
O39 O 0.8338 0.44016 0.09826 0.0
O40 O 0.9178 0.51072 0.15171 0.0
O41 O 0.90158 0.51466 0.05422 0.0
O42 O 0.04215 0.81198 0.12564 0.0
Cd43 Cd 0.06692 0.82271 0.04821 0.0
Cd44 Cd 0.05249 0.88068 0.09666 0.0
O45 O 0.02813 0.85571 0.1622 0.0
O46 O 0.06788 0.78416 1.0009 0.0
O47 O 0.04791 0.82482 0.96189 0.0
C48 C 0.05335 0.79684 0.95609 0.0
C49 C 0.03959 0.92931 0.06341 0.0
C50 C 0.02886 0.82751 0.16688 0.0
C51 C 0.11684 0.85755 0.10219 0.0
O52 O 0.09724 0.87712 0.1131 0.0
O53 O 0.11032 0.83365 0.07329 0.0
O54 O 0.0455 0.9233 0.12138 0.0
O55 O 0.03895 0.90734 0.02436 0.0
O56 O 0.18672 0.02505 0.353 0.0
Cd57 Cd 0.1908 0.99394 0.42207 0.0
Cd58 Cd 0.13139 0.98459 0.39227 0.0
O59 O 0.14892 1.00222 0.30855 0.0
O60 O 0.23293 1.00031 0.44911 0.0
O61 O 0.19479 1.00622 0.51346 0.0
C62 C 0.22318 1.00754 0.50407 0.0
C63 C 0.08531 0.99832 0.43787 0.0
C64 C 0.17177 0.01891 0.304 0.0
C65 C 0.16954 0.93255 0.38689 0.0
O66 O 0.14365 0.94101 0.4029 0.0
O67 O 0.19111 0.95086 0.38726 0.0
O68 O 0.08662 0.98326 0.3862 0.0
O69 O 0.11026 1.00684 0.46243 0.0
O70 O 0.50141 0.19872 0.38148 0.0
Cd71 Cd 0.53645 0.2052 0.44106 0.0
Cd72 Cd 0.54548 0.1445 0.41366 0.0
O73 O 0.52351 0.16128 0.33518 0.0
O74 O 0.53208 0.24772 0.46586 0.0
O75 O 0.52926 0.21088 0.53414 0.0
C76 C 0.52777 0.23895 0.52288 0.0
C77 C 0.53716 0.09534 0.44814 0.0
C78 C 0.50629 0.18359 0.33214 0.0
C79 C 0.59551 0.18335 0.39013 0.0
O80 O 0.58918 0.15838 0.41442 0.0
O81 O 0.57689 0.20444 0.39385 0.0
O82 O 0.54975 0.10117 0.39501 0.0
O83 O 0.52826 0.11754 0.48161 0.0
O84 O 0.30386 0.51912 0.36533 0.0
Cd85 Cd 0.31597 0.54362 0.44211 0.0
Cd86 Cd 0.37246 0.51572 0.40046 0.0
O87 O 0.34394 0.49361 0.33798 0.0
O88 O 0.27625 0.55531 0.47692 0.0
O89 O 0.30743 0.52669 0.52893 0.0
C90 C 0.2816 0.53908 0.52549 0.0
C91 C 0.41991 0.49874 0.4338 0.0
C92 C 0.31666 0.50049 0.32955 0.0
C93 C 0.36155 0.58341 0.38852 0.0
O94 O 0.37601 0.55965 0.37964 0.0
O95 O 0.33667 0.58318 0.41726 0.0
O96 O 0.41377 0.50309 0.37527 0.0
O97 O 0.39825 0.50123 0.47353 0.0
O98 O 0.01826 0.31303 0.3412 0.0
Cd99 Cd 0.99632 0.32453 0.42209 0.0
Cd100 Cd 1.00837 0.38067 0.37224 0.0
O101 O 0.03022 0.35675 0.3015 0.0
O102 O 0.99787 0.28694 0.4719 0.0
O103 O 0.01759 0.32899 0.50558 0.0
C104 C 1.01292 0.30101 0.51416 0.0
C105 C 0.02457 0.42558 0.41906 0.0
C106 C 0.02967 0.32852 0.29739 0.0
C107 C 0.94413 0.35818 0.37719 0.0
O108 O 0.96309 0.37786 0.36216 0.0
O109 O 0.95192 0.33459 0.40538 0.0
O110 O 0.01615 0.42442 0.36096 0.0
O111 O 0.02575 0.40083 0.4496 0.0
O112 O 0.29621 1.0086 0.85454 0.0
Cd113 Cd 0.30842 0.9809 0.92571 0.0
Cd114 Cd 0.36611 1.00869 0.88435 0.0
O115 O 0.33743 0.03209 0.82535 0.0
O116 O 0.26866 0.96832 0.95944 0.0
O117 O 0.30047 0.99516 0.01468 0.0
C118 C 0.2744 0.98319 0.00986 0.0
C119 C 0.41338 0.02665 0.91653 0.0
C120 C 0.30954 0.02734 0.81995 0.0
C121 C 0.35389 0.94147 0.86759 0.0
O122 O 0.36943 0.96482 0.86145 0.0
O123 O 0.32861 0.94204 0.89478 0.0
O124 O 0.4071 0.02181 0.85822 0.0
O125 O 0.39202 0.02365 0.95685 0.0
O126 O 0.52721 0.30542 0.88005 0.0
Cd127 Cd 0.55705 0.31202 0.95083 0.0
Cd128 Cd 0.54443 0.37175 0.91493 0.0
O129 O 0.51769 0.35098 0.84763 0.0
O130 O 0.56188 0.27058 0.98182 0.0
O131 O 0.54274 0.30617 0.04048 0.0
C132 C 0.54946 0.27855 0.03377 0.0
C133 C 0.531 0.41648 0.96526 0.0
C134 C 0.51441 0.32303 0.84231 0.0
C135 C 0.60711 0.34731 0.89613 0.0
O136 O 0.58895 0.36879 0.89398 0.0
O137 O 0.59933 0.3223 0.91819 0.0
O138 O 0.5377 0.41552 0.90621 0.0
O139 O 0.53035 0.39169 0.9956 0.0
O140 O 0.19117 0.49895 0.86894 0.0
Cd141 Cd 0.19088 0.53126 0.93633 0.0
Cd142 Cd 0.13372 0.54114 0.89419 0.0
O143 O 0.1539 0.51947 0.81812 0.0
O144 O 0.22865 0.52361 0.98366 0.0
O145 O 0.18427 0.52259 0.02859 0.0
C146 C 0.21274 0.51918 0.03338 0.0
C147 C 0.08391 0.53216 0.92673 0.0
C148 C 0.17721 0.50342 0.81784 0.0
C149 C 0.17436 0.5913 0.88373 0.0
O150 O 0.14748 0.58464 0.8963 0.0
O151 O 0.195 0.57278 0.895 0.0
O152 O 0.09008 0.54348 0.8725 0.0
O153 O 0.10608 0.5248 0.96214 0.0
O154 O 0.0232 0.20719 0.83918 0.0
Cd155 Cd 0.99772 0.19474 0.91425 0.0
Cd156 Cd 0.01505 0.13795 0.86678 0.0
O157 O 0.03857 0.16406 0.80192 0.0
O158 O 0.9953 0.23229 0.96445 0.0
O159 O 0.01528 0.19117 1.00157 0.0
C160 C 1.00918 0.21891 0.00927 0.0
C161 C 0.02961 0.0899 0.90051 0.0
C162 C 0.03717 0.19227 0.79798 0.0
C163 C 0.94974 0.15798 0.85852 0.0
O164 O 0.97027 0.13914 0.84949 0.0
O165 O 0.95505 0.18237 0.88664 0.0
O166 O 0.02402 0.09572 0.84231 0.0
O167 O 0.02919 0.11188 0.93956 0.0
O168 O 0.80055 0.03413 0.64066 0.0
Cd169 Cd 0.7982 0.06338 0.56453 0.0
Cd170 Cd 0.87075 0.02761 0.6041 0.0
O171 O 0.84121 1.00855 0.66956 0.0
O172 O 0.75641 0.06991 0.5366 0.0
O173 O 0.7902 0.04591 0.47954 0.0
C174 C 0.76305 0.05501 0.48632 0.0
C175 C 0.91743 0.0126 0.56713 0.0
C176 C 0.8137 0.01564 0.67689 0.0
C177 C 0.84758 0.09016 0.59534 0.0
O178 O 0.85249 0.06515 0.56967 0.0
O179 O 0.823 0.10196 0.58092 0.0
O180 O 0.91513 0.02926 0.61674 0.0
O181 O 0.89306 1.00322 0.54105 0.0
O182 O 0.50925 0.81579 0.66742 0.0
Cd183 Cd 0.48324 0.81157 0.58642 0.0
Cd184 Cd 0.50359 0.88681 0.63377 0.0
O185 O 0.5256 0.86046 0.69962 0.0
O186 O 0.48851 0.77297 0.54234 0.0
O187 O 0.50337 0.81634 0.50343 0.0
C188 C 0.50155 0.78779 0.49788 0.0
C189 C 0.51197 0.93632 0.60884 0.0
C190 C 0.5237 0.83225 0.70606 0.0
C191 C 0.44595 0.85375 0.6151 0.0
O192 O 0.47014 0.86385 0.5923 0.0
O193 O 0.43992 0.82727 0.6001 0.0
O194 O 0.49457 0.92902 0.65509 0.0
O195 O 0.52545 0.91533 0.5785 0.0
O196 O 0.69935 0.5036 0.65133 0.0
Cd197 Cd 0.69057 0.47914 0.57258 0.0
Cd198 Cd 0.63212 0.4819 0.62329 0.0
O199 O 0.6546 0.50514 0.69456 0.0
O200 O 0.72835 0.48433 0.52373 0.0
O201 O 0.68444 0.49751 0.48659 0.0
C202 C 0.71297 0.49622 0.4793 0.0
C203 C 0.58222 0.49185 0.5928 0.0
C204 C 0.68252 0.51038 0.69722 0.0
C205 C 0.66406 0.42237 0.61731 0.0
O206 O 0.64074 0.43736 0.62844 0.0
O207 O 0.68716 0.43444 0.59384 0.0
O208 O 0.58887 0.48339 0.64898 0.0
O209 O 0.60404 0.49642 0.5543 0.0
O210 O 0.02338 0.70114 0.62559 0.0
Cd211 Cd 0.05417 0.69689 0.55554 0.0
Cd212 Cd 0.05542 0.63864 0.5925 0.0
O213 O 0.03539 0.65894 0.6709 0.0
O214 O 0.05096 0.73552 0.50949 0.0
O215 O 0.04292 0.69221 0.46392 0.0
C216 C 0.04331 0.72079 0.45997 0.0
C217 C 0.04072 0.5929 0.54678 0.0
C218 C 0.02409 0.68483 0.67431 0.0
C219 C 0.11138 0.67161 0.60627 0.0
O220 O 0.10056 0.64632 0.59306 0.0
O221 O 0.09641 0.69489 0.59492 0.0
O222 O 0.05228 0.5942 0.60236 0.0
O223 O 0.03592 0.61776 0.51834 0.0
H224 H 0.64759 0.15261 0.38082 0.0
H225 H 0.59132 0.21367 0.27993 0.0
H226 H 0.61374 0.19869 0.18051 0.0
H227 H 0.63915 0.15876 0.12193 0.0
H228 H 0.69718 0.09934 0.2225 0.0
H229 H 0.68485 0.12356 0.32168 0.0
C230 C 0.64123 0.16358 0.33737 0.0
C231 C 0.61738 0.18368 0.33781 0.0
C232 C 0.65409 0.1547 0.27985 0.0
C233 C 0.60954 0.19799 0.28119 0.0
C234 C 0.62208 0.18915 0.2239 0.0
C235 C 0.65024 0.15216 0.16513 0.0
C236 C 0.66862 0.12703 0.16491 0.0
C237 C 0.64291 0.16612 0.22242 0.0
C238 C 0.68296 0.11869 0.22119 0.0
C239 C 0.67558 0.13227 0.27833 0.0
H240 H 0.41839 0.59896 0.37384 0.0
H241 H 0.32947 0.62502 0.32297 0.0
H242 H 0.34933 0.65473 0.23533 0.0
H243 H 0.39179 0.66592 0.16281 0.0
H244 H 0.47912 0.63462 0.2134 0.0
H245 H 0.46028 0.61399 0.30962 0.0
C246 C 0.40342 0.61194 0.34477 0.0
C247 C 0.37261 0.60973 0.35449 0.0
C248 C 0.41473 0.62712 0.29254 0.0
C249 C 0.35337 0.62664 0.31677 0.0
C250 C 0.3647 0.64311 0.26586 0.0
C251 C 0.40663 0.65463 0.19512 0.0
C252 C 0.43689 0.65101 0.17894 0.0
C253 C 0.39527 0.64223 0.25139 0.0
C254 C 0.4558 0.63681 0.22199 0.0
C255 C 0.445 0.62528 0.27826 0.0
H256 H 0.84322 0.42658 0.2548 0.0
H257 H 0.88142 0.38505 0.0909 0.0
H258 H 0.90696 0.34909 0.15834 0.0
H259 H 0.92842 0.33928 0.263 0.0
H260 H 0.8959 0.38662 0.42529 0.0
H261 H 0.8574 0.40993 0.36058 0.0
C262 C 0.85599 0.40867 0.23398 0.0
C263 C 0.86041 0.40813 0.16831 0.0
C264 C 0.87199 0.38949 0.27329 0.0
C265 C 0.87743 0.38546 0.14131 0.0
C266 C 0.89234 0.36523 0.18002 0.0
C267 C 0.91181 0.35351 0.28454 0.0
C268 C 0.91455 0.36107 0.34869 0.0
C269 C 0.89125 0.36832 0.24604 0.0
C270 C 0.89372 0.38016 0.37625 0.0
C271 C 0.87206 0.39379 0.33897 0.0
H272 H 0.12381 0.83359 0.21498 0.0
H273 H 0.16732 0.88972 0.07911 0.0
H274 H 0.19658 0.91291 0.16336 0.0
H275 H 0.19704 0.92748 0.27478 0.0
H276 H 0.14439 0.87845 0.40914 0.0
H277 H 0.13159 0.84215 0.32771 0.0
C278 C 0.14093 0.84979 0.20371 0.0
C279 C 0.14375 0.85977 0.14116 0.0
C280 C 0.1551 0.86514 0.25294 0.0
C281 C 0.16521 0.88137 0.12682 0.0
C282 C 0.18139 0.89508 0.17522 0.0
C283 C 0.18396 0.90803 0.28688 0.0
C284 C 0.17162 0.90555 0.34779 0.0
C285 C 0.17475 0.88871 0.2386 0.0
C286 C 0.15415 0.88069 0.36262 0.0
C287 C 0.14661 0.86014 0.31584 0.0
H288 H 0.41002 0.92223 0.8616 0.0
H289 H 0.32175 0.90335 0.79316 0.0
H290 H 0.34262 0.87207 0.70922 0.0
H291 H 0.38694 0.85668 0.64596 0.0
H292 H 0.47429 0.87698 0.71783 0.0
H293 H 0.45313 0.90141 0.80841 0.0
C294 C 0.39531 0.91047 0.82949 0.0
C295 C 0.3645 0.91506 0.83332 0.0
C296 C 0.40746 0.89368 0.78033 0.0
C297 C 0.34558 0.89981 0.79156 0.0
C298 C 0.35757 0.88237 0.74289 0.0
C299 C 0.40123 0.86638 0.68172 0.0
C300 C 0.43235 0.86646 0.67288 0.0
C301 C 0.3886 0.88026 0.73513 0.0
C302 C 0.45052 0.87827 0.72055 0.0
C303 C 0.43832 0.89178 0.77352 0.0
H304 H 0.69262 0.41384 0.72505 0.0
H305 H 0.63712 0.3699 0.58834 0.0
H306 H 0.62133 0.33391 0.66802 0.0
H307 H 0.61209 0.32544 0.78046 0.0
H308 H 0.65847 0.37783 0.91898 0.0
H309 H 0.6897 0.39953 0.83621 0.0
C310 C 0.67839 0.39531 0.71216 0.0
C311 C 0.66628 0.39412 0.65105 0.0
C312 C 0.66722 0.37672 0.75971 0.0
C313 C 0.64706 0.3708 0.63487 0.0
C314 C 0.63767 0.35059 0.6808 0.0
C315 C 0.63017 0.34043 0.79254 0.0
C316 C 0.63342 0.34983 0.85543 0.0
C317 C 0.64595 0.35474 0.74414 0.0
C318 C 0.65606 0.36998 0.87092 0.0
C319 C 0.67355 0.38267 0.82342 0.0
H320 H 0.16261 0.63962 0.61685 0.0
H321 H 0.10799 0.70364 0.71354 0.0
H322 H 0.12796 0.68781 0.81461 0.0
H323 H 0.15036 0.64663 0.87486 0.0
H324 H 0.20758 0.58481 0.77839 0.0
H325 H 0.19809 0.60952 0.67848 0.0
C326 C 0.15636 0.65119 0.65975 0.0
C327 C 0.13353 0.67238 0.65773 0.0
C328 C 0.16795 0.64193 0.71814 0.0
C329 C 0.1256 0.68728 0.71365 0.0
C330 C 0.13669 0.67791 0.77183 0.0
C331 C 0.16191 0.63956 0.83248 0.0
C332 C 0.17919 0.61368 0.83391 0.0
C333 C 0.15634 0.6539 0.77478 0.0
C334 C 0.19416 0.60472 0.77872 0.0
C335 C 0.1884 0.61859 0.72115 0.0
H336 H 0.92199 0.10589 0.8442 0.0
H337 H 0.91603 0.19792 0.79267 0.0
H338 H 0.88158 0.18524 0.70681 0.0
H339 H 0.85959 0.14648 0.63641 0.0
H340 H 0.86745 0.05504 0.69141 0.0
H341 H 0.89501 0.0687 0.78412 0.0
C342 C 0.91237 0.12329 0.81542 0.0
C343 C 0.92156 0.1527 0.8245 0.0
C344 C 0.89382 0.11572 0.76488 0.0
C345 C 0.90899 0.17509 0.78704 0.0
C346 C 0.88974 0.16776 0.73717 0.0
C347 C 0.86732 0.12964 0.6689 0.0
C348 C 0.86283 0.09944 0.65441 0.0
C349 C 0.88311 0.13793 0.72383 0.0
C350 C 0.87217 0.07806 0.6981 0.0
C351 C 0.88749 0.08599 0.75249 0.0
H352 H 0.76464 0.01595 0.95312 0.0
H353 H 0.68233 0.0296 0.8523 0.0
H354 H 0.7077 0.02012 0.75243 0.0
H355 H 0.75402 0.01355 0.69332 0.0
H356 H 0.83685 1.0015 0.79278 0.0
H357 H 0.81031 1.00359 0.89365 0.0
C358 C 0.75219 0.01665 0.90932 0.0
C359 C 0.72168 0.02402 0.91017 0.0
C360 C 0.76697 1.01118 0.85187 0.0
C361 C 0.70583 0.02431 0.85307 0.0
C362 C 0.72033 0.01883 0.79589 0.0
C363 C 0.76622 1.01066 0.73704 0.0
C364 C 0.79744 1.00762 0.73544 0.0
C365 C 0.75099 0.01295 0.79467 0.0
C366 C 0.81284 1.00366 0.79249 0.0
C367 C 0.79769 1.00531 0.85026 0.0
H368 H 0.53561 0.77438 0.72728 0.0
H369 H 0.52812 0.85872 0.82194 0.0
H370 H 0.52354 0.83349 0.92343 0.0
H371 H 0.51304 0.78745 0.98209 0.0
H372 H 0.51894 0.70328 0.88597 0.0
H373 H 0.53243 0.72847 0.78822 0.0
C374 C 0.53384 0.78729 0.77035 0.0
C375 C 0.5318 0.81837 0.76689 0.0
C376 C 0.53003 0.77262 0.8281 0.0
C377 C 0.52986 0.83479 0.82314 0.0
C378 C 0.52673 0.82033 0.88117 0.0
C379 C 0.51756 0.77461 0.93988 0.0
C380 C 0.51435 0.74357 0.94096 0.0
C381 C 0.5253 0.78927 0.88369 0.0
C382 C 0.52089 0.72721 0.88626 0.0
C383 C 0.52866 0.7416 0.83032 0.0
H384 H 0.73424 0.49598 0.96898 0.0
H385 H 0.81595 0.51417 0.86883 0.0
H386 H 0.7876 0.52628 0.77391 0.0
H387 H 0.74017 0.52649 0.71674 0.0
H388 H 0.65842 0.50732 0.81607 0.0
H389 H 0.68614 0.50208 0.91453 0.0
C390 C 0.74585 0.50271 0.92644 0.0
C391 C 0.77724 0.50359 0.92562 0.0
C392 C 0.72937 0.50983 0.87211 0.0
C393 C 0.79187 0.51299 0.87056 0.0
C394 C 0.77565 0.52 0.8163 0.0
C395 C 0.72824 0.52189 0.76017 0.0
C396 C 0.6972 0.51695 0.75857 0.0
C397 C 0.74444 0.51787 0.81618 0.0
C398 C 0.68221 0.51131 0.8156 0.0
C399 C 0.69814 0.50786 0.87189 0.0
H400 H 0.05253 0.73678 0.94193 0.0
H401 H 0.02924 0.8179 0.84658 0.0
H402 H 1.0128 0.78956 0.75461 0.0
H403 H 1.0093 0.74234 0.69796 0.0
H404 H 0.03412 0.6612 0.79175 0.0
H405 H 0.04452 0.6889 0.88833 0.0
C406 C 0.04381 0.74829 0.90107 0.0
C407 C 0.04262 0.77952 0.90085 0.0
C408 C 0.03427 0.73181 0.84831 0.0
C409 C 0.03074 0.79396 0.84788 0.0
C410 C 0.02121 0.77773 0.79531 0.0
C411 C 0.01627 0.73048 0.73987 0.0
C412 C 0.02113 0.6996 0.73696 0.0
C413 C 0.02333 0.74669 0.79461 0.0
C414 C 0.03009 0.68485 0.79221 0.0
C415 C 0.03645 0.70077 0.84738 0.0
H416 H 0.20995 0.03078 0.61952 0.0
H417 H 0.28378 1.0053 0.50101 0.0
H418 H 0.31858 0.01642 0.58605 0.0
H419 H 0.32731 0.02638 0.69852 0.0
H420 H 0.25334 0.04898 0.81857 0.0
H421 H 0.21957 0.04728 0.72826 0.0
C422 C 0.23367 0.02793 0.61215 0.0
C423 C 0.24415 0.01665 0.55443 0.0
C424 C 0.25364 0.03425 0.66146 0.0
C425 C 0.27502 0.01356 0.54527 0.0
C426 C 0.29501 0.02002 0.59384 0.0
C427 C 0.30405 0.03225 0.70422 0.0
C428 C 0.2928 0.03799 0.76481 0.0
C429 C 0.28452 0.02959 0.6527 0.0
C430 C 0.26247 0.04481 0.77207 0.0
C431 C 0.2431 0.04335 0.72065 0.0
H432 H 0.49911 0.229 0.63369 0.0
H433 H 0.54166 0.2977 0.52449 0.0
H434 H 0.53472 0.33289 0.61094 0.0
H435 H 0.52298 0.3419 0.72274 0.0
H436 H 0.48165 0.27273 0.83241 0.0
H437 H 0.48036 0.24042 0.73994 0.0
C438 C 0.50665 0.25174 0.62875 0.0
C439 C 0.52147 0.26058 0.5735 0.0
C440 C 0.50235 0.27191 0.67843 0.0
C441 C 0.5305 0.29027 0.56698 0.0
C442 C 0.52646 0.31044 0.6163 0.0
C443 C 0.51245 0.32027 0.72556 0.0
C444 C 0.50242 0.30966 0.78417 0.0
C445 C 0.5131 0.30131 0.67289 0.0
C446 C 0.48935 0.28137 0.78758 0.0
C447 C 0.48907 0.26272 0.73499 0.0
H448 H 0.28025 0.49709 0.61855 0.0
H449 H 0.22948 0.56902 0.53922 0.0
H450 H 0.18992 0.56051 0.61593 0.0
H451 H 0.17149 0.53549 0.71042 0.0
H452 H 0.22256 0.46468 0.79311 0.0
H453 H 0.25964 0.46924 0.70904 0.0
C454 C 0.26057 0.51095 0.6182 0.0
C455 C 0.2581 0.53394 0.57365 0.0
C456 C 0.23768 0.50584 0.66247 0.0
C457 C 0.23217 0.55135 0.57324 0.0
C458 C 0.20941 0.54642 0.61697 0.0
C459 C 0.19018 0.52033 0.70908 0.0
C460 C 0.19407 0.49963 0.75806 0.0
C461 C 0.21205 0.52395 0.6622 0.0
C462 C 0.21885 0.48065 0.75585 0.0
C463 C 0.2403 0.48353 0.70822 0.0
H464 H 0.02404 0.24215 0.52607 0.0
H465 H 0.02787 0.32474 0.62846 0.0
H466 H 0.04197 0.29819 0.72443 0.0
H467 H 0.04673 0.25117 0.78162 0.0
H468 H 0.04241 0.16848 0.67957 0.0
H469 H 0.03634 0.19549 0.58059 0.0
C470 C 0.0282 0.25435 0.56931 0.0
C471 C 0.02427 0.28531 0.57057 0.0
C472 C 0.03654 0.23895 0.62416 0.0
C473 C 0.03042 0.3009 0.62646 0.0
C474 C 0.03853 0.28572 0.6813 0.0
C475 C 0.04535 0.23903 0.73749 0.0
C476 C 0.04463 0.20778 0.73827 0.0
C477 C 0.04085 0.25469 0.68106 0.0
C478 C 0.04313 0.19247 0.68056 0.0
C479 C 0.03915 0.20793 0.62395 0.0
H480 H 0.1659 0.98424 0.19957 0.0
H481 H 0.21408 0.05971 0.27241 0.0
H482 H 0.25051 0.05524 0.18736 0.0
H483 H 0.27183 0.02642 0.09954 0.0
H484 H 0.22364 0.95092 0.02699 0.0
H485 H 0.1842 0.95889 0.10456 0.0
C486 C 0.18374 1.00038 0.19565 0.0
C487 C 0.1872 0.0223 0.24249 0.0
C488 C 0.20522 0.99708 0.14776 0.0
C489 C 0.21081 0.0427 0.23695 0.0
C490 C 0.23191 0.0399 0.18878 0.0
C491 C 0.25279 1.0116 0.10102 0.0
C492 C 0.25103 0.98773 0.05839 0.0
C493 C 0.23 0.01647 0.14545 0.0
C494 C 0.2258 0.9692 0.05984 0.0
C495 C 0.20316 0.97379 0.10409 0.0
H496 H 0.53615 0.17224 0.22332 0.0
H497 H 0.47026 0.23057 0.30404 0.0
H498 H 0.47767 0.26548 0.21742 0.0
H499 H 0.50763 0.28233 0.12653 0.0
H500 H 0.57415 0.2241 0.04814 0.0
H501 H 0.5621 0.18655 0.12688 0.0
C502 C 0.52265 0.1921 0.22115 0.0
C503 C 0.50284 0.19882 0.27064 0.0
C504 C 0.52792 0.21264 0.17274 0.0
C505 C 0.4857 0.22482 0.26672 0.0
C506 C 0.49024 0.24502 0.21765 0.0
C507 C 0.51951 0.26145 0.1269 0.0
C508 C 0.54213 0.25623 0.08237 0.0
C509 C 0.51224 0.23975 0.17198 0.0
C510 C 0.55687 0.22879 0.08238 0.0
C511 C 0.54989 0.20724 0.12719 0.0
H512 H 0.25708 0.49981 0.31172 0.0
H513 H 0.34015 0.48427 0.21503 0.0
H514 H 0.31445 0.48675 0.11333 0.0
H515 H 0.26982 0.50079 0.05237 0.0
H516 H 0.18732 0.51795 0.15035 0.0
H517 H 0.21149 0.50775 0.25113 0.0
C518 C 0.26949 0.49621 0.26845 0.0
C519 C 0.30058 0.49218 0.27101 0.0
C520 C 0.25479 0.49879 0.21034 0.0
C521 C 0.31623 0.48726 0.21455 0.0
C522 C 0.30159 0.48914 0.15631 0.0
C523 C 0.25707 0.50211 0.09575 0.0
C524 C 0.2269 0.51069 0.09389 0.0
C525 C 0.27114 0.4962 0.15368 0.0
C526 C 0.2106 0.51173 0.15042 0.0
C527 C 0.2244 0.50584 0.20809 0.0
H528 H 0.01585 0.27849 0.02354 0.0
H529 H 0.02359 0.19587 0.1243 0.0
H530 H 0.03588 0.22284 0.22104 0.0
H531 H 0.03944 0.26983 0.27888 0.0
H532 H 0.03139 0.35259 0.1787 0.0
H533 H 0.02543 0.32561 0.07937 0.0
C534 C 0.02033 0.26638 0.06665 0.0
C535 C 0.01822 0.23521 0.06703 0.0
C536 C 0.0277 0.28205 0.12197 0.0
C537 C 0.02475 0.21984 0.12287 0.0
C538 C 0.03185 0.23526 0.17817 0.0
C539 C 0.03712 0.28204 0.23512 0.0
C540 C 0.0356 0.31326 0.23651 0.0
C541 C 0.03281 0.26637 0.17851 0.0
C542 C 0.03282 0.32864 0.1792 0.0
C543 C 0.02894 0.31317 0.12242 0.0
H544 H 0.6568 0.04707 0.29292 0.0
H545 H 0.71341 0.97979 0.21228 0.0
H546 H 0.74785 0.98494 0.30084 0.0
H547 H 0.76503 0.0131 0.39374 0.0
H548 H 0.70889 0.08133 0.47208 0.0
H549 H 0.67141 0.07158 0.39124 0.0
C550 C 0.67614 0.03278 0.29557 0.0
C551 C 0.68247 0.01307 0.24571 0.0
C552 C 0.69646 0.03672 0.34529 0.0
C553 C 0.70791 0.99508 0.24995 0.0
C554 C 0.72784 0.99829 0.30022 0.0
C555 C 0.74455 0.02576 0.39322 0.0
C556 C 0.74 0.04823 0.43833 0.0
C557 C 0.72294 0.01989 0.34676 0.0
C558 C 0.71309 0.06407 0.43766 0.0
C559 C 0.69158 0.05844 0.39154 0.0
H560 H 0.51074 0.72854 0.48145 0.0
H561 H 0.51988 0.81293 0.3876 0.0
H562 H 0.53517 0.78791 0.29085 0.0
H563 H 0.53916 0.74219 0.22938 0.0
H564 H 0.5283 0.65762 0.32123 0.0
H565 H 0.52184 0.68255 0.42279 0.0
C566 C 0.51634 0.74146 0.43997 0.0
C567 C 0.51355 0.77254 0.4414 0.0
C568 C 0.52513 0.7269 0.38428 0.0
C569 C 0.52147 0.78898 0.38765 0.0
C570 C 0.53029 0.77469 0.33227 0.0
C571 C 0.5363 0.72916 0.27197 0.0
C572 C 0.5339 0.69811 0.26758 0.0
C573 C 0.53135 0.74367 0.32957 0.0
C574 C 0.53044 0.68152 0.3232 0.0
C575 C 0.5262 0.69582 0.38119 0.0
H576 H 0.77097 0.51228 0.46607 0.0
H577 H 0.6882 0.50619 0.36362 0.0
H578 H 0.71389 0.5199 0.26607 0.0
H579 H 0.76074 0.52698 0.20825 0.0
H580 H 0.84368 0.53232 0.31033 0.0
H581 H 0.81686 0.52681 0.41002 0.0
C582 C 0.75851 0.51421 0.42246 0.0
C583 C 0.72783 0.50758 0.42174 0.0
C584 C 0.77342 0.52224 0.36664 0.0
C585 C 0.71186 0.51085 0.36527 0.0
C586 C 0.72655 0.51871 0.3095 0.0
C587 C 0.7729 0.52779 0.25243 0.0
C588 C 0.80425 0.52965 0.25165 0.0
C589 C 0.75744 0.52361 0.30937 0.0
C590 C 0.81959 0.531 0.30936 0.0
C591 C 0.80429 0.52737 0.36642 0.0
H592 H 0.02063 0.7686 0.18517 0.0
H593 H 0.02068 0.85224 0.28411 0.0
H594 H 0.02345 0.8261 0.38496 0.0
H595 H 0.03308 0.77985 0.44358 0.0
H596 H 0.03475 0.69656 0.34326 0.0
H597 H 0.02455 0.72229 0.24437 0.0
C598 C 0.02052 0.78118 0.22883 0.0
C599 C 0.02077 0.81242 0.22682 0.0
C600 C 0.02328 0.76606 0.28639 0.0
C601 C 0.02034 0.82824 0.28401 0.0
C602 C 0.02239 0.81328 0.34176 0.0
C603 C 0.03106 0.76729 0.40012 0.0
C604 C 0.03524 0.73632 0.40071 0.0
C605 C 0.02516 0.78227 0.34327 0.0
C606 C 0.03198 0.72039 0.34414 0.0
C607 C 0.02606 0.7351 0.28755 0.0
H608 H 0.43517 0.03586 0.03595 0.0
H609 H 0.46246 0.02973 0.84106 0.0
H610 H 0.5145 0.03388 0.8722 0.0
H611 H 0.5528 0.03806 0.95488 0.0
H612 H 0.52576 0.04604 0.14942 0.0
H613 H 0.47349 0.04216 0.11846 0.0
C614 C 0.45247 0.03575 1.00024 0.0
C615 C 0.44471 0.03249 0.93619 0.0
C616 C 0.48261 0.03815 0.01847 0.0
C617 C 0.46758 0.0323 0.89069 0.0
C618 C 0.49749 0.03453 0.90846 0.0
C619 C 0.53547 0.03878 0.99051 0.0
C620 C 0.54328 0.04206 0.05444 0.0
C621 C 0.50533 0.03714 0.97224 0.0
C622 C 0.52045 0.04343 0.09988 0.0
C623 C 0.49049 0.04127 0.0822 0.0
H624 H 0.54681 0.47104 0.92328 0.0
H625 H 0.50461 0.42684 0.08005 0.0
H626 H 0.49774 0.47458 0.13332 0.0
H627 H 0.5037 0.52916 0.13499 0.0
H628 H 0.548 0.57239 0.97926 0.0
H629 H 0.55426 0.52482 0.92646 0.0
C630 C 0.53594 0.47182 0.96896 0.0
C631 C 0.52597 0.44538 0.99731 0.0
C632 C 0.53263 0.49923 0.9998 0.0
C633 C 0.51238 0.44683 0.05701 0.0
C634 C 0.50849 0.47414 0.08753 0.0
C635 C 0.51486 0.52816 0.08966 0.0
C636 C 0.52532 0.55447 0.06126 0.0
C637 C 0.51858 0.50053 0.05942 0.0
C638 C 0.53979 0.55263 0.0025 0.0
C639 C 0.54329 0.52538 0.97202 0.0
H640 H 0.94436 0.52487 0.97275 0.0
H641 H 0.97386 0.51597 0.16551 0.0
H642 H 0.02562 0.51912 0.13141 0.0
H643 H 0.06302 0.52371 0.04672 0.0
H644 H 0.03373 0.5341 0.8543 0.0
H645 H 0.98182 0.53086 0.88822 0.0
C646 C 0.96209 0.52386 0.00737 0.0
C647 C 0.955 0.52022 0.07172 0.0
C648 C 0.99206 0.52568 0.9874 0.0
C649 C 0.97844 0.51886 0.11572 0.0
C650 C 1.00818 0.52054 0.09623 0.0
C651 C 0.04529 0.52508 0.01215 0.0
C652 C 0.05241 0.52893 0.94793 0.0
C653 C 0.01532 0.52372 0.03216 0.0
C654 C 0.02902 0.53106 0.904 0.0
C655 C 0.99925 0.52927 0.92339 0.0
H656 H 0.03054 0.06825 0.02139 0.0
H657 H 0.03716 0.04088 0.82678 0.0
H658 H 0.03952 0.98909 0.85918 0.0
H659 H 0.03915 0.95108 0.94275 0.0
H660 H 0.03272 0.97838 0.13741 0.0
H661 H 0.03051 0.03022 0.10507 0.0
C662 C 0.03281 0.05099 0.98609 0.0
C663 C 0.03382 0.05866 0.92166 0.0
C664 C 0.03381 0.021 0.00504 0.0
C665 C 0.03644 0.03581 0.87669 0.0
C666 C 0.03766 1.00607 0.89517 0.0
C667 C 0.03699 0.96834 0.97808 0.0
C668 C 0.03591 0.96065 0.04248 0.0
C669 C 0.03612 0.99832 0.95918 0.0
C670 C 0.03348 0.98348 0.08751 0.0
C671 C 0.03233 0.01325 0.06907 0.0
H672 H 0.03056 0.97692 0.40529 0.0
H673 H 0.07442 0.03298 0.54177 0.0
H674 H 0.02684 0.04159 0.595 0.0
H675 H 0.97245 0.03342 0.60256 0.0
H676 H 0.9291 0.97694 0.46595 0.0
H677 H 0.97668 0.96815 0.41372 0.0
C678 C 0.02977 0.99114 0.44653 0.0
C679 C 0.05616 1.0044 0.46913 0.0
C680 C 1.00233 0.99579 0.47731 0.0
C681 C 0.05455 0.02255 0.52304 0.0
C682 C 0.0273 0.02744 0.55367 0.0
C683 C 0.97342 0.01901 0.56165 0.0
C684 C 0.94704 1.00584 0.53848 0.0
C685 C 1.001 0.01414 0.53132 0.0
C686 C 0.94888 0.98737 0.4851 0.0
C687 C 0.97615 0.98237 0.45496 0.0
H688 H 0.53824 0.95757 0.5023 0.0
H689 H 0.49256 0.98593 0.67093 0.0
H690 H 0.49604 0.03752 0.63649 0.0
H691 H 0.51169 0.07478 0.5575 0.0
H692 H 0.55635 0.04559 0.3881 0.0
H693 H 0.55346 0.9944 0.42367 0.0
C694 C 0.5292 0.97502 0.53179 0.0
C695 C 0.51529 0.9678 0.5893 0.0
C696 C 0.53091 1.00463 0.51131 0.0
C697 C 0.50345 0.99078 0.6265 0.0
C698 C 0.50538 0.02034 0.60676 0.0
C699 C 0.52071 0.05721 0.52832 0.0
C700 C 0.53418 0.06417 0.4701 0.0
C701 C 0.51894 0.02755 0.54905 0.0
C702 C 0.54578 0.04103 0.43301 0.0
C703 C 0.54422 0.01164 0.45337 0.0
H704 H 0.55968 0.49186 0.47291 0.0
H705 H 0.53319 0.49638 0.6683 0.0
H706 H 0.48083 0.49734 0.63725 0.0
H707 H 0.44219 0.4972 0.55435 0.0
H708 H 0.46884 0.49151 0.35906 0.0
H709 H 0.52106 0.49026 0.39029 0.0
C710 C 0.54246 0.49331 0.50867 0.0
C711 C 0.55049 0.49434 0.57288 0.0
C712 C 0.51222 0.49327 0.49051 0.0
C713 C 0.52776 0.49571 0.61853 0.0
C714 C 0.49773 0.49615 0.60081 0.0
C715 C 0.45938 0.49531 0.51864 0.0
C716 C 0.45137 0.49436 0.45436 0.0
C717 C 0.48962 0.49482 0.53693 0.0
C718 C 0.47415 0.49216 0.40888 0.0
C719 C 0.50415 0.49161 0.42668 0.0
H720 H 0.0518 0.53728 0.59234 0.0
H721 H 0.01696 0.58293 0.4297 0.0
H722 H 1.00999 0.53562 0.3754 0.0
H723 H 1.01396 0.48117 0.37349 0.0
H724 H 0.04811 0.43537 0.53654 0.0
H725 H 0.05539 0.48272 0.59074 0.0
C726 C 0.04252 0.53692 0.54514 0.0
C727 C 0.03485 0.56382 0.51538 0.0
C728 C 0.03868 0.50953 0.51389 0.0
C729 C 0.02298 0.56273 0.45402 0.0
C730 C 0.01908 0.53561 0.42275 0.0
C731 C 0.02322 0.4815 0.42071 0.0
C732 C 0.03066 0.45458 0.45059 0.0
C733 C 0.02698 0.50887 0.45205 0.0
C734 C 0.0423 0.45561 0.51214 0.0
C735 C 0.04639 0.48274 0.54332 0.0
loop_
_geom_bond_atom_site_label_1
_geom_bond_atom_site_label_2
_geom_bond_distance
_geom_bond_site_symmetry_2
_ccdc_geom_bond_type
O0 Cd1 2.223 . S
O0 C8 1.315 . S
Cd1 O0 2.223 . S
Cd1 O4 2.297 1_554 S
Cd1 O5 2.439 1_554 S
Cd1 O11 2.240 . S
Cd2 O3 2.240 . S
Cd2 O10 2.223 . S
Cd2 O12 2.297 1_545 S
Cd2 O13 2.439 . S
O3 Cd2 2.240 . S
O3 C8 1.279 . S
O4 Cd1 2.297 1_556 S
O4 C6 1.247 . S
O5 Cd1 2.439 1_556 S
O5 C6 1.208 . S
C6 O4 1.247 . S
C6 O5 1.208 . S
C7 O12 1.247 1_545 S
C7 O13 1.208 . S
C8 O0 1.315 . S
C8 O3 1.279 . S
C9 O10 1.315 . S
C9 O11 1.279 . S
O10 Cd2 2.223 . S
O10 C9 1.315 . S
O11 Cd1 2.240 . S
O11 C9 1.279 . S
O12 Cd2 2.297 1_565 S
O12 C7 1.247 1_565 S
O13 Cd2 2.439 . S
O13 C7 1.208 . S
O14 Cd15 2.223 . S
O14 C22 1.315 . S
Cd15 O14 2.223 . S
Cd15 O18 2.297 1_554 S
Cd15 O19 2.439 1_554 S
Cd15 O25 2.240 . S
Cd16 O17 2.240 . S
Cd16 O24 2.223 . S
Cd16 O26 2.297 . S
Cd16 O27 2.439 . S
O17 Cd16 2.240 . S
O17 C22 1.279 . S
O18 Cd15 2.297 1_556 S
O18 C20 1.247 . S
O19 Cd15 2.439 1_556 S
O19 C20 1.208 . S
C20 O18 1.247 . S
C20 O19 1.208 . S
C21 O26 1.247 . S
C21 O27 1.208 . S
C22 O14 1.315 . S
C22 O17 1.279 . S
C23 O24 1.315 . S
C23 O25 1.279 . S
O24 Cd16 2.223 . S
O24 C23 1.315 . S
O25 Cd15 2.240 . S
O25 C23 1.279 . S
O26 Cd16 2.297 . S
O26 C21 1.247 . S
O27 Cd16 2.439 . S
O27 C21 1.208 . S
O28 Cd29 2.223 . S
O28 C36 1.315 . S
Cd29 O28 2.223 . S
Cd29 O32 2.297 1_554 S
Cd29 O33 2.439 1_554 S
Cd29 O39 2.240 . S
Cd30 O31 2.240 . S
Cd30 O38 2.223 . S
Cd30 O40 2.297 . S
Cd30 O41 2.439 . S
O31 Cd30 2.240 . S
O31 C36 1.279 . S
O32 Cd29 2.297 1_556 S
O32 C34 1.247 . S
O33 Cd29 2.439 1_556 S
O33 C34 1.208 . S
C34 O32 1.247 . S
C34 O33 1.208 . S
C35 O40 1.247 . S
C35 O41 1.208 . S
C36 O28 1.315 . S
C36 O31 1.279 . S
C37 O38 1.315 . S
C37 O39 1.279 . S
O38 Cd30 2.223 . S
O38 C37 1.315 . S
O39 Cd29 2.240 . S
O39 C37 1.279 . S
O40 Cd30 2.297 . S
O40 C35 1.247 . S
O41 Cd30 2.439 . S
O41 C35 1.208 . S
O42 Cd43 2.223 . S
O42 C50 1.315 . S
Cd43 O42 2.223 . S
Cd43 O46 2.297 1_554 S
Cd43 O47 2.439 1_554 S
Cd43 O53 2.240 . S
Cd44 O45 2.240 . S
Cd44 O52 2.223 . S
Cd44 O54 2.297 1_455 S
Cd44 O55 2.439 . S
O45 Cd44 2.240 . S
O45 C50 1.279 . S
O46 Cd43 2.297 1_556 S
O46 C48 1.247 . S
O47 Cd43 2.439 1_556 S
O47 C48 1.208 . S
C48 O46 1.247 . S
C48 O47 1.208 . S
C49 O54 1.247 1_455 S
C49 O55 1.208 . S
C50 O42 1.315 . S
C50 O45 1.279 . S
C51 O52 1.315 . S
C51 O53 1.279 . S
O52 Cd44 2.223 . S
O52 C51 1.315 . S
O53 Cd43 2.240 . S
O53 C51 1.279 . S
O54 Cd44 2.297 1_655 S
O54 C49 1.247 1_655 S
O55 Cd44 2.439 . S
O55 C49 1.208 . S
O56 Cd57 2.223 . S
O56 C64 1.315 . S
Cd57 O56 2.223 . S
Cd57 O60 2.297 . S
Cd57 O61 2.439 . S
Cd57 O67 2.240 . S
Cd58 O59 2.240 . S
Cd58 O66 2.223 . S
Cd58 O68 2.297 1_565 S
Cd58 O69 2.439 . S
O59 Cd58 2.240 . S
O59 C64 1.279 . S
O60 Cd57 2.297 . S
O60 C62 1.247 . S
O61 Cd57 2.439 . S
O61 C62 1.208 . S
C62 O60 1.247 . S
C62 O61 1.208 . S
C63 O68 1.247 1_565 S
C63 O69 1.208 . S
C64 O56 1.315 . S
C64 O59 1.279 . S
C65 O66 1.315 . S
C65 O67 1.279 . S
O66 Cd58 2.223 . S
O66 C65 1.315 . S
O67 Cd57 2.240 . S
O67 C65 1.279 . S
O68 Cd58 2.297 1_545 S
O68 C63 1.247 1_545 S
O69 Cd58 2.439 . S
O69 C63 1.208 . S
O70 Cd71 2.223 . S
O70 C78 1.315 . S
Cd71 O70 2.223 . S
Cd71 O74 2.297 . S
Cd71 O75 2.439 . S
Cd71 O81 2.240 . S
Cd72 O73 2.240 . S
Cd72 O80 2.223 . S
Cd72 O82 2.297 . S
Cd72 O83 2.439 . S
O73 Cd72 2.240 . S
O73 C78 1.279 . S
O74 Cd71 2.297 . S
O74 C76 1.247 . S
O75 Cd71 2.439 . S
O75 C76 1.208 . S
C76 O74 1.247 . S
C76 O75 1.208 . S
C77 O82 1.247 . S
C77 O83 1.208 . S
C78 O70 1.315 . S
C78 O73 1.279 . S
C79 O80 1.315 . S
C79 O81 1.279 . S
O80 Cd72 2.223 . S
O80 C79 1.315 . S
O81 Cd71 2.240 . S
O81 C79 1.279 . S
O82 Cd72 2.297 . S
O82 C77 1.247 . S
O83 Cd72 2.439 . S
O83 C77 1.208 . S
O84 Cd85 2.223 . S
O84 C92 1.315 . S
Cd85 O84 2.223 . S
Cd85 O88 2.297 . S
Cd85 O89 2.439 . S
Cd85 O95 2.240 . S
Cd86 O87 2.240 . S
Cd86 O94 2.223 . S
Cd86 O96 2.297 . S
Cd86 O97 2.439 . S
O87 Cd86 2.240 . S
O87 C92 1.279 . S
O88 Cd85 2.297 . S
O88 C90 1.247 . S
O89 Cd85 2.439 . S
O89 C90 1.208 . S
C90 O88 1.247 . S
C90 O89 1.208 . S
C91 O96 1.247 . S
C91 O97 1.208 . S
C92 O84 1.315 . S
C92 O87 1.279 . S
C93 O94 1.315 . S
C93 O95 1.279 . S
O94 Cd86 2.223 . S
O94 C93 1.315 . S
O95 Cd85 2.240 . S
O95 C93 1.279 . S
O96 Cd86 2.297 . S
O96 C91 1.247 . S
O97 Cd86 2.439 . S
O97 C91 1.208 . S
O98 Cd99 2.223 . S
O98 C106 1.315 . S
Cd99 O98 2.223 . S
Cd99 O102 2.297 . S
Cd99 O103 2.439 . S
Cd99 O109 2.240 . S
Cd100 O101 2.240 . S
Cd100 O108 2.223 . S
Cd100 O110 2.297 1_655 S
Cd100 O111 2.439 . S
O101 Cd100 2.240 . S
O101 C106 1.279 . S
O102 Cd99 2.297 . S
O102 C104 1.247 . S
O103 Cd99 2.439 . S
O103 C104 1.208 . S
C104 O102 1.247 . S
C104 O103 1.208 . S
C105 O110 1.247 1_655 S
C105 O111 1.208 . S
C106 O98 1.315 . S
C106 O101 1.279 . S
C107 O108 1.315 . S
C107 O109 1.279 . S
O108 Cd100 2.223 . S
O108 C107 1.315 . S
O109 Cd99 2.240 . S
O109 C107 1.279 . S
O110 Cd100 2.297 1_455 S
O110 C105 1.247 1_455 S
O111 Cd100 2.439 . S
O111 C105 1.208 . S
O112 Cd113 2.223 . S
O112 C120 1.315 . S
Cd113 O112 2.223 . S
Cd113 O116 2.297 1_556 S
Cd113 O117 2.439 1_556 S
Cd113 O123 2.240 . S
Cd114 O115 2.240 . S
Cd114 O122 2.223 . S
Cd114 O124 2.297 1_565 S
Cd114 O125 2.439 . S
O115 Cd114 2.240 . S
O115 C120 1.279 . S
O116 Cd113 2.297 1_554 S
O116 C118 1.247 . S
O117 Cd113 2.439 1_554 S
O117 C118 1.208 . S
C118 O116 1.247 . S
C118 O117 1.208 . S
C119 O124 1.247 1_565 S
C119 O125 1.208 . S
C120 O112 1.315 . S
C120 O115 1.279 . S
C121 O122 1.315 . S
C121 O123 1.279 . S
O122 Cd114 2.223 . S
O122 C121 1.315 . S
O123 Cd113 2.240 . S
O123 C121 1.279 . S
O124 Cd114 2.297 1_545 S
O124 C119 1.247 1_545 S
O125 Cd114 2.439 . S
O125 C119 1.208 . S
O126 Cd127 2.223 . S
O126 C134 1.315 . S
Cd127 O126 2.223 . S
Cd127 O130 2.297 1_556 S
Cd127 O131 2.439 1_556 S
Cd127 O137 2.240 . S
Cd128 O129 2.240 . S
Cd128 O136 2.223 . S
Cd128 O138 2.297 . S
Cd128 O139 2.439 . S
O129 Cd128 2.240 . S
O129 C134 1.279 . S
O130 Cd127 2.297 1_554 S
O130 C132 1.247 . S
O131 Cd127 2.439 1_554 S
O131 C132 1.208 . S
C132 O130 1.247 . S
C132 O131 1.208 . S
C133 O138 1.247 . S
C133 O139 1.208 . S
C134 O126 1.315 . S
C134 O129 1.279 . S
C135 O136 1.315 . S
C135 O137 1.279 . S
O136 Cd128 2.223 . S
O136 C135 1.315 . S
O137 Cd127 2.240 . S
O137 C135 1.279 . S
O138 Cd128 2.297 . S
O138 C133 1.247 . S
O139 Cd128 2.439 . S
O139 C133 1.208 . S
O140 Cd141 2.223 . S
O140 C148 1.315 . S
Cd141 O140 2.223 . S
Cd141 O144 2.297 1_556 S
Cd141 O145 2.439 1_556 S
Cd141 O151 2.240 . S
Cd142 O143 2.240 . S
Cd142 O150 2.223 . S
Cd142 O152 2.297 . S
Cd142 O153 2.439 . S
O143 Cd142 2.240 . S
O143 C148 1.279 . S
O144 Cd141 2.297 1_554 S
O144 C146 1.247 . S
O145 Cd141 2.439 1_554 S
O145 C146 1.208 . S
C146 O144 1.247 . S
C146 O145 1.208 . S
C147 O152 1.247 . S
C147 O153 1.208 . S
C148 O140 1.315 . S
C148 O143 1.279 . S
C149 O150 1.315 . S
C149 O151 1.279 . S
O150 Cd142 2.223 . S
O150 C149 1.315 . S
O151 Cd141 2.240 . S
O151 C149 1.279 . S
O152 Cd142 2.297 . S
O152 C147 1.247 . S
O153 Cd142 2.439 . S
O153 C147 1.208 . S
O154 Cd155 2.223 . S
O154 C162 1.315 . S
Cd155 O154 2.223 . S
Cd155 O158 2.297 1_556 S
Cd155 O159 2.439 1_556 S
Cd155 O165 2.240 . S
Cd156 O157 2.240 . S
Cd156 O164 2.223 . S
Cd156 O166 2.297 1_655 S
Cd156 O167 2.439 . S
O157 Cd156 2.240 . S
O157 C162 1.279 . S
O158 Cd155 2.297 1_554 S
O158 C160 1.247 . S
O159 Cd155 2.439 1_554 S
O159 C160 1.208 . S
C160 O158 1.247 . S
C160 O159 1.208 . S
C161 O166 1.247 1_655 S
C161 O167 1.208 . S
C162 O154 1.315 . S
C162 O157 1.279 . S
C163 O164 1.315 . S
C163 O165 1.279 . S
O164 Cd156 2.223 . S
O164 C163 1.315 . S
O165 Cd155 2.240 . S
O165 C163 1.279 . S
O166 Cd156 2.297 1_455 S
O166 C161 1.247 1_455 S
O167 Cd156 2.439 . S
O167 C161 1.208 . S
O168 Cd169 2.223 . S
O168 C176 1.315 . S
Cd169 O168 2.223 . S
Cd169 O172 2.297 . S
Cd169 O173 2.439 . S
Cd169 O179 2.240 . S
Cd170 O171 2.240 . S
Cd170 O178 2.223 . S
Cd170 O180 2.297 1_545 S
Cd170 O181 2.439 . S
O171 Cd170 2.240 . S
O171 C176 1.279 . S
O172 Cd169 2.297 . S
O172 C174 1.247 . S
O173 Cd169 2.439 . S
O173 C174 1.208 . S
C174 O172 1.247 . S
C174 O173 1.208 . S
C175 O180 1.247 1_545 S
C175 O181 1.208 . S
C176 O168 1.315 . S
C176 O171 1.279 . S
C177 O178 1.315 . S
C177 O179 1.279 . S
O178 Cd170 2.223 . S
O178 C177 1.315 . S
O179 Cd169 2.240 . S
O179 C177 1.279 . S
O180 Cd170 2.297 1_565 S
O180 C175 1.247 1_565 S
O181 Cd170 2.439 . S
O181 C175 1.208 . S
O182 Cd183 2.223 . S
O182 C190 1.315 . S
Cd183 O182 2.223 . S
Cd183 O186 2.297 . S
Cd183 O187 2.439 . S
Cd183 O193 2.240 . S
Cd184 O185 2.240 . S
Cd184 O192 2.223 . S
Cd184 O194 2.297 . S
Cd184 O195 2.439 . S
O185 Cd184 2.240 . S
O185 C190 1.279 . S
O186 Cd183 2.297 . S
O186 C188 1.247 . S
O187 Cd183 2.439 . S
O187 C188 1.208 . S
C188 O186 1.247 . S
C188 O187 1.208 . S
C189 O194 1.247 . S
C189 O195 1.208 . S
C190 O182 1.315 . S
C190 O185 1.279 . S
C191 O192 1.315 . S
C191 O193 1.279 . S
O192 Cd184 2.223 . S
O192 C191 1.315 . S
O193 Cd183 2.240 . S
O193 C191 1.279 . S
O194 Cd184 2.297 . S
O194 C189 1.247 . S
O195 Cd184 2.439 . S
O195 C189 1.208 . S
O196 Cd197 2.223 . S
O196 C204 1.315 . S
Cd197 O196 2.223 . S
Cd197 O200 2.297 . S
Cd197 O201 2.439 . S
Cd197 O207 2.240 . S
Cd198 O199 2.240 . S
Cd198 O206 2.223 . S
Cd198 O208 2.297 . S
Cd198 O209 2.439 . S
O199 Cd198 2.240 . S
O199 C204 1.279 . S
O200 Cd197 2.297 . S
O200 C202 1.247 . S
O201 Cd197 2.439 . S
O201 C202 1.208 . S
C202 O200 1.247 . S
C202 O201 1.208 . S
C203 O208 1.247 . S
C203 O209 1.208 . S
C204 O196 1.315 . S
C204 O199 1.279 . S
C205 O206 1.315 . S
C205 O207 1.279 . S
O206 Cd198 2.223 . S
O206 C205 1.315 . S
O207 Cd197 2.240 . S
O207 C205 1.279 . S
O208 Cd198 2.297 . S
O208 C203 1.247 . S
O209 Cd198 2.439 . S
O209 C203 1.208 . S
O210 Cd211 2.223 . S
O210 C218 1.315 . S
Cd211 O210 2.223 . S
Cd211 O214 2.297 . S
Cd211 O215 2.439 . S
Cd211 O221 2.240 . S
Cd212 O213 2.240 . S
Cd212 O220 2.223 . S
Cd212 O222 2.297 1_455 S
Cd212 O223 2.439 . S
O213 Cd212 2.240 . S
O213 C218 1.279 . S
O214 Cd211 2.297 . S
O214 C216 1.247 . S
O215 Cd211 2.439 . S
O215 C216 1.208 . S
C216 O214 1.247 . S
C216 O215 1.208 . S
C217 O222 1.247 1_455 S
C217 O223 1.208 . S
C218 O210 1.315 . S
C218 O213 1.279 . S
C219 O220 1.315 . S
C219 O221 1.279 . S
O220 Cd212 2.223 . S
O220 C219 1.315 . S
O221 Cd211 2.240 . S
O221 C219 1.279 . S
O222 Cd212 2.297 1_655 S
O222 C217 1.247 1_655 S
O223 Cd212 2.439 . S
O223 C217 1.208 . S
H224 C230 0.930 . S
H225 C233 0.930 . S
H226 C234 0.930 . S
H227 C235 0.930 . S
H228 C238 0.930 . S
H229 C239 0.930 . S
C230 H224 0.930 . S
C230 C231 1.355 . S
C230 C232 1.415 . S
C231 C230 1.355 . S
C231 C233 1.419 . S
C232 C230 1.415 . S
C232 C237 1.425 . S
C232 C239 1.409 . S
C233 H225 0.930 . S
C233 C231 1.419 . S
C233 C234 1.362 . S
C234 H226 0.930 . S
C234 C233 1.362 . S
C234 C237 1.409 . S
C235 H227 0.930 . S
C235 C236 1.355 . S
C235 C237 1.415 . S
C236 C235 1.355 . S
C236 C238 1.419 . S
C237 C232 1.425 . S
C237 C234 1.409 . S
C237 C235 1.415 . S
C238 H228 0.930 . S
C238 C236 1.419 . S
C238 C239 1.362 . S
C239 H229 0.930 . S
C239 C232 1.409 . S
C239 C238 1.362 . S
H240 C246 0.930 . S
H241 C249 0.930 . S
H242 C250 0.930 . S
H243 C251 0.930 . S
H244 C254 0.930 . S
H245 C255 0.930 . S
C246 H240 0.930 . S
C246 C247 1.355 . S
C246 C248 1.415 . S
C247 C246 1.355 . S
C247 C249 1.419 . S
C248 C246 1.415 . S
C248 C253 1.425 . S
C248 C255 1.409 . S
C249 H241 0.930 . S
C249 C247 1.419 . S
C249 C250 1.362 . S
C250 H242 0.930 . S
C250 C249 1.362 . S
C250 C253 1.409 . S
C251 H243 0.930 . S
C251 C252 1.355 . S
C251 C253 1.415 . S
C252 C251 1.355 . S
C252 C254 1.419 . S
C253 C248 1.425 . S
C253 C250 1.409 . S
C253 C251 1.415 . S
C254 H244 0.930 . S
C254 C252 1.419 . S
C254 C255 1.362 . S
C255 H245 0.930 . S
C255 C248 1.409 . S
C255 C254 1.362 . S
H256 C262 0.930 . S
H257 C265 0.930 . S
H258 C266 0.930 . S
H259 C267 0.930 . S
H260 C270 0.930 . S
H261 C271 0.930 . S
C262 H256 0.930 . S
C262 C263 1.355 . S
C262 C264 1.415 . S
C263 C262 1.355 . S
C263 C265 1.419 . S
C264 C262 1.415 . S
C264 C269 1.425 . S
C264 C271 1.409 . S
C265 H257 0.930 . S
C265 C263 1.419 . S
C265 C266 1.362 . S
C266 H258 0.930 . S
C266 C265 1.362 . S
C266 C269 1.409 . S
C267 H259 0.930 . S
C267 C268 1.355 . S
C267 C269 1.415 . S
C268 C267 1.355 . S
C268 C270 1.419 . S
C269 C264 1.425 . S
C269 C266 1.409 . S
C269 C267 1.415 . S
C270 H260 0.930 . S
C270 C268 1.419 . S
C270 C271 1.362 . S
C271 H261 0.930 . S
C271 C264 1.409 . S
C271 C270 1.362 . S
H272 C278 0.930 . S
H273 C281 0.930 . S
H274 C282 0.930 . S
H275 C283 0.930 . S
H276 C286 0.930 . S
H277 C287 0.930 . S
C278 H272 0.930 . S
C278 C279 1.355 . S
C278 C280 1.415 . S
C279 C278 1.355 . S
C279 C281 1.419 . S
C280 C278 1.415 . S
C280 C285 1.425 . S
C280 C287 1.409 . S
C281 H273 0.930 . S
C281 C279 1.419 . S
C281 C282 1.362 . S
C282 H274 0.930 . S
C282 C281 1.362 . S
C282 C285 1.409 . S
C283 H275 0.930 . S
C283 C284 1.355 . S
C283 C285 1.415 . S
C284 C283 1.355 . S
C284 C286 1.419 . S
C285 C280 1.425 . S
C285 C282 1.409 . S
C285 C283 1.415 . S
C286 H276 0.930 . S
C286 C284 1.419 . S
C286 C287 1.362 . S
C287 H277 0.930 . S
C287 C280 1.409 . S
C287 C286 1.362 . S
H288 C294 0.930 . S
H289 C297 0.930 . S
H290 C298 0.930 . S
H291 C299 0.930 . S
H292 C302 0.930 . S
H293 C303 0.930 . S
C294 H288 0.930 . S
C294 C295 1.355 . S
C294 C296 1.415 . S
C295 C294 1.355 . S
C295 C297 1.419 . S
C296 C294 1.415 . S
C296 C301 1.425 . S
C296 C303 1.409 . S
C297 H289 0.930 . S
C297 C295 1.419 . S
C297 C298 1.362 . S
C298 H290 0.930 . S
C298 C297 1.362 . S
C298 C301 1.409 . S
C299 H291 0.930 . S
C299 C300 1.355 . S
C299 C301 1.415 . S
C300 C299 1.355 . S
C300 C302 1.419 . S
C301 C296 1.425 . S
C301 C298 1.409 . S
C301 C299 1.415 . S
C302 H292 0.930 . S
C302 C300 1.419 . S
C302 C303 1.362 . S
C303 H293 0.930 . S
C303 C296 1.409 . S
C303 C302 1.362 . S
H304 C310 0.930 . S
H305 C313 0.930 . S
H306 C314 0.930 . S
H307 C315 0.930 . S
H308 C318 0.930 . S
H309 C319 0.930 . S
C310 H304 0.930 . S
C310 C311 1.355 . S
C310 C312 1.415 . S
C311 C310 1.355 . S
C311 C313 1.419 . S
C312 C310 1.415 . S
C312 C317 1.425 . S
C312 C319 1.409 . S
C313 H305 0.930 . S
C313 C311 1.419 . S
C313 C314 1.362 . S
C314 H306 0.930 . S
C314 C313 1.362 . S
C314 C317 1.409 . S
C315 H307 0.930 . S
C315 C316 1.355 . S
C315 C317 1.415 . S
C316 C315 1.355 . S
C316 C318 1.419 . S
C317 C312 1.425 . S
C317 C314 1.409 . S
C317 C315 1.415 . S
C318 H308 0.930 . S
C318 C316 1.419 . S
C318 C319 1.362 . S
C319 H309 0.930 . S
C319 C312 1.409 . S
C319 C318 1.362 . S
H320 C326 0.930 . S
H321 C329 0.930 . S
H322 C330 0.930 . S
H323 C331 0.930 . S
H324 C334 0.930 . S
H325 C335 0.930 . S
C326 H320 0.930 . S
C326 C327 1.355 . S
C326 C328 1.415 . S
C327 C326 1.355 . S
C327 C329 1.419 . S
C328 C326 1.415 . S
C328 C333 1.425 . S
C328 C335 1.409 . S
C329 H321 0.930 . S
C329 C327 1.419 . S
C329 C330 1.362 . S
C330 H322 0.930 . S
C330 C329 1.362 . S
C330 C333 1.409 . S
C331 H323 0.930 . S
C331 C332 1.355 . S
C331 C333 1.415 . S
C332 C331 1.355 . S
C332 C334 1.419 . S
C333 C328 1.425 . S
C333 C330 1.409 . S
C333 C331 1.415 . S
C334 H324 0.930 . S
C334 C332 1.419 . S
C334 C335 1.362 . S
C335 H325 0.930 . S
C335 C328 1.409 . S
C335 C334 1.362 . S
H336 C342 0.930 . S
H337 C345 0.930 . S
H338 C346 0.930 . S
H339 C347 0.930 . S
H340 C350 0.930 . S
H341 C351 0.930 . S
C342 H336 0.930 . S
C342 C343 1.355 . S
C342 C344 1.415 . S
C343 C342 1.355 . S
C343 C345 1.419 . S
C344 C342 1.415 . S
C344 C349 1.425 . S
C344 C351 1.409 . S
C345 H337 0.930 . S
C345 C343 1.419 . S
C345 C346 1.362 . S
C346 H338 0.930 . S
C346 C345 1.362 . S
C346 C349 1.409 . S
C347 H339 0.930 . S
C347 C348 1.355 . S
C347 C349 1.415 . S
C348 C347 1.355 . S
C348 C350 1.419 . S
C349 C344 1.425 . S
C349 C346 1.409 . S
C349 C347 1.415 . S
C350 H340 0.930 . S
C350 C348 1.419 . S
C350 C351 1.362 . S
C351 H341 0.930 . S
C351 C344 1.409 . S
C351 C350 1.362 . S
H352 C358 0.930 . S
H353 C361 0.930 1_565 S
H354 C362 0.904 1_565 S
H355 C363 0.930 1_565 S
H356 C366 0.930 . S
H357 C367 0.930 . S
C358 H352 0.930 . S
C358 C359 1.355 . S
C358 C360 1.415 . S
C359 C358 1.355 . S
C359 C361 1.419 . S
C360 C358 1.415 . S
C360 C365 1.425 . S
C360 C367 1.409 . S
C361 H353 0.930 1_545 S
C361 C359 1.419 . S
C361 C362 1.371 . S
C362 H354 0.904 1_545 S
C362 C361 1.371 . S
C362 C365 1.427 . S
C363 H355 0.930 1_545 S
C363 C364 1.355 . S
C363 C365 1.415 . S
C364 C363 1.355 . S
C364 C366 1.419 . S
C365 C360 1.425 . S
C365 C362 1.427 . S
C365 C363 1.415 . S
C366 H356 0.930 . S
C366 C364 1.419 . S
C366 C367 1.362 . S
C367 H357 0.930 . S
C367 C360 1.409 . S
C367 C366 1.362 . S
H368 C374 0.930 . S
H369 C377 0.930 . S
H370 C378 0.930 . S
H371 C379 0.930 . S
H372 C382 0.930 . S
H373 C383 0.930 . S
C374 H368 0.930 . S
C374 C375 1.355 . S
C374 C376 1.415 . S
C375 C374 1.355 . S
C375 C377 1.419 . S
C376 C374 1.415 . S
C376 C381 1.425 . S
C376 C383 1.409 . S
C377 H369 0.930 . S
C377 C375 1.419 . S
C377 C378 1.362 . S
C378 H370 0.930 . S
C378 C377 1.362 . S
C378 C381 1.409 . S
C379 H371 0.930 . S
C379 C380 1.355 . S
C379 C381 1.415 . S
C380 C379 1.355 . S
C380 C382 1.419 . S
C381 C376 1.425 . S
C381 C378 1.409 . S
C381 C379 1.415 . S
C382 H372 0.930 . S
C382 C380 1.419 . S
C382 C383 1.362 . S
C383 H373 0.930 . S
C383 C376 1.409 . S
C383 C382 1.362 . S
H384 C390 0.930 . S
H385 C393 0.930 . S
H386 C394 0.930 . S
H387 C395 0.930 . S
H388 C398 0.930 . S
H389 C399 0.930 . S
C390 H384 0.930 . S
C390 C391 1.355 . S
C390 C392 1.415 . S
C391 C390 1.355 . S
C391 C393 1.419 . S
C392 C390 1.415 . S
C392 C397 1.425 . S
C392 C399 1.409 . S
C393 H385 0.930 . S
C393 C391 1.419 . S
C393 C394 1.362 . S
C394 H386 0.930 . S
C394 C393 1.362 . S
C394 C397 1.409 . S
C395 H387 0.930 . S
C395 C396 1.355 . S
C395 C397 1.415 . S
C396 C395 1.355 . S
C396 C398 1.419 . S
C397 C392 1.425 . S
C397 C394 1.409 . S
C397 C395 1.415 . S
C398 H388 0.930 . S
C398 C396 1.419 . S
C398 C399 1.362 . S
C399 H389 0.930 . S
C399 C392 1.409 . S
C399 C398 1.362 . S
H400 C406 0.930 . S
H401 C409 0.930 . S
H402 C410 0.930 . S
H403 C411 0.930 . S
H404 C414 0.930 1_655 S
H405 C415 0.930 1_655 S
C406 H400 0.930 . S
C406 C407 1.355 . S
C406 C408 1.415 . S
C407 C406 1.355 . S
C407 C409 1.419 . S
C408 C406 1.415 . S
C408 C413 1.425 . S
C408 C415 1.409 . S
C409 H401 0.930 . S
C409 C407 1.419 . S
C409 C410 1.362 . S
C410 H402 0.930 . S
C410 C409 1.362 . S
C410 C413 1.409 . S
C411 H403 0.930 . S
C411 C412 1.355 . S
C411 C413 1.415 . S
C412 C411 1.355 . S
C412 C414 1.419 . S
C413 C408 1.425 . S
C413 C410 1.409 . S
C413 C411 1.415 . S
C414 H404 0.930 1_455 S
C414 C412 1.419 . S
C414 C415 1.362 . S
C415 H405 0.930 1_455 S
C415 C408 1.409 . S
C415 C414 1.362 . S
H416 C422 0.930 . S
H417 C425 0.930 . S
H418 C426 0.930 . S
H419 C427 0.930 . S
H420 C430 0.930 . S
H421 C431 0.930 . S
C422 H416 0.930 . S
C422 C423 1.355 . S
C422 C424 1.415 . S
C423 C422 1.355 . S
C423 C425 1.419 . S
C424 C422 1.415 . S
C424 C429 1.425 . S
C424 C431 1.409 . S
C425 H417 0.930 . S
C425 C423 1.419 . S
C425 C426 1.362 . S
C426 H418 0.930 . S
C426 C425 1.362 . S
C426 C429 1.409 . S
C427 H419 0.930 . S
C427 C428 1.355 . S
C427 C429 1.415 . S
C428 C427 1.355 . S
C428 C430 1.419 . S
C429 C424 1.425 . S
C429 C426 1.409 . S
C429 C427 1.415 . S
C430 H420 0.930 . S
C430 C428 1.419 . S
C430 C431 1.362 . S
C431 H421 0.930 . S
C431 C424 1.409 . S
C431 C430 1.362 . S
H432 C438 0.930 . S
H433 C441 0.930 . S
H434 C442 0.930 . S
H435 C443 0.930 . S
H436 C446 0.930 . S
H437 C447 0.930 . S
C438 H432 0.930 . S
C438 C439 1.355 . S
C438 C440 1.415 . S
C439 C438 1.355 . S
C439 C441 1.419 . S
C440 C438 1.415 . S
C440 C445 1.425 . S
C440 C447 1.409 . S
C441 H433 0.930 . S
C441 C439 1.419 . S
C441 C442 1.362 . S
C442 H434 0.930 . S
C442 C441 1.362 . S
C442 C445 1.409 . S
C443 H435 0.930 . S
C443 C444 1.355 . S
C443 C445 1.415 . S
C444 C443 1.355 . S
C444 C446 1.419 . S
C445 C440 1.425 . S
C445 C442 1.409 . S
C445 C443 1.415 . S
C446 H436 0.930 . S
C446 C444 1.419 . S
C446 C447 1.362 . S
C447 H437 0.930 . S
C447 C440 1.409 . S
C447 C446 1.362 . S
H448 C454 0.930 . S
H449 C457 0.930 . S
H450 C458 0.930 . S
H451 C459 0.930 . S
H452 C462 0.930 . S
H453 C463 0.930 . S
C454 H448 0.930 . S
C454 C455 1.355 . S
C454 C456 1.415 . S
C455 C454 1.355 . S
C455 C457 1.419 . S
C456 C454 1.415 . S
C456 C461 1.425 . S
C456 C463 1.409 . S
C457 H449 0.930 . S
C457 C455 1.419 . S
C457 C458 1.362 . S
C458 H450 0.930 . S
C458 C457 1.362 . S
C458 C461 1.409 . S
C459 H451 0.930 . S
C459 C460 1.355 . S
C459 C461 1.415 . S
C460 C459 1.355 . S
C460 C462 1.419 . S
C461 C456 1.425 . S
C461 C458 1.409 . S
C461 C459 1.415 . S
C462 H452 0.930 . S
C462 C460 1.419 . S
C462 C463 1.362 . S
C463 H453 0.930 . S
C463 C456 1.409 . S
C463 C462 1.362 . S
H464 C470 0.930 . S
H465 C473 0.930 1_455 S
H466 C474 0.927 . S
H467 C475 0.930 1_455 S
H468 C478 0.930 . S
H469 C479 0.930 . S
C470 H464 0.930 . S
C470 C471 1.355 . S
C470 C472 1.415 . S
C471 C470 1.355 . S
C471 C473 1.419 . S
C472 C470 1.415 . S
C472 C477 1.425 . S
C472 C479 1.409 . S
C473 H465 0.930 1_655 S
C473 C471 1.419 . S
C473 C474 1.363 1_655 S
C474 H466 0.927 . S
C474 C473 1.363 1_455 S
C474 C477 1.411 1_455 S
C475 H467 0.930 1_655 S
C475 C476 1.355 . S
C475 C477 1.415 . S
C476 C475 1.355 . S
C476 C478 1.419 . S
C477 C472 1.425 . S
C477 C474 1.411 1_655 S
C477 C475 1.415 . S
C478 H468 0.930 . S
C478 C476 1.419 . S
C478 C479 1.362 . S
C479 H469 0.930 . S
C479 C472 1.409 . S
C479 C478 1.362 . S
H480 C486 0.930 . S
H481 C489 0.916 1_545 S
H482 C490 0.930 . S
H483 C491 0.930 . S
H484 C494 0.930 . S
H485 C495 0.930 . S
C486 H480 0.930 . S
C486 C487 1.355 . S
C486 C488 1.415 . S
C487 C486 1.355 . S
C487 C489 1.434 . S
C488 C486 1.415 . S
C488 C493 1.425 . S
C488 C495 1.409 . S
C489 H481 0.916 1_565 S
C489 C487 1.434 . S
C489 C490 1.361 1_565 S
C490 H482 0.930 . S
C490 C489 1.361 1_545 S
C490 C493 1.409 1_545 S
C491 H483 0.930 . S
C491 C492 1.355 . S
C491 C493 1.415 . S
C492 C491 1.355 . S
C492 C494 1.419 . S
C493 C488 1.425 . S
C493 C490 1.409 1_565 S
C493 C491 1.415 . S
C494 H484 0.930 . S
C494 C492 1.419 . S
C494 C495 1.362 . S
C495 H485 0.930 . S
C495 C488 1.409 . S
C495 C494 1.362 . S
H496 C502 0.930 . S
H497 C505 0.930 . S
H498 C506 0.930 . S
H499 C507 0.930 . S
H500 C510 0.930 . S
H501 C511 0.930 . S
C502 H496 0.930 . S
C502 C503 1.355 . S
C502 C504 1.415 . S
C503 C502 1.355 . S
C503 C505 1.419 . S
C504 C502 1.415 . S
C504 C509 1.425 . S
C504 C511 1.409 . S
C505 H497 0.930 . S
C505 C503 1.419 . S
C505 C506 1.362 . S
C506 H498 0.930 . S
C506 C505 1.362 . S
C506 C509 1.409 . S
C507 H499 0.930 . S
C507 C508 1.355 . S
C507 C509 1.415 . S
C508 C507 1.355 . S
C508 C510 1.419 . S
C509 C504 1.425 . S
C509 C506 1.409 . S
C509 C507 1.415 . S
C510 H500 0.930 . S
C510 C508 1.419 . S
C510 C511 1.362 . S
C511 H501 0.930 . S
C511 C504 1.409 . S
C511 C510 1.362 . S
H512 C518 0.930 . S
H513 C521 0.930 . S
H514 C522 0.930 . S
H515 C523 0.930 . S
H516 C526 0.930 . S
H517 C527 0.930 . S
C518 H512 0.930 . S
C518 C519 1.355 . S
C518 C520 1.415 . S
C519 C518 1.355 . S
C519 C521 1.419 . S
C520 C518 1.415 . S
C520 C525 1.425 . S
C520 C527 1.409 . S
C521 H513 0.930 . S
C521 C519 1.419 . S
C521 C522 1.362 . S
C522 H514 0.930 . S
C522 C521 1.362 . S
C522 C525 1.409 . S
C523 H515 0.930 . S
C523 C524 1.355 . S
C523 C525 1.415 . S
C524 C523 1.355 . S
C524 C526 1.419 . S
C525 C520 1.425 . S
C525 C522 1.409 . S
C525 C523 1.415 . S
C526 H516 0.930 . S
C526 C524 1.419 . S
C526 C527 1.362 . S
C527 H517 0.930 . S
C527 C520 1.409 . S
C527 C526 1.362 . S
H528 C534 0.930 . S
H529 C537 0.930 1_455 S
H530 C538 0.930 . S
H531 C539 0.930 1_455 S
H532 C542 0.930 . S
H533 C543 0.930 . S
C534 H528 0.930 . S
C534 C535 1.355 . S
C534 C536 1.415 . S
C535 C534 1.355 . S
C535 C537 1.419 . S
C536 C534 1.415 . S
C536 C541 1.425 . S
C536 C543 1.409 . S
C537 H529 0.930 1_655 S
C537 C535 1.419 . S
C537 C538 1.362 1_655 S
C538 H530 0.930 . S
C538 C537 1.362 1_455 S
C538 C541 1.409 1_455 S
C539 H531 0.930 1_655 S
C539 C540 1.355 . S
C539 C541 1.415 . S
C540 C539 1.355 . S
C540 C542 1.419 . S
C541 C536 1.425 . S
C541 C538 1.409 1_655 S
C541 C539 1.415 . S
C542 H532 0.930 . S
C542 C540 1.419 . S
C542 C543 1.362 . S
C543 H533 0.930 . S
C543 C536 1.409 . S
C543 C542 1.362 . S
H544 C550 0.930 . S
H545 C553 0.930 . S
H546 C554 0.930 . S
H547 C555 0.930 . S
H548 C558 0.930 . S
H549 C559 0.930 . S
C550 H544 0.930 . S
C550 C551 1.355 . S
C550 C552 1.415 . S
C551 C550 1.355 . S
C551 C553 1.419 . S
C552 C550 1.415 . S
C552 C557 1.425 . S
C552 C559 1.409 . S
C553 H545 0.930 . S
C553 C551 1.419 . S
C553 C554 1.362 . S
C554 H546 0.930 . S
C554 C553 1.362 . S
C554 C557 1.409 . S
C555 H547 0.930 . S
C555 C556 1.355 . S
C555 C557 1.415 . S
C556 C555 1.355 . S
C556 C558 1.419 . S
C557 C552 1.425 . S
C557 C554 1.409 . S
C557 C555 1.415 . S
C558 H548 0.930 . S
C558 C556 1.419 . S
C558 C559 1.362 . S
C559 H549 0.930 . S
C559 C552 1.409 . S
C559 C558 1.362 . S
H560 C566 0.930 . S
H561 C569 0.930 . S
H562 C570 0.930 . S
H563 C571 0.930 . S
H564 C574 0.930 . S
H565 C575 0.930 . S
C566 H560 0.930 . S
C566 C567 1.355 . S
C566 C568 1.415 . S
C567 C566 1.355 . S
C567 C569 1.419 . S
C568 C566 1.415 . S
C568 C573 1.425 . S
C568 C575 1.409 . S
C569 H561 0.930 . S
C569 C567 1.419 . S
C569 C570 1.362 . S
C570 H562 0.930 . S
C570 C569 1.362 . S
C570 C573 1.409 . S
C571 H563 0.930 . S
C571 C572 1.355 . S
C571 C573 1.415 . S
C572 C571 1.355 . S
C572 C574 1.419 . S
C573 C568 1.425 . S
C573 C570 1.409 . S
C573 C571 1.415 . S
C574 H564 0.930 . S
C574 C572 1.419 . S
C574 C575 1.362 . S
C575 H565 0.930 . S
C575 C568 1.409 . S
C575 C574 1.362 . S
H576 C582 0.930 . S
H577 C585 0.930 . S
H578 C586 0.930 . S
H579 C587 0.930 . S
H580 C590 0.930 . S
H581 C591 0.930 . S
C582 H576 0.930 . S
C582 C583 1.355 . S
C582 C584 1.415 . S
C583 C582 1.355 . S
C583 C585 1.419 . S
C584 C582 1.415 . S
C584 C589 1.425 . S
C584 C591 1.409 . S
C585 H577 0.930 . S
C585 C583 1.419 . S
C585 C586 1.362 . S
C586 H578 0.930 . S
C586 C585 1.362 . S
C586 C589 1.409 . S
C587 H579 0.930 . S
C587 C588 1.355 . S
C587 C589 1.415 . S
C588 C587 1.355 . S
C588 C590 1.419 . S
C589 C584 1.425 . S
C589 C586 1.409 . S
C589 C587 1.415 . S
C590 H580 0.930 . S
C590 C588 1.419 . S
C590 C591 1.362 . S
C591 H581 0.930 . S
C591 C584 1.409 . S
C591 C590 1.362 . S
H592 C598 0.930 . S
H593 C601 0.930 . S
H594 C602 0.930 . S
H595 C603 0.930 . S
H596 C606 0.930 . S
H597 C607 0.930 . S
C598 H592 0.930 . S
C598 C599 1.355 . S
C598 C600 1.415 . S
C599 C598 1.355 . S
C599 C601 1.419 . S
C600 C598 1.415 . S
C600 C605 1.425 . S
C600 C607 1.409 . S
C601 H593 0.930 . S
C601 C599 1.419 . S
C601 C602 1.362 . S
C602 H594 0.930 . S
C602 C601 1.362 . S
C602 C605 1.409 . S
C603 H595 0.930 . S
C603 C604 1.355 . S
C603 C605 1.415 . S
C604 C603 1.355 . S
C604 C606 1.419 . S
C605 C600 1.425 . S
C605 C602 1.409 . S
C605 C603 1.415 . S
C606 H596 0.930 . S
C606 C604 1.419 . S
C606 C607 1.362 . S
C607 H597 0.930 . S
C607 C600 1.409 . S
C607 C606 1.362 . S
H608 C614 0.930 . S
H609 C617 0.930 . S
H610 C618 0.930 . S
H611 C619 0.930 . S
H612 C622 0.930 . S
H613 C623 0.930 . S
C614 H608 0.930 . S
C614 C615 1.355 1_564 S
C614 C616 1.415 . S
C615 C614 1.355 1_546 S
C615 C617 1.419 . S
C616 C614 1.415 . S
C616 C621 1.425 1_564 S
C616 C623 1.409 . S
C617 H609 0.930 . S
C617 C615 1.419 . S
C617 C618 1.362 . S
C618 H610 0.930 . S
C618 C617 1.362 . S
C618 C621 1.409 . S
C619 H611 0.930 . S
C619 C620 1.355 1_546 S
C619 C621 1.415 . S
C620 C619 1.355 1_564 S
C620 C622 1.419 . S
C621 C616 1.425 1_546 S
C621 C618 1.409 . S
C621 C619 1.415 . S
C622 H612 0.930 . S
C622 C620 1.419 . S
C622 C623 1.362 . S
C623 H613 0.930 . S
C623 C616 1.409 . S
C623 C622 1.362 . S
H624 C630 0.930 . S
H625 C633 0.930 . S
H626 C634 0.930 . S
H627 C635 0.930 . S
H628 C638 0.930 . S
H629 C639 0.930 . S
C630 H624 0.930 . S
C630 C631 1.355 . S
C630 C632 1.415 . S
C631 C630 1.355 . S
C631 C633 1.419 1_556 S
C632 C630 1.415 . S
C632 C637 1.425 1_556 S
C632 C639 1.409 . S
C633 H625 0.930 . S
C633 C631 1.419 1_554 S
C633 C634 1.362 . S
C634 H626 0.930 . S
C634 C633 1.362 . S
C634 C637 1.409 . S
C635 H627 0.930 . S
C635 C636 1.355 . S
C635 C637 1.415 . S
C636 C635 1.355 . S
C636 C638 1.419 1_554 S
C637 C632 1.425 1_554 S
C637 C634 1.409 . S
C637 C635 1.415 . S
C638 H628 0.930 . S
C638 C636 1.419 1_556 S
C638 C639 1.362 . S
C639 H629 0.930 . S
C639 C632 1.409 . S
C639 C638 1.362 . S
H640 C646 0.930 . S
H641 C649 0.930 . S
H642 C650 0.930 . S
H643 C651 0.930 . S
H644 C654 0.930 . S
H645 C655 0.930 . S
C646 H640 0.930 . S
C646 C647 1.355 1_556 S
C646 C648 1.415 . S
C647 C646 1.355 1_554 S
C647 C649 1.419 . S
C648 C646 1.415 . S
C648 C653 1.425 1_656 S
C648 C655 1.409 1_655 S
C649 H641 0.930 . S
C649 C647 1.419 . S
C649 C650 1.362 . S
C650 H642 0.930 . S
C650 C649 1.362 . S
C650 C653 1.409 1_655 S
C651 H643 0.930 . S
C651 C652 1.355 1_554 S
C651 C653 1.415 . S
C652 C651 1.355 1_556 S
C652 C654 1.419 . S
C653 C648 1.425 1_454 S
C653 C650 1.409 1_455 S
C653 C651 1.415 . S
C654 H644 0.930 . S
C654 C652 1.419 . S
C654 C655 1.362 . S
C655 H645 0.930 . S
C655 C648 1.409 1_455 S
C655 C654 1.362 . S
H656 C662 0.930 . S
H657 C665 0.930 . S
H658 C666 0.930 . S
H659 C667 0.930 . S
H660 C670 0.930 . S
H661 C671 0.930 . S
C662 H656 0.930 . S
C662 C663 1.351 1_454 S
C662 C664 1.415 . S
C663 C662 1.351 1_656 S
C663 C665 1.424 . S
C664 C662 1.415 . S
C664 C669 1.425 1_444 S
C664 C671 1.409 1_545 S
C665 H657 0.930 . S
C665 C663 1.424 . S
C665 C666 1.362 . S
C666 H658 0.930 . S
C666 C665 1.362 . S
C666 C669 1.409 1_545 S
C667 H659 0.930 . S
C667 C668 1.351 1_656 S
C667 C669 1.415 . S
C668 C667 1.351 1_454 S
C668 C670 1.424 . S
C669 C664 1.425 1_666 S
C669 C666 1.409 1_565 S
C669 C667 1.415 . S
C670 H660 0.930 . S
C670 C668 1.424 . S
C670 C671 1.362 . S
C671 H661 0.930 . S
C671 C664 1.409 1_565 S
C671 C670 1.362 . S
H672 C678 0.930 . S
H673 C681 0.930 . S
H674 C682 0.930 . S
H675 C683 0.930 . S
H676 C686 0.930 . S
H677 C687 0.930 . S
C678 H672 0.930 . S
C678 C679 1.364 . S
C678 C680 1.415 . S
C679 C678 1.364 . S
C679 C681 1.408 1_545 S
C680 C678 1.415 . S
C680 C685 1.425 1_445 S
C680 C687 1.409 1_455 S
C681 H673 0.930 . S
C681 C679 1.408 1_565 S
C681 C682 1.362 . S
C682 H674 0.930 . S
C682 C681 1.362 . S
C682 C685 1.409 1_455 S
C683 H675 0.930 . S
C683 C684 1.364 . S
C683 C685 1.415 . S
C684 C683 1.364 . S
C684 C686 1.408 1_565 S
C685 C680 1.425 1_665 S
C685 C682 1.409 1_655 S
C685 C683 1.415 . S
C686 H676 0.930 . S
C686 C684 1.408 1_545 S
C686 C687 1.362 . S
C687 H677 0.930 . S
C687 C680 1.409 1_655 S
C687 C686 1.362 . S
H688 C694 0.930 . S
H689 C697 0.930 . S
H690 C698 0.930 . S
H691 C699 0.930 . S
H692 C702 0.930 . S
H693 C703 0.930 . S
C694 H688 0.930 . S
C694 C695 1.355 . S
C694 C696 1.415 . S
C695 C694 1.355 . S
C695 C697 1.419 . S
C696 C694 1.415 . S
C696 C701 1.425 1_565 S
C696 C703 1.409 1_565 S
C697 H689 0.930 . S
C697 C695 1.419 . S
C697 C698 1.362 . S
C698 H690 0.930 . S
C698 C697 1.362 . S
C698 C701 1.409 1_565 S
C699 H691 0.930 . S
C699 C700 1.355 . S
C699 C701 1.415 . S
C700 C699 1.355 . S
C700 C702 1.419 . S
C701 C696 1.425 1_545 S
C701 C698 1.409 1_545 S
C701 C699 1.415 . S
C702 H692 0.930 . S
C702 C700 1.419 . S
C702 C703 1.362 . S
C703 H693 0.930 . S
C703 C696 1.409 1_545 S
C703 C702 1.362 . S
H704 C710 0.930 . S
H705 C713 0.930 . S
H706 C714 0.930 . S
H707 C715 0.930 . S
H708 C718 0.930 . S
H709 C719 0.930 . S
C710 H704 0.930 . S
C710 C711 1.355 . S
C710 C712 1.415 . S
C711 C710 1.355 . S
C711 C713 1.419 . S
C712 C710 1.415 . S
C712 C717 1.425 . S
C712 C719 1.409 . S
C713 H705 0.930 . S
C713 C711 1.419 . S
C713 C714 1.362 . S
C714 H706 0.930 . S
C714 C713 1.362 . S
C714 C717 1.409 . S
C715 H707 0.930 . S
C715 C716 1.355 . S
C715 C717 1.415 . S
C716 C715 1.355 . S
C716 C718 1.419 . S
C717 C712 1.425 . S
C717 C714 1.409 . S
C717 C715 1.415 . S
C718 H708 0.930 . S
C718 C716 1.419 . S
C718 C719 1.362 . S
C719 H709 0.930 . S
C719 C712 1.409 . S
C719 C718 1.362 . S
H720 C726 0.930 . S
H721 C729 0.930 . S
H722 C730 0.930 . S
H723 C731 0.930 . S
H724 C734 0.930 . S
H725 C735 0.930 . S
C726 H720 0.930 . S
C726 C727 1.355 1_655 S
C726 C728 1.415 . S
C727 C726 1.355 1_455 S
C727 C729 1.419 . S
C728 C726 1.415 . S
C728 C733 1.425 1_655 S
C728 C735 1.409 . S
C729 H721 0.930 . S
C729 C727 1.419 . S
C729 C730 1.362 . S
C730 H722 0.930 . S
C730 C729 1.362 . S
C730 C733 1.409 . S
C731 H723 0.930 . S
C731 C732 1.355 1_455 S
C731 C733 1.415 . S
C732 C731 1.355 1_655 S
C732 C734 1.419 . S
C733 C728 1.425 1_455 S
C733 C730 1.409 . S
C733 C731 1.415 . S
C734 H724 0.930 . S
C734 C732 1.419 . S
C734 C735 1.362 . S
C735 H725 0.930 . S
C735 C728 1.409 . S
C735 C734 1.362 . S
C231 C79 0.569 . S
C236 C9 0.616 . S
C247 C93 0.689 . S
C252 C23 0.543 . S
C263 C37 0.643 . S
C268 C107 0.711 . S
C279 C51 0.678 . S
C284 C65 0.688 . S
C295 C121 0.628 . S
C300 C191 0.560 . S
C311 C205 0.558 . S
C316 C135 0.712 . S
C327 C219 0.545 . S
C332 C149 0.662 . S
C343 C163 0.552 . S
C348 C177 0.643 . S
C359 C6 1.585 . S
C364 C176 1.505 . S
C375 C190 1.487 . S
C380 C20 1.582 . S
C391 C34 1.581 . S
C396 C204 1.527 . S
C407 C48 1.563 . S
C412 C218 1.557 . S
C423 C62 1.569 . S
C428 C120 1.499 . S
C439 C76 1.561 . S
C444 C134 1.521 . S
C455 C90 1.557 . S
C460 C148 1.540 . S
C471 C104 1.582 . S
C476 C162 1.487 . S
C487 C64 1.537 . S
C492 C118 1.558 . S
C503 C78 1.487 . S
C508 C132 1.579 . S
C519 C92 1.544 . S
C524 C146 1.574 . S
C535 C160 1.577 . S
C540 C106 1.488 . S
C551 C8 1.497 . S
C556 C174 1.570 . S
C567 C188 1.585 . S
C572 C22 1.496 . S
C583 C202 1.578 . S
C588 C36 1.536 . S
C599 C50 1.547 . S
C604 C216 1.572 . S
C615 C119 1.545 1_545 S
C620 C7 1.545 1_565 S
C631 C133 1.557 . S
C636 C21 1.557 . S
C647 C35 1.518 . S
C652 C147 1.518 . S
C663 C161 1.512 . S
C668 C49 1.512 . S
C679 C63 1.576 1_545 S
C684 C175 1.576 1_565 S
C695 C189 1.513 . S
C700 C77 1.513 . S
C711 C203 1.529 . S
C716 C91 1.529 . S
C727 C217 1.544 . S
C732 C105 1.544 . S
