# Generated by pormake.
# Topology rob, (6)-cn, num edge types: 1
# Building blocks:
#     Node 0, Type 0, BuildingBlock: PAMTUU_clean_sbu_0, # of connection points: 6
#     Node 1, Type 0, BuildingBlock: PAMTUU_clean_sbu_0, # of connection points: 6
#     Node 2, Type 0, BuildingBlock: PAMTUU_clean_sbu_0, # of connection points: 6
#     Node 3, Type 0, BuildingBlock: PAMTUU_clean_sbu_0, # of connection points: 6
#     Edge 4, Type (0, 0), BuildingBlock: AJUNOK_clean_linker_0, # of connection points: 2
#     Edge 5, Type (0, 0), BuildingBlock: AJUNOK_clean_linker_0, # of connection points: 2
#     Edge 6, Type (0, 0), BuildingBlock: AJUNOK_clean_linker_0, # of connection points: 2
#     Edge 7, Type (0, 0), BuildingBlock: AJUNOK_clean_linker_0, # of connection points: 2
#     Edge 8, Type (0, 0), BuildingBlock: AJUNOK_clean_linker_0, # of connection points: 2
#     Edge 9, Type (0, 0), BuildingBlock: AJUNOK_clean_linker_0, # of connection points: 2
#     Edge 10, Type (0, 0), BuildingBlock: AJUNOK_clean_linker_0, # of connection points: 2
#     Edge 11, Type (0, 0), BuildingBlock: AJUNOK_clean_linker_0, # of connection points: 2
#     Edge 12, Type (0, 0), BuildingBlock: AJUNOK_clean_linker_0, # of connection points: 2
#     Edge 13, Type (0, 0), BuildingBlock: AJUNOK_clean_linker_0, # of connection points: 2
#     Edge 14, Type (0, 0), BuildingBlock: AJUNOK_clean_linker_0, # of connection points: 2
#     Edge 15, Type (0, 0), BuildingBlock: AJUNOK_clean_linker_0, # of connection points: 2
# Relax obj value: 0.236
# Max RMSD: 0.259
# Mean RMSD: 0.259
data_MOF--net-rob--node1-PAMTUU_clean_sbu_0--edge1-AJUNOK_clean_linker_0
_symmetry_space_group_name_H-M    P1
_symmetry_Int_Tables_number       1
_symmetry_cell_setting            triclinic
loop_
_symmetry_equiv_pos_as_xyz
'x, y, z'
_cell_length_a     15.573678
_cell_length_b     15.818531
_cell_length_c     28.253563
_cell_angle_alpha  90.111203
_cell_angle_beta   50.26326
_cell_angle_gamma 90.122134
loop_
_atom_site_label
_atom_site_type_symbol
_atom_site_fract_x
_atom_site_fract_y
_atom_site_fract_z
_atom_type_partial_charge
Tb0 Tb 0.18191 0.30469 0.01961 0.0
Tb1 Tb 0.30147 0.15556 0.04153 0.0
C2 C 0.36936 0.34862 0.02528 0.0
C3 C 0.0853 0.40809 0.94494 0.0
C4 C 0.05905 0.40874 0.85524 0.0
C5 C 0.09343 0.48206 0.86694 0.0
C6 C 0.10766 0.48151 0.91102 0.0
C7 C 0.05397 0.33393 0.93185 0.0
C8 C 0.04079 0.33429 0.88737 0.0
C9 C 0.09789 0.40894 0.99241 0.0
O10 O 0.34031 0.27094 0.93186 0.0
O11 O 0.35986 0.13331 0.94892 0.0
O12 O 0.1513 0.10056 0.06335 0.0
O13 O 0.13644 0.18589 1.00352 0.0
O14 O 0.44412 0.09597 0.01822 0.0
O15 O 0.27882 0.05295 0.09561 0.0
O16 O 0.2095 0.2342 0.12274 0.0
O17 O 0.07676 0.28763 0.11919 0.0
O18 O 0.27438 0.37293 0.04019 0.0
O19 O 0.40309 0.26943 0.01286 0.0
C20 C 0.38053 0.19465 0.91171 0.0
O21 O 0.0396 0.35323 0.03642 0.0
O22 O 0.19988 0.41466 0.9722 0.0
C23 C 0.11128 0.11663 0.03514 0.0
C24 C 0.41771 0.04224 0.1055 0.0
C25 C 0.46789 0.03247 0.18534 0.0
C26 C 0.40637 0.96818 0.18454 0.0
C27 C 0.38025 0.97366 0.14573 0.0
C28 C 0.48419 0.10454 0.10374 0.0
C29 C 0.5085 0.09995 0.14362 0.0
C30 C 0.38547 0.04688 0.06646 0.0
C31 C 0.11246 0.26966 0.14952 0.0
H32 H 0.11068 0.53925 0.84142 0.0
H33 H 0.1362 0.53839 0.91861 0.0
H34 H 0.04009 0.27568 0.95576 0.0
H35 H 0.01552 0.27674 0.87836 0.0
H36 H 0.37616 0.91436 0.21495 0.0
H37 H 0.33007 0.92428 0.14736 0.0
H38 H 0.51566 0.15739 0.07241 0.0
H39 H 0.55585 0.15055 0.14326 0.0
Tb40 Tb 0.66916 0.80648 0.01765 0.0
Tb41 Tb 0.81064 0.66886 0.03113 0.0
C42 C 0.85948 0.86378 0.01954 0.0
C43 C 0.54206 0.90313 0.9561 0.0
C44 C 0.50322 0.90959 0.87131 0.0
C45 C 0.56168 0.97494 0.87368 0.0
C46 C 0.58219 0.97109 0.91502 0.0
C47 C 0.48129 0.83856 0.95477 0.0
C48 C 0.46221 0.84178 0.91269 0.0
C49 C 0.56244 0.9017 1.00055 0.0
O50 O 0.8214 0.77993 0.92567 0.0
O51 O 0.86918 0.64912 0.93824 0.0
O52 O 0.66128 0.60731 0.05678 0.0
O53 O 0.63949 0.68382 0.99709 0.0
O54 O 0.95853 0.62141 1.0087 0.0
O55 O 0.80034 0.56002 0.07688 0.0
O56 O 0.71367 0.743 0.11489 0.0
O57 O 0.57075 0.7815 0.11579 0.0
O58 O 0.76018 0.88117 0.0373 0.0
O59 O 0.90217 0.78735 1.00223 0.0
C60 C 0.87254 0.70703 0.90374 0.0
O61 O 0.51668 0.8403 0.04065 0.0
O62 O 0.66424 0.91755 0.97864 0.0
C63 C 0.62373 0.61447 0.0267 0.0
C64 C 0.92878 0.55758 0.09462 0.0
C65 C 0.97077 0.54092 0.17775 0.0
C66 C 0.90554 0.48087 0.17668 0.0
C67 C 0.8848 0.48911 0.13559 0.0
C68 C -0.00666 0.6183 0.09583 0.0
C69 C 0.01373 0.61018 0.1372 0.0
C70 C 0.90523 0.564 0.05173 0.0
C71 C 0.6117 0.77025 0.14407 0.0
H72 H 0.59182 0.02913 0.84343 0.0
H73 H 0.62878 0.02182 0.91526 0.0
H74 H 0.44923 0.78512 0.98578 0.0
H75 H 0.41735 0.79039 0.91166 0.0
H76 H 0.87063 0.42739 0.20759 0.0
H77 H 0.83452 0.44158 0.13564 0.0
H78 H 0.02726 0.67241 0.06534 0.0
H79 H 0.0614 0.65901 0.13819 0.0
Tb80 Tb 0.29864 0.80453 0.53268 0.0
Tb81 Tb 0.16994 0.65704 0.5166 0.0
C82 C 0.10361 0.84516 0.53103 0.0
C83 C 0.40509 0.91281 0.60235 0.0
C84 C 0.44199 0.91293 0.68818 0.0
C85 C 0.3531 0.95893 0.69994 0.0
C86 C 0.33525 0.95924 0.65737 0.0
C87 C 0.49525 0.86786 0.59004 0.0
C88 C 0.51316 0.86757 0.63267 0.0
C89 C 0.38202 0.91192 0.55893 0.0
O90 O 0.21026 0.72607 0.61363 0.0
O91 O 0.06884 0.67929 0.61558 0.0
O92 O 0.26659 0.5892 0.535 0.0
O93 O 0.40045 0.69065 0.5008 0.0
O94 O 0.02396 0.61414 0.5352 0.0
O95 O 0.17721 0.54249 0.47631 0.0
O96 O 0.32013 0.69161 0.42565 0.0
O97 O 0.35546 0.82625 0.44063 0.0
O98 O 0.14493 0.85871 0.55882 0.0
O99 O 0.12644 0.77595 0.49974 0.0
C100 C 0.10986 0.69517 0.64345 0.0
O101 O 0.44189 0.862 0.51111 0.0
O102 O 0.27694 0.91016 0.58417 0.0
C103 C 0.36434 0.61235 0.51724 0.0
C104 C 0.06042 0.54445 0.44935 0.0
C105 C 0.03174 0.52979 0.36058 0.0
C106 C 0.11643 0.48443 0.35384 0.0
C107 C 0.13051 0.49158 0.39785 0.0
C108 C 0.97369 0.58791 0.45686 0.0
C109 C 0.95984 0.58083 0.41281 0.0
C110 C 0.07605 0.55223 0.49571 0.0
C111 C 0.36408 0.7671 0.40511 0.0
H112 H 0.29769 -0.00483 0.742 0.0
H113 H 0.26615 -0.00443 0.6677 0.0
H114 H 0.55158 0.83248 0.54771 0.0
H115 H 0.5817 0.83074 0.62259 0.0
H116 H 0.17184 0.44348 0.31451 0.0
H117 H 0.19652 0.45586 0.39145 0.0
H118 H 0.91682 0.62798 0.49653 0.0
H119 H 0.89435 0.61679 0.41887 0.0
Tb120 Tb 0.80286 0.30583 0.53808 0.0
Tb121 Tb 0.65852 0.16405 0.5293 0.0
C122 C 0.61222 0.36051 0.53703 0.0
C123 C 0.92835 0.4036 0.60013 0.0
C124 C 0.97845 0.40632 0.68038 0.0
C125 C 0.93337 0.47784 0.67373 0.0
C126 C 0.90651 0.47582 0.63509 0.0
C127 C 0.97165 0.33149 0.60722 0.0
C128 C -0.00519 0.33242 0.64757 0.0
C129 C 0.90476 0.40444 0.55709 0.0
O130 O 0.64614 0.2806 0.62901 0.0
O131 O 0.60858 0.14444 0.62036 0.0
O132 O 0.81404 0.10627 0.49775 0.0
O133 O 0.84163 0.18414 0.55474 0.0
O134 O 0.51001 0.1178 0.55086 0.0
O135 O 0.6663 0.05176 0.48736 0.0
O136 O 0.7512 0.23458 0.44472 0.0
O137 O 0.89473 0.28694 0.43943 0.0
O138 O 0.71185 0.37872 0.51839 0.0
O139 O 0.56901 0.28406 0.55581 0.0
C140 C 0.60505 0.2057 0.65303 0.0
O141 O 0.95442 0.34712 0.51377 0.0
O142 O 0.80068 0.41487 0.5816 0.0
C143 C 0.8573 0.11496 0.52483 0.0
C144 C 0.54918 0.05559 0.46138 0.0
C145 C 0.52265 0.04509 0.3713 0.0
C146 C 0.60914 0.00119 0.36349 0.0
C147 C 0.62178 0.00589 0.40817 0.0
C148 C 0.46277 0.09985 0.4691 0.0
C149 C 0.44985 0.09478 0.42446 0.0
C150 C 0.5642 0.05967 0.50826 0.0
C151 C 0.85038 0.26859 0.41353 0.0
H152 H 0.91868 0.53564 0.6984 0.0
H153 H 0.86928 0.53115 0.6322 0.0
H154 H 0.98627 0.27395 0.58224 0.0
H155 H 0.02357 0.27456 0.65373 0.0
H156 H 0.66613 0.96219 0.32316 0.0
H157 H 0.68848 0.97023 0.4011 0.0
H158 H 0.40512 0.13847 0.50955 0.0
H159 H 0.3834 0.13042 0.43128 0.0
C160 C 0.51481 0.55587 0.99731 0.0
C161 C 0.56275 0.54384 0.02547 0.0
C162 C 0.4532 0.49186 0.99701 0.0
C163 C 0.43918 0.41294 0.02366 0.0
H164 H 0.52295 0.61572 0.97618 0.0
H165 H 0.41617 0.50425 0.97577 0.0
S166 S 0.54623 0.348 0.10335 0.0
N167 N 0.59125 0.44596 0.08088 0.0
N168 N 0.47594 0.32552 0.07941 0.0
C169 C 0.48768 0.39909 0.05105 0.0
C170 C 0.54943 0.4646 0.05216 0.0
C171 C 0.4076 0.46295 0.52425 0.0
C172 C 0.4316 0.54974 0.52019 0.0
C173 C 0.46613 0.40247 0.52989 0.0
C174 C 0.54998 0.42626 0.53261 0.0
H175 H 0.34329 0.44123 0.5228 0.0
H176 H 0.44612 0.33639 0.53141 0.0
S177 S 0.64262 0.64556 0.52616 0.0
N178 N 0.54451 0.65651 0.52019 0.0
N179 N 0.65321 0.54291 0.53167 0.0
C180 C 0.57497 0.51282 0.52865 0.0
C181 C 0.51601 0.57448 0.52235 0.0
C182 C 0.06792 0.96688 0.02959 0.0
C183 C 0.04208 0.0531 0.03501 0.0
C184 C 0.00931 0.90636 0.02378 0.0
C185 C 0.92187 0.92984 0.02385 0.0
H186 H 0.13577 0.94618 0.02823 0.0
H187 H 0.03263 0.84061 0.01952 0.0
S188 S 0.81925 0.14827 0.03968 0.0
N189 N 0.92127 0.15919 0.04255 0.0
N190 N 0.81146 0.04598 0.03113 0.0
C191 C 0.89414 0.01606 0.03035 0.0
C192 C 0.95423 0.07753 0.036 0.0
C193 C 0.98397 0.06042 0.54339 0.0
C194 C 0.92099 0.04492 0.52433 0.0
C195 C 0.04013 -0.00485 0.54703 0.0
C196 C 0.0365 0.91164 0.53123 0.0
H197 H 0.99003 0.12359 0.55582 0.0
H198 H 0.08859 0.01084 0.56113 0.0
S199 S 0.87836 0.83606 0.48179 0.0
N200 N 0.85489 0.93882 0.49169 0.0
N201 N 0.96095 0.81616 0.49807 0.0
C202 C 0.97295 0.89485 0.51261 0.0
C203 C 0.91559 0.96148 0.50897 0.0
C204 C 0.5998 0.05254 0.26138 0.0
C205 C 0.50847 0.03888 0.32406 0.0
C206 C 0.58691 0.04962 0.21647 0.0
C207 C 0.48247 0.03215 0.23255 0.0
H208 H 0.68139 0.06713 0.24707 0.0
H209 H 0.65915 0.06099 0.1689 0.0
S210 S 0.21908 -0.01167 0.38937 0.0
N211 N 0.31159 0.00361 0.39921 0.0
N212 N 0.28691 0.00048 0.31529 0.0
C213 C 0.3913 0.01709 0.29484 0.0
C214 C 0.40433 0.02001 0.34043 0.0
C215 C 0.59172 0.81077 0.23607 0.0
C216 C 0.54157 0.78449 0.21099 0.0
C217 C 0.5315 0.8114 0.29988 0.0
C218 C 0.42002 0.78454 0.34022 0.0
H219 H 0.67925 0.82811 0.20606 0.0
H220 H 0.57412 0.82795 0.31741 0.0
S221 S 0.24621 0.72018 0.29897 0.0
N222 N 0.37068 0.739 0.2322 0.0
N223 N 0.25798 0.7397 0.35203 0.0
C224 C 0.36695 0.76352 0.31613 0.0
C225 C 0.42763 0.7637 0.25141 0.0
C226 C 0.38344 0.89497 0.8409 0.0
C227 C 0.4886 0.91068 0.82427 0.0
C228 C 0.36899 0.89599 0.79668 0.0
C229 C 0.45933 0.91202 0.73418 0.0
H230 H 0.31162 0.88275 0.8885 0.0
H231 H 0.28663 0.88342 0.81145 0.0
S232 S 0.7506 0.9573 0.66771 0.0
N233 N 0.6842 0.94159 0.74135 0.0
N234 N 0.65665 0.94601 0.65854 0.0
C235 C 0.56462 0.9279 0.71716 0.0
C236 C 0.57924 0.92678 0.76212 0.0
C237 C 0.46888 0.13536 0.75661 0.0
C238 C 0.55779 0.19197 0.71756 0.0
C239 C 0.41653 0.1302 0.81963 0.0
C240 C 0.45232 0.18125 0.84494 0.0
H241 H 0.43581 0.09847 0.73916 0.0
H242 H 0.3435 0.09034 0.8493 0.0
S243 S 0.69059 0.33002 0.76135 0.0
N244 N 0.68694 0.29242 0.70811 0.0
N245 N 0.58703 0.28336 0.82608 0.0
C246 C 0.54513 0.2336 0.80578 0.0
C247 C 0.59836 0.23882 0.74213 0.0
C248 C 0.90013 0.51452 0.28492 0.0
C249 C 0.9901 0.53277 0.22275 0.0
C250 C 0.91461 0.51186 0.32903 0.0
C251 C 0.01982 0.5265 0.31254 0.0
H252 H 0.81711 0.5045 0.29999 0.0
H253 H 0.84274 0.49892 0.37652 0.0
S254 S 0.28303 0.5727 0.1559 0.0
N255 N 0.18915 0.56141 0.14666 0.0
N256 N 0.21572 0.55776 0.22984 0.0
C257 C 0.11099 0.54227 0.2504 0.0
C258 C 0.09627 0.54523 0.20549 0.0
C259 C 0.02902 0.29719 0.30718 0.0
C260 C 0.91317 0.28346 0.34685 0.0
C261 C 0.09201 0.29788 0.24317 0.0
C262 C 0.04152 0.28499 0.21644 0.0
H263 H 0.07232 0.3034 0.3254 0.0
H264 H 0.18174 0.30538 0.2143 0.0
S265 S 0.73933 0.25618 0.2998 0.0
N266 N 0.74871 0.26602 0.35451 0.0
N267 N 0.86837 0.26422 0.23435 0.0
C268 C 0.92516 0.2767 0.25544 0.0
C269 C 0.86069 0.27657 0.32062 0.0
C270 C 0.93127 0.45126 0.78014 0.0
C271 C 0.00354 0.40822 0.72335 0.0
C272 C 0.95095 0.45252 0.82211 0.0
C273 C 0.04245 0.40967 0.80937 0.0
H274 H 0.85742 0.48297 0.79307 0.0
H275 H 0.89296 0.48576 0.86538 0.0
S276 S 0.26063 0.29192 0.66734 0.0
N277 N 0.17552 0.32653 0.65566 0.0
N278 N 0.2078 0.32556 0.73654 0.0
C279 C 0.11592 0.36722 0.75312 0.0
C280 C 0.09759 0.36722 0.70966 0.0
C281 C 0.09909 0.66847 0.73387 0.0
C282 C 0.04314 0.68221 0.71032 0.0
C283 C 0.04239 0.67232 0.79714 0.0
C284 C 0.92786 0.68928 0.83892 0.0
H285 H 0.18859 0.65854 0.70296 0.0
H286 H 0.08966 0.66756 0.81299 0.0
S287 S 0.7406 0.72373 0.80219 0.0
N288 N 0.86514 0.70898 0.73454 0.0
N289 N 0.75825 0.71498 0.85374 0.0
C290 C 0.86962 0.69887 0.81656 0.0
C291 C 0.92725 0.69508 0.75212 0.0
loop_
_geom_bond_atom_site_label_1
_geom_bond_atom_site_label_2
_geom_bond_distance
_geom_bond_site_symmetry_2
_ccdc_geom_bond_type
Tb0 C9 2.764 1_554 S
Tb0 O10 2.325 1_554 S
Tb0 O13 2.303 . S
Tb0 O17 2.322 . S
Tb0 O18 2.349 . S
Tb0 O21 2.415 1_554 S
Tb0 O22 2.399 1_554 S
Tb1 O11 2.322 1_554 S
Tb1 O12 2.349 . S
Tb1 O14 2.415 . S
Tb1 O15 2.399 . S
Tb1 O16 2.325 . S
Tb1 O19 2.303 . S
Tb1 C30 2.764 . S
C2 O18 1.261 . S
C2 O19 1.257 . S
C3 C6 1.358 . S
C3 C7 1.332 . S
C3 C9 1.504 . S
C4 C5 1.373 . S
C4 C8 1.308 . S
C5 C4 1.373 . S
C5 C6 1.429 . S
C5 H32 0.932 . S
C6 C3 1.358 . S
C6 C5 1.429 . S
C6 H33 0.930 . S
C7 C3 1.332 . S
C7 C8 1.394 . S
C7 H34 0.932 . S
C8 C4 1.308 . S
C8 C7 1.394 . S
C8 H35 0.929 . S
C9 Tb0 2.764 1_556 S
C9 C3 1.504 . S
C9 O21 1.239 . S
C9 O22 1.263 . S
O10 Tb0 2.325 1_556 S
O10 C20 1.236 . S
O11 Tb1 2.322 1_556 S
O11 C20 1.257 . S
O12 Tb1 2.349 . S
O12 C23 1.261 . S
O13 Tb0 2.303 . S
O13 C23 1.257 . S
O14 Tb1 2.415 . S
O14 C30 1.239 . S
O15 Tb1 2.399 . S
O15 C30 1.263 . S
O16 Tb1 2.325 . S
O16 C31 1.236 . S
O17 Tb0 2.322 . S
O17 C31 1.257 . S
O18 Tb0 2.349 . S
O18 C2 1.261 . S
O19 Tb1 2.303 . S
O19 C2 1.257 . S
C20 O10 1.236 . S
C20 O11 1.257 . S
O21 Tb0 2.415 1_556 S
O21 C9 1.239 . S
O22 Tb0 2.399 1_556 S
O22 C9 1.263 . S
C23 O12 1.261 . S
C23 O13 1.257 . S
C24 C27 1.358 . S
C24 C28 1.332 . S
C24 C30 1.504 . S
C25 C26 1.373 . S
C25 C29 1.308 . S
C26 C25 1.373 . S
C26 C27 1.429 . S
C26 H36 0.932 1_545 S
C27 C24 1.358 . S
C27 C26 1.429 . S
C27 H37 0.930 1_545 S
C28 C24 1.332 . S
C28 C29 1.394 . S
C28 H38 0.932 . S
C29 C25 1.308 . S
C29 C28 1.394 . S
C29 H39 0.929 . S
C30 Tb1 2.764 . S
C30 O14 1.239 . S
C30 O15 1.263 . S
C30 C24 1.504 . S
C31 O16 1.236 . S
C31 O17 1.257 . S
H32 C5 0.932 . S
H33 C6 0.930 . S
H34 C7 0.932 . S
H35 C8 0.929 . S
H36 C26 0.932 1_565 S
H37 C27 0.930 1_565 S
H38 C28 0.932 . S
H39 C29 0.929 . S
Tb40 C49 2.764 1_554 S
Tb40 O50 2.325 1_554 S
Tb40 O53 2.303 . S
Tb40 O57 2.322 . S
Tb40 O58 2.349 . S
Tb40 O61 2.415 1_554 S
Tb40 O62 2.399 1_554 S
Tb41 O51 2.322 1_554 S
Tb41 O52 2.349 . S
Tb41 O54 2.415 . S
Tb41 O55 2.399 . S
Tb41 O56 2.325 . S
Tb41 O59 2.303 . S
Tb41 C70 2.764 . S
C42 O58 1.261 . S
C42 O59 1.257 . S
C43 C46 1.358 . S
C43 C47 1.332 . S
C43 C49 1.504 . S
C44 C45 1.373 . S
C44 C48 1.308 . S
C45 C44 1.373 . S
C45 C46 1.429 . S
C45 H72 0.932 1_565 S
C46 C43 1.358 . S
C46 C45 1.429 . S
C46 H73 0.930 1_565 S
C47 C43 1.332 . S
C47 C48 1.394 . S
C47 H74 0.932 . S
C48 C44 1.308 . S
C48 C47 1.394 . S
C48 H75 0.929 . S
C49 Tb40 2.764 1_556 S
C49 C43 1.504 . S
C49 O61 1.239 . S
C49 O62 1.263 . S
O50 Tb40 2.325 1_556 S
O50 C60 1.236 . S
O51 Tb41 2.322 1_556 S
O51 C60 1.257 . S
O52 Tb41 2.349 . S
O52 C63 1.261 . S
O53 Tb40 2.303 . S
O53 C63 1.257 . S
O54 Tb41 2.415 . S
O54 C70 1.239 . S
O55 Tb41 2.399 . S
O55 C70 1.263 . S
O56 Tb41 2.325 . S
O56 C71 1.236 . S
O57 Tb40 2.322 . S
O57 C71 1.257 . S
O58 Tb40 2.349 . S
O58 C42 1.261 . S
O59 Tb41 2.303 . S
O59 C42 1.257 . S
C60 O50 1.236 . S
C60 O51 1.257 . S
O61 Tb40 2.415 1_556 S
O61 C49 1.239 . S
O62 Tb40 2.399 1_556 S
O62 C49 1.263 . S
C63 O52 1.261 . S
C63 O53 1.257 . S
C64 C67 1.358 . S
C64 C68 1.332 . S
C64 C70 1.504 . S
C65 C66 1.373 . S
C65 C69 1.308 . S
C66 C65 1.373 . S
C66 C67 1.429 . S
C66 H76 0.932 . S
C67 C64 1.358 . S
C67 C66 1.429 . S
C67 H77 0.930 . S
C68 C64 1.332 . S
C68 C69 1.394 . S
C68 H78 0.932 . S
C69 C65 1.308 . S
C69 C68 1.394 . S
C69 H79 0.929 . S
C70 Tb41 2.764 . S
C70 O54 1.239 . S
C70 O55 1.263 . S
C70 C64 1.504 . S
C71 O56 1.236 . S
C71 O57 1.257 . S
H72 C45 0.932 1_545 S
H73 C46 0.930 1_545 S
H74 C47 0.932 . S
H75 C48 0.929 . S
H76 C66 0.932 . S
H77 C67 0.930 . S
H78 C68 0.932 . S
H79 C69 0.929 . S
Tb80 C89 2.764 . S
Tb80 O90 2.325 . S
Tb80 O93 2.303 . S
Tb80 O97 2.322 . S
Tb80 O98 2.349 . S
Tb80 O101 2.415 . S
Tb80 O102 2.399 . S
Tb81 O91 2.322 . S
Tb81 O92 2.349 . S
Tb81 O94 2.415 . S
Tb81 O95 2.399 . S
Tb81 O96 2.325 . S
Tb81 O99 2.303 . S
Tb81 C110 2.764 . S
C82 O98 1.261 . S
C82 O99 1.257 . S
C83 C86 1.358 . S
C83 C87 1.332 . S
C83 C89 1.504 . S
C84 C85 1.373 . S
C84 C88 1.308 . S
C85 C84 1.373 . S
C85 C86 1.429 . S
C85 H112 0.932 1_565 S
C86 C83 1.358 . S
C86 C85 1.429 . S
C86 H113 0.930 1_565 S
C87 C83 1.332 . S
C87 C88 1.394 . S
C87 H114 0.932 . S
C88 C84 1.308 . S
C88 C87 1.394 . S
C88 H115 0.929 . S
C89 Tb80 2.764 . S
C89 C83 1.504 . S
C89 O101 1.239 . S
C89 O102 1.263 . S
O90 Tb80 2.325 . S
O90 C100 1.236 . S
O91 Tb81 2.322 . S
O91 C100 1.257 . S
O92 Tb81 2.349 . S
O92 C103 1.261 . S
O93 Tb80 2.303 . S
O93 C103 1.257 . S
O94 Tb81 2.415 . S
O94 C110 1.239 . S
O95 Tb81 2.399 . S
O95 C110 1.263 . S
O96 Tb81 2.325 . S
O96 C111 1.236 . S
O97 Tb80 2.322 . S
O97 C111 1.257 . S
O98 Tb80 2.349 . S
O98 C82 1.261 . S
O99 Tb81 2.303 . S
O99 C82 1.257 . S
C100 O90 1.236 . S
C100 O91 1.257 . S
O101 Tb80 2.415 . S
O101 C89 1.239 . S
O102 Tb80 2.399 . S
O102 C89 1.263 . S
C103 O92 1.261 . S
C103 O93 1.257 . S
C104 C107 1.358 . S
C104 C108 1.332 . S
C104 C110 1.504 . S
C105 C106 1.373 . S
C105 C109 1.308 . S
C106 C105 1.373 . S
C106 C107 1.429 . S
C106 H116 0.932 . S
C107 C104 1.358 . S
C107 C106 1.429 . S
C107 H117 0.930 . S
C108 C104 1.332 . S
C108 C109 1.394 . S
C108 H118 0.932 . S
C109 C105 1.308 . S
C109 C108 1.394 . S
C109 H119 0.929 . S
C110 Tb81 2.764 . S
C110 O94 1.239 . S
C110 O95 1.263 . S
C110 C104 1.504 . S
C111 O96 1.236 . S
C111 O97 1.257 . S
H112 C85 0.932 1_545 S
H113 C86 0.930 1_545 S
H114 C87 0.932 . S
H115 C88 0.929 . S
H116 C106 0.932 . S
H117 C107 0.930 . S
H118 C108 0.932 . S
H119 C109 0.929 . S
Tb120 C129 2.764 . S
Tb120 O130 2.325 . S
Tb120 O133 2.303 . S
Tb120 O137 2.322 . S
Tb120 O138 2.349 . S
Tb120 O141 2.415 . S
Tb120 O142 2.399 . S
Tb121 O131 2.322 . S
Tb121 O132 2.349 . S
Tb121 O134 2.415 . S
Tb121 O135 2.399 . S
Tb121 O136 2.325 . S
Tb121 O139 2.303 . S
Tb121 C150 2.764 . S
C122 O138 1.261 . S
C122 O139 1.257 . S
C123 C126 1.358 . S
C123 C127 1.332 . S
C123 C129 1.504 . S
C124 C125 1.373 . S
C124 C128 1.308 . S
C125 C124 1.373 . S
C125 C126 1.429 . S
C125 H152 0.932 . S
C126 C123 1.358 . S
C126 C125 1.429 . S
C126 H153 0.930 . S
C127 C123 1.332 . S
C127 C128 1.394 . S
C127 H154 0.932 . S
C128 C124 1.308 . S
C128 C127 1.394 . S
C128 H155 0.929 . S
C129 Tb120 2.764 . S
C129 C123 1.504 . S
C129 O141 1.239 . S
C129 O142 1.263 . S
O130 Tb120 2.325 . S
O130 C140 1.236 . S
O131 Tb121 2.322 . S
O131 C140 1.257 . S
O132 Tb121 2.349 . S
O132 C143 1.261 . S
O133 Tb120 2.303 . S
O133 C143 1.257 . S
O134 Tb121 2.415 . S
O134 C150 1.239 . S
O135 Tb121 2.399 . S
O135 C150 1.263 . S
O136 Tb121 2.325 . S
O136 C151 1.236 . S
O137 Tb120 2.322 . S
O137 C151 1.257 . S
O138 Tb120 2.349 . S
O138 C122 1.261 . S
O139 Tb121 2.303 . S
O139 C122 1.257 . S
C140 O130 1.236 . S
C140 O131 1.257 . S
O141 Tb120 2.415 . S
O141 C129 1.239 . S
O142 Tb120 2.399 . S
O142 C129 1.263 . S
C143 O132 1.261 . S
C143 O133 1.257 . S
C144 C147 1.358 . S
C144 C148 1.332 . S
C144 C150 1.504 . S
C145 C146 1.373 . S
C145 C149 1.308 . S
C146 C145 1.373 . S
C146 C147 1.429 . S
C146 H156 0.932 1_545 S
C147 C144 1.358 . S
C147 C146 1.429 . S
C147 H157 0.930 1_545 S
C148 C144 1.332 . S
C148 C149 1.394 . S
C148 H158 0.932 . S
C149 C145 1.308 . S
C149 C148 1.394 . S
C149 H159 0.929 . S
C150 Tb121 2.764 . S
C150 O134 1.239 . S
C150 O135 1.263 . S
C150 C144 1.504 . S
C151 O136 1.236 . S
C151 O137 1.257 . S
H152 C125 0.932 . S
H153 C126 0.930 . S
H154 C127 0.932 . S
H155 C128 0.929 . S
H156 C146 0.932 1_565 S
H157 C147 0.930 1_565 S
H158 C148 0.932 . S
H159 C149 0.929 . S
C160 C161 1.369 1_556 S
C160 C162 1.419 . S
C160 H164 0.930 . S
C161 C160 1.369 1_554 S
C161 C170 1.429 . S
C162 C160 1.419 . S
C162 C163 1.363 1_556 S
C162 H165 0.929 . S
C163 C162 1.363 1_554 S
C163 C169 1.428 . S
H164 C160 0.930 . S
H165 C162 0.929 . S
S166 N167 1.613 . S
S166 N168 1.610 . S
N167 S166 1.613 . S
N167 C170 1.350 . S
N168 S166 1.610 . S
N168 C169 1.351 . S
C169 C163 1.428 . S
C169 N168 1.351 . S
C169 C170 1.434 . S
C170 C161 1.429 . S
C170 N167 1.350 . S
C170 C169 1.434 . S
C171 C172 1.369 . S
C171 C173 1.419 . S
C171 H175 0.930 . S
C172 C171 1.369 . S
C172 C181 1.429 . S
C173 C171 1.419 . S
C173 C174 1.363 . S
C173 H176 0.929 . S
C174 C173 1.363 . S
C174 C180 1.428 . S
H175 C171 0.930 . S
H176 C173 0.929 . S
S177 N178 1.613 . S
S177 N179 1.610 . S
N178 S177 1.613 . S
N178 C181 1.350 . S
N179 S177 1.610 . S
N179 C180 1.351 . S
C180 C174 1.428 . S
C180 N179 1.351 . S
C180 C181 1.434 . S
C181 C172 1.429 . S
C181 N178 1.350 . S
C181 C180 1.434 . S
C182 C183 1.369 1_566 S
C182 C184 1.419 . S
C182 H186 0.930 . S
C183 C182 1.369 1_544 S
C183 C192 1.429 1_455 S
C184 C182 1.419 . S
C184 C185 1.363 1_456 S
C184 H187 0.929 . S
C185 C184 1.363 1_654 S
C185 C191 1.428 1_565 S
H186 C182 0.930 . S
H187 C184 0.929 . S
S188 N189 1.613 . S
S188 N190 1.610 . S
N189 S188 1.613 . S
N189 C192 1.350 . S
N190 S188 1.610 . S
N190 C191 1.351 . S
C191 C185 1.428 1_545 S
C191 N190 1.351 . S
C191 C192 1.434 . S
C192 C183 1.429 1_655 S
C192 N189 1.350 . S
C192 C191 1.434 . S
C193 C194 1.369 . S
C193 C195 1.419 1_655 S
C193 H197 0.930 . S
C194 C193 1.369 . S
C194 C203 1.429 1_545 S
C195 C193 1.419 1_455 S
C195 C196 1.363 1_545 S
C195 H198 0.929 . S
C196 C195 1.363 1_565 S
C196 C202 1.428 . S
H197 C193 0.930 . S
H198 C195 0.929 . S
S199 N200 1.613 . S
S199 N201 1.610 1_655 S
N200 S199 1.613 . S
N200 C203 1.350 . S
N201 S199 1.610 1_455 S
N201 C202 1.351 . S
C202 C196 1.428 . S
C202 N201 1.351 . S
C202 C203 1.434 1_455 S
C203 C194 1.429 1_565 S
C203 N200 1.350 . S
C203 C202 1.434 1_655 S
C204 C205 1.369 . S
C204 C206 1.419 . S
C204 H208 0.930 . S
C205 C204 1.369 . S
C205 C214 1.429 . S
C206 C204 1.419 . S
C206 C207 1.363 . S
C206 H209 0.929 . S
C207 C206 1.363 . S
C207 C213 1.428 . S
H208 C204 0.930 . S
H209 C206 0.929 . S
S210 N211 1.613 . S
S210 N212 1.610 . S
N211 S210 1.613 . S
N211 C214 1.350 1_565 S
N212 S210 1.610 . S
N212 C213 1.351 1_565 S
C213 C207 1.428 . S
C213 N212 1.351 1_545 S
C213 C214 1.434 . S
C214 C205 1.429 . S
C214 N211 1.350 1_545 S
C214 C213 1.434 . S
C215 C216 1.369 . S
C215 C217 1.419 . S
C215 H219 0.930 . S
C216 C215 1.369 . S
C216 C225 1.429 . S
C217 C215 1.419 . S
C217 C218 1.363 . S
C217 H220 0.929 . S
C218 C217 1.363 . S
C218 C224 1.428 . S
H219 C215 0.930 . S
H220 C217 0.929 . S
S221 N222 1.613 . S
S221 N223 1.610 . S
N222 S221 1.613 . S
N222 C225 1.350 . S
N223 S221 1.610 . S
N223 C224 1.351 . S
C224 C218 1.428 . S
C224 N223 1.351 . S
C224 C225 1.434 . S
C225 C216 1.429 . S
C225 N222 1.350 . S
C225 C224 1.434 . S
C226 C227 1.369 . S
C226 C228 1.419 . S
C226 H230 0.930 . S
C227 C226 1.369 . S
C227 C236 1.429 1_565 S
C228 C226 1.419 . S
C228 C229 1.363 . S
C228 H231 0.929 . S
C229 C228 1.363 . S
C229 C235 1.428 1_565 S
H230 C226 0.930 . S
H231 C228 0.929 . S
S232 N233 1.613 . S
S232 N234 1.610 . S
N233 S232 1.613 . S
N233 C236 1.350 . S
N234 S232 1.610 . S
N234 C235 1.351 . S
C235 C229 1.428 1_545 S
C235 N234 1.351 . S
C235 C236 1.434 . S
C236 C227 1.429 1_545 S
C236 N233 1.350 . S
C236 C235 1.434 . S
C237 C238 1.369 . S
C237 C239 1.419 . S
C237 H241 0.930 . S
C238 C237 1.369 . S
C238 C247 1.429 . S
C239 C237 1.419 . S
C239 C240 1.363 . S
C239 H242 0.929 . S
C240 C239 1.363 . S
C240 C246 1.428 . S
H241 C237 0.930 . S
H242 C239 0.929 . S
S243 N244 1.613 . S
S243 N245 1.610 . S
N244 S243 1.613 . S
N244 C247 1.350 . S
N245 S243 1.610 . S
N245 C246 1.351 . S
C246 C240 1.428 . S
C246 N245 1.351 . S
C246 C247 1.434 . S
C247 C238 1.429 . S
C247 N244 1.350 . S
C247 C246 1.434 . S
C248 C249 1.369 1_655 S
C248 C250 1.419 . S
C248 H252 0.930 . S
C249 C248 1.369 1_455 S
C249 C258 1.429 . S
C250 C248 1.419 . S
C250 C251 1.363 . S
C250 H253 0.929 . S
C251 C250 1.363 . S
C251 C257 1.428 1_655 S
H252 C248 0.930 . S
H253 C250 0.929 . S
S254 N255 1.613 . S
S254 N256 1.610 . S
N255 S254 1.613 . S
N255 C258 1.350 . S
N256 S254 1.610 . S
N256 C257 1.351 . S
C257 C251 1.428 1_455 S
C257 N256 1.351 . S
C257 C258 1.434 . S
C258 C249 1.429 . S
C258 N255 1.350 . S
C258 C257 1.434 . S
C259 C260 1.369 1_455 S
C259 C261 1.419 . S
C259 H263 0.930 . S
C260 C259 1.369 1_655 S
C260 C269 1.429 . S
C261 C259 1.419 . S
C261 C262 1.363 . S
C261 H264 0.929 . S
C262 C261 1.363 . S
C262 C268 1.428 1_455 S
H263 C259 0.930 . S
H264 C261 0.929 . S
S265 N266 1.613 . S
S265 N267 1.610 . S
N266 S265 1.613 . S
N266 C269 1.350 . S
N267 S265 1.610 . S
N267 C268 1.351 . S
C268 C262 1.428 1_655 S
C268 N267 1.351 . S
C268 C269 1.434 . S
C269 C260 1.429 . S
C269 N266 1.350 . S
C269 C268 1.434 . S
C270 C271 1.369 1_655 S
C270 C272 1.419 . S
C270 H274 0.930 . S
C271 C270 1.369 1_455 S
C271 C280 1.429 . S
C272 C270 1.419 . S
C272 C273 1.363 . S
C272 H275 0.929 . S
C273 C272 1.363 . S
C273 C279 1.428 1_655 S
H274 C270 0.930 . S
H275 C272 0.929 . S
S276 N277 1.613 . S
S276 N278 1.610 . S
N277 S276 1.613 . S
N277 C280 1.350 . S
N278 S276 1.610 . S
N278 C279 1.351 . S
C279 C273 1.428 1_455 S
C279 N278 1.351 . S
C279 C280 1.434 . S
C280 C271 1.429 . S
C280 N277 1.350 . S
C280 C279 1.434 . S
C281 C282 1.369 . S
C281 C283 1.419 . S
C281 H285 0.930 . S
C282 C281 1.369 . S
C282 C291 1.429 1_455 S
C283 C281 1.419 . S
C283 C284 1.363 1_455 S
C283 H286 0.929 . S
C284 C283 1.363 1_655 S
C284 C290 1.428 . S
H285 C281 0.930 . S
H286 C283 0.929 . S
S287 N288 1.613 . S
S287 N289 1.610 . S
N288 S287 1.613 . S
N288 C291 1.350 . S
N289 S287 1.610 . S
N289 C290 1.351 . S
C290 C284 1.428 . S
C290 N289 1.351 . S
C290 C291 1.434 . S
C291 C282 1.429 1_655 S
C291 N288 1.350 . S
C291 C290 1.434 . S
C161 C63 1.733 . S
C163 C2 1.731 . S
C172 C103 1.732 . S
C174 C122 1.731 . S
C183 C23 1.732 . S
C185 C42 1.732 . S
C194 C143 1.733 . S
C196 C82 1.731 . S
C205 C145 1.304 . S
C207 C25 1.299 . S
C216 C71 1.680 . S
C218 C111 1.677 . S
C227 C44 1.303 . S
C229 C84 1.302 . S
C238 C140 1.675 . S
C240 C20 1.677 . S
C249 C65 1.301 1_455 S
C251 C105 1.295 1_655 S
C260 C151 1.675 . S
C262 C31 1.677 . S
C271 C124 1.297 1_455 S
C273 C4 1.295 1_655 S
C282 C100 1.676 . S
C284 C60 1.676 . S
