# Generated by pormake.
# Topology sml, (6)-cn, num edge types: 1
# Building blocks:
#     Node 0, Type 0, BuildingBlock: CUKXOW_clean_sbu_0, # of connection points: 6
#     Node 1, Type 0, BuildingBlock: CUKXOW_clean_sbu_0, # of connection points: 6
#     Node 2, Type 0, BuildingBlock: CUKXOW_clean_sbu_0, # of connection points: 6
#     Node 3, Type 0, BuildingBlock: CUKXOW_clean_sbu_0, # of connection points: 6
#     Node 4, Type 0, BuildingBlock: CUKXOW_clean_sbu_0, # of connection points: 6
#     Node 5, Type 0, BuildingBlock: CUKXOW_clean_sbu_0, # of connection points: 6
#     Edge 6, Type (0, 0), BuildingBlock: FUNLAD_clean_linker_0, # of connection points: 2
#     Edge 7, Type (0, 0), BuildingBlock: FUNLAD_clean_linker_0, # of connection points: 2
#     Edge 8, Type (0, 0), BuildingBlock: FUNLAD_clean_linker_0, # of connection points: 2
#     Edge 9, Type (0, 0), BuildingBlock: FUNLAD_clean_linker_0, # of connection points: 2
#     Edge 10, Type (0, 0), BuildingBlock: FUNLAD_clean_linker_0, # of connection points: 2
#     Edge 11, Type (0, 0), BuildingBlock: FUNLAD_clean_linker_0, # of connection points: 2
#     Edge 12, Type (0, 0), BuildingBlock: FUNLAD_clean_linker_0, # of connection points: 2
#     Edge 13, Type (0, 0), BuildingBlock: FUNLAD_clean_linker_0, # of connection points: 2
#     Edge 14, Type (0, 0), BuildingBlock: FUNLAD_clean_linker_0, # of connection points: 2
#     Edge 15, Type (0, 0), BuildingBlock: FUNLAD_clean_linker_0, # of connection points: 2
#     Edge 16, Type (0, 0), BuildingBlock: FUNLAD_clean_linker_0, # of connection points: 2
#     Edge 17, Type (0, 0), BuildingBlock: FUNLAD_clean_linker_0, # of connection points: 2
#     Edge 18, Type (0, 0), BuildingBlock: FUNLAD_clean_linker_0, # of connection points: 2
#     Edge 19, Type (0, 0), BuildingBlock: FUNLAD_clean_linker_0, # of connection points: 2
#     Edge 20, Type (0, 0), BuildingBlock: FUNLAD_clean_linker_0, # of connection points: 2
#     Edge 21, Type (0, 0), BuildingBlock: FUNLAD_clean_linker_0, # of connection points: 2
#     Edge 22, Type (0, 0), BuildingBlock: FUNLAD_clean_linker_0, # of connection points: 2
#     Edge 23, Type (0, 0), BuildingBlock: FUNLAD_clean_linker_0, # of connection points: 2
# Relax obj value: 0.143
# Max RMSD: 0.192
# Mean RMSD: 0.191
data_MOF--net-sml--node1-CUKXOW_clean_sbu_0--edge1-FUNLAD_clean_linker_0
_symmetry_space_group_name_H-M    P1
_symmetry_Int_Tables_number       1
_symmetry_cell_setting            triclinic
loop_
_symmetry_equiv_pos_as_xyz
'x, y, z'
_cell_length_a     49.357071
_cell_length_b     49.237575
_cell_length_c     16.707914
_cell_angle_alpha  90.115832
_cell_angle_beta   90.291636
_cell_angle_gamma 120.27599
loop_
_atom_site_label
_atom_site_type_symbol
_atom_site_fract_x
_atom_site_fract_y
_atom_site_fract_z
_atom_type_partial_charge
Tb0 Tb 0.19452 0.3884 0.99385 0.0
C1 C 0.12715 0.3741 1.03371 0.0
Tb2 Tb 0.1859 0.44394 1.03179 0.0
O3 O 0.1832 0.37205 0.11701 0.0
O4 O 0.20551 0.42005 0.0915 0.0
O5 O 0.14339 0.36378 0.99357 0.0
C6 C 0.17252 0.48559 0.09559 0.0
O7 O 0.14008 0.40354 0.06021 0.0
C8 C 0.18789 0.43255 0.87975 0.0
C9 C 0.25367 0.45857 0.99484 0.0
O10 O 0.169 0.47721 1.02096 0.0
O11 O 0.18366 0.47055 0.13455 0.0
O12 O 0.19798 0.46049 0.90901 0.0
O13 O 0.17504 0.41237 0.93408 0.0
O14 O 0.23669 0.46875 1.03171 0.0
O15 O 0.24147 0.42894 0.96976 0.0
C16 C 0.20787 0.34634 0.93245 0.0
O17 O 0.20606 0.3513 1.0078 0.0
O18 O 0.20221 0.3652 0.89084 0.0
C19 C 0.1931 0.39994 0.14613 0.0
Tb20 Tb 0.80128 0.20251 0.36335 0.0
C21 C 0.74707 0.1327 0.38559 0.0
Tb22 Tb 0.73424 0.18923 0.40935 0.0
O23 O 0.80705 0.18708 0.48143 0.0
O24 O 0.77854 0.20671 0.46748 0.0
O25 O 0.77449 0.15138 0.35043 0.0
C26 C 0.68387 0.18229 0.48533 0.0
O27 O 0.72986 0.14318 0.42044 0.0
C28 C 0.73986 0.18668 0.25153 0.0
C29 C 0.7868 0.25825 0.37541 0.0
O30 O 0.69683 0.1653 0.49827 0.0
O31 O 0.69936 0.20291 0.4306 0.0
O32 O 0.71432 0.18152 0.28665 0.0
O33 O 0.75938 0.19209 0.30638 0.0
O34 O 0.76162 0.24008 0.41854 0.0
O35 O 0.80326 0.24723 0.3394 0.0
C36 C 0.85858 0.22599 0.3025 0.0
O37 O 0.85145 0.23572 0.36683 0.0
O38 O 0.8333 0.20225 0.27243 0.0
C39 C 0.78719 0.19304 0.51647 0.0
Tb40 Tb 0.59836 0.81553 0.71124 0.0
C41 C 0.61584 0.76353 0.75407 0.0
Tb42 Tb 0.54415 0.74559 0.75005 0.0
O43 O 0.60518 0.83382 0.83614 0.0
O44 O 0.57313 0.78827 0.80756 0.0
O45 O 0.62491 0.7911 0.71904 0.0
C46 C 0.50331 0.69153 0.81937 0.0
O47 O 0.5865 0.7437 0.77694 0.0
C48 C 0.55396 0.76164 0.59836 0.0
C49 C 0.52691 0.79828 0.71993 0.0
O50 O 0.51923 0.694 0.75522 0.0
O51 O 0.51057 0.7194 0.8442 0.0
O52 O 0.52719 0.73986 0.62615 0.0
O53 O 0.57421 0.77089 0.65358 0.0
O54 O 0.51873 0.77094 0.75444 0.0
O55 O 0.55555 0.81763 0.69212 0.0
C56 C 0.63711 0.86648 0.62747 0.0
O57 O 0.60833 0.8462 0.60779 0.0
O58 O 0.64414 0.85808 0.69456 0.0
C59 C 0.58445 0.80682 0.86572 0.0
Tb60 Tb 0.78159 0.59882 1.01873 0.0
C61 C 0.84946 0.61204 0.05569 0.0
Tb62 Tb 0.79112 0.54269 0.06719 0.0
O63 O 0.79633 0.61906 0.13841 0.0
O64 O 0.77452 0.57051 0.12261 0.0
O65 O 0.83254 0.62111 1.01308 0.0
C66 C 0.79238 0.49622 0.14564 0.0
O67 O 0.83719 0.58391 0.09006 0.0
C68 C 0.79648 0.55208 0.90962 0.0
C69 C 0.72341 0.52947 1.02449 0.0
O70 O 0.81227 0.52601 0.15668 0.0
O71 O 0.77225 0.49294 0.09094 0.0
O72 O 0.80039 0.53098 0.94577 0.0
O73 O 0.79112 0.56642 0.9637 0.0
O74 O 0.7403 0.52083 0.06809 0.0
O75 O 0.73557 0.55788 0.99244 0.0
C76 C 0.76563 0.63826 0.95382 0.0
O77 O 0.75683 0.62508 1.02332 0.0
O78 O 0.78369 0.6294 0.92055 0.0
C79 C 0.78834 0.59253 0.17312 0.0
Tb80 Tb 0.17478 0.77971 0.36366 0.0
C81 C 0.22923 0.85046 0.39538 0.0
Tb82 Tb 0.24272 0.79433 0.41014 0.0
O83 O 0.15787 0.75495 0.47769 0.0
O84 O 0.20361 0.79226 0.46828 0.0
O85 O 0.20086 0.83155 0.36365 0.0
C86 C 0.2911 0.80119 0.49749 0.0
O87 O 0.24751 0.84022 0.42482 0.0
C88 C 0.23531 0.79257 0.25238 0.0
C89 C 0.18998 0.72474 0.36696 0.0
O90 O 0.29288 0.81928 0.43877 0.0
O91 O 0.26203 0.77936 0.50727 0.0
O92 O 0.26116 0.79824 0.28782 0.0
O93 O 0.21615 0.78847 0.30691 0.0
O94 O 0.2163 0.74319 0.40719 0.0
O95 O 0.17188 0.73496 0.33604 0.0
C96 C 0.12121 0.77097 0.29883 0.0
O97 O 0.13024 0.77929 0.37241 0.0
O98 O 0.14275 0.76835 0.26142 0.0
C99 C 0.18463 0.77109 0.51449 0.0
Tb100 Tb 0.38064 0.17403 0.7194 0.0
C101 C 0.36304 0.22354 0.7762 0.0
Tb102 Tb 0.43407 0.24014 0.76319 0.0
O103 O 0.36465 0.16563 0.84338 0.0
O104 O 0.4121 0.19525 0.81748 0.0
O105 O 0.35347 0.19752 0.73301 0.0
C106 C 0.47527 0.29357 0.83696 0.0
O107 O 0.3925 0.2414 0.80115 0.0
C108 C 0.42267 0.22911 0.60943 0.0
C109 C 0.4522 0.19192 0.70214 0.0
O110 O 0.46092 0.29168 0.77003 0.0
O111 O 0.46624 0.26542 0.86238 0.0
O112 O 0.44997 0.24925 0.63895 0.0
O113 O 0.4028 0.21881 0.66499 0.0
O114 O 0.46154 0.21775 0.7453 0.0
O115 O 0.42259 0.17314 0.67925 0.0
C116 C 0.34114 0.11846 0.6516 0.0
O117 O 0.3573 0.12271 0.71659 0.0
O118 O 0.34715 0.14561 0.6244 0.0
C119 C 0.39214 0.18515 0.87291 0.0
C120 C 0.31205 0.22287 0.75718 0.0
C121 C 0.34037 0.23337 0.79932 0.0
C122 C 0.2916 0.23363 0.77854 0.0
C123 C 0.2991 0.25478 0.84298 0.0
C124 C 0.32696 0.26445 0.88609 0.0
C125 C 0.34746 0.25412 0.86422 0.0
C126 C 0.27858 0.26707 0.86878 0.0
C127 C 0.25912 0.27101 0.8196 0.0
C128 C 0.2424 0.28736 0.84698 0.0
C129 C 0.23701 0.30602 0.793 0.0
C130 C 0.22468 0.32455 0.81983 0.0
C131 C 0.21743 0.32449 0.90098 0.0
H132 H 0.23572 0.2708 0.96981 0.0
C133 C 0.22104 0.30443 0.95387 0.0
C134 C 0.23315 0.28588 0.92713 0.0
H135 H 0.2151 0.30354 1.01653 0.0
H136 H 0.30592 0.20676 0.70711 0.0
H137 H 0.26992 0.22512 0.74523 0.0
H138 H 0.33319 0.28049 0.93639 0.0
H139 H 0.36888 0.26238 0.89864 0.0
H140 H 0.28198 0.27598 0.92975 0.0
H141 H 0.25791 0.26515 0.75649 0.0
H142 H 0.24355 0.30727 0.73074 0.0
H143 H 0.22185 0.33967 0.77778 0.0
C144 C 0.07826 0.36226 0.10514 0.0
C145 C 0.09372 0.35231 0.05273 0.0
C146 C 0.04728 0.342 0.12702 0.0
C147 C 0.03044 0.3112 0.09588 0.0
C148 C 0.0459 0.30106 0.04379 0.0
C149 C 0.07725 0.32142 1.02225 0.0
C150 C -0.00245 0.28889 0.12086 0.0
C151 C 0.97871 0.2989 0.1503 0.0
C152 C 0.94826 0.27829 0.18942 0.0
C153 C 0.94013 0.29078 0.25426 0.0
C154 C 0.9114 0.27312 0.29215 0.0
C155 C 0.88971 0.24278 0.26479 0.0
H156 H 0.93245 0.23754 0.112 0.0
C157 C 0.89763 0.23001 0.1998 0.0
C158 C 0.92694 0.24757 0.16271 0.0
H159 H 0.88114 0.2067 0.17738 0.0
H160 H 0.09026 0.38565 0.13116 0.0
H161 H 0.03715 0.35057 0.17039 0.0
H162 H 0.03374 0.27733 1.01989 0.0
H163 H 0.08857 0.31292 0.98223 0.0
H164 H -0.01077 0.26385 0.11798 0.0
H165 H 0.98672 0.32386 0.15174 0.0
H166 H 0.95613 0.31439 0.27584 0.0
H167 H 0.90587 0.28367 0.34174 0.0
C168 C 0.75477 0.08598 0.39276 0.0
C169 C 0.7347 0.09845 0.38871 0.0
C170 C 0.74246 0.05368 0.4054 0.0
C171 C 0.70985 0.0334 0.41313 0.0
C172 C 0.68991 0.0458 0.40459 0.0
C173 C 0.70217 0.07793 0.39337 0.0
C174 C 0.6954 -0.00056 0.43222 0.0
C175 C 0.7098 0.98731 0.47584 0.0
C176 C 0.69266 0.95478 0.50855 0.0
C177 C 0.70329 0.94836 0.58031 0.0
C178 C 0.68581 0.9192 0.61782 0.0
C179 C 0.65741 0.89587 0.584 0.0
H180 H 0.65682 0.93404 0.4154 0.0
C181 C 0.64763 0.90153 0.51002 0.0
C182 C 0.66517 0.93058 0.4723 0.0
H183 H 0.62608 0.88368 0.48197 0.0
H184 H 0.77996 0.10129 0.38916 0.0
H185 H 0.75848 0.04478 0.40961 0.0
H186 H 0.66472 0.03073 0.40944 0.0
H187 H 0.68607 0.08679 0.38952 0.0
H188 H 0.67062 0.98479 0.41809 0.0
H189 H 0.73375 0.00266 0.49633 0.0
H190 H 0.72454 0.96638 0.60916 0.0
H191 H 0.69398 0.91532 0.6746 0.0
C192 C 0.63078 0.72235 0.76959 0.0
C193 C 0.63956 0.75428 0.7692 0.0
C194 C 0.65269 0.7133 0.78855 0.0
C195 C 0.6837 0.73601 0.80899 0.0
C196 C 0.69252 0.76793 0.80831 0.0
C197 C 0.67077 0.77705 0.78727 0.0
C198 C 0.70609 0.72655 0.83843 0.0
C199 C 0.7071 0.70175 0.80803 0.0
C200 C 0.72559 0.68898 0.8457 0.0
C201 C 0.73858 0.67503 0.79774 0.0
C202 C 0.75319 0.65987 0.83283 0.0
C203 C 0.7541 0.65761 0.91641 0.0
H204 H 0.71722 0.6976 0.96807 0.0
C205 C 0.74154 0.67193 0.96438 0.0
C206 C 0.72765 0.68772 0.92944 0.0
H207 H 0.74185 0.67036 1.02902 0.0
H208 H 0.60686 0.70431 0.75591 0.0
H209 H 0.64499 0.68846 0.79035 0.0
H210 H 0.71619 0.7858 0.82478 0.0
H211 H 0.67808 0.80181 0.78808 0.0
H212 H 0.72188 0.74017 0.88705 0.0
H213 H 0.69354 0.69004 0.75455 0.0
H214 H 0.73696 0.67543 0.7331 0.0
H215 H 0.7625 0.64873 0.79465 0.0
C216 C 0.08116 0.7486 0.18886 0.0
C217 C 0.08921 0.75982 0.26781 0.0
C218 C 0.0498 0.73338 0.16326 0.0
C219 C 0.02591 0.72905 0.21644 0.0
C220 C 0.03428 0.74152 0.29427 0.0
C221 C 0.06561 0.75692 0.31958 0.0
C222 C -0.00796 0.70877 0.1963 0.0
C223 C 0.98029 0.70239 0.12118 0.0
C224 C 0.94675 0.67918 0.10443 0.0
C225 C 0.93119 0.68383 1.03995 0.0
C226 C 0.89957 0.66207 1.02361 0.0
C227 C 0.88317 0.63484 0.07034 0.0
H228 H 0.94194 0.64695 0.19913 0.0
C229 C 0.89908 0.62986 0.1335 0.0
C230 C 0.93042 0.65177 0.15049 0.0
H231 H 0.88724 0.60917 0.17079 0.0
H232 H 0.09891 0.75038 0.14787 0.0
H233 H 0.04432 0.7236 0.10336 0.0
H234 H 0.01639 0.73843 0.33658 0.0
H235 H 0.07113 0.76524 0.38086 0.0
H236 H 0.97602 0.69843 0.24621 0.0
H237 H -0.00474 0.71478 0.07084 0.0
H238 H 0.94338 0.70457 1.00293 0.0
H239 H 0.88805 0.66653 0.97428 0.0
C240 C 0.31937 0.06066 0.64541 0.0
C241 C 0.32083 0.08763 0.61308 0.0
C242 C 0.30196 0.03159 0.60721 0.0
C243 C 0.28555 0.02881 0.53572 0.0
C244 C 0.28581 0.0555 0.50522 0.0
C245 C 0.30359 0.08481 0.54321 0.0
C246 C 0.26884 -0.00173 0.49218 0.0
C247 C 0.28192 0.98009 0.48581 0.0
C248 C 0.26698 0.94829 0.44867 0.0
C249 C 0.28657 0.93635 0.42901 0.0
C250 C 0.27399 0.90501 0.40669 0.0
C251 C 0.24138 0.88461 0.40356 0.0
H252 H 0.21836 0.93678 0.45626 0.0
C253 C 0.22151 0.89683 0.41791 0.0
C254 C 0.23422 0.92849 0.44071 0.0
H255 H 0.19627 0.88155 0.41634 0.0
H256 H 0.33217 0.06208 0.69962 0.0
H257 H 0.3015 0.01128 0.6335 0.0
H258 H 0.27311 0.05387 0.45066 0.0
H259 H 0.3042 0.10528 0.51741 0.0
H260 H 0.24663 0.99153 0.46289 0.0
H261 H 0.30554 0.98918 0.50951 0.0
H262 H 0.31185 0.95102 0.43411 0.0
H263 H 0.28996 0.89643 0.39497 0.0
C264 C 0.20567 0.45047 0.74074 0.0
C265 C 0.1888 0.4257 0.79426 0.0
C266 C 0.20606 0.44449 0.65915 0.0
C267 C 0.18928 0.41349 0.62925 0.0
C268 C 0.17302 0.38869 0.68336 0.0
C269 C 0.17263 0.39472 0.76508 0.0
C270 C 0.18866 0.40602 0.54268 0.0
C271 C 0.19391 0.42675 0.4836 0.0
C272 C 0.19308 0.41921 0.39703 0.0
C273 C 0.20939 0.44394 0.34276 0.0
C274 C 0.20937 0.43784 0.26095 0.0
C275 C 0.19273 0.40687 0.23181 0.0
H276 H 0.1621 0.36856 0.40626 0.0
C277 C 0.17591 0.38216 0.28555 0.0
C278 C 0.17594 0.38822 0.36725 0.0
H279 H 0.16259 0.35807 0.26439 0.0
H280 H 0.21867 0.47458 0.76196 0.0
H281 H 0.21989 0.46422 0.62033 0.0
H282 H 0.16016 0.36457 0.6622 0.0
H283 H 0.15939 0.37519 0.80515 0.0
H284 H 0.18314 0.38231 0.52776 0.0
H285 H 0.19945 0.45047 0.49847 0.0
H286 H 0.22255 0.46806 0.36386 0.0
H287 H 0.22269 0.4573 0.22077 0.0
C288 C 0.7732 0.19548 0.12921 0.0
C289 C 0.74416 0.18717 0.16368 0.0
C290 C 0.77654 0.19668 0.04552 0.0
C291 C 0.75078 0.18952 0.99477 0.0
C292 C 0.7219 0.18136 1.02995 0.0
C293 C 0.7186 0.18008 0.11307 0.0
C294 C 0.75287 0.19114 0.90542 0.0
C295 C 0.77506 0.18931 0.86283 0.0
C296 C 0.7763 0.18962 0.77329 0.0
C297 C 0.7937 0.17785 0.73577 0.0
C298 C 0.79648 0.17838 0.65247 0.0
C299 C 0.78216 0.19097 0.6042 0.0
H300 H 0.74861 0.21205 0.75085 0.0
C301 C 0.76451 0.20261 0.64105 0.0
C302 C 0.76164 0.20203 0.72476 0.0
H303 H 0.75339 0.21266 0.60533 0.0
H304 H 0.79338 0.20151 0.16678 0.0
H305 H 0.79945 0.20389 1.02127 0.0
H306 H 0.70167 0.1759 0.99291 0.0
H307 H 0.69592 0.17374 0.13775 0.0
H308 H 0.73416 0.19215 0.87368 0.0
H309 H 0.79231 0.18578 0.89436 0.0
H310 H 0.80534 0.16824 0.7711 0.0
H311 H 0.81028 0.16925 0.62592 0.0
C312 C 0.53504 0.75954 0.4583 0.0
C313 C 0.56005 0.77114 0.51339 0.0
C314 C 0.54051 0.76755 0.37731 0.0
C315 C 0.57121 0.78739 0.34955 0.0
C316 C 0.59614 0.79949 0.4051 0.0
C317 C 0.59067 0.79116 0.48604 0.0
C318 C 0.57787 0.79637 0.26366 0.0
C319 C 0.56006 0.77755 0.20303 0.0
C320 C 0.56686 0.78583 0.11683 0.0
C321 C 0.55664 0.76151 0.05989 0.0
C322 C 0.56237 0.76828 0.97832 0.0
C323 C 0.57773 0.79948 0.95164 0.0
H324 H 0.59004 0.83656 0.13177 0.0
C325 C 0.58786 0.82388 1.00827 0.0
C326 C 0.58244 0.81718 0.09005 0.0
H327 H 0.59989 0.84821 0.98931 0.0
H328 H 0.51115 0.7442 0.4778 0.0
H329 H 0.52058 0.7585 0.33694 0.0
H330 H 0.61999 0.81499 0.38559 0.0
H331 H 0.61045 0.80016 0.52698 0.0
H332 H 0.59913 0.81832 0.25018 0.0
H333 H 0.54061 0.75428 0.21655 0.0
H334 H 0.54466 0.73716 0.07867 0.0
H335 H 0.55554 0.74914 0.93648 0.0
C336 C 0.78647 0.57523 0.78572 0.0
C337 C 0.79639 0.55591 0.82144 0.0
C338 C 0.78513 0.57705 0.70191 0.0
C339 C 0.79367 0.55943 0.65201 0.0
C340 C 0.8034 0.54004 0.68828 0.0
C341 C 0.80487 0.53839 0.77168 0.0
C342 C 0.79175 0.55957 0.56246 0.0
C343 C 0.79285 0.58334 0.51971 0.0
C344 C 0.7923 0.58433 0.43011 0.0
C345 C 0.80399 0.61369 0.39311 0.0
C346 C 0.80319 0.61609 0.30988 0.0
C347 C 0.7903 0.58913 0.26096 0.0
H348 H 0.76977 0.53401 0.40691 0.0
C349 C 0.77868 0.55961 0.29726 0.0
C350 C 0.77965 0.55719 0.38105 0.0
H351 H 0.76846 0.53841 0.26108 0.0
H352 H 0.77898 0.58829 0.82235 0.0
H353 H 0.77658 0.59159 0.67683 0.0
H354 H 0.80992 0.52601 0.65191 0.0
H355 H 0.81238 0.52303 0.79725 0.0
H356 H 0.79119 0.54002 0.53083 0.0
H357 H 0.79602 0.60405 0.55132 0.0
H358 H 0.81379 0.63501 0.42883 0.0
H359 H 0.81235 0.63921 0.28389 0.0
C360 C 0.21656 0.79358 0.64006 0.0
C361 C 0.18916 0.77027 0.60208 0.0
C362 C 0.21966 0.79416 0.72365 0.0
C363 C 0.19544 0.77116 0.77138 0.0
C364 C 0.16831 0.7476 0.73263 0.0
C365 C 0.1652 0.74713 0.64919 0.0
C366 C 0.19675 0.77119 0.86117 0.0
C367 C 0.22285 0.78923 0.90537 0.0
C368 C 0.22442 0.78923 0.99495 0.0
C369 C 0.25414 0.80284 1.03156 0.0
C370 C 0.2573 0.80386 0.11485 0.0
C371 C 0.23083 0.79161 0.16431 0.0
H372 H 0.17439 0.76675 1.01957 0.0
C373 C 0.20103 0.77809 0.1284 0.0
C374 C 0.19776 0.77697 0.0446 0.0
H375 H 0.18025 0.76792 0.16482 0.0
H376 H 0.23534 0.81188 0.6053 0.0
H377 H 0.24079 0.81319 0.74986 0.0
H378 H 0.14919 0.72956 0.76714 0.0
H379 H 0.14376 0.72888 0.62165 0.0
H380 H 0.17524 0.75488 0.89154 0.0
H381 H 0.24482 0.8041 0.87513 0.0
H382 H 0.27516 0.81264 0.99552 0.0
H383 H 0.28066 0.81441 0.14059 0.0
C384 C 0.44127 0.23034 0.47021 0.0
C385 C 0.41623 0.22094 0.52356 0.0
C386 C 0.43566 0.22329 0.3885 0.0
C387 C 0.40475 0.20685 0.35807 0.0
C388 C 0.37976 0.19704 0.41206 0.0
C389 C 0.38541 0.20411 0.49385 0.0
C390 C 0.39747 0.19888 0.27132 0.0
C391 C 0.41813 0.21356 0.21155 0.0
C392 C 0.41068 0.20574 0.12484 0.0
C393 C 0.43551 0.21469 0.07078 0.0
C394 C 0.42964 0.20805 0.98886 0.0
C395 C 0.39879 0.19264 0.95907 0.0
H396 H 0.35993 0.18409 0.13307 0.0
C397 C 0.37394 0.18396 1.01263 0.0
C398 C 0.37976 0.19052 0.09449 0.0
H399 H 0.34991 0.17227 0.99114 0.0
H400 H 0.4653 0.24303 0.49173 0.0
H401 H 0.45569 0.23043 0.35017 0.0
H402 H 0.3557 0.18416 0.39075 0.0
H403 H 0.36568 0.19681 0.53355 0.0
H404 H 0.37384 0.18031 0.2568 0.0
H405 H 0.44181 0.23206 0.22584 0.0
H406 H 0.45958 0.22658 0.09209 0.0
H407 H 0.44922 0.21459 0.94911 0.0
C408 C 0.16917 0.51563 0.21204 0.0
C409 C 0.16633 0.50956 0.12947 0.0
C410 C 0.16486 0.53954 0.24343 0.0
C411 C 0.15811 0.55818 0.19238 0.0
C412 C 0.15418 0.55116 0.11012 0.0
C413 C 0.15825 0.52712 0.07895 0.0
C414 C 0.15594 0.58568 0.22129 0.0
C415 C 0.16823 0.60055 0.29142 0.0
C416 C 0.1709 0.63104 0.31433 0.0
C417 C 0.19388 0.64997 0.37089 0.0
C418 C 0.19935 0.67994 0.38963 0.0
C419 C 0.18177 0.69173 0.35264 0.0
H420 H 0.13342 0.62792 0.23846 0.0
C421 C 0.15761 0.67223 0.29905 0.0
C422 C 0.15215 0.64215 0.28016 0.0
H423 H 0.14339 0.68045 0.27014 0.0
H424 H 0.17495 0.50205 0.25235 0.0
H425 H 0.16696 0.54319 0.30748 0.0
H426 H 0.1487 0.56484 0.06935 0.0
H427 H 0.15572 0.52276 1.01501 0.0
H428 H 0.14649 0.59567 0.17946 0.0
H429 H 0.17979 0.59197 0.33071 0.0
H430 H 0.20843 0.64195 0.39899 0.0
H431 H 0.21791 0.69409 0.43199 0.0
C432 C 0.64686 0.20138 0.50876 0.0
C433 C 0.65507 0.17836 0.52212 0.0
C434 C 0.61874 0.1975 0.53755 0.0
C435 C 0.59769 0.1701 0.57922 0.0
C436 C 0.60649 0.14758 0.59554 0.0
C437 C 0.635 0.15163 0.56699 0.0
C438 C 0.56715 0.16542 0.60813 0.0
C439 C 0.55244 0.17863 0.57072 0.0
C440 C 0.52583 0.18037 0.60513 0.0
C441 C 0.52529 0.20831 0.59437 0.0
C442 C 0.5013 0.21178 0.6268 0.0
C443 C 0.4768 0.18699 0.6685 0.0
H444 H 0.50088 0.13334 0.65473 0.0
C445 C 0.47651 0.1585 0.67741 0.0
C446 C 0.50123 0.15533 0.64682 0.0
H447 H 0.45763 0.13909 0.70921 0.0
H448 H 0.66218 0.2225 0.47556 0.0
H449 H 0.61382 0.2163 0.52738 0.0
H450 H 0.59104 0.12659 0.62895 0.0
H451 H 0.64097 0.13362 0.5784 0.0
H452 H 0.55732 0.15193 0.66241 0.0
H453 H 0.56203 0.19157 0.51566 0.0
H454 H 0.54388 0.22782 0.56202 0.0
H455 H 0.50173 0.23382 0.61854 0.0
C456 C 0.30127 0.51177 1.0132 0.0
C457 C 0.2871 0.48156 0.97881 0.0
C458 C 0.33177 0.53465 0.99273 0.0
C459 C 0.34902 0.52787 0.93744 0.0
C460 C 0.33507 0.4975 0.90418 0.0
C461 C 0.30453 0.47449 0.92503 0.0
C462 C 0.38021 0.5527 0.90799 0.0
C463 C 0.39951 0.57872 0.95088 0.0
C464 C 0.42803 0.60652 0.91825 0.0
C465 C 0.43941 0.63552 0.95773 0.0
C466 C 0.4644 0.66295 0.92645 0.0
C467 C 0.47884 0.66197 0.85529 0.0
H468 H 0.43606 0.58343 0.81737 0.0
C469 C 0.46858 0.63288 0.81738 0.0
C470 C 0.44338 0.60535 0.84849 0.0
H471 H 0.47955 0.63151 0.76272 0.0
H472 H 0.28854 0.51812 0.05461 0.0
H473 H 0.34108 0.55796 1.01793 0.0
H474 H 0.34766 0.4917 0.86084 0.0
H475 H 0.29426 0.45151 0.897 0.0
H476 H 0.3865 0.54978 0.8478 0.0
H477 H 0.39313 0.58086 1.01168 0.0
H478 H 0.4283 0.63718 1.01183 0.0
H479 H 0.472 0.68505 0.95726 0.0
C480 C 0.77824 0.30348 0.40104 0.0
C481 C 0.7957 0.29159 0.36411 0.0
C482 C 0.78433 0.33381 0.38445 0.0
C483 C 0.80791 0.35297 0.33006 0.0
C484 C 0.82661 0.34187 0.29682 0.0
C485 C 0.82048 0.31141 0.31331 0.0
C486 C 0.8124 0.38386 0.30426 0.0
C487 C 0.78799 0.38873 0.29677 0.0
C488 C 0.79026 0.41725 0.26035 0.0
C489 C 0.764 0.41401 0.21895 0.0
C490 C 0.76493 0.43983 0.18217 0.0
C491 C 0.79193 0.46968 0.18746 0.0
H492 H 0.83774 0.4506 0.29955 0.0
C493 C 0.81805 0.47335 0.23073 0.0
C494 C 0.81733 0.44723 0.26654 0.0
H495 H 0.8391 0.49622 0.23579 0.0
H496 H 0.7593 0.28912 0.44153 0.0
H497 H 0.77019 0.34201 0.4135 0.0
H498 H 0.84517 0.3563 0.25545 0.0
H499 H 0.8346 0.30313 0.28441 0.0
H500 H 0.8354 0.40151 0.283 0.0
H501 H 0.76453 0.36967 0.31037 0.0
H502 H 0.7428 0.39124 0.21374 0.0
H503 H 0.74439 0.43637 0.14954 0.0
C504 C 0.34884 0.82598 0.52017 0.0
C505 C 0.31813 0.80314 0.54077 0.0
C506 C 0.37455 0.82604 0.55603 0.0
C507 C 0.36996 0.80327 0.61371 0.0
C508 C 0.33913 0.78099 0.63547 0.0
C509 C 0.31348 0.78096 0.59961 0.0
C510 C 0.39622 0.80019 0.64772 0.0
C511 C 0.42668 0.82304 0.64615 0.0
C512 C 0.45273 0.818 0.67211 0.0
C513 C 0.48268 0.83701 0.6395 0.0
C514 C 0.50715 0.83137 0.65703 0.0
C515 C 0.5022 0.80661 0.70798 0.0
H516 H 0.42604 0.78003 0.75594 0.0
C517 C 0.47268 0.78863 0.74388 0.0
C518 C 0.44829 0.79435 0.7266 0.0
H519 H 0.46818 0.76974 0.7846 0.0
H520 H 0.35302 0.84324 0.47455 0.0
H521 H 0.39773 0.84319 0.53574 0.0
H522 H 0.33482 0.76309 0.67935 0.0
H523 H 0.29 0.76306 0.61653 0.0
H524 H 0.3899 0.77743 0.6726 0.0
H525 H 0.43321 0.84579 0.62086 0.0
H526 H 0.48692 0.85565 0.59814 0.0
H527 H 0.52962 0.8458 0.62858 0.0
C528 C 0.67642 0.47598 0.04405 0.0
C529 C 0.69012 0.50573 1.0079 0.0
C530 C 0.64622 0.4523 1.02248 0.0
C531 C 0.62882 0.45784 0.96438 0.0
C532 C 0.64223 0.48781 0.92969 0.0
C533 C 0.67246 0.51157 0.95147 0.0
C534 C 0.59806 0.43225 0.93345 0.0
C535 C 0.57917 0.40592 0.97492 0.0
C536 C 0.55082 0.37806 0.94061 0.0
C537 C 0.53955 0.34888 0.97847 0.0
C538 C 0.51449 0.32154 0.94575 0.0
C539 C 0.49996 0.32283 0.87464 0.0
H540 H 0.54247 0.40148 0.84102 0.0
C541 C 0.51022 0.35205 0.83823 0.0
C542 C 0.53535 0.37946 0.8709 0.0
H543 H 0.49917 0.35368 0.78369 0.0
H544 H 0.68935 0.47055 0.08747 0.0
H545 H 0.63735 0.42938 0.04912 0.0
H546 H 0.62952 0.49269 0.88433 0.0
H547 H 0.68231 0.53415 0.9221 0.0
H548 H 0.59168 0.43502 0.87309 0.0
H549 H 0.58559 0.40368 1.03575 0.0
H550 H 0.55074 0.34704 1.03251 0.0
H551 H 0.50692 0.29931 0.97531 0.0
loop_
_geom_bond_atom_site_label_1
_geom_bond_atom_site_label_2
_geom_bond_distance
_geom_bond_site_symmetry_2
_ccdc_geom_bond_type
Tb0 O3 2.453 . S
Tb0 O4 2.596 . S
Tb0 O5 2.374 . S
Tb0 O13 2.343 1_554 S
Tb0 O15 2.353 . S
Tb0 O17 2.427 1_554 S
Tb0 O18 2.513 1_554 S
C1 O5 1.251 . S
C1 O7 1.263 . S
Tb2 O4 2.343 1_556 S
Tb2 O7 2.353 1_556 S
Tb2 O10 2.427 1_556 S
Tb2 O11 2.513 1_556 S
Tb2 O12 2.453 . S
Tb2 O13 2.596 . S
Tb2 O14 2.374 . S
O3 Tb0 2.453 . S
O3 C19 1.245 . S
O4 Tb0 2.596 . S
O4 Tb2 2.343 1_554 S
O4 C19 1.259 . S
O5 Tb0 2.374 . S
O5 C1 1.251 . S
C6 O10 1.275 . S
C6 O11 1.246 . S
O7 C1 1.263 . S
O7 Tb2 2.353 1_554 S
C8 O12 1.245 . S
C8 O13 1.259 . S
C9 O14 1.250 . S
C9 O15 1.263 1_556 S
O10 Tb2 2.427 1_554 S
O10 C6 1.275 . S
O11 Tb2 2.513 1_554 S
O11 C6 1.246 . S
O12 Tb2 2.453 . S
O12 C8 1.245 . S
O13 Tb0 2.343 1_556 S
O13 Tb2 2.596 . S
O13 C8 1.259 . S
O14 Tb2 2.374 . S
O14 C9 1.250 . S
O15 Tb0 2.353 . S
O15 C9 1.263 1_554 S
C16 O17 1.275 . S
C16 O18 1.246 . S
O17 Tb0 2.427 1_556 S
O17 C16 1.275 . S
O18 Tb0 2.513 1_556 S
O18 C16 1.246 . S
C19 O3 1.245 . S
C19 O4 1.259 . S
Tb20 O23 2.453 . S
Tb20 O24 2.596 . S
Tb20 O25 2.374 . S
Tb20 O33 2.343 . S
Tb20 O35 2.353 . S
Tb20 O37 2.427 . S
Tb20 O38 2.513 . S
C21 O25 1.251 . S
C21 O27 1.263 . S
Tb22 O24 2.343 . S
Tb22 O27 2.353 . S
Tb22 O30 2.427 . S
Tb22 O31 2.513 . S
Tb22 O32 2.453 . S
Tb22 O33 2.596 . S
Tb22 O34 2.374 . S
O23 Tb20 2.453 . S
O23 C39 1.245 . S
O24 Tb20 2.596 . S
O24 Tb22 2.343 . S
O24 C39 1.259 . S
O25 Tb20 2.374 . S
O25 C21 1.251 . S
C26 O30 1.275 . S
C26 O31 1.246 . S
O27 C21 1.263 . S
O27 Tb22 2.353 . S
C28 O32 1.245 . S
C28 O33 1.259 . S
C29 O34 1.250 . S
C29 O35 1.263 . S
O30 Tb22 2.427 . S
O30 C26 1.275 . S
O31 Tb22 2.513 . S
O31 C26 1.246 . S
O32 Tb22 2.453 . S
O32 C28 1.245 . S
O33 Tb20 2.343 . S
O33 Tb22 2.596 . S
O33 C28 1.259 . S
O34 Tb22 2.374 . S
O34 C29 1.250 . S
O35 Tb20 2.353 . S
O35 C29 1.263 . S
C36 O37 1.275 . S
C36 O38 1.246 . S
O37 Tb20 2.427 . S
O37 C36 1.275 . S
O38 Tb20 2.513 . S
O38 C36 1.246 . S
C39 O23 1.245 . S
C39 O24 1.259 . S
Tb40 O43 2.453 . S
Tb40 O44 2.596 . S
Tb40 O45 2.374 . S
Tb40 O53 2.343 . S
Tb40 O55 2.353 . S
Tb40 O57 2.427 . S
Tb40 O58 2.513 . S
C41 O45 1.251 . S
C41 O47 1.263 . S
Tb42 O44 2.343 . S
Tb42 O47 2.353 . S
Tb42 O50 2.427 . S
Tb42 O51 2.513 . S
Tb42 O52 2.453 . S
Tb42 O53 2.596 . S
Tb42 O54 2.374 . S
O43 Tb40 2.453 . S
O43 C59 1.245 . S
O44 Tb40 2.596 . S
O44 Tb42 2.343 . S
O44 C59 1.259 . S
O45 Tb40 2.374 . S
O45 C41 1.251 . S
C46 O50 1.275 . S
C46 O51 1.246 . S
O47 C41 1.263 . S
O47 Tb42 2.353 . S
C48 O52 1.245 . S
C48 O53 1.259 . S
C49 O54 1.250 . S
C49 O55 1.263 . S
O50 Tb42 2.427 . S
O50 C46 1.275 . S
O51 Tb42 2.513 . S
O51 C46 1.246 . S
O52 Tb42 2.453 . S
O52 C48 1.245 . S
O53 Tb40 2.343 . S
O53 Tb42 2.596 . S
O53 C48 1.259 . S
O54 Tb42 2.374 . S
O54 C49 1.250 . S
O55 Tb40 2.353 . S
O55 C49 1.263 . S
C56 O57 1.275 . S
C56 O58 1.246 . S
O57 Tb40 2.427 . S
O57 C56 1.275 . S
O58 Tb40 2.513 . S
O58 C56 1.246 . S
C59 O43 1.245 . S
C59 O44 1.259 . S
Tb60 O63 2.453 . S
Tb60 O64 2.596 . S
Tb60 O65 2.374 . S
Tb60 O73 2.343 1_554 S
Tb60 O75 2.353 . S
Tb60 O77 2.427 1_554 S
Tb60 O78 2.513 1_554 S
C61 O65 1.251 . S
C61 O67 1.263 . S
Tb62 O64 2.343 1_556 S
Tb62 O67 2.353 1_556 S
Tb62 O70 2.427 1_556 S
Tb62 O71 2.513 1_556 S
Tb62 O72 2.453 . S
Tb62 O73 2.596 . S
Tb62 O74 2.374 . S
O63 Tb60 2.453 . S
O63 C79 1.245 . S
O64 Tb60 2.596 . S
O64 Tb62 2.343 1_554 S
O64 C79 1.259 . S
O65 Tb60 2.374 . S
O65 C61 1.251 . S
C66 O70 1.275 . S
C66 O71 1.246 . S
O67 C61 1.263 . S
O67 Tb62 2.353 1_554 S
C68 O72 1.245 . S
C68 O73 1.259 . S
C69 O74 1.250 . S
C69 O75 1.263 1_556 S
O70 Tb62 2.427 1_554 S
O70 C66 1.275 . S
O71 Tb62 2.513 1_554 S
O71 C66 1.246 . S
O72 Tb62 2.453 . S
O72 C68 1.245 . S
O73 Tb60 2.343 1_556 S
O73 Tb62 2.596 . S
O73 C68 1.259 . S
O74 Tb62 2.374 . S
O74 C69 1.250 . S
O75 Tb60 2.353 . S
O75 C69 1.263 1_554 S
C76 O77 1.275 . S
C76 O78 1.246 . S
O77 Tb60 2.427 1_556 S
O77 C76 1.275 . S
O78 Tb60 2.513 1_556 S
O78 C76 1.246 . S
C79 O63 1.245 . S
C79 O64 1.259 . S
Tb80 O83 2.453 . S
Tb80 O84 2.596 . S
Tb80 O85 2.374 . S
Tb80 O93 2.343 . S
Tb80 O95 2.353 . S
Tb80 O97 2.427 . S
Tb80 O98 2.513 . S
C81 O85 1.251 . S
C81 O87 1.263 . S
Tb82 O84 2.343 . S
Tb82 O87 2.353 . S
Tb82 O90 2.427 . S
Tb82 O91 2.513 . S
Tb82 O92 2.453 . S
Tb82 O93 2.596 . S
Tb82 O94 2.374 . S
O83 Tb80 2.453 . S
O83 C99 1.245 . S
O84 Tb80 2.596 . S
O84 Tb82 2.343 . S
O84 C99 1.259 . S
O85 Tb80 2.374 . S
O85 C81 1.251 . S
C86 O90 1.275 . S
C86 O91 1.246 . S
O87 C81 1.263 . S
O87 Tb82 2.353 . S
C88 O92 1.245 . S
C88 O93 1.259 . S
C89 O94 1.250 . S
C89 O95 1.263 . S
O90 Tb82 2.427 . S
O90 C86 1.275 . S
O91 Tb82 2.513 . S
O91 C86 1.246 . S
O92 Tb82 2.453 . S
O92 C88 1.245 . S
O93 Tb80 2.343 . S
O93 Tb82 2.596 . S
O93 C88 1.259 . S
O94 Tb82 2.374 . S
O94 C89 1.250 . S
O95 Tb80 2.353 . S
O95 C89 1.263 . S
C96 O97 1.275 . S
C96 O98 1.246 . S
O97 Tb80 2.427 . S
O97 C96 1.275 . S
O98 Tb80 2.513 . S
O98 C96 1.246 . S
C99 O83 1.245 . S
C99 O84 1.259 . S
Tb100 O103 2.453 . S
Tb100 O104 2.596 . S
Tb100 O105 2.374 . S
Tb100 O113 2.343 . S
Tb100 O115 2.353 . S
Tb100 O117 2.427 . S
Tb100 O118 2.513 . S
C101 O105 1.251 . S
C101 O107 1.263 . S
Tb102 O104 2.343 . S
Tb102 O107 2.353 . S
Tb102 O110 2.427 . S
Tb102 O111 2.513 . S
Tb102 O112 2.453 . S
Tb102 O113 2.596 . S
Tb102 O114 2.374 . S
O103 Tb100 2.453 . S
O103 C119 1.245 . S
O104 Tb100 2.596 . S
O104 Tb102 2.343 . S
O104 C119 1.259 . S
O105 Tb100 2.374 . S
O105 C101 1.251 . S
C106 O110 1.275 . S
C106 O111 1.246 . S
O107 C101 1.263 . S
O107 Tb102 2.353 . S
C108 O112 1.245 . S
C108 O113 1.259 . S
C109 O114 1.250 . S
C109 O115 1.263 . S
O110 Tb102 2.427 . S
O110 C106 1.275 . S
O111 Tb102 2.513 . S
O111 C106 1.246 . S
O112 Tb102 2.453 . S
O112 C108 1.245 . S
O113 Tb100 2.343 . S
O113 Tb102 2.596 . S
O113 C108 1.259 . S
O114 Tb102 2.374 . S
O114 C109 1.250 . S
O115 Tb100 2.353 . S
O115 C109 1.263 . S
C116 O117 1.275 . S
C116 O118 1.246 . S
O117 Tb100 2.427 . S
O117 C116 1.275 . S
O118 Tb100 2.513 . S
O118 C116 1.246 . S
C119 O103 1.245 . S
C119 O104 1.259 . S
C120 C121 1.386 . S
C120 C122 1.383 . S
C120 H136 0.951 . S
C121 C120 1.386 . S
C121 C125 1.383 . S
C122 C120 1.383 . S
C122 C123 1.402 . S
C122 H137 0.951 . S
C123 C122 1.402 . S
C123 C124 1.375 . S
C123 C126 1.481 . S
C124 C123 1.375 . S
C124 C125 1.367 . S
C124 H138 0.951 . S
C125 C121 1.383 . S
C125 C124 1.367 . S
C125 H139 0.950 . S
C126 C123 1.481 . S
C126 C127 1.297 . S
C126 H140 0.950 . S
C127 C126 1.297 . S
C127 C128 1.479 . S
C127 H141 0.950 . S
C128 C127 1.479 . S
C128 C129 1.375 . S
C128 C134 1.404 . S
C129 C128 1.375 . S
C129 C130 1.369 . S
C129 H142 0.950 . S
C130 C129 1.369 . S
C130 C131 1.392 . S
C130 H143 0.951 . S
C131 C130 1.392 . S
C131 C133 1.384 . S
H132 C134 0.949 . S
C133 C131 1.384 . S
C133 C134 1.385 . S
C133 H135 0.950 . S
C134 C128 1.404 . S
C134 H132 0.949 . S
C134 C133 1.385 . S
H135 C133 0.950 . S
H136 C120 0.951 . S
H137 C122 0.951 . S
H138 C124 0.951 . S
H139 C125 0.950 . S
H140 C126 0.950 . S
H141 C127 0.950 . S
H142 C129 0.950 . S
H143 C130 0.951 . S
C144 C145 1.386 . S
C144 C146 1.383 . S
C144 H160 0.951 . S
C145 C144 1.386 . S
C145 C149 1.383 . S
C146 C144 1.383 . S
C146 C147 1.402 . S
C146 H161 0.951 . S
C147 C146 1.402 . S
C147 C148 1.375 . S
C147 C150 1.481 . S
C148 C147 1.375 . S
C148 C149 1.367 . S
C148 H162 0.951 . S
C149 C145 1.383 . S
C149 C148 1.367 . S
C149 H163 0.950 . S
C150 C147 1.481 . S
C150 C151 1.297 1_455 S
C150 H164 0.950 . S
C151 C150 1.297 1_655 S
C151 C152 1.479 . S
C151 H165 0.950 1_655 S
C152 C151 1.479 . S
C152 C153 1.375 . S
C152 C158 1.404 . S
C153 C152 1.375 . S
C153 C154 1.369 . S
C153 H166 0.950 . S
C154 C153 1.369 . S
C154 C155 1.392 . S
C154 H167 0.951 . S
C155 C154 1.392 . S
C155 C157 1.384 . S
H156 C158 0.949 . S
C157 C155 1.384 . S
C157 C158 1.385 . S
C157 H159 0.950 . S
C158 C152 1.404 . S
C158 H156 0.949 . S
C158 C157 1.385 . S
H159 C157 0.950 . S
H160 C144 0.951 . S
H161 C146 0.951 . S
H162 C148 0.951 . S
H163 C149 0.950 . S
H164 C150 0.950 . S
H165 C151 0.950 1_455 S
H166 C153 0.950 . S
H167 C154 0.951 . S
C168 C169 1.386 . S
C168 C170 1.383 . S
C168 H184 0.951 . S
C169 C168 1.386 . S
C169 C173 1.383 . S
C170 C168 1.383 . S
C170 C171 1.402 . S
C170 H185 0.951 . S
C171 C170 1.402 . S
C171 C172 1.375 . S
C171 C174 1.481 . S
C172 C171 1.375 . S
C172 C173 1.367 . S
C172 H186 0.951 . S
C173 C169 1.383 . S
C173 C172 1.367 . S
C173 H187 0.950 . S
C174 C171 1.481 . S
C174 C175 1.297 . S
C174 H188 0.950 . S
C175 C174 1.297 . S
C175 C176 1.479 1_545 S
C175 H189 0.950 . S
C176 C175 1.479 1_565 S
C176 C177 1.375 . S
C176 C182 1.404 . S
C177 C176 1.375 . S
C177 C178 1.369 . S
C177 H190 0.950 . S
C178 C177 1.369 . S
C178 C179 1.392 . S
C178 H191 0.951 . S
C179 C178 1.392 . S
C179 C181 1.384 . S
H180 C182 0.949 . S
C181 C179 1.384 . S
C181 C182 1.385 . S
C181 H183 0.950 . S
C182 C176 1.404 . S
C182 H180 0.949 . S
C182 C181 1.385 . S
H183 C181 0.950 . S
H184 C168 0.951 . S
H185 C170 0.951 . S
H186 C172 0.951 . S
H187 C173 0.950 . S
H188 C174 0.950 . S
H189 C175 0.950 . S
H190 C177 0.950 . S
H191 C178 0.951 . S
C192 C193 1.386 . S
C192 C194 1.383 . S
C192 H208 0.951 . S
C193 C192 1.386 . S
C193 C197 1.383 . S
C194 C192 1.383 . S
C194 C195 1.402 . S
C194 H209 0.951 . S
C195 C194 1.402 . S
C195 C196 1.375 . S
C195 C198 1.481 . S
C196 C195 1.375 . S
C196 C197 1.367 . S
C196 H210 0.951 . S
C197 C193 1.383 . S
C197 C196 1.367 . S
C197 H211 0.950 . S
C198 C195 1.481 . S
C198 C199 1.297 . S
C198 H212 0.950 . S
C199 C198 1.297 . S
C199 C200 1.479 . S
C199 H213 0.950 . S
C200 C199 1.479 . S
C200 C201 1.375 . S
C200 C206 1.404 . S
C201 C200 1.375 . S
C201 C202 1.369 . S
C201 H214 0.950 . S
C202 C201 1.369 . S
C202 C203 1.392 . S
C202 H215 0.951 . S
C203 C202 1.392 . S
C203 C205 1.384 . S
H204 C206 0.949 . S
C205 C203 1.384 . S
C205 C206 1.385 . S
C205 H207 0.950 . S
C206 C200 1.404 . S
C206 H204 0.949 . S
C206 C205 1.385 . S
H207 C205 0.950 . S
H208 C192 0.951 . S
H209 C194 0.951 . S
H210 C196 0.951 . S
H211 C197 0.950 . S
H212 C198 0.950 . S
H213 C199 0.950 . S
H214 C201 0.950 . S
H215 C202 0.951 . S
C216 C217 1.386 . S
C216 C218 1.383 . S
C216 H232 0.951 . S
C217 C216 1.386 . S
C217 C221 1.383 . S
C218 C216 1.383 . S
C218 C219 1.402 . S
C218 H233 0.951 . S
C219 C218 1.402 . S
C219 C220 1.375 . S
C219 C222 1.496 . S
C220 C219 1.375 . S
C220 C221 1.367 . S
C220 H234 0.951 . S
C221 C217 1.383 . S
C221 C220 1.367 . S
C221 H235 0.950 . S
C222 C219 1.496 . S
C222 C223 1.279 1_455 S
C222 H236 0.953 1_455 S
C223 C222 1.279 1_655 S
C223 C224 1.479 . S
C223 H237 0.950 . S
C224 C223 1.479 . S
C224 C225 1.375 . S
C224 C230 1.404 . S
C225 C224 1.375 . S
C225 C226 1.369 . S
C225 H238 0.950 . S
C226 C225 1.369 . S
C226 C227 1.392 . S
C226 H239 0.951 . S
C227 C226 1.392 . S
C227 C229 1.384 . S
H228 C230 0.949 . S
C229 C227 1.384 . S
C229 C230 1.385 . S
C229 H231 0.950 . S
C230 C224 1.404 . S
C230 H228 0.949 . S
C230 C229 1.385 . S
H231 C229 0.950 . S
H232 C216 0.951 . S
H233 C218 0.951 . S
H234 C220 0.951 . S
H235 C221 0.950 . S
H236 C222 0.953 1_655 S
H237 C223 0.950 . S
H238 C225 0.950 . S
H239 C226 0.951 . S
C240 C241 1.386 . S
C240 C242 1.383 . S
C240 H256 0.951 . S
C241 C240 1.386 . S
C241 C245 1.383 . S
C242 C240 1.383 . S
C242 C243 1.402 . S
C242 H257 0.951 . S
C243 C242 1.402 . S
C243 C244 1.375 . S
C243 C246 1.481 1_545 S
C244 C243 1.375 . S
C244 C245 1.367 . S
C244 H258 0.951 . S
C245 C241 1.383 . S
C245 C244 1.367 . S
C245 H259 0.950 . S
C246 C243 1.481 1_565 S
C246 C247 1.297 . S
C246 H260 0.950 . S
C247 C246 1.297 . S
C247 C248 1.479 . S
C247 H261 0.950 . S
C248 C247 1.479 . S
C248 C249 1.375 . S
C248 C254 1.404 . S
C249 C248 1.375 . S
C249 C250 1.369 . S
C249 H262 0.950 . S
C250 C249 1.369 . S
C250 C251 1.392 . S
C250 H263 0.951 . S
C251 C250 1.392 . S
C251 C253 1.384 . S
H252 C254 0.949 . S
C253 C251 1.384 . S
C253 C254 1.385 . S
C253 H255 0.950 . S
C254 C248 1.404 . S
C254 H252 0.949 . S
C254 C253 1.385 . S
H255 C253 0.950 . S
H256 C240 0.951 . S
H257 C242 0.951 . S
H258 C244 0.951 . S
H259 C245 0.950 . S
H260 C246 0.950 . S
H261 C247 0.950 . S
H262 C249 0.950 . S
H263 C250 0.951 . S
C264 C265 1.386 . S
C264 C266 1.383 . S
C264 H280 0.951 . S
C265 C264 1.386 . S
C265 C269 1.383 . S
C266 C264 1.383 . S
C266 C267 1.402 . S
C266 H281 0.951 . S
C267 C266 1.402 . S
C267 C268 1.375 . S
C267 C270 1.481 . S
C268 C267 1.375 . S
C268 C269 1.367 . S
C268 H282 0.951 . S
C269 C265 1.383 . S
C269 C268 1.367 . S
C269 H283 0.950 . S
C270 C267 1.481 . S
C270 C271 1.297 . S
C270 H284 0.950 . S
C271 C270 1.297 . S
C271 C272 1.479 . S
C271 H285 0.950 . S
C272 C271 1.479 . S
C272 C273 1.375 . S
C272 C278 1.404 . S
C273 C272 1.375 . S
C273 C274 1.369 . S
C273 H286 0.950 . S
C274 C273 1.369 . S
C274 C275 1.392 . S
C274 H287 0.951 . S
C275 C274 1.392 . S
C275 C277 1.384 . S
H276 C278 0.949 . S
C277 C275 1.384 . S
C277 C278 1.385 . S
C277 H279 0.950 . S
C278 C272 1.404 . S
C278 H276 0.949 . S
C278 C277 1.385 . S
H279 C277 0.950 . S
H280 C264 0.951 . S
H281 C266 0.951 . S
H282 C268 0.951 . S
H283 C269 0.950 . S
H284 C270 0.950 . S
H285 C271 0.950 . S
H286 C273 0.950 . S
H287 C274 0.951 . S
C288 C289 1.386 . S
C288 C290 1.383 1_554 S
C288 H304 0.951 . S
C289 C288 1.386 . S
C289 C293 1.383 . S
C290 C288 1.383 1_556 S
C290 C291 1.402 . S
C290 H305 0.951 . S
C291 C290 1.402 . S
C291 C292 1.375 . S
C291 C294 1.481 . S
C292 C291 1.375 . S
C292 C293 1.367 1_556 S
C292 H306 0.951 . S
C293 C289 1.383 . S
C293 C292 1.367 1_554 S
C293 H307 0.950 . S
C294 C291 1.481 . S
C294 C295 1.297 . S
C294 H308 0.950 . S
C295 C294 1.297 . S
C295 C296 1.479 . S
C295 H309 0.950 . S
C296 C295 1.479 . S
C296 C297 1.375 . S
C296 C302 1.404 . S
C297 C296 1.375 . S
C297 C298 1.369 . S
C297 H310 0.950 . S
C298 C297 1.369 . S
C298 C299 1.392 . S
C298 H311 0.951 . S
C299 C298 1.392 . S
C299 C301 1.384 . S
H300 C302 0.949 . S
C301 C299 1.384 . S
C301 C302 1.385 . S
C301 H303 0.950 . S
C302 C296 1.404 . S
C302 H300 0.949 . S
C302 C301 1.385 . S
H303 C301 0.950 . S
H304 C288 0.951 . S
H305 C290 0.951 . S
H306 C292 0.951 . S
H307 C293 0.950 . S
H308 C294 0.950 . S
H309 C295 0.950 . S
H310 C297 0.950 . S
H311 C298 0.951 . S
C312 C313 1.386 . S
C312 C314 1.383 . S
C312 H328 0.951 . S
C313 C312 1.386 . S
C313 C317 1.383 . S
C314 C312 1.383 . S
C314 C315 1.402 . S
C314 H329 0.951 . S
C315 C314 1.402 . S
C315 C316 1.375 . S
C315 C318 1.481 . S
C316 C315 1.375 . S
C316 C317 1.367 . S
C316 H330 0.951 . S
C317 C313 1.383 . S
C317 C316 1.367 . S
C317 H331 0.950 . S
C318 C315 1.481 . S
C318 C319 1.297 . S
C318 H332 0.950 . S
C319 C318 1.297 . S
C319 C320 1.479 . S
C319 H333 0.950 . S
C320 C319 1.479 . S
C320 C321 1.375 . S
C320 C326 1.404 . S
C321 C320 1.375 . S
C321 C322 1.369 1_554 S
C321 H334 0.950 . S
C322 C321 1.369 1_556 S
C322 C323 1.392 . S
C322 H335 0.951 . S
C323 C322 1.392 . S
C323 C325 1.384 . S
H324 C326 0.949 . S
C325 C323 1.384 . S
C325 C326 1.385 1_556 S
C325 H327 0.950 . S
C326 C320 1.404 . S
C326 H324 0.949 . S
C326 C325 1.385 1_554 S
H327 C325 0.950 . S
H328 C312 0.951 . S
H329 C314 0.951 . S
H330 C316 0.951 . S
H331 C317 0.950 . S
H332 C318 0.950 . S
H333 C319 0.950 . S
H334 C321 0.950 . S
H335 C322 0.951 . S
C336 C337 1.386 . S
C336 C338 1.383 . S
C336 H352 0.951 . S
C337 C336 1.386 . S
C337 C341 1.383 . S
C338 C336 1.383 . S
C338 C339 1.402 . S
C338 H353 0.951 . S
C339 C338 1.402 . S
C339 C340 1.375 . S
C339 C342 1.481 . S
C340 C339 1.375 . S
C340 C341 1.367 . S
C340 H354 0.951 . S
C341 C337 1.383 . S
C341 C340 1.367 . S
C341 H355 0.950 . S
C342 C339 1.481 . S
C342 C343 1.297 . S
C342 H356 0.950 . S
C343 C342 1.297 . S
C343 C344 1.479 . S
C343 H357 0.950 . S
C344 C343 1.479 . S
C344 C345 1.375 . S
C344 C350 1.404 . S
C345 C344 1.375 . S
C345 C346 1.369 . S
C345 H358 0.950 . S
C346 C345 1.369 . S
C346 C347 1.392 . S
C346 H359 0.951 . S
C347 C346 1.392 . S
C347 C349 1.384 . S
H348 C350 0.949 . S
C349 C347 1.384 . S
C349 C350 1.385 . S
C349 H351 0.950 . S
C350 C344 1.404 . S
C350 H348 0.949 . S
C350 C349 1.385 . S
H351 C349 0.950 . S
H352 C336 0.951 . S
H353 C338 0.951 . S
H354 C340 0.951 . S
H355 C341 0.950 . S
H356 C342 0.950 . S
H357 C343 0.950 . S
H358 C345 0.950 . S
H359 C346 0.951 . S
C360 C361 1.386 . S
C360 C362 1.383 . S
C360 H376 0.951 . S
C361 C360 1.386 . S
C361 C365 1.383 . S
C362 C360 1.383 . S
C362 C363 1.402 . S
C362 H377 0.951 . S
C363 C362 1.402 . S
C363 C364 1.375 . S
C363 C366 1.481 . S
C364 C363 1.375 . S
C364 C365 1.367 . S
C364 H378 0.951 . S
C365 C361 1.383 . S
C365 C364 1.367 . S
C365 H379 0.950 . S
C366 C363 1.481 . S
C366 C367 1.297 . S
C366 H380 0.950 . S
C367 C366 1.297 . S
C367 C368 1.479 . S
C367 H381 0.950 . S
C368 C367 1.479 . S
C368 C369 1.375 . S
C368 C374 1.404 . S
C369 C368 1.375 . S
C369 C370 1.369 1_556 S
C369 H382 0.950 . S
C370 C369 1.369 1_554 S
C370 C371 1.392 . S
C370 H383 0.951 . S
C371 C370 1.392 . S
C371 C373 1.384 . S
H372 C374 0.949 . S
C373 C371 1.384 . S
C373 C374 1.385 1_554 S
C373 H375 0.950 . S
C374 C368 1.404 . S
C374 H372 0.949 . S
C374 C373 1.385 1_556 S
H375 C373 0.950 . S
H376 C360 0.951 . S
H377 C362 0.951 . S
H378 C364 0.951 . S
H379 C365 0.950 . S
H380 C366 0.950 . S
H381 C367 0.950 . S
H382 C369 0.950 . S
H383 C370 0.951 . S
C384 C385 1.386 . S
C384 C386 1.383 . S
C384 H400 0.951 . S
C385 C384 1.386 . S
C385 C389 1.383 . S
C386 C384 1.383 . S
C386 C387 1.402 . S
C386 H401 0.951 . S
C387 C386 1.402 . S
C387 C388 1.375 . S
C387 C390 1.481 . S
C388 C387 1.375 . S
C388 C389 1.367 . S
C388 H402 0.951 . S
C389 C385 1.383 . S
C389 C388 1.367 . S
C389 H403 0.950 . S
C390 C387 1.481 . S
C390 C391 1.297 . S
C390 H404 0.950 . S
C391 C390 1.297 . S
C391 C392 1.479 . S
C391 H405 0.950 . S
C392 C391 1.479 . S
C392 C393 1.375 . S
C392 C398 1.404 . S
C393 C392 1.375 . S
C393 C394 1.369 1_554 S
C393 H406 0.950 . S
C394 C393 1.369 1_556 S
C394 C395 1.392 . S
C394 H407 0.951 . S
C395 C394 1.392 . S
C395 C397 1.384 . S
H396 C398 0.949 . S
C397 C395 1.384 . S
C397 C398 1.385 1_556 S
C397 H399 0.950 . S
C398 C392 1.404 . S
C398 H396 0.949 . S
C398 C397 1.385 1_554 S
H399 C397 0.950 . S
H400 C384 0.951 . S
H401 C386 0.951 . S
H402 C388 0.951 . S
H403 C389 0.950 . S
H404 C390 0.950 . S
H405 C391 0.950 . S
H406 C393 0.950 . S
H407 C394 0.951 . S
C408 C409 1.386 . S
C408 C410 1.383 . S
C408 H424 0.951 . S
C409 C408 1.386 . S
C409 C413 1.383 . S
C410 C408 1.383 . S
C410 C411 1.402 . S
C410 H425 0.951 . S
C411 C410 1.402 . S
C411 C412 1.375 . S
C411 C414 1.481 . S
C412 C411 1.375 . S
C412 C413 1.367 . S
C412 H426 0.951 . S
C413 C409 1.383 . S
C413 C412 1.367 . S
C413 H427 0.950 . S
C414 C411 1.481 . S
C414 C415 1.297 . S
C414 H428 0.950 . S
C415 C414 1.297 . S
C415 C416 1.479 . S
C415 H429 0.950 . S
C416 C415 1.479 . S
C416 C417 1.375 . S
C416 C422 1.404 . S
C417 C416 1.375 . S
C417 C418 1.369 . S
C417 H430 0.950 . S
C418 C417 1.369 . S
C418 C419 1.392 . S
C418 H431 0.951 . S
C419 C418 1.392 . S
C419 C421 1.384 . S
H420 C422 0.949 . S
C421 C419 1.384 . S
C421 C422 1.385 . S
C421 H423 0.950 . S
C422 C416 1.404 . S
C422 H420 0.949 . S
C422 C421 1.385 . S
H423 C421 0.950 . S
H424 C408 0.951 . S
H425 C410 0.951 . S
H426 C412 0.951 . S
H427 C413 0.950 . S
H428 C414 0.950 . S
H429 C415 0.950 . S
H430 C417 0.950 . S
H431 C418 0.951 . S
C432 C433 1.386 . S
C432 C434 1.383 . S
C432 H448 0.951 . S
C433 C432 1.386 . S
C433 C437 1.383 . S
C434 C432 1.383 . S
C434 C435 1.402 . S
C434 H449 0.951 . S
C435 C434 1.402 . S
C435 C436 1.375 . S
C435 C438 1.481 . S
C436 C435 1.375 . S
C436 C437 1.367 . S
C436 H450 0.951 . S
C437 C433 1.383 . S
C437 C436 1.367 . S
C437 H451 0.950 . S
C438 C435 1.481 . S
C438 C439 1.297 . S
C438 H452 0.950 . S
C439 C438 1.297 . S
C439 C440 1.479 . S
C439 H453 0.950 . S
C440 C439 1.479 . S
C440 C441 1.375 . S
C440 C446 1.404 . S
C441 C440 1.375 . S
C441 C442 1.369 . S
C441 H454 0.950 . S
C442 C441 1.369 . S
C442 C443 1.392 . S
C442 H455 0.951 . S
C443 C442 1.392 . S
C443 C445 1.384 . S
H444 C446 0.949 . S
C445 C443 1.384 . S
C445 C446 1.385 . S
C445 H447 0.950 . S
C446 C440 1.404 . S
C446 H444 0.949 . S
C446 C445 1.385 . S
H447 C445 0.950 . S
H448 C432 0.951 . S
H449 C434 0.951 . S
H450 C436 0.951 . S
H451 C437 0.950 . S
H452 C438 0.950 . S
H453 C439 0.950 . S
H454 C441 0.950 . S
H455 C442 0.951 . S
C456 C457 1.386 . S
C456 C458 1.383 . S
C456 H472 0.951 1_556 S
C457 C456 1.386 . S
C457 C461 1.383 . S
C458 C456 1.383 . S
C458 C459 1.402 . S
C458 H473 0.951 . S
C459 C458 1.402 . S
C459 C460 1.375 . S
C459 C462 1.481 . S
C460 C459 1.375 . S
C460 C461 1.367 . S
C460 H474 0.951 . S
C461 C457 1.383 . S
C461 C460 1.367 . S
C461 H475 0.950 . S
C462 C459 1.481 . S
C462 C463 1.297 . S
C462 H476 0.950 . S
C463 C462 1.297 . S
C463 C464 1.479 . S
C463 H477 0.950 . S
C464 C463 1.479 . S
C464 C465 1.375 . S
C464 C470 1.404 . S
C465 C464 1.375 . S
C465 C466 1.369 . S
C465 H478 0.950 . S
C466 C465 1.369 . S
C466 C467 1.392 . S
C466 H479 0.951 . S
C467 C466 1.392 . S
C467 C469 1.384 . S
H468 C470 0.949 . S
C469 C467 1.384 . S
C469 C470 1.385 . S
C469 H471 0.950 . S
C470 C464 1.404 . S
C470 H468 0.949 . S
C470 C469 1.385 . S
H471 C469 0.950 . S
H472 C456 0.951 1_554 S
H473 C458 0.951 . S
H474 C460 0.951 . S
H475 C461 0.950 . S
H476 C462 0.950 . S
H477 C463 0.950 . S
H478 C465 0.950 . S
H479 C466 0.951 . S
C480 C481 1.386 . S
C480 C482 1.383 . S
C480 H496 0.951 . S
C481 C480 1.386 . S
C481 C485 1.383 . S
C482 C480 1.383 . S
C482 C483 1.402 . S
C482 H497 0.951 . S
C483 C482 1.402 . S
C483 C484 1.375 . S
C483 C486 1.481 . S
C484 C483 1.375 . S
C484 C485 1.367 . S
C484 H498 0.951 . S
C485 C481 1.383 . S
C485 C484 1.367 . S
C485 H499 0.950 . S
C486 C483 1.481 . S
C486 C487 1.297 . S
C486 H500 0.950 . S
C487 C486 1.297 . S
C487 C488 1.479 . S
C487 H501 0.950 . S
C488 C487 1.479 . S
C488 C489 1.375 . S
C488 C494 1.404 . S
C489 C488 1.375 . S
C489 C490 1.369 . S
C489 H502 0.950 . S
C490 C489 1.369 . S
C490 C491 1.392 . S
C490 H503 0.951 . S
C491 C490 1.392 . S
C491 C493 1.384 . S
H492 C494 0.949 . S
C493 C491 1.384 . S
C493 C494 1.385 . S
C493 H495 0.950 . S
C494 C488 1.404 . S
C494 H492 0.949 . S
C494 C493 1.385 . S
H495 C493 0.950 . S
H496 C480 0.951 . S
H497 C482 0.951 . S
H498 C484 0.951 . S
H499 C485 0.950 . S
H500 C486 0.950 . S
H501 C487 0.950 . S
H502 C489 0.950 . S
H503 C490 0.951 . S
C504 C505 1.386 . S
C504 C506 1.383 . S
C504 H520 0.951 . S
C505 C504 1.386 . S
C505 C509 1.383 . S
C506 C504 1.383 . S
C506 C507 1.402 . S
C506 H521 0.951 . S
C507 C506 1.402 . S
C507 C508 1.375 . S
C507 C510 1.481 . S
C508 C507 1.375 . S
C508 C509 1.367 . S
C508 H522 0.951 . S
C509 C505 1.383 . S
C509 C508 1.367 . S
C509 H523 0.950 . S
C510 C507 1.481 . S
C510 C511 1.297 . S
C510 H524 0.950 . S
C511 C510 1.297 . S
C511 C512 1.479 . S
C511 H525 0.950 . S
C512 C511 1.479 . S
C512 C513 1.375 . S
C512 C518 1.404 . S
C513 C512 1.375 . S
C513 C514 1.369 . S
C513 H526 0.950 . S
C514 C513 1.369 . S
C514 C515 1.392 . S
C514 H527 0.951 . S
C515 C514 1.392 . S
C515 C517 1.384 . S
H516 C518 0.949 . S
C517 C515 1.384 . S
C517 C518 1.385 . S
C517 H519 0.950 . S
C518 C512 1.404 . S
C518 H516 0.949 . S
C518 C517 1.385 . S
H519 C517 0.950 . S
H520 C504 0.951 . S
H521 C506 0.951 . S
H522 C508 0.951 . S
H523 C509 0.950 . S
H524 C510 0.950 . S
H525 C511 0.950 . S
H526 C513 0.950 . S
H527 C514 0.951 . S
C528 C529 1.386 . S
C528 C530 1.383 . S
C528 H544 0.951 . S
C529 C528 1.386 . S
C529 C533 1.383 . S
C530 C528 1.383 . S
C530 C531 1.402 . S
C530 H545 0.951 . S
C531 C530 1.402 . S
C531 C532 1.375 . S
C531 C534 1.481 . S
C532 C531 1.375 . S
C532 C533 1.367 . S
C532 H546 0.951 . S
C533 C529 1.383 . S
C533 C532 1.367 . S
C533 H547 0.950 . S
C534 C531 1.481 . S
C534 C535 1.297 . S
C534 H548 0.950 . S
C535 C534 1.297 . S
C535 C536 1.479 . S
C535 H549 0.950 . S
C536 C535 1.479 . S
C536 C537 1.375 . S
C536 C542 1.404 . S
C537 C536 1.375 . S
C537 C538 1.369 . S
C537 H550 0.950 . S
C538 C537 1.369 . S
C538 C539 1.392 . S
C538 H551 0.951 . S
C539 C538 1.392 . S
C539 C541 1.384 . S
H540 C542 0.949 . S
C541 C539 1.384 . S
C541 C542 1.385 . S
C541 H543 0.950 . S
C542 C536 1.404 . S
C542 H540 0.949 . S
C542 C541 1.385 . S
H543 C541 0.950 . S
H544 C528 0.951 . S
H545 C530 0.951 . S
H546 C532 0.951 . S
H547 C533 0.950 . S
H548 C534 0.950 . S
H549 C535 0.950 . S
H550 C537 0.950 . S
H551 C538 0.951 . S
C121 C101 1.485 . S
C131 C16 1.444 . S
C145 C1 1.460 . S
C155 C36 1.452 . S
C169 C21 1.461 . S
C179 C56 1.350 . S
C193 C41 1.485 . S
C203 C76 1.446 . S
C217 C96 1.421 . S
C227 C61 1.432 . S
C241 C116 1.393 . S
C251 C81 1.479 . S
C265 C8 1.905 . S
C275 C19 1.826 . S
C289 C28 1.872 . S
C299 C39 1.844 . S
C313 C48 1.910 . S
C323 C59 1.838 . S
C337 C68 1.857 . S
C347 C79 1.917 . S
C361 C99 1.877 . S
C371 C88 1.838 . S
C385 C108 1.906 . S
C395 C119 1.827 . S
C409 C6 1.347 . S
C419 C89 1.404 . S
C433 C26 1.395 . S
C443 C109 1.447 . S
C457 C9 1.430 . S
C467 C46 1.428 . S
C481 C29 1.405 . S
C491 C66 1.410 . S
C505 C86 1.386 . S
C515 C49 1.376 . S
C529 C69 1.407 . S
C539 C106 1.413 . S
