# Generated by pormake.
# Topology snz, (6)-cn, num edge types: 1
# Building blocks:
#     Node 0, Type 0, BuildingBlock: CUWYAW_clean_sbu_0, # of connection points: 6
#     Node 1, Type 0, BuildingBlock: CUWYAW_clean_sbu_0, # of connection points: 6
#     Node 2, Type 0, BuildingBlock: CUWYAW_clean_sbu_0, # of connection points: 6
#     Node 3, Type 0, BuildingBlock: CUWYAW_clean_sbu_0, # of connection points: 6
#     Node 4, Type 0, BuildingBlock: CUWYAW_clean_sbu_0, # of connection points: 6
#     Node 5, Type 0, BuildingBlock: CUWYAW_clean_sbu_0, # of connection points: 6
#     Node 6, Type 0, BuildingBlock: CUWYAW_clean_sbu_0, # of connection points: 6
#     Node 7, Type 0, BuildingBlock: CUWYAW_clean_sbu_0, # of connection points: 6
#     Node 8, Type 0, BuildingBlock: CUWYAW_clean_sbu_0, # of connection points: 6
#     Edge 9, Type (0, 0), BuildingBlock: CIFDUS_clean_linker_0, # of connection points: 2
#     Edge 10, Type (0, 0), BuildingBlock: CIFDUS_clean_linker_0, # of connection points: 2
#     Edge 11, Type (0, 0), BuildingBlock: CIFDUS_clean_linker_0, # of connection points: 2
#     Edge 12, Type (0, 0), BuildingBlock: CIFDUS_clean_linker_0, # of connection points: 2
#     Edge 13, Type (0, 0), BuildingBlock: CIFDUS_clean_linker_0, # of connection points: 2
#     Edge 14, Type (0, 0), BuildingBlock: CIFDUS_clean_linker_0, # of connection points: 2
#     Edge 15, Type (0, 0), BuildingBlock: CIFDUS_clean_linker_0, # of connection points: 2
#     Edge 16, Type (0, 0), BuildingBlock: CIFDUS_clean_linker_0, # of connection points: 2
#     Edge 17, Type (0, 0), BuildingBlock: CIFDUS_clean_linker_0, # of connection points: 2
#     Edge 18, Type (0, 0), BuildingBlock: CIFDUS_clean_linker_0, # of connection points: 2
#     Edge 19, Type (0, 0), BuildingBlock: CIFDUS_clean_linker_0, # of connection points: 2
#     Edge 20, Type (0, 0), BuildingBlock: CIFDUS_clean_linker_0, # of connection points: 2
#     Edge 21, Type (0, 0), BuildingBlock: CIFDUS_clean_linker_0, # of connection points: 2
#     Edge 22, Type (0, 0), BuildingBlock: CIFDUS_clean_linker_0, # of connection points: 2
#     Edge 23, Type (0, 0), BuildingBlock: CIFDUS_clean_linker_0, # of connection points: 2
#     Edge 24, Type (0, 0), BuildingBlock: CIFDUS_clean_linker_0, # of connection points: 2
#     Edge 25, Type (0, 0), BuildingBlock: CIFDUS_clean_linker_0, # of connection points: 2
#     Edge 26, Type (0, 0), BuildingBlock: CIFDUS_clean_linker_0, # of connection points: 2
#     Edge 27, Type (0, 0), BuildingBlock: CIFDUS_clean_linker_0, # of connection points: 2
#     Edge 28, Type (0, 0), BuildingBlock: CIFDUS_clean_linker_0, # of connection points: 2
#     Edge 29, Type (0, 0), BuildingBlock: CIFDUS_clean_linker_0, # of connection points: 2
#     Edge 30, Type (0, 0), BuildingBlock: CIFDUS_clean_linker_0, # of connection points: 2
#     Edge 31, Type (0, 0), BuildingBlock: CIFDUS_clean_linker_0, # of connection points: 2
#     Edge 32, Type (0, 0), BuildingBlock: CIFDUS_clean_linker_0, # of connection points: 2
#     Edge 33, Type (0, 0), BuildingBlock: CIFDUS_clean_linker_0, # of connection points: 2
#     Edge 34, Type (0, 0), BuildingBlock: CIFDUS_clean_linker_0, # of connection points: 2
#     Edge 35, Type (0, 0), BuildingBlock: CIFDUS_clean_linker_0, # of connection points: 2
# Relax obj value: 0.161
# Max RMSD: 0.218
# Mean RMSD: 0.207
data_MOF--net-snz--node1-CUWYAW_clean_sbu_0--edge1-CIFDUS_clean_linker_0
_symmetry_space_group_name_H-M    P1
_symmetry_Int_Tables_number       1
_symmetry_cell_setting            triclinic
loop_
_symmetry_equiv_pos_as_xyz
'x, y, z'
_cell_length_a     61.241183
_cell_length_b     61.105316
_cell_length_c     12.909817
_cell_angle_alpha  90.59416
_cell_angle_beta   89.884515
_cell_angle_gamma 119.71513
loop_
_atom_site_label
_atom_site_type_symbol
_atom_site_fract_x
_atom_site_fract_y
_atom_site_fract_z
_atom_type_partial_charge
C0 C 0.12703 0.48841 0.00021 0.0
Eu1 Eu 0.16436 0.48123 0.04132 0.0
C2 C 0.11986 0.50787 0.01502 0.0
C3 C 0.1003 0.50348 0.08329 0.0
C4 C 0.0912 0.5203 0.08916 0.0
C5 C 0.10135 0.54164 0.02591 0.0
C6 C 0.1217 0.54661 0.96093 0.0
C7 C 0.13095 0.52993 0.9558 0.0
C8 C 0.17944 0.47631 0.23527 0.0
C9 C 0.21359 0.53559 0.07611 0.0
C10 C 0.25268 0.47695 0.10224 0.0
Eu11 Eu 0.21402 0.48182 0.04632 0.0
C12 C 0.27226 0.46908 0.11678 0.0
C13 C 0.29449 0.47942 0.05728 0.0
C14 C 0.3138 0.4737 0.07827 0.0
C15 C 0.31164 0.45754 0.15996 0.0
C16 C 0.28947 0.44766 0.22019 0.0
C17 C 0.27022 0.45321 0.1988 0.0
C18 C 0.20008 0.48802 0.853 0.0
C19 C 0.15966 0.42781 0.99075 0.0
O20 O 0.14535 0.49346 0.93524 0.0
O21 O 0.12786 0.47663 0.08297 0.0
O22 O 0.15623 0.4647 0.20379 0.0
O23 O 0.19323 0.49044 0.16443 0.0
O24 O 0.19056 0.5234 0.03879 0.0
O25 O 0.22569 0.52303 0.09852 0.0
O26 O 0.2306 0.46504 0.14713 0.0
O27 O 0.25325 0.49072 0.02401 0.0
O28 O 0.22334 0.49862 0.88418 0.0
O29 O 0.18606 0.47369 0.92286 0.0
O30 O 0.18387 0.43841 0.02132 0.0
O31 O 0.14871 0.44162 0.98483 0.0
H32 H 0.09151 0.48663 0.12987 0.0
H33 H 0.07577 0.51625 0.14114 0.0
H34 H 0.12973 0.56275 0.91025 0.0
H35 H 0.14613 0.5339 0.90253 0.0
H36 H 0.29711 0.49217 0.99478 0.0
H37 H 0.3303 0.48177 0.02943 0.0
H38 H 0.28699 0.4358 0.28588 0.0
H39 H 0.25384 0.44539 0.24842 0.0
C40 C 0.79118 0.60323 0.96043 0.0
Eu41 Eu 0.79847 0.64586 0.03264 0.0
C42 C 0.77415 0.57636 0.97665 0.0
C43 C 0.7709 0.5651 0.07413 0.0
C44 C 0.75388 0.53942 0.08538 0.0
C45 C 0.73978 0.5251 -0.00018 0.0
C46 C 0.743 0.53649 0.90307 0.0
C47 C 0.7601 0.56189 0.8916 0.0
C48 C 0.80132 0.66198 0.23556 0.0
C49 C 0.74682 0.64594 0.08167 0.0
C50 C 0.80552 0.74328 0.12817 0.0
Eu51 Eu 0.80133 0.7013 0.05161 0.0
C52 C 0.81362 0.77095 0.13531 0.0
C53 C 0.80246 0.78204 0.07538 0.0
C54 C 0.80741 0.80694 0.096 0.0
C55 C 0.82363 0.82162 0.17767 0.0
C56 C 0.83554 0.81064 0.23384 0.0
C57 C 0.83044 0.78586 0.21387 0.0
C58 C 0.7978 0.68514 0.84937 0.0
C59 C 0.85219 0.69596 0.98947 0.0
O60 O 0.78037 0.6153 0.92226 0.0
O61 O 0.80811 0.61601 0.0322 0.0
O62 O 0.8002 0.64086 0.20889 0.0
O63 O 0.8014 0.67282 0.15297 0.0
O64 O 0.75781 0.63362 0.04509 0.0
O65 O 0.75965 0.67114 0.09752 0.0
O66 O 0.82131 0.73523 0.15002 0.0
O67 O 0.78764 0.7283 0.06361 0.0
O68 O 0.79881 0.70624 0.87598 0.0
O69 O 0.79803 0.67443 0.93194 0.0
O70 O 0.84331 0.71114 0.02222 0.0
O71 O 0.83786 0.67127 0.98125 0.0
H72 H 0.78132 0.57607 0.14123 0.0
H73 H 0.75142 0.53083 0.16064 0.0
H74 H 0.73239 0.52566 0.83595 0.0
H75 H 0.76225 0.57033 0.81611 0.0
H76 H 0.78921 0.7712 0.01456 0.0
H77 H 0.7977 0.8142 0.05015 0.0
H78 H 0.84884 0.82104 0.295 0.0
H79 H 0.83923 0.77807 0.26263 0.0
C80 C 0.67622 0.15338 0.95674 0.0
Eu81 Eu 0.63395 0.11859 0.02952 0.0
C82 C 0.70319 0.16376 0.97119 0.0
C83 C 0.71329 0.15997 0.06232 0.0
C84 C 0.73909 0.16849 0.06904 0.0
C85 C 0.75485 0.18055 0.98421 0.0
C86 C 0.74433 0.18385 0.89305 0.0
C87 C 0.71879 0.17567 0.88701 0.0
C88 C 0.61777 0.10555 0.23122 0.0
C89 C 0.63503 0.06743 0.07881 0.0
C90 C 0.53786 0.02732 0.11772 0.0
Eu91 Eu 0.5792 0.06552 0.04423 0.0
C92 C 0.51062 1.00682 0.11909 0.0
C93 C 0.49921 0.98973 0.03611 0.0
C94 C 0.47464 0.9688 0.04482 0.0
C95 C 0.46057 0.96369 0.13776 0.0
C96 C 0.47222 0.98127 0.22006 0.0
C97 C 0.49656 1.00237 0.21051 0.0
C98 C 0.59571 0.07793 0.84331 0.0
C99 C 0.5829 0.12063 0.97597 0.0
O100 O 0.6644 0.13024 0.92049 0.0
O101 O 0.6638 0.15783 0.02938 0.0
O102 O 0.63856 0.1257 0.20619 0.0
O103 O 0.60714 0.0946 0.14771 0.0
O104 O 0.64692 0.09066 0.04401 0.0
O105 O 0.60988 0.05469 0.09179 0.0
O106 O 0.54463 0.05098 0.13863 0.0
O107 O 0.55368 1.02498 0.05602 0.0
O108 O 0.57488 0.05773 0.86798 0.0
O109 O 0.60607 0.08897 0.92709 0.0
O110 O 0.56821 0.09668 0.00824 0.0
O111 O 0.60772 0.13155 0.97445 0.0
H112 H 0.70125 0.15021 0.12724 0.0
H113 H 0.74665 0.16562 0.14012 0.0
H114 H 0.7557 0.19225 0.82499 0.0
H115 H 0.71108 0.17808 0.81529 0.0
H116 H 0.50941 0.9923 0.96451 0.0
H117 H 0.46691 0.95668 0.9776 0.0
H118 H 0.46307 0.9786 0.29417 0.0
H119 H 0.5048 1.01484 0.27679 0.0
C120 C 0.81189 1.02379 0.23541 0.0
Eu121 Eu 0.85069 1.01895 0.28891 0.0
C122 C 0.79186 0.03108 0.22249 0.0
C123 C 0.76878 1.01855 0.27604 0.0
C124 C 0.74921 1.02399 0.25692 0.0
C125 C 0.752 0.0421 0.18319 0.0
C126 C 0.77501 0.05414 0.12841 0.0
C127 C 0.7945 0.04883 0.14792 0.0
C128 C 0.86438 1.01252 0.48222 0.0
C129 C 0.90574 0.07247 0.34156 0.0
C130 C 0.93684 1.01036 0.32737 0.0
Eu131 Eu 0.89971 1.01846 0.29291 0.0
C132 C 0.94097 0.98862 0.32906 0.0
C133 C 0.95486 0.98537 0.24981 0.0
C134 C 0.95979 0.96543 0.25299 0.0
C135 C 0.95098 0.94851 0.33584 0.0
C136 C 0.93693 0.95167 0.41463 0.0
C137 C 0.93189 0.97147 0.41119 0.0
C138 C 0.88457 1.02408 0.09998 0.0
C139 C 0.84993 0.96495 0.26403 0.0
O140 O 0.83412 0.03649 0.19222 0.0
O141 O 0.81126 1.00929 0.31077 0.0
O142 O 0.84117 1.00222 0.45088 0.0
O143 O 0.87864 0.02665 0.41239 0.0
O144 O 0.88137 0.06215 0.31358 0.0
O145 O 0.91654 0.0585 0.34494 0.0
O146 O 0.92266 1.01156 0.40057 0.0
O147 O 0.93254 1.01694 0.23693 0.0
O148 O 0.90773 0.03593 0.13199 0.0
O149 O 0.87085 1.00971 0.17031 0.0
O150 O 0.87216 0.97675 0.3089 0.0
O151 O 0.839 0.97807 0.23374 0.0
H152 H 0.76571 1.00432 0.33246 0.0
H153 H 0.73204 1.01423 0.30121 0.0
H154 H 0.77802 0.06764 0.06866 0.0
H155 H 0.81159 0.05842 0.10289 0.0
H156 H 0.96212 0.9984 0.18587 0.0
H157 H 0.97056 0.9633 0.19096 0.0
H158 H 0.93036 0.93921 0.48053 0.0
H159 H 0.92124 0.97351 0.47389 0.0
C160 C 0.25626 0.75592 0.23801 0.0
Eu161 Eu 0.26334 0.80131 0.2819 0.0
C162 C 0.25223 0.72989 0.21387 0.0
C163 C 0.25133 0.71368 0.29292 0.0
C164 C 0.24776 0.6894 0.26985 0.0
C165 C 0.24519 0.68047 0.16659 0.0
C166 C 0.2457 0.69672 0.08803 0.0
C167 C 0.24911 0.72085 0.11119 0.0
C168 C 0.27303 0.82107 0.47798 0.0
C169 C 0.20914 0.80151 0.34088 0.0
C170 C 0.26886 0.89251 0.30763 0.0
Eu171 Eu 0.26131 0.84682 0.29063 0.0
C172 C 0.29065 0.91791 0.31742 0.0
C173 C 0.29373 0.93619 0.24529 0.0
C174 C 0.31402 0.96058 0.25363 0.0
C175 C 0.33142 0.96714 0.33505 0.0
C176 C 0.32852 0.94866 0.4063 0.0
C177 C 0.3084 0.92418 0.39717 0.0
C178 C 0.25211 0.82573 0.09555 0.0
C179 C 0.31623 0.85411 0.27031 0.0
O180 O 0.24973 0.76842 0.17547 0.0
O181 O 0.26696 0.76827 0.32324 0.0
O182 O 0.28542 0.81166 0.43176 0.0
O183 O 0.25608 0.81991 0.41801 0.0
O184 O 0.21988 0.78815 0.30722 0.0
O185 O 0.22273 0.82592 0.35059 0.0
O186 O 0.26383 0.87749 0.38629 0.0
O187 O 0.26646 0.88116 0.21887 0.0
O188 O 0.23803 0.83282 0.14353 0.0
O189 O 0.26954 0.82823 0.15566 0.0
O190 O 0.30244 0.86214 0.31667 0.0
O191 O 0.30485 0.83042 0.23419 0.0
H192 H 0.25341 0.71977 0.37314 0.0
H193 H 0.24761 0.67788 0.33328 0.0
H194 H 0.24327 0.69079 0.00761 0.0
H195 H 0.24953 0.73259 0.04803 0.0
H196 H 0.28036 0.9316 0.18261 0.0
H197 H 0.316 0.9743 0.19652 0.0
H198 H 0.34143 0.95322 0.47071 0.0
H199 H 0.3066 0.91033 0.45329 0.0
C200 C 0.52729 0.46963 0.24934 0.0
Eu201 Eu 0.48234 0.43213 0.29354 0.0
C202 C 0.55313 0.49121 0.22403 0.0
C203 C 0.56491 0.5134 0.28546 0.0
C204 C 0.58965 0.53297 0.26412 0.0
C205 C 0.60355 0.53105 0.18052 0.0
C206 C 0.59125 0.50909 0.11753 0.0
C207 C 0.56671 0.48959 0.13915 0.0
C208 C 0.46155 0.41742 0.48423 0.0
C209 C 0.48126 0.37667 0.34254 0.0
C210 C 0.38912 0.3452 0.32804 0.0
Eu211 Eu 0.43365 0.38266 0.29135 0.0
C212 C 0.36245 0.33764 0.31812 0.0
C213 C 0.34596 0.31385 0.27601 0.0
C214 C 0.32011 0.30449 0.27882 0.0
C215 C 0.31037 0.3188 0.32417 0.0
C216 C 0.32697 0.34329 0.36093 0.0
C217 C 0.35287 0.35264 0.35816 0.0
C218 C 0.45436 0.39864 0.09977 0.0
C219 C 0.42898 0.43276 0.26594 0.0
O220 O 0.51642 0.44832 0.19664 0.0
O221 O 0.5135 0.47057 0.32513 0.0
O222 O 0.47362 0.44082 0.4553 0.0
O223 O 0.4622 0.40356 0.41283 0.0
O224 O 0.49512 0.40144 0.32099 0.0
O225 O 0.45663 0.36571 0.34094 0.0
O226 O 0.40236 0.3629 0.39615 0.0
O227 O 0.40136 0.34702 0.24244 0.0
O228 O 0.44328 0.37531 0.12889 0.0
O229 O 0.45353 0.41212 0.17236 0.0
O230 O 0.41834 0.40941 0.29911 0.0
O231 O 0.45374 0.44534 0.24691 0.0
H232 H 0.55514 0.51548 0.35153 0.0
H233 H 0.59812 0.54927 0.31523 0.0
H234 H 0.6006 0.50676 0.05062 0.0
H235 H 0.55844 0.47304 0.08931 0.0
H236 H 0.35305 0.30207 0.24457 0.0
H237 H 0.3077 0.28573 0.24852 0.0
H238 H 0.31994 0.35468 0.39693 0.0
H239 H 0.36524 0.37107 0.39142 0.0
C240 C 0.47492 0.17549 0.6187 0.0
Eu241 Eu 0.50668 0.22291 0.63921 0.0
C242 C 0.45668 0.15649 0.54697 0.0
C243 C 0.43096 0.14823 0.55763 0.0
C244 C 0.41326 0.12661 0.50544 0.0
C245 C 0.4211 0.11299 0.44207 0.0
C246 C 0.44685 0.12233 0.42558 0.0
C247 C 0.46451 0.14385 0.47789 0.0
C248 C 0.50153 0.26314 0.56816 0.0
C249 C 0.5463 0.24862 0.45758 0.0
C250 C 0.58861 0.32153 0.70571 0.0
Eu251 Eu 0.55701 0.27417 0.68312 0.0
C252 C 0.60456 0.3404 0.78309 0.0
C253 C 0.63077 0.35207 0.77395 0.0
C254 C 0.64605 0.37436 0.82807 0.0
C255 C 0.63517 0.3852 0.89105 0.0
C256 C 0.60918 0.37227 0.90799 0.0
C257 C 0.59394 0.34994 0.85463 0.0
C258 C 0.56192 0.2337 0.75288 0.0
C259 C 0.51803 0.24816 0.86599 0.0
O260 O 0.49869 0.1857 0.59309 0.0
O261 O 0.46908 0.19133 0.66335 0.0
O262 O 0.4843 0.23951 0.56432 0.0
O263 O 0.52042 0.26375 0.61134 0.0
O264 O 0.52916 0.22714 0.4974 0.0
O265 O 0.55826 0.26964 0.5121 0.0
O266 O 0.56427 0.31166 0.7175 0.0
O267 O 0.5954 0.30546 0.67169 0.0
O268 O 0.5794 0.25723 0.75661 0.0
O269 O 0.54312 0.23343 0.7107 0.0
O270 O 0.535 0.26975 0.82647 0.0
O271 O 0.50609 0.22725 0.81082 0.0
H272 H 0.42443 0.15756 0.61083 0.0
H273 H 0.3935 0.11966 0.52023 0.0
H274 H 0.45335 0.11232 0.37604 0.0
H275 H 0.48423 0.14972 0.4683 0.0
H276 H 0.63934 0.34503 0.7193 0.0
H277 H 0.66611 0.38417 0.81372 0.0
H278 H 0.60054 0.38031 0.95712 0.0
H279 H 0.57377 0.34126 0.86403 0.0
C280 C 0.10607 0.26098 0.65861 0.0
Eu281 Eu 0.05886 0.24769 0.65908 0.0
C282 C 0.12733 0.26851 0.58769 0.0
C283 C 0.13057 0.25083 0.52909 0.0
C284 C 0.15247 0.25863 0.47127 0.0
C285 C 0.1714 0.28414 0.47176 0.0
C286 C 0.16763 0.30174 0.5281 0.0
C287 C 0.14585 0.29401 0.58514 0.0
C288 C 1.01719 0.20427 0.581 0.0
C289 C 1.03849 0.26408 0.46437 0.0
C290 C 0.96063 0.23744 0.68177 0.0
Eu291 Eu 1.00777 0.25099 0.67897 0.0
C292 C 0.94064 0.23595 0.74895 0.0
C293 C 0.93965 0.25747 0.78069 0.0
C294 C 0.9183 0.2549 0.83083 0.0
C295 C 0.89765 0.23081 0.84894 0.0
C296 C 0.89947 0.20943 0.82246 0.0
C297 C 0.92079 0.21201 0.77329 0.0
C298 C 0.04921 0.29465 0.75602 0.0
C299 C 1.02773 0.23304 0.87252 0.0
O300 O 0.09768 0.27688 0.66754 0.0
O301 O 0.0882 0.2373 0.65955 0.0
O302 O 0.03982 0.20756 0.58829 0.0
O303 O 1.01869 0.22433 0.61693 0.0
O304 O 0.05859 0.26651 0.51225 0.0
O305 O 1.01645 0.25599 0.50945 0.0
O306 O 0.96932 0.22234 0.7051 0.0
O307 O 0.97794 0.25966 0.6489 0.0
O308 O 1.02648 0.29113 0.74906 0.0
O309 O 0.04794 0.27466 0.72023 0.0
O310 O 1.00834 0.2328 0.82724 0.0
O311 O 0.04941 0.23975 0.82662 0.0
H312 H 0.11657 0.23101 0.52979 0.0
H313 H 0.1548 0.24466 0.42788 0.0
H314 H 0.18202 0.32141 0.53223 0.0
H315 H 0.14392 0.30799 0.63044 0.0
H316 H 0.95486 0.27619 0.76358 0.0
H317 H 0.91758 0.27173 0.85205 0.0
H318 H 0.88386 0.19058 0.83373 0.0
H319 H 0.92119 0.19514 0.74946 0.0
C320 C 1.0205 0.80965 0.61293 0.0
Eu321 Eu 1.033 0.77552 0.63948 0.0
C322 C 1.01947 0.82697 0.53776 0.0
C323 C 1.03624 0.85291 0.5472 0.0
C324 C 1.03179 0.86997 0.49343 0.0
C325 C 1.01045 0.86127 0.42979 0.0
C326 C 0.99477 0.83528 0.41422 0.0
C327 C 0.9992 0.81825 0.46786 0.0
C328 C 0.07565 0.77379 0.5756 0.0
C329 C 1.01739 0.73378 0.46175 0.0
C330 C 0.0415 0.68763 0.71714 0.0
Eu331 Eu 1.02883 0.72162 0.6915 0.0
C332 C 0.0438 0.67112 0.7923 0.0
C333 C 1.03335 0.64557 0.76689 0.0
C334 C 0.0408 0.63069 0.82019 0.0
C335 C 0.05885 0.64125 0.89968 0.0
C336 C 0.06766 0.6663 0.93105 0.0
C337 C 0.06013 0.68117 0.8779 0.0
C338 C 0.98613 0.72328 0.75533 0.0
C339 C 0.04406 0.7631 0.86972 0.0
O340 O 1.00536 0.78556 0.59572 0.0
O341 O 0.04243 0.8149 0.65185 0.0
O342 O 0.07219 0.7929 0.56123 0.0
O343 O 0.05627 0.75755 0.6223 0.0
O344 O 1.01405 0.75202 0.49982 0.0
O345 O 1.02455 0.7206 0.51872 0.0
O346 O 0.05698 0.71183 0.72901 0.0
O347 O 1.01898 0.682 0.68439 0.0
O348 O 0.98961 0.70415 0.76903 0.0
O349 O 1.00555 0.73965 0.70917 0.0
O350 O 0.04754 0.74495 0.83172 0.0
O351 O 1.03686 0.77624 0.81256 0.0
H352 H 0.05188 0.86008 0.60111 0.0
H353 H 0.04404 0.88994 0.50754 0.0
H354 H 0.97834 0.82812 0.36465 0.0
H355 H 0.98585 0.79833 0.45895 0.0
H356 H 1.02085 0.63756 0.70088 0.0
H357 H 1.03383 0.61146 0.79391 0.0
H358 H 0.08129 0.67471 0.99323 0.0
H359 H 0.06836 0.70087 0.89964 0.0
H360 H 0.22989 0.50644 0.68139 0.0
H361 H 0.15247 0.46212 0.77522 0.0
H362 H 0.13916 0.45393 0.59392 0.0
H363 H 0.14949 0.45873 0.40719 0.0
H364 H 0.22691 0.50302 0.31346 0.0
H365 H 0.24015 0.5116 0.49485 0.0
C366 C 0.21009 0.49515 0.6621 0.0
C367 C 0.19223 0.48495 0.74215 0.0
C368 C 0.20254 0.49027 0.55712 0.0
C369 C 0.16665 0.47026 0.71547 0.0
C370 C 0.15901 0.46547 0.61155 0.0
C371 C 0.16927 0.47012 0.4265 0.0
C372 C 0.18718 0.48009 0.34643 0.0
C373 C 0.17678 0.47519 0.53152 0.0
C374 C 0.21272 0.49501 0.37321 0.0
C375 C 0.22032 0.50001 0.47714 0.0
H376 H 0.79693 0.70857 0.67275 0.0
H377 H 0.80111 0.64423 0.7794 0.0
H378 H 0.80164 0.63105 0.60036 0.0
H379 H 0.80175 0.63832 0.41217 0.0
H380 H 0.79942 0.70368 0.30499 0.0
H381 H 0.79799 0.71634 0.48459 0.0
C382 C 0.79787 0.6916 0.65687 0.0
C383 C 0.79826 0.67698 0.74021 0.0
C384 C 0.79891 0.68458 0.55307 0.0
C385 C 0.79988 0.65531 0.71767 0.0
C386 C 0.80052 0.64797 0.61483 0.0
C387 C 0.80098 0.65538 0.42802 0.0
C388 C 0.80086 0.67015 0.34468 0.0
C389 C 0.80008 0.66248 0.5318 0.0
C390 C 0.79978 0.69212 0.36708 0.0
C391 C 0.79883 0.69928 0.47002 0.0
H392 H 0.57323 0.05333 0.66391 0.0
H393 H 0.63505 0.12304 0.77747 0.0
H394 H 0.64765 0.13723 0.59971 0.0
H395 H 0.64059 0.13011 0.4105 0.0
H396 H 0.57756 0.06118 0.29674 0.0
H397 H 0.56556 0.04666 0.47501 0.0
C398 C 0.58954 0.07161 0.64984 0.0
C399 C 0.60364 0.0868 0.73481 0.0
C400 C 0.59619 0.07992 0.54676 0.0
C401 C 0.62443 0.11057 0.7145 0.0
C402 C 0.63142 0.11882 0.61237 0.0
C403 C 0.62417 0.11191 0.42464 0.0
C404 C 0.60989 0.0968 0.33976 0.0
C405 C 0.61743 0.10368 0.52775 0.0
C406 C 0.58874 0.07328 0.36001 0.0
C407 C 0.58196 0.06493 0.4622 0.0
H408 H 0.83439 0.99425 0.65343 0.0
H409 H 0.91192 0.03817 0.56058 0.0
H410 H 0.92511 0.04625 0.74197 0.0
H411 H 0.91466 0.04152 0.9285 0.0
H412 H 0.83713 0.99763 0.0214 0.0
H413 H 0.82399 0.98913 0.83987 0.0
C414 C 0.85418 1.00543 0.67296 0.0
C415 C 0.87212 1.01553 0.59316 0.0
C416 C 0.86166 1.01027 0.77802 0.0
C417 C 0.89769 0.03007 0.62013 0.0
C418 C 0.90527 0.03482 0.72411 0.0
C419 C 0.89488 0.03025 0.90896 0.0
C420 C 0.8769 1.02039 0.98879 0.0
C421 C 0.88743 1.02521 0.8039 0.0
C422 C 0.85137 1.00557 0.96178 0.0
C423 C 0.84383 1.00062 0.85779 0.0
H424 H 0.23716 0.8219 0.60544 0.0
H425 H 0.30946 0.826 0.61164 0.0
H426 H 0.30955 0.82724 0.80097 0.0
H427 H 0.28871 0.8263 0.96746 0.0
H428 H 0.21628 0.82194 0.9609 0.0
H429 H 0.21655 0.82142 0.7717 0.0
C430 C 0.25302 0.82327 0.64823 0.0
C431 C 0.27329 0.82384 0.5936 0.0
C432 C 0.25282 0.82364 0.75819 0.0
C433 C 0.29357 0.82547 0.65105 0.0
C434 C 0.29361 0.82611 0.75978 0.0
C435 C 0.27291 0.82505 0.92466 0.0
C436 C 0.2524 0.82399 0.97938 0.0
C437 C 0.27324 0.82494 0.81464 0.0
C438 C 0.23227 0.82267 0.92169 0.0
C439 C 0.23243 0.82245 0.81296 0.0
H440 H 0.46152 0.44445 0.6542 0.0
H441 H 0.45434 0.37311 0.56209 0.0
H442 H 0.45238 0.36132 0.74316 0.0
H443 H 0.45313 0.37131 0.92919 0.0
H444 H 0.46002 0.44248 0.02194 0.0
H445 H 0.46142 0.4541 0.84058 0.0
C446 C 0.45934 0.42627 0.67395 0.0
C447 C 0.45809 0.40974 0.59452 0.0
C448 C 0.45823 0.41954 0.77886 0.0
C449 C 0.45521 0.38619 0.62141 0.0
C450 C 0.4542 0.37944 0.72521 0.0
C451 C 0.4551 0.38942 0.9096 0.0
C452 C 0.45673 0.40607 0.98923 0.0
C453 C 0.45584 0.396 0.80475 0.0
C454 C 0.45908 0.42941 0.96242 0.0
C455 C 0.45975 0.43604 0.85852 0.0
H456 H 0.51281 0.21499 0.3229 0.0
H457 H 0.58084 0.28742 0.34126 0.0
H458 H 0.576 0.29489 0.15964 0.0
H459 H 0.55181 0.28151 0.00049 0.0
H460 H 0.48376 0.20911 0.98205 0.0
H461 H 0.48871 0.20151 0.16345 0.0
C462 C 0.52694 0.23221 0.28696 0.0
C463 C 0.54722 0.25059 0.34495 0.0
C464 C 0.52353 0.23678 0.1847 0.0
C465 C 0.56516 0.27292 0.29756 0.0
C466 C 0.56222 0.27735 0.19452 0.0
C467 C 0.53772 0.26426 0.03635 0.0
C468 C 0.51734 0.24596 0.97851 0.0
C469 C 0.54117 0.25964 0.13846 0.0
C470 C 0.49948 0.22357 0.02571 0.0
C471 C 0.50248 0.21906 0.12861 0.0
H472 H 1.00175 0.23225 0.33789 0.0
H473 H 0.07778 0.29469 0.34264 0.0
H474 H 0.08223 0.28801 0.15838 0.0
H475 H 0.06461 0.26394 0.99899 0.0
H476 H 0.98853 0.20171 0.99344 0.0
H477 H 0.98421 0.20795 0.1785 0.0
C478 C 1.01905 0.24478 0.29777 0.0
C479 C 1.03932 0.26418 0.35195 0.0
C480 C 1.02173 0.24018 0.19398 0.0
C481 C 0.06191 0.27989 0.30085 0.0
C482 C 0.06454 0.27584 0.19652 0.0
C483 C 0.04738 0.25128 0.03925 0.0
C484 C 1.02703 0.2321 0.98474 0.0
C485 C 0.04474 0.25574 0.14319 0.0
C486 C 1.00446 0.2163 0.03571 0.0
C487 C 1.0019 0.22012 0.14042 0.0
H488 H 1.00777 0.7605 0.32219 0.0
H489 H 1.03311 0.7061 0.34872 0.0
H490 H 0.04703 0.71337 0.16918 0.0
H491 H 0.05353 0.73628 0.00929 0.0
H492 H 1.02816 0.79065 0.9826 0.0
H493 H 1.0142 0.78336 0.16211 0.0
C494 C 1.01599 0.7499 0.28862 0.0
C495 C 1.01945 0.73284 0.34886 0.0
C496 C 1.02485 0.75488 0.18735 0.0
C497 C 1.03003 0.71921 0.3038 0.0
C498 C 1.03839 0.72366 0.20181 0.0
C499 C 0.04528 0.74687 0.04279 0.0
C500 C 0.04185 0.76394 0.98256 0.0
C501 C 1.03639 0.74186 0.144 0.0
C502 C 1.03123 0.77754 0.02754 0.0
C503 C 1.02284 0.77308 0.1295 0.0
H504 H 0.37804 0.40829 0.2868 0.0
H505 H 0.43917 0.4793 0.18456 0.0
H506 H 0.40883 0.49328 0.14128 0.0
H507 H 0.36426 0.48519 0.13494 0.0
H508 H 0.30447 0.41237 0.23153 0.0
H509 H 0.33497 0.39973 0.27533 0.0
C510 C 0.38509 0.42699 0.25583 0.0
C511 C 0.41131 0.44275 0.24096 0.0
C512 C 0.36753 0.43473 0.23028 0.0
C513 C 0.41938 0.46672 0.19867 0.0
C514 C 0.40189 0.47469 0.17347 0.0
C515 C 0.35779 0.46648 0.16487 0.0
C516 C 0.33158 0.45013 0.18156 0.0
C517 C 0.37579 0.45885 0.18909 0.0
C518 C 0.32414 0.42595 0.22054 0.0
C519 C 0.34171 0.41847 0.24496 0.0
H520 H 0.82046 0.85822 0.05713 0.0
H521 H 0.83457 0.84428 0.37106 0.0
H522 H 0.84354 0.88604 0.42295 0.0
H523 H 0.84869 0.92761 0.3821 0.0
H524 H 0.83076 0.94131 0.07602 0.0
H525 H 0.82163 0.89897 0.0201 0.0
C526 C 0.8252 0.86402 0.13729 0.0
C527 C 0.82753 0.8476 0.2083 0.0
C528 C 0.82951 0.88832 0.16913 0.0
C529 C 0.83366 0.85621 0.31193 0.0
C530 C 0.8385 0.88027 0.34286 0.0
C531 C 0.84225 0.92117 0.30362 0.0
C532 C 0.84003 0.93769 0.2342 0.0
C533 C 0.8367 0.89661 0.27238 0.0
C534 C 0.83203 0.92895 0.13228 0.0
C535 C 0.82706 0.90472 0.09992 0.0
H536 H 0.42232 0.95443 0.27935 0.0
H537 H 0.43816 0.91833 0.02347 0.0
H538 H 0.39649 0.88171 0.03962 0.0
H539 H 0.35395 0.8589 0.12661 0.0
H540 H 0.34183 0.89503 0.39263 0.0
H541 H 0.38306 0.93128 0.3729 0.0
C542 C 0.41733 0.93861 0.22755 0.0
C543 C 0.43438 0.94023 0.14934 0.0
C544 C 0.39334 0.91678 0.23943 0.0
C545 C 0.42604 0.91887 0.08315 0.0
C546 C 0.40194 0.89736 0.09307 0.0
C547 C 0.3605 0.87439 0.1817 0.0
C548 C 0.34404 0.87361 0.26126 0.0
C549 C 0.3852 0.89592 0.17113 0.0
C550 C 0.35339 0.89452 0.33008 0.0
C551 C 0.37727 0.91563 0.31901 0.0
H552 H 0.6094 0.16692 0.88803 0.0
H553 H 0.53331 0.1125 0.97012 0.0
H554 H 0.51902 0.14119 0.9046 0.0
H555 H 0.52892 0.18355 0.82603 0.0
H556 H 0.60636 0.23584 0.75084 0.0
H557 H 0.61887 0.20631 0.81062 0.0
C558 C 0.58954 0.16093 0.89254 0.0
C559 C 0.5726 0.13715 0.93571 0.0
C560 C 0.58156 0.17749 0.85481 0.0
C561 C 0.54701 0.13045 0.93827 0.0
C562 C 0.53883 0.14702 0.90042 0.0
C563 C 0.54845 0.1883 0.8215 0.0
C564 C 0.56663 0.21236 0.78271 0.0
C565 C 0.55596 0.17083 0.85843 0.0
C566 C 0.59183 0.21787 0.77967 0.0
C567 C 0.59914 0.20087 0.81429 0.0
H568 H 0.09278 0.30901 0.88044 0.0
H569 H 0.05606 0.33878 0.68939 0.0
H570 H 0.08691 0.38145 0.74089 0.0
H571 H 0.12248 0.41078 0.8467 0.0
H572 H 0.16097 0.38384 0.04138 0.0
H573 H 0.13181 0.34027 0.98232 0.0
C574 C 0.0919 0.32487 0.84835 0.0
C575 C 0.07184 0.32028 0.77952 0.0
C576 C 0.10999 0.35011 0.88018 0.0
C577 C 0.07102 0.34136 0.7415 0.0
C578 C 0.08873 0.36597 0.77142 0.0
C579 C 0.12479 0.39551 0.87648 0.0
C580 C 0.14415 0.40099 0.94959 0.0
C581 C 0.10798 0.37062 0.84199 0.0
C582 C 0.14657 0.38057 0.98506 0.0
C583 C 0.12968 0.35551 0.9513 0.0
H584 H 0.95462 0.69681 0.91192 0.0
H585 H 0.96585 0.75254 0.68558 0.0
H586 H 0.9269 0.7514 0.74171 0.0
H587 H 0.88709 0.73174 0.84963 0.0
H588 H 0.87857 0.67732 0.07931 0.0
H589 H 0.9183 0.68074 0.02791 0.0
C590 C 0.94878 0.70897 0.87527 0.0
C591 C 0.96352 0.72479 0.79417 0.0
C592 C 0.92644 0.70841 0.90916 0.0
C593 C 0.95535 0.74037 0.74863 0.0
C594 C 0.93281 0.73958 0.78067 0.0
C595 C 0.89441 0.72141 0.8911 0.0
C596 C 0.8797 0.70467 0.97085 0.0
C597 C 0.91791 0.72347 0.86066 0.0
C598 C 0.8894 0.69075 0.01978 0.0
C599 C 0.91217 0.69249 0.98962 0.0
H600 H 1.03517 0.59237 0.9564 0.0
H601 H 0.10866 0.65821 0.93033 0.0
H602 H 0.12838 0.63345 0.97728 0.0
H603 H 0.12473 0.59257 0.0133 0.0
H604 H 0.05126 0.52612 0.02467 0.0
H605 H 1.0315 0.55174 0.99753 0.0
C606 C 0.05549 0.60128 0.96189 0.0
C607 C 0.07044 0.62699 0.94064 0.0
C608 C 0.06668 0.58686 0.98619 0.0
C609 C 0.09674 0.63848 0.94839 0.0
C610 C 0.10804 0.62431 0.97418 0.0
C611 C 0.1044 0.58373 0.01001 0.0
C612 C 0.0895 0.55754 0.02081 0.0
C613 C 0.09318 0.59842 0.9914 0.0
C614 C 0.06316 0.54633 0.0181 0.0
C615 C 0.05183 0.5609 0.00159 0.0
H616 H 0.69138 0.50221 0.94398 0.0
H617 H 0.74809 0.48827 0.07347 0.0
H618 H 0.71952 0.44268 0.05866 0.0
H619 H 0.6799 0.40725 0.9919 0.0
H620 H 0.6241 0.42212 0.85822 0.0
H621 H 0.65087 0.46709 0.89118 0.0
C622 C 0.69725 0.48909 0.97029 0.0
C623 C 0.72161 0.4982 0.00891 0.0
C624 C 0.68103 0.46325 0.95991 0.0
C625 C 0.72923 0.48137 0.0439 0.0
C626 C 0.71304 0.45544 0.03461 0.0
C627 C 0.67359 0.42041 0.97181 0.0
C628 C 0.65016 0.41162 0.92388 0.0
C629 C 0.68914 0.44622 0.99022 0.0
C630 C 0.64196 0.4286 0.89717 0.0
C631 C 0.65728 0.45426 0.91519 0.0
H632 H 0.86403 0.19546 0.98008 0.0
H633 H 0.87613 0.25868 0.79258 0.0
H634 H 0.83384 0.2504 0.83065 0.0
H635 H 0.79255 0.22335 0.90395 0.0
H636 H 0.7782 0.15669 0.07116 0.0
H637 H 0.82245 0.16844 0.05564 0.0
C638 C 0.85744 0.20749 0.94785 0.0
C639 C 0.87329 0.22772 0.88395 0.0
C640 C 0.83272 0.20198 0.96625 0.0
C641 C 0.86458 0.24332 0.84391 0.0
C642 C 0.84028 0.23844 0.86459 0.0
C643 C 0.79904 0.2113 0.93681 0.0
C644 C 0.78205 0.18903 0.98741 0.0
C645 C 0.82408 0.21753 0.92369 0.0
C646 C 0.79092 0.17404 0.03235 0.0
C647 C 0.81616 0.18061 0.02266 0.0
H648 H 0.68616 0.09313 0.08167 0.0
H649 H 0.62398 1.01873 0.13979 0.0
H650 H 0.65417 1.00419 0.17868 0.0
H651 H 0.69905 1.01284 0.19165 0.0
H652 H 0.75924 0.08878 0.13737 0.0
H653 H 0.7289 0.10199 0.09993 0.0
C654 C 0.67874 0.07356 0.10229 0.0
C655 C 0.65232 0.05708 0.10611 0.0
C656 C 0.69612 0.06545 0.12457 0.0
C657 C 0.64393 0.03198 0.1351 0.0
C658 C 0.66133 1.02366 0.15739 0.0
C659 C 0.70559 0.03232 0.17234 0.0
C660 C 0.73195 0.04951 0.16537 0.0
C661 C 0.68761 0.04023 0.15188 0.0
C662 C 0.73952 0.07468 0.14029 0.0
C663 C 0.72203 0.08244 0.11971 0.0
H664 H 0.22213 0.63524 0.27677 0.0
H665 H 0.26326 0.66735 0.99493 0.0
H666 H 0.25884 0.62685 0.94547 0.0
H667 H 0.24206 0.58115 0.97708 0.0
H668 H 0.20169 0.54902 0.25895 0.0
H669 H 0.20733 0.59009 0.31293 0.0
C670 C 0.23045 0.63363 0.20501 0.0
C671 C 0.24279 0.65493 0.13968 0.0
C672 C 0.22816 0.60993 0.17676 0.0
C673 C 0.25306 0.65167 0.04654 0.0
C674 C 0.25078 0.62833 0.01819 0.0
C675 C 0.23519 0.58332 0.05174 0.0
C676 C 0.22222 0.56196 0.11538 0.0
C677 C 0.23828 0.6072 0.08208 0.0
C678 C 0.21253 0.56514 0.20992 0.0
C679 C 0.21551 0.58869 0.24038 0.0
H680 H 0.71911 0.59487 0.0597 0.0
H681 H 0.7112 0.65784 0.16503 0.0
H682 H 0.6667 0.62843 0.20656 0.0
H683 H 0.62943 0.584 0.21046 0.0
H684 H 0.64095 0.52279 0.10929 0.0
H685 H 0.68422 0.55242 0.06839 0.0
C686 C 0.70797 0.60265 0.09145 0.0
C687 C 0.7191 0.62909 0.10779 0.0
C688 C 0.68259 0.58566 0.11568 0.0
C689 C 0.7036 0.63789 0.15022 0.0
C690 C 0.67801 0.62092 0.17429 0.0
C691 C 0.64138 0.57707 0.17995 0.0
C692 C 0.63102 0.55068 0.16097 0.0
C693 C 0.66716 0.59462 0.15719 0.0
C694 C 0.64741 0.54262 0.1218 0.0
C695 C 0.67254 0.55969 0.09907 0.0
H696 H 0.96402 0.85566 0.43769 0.0
H697 H 0.03988 0.90702 0.34008 0.0
H698 H 1.02766 0.93834 0.29601 0.0
H699 H 0.99608 0.95189 0.29762 0.0
H700 H 0.92011 0.89988 0.39253 0.0
H701 H 0.93174 0.86774 0.42487 0.0
C702 C 0.97774 0.87344 0.40414 0.0
C703 C 1.00276 0.87906 0.39141 0.0
C704 C 0.97063 0.89122 0.37961 0.0
C705 C 1.02052 0.90242 0.3508 0.0
C706 C 1.01355 0.92026 0.3256 0.0
C707 C 0.98195 0.93334 0.3231 0.0
C708 C 0.95734 0.92827 0.34346 0.0
C709 C 0.98875 0.91498 0.34135 0.0
C710 C 0.93928 0.90429 0.37797 0.0
C711 C 0.94588 0.88591 0.39606 0.0
H712 H 0.42557 0.07133 0.44773 0.0
H713 H 0.37511 0.09787 0.35495 0.0
H714 H 0.34298 0.05477 0.30991 0.0
H715 H 0.32867 1.00964 0.30787 0.0
H716 H 0.38001 0.98355 0.39341 0.0
H717 H 0.41263 0.02677 0.4307 0.0
C718 C 0.40778 0.0678 0.41513 0.0
C719 C 0.40267 0.08766 0.40406 0.0
C720 C 0.38958 0.04317 0.38946 0.0
C721 C 0.37932 0.08275 0.36457 0.0
C722 C 0.36102 0.0582 0.33878 0.0
C723 C 0.34716 1.01342 0.33238 0.0
C724 C 0.35187 0.99342 0.34857 0.0
C725 C 0.36586 0.03825 0.35239 0.0
C726 C 0.37579 0.99861 0.38225 0.0
C727 C 0.39448 1.02329 0.40295 0.0
H728 H 0.19799 0.25951 0.46807 0.0
H729 H 0.2002 0.32763 0.36556 0.0
H730 H 0.24342 0.34419 0.30767 0.0
H731 H 0.28123 0.3402 0.29478 0.0
H732 H 0.27864 0.27185 0.3959 0.0
H733 H 0.23448 0.25404 0.44163 0.0
C734 C 0.20763 0.27766 0.43035 0.0
C735 C 0.19595 0.29237 0.42176 0.0
C736 C 0.23236 0.28699 0.39662 0.0
C737 C 0.20893 0.31609 0.37454 0.0
C738 C 0.2336 0.32555 0.3411 0.0
C739 C 0.27091 0.32137 0.32635 0.0
C740 C 0.2831 0.30737 0.34208 0.0
C741 C 0.24563 0.31135 0.35353 0.0
C742 C 0.26954 0.28287 0.38191 0.0
C743 C 0.24436 0.27275 0.40886 0.0
H744 H 0.53486 0.31595 0.52466 0.0
H745 H 0.45669 0.25762 0.52414 0.0
H746 H 0.44459 0.28649 0.45468 0.0
H747 H 0.45462 0.3271 0.39097 0.0
H748 H 0.53117 0.38821 0.3876 0.0
H749 H 0.54514 0.35976 0.45957 0.0
C750 C 0.5152 0.30964 0.51002 0.0
C751 C 0.49679 0.28403 0.53065 0.0
C752 C 0.5079 0.32688 0.46788 0.0
C753 C 0.47149 0.27672 0.50973 0.0
C754 C 0.46438 0.29337 0.46939 0.0
C755 C 0.47453 0.33464 0.40507 0.0
C756 C 0.49171 0.36019 0.38188 0.0
C757 C 0.48227 0.31832 0.44738 0.0
C758 C 0.51732 0.36879 0.4028 0.0
C759 C 0.5253 0.35239 0.44477 0.0
H760 H 0.94259 0.08863 0.48656 0.0
H761 H 0.90551 0.11697 0.29102 0.0
H762 H 0.93518 0.16029 0.35123 0.0
H763 H 0.97415 0.19087 0.45496 0.0
H764 H 1.00947 0.15977 0.64681 0.0
H765 H 0.97819 0.11737 0.59381 0.0
C766 C 0.94071 0.10417 0.4569 0.0
C767 C 0.92159 0.09917 0.38325 0.0
C768 C 0.95779 0.1289 0.49215 0.0
C769 C 0.91971 0.11989 0.34782 0.0
C770 C 0.93689 0.1448 0.38225 0.0
C771 C 0.97463 0.17478 0.48683 0.0
C772 C 0.9944 0.17888 0.55642 0.0
C773 C 0.95631 0.14972 0.45409 0.0
C774 C 0.99472 0.15753 0.59417 0.0
C775 C 0.97677 0.13309 0.56339 0.0
H776 H 0.10478 0.79672 0.40781 0.0
H777 H 0.09829 0.74805 0.65841 0.0
H778 H 0.13753 0.74958 0.60395 0.0
H779 H 0.17638 0.76813 0.49096 0.0
H780 H 0.18038 0.81527 0.23724 0.0
H781 H 0.14011 0.81103 0.28643 0.0
C782 C 0.1117 0.78611 0.44995 0.0
C783 C 0.09821 0.77215 0.53728 0.0
C784 C 0.1342 0.78685 0.41703 0.0
C785 C 0.10776 0.75861 0.59019 0.0
C786 C 0.13047 0.75968 0.55921 0.0
C787 C 0.16788 0.77649 0.44372 0.0
C788 C 0.18137 0.79135 0.35749 0.0
C789 C 0.14415 0.77398 0.473 0.0
C790 C 0.17033 0.80306 0.30134 0.0
C791 C 0.1473 0.80092 0.33038 0.0
loop_
_geom_bond_atom_site_label_1
_geom_bond_atom_site_label_2
_geom_bond_distance
_geom_bond_site_symmetry_2
_ccdc_geom_bond_type
C0 Eu1 2.835 . S
C0 C2 1.500 . S
C0 O20 1.257 . S
C0 O21 1.260 . S
Eu1 C0 2.835 . S
Eu1 O20 2.473 . S
Eu1 O21 2.480 . S
Eu1 O22 2.430 . S
Eu1 O23 2.670 . S
Eu1 O24 2.394 . S
Eu1 O29 2.355 . S
Eu1 O31 2.374 . S
C2 C0 1.500 . S
C2 C3 1.377 . S
C2 C7 1.377 1_554 S
C3 C2 1.377 . S
C3 C4 1.395 . S
C3 H32 0.931 . S
C4 C3 1.395 . S
C4 C5 1.383 . S
C4 H33 0.931 . S
C5 C4 1.383 . S
C5 C6 1.394 1_554 S
C6 C5 1.394 1_556 S
C6 C7 1.378 . S
C6 H34 0.931 . S
C7 C2 1.377 1_556 S
C7 C6 1.378 . S
C7 H35 0.931 . S
C8 O22 1.259 . S
C8 O23 1.270 . S
C9 O24 1.251 . S
C9 O25 1.251 . S
C10 Eu11 2.835 . S
C10 C12 1.500 . S
C10 O26 1.257 . S
C10 O27 1.260 . S
Eu11 C10 2.835 . S
Eu11 O23 2.355 . S
Eu11 O25 2.374 . S
Eu11 O26 2.473 . S
Eu11 O27 2.480 . S
Eu11 O28 2.430 1_554 S
Eu11 O29 2.670 . S
Eu11 O30 2.394 . S
C12 C10 1.500 . S
C12 C13 1.377 . S
C12 C17 1.377 . S
C13 C12 1.377 . S
C13 C14 1.395 . S
C13 H36 0.931 . S
C14 C13 1.395 . S
C14 C15 1.383 . S
C14 H37 0.931 . S
C15 C14 1.383 . S
C15 C16 1.394 . S
C16 C15 1.394 . S
C16 C17 1.378 . S
C16 H38 0.931 . S
C17 C12 1.377 . S
C17 C16 1.378 . S
C17 H39 0.931 . S
C18 O28 1.259 . S
C18 O29 1.270 1_556 S
C19 O30 1.251 . S
C19 O31 1.251 . S
O20 C0 1.257 . S
O20 Eu1 2.473 . S
O21 C0 1.260 . S
O21 Eu1 2.480 . S
O22 Eu1 2.430 . S
O22 C8 1.259 . S
O23 Eu1 2.670 . S
O23 C8 1.270 . S
O23 Eu11 2.355 . S
O24 Eu1 2.394 . S
O24 C9 1.251 . S
O25 C9 1.251 . S
O25 Eu11 2.374 . S
O26 C10 1.257 . S
O26 Eu11 2.473 . S
O27 C10 1.260 . S
O27 Eu11 2.480 . S
O28 Eu11 2.430 1_556 S
O28 C18 1.259 . S
O29 Eu1 2.355 . S
O29 Eu11 2.670 . S
O29 C18 1.270 1_554 S
O30 Eu11 2.394 . S
O30 C19 1.251 . S
O31 Eu1 2.374 . S
O31 C19 1.251 . S
H32 C3 0.931 . S
H33 C4 0.931 . S
H34 C6 0.931 . S
H35 C7 0.931 . S
H36 C13 0.931 . S
H37 C14 0.931 . S
H38 C16 0.931 . S
H39 C17 0.931 . S
C40 Eu41 2.835 . S
C40 C42 1.500 . S
C40 O60 1.257 . S
C40 O61 1.260 . S
Eu41 C40 2.835 . S
Eu41 O60 2.473 . S
Eu41 O61 2.480 . S
Eu41 O62 2.430 . S
Eu41 O63 2.670 . S
Eu41 O64 2.394 . S
Eu41 O69 2.355 . S
Eu41 O71 2.374 . S
C42 C40 1.500 . S
C42 C43 1.377 . S
C42 C47 1.377 1_554 S
C43 C42 1.377 . S
C43 C44 1.395 . S
C43 H72 0.931 . S
C44 C43 1.395 . S
C44 C45 1.383 . S
C44 H73 0.931 . S
C45 C44 1.383 . S
C45 C46 1.394 1_554 S
C46 C45 1.394 1_556 S
C46 C47 1.378 . S
C46 H74 0.931 . S
C47 C42 1.377 1_556 S
C47 C46 1.378 . S
C47 H75 0.931 . S
C48 O62 1.259 . S
C48 O63 1.270 . S
C49 O64 1.251 . S
C49 O65 1.251 . S
C50 Eu51 2.835 . S
C50 C52 1.500 . S
C50 O66 1.257 . S
C50 O67 1.260 . S
Eu51 C50 2.835 . S
Eu51 O63 2.355 . S
Eu51 O65 2.374 . S
Eu51 O66 2.473 . S
Eu51 O67 2.480 . S
Eu51 O68 2.430 1_554 S
Eu51 O69 2.670 . S
Eu51 O70 2.394 . S
C52 C50 1.500 . S
C52 C53 1.377 . S
C52 C57 1.377 . S
C53 C52 1.377 . S
C53 C54 1.395 . S
C53 H76 0.931 . S
C54 C53 1.395 . S
C54 C55 1.383 . S
C54 H77 0.931 . S
C55 C54 1.383 . S
C55 C56 1.394 . S
C56 C55 1.394 . S
C56 C57 1.378 . S
C56 H78 0.931 . S
C57 C52 1.377 . S
C57 C56 1.378 . S
C57 H79 0.931 . S
C58 O68 1.259 . S
C58 O69 1.270 1_556 S
C59 O70 1.251 . S
C59 O71 1.251 . S
O60 C40 1.257 . S
O60 Eu41 2.473 . S
O61 C40 1.260 . S
O61 Eu41 2.480 . S
O62 Eu41 2.430 . S
O62 C48 1.259 . S
O63 Eu41 2.670 . S
O63 C48 1.270 . S
O63 Eu51 2.355 . S
O64 Eu41 2.394 . S
O64 C49 1.251 . S
O65 C49 1.251 . S
O65 Eu51 2.374 . S
O66 C50 1.257 . S
O66 Eu51 2.473 . S
O67 C50 1.260 . S
O67 Eu51 2.480 . S
O68 Eu51 2.430 1_556 S
O68 C58 1.259 . S
O69 Eu41 2.355 . S
O69 Eu51 2.670 . S
O69 C58 1.270 1_554 S
O70 Eu51 2.394 . S
O70 C59 1.251 . S
O71 Eu41 2.374 . S
O71 C59 1.251 . S
H72 C43 0.931 . S
H73 C44 0.931 . S
H74 C46 0.931 . S
H75 C47 0.931 . S
H76 C53 0.931 . S
H77 C54 0.931 . S
H78 C56 0.931 . S
H79 C57 0.931 . S
C80 Eu81 2.835 . S
C80 C82 1.500 . S
C80 O100 1.257 . S
C80 O101 1.260 . S
Eu81 C80 2.835 . S
Eu81 O100 2.473 . S
Eu81 O101 2.480 . S
Eu81 O102 2.430 . S
Eu81 O103 2.670 . S
Eu81 O104 2.394 . S
Eu81 O109 2.355 . S
Eu81 O111 2.374 . S
C82 C80 1.500 . S
C82 C83 1.377 . S
C82 C87 1.377 1_554 S
C83 C82 1.377 . S
C83 C84 1.395 . S
C83 H112 0.931 . S
C84 C83 1.395 . S
C84 C85 1.383 . S
C84 H113 0.931 . S
C85 C84 1.383 . S
C85 C86 1.394 1_554 S
C86 C85 1.394 1_556 S
C86 C87 1.378 . S
C86 H114 0.931 . S
C87 C82 1.377 1_556 S
C87 C86 1.378 . S
C87 H115 0.931 . S
C88 O102 1.259 . S
C88 O103 1.270 . S
C89 O104 1.251 . S
C89 O105 1.251 . S
C90 Eu91 2.835 . S
C90 C92 1.500 . S
C90 O106 1.257 . S
C90 O107 1.260 . S
Eu91 C90 2.835 . S
Eu91 O103 2.355 . S
Eu91 O105 2.374 . S
Eu91 O106 2.473 . S
Eu91 O107 2.480 . S
Eu91 O108 2.430 1_554 S
Eu91 O109 2.670 . S
Eu91 O110 2.394 . S
C92 C90 1.500 . S
C92 C93 1.377 . S
C92 C97 1.377 . S
C93 C92 1.377 . S
C93 C94 1.395 1_545 S
C93 H116 0.931 . S
C94 C93 1.395 1_565 S
C94 C95 1.383 . S
C94 H117 0.931 . S
C95 C94 1.383 . S
C95 C96 1.394 1_565 S
C96 C95 1.394 1_545 S
C96 C97 1.378 . S
C96 H118 0.931 . S
C97 C92 1.377 . S
C97 C96 1.378 . S
C97 H119 0.931 . S
C98 O108 1.259 . S
C98 O109 1.270 1_556 S
C99 O110 1.251 . S
C99 O111 1.251 . S
O100 C80 1.257 . S
O100 Eu81 2.473 . S
O101 C80 1.260 . S
O101 Eu81 2.480 . S
O102 Eu81 2.430 . S
O102 C88 1.259 . S
O103 Eu81 2.670 . S
O103 C88 1.270 . S
O103 Eu91 2.355 . S
O104 Eu81 2.394 . S
O104 C89 1.251 . S
O105 C89 1.251 . S
O105 Eu91 2.374 . S
O106 C90 1.257 . S
O106 Eu91 2.473 . S
O107 C90 1.260 . S
O107 Eu91 2.480 . S
O108 Eu91 2.430 1_556 S
O108 C98 1.259 . S
O109 Eu81 2.355 . S
O109 Eu91 2.670 . S
O109 C98 1.270 1_554 S
O110 Eu91 2.394 . S
O110 C99 1.251 . S
O111 Eu81 2.374 . S
O111 C99 1.251 . S
H112 C83 0.931 . S
H113 C84 0.931 . S
H114 C86 0.931 . S
H115 C87 0.931 . S
H116 C93 0.931 . S
H117 C94 0.931 . S
H118 C96 0.931 . S
H119 C97 0.931 . S
C120 Eu121 2.835 1_545 S
C120 C122 1.500 . S
C120 O140 1.257 . S
C120 O141 1.260 . S
Eu121 C120 2.835 1_565 S
Eu121 O140 2.473 1_565 S
Eu121 O141 2.480 1_565 S
Eu121 O142 2.430 . S
Eu121 O143 2.670 . S
Eu121 O144 2.394 1_565 S
Eu121 O149 2.355 . S
Eu121 O151 2.374 . S
C122 C120 1.500 . S
C122 C123 1.377 . S
C122 C127 1.377 . S
C123 C122 1.377 . S
C123 C124 1.395 . S
C123 H152 0.931 . S
C124 C123 1.395 . S
C124 C125 1.383 . S
C124 H153 0.931 . S
C125 C124 1.383 . S
C125 C126 1.394 . S
C126 C125 1.394 . S
C126 C127 1.378 . S
C126 H154 0.931 1_554 S
C127 C122 1.377 . S
C127 C126 1.378 . S
C127 H155 0.931 . S
C128 O142 1.259 . S
C128 O143 1.270 . S
C129 O144 1.251 . S
C129 O145 1.251 . S
C130 Eu131 2.835 . S
C130 C132 1.500 . S
C130 O146 1.257 . S
C130 O147 1.260 . S
Eu131 C130 2.835 . S
Eu131 O143 2.355 . S
Eu131 O145 2.374 1_565 S
Eu131 O146 2.473 . S
Eu131 O147 2.480 . S
Eu131 O148 2.430 . S
Eu131 O149 2.670 . S
Eu131 O150 2.394 . S
C132 C130 1.500 . S
C132 C133 1.377 . S
C132 C137 1.377 . S
C133 C132 1.377 . S
C133 C134 1.395 . S
C133 H156 0.931 . S
C134 C133 1.395 . S
C134 C135 1.383 . S
C134 H157 0.931 . S
C135 C134 1.383 . S
C135 C136 1.394 . S
C136 C135 1.394 . S
C136 C137 1.378 . S
C136 H158 0.931 . S
C137 C132 1.377 . S
C137 C136 1.378 . S
C137 H159 0.931 . S
C138 O148 1.259 . S
C138 O149 1.270 . S
C139 O150 1.251 . S
C139 O151 1.251 . S
O140 C120 1.257 . S
O140 Eu121 2.473 1_545 S
O141 C120 1.260 . S
O141 Eu121 2.480 1_545 S
O142 Eu121 2.430 . S
O142 C128 1.259 . S
O143 Eu121 2.670 . S
O143 C128 1.270 . S
O143 Eu131 2.355 . S
O144 Eu121 2.394 1_545 S
O144 C129 1.251 . S
O145 C129 1.251 . S
O145 Eu131 2.374 1_545 S
O146 C130 1.257 . S
O146 Eu131 2.473 . S
O147 C130 1.260 . S
O147 Eu131 2.480 . S
O148 Eu131 2.430 . S
O148 C138 1.259 . S
O149 Eu121 2.355 . S
O149 Eu131 2.670 . S
O149 C138 1.270 . S
O150 Eu131 2.394 . S
O150 C139 1.251 . S
O151 Eu121 2.374 . S
O151 C139 1.251 . S
H152 C123 0.931 . S
H153 C124 0.931 . S
H154 C126 0.931 1_556 S
H155 C127 0.931 . S
H156 C133 0.931 . S
H157 C134 0.931 . S
H158 C136 0.931 . S
H159 C137 0.931 . S
C160 Eu161 2.835 . S
C160 C162 1.500 . S
C160 O180 1.257 . S
C160 O181 1.260 . S
Eu161 C160 2.835 . S
Eu161 O180 2.473 . S
Eu161 O181 2.480 . S
Eu161 O182 2.430 . S
Eu161 O183 2.670 . S
Eu161 O184 2.394 . S
Eu161 O189 2.355 . S
Eu161 O191 2.374 . S
C162 C160 1.500 . S
C162 C163 1.377 . S
C162 C167 1.377 . S
C163 C162 1.377 . S
C163 C164 1.395 . S
C163 H192 0.931 . S
C164 C163 1.395 . S
C164 C165 1.383 . S
C164 H193 0.931 . S
C165 C164 1.383 . S
C165 C166 1.394 . S
C166 C165 1.394 . S
C166 C167 1.378 . S
C166 H194 0.931 1_554 S
C167 C162 1.377 . S
C167 C166 1.378 . S
C167 H195 0.931 . S
C168 O182 1.259 . S
C168 O183 1.270 . S
C169 O184 1.251 . S
C169 O185 1.251 . S
C170 Eu171 2.835 . S
C170 C172 1.500 . S
C170 O186 1.257 . S
C170 O187 1.260 . S
Eu171 C170 2.835 . S
Eu171 O183 2.355 . S
Eu171 O185 2.374 . S
Eu171 O186 2.473 . S
Eu171 O187 2.480 . S
Eu171 O188 2.430 . S
Eu171 O189 2.670 . S
Eu171 O190 2.394 . S
C172 C170 1.500 . S
C172 C173 1.377 . S
C172 C177 1.377 . S
C173 C172 1.377 . S
C173 C174 1.395 . S
C173 H196 0.931 . S
C174 C173 1.395 . S
C174 C175 1.383 . S
C174 H197 0.931 . S
C175 C174 1.383 . S
C175 C176 1.394 . S
C176 C175 1.394 . S
C176 C177 1.378 . S
C176 H198 0.931 . S
C177 C172 1.377 . S
C177 C176 1.378 . S
C177 H199 0.931 . S
C178 O188 1.259 . S
C178 O189 1.270 . S
C179 O190 1.251 . S
C179 O191 1.251 . S
O180 C160 1.257 . S
O180 Eu161 2.473 . S
O181 C160 1.260 . S
O181 Eu161 2.480 . S
O182 Eu161 2.430 . S
O182 C168 1.259 . S
O183 Eu161 2.670 . S
O183 C168 1.270 . S
O183 Eu171 2.355 . S
O184 Eu161 2.394 . S
O184 C169 1.251 . S
O185 C169 1.251 . S
O185 Eu171 2.374 . S
O186 C170 1.257 . S
O186 Eu171 2.473 . S
O187 C170 1.260 . S
O187 Eu171 2.480 . S
O188 Eu171 2.430 . S
O188 C178 1.259 . S
O189 Eu161 2.355 . S
O189 Eu171 2.670 . S
O189 C178 1.270 . S
O190 Eu171 2.394 . S
O190 C179 1.251 . S
O191 Eu161 2.374 . S
O191 C179 1.251 . S
H192 C163 0.931 . S
H193 C164 0.931 . S
H194 C166 0.931 1_556 S
H195 C167 0.931 . S
H196 C173 0.931 . S
H197 C174 0.931 . S
H198 C176 0.931 . S
H199 C177 0.931 . S
C200 Eu201 2.835 . S
C200 C202 1.500 . S
C200 O220 1.257 . S
C200 O221 1.260 . S
Eu201 C200 2.835 . S
Eu201 O220 2.473 . S
Eu201 O221 2.480 . S
Eu201 O222 2.430 . S
Eu201 O223 2.670 . S
Eu201 O224 2.394 . S
Eu201 O229 2.355 . S
Eu201 O231 2.374 . S
C202 C200 1.500 . S
C202 C203 1.377 . S
C202 C207 1.377 . S
C203 C202 1.377 . S
C203 C204 1.395 . S
C203 H232 0.931 . S
C204 C203 1.395 . S
C204 C205 1.383 . S
C204 H233 0.931 . S
C205 C204 1.383 . S
C205 C206 1.394 . S
C206 C205 1.394 . S
C206 C207 1.378 . S
C206 H234 0.931 1_554 S
C207 C202 1.377 . S
C207 C206 1.378 . S
C207 H235 0.931 . S
C208 O222 1.259 . S
C208 O223 1.270 . S
C209 O224 1.251 . S
C209 O225 1.251 . S
C210 Eu211 2.835 . S
C210 C212 1.500 . S
C210 O226 1.257 . S
C210 O227 1.260 . S
Eu211 C210 2.835 . S
Eu211 O223 2.355 . S
Eu211 O225 2.374 . S
Eu211 O226 2.473 . S
Eu211 O227 2.480 . S
Eu211 O228 2.430 . S
Eu211 O229 2.670 . S
Eu211 O230 2.394 . S
C212 C210 1.500 . S
C212 C213 1.377 . S
C212 C217 1.377 . S
C213 C212 1.377 . S
C213 C214 1.395 . S
C213 H236 0.931 . S
C214 C213 1.395 . S
C214 C215 1.383 . S
C214 H237 0.931 . S
C215 C214 1.383 . S
C215 C216 1.394 . S
C216 C215 1.394 . S
C216 C217 1.378 . S
C216 H238 0.931 . S
C217 C212 1.377 . S
C217 C216 1.378 . S
C217 H239 0.931 . S
C218 O228 1.259 . S
C218 O229 1.270 . S
C219 O230 1.251 . S
C219 O231 1.251 . S
O220 C200 1.257 . S
O220 Eu201 2.473 . S
O221 C200 1.260 . S
O221 Eu201 2.480 . S
O222 Eu201 2.430 . S
O222 C208 1.259 . S
O223 Eu201 2.670 . S
O223 C208 1.270 . S
O223 Eu211 2.355 . S
O224 Eu201 2.394 . S
O224 C209 1.251 . S
O225 C209 1.251 . S
O225 Eu211 2.374 . S
O226 C210 1.257 . S
O226 Eu211 2.473 . S
O227 C210 1.260 . S
O227 Eu211 2.480 . S
O228 Eu211 2.430 . S
O228 C218 1.259 . S
O229 Eu201 2.355 . S
O229 Eu211 2.670 . S
O229 C218 1.270 . S
O230 Eu211 2.394 . S
O230 C219 1.251 . S
O231 Eu201 2.374 . S
O231 C219 1.251 . S
H232 C203 0.931 . S
H233 C204 0.931 . S
H234 C206 0.931 1_556 S
H235 C207 0.931 . S
H236 C213 0.931 . S
H237 C214 0.931 . S
H238 C216 0.931 . S
H239 C217 0.931 . S
C240 Eu241 2.835 . S
C240 C242 1.500 . S
C240 O260 1.257 . S
C240 O261 1.260 . S
Eu241 C240 2.835 . S
Eu241 O260 2.473 . S
Eu241 O261 2.480 . S
Eu241 O262 2.430 . S
Eu241 O263 2.670 . S
Eu241 O264 2.394 . S
Eu241 O269 2.355 . S
Eu241 O271 2.374 . S
C242 C240 1.500 . S
C242 C243 1.377 . S
C242 C247 1.377 . S
C243 C242 1.377 . S
C243 C244 1.395 . S
C243 H272 0.931 . S
C244 C243 1.395 . S
C244 C245 1.383 . S
C244 H273 0.931 . S
C245 C244 1.383 . S
C245 C246 1.394 . S
C246 C245 1.394 . S
C246 C247 1.378 . S
C246 H274 0.931 . S
C247 C242 1.377 . S
C247 C246 1.378 . S
C247 H275 0.931 . S
C248 O262 1.259 . S
C248 O263 1.270 . S
C249 O264 1.251 . S
C249 O265 1.251 . S
C250 Eu251 2.835 . S
C250 C252 1.500 . S
C250 O266 1.257 . S
C250 O267 1.260 . S
Eu251 C250 2.835 . S
Eu251 O263 2.355 . S
Eu251 O265 2.374 . S
Eu251 O266 2.473 . S
Eu251 O267 2.480 . S
Eu251 O268 2.430 . S
Eu251 O269 2.670 . S
Eu251 O270 2.394 . S
C252 C250 1.500 . S
C252 C253 1.377 . S
C252 C257 1.377 . S
C253 C252 1.377 . S
C253 C254 1.395 . S
C253 H276 0.931 . S
C254 C253 1.395 . S
C254 C255 1.383 . S
C254 H277 0.931 . S
C255 C254 1.383 . S
C255 C256 1.394 . S
C256 C255 1.394 . S
C256 C257 1.378 . S
C256 H278 0.931 . S
C257 C252 1.377 . S
C257 C256 1.378 . S
C257 H279 0.931 . S
C258 O268 1.259 . S
C258 O269 1.270 . S
C259 O270 1.251 . S
C259 O271 1.251 . S
O260 C240 1.257 . S
O260 Eu241 2.473 . S
O261 C240 1.260 . S
O261 Eu241 2.480 . S
O262 Eu241 2.430 . S
O262 C248 1.259 . S
O263 Eu241 2.670 . S
O263 C248 1.270 . S
O263 Eu251 2.355 . S
O264 Eu241 2.394 . S
O264 C249 1.251 . S
O265 C249 1.251 . S
O265 Eu251 2.374 . S
O266 C250 1.257 . S
O266 Eu251 2.473 . S
O267 C250 1.260 . S
O267 Eu251 2.480 . S
O268 Eu251 2.430 . S
O268 C258 1.259 . S
O269 Eu241 2.355 . S
O269 Eu251 2.670 . S
O269 C258 1.270 . S
O270 Eu251 2.394 . S
O270 C259 1.251 . S
O271 Eu241 2.374 . S
O271 C259 1.251 . S
H272 C243 0.931 . S
H273 C244 0.931 . S
H274 C246 0.931 . S
H275 C247 0.931 . S
H276 C253 0.931 . S
H277 C254 0.931 . S
H278 C256 0.931 . S
H279 C257 0.931 . S
C280 Eu281 2.835 . S
C280 C282 1.500 . S
C280 O300 1.257 . S
C280 O301 1.260 . S
Eu281 C280 2.835 . S
Eu281 O300 2.473 . S
Eu281 O301 2.480 . S
Eu281 O302 2.430 1_455 S
Eu281 O303 2.670 1_455 S
Eu281 O304 2.394 . S
Eu281 O309 2.355 . S
Eu281 O311 2.374 . S
C282 C280 1.500 . S
C282 C283 1.377 . S
C282 C287 1.377 . S
C283 C282 1.377 . S
C283 C284 1.395 . S
C283 H312 0.931 . S
C284 C283 1.395 . S
C284 C285 1.383 . S
C284 H313 0.931 . S
C285 C284 1.383 . S
C285 C286 1.394 . S
C286 C285 1.394 . S
C286 C287 1.378 . S
C286 H314 0.931 . S
C287 C282 1.377 . S
C287 C286 1.378 . S
C287 H315 0.931 . S
C288 O302 1.259 . S
C288 O303 1.270 . S
C289 O304 1.251 . S
C289 O305 1.251 1_455 S
C290 Eu291 2.835 . S
C290 C292 1.500 . S
C290 O306 1.257 . S
C290 O307 1.260 . S
Eu291 C290 2.835 . S
Eu291 O303 2.355 . S
Eu291 O305 2.374 . S
Eu291 O306 2.473 . S
Eu291 O307 2.480 . S
Eu291 O308 2.430 . S
Eu291 O309 2.670 1_655 S
Eu291 O310 2.394 . S
C292 C290 1.500 . S
C292 C293 1.377 . S
C292 C297 1.377 . S
C293 C292 1.377 . S
C293 C294 1.395 . S
C293 H316 0.931 . S
C294 C293 1.395 . S
C294 C295 1.383 . S
C294 H317 0.931 . S
C295 C294 1.383 . S
C295 C296 1.394 . S
C296 C295 1.394 . S
C296 C297 1.378 . S
C296 H318 0.931 . S
C297 C292 1.377 . S
C297 C296 1.378 . S
C297 H319 0.931 . S
C298 O308 1.259 1_455 S
C298 O309 1.270 . S
C299 O310 1.251 . S
C299 O311 1.251 1_655 S
O300 C280 1.257 . S
O300 Eu281 2.473 . S
O301 C280 1.260 . S
O301 Eu281 2.480 . S
O302 Eu281 2.430 1_655 S
O302 C288 1.259 . S
O303 Eu281 2.670 1_655 S
O303 C288 1.270 . S
O303 Eu291 2.355 . S
O304 Eu281 2.394 . S
O304 C289 1.251 . S
O305 C289 1.251 1_655 S
O305 Eu291 2.374 . S
O306 C290 1.257 . S
O306 Eu291 2.473 . S
O307 C290 1.260 . S
O307 Eu291 2.480 . S
O308 Eu291 2.430 . S
O308 C298 1.259 1_655 S
O309 Eu281 2.355 . S
O309 Eu291 2.670 1_455 S
O309 C298 1.270 . S
O310 Eu291 2.394 . S
O310 C299 1.251 . S
O311 Eu281 2.374 . S
O311 C299 1.251 1_455 S
H312 C283 0.931 . S
H313 C284 0.931 . S
H314 C286 0.931 . S
H315 C287 0.931 . S
H316 C293 0.931 . S
H317 C294 0.931 . S
H318 C296 0.931 . S
H319 C297 0.931 . S
C320 Eu321 2.835 . S
C320 C322 1.500 . S
C320 O340 1.257 . S
C320 O341 1.260 1_655 S
Eu321 C320 2.835 . S
Eu321 O340 2.473 . S
Eu321 O341 2.480 1_655 S
Eu321 O342 2.430 1_655 S
Eu321 O343 2.670 1_655 S
Eu321 O344 2.394 . S
Eu321 O349 2.355 . S
Eu321 O351 2.374 1_655 S
C322 C320 1.500 . S
C322 C323 1.377 . S
C322 C327 1.377 . S
C323 C322 1.377 . S
C323 C324 1.395 . S
C323 H352 0.931 1_655 S
C324 C323 1.395 . S
C324 C325 1.383 . S
C324 H353 0.931 . S
C325 C324 1.383 . S
C325 C326 1.394 . S
C326 C325 1.394 . S
C326 C327 1.378 . S
C326 H354 0.931 . S
C327 C322 1.377 . S
C327 C326 1.378 . S
C327 H355 0.931 . S
C328 O342 1.259 . S
C328 O343 1.270 . S
C329 O344 1.251 . S
C329 O345 1.251 . S
C330 Eu331 2.835 1_455 S
C330 C332 1.500 . S
C330 O346 1.257 . S
C330 O347 1.260 1_455 S
Eu331 C330 2.835 1_655 S
Eu331 O343 2.355 1_655 S
Eu331 O345 2.374 . S
Eu331 O346 2.473 1_655 S
Eu331 O347 2.480 . S
Eu331 O348 2.430 . S
Eu331 O349 2.670 . S
Eu331 O350 2.394 . S
C332 C330 1.500 . S
C332 C333 1.377 1_455 S
C332 C337 1.377 . S
C333 C332 1.377 1_655 S
C333 C334 1.395 1_655 S
C333 H356 0.931 . S
C334 C333 1.395 1_455 S
C334 C335 1.383 . S
C334 H357 0.931 1_455 S
C335 C334 1.383 . S
C335 C336 1.394 . S
C336 C335 1.394 . S
C336 C337 1.378 . S
C336 H358 0.931 . S
C337 C332 1.377 . S
C337 C336 1.378 . S
C337 H359 0.931 . S
C338 O348 1.259 . S
C338 O349 1.270 . S
C339 O350 1.251 1_455 S
C339 O351 1.230 . S
O340 C320 1.257 . S
O340 Eu321 2.473 . S
O341 C320 1.260 1_455 S
O341 Eu321 2.480 1_455 S
O342 Eu321 2.430 1_455 S
O342 C328 1.259 . S
O343 Eu321 2.670 1_455 S
O343 C328 1.270 . S
O343 Eu331 2.355 1_455 S
O344 Eu321 2.394 . S
O344 C329 1.251 . S
O345 C329 1.251 . S
O345 Eu331 2.374 . S
O346 C330 1.257 . S
O346 Eu331 2.473 1_455 S
O347 C330 1.260 1_655 S
O347 Eu331 2.480 . S
O348 Eu331 2.430 . S
O348 C338 1.259 . S
O349 Eu321 2.355 . S
O349 Eu331 2.670 . S
O349 C338 1.270 . S
O350 Eu331 2.394 . S
O350 C339 1.251 1_655 S
O351 Eu321 2.374 1_455 S
O351 C339 1.230 . S
H352 C323 0.931 1_455 S
H353 C324 0.931 . S
H354 C326 0.931 . S
H355 C327 0.931 . S
H356 C333 0.931 . S
H357 C334 0.931 1_655 S
H358 C336 0.931 . S
H359 C337 0.931 . S
H360 C366 0.930 . S
H361 C369 0.930 . S
H362 C370 0.930 . S
H363 C371 0.930 . S
H364 C374 0.930 . S
H365 C375 0.930 . S
C366 H360 0.930 . S
C366 C367 1.355 . S
C366 C368 1.415 . S
C367 C366 1.355 . S
C367 C369 1.419 . S
C368 C366 1.415 . S
C368 C373 1.425 . S
C368 C375 1.409 . S
C369 H361 0.930 . S
C369 C367 1.419 . S
C369 C370 1.362 . S
C370 H362 0.930 . S
C370 C369 1.362 . S
C370 C373 1.409 . S
C371 H363 0.930 . S
C371 C372 1.355 . S
C371 C373 1.415 . S
C372 C371 1.355 . S
C372 C374 1.419 . S
C373 C368 1.425 . S
C373 C370 1.409 . S
C373 C371 1.415 . S
C374 H364 0.930 . S
C374 C372 1.419 . S
C374 C375 1.362 . S
C375 H365 0.930 . S
C375 C368 1.409 . S
C375 C374 1.362 . S
H376 C382 0.930 . S
H377 C385 0.930 . S
H378 C386 0.930 . S
H379 C387 0.930 . S
H380 C390 0.930 . S
H381 C391 0.930 . S
C382 H376 0.930 . S
C382 C383 1.355 . S
C382 C384 1.415 . S
C383 C382 1.355 . S
C383 C385 1.419 . S
C384 C382 1.415 . S
C384 C389 1.425 . S
C384 C391 1.409 . S
C385 H377 0.930 . S
C385 C383 1.419 . S
C385 C386 1.362 . S
C386 H378 0.930 . S
C386 C385 1.362 . S
C386 C389 1.409 . S
C387 H379 0.930 . S
C387 C388 1.355 . S
C387 C389 1.415 . S
C388 C387 1.355 . S
C388 C390 1.419 . S
C389 C384 1.425 . S
C389 C386 1.409 . S
C389 C387 1.415 . S
C390 H380 0.930 . S
C390 C388 1.419 . S
C390 C391 1.362 . S
C391 H381 0.930 . S
C391 C384 1.409 . S
C391 C390 1.362 . S
H392 C398 0.930 . S
H393 C401 0.930 . S
H394 C402 0.930 . S
H395 C403 0.930 . S
H396 C406 0.930 . S
H397 C407 0.930 . S
C398 H392 0.930 . S
C398 C399 1.355 . S
C398 C400 1.415 . S
C399 C398 1.355 . S
C399 C401 1.419 . S
C400 C398 1.415 . S
C400 C405 1.425 . S
C400 C407 1.409 . S
C401 H393 0.930 . S
C401 C399 1.419 . S
C401 C402 1.362 . S
C402 H394 0.930 . S
C402 C401 1.362 . S
C402 C405 1.409 . S
C403 H395 0.930 . S
C403 C404 1.355 . S
C403 C405 1.415 . S
C404 C403 1.355 . S
C404 C406 1.419 . S
C405 C400 1.425 . S
C405 C402 1.409 . S
C405 C403 1.415 . S
C406 H396 0.930 . S
C406 C404 1.419 . S
C406 C407 1.362 . S
C407 H397 0.930 . S
C407 C400 1.409 . S
C407 C406 1.362 . S
H408 C414 0.930 . S
H409 C417 0.930 . S
H410 C418 0.926 . S
H411 C419 0.930 . S
H412 C422 0.930 . S
H413 C423 0.930 . S
C414 H408 0.930 . S
C414 C415 1.355 . S
C414 C416 1.415 . S
C415 C414 1.355 . S
C415 C417 1.419 . S
C416 C414 1.415 . S
C416 C421 1.425 . S
C416 C423 1.409 . S
C417 H409 0.930 . S
C417 C415 1.419 . S
C417 C418 1.362 . S
C418 H410 0.926 . S
C418 C417 1.362 . S
C418 C421 1.409 . S
C419 H411 0.930 . S
C419 C420 1.355 . S
C419 C421 1.415 . S
C420 C419 1.355 . S
C420 C422 1.419 . S
C421 C416 1.425 . S
C421 C418 1.409 . S
C421 C419 1.415 . S
C422 H412 0.930 . S
C422 C420 1.419 . S
C422 C423 1.362 . S
C423 H413 0.930 . S
C423 C416 1.409 . S
C423 C422 1.362 . S
H424 C430 0.930 . S
H425 C433 0.930 . S
H426 C434 0.930 . S
H427 C435 0.930 . S
H428 C438 0.930 . S
H429 C439 0.930 . S
C430 H424 0.930 . S
C430 C431 1.355 . S
C430 C432 1.415 . S
C431 C430 1.355 . S
C431 C433 1.419 . S
C432 C430 1.415 . S
C432 C437 1.425 . S
C432 C439 1.409 . S
C433 H425 0.930 . S
C433 C431 1.419 . S
C433 C434 1.362 . S
C434 H426 0.930 . S
C434 C433 1.362 . S
C434 C437 1.409 . S
C435 H427 0.930 . S
C435 C436 1.355 . S
C435 C437 1.415 . S
C436 C435 1.355 . S
C436 C438 1.419 . S
C437 C432 1.425 . S
C437 C434 1.409 . S
C437 C435 1.415 . S
C438 H428 0.930 . S
C438 C436 1.419 . S
C438 C439 1.362 . S
C439 H429 0.930 . S
C439 C432 1.409 . S
C439 C438 1.362 . S
H440 C446 0.930 . S
H441 C449 0.930 . S
H442 C450 0.930 . S
H443 C451 0.930 . S
H444 C454 0.930 . S
H445 C455 0.930 . S
C446 H440 0.930 . S
C446 C447 1.355 . S
C446 C448 1.415 . S
C447 C446 1.355 . S
C447 C449 1.419 . S
C448 C446 1.415 . S
C448 C453 1.425 . S
C448 C455 1.409 . S
C449 H441 0.930 . S
C449 C447 1.419 . S
C449 C450 1.362 . S
C450 H442 0.930 . S
C450 C449 1.362 . S
C450 C453 1.409 . S
C451 H443 0.930 . S
C451 C452 1.355 . S
C451 C453 1.415 . S
C452 C451 1.355 . S
C452 C454 1.419 . S
C453 C448 1.425 . S
C453 C450 1.409 . S
C453 C451 1.415 . S
C454 H444 0.930 . S
C454 C452 1.419 . S
C454 C455 1.362 . S
C455 H445 0.930 . S
C455 C448 1.409 . S
C455 C454 1.362 . S
H456 C462 0.930 . S
H457 C465 0.930 . S
H458 C466 0.930 . S
H459 C467 0.930 . S
H460 C470 0.930 . S
H461 C471 0.930 . S
C462 H456 0.930 . S
C462 C463 1.355 . S
C462 C464 1.415 . S
C463 C462 1.355 . S
C463 C465 1.419 . S
C464 C462 1.415 . S
C464 C469 1.425 . S
C464 C471 1.409 . S
C465 H457 0.930 . S
C465 C463 1.419 . S
C465 C466 1.362 . S
C466 H458 0.930 . S
C466 C465 1.362 . S
C466 C469 1.409 . S
C467 H459 0.930 . S
C467 C468 1.355 1_554 S
C467 C469 1.415 . S
C468 C467 1.355 1_556 S
C468 C470 1.419 . S
C469 C464 1.425 . S
C469 C466 1.409 . S
C469 C467 1.415 . S
C470 H460 0.930 . S
C470 C468 1.419 . S
C470 C471 1.362 1_556 S
C471 H461 0.930 . S
C471 C464 1.409 . S
C471 C470 1.362 1_554 S
H472 C478 0.930 . S
H473 C481 0.930 . S
H474 C482 0.930 . S
H475 C483 0.962 1_556 S
H476 C486 0.930 . S
H477 C487 0.930 . S
C478 H472 0.930 . S
C478 C479 1.355 1_655 S
C478 C480 1.415 . S
C479 C478 1.355 1_455 S
C479 C481 1.419 . S
C480 C478 1.415 . S
C480 C485 1.425 1_655 S
C480 C487 1.409 . S
C481 H473 0.930 . S
C481 C479 1.419 . S
C481 C482 1.362 . S
C482 H474 0.930 . S
C482 C481 1.362 . S
C482 C485 1.409 . S
C483 H475 0.962 1_554 S
C483 C484 1.324 1_454 S
C483 C485 1.415 . S
C484 C483 1.324 1_656 S
C484 C486 1.419 1_556 S
C485 C480 1.425 1_455 S
C485 C482 1.409 . S
C485 C483 1.415 . S
C486 H476 0.930 . S
C486 C484 1.419 1_554 S
C486 C487 1.362 . S
C487 H477 0.930 . S
C487 C480 1.409 . S
C487 C486 1.362 . S
H488 C494 0.930 . S
H489 C497 0.930 . S
H490 C498 0.930 . S
H491 C499 0.930 . S
H492 C502 0.930 . S
H493 C503 0.930 . S
C494 H488 0.930 . S
C494 C495 1.355 . S
C494 C496 1.415 . S
C495 C494 1.355 . S
C495 C497 1.419 1_655 S
C496 C494 1.415 . S
C496 C501 1.425 1_655 S
C496 C503 1.409 . S
C497 H489 0.930 . S
C497 C495 1.419 1_455 S
C497 C498 1.362 . S
C498 H490 0.930 . S
C498 C497 1.362 . S
C498 C501 1.409 . S
C499 H491 0.930 . S
C499 C500 1.355 1_554 S
C499 C501 1.415 . S
C500 C499 1.355 1_556 S
C500 C502 1.419 1_455 S
C501 C496 1.425 1_455 S
C501 C498 1.409 . S
C501 C499 1.415 . S
C502 H492 0.930 . S
C502 C500 1.419 1_655 S
C502 C503 1.362 1_556 S
C503 H493 0.930 . S
C503 C496 1.409 . S
C503 C502 1.362 1_554 S
H504 C510 0.930 . S
H505 C513 0.930 . S
H506 C514 0.930 . S
H507 C515 0.930 . S
H508 C518 0.930 . S
H509 C519 0.930 . S
C510 H504 0.930 . S
C510 C511 1.355 . S
C510 C512 1.415 . S
C511 C510 1.355 . S
C511 C513 1.419 . S
C512 C510 1.415 . S
C512 C517 1.425 . S
C512 C519 1.409 . S
C513 H505 0.930 . S
C513 C511 1.419 . S
C513 C514 1.362 . S
C514 H506 0.930 . S
C514 C513 1.362 . S
C514 C517 1.409 . S
C515 H507 0.930 . S
C515 C516 1.355 . S
C515 C517 1.415 . S
C516 C515 1.355 . S
C516 C518 1.419 . S
C517 C512 1.425 . S
C517 C514 1.409 . S
C517 C515 1.415 . S
C518 H508 0.930 . S
C518 C516 1.419 . S
C518 C519 1.362 . S
C519 H509 0.930 . S
C519 C512 1.409 . S
C519 C518 1.362 . S
H520 C526 0.930 . S
H521 C529 0.930 . S
H522 C530 0.930 . S
H523 C531 0.930 . S
H524 C534 0.930 . S
H525 C535 0.930 . S
C526 H520 0.930 . S
C526 C527 1.355 . S
C526 C528 1.415 . S
C527 C526 1.355 . S
C527 C529 1.419 . S
C528 C526 1.415 . S
C528 C533 1.425 . S
C528 C535 1.409 . S
C529 H521 0.930 . S
C529 C527 1.419 . S
C529 C530 1.362 . S
C530 H522 0.930 . S
C530 C529 1.362 . S
C530 C533 1.409 . S
C531 H523 0.930 . S
C531 C532 1.355 . S
C531 C533 1.415 . S
C532 C531 1.355 . S
C532 C534 1.419 . S
C533 C528 1.425 . S
C533 C530 1.409 . S
C533 C531 1.415 . S
C534 H524 0.930 . S
C534 C532 1.419 . S
C534 C535 1.362 . S
C535 H525 0.930 . S
C535 C528 1.409 . S
C535 C534 1.362 . S
H536 C542 0.930 . S
H537 C545 0.930 . S
H538 C546 0.930 . S
H539 C547 0.930 . S
H540 C550 0.930 . S
H541 C551 0.930 . S
C542 H536 0.930 . S
C542 C543 1.355 . S
C542 C544 1.415 . S
C543 C542 1.355 . S
C543 C545 1.419 . S
C544 C542 1.415 . S
C544 C549 1.425 . S
C544 C551 1.409 . S
C545 H537 0.930 . S
C545 C543 1.419 . S
C545 C546 1.362 . S
C546 H538 0.930 . S
C546 C545 1.362 . S
C546 C549 1.409 . S
C547 H539 0.930 . S
C547 C548 1.355 . S
C547 C549 1.415 . S
C548 C547 1.355 . S
C548 C550 1.419 . S
C549 C544 1.425 . S
C549 C546 1.409 . S
C549 C547 1.415 . S
C550 H540 0.930 . S
C550 C548 1.419 . S
C550 C551 1.362 . S
C551 H541 0.930 . S
C551 C544 1.409 . S
C551 C550 1.362 . S
H552 C558 0.930 . S
H553 C561 0.930 . S
H554 C562 0.930 1_554 S
H555 C563 0.930 . S
H556 C566 0.930 . S
H557 C567 0.930 . S
C558 H552 0.930 . S
C558 C559 1.355 1_556 S
C558 C560 1.415 . S
C559 C558 1.355 1_554 S
C559 C561 1.419 . S
C560 C558 1.415 . S
C560 C565 1.425 . S
C560 C567 1.409 . S
C561 H553 0.930 . S
C561 C559 1.419 . S
C561 C562 1.362 1_554 S
C562 H554 0.930 1_556 S
C562 C561 1.362 1_556 S
C562 C565 1.409 . S
C563 H555 0.930 . S
C563 C564 1.355 . S
C563 C565 1.415 . S
C564 C563 1.355 . S
C564 C566 1.419 . S
C565 C560 1.425 . S
C565 C562 1.409 . S
C565 C563 1.415 . S
C566 H556 0.930 . S
C566 C564 1.419 . S
C566 C567 1.362 . S
C567 H557 0.930 . S
C567 C560 1.409 . S
C567 C566 1.362 . S
H568 C574 0.930 . S
H569 C577 0.930 . S
H570 C578 0.930 . S
H571 C579 0.930 . S
H572 C582 0.930 . S
H573 C583 0.930 . S
C574 H568 0.930 . S
C574 C575 1.355 . S
C574 C576 1.415 . S
C575 C574 1.355 . S
C575 C577 1.419 . S
C576 C574 1.415 . S
C576 C581 1.425 . S
C576 C583 1.409 1_556 S
C577 H569 0.930 . S
C577 C575 1.419 . S
C577 C578 1.362 . S
C578 H570 0.930 . S
C578 C577 1.362 . S
C578 C581 1.409 . S
C579 H571 0.930 . S
C579 C580 1.355 1_556 S
C579 C581 1.415 . S
C580 C579 1.355 1_554 S
C580 C582 1.419 . S
C581 C576 1.425 . S
C581 C578 1.409 . S
C581 C579 1.415 . S
C582 H572 0.930 . S
C582 C580 1.419 . S
C582 C583 1.362 . S
C583 H573 0.930 . S
C583 C576 1.409 1_554 S
C583 C582 1.362 . S
H584 C590 0.930 . S
H585 C593 0.930 . S
H586 C594 0.930 . S
H587 C595 0.930 . S
H588 C598 0.930 . S
H589 C599 0.930 . S
C590 H584 0.930 . S
C590 C591 1.355 . S
C590 C592 1.415 . S
C591 C590 1.355 . S
C591 C593 1.419 . S
C592 C590 1.415 . S
C592 C597 1.425 . S
C592 C599 1.409 1_556 S
C593 H585 0.930 . S
C593 C591 1.419 . S
C593 C594 1.362 . S
C594 H586 0.930 . S
C594 C593 1.362 . S
C594 C597 1.409 . S
C595 H587 0.930 . S
C595 C596 1.355 1_556 S
C595 C597 1.415 . S
C596 C595 1.355 1_554 S
C596 C598 1.419 . S
C597 C592 1.425 . S
C597 C594 1.409 . S
C597 C595 1.415 . S
C598 H588 0.930 . S
C598 C596 1.419 . S
C598 C599 1.362 . S
C599 H589 0.930 . S
C599 C592 1.409 1_554 S
C599 C598 1.362 . S
H600 C606 0.930 . S
H601 C609 0.930 . S
H602 C610 0.930 . S
H603 C611 0.930 1_556 S
H604 C614 0.930 . S
H605 C615 0.930 1_655 S
C606 H600 0.930 . S
C606 C607 1.355 . S
C606 C608 1.415 . S
C607 C606 1.355 . S
C607 C609 1.419 . S
C608 C606 1.415 . S
C608 C613 1.425 . S
C608 C615 1.409 1_556 S
C609 H601 0.930 . S
C609 C607 1.419 . S
C609 C610 1.362 . S
C610 H602 0.930 . S
C610 C609 1.362 . S
C610 C613 1.409 . S
C611 H603 0.930 1_554 S
C611 C612 1.355 . S
C611 C613 1.415 1_554 S
C612 C611 1.355 . S
C612 C614 1.419 . S
C613 C608 1.425 . S
C613 C610 1.409 . S
C613 C611 1.415 1_556 S
C614 H604 0.930 . S
C614 C612 1.419 . S
C614 C615 1.362 . S
C615 H605 0.930 1_455 S
C615 C608 1.409 1_554 S
C615 C614 1.362 . S
H616 C622 0.930 . S
H617 C625 0.930 . S
H618 C626 0.930 . S
H619 C627 0.930 . S
H620 C630 0.930 . S
H621 C631 0.930 . S
C622 H616 0.930 . S
C622 C623 1.355 1_556 S
C622 C624 1.415 . S
C623 C622 1.355 1_554 S
C623 C625 1.419 . S
C624 C622 1.415 . S
C624 C629 1.425 1_556 S
C624 C631 1.409 . S
C625 H617 0.930 . S
C625 C623 1.419 . S
C625 C626 1.362 . S
C626 H618 0.930 . S
C626 C625 1.362 . S
C626 C629 1.409 . S
C627 H619 0.930 . S
C627 C628 1.355 1_554 S
C627 C629 1.415 . S
C628 C627 1.355 1_556 S
C628 C630 1.419 . S
C629 C624 1.425 1_554 S
C629 C626 1.409 . S
C629 C627 1.415 . S
C630 H620 0.930 . S
C630 C628 1.419 . S
C630 C631 1.362 . S
C631 H621 0.930 . S
C631 C624 1.409 . S
C631 C630 1.362 . S
H632 C638 0.930 . S
H633 C641 0.930 . S
H634 C642 0.930 . S
H635 C643 0.930 . S
H636 C646 0.930 . S
H637 C647 0.930 . S
C638 H632 0.930 . S
C638 C639 1.355 1_554 S
C638 C640 1.415 . S
C639 C638 1.355 1_556 S
C639 C641 1.419 . S
C640 C638 1.415 . S
C640 C645 1.425 1_554 S
C640 C647 1.409 . S
C641 H633 0.930 . S
C641 C639 1.419 . S
C641 C642 1.362 . S
C642 H634 0.930 . S
C642 C641 1.362 . S
C642 C645 1.409 . S
C643 H635 0.930 . S
C643 C644 1.355 1_556 S
C643 C645 1.415 . S
C644 C643 1.355 1_554 S
C644 C646 1.419 . S
C645 C640 1.425 1_556 S
C645 C642 1.409 . S
C645 C643 1.415 . S
C646 H636 0.930 . S
C646 C644 1.419 . S
C646 C647 1.362 . S
C647 H637 0.930 . S
C647 C640 1.409 . S
C647 C646 1.362 . S
H648 C654 0.930 . S
H649 C657 0.930 . S
H650 C658 0.930 . S
H651 C659 0.930 . S
H652 C662 0.930 . S
H653 C663 0.930 . S
C654 H648 0.930 . S
C654 C655 1.355 . S
C654 C656 1.415 . S
C655 C654 1.355 . S
C655 C657 1.419 . S
C656 C654 1.415 . S
C656 C661 1.425 . S
C656 C663 1.409 . S
C657 H649 0.930 . S
C657 C655 1.419 . S
C657 C658 1.362 . S
C658 H650 0.930 . S
C658 C657 1.362 . S
C658 C661 1.409 . S
C659 H651 0.930 . S
C659 C660 1.355 . S
C659 C661 1.415 . S
C660 C659 1.355 . S
C660 C662 1.419 . S
C661 C656 1.425 . S
C661 C658 1.409 . S
C661 C659 1.415 . S
C662 H652 0.930 . S
C662 C660 1.419 . S
C662 C663 1.362 . S
C663 H653 0.930 . S
C663 C656 1.409 . S
C663 C662 1.362 . S
H664 C670 0.930 . S
H665 C673 0.930 . S
H666 C674 0.930 . S
H667 C675 0.930 . S
H668 C678 0.930 . S
H669 C679 0.930 . S
C670 H664 0.930 . S
C670 C671 1.355 . S
C670 C672 1.415 . S
C671 C670 1.355 . S
C671 C673 1.419 . S
C672 C670 1.415 . S
C672 C677 1.425 . S
C672 C679 1.409 . S
C673 H665 0.930 . S
C673 C671 1.419 . S
C673 C674 1.362 . S
C674 H666 0.930 . S
C674 C673 1.362 . S
C674 C677 1.409 . S
C675 H667 0.930 . S
C675 C676 1.355 . S
C675 C677 1.415 . S
C676 C675 1.355 . S
C676 C678 1.419 . S
C677 C672 1.425 . S
C677 C674 1.409 . S
C677 C675 1.415 . S
C678 H668 0.930 . S
C678 C676 1.419 . S
C678 C679 1.362 . S
C679 H669 0.930 . S
C679 C672 1.409 . S
C679 C678 1.362 . S
H680 C686 0.930 . S
H681 C689 0.930 . S
H682 C690 0.930 . S
H683 C691 0.930 . S
H684 C694 0.930 . S
H685 C695 0.930 . S
C686 H680 0.930 . S
C686 C687 1.355 . S
C686 C688 1.415 . S
C687 C686 1.355 . S
C687 C689 1.419 . S
C688 C686 1.415 . S
C688 C693 1.425 . S
C688 C695 1.409 . S
C689 H681 0.930 . S
C689 C687 1.419 . S
C689 C690 1.362 . S
C690 H682 0.930 . S
C690 C689 1.362 . S
C690 C693 1.409 . S
C691 H683 0.930 . S
C691 C692 1.355 . S
C691 C693 1.415 . S
C692 C691 1.355 . S
C692 C694 1.419 . S
C693 C688 1.425 . S
C693 C690 1.409 . S
C693 C691 1.415 . S
C694 H684 0.930 . S
C694 C692 1.419 . S
C694 C695 1.362 . S
C695 H685 0.930 . S
C695 C688 1.409 . S
C695 C694 1.362 . S
H696 C702 0.930 . S
H697 C705 0.930 . S
H698 C706 0.930 . S
H699 C707 0.930 . S
H700 C710 0.930 . S
H701 C711 0.930 . S
C702 H696 0.930 . S
C702 C703 1.355 . S
C702 C704 1.415 . S
C703 C702 1.355 . S
C703 C705 1.419 . S
C704 C702 1.415 . S
C704 C709 1.425 . S
C704 C711 1.409 . S
C705 H697 0.930 . S
C705 C703 1.419 . S
C705 C706 1.362 . S
C706 H698 0.930 . S
C706 C705 1.362 . S
C706 C709 1.409 . S
C707 H699 0.930 . S
C707 C708 1.355 . S
C707 C709 1.415 . S
C708 C707 1.355 . S
C708 C710 1.419 . S
C709 C704 1.425 . S
C709 C706 1.409 . S
C709 C707 1.415 . S
C710 H700 0.930 . S
C710 C708 1.419 . S
C710 C711 1.362 . S
C711 H701 0.930 . S
C711 C704 1.409 . S
C711 C710 1.362 . S
H712 C718 0.930 . S
H713 C721 0.930 . S
H714 C722 0.930 . S
H715 C723 0.930 . S
H716 C726 0.930 . S
H717 C727 0.930 . S
C718 H712 0.930 . S
C718 C719 1.355 . S
C718 C720 1.415 . S
C719 C718 1.355 . S
C719 C721 1.419 . S
C720 C718 1.415 . S
C720 C725 1.425 . S
C720 C727 1.409 . S
C721 H713 0.930 . S
C721 C719 1.419 . S
C721 C722 1.362 . S
C722 H714 0.930 . S
C722 C721 1.362 . S
C722 C725 1.409 . S
C723 H715 0.930 . S
C723 C724 1.355 1_545 S
C723 C725 1.415 . S
C724 C723 1.355 1_565 S
C724 C726 1.419 . S
C725 C720 1.425 . S
C725 C722 1.409 . S
C725 C723 1.415 . S
C726 H716 0.930 . S
C726 C724 1.419 . S
C726 C727 1.362 1_565 S
C727 H717 0.930 . S
C727 C720 1.409 . S
C727 C726 1.362 1_545 S
H728 C734 0.930 . S
H729 C737 0.930 . S
H730 C738 0.930 . S
H731 C739 0.930 . S
H732 C742 0.930 . S
H733 C743 0.930 . S
C734 H728 0.930 . S
C734 C735 1.355 . S
C734 C736 1.415 . S
C735 C734 1.355 . S
C735 C737 1.419 . S
C736 C734 1.415 . S
C736 C741 1.425 . S
C736 C743 1.409 . S
C737 H729 0.930 . S
C737 C735 1.419 . S
C737 C738 1.362 . S
C738 H730 0.930 . S
C738 C737 1.362 . S
C738 C741 1.409 . S
C739 H731 0.930 . S
C739 C740 1.355 . S
C739 C741 1.415 . S
C740 C739 1.355 . S
C740 C742 1.419 . S
C741 C736 1.425 . S
C741 C738 1.409 . S
C741 C739 1.415 . S
C742 H732 0.930 . S
C742 C740 1.419 . S
C742 C743 1.362 . S
C743 H733 0.930 . S
C743 C736 1.409 . S
C743 C742 1.362 . S
H744 C750 0.930 . S
H745 C753 0.930 . S
H746 C754 0.930 . S
H747 C755 0.930 . S
H748 C758 0.930 . S
H749 C759 0.930 . S
C750 H744 0.930 . S
C750 C751 1.355 . S
C750 C752 1.415 . S
C751 C750 1.355 . S
C751 C753 1.419 . S
C752 C750 1.415 . S
C752 C757 1.425 . S
C752 C759 1.409 . S
C753 H745 0.930 . S
C753 C751 1.419 . S
C753 C754 1.362 . S
C754 H746 0.930 . S
C754 C753 1.362 . S
C754 C757 1.409 . S
C755 H747 0.930 . S
C755 C756 1.355 . S
C755 C757 1.415 . S
C756 C755 1.355 . S
C756 C758 1.419 . S
C757 C752 1.425 . S
C757 C754 1.409 . S
C757 C755 1.415 . S
C758 H748 0.930 . S
C758 C756 1.419 . S
C758 C759 1.362 . S
C759 H749 0.930 . S
C759 C752 1.409 . S
C759 C758 1.362 . S
H760 C766 0.930 . S
H761 C769 0.930 . S
H762 C770 0.930 . S
H763 C771 0.930 . S
H764 C774 0.930 . S
H765 C775 0.930 . S
C766 H760 0.930 . S
C766 C767 1.355 . S
C766 C768 1.415 . S
C767 C766 1.355 . S
C767 C769 1.419 . S
C768 C766 1.415 . S
C768 C773 1.425 . S
C768 C775 1.409 . S
C769 H761 0.930 . S
C769 C767 1.419 . S
C769 C770 1.362 . S
C770 H762 0.930 . S
C770 C769 1.362 . S
C770 C773 1.409 . S
C771 H763 0.930 . S
C771 C772 1.355 . S
C771 C773 1.415 . S
C772 C771 1.355 . S
C772 C774 1.419 . S
C773 C768 1.425 . S
C773 C770 1.409 . S
C773 C771 1.415 . S
C774 H764 0.930 . S
C774 C772 1.419 . S
C774 C775 1.362 . S
C775 H765 0.930 . S
C775 C768 1.409 . S
C775 C774 1.362 . S
H776 C782 0.930 . S
H777 C785 0.930 . S
H778 C786 0.930 . S
H779 C787 0.930 . S
H780 C790 0.930 . S
H781 C791 0.930 . S
C782 H776 0.930 . S
C782 C783 1.355 . S
C782 C784 1.415 . S
C783 C782 1.355 . S
C783 C785 1.419 . S
C784 C782 1.415 . S
C784 C789 1.425 . S
C784 C791 1.409 . S
C785 H777 0.930 . S
C785 C783 1.419 . S
C785 C786 1.362 . S
C786 H778 0.930 . S
C786 C785 1.362 . S
C786 C789 1.409 . S
C787 H779 0.930 . S
C787 C788 1.355 . S
C787 C789 1.415 . S
C788 C787 1.355 . S
C788 C790 1.419 . S
C789 C784 1.425 . S
C789 C786 1.409 . S
C789 C787 1.415 . S
C790 H780 0.930 . S
C790 C788 1.419 . S
C790 C791 1.362 . S
C791 H781 0.930 . S
C791 C784 1.409 . S
C791 C790 1.362 . S
C367 C18 1.511 . S
C372 C8 1.511 . S
C383 C58 1.494 . S
C388 C48 1.494 . S
C399 C98 1.499 . S
C404 C88 1.499 . S
C415 C128 1.507 . S
C420 C138 1.507 1_556 S
C431 C168 1.475 . S
C436 C178 1.475 1_556 S
C447 C208 1.457 . S
C452 C218 1.457 1_556 S
C463 C249 1.358 . S
C468 C259 1.358 . S
C479 C289 1.393 . S
C484 C299 1.393 . S
C495 C329 1.320 . S
C500 C339 1.322 . S
C511 C219 2.550 . S
C516 C15 2.512 . S
C527 C55 2.485 . S
C532 C139 2.530 . S
C543 C95 2.467 . S
C548 C179 2.528 . S
C559 C99 2.251 . S
C564 C258 2.382 . S
C575 C298 2.382 . S
C580 C19 2.251 . S
C591 C338 2.394 . S
C596 C59 2.236 . S
C607 C335 1.063 . S
C612 C5 1.074 . S
C623 C45 1.047 . S
C628 C255 1.025 . S
C639 C295 1.019 . S
C644 C85 1.023 . S
C655 C89 2.559 . S
C660 C125 2.504 . S
C671 C165 2.467 . S
C676 C9 2.528 . S
C687 C49 2.559 . S
C692 C205 2.513 . S
C703 C325 1.060 . S
C708 C135 1.026 . S
C719 C245 1.059 . S
C724 C175 1.024 . S
C735 C285 1.056 . S
C740 C215 1.074 . S
C751 C248 2.375 . S
C756 C209 2.243 . S
C767 C129 2.251 . S
C772 C288 2.383 . S
C783 C328 2.395 . S
C788 C169 2.210 . S
