# Generated by pormake.
# Topology cag, (4)-cn, num edge types: 1
# Building blocks:
#     Node 0, Type 0, BuildingBlock: TATPOV_clean_sbu_0, # of connection points: 4
#     Node 1, Type 0, BuildingBlock: TATPOV_clean_sbu_0, # of connection points: 4
#     Node 2, Type 0, BuildingBlock: TATPOV_clean_sbu_0, # of connection points: 4
#     Node 3, Type 0, BuildingBlock: TATPOV_clean_sbu_0, # of connection points: 4
#     Node 4, Type 0, BuildingBlock: TATPOV_clean_sbu_0, # of connection points: 4
#     Node 5, Type 0, BuildingBlock: TATPOV_clean_sbu_0, # of connection points: 4
#     Node 6, Type 0, BuildingBlock: TATPOV_clean_sbu_0, # of connection points: 4
#     Node 7, Type 0, BuildingBlock: TATPOV_clean_sbu_0, # of connection points: 4
#     Node 8, Type 0, BuildingBlock: TATPOV_clean_sbu_0, # of connection points: 4
#     Node 9, Type 0, BuildingBlock: TATPOV_clean_sbu_0, # of connection points: 4
#     Node 10, Type 0, BuildingBlock: TATPOV_clean_sbu_0, # of connection points: 4
#     Node 11, Type 0, BuildingBlock: TATPOV_clean_sbu_0, # of connection points: 4
#     Node 12, Type 0, BuildingBlock: TATPOV_clean_sbu_0, # of connection points: 4
#     Node 13, Type 0, BuildingBlock: TATPOV_clean_sbu_0, # of connection points: 4
#     Node 14, Type 0, BuildingBlock: TATPOV_clean_sbu_0, # of connection points: 4
#     Node 15, Type 0, BuildingBlock: TATPOV_clean_sbu_0, # of connection points: 4
#     Edge 16, Type (0, 0), BuildingBlock: OJICUG_clean_linker_0, # of connection points: 2
#     Edge 17, Type (0, 0), BuildingBlock: OJICUG_clean_linker_0, # of connection points: 2
#     Edge 18, Type (0, 0), BuildingBlock: OJICUG_clean_linker_0, # of connection points: 2
#     Edge 19, Type (0, 0), BuildingBlock: OJICUG_clean_linker_0, # of connection points: 2
#     Edge 20, Type (0, 0), BuildingBlock: OJICUG_clean_linker_0, # of connection points: 2
#     Edge 21, Type (0, 0), BuildingBlock: OJICUG_clean_linker_0, # of connection points: 2
#     Edge 22, Type (0, 0), BuildingBlock: OJICUG_clean_linker_0, # of connection points: 2
#     Edge 23, Type (0, 0), BuildingBlock: OJICUG_clean_linker_0, # of connection points: 2
#     Edge 24, Type (0, 0), BuildingBlock: OJICUG_clean_linker_0, # of connection points: 2
#     Edge 25, Type (0, 0), BuildingBlock: OJICUG_clean_linker_0, # of connection points: 2
#     Edge 26, Type (0, 0), BuildingBlock: OJICUG_clean_linker_0, # of connection points: 2
#     Edge 27, Type (0, 0), BuildingBlock: OJICUG_clean_linker_0, # of connection points: 2
#     Edge 28, Type (0, 0), BuildingBlock: OJICUG_clean_linker_0, # of connection points: 2
#     Edge 29, Type (0, 0), BuildingBlock: OJICUG_clean_linker_0, # of connection points: 2
#     Edge 30, Type (0, 0), BuildingBlock: OJICUG_clean_linker_0, # of connection points: 2
#     Edge 31, Type (0, 0), BuildingBlock: OJICUG_clean_linker_0, # of connection points: 2
#     Edge 32, Type (0, 0), BuildingBlock: OJICUG_clean_linker_0, # of connection points: 2
#     Edge 33, Type (0, 0), BuildingBlock: OJICUG_clean_linker_0, # of connection points: 2
#     Edge 34, Type (0, 0), BuildingBlock: OJICUG_clean_linker_0, # of connection points: 2
#     Edge 35, Type (0, 0), BuildingBlock: OJICUG_clean_linker_0, # of connection points: 2
#     Edge 36, Type (0, 0), BuildingBlock: OJICUG_clean_linker_0, # of connection points: 2
#     Edge 37, Type (0, 0), BuildingBlock: OJICUG_clean_linker_0, # of connection points: 2
#     Edge 38, Type (0, 0), BuildingBlock: OJICUG_clean_linker_0, # of connection points: 2
#     Edge 39, Type (0, 0), BuildingBlock: OJICUG_clean_linker_0, # of connection points: 2
#     Edge 40, Type (0, 0), BuildingBlock: OJICUG_clean_linker_0, # of connection points: 2
#     Edge 41, Type (0, 0), BuildingBlock: OJICUG_clean_linker_0, # of connection points: 2
#     Edge 42, Type (0, 0), BuildingBlock: OJICUG_clean_linker_0, # of connection points: 2
#     Edge 43, Type (0, 0), BuildingBlock: OJICUG_clean_linker_0, # of connection points: 2
#     Edge 44, Type (0, 0), BuildingBlock: OJICUG_clean_linker_0, # of connection points: 2
#     Edge 45, Type (0, 0), BuildingBlock: OJICUG_clean_linker_0, # of connection points: 2
#     Edge 46, Type (0, 0), BuildingBlock: OJICUG_clean_linker_0, # of connection points: 2
#     Edge 47, Type (0, 0), BuildingBlock: OJICUG_clean_linker_0, # of connection points: 2
# Relax obj value: 0.025
# Max RMSD: 0.073
# Mean RMSD: 0.062
data_MOF--net-cag--node1-TATPOV_clean_sbu_0--edge1-OJICUG_clean_linker_0
_symmetry_space_group_name_H-M    P1
_symmetry_Int_Tables_number       1
_symmetry_cell_setting            triclinic
loop_
_symmetry_equiv_pos_as_xyz
'x, y, z'
_cell_length_a     32.08499
_cell_length_b     35.663347
_cell_length_c     31.83014
_cell_angle_alpha  89.948866
_cell_angle_beta   90.016445
_cell_angle_gamma 89.988638
loop_
_atom_site_label
_atom_site_type_symbol
_atom_site_fract_x
_atom_site_fract_y
_atom_site_fract_z
_atom_type_partial_charge
Zn0 Zn 0.3213 0.1389 0.00785 0.0
Zn1 Zn 0.2806 0.13283 0.08121 0.0
O2 O 0.34188 0.14036 0.09735 0.0
O3 O 0.37566 0.14796 0.03784 0.0
O4 O 0.25515 0.13055 0.13921 0.0
O5 O 0.28534 0.18196 0.99201 0.0
O6 O 0.25064 0.17723 0.05146 0.0
C7 C 0.37567 0.14633 0.07755 0.0
C8 C 0.28077 0.06735 0.01898 0.0
O9 O 0.27006 0.08109 0.05436 0.0
O10 O 0.30236 0.0865 0.99349 0.0
C11 C 0.25981 0.10146 0.16188 0.0
O12 O 0.27824 0.07185 0.14586 0.0
C13 C 0.25651 0.19315 0.01601 0.0
Zn14 Zn 0.15579 0.83914 0.50448 0.0
Zn15 Zn 0.1961 0.84465 0.57847 0.0
O16 O 0.13489 0.83648 0.59412 0.0
O17 O 0.10143 0.82932 0.53436 0.0
O18 O 0.22145 0.84724 0.63654 0.0
O19 O 0.19271 0.79666 0.48861 0.0
O20 O 0.22656 0.80068 0.54865 0.0
C21 C 0.10122 0.83055 0.5741 0.0
C22 C 0.19526 0.91091 0.51689 0.0
O23 O 0.20605 0.89665 0.55202 0.0
O24 O 0.17399 0.89198 0.49094 0.0
C25 C 0.21549 0.87617 0.65912 0.0
O26 O 0.19555 0.90498 0.64304 0.0
C27 C 0.2213 0.78528 0.51285 0.0
Zn28 Zn 0.3224 0.8402 0.98936 0.0
Zn29 Zn 0.28221 0.84624 0.91572 0.0
O30 O 0.34375 0.83975 0.89996 0.0
O31 O 0.37712 0.83222 0.95974 0.0
O32 O 0.25676 0.84839 0.85767 0.0
O33 O 0.28725 0.79649 0.00466 0.0
O34 O 0.2528 0.80135 0.94507 0.0
C35 C 0.37748 0.83419 0.92005 0.0
C36 C 0.28103 0.9114 0.97835 0.0
O37 O 0.27084 0.89775 0.94276 0.0
O38 O 0.30252 0.89228 0.00397 0.0
C39 C 0.26077 0.87759 0.83506 0.0
O40 O 0.27878 0.90742 0.85106 0.0
C41 C 0.25872 0.78517 0.98037 0.0
Zn42 Zn 0.15899 0.14046 0.49324 0.0
Zn43 Zn 0.19909 0.13467 0.41922 0.0
O44 O 0.13815 0.14446 0.40372 0.0
O45 O 0.10494 0.15209 0.46353 0.0
O46 O 0.22401 0.13177 0.36101 0.0
O47 O 0.19738 0.18171 0.50955 0.0
O48 O 0.23071 0.17789 0.4492 0.0
C49 C 0.1047 0.15119 0.42378 0.0
C50 C 0.19653 0.068 0.48027 0.0
O51 O 0.20781 0.0823 0.44532 0.0
O52 O 0.17556 0.08713 0.50627 0.0
C53 C 0.21723 0.10299 0.33842 0.0
O54 O 0.1969 0.07447 0.35463 0.0
C55 C 0.22606 0.19286 0.48533 0.0
Zn56 Zn 0.59582 0.92959 0.84206 0.0
Zn57 Zn 0.63076 0.87115 0.88514 0.0
O58 O 0.57117 0.85396 0.87745 0.0
O59 O 0.54219 0.89869 0.83969 0.0
O60 O 0.65889 0.82828 0.91389 0.0
O61 O 0.64153 0.92581 0.79859 0.0
O62 O 0.66708 0.87734 0.83301 0.0
C63 C 0.53946 0.86763 0.85896 0.0
C64 C 0.62399 0.94781 0.92624 0.0
O65 O 0.6348 0.91351 0.9273 0.0
O66 O 0.60704 0.9615 0.89367 0.0
C67 C 0.65331 0.81743 0.95151 0.0
O68 O 0.62584 0.83461 0.97528 0.0
C69 C 0.66859 0.90019 0.80238 0.0
Zn70 Zn 0.88694 0.06206 0.34237 0.0
Zn71 Zn 0.85158 0.11927 0.38647 0.0
O72 O 0.91101 0.13722 0.37887 0.0
O73 O 0.94006 0.09344 0.33992 0.0
O74 O 0.82291 0.16134 0.41603 0.0
O75 O 0.84095 0.0654 0.29932 0.0
O76 O 0.81462 0.11294 0.33463 0.0
C77 C 0.9427 0.1241 0.3599 0.0
C78 C 0.86004 0.04231 0.42646 0.0
O79 O 0.84867 0.07644 0.42819 0.0
O80 O 0.87682 0.02928 0.39351 0.0
C81 C 0.82965 0.17281 0.45321 0.0
O82 O 0.859 0.157 0.47592 0.0
C83 C 0.81326 0.09036 0.30376 0.0
Zn84 Zn 0.59567 0.05714 0.15882 0.0
Zn85 Zn 0.62931 0.11593 0.11544 0.0
O86 O 0.56929 0.13196 0.12293 0.0
O87 O 0.54127 0.08692 0.16091 0.0
O88 O 0.65634 0.15926 0.0865 0.0
O89 O 0.6413 0.06192 0.20228 0.0
O90 O 0.66596 0.11052 0.16749 0.0
C91 C 0.53784 0.11778 0.14134 0.0
C92 C 0.62404 0.03907 0.07467 0.0
O93 O 0.63416 0.07353 0.07344 0.0
O94 O 0.6075 0.02521 0.10735 0.0
C95 C 0.65112 0.16947 0.0486 0.0
O96 O 0.62478 0.15119 0.02455 0.0
C97 C 0.66794 0.08785 0.19828 0.0
Zn98 Zn 0.88639 0.92682 0.65623 0.0
Zn99 Zn 0.84928 0.87057 0.61155 0.0
O100 O 0.90809 0.85103 0.61857 0.0
O101 O 0.93857 0.89397 0.65762 0.0
O102 O 0.81905 0.82987 0.58118 0.0
O103 O 0.84048 0.92357 0.6995 0.0
O104 O 0.81316 0.87668 0.66386 0.0
C105 C 0.94023 0.86332 0.63746 0.0
C106 C 0.85942 0.948 0.57272 0.0
O107 O 0.8473 0.91411 0.57076 0.0
O108 O 0.87673 0.96048 0.60566 0.0
C109 C 0.82663 0.8177 0.54445 0.0
O110 O 0.85801 0.8316 0.52299 0.0
C111 C 0.81246 0.89892 0.69504 0.0
Zn112 Zn 0.8229 0.64328 0.00496 0.0
Zn113 Zn 0.78302 0.6379 0.07911 0.0
O114 O 0.84434 0.64594 0.09446 0.0
O115 O 0.87743 0.65308 0.03449 0.0
O116 O 0.75789 0.63564 0.13728 0.0
O117 O 0.78606 0.68578 0.98898 0.0
O118 O 0.75255 0.68189 0.04921 0.0
C119 C 0.87789 0.65183 0.07423 0.0
C120 C 0.78343 0.57156 0.01783 0.0
O121 O 0.77285 0.58583 0.05298 0.0
O122 O 0.80454 0.59047 0.99171 0.0
C123 C 0.76346 0.60673 0.16005 0.0
O124 O 0.78288 0.57759 0.14413 0.0
C125 C 0.75764 0.69724 0.01332 0.0
Zn126 Zn 0.65964 0.3458 0.50838 0.0
Zn127 Zn 0.69998 0.35159 0.58192 0.0
O128 O 0.63866 0.34382 0.59775 0.0
O129 O 0.60519 0.3364 0.53804 0.0
O130 O 0.72523 0.35361 0.64003 0.0
O131 O 0.69577 0.30294 0.49244 0.0
O132 O 0.73018 0.3074 0.5521 0.0
C133 C 0.60499 0.33784 0.57776 0.0
C134 C 0.6998 0.41742 0.52002 0.0
O135 O 0.71043 0.40355 0.5554 0.0
O136 O 0.67842 0.39831 0.49435 0.0
C137 C 0.72007 0.38247 0.66291 0.0
O138 O 0.70125 0.41198 0.64706 0.0
C139 C 0.72452 0.29166 0.51653 0.0
Zn140 Zn 0.82166 0.34241 0.99401 0.0
Zn141 Zn 0.78129 0.34816 0.92005 0.0
O142 O 0.8423 0.33891 0.90444 0.0
O143 O 0.87579 0.33145 0.96416 0.0
O144 O 0.75625 0.35113 0.86188 0.0
O145 O 0.78379 0.3007 0.01015 0.0
O146 O 0.75012 0.30463 0.94997 0.0
C147 C 0.8759 0.33245 0.92441 0.0
C148 C 0.78321 0.41456 0.98134 0.0
O149 O 0.77206 0.40031 0.94636 0.0
O150 O 0.80445 0.39554 0.00725 0.0
C151 C 0.76258 0.38015 0.83948 0.0
O152 O 0.78251 0.40879 0.85589 0.0
C153 C 0.75508 0.28948 0.986 0.0
Zn154 Zn 0.65711 0.64455 0.49004 0.0
Zn155 Zn 0.69748 0.63842 0.41645 0.0
O156 O 0.63595 0.64478 0.40055 0.0
O157 O 0.60239 0.65217 0.46022 0.0
O158 O 0.72295 0.63598 0.35845 0.0
O159 O 0.69205 0.68854 0.50493 0.0
O160 O 0.72678 0.68344 0.44554 0.0
C161 C 0.60214 0.65021 0.42053 0.0
C162 C 0.69882 0.57346 0.47949 0.0
O163 O 0.70895 0.58707 0.44385 0.0
O164 O 0.67726 0.59258 0.50501 0.0
C165 C 0.7185 0.60672 0.33605 0.0
O166 O 0.70006 0.57719 0.35229 0.0
C167 C 0.72063 0.69981 0.48066 0.0
Zn168 Zn 0.09318 0.42213 0.84104 0.0
Zn169 Zn 0.12885 0.36499 0.88523 0.0
O170 O 0.06937 0.34702 0.87826 0.0
O171 O 0.04 0.39075 0.83937 0.0
O172 O 0.1578 0.32312 0.91498 0.0
O173 O 0.13882 0.41843 0.79763 0.0
O174 O 0.16534 0.37099 0.83306 0.0
C175 C 0.03751 0.36014 0.85954 0.0
C176 C 0.12081 0.44215 0.92475 0.0
O177 O 0.13211 0.40801 0.92656 0.0
O178 O 0.1038 0.45513 0.89186 0.0
C179 C 0.15108 0.3117 0.95221 0.0
O180 O 0.12156 0.32736 0.97477 0.0
C181 C 0.16648 0.39342 0.802 0.0
Zn182 Zn 0.38455 0.5544 0.34085 0.0
Zn183 Zn 0.34911 0.61247 0.38406 0.0
O184 O 0.40867 0.62993 0.37682 0.0
O185 O 0.43803 0.58553 0.33899 0.0
O186 O 0.32062 0.65502 0.41297 0.0
O187 O 0.339 0.5583 0.29718 0.0
O188 O 0.31305 0.60646 0.33173 0.0
C189 C 0.44053 0.61648 0.35845 0.0
C190 C 0.35608 0.53556 0.42475 0.0
O191 O 0.3451 0.56981 0.42592 0.0
O192 O 0.37325 0.5221 0.39221 0.0
C193 C 0.32617 0.66576 0.45062 0.0
O194 O 0.35387 0.6487 0.47428 0.0
C195 C 0.31179 0.58378 0.30097 0.0
Zn196 Zn 0.09416 0.55655 0.15478 0.0
Zn197 Zn 0.13052 0.61335 0.11037 0.0
O198 O 0.07147 0.63223 0.11763 0.0
O199 O 0.04156 0.58883 0.15656 0.0
O200 O 0.16012 0.6547 0.08043 0.0
O201 O 0.14007 0.55985 0.19802 0.0
O202 O 0.16686 0.60715 0.16256 0.0
C203 C 0.03952 0.61956 0.13655 0.0
C204 C 0.12126 0.53615 0.07104 0.0
O205 O 0.13301 0.57017 0.0692 0.0
O206 O 0.10414 0.52337 0.10396 0.0
C207 C 0.15321 0.66645 0.04337 0.0
O208 O 0.12299 0.65154 0.0211 0.0
C209 C 0.16786 0.58473 0.19363 0.0
Zn210 Zn 0.38418 0.42598 0.65737 0.0
Zn211 Zn 0.35096 0.36708 0.61408 0.0
O212 O 0.41107 0.35136 0.622 0.0
O213 O 0.43872 0.39649 0.66004 0.0
O214 O 0.32443 0.32342 0.58533 0.0
O215 O 0.33838 0.42128 0.70057 0.0
O216 O 0.31393 0.37259 0.66587 0.0
C217 C 0.44237 0.36565 0.64057 0.0
C218 C 0.35607 0.44382 0.57298 0.0
O219 O 0.34606 0.40933 0.57177 0.0
O220 O 0.37246 0.45773 0.60569 0.0
C221 C 0.32957 0.31329 0.54741 0.0
O222 O 0.35538 0.33197 0.52315 0.0
C223 C 0.31176 0.39535 0.69651 0.0
C224 C 0.19593 0.23759 0.02543 0.0
C225 C 0.22942 0.22409 0.00128 0.0
H226 H 0.14456 0.27611 0.02887 0.0
C227 C 0.23677 0.2399 0.9615 0.0
H228 H 0.18945 0.22594 0.05618 0.0
C229 C 0.21124 0.26814 0.94596 0.0
C230 C 0.17761 0.28161 0.96974 0.0
H231 H 0.26225 0.23033 0.94193 0.0
H232 H 0.21804 0.27941 0.91509 0.0
C233 C 0.17023 0.26622 0.00978 0.0
C234 C 0.30555 0.71023 0.50854 0.0
C235 C 0.30018 0.69651 0.46745 0.0
H236 H 0.28478 0.7493 0.55546 0.0
C237 C 0.26895 0.71217 0.44203 0.0
H238 H 0.32938 0.69869 0.52889 0.0
C239 C 0.24357 0.74069 0.45715 0.0
C240 C 0.24869 0.75459 0.49814 0.0
H241 H 0.26382 0.70233 0.41026 0.0
H242 H 0.21989 0.7519 0.43637 0.0
C243 C 0.28003 0.73915 0.52376 0.0
C244 C 0.19778 0.74119 0.97084 0.0
C245 C 0.23193 0.75387 0.99462 0.0
H246 H 0.14576 0.70338 0.96759 0.0
C247 C 0.24005 0.73705 0.03373 0.0
H248 H 0.19072 0.75361 0.9406 0.0
C249 C 0.21449 0.70877 0.0491 0.0
C250 C 0.18006 0.69627 0.0258 0.0
H251 H 0.2661 0.74592 0.05295 0.0
H252 H 0.22183 0.69677 0.0795 0.0
C253 C 0.17205 0.71252 0.98631 0.0
C254 C 0.27624 0.26351 0.55741 0.0
C255 C 0.30475 0.28165 0.53085 0.0
H256 H 0.2295 0.2217 0.56394 0.0
C257 C 0.30818 0.26977 0.48883 0.0
H258 H 0.27279 0.27176 0.58997 0.0
C259 C 0.28304 0.24057 0.47367 0.0
C260 C 0.25401 0.22302 0.50029 0.0
H261 H 0.32995 0.28321 0.46762 0.0
H262 H 0.28596 0.2321 0.44114 0.0
C263 C 0.25122 0.23472 0.54235 0.0
C264 C 0.69926 0.74366 0.02447 0.0
C265 C 0.73029 0.72802 0.99868 0.0
H266 H 0.6503 0.78447 0.02984 0.0
C267 C 0.73521 0.74184 0.95761 0.0
H268 H 0.69467 0.73357 0.05623 0.0
C269 C 0.70996 0.77053 0.9426 0.0
C270 C 0.67908 0.78643 0.9682 0.0
H271 H 0.75864 0.73047 0.9367 0.0
H272 H 0.71495 0.78033 0.91076 0.0
C273 C 0.67387 0.77274 0.00935 0.0
C274 C 0.81044 0.21823 0.51073 0.0
C275 C 0.80331 0.20309 0.47055 0.0
H276 H 0.79107 0.25836 0.55714 0.0
C277 C 0.77007 0.21696 0.44646 0.0
H278 H 0.83583 0.20805 0.53006 0.0
C279 C 0.74462 0.24529 0.46187 0.0
C280 C 0.75166 0.26079 0.50184 0.0
H281 H 0.76348 0.20592 0.41546 0.0
H282 H 0.71942 0.25514 0.44208 0.0
C283 C 0.78482 0.24695 0.52625 0.0
C284 C 0.73099 0.24676 0.04277 0.0
C285 C 0.72735 0.25915 0.001 0.0
H286 H 0.7099 0.20935 0.09031 0.0
C287 C 0.69747 0.2423 0.97477 0.0
H288 H 0.75342 0.25917 0.06406 0.0
C289 C 0.6722 0.21323 0.99007 0.0
C290 C 0.67633 0.20079 0.03184 0.0
H291 H 0.69389 0.2513 0.94246 0.0
H292 H 0.64968 0.20042 0.96918 0.0
C293 C 0.70583 0.2181 0.05796 0.0
C294 C 0.80851 0.77115 0.48774 0.0
C295 C 0.79943 0.78838 0.52642 0.0
H296 H 0.79063 0.72939 0.44255 0.0
C297 C 0.76368 0.77725 0.54854 0.0
H298 H 0.83582 0.77925 0.46992 0.0
C299 C 0.73799 0.74917 0.53295 0.0
C300 C 0.7473 0.73121 0.49479 0.0
H301 H 0.75546 0.79009 0.57824 0.0
H302 H 0.71094 0.74129 0.5513 0.0
C303 C 0.78264 0.7427 0.47204 0.0
C304 C 0.27072 0.01609 0.96658 0.0
C305 C 0.27197 0.02779 0.00874 0.0
H306 H 0.27139 0.96973 0.92383 0.0
C307 C 0.27006 0.00077 0.04075 0.0
H308 H 0.27188 0.03643 0.9413 0.0
C309 C 0.27058 0.96262 0.03074 0.0
C310 C 0.27202 0.95092 0.98857 0.0
H311 H 0.27105 0.00901 0.07349 0.0
H312 H 0.27165 0.94229 0.05602 0.0
C313 C 0.27024 0.97795 0.95657 0.0
C314 C 0.20477 0.96337 0.46573 0.0
C315 C 0.20367 0.95073 0.50758 0.0
H316 H 0.20455 0.01071 0.42422 0.0
C317 C 0.20572 0.97704 0.54028 0.0
H318 H 0.20346 0.94361 0.43993 0.0
C319 C 0.2055 0.01539 0.53128 0.0
C320 C 0.20425 0.02805 0.48944 0.0
H321 H 0.20481 0.96808 0.5728 0.0
H322 H 0.20475 0.03517 0.55709 0.0
C323 C 0.20557 0.00172 0.45673 0.0
C324 C 0.62999 0.95437 0.00397 0.0
C325 C 0.6286 0.97115 0.96405 0.0
H326 H 0.62925 0.96288 0.07053 0.0
C327 C 0.62899 0.01041 0.9608 0.0
H328 H 0.62965 0.92414 0.00736 0.0
C329 C 0.6295 0.03254 0.99691 0.0
C330 C 0.62872 0.01575 0.03685 0.0
H331 H 0.62819 0.02402 0.93037 0.0
H332 H 0.62875 0.06276 0.99352 0.0
C333 C 0.6296 0.9765 0.04009 0.0
C334 C 0.85476 0.97915 0.45962 0.0
C335 C 0.85596 0.01831 0.46381 0.0
H336 H 0.85405 0.92614 0.49108 0.0
C337 C 0.85561 0.03429 0.50412 0.0
H338 H 0.8548 0.96617 0.42886 0.0
C339 C 0.85596 0.01141 0.5397 0.0
C340 C 0.85569 0.97224 0.53549 0.0
H341 H 0.85665 0.06444 0.50818 0.0
H342 H 0.85693 0.02437 0.57046 0.0
C343 C 0.85416 0.9563 0.49519 0.0
C344 C 0.77311 0.48077 0.95788 0.0
C345 C 0.77509 0.45443 0.99059 0.0
H346 H 0.77447 0.53891 0.94102 0.0
C347 C 0.77412 0.46703 0.03243 0.0
H348 H 0.77389 0.47183 0.92536 0.0
C349 C 0.7736 0.50537 0.04141 0.0
C350 C 0.77507 0.53172 0.00867 0.0
H351 H 0.77535 0.44724 0.05825 0.0
H352 H 0.77479 0.51431 0.07391 0.0
C353 C 0.77361 0.51912 0.96685 0.0
C354 C 0.70975 0.48401 0.54201 0.0
C355 C 0.70845 0.45705 0.50996 0.0
H356 H 0.70748 0.54245 0.55731 0.0
C357 C 0.71011 0.46885 0.46783 0.0
H358 H 0.70843 0.47568 0.57472 0.0
C359 C 0.71037 0.50701 0.45785 0.0
C360 C 0.70798 0.53397 0.48985 0.0
H361 H 0.70942 0.44857 0.44252 0.0
H362 H 0.70956 0.51529 0.4251 0.0
C363 C 0.70902 0.52218 0.53202 0.0
C364 C 0.12546 0.4729 0.03793 0.0
C365 C 0.12521 0.51208 0.03376 0.0
H366 H 0.12516 0.41995 0.00642 0.0
C367 C 0.12635 0.52813 0.99346 0.0
H368 H 0.12481 0.45987 0.06869 0.0
C369 C 0.1258 0.50534 0.95788 0.0
C370 C 0.12504 0.46616 0.96205 0.0
H371 H 0.12607 0.55829 0.98938 0.0
H372 H 0.1254 0.51838 0.92712 0.0
C373 C 0.12585 0.45011 0.00235 0.0
C374 C 0.34965 0.52865 0.5024 0.0
C375 C 0.35144 0.51203 0.46246 0.0
H376 H 0.35009 0.51993 0.56893 0.0
C377 C 0.35147 0.47277 0.45912 0.0
H378 H 0.34966 0.55887 0.50586 0.0
C379 C 0.35097 0.45052 0.49518 0.0
C380 C 0.35136 0.46718 0.53515 0.0
H381 H 0.35259 0.45927 0.42866 0.0
H382 H 0.35205 0.42031 0.49175 0.0
C383 C 0.35005 0.50641 0.53846 0.0
C384 C 0.46064 0.11878 0.15311 0.0
C385 C 0.49596 0.13318 0.13255 0.0
H386 H 0.39426 0.11242 0.15208 0.0
C387 C 0.49037 0.15752 0.09821 0.0
H388 H 0.46393 0.10016 0.17982 0.0
C389 C 0.45066 0.16389 0.08189 0.0
C390 C 0.41574 0.14677 0.10018 0.0
H391 H 0.51687 0.16928 0.08173 0.0
H392 H 0.44753 0.18058 0.0536 0.0
C393 C 0.42075 0.12582 0.13725 0.0
C394 C 0.01699 0.85815 0.65027 0.0
C395 C 0.98122 0.84614 0.62864 0.0
H396 H 0.08358 0.86182 0.65022 0.0
C397 C 0.98591 0.82279 0.59336 0.0
H398 H 0.01437 0.8759 0.67774 0.0
C399 C 0.02545 0.81533 0.5772 0.0
C400 C 0.06101 0.83038 0.59652 0.0
H401 H 0.95901 0.81285 0.57608 0.0
H402 H 0.02802 0.79963 0.54818 0.0
C403 C 0.05664 0.85005 0.63451 0.0
C404 C 0.42263 0.85644 0.86124 0.0
C405 C 0.4178 0.83492 0.89791 0.0
H406 H 0.46551 0.88377 0.81972 0.0
C407 C 0.45304 0.81855 0.91651 0.0
H408 H 0.39591 0.86929 0.8462 0.0
C409 C 0.49275 0.82623 0.90093 0.0
C410 C 0.49798 0.85112 0.86704 0.0
H411 H 0.45008 0.80147 0.94452 0.0
H412 H 0.5194 0.81501 0.91765 0.0
C413 C 0.46248 0.86476 0.84612 0.0
C414 C 0.0296 0.16894 0.42069 0.0
C415 C 0.06455 0.15287 0.40129 0.0
H416 H 0.9633 0.17361 0.42168 0.0
C417 C 0.05948 0.13376 0.36304 0.0
H418 H 0.03273 0.18426 0.4499 0.0
C419 C 0.01957 0.12714 0.34707 0.0
C420 C 0.98426 0.14011 0.36877 0.0
H421 H 0.08597 0.12125 0.34725 0.0
H422 H 0.01629 0.10972 0.3194 0.0
C423 C 0.98981 0.16298 0.40431 0.0
C424 C -0.00672 0.65999 0.09284 0.0
C425 C -0.00167 0.63648 0.12798 0.0
H426 H 0.95075 0.6832 0.04802 0.0
C427 C 0.96277 0.62413 0.14972 0.0
H428 H 0.02001 0.67018 0.07546 0.0
C429 C 0.92297 0.63213 0.13423 0.0
C430 C 0.91825 0.65201 0.09639 0.0
H431 H 0.96568 0.60624 0.17709 0.0
H432 H 0.8962 0.62013 0.15002 0.0
C433 C 0.95359 0.66734 0.07693 0.0
C434 C 0.53007 0.31996 0.58164 0.0
C435 C 0.56481 0.33717 0.60016 0.0
H436 H 0.46389 0.31434 0.58106 0.0
C437 C 0.5595 0.35801 0.63722 0.0
H438 H 0.53343 0.30336 0.55335 0.0
C439 C 0.5195 0.36486 0.65285 0.0
C440 C 0.48436 0.35039 0.63205 0.0
H441 H 0.58586 0.37147 0.65223 0.0
H442 H 0.51598 0.38341 0.67955 0.0
C443 C 0.49024 0.32615 0.59772 0.0
C444 C 0.96053 0.35703 0.84732 0.0
C445 C -0.00397 0.34415 0.86881 0.0
H446 H 0.89411 0.36266 0.84783 0.0
C447 C -0.00922 0.3213 0.90447 0.0
H448 H 0.96357 0.37444 0.81958 0.0
C449 C 0.95113 0.3152 0.92107 0.0
C450 C 0.91597 0.3311 0.9018 0.0
H451 H 0.01745 0.31074 0.92169 0.0
H452 H 0.94823 0.29985 0.95032 0.0
C453 C 0.92075 0.35027 0.86351 0.0
C454 C 0.52649 0.66548 0.41677 0.0
C455 C 0.56188 0.64938 0.39825 0.0
H456 H 0.4601 0.66876 0.4176 0.0
C457 C 0.55731 0.62806 0.36143 0.0
H458 H 0.52924 0.68241 0.44488 0.0
C459 C 0.51756 0.61968 0.34606 0.0
C460 C 0.48191 0.63306 0.36687 0.0
H461 H 0.58416 0.61541 0.34643 0.0
H462 H 0.51474 0.60084 0.31953 0.0
C463 C 0.48688 0.65775 0.40095 0.0
C464 C 0.24418 0.13604 0.22853 0.0
C465 C 0.24798 0.10192 0.2068 0.0
H466 H 0.23247 0.16312 0.28744 0.0
C467 C 0.2422 0.06817 0.22885 0.0
H468 H 0.24883 0.1625 0.21246 0.0
C469 C 0.23234 0.06854 0.27165 0.0
C470 C 0.22899 0.10263 0.29348 0.0
H471 H 0.24501 0.04144 0.21295 0.0
H472 H 0.22764 0.04208 0.28772 0.0
C473 C 0.23521 0.13639 0.27154 0.0
C474 C 0.24416 0.84304 0.76859 0.0
C475 C 0.24837 0.87715 0.79027 0.0
H476 H 0.23141 0.81599 0.70988 0.0
C477 C 0.24228 0.91091 0.76832 0.0
H478 H 0.24901 0.81656 0.78457 0.0
C479 C 0.23173 0.91057 0.72568 0.0
C480 C 0.22793 0.87648 0.70389 0.0
H481 H 0.24537 0.93763 0.78417 0.0
H482 H 0.22683 0.93704 0.7097 0.0
C483 C 0.23445 0.84272 0.72573 0.0
C484 C 0.72213 0.86512 0.76112 0.0
C485 C 0.70456 0.89933 0.77388 0.0
H486 H 0.77012 0.8382 0.72506 0.0
C487 C 0.72317 0.93311 0.76132 0.0
H488 H 0.70832 0.83875 0.77071 0.0
C489 C 0.75919 0.93276 0.73685 0.0
C490 C 0.77641 0.89865 0.72345 0.0
H491 H 0.71043 0.95981 0.77126 0.0
H492 H 0.77305 0.95922 0.7276 0.0
C493 C 0.7574 0.8648 0.73532 0.0
C494 C 0.75749 0.12411 0.2639 0.0
C495 C 0.77671 0.0904 0.27595 0.0
H496 H 0.70789 0.14974 0.22877 0.0
C497 C 0.75931 0.05614 0.26328 0.0
H498 H 0.77033 0.15083 0.2736 0.0
C499 C 0.72297 0.0555 0.23931 0.0
C500 C 0.70415 0.08913 0.2265 0.0
H501 H 0.77331 0.02979 0.2727 0.0
H502 H 0.71015 0.02868 0.22991 0.0
C503 C 0.72185 0.12348 0.23857 0.0
C504 C 0.73638 0.57286 0.26957 0.0
C505 C 0.73087 0.6068 0.29127 0.0
H506 H 0.75128 0.54625 0.21115 0.0
C507 C 0.73559 0.64075 0.26931 0.0
H508 H 0.73288 0.54625 0.28564 0.0
C509 C 0.74522 0.64073 0.22644 0.0
C510 C 0.75114 0.60678 0.20486 0.0
H511 H 0.7312 0.66736 0.28509 0.0
H512 H 0.74866 0.66734 0.21037 0.0
C513 C 0.74685 0.57286 0.22692 0.0
C514 C 0.73703 0.41546 0.73017 0.0
C515 C 0.73184 0.38181 0.70786 0.0
H516 H 0.75112 0.44129 0.78925 0.0
C517 C 0.73619 0.34758 0.72933 0.0
H518 H 0.73379 0.44227 0.71448 0.0
C519 C 0.74514 0.34702 0.77235 0.0
C520 C 0.75079 0.38068 0.79455 0.0
H521 H 0.73199 0.32118 0.71305 0.0
H522 H 0.74833 0.32021 0.78805 0.0
C523 C 0.74687 0.4149 0.77298 0.0
C524 C 0.25649 0.42789 0.73691 0.0
C525 C 0.27538 0.3942 0.72451 0.0
H526 H 0.20616 0.4538 0.77003 0.0
C527 C 0.2577 0.35991 0.73689 0.0
H528 H 0.26929 0.45466 0.72725 0.0
C529 C 0.22207 0.35943 0.76222 0.0
C530 C 0.20283 0.39321 0.77395 0.0
H531 H 0.27171 0.33361 0.72741 0.0
H532 H 0.20929 0.33277 0.77224 0.0
C533 C 0.22016 0.42739 0.76088 0.0
C534 C 0.258 0.61875 0.25982 0.0
C535 C 0.27588 0.58459 0.27236 0.0
H536 H 0.20973 0.64557 0.22396 0.0
C537 C 0.25758 0.55076 0.25956 0.0
H538 H 0.27157 0.64515 0.2696 0.0
C539 C 0.22154 0.55101 0.2351 0.0
C540 C 0.20399 0.58509 0.22195 0.0
H541 H 0.27056 0.52408 0.26933 0.0
H542 H 0.20792 0.52452 0.22568 0.0
C543 C 0.22271 0.61899 0.23402 0.0
loop_
_geom_bond_atom_site_label_1
_geom_bond_atom_site_label_2
_geom_bond_distance
_geom_bond_site_symmetry_2
_ccdc_geom_bond_type
Zn0 O3 2.031 . S
Zn0 O5 2.049 1_554 S
Zn0 O10 2.067 . S
Zn1 O2 1.962 . S
Zn1 O4 1.986 . S
Zn1 O6 1.996 . S
Zn1 O9 1.943 . S
O2 Zn1 1.962 . S
O2 C7 1.254 . S
O3 Zn0 2.031 . S
O3 C7 1.269 . S
O4 Zn1 1.986 . S
O4 C11 1.262 . S
O5 Zn0 2.049 1_556 S
O5 C13 1.260 1_556 S
O6 Zn1 1.996 . S
O6 C13 1.257 . S
C7 O2 1.254 . S
C7 O3 1.269 . S
C8 O9 1.249 . S
C8 O10 1.270 . S
O9 Zn1 1.943 . S
O9 C8 1.249 . S
O10 Zn0 2.067 . S
O10 C8 1.270 . S
C11 O4 1.262 . S
C11 O12 1.232 . S
O12 C11 1.232 . S
C13 O5 1.260 1_554 S
C13 O6 1.257 . S
Zn14 O17 2.031 . S
Zn14 O19 2.049 . S
Zn14 O24 2.067 . S
Zn15 O16 1.962 . S
Zn15 O18 1.986 . S
Zn15 O20 1.996 . S
Zn15 O23 1.943 . S
O16 Zn15 1.962 . S
O16 C21 1.254 . S
O17 Zn14 2.031 . S
O17 C21 1.269 . S
O18 Zn15 1.986 . S
O18 C25 1.262 . S
O19 Zn14 2.049 . S
O19 C27 1.260 . S
O20 Zn15 1.996 . S
O20 C27 1.257 . S
C21 O16 1.254 . S
C21 O17 1.269 . S
C22 O23 1.249 . S
C22 O24 1.270 . S
O23 Zn15 1.943 . S
O23 C22 1.249 . S
O24 Zn14 2.067 . S
O24 C22 1.270 . S
C25 O18 1.262 . S
C25 O26 1.232 . S
O26 C25 1.232 . S
C27 O19 1.260 . S
C27 O20 1.257 . S
Zn28 O31 2.031 . S
Zn28 O33 2.049 1_556 S
Zn28 O38 2.067 . S
Zn29 O30 1.962 . S
Zn29 O32 1.986 . S
Zn29 O34 1.996 . S
Zn29 O37 1.943 . S
O30 Zn29 1.962 . S
O30 C35 1.254 . S
O31 Zn28 2.031 . S
O31 C35 1.269 . S
O32 Zn29 1.986 . S
O32 C39 1.262 . S
O33 Zn28 2.049 1_554 S
O33 C41 1.260 1_554 S
O34 Zn29 1.996 . S
O34 C41 1.257 . S
C35 O30 1.254 . S
C35 O31 1.269 . S
C36 O37 1.249 . S
C36 O38 1.270 . S
O37 Zn29 1.943 . S
O37 C36 1.249 . S
O38 Zn28 2.067 . S
O38 C36 1.270 . S
C39 O32 1.262 . S
C39 O40 1.232 . S
O40 C39 1.232 . S
C41 O33 1.260 1_556 S
C41 O34 1.257 . S
Zn42 O45 2.031 . S
Zn42 O47 2.049 . S
Zn42 O52 2.067 . S
Zn43 O44 1.962 . S
Zn43 O46 1.986 . S
Zn43 O48 1.996 . S
Zn43 O51 1.943 . S
O44 Zn43 1.962 . S
O44 C49 1.254 . S
O45 Zn42 2.031 . S
O45 C49 1.269 . S
O46 Zn43 1.986 . S
O46 C53 1.262 . S
O47 Zn42 2.049 . S
O47 C55 1.260 . S
O48 Zn43 1.996 . S
O48 C55 1.257 . S
C49 O44 1.254 . S
C49 O45 1.269 . S
C50 O51 1.249 . S
C50 O52 1.270 . S
O51 Zn43 1.943 . S
O51 C50 1.249 . S
O52 Zn42 2.067 . S
O52 C50 1.270 . S
C53 O46 1.262 . S
C53 O54 1.232 . S
O54 C53 1.232 . S
C55 O47 1.260 . S
C55 O48 1.257 . S
Zn56 O59 2.031 . S
Zn56 O61 2.049 . S
Zn56 O66 2.067 . S
Zn57 O58 1.962 . S
Zn57 O60 1.986 . S
Zn57 O62 1.996 . S
Zn57 O65 1.943 . S
O58 Zn57 1.962 . S
O58 C63 1.254 . S
O59 Zn56 2.031 . S
O59 C63 1.269 . S
O60 Zn57 1.986 . S
O60 C67 1.262 . S
O61 Zn56 2.049 . S
O61 C69 1.260 . S
O62 Zn57 1.996 . S
O62 C69 1.257 . S
C63 O58 1.254 . S
C63 O59 1.269 . S
C64 O65 1.249 . S
C64 O66 1.270 . S
O65 Zn57 1.943 . S
O65 C64 1.249 . S
O66 Zn56 2.067 . S
O66 C64 1.270 . S
C67 O60 1.262 . S
C67 O68 1.232 . S
O68 C67 1.232 . S
C69 O61 1.260 . S
C69 O62 1.257 . S
Zn70 O73 2.031 . S
Zn70 O75 2.049 . S
Zn70 O80 2.067 . S
Zn71 O72 1.962 . S
Zn71 O74 1.986 . S
Zn71 O76 1.996 . S
Zn71 O79 1.943 . S
O72 Zn71 1.962 . S
O72 C77 1.254 . S
O73 Zn70 2.031 . S
O73 C77 1.269 . S
O74 Zn71 1.986 . S
O74 C81 1.262 . S
O75 Zn70 2.049 . S
O75 C83 1.260 . S
O76 Zn71 1.996 . S
O76 C83 1.257 . S
C77 O72 1.254 . S
C77 O73 1.269 . S
C78 O79 1.249 . S
C78 O80 1.270 . S
O79 Zn71 1.943 . S
O79 C78 1.249 . S
O80 Zn70 2.067 . S
O80 C78 1.270 . S
C81 O74 1.262 . S
C81 O82 1.232 . S
O82 C81 1.232 . S
C83 O75 1.260 . S
C83 O76 1.257 . S
Zn84 O87 2.031 . S
Zn84 O89 2.049 . S
Zn84 O94 2.067 . S
Zn85 O86 1.962 . S
Zn85 O88 1.986 . S
Zn85 O90 1.996 . S
Zn85 O93 1.943 . S
O86 Zn85 1.962 . S
O86 C91 1.254 . S
O87 Zn84 2.031 . S
O87 C91 1.269 . S
O88 Zn85 1.986 . S
O88 C95 1.262 . S
O89 Zn84 2.049 . S
O89 C97 1.260 . S
O90 Zn85 1.996 . S
O90 C97 1.257 . S
C91 O86 1.254 . S
C91 O87 1.269 . S
C92 O93 1.249 . S
C92 O94 1.270 . S
O93 Zn85 1.943 . S
O93 C92 1.249 . S
O94 Zn84 2.067 . S
O94 C92 1.270 . S
C95 O88 1.262 . S
C95 O96 1.232 . S
O96 C95 1.232 . S
C97 O89 1.260 . S
C97 O90 1.257 . S
Zn98 O101 2.031 . S
Zn98 O103 2.049 . S
Zn98 O108 2.067 . S
Zn99 O100 1.962 . S
Zn99 O102 1.986 . S
Zn99 O104 1.996 . S
Zn99 O107 1.943 . S
O100 Zn99 1.962 . S
O100 C105 1.254 . S
O101 Zn98 2.031 . S
O101 C105 1.269 . S
O102 Zn99 1.986 . S
O102 C109 1.262 . S
O103 Zn98 2.049 . S
O103 C111 1.260 . S
O104 Zn99 1.996 . S
O104 C111 1.257 . S
C105 O100 1.254 . S
C105 O101 1.269 . S
C106 O107 1.249 . S
C106 O108 1.270 . S
O107 Zn99 1.943 . S
O107 C106 1.249 . S
O108 Zn98 2.067 . S
O108 C106 1.270 . S
C109 O102 1.262 . S
C109 O110 1.232 . S
O110 C109 1.232 . S
C111 O103 1.260 . S
C111 O104 1.257 . S
Zn112 O115 2.031 . S
Zn112 O117 2.049 1_554 S
Zn112 O122 2.067 . S
Zn113 O114 1.962 . S
Zn113 O116 1.986 . S
Zn113 O118 1.996 . S
Zn113 O121 1.943 . S
O114 Zn113 1.962 . S
O114 C119 1.254 . S
O115 Zn112 2.031 . S
O115 C119 1.269 . S
O116 Zn113 1.986 . S
O116 C123 1.262 . S
O117 Zn112 2.049 1_556 S
O117 C125 1.260 1_556 S
O118 Zn113 1.996 . S
O118 C125 1.257 . S
C119 O114 1.254 . S
C119 O115 1.269 . S
C120 O121 1.249 . S
C120 O122 1.270 . S
O121 Zn113 1.943 . S
O121 C120 1.249 . S
O122 Zn112 2.067 . S
O122 C120 1.270 . S
C123 O116 1.262 . S
C123 O124 1.232 . S
O124 C123 1.232 . S
C125 O117 1.260 1_554 S
C125 O118 1.257 . S
Zn126 O129 2.031 . S
Zn126 O131 2.049 . S
Zn126 O136 2.067 . S
Zn127 O128 1.962 . S
Zn127 O130 1.986 . S
Zn127 O132 1.996 . S
Zn127 O135 1.943 . S
O128 Zn127 1.962 . S
O128 C133 1.254 . S
O129 Zn126 2.031 . S
O129 C133 1.269 . S
O130 Zn127 1.986 . S
O130 C137 1.262 . S
O131 Zn126 2.049 . S
O131 C139 1.260 . S
O132 Zn127 1.996 . S
O132 C139 1.257 . S
C133 O128 1.254 . S
C133 O129 1.269 . S
C134 O135 1.249 . S
C134 O136 1.270 . S
O135 Zn127 1.943 . S
O135 C134 1.249 . S
O136 Zn126 2.067 . S
O136 C134 1.270 . S
C137 O130 1.262 . S
C137 O138 1.232 . S
O138 C137 1.232 . S
C139 O131 1.260 . S
C139 O132 1.257 . S
Zn140 O143 2.031 . S
Zn140 O145 2.049 1_556 S
Zn140 O150 2.067 . S
Zn141 O142 1.962 . S
Zn141 O144 1.986 . S
Zn141 O146 1.996 . S
Zn141 O149 1.943 . S
O142 Zn141 1.962 . S
O142 C147 1.254 . S
O143 Zn140 2.031 . S
O143 C147 1.269 . S
O144 Zn141 1.986 . S
O144 C151 1.262 . S
O145 Zn140 2.049 1_554 S
O145 C153 1.260 1_554 S
O146 Zn141 1.996 . S
O146 C153 1.257 . S
C147 O142 1.254 . S
C147 O143 1.269 . S
C148 O149 1.249 . S
C148 O150 1.270 . S
O149 Zn141 1.943 . S
O149 C148 1.249 . S
O150 Zn140 2.067 . S
O150 C148 1.270 . S
C151 O144 1.262 . S
C151 O152 1.232 . S
O152 C151 1.232 . S
C153 O145 1.260 1_556 S
C153 O146 1.257 . S
Zn154 O157 2.031 . S
Zn154 O159 2.049 . S
Zn154 O164 2.067 . S
Zn155 O156 1.962 . S
Zn155 O158 1.986 . S
Zn155 O160 1.996 . S
Zn155 O163 1.943 . S
O156 Zn155 1.962 . S
O156 C161 1.254 . S
O157 Zn154 2.031 . S
O157 C161 1.269 . S
O158 Zn155 1.986 . S
O158 C165 1.262 . S
O159 Zn154 2.049 . S
O159 C167 1.260 . S
O160 Zn155 1.996 . S
O160 C167 1.257 . S
C161 O156 1.254 . S
C161 O157 1.269 . S
C162 O163 1.249 . S
C162 O164 1.270 . S
O163 Zn155 1.943 . S
O163 C162 1.249 . S
O164 Zn154 2.067 . S
O164 C162 1.270 . S
C165 O158 1.262 . S
C165 O166 1.232 . S
O166 C165 1.232 . S
C167 O159 1.260 . S
C167 O160 1.257 . S
Zn168 O171 2.031 . S
Zn168 O173 2.049 . S
Zn168 O178 2.067 . S
Zn169 O170 1.962 . S
Zn169 O172 1.986 . S
Zn169 O174 1.996 . S
Zn169 O177 1.943 . S
O170 Zn169 1.962 . S
O170 C175 1.254 . S
O171 Zn168 2.031 . S
O171 C175 1.269 . S
O172 Zn169 1.986 . S
O172 C179 1.262 . S
O173 Zn168 2.049 . S
O173 C181 1.260 . S
O174 Zn169 1.996 . S
O174 C181 1.257 . S
C175 O170 1.254 . S
C175 O171 1.269 . S
C176 O177 1.249 . S
C176 O178 1.270 . S
O177 Zn169 1.943 . S
O177 C176 1.249 . S
O178 Zn168 2.067 . S
O178 C176 1.270 . S
C179 O172 1.262 . S
C179 O180 1.232 . S
O180 C179 1.232 . S
C181 O173 1.260 . S
C181 O174 1.257 . S
Zn182 O185 2.031 . S
Zn182 O187 2.049 . S
Zn182 O192 2.067 . S
Zn183 O184 1.962 . S
Zn183 O186 1.986 . S
Zn183 O188 1.996 . S
Zn183 O191 1.943 . S
O184 Zn183 1.962 . S
O184 C189 1.254 . S
O185 Zn182 2.031 . S
O185 C189 1.269 . S
O186 Zn183 1.986 . S
O186 C193 1.262 . S
O187 Zn182 2.049 . S
O187 C195 1.260 . S
O188 Zn183 1.996 . S
O188 C195 1.257 . S
C189 O184 1.254 . S
C189 O185 1.269 . S
C190 O191 1.249 . S
C190 O192 1.270 . S
O191 Zn183 1.943 . S
O191 C190 1.249 . S
O192 Zn182 2.067 . S
O192 C190 1.270 . S
C193 O186 1.262 . S
C193 O194 1.232 . S
O194 C193 1.232 . S
C195 O187 1.260 . S
C195 O188 1.257 . S
Zn196 O199 2.031 . S
Zn196 O201 2.049 . S
Zn196 O206 2.067 . S
Zn197 O198 1.962 . S
Zn197 O200 1.986 . S
Zn197 O202 1.996 . S
Zn197 O205 1.943 . S
O198 Zn197 1.962 . S
O198 C203 1.254 . S
O199 Zn196 2.031 . S
O199 C203 1.269 . S
O200 Zn197 1.986 . S
O200 C207 1.262 . S
O201 Zn196 2.049 . S
O201 C209 1.260 . S
O202 Zn197 1.996 . S
O202 C209 1.257 . S
C203 O198 1.254 . S
C203 O199 1.269 . S
C204 O205 1.249 . S
C204 O206 1.270 . S
O205 Zn197 1.943 . S
O205 C204 1.249 . S
O206 Zn196 2.067 . S
O206 C204 1.270 . S
C207 O200 1.262 . S
C207 O208 1.232 . S
O208 C207 1.232 . S
C209 O201 1.260 . S
C209 O202 1.257 . S
Zn210 O213 2.031 . S
Zn210 O215 2.049 . S
Zn210 O220 2.067 . S
Zn211 O212 1.962 . S
Zn211 O214 1.986 . S
Zn211 O216 1.996 . S
Zn211 O219 1.943 . S
O212 Zn211 1.962 . S
O212 C217 1.254 . S
O213 Zn210 2.031 . S
O213 C217 1.269 . S
O214 Zn211 1.986 . S
O214 C221 1.262 . S
O215 Zn210 2.049 . S
O215 C223 1.260 . S
O216 Zn211 1.996 . S
O216 C223 1.257 . S
C217 O212 1.254 . S
C217 O213 1.269 . S
C218 O219 1.249 . S
C218 O220 1.270 . S
O219 Zn211 1.943 . S
O219 C218 1.249 . S
O220 Zn210 2.067 . S
O220 C218 1.270 . S
C221 O214 1.262 . S
C221 O222 1.232 . S
O222 C221 1.232 . S
C223 O215 1.260 . S
C223 O216 1.257 . S
C224 C225 1.387 . S
C224 H228 0.950 . S
C224 C233 1.390 . S
C225 C224 1.387 . S
C225 C227 1.387 1_554 S
H226 C233 0.950 . S
C227 C225 1.387 1_556 S
C227 C229 1.390 . S
C227 H231 0.950 . S
H228 C224 0.950 . S
C229 C227 1.390 . S
C229 C230 1.387 . S
C229 H232 0.950 . S
C230 C229 1.387 . S
C230 C233 1.387 1_556 S
H231 C227 0.950 . S
H232 C229 0.950 . S
C233 C224 1.390 . S
C233 H226 0.950 . S
C233 C230 1.387 1_554 S
C234 C235 1.387 . S
C234 H238 0.950 . S
C234 C243 1.390 . S
C235 C234 1.387 . S
C235 C237 1.387 . S
H236 C243 0.950 . S
C237 C235 1.387 . S
C237 C239 1.390 . S
C237 H241 0.950 . S
H238 C234 0.950 . S
C239 C237 1.390 . S
C239 C240 1.387 . S
C239 H242 0.950 . S
C240 C239 1.387 . S
C240 C243 1.387 . S
H241 C237 0.950 . S
H242 C239 0.950 . S
C243 C234 1.390 . S
C243 H236 0.950 . S
C243 C240 1.387 . S
C244 C245 1.387 . S
C244 H248 0.950 . S
C244 C253 1.390 . S
C245 C244 1.387 . S
C245 C247 1.387 1_556 S
H246 C253 0.950 . S
C247 C245 1.387 1_554 S
C247 C249 1.390 . S
C247 H251 0.950 . S
H248 C244 0.950 . S
C249 C247 1.390 . S
C249 C250 1.387 . S
C249 H252 0.950 . S
C250 C249 1.387 . S
C250 C253 1.387 1_554 S
H251 C247 0.950 . S
H252 C249 0.950 . S
C253 C244 1.390 . S
C253 H246 0.950 . S
C253 C250 1.387 1_556 S
C254 C255 1.387 . S
C254 H258 0.950 . S
C254 C263 1.390 . S
C255 C254 1.387 . S
C255 C257 1.387 . S
H256 C263 0.950 . S
C257 C255 1.387 . S
C257 C259 1.390 . S
C257 H261 0.950 . S
H258 C254 0.950 . S
C259 C257 1.390 . S
C259 C260 1.387 . S
C259 H262 0.950 . S
C260 C259 1.387 . S
C260 C263 1.387 . S
H261 C257 0.950 . S
H262 C259 0.950 . S
C263 C254 1.390 . S
C263 H256 0.950 . S
C263 C260 1.387 . S
C264 C265 1.387 . S
C264 H268 0.950 . S
C264 C273 1.390 . S
C265 C264 1.387 . S
C265 C267 1.387 1_554 S
H266 C273 0.950 . S
C267 C265 1.387 1_556 S
C267 C269 1.390 . S
C267 H271 0.950 . S
H268 C264 0.950 . S
C269 C267 1.390 . S
C269 C270 1.387 . S
C269 H272 0.950 . S
C270 C269 1.387 . S
C270 C273 1.387 1_556 S
H271 C267 0.950 . S
H272 C269 0.950 . S
C273 C264 1.390 . S
C273 H266 0.950 . S
C273 C270 1.387 1_554 S
C274 C275 1.387 . S
C274 H278 0.950 . S
C274 C283 1.390 . S
C275 C274 1.387 . S
C275 C277 1.387 . S
H276 C283 0.950 . S
C277 C275 1.387 . S
C277 C279 1.390 . S
C277 H281 0.950 . S
H278 C274 0.950 . S
C279 C277 1.390 . S
C279 C280 1.387 . S
C279 H282 0.950 . S
C280 C279 1.387 . S
C280 C283 1.387 . S
H281 C277 0.950 . S
H282 C279 0.950 . S
C283 C274 1.390 . S
C283 H276 0.950 . S
C283 C280 1.387 . S
C284 C285 1.387 1_554 S
C284 H288 0.950 . S
C284 C293 1.390 . S
C285 C284 1.387 1_556 S
C285 C287 1.387 . S
H286 C293 0.950 . S
C287 C285 1.387 . S
C287 C289 1.390 . S
C287 H291 0.950 . S
H288 C284 0.950 . S
C289 C287 1.390 . S
C289 C290 1.387 1_556 S
C289 H292 0.950 . S
C290 C289 1.387 1_554 S
C290 C293 1.387 . S
H291 C287 0.950 . S
H292 C289 0.950 . S
C293 C284 1.390 . S
C293 H286 0.950 . S
C293 C290 1.387 . S
C294 C295 1.387 . S
C294 H298 0.950 . S
C294 C303 1.390 . S
C295 C294 1.387 . S
C295 C297 1.387 . S
H296 C303 0.950 . S
C297 C295 1.387 . S
C297 C299 1.390 . S
C297 H301 0.950 . S
H298 C294 0.950 . S
C299 C297 1.390 . S
C299 C300 1.387 . S
C299 H302 0.950 . S
C300 C299 1.387 . S
C300 C303 1.387 . S
H301 C297 0.950 . S
H302 C299 0.950 . S
C303 C294 1.390 . S
C303 H296 0.950 . S
C303 C300 1.387 . S
C304 C305 1.387 . S
C304 H308 0.950 . S
C304 C313 1.390 1_544 S
C305 C304 1.387 . S
C305 C307 1.387 . S
H306 C313 0.950 . S
C307 C305 1.387 . S
C307 C309 1.390 1_544 S
C307 H311 0.950 . S
H308 C304 0.950 . S
C309 C307 1.390 1_566 S
C309 C310 1.387 . S
C309 H312 0.950 . S
C310 C309 1.387 . S
C310 C313 1.387 . S
H311 C307 0.950 . S
H312 C309 0.950 . S
C313 C304 1.390 1_566 S
C313 H306 0.950 . S
C313 C310 1.387 . S
C314 C315 1.387 . S
C314 H318 0.950 . S
C314 C323 1.390 1_565 S
C315 C314 1.387 . S
C315 C317 1.387 . S
H316 C323 0.950 . S
C317 C315 1.387 . S
C317 C319 1.390 1_565 S
C317 H321 0.950 . S
H318 C314 0.950 . S
C319 C317 1.390 1_545 S
C319 C320 1.387 . S
C319 H322 0.950 . S
C320 C319 1.387 . S
C320 C323 1.387 . S
H321 C317 0.950 . S
H322 C319 0.950 . S
C323 C314 1.390 1_545 S
C323 H316 0.950 . S
C323 C320 1.387 . S
C324 C325 1.387 . S
C324 H328 0.950 . S
C324 C333 1.390 1_566 S
C325 C324 1.387 . S
C325 C327 1.387 . S
H326 C333 0.950 . S
C327 C325 1.387 . S
C327 C329 1.390 1_566 S
C327 H331 0.950 . S
H328 C324 0.950 . S
C329 C327 1.390 1_544 S
C329 C330 1.387 . S
C329 H332 0.950 . S
C330 C329 1.387 . S
C330 C333 1.387 . S
H331 C327 0.950 . S
H332 C329 0.950 . S
C333 C324 1.390 1_544 S
C333 H326 0.950 . S
C333 C330 1.387 . S
C334 C335 1.387 . S
C334 H338 0.950 . S
C334 C343 1.390 1_545 S
C335 C334 1.387 . S
C335 C337 1.387 . S
H336 C343 0.950 . S
C337 C335 1.387 . S
C337 C339 1.390 1_545 S
C337 H341 0.950 . S
H338 C334 0.950 . S
C339 C337 1.390 1_565 S
C339 C340 1.387 . S
C339 H342 0.950 . S
C340 C339 1.387 . S
C340 C343 1.387 . S
H341 C337 0.950 . S
H342 C339 0.950 . S
C343 C334 1.390 1_565 S
C343 H336 0.950 . S
C343 C340 1.387 . S
C344 C345 1.387 . S
C344 H348 0.950 . S
C344 C353 1.390 1_556 S
C345 C344 1.387 . S
C345 C347 1.387 . S
H346 C353 0.950 . S
C347 C345 1.387 . S
C347 C349 1.390 1_556 S
C347 H351 0.950 . S
H348 C344 0.950 . S
C349 C347 1.390 1_554 S
C349 C350 1.387 . S
C349 H352 0.950 . S
C350 C349 1.387 . S
C350 C353 1.387 . S
H351 C347 0.950 . S
H352 C349 0.950 . S
C353 C344 1.390 1_554 S
C353 H346 0.950 . S
C353 C350 1.387 . S
C354 C355 1.387 . S
C354 H358 0.950 . S
C354 C363 1.390 . S
C355 C354 1.387 . S
C355 C357 1.387 . S
H356 C363 0.950 . S
C357 C355 1.387 . S
C357 C359 1.390 . S
C357 H361 0.950 . S
H358 C354 0.950 . S
C359 C357 1.390 . S
C359 C360 1.387 . S
C359 H362 0.950 . S
C360 C359 1.387 . S
C360 C363 1.387 . S
H361 C357 0.950 . S
H362 C359 0.950 . S
C363 C354 1.390 . S
C363 H356 0.950 . S
C363 C360 1.387 . S
C364 C365 1.387 . S
C364 H368 0.950 . S
C364 C373 1.390 1_554 S
C365 C364 1.387 . S
C365 C367 1.387 . S
H366 C373 0.950 . S
C367 C365 1.387 . S
C367 C369 1.390 1_554 S
C367 H371 0.950 . S
H368 C364 0.950 . S
C369 C367 1.390 1_556 S
C369 C370 1.387 . S
C369 H372 0.950 . S
C370 C369 1.387 . S
C370 C373 1.387 . S
H371 C367 0.950 . S
H372 C369 0.950 . S
C373 C364 1.390 1_556 S
C373 H366 0.950 . S
C373 C370 1.387 . S
C374 C375 1.387 . S
C374 H378 0.950 . S
C374 C383 1.390 . S
C375 C374 1.387 . S
C375 C377 1.387 . S
H376 C383 0.950 . S
C377 C375 1.387 . S
C377 C379 1.390 . S
C377 H381 0.950 . S
H378 C374 0.950 . S
C379 C377 1.390 . S
C379 C380 1.387 . S
C379 H382 0.950 . S
C380 C379 1.387 . S
C380 C383 1.387 . S
H381 C377 0.950 . S
H382 C379 0.950 . S
C383 C374 1.390 . S
C383 H376 0.950 . S
C383 C380 1.387 . S
C384 C385 1.387 . S
C384 H388 0.950 . S
C384 C393 1.390 . S
C385 C384 1.387 . S
C385 C387 1.387 . S
H386 C393 0.950 . S
C387 C385 1.387 . S
C387 C389 1.390 . S
C387 H391 0.950 . S
H388 C384 0.950 . S
C389 C387 1.390 . S
C389 C390 1.387 . S
C389 H392 0.950 . S
C390 C389 1.387 . S
C390 C393 1.387 . S
H391 C387 0.950 . S
H392 C389 0.950 . S
C393 C384 1.390 . S
C393 H386 0.950 . S
C393 C390 1.387 . S
C394 C395 1.387 . S
C394 H398 0.950 . S
C394 C403 1.390 1_655 S
C395 C394 1.387 . S
C395 C397 1.387 . S
H396 C403 0.950 . S
C397 C395 1.387 . S
C397 C399 1.390 1_655 S
C397 H401 0.950 . S
H398 C394 0.950 . S
C399 C397 1.390 1_455 S
C399 C400 1.387 . S
C399 H402 0.950 . S
C400 C399 1.387 . S
C400 C403 1.387 . S
H401 C397 0.950 . S
H402 C399 0.950 . S
C403 C394 1.390 1_455 S
C403 H396 0.950 . S
C403 C400 1.387 . S
C404 C405 1.387 . S
C404 H408 0.950 . S
C404 C413 1.390 . S
C405 C404 1.387 . S
C405 C407 1.387 . S
H406 C413 0.950 . S
C407 C405 1.387 . S
C407 C409 1.390 . S
C407 H411 0.950 . S
H408 C404 0.950 . S
C409 C407 1.390 . S
C409 C410 1.387 . S
C409 H412 0.950 . S
C410 C409 1.387 . S
C410 C413 1.387 . S
H411 C407 0.950 . S
H412 C409 0.950 . S
C413 C404 1.390 . S
C413 H406 0.950 . S
C413 C410 1.387 . S
C414 C415 1.387 . S
C414 H418 0.950 . S
C414 C423 1.390 1_455 S
C415 C414 1.387 . S
C415 C417 1.387 . S
H416 C423 0.950 . S
C417 C415 1.387 . S
C417 C419 1.390 1_455 S
C417 H421 0.950 . S
H418 C414 0.950 . S
C419 C417 1.390 1_655 S
C419 C420 1.387 . S
C419 H422 0.950 . S
C420 C419 1.387 . S
C420 C423 1.387 . S
H421 C417 0.950 . S
H422 C419 0.950 . S
C423 C414 1.390 1_655 S
C423 H416 0.950 . S
C423 C420 1.387 . S
C424 C425 1.387 . S
C424 H428 0.950 . S
C424 C433 1.390 1_455 S
C425 C424 1.387 . S
C425 C427 1.387 . S
H426 C433 0.950 . S
C427 C425 1.387 . S
C427 C429 1.390 1_455 S
C427 H431 0.950 . S
H428 C424 0.950 . S
C429 C427 1.390 1_655 S
C429 C430 1.387 . S
C429 H432 0.950 . S
C430 C429 1.387 . S
C430 C433 1.387 . S
H431 C427 0.950 . S
H432 C429 0.950 . S
C433 C424 1.390 1_655 S
C433 H426 0.950 . S
C433 C430 1.387 . S
C434 C435 1.387 . S
C434 H438 0.950 . S
C434 C443 1.390 . S
C435 C434 1.387 . S
C435 C437 1.387 . S
H436 C443 0.950 . S
C437 C435 1.387 . S
C437 C439 1.390 . S
C437 H441 0.950 . S
H438 C434 0.950 . S
C439 C437 1.390 . S
C439 C440 1.387 . S
C439 H442 0.950 . S
C440 C439 1.387 . S
C440 C443 1.387 . S
H441 C437 0.950 . S
H442 C439 0.950 . S
C443 C434 1.390 . S
C443 H436 0.950 . S
C443 C440 1.387 . S
C444 C445 1.387 . S
C444 H448 0.950 . S
C444 C453 1.390 1_455 S
C445 C444 1.387 . S
C445 C447 1.387 . S
H446 C453 0.950 . S
C447 C445 1.387 . S
C447 C449 1.390 1_455 S
C447 H451 0.950 . S
H448 C444 0.950 . S
C449 C447 1.390 1_655 S
C449 C450 1.387 . S
C449 H452 0.950 . S
C450 C449 1.387 . S
C450 C453 1.387 . S
H451 C447 0.950 . S
H452 C449 0.950 . S
C453 C444 1.390 1_655 S
C453 H446 0.950 . S
C453 C450 1.387 . S
C454 C455 1.387 . S
C454 H458 0.950 . S
C454 C463 1.390 . S
C455 C454 1.387 . S
C455 C457 1.387 . S
H456 C463 0.950 . S
C457 C455 1.387 . S
C457 C459 1.390 . S
C457 H461 0.950 . S
H458 C454 0.950 . S
C459 C457 1.390 . S
C459 C460 1.387 . S
C459 H462 0.950 . S
C460 C459 1.387 . S
C460 C463 1.387 . S
H461 C457 0.950 . S
H462 C459 0.950 . S
C463 C454 1.390 . S
C463 H456 0.950 . S
C463 C460 1.387 . S
C464 C465 1.387 . S
C464 H468 0.950 . S
C464 C473 1.390 . S
C465 C464 1.387 . S
C465 C467 1.387 . S
H466 C473 0.950 . S
C467 C465 1.387 . S
C467 C469 1.390 . S
C467 H471 0.950 . S
H468 C464 0.950 . S
C469 C467 1.390 . S
C469 C470 1.387 . S
C469 H472 0.950 . S
C470 C469 1.387 . S
C470 C473 1.387 . S
H471 C467 0.950 . S
H472 C469 0.950 . S
C473 C464 1.390 . S
C473 H466 0.950 . S
C473 C470 1.387 . S
C474 C475 1.387 . S
C474 H478 0.950 . S
C474 C483 1.390 . S
C475 C474 1.387 . S
C475 C477 1.387 . S
H476 C483 0.950 . S
C477 C475 1.387 . S
C477 C479 1.390 . S
C477 H481 0.950 . S
H478 C474 0.950 . S
C479 C477 1.390 . S
C479 C480 1.387 . S
C479 H482 0.950 . S
C480 C479 1.387 . S
C480 C483 1.387 . S
H481 C477 0.950 . S
H482 C479 0.950 . S
C483 C474 1.390 . S
C483 H476 0.950 . S
C483 C480 1.387 . S
C484 C485 1.387 . S
C484 H488 0.950 . S
C484 C493 1.390 . S
C485 C484 1.387 . S
C485 C487 1.387 . S
H486 C493 0.950 . S
C487 C485 1.387 . S
C487 C489 1.390 . S
C487 H491 0.950 . S
H488 C484 0.950 . S
C489 C487 1.390 . S
C489 C490 1.387 . S
C489 H492 0.950 . S
C490 C489 1.387 . S
C490 C493 1.387 . S
H491 C487 0.950 . S
H492 C489 0.950 . S
C493 C484 1.390 . S
C493 H486 0.950 . S
C493 C490 1.387 . S
C494 C495 1.387 . S
C494 H498 0.950 . S
C494 C503 1.390 . S
C495 C494 1.387 . S
C495 C497 1.387 . S
H496 C503 0.950 . S
C497 C495 1.387 . S
C497 C499 1.390 . S
C497 H501 0.950 . S
H498 C494 0.950 . S
C499 C497 1.390 . S
C499 C500 1.387 . S
C499 H502 0.950 . S
C500 C499 1.387 . S
C500 C503 1.387 . S
H501 C497 0.950 . S
H502 C499 0.950 . S
C503 C494 1.390 . S
C503 H496 0.950 . S
C503 C500 1.387 . S
C504 C505 1.387 . S
C504 H508 0.950 . S
C504 C513 1.390 . S
C505 C504 1.387 . S
C505 C507 1.387 . S
H506 C513 0.950 . S
C507 C505 1.387 . S
C507 C509 1.390 . S
C507 H511 0.950 . S
H508 C504 0.950 . S
C509 C507 1.390 . S
C509 C510 1.387 . S
C509 H512 0.950 . S
C510 C509 1.387 . S
C510 C513 1.387 . S
H511 C507 0.950 . S
H512 C509 0.950 . S
C513 C504 1.390 . S
C513 H506 0.950 . S
C513 C510 1.387 . S
C514 C515 1.387 . S
C514 H518 0.950 . S
C514 C523 1.390 . S
C515 C514 1.387 . S
C515 C517 1.387 . S
H516 C523 0.950 . S
C517 C515 1.387 . S
C517 C519 1.390 . S
C517 H521 0.950 . S
H518 C514 0.950 . S
C519 C517 1.390 . S
C519 C520 1.387 . S
C519 H522 0.950 . S
C520 C519 1.387 . S
C520 C523 1.387 . S
H521 C517 0.950 . S
H522 C519 0.950 . S
C523 C514 1.390 . S
C523 H516 0.950 . S
C523 C520 1.387 . S
C524 C525 1.387 . S
C524 H528 0.950 . S
C524 C533 1.390 . S
C525 C524 1.387 . S
C525 C527 1.387 . S
H526 C533 0.950 . S
C527 C525 1.387 . S
C527 C529 1.390 . S
C527 H531 0.950 . S
H528 C524 0.950 . S
C529 C527 1.390 . S
C529 C530 1.387 . S
C529 H532 0.950 . S
C530 C529 1.387 . S
C530 C533 1.387 . S
H531 C527 0.950 . S
H532 C529 0.950 . S
C533 C524 1.390 . S
C533 H526 0.950 . S
C533 C530 1.387 . S
C534 C535 1.387 . S
C534 H538 0.950 . S
C534 C543 1.390 . S
C535 C534 1.387 . S
C535 C537 1.387 . S
H536 C543 0.950 . S
C537 C535 1.387 . S
C537 C539 1.390 . S
C537 H541 0.950 . S
H538 C534 0.950 . S
C539 C537 1.390 . S
C539 C540 1.387 . S
C539 H542 0.950 . S
C540 C539 1.387 . S
C540 C543 1.387 . S
H541 C537 0.950 . S
H542 C539 0.950 . S
C543 C534 1.390 . S
C543 H536 0.950 . S
C543 C540 1.387 . S
C225 C13 1.371 . S
C230 C179 1.456 . S
C235 C193 1.456 . S
C240 C27 1.370 . S
C245 C41 1.371 . S
C250 C207 1.456 . S
C255 C221 1.455 . S
C260 C55 1.367 . S
C265 C125 1.368 . S
C270 C67 1.456 . S
C275 C81 1.456 . S
C280 C139 1.371 . S
C285 C153 1.368 . S
C290 C95 1.455 . S
C295 C109 1.456 . S
C300 C167 1.370 . S
C305 C8 1.394 . S
C310 C36 1.394 . S
C315 C22 1.394 . S
C320 C50 1.394 . S
C325 C64 1.535 . S
C330 C92 1.535 . S
C335 C78 1.535 . S
C340 C106 1.535 . S
C345 C148 1.392 . S
C350 C120 1.392 . S
C355 C134 1.392 . S
C360 C162 1.392 . S
C365 C204 1.535 . S
C370 C176 1.535 . S
C375 C190 1.535 . S
C380 C218 1.535 . S
C385 C91 1.496 . S
C390 C7 1.496 . S
C395 C105 1.495 . S
C400 C21 1.495 . S
C405 C35 1.495 . S
C410 C63 1.495 . S
C415 C49 1.496 . S
C420 C77 1.496 . S
C425 C203 1.496 . S
C430 C119 1.496 . S
C435 C133 1.496 . S
C440 C217 1.496 . S
C445 C175 1.495 . S
C450 C147 1.495 . S
C455 C161 1.496 . S
C460 C189 1.496 . S
C465 C11 1.369 . S
C470 C53 1.369 . S
C475 C39 1.369 . S
C480 C25 1.369 . S
C485 C69 1.440 . S
C490 C111 1.440 . S
C495 C83 1.440 . S
C500 C97 1.440 . S
C505 C165 1.370 . S
C510 C123 1.370 . S
C515 C137 1.370 . S
C520 C151 1.370 . S
C525 C223 1.437 . S
C530 C181 1.437 . S
C535 C195 1.440 . S
C540 C209 1.440 . S
