# Generated by pormake.
# Topology sxb, (6)-cn, num edge types: 1
# Building blocks:
#     Node 0, Type 0, BuildingBlock: KUMBOL_clean_sbu_1, # of connection points: 6
#     Node 1, Type 0, BuildingBlock: KUMBOL_clean_sbu_1, # of connection points: 6
#     Node 2, Type 0, BuildingBlock: KUMBOL_clean_sbu_1, # of connection points: 6
#     Node 3, Type 0, BuildingBlock: KUMBOL_clean_sbu_1, # of connection points: 6
#     Edge 4, Type (0, 0), BuildingBlock: ZUJKAS_clean_linker_0, # of connection points: 2
#     Edge 5, Type (0, 0), BuildingBlock: ZUJKAS_clean_linker_0, # of connection points: 2
#     Edge 6, Type (0, 0), BuildingBlock: ZUJKAS_clean_linker_0, # of connection points: 2
#     Edge 7, Type (0, 0), BuildingBlock: ZUJKAS_clean_linker_0, # of connection points: 2
#     Edge 8, Type (0, 0), BuildingBlock: ZUJKAS_clean_linker_0, # of connection points: 2
#     Edge 9, Type (0, 0), BuildingBlock: ZUJKAS_clean_linker_0, # of connection points: 2
#     Edge 10, Type (0, 0), BuildingBlock: ZUJKAS_clean_linker_0, # of connection points: 2
#     Edge 11, Type (0, 0), BuildingBlock: ZUJKAS_clean_linker_0, # of connection points: 2
#     Edge 12, Type (0, 0), BuildingBlock: ZUJKAS_clean_linker_0, # of connection points: 2
#     Edge 13, Type (0, 0), BuildingBlock: ZUJKAS_clean_linker_0, # of connection points: 2
#     Edge 14, Type (0, 0), BuildingBlock: ZUJKAS_clean_linker_0, # of connection points: 2
#     Edge 15, Type (0, 0), BuildingBlock: ZUJKAS_clean_linker_0, # of connection points: 2
# Relax obj value: 0.010
# Max RMSD: 0.047
# Mean RMSD: 0.047
data_MOF--net-sxb--node1-KUMBOL_clean_sbu_1--edge1-ZUJKAS_clean_linker_0
_symmetry_space_group_name_H-M    P1
_symmetry_Int_Tables_number       1
_symmetry_cell_setting            triclinic
loop_
_symmetry_equiv_pos_as_xyz
'x, y, z'
_cell_length_a     19.690316
_cell_length_b     55.705559
_cell_length_c     38.713979
_cell_angle_alpha  115.17783
_cell_angle_beta   89.997921
_cell_angle_gamma 89.997949
loop_
_atom_site_label
_atom_site_type_symbol
_atom_site_fract_x
_atom_site_fract_y
_atom_site_fract_z
_atom_type_partial_charge
C0 C 0.1681 0.07203 0.05659 0.0
C1 C 0.23051 0.08178 0.00976 0.0
C2 C 0.17227 0.07191 0.02056 0.0
C3 C 0.28473 0.09171 0.03549 0.0
C4 C 0.22193 0.08273 0.0828 0.0
C5 C 0.28046 0.09218 0.07187 0.0
N6 N 0.11103 0.06242 0.06635 0.0
C7 C 0.10157 0.06626 0.10333 0.0
C8 C 0.21474 0.08424 0.11961 0.0
C9 C 0.15378 0.07647 0.13011 0.0
Gd10 Gd 0.02639 0.96552 0.98129 0.0
Gd11 Gd 0.02782 0.04545 0.01797 0.0
N12 N 0.12025 0.06117 0.99552 0.0
C13 C 0.2329 0.08104 0.97314 0.0
C14 C 0.12166 0.06081 0.96006 0.0
C15 C 0.17809 0.07062 0.94828 0.0
H16 H 0.07894 0.0531 0.94105 0.0
H17 H 0.17931 0.07015 0.92004 0.0
H18 H 0.97416 0.95764 0.05783 0.0
H19 H 0.05335 0.06239 0.11303 0.0
H20 H 0.87316 0.9407 0.07848 0.0
H21 H 0.27679 0.08843 0.96381 0.0
H22 H 0.33012 0.09918 0.02758 0.0
H23 H 1.00152 0.949 0.88627 0.0
H24 H 0.25487 0.09236 0.14055 0.0
H25 H 0.14637 0.07886 0.1591 0.0
H26 H 0.72254 0.9128 0.97093 0.0
H27 H 0.32241 0.10023 0.09157 0.0
H28 H 0.79924 0.92 0.85846 0.0
H29 H 0.90844 0.93315 0.84015 0.0
N30 N 0.94324 0.94903 0.9328 0.0
C31 C 0.88574 0.93958 0.94241 0.0
C32 C 0.95303 0.9453 0.8959 0.0
C33 C 0.83941 0.92785 0.87944 0.0
C34 C 0.90077 0.93543 0.86907 0.0
C35 C 0.83186 0.92921 0.91614 0.0
H36 H 0.73089 0.91211 0.90717 0.0
N37 N 0.93322 0.94998 0.00343 0.0
C38 C 0.88117 0.93952 0.97831 0.0
C39 C 0.81978 0.93029 0.02541 0.0
C40 C 0.82252 0.92976 0.98893 0.0
C41 C 0.93147 0.95012 0.03876 0.0
C42 C 0.87464 0.94039 0.05034 0.0
O43 O 0.12482 0.02215 0.99139 0.0
O44 O 0.1249 0.98683 0.00728 0.0
O45 O 0.05399 0.93206 0.99346 0.0
O46 O 0.07983 0.93146 0.9391 0.0
O47 O 0.9932 0.02015 0.9581 0.0
O48 O 0.05764 0.98207 0.93903 0.0
O49 O 0.93008 0.98912 0.00842 0.0
O50 O 0.92999 0.02383 0.99133 0.0
O51 O 1.00115 0.0793 0.00657 0.0
O52 O 0.97162 0.07886 0.05979 0.0
O53 O 0.06175 0.99066 0.04104 0.0
O54 O 0.998 0.02893 0.06051 0.0
C55 C 0.15752 1.00456 -0.00052 0.0
C56 C 0.02873 1.00101 0.93219 0.0
C57 C 0.15442 0.90966 0.96471 0.0
C58 C 0.22612 0.87665 0.97348 0.0
C59 C 0.27677 0.91521 0.96914 0.0
C60 C 0.21264 0.92421 0.96483 0.0
C61 C 0.28363 0.89166 0.97341 0.0
C62 C 0.16136 0.88587 0.96897 0.0
C63 C 0.08622 0.91959 0.96155 0.0
C64 C 0.76826 0.92016 0.96315 0.0
C65 C 0.77289 0.9199 0.9269 0.0
H66 H 0.77558 0.92297 0.0346 0.0
C67 C 0.89727 0.00636 -0.00035 0.0
C68 C 0.02702 0.00995 0.06722 0.0
C69 C 0.89883 0.10076 0.03339 0.0
C70 C 0.82809 0.13312 0.02253 0.0
C71 C 0.77722 0.09385 0.02442 0.0
C72 C 0.84077 0.08555 0.03105 0.0
C73 C 0.77081 0.11736 0.02 0.0
C74 C 0.89219 0.12469 0.02945 0.0
C75 C 0.96676 0.09118 0.03783 0.0
H76 H 0.32141 0.92653 0.96915 0.0
H77 H 0.20851 0.94255 0.96166 0.0
H78 H 0.3342 0.88505 0.9762 0.0
H79 H 0.11627 0.87486 0.96946 0.0
H80 H 0.73277 0.08194 0.02251 0.0
H81 H 0.84465 0.06717 0.0341 0.0
H82 H 0.72084 0.12338 0.01499 0.0
H83 H 0.93703 0.13636 0.03085 0.0
C84 C 0.15243 0.93858 0.43177 0.0
C85 C 0.2337 0.93132 0.47355 0.0
C86 C 0.17076 0.94104 0.46768 0.0
C87 C 0.27975 0.92039 0.4431 0.0
C88 C 0.19716 0.92636 0.40068 0.0
C89 C 0.26159 0.91799 0.40675 0.0
N90 N 0.08918 0.94639 0.42674 0.0
C91 C 0.0652 0.93991 0.39074 0.0
C92 C 0.17478 0.92198 0.36417 0.0
C93 C 0.10805 0.92832 0.35911 0.0
Gd94 Gd 0.02315 0.04745 0.51874 0.0
Gd95 Gd 0.02362 0.96765 0.48266 0.0
N96 N 0.12581 0.95224 0.49676 0.0
C97 C 0.24766 0.93231 0.50963 0.0
C98 C 0.13726 0.95195 0.53137 0.0
C99 C 0.19872 0.94226 0.53848 0.0
H100 H 0.09935 0.95976 0.55362 0.0
H101 H 0.20845 0.9426 0.56619 0.0
H102 H 1.00202 0.05249 0.43518 0.0
H103 H 1.01276 0.94335 0.38607 0.0
H104 H 0.90994 0.06285 0.40069 0.0
H105 H 0.29539 0.92496 0.51525 0.0
H106 H 0.32882 0.91315 0.44714 0.0
H107 H 0.97102 0.06781 0.60858 0.0
H108 H 0.20758 0.91268 0.33954 0.0
H109 H 0.08921 0.92389 0.33077 0.0
H110 H 0.72909 0.0942 0.49208 0.0
H111 H 0.29687 0.90883 0.38328 0.0
H112 H 0.77205 0.10129 0.61801 0.0
H113 H 0.86998 0.08928 0.6476 0.0
N114 N 0.92947 0.06724 0.55761 0.0
C115 C 0.87767 0.07477 0.54115 0.0
C116 C 0.92824 0.0729 0.59552 0.0
C117 C 0.81623 0.09197 0.60085 0.0
C118 C 0.87134 0.08514 0.61765 0.0
C119 C 0.81901 0.08691 0.5622 0.0
H120 H 0.71932 0.10255 0.55961 0.0
N121 N 0.94158 0.05892 0.48384 0.0
C122 C 0.88324 0.06988 0.50295 0.0
C123 C 0.83914 0.07375 0.44729 0.0
C124 C 0.83012 0.07728 0.48501 0.0
C125 C 0.95278 0.05774 0.44836 0.0
C126 C 0.90125 0.06441 0.42916 0.0
O127 O 0.12008 0.99177 0.50864 0.0
O128 O 0.11848 0.02515 0.48905 0.0
O129 O 0.04486 0.08515 0.5167 0.0
O130 O 0.08616 0.07707 0.56222 0.0
O131 O 0.99586 0.9937 0.54377 0.0
O132 O 0.05602 0.03297 0.56285 0.0
O133 O 0.92797 0.02591 0.52549 0.0
O134 O 0.92654 0.98594 0.4728 0.0
O135 O 0.97155 0.94787 0.51279 0.0
O136 O 0.99023 0.92658 0.45254 0.0
O137 O 0.05341 0.02173 0.45764 0.0
O138 O 0.98888 0.98385 0.44078 0.0
C139 C 0.15239 0.00839 0.49831 0.0
C140 C 0.03016 0.01348 0.56956 0.0
C141 C 0.15271 0.10322 0.5397 0.0
C142 C 0.21944 0.13655 0.52846 0.0
C143 C 0.27483 0.09827 0.5313 0.0
C144 C 0.2125 0.08893 0.53756 0.0
C145 C 0.27849 0.12184 0.52693 0.0
C146 C 0.15643 0.12703 0.53511 0.0
C147 C 0.0862 0.09308 0.54554 0.0
C148 C 0.77064 0.08862 0.50553 0.0
C149 C 0.76516 0.09348 0.54404 0.0
H150 H 0.79957 0.07917 0.43249 0.0
C151 C 0.89423 0.00645 0.49857 0.0
C152 C 1.02079 1.0013 0.43204 0.0
C153 C 0.89513 0.91351 0.47803 0.0
C154 C 0.82131 0.87913 0.4815 0.0
C155 C 0.77426 0.9141 0.46654 0.0
C156 C 0.8387 0.92521 0.46925 0.0
C157 C 0.76545 0.89132 0.4727 0.0
C158 C 0.88637 0.89042 0.48394 0.0
C159 C 0.96288 0.92575 0.48259 0.0
H160 H 0.32062 0.08717 0.52985 0.0
H161 H 0.21113 0.07052 0.54067 0.0
H162 H 0.32795 0.12868 0.52275 0.0
H163 H 0.11012 0.1378 0.53603 0.0
H164 H 0.7309 0.92321 0.45969 0.0
H165 H 0.84451 0.94297 0.46469 0.0
H166 H 0.71492 0.88305 0.47012 0.0
H167 H 0.92997 0.88161 0.49123 0.0
C168 C 0.6391 0.58094 0.07959 0.0
C169 C 0.73316 0.58433 0.04124 0.0
C170 C 0.66795 0.57486 0.04402 0.0
C171 C 0.76908 0.59991 0.07465 0.0
C172 C 0.67491 0.59673 0.11318 0.0
C173 C 0.74004 0.6061 0.1105 0.0
N174 N 0.57625 0.57139 0.08136 0.0
C175 C 0.5453 0.5776 0.11565 0.0
C176 C 0.64412 0.60265 0.14849 0.0
C177 C 0.57892 0.59315 0.1497 0.0
Gd178 Gd 0.52454 0.46539 0.97617 0.0
Gd179 Gd 0.52527 0.54532 0.02259 0.0
N180 N 0.63298 0.55893 0.01212 0.0
C181 C 0.76048 0.5777 0.00491 0.0
C182 C 0.65788 0.55347 0.97669 0.0
C183 C 0.72239 0.5624 0.97252 0.0
H184 H 0.62824 0.54221 0.95167 0.0
H185 H 0.74257 0.55758 0.94433 0.0
H186 H 0.42676 0.46841 0.04905 0.0
H187 H 0.49419 0.57097 0.1168 0.0
H188 H 0.31317 0.45354 0.05854 0.0
H189 H 0.81055 0.58449 0.00157 0.0
H190 H 0.81937 0.60729 0.07309 0.0
H191 H 0.5474 0.44155 0.88122 0.0
H192 H 0.66997 0.61473 0.17494 0.0
H193 H 0.55435 0.59795 0.17685 0.0
H194 H 0.22717 0.40548 0.93141 0.0
H195 H 0.76836 0.6182 0.13601 0.0
H196 H 0.36785 0.39899 0.82677 0.0
H197 H 0.48259 0.41563 0.82253 0.0
N198 N 0.46888 0.44061 0.91839 0.0
C199 C 0.40651 0.43114 0.9214 0.0
C200 C 0.49672 0.43496 0.8835 0.0
C201 C 0.39578 0.41057 0.85268 0.0
C202 C 0.46046 0.42 0.85016 0.0
C203 C 0.36809 0.41599 0.88856 0.0
H204 H 0.27312 0.3952 0.86757 0.0
N205 N 0.41773 0.45232 0.98879 0.0
C206 C 0.38052 0.43687 0.95754 0.0
C207 C 0.29098 0.43408 -0.00163 0.0
C208 C 0.31562 0.42767 0.96156 0.0
C209 C 0.39536 0.45761 0.02462 0.0
C210 C 0.33128 0.44891 0.03 0.0
O211 O 0.62449 0.5242 0.02398 0.0
O212 O 0.62515 0.4834 0.97174 0.0
O213 O 0.55811 0.44174 0.00548 0.0
O214 O 0.56663 0.42598 0.94415 0.0
O215 O 0.50181 0.52085 0.95999 0.0
O216 O 0.56707 0.48312 0.93813 0.0
O217 O 0.4258 0.48689 0.97498 0.0
O218 O 0.42539 0.52723 0.0279 0.0
O219 O 0.49436 0.56798 0.99137 0.0
O220 O 0.47925 0.58432 0.05236 0.0
O221 O 0.54842 0.48922 0.03887 0.0
O222 O 0.48467 0.52749 0.06095 0.0
C223 C 0.65696 0.50346 -0.00141 0.0
C224 C 0.53954 0.50305 0.93346 0.0
C225 C 0.64699 0.41135 0.97632 0.0
C226 C 0.71741 0.37654 0.98087 0.0
C227 C 0.76979 0.41413 0.97465 0.0
C228 C 0.70584 0.42464 0.97375 0.0
C229 C 0.77567 0.3902 0.97798 0.0
C230 C 0.6529 0.38742 0.98028 0.0
C231 C 0.57941 0.42212 0.97441 0.0
C232 C 0.27724 0.41264 0.92887 0.0
C233 C 0.3034 0.40681 0.8925 0.0
H234 H 0.24123 0.42748 0.00266 0.0
C235 C 0.39334 0.50734 0.00095 0.0
C236 C 0.51336 0.50786 0.06595 0.0
C237 C 0.40188 0.59714 0.01654 0.0
C238 C 0.33098 0.63008 0.00711 0.0
C239 C 0.27989 0.59106 0.00989 0.0
C240 C 0.34374 0.58225 0.01505 0.0
C241 C 0.2734 0.61475 0.00598 0.0
C242 C 0.39542 0.62106 0.0126 0.0
C243 C 0.46946 0.58756 0.02133 0.0
H244 H 0.81499 0.42453 0.97265 0.0
H245 H 0.70221 0.44305 0.97086 0.0
H246 H 0.8259 0.38251 0.97872 0.0
H247 H 0.60743 0.37706 0.98215 0.0
H248 H 0.23519 0.57947 0.00895 0.0
H249 H 0.34785 0.56382 0.01783 0.0
H250 H 0.22302 0.62122 0.00252 0.0
H251 H 0.4406 0.63233 0.01318 0.0
C252 C 0.65149 0.43888 0.43444 0.0
C253 C 0.7321 0.43216 0.477 0.0
C254 C 0.66936 0.44178 0.47063 0.0
C255 C 0.7784 0.42089 0.44675 0.0
C256 C 0.69649 0.42633 0.40358 0.0
C257 C 0.76071 0.41804 0.41013 0.0
N258 N 0.58842 0.44661 0.42897 0.0
C259 C 0.56488 0.43975 0.39278 0.0
C260 C 0.67458 0.42154 0.36684 0.0
C261 C 0.60803 0.42783 0.36136 0.0
Gd262 Gd 0.52156 0.54799 0.51862 0.0
Gd263 Gd 0.52231 0.46839 0.48453 0.0
N264 N 0.62421 0.45332 0.49951 0.0
C265 C 0.74562 0.43363 0.51339 0.0
C266 C 0.63524 0.45352 0.53446 0.0
C267 C 0.69646 0.44396 0.54207 0.0
H268 H 0.59714 0.46158 0.55656 0.0
H269 H 0.70584 0.44467 0.57004 0.0
H270 H 0.50195 0.55197 0.43422 0.0
H271 H 0.51255 0.44313 0.3878 0.0
H272 H 0.41036 0.5615 0.39859 0.0
H273 H 0.79316 0.42638 0.5194 0.0
H274 H 0.82731 0.41372 0.45116 0.0
H275 H 0.46791 0.56935 0.6083 0.0
H276 H 0.70761 0.41198 0.34238 0.0
H277 H 0.58954 0.42309 0.33286 0.0
H278 H 0.22751 0.59309 0.48864 0.0
H279 H 0.79619 0.40864 0.38683 0.0
H280 H 0.26841 0.60204 0.61569 0.0
H281 H 0.36605 0.59091 0.64647 0.0
N282 N 0.4271 0.56793 0.55669 0.0
C283 C 0.37549 0.575 0.53958 0.0
C284 C 0.42527 0.5741 0.59476 0.0
C285 C 0.31296 0.59271 0.59892 0.0
C286 C 0.36791 0.58637 0.61639 0.0
C287 C 0.31637 0.58714 0.5601 0.0
H288 H 0.21652 0.60225 0.55642 0.0
N289 N 0.44054 0.55874 0.48267 0.0
C290 C 0.38175 0.56965 0.50124 0.0
C291 C 0.3386 0.57264 0.44478 0.0
C292 C 0.32886 0.57658 0.48262 0.0
C293 C 0.45242 0.55719 0.44705 0.0
C294 C 0.40115 0.56338 0.42718 0.0
O295 O 0.61881 0.49264 0.51004 0.0
O296 O 0.61717 0.52558 0.48954 0.0
O297 O 0.54373 0.58537 0.51565 0.0
O298 O 0.58354 0.57804 0.56213 0.0
O299 O 0.49466 0.49501 0.5455 0.0
O300 O 0.55461 0.53424 0.56347 0.0
O301 O 0.42664 0.52659 0.52605 0.0
O302 O 0.42525 0.48632 0.47395 0.0
O303 O 0.46962 0.44909 0.51514 0.0
O304 O 0.48956 0.42719 0.45512 0.0
O305 O 0.5523 0.52167 0.45781 0.0
O306 O 0.48776 0.48389 0.44182 0.0
C307 C 0.65108 0.50906 0.49928 0.0
C308 C 0.52901 0.51501 0.57086 0.0
C309 C 0.65103 0.60378 0.53937 0.0
C310 C 0.71863 0.637 0.52838 0.0
C311 C 0.77329 0.59884 0.53197 0.0
C312 C 0.71063 0.58953 0.5378 0.0
C313 C 0.77748 0.62234 0.52744 0.0
C314 C 0.65526 0.62752 0.53462 0.0
C315 C 0.58423 0.59369 0.54488 0.0
C316 C 0.26889 0.58789 0.50261 0.0
C317 C 0.26273 0.59321 0.54126 0.0
H318 H 0.29922 0.57768 0.42945 0.0
C319 C 0.39291 0.50699 0.49938 0.0
C320 C 0.51979 0.50105 0.43253 0.0
C321 C 0.39428 0.41422 0.48058 0.0
C322 C 0.32155 0.37944 0.48369 0.0
C323 C 0.27331 0.41437 0.46906 0.0
C324 C 0.33743 0.42576 0.4719 0.0
C325 C 0.26525 0.39146 0.475 0.0
C326 C 0.38627 0.391 0.48625 0.0
C327 C 0.46172 0.42671 0.48527 0.0
H328 H 0.81894 0.58777 0.53098 0.0
H329 H 0.70886 0.57118 0.54107 0.0
H330 H 0.82718 0.62916 0.52359 0.0
H331 H 0.60912 0.63826 0.5351 0.0
H332 H 0.22961 0.42336 0.46228 0.0
H333 H 0.34265 0.44361 0.46753 0.0
H334 H 0.21496 0.38298 0.47234 0.0
H335 H 0.4302 0.3823 0.49344 0.0
H336 H 0.39714 0.67766 0.04582 0.0
H337 H 0.3791 0.71945 0.04029 0.0
H338 H 0.22895 0.68153 0.95287 0.0
H339 H 0.24695 0.63976 0.95793 0.0
H340 H 0.39208 0.73182 0.97738 0.0
H341 H 0.12616 0.74595 0.02968 0.0
H342 H 0.18286 0.72239 0.03528 0.0
H343 H 0.14186 0.71447 0.99024 0.0
C344 C 0.36072 0.67813 0.02517 0.0
C345 C 0.32301 0.65532 0.00263 0.0
C346 C 0.35019 0.70209 0.02218 0.0
C347 C 0.30158 0.70382 0.99675 0.0
C348 C 0.26537 0.68092 0.97345 0.0
H349 H 0.15885 0.82922 0.93597 0.0
H350 H 0.17734 0.78757 0.94181 0.0
C351 C 0.27581 0.65701 0.9764 0.0
C352 C 0.28911 0.72944 0.99424 0.0
H353 H 0.16594 0.77524 0.00407 0.0
C354 C 0.34275 0.74139 0.98342 0.0
C355 C 0.22463 0.74192 0.00199 0.0
C356 C 0.16566 0.7307 0.01529 0.0
C357 C 0.3334 0.76513 0.97942 0.0
C358 C 0.26891 0.77763 0.98718 0.0
C359 C 0.21528 0.76568 0.99803 0.0
C360 C 0.2563 0.80319 0.9845 0.0
C361 C 0.39233 0.77626 0.96596 0.0
C362 C 0.29319 0.82606 0.00722 0.0
C363 C 0.28258 0.84989 0.00404 0.0
C364 C 0.23443 0.85152 0.97821 0.0
C365 C 0.19604 0.82877 0.9563 0.0
C366 C 0.2068 0.80489 0.95947 0.0
H367 H 0.43151 0.76092 0.95133 0.0
H368 H 0.37505 0.78469 0.94612 0.0
H369 H 0.4166 0.79237 0.99096 0.0
H370 H 0.33026 0.8255 0.02753 0.0
H371 H 0.31203 0.86711 0.02201 0.0
H372 H 0.79691 0.33417 0.93773 0.0
H373 H 0.81346 0.29292 0.94461 0.0
H374 H 0.67415 0.32034 0.03966 0.0
H375 H 0.65573 0.36132 0.03193 0.0
H376 H 0.8655 0.28406 -6e-05 0.0
H377 H 0.60023 0.2478 0.98014 0.0
H378 H 0.62633 0.27539 0.97053 0.0
H379 H 0.60846 0.28017 0.01867 0.0
C380 C 0.7694 0.33131 0.95992 0.0
C381 C 0.72476 0.35096 0.98418 0.0
C382 C 0.77892 0.3077 0.96386 0.0
C383 C 0.74443 0.30317 0.99233 0.0
C384 C 0.69998 0.32287 0.01676 0.0
H385 H 0.87898 0.18248 0.06749 0.0
H386 H 0.85982 0.22389 0.06113 0.0
C387 C 0.68964 0.34638 0.01244 0.0
C388 C 0.75713 0.27825 0.99704 0.0
H389 H 0.67869 0.22526 0.00269 0.0
C390 C 0.82456 0.27116 0.00037 0.0
C391 C 0.70402 0.2611 0.99713 0.0
C392 C 0.6308 0.26633 0.99103 0.0
C393 C 0.84033 0.24765 0.00387 0.0
C394 C 0.78708 0.23101 0.00541 0.0
C395 C 0.71966 0.23805 0.00193 0.0
C396 C 0.79992 0.20586 0.00943 0.0
C397 C 0.91411 0.24055 0.00467 0.0
C398 C 0.77132 0.1819 0.98322 0.0
C399 C 0.78119 0.15834 0.98727 0.0
C400 C 0.82031 0.15808 0.01751 0.0
C401 C 0.84948 0.18197 0.04358 0.0
C402 C 0.83874 0.20566 0.03984 0.0
H403 H 0.94714 0.25054 0.99149 0.0
H404 H 0.93053 0.24718 0.03475 0.0
H405 H 0.92226 0.21881 0.9894 0.0
H406 H 0.7412 0.1814 0.9595 0.0
H407 H 0.75835 0.14023 0.96658 0.0
H408 H 0.14872 0.18341 0.56553 0.0
H409 H 0.16276 0.22493 0.5587 0.0
H410 H 0.31698 0.18838 0.47334 0.0
H411 H 0.30228 0.14674 0.47915 0.0
H412 H 0.35369 0.23923 0.53443 0.0
H413 H 0.10555 0.24206 0.46769 0.0
H414 H 0.10239 0.23647 0.51012 0.0
H415 H 0.13985 0.21191 0.46746 0.0
C416 C 0.18479 0.18401 0.5448 0.0
C417 C 0.22457 0.1616 0.52308 0.0
C418 C 0.19291 0.20784 0.54103 0.0
C419 C 0.24082 0.20978 0.51541 0.0
C420 C 0.2799 0.18742 0.49339 0.0
H421 H 0.3997 0.33429 0.45683 0.0
H422 H 0.38112 0.29367 0.46533 0.0
C423 C 0.27161 0.16361 0.49696 0.0
C424 C 0.25206 0.23525 0.51227 0.0
H425 H 0.17754 0.27909 0.4834 0.0
C426 C 0.31522 0.24796 0.52325 0.0
C427 C 0.20177 0.2467 0.49789 0.0
C428 C 0.13364 0.23359 0.48481 0.0
C429 C 0.32921 0.27194 0.52067 0.0
C430 C 0.27934 0.28321 0.5056 0.0
C431 C 0.21595 0.27052 0.49486 0.0
C432 C 0.29166 0.3081 0.50075 0.0
C433 C 0.39676 0.28524 0.53503 0.0
C434 C 0.24679 0.32966 0.5169 0.0
C435 C 0.25691 0.3528 0.51168 0.0
C436 C 0.31222 0.35502 0.49016 0.0
C437 C 0.35726 0.33345 0.47408 0.0
C438 C 0.34675 0.3102 0.47904 0.0
H439 H 0.41962 0.27886 0.55602 0.0
H440 H 0.43245 0.27964 0.51066 0.0
H441 H 0.39164 0.30717 0.54868 0.0
H442 H 0.20386 0.32863 0.53372 0.0
H443 H 0.22153 0.36908 0.52476 0.0
H444 H 0.89902 0.83383 0.45556 0.0
H445 H 0.8786 0.79329 0.46413 0.0
H446 H 0.70103 0.82902 0.53165 0.0
H447 H 0.72059 0.86936 0.52274 0.0
H448 H 0.87309 0.78361 0.52661 0.0
H449 H 0.62194 0.76046 0.45532 0.0
H450 H 0.6774 0.78545 0.45283 0.0
H451 H 0.62533 0.7928 0.49433 0.0
C452 C 0.85578 0.8331 0.47237 0.0
C453 C 0.81107 0.8548 0.48811 0.0
C454 C 0.84398 0.80984 0.47714 0.0
C455 C 0.78728 0.80774 0.49779 0.0
C456 C 0.74384 0.82971 0.51454 0.0
H457 H 0.64741 0.68388 0.56446 0.0
H458 H 0.66256 0.72529 0.55738 0.0
C459 C 0.75528 0.85286 0.50954 0.0
C460 C 0.77428 0.78277 0.50229 0.0
H461 H 0.65522 0.73461 0.48802 0.0
C462 C 0.82553 0.77288 0.51799 0.0
C463 C 0.71217 0.76863 0.49111 0.0
C464 C 0.65631 0.7772 0.47212 0.0
C465 C 0.81616 0.74958 0.52319 0.0
C466 C 0.75407 0.73555 0.51214 0.0
C467 C 0.70263 0.74545 0.49668 0.0
C468 C 0.74263 0.71012 0.51535 0.0
C469 C 0.87253 0.74028 0.54096 0.0
C470 C 0.78124 0.6876 0.49335 0.0
C471 C 0.77219 0.66385 0.49697 0.0
C472 C 0.7244 0.66198 0.52285 0.0
C473 C 0.68436 0.68442 0.5441 0.0
C474 C 0.69324 0.7082 0.54026 0.0
H475 H 0.91018 0.75623 0.5558 0.0
H476 H 0.85183 0.73322 0.56168 0.0
H477 H 0.89949 0.72346 0.51825 0.0
H478 H 0.81859 0.68841 0.47333 0.0
H479 H 0.80282 0.6469 0.47937 0.0
H480 H 0.24382 0.02407 0.9618 0.0
H481 H 0.36822 0.02441 0.96215 0.0
H482 H 0.36844 0.98414 0.03573 0.0
H483 H 0.24402 0.98407 0.03581 0.0
H484 H 0.4599 0.0466 0.02023 0.0
H485 H 0.49647 0.9376 0.95263 0.0
H486 H 0.4155 0.95287 0.95299 0.0
H487 H 0.44419 0.94911 0.99455 0.0
C488 C 0.27028 0.01557 0.97844 0.0
C489 C 0.23356 1.00431 -0.00091 0.0
C490 C 0.34166 0.01558 0.97839 0.0
C491 C 0.37847 1.00396 -0.0015 0.0
C492 C 0.34182 0.99273 0.01923 0.0
H493 H 0.81071 0.98763 0.03818 0.0
H494 H 0.68629 0.987 0.03731 0.0
C495 C 0.2704 0.99281 0.0194 0.0
C496 C 0.45486 1.00408 -0.00165 0.0
H497 H 0.59501 0.9638 0.9778 0.0
C498 C 0.48932 0.02845 0.01074 0.0
C499 C 0.49391 0.98047 0.98604 0.0
C500 C 0.46077 0.9535 0.97045 0.0
C501 C 0.56096 0.02991 0.01189 0.0
C502 C 0.59998 0.00632 -0.00032 0.0
C503 C 0.56555 0.98194 0.98727 0.0
C504 C 0.67634 0.00647 -0.00033 0.0
C505 C 0.59416 0.05686 0.02716 0.0
C506 C 0.7131 0.01722 0.97837 0.0
C507 C 0.78452 0.01725 0.97844 0.0
C508 C 0.82123 0.00642 -0.00033 0.0
C509 C 0.78436 0.99564 0.02089 0.0
C510 C 0.71298 0.99546 0.02063 0.0
H511 H 0.55849 0.07284 0.0448 0.0
H512 H 0.63941 0.0576 0.0447 0.0
H513 H 0.61086 0.06102 0.00287 0.0
H514 H 0.68655 0.02539 0.96131 0.0
H515 H 0.81103 0.0256 0.96158 0.0
H516 H 0.24003 0.99143 0.53852 0.0
H517 H 0.36432 0.99102 0.53768 0.0
H518 H 0.36309 0.02752 0.45936 0.0
H519 H 0.23845 0.02742 0.45958 0.0
H520 H 0.45584 0.96697 0.47947 0.0
H521 H 0.49261 0.07595 0.54102 0.0
H522 H 0.4124 0.06092 0.543 0.0
H523 H 0.43833 0.06308 0.49985 0.0
C524 C 0.26604 0.99896 0.52061 0.0
C525 C 0.22868 0.00897 0.49859 0.0
C526 C 0.33749 0.99896 0.52041 0.0
C527 C 0.37402 0.00947 0.49875 0.0
C528 C 0.3368 0.01969 0.47691 0.0
H529 H 0.80787 0.98013 0.43849 0.0
H530 H 0.68338 0.98058 0.43813 0.0
C531 C 0.26521 0.01952 0.47692 0.0
C532 C 0.45066 0.0093 0.49873 0.0
H533 H 0.59103 0.04947 0.51801 0.0
C534 C 0.48525 0.98505 0.48787 0.0
C535 C 0.48985 0.03284 0.51028 0.0
C536 C 0.45663 0.05973 0.52455 0.0
C537 C 0.55699 0.98365 0.4877 0.0
C538 C 0.59616 0.00709 0.49811 0.0
C539 C 0.5616 0.03139 0.50954 0.0
C540 C 0.67275 0.00689 0.49809 0.0
C541 C 0.59018 0.95705 0.4773 0.0
C542 C 0.70942 0.02192 0.53162 0.0
C543 C 0.7809 0.02162 0.53187 0.0
C544 C 0.81799 0.00667 0.49846 0.0
C545 C 0.78128 0.99178 0.46485 0.0
C546 C 0.70978 0.99196 0.46464 0.0
H547 H 0.55431 0.94254 0.47997 0.0
H548 H 0.60765 0.94894 0.44722 0.0
H549 H 0.63499 0.95895 0.49571 0.0
H550 H 0.68267 0.03364 0.5579 0.0
H551 H 0.80714 0.03283 0.55846 0.0
H552 H 0.74207 0.53296 0.0576 0.0
H553 H 0.8664 0.53413 0.05747 0.0
H554 H 0.86819 0.47508 0.9408 0.0
H555 H 0.74389 0.47438 0.94033 0.0
H556 H 0.95962 0.49297 0.04439 0.0
H557 H 0.99046 0.5332 0.93656 0.0
H558 H 0.91054 0.53422 0.96002 0.0
H559 H 0.93825 0.50405 0.92119 0.0
C560 C 0.76883 0.52039 0.03176 0.0
C561 C 0.73272 0.50369 -0.00111 0.0
C562 C 0.84006 0.52098 0.0318 0.0
C563 C 0.87697 0.50496 -0.00103 0.0
C564 C 0.84107 0.48801 0.96628 0.0
H565 H 0.30784 0.47814 0.94194 0.0
H566 H 0.18354 0.47714 0.94221 0.0
C567 C 0.76985 0.48745 0.96618 0.0
C568 C 0.95288 0.50561 -0.00085 0.0
H569 H 0.09061 0.51825 0.95548 0.0
C570 C 0.98823 0.49863 0.02508 0.0
C571 C 0.99046 0.51294 0.97391 0.0
C572 C 0.95565 0.52177 0.94656 0.0
C573 C 0.05978 0.49828 0.02596 0.0
C574 C 0.09736 0.5056 0.00071 0.0
C575 C 0.06201 0.51259 0.9748 0.0
C576 C 0.17329 0.50617 0.00081 0.0
C577 C 0.09457 0.48942 0.05329 0.0
C578 C 0.20938 0.523 0.03351 0.0
C579 C 0.28061 0.52344 0.03353 0.0
C580 C 0.31756 0.50718 0.00076 0.0
C581 C 0.28126 0.49066 0.96787 0.0
C582 C 0.21003 0.49018 0.96789 0.0
H583 H 0.05973 0.47799 0.06328 0.0
H584 H 0.13965 0.47696 0.03982 0.0
H585 H 0.11199 0.50713 0.07867 0.0
H586 H 0.1824 0.53594 0.05904 0.0
H587 H 0.30673 0.53647 0.05935 0.0
H588 H 0.30582 0.53347 0.55919 0.0
H589 H 0.18135 0.53429 0.5586 0.0
H590 H 0.18211 0.48106 0.4389 0.0
H591 H 0.30662 0.48056 0.43932 0.0
H592 H 0.08979 0.55007 0.5189 0.0
H593 H 0.05285 0.44311 0.48053 0.0
H594 H 0.13363 0.45945 0.49615 0.0
H595 H 0.10601 0.44951 0.44772 0.0
C596 C 0.27958 0.52221 0.53261 0.0
C597 C 0.31668 0.5072 0.49924 0.0
C598 C 0.20811 0.52252 0.53235 0.0
C599 C 0.17144 0.50746 0.49883 0.0
C600 C 0.20849 0.49246 0.46541 0.0
H601 H 0.7371 0.52795 0.46034 0.0
H602 H 0.86175 0.52806 0.46009 0.0
C603 C 0.28 0.49226 0.46565 0.0
C604 C 0.09484 0.50768 0.49885 0.0
H605 H 0.95443 0.4676 0.48013 0.0
C606 C 0.06033 0.53199 0.51038 0.0
C607 C 0.05562 0.48423 0.48836 0.0
C608 C 0.08873 0.45761 0.47784 0.0
C609 C 0.98858 0.53347 0.51116 0.0
C610 C 0.94935 0.50994 0.49955 0.0
C611 C 0.98388 0.48567 0.48858 0.0
C612 C 0.87273 0.51013 0.49964 0.0
C613 C 0.95539 0.56037 0.52552 0.0
C614 C 0.83623 0.49973 0.52143 0.0
C615 C 0.76479 0.49975 0.52168 0.0
C616 C 0.72738 0.50965 0.49955 0.0
C617 C 0.76389 0.52012 0.47775 0.0
C618 C 0.83547 0.52029 0.47772 0.0
H619 H 0.99144 0.57658 0.54192 0.0
H620 H 0.93686 0.56373 0.50087 0.0
H621 H 0.91129 0.56155 0.54406 0.0
H622 H 0.8631 0.49185 0.53877 0.0
H623 H 0.73881 0.4923 0.5397 0.0
H624 H 0.11641 0.017 0.39552 0.0
H625 H 0.10731 0.01786 0.3331 0.0
H626 H 0.90883 0.98197 0.31749 0.0
H627 H 0.91832 0.98062 0.37994 0.0
H628 H 0.98559 0.9609 0.25226 0.0
H629 H 0.99116 0.0705 0.31253 0.0
H630 H 0.06365 0.05737 0.32675 0.0
H631 H 0.98008 0.05281 0.34182 0.0
C632 C 0.07102 0.00913 0.37864 0.0
C633 C 1.01779 0.99895 0.39261 0.0
C634 C 0.06564 0.00983 0.34315 0.0
C635 C 1.00659 1.00068 0.32112 0.0
C636 C 0.95453 0.9894 0.33423 0.0
H637 H 0.93437 0.03653 0.12366 0.0
H638 H 0.92175 0.03405 0.18517 0.0
C639 C 0.96012 0.98851 0.36974 0.0
C640 C 0.99974 1.00296 0.28445 0.0
H641 H 1.01087 0.04732 0.24512 0.0
C642 C 0.99038 0.97982 0.25072 0.0
C643 C 1.00449 0.02774 0.28251 0.0
C644 C 1.00966 0.05354 0.31789 0.0
C645 C 0.98895 0.98064 0.21496 0.0
C646 C 0.9985 1.00518 0.21288 0.0
C647 C 1.00453 0.02847 0.24671 0.0
C648 C 1.00573 0.00691 0.17585 0.0
C649 C 0.97738 0.95518 0.17973 0.0
C650 C 0.0581 0.99305 0.15073 0.0
C651 C 0.06542 0.99445 0.11581 0.0
C652 C 1.02087 0.00996 0.10534 0.0
C653 C 0.96951 0.02445 0.13096 0.0
C654 C 0.96209 0.02296 0.16599 0.0
H655 H 0.94999 0.94034 0.18666 0.0
H656 H 0.94786 0.95872 0.1579 0.0
H657 H 0.0272 0.94651 0.16719 0.0
H658 H 0.09359 0.98116 0.1582 0.0
H659 H 0.10603 0.98327 0.09694 0.0
H660 H 0.94199 0.02293 0.89914 0.0
H661 H 0.95401 0.02491 0.8377 0.0
H662 H 0.14348 0.98222 0.81847 0.0
H663 H 0.13048 0.97944 0.87973 0.0
H664 H 0.04952 0.0481 0.81344 0.0
H665 H 0.04595 0.93998 0.71977 0.0
H666 H 0.02398 0.95334 0.76968 0.0
H667 H 0.11161 0.95016 0.75529 0.0
C668 C 0.98598 0.01375 0.88169 0.0
C669 C 0.03513 1.00087 0.89407 0.0
C670 C 0.9929 0.01498 0.84662 0.0
C671 C 0.0493 1.00351 0.82323 0.0
C672 C 0.09875 0.9907 0.83559 0.0
H673 H 0.12344 0.04033 0.6255 0.0
H674 H 0.13611 0.03859 0.68749 0.0
C675 C 0.09138 0.98916 0.87059 0.0
C676 C 0.05589 1.00546 0.78627 0.0
H677 H 0.06402 0.96853 0.68987 0.0
C678 C 0.05296 0.03071 0.78639 0.0
C679 C 0.05998 0.98275 0.751 0.0
C680 C 0.05995 0.95501 0.74872 0.0
C681 C 0.05206 0.03385 0.75226 0.0
C682 C 0.05624 0.01114 0.71699 0.0
C683 C 0.06116 0.98595 0.71693 0.0
C684 C 0.04974 0.0127 0.67975 0.0
C685 C 0.04348 0.06136 0.75434 0.0
C686 C 0.99795 0.99839 0.65452 0.0
C687 C 0.99133 0.99904 0.61908 0.0
C688 C 0.0361 0.01419 0.60807 0.0
C689 C 0.08767 0.02877 0.63343 0.0
C690 C 0.09482 0.02783 0.66887 0.0
H691 H 0.02444 0.07561 0.78271 0.0
H692 H 0.09337 0.06867 0.74949 0.0
H693 H 1.00768 0.06125 0.73211 0.0
H694 H 0.96243 0.98664 0.66226 0.0
H695 H 0.9509 0.98762 0.6003 0.0
H696 H 0.616 0.51566 0.39502 0.0
H697 H 0.60708 0.51562 0.33202 0.0
H698 H 0.40742 0.48082 0.31788 0.0
H699 H 0.41686 0.48028 0.38082 0.0
H700 H 0.482 0.45883 0.25249 0.0
H701 H 0.49375 0.56827 0.31049 0.0
H702 H 0.56612 0.55474 0.32415 0.0
H703 H 0.48285 0.55116 0.34057 0.0
C704 C 0.57042 0.50782 0.37833 0.0
C705 C 0.51686 0.49818 0.39284 0.0
C706 C 0.56513 0.50801 0.3425 0.0
C707 C 0.5058 0.49893 0.3207 0.0
C708 C 0.45338 0.48818 0.3344 0.0
H709 H 0.42561 0.53504 0.12482 0.0
H710 H 0.41738 0.53237 0.18628 0.0
C711 C 0.45891 0.48776 0.37021 0.0
C712 C 0.49877 0.50082 0.28374 0.0
H713 H 0.50975 0.54436 0.243 0.0
C714 C 0.48745 0.47755 0.25044 0.0
C715 C 0.50441 0.52535 0.28113 0.0
C716 C 0.51171 0.55133 0.31605 0.0
C717 C 0.48442 0.478 0.21445 0.0
C718 C 0.49444 0.50229 0.21164 0.0
C719 C 0.50298 0.5257 0.24509 0.0
C720 C 0.4986 0.50374 0.17426 0.0
C721 C 0.4702 0.45246 0.17984 0.0
C722 C 0.54775 0.48894 0.1474 0.0
C723 C 0.55254 0.49042 0.11239 0.0
C724 C 0.50891 0.50706 0.10365 0.0
C725 C 0.46037 0.52223 0.13082 0.0
C726 C 0.45539 0.52062 0.16586 0.0
H727 H 0.44262 0.43809 0.18768 0.0
H728 H 0.43972 0.45603 0.15834 0.0
H729 H 0.51904 0.44319 0.1665 0.0
H730 H 0.58293 0.47636 0.15364 0.0
H731 H 0.59087 0.47861 0.09227 0.0
H732 H 0.62455 0.54181 0.62534 0.0
H733 H 0.64064 0.54014 0.68722 0.0
H734 H 0.46511 0.48943 0.66544 0.0
H735 H 0.45015 0.49032 0.60359 0.0
H736 H 0.56376 0.55493 0.74955 0.0
H737 H 0.60253 0.44669 0.69123 0.0
H738 H 0.60251 0.46424 0.66136 0.0
H739 H 0.52366 0.45414 0.67485 0.0
C740 C 0.5894 0.53038 0.63389 0.0
C741 C 0.53651 0.516 0.60946 0.0
C742 C 0.59875 0.52936 0.66914 0.0
C743 C 0.55522 0.51404 0.68053 0.0
C744 C 0.50084 0.5006 0.65676 0.0
H745 H 0.4585 0.52986 0.90473 0.0
H746 H 0.46995 0.53289 0.84404 0.0
C747 C 0.49201 0.50132 0.62148 0.0
C748 C 0.565 0.51245 0.71758 0.0
H749 H 0.57059 0.46842 0.75759 0.0
C750 C 0.5662 0.53602 0.75129 0.0
C751 C 0.57001 0.48782 0.71994 0.0
C752 C 0.57542 0.46183 0.68485 0.0
C753 C 0.56861 0.53558 0.78729 0.0
C754 C 0.56758 0.51089 0.78968 0.0
C755 C 0.57005 0.48736 0.75591 0.0
C756 C 0.56116 0.50896 0.8267 0.0
C757 C 0.57247 0.56164 0.82233 0.0
C758 C 0.60679 0.49349 0.83659 0.0
C759 C 0.59936 0.49119 0.87104 0.0
C760 C 0.54631 0.50442 0.89626 0.0
C761 C 0.50037 0.51965 0.88612 0.0
C762 C 0.50725 0.52162 0.85153 0.0
H763 H 0.59713 0.57717 0.81578 0.0
H764 H 0.52028 0.56855 0.83258 0.0
H765 H 0.60118 0.55968 0.84569 0.0
H766 H 0.64846 0.48334 0.81777 0.0
H767 H 0.63574 0.47943 0.87818 0.0
loop_
_geom_bond_atom_site_label_1
_geom_bond_atom_site_label_2
_geom_bond_distance
_geom_bond_site_symmetry_2
_ccdc_geom_bond_type
C0 C2 1.422 . S
C0 C4 1.415 . S
C0 N6 1.369 . S
C1 C2 1.421 . S
C1 C3 1.417 . S
C1 C13 1.422 . S
C2 C0 1.422 . S
C2 C1 1.421 . S
C2 N12 1.359 . S
C3 C1 1.417 . S
C3 C5 1.329 . S
C3 H22 0.930 . S
C4 C0 1.415 . S
C4 C5 1.437 . S
C4 C8 1.413 . S
C5 C3 1.329 . S
C5 C4 1.437 . S
C5 H27 0.929 . S
N6 C0 1.369 . S
N6 C7 1.338 . S
N6 Gd11 2.622 . S
C7 N6 1.338 . S
C7 C9 1.378 . S
C7 H19 0.929 . S
C8 C4 1.413 . S
C8 C9 1.348 . S
C8 H24 0.931 . S
C9 C7 1.378 . S
C9 C8 1.348 . S
C9 H25 0.930 . S
Gd10 N30 2.622 . S
Gd10 N37 2.570 . S
Gd10 O44 2.353 1_655 S
Gd10 O45 2.468 1_655 S
Gd10 O46 2.427 1_655 S
Gd10 O48 2.388 1_655 S
Gd10 O49 2.386 . S
Gd10 O53 2.307 1_556 S
Gd10 C63 2.805 1_655 S
Gd11 N6 2.622 . S
Gd11 N12 2.570 . S
Gd11 O43 2.386 . S
Gd11 O47 2.307 1_554 S
Gd11 O50 2.353 1_455 S
Gd11 O51 2.468 1_455 S
Gd11 O52 2.427 1_455 S
Gd11 O54 2.388 1_455 S
Gd11 C75 2.805 1_455 S
N12 C2 1.359 . S
N12 Gd11 2.570 . S
N12 C14 1.343 1_554 S
C13 C1 1.422 . S
C13 C15 1.321 1_554 S
C13 H21 0.931 1_554 S
C14 N12 1.343 1_556 S
C14 C15 1.390 . S
C14 H16 0.931 . S
C15 C13 1.321 1_556 S
C15 C14 1.390 . S
C15 H17 0.930 . S
H16 C14 0.931 . S
H17 C15 0.930 . S
H18 C41 0.931 . S
H19 C7 0.929 . S
H20 C42 0.930 . S
H21 C13 0.931 1_556 S
H22 C3 0.930 . S
H23 C32 0.929 . S
H24 C8 0.931 . S
H25 C9 0.930 . S
H26 C64 0.930 . S
H27 C5 0.929 . S
H28 C33 0.931 . S
H29 C34 0.930 . S
N30 Gd10 2.622 . S
N30 C31 1.369 . S
N30 C32 1.338 . S
C31 N30 1.369 . S
C31 C35 1.415 . S
C31 C38 1.422 . S
C32 H23 0.929 . S
C32 N30 1.338 . S
C32 C34 1.378 . S
C33 H28 0.931 . S
C33 C34 1.348 . S
C33 C35 1.413 . S
C34 H29 0.930 . S
C34 C32 1.378 . S
C34 C33 1.348 . S
C35 C31 1.415 . S
C35 C33 1.413 . S
C35 C65 1.437 . S
H36 C65 0.929 . S
N37 Gd10 2.570 . S
N37 C38 1.359 . S
N37 C41 1.343 1_556 S
C38 C31 1.422 . S
C38 N37 1.359 . S
C38 C40 1.421 . S
C39 C40 1.422 . S
C39 C42 1.321 1_556 S
C39 H66 0.931 1_556 S
C40 C38 1.421 . S
C40 C39 1.422 . S
C40 C64 1.417 . S
C41 H18 0.931 . S
C41 N37 1.343 1_554 S
C41 C42 1.390 . S
C42 H20 0.930 . S
C42 C39 1.321 1_554 S
C42 C41 1.390 . S
O43 Gd11 2.386 . S
O43 C55 1.265 1_545 S
O44 Gd10 2.353 1_455 S
O44 C55 1.242 1_556 S
O45 Gd10 2.468 1_455 S
O45 C63 1.263 . S
O46 Gd10 2.427 1_455 S
O46 C63 1.252 . S
O47 Gd11 2.307 1_556 S
O47 C56 1.261 1_545 S
O48 Gd10 2.388 1_455 S
O48 C56 1.252 . S
O49 Gd10 2.386 . S
O49 C67 1.265 1_565 S
O50 Gd11 2.353 1_655 S
O50 C67 1.242 1_554 S
O51 Gd11 2.468 1_655 S
O51 C75 1.263 . S
O52 Gd11 2.427 1_655 S
O52 C75 1.252 . S
O53 Gd10 2.307 1_554 S
O53 C68 1.261 1_565 S
O54 Gd11 2.388 1_655 S
O54 C68 1.252 . S
C55 O43 1.265 1_565 S
C55 O44 1.242 1_554 S
C56 O47 1.261 1_565 S
C56 O48 1.252 . S
C57 C60 1.394 . S
C57 C62 1.370 . S
C57 C63 1.500 . S
C58 C61 1.383 . S
C58 C62 1.395 . S
C59 C60 1.396 . S
C59 C61 1.365 . S
C59 H76 0.929 . S
C60 C57 1.394 . S
C60 C59 1.396 . S
C60 H77 0.930 . S
C61 C58 1.383 . S
C61 C59 1.365 . S
C61 H78 0.931 . S
C62 C57 1.370 . S
C62 C58 1.395 . S
C62 H79 0.930 1_556 S
C63 Gd10 2.805 1_455 S
C63 O45 1.263 . S
C63 O46 1.252 . S
C63 C57 1.500 . S
C64 H26 0.930 . S
C64 C40 1.417 . S
C64 C65 1.329 . S
C65 C35 1.437 . S
C65 H36 0.929 . S
C65 C64 1.329 . S
H66 C39 0.931 1_554 S
C67 O49 1.265 1_545 S
C67 O50 1.242 1_556 S
C68 O53 1.261 1_545 S
C68 O54 1.252 . S
C69 C72 1.394 . S
C69 C74 1.370 . S
C69 C75 1.500 . S
C70 C73 1.383 . S
C70 C74 1.395 . S
C71 C72 1.396 . S
C71 C73 1.365 . S
C71 H80 0.929 . S
C72 C69 1.394 . S
C72 C71 1.396 . S
C72 H81 0.930 . S
C73 C70 1.383 . S
C73 C71 1.365 . S
C73 H82 0.931 . S
C74 C69 1.370 . S
C74 C70 1.395 . S
C74 H83 0.930 1_554 S
C75 Gd11 2.805 1_655 S
C75 O51 1.263 . S
C75 O52 1.252 . S
C75 C69 1.500 . S
H76 C59 0.929 . S
H77 C60 0.930 . S
H78 C61 0.931 . S
H79 C62 0.930 1_554 S
H80 C71 0.929 . S
H81 C72 0.930 . S
H82 C73 0.931 . S
H83 C74 0.930 1_556 S
C84 C86 1.422 . S
C84 C88 1.415 . S
C84 N90 1.369 . S
C85 C86 1.421 . S
C85 C87 1.417 . S
C85 C97 1.422 . S
C86 C84 1.422 . S
C86 C85 1.421 . S
C86 N96 1.359 . S
C87 C85 1.417 . S
C87 C89 1.329 . S
C87 H106 0.930 . S
C88 C84 1.415 . S
C88 C89 1.437 . S
C88 C92 1.413 . S
C89 C87 1.329 . S
C89 C88 1.437 . S
C89 H111 0.929 . S
N90 C84 1.369 . S
N90 C91 1.338 . S
N90 Gd95 2.622 . S
C91 N90 1.338 . S
C91 C93 1.378 . S
C91 H103 0.929 . S
C92 C88 1.413 . S
C92 C93 1.348 . S
C92 H108 0.931 . S
C93 C91 1.378 . S
C93 C92 1.348 . S
C93 H109 0.930 . S
Gd94 N114 2.622 . S
Gd94 N121 2.570 . S
Gd94 O128 2.353 1_655 S
Gd94 O129 2.468 1_655 S
Gd94 O130 2.427 1_655 S
Gd94 O132 2.388 1_655 S
Gd94 O133 2.386 . S
Gd94 O137 2.307 . S
Gd94 C147 2.805 1_655 S
Gd95 N90 2.622 . S
Gd95 N96 2.570 . S
Gd95 O127 2.386 . S
Gd95 O131 2.307 . S
Gd95 O134 2.353 1_455 S
Gd95 O135 2.468 1_455 S
Gd95 O136 2.427 1_455 S
Gd95 O138 2.388 1_455 S
Gd95 C159 2.805 1_455 S
N96 C86 1.359 . S
N96 Gd95 2.570 . S
N96 C98 1.343 . S
C97 C85 1.422 . S
C97 C99 1.321 . S
C97 H105 0.931 . S
C98 N96 1.343 . S
C98 C99 1.390 . S
C98 H100 0.931 . S
C99 C97 1.321 . S
C99 C98 1.390 . S
C99 H101 0.930 . S
H100 C98 0.931 . S
H101 C99 0.930 . S
H102 C125 0.931 . S
H103 C91 0.929 . S
H104 C126 0.930 . S
H105 C97 0.931 . S
H106 C87 0.930 . S
H107 C116 0.929 . S
H108 C92 0.931 . S
H109 C93 0.930 . S
H110 C148 0.930 . S
H111 C89 0.929 . S
H112 C117 0.931 . S
H113 C118 0.930 . S
N114 Gd94 2.622 . S
N114 C115 1.369 . S
N114 C116 1.338 . S
C115 N114 1.369 . S
C115 C119 1.415 . S
C115 C122 1.422 . S
C116 H107 0.929 . S
C116 N114 1.338 . S
C116 C118 1.378 . S
C117 H112 0.931 . S
C117 C118 1.348 . S
C117 C119 1.413 . S
C118 H113 0.930 . S
C118 C116 1.378 . S
C118 C117 1.348 . S
C119 C115 1.415 . S
C119 C117 1.413 . S
C119 C149 1.437 . S
H120 C149 0.929 . S
N121 Gd94 2.570 . S
N121 C122 1.359 . S
N121 C125 1.343 . S
C122 C115 1.422 . S
C122 N121 1.359 . S
C122 C124 1.421 . S
C123 C124 1.422 . S
C123 C126 1.321 . S
C123 H150 0.931 . S
C124 C122 1.421 . S
C124 C123 1.422 . S
C124 C148 1.417 . S
C125 H102 0.931 . S
C125 N121 1.343 . S
C125 C126 1.390 . S
C126 H104 0.930 . S
C126 C123 1.321 . S
C126 C125 1.390 . S
O127 Gd95 2.386 . S
O127 C139 1.265 1_565 S
O128 Gd94 2.353 1_455 S
O128 C139 1.242 . S
O129 Gd94 2.468 1_455 S
O129 C147 1.263 . S
O130 Gd94 2.427 1_455 S
O130 C147 1.252 . S
O131 Gd95 2.307 . S
O131 C140 1.261 1_565 S
O132 Gd94 2.388 1_455 S
O132 C140 1.252 . S
O133 Gd94 2.386 . S
O133 C151 1.265 1_545 S
O134 Gd95 2.353 1_655 S
O134 C151 1.242 . S
O135 Gd95 2.468 1_655 S
O135 C159 1.263 . S
O136 Gd95 2.427 1_655 S
O136 C159 1.252 . S
O137 Gd94 2.307 . S
O137 C152 1.261 1_545 S
O138 Gd95 2.388 1_655 S
O138 C152 1.252 . S
C139 O127 1.265 1_545 S
C139 O128 1.242 . S
C140 O131 1.261 1_545 S
C140 O132 1.252 . S
C141 C144 1.394 . S
C141 C146 1.370 . S
C141 C147 1.500 . S
C142 C145 1.383 . S
C142 C146 1.395 . S
C143 C144 1.396 . S
C143 C145 1.365 . S
C143 H160 0.929 . S
C144 C141 1.394 . S
C144 C143 1.396 . S
C144 H161 0.930 . S
C145 C142 1.383 . S
C145 C143 1.365 . S
C145 H162 0.931 . S
C146 C141 1.370 . S
C146 C142 1.395 . S
C146 H163 0.930 . S
C147 Gd94 2.805 1_455 S
C147 O129 1.263 . S
C147 O130 1.252 . S
C147 C141 1.500 . S
C148 H110 0.930 . S
C148 C124 1.417 . S
C148 C149 1.329 . S
C149 C119 1.437 . S
C149 H120 0.929 . S
C149 C148 1.329 . S
H150 C123 0.931 . S
C151 O133 1.265 1_565 S
C151 O134 1.242 . S
C152 O137 1.261 1_565 S
C152 O138 1.252 . S
C153 C156 1.394 . S
C153 C158 1.370 . S
C153 C159 1.500 . S
C154 C157 1.383 . S
C154 C158 1.395 . S
C155 C156 1.396 . S
C155 C157 1.365 . S
C155 H164 0.929 . S
C156 C153 1.394 . S
C156 C155 1.396 . S
C156 H165 0.930 . S
C157 C154 1.383 . S
C157 C155 1.365 . S
C157 H166 0.931 . S
C158 C153 1.370 . S
C158 C154 1.395 . S
C158 H167 0.930 . S
C159 Gd95 2.805 1_655 S
C159 O135 1.263 . S
C159 O136 1.252 . S
C159 C153 1.500 . S
H160 C143 0.929 . S
H161 C144 0.930 . S
H162 C145 0.931 . S
H163 C146 0.930 . S
H164 C155 0.929 . S
H165 C156 0.930 . S
H166 C157 0.931 . S
H167 C158 0.930 . S
C168 C170 1.422 . S
C168 C172 1.415 . S
C168 N174 1.369 . S
C169 C170 1.421 . S
C169 C171 1.417 . S
C169 C181 1.422 . S
C170 C168 1.422 . S
C170 C169 1.421 . S
C170 N180 1.359 . S
C171 C169 1.417 . S
C171 C173 1.329 . S
C171 H190 0.930 . S
C172 C168 1.415 . S
C172 C173 1.437 . S
C172 C176 1.413 . S
C173 C171 1.329 . S
C173 C172 1.437 . S
C173 H195 0.929 . S
N174 C168 1.369 . S
N174 C175 1.338 . S
N174 Gd179 2.622 . S
C175 N174 1.338 . S
C175 C177 1.378 . S
C175 H187 0.929 . S
C176 C172 1.413 . S
C176 C177 1.348 . S
C176 H192 0.931 . S
C177 C175 1.378 . S
C177 C176 1.348 . S
C177 H193 0.930 . S
Gd178 N198 2.622 . S
Gd178 N205 2.570 . S
Gd178 O212 2.353 . S
Gd178 O213 2.468 . S
Gd178 O214 2.427 . S
Gd178 O216 2.388 . S
Gd178 O217 2.386 . S
Gd178 O221 2.307 1_556 S
Gd178 C231 2.805 . S
Gd179 N174 2.622 . S
Gd179 N180 2.570 . S
Gd179 O211 2.386 . S
Gd179 O215 2.307 1_554 S
Gd179 O218 2.353 . S
Gd179 O219 2.468 . S
Gd179 O220 2.427 . S
Gd179 O222 2.388 . S
Gd179 C243 2.805 . S
N180 C170 1.359 . S
N180 Gd179 2.570 . S
N180 C182 1.343 1_554 S
C181 C169 1.422 . S
C181 C183 1.321 1_554 S
C181 H189 0.931 1_554 S
C182 N180 1.343 1_556 S
C182 C183 1.390 . S
C182 H184 0.931 . S
C183 C181 1.321 1_556 S
C183 C182 1.390 . S
C183 H185 0.930 . S
H184 C182 0.931 . S
H185 C183 0.930 . S
H186 C209 0.931 . S
H187 C175 0.929 . S
H188 C210 0.930 . S
H189 C181 0.931 1_556 S
H190 C171 0.930 . S
H191 C200 0.929 . S
H192 C176 0.931 . S
H193 C177 0.930 . S
H194 C232 0.930 . S
H195 C173 0.929 . S
H196 C201 0.931 . S
H197 C202 0.930 . S
N198 Gd178 2.622 . S
N198 C199 1.369 . S
N198 C200 1.338 . S
C199 N198 1.369 . S
C199 C203 1.415 . S
C199 C206 1.422 . S
C200 H191 0.929 . S
C200 N198 1.338 . S
C200 C202 1.378 . S
C201 H196 0.931 . S
C201 C202 1.348 . S
C201 C203 1.413 . S
C202 H197 0.930 . S
C202 C200 1.378 . S
C202 C201 1.348 . S
C203 C199 1.415 . S
C203 C201 1.413 . S
C203 C233 1.437 . S
H204 C233 0.929 . S
N205 Gd178 2.570 . S
N205 C206 1.359 . S
N205 C209 1.343 1_556 S
C206 C199 1.422 . S
C206 N205 1.359 . S
C206 C208 1.421 . S
C207 C208 1.422 . S
C207 C210 1.321 1_556 S
C207 H234 0.931 1_556 S
C208 C206 1.421 . S
C208 C207 1.422 . S
C208 C232 1.417 . S
C209 H186 0.931 . S
C209 N205 1.343 1_554 S
C209 C210 1.390 . S
C210 H188 0.930 . S
C210 C207 1.321 1_554 S
C210 C209 1.390 . S
O211 Gd179 2.386 . S
O211 C223 1.265 . S
O212 Gd178 2.353 . S
O212 C223 1.242 1_556 S
O213 Gd178 2.468 . S
O213 C231 1.263 . S
O214 Gd178 2.427 . S
O214 C231 1.252 . S
O215 Gd179 2.307 1_556 S
O215 C224 1.261 . S
O216 Gd178 2.388 . S
O216 C224 1.252 . S
O217 Gd178 2.386 . S
O217 C235 1.265 . S
O218 Gd179 2.353 . S
O218 C235 1.242 1_554 S
O219 Gd179 2.468 . S
O219 C243 1.263 . S
O220 Gd179 2.427 . S
O220 C243 1.252 . S
O221 Gd178 2.307 1_554 S
O221 C236 1.261 . S
O222 Gd179 2.388 . S
O222 C236 1.252 . S
C223 O211 1.265 . S
C223 O212 1.242 1_554 S
C224 O215 1.261 . S
C224 O216 1.252 . S
C225 C228 1.394 . S
C225 C230 1.370 . S
C225 C231 1.500 . S
C226 C229 1.383 . S
C226 C230 1.395 . S
C227 C228 1.396 . S
C227 C229 1.365 . S
C227 H244 0.929 . S
C228 C225 1.394 . S
C228 C227 1.396 . S
C228 H245 0.930 . S
C229 C226 1.383 . S
C229 C227 1.365 . S
C229 H246 0.931 . S
C230 C225 1.370 . S
C230 C226 1.395 . S
C230 H247 0.930 1_556 S
C231 Gd178 2.805 . S
C231 O213 1.263 . S
C231 O214 1.252 . S
C231 C225 1.500 . S
C232 H194 0.930 . S
C232 C208 1.417 . S
C232 C233 1.329 . S
C233 C203 1.437 . S
C233 H204 0.929 . S
C233 C232 1.329 . S
H234 C207 0.931 1_554 S
C235 O217 1.265 . S
C235 O218 1.242 1_556 S
C236 O221 1.261 . S
C236 O222 1.252 . S
C237 C240 1.394 . S
C237 C242 1.370 . S
C237 C243 1.500 . S
C238 C241 1.383 . S
C238 C242 1.395 . S
C239 C240 1.396 . S
C239 C241 1.365 . S
C239 H248 0.929 . S
C240 C237 1.394 . S
C240 C239 1.396 . S
C240 H249 0.930 . S
C241 C238 1.383 . S
C241 C239 1.365 . S
C241 H250 0.931 . S
C242 C237 1.370 . S
C242 C238 1.395 . S
C242 H251 0.930 1_554 S
C243 Gd179 2.805 . S
C243 O219 1.263 . S
C243 O220 1.252 . S
C243 C237 1.500 . S
H244 C227 0.929 . S
H245 C228 0.930 . S
H246 C229 0.931 . S
H247 C230 0.930 1_554 S
H248 C239 0.929 . S
H249 C240 0.930 . S
H250 C241 0.931 . S
H251 C242 0.930 1_556 S
C252 C254 1.422 . S
C252 C256 1.415 . S
C252 N258 1.369 . S
C253 C254 1.421 . S
C253 C255 1.417 . S
C253 C265 1.422 . S
C254 C252 1.422 . S
C254 C253 1.421 . S
C254 N264 1.359 . S
C255 C253 1.417 . S
C255 C257 1.329 . S
C255 H274 0.930 . S
C256 C252 1.415 . S
C256 C257 1.437 . S
C256 C260 1.413 . S
C257 C255 1.329 . S
C257 C256 1.437 . S
C257 H279 0.929 . S
N258 C252 1.369 . S
N258 C259 1.338 . S
N258 Gd263 2.622 . S
C259 N258 1.338 . S
C259 C261 1.378 . S
C259 H271 0.929 . S
C260 C256 1.413 . S
C260 C261 1.348 . S
C260 H276 0.931 . S
C261 C259 1.378 . S
C261 C260 1.348 . S
C261 H277 0.930 . S
Gd262 N282 2.622 . S
Gd262 N289 2.570 . S
Gd262 O296 2.353 . S
Gd262 O297 2.468 . S
Gd262 O298 2.427 . S
Gd262 O300 2.388 . S
Gd262 O301 2.386 . S
Gd262 O305 2.307 . S
Gd262 C315 2.805 . S
Gd263 N258 2.622 . S
Gd263 N264 2.570 . S
Gd263 O295 2.386 . S
Gd263 O299 2.307 . S
Gd263 O302 2.353 . S
Gd263 O303 2.468 . S
Gd263 O304 2.427 . S
Gd263 O306 2.388 . S
Gd263 C327 2.805 . S
N264 C254 1.359 . S
N264 Gd263 2.570 . S
N264 C266 1.343 . S
C265 C253 1.422 . S
C265 C267 1.321 . S
C265 H273 0.931 . S
C266 N264 1.343 . S
C266 C267 1.390 . S
C266 H268 0.931 . S
C267 C265 1.321 . S
C267 C266 1.390 . S
C267 H269 0.930 . S
H268 C266 0.931 . S
H269 C267 0.930 . S
H270 C293 0.931 . S
H271 C259 0.929 . S
H272 C294 0.930 . S
H273 C265 0.931 . S
H274 C255 0.930 . S
H275 C284 0.929 . S
H276 C260 0.931 . S
H277 C261 0.930 . S
H278 C316 0.930 . S
H279 C257 0.929 . S
H280 C285 0.931 . S
H281 C286 0.930 . S
N282 Gd262 2.622 . S
N282 C283 1.369 . S
N282 C284 1.338 . S
C283 N282 1.369 . S
C283 C287 1.415 . S
C283 C290 1.422 . S
C284 H275 0.929 . S
C284 N282 1.338 . S
C284 C286 1.378 . S
C285 H280 0.931 . S
C285 C286 1.348 . S
C285 C287 1.413 . S
C286 H281 0.930 . S
C286 C284 1.378 . S
C286 C285 1.348 . S
C287 C283 1.415 . S
C287 C285 1.413 . S
C287 C317 1.437 . S
H288 C317 0.929 . S
N289 Gd262 2.570 . S
N289 C290 1.359 . S
N289 C293 1.343 . S
C290 C283 1.422 . S
C290 N289 1.359 . S
C290 C292 1.421 . S
C291 C292 1.422 . S
C291 C294 1.321 . S
C291 H318 0.931 . S
C292 C290 1.421 . S
C292 C291 1.422 . S
C292 C316 1.417 . S
C293 H270 0.931 . S
C293 N289 1.343 . S
C293 C294 1.390 . S
C294 H272 0.930 . S
C294 C291 1.321 . S
C294 C293 1.390 . S
O295 Gd263 2.386 . S
O295 C307 1.265 . S
O296 Gd262 2.353 . S
O296 C307 1.242 . S
O297 Gd262 2.468 . S
O297 C315 1.263 . S
O298 Gd262 2.427 . S
O298 C315 1.252 . S
O299 Gd263 2.307 . S
O299 C308 1.261 . S
O300 Gd262 2.388 . S
O300 C308 1.252 . S
O301 Gd262 2.386 . S
O301 C319 1.265 . S
O302 Gd263 2.353 . S
O302 C319 1.242 . S
O303 Gd263 2.468 . S
O303 C327 1.263 . S
O304 Gd263 2.427 . S
O304 C327 1.252 . S
O305 Gd262 2.307 . S
O305 C320 1.261 . S
O306 Gd263 2.388 . S
O306 C320 1.252 . S
C307 O295 1.265 . S
C307 O296 1.242 . S
C308 O299 1.261 . S
C308 O300 1.252 . S
C309 C312 1.394 . S
C309 C314 1.370 . S
C309 C315 1.500 . S
C310 C313 1.383 . S
C310 C314 1.395 . S
C311 C312 1.396 . S
C311 C313 1.365 . S
C311 H328 0.929 . S
C312 C309 1.394 . S
C312 C311 1.396 . S
C312 H329 0.930 . S
C313 C310 1.383 . S
C313 C311 1.365 . S
C313 H330 0.931 . S
C314 C309 1.370 . S
C314 C310 1.395 . S
C314 H331 0.930 . S
C315 Gd262 2.805 . S
C315 O297 1.263 . S
C315 O298 1.252 . S
C315 C309 1.500 . S
C316 H278 0.930 . S
C316 C292 1.417 . S
C316 C317 1.329 . S
C317 C287 1.437 . S
C317 H288 0.929 . S
C317 C316 1.329 . S
H318 C291 0.931 . S
C319 O301 1.265 . S
C319 O302 1.242 . S
C320 O305 1.261 . S
C320 O306 1.252 . S
C321 C324 1.394 . S
C321 C326 1.370 . S
C321 C327 1.500 . S
C322 C325 1.383 . S
C322 C326 1.395 . S
C323 C324 1.396 . S
C323 C325 1.365 . S
C323 H332 0.929 . S
C324 C321 1.394 . S
C324 C323 1.396 . S
C324 H333 0.930 . S
C325 C322 1.383 . S
C325 C323 1.365 . S
C325 H334 0.931 . S
C326 C321 1.370 . S
C326 C322 1.395 . S
C326 H335 0.930 . S
C327 Gd263 2.805 . S
C327 O303 1.263 . S
C327 O304 1.252 . S
C327 C321 1.500 . S
H328 C311 0.929 . S
H329 C312 0.930 . S
H330 C313 0.931 . S
H331 C314 0.930 . S
H332 C323 0.929 . S
H333 C324 0.930 . S
H334 C325 0.931 . S
H335 C326 0.930 . S
H336 C344 0.929 . S
H337 C346 0.930 . S
H338 C348 0.930 . S
H339 C351 0.929 . S
H340 C354 0.930 . S
H341 C356 0.960 . S
H342 C356 0.960 . S
H343 C356 0.960 1_556 S
C344 H336 0.929 . S
C344 C345 1.373 1_554 S
C344 C346 1.384 . S
C345 C344 1.373 1_556 S
C345 C351 1.401 . S
C346 H337 0.930 . S
C346 C344 1.384 . S
C346 C347 1.372 . S
C347 C346 1.372 . S
C347 C348 1.400 1_554 S
C347 C352 1.490 . S
C348 H338 0.930 . S
C348 C347 1.400 1_556 S
C348 C351 1.386 . S
H349 C365 0.930 . S
H350 C366 0.931 . S
C351 H339 0.929 . S
C351 C345 1.401 . S
C351 C348 1.386 . S
C352 C347 1.490 . S
C352 C354 1.395 1_554 S
C352 C355 1.403 . S
H353 C359 0.930 . S
C354 H340 0.930 . S
C354 C352 1.395 1_556 S
C354 C357 1.403 . S
C355 C352 1.403 . S
C355 C356 1.524 . S
C355 C359 1.400 . S
C356 H341 0.960 . S
C356 H342 0.960 . S
C356 H343 0.960 1_554 S
C356 C355 1.524 . S
C357 C354 1.403 . S
C357 C358 1.392 . S
C357 C361 1.495 . S
C358 C357 1.392 . S
C358 C359 1.385 1_556 S
C358 C360 1.465 . S
C359 H353 0.930 . S
C359 C355 1.400 . S
C359 C358 1.385 1_554 S
C360 C358 1.465 . S
C360 C362 1.371 1_556 S
C360 C366 1.405 . S
C361 C357 1.495 . S
C361 H367 0.959 . S
C361 H368 0.961 . S
C361 H369 0.960 1_556 S
C362 C360 1.371 1_554 S
C362 C363 1.394 . S
C362 H370 0.930 . S
C363 C362 1.394 . S
C363 C364 1.393 . S
C363 H371 0.929 . S
C364 C363 1.393 . S
C364 C365 1.372 1_554 S
C365 H349 0.930 . S
C365 C364 1.372 1_556 S
C365 C366 1.379 . S
C366 H350 0.931 . S
C366 C360 1.405 . S
C366 C365 1.379 . S
H367 C361 0.959 . S
H368 C361 0.961 . S
H369 C361 0.960 1_554 S
H370 C362 0.930 . S
H371 C363 0.929 . S
H372 C380 0.929 . S
H373 C382 0.930 . S
H374 C384 0.930 . S
H375 C387 0.929 . S
H376 C390 0.930 . S
H377 C392 0.960 . S
H378 C392 0.960 . S
H379 C392 0.960 . S
C380 H372 0.929 . S
C380 C381 1.360 1_556 S
C380 C382 1.384 . S
C381 C380 1.360 1_554 S
C381 C387 1.420 . S
C382 H373 0.930 . S
C382 C380 1.384 . S
C382 C383 1.372 . S
C383 C382 1.372 . S
C383 C384 1.400 1_556 S
C383 C388 1.490 . S
C384 H374 0.930 . S
C384 C383 1.400 1_554 S
C384 C387 1.386 . S
H385 C401 0.930 . S
H386 C402 0.931 . S
C387 H375 0.929 . S
C387 C381 1.420 . S
C387 C384 1.386 . S
C388 C383 1.490 . S
C388 C390 1.395 . S
C388 C391 1.403 1_556 S
H389 C395 0.930 . S
C390 H376 0.930 . S
C390 C388 1.395 . S
C390 C393 1.403 . S
C391 C388 1.403 1_554 S
C391 C392 1.524 . S
C391 C395 1.400 . S
C392 H377 0.960 . S
C392 H378 0.960 . S
C392 H379 0.960 . S
C392 C391 1.524 . S
C393 C390 1.403 . S
C393 C394 1.392 . S
C393 C397 1.495 . S
C394 C393 1.392 . S
C394 C395 1.385 1_556 S
C394 C396 1.478 . S
C395 H389 0.930 . S
C395 C391 1.400 . S
C395 C394 1.385 1_554 S
C396 C394 1.478 . S
C396 C398 1.381 . S
C396 C402 1.383 1_556 S
C397 C393 1.495 . S
C397 H403 0.959 . S
C397 H404 0.961 . S
C397 H405 0.960 . S
C398 C396 1.381 . S
C398 C399 1.394 . S
C398 H406 0.930 . S
C399 C398 1.394 . S
C399 C400 1.383 . S
C399 H407 0.929 . S
C400 C399 1.383 . S
C400 C401 1.377 1_556 S
C401 H385 0.930 . S
C401 C400 1.377 1_554 S
C401 C402 1.379 . S
C402 H386 0.931 . S
C402 C396 1.383 1_554 S
C402 C401 1.379 . S
H403 C397 0.959 . S
H404 C397 0.961 . S
H405 C397 0.960 . S
H406 C398 0.930 . S
H407 C399 0.929 . S
H408 C416 0.929 . S
H409 C418 0.930 . S
H410 C420 0.930 . S
H411 C423 0.929 . S
H412 C426 0.930 . S
H413 C428 0.960 . S
H414 C428 0.960 . S
H415 C428 0.960 . S
C416 H408 0.929 . S
C416 C417 1.377 . S
C416 C418 1.384 . S
C417 C416 1.377 . S
C417 C423 1.390 . S
C418 H409 0.930 . S
C418 C416 1.384 . S
C418 C419 1.372 . S
C419 C418 1.372 . S
C419 C420 1.400 . S
C419 C424 1.490 . S
C420 H410 0.930 . S
C420 C419 1.400 . S
C420 C423 1.386 . S
H421 C437 0.930 . S
H422 C438 0.931 . S
C423 H411 0.929 . S
C423 C417 1.390 . S
C423 C420 1.386 . S
C424 C419 1.490 . S
C424 C426 1.395 . S
C424 C427 1.403 . S
H425 C431 0.930 . S
C426 H412 0.930 . S
C426 C424 1.395 . S
C426 C429 1.403 . S
C427 C424 1.403 . S
C427 C428 1.524 . S
C427 C431 1.400 . S
C428 H413 0.960 . S
C428 H414 0.960 . S
C428 H415 0.960 . S
C428 C427 1.524 . S
C429 C426 1.403 . S
C429 C430 1.392 . S
C429 C433 1.495 . S
C430 C429 1.392 . S
C430 C431 1.385 . S
C430 C432 1.478 . S
C431 H425 0.930 . S
C431 C427 1.400 . S
C431 C430 1.385 . S
C432 C430 1.478 . S
C432 C434 1.381 . S
C432 C438 1.383 . S
C433 C429 1.495 . S
C433 H439 0.959 . S
C433 H440 0.961 . S
C433 H441 0.960 . S
C434 C432 1.381 . S
C434 C435 1.394 . S
C434 H442 0.930 . S
C435 C434 1.394 . S
C435 C436 1.383 . S
C435 H443 0.929 . S
C436 C435 1.383 . S
C436 C437 1.377 . S
C437 H421 0.930 . S
C437 C436 1.377 . S
C437 C438 1.379 . S
C438 H422 0.931 . S
C438 C432 1.383 . S
C438 C437 1.379 . S
H439 C433 0.959 . S
H440 C433 0.961 . S
H441 C433 0.960 . S
H442 C434 0.930 . S
H443 C435 0.929 . S
H444 C452 0.929 . S
H445 C454 0.930 . S
H446 C456 0.930 . S
H447 C459 0.929 . S
H448 C462 0.930 . S
H449 C464 0.960 . S
H450 C464 0.960 . S
H451 C464 0.960 . S
C452 H444 0.929 . S
C452 C453 1.377 . S
C452 C454 1.384 . S
C453 C452 1.377 . S
C453 C459 1.390 . S
C454 H445 0.930 . S
C454 C452 1.384 . S
C454 C455 1.372 . S
C455 C454 1.372 . S
C455 C456 1.400 . S
C455 C460 1.490 . S
C456 H446 0.930 . S
C456 C455 1.400 . S
C456 C459 1.386 . S
H457 C473 0.930 . S
H458 C474 0.931 . S
C459 H447 0.929 . S
C459 C453 1.390 . S
C459 C456 1.386 . S
C460 C455 1.490 . S
C460 C462 1.395 . S
C460 C463 1.403 . S
H461 C467 0.930 . S
C462 H448 0.930 . S
C462 C460 1.395 . S
C462 C465 1.403 . S
C463 C460 1.403 . S
C463 C464 1.524 . S
C463 C467 1.400 . S
C464 H449 0.960 . S
C464 H450 0.960 . S
C464 H451 0.960 . S
C464 C463 1.524 . S
C465 C462 1.403 . S
C465 C466 1.392 . S
C465 C469 1.495 . S
C466 C465 1.392 . S
C466 C467 1.385 . S
C466 C468 1.478 . S
C467 H461 0.930 . S
C467 C463 1.400 . S
C467 C466 1.385 . S
C468 C466 1.478 . S
C468 C470 1.381 . S
C468 C474 1.383 . S
C469 C465 1.495 . S
C469 H475 0.959 . S
C469 H476 0.961 . S
C469 H477 0.960 . S
C470 C468 1.381 . S
C470 C471 1.394 . S
C470 H478 0.930 . S
C471 C470 1.394 . S
C471 C472 1.383 . S
C471 H479 0.929 . S
C472 C471 1.383 . S
C472 C473 1.377 . S
C473 H457 0.930 . S
C473 C472 1.377 . S
C473 C474 1.379 . S
C474 H458 0.931 . S
C474 C468 1.383 . S
C474 C473 1.379 . S
H475 C469 0.959 . S
H476 C469 0.961 . S
H477 C469 0.960 . S
H478 C470 0.930 . S
H479 C471 0.929 . S
H480 C488 0.929 . S
H481 C490 0.930 . S
H482 C492 0.930 . S
H483 C495 0.929 . S
H484 C498 0.930 . S
H485 C500 0.960 . S
H486 C500 0.960 . S
H487 C500 0.960 . S
C488 H480 0.929 . S
C488 C489 1.394 1_545 S
C488 C490 1.384 . S
C489 C488 1.394 1_565 S
C489 C495 1.374 1_556 S
C490 H481 0.930 . S
C490 C488 1.384 . S
C490 C491 1.372 1_545 S
C491 C490 1.372 1_565 S
C491 C492 1.400 1_556 S
C491 C496 1.489 1_565 S
C492 H482 0.930 . S
C492 C491 1.400 1_554 S
C492 C495 1.386 . S
H493 C509 0.930 1_565 S
H494 C510 0.924 1_565 S
C495 H483 0.929 . S
C495 C489 1.374 1_554 S
C495 C492 1.386 . S
C496 C491 1.489 1_545 S
C496 C498 1.415 1_556 S
C496 C499 1.385 1_545 S
H497 C503 0.930 . S
C498 H484 0.930 . S
C498 C496 1.415 1_554 S
C498 C501 1.403 . S
C499 C496 1.385 1_565 S
C499 C500 1.524 . S
C499 C503 1.400 . S
C500 H485 0.960 . S
C500 H486 0.960 . S
C500 H487 0.960 . S
C500 C499 1.524 . S
C501 C498 1.403 . S
C501 C502 1.387 . S
C501 C505 1.495 . S
C502 C501 1.387 . S
C502 C503 1.391 1_544 S
C502 C504 1.478 . S
C503 H497 0.930 . S
C503 C499 1.400 . S
C503 C502 1.391 1_566 S
C504 C502 1.478 . S
C504 C506 1.381 1_554 S
C504 C510 1.383 . S
C505 C501 1.495 . S
C505 H511 0.959 . S
C505 H512 0.961 . S
C505 H513 0.960 1_554 S
C506 C504 1.381 1_556 S
C506 C507 1.394 . S
C506 H514 0.930 . S
C507 C506 1.394 . S
C507 C508 1.383 1_556 S
C507 H515 0.929 . S
C508 C507 1.383 1_554 S
C508 C509 1.377 . S
C509 H493 0.930 1_545 S
C509 C508 1.377 . S
C509 C510 1.379 . S
C510 H494 0.924 1_545 S
C510 C504 1.383 . S
C510 C509 1.379 . S
H511 C505 0.959 . S
H512 C505 0.961 . S
H513 C505 0.960 1_556 S
H514 C506 0.930 . S
H515 C507 0.929 . S
H516 C524 0.929 . S
H517 C526 0.930 . S
H518 C528 0.930 . S
H519 C531 0.929 . S
H520 C534 0.930 . S
H521 C536 0.960 . S
H522 C536 0.960 . S
H523 C536 0.960 . S
C524 H516 0.929 . S
C524 C525 1.377 1_565 S
C524 C526 1.384 . S
C525 C524 1.377 1_545 S
C525 C531 1.390 . S
C526 H517 0.930 . S
C526 C524 1.384 . S
C526 C527 1.372 1_565 S
C527 C526 1.372 1_545 S
C527 C528 1.400 . S
C527 C532 1.490 1_545 S
C528 H518 0.930 . S
C528 C527 1.400 . S
C528 C531 1.386 . S
H529 C545 0.930 . S
H530 C546 0.931 . S
C531 H519 0.929 . S
C531 C525 1.390 . S
C531 C528 1.386 . S
C532 C527 1.490 1_565 S
C532 C534 1.395 . S
C532 C535 1.402 1_565 S
H533 C539 0.930 . S
C534 H520 0.930 . S
C534 C532 1.395 . S
C534 C537 1.403 . S
C535 C532 1.402 1_545 S
C535 C536 1.524 . S
C535 C539 1.400 . S
C536 H521 0.960 . S
C536 H522 0.960 . S
C536 H523 0.960 . S
C536 C535 1.524 . S
C537 C534 1.403 . S
C537 C538 1.392 . S
C537 C541 1.495 . S
C538 C537 1.392 . S
C538 C539 1.385 1_565 S
C538 C540 1.478 . S
C539 H533 0.930 . S
C539 C535 1.400 . S
C539 C538 1.385 1_545 S
C540 C538 1.478 . S
C540 C542 1.381 . S
C540 C546 1.383 . S
C541 C537 1.495 . S
C541 H547 0.959 . S
C541 H548 0.961 . S
C541 H549 0.960 . S
C542 C540 1.381 . S
C542 C543 1.394 . S
C542 H550 0.930 . S
C543 C542 1.394 . S
C543 C544 1.383 . S
C543 H551 0.929 . S
C544 C543 1.383 . S
C544 C545 1.377 . S
C545 H529 0.930 . S
C545 C544 1.377 . S
C545 C546 1.379 . S
C546 H530 0.931 . S
C546 C540 1.383 . S
C546 C545 1.379 . S
H547 C541 0.959 . S
H548 C541 0.961 . S
H549 C541 0.960 . S
H550 C542 0.930 . S
H551 C543 0.929 . S
H552 C560 0.929 . S
H553 C562 0.930 . S
H554 C564 0.930 . S
H555 C567 0.929 . S
H556 C570 0.930 . S
H557 C572 0.960 . S
H558 C572 0.960 . S
H559 C572 0.960 . S
C560 H552 0.929 . S
C560 C561 1.379 . S
C560 C562 1.384 . S
C561 C560 1.379 . S
C561 C567 1.388 1_554 S
C562 H553 0.930 . S
C562 C560 1.384 . S
C562 C563 1.372 . S
C563 C562 1.372 . S
C563 C564 1.400 1_554 S
C563 C568 1.490 . S
C564 H554 0.930 . S
C564 C563 1.400 1_556 S
C564 C567 1.386 . S
H565 C581 0.930 . S
H566 C582 0.931 . S
C567 H555 0.929 . S
C567 C561 1.388 1_556 S
C567 C564 1.386 . S
C568 C563 1.490 . S
C568 C570 1.395 . S
C568 C571 1.403 1_554 S
H569 C575 0.930 . S
C570 H556 0.930 . S
C570 C568 1.395 . S
C570 C573 1.403 1_655 S
C571 C568 1.403 1_556 S
C571 C572 1.524 . S
C571 C575 1.400 1_655 S
C572 H557 0.960 . S
C572 H558 0.960 . S
C572 H559 0.960 . S
C572 C571 1.524 . S
C573 C570 1.403 1_455 S
C573 C574 1.392 . S
C573 C577 1.495 . S
C574 C573 1.392 . S
C574 C575 1.385 1_554 S
C574 C576 1.478 . S
C575 H569 0.930 . S
C575 C571 1.400 1_455 S
C575 C574 1.385 1_556 S
C576 C574 1.478 . S
C576 C578 1.381 . S
C576 C582 1.383 1_554 S
C577 C573 1.495 . S
C577 H583 0.959 . S
C577 H584 0.961 . S
C577 H585 0.960 . S
C578 C576 1.381 . S
C578 C579 1.394 . S
C578 H586 0.930 . S
C579 C578 1.394 . S
C579 C580 1.383 . S
C579 H587 0.929 . S
C580 C579 1.383 . S
C580 C581 1.377 1_554 S
C581 H565 0.930 . S
C581 C580 1.377 1_556 S
C581 C582 1.379 . S
C582 H566 0.931 . S
C582 C576 1.383 1_556 S
C582 C581 1.379 . S
H583 C577 0.959 . S
H584 C577 0.961 . S
H585 C577 0.960 . S
H586 C578 0.930 . S
H587 C579 0.929 . S
H588 C596 0.929 . S
H589 C598 0.930 . S
H590 C600 0.930 . S
H591 C603 0.929 . S
H592 C606 0.930 . S
H593 C608 0.960 . S
H594 C608 0.960 . S
H595 C608 0.960 . S
C596 H588 0.929 . S
C596 C597 1.377 . S
C596 C598 1.384 . S
C597 C596 1.377 . S
C597 C603 1.390 . S
C598 H589 0.930 . S
C598 C596 1.384 . S
C598 C599 1.372 . S
C599 C598 1.372 . S
C599 C600 1.400 . S
C599 C604 1.490 . S
C600 H590 0.930 . S
C600 C599 1.400 . S
C600 C603 1.386 . S
H601 C617 0.930 . S
H602 C618 0.931 . S
C603 H591 0.929 . S
C603 C597 1.390 . S
C603 C600 1.386 . S
C604 C599 1.490 . S
C604 C606 1.395 . S
C604 C607 1.403 . S
H605 C611 0.930 . S
C606 H592 0.930 . S
C606 C604 1.395 . S
C606 C609 1.403 1_455 S
C607 C604 1.403 . S
C607 C608 1.524 . S
C607 C611 1.400 1_455 S
C608 H593 0.960 . S
C608 H594 0.960 . S
C608 H595 0.960 . S
C608 C607 1.524 . S
C609 C606 1.403 1_655 S
C609 C610 1.392 . S
C609 C613 1.495 . S
C610 C609 1.392 . S
C610 C611 1.385 . S
C610 C612 1.478 . S
C611 H605 0.930 . S
C611 C607 1.400 1_655 S
C611 C610 1.385 . S
C612 C610 1.478 . S
C612 C614 1.381 . S
C612 C618 1.383 . S
C613 C609 1.495 . S
C613 H619 0.959 . S
C613 H620 0.961 . S
C613 H621 0.960 . S
C614 C612 1.381 . S
C614 C615 1.394 . S
C614 H622 0.930 . S
C615 C614 1.394 . S
C615 C616 1.383 . S
C615 H623 0.929 . S
C616 C615 1.383 . S
C616 C617 1.377 . S
C617 H601 0.930 . S
C617 C616 1.377 . S
C617 C618 1.379 . S
C618 H602 0.931 . S
C618 C612 1.383 . S
C618 C617 1.379 . S
H619 C613 0.959 . S
H620 C613 0.961 . S
H621 C613 0.960 . S
H622 C614 0.930 . S
H623 C615 0.929 . S
H624 C632 0.929 . S
H625 C634 0.930 . S
H626 C636 0.930 . S
H627 C639 0.929 . S
H628 C642 0.930 . S
H629 C644 0.960 . S
H630 C644 0.960 1_455 S
H631 C644 0.960 . S
C632 H624 0.929 . S
C632 C633 1.375 1_565 S
C632 C634 1.384 . S
C633 C632 1.375 1_545 S
C633 C639 1.405 1_455 S
C634 H625 0.930 . S
C634 C632 1.384 . S
C634 C635 1.372 . S
C635 C634 1.372 . S
C635 C636 1.400 1_465 S
C635 C640 1.490 . S
C636 H626 0.930 . S
C636 C635 1.400 1_645 S
C636 C639 1.386 . S
H637 C653 0.930 . S
H638 C654 0.931 . S
C639 H627 0.929 . S
C639 C633 1.405 1_655 S
C639 C636 1.386 . S
C640 C635 1.490 . S
C640 C642 1.395 . S
C640 C643 1.402 1_465 S
H641 C647 0.930 . S
C642 H628 0.930 . S
C642 C640 1.395 . S
C642 C645 1.403 . S
C643 C640 1.402 1_645 S
C643 C644 1.524 . S
C643 C647 1.400 . S
C644 H629 0.960 . S
C644 H630 0.960 1_655 S
C644 H631 0.960 . S
C644 C643 1.524 . S
C645 C642 1.403 . S
C645 C646 1.392 . S
C645 C649 1.495 . S
C646 C645 1.392 . S
C646 C647 1.385 1_465 S
C646 C648 1.478 . S
C647 H641 0.930 . S
C647 C643 1.400 . S
C647 C646 1.385 1_645 S
C648 C646 1.478 . S
C648 C650 1.381 . S
C648 C654 1.383 1_465 S
C649 C645 1.495 . S
C649 H655 0.959 . S
C649 H656 0.961 1_455 S
C649 H657 0.960 . S
C650 C648 1.381 . S
C650 C651 1.394 . S
C650 H658 0.930 . S
C651 C650 1.394 . S
C651 C652 1.385 . S
C651 H659 0.929 . S
C652 C651 1.385 . S
C652 C653 1.376 1_465 S
C653 H637 0.930 . S
C653 C652 1.376 1_645 S
C653 C654 1.379 . S
C654 H638 0.931 . S
C654 C648 1.383 1_645 S
C654 C653 1.379 . S
H655 C649 0.959 . S
H656 C649 0.961 1_655 S
H657 C649 0.960 . S
H658 C650 0.930 . S
H659 C651 0.929 . S
H660 C668 0.929 . S
H661 C670 0.930 . S
H662 C672 0.930 . S
H663 C675 0.929 . S
H664 C678 0.930 . S
H665 C680 0.960 . S
H666 C680 0.960 . S
H667 C680 0.960 1_455 S
C668 H660 0.929 . S
C668 C669 1.396 . S
C668 C670 1.384 . S
C669 C668 1.396 . S
C669 C675 1.375 1_645 S
C670 H661 0.930 . S
C670 C668 1.384 . S
C670 C671 1.379 . S
C671 C670 1.379 . S
C671 C672 1.374 1_645 S
C671 C676 1.509 . S
C672 H662 0.930 . S
C672 C671 1.374 1_465 S
C672 C675 1.386 . S
H673 C689 0.930 . S
H674 C690 0.931 . S
C675 H663 0.929 . S
C675 C669 1.375 1_465 S
C675 C672 1.386 . S
C676 C671 1.509 . S
C676 C678 1.395 1_655 S
C676 C679 1.403 1_545 S
H677 C683 0.930 . S
C678 H664 0.930 . S
C678 C676 1.395 1_455 S
C678 C681 1.403 . S
C679 C676 1.403 1_565 S
C679 C680 1.524 . S
C679 C683 1.400 . S
C680 H665 0.960 . S
C680 H666 0.960 . S
C680 H667 0.960 1_655 S
C680 C679 1.524 . S
C681 C678 1.403 . S
C681 C682 1.392 1_455 S
C681 C685 1.495 . S
C682 C681 1.392 1_655 S
C682 C683 1.385 1_545 S
C682 C684 1.477 1_655 S
C683 H677 0.930 . S
C683 C679 1.400 . S
C683 C682 1.385 1_565 S
C684 C682 1.477 1_455 S
C684 C686 1.373 1_455 S
C684 C690 1.390 1_545 S
C685 C681 1.495 . S
C685 H691 0.959 . S
C685 H692 0.961 . S
C685 H693 0.960 1_455 S
C686 C684 1.373 1_655 S
C686 C687 1.394 . S
C686 H694 0.930 . S
C687 C686 1.394 . S
C687 C688 1.373 1_655 S
C687 H695 0.929 . S
C688 C687 1.373 1_455 S
C688 C689 1.387 1_545 S
C689 H673 0.930 . S
C689 C688 1.387 1_565 S
C689 C690 1.379 . S
C690 H674 0.931 . S
C690 C684 1.390 1_565 S
C690 C689 1.379 . S
H691 C685 0.959 . S
H692 C685 0.961 . S
H693 C685 0.960 1_655 S
H694 C686 0.930 . S
H695 C687 0.929 . S
H696 C704 0.929 . S
H697 C706 0.930 . S
H698 C708 0.930 . S
H699 C711 0.929 . S
H700 C714 0.930 . S
H701 C716 0.960 . S
H702 C716 0.960 . S
H703 C716 0.960 . S
C704 H696 0.929 . S
C704 C705 1.377 . S
C704 C706 1.384 . S
C705 C704 1.377 . S
C705 C711 1.390 . S
C706 H697 0.930 . S
C706 C704 1.384 . S
C706 C707 1.372 . S
C707 C706 1.372 . S
C707 C708 1.400 . S
C707 C712 1.490 . S
C708 H698 0.930 . S
C708 C707 1.400 . S
C708 C711 1.386 . S
H709 C725 0.930 . S
H710 C726 0.931 . S
C711 H699 0.929 . S
C711 C705 1.390 . S
C711 C708 1.386 . S
C712 C707 1.490 . S
C712 C714 1.395 . S
C712 C715 1.403 . S
H713 C719 0.930 . S
C714 H700 0.930 . S
C714 C712 1.395 . S
C714 C717 1.403 . S
C715 C712 1.403 . S
C715 C716 1.524 . S
C715 C719 1.400 . S
C716 H701 0.960 . S
C716 H702 0.960 . S
C716 H703 0.960 . S
C716 C715 1.524 . S
C717 C714 1.403 . S
C717 C718 1.392 . S
C717 C721 1.495 . S
C718 C717 1.392 . S
C718 C719 1.385 . S
C718 C720 1.478 . S
C719 H713 0.930 . S
C719 C715 1.400 . S
C719 C718 1.385 . S
C720 C718 1.478 . S
C720 C722 1.381 . S
C720 C726 1.383 . S
C721 C717 1.495 . S
C721 H727 0.959 . S
C721 H728 0.961 . S
C721 H729 0.960 . S
C722 C720 1.381 . S
C722 C723 1.394 . S
C722 H730 0.930 . S
C723 C722 1.394 . S
C723 C724 1.383 . S
C723 H731 0.929 . S
C724 C723 1.383 . S
C724 C725 1.377 . S
C725 H709 0.930 . S
C725 C724 1.377 . S
C725 C726 1.379 . S
C726 H710 0.931 . S
C726 C720 1.383 . S
C726 C725 1.379 . S
H727 C721 0.959 . S
H728 C721 0.961 . S
H729 C721 0.960 . S
H730 C722 0.930 . S
H731 C723 0.929 . S
H732 C740 0.929 . S
H733 C742 0.930 . S
H734 C744 0.930 . S
H735 C747 0.929 . S
H736 C750 0.930 . S
H737 C752 0.960 . S
H738 C752 0.960 . S
H739 C752 0.960 . S
C740 H732 0.929 . S
C740 C741 1.377 . S
C740 C742 1.384 . S
C741 C740 1.377 . S
C741 C747 1.390 . S
C742 H733 0.930 . S
C742 C740 1.384 . S
C742 C743 1.372 . S
C743 C742 1.372 . S
C743 C744 1.400 . S
C743 C748 1.490 . S
C744 H734 0.930 . S
C744 C743 1.400 . S
C744 C747 1.386 . S
H745 C761 0.930 . S
H746 C762 0.931 . S
C747 H735 0.929 . S
C747 C741 1.390 . S
C747 C744 1.386 . S
C748 C743 1.490 . S
C748 C750 1.395 . S
C748 C751 1.403 . S
H749 C755 0.930 . S
C750 H736 0.930 . S
C750 C748 1.395 . S
C750 C753 1.403 . S
C751 C748 1.403 . S
C751 C752 1.524 . S
C751 C755 1.400 . S
C752 H737 0.960 . S
C752 H738 0.960 . S
C752 H739 0.960 . S
C752 C751 1.524 . S
C753 C750 1.403 . S
C753 C754 1.392 . S
C753 C757 1.495 . S
C754 C753 1.392 . S
C754 C755 1.385 . S
C754 C756 1.478 . S
C755 H749 0.930 . S
C755 C751 1.400 . S
C755 C754 1.385 . S
C756 C754 1.478 . S
C756 C758 1.381 . S
C756 C762 1.383 . S
C757 C753 1.495 . S
C757 H763 0.959 . S
C757 H764 0.961 . S
C757 H765 0.960 . S
C758 C756 1.381 . S
C758 C759 1.394 . S
C758 H766 0.930 . S
C759 C758 1.394 . S
C759 C760 1.383 . S
C759 H767 0.929 . S
C760 C759 1.383 . S
C760 C761 1.377 . S
C761 H745 0.930 . S
C761 C760 1.377 . S
C761 C762 1.379 . S
C762 H746 0.931 . S
C762 C756 1.383 . S
C762 C761 1.379 . S
H763 C757 0.959 . S
H764 C757 0.961 . S
H765 C757 0.960 . S
H766 C758 0.930 . S
H767 C759 0.929 . S
C345 C238 1.360 1_556 S
C364 C58 1.363 1_554 S
C381 C226 1.351 1_554 S
C400 C70 1.385 1_556 S
C417 C142 1.375 . S
C436 C322 1.388 . S
C453 C154 1.372 . S
C472 C310 1.375 . S
C489 C55 1.945 1_556 S
C508 C67 1.944 1_554 S
C525 C139 1.947 . S
C544 C151 1.943 . S
C561 C223 1.945 . S
C580 C235 1.945 1_554 S
C597 C319 1.946 . S
C616 C307 1.947 . S
C633 C152 1.467 1_445 S
C652 C68 1.484 1_465 S
C669 C56 1.474 1_645 S
C688 C140 1.468 . S
C705 C320 1.483 . S
C724 C236 1.487 . S
C741 C308 1.483 . S
C760 C224 1.471 . S
