# Generated by pormake.
# Topology smc, (6)-cn, num edge types: 1
# Building blocks:
#     Node 0, Type 0, BuildingBlock: CUKXOW_clean_sbu_0, # of connection points: 6
#     Node 1, Type 0, BuildingBlock: CUKXOW_clean_sbu_0, # of connection points: 6
#     Node 2, Type 0, BuildingBlock: CUKXOW_clean_sbu_0, # of connection points: 6
#     Node 3, Type 0, BuildingBlock: CUKXOW_clean_sbu_0, # of connection points: 6
#     Node 4, Type 0, BuildingBlock: CUKXOW_clean_sbu_0, # of connection points: 6
#     Node 5, Type 0, BuildingBlock: CUKXOW_clean_sbu_0, # of connection points: 6
#     Node 6, Type 0, BuildingBlock: CUKXOW_clean_sbu_0, # of connection points: 6
#     Node 7, Type 0, BuildingBlock: CUKXOW_clean_sbu_0, # of connection points: 6
#     Node 8, Type 0, BuildingBlock: CUKXOW_clean_sbu_0, # of connection points: 6
#     Edge 9, Type (0, 0), BuildingBlock: UVAHIK_clean_linker_0, # of connection points: 2
#     Edge 10, Type (0, 0), BuildingBlock: UVAHIK_clean_linker_0, # of connection points: 2
#     Edge 11, Type (0, 0), BuildingBlock: UVAHIK_clean_linker_0, # of connection points: 2
#     Edge 12, Type (0, 0), BuildingBlock: UVAHIK_clean_linker_0, # of connection points: 2
#     Edge 13, Type (0, 0), BuildingBlock: UVAHIK_clean_linker_0, # of connection points: 2
#     Edge 14, Type (0, 0), BuildingBlock: UVAHIK_clean_linker_0, # of connection points: 2
#     Edge 15, Type (0, 0), BuildingBlock: UVAHIK_clean_linker_0, # of connection points: 2
#     Edge 16, Type (0, 0), BuildingBlock: UVAHIK_clean_linker_0, # of connection points: 2
#     Edge 17, Type (0, 0), BuildingBlock: UVAHIK_clean_linker_0, # of connection points: 2
#     Edge 18, Type (0, 0), BuildingBlock: UVAHIK_clean_linker_0, # of connection points: 2
#     Edge 19, Type (0, 0), BuildingBlock: UVAHIK_clean_linker_0, # of connection points: 2
#     Edge 20, Type (0, 0), BuildingBlock: UVAHIK_clean_linker_0, # of connection points: 2
#     Edge 21, Type (0, 0), BuildingBlock: UVAHIK_clean_linker_0, # of connection points: 2
#     Edge 22, Type (0, 0), BuildingBlock: UVAHIK_clean_linker_0, # of connection points: 2
#     Edge 23, Type (0, 0), BuildingBlock: UVAHIK_clean_linker_0, # of connection points: 2
#     Edge 24, Type (0, 0), BuildingBlock: UVAHIK_clean_linker_0, # of connection points: 2
#     Edge 25, Type (0, 0), BuildingBlock: UVAHIK_clean_linker_0, # of connection points: 2
#     Edge 26, Type (0, 0), BuildingBlock: UVAHIK_clean_linker_0, # of connection points: 2
#     Edge 27, Type (0, 0), BuildingBlock: UVAHIK_clean_linker_0, # of connection points: 2
#     Edge 28, Type (0, 0), BuildingBlock: UVAHIK_clean_linker_0, # of connection points: 2
#     Edge 29, Type (0, 0), BuildingBlock: UVAHIK_clean_linker_0, # of connection points: 2
#     Edge 30, Type (0, 0), BuildingBlock: UVAHIK_clean_linker_0, # of connection points: 2
#     Edge 31, Type (0, 0), BuildingBlock: UVAHIK_clean_linker_0, # of connection points: 2
#     Edge 32, Type (0, 0), BuildingBlock: UVAHIK_clean_linker_0, # of connection points: 2
#     Edge 33, Type (0, 0), BuildingBlock: UVAHIK_clean_linker_0, # of connection points: 2
#     Edge 34, Type (0, 0), BuildingBlock: UVAHIK_clean_linker_0, # of connection points: 2
#     Edge 35, Type (0, 0), BuildingBlock: UVAHIK_clean_linker_0, # of connection points: 2
# Relax obj value: 0.115
# Max RMSD: 0.263
# Mean RMSD: 0.252
data_MOF--net-smc--node1-CUKXOW_clean_sbu_0--edge1-UVAHIK_clean_linker_0
_symmetry_space_group_name_H-M    P1
_symmetry_Int_Tables_number       1
_symmetry_cell_setting            triclinic
loop_
_symmetry_equiv_pos_as_xyz
'x, y, z'
_cell_length_a     37.715316
_cell_length_b     41.713882
_cell_length_c     54.010013
_cell_angle_alpha  90.928581
_cell_angle_beta   90.975781
_cell_angle_gamma 119.7703
loop_
_atom_site_label
_atom_site_type_symbol
_atom_site_fract_x
_atom_site_fract_y
_atom_site_fract_z
_atom_type_partial_charge
Tb0 Tb 0.99963 0.42319 0.02165 0.0
C1 C 0.0524 0.46554 0.06802 0.0
Tb2 Tb 0.06622 0.50497 1.01548 0.0
O3 O 0.04798 0.40908 0.03132 0.0
O4 O 0.06096 0.45289 1.00893 0.0
O5 O 1.01522 0.44033 0.0602 0.0
C6 C 0.13463 0.57066 1.0128 0.0
O7 O 0.07873 0.49118 0.05306 0.0
C8 C 0.99398 0.50149 0.02242 0.0
C9 C 0.02105 0.45349 0.96762 0.0
O10 O 0.12258 0.55034 0.0322 0.0
O11 O 0.10884 0.55321 0.99454 0.0
O12 O 0.02845 0.53129 0.01952 0.0
O13 O 1.00218 0.47542 0.02182 0.0
O14 O 0.05508 0.48309 0.97664 0.0
O15 O 0.99279 0.42915 0.98213 0.0
C16 C 0.92618 0.362 0.02486 0.0
O17 O 0.95809 0.36351 1.01479 0.0
O18 O 0.93592 0.39478 0.03323 0.0
C19 C 0.07719 0.43697 0.02015 0.0
Tb20 Tb 0.592 0.59133 1.00455 0.0
C21 C 0.58613 0.53049 0.96828 0.0
Tb22 Tb 0.57414 0.51765 0.02636 0.0
O23 O 0.65299 0.60155 0.99283 0.0
O24 O 0.62603 0.57006 0.0232 0.0
O25 O 0.57812 0.55778 0.971 0.0
C26 C 0.58021 0.46401 0.04818 0.0
O27 O 0.5899 0.51278 0.98762 0.0
C28 C 0.50284 0.51502 1.01635 0.0
C29 C 0.59042 0.58526 0.06232 0.0
O30 O 0.59143 0.47478 0.02579 0.0
O31 O 0.5655 0.48327 0.05805 0.0
O32 O 0.50674 0.48785 0.02442 0.0
O33 O 0.5389 0.54119 1.0132 0.0
O34 O 0.59304 0.55469 0.05955 0.0
O35 O 0.58432 0.6016 0.04321 0.0
C36 C 0.58222 0.6461 0.98772 0.0
O37 O 0.61187 0.6504 1.00261 0.0
O38 O 0.55878 0.6113 0.98228 0.0
C39 C 0.65596 0.58032 1.00919 0.0
Tb40 Tb 0.44249 0.03378 0.02966 0.0
C41 C 0.43936 0.97458 0.06553 0.0
Tb42 Tb 0.45899 0.97225 1.00829 0.0
O43 O 0.37902 0.99074 0.03703 0.0
O44 O 0.41085 0.98396 1.00849 0.0
O45 O 0.44892 0.00948 0.06326 0.0
C46 C 0.45273 0.91059 0.98874 0.0
O47 O 0.43764 0.95348 0.04617 0.0
C48 C 0.52842 0.03185 0.02325 0.0
C49 C 0.45572 0.03094 0.97222 0.0
O50 O 0.43584 0.91267 1.00902 0.0
O51 O 0.47248 0.94311 0.97936 0.0
O52 O 0.52609 0.00177 1.0144 0.0
O53 O 0.49226 0.02551 0.02412 0.0
O54 O 0.45043 0.99693 0.9744 0.0
O55 O 0.45839 0.05196 0.99177 0.0
C56 C 0.45315 0.09619 0.04992 0.0
O57 O 0.42566 0.07693 0.03273 0.0
O58 O 0.47447 0.08052 0.05523 0.0
C59 C 0.37824 0.9679 0.02001 0.0
Tb60 Tb 0.66803 0.76028 0.3499 0.0
C61 C 0.72983 0.79844 0.39501 0.0
Tb62 Tb 0.7455 0.83702 0.34334 0.0
O63 O 0.70629 0.73515 0.35819 0.0
O64 O 0.72639 0.7808 0.33584 0.0
O65 O 0.69078 0.77767 0.38791 0.0
C66 C 0.80801 0.90359 0.33241 0.0
O67 O 0.75842 0.82092 0.37961 0.0
C68 C 0.68265 0.83625 0.36392 0.0
C69 C 0.69142 0.78947 0.29569 0.0
O70 O 0.81131 0.87842 0.3447 0.0
O71 O 0.77004 0.89017 0.32532 0.0
O72 O 0.72007 0.86074 0.36905 0.0
O73 O 0.68159 0.81551 0.34655 0.0
O74 O 0.72798 0.81607 0.30444 0.0
O75 O 0.66165 0.76764 0.31049 0.0
C76 C 0.59124 0.70645 0.35414 0.0
O77 O 0.61772 0.70537 0.33955 0.0
O78 O 0.60812 0.73773 0.36653 0.0
C79 C 0.73664 0.75964 0.34577 0.0
Tb80 Tb 0.29165 0.90356 0.36108 0.0
C81 C 0.24411 0.90984 0.40485 0.0
Tb82 Tb 0.20497 0.88527 0.34964 0.0
O83 O 0.30813 0.96169 0.37044 0.0
O84 O 0.26272 0.93085 0.34444 0.0
O85 O 0.27257 0.90208 0.39852 0.0
C86 C 0.14573 0.90141 0.34568 0.0
O87 O 0.21609 0.90726 0.38844 0.0
C88 C 0.20276 0.82162 0.35939 0.0
C89 C 0.26057 0.8869 0.3054 0.0
O90 O 0.17219 0.91153 0.36381 0.0
O91 O 0.15177 0.88107 0.32963 0.0
O92 O 0.17107 0.82507 0.35411 0.0
O93 O 0.2336 0.85414 0.35966 0.0
O94 O 0.22837 0.89017 0.31177 0.0
O95 O 0.28684 0.88712 0.32218 0.0
C96 C 0.35658 0.89793 0.37279 0.0
O97 O 0.35673 0.92196 0.35764 0.0
O98 O 0.32017 0.87714 0.38075 0.0
C99 C 0.27963 0.96127 0.3563 0.0
Tb100 Tb 0.12644 0.37115 0.3573 0.0
C101 C 0.11781 0.31859 0.40013 0.0
Tb102 Tb 0.15178 0.30987 0.34677 0.0
O103 O 0.06195 0.3265 0.36129 0.0
O104 O 0.10201 0.31829 0.33986 0.0
O105 O 0.12361 0.35187 0.39468 0.0
C106 C 0.16631 0.25188 0.34658 0.0
O107 O 0.12338 0.29705 0.38377 0.0
C108 C 0.21075 0.37821 0.3525 0.0
C109 C 0.14637 0.35607 0.30192 0.0
O110 O 0.18599 0.28262 0.35945 0.0
O111 O 0.13783 0.25364 0.33354 0.0
O112 O 0.21317 0.35346 0.33893 0.0
O113 O 0.17752 0.36345 0.36376 0.0
O114 O 0.14511 0.32447 0.30822 0.0
O115 O 0.144 0.37891 0.31848 0.0
C116 C 0.1365 0.44092 0.36179 0.0
O117 O 0.16317 0.4309 0.36743 0.0
O118 O 0.10327 0.41103 0.35417 0.0
C119 C 0.06688 0.30215 0.3485 0.0
Tb120 Tb 0.33608 0.09776 0.68765 0.0
C121 C 0.38678 0.1443 0.73332 0.0
Tb122 Tb 0.40232 0.17855 0.67922 0.0
O123 O 0.38484 0.08448 0.69806 0.0
O124 O 0.39696 0.12623 0.67402 0.0
O125 O 0.35012 0.11834 0.72546 0.0
C126 C 0.47216 0.24234 0.67493 0.0
O127 O 0.41393 0.16827 0.71793 0.0
C128 C 0.33118 0.17632 0.68689 0.0
C129 C 0.35232 0.12576 0.63326 0.0
O130 O 0.46212 0.22113 0.69388 0.0
O131 O 0.44334 0.22689 0.65794 0.0
O132 O 0.3656 0.20584 0.68316 0.0
O133 O 0.33877 0.14991 0.68667 0.0
O134 O 0.38817 0.15436 0.64103 0.0
O135 O 0.32459 0.10367 0.6489 0.0
C136 C 0.26406 0.03578 0.69255 0.0
O137 O 0.29256 0.03951 0.67764 0.0
O138 O 0.27649 0.06671 0.70479 0.0
C139 C 0.41364 0.11142 0.68604 0.0
Tb140 Tb 0.93192 0.26814 0.67265 0.0
C141 C 0.92411 0.20887 0.63459 0.0
Tb142 Tb 0.91089 0.19353 0.69219 0.0
O143 O 0.99192 0.27658 0.6606 0.0
O144 O 0.96452 0.24504 0.69085 0.0
O145 O 0.91608 0.23588 0.63852 0.0
C146 C 0.91404 0.13754 0.71256 0.0
O147 O 0.92737 0.18997 0.65332 0.0
C148 C 0.84034 0.19218 0.68242 0.0
C149 C 0.92716 0.25946 0.72991 0.0
O150 O 0.92648 0.14957 0.69056 0.0
O151 O 0.89991 0.15695 0.72289 0.0
O152 O 0.84382 0.16448 0.68976 0.0
O153 O 0.87648 0.21863 0.67963 0.0
O154 O 0.92913 0.22868 0.72639 0.0
O155 O 0.92219 0.277 0.71114 0.0
C156 C 0.9305 0.32676 0.65551 0.0
O157 O 0.95667 0.32804 0.67204 0.0
O158 O 0.90517 0.29273 0.64906 0.0
C159 C 0.99426 0.25493 0.67676 0.0
Tb160 Tb 0.77916 0.70349 0.69892 0.0
C161 C 0.77338 0.64394 0.73515 0.0
Tb162 Tb 0.79873 0.64707 0.67873 0.0
O163 O 0.71627 0.66002 0.70699 0.0
O164 O 0.74749 0.65403 0.67769 0.0
O165 O 0.78067 0.67829 0.73349 0.0
C166 C 0.81173 0.59172 0.66735 0.0
O167 O 0.77448 0.62497 0.71542 0.0
C168 C 0.8622 0.71377 0.68393 0.0
C169 C 0.7904 0.69915 0.64085 0.0
O170 O 0.83109 0.61691 0.68445 0.0
O171 O 0.78399 0.59707 0.65668 0.0
O172 O 0.85784 0.68978 0.66698 0.0
O173 O 0.83288 0.69881 0.69867 0.0
O174 O 0.78649 0.66588 0.64369 0.0
O175 O 0.79317 0.72057 0.66022 0.0
C176 C 0.78709 0.76605 0.71737 0.0
O177 O 0.75861 0.74425 0.70147 0.0
O178 O 0.81089 0.75284 0.72238 0.0
C179 C 0.71535 0.63767 0.68958 0.0
C180 C 0.42742 0.47745 1.0077 0.0
C181 C 0.46183 0.51257 1.01236 0.0
C182 C 0.38747 0.47185 1.00765 0.0
C183 C 0.32417 0.51988 1.00898 0.0
H184 H 0.24083 0.42327 0.02927 0.0
C185 C 0.14911 0.47496 1.00405 0.0
C186 C 0.12185 0.44789 0.02004 0.0
C187 C 0.19069 0.48449 1.0034 0.0
C188 C 0.26335 0.45069 0.02385 0.0
H189 H 0.4804 0.56983 0.0203 0.0
H190 H 0.41042 0.5602 0.02078 0.0
H191 H 0.31109 0.4375 0.02801 0.0
H192 H 0.11806 0.41068 0.04859 0.0
H193 H 0.19001 0.42778 0.04821 0.0
H194 H 0.27623 0.53342 1.00589 0.0
C195 C 0.41438 0.53673 0.01663 0.0
C196 C 0.30428 0.45877 0.02262 0.0
C197 C 0.45484 0.54244 1.0163 0.0
C198 C 0.13781 0.43128 0.03577 0.0
C199 C 0.17945 0.44106 0.03536 0.0
C200 C 0.28307 0.51186 1.01042 0.0
C201 C 0.37969 0.50102 1.01286 0.0
C202 C 0.33573 0.49338 1.01487 0.0
C203 C 0.2069 0.46761 0.01895 0.0
C204 C 0.25156 0.47694 0.01778 0.0
H205 H 0.43133 0.45369 1.00449 0.0
H206 H 0.36257 0.44416 1.00369 0.0
H207 H 0.34676 0.54684 1.00284 0.0
H208 H 0.13814 0.48849 0.99164 0.0
H209 H 0.20984 0.50466 0.99022 0.0
C210 C 0.43994 0.84663 0.99466 0.0
C211 C 0.45714 0.87888 0.98088 0.0
C212 C 0.45083 0.81959 0.99025 0.0
C213 C 0.53788 0.81286 0.96792 0.0
H214 H 0.46534 0.7076 0.97397 0.0
C215 C 0.53911 0.66577 0.96466 0.0
C216 C 0.57249 0.67488 0.98084 0.0
C217 C 0.52579 0.69104 0.96054 0.0
C218 C 0.48596 0.73688 0.97191 0.0
H219 H 0.4966 0.90713 0.95051 0.0
H220 H 0.51531 0.85973 0.94261 0.0
H221 H 0.43707 0.74897 0.97314 0.0
H222 H 0.61936 0.71791 1.00458 0.0
H223 H 0.59589 0.76227 0.99756 0.0
H224 H 0.58682 0.80081 0.96693 0.0
C225 C 0.49406 0.8556 0.95711 0.0
C226 C 0.46977 0.76057 0.97167 0.0
C227 C 0.4831 0.88256 0.9615 0.0
C228 C 0.59361 0.71033 0.99195 0.0
C229 C 0.58022 0.73568 0.98787 0.0
C230 C 0.55409 0.78918 0.96823 0.0
C231 C 0.47912 0.82445 0.97198 0.0
C232 C 0.4956 0.79884 0.96996 0.0
C233 C 0.54553 0.72592 0.97258 0.0
C234 C 0.52835 0.75098 0.9705 0.0
H235 H 0.41977 0.84317 1.00969 0.0
H236 H 0.4389 0.79595 1.00208 0.0
H237 H 0.55866 0.8423 0.9669 0.0
H238 H 0.52243 0.63863 0.95574 0.0
H239 H 0.49947 0.68298 0.94831 0.0
C240 C 0.34932 0.90707 0.99762 0.0
C241 C 0.35089 0.92739 0.01898 0.0
C242 C 0.32692 0.86846 0.99703 0.0
C243 C 0.24782 0.78765 0.03118 0.0
H244 H 0.28696 0.73401 0.9913 0.0
C245 C 0.18118 0.62956 0.03606 0.0
C246 C 0.16611 0.61029 1.01326 0.0
C247 C 0.20591 0.66805 0.03694 0.0
C248 C 0.27567 0.74867 1.00246 0.0
H249 H 0.3302 0.92343 0.05649 0.0
H250 H 0.29225 0.85598 0.05598 0.0
H251 H 0.32517 0.80139 0.99314 0.0
H252 H 0.16662 0.61595 0.97347 0.0
H253 H 0.2113 0.68334 0.97497 0.0
H254 H 0.19916 0.73451 0.04114 0.0
C255 C 0.30721 0.86964 0.03928 0.0
C256 C 0.29733 0.78739 1.0034 0.0
C257 C 0.32905 0.9084 0.03967 0.0
C258 C 0.17795 0.63009 0.99128 0.0
C259 C 0.20344 0.66858 0.99214 0.0
C260 C 0.2267 0.74896 0.03063 0.0
C261 C 0.30604 0.84901 0.01798 0.0
C262 C 0.28352 0.80756 0.01757 0.0
C263 C 0.21679 0.68801 1.01502 0.0
C264 C 0.24021 0.72908 1.01612 0.0
H265 H 0.36587 0.92108 0.98137 0.0
H266 H 0.32612 0.85397 0.98004 0.0
H267 H 0.23558 0.80183 0.04196 0.0
H268 H 0.17241 0.61507 0.05332 0.0
H269 H 0.21604 0.68231 0.0548 0.0
C270 C 0.49251 0.14901 0.07919 0.0
C271 C 0.46197 0.132 0.06054 0.0
C272 C 0.50545 0.18513 0.08717 0.0
C273 C 0.48271 0.26145 0.08443 0.0
H274 H 0.59992 0.32248 0.07747 0.0
C275 C 0.59186 0.41044 0.04629 0.0
C276 C 0.57786 0.4312 0.05918 0.0
C277 C 0.58288 0.37582 0.05459 0.0
C278 C 0.56728 0.30576 0.07984 0.0
H279 H 0.41894 0.13794 0.03674 0.0
H280 H 0.44195 0.2016 0.05047 0.0
H281 H 0.56903 0.25545 0.07737 0.0
H282 H 0.54658 0.43399 0.09178 0.0
H283 H 0.53051 0.37314 0.10617 0.0
H284 H 0.48074 0.31177 0.08537 0.0
C285 C 0.45563 0.1869 0.05908 0.0
C286 C 0.5496 0.26746 0.07997 0.0
C287 C 0.44265 0.15066 0.05109 0.0
C288 C 0.55742 0.41823 0.08144 0.0
C289 C 0.54817 0.3835 0.08965 0.0
C290 C 0.50045 0.2998 0.08447 0.0
C291 C 0.48805 0.20479 0.07661 0.0
C292 C 0.507 0.24497 0.08136 0.0
C293 C 0.55961 0.36152 0.07582 0.0
C294 C 0.54267 0.32215 0.08125 0.0
H295 H 0.50757 0.13493 0.08695 0.0
H296 H 0.53014 0.19818 0.10091 0.0
H297 H 0.44986 0.24467 0.08573 0.0
H298 H 0.60785 0.42007 0.02913 0.0
H299 H 0.59177 0.35926 0.04347 0.0
C300 C 0.60428 0.06675 0.026 0.0
C301 C 0.56735 0.0672 0.02737 0.0
C302 C 0.64181 0.09957 0.02681 0.0
C303 C 0.69554 0.19785 0.04555 0.0
H304 H 0.77112 0.20542 0.99513 0.0
C305 C 0.85149 0.33227 0.03369 0.0
C306 C 0.88488 0.32886 0.02593 0.0
C307 C 0.81219 0.30128 0.0342 0.0
C308 C 0.75086 0.20373 1.00963 0.0
H309 H 0.54104 0.10276 0.031 0.0
H310 H 0.60716 0.16061 0.03317 0.0
H311 H 0.70398 0.15053 0.99617 0.0
H312 H 0.9034 0.29015 1.01305 0.0
H313 H 0.8354 0.2359 1.01469 0.0
H314 H 0.74279 0.25063 0.05948 0.0
C315 C 0.60678 0.13453 0.03147 0.0
C316 C 0.7121 0.17221 1.01012 0.0
C317 C 0.56891 0.10143 0.03039 0.0
C318 C 0.87823 0.29369 0.01897 0.0
C319 C 0.83903 0.2626 0.01974 0.0
C320 C 0.73463 0.22933 0.04528 0.0
C321 C 0.64365 0.13395 0.02913 0.0
C322 C 0.68403 0.16867 0.02818 0.0
C323 C 0.80524 0.26588 0.02719 0.0
C324 C 0.76308 0.23266 0.02739 0.0
H325 H 0.60423 0.04088 0.02369 0.0
H326 H 0.66954 0.09802 0.02536 0.0
H327 H 0.67476 0.19589 0.05981 0.0
H328 H 0.8556 0.35908 0.03904 0.0
H329 H 0.78717 0.30531 0.03968 0.0
C330 C 0.95679 0.53605 0.03016 0.0
C331 C 0.95428 0.50196 0.02409 0.0
C332 C 0.92254 0.54082 0.02878 0.0
C333 C 0.80809 0.49357 0.02476 0.0
H334 H 0.83026 0.5883 0.99998 0.0
C335 C 0.68861 0.54596 0.02928 0.0
C336 C 0.68781 0.56842 1.01028 0.0
C337 C 0.71867 0.53509 0.03029 0.0
C338 C 0.823 0.56149 1.00675 0.0
H339 H 0.91205 0.44546 1.01236 0.0
H340 H 0.85137 0.45362 1.01008 0.0
H341 H 0.88477 0.57345 1.00273 0.0
H342 H 0.71813 0.59628 0.97715 0.0
H343 H 0.77011 0.57759 0.97878 0.0
H344 H 0.74595 0.4817 0.02858 0.0
C345 C 0.88053 0.47687 1.01603 0.0
C346 C 0.85476 0.55304 1.00864 0.0
C347 C 0.91535 0.47204 0.01742 0.0
C348 C 0.71785 0.57934 0.99222 0.0
C349 C 0.74795 0.56862 0.99326 0.0
C350 C 0.77616 0.50216 0.023 0.0
C351 C 0.8838 0.51176 0.0211 0.0
C352 C 0.84823 0.5191 0.01791 0.0
C353 C 0.74928 0.54647 1.01241 0.0
C354 C 0.78301 0.53642 1.01402 0.0
H355 H 0.98594 0.55981 0.03557 0.0
H356 H 0.92671 0.5678 0.0336 0.0
H357 H 0.80145 0.46719 0.03205 0.0
H358 H 0.66614 0.53701 0.04359 0.0
H359 H 0.7184 0.51842 0.04551 0.0
C360 C 0.80386 0.78563 0.32803 0.0
C361 C 0.77925 0.7694 0.3483 0.0
C362 C 0.84576 0.80743 0.33149 0.0
C363 C 0.93232 0.8346 0.3748 0.0
H364 H 0.98005 0.91866 0.33164 0.0
C365 C 0.10305 0.92144 0.36778 0.0
C366 C 0.11062 0.90713 0.34604 0.0
C367 C 0.06501 0.91837 0.37104 0.0
C368 C 0.96692 0.89589 0.34422 0.0
H369 H 0.77833 0.75954 0.38756 0.0
H370 H 0.85228 0.79899 0.39397 0.0
H371 H 0.90582 0.88069 0.33337 0.0
H372 H 0.0874 0.88326 0.3094 0.0
H373 H 1.02077 0.87862 0.31489 0.0
H374 H 0.99366 0.8497 0.38527 0.0
C375 C 0.83926 0.79476 0.37538 0.0
C376 C 0.92468 0.87381 0.34497 0.0
C377 C 0.79712 0.77197 0.37173 0.0
C378 C 0.08185 0.89405 0.32638 0.0
C379 C 0.04407 0.89173 0.32945 0.0
C380 C 0.97453 0.85725 0.3745 0.0
C381 C 0.86356 0.81409 0.35541 0.0
C382 C 0.90719 0.84166 0.35907 0.0
C383 C 0.03482 0.90192 0.35231 0.0
C384 C 0.99193 0.88678 0.35827 0.0
H385 H 0.79036 0.78363 0.30978 0.0
H386 H 0.86394 0.82049 0.31554 0.0
H387 H 0.91975 0.81017 0.3859 0.0
H388 H 0.12517 0.9321 0.3831 0.0
H389 H 0.05811 0.92612 0.3888 0.0
C390 C 0.15463 0.18857 0.33196 0.0
C391 C 0.17585 0.22074 0.3471 0.0
C392 C 0.1646 0.16001 0.33272 0.0
C393 C 0.21998 0.12355 0.37233 0.0
H394 H 0.21605 0.06943 0.31246 0.0
C395 C 0.237 0.98739 0.33805 0.0
C396 C 0.26732 0.99059 0.35513 0.0
C397 C 0.22496 0.01448 0.33709 0.0
C398 C 0.2169 0.08374 0.32954 0.0
H399 H 0.22442 0.24757 0.37496 0.0
H400 H 0.24174 0.19856 0.37627 0.0
H401 H 0.19633 0.1169 0.31076 0.0
H402 H 0.30888 0.02555 0.38454 0.0
H403 H 0.28894 0.07302 0.3826 0.0
H404 H 0.24025 0.09038 0.39118 0.0
C405 C 0.217 0.19482 0.36392 0.0
C406 C 0.20549 0.11128 0.32853 0.0
C407 C 0.20718 0.22329 0.36305 0.0
C408 C 0.2854 0.02196 0.37115 0.0
C409 C 0.27354 0.04919 0.37013 0.0
C410 C 0.23124 0.09596 0.37336 0.0
C411 C 0.19598 0.1625 0.3488 0.0
C412 C 0.20702 0.13198 0.34988 0.0
C413 C 0.24299 0.04609 0.35308 0.0
C414 C 0.2302 0.07551 0.35198 0.0
H415 H 0.13028 0.18545 0.31946 0.0
H416 H 0.1472 0.13568 0.3209 0.0
H417 H 0.22098 0.13799 0.38939 0.0
H418 H 0.22236 0.96375 0.32534 0.0
H419 H 0.20097 0.01021 0.32391 0.0
C420 C 1.00794 0.2424 0.36346 0.0
C421 C 0.03907 0.26141 0.34655 0.0
C422 C 0.98392 0.20356 0.36191 0.0
C423 C 0.95087 0.12352 0.31782 0.0
H424 H 0.92461 0.06499 0.37674 0.0
C425 C 0.83136 0.96701 0.31676 0.0
C426 C 0.83924 0.94351 0.33136 0.0
C427 C 0.85731 0.00541 0.31811 0.0
C428 C 0.93191 0.08088 0.36007 0.0
H429 H 0.06889 0.25463 0.3146 0.0
H430 H 0.02727 0.18756 0.3118 0.0
H431 H 0.96522 0.13249 0.38052 0.0
H432 H 0.88124 0.94205 0.35854 0.0
H433 H 0.92676 0.00933 0.36097 0.0
H434 H 0.9177 0.07214 0.29734 0.0
C435 C 0.02111 0.2023 0.32624 0.0
C436 C 0.95481 0.11967 0.36227 0.0
C437 C 0.04521 0.24084 0.32794 0.0
C438 C 0.87445 0.95936 0.34691 0.0
C439 C 0.90028 0.99796 0.34849 0.0
C440 C 0.9277 0.08486 0.31565 0.0
C441 C 0.99015 0.18296 0.34321 0.0
C442 C 0.96473 0.14158 0.34116 0.0
C443 C 0.89178 0.02159 0.33431 0.0
C444 C 0.91784 0.06289 0.33671 0.0
H445 H 1.00268 0.25745 0.37811 0.0
H446 H 0.96021 0.18968 0.37521 0.0
H447 H 0.95755 0.13934 0.30114 0.0
H448 H 0.80434 0.95576 0.30473 0.0
H449 H 0.84946 0.02254 0.30705 0.0
C450 C 0.23447 0.7792 0.36443 0.0
C451 C 0.20034 0.78426 0.36129 0.0
C452 C 0.22971 0.74311 0.36493 0.0
C453 C 0.1538 0.64327 0.34638 0.0
H454 H 0.21877 0.61853 0.38981 0.0
C455 C 0.11321 0.48867 0.35672 0.0
C456 C 0.14426 0.48031 0.36246 0.0
C457 C 0.12112 0.52563 0.35682 0.0
C458 C 0.20046 0.62467 0.37722 0.0
H459 H 0.13436 0.75429 0.3566 0.0
H460 H 0.12628 0.69294 0.3575 0.0
H461 H 0.23172 0.68204 0.3892 0.0
H462 H 0.20846 0.50536 0.37272 0.0
H463 H 0.22247 0.56916 0.37244 0.0
H464 H 0.12289 0.58645 0.33404 0.0
C465 C 0.15692 0.71639 0.35925 0.0
C466 C 0.20802 0.66157 0.37692 0.0
C467 C 0.16163 0.75205 0.35893 0.0
C468 C 0.18351 0.51036 0.36835 0.0
C469 C 0.19152 0.54733 0.36832 0.0
C470 C 0.14643 0.60656 0.34655 0.0
C471 C 0.19073 0.71086 0.36203 0.0
C472 C 0.18454 0.67166 0.36167 0.0
C473 C 0.16056 0.55601 0.36249 0.0
C474 C 0.16927 0.59612 0.36213 0.0
H475 H 0.26484 0.80302 0.36621 0.0
H476 H 0.25677 0.74053 0.36704 0.0
H477 H 0.13538 0.64942 0.33386 0.0
H478 H 0.08257 0.46653 0.35213 0.0
H479 H 0.09583 0.53019 0.35266 0.0
C480 C 0.24763 0.44051 0.37409 0.0
C481 C 0.24228 0.41749 0.35346 0.0
C482 C 0.28013 0.47701 0.37522 0.0
C483 C 0.35901 0.54946 0.33623 0.0
H484 H 0.42578 0.58056 0.39673 0.0
C485 C 0.53146 0.64833 0.33773 0.0
C486 C 0.54819 0.67736 0.35547 0.0
C487 C 0.49045 0.62105 0.33848 0.0
C488 C 0.40708 0.57252 0.37986 0.0
H489 H 0.26581 0.41427 0.31777 0.0
H490 H 0.32251 0.47717 0.31982 0.0
H491 H 0.35862 0.52473 0.39618 0.0
H492 H 0.53563 0.70079 0.38799 0.0
H493 H 0.4637 0.65216 0.38971 0.0
H494 H 0.40851 0.59607 0.31958 0.0
C495 C 0.30149 0.46777 0.33494 0.0
C496 C 0.36857 0.54066 0.37954 0.0
C497 C 0.26923 0.43154 0.33386 0.0
C498 C 0.52334 0.67858 0.37412 0.0
C499 C 0.48235 0.65086 0.37512 0.0
C500 C 0.39758 0.58099 0.33649 0.0
C501 C 0.30769 0.49087 0.35573 0.0
C502 C 0.34472 0.52809 0.35747 0.0
C503 C 0.46553 0.62201 0.35718 0.0
C504 C 0.42246 0.59214 0.35808 0.0
H505 H 0.2275 0.43 0.3896 0.0
H506 H 0.28403 0.49416 0.39145 0.0
H507 H 0.34099 0.54102 0.31909 0.0
H508 H 0.54999 0.64683 0.32314 0.0
H509 H 0.47834 0.59881 0.32463 0.0
C510 C 0.42943 0.9146 0.36904 0.0
C511 C 0.39168 0.89406 0.3802 0.0
C512 C 0.46168 0.90862 0.37526 0.0
C513 C 0.47841 0.83507 0.397 0.0
H514 H 0.59199 0.91242 0.39825 0.0
C515 C 0.65295 0.85924 0.39524 0.0
C516 C 0.6473 0.836 0.37472 0.0
C517 C 0.62051 0.86305 0.40364 0.0
C518 C 0.56042 0.89051 0.39853 0.0
H519 H 0.35812 0.85273 0.40739 0.0
H520 H 0.41454 0.84254 0.4184 0.0
H521 H 0.53852 0.92897 0.3989 0.0
H522 H 0.60348 0.79683 0.3477 0.0
H523 H 0.54669 0.8037 0.36215 0.0
H524 H 0.50032 0.79662 0.39588 0.0
C525 C 0.41914 0.86276 0.40463 0.0
C526 C 0.52989 0.90002 0.39858 0.0
C527 C 0.38695 0.86863 0.39834 0.0
C528 C 0.60837 0.81483 0.36363 0.0
C529 C 0.57591 0.81863 0.37201 0.0
C530 C 0.50895 0.82556 0.39696 0.0
C531 C 0.4565 0.88214 0.39279 0.0
C532 C 0.48867 0.87239 0.39696 0.0
C533 C 0.58207 0.8437 0.39156 0.0
C534 C 0.55016 0.85321 0.39685 0.0
H535 H 0.43364 0.93441 0.35504 0.0
H536 H 0.49007 0.9236 0.36562 0.0
H537 H 0.44682 0.81318 0.39561 0.0
H538 H 0.68278 0.87551 0.40423 0.0
H539 H 0.62586 0.8822 0.41893 0.0
C540 C 0.79206 0.21939 0.68301 0.0
C541 C 0.79931 0.18977 0.67852 0.0
C542 C 0.7515 0.21347 0.68334 0.0
C543 C 0.64163 0.13501 0.68862 0.0
H544 H 0.61267 0.20915 0.6721 0.0
C545 C 0.47466 0.10636 0.70178 0.0
C546 C 0.45839 0.12255 0.68589 0.0
C547 C 0.51639 0.11643 0.70138 0.0
C548 C 0.61979 0.18775 0.67658 0.0
H549 H 0.7691 0.13115 0.66966 0.0
H550 H 0.70022 0.12131 0.66898 0.0
H551 H 0.68351 0.22324 0.66925 0.0
H552 H 0.47428 0.1627 0.65721 0.0
H553 H 0.54619 0.17948 0.65591 0.0
H554 H 0.57818 0.09906 0.69512 0.0
C555 C 0.72501 0.14893 0.67332 0.0
C556 C 0.66104 0.19614 0.67525 0.0
C557 C 0.76504 0.15473 0.67333 0.0
C558 C 0.48547 0.14948 0.66974 0.0
C559 C 0.52716 0.15937 0.66916 0.0
C560 C 0.60056 0.12658 0.6898 0.0
C561 C 0.71697 0.17779 0.67905 0.0
C562 C 0.6729 0.16982 0.68105 0.0
C563 C 0.54367 0.14292 0.68487 0.0
C564 C 0.58846 0.15264 0.68379 0.0
H565 H 0.81749 0.2467 0.68743 0.0
H566 H 0.7473 0.2367 0.68788 0.0
H567 H 0.6487 0.11387 0.69391 0.0
H568 H 0.45507 0.08585 0.71469 0.0
H569 H 0.5272 0.10345 0.71432 0.0
C570 C 0.8991 0.35287 0.62759 0.0
C571 C 0.92698 0.35822 0.64693 0.0
C572 C 0.89101 0.38099 0.62156 0.0
C573 C 0.92378 0.47986 0.63359 0.0
H574 H 0.80706 0.44386 0.63342 0.0
C575 C 0.85706 0.56517 0.67196 0.0
C576 C 0.82385 0.56478 0.65961 0.0
C577 C 0.87136 0.54193 0.664 0.0
C578 C 0.83968 0.45436 0.63283 0.0
H579 H 0.97032 0.39746 0.67408 0.0
H580 H 0.95553 0.44654 0.66402 0.0
H581 H 0.83169 0.40008 0.62995 0.0
H582 H 0.77903 0.53975 0.62949 0.0
H583 H 0.80382 0.49811 0.61566 0.0
H584 H 0.93156 0.53408 0.63783 0.0
C585 C 0.94032 0.42089 0.65322 0.0
C586 C 0.85387 0.42931 0.63082 0.0
C587 C 0.94862 0.39278 0.65913 0.0
C588 C 0.80463 0.54034 0.63933 0.0
C589 C 0.81886 0.51674 0.6314 0.0
C590 C 0.90957 0.50488 0.63565 0.0
C591 C 0.91044 0.41481 0.63492 0.0
C592 C 0.89605 0.44174 0.63209 0.0
C593 C 0.85266 0.51769 0.64356 0.0
C594 C 0.86741 0.4922 0.63625 0.0
H595 H 0.88241 0.32649 0.61771 0.0
H596 H 0.86837 0.37577 0.6071 0.0
H597 H 0.95642 0.49023 0.63417 0.0
H598 H 0.87239 0.58374 0.68769 0.0
H599 H 0.89677 0.54257 0.67412 0.0
C600 C 0.66694 0.57736 0.70843 0.0
C601 C 0.68776 0.59736 0.68779 0.0
C602 C 0.64534 0.53864 0.70721 0.0
C603 C 0.63505 0.45881 0.66828 0.0
H604 H 0.53914 0.40294 0.70737 0.0
C605 C 0.51387 0.30241 0.654 0.0
C606 C 0.50476 0.28144 0.67545 0.0
C607 C 0.53981 0.34077 0.65547 0.0
C608 C 0.56607 0.41829 0.69648 0.0
H609 H 0.70099 0.5931 0.64944 0.0
H610 H 0.66134 0.52608 0.64667 0.0
H611 H 0.57459 0.47024 0.70971 0.0
H612 H 0.51663 0.28378 0.71505 0.0
H613 H 0.56105 0.3509 0.71765 0.0
H614 H 0.62483 0.40634 0.65424 0.0
C615 C 0.66297 0.53968 0.66423 0.0
C616 C 0.58662 0.45691 0.6979 0.0
C617 C 0.68528 0.57821 0.66566 0.0
C618 C 0.52327 0.29924 0.6982 0.0
C619 C 0.54844 0.33761 0.69974 0.0
C620 C 0.6139 0.42018 0.66647 0.0
C621 C 0.64335 0.51917 0.68512 0.0
C622 C 0.62145 0.47783 0.68381 0.0
C623 C 0.55629 0.35876 0.67848 0.0
C624 C 0.57932 0.39962 0.6806 0.0
H625 H 0.66886 0.59154 0.72581 0.0
H626 H 0.63132 0.52409 0.72385 0.0
H627 H 0.66228 0.47364 0.6576 0.0
H628 H 0.49984 0.28934 0.63627 0.0
H629 H 0.54542 0.35657 0.63884 0.0
C630 C 0.77415 0.81909 0.71629 0.0
C631 C 0.79445 0.80197 0.72683 0.0
C632 C 0.78628 0.85568 0.7229 0.0
C633 C 0.87952 0.93854 0.74218 0.0
H634 H 0.80945 0.98185 0.74542 0.0
C635 C 0.88773 0.08931 0.7442 0.0
C636 C 0.90972 0.10344 0.72257 0.0
C637 C 0.87711 0.05384 0.75148 0.0
C638 C 0.82943 0.97012 0.74503 0.0
H639 H 0.84066 0.80789 0.75387 0.0
H640 H 0.86153 0.87159 0.76556 0.0
H641 H 0.77928 0.9148 0.74667 0.0
H642 H 0.94065 0.09333 0.6926 0.0
H643 H 0.92232 0.03122 0.70541 0.0
H644 H 0.92945 0.99371 0.73951 0.0
C645 C 0.83689 0.85718 0.75194 0.0
C646 C 0.81213 0.93184 0.74551 0.0
C647 C 0.82491 0.82079 0.74527 0.0
C648 C 0.92355 0.08284 0.70931 0.0
C649 C 0.91323 0.04747 0.71671 0.0
C650 C 0.89675 0.97675 0.74152 0.0
C651 C 0.81873 0.87537 0.74017 0.0
C652 C 0.83696 0.91572 0.74348 0.0
C653 C 0.88876 0.03226 0.73737 0.0
C654 C 0.87173 0.99275 0.7423 0.0
H655 H 0.75051 0.80495 0.70205 0.0
H656 H 0.77198 0.8692 0.71341 0.0
H657 H 0.89935 0.92682 0.7403 0.0
H658 H 0.87693 0.10488 0.75479 0.0
H659 H 0.85855 0.04275 0.7676 0.0
C660 C 0.90999 0.77311 0.70816 0.0
C661 C 0.90015 0.75016 0.68685 0.0
C662 C 0.94767 0.80637 0.71026 0.0
C663 C 0.03474 0.87213 0.67171 0.0
H664 H 0.09739 0.90067 0.7337 0.0
C665 C 0.20838 0.97427 0.67605 0.0
C666 C 0.22269 0.003 0.69401 0.0
C667 C 0.16816 0.94473 0.67645 0.0
C668 C 0.08011 0.89317 0.7163 0.0
H669 H 0.92181 0.7443 0.65104 0.0
H670 H 0.9867 0.80072 0.65488 0.0
H671 H 0.02768 0.84794 0.73216 0.0
H672 H 0.20655 0.02289 0.72685 0.0
H673 H 0.13654 0.97085 0.72785 0.0
H674 H 0.08752 0.91649 0.65569 0.0
C675 C 0.9656 0.79408 0.66983 0.0
C676 C 0.04002 0.86306 0.71543 0.0
C677 C 0.92829 0.76131 0.66772 0.0
C678 C 0.19635 0.00109 0.71277 0.0
C679 C 0.15631 0.97126 0.71339 0.0
C680 C 0.07482 0.90177 0.67252 0.0
C681 C 0.97606 0.81721 0.69108 0.0
C682 C 1.01702 0.85167 0.69298 0.0
C683 C 0.14154 0.943 0.69502 0.0
C684 C 0.09825 0.91233 0.6947 0.0
H685 H 0.88906 0.76513 0.72328 0.0
H686 H 0.95452 0.82355 0.72687 0.0
H687 H 1.01777 0.86502 0.65421 0.0
H688 H 0.22796 0.97504 0.66136 0.0
H689 H 0.15783 0.92319 0.66217 0.0
C690 C 0.2947 0.21122 0.69524 0.0
C691 C 0.29187 0.17701 0.68929 0.0
C692 C 0.2604 0.21589 0.6944 0.0
C693 C 0.146 0.16826 0.69175 0.0
H694 H 0.16727 0.26246 0.66644 0.0
C695 C 0.02653 0.22031 0.69671 0.0
C696 C 0.02564 0.24265 0.67769 0.0
C697 C 0.05654 0.20943 0.6976 0.0
C698 C 0.16027 0.23578 0.67334 0.0
H699 H 0.24934 0.12017 0.6785 0.0
H700 H 0.18859 0.12821 0.67697 0.0
H701 H 0.22188 0.24781 0.66873 0.0
H702 H 0.05528 0.27001 0.64427 0.0
H703 H 0.10697 0.25108 0.64558 0.0
H704 H 0.08393 0.15625 0.69601 0.0
C705 C 0.21795 0.15161 0.68245 0.0
C706 C 0.19209 0.22748 0.67499 0.0
C707 C 0.25277 0.14686 0.68338 0.0
C708 C 0.05521 0.25322 0.65938 0.0
C709 C 0.08515 0.2424 0.66025 0.0
C710 C 0.11397 0.17666 0.69016 0.0
C711 C 0.22145 0.18659 0.68734 0.0
C712 C 0.18586 0.19377 0.68447 0.0
C713 C 0.08678 0.22058 0.67951 0.0
C714 C 0.12054 0.21072 0.68098 0.0
H715 H 0.32408 0.2351 0.70011 0.0
H716 H 0.2647 0.24295 0.69909 0.0
H717 H 0.13967 0.14206 0.6992 0.0
H718 H 1.00426 0.21153 0.71114 0.0
H719 H 0.05656 0.19296 0.71288 0.0
C720 C 0.1278 0.33971 0.25615 0.0
C721 C 0.14671 0.36629 0.27546 0.0
C722 C 0.1218 0.35021 0.2324 0.0
C723 C 0.152 0.4337 0.19305 0.0
H724 H 0.04788 0.3706 0.15942 0.0
C725 C 0.10797 0.47136 0.09779 0.0
C726 C 0.06656 0.45998 0.0928 0.0
C727 C 0.12004 0.46028 0.11934 0.0
C728 C 0.077 0.38889 0.16861 0.0
H729 H 0.17615 0.425 0.28437 0.0
H730 H 0.1656 0.44297 0.24377 0.0
H731 H 0.06573 0.35 0.1971 0.0
H732 H 1.00573 0.42915 0.1073 0.0
H733 H 0.02671 0.41123 0.14503 0.0
H734 H 0.16256 0.47323 0.16518 0.0
C735 C 0.15547 0.41407 0.2465 0.0
C736 C 0.0876 0.37667 0.19014 0.0
C737 C 0.16133 0.40364 0.27003 0.0
C738 C 0.03788 0.43846 0.11044 0.0
C739 C 0.04994 0.4277 0.13203 0.0
C740 C 0.14131 0.446 0.17161 0.0
C741 C 0.13479 0.38756 0.22735 0.0
C742 C 0.12507 0.39906 0.20297 0.0
C743 C 0.0911 0.43766 0.13664 0.0
C744 C 0.10337 0.42403 0.15915 0.0
H745 H 0.11589 0.3107 0.25967 0.0
H746 H 0.10629 0.32892 0.21812 0.0
H747 H 0.18145 0.45167 0.20199 0.0
H748 H 0.13086 0.48733 0.08446 0.0
H749 H 0.15196 0.46838 0.1219 0.0
C750 C 0.71618 0.77543 0.25638 0.0
C751 C 0.68546 0.77816 0.26904 0.0
C752 C 0.70752 0.75669 0.23328 0.0
C753 C 0.64211 0.7271 0.1778 0.0
H754 H 0.65176 0.63883 0.17666 0.0
C755 C 0.58021 0.62539 0.09315 0.0
C756 C 0.59867 0.60431 0.08703 0.0
C757 C 0.59066 0.64636 0.11535 0.0
C758 C 0.64955 0.6637 0.17624 0.0
H759 H 0.62219 0.76486 0.2669 0.0
H760 H 0.6078 0.73406 0.22593 0.0
H761 H 0.67321 0.67889 0.21368 0.0
H762 H 0.64278 0.58882 0.09946 0.0
H763 H 0.66276 0.6267 0.13745 0.0
H764 H 0.62027 0.71343 0.14026 0.0
C765 C 0.63831 0.74584 0.23408 0.0
C766 C 0.66172 0.68659 0.19766 0.0
C767 C 0.64661 0.76361 0.25746 0.0
C768 C 0.62756 0.60436 0.10381 0.0
C769 C 0.63891 0.62617 0.12575 0.0
C770 C 0.63092 0.70479 0.15615 0.0
C771 C 0.6683 0.7412 0.22208 0.0
C772 C 0.65777 0.71833 0.19875 0.0
C773 C 0.62092 0.64789 0.13187 0.0
C774 C 0.63392 0.67234 0.155 0.0
H775 H 0.74614 0.78566 0.26502 0.0
H776 H 0.7312 0.75355 0.2244 0.0
H777 H 0.6389 0.75151 0.1781 0.0
H778 H 0.55763 0.62575 0.08067 0.0
H779 H 0.57485 0.66141 0.1194 0.0
C780 C 0.43472 0.98247 0.11112 0.0
C781 C 0.4246 0.95853 0.09027 0.0
C782 C 0.41453 0.97 0.13337 0.0
C783 C 0.34901 0.8879 0.16991 0.0
H784 H 0.31871 0.95493 0.20117 0.0
C785 C 0.29995 0.87663 0.27214 0.0
C786 C 0.27067 0.88659 0.2788 0.0
C787 C 0.31379 0.88049 0.24788 0.0
C788 C 0.32639 0.93558 0.19262 0.0
H789 H 0.38671 0.90181 0.07717 0.0
H790 H 0.35141 0.87977 0.11637 0.0
H791 H 0.35361 0.97071 0.16198 0.0
H792 H 0.23191 0.90717 0.26459 0.0
H793 H 0.25604 0.9139 0.22212 0.0
H794 H 0.32188 0.85286 0.20076 0.0
C795 C 0.37508 0.90841 0.11531 0.0
C796 C 0.34697 0.94489 0.17023 0.0
C797 C 0.39547 0.92099 0.09286 0.0
C798 C 0.25441 0.89918 0.26018 0.0
C799 C 0.26855 0.90334 0.23585 0.0
C800 C 0.32861 0.87868 0.19248 0.0
C801 C 0.38344 0.93312 0.13559 0.0
C802 C 0.3592 0.92152 0.15872 0.0
C803 C 0.29901 0.89467 0.22946 0.0
C804 C 0.31744 0.90262 0.20432 0.0
H805 H 0.45727 0.01149 0.10998 0.0
H806 H 0.42269 0.98963 0.14874 0.0
H807 H 0.35787 0.86922 0.16162 0.0
H808 H 0.31314 0.86668 0.28589 0.0
H809 H 0.33746 0.87382 0.24386 0.0
C810 C 0.46349 0.08178 0.94434 0.0
C811 C 0.4554 0.04522 0.94706 0.0
C812 C 0.46039 0.09471 0.92105 0.0
C813 C 0.40928 0.06108 0.85949 0.0
H814 H 0.482 0.16177 0.84018 0.0
C815 C 0.36812 0.12176 0.7764 0.0
C816 C 0.39873 0.14188 0.75939 0.0
C817 C 0.37781 0.11275 0.79941 0.0
C818 C 0.46155 0.13351 0.84521 0.0
H819 H 0.43871 0.994 0.92697 0.0
H820 H 0.43344 0.01664 0.88639 0.0
H821 H 0.49507 0.13979 0.87918 0.0
H822 H 0.46402 0.16972 0.75389 0.0
H823 H 0.48107 0.15416 0.79436 0.0
H824 H 0.37584 0.05461 0.82561 0.0
C825 C 0.44179 0.0352 0.90237 0.0
C826 C 0.46883 0.12096 0.8677 0.0
C827 C 0.44511 0.02229 0.92568 0.0
C828 C 0.43969 0.15453 0.76662 0.0
C829 C 0.44945 0.14544 0.7898 0.0
C830 C 0.40189 0.07366 0.83716 0.0
C831 C 0.44892 0.0715 0.89976 0.0
C832 C 0.44263 0.08459 0.87524 0.0
C833 C 0.41843 0.12345 0.80619 0.0
C834 C 0.42763 0.11015 0.82977 0.0
H835 H 0.47159 0.10038 0.96027 0.0
H836 H 0.46573 0.12267 0.91991 0.0
H837 H 0.38816 0.03307 0.86468 0.0
H838 H 0.33627 0.11178 0.77161 0.0
H839 H 0.35318 0.09665 0.81175 0.0
C840 C 0.0461 0.43882 0.92862 0.0
C841 C 1.01606 0.44307 0.94083 0.0
C842 C 0.03743 0.4204 0.90535 0.0
C843 C 0.94686 0.35638 0.86363 0.0
H844 H 0.03123 0.37049 0.81794 0.0
C845 C 0.91714 0.29904 0.76144 0.0
C846 C 0.93471 0.27722 0.75509 0.0
C847 C 0.92676 0.3185 0.78426 0.0
C848 C 1.00738 0.36615 0.83062 0.0
H849 H 0.95417 0.4331 0.93776 0.0
H850 H 0.94004 0.40413 0.89663 0.0
H851 H 0.04948 0.40883 0.85577 0.0
H852 H 0.97648 0.25905 0.76779 0.0
H853 H 0.99437 0.2942 0.80741 0.0
H854 H 0.9047 0.31486 0.83757 0.0
C855 C 0.96971 0.41301 0.90521 0.0
C856 C 1.0178 0.38805 0.8525 0.0
C857 C 0.97803 0.43042 0.92871 0.0
C858 C 0.96206 0.27525 0.77222 0.0
C859 C 0.97257 0.2956 0.7948 0.0
C860 C 0.93641 0.33523 0.84148 0.0
C861 C 0.99866 0.40634 0.89342 0.0
C862 C 0.98773 0.38357 0.86952 0.0
C863 C 0.95509 0.31752 0.80103 0.0
C864 C 0.96653 0.33971 0.82477 0.0
H865 H 0.07537 0.44749 0.93778 0.0
H866 H 0.06067 0.41574 0.89741 0.0
H867 H 0.9226 0.35078 0.87624 0.0
H868 H 0.89607 0.30125 0.74865 0.0
H869 H 0.91284 0.33518 0.78852 0.0
C870 C 0.73385 0.58671 0.76027 0.0
C871 C 0.75866 0.62535 0.75923 0.0
C872 C 0.71545 0.57001 0.78247 0.0
C873 C 0.65864 0.54868 0.82738 0.0
H874 H 0.71832 0.58153 0.89036 0.0
C875 C 0.58189 0.53289 0.9221 0.0
C876 C 0.59886 0.52562 0.9432 0.0
C877 C 0.60005 0.53772 0.89901 0.0
C878 C 0.70123 0.57164 0.87295 0.0
H879 H 0.78479 0.67639 0.78115 0.0
H880 H 0.75383 0.64731 0.81977 0.0
H881 H 0.75436 0.60479 0.85181 0.0
H882 H 0.6477 0.5166 0.95632 0.0
H883 H 0.67969 0.52528 0.91595 0.0
H884 H 0.60525 0.51644 0.84859 0.0
C885 C 0.74824 0.62987 0.80342 0.0
C886 C 0.72186 0.58526 0.85082 0.0
C887 C 0.76595 0.64659 0.7812 0.0
C888 C 0.6334 0.52149 0.94037 0.0
C889 C 0.65206 0.52701 0.91729 0.0
C890 C 0.63788 0.53544 0.84954 0.0
C891 C 0.72213 0.59143 0.80431 0.0
C892 C 0.70079 0.57435 0.82773 0.0
C893 C 0.6362 0.53612 0.89643 0.0
C894 C 0.65879 0.54707 0.87267 0.0
H895 H 0.72731 0.56948 0.74371 0.0
H896 H 0.69571 0.54031 0.7825 0.0
H897 H 0.64135 0.53984 0.80998 0.0
H898 H 0.55558 0.53666 0.92371 0.0
H899 H 0.58708 0.54496 0.8835 0.0
C900 C 0.7777 0.81921 0.43284 0.0
C901 C 0.74155 0.79273 0.42037 0.0
C902 C 0.78792 0.81245 0.45666 0.0
C903 C 0.77676 0.7388 0.49626 0.0
H904 H 0.78111 0.798 0.55346 0.0
C905 C 0.77176 0.68672 0.59541 0.0
C906 C 0.78993 0.71214 0.61538 0.0
C907 C 0.76974 0.69871 0.57159 0.0
C908 C 0.78096 0.78147 0.53777 0.0
H909 H 0.68858 0.73796 0.42299 0.0
H910 H 0.7071 0.72603 0.46379 0.0
H911 H 0.7729 0.81629 0.51197 0.0
H912 H 0.82135 0.77036 0.62574 0.0
H913 H 0.81974 0.7915 0.58415 0.0
H914 H 0.78575 0.7044 0.52147 0.0
C915 C 0.72707 0.75221 0.45544 0.0
C916 C 0.77608 0.79202 0.51395 0.0
C917 C 0.71639 0.75926 0.43208 0.0
C918 C 0.80679 0.74998 0.61081 0.0
C919 C 0.80555 0.76208 0.58687 0.0
C920 C 0.78253 0.72866 0.51996 0.0
C921 C 0.7628 0.77868 0.46805 0.0
C922 C 0.77312 0.77038 0.493 0.0
C923 C 0.78666 0.73664 0.56682 0.0
C924 C 0.78378 0.7493 0.54125 0.0
H925 H 0.79784 0.84515 0.4243 0.0
H926 H 0.81574 0.83329 0.466 0.0
H927 H 0.77481 0.72171 0.48039 0.0
H928 H 0.75807 0.65733 0.59829 0.0
H929 H 0.754 0.67792 0.55707 0.0
C930 C 0.22448 0.94303 0.43701 0.0
C931 C 0.24908 0.92809 0.42976 0.0
C932 C 0.23393 0.965 0.45888 0.0
C933 C 0.30245 0.99436 0.51669 0.0
H934 H 0.27908 0.07492 0.51905 0.0
C935 C 0.37331 0.1106 0.5928 0.0
C936 C 0.34399 0.11372 0.60674 0.0
C937 C 0.36209 0.09052 0.57012 0.0
C938 C 0.28587 0.05255 0.5186 0.0
H939 H 0.30267 0.92435 0.44046 0.0
H940 H 0.31975 0.96303 0.47723 0.0
H941 H 0.25695 0.03295 0.48279 0.0
H942 H 0.28059 0.10001 0.60722 0.0
H943 H 0.26159 0.06665 0.56714 0.0
H944 H 0.33263 0.015 0.55216 0.0
C945 C 0.29236 0.95722 0.4668 0.0
C946 C 0.27278 0.0281 0.49789 0.0
C947 C 0.28259 0.93494 0.44533 0.0
C948 C 0.30396 0.09843 0.59676 0.0
C949 C 0.29303 0.07922 0.57384 0.0
C950 C 0.3163 0.01926 0.53704 0.0
C951 C 0.26856 0.97305 0.47394 0.0
C952 C 0.28091 0.99853 0.49651 0.0
C953 C 0.32159 0.07393 0.56065 0.0
C954 C 0.30825 0.04868 0.53827 0.0
H955 H 0.19858 0.93861 0.42548 0.0
H956 H 0.21419 0.97591 0.46377 0.0
H957 H 0.30847 0.97157 0.51703 0.0
H958 H 0.40415 0.12144 0.60021 0.0
H959 H 0.38481 0.087 0.56032 0.0
C960 C 0.92682 0.22171 0.58938 0.0
C961 C 0.93727 0.20596 0.6091 0.0
C962 C 0.94678 0.22854 0.56686 0.0
C963 C 0.99919 0.20794 0.52138 0.0
H964 H 0.06882 0.31347 0.51425 0.0
C965 C 0.09616 0.26997 0.43307 0.0
C966 C 0.10105 0.30384 0.42497 0.0
C967 C 0.07838 0.25575 0.45596 0.0
C968 C 0.04921 0.28392 0.5156 0.0
H969 H 0.97563 0.18307 0.61975 0.0
H970 H 1.00982 0.19408 0.57974 0.0
H971 H 0.03142 0.29001 0.55215 0.0
H972 H 0.09021 0.34883 0.43486 0.0
H973 H 0.05866 0.32394 0.47379 0.0
H974 H 1.01518 0.20174 0.48435 0.0
C975 C 0.98612 0.20125 0.58209 0.0
C976 C 0.02812 0.2705 0.53756 0.0
C977 C 0.96628 0.19467 0.60491 0.0
C978 C 0.08764 0.32295 0.44043 0.0
C979 C 0.0696 0.30863 0.46307 0.0
C980 C 1.01989 0.22141 0.49914 0.0
C981 C 0.97742 0.21938 0.56317 0.0
C982 C 1.00256 0.23245 0.54062 0.0
C983 C 0.06467 0.27482 0.47136 0.0
C984 C 0.04478 0.25975 0.4957 0.0
H985 H 0.90467 0.23078 0.5918 0.0
H986 H 0.93939 0.24242 0.55259 0.0
H987 H 0.97942 0.17847 0.5232 0.0
H988 H 0.10595 0.25433 0.42171 0.0
H989 H 0.07568 0.22987 0.46162 0.0
loop_
_geom_bond_atom_site_label_1
_geom_bond_atom_site_label_2
_geom_bond_distance
_geom_bond_site_symmetry_2
_ccdc_geom_bond_type
Tb0 O3 2.449 1_654 S
Tb0 O4 2.596 1_655 S
Tb0 O5 2.373 1_655 S
Tb0 O13 2.343 . S
Tb0 O15 2.353 1_554 S
Tb0 O17 2.427 1_554 S
Tb0 O18 2.513 . S
C1 O5 1.251 . S
C1 O7 1.263 . S
Tb2 O4 2.343 . S
Tb2 O7 2.353 . S
Tb2 O10 2.427 . S
Tb2 O11 2.513 1_554 S
Tb2 O12 2.453 1_455 S
Tb2 O13 2.596 1_455 S
Tb2 O14 2.374 1_554 S
O3 Tb0 2.449 1_456 S
O3 C19 1.237 1_556 S
O4 Tb0 2.596 1_455 S
O4 Tb2 2.343 . S
O4 C19 1.259 . S
O5 Tb0 2.373 1_455 S
O5 C1 1.251 . S
C6 O10 1.240 1_556 S
C6 O11 1.278 . S
O7 C1 1.263 . S
O7 Tb2 2.353 . S
C8 O12 1.245 . S
C8 O13 1.259 . S
C9 O14 1.250 1_655 S
C9 O15 1.263 . S
O10 Tb2 2.427 . S
O10 C6 1.240 1_554 S
O11 Tb2 2.513 1_556 S
O11 C6 1.278 . S
O12 Tb2 2.453 1_655 S
O12 C8 1.245 . S
O13 Tb0 2.343 . S
O13 Tb2 2.596 1_655 S
O13 C8 1.259 . S
O14 Tb2 2.374 1_556 S
O14 C9 1.250 1_455 S
O15 Tb0 2.353 1_556 S
O15 C9 1.263 . S
C16 O17 1.275 1_554 S
C16 O18 1.246 . S
O17 Tb0 2.427 1_556 S
O17 C16 1.275 1_556 S
O18 Tb0 2.513 . S
O18 C16 1.246 . S
C19 O3 1.237 1_554 S
C19 O4 1.259 . S
Tb20 O23 2.453 . S
Tb20 O24 2.596 . S
Tb20 O25 2.374 1_554 S
Tb20 O33 2.343 . S
Tb20 O35 2.353 . S
Tb20 O37 2.427 . S
Tb20 O38 2.513 1_554 S
C21 O25 1.251 . S
C21 O27 1.263 . S
Tb22 O24 2.343 . S
Tb22 O27 2.353 1_554 S
Tb22 O30 2.427 1_554 S
Tb22 O31 2.513 . S
Tb22 O32 2.453 1_554 S
Tb22 O33 2.596 . S
Tb22 O34 2.374 . S
O23 Tb20 2.453 . S
O23 C39 1.245 . S
O24 Tb20 2.596 . S
O24 Tb22 2.343 . S
O24 C39 1.259 . S
O25 Tb20 2.374 1_556 S
O25 C21 1.251 . S
C26 O30 1.275 1_554 S
C26 O31 1.246 . S
O27 C21 1.263 . S
O27 Tb22 2.353 1_556 S
C28 O32 1.245 1_554 S
C28 O33 1.259 . S
C29 O34 1.250 . S
C29 O35 1.263 . S
O30 Tb22 2.427 1_556 S
O30 C26 1.275 1_556 S
O31 Tb22 2.513 . S
O31 C26 1.246 . S
O32 Tb22 2.453 1_556 S
O32 C28 1.245 1_556 S
O33 Tb20 2.343 . S
O33 Tb22 2.596 . S
O33 C28 1.259 . S
O34 Tb22 2.374 . S
O34 C29 1.250 . S
O35 Tb20 2.353 . S
O35 C29 1.263 . S
C36 O37 1.275 1_556 S
C36 O38 1.246 . S
O37 Tb20 2.427 . S
O37 C36 1.275 1_554 S
O38 Tb20 2.513 1_556 S
O38 C36 1.246 . S
C39 O23 1.245 . S
C39 O24 1.259 . S
Tb40 O43 2.453 1_544 S
Tb40 O44 2.596 1_545 S
Tb40 O45 2.374 . S
Tb40 O53 2.343 . S
Tb40 O55 2.353 1_554 S
Tb40 O57 2.427 1_554 S
Tb40 O58 2.513 . S
C41 O45 1.251 1_565 S
C41 O47 1.263 . S
Tb42 O44 2.343 . S
Tb42 O47 2.353 . S
Tb42 O50 2.427 . S
Tb42 O51 2.513 1_554 S
Tb42 O52 2.453 1_565 S
Tb42 O53 2.596 1_565 S
Tb42 O54 2.374 1_564 S
O43 Tb40 2.453 1_566 S
O43 C59 1.245 1_556 S
O44 Tb40 2.596 1_565 S
O44 Tb42 2.343 . S
O44 C59 1.259 . S
O45 Tb40 2.374 . S
O45 C41 1.251 1_545 S
C46 O50 1.275 1_556 S
C46 O51 1.246 . S
O47 C41 1.263 . S
O47 Tb42 2.353 . S
C48 O52 1.245 . S
C48 O53 1.259 . S
C49 O54 1.250 . S
C49 O55 1.263 . S
O50 Tb42 2.427 . S
O50 C46 1.275 1_554 S
O51 Tb42 2.513 1_556 S
O51 C46 1.246 . S
O52 Tb42 2.453 1_545 S
O52 C48 1.245 . S
O53 Tb40 2.343 . S
O53 Tb42 2.596 1_545 S
O53 C48 1.259 . S
O54 Tb42 2.374 1_546 S
O54 C49 1.250 . S
O55 Tb40 2.353 1_556 S
O55 C49 1.263 . S
C56 O57 1.275 1_554 S
C56 O58 1.246 . S
O57 Tb40 2.427 1_556 S
O57 C56 1.275 1_556 S
O58 Tb40 2.513 . S
O58 C56 1.246 . S
C59 O43 1.245 1_554 S
C59 O44 1.259 . S
Tb60 O63 2.453 . S
Tb60 O64 2.596 . S
Tb60 O65 2.374 . S
Tb60 O73 2.343 . S
Tb60 O75 2.353 . S
Tb60 O77 2.427 . S
Tb60 O78 2.513 . S
C61 O65 1.251 . S
C61 O67 1.263 . S
Tb62 O64 2.343 . S
Tb62 O67 2.353 . S
Tb62 O70 2.427 . S
Tb62 O71 2.513 . S
Tb62 O72 2.453 . S
Tb62 O73 2.596 . S
Tb62 O74 2.374 . S
O63 Tb60 2.453 . S
O63 C79 1.245 . S
O64 Tb60 2.596 . S
O64 Tb62 2.343 . S
O64 C79 1.259 . S
O65 Tb60 2.374 . S
O65 C61 1.251 . S
C66 O70 1.275 . S
C66 O71 1.246 . S
O67 C61 1.263 . S
O67 Tb62 2.353 . S
C68 O72 1.245 . S
C68 O73 1.259 . S
C69 O74 1.250 . S
C69 O75 1.263 . S
O70 Tb62 2.427 . S
O70 C66 1.275 . S
O71 Tb62 2.513 . S
O71 C66 1.246 . S
O72 Tb62 2.453 . S
O72 C68 1.245 . S
O73 Tb60 2.343 . S
O73 Tb62 2.596 . S
O73 C68 1.259 . S
O74 Tb62 2.374 . S
O74 C69 1.250 . S
O75 Tb60 2.353 . S
O75 C69 1.263 . S
C76 O77 1.275 . S
C76 O78 1.246 . S
O77 Tb60 2.427 . S
O77 C76 1.275 . S
O78 Tb60 2.513 . S
O78 C76 1.246 . S
C79 O63 1.245 . S
C79 O64 1.259 . S
Tb80 O83 2.453 . S
Tb80 O84 2.596 . S
Tb80 O85 2.374 . S
Tb80 O93 2.343 . S
Tb80 O95 2.353 . S
Tb80 O97 2.427 . S
Tb80 O98 2.513 . S
C81 O85 1.251 . S
C81 O87 1.263 . S
Tb82 O84 2.343 . S
Tb82 O87 2.353 . S
Tb82 O90 2.427 . S
Tb82 O91 2.513 . S
Tb82 O92 2.453 . S
Tb82 O93 2.596 . S
Tb82 O94 2.374 . S
O83 Tb80 2.453 . S
O83 C99 1.245 . S
O84 Tb80 2.596 . S
O84 Tb82 2.343 . S
O84 C99 1.259 . S
O85 Tb80 2.374 . S
O85 C81 1.251 . S
C86 O90 1.275 . S
C86 O91 1.246 . S
O87 C81 1.263 . S
O87 Tb82 2.353 . S
C88 O92 1.245 . S
C88 O93 1.259 . S
C89 O94 1.250 . S
C89 O95 1.263 . S
O90 Tb82 2.427 . S
O90 C86 1.275 . S
O91 Tb82 2.513 . S
O91 C86 1.246 . S
O92 Tb82 2.453 . S
O92 C88 1.245 . S
O93 Tb80 2.343 . S
O93 Tb82 2.596 . S
O93 C88 1.259 . S
O94 Tb82 2.374 . S
O94 C89 1.250 . S
O95 Tb80 2.353 . S
O95 C89 1.263 . S
C96 O97 1.275 . S
C96 O98 1.246 . S
O97 Tb80 2.427 . S
O97 C96 1.275 . S
O98 Tb80 2.513 . S
O98 C96 1.246 . S
C99 O83 1.245 . S
C99 O84 1.259 . S
Tb100 O103 2.453 . S
Tb100 O104 2.596 . S
Tb100 O105 2.374 . S
Tb100 O113 2.343 . S
Tb100 O115 2.353 . S
Tb100 O117 2.427 . S
Tb100 O118 2.513 . S
C101 O105 1.251 . S
C101 O107 1.263 . S
Tb102 O104 2.343 . S
Tb102 O107 2.353 . S
Tb102 O110 2.427 . S
Tb102 O111 2.513 . S
Tb102 O112 2.453 . S
Tb102 O113 2.596 . S
Tb102 O114 2.374 . S
O103 Tb100 2.453 . S
O103 C119 1.245 . S
O104 Tb100 2.596 . S
O104 Tb102 2.343 . S
O104 C119 1.259 . S
O105 Tb100 2.374 . S
O105 C101 1.251 . S
C106 O110 1.275 . S
C106 O111 1.246 . S
O107 C101 1.263 . S
O107 Tb102 2.353 . S
C108 O112 1.245 . S
C108 O113 1.259 . S
C109 O114 1.250 . S
C109 O115 1.263 . S
O110 Tb102 2.427 . S
O110 C106 1.275 . S
O111 Tb102 2.513 . S
O111 C106 1.246 . S
O112 Tb102 2.453 . S
O112 C108 1.245 . S
O113 Tb100 2.343 . S
O113 Tb102 2.596 . S
O113 C108 1.259 . S
O114 Tb102 2.374 . S
O114 C109 1.250 . S
O115 Tb100 2.353 . S
O115 C109 1.263 . S
C116 O117 1.275 . S
C116 O118 1.246 . S
O117 Tb100 2.427 . S
O117 C116 1.275 . S
O118 Tb100 2.513 . S
O118 C116 1.246 . S
C119 O103 1.245 . S
C119 O104 1.259 . S
Tb120 O123 2.453 . S
Tb120 O124 2.596 . S
Tb120 O125 2.374 . S
Tb120 O133 2.343 . S
Tb120 O135 2.353 . S
Tb120 O137 2.427 . S
Tb120 O138 2.513 . S
C121 O125 1.251 . S
C121 O127 1.263 . S
Tb122 O124 2.343 . S
Tb122 O127 2.353 . S
Tb122 O130 2.427 . S
Tb122 O131 2.513 . S
Tb122 O132 2.453 . S
Tb122 O133 2.596 . S
Tb122 O134 2.374 . S
O123 Tb120 2.453 . S
O123 C139 1.245 . S
O124 Tb120 2.596 . S
O124 Tb122 2.343 . S
O124 C139 1.259 . S
O125 Tb120 2.374 . S
O125 C121 1.251 . S
C126 O130 1.275 . S
C126 O131 1.246 . S
O127 C121 1.263 . S
O127 Tb122 2.353 . S
C128 O132 1.245 . S
C128 O133 1.259 . S
C129 O134 1.250 . S
C129 O135 1.263 . S
O130 Tb122 2.427 . S
O130 C126 1.275 . S
O131 Tb122 2.513 . S
O131 C126 1.246 . S
O132 Tb122 2.453 . S
O132 C128 1.245 . S
O133 Tb120 2.343 . S
O133 Tb122 2.596 . S
O133 C128 1.259 . S
O134 Tb122 2.374 . S
O134 C129 1.250 . S
O135 Tb120 2.353 . S
O135 C129 1.263 . S
C136 O137 1.275 . S
C136 O138 1.246 . S
O137 Tb120 2.427 . S
O137 C136 1.275 . S
O138 Tb120 2.513 . S
O138 C136 1.246 . S
C139 O123 1.245 . S
C139 O124 1.259 . S
Tb140 O143 2.453 . S
Tb140 O144 2.596 . S
Tb140 O145 2.374 . S
Tb140 O153 2.343 . S
Tb140 O155 2.353 . S
Tb140 O157 2.427 . S
Tb140 O158 2.513 . S
C141 O145 1.251 . S
C141 O147 1.263 . S
Tb142 O144 2.343 . S
Tb142 O147 2.353 . S
Tb142 O150 2.427 . S
Tb142 O151 2.513 . S
Tb142 O152 2.453 . S
Tb142 O153 2.596 . S
Tb142 O154 2.374 . S
O143 Tb140 2.453 . S
O143 C159 1.245 . S
O144 Tb140 2.596 . S
O144 Tb142 2.343 . S
O144 C159 1.259 . S
O145 Tb140 2.374 . S
O145 C141 1.251 . S
C146 O150 1.275 . S
C146 O151 1.246 . S
O147 C141 1.263 . S
O147 Tb142 2.353 . S
C148 O152 1.245 . S
C148 O153 1.259 . S
C149 O154 1.250 . S
C149 O155 1.263 . S
O150 Tb142 2.427 . S
O150 C146 1.275 . S
O151 Tb142 2.513 . S
O151 C146 1.246 . S
O152 Tb142 2.453 . S
O152 C148 1.245 . S
O153 Tb140 2.343 . S
O153 Tb142 2.596 . S
O153 C148 1.259 . S
O154 Tb142 2.374 . S
O154 C149 1.250 . S
O155 Tb140 2.353 . S
O155 C149 1.263 . S
C156 O157 1.275 . S
C156 O158 1.246 . S
O157 Tb140 2.427 . S
O157 C156 1.275 . S
O158 Tb140 2.513 . S
O158 C156 1.246 . S
C159 O143 1.245 . S
C159 O144 1.259 . S
Tb160 O163 2.453 . S
Tb160 O164 2.596 . S
Tb160 O165 2.374 . S
Tb160 O173 2.343 . S
Tb160 O175 2.353 . S
Tb160 O177 2.427 . S
Tb160 O178 2.513 . S
C161 O165 1.251 . S
C161 O167 1.263 . S
Tb162 O164 2.343 . S
Tb162 O167 2.353 . S
Tb162 O170 2.427 . S
Tb162 O171 2.513 . S
Tb162 O172 2.453 . S
Tb162 O173 2.596 . S
Tb162 O174 2.374 . S
O163 Tb160 2.453 . S
O163 C179 1.245 . S
O164 Tb160 2.596 . S
O164 Tb162 2.343 . S
O164 C179 1.259 . S
O165 Tb160 2.374 . S
O165 C161 1.251 . S
C166 O170 1.275 . S
C166 O171 1.246 . S
O167 C161 1.263 . S
O167 Tb162 2.353 . S
C168 O172 1.245 . S
C168 O173 1.259 . S
C169 O174 1.250 . S
C169 O175 1.263 . S
O170 Tb162 2.427 . S
O170 C166 1.275 . S
O171 Tb162 2.513 . S
O171 C166 1.246 . S
O172 Tb162 2.453 . S
O172 C168 1.245 . S
O173 Tb160 2.343 . S
O173 Tb162 2.596 . S
O173 C168 1.259 . S
O174 Tb162 2.374 . S
O174 C169 1.250 . S
O175 Tb160 2.353 . S
O175 C169 1.263 . S
C176 O177 1.275 . S
C176 O178 1.246 . S
O177 Tb160 2.427 . S
O177 C176 1.275 . S
O178 Tb160 2.513 . S
O178 C176 1.246 . S
C179 O163 1.245 . S
C179 O164 1.259 . S
C180 C181 1.349 1_556 S
C180 C182 1.327 . S
C180 H205 0.950 . S
C181 C180 1.349 1_554 S
C181 C197 1.349 . S
C182 C180 1.327 . S
C182 C201 1.429 1_556 S
C182 H206 0.950 . S
C183 C200 1.574 . S
C183 C202 1.368 . S
C183 H207 0.949 . S
H184 C188 0.949 . S
C185 C186 1.349 . S
C185 C187 1.327 . S
C185 H208 0.950 . S
C186 C185 1.349 . S
C186 C198 1.349 1_554 S
C187 C185 1.327 . S
C187 C203 1.429 . S
C187 H209 0.950 . S
C188 H184 0.949 . S
C188 C196 1.574 . S
C188 C204 1.368 1_556 S
H189 C197 0.950 . S
H190 C195 0.950 . S
H191 C196 0.949 . S
H192 C198 0.950 . S
H193 C199 0.950 . S
H194 C200 0.949 . S
C195 H190 0.950 . S
C195 C197 1.327 . S
C195 C201 1.429 . S
C196 C188 1.574 . S
C196 H191 0.949 . S
C196 C202 1.368 1_556 S
C197 C181 1.349 . S
C197 H189 0.950 . S
C197 C195 1.327 . S
C198 C186 1.349 1_556 S
C198 H192 0.950 . S
C198 C199 1.327 . S
C199 H193 0.950 . S
C199 C198 1.327 . S
C199 C203 1.429 1_556 S
C200 C183 1.574 . S
C200 H194 0.949 . S
C200 C204 1.368 . S
C201 C182 1.429 1_554 S
C201 C195 1.429 . S
C201 C202 1.523 . S
C202 C183 1.368 . S
C202 C196 1.368 1_554 S
C202 C201 1.523 . S
C203 C187 1.429 . S
C203 C199 1.429 1_554 S
C203 C204 1.523 . S
C204 C188 1.368 1_554 S
C204 C200 1.368 . S
C204 C203 1.523 . S
H205 C180 0.950 . S
H206 C182 0.950 . S
H207 C183 0.949 . S
H208 C185 0.950 . S
H209 C187 0.950 . S
C210 C211 1.349 1_554 S
C210 C212 1.327 . S
C210 H235 0.950 . S
C211 C210 1.349 1_556 S
C211 C227 1.349 . S
C212 C210 1.327 . S
C212 C231 1.429 1_554 S
C212 H236 0.950 . S
C213 C230 1.574 . S
C213 C232 1.368 . S
C213 H237 0.949 . S
H214 C218 0.949 . S
C215 C216 1.349 . S
C215 C217 1.327 . S
C215 H238 0.950 . S
C216 C215 1.349 . S
C216 C228 1.349 1_556 S
C217 C215 1.327 . S
C217 C233 1.429 . S
C217 H239 0.950 . S
C218 H214 0.949 . S
C218 C226 1.574 . S
C218 C234 1.368 1_554 S
H219 C227 0.950 . S
H220 C225 0.950 . S
H221 C226 0.949 . S
H222 C228 0.950 . S
H223 C229 0.950 . S
H224 C230 0.949 . S
C225 H220 0.950 . S
C225 C227 1.327 . S
C225 C231 1.429 . S
C226 C218 1.574 . S
C226 H221 0.949 . S
C226 C232 1.368 1_554 S
C227 C211 1.349 . S
C227 H219 0.950 . S
C227 C225 1.327 . S
C228 C216 1.349 1_554 S
C228 H222 0.950 . S
C228 C229 1.327 . S
C229 H223 0.950 . S
C229 C228 1.327 . S
C229 C233 1.429 1_554 S
C230 C213 1.574 . S
C230 H224 0.949 . S
C230 C234 1.368 . S
C231 C212 1.429 1_556 S
C231 C225 1.429 . S
C231 C232 1.523 . S
C232 C213 1.368 . S
C232 C226 1.368 1_556 S
C232 C231 1.523 . S
C233 C217 1.429 . S
C233 C229 1.429 1_556 S
C233 C234 1.523 . S
C234 C218 1.368 1_556 S
C234 C230 1.368 . S
C234 C233 1.523 . S
H235 C210 0.950 . S
H236 C212 0.950 . S
H237 C213 0.949 . S
H238 C215 0.950 . S
H239 C217 0.950 . S
C240 C241 1.349 1_556 S
C240 C242 1.327 . S
C240 H265 0.950 . S
C241 C240 1.349 1_554 S
C241 C257 1.349 . S
C242 C240 1.327 . S
C242 C261 1.429 1_556 S
C242 H266 0.950 . S
C243 C260 1.574 . S
C243 C262 1.368 . S
C243 H267 0.949 . S
H244 C248 0.949 . S
C245 C246 1.330 1_554 S
C245 C247 1.327 . S
C245 H268 0.950 . S
C246 C245 1.330 1_556 S
C246 C258 1.368 . S
C247 C245 1.327 . S
C247 C263 1.451 . S
C247 H269 0.950 . S
C248 H244 0.949 . S
C248 C256 1.574 . S
C248 C264 1.368 1_556 S
H249 C257 0.950 . S
H250 C255 0.950 . S
H251 C256 0.949 . S
H252 C258 0.950 . S
H253 C259 0.950 . S
H254 C260 0.949 . S
C255 H250 0.950 . S
C255 C257 1.327 . S
C255 C261 1.429 . S
C256 C248 1.574 . S
C256 H251 0.949 . S
C256 C262 1.368 1_556 S
C257 C241 1.349 . S
C257 H249 0.950 . S
C257 C255 1.327 . S
C258 C246 1.368 . S
C258 H252 0.950 . S
C258 C259 1.327 . S
C259 H253 0.950 . S
C259 C258 1.327 . S
C259 C263 1.407 1_556 S
C260 C243 1.574 . S
C260 H254 0.949 . S
C260 C264 1.368 . S
C261 C242 1.429 1_554 S
C261 C255 1.429 . S
C261 C262 1.523 . S
C262 C243 1.368 . S
C262 C256 1.368 1_554 S
C262 C261 1.523 . S
C263 C247 1.451 . S
C263 C259 1.407 1_554 S
C263 C264 1.523 . S
C264 C248 1.368 1_554 S
C264 C260 1.368 . S
C264 C263 1.523 . S
H265 C240 0.950 . S
H266 C242 0.950 . S
H267 C243 0.949 . S
H268 C245 0.950 . S
H269 C247 0.950 . S
C270 C271 1.349 . S
C270 C272 1.327 . S
C270 H295 0.950 . S
C271 C270 1.349 . S
C271 C287 1.349 1_554 S
C272 C270 1.327 . S
C272 C291 1.429 . S
C272 H296 0.950 . S
C273 C290 1.574 . S
C273 C292 1.368 1_556 S
C273 H297 0.949 . S
H274 C278 0.949 . S
C275 C276 1.349 1_556 S
C275 C277 1.327 . S
C275 H298 0.950 . S
C276 C275 1.349 1_554 S
C276 C288 1.349 . S
C277 C275 1.327 . S
C277 C293 1.429 1_556 S
C277 H299 0.950 . S
C278 H274 0.949 . S
C278 C286 1.574 . S
C278 C294 1.368 . S
H279 C287 0.950 . S
H280 C285 0.950 . S
H281 C286 0.949 . S
H282 C288 0.950 . S
H283 C289 0.950 . S
H284 C290 0.949 . S
C285 H280 0.950 . S
C285 C287 1.327 . S
C285 C291 1.429 1_556 S
C286 C278 1.574 . S
C286 H281 0.949 . S
C286 C292 1.368 . S
C287 C271 1.349 1_556 S
C287 H279 0.950 . S
C287 C285 1.327 . S
C288 C276 1.349 . S
C288 H282 0.950 . S
C288 C289 1.327 . S
C289 H283 0.950 . S
C289 C288 1.327 . S
C289 C293 1.429 . S
C290 C273 1.574 . S
C290 H284 0.949 . S
C290 C294 1.368 1_556 S
C291 C272 1.429 . S
C291 C285 1.429 1_554 S
C291 C292 1.523 . S
C292 C273 1.368 1_554 S
C292 C286 1.368 . S
C292 C291 1.523 . S
C293 C277 1.429 1_554 S
C293 C289 1.429 . S
C293 C294 1.523 . S
C294 C278 1.368 . S
C294 C290 1.368 1_554 S
C294 C293 1.523 . S
H295 C270 0.950 . S
H296 C272 0.950 . S
H297 C273 0.949 . S
H298 C275 0.950 . S
H299 C277 0.950 . S
C300 C301 1.349 1_556 S
C300 C302 1.327 . S
C300 H325 0.950 . S
C301 C300 1.349 1_554 S
C301 C317 1.349 . S
C302 C300 1.327 . S
C302 C321 1.429 1_556 S
C302 H326 0.950 . S
C303 C320 1.574 . S
C303 C322 1.368 . S
C303 H327 0.949 . S
H304 C308 0.949 . S
C305 C306 1.349 . S
C305 C307 1.327 . S
C305 H328 0.950 . S
C306 C305 1.349 . S
C306 C318 1.349 1_554 S
C307 C305 1.327 . S
C307 C323 1.429 . S
C307 H329 0.950 . S
C308 H304 0.949 . S
C308 C316 1.574 . S
C308 C324 1.368 1_556 S
H309 C317 0.950 . S
H310 C315 0.950 . S
H311 C316 0.949 . S
H312 C318 0.950 . S
H313 C319 0.950 . S
H314 C320 0.949 . S
C315 H310 0.950 . S
C315 C317 1.327 . S
C315 C321 1.429 . S
C316 C308 1.574 . S
C316 H311 0.949 . S
C316 C322 1.368 1_556 S
C317 C301 1.349 . S
C317 H309 0.950 . S
C317 C315 1.327 . S
C318 C306 1.349 1_556 S
C318 H312 0.950 . S
C318 C319 1.327 . S
C319 H313 0.950 . S
C319 C318 1.327 . S
C319 C323 1.429 1_556 S
C320 C303 1.574 . S
C320 H314 0.949 . S
C320 C324 1.368 . S
C321 C302 1.429 1_554 S
C321 C315 1.429 . S
C321 C322 1.523 . S
C322 C303 1.368 . S
C322 C316 1.368 1_554 S
C322 C321 1.523 . S
C323 C307 1.429 . S
C323 C319 1.429 1_554 S
C323 C324 1.523 . S
C324 C308 1.368 1_554 S
C324 C320 1.368 . S
C324 C323 1.523 . S
H325 C300 0.950 . S
H326 C302 0.950 . S
H327 C303 0.949 . S
H328 C305 0.950 . S
H329 C307 0.950 . S
C330 C331 1.354 . S
C330 C332 1.327 . S
C330 H355 0.950 . S
C331 C330 1.354 . S
C331 C347 1.344 1_554 S
C332 C330 1.327 . S
C332 C351 1.430 . S
C332 H356 0.950 . S
C333 C350 1.574 . S
C333 C352 1.369 1_556 S
C333 H357 0.949 . S
H334 C338 0.949 . S
C335 C336 1.352 . S
C335 C337 1.327 . S
C335 H358 0.950 . S
C336 C335 1.352 . S
C336 C348 1.346 1_556 S
C337 C335 1.327 . S
C337 C353 1.428 . S
C337 H359 0.950 . S
C338 H334 0.949 . S
C338 C346 1.574 . S
C338 C354 1.372 1_554 S
H339 C347 0.950 . S
H340 C345 0.950 . S
H341 C346 0.949 . S
H342 C348 0.950 . S
H343 C349 0.950 . S
H344 C350 0.949 . S
C345 H340 0.950 . S
C345 C347 1.327 . S
C345 C351 1.427 1_556 S
C346 C338 1.574 . S
C346 H341 0.949 . S
C346 C352 1.367 . S
C347 C331 1.344 1_556 S
C347 H339 0.950 . S
C347 C345 1.327 . S
C348 C336 1.346 1_554 S
C348 H342 0.950 . S
C348 C349 1.327 . S
C349 H343 0.950 . S
C349 C348 1.327 . S
C349 C353 1.430 1_554 S
C350 C333 1.574 . S
C350 H344 0.949 . S
C350 C354 1.365 . S
C351 C332 1.430 . S
C351 C345 1.427 1_554 S
C351 C352 1.523 . S
C352 C333 1.369 1_554 S
C352 C346 1.367 . S
C352 C351 1.523 . S
C353 C337 1.428 . S
C353 C349 1.430 1_556 S
C353 C354 1.523 . S
C354 C338 1.372 1_556 S
C354 C350 1.365 . S
C354 C353 1.523 . S
H355 C330 0.950 . S
H356 C332 0.950 . S
H357 C333 0.949 . S
H358 C335 0.950 . S
H359 C337 0.950 . S
C360 C361 1.349 . S
C360 C362 1.327 . S
C360 H385 0.950 . S
C361 C360 1.349 . S
C361 C377 1.349 . S
C362 C360 1.327 . S
C362 C381 1.429 . S
C362 H386 0.950 . S
C363 C380 1.574 . S
C363 C382 1.368 . S
C363 H387 0.949 . S
H364 C368 0.949 . S
C365 C366 1.349 . S
C365 C367 1.327 . S
C365 H388 0.950 . S
C366 C365 1.349 . S
C366 C378 1.349 . S
C367 C365 1.327 . S
C367 C383 1.429 . S
C367 H389 0.950 . S
C368 H364 0.949 . S
C368 C376 1.574 . S
C368 C384 1.368 . S
H369 C377 0.950 . S
H370 C375 0.950 . S
H371 C376 0.949 . S
H372 C378 0.950 . S
H373 C379 0.950 . S
H374 C380 0.949 . S
C375 H370 0.950 . S
C375 C377 1.327 . S
C375 C381 1.429 . S
C376 C368 1.574 . S
C376 H371 0.949 . S
C376 C382 1.368 . S
C377 C361 1.349 . S
C377 H369 0.950 . S
C377 C375 1.327 . S
C378 C366 1.349 . S
C378 H372 0.950 . S
C378 C379 1.327 . S
C379 H373 0.950 . S
C379 C378 1.327 . S
C379 C383 1.429 . S
C380 C363 1.574 . S
C380 H374 0.949 . S
C380 C384 1.368 . S
C381 C362 1.429 . S
C381 C375 1.429 . S
C381 C382 1.523 . S
C382 C363 1.368 . S
C382 C376 1.368 . S
C382 C381 1.523 . S
C383 C367 1.429 . S
C383 C379 1.429 . S
C383 C384 1.523 1_455 S
C384 C368 1.368 . S
C384 C380 1.368 . S
C384 C383 1.523 1_655 S
H385 C360 0.950 . S
H386 C362 0.950 . S
H387 C363 0.949 . S
H388 C365 0.950 . S
H389 C367 0.950 . S
C390 C391 1.349 . S
C390 C392 1.327 . S
C390 H415 0.950 . S
C391 C390 1.349 . S
C391 C407 1.349 . S
C392 C390 1.327 . S
C392 C411 1.429 . S
C392 H416 0.950 . S
C393 C410 1.574 . S
C393 C412 1.368 . S
C393 H417 0.949 . S
H394 C398 0.949 . S
C395 C396 1.349 . S
C395 C397 1.327 1_565 S
C395 H418 0.950 . S
C396 C395 1.349 . S
C396 C408 1.349 1_565 S
C397 C395 1.327 1_545 S
C397 C413 1.429 . S
C397 H419 0.950 . S
C398 H394 0.949 . S
C398 C406 1.574 . S
C398 C414 1.368 . S
H399 C407 0.950 . S
H400 C405 0.950 . S
H401 C406 0.949 . S
H402 C408 0.958 . S
H403 C409 0.950 . S
H404 C410 0.949 . S
C405 H400 0.950 . S
C405 C407 1.327 . S
C405 C411 1.429 . S
C406 C398 1.574 . S
C406 H401 0.949 . S
C406 C412 1.368 . S
C407 C391 1.349 . S
C407 H399 0.950 . S
C407 C405 1.327 . S
C408 C396 1.349 1_545 S
C408 H402 0.958 . S
C408 C409 1.327 . S
C409 H403 0.950 . S
C409 C408 1.327 . S
C409 C413 1.429 . S
C410 C393 1.574 . S
C410 H404 0.949 . S
C410 C414 1.368 . S
C411 C392 1.429 . S
C411 C405 1.429 . S
C411 C412 1.523 . S
C412 C393 1.368 . S
C412 C406 1.368 . S
C412 C411 1.523 . S
C413 C397 1.429 . S
C413 C409 1.429 . S
C413 C414 1.523 . S
C414 C398 1.368 . S
C414 C410 1.368 . S
C414 C413 1.523 . S
H415 C390 0.950 . S
H416 C392 0.950 . S
H417 C393 0.949 . S
H418 C395 0.950 . S
H419 C397 0.950 . S
C420 C421 1.349 . S
C420 C422 1.327 1_455 S
C420 H445 0.950 . S
C421 C420 1.349 . S
C421 C437 1.349 . S
C422 C420 1.327 1_655 S
C422 C441 1.429 . S
C422 H446 0.950 . S
C423 C440 1.574 . S
C423 C442 1.368 . S
C423 H447 0.949 . S
H424 C428 0.949 . S
C425 C426 1.349 . S
C425 C427 1.327 . S
C425 H448 0.950 . S
C426 C425 1.349 . S
C426 C438 1.349 . S
C427 C425 1.327 . S
C427 C443 1.429 1_565 S
C427 H449 0.950 . S
C428 H424 0.949 . S
C428 C436 1.574 . S
C428 C444 1.368 . S
H429 C437 0.950 . S
H430 C435 0.950 . S
H431 C436 0.949 . S
H432 C438 0.950 . S
H433 C439 0.942 1_545 S
H434 C440 0.949 . S
C435 H430 0.950 . S
C435 C437 1.327 . S
C435 C441 1.429 1_455 S
C436 C428 1.574 . S
C436 H431 0.949 . S
C436 C442 1.368 . S
C437 C421 1.349 . S
C437 H429 0.950 . S
C437 C435 1.327 . S
C438 C426 1.349 . S
C438 H432 0.950 . S
C438 C439 1.335 . S
C439 H433 0.942 1_565 S
C439 C438 1.335 . S
C439 C443 1.428 1_565 S
C440 C423 1.574 . S
C440 H434 0.949 . S
C440 C444 1.368 . S
C441 C422 1.429 . S
C441 C435 1.429 1_655 S
C441 C442 1.523 . S
C442 C423 1.368 . S
C442 C436 1.368 . S
C442 C441 1.523 . S
C443 C427 1.429 1_545 S
C443 C439 1.428 1_545 S
C443 C444 1.523 . S
C444 C428 1.368 . S
C444 C440 1.368 . S
C444 C443 1.523 . S
H445 C420 0.950 . S
H446 C422 0.950 . S
H447 C423 0.949 . S
H448 C425 0.950 . S
H449 C427 0.950 . S
C450 C451 1.349 . S
C450 C452 1.327 . S
C450 H475 0.950 . S
C451 C450 1.349 . S
C451 C467 1.349 . S
C452 C450 1.327 . S
C452 C471 1.429 . S
C452 H476 0.950 . S
C453 C470 1.574 . S
C453 C472 1.368 . S
C453 H477 0.949 . S
H454 C458 0.949 . S
C455 C456 1.349 . S
C455 C457 1.327 . S
C455 H478 0.950 . S
C456 C455 1.349 . S
C456 C468 1.349 . S
C457 C455 1.327 . S
C457 C473 1.429 . S
C457 H479 0.950 . S
C458 H454 0.949 . S
C458 C466 1.574 . S
C458 C474 1.368 . S
H459 C467 0.950 . S
H460 C465 0.950 . S
H461 C466 0.949 . S
H462 C468 0.950 . S
H463 C469 0.950 . S
H464 C470 0.949 . S
C465 H460 0.950 . S
C465 C467 1.327 . S
C465 C471 1.429 . S
C466 C458 1.574 . S
C466 H461 0.949 . S
C466 C472 1.368 . S
C467 C451 1.349 . S
C467 H459 0.950 . S
C467 C465 1.327 . S
C468 C456 1.349 . S
C468 H462 0.950 . S
C468 C469 1.327 . S
C469 H463 0.950 . S
C469 C468 1.327 . S
C469 C473 1.429 . S
C470 C453 1.574 . S
C470 H464 0.949 . S
C470 C474 1.368 . S
C471 C452 1.429 . S
C471 C465 1.429 . S
C471 C472 1.523 . S
C472 C453 1.368 . S
C472 C466 1.368 . S
C472 C471 1.523 . S
C473 C457 1.429 . S
C473 C469 1.429 . S
C473 C474 1.523 . S
C474 C458 1.368 . S
C474 C470 1.368 . S
C474 C473 1.523 . S
H475 C450 0.950 . S
H476 C452 0.950 . S
H477 C453 0.949 . S
H478 C455 0.950 . S
H479 C457 0.950 . S
C480 C481 1.349 . S
C480 C482 1.327 . S
C480 H505 0.950 . S
C481 C480 1.349 . S
C481 C497 1.349 . S
C482 C480 1.327 . S
C482 C501 1.429 . S
C482 H506 0.950 . S
C483 C500 1.574 . S
C483 C502 1.368 . S
C483 H507 0.949 . S
H484 C488 0.949 . S
C485 C486 1.349 . S
C485 C487 1.327 . S
C485 H508 0.950 . S
C486 C485 1.349 . S
C486 C498 1.349 . S
C487 C485 1.327 . S
C487 C503 1.429 . S
C487 H509 0.950 . S
C488 H484 0.949 . S
C488 C496 1.574 . S
C488 C504 1.368 . S
H489 C497 0.950 . S
H490 C495 0.950 . S
H491 C496 0.949 . S
H492 C498 0.950 . S
H493 C499 0.950 . S
H494 C500 0.949 . S
C495 H490 0.950 . S
C495 C497 1.327 . S
C495 C501 1.429 . S
C496 C488 1.574 . S
C496 H491 0.949 . S
C496 C502 1.368 . S
C497 C481 1.349 . S
C497 H489 0.950 . S
C497 C495 1.327 . S
C498 C486 1.349 . S
C498 H492 0.950 . S
C498 C499 1.327 . S
C499 H493 0.950 . S
C499 C498 1.327 . S
C499 C503 1.429 . S
C500 C483 1.574 . S
C500 H494 0.949 . S
C500 C504 1.368 . S
C501 C482 1.429 . S
C501 C495 1.429 . S
C501 C502 1.523 . S
C502 C483 1.368 . S
C502 C496 1.368 . S
C502 C501 1.523 . S
C503 C487 1.429 . S
C503 C499 1.429 . S
C503 C504 1.523 . S
C504 C488 1.368 . S
C504 C500 1.368 . S
C504 C503 1.523 . S
H505 C480 0.950 . S
H506 C482 0.950 . S
H507 C483 0.949 . S
H508 C485 0.950 . S
H509 C487 0.950 . S
C510 C511 1.349 . S
C510 C512 1.327 . S
C510 H535 0.950 . S
C511 C510 1.349 . S
C511 C527 1.349 . S
C512 C510 1.327 . S
C512 C531 1.429 . S
C512 H536 0.950 . S
C513 C530 1.574 . S
C513 C532 1.368 . S
C513 H537 0.949 . S
H514 C518 0.949 . S
C515 C516 1.349 . S
C515 C517 1.327 . S
C515 H538 0.950 . S
C516 C515 1.349 . S
C516 C528 1.349 . S
C517 C515 1.327 . S
C517 C533 1.429 . S
C517 H539 0.950 . S
C518 H514 0.949 . S
C518 C526 1.574 . S
C518 C534 1.368 . S
H519 C527 0.950 . S
H520 C525 0.950 . S
H521 C526 0.949 . S
H522 C528 0.950 . S
H523 C529 0.950 . S
H524 C530 0.949 . S
C525 H520 0.950 . S
C525 C527 1.327 . S
C525 C531 1.429 . S
C526 C518 1.574 . S
C526 H521 0.949 . S
C526 C532 1.368 . S
C527 C511 1.349 . S
C527 H519 0.950 . S
C527 C525 1.327 . S
C528 C516 1.349 . S
C528 H522 0.950 . S
C528 C529 1.327 . S
C529 H523 0.950 . S
C529 C528 1.327 . S
C529 C533 1.429 . S
C530 C513 1.574 . S
C530 H524 0.949 . S
C530 C534 1.368 . S
C531 C512 1.429 . S
C531 C525 1.429 . S
C531 C532 1.523 . S
C532 C513 1.368 . S
C532 C526 1.368 . S
C532 C531 1.523 . S
C533 C517 1.429 . S
C533 C529 1.429 . S
C533 C534 1.523 . S
C534 C518 1.368 . S
C534 C530 1.368 . S
C534 C533 1.523 . S
H535 C510 0.950 . S
H536 C512 0.950 . S
H537 C513 0.949 . S
H538 C515 0.950 . S
H539 C517 0.950 . S
C540 C541 1.349 . S
C540 C542 1.327 . S
C540 H565 0.950 . S
C541 C540 1.349 . S
C541 C557 1.349 . S
C542 C540 1.327 . S
C542 C561 1.429 . S
C542 H566 0.950 . S
C543 C560 1.574 . S
C543 C562 1.368 . S
C543 H567 0.949 . S
H544 C548 0.949 . S
C545 C546 1.349 . S
C545 C547 1.327 . S
C545 H568 0.950 . S
C546 C545 1.349 . S
C546 C558 1.349 . S
C547 C545 1.327 . S
C547 C563 1.429 . S
C547 H569 0.950 . S
C548 H544 0.949 . S
C548 C556 1.574 . S
C548 C564 1.368 . S
H549 C557 0.950 . S
H550 C555 0.950 . S
H551 C556 0.949 . S
H552 C558 0.950 . S
H553 C559 0.950 . S
H554 C560 0.949 . S
C555 H550 0.950 . S
C555 C557 1.327 . S
C555 C561 1.429 . S
C556 C548 1.574 . S
C556 H551 0.949 . S
C556 C562 1.368 . S
C557 C541 1.349 . S
C557 H549 0.950 . S
C557 C555 1.327 . S
C558 C546 1.349 . S
C558 H552 0.950 . S
C558 C559 1.327 . S
C559 H553 0.950 . S
C559 C558 1.327 . S
C559 C563 1.429 . S
C560 C543 1.574 . S
C560 H554 0.949 . S
C560 C564 1.368 . S
C561 C542 1.429 . S
C561 C555 1.429 . S
C561 C562 1.523 . S
C562 C543 1.368 . S
C562 C556 1.368 . S
C562 C561 1.523 . S
C563 C547 1.429 . S
C563 C559 1.429 . S
C563 C564 1.523 . S
C564 C548 1.368 . S
C564 C560 1.368 . S
C564 C563 1.523 . S
H565 C540 0.950 . S
H566 C542 0.950 . S
H567 C543 0.949 . S
H568 C545 0.950 . S
H569 C547 0.950 . S
C570 C571 1.349 . S
C570 C572 1.327 . S
C570 H595 0.950 . S
C571 C570 1.349 . S
C571 C587 1.349 . S
C572 C570 1.327 . S
C572 C591 1.429 . S
C572 H596 0.950 . S
C573 C590 1.574 . S
C573 C592 1.368 . S
C573 H597 0.949 . S
H574 C578 0.949 . S
C575 C576 1.349 . S
C575 C577 1.327 . S
C575 H598 0.950 . S
C576 C575 1.349 . S
C576 C588 1.349 . S
C577 C575 1.327 . S
C577 C593 1.429 . S
C577 H599 0.950 . S
C578 H574 0.949 . S
C578 C586 1.574 . S
C578 C594 1.368 . S
H579 C587 0.950 . S
H580 C585 0.950 . S
H581 C586 0.949 . S
H582 C588 0.950 . S
H583 C589 0.950 . S
H584 C590 0.949 . S
C585 H580 0.950 . S
C585 C587 1.327 . S
C585 C591 1.429 . S
C586 C578 1.574 . S
C586 H581 0.949 . S
C586 C592 1.368 . S
C587 C571 1.349 . S
C587 H579 0.950 . S
C587 C585 1.327 . S
C588 C576 1.349 . S
C588 H582 0.950 . S
C588 C589 1.327 . S
C589 H583 0.950 . S
C589 C588 1.327 . S
C589 C593 1.429 . S
C590 C573 1.574 . S
C590 H584 0.949 . S
C590 C594 1.368 . S
C591 C572 1.429 . S
C591 C585 1.429 . S
C591 C592 1.523 . S
C592 C573 1.368 . S
C592 C586 1.368 . S
C592 C591 1.523 . S
C593 C577 1.429 . S
C593 C589 1.429 . S
C593 C594 1.523 . S
C594 C578 1.368 . S
C594 C590 1.368 . S
C594 C593 1.523 . S
H595 C570 0.950 . S
H596 C572 0.950 . S
H597 C573 0.949 . S
H598 C575 0.950 . S
H599 C577 0.950 . S
C600 C601 1.349 . S
C600 C602 1.327 . S
C600 H625 0.950 . S
C601 C600 1.349 . S
C601 C617 1.349 . S
C602 C600 1.327 . S
C602 C621 1.429 . S
C602 H626 0.950 . S
C603 C620 1.574 . S
C603 C622 1.368 . S
C603 H627 0.949 . S
H604 C608 0.949 . S
C605 C606 1.349 . S
C605 C607 1.327 . S
C605 H628 0.950 . S
C606 C605 1.349 . S
C606 C618 1.349 . S
C607 C605 1.327 . S
C607 C623 1.429 . S
C607 H629 0.950 . S
C608 H604 0.949 . S
C608 C616 1.574 . S
C608 C624 1.368 . S
H609 C617 0.950 . S
H610 C615 0.950 . S
H611 C616 0.949 . S
H612 C618 0.950 . S
H613 C619 0.950 . S
H614 C620 0.949 . S
C615 H610 0.950 . S
C615 C617 1.327 . S
C615 C621 1.429 . S
C616 C608 1.574 . S
C616 H611 0.949 . S
C616 C622 1.368 . S
C617 C601 1.349 . S
C617 H609 0.950 . S
C617 C615 1.327 . S
C618 C606 1.349 . S
C618 H612 0.950 . S
C618 C619 1.327 . S
C619 H613 0.950 . S
C619 C618 1.327 . S
C619 C623 1.429 . S
C620 C603 1.574 . S
C620 H614 0.949 . S
C620 C624 1.368 . S
C621 C602 1.429 . S
C621 C615 1.429 . S
C621 C622 1.523 . S
C622 C603 1.368 . S
C622 C616 1.368 . S
C622 C621 1.523 . S
C623 C607 1.429 . S
C623 C619 1.429 . S
C623 C624 1.523 . S
C624 C608 1.368 . S
C624 C620 1.368 . S
C624 C623 1.523 . S
H625 C600 0.950 . S
H626 C602 0.950 . S
H627 C603 0.949 . S
H628 C605 0.950 . S
H629 C607 0.950 . S
C630 C631 1.349 . S
C630 C632 1.327 . S
C630 H655 0.950 . S
C631 C630 1.349 . S
C631 C647 1.349 . S
C632 C630 1.327 . S
C632 C651 1.429 . S
C632 H656 0.950 . S
C633 C650 1.574 . S
C633 C652 1.368 . S
C633 H657 0.949 . S
H634 C638 0.949 . S
C635 C636 1.349 . S
C635 C637 1.327 . S
C635 H658 0.950 . S
C636 C635 1.349 . S
C636 C648 1.349 . S
C637 C635 1.327 . S
C637 C653 1.429 . S
C637 H659 0.950 . S
C638 H634 0.949 . S
C638 C646 1.574 . S
C638 C654 1.368 . S
H639 C647 0.950 . S
H640 C645 0.950 . S
H641 C646 0.949 . S
H642 C648 0.950 . S
H643 C649 0.950 . S
H644 C650 0.957 . S
C645 H640 0.950 . S
C645 C647 1.327 . S
C645 C651 1.429 . S
C646 C638 1.574 . S
C646 H641 0.949 . S
C646 C652 1.368 . S
C647 C631 1.349 . S
C647 H639 0.950 . S
C647 C645 1.327 . S
C648 C636 1.349 . S
C648 H642 0.950 . S
C648 C649 1.327 . S
C649 H643 0.950 . S
C649 C648 1.327 . S
C649 C653 1.429 . S
C650 C633 1.574 . S
C650 H644 0.957 . S
C650 C654 1.368 . S
C651 C632 1.429 . S
C651 C645 1.429 . S
C651 C652 1.523 . S
C652 C633 1.368 . S
C652 C646 1.368 . S
C652 C651 1.523 . S
C653 C637 1.429 . S
C653 C649 1.429 . S
C653 C654 1.523 1_545 S
C654 C638 1.368 . S
C654 C650 1.368 . S
C654 C653 1.523 1_565 S
H655 C630 0.950 . S
H656 C632 0.950 . S
H657 C633 0.949 . S
H658 C635 0.950 . S
H659 C637 0.950 . S
C660 C661 1.349 . S
C660 C662 1.327 . S
C660 H685 0.950 . S
C661 C660 1.349 . S
C661 C677 1.349 . S
C662 C660 1.327 . S
C662 C681 1.429 . S
C662 H686 0.950 . S
C663 C680 1.574 . S
C663 C682 1.368 . S
C663 H687 0.949 . S
H664 C668 0.949 . S
C665 C666 1.349 . S
C665 C667 1.327 1_545 S
C665 H688 0.950 . S
C666 C665 1.349 . S
C666 C678 1.349 1_545 S
C667 C665 1.327 1_565 S
C667 C683 1.429 . S
C667 H689 0.950 . S
C668 H664 0.949 . S
C668 C676 1.574 . S
C668 C684 1.368 . S
H669 C677 0.950 . S
H670 C675 0.950 . S
H671 C676 0.949 . S
H672 C678 0.950 . S
H673 C679 0.950 . S
H674 C680 0.949 . S
C675 H670 0.950 . S
C675 C677 1.327 . S
C675 C681 1.429 . S
C676 C668 1.574 . S
C676 H671 0.949 . S
C676 C682 1.368 . S
C677 C661 1.349 . S
C677 H669 0.950 . S
C677 C675 1.327 . S
C678 C666 1.349 1_565 S
C678 H672 0.950 . S
C678 C679 1.327 . S
C679 H673 0.950 . S
C679 C678 1.327 . S
C679 C683 1.429 . S
C680 C663 1.574 . S
C680 H674 0.949 . S
C680 C684 1.368 . S
C681 C662 1.429 . S
C681 C675 1.429 . S
C681 C682 1.523 1_655 S
C682 C663 1.368 . S
C682 C676 1.368 . S
C682 C681 1.523 1_455 S
C683 C667 1.429 . S
C683 C679 1.429 . S
C683 C684 1.523 . S
C684 C668 1.368 . S
C684 C680 1.368 . S
C684 C683 1.523 . S
H685 C660 0.950 . S
H686 C662 0.950 . S
H687 C663 0.949 . S
H688 C665 0.950 . S
H689 C667 0.950 . S
C690 C691 1.349 . S
C690 C692 1.327 . S
C690 H715 0.950 . S
C691 C690 1.349 . S
C691 C707 1.349 . S
C692 C690 1.327 . S
C692 C711 1.429 . S
C692 H716 0.950 . S
C693 C710 1.574 . S
C693 C712 1.368 . S
C693 H717 0.949 . S
H694 C698 0.949 . S
C695 C696 1.349 . S
C695 C697 1.327 1_655 S
C695 H718 0.950 . S
C696 C695 1.349 . S
C696 C708 1.349 1_655 S
C697 C695 1.327 1_455 S
C697 C713 1.429 . S
C697 H719 0.950 . S
C698 H694 0.949 . S
C698 C706 1.574 . S
C698 C714 1.368 . S
H699 C707 0.950 . S
H700 C705 0.950 . S
H701 C706 0.949 . S
H702 C708 0.950 . S
H703 C709 0.950 . S
H704 C710 0.949 . S
C705 H700 0.950 . S
C705 C707 1.327 . S
C705 C711 1.429 . S
C706 C698 1.574 . S
C706 H701 0.949 . S
C706 C712 1.368 . S
C707 C691 1.349 . S
C707 H699 0.950 . S
C707 C705 1.327 . S
C708 C696 1.349 1_455 S
C708 H702 0.950 . S
C708 C709 1.327 . S
C709 H703 0.950 . S
C709 C708 1.327 . S
C709 C713 1.429 . S
C710 C693 1.574 . S
C710 H704 0.949 . S
C710 C714 1.368 . S
C711 C692 1.429 . S
C711 C705 1.429 . S
C711 C712 1.523 . S
C712 C693 1.368 . S
C712 C706 1.368 . S
C712 C711 1.523 . S
C713 C697 1.429 . S
C713 C709 1.429 . S
C713 C714 1.523 . S
C714 C698 1.368 . S
C714 C710 1.368 . S
C714 C713 1.523 . S
H715 C690 0.950 . S
H716 C692 0.950 . S
H717 C693 0.949 . S
H718 C695 0.950 . S
H719 C697 0.950 . S
C720 C721 1.349 . S
C720 C722 1.327 . S
C720 H745 0.950 . S
C721 C720 1.349 . S
C721 C737 1.349 . S
C722 C720 1.327 . S
C722 C741 1.429 . S
C722 H746 0.950 . S
C723 C740 1.574 . S
C723 C742 1.368 . S
C723 H747 0.949 . S
H724 C728 0.949 . S
C725 C726 1.349 . S
C725 C727 1.327 . S
C725 H748 0.950 . S
C726 C725 1.349 . S
C726 C738 1.349 . S
C727 C725 1.327 . S
C727 C743 1.429 . S
C727 H749 0.950 . S
C728 H724 0.949 . S
C728 C736 1.574 . S
C728 C744 1.368 . S
H729 C737 0.950 . S
H730 C735 0.950 . S
H731 C736 0.949 . S
H732 C738 0.950 1_655 S
H733 C739 0.950 . S
H734 C740 0.949 . S
C735 H730 0.950 . S
C735 C737 1.327 . S
C735 C741 1.429 . S
C736 C728 1.574 . S
C736 H731 0.949 . S
C736 C742 1.368 . S
C737 C721 1.349 . S
C737 H729 0.950 . S
C737 C735 1.327 . S
C738 C726 1.349 . S
C738 H732 0.950 1_455 S
C738 C739 1.327 . S
C739 H733 0.950 . S
C739 C738 1.327 . S
C739 C743 1.429 . S
C740 C723 1.574 . S
C740 H734 0.949 . S
C740 C744 1.368 . S
C741 C722 1.429 . S
C741 C735 1.429 . S
C741 C742 1.523 . S
C742 C723 1.368 . S
C742 C736 1.368 . S
C742 C741 1.523 . S
C743 C727 1.429 . S
C743 C739 1.429 . S
C743 C744 1.523 . S
C744 C728 1.368 . S
C744 C740 1.368 . S
C744 C743 1.523 . S
H745 C720 0.950 . S
H746 C722 0.950 . S
H747 C723 0.949 . S
H748 C725 0.950 . S
H749 C727 0.950 . S
C750 C751 1.349 . S
C750 C752 1.327 . S
C750 H775 0.950 . S
C751 C750 1.349 . S
C751 C767 1.349 . S
C752 C750 1.327 . S
C752 C771 1.429 . S
C752 H776 0.950 . S
C753 C770 1.574 . S
C753 C772 1.368 . S
C753 H777 0.949 . S
H754 C758 0.949 . S
C755 C756 1.349 . S
C755 C757 1.327 . S
C755 H778 0.950 . S
C756 C755 1.349 . S
C756 C768 1.349 . S
C757 C755 1.327 . S
C757 C773 1.429 . S
C757 H779 0.950 . S
C758 H754 0.949 . S
C758 C766 1.574 . S
C758 C774 1.368 . S
H759 C767 0.950 . S
H760 C765 0.950 . S
H761 C766 0.949 . S
H762 C768 0.950 . S
H763 C769 0.950 . S
H764 C770 0.949 . S
C765 H760 0.950 . S
C765 C767 1.327 . S
C765 C771 1.429 . S
C766 C758 1.574 . S
C766 H761 0.949 . S
C766 C772 1.368 . S
C767 C751 1.349 . S
C767 H759 0.950 . S
C767 C765 1.327 . S
C768 C756 1.349 . S
C768 H762 0.950 . S
C768 C769 1.327 . S
C769 H763 0.950 . S
C769 C768 1.327 . S
C769 C773 1.429 . S
C770 C753 1.574 . S
C770 H764 0.949 . S
C770 C774 1.368 . S
C771 C752 1.429 . S
C771 C765 1.429 . S
C771 C772 1.523 . S
C772 C753 1.368 . S
C772 C766 1.368 . S
C772 C771 1.523 . S
C773 C757 1.429 . S
C773 C769 1.429 . S
C773 C774 1.523 . S
C774 C758 1.368 . S
C774 C770 1.368 . S
C774 C773 1.523 . S
H775 C750 0.950 . S
H776 C752 0.950 . S
H777 C753 0.949 . S
H778 C755 0.950 . S
H779 C757 0.950 . S
C780 C781 1.349 . S
C780 C782 1.327 . S
C780 H805 0.950 1_565 S
C781 C780 1.349 . S
C781 C797 1.349 . S
C782 C780 1.327 . S
C782 C801 1.429 . S
C782 H806 0.950 . S
C783 C800 1.574 . S
C783 C802 1.368 . S
C783 H807 0.949 . S
H784 C788 0.949 . S
C785 C786 1.349 . S
C785 C787 1.327 . S
C785 H808 0.950 . S
C786 C785 1.349 . S
C786 C798 1.349 . S
C787 C785 1.327 . S
C787 C803 1.429 . S
C787 H809 0.950 . S
C788 H784 0.949 . S
C788 C796 1.574 . S
C788 C804 1.368 . S
H789 C797 0.950 . S
H790 C795 0.950 . S
H791 C796 0.949 . S
H792 C798 0.950 . S
H793 C799 0.950 . S
H794 C800 0.949 . S
C795 H790 0.950 . S
C795 C797 1.327 . S
C795 C801 1.429 . S
C796 C788 1.574 . S
C796 H791 0.949 . S
C796 C802 1.368 . S
C797 C781 1.349 . S
C797 H789 0.950 . S
C797 C795 1.327 . S
C798 C786 1.349 . S
C798 H792 0.950 . S
C798 C799 1.327 . S
C799 H793 0.950 . S
C799 C798 1.327 . S
C799 C803 1.429 . S
C800 C783 1.574 . S
C800 H794 0.949 . S
C800 C804 1.368 . S
C801 C782 1.429 . S
C801 C795 1.429 . S
C801 C802 1.523 . S
C802 C783 1.368 . S
C802 C796 1.368 . S
C802 C801 1.523 . S
C803 C787 1.429 . S
C803 C799 1.429 . S
C803 C804 1.523 . S
C804 C788 1.368 . S
C804 C800 1.368 . S
C804 C803 1.523 . S
H805 C780 0.950 1_545 S
H806 C782 0.950 . S
H807 C783 0.949 . S
H808 C785 0.950 . S
H809 C787 0.950 . S
C810 C811 1.349 . S
C810 C812 1.327 . S
C810 H835 0.950 . S
C811 C810 1.349 . S
C811 C827 1.349 . S
C812 C810 1.327 . S
C812 C831 1.429 . S
C812 H836 0.950 . S
C813 C830 1.574 . S
C813 C832 1.368 . S
C813 H837 0.949 . S
H814 C818 0.949 . S
C815 C816 1.349 . S
C815 C817 1.327 . S
C815 H838 0.950 . S
C816 C815 1.349 . S
C816 C828 1.349 . S
C817 C815 1.327 . S
C817 C833 1.429 . S
C817 H839 0.950 . S
C818 H814 0.949 . S
C818 C826 1.574 . S
C818 C834 1.368 . S
H819 C827 0.950 1_565 S
H820 C825 0.950 . S
H821 C826 0.949 . S
H822 C828 0.950 . S
H823 C829 0.950 . S
H824 C830 0.949 . S
C825 H820 0.950 . S
C825 C827 1.327 . S
C825 C831 1.429 . S
C826 C818 1.574 . S
C826 H821 0.949 . S
C826 C832 1.368 . S
C827 C811 1.349 . S
C827 H819 0.950 1_545 S
C827 C825 1.327 . S
C828 C816 1.349 . S
C828 H822 0.950 . S
C828 C829 1.327 . S
C829 H823 0.950 . S
C829 C828 1.327 . S
C829 C833 1.429 . S
C830 C813 1.574 . S
C830 H824 0.949 . S
C830 C834 1.368 . S
C831 C812 1.429 . S
C831 C825 1.429 . S
C831 C832 1.523 . S
C832 C813 1.368 . S
C832 C826 1.368 . S
C832 C831 1.523 . S
C833 C817 1.429 . S
C833 C829 1.429 . S
C833 C834 1.523 . S
C834 C818 1.368 . S
C834 C830 1.368 . S
C834 C833 1.523 . S
H835 C810 0.950 . S
H836 C812 0.950 . S
H837 C813 0.949 . S
H838 C815 0.950 . S
H839 C817 0.950 . S
C840 C841 1.349 . S
C840 C842 1.327 . S
C840 H865 0.950 1_655 S
C841 C840 1.349 . S
C841 C857 1.349 . S
C842 C840 1.327 . S
C842 C861 1.429 . S
C842 H866 0.950 1_655 S
C843 C860 1.574 . S
C843 C862 1.368 . S
C843 H867 0.949 . S
H844 C848 0.949 . S
C845 C846 1.349 . S
C845 C847 1.327 . S
C845 H868 0.950 . S
C846 C845 1.349 . S
C846 C858 1.349 . S
C847 C845 1.327 . S
C847 C863 1.429 . S
C847 H869 0.950 . S
C848 H844 0.949 . S
C848 C856 1.574 . S
C848 C864 1.368 . S
H849 C857 0.950 . S
H850 C855 0.950 . S
H851 C856 0.949 . S
H852 C858 0.950 . S
H853 C859 0.950 . S
H854 C860 0.949 . S
C855 H850 0.950 . S
C855 C857 1.327 . S
C855 C861 1.429 . S
C856 C848 1.574 . S
C856 H851 0.949 . S
C856 C862 1.368 . S
C857 C841 1.349 . S
C857 H849 0.950 . S
C857 C855 1.327 . S
C858 C846 1.349 . S
C858 H852 0.950 . S
C858 C859 1.327 . S
C859 H853 0.950 . S
C859 C858 1.327 . S
C859 C863 1.429 . S
C860 C843 1.574 . S
C860 H854 0.949 . S
C860 C864 1.368 . S
C861 C842 1.429 . S
C861 C855 1.429 . S
C861 C862 1.523 . S
C862 C843 1.368 . S
C862 C856 1.368 . S
C862 C861 1.523 . S
C863 C847 1.429 . S
C863 C859 1.429 . S
C863 C864 1.523 . S
C864 C848 1.368 . S
C864 C860 1.368 . S
C864 C863 1.523 . S
H865 C840 0.950 1_455 S
H866 C842 0.950 1_455 S
H867 C843 0.949 . S
H868 C845 0.950 . S
H869 C847 0.950 . S
C870 C871 1.349 . S
C870 C872 1.327 . S
C870 H895 0.950 . S
C871 C870 1.349 . S
C871 C887 1.349 . S
C872 C870 1.327 . S
C872 C891 1.429 . S
C872 H896 0.950 . S
C873 C890 1.574 . S
C873 C892 1.368 . S
C873 H897 0.949 . S
H874 C878 0.949 . S
C875 C876 1.349 . S
C875 C877 1.327 . S
C875 H898 0.950 . S
C876 C875 1.349 . S
C876 C888 1.349 . S
C877 C875 1.327 . S
C877 C893 1.429 . S
C877 H899 0.950 . S
C878 H874 0.949 . S
C878 C886 1.574 . S
C878 C894 1.368 . S
H879 C887 0.950 . S
H880 C885 0.950 . S
H881 C886 0.949 . S
H882 C888 0.950 . S
H883 C889 0.950 . S
H884 C890 0.949 . S
C885 H880 0.950 . S
C885 C887 1.327 . S
C885 C891 1.429 . S
C886 C878 1.574 . S
C886 H881 0.949 . S
C886 C892 1.368 . S
C887 C871 1.349 . S
C887 H879 0.950 . S
C887 C885 1.327 . S
C888 C876 1.349 . S
C888 H882 0.950 . S
C888 C889 1.327 . S
C889 H883 0.950 . S
C889 C888 1.327 . S
C889 C893 1.429 . S
C890 C873 1.574 . S
C890 H884 0.949 . S
C890 C894 1.368 . S
C891 C872 1.429 . S
C891 C885 1.429 . S
C891 C892 1.523 . S
C892 C873 1.368 . S
C892 C886 1.368 . S
C892 C891 1.523 . S
C893 C877 1.429 . S
C893 C889 1.429 . S
C893 C894 1.523 . S
C894 C878 1.368 . S
C894 C890 1.368 . S
C894 C893 1.523 . S
H895 C870 0.950 . S
H896 C872 0.950 . S
H897 C873 0.949 . S
H898 C875 0.950 . S
H899 C877 0.950 . S
C900 C901 1.349 . S
C900 C902 1.327 . S
C900 H925 0.950 . S
C901 C900 1.349 . S
C901 C917 1.349 . S
C902 C900 1.327 . S
C902 C921 1.429 . S
C902 H926 0.950 . S
C903 C920 1.574 . S
C903 C922 1.368 . S
C903 H927 0.949 . S
H904 C908 0.949 . S
C905 C906 1.349 . S
C905 C907 1.327 . S
C905 H928 0.950 . S
C906 C905 1.349 . S
C906 C918 1.349 . S
C907 C905 1.327 . S
C907 C923 1.429 . S
C907 H929 0.950 . S
C908 H904 0.949 . S
C908 C916 1.574 . S
C908 C924 1.368 . S
H909 C917 0.950 . S
H910 C915 0.950 . S
H911 C916 0.949 . S
H912 C918 0.950 . S
H913 C919 0.950 . S
H914 C920 0.949 . S
C915 H910 0.950 . S
C915 C917 1.327 . S
C915 C921 1.429 . S
C916 C908 1.574 . S
C916 H911 0.949 . S
C916 C922 1.368 . S
C917 C901 1.349 . S
C917 H909 0.950 . S
C917 C915 1.327 . S
C918 C906 1.349 . S
C918 H912 0.950 . S
C918 C919 1.327 . S
C919 H913 0.950 . S
C919 C918 1.327 . S
C919 C923 1.429 . S
C920 C903 1.574 . S
C920 H914 0.949 . S
C920 C924 1.368 . S
C921 C902 1.429 . S
C921 C915 1.429 . S
C921 C922 1.523 . S
C922 C903 1.368 . S
C922 C916 1.368 . S
C922 C921 1.523 . S
C923 C907 1.429 . S
C923 C919 1.429 . S
C923 C924 1.523 . S
C924 C908 1.368 . S
C924 C920 1.368 . S
C924 C923 1.523 . S
H925 C900 0.950 . S
H926 C902 0.950 . S
H927 C903 0.949 . S
H928 C905 0.950 . S
H929 C907 0.950 . S
C930 C931 1.349 . S
C930 C932 1.327 . S
C930 H955 0.950 . S
C931 C930 1.349 . S
C931 C947 1.349 . S
C932 C930 1.327 . S
C932 C951 1.429 . S
C932 H956 0.950 1_565 S
C933 C950 1.574 1_565 S
C933 C952 1.368 . S
C933 H957 0.949 . S
H934 C938 0.949 . S
C935 C936 1.349 . S
C935 C937 1.327 . S
C935 H958 0.950 . S
C936 C935 1.349 . S
C936 C948 1.349 . S
C937 C935 1.327 . S
C937 C953 1.429 . S
C937 H959 0.950 . S
C938 H934 0.949 . S
C938 C946 1.574 . S
C938 C954 1.368 . S
H939 C947 0.950 . S
H940 C945 0.950 . S
H941 C946 0.949 . S
H942 C948 0.950 . S
H943 C949 0.950 . S
H944 C950 0.949 1_565 S
C945 H940 0.950 . S
C945 C947 1.327 . S
C945 C951 1.429 . S
C946 C938 1.574 . S
C946 H941 0.949 . S
C946 C952 1.368 1_545 S
C947 C931 1.349 . S
C947 H939 0.950 . S
C947 C945 1.327 . S
C948 C936 1.349 . S
C948 H942 0.950 . S
C948 C949 1.327 . S
C949 H943 0.950 . S
C949 C948 1.327 . S
C949 C953 1.429 . S
C950 C933 1.574 1_545 S
C950 H944 0.949 1_545 S
C950 C954 1.368 . S
C951 C932 1.429 . S
C951 C945 1.429 . S
C951 C952 1.523 . S
C952 C933 1.368 . S
C952 C946 1.368 1_565 S
C952 C951 1.523 . S
C953 C937 1.429 . S
C953 C949 1.429 . S
C953 C954 1.523 . S
C954 C938 1.368 . S
C954 C950 1.368 . S
C954 C953 1.523 . S
H955 C930 0.950 . S
H956 C932 0.950 1_545 S
H957 C933 0.949 . S
H958 C935 0.950 . S
H959 C937 0.950 . S
C960 C961 1.349 . S
C960 C962 1.327 . S
C960 H985 0.950 . S
C961 C960 1.349 . S
C961 C977 1.349 . S
C962 C960 1.327 . S
C962 C981 1.429 . S
C962 H986 0.950 1_655 S
C963 C980 1.574 . S
C963 C982 1.368 . S
C963 H987 0.949 . S
H964 C968 0.949 . S
C965 C966 1.349 . S
C965 C967 1.327 . S
C965 H988 0.950 . S
C966 C965 1.349 . S
C966 C978 1.349 . S
C967 C965 1.327 . S
C967 C983 1.429 . S
C967 H989 0.950 . S
C968 H964 0.949 . S
C968 C976 1.574 . S
C968 C984 1.368 . S
H969 C977 0.950 . S
H970 C975 0.950 . S
H971 C976 0.949 . S
H972 C978 0.950 . S
H973 C979 0.950 . S
H974 C980 0.949 . S
C975 H970 0.950 . S
C975 C977 1.327 . S
C975 C981 1.429 . S
C976 C968 1.574 . S
C976 H971 0.949 . S
C976 C982 1.368 1_455 S
C977 C961 1.349 . S
C977 H969 0.950 . S
C977 C975 1.327 . S
C978 C966 1.349 . S
C978 H972 0.950 . S
C978 C979 1.327 . S
C979 H973 0.950 . S
C979 C978 1.327 . S
C979 C983 1.429 . S
C980 C963 1.574 . S
C980 H974 0.949 . S
C980 C984 1.368 1_655 S
C981 C962 1.429 . S
C981 C975 1.429 . S
C981 C982 1.523 . S
C982 C963 1.368 . S
C982 C976 1.368 1_655 S
C982 C981 1.523 . S
C983 C967 1.429 . S
C983 C979 1.429 . S
C983 C984 1.523 . S
C984 C968 1.368 . S
C984 C980 1.368 1_455 S
C984 C983 1.523 . S
H985 C960 0.950 . S
H986 C962 0.950 1_455 S
H987 C963 0.949 . S
H988 C965 0.950 . S
H989 C967 0.950 . S
C181 C28 1.688 . S
C186 C19 1.788 . S
C211 C46 0.763 . S
C216 C36 0.766 . S
C241 C59 1.496 . S
C246 C6 1.439 . S
C271 C56 1.019 . S
C276 C26 0.981 . S
C301 C48 1.218 . S
C306 C16 1.311 . S
C331 C8 1.893 . S
C336 C39 2.023 1_556 S
C361 C79 0.993 . S
C366 C86 0.971 . S
C391 C106 1.522 . S
C396 C99 1.543 . S
C421 C119 1.569 . S
C426 C66 1.513 . S
C451 C88 1.676 . S
C456 C116 1.815 . S
C481 C108 1.144 . S
C486 C76 1.229 . S
C511 C96 1.267 . S
C516 C68 1.150 . S
C541 C148 1.665 . S
C546 C139 1.759 . S
C571 C156 0.769 . S
C576 C166 0.766 . S
C601 C179 1.487 . S
C606 C126 1.434 . S
C631 C176 0.982 . S
C636 C146 0.949 . S
C661 C168 1.209 . S
C666 C136 1.298 . S
C691 C128 1.893 . S
C696 C159 2.019 . S
C721 C109 2.218 . S
C726 C1 2.279 . S
C751 C69 2.300 . S
C756 C29 2.306 . S
C781 C41 2.299 . S
C786 C89 2.219 . S
C811 C49 2.231 . S
C816 C121 2.279 . S
C841 C9 2.240 . S
C846 C149 2.252 . S
C871 C161 2.269 . S
C876 C21 2.262 . S
C901 C61 2.282 . S
C906 C169 2.221 . S
C931 C81 2.297 . S
C936 C129 2.215 . S
C961 C141 2.204 . S
C966 C101 2.209 . S
