# Generated by pormake.
# Topology sof, (5)-cn, num edge types: 1
# Building blocks:
#     Node 0, Type 0, BuildingBlock: XOMCOT_clean_sbu_1, # of connection points: 5
#     Node 1, Type 0, BuildingBlock: XOMCOT_clean_sbu_1, # of connection points: 5
#     Node 2, Type 0, BuildingBlock: XOMCOT_clean_sbu_1, # of connection points: 5
#     Node 3, Type 0, BuildingBlock: XOMCOT_clean_sbu_1, # of connection points: 5
#     Node 4, Type 0, BuildingBlock: XOMCOT_clean_sbu_1, # of connection points: 5
#     Node 5, Type 0, BuildingBlock: XOMCOT_clean_sbu_1, # of connection points: 5
#     Node 6, Type 0, BuildingBlock: XOMCOT_clean_sbu_1, # of connection points: 5
#     Node 7, Type 0, BuildingBlock: XOMCOT_clean_sbu_1, # of connection points: 5
#     Edge 8, Type (0, 0), BuildingBlock: EZIPEK_clean_linker_0, # of connection points: 2
#     Edge 9, Type (0, 0), BuildingBlock: EZIPEK_clean_linker_0, # of connection points: 2
#     Edge 10, Type (0, 0), BuildingBlock: EZIPEK_clean_linker_0, # of connection points: 2
#     Edge 11, Type (0, 0), BuildingBlock: EZIPEK_clean_linker_0, # of connection points: 2
#     Edge 12, Type (0, 0), BuildingBlock: EZIPEK_clean_linker_0, # of connection points: 2
#     Edge 13, Type (0, 0), BuildingBlock: EZIPEK_clean_linker_0, # of connection points: 2
#     Edge 14, Type (0, 0), BuildingBlock: EZIPEK_clean_linker_0, # of connection points: 2
#     Edge 15, Type (0, 0), BuildingBlock: EZIPEK_clean_linker_0, # of connection points: 2
#     Edge 16, Type (0, 0), BuildingBlock: EZIPEK_clean_linker_0, # of connection points: 2
#     Edge 17, Type (0, 0), BuildingBlock: EZIPEK_clean_linker_0, # of connection points: 2
#     Edge 18, Type (0, 0), BuildingBlock: EZIPEK_clean_linker_0, # of connection points: 2
#     Edge 19, Type (0, 0), BuildingBlock: EZIPEK_clean_linker_0, # of connection points: 2
#     Edge 20, Type (0, 0), BuildingBlock: EZIPEK_clean_linker_0, # of connection points: 2
#     Edge 21, Type (0, 0), BuildingBlock: EZIPEK_clean_linker_0, # of connection points: 2
#     Edge 22, Type (0, 0), BuildingBlock: EZIPEK_clean_linker_0, # of connection points: 2
#     Edge 23, Type (0, 0), BuildingBlock: EZIPEK_clean_linker_0, # of connection points: 2
#     Edge 24, Type (0, 0), BuildingBlock: EZIPEK_clean_linker_0, # of connection points: 2
#     Edge 25, Type (0, 0), BuildingBlock: EZIPEK_clean_linker_0, # of connection points: 2
#     Edge 26, Type (0, 0), BuildingBlock: EZIPEK_clean_linker_0, # of connection points: 2
#     Edge 27, Type (0, 0), BuildingBlock: EZIPEK_clean_linker_0, # of connection points: 2
# Relax obj value: 0.155
# Max RMSD: 0.159
# Mean RMSD: 0.159
data_MOF--net-sof--node1-XOMCOT_clean_sbu_1--edge1-EZIPEK_clean_linker_0
_symmetry_space_group_name_H-M    P1
_symmetry_Int_Tables_number       1
_symmetry_cell_setting            triclinic
loop_
_symmetry_equiv_pos_as_xyz
'x, y, z'
_cell_length_a     44.207482
_cell_length_b     13.250969
_cell_length_c     35.959517
_cell_angle_alpha  90.035126
_cell_angle_beta   90.250947
_cell_angle_gamma 89.798553
loop_
_atom_site_label
_atom_site_type_symbol
_atom_site_fract_x
_atom_site_fract_y
_atom_site_fract_z
_atom_type_partial_charge
C0 C 0.10008 0.22205 0.08079 0.0
C1 C 0.09982 0.32606 0.07875 0.0
N2 N 0.07406 0.35915 0.09443 0.0
N3 N 0.07483 0.19099 0.09836 0.0
C4 C 0.05912 0.27624 0.10529 0.0
H5 H 0.11832 0.17297 0.07209 0.0
Co6 Co 0.06503 0.06344 0.1159 0.0
C7 C 0.05172 0.10217 0.19627 0.0
O8 O 0.06724 1.01986 0.20387 0.0
N9 N 0.05413 0.93343 0.13286 0.0
C10 C 0.02542 0.80676 0.15341 0.0
C11 C 0.02885 0.90999 0.15214 0.0
C12 C 0.0652 0.84268 0.12209 0.0
N13 N 0.04845 0.76533 0.13454 0.0
O14 O 0.02663 0.07226 0.09105 0.0
H15 H 0.01272 0.96453 0.16253 0.0
H16 H 0.08364 0.83178 0.10305 0.0
O17 O 0.04904 0.12754 0.16204 0.0
C18 C 0.02931 0.03136 0.05903 0.0
O19 O 0.05574 0.99434 0.04936 0.0
N20 N 0.10438 0.05156 0.13603 0.0
C21 C 0.16633 0.03436 0.15004 0.0
C22 C 0.14868 0.10347 0.17013 0.0
C23 C 0.11762 0.11165 0.16244 0.0
C24 C 0.12185 0.98897 0.11505 0.0
C25 C 0.15243 0.97578 0.12259 0.0
H26 H 0.10486 0.17041 0.17608 0.0
H27 H 0.11254 0.95478 0.09036 0.0
H28 H 0.03779 0.27827 0.11969 0.0
H29 H 0.11779 0.37379 0.06855 0.0
H30 H 0.00684 0.76556 0.1656 0.0
H31 H 0.15904 0.15343 0.19031 0.0
H32 H 0.16564 0.92554 0.10521 0.0
C33 C 0.36908 0.80537 0.08445 0.0
C34 C 0.37065 0.70137 0.08183 0.0
N35 N 0.39597 0.67061 0.09944 0.0
N36 N 0.39274 0.83887 0.10487 0.0
C37 C 0.40927 0.7554 0.112 0.0
H38 H 0.35073 0.85258 0.07455 0.0
Co39 Co 0.40009 0.968 0.12447 0.0
C40 C 0.40768 0.89247 0.20495 0.0
O41 O 0.38047 0.92388 0.21371 0.0
N42 N 0.40837 0.09886 0.14327 0.0
C43 C 0.40841 0.23515 0.17878 0.0
C44 C 0.40345 0.13372 0.1778 0.0
C45 C 0.41615 0.18234 0.12374 0.0
N46 N 0.41768 0.2673 0.14501 0.0
O47 O 0.43931 0.96549 0.10199 0.0
H48 H 0.39353 0.092 0.20007 0.0
H49 H 0.41771 0.1813 0.09387 0.0
O50 O 0.41747 0.90548 0.17166 0.0
C51 C 0.43715 0.9938 0.06814 0.0
O52 O 0.41017 1.01454 0.0546 0.0
N53 N 0.35938 0.97542 0.14237 0.0
C54 C 0.29696 0.99462 0.15332 0.0
C55 C 0.31178 0.90335 0.16111 0.0
C56 C 0.34305 0.89535 0.15547 0.0
C57 C 0.34473 0.06358 0.1339 0.0
C58 C 0.314 0.07609 0.14063 0.0
H59 H 0.35397 0.82372 0.16054 0.0
H60 H 0.35639 0.12416 0.12008 0.0
H61 H 0.42992 0.75562 0.12786 0.0
H62 H 0.35378 0.65196 0.06982 0.0
H63 H 0.40231 0.28177 0.20222 0.0
H64 H 0.29915 0.83802 0.17019 0.0
H65 H 0.30316 0.1469 0.13336 0.0
C66 C 0.10903 0.30815 0.43431 0.0
C67 C 0.10886 0.20464 0.43874 0.0
N68 N 0.08691 0.16685 0.41679 0.0
N69 N 0.0873 0.3347 0.40965 0.0
C70 C 0.07366 0.24707 0.4005 0.0
H71 H 0.12462 0.36017 0.44731 0.0
Co72 Co 0.07835 0.46272 0.3906 0.0
C73 C 0.06723 0.40802 0.30841 0.0
O74 O 0.08155 0.48741 0.29559 0.0
N75 N 0.06861 0.59226 0.37269 0.0
C76 C 0.0444 0.72409 0.34762 0.0
C77 C 0.04683 0.62018 0.34818 0.0
C78 C 0.07817 0.68038 0.38759 0.0
N79 N 0.06412 0.76091 0.37265 0.0
O80 O 0.03897 0.45622 0.41213 0.0
H81 H 0.03239 0.56863 0.33312 0.0
H82 H 0.09385 0.68661 0.41051 0.0
O83 O 0.06442 0.39607 0.34364 0.0
C84 C 0.04172 0.48196 0.44627 0.0
O85 O 0.06895 0.49958 0.4595 0.0
N86 N 0.11861 0.47558 0.37435 0.0
C87 C 0.18061 0.50838 0.36723 0.0
C88 C 0.16527 0.44649 0.34182 0.0
C89 C 0.13408 0.43142 0.34574 0.0
C90 C 0.13376 0.53209 0.39994 0.0
C91 C 0.1643 0.55312 0.39609 0.0
H92 H 0.12321 0.38168 0.32647 0.0
H93 H 0.12225 0.55775 0.4246 0.0
H94 H 0.055 0.24115 0.38106 0.0
H95 H 0.12462 0.16017 0.45508 0.0
H96 H 0.0287 0.76883 0.33131 0.0
H97 H 0.17741 0.40835 0.31978 0.0
H98 H 0.17555 0.59888 0.41693 0.0
C99 C 0.38222 0.7323 0.45465 0.0
C100 C 0.38223 0.83547 0.46029 0.0
N101 N 0.40502 0.87523 0.44039 0.0
N102 N 0.40474 0.70771 0.43105 0.0
C103 C 0.41903 0.79584 0.4244 0.0
H104 H 0.36583 0.67939 0.46531 0.0
Co105 Co 0.41308 0.58074 0.41001 0.0
C106 C 0.41886 0.64835 0.329 0.0
O107 O 0.39889 0.58064 0.31869 0.0
N108 N 0.42262 0.45034 0.39134 0.0
C109 C 0.43665 0.3112 0.36068 0.0
C110 C 0.43454 0.41521 0.35925 0.0
C111 C 0.41932 0.36628 0.41236 0.0
N112 N 0.42695 0.28117 0.39422 0.0
O113 O 0.45261 0.58404 0.43266 0.0
H114 H 0.44151 0.46087 0.3362 0.0
H115 H 0.40985 0.36685 0.44005 0.0
O116 O 0.42761 0.65167 0.36324 0.0
C117 C 0.45149 0.5536 0.4664 0.0
O118 O 0.42506 0.53066 0.4806 0.0
N119 N 0.37237 0.57265 0.39105 0.0
C120 C 0.31064 0.55801 0.37395 0.0
C121 C 0.32619 0.64837 0.36803 0.0
C122 C 0.35713 0.65363 0.37637 0.0
C123 C 0.35684 0.48548 0.39761 0.0
C124 C 0.32667 0.47499 0.3876 0.0
H125 H 0.36823 0.72463 0.37296 0.0
H126 H 0.36668 0.42451 0.41285 0.0
H127 H 0.43832 0.80292 0.40616 0.0
H128 H 0.36553 0.87864 0.47551 0.0
H129 H 0.44419 0.26144 0.33868 0.0
H130 H 0.31432 0.71512 0.35837 0.0
H131 H 0.31521 0.40465 0.39354 0.0
C132 C 0.86701 0.81841 0.93092 0.0
C133 C 0.86692 0.71526 0.93644 0.0
N134 N 0.89046 0.67535 0.91778 0.0
N135 N 0.89036 0.84276 0.90865 0.0
C136 C 0.90487 0.7545 0.90247 0.0
H137 H 0.85035 0.87164 0.94102 0.0
Co138 Co 0.90016 0.96959 0.88912 0.0
C139 C 0.90848 0.89558 0.80811 0.0
O140 O 0.88687 0.95408 0.79503 0.0
N141 N 0.91092 0.09958 0.87156 0.0
C142 C 0.92202 0.23881 0.83958 0.0
C143 C 0.91979 0.135 0.83813 0.0
C144 C 0.90947 0.18323 0.89324 0.0
N145 N 0.91529 0.26859 0.87431 0.0
O146 O 0.93901 0.96032 0.91283 0.0
H147 H 0.92378 0.08997 0.81382 0.0
H148 H 0.90217 0.1824 0.92192 0.0
O149 O 0.91565 0.89968 0.84285 0.0
C150 C 0.93638 0.98705 0.94683 0.0
O151 O 0.90939 1.00996 0.95952 0.0
N152 N 0.86008 0.98389 0.86964 0.0
C153 C 0.79801 1.0075 0.85648 0.0
C154 C 0.81297 0.91906 0.84553 0.0
C155 C 0.8441 0.90887 0.85235 0.0
C156 C 0.84527 0.06932 0.88073 0.0
C157 C 0.81478 0.08447 0.87305 0.0
H158 H 0.85478 0.83831 0.84582 0.0
H159 H 0.85614 0.12386 0.8982 0.0
H160 H 0.92485 0.74734 0.88538 0.0
H161 H 0.84987 0.67224 0.95094 0.0
H162 H 0.92684 0.28888 0.8166 0.0
H163 H 0.80047 0.85666 0.83362 0.0
H164 H 0.80375 0.15239 0.88305 0.0
C165 C 0.60367 0.23782 0.93819 0.0
C166 C 0.60382 0.34168 0.94116 0.0
N167 N 0.57782 0.37676 0.92642 0.0
N168 N 0.57797 0.20887 0.92085 0.0
C169 C 0.56239 0.2951 0.91505 0.0
H170 H 0.62189 0.18735 0.94602 0.0
Co171 Co 0.5674 0.0818 0.90318 0.0
C172 C 0.55533 0.12676 0.82284 0.0
O173 O 0.57186 0.04709 0.81468 0.0
N174 N 0.55572 0.9514 0.88682 0.0
C175 C 0.53186 0.81977 0.86122 0.0
C176 C 0.53475 0.92334 0.86124 0.0
C177 C 0.56342 0.86356 0.90365 0.0
N178 N 0.5501 0.7831 0.88791 0.0
O179 O 0.5294 0.09212 0.92813 0.0
H180 H 0.52128 0.97436 0.84458 0.0
H181 H 0.5773 0.85776 0.92832 0.0
O182 O 0.55104 0.14753 0.85723 0.0
C183 C 0.53224 0.05604 0.96089 0.0
O184 O 0.55912 0.02601 0.97211 0.0
N185 N 0.60657 0.06842 0.8819 0.0
C186 C 0.66776 0.05044 0.86368 0.0
C187 C 0.65031 0.12982 0.84917 0.0
C188 C 0.61966 0.13768 0.85874 0.0
C189 C 0.62393 0.99399 0.89721 0.0
C190 C 0.65399 0.98081 0.88724 0.0
H191 H 0.60702 0.20268 0.84927 0.0
H192 H 0.61549 0.94919 0.91961 0.0
H193 H 0.54073 0.29872 0.90124 0.0
H194 H 0.62219 0.38806 0.95135 0.0
H195 H 0.51723 0.77504 0.84355 0.0
H196 H 0.66058 0.18745 0.83206 0.0
H197 H 0.66713 0.92141 0.90037 0.0
C198 C 0.88101 0.71534 0.58877 0.0
C199 C 0.88088 0.81945 0.58722 0.0
N200 N 0.90753 0.85214 0.60075 0.0
N201 N 0.90742 0.68385 0.60388 0.0
C202 C 0.92329 0.76899 0.60995 0.0
H203 H 0.8624 0.66632 0.58144 0.0
Co204 Co 0.91893 0.55569 0.61971 0.0
C205 C 0.93566 0.59431 0.69915 0.0
O206 O 0.9214 0.51041 0.70745 0.0
N207 N 0.93167 0.42509 0.63487 0.0
C208 C 0.96042 0.2984 0.65638 0.0
C209 C 0.95708 0.4017 0.65431 0.0
C210 C 0.92111 0.33419 0.62363 0.0
N211 N 0.93773 0.25691 0.63687 0.0
O212 O 0.95536 0.56599 0.59155 0.0
H213 H 0.97294 0.45618 0.66524 0.0
H214 H 0.90275 0.32305 0.60432 0.0
O215 O 0.93726 0.61922 0.66478 0.0
C216 C 0.94947 0.53605 0.55849 0.0
O217 O 0.92147 0.5117 0.55002 0.0
N218 N 0.88112 0.54214 0.64336 0.0
C219 C 0.82021 0.52681 0.66225 0.0
C220 C 0.83869 0.59838 0.67978 0.0
C221 C 0.8692 0.60548 0.66967 0.0
C222 C 0.86279 0.4761 0.62514 0.0
C223 C 0.8328 0.46361 0.6353 0.0
H224 H 0.88238 0.66676 0.68096 0.0
H225 H 0.87052 0.43971 0.60019 0.0
H226 H 0.94558 0.77058 0.62226 0.0
H227 H 0.86224 0.86745 0.57871 0.0
H228 H 0.97858 0.2571 0.66982 0.0
H229 H 0.82924 0.65185 0.69937 0.0
H230 H 0.81876 0.41152 0.61973 0.0
C231 C 0.62056 0.33638 0.58715 0.0
C232 C 0.62075 0.23309 0.58187 0.0
N233 N 0.59703 0.19398 0.60024 0.0
N234 N 0.59705 0.36164 0.60915 0.0
C235 C 0.58245 0.27375 0.61516 0.0
H236 H 0.63746 0.38893 0.57747 0.0
Co237 Co 0.58797 0.4889 0.62941 0.0
C238 C 0.57828 0.41853 0.70981 0.0
O239 O 0.5995 0.47942 0.72203 0.0
N240 N 0.57776 0.61897 0.64736 0.0
C241 C 0.56218 0.75708 0.67742 0.0
C242 C 0.56445 0.65307 0.67874 0.0
C243 C 0.58174 0.70335 0.62674 0.0
N244 N 0.57319 0.78792 0.64459 0.0
O245 O 0.54946 0.48595 0.60427 0.0
H246 H 0.5565 0.60644 0.70108 0.0
H247 H 0.59232 0.70341 0.59967 0.0
O248 O 0.57107 0.41936 0.67502 0.0
C249 C 0.55172 0.51642 0.57063 0.0
O250 O 0.57862 0.53882 0.55769 0.0
N251 N 0.62786 0.49667 0.65089 0.0
C252 C 0.68969 0.50678 0.66767 0.0
C253 C 0.67348 0.4182 0.67437 0.0
C254 C 0.64249 0.41515 0.6661 0.0
C255 C 0.64385 0.58312 0.64467 0.0
C256 C 0.67418 0.59119 0.65434 0.0
H257 H 0.63094 0.34495 0.66956 0.0
H258 H 0.6344 0.64487 0.62948 0.0
H259 H 0.56233 0.26729 0.632 0.0
H260 H 0.63806 0.18944 0.56791 0.0
H261 H 0.55359 0.80628 0.69901 0.0
H262 H 0.68495 0.35059 0.68392 0.0
H263 H 0.6862 0.66011 0.64786 0.0
C264 C 0.21453 0.99615 0.18597 0.0
C265 C 0.19991 0.0319 0.15326 0.0
C266 C 0.248 0.02735 0.12013 0.0
C267 C 0.26334 1.00289 0.1537 0.0
N268 N 0.2617 0.98229 0.22037 0.0
N269 N 0.20448 0.10917 0.09273 0.0
C270 C 0.24676 0.99246 0.18725 0.0
C271 C 0.21724 0.05629 0.12145 0.0
N272 N 0.19777 0.96235 0.21522 0.0
N273 N 0.26239 1.01881 0.0867 0.0
H274 H 0.18221 0.13551 0.09331 0.0
H275 H 0.21698 0.13638 0.07039 0.0
H276 H 0.28451 0.99214 0.08417 0.0
H277 H 0.25122 0.02712 0.06129 0.0
H278 H 0.20722 0.92563 0.23812 0.0
H279 H 0.17419 0.96361 0.21524 0.0
H280 H 0.25082 0.98446 0.246 0.0
H281 H 0.28523 0.9807 0.22243 0.0
C282 C 0.26072 0.52257 0.40328 0.0
C283 C 0.2771 0.55205 0.37128 0.0
C284 C 0.22945 0.56217 0.33629 0.0
C285 C 0.21411 0.51816 0.36689 0.0
N286 N 0.21782 0.42928 0.42548 0.0
N287 N 0.27751 0.58317 0.30508 0.0
C288 C 0.23058 0.48996 0.39918 0.0
C289 C 0.26163 0.56733 0.33703 0.0
N290 N 0.27358 0.5287 0.43784 0.0
N291 N 0.21342 0.6023 0.30727 0.0
H292 H 0.30107 0.58554 0.3044 0.0
H293 H 0.26738 0.58486 0.27887 0.0
H294 H 0.18985 0.60205 0.30612 0.0
H295 H 0.22345 0.64397 0.2861 0.0
H296 H 0.26146 0.51564 0.46217 0.0
H297 H 0.29513 0.55823 0.44239 0.0
H298 H 0.23002 0.40028 0.44796 0.0
H299 H 0.19624 0.39855 0.42253 0.0
C300 C 0.74739 1.02036 0.82326 0.0
C301 C 0.76441 1.01475 0.8568 0.0
C302 C 0.71912 0.05533 0.89249 0.0
C303 C 0.70125 0.04736 0.8598 0.0
N304 N 0.69779 1.00863 0.79434 0.0
N305 N 0.76453 1.00007 0.92381 0.0
C306 C 0.7152 0.02631 0.82511 0.0
C307 C 0.74968 0.02425 0.89158 0.0
N308 N 0.76192 0.02298 0.78984 0.0
N309 N 0.70709 0.09508 0.92427 0.0
H310 H 0.78661 0.97201 0.92433 0.0
H311 H 0.75378 0.99706 0.94953 0.0
H312 H 0.68502 0.123 0.92565 0.0
H313 H 0.72005 0.11062 0.94787 0.0
H314 H 0.75087 0.03746 0.76475 0.0
H315 H 0.7854 1.01873 0.78753 0.0
H316 H 0.7066 0.9827 0.76926 0.0
H317 H 0.67423 1.01244 0.79469 0.0
C318 C 0.74023 0.49766 0.70119 0.0
C319 C 0.7233 0.50788 0.66773 0.0
C320 C 0.76921 0.5527 0.63431 0.0
C321 C 0.78679 0.52904 0.66618 0.0
N322 N 0.7895 0.46612 0.72906 0.0
N323 N 0.72333 0.51708 0.60055 0.0
C324 C 0.77246 0.49808 0.69954 0.0
C325 C 0.7383 0.52708 0.6337 0.0
N326 N 0.72563 0.49054 0.73447 0.0
N327 N 0.78191 0.6018 0.60485 0.0
H328 H 0.70096 0.49276 0.59862 0.0
H329 H 0.73418 0.52166 0.57493 0.0
H330 H 0.80435 0.62592 0.60486 0.0
H331 H 0.76925 0.62843 0.58235 0.0
H332 H 0.73679 0.49309 0.76003 0.0
H333 H 0.70211 0.49021 0.73662 0.0
H334 H 0.78026 0.43284 0.75264 0.0
H335 H 0.8131 0.46599 0.7288 0.0
C336 C 0.98085 0.9547 0.03609 0.0
C337 C 0.00415 0.0269 0.03157 0.0
C338 C 0.98464 0.06824 0.96912 0.0
C339 C 0.9624 0.99196 0.97301 0.0
N340 N 0.94293 0.84929 1.00649 0.0
N341 N 0.03012 0.14786 0.9933 0.0
C342 C 0.96154 0.93151 1.00552 0.0
C343 C 0.00662 0.08213 0.99783 0.0
N344 N 0.97694 0.90907 0.06977 0.0
N345 N 0.98398 0.13009 0.93873 0.0
H346 H 0.04502 0.16667 0.01478 0.0
H347 H 0.03571 0.18095 0.96803 0.0
H348 H 0.96909 0.11974 0.91653 0.0
H349 H -0.00283 0.19451 0.93608 0.0
H350 H 0.95859 0.86331 0.0761 0.0
H351 H 0.99076 0.92384 0.09259 0.0
H352 H 0.94333 0.79571 0.02765 0.0
H353 H 0.92903 0.829 0.9842 0.0
C354 C 0.48696 0.07296 0.05028 0.0
C355 C 0.4636 1.00228 0.04292 0.0
C356 C 0.48331 0.97477 0.9798 0.0
C357 C 0.50646 0.04614 0.98698 0.0
N358 N 0.52771 0.17598 0.02577 0.0
N359 N 0.44347 0.86908 1.00472 0.0
C360 C 0.50772 0.09814 0.0215 0.0
C361 C 0.46277 0.94899 1.00864 0.0
N362 N 0.48974 0.11433 0.08496 0.0
N363 N 0.48058 0.93303 0.94518 0.0
H364 H 0.42912 0.84535 0.02594 0.0
H365 H 0.44361 0.81986 0.98218 0.0
H366 H 0.49564 0.94755 0.92371 0.0
H367 H 0.46227 0.88949 0.93669 0.0
H368 H 0.50807 0.15767 0.09352 0.0
H369 H 0.47474 0.09991 0.1065 0.0
H370 H 0.52802 0.22457 0.04849 0.0
H371 H 0.54251 0.1983 1.00481 0.0
C372 C -0.00317 0.41659 0.48156 0.0
C373 C 0.01544 0.49877 0.47125 0.0
C374 C 0.98953 0.60791 0.51674 0.0
C375 C 0.97324 0.52316 0.52974 0.0
N376 N 0.96315 0.34443 0.52742 0.0
N377 N 0.03075 0.67223 0.47963 0.0
C378 C 0.97716 0.427 0.51266 0.0
C379 C 0.01211 0.59428 0.48906 0.0
N380 N -0.00176 0.32811 0.462 0.0
N381 N 0.98232 0.70232 0.5294 0.0
H382 H 0.04539 0.66937 0.45702 0.0
H383 H 0.03261 0.73852 0.49501 0.0
H384 H 0.96596 0.71544 0.54963 0.0
H385 H 0.99069 0.76859 0.51789 0.0
H386 H 0.98295 0.26926 0.46514 0.0
H387 H 0.01344 0.31546 0.44045 0.0
H388 H 0.96695 0.27076 0.51859 0.0
H389 H 0.94941 0.34801 0.55086 0.0
C390 C 0.49452 0.63097 0.50238 0.0
C391 C 0.47892 0.54329 0.49041 0.0
C392 C 0.50966 0.43865 0.53314 0.0
C393 C 0.52503 0.52645 0.54539 0.0
N394 N 0.53467 0.70485 0.5394 0.0
N395 N 0.46971 0.36459 0.49586 0.0
C396 C 0.51816 0.62216 0.52928 0.0
C397 C 0.48603 0.44744 0.50623 0.0
N398 N 0.48532 0.72367 0.48986 0.0
N399 N 0.51903 0.34589 0.54541 0.0
H400 H 0.45458 0.36548 0.4737 0.0
H401 H 0.4702 0.2958 0.50977 0.0
H402 H 0.5359 0.33617 0.56538 0.0
H403 H 0.51166 0.27769 0.53436 0.0
H404 H 0.49275 0.7919 0.50083 0.0
H405 H 0.46866 0.73332 0.46964 0.0
H406 H 0.53423 0.77343 0.52535 0.0
H407 H 0.55001 0.70407 0.56136 0.0
C408 C 0.04043 0.35245 0.24897 0.0
C409 C 0.05723 0.32708 0.28168 0.0
C410 C 0.05362 0.14882 0.26396 0.0
C411 C 0.04486 0.17558 0.22749 0.0
N412 N 0.0194 0.29858 0.18939 0.0
N413 N 0.08476 0.19692 0.31529 0.0
C414 C 0.03513 0.27667 0.22106 0.0
C415 C 0.06475 0.22407 0.28818 0.0
N416 N 0.02869 0.44756 0.24535 0.0
N417 N 0.05059 0.05176 0.27604 0.0
H418 H 0.09564 0.24833 0.33238 0.0
H419 H 0.0932 0.12363 0.3174 0.0
H420 H 0.03956 0.99707 0.26011 0.0
H421 H 0.055 0.03039 0.30347 0.0
H422 H 0.01525 0.47131 0.22322 0.0
H423 H 0.03076 0.50232 0.26602 0.0
H424 H 0.01521 0.37131 0.17975 0.0
H425 H 0.00939 0.24205 0.17339 0.0
C426 C 0.44242 0.6912 0.26686 0.0
C427 C 0.42863 0.72486 0.30038 0.0
C428 C 0.42207 0.89151 0.27147 0.0
C429 C 0.42624 0.84824 0.23613 0.0
N430 N 0.45167 0.72073 0.20087 0.0
N431 N 0.40648 0.86419 0.33424 0.0
C432 C 0.44018 0.7521 0.23394 0.0
C433 C 0.41967 0.82797 0.30296 0.0
N434 N 0.45844 0.60306 0.26717 0.0
N435 N 0.41993 0.99394 0.27454 0.0
H436 H 0.40444 0.82113 0.35785 0.0
H437 H 0.39588 0.93434 0.33555 0.0
H438 H 0.42257 0.0407 0.25145 0.0
H439 H 0.41933 0.03177 0.29995 0.0
H440 H 0.47105 0.57662 0.24482 0.0
H441 H 0.46133 0.56106 0.29141 0.0
H442 H 0.45917 0.64767 0.19553 0.0
H443 H 0.45517 0.77182 0.17938 0.0
C444 C 0.92076 0.71406 0.79062 0.0
C445 C 0.92264 0.8189 0.78243 0.0
C446 C 0.9464 0.77411 0.7223 0.0
C447 C 0.94095 0.67062 0.72976 0.0
N448 N 0.94113 0.5478 0.77887 0.0
N449 N 0.93906 0.94968 0.7404 0.0
C450 C 0.93425 0.64263 0.7666 0.0
C451 C 0.93633 0.84933 0.74829 0.0
N452 N 0.90294 0.68045 0.81866 0.0
N453 N 0.96356 0.79901 0.69228 0.0
H454 H 0.93383 1.00603 0.75951 0.0
H455 H 0.94554 0.9778 0.71465 0.0
H456 H 0.97482 0.74394 0.67681 0.0
H457 H 0.96973 0.87219 0.68528 0.0
H458 H 0.89855 0.60413 0.82284 0.0
H459 H 0.88931 0.72846 0.83394 0.0
H460 H 0.93858 0.52586 0.80654 0.0
H461 H 0.95315 0.49663 0.76244 0.0
C462 C 0.55315 0.16983 0.75519 0.0
C463 C 0.5484 0.2011 0.79211 0.0
C464 C 0.55241 0.37795 0.77149 0.0
C465 C 0.56448 0.34433 0.73674 0.0
N466 N 0.58145 0.20176 0.70023 0.0
N467 N 0.52727 0.33307 0.82946 0.0
C468 C 0.5654 0.23869 0.72935 0.0
C469 C 0.54333 0.30522 0.79883 0.0
N470 N 0.54588 0.07378 0.74481 0.0
N471 N 0.55015 0.47896 0.7786 0.0
H472 H 0.51599 0.27968 0.84549 0.0
H473 H 0.5216 0.40706 0.8362 0.0
H474 H 0.55438 0.53374 0.75859 0.0
H475 H 0.54499 0.50915 0.80452 0.0
H476 H 0.54671 0.04903 0.71729 0.0
H477 H 0.53533 0.02392 0.76309 0.0
H478 H 0.58511 0.1249 0.69611 0.0
H479 H 0.59469 0.24758 0.68385 0.0
C480 C 0.04535 0.62621 0.08906 0.0
C481 C 0.05272 0.66065 0.12533 0.0
C482 C 0.07413 0.49534 0.14117 0.0
C483 C 0.06682 0.46106 0.10486 0.0
N484 N 0.0428 0.48516 0.04568 0.0
N485 N 0.07096 0.62965 0.18723 0.0
C486 C 0.05165 0.5243 0.07915 0.0
C487 C 0.06603 0.59519 0.15189 0.0
N488 N 0.03255 0.69197 0.06427 0.0
N489 N 0.08959 0.43262 0.16477 0.0
H490 H 0.06629 0.7038 0.19515 0.0
H491 H 0.0783 0.58485 0.20923 0.0
H492 H 0.09587 0.35939 0.15743 0.0
H493 H 0.0975 0.45333 0.19093 0.0
H494 H 0.02886 0.67599 0.0363 0.0
H495 H 0.02618 0.76512 0.07163 0.0
H496 H 0.02963 0.52354 0.02624 0.0
H497 H 0.04757 0.41084 0.03798 0.0
C498 C 0.41729 0.45114 0.15986 0.0
C499 C 0.4209 0.37289 0.13347 0.0
C500 C 0.41459 0.4987 0.08365 0.0
C501 C 0.40401 0.56919 0.11036 0.0
N502 N 0.39158 0.60646 0.17421 0.0
N503 N 0.4423 0.34293 0.07316 0.0
C504 C 0.40446 0.54385 0.14861 0.0
C505 C 0.42479 0.40144 0.09568 0.0
N506 N 0.42926 0.44093 0.19462 0.0
N507 N 0.41498 0.5251 0.04699 0.0
H508 H 0.4553 0.28406 0.084 0.0
H509 H 0.44773 0.36135 0.04587 0.0
H510 H 0.40938 0.59756 0.03789 0.0
H511 H 0.41927 0.47411 0.0256 0.0
H512 H 0.42811 0.49749 0.21465 0.0
H513 H 0.44363 0.38087 0.20136 0.0
H514 H 0.38926 0.58675 0.20212 0.0
H515 H 0.38041 0.67281 0.16685 0.0
C516 C 0.1025 1.01185 0.38349 0.0
C517 C 0.08172 0.0628 0.40701 0.0
C518 C 0.04888 0.91368 0.40751 0.0
C519 C 0.06909 0.8646 0.38288 0.0
N520 N 0.11272 0.86739 0.34363 0.0
N521 N 0.03482 0.0676 0.44027 0.0
C522 C 0.09537 0.91378 0.37001 0.0
C523 C 0.05474 1.01504 0.41864 0.0
N524 N 0.1289 0.05807 0.37377 0.0
N525 N 0.02465 0.86167 0.42093 0.0
H526 H 0.03962 0.13938 0.45062 0.0
H527 H 0.01329 0.0424 0.4471 0.0
H528 H 0.01962 0.78836 0.41243 0.0
H529 H 0.01031 0.88834 0.4416 0.0
H530 H 0.14668 0.02171 0.36039 0.0
H531 H 0.13359 0.13313 0.38007 0.0
H532 H 0.13072 0.90153 0.33007 0.0
H533 H 0.10772 0.79579 0.33324 0.0
C534 C 0.4367 0.02887 0.44157 0.0
C535 C 0.40956 0.98011 0.43078 0.0
C536 C 0.39296 0.13411 0.39831 0.0
C537 C 0.42122 0.17928 0.40637 0.0
N538 N 0.47101 0.17018 0.43281 0.0
N539 N 0.36327 0.98085 0.39501 0.0
C540 C 0.44341 0.12665 0.42728 0.0
C541 C 0.38788 0.03164 0.40838 0.0
N542 N 0.45548 0.9822 0.46646 0.0
N543 N 0.37093 0.1901 0.38124 0.0
H544 H 0.3594 0.90479 0.40033 0.0
H545 H 0.34816 1.01073 0.37564 0.0
H546 H 0.37452 0.26375 0.3721 0.0
H547 H 0.34861 0.16653 0.37829 0.0
H548 H 0.47457 1.0157 0.47806 0.0
H549 H 0.4504 0.91196 0.47788 0.0
H550 H 0.48934 0.13339 0.44505 0.0
H551 H 0.47608 0.24219 0.42294 0.0
C552 C 0.87462 0.51664 0.88669 0.0
C553 C 0.89578 0.57034 0.90895 0.0
C554 C 0.9306 0.42553 0.90653 0.0
C555 C 0.90868 0.37016 0.88636 0.0
N556 N 0.85812 0.35516 0.86225 0.0
N557 N 0.94175 0.57262 0.94467 0.0
C558 C 0.88011 0.41343 0.87809 0.0
C559 C 0.92322 0.52359 0.9202 0.0
N560 N 0.85039 0.56624 0.87153 0.0
N561 N 0.9587 0.38475 0.91165 0.0
H562 H 0.93649 0.64382 0.9553 0.0
H563 H 0.96091 0.54012 0.95665 0.0
H564 H 0.96437 0.31334 0.90159 0.0
H565 H 0.97682 0.42371 0.9233 0.0
H566 H 0.83595 0.53413 0.8519 0.0
H567 H 0.84641 0.643 0.87545 0.0
H568 H 0.83571 0.37842 0.85934 0.0
H569 H 0.86178 0.28027 0.85455 0.0
C570 C 0.54337 0.63666 0.92941 0.0
C571 C 0.55596 0.67908 0.89684 0.0
C572 C 0.58171 0.51967 0.88291 0.0
C573 C 0.57079 0.47944 0.91677 0.0
N574 N 0.54307 0.49722 0.97352 0.0
N575 N 0.58978 0.66835 0.84487 0.0
C576 C 0.55205 0.53742 0.9404 0.0
C577 C 0.57578 0.62232 0.87407 0.0
N578 N 0.52271 0.69131 0.94917 0.0
N579 N 0.59723 0.45858 0.85899 0.0
H580 H 0.58581 0.74359 0.83781 0.0
H581 H 0.60679 0.63475 0.82919 0.0
H582 H 0.60253 0.38376 0.8652 0.0
H583 H 0.60315 0.47941 0.8321 0.0
H584 H 0.51067 0.66341 0.97171 0.0
H585 H 0.51623 0.76405 0.9414 0.0
H586 H 0.53133 0.53715 0.99379 0.0
H587 H 0.54889 0.42398 0.98157 0.0
C588 C 0.90381 0.99781 0.64321 0.0
C589 C 0.91565 0.95372 0.61043 0.0
C590 C 0.94679 0.10322 0.59976 0.0
C591 C 0.93228 0.15167 0.62993 0.0
N592 N 0.8964 0.14998 0.67981 0.0
N593 N 0.9467 0.96318 0.55604 0.0
C594 C 0.91064 0.10007 0.65159 0.0
C595 C 0.93685 1.006 0.58837 0.0
N596 N 0.88695 0.94037 0.66683 0.0
N597 N 0.97032 0.15006 0.58252 0.0
H598 H 0.93962 0.89189 0.54735 0.0
H599 H 0.96009 1.00035 0.5367 0.0
H600 H 0.97784 0.22144 0.59043 0.0
H601 H 0.98377 0.11583 0.56243 0.0
H602 H 0.88007 0.96442 0.69304 0.0
H603 H 0.88179 0.86504 0.6614 0.0
H604 H 0.87811 0.12081 0.69438 0.0
H605 H 0.90206 0.22354 0.68746 0.0
C606 C 0.6069 0.93598 0.64364 0.0
C607 C 0.57931 0.89005 0.63308 0.0
C608 C 0.56562 0.03998 0.59651 0.0
C609 C 0.59198 0.0893 0.60966 0.0
N610 N 0.63561 0.09048 0.65013 0.0
N611 N 0.53117 0.89785 0.60228 0.0
C612 C 0.61227 0.03858 0.63412 0.0
C613 C 0.55829 0.94208 0.61023 0.0
N614 N 0.6281 0.88057 0.66246 0.0
N615 N 0.54822 0.08629 0.57008 0.0
H616 H 0.52568 0.8258 0.61177 0.0
H617 H 0.51353 0.93407 0.58838 0.0
H618 H 0.55377 0.15676 0.55921 0.0
H619 H 0.52989 0.0524 0.55687 0.0
H620 H 0.65011 0.90515 0.66735 0.0
H621 H 0.62431 0.8065 0.671 0.0
H622 H 0.64923 0.06131 0.67124 0.0
H623 H 0.63971 0.16647 0.64491 0.0
loop_
_geom_bond_atom_site_label_1
_geom_bond_atom_site_label_2
_geom_bond_distance
_geom_bond_site_symmetry_2
_ccdc_geom_bond_type
C0 C1 1.351 . S
C0 N3 1.368 . S
C0 H5 0.931 . S
C1 C0 1.351 . S
C1 N2 1.373 . S
C1 H29 0.930 . S
N2 C1 1.373 . S
N2 C4 1.340 . S
N3 C0 1.368 . S
N3 C4 1.321 . S
N3 Co6 2.135 . S
C4 N2 1.340 . S
C4 N3 1.321 . S
C4 H28 0.930 . S
H5 C0 0.931 . S
Co6 N3 2.135 . S
Co6 N9 2.121 1_545 S
Co6 O14 2.055 . S
Co6 O17 2.039 . S
Co6 N20 2.140 . S
C7 O8 1.227 . S
C7 O17 1.265 . S
O8 C7 1.227 . S
N9 Co6 2.121 1_565 S
N9 C11 1.375 . S
N9 C12 1.313 . S
C10 C11 1.338 . S
C10 N13 1.377 . S
C10 H30 0.930 . S
C11 N9 1.375 . S
C11 C10 1.338 . S
C11 H15 0.931 . S
C12 N9 1.313 . S
C12 N13 1.344 . S
C12 H16 0.930 . S
N13 C10 1.377 . S
N13 C12 1.344 . S
O14 Co6 2.055 . S
O14 C18 1.253 . S
H15 C11 0.931 . S
H16 C12 0.930 . S
O17 Co6 2.039 . S
O17 C7 1.265 . S
C18 O14 1.253 . S
C18 O19 1.227 . S
O19 C18 1.227 . S
N20 Co6 2.140 . S
N20 C23 1.346 . S
N20 C24 1.345 . S
C21 C22 1.387 . S
C21 C25 1.391 1_545 S
C22 C21 1.387 . S
C22 C23 1.369 . S
C22 H31 0.929 . S
C23 N20 1.346 . S
C23 C22 1.369 . S
C23 H26 0.928 . S
C24 N20 1.345 . S
C24 C25 1.371 1_545 S
C24 H27 0.931 1_545 S
C25 C21 1.391 1_565 S
C25 C24 1.371 1_565 S
C25 H32 0.930 . S
H26 C23 0.928 . S
H27 C24 0.931 1_565 S
H28 C4 0.930 . S
H29 C1 0.930 . S
H30 C10 0.930 . S
H31 C22 0.929 . S
H32 C25 0.930 . S
C33 C34 1.351 . S
C33 N36 1.368 . S
C33 H38 0.931 . S
C34 C33 1.351 . S
C34 N35 1.373 . S
C34 H62 0.930 . S
N35 C34 1.373 . S
N35 C37 1.340 . S
N36 C33 1.368 . S
N36 C37 1.321 . S
N36 Co39 2.135 . S
C37 N35 1.340 . S
C37 N36 1.321 . S
C37 H61 0.930 . S
H38 C33 0.931 . S
Co39 N36 2.135 . S
Co39 N42 2.121 1_565 S
Co39 O47 2.055 . S
Co39 O50 2.039 . S
Co39 N53 2.140 . S
C40 O41 1.227 . S
C40 O50 1.265 . S
O41 C40 1.227 . S
N42 Co39 2.121 1_545 S
N42 C44 1.375 . S
N42 C45 1.313 . S
C43 C44 1.338 . S
C43 N46 1.377 . S
C43 H63 0.930 . S
C44 N42 1.375 . S
C44 C43 1.338 . S
C44 H48 0.931 . S
C45 N42 1.313 . S
C45 N46 1.344 . S
C45 H49 0.930 . S
N46 C43 1.377 . S
N46 C45 1.344 . S
O47 Co39 2.055 . S
O47 C51 1.253 . S
H48 C44 0.931 . S
H49 C45 0.930 . S
O50 Co39 2.039 . S
O50 C40 1.265 . S
C51 O47 1.253 . S
C51 O52 1.227 . S
O52 C51 1.227 . S
N53 Co39 2.140 . S
N53 C56 1.346 . S
N53 C57 1.345 . S
C54 C55 1.387 . S
C54 C58 1.391 1_565 S
C55 C54 1.387 . S
C55 C56 1.369 . S
C55 H64 0.929 . S
C56 N53 1.346 . S
C56 C55 1.369 . S
C56 H59 0.928 . S
C57 N53 1.345 . S
C57 C58 1.371 1_565 S
C57 H60 0.931 1_565 S
C58 C54 1.391 1_545 S
C58 C57 1.371 1_545 S
C58 H65 0.930 . S
H59 C56 0.928 . S
H60 C57 0.931 1_545 S
H61 C37 0.930 . S
H62 C34 0.930 . S
H63 C43 0.930 . S
H64 C55 0.929 . S
H65 C58 0.930 . S
C66 C67 1.351 . S
C66 N69 1.368 . S
C66 H71 0.931 . S
C67 C66 1.351 . S
C67 N68 1.373 . S
C67 H95 0.930 . S
N68 C67 1.373 . S
N68 C70 1.340 . S
N69 C66 1.368 . S
N69 C70 1.321 . S
N69 Co72 2.135 . S
C70 N68 1.340 . S
C70 N69 1.321 . S
C70 H94 0.930 . S
H71 C66 0.931 . S
Co72 N69 2.135 . S
Co72 N75 2.121 . S
Co72 O80 2.055 . S
Co72 O83 2.039 . S
Co72 N86 2.140 . S
C73 O74 1.227 . S
C73 O83 1.265 . S
O74 C73 1.227 . S
N75 Co72 2.121 . S
N75 C77 1.375 . S
N75 C78 1.313 . S
C76 C77 1.338 . S
C76 N79 1.377 . S
C76 H96 0.930 . S
C77 N75 1.375 . S
C77 C76 1.338 . S
C77 H81 0.931 . S
C78 N75 1.313 . S
C78 N79 1.344 . S
C78 H82 0.930 . S
N79 C76 1.377 . S
N79 C78 1.344 . S
O80 Co72 2.055 . S
O80 C84 1.253 . S
H81 C77 0.931 . S
H82 C78 0.930 . S
O83 Co72 2.039 . S
O83 C73 1.265 . S
C84 O80 1.253 . S
C84 O85 1.227 . S
O85 C84 1.227 . S
N86 Co72 2.140 . S
N86 C89 1.346 . S
N86 C90 1.345 . S
C87 C88 1.387 . S
C87 C91 1.391 . S
C88 C87 1.387 . S
C88 C89 1.369 . S
C88 H97 0.929 . S
C89 N86 1.346 . S
C89 C88 1.369 . S
C89 H92 0.928 . S
C90 N86 1.345 . S
C90 C91 1.371 . S
C90 H93 0.931 . S
C91 C87 1.391 . S
C91 C90 1.371 . S
C91 H98 0.930 . S
H92 C89 0.928 . S
H93 C90 0.931 . S
H94 C70 0.930 . S
H95 C67 0.930 . S
H96 C76 0.930 . S
H97 C88 0.929 . S
H98 C91 0.930 . S
C99 C100 1.351 . S
C99 N102 1.368 . S
C99 H104 0.931 . S
C100 C99 1.351 . S
C100 N101 1.373 . S
C100 H128 0.930 . S
N101 C100 1.373 . S
N101 C103 1.340 . S
N102 C99 1.368 . S
N102 C103 1.321 . S
N102 Co105 2.135 . S
C103 N101 1.340 . S
C103 N102 1.321 . S
C103 H127 0.930 . S
H104 C99 0.931 . S
Co105 N102 2.135 . S
Co105 N108 2.121 . S
Co105 O113 2.055 . S
Co105 O116 2.039 . S
Co105 N119 2.140 . S
C106 O107 1.227 . S
C106 O116 1.265 . S
O107 C106 1.227 . S
N108 Co105 2.121 . S
N108 C110 1.375 . S
N108 C111 1.313 . S
C109 C110 1.338 . S
C109 N112 1.377 . S
C109 H129 0.930 . S
C110 N108 1.375 . S
C110 C109 1.338 . S
C110 H114 0.931 . S
C111 N108 1.313 . S
C111 N112 1.344 . S
C111 H115 0.930 . S
N112 C109 1.377 . S
N112 C111 1.344 . S
O113 Co105 2.055 . S
O113 C117 1.253 . S
H114 C110 0.931 . S
H115 C111 0.930 . S
O116 Co105 2.039 . S
O116 C106 1.265 . S
C117 O113 1.253 . S
C117 O118 1.227 . S
O118 C117 1.227 . S
N119 Co105 2.140 . S
N119 C122 1.346 . S
N119 C123 1.345 . S
C120 C121 1.387 . S
C120 C124 1.391 . S
C121 C120 1.387 . S
C121 C122 1.369 . S
C121 H130 0.929 . S
C122 N119 1.346 . S
C122 C121 1.369 . S
C122 H125 0.928 . S
C123 N119 1.345 . S
C123 C124 1.371 . S
C123 H126 0.931 . S
C124 C120 1.391 . S
C124 C123 1.371 . S
C124 H131 0.930 . S
H125 C122 0.928 . S
H126 C123 0.931 . S
H127 C103 0.930 . S
H128 C100 0.930 . S
H129 C109 0.930 . S
H130 C121 0.929 . S
H131 C124 0.930 . S
C132 C133 1.351 . S
C132 N135 1.368 . S
C132 H137 0.931 . S
C133 C132 1.351 . S
C133 N134 1.373 . S
C133 H161 0.930 . S
N134 C133 1.373 . S
N134 C136 1.340 . S
N135 C132 1.368 . S
N135 C136 1.321 . S
N135 Co138 2.135 . S
C136 N134 1.340 . S
C136 N135 1.321 . S
C136 H160 0.930 . S
H137 C132 0.931 . S
Co138 N135 2.135 . S
Co138 N141 2.121 1_565 S
Co138 O146 2.055 . S
Co138 O149 2.039 . S
Co138 N152 2.140 . S
C139 O140 1.227 . S
C139 O149 1.265 . S
O140 C139 1.227 . S
N141 Co138 2.121 1_545 S
N141 C143 1.375 . S
N141 C144 1.313 . S
C142 C143 1.338 . S
C142 N145 1.377 . S
C142 H162 0.930 . S
C143 N141 1.375 . S
C143 C142 1.338 . S
C143 H147 0.931 . S
C144 N141 1.313 . S
C144 N145 1.344 . S
C144 H148 0.930 . S
N145 C142 1.377 . S
N145 C144 1.344 . S
O146 Co138 2.055 . S
O146 C150 1.253 . S
H147 C143 0.931 . S
H148 C144 0.930 . S
O149 Co138 2.039 . S
O149 C139 1.265 . S
C150 O146 1.253 . S
C150 O151 1.227 . S
O151 C150 1.227 . S
N152 Co138 2.140 . S
N152 C155 1.346 . S
N152 C156 1.345 . S
C153 C154 1.387 . S
C153 C157 1.391 1_565 S
C154 C153 1.387 . S
C154 C155 1.369 . S
C154 H163 0.929 . S
C155 N152 1.346 . S
C155 C154 1.369 . S
C155 H158 0.928 . S
C156 N152 1.345 . S
C156 C157 1.371 1_565 S
C156 H159 0.931 1_565 S
C157 C153 1.391 1_545 S
C157 C156 1.371 1_545 S
C157 H164 0.930 . S
H158 C155 0.928 . S
H159 C156 0.931 1_545 S
H160 C136 0.930 . S
H161 C133 0.930 . S
H162 C142 0.930 . S
H163 C154 0.929 . S
H164 C157 0.930 . S
C165 C166 1.351 . S
C165 N168 1.368 . S
C165 H170 0.931 . S
C166 C165 1.351 . S
C166 N167 1.373 . S
C166 H194 0.930 . S
N167 C166 1.373 . S
N167 C169 1.340 . S
N168 C165 1.368 . S
N168 C169 1.321 . S
N168 Co171 2.135 . S
C169 N167 1.340 . S
C169 N168 1.321 . S
C169 H193 0.930 . S
H170 C165 0.931 . S
Co171 N168 2.135 . S
Co171 N174 2.121 1_545 S
Co171 O179 2.055 . S
Co171 O182 2.039 . S
Co171 N185 2.140 . S
C172 O173 1.227 . S
C172 O182 1.265 . S
O173 C172 1.227 . S
N174 Co171 2.121 1_565 S
N174 C176 1.375 . S
N174 C177 1.313 . S
C175 C176 1.338 . S
C175 N178 1.377 . S
C175 H195 0.930 . S
C176 N174 1.375 . S
C176 C175 1.338 . S
C176 H180 0.931 . S
C177 N174 1.313 . S
C177 N178 1.344 . S
C177 H181 0.930 . S
N178 C175 1.377 . S
N178 C177 1.344 . S
O179 Co171 2.055 . S
O179 C183 1.253 . S
H180 C176 0.931 . S
H181 C177 0.930 . S
O182 Co171 2.039 . S
O182 C172 1.265 . S
C183 O179 1.253 . S
C183 O184 1.227 . S
O184 C183 1.227 . S
N185 Co171 2.140 . S
N185 C188 1.346 . S
N185 C189 1.345 . S
C186 C187 1.387 . S
C186 C190 1.391 1_545 S
C187 C186 1.387 . S
C187 C188 1.369 . S
C187 H196 0.929 . S
C188 N185 1.346 . S
C188 C187 1.369 . S
C188 H191 0.928 . S
C189 N185 1.345 . S
C189 C190 1.371 1_545 S
C189 H192 0.931 1_545 S
C190 C186 1.391 1_565 S
C190 C189 1.371 1_565 S
C190 H197 0.930 . S
H191 C188 0.928 . S
H192 C189 0.931 1_565 S
H193 C169 0.930 . S
H194 C166 0.930 . S
H195 C175 0.930 . S
H196 C187 0.929 . S
H197 C190 0.930 . S
C198 C199 1.351 . S
C198 N201 1.368 . S
C198 H203 0.931 . S
C199 C198 1.351 . S
C199 N200 1.373 . S
C199 H227 0.930 . S
N200 C199 1.373 . S
N200 C202 1.340 . S
N201 C198 1.368 . S
N201 C202 1.321 . S
N201 Co204 2.135 . S
C202 N200 1.340 . S
C202 N201 1.321 . S
C202 H226 0.930 . S
H203 C198 0.931 . S
Co204 N201 2.135 . S
Co204 N207 2.121 . S
Co204 O212 2.055 . S
Co204 O215 2.039 . S
Co204 N218 2.140 . S
C205 O206 1.227 . S
C205 O215 1.265 . S
O206 C205 1.227 . S
N207 Co204 2.121 . S
N207 C209 1.375 . S
N207 C210 1.313 . S
C208 C209 1.338 . S
C208 N211 1.377 . S
C208 H228 0.930 . S
C209 N207 1.375 . S
C209 C208 1.338 . S
C209 H213 0.931 . S
C210 N207 1.313 . S
C210 N211 1.344 . S
C210 H214 0.930 . S
N211 C208 1.377 . S
N211 C210 1.344 . S
O212 Co204 2.055 . S
O212 C216 1.253 . S
H213 C209 0.931 . S
H214 C210 0.930 . S
O215 Co204 2.039 . S
O215 C205 1.265 . S
C216 O212 1.253 . S
C216 O217 1.227 . S
O217 C216 1.227 . S
N218 Co204 2.140 . S
N218 C221 1.346 . S
N218 C222 1.345 . S
C219 C220 1.387 . S
C219 C223 1.391 . S
C220 C219 1.387 . S
C220 C221 1.369 . S
C220 H229 0.929 . S
C221 N218 1.346 . S
C221 C220 1.369 . S
C221 H224 0.928 . S
C222 N218 1.345 . S
C222 C223 1.371 . S
C222 H225 0.931 . S
C223 C219 1.391 . S
C223 C222 1.371 . S
C223 H230 0.930 . S
H224 C221 0.928 . S
H225 C222 0.931 . S
H226 C202 0.930 . S
H227 C199 0.930 . S
H228 C208 0.930 . S
H229 C220 0.929 . S
H230 C223 0.930 . S
C231 C232 1.351 . S
C231 N234 1.368 . S
C231 H236 0.931 . S
C232 C231 1.351 . S
C232 N233 1.373 . S
C232 H260 0.930 . S
N233 C232 1.373 . S
N233 C235 1.340 . S
N234 C231 1.368 . S
N234 C235 1.321 . S
N234 Co237 2.135 . S
C235 N233 1.340 . S
C235 N234 1.321 . S
C235 H259 0.930 . S
H236 C231 0.931 . S
Co237 N234 2.135 . S
Co237 N240 2.121 . S
Co237 O245 2.055 . S
Co237 O248 2.039 . S
Co237 N251 2.140 . S
C238 O239 1.227 . S
C238 O248 1.265 . S
O239 C238 1.227 . S
N240 Co237 2.121 . S
N240 C242 1.375 . S
N240 C243 1.313 . S
C241 C242 1.338 . S
C241 N244 1.377 . S
C241 H261 0.930 . S
C242 N240 1.375 . S
C242 C241 1.338 . S
C242 H246 0.931 . S
C243 N240 1.313 . S
C243 N244 1.344 . S
C243 H247 0.930 . S
N244 C241 1.377 . S
N244 C243 1.344 . S
O245 Co237 2.055 . S
O245 C249 1.253 . S
H246 C242 0.931 . S
H247 C243 0.930 . S
O248 Co237 2.039 . S
O248 C238 1.265 . S
C249 O245 1.253 . S
C249 O250 1.227 . S
O250 C249 1.227 . S
N251 Co237 2.140 . S
N251 C254 1.346 . S
N251 C255 1.345 . S
C252 C253 1.387 . S
C252 C256 1.391 . S
C253 C252 1.387 . S
C253 C254 1.369 . S
C253 H262 0.929 . S
C254 N251 1.346 . S
C254 C253 1.369 . S
C254 H257 0.928 . S
C255 N251 1.345 . S
C255 C256 1.371 . S
C255 H258 0.931 . S
C256 C252 1.391 . S
C256 C255 1.371 . S
C256 H263 0.930 . S
H257 C254 0.928 . S
H258 C255 0.931 . S
H259 C235 0.930 . S
H260 C232 0.930 . S
H261 C241 0.930 . S
H262 C253 0.929 . S
H263 C256 0.930 . S
C264 C265 1.363 . S
C264 C270 1.379 . S
C264 N272 1.356 . S
C265 C264 1.363 . S
C265 C271 1.363 1_545 S
C266 C267 1.363 . S
C266 C271 1.379 . S
C266 N273 1.356 . S
C267 C266 1.363 . S
C267 C270 1.363 1_565 S
N268 C270 1.356 . S
N268 H280 0.984 . S
N268 H281 0.985 1_545 S
N269 C271 1.356 . S
N269 H274 0.984 1_565 S
N269 H275 0.985 . S
C270 C264 1.379 . S
C270 C267 1.363 1_545 S
C270 N268 1.356 . S
C271 C265 1.363 1_565 S
C271 C266 1.379 . S
C271 N269 1.356 . S
N272 C264 1.356 . S
N272 H278 0.984 . S
N272 H279 0.984 . S
N273 C266 1.356 . S
N273 H276 0.984 . S
N273 H277 0.985 . S
H274 N269 0.984 1_545 S
H275 N269 0.985 . S
H276 N273 0.984 . S
H277 N273 0.985 . S
H278 N272 0.984 . S
H279 N272 0.984 . S
H280 N268 0.984 . S
H281 N268 0.985 1_565 S
C282 C283 1.363 . S
C282 C288 1.379 . S
C282 N290 1.356 . S
C283 C282 1.363 . S
C283 C289 1.363 . S
C284 C285 1.363 . S
C284 C289 1.379 . S
C284 N291 1.356 . S
C285 C284 1.363 . S
C285 C288 1.363 . S
N286 C288 1.356 . S
N286 H298 0.984 . S
N286 H299 0.985 . S
N287 C289 1.356 . S
N287 H292 0.984 . S
N287 H293 0.985 . S
C288 C282 1.379 . S
C288 C285 1.363 . S
C288 N286 1.356 . S
C289 C283 1.363 . S
C289 C284 1.379 . S
C289 N287 1.356 . S
N290 C282 1.356 . S
N290 H296 0.984 . S
N290 H297 0.984 . S
N291 C284 1.356 . S
N291 H294 0.984 . S
N291 H295 0.985 . S
H292 N287 0.984 . S
H293 N287 0.985 . S
H294 N291 0.984 . S
H295 N291 0.985 . S
H296 N290 0.984 . S
H297 N290 0.984 . S
H298 N286 0.984 . S
H299 N286 0.985 . S
C300 C301 1.363 1_545 S
C300 C306 1.379 . S
C300 N308 1.356 . S
C301 C300 1.363 1_565 S
C301 C307 1.363 . S
C302 C303 1.363 1_565 S
C302 C307 1.379 . S
C302 N309 1.356 . S
C303 C302 1.363 1_545 S
C303 C306 1.363 . S
N304 C306 1.356 . S
N304 H316 0.984 . S
N304 H317 0.985 . S
N305 C307 1.356 . S
N305 H310 0.984 . S
N305 H311 0.985 . S
C306 C300 1.379 . S
C306 C303 1.363 . S
C306 N304 1.356 . S
C307 C301 1.363 . S
C307 C302 1.379 . S
C307 N305 1.356 . S
N308 C300 1.356 . S
N308 H314 0.984 . S
N308 H315 0.984 1_545 S
N309 C302 1.356 . S
N309 H312 0.984 1_565 S
N309 H313 0.985 . S
H310 N305 0.984 . S
H311 N305 0.985 . S
H312 N309 0.984 1_545 S
H313 N309 0.985 . S
H314 N308 0.984 . S
H315 N308 0.984 1_565 S
H316 N304 0.984 . S
H317 N304 0.985 . S
C318 C319 1.363 . S
C318 C324 1.379 . S
C318 N326 1.356 . S
C319 C318 1.363 . S
C319 C325 1.363 . S
C320 C321 1.363 . S
C320 C325 1.379 . S
C320 N327 1.356 . S
C321 C320 1.363 . S
C321 C324 1.363 . S
N322 C324 1.356 . S
N322 H334 0.984 . S
N322 H335 0.985 . S
N323 C325 1.356 . S
N323 H328 0.984 . S
N323 H329 0.985 . S
C324 C318 1.379 . S
C324 C321 1.363 . S
C324 N322 1.356 . S
C325 C319 1.363 . S
C325 C320 1.379 . S
C325 N323 1.356 . S
N326 C318 1.356 . S
N326 H332 0.984 . S
N326 H333 0.984 . S
N327 C320 1.356 . S
N327 H330 0.984 . S
N327 H331 0.985 . S
H328 N323 0.984 . S
H329 N323 0.985 . S
H330 N327 0.984 . S
H331 N327 0.985 . S
H332 N326 0.984 . S
H333 N326 0.984 . S
H334 N322 0.984 . S
H335 N322 0.985 . S
C336 C337 1.363 1_655 S
C336 C342 1.379 . S
C336 N344 1.356 . S
C337 C336 1.363 1_455 S
C337 C343 1.363 1_544 S
C338 C339 1.363 1_455 S
C338 C343 1.379 . S
C338 N345 1.356 . S
C339 C338 1.363 1_655 S
C339 C342 1.363 1_566 S
N340 C342 1.356 1_565 S
N340 H352 0.984 1_565 S
N340 H353 0.985 1_554 S
N341 C343 1.356 1_545 S
N341 H346 0.984 1_556 S
N341 H347 0.985 1_545 S
C342 C336 1.379 . S
C342 C339 1.363 1_544 S
C342 N340 1.356 1_545 S
C343 C337 1.363 1_566 S
C343 C338 1.379 . S
C343 N341 1.356 1_565 S
N344 C336 1.356 . S
N344 H350 0.984 . S
N344 H351 0.984 1_655 S
N345 C338 1.356 . S
N345 H348 0.984 1_455 S
N345 H349 0.985 . S
H346 N341 0.984 1_554 S
H347 N341 0.985 1_565 S
H348 N345 0.984 1_655 S
H349 N345 0.985 . S
H350 N344 0.984 . S
H351 N344 0.984 1_455 S
H352 N340 0.984 1_545 S
H353 N340 0.985 1_556 S
C354 C355 1.363 . S
C354 C360 1.379 1_565 S
C354 N362 1.356 . S
C355 C354 1.363 . S
C355 C361 1.363 1_554 S
C356 C357 1.363 . S
C356 C361 1.379 1_545 S
C356 N363 1.356 . S
C357 C356 1.363 . S
C357 C360 1.363 1_556 S
N358 C360 1.356 . S
N358 H370 0.984 . S
N358 H371 0.985 1_554 S
N359 C361 1.356 . S
N359 H364 0.984 1_556 S
N359 H365 0.985 . S
C360 C354 1.379 1_545 S
C360 C357 1.363 1_554 S
C360 N358 1.356 . S
C361 C355 1.363 1_556 S
C361 C356 1.379 1_565 S
C361 N359 1.356 . S
N362 C354 1.356 . S
N362 H368 0.984 . S
N362 H369 0.984 . S
N363 C356 1.356 . S
N363 H366 0.984 . S
N363 H367 0.985 . S
H364 N359 0.984 1_554 S
H365 N359 0.985 . S
H366 N363 0.984 . S
H367 N363 0.985 . S
H368 N362 0.984 . S
H369 N362 0.984 . S
H370 N358 0.984 . S
H371 N358 0.985 1_556 S
C372 C373 1.363 1_655 S
C372 C378 1.379 . S
C372 N380 1.356 . S
C373 C372 1.363 1_455 S
C373 C379 1.363 . S
C374 C375 1.363 1_455 S
C374 C379 1.379 . S
C374 N381 1.356 . S
C375 C374 1.363 1_655 S
C375 C378 1.363 . S
N376 C378 1.356 . S
N376 H388 0.984 . S
N376 H389 0.985 . S
N377 C379 1.356 . S
N377 H382 0.984 . S
N377 H383 0.985 . S
C378 C372 1.379 . S
C378 C375 1.363 . S
C378 N376 1.356 . S
C379 C373 1.363 . S
C379 C374 1.379 . S
C379 N377 1.356 . S
N380 C372 1.356 . S
N380 H386 0.984 . S
N380 H387 0.984 1_655 S
N381 C374 1.356 . S
N381 H384 0.984 1_455 S
N381 H385 0.985 . S
H382 N377 0.984 . S
H383 N377 0.985 . S
H384 N381 0.984 1_655 S
H385 N381 0.985 . S
H386 N380 0.984 . S
H387 N380 0.984 1_455 S
H388 N376 0.984 . S
H389 N376 0.985 . S
C390 C391 1.363 . S
C390 C396 1.379 . S
C390 N398 1.356 . S
C391 C390 1.363 . S
C391 C397 1.363 . S
C392 C393 1.363 . S
C392 C397 1.379 . S
C392 N399 1.356 . S
C393 C392 1.363 . S
C393 C396 1.363 . S
N394 C396 1.356 . S
N394 H406 0.984 . S
N394 H407 0.985 . S
N395 C397 1.356 . S
N395 H400 0.984 . S
N395 H401 0.985 . S
C396 C390 1.379 . S
C396 C393 1.363 . S
C396 N394 1.356 . S
C397 C391 1.363 . S
C397 C392 1.379 . S
C397 N395 1.356 . S
N398 C390 1.356 . S
N398 H404 0.984 . S
N398 H405 0.984 . S
N399 C392 1.356 . S
N399 H402 0.984 . S
N399 H403 0.985 . S
H400 N395 0.984 . S
H401 N395 0.985 . S
H402 N399 0.984 . S
H403 N399 0.985 . S
H404 N398 0.984 . S
H405 N398 0.984 . S
H406 N394 0.984 . S
H407 N394 0.985 . S
C408 C409 1.363 . S
C408 C414 1.379 . S
C408 N416 1.356 . S
C409 C408 1.363 . S
C409 C415 1.363 . S
C410 C411 1.363 . S
C410 C415 1.379 . S
C410 N417 1.356 . S
C411 C410 1.363 . S
C411 C414 1.363 . S
N412 C414 1.356 . S
N412 H424 0.984 . S
N412 H425 0.985 . S
N413 C415 1.356 . S
N413 H418 0.984 . S
N413 H419 0.985 . S
C414 C408 1.379 . S
C414 C411 1.363 . S
C414 N412 1.356 . S
C415 C409 1.363 . S
C415 C410 1.379 . S
C415 N413 1.356 . S
N416 C408 1.356 . S
N416 H422 0.984 . S
N416 H423 0.984 . S
N417 C410 1.356 . S
N417 H420 0.984 . S
N417 H421 0.985 . S
H418 N413 0.984 . S
H419 N413 0.985 . S
H420 N417 0.984 . S
H421 N417 0.985 . S
H422 N416 0.984 . S
H423 N416 0.984 . S
H424 N412 0.984 . S
H425 N412 0.985 . S
C426 C427 1.363 . S
C426 C432 1.379 . S
C426 N434 1.356 . S
C427 C426 1.363 . S
C427 C433 1.363 . S
C428 C429 1.363 . S
C428 C433 1.379 . S
C428 N435 1.356 . S
C429 C428 1.363 . S
C429 C432 1.363 . S
N430 C432 1.356 . S
N430 H442 0.984 . S
N430 H443 0.985 . S
N431 C433 1.356 . S
N431 H436 0.984 . S
N431 H437 0.985 . S
C432 C426 1.379 . S
C432 C429 1.363 . S
C432 N430 1.356 . S
C433 C427 1.363 . S
C433 C428 1.379 . S
C433 N431 1.356 . S
N434 C426 1.356 . S
N434 H440 0.984 . S
N434 H441 0.984 . S
N435 C428 1.356 . S
N435 H438 0.984 . S
N435 H439 0.985 . S
H436 N431 0.984 . S
H437 N431 0.985 . S
H438 N435 0.984 . S
H439 N435 0.985 . S
H440 N434 0.984 . S
H441 N434 0.984 . S
H442 N430 0.984 . S
H443 N430 0.985 . S
C444 C445 1.363 . S
C444 C450 1.379 . S
C444 N452 1.356 . S
C445 C444 1.363 . S
C445 C451 1.363 . S
C446 C447 1.363 . S
C446 C451 1.379 . S
C446 N453 1.356 . S
C447 C446 1.363 . S
C447 C450 1.363 . S
N448 C450 1.356 . S
N448 H460 0.984 . S
N448 H461 0.985 . S
N449 C451 1.356 . S
N449 H454 0.984 . S
N449 H455 0.985 . S
C450 C444 1.379 . S
C450 C447 1.363 . S
C450 N448 1.356 . S
C451 C445 1.363 . S
C451 C446 1.379 . S
C451 N449 1.356 . S
N452 C444 1.356 . S
N452 H458 0.984 . S
N452 H459 0.984 . S
N453 C446 1.356 . S
N453 H456 0.984 . S
N453 H457 0.985 . S
H454 N449 0.984 . S
H455 N449 0.985 . S
H456 N453 0.984 . S
H457 N453 0.985 . S
H458 N452 0.984 . S
H459 N452 0.984 . S
H460 N448 0.984 . S
H461 N448 0.985 . S
C462 C463 1.363 . S
C462 C468 1.379 . S
C462 N470 1.356 . S
C463 C462 1.363 . S
C463 C469 1.363 . S
C464 C465 1.363 . S
C464 C469 1.379 . S
C464 N471 1.356 . S
C465 C464 1.363 . S
C465 C468 1.363 . S
N466 C468 1.356 . S
N466 H478 0.984 . S
N466 H479 0.985 . S
N467 C469 1.356 . S
N467 H472 0.984 . S
N467 H473 0.985 . S
C468 C462 1.379 . S
C468 C465 1.363 . S
C468 N466 1.356 . S
C469 C463 1.363 . S
C469 C464 1.379 . S
C469 N467 1.356 . S
N470 C462 1.356 . S
N470 H476 0.984 . S
N470 H477 0.984 . S
N471 C464 1.356 . S
N471 H474 0.984 . S
N471 H475 0.985 . S
H472 N467 0.984 . S
H473 N467 0.985 . S
H474 N471 0.984 . S
H475 N471 0.985 . S
H476 N470 0.984 . S
H477 N470 0.984 . S
H478 N466 0.984 . S
H479 N466 0.985 . S
C480 C481 1.363 . S
C480 C486 1.379 . S
C480 N488 1.356 . S
C481 C480 1.363 . S
C481 C487 1.363 . S
C482 C483 1.363 . S
C482 C487 1.379 . S
C482 N489 1.356 . S
C483 C482 1.363 . S
C483 C486 1.363 . S
N484 C486 1.356 . S
N484 H496 0.984 . S
N484 H497 0.985 . S
N485 C487 1.356 . S
N485 H490 0.984 . S
N485 H491 0.985 . S
C486 C480 1.379 . S
C486 C483 1.363 . S
C486 N484 1.356 . S
C487 C481 1.363 . S
C487 C482 1.379 . S
C487 N485 1.356 . S
N488 C480 1.356 . S
N488 H494 0.984 . S
N488 H495 0.984 . S
N489 C482 1.356 . S
N489 H492 0.984 . S
N489 H493 0.985 . S
H490 N485 0.984 . S
H491 N485 0.985 . S
H492 N489 0.984 . S
H493 N489 0.985 . S
H494 N488 0.984 . S
H495 N488 0.984 . S
H496 N484 0.984 . S
H497 N484 0.985 . S
C498 C499 1.363 . S
C498 C504 1.379 . S
C498 N506 1.356 . S
C499 C498 1.363 . S
C499 C505 1.363 . S
C500 C501 1.363 . S
C500 C505 1.379 . S
C500 N507 1.356 . S
C501 C500 1.363 . S
C501 C504 1.363 . S
N502 C504 1.356 . S
N502 H514 0.984 . S
N502 H515 0.985 . S
N503 C505 1.356 . S
N503 H508 0.984 . S
N503 H509 0.985 . S
C504 C498 1.379 . S
C504 C501 1.363 . S
C504 N502 1.356 . S
C505 C499 1.363 . S
C505 C500 1.379 . S
C505 N503 1.356 . S
N506 C498 1.356 . S
N506 H512 0.984 . S
N506 H513 0.984 . S
N507 C500 1.356 . S
N507 H510 0.984 . S
N507 H511 0.985 . S
H508 N503 0.984 . S
H509 N503 0.985 . S
H510 N507 0.984 . S
H511 N507 0.985 . S
H512 N506 0.984 . S
H513 N506 0.984 . S
H514 N502 0.984 . S
H515 N502 0.985 . S
C516 C517 1.363 1_565 S
C516 C522 1.379 . S
C516 N524 1.356 . S
C517 C516 1.363 1_545 S
C517 C523 1.363 1_545 S
C518 C519 1.363 . S
C518 C523 1.379 . S
C518 N525 1.356 . S
C519 C518 1.363 . S
C519 C522 1.363 . S
N520 C522 1.356 . S
N520 H532 0.984 . S
N520 H533 0.985 . S
N521 C523 1.356 1_545 S
N521 H526 0.984 . S
N521 H527 0.985 . S
C522 C516 1.379 . S
C522 C519 1.363 . S
C522 N520 1.356 . S
C523 C517 1.363 1_565 S
C523 C518 1.379 . S
C523 N521 1.356 1_565 S
N524 C516 1.356 . S
N524 H530 0.984 . S
N524 H531 0.984 1_565 S
N525 C518 1.356 . S
N525 H528 0.984 . S
N525 H529 0.985 . S
H526 N521 0.984 . S
H527 N521 0.985 . S
H528 N525 0.984 . S
H529 N525 0.985 . S
H530 N524 0.984 . S
H531 N524 0.984 1_545 S
H532 N520 0.984 . S
H533 N520 0.985 . S
C534 C535 1.363 1_545 S
C534 C540 1.379 . S
C534 N542 1.356 1_545 S
C535 C534 1.363 1_565 S
C535 C541 1.363 1_565 S
C536 C537 1.363 . S
C536 C541 1.379 . S
C536 N543 1.356 . S
C537 C536 1.363 . S
C537 C540 1.363 . S
N538 C540 1.356 . S
N538 H550 0.984 . S
N538 H551 0.985 . S
N539 C541 1.356 . S
N539 H544 0.984 1_545 S
N539 H545 0.985 . S
C540 C534 1.379 . S
C540 C537 1.363 . S
C540 N538 1.356 . S
C541 C535 1.363 1_545 S
C541 C536 1.379 . S
C541 N539 1.356 . S
N542 C534 1.356 1_565 S
N542 H548 0.984 . S
N542 H549 0.984 . S
N543 C536 1.356 . S
N543 H546 0.984 . S
N543 H547 0.985 . S
H544 N539 0.984 1_565 S
H545 N539 0.985 . S
H546 N543 0.984 . S
H547 N543 0.985 . S
H548 N542 0.984 . S
H549 N542 0.984 . S
H550 N538 0.984 . S
H551 N538 0.985 . S
C552 C553 1.363 . S
C552 C558 1.379 . S
C552 N560 1.356 . S
C553 C552 1.363 . S
C553 C559 1.363 . S
C554 C555 1.363 . S
C554 C559 1.379 . S
C554 N561 1.356 . S
C555 C554 1.363 . S
C555 C558 1.363 . S
N556 C558 1.356 . S
N556 H568 0.984 . S
N556 H569 0.985 . S
N557 C559 1.356 . S
N557 H562 0.984 . S
N557 H563 0.985 . S
C558 C552 1.379 . S
C558 C555 1.363 . S
C558 N556 1.356 . S
C559 C553 1.363 . S
C559 C554 1.379 . S
C559 N557 1.356 . S
N560 C552 1.356 . S
N560 H566 0.984 . S
N560 H567 0.984 . S
N561 C554 1.356 . S
N561 H564 0.984 . S
N561 H565 0.985 . S
H562 N557 0.984 . S
H563 N557 0.985 . S
H564 N561 0.984 . S
H565 N561 0.985 . S
H566 N560 0.984 . S
H567 N560 0.984 . S
H568 N556 0.984 . S
H569 N556 0.985 . S
C570 C571 1.363 . S
C570 C576 1.379 . S
C570 N578 1.356 . S
C571 C570 1.363 . S
C571 C577 1.363 . S
C572 C573 1.363 . S
C572 C577 1.379 . S
C572 N579 1.356 . S
C573 C572 1.363 . S
C573 C576 1.363 . S
N574 C576 1.356 . S
N574 H586 0.984 . S
N574 H587 0.985 . S
N575 C577 1.356 . S
N575 H580 0.984 . S
N575 H581 0.985 . S
C576 C570 1.379 . S
C576 C573 1.363 . S
C576 N574 1.356 . S
C577 C571 1.363 . S
C577 C572 1.379 . S
C577 N575 1.356 . S
N578 C570 1.356 . S
N578 H584 0.984 . S
N578 H585 0.984 . S
N579 C572 1.356 . S
N579 H582 0.984 . S
N579 H583 0.985 . S
H580 N575 0.984 . S
H581 N575 0.985 . S
H582 N579 0.984 . S
H583 N579 0.985 . S
H584 N578 0.984 . S
H585 N578 0.984 . S
H586 N574 0.984 . S
H587 N574 0.985 . S
C588 C589 1.363 1_545 S
C588 C594 1.379 . S
C588 N596 1.356 1_545 S
C589 C588 1.363 1_565 S
C589 C595 1.363 1_565 S
C590 C591 1.363 . S
C590 C595 1.379 . S
C590 N597 1.356 . S
C591 C590 1.363 . S
C591 C594 1.363 . S
N592 C594 1.356 . S
N592 H604 0.984 . S
N592 H605 0.985 . S
N593 C595 1.356 1_565 S
N593 H598 0.984 . S
N593 H599 0.985 . S
C594 C588 1.379 . S
C594 C591 1.363 . S
C594 N592 1.356 . S
C595 C589 1.363 1_545 S
C595 C590 1.379 . S
C595 N593 1.356 1_545 S
N596 C588 1.356 1_565 S
N596 H602 0.984 . S
N596 H603 0.984 . S
N597 C590 1.356 . S
N597 H600 0.984 . S
N597 H601 0.985 . S
H598 N593 0.984 . S
H599 N593 0.985 . S
H600 N597 0.984 . S
H601 N597 0.985 . S
H602 N596 0.984 . S
H603 N596 0.984 . S
H604 N592 0.984 . S
H605 N592 0.985 . S
C606 C607 1.363 . S
C606 C612 1.379 . S
C606 N614 1.356 . S
C607 C606 1.363 . S
C607 C613 1.363 . S
C608 C609 1.363 1_565 S
C608 C613 1.379 . S
C608 N615 1.356 1_565 S
C609 C608 1.363 1_545 S
C609 C612 1.363 1_545 S
N610 C612 1.356 . S
N610 H622 0.984 . S
N610 H623 0.985 1_565 S
N611 C613 1.356 . S
N611 H616 0.984 . S
N611 H617 0.985 . S
C612 C606 1.379 . S
C612 C609 1.363 1_565 S
C612 N610 1.356 . S
C613 C607 1.363 . S
C613 C608 1.379 . S
C613 N611 1.356 . S
N614 C606 1.356 . S
N614 H620 0.984 . S
N614 H621 0.984 . S
N615 C608 1.356 1_545 S
N615 H618 0.984 . S
N615 H619 0.985 . S
H616 N611 0.984 . S
H617 N611 0.985 . S
H618 N615 0.984 . S
H619 N615 0.985 . S
H620 N614 0.984 . S
H621 N614 0.984 . S
H622 N610 0.984 . S
H623 N610 0.985 1_545 S
C265 C21 1.571 . S
C267 C54 1.571 . S
C283 C120 1.571 . S
C285 C87 1.571 . S
C301 C153 1.571 . S
C303 C186 1.571 . S
C319 C252 1.571 . S
C321 C219 1.571 . S
C337 C18 1.240 . S
C339 C150 1.240 . S
C355 C51 1.240 . S
C357 C183 1.240 . S
C373 C84 1.240 . S
C375 C216 1.240 . S
C391 C117 1.240 . S
C393 C249 1.240 . S
C409 C73 1.478 . S
C411 C7 1.478 . S
C427 C106 1.478 . S
C429 C40 1.478 . S
C445 C139 1.478 . S
C447 C205 1.478 . S
C463 C172 1.478 . S
C465 C238 1.478 . S
C481 N13 1.401 . S
C483 N2 1.400 . S
C499 N46 1.401 . S
C501 N35 1.400 . S
C517 N68 1.400 . S
C519 N79 1.401 . S
C535 N101 1.400 . S
C537 N112 1.401 . S
C553 N134 1.400 . S
C555 N145 1.401 . S
C571 N178 1.401 . S
C573 N167 1.400 . S
C589 N200 1.400 . S
C591 N211 1.401 . S
C607 N244 1.401 . S
C609 N233 1.400 . S
