# Generated by pormake.
# Topology fcl, (5)-cn, num edge types: 1
# Building blocks:
#     Node 0, Type 0, BuildingBlock: BEQFEK_clean_sbu_0, # of connection points: 5
#     Node 1, Type 0, BuildingBlock: BEQFEK_clean_sbu_0, # of connection points: 5
#     Node 2, Type 0, BuildingBlock: BEQFEK_clean_sbu_0, # of connection points: 5
#     Node 3, Type 0, BuildingBlock: BEQFEK_clean_sbu_0, # of connection points: 5
#     Node 4, Type 0, BuildingBlock: BEQFEK_clean_sbu_0, # of connection points: 5
#     Node 5, Type 0, BuildingBlock: BEQFEK_clean_sbu_0, # of connection points: 5
#     Node 6, Type 0, BuildingBlock: BEQFEK_clean_sbu_0, # of connection points: 5
#     Node 7, Type 0, BuildingBlock: BEQFEK_clean_sbu_0, # of connection points: 5
#     Node 8, Type 0, BuildingBlock: BEQFEK_clean_sbu_0, # of connection points: 5
#     Node 9, Type 0, BuildingBlock: BEQFEK_clean_sbu_0, # of connection points: 5
#     Node 10, Type 0, BuildingBlock: BEQFEK_clean_sbu_0, # of connection points: 5
#     Node 11, Type 0, BuildingBlock: BEQFEK_clean_sbu_0, # of connection points: 5
#     Node 12, Type 0, BuildingBlock: BEQFEK_clean_sbu_0, # of connection points: 5
#     Node 13, Type 0, BuildingBlock: BEQFEK_clean_sbu_0, # of connection points: 5
#     Node 14, Type 0, BuildingBlock: BEQFEK_clean_sbu_0, # of connection points: 5
#     Node 15, Type 0, BuildingBlock: BEQFEK_clean_sbu_0, # of connection points: 5
#     Node 16, Type 0, BuildingBlock: BEQFEK_clean_sbu_0, # of connection points: 5
#     Node 17, Type 0, BuildingBlock: BEQFEK_clean_sbu_0, # of connection points: 5
#     Node 18, Type 0, BuildingBlock: BEQFEK_clean_sbu_0, # of connection points: 5
#     Node 19, Type 0, BuildingBlock: BEQFEK_clean_sbu_0, # of connection points: 5
#     Node 20, Type 0, BuildingBlock: BEQFEK_clean_sbu_0, # of connection points: 5
#     Node 21, Type 0, BuildingBlock: BEQFEK_clean_sbu_0, # of connection points: 5
#     Node 22, Type 0, BuildingBlock: BEQFEK_clean_sbu_0, # of connection points: 5
#     Node 23, Type 0, BuildingBlock: BEQFEK_clean_sbu_0, # of connection points: 5
#     Node 24, Type 0, BuildingBlock: BEQFEK_clean_sbu_0, # of connection points: 5
#     Node 25, Type 0, BuildingBlock: BEQFEK_clean_sbu_0, # of connection points: 5
#     Node 26, Type 0, BuildingBlock: BEQFEK_clean_sbu_0, # of connection points: 5
#     Node 27, Type 0, BuildingBlock: BEQFEK_clean_sbu_0, # of connection points: 5
#     Node 28, Type 0, BuildingBlock: BEQFEK_clean_sbu_0, # of connection points: 5
#     Node 29, Type 0, BuildingBlock: BEQFEK_clean_sbu_0, # of connection points: 5
#     Node 30, Type 0, BuildingBlock: BEQFEK_clean_sbu_0, # of connection points: 5
#     Node 31, Type 0, BuildingBlock: BEQFEK_clean_sbu_0, # of connection points: 5
#     Node 32, Type 0, BuildingBlock: BEQFEK_clean_sbu_0, # of connection points: 5
#     Node 33, Type 0, BuildingBlock: BEQFEK_clean_sbu_0, # of connection points: 5
#     Node 34, Type 0, BuildingBlock: BEQFEK_clean_sbu_0, # of connection points: 5
#     Node 35, Type 0, BuildingBlock: BEQFEK_clean_sbu_0, # of connection points: 5
#     Node 36, Type 0, BuildingBlock: BEQFEK_clean_sbu_0, # of connection points: 5
#     Node 37, Type 0, BuildingBlock: BEQFEK_clean_sbu_0, # of connection points: 5
#     Node 38, Type 0, BuildingBlock: BEQFEK_clean_sbu_0, # of connection points: 5
#     Node 39, Type 0, BuildingBlock: BEQFEK_clean_sbu_0, # of connection points: 5
#     Node 40, Type 0, BuildingBlock: BEQFEK_clean_sbu_0, # of connection points: 5
#     Node 41, Type 0, BuildingBlock: BEQFEK_clean_sbu_0, # of connection points: 5
#     Node 42, Type 0, BuildingBlock: BEQFEK_clean_sbu_0, # of connection points: 5
#     Node 43, Type 0, BuildingBlock: BEQFEK_clean_sbu_0, # of connection points: 5
#     Node 44, Type 0, BuildingBlock: BEQFEK_clean_sbu_0, # of connection points: 5
#     Node 45, Type 0, BuildingBlock: BEQFEK_clean_sbu_0, # of connection points: 5
#     Node 46, Type 0, BuildingBlock: BEQFEK_clean_sbu_0, # of connection points: 5
#     Node 47, Type 0, BuildingBlock: BEQFEK_clean_sbu_0, # of connection points: 5
#     Edge 48, Type (0, 0), BuildingBlock: CIFDUS_clean_linker_0, # of connection points: 2
#     Edge 49, Type (0, 0), BuildingBlock: CIFDUS_clean_linker_0, # of connection points: 2
#     Edge 50, Type (0, 0), BuildingBlock: CIFDUS_clean_linker_0, # of connection points: 2
#     Edge 51, Type (0, 0), BuildingBlock: CIFDUS_clean_linker_0, # of connection points: 2
#     Edge 52, Type (0, 0), BuildingBlock: CIFDUS_clean_linker_0, # of connection points: 2
#     Edge 53, Type (0, 0), BuildingBlock: CIFDUS_clean_linker_0, # of connection points: 2
#     Edge 54, Type (0, 0), BuildingBlock: CIFDUS_clean_linker_0, # of connection points: 2
#     Edge 55, Type (0, 0), BuildingBlock: CIFDUS_clean_linker_0, # of connection points: 2
#     Edge 56, Type (0, 0), BuildingBlock: CIFDUS_clean_linker_0, # of connection points: 2
#     Edge 57, Type (0, 0), BuildingBlock: CIFDUS_clean_linker_0, # of connection points: 2
#     Edge 58, Type (0, 0), BuildingBlock: CIFDUS_clean_linker_0, # of connection points: 2
#     Edge 59, Type (0, 0), BuildingBlock: CIFDUS_clean_linker_0, # of connection points: 2
#     Edge 60, Type (0, 0), BuildingBlock: CIFDUS_clean_linker_0, # of connection points: 2
#     Edge 61, Type (0, 0), BuildingBlock: CIFDUS_clean_linker_0, # of connection points: 2
#     Edge 62, Type (0, 0), BuildingBlock: CIFDUS_clean_linker_0, # of connection points: 2
#     Edge 63, Type (0, 0), BuildingBlock: CIFDUS_clean_linker_0, # of connection points: 2
#     Edge 64, Type (0, 0), BuildingBlock: CIFDUS_clean_linker_0, # of connection points: 2
#     Edge 65, Type (0, 0), BuildingBlock: CIFDUS_clean_linker_0, # of connection points: 2
#     Edge 66, Type (0, 0), BuildingBlock: CIFDUS_clean_linker_0, # of connection points: 2
#     Edge 67, Type (0, 0), BuildingBlock: CIFDUS_clean_linker_0, # of connection points: 2
#     Edge 68, Type (0, 0), BuildingBlock: CIFDUS_clean_linker_0, # of connection points: 2
#     Edge 69, Type (0, 0), BuildingBlock: CIFDUS_clean_linker_0, # of connection points: 2
#     Edge 70, Type (0, 0), BuildingBlock: CIFDUS_clean_linker_0, # of connection points: 2
#     Edge 71, Type (0, 0), BuildingBlock: CIFDUS_clean_linker_0, # of connection points: 2
#     Edge 72, Type (0, 0), BuildingBlock: CIFDUS_clean_linker_0, # of connection points: 2
#     Edge 73, Type (0, 0), BuildingBlock: CIFDUS_clean_linker_0, # of connection points: 2
#     Edge 74, Type (0, 0), BuildingBlock: CIFDUS_clean_linker_0, # of connection points: 2
#     Edge 75, Type (0, 0), BuildingBlock: CIFDUS_clean_linker_0, # of connection points: 2
#     Edge 76, Type (0, 0), BuildingBlock: CIFDUS_clean_linker_0, # of connection points: 2
#     Edge 77, Type (0, 0), BuildingBlock: CIFDUS_clean_linker_0, # of connection points: 2
#     Edge 78, Type (0, 0), BuildingBlock: CIFDUS_clean_linker_0, # of connection points: 2
#     Edge 79, Type (0, 0), BuildingBlock: CIFDUS_clean_linker_0, # of connection points: 2
#     Edge 80, Type (0, 0), BuildingBlock: CIFDUS_clean_linker_0, # of connection points: 2
#     Edge 81, Type (0, 0), BuildingBlock: CIFDUS_clean_linker_0, # of connection points: 2
#     Edge 82, Type (0, 0), BuildingBlock: CIFDUS_clean_linker_0, # of connection points: 2
#     Edge 83, Type (0, 0), BuildingBlock: CIFDUS_clean_linker_0, # of connection points: 2
#     Edge 84, Type (0, 0), BuildingBlock: CIFDUS_clean_linker_0, # of connection points: 2
#     Edge 85, Type (0, 0), BuildingBlock: CIFDUS_clean_linker_0, # of connection points: 2
#     Edge 86, Type (0, 0), BuildingBlock: CIFDUS_clean_linker_0, # of connection points: 2
#     Edge 87, Type (0, 0), BuildingBlock: CIFDUS_clean_linker_0, # of connection points: 2
#     Edge 88, Type (0, 0), BuildingBlock: CIFDUS_clean_linker_0, # of connection points: 2
#     Edge 89, Type (0, 0), BuildingBlock: CIFDUS_clean_linker_0, # of connection points: 2
#     Edge 90, Type (0, 0), BuildingBlock: CIFDUS_clean_linker_0, # of connection points: 2
#     Edge 91, Type (0, 0), BuildingBlock: CIFDUS_clean_linker_0, # of connection points: 2
#     Edge 92, Type (0, 0), BuildingBlock: CIFDUS_clean_linker_0, # of connection points: 2
#     Edge 93, Type (0, 0), BuildingBlock: CIFDUS_clean_linker_0, # of connection points: 2
#     Edge 94, Type (0, 0), BuildingBlock: CIFDUS_clean_linker_0, # of connection points: 2
#     Edge 95, Type (0, 0), BuildingBlock: CIFDUS_clean_linker_0, # of connection points: 2
#     Edge 96, Type (0, 0), BuildingBlock: CIFDUS_clean_linker_0, # of connection points: 2
#     Edge 97, Type (0, 0), BuildingBlock: CIFDUS_clean_linker_0, # of connection points: 2
#     Edge 98, Type (0, 0), BuildingBlock: CIFDUS_clean_linker_0, # of connection points: 2
#     Edge 99, Type (0, 0), BuildingBlock: CIFDUS_clean_linker_0, # of connection points: 2
#     Edge 100, Type (0, 0), BuildingBlock: CIFDUS_clean_linker_0, # of connection points: 2
#     Edge 101, Type (0, 0), BuildingBlock: CIFDUS_clean_linker_0, # of connection points: 2
#     Edge 102, Type (0, 0), BuildingBlock: CIFDUS_clean_linker_0, # of connection points: 2
#     Edge 103, Type (0, 0), BuildingBlock: CIFDUS_clean_linker_0, # of connection points: 2
#     Edge 104, Type (0, 0), BuildingBlock: CIFDUS_clean_linker_0, # of connection points: 2
#     Edge 105, Type (0, 0), BuildingBlock: CIFDUS_clean_linker_0, # of connection points: 2
#     Edge 106, Type (0, 0), BuildingBlock: CIFDUS_clean_linker_0, # of connection points: 2
#     Edge 107, Type (0, 0), BuildingBlock: CIFDUS_clean_linker_0, # of connection points: 2
#     Edge 108, Type (0, 0), BuildingBlock: CIFDUS_clean_linker_0, # of connection points: 2
#     Edge 109, Type (0, 0), BuildingBlock: CIFDUS_clean_linker_0, # of connection points: 2
#     Edge 110, Type (0, 0), BuildingBlock: CIFDUS_clean_linker_0, # of connection points: 2
#     Edge 111, Type (0, 0), BuildingBlock: CIFDUS_clean_linker_0, # of connection points: 2
#     Edge 112, Type (0, 0), BuildingBlock: CIFDUS_clean_linker_0, # of connection points: 2
#     Edge 113, Type (0, 0), BuildingBlock: CIFDUS_clean_linker_0, # of connection points: 2
#     Edge 114, Type (0, 0), BuildingBlock: CIFDUS_clean_linker_0, # of connection points: 2
#     Edge 115, Type (0, 0), BuildingBlock: CIFDUS_clean_linker_0, # of connection points: 2
#     Edge 116, Type (0, 0), BuildingBlock: CIFDUS_clean_linker_0, # of connection points: 2
#     Edge 117, Type (0, 0), BuildingBlock: CIFDUS_clean_linker_0, # of connection points: 2
#     Edge 118, Type (0, 0), BuildingBlock: CIFDUS_clean_linker_0, # of connection points: 2
#     Edge 119, Type (0, 0), BuildingBlock: CIFDUS_clean_linker_0, # of connection points: 2
#     Edge 120, Type (0, 0), BuildingBlock: CIFDUS_clean_linker_0, # of connection points: 2
#     Edge 121, Type (0, 0), BuildingBlock: CIFDUS_clean_linker_0, # of connection points: 2
#     Edge 122, Type (0, 0), BuildingBlock: CIFDUS_clean_linker_0, # of connection points: 2
#     Edge 123, Type (0, 0), BuildingBlock: CIFDUS_clean_linker_0, # of connection points: 2
#     Edge 124, Type (0, 0), BuildingBlock: CIFDUS_clean_linker_0, # of connection points: 2
#     Edge 125, Type (0, 0), BuildingBlock: CIFDUS_clean_linker_0, # of connection points: 2
#     Edge 126, Type (0, 0), BuildingBlock: CIFDUS_clean_linker_0, # of connection points: 2
#     Edge 127, Type (0, 0), BuildingBlock: CIFDUS_clean_linker_0, # of connection points: 2
#     Edge 128, Type (0, 0), BuildingBlock: CIFDUS_clean_linker_0, # of connection points: 2
#     Edge 129, Type (0, 0), BuildingBlock: CIFDUS_clean_linker_0, # of connection points: 2
#     Edge 130, Type (0, 0), BuildingBlock: CIFDUS_clean_linker_0, # of connection points: 2
#     Edge 131, Type (0, 0), BuildingBlock: CIFDUS_clean_linker_0, # of connection points: 2
#     Edge 132, Type (0, 0), BuildingBlock: CIFDUS_clean_linker_0, # of connection points: 2
#     Edge 133, Type (0, 0), BuildingBlock: CIFDUS_clean_linker_0, # of connection points: 2
#     Edge 134, Type (0, 0), BuildingBlock: CIFDUS_clean_linker_0, # of connection points: 2
#     Edge 135, Type (0, 0), BuildingBlock: CIFDUS_clean_linker_0, # of connection points: 2
#     Edge 136, Type (0, 0), BuildingBlock: CIFDUS_clean_linker_0, # of connection points: 2
#     Edge 137, Type (0, 0), BuildingBlock: CIFDUS_clean_linker_0, # of connection points: 2
#     Edge 138, Type (0, 0), BuildingBlock: CIFDUS_clean_linker_0, # of connection points: 2
#     Edge 139, Type (0, 0), BuildingBlock: CIFDUS_clean_linker_0, # of connection points: 2
#     Edge 140, Type (0, 0), BuildingBlock: CIFDUS_clean_linker_0, # of connection points: 2
#     Edge 141, Type (0, 0), BuildingBlock: CIFDUS_clean_linker_0, # of connection points: 2
#     Edge 142, Type (0, 0), BuildingBlock: CIFDUS_clean_linker_0, # of connection points: 2
#     Edge 143, Type (0, 0), BuildingBlock: CIFDUS_clean_linker_0, # of connection points: 2
#     Edge 144, Type (0, 0), BuildingBlock: CIFDUS_clean_linker_0, # of connection points: 2
#     Edge 145, Type (0, 0), BuildingBlock: CIFDUS_clean_linker_0, # of connection points: 2
#     Edge 146, Type (0, 0), BuildingBlock: CIFDUS_clean_linker_0, # of connection points: 2
#     Edge 147, Type (0, 0), BuildingBlock: CIFDUS_clean_linker_0, # of connection points: 2
#     Edge 148, Type (0, 0), BuildingBlock: CIFDUS_clean_linker_0, # of connection points: 2
#     Edge 149, Type (0, 0), BuildingBlock: CIFDUS_clean_linker_0, # of connection points: 2
#     Edge 150, Type (0, 0), BuildingBlock: CIFDUS_clean_linker_0, # of connection points: 2
#     Edge 151, Type (0, 0), BuildingBlock: CIFDUS_clean_linker_0, # of connection points: 2
#     Edge 152, Type (0, 0), BuildingBlock: CIFDUS_clean_linker_0, # of connection points: 2
#     Edge 153, Type (0, 0), BuildingBlock: CIFDUS_clean_linker_0, # of connection points: 2
#     Edge 154, Type (0, 0), BuildingBlock: CIFDUS_clean_linker_0, # of connection points: 2
#     Edge 155, Type (0, 0), BuildingBlock: CIFDUS_clean_linker_0, # of connection points: 2
#     Edge 156, Type (0, 0), BuildingBlock: CIFDUS_clean_linker_0, # of connection points: 2
#     Edge 157, Type (0, 0), BuildingBlock: CIFDUS_clean_linker_0, # of connection points: 2
#     Edge 158, Type (0, 0), BuildingBlock: CIFDUS_clean_linker_0, # of connection points: 2
#     Edge 159, Type (0, 0), BuildingBlock: CIFDUS_clean_linker_0, # of connection points: 2
#     Edge 160, Type (0, 0), BuildingBlock: CIFDUS_clean_linker_0, # of connection points: 2
#     Edge 161, Type (0, 0), BuildingBlock: CIFDUS_clean_linker_0, # of connection points: 2
#     Edge 162, Type (0, 0), BuildingBlock: CIFDUS_clean_linker_0, # of connection points: 2
#     Edge 163, Type (0, 0), BuildingBlock: CIFDUS_clean_linker_0, # of connection points: 2
#     Edge 164, Type (0, 0), BuildingBlock: CIFDUS_clean_linker_0, # of connection points: 2
#     Edge 165, Type (0, 0), BuildingBlock: CIFDUS_clean_linker_0, # of connection points: 2
#     Edge 166, Type (0, 0), BuildingBlock: CIFDUS_clean_linker_0, # of connection points: 2
#     Edge 167, Type (0, 0), BuildingBlock: CIFDUS_clean_linker_0, # of connection points: 2
# Relax obj value: 0.482
# Max RMSD: 0.275
# Mean RMSD: 0.275
data_MOF--net-fcl--node1-BEQFEK_clean_sbu_0--edge1-CIFDUS_clean_linker_0
_symmetry_space_group_name_H-M    P1
_symmetry_Int_Tables_number       1
_symmetry_cell_setting            triclinic
loop_
_symmetry_equiv_pos_as_xyz
'x, y, z'
_cell_length_a     59.268082
_cell_length_b     59.269898
_cell_length_c     59.203747
_cell_angle_alpha  90.062668
_cell_angle_beta   89.948227
_cell_angle_gamma 90.0367
loop_
_atom_site_label
_atom_site_type_symbol
_atom_site_fract_x
_atom_site_fract_y
_atom_site_fract_z
_atom_type_partial_charge
Co0 Co 0.03115 0.14154 0.46573 0.0
Co1 Co 0.01712 0.15091 0.41582 0.0
C2 C 0.01315 0.18617 0.45381 0.0
O3 O 0.02009 0.17325 0.46963 0.0
O4 O 0.0114 0.17914 0.43345 0.0
C5 C 0.0367 0.12773 0.51463 0.0
O6 O 0.02351 0.14396 0.522 0.0
C7 C 0.98357 0.15592 0.37948 0.0
C8 C 0.00519 0.15197 0.34931 0.0
C9 C 0.98298 0.15431 0.35613 0.0
N10 N 0.00517 0.15415 0.38617 0.0
N11 N 0.01803 0.15223 0.36802 0.0
C12 C 0.96411 0.15968 0.39515 0.0
H13 H 0.96888 0.15549 0.41278 0.0
H14 H 0.94921 0.14968 0.38986 0.0
H15 H 0.95927 0.17775 0.39448 0.0
C16 C 0.99501 0.10692 0.46096 0.0
N17 N 0.00846 0.12311 0.45222 0.0
N18 N 0.00433 0.12506 0.43049 0.0
C19 C 0.98908 0.10909 0.42453 0.0
C20 C 0.98223 0.09751 0.44373 0.0
C21 C 0.99452 0.10049 0.48538 0.0
H22 H 0.0106 0.092 0.48976 0.0
H23 H 0.99299 0.11591 0.4959 0.0
H24 H 0.98038 0.08884 0.48923 0.0
O25 O 0.05994 0.14242 0.44774 0.0
O26 O 0.05011 0.14873 0.41224 0.0
H27 H 0.9931 0.11148 0.38842 0.0
H28 H 0.97942 0.08619 0.3981 0.0
C29 C 0.98112 0.1046 0.40099 0.0
H30 H 0.96416 0.11207 0.39872 0.0
H31 H 0.0355 0.15015 0.36843 0.0
O32 O 0.0407 0.1259 0.49364 0.0
C33 C 0.06519 0.14558 0.42711 0.0
Co34 Co 0.11645 0.78512 0.72146 0.0
Co35 Co 0.10949 0.77215 0.67101 0.0
C36 C 0.07266 0.76657 0.70688 0.0
O37 O 0.08474 0.77347 0.72344 0.0
O38 O 0.08062 0.76533 0.68683 0.0
C39 C 0.12996 0.78968 0.77101 0.0
O40 O 0.11415 0.77604 0.77847 0.0
C41 C 0.10406 0.74078 0.63348 0.0
C42 C 0.11991 0.76027 0.60583 0.0
C43 C 0.11119 0.7393 0.61127 0.0
N44 N 0.1088 0.76162 0.64097 0.0
N45 N 0.11769 0.77337 0.62422 0.0
C46 C 0.09575 0.72204 0.64823 0.0
H47 H 0.09836 0.72622 0.66632 0.0
H48 H 0.10441 0.70598 0.64399 0.0
H49 H 0.07742 0.71964 0.64524 0.0
C50 C 0.15104 0.74886 0.7174 0.0
N51 N 0.13563 0.76285 0.70817 0.0
N52 N 0.13428 0.75878 0.68641 0.0
C53 C 0.14955 0.74269 0.68093 0.0
C54 C 0.16047 0.73557 0.70045 0.0
C55 C 0.15468 0.74654 0.74229 0.0
H56 H 0.13825 0.74775 0.75115 0.0
H57 H 0.16258 0.73016 0.74665 0.0
H58 H 0.16572 0.76045 0.74824 0.0
O59 O 0.11551 0.81446 0.7044 0.0
O60 O 0.11125 0.80498 0.66853 0.0
H61 H 0.15182 0.74902 0.64526 0.0
H62 H 0.17248 0.72944 0.65596 0.0
C63 C 0.15469 0.73509 0.65737 0.0
H64 H 0.14371 0.72063 0.65292 0.0
H65 H 0.12367 0.78986 0.6258 0.0
O66 O 0.13132 0.79403 0.75006 0.0
C67 C 0.11312 0.81991 0.68374 0.0
Co68 Co 0.47822 0.86031 0.97494 0.0
Co69 Co 0.49216 0.85861 0.92373 0.0
C70 C 0.50007 0.81889 0.9539 0.0
O71 O 0.49123 0.82855 0.97124 0.0
O72 O 0.50184 0.829 0.93491 0.0
C73 C 0.47825 0.8694 0.02559 0.0
O74 O 0.4971 0.85821 0.02885 0.0
C75 C 0.51456 0.85714 0.87843 0.0
C76 C 0.49472 0.88392 0.86165 0.0
C77 C 0.51242 0.86912 0.85837 0.0
N78 N 0.49898 0.8649 0.89302 0.0
N79 N 0.48706 0.88068 0.88273 0.0
C80 C 0.53031 0.83803 0.88328 0.0
H81 H 0.5223 0.82601 0.89514 0.0
H82 H 0.54591 0.8446 0.89126 0.0
H83 H 0.53503 0.82915 0.86744 0.0
C84 C 0.51228 0.8978 0.9739 0.0
N85 N 0.49899 0.88245 0.96348 0.0
N86 N 0.50509 0.88121 0.94215 0.0
C87 C 0.52286 0.89502 0.93857 0.0
C88 C 0.52815 0.90589 0.95866 0.0
C89 C 0.51012 0.9048 0.99806 0.0
H90 H 0.49209 0.90729 1.00228 0.0
H91 H 0.5174 0.89153 0.00899 0.0
H92 H 0.51923 0.92083 1.00134 0.0
O93 O 0.44867 0.86104 0.95911 0.0
O94 O 0.45912 0.85808 0.92343 0.0
H95 H 0.52632 0.90194 0.90331 0.0
H96 H 0.55227 0.90504 0.91896 0.0
C97 C 0.53658 0.89501 0.91733 0.0
H98 H 0.5412 0.87744 0.91307 0.0
H99 H 0.47392 0.88961 0.89034 0.0
O100 O 0.4695 0.8699 0.006 0.0
C101 C 0.44382 0.85925 0.9383 0.0
Co102 Co 0.39084 0.22323 0.21427 0.0
Co103 Co 0.39224 0.23434 0.16208 0.0
C104 C 0.43285 0.24129 0.19312 0.0
O105 O 0.42299 0.23423 0.2111 0.0
O106 O 0.4225 0.24224 0.17416 0.0
C107 C 0.37705 0.20011 0.25651 0.0
O108 O 0.387 0.18195 0.24862 0.0
C109 C 0.39375 0.26132 0.11985 0.0
C110 C 0.37513 0.23851 0.09688 0.0
C111 C 0.38497 0.25963 0.09814 0.0
N112 N 0.38882 0.24217 0.131 0.0
N113 N 0.37799 0.22853 0.11704 0.0
C114 C 0.40742 0.2802 0.12961 0.0
H115 H 0.40816 0.27881 0.1483 0.0
H116 H 0.40047 0.29684 0.12475 0.0
H117 H 0.42484 0.27917 0.12281 0.0
C118 C 0.36071 0.26269 0.21259 0.0
N119 N 0.37166 0.24585 0.20187 0.0
N120 N 0.37005 0.24894 0.17995 0.0
C121 C 0.35684 0.26714 0.17607 0.0
C122 C 0.3509 0.27671 0.19664 0.0
C123 C 0.36135 0.26626 0.23762 0.0
H124 H 0.37872 0.26344 0.244 0.0
H125 H 0.35547 0.28326 0.24265 0.0
H126 H 0.35006 0.25385 0.24572 0.0
O127 O 0.38907 0.19285 0.19898 0.0
O128 O 0.39068 0.20137 0.16263 0.0
H129 H 0.35126 0.26325 0.14041 0.0
H130 H 0.33569 0.28593 0.15315 0.0
C131 C 0.35199 0.27681 0.15325 0.0
H132 H 0.36532 0.28914 0.14882 0.0
H133 H 0.37185 0.21265 0.12153 0.0
O134 O 0.3788 0.21865 0.24577 0.0
C135 C 0.38991 0.18685 0.17832 0.0
Co136 Co 0.03223 0.85815 0.03428 0.0
Co137 Co 0.01003 0.84467 0.08038 0.0
C138 C 0.00576 0.81524 0.03935 0.0
O139 O 0.01863 0.82773 0.02728 0.0
O140 O 1.0005 0.82037 0.05962 0.0
C141 C 0.0387 0.87457 0.98703 0.0
O142 O 0.02219 0.86134 0.9804 0.0
C143 C 0.97574 0.83897 0.11642 0.0
C144 C 0.99737 0.84552 0.14608 0.0
C145 C 0.97509 0.84286 0.13958 0.0
N146 N 0.99735 0.84054 0.10959 0.0
N147 N 0.01021 0.8435 0.12755 0.0
C148 C 0.95616 0.83625 0.10071 0.0
H149 H 0.96128 0.83992 0.08305 0.0
H150 H 0.94192 0.84727 0.10585 0.0
H151 H 0.95016 0.81853 0.10158 0.0
C152 C 0.9979 0.89489 0.03847 0.0
N153 N 0.00982 0.87763 0.0474 0.0
N154 N 1.00202 0.87339 0.0678 0.0
C155 C 0.98563 0.88858 0.07268 0.0
C156 C 0.98183 0.90209 0.05393 0.0
C157 C 1.00101 0.9039 0.0151 0.0
H158 H 0.01889 0.9088 0.01267 0.0
H159 H 0.99651 0.89064 1.00268 0.0
H160 H 0.99037 0.91899 0.01205 0.0
O161 O 0.05903 0.85332 0.05434 0.0
O162 O 0.04266 0.84102 0.08554 0.0
H163 H 0.98295 0.88225 0.10834 0.0
H164 H 0.97041 0.90801 0.09925 0.0
C165 C 0.97318 0.89013 0.09458 0.0
H166 H 0.95632 0.88228 0.09278 0.0
H167 H 0.02763 0.84591 0.12699 0.0
O168 O 0.04495 0.87417 0.00756 0.0
C169 C 0.06031 0.84533 0.07424 0.0
Co170 Co 0.39321 0.77733 0.28946 0.0
Co171 Co 0.4016 0.76064 0.33901 0.0
C172 C 0.43657 0.75605 0.30071 0.0
O173 O 0.42409 0.76421 0.28508 0.0
O174 O 0.42936 0.75377 0.32097 0.0
C175 C 0.37799 0.78531 0.24094 0.0
O176 O 0.39346 0.77181 0.23254 0.0
C177 C 0.39997 0.72826 0.37722 0.0
C178 C 0.40038 0.75262 0.40548 0.0
C179 C 0.39688 0.73005 0.40051 0.0
N180 N 0.40383 0.74907 0.36897 0.0
N181 N 0.4049 0.76333 0.38609 0.0
C182 C 0.39827 0.70758 0.36277 0.0
H183 H 0.39685 0.71218 0.34467 0.0
H184 H 0.3838 0.69692 0.36795 0.0
H185 H 0.41382 0.69742 0.36499 0.0
C186 C 0.35595 0.74366 0.29377 0.0
N187 N 0.37326 0.7555 0.30271 0.0
N188 N 0.37464 0.75097 0.32438 0.0
C189 C 0.35711 0.73754 0.33024 0.0
C190 C 0.34509 0.73179 0.3109 0.0
C191 C 0.35112 0.74243 0.269 0.0
H192 H 0.34053 0.75706 0.26409 0.0
H193 H 0.36715 0.74313 0.25938 0.0
H194 H 0.34209 0.72665 0.26455 0.0
O195 O 0.39773 0.80568 0.3082 0.0
O196 O 0.40227 0.79312 0.34303 0.0
H197 H 0.33082 0.73723 0.35507 0.0
H198 H 0.35162 0.71601 0.35891 0.0
C199 C 0.34921 0.73383 0.35398 0.0
H200 H 0.35813 0.74516 0.3659 0.0
H201 H 0.40716 0.78071 0.38444 0.0
O202 O 0.37717 0.78869 0.26213 0.0
C203 C 0.40146 0.80928 0.32911 0.0
Co204 Co 0.47352 0.13894 0.53697 0.0
Co205 Co 0.48747 0.14729 0.58743 0.0
C206 C 0.49219 0.18298 0.55002 0.0
O207 O 0.48529 0.17043 0.53387 0.0
O208 O 0.49363 0.17563 0.57026 0.0
C209 C 0.47106 0.1249 0.48824 0.0
O210 O 0.48781 0.1385 0.48313 0.0
C211 C 0.52206 0.15126 0.62287 0.0
C212 C 0.50186 0.14359 0.65329 0.0
C213 C 0.52378 0.14714 0.64592 0.0
N214 N 0.50022 0.14944 0.61691 0.0
N215 N 0.48821 0.14536 0.63526 0.0
C216 C 0.54057 0.15738 0.60676 0.0
H217 H 0.54578 0.14237 0.59691 0.0
H218 H 0.55545 0.16413 0.61593 0.0
H219 H 0.53435 0.17011 0.59454 0.0
C220 C 0.50885 0.10339 0.54181 0.0
N221 N 0.4956 0.11979 0.55046 0.0
N222 N 0.49936 0.12135 0.57231 0.0
C223 C 0.51404 0.10496 0.57838 0.0
C224 C 0.52104 0.09356 0.55915 0.0
C225 C 0.5098 0.09701 0.51739 0.0
H226 H 0.49308 0.09051 0.51211 0.0
H227 H 0.51393 0.11213 0.5072 0.0
H228 H 0.52255 0.08372 0.51409 0.0
O229 O 0.44491 0.14041 0.55518 0.0
O230 O 0.45448 0.14589 0.59098 0.0
H231 H 0.52085 0.0808 0.60447 0.0
H232 H 0.53811 0.10535 0.60538 0.0
C233 C 0.52072 0.09935 0.60209 0.0
H234 H 0.50877 0.10672 0.6144 0.0
H235 H 0.47082 0.1426 0.6353 0.0
O236 O 0.46364 0.12429 0.50837 0.0
C237 C 0.43952 0.14339 0.57582 0.0
Co238 Co 0.11039 0.22517 0.78552 0.0
Co239 Co 0.10532 0.24136 0.83591 0.0
C240 C 0.06773 0.24695 0.80212 0.0
O241 O 0.07899 0.2381 0.78589 0.0
O242 O 0.07628 0.24972 0.82175 0.0
C243 C 0.13969 0.20576 0.75446 0.0
O244 O 0.14802 0.19899 0.77386 0.0
C245 C 0.10133 0.2698 0.87694 0.0
C246 C 0.12269 0.24997 0.90025 0.0
C247 C 0.1107 0.26988 0.89841 0.0
N248 N 0.10789 0.25077 0.86645 0.0
N249 N 0.12021 0.23881 0.88066 0.0
C250 C 0.08849 0.2884 0.86577 0.0
H251 H 0.08919 0.28661 0.84712 0.0
H252 H 0.09534 0.30507 0.8709 0.0
H253 H 0.07059 0.28756 0.87122 0.0
C254 C 0.14694 0.26004 0.7874 0.0
N255 N 0.13113 0.24697 0.79743 0.0
N256 N 0.12994 0.25247 0.81893 0.0
C257 C 0.14554 0.26847 0.82342 0.0
C258 C 0.15668 0.27386 0.8036 0.0
C259 C 0.15185 0.26033 0.7626 0.0
H260 H 0.16381 0.24652 0.75858 0.0
H261 H 0.1361 0.25775 0.75285 0.0
H262 H 0.15979 0.27647 0.75741 0.0
O263 O 0.10876 0.19596 0.8031 0.0
O264 O 0.10444 0.20873 0.83797 0.0
H265 H 0.14976 0.26714 0.85931 0.0
H266 H 0.16381 0.29066 0.84609 0.0
C267 C 0.14848 0.27993 0.84575 0.0
H268 H 0.13367 0.29081 0.84908 0.0
H269 H 0.12787 0.22349 0.87658 0.0
O270 O 0.12148 0.21719 0.75463 0.0
C271 C 0.10554 0.19251 0.8241 0.0
Co272 Co 0.47532 0.03527 0.14166 0.0
Co273 Co 0.42542 0.01745 0.14605 0.0
C274 C 0.45573 0.01824 0.18618 0.0
O275 O 0.47257 0.02615 0.17496 0.0
O276 O 0.43684 0.01363 0.17682 0.0
C277 C 0.52565 0.03747 0.13457 0.0
O278 O 0.52878 0.02199 0.15012 0.0
C279 C 0.3826 0.99059 0.1495 0.0
C280 C 0.36679 1.00234 0.11781 0.0
C281 C 0.36414 0.9871 0.13531 0.0
N282 N 0.39577 0.00661 0.14018 0.0
N283 N 0.3859 0.01383 0.12156 0.0
C284 C 0.38752 0.97949 0.17166 0.0
H285 H 0.39759 0.99094 0.18253 0.0
H286 H 0.39748 0.96391 0.16885 0.0
H287 H 0.37158 0.97488 0.18038 0.0
C288 C 0.47707 0.99685 0.10865 0.0
N289 N 0.4657 0.01095 0.12259 0.0
N290 N 0.44524 0.00295 0.12557 0.0
C291 C 0.44328 0.98308 0.11456 0.0
C292 C 0.46336 0.97852 0.10332 0.0
C293 C 0.50059 1.00082 0.10039 0.0
H294 H 0.50281 0.01887 0.0961 0.0
H295 H 0.51271 0.99618 0.11386 0.0
H296 H 0.50428 0.99058 0.08514 0.0
O297 O 0.45695 0.06327 0.138 0.0
O298 O 0.42224 0.05036 0.14246 0.0
H299 H 0.40926 0.97281 0.10826 0.0
H300 H 0.42836 0.94956 0.11292 0.0
C301 C 0.4241 0.96702 0.11806 0.0
H302 H 0.41967 0.96671 0.13618 0.0
H303 H 0.3928 0.02598 0.11083 0.0
O304 O 0.50582 0.04467 0.13078 0.0
C305 C 0.43583 0.06664 0.13965 0.0
Co306 Co 0.2262 0.21806 0.39149 0.0
Co307 Co 0.23716 0.16625 0.3925 0.0
C308 C 0.24443 0.19788 0.43333 0.0
O309 O 0.23785 0.21607 0.42364 0.0
O310 O 0.24475 0.1791 0.42268 0.0
C311 C 0.22398 0.26882 0.38083 0.0
O312 O 0.23983 0.27438 0.3953 0.0
C313 C 0.26904 0.12844 0.3924 0.0
C314 C 0.2486 0.10208 0.37571 0.0
C315 C 0.27031 0.10688 0.38304 0.0
N316 N 0.24786 0.13612 0.38976 0.0
N317 N 0.23562 0.1201 0.38026 0.0
C318 C 0.2873 0.14177 0.40372 0.0
H319 H 0.27991 0.15349 0.4163 0.0
H320 H 0.29642 0.15206 0.39103 0.0
H321 H 0.29946 0.1304 0.41227 0.0
C322 C 0.26182 0.21583 0.35558 0.0
N323 N 0.24785 0.20587 0.37063 0.0
N324 N 0.25043 0.18389 0.36927 0.0
C325 C 0.26536 0.17917 0.35262 0.0
C326 C 0.27344 0.19925 0.34365 0.0
C327 C 0.26545 0.24075 0.35413 0.0
H328 H 0.25137 0.24846 0.34451 0.0
H329 H 0.26568 0.24799 0.37137 0.0
H330 H 0.28161 0.24492 0.34564 0.0
O331 O 0.1964 0.20155 0.39068 0.0
O332 O 0.20407 0.16498 0.39083 0.0
H333 H 0.25564 0.14474 0.34642 0.0
H334 H 0.27426 0.15662 0.32548 0.0
C335 C 0.27032 0.15601 0.3438 0.0
H336 H 0.28525 0.149 0.35255 0.0
H337 H 0.21873 0.12195 0.37569 0.0
O338 O 0.21774 0.24835 0.37916 0.0
C339 C 0.18992 0.18104 0.39071 0.0
Co340 Co 0.03313 0.97619 0.64332 0.0
Co341 Co 0.08388 0.98963 0.65219 0.0
C342 C 0.04688 0.99294 0.68827 0.0
O343 O 0.03084 0.98614 0.67551 0.0
O344 O 0.06718 0.99497 0.68111 0.0
C345 C 0.99134 0.95305 0.62749 0.0
O346 O 0.99543 0.93652 0.64166 0.0
C347 C 0.12268 0.02103 0.65619 0.0
C348 C 0.15 0.99856 0.6444 0.0
C349 C 0.14529 0.02086 0.64967 0.0
N350 N 0.11441 0.99998 0.65386 0.0
N351 N 0.13105 0.98656 0.64755 0.0
C352 C 0.10848 0.04102 0.66224 0.0
H353 H 0.11303 0.05586 0.65178 0.0
H354 H 0.11163 0.04549 0.68016 0.0
H355 H 0.09029 0.03701 0.66027 0.0
C356 C 0.03713 0.01521 0.61295 0.0
N357 N 0.04675 0.99971 0.62649 0.0
N358 N 0.06859 0.00341 0.62746 0.0
C359 C 0.07373 0.02031 0.61296 0.0
C360 C 0.05388 0.02874 0.60388 0.0
C361 C 0.01222 0.01748 0.60946 0.0
H362 H 0.00675 0.00478 0.59691 0.0
H363 H 0.00316 0.01428 0.62555 0.0
H364 H 0.00753 0.03432 0.60289 0.0
O365 O 0.0503 0.94681 0.64256 0.0
O366 O 0.08574 0.95683 0.64907 0.0
H367 H 0.09859 0.03112 0.58895 0.0
H368 H 0.10018 0.04474 0.61568 0.0
C369 C 0.09702 0.02829 0.6074 0.0
H370 H 0.10979 0.01568 0.61244 0.0
H371 H 0.12911 0.96946 0.64381 0.0
O372 O 0.00398 0.97039 0.62742 0.0
C373 C 0.07097 0.94171 0.64564 0.0
Co374 Co 0.28598 0.78603 0.89767 0.0
Co375 Co 0.27598 0.83792 0.89746 0.0
C376 C 0.26895 0.80865 0.9391 0.0
O377 O 0.27482 0.78996 0.92982 0.0
O378 O 0.26882 0.82713 0.92802 0.0
C379 C 0.28958 0.7339 0.88759 0.0
O380 O 0.27835 0.72517 0.90461 0.0
C381 C 0.25087 0.88052 0.90131 0.0
C382 C 0.26897 0.90106 0.87589 0.0
C383 C 0.25059 0.90115 0.89031 0.0
N384 N 0.26846 0.86864 0.8934 0.0
N385 N 0.27952 0.88121 0.87866 0.0
C386 C 0.23336 0.87122 0.91699 0.0
H387 H 0.23394 0.85252 0.91719 0.0
H388 H 0.21626 0.87695 0.91193 0.0
H389 H 0.23671 0.87752 0.93432 0.0
C390 C 0.24873 0.78746 0.86418 0.0
N391 N 0.26422 0.79805 0.87711 0.0
N392 N 0.2606 0.8199 0.87619 0.0
C393 C 0.24284 0.82393 0.86248 0.0
C394 C 0.23456 0.80345 0.85463 0.0
C395 C 0.24713 0.7624 0.86154 0.0
H396 H 0.24586 0.75442 0.87844 0.0
H397 H 0.23254 0.75724 0.85105 0.0
H398 H 0.26266 0.75621 0.85316 0.0
O399 O 0.31638 0.80071 0.89585 0.0
O400 O 0.30868 0.8372 0.89487 0.0
H401 H 0.24523 0.85935 0.85569 0.0
H402 H 0.21955 0.84667 0.8456 0.0
C403 C 0.23211 0.84659 0.85942 0.0
H404 H 0.22328 0.85135 0.87519 0.0
H405 H 0.29358 0.87573 0.86956 0.0
O406 O 0.29189 0.75516 0.88609 0.0
C407 C 0.32279 0.82118 0.89512 0.0
Co408 Co 0.47527 0.96827 0.36158 0.0
Co409 Co 0.42634 0.98741 0.35322 0.0
C410 C 0.46186 0.99335 0.3183 0.0
O411 O 0.47642 0.98244 0.33012 0.0
O412 O 0.44192 0.99724 0.32567 0.0
C413 C 0.52458 0.96783 0.37114 0.0
O414 O 0.52692 0.98383 0.35598 0.0
C415 C 0.3825 0.0131 0.34923 0.0
C416 C 0.36232 0.99181 0.37236 0.0
C417 C 0.36131 0.01105 0.35925 0.0
N418 N 0.39546 0.99591 0.35655 0.0
N419 N 0.38311 0.98322 0.37012 0.0
C420 C 0.38991 0.03034 0.33234 0.0
H421 H 0.40477 0.02419 0.32275 0.0
H422 H 0.39464 0.04618 0.3411 0.0
H423 H 0.37586 0.03427 0.32059 0.0
C424 C 0.47246 1.00203 0.39912 0.0
N425 N 0.46279 0.9896 0.38257 0.0
N426 N 0.44258 0.99778 0.37858 0.0
C427 C 0.43899 0.01589 0.39195 0.0
C428 C 0.45789 0.01931 0.40536 0.0
C429 C 0.49565 0.99822 0.40825 0.0
H430 H 0.49828 0.97997 0.41124 0.0
H431 H 0.50826 0.00435 0.39586 0.0
H432 H 0.49818 0.00736 0.42443 0.0
O433 O 0.45729 0.93966 0.35905 0.0
O434 O 0.42418 0.9545 0.35058 0.0
H435 H 0.40375 0.02336 0.39349 0.0
H436 H 0.42154 0.04746 0.39899 0.0
C437 C 0.41974 0.03189 0.38881 0.0
H438 H 0.41888 0.03669 0.37078 0.0
H439 H 0.38913 0.96888 0.37835 0.0
O440 O 0.50522 0.95905 0.37418 0.0
C441 C 0.43674 0.93743 0.35324 0.0
Co442 Co 0.2789 0.21886 0.61291 0.0
Co443 Co 0.26799 0.16768 0.60355 0.0
C444 C 0.26235 0.20468 0.56771 0.0
O445 O 0.26839 0.22102 0.58053 0.0
O446 O 0.26139 0.18444 0.5751 0.0
C447 C 0.30146 0.26145 0.62714 0.0
O448 O 0.31731 0.2572 0.61221 0.0
C449 C 0.23648 0.12935 0.59986 0.0
C450 C 0.25981 0.10046 0.60294 0.0
C451 C 0.23718 0.10602 0.60152 0.0
N452 N 0.25776 0.13724 0.60074 0.0
N453 N 0.27162 0.11984 0.6022 0.0
C454 C 0.21609 0.1439 0.59677 0.0
H455 H 0.22034 0.16192 0.59958 0.0
H456 H 0.2023 0.13864 0.60826 0.0
H457 H 0.20984 0.14182 0.57923 0.0
C458 C 0.24331 0.21105 0.64781 0.0
N459 N 0.25678 0.20366 0.63094 0.0
N460 N 0.25461 0.18164 0.62917 0.0
C461 C 0.24109 0.17421 0.64601 0.0
C462 C 0.23307 0.19265 0.65797 0.0
C463 C 0.2409 0.23517 0.65478 0.0
H464 H 0.25354 0.23889 0.66804 0.0
H465 H 0.24362 0.24653 0.64017 0.0
H466 H 0.22395 0.23838 0.66206 0.0
O467 O 0.30904 0.2027 0.61298 0.0
O468 O 0.30086 0.16676 0.60628 0.0
H469 H 0.24973 0.13893 0.644 0.0
H470 H 0.2363 0.14727 0.66992 0.0
C471 C 0.2366 0.14996 0.6514 0.0
H472 H 0.21972 0.14525 0.64493 0.0
H473 H 0.28912 0.12124 0.60358 0.0
O474 O 0.28438 0.24848 0.62843 0.0
C475 C 0.31521 0.1823 0.60978 0.0
Co476 Co 0.03987 0.0328 0.86269 0.0
Co477 Co 0.08962 0.0151 0.85823 0.0
C478 C 0.05599 0.00699 0.82141 0.0
O479 O 0.04003 0.01755 0.83168 0.0
O480 O 0.07553 0.00458 0.83024 0.0
C481 C 0.98998 0.03705 0.87431 0.0
O482 O 0.98458 0.01952 0.86182 0.0
C483 C 0.13258 0.98914 0.85479 0.0
C484 C 0.15202 0.00755 0.88087 0.0
C485 C 0.15298 0.98935 0.86629 0.0
N486 N 0.12 0.00633 0.86262 0.0
N487 N 0.13194 0.01749 0.87782 0.0
C488 C 0.12435 0.97175 0.83841 0.0
H489 H 0.10571 0.97231 0.83697 0.0
H490 H 0.12981 0.95466 0.84375 0.0
H491 H 0.13176 0.97522 0.82155 0.0
C492 C 0.04096 0.99954 0.90084 0.0
N493 N 0.05148 0.01222 0.88502 0.0
N494 N 0.07225 0.00479 0.8828 0.0
C495 C 0.07539 0.9869 0.89656 0.0
C496 C 0.05557 0.98284 0.90839 0.0
C497 C 0.01693 1.00243 0.90794 0.0
H498 H 0.01363 0.02047 0.91154 0.0
H499 H 0.0057 0.99664 0.89415 0.0
H500 H 0.0131 0.99254 0.92339 0.0
O501 O 0.05783 0.06126 0.85946 0.0
O502 O 0.09226 0.04777 0.85529 0.0
H503 H 0.09362 0.95638 0.90591 0.0
H504 H 0.0975 0.96586 0.87745 0.0
C505 C 0.09539 0.97153 0.89513 0.0
H506 H 0.11076 0.98085 0.9003 0.0
H507 H 0.12594 0.03139 0.88682 0.0
O508 O 0.01033 0.0439 0.87465 0.0
C509 C 0.07875 0.06427 0.85577 0.0
Co510 Co 0.22288 0.78764 0.11493 0.0
Co511 Co 0.23736 0.83814 0.10886 0.0
C512 C 0.24369 0.80291 0.0719 0.0
O513 O 0.23531 0.78672 0.08351 0.0
O514 O 0.24562 0.82288 0.07999 0.0
C515 C 0.19801 0.74643 0.12856 0.0
O516 O 0.18112 0.75278 0.11571 0.0
C517 C 0.26543 0.87945 0.10468 0.0
C518 C 0.24182 0.90457 0.11904 0.0
C519 C 0.26344 0.90202 0.11069 0.0
N520 N 0.24588 0.86908 0.10968 0.0
N521 N 0.23179 0.88428 0.11797 0.0
C522 C 0.28502 0.86813 0.09345 0.0
H523 H 0.28273 0.84954 0.09338 0.0
H524 H 0.30106 0.87254 0.10199 0.0
H525 H 0.28625 0.87418 0.07576 0.0
C526 C 0.26087 0.79017 0.14736 0.0
N527 N 0.24543 0.80048 0.13418 0.0
N528 N 0.24999 0.82217 0.13349 0.0
C529 C 0.2676 0.82649 0.14737 0.0
C530 C 0.2753 0.8063 0.15632 0.0
C531 C 0.26307 0.76511 0.14966 0.0
H532 H 0.25141 0.75932 0.16301 0.0
H533 H 0.25865 0.75667 0.13354 0.0
H534 H 0.2803 0.75999 0.15475 0.0
O535 O 0.19303 0.80414 0.11356 0.0
O536 O 0.20453 0.83928 0.10918 0.0
H537 H 0.2659 0.86267 0.14893 0.0
H538 H 0.28699 0.85026 0.16695 0.0
C539 C 0.27857 0.84903 0.15027 0.0
H540 H 0.2917 0.8512 0.13714 0.0
H541 H 0.21549 0.88066 0.12355 0.0
O542 O 0.21626 0.75773 0.12859 0.0
C543 C 0.18872 0.82497 0.11051 0.0
Co544 Co 0.14133 0.47253 0.03714 0.0
Co545 Co 0.14197 0.42107 0.02437 0.0
C546 C 0.18284 0.45165 0.01758 0.0
O547 O 0.17339 0.4698 0.02478 0.0
O548 O 0.17211 0.43296 0.01686 0.0
C549 C 0.13111 0.52347 0.04098 0.0
O550 O 0.14478 0.52963 0.02463 0.0
C551 C 0.14596 0.37952 0.9969 0.0
C552 C 0.12003 0.35847 0.01361 0.0
C553 C 0.13467 0.35908 0.99542 0.0
N554 N 0.13799 0.39068 0.015 0.0
N555 N 0.12294 0.37775 0.0252 0.0
C556 C 0.16206 0.38931 0.98005 0.0
H557 H 0.1624 0.40797 0.98133 0.0
H558 H 0.15733 0.38418 0.96265 0.0
H559 H 0.17924 0.38276 0.98355 0.0
C560 C 0.10629 0.47209 1.00084 0.0
N561 N 0.12011 0.46122 0.01535 0.0
N562 N 0.11988 0.43957 0.01045 0.0
C563 C 0.10599 0.43605 0.99266 0.0
C564 C 0.09708 0.4566 0.98583 0.0
C565 C 0.10252 0.49702 1.00074 0.0
H566 H 0.11868 0.5057 0.99708 0.0
H567 H 0.08977 0.50211 0.98803 0.0
H568 H 0.09639 0.50236 0.01759 0.0
O569 O 0.14056 0.45594 0.06656 0.0
O570 O 0.14028 0.41977 0.05747 0.0
H571 H 0.0907 0.41449 0.96714 0.0
H572 H 0.12013 0.41011 0.97208 0.0
C573 C 0.10387 0.41407 0.98037 0.0
H574 H 0.09972 0.40048 0.99249 0.0
H575 H 0.11372 0.38266 0.03941 0.0
O576 O 0.12987 0.5028 0.04658 0.0
C577 C 0.14041 0.43526 0.07224 0.0
Co578 Co 0.64612 0.03992 0.9785 0.0
Co579 Co 0.65568 0.09051 0.991 0.0
C580 C 0.69062 0.05261 0.99674 0.0
O581 O 0.67775 0.0366 0.99009 0.0
O582 O 0.68365 0.07301 0.99778 0.0
C583 C 0.63115 0.99114 0.97612 0.0
O584 O 0.64514 0.98518 0.99223 0.0
C585 C 0.6607 0.12867 0.0229 0.0
C586 C 0.65643 0.15756 0.99976 0.0
C587 C 0.65898 0.152 0.02229 0.0
N588 N 0.65881 0.12078 1.00166 0.0
N589 N 0.65669 0.1382 0.98791 0.0
C590 C 0.66458 0.11415 0.04318 0.0
H591 H 0.66036 0.09629 0.0394 0.0
H592 H 0.65464 0.12028 0.05782 0.0
H593 H 0.68267 0.11513 0.04788 0.0
C594 C 0.61121 0.04637 0.01421 0.0
N595 N 0.62748 0.05449 1.00046 0.0
N596 N 0.62966 0.07631 0.00396 0.0
C597 C 0.61385 0.08289 0.01913 0.0
C598 C 0.60213 0.06404 0.02659 0.0
C599 C 0.60437 0.02211 0.01544 0.0
H600 H 0.59723 0.01689 0.99894 0.0
H601 H 0.61943 0.01162 0.01897 0.0
H602 H 0.59147 0.01913 0.02869 0.0
O603 O 0.64755 0.05683 0.94915 0.0
O604 O 0.65401 0.0926 0.95782 0.0
H605 H 0.6165 0.11879 0.01402 0.0
H606 H 0.59138 0.10982 0.0284 0.0
C607 C 0.60971 0.10667 0.02651 0.0
H608 H 0.61746 0.10943 0.0433 0.0
H609 H 0.65449 0.13684 0.97047 0.0
O610 O 0.63071 0.0115 0.96944 0.0
C611 C 0.65096 0.0772 0.94323 0.0
Co612 Co 0.22353 0.39751 0.22563 0.0
Co613 Co 0.17389 0.40438 0.24264 0.0
C614 C 0.20802 0.44222 0.24421 0.0
O615 O 0.22404 0.42999 0.23624 0.0
O616 O 0.18818 0.43433 0.24768 0.0
C617 C 0.27357 0.38474 0.2174 0.0
O618 O 0.28287 0.40007 0.23046 0.0
C619 C 0.13195 0.40926 0.27065 0.0
C620 C 0.11163 0.38295 0.25364 0.0
C621 C 0.11153 0.39755 0.27191 0.0
N622 N 0.14364 0.4012 0.25287 0.0
N623 N 0.13112 0.38589 0.24258 0.0
C624 C 0.14001 0.42819 0.28535 0.0
H625 H 0.1518 0.43917 0.2758 0.0
H626 H 0.14919 0.42137 0.30013 0.0
H627 H 0.1255 0.43829 0.29155 0.0
C628 C 0.22303 0.3636 0.26266 0.0
N629 N 0.21244 0.37854 0.24911 0.0
N630 N 0.19161 0.3812 0.25623 0.0
C631 C 0.18831 0.36801 0.27459 0.0
C632 C 0.20818 0.35652 0.2794 0.0
C633 C 0.24711 0.35656 0.25989 0.0
H634 H 0.24962 0.34984 0.2426 0.0
H635 H 0.25822 0.37146 0.26215 0.0
H636 H 0.25197 0.34327 0.27212 0.0
O637 O 0.20522 0.39604 0.19744 0.0
O638 O 0.17049 0.40165 0.20965 0.0
H639 H 0.15276 0.36344 0.27868 0.0
H640 H 0.16878 0.35736 0.30383 0.0
C641 C 0.16753 0.36857 0.28893 0.0
H642 H 0.16486 0.38599 0.29502 0.0
H643 H 0.13639 0.37662 0.22854 0.0
O644 O 0.25226 0.38394 0.21536 0.0
C645 C 0.18429 0.39849 0.19361 0.0
Co646 Co 0.86357 0.97083 0.47265 0.0
Co647 Co 0.85752 0.92069 0.48898 0.0
C648 C 0.82256 0.95708 0.49847 0.0
O649 O 0.83296 0.97288 0.48793 0.0
O650 O 0.83093 0.93731 0.50022 0.0
C651 C 0.87421 0.02031 0.46956 0.0
O652 O 0.85747 0.02434 0.48355 0.0
C653 C 0.85691 0.88374 0.52189 0.0
C654 C 0.86332 0.85441 0.49968 0.0
C655 C 0.86087 0.86067 0.52208 0.0
N656 N 0.85753 0.89079 0.50034 0.0
N657 N 0.86097 0.87314 0.48714 0.0
C658 C 0.85183 0.89886 0.54152 0.0
H659 H 0.85675 0.9165 0.53759 0.0
H660 H 0.86032 0.89309 0.55713 0.0
H661 H 0.83336 0.89859 0.54464 0.0
C662 C 0.90179 0.96689 0.50548 0.0
N663 N 0.88513 0.95757 0.49297 0.0
N664 N 0.8842 0.93588 0.49739 0.0
C665 C 0.90094 0.93051 0.51187 0.0
C666 C 0.91233 0.95003 0.51796 0.0
C667 C 0.90551 0.99177 0.50765 0.0
H668 H 0.91439 0.99799 0.49238 0.0
H669 H 0.88899 1.00041 0.50894 0.0
H670 H 0.91565 0.99607 0.52278 0.0
O671 O 0.85882 0.95284 0.44381 0.0
O672 O 0.85368 0.91802 0.45649 0.0
H673 H 0.92539 0.90561 0.52172 0.0
H674 H 0.89851 0.9031 0.53517 0.0
C675 C 0.90692 0.90704 0.51897 0.0
H676 H 0.9017 0.89467 0.50594 0.0
H677 H 0.86262 0.87401 0.46961 0.0
O678 O 0.87776 1.00016 0.46301 0.0
C679 C 0.8543 0.93205 0.44036 0.0
Co680 Co 0.78317 0.11144 0.22318 0.0
Co681 Co 0.83223 0.1007 0.23995 0.0
C682 C 0.79372 0.06631 0.24139 0.0
O683 O 0.77876 0.07967 0.23348 0.0
O684 O 0.81417 0.07252 0.24451 0.0
C685 C 0.73461 0.12616 0.21635 0.0
O686 O 0.72647 0.10968 0.22875 0.0
C687 C 0.86947 0.09596 0.2732 0.0
C688 C 0.89806 0.1055 0.25122 0.0
C689 C 0.89229 0.10155 0.27354 0.0
N690 N 0.86207 0.09773 0.25176 0.0
N691 N 0.87947 0.10255 0.23868 0.0
C692 C 0.85444 0.09131 0.29297 0.0
H693 H 0.83649 0.09406 0.28841 0.0
H694 H 0.85917 0.10193 0.30766 0.0
H695 H 0.85656 0.07342 0.29802 0.0
C696 C 0.78606 0.14406 0.26094 0.0
N697 N 0.79578 0.12889 0.24701 0.0
N698 N 0.81711 0.12647 0.25263 0.0
C699 C 0.82187 0.14127 0.26944 0.0
C700 C 0.80217 0.15229 0.27576 0.0
C701 C 0.76161 0.15029 0.26032 0.0
H702 H 0.75798 0.15899 0.24416 0.0
H703 H 0.75118 0.13478 0.26119 0.0
H704 H 0.7569 0.16181 0.27432 0.0
O705 O 0.8022 0.11121 0.19521 0.0
O706 O 0.83666 0.1035 0.20721 0.0
H707 H 0.84745 0.16382 0.28162 0.0
H708 H 0.84592 0.13759 0.29609 0.0
C709 C 0.84475 0.14548 0.27919 0.0
H710 H 0.85811 0.1392 0.26779 0.0
H711 H 0.87836 0.10557 0.22136 0.0
O712 O 0.75574 0.12761 0.21309 0.0
C713 C 0.82299 0.10755 0.19127 0.0
Co714 Co 0.36496 0.52882 0.5373 0.0
Co715 Co 0.35453 0.57796 0.52166 0.0
C716 C 0.32111 0.53896 0.51658 0.0
O717 O 0.33358 0.52405 0.52587 0.0
O718 O 0.32792 0.55923 0.51402 0.0
C719 C 0.38044 0.48819 0.56258 0.0
O720 O 0.36583 0.49262 0.57868 0.0
C721 C 0.34966 0.61197 0.48637 0.0
C722 C 0.35547 0.64324 0.50584 0.0
C723 C 0.35292 0.63506 0.48403 0.0
N724 N 0.3511 0.60681 0.50842 0.0
N725 N 0.35398 0.62563 0.52002 0.0
C726 C 0.34498 0.59499 0.46821 0.0
H727 H 0.36063 0.58579 0.4638 0.0
H728 H 0.33825 0.60329 0.45282 0.0
H729 H 0.33266 0.58234 0.47443 0.0
C730 C 0.39892 0.53411 0.50024 0.0
N731 N 0.38307 0.54252 0.51432 0.0
N732 N 0.38135 0.56434 0.51088 0.0
C733 C 0.3974 0.57078 0.49598 0.0
C734 C 0.4086 0.55176 0.48828 0.0
C735 C 0.4046 0.50963 0.49793 0.0
H736 H 0.41999 0.50609 0.50791 0.0
H737 H 0.39051 0.49891 0.50394 0.0
H738 H 0.4084 0.50529 0.48011 0.0
O739 O 0.36313 0.54738 0.56603 0.0
O740 O 0.35457 0.58192 0.55439 0.0
H741 H 0.42105 0.59754 0.49013 0.0
H742 H 0.39724 0.59771 0.47187 0.0
C743 C 0.40258 0.59464 0.48951 0.0
H744 H 0.39439 0.60672 0.50116 0.0
H745 H 0.35626 0.62629 0.53748 0.0
O746 O 0.38101 0.50045 0.54498 0.0
C747 C 0.35823 0.56796 0.5702 0.0
Co748 Co 0.21322 0.61705 0.28241 0.0
Co749 Co 0.16245 0.61309 0.26723 0.0
C750 C 0.1972 0.57565 0.25925 0.0
O751 O 0.21393 0.5858 0.26851 0.0
O752 O 0.17785 0.58503 0.25781 0.0
C753 C 0.25549 0.63015 0.30768 0.0
O754 O 0.25004 0.61624 0.32406 0.0
C755 C 0.12692 0.61339 0.23314 0.0
C756 C 0.09774 0.6247 0.25348 0.0
C757 C 0.10468 0.62056 0.23148 0.0
N758 N 0.13291 0.614 0.25502 0.0
N759 N 0.11523 0.62014 0.26715 0.0
C760 C 0.14316 0.6088 0.2143 0.0
H761 H 0.16083 0.60997 0.22038 0.0
H762 H 0.14049 0.62074 0.20013 0.0
H763 H 0.14026 0.59146 0.20786 0.0
C764 C 0.21063 0.65319 0.24748 0.0
N765 N 0.2007 0.63781 0.26105 0.0
N766 N 0.17884 0.63839 0.2576 0.0
C767 C 0.174 0.65509 0.24292 0.0
C768 C 0.19402 0.6647 0.23562 0.0
C769 C 0.23554 0.6548 0.24364 0.0
H770 H 0.24398 0.63873 0.2481 0.0
H771 H 0.23921 0.65886 0.2257 0.0
H772 H 0.24247 0.6686 0.25417 0.0
O773 O 0.19508 0.61434 0.3116 0.0
O774 O 0.15965 0.6116 0.29972 0.0
H775 H 0.15076 0.68189 0.23549 0.0
H776 H 0.14501 0.65595 0.22127 0.0
C777 C 0.15073 0.66326 0.23749 0.0
H778 H 0.13875 0.65861 0.25109 0.0
H779 H 0.11556 0.62271 0.28458 0.0
O780 O 0.2433 0.63105 0.29001 0.0
C781 C 0.17402 0.61168 0.31557 0.0
Co782 Co 0.2829 0.39214 0.77949 0.0
Co783 Co 0.3338 0.39959 0.7672 0.0
C784 C 0.29775 0.43597 0.76067 0.0
O785 O 0.28138 0.42378 0.76773 0.0
O786 O 0.31786 0.42822 0.75947 0.0
C787 C 0.23322 0.38226 0.78014 0.0
O788 O 0.22929 0.40001 0.76748 0.0
C789 C 0.37274 0.40233 0.73627 0.0
C790 C 0.40033 0.39316 0.7596 0.0
C791 C 0.39565 0.39719 0.73702 0.0
N792 N 0.36436 0.40068 0.75733 0.0
N793 N 0.38106 0.39578 0.77124 0.0
C794 C 0.35846 0.40662 0.71588 0.0
H795 H 0.34033 0.40411 0.7199 0.0
H796 H 0.36353 0.39546 0.7017 0.0
H797 H 0.36089 0.42436 0.71042 0.0
C798 C 0.28833 0.35637 0.74463 0.0
N799 N 0.29699 0.37276 0.75788 0.0
N800 N 0.31885 0.3741 0.75437 0.0
C801 C 0.32493 0.35772 0.73962 0.0
C802 C 0.30573 0.34619 0.73263 0.0
C803 C 0.26359 0.35214 0.74189 0.0
H804 H 0.25735 0.34226 0.75653 0.0
H805 H 0.25451 0.36846 0.74135 0.0
H806 H 0.25983 0.34275 0.72612 0.0
O807 O 0.29913 0.39295 0.8094 0.0
O808 O 0.335 0.39842 0.80036 0.0
H809 H 0.35024 0.33298 0.73167 0.0
H810 H 0.35362 0.35947 0.71772 0.0
C811 C 0.34874 0.35152 0.73391 0.0
H812 H 0.36041 0.35702 0.74744 0.0
H813 H 0.37906 0.39293 0.78851 0.0
O814 O 0.25326 0.37802 0.78647 0.0
C815 C 0.31965 0.396 0.81513 0.0
Co816 Co 0.5305 0.63978 0.96924 0.0
Co817 Co 0.51718 0.65054 0.9189 0.0
C818 C 0.51218 0.685 0.95657 0.0
O819 O 0.51922 0.67172 0.97211 0.0
O820 O 0.51039 0.67866 0.93598 0.0
C821 C 0.53265 0.62512 0.01835 0.0
O822 O 0.51737 0.63994 0.02454 0.0
C823 C 0.49014 0.65796 0.87692 0.0
C824 C 0.51381 0.64301 0.85219 0.0
C825 C 0.49249 0.65222 0.85423 0.0
N826 N 0.50913 0.65184 0.88776 0.0
N827 N 0.52327 0.6433 0.87275 0.0
C828 C 0.47085 0.67008 0.88787 0.0
H829 H 0.47633 0.67795 0.90396 0.0
H830 H 0.45695 0.65818 0.89161 0.0
H831 H 0.46414 0.68316 0.87626 0.0
C832 C 0.49442 0.60534 0.96258 0.0
N833 N 0.50832 0.62152 0.95453 0.0
N834 N 0.50381 0.62486 0.93303 0.0
C835 C 0.48751 0.61022 0.92658 0.0
C836 C 0.48073 0.59771 0.94518 0.0
C837 C 0.49388 0.59763 0.98661 0.0
H838 H 0.51057 0.59052 0.99115 0.0
H839 H 0.49047 0.61228 0.99776 0.0
H840 H 0.48082 0.58452 0.98945 0.0
O841 O 0.56005 0.64091 0.95268 0.0
O842 O 0.55005 0.64915 0.91772 0.0
H843 H 0.49086 0.61162 0.8905 0.0
H844 H 0.46957 0.59229 0.90031 0.0
C845 C 0.47761 0.6089 0.90339 0.0
H846 H 0.46443 0.62196 0.90167 0.0
H847 H 0.53914 0.6368 0.87667 0.0
O848 O 0.53893 0.62422 0.99784 0.0
C849 C 0.56517 0.64542 0.93231 0.0
Co850 Co 0.60897 0.28173 0.22454 0.0
Co851 Co 0.60379 0.27009 0.17281 0.0
C852 C 0.56542 0.26449 0.20729 0.0
O853 O 0.57678 0.27114 0.22446 0.0
O854 O 0.57429 0.26329 0.1876 0.0
C855 C 0.6246 0.30576 0.26545 0.0
O856 O 0.61279 0.3232 0.25862 0.0
C857 C 0.60168 0.23889 0.13397 0.0
C858 C 0.6153 0.26091 0.10713 0.0
C859 C 0.60941 0.23874 0.11173 0.0
N860 N 0.60386 0.25998 0.14216 0.0
N861 N 0.6113 0.27316 0.1258 0.0
C862 C 0.59476 0.21912 0.14809 0.0
H863 H 0.59584 0.22334 0.16634 0.0
H864 H 0.60534 0.20416 0.14428 0.0
H865 H 0.57701 0.21474 0.14409 0.0
C866 C 0.63997 0.24303 0.22098 0.0
N867 N 0.62712 0.25898 0.21116 0.0
N868 N 0.62776 0.25631 0.18914 0.0
C869 C 0.64258 0.23965 0.18423 0.0
C870 C 0.65024 0.23024 0.20426 0.0
C871 C 0.64158 0.23963 0.24598 0.0
H872 H 0.65355 0.25211 0.25299 0.0
H873 H 0.62485 0.24242 0.25394 0.0
H874 H 0.6479 0.22262 0.25041 0.0
O875 O 0.61011 0.31155 0.20825 0.0
O876 O 0.60623 0.30306 0.17197 0.0
H877 H 0.64504 0.24566 0.1484 0.0
H878 H 0.66794 0.22995 0.16021 0.0
C879 C 0.64945 0.23258 0.16095 0.0
H880 H 0.64148 0.21623 0.15668 0.0
H881 H 0.61521 0.29021 0.12785 0.0
O882 O 0.62327 0.28718 0.25473 0.0
C883 C 0.60835 0.31754 0.18764 0.0
Co884 Co 0.97589 0.3618 0.47091 0.0
Co885 Co 0.98695 0.36013 0.41891 0.0
C886 C 0.99521 0.31998 0.44952 0.0
O887 O 0.98799 0.32964 0.4676 0.0
O888 O 0.99567 0.33035 0.4306 0.0
C889 C 0.97526 0.37025 0.52214 0.0
O890 O 0.98934 0.35377 0.52671 0.0
C891 C 0.01202 0.35841 0.37552 0.0
C892 C 0.98942 0.37929 0.35443 0.0
C893 C 0.0099 0.36817 0.35431 0.0
N894 N 0.99376 0.36402 0.38776 0.0
N895 N 0.98016 0.37613 0.37489 0.0
C896 C 0.03057 0.3434 0.3838 0.0
H897 H 0.0299 0.34178 0.40246 0.0
H898 H 0.04732 0.34981 0.37855 0.0
H899 H 0.02842 0.32641 0.3762 0.0
C900 C 0.01208 0.39666 0.46853 0.0
N901 N 0.99716 0.38278 0.4583 0.0
N902 N 1.00132 0.38268 0.43647 0.0
C903 C 0.01896 0.39652 0.43216 0.0
C904 C 0.02662 0.40557 0.45242 0.0
C905 C 0.01294 0.40082 0.49344 0.0
H906 H 0.01664 0.38476 0.50227 0.0
H907 H 0.02585 0.41357 0.49801 0.0
H908 H 0.99632 0.40716 0.49917 0.0
O909 O 0.94559 0.3628 0.45605 0.0
O910 O 0.95403 0.36118 0.41973 0.0
H911 H 0.01741 0.40077 0.39627 0.0
H912 H 0.04221 0.41279 0.40882 0.0
C913 C 0.03026 0.39849 0.40963 0.0
H914 H 0.03996 0.3829 0.40632 0.0
H915 H 0.96493 0.38304 0.38039 0.0
O916 O 0.96906 0.37354 0.50186 0.0
C917 C 0.93957 0.36194 0.43547 0.0
Co918 Co 0.89883 0.72617 0.72087 0.0
Co919 Co 0.89848 0.73389 0.66857 0.0
C920 C 0.9397 0.74348 0.69876 0.0
O921 O 0.93058 0.73722 0.71735 0.0
O922 O 0.92871 0.74313 0.68015 0.0
C923 C 0.87839 0.70569 0.76103 0.0
O924 O 0.88164 0.68613 0.75113 0.0
C925 C 0.89611 0.76155 0.62741 0.0
C926 C 0.88441 0.73603 0.60282 0.0
C927 C 0.88841 0.75897 0.60528 0.0
N928 N 0.89575 0.74121 0.63745 0.0
N929 N 0.88934 0.72598 0.6225 0.0
C930 C 0.902 0.78284 0.63971 0.0
H931 H 0.90269 0.77985 0.6582 0.0
H932 H 0.88964 0.79635 0.63596 0.0
H933 H 0.91889 0.78865 0.63408 0.0
C934 C 0.86835 0.76595 0.71689 0.0
N935 N 0.8793 0.7482 0.70767 0.0
N936 N 0.87542 0.74793 0.68583 0.0
C937 C 0.86011 0.76411 0.68089 0.0
C938 C 0.85563 0.77644 0.7003 0.0
C939 C 0.87178 0.77447 0.74047 0.0
H940 H 0.88318 0.76351 0.75027 0.0
H941 H 0.87948 0.7915 0.73997 0.0
H942 H 0.85522 0.77616 0.74907 0.0
O943 O 0.89732 0.69484 0.70688 0.0
O944 O 0.89761 0.70118 0.67004 0.0
H945 H 0.83116 0.76859 0.65986 0.0
H946 H 0.85514 0.78458 0.65149 0.0
C947 C 0.84979 0.76797 0.65817 0.0
H948 H 0.85414 0.75421 0.64629 0.0
H949 H 0.88712 0.70889 0.62607 0.0
O950 O 0.88699 0.72342 0.75245 0.0
C951 C 0.8976 0.68763 0.68656 0.0
Co952 Co 0.53131 0.35764 0.53918 0.0
Co953 Co 0.52182 0.35392 0.59143 0.0
C954 C 0.5106 0.31619 0.55788 0.0
O955 O 0.51786 0.32631 0.54019 0.0
O956 O 0.51126 0.32561 0.57728 0.0
C957 C 0.54723 0.38941 0.50877 0.0
O958 O 0.55444 0.39682 0.5284 0.0
C959 C 0.49166 0.35301 0.63064 0.0
C960 C 0.51538 0.3597 0.65865 0.0
C961 C 0.49278 0.35647 0.65375 0.0
N962 N 0.51265 0.35448 0.62219 0.0
N963 N 0.52679 0.35822 0.63904 0.0
C964 C 0.47123 0.34746 0.61686 0.0
H965 H 0.47497 0.34901 0.59855 0.0
H966 H 0.45689 0.35857 0.62143 0.0
H967 H 0.46605 0.32984 0.62051 0.0
C968 C 0.49742 0.39418 0.54494 0.0
N969 N 0.51139 0.37849 0.55364 0.0
N970 N 0.50973 0.37888 0.57577 0.0
C971 C 0.49556 0.39565 0.5819 0.0
C972 C 0.487 0.40567 0.56255 0.0
C973 C 0.49207 0.39631 0.52031 0.0
H974 H 0.503 0.40948 0.51274 0.0
H975 H 0.49504 0.38007 0.51149 0.0
H976 H 0.47423 0.40143 0.51783 0.0
O977 O 0.5618 0.3559 0.55421 0.0
O978 O 0.55477 0.35304 0.59094 0.0
H979 H 0.48875 0.42156 0.60641 0.0
H980 H 0.47571 0.39495 0.61208 0.0
C981 C 0.4913 0.40302 0.6057 0.0
H982 H 0.50568 0.39839 0.61672 0.0
H983 H 0.54416 0.36035 0.63708 0.0
O984 O 0.53686 0.37052 0.50819 0.0
C985 C 0.56855 0.35367 0.57455 0.0
Co986 Co 0.89192 0.2774 0.78915 0.0
Co987 Co 0.89315 0.2714 0.842 0.0
C988 C 0.93399 0.26252 0.81222 0.0
O989 O 0.92407 0.2673 0.79364 0.0
O990 O 0.92352 0.26324 0.83106 0.0
C991 C 0.87792 0.29523 0.74456 0.0
O992 O 0.88281 0.31539 0.7524 0.0
C993 C 0.89772 0.247 0.88442 0.0
C994 C 0.87704 0.2678 0.90755 0.0
C995 C 0.88932 0.24799 0.90622 0.0
N996 N 0.8906 0.26535 0.87328 0.0
N997 N 0.8786 0.27795 0.88728 0.0
C998 C 0.90997 0.22779 0.8735 0.0
H999 H 0.90733 0.22797 0.85495 0.0
H1000 H 0.90421 0.21142 0.88056 0.0
H1001 H 0.92829 0.22955 0.87692 0.0
C1002 C 0.85716 0.24143 0.79515 0.0
N1003 N 0.87171 0.25666 0.80378 0.0
N1004 N 0.87102 0.25528 0.82593 0.0
C1005 C 0.85549 0.23969 0.83202 0.0
C1006 C 0.84622 0.23039 0.81264 0.0
C1007 C 0.85516 0.23589 0.77066 0.0
H1008 H 0.84248 0.24737 0.76315 0.0
H1009 H 0.87168 0.23803 0.76215 0.0
H1010 H 0.84939 0.21826 0.76809 0.0
O1011 O 0.88975 0.30915 0.8014 0.0
O1012 O 0.89066 0.30391 0.83851 0.0
H1013 H 0.83227 0.22605 0.85663 0.0
H1014 H 0.86171 0.22227 0.86295 0.0
C1015 C 0.84914 0.23414 0.85584 0.0
H1016 H 0.8489 0.24967 0.86623 0.0
H1017 H 0.8706 0.29293 0.88268 0.0
O1018 O 0.88233 0.27798 0.75659 0.0
C1019 C 0.89003 0.31692 0.82152 0.0
Co1020 Co 0.96851 0.63994 0.03398 0.0
Co1021 Co 0.98793 0.65619 0.08058 0.0
C1022 C 0.99104 0.68511 0.03916 0.0
O1023 O 0.97989 0.67122 0.02691 0.0
O1024 O 0.99585 0.68102 0.05976 0.0
C1025 C 0.94705 0.62693 0.99004 0.0
O1026 O 0.93723 0.64677 0.98911 0.0
C1027 C 0.01935 0.66759 0.11795 0.0
C1028 C 0.99694 0.66164 0.14717 0.0
C1029 C 0.01883 0.66722 0.14136 0.0
N1030 N 0.99871 0.66208 0.11028 0.0
N1031 N 0.98531 0.65905 0.12789 0.0
C1032 C 0.03899 0.67339 0.10317 0.0
H1033 H 0.03552 0.66867 0.08535 0.0
H1034 H 0.05454 0.66498 0.10925 0.0
H1035 H 0.04194 0.69186 0.10406 0.0
C1036 C 0.00622 0.6075 0.03949 0.0
N1037 N 0.9922 0.62316 0.04829 0.0
N1038 N 0.99922 0.62849 0.06869 0.0
C1039 C 0.01729 0.61549 0.07383 0.0
C1040 C 0.02274 0.60222 0.05525 0.0
C1041 C 0.00458 0.59873 0.01585 0.0
H1042 H 0.98863 0.58917 0.01419 0.0
H1043 H 0.00416 0.61305 0.00381 0.0
H1044 H 0.0187 0.58724 0.01153 0.0
O1045 O 0.94019 0.64294 0.05262 0.0
O1046 O 0.95497 0.65663 0.08403 0.0
H1047 H 0.01974 0.62315 0.10923 0.0
H1048 H 0.03698 0.60006 0.10013 0.0
C1049 C 0.03047 0.61689 0.0953 0.0
H1050 H 0.04526 0.62803 0.09277 0.0
H1051 H 0.96841 0.65427 0.12677 0.0
O1052 O 0.96009 0.62234 0.00645 0.0
C1053 C 0.93788 0.65108 0.07241 0.0
Co1054 Co 0.61327 0.72656 0.28694 0.0
Co1055 Co 0.61016 0.73641 0.339 0.0
C1056 C 0.571 0.74497 0.30625 0.0
O1057 O 0.58113 0.7381 0.28838 0.0
O1058 O 0.58097 0.74525 0.32538 0.0
C1059 C 0.62574 0.70375 0.24414 0.0
O1060 O 0.61269 0.68693 0.25032 0.0
C1061 C 0.60886 0.76632 0.37853 0.0
C1062 C 0.61731 0.7426 0.40603 0.0
C1063 C 0.61317 0.76511 0.40149 0.0
N1064 N 0.61077 0.74546 0.36981 0.0
N1065 N 0.6155 0.73132 0.38639 0.0
C1066 C 0.60231 0.78669 0.36514 0.0
H1067 H 0.60435 0.78345 0.34678 0.0
H1068 H 0.6124 0.80159 0.37024 0.0
H1069 H 0.58433 0.79061 0.36858 0.0
C1070 C 0.64777 0.76301 0.29149 0.0
N1071 N 0.63327 0.74801 0.30069 0.0
N1072 N 0.63433 0.74967 0.3228 0.0
C1073 C 0.65067 0.76462 0.32834 0.0
C1074 C 0.65938 0.77392 0.30869 0.0
C1075 C 0.65019 0.76711 0.26668 0.0
H1076 H 0.6629 0.75527 0.2598 0.0
H1077 H 0.63388 0.76423 0.25799 0.0
H1078 H 0.65614 0.78449 0.26317 0.0
O1079 O 0.61332 0.69592 0.30205 0.0
O1080 O 0.6107 0.70345 0.33867 0.0
H1081 H 0.65288 0.75694 0.36384 0.0
H1082 H 0.67607 0.77316 0.35287 0.0
C1083 C 0.65758 0.77053 0.35192 0.0
H1084 H 0.64948 0.78661 0.35692 0.0
H1085 H 0.61822 0.71406 0.38418 0.0
O1086 O 0.62636 0.72162 0.25606 0.0
C1087 C 0.61156 0.68939 0.32251 0.0
Co1088 Co 0.96916 0.52817 0.64093 0.0
Co1089 Co 0.91731 0.51708 0.64437 0.0
C1090 C 0.94999 0.50632 0.68236 0.0
O1091 O 0.96729 0.51452 0.67222 0.0
O1092 O 0.93051 0.50595 0.67303 0.0
C1093 C 0.01944 0.52768 0.63 0.0
O1094 O 0.02304 0.50932 0.64186 0.0
C1095 C 0.87382 0.4917 0.64581 0.0
C1096 C 0.8527 0.51523 0.62604 0.0
C1097 C 0.85255 0.49417 0.63611 0.0
N1098 N 0.88605 0.51022 0.64095 0.0
N1099 N 0.87313 0.52435 0.62957 0.0
C1100 C 0.88212 0.47271 0.66023 0.0
H1101 H 0.89438 0.47914 0.67278 0.0
H1102 H 0.89085 0.45998 0.64967 0.0
H1103 H 0.86784 0.46438 0.66907 0.0
C1104 C 0.96491 0.49447 0.60329 0.0
N1105 N 0.95575 0.50819 0.61911 0.0
N1106 N 0.9338 0.50486 0.61954 0.0
C1107 C 0.92834 0.4894 0.6036 0.0
C1108 C 0.94792 0.48201 0.5931 0.0
C1109 C 0.98956 0.49274 0.59827 0.0
H1110 H 0.99612 0.50963 0.59366 0.0
H1111 H 0.99849 0.48665 0.61351 0.0
H1112 H 0.99298 0.481 0.58407 0.0
O1113 O 0.95407 0.55839 0.64246 0.0
O1114 O 0.91788 0.5502 0.64632 0.0
H1115 H 0.89275 0.49439 0.5996 0.0
H1116 H 0.90387 0.47126 0.58333 0.0
C1117 C 0.9051 0.48038 0.59962 0.0
H1118 H 0.90075 0.46839 0.61322 0.0
H1119 H 0.8786 0.53987 0.62331 0.0
O1120 O 0.99981 0.53629 0.62943 0.0
C1121 C 0.93372 0.56454 0.64537 0.0
Co1122 Co 0.72587 0.71731 0.89034 0.0
Co1123 Co 0.73295 0.66496 0.89325 0.0
C1124 C 0.73959 0.6978 0.93348 0.0
O1125 O 0.73557 0.71636 0.92313 0.0
O1126 O 0.73906 0.67894 0.92302 0.0
C1127 C 0.72683 0.76763 0.87918 0.0
O1128 O 0.73842 0.77245 0.89747 0.0
C1129 C 0.76286 0.62581 0.89636 0.0
C1130 C 0.7394 0.59786 0.88856 0.0
C1131 C 0.76182 0.60272 0.89292 0.0
N1132 N 0.74201 0.63428 0.89377 0.0
N1133 N 0.72801 0.61746 0.88945 0.0
C1134 C 0.78307 0.63955 0.9028 0.0
H1135 H 0.77882 0.65778 0.90329 0.0
H1136 H 0.79714 0.63666 0.89081 0.0
H1137 H 0.78898 0.63414 0.91973 0.0
C1138 C 0.76499 0.71081 0.85879 0.0
N1139 N 0.74803 0.70269 0.87172 0.0
N1140 N 0.74799 0.68062 0.87025 0.0
C1141 C 0.76374 0.674 0.85525 0.0
C1142 C 0.7757 0.69283 0.84792 0.0
C1143 C 0.77215 0.73502 0.85894 0.0
H1144 H 0.76297 0.7442 0.84546 0.0
H1145 H 0.76796 0.74283 0.87543 0.0
H1146 H 0.79055 0.73666 0.8559 0.0
O1147 O 0.69487 0.70235 0.88971 0.0
O1148 O 0.70065 0.66539 0.88976 0.0
H1149 H 0.7494 0.64124 0.84866 0.0
H1150 H 0.76957 0.65095 0.82778 0.0
C1151 C 0.76547 0.6505 0.84608 0.0
H1152 H 0.77915 0.64128 0.85468 0.0
H1153 H 0.71079 0.61945 0.88639 0.0
O1154 O 0.7208 0.74736 0.87548 0.0
C1155 C 0.68738 0.68213 0.88974 0.0
Co1156 Co 0.52774 0.47285 0.1485 0.0
Co1157 Co 0.57726 0.4887 0.15884 0.0
C1158 C 0.53926 0.49048 0.1938 0.0
O1159 O 0.52377 0.48327 0.18059 0.0
O1160 O 0.55959 0.49309 0.18709 0.0
C1161 C 0.47922 0.46891 0.13342 0.0
O1162 O 0.47284 0.48464 0.14771 0.0
C1163 C 0.61395 0.52192 0.16604 0.0
C1164 C 0.64369 0.50042 0.15957 0.0
C1165 C 0.63726 0.52241 0.16399 0.0
N1166 N 0.60692 0.50062 0.16249 0.0
N1167 N 0.62486 0.48781 0.15913 0.0
C1168 C 0.59865 0.54115 0.17181 0.0
H1169 H 0.58092 0.53702 0.1674 0.0
H1170 H 0.60409 0.55684 0.16318 0.0
H1171 H 0.5996 0.54428 0.19026 0.0
C1172 C 0.53171 0.51 0.11486 0.0
N1173 N 0.54087 0.49628 0.13055 0.0
N1174 N 0.56219 0.50185 0.13341 0.0
C1175 C 0.56738 0.51865 0.11878 0.0
C1176 C 0.54806 0.52479 0.10708 0.0
C1177 C 0.5076 0.50924 0.10747 0.0
H1178 H 0.50379 0.49225 0.10065 0.0
H1179 H 0.49653 0.51257 0.12219 0.0
H1180 H 0.50399 0.5218 0.09408 0.0
O1181 O 0.54648 0.44468 0.14885 0.0
O1182 O 0.58142 0.45596 0.15568 0.0
H1183 H 0.60356 0.51746 0.12177 0.0
H1184 H 0.59338 0.53327 0.09808 0.0
C1185 C 0.59018 0.52911 0.11604 0.0
H1186 H 0.59083 0.54517 0.1256 0.0
H1187 H 0.62421 0.47058 0.15555 0.0
O1188 O 0.49973 0.46269 0.13295 0.0
C1189 C 0.56726 0.44032 0.15207 0.0
Co1190 Co 0.78126 0.28888 0.39082 0.0
Co1191 Co 0.76984 0.3402 0.39562 0.0
C1192 C 0.76088 0.30581 0.43312 0.0
O1193 O 0.7685 0.28855 0.42251 0.0
O1194 O 0.76064 0.32534 0.42402 0.0
C1195 C 0.78498 0.23874 0.37798 0.0
O1196 O 0.77057 0.23171 0.39331 0.0
C1197 C 0.74019 0.37961 0.39933 0.0
C1198 C 0.7642 0.40731 0.39228 0.0
C1199 C 0.74178 0.40277 0.39688 0.0
N1200 N 0.76079 0.37079 0.3961 0.0
N1201 N 0.7751 0.38744 0.39214 0.0
C1202 C 0.7198 0.36614 0.40572 0.0
H1203 H 0.72286 0.34786 0.40304 0.0
H1204 H 0.70487 0.37164 0.39591 0.0
H1205 H 0.71602 0.36908 0.42385 0.0
C1206 C 0.7464 0.29339 0.3549 0.0
N1207 N 0.76028 0.30263 0.37042 0.0
N1208 N 0.75709 0.32457 0.3708 0.0
C1209 C 0.7417 0.33008 0.35489 0.0
C1210 C 0.73413 0.31045 0.34446 0.0
C1211 C 0.74309 0.26851 0.35215 0.0
H1212 H 0.75684 0.26161 0.34146 0.0
H1213 H 0.74379 0.26025 0.36892 0.0
H1214 H 0.72663 0.26451 0.3442 0.0
O1215 O 0.8111 0.3048 0.39211 0.0
O1216 O 0.80275 0.34103 0.39533 0.0
H1217 H 0.73091 0.3549 0.33072 0.0
H1218 H 0.71969 0.35841 0.35859 0.0
C1219 C 0.73501 0.35368 0.34897 0.0
H1220 H 0.7488 0.36565 0.35302 0.0
H1221 H 0.79226 0.38521 0.38888 0.0
O1222 O 0.78979 0.25959 0.37664 0.0
C1223 C 0.81715 0.3253 0.3942 0.0
Co1224 Co 0.96798 0.47492 0.86124 0.0
Co1225 Co 0.91796 0.48831 0.84979 0.0
C1226 C 0.95684 0.49243 0.81593 0.0
O1227 O 0.97242 0.48589 0.82938 0.0
O1228 O 0.9363 0.49406 0.8223 0.0
C1229 C 0.01625 0.47157 0.87866 0.0
O1230 O 0.02387 0.4862 0.86384 0.0
C1231 C 0.8804 0.52043 0.84486 0.0
C1232 C 0.85155 0.49749 0.85066 0.0
C1233 C 0.85718 0.52007 0.84837 0.0
N1234 N 0.88802 0.49909 0.84594 0.0
N1235 N 0.87061 0.48545 0.84868 0.0
C1236 C 0.89546 0.5406 0.84272 0.0
H1237 H 0.91328 0.53594 0.84611 0.0
H1238 H 0.89002 0.55427 0.85431 0.0
H1239 H 0.89433 0.54714 0.8252 0.0
C1240 C 0.9604 0.50972 0.89666 0.0
N1241 N 0.95297 0.49709 0.87921 0.0
N1242 N 0.93135 0.50103 0.87614 0.0
C1243 C 0.92415 0.51546 0.89235 0.0
C1244 C 0.94241 0.52178 0.90555 0.0
C1245 C 0.98458 0.51136 0.90369 0.0
H1246 H 0.99542 0.51227 0.88846 0.0
H1247 H 0.98774 0.5265 0.91424 0.0
H1248 H 0.98917 0.4961 0.91348 0.0
O1249 O 0.95048 0.44588 0.85955 0.0
O1250 O 0.91522 0.4556 0.85186 0.0
H1251 H 0.89717 0.52192 0.91571 0.0
H1252 H 0.89593 0.53788 0.89024 0.0
C1253 C 0.9 0.52104 0.89718 0.0
H1254 H 0.8886 0.50814 0.88991 0.0
H1255 H 0.87189 0.46802 0.85075 0.0
O1256 O 0.99554 0.46595 0.87837 0.0
C1257 C 0.93002 0.44063 0.8555 0.0
Co1258 Co 0.77795 0.71511 0.11132 0.0
Co1259 Co 0.75939 0.66617 0.10332 0.0
C1260 C 0.75604 0.70419 0.06799 0.0
O1261 O 0.7653 0.71949 0.08015 0.0
O1262 O 0.75282 0.68422 0.0756 0.0
C1263 C 0.78588 0.76333 0.12657 0.0
O1264 O 0.77164 0.77119 0.11152 0.0
C1265 C 0.72327 0.63196 0.10293 0.0
C1266 C 0.74339 0.6015 0.11041 0.0
C1267 C 0.72142 0.60933 0.10882 0.0
N1268 N 0.74533 0.63729 0.10201 0.0
N1269 N 0.75721 0.61882 0.10573 0.0
C1270 C 0.70461 0.64882 0.10063 0.0
H1271 H 0.7112 0.66626 0.10245 0.0
H1272 H 0.69109 0.64562 0.1132 0.0
H1273 H 0.69705 0.64709 0.08358 0.0
C1274 C 0.74326 0.71268 0.14792 0.0
N1275 N 0.75539 0.70305 0.13117 0.0
N1276 N 0.75002 0.68159 0.12986 0.0
C1277 C 0.73544 0.67657 0.14672 0.0
C1278 C 0.73017 0.69623 0.15839 0.0
C1279 C 0.74251 0.73754 0.15222 0.0
H1280 H 0.74319 0.74667 0.13592 0.0
H1281 H 0.72689 0.74255 0.16123 0.0
H1282 H 0.75732 0.74248 0.16256 0.0
O1283 O 0.80535 0.69504 0.10768 0.0
O1284 O 0.79192 0.66054 0.1027 0.0
H1285 H 0.72835 0.65195 0.17235 0.0
H1286 H 0.71184 0.64911 0.14736 0.0
C1287 C 0.72893 0.65316 0.15365 0.0
H1288 H 0.74121 0.64068 0.14709 0.0
H1289 H 0.77478 0.61841 0.10683 0.0
O1290 O 0.79007 0.7423 0.12718 0.0
C1291 C 0.80848 0.67405 0.10403 0.0
Co1292 Co 0.53416 0.53105 0.36838 0.0
Co1293 Co 0.58509 0.51969 0.36129 0.0
C1294 C 0.54916 0.50828 0.32634 0.0
O1295 O 0.5326 0.51676 0.33735 0.0
O1296 O 0.56912 0.5084 0.33437 0.0
C1297 C 0.48482 0.52999 0.37909 0.0
O1298 O 0.48168 0.51534 0.36272 0.0
C1299 C 0.62352 0.4892 0.35752 0.0
C1300 C 0.65173 0.51207 0.36606 0.0
C1301 C 0.64658 0.48967 0.3617 0.0
N1302 N 0.61552 0.51026 0.35987 0.0
N1303 N 0.63251 0.52394 0.36443 0.0
C1304 C 0.60878 0.46901 0.35377 0.0
H1305 H 0.59088 0.47315 0.35742 0.0
H1306 H 0.61429 0.4547 0.36449 0.0
H1307 H 0.6101 0.46374 0.33583 0.0
C1308 C 0.54129 0.49881 0.40684 0.0
N1309 N 0.54908 0.51131 0.38939 0.0
N1310 N 0.57105 0.50861 0.38792 0.0
C1311 C 0.57803 0.49525 0.40504 0.0
C1312 C 0.55935 0.48818 0.41728 0.0
C1313 C 0.51702 0.49717 0.41356 0.0
H1314 H 0.51122 0.51388 0.41965 0.0
H1315 H 0.50677 0.49238 0.39864 0.0
H1316 H 0.51438 0.48463 0.4272 0.0
O1317 O 0.54969 0.56131 0.36541 0.0
O1318 O 0.58559 0.55264 0.35959 0.0
H1319 H 0.61365 0.50211 0.40326 0.0
H1320 H 0.60499 0.48666 0.42793 0.0
C1321 C 0.60205 0.48892 0.40959 0.0
H1322 H 0.60584 0.47261 0.40129 0.0
H1323 H 0.63079 0.54117 0.36761 0.0
O1324 O 0.50441 0.5381 0.38236 0.0
C1325 C 0.57002 0.56719 0.36142 0.0
Co1326 Co 0.73063 0.28002 0.6115 0.0
Co1327 Co 0.73844 0.33174 0.60349 0.0
C1328 C 0.74512 0.29558 0.56667 0.0
O1329 O 0.74044 0.27865 0.57924 0.0
O1330 O 0.74499 0.31578 0.57435 0.0
C1331 C 0.70901 0.23866 0.62774 0.0
O1332 O 0.69187 0.24459 0.61501 0.0
C1333 C 0.76814 0.37092 0.59923 0.0
C1334 C 0.74612 0.39781 0.61269 0.0
C1335 C 0.76822 0.39341 0.60629 0.0
N1336 N 0.7473 0.36252 0.60238 0.0
N1337 N 0.73409 0.37882 0.60986 0.0
C1338 C 0.78722 0.35712 0.59006 0.0
H1339 H 0.79666 0.34927 0.60418 0.0
H1340 H 0.79887 0.3678 0.58001 0.0
H1341 H 0.7806 0.3433 0.5793 0.0
C1342 C 0.77006 0.28841 0.64151 0.0
N1343 N 0.75304 0.29574 0.62833 0.0
N1344 N 0.75319 0.3178 0.62803 0.0
C1345 C 0.7688 0.32543 0.64271 0.0
C1346 C 0.78085 0.30707 0.65135 0.0
C1347 C 0.77717 0.26419 0.64213 0.0
H1348 H 0.77086 0.25514 0.62698 0.0
H1349 H 0.79583 0.26275 0.64264 0.0
H1350 H 0.76992 0.256 0.65734 0.0
O1351 O 0.69959 0.29485 0.61208 0.0
O1352 O 0.70607 0.33133 0.60679 0.0
H1353 H 0.75292 0.3576 0.64829 0.0
H1354 H 0.77376 0.34997 0.66914 0.0
C1355 C 0.76951 0.34937 0.6509 0.0
H1356 H 0.78248 0.35902 0.64155 0.0
H1357 H 0.71723 0.3766 0.61443 0.0
O1358 O 0.72707 0.25027 0.62713 0.0
C1359 C 0.6925 0.31505 0.60957 0.0
Co1360 Co 0.64372 0.97146 0.52896 0.0
Co1361 Co 0.65618 0.92175 0.51537 0.0
C1362 C 0.68955 0.96094 0.51177 0.0
O1363 O 0.67567 0.97601 0.51855 0.0
O1364 O 0.68382 0.94023 0.50984 0.0
C1365 C 0.63027 0.01998 0.53035 0.0
O1366 O 0.64735 0.02477 0.51702 0.0
C1367 C 0.66233 0.8836 0.48367 0.0
C1368 C 0.65571 0.85516 0.50685 0.0
C1369 C 0.65872 0.86038 0.48423 0.0
N1370 N 0.66049 0.89161 0.50489 0.0
N1371 N 0.65732 0.8744 0.51868 0.0
C1372 C 0.66519 0.89833 0.46335 0.0
H1373 H 0.66162 0.91622 0.46763 0.0
H1374 H 0.65412 0.89265 0.44935 0.0
H1375 H 0.68291 0.8971 0.45743 0.0
C1376 C 0.60998 0.96416 0.49235 0.0
N1377 N 0.62652 0.95659 0.50606 0.0
N1378 N 0.6298 0.93498 0.50216 0.0
C1379 C 0.61426 0.92786 0.48697 0.0
C1380 C 0.60171 0.94624 0.47975 0.0
C1381 C 0.60201 0.98809 0.49154 0.0
H1382 H 0.59415 0.99252 0.50797 0.0
H1383 H 0.61664 0.99942 0.48877 0.0
H1384 H 0.58938 0.99076 0.47799 0.0
O1385 O 0.6445 0.95408 0.55829 0.0
O1386 O 0.65348 0.91923 0.54819 0.0
H1387 H 0.6181 0.89211 0.49234 0.0
H1388 H 0.59226 0.90016 0.47892 0.0
C1389 C 0.61056 0.90387 0.48 0.0
H1390 H 0.61766 0.90111 0.46292 0.0
H1391 H 0.65467 0.87595 0.53604 0.0
O1392 O 0.6273 0.99976 0.53681 0.0
C1393 C 0.64899 0.93367 0.56336 0.0
Co1394 Co 0.14527 0.53536 0.47138 0.0
Co1395 Co 0.15308 0.58254 0.49389 0.0
C1396 C 0.19016 0.54927 0.49247 0.0
O1397 O 0.17794 0.53466 0.48209 0.0
O1398 O 0.18243 0.56838 0.49889 0.0
C1399 C 0.13354 0.48636 0.46533 0.0
O1400 O 0.14632 0.48066 0.48253 0.0
C1401 C 0.15684 0.6239 0.5229 0.0
C1402 C 0.12806 0.64245 0.50801 0.0
C1403 C 0.14383 0.64322 0.52513 0.0
N1404 N 0.14865 0.61198 0.50538 0.0
N1405 N 0.13186 0.62349 0.4963 0.0
C1406 C 0.175 0.61592 0.53848 0.0
H1407 H 0.17983 0.59827 0.53454 0.0
H1408 H 0.16919 0.61722 0.55626 0.0
H1409 H 0.19 0.62698 0.53659 0.0
C1410 C 0.10958 0.53365 0.50753 0.0
N1411 N 0.12553 0.54461 0.49539 0.0
N1412 N 0.12981 0.56396 0.50531 0.0
C1413 C 0.11747 0.56558 0.52443 0.0
C1414 C 0.10416 0.5464 0.52653 0.0
C1415 C 0.09943 0.51145 0.50118 0.0
H1416 H 0.09649 0.51087 0.48271 0.0
H1417 H 0.11112 0.49771 0.50604 0.0
H1418 H 0.0831 0.50872 0.50995 0.0
O1419 O 0.14492 0.5558 0.44462 0.0
O1420 O 0.15264 0.58818 0.46129 0.0
H1421 H 0.11376 0.59951 0.53611 0.0
H1422 H 0.11339 0.57884 0.55846 0.0
C1423 C 0.12109 0.58336 0.54202 0.0
H1424 H 0.13942 0.58571 0.54465 0.0
H1425 H 0.12219 0.61775 0.48274 0.0
O1426 O 0.13307 0.50679 0.4589 0.0
C1427 C 0.14945 0.57673 0.44352 0.0
Co1428 Co 0.71962 0.89144 0.72298 0.0
Co1429 Co 0.66797 0.89201 0.73343 0.0
C1430 C 0.69915 0.93291 0.74111 0.0
O1431 O 0.71755 0.92337 0.73486 0.0
O1432 O 0.68047 0.92214 0.74113 0.0
C1433 C 0.77104 0.88039 0.71525 0.0
O1434 O 0.78072 0.89892 0.72264 0.0
C1435 C 0.62956 0.89363 0.76429 0.0
C1436 C 0.60345 0.87611 0.74418 0.0
C1437 C 0.60787 0.88482 0.76545 0.0
N1438 N 0.63777 0.8895 0.74355 0.0
N1439 N 0.62194 0.87948 0.73146 0.0
C1440 C 0.64236 0.90602 0.78225 0.0
H1441 H 0.65281 0.91946 0.77454 0.0
H1442 H 0.65392 0.89427 0.79105 0.0
H1443 H 0.63071 0.91371 0.79476 0.0
C1444 C 0.71775 0.85615 0.75875 0.0
N1445 N 0.7075 0.8707 0.74452 0.0
N1446 N 0.68555 0.86897 0.74703 0.0
C1447 C 0.68112 0.85244 0.76217 0.0
C1448 C 0.7014 0.84406 0.7704 0.0
C1449 C 0.74277 0.85383 0.76105 0.0
H1450 H 0.74929 0.84392 0.74656 0.0
H1451 H 0.75079 0.87075 0.7607 0.0
H1452 H 0.74747 0.84496 0.77684 0.0
O1453 O 0.7037 0.89104 0.69294 0.0
O1454 O 0.66707 0.8906 0.70039 0.0
H1455 H 0.64595 0.84715 0.75509 0.0
H1456 H 0.65796 0.82716 0.77455 0.0
C1457 C 0.658 0.84507 0.76921 0.0
H1458 H 0.65236 0.85527 0.78383 0.0
H1459 H 0.62417 0.8739 0.71488 0.0
O1460 O 0.74969 0.87856 0.71563 0.0
C1461 C 0.68323 0.89102 0.68634 0.0
Co1462 Co 0.3599 0.47539 0.97146 0.0
Co1463 Co 0.35262 0.42488 0.98664 0.0
C1464 C 0.31555 0.45932 0.99134 0.0
O1465 O 0.32763 0.47545 0.98332 0.0
O1466 O 0.32339 0.43934 0.99371 0.0
C1467 C 0.36983 0.52524 0.97081 0.0
O1468 O 0.35411 0.52878 0.98606 0.0
C1469 C 0.34699 0.38218 0.01339 0.0
C1470 C 0.37419 0.36238 0.99725 0.0
C1471 C 0.35893 0.36191 0.01498 0.0
N1472 N 0.35561 0.39418 0.99608 0.0
N1473 N 0.37143 0.38194 0.98625 0.0
C1474 C 0.32736 0.38981 0.02739 0.0
H1475 H 0.33341 0.39922 0.04239 0.0
H1476 H 0.31737 0.37508 0.03325 0.0
H1477 H 0.31643 0.40126 0.01743 0.0
C1478 C 0.39454 0.47266 0.00783 0.0
N1479 N 0.37946 0.46284 0.9938 0.0
N1480 N 0.37622 0.44189 1.00034 0.0
C1481 C 0.38883 0.43792 0.01895 0.0
C1482 C 0.40074 0.45735 0.02442 0.0
C1483 C 0.40237 0.49658 0.00603 0.0
H1484 H 0.40738 0.50019 0.98837 0.0
H1485 H 0.38841 0.50802 0.01095 0.0
H1486 H 0.41708 0.49988 0.01714 0.0
O1487 O 0.36034 0.45824 0.94237 0.0
O1488 O 0.35426 0.42308 0.95329 0.0
H1489 H 0.39232 0.40233 0.02356 0.0
H1490 H 0.39669 0.41834 0.04905 0.0
C1491 C 0.38668 0.41727 0.03331 0.0
H1492 H 0.36879 0.41504 0.03804 0.0
H1493 H 0.38118 0.38748 0.97266 0.0
O1494 O 0.37281 0.50542 0.96315 0.0
C1495 C 0.35725 0.4375 0.93774 0.0
Co1496 Co 0.28155 0.6118 0.7266 0.0
Co1497 Co 0.33362 0.61193 0.73741 0.0
C1498 C 0.30372 0.57007 0.74315 0.0
O1499 O 0.28521 0.57942 0.7369 0.0
O1500 O 0.32218 0.58123 0.74412 0.0
C1501 C 0.24014 0.62636 0.70293 0.0
O1502 O 0.24851 0.61707 0.68461 0.0
C1503 C 0.37452 0.61043 0.76583 0.0
C1504 C 0.39619 0.63417 0.7469 0.0
C1505 C 0.39479 0.62236 0.76706 0.0
N1506 N 0.36417 0.61598 0.7464 0.0
N1507 N 0.37753 0.62962 0.7349 0.0
C1508 C 0.36513 0.59373 0.78232 0.0
H1509 H 0.35502 0.58083 0.77331 0.0
H1510 H 0.35379 0.60233 0.79447 0.0
H1511 H 0.3789 0.58526 0.79175 0.0
C1512 C 0.28263 0.64274 0.76596 0.0
N1513 N 0.29338 0.63125 0.74945 0.0
N1514 N 0.31525 0.63354 0.75218 0.0
C1515 C 0.31908 0.64765 0.76973 0.0
C1516 C 0.29854 0.6536 0.77935 0.0
C1517 C 0.25762 0.64213 0.76956 0.0
H1518 H 0.25133 0.62461 0.76744 0.0
H1519 H 0.25269 0.64866 0.78639 0.0
H1520 H 0.2494 0.65281 0.75668 0.0
O1521 O 0.29716 0.61387 0.69632 0.0
O1522 O 0.33362 0.61416 0.70455 0.0
H1523 H 0.35409 0.65521 0.76442 0.0
H1524 H 0.34175 0.67007 0.78769 0.0
C1525 C 0.34195 0.65379 0.77854 0.0
H1526 H 0.34767 0.64076 0.7906 0.0
H1527 H 0.37324 0.63698 0.71949 0.0
O1528 O 0.25016 0.62369 0.72176 0.0
C1529 C 0.31779 0.61404 0.69016 0.0
Co1530 Co 0.86652 0.03575 0.03398 0.0
Co1531 Co 0.86524 0.0873 0.02176 0.0
C1532 C 0.82452 0.05712 0.01504 0.0
O1533 O 0.83418 0.03906 0.02217 0.0
O1534 O 0.83506 0.07593 0.01418 0.0
C1535 C 0.87664 0.98473 0.0365 0.0
O1536 O 0.86351 0.97905 0.01955 0.0
C1537 C 0.86084 0.13124 0.99788 0.0
C1538 C 0.88895 0.14965 0.0142 0.0
C1539 C 0.87266 0.15147 0.99759 0.0
N1540 N 0.87002 0.11797 0.01383 0.0
N1541 N 0.88647 0.12928 0.02378 0.0
C1542 C 0.8428 0.12381 0.98185 0.0
H1543 H 0.8417 0.10515 0.9813 0.0
H1544 H 0.84616 0.13045 0.96464 0.0
H1545 H 0.82635 0.13061 0.98764 0.0
C1546 C 0.9014 0.03687 0.99734 0.0
N1547 N 0.88758 0.04744 0.01213 0.0
N1548 N 0.88685 0.06898 0.00692 0.0
C1549 C 0.89962 0.07267 0.98835 0.0
C1550 C 0.90922 0.05237 0.98152 0.0
C1551 C 0.90676 0.01223 0.99798 0.0
H1552 H 0.91181 0.00748 0.01534 0.0
H1553 H 0.89156 1.00248 0.99313 0.0
H1554 H 0.9208 0.00787 0.98638 0.0
O1555 O 0.86773 0.05155 0.0637 0.0
O1556 O 0.86703 0.08771 0.0549 0.0
H1557 H 0.90642 0.10805 0.98603 0.0
H1558 H 0.90939 0.09332 0.95951 0.0
C1559 C 0.8995 0.09433 0.97534 0.0
H1560 H 0.88191 0.09861 0.97085 0.0
H1561 H 0.89665 0.12269 0.03653 0.0
O1562 O 0.8777 0.00523 0.04277 0.0
C1563 C 0.86748 0.07217 0.06955 0.0
Co1564 Co 0.72524 0.10937 0.78148 0.0
Co1565 Co 0.67369 0.10488 0.77025 0.0
C1566 C 0.70771 0.06634 0.76324 0.0
O1567 O 0.72469 0.0777 0.7702 0.0
O1568 O 0.68795 0.07505 0.76223 0.0
C1569 C 0.76648 0.12205 0.8058 0.0
O1570 O 0.7593 0.10954 0.82263 0.0
C1571 C 0.63325 0.10766 0.74058 0.0
C1572 C 0.60706 0.11332 0.76651 0.0
C1573 C 0.61044 0.11315 0.74331 0.0
N1574 N 0.64268 0.10576 0.76121 0.0
N1575 N 0.62675 0.10855 0.77655 0.0
C1576 C 0.64638 0.10518 0.71911 0.0
H1577 H 0.66477 0.10474 0.72261 0.0
H1578 H 0.6425 0.11909 0.70723 0.0
H1579 H 0.64156 0.08907 0.71085 0.0
C1580 C 0.72166 0.14376 0.74544 0.0
N1581 N 0.71208 0.12872 0.75957 0.0
N1582 N 0.69006 0.12952 0.75726 0.0
C1583 C 0.68488 0.14651 0.7429 0.0
C1584 C 0.70479 0.15574 0.73448 0.0
C1585 C 0.74644 0.14484 0.74065 0.0
H1586 H 0.75467 0.12857 0.74481 0.0
H1587 H 0.74951 0.14879 0.72258 0.0
H1588 H 0.75413 0.15844 0.75092 0.0
O1589 O 0.70953 0.11055 0.81162 0.0
O1590 O 0.6733 0.1065 0.80347 0.0
H1591 H 0.66268 0.17495 0.74096 0.0
H1592 H 0.65509 0.15204 0.72308 0.0
C1593 C 0.66177 0.15626 0.73999 0.0
H1594 H 0.65015 0.15005 0.75326 0.0
H1595 H 0.62955 0.10843 0.79394 0.0
O1596 O 0.75573 0.12211 0.78721 0.0
C1597 C 0.68903 0.1087 0.81784 0.0
Co1598 Co 0.78447 0.89277 0.28099 0.0
Co1599 Co 0.83403 0.89802 0.26324 0.0
C1600 C 0.79809 0.93357 0.25511 0.0
O1601 O 0.78239 0.92338 0.26597 0.0
O1602 O 0.81769 0.92496 0.2529 0.0
C1603 C 0.73484 0.88349 0.28575 0.0
O1604 O 0.73046 0.90052 0.27226 0.0
C1605 C 0.87098 0.90101 0.23025 0.0
C1606 C 0.90024 0.89314 0.25197 0.0
C1607 C 0.89406 0.89755 0.2299 0.0
N1608 N 0.86377 0.8984 0.2516 0.0
N1609 N 0.8814 0.89411 0.26455 0.0
C1610 C 0.85607 0.90707 0.2108 0.0
H1611 H 0.83809 0.90397 0.21506 0.0
H1612 H 0.86088 0.89746 0.19545 0.0
H1613 H 0.85827 0.92526 0.20699 0.0
C1614 C 0.78621 0.85552 0.247 0.0
N1615 N 0.79667 0.87109 0.25999 0.0
N1616 N 0.81811 0.87178 0.25429 0.0
C1617 C 0.82208 0.85598 0.23826 0.0
C1618 C 0.80186 0.84561 0.23259 0.0
C1619 C 0.76136 0.85115 0.24729 0.0
H1620 H 0.7565 0.84487 0.26422 0.0
H1621 H 0.75219 0.8671 0.24397 0.0
H1622 H 0.75633 0.83828 0.23465 0.0
O1623 O 0.803 0.89694 0.30938 0.0
O1624 O 0.83755 0.90109 0.29582 0.0
H1625 H 0.85838 0.85724 0.23813 0.0
H1626 H 0.84655 0.83391 0.22297 0.0
C1627 C 0.84434 0.85203 0.227 0.0
H1628 H 0.84493 0.86137 0.21082 0.0
H1629 H 0.88046 0.89105 0.28188 0.0
O1630 O 0.75517 0.87947 0.2913 0.0
C1631 C 0.82397 0.90078 0.31235 0.0
H1632 H 0.02674 0.12143 0.55936 0.0
H1633 H 0.06389 0.09234 0.5037 0.0
H1634 H 0.07323 0.05964 0.52659 0.0
H1635 H 0.06868 0.03779 0.56155 0.0
H1636 H 0.03232 0.06668 0.61751 0.0
H1637 H 0.02475 0.1008 0.59545 0.0
C1638 C 0.0371 0.10808 0.55234 0.0
C1639 C 0.04439 0.10935 0.52976 0.0
C1640 C 0.04238 0.0891 0.56559 0.0
C1641 C 0.05787 0.09184 0.52098 0.0
C1642 C 0.06323 0.07303 0.53404 0.0
C1643 C 0.05942 0.05174 0.56895 0.0
C1644 C 0.05086 0.0498 0.59092 0.0
C1645 C 0.05524 0.07127 0.55621 0.0
C1646 C 0.03877 0.06784 0.60042 0.0
C1647 C 0.0345 0.08732 0.58786 0.0
H1648 H 0.22228 0.8202 0.81401 0.0
H1649 H 0.19885 0.77794 0.8683 0.0
H1650 H 0.16357 0.77075 0.84797 0.0
H1651 H 0.13993 0.77562 0.81397 0.0
H1652 H 0.16331 0.8194 0.76055 0.0
H1653 H 0.19762 0.82734 0.78155 0.0
C1654 C 0.20931 0.80962 0.82142 0.0
C1655 C 0.21313 0.79944 0.84242 0.0
C1656 C 0.18896 0.80596 0.80987 0.0
C1657 C 0.19633 0.78566 0.85192 0.0
C1658 C 0.17613 0.78168 0.84039 0.0
C1659 C 0.15237 0.78716 0.80709 0.0
C1660 C 0.14903 0.79673 0.78562 0.0
C1661 C 0.17229 0.79164 0.81925 0.0
C1662 C 0.16541 0.81163 0.77697 0.0
C1663 C 0.18515 0.81617 0.78892 0.0
H1664 H 0.43833 0.95581 0.07242 0.0
H1665 H 0.50194 0.95338 0.10753 0.0
H1666 H 0.5116 0.91826 0.08807 0.0
H1667 H 0.50228 0.88867 0.0601 0.0
H1668 H 0.43757 0.89045 0.02675 0.0
H1669 H 0.42763 0.92469 0.04726 0.0
C1670 C 0.45421 0.94746 0.07597 0.0
C1671 C 0.46949 0.95737 0.09118 0.0
C1672 C 0.4593 0.92687 0.06533 0.0
C1673 C 0.49009 0.94644 0.09548 0.0
C1674 C 0.4955 0.92617 0.08458 0.0
C1675 C 0.48579 0.89622 0.05775 0.0
C1676 C 0.47072 0.88695 0.04186 0.0
C1677 C 0.48024 0.91622 0.06941 0.0
C1678 C 0.44952 0.89719 0.03885 0.0
C1679 C 0.44387 0.91691 0.05044 0.0
H1680 H 0.3142 0.17806 0.34039 0.0
H1681 H 0.27204 0.22702 0.30705 0.0
H1682 H 0.30084 0.23238 0.27794 0.0
H1683 H 0.33725 0.22208 0.26123 0.0
H1684 H 0.37932 0.17248 0.29348 0.0
H1685 H 0.35108 0.16788 0.32348 0.0
C1686 C 0.31128 0.18977 0.32664 0.0
C1687 C 0.29102 0.20221 0.32592 0.0
C1688 C 0.32787 0.19258 0.30981 0.0
C1689 C 0.28759 0.21749 0.30815 0.0
C1690 C 0.30401 0.22047 0.29146 0.0
C1691 C 0.34061 0.21082 0.27517 0.0
C1692 C 0.36071 0.19819 0.27547 0.0
C1693 C 0.32421 0.20813 0.29212 0.0
C1694 C 0.36413 0.18262 0.29302 0.0
C1695 C 0.34796 0.17998 0.31014 0.0
H1696 H 0.07713 0.96439 0.9444 0.0
H1697 H 0.02082 0.95412 0.89958 0.0
H1698 H 0.01136 0.91891 0.9189 0.0
H1699 H 0.01879 0.89125 0.94897 0.0
H1700 H 0.07559 0.90127 0.99345 0.0
H1701 H 0.08553 0.93587 0.97348 0.0
C1702 C 0.06283 0.95436 0.93891 0.0
C1703 C 0.04954 0.96193 0.92081 0.0
C1704 C 0.05776 0.9339 0.94983 0.0
C1705 C 0.03104 0.94884 0.91378 0.0
C1706 C 0.02577 0.9286 0.92467 0.0
C1707 C 0.03357 0.90078 0.95406 0.0
C1708 C 0.04644 0.89359 0.97267 0.0
C1709 C 0.03901 0.92094 0.94272 0.0
C1710 C 0.06538 0.90637 0.97917 0.0
C1711 C 0.07102 0.92626 0.96784 0.0
H1712 H 0.36943 0.7764 0.19631 0.0
H1713 H 0.34354 0.81289 0.25394 0.0
H1714 H 0.30998 0.82323 0.2327 0.0
H1715 H 0.28656 0.81998 0.1985 0.0
H1716 H 0.3123 0.78418 0.14068 0.0
H1717 H 0.34717 0.7755 0.16112 0.0
C1718 C 0.3566 0.78684 0.20413 0.0
C1719 C 0.35905 0.79367 0.22678 0.0
C1720 C 0.33711 0.79267 0.19184 0.0
C1721 C 0.34216 0.80724 0.23659 0.0
C1722 C 0.32286 0.81316 0.22447 0.0
C1723 C 0.29994 0.81045 0.19041 0.0
C1724 C 0.29684 0.80237 0.16835 0.0
C1725 C 0.31994 0.80565 0.20223 0.0
C1726 C 0.31426 0.79019 0.15785 0.0
C1727 C 0.33419 0.7853 0.1695 0.0
H1728 H 0.43338 0.03812 0.43923 0.0
H1729 H 0.4945 0.04671 0.40073 0.0
H1730 H 0.50333 0.08111 0.4218 0.0
H1731 H 0.49401 0.10841 0.4518 0.0
H1732 H 0.43264 0.09984 0.49012 0.0
H1733 H 0.42326 0.06628 0.46813 0.0
C1734 C 0.44859 0.04761 0.43549 0.0
C1735 C 0.46339 0.03981 0.41869 0.0
C1736 C 0.45336 0.06757 0.44743 0.0
C1737 C 0.48306 0.05218 0.41392 0.0
C1738 C 0.488 0.07197 0.4258 0.0
C1739 C 0.47839 0.09944 0.45506 0.0
C1740 C 0.46403 0.1067 0.47254 0.0
C1741 C 0.47329 0.07983 0.44263 0.0
C1742 C 0.444 0.09464 0.47675 0.0
C1743 C 0.43867 0.07536 0.46427 0.0
H1744 H 0.19047 0.20921 0.66026 0.0
H1745 H 0.24169 0.17614 0.69974 0.0
H1746 H 0.21666 0.17591 0.73267 0.0
H1747 H 0.18081 0.18611 0.75043 0.0
H1748 H 0.12959 0.22025 0.71158 0.0
H1749 H 0.1539 0.21896 0.67814 0.0
C1750 C 0.19603 0.20199 0.67614 0.0
C1751 C 0.21776 0.19261 0.67771 0.0
C1752 C 0.18156 0.20207 0.69501 0.0
C1753 C 0.22492 0.18324 0.69821 0.0
C1754 C 0.21065 0.18317 0.717 0.0
C1755 C 0.17481 0.19311 0.73462 0.0
C1756 C 0.15334 0.20323 0.73355 0.0
C1757 C 0.18898 0.19261 0.71561 0.0
C1758 C 0.14598 0.21228 0.71289 0.0
C1759 C 0.15992 0.21164 0.69378 0.0
H1760 H 0.52258 0.06444 0.09747 0.0
H1761 H 0.56936 0.02215 0.13385 0.0
H1762 H 0.59732 0.02713 0.10384 0.0
H1763 H 0.60771 0.04181 0.06611 0.0
H1764 H 0.56037 0.08296 0.0295 0.0
H1765 H 0.53335 0.08012 0.06071 0.0
C1766 C 0.53897 0.0565 0.09905 0.0
C1767 C 0.54377 0.04288 0.11798 0.0
C1768 C 0.5548 0.05908 0.08154 0.0
C1769 C 0.56515 0.03273 0.11956 0.0
C1770 C 0.58113 0.03548 0.10232 0.0
C1771 C 0.59146 0.05016 0.06509 0.0
C1772 C 0.58596 0.06262 0.04565 0.0
C1773 C 0.57599 0.04828 0.08305 0.0
C1774 C 0.56499 0.07348 0.04442 0.0
C1775 C 0.54954 0.07177 0.06222 0.0
H1776 H 0.24364 0.3087 0.36814 0.0
H1777 H 0.18764 0.26462 0.35305 0.0
H1778 H 0.17776 0.28777 0.32053 0.0
H1779 H 0.18617 0.31942 0.29493 0.0
H1780 H 0.24183 0.36371 0.30987 0.0
H1781 H 0.25089 0.34154 0.34354 0.0
C1782 C 0.22906 0.30437 0.35797 0.0
C1783 C 0.21643 0.2849 0.36311 0.0
C1784 C 0.22362 0.31761 0.33896 0.0
C1785 C 0.19771 0.27946 0.34952 0.0
C1786 C 0.19207 0.29265 0.33082 0.0
C1787 C 0.20017 0.32424 0.30569 0.0
C1788 C 0.21344 0.34301 0.29987 0.0
C1789 C 0.20512 0.31154 0.32514 0.0
C1790 C 0.23159 0.3491 0.31386 0.0
C1791 C 0.23667 0.33652 0.33319 0.0
H1792 H 0.99237 0.97055 0.58529 0.0
H1793 H 0.95201 0.92882 0.62914 0.0
H1794 H 0.92393 0.92423 0.59906 0.0
H1795 H 0.91071 0.9327 0.56047 0.0
H1796 H 0.95199 0.9733 0.51637 0.0
H1797 H 0.97967 0.97835 0.54665 0.0
C1798 C 0.97721 0.96085 0.58845 0.0
C1799 C 0.97402 0.95049 0.60961 0.0
C1800 C 0.96137 0.95812 0.57104 0.0
C1801 C 0.95476 0.93712 0.61307 0.0
C1802 C 0.93873 0.9345 0.59589 0.0
C1803 C 0.92594 0.94235 0.55739 0.0
C1804 C 0.92937 0.95258 0.53618 0.0
C1805 C 0.94187 0.94493 0.5748 0.0
C1806 C 0.94893 0.96544 0.5326 0.0
C1807 C 0.96476 0.96826 0.54987 0.0
H1808 H 0.27787 0.69 0.87788 0.0
H1809 H 0.314 0.74744 0.85119 0.0
H1810 H 0.31899 0.72815 0.81534 0.0
H1811 H 0.3115 0.6959 0.79056 0.0
H1812 H 0.27817 0.63712 0.81727 0.0
H1813 H 0.27312 0.65613 0.85374 0.0
C1814 C 0.28713 0.69814 0.86435 0.0
C1815 C 0.29534 0.72025 0.8673 0.0
C1816 C 0.29004 0.6869 0.84353 0.0
C1817 C 0.30732 0.7305 0.84948 0.0
C1818 C 0.31013 0.71954 0.82884 0.0
C1819 C 0.30335 0.6872 0.80447 0.0
C1820 C 0.29502 0.6653 0.80124 0.0
C1821 C 0.30125 0.69792 0.82554 0.0
C1822 C 0.28432 0.65422 0.81929 0.0
C1823 C 0.28164 0.66499 0.84018 0.0
H1824 H 0.60619 0.96855 0.44014 0.0
H1825 H 0.5606 0.92577 0.47725 0.0
H1826 H 0.53359 0.92693 0.44595 0.0
H1827 H 0.52239 0.94133 0.40875 0.0
H1828 H 0.56742 0.98529 0.37199 0.0
H1829 H 0.59531 0.98221 0.40222 0.0
C1830 C 0.59031 0.95951 0.44127 0.0
C1831 C 0.58533 0.94702 0.46085 0.0
C1832 C 0.57485 0.96039 0.42325 0.0
C1833 C 0.56483 0.93528 0.46221 0.0
C1834 C 0.54939 0.93601 0.44436 0.0
C1835 C 0.5384 0.95006 0.40716 0.0
C1836 C 0.54271 0.96357 0.38803 0.0
C1837 C 0.55418 0.9486 0.42484 0.0
C1838 C 0.56358 0.97476 0.38643 0.0
C1839 C 0.57952 0.97311 0.4038 0.0
H1840 H 0.28362 0.26339 0.66925 0.0
H1841 H 0.3272 0.29979 0.6238 0.0
H1842 H 0.33295 0.32901 0.6526 0.0
H1843 H 0.32484 0.34452 0.69065 0.0
H1844 H 0.28237 0.30685 0.73622 0.0
H1845 H 0.2767 0.27789 0.70736 0.0
C1846 C 0.29409 0.27785 0.66548 0.0
C1847 C 0.30459 0.27958 0.64422 0.0
C1848 C 0.29757 0.29432 0.68221 0.0
C1849 C 0.31877 0.29811 0.63995 0.0
C1850 C 0.32208 0.31481 0.65643 0.0
C1851 C 0.31462 0.3298 0.69433 0.0
C1852 C 0.30388 0.3279 0.7155 0.0
C1853 C 0.31155 0.31309 0.67765 0.0
C1854 C 0.29052 0.30885 0.71996 0.0
C1855 C 0.28731 0.29227 0.70348 0.0
H1856 H 0.95021 0.01824 0.88872 0.0
H1857 H 0.99579 0.07362 0.90165 0.0
H1858 H 0.97508 0.0831 0.93591 0.0
H1859 H 0.94569 0.07407 0.9639 0.0
H1860 H 0.899 0.01999 0.95037 0.0
H1861 H 0.91869 0.01133 0.91509 0.0
C1862 C 0.95536 0.03266 0.89877 0.0
C1863 C 0.97466 0.04508 0.89256 0.0
C1864 C 0.94346 0.03797 0.91871 0.0
C1865 C 0.98107 0.06366 0.90597 0.0
C1866 C 0.96931 0.06905 0.9257 0.0
C1867 C 0.93972 0.06055 0.95307 0.0
C1868 C 0.92112 0.04751 0.95989 0.0
C1869 C 0.95079 0.05603 0.93252 0.0
C1870 C 0.91359 0.02998 0.94575 0.0
C1871 C 0.92472 0.02515 0.92546 0.0
H1872 H 0.17405 0.66573 0.19424 0.0
H1873 H 0.22105 0.70173 0.23662 0.0
H1874 H 0.22675 0.72973 0.20687 0.0
H1875 H 0.21746 0.74445 0.16956 0.0
H1876 H 0.17027 0.70933 0.12686 0.0
H1877 H 0.16477 0.68076 0.15639 0.0
C1878 C 0.18529 0.67988 0.19705 0.0
C1879 C 0.19706 0.68178 0.21762 0.0
C1880 C 0.18833 0.696 0.1799 0.0
C1881 C 0.21198 0.69986 0.22086 0.0
C1882 C 0.21515 0.7159 0.20391 0.0
C1883 C 0.2065 0.73023 0.16641 0.0
C1884 C 0.19483 0.72865 0.1458 0.0
C1885 C 0.20344 0.7141 0.1834 0.0
C1886 C 0.17963 0.71076 0.1425 0.0
C1887 C 0.17651 0.69447 0.15937 0.0
H1888 H 0.11614 0.56272 0.02178 0.0
H1889 H 0.10428 0.5178 0.07788 0.0
H1890 H 0.06989 0.53821 0.08747 0.0
H1891 H 0.04134 0.56692 0.07811 0.0
H1892 H 0.05335 0.61235 0.02266 0.0
H1893 H 0.08914 0.5935 0.0144 0.0
C1894 C 0.10631 0.5577 0.03639 0.0
C1895 C 0.11283 0.53868 0.04901 0.0
C1896 C 0.08623 0.56933 0.04166 0.0
C1897 C 0.09968 0.53232 0.06779 0.0
C1898 C 0.07989 0.54392 0.07325 0.0
C1899 C 0.05198 0.57285 0.06445 0.0
C1900 C 0.04464 0.59081 0.05087 0.0
C1901 C 0.0727 0.56211 0.06 0.0
C1902 C 0.05849 0.59825 0.03308 0.0
C1903 C 0.07902 0.58759 0.02846 0.0
H1904 H 0.61758 0.95131 0.99503 0.0
H1905 H 0.60345 0.99674 0.93988 0.0
H1906 H 0.57054 0.97439 0.92947 0.0
H1907 H 0.54436 0.94304 0.93719 0.0
H1908 H 0.5585 0.89744 0.99199 0.0
H1909 H 0.59248 0.91883 1.00153 0.0
C1910 C 0.6075 0.95613 0.98054 0.0
C1911 C 0.61301 0.97572 0.96832 0.0
C1912 C 0.58832 0.94335 0.97477 0.0
C1913 C 0.59961 0.98179 0.94967 0.0
C1914 C 0.58069 0.96906 0.94371 0.0
C1915 C 0.55502 0.93777 0.95111 0.0
C1916 C 0.54887 0.91889 0.96401 0.0
C1917 C 0.57466 0.95003 0.95635 0.0
C1918 C 0.56272 0.91219 0.98205 0.0
C1919 C 0.58223 0.9243 0.98742 0.0
H1920 H 0.30926 0.29037 0.18406 0.0
H1921 H 0.36966 0.31326 0.21732 0.0
H1922 H 0.35179 0.34961 0.22567 0.0
H1923 H 0.31798 0.37406 0.22525 0.0
H1924 H 0.25844 0.35124 0.18988 0.0
H1925 H 0.27716 0.31614 0.1801 0.0
C1926 C 0.31856 0.30348 0.19285 0.0
C1927 C 0.34051 0.29912 0.20044 0.0
C1928 C 0.30836 0.32442 0.19714 0.0
C1929 C 0.35249 0.31616 0.21179 0.0
C1930 C 0.34234 0.33696 0.21643 0.0
C1931 C 0.30924 0.36157 0.2151 0.0
C1932 C 0.28672 0.36528 0.20862 0.0
C1933 C 0.32013 0.34119 0.20946 0.0
C1934 C 0.27571 0.34887 0.19536 0.0
C1935 C 0.28636 0.32867 0.18976 0.0
H1936 H 0.94225 0.10286 0.46527 0.0
H1937 H 0.98077 0.05491 0.42652 0.0
H1938 H 0.9502 0.02719 0.42989 0.0
H1939 H 0.91301 0.01628 0.44488 0.0
H1940 H 0.87439 0.06432 0.48379 0.0
H1941 H 0.9043 0.09233 0.47917 0.0
C1942 C 0.94384 0.08631 0.45759 0.0
C1943 C 0.96366 0.08082 0.4457 0.0
C1944 C 0.92615 0.07054 0.45957 0.0
C1945 C 0.9656 0.05946 0.43567 0.0
C1946 C 0.94814 0.04364 0.43763 0.0
C1947 C 0.91098 0.03294 0.45218 0.0
C1948 C 0.89136 0.03809 0.4647 0.0
C1949 C 0.92837 0.04896 0.44962 0.0
C1950 C 0.8892 0.05981 0.47405 0.0
C1951 C 0.90637 0.07585 0.4715 0.0
H1952 H 0.69024 0.13411 0.22674 0.0
H1953 H 0.74718 0.1623 0.19094 0.0
H1954 H 0.72616 0.19677 0.1839 0.0
H1955 H 0.69256 0.22019 0.19008 0.0
H1956 H 0.63496 0.19199 0.2243 0.0
H1957 H 0.65531 0.15651 0.2301 0.0
C1958 C 0.69793 0.14766 0.21713 0.0
C1959 C 0.72035 0.14558 0.20959 0.0
C1960 C 0.68575 0.16765 0.21316 0.0
C1961 C 0.73001 0.16338 0.19712 0.0
C1962 C 0.71803 0.18321 0.19311 0.0
C1963 C 0.68441 0.20613 0.19849 0.0
C1964 C 0.66249 0.20868 0.207 0.0
C1965 C 0.69606 0.18571 0.2014 0.0
C1966 C 0.65207 0.19046 0.21802 0.0
C1967 C 0.66363 0.17016 0.2212 0.0
H1968 H 0.42055 0.48559 0.54115 0.0
H1969 H 0.38018 0.4519 0.59145 0.0
H1970 H 0.40988 0.42348 0.59628 0.0
H1971 H 0.44706 0.40789 0.58534 0.0
H1972 H 0.48736 0.44279 0.53573 0.0
H1973 H 0.45766 0.47095 0.53109 0.0
C1974 C 0.41805 0.47189 0.55294 0.0
C1975 C 0.39801 0.47067 0.56562 0.0
C1976 C 0.43519 0.45587 0.55571 0.0
C1977 C 0.3954 0.45315 0.58138 0.0
C1978 C 0.41237 0.43692 0.58413 0.0
C1979 C 0.44946 0.42188 0.5738 0.0
C1980 C 0.46936 0.4233 0.56087 0.0
C1981 C 0.43234 0.43811 0.57135 0.0
C1982 C 0.47208 0.44123 0.54566 0.0
C1983 C 0.45515 0.45736 0.54306 0.0
H1984 H 0.34141 0.69005 0.32998 0.0
H1985 H 0.306 0.73678 0.28698 0.0
H1986 H 0.27571 0.70924 0.28163 0.0
H1987 H 0.25919 0.67197 0.28934 0.0
H1988 H 0.29354 0.62567 0.33356 0.0
H1989 H 0.32407 0.65311 0.3388 0.0
C1990 C 0.32687 0.69437 0.31978 0.0
C1991 C 0.32601 0.71548 0.30885 0.0
C1992 C 0.30937 0.67848 0.31698 0.0
C1993 C 0.30724 0.72058 0.29532 0.0
C1994 C 0.28988 0.70485 0.29233 0.0
C1995 C 0.27353 0.66771 0.2998 0.0
C1996 C 0.27428 0.64657 0.31064 0.0
C1997 C 0.29083 0.68369 0.30294 0.0
C1998 C 0.2926 0.64172 0.32488 0.0
C1999 C 0.31006 0.65742 0.32788 0.0
H2000 H 0.15082 0.31403 0.78251 0.0
H2001 H 0.19975 0.27414 0.81839 0.0
H2002 H 0.22748 0.30466 0.81521 0.0
H2003 H 0.2377 0.34237 0.80216 0.0
H2004 H 0.18903 0.38278 0.76612 0.0
H2005 H 0.16113 0.35251 0.76967 0.0
C2006 C 0.16765 0.31209 0.78941 0.0
C2007 C 0.17351 0.29194 0.80042 0.0
C2008 C 0.18337 0.32982 0.7877 0.0
C2009 C 0.19512 0.28953 0.80968 0.0
C2010 C 0.21086 0.30697 0.80794 0.0
C2011 C 0.22096 0.34472 0.79518 0.0
C2012 C 0.21551 0.36491 0.78389 0.0
C2013 C 0.20515 0.32719 0.79704 0.0
C2014 C 0.1937 0.36749 0.77495 0.0
C2015 C 0.17776 0.35013 0.77688 0.0
H2016 H 0.5677 0.53716 0.06732 0.0
H2017 H 0.51961 0.559 0.11733 0.0
H2018 H 0.51141 0.59285 0.09518 0.0
H2019 H 0.51672 0.61541 0.06066 0.0
H2020 H 0.56518 0.59348 0.01078 0.0
H2021 H 0.57476 0.56095 0.03395 0.0
C2022 C 0.55573 0.54955 0.07349 0.0
C2023 C 0.54425 0.54567 0.09385 0.0
C2024 C 0.55116 0.56901 0.06068 0.0
C2025 C 0.5285 0.56163 0.10156 0.0
C2026 C 0.52386 0.58099 0.08894 0.0
C2027 C 0.52958 0.60369 0.05499 0.0
C2028 C 0.54009 0.60693 0.03392 0.0
C2029 C 0.53491 0.58477 0.06834 0.0
C2030 C 0.55669 0.59144 0.02686 0.0
C2031 C 0.56218 0.57274 0.04008 0.0
H2032 H 0.66591 0.28648 0.26613 0.0
H2033 H 0.6237 0.33286 0.30294 0.0
H2034 H 0.65396 0.33872 0.33063 0.0
H2035 H 0.69241 0.3301 0.34451 0.0
H2036 H 0.73482 0.28495 0.30627 0.0
H2037 H 0.70433 0.27873 0.27919 0.0
C2038 C 0.66311 0.29744 0.2805 0.0
C2039 C 0.64236 0.30871 0.28284 0.0
C2040 C 0.68069 0.30099 0.29601 0.0
C2041 C 0.63943 0.32377 0.30094 0.0
C2042 C 0.65674 0.32715 0.31673 0.0
C2043 C 0.69507 0.31918 0.33007 0.0
C2044 C 0.71585 0.30792 0.32744 0.0
C2045 C 0.67748 0.31587 0.3144 0.0
C2046 C 0.71891 0.29356 0.30881 0.0
C2047 C 0.7015 0.29005 0.2933 0.0
H2048 H 0.97006 0.4427 0.60094 0.0
H2049 H 0.93126 0.47783 0.55057 0.0
H2050 H 0.93492 0.44563 0.52481 0.0
H2051 H 0.94996 0.40811 0.51633 0.0
H2052 H 0.98952 0.37285 0.56627 0.0
H2053 H 0.98449 0.40431 0.59264 0.0
C2054 C 0.96248 0.44321 0.58428 0.0
C2055 C 0.95043 0.46253 0.57754 0.0
C2056 C 0.96467 0.4246 0.56961 0.0
C2057 C 0.94053 0.46307 0.55605 0.0
C2058 C 0.94263 0.44469 0.54138 0.0
C2059 C 0.95735 0.40712 0.53305 0.0
C2060 C 0.97015 0.38802 0.53923 0.0
C2061 C 0.95471 0.4254 0.54796 0.0
C2062 C 0.97955 0.38722 0.56101 0.0
C2063 C 0.97679 0.40529 0.57607 0.0
H2064 H 0.78883 0.72335 0.81576 0.0
H2065 H 0.8108 0.66302 0.84993 0.0
H2066 H 0.84433 0.66138 0.82625 0.0
H2067 H 0.86732 0.67668 0.79498 0.0
H2068 H 0.84748 0.73925 0.7639 0.0
H2069 H 0.81396 0.741 0.78774 0.0
C2070 C 0.80111 0.71005 0.81831 0.0
C2071 C 0.79681 0.69296 0.83419 0.0
C2072 C 0.82104 0.7098 0.80534 0.0
C2073 C 0.81299 0.67582 0.83713 0.0
C2074 C 0.83245 0.67506 0.82382 0.0
C2075 C 0.85581 0.69085 0.79373 0.0
C2076 C 0.86003 0.70794 0.77786 0.0
C2077 C 0.83658 0.69184 0.80771 0.0
C2078 C 0.84493 0.72617 0.77634 0.0
C2079 C 0.82557 0.72703 0.78979 0.0
H2080 H 0.54051 0.4463 0.4181 0.0
H2081 H 0.57714 0.49396 0.45904 0.0
H2082 H 0.57749 0.46718 0.4905 0.0
H2083 H 0.56712 0.43056 0.50642 0.0
H2084 H 0.53007 0.38252 0.46608 0.0
H2085 H 0.53029 0.40895 0.43425 0.0
C2086 C 0.54848 0.45073 0.43398 0.0
C2087 C 0.55885 0.47199 0.43636 0.0
C2088 C 0.54864 0.43516 0.45199 0.0
C2089 C 0.56921 0.47762 0.45688 0.0
C2090 C 0.56939 0.46233 0.47483 0.0
C2091 C 0.55918 0.42572 0.49065 0.0
C2092 C 0.54865 0.40447 0.48869 0.0
C2093 C 0.55919 0.44106 0.47256 0.0
C2094 C 0.53842 0.39866 0.46807 0.0
C2095 C 0.53845 0.41383 0.44988 0.0
H2096 H 0.79646 0.27453 0.68081 0.0
H2097 H 0.81303 0.34067 0.65508 0.0
H2098 H 0.84382 0.34357 0.68182 0.0
H2099 H 0.86568 0.32748 0.71364 0.0
H2100 H 0.85679 0.25706 0.72926 0.0
H2101 H 0.82435 0.25507 0.70427 0.0
C2102 C 0.80709 0.28932 0.68016 0.0
C2103 C 0.80134 0.30771 0.66626 0.0
C2104 C 0.82643 0.29001 0.69389 0.0
C2105 C 0.81563 0.32676 0.6665 0.0
C2106 C 0.8338 0.32827 0.68149 0.0
C2107 C 0.85688 0.3116 0.71135 0.0
C2108 C 0.86267 0.29284 0.72472 0.0
C2109 C 0.8392 0.31007 0.69552 0.0
C2110 C 0.8517 0.27219 0.72061 0.0
C2111 C 0.83326 0.27096 0.70602 0.0
H2112 H 0.92695 0.56492 0.90504 0.0
H2113 H 0.95922 0.51578 0.94776 0.0
H2114 H 0.96279 0.54384 0.9779 0.0
H2115 H 0.95773 0.58241 0.99156 0.0
H2116 H 0.92661 0.63233 0.94878 0.0
H2117 H 0.92114 0.60381 0.91931 0.0
C2118 C 0.93449 0.56037 0.92108 0.0
C2119 C 0.94289 0.5384 0.92425 0.0
C2120 C 0.93674 0.57671 0.93821 0.0
C2121 C 0.95282 0.53266 0.94496 0.0
C2122 C 0.95484 0.54868 0.96215 0.0
C2123 C 0.94999 0.5872 0.97573 0.0
C2124 C 0.94298 0.60963 0.9723 0.0
C2125 C 0.94714 0.57081 0.95885 0.0
C2126 C 0.9323 0.61525 0.95187 0.0
C2127 C 0.92919 0.59894 0.93499 0.0
H2128 H 0.66795 0.72105 0.24158 0.0
H2129 H 0.62124 0.67837 0.20574 0.0
H2130 H 0.64948 0.67208 0.17606 0.0
H2131 H 0.68744 0.67919 0.16021 0.0
H2132 H 0.73461 0.72023 0.19747 0.0
H2133 H 0.70607 0.72711 0.22653 0.0
C2134 C 0.66378 0.71076 0.22706 0.0
C2135 C 0.64233 0.70064 0.2256 0.0
C2136 C 0.68023 0.70689 0.21038 0.0
C2137 C 0.63754 0.68653 0.20713 0.0
C2138 C 0.6537 0.68291 0.1902 0.0
C2139 C 0.69158 0.68933 0.17487 0.0
C2140 C 0.71312 0.69926 0.17663 0.0
C2141 C 0.67514 0.69296 0.19168 0.0
C2142 C 0.71808 0.71267 0.19556 0.0
C2143 C 0.70179 0.71655 0.21221 0.0
H2144 H 0.0724 0.57116 0.54845 0.0
H2145 H 0.10546 0.50645 0.54941 0.0
H2146 H 0.08347 0.49539 0.5826 0.0
H2147 H 0.0541 0.50387 0.61096 0.0
H2148 H 0.02142 0.5689 0.61 0.0
H2149 H 0.04446 0.58032 0.5778 0.0
C2150 C 0.07484 0.55469 0.55604 0.0
C2151 C 0.09036 0.53957 0.54637 0.0
C2152 C 0.06242 0.54861 0.57536 0.0
C2153 C 0.09329 0.51823 0.55627 0.0
C2154 C 0.08089 0.51199 0.5754 0.0
C2155 C 0.05235 0.52069 0.60399 0.0
C2156 C 0.0361 0.53552 0.61298 0.0
C2157 C 0.06537 0.52703 0.5851 0.0
C2158 C 0.03381 0.55714 0.60346 0.0
C2159 C 0.04689 0.56366 0.58494 0.0
H2160 H 0.71986 0.85078 0.81189 0.0
H2161 H 0.69015 0.79965 0.76958 0.0
H2162 H 0.69468 0.77169 0.7997 0.0
H2163 H 0.70739 0.76176 0.83785 0.0
H2164 H 0.73751 0.81272 0.88039 0.0
H2165 H 0.7325 0.84075 0.8505 0.0
C2166 C 0.71449 0.83347 0.80934 0.0
C2167 C 0.70468 0.82719 0.78862 0.0
C2168 C 0.71716 0.81751 0.82678 0.0
C2169 C 0.69763 0.80481 0.78546 0.0
C2170 C 0.70026 0.78886 0.80265 0.0
C2171 C 0.71277 0.77901 0.84072 0.0
C2172 C 0.72278 0.78505 0.86148 0.0
C2173 C 0.70998 0.79502 0.8234 0.0
C2174 C 0.72971 0.80753 0.86468 0.0
C2175 C 0.7269 0.82359 0.84754 0.0
H2176 H 0.44155 0.49017 0.11753 0.0
H2177 H 0.48446 0.4325 0.1059 0.0
H2178 H 0.46423 0.42397 0.07108 0.0
H2179 H 0.43565 0.43403 0.04268 0.0
H2180 H 0.3924 0.49126 0.05433 0.0
H2181 H 0.41166 0.4991 0.09002 0.0
C2182 C 0.4462 0.4755 0.1076 0.0
C2183 C 0.46449 0.462 0.11438 0.0
C2184 C 0.43472 0.47088 0.0873 0.0
C2185 C 0.47045 0.4432 0.10111 0.0
C2186 C 0.45897 0.43836 0.0811 0.0
C2187 C 0.43044 0.44814 0.05314 0.0
C2188 C 0.41283 0.46218 0.04584 0.0
C2189 C 0.44135 0.4523 0.07381 0.0
C2190 C 0.4062 0.48045 0.05945 0.0
C2191 C 0.41707 0.48481 0.07995 0.0
H2192 H 0.77046 0.19602 0.36784 0.0
H2193 H 0.81699 0.24775 0.34619 0.0
H2194 H 0.82684 0.22553 0.31302 0.0
H2195 H 0.82047 0.1925 0.28859 0.0
H2196 H 0.77446 0.14053 0.31016 0.0
H2197 H 0.76601 0.16175 0.34464 0.0
C2198 C 0.78299 0.20228 0.35605 0.0
C2199 C 0.79283 0.22361 0.35954 0.0
C2200 C 0.78848 0.18949 0.33675 0.0
C2201 C 0.809 0.23146 0.34396 0.0
C2202 C 0.81465 0.21879 0.32488 0.0
C2203 C 0.80889 0.18571 0.30104 0.0
C2204 C 0.79803 0.16509 0.29688 0.0
C2205 C 0.80422 0.19796 0.32087 0.0
C2206 C 0.78282 0.15656 0.31297 0.0
C2207 C 0.77805 0.16863 0.33269 0.0
H2208 H 0.05778 0.48747 0.89141 0.0
H2209 H 0.00559 0.44041 0.91075 0.0
H2210 H 0.02569 0.4319 0.94555 0.0
H2211 H 0.05729 0.43893 0.97155 0.0
H2212 H 0.11003 0.48501 0.95214 0.0
H2213 H 0.09043 0.49308 0.91666 0.0
C2214 C 0.05095 0.47515 0.90309 0.0
C2215 C 0.03014 0.46468 0.89838 0.0
C2216 C 0.06254 0.47039 0.92331 0.0
C2217 C 0.02153 0.44881 0.91385 0.0
C2218 C 0.03297 0.44396 0.93387 0.0
C2219 C 0.06449 0.45061 0.95944 0.0
C2220 C 0.08493 0.46148 0.96446 0.0
C2221 C 0.05332 0.45486 0.93893 0.0
C2222 C 0.09412 0.47668 0.94873 0.0
C2223 C 0.083 0.48117 0.92839 0.0
H2224 H 0.77122 0.80548 0.13845 0.0
H2225 H 0.81707 0.75268 0.15867 0.0
H2226 H 0.82591 0.77318 0.19325 0.0
H2227 H 0.81911 0.80518 0.21898 0.0
H2228 H 0.77407 0.85837 0.19855 0.0
H2229 H 0.76609 0.83852 0.1632 0.0
C2230 C 0.7834 0.79861 0.15024 0.0
C2231 C 0.7934 0.77751 0.14589 0.0
C2232 C 0.78826 0.81039 0.17034 0.0
C2233 C 0.80905 0.76885 0.16152 0.0
C2234 C 0.81407 0.78052 0.18141 0.0
C2235 C 0.80775 0.81248 0.20665 0.0
C2236 C 0.79705 0.83308 0.2114 0.0
C2237 C 0.80352 0.80113 0.18619 0.0
C2238 C 0.7822 0.84231 0.1954 0.0
C2239 C 0.77776 0.83106 0.17511 0.0
H2240 H 0.4027 0.53177 0.44758 0.0
H2241 H 0.45105 0.56907 0.48705 0.0
H2242 H 0.47826 0.5672 0.45593 0.0
H2243 H 0.48868 0.55379 0.41821 0.0
H2244 H 0.44099 0.51503 0.37901 0.0
H2245 H 0.41305 0.51873 0.40924 0.0
C2246 C 0.41928 0.53934 0.44931 0.0
C2247 C 0.42504 0.55042 0.46951 0.0
C2248 C 0.43485 0.538 0.43141 0.0
C2249 C 0.44632 0.56052 0.47158 0.0
C2250 C 0.46185 0.55941 0.45382 0.0
C2251 C 0.47212 0.54628 0.41611 0.0
C2252 C 0.467 0.5341 0.39629 0.0
C2253 C 0.45633 0.54808 0.43372 0.0
C2254 C 0.44543 0.52449 0.39402 0.0
C2255 C 0.42946 0.52652 0.41136 0.0
H2256 H 0.68235 0.15954 0.69444 0.0
H2257 H 0.73399 0.19132 0.73468 0.0
H2258 H 0.741 0.21863 0.70461 0.0
H2259 H 0.73227 0.23375 0.66699 0.0
H2260 H 0.67886 0.20374 0.62765 0.0
H2261 H 0.67257 0.17563 0.65727 0.0
C2262 C 0.69482 0.1727 0.6968 0.0
C2263 C 0.70766 0.17334 0.71679 0.0
C2264 C 0.69855 0.18858 0.6795 0.0
C2265 C 0.72411 0.19023 0.71934 0.0
C2266 C 0.72808 0.20591 0.70217 0.0
C2267 C 0.71941 0.22091 0.66477 0.0
C2268 C 0.70622 0.2207 0.645 0.0
C2269 C 0.7155 0.20518 0.68212 0.0
C2270 C 0.68932 0.20422 0.64264 0.0
C2271 C 0.68567 0.18817 0.65961 0.0
H2272 H 0.56042 0.10045 0.53737 0.0
H2273 H 0.52394 0.05086 0.57601 0.0
H2274 H 0.55518 0.0241 0.57159 0.0
H2275 H 0.59217 0.01448 0.55552 0.0
H2276 H 0.62861 0.06402 0.5164 0.0
H2277 H 0.59815 0.0912 0.52229 0.0
C2278 C 0.55943 0.08377 0.54483 0.0
C2279 C 0.54005 0.07752 0.55701 0.0
C2280 C 0.5774 0.06853 0.54211 0.0
C2281 C 0.53883 0.05601 0.56674 0.0
C2282 C 0.55663 0.04072 0.56412 0.0
C2283 C 0.59359 0.03128 0.5484 0.0
C2284 C 0.61271 0.03714 0.53547 0.0
C2285 C 0.57593 0.04676 0.55171 0.0
C2286 C 0.61415 0.05901 0.52642 0.0
C2287 C 0.59669 0.07456 0.52972 0.0
H2288 H 0.04166 0.44423 0.43293 0.0
H2289 H 0.06036 0.39301 0.48095 0.0
H2290 H 0.09606 0.41245 0.48827 0.0
H2291 H 0.12135 0.44493 0.48191 0.0
H2292 H 0.10347 0.49443 0.43152 0.0
H2293 H 0.06868 0.47422 0.42353 0.0
C2294 C 0.05375 0.43715 0.4447 0.0
C2295 C 0.04835 0.41736 0.4565 0.0
C2296 C 0.07455 0.44797 0.44821 0.0
C2297 C 0.064 0.4085 0.47195 0.0
C2298 C 0.08449 0.41948 0.47599 0.0
C2299 C 0.11009 0.45106 0.46886 0.0
C2300 C 0.11503 0.47134 0.45754 0.0
C2301 C 0.08992 0.43934 0.4643 0.0
C2302 C 0.10014 0.47896 0.44065 0.0
C2303 C 0.08009 0.46749 0.43613 0.0
H2304 H 0.81694 0.87432 0.71773 0.0
H2305 H 0.75519 0.84049 0.69883 0.0
H2306 H 0.77583 0.80576 0.69193 0.0
H2307 H 0.81112 0.78402 0.69325 0.0
H2308 H 0.87311 0.81759 0.7108 0.0
H2309 H 0.85281 0.85312 0.71637 0.0
C2310 C 0.80804 0.85943 0.71189 0.0
C2311 C 0.78448 0.86011 0.70903 0.0
C2312 C 0.82005 0.83927 0.70794 0.0
C2313 C 0.77329 0.84056 0.70136 0.0
C2314 C 0.78507 0.82058 0.69741 0.0
C2315 C 0.82014 0.7992 0.69805 0.0
C2316 C 0.84342 0.79817 0.70209 0.0
C2317 C 0.80839 0.81961 0.70095 0.0
C2318 C 0.85503 0.8179 0.70827 0.0
C2319 C 0.84346 0.83825 0.71126 0.0
H2320 H 0.40637 0.52155 0.94312 0.0
H2321 H 0.3731 0.568 0.98843 0.0
H2322 H 0.40443 0.59457 0.98434 0.0
H2323 H 0.44231 0.60385 0.96928 0.0
H2324 H 0.4755 0.55709 0.92455 0.0
H2325 H 0.44326 0.53129 0.92712 0.0
C2326 C 0.40577 0.53758 0.95195 0.0
C2327 C 0.38731 0.54268 0.96612 0.0
C2328 C 0.424 0.55262 0.9498 0.0
C2329 C 0.38699 0.56358 0.97738 0.0
C2330 C 0.40499 0.57876 0.97515 0.0
C2331 C 0.44237 0.58798 0.96014 0.0
C2332 C 0.46115 0.58223 0.94679 0.0
C2333 C 0.42374 0.5733 0.9617 0.0
C2334 C 0.46114 0.56178 0.93487 0.0
C2335 C 0.44273 0.54708 0.93635 0.0
H2336 H 0.15959 0.69333 0.68169 0.0
H2337 H 0.19942 0.73646 0.72476 0.0
H2338 H 0.2267 0.70607 0.73034 0.0
H2339 H 0.23978 0.66765 0.72223 0.0
H2340 H 0.20154 0.62485 0.67761 0.0
H2341 H 0.17333 0.65483 0.67286 0.0
C2342 C 0.17438 0.69615 0.69208 0.0
C2343 C 0.1774 0.71713 0.70292 0.0
C2344 C 0.19022 0.67864 0.69493 0.0
C2345 C 0.19652 0.72039 0.71652 0.0
C2346 C 0.21217 0.70304 0.71965 0.0
C2347 C 0.22495 0.66465 0.71199 0.0
C2348 C 0.22233 0.6438 0.7009 0.0
C2349 C 0.20916 0.68208 0.70902 0.0
C2350 C 0.2037 0.64063 0.68661 0.0
C2351 C 0.18763 0.65779 0.68386 0.0
H2352 H 0.96411 0.93868 0.07594 0.0
H2353 H 0.95223 0.89353 0.02012 0.0
H2354 H 0.91758 0.91375 0.01066 0.0
H2355 H 0.89132 0.94526 0.01739 0.0
H2356 H 0.90281 0.98979 0.07396 0.0
H2357 H 0.93629 0.96839 0.08443 0.0
C2358 C 0.95373 0.93306 0.06197 0.0
C2359 C 0.96079 0.91472 0.04869 0.0
C2360 C 0.93358 0.94456 0.05684 0.0
C2361 C 0.94734 0.90787 0.03037 0.0
C2362 C 0.92742 0.91931 0.02506 0.0
C2363 C 0.90087 0.95002 0.03227 0.0
C2364 C 0.89449 0.96918 0.0448 0.0
C2365 C 0.92042 0.93779 0.03808 0.0
C2366 C 0.90729 0.97517 0.06393 0.0
C2367 C 0.92657 0.963 0.0699 0.0
H2368 H 0.76811 0.1633 0.78711 0.0
H2369 H 0.80295 0.12052 0.83435 0.0
H2370 H 0.83058 0.15065 0.84143 0.0
H2371 H 0.84506 0.1892 0.83334 0.0
H2372 H 0.80862 0.23168 0.7869 0.0
H2373 H 0.78141 0.20152 0.78008 0.0
C2374 C 0.78201 0.16036 0.79858 0.0
C2375 C 0.78388 0.13953 0.80971 0.0
C2376 C 0.79742 0.17778 0.80278 0.0
C2377 C 0.80137 0.13635 0.82537 0.0
C2378 C 0.8171 0.15358 0.82944 0.0
C2379 C 0.83097 0.19186 0.82199 0.0
C2380 C 0.82887 0.21253 0.8105 0.0
C2381 C 0.81528 0.1744 0.81822 0.0
C2382 C 0.81068 0.2158 0.7957 0.0
C2383 C 0.79513 0.19859 0.79182 0.0
H2384 H 0.65206 0.81598 0.29206 0.0
H2385 H 0.70341 0.77372 0.32124 0.0
H2386 H 0.73078 0.80458 0.31856 0.0
H2387 H 0.7404 0.84298 0.30669 0.0
H2388 H 0.68962 0.88505 0.27586 0.0
H2389 H 0.66169 0.855 0.28058 0.0
C2390 C 0.6693 0.8136 0.29771 0.0
C2391 C 0.67584 0.79267 0.30676 0.0
C2392 C 0.68497 0.8314 0.29591 0.0
C2393 C 0.69806 0.78975 0.31431 0.0
C2394 C 0.71368 0.80737 0.31274 0.0
C2395 C 0.72318 0.84575 0.30118 0.0
C2396 C 0.71719 0.86634 0.29089 0.0
C2397 C 0.70735 0.82822 0.30347 0.0
C2398 C 0.69476 0.86945 0.28383 0.0
C2399 C 0.67878 0.8522 0.28643 0.0
H2400 H 0.02152 0.22009 0.42519 0.0
H2401 H 0.99677 0.20699 0.49234 0.0
H2402 H 0.98985 0.2476 0.49787 0.0
H2403 H 0.98948 0.28698 0.48242 0.0
H2404 H 0.01676 0.29825 0.41558 0.0
H2405 H 0.02419 0.25841 0.41137 0.0
C2406 C 0.01452 0.22606 0.44105 0.0
C2407 C 0.00925 0.21053 0.45815 0.0
C2408 C 0.01111 0.24924 0.44422 0.0
C2409 C 1.00079 0.21863 0.47882 0.0
C2410 C 0.99685 0.24184 0.48196 0.0
C2411 C 0.9973 0.28073 0.46709 0.0
C2412 C 1.00217 0.2958 0.44926 0.0
C2413 C 1.00179 0.25737 0.46465 0.0
C2414 C 0.01245 0.28726 0.42954 0.0
C2415 C 0.01675 0.26435 0.42702 0.0
H2416 H 0.04049 0.76698 0.67483 0.0
H2417 H 0.04987 0.75577 0.74617 0.0
H2418 H 0.00931 0.74817 0.7504 0.0
H2419 H 0.97112 0.74412 0.73325 0.0
H2420 H 0.96318 0.75725 0.66186 0.0
H2421 H 0.00317 0.76483 0.65841 0.0
C2422 C 0.03379 0.76274 0.69135 0.0
C2423 C 0.04829 0.76164 0.7101 0.0
C2424 C 0.01059 0.75885 0.69368 0.0
C2425 C 0.03911 0.75659 0.73142 0.0
C2426 C 0.01592 0.75228 0.73383 0.0
C2427 C 0.97812 0.7488 0.717 0.0
C2428 C 0.96397 0.74991 0.69785 0.0
C2429 C 1.00145 0.75332 0.71502 0.0
C2430 C 0.97346 0.7561 0.67693 0.0
C2431 C 0.99644 0.76042 0.67486 0.0
H2432 H 0.48802 0.78558 0.98437 0.0
H2433 H 0.52821 0.79787 0.9247 0.0
H2434 H 0.5352 0.75783 0.92059 0.0
H2435 H 0.52795 0.71913 0.93189 0.0
H2436 H 0.49019 0.70517 0.99245 0.0
H2437 H 0.48422 0.74591 0.99832 0.0
C2438 C 0.49862 0.7795 0.97073 0.0
C2439 C 0.50717 0.79483 0.95461 0.0
C2440 C 0.50276 0.7561 0.96842 0.0
C2441 C 0.52098 0.78657 0.9371 0.0
C2442 C 0.52504 0.76359 0.93469 0.0
C2443 C 0.5184 0.72501 0.9464 0.0
C2444 C 0.5091 0.70928 0.96145 0.0
C2445 C 0.51555 0.74821 0.94985 0.0
C2446 C 0.49731 0.71706 0.98052 0.0
C2447 C 0.49392 0.74031 0.98384 0.0
H2448 H 0.53469 0.26485 0.17381 0.0
H2449 H 0.54087 0.25362 0.24549 0.0
H2450 H 0.50021 0.24577 0.24786 0.0
H2451 H 0.4628 0.24159 0.229 0.0
H2452 H 0.45812 0.25476 0.15731 0.0
H2453 H 0.49817 0.26244 0.1557 0.0
C2454 C 0.52726 0.26056 0.19001 0.0
C2455 C 0.54091 0.25955 0.20939 0.0
C2456 C 0.50401 0.2565 0.19127 0.0
C2457 C 0.53079 0.25441 0.23026 0.0
C2458 C 0.50753 0.24994 0.23161 0.0
C2459 C 0.47053 0.24626 0.21308 0.0
C2460 C 0.45724 0.2474 0.19331 0.0
C2461 C 0.49392 0.25089 0.21216 0.0
C2462 C 0.46768 0.2536 0.17285 0.0
C2463 C 0.49072 0.25799 0.17183 0.0
H2464 H 0.96246 0.71958 0.03269 0.0
H2465 H 0.03255 0.70113 0.0285 0.0
H2466 H 0.04309 0.7408 0.02331 0.0
H2467 H 0.03273 0.78098 0.0264 0.0
H2468 H 0.9631 0.79924 0.03619 0.0
H2469 H 0.95177 0.75969 0.03231 0.0
C2470 C 0.97993 0.7243 0.02983 0.0
C2471 C 0.99673 0.70764 0.03052 0.0
C2472 C 0.98587 0.7472 0.02811 0.0
C2473 C 0.0194 0.71378 0.02761 0.0
C2474 C 0.02539 0.73644 0.02484 0.0
C2475 C 0.01504 0.77628 0.02684 0.0
C2476 C 0.99868 0.79287 0.03119 0.0
C2477 C 0.00885 0.75337 0.02592 0.0
C2478 C 0.97586 0.78667 0.03252 0.0
C2479 C 0.96944 0.76407 0.0305 0.0
H2480 H 0.53866 0.73692 0.27327 0.0
H2481 H 0.54813 0.76671 0.3393 0.0
H2482 H 0.50783 0.7719 0.34321 0.0
H2483 H 0.46976 0.76648 0.32937 0.0
H2484 H 0.45842 0.73941 0.2628 0.0
H2485 H 0.49942 0.73462 0.25764 0.0
C2486 C 0.53191 0.74486 0.28833 0.0
C2487 C 0.5466 0.75109 0.30607 0.0
C2488 C 0.50831 0.74798 0.29057 0.0
C2489 C 0.53742 0.76143 0.32544 0.0
C2490 C 0.51426 0.7644 0.32779 0.0
C2491 C 0.47621 0.75936 0.31374 0.0
C2492 C 0.46108 0.75278 0.29671 0.0
C2493 C 0.49957 0.75732 0.31074 0.0
C2494 C 0.46975 0.74431 0.27629 0.0
C2495 C 0.49317 0.74164 0.27335 0.0
H2496 H 0.51718 0.28405 0.52451 0.0
H2497 H 0.4863 0.29451 0.58988 0.0
H2498 H 0.47819 0.25458 0.59286 0.0
H2499 H 0.48181 0.21639 0.57859 0.0
H2500 H 0.51046 0.20435 0.51278 0.0
H2501 H 0.51748 0.24506 0.50829 0.0
C2502 C 0.50834 0.27762 0.5392 0.0
C2503 C 0.5027 0.29237 0.55707 0.0
C2504 C 0.50361 0.25428 0.54092 0.0
C2505 C 0.49119 0.28366 0.57597 0.0
C2506 C 0.48653 0.26073 0.57777 0.0
C2507 C 0.48967 0.22264 0.56325 0.0
C2508 C 0.49606 0.20739 0.54625 0.0
C2509 C 0.49313 0.24587 0.56066 0.0
C2510 C 0.5056 0.21579 0.52621 0.0
C2511 C 0.50958 0.23904 0.52366 0.0
H2512 H 0.96473 0.26249 0.77707 0.0
H2513 H 0.95894 0.252 0.84914 0.0
H2514 H 0.99941 0.24769 0.8521 0.0
H2515 H 0.03648 0.24736 0.835 0.0
H2516 H 0.04383 0.25534 0.76299 0.0
H2517 H 0.00283 0.26036 0.75932 0.0
C2518 C 0.97232 0.25908 0.79337 0.0
C2519 C 0.95862 0.25775 0.81284 0.0
C2520 C 0.99594 0.25643 0.79507 0.0
C2521 C 0.96886 0.25324 0.83381 0.0
C2522 C 0.99212 0.25083 0.83561 0.0
C2523 C 0.02923 0.25044 0.81847 0.0
C2524 C 0.04325 0.25134 0.79934 0.0
C2525 C 0.0058 0.25262 0.81646 0.0
C2526 C 0.03342 0.25477 0.77802 0.0
C2527 C 0.00997 0.25755 0.77592 0.0
H2528 H 0.48929 0.00277 0.21488 0.0
H2529 H 0.4228 0.03243 0.21352 0.0
H2530 H 0.42015 0.02973 0.25433 0.0
H2531 H 0.43491 0.0166 0.28988 0.0
H2532 H 0.50005 0.98427 0.29285 0.0
H2533 H 0.50519 0.99069 0.25221 0.0
C2534 C 0.4744 0.0088 0.22365 0.0
C2535 C 0.45617 0.01757 0.21117 0.0
C2536 C 0.47267 0.00668 0.24741 0.0
C2537 C 0.43692 0.02531 0.2227 0.0
C2538 C 0.43538 0.02385 0.24607 0.0
C2539 C 0.4504 0.01107 0.28183 0.0
C2540 C 0.46696 0.99979 0.29451 0.0
C2541 C 0.45291 0.01417 0.25852 0.0
C2542 C 0.48695 0.99298 0.28358 0.0
C2543 C 0.48984 0.99654 0.26027 0.0
H2544 H 0.26726 0.17406 0.53449 0.0
H2545 H 0.24915 0.24363 0.54547 0.0
H2546 H 0.24265 0.24835 0.50468 0.0
H2547 H 0.24119 0.23188 0.46568 0.0
H2548 H 0.26144 0.16236 0.45654 0.0
H2549 H 0.26812 0.15869 0.49661 0.0
C2550 C 0.26176 0.1903 0.52808 0.0
C2551 C 0.25834 0.20835 0.54313 0.0
C2552 C 0.25853 0.19295 0.50476 0.0
C2553 C 0.25176 0.22938 0.53431 0.0
C2554 C 0.24806 0.23206 0.51096 0.0
C2555 C 0.24728 0.21603 0.47244 0.0
C2556 C 0.25055 0.19741 0.45783 0.0
C2557 C 0.2513 0.21388 0.49595 0.0
C2558 C 0.25853 0.17702 0.46708 0.0
C2559 C 0.26237 0.1748 0.49016 0.0
H2560 H 0.0711 0.97497 0.72164 0.0
H2561 H 0.01343 0.01732 0.70941 0.0
H2562 H 0.00944 0.02406 0.75028 0.0
H2563 H 0.02474 0.02004 0.78938 0.0
H2564 H 0.08155 0.97567 0.80018 0.0
H2565 H 0.08316 0.96726 0.76014 0.0
C2566 C 0.05759 0.9856 0.72797 0.0
C2567 C 0.04285 0.996 0.71269 0.0
C2568 C 0.05521 0.98895 0.75127 0.0
C2569 C 0.02508 0.0093 0.72098 0.0
C2570 C 0.02283 0.01314 0.7443 0.0
C2571 C 0.03712 0.00817 0.78301 0.0
C2572 C 0.05323 0.99884 0.79783 0.0
C2573 C 0.03807 0.00332 0.75964 0.0
C2574 C 0.06915 0.98343 0.78923 0.0
C2575 C 0.07017 0.97859 0.76626 0.0
H2576 H 0.26541 0.77428 0.97066 0.0
H2577 H 0.26019 0.84668 0.96295 0.0
H2578 H 0.25318 0.85092 1.00286 0.0
H2579 H 0.24849 0.83488 0.04001 0.0
H2580 H 0.25137 0.76279 0.04938 0.0
H2581 H 0.25942 0.75775 0.00898 0.0
C2582 C 0.26264 0.79093 0.97773 0.0
C2583 C 0.26344 0.81006 0.96358 0.0
C2584 C 0.25833 0.79343 1.00109 0.0
C2585 C 0.25972 0.83154 0.97316 0.0
C2586 C 0.25574 0.83409 0.99613 0.0
C2587 C 0.25105 0.81801 0.03336 0.0
C2588 C 0.24955 0.79928 0.04779 0.0
C2589 C 0.25511 0.81524 0.01024 0.0
C2590 C 0.25253 0.77755 0.03866 0.0
C2591 C 0.25709 0.77466 0.01555 0.0
H2592 H 0.2144 0.48651 0.01597 0.0
H2593 H 0.20642 0.41486 0.00423 0.0
H2594 H 0.24602 0.41139 0.99572 0.0
H2595 H 0.28315 0.42764 0.99219 0.0
H2596 H 0.29311 0.49907 1.00161 0.0
H2597 H 0.25275 0.50358 0.01034 0.0
C2598 C 0.22133 0.47021 0.01142 0.0
C2599 C 0.20716 0.45102 0.01098 0.0
C2600 C 0.24459 0.46815 0.00622 0.0
C2601 C 0.2166 0.43003 0.0049 0.0
C2602 C 0.23942 0.42791 1.00001 0.0
C2603 C 0.27663 0.44426 0.99626 0.0
C2604 C 0.29125 0.46292 0.99654 0.0
C2605 C 0.25358 0.44673 1.00081 0.0
C2606 C 0.28226 0.48437 1.00138 0.0
C2607 C 0.25917 0.48693 0.00637 0.0
H2608 H 0.72449 0.08166 0.98967 0.0
H2609 H 0.7115 0.01394 0.01263 0.0
H2610 H 0.75209 0.0085 0.01968 0.0
H2611 H 0.79149 0.02406 0.02035 0.0
H2612 H 0.80243 0.09159 0.99491 0.0
H2613 H 0.76265 0.09579 0.98769 0.0
C2614 C 0.73045 0.0657 0.99635 0.0
C2615 C 0.71495 0.0484 1.00103 0.0
C2616 C 0.7536 0.0626 0.99983 0.0
C2617 C 0.72309 0.02762 0.00908 0.0
C2618 C 0.7463 0.02453 0.01308 0.0
C2619 C 0.78517 0.03956 0.01301 0.0
C2620 C 0.8002 0.05754 0.00852 0.0
C2621 C 0.76179 0.04201 0.00863 0.0
C2622 C 0.79154 0.07747 0.99887 0.0
C2623 C 0.76863 0.08 0.9947 0.0
H2624 H 0.17919 0.4747 0.23221 0.0
H2625 H 0.24455 0.46479 0.26227 0.0
H2626 H 0.24811 0.50575 0.26846 0.0
H2627 H 0.23106 0.54435 0.2672 0.0
H2628 H 0.16642 0.5527 0.23443 0.0
H2629 H 0.16441 0.51257 0.22719 0.0
C2630 C 0.19425 0.48151 0.24012 0.0
C2631 C 0.21138 0.4668 0.24719 0.0
C2632 C 0.19634 0.50488 0.24307 0.0
C2633 C 0.23105 0.47584 0.25687 0.0
C2634 C 0.23305 0.49923 0.26039 0.0
C2635 C 0.21675 0.53742 0.25814 0.0
C2636 C 0.19877 0.55169 0.25175 0.0
C2637 C 0.21563 0.51396 0.25379 0.0
C2638 C 0.18041 0.5423 0.2399 0.0
C2639 C 0.17915 0.51923 0.23574 0.0
H2640 H 0.72397 0.94099 0.53273 0.0
H2641 H 0.70903 0.99343 0.48481 0.0
H2642 H 0.74967 0.99912 0.47804 0.0
H2643 H 0.78945 0.98612 0.48336 0.0
H2644 H 0.80296 0.93424 0.53269 0.0
H2645 H 0.76305 0.93179 0.5417 0.0
C2646 C 0.72967 0.95382 0.52095 0.0
C2647 C 0.7137 0.96653 0.50899 0.0
C2648 C 0.75284 0.95713 0.51749 0.0
C2649 C 0.72114 0.98338 0.49409 0.0
C2650 C 0.74434 0.98657 0.49023 0.0
C2651 C 0.78368 0.97475 0.49649 0.0
C2652 C 0.79922 0.96018 0.50712 0.0
C2653 C 0.76039 0.9732 0.50152 0.0
C2654 C 0.79141 0.94546 0.52405 0.0
C2655 C 0.76853 0.94395 0.52917 0.0
H2656 H 0.76894 0.96662 0.27006 0.0
H2657 H 0.82118 0.95306 0.22098 0.0
H2658 H 0.82358 0.99293 0.2119 0.0
H2659 H 0.81415 0.032 0.22072 0.0
H2660 H 0.76129 0.04691 0.26831 0.0
H2661 H 0.75575 0.00629 0.27521 0.0
C2662 C 0.78039 0.97236 0.25698 0.0
C2663 C 0.79508 0.95686 0.24647 0.0
C2664 C 0.78189 0.9956 0.25189 0.0
C2665 C 0.80988 0.96461 0.22957 0.0
C2666 C 0.81136 0.98746 0.22439 0.0
C2667 C 0.80128 0.02628 0.23245 0.0
C2668 C 0.78838 0.0422 0.24428 0.0
C2669 C 0.79805 0.00314 0.23598 0.0
C2670 C 0.77147 0.03479 0.25914 0.0
C2671 C 0.76836 0.01163 0.26307 0.0
H2672 H 0.21684 0.51618 0.51158 0.0
H2673 H 0.21864 0.57764 0.47266 0.0
H2674 H 0.25964 0.57801 0.47405 0.0
H2675 H 0.29448 0.56335 0.48916 0.0
H2676 H 0.29429 0.50337 0.53034 0.0
H2677 H 0.25338 0.49961 0.52489 0.0
C2678 C 0.22636 0.52939 0.50324 0.0
C2679 C 0.21488 0.547 0.49223 0.0
C2680 C 0.25017 0.52982 0.50457 0.0
C2681 C 0.22723 0.5641 0.48145 0.0
C2682 C 0.25064 0.56431 0.48219 0.0
C2683 C 0.28561 0.54926 0.4968 0.0
C2684 C 0.2974 0.53385 0.51036 0.0
C2685 C 0.26223 0.54763 0.49416 0.0
C2686 C 0.28562 0.51552 0.51981 0.0
C2687 C 0.26219 0.51347 0.51684 0.0
H2688 H 0.3296 0.46839 0.75959 0.0
H2689 H 0.2579 0.45862 0.75198 0.0
H2690 H 0.25294 0.49937 0.74614 0.0
H2691 H 0.26944 0.5381 0.74334 0.0
H2692 H 0.34135 0.54604 0.75303 0.0
H2693 H 0.34551 0.50588 0.7581 0.0
C2694 C 0.31284 0.47503 0.75645 0.0
C2695 C 0.2942 0.46036 0.75596 0.0
C2696 C 0.31008 0.49834 0.75369 0.0
C2697 C 0.27259 0.46949 0.75231 0.0
C2698 C 0.26975 0.49281 0.74904 0.0
C2699 C 0.28597 0.53104 0.7467 0.0
C2700 C 0.30499 0.54537 0.74776 0.0
C2701 C 0.28842 0.50748 0.74978 0.0
C2702 C 0.32628 0.53575 0.75216 0.0
C2703 C 0.3288 0.51261 0.75499 0.0
H2704 H 0.98215 0.51654 0.71462 0.0
H2705 H 0.92071 0.47872 0.70397 0.0
H2706 H 0.91812 0.47087 0.74404 0.0
H2707 H 0.93112 0.47709 0.78237 0.0
H2708 H 0.99296 0.51322 0.79476 0.0
H2709 H 0.99768 0.51931 0.75383 0.0
C2710 C 0.96846 0.50624 0.72104 0.0
C2711 C 0.95143 0.49857 0.7062 0.0
C2712 C 0.96696 0.50174 0.74446 0.0
C2713 C 0.93384 0.48519 0.71489 0.0
C2714 C 0.9323 0.48067 0.73789 0.0
C2715 C 0.94569 0.48629 0.77613 0.0
C2716 C 0.96142 0.49512 0.79149 0.0
C2717 C 0.94836 0.48936 0.75284 0.0
C2718 C 0.98052 0.50645 0.78319 0.0
C2719 C 0.98317 0.50992 0.75983 0.0
H2720 H 0.74574 0.73273 0.9646 0.0
H2721 H 0.7399 0.66013 0.95914 0.0
H2722 H 0.74259 0.65644 0.99952 0.0
H2723 H 0.74702 0.67275 0.0364 0.0
H2724 H 0.75564 0.74458 0.04423 0.0
H2725 H 0.7512 0.74953 1.00322 0.0
C2726 C 0.74517 0.71615 0.97228 0.0
C2727 C 0.74266 0.69681 0.95849 0.0
C2728 C 0.74704 0.7139 0.99606 0.0
C2729 C 0.74196 0.67544 0.96893 0.0
C2730 C 0.74338 0.6732 0.99222 0.0
C2731 C 0.74773 0.68962 0.02934 0.0
C2732 C 0.75147 0.70826 0.04355 0.0
C2733 C 0.7459 0.69221 0.00591 0.0
C2734 C 0.75263 0.72989 0.03377 0.0
C2735 C 0.7502 0.7327 0.01028 0.0
H2736 H 0.56421 0.47407 0.22737 0.0
H2737 H 0.50432 0.51311 0.21477 0.0
H2738 H 0.50038 0.52055 0.25556 0.0
H2739 H 0.51652 0.51853 0.29458 0.0
H2740 H 0.57605 0.47796 0.30558 0.0
H2741 H 0.57731 0.46823 0.2658 0.0
C2742 C 0.55018 0.48408 0.23359 0.0
C2743 C 0.5348 0.49337 0.2182 0.0
C2744 C 0.54797 0.48798 0.25682 0.0
C2745 C 0.51643 0.50591 0.2264 0.0
C2746 C 0.51424 0.51017 0.24968 0.0
C2747 C 0.52943 0.50717 0.28831 0.0
C2748 C 0.54637 0.49929 0.30307 0.0
C2749 C 0.53022 0.50164 0.26507 0.0
C2750 C 0.56299 0.48457 0.29463 0.0
C2751 C 0.56379 0.47899 0.27182 0.0
H2752 H 0.76959 0.27254 0.46473 0.0
H2753 H 0.73546 0.33632 0.45563 0.0
H2754 H 0.72786 0.33849 0.49577 0.0
H2755 H 0.73275 0.32402 0.53377 0.0
H2756 H 0.76486 0.25972 0.54442 0.0
H2757 H 0.77138 0.25602 0.50352 0.0
C2758 C 0.76017 0.28669 0.47151 0.0
C2759 C 0.75343 0.30438 0.45708 0.0
C2760 C 0.75575 0.28795 0.49497 0.0
C2761 C 0.74118 0.32258 0.46624 0.0
C2762 C 0.73682 0.32392 0.48928 0.0
C2763 C 0.74124 0.30918 0.52718 0.0
C2764 C 0.74872 0.29238 0.5421 0.0
C2765 C 0.74446 0.30702 0.50383 0.0
C2766 C 0.75913 0.27299 0.53325 0.0
C2767 C 0.76283 0.27088 0.50988 0.0
H2768 H 0.73369 0.96451 0.74126 0.0
H2769 H 0.66226 0.9568 0.75411 0.0
H2770 H 0.65876 0.99684 0.76101 0.0
H2771 H 0.67519 0.03433 0.763 0.0
H2772 H 0.74657 0.04336 0.75215 0.0
H2773 H 0.75073 0.00282 0.74479 0.0
C2774 C 0.71742 0.97157 0.74574 0.0
C2775 C 0.69832 0.95738 0.74704 0.0
C2776 C 0.71537 0.995 0.74986 0.0
C2777 C 0.67737 0.96702 0.7529 0.0
C2778 C 0.67523 0.99008 0.75681 0.0
C2779 C 0.69167 0.02753 0.75885 0.0
C2780 C 0.71047 0.04196 0.75788 0.0
C2781 C 0.69401 0.00425 0.75516 0.0
C2782 C 0.73176 0.03267 0.75291 0.0
C2783 C 0.73415 0.00946 0.74874 0.0
H2784 H 0.91735 0.13917 0.27505 0.0
H2785 H 0.89787 0.08171 0.31522 0.0
H2786 H 0.92236 0.09485 0.34601 0.0
H2787 H 0.95184 0.12105 0.35979 0.0
H2788 H 0.9722 0.1772 0.31832 0.0
H2789 H 0.94466 0.16627 0.28955 0.0
C2790 C 0.91845 0.12948 0.29055 0.0
C2791 C 0.90601 0.1094 0.29285 0.0
C2792 C 0.9326 0.13701 0.30788 0.0
C2793 C 0.90726 0.09725 0.31314 0.0
C2794 C 0.92128 0.10473 0.33066 0.0
C2795 C 0.94965 0.13127 0.34479 0.0
C2796 C 0.96355 0.15019 0.34127 0.0
C2797 C 0.93427 0.12443 0.32807 0.0
C2798 C 0.96134 0.16281 0.32141 0.0
C2799 C 0.94576 0.15646 0.30495 0.0
H2800 H 0.14969 0.72476 0.59228 0.0
H2801 H 0.07936 0.70811 0.60057 0.0
H2802 H 0.08399 0.67522 0.57586 0.0
H2803 H 0.10744 0.65326 0.54976 0.0
H2804 H 0.17796 0.6692 0.54192 0.0
H2805 H 0.17413 0.70031 0.56909 0.0
C2806 C 0.13545 0.71383 0.58864 0.0
C2807 C 0.11414 0.71881 0.59773 0.0
C2808 C 0.13836 0.69496 0.57472 0.0
C2809 C 0.09584 0.70447 0.59352 0.0
C2810 C 0.0985 0.68577 0.57945 0.0
C2811 C 0.122 0.66344 0.55427 0.0
C2812 C 0.14289 0.65932 0.54391 0.0
C2813 C 0.11957 0.68114 0.56966 0.0
C2814 C 0.16178 0.67219 0.5499 0.0
C2815 C 0.15952 0.69001 0.56522 0.0
H2816 H 0.55812 0.86677 0.85777 0.0
H2817 H 0.49994 0.87393 0.81468 0.0
H2818 H 0.52449 0.87984 0.78201 0.0
H2819 H 0.56244 0.88441 0.76611 0.0
H2820 H 0.62053 0.87599 0.80915 0.0
H2821 H 0.59607 0.86935 0.8415 0.0
C2822 C 0.55083 0.86893 0.84113 0.0
C2823 C 0.52731 0.86945 0.83848 0.0
C2824 C 0.56501 0.87268 0.82256 0.0
C2825 C 0.51806 0.87325 0.81699 0.0
C2826 C 0.53206 0.87674 0.79837 0.0
C2827 C 0.56972 0.88121 0.78261 0.0
C2828 C 0.59323 0.8816 0.78537 0.0
C2829 C 0.55555 0.87681 0.80104 0.0
C2830 C 0.60249 0.87698 0.80672 0.0
C2831 C 0.5885 0.87275 0.8252 0.0
H2832 H 0.37289 0.31885 0.01105 0.0
H2833 H 0.34848 0.3667 0.06036 0.0
H2834 H 0.35468 0.33938 0.09036 0.0
H2835 H 0.36817 0.30204 0.10286 0.0
H2836 H 0.39454 0.25521 0.05378 0.0
H2837 H 0.38685 0.28213 0.02345 0.0
C2838 C 0.36872 0.32329 0.02834 0.0
C2839 C 0.35966 0.34471 0.0332 0.0
C2840 C 0.37322 0.30783 0.04565 0.0
C2841 C 0.35456 0.35016 0.05577 0.0
C2842 C 0.35856 0.33463 0.0731 0.0
C2843 C 0.37288 0.29807 0.08562 0.0
C2844 C 0.38266 0.27705 0.08056 0.0
C2845 C 0.36819 0.31355 0.06827 0.0
C2846 C 0.38746 0.27152 0.05802 0.0
C2847 C 0.38292 0.28682 0.04071 0.0
H2848 H 0.88891 0.86548 0.19794 0.0
H2849 H 0.93276 0.9192 0.2199 0.0
H2850 H 0.9613 0.90754 0.19239 0.0
H2851 H 0.97489 0.88019 0.16494 0.0
H2852 H 0.9325 0.82486 0.144 0.0
H2853 H 0.9019 0.8391 0.16818 0.0
C2854 C 0.90445 0.87499 0.19609 0.0
C2855 C 0.90876 0.89341 0.21043 0.0
C2856 C 0.92102 0.86765 0.18082 0.0
C2857 C 0.92915 0.90521 0.20868 0.0
C2858 C 0.94545 0.89843 0.19314 0.0
C2859 C 0.95895 0.87119 0.16568 0.0
C2860 C 0.95595 0.85135 0.15303 0.0
C2861 C 0.94179 0.87933 0.17963 0.0
C2862 C 0.93511 0.84015 0.15369 0.0
C2863 C 0.91771 0.84827 0.1675 0.0
H2864 H 0.34396 0.67878 0.47696 0.0
H2865 H 0.37622 0.62128 0.44614 0.0
H2866 H 0.39228 0.64541 0.41697 0.0
H2867 H 0.40056 0.68365 0.40271 0.0
H2868 H 0.36803 0.74088 0.43413 0.0
H2869 H 0.34949 0.71618 0.46096 0.0
C2870 C 0.35415 0.67147 0.46359 0.0
C2871 C 0.35867 0.64827 0.46367 0.0
C2872 C 0.36385 0.68552 0.44727 0.0
C2873 C 0.37198 0.639 0.4463 0.0
C2874 C 0.38152 0.65288 0.42975 0.0
C2875 C 0.38902 0.69067 0.41504 0.0
C2876 C 0.38573 0.71413 0.41626 0.0
C2877 C 0.37805 0.67628 0.43041 0.0
C2878 C 0.37119 0.72293 0.4329 0.0
C2879 C 0.36036 0.70881 0.44819 0.0
H2880 H 0.52976 0.15739 0.68971 0.0
H2881 H 0.56238 0.12462 0.63349 0.0
H2882 H 0.59224 0.111 0.65841 0.0
H2883 H 0.60708 0.10568 0.69689 0.0
H2884 H 0.57468 0.14001 0.75265 0.0
H2885 H 0.54632 0.15482 0.72732 0.0
C2886 C 0.54364 0.1476 0.68286 0.0
C2887 C 0.54397 0.14229 0.65977 0.0
C2888 C 0.56055 0.13959 0.69731 0.0
C2889 C 0.56195 0.12944 0.6511 0.0
C2890 C 0.5789 0.12136 0.66544 0.0
C2891 C 0.59437 0.11692 0.70354 0.0
C2892 C 0.59351 0.12182 0.72683 0.0
C2893 C 0.57816 0.12599 0.68869 0.0
C2894 C 0.57594 0.13568 0.73492 0.0
C2895 C 0.55968 0.14439 0.72041 0.0
H2896 H 0.14752 0.28646 0.91896 0.0
H2897 H 0.07535 0.29431 0.91485 0.0
H2898 H 0.07655 0.32309 0.94462 0.0
H2899 H 0.09813 0.34468 0.97282 0.0
H2900 H 0.17049 0.33819 0.97562 0.0
H2901 H 0.16939 0.3101 0.94517 0.0
C2902 C 0.1321 0.29458 0.92459 0.0
C2903 C 0.11135 0.28834 0.91499 0.0
C2904 C 0.13302 0.31118 0.94141 0.0
C2905 C 0.09147 0.29905 0.92203 0.0
C2906 C 0.09217 0.31536 0.93907 0.0
C2907 C 0.11362 0.33707 0.96668 0.0
C2908 C 0.13435 0.34313 0.97642 0.0
C2909 C 0.11282 0.32133 0.94904 0.0
C2910 C 0.1544 0.33364 0.96824 0.0
C2911 C 0.15374 0.3176 0.95095 0.0
H2912 H 0.3041 0.89914 0.13134 0.0
H2913 H 0.26063 0.94463 0.09497 0.0
H2914 H 0.28734 0.97553 0.10112 0.0
H2915 H 0.32281 0.98943 0.11683 0.0
H2916 H 0.36726 0.94358 0.15175 0.0
H2917 H 0.34018 0.91309 0.14666 0.0
C2918 C 0.30088 0.91566 0.12418 0.0
C2919 C 0.28091 0.91956 0.11205 0.0
C2920 C 0.31614 0.93336 0.12809 0.0
C2921 C 0.27621 0.94127 0.10393 0.0
C2922 C 0.29135 0.95891 0.1076 0.0
C2923 C 0.32653 0.97281 0.12352 0.0
C2924 C 0.34685 0.96905 0.13516 0.0
C2925 C 0.31128 0.95515 0.11975 0.0
C2926 C 0.35144 0.94735 0.14355 0.0
C2927 C 0.33612 0.92971 0.14023 0.0
H2928 H 0.27033 0.06184 0.37699 0.0
H2929 H 0.31489 0.11948 0.3762 0.0
H2930 H 0.34671 0.09513 0.36757 0.0
H2931 H 0.36221 0.05709 0.36135 0.0
H2932 H 0.31715 0.99994 0.35971 0.0
H2933 H 0.28512 0.02459 0.36753 0.0
C2934 C 0.287 0.06914 0.37498 0.0
C2935 C 0.29021 0.09241 0.37833 0.0
C2936 C 0.30513 0.05514 0.36911 0.0
C2937 C 0.3119 0.10155 0.37515 0.0
C2938 C 0.33016 0.08764 0.36968 0.0
C2939 C 0.34533 0.05014 0.36191 0.0
C2940 C 0.34201 0.02677 0.3596 0.0
C2941 C 0.32699 0.06438 0.36671 0.0
C2942 C 0.32007 0.01792 0.36129 0.0
C2943 C 0.30179 0.03196 0.3659 0.0
H2944 H 0.17284 0.02293 0.61362 0.0
H2945 H 0.15093 0.06177 0.67126 0.0
H2946 H 0.17582 0.0928 0.65989 0.0
H2947 H 0.20565 0.10771 0.63475 0.0
H2948 H 0.22852 0.06771 0.5784 0.0
H2949 H 0.20139 0.0381 0.5881 0.0
C2950 C 0.1735 0.03816 0.62377 0.0
C2951 C 0.15998 0.04006 0.64323 0.0
C2952 C 0.18796 0.05569 0.61727 0.0
C2953 C 0.16089 0.06 0.65603 0.0
C2954 C 0.17521 0.07769 0.64959 0.0
C2955 C 0.20416 0.09281 0.62424 0.0
C2956 C 0.21857 0.09003 0.60555 0.0
C2957 C 0.18893 0.07565 0.63031 0.0
C2958 C 0.21728 0.07025 0.59263 0.0
C2959 C 0.2019 0.05332 0.59826 0.0
H2960 H 0.17261 0.9718 0.90305 0.0
H2961 H 0.17317 0.96865 0.83029 0.0
H2962 H 0.20389 0.94101 0.83147 0.0
H2963 H 0.23084 0.91836 0.85337 0.0
H2964 H 0.22936 0.92068 0.92614 0.0
H2965 H 0.19861 0.94827 0.92492 0.0
C2966 C 0.17951 0.96505 0.88747 0.0
C2967 C 0.17078 0.97211 0.86661 0.0
C2968 C 0.19693 0.94918 0.88835 0.0
C2969 C 0.17954 0.96316 0.84651 0.0
C2970 C 0.19715 0.94753 0.8472 0.0
C2971 C 0.2238 0.92505 0.86892 0.0
C2972 C 0.23225 0.91775 0.88982 0.0
C2973 C 0.20602 0.94054 0.86803 0.0
C2974 C 0.22293 0.92611 0.90991 0.0
C2975 C 0.20545 0.94185 0.9092 0.0
H2976 H 0.64653 0.23565 0.08573 0.0
H2977 H 0.58737 0.19817 0.10566 0.0
H2978 H 0.59923 0.16655 0.08175 0.0
H2979 H 0.62526 0.15076 0.05312 0.0
H2980 H 0.68289 0.18961 0.03175 0.0
H2981 H 0.67288 0.21961 0.05839 0.0
C2982 C 0.63616 0.22058 0.08484 0.0
C2983 C 0.61613 0.21923 0.09755 0.0
C2984 C 0.64294 0.20271 0.0709 0.0
C2985 C 0.60303 0.19951 0.09636 0.0
C2986 C 0.60976 0.18148 0.08259 0.0
C2987 C 0.63593 0.16553 0.05485 0.0
C2988 C 0.65508 0.16788 0.041 0.0
C2989 C 0.62961 0.18298 0.06966 0.0
C2990 C 0.66833 0.1874 0.04261 0.0
C2991 C 0.6625 0.20456 0.05767 0.0
H2992 H 0.06827 0.38468 0.26749 0.0
H2993 H 0.11673 0.40592 0.31762 0.0
H2994 H 0.08955 0.39832 0.34748 0.0
H2995 H 0.05231 0.38426 0.35952 0.0
H2996 H 0.00483 0.36099 0.30956 0.0
H2997 H 0.03154 0.37028 0.2794 0.0
C2998 C 0.07287 0.38786 0.28494 0.0
C2999 C 0.09442 0.39637 0.29013 0.0
C3000 C 0.05752 0.3825 0.30209 0.0
C3001 C 0.10008 0.40025 0.31286 0.0
C3002 C 0.08465 0.39545 0.33007 0.0
C3003 C 0.04816 0.38058 0.34207 0.0
C3004 C 0.02707 0.37118 0.33667 0.0
C3005 C 0.06348 0.3862 0.32489 0.0
C3006 C 0.02125 0.36772 0.31399 0.0
C3007 C 0.03641 0.37319 0.29681 0.0
H3008 H 0.84396 0.81943 0.52981 0.0
H3009 H 0.89134 0.86808 0.55578 0.0
H3010 H 0.90441 0.84094 0.58389 0.0
H3011 H 0.90424 0.80241 0.599 0.0
H3012 H 0.85572 0.7542 0.57366 0.0
H3013 H 0.842 0.78179 0.54671 0.0
C3014 C 0.85682 0.82416 0.54197 0.0
C3015 C 0.86623 0.84582 0.54122 0.0
C3016 C 0.86447 0.80837 0.5578 0.0
C3017 C 0.88323 0.85175 0.55664 0.0
C3018 C 0.89098 0.8361 0.57246 0.0
C3019 C 0.89023 0.79805 0.58818 0.0
C3020 C 0.88084 0.77627 0.58883 0.0
C3021 C 0.88191 0.81424 0.573 0.0
C3022 C 0.86341 0.77078 0.57361 0.0
C3023 C 0.85537 0.78661 0.55824 0.0
H3024 H 0.07871 0.65749 0.22727 0.0
H3025 H 0.1026 0.59956 0.19016 0.0
H3026 H 0.08076 0.61138 0.15716 0.0
H3027 H 0.05198 0.63621 0.14036 0.0
H3028 H 0.02624 0.69244 0.17866 0.0
H3029 H 0.05194 0.68349 0.20976 0.0
C3030 C 0.07917 0.64746 0.21194 0.0
C3031 C 0.09222 0.62768 0.21111 0.0
C3032 C 0.06638 0.65419 0.19326 0.0
C3033 C 0.09289 0.61499 0.19109 0.0
C3034 C 0.08033 0.6217 0.17228 0.0
C3035 C 0.05266 0.64693 0.15521 0.0
C3036 C 0.03776 0.66526 0.15718 0.0
C3037 C 0.06678 0.64109 0.17329 0.0
C3038 C 0.03797 0.67854 0.17677 0.0
C3039 C 0.05245 0.67328 0.19457 0.0
H3040 H 0.45825 0.38627 0.6511 0.0
H3041 H 0.48708 0.33462 0.69332 0.0
H3042 H 0.45894 0.34239 0.7226 0.0
H3043 H 0.42735 0.36477 0.73659 0.0
H3044 H 0.39953 0.41799 0.69549 0.0
H3045 H 0.42583 0.40847 0.66507 0.0
C3046 C 0.45791 0.37635 0.66647 0.0
C3047 C 0.47424 0.35953 0.66998 0.0
C3048 C 0.44202 0.3813 0.68338 0.0
C3049 C 0.47438 0.34741 0.69028 0.0
C3050 C 0.4584 0.35192 0.70699 0.0
C3051 C 0.42702 0.37435 0.721 0.0
C3052 C 0.41131 0.39191 0.71824 0.0
C3053 C 0.44237 0.36902 0.70382 0.0
C3054 C 0.41107 0.40406 0.69789 0.0
C3055 C 0.42623 0.39873 0.68055 0.0
H3056 H 0.4483 0.63988 0.85774 0.0
H3057 H 0.49925 0.66024 0.80984 0.0
H3058 H 0.47378 0.65157 0.77862 0.0
H3059 H 0.4379 0.63661 0.76502 0.0
H3060 H 0.38586 0.61896 0.81295 0.0
H3061 H 0.41108 0.62768 0.84403 0.0
C3062 C 0.45355 0.64322 0.84055 0.0
C3063 C 0.47546 0.65114 0.83611 0.0
C3064 C 0.43891 0.63793 0.82266 0.0
C3065 C 0.48234 0.65438 0.81364 0.0
C3066 C 0.46787 0.64926 0.7958 0.0
C3067 C 0.43204 0.63455 0.78226 0.0
C3068 C 0.41023 0.62615 0.78644 0.0
C3069 C 0.44629 0.64064 0.80012 0.0
C3070 C 0.40287 0.62407 0.80895 0.0
C3071 C 0.41718 0.62959 0.82687 0.0
H3072 H 0.90768 0.17045 0.97613 0.0
H3073 H 0.83523 0.17329 0.98183 0.0
H3074 H 0.83411 0.20423 0.95437 0.0
H3075 H 0.854 0.23035 0.92876 0.0
H3076 H 0.92626 0.22589 0.92177 0.0
H3077 H 0.92737 0.19566 0.94992 0.0
C3078 C 0.89167 0.17793 0.97138 0.0
C3079 C 0.87156 0.16976 0.98086 0.0
C3080 C 0.89121 0.19536 0.95547 0.0
C3081 C 0.85087 0.17927 0.97449 0.0
C3082 C 0.85026 0.19698 0.95893 0.0
C3083 C 0.86995 0.22279 0.93359 0.0
C3084 C 0.89005 0.23021 0.92346 0.0
C3085 C 0.87034 0.20515 0.94934 0.0
C3086 C 0.91063 0.22024 0.92941 0.0
C3087 C 0.91125 0.20305 0.94547 0.0
H3088 H 0.626 0.82903 0.4848 0.0
H3089 H 0.67749 0.85724 0.44167 0.0
H3090 H 0.6662 0.83158 0.4112 0.0
H3091 H 0.64293 0.79961 0.39776 0.0
H3092 H 0.59295 0.7706 0.44196 0.0
H3093 H 0.60246 0.79812 0.47131 0.0
C3094 C 0.63486 0.82955 0.46876 0.0
C3095 C 0.65251 0.84508 0.46546 0.0
C3096 C 0.62845 0.81468 0.45156 0.0
C3097 C 0.66363 0.84569 0.44452 0.0
C3098 C 0.65725 0.83094 0.42715 0.0
C3099 C 0.63375 0.7998 0.4136 0.0
C3100 C 0.6169 0.78358 0.41765 0.0
C3101 C 0.63974 0.8153 0.43054 0.0
C3102 C 0.60572 0.78324 0.43851 0.0
C3103 C 0.61124 0.79884 0.45525 0.0
H3104 H 0.85637 0.44842 0.63076 0.0
H3105 H 0.80785 0.50267 0.63242 0.0
H3106 H 0.77792 0.47648 0.62177 0.0
H3107 H 0.76575 0.43855 0.61127 0.0
H3108 H 0.81363 0.38367 0.61357 0.0
H3109 H 0.84356 0.40982 0.62301 0.0
C3110 C 0.83917 0.45444 0.62959 0.0
C3111 C 0.83431 0.47743 0.63289 0.0
C3112 C 0.822 0.43928 0.6235 0.0
C3113 C 0.81201 0.48501 0.63018 0.0
C3114 C 0.7949 0.47008 0.62397 0.0
C3115 C 0.78274 0.43222 0.61372 0.0
C3116 C 0.78732 0.40911 0.61069 0.0
C3117 C 0.79977 0.44723 0.62036 0.0
C3118 C 0.80946 0.40134 0.61439 0.0
C3119 C 0.82667 0.41632 0.62036 0.0
H3120 H 0.82564 0.51945 0.88092 0.0
H3121 H 0.85486 0.56276 0.83018 0.0
H3122 H 0.8294 0.5933 0.84149 0.0
H3123 H 0.79715 0.60655 0.86416 0.0
H3124 H 0.76687 0.56233 0.91334 0.0
H3125 H 0.7945 0.533 0.90424 0.0
C3126 C 0.82642 0.53556 0.87226 0.0
C3127 C 0.84215 0.53889 0.85478 0.0
C3128 C 0.81163 0.55279 0.87866 0.0
C3129 C 0.84314 0.5599 0.8439 0.0
C3130 C 0.82851 0.5773 0.8503 0.0
C3131 C 0.79708 0.59076 0.87335 0.0
C3132 C 0.78045 0.58667 0.88978 0.0
C3133 C 0.81259 0.57386 0.86755 0.0
C3134 C 0.77981 0.56581 0.90088 0.0
C3135 C 0.79547 0.54908 0.89558 0.0
H3136 H 0.63283 0.5554 0.13275 0.0
H3137 H 0.67614 0.53128 0.18591 0.0
H3138 H 0.70565 0.55768 0.17423 0.0
H3139 H 0.72042 0.58433 0.14652 0.0
H3140 H 0.67824 0.60743 0.09197 0.0
H3141 H 0.64671 0.5849 0.10666 0.0
C3142 C 0.64841 0.5566 0.14225 0.0
C3143 C 0.65226 0.54185 0.16045 0.0
C3144 C 0.66555 0.57126 0.1349 0.0
C3145 C 0.67281 0.5428 0.17211 0.0
C3146 C 0.6897 0.5577 0.1653 0.0
C3147 C 0.70429 0.58449 0.13788 0.0
C3148 C 0.70165 0.59727 0.11807 0.0
C3149 C 0.6865 0.57143 0.14629 0.0
C3150 C 0.6806 0.59771 0.10726 0.0
C3151 C 0.66264 0.5848 0.11563 0.0
H3152 H 0.70665 0.40202 0.36805 0.0
H3153 H 0.73757 0.44126 0.42095 0.0
H3154 H 0.71019 0.47159 0.41492 0.0
H3155 H 0.67878 0.48739 0.3935 0.0
H3156 H 0.64915 0.44928 0.33893 0.0
H3157 H 0.67457 0.41778 0.34683 0.0
C3158 C 0.70691 0.41699 0.37861 0.0
C3159 C 0.72357 0.41938 0.39528 0.0
C3160 C 0.69156 0.43451 0.37459 0.0
C3161 C 0.72455 0.43911 0.40829 0.0
C3162 C 0.70904 0.45642 0.40475 0.0
C3163 C 0.67791 0.47221 0.38328 0.0
C3164 C 0.66195 0.47054 0.36582 0.0
C3165 C 0.69273 0.45442 0.38771 0.0
C3166 C 0.66094 0.45077 0.35278 0.0
C3167 C 0.67556 0.43282 0.35721 0.0
H3168 H 0.08357 0.17474 0.39704 0.0
H3169 H 0.1008 0.12149 0.44345 0.0
H3170 H 0.14088 0.12644 0.43454 0.0
H3171 H 0.17112 0.14728 0.41506 0.0
H3172 H 0.15419 0.20353 0.37221 0.0
H3173 H 0.11391 0.19607 0.37807 0.0
C3174 C 0.09611 0.16405 0.40496 0.0
C3175 C 0.08927 0.14759 0.42069 0.0
C3176 C 0.11916 0.16764 0.40045 0.0
C3177 C 0.10569 0.1342 0.43125 0.0
C3178 C 0.12858 0.13705 0.42616 0.0
C3179 C 0.15858 0.15771 0.40678 0.0
C3180 C 0.16558 0.17577 0.393 0.0
C3181 C 0.13553 0.15389 0.41099 0.0
C3182 C 0.14919 0.18949 0.3828 0.0
C3183 C 0.12619 0.18524 0.38618 0.0
H3184 H 0.10371 0.92533 0.67271 0.0
H3185 H 0.05289 0.90448 0.62492 0.0
H3186 H 0.06309 0.86486 0.63114 0.0
H3187 H 0.08517 0.83623 0.65161 0.0
H3188 H 0.13284 0.85715 0.70251 0.0
H3189 H 0.12527 0.8968 0.69358 0.0
C3190 C 0.09505 0.91212 0.66342 0.0
C3191 C 0.07775 0.9178 0.64815 0.0
C3192 C 0.10041 0.88946 0.66775 0.0
C3193 C 0.06632 0.90051 0.63666 0.0
C3194 C 0.07214 0.8779 0.64024 0.0
C3195 C 0.09411 0.8495 0.66053 0.0
C3196 C 0.10976 0.84383 0.67751 0.0
C3197 C 0.08899 0.87218 0.65592 0.0
C3198 C 0.12082 0.86113 0.68932 0.0
C3199 C 0.11647 0.88376 0.68423 0.0
H3200 H 0.33908 0.85404 0.92165 0.0
H3201 H 0.35996 0.80024 0.87726 0.0
H3202 H 0.39969 0.80874 0.88549 0.0
H3203 H 0.42816 0.83043 0.90675 0.0
H3204 H 0.40669 0.8809 0.95467 0.0
H3205 H 0.36728 0.87483 0.94364 0.0
C3206 C 0.35237 0.84438 0.91354 0.0
C3207 C 0.34676 0.82679 0.89859 0.0
C3208 C 0.37492 0.84872 0.91913 0.0
C3209 C 0.364 0.81396 0.88867 0.0
C3210 C 0.38663 0.8188 0.89342 0.0
C3211 C 0.41481 0.84023 0.91459 0.0
C3212 C 0.42018 0.85627 0.93129 0.0
C3213 C 0.39225 0.83599 0.90881 0.0
C3214 C 0.40284 0.86853 0.94174 0.0
C3215 C 0.38039 0.86507 0.93543 0.0
H3216 H 0.40416 0.08157 0.16885 0.0
H3217 H 0.44898 0.104 0.11605 0.0
H3218 H 0.43669 0.14305 0.12204 0.0
H3219 H 0.41507 0.17088 0.14386 0.0
H3220 H 0.37394 0.1491 0.19988 0.0
H3221 H 0.38281 0.1096 0.19109 0.0
C3222 C 0.41095 0.09501 0.15843 0.0
C3223 C 0.42721 0.08995 0.14178 0.0
C3224 C 0.40455 0.11746 0.16269 0.0
C3225 C 0.43635 0.10751 0.12882 0.0
C3226 C 0.42936 0.1298 0.13229 0.0
C3227 C 0.40775 0.15746 0.15395 0.0
C3228 C 0.3936 0.16285 0.17232 0.0
C3229 C 0.41371 0.13498 0.14938 0.0
C3230 C 0.38474 0.14534 0.18559 0.0
C3231 C 0.38985 0.1228 0.18057 0.0
H3232 H 0.10016 0.86763 0.06948 0.0
H3233 H 0.07003 0.80945 0.10102 0.0
H3234 H 0.10682 0.7979 0.1157 0.0
H3235 H 0.14815 0.80362 0.11831 0.0
H3236 H 0.17721 0.86379 0.08917 0.0
H3237 H 0.14049 0.87526 0.07521 0.0
C3238 C 0.10169 0.85249 0.07963 0.0
C3239 C 0.0825 0.83932 0.08397 0.0
C3240 C 0.12278 0.84627 0.08856 0.0
C3241 C 0.08461 0.81989 0.09745 0.0
C3242 C 0.10565 0.81324 0.10582 0.0
C3243 C 0.14637 0.81935 0.10913 0.0
C3244 C 0.16554 0.83267 0.10478 0.0
C3245 C 0.12495 0.8262 0.10135 0.0
C3246 C 0.16284 0.85313 0.09293 0.0
C3247 C 0.1418 0.85973 0.08476 0.0
H3248 H 0.44578 0.89636 0.37219 0.0
H3249 H 0.40694 0.92856 0.31981 0.0
H3250 H 0.3923 0.89207 0.30754 0.0
H3251 H 0.39118 0.8506 0.31102 0.0
H3252 H 0.42766 0.81884 0.36543 0.0
H3253 H 0.44225 0.85526 0.37757 0.0
C3254 C 0.43408 0.89532 0.35814 0.0
C3255 C 0.42757 0.91508 0.34687 0.0
C3256 C 0.42518 0.87428 0.35151 0.0
C3257 C 0.41216 0.91356 0.32884 0.0
C3258 C 0.4038 0.89269 0.32175 0.0
C3259 C 0.40217 0.85172 0.32562 0.0
C3260 C 0.40829 0.83199 0.33721 0.0
C3261 C 0.41026 0.87288 0.33288 0.0
C3262 C 0.42247 0.83375 0.35623 0.0
C3263 C 0.43099 0.8546 0.36316 0.0
H3264 H 0.42155 0.17279 0.60602 0.0
H3265 H 0.40359 0.12063 0.55848 0.0
H3266 H 0.36353 0.12698 0.56634 0.0
H3267 H 0.33371 0.14865 0.58511 0.0
H3268 H 0.35127 0.20363 0.62955 0.0
H3269 H 0.39144 0.19494 0.62457 0.0
C3270 C 0.40883 0.16262 0.59764 0.0
C3271 C 0.41545 0.14607 0.58188 0.0
C3272 C 0.38582 0.16701 0.60158 0.0
C3273 C 0.39885 0.13338 0.57073 0.0
C3274 C 0.37598 0.13703 0.5752 0.0
C3275 C 0.34631 0.15859 0.59393 0.0
C3276 C 0.33951 0.17664 0.60787 0.0
C3277 C 0.36928 0.15399 0.59036 0.0
C3278 C 0.35607 0.18963 0.61879 0.0
C3279 C 0.37901 0.18466 0.61594 0.0
H3280 H 0.12295 0.15125 0.81242 0.0
H3281 H 0.07315 0.1835 0.85465 0.0
H3282 H 0.06027 0.14696 0.86833 0.0
H3283 H 0.06248 0.10558 0.86785 0.0
H3284 H 0.11428 0.0732 0.82821 0.0
H3285 H 0.12709 0.10974 0.81424 0.0
C3286 C 0.10936 0.15017 0.82465 0.0
C3287 C 0.099 0.16997 0.83246 0.0
C3288 C 0.10237 0.12903 0.83301 0.0
C3289 C 0.08151 0.16844 0.84849 0.0
C3290 C 0.07405 0.14755 0.85629 0.0
C3291 C 0.07664 0.10658 0.85627 0.0
C3292 C 0.08733 0.08674 0.84906 0.0
C3293 C 0.08428 0.12771 0.84864 0.0
C3294 C 0.10582 0.08827 0.83418 0.0
C3295 C 0.11311 0.10916 0.82605 0.0
H3296 H 0.15206 0.42654 0.17777 0.0
H3297 H 0.19902 0.37512 0.15668 0.0
H3298 H 0.18747 0.38035 0.11728 0.0
H3299 H 0.16592 0.40135 0.08871 0.0
H3300 H 0.12263 0.45604 0.10941 0.0
H3301 H 0.13066 0.44771 0.14916 0.0
C3302 C 0.15951 0.41626 0.16455 0.0
C3303 C 0.17619 0.40028 0.17007 0.0
C3304 C 0.15349 0.42007 0.14192 0.0
C3305 C 0.1861 0.38744 0.15279 0.0
C3306 C 0.17952 0.39046 0.13031 0.0
C3307 C 0.15797 0.4112 0.10197 0.0
C3308 C 0.14348 0.4291 0.09623 0.0
C3309 C 0.16348 0.40695 0.12465 0.0
C3310 C 0.13373 0.44211 0.11349 0.0
C3311 C 0.13837 0.43737 0.13616 0.0
H3312 H 0.68051 0.10656 0.92435 0.0
H3313 H 0.62768 0.05936 0.90775 0.0
H3314 H 0.63362 0.06652 0.86743 0.0
H3315 H 0.65514 0.0847 0.83694 0.0
H3316 H 0.71084 0.12857 0.8534 0.0
H3317 H 0.70253 0.1243 0.89373 0.0
C3318 C 0.67012 0.09808 0.91187 0.0
C3319 C 0.65349 0.08265 0.91896 0.0
C3320 C 0.67428 0.1016 0.88873 0.0
C3321 C 0.6405 0.07137 0.90266 0.0
C3322 C 0.64392 0.07544 0.87964 0.0
C3323 C 0.66531 0.09353 0.84936 0.0
C3324 C 0.68346 0.10712 0.8422 0.0
C3325 C 0.66094 0.09031 0.87248 0.0
C3326 C 0.69676 0.11807 0.85849 0.0
C3327 C 0.69201 0.11562 0.88153 0.0
H3328 H 0.80788 0.88944 0.3542 0.0
H3329 H 0.85962 0.92824 0.32072 0.0
H3330 H 0.87326 0.94213 0.35697 0.0
H3331 H 0.87033 0.94379 0.39857 0.0
H3332 H 0.82076 0.90239 0.43212 0.0
H3333 H 0.80654 0.88915 0.3958 0.0
C3334 C 0.82218 0.90085 0.3549 0.0
C3335 C 0.83264 0.90778 0.33478 0.0
C3336 C 0.83036 0.90844 0.37591 0.0
C3337 C 0.85131 0.92247 0.33596 0.0
C3338 C 0.8591 0.93055 0.35671 0.0
C3339 C 0.85644 0.93188 0.39783 0.0
C3340 C 0.84658 0.92415 0.41795 0.0
C3341 C 0.84872 0.92375 0.37683 0.0
C3342 C 0.82873 0.90851 0.41682 0.0
C3343 C 0.82053 0.90095 0.39606 0.0
H3344 H 0.85526 0.0796 0.17512 0.0
H3345 H 0.80824 0.13112 0.15454 0.0
H3346 H 0.81999 0.12635 0.11514 0.0
H3347 H 0.84179 0.10579 0.08639 0.0
H3348 H 0.88532 0.05115 0.10649 0.0
H3349 H 0.87698 0.05893 0.14632 0.0
C3350 C 0.84782 0.08999 0.16202 0.0
C3351 C 0.83105 0.10583 0.16769 0.0
C3352 C 0.85401 0.0865 0.13936 0.0
C3353 C 0.82119 0.11885 0.15054 0.0
C3354 C 0.8279 0.11611 0.12805 0.0
C3355 C 0.84974 0.09585 0.09954 0.0
C3356 C 0.86438 0.0781 0.0936 0.0
C3357 C 0.84406 0.09977 0.12224 0.0
C3358 C 0.87412 0.06496 0.11072 0.0
C3359 C 0.8693 0.06938 0.13343 0.0
H3360 H 0.35196 0.58842 0.67467 0.0
H3361 H 0.29627 0.62939 0.65214 0.0
H3362 H 0.3051 0.61984 0.61274 0.0
H3363 H 0.32768 0.59847 0.58502 0.0
H3364 H 0.38043 0.55408 0.60818 0.0
H3365 H 0.37375 0.56631 0.64719 0.0
C3366 C 0.34195 0.59554 0.6611 0.0
C3367 C 0.32372 0.60993 0.66622 0.0
C3368 C 0.34652 0.58918 0.63871 0.0
C3369 C 0.31049 0.61848 0.64856 0.0
C3370 C 0.31551 0.61296 0.62609 0.0
C3371 C 0.33784 0.59163 0.59861 0.0
C3372 C 0.35471 0.57556 0.59376 0.0
C3373 C 0.33334 0.59814 0.62101 0.0
C3374 C 0.36742 0.56647 0.61153 0.0
C3375 C 0.36361 0.57349 0.63379 0.0
H3376 H 0.19063 0.62398 0.35715 0.0
H3377 H 0.13921 0.5838 0.32479 0.0
H3378 H 0.12661 0.56969 0.36122 0.0
H3379 H 0.1311 0.56726 0.40239 0.0
H3380 H 0.18024 0.60962 0.43537 0.0
H3381 H 0.19258 0.6244 0.39893 0.0
C3382 C 0.17659 0.61228 0.35816 0.0
C3383 C 0.16598 0.60493 0.33828 0.0
C3384 C 0.16895 0.60454 0.37935 0.0
C3385 C 0.14764 0.58988 0.33984 0.0
C3386 C 0.14043 0.58168 0.36069 0.0
C3387 C 0.14433 0.57989 0.40156 0.0
C3388 C 0.15474 0.58726 0.4215 0.0
C3389 C 0.15107 0.5887 0.38056 0.0
C3390 C 0.17179 0.60378 0.42023 0.0
C3391 C 0.17899 0.61216 0.39938 0.0
H3392 H 0.32926 0.40535 0.92113 0.0
H3393 H 0.37921 0.45421 0.90081 0.0
H3394 H 0.3733 0.44407 0.86112 0.0
H3395 H 0.35248 0.4228 0.83218 0.0
H3396 H 0.29956 0.37701 0.8522 0.0
H3397 H 0.30807 0.38434 0.89206 0.0
C3398 C 0.33905 0.41355 0.908 0.0
C3399 C 0.35484 0.43035 0.91387 0.0
C3400 C 0.3349 0.40825 0.8852 0.0
C3401 C 0.36704 0.4412 0.8967 0.0
C3402 C 0.36363 0.43541 0.87403 0.0
C3403 C 0.34299 0.4142 0.84528 0.0
C3404 C 0.32555 0.39919 0.83926 0.0
C3405 C 0.34742 0.41917 0.86808 0.0
C3406 C 0.31309 0.38857 0.85641 0.0
C3407 C 0.31795 0.39278 0.87918 0.0
H3408 H 0.6701 0.64905 0.91543 0.0
H3409 H 0.65059 0.70554 0.87398 0.0
H3410 H 0.6107 0.69806 0.88254 0.0
H3411 H 0.5817 0.676 0.90278 0.0
H3412 H 0.60197 0.62224 0.94742 0.0
H3413 H 0.64148 0.62806 0.93664 0.0
C3414 C 0.65709 0.65959 0.90804 0.0
C3415 C 0.66318 0.6776 0.89377 0.0
C3416 C 0.63446 0.65569 0.91373 0.0
C3417 C 0.64625 0.6915 0.88484 0.0
C3418 C 0.62351 0.68722 0.88977 0.0
C3419 C 0.59479 0.66545 0.91 0.0
C3420 C 0.589 0.64851 0.92567 0.0
C3421 C 0.61746 0.66944 0.9043 0.0
C3422 C 0.60608 0.6353 0.9353 0.0
C3423 C 0.62861 0.63862 0.92911 0.0
H3424 H 0.59895 0.42344 0.18029 0.0
H3425 H 0.55167 0.40396 0.12849 0.0
H3426 H 0.56217 0.36432 0.13347 0.0
H3427 H 0.58298 0.33514 0.15415 0.0
H3428 H 0.62691 0.35411 0.20902 0.0
H3429 H 0.61968 0.39409 0.20122 0.0
C3430 C 0.59119 0.41051 0.16989 0.0
C3431 C 0.57471 0.41658 0.15388 0.0
C3432 C 0.59665 0.38772 0.17351 0.0
C3433 C 0.56442 0.39967 0.14086 0.0
C3434 C 0.57041 0.37703 0.14373 0.0
C3435 C 0.59125 0.34804 0.16419 0.0
C3436 C 0.60568 0.34172 0.18198 0.0
C3437 C 0.58627 0.37085 0.16021 0.0
C3438 C 0.61584 0.35859 0.19519 0.0
C3439 C 0.61166 0.38141 0.19075 0.0
H3440 H 0.92267 0.33568 0.40245 0.0
H3441 H 0.90279 0.38113 0.45578 0.0
H3442 H 0.86295 0.37499 0.44633 0.0
H3443 H 0.83393 0.35562 0.42369 0.0
H3444 H 0.8539 0.30682 0.37347 0.0
H3445 H 0.89373 0.31534 0.38079 0.0
C3446 C 0.90959 0.34441 0.41184 0.0
C3447 C 0.91555 0.35907 0.42958 0.0
C3448 C 0.88685 0.34011 0.40688 0.0
C3449 C 0.89852 0.36986 0.442 0.0
C3450 C 0.87581 0.36634 0.4366 0.0
C3451 C 0.84705 0.34704 0.41422 0.0
C3452 C 0.84113 0.33084 0.39786 0.0
C3453 C 0.8698 0.35138 0.41917 0.0
C3454 C 0.85816 0.31941 0.38605 0.0
C3455 C 0.88086 0.32428 0.39025 0.0
H3456 H 0.92332 0.67012 0.65351 0.0
H3457 H 0.88016 0.65089 0.7089 0.0
H3458 H 0.8865 0.61087 0.69998 0.0
H3459 H 0.90493 0.58149 0.6766 0.0
H3460 H 0.95133 0.60127 0.62409 0.0
H3461 H 0.94309 0.6411 0.6316 0.0
C3462 C 0.91515 0.65715 0.66354 0.0
C3463 C 0.901 0.66338 0.68163 0.0
C3464 C 0.91952 0.63437 0.65879 0.0
C3465 C 0.891 0.64646 0.69484 0.0
C3466 C 0.89463 0.62364 0.68971 0.0
C3467 C 0.91308 0.59458 0.66672 0.0
C3468 C 0.92848 0.58855 0.64959 0.0
C3469 C 0.90889 0.61741 0.67174 0.0
C3470 C 0.93936 0.60557 0.63725 0.0
C3471 C 0.93465 0.62828 0.64156 0.0
H3472 H 0.58633 0.32489 0.60514 0.0
H3473 H 0.60472 0.37318 0.55388 0.0
H3474 H 0.64476 0.36609 0.56128 0.0
H3475 H 0.67426 0.34574 0.58173 0.0
H3476 H 0.65631 0.29452 0.63022 0.0
H3477 H 0.61614 0.30308 0.6245 0.0
C3478 C 0.59916 0.33396 0.59574 0.0
C3479 C 0.5927 0.34977 0.57919 0.0
C3480 C 0.62207 0.32919 0.59955 0.0
C3481 C 0.60936 0.36104 0.56673 0.0
C3482 C 0.63219 0.35698 0.57097 0.0
C3483 C 0.66156 0.33655 0.59121 0.0
C3484 C 0.66818 0.31976 0.60666 0.0
C3485 C 0.6387 0.34106 0.58727 0.0
C3486 C 0.65158 0.30759 0.61836 0.0
C3487 C 0.62868 0.3125 0.61508 0.0
H3488 H 0.91482 0.33553 0.85457 0.0
H3489 H 0.87368 0.35277 0.79708 0.0
H3490 H 0.88131 0.393 0.80369 0.0
H3491 H 0.90084 0.42295 0.82519 0.0
H3492 H 0.94525 0.40481 0.87991 0.0
H3493 H 0.93515 0.36502 0.87509 0.0
C3494 C 0.90727 0.34811 0.84363 0.0
C3495 C 0.89339 0.34129 0.82557 0.0
C3496 C 0.91244 0.37093 0.84702 0.0
C3497 C 0.88426 0.35769 0.81116 0.0
C3498 C 0.88865 0.38062 0.81494 0.0
C3499 C 0.90813 0.41025 0.83617 0.0
C3500 C 0.92357 0.41671 0.85307 0.0
C3501 C 0.90286 0.38739 0.83273 0.0
C3502 C 0.93331 0.40016 0.86686 0.0
C3503 C 0.92752 0.37748 0.86411 0.0
H3504 H 0.84933 0.69213 0.11561 0.0
H3505 H 0.81901 0.63683 0.07917 0.0
H3506 H 0.85605 0.62466 0.06601 0.0
H3507 H 0.89727 0.63069 0.06332 0.0
H3508 H 0.92762 0.68443 0.10202 0.0
H3509 H 0.89067 0.69607 0.11571 0.0
C3510 C 0.85087 0.6773 0.10497 0.0
C3511 C 0.83137 0.66553 0.09835 0.0
C3512 C 0.87233 0.67011 0.09769 0.0
C3513 C 0.83371 0.64621 0.08467 0.0
C3514 C 0.85492 0.63926 0.07698 0.0
C3515 C 0.89575 0.64485 0.07483 0.0
C3516 C 0.9152 0.6567 0.08148 0.0
C3517 C 0.87437 0.65124 0.08313 0.0
C3518 C 0.91297 0.67491 0.09664 0.0
C3519 C 0.8918 0.68167 0.10446 0.0
H3520 H 0.58349 0.6727 0.35422 0.0
H3521 H 0.62969 0.65217 0.3018 0.0
H3522 H 0.62162 0.6124 0.31013 0.0
H3523 H 0.60081 0.58363 0.33191 0.0
H3524 H 0.55164 0.60449 0.38144 0.0
H3525 H 0.56141 0.64411 0.37465 0.0
C3526 C 0.59196 0.65949 0.34476 0.0
C3527 C 0.60746 0.66529 0.32766 0.0
C3528 C 0.58658 0.63681 0.34907 0.0
C3529 C 0.61785 0.64808 0.31513 0.0
C3530 C 0.6132 0.62539 0.31989 0.0
C3531 C 0.59232 0.59688 0.34129 0.0
C3532 C 0.57568 0.59119 0.35735 0.0
C3533 C 0.59753 0.61958 0.33676 0.0
C3534 C 0.5645 0.60848 0.36905 0.0
C3535 C 0.57012 0.63109 0.36519 0.0
H3536 H 0.67764 0.90269 0.58056 0.0
H3537 H 0.62557 0.94971 0.5999 0.0
H3538 H 0.63026 0.9389 0.6396 0.0
H3539 H 0.65034 0.91722 0.66886 0.0
H3540 H 0.7053 0.87355 0.64978 0.0
H3541 H 0.69827 0.88173 0.60981 0.0
C3542 C 0.66716 0.91041 0.59346 0.0
C3543 C 0.65111 0.92682 0.58732 0.0
C3544 C 0.67053 0.90469 0.61623 0.0
C3545 C 0.63799 0.93703 0.60423 0.0
C3546 C 0.64067 0.93083 0.62689 0.0
C3547 C 0.66055 0.90926 0.65589 0.0
C3548 C 0.67811 0.89453 0.66216 0.0
C3549 C 0.65701 0.91481 0.63309 0.0
C3550 C 0.69162 0.8848 0.6453 0.0
C3551 C 0.68762 0.88952 0.6225 0.0
loop_
_geom_bond_atom_site_label_1
_geom_bond_atom_site_label_2
_geom_bond_distance
_geom_bond_site_symmetry_2
_ccdc_geom_bond_type
Co0 O3 1.970 . S
Co0 N17 1.989 . S
Co0 O25 1.967 . S
Co0 O32 1.920 . S
Co1 O4 1.966 . S
Co1 N10 2.022 1_455 S
Co1 N18 1.988 1_455 S
Co1 O26 1.941 . S
C2 O3 1.258 . S
C2 O4 1.263 . S
O3 Co0 1.970 . S
O3 C2 1.258 . S
O4 Co1 1.966 . S
O4 C2 1.263 . S
C5 O6 1.235 . S
C5 O32 1.289 . S
O6 C5 1.235 . S
C7 C9 1.400 . S
C7 N10 1.351 . S
C7 C12 1.501 . S
C8 C9 1.387 . S
C8 N11 1.341 . S
C9 C7 1.400 . S
C9 C8 1.387 . S
N10 Co1 2.022 1_655 S
N10 C7 1.351 . S
N10 N11 1.365 . S
N11 C8 1.341 . S
N11 N10 1.365 . S
N11 H31 0.862 1_655 S
C12 C7 1.501 . S
C12 H13 0.961 . S
C12 H14 0.961 . S
C12 H15 0.960 . S
H13 C12 0.961 . S
H14 C12 0.961 . S
H15 C12 0.960 . S
C16 N17 1.342 . S
C16 C20 1.401 1_455 S
C16 C21 1.499 . S
N17 Co0 1.989 . S
N17 C16 1.342 . S
N17 N18 1.382 1_455 S
N18 Co1 1.988 1_655 S
N18 N17 1.382 1_655 S
N18 C19 1.354 . S
C19 N18 1.354 . S
C19 C20 1.396 . S
C19 C29 1.510 . S
C20 C16 1.401 1_655 S
C20 C19 1.396 . S
C21 C16 1.499 . S
C21 H22 0.959 . S
C21 H23 0.981 . S
C21 H24 0.961 . S
H22 C21 0.959 . S
H23 C21 0.981 . S
H24 C21 0.961 . S
O25 Co0 1.967 . S
O25 C33 1.258 . S
O26 Co1 1.941 . S
O26 C33 1.266 . S
H27 C29 0.959 . S
H28 C29 0.961 . S
C29 C19 1.510 . S
C29 H27 0.959 . S
C29 H28 0.961 . S
C29 H30 0.960 . S
H30 C29 0.960 . S
H31 N11 0.862 1_455 S
O32 Co0 1.920 . S
O32 C5 1.289 . S
C33 O25 1.258 . S
C33 O26 1.266 . S
Co34 O37 1.970 . S
Co34 N51 1.989 . S
Co34 O59 1.967 . S
Co34 O66 1.920 . S
Co35 O38 1.966 . S
Co35 N44 2.022 . S
Co35 N52 1.993 . S
Co35 O60 1.941 . S
C36 O37 1.258 . S
C36 O38 1.263 . S
O37 Co34 1.970 . S
O37 C36 1.258 . S
O38 Co35 1.966 . S
O38 C36 1.263 . S
C39 O40 1.235 . S
C39 O66 1.289 . S
O40 C39 1.235 . S
C41 C43 1.400 . S
C41 N44 1.351 . S
C41 C46 1.501 . S
C42 C43 1.387 . S
C42 N45 1.341 . S
C43 C41 1.400 . S
C43 C42 1.387 . S
N44 Co35 2.022 . S
N44 C41 1.351 . S
N44 N45 1.365 . S
N45 C42 1.341 . S
N45 N44 1.365 . S
N45 H65 0.862 . S
C46 C41 1.501 . S
C46 H47 0.961 . S
C46 H48 0.961 . S
C46 H49 0.960 . S
H47 C46 0.961 . S
H48 C46 0.961 . S
H49 C46 0.960 . S
C50 N51 1.342 . S
C50 C54 1.401 . S
C50 C55 1.499 . S
N51 Co34 1.989 . S
N51 C50 1.342 . S
N51 N52 1.388 . S
N52 Co35 1.993 . S
N52 N51 1.388 . S
N52 C53 1.346 . S
C53 N52 1.346 . S
C53 C54 1.396 . S
C53 C63 1.510 . S
C54 C50 1.401 . S
C54 C53 1.396 . S
C55 C50 1.499 . S
C55 H56 0.959 . S
C55 H57 0.960 . S
C55 H58 0.961 . S
H56 C55 0.959 . S
H57 C55 0.960 . S
H58 C55 0.961 . S
O59 Co34 1.967 . S
O59 C67 1.258 . S
O60 Co35 1.941 . S
O60 C67 1.266 . S
H61 C63 0.959 . S
H62 C63 0.961 . S
C63 C53 1.510 . S
C63 H61 0.959 . S
C63 H62 0.961 . S
C63 H64 0.960 . S
H64 C63 0.960 . S
H65 N45 0.862 . S
O66 Co34 1.920 . S
O66 C39 1.289 . S
C67 O59 1.258 . S
C67 O60 1.266 . S
Co68 O71 1.970 . S
Co68 N85 1.989 . S
Co68 O93 1.967 . S
Co68 O100 1.920 . S
Co69 O72 1.966 . S
Co69 N78 2.022 . S
Co69 N86 1.993 . S
Co69 O94 1.941 . S
C70 O71 1.258 . S
C70 O72 1.263 . S
O71 Co68 1.970 . S
O71 C70 1.258 . S
O72 Co69 1.966 . S
O72 C70 1.263 . S
C73 O74 1.235 . S
C73 O100 1.289 1_554 S
O74 C73 1.235 . S
C75 C77 1.400 . S
C75 N78 1.351 . S
C75 C80 1.501 . S
C76 C77 1.387 . S
C76 N79 1.341 . S
C77 C75 1.400 . S
C77 C76 1.387 . S
N78 Co69 2.022 . S
N78 C75 1.351 . S
N78 N79 1.365 . S
N79 C76 1.341 . S
N79 N78 1.365 . S
N79 H99 0.862 . S
C80 C75 1.501 . S
C80 H81 0.961 . S
C80 H82 0.961 . S
C80 H83 0.960 . S
H81 C80 0.961 . S
H82 C80 0.961 . S
H83 C80 0.960 . S
C84 N85 1.342 . S
C84 C88 1.401 . S
C84 C89 1.499 . S
N85 Co68 1.989 . S
N85 C84 1.342 . S
N85 N86 1.388 . S
N86 Co69 1.993 . S
N86 N85 1.388 . S
N86 C87 1.346 . S
C87 N86 1.346 . S
C87 C88 1.396 . S
C87 C97 1.510 . S
C88 C84 1.401 . S
C88 C87 1.396 . S
C89 C84 1.499 . S
C89 H90 0.959 . S
C89 H91 0.960 . S
C89 H92 0.961 . S
H90 C89 0.959 . S
H91 C89 0.960 . S
H92 C89 0.961 . S
O93 Co68 1.967 . S
O93 C101 1.258 . S
O94 Co69 1.941 . S
O94 C101 1.266 . S
H95 C97 0.959 . S
H96 C97 0.961 . S
C97 C87 1.510 . S
C97 H95 0.959 . S
C97 H96 0.961 . S
C97 H98 0.960 . S
H98 C97 0.960 . S
H99 N79 0.862 . S
O100 Co68 1.920 . S
O100 C73 1.289 1_556 S
C101 O93 1.258 . S
C101 O94 1.266 . S
Co102 O105 1.970 . S
Co102 N119 1.989 . S
Co102 O127 1.967 . S
Co102 O134 1.920 . S
Co103 O106 1.966 . S
Co103 N112 2.022 . S
Co103 N120 1.993 . S
Co103 O128 1.941 . S
C104 O105 1.258 . S
C104 O106 1.263 . S
O105 Co102 1.970 . S
O105 C104 1.258 . S
O106 Co103 1.966 . S
O106 C104 1.263 . S
C107 O108 1.235 . S
C107 O134 1.289 . S
O108 C107 1.235 . S
C109 C111 1.400 . S
C109 N112 1.351 . S
C109 C114 1.501 . S
C110 C111 1.387 . S
C110 N113 1.341 . S
C111 C109 1.400 . S
C111 C110 1.387 . S
N112 Co103 2.022 . S
N112 C109 1.351 . S
N112 N113 1.365 . S
N113 C110 1.341 . S
N113 N112 1.365 . S
N113 H133 0.862 . S
C114 C109 1.501 . S
C114 H115 0.961 . S
C114 H116 0.961 . S
C114 H117 0.960 . S
H115 C114 0.961 . S
H116 C114 0.961 . S
H117 C114 0.960 . S
C118 N119 1.342 . S
C118 C122 1.401 . S
C118 C123 1.499 . S
N119 Co102 1.989 . S
N119 C118 1.342 . S
N119 N120 1.388 . S
N120 Co103 1.993 . S
N120 N119 1.388 . S
N120 C121 1.346 . S
C121 N120 1.346 . S
C121 C122 1.396 . S
C121 C131 1.510 . S
C122 C118 1.401 . S
C122 C121 1.396 . S
C123 C118 1.499 . S
C123 H124 0.959 . S
C123 H125 0.960 . S
C123 H126 0.961 . S
H124 C123 0.959 . S
H125 C123 0.960 . S
H126 C123 0.961 . S
O127 Co102 1.967 . S
O127 C135 1.258 . S
O128 Co103 1.941 . S
O128 C135 1.266 . S
H129 C131 0.959 . S
H130 C131 0.961 . S
C131 C121 1.510 . S
C131 H129 0.959 . S
C131 H130 0.961 . S
C131 H132 0.960 . S
H132 C131 0.960 . S
H133 N113 0.862 . S
O134 Co102 1.920 . S
O134 C107 1.289 . S
C135 O127 1.258 . S
C135 O128 1.266 . S
Co136 O139 1.970 . S
Co136 N153 1.989 . S
Co136 O161 1.967 . S
Co136 O168 1.920 . S
Co137 O140 1.966 . S
Co137 N146 2.022 1_455 S
Co137 N154 1.988 1_455 S
Co137 O162 1.941 . S
C138 O139 1.258 . S
C138 O140 1.263 . S
O139 Co136 1.970 . S
O139 C138 1.258 . S
O140 Co137 1.966 . S
O140 C138 1.263 . S
C141 O142 1.235 . S
C141 O168 1.289 1_556 S
O142 C141 1.235 . S
C143 C145 1.400 . S
C143 N146 1.351 . S
C143 C148 1.501 . S
C144 C145 1.387 . S
C144 N147 1.341 . S
C145 C143 1.400 . S
C145 C144 1.387 . S
N146 Co137 2.022 1_655 S
N146 C143 1.351 . S
N146 N147 1.365 . S
N147 C144 1.341 . S
N147 N146 1.365 . S
N147 H167 0.862 1_655 S
C148 C143 1.501 . S
C148 H149 0.961 . S
C148 H150 0.961 . S
C148 H151 0.960 . S
H149 C148 0.961 . S
H150 C148 0.961 . S
H151 C148 0.960 . S
C152 N153 1.342 . S
C152 C156 1.401 1_455 S
C152 C157 1.499 . S
N153 Co136 1.989 . S
N153 C152 1.342 . S
N153 N154 1.382 1_455 S
N154 Co137 1.988 1_655 S
N154 N153 1.382 1_655 S
N154 C155 1.354 . S
C155 N154 1.354 . S
C155 C156 1.396 . S
C155 C165 1.510 . S
C156 C152 1.401 1_655 S
C156 C155 1.396 . S
C157 C152 1.499 . S
C157 H158 0.959 . S
C157 H159 0.981 . S
C157 H160 0.961 . S
H158 C157 0.959 . S
H159 C157 0.981 . S
H160 C157 0.961 . S
O161 Co136 1.967 . S
O161 C169 1.258 . S
O162 Co137 1.941 . S
O162 C169 1.266 . S
H163 C165 0.959 . S
H164 C165 0.961 . S
C165 C155 1.510 . S
C165 H163 0.959 . S
C165 H164 0.961 . S
C165 H166 0.960 . S
H166 C165 0.960 . S
H167 N147 0.862 1_455 S
O168 Co136 1.920 . S
O168 C141 1.289 1_554 S
C169 O161 1.258 . S
C169 O162 1.266 . S
Co170 O173 1.970 . S
Co170 N187 1.989 . S
Co170 O195 1.967 . S
Co170 O202 1.920 . S
Co171 O174 1.966 . S
Co171 N180 2.022 . S
Co171 N188 1.993 . S
Co171 O196 1.941 . S
C172 O173 1.258 . S
C172 O174 1.263 . S
O173 Co170 1.970 . S
O173 C172 1.258 . S
O174 Co171 1.966 . S
O174 C172 1.263 . S
C175 O176 1.235 . S
C175 O202 1.289 . S
O176 C175 1.235 . S
C177 C179 1.400 . S
C177 N180 1.351 . S
C177 C182 1.501 . S
C178 C179 1.387 . S
C178 N181 1.341 . S
C179 C177 1.400 . S
C179 C178 1.387 . S
N180 Co171 2.022 . S
N180 C177 1.351 . S
N180 N181 1.365 . S
N181 C178 1.341 . S
N181 N180 1.365 . S
N181 H201 0.862 . S
C182 C177 1.501 . S
C182 H183 0.961 . S
C182 H184 0.961 . S
C182 H185 0.960 . S
H183 C182 0.961 . S
H184 C182 0.961 . S
H185 C182 0.960 . S
C186 N187 1.342 . S
C186 C190 1.401 . S
C186 C191 1.499 . S
N187 Co170 1.989 . S
N187 C186 1.342 . S
N187 N188 1.388 . S
N188 Co171 1.993 . S
N188 N187 1.388 . S
N188 C189 1.346 . S
C189 N188 1.346 . S
C189 C190 1.396 . S
C189 C199 1.510 . S
C190 C186 1.401 . S
C190 C189 1.396 . S
C191 C186 1.499 . S
C191 H192 0.959 . S
C191 H193 0.960 . S
C191 H194 0.961 . S
H192 C191 0.959 . S
H193 C191 0.960 . S
H194 C191 0.961 . S
O195 Co170 1.967 . S
O195 C203 1.258 . S
O196 Co171 1.941 . S
O196 C203 1.266 . S
H197 C199 0.959 . S
H198 C199 0.961 . S
C199 C189 1.510 . S
C199 H197 0.959 . S
C199 H198 0.961 . S
C199 H200 0.960 . S
H200 C199 0.960 . S
H201 N181 0.862 . S
O202 Co170 1.920 . S
O202 C175 1.289 . S
C203 O195 1.258 . S
C203 O196 1.266 . S
Co204 O207 1.970 . S
Co204 N221 1.989 . S
Co204 O229 1.967 . S
Co204 O236 1.920 . S
Co205 O208 1.966 . S
Co205 N214 2.022 . S
Co205 N222 1.993 . S
Co205 O230 1.941 . S
C206 O207 1.258 . S
C206 O208 1.263 . S
O207 Co204 1.970 . S
O207 C206 1.258 . S
O208 Co205 1.966 . S
O208 C206 1.263 . S
C209 O210 1.235 . S
C209 O236 1.289 . S
O210 C209 1.235 . S
C211 C213 1.400 . S
C211 N214 1.351 . S
C211 C216 1.501 . S
C212 C213 1.387 . S
C212 N215 1.341 . S
C213 C211 1.400 . S
C213 C212 1.387 . S
N214 Co205 2.022 . S
N214 C211 1.351 . S
N214 N215 1.365 . S
N215 C212 1.341 . S
N215 N214 1.365 . S
N215 H235 0.862 . S
C216 C211 1.501 . S
C216 H217 0.961 . S
C216 H218 0.961 . S
C216 H219 0.960 . S
H217 C216 0.961 . S
H218 C216 0.961 . S
H219 C216 0.960 . S
C220 N221 1.342 . S
C220 C224 1.401 . S
C220 C225 1.499 . S
N221 Co204 1.989 . S
N221 C220 1.342 . S
N221 N222 1.388 . S
N222 Co205 1.993 . S
N222 N221 1.388 . S
N222 C223 1.346 . S
C223 N222 1.346 . S
C223 C224 1.396 . S
C223 C233 1.510 . S
C224 C220 1.401 . S
C224 C223 1.396 . S
C225 C220 1.499 . S
C225 H226 0.959 . S
C225 H227 0.960 . S
C225 H228 0.961 . S
H226 C225 0.959 . S
H227 C225 0.960 . S
H228 C225 0.961 . S
O229 Co204 1.967 . S
O229 C237 1.258 . S
O230 Co205 1.941 . S
O230 C237 1.266 . S
H231 C233 0.959 . S
H232 C233 0.961 . S
C233 C223 1.510 . S
C233 H231 0.959 . S
C233 H232 0.961 . S
C233 H234 0.960 . S
H234 C233 0.960 . S
H235 N215 0.862 . S
O236 Co204 1.920 . S
O236 C209 1.289 . S
C237 O229 1.258 . S
C237 O230 1.266 . S
Co238 O241 1.970 . S
Co238 N255 1.989 . S
Co238 O263 1.967 . S
Co238 O270 1.920 . S
Co239 O242 1.966 . S
Co239 N248 2.022 . S
Co239 N256 1.993 . S
Co239 O264 1.941 . S
C240 O241 1.258 . S
C240 O242 1.263 . S
O241 Co238 1.970 . S
O241 C240 1.258 . S
O242 Co239 1.966 . S
O242 C240 1.263 . S
C243 O244 1.235 . S
C243 O270 1.289 . S
O244 C243 1.235 . S
C245 C247 1.400 . S
C245 N248 1.351 . S
C245 C250 1.501 . S
C246 C247 1.387 . S
C246 N249 1.341 . S
C247 C245 1.400 . S
C247 C246 1.387 . S
N248 Co239 2.022 . S
N248 C245 1.351 . S
N248 N249 1.365 . S
N249 C246 1.341 . S
N249 N248 1.365 . S
N249 H269 0.862 . S
C250 C245 1.501 . S
C250 H251 0.961 . S
C250 H252 0.961 . S
C250 H253 0.960 . S
H251 C250 0.961 . S
H252 C250 0.961 . S
H253 C250 0.960 . S
C254 N255 1.342 . S
C254 C258 1.401 . S
C254 C259 1.499 . S
N255 Co238 1.989 . S
N255 C254 1.342 . S
N255 N256 1.388 . S
N256 Co239 1.993 . S
N256 N255 1.388 . S
N256 C257 1.346 . S
C257 N256 1.346 . S
C257 C258 1.396 . S
C257 C267 1.510 . S
C258 C254 1.401 . S
C258 C257 1.396 . S
C259 C254 1.499 . S
C259 H260 0.959 . S
C259 H261 0.960 . S
C259 H262 0.961 . S
H260 C259 0.959 . S
H261 C259 0.960 . S
H262 C259 0.961 . S
O263 Co238 1.967 . S
O263 C271 1.258 . S
O264 Co239 1.941 . S
O264 C271 1.266 . S
H265 C267 0.959 . S
H266 C267 0.961 . S
C267 C257 1.510 . S
C267 H265 0.959 . S
C267 H266 0.961 . S
C267 H268 0.960 . S
H268 C267 0.960 . S
H269 N249 0.862 . S
O270 Co238 1.920 . S
O270 C243 1.289 . S
C271 O263 1.258 . S
C271 O264 1.266 . S
Co272 O275 1.970 . S
Co272 N289 1.989 . S
Co272 O297 1.967 . S
Co272 O304 1.920 . S
Co273 O276 1.966 . S
Co273 N282 2.022 1_545 S
Co273 N290 1.988 1_545 S
Co273 O298 1.941 . S
C274 O275 1.258 . S
C274 O276 1.263 . S
O275 Co272 1.970 . S
O275 C274 1.258 . S
O276 Co273 1.966 . S
O276 C274 1.263 . S
C277 O278 1.235 . S
C277 O304 1.289 . S
O278 C277 1.235 . S
C279 C281 1.400 . S
C279 N282 1.351 . S
C279 C284 1.501 . S
C280 C281 1.387 . S
C280 N283 1.341 . S
C281 C279 1.400 . S
C281 C280 1.387 . S
N282 Co273 2.022 1_565 S
N282 C279 1.351 . S
N282 N283 1.365 . S
N283 C280 1.341 . S
N283 N282 1.365 . S
N283 H303 0.862 1_565 S
C284 C279 1.501 . S
C284 H285 0.961 . S
C284 H286 0.961 . S
C284 H287 0.960 . S
H285 C284 0.961 . S
H286 C284 0.961 . S
H287 C284 0.960 . S
C288 N289 1.342 . S
C288 C292 1.401 1_545 S
C288 C293 1.499 . S
N289 Co272 1.989 . S
N289 C288 1.342 . S
N289 N290 1.382 1_545 S
N290 Co273 1.988 1_565 S
N290 N289 1.382 1_565 S
N290 C291 1.354 . S
C291 N290 1.354 . S
C291 C292 1.396 . S
C291 C301 1.510 . S
C292 C288 1.401 1_565 S
C292 C291 1.396 . S
C293 C288 1.499 . S
C293 H294 0.959 . S
C293 H295 0.981 . S
C293 H296 0.961 . S
H294 C293 0.959 . S
H295 C293 0.981 . S
H296 C293 0.961 . S
O297 Co272 1.967 . S
O297 C305 1.258 . S
O298 Co273 1.941 . S
O298 C305 1.266 . S
H299 C301 0.959 . S
H300 C301 0.961 . S
C301 C291 1.510 . S
C301 H299 0.959 . S
C301 H300 0.961 . S
C301 H302 0.960 . S
H302 C301 0.960 . S
H303 N283 0.862 1_545 S
O304 Co272 1.920 . S
O304 C277 1.289 . S
C305 O297 1.258 . S
C305 O298 1.266 . S
Co306 O309 1.970 . S
Co306 N323 1.989 . S
Co306 O331 1.967 . S
Co306 O338 1.920 . S
Co307 O310 1.966 . S
Co307 N316 2.022 . S
Co307 N324 1.993 . S
Co307 O332 1.941 . S
C308 O309 1.258 . S
C308 O310 1.263 . S
O309 Co306 1.970 . S
O309 C308 1.258 . S
O310 Co307 1.966 . S
O310 C308 1.263 . S
C311 O312 1.235 . S
C311 O338 1.289 . S
O312 C311 1.235 . S
C313 C315 1.400 . S
C313 N316 1.351 . S
C313 C318 1.501 . S
C314 C315 1.387 . S
C314 N317 1.341 . S
C315 C313 1.400 . S
C315 C314 1.387 . S
N316 Co307 2.022 . S
N316 C313 1.351 . S
N316 N317 1.365 . S
N317 C314 1.341 . S
N317 N316 1.365 . S
N317 H337 0.862 . S
C318 C313 1.501 . S
C318 H319 0.961 . S
C318 H320 0.961 . S
C318 H321 0.960 . S
H319 C318 0.961 . S
H320 C318 0.961 . S
H321 C318 0.960 . S
C322 N323 1.342 . S
C322 C326 1.401 . S
C322 C327 1.499 . S
N323 Co306 1.989 . S
N323 C322 1.342 . S
N323 N324 1.388 . S
N324 Co307 1.993 . S
N324 N323 1.388 . S
N324 C325 1.346 . S
C325 N324 1.346 . S
C325 C326 1.396 . S
C325 C335 1.510 . S
C326 C322 1.401 . S
C326 C325 1.396 . S
C327 C322 1.499 . S
C327 H328 0.959 . S
C327 H329 0.960 . S
C327 H330 0.961 . S
H328 C327 0.959 . S
H329 C327 0.960 . S
H330 C327 0.961 . S
O331 Co306 1.967 . S
O331 C339 1.258 . S
O332 Co307 1.941 . S
O332 C339 1.266 . S
H333 C335 0.959 . S
H334 C335 0.961 . S
C335 C325 1.510 . S
C335 H333 0.959 . S
C335 H334 0.961 . S
C335 H336 0.960 . S
H336 C335 0.960 . S
H337 N317 0.862 . S
O338 Co306 1.920 . S
O338 C311 1.289 . S
C339 O331 1.258 . S
C339 O332 1.266 . S
Co340 O343 1.970 . S
Co340 N357 1.989 . S
Co340 O365 1.967 . S
Co340 O372 1.920 . S
Co341 O344 1.966 . S
Co341 N350 2.022 1_565 S
Co341 N358 1.988 1_565 S
Co341 O366 1.941 . S
C342 O343 1.258 . S
C342 O344 1.263 . S
O343 Co340 1.970 . S
O343 C342 1.258 . S
O344 Co341 1.966 . S
O344 C342 1.263 . S
C345 O346 1.235 . S
C345 O372 1.289 1_655 S
O346 C345 1.235 . S
C347 C349 1.400 . S
C347 N350 1.351 . S
C347 C352 1.501 . S
C348 C349 1.387 . S
C348 N351 1.341 . S
C349 C347 1.400 . S
C349 C348 1.387 . S
N350 Co341 2.022 1_545 S
N350 C347 1.351 . S
N350 N351 1.365 . S
N351 C348 1.341 . S
N351 N350 1.365 . S
N351 H371 0.862 1_545 S
C352 C347 1.501 . S
C352 H353 0.961 . S
C352 H354 0.961 . S
C352 H355 0.960 . S
H353 C352 0.961 . S
H354 C352 0.961 . S
H355 C352 0.960 . S
C356 N357 1.342 . S
C356 C360 1.401 1_565 S
C356 C361 1.499 . S
N357 Co340 1.989 . S
N357 C356 1.342 . S
N357 N358 1.382 1_565 S
N358 Co341 1.988 1_545 S
N358 N357 1.382 1_545 S
N358 C359 1.354 . S
C359 N358 1.354 . S
C359 C360 1.396 . S
C359 C369 1.510 . S
C360 C356 1.401 1_545 S
C360 C359 1.396 . S
C361 C356 1.499 . S
C361 H362 0.959 . S
C361 H363 0.981 . S
C361 H364 0.961 . S
H362 C361 0.959 . S
H363 C361 0.981 . S
H364 C361 0.961 . S
O365 Co340 1.967 . S
O365 C373 1.258 . S
O366 Co341 1.941 . S
O366 C373 1.266 . S
H367 C369 0.959 . S
H368 C369 0.961 . S
C369 C359 1.510 . S
C369 H367 0.959 . S
C369 H368 0.961 . S
C369 H370 0.960 . S
H370 C369 0.960 . S
H371 N351 0.862 1_565 S
O372 Co340 1.920 . S
O372 C345 1.289 1_455 S
C373 O365 1.258 . S
C373 O366 1.266 . S
Co374 O377 1.970 . S
Co374 N391 1.989 . S
Co374 O399 1.967 . S
Co374 O406 1.920 . S
Co375 O378 1.966 . S
Co375 N384 2.022 . S
Co375 N392 1.993 . S
Co375 O400 1.941 . S
C376 O377 1.258 . S
C376 O378 1.263 . S
O377 Co374 1.970 . S
O377 C376 1.258 . S
O378 Co375 1.966 . S
O378 C376 1.263 . S
C379 O380 1.235 . S
C379 O406 1.289 . S
O380 C379 1.235 . S
C381 C383 1.400 . S
C381 N384 1.351 . S
C381 C386 1.501 . S
C382 C383 1.387 . S
C382 N385 1.341 . S
C383 C381 1.400 . S
C383 C382 1.387 . S
N384 Co375 2.022 . S
N384 C381 1.351 . S
N384 N385 1.365 . S
N385 C382 1.341 . S
N385 N384 1.365 . S
N385 H405 0.862 . S
C386 C381 1.501 . S
C386 H387 0.961 . S
C386 H388 0.961 . S
C386 H389 0.960 . S
H387 C386 0.961 . S
H388 C386 0.961 . S
H389 C386 0.960 . S
C390 N391 1.342 . S
C390 C394 1.401 . S
C390 C395 1.499 . S
N391 Co374 1.989 . S
N391 C390 1.342 . S
N391 N392 1.388 . S
N392 Co375 1.993 . S
N392 N391 1.388 . S
N392 C393 1.346 . S
C393 N392 1.346 . S
C393 C394 1.396 . S
C393 C403 1.510 . S
C394 C390 1.401 . S
C394 C393 1.396 . S
C395 C390 1.499 . S
C395 H396 0.959 . S
C395 H397 0.960 . S
C395 H398 0.961 . S
H396 C395 0.959 . S
H397 C395 0.960 . S
H398 C395 0.961 . S
O399 Co374 1.967 . S
O399 C407 1.258 . S
O400 Co375 1.941 . S
O400 C407 1.266 . S
H401 C403 0.959 . S
H402 C403 0.961 . S
C403 C393 1.510 . S
C403 H401 0.959 . S
C403 H402 0.961 . S
C403 H404 0.960 . S
H404 C403 0.960 . S
H405 N385 0.862 . S
O406 Co374 1.920 . S
O406 C379 1.289 . S
C407 O399 1.258 . S
C407 O400 1.266 . S
Co408 O411 1.970 . S
Co408 N425 1.989 . S
Co408 O433 1.967 . S
Co408 O440 1.920 . S
Co409 O412 1.966 . S
Co409 N418 2.022 1_565 S
Co409 N426 1.988 1_565 S
Co409 O434 1.941 . S
C410 O411 1.258 . S
C410 O412 1.263 . S
O411 Co408 1.970 . S
O411 C410 1.258 . S
O412 Co409 1.966 . S
O412 C410 1.263 . S
C413 O414 1.235 . S
C413 O440 1.289 . S
O414 C413 1.235 . S
C415 C417 1.400 . S
C415 N418 1.351 . S
C415 C420 1.501 . S
C416 C417 1.387 . S
C416 N419 1.341 . S
C417 C415 1.400 . S
C417 C416 1.387 . S
N418 Co409 2.022 1_545 S
N418 C415 1.351 . S
N418 N419 1.365 . S
N419 C416 1.341 . S
N419 N418 1.365 . S
N419 H439 0.862 1_545 S
C420 C415 1.501 . S
C420 H421 0.961 . S
C420 H422 0.961 . S
C420 H423 0.960 . S
H421 C420 0.961 . S
H422 C420 0.961 . S
H423 C420 0.960 . S
C424 N425 1.342 . S
C424 C428 1.401 1_565 S
C424 C429 1.499 . S
N425 Co408 1.989 . S
N425 C424 1.342 . S
N425 N426 1.382 1_565 S
N426 Co409 1.988 1_545 S
N426 N425 1.382 1_545 S
N426 C427 1.354 . S
C427 N426 1.354 . S
C427 C428 1.396 . S
C427 C437 1.510 . S
C428 C424 1.401 1_545 S
C428 C427 1.396 . S
C429 C424 1.499 . S
C429 H430 0.959 . S
C429 H431 0.981 . S
C429 H432 0.961 . S
H430 C429 0.959 . S
H431 C429 0.981 . S
H432 C429 0.961 . S
O433 Co408 1.967 . S
O433 C441 1.258 . S
O434 Co409 1.941 . S
O434 C441 1.266 . S
H435 C437 0.959 . S
H436 C437 0.961 . S
C437 C427 1.510 . S
C437 H435 0.959 . S
C437 H436 0.961 . S
C437 H438 0.960 . S
H438 C437 0.960 . S
H439 N419 0.862 1_565 S
O440 Co408 1.920 . S
O440 C413 1.289 . S
C441 O433 1.258 . S
C441 O434 1.266 . S
Co442 O445 1.970 . S
Co442 N459 1.989 . S
Co442 O467 1.967 . S
Co442 O474 1.920 . S
Co443 O446 1.966 . S
Co443 N452 2.022 . S
Co443 N460 1.993 . S
Co443 O468 1.941 . S
C444 O445 1.258 . S
C444 O446 1.263 . S
O445 Co442 1.970 . S
O445 C444 1.258 . S
O446 Co443 1.966 . S
O446 C444 1.263 . S
C447 O448 1.235 . S
C447 O474 1.289 . S
O448 C447 1.235 . S
C449 C451 1.400 . S
C449 N452 1.351 . S
C449 C454 1.501 . S
C450 C451 1.387 . S
C450 N453 1.341 . S
C451 C449 1.400 . S
C451 C450 1.387 . S
N452 Co443 2.022 . S
N452 C449 1.351 . S
N452 N453 1.365 . S
N453 C450 1.341 . S
N453 N452 1.365 . S
N453 H473 0.862 . S
C454 C449 1.501 . S
C454 H455 0.961 . S
C454 H456 0.961 . S
C454 H457 0.960 . S
H455 C454 0.961 . S
H456 C454 0.961 . S
H457 C454 0.960 . S
C458 N459 1.342 . S
C458 C462 1.401 . S
C458 C463 1.499 . S
N459 Co442 1.989 . S
N459 C458 1.342 . S
N459 N460 1.388 . S
N460 Co443 1.993 . S
N460 N459 1.388 . S
N460 C461 1.346 . S
C461 N460 1.346 . S
C461 C462 1.396 . S
C461 C471 1.510 . S
C462 C458 1.401 . S
C462 C461 1.396 . S
C463 C458 1.499 . S
C463 H464 0.959 . S
C463 H465 0.960 . S
C463 H466 0.961 . S
H464 C463 0.959 . S
H465 C463 0.960 . S
H466 C463 0.961 . S
O467 Co442 1.967 . S
O467 C475 1.258 . S
O468 Co443 1.941 . S
O468 C475 1.266 . S
H469 C471 0.959 . S
H470 C471 0.961 . S
C471 C461 1.510 . S
C471 H469 0.959 . S
C471 H470 0.961 . S
C471 H472 0.960 . S
H472 C471 0.960 . S
H473 N453 0.862 . S
O474 Co442 1.920 . S
O474 C447 1.289 . S
C475 O467 1.258 . S
C475 O468 1.266 . S
Co476 O479 1.970 . S
Co476 N493 1.989 . S
Co476 O501 1.967 . S
Co476 O508 1.920 . S
Co477 O480 1.966 . S
Co477 N486 2.022 1_545 S
Co477 N494 1.988 1_545 S
Co477 O502 1.941 . S
C478 O479 1.258 . S
C478 O480 1.263 . S
O479 Co476 1.970 . S
O479 C478 1.258 . S
O480 Co477 1.966 . S
O480 C478 1.263 . S
C481 O482 1.235 . S
C481 O508 1.289 1_655 S
O482 C481 1.235 . S
C483 C485 1.400 . S
C483 N486 1.351 . S
C483 C488 1.501 . S
C484 C485 1.387 . S
C484 N487 1.341 . S
C485 C483 1.400 . S
C485 C484 1.387 . S
N486 Co477 2.022 1_565 S
N486 C483 1.351 . S
N486 N487 1.365 . S
N487 C484 1.341 . S
N487 N486 1.365 . S
N487 H507 0.862 1_565 S
C488 C483 1.501 . S
C488 H489 0.961 . S
C488 H490 0.961 . S
C488 H491 0.960 . S
H489 C488 0.961 . S
H490 C488 0.961 . S
H491 C488 0.960 . S
C492 N493 1.342 . S
C492 C496 1.401 1_545 S
C492 C497 1.499 . S
N493 Co476 1.989 . S
N493 C492 1.342 . S
N493 N494 1.382 1_545 S
N494 Co477 1.988 1_565 S
N494 N493 1.382 1_565 S
N494 C495 1.354 . S
C495 N494 1.354 . S
C495 C496 1.396 . S
C495 C505 1.510 . S
C496 C492 1.401 1_565 S
C496 C495 1.396 . S
C497 C492 1.499 . S
C497 H498 0.959 . S
C497 H499 0.981 . S
C497 H500 0.961 . S
H498 C497 0.959 . S
H499 C497 0.981 . S
H500 C497 0.961 . S
O501 Co476 1.967 . S
O501 C509 1.258 . S
O502 Co477 1.941 . S
O502 C509 1.266 . S
H503 C505 0.959 . S
H504 C505 0.961 . S
C505 C495 1.510 . S
C505 H503 0.959 . S
C505 H504 0.961 . S
C505 H506 0.960 . S
H506 C505 0.960 . S
H507 N487 0.862 1_545 S
O508 Co476 1.920 . S
O508 C481 1.289 1_455 S
C509 O501 1.258 . S
C509 O502 1.266 . S
Co510 O513 1.970 . S
Co510 N527 1.989 . S
Co510 O535 1.967 . S
Co510 O542 1.920 . S
Co511 O514 1.966 . S
Co511 N520 2.022 . S
Co511 N528 1.993 . S
Co511 O536 1.941 . S
C512 O513 1.258 . S
C512 O514 1.263 . S
O513 Co510 1.970 . S
O513 C512 1.258 . S
O514 Co511 1.966 . S
O514 C512 1.263 . S
C515 O516 1.235 . S
C515 O542 1.289 . S
O516 C515 1.235 . S
C517 C519 1.400 . S
C517 N520 1.351 . S
C517 C522 1.501 . S
C518 C519 1.387 . S
C518 N521 1.341 . S
C519 C517 1.400 . S
C519 C518 1.387 . S
N520 Co511 2.022 . S
N520 C517 1.351 . S
N520 N521 1.365 . S
N521 C518 1.341 . S
N521 N520 1.365 . S
N521 H541 0.862 . S
C522 C517 1.501 . S
C522 H523 0.961 . S
C522 H524 0.961 . S
C522 H525 0.960 . S
H523 C522 0.961 . S
H524 C522 0.961 . S
H525 C522 0.960 . S
C526 N527 1.342 . S
C526 C530 1.401 . S
C526 C531 1.499 . S
N527 Co510 1.989 . S
N527 C526 1.342 . S
N527 N528 1.388 . S
N528 Co511 1.993 . S
N528 N527 1.388 . S
N528 C529 1.346 . S
C529 N528 1.346 . S
C529 C530 1.396 . S
C529 C539 1.510 . S
C530 C526 1.401 . S
C530 C529 1.396 . S
C531 C526 1.499 . S
C531 H532 0.959 . S
C531 H533 0.960 . S
C531 H534 0.961 . S
H532 C531 0.959 . S
H533 C531 0.960 . S
H534 C531 0.961 . S
O535 Co510 1.967 . S
O535 C543 1.258 . S
O536 Co511 1.941 . S
O536 C543 1.266 . S
H537 C539 0.959 . S
H538 C539 0.961 . S
C539 C529 1.510 . S
C539 H537 0.959 . S
C539 H538 0.961 . S
C539 H540 0.960 . S
H540 C539 0.960 . S
H541 N521 0.862 . S
O542 Co510 1.920 . S
O542 C515 1.289 . S
C543 O535 1.258 . S
C543 O536 1.266 . S
Co544 O547 1.970 . S
Co544 N561 1.989 . S
Co544 O569 1.967 . S
Co544 O576 1.920 . S
Co545 O548 1.966 . S
Co545 N554 2.022 1_554 S
Co545 N562 1.988 1_554 S
Co545 O570 1.941 . S
C546 O547 1.258 . S
C546 O548 1.263 . S
O547 Co544 1.970 . S
O547 C546 1.258 . S
O548 Co545 1.966 . S
O548 C546 1.263 . S
C549 O550 1.235 . S
C549 O576 1.289 . S
O550 C549 1.235 . S
C551 C553 1.400 . S
C551 N554 1.351 . S
C551 C556 1.501 . S
C552 C553 1.387 . S
C552 N555 1.341 . S
C553 C551 1.400 . S
C553 C552 1.387 . S
N554 Co545 2.022 1_556 S
N554 C551 1.351 . S
N554 N555 1.365 . S
N555 C552 1.341 . S
N555 N554 1.365 . S
N555 H575 0.862 1_556 S
C556 C551 1.501 . S
C556 H557 0.961 . S
C556 H558 0.961 . S
C556 H559 0.960 . S
H557 C556 0.961 . S
H558 C556 0.961 . S
H559 C556 0.960 . S
C560 N561 1.342 . S
C560 C564 1.401 1_554 S
C560 C565 1.499 . S
N561 Co544 1.989 . S
N561 C560 1.342 . S
N561 N562 1.382 1_554 S
N562 Co545 1.988 1_556 S
N562 N561 1.382 1_556 S
N562 C563 1.354 . S
C563 N562 1.354 . S
C563 C564 1.396 . S
C563 C573 1.510 . S
C564 C560 1.401 1_556 S
C564 C563 1.396 . S
C565 C560 1.499 . S
C565 H566 0.959 . S
C565 H567 0.981 . S
C565 H568 0.961 . S
H566 C565 0.959 . S
H567 C565 0.981 . S
H568 C565 0.961 . S
O569 Co544 1.967 . S
O569 C577 1.258 . S
O570 Co545 1.941 . S
O570 C577 1.266 . S
H571 C573 0.959 . S
H572 C573 0.961 . S
C573 C563 1.510 . S
C573 H571 0.959 . S
C573 H572 0.961 . S
C573 H574 0.960 . S
H574 C573 0.960 . S
H575 N555 0.862 1_554 S
O576 Co544 1.920 . S
O576 C549 1.289 . S
C577 O569 1.258 . S
C577 O570 1.266 . S
Co578 O581 1.970 . S
Co578 N595 1.989 . S
Co578 O603 1.967 . S
Co578 O610 1.920 . S
Co579 O582 1.966 . S
Co579 N588 2.022 1_556 S
Co579 N596 1.988 1_556 S
Co579 O604 1.941 . S
C580 O581 1.258 . S
C580 O582 1.263 . S
O581 Co578 1.970 . S
O581 C580 1.258 . S
O582 Co579 1.966 . S
O582 C580 1.263 . S
C583 O584 1.235 . S
C583 O610 1.289 1_565 S
O584 C583 1.235 . S
C585 C587 1.400 . S
C585 N588 1.351 . S
C585 C590 1.501 . S
C586 C587 1.387 . S
C586 N589 1.341 . S
C587 C585 1.400 . S
C587 C586 1.387 . S
N588 Co579 2.022 1_554 S
N588 C585 1.351 . S
N588 N589 1.365 . S
N589 C586 1.341 . S
N589 N588 1.365 . S
N589 H609 0.862 1_554 S
C590 C585 1.501 . S
C590 H591 0.961 . S
C590 H592 0.961 . S
C590 H593 0.960 . S
H591 C590 0.961 . S
H592 C590 0.961 . S
H593 C590 0.960 . S
C594 N595 1.342 . S
C594 C598 1.401 1_556 S
C594 C599 1.499 . S
N595 Co578 1.989 . S
N595 C594 1.342 . S
N595 N596 1.382 1_556 S
N596 Co579 1.988 1_554 S
N596 N595 1.382 1_554 S
N596 C597 1.354 . S
C597 N596 1.354 . S
C597 C598 1.396 . S
C597 C607 1.510 . S
C598 C594 1.401 1_554 S
C598 C597 1.396 . S
C599 C594 1.499 . S
C599 H600 0.959 . S
C599 H601 0.981 . S
C599 H602 0.961 . S
H600 C599 0.959 . S
H601 C599 0.981 . S
H602 C599 0.961 . S
O603 Co578 1.967 . S
O603 C611 1.258 . S
O604 Co579 1.941 . S
O604 C611 1.266 . S
H605 C607 0.959 . S
H606 C607 0.961 . S
C607 C597 1.510 . S
C607 H605 0.959 . S
C607 H606 0.961 . S
C607 H608 0.960 . S
H608 C607 0.960 . S
H609 N589 0.862 1_556 S
O610 Co578 1.920 . S
O610 C583 1.289 1_545 S
C611 O603 1.258 . S
C611 O604 1.266 . S
Co612 O615 1.970 . S
Co612 N629 1.989 . S
Co612 O637 1.967 . S
Co612 O644 1.920 . S
Co613 O616 1.966 . S
Co613 N622 2.022 . S
Co613 N630 1.993 . S
Co613 O638 1.941 . S
C614 O615 1.258 . S
C614 O616 1.263 . S
O615 Co612 1.970 . S
O615 C614 1.258 . S
O616 Co613 1.966 . S
O616 C614 1.263 . S
C617 O618 1.235 . S
C617 O644 1.289 . S
O618 C617 1.235 . S
C619 C621 1.400 . S
C619 N622 1.351 . S
C619 C624 1.501 . S
C620 C621 1.387 . S
C620 N623 1.341 . S
C621 C619 1.400 . S
C621 C620 1.387 . S
N622 Co613 2.022 . S
N622 C619 1.351 . S
N622 N623 1.365 . S
N623 C620 1.341 . S
N623 N622 1.365 . S
N623 H643 0.862 . S
C624 C619 1.501 . S
C624 H625 0.961 . S
C624 H626 0.961 . S
C624 H627 0.960 . S
H625 C624 0.961 . S
H626 C624 0.961 . S
H627 C624 0.960 . S
C628 N629 1.342 . S
C628 C632 1.401 . S
C628 C633 1.499 . S
N629 Co612 1.989 . S
N629 C628 1.342 . S
N629 N630 1.388 . S
N630 Co613 1.993 . S
N630 N629 1.388 . S
N630 C631 1.346 . S
C631 N630 1.346 . S
C631 C632 1.396 . S
C631 C641 1.510 . S
C632 C628 1.401 . S
C632 C631 1.396 . S
C633 C628 1.499 . S
C633 H634 0.959 . S
C633 H635 0.960 . S
C633 H636 0.961 . S
H634 C633 0.959 . S
H635 C633 0.960 . S
H636 C633 0.961 . S
O637 Co612 1.967 . S
O637 C645 1.258 . S
O638 Co613 1.941 . S
O638 C645 1.266 . S
H639 C641 0.959 . S
H640 C641 0.961 . S
C641 C631 1.510 . S
C641 H639 0.959 . S
C641 H640 0.961 . S
C641 H642 0.960 . S
H642 C641 0.960 . S
H643 N623 0.862 . S
O644 Co612 1.920 . S
O644 C617 1.289 . S
C645 O637 1.258 . S
C645 O638 1.266 . S
Co646 O649 1.970 . S
Co646 N663 1.989 . S
Co646 O671 1.967 . S
Co646 O678 1.920 . S
Co647 O650 1.966 . S
Co647 N656 2.022 . S
Co647 N664 1.993 . S
Co647 O672 1.941 . S
C648 O649 1.258 . S
C648 O650 1.263 . S
O649 Co646 1.970 . S
O649 C648 1.258 . S
O650 Co647 1.966 . S
O650 C648 1.263 . S
C651 O652 1.235 . S
C651 O678 1.289 1_545 S
O652 C651 1.235 . S
C653 C655 1.400 . S
C653 N656 1.351 . S
C653 C658 1.501 . S
C654 C655 1.387 . S
C654 N657 1.341 . S
C655 C653 1.400 . S
C655 C654 1.387 . S
N656 Co647 2.022 . S
N656 C653 1.351 . S
N656 N657 1.365 . S
N657 C654 1.341 . S
N657 N656 1.365 . S
N657 H677 0.862 . S
C658 C653 1.501 . S
C658 H659 0.961 . S
C658 H660 0.961 . S
C658 H661 0.960 . S
H659 C658 0.961 . S
H660 C658 0.961 . S
H661 C658 0.960 . S
C662 N663 1.342 . S
C662 C666 1.401 . S
C662 C667 1.499 . S
N663 Co646 1.989 . S
N663 C662 1.342 . S
N663 N664 1.388 . S
N664 Co647 1.993 . S
N664 N663 1.388 . S
N664 C665 1.346 . S
C665 N664 1.346 . S
C665 C666 1.396 . S
C665 C675 1.510 . S
C666 C662 1.401 . S
C666 C665 1.396 . S
C667 C662 1.499 . S
C667 H668 0.959 . S
C667 H669 0.960 . S
C667 H670 0.961 . S
H668 C667 0.959 . S
H669 C667 0.960 . S
H670 C667 0.961 . S
O671 Co646 1.967 . S
O671 C679 1.258 . S
O672 Co647 1.941 . S
O672 C679 1.266 . S
H673 C675 0.959 . S
H674 C675 0.961 . S
C675 C665 1.510 . S
C675 H673 0.959 . S
C675 H674 0.961 . S
C675 H676 0.960 . S
H676 C675 0.960 . S
H677 N657 0.862 . S
O678 Co646 1.920 . S
O678 C651 1.289 1_565 S
C679 O671 1.258 . S
C679 O672 1.266 . S
Co680 O683 1.970 . S
Co680 N697 1.989 . S
Co680 O705 1.967 . S
Co680 O712 1.920 . S
Co681 O684 1.966 . S
Co681 N690 2.022 . S
Co681 N698 1.993 . S
Co681 O706 1.941 . S
C682 O683 1.258 . S
C682 O684 1.263 . S
O683 Co680 1.970 . S
O683 C682 1.258 . S
O684 Co681 1.966 . S
O684 C682 1.263 . S
C685 O686 1.235 . S
C685 O712 1.289 . S
O686 C685 1.235 . S
C687 C689 1.400 . S
C687 N690 1.351 . S
C687 C692 1.501 . S
C688 C689 1.387 . S
C688 N691 1.341 . S
C689 C687 1.400 . S
C689 C688 1.387 . S
N690 Co681 2.022 . S
N690 C687 1.351 . S
N690 N691 1.365 . S
N691 C688 1.341 . S
N691 N690 1.365 . S
N691 H711 0.862 . S
C692 C687 1.501 . S
C692 H693 0.961 . S
C692 H694 0.961 . S
C692 H695 0.960 . S
H693 C692 0.961 . S
H694 C692 0.961 . S
H695 C692 0.960 . S
C696 N697 1.342 . S
C696 C700 1.401 . S
C696 C701 1.499 . S
N697 Co680 1.989 . S
N697 C696 1.342 . S
N697 N698 1.388 . S
N698 Co681 1.993 . S
N698 N697 1.388 . S
N698 C699 1.346 . S
C699 N698 1.346 . S
C699 C700 1.396 . S
C699 C709 1.510 . S
C700 C696 1.401 . S
C700 C699 1.396 . S
C701 C696 1.499 . S
C701 H702 0.959 . S
C701 H703 0.960 . S
C701 H704 0.961 . S
H702 C701 0.959 . S
H703 C701 0.960 . S
H704 C701 0.961 . S
O705 Co680 1.967 . S
O705 C713 1.258 . S
O706 Co681 1.941 . S
O706 C713 1.266 . S
H707 C709 0.959 . S
H708 C709 0.961 . S
C709 C699 1.510 . S
C709 H707 0.959 . S
C709 H708 0.961 . S
C709 H710 0.960 . S
H710 C709 0.960 . S
H711 N691 0.862 . S
O712 Co680 1.920 . S
O712 C685 1.289 . S
C713 O705 1.258 . S
C713 O706 1.266 . S
Co714 O717 1.970 . S
Co714 N731 1.989 . S
Co714 O739 1.967 . S
Co714 O746 1.920 . S
Co715 O718 1.966 . S
Co715 N724 2.022 . S
Co715 N732 1.993 . S
Co715 O740 1.941 . S
C716 O717 1.258 . S
C716 O718 1.263 . S
O717 Co714 1.970 . S
O717 C716 1.258 . S
O718 Co715 1.966 . S
O718 C716 1.263 . S
C719 O720 1.235 . S
C719 O746 1.289 . S
O720 C719 1.235 . S
C721 C723 1.400 . S
C721 N724 1.351 . S
C721 C726 1.501 . S
C722 C723 1.387 . S
C722 N725 1.341 . S
C723 C721 1.400 . S
C723 C722 1.387 . S
N724 Co715 2.022 . S
N724 C721 1.351 . S
N724 N725 1.365 . S
N725 C722 1.341 . S
N725 N724 1.365 . S
N725 H745 0.862 . S
C726 C721 1.501 . S
C726 H727 0.961 . S
C726 H728 0.961 . S
C726 H729 0.960 . S
H727 C726 0.961 . S
H728 C726 0.961 . S
H729 C726 0.960 . S
C730 N731 1.342 . S
C730 C734 1.401 . S
C730 C735 1.499 . S
N731 Co714 1.989 . S
N731 C730 1.342 . S
N731 N732 1.388 . S
N732 Co715 1.993 . S
N732 N731 1.388 . S
N732 C733 1.346 . S
C733 N732 1.346 . S
C733 C734 1.396 . S
C733 C743 1.510 . S
C734 C730 1.401 . S
C734 C733 1.396 . S
C735 C730 1.499 . S
C735 H736 0.959 . S
C735 H737 0.960 . S
C735 H738 0.961 . S
H736 C735 0.959 . S
H737 C735 0.960 . S
H738 C735 0.961 . S
O739 Co714 1.967 . S
O739 C747 1.258 . S
O740 Co715 1.941 . S
O740 C747 1.266 . S
H741 C743 0.959 . S
H742 C743 0.961 . S
C743 C733 1.510 . S
C743 H741 0.959 . S
C743 H742 0.961 . S
C743 H744 0.960 . S
H744 C743 0.960 . S
H745 N725 0.862 . S
O746 Co714 1.920 . S
O746 C719 1.289 . S
C747 O739 1.258 . S
C747 O740 1.266 . S
Co748 O751 1.970 . S
Co748 N765 1.989 . S
Co748 O773 1.967 . S
Co748 O780 1.920 . S
Co749 O752 1.966 . S
Co749 N758 2.022 . S
Co749 N766 1.993 . S
Co749 O774 1.941 . S
C750 O751 1.258 . S
C750 O752 1.263 . S
O751 Co748 1.970 . S
O751 C750 1.258 . S
O752 Co749 1.966 . S
O752 C750 1.263 . S
C753 O754 1.235 . S
C753 O780 1.289 . S
O754 C753 1.235 . S
C755 C757 1.400 . S
C755 N758 1.351 . S
C755 C760 1.501 . S
C756 C757 1.387 . S
C756 N759 1.341 . S
C757 C755 1.400 . S
C757 C756 1.387 . S
N758 Co749 2.022 . S
N758 C755 1.351 . S
N758 N759 1.365 . S
N759 C756 1.341 . S
N759 N758 1.365 . S
N759 H779 0.862 . S
C760 C755 1.501 . S
C760 H761 0.961 . S
C760 H762 0.961 . S
C760 H763 0.960 . S
H761 C760 0.961 . S
H762 C760 0.961 . S
H763 C760 0.960 . S
C764 N765 1.342 . S
C764 C768 1.401 . S
C764 C769 1.499 . S
N765 Co748 1.989 . S
N765 C764 1.342 . S
N765 N766 1.388 . S
N766 Co749 1.993 . S
N766 N765 1.388 . S
N766 C767 1.346 . S
C767 N766 1.346 . S
C767 C768 1.396 . S
C767 C777 1.510 . S
C768 C764 1.401 . S
C768 C767 1.396 . S
C769 C764 1.499 . S
C769 H770 0.959 . S
C769 H771 0.960 . S
C769 H772 0.961 . S
H770 C769 0.959 . S
H771 C769 0.960 . S
H772 C769 0.961 . S
O773 Co748 1.967 . S
O773 C781 1.258 . S
O774 Co749 1.941 . S
O774 C781 1.266 . S
H775 C777 0.959 . S
H776 C777 0.961 . S
C777 C767 1.510 . S
C777 H775 0.959 . S
C777 H776 0.961 . S
C777 H778 0.960 . S
H778 C777 0.960 . S
H779 N759 0.862 . S
O780 Co748 1.920 . S
O780 C753 1.289 . S
C781 O773 1.258 . S
C781 O774 1.266 . S
Co782 O785 1.970 . S
Co782 N799 1.989 . S
Co782 O807 1.967 . S
Co782 O814 1.920 . S
Co783 O786 1.966 . S
Co783 N792 2.022 . S
Co783 N800 1.993 . S
Co783 O808 1.941 . S
C784 O785 1.258 . S
C784 O786 1.263 . S
O785 Co782 1.970 . S
O785 C784 1.258 . S
O786 Co783 1.966 . S
O786 C784 1.263 . S
C787 O788 1.235 . S
C787 O814 1.289 . S
O788 C787 1.235 . S
C789 C791 1.400 . S
C789 N792 1.351 . S
C789 C794 1.501 . S
C790 C791 1.387 . S
C790 N793 1.341 . S
C791 C789 1.400 . S
C791 C790 1.387 . S
N792 Co783 2.022 . S
N792 C789 1.351 . S
N792 N793 1.365 . S
N793 C790 1.341 . S
N793 N792 1.365 . S
N793 H813 0.862 . S
C794 C789 1.501 . S
C794 H795 0.961 . S
C794 H796 0.961 . S
C794 H797 0.960 . S
H795 C794 0.961 . S
H796 C794 0.961 . S
H797 C794 0.960 . S
C798 N799 1.342 . S
C798 C802 1.401 . S
C798 C803 1.499 . S
N799 Co782 1.989 . S
N799 C798 1.342 . S
N799 N800 1.388 . S
N800 Co783 1.993 . S
N800 N799 1.388 . S
N800 C801 1.346 . S
C801 N800 1.346 . S
C801 C802 1.396 . S
C801 C811 1.510 . S
C802 C798 1.401 . S
C802 C801 1.396 . S
C803 C798 1.499 . S
C803 H804 0.959 . S
C803 H805 0.960 . S
C803 H806 0.961 . S
H804 C803 0.959 . S
H805 C803 0.960 . S
H806 C803 0.961 . S
O807 Co782 1.967 . S
O807 C815 1.258 . S
O808 Co783 1.941 . S
O808 C815 1.266 . S
H809 C811 0.959 . S
H810 C811 0.961 . S
C811 C801 1.510 . S
C811 H809 0.959 . S
C811 H810 0.961 . S
C811 H812 0.960 . S
H812 C811 0.960 . S
H813 N793 0.862 . S
O814 Co782 1.920 . S
O814 C787 1.289 . S
C815 O807 1.258 . S
C815 O808 1.266 . S
Co816 O819 1.970 . S
Co816 N833 1.989 . S
Co816 O841 1.967 . S
Co816 O848 1.920 . S
Co817 O820 1.966 . S
Co817 N826 2.022 . S
Co817 N834 1.993 . S
Co817 O842 1.941 . S
C818 O819 1.258 . S
C818 O820 1.263 . S
O819 Co816 1.970 . S
O819 C818 1.258 . S
O820 Co817 1.966 . S
O820 C818 1.263 . S
C821 O822 1.235 . S
C821 O848 1.289 1_554 S
O822 C821 1.235 . S
C823 C825 1.400 . S
C823 N826 1.351 . S
C823 C828 1.501 . S
C824 C825 1.387 . S
C824 N827 1.341 . S
C825 C823 1.400 . S
C825 C824 1.387 . S
N826 Co817 2.022 . S
N826 C823 1.351 . S
N826 N827 1.365 . S
N827 C824 1.341 . S
N827 N826 1.365 . S
N827 H847 0.862 . S
C828 C823 1.501 . S
C828 H829 0.961 . S
C828 H830 0.961 . S
C828 H831 0.960 . S
H829 C828 0.961 . S
H830 C828 0.961 . S
H831 C828 0.960 . S
C832 N833 1.342 . S
C832 C836 1.401 . S
C832 C837 1.499 . S
N833 Co816 1.989 . S
N833 C832 1.342 . S
N833 N834 1.388 . S
N834 Co817 1.993 . S
N834 N833 1.388 . S
N834 C835 1.346 . S
C835 N834 1.346 . S
C835 C836 1.396 . S
C835 C845 1.510 . S
C836 C832 1.401 . S
C836 C835 1.396 . S
C837 C832 1.499 . S
C837 H838 0.959 . S
C837 H839 0.960 . S
C837 H840 0.961 . S
H838 C837 0.959 . S
H839 C837 0.960 . S
H840 C837 0.961 . S
O841 Co816 1.967 . S
O841 C849 1.258 . S
O842 Co817 1.941 . S
O842 C849 1.266 . S
H843 C845 0.959 . S
H844 C845 0.961 . S
C845 C835 1.510 . S
C845 H843 0.959 . S
C845 H844 0.961 . S
C845 H846 0.960 . S
H846 C845 0.960 . S
H847 N827 0.862 . S
O848 Co816 1.920 . S
O848 C821 1.289 1_556 S
C849 O841 1.258 . S
C849 O842 1.266 . S
Co850 O853 1.970 . S
Co850 N867 1.989 . S
Co850 O875 1.967 . S
Co850 O882 1.920 . S
Co851 O854 1.966 . S
Co851 N860 2.022 . S
Co851 N868 1.993 . S
Co851 O876 1.941 . S
C852 O853 1.258 . S
C852 O854 1.263 . S
O853 Co850 1.970 . S
O853 C852 1.258 . S
O854 Co851 1.966 . S
O854 C852 1.263 . S
C855 O856 1.235 . S
C855 O882 1.289 . S
O856 C855 1.235 . S
C857 C859 1.400 . S
C857 N860 1.351 . S
C857 C862 1.501 . S
C858 C859 1.387 . S
C858 N861 1.341 . S
C859 C857 1.400 . S
C859 C858 1.387 . S
N860 Co851 2.022 . S
N860 C857 1.351 . S
N860 N861 1.365 . S
N861 C858 1.341 . S
N861 N860 1.365 . S
N861 H881 0.862 . S
C862 C857 1.501 . S
C862 H863 0.961 . S
C862 H864 0.961 . S
C862 H865 0.960 . S
H863 C862 0.961 . S
H864 C862 0.961 . S
H865 C862 0.960 . S
C866 N867 1.342 . S
C866 C870 1.401 . S
C866 C871 1.499 . S
N867 Co850 1.989 . S
N867 C866 1.342 . S
N867 N868 1.388 . S
N868 Co851 1.993 . S
N868 N867 1.388 . S
N868 C869 1.346 . S
C869 N868 1.346 . S
C869 C870 1.396 . S
C869 C879 1.510 . S
C870 C866 1.401 . S
C870 C869 1.396 . S
C871 C866 1.499 . S
C871 H872 0.959 . S
C871 H873 0.960 . S
C871 H874 0.961 . S
H872 C871 0.959 . S
H873 C871 0.960 . S
H874 C871 0.961 . S
O875 Co850 1.967 . S
O875 C883 1.258 . S
O876 Co851 1.941 . S
O876 C883 1.266 . S
H877 C879 0.959 . S
H878 C879 0.961 . S
C879 C869 1.510 . S
C879 H877 0.959 . S
C879 H878 0.961 . S
C879 H880 0.960 . S
H880 C879 0.960 . S
H881 N861 0.862 . S
O882 Co850 1.920 . S
O882 C855 1.289 . S
C883 O875 1.258 . S
C883 O876 1.266 . S
Co884 O887 1.970 . S
Co884 N901 1.989 . S
Co884 O909 1.967 . S
Co884 O916 1.920 . S
Co885 O888 1.966 . S
Co885 N894 2.022 1_655 S
Co885 N902 1.988 1_655 S
Co885 O910 1.941 . S
C886 O887 1.258 . S
C886 O888 1.263 . S
O887 Co884 1.970 . S
O887 C886 1.258 . S
O888 Co885 1.966 . S
O888 C886 1.263 . S
C889 O890 1.235 . S
C889 O916 1.289 . S
O890 C889 1.235 . S
C891 C893 1.400 . S
C891 N894 1.351 . S
C891 C896 1.501 . S
C892 C893 1.387 . S
C892 N895 1.341 . S
C893 C891 1.400 . S
C893 C892 1.387 . S
N894 Co885 2.022 1_455 S
N894 C891 1.351 . S
N894 N895 1.365 . S
N895 C892 1.341 . S
N895 N894 1.365 . S
N895 H915 0.862 1_455 S
C896 C891 1.501 . S
C896 H897 0.961 . S
C896 H898 0.961 . S
C896 H899 0.960 . S
H897 C896 0.961 . S
H898 C896 0.961 . S
H899 C896 0.960 . S
C900 N901 1.342 . S
C900 C904 1.401 1_655 S
C900 C905 1.499 . S
N901 Co884 1.989 . S
N901 C900 1.342 . S
N901 N902 1.382 1_655 S
N902 Co885 1.988 1_455 S
N902 N901 1.382 1_455 S
N902 C903 1.354 . S
C903 N902 1.354 . S
C903 C904 1.396 . S
C903 C913 1.510 . S
C904 C900 1.401 1_455 S
C904 C903 1.396 . S
C905 C900 1.499 . S
C905 H906 0.959 . S
C905 H907 0.981 . S
C905 H908 0.961 . S
H906 C905 0.959 . S
H907 C905 0.981 . S
H908 C905 0.961 . S
O909 Co884 1.967 . S
O909 C917 1.258 . S
O910 Co885 1.941 . S
O910 C917 1.266 . S
H911 C913 0.959 . S
H912 C913 0.961 . S
C913 C903 1.510 . S
C913 H911 0.959 . S
C913 H912 0.961 . S
C913 H914 0.960 . S
H914 C913 0.960 . S
H915 N895 0.862 1_655 S
O916 Co884 1.920 . S
O916 C889 1.289 . S
C917 O909 1.258 . S
C917 O910 1.266 . S
Co918 O921 1.970 . S
Co918 N935 1.989 . S
Co918 O943 1.967 . S
Co918 O950 1.920 . S
Co919 O922 1.966 . S
Co919 N928 2.022 . S
Co919 N936 1.993 . S
Co919 O944 1.941 . S
C920 O921 1.258 . S
C920 O922 1.263 . S
O921 Co918 1.970 . S
O921 C920 1.258 . S
O922 Co919 1.966 . S
O922 C920 1.263 . S
C923 O924 1.235 . S
C923 O950 1.289 . S
O924 C923 1.235 . S
C925 C927 1.400 . S
C925 N928 1.351 . S
C925 C930 1.501 . S
C926 C927 1.387 . S
C926 N929 1.341 . S
C927 C925 1.400 . S
C927 C926 1.387 . S
N928 Co919 2.022 . S
N928 C925 1.351 . S
N928 N929 1.365 . S
N929 C926 1.341 . S
N929 N928 1.365 . S
N929 H949 0.862 . S
C930 C925 1.501 . S
C930 H931 0.961 . S
C930 H932 0.961 . S
C930 H933 0.960 . S
H931 C930 0.961 . S
H932 C930 0.961 . S
H933 C930 0.960 . S
C934 N935 1.342 . S
C934 C938 1.401 . S
C934 C939 1.499 . S
N935 Co918 1.989 . S
N935 C934 1.342 . S
N935 N936 1.388 . S
N936 Co919 1.993 . S
N936 N935 1.388 . S
N936 C937 1.346 . S
C937 N936 1.346 . S
C937 C938 1.396 . S
C937 C947 1.510 . S
C938 C934 1.401 . S
C938 C937 1.396 . S
C939 C934 1.499 . S
C939 H940 0.959 . S
C939 H941 0.960 . S
C939 H942 0.961 . S
H940 C939 0.959 . S
H941 C939 0.960 . S
H942 C939 0.961 . S
O943 Co918 1.967 . S
O943 C951 1.258 . S
O944 Co919 1.941 . S
O944 C951 1.266 . S
H945 C947 0.959 . S
H946 C947 0.961 . S
C947 C937 1.510 . S
C947 H945 0.959 . S
C947 H946 0.961 . S
C947 H948 0.960 . S
H948 C947 0.960 . S
H949 N929 0.862 . S
O950 Co918 1.920 . S
O950 C923 1.289 . S
C951 O943 1.258 . S
C951 O944 1.266 . S
Co952 O955 1.970 . S
Co952 N969 1.989 . S
Co952 O977 1.967 . S
Co952 O984 1.920 . S
Co953 O956 1.966 . S
Co953 N962 2.022 . S
Co953 N970 1.993 . S
Co953 O978 1.941 . S
C954 O955 1.258 . S
C954 O956 1.263 . S
O955 Co952 1.970 . S
O955 C954 1.258 . S
O956 Co953 1.966 . S
O956 C954 1.263 . S
C957 O958 1.235 . S
C957 O984 1.289 . S
O958 C957 1.235 . S
C959 C961 1.400 . S
C959 N962 1.351 . S
C959 C964 1.501 . S
C960 C961 1.387 . S
C960 N963 1.341 . S
C961 C959 1.400 . S
C961 C960 1.387 . S
N962 Co953 2.022 . S
N962 C959 1.351 . S
N962 N963 1.365 . S
N963 C960 1.341 . S
N963 N962 1.365 . S
N963 H983 0.862 . S
C964 C959 1.501 . S
C964 H965 0.961 . S
C964 H966 0.961 . S
C964 H967 0.960 . S
H965 C964 0.961 . S
H966 C964 0.961 . S
H967 C964 0.960 . S
C968 N969 1.342 . S
C968 C972 1.401 . S
C968 C973 1.499 . S
N969 Co952 1.989 . S
N969 C968 1.342 . S
N969 N970 1.388 . S
N970 Co953 1.993 . S
N970 N969 1.388 . S
N970 C971 1.346 . S
C971 N970 1.346 . S
C971 C972 1.396 . S
C971 C981 1.510 . S
C972 C968 1.401 . S
C972 C971 1.396 . S
C973 C968 1.499 . S
C973 H974 0.959 . S
C973 H975 0.960 . S
C973 H976 0.961 . S
H974 C973 0.959 . S
H975 C973 0.960 . S
H976 C973 0.961 . S
O977 Co952 1.967 . S
O977 C985 1.258 . S
O978 Co953 1.941 . S
O978 C985 1.266 . S
H979 C981 0.959 . S
H980 C981 0.961 . S
C981 C971 1.510 . S
C981 H979 0.959 . S
C981 H980 0.961 . S
C981 H982 0.960 . S
H982 C981 0.960 . S
H983 N963 0.862 . S
O984 Co952 1.920 . S
O984 C957 1.289 . S
C985 O977 1.258 . S
C985 O978 1.266 . S
Co986 O989 1.970 . S
Co986 N1003 1.989 . S
Co986 O1011 1.967 . S
Co986 O1018 1.920 . S
Co987 O990 1.966 . S
Co987 N996 2.022 . S
Co987 N1004 1.993 . S
Co987 O1012 1.941 . S
C988 O989 1.258 . S
C988 O990 1.263 . S
O989 Co986 1.970 . S
O989 C988 1.258 . S
O990 Co987 1.966 . S
O990 C988 1.263 . S
C991 O992 1.235 . S
C991 O1018 1.289 . S
O992 C991 1.235 . S
C993 C995 1.400 . S
C993 N996 1.351 . S
C993 C998 1.501 . S
C994 C995 1.387 . S
C994 N997 1.341 . S
C995 C993 1.400 . S
C995 C994 1.387 . S
N996 Co987 2.022 . S
N996 C993 1.351 . S
N996 N997 1.365 . S
N997 C994 1.341 . S
N997 N996 1.365 . S
N997 H1017 0.862 . S
C998 C993 1.501 . S
C998 H999 0.961 . S
C998 H1000 0.961 . S
C998 H1001 0.960 . S
H999 C998 0.961 . S
H1000 C998 0.961 . S
H1001 C998 0.960 . S
C1002 N1003 1.342 . S
C1002 C1006 1.401 . S
C1002 C1007 1.499 . S
N1003 Co986 1.989 . S
N1003 C1002 1.342 . S
N1003 N1004 1.388 . S
N1004 Co987 1.993 . S
N1004 N1003 1.388 . S
N1004 C1005 1.346 . S
C1005 N1004 1.346 . S
C1005 C1006 1.396 . S
C1005 C1015 1.510 . S
C1006 C1002 1.401 . S
C1006 C1005 1.396 . S
C1007 C1002 1.499 . S
C1007 H1008 0.959 . S
C1007 H1009 0.960 . S
C1007 H1010 0.961 . S
H1008 C1007 0.959 . S
H1009 C1007 0.960 . S
H1010 C1007 0.961 . S
O1011 Co986 1.967 . S
O1011 C1019 1.258 . S
O1012 Co987 1.941 . S
O1012 C1019 1.266 . S
H1013 C1015 0.959 . S
H1014 C1015 0.961 . S
C1015 C1005 1.510 . S
C1015 H1013 0.959 . S
C1015 H1014 0.961 . S
C1015 H1016 0.960 . S
H1016 C1015 0.960 . S
H1017 N997 0.862 . S
O1018 Co986 1.920 . S
O1018 C991 1.289 . S
C1019 O1011 1.258 . S
C1019 O1012 1.266 . S
Co1020 O1023 1.970 . S
Co1020 N1037 1.989 . S
Co1020 O1045 1.967 . S
Co1020 O1052 1.920 . S
Co1021 O1024 1.966 . S
Co1021 N1030 2.022 1_655 S
Co1021 N1038 1.988 1_655 S
Co1021 O1046 1.941 . S
C1022 O1023 1.258 . S
C1022 O1024 1.263 . S
O1023 Co1020 1.970 . S
O1023 C1022 1.258 . S
O1024 Co1021 1.966 . S
O1024 C1022 1.263 . S
C1025 O1026 1.235 . S
C1025 O1052 1.289 1_556 S
O1026 C1025 1.235 . S
C1027 C1029 1.400 . S
C1027 N1030 1.351 . S
C1027 C1032 1.501 . S
C1028 C1029 1.387 . S
C1028 N1031 1.341 . S
C1029 C1027 1.400 . S
C1029 C1028 1.387 . S
N1030 Co1021 2.022 1_455 S
N1030 C1027 1.351 . S
N1030 N1031 1.365 . S
N1031 C1028 1.341 . S
N1031 N1030 1.365 . S
N1031 H1051 0.862 1_455 S
C1032 C1027 1.501 . S
C1032 H1033 0.961 . S
C1032 H1034 0.961 . S
C1032 H1035 0.960 . S
H1033 C1032 0.961 . S
H1034 C1032 0.961 . S
H1035 C1032 0.960 . S
C1036 N1037 1.342 . S
C1036 C1040 1.401 1_655 S
C1036 C1041 1.499 . S
N1037 Co1020 1.989 . S
N1037 C1036 1.342 . S
N1037 N1038 1.382 1_655 S
N1038 Co1021 1.988 1_455 S
N1038 N1037 1.382 1_455 S
N1038 C1039 1.354 . S
C1039 N1038 1.354 . S
C1039 C1040 1.396 . S
C1039 C1049 1.510 . S
C1040 C1036 1.401 1_455 S
C1040 C1039 1.396 . S
C1041 C1036 1.499 . S
C1041 H1042 0.959 . S
C1041 H1043 0.981 . S
C1041 H1044 0.961 . S
H1042 C1041 0.959 . S
H1043 C1041 0.981 . S
H1044 C1041 0.961 . S
O1045 Co1020 1.967 . S
O1045 C1053 1.258 . S
O1046 Co1021 1.941 . S
O1046 C1053 1.266 . S
H1047 C1049 0.959 . S
H1048 C1049 0.961 . S
C1049 C1039 1.510 . S
C1049 H1047 0.959 . S
C1049 H1048 0.961 . S
C1049 H1050 0.960 . S
H1050 C1049 0.960 . S
H1051 N1031 0.862 1_655 S
O1052 Co1020 1.920 . S
O1052 C1025 1.289 1_554 S
C1053 O1045 1.258 . S
C1053 O1046 1.266 . S
Co1054 O1057 1.970 . S
Co1054 N1071 1.989 . S
Co1054 O1079 1.967 . S
Co1054 O1086 1.920 . S
Co1055 O1058 1.966 . S
Co1055 N1064 2.022 . S
Co1055 N1072 1.993 . S
Co1055 O1080 1.941 . S
C1056 O1057 1.258 . S
C1056 O1058 1.263 . S
O1057 Co1054 1.970 . S
O1057 C1056 1.258 . S
O1058 Co1055 1.966 . S
O1058 C1056 1.263 . S
C1059 O1060 1.235 . S
C1059 O1086 1.289 . S
O1060 C1059 1.235 . S
C1061 C1063 1.400 . S
C1061 N1064 1.351 . S
C1061 C1066 1.501 . S
C1062 C1063 1.387 . S
C1062 N1065 1.341 . S
C1063 C1061 1.400 . S
C1063 C1062 1.387 . S
N1064 Co1055 2.022 . S
N1064 C1061 1.351 . S
N1064 N1065 1.365 . S
N1065 C1062 1.341 . S
N1065 N1064 1.365 . S
N1065 H1085 0.862 . S
C1066 C1061 1.501 . S
C1066 H1067 0.961 . S
C1066 H1068 0.961 . S
C1066 H1069 0.960 . S
H1067 C1066 0.961 . S
H1068 C1066 0.961 . S
H1069 C1066 0.960 . S
C1070 N1071 1.342 . S
C1070 C1074 1.401 . S
C1070 C1075 1.499 . S
N1071 Co1054 1.989 . S
N1071 C1070 1.342 . S
N1071 N1072 1.388 . S
N1072 Co1055 1.993 . S
N1072 N1071 1.388 . S
N1072 C1073 1.346 . S
C1073 N1072 1.346 . S
C1073 C1074 1.396 . S
C1073 C1083 1.510 . S
C1074 C1070 1.401 . S
C1074 C1073 1.396 . S
C1075 C1070 1.499 . S
C1075 H1076 0.959 . S
C1075 H1077 0.960 . S
C1075 H1078 0.961 . S
H1076 C1075 0.959 . S
H1077 C1075 0.960 . S
H1078 C1075 0.961 . S
O1079 Co1054 1.967 . S
O1079 C1087 1.258 . S
O1080 Co1055 1.941 . S
O1080 C1087 1.266 . S
H1081 C1083 0.959 . S
H1082 C1083 0.961 . S
C1083 C1073 1.510 . S
C1083 H1081 0.959 . S
C1083 H1082 0.961 . S
C1083 H1084 0.960 . S
H1084 C1083 0.960 . S
H1085 N1065 0.862 . S
O1086 Co1054 1.920 . S
O1086 C1059 1.289 . S
C1087 O1079 1.258 . S
C1087 O1080 1.266 . S
Co1088 O1091 1.970 . S
Co1088 N1105 1.989 . S
Co1088 O1113 1.967 . S
Co1088 O1120 1.920 . S
Co1089 O1092 1.966 . S
Co1089 N1098 2.022 . S
Co1089 N1106 1.993 . S
Co1089 O1114 1.941 . S
C1090 O1091 1.258 . S
C1090 O1092 1.263 . S
O1091 Co1088 1.970 . S
O1091 C1090 1.258 . S
O1092 Co1089 1.966 . S
O1092 C1090 1.263 . S
C1093 O1094 1.235 . S
C1093 O1120 1.289 1_455 S
O1094 C1093 1.235 . S
C1095 C1097 1.400 . S
C1095 N1098 1.351 . S
C1095 C1100 1.501 . S
C1096 C1097 1.387 . S
C1096 N1099 1.341 . S
C1097 C1095 1.400 . S
C1097 C1096 1.387 . S
N1098 Co1089 2.022 . S
N1098 C1095 1.351 . S
N1098 N1099 1.365 . S
N1099 C1096 1.341 . S
N1099 N1098 1.365 . S
N1099 H1119 0.862 . S
C1100 C1095 1.501 . S
C1100 H1101 0.961 . S
C1100 H1102 0.961 . S
C1100 H1103 0.960 . S
H1101 C1100 0.961 . S
H1102 C1100 0.961 . S
H1103 C1100 0.960 . S
C1104 N1105 1.342 . S
C1104 C1108 1.401 . S
C1104 C1109 1.499 . S
N1105 Co1088 1.989 . S
N1105 C1104 1.342 . S
N1105 N1106 1.388 . S
N1106 Co1089 1.993 . S
N1106 N1105 1.388 . S
N1106 C1107 1.346 . S
C1107 N1106 1.346 . S
C1107 C1108 1.396 . S
C1107 C1117 1.510 . S
C1108 C1104 1.401 . S
C1108 C1107 1.396 . S
C1109 C1104 1.499 . S
C1109 H1110 0.959 . S
C1109 H1111 0.960 . S
C1109 H1112 0.961 . S
H1110 C1109 0.959 . S
H1111 C1109 0.960 . S
H1112 C1109 0.961 . S
O1113 Co1088 1.967 . S
O1113 C1121 1.258 . S
O1114 Co1089 1.941 . S
O1114 C1121 1.266 . S
H1115 C1117 0.959 . S
H1116 C1117 0.961 . S
C1117 C1107 1.510 . S
C1117 H1115 0.959 . S
C1117 H1116 0.961 . S
C1117 H1118 0.960 . S
H1118 C1117 0.960 . S
H1119 N1099 0.862 . S
O1120 Co1088 1.920 . S
O1120 C1093 1.289 1_655 S
C1121 O1113 1.258 . S
C1121 O1114 1.266 . S
Co1122 O1125 1.970 . S
Co1122 N1139 1.989 . S
Co1122 O1147 1.967 . S
Co1122 O1154 1.920 . S
Co1123 O1126 1.966 . S
Co1123 N1132 2.022 . S
Co1123 N1140 1.993 . S
Co1123 O1148 1.941 . S
C1124 O1125 1.258 . S
C1124 O1126 1.263 . S
O1125 Co1122 1.970 . S
O1125 C1124 1.258 . S
O1126 Co1123 1.966 . S
O1126 C1124 1.263 . S
C1127 O1128 1.235 . S
C1127 O1154 1.289 . S
O1128 C1127 1.235 . S
C1129 C1131 1.400 . S
C1129 N1132 1.351 . S
C1129 C1134 1.501 . S
C1130 C1131 1.387 . S
C1130 N1133 1.341 . S
C1131 C1129 1.400 . S
C1131 C1130 1.387 . S
N1132 Co1123 2.022 . S
N1132 C1129 1.351 . S
N1132 N1133 1.365 . S
N1133 C1130 1.341 . S
N1133 N1132 1.365 . S
N1133 H1153 0.862 . S
C1134 C1129 1.501 . S
C1134 H1135 0.961 . S
C1134 H1136 0.961 . S
C1134 H1137 0.960 . S
H1135 C1134 0.961 . S
H1136 C1134 0.961 . S
H1137 C1134 0.960 . S
C1138 N1139 1.342 . S
C1138 C1142 1.401 . S
C1138 C1143 1.499 . S
N1139 Co1122 1.989 . S
N1139 C1138 1.342 . S
N1139 N1140 1.388 . S
N1140 Co1123 1.993 . S
N1140 N1139 1.388 . S
N1140 C1141 1.346 . S
C1141 N1140 1.346 . S
C1141 C1142 1.396 . S
C1141 C1151 1.510 . S
C1142 C1138 1.401 . S
C1142 C1141 1.396 . S
C1143 C1138 1.499 . S
C1143 H1144 0.959 . S
C1143 H1145 0.960 . S
C1143 H1146 0.961 . S
H1144 C1143 0.959 . S
H1145 C1143 0.960 . S
H1146 C1143 0.961 . S
O1147 Co1122 1.967 . S
O1147 C1155 1.258 . S
O1148 Co1123 1.941 . S
O1148 C1155 1.266 . S
H1149 C1151 0.959 . S
H1150 C1151 0.961 . S
C1151 C1141 1.510 . S
C1151 H1149 0.959 . S
C1151 H1150 0.961 . S
C1151 H1152 0.960 . S
H1152 C1151 0.960 . S
H1153 N1133 0.862 . S
O1154 Co1122 1.920 . S
O1154 C1127 1.289 . S
C1155 O1147 1.258 . S
C1155 O1148 1.266 . S
Co1156 O1159 1.970 . S
Co1156 N1173 1.989 . S
Co1156 O1181 1.967 . S
Co1156 O1188 1.920 . S
Co1157 O1160 1.966 . S
Co1157 N1166 2.022 . S
Co1157 N1174 1.993 . S
Co1157 O1182 1.941 . S
C1158 O1159 1.258 . S
C1158 O1160 1.263 . S
O1159 Co1156 1.970 . S
O1159 C1158 1.258 . S
O1160 Co1157 1.966 . S
O1160 C1158 1.263 . S
C1161 O1162 1.235 . S
C1161 O1188 1.289 . S
O1162 C1161 1.235 . S
C1163 C1165 1.400 . S
C1163 N1166 1.351 . S
C1163 C1168 1.501 . S
C1164 C1165 1.387 . S
C1164 N1167 1.341 . S
C1165 C1163 1.400 . S
C1165 C1164 1.387 . S
N1166 Co1157 2.022 . S
N1166 C1163 1.351 . S
N1166 N1167 1.365 . S
N1167 C1164 1.341 . S
N1167 N1166 1.365 . S
N1167 H1187 0.862 . S
C1168 C1163 1.501 . S
C1168 H1169 0.961 . S
C1168 H1170 0.961 . S
C1168 H1171 0.960 . S
H1169 C1168 0.961 . S
H1170 C1168 0.961 . S
H1171 C1168 0.960 . S
C1172 N1173 1.342 . S
C1172 C1176 1.401 . S
C1172 C1177 1.499 . S
N1173 Co1156 1.989 . S
N1173 C1172 1.342 . S
N1173 N1174 1.388 . S
N1174 Co1157 1.993 . S
N1174 N1173 1.388 . S
N1174 C1175 1.346 . S
C1175 N1174 1.346 . S
C1175 C1176 1.396 . S
C1175 C1185 1.510 . S
C1176 C1172 1.401 . S
C1176 C1175 1.396 . S
C1177 C1172 1.499 . S
C1177 H1178 0.959 . S
C1177 H1179 0.960 . S
C1177 H1180 0.961 . S
H1178 C1177 0.959 . S
H1179 C1177 0.960 . S
H1180 C1177 0.961 . S
O1181 Co1156 1.967 . S
O1181 C1189 1.258 . S
O1182 Co1157 1.941 . S
O1182 C1189 1.266 . S
H1183 C1185 0.959 . S
H1184 C1185 0.961 . S
C1185 C1175 1.510 . S
C1185 H1183 0.959 . S
C1185 H1184 0.961 . S
C1185 H1186 0.960 . S
H1186 C1185 0.960 . S
H1187 N1167 0.862 . S
O1188 Co1156 1.920 . S
O1188 C1161 1.289 . S
C1189 O1181 1.258 . S
C1189 O1182 1.266 . S
Co1190 O1193 1.970 . S
Co1190 N1207 1.989 . S
Co1190 O1215 1.967 . S
Co1190 O1222 1.920 . S
Co1191 O1194 1.966 . S
Co1191 N1200 2.022 . S
Co1191 N1208 1.993 . S
Co1191 O1216 1.941 . S
C1192 O1193 1.258 . S
C1192 O1194 1.263 . S
O1193 Co1190 1.970 . S
O1193 C1192 1.258 . S
O1194 Co1191 1.966 . S
O1194 C1192 1.263 . S
C1195 O1196 1.235 . S
C1195 O1222 1.289 . S
O1196 C1195 1.235 . S
C1197 C1199 1.400 . S
C1197 N1200 1.351 . S
C1197 C1202 1.501 . S
C1198 C1199 1.387 . S
C1198 N1201 1.341 . S
C1199 C1197 1.400 . S
C1199 C1198 1.387 . S
N1200 Co1191 2.022 . S
N1200 C1197 1.351 . S
N1200 N1201 1.365 . S
N1201 C1198 1.341 . S
N1201 N1200 1.365 . S
N1201 H1221 0.862 . S
C1202 C1197 1.501 . S
C1202 H1203 0.961 . S
C1202 H1204 0.961 . S
C1202 H1205 0.960 . S
H1203 C1202 0.961 . S
H1204 C1202 0.961 . S
H1205 C1202 0.960 . S
C1206 N1207 1.342 . S
C1206 C1210 1.401 . S
C1206 C1211 1.499 . S
N1207 Co1190 1.989 . S
N1207 C1206 1.342 . S
N1207 N1208 1.388 . S
N1208 Co1191 1.993 . S
N1208 N1207 1.388 . S
N1208 C1209 1.346 . S
C1209 N1208 1.346 . S
C1209 C1210 1.396 . S
C1209 C1219 1.510 . S
C1210 C1206 1.401 . S
C1210 C1209 1.396 . S
C1211 C1206 1.499 . S
C1211 H1212 0.959 . S
C1211 H1213 0.960 . S
C1211 H1214 0.961 . S
H1212 C1211 0.959 . S
H1213 C1211 0.960 . S
H1214 C1211 0.961 . S
O1215 Co1190 1.967 . S
O1215 C1223 1.258 . S
O1216 Co1191 1.941 . S
O1216 C1223 1.266 . S
H1217 C1219 0.959 . S
H1218 C1219 0.961 . S
C1219 C1209 1.510 . S
C1219 H1217 0.959 . S
C1219 H1218 0.961 . S
C1219 H1220 0.960 . S
H1220 C1219 0.960 . S
H1221 N1201 0.862 . S
O1222 Co1190 1.920 . S
O1222 C1195 1.289 . S
C1223 O1215 1.258 . S
C1223 O1216 1.266 . S
Co1224 O1227 1.970 . S
Co1224 N1241 1.989 . S
Co1224 O1249 1.967 . S
Co1224 O1256 1.920 . S
Co1225 O1228 1.966 . S
Co1225 N1234 2.022 . S
Co1225 N1242 1.993 . S
Co1225 O1250 1.941 . S
C1226 O1227 1.258 . S
C1226 O1228 1.263 . S
O1227 Co1224 1.970 . S
O1227 C1226 1.258 . S
O1228 Co1225 1.966 . S
O1228 C1226 1.263 . S
C1229 O1230 1.235 . S
C1229 O1256 1.289 1_455 S
O1230 C1229 1.235 . S
C1231 C1233 1.400 . S
C1231 N1234 1.351 . S
C1231 C1236 1.501 . S
C1232 C1233 1.387 . S
C1232 N1235 1.341 . S
C1233 C1231 1.400 . S
C1233 C1232 1.387 . S
N1234 Co1225 2.022 . S
N1234 C1231 1.351 . S
N1234 N1235 1.365 . S
N1235 C1232 1.341 . S
N1235 N1234 1.365 . S
N1235 H1255 0.862 . S
C1236 C1231 1.501 . S
C1236 H1237 0.961 . S
C1236 H1238 0.961 . S
C1236 H1239 0.960 . S
H1237 C1236 0.961 . S
H1238 C1236 0.961 . S
H1239 C1236 0.960 . S
C1240 N1241 1.342 . S
C1240 C1244 1.401 . S
C1240 C1245 1.499 . S
N1241 Co1224 1.989 . S
N1241 C1240 1.342 . S
N1241 N1242 1.388 . S
N1242 Co1225 1.993 . S
N1242 N1241 1.388 . S
N1242 C1243 1.346 . S
C1243 N1242 1.346 . S
C1243 C1244 1.396 . S
C1243 C1253 1.510 . S
C1244 C1240 1.401 . S
C1244 C1243 1.396 . S
C1245 C1240 1.499 . S
C1245 H1246 0.959 . S
C1245 H1247 0.960 . S
C1245 H1248 0.961 . S
H1246 C1245 0.959 . S
H1247 C1245 0.960 . S
H1248 C1245 0.961 . S
O1249 Co1224 1.967 . S
O1249 C1257 1.258 . S
O1250 Co1225 1.941 . S
O1250 C1257 1.266 . S
H1251 C1253 0.959 . S
H1252 C1253 0.961 . S
C1253 C1243 1.510 . S
C1253 H1251 0.959 . S
C1253 H1252 0.961 . S
C1253 H1254 0.960 . S
H1254 C1253 0.960 . S
H1255 N1235 0.862 . S
O1256 Co1224 1.920 . S
O1256 C1229 1.289 1_655 S
C1257 O1249 1.258 . S
C1257 O1250 1.266 . S
Co1258 O1261 1.970 . S
Co1258 N1275 1.989 . S
Co1258 O1283 1.967 . S
Co1258 O1290 1.920 . S
Co1259 O1262 1.966 . S
Co1259 N1268 2.022 . S
Co1259 N1276 1.993 . S
Co1259 O1284 1.941 . S
C1260 O1261 1.258 . S
C1260 O1262 1.263 . S
O1261 Co1258 1.970 . S
O1261 C1260 1.258 . S
O1262 Co1259 1.966 . S
O1262 C1260 1.263 . S
C1263 O1264 1.235 . S
C1263 O1290 1.289 . S
O1264 C1263 1.235 . S
C1265 C1267 1.400 . S
C1265 N1268 1.351 . S
C1265 C1270 1.501 . S
C1266 C1267 1.387 . S
C1266 N1269 1.341 . S
C1267 C1265 1.400 . S
C1267 C1266 1.387 . S
N1268 Co1259 2.022 . S
N1268 C1265 1.351 . S
N1268 N1269 1.365 . S
N1269 C1266 1.341 . S
N1269 N1268 1.365 . S
N1269 H1289 0.862 . S
C1270 C1265 1.501 . S
C1270 H1271 0.961 . S
C1270 H1272 0.961 . S
C1270 H1273 0.960 . S
H1271 C1270 0.961 . S
H1272 C1270 0.961 . S
H1273 C1270 0.960 . S
C1274 N1275 1.342 . S
C1274 C1278 1.401 . S
C1274 C1279 1.499 . S
N1275 Co1258 1.989 . S
N1275 C1274 1.342 . S
N1275 N1276 1.388 . S
N1276 Co1259 1.993 . S
N1276 N1275 1.388 . S
N1276 C1277 1.346 . S
C1277 N1276 1.346 . S
C1277 C1278 1.396 . S
C1277 C1287 1.510 . S
C1278 C1274 1.401 . S
C1278 C1277 1.396 . S
C1279 C1274 1.499 . S
C1279 H1280 0.959 . S
C1279 H1281 0.960 . S
C1279 H1282 0.961 . S
H1280 C1279 0.959 . S
H1281 C1279 0.960 . S
H1282 C1279 0.961 . S
O1283 Co1258 1.967 . S
O1283 C1291 1.258 . S
O1284 Co1259 1.941 . S
O1284 C1291 1.266 . S
H1285 C1287 0.959 . S
H1286 C1287 0.961 . S
C1287 C1277 1.510 . S
C1287 H1285 0.959 . S
C1287 H1286 0.961 . S
C1287 H1288 0.960 . S
H1288 C1287 0.960 . S
H1289 N1269 0.862 . S
O1290 Co1258 1.920 . S
O1290 C1263 1.289 . S
C1291 O1283 1.258 . S
C1291 O1284 1.266 . S
Co1292 O1295 1.970 . S
Co1292 N1309 1.989 . S
Co1292 O1317 1.967 . S
Co1292 O1324 1.920 . S
Co1293 O1296 1.966 . S
Co1293 N1302 2.022 . S
Co1293 N1310 1.993 . S
Co1293 O1318 1.941 . S
C1294 O1295 1.258 . S
C1294 O1296 1.263 . S
O1295 Co1292 1.970 . S
O1295 C1294 1.258 . S
O1296 Co1293 1.966 . S
O1296 C1294 1.263 . S
C1297 O1298 1.235 . S
C1297 O1324 1.289 . S
O1298 C1297 1.235 . S
C1299 C1301 1.400 . S
C1299 N1302 1.351 . S
C1299 C1304 1.501 . S
C1300 C1301 1.387 . S
C1300 N1303 1.341 . S
C1301 C1299 1.400 . S
C1301 C1300 1.387 . S
N1302 Co1293 2.022 . S
N1302 C1299 1.351 . S
N1302 N1303 1.365 . S
N1303 C1300 1.341 . S
N1303 N1302 1.365 . S
N1303 H1323 0.862 . S
C1304 C1299 1.501 . S
C1304 H1305 0.961 . S
C1304 H1306 0.961 . S
C1304 H1307 0.960 . S
H1305 C1304 0.961 . S
H1306 C1304 0.961 . S
H1307 C1304 0.960 . S
C1308 N1309 1.342 . S
C1308 C1312 1.401 . S
C1308 C1313 1.499 . S
N1309 Co1292 1.989 . S
N1309 C1308 1.342 . S
N1309 N1310 1.388 . S
N1310 Co1293 1.993 . S
N1310 N1309 1.388 . S
N1310 C1311 1.346 . S
C1311 N1310 1.346 . S
C1311 C1312 1.396 . S
C1311 C1321 1.510 . S
C1312 C1308 1.401 . S
C1312 C1311 1.396 . S
C1313 C1308 1.499 . S
C1313 H1314 0.959 . S
C1313 H1315 0.960 . S
C1313 H1316 0.961 . S
H1314 C1313 0.959 . S
H1315 C1313 0.960 . S
H1316 C1313 0.961 . S
O1317 Co1292 1.967 . S
O1317 C1325 1.258 . S
O1318 Co1293 1.941 . S
O1318 C1325 1.266 . S
H1319 C1321 0.959 . S
H1320 C1321 0.961 . S
C1321 C1311 1.510 . S
C1321 H1319 0.959 . S
C1321 H1320 0.961 . S
C1321 H1322 0.960 . S
H1322 C1321 0.960 . S
H1323 N1303 0.862 . S
O1324 Co1292 1.920 . S
O1324 C1297 1.289 . S
C1325 O1317 1.258 . S
C1325 O1318 1.266 . S
Co1326 O1329 1.970 . S
Co1326 N1343 1.989 . S
Co1326 O1351 1.967 . S
Co1326 O1358 1.920 . S
Co1327 O1330 1.966 . S
Co1327 N1336 2.022 . S
Co1327 N1344 1.993 . S
Co1327 O1352 1.941 . S
C1328 O1329 1.258 . S
C1328 O1330 1.263 . S
O1329 Co1326 1.970 . S
O1329 C1328 1.258 . S
O1330 Co1327 1.966 . S
O1330 C1328 1.263 . S
C1331 O1332 1.235 . S
C1331 O1358 1.289 . S
O1332 C1331 1.235 . S
C1333 C1335 1.400 . S
C1333 N1336 1.351 . S
C1333 C1338 1.501 . S
C1334 C1335 1.387 . S
C1334 N1337 1.341 . S
C1335 C1333 1.400 . S
C1335 C1334 1.387 . S
N1336 Co1327 2.022 . S
N1336 C1333 1.351 . S
N1336 N1337 1.365 . S
N1337 C1334 1.341 . S
N1337 N1336 1.365 . S
N1337 H1357 0.862 . S
C1338 C1333 1.501 . S
C1338 H1339 0.961 . S
C1338 H1340 0.961 . S
C1338 H1341 0.960 . S
H1339 C1338 0.961 . S
H1340 C1338 0.961 . S
H1341 C1338 0.960 . S
C1342 N1343 1.342 . S
C1342 C1346 1.401 . S
C1342 C1347 1.499 . S
N1343 Co1326 1.989 . S
N1343 C1342 1.342 . S
N1343 N1344 1.388 . S
N1344 Co1327 1.993 . S
N1344 N1343 1.388 . S
N1344 C1345 1.346 . S
C1345 N1344 1.346 . S
C1345 C1346 1.396 . S
C1345 C1355 1.510 . S
C1346 C1342 1.401 . S
C1346 C1345 1.396 . S
C1347 C1342 1.499 . S
C1347 H1348 0.959 . S
C1347 H1349 0.960 . S
C1347 H1350 0.961 . S
H1348 C1347 0.959 . S
H1349 C1347 0.960 . S
H1350 C1347 0.961 . S
O1351 Co1326 1.967 . S
O1351 C1359 1.258 . S
O1352 Co1327 1.941 . S
O1352 C1359 1.266 . S
H1353 C1355 0.959 . S
H1354 C1355 0.961 . S
C1355 C1345 1.510 . S
C1355 H1353 0.959 . S
C1355 H1354 0.961 . S
C1355 H1356 0.960 . S
H1356 C1355 0.960 . S
H1357 N1337 0.862 . S
O1358 Co1326 1.920 . S
O1358 C1331 1.289 . S
C1359 O1351 1.258 . S
C1359 O1352 1.266 . S
Co1360 O1363 1.970 . S
Co1360 N1377 1.989 . S
Co1360 O1385 1.967 . S
Co1360 O1392 1.920 . S
Co1361 O1364 1.966 . S
Co1361 N1370 2.022 . S
Co1361 N1378 1.993 . S
Co1361 O1386 1.941 . S
C1362 O1363 1.258 . S
C1362 O1364 1.263 . S
O1363 Co1360 1.970 . S
O1363 C1362 1.258 . S
O1364 Co1361 1.966 . S
O1364 C1362 1.263 . S
C1365 O1366 1.235 . S
C1365 O1392 1.289 1_545 S
O1366 C1365 1.235 . S
C1367 C1369 1.400 . S
C1367 N1370 1.351 . S
C1367 C1372 1.501 . S
C1368 C1369 1.387 . S
C1368 N1371 1.341 . S
C1369 C1367 1.400 . S
C1369 C1368 1.387 . S
N1370 Co1361 2.022 . S
N1370 C1367 1.351 . S
N1370 N1371 1.365 . S
N1371 C1368 1.341 . S
N1371 N1370 1.365 . S
N1371 H1391 0.862 . S
C1372 C1367 1.501 . S
C1372 H1373 0.961 . S
C1372 H1374 0.961 . S
C1372 H1375 0.960 . S
H1373 C1372 0.961 . S
H1374 C1372 0.961 . S
H1375 C1372 0.960 . S
C1376 N1377 1.342 . S
C1376 C1380 1.401 . S
C1376 C1381 1.499 . S
N1377 Co1360 1.989 . S
N1377 C1376 1.342 . S
N1377 N1378 1.388 . S
N1378 Co1361 1.993 . S
N1378 N1377 1.388 . S
N1378 C1379 1.346 . S
C1379 N1378 1.346 . S
C1379 C1380 1.396 . S
C1379 C1389 1.510 . S
C1380 C1376 1.401 . S
C1380 C1379 1.396 . S
C1381 C1376 1.499 . S
C1381 H1382 0.959 . S
C1381 H1383 0.960 . S
C1381 H1384 0.961 . S
H1382 C1381 0.959 . S
H1383 C1381 0.960 . S
H1384 C1381 0.961 . S
O1385 Co1360 1.967 . S
O1385 C1393 1.258 . S
O1386 Co1361 1.941 . S
O1386 C1393 1.266 . S
H1387 C1389 0.959 . S
H1388 C1389 0.961 . S
C1389 C1379 1.510 . S
C1389 H1387 0.959 . S
C1389 H1388 0.961 . S
C1389 H1390 0.960 . S
H1390 C1389 0.960 . S
H1391 N1371 0.862 . S
O1392 Co1360 1.920 . S
O1392 C1365 1.289 1_565 S
C1393 O1385 1.258 . S
C1393 O1386 1.266 . S
Co1394 O1397 1.970 . S
Co1394 N1411 1.989 . S
Co1394 O1419 1.967 . S
Co1394 O1426 1.920 . S
Co1395 O1398 1.966 . S
Co1395 N1404 2.022 . S
Co1395 N1412 1.993 . S
Co1395 O1420 1.941 . S
C1396 O1397 1.258 . S
C1396 O1398 1.263 . S
O1397 Co1394 1.970 . S
O1397 C1396 1.258 . S
O1398 Co1395 1.966 . S
O1398 C1396 1.263 . S
C1399 O1400 1.235 . S
C1399 O1426 1.289 . S
O1400 C1399 1.235 . S
C1401 C1403 1.400 . S
C1401 N1404 1.351 . S
C1401 C1406 1.501 . S
C1402 C1403 1.387 . S
C1402 N1405 1.341 . S
C1403 C1401 1.400 . S
C1403 C1402 1.387 . S
N1404 Co1395 2.022 . S
N1404 C1401 1.351 . S
N1404 N1405 1.365 . S
N1405 C1402 1.341 . S
N1405 N1404 1.365 . S
N1405 H1425 0.862 . S
C1406 C1401 1.501 . S
C1406 H1407 0.961 . S
C1406 H1408 0.961 . S
C1406 H1409 0.960 . S
H1407 C1406 0.961 . S
H1408 C1406 0.961 . S
H1409 C1406 0.960 . S
C1410 N1411 1.342 . S
C1410 C1414 1.401 . S
C1410 C1415 1.499 . S
N1411 Co1394 1.989 . S
N1411 C1410 1.342 . S
N1411 N1412 1.388 . S
N1412 Co1395 1.993 . S
N1412 N1411 1.388 . S
N1412 C1413 1.346 . S
C1413 N1412 1.346 . S
C1413 C1414 1.396 . S
C1413 C1423 1.510 . S
C1414 C1410 1.401 . S
C1414 C1413 1.396 . S
C1415 C1410 1.499 . S
C1415 H1416 0.959 . S
C1415 H1417 0.960 . S
C1415 H1418 0.961 . S
H1416 C1415 0.959 . S
H1417 C1415 0.960 . S
H1418 C1415 0.961 . S
O1419 Co1394 1.967 . S
O1419 C1427 1.258 . S
O1420 Co1395 1.941 . S
O1420 C1427 1.266 . S
H1421 C1423 0.959 . S
H1422 C1423 0.961 . S
C1423 C1413 1.510 . S
C1423 H1421 0.959 . S
C1423 H1422 0.961 . S
C1423 H1424 0.960 . S
H1424 C1423 0.960 . S
H1425 N1405 0.862 . S
O1426 Co1394 1.920 . S
O1426 C1399 1.289 . S
C1427 O1419 1.258 . S
C1427 O1420 1.266 . S
Co1428 O1431 1.970 . S
Co1428 N1445 1.989 . S
Co1428 O1453 1.967 . S
Co1428 O1460 1.920 . S
Co1429 O1432 1.966 . S
Co1429 N1438 2.022 . S
Co1429 N1446 1.993 . S
Co1429 O1454 1.941 . S
C1430 O1431 1.258 . S
C1430 O1432 1.263 . S
O1431 Co1428 1.970 . S
O1431 C1430 1.258 . S
O1432 Co1429 1.966 . S
O1432 C1430 1.263 . S
C1433 O1434 1.235 . S
C1433 O1460 1.289 . S
O1434 C1433 1.235 . S
C1435 C1437 1.400 . S
C1435 N1438 1.351 . S
C1435 C1440 1.501 . S
C1436 C1437 1.387 . S
C1436 N1439 1.341 . S
C1437 C1435 1.400 . S
C1437 C1436 1.387 . S
N1438 Co1429 2.022 . S
N1438 C1435 1.351 . S
N1438 N1439 1.365 . S
N1439 C1436 1.341 . S
N1439 N1438 1.365 . S
N1439 H1459 0.862 . S
C1440 C1435 1.501 . S
C1440 H1441 0.961 . S
C1440 H1442 0.961 . S
C1440 H1443 0.960 . S
H1441 C1440 0.961 . S
H1442 C1440 0.961 . S
H1443 C1440 0.960 . S
C1444 N1445 1.342 . S
C1444 C1448 1.401 . S
C1444 C1449 1.499 . S
N1445 Co1428 1.989 . S
N1445 C1444 1.342 . S
N1445 N1446 1.388 . S
N1446 Co1429 1.993 . S
N1446 N1445 1.388 . S
N1446 C1447 1.346 . S
C1447 N1446 1.346 . S
C1447 C1448 1.396 . S
C1447 C1457 1.510 . S
C1448 C1444 1.401 . S
C1448 C1447 1.396 . S
C1449 C1444 1.499 . S
C1449 H1450 0.959 . S
C1449 H1451 0.960 . S
C1449 H1452 0.961 . S
H1450 C1449 0.959 . S
H1451 C1449 0.960 . S
H1452 C1449 0.961 . S
O1453 Co1428 1.967 . S
O1453 C1461 1.258 . S
O1454 Co1429 1.941 . S
O1454 C1461 1.266 . S
H1455 C1457 0.959 . S
H1456 C1457 0.961 . S
C1457 C1447 1.510 . S
C1457 H1455 0.959 . S
C1457 H1456 0.961 . S
C1457 H1458 0.960 . S
H1458 C1457 0.960 . S
H1459 N1439 0.862 . S
O1460 Co1428 1.920 . S
O1460 C1433 1.289 . S
C1461 O1453 1.258 . S
C1461 O1454 1.266 . S
Co1462 O1465 1.970 . S
Co1462 N1479 1.989 . S
Co1462 O1487 1.967 . S
Co1462 O1494 1.920 . S
Co1463 O1466 1.966 . S
Co1463 N1472 2.022 1_556 S
Co1463 N1480 1.988 1_556 S
Co1463 O1488 1.941 . S
C1464 O1465 1.258 . S
C1464 O1466 1.263 . S
O1465 Co1462 1.970 . S
O1465 C1464 1.258 . S
O1466 Co1463 1.966 . S
O1466 C1464 1.263 . S
C1467 O1468 1.235 . S
C1467 O1494 1.289 . S
O1468 C1467 1.235 . S
C1469 C1471 1.400 . S
C1469 N1472 1.351 . S
C1469 C1474 1.501 . S
C1470 C1471 1.387 . S
C1470 N1473 1.341 . S
C1471 C1469 1.400 . S
C1471 C1470 1.387 . S
N1472 Co1463 2.022 1_554 S
N1472 C1469 1.351 . S
N1472 N1473 1.365 . S
N1473 C1470 1.341 . S
N1473 N1472 1.365 . S
N1473 H1493 0.862 1_554 S
C1474 C1469 1.501 . S
C1474 H1475 0.961 . S
C1474 H1476 0.961 . S
C1474 H1477 0.960 . S
H1475 C1474 0.961 . S
H1476 C1474 0.961 . S
H1477 C1474 0.960 . S
C1478 N1479 1.342 . S
C1478 C1482 1.401 1_556 S
C1478 C1483 1.499 . S
N1479 Co1462 1.989 . S
N1479 C1478 1.342 . S
N1479 N1480 1.382 1_556 S
N1480 Co1463 1.988 1_554 S
N1480 N1479 1.382 1_554 S
N1480 C1481 1.354 . S
C1481 N1480 1.354 . S
C1481 C1482 1.396 . S
C1481 C1491 1.510 . S
C1482 C1478 1.401 1_554 S
C1482 C1481 1.396 . S
C1483 C1478 1.499 . S
C1483 H1484 0.959 . S
C1483 H1485 0.981 . S
C1483 H1486 0.961 . S
H1484 C1483 0.959 . S
H1485 C1483 0.981 . S
H1486 C1483 0.961 . S
O1487 Co1462 1.967 . S
O1487 C1495 1.258 . S
O1488 Co1463 1.941 . S
O1488 C1495 1.266 . S
H1489 C1491 0.959 . S
H1490 C1491 0.961 . S
C1491 C1481 1.510 . S
C1491 H1489 0.959 . S
C1491 H1490 0.961 . S
C1491 H1492 0.960 . S
H1492 C1491 0.960 . S
H1493 N1473 0.862 1_556 S
O1494 Co1462 1.920 . S
O1494 C1467 1.289 . S
C1495 O1487 1.258 . S
C1495 O1488 1.266 . S
Co1496 O1499 1.970 . S
Co1496 N1513 1.989 . S
Co1496 O1521 1.967 . S
Co1496 O1528 1.920 . S
Co1497 O1500 1.966 . S
Co1497 N1506 2.022 . S
Co1497 N1514 1.993 . S
Co1497 O1522 1.941 . S
C1498 O1499 1.258 . S
C1498 O1500 1.263 . S
O1499 Co1496 1.970 . S
O1499 C1498 1.258 . S
O1500 Co1497 1.966 . S
O1500 C1498 1.263 . S
C1501 O1502 1.235 . S
C1501 O1528 1.289 . S
O1502 C1501 1.235 . S
C1503 C1505 1.400 . S
C1503 N1506 1.351 . S
C1503 C1508 1.501 . S
C1504 C1505 1.387 . S
C1504 N1507 1.341 . S
C1505 C1503 1.400 . S
C1505 C1504 1.387 . S
N1506 Co1497 2.022 . S
N1506 C1503 1.351 . S
N1506 N1507 1.365 . S
N1507 C1504 1.341 . S
N1507 N1506 1.365 . S
N1507 H1527 0.862 . S
C1508 C1503 1.501 . S
C1508 H1509 0.961 . S
C1508 H1510 0.961 . S
C1508 H1511 0.960 . S
H1509 C1508 0.961 . S
H1510 C1508 0.961 . S
H1511 C1508 0.960 . S
C1512 N1513 1.342 . S
C1512 C1516 1.401 . S
C1512 C1517 1.499 . S
N1513 Co1496 1.989 . S
N1513 C1512 1.342 . S
N1513 N1514 1.388 . S
N1514 Co1497 1.993 . S
N1514 N1513 1.388 . S
N1514 C1515 1.346 . S
C1515 N1514 1.346 . S
C1515 C1516 1.396 . S
C1515 C1525 1.510 . S
C1516 C1512 1.401 . S
C1516 C1515 1.396 . S
C1517 C1512 1.499 . S
C1517 H1518 0.959 . S
C1517 H1519 0.960 . S
C1517 H1520 0.961 . S
H1518 C1517 0.959 . S
H1519 C1517 0.960 . S
H1520 C1517 0.961 . S
O1521 Co1496 1.967 . S
O1521 C1529 1.258 . S
O1522 Co1497 1.941 . S
O1522 C1529 1.266 . S
H1523 C1525 0.959 . S
H1524 C1525 0.961 . S
C1525 C1515 1.510 . S
C1525 H1523 0.959 . S
C1525 H1524 0.961 . S
C1525 H1526 0.960 . S
H1526 C1525 0.960 . S
H1527 N1507 0.862 . S
O1528 Co1496 1.920 . S
O1528 C1501 1.289 . S
C1529 O1521 1.258 . S
C1529 O1522 1.266 . S
Co1530 O1533 1.970 . S
Co1530 N1547 1.989 . S
Co1530 O1555 1.967 . S
Co1530 O1562 1.920 . S
Co1531 O1534 1.966 . S
Co1531 N1540 2.022 1_554 S
Co1531 N1548 1.988 1_554 S
Co1531 O1556 1.941 . S
C1532 O1533 1.258 . S
C1532 O1534 1.263 . S
O1533 Co1530 1.970 . S
O1533 C1532 1.258 . S
O1534 Co1531 1.966 . S
O1534 C1532 1.263 . S
C1535 O1536 1.235 . S
C1535 O1562 1.289 1_565 S
O1536 C1535 1.235 . S
C1537 C1539 1.400 . S
C1537 N1540 1.351 . S
C1537 C1542 1.501 . S
C1538 C1539 1.387 . S
C1538 N1541 1.341 . S
C1539 C1537 1.400 . S
C1539 C1538 1.387 . S
N1540 Co1531 2.022 1_556 S
N1540 C1537 1.351 . S
N1540 N1541 1.365 . S
N1541 C1538 1.341 . S
N1541 N1540 1.365 . S
N1541 H1561 0.862 1_556 S
C1542 C1537 1.501 . S
C1542 H1543 0.961 . S
C1542 H1544 0.961 . S
C1542 H1545 0.960 . S
H1543 C1542 0.961 . S
H1544 C1542 0.961 . S
H1545 C1542 0.960 . S
C1546 N1547 1.342 . S
C1546 C1550 1.401 1_554 S
C1546 C1551 1.499 . S
N1547 Co1530 1.989 . S
N1547 C1546 1.342 . S
N1547 N1548 1.382 1_554 S
N1548 Co1531 1.988 1_556 S
N1548 N1547 1.382 1_556 S
N1548 C1549 1.354 . S
C1549 N1548 1.354 . S
C1549 C1550 1.396 . S
C1549 C1559 1.510 . S
C1550 C1546 1.401 1_556 S
C1550 C1549 1.396 . S
C1551 C1546 1.499 . S
C1551 H1552 0.959 . S
C1551 H1553 0.981 . S
C1551 H1554 0.961 . S
H1552 C1551 0.959 . S
H1553 C1551 0.981 . S
H1554 C1551 0.961 . S
O1555 Co1530 1.967 . S
O1555 C1563 1.258 . S
O1556 Co1531 1.941 . S
O1556 C1563 1.266 . S
H1557 C1559 0.959 . S
H1558 C1559 0.961 . S
C1559 C1549 1.510 . S
C1559 H1557 0.959 . S
C1559 H1558 0.961 . S
C1559 H1560 0.960 . S
H1560 C1559 0.960 . S
H1561 N1541 0.862 1_554 S
O1562 Co1530 1.920 . S
O1562 C1535 1.289 1_545 S
C1563 O1555 1.258 . S
C1563 O1556 1.266 . S
Co1564 O1567 1.970 . S
Co1564 N1581 1.989 . S
Co1564 O1589 1.967 . S
Co1564 O1596 1.920 . S
Co1565 O1568 1.966 . S
Co1565 N1574 2.022 . S
Co1565 N1582 1.993 . S
Co1565 O1590 1.941 . S
C1566 O1567 1.258 . S
C1566 O1568 1.263 . S
O1567 Co1564 1.970 . S
O1567 C1566 1.258 . S
O1568 Co1565 1.966 . S
O1568 C1566 1.263 . S
C1569 O1570 1.235 . S
C1569 O1596 1.289 . S
O1570 C1569 1.235 . S
C1571 C1573 1.400 . S
C1571 N1574 1.351 . S
C1571 C1576 1.501 . S
C1572 C1573 1.387 . S
C1572 N1575 1.341 . S
C1573 C1571 1.400 . S
C1573 C1572 1.387 . S
N1574 Co1565 2.022 . S
N1574 C1571 1.351 . S
N1574 N1575 1.365 . S
N1575 C1572 1.341 . S
N1575 N1574 1.365 . S
N1575 H1595 0.862 . S
C1576 C1571 1.501 . S
C1576 H1577 0.961 . S
C1576 H1578 0.961 . S
C1576 H1579 0.960 . S
H1577 C1576 0.961 . S
H1578 C1576 0.961 . S
H1579 C1576 0.960 . S
C1580 N1581 1.342 . S
C1580 C1584 1.401 . S
C1580 C1585 1.499 . S
N1581 Co1564 1.989 . S
N1581 C1580 1.342 . S
N1581 N1582 1.388 . S
N1582 Co1565 1.993 . S
N1582 N1581 1.388 . S
N1582 C1583 1.346 . S
C1583 N1582 1.346 . S
C1583 C1584 1.396 . S
C1583 C1593 1.510 . S
C1584 C1580 1.401 . S
C1584 C1583 1.396 . S
C1585 C1580 1.499 . S
C1585 H1586 0.959 . S
C1585 H1587 0.960 . S
C1585 H1588 0.961 . S
H1586 C1585 0.959 . S
H1587 C1585 0.960 . S
H1588 C1585 0.961 . S
O1589 Co1564 1.967 . S
O1589 C1597 1.258 . S
O1590 Co1565 1.941 . S
O1590 C1597 1.266 . S
H1591 C1593 0.959 . S
H1592 C1593 0.961 . S
C1593 C1583 1.510 . S
C1593 H1591 0.959 . S
C1593 H1592 0.961 . S
C1593 H1594 0.960 . S
H1594 C1593 0.960 . S
H1595 N1575 0.862 . S
O1596 Co1564 1.920 . S
O1596 C1569 1.289 . S
C1597 O1589 1.258 . S
C1597 O1590 1.266 . S
Co1598 O1601 1.970 . S
Co1598 N1615 1.989 . S
Co1598 O1623 1.967 . S
Co1598 O1630 1.920 . S
Co1599 O1602 1.966 . S
Co1599 N1608 2.022 . S
Co1599 N1616 1.993 . S
Co1599 O1624 1.941 . S
C1600 O1601 1.258 . S
C1600 O1602 1.263 . S
O1601 Co1598 1.970 . S
O1601 C1600 1.258 . S
O1602 Co1599 1.966 . S
O1602 C1600 1.263 . S
C1603 O1604 1.235 . S
C1603 O1630 1.289 . S
O1604 C1603 1.235 . S
C1605 C1607 1.400 . S
C1605 N1608 1.351 . S
C1605 C1610 1.501 . S
C1606 C1607 1.387 . S
C1606 N1609 1.341 . S
C1607 C1605 1.400 . S
C1607 C1606 1.387 . S
N1608 Co1599 2.022 . S
N1608 C1605 1.351 . S
N1608 N1609 1.365 . S
N1609 C1606 1.341 . S
N1609 N1608 1.365 . S
N1609 H1629 0.862 . S
C1610 C1605 1.501 . S
C1610 H1611 0.961 . S
C1610 H1612 0.961 . S
C1610 H1613 0.960 . S
H1611 C1610 0.961 . S
H1612 C1610 0.961 . S
H1613 C1610 0.960 . S
C1614 N1615 1.342 . S
C1614 C1618 1.401 . S
C1614 C1619 1.499 . S
N1615 Co1598 1.989 . S
N1615 C1614 1.342 . S
N1615 N1616 1.388 . S
N1616 Co1599 1.993 . S
N1616 N1615 1.388 . S
N1616 C1617 1.346 . S
C1617 N1616 1.346 . S
C1617 C1618 1.396 . S
C1617 C1627 1.510 . S
C1618 C1614 1.401 . S
C1618 C1617 1.396 . S
C1619 C1614 1.499 . S
C1619 H1620 0.959 . S
C1619 H1621 0.960 . S
C1619 H1622 0.961 . S
H1620 C1619 0.959 . S
H1621 C1619 0.960 . S
H1622 C1619 0.961 . S
O1623 Co1598 1.967 . S
O1623 C1631 1.258 . S
O1624 Co1599 1.941 . S
O1624 C1631 1.266 . S
H1625 C1627 0.959 . S
H1626 C1627 0.961 . S
C1627 C1617 1.510 . S
C1627 H1625 0.959 . S
C1627 H1626 0.961 . S
C1627 H1628 0.960 . S
H1628 C1627 0.960 . S
H1629 N1609 0.862 . S
O1630 Co1598 1.920 . S
O1630 C1603 1.289 . S
C1631 O1623 1.258 . S
C1631 O1624 1.266 . S
H1632 C1638 0.930 . S
H1633 C1641 0.930 . S
H1634 C1642 0.930 . S
H1635 C1643 0.930 . S
H1636 C1646 0.930 . S
H1637 C1647 0.930 . S
C1638 H1632 0.930 . S
C1638 C1639 1.355 . S
C1638 C1640 1.415 . S
C1639 C1638 1.355 . S
C1639 C1641 1.419 . S
C1640 C1638 1.415 . S
C1640 C1645 1.425 . S
C1640 C1647 1.409 . S
C1641 H1633 0.930 . S
C1641 C1639 1.419 . S
C1641 C1642 1.362 . S
C1642 H1634 0.930 . S
C1642 C1641 1.362 . S
C1642 C1645 1.409 . S
C1643 H1635 0.930 . S
C1643 C1644 1.355 . S
C1643 C1645 1.415 . S
C1644 C1643 1.355 . S
C1644 C1646 1.419 . S
C1645 C1640 1.425 . S
C1645 C1642 1.409 . S
C1645 C1643 1.415 . S
C1646 H1636 0.930 . S
C1646 C1644 1.419 . S
C1646 C1647 1.362 . S
C1647 H1637 0.930 . S
C1647 C1640 1.409 . S
C1647 C1646 1.362 . S
H1648 C1654 0.930 . S
H1649 C1657 0.930 . S
H1650 C1658 0.930 . S
H1651 C1659 0.930 . S
H1652 C1662 0.930 . S
H1653 C1663 0.930 . S
C1654 H1648 0.930 . S
C1654 C1655 1.355 . S
C1654 C1656 1.415 . S
C1655 C1654 1.355 . S
C1655 C1657 1.419 . S
C1656 C1654 1.415 . S
C1656 C1661 1.425 . S
C1656 C1663 1.409 . S
C1657 H1649 0.930 . S
C1657 C1655 1.419 . S
C1657 C1658 1.362 . S
C1658 H1650 0.930 . S
C1658 C1657 1.362 . S
C1658 C1661 1.409 . S
C1659 H1651 0.930 . S
C1659 C1660 1.355 . S
C1659 C1661 1.415 . S
C1660 C1659 1.355 . S
C1660 C1662 1.419 . S
C1661 C1656 1.425 . S
C1661 C1658 1.409 . S
C1661 C1659 1.415 . S
C1662 H1652 0.930 . S
C1662 C1660 1.419 . S
C1662 C1663 1.362 . S
C1663 H1653 0.930 . S
C1663 C1656 1.409 . S
C1663 C1662 1.362 . S
H1664 C1670 0.930 . S
H1665 C1673 0.930 . S
H1666 C1674 0.930 . S
H1667 C1675 0.930 . S
H1668 C1678 0.930 . S
H1669 C1679 0.930 . S
C1670 H1664 0.930 . S
C1670 C1671 1.355 . S
C1670 C1672 1.415 . S
C1671 C1670 1.355 . S
C1671 C1673 1.419 . S
C1672 C1670 1.415 . S
C1672 C1677 1.425 . S
C1672 C1679 1.409 . S
C1673 H1665 0.930 . S
C1673 C1671 1.419 . S
C1673 C1674 1.362 . S
C1674 H1666 0.930 . S
C1674 C1673 1.362 . S
C1674 C1677 1.409 . S
C1675 H1667 0.930 . S
C1675 C1676 1.355 . S
C1675 C1677 1.415 . S
C1676 C1675 1.355 . S
C1676 C1678 1.419 . S
C1677 C1672 1.425 . S
C1677 C1674 1.409 . S
C1677 C1675 1.415 . S
C1678 H1668 0.930 . S
C1678 C1676 1.419 . S
C1678 C1679 1.362 . S
C1679 H1669 0.930 . S
C1679 C1672 1.409 . S
C1679 C1678 1.362 . S
H1680 C1686 0.930 . S
H1681 C1689 0.930 . S
H1682 C1690 0.930 . S
H1683 C1691 0.930 . S
H1684 C1694 0.930 . S
H1685 C1695 0.930 . S
C1686 H1680 0.930 . S
C1686 C1687 1.355 . S
C1686 C1688 1.415 . S
C1687 C1686 1.355 . S
C1687 C1689 1.419 . S
C1688 C1686 1.415 . S
C1688 C1693 1.425 . S
C1688 C1695 1.409 . S
C1689 H1681 0.930 . S
C1689 C1687 1.419 . S
C1689 C1690 1.362 . S
C1690 H1682 0.930 . S
C1690 C1689 1.362 . S
C1690 C1693 1.409 . S
C1691 H1683 0.930 . S
C1691 C1692 1.355 . S
C1691 C1693 1.415 . S
C1692 C1691 1.355 . S
C1692 C1694 1.419 . S
C1693 C1688 1.425 . S
C1693 C1690 1.409 . S
C1693 C1691 1.415 . S
C1694 H1684 0.930 . S
C1694 C1692 1.419 . S
C1694 C1695 1.362 . S
C1695 H1685 0.930 . S
C1695 C1688 1.409 . S
C1695 C1694 1.362 . S
H1696 C1702 0.930 . S
H1697 C1705 0.930 . S
H1698 C1706 0.930 . S
H1699 C1707 0.930 . S
H1700 C1710 0.930 . S
H1701 C1711 0.930 . S
C1702 H1696 0.930 . S
C1702 C1703 1.355 . S
C1702 C1704 1.415 . S
C1703 C1702 1.355 . S
C1703 C1705 1.419 . S
C1704 C1702 1.415 . S
C1704 C1709 1.425 . S
C1704 C1711 1.409 . S
C1705 H1697 0.930 . S
C1705 C1703 1.419 . S
C1705 C1706 1.362 . S
C1706 H1698 0.930 . S
C1706 C1705 1.362 . S
C1706 C1709 1.409 . S
C1707 H1699 0.930 . S
C1707 C1708 1.355 . S
C1707 C1709 1.415 . S
C1708 C1707 1.355 . S
C1708 C1710 1.419 . S
C1709 C1704 1.425 . S
C1709 C1706 1.409 . S
C1709 C1707 1.415 . S
C1710 H1700 0.930 . S
C1710 C1708 1.419 . S
C1710 C1711 1.362 . S
C1711 H1701 0.930 . S
C1711 C1704 1.409 . S
C1711 C1710 1.362 . S
H1712 C1718 0.930 . S
H1713 C1721 0.930 . S
H1714 C1722 0.930 . S
H1715 C1723 0.930 . S
H1716 C1726 0.930 . S
H1717 C1727 0.930 . S
C1718 H1712 0.930 . S
C1718 C1719 1.355 . S
C1718 C1720 1.415 . S
C1719 C1718 1.355 . S
C1719 C1721 1.419 . S
C1720 C1718 1.415 . S
C1720 C1725 1.425 . S
C1720 C1727 1.409 . S
C1721 H1713 0.930 . S
C1721 C1719 1.419 . S
C1721 C1722 1.362 . S
C1722 H1714 0.930 . S
C1722 C1721 1.362 . S
C1722 C1725 1.409 . S
C1723 H1715 0.930 . S
C1723 C1724 1.355 . S
C1723 C1725 1.415 . S
C1724 C1723 1.355 . S
C1724 C1726 1.419 . S
C1725 C1720 1.425 . S
C1725 C1722 1.409 . S
C1725 C1723 1.415 . S
C1726 H1716 0.930 . S
C1726 C1724 1.419 . S
C1726 C1727 1.362 . S
C1727 H1717 0.930 . S
C1727 C1720 1.409 . S
C1727 C1726 1.362 . S
H1728 C1734 0.930 . S
H1729 C1737 0.930 . S
H1730 C1738 0.930 . S
H1731 C1739 0.930 . S
H1732 C1742 0.930 . S
H1733 C1743 0.930 . S
C1734 H1728 0.930 . S
C1734 C1735 1.355 . S
C1734 C1736 1.415 . S
C1735 C1734 1.355 . S
C1735 C1737 1.419 . S
C1736 C1734 1.415 . S
C1736 C1741 1.425 . S
C1736 C1743 1.409 . S
C1737 H1729 0.930 . S
C1737 C1735 1.419 . S
C1737 C1738 1.362 . S
C1738 H1730 0.930 . S
C1738 C1737 1.362 . S
C1738 C1741 1.409 . S
C1739 H1731 0.930 . S
C1739 C1740 1.355 . S
C1739 C1741 1.415 . S
C1740 C1739 1.355 . S
C1740 C1742 1.419 . S
C1741 C1736 1.425 . S
C1741 C1738 1.409 . S
C1741 C1739 1.415 . S
C1742 H1732 0.930 . S
C1742 C1740 1.419 . S
C1742 C1743 1.362 . S
C1743 H1733 0.930 . S
C1743 C1736 1.409 . S
C1743 C1742 1.362 . S
H1744 C1750 0.930 . S
H1745 C1753 0.930 . S
H1746 C1754 0.930 . S
H1747 C1755 0.930 . S
H1748 C1758 0.930 . S
H1749 C1759 0.930 . S
C1750 H1744 0.930 . S
C1750 C1751 1.355 . S
C1750 C1752 1.415 . S
C1751 C1750 1.355 . S
C1751 C1753 1.419 . S
C1752 C1750 1.415 . S
C1752 C1757 1.425 . S
C1752 C1759 1.409 . S
C1753 H1745 0.930 . S
C1753 C1751 1.419 . S
C1753 C1754 1.362 . S
C1754 H1746 0.930 . S
C1754 C1753 1.362 . S
C1754 C1757 1.409 . S
C1755 H1747 0.930 . S
C1755 C1756 1.355 . S
C1755 C1757 1.415 . S
C1756 C1755 1.355 . S
C1756 C1758 1.419 . S
C1757 C1752 1.425 . S
C1757 C1754 1.409 . S
C1757 C1755 1.415 . S
C1758 H1748 0.930 . S
C1758 C1756 1.419 . S
C1758 C1759 1.362 . S
C1759 H1749 0.930 . S
C1759 C1752 1.409 . S
C1759 C1758 1.362 . S
H1760 C1766 0.930 . S
H1761 C1769 0.930 . S
H1762 C1770 0.930 . S
H1763 C1771 0.930 . S
H1764 C1774 0.930 . S
H1765 C1775 0.930 . S
C1766 H1760 0.930 . S
C1766 C1767 1.355 . S
C1766 C1768 1.415 . S
C1767 C1766 1.355 . S
C1767 C1769 1.419 . S
C1768 C1766 1.415 . S
C1768 C1773 1.425 . S
C1768 C1775 1.409 . S
C1769 H1761 0.930 . S
C1769 C1767 1.419 . S
C1769 C1770 1.362 . S
C1770 H1762 0.930 . S
C1770 C1769 1.362 . S
C1770 C1773 1.409 . S
C1771 H1763 0.930 . S
C1771 C1772 1.355 . S
C1771 C1773 1.415 . S
C1772 C1771 1.355 . S
C1772 C1774 1.419 . S
C1773 C1768 1.425 . S
C1773 C1770 1.409 . S
C1773 C1771 1.415 . S
C1774 H1764 0.930 . S
C1774 C1772 1.419 . S
C1774 C1775 1.362 . S
C1775 H1765 0.930 . S
C1775 C1768 1.409 . S
C1775 C1774 1.362 . S
H1776 C1782 0.930 . S
H1777 C1785 0.930 . S
H1778 C1786 0.930 . S
H1779 C1787 0.930 . S
H1780 C1790 0.930 . S
H1781 C1791 0.930 . S
C1782 H1776 0.930 . S
C1782 C1783 1.355 . S
C1782 C1784 1.415 . S
C1783 C1782 1.355 . S
C1783 C1785 1.419 . S
C1784 C1782 1.415 . S
C1784 C1789 1.425 . S
C1784 C1791 1.409 . S
C1785 H1777 0.930 . S
C1785 C1783 1.419 . S
C1785 C1786 1.362 . S
C1786 H1778 0.930 . S
C1786 C1785 1.362 . S
C1786 C1789 1.409 . S
C1787 H1779 0.930 . S
C1787 C1788 1.355 . S
C1787 C1789 1.415 . S
C1788 C1787 1.355 . S
C1788 C1790 1.419 . S
C1789 C1784 1.425 . S
C1789 C1786 1.409 . S
C1789 C1787 1.415 . S
C1790 H1780 0.930 . S
C1790 C1788 1.419 . S
C1790 C1791 1.362 . S
C1791 H1781 0.930 . S
C1791 C1784 1.409 . S
C1791 C1790 1.362 . S
H1792 C1798 0.930 . S
H1793 C1801 0.930 . S
H1794 C1802 0.930 . S
H1795 C1803 0.930 . S
H1796 C1806 0.930 . S
H1797 C1807 0.930 . S
C1798 H1792 0.930 . S
C1798 C1799 1.355 . S
C1798 C1800 1.415 . S
C1799 C1798 1.355 . S
C1799 C1801 1.419 . S
C1800 C1798 1.415 . S
C1800 C1805 1.425 . S
C1800 C1807 1.409 . S
C1801 H1793 0.930 . S
C1801 C1799 1.419 . S
C1801 C1802 1.362 . S
C1802 H1794 0.930 . S
C1802 C1801 1.362 . S
C1802 C1805 1.409 . S
C1803 H1795 0.930 . S
C1803 C1804 1.355 . S
C1803 C1805 1.415 . S
C1804 C1803 1.355 . S
C1804 C1806 1.419 . S
C1805 C1800 1.425 . S
C1805 C1802 1.409 . S
C1805 C1803 1.415 . S
C1806 H1796 0.930 . S
C1806 C1804 1.419 . S
C1806 C1807 1.362 . S
C1807 H1797 0.930 . S
C1807 C1800 1.409 . S
C1807 C1806 1.362 . S
H1808 C1814 0.930 . S
H1809 C1817 0.930 . S
H1810 C1818 0.930 . S
H1811 C1819 0.930 . S
H1812 C1822 0.930 . S
H1813 C1823 0.930 . S
C1814 H1808 0.930 . S
C1814 C1815 1.355 . S
C1814 C1816 1.415 . S
C1815 C1814 1.355 . S
C1815 C1817 1.419 . S
C1816 C1814 1.415 . S
C1816 C1821 1.425 . S
C1816 C1823 1.409 . S
C1817 H1809 0.930 . S
C1817 C1815 1.419 . S
C1817 C1818 1.362 . S
C1818 H1810 0.930 . S
C1818 C1817 1.362 . S
C1818 C1821 1.409 . S
C1819 H1811 0.930 . S
C1819 C1820 1.355 . S
C1819 C1821 1.415 . S
C1820 C1819 1.355 . S
C1820 C1822 1.419 . S
C1821 C1816 1.425 . S
C1821 C1818 1.409 . S
C1821 C1819 1.415 . S
C1822 H1812 0.930 . S
C1822 C1820 1.419 . S
C1822 C1823 1.362 . S
C1823 H1813 0.930 . S
C1823 C1816 1.409 . S
C1823 C1822 1.362 . S
H1824 C1830 0.930 . S
H1825 C1833 0.930 . S
H1826 C1834 0.930 . S
H1827 C1835 0.930 . S
H1828 C1838 0.930 . S
H1829 C1839 0.930 . S
C1830 H1824 0.930 . S
C1830 C1831 1.355 . S
C1830 C1832 1.415 . S
C1831 C1830 1.355 . S
C1831 C1833 1.419 . S
C1832 C1830 1.415 . S
C1832 C1837 1.425 . S
C1832 C1839 1.409 . S
C1833 H1825 0.930 . S
C1833 C1831 1.419 . S
C1833 C1834 1.362 . S
C1834 H1826 0.930 . S
C1834 C1833 1.362 . S
C1834 C1837 1.409 . S
C1835 H1827 0.930 . S
C1835 C1836 1.355 . S
C1835 C1837 1.415 . S
C1836 C1835 1.355 . S
C1836 C1838 1.419 . S
C1837 C1832 1.425 . S
C1837 C1834 1.409 . S
C1837 C1835 1.415 . S
C1838 H1828 0.930 . S
C1838 C1836 1.419 . S
C1838 C1839 1.362 . S
C1839 H1829 0.930 . S
C1839 C1832 1.409 . S
C1839 C1838 1.362 . S
H1840 C1846 0.930 . S
H1841 C1849 0.930 . S
H1842 C1850 0.930 . S
H1843 C1851 0.930 . S
H1844 C1854 0.930 . S
H1845 C1855 0.930 . S
C1846 H1840 0.930 . S
C1846 C1847 1.355 . S
C1846 C1848 1.415 . S
C1847 C1846 1.355 . S
C1847 C1849 1.419 . S
C1848 C1846 1.415 . S
C1848 C1853 1.425 . S
C1848 C1855 1.409 . S
C1849 H1841 0.930 . S
C1849 C1847 1.419 . S
C1849 C1850 1.362 . S
C1850 H1842 0.930 . S
C1850 C1849 1.362 . S
C1850 C1853 1.409 . S
C1851 H1843 0.930 . S
C1851 C1852 1.355 . S
C1851 C1853 1.415 . S
C1852 C1851 1.355 . S
C1852 C1854 1.419 . S
C1853 C1848 1.425 . S
C1853 C1850 1.409 . S
C1853 C1851 1.415 . S
C1854 H1844 0.930 . S
C1854 C1852 1.419 . S
C1854 C1855 1.362 . S
C1855 H1845 0.930 . S
C1855 C1848 1.409 . S
C1855 C1854 1.362 . S
H1856 C1862 0.930 . S
H1857 C1865 0.930 1_455 S
H1858 C1866 0.930 . S
H1859 C1867 0.930 . S
H1860 C1870 0.930 . S
H1861 C1871 0.930 . S
C1862 H1856 0.930 . S
C1862 C1863 1.355 . S
C1862 C1864 1.415 . S
C1863 C1862 1.355 . S
C1863 C1865 1.419 . S
C1864 C1862 1.415 . S
C1864 C1869 1.425 . S
C1864 C1871 1.409 . S
C1865 H1857 0.930 1_655 S
C1865 C1863 1.419 . S
C1865 C1866 1.362 . S
C1866 H1858 0.930 . S
C1866 C1865 1.362 . S
C1866 C1869 1.409 . S
C1867 H1859 0.930 . S
C1867 C1868 1.355 . S
C1867 C1869 1.415 . S
C1868 C1867 1.355 . S
C1868 C1870 1.419 . S
C1869 C1864 1.425 . S
C1869 C1866 1.409 . S
C1869 C1867 1.415 . S
C1870 H1860 0.930 . S
C1870 C1868 1.419 . S
C1870 C1871 1.362 . S
C1871 H1861 0.930 . S
C1871 C1864 1.409 . S
C1871 C1870 1.362 . S
H1872 C1878 0.930 . S
H1873 C1881 0.930 . S
H1874 C1882 0.930 . S
H1875 C1883 0.930 . S
H1876 C1886 0.930 . S
H1877 C1887 0.930 . S
C1878 H1872 0.930 . S
C1878 C1879 1.355 . S
C1878 C1880 1.415 . S
C1879 C1878 1.355 . S
C1879 C1881 1.419 . S
C1880 C1878 1.415 . S
C1880 C1885 1.425 . S
C1880 C1887 1.409 . S
C1881 H1873 0.930 . S
C1881 C1879 1.419 . S
C1881 C1882 1.362 . S
C1882 H1874 0.930 . S
C1882 C1881 1.362 . S
C1882 C1885 1.409 . S
C1883 H1875 0.930 . S
C1883 C1884 1.355 . S
C1883 C1885 1.415 . S
C1884 C1883 1.355 . S
C1884 C1886 1.419 . S
C1885 C1880 1.425 . S
C1885 C1882 1.409 . S
C1885 C1883 1.415 . S
C1886 H1876 0.930 . S
C1886 C1884 1.419 . S
C1886 C1887 1.362 . S
C1887 H1877 0.930 . S
C1887 C1880 1.409 . S
C1887 C1886 1.362 . S
H1888 C1894 0.930 . S
H1889 C1897 0.930 . S
H1890 C1898 0.930 . S
H1891 C1899 0.930 . S
H1892 C1902 0.930 . S
H1893 C1903 0.930 . S
C1894 H1888 0.930 . S
C1894 C1895 1.355 . S
C1894 C1896 1.415 . S
C1895 C1894 1.355 . S
C1895 C1897 1.419 . S
C1896 C1894 1.415 . S
C1896 C1901 1.425 . S
C1896 C1903 1.409 . S
C1897 H1889 0.930 . S
C1897 C1895 1.419 . S
C1897 C1898 1.362 . S
C1898 H1890 0.930 . S
C1898 C1897 1.362 . S
C1898 C1901 1.409 . S
C1899 H1891 0.930 . S
C1899 C1900 1.355 . S
C1899 C1901 1.415 . S
C1900 C1899 1.355 . S
C1900 C1902 1.419 . S
C1901 C1896 1.425 . S
C1901 C1898 1.409 . S
C1901 C1899 1.415 . S
C1902 H1892 0.930 . S
C1902 C1900 1.419 . S
C1902 C1903 1.362 . S
C1903 H1893 0.930 . S
C1903 C1896 1.409 . S
C1903 C1902 1.362 . S
H1904 C1910 0.930 . S
H1905 C1913 0.930 1_545 S
H1906 C1914 0.930 . S
H1907 C1915 0.930 . S
H1908 C1918 0.930 . S
H1909 C1919 0.930 . S
C1910 H1904 0.930 . S
C1910 C1911 1.355 . S
C1910 C1912 1.415 . S
C1911 C1910 1.355 . S
C1911 C1913 1.419 . S
C1912 C1910 1.415 . S
C1912 C1917 1.425 . S
C1912 C1919 1.409 . S
C1913 H1905 0.930 1_565 S
C1913 C1911 1.419 . S
C1913 C1914 1.362 . S
C1914 H1906 0.930 . S
C1914 C1913 1.362 . S
C1914 C1917 1.409 . S
C1915 H1907 0.930 . S
C1915 C1916 1.355 . S
C1915 C1917 1.415 . S
C1916 C1915 1.355 . S
C1916 C1918 1.419 . S
C1917 C1912 1.425 . S
C1917 C1914 1.409 . S
C1917 C1915 1.415 . S
C1918 H1908 0.930 . S
C1918 C1916 1.419 . S
C1918 C1919 1.362 . S
C1919 H1909 0.930 . S
C1919 C1912 1.409 . S
C1919 C1918 1.362 . S
H1920 C1926 0.930 . S
H1921 C1929 0.930 . S
H1922 C1930 0.930 . S
H1923 C1931 0.930 . S
H1924 C1934 0.930 . S
H1925 C1935 0.930 . S
C1926 H1920 0.930 . S
C1926 C1927 1.355 . S
C1926 C1928 1.415 . S
C1927 C1926 1.355 . S
C1927 C1929 1.419 . S
C1928 C1926 1.415 . S
C1928 C1933 1.425 . S
C1928 C1935 1.409 . S
C1929 H1921 0.930 . S
C1929 C1927 1.419 . S
C1929 C1930 1.362 . S
C1930 H1922 0.930 . S
C1930 C1929 1.362 . S
C1930 C1933 1.409 . S
C1931 H1923 0.930 . S
C1931 C1932 1.355 . S
C1931 C1933 1.415 . S
C1932 C1931 1.355 . S
C1932 C1934 1.419 . S
C1933 C1928 1.425 . S
C1933 C1930 1.409 . S
C1933 C1931 1.415 . S
C1934 H1924 0.930 . S
C1934 C1932 1.419 . S
C1934 C1935 1.362 . S
C1935 H1925 0.930 . S
C1935 C1928 1.409 . S
C1935 C1934 1.362 . S
H1936 C1942 0.930 . S
H1937 C1945 0.930 . S
H1938 C1946 0.930 . S
H1939 C1947 0.930 . S
H1940 C1950 0.930 . S
H1941 C1951 0.930 . S
C1942 H1936 0.930 . S
C1942 C1943 1.355 . S
C1942 C1944 1.415 . S
C1943 C1942 1.355 . S
C1943 C1945 1.419 . S
C1944 C1942 1.415 . S
C1944 C1949 1.425 . S
C1944 C1951 1.409 . S
C1945 H1937 0.930 . S
C1945 C1943 1.419 . S
C1945 C1946 1.362 . S
C1946 H1938 0.930 . S
C1946 C1945 1.362 . S
C1946 C1949 1.409 . S
C1947 H1939 0.930 . S
C1947 C1948 1.355 . S
C1947 C1949 1.415 . S
C1948 C1947 1.355 . S
C1948 C1950 1.419 . S
C1949 C1944 1.425 . S
C1949 C1946 1.409 . S
C1949 C1947 1.415 . S
C1950 H1940 0.930 . S
C1950 C1948 1.419 . S
C1950 C1951 1.362 . S
C1951 H1941 0.930 . S
C1951 C1944 1.409 . S
C1951 C1950 1.362 . S
H1952 C1958 0.930 . S
H1953 C1961 0.930 . S
H1954 C1962 0.930 . S
H1955 C1963 0.930 . S
H1956 C1966 0.930 . S
H1957 C1967 0.930 . S
C1958 H1952 0.930 . S
C1958 C1959 1.355 . S
C1958 C1960 1.415 . S
C1959 C1958 1.355 . S
C1959 C1961 1.419 . S
C1960 C1958 1.415 . S
C1960 C1965 1.425 . S
C1960 C1967 1.409 . S
C1961 H1953 0.930 . S
C1961 C1959 1.419 . S
C1961 C1962 1.362 . S
C1962 H1954 0.930 . S
C1962 C1961 1.362 . S
C1962 C1965 1.409 . S
C1963 H1955 0.930 . S
C1963 C1964 1.355 . S
C1963 C1965 1.415 . S
C1964 C1963 1.355 . S
C1964 C1966 1.419 . S
C1965 C1960 1.425 . S
C1965 C1962 1.409 . S
C1965 C1963 1.415 . S
C1966 H1956 0.930 . S
C1966 C1964 1.419 . S
C1966 C1967 1.362 . S
C1967 H1957 0.930 . S
C1967 C1960 1.409 . S
C1967 C1966 1.362 . S
H1968 C1974 0.930 . S
H1969 C1977 0.930 . S
H1970 C1978 0.930 . S
H1971 C1979 0.930 . S
H1972 C1982 0.930 . S
H1973 C1983 0.930 . S
C1974 H1968 0.930 . S
C1974 C1975 1.355 . S
C1974 C1976 1.415 . S
C1975 C1974 1.355 . S
C1975 C1977 1.419 . S
C1976 C1974 1.415 . S
C1976 C1981 1.425 . S
C1976 C1983 1.409 . S
C1977 H1969 0.930 . S
C1977 C1975 1.419 . S
C1977 C1978 1.362 . S
C1978 H1970 0.930 . S
C1978 C1977 1.362 . S
C1978 C1981 1.409 . S
C1979 H1971 0.930 . S
C1979 C1980 1.355 . S
C1979 C1981 1.415 . S
C1980 C1979 1.355 . S
C1980 C1982 1.419 . S
C1981 C1976 1.425 . S
C1981 C1978 1.409 . S
C1981 C1979 1.415 . S
C1982 H1972 0.930 . S
C1982 C1980 1.419 . S
C1982 C1983 1.362 . S
C1983 H1973 0.930 . S
C1983 C1976 1.409 . S
C1983 C1982 1.362 . S
H1984 C1990 0.930 . S
H1985 C1993 0.930 . S
H1986 C1994 0.930 . S
H1987 C1995 0.930 . S
H1988 C1998 0.930 . S
H1989 C1999 0.930 . S
C1990 H1984 0.930 . S
C1990 C1991 1.355 . S
C1990 C1992 1.415 . S
C1991 C1990 1.355 . S
C1991 C1993 1.419 . S
C1992 C1990 1.415 . S
C1992 C1997 1.425 . S
C1992 C1999 1.409 . S
C1993 H1985 0.930 . S
C1993 C1991 1.419 . S
C1993 C1994 1.362 . S
C1994 H1986 0.930 . S
C1994 C1993 1.362 . S
C1994 C1997 1.409 . S
C1995 H1987 0.930 . S
C1995 C1996 1.355 . S
C1995 C1997 1.415 . S
C1996 C1995 1.355 . S
C1996 C1998 1.419 . S
C1997 C1992 1.425 . S
C1997 C1994 1.409 . S
C1997 C1995 1.415 . S
C1998 H1988 0.930 . S
C1998 C1996 1.419 . S
C1998 C1999 1.362 . S
C1999 H1989 0.930 . S
C1999 C1992 1.409 . S
C1999 C1998 1.362 . S
H2000 C2006 0.930 . S
H2001 C2009 0.930 . S
H2002 C2010 0.930 . S
H2003 C2011 0.930 . S
H2004 C2014 0.930 . S
H2005 C2015 0.930 . S
C2006 H2000 0.930 . S
C2006 C2007 1.355 . S
C2006 C2008 1.415 . S
C2007 C2006 1.355 . S
C2007 C2009 1.419 . S
C2008 C2006 1.415 . S
C2008 C2013 1.425 . S
C2008 C2015 1.409 . S
C2009 H2001 0.930 . S
C2009 C2007 1.419 . S
C2009 C2010 1.362 . S
C2010 H2002 0.930 . S
C2010 C2009 1.362 . S
C2010 C2013 1.409 . S
C2011 H2003 0.930 . S
C2011 C2012 1.355 . S
C2011 C2013 1.415 . S
C2012 C2011 1.355 . S
C2012 C2014 1.419 . S
C2013 C2008 1.425 . S
C2013 C2010 1.409 . S
C2013 C2011 1.415 . S
C2014 H2004 0.930 . S
C2014 C2012 1.419 . S
C2014 C2015 1.362 . S
C2015 H2005 0.930 . S
C2015 C2008 1.409 . S
C2015 C2014 1.362 . S
H2016 C2022 0.930 . S
H2017 C2025 0.930 . S
H2018 C2026 0.930 . S
H2019 C2027 0.930 . S
H2020 C2030 0.930 1_556 S
H2021 C2031 0.930 . S
C2022 H2016 0.930 . S
C2022 C2023 1.355 . S
C2022 C2024 1.415 . S
C2023 C2022 1.355 . S
C2023 C2025 1.419 . S
C2024 C2022 1.415 . S
C2024 C2029 1.425 . S
C2024 C2031 1.409 . S
C2025 H2017 0.930 . S
C2025 C2023 1.419 . S
C2025 C2026 1.362 . S
C2026 H2018 0.930 . S
C2026 C2025 1.362 . S
C2026 C2029 1.409 . S
C2027 H2019 0.930 . S
C2027 C2028 1.355 . S
C2027 C2029 1.415 . S
C2028 C2027 1.355 . S
C2028 C2030 1.419 . S
C2029 C2024 1.425 . S
C2029 C2026 1.409 . S
C2029 C2027 1.415 . S
C2030 H2020 0.930 1_554 S
C2030 C2028 1.419 . S
C2030 C2031 1.362 . S
C2031 H2021 0.930 . S
C2031 C2024 1.409 . S
C2031 C2030 1.362 . S
H2032 C2038 0.930 . S
H2033 C2041 0.930 . S
H2034 C2042 0.930 . S
H2035 C2043 0.930 . S
H2036 C2046 0.930 . S
H2037 C2047 0.930 . S
C2038 H2032 0.930 . S
C2038 C2039 1.355 . S
C2038 C2040 1.415 . S
C2039 C2038 1.355 . S
C2039 C2041 1.419 . S
C2040 C2038 1.415 . S
C2040 C2045 1.425 . S
C2040 C2047 1.409 . S
C2041 H2033 0.930 . S
C2041 C2039 1.419 . S
C2041 C2042 1.362 . S
C2042 H2034 0.930 . S
C2042 C2041 1.362 . S
C2042 C2045 1.409 . S
C2043 H2035 0.930 . S
C2043 C2044 1.355 . S
C2043 C2045 1.415 . S
C2044 C2043 1.355 . S
C2044 C2046 1.419 . S
C2045 C2040 1.425 . S
C2045 C2042 1.409 . S
C2045 C2043 1.415 . S
C2046 H2036 0.930 . S
C2046 C2044 1.419 . S
C2046 C2047 1.362 . S
C2047 H2037 0.930 . S
C2047 C2040 1.409 . S
C2047 C2046 1.362 . S
H2048 C2054 0.930 . S
H2049 C2057 0.930 . S
H2050 C2058 0.930 . S
H2051 C2059 0.930 . S
H2052 C2062 0.930 . S
H2053 C2063 0.930 . S
C2054 H2048 0.930 . S
C2054 C2055 1.355 . S
C2054 C2056 1.415 . S
C2055 C2054 1.355 . S
C2055 C2057 1.419 . S
C2056 C2054 1.415 . S
C2056 C2061 1.425 . S
C2056 C2063 1.409 . S
C2057 H2049 0.930 . S
C2057 C2055 1.419 . S
C2057 C2058 1.362 . S
C2058 H2050 0.930 . S
C2058 C2057 1.362 . S
C2058 C2061 1.409 . S
C2059 H2051 0.930 . S
C2059 C2060 1.355 . S
C2059 C2061 1.415 . S
C2060 C2059 1.355 . S
C2060 C2062 1.419 . S
C2061 C2056 1.425 . S
C2061 C2058 1.409 . S
C2061 C2059 1.415 . S
C2062 H2052 0.930 . S
C2062 C2060 1.419 . S
C2062 C2063 1.362 . S
C2063 H2053 0.930 . S
C2063 C2056 1.409 . S
C2063 C2062 1.362 . S
H2064 C2070 0.930 . S
H2065 C2073 0.930 . S
H2066 C2074 0.930 . S
H2067 C2075 0.930 . S
H2068 C2078 0.930 . S
H2069 C2079 0.930 . S
C2070 H2064 0.930 . S
C2070 C2071 1.355 . S
C2070 C2072 1.415 . S
C2071 C2070 1.355 . S
C2071 C2073 1.419 . S
C2072 C2070 1.415 . S
C2072 C2077 1.425 . S
C2072 C2079 1.409 . S
C2073 H2065 0.930 . S
C2073 C2071 1.419 . S
C2073 C2074 1.362 . S
C2074 H2066 0.930 . S
C2074 C2073 1.362 . S
C2074 C2077 1.409 . S
C2075 H2067 0.930 . S
C2075 C2076 1.355 . S
C2075 C2077 1.415 . S
C2076 C2075 1.355 . S
C2076 C2078 1.419 . S
C2077 C2072 1.425 . S
C2077 C2074 1.409 . S
C2077 C2075 1.415 . S
C2078 H2068 0.930 . S
C2078 C2076 1.419 . S
C2078 C2079 1.362 . S
C2079 H2069 0.930 . S
C2079 C2072 1.409 . S
C2079 C2078 1.362 . S
H2080 C2086 0.930 . S
H2081 C2089 0.930 . S
H2082 C2090 0.930 . S
H2083 C2091 0.930 . S
H2084 C2094 0.930 . S
H2085 C2095 0.930 . S
C2086 H2080 0.930 . S
C2086 C2087 1.355 . S
C2086 C2088 1.415 . S
C2087 C2086 1.355 . S
C2087 C2089 1.419 . S
C2088 C2086 1.415 . S
C2088 C2093 1.425 . S
C2088 C2095 1.409 . S
C2089 H2081 0.930 . S
C2089 C2087 1.419 . S
C2089 C2090 1.362 . S
C2090 H2082 0.930 . S
C2090 C2089 1.362 . S
C2090 C2093 1.409 . S
C2091 H2083 0.930 . S
C2091 C2092 1.355 . S
C2091 C2093 1.415 . S
C2092 C2091 1.355 . S
C2092 C2094 1.419 . S
C2093 C2088 1.425 . S
C2093 C2090 1.409 . S
C2093 C2091 1.415 . S
C2094 H2084 0.930 . S
C2094 C2092 1.419 . S
C2094 C2095 1.362 . S
C2095 H2085 0.930 . S
C2095 C2088 1.409 . S
C2095 C2094 1.362 . S
H2096 C2102 0.930 . S
H2097 C2105 0.930 . S
H2098 C2106 0.930 . S
H2099 C2107 0.930 . S
H2100 C2110 0.930 . S
H2101 C2111 0.930 . S
C2102 H2096 0.930 . S
C2102 C2103 1.355 . S
C2102 C2104 1.415 . S
C2103 C2102 1.355 . S
C2103 C2105 1.419 . S
C2104 C2102 1.415 . S
C2104 C2109 1.425 . S
C2104 C2111 1.409 . S
C2105 H2097 0.930 . S
C2105 C2103 1.419 . S
C2105 C2106 1.362 . S
C2106 H2098 0.930 . S
C2106 C2105 1.362 . S
C2106 C2109 1.409 . S
C2107 H2099 0.930 . S
C2107 C2108 1.355 . S
C2107 C2109 1.415 . S
C2108 C2107 1.355 . S
C2108 C2110 1.419 . S
C2109 C2104 1.425 . S
C2109 C2106 1.409 . S
C2109 C2107 1.415 . S
C2110 H2100 0.930 . S
C2110 C2108 1.419 . S
C2110 C2111 1.362 . S
C2111 H2101 0.930 . S
C2111 C2104 1.409 . S
C2111 C2110 1.362 . S
H2112 C2118 0.930 . S
H2113 C2121 0.930 . S
H2114 C2122 0.930 . S
H2115 C2123 0.930 . S
H2116 C2126 0.930 . S
H2117 C2127 0.930 . S
C2118 H2112 0.930 . S
C2118 C2119 1.355 . S
C2118 C2120 1.415 . S
C2119 C2118 1.355 . S
C2119 C2121 1.419 . S
C2120 C2118 1.415 . S
C2120 C2125 1.425 . S
C2120 C2127 1.409 . S
C2121 H2113 0.930 . S
C2121 C2119 1.419 . S
C2121 C2122 1.362 . S
C2122 H2114 0.930 . S
C2122 C2121 1.362 . S
C2122 C2125 1.409 . S
C2123 H2115 0.930 . S
C2123 C2124 1.355 . S
C2123 C2125 1.415 . S
C2124 C2123 1.355 . S
C2124 C2126 1.419 . S
C2125 C2120 1.425 . S
C2125 C2122 1.409 . S
C2125 C2123 1.415 . S
C2126 H2116 0.930 . S
C2126 C2124 1.419 . S
C2126 C2127 1.362 . S
C2127 H2117 0.930 . S
C2127 C2120 1.409 . S
C2127 C2126 1.362 . S
H2128 C2134 0.930 . S
H2129 C2137 0.930 . S
H2130 C2138 0.930 . S
H2131 C2139 0.930 . S
H2132 C2142 0.930 . S
H2133 C2143 0.930 . S
C2134 H2128 0.930 . S
C2134 C2135 1.355 . S
C2134 C2136 1.415 . S
C2135 C2134 1.355 . S
C2135 C2137 1.419 . S
C2136 C2134 1.415 . S
C2136 C2141 1.425 . S
C2136 C2143 1.409 . S
C2137 H2129 0.930 . S
C2137 C2135 1.419 . S
C2137 C2138 1.362 . S
C2138 H2130 0.930 . S
C2138 C2137 1.362 . S
C2138 C2141 1.409 . S
C2139 H2131 0.930 . S
C2139 C2140 1.355 . S
C2139 C2141 1.415 . S
C2140 C2139 1.355 . S
C2140 C2142 1.419 . S
C2141 C2136 1.425 . S
C2141 C2138 1.409 . S
C2141 C2139 1.415 . S
C2142 H2132 0.930 . S
C2142 C2140 1.419 . S
C2142 C2143 1.362 . S
C2143 H2133 0.930 . S
C2143 C2136 1.409 . S
C2143 C2142 1.362 . S
H2144 C2150 0.930 . S
H2145 C2153 0.930 . S
H2146 C2154 0.930 . S
H2147 C2155 0.930 . S
H2148 C2158 0.954 . S
H2149 C2159 0.930 . S
C2150 H2144 0.930 . S
C2150 C2151 1.355 . S
C2150 C2152 1.415 . S
C2151 C2150 1.355 . S
C2151 C2153 1.419 . S
C2152 C2150 1.415 . S
C2152 C2157 1.425 . S
C2152 C2159 1.409 . S
C2153 H2145 0.930 . S
C2153 C2151 1.419 . S
C2153 C2154 1.362 . S
C2154 H2146 0.930 . S
C2154 C2153 1.362 . S
C2154 C2157 1.409 . S
C2155 H2147 0.930 . S
C2155 C2156 1.355 . S
C2155 C2157 1.415 . S
C2156 C2155 1.355 . S
C2156 C2158 1.419 . S
C2157 C2152 1.425 . S
C2157 C2154 1.409 . S
C2157 C2155 1.415 . S
C2158 H2148 0.954 . S
C2158 C2156 1.419 . S
C2158 C2159 1.362 . S
C2159 H2149 0.930 . S
C2159 C2152 1.409 . S
C2159 C2158 1.362 . S
H2160 C2166 0.930 . S
H2161 C2169 0.930 . S
H2162 C2170 0.930 . S
H2163 C2171 0.930 . S
H2164 C2174 0.930 . S
H2165 C2175 0.930 . S
C2166 H2160 0.930 . S
C2166 C2167 1.355 . S
C2166 C2168 1.415 . S
C2167 C2166 1.355 . S
C2167 C2169 1.419 . S
C2168 C2166 1.415 . S
C2168 C2173 1.425 . S
C2168 C2175 1.409 . S
C2169 H2161 0.930 . S
C2169 C2167 1.419 . S
C2169 C2170 1.362 . S
C2170 H2162 0.930 . S
C2170 C2169 1.362 . S
C2170 C2173 1.409 . S
C2171 H2163 0.930 . S
C2171 C2172 1.355 . S
C2171 C2173 1.415 . S
C2172 C2171 1.355 . S
C2172 C2174 1.419 . S
C2173 C2168 1.425 . S
C2173 C2170 1.409 . S
C2173 C2171 1.415 . S
C2174 H2164 0.930 . S
C2174 C2172 1.419 . S
C2174 C2175 1.362 . S
C2175 H2165 0.930 . S
C2175 C2168 1.409 . S
C2175 C2174 1.362 . S
H2176 C2182 0.930 . S
H2177 C2185 0.930 . S
H2178 C2186 0.930 . S
H2179 C2187 0.930 . S
H2180 C2190 0.930 . S
H2181 C2191 0.930 . S
C2182 H2176 0.930 . S
C2182 C2183 1.355 . S
C2182 C2184 1.415 . S
C2183 C2182 1.355 . S
C2183 C2185 1.419 . S
C2184 C2182 1.415 . S
C2184 C2189 1.425 . S
C2184 C2191 1.409 . S
C2185 H2177 0.930 . S
C2185 C2183 1.419 . S
C2185 C2186 1.362 . S
C2186 H2178 0.930 . S
C2186 C2185 1.362 . S
C2186 C2189 1.409 . S
C2187 H2179 0.930 . S
C2187 C2188 1.355 . S
C2187 C2189 1.415 . S
C2188 C2187 1.355 . S
C2188 C2190 1.419 . S
C2189 C2184 1.425 . S
C2189 C2186 1.409 . S
C2189 C2187 1.415 . S
C2190 H2180 0.930 . S
C2190 C2188 1.419 . S
C2190 C2191 1.362 . S
C2191 H2181 0.930 . S
C2191 C2184 1.409 . S
C2191 C2190 1.362 . S
H2192 C2198 0.930 . S
H2193 C2201 0.930 . S
H2194 C2202 0.930 . S
H2195 C2203 0.930 . S
H2196 C2206 0.930 . S
H2197 C2207 0.930 . S
C2198 H2192 0.930 . S
C2198 C2199 1.355 . S
C2198 C2200 1.415 . S
C2199 C2198 1.355 . S
C2199 C2201 1.419 . S
C2200 C2198 1.415 . S
C2200 C2205 1.425 . S
C2200 C2207 1.409 . S
C2201 H2193 0.930 . S
C2201 C2199 1.419 . S
C2201 C2202 1.362 . S
C2202 H2194 0.930 . S
C2202 C2201 1.362 . S
C2202 C2205 1.409 . S
C2203 H2195 0.930 . S
C2203 C2204 1.355 . S
C2203 C2205 1.415 . S
C2204 C2203 1.355 . S
C2204 C2206 1.419 . S
C2205 C2200 1.425 . S
C2205 C2202 1.409 . S
C2205 C2203 1.415 . S
C2206 H2196 0.930 . S
C2206 C2204 1.419 . S
C2206 C2207 1.362 . S
C2207 H2197 0.930 . S
C2207 C2200 1.409 . S
C2207 C2206 1.362 . S
H2208 C2214 0.930 . S
H2209 C2217 0.930 1_655 S
H2210 C2218 0.930 1_655 S
H2211 C2219 0.930 . S
H2212 C2222 0.930 . S
H2213 C2223 0.930 . S
C2214 H2208 0.930 . S
C2214 C2215 1.355 . S
C2214 C2216 1.415 . S
C2215 C2214 1.355 . S
C2215 C2217 1.419 . S
C2216 C2214 1.415 . S
C2216 C2221 1.425 . S
C2216 C2223 1.409 . S
C2217 H2209 0.930 1_455 S
C2217 C2215 1.419 . S
C2217 C2218 1.362 . S
C2218 H2210 0.930 1_455 S
C2218 C2217 1.362 . S
C2218 C2221 1.409 . S
C2219 H2211 0.930 . S
C2219 C2220 1.355 . S
C2219 C2221 1.415 . S
C2220 C2219 1.355 . S
C2220 C2222 1.419 . S
C2221 C2216 1.425 . S
C2221 C2218 1.409 . S
C2221 C2219 1.415 . S
C2222 H2212 0.930 . S
C2222 C2220 1.419 . S
C2222 C2223 1.362 . S
C2223 H2213 0.930 . S
C2223 C2216 1.409 . S
C2223 C2222 1.362 . S
H2224 C2230 0.930 . S
H2225 C2233 0.930 . S
H2226 C2234 0.930 . S
H2227 C2235 0.930 . S
H2228 C2238 0.930 . S
H2229 C2239 0.930 . S
C2230 H2224 0.930 . S
C2230 C2231 1.355 . S
C2230 C2232 1.415 . S
C2231 C2230 1.355 . S
C2231 C2233 1.419 . S
C2232 C2230 1.415 . S
C2232 C2237 1.425 . S
C2232 C2239 1.409 . S
C2233 H2225 0.930 . S
C2233 C2231 1.419 . S
C2233 C2234 1.362 . S
C2234 H2226 0.930 . S
C2234 C2233 1.362 . S
C2234 C2237 1.409 . S
C2235 H2227 0.930 . S
C2235 C2236 1.355 . S
C2235 C2237 1.415 . S
C2236 C2235 1.355 . S
C2236 C2238 1.419 . S
C2237 C2232 1.425 . S
C2237 C2234 1.409 . S
C2237 C2235 1.415 . S
C2238 H2228 0.930 . S
C2238 C2236 1.419 . S
C2238 C2239 1.362 . S
C2239 H2229 0.930 . S
C2239 C2232 1.409 . S
C2239 C2238 1.362 . S
H2240 C2246 0.930 . S
H2241 C2249 0.930 . S
H2242 C2250 0.930 . S
H2243 C2251 0.930 . S
H2244 C2254 0.930 . S
H2245 C2255 0.930 . S
C2246 H2240 0.930 . S
C2246 C2247 1.355 . S
C2246 C2248 1.415 . S
C2247 C2246 1.355 . S
C2247 C2249 1.419 . S
C2248 C2246 1.415 . S
C2248 C2253 1.425 . S
C2248 C2255 1.409 . S
C2249 H2241 0.930 . S
C2249 C2247 1.419 . S
C2249 C2250 1.362 . S
C2250 H2242 0.930 . S
C2250 C2249 1.362 . S
C2250 C2253 1.409 . S
C2251 H2243 0.930 . S
C2251 C2252 1.355 . S
C2251 C2253 1.415 . S
C2252 C2251 1.355 . S
C2252 C2254 1.419 . S
C2253 C2248 1.425 . S
C2253 C2250 1.409 . S
C2253 C2251 1.415 . S
C2254 H2244 0.930 . S
C2254 C2252 1.419 . S
C2254 C2255 1.362 . S
C2255 H2245 0.930 . S
C2255 C2248 1.409 . S
C2255 C2254 1.362 . S
H2256 C2262 0.930 . S
H2257 C2265 0.930 . S
H2258 C2266 0.930 . S
H2259 C2267 0.930 . S
H2260 C2270 0.930 . S
H2261 C2271 0.930 . S
C2262 H2256 0.930 . S
C2262 C2263 1.355 . S
C2262 C2264 1.415 . S
C2263 C2262 1.355 . S
C2263 C2265 1.419 . S
C2264 C2262 1.415 . S
C2264 C2269 1.425 . S
C2264 C2271 1.409 . S
C2265 H2257 0.930 . S
C2265 C2263 1.419 . S
C2265 C2266 1.362 . S
C2266 H2258 0.930 . S
C2266 C2265 1.362 . S
C2266 C2269 1.409 . S
C2267 H2259 0.930 . S
C2267 C2268 1.355 . S
C2267 C2269 1.415 . S
C2268 C2267 1.355 . S
C2268 C2270 1.419 . S
C2269 C2264 1.425 . S
C2269 C2266 1.409 . S
C2269 C2267 1.415 . S
C2270 H2260 0.930 . S
C2270 C2268 1.419 . S
C2270 C2271 1.362 . S
C2271 H2261 0.930 . S
C2271 C2264 1.409 . S
C2271 C2270 1.362 . S
H2272 C2278 0.930 . S
H2273 C2281 0.930 . S
H2274 C2282 0.930 . S
H2275 C2283 0.930 1_565 S
H2276 C2286 0.930 . S
H2277 C2287 0.930 . S
C2278 H2272 0.930 . S
C2278 C2279 1.355 . S
C2278 C2280 1.415 . S
C2279 C2278 1.355 . S
C2279 C2281 1.419 . S
C2280 C2278 1.415 . S
C2280 C2285 1.425 . S
C2280 C2287 1.409 . S
C2281 H2273 0.930 . S
C2281 C2279 1.419 . S
C2281 C2282 1.362 . S
C2282 H2274 0.930 . S
C2282 C2281 1.362 . S
C2282 C2285 1.409 . S
C2283 H2275 0.930 1_545 S
C2283 C2284 1.355 . S
C2283 C2285 1.415 . S
C2284 C2283 1.355 . S
C2284 C2286 1.419 . S
C2285 C2280 1.425 . S
C2285 C2282 1.409 . S
C2285 C2283 1.415 . S
C2286 H2276 0.930 . S
C2286 C2284 1.419 . S
C2286 C2287 1.362 . S
C2287 H2277 0.930 . S
C2287 C2280 1.409 . S
C2287 C2286 1.362 . S
H2288 C2294 0.930 . S
H2289 C2297 0.930 . S
H2290 C2298 0.930 . S
H2291 C2299 0.930 . S
H2292 C2302 0.930 . S
H2293 C2303 0.930 . S
C2294 H2288 0.930 . S
C2294 C2295 1.355 . S
C2294 C2296 1.415 . S
C2295 C2294 1.355 . S
C2295 C2297 1.419 . S
C2296 C2294 1.415 . S
C2296 C2301 1.425 . S
C2296 C2303 1.409 . S
C2297 H2289 0.930 . S
C2297 C2295 1.419 . S
C2297 C2298 1.362 . S
C2298 H2290 0.930 . S
C2298 C2297 1.362 . S
C2298 C2301 1.409 . S
C2299 H2291 0.930 . S
C2299 C2300 1.355 . S
C2299 C2301 1.415 . S
C2300 C2299 1.355 . S
C2300 C2302 1.419 . S
C2301 C2296 1.425 . S
C2301 C2298 1.409 . S
C2301 C2299 1.415 . S
C2302 H2292 0.930 . S
C2302 C2300 1.419 . S
C2302 C2303 1.362 . S
C2303 H2293 0.930 . S
C2303 C2296 1.409 . S
C2303 C2302 1.362 . S
H2304 C2310 0.930 . S
H2305 C2313 0.930 . S
H2306 C2314 0.930 . S
H2307 C2315 0.930 . S
H2308 C2318 0.930 . S
H2309 C2319 0.930 . S
C2310 H2304 0.930 . S
C2310 C2311 1.355 . S
C2310 C2312 1.415 . S
C2311 C2310 1.355 . S
C2311 C2313 1.419 . S
C2312 C2310 1.415 . S
C2312 C2317 1.425 . S
C2312 C2319 1.409 . S
C2313 H2305 0.930 . S
C2313 C2311 1.419 . S
C2313 C2314 1.362 . S
C2314 H2306 0.930 . S
C2314 C2313 1.362 . S
C2314 C2317 1.409 . S
C2315 H2307 0.930 . S
C2315 C2316 1.355 . S
C2315 C2317 1.415 . S
C2316 C2315 1.355 . S
C2316 C2318 1.419 . S
C2317 C2312 1.425 . S
C2317 C2314 1.409 . S
C2317 C2315 1.415 . S
C2318 H2308 0.930 . S
C2318 C2316 1.419 . S
C2318 C2319 1.362 . S
C2319 H2309 0.930 . S
C2319 C2312 1.409 . S
C2319 C2318 1.362 . S
H2320 C2326 0.930 . S
H2321 C2329 0.930 . S
H2322 C2330 0.930 . S
H2323 C2331 0.930 . S
H2324 C2334 0.930 . S
H2325 C2335 0.930 . S
C2326 H2320 0.930 . S
C2326 C2327 1.355 . S
C2326 C2328 1.415 . S
C2327 C2326 1.355 . S
C2327 C2329 1.419 . S
C2328 C2326 1.415 . S
C2328 C2333 1.425 . S
C2328 C2335 1.409 . S
C2329 H2321 0.930 . S
C2329 C2327 1.419 . S
C2329 C2330 1.362 . S
C2330 H2322 0.930 . S
C2330 C2329 1.362 . S
C2330 C2333 1.409 . S
C2331 H2323 0.930 . S
C2331 C2332 1.355 . S
C2331 C2333 1.415 . S
C2332 C2331 1.355 . S
C2332 C2334 1.419 . S
C2333 C2328 1.425 . S
C2333 C2330 1.409 . S
C2333 C2331 1.415 . S
C2334 H2324 0.930 . S
C2334 C2332 1.419 . S
C2334 C2335 1.362 . S
C2335 H2325 0.930 . S
C2335 C2328 1.409 . S
C2335 C2334 1.362 . S
H2336 C2342 0.930 . S
H2337 C2345 0.930 . S
H2338 C2346 0.930 . S
H2339 C2347 0.930 . S
H2340 C2350 0.930 . S
H2341 C2351 0.930 . S
C2342 H2336 0.930 . S
C2342 C2343 1.355 . S
C2342 C2344 1.415 . S
C2343 C2342 1.355 . S
C2343 C2345 1.419 . S
C2344 C2342 1.415 . S
C2344 C2349 1.425 . S
C2344 C2351 1.409 . S
C2345 H2337 0.930 . S
C2345 C2343 1.419 . S
C2345 C2346 1.362 . S
C2346 H2338 0.930 . S
C2346 C2345 1.362 . S
C2346 C2349 1.409 . S
C2347 H2339 0.930 . S
C2347 C2348 1.355 . S
C2347 C2349 1.415 . S
C2348 C2347 1.355 . S
C2348 C2350 1.419 . S
C2349 C2344 1.425 . S
C2349 C2346 1.409 . S
C2349 C2347 1.415 . S
C2350 H2340 0.930 . S
C2350 C2348 1.419 . S
C2350 C2351 1.362 . S
C2351 H2341 0.930 . S
C2351 C2344 1.409 . S
C2351 C2350 1.362 . S
H2352 C2358 0.930 . S
H2353 C2361 0.930 . S
H2354 C2362 0.930 . S
H2355 C2363 0.930 . S
H2356 C2366 0.930 . S
H2357 C2367 0.930 . S
C2358 H2352 0.930 . S
C2358 C2359 1.355 . S
C2358 C2360 1.415 . S
C2359 C2358 1.355 . S
C2359 C2361 1.419 . S
C2360 C2358 1.415 . S
C2360 C2365 1.425 . S
C2360 C2367 1.409 . S
C2361 H2353 0.930 . S
C2361 C2359 1.419 . S
C2361 C2362 1.362 . S
C2362 H2354 0.930 . S
C2362 C2361 1.362 . S
C2362 C2365 1.409 . S
C2363 H2355 0.930 . S
C2363 C2364 1.355 . S
C2363 C2365 1.415 . S
C2364 C2363 1.355 . S
C2364 C2366 1.419 . S
C2365 C2360 1.425 . S
C2365 C2362 1.409 . S
C2365 C2363 1.415 . S
C2366 H2356 0.930 . S
C2366 C2364 1.419 . S
C2366 C2367 1.362 . S
C2367 H2357 0.930 . S
C2367 C2360 1.409 . S
C2367 C2366 1.362 . S
H2368 C2374 0.930 . S
H2369 C2377 0.930 . S
H2370 C2378 0.930 . S
H2371 C2379 0.930 . S
H2372 C2382 0.930 . S
H2373 C2383 0.930 . S
C2374 H2368 0.930 . S
C2374 C2375 1.355 . S
C2374 C2376 1.415 . S
C2375 C2374 1.355 . S
C2375 C2377 1.419 . S
C2376 C2374 1.415 . S
C2376 C2381 1.425 . S
C2376 C2383 1.409 . S
C2377 H2369 0.930 . S
C2377 C2375 1.419 . S
C2377 C2378 1.362 . S
C2378 H2370 0.930 . S
C2378 C2377 1.362 . S
C2378 C2381 1.409 . S
C2379 H2371 0.930 . S
C2379 C2380 1.355 . S
C2379 C2381 1.415 . S
C2380 C2379 1.355 . S
C2380 C2382 1.419 . S
C2381 C2376 1.425 . S
C2381 C2378 1.409 . S
C2381 C2379 1.415 . S
C2382 H2372 0.930 . S
C2382 C2380 1.419 . S
C2382 C2383 1.362 . S
C2383 H2373 0.930 . S
C2383 C2376 1.409 . S
C2383 C2382 1.362 . S
H2384 C2390 0.930 . S
H2385 C2393 0.930 . S
H2386 C2394 0.930 . S
H2387 C2395 0.930 . S
H2388 C2398 0.930 . S
H2389 C2399 0.930 . S
C2390 H2384 0.930 . S
C2390 C2391 1.355 . S
C2390 C2392 1.415 . S
C2391 C2390 1.355 . S
C2391 C2393 1.419 . S
C2392 C2390 1.415 . S
C2392 C2397 1.425 . S
C2392 C2399 1.409 . S
C2393 H2385 0.930 . S
C2393 C2391 1.419 . S
C2393 C2394 1.362 . S
C2394 H2386 0.930 . S
C2394 C2393 1.362 . S
C2394 C2397 1.409 . S
C2395 H2387 0.930 . S
C2395 C2396 1.355 . S
C2395 C2397 1.415 . S
C2396 C2395 1.355 . S
C2396 C2398 1.419 . S
C2397 C2392 1.425 . S
C2397 C2394 1.409 . S
C2397 C2395 1.415 . S
C2398 H2388 0.930 . S
C2398 C2396 1.419 . S
C2398 C2399 1.362 . S
C2399 H2389 0.930 . S
C2399 C2392 1.409 . S
C2399 C2398 1.362 . S
H2400 C2406 0.930 . S
H2401 C2409 0.930 . S
H2402 C2410 0.930 . S
H2403 C2411 0.930 . S
H2404 C2414 0.930 . S
H2405 C2415 0.930 . S
C2406 H2400 0.930 . S
C2406 C2407 1.355 . S
C2406 C2408 1.415 . S
C2407 C2406 1.355 . S
C2407 C2409 1.419 1_455 S
C2408 C2406 1.415 . S
C2408 C2413 1.425 1_455 S
C2408 C2415 1.409 . S
C2409 H2401 0.930 . S
C2409 C2407 1.419 1_655 S
C2409 C2410 1.362 . S
C2410 H2402 0.930 . S
C2410 C2409 1.362 . S
C2410 C2413 1.409 . S
C2411 H2403 0.930 . S
C2411 C2412 1.355 . S
C2411 C2413 1.415 . S
C2412 C2411 1.355 . S
C2412 C2414 1.419 1_655 S
C2413 C2408 1.425 1_655 S
C2413 C2410 1.409 . S
C2413 C2411 1.415 . S
C2414 H2404 0.930 . S
C2414 C2412 1.419 1_455 S
C2414 C2415 1.362 . S
C2415 H2405 0.930 . S
C2415 C2408 1.409 . S
C2415 C2414 1.362 . S
H2416 C2422 0.930 . S
H2417 C2425 0.930 . S
H2418 C2426 0.930 1_655 S
H2419 C2427 0.930 . S
H2420 C2430 0.930 . S
H2421 C2431 0.930 1_455 S
C2422 H2416 0.930 . S
C2422 C2423 1.355 . S
C2422 C2424 1.415 . S
C2423 C2422 1.355 . S
C2423 C2425 1.419 . S
C2424 C2422 1.415 . S
C2424 C2429 1.425 1_455 S
C2424 C2431 1.409 1_455 S
C2425 H2417 0.930 . S
C2425 C2423 1.419 . S
C2425 C2426 1.362 . S
C2426 H2418 0.930 1_455 S
C2426 C2425 1.362 . S
C2426 C2429 1.409 1_455 S
C2427 H2419 0.930 . S
C2427 C2428 1.355 . S
C2427 C2429 1.415 . S
C2428 C2427 1.355 . S
C2428 C2430 1.419 . S
C2429 C2424 1.425 1_655 S
C2429 C2426 1.409 1_655 S
C2429 C2427 1.415 . S
C2430 H2420 0.930 . S
C2430 C2428 1.419 . S
C2430 C2431 1.362 . S
C2431 H2421 0.930 1_655 S
C2431 C2424 1.409 1_655 S
C2431 C2430 1.362 . S
H2432 C2438 0.930 . S
H2433 C2441 0.930 . S
H2434 C2442 0.930 . S
H2435 C2443 0.930 . S
H2436 C2446 0.930 . S
H2437 C2447 0.930 . S
C2438 H2432 0.930 . S
C2438 C2439 1.355 . S
C2438 C2440 1.415 . S
C2439 C2438 1.355 . S
C2439 C2441 1.419 . S
C2440 C2438 1.415 . S
C2440 C2445 1.425 . S
C2440 C2447 1.409 . S
C2441 H2433 0.930 . S
C2441 C2439 1.419 . S
C2441 C2442 1.362 . S
C2442 H2434 0.930 . S
C2442 C2441 1.362 . S
C2442 C2445 1.409 . S
C2443 H2435 0.930 . S
C2443 C2444 1.355 . S
C2443 C2445 1.415 . S
C2444 C2443 1.355 . S
C2444 C2446 1.419 . S
C2445 C2440 1.425 . S
C2445 C2442 1.409 . S
C2445 C2443 1.415 . S
C2446 H2436 0.930 . S
C2446 C2444 1.419 . S
C2446 C2447 1.362 . S
C2447 H2437 0.930 . S
C2447 C2440 1.409 . S
C2447 C2446 1.362 . S
H2448 C2454 0.930 . S
H2449 C2457 0.930 . S
H2450 C2458 0.930 . S
H2451 C2459 0.930 . S
H2452 C2462 0.930 . S
H2453 C2463 0.930 . S
C2454 H2448 0.930 . S
C2454 C2455 1.355 . S
C2454 C2456 1.415 . S
C2455 C2454 1.355 . S
C2455 C2457 1.419 . S
C2456 C2454 1.415 . S
C2456 C2461 1.425 . S
C2456 C2463 1.409 . S
C2457 H2449 0.930 . S
C2457 C2455 1.419 . S
C2457 C2458 1.362 . S
C2458 H2450 0.930 . S
C2458 C2457 1.362 . S
C2458 C2461 1.409 . S
C2459 H2451 0.930 . S
C2459 C2460 1.355 . S
C2459 C2461 1.415 . S
C2460 C2459 1.355 . S
C2460 C2462 1.419 . S
C2461 C2456 1.425 . S
C2461 C2458 1.409 . S
C2461 C2459 1.415 . S
C2462 H2452 0.930 . S
C2462 C2460 1.419 . S
C2462 C2463 1.362 . S
C2463 H2453 0.930 . S
C2463 C2456 1.409 . S
C2463 C2462 1.362 . S
H2464 C2470 0.930 . S
H2465 C2473 0.930 . S
H2466 C2474 0.930 . S
H2467 C2475 0.930 . S
H2468 C2478 0.930 . S
H2469 C2479 0.930 . S
C2470 H2464 0.930 . S
C2470 C2471 1.355 . S
C2470 C2472 1.415 . S
C2471 C2470 1.355 . S
C2471 C2473 1.419 1_655 S
C2472 C2470 1.415 . S
C2472 C2477 1.425 1_655 S
C2472 C2479 1.409 . S
C2473 H2465 0.930 . S
C2473 C2471 1.419 1_455 S
C2473 C2474 1.362 . S
C2474 H2466 0.930 . S
C2474 C2473 1.362 . S
C2474 C2477 1.409 . S
C2475 H2467 0.930 . S
C2475 C2476 1.355 . S
C2475 C2477 1.415 . S
C2476 C2475 1.355 . S
C2476 C2478 1.419 1_455 S
C2477 C2472 1.425 1_455 S
C2477 C2474 1.409 . S
C2477 C2475 1.415 . S
C2478 H2468 0.930 . S
C2478 C2476 1.419 1_655 S
C2478 C2479 1.362 . S
C2479 H2469 0.930 . S
C2479 C2472 1.409 . S
C2479 C2478 1.362 . S
H2480 C2486 0.930 . S
H2481 C2489 0.930 . S
H2482 C2490 0.930 . S
H2483 C2491 0.930 . S
H2484 C2494 0.930 . S
H2485 C2495 0.930 . S
C2486 H2480 0.930 . S
C2486 C2487 1.355 . S
C2486 C2488 1.415 . S
C2487 C2486 1.355 . S
C2487 C2489 1.419 . S
C2488 C2486 1.415 . S
C2488 C2493 1.425 . S
C2488 C2495 1.409 . S
C2489 H2481 0.930 . S
C2489 C2487 1.419 . S
C2489 C2490 1.362 . S
C2490 H2482 0.930 . S
C2490 C2489 1.362 . S
C2490 C2493 1.409 . S
C2491 H2483 0.930 . S
C2491 C2492 1.355 . S
C2491 C2493 1.415 . S
C2492 C2491 1.355 . S
C2492 C2494 1.419 . S
C2493 C2488 1.425 . S
C2493 C2490 1.409 . S
C2493 C2491 1.415 . S
C2494 H2484 0.930 . S
C2494 C2492 1.419 . S
C2494 C2495 1.362 . S
C2495 H2485 0.930 . S
C2495 C2488 1.409 . S
C2495 C2494 1.362 . S
H2496 C2502 0.930 . S
H2497 C2505 0.930 . S
H2498 C2506 0.930 . S
H2499 C2507 0.930 . S
H2500 C2510 0.930 . S
H2501 C2511 0.930 . S
C2502 H2496 0.930 . S
C2502 C2503 1.355 . S
C2502 C2504 1.415 . S
C2503 C2502 1.355 . S
C2503 C2505 1.419 . S
C2504 C2502 1.415 . S
C2504 C2509 1.425 . S
C2504 C2511 1.409 . S
C2505 H2497 0.930 . S
C2505 C2503 1.419 . S
C2505 C2506 1.362 . S
C2506 H2498 0.930 . S
C2506 C2505 1.362 . S
C2506 C2509 1.409 . S
C2507 H2499 0.930 . S
C2507 C2508 1.355 . S
C2507 C2509 1.415 . S
C2508 C2507 1.355 . S
C2508 C2510 1.419 . S
C2509 C2504 1.425 . S
C2509 C2506 1.409 . S
C2509 C2507 1.415 . S
C2510 H2500 0.930 . S
C2510 C2508 1.419 . S
C2510 C2511 1.362 . S
C2511 H2501 0.930 . S
C2511 C2504 1.409 . S
C2511 C2510 1.362 . S
H2512 C2518 0.930 . S
H2513 C2521 0.930 . S
H2514 C2522 0.930 . S
H2515 C2523 0.930 . S
H2516 C2526 0.930 . S
H2517 C2527 0.930 . S
C2518 H2512 0.930 . S
C2518 C2519 1.355 . S
C2518 C2520 1.415 . S
C2519 C2518 1.355 . S
C2519 C2521 1.419 . S
C2520 C2518 1.415 . S
C2520 C2525 1.425 1_655 S
C2520 C2527 1.409 1_655 S
C2521 H2513 0.930 . S
C2521 C2519 1.419 . S
C2521 C2522 1.362 . S
C2522 H2514 0.930 . S
C2522 C2521 1.362 . S
C2522 C2525 1.409 1_655 S
C2523 H2515 0.930 . S
C2523 C2524 1.355 . S
C2523 C2525 1.415 . S
C2524 C2523 1.355 . S
C2524 C2526 1.419 . S
C2525 C2520 1.425 1_455 S
C2525 C2522 1.409 1_455 S
C2525 C2523 1.415 . S
C2526 H2516 0.930 . S
C2526 C2524 1.419 . S
C2526 C2527 1.362 . S
C2527 H2517 0.930 . S
C2527 C2520 1.409 1_455 S
C2527 C2526 1.362 . S
H2528 C2534 0.930 . S
H2529 C2537 0.930 . S
H2530 C2538 0.930 . S
H2531 C2539 0.930 . S
H2532 C2542 0.930 . S
H2533 C2543 0.930 . S
C2534 H2528 0.930 . S
C2534 C2535 1.355 . S
C2534 C2536 1.415 . S
C2535 C2534 1.355 . S
C2535 C2537 1.419 . S
C2536 C2534 1.415 . S
C2536 C2541 1.425 1_545 S
C2536 C2543 1.409 1_545 S
C2537 H2529 0.930 . S
C2537 C2535 1.419 . S
C2537 C2538 1.362 . S
C2538 H2530 0.930 . S
C2538 C2537 1.362 . S
C2538 C2541 1.409 1_545 S
C2539 H2531 0.930 . S
C2539 C2540 1.355 . S
C2539 C2541 1.415 . S
C2540 C2539 1.355 . S
C2540 C2542 1.419 . S
C2541 C2536 1.425 1_565 S
C2541 C2538 1.409 1_565 S
C2541 C2539 1.415 . S
C2542 H2532 0.930 . S
C2542 C2540 1.419 . S
C2542 C2543 1.362 . S
C2543 H2533 0.930 . S
C2543 C2536 1.409 1_565 S
C2543 C2542 1.362 . S
H2544 C2550 0.930 . S
H2545 C2553 0.930 . S
H2546 C2554 0.930 . S
H2547 C2555 0.930 . S
H2548 C2558 0.930 . S
H2549 C2559 0.930 . S
C2550 H2544 0.930 . S
C2550 C2551 1.355 . S
C2550 C2552 1.415 . S
C2551 C2550 1.355 . S
C2551 C2553 1.419 . S
C2552 C2550 1.415 . S
C2552 C2557 1.425 . S
C2552 C2559 1.409 . S
C2553 H2545 0.930 . S
C2553 C2551 1.419 . S
C2553 C2554 1.362 . S
C2554 H2546 0.930 . S
C2554 C2553 1.362 . S
C2554 C2557 1.409 . S
C2555 H2547 0.930 . S
C2555 C2556 1.355 . S
C2555 C2557 1.415 . S
C2556 C2555 1.355 . S
C2556 C2558 1.419 . S
C2557 C2552 1.425 . S
C2557 C2554 1.409 . S
C2557 C2555 1.415 . S
C2558 H2548 0.930 . S
C2558 C2556 1.419 . S
C2558 C2559 1.362 . S
C2559 H2549 0.930 . S
C2559 C2552 1.409 . S
C2559 C2558 1.362 . S
H2560 C2566 0.930 . S
H2561 C2569 0.930 . S
H2562 C2570 0.930 . S
H2563 C2571 0.930 . S
H2564 C2574 0.930 . S
H2565 C2575 0.930 . S
C2566 H2560 0.930 . S
C2566 C2567 1.355 . S
C2566 C2568 1.415 . S
C2567 C2566 1.355 . S
C2567 C2569 1.419 1_565 S
C2568 C2566 1.415 . S
C2568 C2573 1.425 1_565 S
C2568 C2575 1.409 . S
C2569 H2561 0.930 . S
C2569 C2567 1.419 1_545 S
C2569 C2570 1.362 . S
C2570 H2562 0.930 . S
C2570 C2569 1.362 . S
C2570 C2573 1.409 . S
C2571 H2563 0.930 . S
C2571 C2572 1.355 . S
C2571 C2573 1.415 . S
C2572 C2571 1.355 . S
C2572 C2574 1.419 1_545 S
C2573 C2568 1.425 1_545 S
C2573 C2570 1.409 . S
C2573 C2571 1.415 . S
C2574 H2564 0.930 . S
C2574 C2572 1.419 1_565 S
C2574 C2575 1.362 . S
C2575 H2565 0.930 . S
C2575 C2568 1.409 . S
C2575 C2574 1.362 . S
H2576 C2582 0.930 . S
H2577 C2585 0.930 . S
H2578 C2586 0.930 . S
H2579 C2587 0.930 . S
H2580 C2590 0.930 . S
H2581 C2591 0.930 . S
C2582 H2576 0.930 . S
C2582 C2583 1.355 . S
C2582 C2584 1.415 . S
C2583 C2582 1.355 . S
C2583 C2585 1.419 . S
C2584 C2582 1.415 . S
C2584 C2589 1.425 1_556 S
C2584 C2591 1.409 1_556 S
C2585 H2577 0.930 . S
C2585 C2583 1.419 . S
C2585 C2586 1.362 . S
C2586 H2578 0.930 . S
C2586 C2585 1.362 . S
C2586 C2589 1.409 1_556 S
C2587 H2579 0.930 . S
C2587 C2588 1.355 . S
C2587 C2589 1.415 . S
C2588 C2587 1.355 . S
C2588 C2590 1.419 . S
C2589 C2584 1.425 1_554 S
C2589 C2586 1.409 1_554 S
C2589 C2587 1.415 . S
C2590 H2580 0.930 . S
C2590 C2588 1.419 . S
C2590 C2591 1.362 . S
C2591 H2581 0.930 . S
C2591 C2584 1.409 1_554 S
C2591 C2590 1.362 . S
H2592 C2598 0.930 . S
H2593 C2601 0.930 . S
H2594 C2602 0.930 . S
H2595 C2603 0.930 . S
H2596 C2606 0.930 . S
H2597 C2607 0.930 . S
C2598 H2592 0.930 . S
C2598 C2599 1.355 1_556 S
C2598 C2600 1.415 . S
C2599 C2598 1.355 1_554 S
C2599 C2601 1.419 . S
C2600 C2598 1.415 . S
C2600 C2605 1.425 1_556 S
C2600 C2607 1.409 . S
C2601 H2593 0.930 . S
C2601 C2599 1.419 . S
C2601 C2602 1.362 . S
C2602 H2594 0.930 . S
C2602 C2601 1.362 . S
C2602 C2605 1.409 . S
C2603 H2595 0.930 . S
C2603 C2604 1.355 1_554 S
C2603 C2605 1.415 . S
C2604 C2603 1.355 1_556 S
C2604 C2606 1.419 . S
C2605 C2600 1.425 1_554 S
C2605 C2602 1.409 . S
C2605 C2603 1.415 . S
C2606 H2596 0.930 . S
C2606 C2604 1.419 . S
C2606 C2607 1.362 . S
C2607 H2597 0.930 . S
C2607 C2600 1.409 . S
C2607 C2606 1.362 . S
H2608 C2614 0.930 . S
H2609 C2617 0.930 . S
H2610 C2618 0.930 . S
H2611 C2619 0.930 . S
H2612 C2622 0.930 . S
H2613 C2623 0.930 . S
C2614 H2608 0.930 . S
C2614 C2615 1.355 . S
C2614 C2616 1.415 . S
C2615 C2614 1.355 . S
C2615 C2617 1.419 1_556 S
C2616 C2614 1.415 . S
C2616 C2621 1.425 1_556 S
C2616 C2623 1.409 . S
C2617 H2609 0.930 . S
C2617 C2615 1.419 1_554 S
C2617 C2618 1.362 . S
C2618 H2610 0.930 . S
C2618 C2617 1.362 . S
C2618 C2621 1.409 . S
C2619 H2611 0.930 . S
C2619 C2620 1.355 . S
C2619 C2621 1.415 . S
C2620 C2619 1.355 . S
C2620 C2622 1.419 1_554 S
C2621 C2616 1.425 1_554 S
C2621 C2618 1.409 . S
C2621 C2619 1.415 . S
C2622 H2612 0.930 . S
C2622 C2620 1.419 1_556 S
C2622 C2623 1.362 . S
C2623 H2613 0.930 . S
C2623 C2616 1.409 . S
C2623 C2622 1.362 . S
H2624 C2630 0.930 . S
H2625 C2633 0.930 . S
H2626 C2634 0.930 . S
H2627 C2635 0.930 . S
H2628 C2638 0.930 . S
H2629 C2639 0.930 . S
C2630 H2624 0.930 . S
C2630 C2631 1.355 . S
C2630 C2632 1.415 . S
C2631 C2630 1.355 . S
C2631 C2633 1.419 . S
C2632 C2630 1.415 . S
C2632 C2637 1.425 . S
C2632 C2639 1.409 . S
C2633 H2625 0.930 . S
C2633 C2631 1.419 . S
C2633 C2634 1.362 . S
C2634 H2626 0.930 . S
C2634 C2633 1.362 . S
C2634 C2637 1.409 . S
C2635 H2627 0.930 . S
C2635 C2636 1.355 . S
C2635 C2637 1.415 . S
C2636 C2635 1.355 . S
C2636 C2638 1.419 . S
C2637 C2632 1.425 . S
C2637 C2634 1.409 . S
C2637 C2635 1.415 . S
C2638 H2628 0.930 . S
C2638 C2636 1.419 . S
C2638 C2639 1.362 . S
C2639 H2629 0.930 . S
C2639 C2632 1.409 . S
C2639 C2638 1.362 . S
H2640 C2646 0.930 . S
H2641 C2649 0.930 . S
H2642 C2650 0.930 . S
H2643 C2651 0.930 . S
H2644 C2654 0.930 . S
H2645 C2655 0.930 . S
C2646 H2640 0.930 . S
C2646 C2647 1.355 . S
C2646 C2648 1.415 . S
C2647 C2646 1.355 . S
C2647 C2649 1.419 . S
C2648 C2646 1.415 . S
C2648 C2653 1.425 . S
C2648 C2655 1.409 . S
C2649 H2641 0.930 . S
C2649 C2647 1.419 . S
C2649 C2650 1.362 . S
C2650 H2642 0.930 . S
C2650 C2649 1.362 . S
C2650 C2653 1.409 . S
C2651 H2643 0.930 . S
C2651 C2652 1.355 . S
C2651 C2653 1.415 . S
C2652 C2651 1.355 . S
C2652 C2654 1.419 . S
C2653 C2648 1.425 . S
C2653 C2650 1.409 . S
C2653 C2651 1.415 . S
C2654 H2644 0.930 . S
C2654 C2652 1.419 . S
C2654 C2655 1.362 . S
C2655 H2645 0.930 . S
C2655 C2648 1.409 . S
C2655 C2654 1.362 . S
H2656 C2662 0.930 . S
H2657 C2665 0.930 . S
H2658 C2666 0.930 . S
H2659 C2667 0.930 . S
H2660 C2670 0.930 . S
H2661 C2671 0.930 . S
C2662 H2656 0.930 . S
C2662 C2663 1.355 . S
C2662 C2664 1.415 . S
C2663 C2662 1.355 . S
C2663 C2665 1.419 . S
C2664 C2662 1.415 . S
C2664 C2669 1.425 1_565 S
C2664 C2671 1.409 1_565 S
C2665 H2657 0.930 . S
C2665 C2663 1.419 . S
C2665 C2666 1.362 . S
C2666 H2658 0.930 . S
C2666 C2665 1.362 . S
C2666 C2669 1.409 1_565 S
C2667 H2659 0.930 . S
C2667 C2668 1.355 . S
C2667 C2669 1.415 . S
C2668 C2667 1.355 . S
C2668 C2670 1.419 . S
C2669 C2664 1.425 1_545 S
C2669 C2666 1.409 1_545 S
C2669 C2667 1.415 . S
C2670 H2660 0.930 . S
C2670 C2668 1.419 . S
C2670 C2671 1.362 . S
C2671 H2661 0.930 . S
C2671 C2664 1.409 1_545 S
C2671 C2670 1.362 . S
H2672 C2678 0.930 . S
H2673 C2681 0.930 . S
H2674 C2682 0.930 . S
H2675 C2683 0.930 . S
H2676 C2686 0.930 . S
H2677 C2687 0.930 . S
C2678 H2672 0.930 . S
C2678 C2679 1.355 . S
C2678 C2680 1.415 . S
C2679 C2678 1.355 . S
C2679 C2681 1.419 . S
C2680 C2678 1.415 . S
C2680 C2685 1.425 . S
C2680 C2687 1.409 . S
C2681 H2673 0.930 . S
C2681 C2679 1.419 . S
C2681 C2682 1.362 . S
C2682 H2674 0.930 . S
C2682 C2681 1.362 . S
C2682 C2685 1.409 . S
C2683 H2675 0.930 . S
C2683 C2684 1.355 . S
C2683 C2685 1.415 . S
C2684 C2683 1.355 . S
C2684 C2686 1.419 . S
C2685 C2680 1.425 . S
C2685 C2682 1.409 . S
C2685 C2683 1.415 . S
C2686 H2676 0.930 . S
C2686 C2684 1.419 . S
C2686 C2687 1.362 . S
C2687 H2677 0.930 . S
C2687 C2680 1.409 . S
C2687 C2686 1.362 . S
H2688 C2694 0.930 . S
H2689 C2697 0.930 . S
H2690 C2698 0.930 . S
H2691 C2699 0.930 . S
H2692 C2702 0.930 . S
H2693 C2703 0.930 . S
C2694 H2688 0.930 . S
C2694 C2695 1.355 . S
C2694 C2696 1.415 . S
C2695 C2694 1.355 . S
C2695 C2697 1.419 . S
C2696 C2694 1.415 . S
C2696 C2701 1.425 . S
C2696 C2703 1.409 . S
C2697 H2689 0.930 . S
C2697 C2695 1.419 . S
C2697 C2698 1.362 . S
C2698 H2690 0.930 . S
C2698 C2697 1.362 . S
C2698 C2701 1.409 . S
C2699 H2691 0.930 . S
C2699 C2700 1.355 . S
C2699 C2701 1.415 . S
C2700 C2699 1.355 . S
C2700 C2702 1.419 . S
C2701 C2696 1.425 . S
C2701 C2698 1.409 . S
C2701 C2699 1.415 . S
C2702 H2692 0.930 . S
C2702 C2700 1.419 . S
C2702 C2703 1.362 . S
C2703 H2693 0.930 . S
C2703 C2696 1.409 . S
C2703 C2702 1.362 . S
H2704 C2710 0.930 . S
H2705 C2713 0.930 . S
H2706 C2714 0.930 . S
H2707 C2715 0.930 . S
H2708 C2718 0.930 . S
H2709 C2719 0.930 . S
C2710 H2704 0.930 . S
C2710 C2711 1.355 . S
C2710 C2712 1.415 . S
C2711 C2710 1.355 . S
C2711 C2713 1.419 . S
C2712 C2710 1.415 . S
C2712 C2717 1.425 . S
C2712 C2719 1.409 . S
C2713 H2705 0.930 . S
C2713 C2711 1.419 . S
C2713 C2714 1.362 . S
C2714 H2706 0.930 . S
C2714 C2713 1.362 . S
C2714 C2717 1.409 . S
C2715 H2707 0.930 . S
C2715 C2716 1.355 . S
C2715 C2717 1.415 . S
C2716 C2715 1.355 . S
C2716 C2718 1.419 . S
C2717 C2712 1.425 . S
C2717 C2714 1.409 . S
C2717 C2715 1.415 . S
C2718 H2708 0.930 . S
C2718 C2716 1.419 . S
C2718 C2719 1.362 . S
C2719 H2709 0.930 . S
C2719 C2712 1.409 . S
C2719 C2718 1.362 . S
H2720 C2726 0.930 . S
H2721 C2729 0.930 . S
H2722 C2730 0.930 1_554 S
H2723 C2731 0.930 . S
H2724 C2734 0.930 . S
H2725 C2735 0.930 1_556 S
C2726 H2720 0.930 . S
C2726 C2727 1.355 . S
C2726 C2728 1.415 . S
C2727 C2726 1.355 . S
C2727 C2729 1.419 . S
C2728 C2726 1.415 . S
C2728 C2733 1.425 1_556 S
C2728 C2735 1.409 1_556 S
C2729 H2721 0.930 . S
C2729 C2727 1.419 . S
C2729 C2730 1.362 . S
C2730 H2722 0.930 1_556 S
C2730 C2729 1.362 . S
C2730 C2733 1.409 1_556 S
C2731 H2723 0.930 . S
C2731 C2732 1.355 . S
C2731 C2733 1.415 . S
C2732 C2731 1.355 . S
C2732 C2734 1.419 . S
C2733 C2728 1.425 1_554 S
C2733 C2730 1.409 1_554 S
C2733 C2731 1.415 . S
C2734 H2724 0.930 . S
C2734 C2732 1.419 . S
C2734 C2735 1.362 . S
C2735 H2725 0.930 1_554 S
C2735 C2728 1.409 1_554 S
C2735 C2734 1.362 . S
H2736 C2742 0.930 . S
H2737 C2745 0.930 . S
H2738 C2746 0.930 . S
H2739 C2747 0.930 . S
H2740 C2750 0.930 . S
H2741 C2751 0.930 . S
C2742 H2736 0.930 . S
C2742 C2743 1.355 . S
C2742 C2744 1.415 . S
C2743 C2742 1.355 . S
C2743 C2745 1.419 . S
C2744 C2742 1.415 . S
C2744 C2749 1.425 . S
C2744 C2751 1.409 . S
C2745 H2737 0.930 . S
C2745 C2743 1.419 . S
C2745 C2746 1.362 . S
C2746 H2738 0.930 . S
C2746 C2745 1.362 . S
C2746 C2749 1.409 . S
C2747 H2739 0.930 . S
C2747 C2748 1.355 . S
C2747 C2749 1.415 . S
C2748 C2747 1.355 . S
C2748 C2750 1.419 . S
C2749 C2744 1.425 . S
C2749 C2746 1.409 . S
C2749 C2747 1.415 . S
C2750 H2740 0.930 . S
C2750 C2748 1.419 . S
C2750 C2751 1.362 . S
C2751 H2741 0.930 . S
C2751 C2744 1.409 . S
C2751 C2750 1.362 . S
H2752 C2758 0.930 . S
H2753 C2761 0.930 . S
H2754 C2762 0.930 . S
H2755 C2763 0.930 . S
H2756 C2766 0.930 . S
H2757 C2767 0.930 . S
C2758 H2752 0.930 . S
C2758 C2759 1.355 . S
C2758 C2760 1.415 . S
C2759 C2758 1.355 . S
C2759 C2761 1.419 . S
C2760 C2758 1.415 . S
C2760 C2765 1.425 . S
C2760 C2767 1.409 . S
C2761 H2753 0.930 . S
C2761 C2759 1.419 . S
C2761 C2762 1.362 . S
C2762 H2754 0.930 . S
C2762 C2761 1.362 . S
C2762 C2765 1.409 . S
C2763 H2755 0.930 . S
C2763 C2764 1.355 . S
C2763 C2765 1.415 . S
C2764 C2763 1.355 . S
C2764 C2766 1.419 . S
C2765 C2760 1.425 . S
C2765 C2762 1.409 . S
C2765 C2763 1.415 . S
C2766 H2756 0.930 . S
C2766 C2764 1.419 . S
C2766 C2767 1.362 . S
C2767 H2757 0.930 . S
C2767 C2760 1.409 . S
C2767 C2766 1.362 . S
H2768 C2774 0.930 . S
H2769 C2777 0.930 . S
H2770 C2778 0.930 . S
H2771 C2779 0.930 . S
H2772 C2782 0.930 . S
H2773 C2783 0.930 . S
C2774 H2768 0.930 . S
C2774 C2775 1.355 . S
C2774 C2776 1.415 . S
C2775 C2774 1.355 . S
C2775 C2777 1.419 . S
C2776 C2774 1.415 . S
C2776 C2781 1.425 1_565 S
C2776 C2783 1.409 1_565 S
C2777 H2769 0.930 . S
C2777 C2775 1.419 . S
C2777 C2778 1.362 . S
C2778 H2770 0.930 . S
C2778 C2777 1.362 . S
C2778 C2781 1.409 1_565 S
C2779 H2771 0.930 . S
C2779 C2780 1.355 . S
C2779 C2781 1.415 . S
C2780 C2779 1.355 . S
C2780 C2782 1.419 . S
C2781 C2776 1.425 1_545 S
C2781 C2778 1.409 1_545 S
C2781 C2779 1.415 . S
C2782 H2772 0.930 . S
C2782 C2780 1.419 . S
C2782 C2783 1.362 . S
C2783 H2773 0.930 . S
C2783 C2776 1.409 1_545 S
C2783 C2782 1.362 . S
H2784 C2790 0.930 . S
H2785 C2793 0.930 . S
H2786 C2794 0.930 . S
H2787 C2795 0.930 . S
H2788 C2798 0.930 . S
H2789 C2799 0.930 . S
C2790 H2784 0.930 . S
C2790 C2791 1.355 . S
C2790 C2792 1.415 . S
C2791 C2790 1.355 . S
C2791 C2793 1.419 . S
C2792 C2790 1.415 . S
C2792 C2797 1.425 . S
C2792 C2799 1.409 . S
C2793 H2785 0.930 . S
C2793 C2791 1.419 . S
C2793 C2794 1.362 . S
C2794 H2786 0.930 . S
C2794 C2793 1.362 . S
C2794 C2797 1.409 . S
C2795 H2787 0.930 . S
C2795 C2796 1.355 . S
C2795 C2797 1.415 . S
C2796 C2795 1.355 . S
C2796 C2798 1.419 . S
C2797 C2792 1.425 . S
C2797 C2794 1.409 . S
C2797 C2795 1.415 . S
C2798 H2788 0.930 . S
C2798 C2796 1.419 . S
C2798 C2799 1.362 . S
C2799 H2789 0.930 . S
C2799 C2792 1.409 . S
C2799 C2798 1.362 . S
H2800 C2806 0.930 . S
H2801 C2809 0.930 . S
H2802 C2810 0.930 . S
H2803 C2811 0.930 . S
H2804 C2814 0.930 . S
H2805 C2815 0.930 . S
C2806 H2800 0.930 . S
C2806 C2807 1.355 . S
C2806 C2808 1.415 . S
C2807 C2806 1.355 . S
C2807 C2809 1.419 . S
C2808 C2806 1.415 . S
C2808 C2813 1.425 . S
C2808 C2815 1.409 . S
C2809 H2801 0.930 . S
C2809 C2807 1.419 . S
C2809 C2810 1.362 . S
C2810 H2802 0.930 . S
C2810 C2809 1.362 . S
C2810 C2813 1.409 . S
C2811 H2803 0.930 . S
C2811 C2812 1.355 . S
C2811 C2813 1.415 . S
C2812 C2811 1.355 . S
C2812 C2814 1.419 . S
C2813 C2808 1.425 . S
C2813 C2810 1.409 . S
C2813 C2811 1.415 . S
C2814 H2804 0.930 . S
C2814 C2812 1.419 . S
C2814 C2815 1.362 . S
C2815 H2805 0.930 . S
C2815 C2808 1.409 . S
C2815 C2814 1.362 . S
H2816 C2822 0.930 . S
H2817 C2825 0.930 . S
H2818 C2826 0.930 . S
H2819 C2827 0.930 . S
H2820 C2830 0.930 . S
H2821 C2831 0.930 . S
C2822 H2816 0.930 . S
C2822 C2823 1.355 . S
C2822 C2824 1.415 . S
C2823 C2822 1.355 . S
C2823 C2825 1.419 . S
C2824 C2822 1.415 . S
C2824 C2829 1.425 . S
C2824 C2831 1.409 . S
C2825 H2817 0.930 . S
C2825 C2823 1.419 . S
C2825 C2826 1.362 . S
C2826 H2818 0.930 . S
C2826 C2825 1.362 . S
C2826 C2829 1.409 . S
C2827 H2819 0.930 . S
C2827 C2828 1.355 . S
C2827 C2829 1.415 . S
C2828 C2827 1.355 . S
C2828 C2830 1.419 . S
C2829 C2824 1.425 . S
C2829 C2826 1.409 . S
C2829 C2827 1.415 . S
C2830 H2820 0.930 . S
C2830 C2828 1.419 . S
C2830 C2831 1.362 . S
C2831 H2821 0.930 . S
C2831 C2824 1.409 . S
C2831 C2830 1.362 . S
H2832 C2838 0.930 . S
H2833 C2841 0.930 . S
H2834 C2842 0.930 . S
H2835 C2843 0.930 . S
H2836 C2846 0.930 . S
H2837 C2847 0.930 . S
C2838 H2832 0.930 . S
C2838 C2839 1.355 . S
C2838 C2840 1.415 . S
C2839 C2838 1.355 . S
C2839 C2841 1.419 . S
C2840 C2838 1.415 . S
C2840 C2845 1.425 . S
C2840 C2847 1.409 . S
C2841 H2833 0.930 . S
C2841 C2839 1.419 . S
C2841 C2842 1.362 . S
C2842 H2834 0.930 . S
C2842 C2841 1.362 . S
C2842 C2845 1.409 . S
C2843 H2835 0.930 . S
C2843 C2844 1.355 . S
C2843 C2845 1.415 . S
C2844 C2843 1.355 . S
C2844 C2846 1.419 . S
C2845 C2840 1.425 . S
C2845 C2842 1.409 . S
C2845 C2843 1.415 . S
C2846 H2836 0.930 . S
C2846 C2844 1.419 . S
C2846 C2847 1.362 . S
C2847 H2837 0.930 . S
C2847 C2840 1.409 . S
C2847 C2846 1.362 . S
H2848 C2854 0.930 . S
H2849 C2857 0.930 . S
H2850 C2858 0.930 . S
H2851 C2859 0.930 . S
H2852 C2862 0.930 . S
H2853 C2863 0.930 . S
C2854 H2848 0.930 . S
C2854 C2855 1.355 . S
C2854 C2856 1.415 . S
C2855 C2854 1.355 . S
C2855 C2857 1.419 . S
C2856 C2854 1.415 . S
C2856 C2861 1.425 . S
C2856 C2863 1.409 . S
C2857 H2849 0.930 . S
C2857 C2855 1.419 . S
C2857 C2858 1.362 . S
C2858 H2850 0.930 . S
C2858 C2857 1.362 . S
C2858 C2861 1.409 . S
C2859 H2851 0.930 . S
C2859 C2860 1.355 . S
C2859 C2861 1.415 . S
C2860 C2859 1.355 . S
C2860 C2862 1.419 . S
C2861 C2856 1.425 . S
C2861 C2858 1.409 . S
C2861 C2859 1.415 . S
C2862 H2852 0.930 . S
C2862 C2860 1.419 . S
C2862 C2863 1.362 . S
C2863 H2853 0.930 . S
C2863 C2856 1.409 . S
C2863 C2862 1.362 . S
H2864 C2870 0.930 . S
H2865 C2873 0.930 . S
H2866 C2874 0.930 . S
H2867 C2875 0.930 . S
H2868 C2878 0.930 . S
H2869 C2879 0.930 . S
C2870 H2864 0.930 . S
C2870 C2871 1.355 . S
C2870 C2872 1.415 . S
C2871 C2870 1.355 . S
C2871 C2873 1.419 . S
C2872 C2870 1.415 . S
C2872 C2877 1.425 . S
C2872 C2879 1.409 . S
C2873 H2865 0.930 . S
C2873 C2871 1.419 . S
C2873 C2874 1.362 . S
C2874 H2866 0.930 . S
C2874 C2873 1.362 . S
C2874 C2877 1.409 . S
C2875 H2867 0.930 . S
C2875 C2876 1.355 . S
C2875 C2877 1.415 . S
C2876 C2875 1.355 . S
C2876 C2878 1.419 . S
C2877 C2872 1.425 . S
C2877 C2874 1.409 . S
C2877 C2875 1.415 . S
C2878 H2868 0.930 . S
C2878 C2876 1.419 . S
C2878 C2879 1.362 . S
C2879 H2869 0.930 . S
C2879 C2872 1.409 . S
C2879 C2878 1.362 . S
H2880 C2886 0.930 . S
H2881 C2889 0.930 . S
H2882 C2890 0.930 . S
H2883 C2891 0.930 . S
H2884 C2894 0.930 . S
H2885 C2895 0.930 . S
C2886 H2880 0.930 . S
C2886 C2887 1.355 . S
C2886 C2888 1.415 . S
C2887 C2886 1.355 . S
C2887 C2889 1.419 . S
C2888 C2886 1.415 . S
C2888 C2893 1.425 . S
C2888 C2895 1.409 . S
C2889 H2881 0.930 . S
C2889 C2887 1.419 . S
C2889 C2890 1.362 . S
C2890 H2882 0.930 . S
C2890 C2889 1.362 . S
C2890 C2893 1.409 . S
C2891 H2883 0.930 . S
C2891 C2892 1.355 . S
C2891 C2893 1.415 . S
C2892 C2891 1.355 . S
C2892 C2894 1.419 . S
C2893 C2888 1.425 . S
C2893 C2890 1.409 . S
C2893 C2891 1.415 . S
C2894 H2884 0.930 . S
C2894 C2892 1.419 . S
C2894 C2895 1.362 . S
C2895 H2885 0.930 . S
C2895 C2888 1.409 . S
C2895 C2894 1.362 . S
H2896 C2902 0.930 . S
H2897 C2905 0.930 . S
H2898 C2906 0.930 . S
H2899 C2907 0.930 . S
H2900 C2910 0.930 . S
H2901 C2911 0.930 . S
C2902 H2896 0.930 . S
C2902 C2903 1.355 . S
C2902 C2904 1.415 . S
C2903 C2902 1.355 . S
C2903 C2905 1.419 . S
C2904 C2902 1.415 . S
C2904 C2909 1.425 . S
C2904 C2911 1.409 . S
C2905 H2897 0.930 . S
C2905 C2903 1.419 . S
C2905 C2906 1.362 . S
C2906 H2898 0.930 . S
C2906 C2905 1.362 . S
C2906 C2909 1.409 . S
C2907 H2899 0.930 . S
C2907 C2908 1.355 . S
C2907 C2909 1.415 . S
C2908 C2907 1.355 . S
C2908 C2910 1.419 . S
C2909 C2904 1.425 . S
C2909 C2906 1.409 . S
C2909 C2907 1.415 . S
C2910 H2900 0.930 . S
C2910 C2908 1.419 . S
C2910 C2911 1.362 . S
C2911 H2901 0.930 . S
C2911 C2904 1.409 . S
C2911 C2910 1.362 . S
H2912 C2918 0.930 . S
H2913 C2921 0.930 . S
H2914 C2922 0.930 . S
H2915 C2923 0.930 . S
H2916 C2926 0.930 . S
H2917 C2927 0.930 . S
C2918 H2912 0.930 . S
C2918 C2919 1.355 . S
C2918 C2920 1.415 . S
C2919 C2918 1.355 . S
C2919 C2921 1.419 . S
C2920 C2918 1.415 . S
C2920 C2925 1.425 . S
C2920 C2927 1.409 . S
C2921 H2913 0.930 . S
C2921 C2919 1.419 . S
C2921 C2922 1.362 . S
C2922 H2914 0.930 . S
C2922 C2921 1.362 . S
C2922 C2925 1.409 . S
C2923 H2915 0.930 . S
C2923 C2924 1.355 . S
C2923 C2925 1.415 . S
C2924 C2923 1.355 . S
C2924 C2926 1.419 . S
C2925 C2920 1.425 . S
C2925 C2922 1.409 . S
C2925 C2923 1.415 . S
C2926 H2916 0.930 . S
C2926 C2924 1.419 . S
C2926 C2927 1.362 . S
C2927 H2917 0.930 . S
C2927 C2920 1.409 . S
C2927 C2926 1.362 . S
H2928 C2934 0.930 . S
H2929 C2937 0.930 . S
H2930 C2938 0.930 . S
H2931 C2939 0.930 . S
H2932 C2942 0.930 . S
H2933 C2943 0.930 . S
C2934 H2928 0.930 . S
C2934 C2935 1.355 . S
C2934 C2936 1.415 . S
C2935 C2934 1.355 . S
C2935 C2937 1.419 . S
C2936 C2934 1.415 . S
C2936 C2941 1.425 . S
C2936 C2943 1.409 . S
C2937 H2929 0.930 . S
C2937 C2935 1.419 . S
C2937 C2938 1.362 . S
C2938 H2930 0.930 . S
C2938 C2937 1.362 . S
C2938 C2941 1.409 . S
C2939 H2931 0.930 . S
C2939 C2940 1.355 . S
C2939 C2941 1.415 . S
C2940 C2939 1.355 . S
C2940 C2942 1.419 . S
C2941 C2936 1.425 . S
C2941 C2938 1.409 . S
C2941 C2939 1.415 . S
C2942 H2932 0.930 . S
C2942 C2940 1.419 . S
C2942 C2943 1.362 . S
C2943 H2933 0.930 . S
C2943 C2936 1.409 . S
C2943 C2942 1.362 . S
H2944 C2950 0.930 . S
H2945 C2953 0.930 . S
H2946 C2954 0.930 . S
H2947 C2955 0.930 . S
H2948 C2958 0.930 . S
H2949 C2959 0.930 . S
C2950 H2944 0.930 . S
C2950 C2951 1.355 . S
C2950 C2952 1.415 . S
C2951 C2950 1.355 . S
C2951 C2953 1.419 . S
C2952 C2950 1.415 . S
C2952 C2957 1.425 . S
C2952 C2959 1.409 . S
C2953 H2945 0.930 . S
C2953 C2951 1.419 . S
C2953 C2954 1.362 . S
C2954 H2946 0.930 . S
C2954 C2953 1.362 . S
C2954 C2957 1.409 . S
C2955 H2947 0.930 . S
C2955 C2956 1.355 . S
C2955 C2957 1.415 . S
C2956 C2955 1.355 . S
C2956 C2958 1.419 . S
C2957 C2952 1.425 . S
C2957 C2954 1.409 . S
C2957 C2955 1.415 . S
C2958 H2948 0.930 . S
C2958 C2956 1.419 . S
C2958 C2959 1.362 . S
C2959 H2949 0.930 . S
C2959 C2952 1.409 . S
C2959 C2958 1.362 . S
H2960 C2966 0.930 . S
H2961 C2969 0.930 . S
H2962 C2970 0.930 . S
H2963 C2971 0.930 . S
H2964 C2974 0.930 . S
H2965 C2975 0.930 . S
C2966 H2960 0.930 . S
C2966 C2967 1.355 . S
C2966 C2968 1.415 . S
C2967 C2966 1.355 . S
C2967 C2969 1.419 . S
C2968 C2966 1.415 . S
C2968 C2973 1.425 . S
C2968 C2975 1.409 . S
C2969 H2961 0.930 . S
C2969 C2967 1.419 . S
C2969 C2970 1.362 . S
C2970 H2962 0.930 . S
C2970 C2969 1.362 . S
C2970 C2973 1.409 . S
C2971 H2963 0.930 . S
C2971 C2972 1.355 . S
C2971 C2973 1.415 . S
C2972 C2971 1.355 . S
C2972 C2974 1.419 . S
C2973 C2968 1.425 . S
C2973 C2970 1.409 . S
C2973 C2971 1.415 . S
C2974 H2964 0.930 . S
C2974 C2972 1.419 . S
C2974 C2975 1.362 . S
C2975 H2965 0.930 . S
C2975 C2968 1.409 . S
C2975 C2974 1.362 . S
H2976 C2982 0.930 . S
H2977 C2985 0.930 . S
H2978 C2986 0.930 . S
H2979 C2987 0.930 . S
H2980 C2990 0.930 . S
H2981 C2991 0.930 . S
C2982 H2976 0.930 . S
C2982 C2983 1.355 . S
C2982 C2984 1.415 . S
C2983 C2982 1.355 . S
C2983 C2985 1.419 . S
C2984 C2982 1.415 . S
C2984 C2989 1.425 . S
C2984 C2991 1.409 . S
C2985 H2977 0.930 . S
C2985 C2983 1.419 . S
C2985 C2986 1.362 . S
C2986 H2978 0.930 . S
C2986 C2985 1.362 . S
C2986 C2989 1.409 . S
C2987 H2979 0.930 . S
C2987 C2988 1.355 . S
C2987 C2989 1.415 . S
C2988 C2987 1.355 . S
C2988 C2990 1.419 . S
C2989 C2984 1.425 . S
C2989 C2986 1.409 . S
C2989 C2987 1.415 . S
C2990 H2980 0.930 . S
C2990 C2988 1.419 . S
C2990 C2991 1.362 . S
C2991 H2981 0.930 . S
C2991 C2984 1.409 . S
C2991 C2990 1.362 . S
H2992 C2998 0.930 . S
H2993 C3001 0.930 . S
H2994 C3002 0.930 . S
H2995 C3003 0.930 . S
H2996 C3006 0.930 . S
H2997 C3007 0.930 . S
C2998 H2992 0.930 . S
C2998 C2999 1.355 . S
C2998 C3000 1.415 . S
C2999 C2998 1.355 . S
C2999 C3001 1.419 . S
C3000 C2998 1.415 . S
C3000 C3005 1.425 . S
C3000 C3007 1.409 . S
C3001 H2993 0.930 . S
C3001 C2999 1.419 . S
C3001 C3002 1.362 . S
C3002 H2994 0.930 . S
C3002 C3001 1.362 . S
C3002 C3005 1.409 . S
C3003 H2995 0.930 . S
C3003 C3004 1.355 . S
C3003 C3005 1.415 . S
C3004 C3003 1.355 . S
C3004 C3006 1.419 . S
C3005 C3000 1.425 . S
C3005 C3002 1.409 . S
C3005 C3003 1.415 . S
C3006 H2996 0.930 . S
C3006 C3004 1.419 . S
C3006 C3007 1.362 . S
C3007 H2997 0.930 . S
C3007 C3000 1.409 . S
C3007 C3006 1.362 . S
H3008 C3014 0.930 . S
H3009 C3017 0.930 . S
H3010 C3018 0.930 . S
H3011 C3019 0.930 . S
H3012 C3022 0.930 . S
H3013 C3023 0.930 . S
C3014 H3008 0.930 . S
C3014 C3015 1.355 . S
C3014 C3016 1.415 . S
C3015 C3014 1.355 . S
C3015 C3017 1.419 . S
C3016 C3014 1.415 . S
C3016 C3021 1.425 . S
C3016 C3023 1.409 . S
C3017 H3009 0.930 . S
C3017 C3015 1.419 . S
C3017 C3018 1.362 . S
C3018 H3010 0.930 . S
C3018 C3017 1.362 . S
C3018 C3021 1.409 . S
C3019 H3011 0.930 . S
C3019 C3020 1.355 . S
C3019 C3021 1.415 . S
C3020 C3019 1.355 . S
C3020 C3022 1.419 . S
C3021 C3016 1.425 . S
C3021 C3018 1.409 . S
C3021 C3019 1.415 . S
C3022 H3012 0.930 . S
C3022 C3020 1.419 . S
C3022 C3023 1.362 . S
C3023 H3013 0.930 . S
C3023 C3016 1.409 . S
C3023 C3022 1.362 . S
H3024 C3030 0.930 . S
H3025 C3033 0.930 . S
H3026 C3034 0.930 . S
H3027 C3035 0.930 . S
H3028 C3038 0.930 . S
H3029 C3039 0.930 . S
C3030 H3024 0.930 . S
C3030 C3031 1.355 . S
C3030 C3032 1.415 . S
C3031 C3030 1.355 . S
C3031 C3033 1.419 . S
C3032 C3030 1.415 . S
C3032 C3037 1.425 . S
C3032 C3039 1.409 . S
C3033 H3025 0.930 . S
C3033 C3031 1.419 . S
C3033 C3034 1.362 . S
C3034 H3026 0.930 . S
C3034 C3033 1.362 . S
C3034 C3037 1.409 . S
C3035 H3027 0.930 . S
C3035 C3036 1.355 . S
C3035 C3037 1.415 . S
C3036 C3035 1.355 . S
C3036 C3038 1.419 . S
C3037 C3032 1.425 . S
C3037 C3034 1.409 . S
C3037 C3035 1.415 . S
C3038 H3028 0.930 . S
C3038 C3036 1.419 . S
C3038 C3039 1.362 . S
C3039 H3029 0.930 . S
C3039 C3032 1.409 . S
C3039 C3038 1.362 . S
H3040 C3046 0.930 . S
H3041 C3049 0.930 . S
H3042 C3050 0.930 . S
H3043 C3051 0.930 . S
H3044 C3054 0.930 . S
H3045 C3055 0.930 . S
C3046 H3040 0.930 . S
C3046 C3047 1.355 . S
C3046 C3048 1.415 . S
C3047 C3046 1.355 . S
C3047 C3049 1.419 . S
C3048 C3046 1.415 . S
C3048 C3053 1.425 . S
C3048 C3055 1.409 . S
C3049 H3041 0.930 . S
C3049 C3047 1.419 . S
C3049 C3050 1.362 . S
C3050 H3042 0.930 . S
C3050 C3049 1.362 . S
C3050 C3053 1.409 . S
C3051 H3043 0.930 . S
C3051 C3052 1.355 . S
C3051 C3053 1.415 . S
C3052 C3051 1.355 . S
C3052 C3054 1.419 . S
C3053 C3048 1.425 . S
C3053 C3050 1.409 . S
C3053 C3051 1.415 . S
C3054 H3044 0.930 . S
C3054 C3052 1.419 . S
C3054 C3055 1.362 . S
C3055 H3045 0.930 . S
C3055 C3048 1.409 . S
C3055 C3054 1.362 . S
H3056 C3062 0.930 . S
H3057 C3065 0.930 . S
H3058 C3066 0.930 . S
H3059 C3067 0.930 . S
H3060 C3070 0.930 . S
H3061 C3071 0.930 . S
C3062 H3056 0.930 . S
C3062 C3063 1.355 . S
C3062 C3064 1.415 . S
C3063 C3062 1.355 . S
C3063 C3065 1.419 . S
C3064 C3062 1.415 . S
C3064 C3069 1.425 . S
C3064 C3071 1.409 . S
C3065 H3057 0.930 . S
C3065 C3063 1.419 . S
C3065 C3066 1.362 . S
C3066 H3058 0.930 . S
C3066 C3065 1.362 . S
C3066 C3069 1.409 . S
C3067 H3059 0.930 . S
C3067 C3068 1.355 . S
C3067 C3069 1.415 . S
C3068 C3067 1.355 . S
C3068 C3070 1.419 . S
C3069 C3064 1.425 . S
C3069 C3066 1.409 . S
C3069 C3067 1.415 . S
C3070 H3060 0.930 . S
C3070 C3068 1.419 . S
C3070 C3071 1.362 . S
C3071 H3061 0.930 . S
C3071 C3064 1.409 . S
C3071 C3070 1.362 . S
H3072 C3078 0.930 . S
H3073 C3081 0.930 . S
H3074 C3082 0.930 . S
H3075 C3083 0.930 . S
H3076 C3086 0.930 . S
H3077 C3087 0.930 . S
C3078 H3072 0.930 . S
C3078 C3079 1.355 . S
C3078 C3080 1.415 . S
C3079 C3078 1.355 . S
C3079 C3081 1.419 . S
C3080 C3078 1.415 . S
C3080 C3085 1.425 . S
C3080 C3087 1.409 . S
C3081 H3073 0.930 . S
C3081 C3079 1.419 . S
C3081 C3082 1.362 . S
C3082 H3074 0.930 . S
C3082 C3081 1.362 . S
C3082 C3085 1.409 . S
C3083 H3075 0.930 . S
C3083 C3084 1.355 . S
C3083 C3085 1.415 . S
C3084 C3083 1.355 . S
C3084 C3086 1.419 . S
C3085 C3080 1.425 . S
C3085 C3082 1.409 . S
C3085 C3083 1.415 . S
C3086 H3076 0.930 . S
C3086 C3084 1.419 . S
C3086 C3087 1.362 . S
C3087 H3077 0.930 . S
C3087 C3080 1.409 . S
C3087 C3086 1.362 . S
H3088 C3094 0.930 . S
H3089 C3097 0.930 . S
H3090 C3098 0.930 . S
H3091 C3099 0.930 . S
H3092 C3102 0.930 . S
H3093 C3103 0.930 . S
C3094 H3088 0.930 . S
C3094 C3095 1.355 . S
C3094 C3096 1.415 . S
C3095 C3094 1.355 . S
C3095 C3097 1.419 . S
C3096 C3094 1.415 . S
C3096 C3101 1.425 . S
C3096 C3103 1.409 . S
C3097 H3089 0.930 . S
C3097 C3095 1.419 . S
C3097 C3098 1.362 . S
C3098 H3090 0.930 . S
C3098 C3097 1.362 . S
C3098 C3101 1.409 . S
C3099 H3091 0.930 . S
C3099 C3100 1.355 . S
C3099 C3101 1.415 . S
C3100 C3099 1.355 . S
C3100 C3102 1.419 . S
C3101 C3096 1.425 . S
C3101 C3098 1.409 . S
C3101 C3099 1.415 . S
C3102 H3092 0.930 . S
C3102 C3100 1.419 . S
C3102 C3103 1.362 . S
C3103 H3093 0.930 . S
C3103 C3096 1.409 . S
C3103 C3102 1.362 . S
H3104 C3110 0.930 . S
H3105 C3113 0.930 . S
H3106 C3114 0.930 . S
H3107 C3115 0.930 . S
H3108 C3118 0.930 . S
H3109 C3119 0.930 . S
C3110 H3104 0.930 . S
C3110 C3111 1.355 . S
C3110 C3112 1.415 . S
C3111 C3110 1.355 . S
C3111 C3113 1.419 . S
C3112 C3110 1.415 . S
C3112 C3117 1.425 . S
C3112 C3119 1.409 . S
C3113 H3105 0.930 . S
C3113 C3111 1.419 . S
C3113 C3114 1.362 . S
C3114 H3106 0.930 . S
C3114 C3113 1.362 . S
C3114 C3117 1.409 . S
C3115 H3107 0.930 . S
C3115 C3116 1.355 . S
C3115 C3117 1.415 . S
C3116 C3115 1.355 . S
C3116 C3118 1.419 . S
C3117 C3112 1.425 . S
C3117 C3114 1.409 . S
C3117 C3115 1.415 . S
C3118 H3108 0.930 . S
C3118 C3116 1.419 . S
C3118 C3119 1.362 . S
C3119 H3109 0.930 . S
C3119 C3112 1.409 . S
C3119 C3118 1.362 . S
H3120 C3126 0.930 . S
H3121 C3129 0.930 . S
H3122 C3130 0.930 . S
H3123 C3131 0.930 . S
H3124 C3134 0.930 . S
H3125 C3135 0.930 . S
C3126 H3120 0.930 . S
C3126 C3127 1.355 . S
C3126 C3128 1.415 . S
C3127 C3126 1.355 . S
C3127 C3129 1.419 . S
C3128 C3126 1.415 . S
C3128 C3133 1.425 . S
C3128 C3135 1.409 . S
C3129 H3121 0.930 . S
C3129 C3127 1.419 . S
C3129 C3130 1.362 . S
C3130 H3122 0.930 . S
C3130 C3129 1.362 . S
C3130 C3133 1.409 . S
C3131 H3123 0.930 . S
C3131 C3132 1.355 . S
C3131 C3133 1.415 . S
C3132 C3131 1.355 . S
C3132 C3134 1.419 . S
C3133 C3128 1.425 . S
C3133 C3130 1.409 . S
C3133 C3131 1.415 . S
C3134 H3124 0.930 . S
C3134 C3132 1.419 . S
C3134 C3135 1.362 . S
C3135 H3125 0.930 . S
C3135 C3128 1.409 . S
C3135 C3134 1.362 . S
H3136 C3142 0.930 . S
H3137 C3145 0.930 . S
H3138 C3146 0.930 . S
H3139 C3147 0.930 . S
H3140 C3150 0.930 . S
H3141 C3151 0.930 . S
C3142 H3136 0.930 . S
C3142 C3143 1.355 . S
C3142 C3144 1.415 . S
C3143 C3142 1.355 . S
C3143 C3145 1.419 . S
C3144 C3142 1.415 . S
C3144 C3149 1.425 . S
C3144 C3151 1.409 . S
C3145 H3137 0.930 . S
C3145 C3143 1.419 . S
C3145 C3146 1.362 . S
C3146 H3138 0.930 . S
C3146 C3145 1.362 . S
C3146 C3149 1.409 . S
C3147 H3139 0.930 . S
C3147 C3148 1.355 . S
C3147 C3149 1.415 . S
C3148 C3147 1.355 . S
C3148 C3150 1.419 . S
C3149 C3144 1.425 . S
C3149 C3146 1.409 . S
C3149 C3147 1.415 . S
C3150 H3140 0.930 . S
C3150 C3148 1.419 . S
C3150 C3151 1.362 . S
C3151 H3141 0.930 . S
C3151 C3144 1.409 . S
C3151 C3150 1.362 . S
H3152 C3158 0.930 . S
H3153 C3161 0.930 . S
H3154 C3162 0.930 . S
H3155 C3163 0.930 . S
H3156 C3166 0.930 . S
H3157 C3167 0.930 . S
C3158 H3152 0.930 . S
C3158 C3159 1.355 . S
C3158 C3160 1.415 . S
C3159 C3158 1.355 . S
C3159 C3161 1.419 . S
C3160 C3158 1.415 . S
C3160 C3165 1.425 . S
C3160 C3167 1.409 . S
C3161 H3153 0.930 . S
C3161 C3159 1.419 . S
C3161 C3162 1.362 . S
C3162 H3154 0.930 . S
C3162 C3161 1.362 . S
C3162 C3165 1.409 . S
C3163 H3155 0.930 . S
C3163 C3164 1.355 . S
C3163 C3165 1.415 . S
C3164 C3163 1.355 . S
C3164 C3166 1.419 . S
C3165 C3160 1.425 . S
C3165 C3162 1.409 . S
C3165 C3163 1.415 . S
C3166 H3156 0.930 . S
C3166 C3164 1.419 . S
C3166 C3167 1.362 . S
C3167 H3157 0.930 . S
C3167 C3160 1.409 . S
C3167 C3166 1.362 . S
H3168 C3174 0.930 . S
H3169 C3177 0.930 . S
H3170 C3178 0.930 . S
H3171 C3179 0.930 . S
H3172 C3182 0.930 . S
H3173 C3183 0.930 . S
C3174 H3168 0.930 . S
C3174 C3175 1.355 . S
C3174 C3176 1.415 . S
C3175 C3174 1.355 . S
C3175 C3177 1.419 . S
C3176 C3174 1.415 . S
C3176 C3181 1.425 . S
C3176 C3183 1.409 . S
C3177 H3169 0.930 . S
C3177 C3175 1.419 . S
C3177 C3178 1.362 . S
C3178 H3170 0.930 . S
C3178 C3177 1.362 . S
C3178 C3181 1.409 . S
C3179 H3171 0.930 . S
C3179 C3180 1.355 . S
C3179 C3181 1.415 . S
C3180 C3179 1.355 . S
C3180 C3182 1.419 . S
C3181 C3176 1.425 . S
C3181 C3178 1.409 . S
C3181 C3179 1.415 . S
C3182 H3172 0.930 . S
C3182 C3180 1.419 . S
C3182 C3183 1.362 . S
C3183 H3173 0.930 . S
C3183 C3176 1.409 . S
C3183 C3182 1.362 . S
H3184 C3190 0.930 . S
H3185 C3193 0.930 . S
H3186 C3194 0.930 . S
H3187 C3195 0.930 . S
H3188 C3198 0.930 . S
H3189 C3199 0.930 . S
C3190 H3184 0.930 . S
C3190 C3191 1.355 . S
C3190 C3192 1.415 . S
C3191 C3190 1.355 . S
C3191 C3193 1.419 . S
C3192 C3190 1.415 . S
C3192 C3197 1.425 . S
C3192 C3199 1.409 . S
C3193 H3185 0.930 . S
C3193 C3191 1.419 . S
C3193 C3194 1.362 . S
C3194 H3186 0.930 . S
C3194 C3193 1.362 . S
C3194 C3197 1.409 . S
C3195 H3187 0.930 . S
C3195 C3196 1.355 . S
C3195 C3197 1.415 . S
C3196 C3195 1.355 . S
C3196 C3198 1.419 . S
C3197 C3192 1.425 . S
C3197 C3194 1.409 . S
C3197 C3195 1.415 . S
C3198 H3188 0.930 . S
C3198 C3196 1.419 . S
C3198 C3199 1.362 . S
C3199 H3189 0.930 . S
C3199 C3192 1.409 . S
C3199 C3198 1.362 . S
H3200 C3206 0.930 . S
H3201 C3209 0.930 . S
H3202 C3210 0.930 . S
H3203 C3211 0.930 . S
H3204 C3214 0.930 . S
H3205 C3215 0.930 . S
C3206 H3200 0.930 . S
C3206 C3207 1.355 . S
C3206 C3208 1.415 . S
C3207 C3206 1.355 . S
C3207 C3209 1.419 . S
C3208 C3206 1.415 . S
C3208 C3213 1.425 . S
C3208 C3215 1.409 . S
C3209 H3201 0.930 . S
C3209 C3207 1.419 . S
C3209 C3210 1.362 . S
C3210 H3202 0.930 . S
C3210 C3209 1.362 . S
C3210 C3213 1.409 . S
C3211 H3203 0.930 . S
C3211 C3212 1.355 . S
C3211 C3213 1.415 . S
C3212 C3211 1.355 . S
C3212 C3214 1.419 . S
C3213 C3208 1.425 . S
C3213 C3210 1.409 . S
C3213 C3211 1.415 . S
C3214 H3204 0.930 . S
C3214 C3212 1.419 . S
C3214 C3215 1.362 . S
C3215 H3205 0.930 . S
C3215 C3208 1.409 . S
C3215 C3214 1.362 . S
H3216 C3222 0.930 . S
H3217 C3225 0.930 . S
H3218 C3226 0.930 . S
H3219 C3227 0.930 . S
H3220 C3230 0.930 . S
H3221 C3231 0.930 . S
C3222 H3216 0.930 . S
C3222 C3223 1.355 . S
C3222 C3224 1.415 . S
C3223 C3222 1.355 . S
C3223 C3225 1.419 . S
C3224 C3222 1.415 . S
C3224 C3229 1.425 . S
C3224 C3231 1.409 . S
C3225 H3217 0.930 . S
C3225 C3223 1.419 . S
C3225 C3226 1.362 . S
C3226 H3218 0.930 . S
C3226 C3225 1.362 . S
C3226 C3229 1.409 . S
C3227 H3219 0.930 . S
C3227 C3228 1.355 . S
C3227 C3229 1.415 . S
C3228 C3227 1.355 . S
C3228 C3230 1.419 . S
C3229 C3224 1.425 . S
C3229 C3226 1.409 . S
C3229 C3227 1.415 . S
C3230 H3220 0.930 . S
C3230 C3228 1.419 . S
C3230 C3231 1.362 . S
C3231 H3221 0.930 . S
C3231 C3224 1.409 . S
C3231 C3230 1.362 . S
H3232 C3238 0.930 . S
H3233 C3241 0.930 . S
H3234 C3242 0.930 . S
H3235 C3243 0.930 . S
H3236 C3246 0.930 . S
H3237 C3247 0.930 . S
C3238 H3232 0.930 . S
C3238 C3239 1.355 . S
C3238 C3240 1.415 . S
C3239 C3238 1.355 . S
C3239 C3241 1.419 . S
C3240 C3238 1.415 . S
C3240 C3245 1.425 . S
C3240 C3247 1.409 . S
C3241 H3233 0.930 . S
C3241 C3239 1.419 . S
C3241 C3242 1.362 . S
C3242 H3234 0.930 . S
C3242 C3241 1.362 . S
C3242 C3245 1.409 . S
C3243 H3235 0.930 . S
C3243 C3244 1.355 . S
C3243 C3245 1.415 . S
C3244 C3243 1.355 . S
C3244 C3246 1.419 . S
C3245 C3240 1.425 . S
C3245 C3242 1.409 . S
C3245 C3243 1.415 . S
C3246 H3236 0.930 . S
C3246 C3244 1.419 . S
C3246 C3247 1.362 . S
C3247 H3237 0.930 . S
C3247 C3240 1.409 . S
C3247 C3246 1.362 . S
H3248 C3254 0.930 . S
H3249 C3257 0.930 . S
H3250 C3258 0.930 . S
H3251 C3259 0.930 . S
H3252 C3262 0.930 . S
H3253 C3263 0.930 . S
C3254 H3248 0.930 . S
C3254 C3255 1.355 . S
C3254 C3256 1.415 . S
C3255 C3254 1.355 . S
C3255 C3257 1.419 . S
C3256 C3254 1.415 . S
C3256 C3261 1.425 . S
C3256 C3263 1.409 . S
C3257 H3249 0.930 . S
C3257 C3255 1.419 . S
C3257 C3258 1.362 . S
C3258 H3250 0.930 . S
C3258 C3257 1.362 . S
C3258 C3261 1.409 . S
C3259 H3251 0.930 . S
C3259 C3260 1.355 . S
C3259 C3261 1.415 . S
C3260 C3259 1.355 . S
C3260 C3262 1.419 . S
C3261 C3256 1.425 . S
C3261 C3258 1.409 . S
C3261 C3259 1.415 . S
C3262 H3252 0.930 . S
C3262 C3260 1.419 . S
C3262 C3263 1.362 . S
C3263 H3253 0.930 . S
C3263 C3256 1.409 . S
C3263 C3262 1.362 . S
H3264 C3270 0.930 . S
H3265 C3273 0.930 . S
H3266 C3274 0.930 . S
H3267 C3275 0.930 . S
H3268 C3278 0.930 . S
H3269 C3279 0.930 . S
C3270 H3264 0.930 . S
C3270 C3271 1.355 . S
C3270 C3272 1.415 . S
C3271 C3270 1.355 . S
C3271 C3273 1.419 . S
C3272 C3270 1.415 . S
C3272 C3277 1.425 . S
C3272 C3279 1.409 . S
C3273 H3265 0.930 . S
C3273 C3271 1.419 . S
C3273 C3274 1.362 . S
C3274 H3266 0.930 . S
C3274 C3273 1.362 . S
C3274 C3277 1.409 . S
C3275 H3267 0.930 . S
C3275 C3276 1.355 . S
C3275 C3277 1.415 . S
C3276 C3275 1.355 . S
C3276 C3278 1.419 . S
C3277 C3272 1.425 . S
C3277 C3274 1.409 . S
C3277 C3275 1.415 . S
C3278 H3268 0.930 . S
C3278 C3276 1.419 . S
C3278 C3279 1.362 . S
C3279 H3269 0.930 . S
C3279 C3272 1.409 . S
C3279 C3278 1.362 . S
H3280 C3286 0.930 . S
H3281 C3289 0.930 . S
H3282 C3290 0.930 . S
H3283 C3291 0.930 . S
H3284 C3294 0.930 . S
H3285 C3295 0.930 . S
C3286 H3280 0.930 . S
C3286 C3287 1.355 . S
C3286 C3288 1.415 . S
C3287 C3286 1.355 . S
C3287 C3289 1.419 . S
C3288 C3286 1.415 . S
C3288 C3293 1.425 . S
C3288 C3295 1.409 . S
C3289 H3281 0.930 . S
C3289 C3287 1.419 . S
C3289 C3290 1.362 . S
C3290 H3282 0.930 . S
C3290 C3289 1.362 . S
C3290 C3293 1.409 . S
C3291 H3283 0.930 . S
C3291 C3292 1.355 . S
C3291 C3293 1.415 . S
C3292 C3291 1.355 . S
C3292 C3294 1.419 . S
C3293 C3288 1.425 . S
C3293 C3290 1.409 . S
C3293 C3291 1.415 . S
C3294 H3284 0.930 . S
C3294 C3292 1.419 . S
C3294 C3295 1.362 . S
C3295 H3285 0.930 . S
C3295 C3288 1.409 . S
C3295 C3294 1.362 . S
H3296 C3302 0.930 . S
H3297 C3305 0.930 . S
H3298 C3306 0.930 . S
H3299 C3307 0.930 . S
H3300 C3310 0.930 . S
H3301 C3311 0.930 . S
C3302 H3296 0.930 . S
C3302 C3303 1.355 . S
C3302 C3304 1.415 . S
C3303 C3302 1.355 . S
C3303 C3305 1.419 . S
C3304 C3302 1.415 . S
C3304 C3309 1.425 . S
C3304 C3311 1.409 . S
C3305 H3297 0.930 . S
C3305 C3303 1.419 . S
C3305 C3306 1.362 . S
C3306 H3298 0.930 . S
C3306 C3305 1.362 . S
C3306 C3309 1.409 . S
C3307 H3299 0.930 . S
C3307 C3308 1.355 . S
C3307 C3309 1.415 . S
C3308 C3307 1.355 . S
C3308 C3310 1.419 . S
C3309 C3304 1.425 . S
C3309 C3306 1.409 . S
C3309 C3307 1.415 . S
C3310 H3300 0.930 . S
C3310 C3308 1.419 . S
C3310 C3311 1.362 . S
C3311 H3301 0.930 . S
C3311 C3304 1.409 . S
C3311 C3310 1.362 . S
H3312 C3318 0.930 . S
H3313 C3321 0.930 . S
H3314 C3322 0.930 . S
H3315 C3323 0.930 . S
H3316 C3326 0.930 . S
H3317 C3327 0.930 . S
C3318 H3312 0.930 . S
C3318 C3319 1.355 . S
C3318 C3320 1.415 . S
C3319 C3318 1.355 . S
C3319 C3321 1.419 . S
C3320 C3318 1.415 . S
C3320 C3325 1.425 . S
C3320 C3327 1.409 . S
C3321 H3313 0.930 . S
C3321 C3319 1.419 . S
C3321 C3322 1.362 . S
C3322 H3314 0.930 . S
C3322 C3321 1.362 . S
C3322 C3325 1.409 . S
C3323 H3315 0.930 . S
C3323 C3324 1.355 . S
C3323 C3325 1.415 . S
C3324 C3323 1.355 . S
C3324 C3326 1.419 . S
C3325 C3320 1.425 . S
C3325 C3322 1.409 . S
C3325 C3323 1.415 . S
C3326 H3316 0.930 . S
C3326 C3324 1.419 . S
C3326 C3327 1.362 . S
C3327 H3317 0.930 . S
C3327 C3320 1.409 . S
C3327 C3326 1.362 . S
H3328 C3334 0.930 . S
H3329 C3337 0.930 . S
H3330 C3338 0.930 . S
H3331 C3339 0.930 . S
H3332 C3342 0.930 . S
H3333 C3343 0.930 . S
C3334 H3328 0.930 . S
C3334 C3335 1.355 . S
C3334 C3336 1.415 . S
C3335 C3334 1.355 . S
C3335 C3337 1.419 . S
C3336 C3334 1.415 . S
C3336 C3341 1.425 . S
C3336 C3343 1.409 . S
C3337 H3329 0.930 . S
C3337 C3335 1.419 . S
C3337 C3338 1.362 . S
C3338 H3330 0.930 . S
C3338 C3337 1.362 . S
C3338 C3341 1.409 . S
C3339 H3331 0.930 . S
C3339 C3340 1.355 . S
C3339 C3341 1.415 . S
C3340 C3339 1.355 . S
C3340 C3342 1.419 . S
C3341 C3336 1.425 . S
C3341 C3338 1.409 . S
C3341 C3339 1.415 . S
C3342 H3332 0.930 . S
C3342 C3340 1.419 . S
C3342 C3343 1.362 . S
C3343 H3333 0.930 . S
C3343 C3336 1.409 . S
C3343 C3342 1.362 . S
H3344 C3350 0.930 . S
H3345 C3353 0.930 . S
H3346 C3354 0.930 . S
H3347 C3355 0.930 . S
H3348 C3358 0.930 . S
H3349 C3359 0.930 . S
C3350 H3344 0.930 . S
C3350 C3351 1.355 . S
C3350 C3352 1.415 . S
C3351 C3350 1.355 . S
C3351 C3353 1.419 . S
C3352 C3350 1.415 . S
C3352 C3357 1.425 . S
C3352 C3359 1.409 . S
C3353 H3345 0.930 . S
C3353 C3351 1.419 . S
C3353 C3354 1.362 . S
C3354 H3346 0.930 . S
C3354 C3353 1.362 . S
C3354 C3357 1.409 . S
C3355 H3347 0.930 . S
C3355 C3356 1.355 . S
C3355 C3357 1.415 . S
C3356 C3355 1.355 . S
C3356 C3358 1.419 . S
C3357 C3352 1.425 . S
C3357 C3354 1.409 . S
C3357 C3355 1.415 . S
C3358 H3348 0.930 . S
C3358 C3356 1.419 . S
C3358 C3359 1.362 . S
C3359 H3349 0.930 . S
C3359 C3352 1.409 . S
C3359 C3358 1.362 . S
H3360 C3366 0.930 . S
H3361 C3369 0.930 . S
H3362 C3370 0.930 . S
H3363 C3371 0.930 . S
H3364 C3374 0.930 . S
H3365 C3375 0.930 . S
C3366 H3360 0.930 . S
C3366 C3367 1.355 . S
C3366 C3368 1.415 . S
C3367 C3366 1.355 . S
C3367 C3369 1.419 . S
C3368 C3366 1.415 . S
C3368 C3373 1.425 . S
C3368 C3375 1.409 . S
C3369 H3361 0.930 . S
C3369 C3367 1.419 . S
C3369 C3370 1.362 . S
C3370 H3362 0.930 . S
C3370 C3369 1.362 . S
C3370 C3373 1.409 . S
C3371 H3363 0.930 . S
C3371 C3372 1.355 . S
C3371 C3373 1.415 . S
C3372 C3371 1.355 . S
C3372 C3374 1.419 . S
C3373 C3368 1.425 . S
C3373 C3370 1.409 . S
C3373 C3371 1.415 . S
C3374 H3364 0.930 . S
C3374 C3372 1.419 . S
C3374 C3375 1.362 . S
C3375 H3365 0.930 . S
C3375 C3368 1.409 . S
C3375 C3374 1.362 . S
H3376 C3382 0.930 . S
H3377 C3385 0.930 . S
H3378 C3386 0.930 . S
H3379 C3387 0.930 . S
H3380 C3390 0.930 . S
H3381 C3391 0.930 . S
C3382 H3376 0.930 . S
C3382 C3383 1.355 . S
C3382 C3384 1.415 . S
C3383 C3382 1.355 . S
C3383 C3385 1.419 . S
C3384 C3382 1.415 . S
C3384 C3389 1.425 . S
C3384 C3391 1.409 . S
C3385 H3377 0.930 . S
C3385 C3383 1.419 . S
C3385 C3386 1.362 . S
C3386 H3378 0.930 . S
C3386 C3385 1.362 . S
C3386 C3389 1.409 . S
C3387 H3379 0.930 . S
C3387 C3388 1.355 . S
C3387 C3389 1.415 . S
C3388 C3387 1.355 . S
C3388 C3390 1.419 . S
C3389 C3384 1.425 . S
C3389 C3386 1.409 . S
C3389 C3387 1.415 . S
C3390 H3380 0.930 . S
C3390 C3388 1.419 . S
C3390 C3391 1.362 . S
C3391 H3381 0.930 . S
C3391 C3384 1.409 . S
C3391 C3390 1.362 . S
H3392 C3398 0.930 . S
H3393 C3401 0.930 . S
H3394 C3402 0.930 . S
H3395 C3403 0.930 . S
H3396 C3406 0.930 . S
H3397 C3407 0.930 . S
C3398 H3392 0.930 . S
C3398 C3399 1.355 . S
C3398 C3400 1.415 . S
C3399 C3398 1.355 . S
C3399 C3401 1.419 . S
C3400 C3398 1.415 . S
C3400 C3405 1.425 . S
C3400 C3407 1.409 . S
C3401 H3393 0.930 . S
C3401 C3399 1.419 . S
C3401 C3402 1.362 . S
C3402 H3394 0.930 . S
C3402 C3401 1.362 . S
C3402 C3405 1.409 . S
C3403 H3395 0.930 . S
C3403 C3404 1.355 . S
C3403 C3405 1.415 . S
C3404 C3403 1.355 . S
C3404 C3406 1.419 . S
C3405 C3400 1.425 . S
C3405 C3402 1.409 . S
C3405 C3403 1.415 . S
C3406 H3396 0.930 . S
C3406 C3404 1.419 . S
C3406 C3407 1.362 . S
C3407 H3397 0.930 . S
C3407 C3400 1.409 . S
C3407 C3406 1.362 . S
H3408 C3414 0.930 . S
H3409 C3417 0.930 . S
H3410 C3418 0.930 . S
H3411 C3419 0.930 . S
H3412 C3422 0.930 . S
H3413 C3423 0.930 . S
C3414 H3408 0.930 . S
C3414 C3415 1.355 . S
C3414 C3416 1.415 . S
C3415 C3414 1.355 . S
C3415 C3417 1.419 . S
C3416 C3414 1.415 . S
C3416 C3421 1.425 . S
C3416 C3423 1.409 . S
C3417 H3409 0.930 . S
C3417 C3415 1.419 . S
C3417 C3418 1.362 . S
C3418 H3410 0.930 . S
C3418 C3417 1.362 . S
C3418 C3421 1.409 . S
C3419 H3411 0.930 . S
C3419 C3420 1.355 . S
C3419 C3421 1.415 . S
C3420 C3419 1.355 . S
C3420 C3422 1.419 . S
C3421 C3416 1.425 . S
C3421 C3418 1.409 . S
C3421 C3419 1.415 . S
C3422 H3412 0.930 . S
C3422 C3420 1.419 . S
C3422 C3423 1.362 . S
C3423 H3413 0.930 . S
C3423 C3416 1.409 . S
C3423 C3422 1.362 . S
H3424 C3430 0.930 . S
H3425 C3433 0.930 . S
H3426 C3434 0.930 . S
H3427 C3435 0.930 . S
H3428 C3438 0.930 . S
H3429 C3439 0.930 . S
C3430 H3424 0.930 . S
C3430 C3431 1.355 . S
C3430 C3432 1.415 . S
C3431 C3430 1.355 . S
C3431 C3433 1.419 . S
C3432 C3430 1.415 . S
C3432 C3437 1.425 . S
C3432 C3439 1.409 . S
C3433 H3425 0.930 . S
C3433 C3431 1.419 . S
C3433 C3434 1.362 . S
C3434 H3426 0.930 . S
C3434 C3433 1.362 . S
C3434 C3437 1.409 . S
C3435 H3427 0.930 . S
C3435 C3436 1.355 . S
C3435 C3437 1.415 . S
C3436 C3435 1.355 . S
C3436 C3438 1.419 . S
C3437 C3432 1.425 . S
C3437 C3434 1.409 . S
C3437 C3435 1.415 . S
C3438 H3428 0.930 . S
C3438 C3436 1.419 . S
C3438 C3439 1.362 . S
C3439 H3429 0.930 . S
C3439 C3432 1.409 . S
C3439 C3438 1.362 . S
H3440 C3446 0.930 . S
H3441 C3449 0.930 . S
H3442 C3450 0.930 . S
H3443 C3451 0.930 . S
H3444 C3454 0.930 . S
H3445 C3455 0.930 . S
C3446 H3440 0.930 . S
C3446 C3447 1.355 . S
C3446 C3448 1.415 . S
C3447 C3446 1.355 . S
C3447 C3449 1.419 . S
C3448 C3446 1.415 . S
C3448 C3453 1.425 . S
C3448 C3455 1.409 . S
C3449 H3441 0.930 . S
C3449 C3447 1.419 . S
C3449 C3450 1.362 . S
C3450 H3442 0.930 . S
C3450 C3449 1.362 . S
C3450 C3453 1.409 . S
C3451 H3443 0.930 . S
C3451 C3452 1.355 . S
C3451 C3453 1.415 . S
C3452 C3451 1.355 . S
C3452 C3454 1.419 . S
C3453 C3448 1.425 . S
C3453 C3450 1.409 . S
C3453 C3451 1.415 . S
C3454 H3444 0.930 . S
C3454 C3452 1.419 . S
C3454 C3455 1.362 . S
C3455 H3445 0.930 . S
C3455 C3448 1.409 . S
C3455 C3454 1.362 . S
H3456 C3462 0.930 . S
H3457 C3465 0.930 . S
H3458 C3466 0.930 . S
H3459 C3467 0.930 . S
H3460 C3470 0.930 . S
H3461 C3471 0.930 . S
C3462 H3456 0.930 . S
C3462 C3463 1.355 . S
C3462 C3464 1.415 . S
C3463 C3462 1.355 . S
C3463 C3465 1.419 . S
C3464 C3462 1.415 . S
C3464 C3469 1.425 . S
C3464 C3471 1.409 . S
C3465 H3457 0.930 . S
C3465 C3463 1.419 . S
C3465 C3466 1.362 . S
C3466 H3458 0.930 . S
C3466 C3465 1.362 . S
C3466 C3469 1.409 . S
C3467 H3459 0.930 . S
C3467 C3468 1.355 . S
C3467 C3469 1.415 . S
C3468 C3467 1.355 . S
C3468 C3470 1.419 . S
C3469 C3464 1.425 . S
C3469 C3466 1.409 . S
C3469 C3467 1.415 . S
C3470 H3460 0.930 . S
C3470 C3468 1.419 . S
C3470 C3471 1.362 . S
C3471 H3461 0.930 . S
C3471 C3464 1.409 . S
C3471 C3470 1.362 . S
H3472 C3478 0.930 . S
H3473 C3481 0.930 . S
H3474 C3482 0.930 . S
H3475 C3483 0.930 . S
H3476 C3486 0.930 . S
H3477 C3487 0.930 . S
C3478 H3472 0.930 . S
C3478 C3479 1.355 . S
C3478 C3480 1.415 . S
C3479 C3478 1.355 . S
C3479 C3481 1.419 . S
C3480 C3478 1.415 . S
C3480 C3485 1.425 . S
C3480 C3487 1.409 . S
C3481 H3473 0.930 . S
C3481 C3479 1.419 . S
C3481 C3482 1.362 . S
C3482 H3474 0.930 . S
C3482 C3481 1.362 . S
C3482 C3485 1.409 . S
C3483 H3475 0.930 . S
C3483 C3484 1.355 . S
C3483 C3485 1.415 . S
C3484 C3483 1.355 . S
C3484 C3486 1.419 . S
C3485 C3480 1.425 . S
C3485 C3482 1.409 . S
C3485 C3483 1.415 . S
C3486 H3476 0.930 . S
C3486 C3484 1.419 . S
C3486 C3487 1.362 . S
C3487 H3477 0.930 . S
C3487 C3480 1.409 . S
C3487 C3486 1.362 . S
H3488 C3494 0.930 . S
H3489 C3497 0.930 . S
H3490 C3498 0.930 . S
H3491 C3499 0.930 . S
H3492 C3502 0.930 . S
H3493 C3503 0.930 . S
C3494 H3488 0.930 . S
C3494 C3495 1.355 . S
C3494 C3496 1.415 . S
C3495 C3494 1.355 . S
C3495 C3497 1.419 . S
C3496 C3494 1.415 . S
C3496 C3501 1.425 . S
C3496 C3503 1.409 . S
C3497 H3489 0.930 . S
C3497 C3495 1.419 . S
C3497 C3498 1.362 . S
C3498 H3490 0.930 . S
C3498 C3497 1.362 . S
C3498 C3501 1.409 . S
C3499 H3491 0.930 . S
C3499 C3500 1.355 . S
C3499 C3501 1.415 . S
C3500 C3499 1.355 . S
C3500 C3502 1.419 . S
C3501 C3496 1.425 . S
C3501 C3498 1.409 . S
C3501 C3499 1.415 . S
C3502 H3492 0.930 . S
C3502 C3500 1.419 . S
C3502 C3503 1.362 . S
C3503 H3493 0.930 . S
C3503 C3496 1.409 . S
C3503 C3502 1.362 . S
H3504 C3510 0.930 . S
H3505 C3513 0.930 . S
H3506 C3514 0.930 . S
H3507 C3515 0.930 . S
H3508 C3518 0.930 . S
H3509 C3519 0.930 . S
C3510 H3504 0.930 . S
C3510 C3511 1.355 . S
C3510 C3512 1.415 . S
C3511 C3510 1.355 . S
C3511 C3513 1.419 . S
C3512 C3510 1.415 . S
C3512 C3517 1.425 . S
C3512 C3519 1.409 . S
C3513 H3505 0.930 . S
C3513 C3511 1.419 . S
C3513 C3514 1.362 . S
C3514 H3506 0.930 . S
C3514 C3513 1.362 . S
C3514 C3517 1.409 . S
C3515 H3507 0.930 . S
C3515 C3516 1.355 . S
C3515 C3517 1.415 . S
C3516 C3515 1.355 . S
C3516 C3518 1.419 . S
C3517 C3512 1.425 . S
C3517 C3514 1.409 . S
C3517 C3515 1.415 . S
C3518 H3508 0.930 . S
C3518 C3516 1.419 . S
C3518 C3519 1.362 . S
C3519 H3509 0.930 . S
C3519 C3512 1.409 . S
C3519 C3518 1.362 . S
H3520 C3526 0.930 . S
H3521 C3529 0.930 . S
H3522 C3530 0.930 . S
H3523 C3531 0.930 . S
H3524 C3534 0.930 . S
H3525 C3535 0.930 . S
C3526 H3520 0.930 . S
C3526 C3527 1.355 . S
C3526 C3528 1.415 . S
C3527 C3526 1.355 . S
C3527 C3529 1.419 . S
C3528 C3526 1.415 . S
C3528 C3533 1.425 . S
C3528 C3535 1.409 . S
C3529 H3521 0.930 . S
C3529 C3527 1.419 . S
C3529 C3530 1.362 . S
C3530 H3522 0.930 . S
C3530 C3529 1.362 . S
C3530 C3533 1.409 . S
C3531 H3523 0.930 . S
C3531 C3532 1.355 . S
C3531 C3533 1.415 . S
C3532 C3531 1.355 . S
C3532 C3534 1.419 . S
C3533 C3528 1.425 . S
C3533 C3530 1.409 . S
C3533 C3531 1.415 . S
C3534 H3524 0.930 . S
C3534 C3532 1.419 . S
C3534 C3535 1.362 . S
C3535 H3525 0.930 . S
C3535 C3528 1.409 . S
C3535 C3534 1.362 . S
H3536 C3542 0.930 . S
H3537 C3545 0.930 . S
H3538 C3546 0.930 . S
H3539 C3547 0.930 . S
H3540 C3550 0.930 . S
H3541 C3551 0.930 . S
C3542 H3536 0.930 . S
C3542 C3543 1.355 . S
C3542 C3544 1.415 . S
C3543 C3542 1.355 . S
C3543 C3545 1.419 . S
C3544 C3542 1.415 . S
C3544 C3549 1.425 . S
C3544 C3551 1.409 . S
C3545 H3537 0.930 . S
C3545 C3543 1.419 . S
C3545 C3546 1.362 . S
C3546 H3538 0.930 . S
C3546 C3545 1.362 . S
C3546 C3549 1.409 . S
C3547 H3539 0.930 . S
C3547 C3548 1.355 . S
C3547 C3549 1.415 . S
C3548 C3547 1.355 . S
C3548 C3550 1.419 . S
C3549 C3544 1.425 . S
C3549 C3546 1.409 . S
C3549 C3547 1.415 . S
C3550 H3540 0.930 . S
C3550 C3548 1.419 . S
C3550 C3551 1.362 . S
C3551 H3541 0.930 . S
C3551 C3544 1.409 . S
C3551 C3550 1.362 . S
C1639 C5 1.644 . S
C1644 C360 1.690 . S
C1655 C394 1.633 . S
C1660 C39 1.549 . S
C1671 C292 1.646 . S
C1676 C73 1.607 . S
C1687 C326 1.693 . S
C1692 C107 1.644 . S
C1703 C496 1.646 . S
C1708 C141 1.607 . S
C1719 C175 1.644 . S
C1724 C530 1.692 . S
C1735 C428 1.638 . S
C1740 C209 1.594 . S
C1751 C462 1.653 . S
C1756 C243 1.548 . S
C1767 C277 1.547 . S
C1772 C598 1.650 . S
C1783 C311 1.629 . S
C1788 C632 1.664 . S
C1799 C345 1.640 . S
C1804 C666 1.701 . S
C1815 C379 1.562 . S
C1820 C1516 1.629 . S
C1831 C1380 1.675 . S
C1836 C413 1.565 . S
C1847 C447 1.643 . S
C1852 C802 1.697 . S
C1863 C481 1.598 . S
C1868 C1550 1.640 . S
C1879 C768 1.683 . S
C1884 C515 1.642 . S
C1895 C549 1.575 . S
C1900 C1040 1.631 . S
C1911 C583 1.605 . S
C1916 C88 1.645 . S
C1927 C122 1.630 . S
C1932 C617 1.567 . S
C1943 C20 1.694 . S
C1948 C651 1.593 . S
C1959 C685 1.576 . S
C1964 C870 1.631 . S
C1975 C719 1.643 . S
C1980 C972 1.696 . S
C1991 C190 1.703 . S
C1996 C753 1.635 . S
C2007 C258 1.691 . S
C2012 C787 1.588 . S
C2023 C1176 1.631 . S
C2028 C821 1.577 . S
C2039 C855 1.638 . S
C2044 C1210 1.702 . S
C2055 C1108 1.694 . S
C2060 C889 1.644 . S
C2071 C1142 1.643 . S
C2076 C923 1.545 . S
C2087 C1312 1.650 . S
C2092 C957 1.547 . S
C2103 C1346 1.647 . S
C2108 C991 1.546 . S
C2119 C1244 1.677 . S
C2124 C1025 1.639 . S
C2135 C1059 1.637 . S
C2140 C1278 1.702 . S
C2151 C1414 1.635 . S
C2156 C1093 1.588 . S
C2167 C1448 1.676 . S
C2172 C1127 1.566 . S
C2183 C1161 1.636 . S
C2188 C1482 1.673 . S
C2199 C1195 1.631 . S
C2204 C700 1.666 . S
C2215 C1229 1.567 . S
C2220 C564 1.630 . S
C2231 C1263 1.559 . S
C2236 C1618 1.629 . S
C2247 C734 1.660 . S
C2252 C1297 1.552 . S
C2263 C1584 1.681 . S
C2268 C1331 1.641 . S
C2279 C224 1.704 . S
C2284 C1365 1.634 . S
C2295 C904 1.631 . S
C2300 C1399 1.554 . S
C2311 C1433 1.558 . S
C2316 C938 1.630 . S
C2327 C1467 1.553 . S
C2332 C836 1.662 . S
C2343 C54 1.699 . S
C2348 C1501 1.641 . S
C2359 C156 1.647 . S
C2364 C1535 1.609 . S
C2375 C1569 1.631 . S
C2380 C1006 1.704 . S
C2391 C1074 1.675 . S
C2396 C1603 1.566 . S
C2407 C2 2.193 . S
C2412 C886 2.183 . S
C2423 C36 2.191 . S
C2428 C920 2.195 . S
C2439 C70 2.188 . S
C2444 C818 2.186 . S
C2455 C852 2.192 . S
C2460 C104 2.183 . S
C2471 C1022 2.185 . S
C2476 C138 2.189 . S
C2487 C1056 2.190 . S
C2492 C172 2.195 . S
C2503 C954 2.186 . S
C2508 C206 2.197 . S
C2519 C988 2.185 . S
C2524 C240 2.197 . S
C2535 C274 2.182 . S
C2540 C410 2.196 . S
C2551 C444 2.192 . S
C2556 C308 2.194 . S
C2567 C342 2.191 . S
C2572 C478 2.184 . S
C2583 C376 2.185 . S
C2588 C512 2.197 . S
C2599 C546 2.184 . S
C2604 C1464 2.197 . S
C2615 C580 2.191 . S
C2620 C1532 2.184 . S
C2631 C614 2.195 . S
C2636 C750 2.190 . S
C2647 C1362 2.192 . S
C2652 C648 2.183 . S
C2663 C1600 2.186 . S
C2668 C682 2.188 . S
C2679 C1396 2.189 . S
C2684 C716 2.196 . S
C2695 C784 2.196 . S
C2700 C1498 2.189 . S
C2711 C1090 2.182 . S
C2716 C1226 2.195 . S
C2727 C1124 2.191 . S
C2732 C1260 2.195 . S
C2743 C1158 2.196 . S
C2748 C1294 2.182 . S
C2759 C1192 2.188 . S
C2764 C1328 2.197 . S
C2775 C1430 2.183 . S
C2780 C1566 2.197 . S
C2791 C689 0.898 . S
C2796 C9 0.872 . S
C2807 C43 0.868 . S
C2812 C1403 0.899 . S
C2823 C77 0.711 . S
C2828 C1437 0.790 . S
C2839 C1471 0.830 . S
C2844 C111 0.743 . S
C2855 C1607 0.797 . S
C2860 C145 0.874 . S
C2871 C723 0.770 . S
C2876 C179 0.701 . S
C2887 C213 0.739 . S
C2892 C1573 0.693 . S
C2903 C247 0.835 . S
C2908 C553 0.893 . S
C2919 C519 0.729 . S
C2924 C281 0.815 . S
C2935 C315 0.862 . S
C2940 C417 0.779 . S
C2951 C349 0.790 . S
C2956 C451 0.712 . S
C2967 C485 0.896 . S
C2972 C383 0.880 . S
C2983 C859 0.843 . S
C2988 C587 0.756 . S
C2999 C621 0.889 . S
C3004 C893 0.825 . S
C3015 C655 0.774 . S
C3020 C927 0.703 . S
C3031 C757 0.881 . S
C3036 C1029 0.809 . S
C3047 C961 0.737 . S
C3052 C791 0.824 . S
C3063 C825 0.733 . S
C3068 C1505 0.820 . S
C3079 C1539 0.822 . S
C3084 C995 0.887 . S
C3095 C1369 0.856 . S
C3100 C1063 0.771 . S
C3111 C1097 0.693 . S
C3116 C1335 0.736 . S
C3127 C1233 0.898 . S
C3132 C1131 0.869 . S
C3143 C1165 0.799 . S
C3148 C1267 0.876 . S
C3159 C1199 0.754 . S
C3164 C1301 0.841 . S
C3175 C33 1.622 . S
C3180 C339 1.601 . S
C3191 C373 1.605 . S
C3196 C67 1.620 . S
C3207 C407 1.598 . S
C3212 C101 1.623 . S
C3223 C305 1.620 . S
C3228 C135 1.604 . S
C3239 C169 1.597 . S
C3244 C543 1.605 . S
C3255 C441 1.610 . S
C3260 C203 1.594 . S
C3271 C237 1.618 . S
C3276 C475 1.607 . S
C3287 C271 1.590 . S
C3292 C509 1.619 . S
C3303 C645 1.618 . S
C3308 C577 1.607 . S
C3319 C611 1.622 . S
C3324 C1597 1.591 . S
C3335 C1631 1.606 . S
C3340 C679 1.596 . S
C3351 C713 1.622 . S
C3356 C1563 1.592 . S
C3367 C1529 1.593 . S
C3372 C747 1.623 . S
C3383 C781 1.612 . S
C3388 C1427 1.592 . S
C3399 C1495 1.607 . S
C3404 C815 1.618 . S
C3415 C1155 1.596 . S
C3420 C849 1.623 . S
C3431 C1189 1.619 . S
C3436 C883 1.590 . S
C3447 C917 1.591 . S
C3452 C1223 1.614 . S
C3463 C951 1.610 . S
C3468 C1121 1.594 . S
C3479 C985 1.619 . S
C3484 C1359 1.590 . S
C3495 C1019 1.604 . S
C3500 C1257 1.620 . S
C3511 C1291 1.593 . S
C3516 C1053 1.611 . S
C3527 C1087 1.623 . S
C3532 C1325 1.594 . S
C3543 C1393 1.622 . S
C3548 C1461 1.592 . S
