# Generated by pormake.
# Topology ukg, (4)-cn, num edge types: 1
# Building blocks:
#     Node 0, Type 0, BuildingBlock: MUDLON_clean_sbu_0, # of connection points: 4
#     Node 1, Type 0, BuildingBlock: MUDLON_clean_sbu_0, # of connection points: 4
#     Node 2, Type 0, BuildingBlock: MUDLON_clean_sbu_0, # of connection points: 4
#     Node 3, Type 0, BuildingBlock: MUDLON_clean_sbu_0, # of connection points: 4
#     Node 4, Type 0, BuildingBlock: MUDLON_clean_sbu_0, # of connection points: 4
#     Node 5, Type 0, BuildingBlock: MUDLON_clean_sbu_0, # of connection points: 4
#     Node 6, Type 0, BuildingBlock: MUDLON_clean_sbu_0, # of connection points: 4
#     Node 7, Type 0, BuildingBlock: MUDLON_clean_sbu_0, # of connection points: 4
#     Edge 8, Type (0, 0), BuildingBlock: AJUNOK_clean_linker_0, # of connection points: 2
#     Edge 9, Type (0, 0), BuildingBlock: AJUNOK_clean_linker_0, # of connection points: 2
#     Edge 10, Type (0, 0), BuildingBlock: AJUNOK_clean_linker_0, # of connection points: 2
#     Edge 11, Type (0, 0), BuildingBlock: AJUNOK_clean_linker_0, # of connection points: 2
#     Edge 12, Type (0, 0), BuildingBlock: AJUNOK_clean_linker_0, # of connection points: 2
#     Edge 13, Type (0, 0), BuildingBlock: AJUNOK_clean_linker_0, # of connection points: 2
#     Edge 14, Type (0, 0), BuildingBlock: AJUNOK_clean_linker_0, # of connection points: 2
#     Edge 15, Type (0, 0), BuildingBlock: AJUNOK_clean_linker_0, # of connection points: 2
#     Edge 16, Type (0, 0), BuildingBlock: AJUNOK_clean_linker_0, # of connection points: 2
#     Edge 17, Type (0, 0), BuildingBlock: AJUNOK_clean_linker_0, # of connection points: 2
#     Edge 18, Type (0, 0), BuildingBlock: AJUNOK_clean_linker_0, # of connection points: 2
#     Edge 19, Type (0, 0), BuildingBlock: AJUNOK_clean_linker_0, # of connection points: 2
#     Edge 20, Type (0, 0), BuildingBlock: AJUNOK_clean_linker_0, # of connection points: 2
#     Edge 21, Type (0, 0), BuildingBlock: AJUNOK_clean_linker_0, # of connection points: 2
#     Edge 22, Type (0, 0), BuildingBlock: AJUNOK_clean_linker_0, # of connection points: 2
#     Edge 23, Type (0, 0), BuildingBlock: AJUNOK_clean_linker_0, # of connection points: 2
# Relax obj value: 0.084
# Max RMSD: 0.240
# Mean RMSD: 0.240
data_MOF--net-ukg--node1-MUDLON_clean_sbu_0--edge1-AJUNOK_clean_linker_0
_symmetry_space_group_name_H-M    P1
_symmetry_Int_Tables_number       1
_symmetry_cell_setting            triclinic
loop_
_symmetry_equiv_pos_as_xyz
'x, y, z'
_cell_length_a     24.089455
_cell_length_b     24.106227
_cell_length_c     27.528685
_cell_angle_alpha  89.654073
_cell_angle_beta   89.858352
_cell_angle_gamma 89.86148
loop_
_atom_site_label
_atom_site_type_symbol
_atom_site_fract_x
_atom_site_fract_y
_atom_site_fract_z
_atom_type_partial_charge
Mg0 Mg 0.04135 0.69308 0.1678 0.0
C1 C 0.96729 0.65545 0.24968 0.0
O2 O 0.94684 0.70494 0.24066 0.0
C3 C 0.15048 0.7493 0.15392 0.0
O4 O 0.11621 0.78648 0.13583 0.0
C5 C 0.04884 0.60577 0.09464 0.0
O6 O 0.08529 0.59205 0.12808 0.0
O7 O 0.02148 0.65061 0.10021 0.0
O8 O 1.00941 0.63916 0.22555 0.0
O9 O 1.00582 0.77493 0.18155 0.0
C10 C 0.02717 0.79623 0.21937 0.0
O11 O 0.06766 0.76906 0.24093 0.0
O12 O 0.13088 0.70394 0.17042 0.0
Mg13 Mg 0.34823 0.54675 0.65965 0.0
C14 C 0.38164 0.48358 0.75243 0.0
O15 O 0.32784 0.48261 0.76019 0.0
C16 C 0.30328 0.65861 0.6872 0.0
O17 O 0.27094 0.62628 0.71336 0.0
C18 C 0.43899 0.54116 0.58811 0.0
O19 O 0.45954 0.5705 0.62388 0.0
O20 O 0.38896 0.52458 0.59162 0.0
O21 O 0.40036 0.51009 0.71582 0.0
O22 O 0.26338 0.51817 0.6697 0.0
C23 C 0.24738 0.46816 0.67353 0.0
O24 O 0.28331 0.42808 0.66575 0.0
O25 O 0.34249 0.63663 0.6629 0.0
Mg26 Mg 0.49441 0.85634 0.15961 0.0
C27 C 0.55025 0.88633 0.2558 0.0
O28 O 0.5419 0.83364 0.26564 0.0
C29 C 0.38609 0.8008 0.15117 0.0
O30 O 0.42068 0.76511 0.13167 0.0
C31 C 0.50639 0.95031 0.09048 0.0
O32 O 0.48762 0.97411 0.13011 0.0
O33 O 0.51391 0.89797 0.09107 0.0
O34 O 0.53147 0.90648 0.21629 0.0
O35 O 0.52474 0.77188 0.16878 0.0
C36 C 0.5737 0.75581 0.17847 0.0
O37 O 0.61427 0.79215 0.17779 0.0
O38 O 0.40481 0.84707 0.16599 0.0
Mg39 Mg 0.17913 0.99789 0.67789 0.0
C40 C 0.1548 0.06052 0.7713 0.0
O41 O 0.20903 0.06576 0.77086 0.0
C42 C 0.23617 0.88958 0.66016 0.0
O43 O 0.25821 0.92103 0.62611 0.0
C44 C 0.07599 1.00288 0.61715 0.0
O45 O 0.05591 0.98739 0.65949 0.0
O46 O 0.12818 1.01016 0.6132 0.0
O47 O 0.13176 0.03179 0.73842 0.0
O48 O 0.25674 0.04413 0.67472 0.0
C49 C 0.29785 0.02549 0.6988 0.0
O50 O 0.29241 0.97797 0.72189 0.0
O51 O 0.19916 0.91043 0.68765 0.0
Mg52 Mg 1.00266 0.35018 0.87259 0.0
C53 C 0.02197 0.22559 0.87001 0.0
O54 O 0.96776 0.22557 0.86558 0.0
C55 C 0.99624 0.45086 0.93856 0.0
O56 O 0.95175 0.45983 0.9121 0.0
C57 C 0.8852 0.31603 0.84022 0.0
O58 O 0.91004 0.30468 0.79889 0.0
O59 O 0.91351 0.33624 0.87475 0.0
O60 O 0.04628 0.27122 0.87887 0.0
O61 O 0.03516 0.37894 0.80317 0.0
C62 C 0.05851 0.42586 0.79853 0.0
O63 O 0.05456 0.46165 0.83417 0.0
O64 O 0.0254 0.40779 0.93021 0.0
Mg65 Mg 0.6893 0.49494 0.36193 0.0
C66 C 0.80991 0.51214 0.34537 0.0
O67 O 0.80189 0.4639 0.32463 0.0
C68 C 0.58815 0.48598 0.42734 0.0
O69 O 0.57665 0.44698 0.39584 0.0
C70 C 0.71914 0.38201 0.39463 0.0
O71 O 0.7214 0.41087 0.43492 0.0
O72 O 0.70374 0.40635 0.35584 0.0
O73 O 0.76997 0.5338 0.36902 0.0
O74 O 0.66008 0.53572 0.29611 0.0
C75 C 0.61183 0.55664 0.29234 0.0
O76 O 0.57527 0.54708 0.32681 0.0
O77 O 0.63343 0.5127 0.42259 0.0
Mg78 Mg 0.54709 0.19167 0.85593 0.0
C79 C 0.52223 0.31012 0.8311 0.0
O80 O 0.57007 0.30245 0.80915 0.0
C81 C 0.5472 0.09149 0.92039 0.0
O82 O 0.56354 0.07095 0.87863 0.0
C83 C 0.65739 0.24184 0.8731 0.0
O84 O 0.62772 0.25984 0.90991 0.0
O85 O 0.63445 0.20935 0.84297 0.0
O86 O 0.50211 0.27046 0.85626 0.0
O87 O 0.50864 0.14173 0.79984 0.0
C88 C 0.47711 0.16337 0.76788 0.0
O89 O 0.47362 0.21765 0.76515 0.0
O90 O 0.53755 0.14341 0.92282 0.0
Mg91 Mg 0.83788 0.04091 0.37905 0.0
C92 C 0.7236 1.01672 0.34579 0.0
O93 O 0.73436 0.06445 0.32454 0.0
C94 C 0.93282 0.04401 0.44919 0.0
O95 O 0.9552 0.06604 0.41001 0.0
C96 C 0.79503 0.15239 0.40297 0.0
O97 O 0.78461 0.12375 0.44272 0.0
O98 O 0.82013 0.12846 0.36822 0.0
O99 O 0.75958 0.99643 0.37466 0.0
O100 O 0.88843 1.004 0.32217 0.0
C101 C 0.91333 0.96003 0.3357 0.0
O102 O 0.90793 0.94334 0.38096 0.0
O103 O 0.88199 0.02968 0.44775 0.0
C104 C 0.97783 0.53714 0.98698 0.0
C105 C 1.01181 0.4907 0.97746 0.0
C106 C 0.99064 0.57479 0.02407 0.0
C107 C 0.0379 0.56757 0.05339 0.0
H108 H 0.94056 0.54438 0.96594 0.0
H109 H 0.96263 0.60925 0.03031 0.0
S110 S 0.14253 0.4547 0.04179 0.0
N111 N 0.09628 0.44113 0.99941 0.0
N112 N 0.12032 0.51152 0.0688 0.0
C113 C 0.07291 0.52196 0.04362 0.0
C114 C 0.0599 0.48368 1.00582 0.0
C115 C 0.52862 0.54971 0.54245 0.0
C116 C 0.47491 0.52692 0.54581 0.0
C117 C 0.56456 0.5364 0.5041 0.0
C118 C 0.54864 0.49942 0.46736 0.0
H119 H 0.54342 0.57816 0.5698 0.0
H120 H 0.6054 0.55509 0.50357 0.0
S121 S 0.41201 0.42881 0.45839 0.0
N122 N 0.40725 0.46595 0.50842 0.0
N123 N 0.4747 0.44073 0.4364 0.0
C124 C 0.49486 0.47647 0.46999 0.0
C125 C 0.45807 0.49028 0.50908 0.0
C126 C 0.50938 0.04259 0.04805 0.0
C127 C 0.51809 0.98476 0.0465 0.0
C128 C 0.51931 0.0766 1.00744 0.0
C129 C 0.53843 0.05441 0.96329 0.0
H130 H 0.4945 0.0621 0.08096 0.0
H131 H 0.51158 0.1207 1.01076 0.0
S132 S 0.56875 0.90553 0.93992 0.0
N133 N 0.54766 0.90686 0.99698 0.0
N134 N 0.56636 0.97047 0.92069 0.0
C135 C 0.54775 0.99661 0.96123 0.0
C136 C 0.5376 0.96193 1.00272 0.0
C137 C 0.02535 0.04317 0.49074 0.0
C138 C 0.96769 0.0336 0.49296 0.0
C139 C 0.05985 0.03291 0.53081 0.0
C140 C 0.03829 1.0128 0.57507 0.0
H141 H 0.04437 0.05848 0.4576 0.0
H142 H 0.10385 0.041 0.52692 0.0
S143 S 0.88991 0.98131 0.60042 0.0
N144 N 0.8905 1.00304 0.54346 0.0
N145 N 0.95503 0.9839 0.61873 0.0
C146 C 0.9806 1.00319 0.57794 0.0
C147 C 0.94545 1.01352 0.53699 0.0
C148 C 0.22934 0.81652 0.15357 0.0
C149 C 0.21073 0.76118 0.15556 0.0
C150 C 0.28613 0.82923 0.15363 0.0
C151 C 0.32639 0.787 0.15469 0.0
H152 H 0.19981 0.85044 0.15194 0.0
H153 H 0.29852 0.87235 0.15154 0.0
S154 S 0.29964 0.63549 0.16192 0.0
N155 N 0.23725 0.66392 0.16041 0.0
N156 N 0.34387 0.68764 0.1596 0.0
C157 C 0.30839 0.73152 0.15739 0.0
C158 C 0.2506 0.71864 0.15812 0.0
C159 C 0.24341 0.74075 0.70643 0.0
C160 C 0.28982 0.71862 0.68197 0.0
C161 C 0.22673 0.79598 0.69943 0.0
C162 C 0.25558 0.83152 0.66753 0.0
H163 H 0.21899 0.71503 0.73074 0.0
H164 H 0.19036 0.81059 0.71877 0.0
S165 S 0.38213 0.79536 0.59683 0.0
N166 N 0.366 0.73766 0.62611 0.0
N167 N 0.33468 0.84125 0.6129 0.0
C168 C 0.30288 0.8104 0.64364 0.0
C169 C 0.32001 0.75412 0.65091 0.0
C170 C 0.74482 0.24659 0.82334 0.0
C171 C 0.71524 0.26167 0.86544 0.0
C172 C 0.79917 0.26531 0.81499 0.0
C173 C 0.82638 0.29973 0.84848 0.0
H174 H 0.72595 0.22001 0.79647 0.0
H175 H 0.82022 0.25191 0.78227 0.0
S176 S 0.76692 0.35273 0.96396 0.0
N177 N 0.71718 0.31427 0.94069 0.0
N178 N 0.81892 0.34932 0.92498 0.0
C179 C 0.7971 0.31566 0.89051 0.0
C180 C 0.74173 0.29668 0.89899 0.0
C181 C 0.74158 0.29441 0.43924 0.0
C182 C 0.73713 0.32309 0.39476 0.0
C183 C 0.76035 0.23945 0.44129 0.0
C184 C 0.77618 0.21091 0.39901 0.0
H185 H 0.73033 0.31448 0.47298 0.0
H186 H 0.76284 0.21939 0.47654 0.0
S187 S 0.77255 0.26711 0.27317 0.0
N188 N 0.75001 0.31872 0.30716 0.0
N189 N 0.78579 0.21541 0.31106 0.0
C190 C 0.77206 0.23901 0.35417 0.0
C191 C 0.75232 0.295 0.35202 0.0
C192 C 0.85563 0.6045 0.3357 0.0
C193 C 0.8582 0.54653 0.33055 0.0
C194 C 0.89358 0.63917 0.31186 0.0
C195 C 0.93595 0.61738 0.28218 0.0
H196 H 0.82195 0.62365 0.3557 0.0
H197 H 0.88786 0.68361 0.3149 0.0
S198 S 0.96724 0.46806 0.26429 0.0
N199 N 0.91141 0.46852 0.29921 0.0
N200 N 0.98286 0.53384 0.25445 0.0
C201 C 0.94223 0.5594 0.2804 0.0
C202 C 0.9033 0.52397 0.30455 0.0
C203 C 0.39636 0.40118 0.80691 0.0
C204 C 0.41891 0.44568 0.78002 0.0
C205 C 0.43037 0.35904 0.826 0.0
C206 C 0.48826 0.35981 0.81899 0.0
H207 H 0.35183 0.3971 0.81112 0.0
H208 H 0.41073 0.3242 0.84411 0.0
S209 S 0.56882 0.47222 0.75893 0.0
N210 N 0.50341 0.49157 0.75293 0.0
N211 N 0.56722 0.41272 0.78888 0.0
C212 C 0.51166 0.40625 0.79545 0.0
C213 C 0.47704 0.44907 0.77596 0.0
C214 C 0.59487 0.97695 0.27539 0.0
C215 C 0.58861 0.92008 0.28579 0.0
C216 C 0.63671 1.00833 0.29714 0.0
C217 C 0.67438 0.98429 0.3302 0.0
H218 H 0.56851 0.99718 0.24879 0.0
H219 H 0.64073 0.05142 0.28635 0.0
S220 S 0.67206 0.83844 0.37438 0.0
N221 N 0.62061 0.84207 0.33498 0.0
N222 N 0.69942 0.90113 0.37576 0.0
C223 C 0.66649 0.92831 0.34339 0.0
C224 C 0.6236 0.89623 0.32123 0.0
C225 C 0.1135 0.18039 0.85237 0.0
C226 C 0.05516 0.17699 0.85361 0.0
C227 C 0.14559 0.14054 0.82821 0.0
C228 C 0.12072 0.09574 0.80402 0.0
H229 H 0.13463 0.21556 0.86811 0.0
H230 H 0.19007 0.14675 0.8264 0.0
S231 S 0.97039 0.06234 0.80321 0.0
N232 N 0.97441 0.1209 0.83376 0.0
N233 N 0.03479 0.04643 0.78806 0.0
C234 C 0.06284 0.08943 0.8081 0.0
C235 C 0.03009 0.12987 0.833 0.0
C236 C 0.11756 0.49009 0.74932 0.0
C237 C 0.09914 0.43581 0.75875 0.0
C238 C 0.16316 0.50027 0.71891 0.0
C239 C 0.19295 0.45649 0.69716 0.0
H240 H 0.09799 0.52502 0.76715 0.0
H241 H 0.17683 0.5428 0.71468 0.0
S242 S 0.15753 0.30691 0.70536 0.0
N243 N 0.1108 0.33785 0.73989 0.0
N244 N 0.19701 0.357 0.68328 0.0
C245 C 0.17274 0.40221 0.70367 0.0
C246 C 0.12573 0.39186 0.73428 0.0
C247 C 0.64585 0.63227 0.23718 0.0
C248 C 0.60127 0.60086 0.25578 0.0
C249 C 0.63663 0.68085 0.21 0.0
C250 C 0.58251 0.69955 0.19974 0.0
H251 H 0.68826 0.62113 0.24597 0.0
H252 H 0.67227 0.70501 0.19861 0.0
S253 S 0.45166 0.62731 0.23408 0.0
N254 N 0.50131 0.58855 0.25788 0.0
N255 N 0.48361 0.67895 0.20613 0.0
C256 C 0.53762 0.6661 0.2151 0.0
C257 C 0.5471 0.61706 0.24332 0.0
C258 C 0.43599 0.07043 0.75058 0.0
C259 C 0.43679 0.12795 0.74157 0.0
C260 C 0.39243 0.03724 0.73406 0.0
C261 C 0.34776 0.06002 0.70771 0.0
H262 H 0.4679 0.05104 0.77259 0.0
H263 H 0.39279 0.99366 0.74389 0.0
S264 S 0.33399 0.20688 0.66793 0.0
N265 N 0.39212 0.20522 0.69955 0.0
N266 N 0.31018 0.14274 0.66862 0.0
C267 C 0.35007 0.11668 0.69518 0.0
C268 C 0.39457 0.15063 0.71207 0.0
C269 C 0.01983 0.85743 0.29156 0.0
C270 C 1.00176 0.84451 0.24433 0.0
C271 C 0.99225 0.89679 0.31979 0.0
C272 C 0.94612 0.92586 0.30177 0.0
H273 H 0.05422 0.83529 0.30801 0.0
H274 H 1.00636 0.90344 0.35665 0.0
S275 S 0.88512 0.91238 0.17891 0.0
N276 N 0.93678 0.86715 0.17953 0.0
N277 N 0.88555 0.94241 0.2327 0.0
C278 C 0.92945 0.91623 0.25365 0.0
C279 C 0.95711 0.87521 0.22492 0.0
loop_
_geom_bond_atom_site_label_1
_geom_bond_atom_site_label_2
_geom_bond_distance
_geom_bond_site_symmetry_2
_ccdc_geom_bond_type
Mg0 O7 2.141 . S
Mg0 O8 2.048 1_455 S
Mg0 O9 2.048 . S
Mg0 O12 2.141 . S
C1 O2 1.313 . S
C1 O8 1.195 . S
O2 C1 1.313 . S
C3 O4 1.245 . S
C3 O12 1.289 . S
O4 C3 1.245 . S
C5 O6 1.245 . S
C5 O7 1.289 . S
O6 C5 1.245 . S
O7 Mg0 2.141 . S
O7 C5 1.289 . S
O8 Mg0 2.048 1_655 S
O8 C1 1.195 . S
O9 Mg0 2.048 . S
O9 C10 1.195 1_455 S
C10 O9 1.195 1_655 S
C10 O11 1.313 . S
O11 C10 1.313 . S
O12 Mg0 2.141 . S
O12 C3 1.289 . S
Mg13 O20 2.141 . S
Mg13 O21 2.048 . S
Mg13 O22 2.048 . S
Mg13 O25 2.141 . S
C14 O15 1.313 . S
C14 O21 1.195 . S
O15 C14 1.313 . S
C16 O17 1.245 . S
C16 O25 1.289 . S
O17 C16 1.245 . S
C18 O19 1.245 . S
C18 O20 1.289 . S
O19 C18 1.245 . S
O20 Mg13 2.141 . S
O20 C18 1.289 . S
O21 Mg13 2.048 . S
O21 C14 1.195 . S
O22 Mg13 2.048 . S
O22 C23 1.195 . S
C23 O22 1.195 . S
C23 O24 1.313 . S
O24 C23 1.313 . S
O25 Mg13 2.141 . S
O25 C16 1.289 . S
Mg26 O33 2.141 . S
Mg26 O34 2.048 . S
Mg26 O35 2.048 . S
Mg26 O38 2.141 . S
C27 O28 1.313 . S
C27 O34 1.195 . S
O28 C27 1.313 . S
C29 O30 1.245 . S
C29 O38 1.289 . S
O30 C29 1.245 . S
C31 O32 1.245 . S
C31 O33 1.289 . S
O32 C31 1.245 . S
O33 Mg26 2.141 . S
O33 C31 1.289 . S
O34 Mg26 2.048 . S
O34 C27 1.195 . S
O35 Mg26 2.048 . S
O35 C36 1.195 . S
C36 O35 1.195 . S
C36 O37 1.313 . S
O37 C36 1.313 . S
O38 Mg26 2.141 . S
O38 C29 1.289 . S
Mg39 O46 2.141 . S
Mg39 O47 2.048 1_565 S
Mg39 O48 2.048 . S
Mg39 O51 2.141 . S
C40 O41 1.313 . S
C40 O47 1.195 . S
O41 C40 1.313 . S
C42 O43 1.245 . S
C42 O51 1.289 . S
O43 C42 1.245 . S
C44 O45 1.245 . S
C44 O46 1.289 . S
O45 C44 1.245 . S
O46 Mg39 2.141 . S
O46 C44 1.289 . S
O47 Mg39 2.048 1_545 S
O47 C40 1.195 . S
O48 Mg39 2.048 . S
O48 C49 1.195 1_565 S
C49 O48 1.195 1_545 S
C49 O50 1.313 . S
O50 C49 1.313 . S
O51 Mg39 2.141 . S
O51 C42 1.289 . S
Mg52 O59 2.141 . S
Mg52 O60 2.048 . S
Mg52 O61 2.048 1_655 S
Mg52 O64 2.141 . S
C53 O54 1.313 . S
C53 O60 1.195 1_455 S
O54 C53 1.313 . S
C55 O56 1.245 . S
C55 O64 1.289 . S
O56 C55 1.245 . S
C57 O58 1.245 . S
C57 O59 1.289 . S
O58 C57 1.245 . S
O59 Mg52 2.141 . S
O59 C57 1.289 . S
O60 Mg52 2.048 . S
O60 C53 1.195 1_655 S
O61 Mg52 2.048 1_455 S
O61 C62 1.195 . S
C62 O61 1.195 . S
C62 O63 1.313 . S
O63 C62 1.313 . S
O64 Mg52 2.141 . S
O64 C55 1.289 . S
Mg65 O72 2.141 . S
Mg65 O73 2.048 . S
Mg65 O74 2.048 . S
Mg65 O77 2.141 . S
C66 O67 1.313 . S
C66 O73 1.195 . S
O67 C66 1.313 . S
C68 O69 1.245 . S
C68 O77 1.289 . S
O69 C68 1.245 . S
C70 O71 1.245 . S
C70 O72 1.289 . S
O71 C70 1.245 . S
O72 Mg65 2.141 . S
O72 C70 1.289 . S
O73 Mg65 2.048 . S
O73 C66 1.195 . S
O74 Mg65 2.048 . S
O74 C75 1.195 . S
C75 O74 1.195 . S
C75 O76 1.313 . S
O76 C75 1.313 . S
O77 Mg65 2.141 . S
O77 C68 1.289 . S
Mg78 O85 2.141 . S
Mg78 O86 2.048 . S
Mg78 O87 2.048 . S
Mg78 O90 2.141 . S
C79 O80 1.313 . S
C79 O86 1.195 . S
O80 C79 1.313 . S
C81 O82 1.245 . S
C81 O90 1.289 . S
O82 C81 1.245 . S
C83 O84 1.245 . S
C83 O85 1.289 . S
O84 C83 1.245 . S
O85 Mg78 2.141 . S
O85 C83 1.289 . S
O86 Mg78 2.048 . S
O86 C79 1.195 . S
O87 Mg78 2.048 . S
O87 C88 1.195 . S
C88 O87 1.195 . S
C88 O89 1.313 . S
O89 C88 1.313 . S
O90 Mg78 2.141 . S
O90 C81 1.289 . S
Mg91 O98 2.141 . S
Mg91 O99 2.048 . S
Mg91 O100 2.048 1_545 S
Mg91 O103 2.141 . S
C92 O93 1.313 . S
C92 O99 1.195 1_565 S
O93 C92 1.313 . S
C94 O95 1.245 . S
C94 O103 1.289 . S
O95 C94 1.245 . S
C96 O97 1.245 . S
C96 O98 1.289 . S
O97 C96 1.245 . S
O98 Mg91 2.141 . S
O98 C96 1.289 . S
O99 Mg91 2.048 . S
O99 C92 1.195 1_545 S
O100 Mg91 2.048 1_565 S
O100 C101 1.195 . S
C101 O100 1.195 . S
C101 O102 1.313 . S
O102 C101 1.313 . S
O103 Mg91 2.141 . S
O103 C94 1.289 . S
C104 C105 1.369 . S
C104 C106 1.419 1_656 S
C104 H108 0.930 . S
C105 C104 1.369 . S
C105 C114 1.429 . S
C106 C104 1.419 1_454 S
C106 C107 1.363 . S
C106 H109 0.929 . S
C107 C106 1.363 . S
C107 C113 1.428 . S
H108 C104 0.930 . S
H109 C106 0.929 . S
S110 N111 1.613 1_455 S
S110 N112 1.610 . S
N111 S110 1.613 1_655 S
N111 C114 1.350 . S
N112 S110 1.610 . S
N112 C113 1.351 1_556 S
C113 C107 1.428 . S
C113 N112 1.351 1_554 S
C113 C114 1.434 1_454 S
C114 C105 1.429 . S
C114 N111 1.350 . S
C114 C113 1.434 1_656 S
C115 C116 1.369 . S
C115 C117 1.419 . S
C115 H119 0.930 . S
C116 C115 1.369 . S
C116 C125 1.429 . S
C117 C115 1.419 . S
C117 C118 1.363 . S
C117 H120 0.929 . S
C118 C117 1.363 . S
C118 C124 1.428 . S
H119 C115 0.930 . S
H120 C117 0.929 . S
S121 N122 1.613 . S
S121 N123 1.610 . S
N122 S121 1.613 . S
N122 C125 1.350 . S
N123 S121 1.610 . S
N123 C124 1.351 . S
C124 C118 1.428 . S
C124 N123 1.351 . S
C124 C125 1.434 . S
C125 C116 1.429 . S
C125 N122 1.350 . S
C125 C124 1.434 . S
C126 C127 1.369 . S
C126 C128 1.419 1_554 S
C126 H130 0.930 . S
C127 C126 1.369 . S
C127 C136 1.429 1_565 S
C128 C126 1.419 1_556 S
C128 C129 1.363 1_565 S
C128 H131 0.929 . S
C129 C128 1.363 1_545 S
C129 C135 1.428 . S
H130 C126 0.930 . S
H131 C128 0.929 . S
S132 N133 1.613 1_556 S
S132 N134 1.610 . S
N133 S132 1.613 1_554 S
N133 C136 1.350 . S
N134 S132 1.610 . S
N134 C135 1.351 . S
C135 C129 1.428 . S
C135 N134 1.351 . S
C135 C136 1.434 1_556 S
C136 C127 1.429 1_545 S
C136 N133 1.350 . S
C136 C135 1.434 1_554 S
C137 C138 1.369 . S
C137 C139 1.419 . S
C137 H141 0.930 . S
C138 C137 1.369 . S
C138 C147 1.429 1_645 S
C139 C137 1.419 . S
C139 C140 1.363 1_645 S
C139 H142 0.929 . S
C140 C139 1.363 1_465 S
C140 C146 1.428 . S
H141 C137 0.930 . S
H142 C139 0.929 . S
S143 N144 1.613 . S
S143 N145 1.610 . S
N144 S143 1.613 . S
N144 C147 1.350 . S
N145 S143 1.610 . S
N145 C146 1.351 . S
C146 C140 1.428 . S
C146 N145 1.351 . S
C146 C147 1.434 . S
C147 C138 1.429 1_465 S
C147 N144 1.350 . S
C147 C146 1.434 . S
C148 C149 1.369 . S
C148 C150 1.419 . S
C148 H152 0.930 . S
C149 C148 1.369 . S
C149 C158 1.429 . S
C150 C148 1.419 . S
C150 C151 1.363 . S
C150 H153 0.929 . S
C151 C150 1.363 . S
C151 C157 1.428 . S
H152 C148 0.930 . S
H153 C150 0.929 . S
S154 N155 1.613 . S
S154 N156 1.610 . S
N155 S154 1.613 . S
N155 C158 1.350 . S
N156 S154 1.610 . S
N156 C157 1.351 . S
C157 C151 1.428 . S
C157 N156 1.351 . S
C157 C158 1.434 . S
C158 C149 1.429 . S
C158 N155 1.350 . S
C158 C157 1.434 . S
C159 C160 1.369 . S
C159 C161 1.419 . S
C159 H163 0.930 . S
C160 C159 1.369 . S
C160 C169 1.429 . S
C161 C159 1.419 . S
C161 C162 1.363 . S
C161 H164 0.929 . S
C162 C161 1.363 . S
C162 C168 1.428 . S
H163 C159 0.930 . S
H164 C161 0.929 . S
S165 N166 1.613 . S
S165 N167 1.610 . S
N166 S165 1.613 . S
N166 C169 1.350 . S
N167 S165 1.610 . S
N167 C168 1.351 . S
C168 C162 1.428 . S
C168 N167 1.351 . S
C168 C169 1.434 . S
C169 C160 1.429 . S
C169 N166 1.350 . S
C169 C168 1.434 . S
C170 C171 1.369 . S
C170 C172 1.419 . S
C170 H174 0.930 . S
C171 C170 1.369 . S
C171 C180 1.429 . S
C172 C170 1.419 . S
C172 C173 1.363 . S
C172 H175 0.929 . S
C173 C172 1.363 . S
C173 C179 1.428 . S
H174 C170 0.930 . S
H175 C172 0.929 . S
S176 N177 1.613 . S
S176 N178 1.610 . S
N177 S176 1.613 . S
N177 C180 1.350 . S
N178 S176 1.610 . S
N178 C179 1.351 . S
C179 C173 1.428 . S
C179 N178 1.351 . S
C179 C180 1.434 . S
C180 C171 1.429 . S
C180 N177 1.350 . S
C180 C179 1.434 . S
C181 C182 1.369 . S
C181 C183 1.419 . S
C181 H185 0.930 . S
C182 C181 1.369 . S
C182 C191 1.429 . S
C183 C181 1.419 . S
C183 C184 1.363 . S
C183 H186 0.929 . S
C184 C183 1.363 . S
C184 C190 1.428 . S
H185 C181 0.930 . S
H186 C183 0.929 . S
S187 N188 1.613 . S
S187 N189 1.610 . S
N188 S187 1.613 . S
N188 C191 1.350 . S
N189 S187 1.610 . S
N189 C190 1.351 . S
C190 C184 1.428 . S
C190 N189 1.351 . S
C190 C191 1.434 . S
C191 C182 1.429 . S
C191 N188 1.350 . S
C191 C190 1.434 . S
C192 C193 1.369 . S
C192 C194 1.419 . S
C192 H196 0.930 . S
C193 C192 1.369 . S
C193 C202 1.429 . S
C194 C192 1.419 . S
C194 C195 1.363 . S
C194 H197 0.929 . S
C195 C194 1.363 . S
C195 C201 1.428 . S
H196 C192 0.930 . S
H197 C194 0.929 . S
S198 N199 1.613 . S
S198 N200 1.610 . S
N199 S198 1.613 . S
N199 C202 1.350 . S
N200 S198 1.610 . S
N200 C201 1.351 . S
C201 C195 1.428 . S
C201 N200 1.351 . S
C201 C202 1.434 . S
C202 C193 1.429 . S
C202 N199 1.350 . S
C202 C201 1.434 . S
C203 C204 1.369 . S
C203 C205 1.419 . S
C203 H207 0.930 . S
C204 C203 1.369 . S
C204 C213 1.429 . S
C205 C203 1.419 . S
C205 C206 1.363 . S
C205 H208 0.929 . S
C206 C205 1.363 . S
C206 C212 1.428 . S
H207 C203 0.930 . S
H208 C205 0.929 . S
S209 N210 1.613 . S
S209 N211 1.610 . S
N210 S209 1.613 . S
N210 C213 1.350 . S
N211 S209 1.610 . S
N211 C212 1.351 . S
C212 C206 1.428 . S
C212 N211 1.351 . S
C212 C213 1.434 . S
C213 C204 1.429 . S
C213 N210 1.350 . S
C213 C212 1.434 . S
C214 C215 1.369 . S
C214 C216 1.419 . S
C214 H218 0.930 . S
C215 C214 1.369 . S
C215 C224 1.429 . S
C216 C214 1.419 . S
C216 C217 1.363 . S
C216 H219 0.929 1_565 S
C217 C216 1.363 . S
C217 C223 1.428 . S
H218 C214 0.930 . S
H219 C216 0.929 1_545 S
S220 N221 1.613 . S
S220 N222 1.610 . S
N221 S220 1.613 . S
N221 C224 1.350 . S
N222 S220 1.610 . S
N222 C223 1.351 . S
C223 C217 1.428 . S
C223 N222 1.351 . S
C223 C224 1.434 . S
C224 C215 1.429 . S
C224 N221 1.350 . S
C224 C223 1.434 . S
C225 C226 1.369 . S
C225 C227 1.419 . S
C225 H229 0.930 . S
C226 C225 1.369 . S
C226 C235 1.429 1_455 S
C227 C225 1.419 . S
C227 C228 1.363 . S
C227 H230 0.929 . S
C228 C227 1.363 . S
C228 C234 1.428 . S
H229 C225 0.930 . S
H230 C227 0.929 . S
S231 N232 1.613 . S
S231 N233 1.610 . S
N232 S231 1.613 . S
N232 C235 1.350 . S
N233 S231 1.610 . S
N233 C234 1.351 1_655 S
C234 C228 1.428 . S
C234 N233 1.351 1_455 S
C234 C235 1.434 1_455 S
C235 C226 1.429 1_655 S
C235 N232 1.350 . S
C235 C234 1.434 1_655 S
C236 C237 1.369 . S
C236 C238 1.419 . S
C236 H240 0.930 . S
C237 C236 1.369 . S
C237 C246 1.429 . S
C238 C236 1.419 . S
C238 C239 1.363 . S
C238 H241 0.929 . S
C239 C238 1.363 . S
C239 C245 1.428 . S
H240 C236 0.930 . S
H241 C238 0.929 . S
S242 N243 1.613 . S
S242 N244 1.610 . S
N243 S242 1.613 . S
N243 C246 1.350 . S
N244 S242 1.610 . S
N244 C245 1.351 . S
C245 C239 1.428 . S
C245 N244 1.351 . S
C245 C246 1.434 . S
C246 C237 1.429 . S
C246 N243 1.350 . S
C246 C245 1.434 . S
C247 C248 1.369 . S
C247 C249 1.419 . S
C247 H251 0.930 . S
C248 C247 1.369 . S
C248 C257 1.429 . S
C249 C247 1.419 . S
C249 C250 1.363 . S
C249 H252 0.929 . S
C250 C249 1.363 . S
C250 C256 1.428 . S
H251 C247 0.930 . S
H252 C249 0.929 . S
S253 N254 1.613 . S
S253 N255 1.610 . S
N254 S253 1.613 . S
N254 C257 1.350 . S
N255 S253 1.610 . S
N255 C256 1.351 . S
C256 C250 1.428 . S
C256 N255 1.351 . S
C256 C257 1.434 . S
C257 C248 1.429 . S
C257 N254 1.350 . S
C257 C256 1.434 . S
C258 C259 1.369 . S
C258 C260 1.419 . S
C258 H262 0.930 . S
C259 C258 1.369 . S
C259 C268 1.429 . S
C260 C258 1.419 . S
C260 C261 1.363 . S
C260 H263 0.929 1_545 S
C261 C260 1.363 . S
C261 C267 1.428 . S
H262 C258 0.930 . S
H263 C260 0.929 1_565 S
S264 N265 1.613 . S
S264 N266 1.610 . S
N265 S264 1.613 . S
N265 C268 1.350 . S
N266 S264 1.610 . S
N266 C267 1.351 . S
C267 C261 1.428 . S
C267 N266 1.351 . S
C267 C268 1.434 . S
C268 C259 1.429 . S
C268 N265 1.350 . S
C268 C267 1.434 . S
C269 C270 1.369 . S
C269 C271 1.419 . S
C269 H273 0.930 1_655 S
C270 C269 1.369 . S
C270 C279 1.429 . S
C271 C269 1.419 . S
C271 C272 1.363 . S
C271 H274 0.929 . S
C272 C271 1.363 . S
C272 C278 1.428 . S
H273 C269 0.930 1_455 S
H274 C271 0.929 . S
S275 N276 1.613 . S
S275 N277 1.610 . S
N276 S275 1.613 . S
N276 C279 1.350 . S
N277 S275 1.610 . S
N277 C278 1.351 . S
C278 C272 1.428 . S
C278 N277 1.351 . S
C278 C279 1.434 . S
C279 C270 1.429 . S
C279 N276 1.350 . S
C279 C278 1.434 . S
C105 C55 1.807 . S
C107 C5 1.803 . S
C116 C18 1.804 . S
C118 C68 1.806 . S
C127 C31 1.808 . S
C129 C81 1.802 . S
C138 C94 1.802 . S
C140 C44 1.807 . S
C149 C3 1.853 . S
C151 C29 1.853 . S
C160 C16 1.853 . S
C162 C42 1.853 . S
C171 C83 1.853 . S
C173 C57 1.853 . S
C182 C70 1.853 . S
C184 C96 1.853 . S
C193 C66 1.484 . S
C195 C1 1.549 . S
C204 C14 1.550 . S
C206 C79 1.487 . S
C215 C27 1.551 . S
C217 C92 1.484 . S
C226 C53 1.489 . S
C228 C40 1.550 . S
C237 C62 1.550 . S
C239 C23 1.482 . S
C248 C75 1.551 . S
C250 C36 1.489 . S
C259 C88 1.551 . S
C261 C49 1.487 . S
C270 C10 1.482 . S
C272 C101 1.550 . S
