# Generated by pormake.
# Topology lcy-e, (6)-cn, num edge types: 1
# Building blocks:
#     Node 0, Type 0, BuildingBlock: MIFKUJ_clean_sbu_0, # of connection points: 6
#     Node 1, Type 0, BuildingBlock: MIFKUJ_clean_sbu_0, # of connection points: 6
#     Node 2, Type 0, BuildingBlock: MIFKUJ_clean_sbu_0, # of connection points: 6
#     Node 3, Type 0, BuildingBlock: MIFKUJ_clean_sbu_0, # of connection points: 6
#     Node 4, Type 0, BuildingBlock: MIFKUJ_clean_sbu_0, # of connection points: 6
#     Node 5, Type 0, BuildingBlock: MIFKUJ_clean_sbu_0, # of connection points: 6
#     Node 6, Type 0, BuildingBlock: MIFKUJ_clean_sbu_0, # of connection points: 6
#     Node 7, Type 0, BuildingBlock: MIFKUJ_clean_sbu_0, # of connection points: 6
#     Node 8, Type 0, BuildingBlock: MIFKUJ_clean_sbu_0, # of connection points: 6
#     Node 9, Type 0, BuildingBlock: MIFKUJ_clean_sbu_0, # of connection points: 6
#     Node 10, Type 0, BuildingBlock: MIFKUJ_clean_sbu_0, # of connection points: 6
#     Node 11, Type 0, BuildingBlock: MIFKUJ_clean_sbu_0, # of connection points: 6
#     Edge 12, Type (0, 0), BuildingBlock: EZIPEK_clean_linker_0, # of connection points: 2
#     Edge 13, Type (0, 0), BuildingBlock: EZIPEK_clean_linker_0, # of connection points: 2
#     Edge 14, Type (0, 0), BuildingBlock: EZIPEK_clean_linker_0, # of connection points: 2
#     Edge 15, Type (0, 0), BuildingBlock: EZIPEK_clean_linker_0, # of connection points: 2
#     Edge 16, Type (0, 0), BuildingBlock: EZIPEK_clean_linker_0, # of connection points: 2
#     Edge 17, Type (0, 0), BuildingBlock: EZIPEK_clean_linker_0, # of connection points: 2
#     Edge 18, Type (0, 0), BuildingBlock: EZIPEK_clean_linker_0, # of connection points: 2
#     Edge 19, Type (0, 0), BuildingBlock: EZIPEK_clean_linker_0, # of connection points: 2
#     Edge 20, Type (0, 0), BuildingBlock: EZIPEK_clean_linker_0, # of connection points: 2
#     Edge 21, Type (0, 0), BuildingBlock: EZIPEK_clean_linker_0, # of connection points: 2
#     Edge 22, Type (0, 0), BuildingBlock: EZIPEK_clean_linker_0, # of connection points: 2
#     Edge 23, Type (0, 0), BuildingBlock: EZIPEK_clean_linker_0, # of connection points: 2
#     Edge 24, Type (0, 0), BuildingBlock: EZIPEK_clean_linker_0, # of connection points: 2
#     Edge 25, Type (0, 0), BuildingBlock: EZIPEK_clean_linker_0, # of connection points: 2
#     Edge 26, Type (0, 0), BuildingBlock: EZIPEK_clean_linker_0, # of connection points: 2
#     Edge 27, Type (0, 0), BuildingBlock: EZIPEK_clean_linker_0, # of connection points: 2
#     Edge 28, Type (0, 0), BuildingBlock: EZIPEK_clean_linker_0, # of connection points: 2
#     Edge 29, Type (0, 0), BuildingBlock: EZIPEK_clean_linker_0, # of connection points: 2
#     Edge 30, Type (0, 0), BuildingBlock: EZIPEK_clean_linker_0, # of connection points: 2
#     Edge 31, Type (0, 0), BuildingBlock: EZIPEK_clean_linker_0, # of connection points: 2
#     Edge 32, Type (0, 0), BuildingBlock: EZIPEK_clean_linker_0, # of connection points: 2
#     Edge 33, Type (0, 0), BuildingBlock: EZIPEK_clean_linker_0, # of connection points: 2
#     Edge 34, Type (0, 0), BuildingBlock: EZIPEK_clean_linker_0, # of connection points: 2
#     Edge 35, Type (0, 0), BuildingBlock: EZIPEK_clean_linker_0, # of connection points: 2
#     Edge 36, Type (0, 0), BuildingBlock: EZIPEK_clean_linker_0, # of connection points: 2
#     Edge 37, Type (0, 0), BuildingBlock: EZIPEK_clean_linker_0, # of connection points: 2
#     Edge 38, Type (0, 0), BuildingBlock: EZIPEK_clean_linker_0, # of connection points: 2
#     Edge 39, Type (0, 0), BuildingBlock: EZIPEK_clean_linker_0, # of connection points: 2
#     Edge 40, Type (0, 0), BuildingBlock: EZIPEK_clean_linker_0, # of connection points: 2
#     Edge 41, Type (0, 0), BuildingBlock: EZIPEK_clean_linker_0, # of connection points: 2
#     Edge 42, Type (0, 0), BuildingBlock: EZIPEK_clean_linker_0, # of connection points: 2
#     Edge 43, Type (0, 0), BuildingBlock: EZIPEK_clean_linker_0, # of connection points: 2
#     Edge 44, Type (0, 0), BuildingBlock: EZIPEK_clean_linker_0, # of connection points: 2
#     Edge 45, Type (0, 0), BuildingBlock: EZIPEK_clean_linker_0, # of connection points: 2
#     Edge 46, Type (0, 0), BuildingBlock: EZIPEK_clean_linker_0, # of connection points: 2
#     Edge 47, Type (0, 0), BuildingBlock: EZIPEK_clean_linker_0, # of connection points: 2
# Relax obj value: 0.186
# Max RMSD: 0.294
# Mean RMSD: 0.243
data_MOF--net-lcy-e--node1-MIFKUJ_clean_sbu_0--edge1-EZIPEK_clean_linker_0
_symmetry_space_group_name_H-M    P1
_symmetry_Int_Tables_number       1
_symmetry_cell_setting            triclinic
loop_
_symmetry_equiv_pos_as_xyz
'x, y, z'
_cell_length_a     28.14035
_cell_length_b     30.728671
_cell_length_c     30.538307
_cell_angle_alpha  85.629416
_cell_angle_beta   88.207451
_cell_angle_gamma 87.58162
loop_
_atom_site_label
_atom_site_type_symbol
_atom_site_fract_x
_atom_site_fract_y
_atom_site_fract_z
_atom_type_partial_charge
Zn0 Zn 0.13186 0.23622 0.41604 0.0
Zn1 Zn 0.08744 0.11471 0.45509 0.0
C2 C 0.17493 0.29675 0.4618 0.0
O3 O 0.12975 0.30902 0.46439 0.0
C4 C 0.01728 0.08181 0.40462 0.0
O5 O 0.0418 0.04505 0.41334 0.0
O6 O 0.1162 0.26538 0.35633 0.0
O7 O 0.14061 0.17348 0.41627 0.0
O8 O 0.14877 0.10371 0.42118 0.0
C9 C 0.12559 0.30533 0.34782 0.0
O10 O 0.14221 0.32774 0.37828 0.0
O11 O 0.18779 0.26385 0.44083 0.0
C12 C 0.05254 0.06885 0.53449 0.0
O13 O 0.02927 0.10601 0.54028 0.0
O14 O 0.07894 0.06489 0.50037 0.0
O15 O 0.07549 0.17021 0.48688 0.0
O16 O 0.08068 0.24049 0.46265 0.0
O17 O 0.03362 0.1173 0.41463 0.0
C18 C 0.16375 0.13983 0.40563 0.0
C19 C 0.07105 0.2108 0.49273 0.0
Zn20 Zn 0.95314 0.89669 0.67145 0.0
Zn21 Zn 0.07989 0.86569 0.72672 0.0
C22 C 0.89288 0.95507 0.70936 0.0
O23 O 0.86747 0.92055 0.70665 0.0
C24 C 0.11331 0.79007 0.68754 0.0
O25 O 0.15174 0.81284 0.68131 0.0
O26 O 0.9114 0.88033 0.62128 0.0
O27 O 0.02346 0.88924 0.66299 0.0
O28 O 0.09484 0.90835 0.67429 0.0
C29 C 0.90391 0.90736 0.5882 0.0
O30 O 0.92465 0.94499 0.58582 0.0
O31 O 0.93411 0.9558 0.69135 0.0
C32 C 0.12839 0.83744 0.80742 0.0
O33 O 0.09207 0.81209 0.81399 0.0
O34 O 0.13012 0.86415 0.77347 0.0
O35 O 0.01269 0.8826 0.74718 0.0
O36 O 0.94567 0.8565 0.72731 0.0
O37 O 0.07664 0.80684 0.70556 0.0
C38 C 0.05692 0.91466 0.65279 0.0
C39 C 0.97938 0.85598 0.75456 0.0
Zn40 Zn 0.31896 0.72368 0.95822 0.0
Zn41 Zn 0.3582 0.85417 0.97904 0.0
C42 C 0.27898 0.64844 0.99284 0.0
O43 O 0.32423 0.63768 0.98683 0.0
C44 C 0.425 0.88584 0.90663 0.0
O45 O 0.38845 0.89079 0.88076 0.0
O46 O 0.35222 0.69678 0.90668 0.0
O47 O 0.30325 0.78712 0.94327 0.0
O48 O 0.3019 0.85821 0.93803 0.0
C49 C 0.32523 0.68356 0.87834 0.0
O50 O 0.27889 0.68776 0.88418 0.0
O51 O 0.26387 0.68686 0.98026 0.0
C52 C 0.38463 0.91391 0.03959 0.0
O53 O 0.42658 0.89695 0.02875 0.0
O54 O 0.34759 0.89873 0.02455 0.0
O55 O 0.36867 0.79305 0.00893 0.0
O56 O 0.36108 0.72177 0.01019 0.0
O57 O 0.41943 0.87021 0.94608 0.0
C58 C 0.28469 0.82302 0.92758 0.0
C59 C 0.37533 0.75494 0.02777 0.0
Zn60 Zn 0.4154 0.11767 0.2521 0.0
Zn61 Zn 0.48355 0.1218 0.16974 0.0
C62 C 0.48109 0.16979 0.30366 0.0
O63 O 0.51911 0.15059 0.28677 0.0
C64 C 0.42397 0.06838 0.12025 0.0
O65 O 0.43558 0.09629 0.08734 0.0
O66 O 0.35575 0.10217 0.28537 0.0
O67 O 0.38843 0.15005 0.19703 0.0
O68 O 0.4535 0.18208 0.17487 0.0
C69 C 0.33217 0.13661 0.29492 0.0
O70 O 0.34742 0.17507 0.28055 0.0
O71 O 0.43996 0.16143 0.29156 0.0
C72 C 0.54584 0.09368 0.10066 0.0
O73 O 0.5319 0.0551 0.11584 0.0
O74 O 0.52984 0.12759 0.11832 0.0
O75 O 0.52256 0.09688 0.22044 0.0
O76 O 0.46189 0.06405 0.25394 0.0
O77 O 0.43586 0.07564 0.15874 0.0
C78 C 0.40883 0.184 0.18133 0.0
C79 C 0.50664 0.06772 0.24822 0.0
Zn80 Zn 0.59844 0.31647 0.48278 0.0
Zn81 Zn 0.62887 0.26011 0.59611 0.0
C82 C 0.52625 0.26725 0.44813 0.0
O83 O 0.5375 0.23905 0.48105 0.0
C84 C 0.69078 0.32879 0.61599 0.0
O85 O 0.65395 0.34245 0.63938 0.0
O86 O 0.61748 0.37891 0.46435 0.0
O87 O 0.58155 0.31146 0.54387 0.0
O88 O 0.57021 0.2964 0.61254 0.0
C89 C 0.60024 0.39727 0.4291 0.0
O90 O 0.57889 0.37372 0.40225 0.0
O91 O 0.54183 0.30531 0.44707 0.0
C92 C 0.64041 0.17809 0.65456 0.0
O93 O 0.63916 0.15402 0.62091 0.0
O94 O 0.63695 0.21943 0.64903 0.0
O95 O 0.63053 0.22404 0.54127 0.0
O96 O 0.64659 0.26419 0.47795 0.0
O97 O 0.68741 0.29586 0.5937 0.0
C98 C 0.55802 0.31862 0.5783 0.0
C99 C 0.64576 0.22737 0.5011 0.0
Zn100 Zn 0.95708 0.3478 0.70532 0.0
Zn101 Zn 0.97532 0.39211 0.82099 0.0
C102 C 0.00368 0.30384 0.63493 0.0
O103 O 0.02802 0.33947 0.6299 0.0
C104 C 0.92164 0.4565 0.86492 0.0
O105 O 0.93341 0.42959 0.89867 0.0
O106 O 0.89696 0.37963 0.68363 0.0
O107 O 0.93609 0.31326 0.76061 0.0
O108 O 0.94086 0.33635 0.82733 0.0
C109 C 0.88382 0.37537 0.64475 0.0
O110 O 0.91592 0.36587 0.61452 0.0
O111 O 0.97197 0.29988 0.66517 0.0
C112 C 0.05979 0.38115 0.87467 0.0
O113 O 0.08378 0.37094 0.83909 0.0
O114 O 0.01534 0.38985 0.87358 0.0
O115 O 0.02349 0.40309 0.77214 0.0
O116 O 0.01654 0.38365 0.70441 0.0
O117 O 0.93115 0.44525 0.82626 0.0
C118 C 0.92925 0.30815 0.80187 0.0
C119 C 0.03927 0.40173 0.73293 0.0
Zn120 Zn 0.88676 0.70156 0.97045 0.0
Zn121 Zn 0.84183 0.7291 0.10091 0.0
C122 C 0.93143 0.73526 0.8958 0.0
O123 O 0.88881 0.72612 0.88376 0.0
C124 C 0.7806 0.65636 0.1288 0.0
O125 O 0.8193 0.63099 0.13073 0.0
O126 O 0.86251 0.64864 0.94301 0.0
O127 O 0.8956 0.69183 0.03431 0.0
O128 O 0.89958 0.6875 0.10506 0.0
C129 C 0.89566 0.62245 0.93083 0.0
O130 O 0.93997 0.63146 0.9374 0.0
O131 O 0.9435 0.72458 0.9351 0.0
C132 C 0.81506 0.80377 0.15128 0.0
O133 O 0.79025 0.81709 0.1167 0.0
O134 O 0.84256 0.76998 0.14991 0.0
O135 O 0.83189 0.75957 0.0397 0.0
O136 O 0.84196 0.75383 0.96774 0.0
O137 O 0.78313 0.69642 0.11588 0.0
C138 C 0.91574 0.67571 0.0685 0.0
C139 C 0.82746 0.77532 0.0001 0.0
Zn140 Zn 0.51198 0.64058 0.25702 0.0
Zn141 Zn 0.44845 0.62044 0.35606 0.0
C142 C 0.44538 0.69618 0.19823 0.0
O143 O 0.41146 0.69 0.22836 0.0
C144 C 0.54114 0.57384 0.37966 0.0
O145 O 0.55781 0.6113 0.38851 0.0
O146 O 0.57508 0.6192 0.23316 0.0
O147 O 0.5276 0.67967 0.30465 0.0
O148 O 0.47254 0.68063 0.35785 0.0
C149 C 0.59834 0.64865 0.21165 0.0
O150 O 0.58152 0.68923 0.20917 0.0
O151 O 0.48702 0.68043 0.20571 0.0
C152 C 0.37107 0.58848 0.41507 0.0
O153 O 0.35422 0.57195 0.38063 0.0
O154 O 0.40809 0.61093 0.41115 0.0
O155 O 0.40882 0.60848 0.30531 0.0
O156 O 0.4709 0.58715 0.26491 0.0
O157 O 0.49976 0.5723 0.36443 0.0
C158 C 0.50957 0.69585 0.33877 0.0
C159 C 0.42726 0.58471 0.27657 0.0
Zn160 Zn 0.24393 0.42542 0.15476 0.0
Zn161 Zn 0.12034 0.47187 0.11585 0.0
C162 C 0.31871 0.45852 0.19646 0.0
O163 O 0.33986 0.44262 0.16184 0.0
C164 C 0.09851 0.42599 0.04422 0.0
O165 O 0.05683 0.42652 0.06476 0.0
O166 O 0.28051 0.36863 0.1435 0.0
O167 O 0.17645 0.41631 0.1712 0.0
O168 O 0.10023 0.42839 0.16439 0.0
C169 C 0.2881 0.34182 0.17663 0.0
O170 O 0.27089 0.35132 0.2154 0.0
O171 O 0.2745 0.45359 0.20307 0.0
C172 C 0.07368 0.55099 0.08096 0.0
O173 O 0.11586 0.55806 0.06295 0.0
O174 O 0.06696 0.51632 0.1053 0.0
O175 O 0.17966 0.50245 0.12936 0.0
O176 O 0.24568 0.47114 0.10368 0.0
O177 O 0.13343 0.44244 0.06105 0.0
C178 C 0.13441 0.40842 0.18423 0.0
C179 C 0.21461 0.50261 0.10186 0.0
Zn180 Zn 0.6908 0.00603 0.89115 0.0
Zn181 Zn 0.75462 0.09726 0.89427 0.0
C182 C 0.75653 0.94929 0.94575 0.0
O183 O 0.78548 0.98176 0.94367 0.0
C184 C 0.68124 0.13799 0.83584 0.0
O185 O 0.67533 0.16894 0.86312 0.0
O186 O 0.63226 0.98168 0.86657 0.0
O187 O 0.66448 0.04949 0.93238 0.0
O188 O 0.72005 0.09268 0.95197 0.0
C189 C 0.60587 0.96318 0.89649 0.0
O190 O 0.6181 0.96249 0.93767 0.0
O191 O 0.71602 0.95468 0.92875 0.0
C192 C 0.81684 0.15978 0.85501 0.0
O193 O 0.81243 0.1349 0.82236 0.0
O194 O 0.79527 0.15012 0.89142 0.0
O195 O 0.79788 0.04809 0.87782 0.0
O196 O 0.74146 0.01814 0.84266 0.0
O197 O 0.70953 0.10576 0.84504 0.0
C198 C 0.67925 0.07682 0.95736 0.0
C199 C 0.7849 0.02751 0.84596 0.0
Zn200 Zn 0.74669 0.99165 0.39047 0.0
Zn201 Zn 0.69641 0.89263 0.3875 0.0
C202 C 0.71156 0.0695 0.42281 0.0
O203 O 0.72173 0.08053 0.38128 0.0
C204 C 0.76373 0.85511 0.326 0.0
O205 O 0.76684 0.82397 0.35784 0.0
O206 O 0.79996 0.0268 0.36363 0.0
O207 O 0.78324 0.93972 0.42069 0.0
O208 O 0.73202 0.89028 0.44458 0.0
C209 C 0.82944 0.03297 0.39289 0.0
O210 O 0.82044 0.01798 0.43363 0.0
O211 O 0.71709 0.02965 0.43698 0.0
C212 C 0.61283 0.84014 0.39392 0.0
O213 O 0.59105 0.87617 0.40575 0.0
O214 O 0.65766 0.8388 0.38705 0.0
O215 O 0.64838 0.94222 0.37686 0.0
O216 O 0.69711 0.98952 0.34391 0.0
O217 O 0.73885 0.88969 0.33242 0.0
C218 C 0.77097 0.90896 0.44818 0.0
C219 C 0.65556 0.9751 0.35017 0.0
Zn220 Zn 0.30151 0.46545 0.61549 0.0
Zn221 Zn 0.25334 0.57599 0.67013 0.0
C222 C 0.27321 0.40537 0.56778 0.0
O223 O 0.28913 0.38608 0.60468 0.0
C224 C 0.32598 0.61611 0.71678 0.0
O225 O 0.32437 0.64488 0.68271 0.0
O226 O 0.36686 0.43584 0.62242 0.0
O227 O 0.29877 0.52761 0.61785 0.0
O228 O 0.28341 0.59605 0.61058 0.0
C229 C 0.39114 0.43249 0.58686 0.0
O230 O 0.37502 0.45126 0.54995 0.0
O231 O 0.27498 0.44651 0.56111 0.0
C232 C 0.16148 0.61799 0.65575 0.0
O233 O 0.15523 0.58779 0.62851 0.0
O234 O 0.19904 0.61742 0.67766 0.0
O235 O 0.22899 0.51293 0.68081 0.0
O236 O 0.25164 0.44724 0.66129 0.0
O237 O 0.29839 0.58437 0.71781 0.0
C238 C 0.30135 0.56269 0.59409 0.0
C239 C 0.22289 0.47179 0.68245 0.0
C240 C 0.24087 0.3481 0.4674 0.0
C241 C 0.208 0.31877 0.48788 0.0
C242 C 0.21279 0.35208 0.55701 0.0
C243 C 0.24854 0.37919 0.53817 0.0
N244 N 0.30152 0.40004 0.47699 0.0
N245 N 0.17364 0.28429 0.55396 0.0
C246 C 0.26411 0.3765 0.49369 0.0
C247 C 0.19767 0.31802 0.53336 0.0
N248 N 0.24855 0.34976 0.42293 0.0
N249 N 0.19144 0.36031 0.59654 0.0
H250 H 0.16353 0.25804 0.53713 0.0
H251 H 0.16901 0.28009 0.58797 0.0
H252 H 0.19943 0.38703 0.6137 0.0
H253 H 0.16201 0.34377 0.60957 0.0
H254 H 0.26755 0.37401 0.40535 0.0
H255 H 0.23395 0.32774 0.40328 0.0
H256 H 0.31783 0.39562 0.44648 0.0
H257 H 0.31827 0.4223 0.49473 0.0
C258 C 0.80685 0.03057 0.76542 0.0
C259 C 0.81941 0.01835 0.80962 0.0
C260 C 0.89425 0.98496 0.78258 0.0
C261 C 0.87599 0.98781 0.73985 0.0
N262 N 0.81894 0.01805 0.68828 0.0
N263 N 0.87573 0.98234 0.86037 0.0
C264 C 0.83362 0.01249 0.73057 0.0
C265 C 0.86386 -0.00396 0.81836 0.0
N266 N 0.77041 0.06049 0.7568 0.0
N267 N 0.94046 0.97136 0.78902 0.0
H268 H 0.85469 0.98891 0.88784 0.0
H269 H 0.90481 0.96127 0.86784 0.0
H270 H 0.96359 0.96322 0.76335 0.0
H271 H 0.95716 0.97326 0.81874 0.0
H272 H 0.76192 0.07337 0.72537 0.0
H273 H 0.75157 0.07592 0.78141 0.0
H274 H 0.78521 0.03021 0.67944 0.0
H275 H 0.84116 0.00969 0.66201 0.0
C276 C 0.23831 0.57781 -0.00114 0.0
C277 C 0.24861 0.61665 0.01803 0.0
C278 C 0.22933 0.58312 0.09143 0.0
C279 C 0.22351 0.5426 0.07274 0.0
N280 N 0.22103 0.50085 0.00903 0.0
N281 N 0.24134 0.6611 0.07946 0.0
C282 C 0.2271 0.53991 0.02641 0.0
C283 C 0.23967 0.62088 0.06337 0.0
N284 N 0.23792 0.57815 0.95409 0.0
N285 N 0.22911 0.5847 0.13612 0.0
H286 H 0.24965 0.68909 0.05976 0.0
H287 H 0.23038 0.66777 0.11119 0.0
H288 H 0.22408 0.55765 0.15819 0.0
H289 H 0.23817 0.61187 0.15191 0.0
H290 H 0.22821 0.55215 0.93687 0.0
H291 H 0.24354 0.60655 0.93392 0.0
H292 H 0.22721 0.49526 0.97615 0.0
H293 H 0.21136 0.47281 0.02794 0.0
C294 C 0.57904 0.0168 0.2533 0.0
C295 C 0.54104 0.03918 0.27499 0.0
C296 C 0.57427 0.01305 0.34644 0.0
C297 C 0.61529 -0.00434 0.32441 0.0
N298 N 0.65749 0.9813 0.25657 0.0
N299 N 0.50404 0.06125 0.3428 0.0
C300 C 0.61794 -0.00218 0.27774 0.0
C301 C 0.53862 0.03742 0.32175 0.0
N302 N 0.57647 0.0115 0.20945 0.0
N303 N 0.56939 0.00678 0.39116 0.0
H304 H 0.47609 0.07822 0.32684 0.0
H305 H 0.50459 0.06678 0.37599 0.0
H306 H 0.59641 0.9937 0.41131 0.0
H307 H 0.53751 0.01264 0.40836 0.0
H308 H 0.60032 0.992 0.19207 0.0
H309 H 0.54732 0.02302 0.19128 0.0
H310 H 0.6648 0.98774 0.22312 0.0
H311 H 0.68432 0.96252 0.27261 0.0
C312 C 0.64132 0.17111 0.44481 0.0
C313 C 0.66364 0.18599 0.48177 0.0
C314 C 0.71423 0.11804 0.48612 0.0
C315 C 0.69005 0.10354 0.45015 0.0
N316 N 0.62075 0.10913 0.40597 0.0
N317 N 0.71949 0.1716 0.54026 0.0
C318 C 0.65029 0.12781 0.43322 0.0
C319 C 0.69918 0.1585 0.50359 0.0
N320 N 0.61347 0.19881 0.41886 0.0
N321 N 0.75279 0.09421 0.50221 0.0
H322 H 0.71418 0.20293 0.55088 0.0
H323 H 0.7406 0.15111 0.56103 0.0
H324 H 0.76312 0.06369 0.49162 0.0
H325 H 0.77578 0.10517 0.52464 0.0
H326 H 0.60041 0.19057 0.38916 0.0
H327 H 0.60889 0.23156 0.42392 0.0
H328 H 0.58818 0.12348 0.39618 0.0
H329 H 0.62649 0.07711 0.39724 0.0
C330 C 0.09498 0.46409 0.72701 0.0
C331 C 0.08708 0.41943 0.7218 0.0
C332 C 0.17279 0.40671 0.70696 0.0
C333 C 0.17948 0.45243 0.7059 0.0
N334 N 0.15233 0.51796 0.7396 0.0
N335 N 0.11842 0.3477 0.70617 0.0
C336 C 0.14211 0.47952 0.72292 0.0
C337 C 0.12598 0.39062 0.71147 0.0
N338 N 0.05712 0.49226 0.73425 0.0
N339 N 0.21155 0.37835 0.70889 0.0
H340 H 0.08576 0.33347 0.71277 0.0
H341 H 0.14389 0.32665 0.6927 0.0
H342 H 0.24575 0.38866 0.7135 0.0
H343 H 0.20947 0.34454 0.71279 0.0
H344 H 0.05992 0.52599 0.73355 0.0
H345 H 0.02205 0.48242 0.73692 0.0
H346 H 0.12722 0.53733 0.75573 0.0
H347 H 0.18706 0.52679 0.74421 0.0
C348 C 0.80044 0.89789 0.00037 0.0
C349 C 0.77303 0.90469 0.96201 0.0
C350 C 0.77119 0.82572 0.95781 0.0
C351 C 0.80541 0.81941 0.99084 0.0
N352 N 0.86021 0.85151 0.03771 0.0
N353 N 0.74458 0.87395 0.89712 0.0
C354 C 0.82211 0.85598 0.01081 0.0
C355 C 0.76146 0.86833 0.93876 0.0
N356 N 0.80477 0.93073 0.02752 0.0
N357 N 0.74766 0.79116 0.94475 0.0
H358 H 0.74225 0.90414 0.87914 0.0
H359 H 0.73915 0.84786 0.87818 0.0
H360 H 0.7527 0.75949 0.95921 0.0
H361 H 0.71941 0.79502 0.9233 0.0
H362 H 0.82104 0.92592 0.05781 0.0
H363 H 0.78755 0.96131 0.02226 0.0
H364 H 0.87633 0.87816 0.04929 0.0
H365 H 0.87876 0.82193 0.04499 0.0
C366 C 0.38417 0.51422 0.2828 0.0
C367 C 0.39801 0.55248 0.25714 0.0
C368 C 0.3543 0.53099 0.19471 0.0
C369 C 0.34278 0.49169 0.21915 0.0
N370 N 0.34075 0.44682 0.28718 0.0
N371 N 0.40456 0.59265 0.18635 0.0
C372 C 0.35577 0.48362 0.26363 0.0
C373 C 0.38524 0.55961 0.21252 0.0
N374 N 0.40086 0.50607 0.32436 0.0
N375 N 0.33403 0.54185 0.15498 0.0
H376 H 0.42818 0.61367 0.19798 0.0
H377 H 0.40117 0.59652 0.15241 0.0
H378 H 0.31073 0.5219 0.14077 0.0
H379 H 0.33632 0.57245 0.13805 0.0
H380 H 0.39458 0.47809 0.34465 0.0
H381 H 0.42338 0.52688 0.33841 0.0
H382 H 0.34595 0.4396 0.32052 0.0
H383 H 0.32089 0.42363 0.27348 0.0
C384 C 0.51593 0.23591 0.33012 0.0
C385 C 0.48604 0.20019 0.33827 0.0
C386 C 0.46963 0.2215 0.41308 0.0
C387 C 0.50715 0.25088 0.40791 0.0
N388 N 0.57076 0.28211 0.36071 0.0
N389 N 0.43731 0.15598 0.3894 0.0
C390 C 0.53084 0.2581 0.36596 0.0
C391 C 0.46296 0.19248 0.38005 0.0
N392 N 0.53084 0.24835 0.28816 0.0
N393 N 0.44034 0.22144 0.44964 0.0
H394 H 0.43264 0.1329 0.36686 0.0
H395 H 0.42428 0.14647 0.42082 0.0
H396 H 0.44389 0.24309 0.47397 0.0
H397 H 0.40971 0.20345 0.45339 0.0
H398 H 0.54738 0.27765 0.27973 0.0
H399 H 0.52292 0.23156 0.26109 0.0
H400 H 0.59196 0.28354 0.3321 0.0
H401 H 0.58706 0.29609 0.38581 0.0
C402 C 0.00155 0.24256 0.53384 0.0
C403 C 0.04841 0.22389 0.53403 0.0
C404 C 0.05953 0.246 0.60801 0.0
C405 C 0.01456 0.26839 0.60588 0.0
N406 N 0.93592 0.27307 0.57651 0.0
N407 N 0.11503 0.19392 0.57588 0.0
C408 C 0.98315 0.26175 0.57193 0.0
C409 C 0.07505 0.22071 0.57287 0.0
N410 N 0.97518 0.24261 0.497 0.0
N411 N 0.08757 0.24995 0.64314 0.0
H412 H 0.12781 0.17575 0.55023 0.0
H413 H 0.13375 0.18731 0.60464 0.0
H414 H 0.07557 0.26604 0.67052 0.0
H415 H 0.12276 0.23829 0.64491 0.0
H416 H 0.94304 0.26027 0.49284 0.0
H417 H 0.98652 0.22615 0.46965 0.0
H418 H 0.91052 0.26621 0.55423 0.0
H419 H 0.92121 0.28468 0.60529 0.0
C420 C 0.9783 0.83781 0.83642 0.0
C421 C 0.98048 0.82347 0.79312 0.0
C422 C 0.97417 0.74801 0.82417 0.0
C423 C 0.96043 0.7636 0.86518 0.0
N424 N 0.94866 0.82375 0.91124 0.0
N425 N 0.98232 0.76401 0.74552 0.0
C426 C 0.96336 0.8085 0.87194 0.0
C427 C 0.97935 0.77817 0.7869 0.0
N428 N 0.98972 0.87934 0.8438 0.0
N429 N 0.98281 0.70428 0.82143 0.0
H430 H 0.98867 0.78473 0.71751 0.0
H431 H 0.97636 0.73201 0.73877 0.0
H432 H 0.98207 0.68254 0.84942 0.0
H433 H -0.00429 0.69045 0.7931 0.0
H434 H -0.00679 0.88983 0.87514 0.0
H435 H 0.00057 0.90218 0.81907 0.0
H436 H 0.94356 0.85685 0.91604 0.0
H437 H 0.93875 0.80338 0.93854 0.0
C438 C 0.45093 0.69676 0.11485 0.0
C439 C 0.43366 0.71626 0.15358 0.0
C440 C 0.38167 0.76661 0.10845 0.0
C441 C 0.40012 0.74785 0.07007 0.0
N442 N 0.46317 0.70608 0.03589 0.0
N443 N 0.39428 0.77863 0.18463 0.0
C444 C 0.43845 0.71664 0.0731 0.0
C445 C 0.40268 0.75404 0.14955 0.0
N446 N 0.47631 0.65773 0.11719 0.0
N447 N 0.34257 0.79454 0.10637 0.0
H448 H 0.4106 0.77149 0.21468 0.0
H449 H 0.37557 0.80867 0.18236 0.0
H450 H 0.3259 0.80472 0.07716 0.0
H451 H 0.32448 0.80503 0.13419 0.0
H452 H 0.48445 0.64035 0.08975 0.0
H453 H 0.4853 0.63993 0.14622 0.0
H454 H 0.49451 0.68674 0.03648 0.0
H455 H 0.45529 0.72072 0.00485 0.0
C456 C 0.15011 0.31278 0.26823 0.0
C457 C 0.12088 0.32692 0.30347 0.0
C458 C 0.09993 0.39488 0.26043 0.0
C459 C 0.12613 0.3792 0.22397 0.0
N460 N 0.16656 0.31914 0.18989 0.0
N461 N 0.05978 0.37636 0.33017 0.0
C462 C 0.14813 0.33677 0.22682 0.0
C463 C 0.09293 0.36629 0.29846 0.0
N464 N 0.18219 0.27843 0.27486 0.0
N465 N 0.08471 0.43777 0.26018 0.0
H466 H 0.05355 0.35579 0.35838 0.0
H467 H 0.03538 0.40275 0.32639 0.0
H468 H 0.09076 0.46065 0.23385 0.0
H469 H 0.07021 0.45175 0.28787 0.0
H470 H 0.20852 0.27072 0.25163 0.0
H471 H 0.18548 0.26011 0.30484 0.0
H472 H 0.17907 0.28674 0.18965 0.0
H473 H 0.16498 0.33553 0.15873 0.0
C474 C 0.82358 0.92847 0.55768 0.0
C475 C 0.8654 0.90086 0.55693 0.0
C476 C 0.83995 0.8716 0.48889 0.0
C477 C 0.79953 0.90091 0.48849 0.0
N478 N 0.74822 0.95238 0.52479 0.0
N479 N 0.90955 0.84051 0.52742 0.0
C480 C 0.78989 0.92774 0.52382 0.0
C481 C 0.87217 0.87037 0.52438 0.0
N482 N 0.81654 0.95561 0.59093 0.0
N483 N 0.84829 0.84626 0.45433 0.0
H484 H 0.93423 0.8397 0.55228 0.0
H485 H 0.91474 0.81484 0.50725 0.0
H486 H 0.82434 0.84534 0.42904 0.0
H487 H 0.87926 0.82732 0.44963 0.0
H488 H 0.79037 0.98046 0.5917 0.0
H489 H 0.83781 0.95334 0.61838 0.0
H490 H 0.73694 0.97109 0.55038 0.0
H491 H 0.72289 0.9524 0.50058 0.0
C492 C 0.34297 0.59801 0.79662 0.0
C493 C 0.34888 0.62626 0.7582 0.0
C494 C 0.36351 0.68666 0.80296 0.0
C495 C 0.34483 0.66157 0.83995 0.0
N496 N 0.32548 0.59153 0.87509 0.0
N497 N 0.39221 0.68738 0.72695 0.0
C498 C 0.33809 0.61633 0.83788 0.0
C499 C 0.36796 0.66768 0.7619 0.0
N500 N 0.34418 0.5539 0.79343 0.0
N501 N 0.37454 0.72903 0.80669 0.0
H502 H 0.40001 0.6714 0.69849 0.0
H503 H 0.40954 0.71652 0.72804 0.0
H504 H 0.37429 0.74273 0.8369 0.0
H505 H 0.38266 0.75081 0.77999 0.0
H506 H 0.34265 0.53104 0.82034 0.0
H507 H 0.35247 0.54024 0.76371 0.0
H508 H 0.31407 0.55973 0.87519 0.0
H509 H 0.32561 0.60357 0.90611 0.0
C510 C 0.57086 0.11548 0.02284 0.0
C511 C 0.58258 0.09673 0.06523 0.0
C512 C 0.66033 0.07037 0.03783 0.0
C513 C 0.64837 0.08785 0.99509 0.0
N514 N 0.59429 0.1277 0.94556 0.0
N515 N 0.6415 0.06706 0.11596 0.0
C516 C 0.60431 0.11112 0.9873 0.0
C517 C 0.62832 0.07744 0.07357 0.0
N518 N 0.52769 0.137 0.01681 0.0
N519 N 0.70075 0.04449 0.04378 0.0
H520 H 0.61908 0.07265 0.14299 0.0
H521 H 0.67591 0.05695 0.12468 0.0
H522 H 0.72545 0.03855 0.01855 0.0
H523 H 0.70828 0.02614 0.07299 0.0
H524 H 0.51647 0.15253 0.98733 0.0
H525 H 0.50254 0.14059 0.04215 0.0
H526 H 0.56238 0.14334 0.93619 0.0
H527 H 0.61852 0.12571 0.91922 0.0
C528 C 0.62513 0.13127 0.72461 0.0
C529 C 0.65504 0.15931 0.69818 0.0
C530 C 0.69955 0.17428 0.7622 0.0
C531 C 0.66963 0.14682 0.78918 0.0
N532 N 0.61144 0.09112 0.79537 0.0
N533 N 0.72834 0.19845 0.6909 0.0
C534 C 0.63479 0.12257 0.77012 0.0
C535 C 0.69459 0.17744 0.71651 0.0
N536 N 0.58634 0.11484 0.70684 0.0
N537 N 0.73385 0.19716 0.77985 0.0
H538 H 0.72894 0.2008 0.65659 0.0
H539 H 0.72894 0.2008 0.65659 0.0
H540 H 0.73834 0.19735 0.81343 0.0
H541 H 0.75682 0.21714 0.76076 0.0
H542 H 0.56018 0.09823 0.72535 0.0
H543 H 0.57905 0.11973 0.67353 0.0
H544 H 0.58954 0.06904 0.78256 0.0
H545 H 0.61641 0.08529 0.82906 0.0
C546 C 0.10706 0.37055 0.98852 0.0
C547 C 0.10201 0.41487 -0.0017 0.0
C548 C 0.08379 0.43762 0.92221 0.0
C549 C 0.08463 0.393 0.91331 0.0
N550 N 0.10885 0.31823 0.93244 0.0
N551 N 0.10011 0.49128 0.97331 0.0
C552 C 0.10065 0.35979 0.94467 0.0
C553 C 0.09537 0.44871 0.96461 0.0
N554 N 0.11634 0.339 0.0215 0.0
N555 N 0.06978 0.46907 0.89055 0.0
H556 H 0.10844 0.50044 0.00419 0.0
H557 H 0.09983 0.51728 0.94938 0.0
H558 H 0.06444 0.46226 0.85813 0.0
H559 H 0.06172 0.50149 0.89652 0.0
H560 H 0.11602 0.30563 0.01784 0.0
H561 H 0.12323 0.34642 0.05343 0.0
H562 H 0.12369 0.2928 0.95268 0.0
H563 H 0.10402 0.30994 0.90042 0.0
C564 C 0.81858 0.85962 0.25895 0.0
C565 C 0.77621 0.84445 0.28025 0.0
C566 C 0.75714 0.80696 0.21503 0.0
C567 C 0.80118 0.81956 0.19486 0.0
N568 N 0.87592 0.85436 0.198 0.0
N569 N 0.70683 0.80078 0.28092 0.0
C570 C 0.83251 0.84498 0.21694 0.0
C571 C 0.74585 0.81751 0.2588 0.0
N572 N 0.84509 0.88837 0.2788 0.0
N573 N 0.72596 0.78479 0.1923 0.0
H574 H 0.69568 0.8094 0.31204 0.0
H575 H 0.6868 0.77633 0.26983 0.0
H576 H 0.73415 0.77282 0.16184 0.0
H577 H 0.69081 0.77994 0.20244 0.0
H578 H 0.87394 0.90411 0.26366 0.0
H579 H 0.83631 0.89876 0.30988 0.0
H580 H 0.90273 0.86861 0.21397 0.0
H581 H 0.88627 0.84566 0.16663 0.0
C582 C 0.36551 0.55344 0.5365 0.0
C583 C 0.31746 0.56424 0.54749 0.0
C584 C 0.30296 0.58876 0.4705 0.0
C585 C 0.35085 0.57674 0.45948 0.0
N586 N 0.42454 0.53824 0.48169 0.0
N587 N 0.23748 0.58156 0.52381 0.0
C588 C 0.3809 0.55614 0.49205 0.0
C589 C 0.28521 0.57871 0.51409 0.0
N590 N 0.39726 0.54096 0.56844 0.0
N591 N 0.27519 0.61178 0.44016 0.0
H592 H 0.22324 0.57344 0.55518 0.0
H593 H 0.21178 0.58774 0.50009 0.0
H594 H 0.28687 0.61994 0.40796 0.0
H595 H 0.24192 0.62579 0.44781 0.0
H596 H 0.43309 0.5337 0.56116 0.0
H597 H 0.38811 0.53892 0.60187 0.0
H598 H 0.43806 0.5364 0.44962 0.0
H599 H 0.43806 0.5364 0.44962 0.0
C600 C 0.20379 0.15552 0.33241 0.0
C601 C 0.20711 0.14182 0.37764 0.0
C602 C 0.29065 0.11878 0.36714 0.0
C603 C 0.28828 0.13471 0.32235 0.0
N604 N 0.24459 0.17056 0.26206 0.0
N605 N 0.25432 0.11852 0.44019 0.0
C606 C 0.24542 0.15402 0.30496 0.0
C607 C 0.2507 0.12555 0.3956 0.0
N608 N 0.16044 0.16804 0.31543 0.0
N609 N 0.33095 0.09715 0.38256 0.0
H610 H 0.22587 0.12404 0.46208 0.0
H611 H 0.2863 0.11124 0.45588 0.0
H612 H 0.36187 0.09292 0.36352 0.0
H613 H 0.3328 0.08042 0.41344 0.0
H614 H 0.15442 0.17407 0.28205 0.0
H615 H 0.12925 0.17017 0.33462 0.0
H616 H 0.21654 0.18967 0.24859 0.0
H617 H 0.2729 0.16634 0.2397 0.0
C618 C 0.03257 0.99109 0.55185 0.0
C619 C 0.04703 0.03095 0.56665 0.0
C620 C 0.05454 -0.0039 0.64094 0.0
C621 C 0.04908 0.95493 0.62409 0.0
N622 N 0.0365 0.91226 0.56252 0.0
N623 N 0.07624 0.07105 0.62475 0.0
C624 C 0.03866 0.95209 0.57932 0.0
C625 C 0.05874 0.03362 0.61121 0.0
N626 N 0.0115 0.9908 0.51216 0.0
N627 N 0.05439 -0.00053 0.68531 0.0
H628 H 0.08083 0.09915 0.60394 0.0
H629 H 0.09005 0.07303 0.65576 0.0
H630 H 0.04986 0.9727 0.70799 0.0
H631 H 0.05358 0.02929 0.69948 0.0
H632 H -0.00372 0.96332 0.50141 0.0
H633 H 0.00436 0.01928 0.49223 0.0
H634 H 0.03438 0.90846 0.52904 0.0
H635 H 0.04045 0.88275 0.58155 0.0
C636 C 0.16059 0.84413 0.88239 0.0
C637 C 0.16831 0.83303 0.83838 0.0
C638 C 0.25274 0.81602 0.85267 0.0
C639 C 0.24433 0.82444 0.89733 0.0
N640 N 0.18935 0.83941 0.95683 0.0
N641 N 0.21898 0.79977 0.784 0.0
C642 C 0.19793 0.83643 0.91282 0.0
C643 C 0.21366 0.81657 0.82413 0.0
N644 N 0.11815 0.86358 0.89467 0.0
N645 N 0.29828 0.80904 0.83713 0.0
H646 H 0.19108 0.79905 0.76243 0.0
H647 H 0.24975 0.78293 0.77378 0.0
H648 H 0.32773 0.80808 0.85714 0.0
H649 H 0.30721 0.80774 0.80389 0.0
H650 H 0.112 0.87678 0.92482 0.0
H651 H 0.09006 0.86981 0.8733 0.0
H652 H 0.15541 0.84337 0.97089 0.0
H653 H 0.21593 0.83426 0.97995 0.0
C654 C 0.42345 0.9851 0.12551 0.0
C655 C 0.40263 0.02654 0.11058 0.0
C656 C 0.35989 0.99184 0.05455 0.0
C657 C 0.38214 0.95092 0.06835 0.0
N658 N 0.42033 0.90624 0.12614 0.0
N659 N 0.33806 0.06556 0.07316 0.0
C660 C 0.40895 0.94687 0.107 0.0
C661 C 0.36635 0.02849 0.07923 0.0
N662 N 0.45917 0.98191 0.155 0.0
N663 N 0.33556 -0.00317 0.01635 0.0
H664 H 0.34148 0.09241 0.09167 0.0
H665 H 0.30822 0.06772 0.05364 0.0
H666 H 0.33019 0.97135 0.99671 0.0
H667 H 0.32363 0.02714 0.00236 0.0
H668 H 0.48014 0.95351 0.16135 0.0
H669 H 0.46989 0.00771 0.17179 0.0
H670 H 0.43601 0.90102 0.15665 0.0
H671 H 0.40925 0.87773 0.11368 0.0
C672 C 0.81132 0.33286 0.66609 0.0
C673 C 0.83343 0.36555 0.63788 0.0
C674 C 0.76214 0.37255 0.59295 0.0
C675 C 0.73865 0.34381 0.62427 0.0
N676 N 0.73794 0.30258 0.69488 0.0
N677 N 0.82837 0.42002 0.57688 0.0
C678 C 0.76218 0.32625 0.66237 0.0
C679 C 0.80842 0.38637 0.60184 0.0
N680 N 0.83788 0.30532 0.69391 0.0
N681 N 0.74048 0.38608 0.55455 0.0
H682 H 0.862 0.43103 0.5827 0.0
H683 H 0.81027 0.43926 0.55275 0.0
H684 H 0.70597 0.37785 0.54789 0.0
H685 H 0.75768 0.40301 0.52824 0.0
H686 H 0.82408 0.27841 0.71207 0.0
H687 H 0.87481 0.30561 0.69478 0.0
H688 H 0.75206 0.29395 0.72563 0.0
H689 H 0.70249 0.29461 0.69269 0.0
C690 C 0.86832 0.50675 0.90698 0.0
C691 C 0.90351 0.50137 0.87314 0.0
C692 C 0.91096 0.58051 0.86554 0.0
C693 C 0.88651 0.58396 0.90623 0.0
N694 N 0.83809 0.55097 0.96508 0.0
N695 N 0.96279 0.53481 0.82297 0.0
C696 C 0.86317 0.54743 0.92646 0.0
C697 C 0.92542 0.53874 0.8523 0.0
N698 N 0.83977 0.47305 0.92013 0.0
N699 N 0.92041 0.61744 0.83969 0.0
H700 H 0.9776 0.50516 0.81386 0.0
H701 H 0.9825 0.56133 0.81091 0.0
H702 H 0.90787 0.64815 0.84836 0.0
H703 H 0.93505 0.6169 0.80794 0.0
H704 H 0.81101 0.47599 0.94215 0.0
H705 H 0.84195 0.44342 0.90543 0.0
H706 H 0.82536 0.5242 0.98421 0.0
H707 H 0.83178 0.58069 0.97894 0.0
C708 C 0.73011 0.65856 0.19678 0.0
C709 C 0.73748 0.64347 0.1542 0.0
C710 C 0.65458 0.62267 0.15315 0.0
C711 C 0.64697 0.63947 0.19492 0.0
N712 N 0.67806 0.66303 0.26127 0.0
N713 N 0.71153 0.60316 0.0955 0.0
C714 C 0.68512 0.65392 0.21833 0.0
C715 C 0.70122 0.62252 0.13368 0.0
N716 N 0.76556 0.67916 0.21564 0.0
N717 N 0.6168 0.60904 0.13143 0.0
H718 H 0.74547 0.60313 0.08069 0.0
H719 H 0.68787 0.58445 0.08026 0.0
H720 H 0.5826 0.60763 0.14557 0.0
H721 H 0.61865 0.6008 0.09898 0.0
H722 H 0.76049 0.6964 0.24357 0.0
H723 H 0.79999 0.68091 0.20208 0.0
H724 H 0.70525 0.67016 0.28158 0.0
H725 H 0.64529 0.65974 0.27792 0.0
C726 C 0.56711 0.47024 0.45058 0.0
C727 C 0.59541 0.44549 0.42125 0.0
C728 C 0.5931 0.50766 0.36564 0.0
C729 C 0.56582 0.53238 0.39538 0.0
N730 N 0.53788 0.5418 0.46964 0.0
N731 N 0.64387 0.44316 0.35505 0.0
C732 C 0.55687 0.51524 0.43913 0.0
C733 C 0.61126 0.46518 0.38009 0.0
N734 N 0.54632 0.45023 0.48744 0.0
N735 N 0.60036 0.52429 0.32327 0.0
H736 H 0.6581 0.41225 0.36521 0.0
H737 H 0.65996 0.45688 0.32639 0.0
H738 H 0.58926 0.556 0.31235 0.0
H739 H 0.61509 0.5061 0.29846 0.0
H740 H 0.52056 0.46567 0.50676 0.0
H741 H 0.5513 0.41711 0.49682 0.0
H742 H 0.53506 0.53213 0.50305 0.0
H743 H 0.52864 0.57471 0.46219 0.0
C744 C 0.31001 0.26813 0.14849 0.0
C745 C 0.32146 0.30331 0.17331 0.0
C746 C 0.39128 0.26121 0.20184 0.0
C747 C 0.38098 0.2264 0.17596 0.0
N748 N 0.33632 0.2 0.11814 0.0
N749 N 0.37877 0.33754 0.21513 0.0
C750 C 0.34196 0.23085 0.14733 0.0
C751 C 0.36385 0.30106 0.19742 0.0
N752 N 0.26775 0.26955 0.12746 0.0
N753 N 0.42572 0.25555 0.23247 0.0
H754 H 0.35991 0.36749 0.21248 0.0
H755 H 0.41204 0.33935 0.22876 0.0
H756 H 0.44744 0.22748 0.23612 0.0
H757 H 0.43033 0.27718 0.2565 0.0
H758 H 0.2546 0.24296 0.11323 0.0
H759 H 0.2441 0.29663 0.1267 0.0
H760 H 0.31157 0.20332 0.09335 0.0
H761 H 0.35938 0.17268 0.11615 0.0
C762 C 0.85287 0.27699 0.83112 0.0
C763 C 0.90186 0.27057 0.82005 0.0
C764 C 0.89624 0.19159 0.83665 0.0
C765 C 0.84737 0.19813 0.84866 0.0
N766 N 0.78228 0.24778 0.86765 0.0
N767 N 0.9726 0.22385 0.81916 0.0
C768 C 0.82671 0.24108 0.84939 0.0
C769 C 0.9243 0.22841 0.82487 0.0
N770 N 0.83068 0.31701 0.82206 0.0
N771 N 0.91569 0.15006 0.83629 0.0
H772 H -0.00603 0.25019 0.81014 0.0
H773 H 0.99208 0.1948 0.82641 0.0
H774 H 0.89765 0.12255 0.84853 0.0
H775 H 0.94904 0.14254 0.82252 0.0
H776 H 0.79391 0.32236 0.82394 0.0
H777 H 0.8486 0.34433 0.80909 0.0
H778 H 0.76761 0.27862 0.8732 0.0
H779 H 0.76145 0.22259 0.88094 0.0
C780 C 0.03827 0.62571 0.09074 0.0
C781 C 0.03454 0.58404 0.0744 0.0
C782 C 0.95286 0.60293 0.05242 0.0
C783 C 0.95759 0.64537 0.0666 0.0
N784 N 0.00741 0.70054 0.09017 0.0
N785 N -0.00735 0.5358 0.03172 0.0
C786 C 0.00117 0.6578 0.08298 0.0
C787 C -0.00689 0.57347 0.05278 0.0
N788 N 0.07605 0.63394 0.11556 0.0
N789 N 0.90942 0.58993 0.04086 0.0
H790 H 0.02141 0.51328 0.03154 0.0
H791 H 0.96551 0.52874 0.01126 0.0
H792 H 0.87903 0.61057 0.03996 0.0
H793 H 0.90267 0.55773 0.03547 0.0
H794 H 0.07786 0.66193 0.13254 0.0
H795 H 0.10389 0.6112 0.12241 0.0
H796 H 0.03999 0.71241 0.0979 0.0
H797 H 0.98109 0.72506 0.08425 0.0
C798 C 0.56554 0.77376 0.41303 0.0
C799 C 0.58434 0.80429 0.38072 0.0
C800 C 0.54427 0.76944 0.32336 0.0
C801 C 0.53139 0.73493 0.3546 0.0
N802 N 0.53325 0.70256 0.42958 0.0
N803 N 0.59478 0.83039 0.30461 0.0
C804 C 0.54244 0.73681 0.3997 0.0
C805 C 0.57477 0.8018 0.33569 0.0
N806 N 0.56943 0.78027 0.45656 0.0
N807 N 0.52506 0.77272 0.28256 0.0
H808 H 0.61503 0.85627 0.31234 0.0
H809 H 0.59414 0.82663 0.27102 0.0
H810 H 0.49992 0.75149 0.27322 0.0
H811 H 0.52967 0.79924 0.25971 0.0
H812 H 0.55147 0.76226 0.48167 0.0
H813 H 0.58768 0.80606 0.4675 0.0
H814 H 0.54632 0.69974 0.46124 0.0
H815 H 0.51535 0.67521 0.4224 0.0
C816 C 0.47111 0.33225 0.56958 0.0
C817 C 0.51587 0.34832 0.57834 0.0
C818 C 0.47826 0.41777 0.59763 0.0
C819 C 0.43386 0.40305 0.58542 0.0
N820 N 0.38927 0.34944 0.55182 0.0
N821 N 0.5642 0.4083 0.59241 0.0
C822 C 0.43062 0.3612 0.56902 0.0
C823 C 0.52013 0.39169 0.59002 0.0
N824 N 0.46709 0.28906 0.56282 0.0
N825 N 0.48032 0.45633 0.61689 0.0
H826 H 0.5955 0.39019 0.58603 0.0
H827 H 0.56968 0.44106 0.59633 0.0
H828 H 0.45025 0.47624 0.62284 0.0
H829 H 0.51105 0.46682 0.63027 0.0
H830 H 0.43457 0.27428 0.56163 0.0
H831 H 0.49627 0.26704 0.56165 0.0
H832 H 0.38639 0.3215 0.53495 0.0
H833 H 0.3587 0.3695 0.55095 0.0
C834 C 0.14199 0.69246 0.6226 0.0
C835 C 0.13153 0.65823 0.65468 0.0
C836 C 0.10088 0.71012 0.70584 0.0
C837 C 0.11332 0.74484 0.67461 0.0
N838 N 0.13084 0.76924 0.59908 0.0
N839 N 0.0863 0.63285 0.71851 0.0
C840 C 0.12889 0.73604 0.63144 0.0
C841 C 0.10534 0.66672 0.69331 0.0
N842 N 0.16714 0.68353 0.58512 0.0
N843 N 0.08915 0.71789 0.74839 0.0
H844 H 0.08968 0.60086 0.70914 0.0
H845 H 0.06334 0.6371 0.74542 0.0
H846 H 0.08765 0.74883 0.76009 0.0
H847 H 0.08504 0.69309 0.77326 0.0
H848 H 0.18145 0.70753 0.56326 0.0
H849 H 0.17544 0.65174 0.57685 0.0
H850 H 0.1383 0.76427 0.56618 0.0
H851 H 0.12034 0.80143 0.60446 0.0
C852 C 0.5123 0.87905 0.88833 0.0
C853 C 0.4707 0.90609 0.89356 0.0
C854 C 0.51869 0.97125 0.88504 0.0
C855 C 0.56047 0.94396 0.88666 0.0
N856 N 0.59865 0.87224 0.88991 0.0
N857 N 0.43386 0.97773 0.90057 0.0
C858 C 0.55775 0.89788 0.88776 0.0
C859 C 0.47362 0.95224 0.89208 0.0
N860 N 0.50808 0.83551 0.88366 0.0
N861 N 0.52229 0.01543 0.8775 0.0
H862 H 0.40007 0.96534 0.90581 0.0
H863 H 0.43469 0.01081 0.90561 0.0
H864 H 0.55492 0.0303 0.87308 0.0
H865 H 0.49319 0.03693 0.87174 0.0
H866 H 0.53654 0.81444 0.87598 0.0
H867 H 0.47514 0.82107 0.88393 0.0
H868 H 0.59933 0.83844 0.89604 0.0
H869 H 0.63241 0.8852 0.88731 0.0
C870 C 0.88273 0.08864 0.41364 0.0
C871 C 0.87264 0.05796 0.38346 0.0
C872 C 0.95491 0.05981 0.35556 0.0
C873 C 0.9669 0.08052 0.39333 0.0
N874 N 0.94139 0.11241 0.46113 0.0
N875 N 0.89855 0.01537 0.32303 0.0
C876 C 0.9306 0.09537 0.42274 0.0
C877 C 0.9082 0.04461 0.35275 0.0
N878 N 0.84626 0.11049 0.43421 0.0
N879 N 0.9882 0.05476 0.32264 0.0
H880 H 0.86469 0.00422 0.31896 0.0
H881 H 0.92475 0.00055 0.3037 0.0
H882 H 0.02256 0.06606 0.32405 0.0
H883 H 0.98038 0.04355 0.29245 0.0
H884 H 0.85139 0.13565 0.4544 0.0
H885 H 0.81081 0.10662 0.42671 0.0
H886 H 0.91595 0.11858 0.48566 0.0
H887 H 0.97585 0.11691 0.47067 0.0
loop_
_geom_bond_atom_site_label_1
_geom_bond_atom_site_label_2
_geom_bond_distance
_geom_bond_site_symmetry_2
_ccdc_geom_bond_type
Zn0 O6 1.969 . S
Zn0 O7 1.965 . S
Zn0 O11 2.024 . S
Zn0 O16 1.969 . S
Zn1 O8 1.969 . S
Zn1 O14 1.969 . S
Zn1 O15 1.965 . S
Zn1 O17 2.024 . S
C2 O3 1.229 . S
C2 O11 1.058 . S
O3 C2 1.229 . S
C4 O5 1.229 . S
C4 O17 1.058 . S
O5 C4 1.229 . S
O6 Zn0 1.969 . S
O6 C9 1.267 . S
O7 Zn0 1.965 . S
O7 C18 1.260 . S
O8 Zn1 1.969 . S
O8 C18 1.258 . S
C9 O6 1.267 . S
C9 O10 1.228 . S
O10 C9 1.228 . S
O11 Zn0 2.024 . S
O11 C2 1.058 . S
C12 O13 1.228 . S
C12 O14 1.267 . S
O13 C12 1.228 . S
O14 Zn1 1.969 . S
O14 C12 1.267 . S
O15 Zn1 1.965 . S
O15 C19 1.260 . S
O16 Zn0 1.969 . S
O16 C19 1.258 . S
O17 Zn1 2.024 . S
O17 C4 1.058 . S
C18 O7 1.260 . S
C18 O8 1.258 . S
C19 O15 1.260 . S
C19 O16 1.258 . S
Zn20 O26 1.969 . S
Zn20 O27 1.965 1_655 S
Zn20 O31 2.024 . S
Zn20 O36 1.969 . S
Zn21 O28 1.969 . S
Zn21 O34 1.969 . S
Zn21 O35 1.965 . S
Zn21 O37 2.024 . S
C22 O23 1.229 . S
C22 O31 1.058 . S
O23 C22 1.229 . S
C24 O25 1.229 . S
C24 O37 1.058 . S
O25 C24 1.229 . S
O26 Zn20 1.969 . S
O26 C29 1.267 . S
O27 Zn20 1.965 1_455 S
O27 C38 1.260 . S
O28 Zn21 1.969 . S
O28 C38 1.258 . S
C29 O26 1.267 . S
C29 O30 1.228 . S
O30 C29 1.228 . S
O31 Zn20 2.024 . S
O31 C22 1.058 . S
C32 O33 1.228 . S
C32 O34 1.267 . S
O33 C32 1.228 . S
O34 Zn21 1.969 . S
O34 C32 1.267 . S
O35 Zn21 1.965 . S
O35 C39 1.260 1_455 S
O36 Zn20 1.969 . S
O36 C39 1.258 . S
O37 Zn21 2.024 . S
O37 C24 1.058 . S
C38 O27 1.260 . S
C38 O28 1.258 . S
C39 O35 1.260 1_655 S
C39 O36 1.258 . S
Zn40 O46 1.969 . S
Zn40 O47 1.965 . S
Zn40 O51 2.024 . S
Zn40 O56 1.969 . S
Zn41 O48 1.969 . S
Zn41 O54 1.969 1_556 S
Zn41 O55 1.965 1_556 S
Zn41 O57 2.024 . S
C42 O43 1.229 . S
C42 O51 1.058 . S
O43 C42 1.229 . S
C44 O45 1.229 . S
C44 O57 1.058 . S
O45 C44 1.229 . S
O46 Zn40 1.969 . S
O46 C49 1.267 . S
O47 Zn40 1.965 . S
O47 C58 1.260 . S
O48 Zn41 1.969 . S
O48 C58 1.258 . S
C49 O46 1.267 . S
C49 O50 1.228 . S
O50 C49 1.228 . S
O51 Zn40 2.024 . S
O51 C42 1.058 . S
C52 O53 1.228 . S
C52 O54 1.267 . S
O53 C52 1.228 . S
O54 Zn41 1.969 1_554 S
O54 C52 1.267 . S
O55 Zn41 1.965 1_554 S
O55 C59 1.260 . S
O56 Zn40 1.969 . S
O56 C59 1.258 1_556 S
O57 Zn41 2.024 . S
O57 C44 1.058 . S
C58 O47 1.260 . S
C58 O48 1.258 . S
C59 O55 1.260 . S
C59 O56 1.258 1_554 S
Zn60 O66 1.969 . S
Zn60 O67 1.965 . S
Zn60 O71 2.024 . S
Zn60 O76 1.969 . S
Zn61 O68 1.969 . S
Zn61 O74 1.969 . S
Zn61 O75 1.965 . S
Zn61 O77 2.024 . S
C62 O63 1.229 . S
C62 O71 1.058 . S
O63 C62 1.229 . S
C64 O65 1.229 . S
C64 O77 1.058 . S
O65 C64 1.229 . S
O66 Zn60 1.969 . S
O66 C69 1.267 . S
O67 Zn60 1.965 . S
O67 C78 1.260 . S
O68 Zn61 1.969 . S
O68 C78 1.258 . S
C69 O66 1.267 . S
C69 O70 1.228 . S
O70 C69 1.228 . S
O71 Zn60 2.024 . S
O71 C62 1.058 . S
C72 O73 1.228 . S
C72 O74 1.267 . S
O73 C72 1.228 . S
O74 Zn61 1.969 . S
O74 C72 1.267 . S
O75 Zn61 1.965 . S
O75 C79 1.260 . S
O76 Zn60 1.969 . S
O76 C79 1.258 . S
O77 Zn61 2.024 . S
O77 C64 1.058 . S
C78 O67 1.260 . S
C78 O68 1.258 . S
C79 O75 1.260 . S
C79 O76 1.258 . S
Zn80 O86 1.969 . S
Zn80 O87 1.965 . S
Zn80 O91 2.024 . S
Zn80 O96 1.969 . S
Zn81 O88 1.969 . S
Zn81 O94 1.969 . S
Zn81 O95 1.965 . S
Zn81 O97 2.024 . S
C82 O83 1.229 . S
C82 O91 1.058 . S
O83 C82 1.229 . S
C84 O85 1.229 . S
C84 O97 1.058 . S
O85 C84 1.229 . S
O86 Zn80 1.969 . S
O86 C89 1.267 . S
O87 Zn80 1.965 . S
O87 C98 1.260 . S
O88 Zn81 1.969 . S
O88 C98 1.258 . S
C89 O86 1.267 . S
C89 O90 1.228 . S
O90 C89 1.228 . S
O91 Zn80 2.024 . S
O91 C82 1.058 . S
C92 O93 1.228 . S
C92 O94 1.267 . S
O93 C92 1.228 . S
O94 Zn81 1.969 . S
O94 C92 1.267 . S
O95 Zn81 1.965 . S
O95 C99 1.260 . S
O96 Zn80 1.969 . S
O96 C99 1.258 . S
O97 Zn81 2.024 . S
O97 C84 1.058 . S
C98 O87 1.260 . S
C98 O88 1.258 . S
C99 O95 1.260 . S
C99 O96 1.258 . S
Zn100 O106 1.969 . S
Zn100 O107 1.965 . S
Zn100 O111 2.024 . S
Zn100 O116 1.969 1_655 S
Zn101 O108 1.969 . S
Zn101 O114 1.969 1_655 S
Zn101 O115 1.965 1_655 S
Zn101 O117 2.024 . S
C102 O103 1.231 . S
C102 O111 1.058 1_455 S
O103 C102 1.231 . S
C104 O105 1.229 . S
C104 O117 1.058 . S
O105 C104 1.229 . S
O106 Zn100 1.969 . S
O106 C109 1.267 . S
O107 Zn100 1.965 . S
O107 C118 1.260 . S
O108 Zn101 1.969 . S
O108 C118 1.258 . S
C109 O106 1.267 . S
C109 O110 1.228 . S
O110 C109 1.228 . S
O111 Zn100 2.024 . S
O111 C102 1.058 1_655 S
C112 O113 1.228 . S
C112 O114 1.267 . S
O113 C112 1.228 . S
O114 Zn101 1.969 1_455 S
O114 C112 1.267 . S
O115 Zn101 1.965 1_455 S
O115 C119 1.260 . S
O116 Zn100 1.969 1_455 S
O116 C119 1.258 . S
O117 Zn101 2.024 . S
O117 C104 1.058 . S
C118 O107 1.260 . S
C118 O108 1.258 . S
C119 O115 1.260 . S
C119 O116 1.258 . S
Zn120 O126 1.969 . S
Zn120 O127 1.965 1_556 S
Zn120 O131 2.024 . S
Zn120 O136 1.969 . S
Zn121 O128 1.969 . S
Zn121 O134 1.969 . S
Zn121 O135 1.965 . S
Zn121 O137 2.024 . S
C122 O123 1.229 . S
C122 O131 1.058 . S
O123 C122 1.229 . S
C124 O125 1.229 . S
C124 O137 1.058 . S
O125 C124 1.229 . S
O126 Zn120 1.969 . S
O126 C129 1.267 . S
O127 Zn120 1.965 1_554 S
O127 C138 1.260 . S
O128 Zn121 1.969 . S
O128 C138 1.258 . S
C129 O126 1.267 . S
C129 O130 1.228 . S
O130 C129 1.228 . S
O131 Zn120 2.024 . S
O131 C122 1.058 . S
C132 O133 1.228 . S
C132 O134 1.267 . S
O133 C132 1.228 . S
O134 Zn121 1.969 . S
O134 C132 1.267 . S
O135 Zn121 1.965 . S
O135 C139 1.260 1_554 S
O136 Zn120 1.969 . S
O136 C139 1.258 . S
O137 Zn121 2.024 . S
O137 C124 1.058 . S
C138 O127 1.260 . S
C138 O128 1.258 . S
C139 O135 1.260 1_556 S
C139 O136 1.258 . S
Zn140 O146 1.969 . S
Zn140 O147 1.965 . S
Zn140 O151 2.024 . S
Zn140 O156 1.969 . S
Zn141 O148 1.969 . S
Zn141 O154 1.969 . S
Zn141 O155 1.965 . S
Zn141 O157 2.024 . S
C142 O143 1.229 . S
C142 O151 1.058 . S
O143 C142 1.229 . S
C144 O145 1.229 . S
C144 O157 1.058 . S
O145 C144 1.229 . S
O146 Zn140 1.969 . S
O146 C149 1.267 . S
O147 Zn140 1.965 . S
O147 C158 1.260 . S
O148 Zn141 1.969 . S
O148 C158 1.258 . S
C149 O146 1.267 . S
C149 O150 1.228 . S
O150 C149 1.228 . S
O151 Zn140 2.024 . S
O151 C142 1.058 . S
C152 O153 1.228 . S
C152 O154 1.267 . S
O153 C152 1.228 . S
O154 Zn141 1.969 . S
O154 C152 1.267 . S
O155 Zn141 1.965 . S
O155 C159 1.260 . S
O156 Zn140 1.969 . S
O156 C159 1.258 . S
O157 Zn141 2.024 . S
O157 C144 1.058 . S
C158 O147 1.260 . S
C158 O148 1.258 . S
C159 O155 1.260 . S
C159 O156 1.258 . S
Zn160 O166 1.969 . S
Zn160 O167 1.965 . S
Zn160 O171 2.024 . S
Zn160 O176 1.969 . S
Zn161 O168 1.969 . S
Zn161 O174 1.969 . S
Zn161 O175 1.965 . S
Zn161 O177 2.024 . S
C162 O163 1.229 . S
C162 O171 1.058 . S
O163 C162 1.229 . S
C164 O165 1.229 . S
C164 O177 1.058 . S
O165 C164 1.229 . S
O166 Zn160 1.969 . S
O166 C169 1.267 . S
O167 Zn160 1.965 . S
O167 C178 1.260 . S
O168 Zn161 1.969 . S
O168 C178 1.258 . S
C169 O166 1.267 . S
C169 O170 1.228 . S
O170 C169 1.228 . S
O171 Zn160 2.024 . S
O171 C162 1.058 . S
C172 O173 1.228 . S
C172 O174 1.267 . S
O173 C172 1.228 . S
O174 Zn161 1.969 . S
O174 C172 1.267 . S
O175 Zn161 1.965 . S
O175 C179 1.260 . S
O176 Zn160 1.969 . S
O176 C179 1.258 . S
O177 Zn161 2.024 . S
O177 C164 1.058 . S
C178 O167 1.260 . S
C178 O168 1.258 . S
C179 O175 1.260 . S
C179 O176 1.258 . S
Zn180 O186 1.969 . S
Zn180 O187 1.965 1_565 S
Zn180 O191 2.024 . S
Zn180 O196 1.969 . S
Zn181 O188 1.969 . S
Zn181 O194 1.969 . S
Zn181 O195 1.965 . S
Zn181 O197 2.024 . S
C182 O183 1.229 . S
C182 O191 1.058 . S
O183 C182 1.229 . S
C184 O185 1.229 . S
C184 O197 1.058 . S
O185 C184 1.229 . S
O186 Zn180 1.969 . S
O186 C189 1.267 . S
O187 Zn180 1.965 1_545 S
O187 C198 1.260 . S
O188 Zn181 1.969 . S
O188 C198 1.258 . S
C189 O186 1.267 . S
C189 O190 1.228 . S
O190 C189 1.228 . S
O191 Zn180 2.024 . S
O191 C182 1.058 . S
C192 O193 1.228 . S
C192 O194 1.267 . S
O193 C192 1.228 . S
O194 Zn181 1.969 . S
O194 C192 1.267 . S
O195 Zn181 1.965 . S
O195 C199 1.260 . S
O196 Zn180 1.969 . S
O196 C199 1.258 1_565 S
O197 Zn181 2.024 . S
O197 C184 1.058 . S
C198 O187 1.260 . S
C198 O188 1.258 . S
C199 O195 1.260 . S
C199 O196 1.258 1_545 S
Zn200 O206 1.969 . S
Zn200 O207 1.965 1_545 S
Zn200 O211 2.024 . S
Zn200 O216 1.969 . S
Zn201 O208 1.969 . S
Zn201 O214 1.969 . S
Zn201 O215 1.965 . S
Zn201 O217 2.024 . S
C202 O203 1.229 . S
C202 O211 1.058 . S
O203 C202 1.229 . S
C204 O205 1.229 . S
C204 O217 1.058 . S
O205 C204 1.229 . S
O206 Zn200 1.969 . S
O206 C209 1.267 . S
O207 Zn200 1.965 1_565 S
O207 C218 1.260 . S
O208 Zn201 1.969 . S
O208 C218 1.258 . S
C209 O206 1.267 . S
C209 O210 1.228 . S
O210 C209 1.228 . S
O211 Zn200 2.024 . S
O211 C202 1.058 . S
C212 O213 1.228 . S
C212 O214 1.267 . S
O213 C212 1.228 . S
O214 Zn201 1.969 . S
O214 C212 1.267 . S
O215 Zn201 1.965 . S
O215 C219 1.260 . S
O216 Zn200 1.969 . S
O216 C219 1.258 1_545 S
O217 Zn201 2.024 . S
O217 C204 1.058 . S
C218 O207 1.260 . S
C218 O208 1.258 . S
C219 O215 1.260 . S
C219 O216 1.258 1_565 S
Zn220 O226 1.969 . S
Zn220 O227 1.965 . S
Zn220 O231 2.024 . S
Zn220 O236 1.969 . S
Zn221 O228 1.969 . S
Zn221 O234 1.969 . S
Zn221 O235 1.965 . S
Zn221 O237 2.024 . S
C222 O223 1.229 . S
C222 O231 1.058 . S
O223 C222 1.229 . S
C224 O225 1.229 . S
C224 O237 1.058 . S
O225 C224 1.229 . S
O226 Zn220 1.969 . S
O226 C229 1.267 . S
O227 Zn220 1.965 . S
O227 C238 1.260 . S
O228 Zn221 1.969 . S
O228 C238 1.258 . S
C229 O226 1.267 . S
C229 O230 1.228 . S
O230 C229 1.228 . S
O231 Zn220 2.024 . S
O231 C222 1.058 . S
C232 O233 1.228 . S
C232 O234 1.267 . S
O233 C232 1.228 . S
O234 Zn221 1.969 . S
O234 C232 1.267 . S
O235 Zn221 1.965 . S
O235 C239 1.260 . S
O236 Zn220 1.969 . S
O236 C239 1.258 . S
O237 Zn221 2.024 . S
O237 C224 1.058 . S
C238 O227 1.260 . S
C238 O228 1.258 . S
C239 O235 1.260 . S
C239 O236 1.258 . S
C240 C241 1.363 . S
C240 C246 1.379 . S
C240 N248 1.356 . S
C241 C240 1.363 . S
C241 C247 1.363 . S
C242 C243 1.363 . S
C242 C247 1.379 . S
C242 N249 1.356 . S
C243 C242 1.363 . S
C243 C246 1.363 . S
N244 C246 1.356 . S
N244 H256 0.984 . S
N244 H257 0.985 . S
N245 C247 1.356 . S
N245 H250 0.984 . S
N245 H251 0.985 . S
C246 C240 1.379 . S
C246 C243 1.363 . S
C246 N244 1.356 . S
C247 C241 1.363 . S
C247 C242 1.379 . S
C247 N245 1.356 . S
N248 C240 1.356 . S
N248 H254 0.984 . S
N248 H255 0.984 . S
N249 C242 1.356 . S
N249 H252 0.984 . S
N249 H253 0.985 . S
H250 N245 0.984 . S
H251 N245 0.985 . S
H252 N249 0.984 . S
H253 N249 0.985 . S
H254 N248 0.984 . S
H255 N248 0.984 . S
H256 N244 0.984 . S
H257 N244 0.985 . S
C258 C259 1.363 . S
C258 C264 1.379 . S
C258 N266 1.356 . S
C259 C258 1.363 . S
C259 C265 1.363 1_545 S
C260 C261 1.363 . S
C260 C265 1.379 . S
C260 N267 1.356 . S
C261 C260 1.363 . S
C261 C264 1.363 1_565 S
N262 C264 1.356 . S
N262 H274 0.984 . S
N262 H275 0.985 1_545 S
N263 C265 1.356 . S
N263 H268 0.984 1_565 S
N263 H269 0.985 . S
C264 C258 1.379 . S
C264 C261 1.363 1_545 S
C264 N262 1.356 . S
C265 C259 1.363 1_565 S
C265 C260 1.379 . S
C265 N263 1.356 . S
N266 C258 1.356 . S
N266 H272 0.984 . S
N266 H273 0.984 . S
N267 C260 1.356 . S
N267 H270 0.984 . S
N267 H271 0.985 . S
H268 N263 0.984 1_545 S
H269 N263 0.985 . S
H270 N267 0.984 . S
H271 N267 0.985 . S
H272 N266 0.984 . S
H273 N266 0.984 . S
H274 N262 0.984 . S
H275 N262 0.985 1_565 S
C276 C277 1.363 1_556 S
C276 C282 1.379 1_556 S
C276 N284 1.356 . S
C277 C276 1.363 1_554 S
C277 C283 1.363 . S
C278 C279 1.363 . S
C278 C283 1.379 . S
C278 N285 1.356 . S
C279 C278 1.363 . S
C279 C282 1.363 . S
N280 C282 1.356 . S
N280 H292 0.984 1_554 S
N280 H293 0.985 . S
N281 C283 1.356 . S
N281 H286 0.984 . S
N281 H287 0.985 . S
C282 C276 1.379 1_554 S
C282 C279 1.363 . S
C282 N280 1.356 . S
C283 C277 1.363 . S
C283 C278 1.379 . S
C283 N281 1.356 . S
N284 C276 1.356 . S
N284 H290 0.984 . S
N284 H291 0.984 . S
N285 C278 1.356 . S
N285 H288 0.984 . S
N285 H289 0.985 . S
H286 N281 0.984 . S
H287 N281 0.985 . S
H288 N285 0.984 . S
H289 N285 0.985 . S
H290 N284 0.984 . S
H291 N284 0.984 . S
H292 N280 0.984 1_556 S
H293 N280 0.985 . S
C294 C295 1.363 . S
C294 C300 1.379 . S
C294 N302 1.356 . S
C295 C294 1.363 . S
C295 C301 1.363 . S
C296 C297 1.363 . S
C296 C301 1.379 . S
C296 N303 1.356 . S
C297 C296 1.363 . S
C297 C300 1.363 . S
N298 C300 1.356 1_565 S
N298 H310 0.984 . S
N298 H311 0.985 . S
N299 C301 1.356 . S
N299 H304 0.984 . S
N299 H305 0.985 . S
C300 C294 1.379 . S
C300 C297 1.363 . S
C300 N298 1.356 1_545 S
C301 C295 1.363 . S
C301 C296 1.379 . S
C301 N299 1.356 . S
N302 C294 1.356 . S
N302 H308 0.984 . S
N302 H309 0.984 . S
N303 C296 1.356 . S
N303 H306 0.984 . S
N303 H307 0.985 . S
H304 N299 0.984 . S
H305 N299 0.985 . S
H306 N303 0.984 . S
H307 N303 0.985 . S
H308 N302 0.984 . S
H309 N302 0.984 . S
H310 N298 0.984 . S
H311 N298 0.985 . S
C312 C313 1.363 . S
C312 C318 1.379 . S
C312 N320 1.356 . S
C313 C312 1.363 . S
C313 C319 1.363 . S
C314 C315 1.363 . S
C314 C319 1.379 . S
C314 N321 1.356 . S
C315 C314 1.363 . S
C315 C318 1.363 . S
N316 C318 1.356 . S
N316 H328 0.984 . S
N316 H329 0.985 . S
N317 C319 1.356 . S
N317 H322 0.984 . S
N317 H323 0.985 . S
C318 C312 1.379 . S
C318 C315 1.363 . S
C318 N316 1.356 . S
C319 C313 1.363 . S
C319 C314 1.379 . S
C319 N317 1.356 . S
N320 C312 1.356 . S
N320 H326 0.984 . S
N320 H327 0.984 . S
N321 C314 1.356 . S
N321 H324 0.984 . S
N321 H325 0.985 . S
H322 N317 0.984 . S
H323 N317 0.985 . S
H324 N321 0.984 . S
H325 N321 0.985 . S
H326 N320 0.984 . S
H327 N320 0.984 . S
H328 N316 0.984 . S
H329 N316 0.985 . S
C330 C331 1.363 . S
C330 C336 1.379 . S
C330 N338 1.356 . S
C331 C330 1.363 . S
C331 C337 1.363 . S
C332 C333 1.363 . S
C332 C337 1.379 . S
C332 N339 1.356 . S
C333 C332 1.363 . S
C333 C336 1.363 . S
N334 C336 1.356 . S
N334 H346 0.984 . S
N334 H347 0.985 . S
N335 C337 1.356 . S
N335 H340 0.984 . S
N335 H341 0.985 . S
C336 C330 1.379 . S
C336 C333 1.363 . S
C336 N334 1.356 . S
C337 C331 1.363 . S
C337 C332 1.379 . S
C337 N335 1.356 . S
N338 C330 1.356 . S
N338 H344 0.984 . S
N338 H345 0.984 . S
N339 C332 1.356 . S
N339 H342 0.984 . S
N339 H343 0.985 . S
H340 N335 0.984 . S
H341 N335 0.985 . S
H342 N339 0.984 . S
H343 N339 0.985 . S
H344 N338 0.984 . S
H345 N338 0.984 . S
H346 N334 0.984 . S
H347 N334 0.985 . S
C348 C349 1.363 1_554 S
C348 C354 1.379 . S
C348 N356 1.356 . S
C349 C348 1.363 1_556 S
C349 C355 1.363 . S
C350 C351 1.363 . S
C350 C355 1.379 . S
C350 N357 1.356 . S
C351 C350 1.363 . S
C351 C354 1.363 1_556 S
N352 C354 1.356 . S
N352 H364 0.984 . S
N352 H365 0.985 . S
N353 C355 1.356 . S
N353 H358 0.984 . S
N353 H359 0.985 . S
C354 C348 1.379 . S
C354 C351 1.363 1_554 S
C354 N352 1.356 . S
C355 C349 1.363 . S
C355 C350 1.379 . S
C355 N353 1.356 . S
N356 C348 1.356 . S
N356 H362 0.984 . S
N356 H363 0.984 . S
N357 C350 1.356 . S
N357 H360 0.984 . S
N357 H361 0.985 . S
H358 N353 0.984 . S
H359 N353 0.985 . S
H360 N357 0.984 . S
H361 N357 0.985 . S
H362 N356 0.984 . S
H363 N356 0.984 . S
H364 N352 0.984 . S
H365 N352 0.985 . S
C366 C367 1.363 . S
C366 C372 1.379 . S
C366 N374 1.356 . S
C367 C366 1.363 . S
C367 C373 1.363 . S
C368 C369 1.363 . S
C368 C373 1.379 . S
C368 N375 1.356 . S
C369 C368 1.363 . S
C369 C372 1.363 . S
N370 C372 1.356 . S
N370 H382 0.984 . S
N370 H383 0.985 . S
N371 C373 1.356 . S
N371 H376 0.984 . S
N371 H377 0.985 . S
C372 C366 1.379 . S
C372 C369 1.363 . S
C372 N370 1.356 . S
C373 C367 1.363 . S
C373 C368 1.379 . S
C373 N371 1.356 . S
N374 C366 1.356 . S
N374 H380 0.984 . S
N374 H381 0.984 . S
N375 C368 1.356 . S
N375 H378 0.984 . S
N375 H379 0.985 . S
H376 N371 0.984 . S
H377 N371 0.985 . S
H378 N375 0.984 . S
H379 N375 0.985 . S
H380 N374 0.984 . S
H381 N374 0.984 . S
H382 N370 0.984 . S
H383 N370 0.985 . S
C384 C385 1.363 . S
C384 C390 1.379 . S
C384 N392 1.356 . S
C385 C384 1.363 . S
C385 C391 1.363 . S
C386 C387 1.363 . S
C386 C391 1.379 . S
C386 N393 1.356 . S
C387 C386 1.363 . S
C387 C390 1.363 . S
N388 C390 1.356 . S
N388 H400 0.984 . S
N388 H401 0.985 . S
N389 C391 1.356 . S
N389 H394 0.984 . S
N389 H395 0.985 . S
C390 C384 1.379 . S
C390 C387 1.363 . S
C390 N388 1.356 . S
C391 C385 1.363 . S
C391 C386 1.379 . S
C391 N389 1.356 . S
N392 C384 1.356 . S
N392 H398 0.984 . S
N392 H399 0.984 . S
N393 C386 1.356 . S
N393 H396 0.984 . S
N393 H397 0.985 . S
H394 N389 0.984 . S
H395 N389 0.985 . S
H396 N393 0.984 . S
H397 N393 0.985 . S
H398 N392 0.984 . S
H399 N392 0.984 . S
H400 N388 0.984 . S
H401 N388 0.985 . S
C402 C403 1.364 1_655 S
C402 C408 1.379 . S
C402 N410 1.356 . S
C403 C402 1.364 1_455 S
C403 C409 1.363 . S
C404 C405 1.363 . S
C404 C409 1.379 . S
C404 N411 1.356 . S
C405 C404 1.363 . S
C405 C408 1.363 1_455 S
N406 C408 1.356 . S
N406 H418 0.984 . S
N406 H419 0.985 . S
N407 C409 1.356 . S
N407 H412 0.984 . S
N407 H413 0.985 . S
C408 C402 1.379 . S
C408 C405 1.363 1_655 S
C408 N406 1.356 . S
C409 C403 1.363 . S
C409 C404 1.379 . S
C409 N407 1.356 . S
N410 C402 1.356 . S
N410 H416 0.984 . S
N410 H417 0.984 . S
N411 C404 1.356 . S
N411 H414 0.984 . S
N411 H415 0.985 . S
H412 N407 0.984 . S
H413 N407 0.985 . S
H414 N411 0.984 . S
H415 N411 0.985 . S
H416 N410 0.984 . S
H417 N410 0.984 . S
H418 N406 0.984 . S
H419 N406 0.985 . S
C420 C421 1.363 . S
C420 C426 1.379 . S
C420 N428 1.356 . S
C421 C420 1.363 . S
C421 C427 1.363 . S
C422 C423 1.363 . S
C422 C427 1.379 . S
C422 N429 1.356 . S
C423 C422 1.363 . S
C423 C426 1.363 . S
N424 C426 1.356 . S
N424 H436 0.984 . S
N424 H437 0.985 . S
N425 C427 1.356 . S
N425 H430 0.984 . S
N425 H431 0.985 . S
C426 C420 1.379 . S
C426 C423 1.363 . S
C426 N424 1.356 . S
C427 C421 1.363 . S
C427 C422 1.379 . S
C427 N425 1.356 . S
N428 C420 1.356 . S
N428 H434 0.984 . S
N428 H435 0.984 . S
N429 C422 1.356 . S
N429 H432 0.984 . S
N429 H433 0.985 . S
H430 N425 0.984 . S
H431 N425 0.985 . S
H432 N429 0.984 . S
H433 N429 0.985 . S
H434 N428 0.984 . S
H435 N428 0.984 . S
H436 N424 0.984 . S
H437 N424 0.985 . S
C438 C439 1.363 . S
C438 C444 1.379 . S
C438 N446 1.356 . S
C439 C438 1.363 . S
C439 C445 1.363 . S
C440 C441 1.363 . S
C440 C445 1.379 . S
C440 N447 1.356 . S
C441 C440 1.363 . S
C441 C444 1.363 . S
N442 C444 1.356 . S
N442 H454 0.984 . S
N442 H455 0.985 . S
N443 C445 1.356 . S
N443 H448 0.984 . S
N443 H449 0.985 . S
C444 C438 1.379 . S
C444 C441 1.363 . S
C444 N442 1.356 . S
C445 C439 1.363 . S
C445 C440 1.379 . S
C445 N443 1.356 . S
N446 C438 1.356 . S
N446 H452 0.984 . S
N446 H453 0.984 . S
N447 C440 1.356 . S
N447 H450 0.984 . S
N447 H451 0.985 . S
H448 N443 0.984 . S
H449 N443 0.985 . S
H450 N447 0.984 . S
H451 N447 0.985 . S
H452 N446 0.984 . S
H453 N446 0.984 . S
H454 N442 0.984 . S
H455 N442 0.985 . S
C456 C457 1.363 . S
C456 C462 1.379 . S
C456 N464 1.356 . S
C457 C456 1.363 . S
C457 C463 1.363 . S
C458 C459 1.363 . S
C458 C463 1.379 . S
C458 N465 1.356 . S
C459 C458 1.363 . S
C459 C462 1.363 . S
N460 C462 1.356 . S
N460 H472 0.984 . S
N460 H473 0.985 . S
N461 C463 1.356 . S
N461 H466 0.984 . S
N461 H467 0.985 . S
C462 C456 1.379 . S
C462 C459 1.363 . S
C462 N460 1.356 . S
C463 C457 1.363 . S
C463 C458 1.379 . S
C463 N461 1.356 . S
N464 C456 1.356 . S
N464 H470 0.984 . S
N464 H471 0.984 . S
N465 C458 1.356 . S
N465 H468 0.984 . S
N465 H469 0.985 . S
H466 N461 0.984 . S
H467 N461 0.985 . S
H468 N465 0.984 . S
H469 N465 0.985 . S
H470 N464 0.984 . S
H471 N464 0.984 . S
H472 N460 0.984 . S
H473 N460 0.985 . S
C474 C475 1.363 . S
C474 C480 1.379 . S
C474 N482 1.356 . S
C475 C474 1.363 . S
C475 C481 1.363 . S
C476 C477 1.363 . S
C476 C481 1.379 . S
C476 N483 1.356 . S
C477 C476 1.363 . S
C477 C480 1.363 . S
N478 C480 1.356 . S
N478 H490 0.984 1_565 S
N478 H491 0.985 . S
N479 C481 1.356 . S
N479 H484 0.984 . S
N479 H485 0.985 . S
C480 C474 1.379 . S
C480 C477 1.363 . S
C480 N478 1.356 . S
C481 C475 1.363 . S
C481 C476 1.379 . S
C481 N479 1.356 . S
N482 C474 1.356 . S
N482 H488 0.984 . S
N482 H489 0.984 . S
N483 C476 1.356 . S
N483 H486 0.984 . S
N483 H487 0.985 . S
H484 N479 0.984 . S
H485 N479 0.985 . S
H486 N483 0.984 . S
H487 N483 0.985 . S
H488 N482 0.984 . S
H489 N482 0.984 . S
H490 N478 0.984 1_545 S
H491 N478 0.985 . S
C492 C493 1.363 . S
C492 C498 1.379 . S
C492 N500 1.356 . S
C493 C492 1.363 . S
C493 C499 1.363 . S
C494 C495 1.363 . S
C494 C499 1.379 . S
C494 N501 1.356 . S
C495 C494 1.363 . S
C495 C498 1.363 . S
N496 C498 1.356 . S
N496 H508 0.984 . S
N496 H509 0.985 . S
N497 C499 1.356 . S
N497 H502 0.984 . S
N497 H503 0.985 . S
C498 C492 1.379 . S
C498 C495 1.363 . S
C498 N496 1.356 . S
C499 C493 1.363 . S
C499 C494 1.379 . S
C499 N497 1.356 . S
N500 C492 1.356 . S
N500 H506 0.984 . S
N500 H507 0.984 . S
N501 C494 1.356 . S
N501 H504 0.984 . S
N501 H505 0.985 . S
H502 N497 0.984 . S
H503 N497 0.985 . S
H504 N501 0.984 . S
H505 N501 0.985 . S
H506 N500 0.984 . S
H507 N500 0.984 . S
H508 N496 0.984 . S
H509 N496 0.985 . S
C510 C511 1.363 . S
C510 C516 1.379 1_554 S
C510 N518 1.356 . S
C511 C510 1.363 . S
C511 C517 1.363 . S
C512 C513 1.363 1_554 S
C512 C517 1.379 . S
C512 N519 1.356 . S
C513 C512 1.363 1_556 S
C513 C516 1.363 . S
N514 C516 1.356 . S
N514 H526 0.984 . S
N514 H527 0.985 . S
N515 C517 1.356 . S
N515 H520 0.984 . S
N515 H521 0.985 . S
C516 C510 1.379 1_556 S
C516 C513 1.363 . S
C516 N514 1.356 . S
C517 C511 1.363 . S
C517 C512 1.379 . S
C517 N515 1.356 . S
N518 C510 1.356 . S
N518 H524 0.984 . S
N518 H525 0.984 . S
N519 C512 1.356 . S
N519 H522 0.984 1_554 S
N519 H523 0.985 . S
H520 N515 0.984 . S
H521 N515 0.985 . S
H522 N519 0.984 1_556 S
H523 N519 0.985 . S
H524 N518 0.984 . S
H525 N518 0.984 . S
H526 N514 0.984 . S
H527 N514 0.985 . S
C528 C529 1.363 . S
C528 C534 1.379 . S
C528 N536 1.356 . S
C529 C528 1.363 . S
C529 C535 1.363 . S
C530 C531 1.363 . S
C530 C535 1.379 . S
C530 N537 1.356 . S
C531 C530 1.363 . S
C531 C534 1.363 . S
N532 C534 1.356 . S
N532 H544 0.984 . S
N532 H545 0.985 . S
N533 C535 1.356 . S
N533 H538 0.984 . S
N533 H539 0.985 . S
C534 C528 1.379 . S
C534 C531 1.363 . S
C534 N532 1.356 . S
C535 C529 1.363 . S
C535 C530 1.379 . S
C535 N533 1.356 . S
N536 C528 1.356 . S
N536 H542 0.984 . S
N536 H543 0.984 . S
N537 C530 1.356 . S
N537 H540 0.984 . S
N537 H541 0.985 . S
H538 N533 0.984 . S
H539 N533 0.985 . S
H540 N537 0.984 . S
H541 N537 0.985 . S
H542 N536 0.984 . S
H543 N536 0.984 . S
H544 N532 0.984 . S
H545 N532 0.985 . S
C546 C547 1.363 1_556 S
C546 C552 1.379 . S
C546 N554 1.356 1_556 S
C547 C546 1.363 1_554 S
C547 C553 1.363 1_554 S
C548 C549 1.363 . S
C548 C553 1.379 . S
C548 N555 1.356 . S
C549 C548 1.363 . S
C549 C552 1.363 . S
N550 C552 1.356 . S
N550 H562 0.984 . S
N550 H563 0.985 . S
N551 C553 1.356 1_554 S
N551 H556 0.984 . S
N551 H557 0.985 1_554 S
C552 C546 1.379 . S
C552 C549 1.363 . S
C552 N550 1.356 . S
C553 C547 1.363 1_556 S
C553 C548 1.379 . S
C553 N551 1.356 1_556 S
N554 C546 1.356 1_554 S
N554 H560 0.984 . S
N554 H561 0.984 . S
N555 C548 1.356 . S
N555 H558 0.984 . S
N555 H559 0.985 . S
H556 N551 0.984 . S
H557 N551 0.985 1_556 S
H558 N555 0.984 . S
H559 N555 0.985 . S
H560 N554 0.984 . S
H561 N554 0.984 . S
H562 N550 0.984 . S
H563 N550 0.985 . S
C564 C565 1.363 . S
C564 C570 1.379 . S
C564 N572 1.356 . S
C565 C564 1.363 . S
C565 C571 1.363 . S
C566 C567 1.363 . S
C566 C571 1.379 . S
C566 N573 1.356 . S
C567 C566 1.363 . S
C567 C570 1.363 . S
N568 C570 1.356 . S
N568 H580 0.984 . S
N568 H581 0.985 . S
N569 C571 1.356 . S
N569 H574 0.984 . S
N569 H575 0.985 . S
C570 C564 1.379 . S
C570 C567 1.363 . S
C570 N568 1.356 . S
C571 C565 1.363 . S
C571 C566 1.379 . S
C571 N569 1.356 . S
N572 C564 1.356 . S
N572 H578 0.984 . S
N572 H579 0.984 . S
N573 C566 1.356 . S
N573 H576 0.984 . S
N573 H577 0.985 . S
H574 N569 0.984 . S
H575 N569 0.985 . S
H576 N573 0.984 . S
H577 N573 0.985 . S
H578 N572 0.984 . S
H579 N572 0.984 . S
H580 N568 0.984 . S
H581 N568 0.985 . S
C582 C583 1.363 . S
C582 C588 1.379 . S
C582 N590 1.356 . S
C583 C582 1.363 . S
C583 C589 1.363 . S
C584 C585 1.363 . S
C584 C589 1.379 . S
C584 N591 1.356 . S
C585 C584 1.363 . S
C585 C588 1.363 . S
N586 C588 1.356 . S
N586 H598 0.984 . S
N586 H599 0.985 . S
N587 C589 1.356 . S
N587 H592 0.984 . S
N587 H593 0.985 . S
C588 C582 1.379 . S
C588 C585 1.363 . S
C588 N586 1.356 . S
C589 C583 1.363 . S
C589 C584 1.379 . S
C589 N587 1.356 . S
N590 C582 1.356 . S
N590 H596 0.984 . S
N590 H597 0.984 . S
N591 C584 1.356 . S
N591 H594 0.984 . S
N591 H595 0.985 . S
H592 N587 0.984 . S
H593 N587 0.985 . S
H594 N591 0.984 . S
H595 N591 0.985 . S
H596 N590 0.984 . S
H597 N590 0.984 . S
H598 N586 0.984 . S
H599 N586 0.985 . S
C600 C601 1.363 . S
C600 C606 1.379 . S
C600 N608 1.356 . S
C601 C600 1.363 . S
C601 C607 1.363 . S
C602 C603 1.363 . S
C602 C607 1.379 . S
C602 N609 1.356 . S
C603 C602 1.363 . S
C603 C606 1.363 . S
N604 C606 1.356 . S
N604 H616 0.984 . S
N604 H617 0.985 . S
N605 C607 1.356 . S
N605 H610 0.984 . S
N605 H611 0.985 . S
C606 C600 1.379 . S
C606 C603 1.363 . S
C606 N604 1.356 . S
C607 C601 1.363 . S
C607 C602 1.379 . S
C607 N605 1.356 . S
N608 C600 1.356 . S
N608 H614 0.984 . S
N608 H615 0.984 . S
N609 C602 1.356 . S
N609 H612 0.984 . S
N609 H613 0.985 . S
H610 N605 0.984 . S
H611 N605 0.985 . S
H612 N609 0.984 . S
H613 N609 0.985 . S
H614 N608 0.984 . S
H615 N608 0.984 . S
H616 N604 0.984 . S
H617 N604 0.985 . S
C618 C619 1.363 . S
C618 C624 1.379 1_545 S
C618 N626 1.356 . S
C619 C618 1.363 . S
C619 C625 1.363 . S
C620 C621 1.360 1_545 S
C620 C625 1.381 . S
C620 N627 1.355 1_545 S
C621 C620 1.360 1_565 S
C621 C624 1.363 . S
N622 C624 1.356 . S
N622 H634 0.984 . S
N622 H635 0.985 . S
N623 C625 1.356 . S
N623 H628 0.984 . S
N623 H629 0.985 . S
C624 C618 1.379 1_565 S
C624 C621 1.363 . S
C624 N622 1.356 . S
C625 C619 1.363 . S
C625 C620 1.381 . S
C625 N623 1.356 . S
N626 C618 1.356 . S
N626 H632 0.984 . S
N626 H633 0.984 . S
N627 C620 1.355 1_565 S
N627 H630 0.984 . S
N627 H631 0.985 1_565 S
H628 N623 0.984 . S
H629 N623 0.985 . S
H630 N627 0.984 . S
H631 N627 0.985 1_545 S
H632 N626 0.984 . S
H633 N626 0.984 . S
H634 N622 0.984 . S
H635 N622 0.985 . S
C636 C637 1.363 . S
C636 C642 1.379 . S
C636 N644 1.356 . S
C637 C636 1.363 . S
C637 C643 1.363 . S
C638 C639 1.363 . S
C638 C643 1.379 . S
C638 N645 1.356 . S
C639 C638 1.363 . S
C639 C642 1.363 . S
N640 C642 1.356 . S
N640 H652 0.984 . S
N640 H653 0.985 . S
N641 C643 1.356 . S
N641 H646 0.984 . S
N641 H647 0.985 . S
C642 C636 1.379 . S
C642 C639 1.363 . S
C642 N640 1.356 . S
C643 C637 1.363 . S
C643 C638 1.379 . S
C643 N641 1.356 . S
N644 C636 1.356 . S
N644 H650 0.984 . S
N644 H651 0.984 . S
N645 C638 1.356 . S
N645 H648 0.984 . S
N645 H649 0.985 . S
H646 N641 0.984 . S
H647 N641 0.985 . S
H648 N645 0.984 . S
H649 N645 0.985 . S
H650 N644 0.984 . S
H651 N644 0.984 . S
H652 N640 0.984 . S
H653 N640 0.985 . S
C654 C655 1.363 1_565 S
C654 C660 1.379 . S
C654 N662 1.356 . S
C655 C654 1.363 1_545 S
C655 C661 1.363 . S
C656 C657 1.363 . S
C656 C661 1.379 1_565 S
C656 N663 1.356 . S
C657 C656 1.363 . S
C657 C660 1.363 . S
N658 C660 1.356 . S
N658 H670 0.984 . S
N658 H671 0.985 . S
N659 C661 1.356 . S
N659 H664 0.984 . S
N659 H665 0.985 . S
C660 C654 1.379 . S
C660 C657 1.363 . S
C660 N658 1.356 . S
C661 C655 1.363 . S
C661 C656 1.379 1_545 S
C661 N659 1.356 . S
N662 C654 1.356 . S
N662 H668 0.984 . S
N662 H669 0.984 1_565 S
N663 C656 1.356 . S
N663 H666 0.984 . S
N663 H667 0.985 . S
H664 N659 0.984 . S
H665 N659 0.985 . S
H666 N663 0.984 . S
H667 N663 0.985 . S
H668 N662 0.984 . S
H669 N662 0.984 1_545 S
H670 N658 0.984 . S
H671 N658 0.985 . S
C672 C673 1.363 . S
C672 C678 1.379 . S
C672 N680 1.356 . S
C673 C672 1.363 . S
C673 C679 1.363 . S
C674 C675 1.363 . S
C674 C679 1.379 . S
C674 N681 1.356 . S
C675 C674 1.363 . S
C675 C678 1.363 . S
N676 C678 1.356 . S
N676 H688 0.984 . S
N676 H689 0.985 . S
N677 C679 1.356 . S
N677 H682 0.984 . S
N677 H683 0.985 . S
C678 C672 1.379 . S
C678 C675 1.363 . S
C678 N676 1.356 . S
C679 C673 1.363 . S
C679 C674 1.379 . S
C679 N677 1.356 . S
N680 C672 1.356 . S
N680 H686 0.984 . S
N680 H687 0.984 . S
N681 C674 1.356 . S
N681 H684 0.984 . S
N681 H685 0.985 . S
H682 N677 0.984 . S
H683 N677 0.985 . S
H684 N681 0.984 . S
H685 N681 0.985 . S
H686 N680 0.984 . S
H687 N680 0.984 . S
H688 N676 0.984 . S
H689 N676 0.985 . S
C690 C691 1.363 . S
C690 C696 1.379 . S
C690 N698 1.356 . S
C691 C690 1.363 . S
C691 C697 1.363 . S
C692 C693 1.363 . S
C692 C697 1.379 . S
C692 N699 1.356 . S
C693 C692 1.363 . S
C693 C696 1.363 . S
N694 C696 1.356 . S
N694 H706 0.984 . S
N694 H707 0.985 . S
N695 C697 1.356 . S
N695 H700 0.984 . S
N695 H701 0.985 . S
C696 C690 1.379 . S
C696 C693 1.363 . S
C696 N694 1.356 . S
C697 C691 1.363 . S
C697 C692 1.379 . S
C697 N695 1.356 . S
N698 C690 1.356 . S
N698 H704 0.984 . S
N698 H705 0.984 . S
N699 C692 1.356 . S
N699 H702 0.984 . S
N699 H703 0.985 . S
H700 N695 0.984 . S
H701 N695 0.985 . S
H702 N699 0.984 . S
H703 N699 0.985 . S
H704 N698 0.984 . S
H705 N698 0.984 . S
H706 N694 0.984 . S
H707 N694 0.985 . S
C708 C709 1.363 . S
C708 C714 1.379 . S
C708 N716 1.356 . S
C709 C708 1.363 . S
C709 C715 1.363 . S
C710 C711 1.363 . S
C710 C715 1.379 . S
C710 N717 1.356 . S
C711 C710 1.363 . S
C711 C714 1.363 . S
N712 C714 1.356 . S
N712 H724 0.984 . S
N712 H725 0.985 . S
N713 C715 1.356 . S
N713 H718 0.984 . S
N713 H719 0.985 . S
C714 C708 1.379 . S
C714 C711 1.363 . S
C714 N712 1.356 . S
C715 C709 1.363 . S
C715 C710 1.379 . S
C715 N713 1.356 . S
N716 C708 1.356 . S
N716 H722 0.984 . S
N716 H723 0.984 . S
N717 C710 1.356 . S
N717 H720 0.984 . S
N717 H721 0.985 . S
H718 N713 0.984 . S
H719 N713 0.985 . S
H720 N717 0.984 . S
H721 N717 0.985 . S
H722 N716 0.984 . S
H723 N716 0.984 . S
H724 N712 0.984 . S
H725 N712 0.985 . S
C726 C727 1.363 . S
C726 C732 1.379 . S
C726 N734 1.356 . S
C727 C726 1.363 . S
C727 C733 1.363 . S
C728 C729 1.363 . S
C728 C733 1.379 . S
C728 N735 1.356 . S
C729 C728 1.363 . S
C729 C732 1.363 . S
N730 C732 1.356 . S
N730 H742 0.984 . S
N730 H743 0.985 . S
N731 C733 1.356 . S
N731 H736 0.984 . S
N731 H737 0.985 . S
C732 C726 1.379 . S
C732 C729 1.363 . S
C732 N730 1.356 . S
C733 C727 1.363 . S
C733 C728 1.379 . S
C733 N731 1.356 . S
N734 C726 1.356 . S
N734 H740 0.984 . S
N734 H741 0.984 . S
N735 C728 1.356 . S
N735 H738 0.984 . S
N735 H739 0.985 . S
H736 N731 0.984 . S
H737 N731 0.985 . S
H738 N735 0.984 . S
H739 N735 0.985 . S
H740 N734 0.984 . S
H741 N734 0.984 . S
H742 N730 0.984 . S
H743 N730 0.985 . S
C744 C745 1.363 . S
C744 C750 1.379 . S
C744 N752 1.356 . S
C745 C744 1.363 . S
C745 C751 1.363 . S
C746 C747 1.363 . S
C746 C751 1.379 . S
C746 N753 1.356 . S
C747 C746 1.363 . S
C747 C750 1.363 . S
N748 C750 1.356 . S
N748 H760 0.984 . S
N748 H761 0.985 . S
N749 C751 1.356 . S
N749 H754 0.984 . S
N749 H755 0.985 . S
C750 C744 1.379 . S
C750 C747 1.363 . S
C750 N748 1.356 . S
C751 C745 1.363 . S
C751 C746 1.379 . S
C751 N749 1.356 . S
N752 C744 1.356 . S
N752 H758 0.984 . S
N752 H759 0.984 . S
N753 C746 1.356 . S
N753 H756 0.984 . S
N753 H757 0.985 . S
H754 N749 0.984 . S
H755 N749 0.985 . S
H756 N753 0.984 . S
H757 N753 0.985 . S
H758 N752 0.984 . S
H759 N752 0.984 . S
H760 N748 0.984 . S
H761 N748 0.985 . S
C762 C763 1.363 . S
C762 C768 1.379 . S
C762 N770 1.356 . S
C763 C762 1.363 . S
C763 C769 1.363 . S
C764 C765 1.363 . S
C764 C769 1.379 . S
C764 N771 1.356 . S
C765 C764 1.363 . S
C765 C768 1.363 . S
N766 C768 1.356 . S
N766 H778 0.984 . S
N766 H779 0.985 . S
N767 C769 1.356 . S
N767 H772 0.984 . S
N767 H773 0.985 . S
C768 C762 1.379 . S
C768 C765 1.363 . S
C768 N766 1.356 . S
C769 C763 1.363 . S
C769 C764 1.379 . S
C769 N767 1.356 . S
N770 C762 1.356 . S
N770 H776 0.984 . S
N770 H777 0.984 . S
N771 C764 1.356 . S
N771 H774 0.984 . S
N771 H775 0.985 . S
H772 N767 0.984 . S
H773 N767 0.985 . S
H774 N771 0.984 . S
H775 N771 0.985 . S
H776 N770 0.984 . S
H777 N770 0.984 . S
H778 N766 0.984 . S
H779 N766 0.985 . S
C780 C781 1.363 . S
C780 C786 1.379 1_455 S
C780 N788 1.356 . S
C781 C780 1.363 . S
C781 C787 1.363 . S
C782 C783 1.363 . S
C782 C787 1.379 1_655 S
C782 N789 1.356 . S
C783 C782 1.363 . S
C783 C786 1.363 . S
N784 C786 1.356 . S
N784 H796 0.984 . S
N784 H797 0.985 . S
N785 C787 1.356 . S
N785 H790 0.984 . S
N785 H791 0.985 . S
C786 C780 1.379 1_655 S
C786 C783 1.363 . S
C786 N784 1.356 . S
C787 C781 1.363 . S
C787 C782 1.379 1_455 S
C787 N785 1.356 . S
N788 C780 1.356 . S
N788 H794 0.984 . S
N788 H795 0.984 . S
N789 C782 1.356 . S
N789 H792 0.984 . S
N789 H793 0.985 1_554 S
H790 N785 0.984 . S
H791 N785 0.985 . S
H792 N789 0.984 . S
H793 N789 0.985 1_556 S
H794 N788 0.984 . S
H795 N788 0.984 . S
H796 N784 0.984 . S
H797 N784 0.985 . S
C798 C799 1.363 . S
C798 C804 1.379 . S
C798 N806 1.356 . S
C799 C798 1.363 . S
C799 C805 1.363 . S
C800 C801 1.363 . S
C800 C805 1.379 . S
C800 N807 1.356 . S
C801 C800 1.363 . S
C801 C804 1.363 . S
N802 C804 1.356 . S
N802 H814 0.984 . S
N802 H815 0.985 . S
N803 C805 1.356 . S
N803 H808 0.984 . S
N803 H809 0.985 . S
C804 C798 1.379 . S
C804 C801 1.363 . S
C804 N802 1.356 . S
C805 C799 1.363 . S
C805 C800 1.379 . S
C805 N803 1.356 . S
N806 C798 1.356 . S
N806 H812 0.984 . S
N806 H813 0.984 . S
N807 C800 1.356 . S
N807 H810 0.984 . S
N807 H811 0.985 . S
H808 N803 0.984 . S
H809 N803 0.985 . S
H810 N807 0.984 . S
H811 N807 0.985 . S
H812 N806 0.984 . S
H813 N806 0.984 . S
H814 N802 0.984 . S
H815 N802 0.985 . S
C816 C817 1.363 . S
C816 C822 1.379 . S
C816 N824 1.356 . S
C817 C816 1.363 . S
C817 C823 1.363 . S
C818 C819 1.363 . S
C818 C823 1.379 . S
C818 N825 1.356 . S
C819 C818 1.363 . S
C819 C822 1.363 . S
N820 C822 1.356 . S
N820 H832 0.984 . S
N820 H833 0.985 . S
N821 C823 1.356 . S
N821 H826 0.984 . S
N821 H827 0.985 . S
C822 C816 1.379 . S
C822 C819 1.363 . S
C822 N820 1.356 . S
C823 C817 1.363 . S
C823 C818 1.379 . S
C823 N821 1.356 . S
N824 C816 1.356 . S
N824 H830 0.984 . S
N824 H831 0.984 . S
N825 C818 1.356 . S
N825 H828 0.984 . S
N825 H829 0.985 . S
H826 N821 0.984 . S
H827 N821 0.985 . S
H828 N825 0.984 . S
H829 N825 0.985 . S
H830 N824 0.984 . S
H831 N824 0.984 . S
H832 N820 0.984 . S
H833 N820 0.985 . S
C834 C835 1.363 . S
C834 C840 1.379 . S
C834 N842 1.356 . S
C835 C834 1.363 . S
C835 C841 1.363 . S
C836 C837 1.363 . S
C836 C841 1.379 . S
C836 N843 1.356 . S
C837 C836 1.363 . S
C837 C840 1.363 . S
N838 C840 1.356 . S
N838 H850 0.984 . S
N838 H851 0.985 . S
N839 C841 1.356 . S
N839 H844 0.984 . S
N839 H845 0.985 . S
C840 C834 1.379 . S
C840 C837 1.363 . S
C840 N838 1.356 . S
C841 C835 1.363 . S
C841 C836 1.379 . S
C841 N839 1.356 . S
N842 C834 1.356 . S
N842 H848 0.984 . S
N842 H849 0.984 . S
N843 C836 1.356 . S
N843 H846 0.984 . S
N843 H847 0.985 . S
H844 N839 0.984 . S
H845 N839 0.985 . S
H846 N843 0.984 . S
H847 N843 0.985 . S
H848 N842 0.984 . S
H849 N842 0.984 . S
H850 N838 0.984 . S
H851 N838 0.985 . S
C852 C853 1.363 . S
C852 C858 1.379 . S
C852 N860 1.356 . S
C853 C852 1.363 . S
C853 C859 1.363 . S
C854 C855 1.363 . S
C854 C859 1.379 . S
C854 N861 1.356 . S
C855 C854 1.363 . S
C855 C858 1.363 . S
N856 C858 1.356 . S
N856 H868 0.984 . S
N856 H869 0.985 . S
N857 C859 1.356 . S
N857 H862 0.984 . S
N857 H863 0.985 . S
C858 C852 1.379 . S
C858 C855 1.363 . S
C858 N856 1.356 . S
C859 C853 1.363 . S
C859 C854 1.379 . S
C859 N857 1.356 . S
N860 C852 1.356 . S
N860 H866 0.984 . S
N860 H867 0.984 . S
N861 C854 1.356 . S
N861 H864 0.984 . S
N861 H865 0.985 1_565 S
H862 N857 0.984 . S
H863 N857 0.985 . S
H864 N861 0.984 . S
H865 N861 0.985 1_545 S
H866 N860 0.984 . S
H867 N860 0.984 . S
H868 N856 0.984 . S
H869 N856 0.985 . S
C870 C871 1.363 . S
C870 C876 1.379 . S
C870 N878 1.356 . S
C871 C870 1.363 . S
C871 C877 1.363 . S
C872 C873 1.363 . S
C872 C877 1.379 . S
C872 N879 1.356 . S
C873 C872 1.363 . S
C873 C876 1.363 . S
N874 C876 1.356 . S
N874 H886 0.984 . S
N874 H887 0.985 1_655 S
N875 C877 1.356 . S
N875 H880 0.984 . S
N875 H881 0.985 . S
C876 C870 1.379 . S
C876 C873 1.363 . S
C876 N874 1.356 . S
C877 C871 1.363 . S
C877 C872 1.379 . S
C877 N875 1.356 . S
N878 C870 1.356 . S
N878 H884 0.984 . S
N878 H885 0.984 . S
N879 C872 1.356 . S
N879 H882 0.984 1_655 S
N879 H883 0.985 . S
H880 N875 0.984 . S
H881 N875 0.985 . S
H882 N879 0.984 1_455 S
H883 N879 0.985 . S
H884 N878 0.984 . S
H885 N878 0.984 . S
H886 N874 0.984 . S
H887 N874 0.985 1_455 S
C241 C2 1.028 . S
C243 C222 1.048 . S
C259 C199 1.429 . S
C261 C22 1.315 . S
C277 C42 1.486 1_554 S
C279 C179 1.681 . S
C295 C79 1.981 . S
C297 C219 2.018 1_545 S
C313 C99 1.683 . S
C315 C202 1.500 . S
C331 C119 1.967 . S
C333 C239 1.926 . S
C349 C182 1.456 . S
C351 C139 1.683 . S
C367 C159 1.450 . S
C369 C162 1.302 . S
C385 C62 1.089 . S
C387 C82 1.052 . S
C403 C19 1.602 . S
C405 C102 1.456 . S
C421 C39 1.668 . S
C423 C122 1.455 . S
C439 C142 1.459 . S
C441 C59 1.688 . S
C457 C9 1.741 . S
C459 C178 1.812 . S
C475 C29 1.848 . S
C477 C218 1.886 . S
C493 C224 1.429 . S
C495 C49 1.399 . S
C511 C72 1.493 . S
C513 C198 1.582 . S
C529 C92 1.107 . S
C531 C184 1.234 . S
C547 C164 1.496 . S
C549 C112 1.351 . S
C565 C204 1.708 . S
C567 C132 1.587 . S
C583 C238 1.654 . S
C585 C152 1.494 . S
C601 C18 1.641 . S
C603 C69 1.608 . S
C619 C12 1.605 . S
C621 C38 1.692 . S
C637 C32 1.715 . S
C639 C58 1.772 . S
C655 C64 1.634 . S
C657 C52 1.539 . S
C673 C109 1.229 . S
C675 C84 1.327 . S
C691 C104 1.538 . S
C693 C129 1.459 . S
C709 C124 1.106 . S
C711 C149 1.106 . S
C727 C89 1.272 . S
C729 C144 1.379 . S
C745 C169 1.699 . S
C747 C78 1.752 . S
C763 C118 1.717 . S
C765 C192 1.596 . S
C781 C172 1.528 . S
C783 C138 1.610 . S
C799 C212 1.642 . S
C801 C158 1.792 . S
C817 C98 1.320 . S
C819 C229 1.250 . S
C835 C232 1.252 . S
C837 C24 1.280 . S
C853 C44 1.207 . S
C855 C189 1.260 . S
C871 C209 1.496 . S
C873 C4 1.501 1_655 S
