# Generated by pormake.
# Topology fns, (5)-cn, num edge types: 1
# Building blocks:
#     Node 0, Type 0, BuildingBlock: BEQFEK_clean_sbu_0, # of connection points: 5
#     Node 1, Type 0, BuildingBlock: BEQFEK_clean_sbu_0, # of connection points: 5
#     Node 2, Type 0, BuildingBlock: BEQFEK_clean_sbu_0, # of connection points: 5
#     Node 3, Type 0, BuildingBlock: BEQFEK_clean_sbu_0, # of connection points: 5
#     Node 4, Type 0, BuildingBlock: BEQFEK_clean_sbu_0, # of connection points: 5
#     Node 5, Type 0, BuildingBlock: BEQFEK_clean_sbu_0, # of connection points: 5
#     Edge 6, Type (0, 0), BuildingBlock: EZIPEK_clean_linker_0, # of connection points: 2
#     Edge 7, Type (0, 0), BuildingBlock: EZIPEK_clean_linker_0, # of connection points: 2
#     Edge 8, Type (0, 0), BuildingBlock: EZIPEK_clean_linker_0, # of connection points: 2
#     Edge 9, Type (0, 0), BuildingBlock: EZIPEK_clean_linker_0, # of connection points: 2
#     Edge 10, Type (0, 0), BuildingBlock: EZIPEK_clean_linker_0, # of connection points: 2
#     Edge 11, Type (0, 0), BuildingBlock: EZIPEK_clean_linker_0, # of connection points: 2
#     Edge 12, Type (0, 0), BuildingBlock: EZIPEK_clean_linker_0, # of connection points: 2
#     Edge 13, Type (0, 0), BuildingBlock: EZIPEK_clean_linker_0, # of connection points: 2
#     Edge 14, Type (0, 0), BuildingBlock: EZIPEK_clean_linker_0, # of connection points: 2
#     Edge 15, Type (0, 0), BuildingBlock: EZIPEK_clean_linker_0, # of connection points: 2
#     Edge 16, Type (0, 0), BuildingBlock: EZIPEK_clean_linker_0, # of connection points: 2
#     Edge 17, Type (0, 0), BuildingBlock: EZIPEK_clean_linker_0, # of connection points: 2
#     Edge 18, Type (0, 0), BuildingBlock: EZIPEK_clean_linker_0, # of connection points: 2
#     Edge 19, Type (0, 0), BuildingBlock: EZIPEK_clean_linker_0, # of connection points: 2
#     Edge 20, Type (0, 0), BuildingBlock: EZIPEK_clean_linker_0, # of connection points: 2
# Relax obj value: 0.292
# Max RMSD: 0.271
# Mean RMSD: 0.271
data_MOF--net-fns--node1-BEQFEK_clean_sbu_0--edge1-EZIPEK_clean_linker_0
_symmetry_space_group_name_H-M    P1
_symmetry_Int_Tables_number       1
_symmetry_cell_setting            triclinic
loop_
_symmetry_equiv_pos_as_xyz
'x, y, z'
_cell_length_a     40.496817
_cell_length_b     40.600044
_cell_length_c     14.688505
_cell_angle_alpha  90.029436
_cell_angle_beta   90.002705
_cell_angle_gamma 119.99038
loop_
_atom_site_label
_atom_site_type_symbol
_atom_site_fract_x
_atom_site_fract_y
_atom_site_fract_z
_atom_type_partial_charge
Co0 Co 0.19244 0.63311 0.05643 0.0
Co1 Co 0.18889 0.59305 0.24154 0.0
C2 C 0.24014 0.67922 0.19774 0.0
O3 O 0.22798 0.68145 0.11931 0.0
O4 O 0.22745 0.64752 0.23813 0.0
C5 C 0.17269 0.64831 0.86383 0.0
O6 O 0.16279 0.67335 0.88766 0.0
C7 C 0.18407 0.6043 0.43566 0.0
C8 C 0.15085 0.54595 0.48719 0.0
C9 C 0.16227 0.5834 0.51036 0.0
N10 N 0.18109 0.5801 0.36908 0.0
N11 N 0.16272 0.54526 0.40205 0.0
C12 C 0.21344 0.64586 0.43349 0.0
H13 H 0.23996 0.64967 0.40175 0.0
H14 H 0.20281 0.66155 0.3924 0.0
H15 H 0.22131 0.65834 0.50258 0.0
C16 C 0.108 0.59429 0.09093 0.0
N17 N 0.14411 0.60516 0.11667 0.0
N18 N 0.14278 0.58596 0.19025 0.0
C19 C 0.10605 0.56161 0.21115 0.0
C20 C 0.08293 0.56561 0.14831 0.0
C21 C 0.09712 0.61162 0.01531 0.0
H22 H 0.11781 0.64244 0.01222 0.0
H23 H 0.06823 0.60752 0.02636 0.0
H24 H 0.09653 0.59811 0.94962 0.0
O25 O 0.21689 0.60102 0.05086 0.0
O26 O 0.20699 0.56372 0.16901 0.0
H27 H 0.10617 0.51464 0.27594 0.0
H28 H 0.06146 0.51407 0.28587 0.0
C29 C 0.09292 0.53257 0.28525 0.0
H30 H 0.10161 0.54736 0.35168 0.0
H31 H 0.15647 0.52089 0.365 0.0
O32 O 0.18547 0.63485 0.92306 0.0
C33 C 0.22 0.57451 0.08895 0.0
Co34 Co 0.55811 0.18712 0.39087 0.0
Co35 Co 0.58953 0.1863 0.58373 0.0
C36 C 0.55468 0.2355 0.53056 0.0
O37 O 0.54313 0.2219 0.45117 0.0
O38 O 0.57322 0.2246 0.57955 0.0
C39 C 0.52422 0.18256 0.20651 0.0
O40 O 0.49972 0.19237 0.23579 0.0
C41 C 0.56951 0.17844 0.77244 0.0
C42 C 0.61382 0.17149 0.84252 0.0
C43 C 0.58122 0.17388 0.857 0.0
N44 N 0.59386 0.17892 0.70984 0.0
N45 N 0.62025 0.17447 0.75184 0.0
C46 C 0.53607 0.18337 0.75189 0.0
H47 H 0.54578 0.21421 0.7514 0.0
H48 H 0.52399 0.17112 0.68422 0.0
H49 H 0.51361 0.16976 0.8046 0.0
C50 C 0.52126 0.10428 0.41693 0.0
N51 N 0.54002 0.14007 0.44933 0.0
N52 N 0.55277 0.13984 0.53146 0.0
C53 C 0.54148 0.10378 0.55539 0.0
C54 C 0.52174 0.08012 0.483 0.0
C55 C 0.50838 0.09442 0.32032 0.0
H56 H 0.53349 0.10834 0.27455 0.0
H57 H 0.48911 0.10556 0.30342 0.0
H58 H 0.4934 0.06328 0.30837 0.0
O59 O 0.61387 0.21279 0.387 0.0
O60 O 0.63919 0.20808 0.51701 0.0
H61 H 0.58444 0.10621 0.64434 0.0
H62 H 0.53993 0.0614 0.64793 0.0
C63 C 0.55294 0.0927 0.64186 0.0
H64 H 0.54366 0.10318 0.70065 0.0
H65 H 0.64282 0.17395 0.71891 0.0
O66 O 0.54685 0.17968 0.2609 0.0
C67 C 0.64253 0.21825 0.43375 0.0
Co68 Co 0.37291 0.55775 0.72668 0.0
Co69 Co 0.40832 0.5899 0.91689 0.0
C70 C 0.32284 0.55095 0.87772 0.0
O71 O 0.32462 0.54014 0.7973 0.0
O72 O 0.35283 0.57056 0.92451 0.0
C73 C 0.36283 0.52872 0.53727 0.0
O74 O 0.35496 0.49451 0.5622 0.0
C75 C 0.40696 0.59189 0.11454 0.0
C76 C 0.46467 0.60391 0.15136 0.0
C77 C 0.42853 0.59143 0.1861 0.0
N78 N 0.428 0.601 0.0384 0.0
N79 N 0.4632 0.61041 0.06172 0.0
C80 C 0.36671 0.58345 0.12024 0.0
H81 H 0.36192 0.60198 0.07314 0.0
H82 H 0.34807 0.55339 0.10209 0.0
H83 H 0.35948 0.58775 0.19052 0.0
C84 C 0.42525 0.52375 0.7456 0.0
N85 N 0.40689 0.54189 0.77629 0.0
N86 N 0.41668 0.55145 0.86226 0.0
C87 C 0.43796 0.53629 0.89008 0.0
C88 C 0.44517 0.51973 0.81693 0.0
C89 C 0.42797 0.51369 0.64902 0.0
H90 H 0.42635 0.53368 0.60148 0.0
H91 H 0.40468 0.4843 0.63534 0.0
H92 H 0.45527 0.51422 0.63665 0.0
O93 O 0.40065 0.61273 0.72189 0.0
O94 O 0.43388 0.63868 0.84673 0.0
H95 H 0.48003 0.55922 0.99535 0.0
H96 H 0.45071 0.50873 0.99771 0.0
C97 C 0.45048 0.53559 0.98527 0.0
H98 H 0.4308 0.53738 0.03413 0.0
H99 H 0.48551 0.61861 0.01545 0.0
O100 O 0.36368 0.55187 0.59564 0.0
C101 C 0.42492 0.64155 0.76545 0.0
Co102 Co 0.81842 0.36969 0.07127 0.0
Co103 Co 0.82289 0.41108 0.25674 0.0
C104 C 0.76958 0.32594 0.21983 0.0
O105 O 0.78057 0.32232 0.14081 0.0
O106 O 0.78513 0.35805 0.25826 0.0
C107 C 0.82317 0.34247 0.87642 0.0
O108 O 0.81546 0.30752 0.89254 0.0
C109 C 0.82894 0.39887 0.44818 0.0
C110 C 0.84345 0.45309 0.51495 0.0
C111 C 0.83627 0.41644 0.53195 0.0
N112 N 0.83108 0.42348 0.38385 0.0
N113 N 0.83999 0.45603 0.42418 0.0
C114 C 0.81982 0.35884 0.43029 0.0
H115 H 0.78845 0.34032 0.4252 0.0
H116 H 0.83324 0.35741 0.3657 0.0
H117 H 0.82973 0.34758 0.48615 0.0
C118 C 0.90188 0.41815 0.0884 0.0
N119 N 0.86666 0.40117 0.12519 0.0
N120 N 0.86817 0.41757 0.20356 0.0
C121 C 0.90453 0.44363 0.22207 0.0
C122 C 0.92706 0.44578 0.14861 0.0
C123 C 0.90968 0.41288 0.99144 0.0
H124 H 0.89461 0.42286 0.94589 0.0
H125 H 0.89838 0.3822 0.97785 0.0
H126 H 0.94055 0.42902 0.9754 0.0
O127 O 0.79493 0.40087 0.06208 0.0
O128 O 0.79844 0.4355 0.18223 0.0
H129 H 0.90426 0.48737 0.30264 0.0
H130 H 0.94831 0.48614 0.30934 0.0
C131 C 0.91682 0.46857 0.3047 0.0
H132 H 0.90615 0.45063 0.36654 0.0
H133 H 0.84367 0.48016 0.38997 0.0
O134 O 0.82383 0.36363 0.94057 0.0
C135 C 0.78782 0.42465 0.10015 0.0
Co136 Co 0.45191 0.81701 0.39966 0.0
Co137 Co 0.41053 0.81761 0.58397 0.0
C138 C 0.4475 0.76855 0.54818 0.0
O139 O 0.46198 0.77932 0.46881 0.0
O140 O 0.4297 0.78311 0.58544 0.0
C141 C 0.48045 0.81677 0.20651 0.0
O142 O 0.50014 0.8004 0.22978 0.0
C143 C 0.43288 0.83018 0.77182 0.0
C144 C 0.37996 0.81357 0.84788 0.0
C145 C 0.41809 0.82433 0.85871 0.0
N146 N 0.40506 0.82329 0.71165 0.0
N147 N 0.37347 0.81377 0.75763 0.0
C148 C 0.47187 0.83778 0.74665 0.0
H149 H 0.47927 0.84883 0.67623 0.0
H150 H 0.49332 0.85841 0.795 0.0
H151 H 0.4726 0.81086 0.75148 0.0
C152 C 0.48848 0.89977 0.43157 0.0
N153 N 0.46671 0.86365 0.46005 0.0
N154 N 0.44762 0.86353 0.53273 0.0
C155 C 0.45695 0.89931 0.55367 0.0
C156 C 0.48281 0.92346 0.48964 0.0
C157 C 0.50964 0.9106 0.34344 0.0
H158 H 0.48913 0.90505 0.2874 0.0
H159 H 0.52311 0.89294 0.33208 0.0
H160 H 0.53168 0.94119 0.34249 0.0
O161 O 0.39676 0.79154 0.38926 0.0
O162 O 0.36265 0.79108 0.50768 0.0
H163 H 0.44603 0.93959 0.62587 0.0
H164 H 0.44931 0.90482 0.69539 0.0
C165 C 0.43893 0.90946 0.62943 0.0
H166 H 0.40754 0.89041 0.62751 0.0
H167 H 0.34708 0.8053 0.72747 0.0
O168 O 0.46348 0.82527 0.26675 0.0
C169 C 0.36477 0.78198 0.42528 0.0
Co170 Co 0.63904 0.45289 0.73439 0.0
Co171 Co 0.5995 0.4064 0.91628 0.0
C172 C 0.68598 0.44951 0.87682 0.0
O173 O 0.68765 0.46478 0.79988 0.0
O174 O 0.65424 0.42811 0.91463 0.0
C175 C 0.65161 0.49115 0.53286 0.0
O176 O 0.66669 0.52826 0.52893 0.0
C177 C 0.60974 0.41112 0.1155 0.0
C178 C 0.55102 0.38409 0.16771 0.0
C179 C 0.58879 0.4064 0.19411 0.0
N180 N 0.58568 0.39455 0.04472 0.0
N181 N 0.5506 0.37683 0.07775 0.0
C182 C 0.65238 0.43111 0.1094 0.0
H183 H 0.66104 0.41256 0.07378 0.0
H184 H 0.66299 0.45804 0.07095 0.0
H185 H 0.66586 0.43763 0.17771 0.0
C186 C 0.5928 0.48769 0.78013 0.0
N187 N 0.60715 0.46521 0.80307 0.0
N188 N 0.58836 0.4443 0.87403 0.0
C189 C 0.56144 0.45302 0.89774 0.0
C190 C 0.5631 0.48022 0.83828 0.0
C191 C 0.60432 0.51271 0.698 0.0
H192 H 0.6358 0.52809 0.69148 0.0
H193 H 0.59435 0.53363 0.70235 0.0
H194 H 0.59151 0.49493 0.63657 0.0
O195 O 0.60924 0.39813 0.70877 0.0
O196 O 0.57944 0.36214 0.82877 0.0
H197 H 0.5151 0.4029 0.95436 0.0
H198 H 0.51307 0.44555 0.97683 0.0
C199 C 0.53234 0.4336 0.9706 0.0
H200 H 0.54704 0.43733 0.03658 0.0
H201 H 0.52615 0.36165 0.03819 0.0
O202 O 0.64662 0.47605 0.61116 0.0
C203 C 0.58795 0.36559 0.74389 0.0
C204 C 0.25817 0.53927 0.06971 0.0
C205 C 0.23701 0.5556 0.03282 0.0
C206 C 0.26384 0.55735 0.88171 0.0
C207 C 0.28606 0.54282 0.91952 0.0
N208 N 0.2886 0.50223 0.03446 0.0
N209 N 0.20512 0.55849 0.89635 0.0
C210 C 0.27776 0.52768 0.00866 0.0
C211 C 0.23506 0.55758 0.93616 0.0
N212 N 0.26208 0.53681 0.16135 0.0
N213 N 0.27101 0.57265 0.79636 0.0
H214 H 0.18168 0.55462 0.93432 0.0
H215 H 0.20135 0.55768 0.82597 0.0
H216 H 0.29161 0.57291 0.75346 0.0
H217 H 0.25789 0.58724 0.77086 0.0
H218 H 0.28055 0.52853 0.18887 0.0
H219 H 0.24957 0.54551 0.21028 0.0
H220 H 0.28063 0.48784 0.0965 0.0
H221 H 0.30283 0.49349 0.98983 0.0
C222 C 0.69962 0.23141 0.33775 0.0
C223 C 0.68008 0.24467 0.39365 0.0
C224 C 0.71257 0.30593 0.31799 0.0
C225 C 0.73605 0.29505 0.26906 0.0
N226 N 0.75571 0.24837 0.24561 0.0
N227 N 0.67644 0.29765 0.45495 0.0
C228 C 0.73068 0.25793 0.2823 0.0
C229 C 0.68973 0.28306 0.39008 0.0
N230 N 0.6881 0.19358 0.33661 0.0
N231 N 0.71055 0.33732 0.29305 0.0
H232 H 0.65941 0.28142 0.50917 0.0
H233 H 0.68583 0.32663 0.46001 0.0
H234 H 0.72476 0.35391 0.23673 0.0
H235 H 0.69119 0.34416 0.32182 0.0
H236 H 0.6984 0.18148 0.29013 0.0
H237 H 0.66668 0.17412 0.37959 0.0
H238 H 0.75512 0.22301 0.26061 0.0
H239 H 0.77888 0.26698 0.20584 0.0
C240 C 0.40842 0.71043 0.63989 0.0
C241 C 0.44404 0.73465 0.59659 0.0
C242 C 0.47032 0.69872 0.6722 0.0
C243 C 0.43616 0.67868 0.72349 0.0
N244 N 0.37683 0.67283 0.77261 0.0
N245 N 0.51091 0.75484 0.5819 0.0
C246 C 0.4068 0.68734 0.71314 0.0
C247 C 0.47572 0.72966 0.61531 0.0
N248 N 0.37555 0.70814 0.60847 0.0
N249 N 0.49698 0.68757 0.67605 0.0
H250 H 0.51578 0.77758 0.54017 0.0
H251 H 0.53559 0.75461 0.60078 0.0
H252 H 0.49424 0.66602 0.71958 0.0
H253 H 0.52045 0.69821 0.63268 0.0
H254 H 0.34863 0.68838 0.63287 0.0
H255 H 0.37468 0.72273 0.55113 0.0
H256 H 0.35624 0.68109 0.7726 0.0
H257 H 0.37497 0.65581 0.82787 0.0
C258 C 0.74643 0.47865 0.97152 0.0
C259 C 0.71879 0.44827 0.9178 0.0
C260 C 0.73132 0.40362 0.00011 0.0
C261 C 0.7621 0.4341 0.04756 0.0
N262 N 0.80281 0.50184 0.06706 0.0
N263 N 0.69233 0.38392 0.86483 0.0
C264 C 0.77084 0.47212 0.03029 0.0
C265 C 0.7142 0.41159 0.92635 0.0
N266 N 0.7485 0.51321 0.96857 0.0
N267 N 0.71717 0.36683 0.02798 0.0
H268 H 0.67984 0.38929 0.80899 0.0
H269 H 0.6897 0.35705 0.86428 0.0
H270 H 0.72752 0.35941 0.0845 0.0
H271 H 0.69235 0.34409 0.00144 0.0
H272 H 0.76504 0.53529 0.01342 0.0
H273 H 0.73193 0.51888 0.92383 0.0
H274 H 0.81251 0.53009 0.04964 0.0
H275 H 0.82114 0.49809 0.11004 0.0
C276 C 0.33251 0.72725 0.31793 0.0
C277 C 0.3307 0.75609 0.36952 0.0
C278 C 0.269 0.73767 0.29749 0.0
C279 C 0.27341 0.71184 0.24061 0.0
N280 N 0.3141 0.68993 0.1798 0.0
N281 N 0.30007 0.79334 0.39509 0.0
C282 C 0.30696 0.7096 0.245 0.0
C283 C 0.29968 0.76267 0.35581 0.0
N284 N 0.35733 0.71506 0.3414 0.0
N285 N 0.23524 0.73754 0.29759 0.0
H286 H 0.32214 0.81248 0.43693 0.0
H287 H 0.28002 0.80149 0.38018 0.0
H288 H 0.21306 0.72065 0.25298 0.0
H289 H 0.22863 0.75248 0.34493 0.0
H290 H 0.35696 0.69164 0.3112 0.0
H291 H 0.37527 0.72527 0.3977 0.0
H292 H 0.33998 0.69032 0.17494 0.0
H293 H 0.29572 0.67669 0.12501 0.0
C294 C 0.52915 0.26661 0.63473 0.0
C295 C 0.55388 0.26956 0.56305 0.0
C296 C 0.6004 0.33328 0.61227 0.0
C297 C 0.57532 0.33183 0.68266 0.0
N298 N 0.51071 0.30032 0.7409 0.0
N299 N 0.6053 0.3103 0.4639 0.0
C300 C 0.53802 0.29942 0.68817 0.0
C301 C 0.58652 0.30475 0.54457 0.0
N302 N 0.49761 0.23231 0.65247 0.0
N303 N 0.63842 0.3597 0.61378 0.0
H304 H 0.59576 0.28939 0.41349 0.0
H305 H 0.62752 0.33683 0.44384 0.0
H306 H 0.65166 0.37845 0.66749 0.0
H307 H 0.65784 0.35949 0.56754 0.0
H308 H 0.48079 0.2271 0.71028 0.0
H309 H 0.48964 0.20863 0.61087 0.0
H310 H 0.48238 0.27851 0.74142 0.0
H311 H 0.51526 0.32446 0.77641 0.0
C312 C 0.1712 0.65313 0.6923 0.0
C313 C 0.16303 0.63035 0.7717 0.0
C314 C 0.1373 0.5733 0.67387 0.0
C315 C 0.15329 0.59732 0.59739 0.0
N316 N 0.15436 0.65241 0.53445 0.0
N317 N 0.13278 0.56665 0.83718 0.0
C318 C 0.16088 0.63513 0.60613 0.0
C319 C 0.14427 0.58977 0.76239 0.0
N320 N 0.19094 0.6919 0.69742 0.0
N321 N 0.11115 0.53572 0.66131 0.0
H322 H 0.13295 0.57583 0.90316 0.0
H323 H 0.12456 0.53793 0.83463 0.0
H324 H 0.09923 0.52476 0.59789 0.0
H325 H 0.09609 0.51692 0.71371 0.0
H326 H 0.20026 0.70907 0.63955 0.0
H327 H 0.20134 0.7068 0.7582 0.0
H328 H 0.15652 0.67905 0.53948 0.0
H329 H 0.14224 0.63775 0.474 0.0
C330 C 0.53006 0.14494 0.97587 0.0
C331 C 0.56485 0.17637 0.94501 0.0
C332 C 0.56461 0.21494 0.07303 0.0
C333 C 0.53234 0.18241 0.1089 0.0
N334 N 0.48327 0.11693 0.09743 0.0
N335 N 0.61622 0.24105 0.96319 0.0
C336 C 0.51443 0.14762 0.06045 0.0
C337 C 0.58233 0.21142 0.9931 0.0
N338 N 0.51203 0.11271 0.92389 0.0
N339 N 0.5779 0.24927 0.11562 0.0
H340 H 0.62916 0.24039 0.90242 0.0
H341 H 0.63283 0.26571 0.00053 0.0
H342 H 0.56512 0.25255 0.17399 0.0
H343 H 0.59931 0.275 0.0898 0.0
H344 H 0.48472 0.09032 0.93694 0.0
H345 H 0.52373 0.10897 0.86423 0.0
H346 H 0.47125 0.08934 0.0723 0.0
H347 H 0.46982 0.11909 0.15587 0.0
C348 C 0.36395 0.52313 0.36736 0.0
C349 C 0.38051 0.54438 0.44753 0.0
C350 C 0.42773 0.59766 0.35519 0.0
C351 C 0.4138 0.57469 0.27675 0.0
N352 N 0.37433 0.51216 0.21139 0.0
N353 N 0.43523 0.59921 0.51746 0.0
C354 C 0.38364 0.53634 0.28376 0.0
C355 C 0.41441 0.58091 0.4417 0.0
N356 N 0.32861 0.49133 0.36979 0.0
N357 N 0.45269 0.63583 0.34741 0.0
H358 H 0.42853 0.58859 0.58326 0.0
H359 H 0.46203 0.62358 0.51402 0.0
H360 H 0.46329 0.64938 0.28517 0.0
H361 H 0.46003 0.65463 0.40203 0.0
H362 H 0.31365 0.47723 0.31126 0.0
H363 H 0.31246 0.48141 0.42914 0.0
H364 H 0.35507 0.48308 0.21592 0.0
H365 H 0.38861 0.52033 0.14944 0.0
C366 C 0.79636 0.36603 0.75752 0.0
C367 C 0.82438 0.35649 0.78271 0.0
C368 C 0.86098 0.3872 0.6446 0.0
C369 C 0.83359 0.39804 0.62132 0.0
N370 N 0.7774 0.40156 0.65921 0.0
N371 N 0.87993 0.35212 0.74625 0.0
C372 C 0.8019 0.38852 0.67882 0.0
C373 C 0.85568 0.36523 0.72478 0.0
N374 N 0.76325 0.35154 0.80652 0.0
N375 N 0.89284 0.39948 0.59175 0.0
H376 H 0.87717 0.33679 0.80545 0.0
H377 H 0.90133 0.3541 0.7036 0.0
H378 H 0.89791 0.41625 0.53393 0.0
H379 H 0.9155 0.39526 0.60713 0.0
H380 H 0.73969 0.35347 0.7862 0.0
H381 H 0.75765 0.33399 0.8631 0.0
H382 H 0.75726 0.40055 0.70487 0.0
H383 H 0.77855 0.41574 0.59919 0.0
C384 C 0.48013 0.85472 0.0724 0.0
C385 C 0.47075 0.81885 0.10967 0.0
C386 C 0.43275 0.78742 0.97333 0.0
C387 C 0.43716 0.82268 0.94379 0.0
N388 N 0.46359 0.89003 0.96624 0.0
N389 N 0.43481 0.75023 0.09965 0.0
C390 C 0.46064 0.85646 0.99341 0.0
C391 C 0.44657 0.78494 0.06071 0.0
N392 N 0.50856 0.88707 0.11137 0.0
N393 N 0.41581 0.75636 0.9174 0.0
H394 H 0.44409 0.74679 0.16319 0.0
H395 H 0.41355 0.72478 0.07193 0.0
H396 H 0.40467 0.7568 0.85366 0.0
H397 H 0.41579 0.73115 0.93065 0.0
H398 H 0.51908 0.91411 0.08384 0.0
H399 H 0.52438 0.88624 0.16648 0.0
H400 H 0.47678 0.91482 0.00497 0.0
H401 H 0.45048 0.89248 0.90752 0.0
C402 C 0.62994 0.4668 0.28219 0.0
C403 C 0.60326 0.42723 0.2826 0.0
C404 C 0.60265 0.43018 0.44949 0.0
C405 C 0.63523 0.46766 0.44807 0.0
N406 N 0.6866 0.51513 0.35518 0.0
N407 N 0.5698 0.36959 0.37124 0.0
C408 C 0.65097 0.48407 0.3621 0.0
C409 C 0.59134 0.40829 0.36765 0.0
N410 N 0.63442 0.48847 0.20716 0.0
N411 N 0.58061 0.41613 0.52562 0.0
H412 H 0.56189 0.35248 0.31329 0.0
H413 H 0.56327 0.35455 0.43235 0.0
H414 H 0.58404 0.4323 0.58346 0.0
H415 H 0.55539 0.38996 0.52642 0.0
H416 H 0.65211 0.51795 0.20718 0.0
H417 H 0.61709 0.47772 0.14973 0.0
H418 H 0.69943 0.52614 0.29236 0.0
H419 H 0.70514 0.52633 0.4104 0.0
C420 C 0.97475 0.51535 0.13506 0.0
C421 C 0.96652 0.47703 0.13023 0.0
C422 C 0.03399 0.49968 0.10315 0.0
C423 C 0.04268 0.53681 0.12939 0.0
N424 N 0.0212 0.57956 0.17917 0.0
N425 N 0.98927 0.43239 0.1173 0.0
C426 C 0.01304 0.54473 0.14701 0.0
C427 C 0.99634 0.46899 0.11515 0.0
N428 N 0.9461 0.52366 0.12699 0.0
N429 N 0.06174 0.4938 0.06716 0.0
H430 H 0.96214 0.40905 0.12745 0.0
H431 H 0.01082 0.42547 0.11632 0.0
H432 H 0.08952 0.51591 0.05594 0.0
H433 H 0.05615 0.46783 0.03979 0.0
H434 H 0.95105 0.5514 0.1233 0.0
H435 H 0.91792 0.50285 0.11398 0.0
H436 H 1.00029 0.58532 0.20246 0.0
H437 H 0.04904 0.60178 0.18894 0.0
C438 C 0.47385 0.01102 0.4599 0.0
C439 C 0.51227 0.04013 0.47101 0.0
C440 C 0.53221 0.99268 0.48765 0.0
C441 C 0.49396 0.96366 0.4742 0.0
N442 N 0.43085 0.94526 0.41965 0.0
N443 N 0.57904 0.05902 0.46551 0.0
C444 C 0.46553 0.97287 0.4511 0.0
C445 C 0.54186 0.03107 0.47528 0.0
N446 N 0.44518 0.01951 0.46167 0.0
N447 N 0.55898 0.98377 0.51562 0.0
H448 H 0.58703 0.08732 0.45284 0.0
H449 H 0.60148 0.05349 0.46035 0.0
H450 H 0.55304 0.95584 0.52452 0.0
H451 H 0.58628 0.00415 0.53644 0.0
H452 H 0.41641 0.99883 0.46382 0.0
H453 H 0.4501 0.04719 0.46805 0.0
H454 H 0.41032 0.95105 0.39391 0.0
H455 H 0.42414 0.91709 0.41057 0.0
C456 C 0.46703 0.47217 0.79483 0.0
C457 C 0.47587 0.51004 0.81199 0.0
C458 C 0.54208 0.52858 0.8454 0.0
C459 C 0.53366 0.49114 0.82476 0.0
N460 N 0.49132 0.43024 0.756 0.0
N461 N 0.52379 0.5764 0.82555 0.0
C462 C 0.49707 0.46377 0.79194 0.0
C463 C 0.51406 0.53896 0.82872 0.0
N464 N 0.42994 0.44404 0.78466 0.0
N465 N 0.57639 0.5539 0.88326 0.0
H466 H 0.5043 0.58522 0.80964 0.0
H467 H 0.55185 0.59869 0.82906 0.0
H468 H 0.59791 0.54744 0.89536 0.0
H469 H 0.58232 0.5802 0.9091 0.0
H470 H 0.42156 0.41527 0.78174 0.0
H471 H 0.40717 0.44919 0.78614 0.0
H472 H 0.46627 0.4109 0.72294 0.0
H473 H 0.51289 0.42339 0.75122 0.0
loop_
_geom_bond_atom_site_label_1
_geom_bond_atom_site_label_2
_geom_bond_distance
_geom_bond_site_symmetry_2
_ccdc_geom_bond_type
Co0 O3 1.970 . S
Co0 N17 1.989 . S
Co0 O25 1.967 . S
Co0 O32 1.920 1_554 S
Co1 O4 1.966 . S
Co1 N10 2.022 . S
Co1 N18 1.993 . S
Co1 O26 1.941 . S
C2 O3 1.258 . S
C2 O4 1.263 . S
O3 Co0 1.970 . S
O3 C2 1.258 . S
O4 Co1 1.966 . S
O4 C2 1.263 . S
C5 O6 1.235 . S
C5 O32 1.289 . S
O6 C5 1.235 . S
C7 C9 1.400 . S
C7 N10 1.351 . S
C7 C12 1.501 . S
C8 C9 1.387 . S
C8 N11 1.341 . S
C9 C7 1.400 . S
C9 C8 1.387 . S
N10 Co1 2.022 . S
N10 C7 1.351 . S
N10 N11 1.365 . S
N11 C8 1.341 . S
N11 N10 1.365 . S
N11 H31 0.862 . S
C12 C7 1.501 . S
C12 H13 0.961 . S
C12 H14 0.961 . S
C12 H15 0.960 . S
H13 C12 0.961 . S
H14 C12 0.961 . S
H15 C12 0.960 . S
C16 N17 1.342 . S
C16 C20 1.401 . S
C16 C21 1.499 1_554 S
N17 Co0 1.989 . S
N17 C16 1.342 . S
N17 N18 1.388 . S
N18 Co1 1.993 . S
N18 N17 1.388 . S
N18 C19 1.346 . S
C19 N18 1.346 . S
C19 C20 1.396 . S
C19 C29 1.510 . S
C20 C16 1.401 . S
C20 C19 1.396 . S
C21 C16 1.499 1_556 S
C21 H22 0.959 . S
C21 H23 0.960 . S
C21 H24 0.961 . S
H22 C21 0.959 . S
H23 C21 0.960 . S
H24 C21 0.961 . S
O25 Co0 1.967 . S
O25 C33 1.258 . S
O26 Co1 1.941 . S
O26 C33 1.266 . S
H27 C29 0.959 . S
H28 C29 0.961 . S
C29 C19 1.510 . S
C29 H27 0.959 . S
C29 H28 0.961 . S
C29 H30 0.960 . S
H30 C29 0.960 . S
H31 N11 0.862 . S
O32 Co0 1.920 1_556 S
O32 C5 1.289 . S
C33 O25 1.258 . S
C33 O26 1.266 . S
Co34 O37 1.970 . S
Co34 N51 1.989 . S
Co34 O59 1.967 . S
Co34 O66 1.920 . S
Co35 O38 1.966 . S
Co35 N44 2.022 . S
Co35 N52 1.993 . S
Co35 O60 1.941 . S
C36 O37 1.258 . S
C36 O38 1.263 . S
O37 Co34 1.970 . S
O37 C36 1.258 . S
O38 Co35 1.966 . S
O38 C36 1.263 . S
C39 O40 1.235 . S
C39 O66 1.289 . S
O40 C39 1.235 . S
C41 C43 1.400 . S
C41 N44 1.351 . S
C41 C46 1.501 . S
C42 C43 1.387 . S
C42 N45 1.341 . S
C43 C41 1.400 . S
C43 C42 1.387 . S
N44 Co35 2.022 . S
N44 C41 1.351 . S
N44 N45 1.365 . S
N45 C42 1.341 . S
N45 N44 1.365 . S
N45 H65 0.862 . S
C46 C41 1.501 . S
C46 H47 0.961 . S
C46 H48 0.961 . S
C46 H49 0.960 . S
H47 C46 0.961 . S
H48 C46 0.961 . S
H49 C46 0.960 . S
C50 N51 1.342 . S
C50 C54 1.401 . S
C50 C55 1.499 . S
N51 Co34 1.989 . S
N51 C50 1.342 . S
N51 N52 1.388 . S
N52 Co35 1.993 . S
N52 N51 1.388 . S
N52 C53 1.346 . S
C53 N52 1.346 . S
C53 C54 1.396 . S
C53 C63 1.510 . S
C54 C50 1.401 . S
C54 C53 1.396 . S
C55 C50 1.499 . S
C55 H56 0.959 . S
C55 H57 0.960 . S
C55 H58 0.961 . S
H56 C55 0.959 . S
H57 C55 0.960 . S
H58 C55 0.961 . S
O59 Co34 1.967 . S
O59 C67 1.258 . S
O60 Co35 1.941 . S
O60 C67 1.266 . S
H61 C63 0.959 . S
H62 C63 0.961 . S
C63 C53 1.510 . S
C63 H61 0.959 . S
C63 H62 0.961 . S
C63 H64 0.960 . S
H64 C63 0.960 . S
H65 N45 0.862 . S
O66 Co34 1.920 . S
O66 C39 1.289 . S
C67 O59 1.258 . S
C67 O60 1.266 . S
Co68 O71 1.970 . S
Co68 N85 1.989 . S
Co68 O93 1.967 . S
Co68 O100 1.920 . S
Co69 O72 1.966 . S
Co69 N78 2.022 1_556 S
Co69 N86 1.993 . S
Co69 O94 1.941 . S
C70 O71 1.258 . S
C70 O72 1.263 . S
O71 Co68 1.970 . S
O71 C70 1.258 . S
O72 Co69 1.966 . S
O72 C70 1.263 . S
C73 O74 1.235 . S
C73 O100 1.289 . S
O74 C73 1.235 . S
C75 C77 1.400 . S
C75 N78 1.351 . S
C75 C80 1.501 . S
C76 C77 1.387 . S
C76 N79 1.341 . S
C77 C75 1.400 . S
C77 C76 1.387 . S
N78 Co69 2.022 1_554 S
N78 C75 1.351 . S
N78 N79 1.365 . S
N79 C76 1.341 . S
N79 N78 1.365 . S
N79 H99 0.862 . S
C80 C75 1.501 . S
C80 H81 0.961 . S
C80 H82 0.961 . S
C80 H83 0.960 . S
H81 C80 0.961 . S
H82 C80 0.961 . S
H83 C80 0.960 . S
C84 N85 1.342 . S
C84 C88 1.401 . S
C84 C89 1.499 . S
N85 Co68 1.989 . S
N85 C84 1.342 . S
N85 N86 1.388 . S
N86 Co69 1.993 . S
N86 N85 1.388 . S
N86 C87 1.346 . S
C87 N86 1.346 . S
C87 C88 1.396 . S
C87 C97 1.510 . S
C88 C84 1.401 . S
C88 C87 1.396 . S
C89 C84 1.499 . S
C89 H90 0.959 . S
C89 H91 0.960 . S
C89 H92 0.961 . S
H90 C89 0.959 . S
H91 C89 0.960 . S
H92 C89 0.961 . S
O93 Co68 1.967 . S
O93 C101 1.258 . S
O94 Co69 1.941 . S
O94 C101 1.266 . S
H95 C97 0.959 . S
H96 C97 0.961 1_554 S
C97 C87 1.510 . S
C97 H95 0.959 . S
C97 H96 0.961 1_556 S
C97 H98 0.960 1_556 S
H98 C97 0.960 1_554 S
H99 N79 0.862 . S
O100 Co68 1.920 . S
O100 C73 1.289 . S
C101 O93 1.258 . S
C101 O94 1.266 . S
Co102 O105 1.970 . S
Co102 N119 1.989 . S
Co102 O127 1.967 . S
Co102 O134 1.920 1_554 S
Co103 O106 1.966 . S
Co103 N112 2.022 . S
Co103 N120 1.993 . S
Co103 O128 1.941 . S
C104 O105 1.258 . S
C104 O106 1.263 . S
O105 Co102 1.970 . S
O105 C104 1.258 . S
O106 Co103 1.966 . S
O106 C104 1.263 . S
C107 O108 1.235 . S
C107 O134 1.289 . S
O108 C107 1.235 . S
C109 C111 1.400 . S
C109 N112 1.351 . S
C109 C114 1.501 . S
C110 C111 1.387 . S
C110 N113 1.341 . S
C111 C109 1.400 . S
C111 C110 1.387 . S
N112 Co103 2.022 . S
N112 C109 1.351 . S
N112 N113 1.365 . S
N113 C110 1.341 . S
N113 N112 1.365 . S
N113 H133 0.862 . S
C114 C109 1.501 . S
C114 H115 0.961 . S
C114 H116 0.961 . S
C114 H117 0.960 . S
H115 C114 0.961 . S
H116 C114 0.961 . S
H117 C114 0.960 . S
C118 N119 1.342 . S
C118 C122 1.401 . S
C118 C123 1.499 1_554 S
N119 Co102 1.989 . S
N119 C118 1.342 . S
N119 N120 1.388 . S
N120 Co103 1.993 . S
N120 N119 1.388 . S
N120 C121 1.346 . S
C121 N120 1.346 . S
C121 C122 1.396 . S
C121 C131 1.510 . S
C122 C118 1.401 . S
C122 C121 1.396 . S
C123 C118 1.499 1_556 S
C123 H124 0.959 . S
C123 H125 0.960 . S
C123 H126 0.961 . S
H124 C123 0.959 . S
H125 C123 0.960 . S
H126 C123 0.961 . S
O127 Co102 1.967 . S
O127 C135 1.258 . S
O128 Co103 1.941 . S
O128 C135 1.266 . S
H129 C131 0.959 . S
H130 C131 0.961 . S
C131 C121 1.510 . S
C131 H129 0.959 . S
C131 H130 0.961 . S
C131 H132 0.960 . S
H132 C131 0.960 . S
H133 N113 0.862 . S
O134 Co102 1.920 1_556 S
O134 C107 1.289 . S
C135 O127 1.258 . S
C135 O128 1.266 . S
Co136 O139 1.970 . S
Co136 N153 1.989 . S
Co136 O161 1.967 . S
Co136 O168 1.920 . S
Co137 O140 1.966 . S
Co137 N146 2.022 . S
Co137 N154 1.993 . S
Co137 O162 1.941 . S
C138 O139 1.258 . S
C138 O140 1.263 . S
O139 Co136 1.970 . S
O139 C138 1.258 . S
O140 Co137 1.966 . S
O140 C138 1.263 . S
C141 O142 1.235 . S
C141 O168 1.289 . S
O142 C141 1.235 . S
C143 C145 1.400 . S
C143 N146 1.351 . S
C143 C148 1.501 . S
C144 C145 1.387 . S
C144 N147 1.341 . S
C145 C143 1.400 . S
C145 C144 1.387 . S
N146 Co137 2.022 . S
N146 C143 1.351 . S
N146 N147 1.365 . S
N147 C144 1.341 . S
N147 N146 1.365 . S
N147 H167 0.862 . S
C148 C143 1.501 . S
C148 H149 0.961 . S
C148 H150 0.961 . S
C148 H151 0.960 . S
H149 C148 0.961 . S
H150 C148 0.961 . S
H151 C148 0.960 . S
C152 N153 1.342 . S
C152 C156 1.401 . S
C152 C157 1.499 . S
N153 Co136 1.989 . S
N153 C152 1.342 . S
N153 N154 1.388 . S
N154 Co137 1.993 . S
N154 N153 1.388 . S
N154 C155 1.346 . S
C155 N154 1.346 . S
C155 C156 1.396 . S
C155 C165 1.510 . S
C156 C152 1.401 . S
C156 C155 1.396 . S
C157 C152 1.499 . S
C157 H158 0.959 . S
C157 H159 0.960 . S
C157 H160 0.961 . S
H158 C157 0.959 . S
H159 C157 0.960 . S
H160 C157 0.961 . S
O161 Co136 1.967 . S
O161 C169 1.258 . S
O162 Co137 1.941 . S
O162 C169 1.266 . S
H163 C165 0.959 . S
H164 C165 0.961 . S
C165 C155 1.510 . S
C165 H163 0.959 . S
C165 H164 0.961 . S
C165 H166 0.960 . S
H166 C165 0.960 . S
H167 N147 0.862 . S
O168 Co136 1.920 . S
O168 C141 1.289 . S
C169 O161 1.258 . S
C169 O162 1.266 . S
Co170 O173 1.970 . S
Co170 N187 1.989 . S
Co170 O195 1.967 . S
Co170 O202 1.920 . S
Co171 O174 1.966 . S
Co171 N180 2.022 1_556 S
Co171 N188 1.993 . S
Co171 O196 1.941 . S
C172 O173 1.258 . S
C172 O174 1.263 . S
O173 Co170 1.970 . S
O173 C172 1.258 . S
O174 Co171 1.966 . S
O174 C172 1.263 . S
C175 O176 1.235 . S
C175 O202 1.289 . S
O176 C175 1.235 . S
C177 C179 1.400 . S
C177 N180 1.351 . S
C177 C182 1.501 . S
C178 C179 1.387 . S
C178 N181 1.341 . S
C179 C177 1.400 . S
C179 C178 1.387 . S
N180 Co171 2.022 1_554 S
N180 C177 1.351 . S
N180 N181 1.365 . S
N181 C178 1.341 . S
N181 N180 1.365 . S
N181 H201 0.862 . S
C182 C177 1.501 . S
C182 H183 0.961 . S
C182 H184 0.961 . S
C182 H185 0.960 . S
H183 C182 0.961 . S
H184 C182 0.961 . S
H185 C182 0.960 . S
C186 N187 1.342 . S
C186 C190 1.401 . S
C186 C191 1.499 . S
N187 Co170 1.989 . S
N187 C186 1.342 . S
N187 N188 1.388 . S
N188 Co171 1.993 . S
N188 N187 1.388 . S
N188 C189 1.346 . S
C189 N188 1.346 . S
C189 C190 1.396 . S
C189 C199 1.510 . S
C190 C186 1.401 . S
C190 C189 1.396 . S
C191 C186 1.499 . S
C191 H192 0.959 . S
C191 H193 0.960 . S
C191 H194 0.961 . S
H192 C191 0.959 . S
H193 C191 0.960 . S
H194 C191 0.961 . S
O195 Co170 1.967 . S
O195 C203 1.258 . S
O196 Co171 1.941 . S
O196 C203 1.266 . S
H197 C199 0.959 . S
H198 C199 0.961 1_554 S
C199 C189 1.510 . S
C199 H197 0.959 . S
C199 H198 0.961 1_556 S
C199 H200 0.960 1_556 S
H200 C199 0.960 1_554 S
H201 N181 0.862 . S
O202 Co170 1.920 . S
O202 C175 1.289 . S
C203 O195 1.258 . S
C203 O196 1.266 . S
C204 C205 1.363 . S
C204 C210 1.379 1_554 S
C204 N212 1.356 . S
C205 C204 1.363 . S
C205 C211 1.363 1_554 S
C206 C207 1.363 . S
C206 C211 1.379 . S
C206 N213 1.356 . S
C207 C206 1.363 . S
C207 C210 1.363 . S
N208 C210 1.356 . S
N208 H220 0.984 1_556 S
N208 H221 0.985 . S
N209 C211 1.356 . S
N209 H214 0.984 1_556 S
N209 H215 0.985 . S
C210 C204 1.379 1_556 S
C210 C207 1.363 . S
C210 N208 1.356 . S
C211 C205 1.363 1_556 S
C211 C206 1.379 . S
C211 N209 1.356 . S
N212 C204 1.356 . S
N212 H218 0.984 . S
N212 H219 0.984 . S
N213 C206 1.356 . S
N213 H216 0.984 . S
N213 H217 0.985 . S
H214 N209 0.984 1_554 S
H215 N209 0.985 . S
H216 N213 0.984 . S
H217 N213 0.985 . S
H218 N212 0.984 . S
H219 N212 0.984 . S
H220 N208 0.984 1_554 S
H221 N208 0.985 . S
C222 C223 1.363 . S
C222 C228 1.379 . S
C222 N230 1.356 . S
C223 C222 1.363 . S
C223 C229 1.363 . S
C224 C225 1.363 . S
C224 C229 1.379 . S
C224 N231 1.356 . S
C225 C224 1.363 . S
C225 C228 1.363 . S
N226 C228 1.356 . S
N226 H238 0.984 . S
N226 H239 0.985 . S
N227 C229 1.356 . S
N227 H232 0.984 . S
N227 H233 0.985 . S
C228 C222 1.379 . S
C228 C225 1.363 . S
C228 N226 1.356 . S
C229 C223 1.363 . S
C229 C224 1.379 . S
C229 N227 1.356 . S
N230 C222 1.356 . S
N230 H236 0.984 . S
N230 H237 0.984 . S
N231 C224 1.356 . S
N231 H234 0.984 . S
N231 H235 0.985 . S
H232 N227 0.984 . S
H233 N227 0.985 . S
H234 N231 0.984 . S
H235 N231 0.985 . S
H236 N230 0.984 . S
H237 N230 0.984 . S
H238 N226 0.984 . S
H239 N226 0.985 . S
C240 C241 1.363 . S
C240 C246 1.379 . S
C240 N248 1.356 . S
C241 C240 1.363 . S
C241 C247 1.363 . S
C242 C243 1.363 . S
C242 C247 1.379 . S
C242 N249 1.356 . S
C243 C242 1.363 . S
C243 C246 1.363 . S
N244 C246 1.356 . S
N244 H256 0.984 . S
N244 H257 0.985 . S
N245 C247 1.356 . S
N245 H250 0.984 . S
N245 H251 0.985 . S
C246 C240 1.379 . S
C246 C243 1.363 . S
C246 N244 1.356 . S
C247 C241 1.363 . S
C247 C242 1.379 . S
C247 N245 1.356 . S
N248 C240 1.356 . S
N248 H254 0.984 . S
N248 H255 0.984 . S
N249 C242 1.356 . S
N249 H252 0.984 . S
N249 H253 0.985 . S
H250 N245 0.984 . S
H251 N245 0.985 . S
H252 N249 0.984 . S
H253 N249 0.985 . S
H254 N248 0.984 . S
H255 N248 0.984 . S
H256 N244 0.984 . S
H257 N244 0.985 . S
C258 C259 1.363 . S
C258 C264 1.379 1_556 S
C258 N266 1.356 . S
C259 C258 1.363 . S
C259 C265 1.363 . S
C260 C261 1.363 1_556 S
C260 C265 1.379 . S
C260 N267 1.356 1_556 S
C261 C260 1.363 1_554 S
C261 C264 1.363 . S
N262 C264 1.356 . S
N262 H274 0.984 . S
N262 H275 0.985 . S
N263 C265 1.356 . S
N263 H268 0.984 . S
N263 H269 0.985 . S
C264 C258 1.379 1_554 S
C264 C261 1.363 . S
C264 N262 1.356 . S
C265 C259 1.363 . S
C265 C260 1.379 . S
C265 N263 1.356 . S
N266 C258 1.356 . S
N266 H272 0.984 . S
N266 H273 0.984 . S
N267 C260 1.356 1_554 S
N267 H270 0.984 . S
N267 H271 0.985 . S
H268 N263 0.984 . S
H269 N263 0.985 . S
H270 N267 0.984 . S
H271 N267 0.985 . S
H272 N266 0.984 . S
H273 N266 0.984 . S
H274 N262 0.984 . S
H275 N262 0.985 . S
C276 C277 1.363 . S
C276 C282 1.379 . S
C276 N284 1.356 . S
C277 C276 1.363 . S
C277 C283 1.363 . S
C278 C279 1.363 . S
C278 C283 1.379 . S
C278 N285 1.356 . S
C279 C278 1.363 . S
C279 C282 1.363 . S
N280 C282 1.356 . S
N280 H292 0.984 . S
N280 H293 0.985 . S
N281 C283 1.356 . S
N281 H286 0.984 . S
N281 H287 0.985 . S
C282 C276 1.379 . S
C282 C279 1.363 . S
C282 N280 1.356 . S
C283 C277 1.363 . S
C283 C278 1.379 . S
C283 N281 1.356 . S
N284 C276 1.356 . S
N284 H290 0.984 . S
N284 H291 0.984 . S
N285 C278 1.356 . S
N285 H288 0.984 . S
N285 H289 0.985 . S
H286 N281 0.984 . S
H287 N281 0.985 . S
H288 N285 0.984 . S
H289 N285 0.985 . S
H290 N284 0.984 . S
H291 N284 0.984 . S
H292 N280 0.984 . S
H293 N280 0.985 . S
C294 C295 1.363 . S
C294 C300 1.379 . S
C294 N302 1.356 . S
C295 C294 1.363 . S
C295 C301 1.363 . S
C296 C297 1.363 . S
C296 C301 1.379 . S
C296 N303 1.356 . S
C297 C296 1.363 . S
C297 C300 1.363 . S
N298 C300 1.356 . S
N298 H310 0.984 . S
N298 H311 0.985 . S
N299 C301 1.356 . S
N299 H304 0.984 . S
N299 H305 0.985 . S
C300 C294 1.379 . S
C300 C297 1.363 . S
C300 N298 1.356 . S
C301 C295 1.363 . S
C301 C296 1.379 . S
C301 N299 1.356 . S
N302 C294 1.356 . S
N302 H308 0.984 . S
N302 H309 0.984 . S
N303 C296 1.356 . S
N303 H306 0.984 . S
N303 H307 0.985 . S
H304 N299 0.984 . S
H305 N299 0.985 . S
H306 N303 0.984 . S
H307 N303 0.985 . S
H308 N302 0.984 . S
H309 N302 0.984 . S
H310 N298 0.984 . S
H311 N298 0.985 . S
C312 C313 1.363 . S
C312 C318 1.379 . S
C312 N320 1.356 . S
C313 C312 1.363 . S
C313 C319 1.363 . S
C314 C315 1.363 . S
C314 C319 1.379 . S
C314 N321 1.356 . S
C315 C314 1.363 . S
C315 C318 1.363 . S
N316 C318 1.356 . S
N316 H328 0.984 . S
N316 H329 0.985 . S
N317 C319 1.356 . S
N317 H322 0.984 . S
N317 H323 0.985 . S
C318 C312 1.379 . S
C318 C315 1.363 . S
C318 N316 1.356 . S
C319 C313 1.363 . S
C319 C314 1.379 . S
C319 N317 1.356 . S
N320 C312 1.356 . S
N320 H326 0.984 . S
N320 H327 0.984 . S
N321 C314 1.356 . S
N321 H324 0.984 . S
N321 H325 0.985 . S
H322 N317 0.984 . S
H323 N317 0.985 . S
H324 N321 0.984 . S
H325 N321 0.985 . S
H326 N320 0.984 . S
H327 N320 0.984 . S
H328 N316 0.984 . S
H329 N316 0.985 . S
C330 C331 1.363 . S
C330 C336 1.379 1_556 S
C330 N338 1.356 . S
C331 C330 1.363 . S
C331 C337 1.363 1_556 S
C332 C333 1.363 . S
C332 C337 1.379 . S
C332 N339 1.356 . S
C333 C332 1.363 . S
C333 C336 1.363 . S
N334 C336 1.356 . S
N334 H346 0.984 . S
N334 H347 0.985 . S
N335 C337 1.356 1_556 S
N335 H340 0.984 . S
N335 H341 0.989 . S
C336 C330 1.379 1_554 S
C336 C333 1.363 . S
C336 N334 1.356 . S
C337 C331 1.363 1_554 S
C337 C332 1.379 . S
C337 N335 1.356 1_554 S
N338 C330 1.356 . S
N338 H344 0.984 . S
N338 H345 0.984 . S
N339 C332 1.356 . S
N339 H342 0.984 . S
N339 H343 0.985 . S
H340 N335 0.984 . S
H341 N335 0.989 . S
H342 N339 0.984 . S
H343 N339 0.985 . S
H344 N338 0.984 . S
H345 N338 0.984 . S
H346 N334 0.984 . S
H347 N334 0.985 . S
C348 C349 1.363 . S
C348 C354 1.379 . S
C348 N356 1.356 . S
C349 C348 1.363 . S
C349 C355 1.363 . S
C350 C351 1.363 . S
C350 C355 1.379 . S
C350 N357 1.356 . S
C351 C350 1.363 . S
C351 C354 1.363 . S
N352 C354 1.356 . S
N352 H364 0.984 . S
N352 H365 0.985 . S
N353 C355 1.356 . S
N353 H358 0.984 . S
N353 H359 0.985 . S
C354 C348 1.379 . S
C354 C351 1.363 . S
C354 N352 1.356 . S
C355 C349 1.363 . S
C355 C350 1.379 . S
C355 N353 1.356 . S
N356 C348 1.356 . S
N356 H362 0.984 . S
N356 H363 0.984 . S
N357 C350 1.356 . S
N357 H360 0.984 . S
N357 H361 0.985 . S
H358 N353 0.984 . S
H359 N353 0.985 . S
H360 N357 0.984 . S
H361 N357 0.985 . S
H362 N356 0.984 . S
H363 N356 0.984 . S
H364 N352 0.984 . S
H365 N352 0.985 . S
C366 C367 1.363 . S
C366 C372 1.379 . S
C366 N374 1.356 . S
C367 C366 1.363 . S
C367 C373 1.363 . S
C368 C369 1.363 . S
C368 C373 1.379 . S
C368 N375 1.356 . S
C369 C368 1.363 . S
C369 C372 1.363 . S
N370 C372 1.356 . S
N370 H382 0.984 . S
N370 H383 0.985 . S
N371 C373 1.356 . S
N371 H376 0.984 . S
N371 H377 0.985 . S
C372 C366 1.379 . S
C372 C369 1.363 . S
C372 N370 1.356 . S
C373 C367 1.363 . S
C373 C368 1.379 . S
C373 N371 1.356 . S
N374 C366 1.356 . S
N374 H380 0.984 . S
N374 H381 0.984 . S
N375 C368 1.356 . S
N375 H378 0.984 . S
N375 H379 0.985 . S
H376 N371 0.984 . S
H377 N371 0.985 . S
H378 N375 0.984 . S
H379 N375 0.985 . S
H380 N374 0.984 . S
H381 N374 0.984 . S
H382 N370 0.984 . S
H383 N370 0.985 . S
C384 C385 1.363 . S
C384 C390 1.379 . S
C384 N392 1.356 . S
C385 C384 1.363 . S
C385 C391 1.363 . S
C386 C387 1.363 . S
C386 C391 1.379 1_556 S
C386 N393 1.356 . S
C387 C386 1.363 . S
C387 C390 1.363 1_556 S
N388 C390 1.355 1_556 S
N388 H400 0.983 1_556 S
N388 H401 0.987 . S
N389 C391 1.356 . S
N389 H394 0.984 . S
N389 H395 0.985 . S
C390 C384 1.379 . S
C390 C387 1.363 1_554 S
C390 N388 1.355 1_554 S
C391 C385 1.363 . S
C391 C386 1.379 1_554 S
C391 N389 1.356 . S
N392 C384 1.356 . S
N392 H398 0.984 . S
N392 H399 0.984 . S
N393 C386 1.356 . S
N393 H396 0.984 . S
N393 H397 0.985 . S
H394 N389 0.984 . S
H395 N389 0.985 . S
H396 N393 0.984 . S
H397 N393 0.985 . S
H398 N392 0.984 . S
H399 N392 0.984 . S
H400 N388 0.983 1_554 S
H401 N388 0.987 . S
C402 C403 1.363 . S
C402 C408 1.379 . S
C402 N410 1.356 . S
C403 C402 1.363 . S
C403 C409 1.363 . S
C404 C405 1.363 . S
C404 C409 1.379 . S
C404 N411 1.356 . S
C405 C404 1.363 . S
C405 C408 1.363 . S
N406 C408 1.356 . S
N406 H418 0.984 . S
N406 H419 0.985 . S
N407 C409 1.356 . S
N407 H412 0.984 . S
N407 H413 0.985 . S
C408 C402 1.379 . S
C408 C405 1.363 . S
C408 N406 1.356 . S
C409 C403 1.363 . S
C409 C404 1.379 . S
C409 N407 1.356 . S
N410 C402 1.356 . S
N410 H416 0.984 . S
N410 H417 0.984 . S
N411 C404 1.356 . S
N411 H414 0.984 . S
N411 H415 0.985 . S
H412 N407 0.984 . S
H413 N407 0.985 . S
H414 N411 0.984 . S
H415 N411 0.985 . S
H416 N410 0.984 . S
H417 N410 0.984 . S
H418 N406 0.984 . S
H419 N406 0.985 . S
C420 C421 1.363 . S
C420 C426 1.379 1_655 S
C420 N428 1.356 . S
C421 C420 1.363 . S
C421 C427 1.363 . S
C422 C423 1.363 . S
C422 C427 1.379 1_455 S
C422 N429 1.356 . S
C423 C422 1.363 . S
C423 C426 1.363 . S
N424 C426 1.356 . S
N424 H436 0.984 . S
N424 H437 0.985 . S
N425 C427 1.356 . S
N425 H430 0.984 . S
N425 H431 0.985 1_554 S
C426 C420 1.379 1_455 S
C426 C423 1.363 . S
C426 N424 1.356 . S
C427 C421 1.363 . S
C427 C422 1.379 1_655 S
C427 N425 1.356 . S
N428 C420 1.356 . S
N428 H434 0.984 . S
N428 H435 0.984 . S
N429 C422 1.356 . S
N429 H432 0.984 . S
N429 H433 0.985 1_554 S
H430 N425 0.984 . S
H431 N425 0.985 1_556 S
H432 N429 0.984 . S
H433 N429 0.985 1_556 S
H434 N428 0.984 . S
H435 N428 0.984 . S
H436 N424 0.984 . S
H437 N424 0.985 . S
C438 C439 1.363 . S
C438 C444 1.379 1_545 S
C438 N446 1.356 . S
C439 C438 1.363 . S
C439 C445 1.363 . S
C440 C441 1.363 . S
C440 C445 1.379 1_565 S
C440 N447 1.356 . S
C441 C440 1.363 . S
C441 C444 1.363 . S
N442 C444 1.356 . S
N442 H454 0.984 . S
N442 H455 0.985 . S
N443 C445 1.356 . S
N443 H448 0.984 . S
N443 H449 0.985 . S
C444 C438 1.379 1_565 S
C444 C441 1.363 . S
C444 N442 1.356 . S
C445 C439 1.363 . S
C445 C440 1.379 1_545 S
C445 N443 1.356 . S
N446 C438 1.356 . S
N446 H452 0.984 . S
N446 H453 0.984 . S
N447 C440 1.356 . S
N447 H450 0.984 . S
N447 H451 0.985 . S
H448 N443 0.984 . S
H449 N443 0.985 . S
H450 N447 0.984 . S
H451 N447 0.985 . S
H452 N446 0.984 . S
H453 N446 0.984 . S
H454 N442 0.984 . S
H455 N442 0.985 . S
C456 C457 1.363 . S
C456 C462 1.379 . S
C456 N464 1.356 . S
C457 C456 1.363 . S
C457 C463 1.363 . S
C458 C459 1.363 . S
C458 C463 1.379 . S
C458 N465 1.356 . S
C459 C458 1.363 . S
C459 C462 1.363 . S
N460 C462 1.356 . S
N460 H472 0.984 . S
N460 H473 0.985 . S
N461 C463 1.356 . S
N461 H466 0.984 . S
N461 H467 0.985 . S
C462 C456 1.379 . S
C462 C459 1.363 . S
C462 N460 1.356 . S
C463 C457 1.363 . S
C463 C458 1.379 . S
C463 N461 1.356 . S
N464 C456 1.356 . S
N464 H470 0.984 . S
N464 H471 0.984 . S
N465 C458 1.356 . S
N465 H468 0.984 . S
N465 H469 0.985 . S
H466 N461 0.984 . S
H467 N461 0.985 . S
H468 N465 0.984 . S
H469 N465 0.985 . S
H470 N464 0.984 . S
H471 N464 0.984 . S
H472 N460 0.984 . S
H473 N460 0.985 . S
C205 C33 1.676 . S
C207 C70 1.602 . S
C223 C67 1.676 . S
C225 C104 1.602 . S
C241 C138 1.602 . S
C243 C101 1.676 . S
C259 C172 1.602 . S
C261 C135 1.676 . S
C277 C169 1.676 . S
C279 C2 1.602 . S
C295 C36 1.602 . S
C297 C203 1.676 . S
C313 C5 1.481 . S
C315 C9 1.555 . S
C331 C43 1.555 . S
C333 C39 1.481 . S
C349 C73 1.481 . S
C351 C77 1.555 . S
C367 C107 1.481 . S
C369 C111 1.555 . S
C385 C141 1.481 . S
C387 C145 1.555 . S
C403 C179 1.555 . S
C405 C175 1.481 . S
C421 C122 1.568 . S
C423 C20 1.568 . S
C439 C54 1.568 . S
C441 C156 1.568 . S
C457 C88 1.568 . S
C459 C190 1.568 . S
