# Generated by pormake.
# Topology ukc, (4)-cn, num edge types: 1
# Building blocks:
#     Node 0, Type 0, BuildingBlock: NAHDIM_clean_sbu_0, # of connection points: 4
#     Node 1, Type 0, BuildingBlock: NAHDIM_clean_sbu_0, # of connection points: 4
#     Node 2, Type 0, BuildingBlock: NAHDIM_clean_sbu_0, # of connection points: 4
#     Node 3, Type 0, BuildingBlock: NAHDIM_clean_sbu_0, # of connection points: 4
#     Node 4, Type 0, BuildingBlock: NAHDIM_clean_sbu_0, # of connection points: 4
#     Node 5, Type 0, BuildingBlock: NAHDIM_clean_sbu_0, # of connection points: 4
#     Node 6, Type 0, BuildingBlock: NAHDIM_clean_sbu_0, # of connection points: 4
#     Node 7, Type 0, BuildingBlock: NAHDIM_clean_sbu_0, # of connection points: 4
#     Node 8, Type 0, BuildingBlock: NAHDIM_clean_sbu_0, # of connection points: 4
#     Node 9, Type 0, BuildingBlock: NAHDIM_clean_sbu_0, # of connection points: 4
#     Node 10, Type 0, BuildingBlock: NAHDIM_clean_sbu_0, # of connection points: 4
#     Node 11, Type 0, BuildingBlock: NAHDIM_clean_sbu_0, # of connection points: 4
#     Node 12, Type 0, BuildingBlock: NAHDIM_clean_sbu_0, # of connection points: 4
#     Node 13, Type 0, BuildingBlock: NAHDIM_clean_sbu_0, # of connection points: 4
#     Node 14, Type 0, BuildingBlock: NAHDIM_clean_sbu_0, # of connection points: 4
#     Node 15, Type 0, BuildingBlock: NAHDIM_clean_sbu_0, # of connection points: 4
#     Node 16, Type 0, BuildingBlock: NAHDIM_clean_sbu_0, # of connection points: 4
#     Node 17, Type 0, BuildingBlock: NAHDIM_clean_sbu_0, # of connection points: 4
#     Node 18, Type 0, BuildingBlock: NAHDIM_clean_sbu_0, # of connection points: 4
#     Node 19, Type 0, BuildingBlock: NAHDIM_clean_sbu_0, # of connection points: 4
#     Node 20, Type 0, BuildingBlock: NAHDIM_clean_sbu_0, # of connection points: 4
#     Node 21, Type 0, BuildingBlock: NAHDIM_clean_sbu_0, # of connection points: 4
#     Node 22, Type 0, BuildingBlock: NAHDIM_clean_sbu_0, # of connection points: 4
#     Node 23, Type 0, BuildingBlock: NAHDIM_clean_sbu_0, # of connection points: 4
#     Node 24, Type 0, BuildingBlock: NAHDIM_clean_sbu_0, # of connection points: 4
#     Node 25, Type 0, BuildingBlock: NAHDIM_clean_sbu_0, # of connection points: 4
#     Node 26, Type 0, BuildingBlock: NAHDIM_clean_sbu_0, # of connection points: 4
#     Node 27, Type 0, BuildingBlock: NAHDIM_clean_sbu_0, # of connection points: 4
#     Node 28, Type 0, BuildingBlock: NAHDIM_clean_sbu_0, # of connection points: 4
#     Node 29, Type 0, BuildingBlock: NAHDIM_clean_sbu_0, # of connection points: 4
#     Node 30, Type 0, BuildingBlock: NAHDIM_clean_sbu_0, # of connection points: 4
#     Node 31, Type 0, BuildingBlock: NAHDIM_clean_sbu_0, # of connection points: 4
#     Edge 32, Type (0, 0), BuildingBlock: XUDNAN_clean_linker_2, # of connection points: 2
#     Edge 33, Type (0, 0), BuildingBlock: XUDNAN_clean_linker_2, # of connection points: 2
#     Edge 34, Type (0, 0), BuildingBlock: XUDNAN_clean_linker_2, # of connection points: 2
#     Edge 35, Type (0, 0), BuildingBlock: XUDNAN_clean_linker_2, # of connection points: 2
#     Edge 36, Type (0, 0), BuildingBlock: XUDNAN_clean_linker_2, # of connection points: 2
#     Edge 37, Type (0, 0), BuildingBlock: XUDNAN_clean_linker_2, # of connection points: 2
#     Edge 38, Type (0, 0), BuildingBlock: XUDNAN_clean_linker_2, # of connection points: 2
#     Edge 39, Type (0, 0), BuildingBlock: XUDNAN_clean_linker_2, # of connection points: 2
#     Edge 40, Type (0, 0), BuildingBlock: XUDNAN_clean_linker_2, # of connection points: 2
#     Edge 41, Type (0, 0), BuildingBlock: XUDNAN_clean_linker_2, # of connection points: 2
#     Edge 42, Type (0, 0), BuildingBlock: XUDNAN_clean_linker_2, # of connection points: 2
#     Edge 43, Type (0, 0), BuildingBlock: XUDNAN_clean_linker_2, # of connection points: 2
#     Edge 44, Type (0, 0), BuildingBlock: XUDNAN_clean_linker_2, # of connection points: 2
#     Edge 45, Type (0, 0), BuildingBlock: XUDNAN_clean_linker_2, # of connection points: 2
#     Edge 46, Type (0, 0), BuildingBlock: XUDNAN_clean_linker_2, # of connection points: 2
#     Edge 47, Type (0, 0), BuildingBlock: XUDNAN_clean_linker_2, # of connection points: 2
#     Edge 48, Type (0, 0), BuildingBlock: XUDNAN_clean_linker_2, # of connection points: 2
#     Edge 49, Type (0, 0), BuildingBlock: XUDNAN_clean_linker_2, # of connection points: 2
#     Edge 50, Type (0, 0), BuildingBlock: XUDNAN_clean_linker_2, # of connection points: 2
#     Edge 51, Type (0, 0), BuildingBlock: XUDNAN_clean_linker_2, # of connection points: 2
#     Edge 52, Type (0, 0), BuildingBlock: XUDNAN_clean_linker_2, # of connection points: 2
#     Edge 53, Type (0, 0), BuildingBlock: XUDNAN_clean_linker_2, # of connection points: 2
#     Edge 54, Type (0, 0), BuildingBlock: XUDNAN_clean_linker_2, # of connection points: 2
#     Edge 55, Type (0, 0), BuildingBlock: XUDNAN_clean_linker_2, # of connection points: 2
#     Edge 56, Type (0, 0), BuildingBlock: XUDNAN_clean_linker_2, # of connection points: 2
#     Edge 57, Type (0, 0), BuildingBlock: XUDNAN_clean_linker_2, # of connection points: 2
#     Edge 58, Type (0, 0), BuildingBlock: XUDNAN_clean_linker_2, # of connection points: 2
#     Edge 59, Type (0, 0), BuildingBlock: XUDNAN_clean_linker_2, # of connection points: 2
#     Edge 60, Type (0, 0), BuildingBlock: XUDNAN_clean_linker_2, # of connection points: 2
#     Edge 61, Type (0, 0), BuildingBlock: XUDNAN_clean_linker_2, # of connection points: 2
#     Edge 62, Type (0, 0), BuildingBlock: XUDNAN_clean_linker_2, # of connection points: 2
#     Edge 63, Type (0, 0), BuildingBlock: XUDNAN_clean_linker_2, # of connection points: 2
#     Edge 64, Type (0, 0), BuildingBlock: XUDNAN_clean_linker_2, # of connection points: 2
#     Edge 65, Type (0, 0), BuildingBlock: XUDNAN_clean_linker_2, # of connection points: 2
#     Edge 66, Type (0, 0), BuildingBlock: XUDNAN_clean_linker_2, # of connection points: 2
#     Edge 67, Type (0, 0), BuildingBlock: XUDNAN_clean_linker_2, # of connection points: 2
#     Edge 68, Type (0, 0), BuildingBlock: XUDNAN_clean_linker_2, # of connection points: 2
#     Edge 69, Type (0, 0), BuildingBlock: XUDNAN_clean_linker_2, # of connection points: 2
#     Edge 70, Type (0, 0), BuildingBlock: XUDNAN_clean_linker_2, # of connection points: 2
#     Edge 71, Type (0, 0), BuildingBlock: XUDNAN_clean_linker_2, # of connection points: 2
#     Edge 72, Type (0, 0), BuildingBlock: XUDNAN_clean_linker_2, # of connection points: 2
#     Edge 73, Type (0, 0), BuildingBlock: XUDNAN_clean_linker_2, # of connection points: 2
#     Edge 74, Type (0, 0), BuildingBlock: XUDNAN_clean_linker_2, # of connection points: 2
#     Edge 75, Type (0, 0), BuildingBlock: XUDNAN_clean_linker_2, # of connection points: 2
#     Edge 76, Type (0, 0), BuildingBlock: XUDNAN_clean_linker_2, # of connection points: 2
#     Edge 77, Type (0, 0), BuildingBlock: XUDNAN_clean_linker_2, # of connection points: 2
#     Edge 78, Type (0, 0), BuildingBlock: XUDNAN_clean_linker_2, # of connection points: 2
#     Edge 79, Type (0, 0), BuildingBlock: XUDNAN_clean_linker_2, # of connection points: 2
#     Edge 80, Type (0, 0), BuildingBlock: XUDNAN_clean_linker_2, # of connection points: 2
#     Edge 81, Type (0, 0), BuildingBlock: XUDNAN_clean_linker_2, # of connection points: 2
#     Edge 82, Type (0, 0), BuildingBlock: XUDNAN_clean_linker_2, # of connection points: 2
#     Edge 83, Type (0, 0), BuildingBlock: XUDNAN_clean_linker_2, # of connection points: 2
#     Edge 84, Type (0, 0), BuildingBlock: XUDNAN_clean_linker_2, # of connection points: 2
#     Edge 85, Type (0, 0), BuildingBlock: XUDNAN_clean_linker_2, # of connection points: 2
#     Edge 86, Type (0, 0), BuildingBlock: XUDNAN_clean_linker_2, # of connection points: 2
#     Edge 87, Type (0, 0), BuildingBlock: XUDNAN_clean_linker_2, # of connection points: 2
#     Edge 88, Type (0, 0), BuildingBlock: XUDNAN_clean_linker_2, # of connection points: 2
#     Edge 89, Type (0, 0), BuildingBlock: XUDNAN_clean_linker_2, # of connection points: 2
#     Edge 90, Type (0, 0), BuildingBlock: XUDNAN_clean_linker_2, # of connection points: 2
#     Edge 91, Type (0, 0), BuildingBlock: XUDNAN_clean_linker_2, # of connection points: 2
#     Edge 92, Type (0, 0), BuildingBlock: XUDNAN_clean_linker_2, # of connection points: 2
#     Edge 93, Type (0, 0), BuildingBlock: XUDNAN_clean_linker_2, # of connection points: 2
#     Edge 94, Type (0, 0), BuildingBlock: XUDNAN_clean_linker_2, # of connection points: 2
#     Edge 95, Type (0, 0), BuildingBlock: XUDNAN_clean_linker_2, # of connection points: 2
# Relax obj value: 0.064
# Max RMSD: 0.092
# Mean RMSD: 0.092
data_MOF--net-ukc--node1-NAHDIM_clean_sbu_0--edge1-XUDNAN_clean_linker_2
_symmetry_space_group_name_H-M    P1
_symmetry_Int_Tables_number       1
_symmetry_cell_setting            triclinic
loop_
_symmetry_equiv_pos_as_xyz
'x, y, z'
_cell_length_a     45.738702
_cell_length_b     45.727349
_cell_length_c     83.177667
_cell_angle_alpha  89.987287
_cell_angle_beta   89.995317
_cell_angle_gamma 89.997471
loop_
_atom_site_label
_atom_site_type_symbol
_atom_site_fract_x
_atom_site_fract_y
_atom_site_fract_z
_atom_type_partial_charge
C0 C 0.16222 0.39829 0.03005 0.0
O1 O 0.15135 0.41403 0.04183 0.0
O2 O 0.11093 0.37414 0.05784 0.0
Zn3 Zn 0.10677 0.37177 0.03376 0.0
O4 O 0.07782 0.40056 0.02466 0.0
C5 C 0.0794 0.32445 0.01602 0.0
O6 O 0.07881 0.34349 0.00419 0.0
O7 O 0.14657 0.37821 0.02389 0.0
C8 C 0.07324 0.42654 0.02944 0.0
O9 O 0.0881 0.43682 0.04171 0.0
C10 C 0.13017 0.35669 0.06331 0.0
O11 O 0.1447 0.34019 0.05313 0.0
O12 O 0.09142 0.33151 0.02923 0.0
C13 C 0.92108 0.91603 0.2751 0.0
O14 O 0.93631 0.91006 0.28809 0.0
O15 O 0.90982 0.86042 0.30314 0.0
Zn16 Zn 0.90138 0.85656 0.27948 0.0
O17 O 0.86052 0.84152 0.27567 0.0
C18 C 0.92259 0.79991 0.27235 0.0
O19 O 0.89742 0.79356 0.2791 0.0
O20 O 0.90538 0.89609 0.26886 0.0
C21 C 0.85367 0.83428 0.2614 0.0
O22 O 0.87275 0.83847 0.24981 0.0
C23 C 0.89148 0.86766 0.31389 0.0
O24 O 0.86422 0.87284 0.30981 0.0
O25 O 0.92992 0.82662 0.27078 0.0
C26 C 0.33438 0.61103 0.51669 0.0
O27 O 0.33809 0.58763 0.52563 0.0
O28 O 0.37302 0.62754 0.55422 0.0
Zn29 Zn 0.38828 0.6246 0.5316 0.0
O30 O 0.40617 0.58498 0.52771 0.0
C31 C 0.4462 0.6479 0.53099 0.0
O32 O 0.45186 0.62117 0.53584 0.0
O33 O 0.35403 0.63071 0.51676 0.0
C34 C 0.41573 0.57904 0.51374 0.0
O35 O 0.41157 0.59798 0.50208 0.0
C36 C 0.3878 0.62013 0.56649 0.0
O37 O 0.41429 0.60959 0.56453 0.0
O38 O 0.4198 0.65522 0.52828 0.0
C39 C 0.60317 0.09098 0.77909 0.0
O40 O 0.58715 0.09807 0.79161 0.0
O41 O 0.62693 0.14894 0.80585 0.0
Zn42 Zn 0.62223 0.15091 0.7818 0.0
O43 O 0.65597 0.17184 0.77148 0.0
C44 C 0.56431 0.17375 0.78669 0.0
O45 O 0.56588 0.15779 0.7998 0.0
O46 O 0.61956 0.11022 0.77274 0.0
C47 C 0.65538 0.17445 0.75627 0.0
O48 O 0.63341 0.16301 0.74827 0.0
C49 C 0.64108 0.12879 0.81293 0.0
O50 O 0.65493 0.10912 0.80429 0.0
O51 O 0.58564 0.17366 0.7769 0.0
C52 C 0.1379 0.60412 0.46899 0.0
O53 O 0.12731 0.57748 0.47 0.0
O54 O 0.08875 0.61874 0.42817 0.0
Zn55 Zn 0.08318 0.6176 0.45218 0.0
O56 O 0.06517 0.57918 0.45882 0.0
C57 C 0.03315 0.65567 0.45086 0.0
O58 O 0.02735 0.64012 0.43797 0.0
O59 O 0.12273 0.62402 0.46235 0.0
C60 C 0.05306 0.577 0.47252 0.0
O61 O 0.05353 0.5996 0.48227 0.0
C62 C 0.10742 0.60183 0.42172 0.0
O63 O 0.12182 0.58333 0.43085 0.0
O64 O 0.05616 0.65014 0.45887 0.0
C65 C 0.63574 0.90234 0.72558 0.0
O66 O 0.6538 0.90577 0.71344 0.0
O67 O 0.64002 0.85632 0.69165 0.0
Zn68 Zn 0.63407 0.84234 0.71446 0.0
O69 O 0.67045 0.82326 0.7231 0.0
C70 C 0.57503 0.82941 0.71199 0.0
O71 O 0.57629 0.85734 0.70832 0.0
O72 O 0.62512 0.87718 0.72836 0.0
C73 C 0.6747 0.79591 0.72447 0.0
O74 O 0.65435 0.77761 0.71967 0.0
C75 C 0.63105 0.84166 0.67965 0.0
O76 O 0.61886 0.81602 0.68207 0.0
O77 O 0.59865 0.81611 0.71536 0.0
C78 C 0.35695 0.40326 0.98017 0.0
O79 O 0.35625 0.3894 0.96634 0.0
O80 O 0.40291 0.42084 0.94738 0.0
Zn81 Zn 0.41612 0.41558 0.97035 0.0
O82 O 0.44282 0.44838 0.97726 0.0
C83 C 0.4314 0.35278 0.96805 0.0
O84 O 0.40638 0.34934 0.96054 0.0
O85 O 0.38049 0.41573 0.98455 0.0
C86 C 0.47005 0.44635 0.97438 0.0
O87 O 0.47968 0.42386 0.9661 0.0
C88 C 0.41567 0.40926 0.93539 0.0
O89 O 0.43962 0.39397 0.9377 0.0
O90 O 0.43865 0.378 0.97307 0.0
C91 C 0.87454 0.10432 0.22427 0.0
O92 O 0.85679 0.10012 0.21207 0.0
O93 O 0.85972 0.15388 0.19257 0.0
Zn94 Zn 0.86795 0.16552 0.21556 0.0
O95 O 0.83184 0.1826 0.22595 0.0
C96 C 0.89362 0.22317 0.21564 0.0
O97 O 0.86618 0.23129 0.2143 0.0
O98 O 0.88192 0.13026 0.22798 0.0
C99 C 0.83145 0.18562 0.24115 0.0
O100 O 0.85385 0.17617 0.24957 0.0
C101 C 0.87969 0.15492 0.18195 0.0
O102 O 0.90581 0.16435 0.18599 0.0
O103 O 0.8997 0.19606 0.21621 0.0
C104 C 0.8698 0.6118 0.97857 0.0
O105 O 0.87683 0.58405 0.97722 0.0
O106 O 0.91221 0.61736 0.93618 0.0
Zn107 Zn 0.92222 0.61984 0.95971 0.0
O108 O 0.93892 0.58169 0.96771 0.0
C109 C 0.97824 0.64621 0.95676 0.0
O110 O 0.98415 0.62042 0.95061 0.0
O111 O 0.88621 0.63102 0.97221 0.0
C112 C 0.95296 0.58118 0.9809 0.0
O113 O 0.95575 0.6055 0.98917 0.0
C114 C 0.89101 0.60258 0.93057 0.0
O115 O 0.87478 0.58706 0.94042 0.0
O116 O 0.95258 0.65128 0.96192 0.0
C117 C 0.14752 0.07681 0.72233 0.0
O118 O 0.16551 0.08476 0.71082 0.0
O119 O 0.14449 0.13972 0.69852 0.0
Zn120 Zn 0.13541 0.13839 0.72221 0.0
O121 O 0.16649 0.16031 0.73441 0.0
C122 C 0.09423 0.18426 0.71941 0.0
O123 O 0.11623 0.19549 0.71135 0.0
O124 O 0.13247 0.09628 0.72945 0.0
C125 C 0.16178 0.16849 0.74878 0.0
O126 O 0.13706 0.16114 0.75575 0.0
C127 C 0.12603 0.12915 0.6887 0.0
O128 O 0.10184 0.11752 0.69433 0.0
O129 O 0.09705 0.15899 0.72559 0.0
C130 C 0.63121 0.37716 0.48803 0.0
O131 O 0.62018 0.40346 0.48991 0.0
O132 O 0.57885 0.37066 0.44896 0.0
Zn133 Zn 0.57522 0.36635 0.47299 0.0
O134 O 0.55915 0.40299 0.4834 0.0
C135 C 0.51995 0.33995 0.4791 0.0
O136 O 0.51186 0.3672 0.47692 0.0
O137 O 0.6156 0.35734 0.48159 0.0
C138 C 0.54664 0.42354 0.47573 0.0
O139 O 0.5455 0.4224 0.45997 0.0
C140 C 0.59798 0.38764 0.44299 0.0
O141 O 0.61427 0.40341 0.45269 0.0
O142 O 0.54689 0.33335 0.47783 0.0
C143 C 0.40497 0.91774 0.21619 0.0
O144 O 0.41887 0.90799 0.20344 0.0
O145 O 0.37731 0.86261 0.19142 0.0
Zn146 Zn 0.38095 0.85987 0.21549 0.0
O147 O 0.34417 0.84415 0.22567 0.0
C148 C 0.42353 0.81374 0.21182 0.0
O149 O 0.41028 0.81038 0.19793 0.0
O150 O 0.38786 0.90063 0.22372 0.0
C151 C 0.33814 0.81702 0.22546 0.0
O152 O 0.35592 0.79891 0.21807 0.0
C153 C 0.35434 0.85732 0.18334 0.0
O154 O 0.33054 0.84871 0.19079 0.0
O155 O 0.41494 0.83378 0.22131 0.0
C156 C 0.83887 0.38188 0.5183 0.0
O157 O 0.84407 0.40554 0.52679 0.0
O158 O 0.89075 0.38257 0.54969 0.0
Zn159 Zn 0.8984 0.36899 0.52698 0.0
O160 O 0.92358 0.39735 0.51453 0.0
C161 C 0.90435 0.30864 0.53417 0.0
O162 O 0.87754 0.31312 0.53929 0.0
O163 O 0.85932 0.36344 0.51623 0.0
C164 C 0.93152 0.42207 0.52 0.0
O165 O 0.92273 0.43017 0.53436 0.0
C166 C 0.90651 0.37423 0.56142 0.0
O167 O 0.92954 0.35786 0.55859 0.0
O168 O 0.91837 0.32981 0.52797 0.0
C169 C 0.39414 0.11368 0.2642 0.0
O170 O 0.40855 0.13791 0.26117 0.0
O171 O 0.37092 0.12867 0.31385 0.0
Zn172 Zn 0.37103 0.14609 0.29162 0.0
O173 O 0.3322 0.16567 0.28753 0.0
C174 C 0.39989 0.20266 0.28988 0.0
O175 O 0.37323 0.21264 0.29193 0.0
O176 O 0.37684 0.11276 0.27615 0.0
C177 C 0.32598 0.17662 0.27391 0.0
O178 O 0.34509 0.1746 0.26216 0.0
C179 C 0.37697 0.14327 0.3264 0.0
O180 O 0.38342 0.17116 0.32504 0.0
O181 O 0.40417 0.17519 0.28953 0.0
C182 C 0.67699 0.62795 0.02967 0.0
O183 O 0.66732 0.60156 0.03291 0.0
O184 O 0.62376 0.64225 0.06619 0.0
Zn185 Zn 0.62061 0.64314 0.042 0.0
O186 O 0.60447 0.60545 0.03308 0.0
C187 C 0.5931 0.70014 0.0426 0.0
O188 O 0.61133 0.70482 0.05454 0.0
O189 O 0.66065 0.64982 0.03257 0.0
C190 C 0.57717 0.60091 0.03167 0.0
O191 O 0.5587 0.62065 0.03703 0.0
C192 C 0.6338 0.62024 0.07372 0.0
O193 O 0.64143 0.59685 0.06558 0.0
O194 O 0.59362 0.67566 0.0354 0.0
C195 C 0.11087 0.88279 0.76876 0.0
O196 O 0.09495 0.88538 0.78183 0.0
O197 O 0.11868 0.83978 0.80418 0.0
Zn198 Zn 0.12468 0.82506 0.78163 0.0
O199 O 0.16429 0.80605 0.78 0.0
C200 C 0.09915 0.7689 0.78231 0.0
O201 O 0.12353 0.76426 0.79025 0.0
O202 O 0.12399 0.8588 0.76599 0.0
C203 C 0.17153 0.79402 0.76682 0.0
O204 O 0.1533 0.79511 0.75462 0.0
C205 C 0.13454 0.85991 0.81008 0.0
O206 O 0.15549 0.87129 0.80126 0.0
O207 O 0.0939 0.79444 0.77696 0.0
C208 C 0.63297 0.90336 0.5175 0.0
O209 O 0.61675 0.92697 0.51867 0.0
O210 O 0.59303 0.87718 0.55911 0.0
Zn211 Zn 0.5853 0.87705 0.5353 0.0
O212 O 0.55856 0.91012 0.529 0.0
C213 C 0.57989 0.81535 0.53052 0.0
O214 O 0.60801 0.81636 0.53372 0.0
O215 O 0.62378 0.87955 0.52354 0.0
C216 C 0.53203 0.90952 0.53352 0.0
O217 O 0.52305 0.88776 0.54258 0.0
C218 C 0.60874 0.8963 0.56605 0.0
O219 O 0.61989 0.91778 0.55753 0.0
O220 O 0.56542 0.83903 0.53012 0.0
C221 C 0.36413 0.40529 0.7809 0.0
O222 O 0.38741 0.40448 0.79015 0.0
O223 O 0.36028 0.36203 0.81816 0.0
Zn224 Zn 0.35287 0.34907 0.79541 0.0
O225 O 0.31786 0.32238 0.79434 0.0
C226 C 0.39486 0.3038 0.79555 0.0
O227 O 0.37918 0.29629 0.80813 0.0
O228 O 0.3463 0.38398 0.78117 0.0
C229 C 0.314 0.30782 0.7815 0.0
O230 O 0.33249 0.31126 0.76955 0.0
C231 C 0.34517 0.38185 0.8249 0.0
O232 O 0.32366 0.39411 0.81688 0.0
O233 O 0.38789 0.32664 0.78776 0.0
C234 C 0.84142 0.11358 0.02154 0.0
O235 O 0.84634 0.08528 0.02194 0.0
O236 O 0.89771 0.11873 0.05973 0.0
Zn237 Zn 0.90002 0.11862 0.03547 0.0
O238 O 0.91136 0.07902 0.02679 0.0
C239 C 0.94971 0.15877 0.03639 0.0
O240 O 0.95199 0.15045 0.05145 0.0
O241 O 0.86097 0.13106 0.02659 0.0
C242 C 0.93808 0.07137 0.02679 0.0
O243 O 0.95759 0.08887 0.03324 0.0
C244 C 0.87587 0.10714 0.06673 0.0
O245 O 0.85584 0.09408 0.058 0.0
O246 O 0.92952 0.14812 0.02769 0.0
C247 C 0.14034 0.59096 0.26404 0.0
O248 O 0.12681 0.58885 0.27793 0.0
O249 O 0.14604 0.6397 0.29646 0.0
Zn250 Zn 0.14431 0.65176 0.27314 0.0
O251 O 0.17687 0.67982 0.26814 0.0
C252 C 0.08255 0.65922 0.26486 0.0
O253 O 0.08229 0.63057 0.26378 0.0
O254 O 0.14928 0.61586 0.25933 0.0
C255 C 0.17473 0.70653 0.27219 0.0
O256 O 0.15151 0.71519 0.28018 0.0
C257 C 0.12936 0.65038 0.30719 0.0
O258 O 0.11059 0.67088 0.30321 0.0
O259 O 0.10621 0.67221 0.26845 0.0
C260 C 0.6471 0.15263 0.97596 0.0
O261 O 0.6362 0.17683 0.96992 0.0
O262 O 0.60218 0.12023 0.93973 0.0
Zn263 Zn 0.59398 0.12881 0.96311 0.0
O264 O 0.56806 0.09787 0.97272 0.0
C265 C 0.54761 0.17227 0.96277 0.0
O266 O 0.53187 0.15062 0.95704 0.0
O267 O 0.63264 0.12901 0.9747 0.0
C268 C 0.55855 0.10195 0.98691 0.0
O269 O 0.56632 0.12577 0.99464 0.0
C270 C 0.59848 0.13882 0.92854 0.0
O271 O 0.58776 0.1647 0.93203 0.0
O272 O 0.57444 0.16798 0.96597 0.0
C273 C 0.15897 0.39547 0.2161 0.0
O274 O 0.17577 0.38584 0.20443 0.0
O275 O 0.14547 0.33544 0.19099 0.0
Zn276 Zn 0.13739 0.33648 0.21474 0.0
O277 O 0.16643 0.31048 0.22601 0.0
C278 C 0.07472 0.33835 0.21969 0.0
O279 O 0.07905 0.36675 0.21964 0.0
O280 O 0.14101 0.37799 0.22271 0.0
C281 C 0.16193 0.30131 0.24022 0.0
O282 O 0.13796 0.30931 0.24774 0.0
C283 C 0.13 0.35035 0.18129 0.0
O284 O 0.10872 0.36663 0.18698 0.0
O285 O 0.09649 0.32129 0.21819 0.0
C286 C 0.83223 0.87646 0.47566 0.0
O287 O 0.84155 0.84987 0.47873 0.0
O288 O 0.89301 0.88978 0.4375 0.0
Zn289 Zn 0.89042 0.88622 0.46157 0.0
O290 O 0.91739 0.9154 0.47206 0.0
C291 C 0.90226 0.82405 0.4584 0.0
O292 O 0.88795 0.82692 0.44479 0.0
O293 O 0.84914 0.89447 0.46866 0.0
C294 C 0.9265 0.90998 0.4862 0.0
O295 O 0.91763 0.88602 0.49343 0.0
C296 C 0.91765 0.88613 0.43073 0.0
O297 O 0.94081 0.88148 0.43972 0.0
O298 O 0.90448 0.84593 0.46774 0.0
C299 C 0.35598 0.59082 0.72126 0.0
O300 O 0.33492 0.60125 0.71217 0.0
O301 O 0.37035 0.64032 0.6894 0.0
Zn302 Zn 0.37514 0.64626 0.71327 0.0
O303 O 0.34041 0.66723 0.72274 0.0
C304 C 0.40488 0.69809 0.71092 0.0
O305 O 0.37913 0.70329 0.70451 0.0
O306 O 0.37819 0.60683 0.72396 0.0
C307 C 0.34226 0.67513 0.73735 0.0
O308 O 0.36594 0.66846 0.74552 0.0
C309 C 0.34769 0.6474 0.68146 0.0
O310 O 0.32526 0.65895 0.68901 0.0
O311 O 0.41015 0.67258 0.71629 0.0
C312 C 0.31931 0.12951 0.46862 0.0
O313 O 0.32949 0.14096 0.45525 0.0
O314 O 0.38389 0.10972 0.44867 0.0
Zn315 Zn 0.37973 0.1128 0.47265 0.0
O316 O 0.39619 0.07738 0.48379 0.0
C317 C 0.38962 0.17053 0.4863 0.0
O318 O 0.3618 0.16888 0.4901 0.0
O319 O 0.33683 0.11639 0.47805 0.0
C320 C 0.42318 0.07087 0.48322 0.0
O321 O 0.44103 0.08748 0.47486 0.0
C322 C 0.37657 0.08756 0.44041 0.0
O323 O 0.36663 0.06414 0.44775 0.0
O324 O 0.40179 0.14898 0.47936 0.0
C325 C 0.6415 0.59986 0.23421 0.0
O326 O 0.62311 0.59885 0.22209 0.0
O327 O 0.65445 0.64936 0.20077 0.0
Zn328 Zn 0.64931 0.66019 0.22413 0.0
O329 O 0.67902 0.68955 0.23179 0.0
C330 C 0.5875 0.67632 0.21921 0.0
O331 O 0.5883 0.659 0.20662 0.0
O332 O 0.65438 0.62378 0.23743 0.0
C333 C 0.69993 0.70108 0.22398 0.0
O334 O 0.70437 0.69352 0.20894 0.0
C335 C 0.64854 0.66599 0.18896 0.0
O336 O 0.63938 0.69275 0.19173 0.0
O337 O 0.61 0.67873 0.22808 0.0
C338 C 0.1466 0.90946 0.97411 0.0
O339 O 0.13345 0.93477 0.97599 0.0
O340 O 0.09778 0.90008 0.93435 0.0
Zn341 Zn 0.09292 0.88965 0.95772 0.0
O342 O 0.06651 0.91815 0.96916 0.0
C343 C 0.09252 0.82763 0.95509 0.0
O344 O 0.1191 0.83291 0.94985 0.0
O345 O 0.13315 0.88857 0.9673 0.0
C346 C 0.03899 0.91486 0.96801 0.0
O347 O 0.02871 0.89329 0.95924 0.0
C348 C 0.08321 0.88745 0.92334 0.0
O349 O 0.0628 0.86859 0.92735 0.0
O350 O 0.07651 0.84896 0.95939 0.0
C351 C 0.87024 0.38995 0.71785 0.0
O352 O 0.89202 0.39138 0.70758 0.0
O353 O 0.8696 0.34328 0.68208 0.0
Zn354 Zn 0.86246 0.33121 0.70503 0.0
O355 O 0.82677 0.30573 0.7063 0.0
C356 C 0.92232 0.31078 0.70802 0.0
O357 O 0.92765 0.33099 0.69718 0.0
O358 O 0.8554 0.36654 0.71885 0.0
C359 C 0.81955 0.29632 0.72012 0.0
O360 O 0.83547 0.30376 0.73261 0.0
C361 C 0.85374 0.36251 0.67533 0.0
O362 O 0.83228 0.37452 0.6835 0.0
O363 O 0.89643 0.30764 0.71327 0.0
C364 C 0.34419 0.91121 0.02023 0.0
O365 O 0.34668 0.93315 0.03033 0.0
O366 O 0.38267 0.88901 0.05711 0.0
Zn367 Zn 0.39841 0.89433 0.03473 0.0
O368 O 0.41926 0.93279 0.03238 0.0
C369 C 0.45122 0.8605 0.03658 0.0
O370 O 0.45887 0.88166 0.04639 0.0
O371 O 0.36436 0.89214 0.01961 0.0
C372 C 0.43299 0.9379 0.0194 0.0
O373 O 0.43263 0.91815 0.00793 0.0
C374 C 0.39547 0.89814 0.06969 0.0
O375 O 0.42017 0.91259 0.06832 0.0
O376 O 0.42623 0.86138 0.02992 0.0
C377 C 0.84437 0.57878 0.77248 0.0
O378 O 0.82517 0.5871 0.7833 0.0
O379 O 0.86114 0.62745 0.80366 0.0
Zn380 Zn 0.86699 0.63499 0.77995 0.0
O381 O 0.83582 0.66211 0.77159 0.0
C382 C 0.9297 0.63808 0.77813 0.0
O383 O 0.92741 0.61027 0.78192 0.0
O384 O 0.86475 0.59626 0.76855 0.0
C385 C 0.83896 0.68951 0.7735 0.0
O386 O 0.86218 0.6992 0.78112 0.0
C387 C 0.87625 0.63992 0.8145 0.0
O388 O 0.89585 0.65949 0.81033 0.0
O389 O 0.90658 0.65311 0.77633 0.0
C390 C 0.1218 0.12916 0.51521 0.0
O391 O 0.09694 0.14006 0.51005 0.0
O392 O 0.09896 0.11059 0.56598 0.0
Zn393 Zn 0.08704 0.11004 0.54266 0.0
O394 O 0.0681 0.0714 0.5375 0.0
C395 C 0.03246 0.13757 0.54609 0.0
O396 O 0.02833 0.11333 0.55427 0.0
O397 O 0.12245 0.11578 0.52859 0.0
C398 C 0.0535 0.06858 0.52459 0.0
O399 O 0.05183 0.09078 0.51461 0.0
C400 C 0.12125 0.12482 0.5707 0.0
O401 O 0.13726 0.13879 0.56007 0.0
O402 O 0.05715 0.14187 0.53948 0.0
C403 C 0.65827 0.40664 0.28529 0.0
O404 O 0.675 0.3979 0.2972 0.0
O405 O 0.63161 0.3634 0.31641 0.0
Zn406 Zn 0.63118 0.35261 0.29287 0.0
O407 O 0.66352 0.32354 0.28872 0.0
C408 C 0.58647 0.30854 0.28753 0.0
O409 O 0.60778 0.2903 0.29094 0.0
O410 O 0.63779 0.38997 0.28052 0.0
C411 C 0.67101 0.315 0.27477 0.0
O412 O 0.65728 0.32548 0.26214 0.0
C413 C 0.61466 0.35233 0.32688 0.0
O414 O 0.59585 0.33213 0.32253 0.0
O415 O 0.59168 0.33584 0.28727 0.0
H416 H 0.98955 0.57425 0.00676 0.0
H417 H 0.94852 0.52647 0.9677 0.0
H418 H 0.97344 0.48135 0.97654 0.0
H419 H 0.05857 0.53895 0.00438 0.0
H420 H 0.06463 0.53854 0.02579 0.0
H421 H 0.04239 0.56674 0.01693 0.0
H422 H -0.0004 0.55295 0.03589 0.0
H423 H 0.02173 0.52472 0.04485 0.0
H424 H 0.98659 0.51574 0.03636 0.0
H425 H 0.00403 0.44193 0.98902 0.0
H426 H 0.03841 0.41085 0.00414 0.0
H427 H 0.05985 0.48436 0.03504 0.0
C428 C 0.98557 0.55426 0.00014 0.0
C429 C 0.96701 0.55388 0.98655 0.0
C430 C 0.96262 0.5273 0.97815 0.0
C431 C 0.97664 0.50154 0.98309 0.0
C432 C 0.99497 0.50274 0.99646 0.0
C433 C 0.99945 0.52839 0.00488 0.0
C434 C 0.02096 0.52395 0.01853 0.0
C435 C 0.04825 0.54318 0.01626 0.0
C436 C 0.00634 0.52968 0.03487 0.0
C437 C 0.02809 0.49185 0.01637 0.0
C438 C 0.01274 0.48002 0.00362 0.0
C439 C 0.01607 0.45092 0.99908 0.0
C440 C 0.0357 0.43345 0.00774 0.0
C441 C 0.05186 0.44513 0.0208 0.0
C442 C 0.04778 0.47472 0.02518 0.0
H443 H 0.74848 0.72876 0.21165 0.0
H444 H 0.69441 0.72278 0.25446 0.0
H445 H 0.7262 0.75848 0.26811 0.0
H446 H 0.81661 0.73314 0.23201 0.0
H447 H 0.83261 0.75874 0.21808 0.0
H448 H 0.80472 0.73383 0.21135 0.0
H449 H 0.77376 0.77754 0.20114 0.0
H450 H 0.80156 0.80261 0.2079 0.0
H451 H 0.76444 0.80666 0.21482 0.0
H452 H 0.76495 0.79312 0.27759 0.0
H453 H 0.80861 0.82371 0.28233 0.0
H454 H 0.83722 0.80753 0.23334 0.0
C455 C 0.74319 0.7351 0.22385 0.0
C456 C 0.7189 0.72295 0.23196 0.0
C457 C 0.71288 0.73175 0.24797 0.0
C458 C 0.73076 0.7521 0.25583 0.0
C459 C 0.75456 0.76356 0.24753 0.0
C460 C 0.76083 0.75541 0.2319 0.0
C461 C 0.78834 0.77029 0.22591 0.0
C462 C 0.81196 0.74765 0.22159 0.0
C463 C 0.78161 0.79048 0.21159 0.0
C464 C 0.79674 0.78772 0.24069 0.0
C465 C 0.77688 0.78366 0.25299 0.0
C466 C 0.78055 0.79666 0.26801 0.0
C467 C 0.80541 0.81399 0.27058 0.0
C468 C 0.82627 0.81813 0.2582 0.0
C469 C 0.82156 0.80506 0.24301 0.0
H470 H 0.51685 0.47048 0.46326 0.0
H471 H 0.53786 0.42704 0.50824 0.0
H472 H 0.50606 0.46164 0.52279 0.0
H473 H 0.51474 0.54435 0.47954 0.0
H474 H 0.48481 0.55537 0.46681 0.0
H475 H 0.51001 0.5277 0.46007 0.0
H476 H 0.46667 0.49218 0.4554 0.0
H477 H 0.44137 0.51962 0.4623 0.0
H478 H 0.44209 0.48415 0.47176 0.0
H479 H 0.47017 0.49945 0.5323 0.0
H480 H 0.43571 0.54034 0.53637 0.0
H481 H 0.43866 0.55945 0.48524 0.0
C482 C 0.51503 0.4684 0.47619 0.0
C483 C 0.52985 0.44601 0.4846 0.0
C484 C 0.52681 0.44405 0.50153 0.0
C485 C 0.5087 0.46354 0.50991 0.0
C486 C 0.49394 0.48496 0.50121 0.0
C487 C 0.49716 0.48774 0.48476 0.0
C488 C 0.47881 0.51265 0.47827 0.0
C489 C 0.49826 0.53643 0.47073 0.0
C490 C 0.45588 0.50147 0.46622 0.0
C491 C 0.46459 0.52329 0.49363 0.0
C492 C 0.47352 0.50696 0.50671 0.0
C493 C 0.46312 0.51249 0.52216 0.0
C494 C 0.44345 0.53568 0.52433 0.0
C495 C 0.43448 0.55311 0.51113 0.0
C496 C 0.44508 0.54656 0.49558 0.0
H497 H 0.798 0.27371 0.74821 0.0
H498 H 0.78261 0.2758 0.69671 0.0
H499 H 0.73942 0.244 0.70029 0.0
H500 H 0.77722 0.19855 0.75442 0.0
H501 H 0.76006 0.2056 0.77354 0.0
H502 H 0.78995 0.2282 0.76687 0.0
H503 H 0.75771 0.27441 0.77024 0.0
H504 H 0.72774 0.25197 0.77694 0.0
H505 H 0.72292 0.27633 0.76011 0.0
H506 H 0.69764 0.21241 0.70958 0.0
H507 H 0.65998 0.18379 0.72386 0.0
H508 H 0.70287 0.20254 0.76929 0.0
C509 C 0.78562 0.26746 0.73766 0.0
C510 C 0.79371 0.27723 0.72217 0.0
C511 C 0.77684 0.26858 0.70869 0.0
C512 C 0.7523 0.2505 0.71061 0.0
C513 C 0.74495 0.24129 0.72606 0.0
C514 C 0.7611 0.24948 0.73935 0.0
C515 C 0.74839 0.23689 0.75467 0.0
C516 C 0.77021 0.21607 0.76285 0.0
C517 C 0.7386 0.26136 0.76616 0.0
C518 C 0.72246 0.22041 0.74793 0.0
C519 C 0.7209 0.22315 0.7314 0.0
C520 C 0.69867 0.21006 0.72251 0.0
C521 C 0.67738 0.19385 0.73075 0.0
C522 C 0.67847 0.1909 0.7477 0.0
C523 C 0.70144 0.20431 0.75633 0.0
H524 H 0.95213 0.47656 0.528 0.0
H525 H 0.95466 0.41114 0.49019 0.0
H526 H 0.98705 0.44308 0.4742 0.0
H527 H 0.95028 0.53911 0.50214 0.0
H528 H 0.97315 0.56114 0.51497 0.0
H529 H 0.95062 0.53286 0.52354 0.0
H530 H 0.99634 0.50955 0.53677 0.0
H531 H 0.01903 0.53773 0.5282 0.0
H532 H 0.02722 0.4998 0.5244 0.0
H533 H 0.01885 0.48244 0.4622 0.0
H534 H 0.04687 0.52668 0.45489 0.0
H535 H 0.0234 0.56623 0.50057 0.0
C536 C 0.9595 0.46889 0.51637 0.0
C537 C 0.95084 0.4413 0.51037 0.0
C538 C 0.96098 0.43217 0.49506 0.0
C539 C 0.97943 0.45014 0.48589 0.0
C540 C 0.98757 0.47717 0.49219 0.0
C541 C 0.9779 0.48653 0.50706 0.0
C542 C 0.98954 0.5167 0.51098 0.0
C543 C 0.9644 0.53875 0.51302 0.0
C544 C 0.0092 0.51588 0.52598 0.0
C545 C 0.00712 0.52292 0.49595 0.0
C546 C 0.0058 0.49982 0.48527 0.0
C547 C 0.02009 0.50065 0.47048 0.0
C548 C 0.03596 0.52587 0.46644 0.0
C549 C 0.03737 0.54994 0.47715 0.0
C550 C 0.02285 0.54822 0.49212 0.0
H551 H 0.69144 0.73879 0.72954 0.0
H552 H 0.71973 0.82859 0.73649 0.0
H553 H 0.76464 0.81104 0.74968 0.0
H554 H 0.71785 0.71117 0.76715 0.0
H555 H 0.72945 0.67651 0.75903 0.0
H556 H 0.69957 0.696 0.74985 0.0
H557 H 0.72642 0.6948 0.72242 0.0
H558 H 0.75634 0.67523 0.7315 0.0
H559 H 0.76309 0.70902 0.72098 0.0
H560 H 0.80595 0.78407 0.76258 0.0
H561 H 0.84169 0.74922 0.7738 0.0
H562 H 0.78702 0.67683 0.75833 0.0
C563 C 0.70712 0.75477 0.73378 0.0
C564 C 0.702 0.78509 0.73197 0.0
C565 C 0.7231 0.80526 0.73771 0.0
C566 C 0.74871 0.79552 0.74524 0.0
C567 C 0.75298 0.76554 0.74692 0.0
C568 C 0.73287 0.74543 0.74131 0.0
C569 C 0.74281 0.71441 0.74469 0.0
C570 C 0.72113 0.6986 0.75584 0.0
C571 C 0.74744 0.69737 0.72896 0.0
C572 C 0.77158 0.72029 0.75313 0.0
C573 C 0.77698 0.74993 0.75429 0.0
C574 C 0.80202 0.76079 0.76171 0.0
C575 C 0.82217 0.7408 0.76807 0.0
C576 C 0.81721 0.71029 0.76694 0.0
C577 C 0.7915 0.70001 0.75936 0.0
H578 H 0.45772 0.49551 0.99221 0.0
H579 H 0.52973 0.44501 0.97251 0.0
H580 H 0.56484 0.47855 0.98539 0.0
H581 H 0.49163 0.56656 0.98746 0.0
H582 H 0.47673 0.58075 0.00594 0.0
H583 H 0.45726 0.55293 0.99498 0.0
H584 H 0.45672 0.52021 0.02043 0.0
H585 H 0.47639 0.54784 0.03143 0.0
H586 H 0.49074 0.51119 0.03019 0.0
H587 H 0.59218 0.51668 0.00097 0.0
H588 H 0.60991 0.5585 0.01697 0.0
H589 H 0.52017 0.58455 0.02632 0.0
C590 C 0.48086 0.49159 0.99052 0.0
C591 C 0.49095 0.46759 0.98135 0.0
C592 C 0.52144 0.46325 0.97945 0.0
C593 C 0.54158 0.48214 0.98676 0.0
C594 C 0.53092 0.50534 0.99588 0.0
C595 C 0.5013 0.51028 0.99769 0.0
C596 C 0.49562 0.5369 0.00808 0.0
C597 C 0.47935 0.56069 0.99854 0.0
C598 C 0.47888 0.52852 0.02344 0.0
C599 C 0.52669 0.54608 0.01186 0.0
C600 C 0.54671 0.52751 0.00475 0.0
C601 C 0.57672 0.53144 0.00656 0.0
C602 C 0.58657 0.55522 0.01571 0.0
C603 C 0.56646 0.57485 0.0229 0.0
C604 C 0.53613 0.56998 0.021 0.0
H605 H 0.78688 0.21688 0.22704 0.0
H606 H 0.82177 0.19084 0.27344 0.0
H607 H 0.7835 0.21976 0.28701 0.0
H608 H 0.77054 0.29008 0.23783 0.0
H609 H 0.73733 0.29212 0.22622 0.0
H610 H 0.76627 0.26789 0.22007 0.0
H611 H 0.7303 0.22412 0.22055 0.0
H612 H 0.7012 0.24825 0.22663 0.0
H613 H 0.70981 0.21651 0.23859 0.0
H614 H 0.74293 0.25305 0.29558 0.0
H615 H 0.70248 0.28827 0.29859 0.0
H616 H 0.69402 0.29312 0.24664 0.0
C617 C 0.78624 0.21693 0.24006 0.0
C618 C 0.80728 0.20147 0.24918 0.0
C619 C 0.80589 0.20245 0.26619 0.0
C620 C 0.78421 0.2188 0.27402 0.0
C621 C 0.76407 0.23407 0.26468 0.0
C622 C 0.76482 0.23325 0.24808 0.0
C623 C 0.74121 0.25252 0.24089 0.0
C624 C 0.75465 0.27711 0.23065 0.0
C625 C 0.71933 0.23425 0.23109 0.0
C626 C 0.72727 0.2645 0.25605 0.0
C627 C 0.74073 0.25347 0.26963 0.0
C628 C 0.73211 0.26173 0.28503 0.0
C629 C 0.70912 0.2818 0.28661 0.0
C630 C 0.69501 0.29349 0.27286 0.0
C631 C 0.70426 0.28456 0.2574 0.0
H632 H 0.3002 0.27365 0.75555 0.0
H633 H 0.27198 0.29495 0.804 0.0
H634 H 0.23086 0.26021 0.80129 0.0
H635 H 0.22903 0.26781 0.73837 0.0
H636 H 0.23854 0.23776 0.72535 0.0
H637 H 0.26609 0.26368 0.73133 0.0
H638 H 0.29796 0.2214 0.74246 0.0
H639 H 0.27046 0.19534 0.73655 0.0
H640 H 0.28273 0.19668 0.75713 0.0
H641 H 0.19216 0.22384 0.79299 0.0
H642 H 0.1585 0.1893 0.77963 0.0
H643 H 0.21249 0.19188 0.73671 0.0
C644 C 0.28546 0.271 0.76563 0.0
C645 C 0.28933 0.28703 0.78 0.0
C646 C 0.26946 0.28291 0.79287 0.0
C647 C 0.24607 0.2632 0.79146 0.0
C648 C 0.24291 0.24775 0.77712 0.0
C649 C 0.26206 0.25145 0.76443 0.0
C650 C 0.25357 0.23264 0.75021 0.0
C651 C 0.24638 0.25161 0.73545 0.0
C652 C 0.27761 0.21018 0.74637 0.0
C653 C 0.22649 0.21792 0.75681 0.0
C654 C 0.22074 0.22683 0.77237 0.0
C655 C 0.19651 0.21662 0.78083 0.0
C656 C 0.17753 0.19699 0.77314 0.0
C657 C 0.18286 0.18781 0.75713 0.0
C658 C 0.20785 0.19831 0.74898 0.0
H659 H 0.22449 0.69594 0.25472 0.0
H660 H 0.1759 0.76542 0.27824 0.0
H661 H 0.21256 0.8013 0.26896 0.0
H662 H 0.29668 0.72391 0.26352 0.0
H663 H 0.31157 0.71277 0.24441 0.0
H664 H 0.28182 0.69255 0.25323 0.0
H665 H 0.25123 0.70014 0.22733 0.0
H666 H 0.28083 0.72049 0.21846 0.0
H667 H 0.24502 0.73671 0.21998 0.0
H668 H 0.25394 0.82977 0.25656 0.0
H669 H 0.29759 0.84855 0.24246 0.0
H670 H 0.31892 0.76031 0.22712 0.0
C671 C 0.2216 0.71866 0.25802 0.0
C672 C 0.19732 0.72786 0.26722 0.0
C673 C 0.19435 0.75783 0.27122 0.0
C674 C 0.21503 0.7784 0.26599 0.0
C675 C 0.23856 0.76861 0.25682 0.0
C676 C 0.24201 0.73945 0.25291 0.0
C677 C 0.26907 0.73465 0.24277 0.0
C678 C 0.29109 0.7148 0.25151 0.0
C679 C 0.26104 0.72227 0.22615 0.0
C680 C 0.28026 0.7657 0.24152 0.0
C681 C 0.26237 0.78497 0.2497 0.0
C682 C 0.26816 0.81487 0.25015 0.0
C683 C 0.29298 0.82532 0.24209 0.0
C684 C 0.31171 0.80591 0.23369 0.0
C685 C 0.3051 0.77573 0.23343 0.0
H686 H 0.3082 0.20687 0.24713 0.0
H687 H 0.28145 0.18383 0.2956 0.0
H688 H 0.23627 0.21271 0.29216 0.0
H689 H 0.28249 0.28046 0.24811 0.0
H690 H 0.27048 0.28059 0.22747 0.0
H691 H 0.30025 0.2573 0.23354 0.0
H692 H 0.27274 0.21213 0.22234 0.0
H693 H 0.24293 0.2353 0.21619 0.0
H694 H 0.23613 0.2045 0.22919 0.0
H695 H 0.19444 0.24498 0.28362 0.0
H696 H 0.15891 0.27795 0.27053 0.0
H697 H 0.21327 0.28003 0.22773 0.0
C698 C 0.29278 0.2077 0.25699 0.0
C699 C 0.29837 0.19301 0.27163 0.0
C700 C 0.27766 0.19486 0.28426 0.0
C701 C 0.25192 0.21121 0.28243 0.0
C702 C 0.24721 0.2256 0.26789 0.0
C703 C 0.26703 0.22396 0.25539 0.0
C704 C 0.257 0.24187 0.2411 0.0
C705 C 0.27886 0.26652 0.23734 0.0
C706 C 0.25189 0.22227 0.22633 0.0
C707 C 0.2285 0.25394 0.24755 0.0
C708 C 0.22321 0.24426 0.26301 0.0
C709 C 0.19832 0.25266 0.27149 0.0
C710 C 0.17827 0.27142 0.26396 0.0
C711 C 0.18326 0.28161 0.2481 0.0
C712 C 0.20877 0.27266 0.23985 0.0
H713 H 0.19268 0.76481 0.74048 0.0
H714 H 0.21324 0.78615 0.79009 0.0
H715 H 0.25896 0.75768 0.788 0.0
H716 H 0.21946 0.69124 0.74136 0.0
H717 H 0.23396 0.69246 0.72122 0.0
H718 H 0.20303 0.71484 0.72653 0.0
H719 H 0.23086 0.76113 0.71707 0.0
H720 H 0.26183 0.73888 0.71167 0.0
H721 H 0.2664 0.76907 0.72537 0.0
H722 H 0.30215 0.72651 0.78059 0.0
H723 H 0.34031 0.69571 0.76822 0.0
H724 H 0.29142 0.69475 0.72346 0.0
C725 C 0.20681 0.76361 0.75091 0.0
C726 C 0.19937 0.77773 0.76545 0.0
C727 C 0.21848 0.77555 0.77881 0.0
C728 C 0.24448 0.7594 0.77775 0.0
C729 C 0.25104 0.7456 0.76326 0.0
C730 C 0.23281 0.7476 0.75006 0.0
C731 C 0.24492 0.73068 0.7359 0.0
C732 C 0.2241 0.70583 0.73097 0.0
C733 C 0.25139 0.75117 0.72167 0.0
C734 C 0.27281 0.71881 0.7432 0.0
C735 C 0.27592 0.72764 0.75899 0.0
C736 C 0.29996 0.71947 0.76822 0.0
C737 C 0.32151 0.70194 0.76109 0.0
C738 C 0.31887 0.69279 0.74487 0.0
C739 C 0.29408 0.70131 0.73588 0.0
H740 H 0.54307 0.95662 0.51388 0.0
H741 H 0.47378 0.91367 0.54067 0.0
H742 H 0.43856 0.95043 0.53085 0.0
H743 H 0.51825 0.03079 0.52059 0.0
H744 H 0.52834 0.043 0.50075 0.0
H745 H 0.54823 0.01362 0.51015 0.0
H746 H 0.53756 0.98035 0.48563 0.0
H747 H 0.51755 0.00959 0.47617 0.0
H748 H 0.50027 0.97464 0.47936 0.0
H749 H 0.41064 0.99109 0.51766 0.0
H750 H 0.39209 0.03352 0.50245 0.0
H751 H 0.47957 0.05012 0.48429 0.0
C752 C 0.52053 0.95501 0.51776 0.0
C753 C 0.5112 0.93224 0.52807 0.0
C754 C 0.48147 0.93091 0.53281 0.0
C755 C 0.46128 0.95168 0.52728 0.0
C756 C 0.47115 0.97367 0.51705 0.0
C757 C 0.50008 0.97556 0.51237 0.0
C758 C 0.50495 0.00122 0.50116 0.0
C759 C 0.5262 0.02348 0.50861 0.0
C760 C 0.51571 0.99082 0.4846 0.0
C761 C 0.4742 0.0134 0.50021 0.0
C762 C 0.45505 0.99718 0.50947 0.0
C763 C 0.42543 0.00402 0.51041 0.0
C764 C 0.41511 0.02815 0.5017 0.0
C765 C 0.43436 0.0452 0.49217 0.0
C766 C 0.46429 0.03759 0.49146 0.0
H767 H 0.05293 0.96184 0.98712 0.0
H768 H 0.97916 0.91317 0.96805 0.0
H769 H 0.94525 0.94664 0.98198 0.0
H770 H 0.02117 0.97745 0.02613 0.0
H771 H 0.03672 0.01362 0.0272 0.0
H772 H 0.05524 0.9853 0.01611 0.0
H773 H 0.05521 0.01802 0.99066 0.0
H774 H 0.03679 0.04645 0.00167 0.0
H775 H 0.02112 0.0326 0.98331 0.0
H776 H 0.9193 0.98633 0.99733 0.0
H777 H 0.90334 0.02974 0.01269 0.0
H778 H 0.9941 0.05211 0.02183 0.0
C779 C 0.02965 0.95812 0.98592 0.0
C780 C 0.01872 0.93485 0.97649 0.0
C781 C 0.98808 0.93083 0.9752 0.0
C782 C 0.96862 0.94969 0.98309 0.0
C783 C 0.98013 0.97242 0.99226 0.0
C784 C 0.00992 0.97671 0.99372 0.0
C785 C 0.01663 0.00318 0.004 0.0
C786 C 0.03343 0.99435 0.01927 0.0
C787 C 0.03342 0.02643 0.99433 0.0
C788 C 0.98595 0.01329 0.00797 0.0
C789 C 0.96519 0.9952 0.00115 0.0
C790 C 0.93535 0.00057 0.00281 0.0
C791 C 0.9265 0.02528 0.01155 0.0
C792 C 0.94744 0.0443 0.0185 0.0
C793 C 0.97752 0.03793 0.01677 0.0
H794 H 0.53867 0.05005 0.97439 0.0
H795 H 0.53358 0.10532 0.01675 0.0
H796 H 0.50039 0.06971 0.02955 0.0
H797 H 0.46359 0.02641 0.97474 0.0
H798 H 0.47201 0.98975 0.96826 0.0
H799 H 0.49527 0.01969 0.96238 0.0
H800 H 0.54006 0.99301 0.97461 0.0
H801 H 0.51695 0.96298 0.9805 0.0
H802 H 0.53897 0.98145 0.99533 0.0
H803 H 0.46793 0.02795 0.03781 0.0
H804 H 0.43893 0.98276 0.04101 0.0
H805 H 0.46533 0.95488 0.99326 0.0
C806 C 0.53058 0.0547 0.98635 0.0
C807 C 0.53874 0.08049 0.99456 0.0
C808 C 0.52766 0.08571 0.01022 0.0
C809 C 0.50877 0.06563 0.01759 0.0
C810 C 0.50116 0.04045 0.00916 0.0
C811 C 0.51173 0.0349 0.9939 0.0
C812 C 0.50035 0.00608 0.98749 0.0
C813 C 0.48169 0.01078 0.97232 0.0
C814 C 0.52559 0.98462 0.9843 0.0
C815 C 0.48178 0.99625 0.00156 0.0
C816 C 0.4825 0.0164 0.01393 0.0
C817 C 0.46717 0.01202 0.0282 0.0
C818 C 0.45076 0.98629 0.0299 0.0
C819 C 0.44983 0.96528 0.01739 0.0
C820 C 0.46553 0.9705 0.00304 0.0
H821 H 0.01999 0.05581 0.49816 0.0
H822 H 0.05006 0.01962 0.54352 0.0
H823 H 0.02136 0.97485 0.53842 0.0
H824 H 0.94719 0.02845 0.50035 0.0
H825 H 0.94448 0.02072 0.47915 0.0
H826 H 0.96811 0.04956 0.48611 0.0
H827 H 0.01203 0.02548 0.47154 0.0
H828 H 0.98852 0.9966 0.46449 0.0
H829 H 0.02104 0.98787 0.47575 0.0
H830 H 0.98815 0.93478 0.52882 0.0
H831 H 0.95376 0.90158 0.51509 0.0
H832 H 0.94574 0.96375 0.47585 0.0
C833 C 0.02072 0.03842 0.50699 0.0
C834 C 0.03731 0.04123 0.52124 0.0
C835 C 0.03757 0.01797 0.5325 0.0
C836 C 0.02132 0.99245 0.52972 0.0
C837 C 0.00501 0.99052 0.51561 0.0
C838 C 0.00469 0.0128 0.5044 0.0
C839 C 0.98507 0.00538 0.4903 0.0
C840 C 0.95971 0.02733 0.48891 0.0
C841 C 0.00273 0.00373 0.47459 0.0
C842 C 0.97428 0.97548 0.49539 0.0
C843 C 0.98603 0.96733 0.51003 0.0
C844 C 0.97891 0.94086 0.51732 0.0
C845 C 0.9593 0.92218 0.50943 0.0
C846 C 0.94707 0.93002 0.49438 0.0
C847 C 0.95478 0.95706 0.48731 0.0
H848 H 0.99281 0.18905 0.05217 0.0
H849 H 0.95224 0.17855 0.00533 0.0
H850 H 0.98447 0.2169 0.99431 0.0
H851 H 0.99835 0.26543 0.05088 0.0
H852 H 0.03314 0.2672 0.06101 0.0
H853 H 0.00881 0.23708 0.06481 0.0
H854 H 0.0497 0.20059 0.05685 0.0
H855 H 0.07417 0.23067 0.05299 0.0
H856 H 0.06719 0.20398 0.03751 0.0
H857 H 0.01843 0.25899 0.9889 0.0
H858 H 0.05088 0.30217 0.98972 0.0
H859 H 0.06944 0.28466 0.04 0.0
C860 C 0.99095 0.1945 0.03954 0.0
C861 C 0.97002 0.18075 0.02961 0.0
C862 C 0.96812 0.18876 0.01318 0.0
C863 C 0.98641 0.21045 0.00678 0.0
C864 C 0.00659 0.2238 0.01694 0.0
C865 C 0.00902 0.21609 0.03296 0.0
C866 C 0.03129 0.23494 0.04154 0.0
C867 C 0.01703 0.25218 0.05537 0.0
C868 C 0.05712 0.21643 0.04757 0.0
C869 C 0.04048 0.25493 0.02794 0.0
C870 C 0.02622 0.24799 0.01381 0.0
C871 C 0.03 0.26443 -0.00015 0.0
C872 C 0.04847 0.28892 0.00043 0.0
C873 C 0.06281 0.29675 0.01489 0.0
C874 C 0.05909 0.27911 0.0287 0.0
H875 H 0.07585 0.71877 0.26646 0.0
H876 H 0.02748 0.63817 0.25905 0.0
H877 H 0.98153 0.66635 0.25764 0.0
H878 H 0.02526 0.75207 0.292 0.0
H879 H 0.0303 0.78852 0.28422 0.0
H880 H 0.05965 0.76241 0.28306 0.0
H881 H 0.06269 0.77009 0.25224 0.0
H882 H 0.03331 0.79629 0.2533 0.0
H883 H 0.0304 0.76515 0.24011 0.0
H884 H 0.94066 0.70238 0.25979 0.0
H885 H 0.9076 0.74403 0.26483 0.0
H886 H 0.98245 0.80154 0.27003 0.0
C887 C 0.05566 0.70705 0.26429 0.0
C888 C 0.05527 0.67623 0.26285 0.0
C889 C 0.02835 0.66175 0.26015 0.0
C890 C 0.00213 0.67757 0.25929 0.0
C891 C 0.00326 0.70787 0.261 0.0
C892 C 0.02934 0.7225 0.26333 0.0
C893 C 0.02437 0.75499 0.26567 0.0
C894 C 0.03555 0.76507 0.28222 0.0
C895 C 0.03854 0.77267 0.25201 0.0
C896 C 0.99133 0.75624 0.26473 0.0
C897 C 0.97962 0.72882 0.26194 0.0
C898 C 0.94957 0.72402 0.26172 0.0
C899 C 0.93098 0.74778 0.26465 0.0
C900 C 0.9425 0.77599 0.26767 0.0
C901 C 0.97306 0.78032 0.26742 0.0
H902 H 0.44271 0.70766 0.52733 0.0
H903 H 0.50455 0.63587 0.53073 0.0
H904 H 0.54544 0.6708 0.52908 0.0
H905 H 0.48574 0.75309 0.49961 0.0
H906 H 0.47536 0.78673 0.50936 0.0
H907 H 0.45078 0.75593 0.5095 0.0
H908 H 0.44861 0.75803 0.54062 0.0
H909 H 0.47317 0.78878 0.54056 0.0
H910 H 0.48212 0.75651 0.552 0.0
H911 H 0.57959 0.71332 0.52868 0.0
H912 H 0.60479 0.76096 0.52998 0.0
H913 H 0.52101 0.80536 0.52702 0.0
C914 C 0.46485 0.69928 0.52748 0.0
C915 C 0.47043 0.66903 0.52911 0.0
C916 C 0.49972 0.65895 0.52951 0.0
C917 C 0.52312 0.6786 0.52852 0.0
C918 C 0.51691 0.70828 0.52713 0.0
C919 C 0.48853 0.71864 0.5266 0.0
C920 C 0.48794 0.75175 0.52594 0.0
C921 C 0.47414 0.7625 0.51016 0.0
C922 C 0.47202 0.76451 0.54066 0.0
C923 C 0.5204 0.75833 0.52646 0.0
C924 C 0.53671 0.73293 0.527 0.0
C925 C 0.56709 0.73339 0.52813 0.0
C926 C 0.5812 0.76056 0.52888 0.0
C927 C 0.56491 0.7869 0.52857 0.0
C928 C 0.53412 0.78564 0.52716 0.0
H929 H 0.51627 0.18059 0.80596 0.0
H930 H 0.55561 0.21179 0.76164 0.0
H931 H 0.51526 0.24721 0.75842 0.0
H932 H 0.44012 0.18777 0.7931 0.0
H933 H 0.42803 0.19949 0.8127 0.0
H934 H 0.45897 0.17532 0.81087 0.0
H935 H 0.49064 0.21184 0.82714 0.0
H936 H 0.45989 0.23617 0.82894 0.0
H937 H 0.49369 0.24919 0.82039 0.0
H938 H 0.47233 0.28139 0.761 0.0
H939 H 0.42925 0.31075 0.76881 0.0
H940 H 0.41817 0.25672 0.81131 0.0
C941 C 0.51626 0.19458 0.79545 0.0
C942 C 0.53909 0.19339 0.78404 0.0
C943 C 0.53831 0.21225 0.77053 0.0
C944 C 0.51549 0.23245 0.76859 0.0
C945 C 0.49359 0.23337 0.78021 0.0
C946 C 0.49368 0.2148 0.79332 0.0
C947 C 0.46814 0.22085 0.80439 0.0
C948 C 0.4476 0.19428 0.80531 0.0
C949 C 0.47874 0.23007 0.82121 0.0
C950 C 0.45392 0.24608 0.79561 0.0
C951 C 0.46884 0.25292 0.78166 0.0
C952 C 0.46032 0.27608 0.77183 0.0
C953 C 0.43588 0.29267 0.77638 0.0
C954 C 0.42031 0.28599 0.79065 0.0
C955 C 0.42948 0.26228 0.80029 0.0
H956 H 0.91011 0.77678 0.43857 0.0
H957 H 0.93399 0.8112 0.48542 0.0
H958 H 0.96764 0.76965 0.48941 0.0
H959 H 0.91483 0.69826 0.44942 0.0
H960 H 0.92989 0.68854 0.43012 0.0
H961 H 0.90518 0.71909 0.4318 0.0
H962 H 0.94389 0.75269 0.41851 0.0
H963 H 0.9688 0.72238 0.41694 0.0
H964 H 0.97988 0.75524 0.42724 0.0
H965 H 0.00245 0.72749 0.48709 0.0
H966 H 0.03436 0.68644 0.4791 0.0
H967 H 0.98755 0.67933 0.43386 0.0
C968 C 0.92187 0.77524 0.44984 0.0
C969 C 0.91932 0.79722 0.4617 0.0
C970 C 0.93549 0.79459 0.47617 0.0
C971 C 0.95466 0.77106 0.47856 0.0
C972 C 0.95729 0.75024 0.46642 0.0
C973 C 0.94112 0.75193 0.45241 0.0
C974 C 0.94932 0.72771 0.44084 0.0
C975 C 0.92325 0.70718 0.43788 0.0
C976 C 0.96118 0.74027 0.42495 0.0
C977 C 0.97315 0.7126 0.45035 0.0
C978 C 0.97729 0.72582 0.46511 0.0
C979 C 0.99914 0.7167 0.47565 0.0
C980 C 0.01724 0.69345 0.47097 0.0
C981 C 0.01339 0.6796 0.45589 0.0
C982 C 0.99086 0.68924 0.44554 0.0
H983 H 0.56382 0.77097 0.71783 0.0
H984 H 0.52167 0.85338 0.70601 0.0
H985 H 0.47393 0.82874 0.70546 0.0
H986 H 0.51911 0.72604 0.69258 0.0
H987 H 0.51761 0.69575 0.70643 0.0
H988 H 0.54873 0.71987 0.70647 0.0
H989 H 0.54083 0.73006 0.7368 0.0
H990 H 0.50965 0.70597 0.73685 0.0
H991 H 0.50582 0.7432 0.74366 0.0
H992 H 0.43126 0.79579 0.7053 0.0
H993 H 0.39532 0.75585 0.70548 0.0
H994 H 0.46398 0.69401 0.71765 0.0
C995 C 0.54452 0.78382 0.71521 0.0
C996 C 0.54652 0.81414 0.71198 0.0
C997 C 0.52076 0.83017 0.70853 0.0
C998 C 0.49348 0.81638 0.70821 0.0
C999 C 0.49225 0.78655 0.7114 0.0
C1000 C 0.51697 0.77038 0.71485 0.0
C1001 C 0.50936 0.73842 0.71749 0.0
C1002 C 0.52461 0.71887 0.705 0.0
C1003 C 0.51686 0.72886 0.73473 0.0
C1004 C 0.47654 0.73924 0.71484 0.0
C1005 C 0.46727 0.7673 0.71138 0.0
C1006 C 0.43818 0.77373 0.70806 0.0
C1007 C 0.41794 0.75083 0.70817 0.0
C1008 C 0.42681 0.7218 0.71159 0.0
C1009 C 0.45652 0.71601 0.71511 0.0
H1010 H 0.49235 0.19075 0.95464 0.0
H1011 H 0.57309 0.2197 0.97706 0.0
H1012 H 0.55139 0.26835 0.98162 0.0
H1013 H 0.47697 0.25777 0.93411 0.0
H1014 H 0.43799 0.25555 0.93705 0.0
H1015 H 0.45947 0.2226 0.93601 0.0
H1016 H 0.43926 0.20639 0.96372 0.0
H1017 H 0.41775 0.23933 0.96486 0.0
H1018 H 0.44299 0.23044 0.98077 0.0
H1019 H 0.52147 0.31387 0.98347 0.0
H1020 H 0.48568 0.35399 0.98178 0.0
H1021 H 0.42434 0.2959 0.9579 0.0
C1022 C 0.50543 0.20727 0.96057 0.0
C1023 C 0.53441 0.20138 0.96552 0.0
C1024 C 0.55085 0.22368 0.97315 0.0
C1025 C 0.5387 0.25138 0.97583 0.0
C1026 C 0.51012 0.25646 0.9708 0.0
C1027 C 0.49369 0.23511 0.96329 0.0
C1028 C 0.46373 0.24656 0.95871 0.0
C1029 C 0.4593 0.24556 0.94038 0.0
C1030 C 0.4395 0.22967 0.96755 0.0
C1031 C 0.46598 0.27774 0.96473 0.0
C1032 C 0.49288 0.2829 0.97174 0.0
C1033 C 0.5003 0.3101 0.97804 0.0
C1034 C 0.47977 0.33275 0.97703 0.0
C1035 C 0.45215 0.32813 0.96972 0.0
C1036 C 0.4452 0.30014 0.9636 0.0
H1037 H 0.05814 0.28067 0.21932 0.0
H1038 H 0.02331 0.36895 0.22137 0.0
H1039 H 0.97313 0.34907 0.221 0.0
H1040 H 0.00531 0.25203 0.19231 0.0
H1041 H 0.00333 0.21672 0.20188 0.0
H1042 H 0.03652 0.23779 0.20299 0.0
H1043 H 0.03517 0.23496 0.2341 0.0
H1044 H 0.00205 0.21373 0.23309 0.0
H1045 H 0.00296 0.24702 0.24469 0.0
H1046 H 0.92676 0.31962 0.21932 0.0
H1047 H 0.88756 0.28268 0.21728 0.0
H1048 H 0.95286 0.21374 0.21649 0.0
C1049 C 0.04 0.29586 0.21983 0.0
C1050 C 0.04468 0.32639 0.22038 0.0
C1051 C 0.02029 0.34548 0.22097 0.0
C1052 C 0.9917 0.3344 0.22075 0.0
C1053 C 0.98787 0.3042 0.22 0.0
C1054 C 0.01135 0.28519 0.21963 0.0
C1055 C 0.0013 0.2537 0.21858 0.0
C1056 C 0.01227 0.23922 0.20301 0.0
C1057 C 0.01094 0.23634 0.23351 0.0
C1058 C 0.9685 0.25798 0.21828 0.0
C1059 C 0.96119 0.28726 0.21911 0.0
C1060 C 0.93221 0.29662 0.21874 0.0
C1061 C 0.91011 0.27546 0.21754 0.0
C1062 C 0.91712 0.24531 0.21675 0.0
C1063 C 0.94675 0.23659 0.21713 0.0
H1064 H 0.97123 0.70379 0.96515 0.0
H1065 H 0.0359 0.64128 0.94841 0.0
H1066 H 0.07281 0.68061 0.94726 0.0
H1067 H 0.99345 0.76224 0.94013 0.0
H1068 H 0.98687 0.7903 0.9549 0.0
H1069 H 0.96603 0.75692 0.95542 0.0
H1070 H 0.98213 0.7481 0.9849 0.0
H1071 H 0.00297 0.78153 0.9845 0.0
H1072 H 0.02053 0.74757 0.98978 0.0
H1073 H 0.10201 0.72707 0.94675 0.0
H1074 H 0.1215 0.7774 0.94696 0.0
H1075 H 0.0376 0.80951 0.96389 0.0
C1076 C 0.99324 0.69827 0.96142 0.0
C1077 C 0.00071 0.66944 0.9569 0.0
C1078 C 0.02967 0.6632 0.95194 0.0
C1079 C 0.05081 0.68538 0.95126 0.0
C1080 C 0.04261 0.71363 0.95561 0.0
C1081 C 0.01455 0.72013 0.96062 0.0
C1082 C 0.0111 0.75246 0.96406 0.0
C1083 C 0.988 0.76628 0.95296 0.0
C1084 C 0.00375 0.75771 0.98187 0.0
C1085 C 0.04152 0.76318 0.96002 0.0
C1086 C 0.05941 0.74043 0.95525 0.0
C1087 C 0.08827 0.74505 0.95056 0.0
C1088 C 0.09912 0.77372 0.9507 0.0
C1089 C 0.0811 0.79739 0.95547 0.0
C1090 C 0.05198 0.7919 0.96025 0.0
H1091 H 0.97945 0.3094 0.69796 0.0
H1092 H 0.91778 0.26569 0.72957 0.0
H1093 H 0.95569 0.22963 0.73681 0.0
H1094 H 0.01295 0.24559 0.68286 0.0
H1095 H 0.04924 0.2609 0.68211 0.0
H1096 H 0.01788 0.28441 0.6802 0.0
H1097 H 0.03623 0.31575 0.70412 0.0
H1098 H 0.06775 0.29239 0.70607 0.0
H1099 H 0.04409 0.29833 0.72308 0.0
H1100 H 0.99942 0.19656 0.73935 0.0
H1101 H 0.04623 0.16976 0.73751 0.0
H1102 H 0.07926 0.23547 0.70447 0.0
C1103 C 0.97398 0.29248 0.70656 0.0
C1104 C 0.94563 0.29041 0.7132 0.0
C1105 C 0.93936 0.26777 0.72433 0.0
C1106 C 0.96075 0.24717 0.72853 0.0
C1107 C 0.98834 0.24959 0.72157 0.0
C1108 C 0.99506 0.27177 0.7109 0.0
C1109 C 0.02608 0.26894 0.70475 0.0
C1110 C 0.02654 0.2647 0.68639 0.0
C1111 C 0.04463 0.29543 0.70981 0.0
C1112 C 0.0356 0.24147 0.71344 0.0
C1113 C 0.01356 0.23067 0.72312 0.0
C1114 C 0.01694 0.20494 0.73191 0.0
C1115 C 0.04356 0.18984 0.73076 0.0
C1116 C 0.06643 0.20056 0.7209 0.0
C1117 C 0.06231 0.2268 0.71222 0.0
H1118 H 0.52429 0.28009 0.47624 0.0
H1119 H 0.46499 0.3496 0.49041 0.0
H1120 H 0.42653 0.31321 0.49585 0.0
H1121 H 0.47163 0.23837 0.45534 0.0
H1122 H 0.486 0.20331 0.46133 0.0
H1123 H 0.50993 0.23445 0.46001 0.0
H1124 H 0.5258 0.22654 0.4896 0.0
H1125 H 0.50186 0.19534 0.49101 0.0
H1126 H 0.49839 0.22499 0.50516 0.0
H1127 H 0.3938 0.26999 0.49858 0.0
H1128 H 0.368 0.22273 0.49707 0.0
H1129 H 0.44781 0.1811 0.4804 0.0
C1130 C 0.50336 0.28756 0.48072 0.0
C1131 C 0.49767 0.31764 0.48299 0.0
C1132 C 0.46984 0.32665 0.48859 0.0
C1133 C 0.44788 0.30615 0.49179 0.0
C1134 C 0.45403 0.2767 0.48928 0.0
C1135 C 0.48101 0.26736 0.48382 0.0
C1136 C 0.48119 0.23459 0.48111 0.0
C1137 C 0.48755 0.22726 0.4634 0.0
C1138 C 0.50312 0.21948 0.4924 0.0
C1139 C 0.44996 0.22713 0.48562 0.0
C1140 C 0.43483 0.2517 0.49052 0.0
C1141 C 0.40544 0.25053 0.49486 0.0
C1142 C 0.39099 0.22356 0.49398 0.0
C1143 C 0.40585 0.19819 0.48862 0.0
C1144 C 0.43585 0.20005 0.4846 0.0
H1145 H 0.44733 0.76908 0.19412 0.0
H1146 H 0.45471 0.81391 0.23997 0.0
H1147 H 0.49546 0.78129 0.24755 0.0
H1148 H 0.46385 0.69608 0.20898 0.0
H1149 H 0.48446 0.68611 0.19134 0.0
H1150 H 0.45499 0.71211 0.18978 0.0
H1151 H 0.4903 0.74995 0.17708 0.0
H1152 H 0.51982 0.72406 0.17853 0.0
H1153 H 0.52338 0.75969 0.18758 0.0
H1154 H 0.53672 0.74539 0.24965 0.0
H1155 H 0.57633 0.70941 0.2459 0.0
H1156 H 0.54171 0.68762 0.19879 0.0
C1157 C 0.45736 0.77196 0.20581 0.0
C1158 C 0.44779 0.79405 0.21646 0.0
C1159 C 0.46164 0.79714 0.2316 0.0
C1160 C 0.48475 0.77867 0.23604 0.0
C1161 C 0.49366 0.75716 0.22524 0.0
C1162 C 0.48042 0.75371 0.21044 0.0
C1163 C 0.49483 0.72956 0.20081 0.0
C1164 C 0.47324 0.70448 0.19754 0.0
C1165 C 0.50786 0.74154 0.18508 0.0
C1166 C 0.51854 0.72023 0.21243 0.0
C1167 C 0.51737 0.73632 0.22649 0.0
C1168 C 0.53772 0.73249 0.23875 0.0
C1169 C 0.56015 0.71201 0.2365 0.0
C1170 C 0.56205 0.69559 0.22208 0.0
C1171 C 0.54065 0.69953 0.21003 0.0
H1172 H 0.96038 0.29254 0.52609 0.0
H1173 H 0.88017 0.25949 0.54735 0.0
H1174 H 0.90392 0.21181 0.55196 0.0
H1175 H 0.98148 0.22511 0.50605 0.0
H1176 H 0.01991 0.23019 0.50997 0.0
H1177 H 0.99631 0.2615 0.50781 0.0
H1178 H 0.01288 0.28045 0.53572 0.0
H1179 H 0.03647 0.24919 0.53798 0.0
H1180 H 0.00927 0.25704 0.55305 0.0
H1181 H 0.93665 0.16845 0.55518 0.0
H1182 H 0.97616 0.13188 0.55653 0.0
H1183 H 0.03515 0.1928 0.533 0.0
C1184 C 0.94772 0.27522 0.5316 0.0
C1185 C 0.91838 0.27975 0.53634 0.0
C1186 C 0.90265 0.25655 0.54359 0.0
C1187 C 0.91594 0.22936 0.54626 0.0
C1188 C 0.94493 0.2257 0.54156 0.0
C1189 C 0.96063 0.24792 0.53435 0.0
C1190 C 0.9917 0.23841 0.53075 0.0
C1191 C 0.99769 0.23882 0.51256 0.0
C1192 C 0.01388 0.2574 0.53993 0.0
C1193 C 0.99105 0.20744 0.53721 0.0
C1194 C 0.96383 0.20057 0.54336 0.0
C1195 C 0.95802 0.17351 0.55032 0.0
C1196 C 0.98064 0.1529 0.55106 0.0
C1197 C 0.00874 0.15944 0.54485 0.0
C1198 C 0.01387 0.18707 0.53777 0.0
H1199 H 0.45859 0.18998 0.29009 0.0
H1200 H 0.39713 0.26191 0.28567 0.0
H1201 H 0.43828 0.29648 0.28303 0.0
H1202 H 0.51036 0.22793 0.31414 0.0
H1203 H 0.54184 0.21115 0.30493 0.0
H1204 H 0.50755 0.19187 0.30552 0.0
H1205 H 0.50907 0.18585 0.27455 0.0
H1206 H 0.54337 0.20519 0.27386 0.0
H1207 H 0.51288 0.21777 0.262 0.0
H1208 H 0.48599 0.32339 0.28163 0.0
H1209 H 0.53692 0.34103 0.28269 0.0
H1210 H 0.56732 0.25164 0.28843 0.0
C1211 C 0.45377 0.21297 0.28843 0.0
C1212 C 0.42463 0.22323 0.28804 0.0
C1213 C 0.41927 0.25353 0.28602 0.0
C1214 C 0.44249 0.27333 0.28445 0.0
C1215 C 0.47094 0.26251 0.28495 0.0
C1216 C 0.47668 0.23306 0.28694 0.0
C1217 C 0.50926 0.22728 0.28777 0.0
C1218 C 0.51774 0.21377 0.30406 0.0
C1219 C 0.51922 0.20787 0.2737 0.0
C1220 C 0.52092 0.25812 0.2861 0.0
C1221 C 0.49847 0.27808 0.28434 0.0
C1222 C 0.50377 0.30796 0.28293 0.0
C1223 C 0.5328 0.31776 0.28354 0.0
C1224 C 0.55615 0.29773 0.28563 0.0
C1225 C 0.55001 0.26751 0.28675 0.0
H1226 H 0.50178 0.84746 0.05272 0.0
H1227 H 0.4449 0.81635 0.01459 0.0
H1228 H 0.47666 0.77317 0.01099 0.0
H1229 H 0.57061 0.82275 0.03519 0.0
H1230 H 0.58576 0.81234 0.05436 0.0
H1231 H 0.55962 0.84175 0.05319 0.0
H1232 H 0.52674 0.81534 0.07401 0.0
H1233 H 0.55271 0.78586 0.07522 0.0
H1234 H 0.51514 0.7783 0.07019 0.0
H1235 H 0.5133 0.73239 0.01237 0.0
H1236 H 0.55173 0.69644 0.0189 0.0
H1237 H 0.58433 0.754 0.05636 0.0
C1238 C 0.49617 0.83178 0.04347 0.0
C1239 C 0.47092 0.83533 0.03389 0.0
C1240 C 0.46416 0.81409 0.02206 0.0
C1241 C 0.4821 0.78953 0.01989 0.0
C1242 C 0.50667 0.78655 0.02966 0.0
C1243 C 0.51373 0.80708 0.04121 0.0
C1244 C 0.54058 0.79804 0.05063 0.0
C1245 C 0.56563 0.82003 0.04819 0.0
C1246 C 0.53334 0.79415 0.06857 0.0
C1247 C 0.54733 0.76904 0.0427 0.0
C1248 C 0.52764 0.76291 0.03056 0.0
C1249 C 0.52896 0.73702 0.02178 0.0
C1250 C 0.55087 0.71673 0.02559 0.0
C1251 C 0.57109 0.72241 0.03813 0.0
C1252 C 0.56933 0.74906 0.04666 0.0
H1253 H 0.94182 0.69596 0.77231 0.0
H1254 H 0.98324 0.61239 0.78219 0.0
H1255 H 0.03146 0.63655 0.78252 0.0
H1256 H 2e-05 0.72535 0.74647 0.0
H1257 H 0.99595 0.76194 0.75421 0.0
H1258 H 0.96487 0.73775 0.75354 0.0
H1259 H 0.95662 0.74545 0.78407 0.0
H1260 H 0.98767 0.76957 0.78485 0.0
H1261 H 0.98608 0.73812 0.79789 0.0
H1262 H 0.07447 0.67006 0.78393 0.0
H1263 H 0.1098 0.71064 0.78573 0.0
H1264 H 0.0408 0.77252 0.77445 0.0
C1265 C 0.96105 0.68264 0.77431 0.0
C1266 C 0.95874 0.65224 0.77719 0.0
C1267 C 0.98444 0.63568 0.77992 0.0
C1268 C 0.01195 0.6492 0.78011 0.0
C1269 C 0.0134 0.67924 0.77745 0.0
C1270 C 0.98869 0.69576 0.77451 0.0
C1271 C 0.99618 0.72789 0.77272 0.0
C1272 C 0.98882 0.73887 0.75572 0.0
C1273 C 0.98072 0.74633 0.78566 0.0
C1274 C 0.02891 0.72693 0.77544 0.0
C1275 C 0.03837 0.69862 0.77808 0.0
C1276 C 0.0674 0.69228 0.78169 0.0
C1277 C 0.08727 0.7155 0.78275 0.0
C1278 C 0.07808 0.74471 0.78016 0.0
C1279 C 0.04855 0.75039 0.77627 0.0
H1280 H 0.30429 0.37574 0.97551 0.0
H1281 H 0.34924 0.43607 0.00737 0.0
H1282 H 0.30422 0.44138 0.02346 0.0
H1283 H 0.23511 0.41211 0.9756 0.0
H1284 H 0.21397 0.37884 0.97555 0.0
H1285 H 0.24983 0.3794 0.96661 0.0
H1286 H 0.26582 0.3364 0.98491 0.0
H1287 H 0.22997 0.33563 0.99386 0.0
H1288 H 0.26186 0.33964 0.0064 0.0
H1289 H 0.25416 0.44132 0.03558 0.0
H1290 H 0.20288 0.43415 0.04378 0.0
H1291 H 0.19061 0.37305 0.00438 0.0
C1292 C 0.30472 0.39001 0.9859 0.0
C1293 C 0.33029 0.40554 0.99016 0.0
C1294 C 0.32994 0.42392 0.00388 0.0
C1295 C 0.30446 0.42713 0.01307 0.0
C1296 C 0.27959 0.41169 0.00846 0.0
C1297 C 0.27954 0.39334 0.99527 0.0
C1298 C 0.2499 0.37915 0.99296 0.0
C1299 C 0.23641 0.38791 0.97672 0.0
C1300 C 0.25203 0.34572 0.99464 0.0
C1301 C 0.23325 0.39254 0.00687 0.0
C1302 C 0.25078 0.41131 0.01561 0.0
C1303 C 0.24024 0.42658 0.02888 0.0
C1304 C 0.21104 0.4224 0.03341 0.0
C1305 C 0.19272 0.40301 0.02474 0.0
C1306 C 0.20407 0.38795 0.01128 0.0
H1307 H 0.86291 0.04601 0.21961 0.0
H1308 H 0.91227 0.10562 0.24986 0.0
H1309 H 0.93139 0.06369 0.26531 0.0
H1310 H 0.84222 0.99656 0.25062 0.0
H1311 H 0.84564 0.96435 0.23827 0.0
H1312 H 0.8368 0.99897 0.22919 0.0
H1313 H 0.88136 0.99391 0.21014 0.0
H1314 H 0.8904 0.95928 0.21921 0.0
H1315 H 0.91723 0.98812 0.21854 0.0
H1316 H 0.94428 0.0154 0.27786 0.0
H1317 H 0.94875 0.96436 0.28717 0.0
H1318 H 0.89078 0.93628 0.24881 0.0
C1319 C 0.87783 0.05028 0.22943 0.0
C1320 C 0.88611 0.07914 0.2335 0.0
C1321 C 0.90562 0.08373 0.24649 0.0
C1322 C 0.91666 0.06004 0.25533 0.0
C1323 C 0.90805 0.0319 0.251 0.0
C1324 C 0.88905 0.02691 0.23838 0.0
C1325 C 0.88265 0.99459 0.23647 0.0
C1326 C 0.84989 0.98826 0.23879 0.0
C1327 C 0.89357 0.98332 0.22012 0.0
C1328 C 0.90068 0.98223 0.25015 0.0
C1329 C 0.91535 0.00409 0.25829 0.0
C1330 C 0.93298 0.99808 0.27154 0.0
C1331 C 0.93541 0.96899 0.27672 0.0
C1332 C 0.92015 0.94627 0.26873 0.0
C1333 C 0.90282 0.95309 0.25516 0.0
H1334 H 0.17475 0.56814 0.486 0.0
H1335 H 0.16866 0.65506 0.46521 0.0
H1336 H 0.21881 0.6658 0.47442 0.0
H1337 H 0.21476 0.58934 0.52124 0.0
H1338 H 0.23676 0.55664 0.52162 0.0
H1339 H 0.20058 0.55566 0.51311 0.0
H1340 H 0.22183 0.53542 0.48645 0.0
H1341 H 0.25811 0.53647 0.49485 0.0
H1342 H 0.25041 0.55536 0.47631 0.0
H1343 H 0.26981 0.66704 0.4858 0.0
H1344 H 0.31699 0.65941 0.49966 0.0
H1345 H 0.28935 0.57199 0.51328 0.0
C1346 C 0.18394 0.58943 0.48336 0.0
C1347 C 0.16775 0.61073 0.47486 0.0
C1348 C 0.18059 0.63838 0.47173 0.0
C1349 C 0.20911 0.64468 0.47686 0.0
C1350 C 0.22449 0.62315 0.48515 0.0
C1351 C 0.21232 0.59614 0.48846 0.0
C1352 C 0.23329 0.57706 0.49786 0.0
C1353 C 0.22059 0.56923 0.51444 0.0
C1354 C 0.24139 0.54945 0.48829 0.0
C1355 C 0.25912 0.59759 0.49936 0.0
C1356 C 0.2537 0.624 0.49187 0.0
C1357 C 0.27431 0.64645 0.49172 0.0
C1358 C 0.30106 0.64188 0.49959 0.0
C1359 C 0.30688 0.61513 0.50757 0.0
C1360 C 0.28562 0.5927 0.5073 0.0
H1361 H 0.63433 0.06915 0.75361 0.0
H1362 H 0.57256 0.04411 0.79081 0.0
H1363 H 0.57409 0.99309 0.78112 0.0
H1364 H 0.6059 0.02173 0.72262 0.0
H1365 H 0.6415 0.01342 0.71452 0.0
H1366 H 0.63512 0.04802 0.72425 0.0
H1367 H 0.67819 0.03789 0.74372 0.0
H1368 H 0.68464 0.00322 0.73409 0.0
H1369 H 0.67832 0.00475 0.75547 0.0
H1370 H 0.58303 0.9447 0.76769 0.0
H1371 H 0.59801 0.90249 0.75115 0.0
H1372 H 0.65394 0.95931 0.72275 0.0
C1373 C 0.62101 0.05299 0.75969 0.0
C1374 C 0.6033 0.06063 0.77297 0.0
C1375 C 0.58625 0.03879 0.7806 0.0
C1376 C 0.58699 0.00975 0.7752 0.0
C1377 C 0.60484 0.00295 0.76215 0.0
C1378 C 0.62147 0.02395 0.75447 0.0
C1379 C 0.63895 0.01089 0.74078 0.0
C1380 C 0.62981 0.02431 0.72458 0.0
C1381 C 0.67198 0.0144 0.7437 0.0
C1382 C 0.62967 0.97921 0.74201 0.0
C1383 C 0.60998 0.97509 0.75441 0.0
C1384 C 0.59839 0.94766 0.75793 0.0
C1385 C 0.60708 0.92382 0.74847 0.0
C1386 C 0.62716 0.92757 0.73565 0.0
C1387 C 0.63857 0.95569 0.73246 0.0
H1388 H 0.71621 0.58536 0.02135 0.0
H1389 H 0.70416 0.67955 0.0218 0.0
H1390 H 0.75294 0.68585 0.00948 0.0
H1391 H 0.79339 0.58552 0.03069 0.0
H1392 H 0.80136 0.55512 0.01761 0.0
H1393 H 0.76587 0.55818 0.02685 0.0
H1394 H 0.74135 0.55571 0.99879 0.0
H1395 H 0.77673 0.55264 0.98946 0.0
H1396 H 0.75211 0.5814 0.98344 0.0
H1397 H 0.80261 0.68166 0.99648 0.0
H1398 H 0.84918 0.66736 0.98367 0.0
H1399 H 0.82834 0.5759 0.99186 0.0
C1400 C 0.72383 0.60735 0.01894 0.0
C1401 C 0.70636 0.63198 0.02255 0.0
C1402 C 0.71716 0.66035 0.01914 0.0
C1403 C 0.74484 0.66416 0.01217 0.0
C1404 C 0.76143 0.63937 0.00871 0.0
C1405 C 0.75132 0.61153 0.01199 0.0
C1406 C 0.77313 0.58848 0.00683 0.0
C1407 C 0.78408 0.57079 0.02136 0.0
C1408 C 0.76004 0.56838 0.99386 0.0
C1409 C 0.79704 0.60768 2e-05 0.0
C1410 C 0.78994 0.63697 0.00125 0.0
C1411 C 0.80845 0.6588 0.99551 0.0
C1412 C 0.83484 0.65044 0.98825 0.0
C1413 C 0.84245 0.62051 0.98677 0.0
C1414 C 0.82326 0.59896 0.99285 0.0
H1415 H 0.09283 0.93944 0.77354 0.0
H1416 H 0.14225 0.88452 0.74074 0.0
H1417 H 0.15562 0.92807 0.72486 0.0
H1418 H 0.06578 0.99114 0.74325 0.0
H1419 H 0.06919 0.0221 0.75653 0.0
H1420 H 0.0618 0.98633 0.76466 0.0
H1421 H 0.10731 0.99081 0.78304 0.0
H1422 H 0.11499 0.02646 0.77488 0.0
H1423 H 0.1425 0.99827 0.77418 0.0
H1424 H 0.16636 0.97771 0.7136 0.0
H1425 H 0.17204 0.02997 0.707 0.0
H1426 H 0.11549 0.05276 0.74703 0.0
C1427 C 0.10606 0.93647 0.76287 0.0
C1428 C 0.11642 0.90851 0.75837 0.0
C1429 C 0.13398 0.90568 0.74441 0.0
C1430 C 0.14172 0.9303 0.73531 0.0
C1431 C 0.13165 0.95759 0.74028 0.0
C1432 C 0.11402 0.96082 0.75365 0.0
C1433 C 0.107 0.99274 0.7567 0.0
C1434 C 0.07398 0.9984 0.75519 0.0
C1435 C 0.11866 0.00264 0.77318 0.0
C1436 C 0.12377 0.00696 0.74308 0.0
C1437 C 0.13778 0.98627 0.73374 0.0
C1438 C 0.1553 0.99411 0.72074 0.0
C1439 C 0.15847 0.02388 0.71713 0.0
C1440 C 0.14418 0.0455 0.72647 0.0
C1441 C 0.12659 0.03679 0.73961 0.0
H1442 H 0.79085 0.41776 0.51956 0.0
H1443 H 0.81936 0.33209 0.50339 0.0
H1444 H 0.7691 0.32107 0.4944 0.0
H1445 H 0.72086 0.39567 0.53447 0.0
H1446 H 0.70241 0.42834 0.52782 0.0
H1447 H 0.74068 0.42963 0.53286 0.0
H1448 H 0.75253 0.45065 0.50466 0.0
H1449 H 0.71428 0.44962 0.49958 0.0
H1450 H 0.74056 0.43121 0.48699 0.0
H1451 H 0.71538 0.31906 0.48766 0.0
H1452 H 0.66287 0.32724 0.48235 0.0
H1453 H 0.66985 0.4144 0.5027 0.0
C1454 C 0.7866 0.39671 0.51408 0.0
C1455 C 0.80908 0.37579 0.51219 0.0
C1456 C 0.80253 0.34852 0.50493 0.0
C1457 C 0.77403 0.342 0.49983 0.0
C1458 C 0.75233 0.36302 0.50202 0.0
C1459 C 0.75832 0.38989 0.50887 0.0
C1460 C 0.73116 0.40876 0.50973 0.0
C1461 C 0.72332 0.41602 0.52726 0.0
C1462 C 0.73486 0.43671 0.49963 0.0
C1463 C 0.70894 0.38829 0.50231 0.0
C1464 C 0.72153 0.36196 0.49801 0.0
C1465 C 0.70529 0.33961 0.49095 0.0
C1466 C 0.67545 0.34443 0.48802 0.0
C1467 C 0.66221 0.37146 0.4921 0.0
C1468 C 0.67927 0.3935 0.49944 0.0
H1469 H 0.36964 0.05954 0.26837 0.0
H1470 H 0.43011 0.10761 0.238 0.0
H1471 H 0.43973 0.06262 0.22241 0.0
H1472 H 0.41068 0.99331 0.2701 0.0
H1473 H 0.37895 0.96995 0.26958 0.0
H1474 H 0.37631 0.00608 0.27806 0.0
H1475 H 0.33397 0.01848 0.2585 0.0
H1476 H 0.33637 0.98233 0.25 0.0
H1477 H 0.33933 0.01396 0.23717 0.0
H1478 H 0.4432 0.012 0.2104 0.0
H1479 H 0.43952 0.96002 0.20257 0.0
H1480 H 0.37698 0.94547 0.24104 0.0
C1481 C 0.3848 0.06072 0.25839 0.0
C1482 C 0.39911 0.08714 0.2544 0.0
C1483 C 0.41886 0.08765 0.24128 0.0
C1484 C 0.42449 0.0622 0.23236 0.0
C1485 C 0.41019 0.03648 0.23672 0.0
C1486 C 0.39069 0.0356 0.2494 0.0
C1487 C 0.37834 0.00519 0.25174 0.0
C1488 C 0.38657 0.99292 0.26835 0.0
C1489 C 0.34503 0.00499 0.24919 0.0
C1490 C 0.394 0.98903 0.23841 0.0
C1491 C 0.41227 0.00743 0.22988 0.0
C1492 C 0.42895 0.9974 0.21699 0.0
C1493 C 0.42674 0.96783 0.21266 0.0
C1494 C 0.40799 0.94864 0.2212 0.0
C1495 C 0.39156 0.95951 0.23428 0.0
H1496 H 0.78999 0.84387 0.49096 0.0
H1497 H 0.80698 0.93008 0.4711 0.0
H1498 H 0.75762 0.94594 0.47918 0.0
H1499 H 0.714 0.83985 0.47914 0.0
H1500 H 0.70273 0.82133 0.49724 0.0
H1501 H 0.73933 0.8165 0.48969 0.0
H1502 H 0.76039 0.83328 0.5171 0.0
H1503 H 0.72387 0.83815 0.52474 0.0
H1504 H 0.74945 0.86811 0.52529 0.0
H1505 H 0.70684 0.95286 0.48983 0.0
H1506 H 0.65795 0.95023 0.50231 0.0
H1507 H 0.67382 0.85952 0.51511 0.0
C1508 C 0.78332 0.86606 0.48826 0.0
C1509 C 0.8024 0.88571 0.48038 0.0
C1510 C 0.79279 0.91459 0.47711 0.0
C1511 C 0.76477 0.92383 0.48165 0.0
C1512 C 0.74656 0.90395 0.48942 0.0
C1513 C 0.75539 0.87567 0.4927 0.0
C1514 C 0.73163 0.85877 0.50135 0.0
C1515 C 0.72132 0.83256 0.49125 0.0
C1516 C 0.74196 0.84902 0.51812 0.0
C1517 C 0.70815 0.88204 0.50249 0.0
C1518 C 0.7172 0.90792 0.49552 0.0
C1519 C 0.69946 0.93268 0.49528 0.0
C1520 C 0.67173 0.93097 0.50241 0.0
C1521 C 0.66201 0.90468 0.50967 0.0
C1522 C 0.68053 0.87991 0.50961 0.0
H1523 H 0.39277 0.56353 0.74287 0.0
H1524 H 0.31268 0.55121 0.71563 0.0
H1525 H 0.30668 0.50236 0.7276 0.0
H1526 H 0.41832 0.48858 0.74 0.0
H1527 H 0.43275 0.48793 0.76016 0.0
H1528 H 0.43129 0.52186 0.74917 0.0
H1529 H 0.40146 0.54542 0.77227 0.0
H1530 H 0.40277 0.51157 0.78332 0.0
H1531 H 0.36802 0.5283 0.77885 0.0
H1532 H 0.30855 0.45542 0.74273 0.0
H1533 H 0.31837 0.41297 0.76018 0.0
H1534 H 0.39713 0.4553 0.7778 0.0
C1535 C 0.37407 0.55049 0.73937 0.0
C1536 C 0.35321 0.56123 0.72829 0.0
C1537 C 0.32896 0.54352 0.72409 0.0
C1538 C 0.32534 0.51569 0.73081 0.0
C1539 C 0.34614 0.50582 0.74173 0.0
C1540 C 0.37005 0.52259 0.746 0.0
C1541 C 0.3889 0.50685 0.75825 0.0
C1542 C 0.41963 0.50095 0.75149 0.0
C1543 C 0.39036 0.52406 0.77411 0.0
C1544 C 0.37173 0.47871 0.76021 0.0
C1545 C 0.34719 0.4786 0.75054 0.0
C1546 C 0.32774 0.45518 0.75034 0.0
C1547 C 0.33351 0.43117 0.76031 0.0
C1548 C 0.35852 0.43075 0.77036 0.0
C1549 C 0.37785 0.4549 0.77025 0.0
H1550 H 0.79327 0.08248 0.01161 0.0
H1551 H 0.82608 0.17096 0.01754 0.0
H1552 H 0.77954 0.1905 0.00712 0.0
H1553 H 0.75474 0.09503 0.97483 0.0
H1554 H 0.72454 0.07148 0.97994 0.0
H1555 H 0.76028 0.0644 0.98814 0.0
H1556 H 0.73887 0.06614 0.01697 0.0
H1557 H 0.70305 0.07327 0.00886 0.0
H1558 H 0.71873 0.09796 0.02338 0.0
H1559 H 0.73006 0.20048 0.99542 0.0
H1560 H 0.68068 0.20019 0.98346 0.0
H1561 H 0.67972 0.10529 0.98556 0.0
C1562 C 0.79068 0.10597 0.01074 0.0
C1563 C 0.81336 0.12518 0.01538 0.0
C1564 C 0.80903 0.15579 0.01407 0.0
C1565 C 0.78266 0.16712 0.00817 0.0
C1566 C 0.76079 0.14759 0.00369 0.0
C1567 C 0.76445 0.11768 0.00494 0.0
C1568 C 0.73752 0.10148 0.99919 0.0
C1569 C 0.74471 0.08195 0.98466 0.0
C1570 C 0.72373 0.08367 0.01292 0.0
C1571 C 0.71825 0.12697 0.99441 0.0
C1572 C 0.73209 0.15337 0.99711 0.0
C1573 C 0.71893 0.17996 0.99332 0.0
C1574 C 0.69089 0.17955 0.98651 0.0
C1575 C 0.67629 0.15274 0.98361 0.0
C1576 C 0.6902 0.12616 0.98773 0.0
H1577 H 0.11972 0.53544 0.26922 0.0
H1578 H 0.17382 0.58662 0.23683 0.0
H1579 H 0.18462 0.54211 0.22111 0.0
H1580 H 0.16433 0.47132 0.26967 0.0
H1581 H 0.13391 0.44627 0.27001 0.0
H1582 H 0.13012 0.4822 0.27862 0.0
H1583 H 0.08539 0.49225 0.26029 0.0
H1584 H 0.08897 0.4563 0.25167 0.0
H1585 H 0.08898 0.48806 0.23883 0.0
H1586 H 0.19063 0.49182 0.20938 0.0
H1587 H 0.18965 0.43969 0.20173 0.0
H1588 H 0.1308 0.42159 0.24148 0.0
C1589 C 0.13378 0.53734 0.2588 0.0
C1590 C 0.14598 0.56452 0.25427 0.0
C1591 C 0.16419 0.56605 0.24052 0.0
C1592 C 0.17051 0.54088 0.23153 0.0
C1593 C 0.1583 0.51441 0.2364 0.0
C1594 C 0.14017 0.5125 0.24964 0.0
C1595 C 0.12973 0.48143 0.25227 0.0
C1596 C 0.14015 0.46962 0.26861 0.0
C1597 C 0.09628 0.4794 0.25067 0.0
C1598 C 0.14497 0.46613 0.23848 0.0
C1599 C 0.16142 0.48552 0.22951 0.0
C1600 C 0.17775 0.47644 0.21628 0.0
C1601 C 0.1771 0.44677 0.21206 0.0
C1602 C 0.16013 0.42655 0.22099 0.0
C1603 C 0.14393 0.43649 0.23438 0.0
H1604 H 0.17697 0.11053 0.52305 0.0
H1605 H 0.12783 0.1547 0.48555 0.0
H1606 H 0.17301 0.15955 0.46947 0.0
H1607 H 0.24212 0.15396 0.51968 0.0
H1608 H 0.26638 0.12364 0.5234 0.0
H1609 H 0.23015 0.12364 0.53188 0.0
H1610 H 0.2196 0.07364 0.5184 0.0
H1611 H 0.25579 0.07349 0.50987 0.0
H1612 H 0.22431 0.06979 0.49698 0.0
H1613 H 0.22369 0.15951 0.45751 0.0
H1614 H 0.27598 0.15473 0.45059 0.0
H1615 H 0.29166 0.11054 0.496 0.0
C1616 C 0.17564 0.12123 0.51146 0.0
C1617 C 0.14882 0.13223 0.50555 0.0
C1618 C 0.14811 0.14611 0.49033 0.0
C1619 C 0.17365 0.14896 0.48111 0.0
C1620 C 0.1997 0.13784 0.48729 0.0
C1621 C 0.20087 0.12427 0.50212 0.0
C1622 C 0.23159 0.11425 0.50605 0.0
C1623 C 0.24324 0.12981 0.52115 0.0
C1624 C 0.23289 0.08081 0.50793 0.0
C1625 C 0.24756 0.12423 0.49109 0.0
C1626 C 0.2288 0.13781 0.48042 0.0
C1627 C 0.23858 0.14892 0.46578 0.0
C1628 C 0.26833 0.1461 0.46196 0.0
C1629 C 0.28794 0.13226 0.47274 0.0
C1630 C 0.27726 0.1212 0.48748 0.0
H1631 H 0.62604 0.43274 0.26128 0.0
H1632 H 0.69784 0.44825 0.29438 0.0
H1633 H 0.70148 0.4991 0.28474 0.0
H1634 H 0.65456 0.47739 0.22853 0.0
H1635 H 0.61895 0.49059 0.22274 0.0
H1636 H 0.62265 0.45503 0.23184 0.0
H1637 H 0.58542 0.46984 0.25387 0.0
H1638 H 0.58176 0.50551 0.24491 0.0
H1639 H 0.59205 0.50215 0.26574 0.0
H1640 H 0.69595 0.54877 0.27253 0.0
H1641 H 0.68327 0.59347 0.25749 0.0
H1642 H 0.6155 0.54575 0.232 0.0
C1643 C 0.64272 0.44673 0.2664 0.0
C1644 C 0.66166 0.43646 0.2786 0.0
C1645 C 0.6831 0.45555 0.28501 0.0
C1646 C 0.68533 0.48451 0.27963 0.0
C1647 C 0.66606 0.49405 0.26779 0.0
C1648 C 0.64532 0.47571 0.26114 0.0
C1649 C 0.62707 0.4916 0.24868 0.0
C1650 C 0.63106 0.47783 0.23196 0.0
C1651 C 0.59466 0.49231 0.2536 0.0
C1652 C 0.64065 0.52179 0.24948 0.0
C1653 C 0.66306 0.52271 0.2606 0.0
C1654 C 0.67855 0.5483 0.26372 0.0
C1655 C 0.67111 0.5736 0.25514 0.0
C1656 C 0.64842 0.57314 0.24353 0.0
C1657 C 0.63301 0.54682 0.24074 0.0
H1658 H 0.18097 0.94662 0.99206 0.0
H1659 H 0.18174 0.8627 0.96759 0.0
H1660 H 0.23304 0.8554 0.9756 0.0
H1661 H 0.25551 0.9674 0.98232 0.0
H1662 H 0.26223 0.98399 0.00162 0.0
H1663 H 0.22573 0.98336 0.99348 0.0
H1664 H 0.20695 0.95757 0.01923 0.0
H1665 H 0.24334 0.95824 0.02748 0.0
H1666 H 0.22401 0.92404 0.02572 0.0
H1667 H 0.28382 0.85669 0.98637 0.0
H1668 H 0.33031 0.8653 0.00059 0.0
H1669 H 0.29667 0.94789 0.01859 0.0
C1670 C 0.19197 0.92678 0.98833 0.0
C1671 C 0.17733 0.90528 0.97916 0.0
C1672 C 0.19245 0.8795 0.97463 0.0
C1673 C 0.22165 0.87517 0.97907 0.0
C1674 C 0.23544 0.89677 0.98807 0.0
C1675 C 0.22113 0.92199 0.99275 0.0
C1676 C 0.24081 0.94123 0.00289 0.0
C1677 C 0.2464 0.97074 0.99457 0.0
C1678 C 0.22801 0.9455 0.01983 0.0
C1679 C 0.26827 0.9227 0.0033 0.0
C1680 C 0.26476 0.8973 0.99453 0.0
C1681 C 0.28689 0.87652 0.99326 0.0
C1682 C 0.31324 0.88165 0.00137 0.0
C1683 C 0.31715 0.90725 0.01072 0.0
C1684 C 0.29439 0.92813 0.01152 0.0
H1685 H 0.89689 0.44384 0.7187 0.0
H1686 H 0.82497 0.39424 0.73921 0.0
H1687 H 0.81033 0.4373 0.75511 0.0
H1688 H 0.91509 0.48376 0.75474 0.0
H1689 H 0.92367 0.51708 0.74417 0.0
H1690 H 0.92859 0.48229 0.7344 0.0
H1691 H 0.89519 0.49927 0.71102 0.0
H1692 H 0.89008 0.53407 0.72076 0.0
H1693 H 0.8588 0.51218 0.71538 0.0
H1694 H 0.80308 0.48568 0.76856 0.0
H1695 H 0.80454 0.53594 0.77928 0.0
H1696 H 0.88128 0.55413 0.75018 0.0
C1697 C 0.87811 0.44199 0.72656 0.0
C1698 C 0.86208 0.41564 0.72769 0.0
C1699 C 0.83763 0.41416 0.73813 0.0
C1700 C 0.82909 0.43852 0.74721 0.0
C1701 C 0.84524 0.46418 0.74574 0.0
C1702 C 0.86929 0.46608 0.73574 0.0
C1703 C 0.88291 0.49626 0.73643 0.0
C1704 C 0.91443 0.49475 0.74282 0.0
C1705 C 0.88166 0.51133 0.71991 0.0
C1706 C 0.86272 0.511 0.74838 0.0
C1707 C 0.84112 0.49211 0.75356 0.0
C1708 C 0.8199 0.50068 0.76461 0.0
C1709 C 0.82091 0.5293 0.77061 0.0
C1710 C 0.84301 0.549 0.76558 0.0
C1711 C 0.86408 0.53963 0.75425 0.0
H1712 H 0.09962 0.38183 0.08828 0.0
H1713 H 0.17363 0.32547 0.07774 0.0
H1714 H 0.18252 0.31915 0.10673 0.0
H1715 H 0.13128 0.41725 0.12349 0.0
H1716 H 0.09709 0.41824 0.13425 0.0
H1717 H 0.09727 0.41954 0.1126 0.0
H1718 H 0.06294 0.37448 0.11167 0.0
H1719 H 0.06271 0.37299 0.1333 0.0
H1720 H 0.07357 0.34133 0.12186 0.0
H1721 H 0.18248 0.31731 0.13669 0.0
H1722 H 0.17346 0.32025 0.16588 0.0
H1723 H 0.09942 0.37759 0.15714 0.0
C1724 C 0.11786 0.3684 0.09208 0.0
C1725 C 0.13595 0.35417 0.08074 0.0
C1726 C 0.15944 0.33657 0.08619 0.0
C1727 C 0.16473 0.33287 0.10264 0.0
C1728 C 0.14635 0.34692 0.1135 0.0
C1729 C 0.12342 0.36437 0.10849 0.0
C1730 C 0.10644 0.37624 0.1227 0.0
C1731 C 0.10814 0.40981 0.12329 0.0
C1732 C 0.07453 0.36562 0.12236 0.0
C1733 C 0.12327 0.3625 0.13645 0.0
C1734 C 0.14627 0.34577 0.13086 0.0
C1735 C 0.16462 0.33046 0.14124 0.0
C1736 C 0.15929 0.33223 0.1578 0.0
C1737 C 0.13576 0.34916 0.16381 0.0
C1738 C 0.11765 0.36455 0.15294 0.0
H1739 H 0.87316 0.89035 0.40864 0.0
H1740 H 0.96707 0.87836 0.41271 0.0
H1741 H 0.97058 0.87336 0.38324 0.0
H1742 H 0.86196 0.83828 0.37752 0.0
H1743 H 0.83431 0.85933 0.36729 0.0
H1744 H 0.83923 0.86332 0.38866 0.0
H1745 H 0.84671 0.91913 0.38512 0.0
H1746 H 0.84168 0.91535 0.36374 0.0
H1747 H 0.87439 0.93225 0.37147 0.0
H1748 H 0.96374 0.86779 0.35355 0.0
H1749 H 0.94724 0.86306 0.32547 0.0
H1750 H 0.85771 0.87882 0.3406 0.0
C1751 C 0.89452 0.88696 0.40333 0.0
C1752 C 0.91987 0.88482 0.41299 0.0
C1753 C 0.94735 0.88015 0.40557 0.0
C1754 C 0.94958 0.87727 0.38883 0.0
C1755 C 0.92413 0.87917 0.37969 0.0
C1756 C 0.89714 0.88403 0.38665 0.0
C1757 C 0.87311 0.88454 0.37411 0.0
C1758 C 0.85085 0.8599 0.37707 0.0
C1759 C 0.85809 0.91461 0.37358 0.0
C1760 C 0.89081 0.87901 0.35902 0.0
C1761 C 0.92019 0.876 0.36253 0.0
C1762 C 0.94081 0.87024 0.35064 0.0
C1763 C 0.93118 0.86753 0.33472 0.0
C1764 C 0.90117 0.8706 0.3308 0.0
C1765 C 0.8808 0.87647 0.34317 0.0
H1766 H 0.39163 0.62653 0.66223 0.0
H1767 H 0.30274 0.65981 0.66072 0.0
H1768 H 0.3027 0.65483 0.63114 0.0
H1769 H 0.41684 0.66288 0.62719 0.0
H1770 H 0.43978 0.63312 0.62065 0.0
H1771 H 0.43228 0.63804 0.64172 0.0
H1772 H 0.4126 0.58498 0.64345 0.0
H1773 H 0.42007 0.57987 0.62238 0.0
H1774 H 0.38378 0.57352 0.63008 0.0
H1775 H 0.31306 0.64782 0.60166 0.0
H1776 H 0.33294 0.63931 0.57447 0.0
H1777 H 0.41506 0.61061 0.59542 0.0
C1778 C 0.37204 0.63258 0.65572 0.0
C1779 C 0.34715 0.64352 0.66381 0.0
C1780 C 0.32205 0.65134 0.6548 0.0
C1781 C 0.32181 0.64856 0.638 0.0
C1782 C 0.3468 0.63789 0.63041 0.0
C1783 C 0.37142 0.62998 0.63899 0.0
C1784 C 0.3957 0.61983 0.62794 0.0
C1785 C 0.42274 0.63966 0.62947 0.0
C1786 C 0.40348 0.58763 0.63115 0.0
C1787 C 0.38099 0.62352 0.61178 0.0
C1788 C 0.35276 0.63387 0.61346 0.0
C1789 C 0.33508 0.63958 0.6002 0.0
C1790 C 0.3466 0.6347 0.5848 0.0
C1791 C 0.37556 0.62425 0.5828 0.0
C1792 C 0.39281 0.61847 0.59652 0.0
H1793 H 0.61247 0.16482 0.83405 0.0
H1794 H 0.66583 0.08636 0.83185 0.0
H1795 H 0.6606 0.08024 0.86122 0.0
H1796 H 0.64022 0.19159 0.87199 0.0
H1797 H 0.60514 0.20515 0.87847 0.0
H1798 H 0.61371 0.20356 0.85736 0.0
H1799 H 0.56728 0.17236 0.85238 0.0
H1800 H 0.55866 0.17367 0.87349 0.0
H1801 H 0.56219 0.13889 0.86349 0.0
H1802 H 0.64794 0.08171 0.8907 0.0
H1803 H 0.63108 0.09212 0.91832 0.0
H1804 H 0.58664 0.17002 0.90115 0.0
C1805 C 0.62329 0.14647 0.83973 0.0
C1806 C 0.63961 0.12608 0.83064 0.0
C1807 C 0.65328 0.1023 0.83856 0.0
C1808 C 0.65038 0.0986 0.85524 0.0
C1809 C 0.63381 0.11889 0.8638 0.0
C1810 C 0.62067 0.14247 0.85633 0.0
C1811 C 0.60387 0.16104 0.86823 0.0
C1812 C 0.6165 0.19217 0.86906 0.0
C1813 C 0.57106 0.1615 0.86415 0.0
C1814 C 0.60965 0.14426 0.88359 0.0
C1815 C 0.62681 0.11992 0.88077 0.0
C1816 C 0.63461 0.10078 0.89307 0.0
C1817 C 0.62484 0.10683 0.90871 0.0
C1818 C 0.60761 0.13193 0.91191 0.0
C1819 C 0.5999 0.15075 0.89912 0.0
H1820 H 0.09675 0.66831 0.33311 0.0
H1821 H 0.16423 0.60663 0.31897 0.0
H1822 H 0.16533 0.587 0.3466 0.0
H1823 H 0.12521 0.68354 0.37252 0.0
H1824 H 0.08964 0.68604 0.38175 0.0
H1825 H 0.09411 0.69515 0.36083 0.0
H1826 H 0.05416 0.6574 0.35326 0.0
H1827 H 0.04964 0.64809 0.37416 0.0
H1828 H 0.05802 0.61995 0.3597 0.0
H1829 H 0.15908 0.574 0.37573 0.0
H1830 H 0.14667 0.56928 0.40449 0.0
H1831 H 0.08324 0.63941 0.39961 0.0
C1832 C 0.1118 0.65071 0.3358 0.0
C1833 C 0.13042 0.63903 0.32385 0.0
C1834 C 0.14978 0.61598 0.32792 0.0
C1835 C 0.15054 0.60463 0.34357 0.0
C1836 C 0.13181 0.61656 0.35503 0.0
C1837 C 0.11285 0.63912 0.35137 0.0
C1838 C 0.09513 0.64814 0.36593 0.0
C1839 C 0.10141 0.68011 0.37053 0.0
C1840 C 0.06229 0.64308 0.36309 0.0
C1841 C 0.10714 0.62715 0.37837 0.0
C1842 C 0.12822 0.60908 0.37183 0.0
C1843 C 0.14259 0.58802 0.38099 0.0
C1844 C 0.13536 0.58549 0.39732 0.0
C1845 C 0.11397 0.60395 0.40432 0.0
C1846 C 0.09963 0.62492 0.39463 0.0
H1847 H 0.60731 0.81921 0.65204 0.0
H1848 H 0.65735 0.89279 0.67023 0.0
H1849 H 0.65748 0.91478 0.64308 0.0
H1850 H 0.64235 0.81475 0.61312 0.0
H1851 H 0.60897 0.80553 0.60278 0.0
H1852 H 0.61378 0.79526 0.62352 0.0
H1853 H 0.56583 0.82231 0.63094 0.0
H1854 H 0.56096 0.83279 0.61024 0.0
H1855 H 0.56174 0.86036 0.62572 0.0
H1856 H 0.65132 0.92911 0.61392 0.0
H1857 H 0.6396 0.93444 0.58505 0.0
H1858 H 0.59295 0.85176 0.58633 0.0
C1859 C 0.61853 0.83982 0.65032 0.0
C1860 C 0.63242 0.85422 0.66326 0.0
C1861 C 0.64662 0.88131 0.66049 0.0
C1862 C 0.6468 0.89399 0.64512 0.0
C1863 C 0.63263 0.87933 0.63266 0.0
C1864 C 0.6188 0.85283 0.6351 0.0
C1865 C 0.60466 0.84182 0.61981 0.0
C1866 C 0.61826 0.81261 0.61449 0.0
C1867 C 0.57132 0.83918 0.6218 0.0
C1868 C 0.61262 0.8663 0.60838 0.0
C1869 C 0.62881 0.88771 0.61599 0.0
C1870 C 0.63866 0.91246 0.60783 0.0
C1871 C 0.63187 0.91531 0.59144 0.0
C1872 C 0.61532 0.89357 0.58342 0.0
C1873 C 0.60557 0.86884 0.59209 0.0
H1874 H 0.38982 0.36249 0.84417 0.0
H1875 H 0.31583 0.42199 0.84332 0.0
H1876 H 0.32693 0.43691 0.87121 0.0
H1877 H 0.38108 0.33867 0.88465 0.0
H1878 H 0.41975 0.33678 0.88868 0.0
H1879 H 0.40642 0.33147 0.86853 0.0
H1880 H 0.4402 0.37309 0.8584 0.0
H1881 H 0.4536 0.37857 0.87854 0.0
H1882 H 0.43791 0.40874 0.86757 0.0
H1883 H 0.34516 0.44407 0.8995 0.0
H1884 H 0.36916 0.443 0.92608 0.0
H1885 H 0.43166 0.37937 0.90818 0.0
C1886 C 0.37597 0.37873 0.8498 0.0
C1887 C 0.35192 0.39106 0.84155 0.0
C1888 C 0.33437 0.41224 0.84939 0.0
C1889 C 0.34052 0.42088 0.86522 0.0
C1890 C 0.36436 0.40824 0.87301 0.0
C1891 C 0.38184 0.38767 0.86555 0.0
C1892 C 0.40587 0.37708 0.87664 0.0
C1893 C 0.40309 0.34404 0.87981 0.0
C1894 C 0.43619 0.38484 0.86988 0.0
C1895 C 0.39902 0.39471 0.89157 0.0
C1896 C 0.37503 0.41259 0.88922 0.0
C1897 C 0.36407 0.43029 0.90145 0.0
C1898 C 0.37786 0.42952 0.91651 0.0
C1899 C 0.40238 0.41121 0.9192 0.0
C1900 C 0.41315 0.39381 0.90648 0.0
H1901 H 0.91517 0.16073 0.15554 0.0
H1902 H 0.83102 0.12654 0.17075 0.0
H1903 H 0.82163 0.10927 0.1431 0.0
H1904 H 0.89139 0.18664 0.11699 0.0
H1905 H 0.92497 0.17708 0.10694 0.0
H1906 H 0.92533 0.1861 0.12801 0.0
H1907 H 0.95008 0.13643 0.13434 0.0
H1908 H 0.94969 0.12721 0.11329 0.0
H1909 H 0.93299 0.103 0.12772 0.0
H1910 H 0.82142 0.09569 0.11383 0.0
H1911 H 0.82937 0.08865 0.08475 0.0
H1912 H 0.91334 0.13246 0.08853 0.0
C1913 C 0.89479 0.14955 0.15308 0.0
C1914 C 0.87385 0.14493 0.16533 0.0
C1915 C 0.84737 0.13038 0.16156 0.0
C1916 C 0.84187 0.12041 0.14591 0.0
C1917 C 0.863 0.12526 0.13414 0.0
C1918 C 0.88886 0.13962 0.13751 0.0
C1919 C 0.90765 0.14266 0.12259 0.0
C1920 C 0.91261 0.17504 0.11839 0.0
C1921 C 0.93683 0.12634 0.12461 0.0
C1922 C 0.88829 0.1278 0.1103 0.0
C1923 C 0.86272 0.11777 0.11722 0.0
C1924 C 0.84135 0.10344 0.10827 0.0
C1925 C 0.84611 0.09952 0.09175 0.0
C1926 C 0.87197 0.11 0.08433 0.0
C1927 C 0.89336 0.12415 0.09382 0.0
H1928 H 0.90907 0.65804 0.84022 0.0
H1929 H 0.8361 0.60199 0.82736 0.0
H1930 H 0.83177 0.58628 0.85567 0.0
H1931 H 0.94154 0.60926 0.86859 0.0
H1932 H 0.95269 0.63787 0.88218 0.0
H1933 H 0.94948 0.64533 0.86099 0.0
H1934 H 0.91368 0.68787 0.86703 0.0
H1935 H 0.91688 0.68063 0.88824 0.0
H1936 H 0.88137 0.68094 0.87885 0.0
H1937 H 0.83587 0.57625 0.88545 0.0
H1938 H 0.84786 0.57305 0.91438 0.0
H1939 H 0.91849 0.63526 0.90744 0.0
C1940 C 0.89204 0.64261 0.84334 0.0
C1941 C 0.87287 0.63131 0.83156 0.0
C1942 C 0.85102 0.61099 0.83617 0.0
C1943 C 0.84839 0.60191 0.85222 0.0
C1944 C 0.86781 0.61331 0.86351 0.0
C1945 C 0.88918 0.63324 0.85927 0.0
C1946 C 0.90757 0.64188 0.87363 0.0
C1947 C 0.93972 0.63305 0.8712 0.0
C1948 C 0.90468 0.67478 0.87714 0.0
C1949 C 0.89321 0.62369 0.88662 0.0
C1950 C 0.87031 0.60737 0.88056 0.0
C1951 C 0.85376 0.58893 0.89033 0.0
C1952 C 0.86076 0.58724 0.90674 0.0
C1953 C 0.88413 0.60386 0.91319 0.0
C1954 C 0.90053 0.62221 0.90291 0.0
H1955 H 0.08849 0.10489 0.59606 0.0
H1956 H 0.16972 0.14938 0.58455 0.0
H1957 H 0.18055 0.15415 0.61353 0.0
H1958 H 0.07009 0.14879 0.62983 0.0
H1959 H 0.05478 0.11902 0.64128 0.0
H1960 H 0.05412 0.11788 0.61965 0.0
H1961 H 0.08102 0.06799 0.6201 0.0
H1962 H 0.0817 0.06895 0.64175 0.0
H1963 H 0.1153 0.06476 0.63065 0.0
H1964 H 0.18184 0.15522 0.64381 0.0
H1965 H 0.17332 0.15274 0.67311 0.0
H1966 H 0.09101 0.10801 0.66463 0.0
C1967 C 0.1087 0.1154 0.5996 0.0
C1968 C 0.12831 0.12668 0.58803 0.0
C1969 C 0.15437 0.14055 0.5932 0.0
C1970 C 0.16074 0.14334 0.60963 0.0
C1971 C 0.14081 0.13219 0.62072 0.0
C1972 C 0.11533 0.11849 0.61592 0.0
C1973 C 0.09714 0.10916 0.63024 0.0
C1974 C 0.06727 0.12465 0.63024 0.0
C1975 C 0.0936 0.07573 0.63071 0.0
C1976 C 0.1163 0.11989 0.64384 0.0
C1977 C 0.14144 0.13301 0.63812 0.0
C1978 C 0.16227 0.14491 0.64844 0.0
C1979 C 0.15723 0.14341 0.66506 0.0
C1980 C 0.13151 0.13018 0.67118 0.0
C1981 C 0.11091 0.11823 0.66036 0.0
H1982 H 0.57117 0.35443 0.41979 0.0
H1983 H 0.63674 0.42203 0.42649 0.0
H1984 H 0.64736 0.42115 0.3974 0.0
H1985 H 0.61044 0.3132 0.39088 0.0
H1986 H 0.57869 0.30365 0.37917 0.0
H1987 H 0.5751 0.31064 0.40037 0.0
H1988 H 0.53603 0.35031 0.39456 0.0
H1989 H 0.53938 0.34333 0.37333 0.0
H1990 H 0.54455 0.37984 0.38098 0.0
H1991 H 0.65221 0.41155 0.36777 0.0
H1992 H 0.65031 0.39454 0.33963 0.0
H1993 H 0.58168 0.33309 0.35235 0.0
C1994 C 0.58756 0.36928 0.41514 0.0
C1995 C 0.60309 0.38834 0.42543 0.0
C1996 C 0.62451 0.40726 0.41885 0.0
C1997 C 0.63072 0.40693 0.40234 0.0
C1998 C 0.61527 0.3876 0.39257 0.0
C1999 C 0.59405 0.3692 0.3987 0.0
C2000 C 0.58113 0.35 0.38569 0.0
C2001 C 0.58669 0.31745 0.38924 0.0
C2002 C 0.54833 0.35626 0.38351 0.0
C2003 C 0.5986 0.36027 0.3713 0.0
C2004 C 0.61811 0.38202 0.37551 0.0
C2005 C 0.63692 0.39462 0.36431 0.0
C2006 C 0.63571 0.38476 0.34836 0.0
C2007 C 0.61584 0.36248 0.34377 0.0
C2008 C 0.59708 0.35018 0.35545 0.0
H2009 H 0.42156 0.90593 0.09906 0.0
H2010 H 0.34191 0.87444 0.07654 0.0
H2011 H 0.32225 0.86123 0.10321 0.0
H2012 H 0.42638 0.84983 0.12863 0.0
H2013 H 0.44009 0.87363 0.14417 0.0
H2014 H 0.44738 0.8818 0.12338 0.0
H2015 H 0.42436 0.93321 0.12692 0.0
H2016 H 0.41709 0.92523 0.14775 0.0
H2017 H 0.38769 0.93638 0.13468 0.0
H2018 H 0.31158 0.85074 0.13238 0.0
H2019 H 0.31101 0.84342 0.16184 0.0
H2020 H 0.39806 0.88091 0.16498 0.0
C2021 C 0.39988 0.8965 0.09973 0.0
C2022 C 0.38324 0.89131 0.08571 0.0
C2023 C 0.35507 0.87864 0.08711 0.0
C2024 C 0.34368 0.87108 0.10221 0.0
C2025 C 0.36077 0.87625 0.11577 0.0
C2026 C 0.38826 0.88866 0.11467 0.0
C2027 C 0.40249 0.89122 0.13103 0.0
C2028 C 0.43075 0.87303 0.13184 0.0
C2029 C 0.40824 0.92342 0.13534 0.0
C2030 C 0.37877 0.87821 0.14149 0.0
C2031 C 0.35482 0.86983 0.1325 0.0
C2032 C 0.3302 0.85725 0.13956 0.0
C2033 C 0.33009 0.85317 0.15629 0.0
C2034 C 0.35449 0.86152 0.16571 0.0
C2035 C 0.37908 0.87418 0.15813 0.0
H2036 H 0.89656 0.34194 0.65521 0.0
H2037 H 0.82276 0.40158 0.65703 0.0
H2038 H 0.8305 0.41389 0.62844 0.0
H2039 H 0.94169 0.38562 0.62798 0.0
H2040 H 0.95557 0.35395 0.61758 0.0
H2041 H 0.94537 0.35129 0.63846 0.0
H2042 H 0.91014 0.30864 0.63169 0.0
H2043 H 0.92025 0.31113 0.61083 0.0
H2044 H 0.88235 0.31384 0.61658 0.0
H2045 H 0.84427 0.41718 0.59919 0.0
H2046 H 0.86295 0.41107 0.57153 0.0
H2047 H 0.92816 0.34986 0.58904 0.0
C2048 C 0.88217 0.35781 0.64966 0.0
C2049 C 0.85904 0.3708 0.65838 0.0
C2050 C 0.84065 0.39136 0.65062 0.0
C2051 C 0.84491 0.39855 0.63439 0.0
C2052 C 0.86776 0.38514 0.62612 0.0
C2053 C 0.88615 0.36528 0.63351 0.0
C2054 C 0.90833 0.35306 0.62179 0.0
C2055 C 0.93959 0.3615 0.62675 0.0
C2056 C 0.90505 0.31969 0.62012 0.0
C2057 C 0.89918 0.3687 0.60656 0.0
C2058 C 0.87586 0.38725 0.60932 0.0
C2059 C 0.86272 0.40297 0.59692 0.0
C2060 C 0.87347 0.39933 0.58124 0.0
C2061 C 0.89712 0.38011 0.57813 0.0
C2062 C 0.91032 0.365 0.59104 0.0
H2063 H 0.38855 0.16814 0.35574 0.0
H2064 H 0.36467 0.0859 0.33318 0.0
H2065 H 0.36365 0.06209 0.35982 0.0
H2066 H 0.43553 0.13742 0.38639 0.0
H2067 H 0.4241 0.16318 0.40154 0.0
H2068 H 0.42365 0.17354 0.38065 0.0
H2069 H 0.36878 0.18714 0.38296 0.0
H2070 H 0.36909 0.17688 0.40386 0.0
H2071 H 0.34317 0.16031 0.39031 0.0
H2072 H 0.3638 0.04758 0.3891 0.0
H2073 H 0.36498 0.04373 0.41876 0.0
H2074 H 0.38923 0.13537 0.42187 0.0
C2075 C 0.38322 0.1451 0.35636 0.0
C2076 C 0.3767 0.12891 0.34236 0.0
C2077 C 0.36975 0.09879 0.34374 0.0
C2078 C 0.36915 0.08504 0.35881 0.0
C2079 C 0.37562 0.10166 0.37238 0.0
C2080 C 0.38255 0.13103 0.37129 0.0
C2081 C 0.38809 0.14412 0.38772 0.0
C2082 C 0.41973 0.15521 0.38915 0.0
C2083 C 0.36596 0.16855 0.39143 0.0
C2084 C 0.383 0.11759 0.39823 0.0
C2085 C 0.37588 0.09329 0.38918 0.0
C2086 C 0.3695 0.06643 0.39631 0.0
C2087 C 0.37022 0.06446 0.41315 0.0
C2088 C 0.37729 0.08918 0.42264 0.0
C2089 C 0.38396 0.11597 0.41498 0.0
H2090 H 0.63151 0.69324 0.16101 0.0
H2091 H 0.66849 0.61235 0.17934 0.0
H2092 H 0.66879 0.59196 0.1519 0.0
H2093 H 0.5841 0.66032 0.13211 0.0
H2094 H 0.58929 0.6884 0.11718 0.0
H2095 H 0.59282 0.69713 0.1382 0.0
H2096 H 0.64496 0.71735 0.13315 0.0
H2097 H 0.64152 0.70882 0.11209 0.0
H2098 H 0.6718 0.69444 0.12349 0.0
H2099 H 0.6641 0.57987 0.12258 0.0
H2100 H 0.65575 0.57738 0.0933 0.0
H2101 H 0.62161 0.66601 0.09406 0.0
C2102 C 0.6399 0.67133 0.15925 0.0
C2103 C 0.65003 0.65443 0.17235 0.0
C2104 C 0.66063 0.62575 0.16952 0.0
C2105 C 0.66088 0.61395 0.15396 0.0
C2106 C 0.65045 0.63106 0.14136 0.0
C2107 C 0.64024 0.65916 0.14381 0.0
C2108 C 0.62988 0.67277 0.1282 0.0
C2109 C 0.59708 0.68008 0.12898 0.0
C2110 C 0.64813 0.69995 0.12398 0.0
C2111 C 0.6358 0.6479 0.11662 0.0
C2112 C 0.64766 0.62405 0.12446 0.0
C2113 C 0.65488 0.59843 0.1163 0.0
C2114 C 0.65 0.59722 0.09967 0.0
C2115 C 0.63802 0.62147 0.09136 0.0
C2116 C 0.63078 0.64707 0.10004 0.0
H2117 H 0.09415 0.83951 0.83168 0.0
H2118 H 0.16311 0.90395 0.826 0.0
H2119 H 0.15494 0.92064 0.85389 0.0
H2120 H 0.04621 0.88399 0.85679 0.0
H2121 H 0.03508 0.85338 0.86899 0.0
H2122 H 0.04518 0.84775 0.84828 0.0
H2123 H 0.08387 0.80949 0.85703 0.0
H2124 H 0.07383 0.81492 0.87773 0.0
H2125 H 0.11131 0.8196 0.87156 0.0
H2126 H 0.14099 0.92843 0.88286 0.0
H2127 H 0.12316 0.92596 0.91086 0.0
H2128 H 0.06314 0.85661 0.89736 0.0
C2129 C 0.10739 0.85732 0.83622 0.0
C2130 C 0.12926 0.87046 0.82664 0.0
C2131 C 0.14622 0.89356 0.83311 0.0
C2132 C 0.14167 0.90325 0.84892 0.0
C2133 C 0.12002 0.8897 0.85806 0.0
C2134 C 0.10315 0.86725 0.85194 0.0
C2135 C 0.08218 0.85548 0.86445 0.0
C2136 C 0.05027 0.86046 0.85932 0.0
C2137 C 0.08817 0.82295 0.86789 0.0
C2138 C 0.09024 0.87448 0.87866 0.0
C2139 C 0.11195 0.89424 0.87471 0.0
C2140 C 0.12381 0.91323 0.88606 0.0
C2141 C 0.11354 0.91166 0.90193 0.0
C2142 C 0.09167 0.89118 0.9063 0.0
C2143 C 0.07963 0.87273 0.89439 0.0
loop_
_geom_bond_atom_site_label_1
_geom_bond_atom_site_label_2
_geom_bond_distance
_geom_bond_site_symmetry_2
_ccdc_geom_bond_type
C0 O1 1.160 . S
C0 O7 1.185 . S
O1 C0 1.160 . S
O2 Zn3 1.899 . S
O2 C10 1.284 . S
Zn3 O2 1.899 . S
Zn3 O4 2.032 . S
Zn3 O7 2.086 . S
Zn3 O12 1.977 . S
O4 Zn3 2.032 . S
O4 C8 1.278 . S
C5 O6 1.203 . S
C5 O12 1.267 . S
O6 C5 1.203 . S
O7 C0 1.185 . S
O7 Zn3 2.086 . S
C8 O4 1.278 . S
C8 O9 1.211 . S
O9 C8 1.211 . S
C10 O2 1.284 . S
C10 O11 1.273 . S
O11 C10 1.273 . S
O12 Zn3 1.977 . S
O12 C5 1.267 . S
C13 O14 1.160 . S
C13 O20 1.185 . S
O14 C13 1.160 . S
O15 Zn16 1.899 . S
O15 C23 1.284 . S
Zn16 O15 1.899 . S
Zn16 O17 2.032 . S
Zn16 O20 2.086 . S
Zn16 O25 1.977 . S
O17 Zn16 2.032 . S
O17 C21 1.278 . S
C18 O19 1.203 . S
C18 O25 1.267 . S
O19 C18 1.203 . S
O20 C13 1.185 . S
O20 Zn16 2.086 . S
C21 O17 1.278 . S
C21 O22 1.211 . S
O22 C21 1.211 . S
C23 O15 1.284 . S
C23 O24 1.273 . S
O24 C23 1.273 . S
O25 Zn16 1.977 . S
O25 C18 1.267 . S
C26 O27 1.160 . S
C26 O33 1.185 . S
O27 C26 1.160 . S
O28 Zn29 1.899 . S
O28 C36 1.284 . S
Zn29 O28 1.899 . S
Zn29 O30 2.032 . S
Zn29 O33 2.086 . S
Zn29 O38 1.977 . S
O30 Zn29 2.032 . S
O30 C34 1.278 . S
C31 O32 1.203 . S
C31 O38 1.267 . S
O32 C31 1.203 . S
O33 C26 1.185 . S
O33 Zn29 2.086 . S
C34 O30 1.278 . S
C34 O35 1.211 . S
O35 C34 1.211 . S
C36 O28 1.284 . S
C36 O37 1.273 . S
O37 C36 1.273 . S
O38 Zn29 1.977 . S
O38 C31 1.267 . S
C39 O40 1.160 . S
C39 O46 1.185 . S
O40 C39 1.160 . S
O41 Zn42 1.899 . S
O41 C49 1.284 . S
Zn42 O41 1.899 . S
Zn42 O43 2.032 . S
Zn42 O46 2.086 . S
Zn42 O51 1.977 . S
O43 Zn42 2.032 . S
O43 C47 1.278 . S
C44 O45 1.203 . S
C44 O51 1.267 . S
O45 C44 1.203 . S
O46 C39 1.185 . S
O46 Zn42 2.086 . S
C47 O43 1.278 . S
C47 O48 1.211 . S
O48 C47 1.211 . S
C49 O41 1.284 . S
C49 O50 1.273 . S
O50 C49 1.273 . S
O51 Zn42 1.977 . S
O51 C44 1.267 . S
C52 O53 1.160 . S
C52 O59 1.185 . S
O53 C52 1.160 . S
O54 Zn55 1.899 . S
O54 C62 1.284 . S
Zn55 O54 1.899 . S
Zn55 O56 2.032 . S
Zn55 O59 2.086 . S
Zn55 O64 1.977 . S
O56 Zn55 2.032 . S
O56 C60 1.278 . S
C57 O58 1.203 . S
C57 O64 1.267 . S
O58 C57 1.203 . S
O59 C52 1.185 . S
O59 Zn55 2.086 . S
C60 O56 1.278 . S
C60 O61 1.211 . S
O61 C60 1.211 . S
C62 O54 1.284 . S
C62 O63 1.273 . S
O63 C62 1.273 . S
O64 Zn55 1.977 . S
O64 C57 1.267 . S
C65 O66 1.160 . S
C65 O72 1.185 . S
O66 C65 1.160 . S
O67 Zn68 1.899 . S
O67 C75 1.284 . S
Zn68 O67 1.899 . S
Zn68 O69 2.032 . S
Zn68 O72 2.086 . S
Zn68 O77 1.977 . S
O69 Zn68 2.032 . S
O69 C73 1.278 . S
C70 O71 1.203 . S
C70 O77 1.267 . S
O71 C70 1.203 . S
O72 C65 1.185 . S
O72 Zn68 2.086 . S
C73 O69 1.278 . S
C73 O74 1.211 . S
O74 C73 1.211 . S
C75 O67 1.284 . S
C75 O76 1.273 . S
O76 C75 1.273 . S
O77 Zn68 1.977 . S
O77 C70 1.267 . S
C78 O79 1.160 . S
C78 O85 1.185 . S
O79 C78 1.160 . S
O80 Zn81 1.899 . S
O80 C88 1.284 . S
Zn81 O80 1.899 . S
Zn81 O82 2.032 . S
Zn81 O85 2.086 . S
Zn81 O90 1.977 . S
O82 Zn81 2.032 . S
O82 C86 1.278 . S
C83 O84 1.203 . S
C83 O90 1.267 . S
O84 C83 1.203 . S
O85 C78 1.185 . S
O85 Zn81 2.086 . S
C86 O82 1.278 . S
C86 O87 1.211 . S
O87 C86 1.211 . S
C88 O80 1.284 . S
C88 O89 1.273 . S
O89 C88 1.273 . S
O90 Zn81 1.977 . S
O90 C83 1.267 . S
C91 O92 1.160 . S
C91 O98 1.185 . S
O92 C91 1.160 . S
O93 Zn94 1.899 . S
O93 C101 1.284 . S
Zn94 O93 1.899 . S
Zn94 O95 2.032 . S
Zn94 O98 2.086 . S
Zn94 O103 1.977 . S
O95 Zn94 2.032 . S
O95 C99 1.278 . S
C96 O97 1.203 . S
C96 O103 1.267 . S
O97 C96 1.203 . S
O98 C91 1.185 . S
O98 Zn94 2.086 . S
C99 O95 1.278 . S
C99 O100 1.211 . S
O100 C99 1.211 . S
C101 O93 1.284 . S
C101 O102 1.273 . S
O102 C101 1.273 . S
O103 Zn94 1.977 . S
O103 C96 1.267 . S
C104 O105 1.160 . S
C104 O111 1.185 . S
O105 C104 1.160 . S
O106 Zn107 1.899 . S
O106 C114 1.284 . S
Zn107 O106 1.899 . S
Zn107 O108 2.032 . S
Zn107 O111 2.086 . S
Zn107 O116 1.977 . S
O108 Zn107 2.032 . S
O108 C112 1.278 . S
C109 O110 1.203 . S
C109 O116 1.267 . S
O110 C109 1.203 . S
O111 C104 1.185 . S
O111 Zn107 2.086 . S
C112 O108 1.278 . S
C112 O113 1.211 . S
O113 C112 1.211 . S
C114 O106 1.284 . S
C114 O115 1.273 . S
O115 C114 1.273 . S
O116 Zn107 1.977 . S
O116 C109 1.267 . S
C117 O118 1.160 . S
C117 O124 1.185 . S
O118 C117 1.160 . S
O119 Zn120 1.899 . S
O119 C127 1.284 . S
Zn120 O119 1.899 . S
Zn120 O121 2.032 . S
Zn120 O124 2.086 . S
Zn120 O129 1.977 . S
O121 Zn120 2.032 . S
O121 C125 1.278 . S
C122 O123 1.203 . S
C122 O129 1.267 . S
O123 C122 1.203 . S
O124 C117 1.185 . S
O124 Zn120 2.086 . S
C125 O121 1.278 . S
C125 O126 1.211 . S
O126 C125 1.211 . S
C127 O119 1.284 . S
C127 O128 1.273 . S
O128 C127 1.273 . S
O129 Zn120 1.977 . S
O129 C122 1.267 . S
C130 O131 1.160 . S
C130 O137 1.185 . S
O131 C130 1.160 . S
O132 Zn133 1.899 . S
O132 C140 1.284 . S
Zn133 O132 1.899 . S
Zn133 O134 2.032 . S
Zn133 O137 2.086 . S
Zn133 O142 1.977 . S
O134 Zn133 2.032 . S
O134 C138 1.278 . S
C135 O136 1.203 . S
C135 O142 1.267 . S
O136 C135 1.203 . S
O137 C130 1.185 . S
O137 Zn133 2.086 . S
C138 O134 1.278 . S
C138 O139 1.211 . S
O139 C138 1.211 . S
C140 O132 1.284 . S
C140 O141 1.273 . S
O141 C140 1.273 . S
O142 Zn133 1.977 . S
O142 C135 1.267 . S
C143 O144 1.160 . S
C143 O150 1.185 . S
O144 C143 1.160 . S
O145 Zn146 1.899 . S
O145 C153 1.284 . S
Zn146 O145 1.899 . S
Zn146 O147 2.032 . S
Zn146 O150 2.086 . S
Zn146 O155 1.977 . S
O147 Zn146 2.032 . S
O147 C151 1.278 . S
C148 O149 1.203 . S
C148 O155 1.267 . S
O149 C148 1.203 . S
O150 C143 1.185 . S
O150 Zn146 2.086 . S
C151 O147 1.278 . S
C151 O152 1.211 . S
O152 C151 1.211 . S
C153 O145 1.284 . S
C153 O154 1.273 . S
O154 C153 1.273 . S
O155 Zn146 1.977 . S
O155 C148 1.267 . S
C156 O157 1.160 . S
C156 O163 1.185 . S
O157 C156 1.160 . S
O158 Zn159 1.899 . S
O158 C166 1.284 . S
Zn159 O158 1.899 . S
Zn159 O160 2.032 . S
Zn159 O163 2.086 . S
Zn159 O168 1.977 . S
O160 Zn159 2.032 . S
O160 C164 1.278 . S
C161 O162 1.203 . S
C161 O168 1.267 . S
O162 C161 1.203 . S
O163 C156 1.185 . S
O163 Zn159 2.086 . S
C164 O160 1.278 . S
C164 O165 1.211 . S
O165 C164 1.211 . S
C166 O158 1.284 . S
C166 O167 1.273 . S
O167 C166 1.273 . S
O168 Zn159 1.977 . S
O168 C161 1.267 . S
C169 O170 1.160 . S
C169 O176 1.185 . S
O170 C169 1.160 . S
O171 Zn172 1.899 . S
O171 C179 1.284 . S
Zn172 O171 1.899 . S
Zn172 O173 2.032 . S
Zn172 O176 2.086 . S
Zn172 O181 1.977 . S
O173 Zn172 2.032 . S
O173 C177 1.278 . S
C174 O175 1.203 . S
C174 O181 1.267 . S
O175 C174 1.203 . S
O176 C169 1.185 . S
O176 Zn172 2.086 . S
C177 O173 1.278 . S
C177 O178 1.211 . S
O178 C177 1.211 . S
C179 O171 1.284 . S
C179 O180 1.273 . S
O180 C179 1.273 . S
O181 Zn172 1.977 . S
O181 C174 1.267 . S
C182 O183 1.160 . S
C182 O189 1.185 . S
O183 C182 1.160 . S
O184 Zn185 1.899 . S
O184 C192 1.284 . S
Zn185 O184 1.899 . S
Zn185 O186 2.032 . S
Zn185 O189 2.086 . S
Zn185 O194 1.977 . S
O186 Zn185 2.032 . S
O186 C190 1.278 . S
C187 O188 1.203 . S
C187 O194 1.267 . S
O188 C187 1.203 . S
O189 C182 1.185 . S
O189 Zn185 2.086 . S
C190 O186 1.278 . S
C190 O191 1.211 . S
O191 C190 1.211 . S
C192 O184 1.284 . S
C192 O193 1.273 . S
O193 C192 1.273 . S
O194 Zn185 1.977 . S
O194 C187 1.267 . S
C195 O196 1.160 . S
C195 O202 1.185 . S
O196 C195 1.160 . S
O197 Zn198 1.899 . S
O197 C205 1.284 . S
Zn198 O197 1.899 . S
Zn198 O199 2.032 . S
Zn198 O202 2.086 . S
Zn198 O207 1.977 . S
O199 Zn198 2.032 . S
O199 C203 1.278 . S
C200 O201 1.203 . S
C200 O207 1.267 . S
O201 C200 1.203 . S
O202 C195 1.185 . S
O202 Zn198 2.086 . S
C203 O199 1.278 . S
C203 O204 1.211 . S
O204 C203 1.211 . S
C205 O197 1.284 . S
C205 O206 1.273 . S
O206 C205 1.273 . S
O207 Zn198 1.977 . S
O207 C200 1.267 . S
C208 O209 1.160 . S
C208 O215 1.185 . S
O209 C208 1.160 . S
O210 Zn211 1.899 . S
O210 C218 1.284 . S
Zn211 O210 1.899 . S
Zn211 O212 2.032 . S
Zn211 O215 2.086 . S
Zn211 O220 1.977 . S
O212 Zn211 2.032 . S
O212 C216 1.278 . S
C213 O214 1.203 . S
C213 O220 1.267 . S
O214 C213 1.203 . S
O215 C208 1.185 . S
O215 Zn211 2.086 . S
C216 O212 1.278 . S
C216 O217 1.211 . S
O217 C216 1.211 . S
C218 O210 1.284 . S
C218 O219 1.273 . S
O219 C218 1.273 . S
O220 Zn211 1.977 . S
O220 C213 1.267 . S
C221 O222 1.160 . S
C221 O228 1.185 . S
O222 C221 1.160 . S
O223 Zn224 1.899 . S
O223 C231 1.284 . S
Zn224 O223 1.899 . S
Zn224 O225 2.032 . S
Zn224 O228 2.086 . S
Zn224 O233 1.977 . S
O225 Zn224 2.032 . S
O225 C229 1.278 . S
C226 O227 1.203 . S
C226 O233 1.267 . S
O227 C226 1.203 . S
O228 C221 1.185 . S
O228 Zn224 2.086 . S
C229 O225 1.278 . S
C229 O230 1.211 . S
O230 C229 1.211 . S
C231 O223 1.284 . S
C231 O232 1.273 . S
O232 C231 1.273 . S
O233 Zn224 1.977 . S
O233 C226 1.267 . S
C234 O235 1.160 . S
C234 O241 1.185 . S
O235 C234 1.160 . S
O236 Zn237 1.899 . S
O236 C244 1.284 . S
Zn237 O236 1.899 . S
Zn237 O238 2.032 . S
Zn237 O241 2.086 . S
Zn237 O246 1.977 . S
O238 Zn237 2.032 . S
O238 C242 1.278 . S
C239 O240 1.203 . S
C239 O246 1.267 . S
O240 C239 1.203 . S
O241 C234 1.185 . S
O241 Zn237 2.086 . S
C242 O238 1.278 . S
C242 O243 1.211 . S
O243 C242 1.211 . S
C244 O236 1.284 . S
C244 O245 1.273 . S
O245 C244 1.273 . S
O246 Zn237 1.977 . S
O246 C239 1.267 . S
C247 O248 1.160 . S
C247 O254 1.185 . S
O248 C247 1.160 . S
O249 Zn250 1.899 . S
O249 C257 1.284 . S
Zn250 O249 1.899 . S
Zn250 O251 2.032 . S
Zn250 O254 2.086 . S
Zn250 O259 1.977 . S
O251 Zn250 2.032 . S
O251 C255 1.278 . S
C252 O253 1.203 . S
C252 O259 1.267 . S
O253 C252 1.203 . S
O254 C247 1.185 . S
O254 Zn250 2.086 . S
C255 O251 1.278 . S
C255 O256 1.211 . S
O256 C255 1.211 . S
C257 O249 1.284 . S
C257 O258 1.273 . S
O258 C257 1.273 . S
O259 Zn250 1.977 . S
O259 C252 1.267 . S
C260 O261 1.160 . S
C260 O267 1.185 . S
O261 C260 1.160 . S
O262 Zn263 1.899 . S
O262 C270 1.284 . S
Zn263 O262 1.899 . S
Zn263 O264 2.032 . S
Zn263 O267 2.086 . S
Zn263 O272 1.977 . S
O264 Zn263 2.032 . S
O264 C268 1.278 . S
C265 O266 1.203 . S
C265 O272 1.267 . S
O266 C265 1.203 . S
O267 C260 1.185 . S
O267 Zn263 2.086 . S
C268 O264 1.278 . S
C268 O269 1.211 . S
O269 C268 1.211 . S
C270 O262 1.284 . S
C270 O271 1.273 . S
O271 C270 1.273 . S
O272 Zn263 1.977 . S
O272 C265 1.267 . S
C273 O274 1.160 . S
C273 O280 1.185 . S
O274 C273 1.160 . S
O275 Zn276 1.899 . S
O275 C283 1.284 . S
Zn276 O275 1.899 . S
Zn276 O277 2.032 . S
Zn276 O280 2.086 . S
Zn276 O285 1.977 . S
O277 Zn276 2.032 . S
O277 C281 1.278 . S
C278 O279 1.203 . S
C278 O285 1.267 . S
O279 C278 1.203 . S
O280 C273 1.185 . S
O280 Zn276 2.086 . S
C281 O277 1.278 . S
C281 O282 1.211 . S
O282 C281 1.211 . S
C283 O275 1.284 . S
C283 O284 1.273 . S
O284 C283 1.273 . S
O285 Zn276 1.977 . S
O285 C278 1.267 . S
C286 O287 1.160 . S
C286 O293 1.185 . S
O287 C286 1.160 . S
O288 Zn289 1.899 . S
O288 C296 1.284 . S
Zn289 O288 1.899 . S
Zn289 O290 2.032 . S
Zn289 O293 2.086 . S
Zn289 O298 1.977 . S
O290 Zn289 2.032 . S
O290 C294 1.278 . S
C291 O292 1.203 . S
C291 O298 1.267 . S
O292 C291 1.203 . S
O293 C286 1.185 . S
O293 Zn289 2.086 . S
C294 O290 1.278 . S
C294 O295 1.211 . S
O295 C294 1.211 . S
C296 O288 1.284 . S
C296 O297 1.273 . S
O297 C296 1.273 . S
O298 Zn289 1.977 . S
O298 C291 1.267 . S
C299 O300 1.160 . S
C299 O306 1.185 . S
O300 C299 1.160 . S
O301 Zn302 1.899 . S
O301 C309 1.284 . S
Zn302 O301 1.899 . S
Zn302 O303 2.032 . S
Zn302 O306 2.086 . S
Zn302 O311 1.977 . S
O303 Zn302 2.032 . S
O303 C307 1.278 . S
C304 O305 1.203 . S
C304 O311 1.267 . S
O305 C304 1.203 . S
O306 C299 1.185 . S
O306 Zn302 2.086 . S
C307 O303 1.278 . S
C307 O308 1.211 . S
O308 C307 1.211 . S
C309 O301 1.284 . S
C309 O310 1.273 . S
O310 C309 1.273 . S
O311 Zn302 1.977 . S
O311 C304 1.267 . S
C312 O313 1.160 . S
C312 O319 1.185 . S
O313 C312 1.160 . S
O314 Zn315 1.899 . S
O314 C322 1.284 . S
Zn315 O314 1.899 . S
Zn315 O316 2.032 . S
Zn315 O319 2.086 . S
Zn315 O324 1.977 . S
O316 Zn315 2.032 . S
O316 C320 1.278 . S
C317 O318 1.203 . S
C317 O324 1.267 . S
O318 C317 1.203 . S
O319 C312 1.185 . S
O319 Zn315 2.086 . S
C320 O316 1.278 . S
C320 O321 1.211 . S
O321 C320 1.211 . S
C322 O314 1.284 . S
C322 O323 1.273 . S
O323 C322 1.273 . S
O324 Zn315 1.977 . S
O324 C317 1.267 . S
C325 O326 1.160 . S
C325 O332 1.185 . S
O326 C325 1.160 . S
O327 Zn328 1.899 . S
O327 C335 1.284 . S
Zn328 O327 1.899 . S
Zn328 O329 2.032 . S
Zn328 O332 2.086 . S
Zn328 O337 1.977 . S
O329 Zn328 2.032 . S
O329 C333 1.278 . S
C330 O331 1.203 . S
C330 O337 1.267 . S
O331 C330 1.203 . S
O332 C325 1.185 . S
O332 Zn328 2.086 . S
C333 O329 1.278 . S
C333 O334 1.211 . S
O334 C333 1.211 . S
C335 O327 1.284 . S
C335 O336 1.273 . S
O336 C335 1.273 . S
O337 Zn328 1.977 . S
O337 C330 1.267 . S
C338 O339 1.160 . S
C338 O345 1.185 . S
O339 C338 1.160 . S
O340 Zn341 1.899 . S
O340 C348 1.284 . S
Zn341 O340 1.899 . S
Zn341 O342 2.032 . S
Zn341 O345 2.086 . S
Zn341 O350 1.977 . S
O342 Zn341 2.032 . S
O342 C346 1.278 . S
C343 O344 1.203 . S
C343 O350 1.267 . S
O344 C343 1.203 . S
O345 C338 1.185 . S
O345 Zn341 2.086 . S
C346 O342 1.278 . S
C346 O347 1.211 . S
O347 C346 1.211 . S
C348 O340 1.284 . S
C348 O349 1.273 . S
O349 C348 1.273 . S
O350 Zn341 1.977 . S
O350 C343 1.267 . S
C351 O352 1.160 . S
C351 O358 1.185 . S
O352 C351 1.160 . S
O353 Zn354 1.899 . S
O353 C361 1.284 . S
Zn354 O353 1.899 . S
Zn354 O355 2.032 . S
Zn354 O358 2.086 . S
Zn354 O363 1.977 . S
O355 Zn354 2.032 . S
O355 C359 1.278 . S
C356 O357 1.203 . S
C356 O363 1.267 . S
O357 C356 1.203 . S
O358 C351 1.185 . S
O358 Zn354 2.086 . S
C359 O355 1.278 . S
C359 O360 1.211 . S
O360 C359 1.211 . S
C361 O353 1.284 . S
C361 O362 1.273 . S
O362 C361 1.273 . S
O363 Zn354 1.977 . S
O363 C356 1.267 . S
C364 O365 1.160 . S
C364 O371 1.185 . S
O365 C364 1.160 . S
O366 Zn367 1.899 . S
O366 C374 1.284 . S
Zn367 O366 1.899 . S
Zn367 O368 2.032 . S
Zn367 O371 2.086 . S
Zn367 O376 1.977 . S
O368 Zn367 2.032 . S
O368 C372 1.278 . S
C369 O370 1.203 . S
C369 O376 1.267 . S
O370 C369 1.203 . S
O371 C364 1.185 . S
O371 Zn367 2.086 . S
C372 O368 1.278 . S
C372 O373 1.211 . S
O373 C372 1.211 . S
C374 O366 1.284 . S
C374 O375 1.273 . S
O375 C374 1.273 . S
O376 Zn367 1.977 . S
O376 C369 1.267 . S
C377 O378 1.160 . S
C377 O384 1.185 . S
O378 C377 1.160 . S
O379 Zn380 1.899 . S
O379 C387 1.284 . S
Zn380 O379 1.899 . S
Zn380 O381 2.032 . S
Zn380 O384 2.086 . S
Zn380 O389 1.977 . S
O381 Zn380 2.032 . S
O381 C385 1.278 . S
C382 O383 1.203 . S
C382 O389 1.267 . S
O383 C382 1.203 . S
O384 C377 1.185 . S
O384 Zn380 2.086 . S
C385 O381 1.278 . S
C385 O386 1.211 . S
O386 C385 1.211 . S
C387 O379 1.284 . S
C387 O388 1.273 . S
O388 C387 1.273 . S
O389 Zn380 1.977 . S
O389 C382 1.267 . S
C390 O391 1.160 . S
C390 O397 1.185 . S
O391 C390 1.160 . S
O392 Zn393 1.899 . S
O392 C400 1.284 . S
Zn393 O392 1.899 . S
Zn393 O394 2.032 . S
Zn393 O397 2.086 . S
Zn393 O402 1.977 . S
O394 Zn393 2.032 . S
O394 C398 1.278 . S
C395 O396 1.203 . S
C395 O402 1.267 . S
O396 C395 1.203 . S
O397 C390 1.185 . S
O397 Zn393 2.086 . S
C398 O394 1.278 . S
C398 O399 1.211 . S
O399 C398 1.211 . S
C400 O392 1.284 . S
C400 O401 1.273 . S
O401 C400 1.273 . S
O402 Zn393 1.977 . S
O402 C395 1.267 . S
C403 O404 1.160 . S
C403 O410 1.185 . S
O404 C403 1.160 . S
O405 Zn406 1.899 . S
O405 C413 1.284 . S
Zn406 O405 1.899 . S
Zn406 O407 2.032 . S
Zn406 O410 2.086 . S
Zn406 O415 1.977 . S
O407 Zn406 2.032 . S
O407 C411 1.278 . S
C408 O409 1.203 . S
C408 O415 1.267 . S
O409 C408 1.203 . S
O410 C403 1.185 . S
O410 Zn406 2.086 . S
C411 O407 1.278 . S
C411 O412 1.211 . S
O412 C411 1.211 . S
C413 O405 1.284 . S
C413 O414 1.273 . S
O414 C413 1.273 . S
O415 Zn406 1.977 . S
O415 C408 1.267 . S
H416 C428 0.930 1_554 S
H417 C430 0.930 . S
H418 C431 0.930 . S
H419 C435 0.959 . S
H420 C435 0.959 . S
H421 C435 0.961 . S
H422 C436 0.960 . S
H423 C436 0.961 . S
H424 C436 0.959 . S
H425 C439 0.929 . S
H426 C440 0.931 1_556 S
H427 C442 0.930 . S
C428 H416 0.930 1_556 S
C428 C429 1.399 . S
C428 C433 1.388 1_556 S
C429 C428 1.399 . S
C429 C430 1.376 . S
C430 H417 0.930 . S
C430 C429 1.376 . S
C430 C431 1.388 . S
C431 H418 0.930 . S
C431 C430 1.388 . S
C431 C432 1.390 . S
C432 C431 1.390 . S
C432 C433 1.369 1_556 S
C432 C438 1.465 1_655 S
C433 C428 1.388 1_554 S
C433 C432 1.369 1_554 S
C433 C434 1.561 . S
C434 C433 1.561 . S
C434 C435 1.490 1_655 S
C434 C436 1.574 . S
C434 C437 1.517 1_655 S
C435 H419 0.959 . S
C435 H420 0.959 . S
C435 H421 0.961 . S
C435 C434 1.490 1_455 S
C436 H422 0.960 . S
C436 H423 0.961 . S
C436 H424 0.959 . S
C436 C434 1.574 . S
C437 C434 1.517 1_455 S
C437 C438 1.396 1_554 S
C437 C442 1.390 . S
C438 C432 1.465 1_455 S
C438 C437 1.396 1_556 S
C438 C439 1.399 . S
C439 H425 0.929 . S
C439 C438 1.399 . S
C439 C440 1.385 1_556 S
C440 H426 0.931 1_554 S
C440 C439 1.385 1_554 S
C440 C441 1.389 . S
C441 C440 1.389 . S
C441 C442 1.387 . S
C442 H427 0.930 . S
C442 C437 1.390 . S
C442 C441 1.387 . S
H443 C455 0.930 . S
H444 C457 0.930 . S
H445 C458 0.930 . S
H446 C462 0.959 . S
H447 C462 0.959 . S
H448 C462 0.961 . S
H449 C463 0.960 . S
H450 C463 0.961 . S
H451 C463 0.959 . S
H452 C466 0.929 . S
H453 C467 0.931 . S
H454 C469 0.930 . S
C455 H443 0.930 . S
C455 C456 1.399 . S
C455 C460 1.399 . S
C456 C455 1.399 . S
C456 C457 1.376 . S
C457 H444 0.930 . S
C457 C456 1.376 . S
C457 C458 1.388 . S
C458 H445 0.930 . S
C458 C457 1.388 . S
C458 C459 1.390 . S
C459 C458 1.390 . S
C459 C460 1.394 . S
C459 C465 1.465 . S
C460 C455 1.399 . S
C460 C459 1.394 . S
C460 C461 1.516 . S
C461 C460 1.516 . S
C461 C462 1.502 . S
C461 C463 1.561 . S
C461 C464 1.526 . S
C462 H446 0.959 . S
C462 H447 0.959 . S
C462 H448 0.961 . S
C462 C461 1.502 . S
C463 H449 0.960 . S
C463 H450 0.961 . S
C463 H451 0.959 . S
C463 C461 1.561 . S
C464 C461 1.526 . S
C464 C465 1.396 . S
C464 C469 1.390 . S
C465 C459 1.465 . S
C465 C464 1.396 . S
C465 C466 1.399 . S
C466 H452 0.929 . S
C466 C465 1.399 . S
C466 C467 1.385 . S
C467 H453 0.931 . S
C467 C466 1.385 . S
C467 C468 1.389 . S
C468 C467 1.389 . S
C468 C469 1.387 . S
C469 H454 0.930 . S
C469 C464 1.390 . S
C469 C468 1.387 . S
H470 C482 0.930 . S
H471 C484 0.930 . S
H472 C485 0.930 . S
H473 C489 0.959 . S
H474 C489 0.959 . S
H475 C489 0.961 . S
H476 C490 0.960 . S
H477 C490 0.961 . S
H478 C490 0.959 . S
H479 C493 0.929 . S
H480 C494 0.931 . S
H481 C496 0.930 . S
C482 H470 0.930 . S
C482 C483 1.399 . S
C482 C487 1.399 . S
C483 C482 1.399 . S
C483 C484 1.376 . S
C484 H471 0.930 . S
C484 C483 1.376 . S
C484 C485 1.388 . S
C485 H472 0.930 . S
C485 C484 1.388 . S
C485 C486 1.390 . S
C486 C485 1.390 . S
C486 C487 1.394 . S
C486 C492 1.465 . S
C487 C482 1.399 . S
C487 C486 1.394 . S
C487 C488 1.516 . S
C488 C487 1.516 . S
C488 C489 1.502 . S
C488 C490 1.561 . S
C488 C491 1.526 . S
C489 H473 0.959 . S
C489 H474 0.959 . S
C489 H475 0.961 . S
C489 C488 1.502 . S
C490 H476 0.960 . S
C490 H477 0.961 . S
C490 H478 0.959 . S
C490 C488 1.561 . S
C491 C488 1.526 . S
C491 C492 1.396 . S
C491 C496 1.390 . S
C492 C486 1.465 . S
C492 C491 1.396 . S
C492 C493 1.399 . S
C493 H479 0.929 . S
C493 C492 1.399 . S
C493 C494 1.385 . S
C494 H480 0.931 . S
C494 C493 1.385 . S
C494 C495 1.389 . S
C495 C494 1.389 . S
C495 C496 1.387 . S
C496 H481 0.930 . S
C496 C491 1.390 . S
C496 C495 1.387 . S
H497 C509 0.930 . S
H498 C511 0.930 . S
H499 C512 0.930 . S
H500 C516 0.959 . S
H501 C516 0.959 . S
H502 C516 0.961 . S
H503 C517 0.960 . S
H504 C517 0.961 . S
H505 C517 0.959 . S
H506 C520 0.929 . S
H507 C521 0.931 . S
H508 C523 0.930 . S
C509 H497 0.930 . S
C509 C510 1.399 . S
C509 C514 1.399 . S
C510 C509 1.399 . S
C510 C511 1.376 . S
C511 H498 0.930 . S
C511 C510 1.376 . S
C511 C512 1.388 . S
C512 H499 0.930 . S
C512 C511 1.388 . S
C512 C513 1.390 . S
C513 C512 1.390 . S
C513 C514 1.394 . S
C513 C519 1.465 . S
C514 C509 1.399 . S
C514 C513 1.394 . S
C514 C515 1.516 . S
C515 C514 1.516 . S
C515 C516 1.502 . S
C515 C517 1.561 . S
C515 C518 1.526 . S
C516 H500 0.959 . S
C516 H501 0.959 . S
C516 H502 0.961 . S
C516 C515 1.502 . S
C517 H503 0.960 . S
C517 H504 0.961 . S
C517 H505 0.959 . S
C517 C515 1.561 . S
C518 C515 1.526 . S
C518 C519 1.396 . S
C518 C523 1.390 . S
C519 C513 1.465 . S
C519 C518 1.396 . S
C519 C520 1.399 . S
C520 H506 0.929 . S
C520 C519 1.399 . S
C520 C521 1.385 . S
C521 H507 0.931 . S
C521 C520 1.385 . S
C521 C522 1.389 . S
C522 C521 1.389 . S
C522 C523 1.387 . S
C523 H508 0.930 . S
C523 C518 1.390 . S
C523 C522 1.387 . S
H524 C536 0.930 . S
H525 C538 0.930 . S
H526 C539 0.930 . S
H527 C543 0.933 1_655 S
H528 C543 0.986 . S
H529 C543 0.948 1_655 S
H530 C544 0.960 . S
H531 C544 0.961 . S
H532 C544 0.959 . S
H533 C547 0.929 . S
H534 C548 0.931 . S
H535 C550 0.930 . S
C536 H524 0.930 . S
C536 C537 1.399 . S
C536 C541 1.399 . S
C537 C536 1.399 . S
C537 C538 1.376 . S
C538 H525 0.930 . S
C538 C537 1.376 . S
C538 C539 1.388 . S
C539 H526 0.930 . S
C539 C538 1.388 . S
C539 C540 1.390 . S
C540 C539 1.390 . S
C540 C541 1.394 . S
C540 C546 1.465 1_655 S
C541 C536 1.399 . S
C541 C540 1.394 . S
C541 C542 1.516 1_655 S
C542 C541 1.516 1_455 S
C542 C543 1.515 . S
C542 C544 1.561 . S
C542 C545 1.526 . S
C543 H527 0.933 1_455 S
C543 H528 0.986 . S
C543 H529 0.948 1_455 S
C543 C542 1.515 . S
C544 H530 0.960 . S
C544 H531 0.961 . S
C544 H532 0.959 . S
C544 C542 1.561 . S
C545 C542 1.526 . S
C545 C546 1.396 . S
C545 C550 1.390 . S
C546 C540 1.465 1_455 S
C546 C545 1.396 . S
C546 C547 1.399 . S
C547 H533 0.929 . S
C547 C546 1.399 . S
C547 C548 1.385 . S
C548 H534 0.931 . S
C548 C547 1.385 . S
C548 C549 1.389 . S
C549 C548 1.389 . S
C549 C550 1.387 . S
C550 H535 0.930 . S
C550 C545 1.390 . S
C550 C549 1.387 . S
H551 C563 0.930 . S
H552 C565 0.930 . S
H553 C566 0.930 . S
H554 C570 0.959 . S
H555 C570 0.959 . S
H556 C570 0.961 . S
H557 C571 0.960 . S
H558 C571 0.961 . S
H559 C571 0.959 . S
H560 C574 0.929 . S
H561 C575 0.931 . S
H562 C577 0.930 . S
C563 H551 0.930 . S
C563 C564 1.399 . S
C563 C568 1.399 . S
C564 C563 1.399 . S
C564 C565 1.376 . S
C565 H552 0.930 . S
C565 C564 1.376 . S
C565 C566 1.388 . S
C566 H553 0.930 . S
C566 C565 1.388 . S
C566 C567 1.390 . S
C567 C566 1.390 . S
C567 C568 1.394 . S
C567 C573 1.465 . S
C568 C563 1.399 . S
C568 C567 1.394 . S
C568 C569 1.516 . S
C569 C568 1.516 . S
C569 C570 1.502 . S
C569 C571 1.561 . S
C569 C572 1.526 . S
C570 H554 0.959 . S
C570 H555 0.959 . S
C570 H556 0.961 . S
C570 C569 1.502 . S
C571 H557 0.960 . S
C571 H558 0.961 . S
C571 H559 0.959 . S
C571 C569 1.561 . S
C572 C569 1.526 . S
C572 C573 1.396 . S
C572 C577 1.390 . S
C573 C567 1.465 . S
C573 C572 1.396 . S
C573 C574 1.399 . S
C574 H560 0.929 . S
C574 C573 1.399 . S
C574 C575 1.385 . S
C575 H561 0.931 . S
C575 C574 1.385 . S
C575 C576 1.389 . S
C576 C575 1.389 . S
C576 C577 1.387 . S
C577 H562 0.930 . S
C577 C572 1.390 . S
C577 C576 1.387 . S
H578 C590 0.930 . S
H579 C592 0.930 . S
H580 C593 0.930 . S
H581 C597 0.933 1_556 S
H582 C597 0.959 . S
H583 C597 0.961 . S
H584 C598 0.960 . S
H585 C598 0.961 . S
H586 C598 0.959 . S
H587 C601 0.929 . S
H588 C602 0.931 . S
H589 C604 0.930 . S
C590 H578 0.930 . S
C590 C591 1.399 . S
C590 C595 1.399 . S
C591 C590 1.399 . S
C591 C592 1.376 . S
C592 H579 0.930 . S
C592 C591 1.376 . S
C592 C593 1.388 . S
C593 H580 0.930 . S
C593 C592 1.388 . S
C593 C594 1.390 . S
C594 C593 1.390 . S
C594 C595 1.394 . S
C594 C600 1.451 1_556 S
C595 C590 1.399 . S
C595 C594 1.394 . S
C595 C596 1.516 1_556 S
C596 C595 1.516 1_554 S
C596 C597 1.502 . S
C596 C598 1.561 . S
C596 C599 1.526 . S
C597 H581 0.933 1_554 S
C597 H582 0.959 . S
C597 H583 0.961 . S
C597 C596 1.502 . S
C598 H584 0.960 . S
C598 H585 0.961 . S
C598 H586 0.959 . S
C598 C596 1.561 . S
C599 C596 1.526 . S
C599 C600 1.419 . S
C599 C604 1.390 . S
C600 C594 1.451 1_554 S
C600 C599 1.419 . S
C600 C601 1.395 1_554 S
C601 H587 0.929 . S
C601 C600 1.395 1_556 S
C601 C602 1.385 1_556 S
C602 H588 0.931 . S
C602 C601 1.385 1_554 S
C602 C603 1.389 . S
C603 C602 1.389 . S
C603 C604 1.387 . S
C604 H589 0.930 . S
C604 C599 1.390 . S
C604 C603 1.387 . S
H605 C617 0.930 . S
H606 C619 0.930 . S
H607 C620 0.930 . S
H608 C624 0.959 . S
H609 C624 0.959 . S
H610 C624 0.961 . S
H611 C625 0.960 . S
H612 C625 0.961 . S
H613 C625 0.959 . S
H614 C628 0.929 . S
H615 C629 0.931 . S
H616 C631 0.930 . S
C617 H605 0.930 . S
C617 C618 1.399 . S
C617 C622 1.399 . S
C618 C617 1.399 . S
C618 C619 1.376 . S
C619 H606 0.930 . S
C619 C618 1.376 . S
C619 C620 1.388 . S
C620 H607 0.930 . S
C620 C619 1.388 . S
C620 C621 1.390 . S
C621 C620 1.390 . S
C621 C622 1.394 . S
C621 C627 1.465 . S
C622 C617 1.399 . S
C622 C621 1.394 . S
C622 C623 1.516 . S
C623 C622 1.516 . S
C623 C624 1.502 . S
C623 C625 1.561 . S
C623 C626 1.526 . S
C624 H608 0.959 . S
C624 H609 0.959 . S
C624 H610 0.961 . S
C624 C623 1.502 . S
C625 H611 0.960 . S
C625 H612 0.961 . S
C625 H613 0.959 . S
C625 C623 1.561 . S
C626 C623 1.526 . S
C626 C627 1.396 . S
C626 C631 1.390 . S
C627 C621 1.465 . S
C627 C626 1.396 . S
C627 C628 1.399 . S
C628 H614 0.929 . S
C628 C627 1.399 . S
C628 C629 1.385 . S
C629 H615 0.931 . S
C629 C628 1.385 . S
C629 C630 1.389 . S
C630 C629 1.389 . S
C630 C631 1.387 . S
C631 H616 0.930 . S
C631 C626 1.390 . S
C631 C630 1.387 . S
H632 C644 0.930 . S
H633 C646 0.930 . S
H634 C647 0.930 . S
H635 C651 0.959 . S
H636 C651 0.959 . S
H637 C651 0.961 . S
H638 C652 0.960 . S
H639 C652 0.961 . S
H640 C652 0.959 . S
H641 C655 0.929 . S
H642 C656 0.931 . S
H643 C658 0.930 . S
C644 H632 0.930 . S
C644 C645 1.399 . S
C644 C649 1.399 . S
C645 C644 1.399 . S
C645 C646 1.376 . S
C646 H633 0.930 . S
C646 C645 1.376 . S
C646 C647 1.388 . S
C647 H634 0.930 . S
C647 C646 1.388 . S
C647 C648 1.390 . S
C648 C647 1.390 . S
C648 C649 1.394 . S
C648 C654 1.465 . S
C649 C644 1.399 . S
C649 C648 1.394 . S
C649 C650 1.516 . S
C650 C649 1.516 . S
C650 C651 1.502 . S
C650 C652 1.561 . S
C650 C653 1.526 . S
C651 H635 0.959 . S
C651 H636 0.959 . S
C651 H637 0.961 . S
C651 C650 1.502 . S
C652 H638 0.960 . S
C652 H639 0.961 . S
C652 H640 0.959 . S
C652 C650 1.561 . S
C653 C650 1.526 . S
C653 C654 1.396 . S
C653 C658 1.390 . S
C654 C648 1.465 . S
C654 C653 1.396 . S
C654 C655 1.399 . S
C655 H641 0.929 . S
C655 C654 1.399 . S
C655 C656 1.385 . S
C656 H642 0.931 . S
C656 C655 1.385 . S
C656 C657 1.389 . S
C657 C656 1.389 . S
C657 C658 1.387 . S
C658 H643 0.930 . S
C658 C653 1.390 . S
C658 C657 1.387 . S
H659 C671 0.930 . S
H660 C673 0.930 . S
H661 C674 0.930 . S
H662 C678 0.959 . S
H663 C678 0.959 . S
H664 C678 0.961 . S
H665 C679 0.960 . S
H666 C679 0.961 . S
H667 C679 0.959 . S
H668 C682 0.929 . S
H669 C683 0.931 . S
H670 C685 0.930 . S
C671 H659 0.930 . S
C671 C672 1.399 . S
C671 C676 1.399 . S
C672 C671 1.399 . S
C672 C673 1.376 . S
C673 H660 0.930 . S
C673 C672 1.376 . S
C673 C674 1.388 . S
C674 H661 0.930 . S
C674 C673 1.388 . S
C674 C675 1.390 . S
C675 C674 1.390 . S
C675 C676 1.394 . S
C675 C681 1.465 . S
C676 C671 1.399 . S
C676 C675 1.394 . S
C676 C677 1.516 . S
C677 C676 1.516 . S
C677 C678 1.502 . S
C677 C679 1.561 . S
C677 C680 1.526 . S
C678 H662 0.959 . S
C678 H663 0.959 . S
C678 H664 0.961 . S
C678 C677 1.502 . S
C679 H665 0.960 . S
C679 H666 0.961 . S
C679 H667 0.959 . S
C679 C677 1.561 . S
C680 C677 1.526 . S
C680 C681 1.396 . S
C680 C685 1.390 . S
C681 C675 1.465 . S
C681 C680 1.396 . S
C681 C682 1.399 . S
C682 H668 0.929 . S
C682 C681 1.399 . S
C682 C683 1.385 . S
C683 H669 0.931 . S
C683 C682 1.385 . S
C683 C684 1.389 . S
C684 C683 1.389 . S
C684 C685 1.387 . S
C685 H670 0.930 . S
C685 C680 1.390 . S
C685 C684 1.387 . S
H686 C698 0.930 . S
H687 C700 0.930 . S
H688 C701 0.930 . S
H689 C705 0.959 . S
H690 C705 0.959 . S
H691 C705 0.961 . S
H692 C706 0.960 . S
H693 C706 0.961 . S
H694 C706 0.959 . S
H695 C709 0.929 . S
H696 C710 0.931 . S
H697 C712 0.930 . S
C698 H686 0.930 . S
C698 C699 1.399 . S
C698 C703 1.399 . S
C699 C698 1.399 . S
C699 C700 1.376 . S
C700 H687 0.930 . S
C700 C699 1.376 . S
C700 C701 1.388 . S
C701 H688 0.930 . S
C701 C700 1.388 . S
C701 C702 1.390 . S
C702 C701 1.390 . S
C702 C703 1.394 . S
C702 C708 1.465 . S
C703 C698 1.399 . S
C703 C702 1.394 . S
C703 C704 1.516 . S
C704 C703 1.516 . S
C704 C705 1.502 . S
C704 C706 1.561 . S
C704 C707 1.526 . S
C705 H689 0.959 . S
C705 H690 0.959 . S
C705 H691 0.961 . S
C705 C704 1.502 . S
C706 H692 0.960 . S
C706 H693 0.961 . S
C706 H694 0.959 . S
C706 C704 1.561 . S
C707 C704 1.526 . S
C707 C708 1.396 . S
C707 C712 1.390 . S
C708 C702 1.465 . S
C708 C707 1.396 . S
C708 C709 1.399 . S
C709 H695 0.929 . S
C709 C708 1.399 . S
C709 C710 1.385 . S
C710 H696 0.931 . S
C710 C709 1.385 . S
C710 C711 1.389 . S
C711 C710 1.389 . S
C711 C712 1.387 . S
C712 H697 0.930 . S
C712 C707 1.390 . S
C712 C711 1.387 . S
H713 C725 0.930 . S
H714 C727 0.930 . S
H715 C728 0.930 . S
H716 C732 0.959 . S
H717 C732 0.959 . S
H718 C732 0.961 . S
H719 C733 0.960 . S
H720 C733 0.961 . S
H721 C733 0.959 . S
H722 C736 0.929 . S
H723 C737 0.931 . S
H724 C739 0.930 . S
C725 H713 0.930 . S
C725 C726 1.399 . S
C725 C730 1.399 . S
C726 C725 1.399 . S
C726 C727 1.376 . S
C727 H714 0.930 . S
C727 C726 1.376 . S
C727 C728 1.388 . S
C728 H715 0.930 . S
C728 C727 1.388 . S
C728 C729 1.390 . S
C729 C728 1.390 . S
C729 C730 1.394 . S
C729 C735 1.465 . S
C730 C725 1.399 . S
C730 C729 1.394 . S
C730 C731 1.516 . S
C731 C730 1.516 . S
C731 C732 1.502 . S
C731 C733 1.561 . S
C731 C734 1.526 . S
C732 H716 0.959 . S
C732 H717 0.959 . S
C732 H718 0.961 . S
C732 C731 1.502 . S
C733 H719 0.960 . S
C733 H720 0.961 . S
C733 H721 0.959 . S
C733 C731 1.561 . S
C734 C731 1.526 . S
C734 C735 1.396 . S
C734 C739 1.390 . S
C735 C729 1.465 . S
C735 C734 1.396 . S
C735 C736 1.399 . S
C736 H722 0.929 . S
C736 C735 1.399 . S
C736 C737 1.385 . S
C737 H723 0.931 . S
C737 C736 1.385 . S
C737 C738 1.389 . S
C738 C737 1.389 . S
C738 C739 1.387 . S
C739 H724 0.930 . S
C739 C734 1.390 . S
C739 C738 1.387 . S
H740 C752 0.930 . S
H741 C754 0.930 . S
H742 C755 0.930 . S
H743 C759 0.959 1_545 S
H744 C759 0.959 1_545 S
H745 C759 0.961 . S
H746 C760 0.960 . S
H747 C760 0.961 . S
H748 C760 0.959 . S
H749 C763 0.929 . S
H750 C764 0.931 . S
H751 C766 0.930 . S
C752 H740 0.930 . S
C752 C753 1.399 . S
C752 C757 1.399 . S
C753 C752 1.399 . S
C753 C754 1.376 . S
C754 H741 0.930 . S
C754 C753 1.376 . S
C754 C755 1.388 . S
C755 H742 0.930 . S
C755 C754 1.388 . S
C755 C756 1.390 . S
C756 C755 1.390 . S
C756 C757 1.394 . S
C756 C762 1.465 1_565 S
C757 C752 1.399 . S
C757 C756 1.394 . S
C757 C758 1.516 . S
C758 C757 1.516 . S
C758 C759 1.502 . S
C758 C760 1.561 . S
C758 C761 1.526 1_565 S
C759 H743 0.959 1_565 S
C759 H744 0.959 1_565 S
C759 H745 0.961 . S
C759 C758 1.502 . S
C760 H746 0.960 . S
C760 H747 0.961 . S
C760 H748 0.959 . S
C760 C758 1.561 . S
C761 C758 1.526 1_545 S
C761 C762 1.396 . S
C761 C766 1.390 . S
C762 C756 1.465 1_545 S
C762 C761 1.396 . S
C762 C763 1.399 . S
C763 H749 0.929 . S
C763 C762 1.399 . S
C763 C764 1.385 . S
C764 H750 0.931 . S
C764 C763 1.385 . S
C764 C765 1.389 . S
C765 C764 1.389 . S
C765 C766 1.387 . S
C766 H751 0.930 . S
C766 C761 1.390 . S
C766 C765 1.387 . S
H767 C779 0.930 . S
H768 C781 0.930 . S
H769 C782 0.930 . S
H770 C786 0.959 1_565 S
H771 C786 0.959 . S
H772 C786 0.961 . S
H773 C787 0.960 . S
H774 C787 0.961 1_554 S
H775 C787 0.959 . S
H776 C790 0.929 1_565 S
H777 C791 0.931 . S
H778 C793 0.930 . S
C779 H767 0.930 . S
C779 C780 1.399 . S
C779 C784 1.399 . S
C780 C779 1.399 . S
C780 C781 1.376 . S
C781 H768 0.930 . S
C781 C780 1.376 . S
C781 C782 1.388 1_455 S
C782 H769 0.930 . S
C782 C781 1.388 1_655 S
C782 C783 1.390 . S
C783 C782 1.390 . S
C783 C784 1.394 1_655 S
C783 C789 1.465 1_565 S
C784 C779 1.399 . S
C784 C783 1.394 1_455 S
C784 C785 1.516 1_566 S
C785 C784 1.516 1_544 S
C785 C786 1.502 . S
C785 C787 1.561 1_554 S
C785 C788 1.526 1_455 S
C786 H770 0.959 1_545 S
C786 H771 0.959 . S
C786 H772 0.961 . S
C786 C785 1.502 . S
C787 H773 0.960 . S
C787 H774 0.961 1_556 S
C787 H775 0.959 . S
C787 C785 1.561 1_556 S
C788 C785 1.526 1_655 S
C788 C789 1.396 1_554 S
C788 C793 1.390 . S
C789 C783 1.465 1_545 S
C789 C788 1.396 1_556 S
C789 C790 1.399 . S
C790 H776 0.929 1_545 S
C790 C789 1.399 . S
C790 C791 1.385 1_556 S
C791 H777 0.931 . S
C791 C790 1.385 1_554 S
C791 C792 1.389 . S
C792 C791 1.389 . S
C792 C793 1.387 . S
C793 H778 0.930 . S
C793 C788 1.390 . S
C793 C792 1.387 . S
H794 C806 0.930 1_554 S
H795 C808 0.930 . S
H796 C809 0.930 . S
H797 C813 0.959 . S
H798 C813 0.959 . S
H799 C813 0.961 1_545 S
H800 C814 0.960 . S
H801 C814 0.961 . S
H802 C814 0.959 . S
H803 C817 0.929 . S
H804 C818 0.921 1_556 S
H805 C820 0.930 . S
C806 H794 0.930 1_556 S
C806 C807 1.399 . S
C806 C811 1.383 1_556 S
C807 C806 1.399 . S
C807 C808 1.376 . S
C808 H795 0.930 . S
C808 C807 1.376 . S
C808 C809 1.388 . S
C809 H796 0.930 . S
C809 C808 1.388 . S
C809 C810 1.390 . S
C810 C809 1.390 . S
C810 C811 1.347 1_556 S
C810 C816 1.465 1_545 S
C811 C806 1.383 1_554 S
C811 C810 1.347 1_554 S
C811 C812 1.578 . S
C812 C811 1.578 . S
C812 C813 1.502 1_545 S
C812 C814 1.561 . S
C812 C815 1.526 1_545 S
C813 H797 0.959 . S
C813 H798 0.959 . S
C813 H799 0.961 1_565 S
C813 C812 1.502 1_565 S
C814 H800 0.960 . S
C814 H801 0.961 . S
C814 H802 0.959 . S
C814 C812 1.561 . S
C815 C812 1.526 1_565 S
C815 C816 1.396 1_554 S
C815 C820 1.390 . S
C816 C810 1.465 1_565 S
C816 C815 1.396 1_556 S
C816 C817 1.399 . S
C817 H803 0.929 . S
C817 C816 1.399 . S
C817 C818 1.368 1_556 S
C818 H804 0.921 1_554 S
C818 C817 1.368 1_554 S
C818 C819 1.417 . S
C819 C818 1.417 . S
C819 C820 1.387 . S
C820 H805 0.930 . S
C820 C815 1.390 . S
C820 C819 1.387 . S
H821 C833 0.930 . S
H822 C835 0.930 . S
H823 C836 0.930 . S
H824 C840 0.959 . S
H825 C840 0.959 . S
H826 C840 0.961 . S
H827 C841 0.960 . S
H828 C841 0.961 1_655 S
H829 C841 0.959 . S
H830 C844 0.929 1_455 S
H831 C845 0.931 . S
H832 C847 0.930 . S
C833 H821 0.930 . S
C833 C834 1.399 . S
C833 C838 1.399 . S
C834 C833 1.399 . S
C834 C835 1.376 . S
C835 H822 0.930 . S
C835 C834 1.376 . S
C835 C836 1.388 1_545 S
C836 H823 0.930 . S
C836 C835 1.388 1_565 S
C836 C837 1.395 . S
C837 C836 1.395 . S
C837 C838 1.359 1_565 S
C837 C843 1.490 1_455 S
C838 C833 1.399 . S
C838 C837 1.359 1_545 S
C838 C839 1.516 1_455 S
C839 C838 1.516 1_655 S
C839 C840 1.502 . S
C839 C841 1.561 1_655 S
C839 C842 1.526 1_545 S
C840 H824 0.959 . S
C840 H825 0.959 . S
C840 H826 0.961 . S
C840 C839 1.502 . S
C841 H827 0.960 . S
C841 H828 0.961 1_455 S
C841 H829 0.959 . S
C841 C839 1.561 1_455 S
C842 C839 1.526 1_565 S
C842 C843 1.396 . S
C842 C847 1.390 . S
C843 C837 1.490 1_655 S
C843 C842 1.396 . S
C843 C844 1.399 . S
C844 H830 0.929 1_655 S
C844 C843 1.399 . S
C844 C845 1.385 . S
C845 H831 0.931 . S
C845 C844 1.385 . S
C845 C846 1.389 . S
C846 C845 1.389 . S
C846 C847 1.387 . S
C847 H832 0.930 . S
C847 C842 1.390 . S
C847 C846 1.387 . S
H848 C860 0.930 . S
H849 C862 0.930 . S
H850 C863 0.930 . S
H851 C867 0.959 . S
H852 C867 0.959 . S
H853 C867 0.961 . S
H854 C868 0.960 1_556 S
H855 C868 0.961 1_556 S
H856 C868 0.959 1_556 S
H857 C871 0.929 . S
H858 C872 0.931 . S
H859 C874 0.930 . S
C860 H848 0.930 . S
C860 C861 1.399 . S
C860 C865 1.399 . S
C861 C860 1.399 . S
C861 C862 1.376 . S
C862 H849 0.930 . S
C862 C861 1.376 . S
C862 C863 1.388 . S
C863 H850 0.930 . S
C863 C862 1.388 . S
C863 C864 1.390 . S
C864 C863 1.390 . S
C864 C865 1.394 . S
C864 C870 1.465 . S
C865 C860 1.399 . S
C865 C864 1.394 . S
C865 C866 1.516 1_655 S
C866 C865 1.516 1_455 S
C866 C867 1.502 . S
C866 C868 1.561 . S
C866 C869 1.526 . S
C867 H851 0.959 . S
C867 H852 0.959 . S
C867 H853 0.961 . S
C867 C866 1.502 . S
C868 H854 0.960 1_554 S
C868 H855 0.961 1_554 S
C868 H856 0.959 1_554 S
C868 C866 1.561 . S
C869 C866 1.526 . S
C869 C870 1.396 1_455 S
C869 C874 1.390 . S
C870 C864 1.465 . S
C870 C869 1.396 1_655 S
C870 C871 1.399 . S
C871 H857 0.929 . S
C871 C870 1.399 . S
C871 C872 1.385 1_655 S
C872 H858 0.931 . S
C872 C871 1.385 1_455 S
C872 C873 1.389 . S
C873 C872 1.389 . S
C873 C874 1.387 . S
C874 H859 0.930 . S
C874 C869 1.390 . S
C874 C873 1.387 . S
H875 C887 0.930 . S
H876 C889 0.930 . S
H877 C890 0.930 . S
H878 C894 0.959 . S
H879 C894 0.959 1_655 S
H880 C894 0.961 . S
H881 C895 0.960 . S
H882 C895 0.961 . S
H883 C895 0.959 . S
H884 C898 0.929 . S
H885 C899 0.931 . S
H886 C901 0.930 . S
C887 H875 0.930 . S
C887 C888 1.399 . S
C887 C892 1.399 . S
C888 C887 1.399 . S
C888 C889 1.376 . S
C889 H876 0.930 . S
C889 C888 1.376 . S
C889 C890 1.388 . S
C890 H877 0.930 . S
C890 C889 1.388 . S
C890 C891 1.390 . S
C891 C890 1.390 . S
C891 C892 1.394 . S
C891 C897 1.465 1_455 S
C892 C887 1.399 . S
C892 C891 1.394 . S
C892 C893 1.516 1_455 S
C893 C892 1.516 1_655 S
C893 C894 1.502 1_655 S
C893 C895 1.561 . S
C893 C896 1.526 . S
C894 H878 0.959 . S
C894 H879 0.959 1_455 S
C894 H880 0.961 . S
C894 C893 1.502 1_455 S
C895 H881 0.960 . S
C895 H882 0.961 . S
C895 H883 0.959 . S
C895 C893 1.561 . S
C896 C893 1.526 . S
C896 C897 1.396 . S
C896 C901 1.390 . S
C897 C891 1.465 1_655 S
C897 C896 1.396 . S
C897 C898 1.399 . S
C898 H884 0.929 . S
C898 C897 1.399 . S
C898 C899 1.385 . S
C899 H885 0.931 . S
C899 C898 1.385 . S
C899 C900 1.389 . S
C900 C899 1.389 . S
C900 C901 1.387 . S
C901 H886 0.930 . S
C901 C896 1.390 . S
C901 C900 1.387 . S
H902 C914 0.930 . S
H903 C916 0.930 . S
H904 C917 0.930 . S
H905 C921 0.959 . S
H906 C921 0.959 . S
H907 C921 0.961 . S
H908 C922 0.960 . S
H909 C922 0.961 . S
H910 C922 0.959 . S
H911 C925 0.929 . S
H912 C926 0.931 . S
H913 C928 0.930 . S
C914 H902 0.930 . S
C914 C915 1.399 . S
C914 C919 1.399 . S
C915 C914 1.399 . S
C915 C916 1.376 . S
C916 H903 0.930 . S
C916 C915 1.376 . S
C916 C917 1.388 . S
C917 H904 0.930 . S
C917 C916 1.388 . S
C917 C918 1.390 . S
C918 C917 1.390 . S
C918 C919 1.394 . S
C918 C924 1.465 . S
C919 C914 1.399 . S
C919 C918 1.394 . S
C919 C920 1.516 . S
C920 C919 1.516 . S
C920 C921 1.502 . S
C920 C922 1.561 . S
C920 C923 1.526 . S
C921 H905 0.959 . S
C921 H906 0.959 . S
C921 H907 0.961 . S
C921 C920 1.502 . S
C922 H908 0.960 . S
C922 H909 0.961 . S
C922 H910 0.959 . S
C922 C920 1.561 . S
C923 C920 1.526 . S
C923 C924 1.396 . S
C923 C928 1.390 . S
C924 C918 1.465 . S
C924 C923 1.396 . S
C924 C925 1.399 . S
C925 H911 0.929 . S
C925 C924 1.399 . S
C925 C926 1.385 . S
C926 H912 0.931 . S
C926 C925 1.385 . S
C926 C927 1.389 . S
C927 C926 1.389 . S
C927 C928 1.387 . S
C928 H913 0.930 . S
C928 C923 1.390 . S
C928 C927 1.387 . S
H929 C941 0.930 . S
H930 C943 0.930 . S
H931 C944 0.930 . S
H932 C948 0.959 . S
H933 C948 0.959 . S
H934 C948 0.961 . S
H935 C949 0.960 . S
H936 C949 0.961 . S
H937 C949 0.959 . S
H938 C952 0.929 . S
H939 C953 0.931 . S
H940 C955 0.930 . S
C941 H929 0.930 . S
C941 C942 1.399 . S
C941 C946 1.399 . S
C942 C941 1.399 . S
C942 C943 1.376 . S
C943 H930 0.930 . S
C943 C942 1.376 . S
C943 C944 1.388 . S
C944 H931 0.930 . S
C944 C943 1.388 . S
C944 C945 1.390 . S
C945 C944 1.390 . S
C945 C946 1.394 . S
C945 C951 1.465 . S
C946 C941 1.399 . S
C946 C945 1.394 . S
C946 C947 1.516 . S
C947 C946 1.516 . S
C947 C948 1.502 . S
C947 C949 1.561 . S
C947 C950 1.526 . S
C948 H932 0.959 . S
C948 H933 0.959 . S
C948 H934 0.961 . S
C948 C947 1.502 . S
C949 H935 0.960 . S
C949 H936 0.961 . S
C949 H937 0.959 . S
C949 C947 1.561 . S
C950 C947 1.526 . S
C950 C951 1.396 . S
C950 C955 1.390 . S
C951 C945 1.465 . S
C951 C950 1.396 . S
C951 C952 1.399 . S
C952 H938 0.929 . S
C952 C951 1.399 . S
C952 C953 1.385 . S
C953 H939 0.931 . S
C953 C952 1.385 . S
C953 C954 1.389 . S
C954 C953 1.389 . S
C954 C955 1.387 . S
C955 H940 0.930 . S
C955 C950 1.390 . S
C955 C954 1.387 . S
H956 C968 0.930 . S
H957 C970 0.930 . S
H958 C971 0.930 . S
H959 C975 0.959 . S
H960 C975 0.959 . S
H961 C975 0.961 . S
H962 C976 0.960 . S
H963 C976 0.961 . S
H964 C976 0.959 . S
H965 C979 0.929 . S
H966 C980 0.931 . S
H967 C982 0.930 . S
C968 H956 0.930 . S
C968 C969 1.399 . S
C968 C973 1.399 . S
C969 C968 1.399 . S
C969 C970 1.376 . S
C970 H957 0.930 . S
C970 C969 1.376 . S
C970 C971 1.388 1_655 S
C971 H958 0.930 . S
C971 C970 1.388 1_455 S
C971 C972 1.390 . S
C972 C971 1.390 . S
C972 C973 1.394 1_455 S
C972 C978 1.465 . S
C973 C968 1.399 . S
C973 C972 1.394 1_655 S
C973 C974 1.516 . S
C974 C973 1.516 . S
C974 C975 1.502 . S
C974 C976 1.561 . S
C974 C977 1.526 1_655 S
C975 H959 0.959 . S
C975 H960 0.959 . S
C975 H961 0.961 . S
C975 C974 1.502 . S
C976 H962 0.960 . S
C976 H963 0.961 . S
C976 H964 0.959 . S
C976 C974 1.561 . S
C977 C974 1.526 1_455 S
C977 C978 1.396 . S
C977 C982 1.390 . S
C978 C972 1.465 . S
C978 C977 1.396 . S
C978 C979 1.399 . S
C979 H965 0.929 . S
C979 C978 1.399 . S
C979 C980 1.385 . S
C980 H966 0.931 . S
C980 C979 1.385 . S
C980 C981 1.389 . S
C981 C980 1.389 . S
C981 C982 1.387 . S
C982 H967 0.930 . S
C982 C977 1.390 . S
C982 C981 1.387 . S
H983 C995 0.930 . S
H984 C997 0.930 . S
H985 C998 0.930 . S
H986 C1002 0.959 . S
H987 C1002 0.959 . S
H988 C1002 0.961 . S
H989 C1003 0.960 . S
H990 C1003 0.961 . S
H991 C1003 0.959 . S
H992 C1006 0.929 . S
H993 C1007 0.931 . S
H994 C1009 0.930 . S
C995 H983 0.930 . S
C995 C996 1.399 . S
C995 C1000 1.399 . S
C996 C995 1.399 . S
C996 C997 1.376 . S
C997 H984 0.930 . S
C997 C996 1.376 . S
C997 C998 1.388 . S
C998 H985 0.930 . S
C998 C997 1.388 . S
C998 C999 1.390 . S
C999 C998 1.390 . S
C999 C1000 1.394 . S
C999 C1005 1.465 . S
C1000 C995 1.399 . S
C1000 C999 1.394 . S
C1000 C1001 1.516 . S
C1001 C1000 1.516 . S
C1001 C1002 1.502 . S
C1001 C1003 1.561 . S
C1001 C1004 1.526 . S
C1002 H986 0.959 . S
C1002 H987 0.959 . S
C1002 H988 0.961 . S
C1002 C1001 1.502 . S
C1003 H989 0.960 . S
C1003 H990 0.961 . S
C1003 H991 0.959 . S
C1003 C1001 1.561 . S
C1004 C1001 1.526 . S
C1004 C1005 1.396 . S
C1004 C1009 1.390 . S
C1005 C999 1.465 . S
C1005 C1004 1.396 . S
C1005 C1006 1.399 . S
C1006 H992 0.929 . S
C1006 C1005 1.399 . S
C1006 C1007 1.385 . S
C1007 H993 0.931 . S
C1007 C1006 1.385 . S
C1007 C1008 1.389 . S
C1008 C1007 1.389 . S
C1008 C1009 1.387 . S
C1009 H994 0.930 . S
C1009 C1004 1.390 . S
C1009 C1008 1.387 . S
H1010 C1022 0.930 . S
H1011 C1024 0.930 . S
H1012 C1025 0.930 . S
H1013 C1029 0.959 . S
H1014 C1029 0.959 . S
H1015 C1029 0.961 . S
H1016 C1030 0.960 . S
H1017 C1030 0.961 . S
H1018 C1030 0.959 . S
H1019 C1033 0.994 . S
H1020 C1034 0.931 . S
H1021 C1036 0.930 . S
C1022 H1010 0.930 . S
C1022 C1023 1.399 . S
C1022 C1027 1.399 . S
C1023 C1022 1.399 . S
C1023 C1024 1.376 . S
C1024 H1011 0.930 . S
C1024 C1023 1.376 . S
C1024 C1025 1.388 . S
C1025 H1012 0.930 . S
C1025 C1024 1.388 . S
C1025 C1026 1.390 . S
C1026 C1025 1.390 . S
C1026 C1027 1.394 . S
C1026 C1032 1.465 . S
C1027 C1022 1.399 . S
C1027 C1026 1.394 . S
C1027 C1028 1.516 . S
C1028 C1027 1.516 . S
C1028 C1029 1.502 . S
C1028 C1030 1.561 . S
C1028 C1031 1.526 . S
C1029 H1013 0.959 . S
C1029 H1014 0.959 . S
C1029 H1015 0.961 . S
C1029 C1028 1.502 . S
C1030 H1016 0.960 . S
C1030 H1017 0.961 . S
C1030 H1018 0.959 . S
C1030 C1028 1.561 . S
C1031 C1028 1.526 . S
C1031 C1032 1.396 . S
C1031 C1036 1.390 . S
C1032 C1026 1.465 . S
C1032 C1031 1.396 . S
C1032 C1033 1.399 . S
C1033 H1019 0.994 . S
C1033 C1032 1.399 . S
C1033 C1034 1.385 . S
C1034 H1020 0.931 . S
C1034 C1033 1.385 . S
C1034 C1035 1.389 . S
C1035 C1034 1.389 . S
C1035 C1036 1.387 . S
C1036 H1021 0.930 . S
C1036 C1031 1.390 . S
C1036 C1035 1.387 . S
H1037 C1049 0.930 . S
H1038 C1051 0.930 . S
H1039 C1052 0.930 . S
H1040 C1056 0.959 . S
H1041 C1056 0.959 . S
H1042 C1056 0.961 . S
H1043 C1057 0.960 1_455 S
H1044 C1057 0.961 . S
H1045 C1057 0.959 . S
H1046 C1060 0.929 . S
H1047 C1061 0.931 . S
H1048 C1063 0.930 . S
C1049 H1037 0.930 . S
C1049 C1050 1.399 . S
C1049 C1054 1.399 . S
C1050 C1049 1.399 . S
C1050 C1051 1.376 . S
C1051 H1038 0.930 . S
C1051 C1050 1.376 . S
C1051 C1052 1.388 . S
C1052 H1039 0.930 . S
C1052 C1051 1.388 . S
C1052 C1053 1.390 . S
C1053 C1052 1.390 . S
C1053 C1054 1.394 . S
C1053 C1059 1.465 1_455 S
C1054 C1049 1.399 . S
C1054 C1053 1.394 . S
C1054 C1055 1.516 . S
C1055 C1054 1.516 . S
C1055 C1056 1.502 . S
C1055 C1057 1.561 1_455 S
C1055 C1058 1.526 1_455 S
C1056 H1040 0.959 . S
C1056 H1041 0.959 . S
C1056 H1042 0.961 . S
C1056 C1055 1.502 . S
C1057 H1043 0.960 1_655 S
C1057 H1044 0.961 . S
C1057 H1045 0.959 . S
C1057 C1055 1.561 1_655 S
C1058 C1055 1.526 1_655 S
C1058 C1059 1.396 . S
C1058 C1063 1.390 . S
C1059 C1053 1.465 1_655 S
C1059 C1058 1.396 . S
C1059 C1060 1.399 . S
C1060 H1046 0.929 . S
C1060 C1059 1.399 . S
C1060 C1061 1.385 . S
C1061 H1047 0.931 . S
C1061 C1060 1.385 . S
C1061 C1062 1.389 . S
C1062 C1061 1.389 . S
C1062 C1063 1.387 . S
C1063 H1048 0.930 . S
C1063 C1058 1.390 . S
C1063 C1062 1.387 . S
H1064 C1076 0.930 . S
H1065 C1078 0.930 . S
H1066 C1079 0.930 . S
H1067 C1083 0.980 . S
H1068 C1083 0.935 1_554 S
H1069 C1083 0.941 1_554 S
H1070 C1084 0.960 1_554 S
H1071 C1084 0.961 1_554 S
H1072 C1084 0.959 . S
H1073 C1087 0.929 . S
H1074 C1088 0.931 . S
H1075 C1090 0.930 . S
C1076 H1064 0.930 . S
C1076 C1077 1.399 . S
C1076 C1081 1.399 . S
C1077 C1076 1.399 . S
C1077 C1078 1.376 . S
C1078 H1065 0.930 . S
C1078 C1077 1.376 . S
C1078 C1079 1.388 . S
C1079 H1066 0.930 . S
C1079 C1078 1.388 . S
C1079 C1080 1.390 . S
C1080 C1079 1.390 . S
C1080 C1081 1.394 . S
C1080 C1086 1.465 1_655 S
C1081 C1076 1.399 . S
C1081 C1080 1.394 . S
C1081 C1082 1.516 1_655 S
C1082 C1081 1.516 1_455 S
C1082 C1083 1.529 1_455 S
C1082 C1084 1.561 . S
C1082 C1085 1.526 . S
C1083 H1067 0.980 . S
C1083 H1068 0.935 1_556 S
C1083 H1069 0.941 1_556 S
C1083 C1082 1.529 1_655 S
C1084 H1070 0.960 1_556 S
C1084 H1071 0.961 1_556 S
C1084 H1072 0.959 . S
C1084 C1082 1.561 . S
C1085 C1082 1.526 . S
C1085 C1086 1.396 . S
C1085 C1090 1.390 . S
C1086 C1080 1.465 1_455 S
C1086 C1085 1.396 . S
C1086 C1087 1.399 . S
C1087 H1073 0.929 . S
C1087 C1086 1.399 . S
C1087 C1088 1.385 . S
C1088 H1074 0.931 . S
C1088 C1087 1.385 . S
C1088 C1089 1.389 . S
C1089 C1088 1.389 . S
C1089 C1090 1.387 . S
C1090 H1075 0.930 . S
C1090 C1085 1.390 . S
C1090 C1089 1.387 . S
H1091 C1103 0.930 . S
H1092 C1105 0.930 . S
H1093 C1106 0.930 . S
H1094 C1110 0.974 . S
H1095 C1110 0.937 1_455 S
H1096 C1110 0.977 . S
H1097 C1111 0.960 . S
H1098 C1111 0.961 . S
H1099 C1111 0.959 . S
H1100 C1114 0.929 . S
H1101 C1115 0.931 . S
H1102 C1117 0.930 . S
C1103 H1091 0.930 . S
C1103 C1104 1.399 . S
C1103 C1108 1.399 . S
C1104 C1103 1.399 . S
C1104 C1105 1.376 . S
C1105 H1092 0.930 . S
C1105 C1104 1.376 . S
C1105 C1106 1.388 . S
C1106 H1093 0.930 . S
C1106 C1105 1.388 . S
C1106 C1107 1.390 . S
C1107 C1106 1.390 . S
C1107 C1108 1.394 . S
C1107 C1113 1.465 1_655 S
C1108 C1103 1.399 . S
C1108 C1107 1.394 . S
C1108 C1109 1.516 1_655 S
C1109 C1108 1.516 1_455 S
C1109 C1110 1.494 1_455 S
C1109 C1111 1.561 . S
C1109 C1112 1.526 . S
C1110 H1094 0.974 . S
C1110 H1095 0.937 1_655 S
C1110 H1096 0.977 . S
C1110 C1109 1.494 1_655 S
C1111 H1097 0.960 . S
C1111 H1098 0.961 . S
C1111 H1099 0.959 . S
C1111 C1109 1.561 . S
C1112 C1109 1.526 . S
C1112 C1113 1.396 . S
C1112 C1117 1.390 . S
C1113 C1107 1.465 1_455 S
C1113 C1112 1.396 . S
C1113 C1114 1.399 . S
C1114 H1100 0.929 . S
C1114 C1113 1.399 . S
C1114 C1115 1.385 . S
C1115 H1101 0.931 . S
C1115 C1114 1.385 . S
C1115 C1116 1.389 . S
C1116 C1115 1.389 . S
C1116 C1117 1.387 . S
C1117 H1102 0.930 . S
C1117 C1112 1.390 . S
C1117 C1116 1.387 . S
H1118 C1130 0.930 . S
H1119 C1132 0.930 . S
H1120 C1133 0.930 . S
H1121 C1137 0.959 . S
H1122 C1137 0.959 . S
H1123 C1137 0.961 . S
H1124 C1138 0.960 . S
H1125 C1138 0.961 . S
H1126 C1138 0.959 . S
H1127 C1141 0.929 . S
H1128 C1142 0.931 . S
H1129 C1144 0.930 . S
C1130 H1118 0.930 . S
C1130 C1131 1.399 . S
C1130 C1135 1.399 . S
C1131 C1130 1.399 . S
C1131 C1132 1.376 . S
C1132 H1119 0.930 . S
C1132 C1131 1.376 . S
C1132 C1133 1.388 . S
C1133 H1120 0.930 . S
C1133 C1132 1.388 . S
C1133 C1134 1.390 . S
C1134 C1133 1.390 . S
C1134 C1135 1.394 . S
C1134 C1140 1.465 . S
C1135 C1130 1.399 . S
C1135 C1134 1.394 . S
C1135 C1136 1.516 . S
C1136 C1135 1.516 . S
C1136 C1137 1.502 . S
C1136 C1138 1.561 . S
C1136 C1139 1.526 . S
C1137 H1121 0.959 . S
C1137 H1122 0.959 . S
C1137 H1123 0.961 . S
C1137 C1136 1.502 . S
C1138 H1124 0.960 . S
C1138 H1125 0.961 . S
C1138 H1126 0.959 . S
C1138 C1136 1.561 . S
C1139 C1136 1.526 . S
C1139 C1140 1.396 . S
C1139 C1144 1.390 . S
C1140 C1134 1.465 . S
C1140 C1139 1.396 . S
C1140 C1141 1.399 . S
C1141 H1127 0.929 . S
C1141 C1140 1.399 . S
C1141 C1142 1.385 . S
C1142 H1128 0.931 . S
C1142 C1141 1.385 . S
C1142 C1143 1.389 . S
C1143 C1142 1.389 . S
C1143 C1144 1.387 . S
C1144 H1129 0.930 . S
C1144 C1139 1.390 . S
C1144 C1143 1.387 . S
H1145 C1157 0.930 . S
H1146 C1159 0.930 . S
H1147 C1160 0.930 . S
H1148 C1164 0.959 . S
H1149 C1164 0.959 . S
H1150 C1164 0.961 . S
H1151 C1165 0.960 . S
H1152 C1165 0.961 . S
H1153 C1165 0.959 . S
H1154 C1168 0.929 . S
H1155 C1169 0.931 . S
H1156 C1171 0.930 . S
C1157 H1145 0.930 . S
C1157 C1158 1.399 . S
C1157 C1162 1.399 . S
C1158 C1157 1.399 . S
C1158 C1159 1.376 . S
C1159 H1146 0.930 . S
C1159 C1158 1.376 . S
C1159 C1160 1.388 . S
C1160 H1147 0.930 . S
C1160 C1159 1.388 . S
C1160 C1161 1.390 . S
C1161 C1160 1.390 . S
C1161 C1162 1.394 . S
C1161 C1167 1.465 . S
C1162 C1157 1.399 . S
C1162 C1161 1.394 . S
C1162 C1163 1.516 . S
C1163 C1162 1.516 . S
C1163 C1164 1.502 . S
C1163 C1165 1.561 . S
C1163 C1166 1.526 . S
C1164 H1148 0.959 . S
C1164 H1149 0.959 . S
C1164 H1150 0.961 . S
C1164 C1163 1.502 . S
C1165 H1151 0.960 . S
C1165 H1152 0.961 . S
C1165 H1153 0.959 . S
C1165 C1163 1.561 . S
C1166 C1163 1.526 . S
C1166 C1167 1.396 . S
C1166 C1171 1.390 . S
C1167 C1161 1.465 . S
C1167 C1166 1.396 . S
C1167 C1168 1.399 . S
C1168 H1154 0.929 . S
C1168 C1167 1.399 . S
C1168 C1169 1.385 . S
C1169 H1155 0.931 . S
C1169 C1168 1.385 . S
C1169 C1170 1.389 . S
C1170 C1169 1.389 . S
C1170 C1171 1.387 . S
C1171 H1156 0.930 . S
C1171 C1166 1.390 . S
C1171 C1170 1.387 . S
H1172 C1184 0.930 . S
H1173 C1186 0.930 . S
H1174 C1187 0.930 . S
H1175 C1191 0.959 . S
H1176 C1191 0.959 . S
H1177 C1191 0.961 . S
H1178 C1192 0.960 . S
H1179 C1192 0.961 . S
H1180 C1192 0.959 . S
H1181 C1195 0.929 . S
H1182 C1196 0.931 . S
H1183 C1198 0.930 . S
C1184 H1172 0.930 . S
C1184 C1185 1.399 . S
C1184 C1189 1.399 . S
C1185 C1184 1.399 . S
C1185 C1186 1.376 . S
C1186 H1173 0.930 . S
C1186 C1185 1.376 . S
C1186 C1187 1.388 . S
C1187 H1174 0.930 . S
C1187 C1186 1.388 . S
C1187 C1188 1.390 . S
C1188 C1187 1.390 . S
C1188 C1189 1.394 . S
C1188 C1194 1.465 1_655 S
C1189 C1184 1.399 . S
C1189 C1188 1.394 . S
C1189 C1190 1.516 . S
C1190 C1189 1.516 . S
C1190 C1191 1.502 . S
C1190 C1192 1.561 1_655 S
C1190 C1193 1.526 1_655 S
C1191 H1175 0.959 . S
C1191 H1176 0.959 . S
C1191 H1177 0.961 . S
C1191 C1190 1.502 . S
C1192 H1178 0.960 . S
C1192 H1179 0.961 . S
C1192 H1180 0.959 . S
C1192 C1190 1.561 1_455 S
C1193 C1190 1.526 1_455 S
C1193 C1194 1.396 . S
C1193 C1198 1.390 . S
C1194 C1188 1.465 1_455 S
C1194 C1193 1.396 . S
C1194 C1195 1.399 . S
C1195 H1181 0.929 . S
C1195 C1194 1.399 . S
C1195 C1196 1.385 . S
C1196 H1182 0.931 . S
C1196 C1195 1.385 . S
C1196 C1197 1.389 . S
C1197 C1196 1.389 . S
C1197 C1198 1.387 . S
C1198 H1183 0.930 . S
C1198 C1193 1.390 . S
C1198 C1197 1.387 . S
H1199 C1211 0.930 . S
H1200 C1213 0.930 . S
H1201 C1214 0.930 . S
H1202 C1218 0.959 . S
H1203 C1218 0.959 . S
H1204 C1218 0.961 . S
H1205 C1219 0.960 . S
H1206 C1219 0.961 . S
H1207 C1219 0.959 . S
H1208 C1222 0.929 . S
H1209 C1223 0.931 . S
H1210 C1225 0.930 . S
C1211 H1199 0.930 . S
C1211 C1212 1.399 . S
C1211 C1216 1.399 . S
C1212 C1211 1.399 . S
C1212 C1213 1.376 . S
C1213 H1200 0.930 . S
C1213 C1212 1.376 . S
C1213 C1214 1.388 . S
C1214 H1201 0.930 . S
C1214 C1213 1.388 . S
C1214 C1215 1.390 . S
C1215 C1214 1.390 . S
C1215 C1216 1.394 . S
C1215 C1221 1.465 . S
C1216 C1211 1.399 . S
C1216 C1215 1.394 . S
C1216 C1217 1.516 . S
C1217 C1216 1.516 . S
C1217 C1218 1.502 . S
C1217 C1219 1.561 . S
C1217 C1220 1.526 . S
C1218 H1202 0.959 . S
C1218 H1203 0.959 . S
C1218 H1204 0.961 . S
C1218 C1217 1.502 . S
C1219 H1205 0.960 . S
C1219 H1206 0.961 . S
C1219 H1207 0.959 . S
C1219 C1217 1.561 . S
C1220 C1217 1.526 . S
C1220 C1221 1.396 . S
C1220 C1225 1.390 . S
C1221 C1215 1.465 . S
C1221 C1220 1.396 . S
C1221 C1222 1.399 . S
C1222 H1208 0.929 . S
C1222 C1221 1.399 . S
C1222 C1223 1.385 . S
C1223 H1209 0.931 . S
C1223 C1222 1.385 . S
C1223 C1224 1.389 . S
C1224 C1223 1.389 . S
C1224 C1225 1.387 . S
C1225 H1210 0.930 . S
C1225 C1220 1.390 . S
C1225 C1224 1.387 . S
H1226 C1238 0.930 . S
H1227 C1240 0.930 . S
H1228 C1241 0.930 . S
H1229 C1245 0.959 . S
H1230 C1245 0.959 . S
H1231 C1245 0.961 . S
H1232 C1246 0.960 . S
H1233 C1246 0.961 . S
H1234 C1246 0.959 . S
H1235 C1249 0.929 . S
H1236 C1250 0.931 . S
H1237 C1252 0.930 . S
C1238 H1226 0.930 . S
C1238 C1239 1.399 . S
C1238 C1243 1.399 . S
C1239 C1238 1.399 . S
C1239 C1240 1.376 . S
C1240 H1227 0.930 . S
C1240 C1239 1.376 . S
C1240 C1241 1.388 . S
C1241 H1228 0.930 . S
C1241 C1240 1.388 . S
C1241 C1242 1.390 . S
C1242 C1241 1.390 . S
C1242 C1243 1.394 . S
C1242 C1248 1.465 . S
C1243 C1238 1.399 . S
C1243 C1242 1.394 . S
C1243 C1244 1.516 . S
C1244 C1243 1.516 . S
C1244 C1245 1.502 . S
C1244 C1246 1.561 . S
C1244 C1247 1.526 . S
C1245 H1229 0.959 . S
C1245 H1230 0.959 . S
C1245 H1231 0.961 . S
C1245 C1244 1.502 . S
C1246 H1232 0.960 . S
C1246 H1233 0.961 . S
C1246 H1234 0.959 . S
C1246 C1244 1.561 . S
C1247 C1244 1.526 . S
C1247 C1248 1.396 . S
C1247 C1252 1.390 . S
C1248 C1242 1.465 . S
C1248 C1247 1.396 . S
C1248 C1249 1.399 . S
C1249 H1235 0.929 . S
C1249 C1248 1.399 . S
C1249 C1250 1.385 . S
C1250 H1236 0.931 . S
C1250 C1249 1.385 . S
C1250 C1251 1.389 . S
C1251 C1250 1.389 . S
C1251 C1252 1.387 . S
C1252 H1237 0.930 . S
C1252 C1247 1.390 . S
C1252 C1251 1.387 . S
H1253 C1265 0.930 . S
H1254 C1267 0.930 . S
H1255 C1268 0.930 . S
H1256 C1272 0.959 . S
H1257 C1272 0.959 . S
H1258 C1272 0.961 . S
H1259 C1273 0.960 . S
H1260 C1273 0.961 1_455 S
H1261 C1273 0.959 . S
H1262 C1276 0.929 . S
H1263 C1277 0.931 . S
H1264 C1279 0.930 . S
C1265 H1253 0.930 . S
C1265 C1266 1.399 . S
C1265 C1270 1.399 . S
C1266 C1265 1.399 . S
C1266 C1267 1.376 . S
C1267 H1254 0.930 . S
C1267 C1266 1.376 . S
C1267 C1268 1.388 . S
C1268 H1255 0.930 . S
C1268 C1267 1.388 . S
C1268 C1269 1.390 . S
C1269 C1268 1.390 . S
C1269 C1270 1.394 . S
C1269 C1275 1.465 1_655 S
C1270 C1265 1.399 . S
C1270 C1269 1.394 . S
C1270 C1271 1.516 1_655 S
C1271 C1270 1.516 1_455 S
C1271 C1272 1.502 . S
C1271 C1273 1.561 1_455 S
C1271 C1274 1.526 . S
C1272 H1256 0.959 . S
C1272 H1257 0.959 . S
C1272 H1258 0.961 . S
C1272 C1271 1.502 . S
C1273 H1259 0.960 . S
C1273 H1260 0.961 1_655 S
C1273 H1261 0.959 . S
C1273 C1271 1.561 1_655 S
C1274 C1271 1.526 . S
C1274 C1275 1.396 . S
C1274 C1279 1.390 . S
C1275 C1269 1.465 1_455 S
C1275 C1274 1.396 . S
C1275 C1276 1.399 . S
C1276 H1262 0.929 . S
C1276 C1275 1.399 . S
C1276 C1277 1.385 . S
C1277 H1263 0.931 . S
C1277 C1276 1.385 . S
C1277 C1278 1.389 . S
C1278 C1277 1.389 . S
C1278 C1279 1.387 . S
C1279 H1264 0.930 . S
C1279 C1274 1.390 . S
C1279 C1278 1.387 . S
H1280 C1292 0.930 . S
H1281 C1294 0.930 . S
H1282 C1295 0.930 . S
H1283 C1299 0.959 . S
H1284 C1299 0.959 . S
H1285 C1299 0.961 . S
H1286 C1300 0.980 . S
H1287 C1300 0.961 . S
H1288 C1300 0.959 . S
H1289 C1303 0.929 . S
H1290 C1304 0.931 . S
H1291 C1306 0.930 . S
C1292 H1280 0.930 . S
C1292 C1293 1.399 . S
C1292 C1297 1.399 . S
C1293 C1292 1.399 . S
C1293 C1294 1.376 . S
C1294 H1281 0.930 . S
C1294 C1293 1.376 . S
C1294 C1295 1.388 1_556 S
C1295 H1282 0.930 . S
C1295 C1294 1.388 1_554 S
C1295 C1296 1.390 . S
C1296 C1295 1.390 . S
C1296 C1297 1.394 1_554 S
C1296 C1302 1.465 . S
C1297 C1292 1.399 . S
C1297 C1296 1.394 1_556 S
C1297 C1298 1.516 . S
C1298 C1297 1.516 . S
C1298 C1299 1.502 . S
C1298 C1300 1.561 1_556 S
C1298 C1301 1.526 1_556 S
C1299 H1283 0.959 . S
C1299 H1284 0.959 . S
C1299 H1285 0.961 . S
C1299 C1298 1.502 . S
C1300 H1286 0.980 . S
C1300 H1287 0.961 . S
C1300 H1288 0.959 . S
C1300 C1298 1.561 1_554 S
C1301 C1298 1.526 1_554 S
C1301 C1302 1.396 . S
C1301 C1306 1.390 . S
C1302 C1296 1.465 . S
C1302 C1301 1.396 . S
C1302 C1303 1.399 . S
C1303 H1289 0.929 . S
C1303 C1302 1.399 . S
C1303 C1304 1.385 . S
C1304 H1290 0.931 . S
C1304 C1303 1.385 . S
C1304 C1305 1.389 . S
C1305 C1304 1.389 . S
C1305 C1306 1.387 . S
C1306 H1291 0.930 . S
C1306 C1301 1.390 . S
C1306 C1305 1.387 . S
H1307 C1319 0.930 . S
H1308 C1321 0.930 . S
H1309 C1322 0.930 . S
H1310 C1326 0.959 . S
H1311 C1326 0.959 . S
H1312 C1326 0.961 . S
H1313 C1327 0.960 . S
H1314 C1327 0.961 . S
H1315 C1327 0.959 . S
H1316 C1330 0.929 . S
H1317 C1331 0.931 . S
H1318 C1333 0.930 . S
C1319 H1307 0.930 . S
C1319 C1320 1.399 . S
C1319 C1324 1.399 . S
C1320 C1319 1.399 . S
C1320 C1321 1.376 . S
C1321 H1308 0.930 . S
C1321 C1320 1.376 . S
C1321 C1322 1.388 . S
C1322 H1309 0.930 . S
C1322 C1321 1.388 . S
C1322 C1323 1.390 . S
C1323 C1322 1.390 . S
C1323 C1324 1.394 . S
C1323 C1329 1.465 1_545 S
C1324 C1319 1.399 . S
C1324 C1323 1.394 . S
C1324 C1325 1.516 1_545 S
C1325 C1324 1.516 1_565 S
C1325 C1326 1.502 . S
C1325 C1327 1.561 . S
C1325 C1328 1.526 . S
C1326 H1310 0.959 . S
C1326 H1311 0.959 . S
C1326 H1312 0.961 . S
C1326 C1325 1.502 . S
C1327 H1313 0.960 . S
C1327 H1314 0.961 . S
C1327 H1315 0.959 . S
C1327 C1325 1.561 . S
C1328 C1325 1.526 . S
C1328 C1329 1.396 . S
C1328 C1333 1.390 . S
C1329 C1323 1.465 1_565 S
C1329 C1328 1.396 . S
C1329 C1330 1.399 . S
C1330 H1316 0.929 . S
C1330 C1329 1.399 . S
C1330 C1331 1.385 . S
C1331 H1317 0.931 . S
C1331 C1330 1.385 . S
C1331 C1332 1.389 . S
C1332 C1331 1.389 . S
C1332 C1333 1.387 . S
C1333 H1318 0.930 . S
C1333 C1328 1.390 . S
C1333 C1332 1.387 . S
H1334 C1346 0.930 . S
H1335 C1348 0.930 . S
H1336 C1349 0.930 . S
H1337 C1353 0.959 . S
H1338 C1353 0.959 . S
H1339 C1353 0.961 . S
H1340 C1354 0.960 . S
H1341 C1354 0.961 . S
H1342 C1354 0.959 . S
H1343 C1357 0.929 . S
H1344 C1358 0.931 . S
H1345 C1360 0.930 . S
C1346 H1334 0.930 . S
C1346 C1347 1.399 . S
C1346 C1351 1.399 . S
C1347 C1346 1.399 . S
C1347 C1348 1.376 . S
C1348 H1335 0.930 . S
C1348 C1347 1.376 . S
C1348 C1349 1.388 . S
C1349 H1336 0.930 . S
C1349 C1348 1.388 . S
C1349 C1350 1.390 . S
C1350 C1349 1.390 . S
C1350 C1351 1.394 . S
C1350 C1356 1.465 . S
C1351 C1346 1.399 . S
C1351 C1350 1.394 . S
C1351 C1352 1.516 . S
C1352 C1351 1.516 . S
C1352 C1353 1.502 . S
C1352 C1354 1.561 . S
C1352 C1355 1.526 . S
C1353 H1337 0.959 . S
C1353 H1338 0.959 . S
C1353 H1339 0.961 . S
C1353 C1352 1.502 . S
C1354 H1340 0.960 . S
C1354 H1341 0.961 . S
C1354 H1342 0.959 . S
C1354 C1352 1.561 . S
C1355 C1352 1.526 . S
C1355 C1356 1.396 . S
C1355 C1360 1.390 . S
C1356 C1350 1.465 . S
C1356 C1355 1.396 . S
C1356 C1357 1.399 . S
C1357 H1343 0.929 . S
C1357 C1356 1.399 . S
C1357 C1358 1.385 . S
C1358 H1344 0.931 . S
C1358 C1357 1.385 . S
C1358 C1359 1.389 . S
C1359 C1358 1.389 . S
C1359 C1360 1.387 . S
C1360 H1345 0.930 . S
C1360 C1355 1.390 . S
C1360 C1359 1.387 . S
H1361 C1373 0.930 . S
H1362 C1375 0.930 . S
H1363 C1376 0.930 . S
H1364 C1380 0.959 . S
H1365 C1380 0.959 1_565 S
H1366 C1380 0.961 . S
H1367 C1381 0.960 . S
H1368 C1381 0.961 . S
H1369 C1381 0.959 . S
H1370 C1384 0.929 . S
H1371 C1385 0.931 . S
H1372 C1387 0.930 . S
C1373 H1361 0.930 . S
C1373 C1374 1.399 . S
C1373 C1378 1.399 . S
C1374 C1373 1.399 . S
C1374 C1375 1.376 . S
C1375 H1362 0.930 . S
C1375 C1374 1.376 . S
C1375 C1376 1.388 . S
C1376 H1363 0.930 . S
C1376 C1375 1.388 . S
C1376 C1377 1.390 . S
C1377 C1376 1.390 . S
C1377 C1378 1.394 . S
C1377 C1383 1.465 1_545 S
C1378 C1373 1.399 . S
C1378 C1377 1.394 . S
C1378 C1379 1.516 . S
C1379 C1378 1.516 . S
C1379 C1380 1.502 . S
C1379 C1381 1.561 . S
C1379 C1382 1.526 1_545 S
C1380 H1364 0.959 . S
C1380 H1365 0.959 1_545 S
C1380 H1366 0.961 . S
C1380 C1379 1.502 . S
C1381 H1367 0.960 . S
C1381 H1368 0.961 . S
C1381 H1369 0.959 . S
C1381 C1379 1.561 . S
C1382 C1379 1.526 1_565 S
C1382 C1383 1.396 . S
C1382 C1387 1.390 . S
C1383 C1377 1.465 1_565 S
C1383 C1382 1.396 . S
C1383 C1384 1.399 . S
C1384 H1370 0.929 . S
C1384 C1383 1.399 . S
C1384 C1385 1.385 . S
C1385 H1371 0.931 . S
C1385 C1384 1.385 . S
C1385 C1386 1.389 . S
C1386 C1385 1.389 . S
C1386 C1387 1.387 . S
C1387 H1372 0.930 . S
C1387 C1382 1.390 . S
C1387 C1386 1.387 . S
H1388 C1400 0.930 . S
H1389 C1402 0.930 . S
H1390 C1403 0.933 . S
H1391 C1407 0.959 . S
H1392 C1407 0.959 . S
H1393 C1407 0.961 . S
H1394 C1408 0.960 . S
H1395 C1408 0.961 . S
H1396 C1408 0.959 . S
H1397 C1411 0.929 . S
H1398 C1412 0.931 . S
H1399 C1414 0.930 . S
C1400 H1388 0.930 . S
C1400 C1401 1.399 . S
C1400 C1405 1.399 . S
C1401 C1400 1.399 . S
C1401 C1402 1.376 . S
C1402 H1389 0.930 . S
C1402 C1401 1.376 . S
C1402 C1403 1.388 . S
C1403 H1390 0.933 . S
C1403 C1402 1.388 . S
C1403 C1404 1.394 . S
C1404 C1403 1.394 . S
C1404 C1405 1.401 . S
C1404 C1410 1.456 1_554 S
C1405 C1400 1.399 . S
C1405 C1404 1.401 . S
C1405 C1406 1.515 1_554 S
C1406 C1405 1.515 1_556 S
C1406 C1407 1.498 1_556 S
C1406 C1408 1.565 . S
C1406 C1409 1.527 . S
C1407 H1391 0.959 . S
C1407 H1392 0.959 . S
C1407 H1393 0.961 . S
C1407 C1406 1.498 1_554 S
C1408 H1394 0.960 . S
C1408 H1395 0.961 . S
C1408 H1396 0.959 . S
C1408 C1406 1.565 . S
C1409 C1406 1.527 . S
C1409 C1410 1.396 . S
C1409 C1414 1.390 . S
C1410 C1404 1.456 1_556 S
C1410 C1409 1.396 . S
C1410 C1411 1.399 . S
C1411 H1397 0.929 . S
C1411 C1410 1.399 . S
C1411 C1412 1.385 . S
C1412 H1398 0.931 . S
C1412 C1411 1.385 . S
C1412 C1413 1.389 . S
C1413 C1412 1.389 . S
C1413 C1414 1.387 . S
C1414 H1399 0.930 . S
C1414 C1409 1.390 . S
C1414 C1413 1.387 . S
H1415 C1427 0.930 . S
H1416 C1429 0.930 . S
H1417 C1430 0.930 . S
H1418 C1434 0.959 . S
H1419 C1434 0.959 . S
H1420 C1434 0.961 . S
H1421 C1435 0.960 1_565 S
H1422 C1435 0.961 . S
H1423 C1435 0.959 . S
H1424 C1438 0.929 . S
H1425 C1439 0.931 . S
H1426 C1441 0.930 . S
C1427 H1415 0.930 . S
C1427 C1428 1.399 . S
C1427 C1432 1.399 . S
C1428 C1427 1.399 . S
C1428 C1429 1.376 . S
C1429 H1416 0.930 . S
C1429 C1428 1.376 . S
C1429 C1430 1.388 . S
C1430 H1417 0.930 . S
C1430 C1429 1.388 . S
C1430 C1431 1.390 . S
C1431 C1430 1.390 . S
C1431 C1432 1.394 . S
C1431 C1437 1.465 1_565 S
C1432 C1427 1.399 . S
C1432 C1431 1.394 . S
C1432 C1433 1.516 1_565 S
C1433 C1432 1.516 1_545 S
C1433 C1434 1.502 . S
C1433 C1435 1.561 . S
C1433 C1436 1.526 . S
C1434 H1418 0.959 . S
C1434 H1419 0.959 . S
C1434 H1420 0.961 . S
C1434 C1433 1.502 . S
C1435 H1421 0.960 1_545 S
C1435 H1422 0.961 . S
C1435 H1423 0.959 . S
C1435 C1433 1.561 . S
C1436 C1433 1.526 . S
C1436 C1437 1.396 . S
C1436 C1441 1.390 . S
C1437 C1431 1.465 1_545 S
C1437 C1436 1.396 . S
C1437 C1438 1.399 . S
C1438 H1424 0.929 . S
C1438 C1437 1.399 . S
C1438 C1439 1.385 . S
C1439 H1425 0.931 . S
C1439 C1438 1.385 . S
C1439 C1440 1.389 . S
C1440 C1439 1.389 . S
C1440 C1441 1.387 . S
C1441 H1426 0.930 . S
C1441 C1436 1.390 . S
C1441 C1440 1.387 . S
H1442 C1454 0.930 . S
H1443 C1456 0.930 . S
H1444 C1457 0.930 . S
H1445 C1461 0.959 . S
H1446 C1461 0.959 . S
H1447 C1461 0.961 . S
H1448 C1462 0.960 . S
H1449 C1462 0.961 . S
H1450 C1462 0.959 . S
H1451 C1465 0.929 . S
H1452 C1466 0.931 . S
H1453 C1468 0.930 . S
C1454 H1442 0.930 . S
C1454 C1455 1.399 . S
C1454 C1459 1.399 . S
C1455 C1454 1.399 . S
C1455 C1456 1.376 . S
C1456 H1443 0.930 . S
C1456 C1455 1.376 . S
C1456 C1457 1.388 . S
C1457 H1444 0.930 . S
C1457 C1456 1.388 . S
C1457 C1458 1.390 . S
C1458 C1457 1.390 . S
C1458 C1459 1.394 . S
C1458 C1464 1.465 . S
C1459 C1454 1.399 . S
C1459 C1458 1.394 . S
C1459 C1460 1.516 . S
C1460 C1459 1.516 . S
C1460 C1461 1.502 . S
C1460 C1462 1.561 . S
C1460 C1463 1.526 . S
C1461 H1445 0.959 . S
C1461 H1446 0.959 . S
C1461 H1447 0.961 . S
C1461 C1460 1.502 . S
C1462 H1448 0.960 . S
C1462 H1449 0.961 . S
C1462 H1450 0.959 . S
C1462 C1460 1.561 . S
C1463 C1460 1.526 . S
C1463 C1464 1.396 . S
C1463 C1468 1.390 . S
C1464 C1458 1.465 . S
C1464 C1463 1.396 . S
C1464 C1465 1.399 . S
C1465 H1451 0.929 . S
C1465 C1464 1.399 . S
C1465 C1466 1.385 . S
C1466 H1452 0.931 . S
C1466 C1465 1.385 . S
C1466 C1467 1.389 . S
C1467 C1466 1.389 . S
C1467 C1468 1.387 . S
C1468 H1453 0.930 . S
C1468 C1463 1.390 . S
C1468 C1467 1.387 . S
H1469 C1481 0.930 . S
H1470 C1483 0.930 . S
H1471 C1484 0.930 . S
H1472 C1488 0.959 . S
H1473 C1488 0.959 . S
H1474 C1488 0.961 1_545 S
H1475 C1489 0.960 . S
H1476 C1489 0.961 . S
H1477 C1489 0.959 . S
H1478 C1492 0.929 . S
H1479 C1493 0.931 . S
H1480 C1495 0.930 . S
C1481 H1469 0.930 . S
C1481 C1482 1.399 . S
C1481 C1486 1.399 . S
C1482 C1481 1.399 . S
C1482 C1483 1.376 . S
C1483 H1470 0.930 . S
C1483 C1482 1.376 . S
C1483 C1484 1.388 . S
C1484 H1471 0.930 . S
C1484 C1483 1.388 . S
C1484 C1485 1.390 . S
C1485 C1484 1.390 . S
C1485 C1486 1.394 . S
C1485 C1491 1.465 1_545 S
C1486 C1481 1.399 . S
C1486 C1485 1.394 . S
C1486 C1487 1.516 1_545 S
C1487 C1486 1.516 1_565 S
C1487 C1488 1.502 . S
C1487 C1489 1.561 . S
C1487 C1490 1.526 . S
C1488 H1472 0.959 . S
C1488 H1473 0.959 . S
C1488 H1474 0.961 1_565 S
C1488 C1487 1.502 . S
C1489 H1475 0.960 . S
C1489 H1476 0.961 . S
C1489 H1477 0.959 . S
C1489 C1487 1.561 . S
C1490 C1487 1.526 . S
C1490 C1491 1.396 . S
C1490 C1495 1.390 . S
C1491 C1485 1.465 1_565 S
C1491 C1490 1.396 . S
C1491 C1492 1.399 . S
C1492 H1478 0.929 . S
C1492 C1491 1.399 . S
C1492 C1493 1.385 . S
C1493 H1479 0.931 . S
C1493 C1492 1.385 . S
C1493 C1494 1.389 . S
C1494 C1493 1.389 . S
C1494 C1495 1.387 . S
C1495 H1480 0.930 . S
C1495 C1490 1.390 . S
C1495 C1494 1.387 . S
H1496 C1508 0.930 . S
H1497 C1510 0.930 . S
H1498 C1511 0.930 . S
H1499 C1515 0.959 . S
H1500 C1515 0.959 . S
H1501 C1515 0.961 . S
H1502 C1516 0.960 . S
H1503 C1516 0.961 . S
H1504 C1516 0.959 . S
H1505 C1519 0.929 . S
H1506 C1520 0.931 . S
H1507 C1522 0.930 . S
C1508 H1496 0.930 . S
C1508 C1509 1.399 . S
C1508 C1513 1.399 . S
C1509 C1508 1.399 . S
C1509 C1510 1.376 . S
C1510 H1497 0.930 . S
C1510 C1509 1.376 . S
C1510 C1511 1.388 . S
C1511 H1498 0.930 . S
C1511 C1510 1.388 . S
C1511 C1512 1.390 . S
C1512 C1511 1.390 . S
C1512 C1513 1.394 . S
C1512 C1518 1.465 . S
C1513 C1508 1.399 . S
C1513 C1512 1.394 . S
C1513 C1514 1.516 . S
C1514 C1513 1.516 . S
C1514 C1515 1.502 . S
C1514 C1516 1.561 . S
C1514 C1517 1.526 . S
C1515 H1499 0.959 . S
C1515 H1500 0.959 . S
C1515 H1501 0.961 . S
C1515 C1514 1.502 . S
C1516 H1502 0.960 . S
C1516 H1503 0.961 . S
C1516 H1504 0.959 . S
C1516 C1514 1.561 . S
C1517 C1514 1.526 . S
C1517 C1518 1.396 . S
C1517 C1522 1.390 . S
C1518 C1512 1.465 . S
C1518 C1517 1.396 . S
C1518 C1519 1.399 . S
C1519 H1505 0.929 . S
C1519 C1518 1.399 . S
C1519 C1520 1.385 . S
C1520 H1506 0.931 . S
C1520 C1519 1.385 . S
C1520 C1521 1.389 . S
C1521 C1520 1.389 . S
C1521 C1522 1.387 . S
C1522 H1507 0.930 . S
C1522 C1517 1.390 . S
C1522 C1521 1.387 . S
H1523 C1535 0.930 . S
H1524 C1537 0.930 . S
H1525 C1538 0.930 . S
H1526 C1542 0.959 . S
H1527 C1542 0.959 . S
H1528 C1542 0.961 . S
H1529 C1543 0.960 . S
H1530 C1543 0.961 . S
H1531 C1543 0.959 . S
H1532 C1546 0.929 . S
H1533 C1547 0.931 . S
H1534 C1549 0.930 . S
C1535 H1523 0.930 . S
C1535 C1536 1.399 . S
C1535 C1540 1.399 . S
C1536 C1535 1.399 . S
C1536 C1537 1.376 . S
C1537 H1524 0.930 . S
C1537 C1536 1.376 . S
C1537 C1538 1.388 . S
C1538 H1525 0.930 . S
C1538 C1537 1.388 . S
C1538 C1539 1.390 . S
C1539 C1538 1.390 . S
C1539 C1540 1.394 . S
C1539 C1545 1.465 . S
C1540 C1535 1.399 . S
C1540 C1539 1.394 . S
C1540 C1541 1.516 . S
C1541 C1540 1.516 . S
C1541 C1542 1.502 . S
C1541 C1543 1.561 . S
C1541 C1544 1.526 . S
C1542 H1526 0.959 . S
C1542 H1527 0.959 . S
C1542 H1528 0.961 . S
C1542 C1541 1.502 . S
C1543 H1529 0.960 . S
C1543 H1530 0.961 . S
C1543 H1531 0.959 . S
C1543 C1541 1.561 . S
C1544 C1541 1.526 . S
C1544 C1545 1.396 . S
C1544 C1549 1.390 . S
C1545 C1539 1.465 . S
C1545 C1544 1.396 . S
C1545 C1546 1.399 . S
C1546 H1532 0.929 . S
C1546 C1545 1.399 . S
C1546 C1547 1.385 . S
C1547 H1533 0.931 . S
C1547 C1546 1.385 . S
C1547 C1548 1.389 . S
C1548 C1547 1.389 . S
C1548 C1549 1.387 . S
C1549 H1534 0.930 . S
C1549 C1544 1.390 . S
C1549 C1548 1.387 . S
H1550 C1562 0.930 . S
H1551 C1564 0.930 1_556 S
H1552 C1565 0.930 . S
H1553 C1569 0.959 . S
H1554 C1569 0.959 . S
H1555 C1569 0.961 . S
H1556 C1570 0.960 . S
H1557 C1570 0.961 . S
H1558 C1570 0.959 . S
H1559 C1573 0.929 . S
H1560 C1574 0.931 . S
H1561 C1576 0.930 1_554 S
C1562 H1550 0.930 . S
C1562 C1563 1.399 . S
C1562 C1567 1.399 . S
C1563 C1562 1.399 . S
C1563 C1564 1.376 . S
C1564 H1551 0.930 1_554 S
C1564 C1563 1.376 . S
C1564 C1565 1.388 1_554 S
C1565 H1552 0.930 . S
C1565 C1564 1.388 1_556 S
C1565 C1566 1.390 . S
C1566 C1565 1.390 . S
C1566 C1567 1.394 1_556 S
C1566 C1572 1.465 . S
C1567 C1562 1.399 . S
C1567 C1566 1.394 1_554 S
C1567 C1568 1.516 . S
C1568 C1567 1.516 . S
C1568 C1569 1.502 . S
C1568 C1570 1.561 . S
C1568 C1571 1.526 . S
C1569 H1553 0.959 . S
C1569 H1554 0.959 . S
C1569 H1555 0.961 . S
C1569 C1568 1.502 . S
C1570 H1556 0.960 . S
C1570 H1557 0.961 . S
C1570 H1558 0.959 . S
C1570 C1568 1.561 . S
C1571 C1568 1.526 . S
C1571 C1572 1.396 1_554 S
C1571 C1576 1.390 1_554 S
C1572 C1566 1.465 . S
C1572 C1571 1.396 1_556 S
C1572 C1573 1.399 . S
C1573 H1559 0.929 . S
C1573 C1572 1.399 . S
C1573 C1574 1.385 . S
C1574 H1560 0.931 . S
C1574 C1573 1.385 . S
C1574 C1575 1.389 . S
C1575 C1574 1.389 . S
C1575 C1576 1.387 . S
C1576 H1561 0.930 1_556 S
C1576 C1571 1.390 1_556 S
C1576 C1575 1.387 . S
H1577 C1589 0.930 . S
H1578 C1591 0.930 . S
H1579 C1592 0.930 . S
H1580 C1596 0.959 . S
H1581 C1596 0.959 . S
H1582 C1596 0.961 . S
H1583 C1597 0.960 . S
H1584 C1597 0.961 . S
H1585 C1597 0.959 . S
H1586 C1600 0.929 . S
H1587 C1601 0.931 . S
H1588 C1603 0.930 . S
C1589 H1577 0.930 . S
C1589 C1590 1.399 . S
C1589 C1594 1.399 . S
C1590 C1589 1.399 . S
C1590 C1591 1.376 . S
C1591 H1578 0.930 . S
C1591 C1590 1.376 . S
C1591 C1592 1.388 . S
C1592 H1579 0.930 . S
C1592 C1591 1.388 . S
C1592 C1593 1.390 . S
C1593 C1592 1.390 . S
C1593 C1594 1.394 . S
C1593 C1599 1.465 . S
C1594 C1589 1.399 . S
C1594 C1593 1.394 . S
C1594 C1595 1.516 . S
C1595 C1594 1.516 . S
C1595 C1596 1.502 . S
C1595 C1597 1.561 . S
C1595 C1598 1.526 . S
C1596 H1580 0.959 . S
C1596 H1581 0.959 . S
C1596 H1582 0.961 . S
C1596 C1595 1.502 . S
C1597 H1583 0.960 . S
C1597 H1584 0.961 . S
C1597 H1585 0.959 . S
C1597 C1595 1.561 . S
C1598 C1595 1.526 . S
C1598 C1599 1.396 . S
C1598 C1603 1.390 . S
C1599 C1593 1.465 . S
C1599 C1598 1.396 . S
C1599 C1600 1.399 . S
C1600 H1586 0.929 . S
C1600 C1599 1.399 . S
C1600 C1601 1.385 . S
C1601 H1587 0.931 . S
C1601 C1600 1.385 . S
C1601 C1602 1.389 . S
C1602 C1601 1.389 . S
C1602 C1603 1.387 . S
C1603 H1588 0.930 . S
C1603 C1598 1.390 . S
C1603 C1602 1.387 . S
H1604 C1616 0.930 . S
H1605 C1618 0.930 . S
H1606 C1619 0.930 . S
H1607 C1623 0.959 . S
H1608 C1623 0.959 . S
H1609 C1623 0.961 . S
H1610 C1624 0.960 . S
H1611 C1624 0.961 . S
H1612 C1624 0.959 . S
H1613 C1627 0.929 . S
H1614 C1628 0.931 . S
H1615 C1630 0.930 . S
C1616 H1604 0.930 . S
C1616 C1617 1.399 . S
C1616 C1621 1.399 . S
C1617 C1616 1.399 . S
C1617 C1618 1.376 . S
C1618 H1605 0.930 . S
C1618 C1617 1.376 . S
C1618 C1619 1.388 . S
C1619 H1606 0.930 . S
C1619 C1618 1.388 . S
C1619 C1620 1.390 . S
C1620 C1619 1.390 . S
C1620 C1621 1.394 . S
C1620 C1626 1.465 . S
C1621 C1616 1.399 . S
C1621 C1620 1.394 . S
C1621 C1622 1.516 . S
C1622 C1621 1.516 . S
C1622 C1623 1.502 . S
C1622 C1624 1.561 . S
C1622 C1625 1.526 . S
C1623 H1607 0.959 . S
C1623 H1608 0.959 . S
C1623 H1609 0.961 . S
C1623 C1622 1.502 . S
C1624 H1610 0.960 . S
C1624 H1611 0.961 . S
C1624 H1612 0.959 . S
C1624 C1622 1.561 . S
C1625 C1622 1.526 . S
C1625 C1626 1.396 . S
C1625 C1630 1.390 . S
C1626 C1620 1.465 . S
C1626 C1625 1.396 . S
C1626 C1627 1.399 . S
C1627 H1613 0.929 . S
C1627 C1626 1.399 . S
C1627 C1628 1.385 . S
C1628 H1614 0.931 . S
C1628 C1627 1.385 . S
C1628 C1629 1.389 . S
C1629 C1628 1.389 . S
C1629 C1630 1.387 . S
C1630 H1615 0.930 . S
C1630 C1625 1.390 . S
C1630 C1629 1.387 . S
H1631 C1643 0.930 . S
H1632 C1645 0.930 . S
H1633 C1646 0.930 . S
H1634 C1650 0.959 . S
H1635 C1650 0.959 . S
H1636 C1650 0.961 . S
H1637 C1651 0.960 . S
H1638 C1651 0.961 . S
H1639 C1651 0.959 . S
H1640 C1654 0.929 . S
H1641 C1655 0.931 . S
H1642 C1657 0.930 . S
C1643 H1631 0.930 . S
C1643 C1644 1.399 . S
C1643 C1648 1.399 . S
C1644 C1643 1.399 . S
C1644 C1645 1.376 . S
C1645 H1632 0.930 . S
C1645 C1644 1.376 . S
C1645 C1646 1.388 . S
C1646 H1633 0.930 . S
C1646 C1645 1.388 . S
C1646 C1647 1.390 . S
C1647 C1646 1.390 . S
C1647 C1648 1.394 . S
C1647 C1653 1.465 . S
C1648 C1643 1.399 . S
C1648 C1647 1.394 . S
C1648 C1649 1.516 . S
C1649 C1648 1.516 . S
C1649 C1650 1.502 . S
C1649 C1651 1.561 . S
C1649 C1652 1.526 . S
C1650 H1634 0.959 . S
C1650 H1635 0.959 . S
C1650 H1636 0.961 . S
C1650 C1649 1.502 . S
C1651 H1637 0.960 . S
C1651 H1638 0.961 . S
C1651 H1639 0.959 . S
C1651 C1649 1.561 . S
C1652 C1649 1.526 . S
C1652 C1653 1.396 . S
C1652 C1657 1.390 . S
C1653 C1647 1.465 . S
C1653 C1652 1.396 . S
C1653 C1654 1.399 . S
C1654 H1640 0.929 . S
C1654 C1653 1.399 . S
C1654 C1655 1.385 . S
C1655 H1641 0.931 . S
C1655 C1654 1.385 . S
C1655 C1656 1.389 . S
C1656 C1655 1.389 . S
C1656 C1657 1.387 . S
C1657 H1642 0.930 . S
C1657 C1652 1.390 . S
C1657 C1656 1.387 . S
H1658 C1670 0.930 . S
H1659 C1672 0.930 . S
H1660 C1673 0.930 . S
H1661 C1677 0.959 . S
H1662 C1677 0.959 . S
H1663 C1677 0.961 . S
H1664 C1678 0.960 . S
H1665 C1678 0.961 . S
H1666 C1678 0.959 . S
H1667 C1681 0.929 . S
H1668 C1682 0.931 . S
H1669 C1684 0.930 . S
C1670 H1658 0.930 . S
C1670 C1671 1.399 . S
C1670 C1675 1.399 . S
C1671 C1670 1.399 . S
C1671 C1672 1.376 . S
C1672 H1659 0.930 . S
C1672 C1671 1.376 . S
C1672 C1673 1.388 . S
C1673 H1660 0.930 . S
C1673 C1672 1.388 . S
C1673 C1674 1.405 . S
C1674 C1673 1.405 . S
C1674 C1675 1.407 . S
C1674 C1680 1.444 1_556 S
C1675 C1670 1.399 . S
C1675 C1674 1.407 . S
C1675 C1676 1.516 1_556 S
C1676 C1675 1.516 1_554 S
C1676 C1677 1.502 1_554 S
C1676 C1678 1.561 . S
C1676 C1679 1.526 . S
C1677 H1661 0.959 . S
C1677 H1662 0.959 . S
C1677 H1663 0.961 . S
C1677 C1676 1.502 1_556 S
C1678 H1664 0.960 . S
C1678 H1665 0.961 . S
C1678 H1666 0.959 . S
C1678 C1676 1.561 . S
C1679 C1676 1.526 . S
C1679 C1680 1.396 . S
C1679 C1684 1.390 . S
C1680 C1674 1.444 1_554 S
C1680 C1679 1.396 . S
C1680 C1681 1.399 . S
C1681 H1667 0.929 . S
C1681 C1680 1.399 . S
C1681 C1682 1.385 . S
C1682 H1668 0.931 . S
C1682 C1681 1.385 . S
C1682 C1683 1.389 . S
C1683 C1682 1.389 . S
C1683 C1684 1.387 . S
C1684 H1669 0.930 . S
C1684 C1679 1.390 . S
C1684 C1683 1.387 . S
H1685 C1697 0.930 . S
H1686 C1699 0.930 . S
H1687 C1700 0.930 . S
H1688 C1704 0.959 . S
H1689 C1704 0.959 . S
H1690 C1704 0.961 . S
H1691 C1705 0.960 . S
H1692 C1705 0.961 . S
H1693 C1705 0.959 . S
H1694 C1708 0.929 . S
H1695 C1709 0.931 . S
H1696 C1711 0.930 . S
C1697 H1685 0.930 . S
C1697 C1698 1.399 . S
C1697 C1702 1.399 . S
C1698 C1697 1.399 . S
C1698 C1699 1.376 . S
C1699 H1686 0.930 . S
C1699 C1698 1.376 . S
C1699 C1700 1.388 . S
C1700 H1687 0.930 . S
C1700 C1699 1.388 . S
C1700 C1701 1.390 . S
C1701 C1700 1.390 . S
C1701 C1702 1.394 . S
C1701 C1707 1.465 . S
C1702 C1697 1.399 . S
C1702 C1701 1.394 . S
C1702 C1703 1.516 . S
C1703 C1702 1.516 . S
C1703 C1704 1.502 . S
C1703 C1705 1.561 . S
C1703 C1706 1.526 . S
C1704 H1688 0.959 . S
C1704 H1689 0.959 . S
C1704 H1690 0.961 . S
C1704 C1703 1.502 . S
C1705 H1691 0.960 . S
C1705 H1692 0.961 . S
C1705 H1693 0.959 . S
C1705 C1703 1.561 . S
C1706 C1703 1.526 . S
C1706 C1707 1.396 . S
C1706 C1711 1.390 . S
C1707 C1701 1.465 . S
C1707 C1706 1.396 . S
C1707 C1708 1.399 . S
C1708 H1694 0.929 . S
C1708 C1707 1.399 . S
C1708 C1709 1.385 . S
C1709 H1695 0.931 . S
C1709 C1708 1.385 . S
C1709 C1710 1.389 . S
C1710 C1709 1.389 . S
C1710 C1711 1.387 . S
C1711 H1696 0.930 . S
C1711 C1706 1.390 . S
C1711 C1710 1.387 . S
H1712 C1724 0.930 . S
H1713 C1726 0.930 . S
H1714 C1727 0.930 . S
H1715 C1731 0.959 . S
H1716 C1731 0.959 . S
H1717 C1731 0.961 . S
H1718 C1732 0.960 . S
H1719 C1732 0.961 . S
H1720 C1732 0.959 . S
H1721 C1735 0.929 . S
H1722 C1736 0.931 . S
H1723 C1738 0.930 . S
C1724 H1712 0.930 . S
C1724 C1725 1.399 . S
C1724 C1729 1.399 . S
C1725 C1724 1.399 . S
C1725 C1726 1.376 . S
C1726 H1713 0.930 . S
C1726 C1725 1.376 . S
C1726 C1727 1.388 . S
C1727 H1714 0.930 . S
C1727 C1726 1.388 . S
C1727 C1728 1.390 . S
C1728 C1727 1.390 . S
C1728 C1729 1.394 . S
C1728 C1734 1.465 . S
C1729 C1724 1.399 . S
C1729 C1728 1.394 . S
C1729 C1730 1.516 . S
C1730 C1729 1.516 . S
C1730 C1731 1.502 . S
C1730 C1732 1.561 . S
C1730 C1733 1.526 . S
C1731 H1715 0.959 . S
C1731 H1716 0.959 . S
C1731 H1717 0.961 . S
C1731 C1730 1.502 . S
C1732 H1718 0.960 . S
C1732 H1719 0.961 . S
C1732 H1720 0.959 . S
C1732 C1730 1.561 . S
C1733 C1730 1.526 . S
C1733 C1734 1.396 . S
C1733 C1738 1.390 . S
C1734 C1728 1.465 . S
C1734 C1733 1.396 . S
C1734 C1735 1.399 . S
C1735 H1721 0.929 . S
C1735 C1734 1.399 . S
C1735 C1736 1.385 . S
C1736 H1722 0.931 . S
C1736 C1735 1.385 . S
C1736 C1737 1.389 . S
C1737 C1736 1.389 . S
C1737 C1738 1.387 . S
C1738 H1723 0.930 . S
C1738 C1733 1.390 . S
C1738 C1737 1.387 . S
H1739 C1751 0.930 . S
H1740 C1753 0.930 . S
H1741 C1754 0.930 . S
H1742 C1758 0.959 . S
H1743 C1758 0.959 . S
H1744 C1758 0.961 . S
H1745 C1759 0.960 . S
H1746 C1759 0.961 . S
H1747 C1759 0.959 . S
H1748 C1762 0.929 . S
H1749 C1763 0.931 . S
H1750 C1765 0.930 . S
C1751 H1739 0.930 . S
C1751 C1752 1.399 . S
C1751 C1756 1.399 . S
C1752 C1751 1.399 . S
C1752 C1753 1.376 . S
C1753 H1740 0.930 . S
C1753 C1752 1.376 . S
C1753 C1754 1.388 . S
C1754 H1741 0.930 . S
C1754 C1753 1.388 . S
C1754 C1755 1.390 . S
C1755 C1754 1.390 . S
C1755 C1756 1.394 . S
C1755 C1761 1.465 . S
C1756 C1751 1.399 . S
C1756 C1755 1.394 . S
C1756 C1757 1.516 . S
C1757 C1756 1.516 . S
C1757 C1758 1.502 . S
C1757 C1759 1.561 . S
C1757 C1760 1.526 . S
C1758 H1742 0.959 . S
C1758 H1743 0.959 . S
C1758 H1744 0.961 . S
C1758 C1757 1.502 . S
C1759 H1745 0.960 . S
C1759 H1746 0.961 . S
C1759 H1747 0.959 . S
C1759 C1757 1.561 . S
C1760 C1757 1.526 . S
C1760 C1761 1.396 . S
C1760 C1765 1.390 . S
C1761 C1755 1.465 . S
C1761 C1760 1.396 . S
C1761 C1762 1.399 . S
C1762 H1748 0.929 . S
C1762 C1761 1.399 . S
C1762 C1763 1.385 . S
C1763 H1749 0.931 . S
C1763 C1762 1.385 . S
C1763 C1764 1.389 . S
C1764 C1763 1.389 . S
C1764 C1765 1.387 . S
C1765 H1750 0.930 . S
C1765 C1760 1.390 . S
C1765 C1764 1.387 . S
H1766 C1778 0.930 . S
H1767 C1780 0.930 . S
H1768 C1781 0.930 . S
H1769 C1785 0.959 . S
H1770 C1785 0.959 . S
H1771 C1785 0.961 . S
H1772 C1786 0.960 . S
H1773 C1786 0.961 . S
H1774 C1786 0.959 . S
H1775 C1789 0.929 . S
H1776 C1790 0.931 . S
H1777 C1792 0.930 . S
C1778 H1766 0.930 . S
C1778 C1779 1.399 . S
C1778 C1783 1.399 . S
C1779 C1778 1.399 . S
C1779 C1780 1.376 . S
C1780 H1767 0.930 . S
C1780 C1779 1.376 . S
C1780 C1781 1.388 . S
C1781 H1768 0.930 . S
C1781 C1780 1.388 . S
C1781 C1782 1.390 . S
C1782 C1781 1.390 . S
C1782 C1783 1.394 . S
C1782 C1788 1.465 . S
C1783 C1778 1.399 . S
C1783 C1782 1.394 . S
C1783 C1784 1.516 . S
C1784 C1783 1.516 . S
C1784 C1785 1.502 . S
C1784 C1786 1.561 . S
C1784 C1787 1.526 . S
C1785 H1769 0.959 . S
C1785 H1770 0.959 . S
C1785 H1771 0.961 . S
C1785 C1784 1.502 . S
C1786 H1772 0.960 . S
C1786 H1773 0.961 . S
C1786 H1774 0.959 . S
C1786 C1784 1.561 . S
C1787 C1784 1.526 . S
C1787 C1788 1.396 . S
C1787 C1792 1.390 . S
C1788 C1782 1.465 . S
C1788 C1787 1.396 . S
C1788 C1789 1.399 . S
C1789 H1775 0.929 . S
C1789 C1788 1.399 . S
C1789 C1790 1.385 . S
C1790 H1776 0.931 . S
C1790 C1789 1.385 . S
C1790 C1791 1.389 . S
C1791 C1790 1.389 . S
C1791 C1792 1.387 . S
C1792 H1777 0.930 . S
C1792 C1787 1.390 . S
C1792 C1791 1.387 . S
H1793 C1805 0.930 . S
H1794 C1807 0.930 . S
H1795 C1808 0.930 . S
H1796 C1812 0.959 . S
H1797 C1812 0.959 . S
H1798 C1812 0.961 . S
H1799 C1813 0.960 . S
H1800 C1813 0.961 . S
H1801 C1813 0.959 . S
H1802 C1816 0.929 . S
H1803 C1817 0.931 . S
H1804 C1819 0.930 . S
C1805 H1793 0.930 . S
C1805 C1806 1.399 . S
C1805 C1810 1.399 . S
C1806 C1805 1.399 . S
C1806 C1807 1.376 . S
C1807 H1794 0.930 . S
C1807 C1806 1.376 . S
C1807 C1808 1.388 . S
C1808 H1795 0.930 . S
C1808 C1807 1.388 . S
C1808 C1809 1.390 . S
C1809 C1808 1.390 . S
C1809 C1810 1.394 . S
C1809 C1815 1.465 . S
C1810 C1805 1.399 . S
C1810 C1809 1.394 . S
C1810 C1811 1.516 . S
C1811 C1810 1.516 . S
C1811 C1812 1.502 . S
C1811 C1813 1.561 . S
C1811 C1814 1.526 . S
C1812 H1796 0.959 . S
C1812 H1797 0.959 . S
C1812 H1798 0.961 . S
C1812 C1811 1.502 . S
C1813 H1799 0.960 . S
C1813 H1800 0.961 . S
C1813 H1801 0.959 . S
C1813 C1811 1.561 . S
C1814 C1811 1.526 . S
C1814 C1815 1.396 . S
C1814 C1819 1.390 . S
C1815 C1809 1.465 . S
C1815 C1814 1.396 . S
C1815 C1816 1.399 . S
C1816 H1802 0.929 . S
C1816 C1815 1.399 . S
C1816 C1817 1.385 . S
C1817 H1803 0.931 . S
C1817 C1816 1.385 . S
C1817 C1818 1.389 . S
C1818 C1817 1.389 . S
C1818 C1819 1.387 . S
C1819 H1804 0.930 . S
C1819 C1814 1.390 . S
C1819 C1818 1.387 . S
H1820 C1832 0.930 . S
H1821 C1834 0.930 . S
H1822 C1835 0.930 . S
H1823 C1839 0.959 . S
H1824 C1839 0.959 . S
H1825 C1839 0.961 . S
H1826 C1840 0.960 . S
H1827 C1840 0.961 . S
H1828 C1840 0.959 . S
H1829 C1843 0.929 . S
H1830 C1844 0.931 . S
H1831 C1846 0.930 . S
C1832 H1820 0.930 . S
C1832 C1833 1.399 . S
C1832 C1837 1.399 . S
C1833 C1832 1.399 . S
C1833 C1834 1.376 . S
C1834 H1821 0.930 . S
C1834 C1833 1.376 . S
C1834 C1835 1.388 . S
C1835 H1822 0.930 . S
C1835 C1834 1.388 . S
C1835 C1836 1.390 . S
C1836 C1835 1.390 . S
C1836 C1837 1.394 . S
C1836 C1842 1.465 . S
C1837 C1832 1.399 . S
C1837 C1836 1.394 . S
C1837 C1838 1.516 . S
C1838 C1837 1.516 . S
C1838 C1839 1.502 . S
C1838 C1840 1.561 . S
C1838 C1841 1.526 . S
C1839 H1823 0.959 . S
C1839 H1824 0.959 . S
C1839 H1825 0.961 . S
C1839 C1838 1.502 . S
C1840 H1826 0.960 . S
C1840 H1827 0.961 . S
C1840 H1828 0.959 . S
C1840 C1838 1.561 . S
C1841 C1838 1.526 . S
C1841 C1842 1.396 . S
C1841 C1846 1.390 . S
C1842 C1836 1.465 . S
C1842 C1841 1.396 . S
C1842 C1843 1.399 . S
C1843 H1829 0.929 . S
C1843 C1842 1.399 . S
C1843 C1844 1.385 . S
C1844 H1830 0.931 . S
C1844 C1843 1.385 . S
C1844 C1845 1.389 . S
C1845 C1844 1.389 . S
C1845 C1846 1.387 . S
C1846 H1831 0.930 . S
C1846 C1841 1.390 . S
C1846 C1845 1.387 . S
H1847 C1859 0.930 . S
H1848 C1861 0.930 . S
H1849 C1862 0.930 . S
H1850 C1866 0.959 . S
H1851 C1866 0.959 . S
H1852 C1866 0.961 . S
H1853 C1867 0.960 . S
H1854 C1867 0.961 . S
H1855 C1867 0.959 . S
H1856 C1870 0.929 . S
H1857 C1871 0.931 . S
H1858 C1873 0.930 . S
C1859 H1847 0.930 . S
C1859 C1860 1.399 . S
C1859 C1864 1.399 . S
C1860 C1859 1.399 . S
C1860 C1861 1.376 . S
C1861 H1848 0.930 . S
C1861 C1860 1.376 . S
C1861 C1862 1.388 . S
C1862 H1849 0.930 . S
C1862 C1861 1.388 . S
C1862 C1863 1.390 . S
C1863 C1862 1.390 . S
C1863 C1864 1.394 . S
C1863 C1869 1.465 . S
C1864 C1859 1.399 . S
C1864 C1863 1.394 . S
C1864 C1865 1.516 . S
C1865 C1864 1.516 . S
C1865 C1866 1.502 . S
C1865 C1867 1.561 . S
C1865 C1868 1.526 . S
C1866 H1850 0.959 . S
C1866 H1851 0.959 . S
C1866 H1852 0.961 . S
C1866 C1865 1.502 . S
C1867 H1853 0.960 . S
C1867 H1854 0.961 . S
C1867 H1855 0.959 . S
C1867 C1865 1.561 . S
C1868 C1865 1.526 . S
C1868 C1869 1.396 . S
C1868 C1873 1.390 . S
C1869 C1863 1.465 . S
C1869 C1868 1.396 . S
C1869 C1870 1.399 . S
C1870 H1856 0.929 . S
C1870 C1869 1.399 . S
C1870 C1871 1.385 . S
C1871 H1857 0.931 . S
C1871 C1870 1.385 . S
C1871 C1872 1.389 . S
C1872 C1871 1.389 . S
C1872 C1873 1.387 . S
C1873 H1858 0.930 . S
C1873 C1868 1.390 . S
C1873 C1872 1.387 . S
H1874 C1886 0.930 . S
H1875 C1888 0.930 . S
H1876 C1889 0.930 . S
H1877 C1893 0.959 . S
H1878 C1893 0.959 . S
H1879 C1893 0.961 . S
H1880 C1894 0.960 . S
H1881 C1894 0.961 . S
H1882 C1894 0.959 . S
H1883 C1897 0.929 . S
H1884 C1898 0.931 . S
H1885 C1900 0.930 . S
C1886 H1874 0.930 . S
C1886 C1887 1.399 . S
C1886 C1891 1.399 . S
C1887 C1886 1.399 . S
C1887 C1888 1.376 . S
C1888 H1875 0.930 . S
C1888 C1887 1.376 . S
C1888 C1889 1.388 . S
C1889 H1876 0.930 . S
C1889 C1888 1.388 . S
C1889 C1890 1.390 . S
C1890 C1889 1.390 . S
C1890 C1891 1.394 . S
C1890 C1896 1.465 . S
C1891 C1886 1.399 . S
C1891 C1890 1.394 . S
C1891 C1892 1.516 . S
C1892 C1891 1.516 . S
C1892 C1893 1.502 . S
C1892 C1894 1.561 . S
C1892 C1895 1.526 . S
C1893 H1877 0.959 . S
C1893 H1878 0.959 . S
C1893 H1879 0.961 . S
C1893 C1892 1.502 . S
C1894 H1880 0.960 . S
C1894 H1881 0.961 . S
C1894 H1882 0.959 . S
C1894 C1892 1.561 . S
C1895 C1892 1.526 . S
C1895 C1896 1.396 . S
C1895 C1900 1.390 . S
C1896 C1890 1.465 . S
C1896 C1895 1.396 . S
C1896 C1897 1.399 . S
C1897 H1883 0.929 . S
C1897 C1896 1.399 . S
C1897 C1898 1.385 . S
C1898 H1884 0.931 . S
C1898 C1897 1.385 . S
C1898 C1899 1.389 . S
C1899 C1898 1.389 . S
C1899 C1900 1.387 . S
C1900 H1885 0.930 . S
C1900 C1895 1.390 . S
C1900 C1899 1.387 . S
H1901 C1913 0.930 . S
H1902 C1915 0.930 . S
H1903 C1916 0.930 . S
H1904 C1920 0.959 . S
H1905 C1920 0.959 . S
H1906 C1920 0.961 . S
H1907 C1921 0.960 . S
H1908 C1921 0.961 . S
H1909 C1921 0.959 . S
H1910 C1924 0.929 . S
H1911 C1925 0.931 . S
H1912 C1927 0.930 . S
C1913 H1901 0.930 . S
C1913 C1914 1.399 . S
C1913 C1918 1.399 . S
C1914 C1913 1.399 . S
C1914 C1915 1.376 . S
C1915 H1902 0.930 . S
C1915 C1914 1.376 . S
C1915 C1916 1.388 . S
C1916 H1903 0.930 . S
C1916 C1915 1.388 . S
C1916 C1917 1.390 . S
C1917 C1916 1.390 . S
C1917 C1918 1.394 . S
C1917 C1923 1.465 . S
C1918 C1913 1.399 . S
C1918 C1917 1.394 . S
C1918 C1919 1.516 . S
C1919 C1918 1.516 . S
C1919 C1920 1.502 . S
C1919 C1921 1.561 . S
C1919 C1922 1.526 . S
C1920 H1904 0.959 . S
C1920 H1905 0.959 . S
C1920 H1906 0.961 . S
C1920 C1919 1.502 . S
C1921 H1907 0.960 . S
C1921 H1908 0.961 . S
C1921 H1909 0.959 . S
C1921 C1919 1.561 . S
C1922 C1919 1.526 . S
C1922 C1923 1.396 . S
C1922 C1927 1.390 . S
C1923 C1917 1.465 . S
C1923 C1922 1.396 . S
C1923 C1924 1.399 . S
C1924 H1910 0.929 . S
C1924 C1923 1.399 . S
C1924 C1925 1.385 . S
C1925 H1911 0.931 . S
C1925 C1924 1.385 . S
C1925 C1926 1.389 . S
C1926 C1925 1.389 . S
C1926 C1927 1.387 . S
C1927 H1912 0.930 . S
C1927 C1922 1.390 . S
C1927 C1926 1.387 . S
H1928 C1940 0.930 . S
H1929 C1942 0.930 . S
H1930 C1943 0.930 . S
H1931 C1947 0.959 . S
H1932 C1947 0.959 . S
H1933 C1947 0.961 . S
H1934 C1948 0.960 . S
H1935 C1948 0.961 . S
H1936 C1948 0.959 . S
H1937 C1951 0.929 . S
H1938 C1952 0.931 . S
H1939 C1954 0.930 . S
C1940 H1928 0.930 . S
C1940 C1941 1.399 . S
C1940 C1945 1.399 . S
C1941 C1940 1.399 . S
C1941 C1942 1.376 . S
C1942 H1929 0.930 . S
C1942 C1941 1.376 . S
C1942 C1943 1.388 . S
C1943 H1930 0.930 . S
C1943 C1942 1.388 . S
C1943 C1944 1.390 . S
C1944 C1943 1.390 . S
C1944 C1945 1.394 . S
C1944 C1950 1.465 . S
C1945 C1940 1.399 . S
C1945 C1944 1.394 . S
C1945 C1946 1.516 . S
C1946 C1945 1.516 . S
C1946 C1947 1.502 . S
C1946 C1948 1.561 . S
C1946 C1949 1.526 . S
C1947 H1931 0.959 . S
C1947 H1932 0.959 . S
C1947 H1933 0.961 . S
C1947 C1946 1.502 . S
C1948 H1934 0.960 . S
C1948 H1935 0.961 . S
C1948 H1936 0.959 . S
C1948 C1946 1.561 . S
C1949 C1946 1.526 . S
C1949 C1950 1.396 . S
C1949 C1954 1.390 . S
C1950 C1944 1.465 . S
C1950 C1949 1.396 . S
C1950 C1951 1.399 . S
C1951 H1937 0.929 . S
C1951 C1950 1.399 . S
C1951 C1952 1.385 . S
C1952 H1938 0.931 . S
C1952 C1951 1.385 . S
C1952 C1953 1.389 . S
C1953 C1952 1.389 . S
C1953 C1954 1.387 . S
C1954 H1939 0.930 . S
C1954 C1949 1.390 . S
C1954 C1953 1.387 . S
H1955 C1967 0.930 . S
H1956 C1969 0.930 . S
H1957 C1970 0.930 . S
H1958 C1974 0.959 . S
H1959 C1974 0.959 . S
H1960 C1974 0.961 . S
H1961 C1975 0.960 . S
H1962 C1975 0.961 . S
H1963 C1975 0.959 . S
H1964 C1978 0.929 . S
H1965 C1979 0.931 . S
H1966 C1981 0.930 . S
C1967 H1955 0.930 . S
C1967 C1968 1.399 . S
C1967 C1972 1.399 . S
C1968 C1967 1.399 . S
C1968 C1969 1.376 . S
C1969 H1956 0.930 . S
C1969 C1968 1.376 . S
C1969 C1970 1.388 . S
C1970 H1957 0.930 . S
C1970 C1969 1.388 . S
C1970 C1971 1.390 . S
C1971 C1970 1.390 . S
C1971 C1972 1.394 . S
C1971 C1977 1.465 . S
C1972 C1967 1.399 . S
C1972 C1971 1.394 . S
C1972 C1973 1.516 . S
C1973 C1972 1.516 . S
C1973 C1974 1.502 . S
C1973 C1975 1.561 . S
C1973 C1976 1.526 . S
C1974 H1958 0.959 . S
C1974 H1959 0.959 . S
C1974 H1960 0.961 . S
C1974 C1973 1.502 . S
C1975 H1961 0.960 . S
C1975 H1962 0.961 . S
C1975 H1963 0.959 . S
C1975 C1973 1.561 . S
C1976 C1973 1.526 . S
C1976 C1977 1.396 . S
C1976 C1981 1.390 . S
C1977 C1971 1.465 . S
C1977 C1976 1.396 . S
C1977 C1978 1.399 . S
C1978 H1964 0.929 . S
C1978 C1977 1.399 . S
C1978 C1979 1.385 . S
C1979 H1965 0.931 . S
C1979 C1978 1.385 . S
C1979 C1980 1.389 . S
C1980 C1979 1.389 . S
C1980 C1981 1.387 . S
C1981 H1966 0.930 . S
C1981 C1976 1.390 . S
C1981 C1980 1.387 . S
H1982 C1994 0.930 . S
H1983 C1996 0.930 . S
H1984 C1997 0.930 . S
H1985 C2001 0.959 . S
H1986 C2001 0.959 . S
H1987 C2001 0.961 . S
H1988 C2002 0.960 . S
H1989 C2002 0.961 . S
H1990 C2002 0.959 . S
H1991 C2005 0.929 . S
H1992 C2006 0.931 . S
H1993 C2008 0.930 . S
C1994 H1982 0.930 . S
C1994 C1995 1.399 . S
C1994 C1999 1.399 . S
C1995 C1994 1.399 . S
C1995 C1996 1.376 . S
C1996 H1983 0.930 . S
C1996 C1995 1.376 . S
C1996 C1997 1.388 . S
C1997 H1984 0.930 . S
C1997 C1996 1.388 . S
C1997 C1998 1.390 . S
C1998 C1997 1.390 . S
C1998 C1999 1.394 . S
C1998 C2004 1.465 . S
C1999 C1994 1.399 . S
C1999 C1998 1.394 . S
C1999 C2000 1.516 . S
C2000 C1999 1.516 . S
C2000 C2001 1.502 . S
C2000 C2002 1.561 . S
C2000 C2003 1.526 . S
C2001 H1985 0.959 . S
C2001 H1986 0.959 . S
C2001 H1987 0.961 . S
C2001 C2000 1.502 . S
C2002 H1988 0.960 . S
C2002 H1989 0.961 . S
C2002 H1990 0.959 . S
C2002 C2000 1.561 . S
C2003 C2000 1.526 . S
C2003 C2004 1.396 . S
C2003 C2008 1.390 . S
C2004 C1998 1.465 . S
C2004 C2003 1.396 . S
C2004 C2005 1.399 . S
C2005 H1991 0.929 . S
C2005 C2004 1.399 . S
C2005 C2006 1.385 . S
C2006 H1992 0.931 . S
C2006 C2005 1.385 . S
C2006 C2007 1.389 . S
C2007 C2006 1.389 . S
C2007 C2008 1.387 . S
C2008 H1993 0.930 . S
C2008 C2003 1.390 . S
C2008 C2007 1.387 . S
H2009 C2021 0.930 . S
H2010 C2023 0.930 . S
H2011 C2024 0.930 . S
H2012 C2028 0.959 . S
H2013 C2028 0.959 . S
H2014 C2028 0.961 . S
H2015 C2029 0.960 . S
H2016 C2029 0.961 . S
H2017 C2029 0.959 . S
H2018 C2032 0.929 . S
H2019 C2033 0.931 . S
H2020 C2035 0.930 . S
C2021 H2009 0.930 . S
C2021 C2022 1.399 . S
C2021 C2026 1.399 . S
C2022 C2021 1.399 . S
C2022 C2023 1.376 . S
C2023 H2010 0.930 . S
C2023 C2022 1.376 . S
C2023 C2024 1.388 . S
C2024 H2011 0.930 . S
C2024 C2023 1.388 . S
C2024 C2025 1.390 . S
C2025 C2024 1.390 . S
C2025 C2026 1.394 . S
C2025 C2031 1.465 . S
C2026 C2021 1.399 . S
C2026 C2025 1.394 . S
C2026 C2027 1.516 . S
C2027 C2026 1.516 . S
C2027 C2028 1.502 . S
C2027 C2029 1.561 . S
C2027 C2030 1.526 . S
C2028 H2012 0.959 . S
C2028 H2013 0.959 . S
C2028 H2014 0.961 . S
C2028 C2027 1.502 . S
C2029 H2015 0.960 . S
C2029 H2016 0.961 . S
C2029 H2017 0.959 . S
C2029 C2027 1.561 . S
C2030 C2027 1.526 . S
C2030 C2031 1.396 . S
C2030 C2035 1.390 . S
C2031 C2025 1.465 . S
C2031 C2030 1.396 . S
C2031 C2032 1.399 . S
C2032 H2018 0.929 . S
C2032 C2031 1.399 . S
C2032 C2033 1.385 . S
C2033 H2019 0.931 . S
C2033 C2032 1.385 . S
C2033 C2034 1.389 . S
C2034 C2033 1.389 . S
C2034 C2035 1.387 . S
C2035 H2020 0.930 . S
C2035 C2030 1.390 . S
C2035 C2034 1.387 . S
H2036 C2048 0.930 . S
H2037 C2050 0.930 . S
H2038 C2051 0.930 . S
H2039 C2055 0.959 . S
H2040 C2055 0.959 . S
H2041 C2055 0.961 . S
H2042 C2056 0.960 . S
H2043 C2056 0.961 . S
H2044 C2056 0.959 . S
H2045 C2059 0.929 . S
H2046 C2060 0.931 . S
H2047 C2062 0.930 . S
C2048 H2036 0.930 . S
C2048 C2049 1.399 . S
C2048 C2053 1.399 . S
C2049 C2048 1.399 . S
C2049 C2050 1.376 . S
C2050 H2037 0.930 . S
C2050 C2049 1.376 . S
C2050 C2051 1.388 . S
C2051 H2038 0.930 . S
C2051 C2050 1.388 . S
C2051 C2052 1.390 . S
C2052 C2051 1.390 . S
C2052 C2053 1.394 . S
C2052 C2058 1.465 . S
C2053 C2048 1.399 . S
C2053 C2052 1.394 . S
C2053 C2054 1.516 . S
C2054 C2053 1.516 . S
C2054 C2055 1.502 . S
C2054 C2056 1.561 . S
C2054 C2057 1.526 . S
C2055 H2039 0.959 . S
C2055 H2040 0.959 . S
C2055 H2041 0.961 . S
C2055 C2054 1.502 . S
C2056 H2042 0.960 . S
C2056 H2043 0.961 . S
C2056 H2044 0.959 . S
C2056 C2054 1.561 . S
C2057 C2054 1.526 . S
C2057 C2058 1.396 . S
C2057 C2062 1.390 . S
C2058 C2052 1.465 . S
C2058 C2057 1.396 . S
C2058 C2059 1.399 . S
C2059 H2045 0.929 . S
C2059 C2058 1.399 . S
C2059 C2060 1.385 . S
C2060 H2046 0.931 . S
C2060 C2059 1.385 . S
C2060 C2061 1.389 . S
C2061 C2060 1.389 . S
C2061 C2062 1.387 . S
C2062 H2047 0.930 . S
C2062 C2057 1.390 . S
C2062 C2061 1.387 . S
H2063 C2075 0.930 . S
H2064 C2077 0.930 . S
H2065 C2078 0.930 . S
H2066 C2082 0.959 . S
H2067 C2082 0.959 . S
H2068 C2082 0.961 . S
H2069 C2083 0.960 . S
H2070 C2083 0.961 . S
H2071 C2083 0.959 . S
H2072 C2086 0.929 . S
H2073 C2087 0.931 . S
H2074 C2089 0.930 . S
C2075 H2063 0.930 . S
C2075 C2076 1.399 . S
C2075 C2080 1.399 . S
C2076 C2075 1.399 . S
C2076 C2077 1.376 . S
C2077 H2064 0.930 . S
C2077 C2076 1.376 . S
C2077 C2078 1.388 . S
C2078 H2065 0.930 . S
C2078 C2077 1.388 . S
C2078 C2079 1.390 . S
C2079 C2078 1.390 . S
C2079 C2080 1.394 . S
C2079 C2085 1.465 . S
C2080 C2075 1.399 . S
C2080 C2079 1.394 . S
C2080 C2081 1.516 . S
C2081 C2080 1.516 . S
C2081 C2082 1.502 . S
C2081 C2083 1.561 . S
C2081 C2084 1.526 . S
C2082 H2066 0.959 . S
C2082 H2067 0.959 . S
C2082 H2068 0.961 . S
C2082 C2081 1.502 . S
C2083 H2069 0.960 . S
C2083 H2070 0.961 . S
C2083 H2071 0.959 . S
C2083 C2081 1.561 . S
C2084 C2081 1.526 . S
C2084 C2085 1.396 . S
C2084 C2089 1.390 . S
C2085 C2079 1.465 . S
C2085 C2084 1.396 . S
C2085 C2086 1.399 . S
C2086 H2072 0.929 . S
C2086 C2085 1.399 . S
C2086 C2087 1.385 . S
C2087 H2073 0.931 . S
C2087 C2086 1.385 . S
C2087 C2088 1.389 . S
C2088 C2087 1.389 . S
C2088 C2089 1.387 . S
C2089 H2074 0.930 . S
C2089 C2084 1.390 . S
C2089 C2088 1.387 . S
H2090 C2102 0.930 . S
H2091 C2104 0.930 . S
H2092 C2105 0.930 . S
H2093 C2109 0.959 . S
H2094 C2109 0.959 . S
H2095 C2109 0.961 . S
H2096 C2110 0.960 . S
H2097 C2110 0.961 . S
H2098 C2110 0.959 . S
H2099 C2113 0.929 . S
H2100 C2114 0.931 . S
H2101 C2116 0.930 . S
C2102 H2090 0.930 . S
C2102 C2103 1.399 . S
C2102 C2107 1.399 . S
C2103 C2102 1.399 . S
C2103 C2104 1.376 . S
C2104 H2091 0.930 . S
C2104 C2103 1.376 . S
C2104 C2105 1.388 . S
C2105 H2092 0.930 . S
C2105 C2104 1.388 . S
C2105 C2106 1.390 . S
C2106 C2105 1.390 . S
C2106 C2107 1.394 . S
C2106 C2112 1.465 . S
C2107 C2102 1.399 . S
C2107 C2106 1.394 . S
C2107 C2108 1.516 . S
C2108 C2107 1.516 . S
C2108 C2109 1.502 . S
C2108 C2110 1.561 . S
C2108 C2111 1.526 . S
C2109 H2093 0.959 . S
C2109 H2094 0.959 . S
C2109 H2095 0.961 . S
C2109 C2108 1.502 . S
C2110 H2096 0.960 . S
C2110 H2097 0.961 . S
C2110 H2098 0.959 . S
C2110 C2108 1.561 . S
C2111 C2108 1.526 . S
C2111 C2112 1.396 . S
C2111 C2116 1.390 . S
C2112 C2106 1.465 . S
C2112 C2111 1.396 . S
C2112 C2113 1.399 . S
C2113 H2099 0.929 . S
C2113 C2112 1.399 . S
C2113 C2114 1.385 . S
C2114 H2100 0.931 . S
C2114 C2113 1.385 . S
C2114 C2115 1.389 . S
C2115 C2114 1.389 . S
C2115 C2116 1.387 . S
C2116 H2101 0.930 . S
C2116 C2111 1.390 . S
C2116 C2115 1.387 . S
H2117 C2129 0.930 . S
H2118 C2131 0.930 . S
H2119 C2132 0.930 . S
H2120 C2136 0.959 . S
H2121 C2136 0.959 . S
H2122 C2136 0.961 . S
H2123 C2137 0.960 . S
H2124 C2137 0.961 . S
H2125 C2137 0.959 . S
H2126 C2140 0.929 . S
H2127 C2141 0.931 . S
H2128 C2143 0.930 . S
C2129 H2117 0.930 . S
C2129 C2130 1.399 . S
C2129 C2134 1.399 . S
C2130 C2129 1.399 . S
C2130 C2131 1.376 . S
C2131 H2118 0.930 . S
C2131 C2130 1.376 . S
C2131 C2132 1.388 . S
C2132 H2119 0.930 . S
C2132 C2131 1.388 . S
C2132 C2133 1.390 . S
C2133 C2132 1.390 . S
C2133 C2134 1.394 . S
C2133 C2139 1.465 . S
C2134 C2129 1.399 . S
C2134 C2133 1.394 . S
C2134 C2135 1.516 . S
C2135 C2134 1.516 . S
C2135 C2136 1.502 . S
C2135 C2137 1.561 . S
C2135 C2138 1.526 . S
C2136 H2120 0.959 . S
C2136 H2121 0.959 . S
C2136 H2122 0.961 . S
C2136 C2135 1.502 . S
C2137 H2123 0.960 . S
C2137 H2124 0.961 . S
C2137 H2125 0.959 . S
C2137 C2135 1.561 . S
C2138 C2135 1.526 . S
C2138 C2139 1.396 . S
C2138 C2143 1.390 . S
C2139 C2133 1.465 . S
C2139 C2138 1.396 . S
C2139 C2140 1.399 . S
C2140 H2126 0.929 . S
C2140 C2139 1.399 . S
C2140 C2141 1.385 . S
C2141 H2127 0.931 . S
C2141 C2140 1.385 . S
C2141 C2142 1.389 . S
C2142 C2141 1.389 . S
C2142 C2143 1.387 . S
C2143 H2128 0.930 . S
C2143 C2138 1.390 . S
C2143 C2142 1.387 . S
C429 C112 1.661 . S
C441 C8 1.607 . S
C456 C333 1.614 . S
C468 C21 1.636 . S
C483 C138 1.596 . S
C495 C34 1.659 . S
C510 C359 1.616 . S
C522 C47 1.635 . S
C537 C164 1.609 . S
C549 C60 1.642 . S
C564 C73 1.664 . S
C576 C385 1.601 . S
C591 C86 1.597 . S
C603 C190 1.658 . S
C618 C99 1.607 . S
C630 C411 1.660 . S
C645 C229 1.653 . S
C657 C125 1.601 . S
C672 C255 1.595 . S
C684 C151 1.663 . S
C699 C177 1.613 . S
C711 C281 1.637 . S
C726 C203 1.617 . S
C738 C307 1.634 . S
C753 C216 1.619 . S
C765 C320 1.631 . S
C780 C346 1.615 . S
C792 C242 1.654 . S
C807 C268 1.614 . S
C819 C372 1.637 . S
C834 C398 1.665 . S
C846 C294 1.598 . S
C861 C239 1.195 . S
C873 C5 1.148 . S
C888 C252 1.151 . S
C900 C18 1.136 . S
C915 C31 1.169 . S
C927 C213 1.136 . S
C942 C44 1.173 . S
C954 C226 1.215 . S
C969 C291 1.162 . S
C981 C57 1.209 . S
C996 C70 1.163 . S
C1008 C304 1.135 . S
C1023 C265 1.202 . S
C1035 C83 1.220 . S
C1050 C278 1.158 . S
C1062 C96 1.134 . S
C1077 C109 1.133 . S
C1089 C343 1.142 . S
C1104 C356 1.220 . S
C1116 C122 1.219 . S
C1131 C135 1.134 . S
C1143 C317 1.138 . S
C1158 C148 1.219 . S
C1170 C330 1.205 . S
C1185 C161 1.135 . S
C1197 C395 1.148 . S
C1212 C174 1.139 . S
C1224 C408 1.157 . S
C1239 C369 1.218 . S
C1251 C187 1.203 . S
C1266 C382 1.136 . S
C1278 C200 1.149 . S
C1293 C78 1.287 . S
C1305 C0 1.232 . S
C1320 C91 1.291 . S
C1332 C13 1.211 . S
C1347 C52 1.240 . S
C1359 C26 1.253 . S
C1374 C39 1.238 . S
C1386 C65 1.283 . S
C1401 C182 1.275 . S
C1413 C104 1.243 . S
C1428 C195 1.297 . S
C1440 C117 1.213 . S
C1455 C156 1.292 . S
C1467 C130 1.223 . S
C1482 C169 1.268 . S
C1494 C143 1.230 . S
C1509 C286 1.297 . S
C1521 C208 1.212 . S
C1536 C299 1.210 . S
C1548 C221 1.296 . S
C1563 C234 1.269 . S
C1575 C260 1.226 . S
C1590 C247 1.278 . S
C1602 C273 1.219 . S
C1617 C390 1.223 . S
C1629 C312 1.274 . S
C1644 C403 1.219 . S
C1656 C325 1.293 . S
C1671 C338 1.273 . S
C1683 C364 1.246 . S
C1698 C351 1.289 . S
C1710 C377 1.214 . S
C1725 C10 1.485 . S
C1737 C283 1.486 . S
C1752 C296 1.474 . S
C1764 C23 1.475 . S
C1779 C309 1.479 . S
C1791 C36 1.482 . S
C1806 C49 1.477 . S
C1818 C270 1.481 . S
C1833 C257 1.482 . S
C1845 C62 1.479 . S
C1860 C75 1.484 . S
C1872 C218 1.481 . S
C1887 C231 1.477 . S
C1899 C88 1.481 . S
C1914 C101 1.479 . S
C1926 C244 1.477 . S
C1941 C387 1.480 . S
C1953 C114 1.475 . S
C1968 C400 1.476 . S
C1980 C127 1.483 . S
C1995 C140 1.479 . S
C2007 C413 1.485 . S
C2022 C374 1.484 . S
C2034 C153 1.478 . S
C2049 C361 1.474 . S
C2061 C166 1.476 . S
C2076 C179 1.485 . S
C2088 C322 1.484 . S
C2103 C335 1.485 . S
C2115 C192 1.484 . S
C2130 C205 1.481 . S
C2142 C348 1.486 . S
