# Generated by pormake.
# Topology unn, (4)-cn, num edge types: 1
# Building blocks:
#     Node 0, Type 0, BuildingBlock: ESEHIV_clean_sbu_0, # of connection points: 4
#     Node 1, Type 0, BuildingBlock: ESEHIV_clean_sbu_0, # of connection points: 4
#     Node 2, Type 0, BuildingBlock: ESEHIV_clean_sbu_0, # of connection points: 4
#     Node 3, Type 0, BuildingBlock: ESEHIV_clean_sbu_0, # of connection points: 4
#     Node 4, Type 0, BuildingBlock: ESEHIV_clean_sbu_0, # of connection points: 4
#     Node 5, Type 0, BuildingBlock: ESEHIV_clean_sbu_0, # of connection points: 4
#     Node 6, Type 0, BuildingBlock: ESEHIV_clean_sbu_0, # of connection points: 4
#     Node 7, Type 0, BuildingBlock: ESEHIV_clean_sbu_0, # of connection points: 4
#     Node 8, Type 0, BuildingBlock: ESEHIV_clean_sbu_0, # of connection points: 4
#     Node 9, Type 0, BuildingBlock: ESEHIV_clean_sbu_0, # of connection points: 4
#     Node 10, Type 0, BuildingBlock: ESEHIV_clean_sbu_0, # of connection points: 4
#     Node 11, Type 0, BuildingBlock: ESEHIV_clean_sbu_0, # of connection points: 4
#     Node 12, Type 0, BuildingBlock: ESEHIV_clean_sbu_0, # of connection points: 4
#     Node 13, Type 0, BuildingBlock: ESEHIV_clean_sbu_0, # of connection points: 4
#     Node 14, Type 0, BuildingBlock: ESEHIV_clean_sbu_0, # of connection points: 4
#     Node 15, Type 0, BuildingBlock: ESEHIV_clean_sbu_0, # of connection points: 4
#     Node 16, Type 0, BuildingBlock: ESEHIV_clean_sbu_0, # of connection points: 4
#     Node 17, Type 0, BuildingBlock: ESEHIV_clean_sbu_0, # of connection points: 4
#     Edge 18, Type (0, 0), BuildingBlock: AJUNOK_clean_linker_0, # of connection points: 2
#     Edge 19, Type (0, 0), BuildingBlock: AJUNOK_clean_linker_0, # of connection points: 2
#     Edge 20, Type (0, 0), BuildingBlock: AJUNOK_clean_linker_0, # of connection points: 2
#     Edge 21, Type (0, 0), BuildingBlock: AJUNOK_clean_linker_0, # of connection points: 2
#     Edge 22, Type (0, 0), BuildingBlock: AJUNOK_clean_linker_0, # of connection points: 2
#     Edge 23, Type (0, 0), BuildingBlock: AJUNOK_clean_linker_0, # of connection points: 2
#     Edge 24, Type (0, 0), BuildingBlock: AJUNOK_clean_linker_0, # of connection points: 2
#     Edge 25, Type (0, 0), BuildingBlock: AJUNOK_clean_linker_0, # of connection points: 2
#     Edge 26, Type (0, 0), BuildingBlock: AJUNOK_clean_linker_0, # of connection points: 2
#     Edge 27, Type (0, 0), BuildingBlock: AJUNOK_clean_linker_0, # of connection points: 2
#     Edge 28, Type (0, 0), BuildingBlock: AJUNOK_clean_linker_0, # of connection points: 2
#     Edge 29, Type (0, 0), BuildingBlock: AJUNOK_clean_linker_0, # of connection points: 2
#     Edge 30, Type (0, 0), BuildingBlock: AJUNOK_clean_linker_0, # of connection points: 2
#     Edge 31, Type (0, 0), BuildingBlock: AJUNOK_clean_linker_0, # of connection points: 2
#     Edge 32, Type (0, 0), BuildingBlock: AJUNOK_clean_linker_0, # of connection points: 2
#     Edge 33, Type (0, 0), BuildingBlock: AJUNOK_clean_linker_0, # of connection points: 2
#     Edge 34, Type (0, 0), BuildingBlock: AJUNOK_clean_linker_0, # of connection points: 2
#     Edge 35, Type (0, 0), BuildingBlock: AJUNOK_clean_linker_0, # of connection points: 2
#     Edge 36, Type (0, 0), BuildingBlock: AJUNOK_clean_linker_0, # of connection points: 2
#     Edge 37, Type (0, 0), BuildingBlock: AJUNOK_clean_linker_0, # of connection points: 2
#     Edge 38, Type (0, 0), BuildingBlock: AJUNOK_clean_linker_0, # of connection points: 2
#     Edge 39, Type (0, 0), BuildingBlock: AJUNOK_clean_linker_0, # of connection points: 2
#     Edge 40, Type (0, 0), BuildingBlock: AJUNOK_clean_linker_0, # of connection points: 2
#     Edge 41, Type (0, 0), BuildingBlock: AJUNOK_clean_linker_0, # of connection points: 2
#     Edge 42, Type (0, 0), BuildingBlock: AJUNOK_clean_linker_0, # of connection points: 2
#     Edge 43, Type (0, 0), BuildingBlock: AJUNOK_clean_linker_0, # of connection points: 2
#     Edge 44, Type (0, 0), BuildingBlock: AJUNOK_clean_linker_0, # of connection points: 2
#     Edge 45, Type (0, 0), BuildingBlock: AJUNOK_clean_linker_0, # of connection points: 2
#     Edge 46, Type (0, 0), BuildingBlock: AJUNOK_clean_linker_0, # of connection points: 2
#     Edge 47, Type (0, 0), BuildingBlock: AJUNOK_clean_linker_0, # of connection points: 2
#     Edge 48, Type (0, 0), BuildingBlock: AJUNOK_clean_linker_0, # of connection points: 2
#     Edge 49, Type (0, 0), BuildingBlock: AJUNOK_clean_linker_0, # of connection points: 2
#     Edge 50, Type (0, 0), BuildingBlock: AJUNOK_clean_linker_0, # of connection points: 2
#     Edge 51, Type (0, 0), BuildingBlock: AJUNOK_clean_linker_0, # of connection points: 2
#     Edge 52, Type (0, 0), BuildingBlock: AJUNOK_clean_linker_0, # of connection points: 2
#     Edge 53, Type (0, 0), BuildingBlock: AJUNOK_clean_linker_0, # of connection points: 2
# Relax obj value: 0.009
# Max RMSD: 0.159
# Mean RMSD: 0.158
data_MOF--net-unn--node1-ESEHIV_clean_sbu_0--edge1-AJUNOK_clean_linker_0
_symmetry_space_group_name_H-M    P1
_symmetry_Int_Tables_number       1
_symmetry_cell_setting            triclinic
loop_
_symmetry_equiv_pos_as_xyz
'x, y, z'
_cell_length_a     42.634404
_cell_length_b     42.492299
_cell_length_c     30.942115
_cell_angle_alpha  90.070954
_cell_angle_beta   90.039622
_cell_angle_gamma 120.10294
loop_
_atom_site_label
_atom_site_type_symbol
_atom_site_fract_x
_atom_site_fract_y
_atom_site_fract_z
_atom_type_partial_charge
Cu0 Cu 0.03068 0.74776 0.28199 0.0
N1 N 0.07301 0.79188 0.29592 0.0
N2 N 0.12849 0.82818 0.32417 0.0
C3 C 0.10324 0.79386 0.31263 0.0
C4 C 0.11353 0.84863 0.31339 0.0
C5 C 0.07941 0.82626 0.29616 0.0
O6 O 1.01998 0.7171 0.33281 0.0
C7 C 0.04368 0.74473 0.19536 0.0
O8 O 0.04042 0.77387 0.19647 0.0
H9 H 0.10635 0.77026 0.31616 0.0
H10 H 0.06039 0.83442 0.28554 0.0
N11 N 0.989 0.75084 0.26906 0.0
N12 N 0.93404 0.73478 0.24172 0.0
C13 C 0.96084 0.72661 0.2446 0.0
C14 C 0.97945 0.77495 0.28268 0.0
C15 C 0.94569 0.76518 0.26585 0.0
C16 C 1.02122 0.73177 0.36926 0.0
O17 O 0.02803 0.76553 0.37004 0.0
H18 H 0.96006 0.70335 0.22916 0.0
H19 H 0.99547 0.79755 0.30412 0.0
O20 O 0.04107 0.72817 0.23068 0.0
H21 H 0.12591 0.87764 0.31865 0.0
H22 H 0.93046 0.7788 0.27209 0.0
Cu23 Cu 0.30526 0.29387 0.28426 0.0
N24 N 0.30173 0.24939 0.26749 0.0
N25 N 0.3189 0.21181 0.23834 0.0
C26 C 0.32545 0.24639 0.24116 0.0
C27 C 0.29017 0.19237 0.26447 0.0
C28 C 0.27981 0.21555 0.28251 0.0
O29 O 0.32518 0.32598 0.23473 0.0
C30 C 0.34179 0.33514 0.36047 0.0
O31 O 0.32987 0.35712 0.34967 0.0
H32 H 0.34764 0.26937 0.22507 0.0
H33 H 0.25894 0.20839 0.30651 0.0
N34 N 0.26112 0.29165 0.29973 0.0
N35 N 0.22422 0.31141 0.3242 0.0
C36 C 0.25719 0.32083 0.30771 0.0
C37 C 0.22895 0.26266 0.31041 0.0
C38 C 0.2062 0.27473 0.32529 0.0
C39 C 0.30869 0.31283 0.19909 0.0
O40 O 0.27943 0.28047 0.19923 0.0
H41 H 0.27836 0.34858 0.30211 0.0
H42 H 0.2227 0.23473 0.30905 0.0
O43 O 0.33651 0.30934 0.33509 0.0
H44 H 0.27856 0.16377 0.27184 0.0
H45 H 0.17908 0.25787 0.33789 0.0
Cu46 Cu 0.75626 0.02064 0.28277 0.0
N47 N 0.75975 0.98004 0.30043 0.0
N48 N 0.74166 0.92463 0.32818 0.0
C49 C 0.7327 0.95044 0.31998 0.0
C50 C 0.77596 0.93887 0.31344 0.0
C51 C 0.78695 0.97288 0.29614 0.0
O52 O 0.7356 0.03294 0.33174 0.0
C53 C 0.7136 0.02124 0.20966 0.0
O54 O 0.71599 0.05099 0.22572 0.0
H55 H 0.70712 0.94829 0.32862 0.0
H56 H 0.81281 0.99093 0.28123 0.0
N57 N 0.80083 0.06249 0.26846 0.0
N58 N 0.83964 0.11794 0.24158 0.0
C59 C 0.80511 0.0898 0.24217 0.0
C60 C 0.83394 0.07391 0.28533 0.0
C61 C 0.85786 0.10795 0.26884 0.0
C62 C 0.75018 0.03488 0.36846 0.0
O63 O 0.77773 0.02919 0.3704 0.0
H64 H 0.78326 0.08945 0.22419 0.0
H65 H 0.84001 0.05914 0.30919 0.0
O66 O 0.72652 1.00461 0.23073 0.0
H67 H 0.79181 0.92542 0.31442 0.0
H68 H 0.88607 0.12464 0.27784 0.0
Cu69 Cu 0.0351 0.3018 0.77388 0.0
N70 N 0.99237 0.25778 0.7601 0.0
N71 N 0.93629 0.22094 0.73386 0.0
C72 C 0.96179 0.25552 0.74396 0.0
C73 C 0.95156 0.20069 0.74395 0.0
C74 C 0.98598 0.22339 0.76025 0.0
O75 O 0.04696 0.33283 0.72339 0.0
C76 C 1.01711 0.30327 0.85881 0.0
O77 O 1.01082 0.26973 0.85599 0.0
H78 H 0.95891 0.27906 0.73824 0.0
H79 H 1.00517 0.21539 0.77074 0.0
N80 N 0.0763 0.29854 0.78862 0.0
N81 N 0.13064 0.3157 0.81884 0.0
C82 C 0.10347 0.32316 0.81388 0.0
C83 C 0.08674 0.27474 0.77663 0.0
C84 C 0.12017 0.28525 0.79516 0.0
C85 C 0.04662 0.31889 0.68677 0.0
O86 O 0.03888 0.28483 0.68524 0.0
H87 H 0.10364 0.3468 0.82718 0.0
H88 H 0.07147 0.25171 0.75547 0.0
O89 O 0.02629 0.32279 0.82485 0.0
H90 H 0.93877 0.17152 0.73978 0.0
H91 H 0.13556 0.27148 0.79145 0.0
Cu92 Cu 0.75661 0.7458 0.78464 0.0
N93 N 0.76136 0.79091 0.80189 0.0
N94 N 0.74561 0.83089 0.8268 0.0
C95 C 0.73392 0.79759 0.8094 0.0
C96 C 0.78195 0.84617 0.82954 0.0
C97 C 0.79155 0.82155 0.81422 0.0
O98 O 0.73734 0.71255 0.8339 0.0
C99 C 0.71687 0.69992 0.71293 0.0
O100 O 0.72006 0.67442 0.733 0.0
H101 H 0.70571 0.77811 0.80316 0.0
H102 H 0.81855 0.82527 0.81381 0.0
N103 N 0.80134 0.74851 0.77179 0.0
N104 N 0.83976 0.73116 0.74582 0.0
C105 C 0.80748 0.72969 0.74079 0.0
C106 C 0.83085 0.76226 0.79737 0.0
C107 C 0.85454 0.75181 0.78144 0.0
C108 C 0.71396 0.71095 0.86083 0.0
O109 O 0.69574 0.72742 0.85189 0.0
H110 H 0.78812 0.71393 0.71591 0.0
H111 H 0.83384 0.77668 0.8273 0.0
O112 O 0.72786 0.73035 0.73173 0.0
H113 H 0.80008 0.87247 0.84375 0.0
H114 H 0.87949 0.75692 0.79676 0.0
Cu115 Cu 0.31029 0.02092 0.77652 0.0
N116 N 0.30582 0.06169 0.76356 0.0
N117 N 0.32196 0.11654 0.73561 0.0
C118 C 0.33105 0.09055 0.74115 0.0
C119 C 0.28978 0.10357 0.75602 0.0
C120 C 0.27983 0.0697 0.77309 0.0
O121 O 0.33231 1.01429 0.72479 0.0
C122 C 0.32532 0.03205 0.86375 0.0
O123 O 0.29173 0.02541 0.86322 0.0
H124 H 0.35606 0.09262 0.72997 0.0
H125 H 0.2555 0.05229 0.7912 0.0
N126 N 0.2665 0.97753 0.78847 0.0
N127 N 0.22905 0.92163 0.815 0.0
C128 C 0.26381 0.94902 0.81099 0.0
C129 C 0.23224 0.96801 0.778 0.0
C130 C 0.20916 0.9337 0.79434 0.0
C131 C 0.31325 1.00624 0.69044 0.0
O132 O 0.27975 0.99967 0.69315 0.0
H133 H 0.28699 0.949 0.82517 0.0
H134 H 0.22455 0.98482 0.75983 0.0
O135 O 0.34032 0.03232 0.82799 0.0
H136 H 0.27436 0.11742 0.75816 0.0
H137 H 0.17995 0.91869 0.79094 0.0
Cu138 Cu 0.69808 0.08118 0.61665 0.0
N139 N 0.65583 0.08267 0.60181 0.0
N140 N 0.5993 0.06187 0.57622 0.0
C141 C 0.62924 0.05845 0.57555 0.0
C142 C 0.60769 0.08968 0.6038 0.0
C143 C 0.64226 0.10214 0.6198 0.0
O144 O 0.71027 0.06204 0.56608 0.0
C145 C 0.70378 0.04363 0.69227 0.0
O146 O 0.73697 0.05362 0.68028 0.0
H147 H 0.6318 0.0383 0.55695 0.0
H148 H 0.65572 0.12268 0.64447 0.0
N149 N 0.7388 0.12666 0.63172 0.0
N150 N 0.79416 0.16707 0.65762 0.0
C151 C 0.77159 0.13236 0.64472 0.0
C152 C 0.74114 0.15934 0.63523 0.0
C153 C 0.77508 0.18421 0.651 0.0
C154 C 0.7114 0.07731 0.53015 0.0
O155 O 0.70637 0.10539 0.53023 0.0
H156 H 0.77869 0.1113 0.64545 0.0
H157 H 0.71958 0.16473 0.62736 0.0
O158 O 0.68376 0.05029 0.66785 0.0
H159 H 0.58951 0.09928 0.61336 0.0
H160 H 0.78484 0.21275 0.65682 0.0
Cu161 Cu 0.97144 0.62774 0.61485 0.0
N162 N 0.96678 0.58302 0.59746 0.0
N163 N 0.98339 0.54468 0.56961 0.0
C164 C 0.99256 0.57978 0.57583 0.0
C165 C 0.95033 0.52501 0.58791 0.0
C166 C 0.94019 0.54871 0.60511 0.0
O167 O 0.99348 0.66074 0.56624 0.0
C168 C 1.0139 0.67132 0.68757 0.0
O169 O 1.01098 0.69833 0.67148 0.0
H170 H 1.01798 0.60286 0.56558 0.0
H171 H 0.91538 0.54144 0.62227 0.0
N172 N 0.92752 0.62664 0.62821 0.0
N173 N 0.89142 0.64696 0.65408 0.0
C174 C 0.92339 0.64759 0.65808 0.0
C175 C 0.89662 0.61154 0.60505 0.0
C176 C 0.87432 0.62379 0.62101 0.0
C177 C 0.97972 0.64839 0.52909 0.0
O178 O 0.95203 0.61512 0.52627 0.0
H179 H 0.94372 0.66351 0.68188 0.0
H180 H 0.89141 0.59437 0.57702 0.0
O181 O 1.00109 0.64153 0.6668 0.0
H182 H 0.93441 0.49561 0.58848 0.0
H183 H 0.84833 0.61758 0.60776 0.0
Cu184 Cu 0.42081 0.35465 0.6164 0.0
N185 N 0.46509 0.39678 0.60372 0.0
N186 N 0.50224 0.45299 0.57811 0.0
C187 C 0.46783 0.42471 0.58 0.0
C188 C 0.52197 0.44207 0.60126 0.0
C189 C 0.49898 0.40754 0.61724 0.0
O190 O 0.39136 0.34605 0.56523 0.0
C191 C 0.41394 0.36472 0.70382 0.0
O192 O 0.44015 0.35702 0.7058 0.0
H193 H 0.44483 0.42407 0.56433 0.0
H194 H 0.50635 0.39177 0.63794 0.0
N195 N 0.42337 0.31253 0.62847 0.0
N196 N 0.4061 0.25622 0.6523 0.0
C197 C 0.39695 0.28227 0.64772 0.0
C198 C 0.45033 0.30553 0.6208 0.0
C199 C 0.4398 0.2709 0.6355 0.0
C200 C 0.40248 0.33874 0.53051 0.0
O201 O 0.43091 0.33446 0.53225 0.0
H202 H 0.37137 0.27939 0.65799 0.0
H203 H 0.4759 0.32433 0.60583 0.0
O204 O 0.40071 0.3651 0.66702 0.0
H205 H 0.55083 0.45826 0.60721 0.0
H206 H 0.45611 0.25794 0.63475 0.0
Cu207 Cu 0.69635 0.63268 0.11792 0.0
N208 N 0.65527 0.58732 0.10493 0.0
N209 N 0.60033 0.54787 0.07763 0.0
C210 C 0.6265 0.58317 0.0818 0.0
C211 C 0.61314 0.5291 0.09948 0.0
C212 C 0.64695 0.55346 0.11623 0.0
O213 O 0.70363 0.66196 0.06653 0.0
C214 C 0.68711 0.63862 0.20615 0.0
O215 O 0.69541 0.61274 0.20705 0.0
H216 H 0.6249 0.60575 0.06808 0.0
H217 H 0.66398 0.54695 0.13575 0.0
N218 N 0.73958 0.63208 0.12947 0.0
N219 N 0.79592 0.65116 0.15455 0.0
C220 C 0.76862 0.65858 0.15066 0.0
C221 C 0.74869 0.60685 0.11967 0.0
C222 C 0.78326 0.61845 0.13519 0.0
C223 C 0.70979 0.65016 0.03149 0.0
O224 O 0.71342 0.62125 0.03316 0.0
H225 H 0.76914 0.68239 0.16395 0.0
H226 H 0.73144 0.58179 0.10249 0.0
O227 O 0.6856 0.65177 0.16965 0.0
H228 H 0.59877 0.49994 0.10414 0.0
H229 H 0.79805 0.60401 0.13208 0.0
Cu230 Cu 0.42253 0.07926 0.11349 0.0
N231 N 0.46726 0.08194 0.10155 0.0
N232 N 0.5064 0.06521 0.07684 0.0
C233 C 0.47121 0.05609 0.08079 0.0
C234 C 0.52533 0.09831 0.09565 0.0
C235 C 0.50119 0.1085 0.11085 0.0
O236 O 0.3922 0.05897 0.06253 0.0
C237 C 0.4191 0.06189 0.19994 0.0
O238 O 0.45138 0.09118 0.19856 0.0
H239 H 0.44858 0.03092 0.06898 0.0
H240 H 0.50792 0.1336 0.12727 0.0
N241 N 0.42453 0.12363 0.12604 0.0
N242 N 0.40491 0.16047 0.15113 0.0
C243 C 0.39882 0.12603 0.14891 0.0
C244 C 0.44801 0.15783 0.11345 0.0
C245 C 0.43612 0.18062 0.1291 0.0
C246 C 0.40596 0.07271 1.02595 0.0
O247 O 0.43972 0.09951 1.02451 0.0
H248 H 0.37614 0.10273 0.16384 0.0
H249 H 0.47168 0.16557 0.09366 0.0
O250 O 0.40139 0.04983 0.1648 0.0
H251 H 0.55458 0.11448 0.09744 0.0
H252 H 0.449 0.20964 0.12373 0.0
Cu253 Cu 0.96898 0.35181 0.10498 0.0
N254 N 0.96481 0.39276 0.08966 0.0
N255 N 0.98186 0.44913 0.06526 0.0
C256 C 0.99283 0.42594 0.07915 0.0
C257 C 0.9453 0.42968 0.06765 0.0
C258 C 0.93493 0.39518 0.08275 0.0
O259 O 0.98493 0.33699 0.05387 0.0
C260 C 0.98816 0.36821 0.18995 0.0
O261 O 0.95564 0.36446 0.18971 0.0
H262 H 1.02074 0.43244 0.08024 0.0
H263 H 0.90745 0.37325 0.08733 0.0
N264 N 0.92563 0.30975 0.12198 0.0
N265 N 0.89043 0.25418 0.15082 0.0
C266 C 0.92412 0.28372 0.14851 0.0
C267 C 0.89166 0.29615 0.10682 0.0
C268 C 0.86991 0.26219 0.12484 0.0
C269 C 1.01247 0.35708 0.03068 0.0
O270 O 0.03594 0.38998 0.04398 0.0
H271 H 0.94758 0.2864 0.16535 0.0
H272 H 0.88352 0.30917 0.08291 0.0
O273 O 1.00141 0.36509 0.15435 0.0
H274 H 0.92717 0.43947 0.0586 0.0
H275 H 0.84146 0.24412 0.11787 0.0
Cu276 Cu 0.36332 0.41251 0.95136 0.0
N277 N 0.40587 0.45655 0.96519 0.0
N278 N 0.46194 0.49364 0.99136 0.0
C279 C 0.4346 0.45886 0.98664 0.0
C280 C 0.44964 0.51398 0.97225 0.0
C281 C 0.41525 0.4911 0.95597 0.0
O282 O 0.35163 0.38128 1.00164 0.0
C283 C 0.37463 0.40768 0.86448 0.0
O284 O 0.36984 0.43591 0.86449 0.0
H285 H 0.43501 0.43532 0.99921 0.0
H286 H 0.39843 0.49909 0.93841 0.0
N287 N 0.32181 0.41574 0.93779 0.0
N288 N 0.26646 0.39894 0.91105 0.0
C289 C 0.29289 0.39035 0.91532 0.0
C290 C 0.31349 0.44146 0.94806 0.0
C291 C 0.27951 0.43126 0.93153 0.0
C292 C 0.35165 0.39491 0.03837 0.0
O293 O 0.3594 0.42896 0.0403 0.0
H294 H 0.29113 0.36573 0.90273 0.0
H295 H 0.33087 0.46589 0.96624 0.0
O296 O 0.3737 0.39258 0.9004 0.0
H297 H 0.46465 0.54333 0.96961 0.0
H298 H 0.26585 0.44687 0.93379 0.0
Cu299 Cu 0.64405 0.96742 0.94935 0.0
N300 N 0.64167 0.92294 0.93557 0.0
N301 N 0.65949 0.8859 0.90602 0.0
C302 C 0.66929 0.92041 0.91773 0.0
C303 C 0.62426 0.86596 0.91774 0.0
C304 C 0.61337 0.88877 0.9357 0.0
O305 O 0.66571 0.99724 0.89841 0.0
C306 C 0.66159 0.96815 0.03541 0.0
O307 O 0.63491 0.93439 0.03187 0.0
H308 H 0.69604 0.94377 0.91348 0.0
H309 H 0.58648 0.88101 0.94702 0.0
N310 N 0.59953 0.96517 0.96138 0.0
N311 N 0.56178 0.9825 0.98937 0.0
C312 C 0.59657 0.99029 0.98514 0.0
C313 C 0.56539 0.94068 0.94976 0.0
C314 C 0.54214 0.95133 0.96683 0.0
C315 C 0.64749 0.98567 0.86352 0.0
O316 O 0.61474 0.95711 0.8652 0.0
H317 H 0.61981 1.01428 0.99822 0.0
H318 H 0.55785 0.9169 0.93006 0.0
O319 O 0.67247 0.98791 1.00164 0.0
H320 H 0.60711 0.837 0.91259 0.0
H321 H 0.51296 0.937 0.96317 0.0
Cu322 Cu 0.08715 0.68955 0.94643 0.0
N323 N 0.08761 0.64633 0.95975 0.0
N324 N 0.06965 0.59099 0.98759 0.0
C325 C 0.06008 0.61612 0.97795 0.0
C326 C 0.10439 0.60579 0.97439 0.0
C327 C 0.11535 0.6398 0.95729 0.0
O328 O 0.06842 0.70201 0.99692 0.0
C329 C 0.06852 0.67286 0.86074 0.0
O330 O 0.09505 0.66569 0.86381 0.0
H331 H 0.03394 0.61317 0.98541 0.0
H332 H 0.14191 0.65865 0.94461 0.0
N333 N 0.13268 0.73017 0.93344 0.0
N334 N 0.17269 0.78467 0.90561 0.0
C335 C 0.13753 0.75804 0.90787 0.0
C336 C 0.16592 0.73965 0.94837 0.0
C337 C 0.19062 0.77315 0.9312 0.0
C338 C 0.08072 0.70031 0.0339 0.0
O339 O 0.10509 0.69009 0.03621 0.0
H340 H 0.11553 0.75886 0.89141 0.0
H341 H 0.17169 0.72384 0.971 0.0
O342 O 0.0583 0.68214 0.89473 0.0
H343 H 0.12073 0.59293 0.97689 0.0
H344 H 0.21934 0.78838 0.93833 0.0
Cu345 Cu 0.3661 0.96326 0.44441 0.0
N346 N 0.32606 0.91886 0.42521 0.0
N347 N 0.27026 0.88008 0.39973 0.0
C348 C 0.29243 0.91322 0.41703 0.0
C349 C 0.29041 0.86378 0.39767 0.0
C350 C 0.32472 0.88768 0.41339 0.0
O351 O 0.38195 0.99715 0.3959 0.0
C352 C 0.36709 1.00688 0.51709 0.0
O353 O 0.39786 0.03336 0.50203 0.0
H354 H 0.2843 0.93317 0.42323 0.0
H355 H 0.34728 0.88287 0.41489 0.0
N356 N 0.4072 0.95975 0.45999 0.0
N357 N 0.46227 0.97634 0.48763 0.0
C358 C 0.43253 0.97996 0.49006 0.0
C359 C 0.42176 0.943 0.43762 0.0
C360 C 0.45544 0.95294 0.45467 0.0
C361 C 0.36101 1.00093 0.36972 0.0
O362 O 0.32653 0.98641 0.37907 0.0
H363 H 0.43 0.99813 0.51232 0.0
H364 H 0.40994 0.92675 0.40892 0.0
O365 O 0.34965 0.97758 0.49547 0.0
H366 H 0.28149 0.83712 0.38405 0.0
H367 H 0.47442 0.94547 0.44182 0.0
Cu368 Cu 0.08805 0.41465 0.43783 0.0
N369 N 0.08866 0.45827 0.45171 0.0
N370 N 0.06941 0.49431 0.4805 0.0
C371 C 0.06327 0.45995 0.47618 0.0
C372 C 0.0997 0.51496 0.45711 0.0
C373 C 0.11144 0.49275 0.43942 0.0
O374 O 0.07002 0.38424 0.48899 0.0
C375 C 0.07021 0.40749 0.35081 0.0
O376 O 0.10392 0.4343 0.34879 0.0
H377 H 0.04014 0.43605 0.48948 0.0
H378 H 0.1346 0.50117 0.41853 0.0
N379 N 0.13299 0.41881 0.42339 0.0
N380 N 0.17175 0.40206 0.39718 0.0
C381 C 0.13707 0.39114 0.40848 0.0
C382 C 0.16625 0.4484 0.42152 0.0
C383 C 0.19007 0.43826 0.40521 0.0
C384 C 0.08536 0.39918 0.5246 0.0
O385 O 0.11264 0.43278 0.52402 0.0
H386 H 0.11476 0.36351 0.40553 0.0
H387 H 0.17267 0.47561 0.43024 0.0
O388 O 0.05686 0.39391 0.38762 0.0
H389 H 0.11255 0.54413 0.45303 0.0
H390 H 0.21839 0.45665 0.39826 0.0
Cu391 Cu 0.64233 0.68939 0.45619 0.0
N392 N 0.63947 0.73089 0.44111 0.0
N393 N 0.6558 0.7856 0.41257 0.0
C394 C 0.66539 0.76014 0.41974 0.0
C395 C 0.62267 0.77193 0.43071 0.0
C396 C 0.6127 0.73827 0.44824 0.0
O397 O 0.66324 0.67874 0.406 0.0
C398 C 0.68236 0.68303 0.52801 0.0
O399 O 0.68189 0.656 0.50677 0.0
H400 H 0.69062 0.76243 0.40904 0.0
H401 H 0.58776 0.72052 0.46513 0.0
N402 N 0.59713 0.64757 0.46783 0.0
N403 N 0.55711 0.59183 0.49265 0.0
C404 C 0.5921 0.61891 0.49198 0.0
C405 C 0.56404 0.63816 0.45238 0.0
C406 C 0.53935 0.60389 0.46761 0.0
C407 C 0.64779 0.67745 0.37012 0.0
O408 O 0.61929 0.68164 0.37055 0.0
H409 H 0.61369 0.61768 0.50867 0.0
H410 H 0.55837 0.65463 0.43068 0.0
O411 O 0.66993 0.70139 0.50991 0.0
H412 H 0.60698 0.78554 0.43201 0.0
H413 H 0.51082 0.5886 0.45953 0.0
C414 C 0.06498 0.70849 0.15328 0.0
C415 C 0.05094 0.73218 0.15366 0.0
C416 C 0.074 0.69801 0.11434 0.0
C417 C 0.06884 0.71034 0.07414 0.0
H418 H 0.06985 0.69857 0.18332 0.0
H419 H 0.08529 0.68019 0.11585 0.0
S420 S 0.03108 0.77128 0.05709 0.0
N421 N 0.03106 0.76667 0.11006 0.0
N422 N 0.04769 0.74663 0.03708 0.0
C423 C 0.05386 0.73319 0.07394 0.0
C424 C 0.04504 0.74423 0.11362 0.0
C425 C 0.35149 0.39095 0.1191 0.0
C426 C 0.34246 0.37315 0.07869 0.0
C427 C 0.34152 0.37134 0.15797 0.0
C428 C 0.32159 0.33315 0.15793 0.0
H429 H 0.36621 0.42039 0.12085 0.0
H430 H 0.34858 0.38625 0.1882 0.0
S431 S 0.29304 0.27328 0.06108 0.0
N432 N 0.314 0.31494 0.04125 0.0
N433 N 0.29487 0.27809 0.11413 0.0
C434 C 0.31314 0.31495 0.11782 0.0
C435 C 0.3237 0.33492 0.07826 0.0
C436 C 0.68734 0.97222 0.15351 0.0
C437 C 0.69928 1.00851 0.16533 0.0
C438 C 0.67563 0.95968 0.11135 0.0
C439 C 0.67612 0.98306 0.07891 0.0
H440 H 0.68689 0.95317 0.1771 0.0
H441 H 0.66635 0.93139 0.10405 0.0
S442 S 0.70448 0.08051 0.09269 0.0
N443 N 0.71036 0.06768 0.14095 0.0
N444 N 0.68891 0.04414 0.0615 0.0
C445 C 0.68803 0.01945 0.09007 0.0
C446 C 0.69937 0.03213 0.13332 0.0
C447 C 0.73779 0.04554 0.48828 0.0
C448 C 0.71857 0.06439 0.48869 0.0
C449 C 0.74723 0.03564 0.44921 0.0
C450 C 0.73734 0.04366 0.40892 0.0
H451 H 0.74655 0.03928 0.51832 0.0
H452 H 0.76273 0.02182 0.45069 0.0
S453 S 0.68405 0.08985 0.39235 0.0
N454 N 0.68806 0.08888 0.44535 0.0
N455 N 0.70547 0.06985 0.3721 0.0
C456 C 0.71687 0.06122 0.40891 0.0
C457 C 0.70763 0.07173 0.44871 0.0
C458 C 0.98353 0.65309 0.44854 0.0
C459 C 0.99347 0.67052 0.48915 0.0
C460 C 0.99362 0.67296 0.40991 0.0
C461 C 1.01369 0.71115 0.41028 0.0
H462 H 0.96737 0.62372 0.44643 0.0
H463 H 0.98466 0.65828 0.3796 0.0
S464 S 0.04897 0.76999 0.50778 0.0
N465 N 0.02644 0.72823 0.52718 0.0
N466 N 0.04524 0.7657 0.4547 0.0
C467 C 0.02485 0.72895 0.4506 0.0
C468 C 1.01485 0.70864 0.48997 0.0
C469 C 0.39169 0.32026 0.45281 0.0
C470 C 0.3859 0.33774 0.48801 0.0
C471 C 0.37773 0.31997 0.41169 0.0
C472 C 0.3579 0.33769 0.40384 0.0
H473 H 0.40698 0.30641 0.45704 0.0
H474 H 0.38264 0.30578 0.38583 0.0
S475 S 0.33569 0.3881 0.48498 0.0
N476 N 0.35917 0.37351 0.5123 0.0
N477 N 0.33328 0.3734 0.435 0.0
C478 C 0.35219 0.35561 0.4387 0.0
C479 C 0.36601 0.35546 0.48078 0.0
C480 C 0.99468 0.29442 0.93473 0.0
C481 C 1.01612 0.31824 0.90174 0.0
C482 C 0.99417 0.3072 0.97633 0.0
C483 C 1.01555 0.34431 0.98697 0.0
H484 H 0.97786 0.26557 0.92833 0.0
H485 H 0.9768 0.28772 1.00035 0.0
S486 S 0.07785 0.4178 0.91256 0.0
N487 N 0.06007 0.38059 0.88261 0.0
N488 N 0.05951 0.40473 0.96092 0.0
C489 C 0.03764 0.36842 0.95439 0.0
C490 C 0.03776 0.35539 0.91176 0.0
C491 C 0.72484 0.65768 0.95264 0.0
C492 C 0.71075 0.66668 0.98876 0.0
C493 C 0.72519 0.67157 0.91143 0.0
C494 C 0.711 0.69471 0.90433 0.0
H495 H 0.736 0.63985 0.95614 0.0
H496 H 0.73675 0.66409 0.88493 0.0
S497 S 0.67058 0.72654 0.98795 0.0
N498 N 0.6821 0.70022 1.01462 0.0
N499 N 0.68241 0.72613 0.93726 0.0
C500 C 0.69652 0.70375 0.94011 0.0
C501 C 0.69655 0.68988 0.98226 0.0
C502 C 0.40261 0.06944 0.94514 0.0
C503 C 0.38459 0.05983 0.9853 0.0
C504 C 0.38336 0.0595 0.90599 0.0
C505 C 0.34526 0.03998 0.90539 0.0
H506 H 0.43194 0.08505 0.94381 0.0
H507 H 0.39847 0.06802 0.87603 0.0
S508 S 0.28499 1.00641 1.00144 0.0
N509 N 0.32634 0.02821 1.02185 0.0
N510 N 0.29014 1.0098 0.94846 0.0
C511 C 0.32687 0.02946 0.94527 0.0
C512 C 0.34651 0.03926 0.98514 0.0
C513 C 0.30513 0.98415 0.61436 0.0
C514 C 0.32845 1.00656 0.64725 0.0
C515 C 0.31783 0.98495 0.57239 0.0
C516 C 0.35427 1.00877 0.56121 0.0
H517 H 0.27676 0.96554 0.62114 0.0
H518 H 0.2988 0.96672 0.54846 0.0
S519 S 0.42616 0.07429 0.63521 0.0
N520 N 0.38957 0.0539 0.66579 0.0
N521 N 0.4135 0.05591 0.58668 0.0
C522 C 0.37784 0.03183 0.59368 0.0
C523 C 0.36495 0.03054 0.63675 0.0
C524 C 0.04718 0.32196 0.60596 0.0
C525 C 0.05497 0.34016 0.64608 0.0
C526 C 0.05608 0.34109 0.56679 0.0
C527 C 0.07361 0.37925 0.56616 0.0
H528 H 0.03425 0.29258 0.60464 0.0
H529 H 0.05004 0.32589 0.53684 0.0
S530 S 0.09781 0.43993 0.66193 0.0
N531 N 0.07954 0.39861 0.68248 0.0
N532 N 0.09655 0.43458 0.60899 0.0
C533 C 0.08074 0.3978 0.60594 0.0
C534 C 0.07134 0.37828 0.64585 0.0
C535 C 0.6973 0.66296 0.59767 0.0
C536 C 0.69227 0.68876 0.57482 0.0
C537 C 0.70419 0.66627 0.64234 0.0
C538 C 0.70656 0.69564 0.66627 0.0
H539 H 0.69554 0.63968 0.58106 0.0
H540 H 0.70816 0.64577 0.65807 0.0
S541 S 0.69549 0.77081 0.62213 0.0
N542 N 0.69017 0.74486 0.57985 0.0
N543 N 0.70308 0.75104 0.66349 0.0
C544 C 0.70156 0.72166 0.64387 0.0
C545 C 0.69447 0.71826 0.59835 0.0
C546 C 0.40078 0.37541 0.82334 0.0
C547 C 0.38203 0.39476 0.82328 0.0
C548 C 0.41043 0.36539 0.78453 0.0
C549 C 0.40126 0.37383 0.7441 0.0
H550 H 0.40899 0.36883 0.85356 0.0
H551 H 0.42551 0.35114 0.78634 0.0
S552 S 0.34957 0.42163 0.72634 0.0
N553 N 0.35283 0.42028 0.77939 0.0
N554 N 0.37067 0.40115 0.70659 0.0
C555 C 0.38134 0.39202 0.74362 0.0
C556 C 0.37186 0.40259 0.78314 0.0
C557 C 0.65312 1.01078 0.74504 0.0
C558 C 0.69047 0.02809 0.73598 0.0
C559 C 0.63973 0.99764 0.78646 0.0
C560 C 0.6631 1.00179 0.82087 0.0
H561 H 0.63392 1.00723 0.71988 0.0
H562 H 0.61071 0.98427 0.79159 0.0
S563 S 0.76316 0.04466 0.8146 0.0
N564 N 0.75072 0.04826 0.76514 0.0
N565 N 0.7254 0.02386 0.8431 0.0
C566 C 0.70051 0.01905 0.81247 0.0
C567 C 0.7142 0.03203 0.77002 0.0
C568 C 0.05556 0.65109 0.78439 0.0
C569 C 0.05322 0.67252 0.81753 0.0
C570 C 0.04319 0.6513 0.74249 0.0
C571 C 0.02864 0.67353 0.73166 0.0
H572 H 0.06689 0.63375 0.79088 0.0
H573 H 0.04523 0.63395 0.71829 0.0
S574 S 1.01671 0.73513 0.80641 0.0
N575 N 0.03514 0.71668 0.83669 0.0
N576 N 1.01237 0.71752 0.75766 0.0
C577 C 0.02635 0.69538 0.76436 0.0
C578 C 0.03842 0.69469 0.80736 0.0
C579 C 0.67912 0.65119 0.32686 0.0
C580 C 0.66042 0.67055 0.32829 0.0
C581 C 0.68806 0.64154 0.28721 0.0
C582 C 0.67912 0.65128 0.24739 0.0
H583 H 0.68591 0.64242 0.35651 0.0
H584 H 0.7018 0.62593 0.28788 0.0
S585 S 0.63298 0.70502 0.23361 0.0
N586 N 0.63522 0.70118 0.28644 0.0
N587 N 0.65227 0.68332 0.21224 0.0
C588 C 0.66169 0.67192 0.24846 0.0
C589 C 0.65226 0.68143 0.28879 0.0
C590 C 0.42617 0.05323 0.27853 0.0
C591 C 0.40324 0.04535 0.24244 0.0
C592 C 0.41225 0.03929 0.31958 0.0
C593 C 0.37473 0.01733 0.32649 0.0
H594 H 0.45527 0.07015 0.27508 0.0
H595 H 0.43113 0.0458 0.34611 0.0
S596 S 0.30284 0.98903 0.24286 0.0
N597 N 0.34102 1.01432 0.21638 0.0
N598 N 0.31474 0.98838 0.29349 0.0
C599 C 0.35139 1.00951 0.29075 0.0
C600 C 0.36565 0.02337 0.24876 0.0
C601 C 0.06606 0.40288 0.27017 0.0
C602 C 0.04839 0.39467 0.31055 0.0
C603 C 0.04645 0.39333 0.23127 0.0
C604 C 1.00841 0.37573 0.23123 0.0
H605 H 0.09539 0.41711 0.26848 0.0
H606 H 0.06127 0.40071 0.20107 0.0
S607 S 0.94894 0.34617 0.3281 0.0
N608 N 0.9905 0.36625 0.34795 0.0
N609 N 0.95362 0.34865 0.27505 0.0
C610 C 0.99034 0.36653 0.27136 0.0
C611 C 1.01031 0.37586 0.31095 0.0
C612 C 0.22685 0.88936 0.35595 0.0
C613 C 0.2343 0.86681 0.38209 0.0
C614 C 0.19244 0.87654 0.33718 0.0
C615 C 0.16376 0.8407 0.34412 0.0
H616 H 0.2481 0.91692 0.34916 0.0
H617 H 0.18849 0.89478 0.3165 0.0
S618 S 0.16851 0.77224 0.41442 0.0
N619 N 0.20992 0.8078 0.41611 0.0
N620 N 0.145 0.78396 0.38255 0.0
C621 C 0.17075 0.81824 0.37136 0.0
C622 C 0.206 0.83121 0.38988 0.0
C623 C 0.17573 0.32669 0.33598 0.0
C624 C 0.21193 0.33515 0.34152 0.0
C625 C 0.16292 0.34866 0.35391 0.0
C626 C 0.18563 0.37991 0.37866 0.0
H627 H 0.15722 0.303 0.31729 0.0
H628 H 0.13502 0.34119 0.34794 0.0
S629 S 0.28192 0.41203 0.40616 0.0
N630 N 0.26979 0.37596 0.3754 0.0
N631 N 0.24579 0.41658 0.40977 0.0
C632 C 0.22179 0.38828 0.38498 0.0
C633 C 0.23488 0.36612 0.36631 0.0
C634 C 0.73573 0.87449 0.37516 0.0
C635 C 0.71961 0.88949 0.34871 0.0
C636 C 0.71484 0.84061 0.39567 0.0
C637 C 0.67688 0.82025 0.39075 0.0
H638 H 0.76472 0.88933 0.38063 0.0
H639 H 0.72847 0.83054 0.41615 0.0
S640 S 0.62172 0.84507 0.32111 0.0
N641 N 0.66346 0.87962 0.31612 0.0
N642 N 0.62443 0.81641 0.35477 0.0
C643 C 0.6605 0.83453 0.3637 0.0
C644 C 0.68175 0.86896 0.3427 0.0
C645 C 0.83079 0.16762 0.21297 0.0
C646 C 0.85317 0.15235 0.21903 0.0
C647 C 0.84323 0.20083 0.19109 0.0
C648 C 0.87864 0.2204 0.1742 0.0
H649 H 0.80348 0.15401 0.22573 0.0
H650 H 0.825 0.21147 0.18772 0.0
S651 S 0.94714 0.1908 0.17793 0.0
N652 N 0.91196 0.1586 0.20415 0.0
N653 N 0.93523 0.22065 0.16303 0.0
C654 C 0.90121 0.20525 0.17961 0.0
C655 C 0.88853 0.17141 0.20197 0.0
C656 C 0.84769 0.65573 0.19694 0.0
C657 C 0.83077 0.67276 0.17592 0.0
C658 C 0.88136 0.67605 0.21802 0.0
C659 C 0.89963 0.71435 0.21923 0.0
H660 H 0.83453 0.62635 0.19771 0.0
H661 H 0.89288 0.6616 0.23419 0.0
S662 S 0.86928 0.77256 0.16546 0.0
N663 N 0.83662 0.73063 0.15508 0.0
N664 N 0.89939 0.76854 0.19493 0.0
C665 C 0.88341 0.73178 0.19773 0.0
C666 C 0.8492 0.71111 0.17608 0.0
C667 C 0.37798 0.22058 0.21234 0.0
C668 C 0.33996 0.1989 0.2153 0.0
C669 C 0.39891 0.20797 0.19127 0.0
C670 C 0.38276 0.17315 0.17214 0.0
H671 H 0.39177 0.24725 0.22722 0.0
H672 H 0.42807 0.22542 0.19065 0.0
S673 S 0.2838 0.10747 0.16633 0.0
N674 N 0.28687 0.142 0.19436 0.0
N675 N 0.32586 0.1185 0.1546 0.0
C676 C 0.34465 0.15162 0.17388 0.0
C677 C 0.32339 0.16442 0.19545 0.0
C678 C 0.85264 0.16761 0.66443 0.0
C679 C 0.83017 0.18172 0.67642 0.0
C680 C 0.88711 0.18051 0.68318 0.0
C681 C 0.90085 0.20829 0.71463 0.0
H682 H 0.84365 0.14653 0.64006 0.0
H683 H 0.90335 0.1689 0.67262 0.0
S684 S 0.85209 0.25243 0.76048 0.0
N685 N 0.82375 0.22369 0.72421 0.0
N686 N 0.88846 0.24813 0.75857 0.0
C687 C 0.87869 0.22249 0.72719 0.0
C688 C 0.84347 0.20921 0.70835 0.0
C689 C 0.84183 0.65499 0.68442 0.0
C690 C 0.87913 0.66859 0.67735 0.0
C691 C 0.82916 0.6756 0.70623 0.0
C692 C 0.85322 0.71081 0.72206 0.0
H693 H 0.8222 0.62791 0.67348 0.0
H694 H 0.80029 0.66353 0.71145 0.0
S695 S 0.95319 0.76081 0.70847 0.0
N696 N 0.93976 0.72096 0.68551 0.0
N697 N 0.91602 0.7592 0.72667 0.0
C698 C 0.89051 0.72502 0.7146 0.0
C699 C 0.90343 0.70411 0.69227 0.0
C700 C 0.34217 0.18227 0.72861 0.0
C701 C 0.34268 0.15119 0.71365 0.0
C702 C 0.36271 0.2163 0.70835 0.0
C703 C 0.38473 0.22079 0.67227 0.0
H704 H 0.32628 0.18045 0.75675 0.0
H705 H 0.36186 0.23947 0.72155 0.0
S706 S 0.39254 0.14732 0.61724 0.0
N707 N 0.36499 0.12675 0.65821 0.0
N708 N 0.40361 0.19047 0.62056 0.0
C709 C 0.38488 0.18979 0.65639 0.0
C710 C 0.36389 0.15512 0.67692 0.0
C711 C 0.18125 0.87053 0.85771 0.0
C712 C 0.21554 0.88722 0.83758 0.0
C713 C 0.16746 0.83715 0.87962 0.0
C714 C 0.18736 0.81896 0.88263 0.0
H715 H 0.16505 0.8836 0.85706 0.0
H716 H 0.14118 0.82577 0.89495 0.0
S717 S 0.27696 0.84893 0.8323 0.0
N718 N 0.26794 0.88135 0.81986 0.0
N719 N 0.24224 0.81912 0.86133 0.0
C720 C 0.22144 0.83502 0.86224 0.0
C721 C 0.23545 0.86894 0.83971 0.0
C722 C 0.19652 0.33812 0.82843 0.0
C723 C 0.16436 0.33655 0.84275 0.0
C724 C 0.22955 0.35838 0.85085 0.0
C725 C 0.23204 0.37813 0.88858 0.0
H726 H 0.19634 0.324 0.79921 0.0
H727 H 0.25352 0.35906 0.83809 0.0
S728 S 0.15527 0.38034 0.94229 0.0
N729 N 0.13689 0.35476 0.89907 0.0
N730 N 0.19871 0.39285 0.94073 0.0
C731 C 0.20001 0.37637 0.90368 0.0
C732 C 0.16633 0.35563 0.88094 0.0
C733 C 0.69364 0.82272 0.87127 0.0
C734 C 0.72367 0.84487 0.845 0.0
C735 C 0.67308 0.83633 0.89104 0.0
C736 C 0.6813 0.87264 0.88506 0.0
H737 H 0.68654 0.79484 0.87746 0.0
H738 H 0.65088 0.81828 0.91179 0.0
S739 S 0.75516 0.94058 0.81503 0.0
N740 N 0.75955 0.90416 0.81203 0.0
N741 N 0.72039 0.92951 0.84742 0.0
C742 C 0.7108 0.89476 0.85771 0.0
C743 C 0.73204 0.88096 0.83817 0.0
C744 C 0.55017 0.50592 0.53808 0.0
C745 C 0.5153 0.48772 0.55658 0.0
C746 C 0.56352 0.5397 0.51727 0.0
C747 C 0.54261 0.55684 0.51395 0.0
H748 H 0.56718 0.49374 0.53924 0.0
H749 H 0.59033 0.55228 0.50314 0.0
S750 S 0.45088 0.52247 0.56038 0.0
N751 N 0.46102 0.49077 0.57245 0.0
N752 N 0.48598 0.55388 0.53326 0.0
C753 C 0.50787 0.53919 0.53274 0.0
C754 C 0.49428 0.50481 0.55403 0.0
C755 C 0.54347 0.05494 0.54169 0.0
C756 C 0.56485 0.03971 0.5542 0.0
C757 C 0.50989 0.03408 0.52064 0.0
C758 C 0.4962 0.99705 0.51091 0.0
H759 H 0.55302 0.08344 0.54766 0.0
H760 H 0.49488 0.04728 0.51106 0.0
S761 S 0.5392 0.94277 0.54036 0.0
N762 N 0.568 0.98414 0.55797 0.0
N763 N 0.50551 0.94545 0.51782 0.0
C764 C 0.51687 0.98127 0.52381 0.0
C765 C 0.55096 1.00241 0.54553 0.0
C766 C 0.0455 0.53671 0.4887 0.0
C767 C 0.04764 0.50646 0.50354 0.0
C768 C 0.0246 0.54899 0.5104 0.0
C769 C 1.00464 0.53144 0.54775 0.0
H770 H 0.05974 0.55081 0.45968 0.0
H771 H 0.02361 0.57214 0.49745 0.0
S772 S 1.0037 0.45343 0.60281 0.0
N773 N 0.02985 0.46102 0.56022 0.0
N774 N 0.99021 0.48365 0.60023 0.0
C775 C 1.00686 0.5015 0.56335 0.0
C776 C 0.02839 0.48915 0.54148 0.0
C777 C 0.51346 0.54019 0.03497 0.0
C778 C 0.4967 0.50666 1.01277 0.0
C779 C 0.54713 0.55341 0.05592 0.0
C780 C 0.56564 0.5337 0.05572 0.0
H781 H 0.50018 0.5562 0.03671 0.0
H782 H 0.55852 0.57909 0.07298 0.0
S783 S 0.53558 0.44623 0.9986 0.0
N784 N 0.50276 0.45529 0.9895 0.0
N785 N 0.56564 0.47996 1.02887 0.0
C786 C 0.54952 0.50042 0.03308 0.0
C787 C 0.51525 0.48698 1.01166 0.0
C788 C 0.51732 1.00385 0.99691 0.0
C789 C 0.54827 1.00332 1.01207 0.0
C790 C 0.50377 0.02387 1.01825 0.0
C791 C 0.5206 0.04442 0.05566 0.0
H792 H 0.5037 0.98907 0.96787 0.0
H793 H 0.48024 0.02375 1.00489 0.0
S794 S 0.60013 0.04939 0.11144 0.0
N795 N 0.59372 0.02327 0.06896 0.0
N796 N 0.56857 0.06099 0.10855 0.0
C797 C 0.55119 0.04369 0.07162 0.0
C798 C 0.56492 0.02317 0.05001 0.0
C799 C 1.01131 0.53316 0.99629 0.0
C800 C 0.0477 0.55606 1.00843 0.0
C801 C 0.99 0.4986 1.01516 0.0
C802 C 1.00401 0.48551 0.04744 0.0
H803 H 0.99948 0.54172 0.97121 0.0
H804 H 0.96253 0.48171 1.00362 0.0
S805 S 0.09656 0.53729 0.09466 0.0
N806 N 0.09604 0.5645 0.05698 0.0
N807 N 0.05607 0.50036 0.09326 0.0
C808 C 0.04011 0.50885 0.06088 0.0
C809 C 0.06187 0.54384 0.04124 0.0
loop_
_geom_bond_atom_site_label_1
_geom_bond_atom_site_label_2
_geom_bond_distance
_geom_bond_site_symmetry_2
_ccdc_geom_bond_type
Cu0 N1 1.999 . S
Cu0 O6 1.974 1_455 S
Cu0 N11 1.985 1_455 S
Cu0 O20 1.959 . S
N1 Cu0 1.999 . S
N1 C3 1.263 . S
N1 C5 1.389 . S
N2 C3 1.358 . S
N2 C4 1.400 . S
C3 N1 1.263 . S
C3 N2 1.358 . S
C3 H9 0.930 . S
C4 N2 1.400 . S
C4 C5 1.351 . S
C4 H21 0.930 . S
C5 N1 1.389 . S
C5 C4 1.351 . S
C5 H10 0.930 . S
O6 Cu0 1.974 1_655 S
O6 C16 1.282 . S
C7 O8 1.261 . S
C7 O20 1.251 . S
O8 C7 1.261 . S
H9 C3 0.930 . S
H10 C5 0.930 . S
N11 Cu0 1.985 1_655 S
N11 C13 1.335 . S
N11 C14 1.390 . S
N12 C13 1.345 . S
N12 C15 1.336 . S
C13 N11 1.335 . S
C13 N12 1.345 . S
C13 H18 0.930 . S
C14 N11 1.390 . S
C14 C15 1.346 . S
C14 H19 0.930 . S
C15 N12 1.336 . S
C15 C14 1.346 . S
C15 H22 0.929 . S
C16 O6 1.282 . S
C16 O17 1.216 . S
O17 C16 1.216 . S
H18 C13 0.930 . S
H19 C14 0.930 . S
O20 Cu0 1.959 . S
O20 C7 1.251 . S
H21 C4 0.930 . S
H22 C15 0.929 . S
Cu23 N24 1.999 . S
Cu23 O29 1.974 . S
Cu23 N34 1.985 . S
Cu23 O43 1.959 . S
N24 Cu23 1.999 . S
N24 C26 1.263 . S
N24 C28 1.389 . S
N25 C26 1.358 . S
N25 C27 1.400 . S
C26 N24 1.263 . S
C26 N25 1.358 . S
C26 H32 0.930 . S
C27 N25 1.400 . S
C27 C28 1.351 . S
C27 H44 0.930 . S
C28 N24 1.389 . S
C28 C27 1.351 . S
C28 H33 0.930 . S
O29 Cu23 1.974 . S
O29 C39 1.282 . S
C30 O31 1.261 . S
C30 O43 1.251 . S
O31 C30 1.261 . S
H32 C26 0.930 . S
H33 C28 0.930 . S
N34 Cu23 1.985 . S
N34 C36 1.335 . S
N34 C37 1.390 . S
N35 C36 1.345 . S
N35 C38 1.336 . S
C36 N34 1.335 . S
C36 N35 1.345 . S
C36 H41 0.930 . S
C37 N34 1.390 . S
C37 C38 1.346 . S
C37 H42 0.930 . S
C38 N35 1.336 . S
C38 C37 1.346 . S
C38 H45 0.929 . S
C39 O29 1.282 . S
C39 O40 1.216 . S
O40 C39 1.216 . S
H41 C36 0.930 . S
H42 C37 0.930 . S
O43 Cu23 1.959 . S
O43 C30 1.251 . S
H44 C27 0.930 . S
H45 C38 0.929 . S
Cu46 N47 1.999 1_545 S
Cu46 O52 1.974 . S
Cu46 N57 1.985 . S
Cu46 O66 1.959 1_545 S
N47 Cu46 1.999 1_565 S
N47 C49 1.263 . S
N47 C51 1.389 . S
N48 C49 1.358 . S
N48 C50 1.400 . S
C49 N47 1.263 . S
C49 N48 1.358 . S
C49 H55 0.930 . S
C50 N48 1.400 . S
C50 C51 1.351 . S
C50 H67 0.930 . S
C51 N47 1.389 . S
C51 C50 1.351 . S
C51 H56 0.930 . S
O52 Cu46 1.974 . S
O52 C62 1.282 . S
C53 O54 1.261 . S
C53 O66 1.251 . S
O54 C53 1.261 . S
H55 C49 0.930 . S
H56 C51 0.930 . S
N57 Cu46 1.985 . S
N57 C59 1.335 . S
N57 C60 1.390 . S
N58 C59 1.345 . S
N58 C61 1.336 . S
C59 N57 1.335 . S
C59 N58 1.345 . S
C59 H64 0.930 . S
C60 N57 1.390 . S
C60 C61 1.346 . S
C60 H65 0.930 . S
C61 N58 1.336 . S
C61 C60 1.346 . S
C61 H68 0.929 . S
C62 O52 1.282 . S
C62 O63 1.216 . S
O63 C62 1.216 . S
H64 C59 0.930 . S
H65 C60 0.930 . S
O66 Cu46 1.959 1_565 S
O66 C53 1.251 . S
H67 C50 0.930 . S
H68 C61 0.929 . S
Cu69 N70 1.999 1_455 S
Cu69 O75 1.974 . S
Cu69 N80 1.985 . S
Cu69 O89 1.954 1_455 S
N70 Cu69 1.999 1_655 S
N70 C72 1.263 . S
N70 C74 1.389 . S
N71 C72 1.358 . S
N71 C73 1.400 . S
C72 N70 1.263 . S
C72 N71 1.358 . S
C72 H78 0.930 . S
C73 N71 1.400 . S
C73 C74 1.351 . S
C73 H90 0.930 . S
C74 N70 1.389 . S
C74 C73 1.351 . S
C74 H79 0.930 . S
O75 Cu69 1.974 . S
O75 C85 1.282 . S
C76 O77 1.261 . S
C76 O89 1.271 . S
O77 C76 1.261 . S
H78 C72 0.930 . S
H79 C74 0.930 . S
N80 Cu69 1.985 . S
N80 C82 1.335 . S
N80 C83 1.390 . S
N81 C82 1.345 . S
N81 C84 1.336 . S
C82 N80 1.335 . S
C82 N81 1.345 . S
C82 H87 0.930 . S
C83 N80 1.390 . S
C83 C84 1.346 . S
C83 H88 0.930 . S
C84 N81 1.336 . S
C84 C83 1.346 . S
C84 H91 0.929 . S
C85 O75 1.282 . S
C85 O86 1.216 . S
O86 C85 1.216 . S
H87 C82 0.930 . S
H88 C83 0.930 . S
O89 Cu69 1.954 1_655 S
O89 C76 1.271 . S
H90 C73 0.930 . S
H91 C84 0.929 . S
Cu92 N93 1.999 . S
Cu92 O98 1.974 . S
Cu92 N103 1.985 . S
Cu92 O112 1.959 . S
N93 Cu92 1.999 . S
N93 C95 1.263 . S
N93 C97 1.389 . S
N94 C95 1.358 . S
N94 C96 1.400 . S
C95 N93 1.263 . S
C95 N94 1.358 . S
C95 H101 0.930 . S
C96 N94 1.400 . S
C96 C97 1.351 . S
C96 H113 0.930 . S
C97 N93 1.389 . S
C97 C96 1.351 . S
C97 H102 0.930 . S
O98 Cu92 1.974 . S
O98 C108 1.282 . S
C99 O100 1.261 . S
C99 O112 1.251 . S
O100 C99 1.261 . S
H101 C95 0.930 . S
H102 C97 0.930 . S
N103 Cu92 1.985 . S
N103 C105 1.335 . S
N103 C106 1.390 . S
N104 C105 1.345 . S
N104 C107 1.336 . S
C105 N103 1.335 . S
C105 N104 1.345 . S
C105 H110 0.930 . S
C106 N103 1.390 . S
C106 C107 1.346 . S
C106 H111 0.930 . S
C107 N104 1.336 . S
C107 C106 1.346 . S
C107 H114 0.929 . S
C108 O98 1.282 . S
C108 O109 1.216 . S
O109 C108 1.216 . S
H110 C105 0.930 . S
H111 C106 0.930 . S
O112 Cu92 1.959 . S
O112 C99 1.251 . S
H113 C96 0.930 . S
H114 C107 0.929 . S
Cu115 N116 1.999 . S
Cu115 O121 1.974 1_545 S
Cu115 N126 1.985 1_545 S
Cu115 O135 1.959 . S
N116 Cu115 1.999 . S
N116 C118 1.263 . S
N116 C120 1.389 . S
N117 C118 1.358 . S
N117 C119 1.400 . S
C118 N116 1.263 . S
C118 N117 1.358 . S
C118 H124 0.930 . S
C119 N117 1.400 . S
C119 C120 1.351 . S
C119 H136 0.930 . S
C120 N116 1.389 . S
C120 C119 1.351 . S
C120 H125 0.930 . S
O121 Cu115 1.974 1_565 S
O121 C131 1.282 . S
C122 O123 1.261 . S
C122 O135 1.251 . S
O123 C122 1.261 . S
H124 C118 0.930 . S
H125 C120 0.930 . S
N126 Cu115 1.985 1_565 S
N126 C128 1.335 . S
N126 C129 1.390 . S
N127 C128 1.345 . S
N127 C130 1.336 . S
C128 N126 1.335 . S
C128 N127 1.345 . S
C128 H133 0.930 . S
C129 N126 1.390 . S
C129 C130 1.346 . S
C129 H134 0.930 . S
C130 N127 1.336 . S
C130 C129 1.346 . S
C130 H137 0.929 . S
C131 O121 1.282 . S
C131 O132 1.216 . S
O132 C131 1.216 . S
H133 C128 0.930 . S
H134 C129 0.930 . S
O135 Cu115 1.959 . S
O135 C122 1.251 . S
H136 C119 0.930 . S
H137 C130 0.929 . S
Cu138 N139 1.999 . S
Cu138 O144 1.974 . S
Cu138 N149 1.985 . S
Cu138 O158 1.959 . S
N139 Cu138 1.999 . S
N139 C141 1.263 . S
N139 C143 1.389 . S
N140 C141 1.358 . S
N140 C142 1.400 . S
C141 N139 1.263 . S
C141 N140 1.358 . S
C141 H147 0.930 . S
C142 N140 1.400 . S
C142 C143 1.351 . S
C142 H159 0.930 . S
C143 N139 1.389 . S
C143 C142 1.351 . S
C143 H148 0.930 . S
O144 Cu138 1.974 . S
O144 C154 1.282 . S
C145 O146 1.261 . S
C145 O158 1.251 . S
O146 C145 1.261 . S
H147 C141 0.930 . S
H148 C143 0.930 . S
N149 Cu138 1.985 . S
N149 C151 1.335 . S
N149 C152 1.390 . S
N150 C151 1.345 . S
N150 C153 1.336 . S
C151 N149 1.335 . S
C151 N150 1.345 . S
C151 H156 0.930 . S
C152 N149 1.390 . S
C152 C153 1.346 . S
C152 H157 0.930 . S
C153 N150 1.336 . S
C153 C152 1.346 . S
C153 H160 0.929 . S
C154 O144 1.282 . S
C154 O155 1.216 . S
O155 C154 1.216 . S
H156 C151 0.930 . S
H157 C152 0.930 . S
O158 Cu138 1.959 . S
O158 C145 1.251 . S
H159 C142 0.930 . S
H160 C153 0.929 . S
Cu161 N162 1.999 . S
Cu161 O167 1.974 . S
Cu161 N172 1.985 . S
Cu161 O181 1.959 . S
N162 Cu161 1.999 . S
N162 C164 1.263 . S
N162 C166 1.389 . S
N163 C164 1.358 . S
N163 C165 1.400 . S
C164 N162 1.263 . S
C164 N163 1.358 . S
C164 H170 0.930 . S
C165 N163 1.400 . S
C165 C166 1.351 . S
C165 H182 0.930 . S
C166 N162 1.389 . S
C166 C165 1.351 . S
C166 H171 0.930 . S
O167 Cu161 1.974 . S
O167 C177 1.282 . S
C168 O169 1.261 1_655 S
C168 O181 1.251 . S
O169 C168 1.261 1_455 S
H170 C164 0.930 . S
H171 C166 0.930 . S
N172 Cu161 1.985 . S
N172 C174 1.335 . S
N172 C175 1.390 . S
N173 C174 1.345 . S
N173 C176 1.336 . S
C174 N172 1.335 . S
C174 N173 1.345 . S
C174 H179 0.930 . S
C175 N172 1.390 . S
C175 C176 1.346 . S
C175 H180 0.930 . S
C176 N173 1.336 . S
C176 C175 1.346 . S
C176 H183 0.929 . S
C177 O167 1.282 . S
C177 O178 1.216 . S
O178 C177 1.216 . S
H179 C174 0.930 . S
H180 C175 0.930 . S
O181 Cu161 1.959 . S
O181 C168 1.251 . S
H182 C165 0.930 . S
H183 C176 0.929 . S
Cu184 N185 1.999 . S
Cu184 O190 1.974 . S
Cu184 N195 1.985 . S
Cu184 O204 1.959 . S
N185 Cu184 1.999 . S
N185 C187 1.263 . S
N185 C189 1.389 . S
N186 C187 1.358 . S
N186 C188 1.400 . S
C187 N185 1.263 . S
C187 N186 1.358 . S
C187 H193 0.930 . S
C188 N186 1.400 . S
C188 C189 1.351 . S
C188 H205 0.930 . S
C189 N185 1.389 . S
C189 C188 1.351 . S
C189 H194 0.930 . S
O190 Cu184 1.974 . S
O190 C200 1.282 . S
C191 O192 1.261 . S
C191 O204 1.251 . S
O192 C191 1.261 . S
H193 C187 0.930 . S
H194 C189 0.930 . S
N195 Cu184 1.985 . S
N195 C197 1.335 . S
N195 C198 1.390 . S
N196 C197 1.345 . S
N196 C199 1.336 . S
C197 N195 1.335 . S
C197 N196 1.345 . S
C197 H202 0.930 . S
C198 N195 1.390 . S
C198 C199 1.346 . S
C198 H203 0.930 . S
C199 N196 1.336 . S
C199 C198 1.346 . S
C199 H206 0.929 . S
C200 O190 1.282 . S
C200 O201 1.216 . S
O201 C200 1.216 . S
H202 C197 0.930 . S
H203 C198 0.930 . S
O204 Cu184 1.959 . S
O204 C191 1.251 . S
H205 C188 0.930 . S
H206 C199 0.929 . S
Cu207 N208 1.999 . S
Cu207 O213 1.974 . S
Cu207 N218 1.985 . S
Cu207 O227 1.959 . S
N208 Cu207 1.999 . S
N208 C210 1.263 . S
N208 C212 1.389 . S
N209 C210 1.358 . S
N209 C211 1.400 . S
C210 N208 1.263 . S
C210 N209 1.358 . S
C210 H216 0.930 . S
C211 N209 1.400 . S
C211 C212 1.351 . S
C211 H228 0.930 . S
C212 N208 1.389 . S
C212 C211 1.351 . S
C212 H217 0.930 . S
O213 Cu207 1.974 . S
O213 C223 1.282 . S
C214 O215 1.261 . S
C214 O227 1.251 . S
O215 C214 1.261 . S
H216 C210 0.930 . S
H217 C212 0.930 . S
N218 Cu207 1.985 . S
N218 C220 1.335 . S
N218 C221 1.390 . S
N219 C220 1.345 . S
N219 C222 1.336 . S
C220 N218 1.335 . S
C220 N219 1.345 . S
C220 H225 0.930 . S
C221 N218 1.390 . S
C221 C222 1.346 . S
C221 H226 0.930 . S
C222 N219 1.336 . S
C222 C221 1.346 . S
C222 H229 0.929 . S
C223 O213 1.282 . S
C223 O224 1.216 . S
O224 C223 1.216 . S
H225 C220 0.930 . S
H226 C221 0.930 . S
O227 Cu207 1.959 . S
O227 C214 1.251 . S
H228 C211 0.930 . S
H229 C222 0.929 . S
Cu230 N231 1.999 . S
Cu230 O236 1.974 . S
Cu230 N241 1.985 . S
Cu230 O250 1.959 . S
N231 Cu230 1.999 . S
N231 C233 1.263 . S
N231 C235 1.389 . S
N232 C233 1.358 . S
N232 C234 1.400 . S
C233 N231 1.263 . S
C233 N232 1.358 . S
C233 H239 0.930 . S
C234 N232 1.400 . S
C234 C235 1.351 . S
C234 H251 0.930 . S
C235 N231 1.389 . S
C235 C234 1.351 . S
C235 H240 0.930 . S
O236 Cu230 1.974 . S
O236 C246 1.282 . S
C237 O238 1.261 . S
C237 O250 1.251 . S
O238 C237 1.261 . S
H239 C233 0.930 . S
H240 C235 0.930 . S
N241 Cu230 1.985 . S
N241 C243 1.335 . S
N241 C244 1.390 . S
N242 C243 1.345 . S
N242 C245 1.336 . S
C243 N241 1.335 . S
C243 N242 1.345 . S
C243 H248 0.930 . S
C244 N241 1.390 . S
C244 C245 1.346 . S
C244 H249 0.930 . S
C245 N242 1.336 . S
C245 C244 1.346 . S
C245 H252 0.929 . S
C246 O236 1.282 . S
C246 O247 1.216 . S
O247 C246 1.216 . S
H248 C243 0.930 . S
H249 C244 0.930 . S
O250 Cu230 1.959 . S
O250 C237 1.251 . S
H251 C234 0.930 . S
H252 C245 0.929 . S
Cu253 N254 1.999 . S
Cu253 O259 1.974 . S
Cu253 N264 1.985 . S
Cu253 O273 1.959 . S
N254 Cu253 1.999 . S
N254 C256 1.263 . S
N254 C258 1.389 . S
N255 C256 1.358 . S
N255 C257 1.400 . S
C256 N254 1.263 . S
C256 N255 1.358 . S
C256 H262 0.930 . S
C257 N255 1.400 . S
C257 C258 1.351 . S
C257 H274 0.930 . S
C258 N254 1.389 . S
C258 C257 1.351 . S
C258 H263 0.930 . S
O259 Cu253 1.974 . S
O259 C269 1.282 . S
C260 O261 1.253 1_655 S
C260 O273 1.251 . S
O261 C260 1.253 1_455 S
H262 C256 0.930 . S
H263 C258 0.930 . S
N264 Cu253 1.985 . S
N264 C266 1.335 . S
N264 C267 1.390 . S
N265 C266 1.345 . S
N265 C268 1.336 . S
C266 N264 1.335 . S
C266 N265 1.345 . S
C266 H271 0.930 . S
C267 N264 1.390 . S
C267 C268 1.346 . S
C267 H272 0.930 . S
C268 N265 1.336 . S
C268 C267 1.346 . S
C268 H275 0.929 . S
C269 O259 1.282 . S
C269 O270 1.216 . S
O270 C269 1.216 . S
H271 C266 0.930 . S
H272 C267 0.930 . S
O273 Cu253 1.959 . S
O273 C260 1.251 . S
H274 C257 0.930 . S
H275 C268 0.929 . S
Cu276 N277 1.999 . S
Cu276 O282 1.974 . S
Cu276 N287 1.985 . S
Cu276 O296 1.959 . S
N277 Cu276 1.999 . S
N277 C279 1.263 . S
N277 C281 1.389 . S
N278 C279 1.358 . S
N278 C280 1.400 . S
C279 N277 1.263 . S
C279 N278 1.358 . S
C279 H285 0.930 . S
C280 N278 1.400 . S
C280 C281 1.351 . S
C280 H297 0.930 . S
C281 N277 1.389 . S
C281 C280 1.351 . S
C281 H286 0.930 . S
O282 Cu276 1.974 . S
O282 C292 1.282 . S
C283 O284 1.261 . S
C283 O296 1.251 . S
O284 C283 1.261 . S
H285 C279 0.930 . S
H286 C281 0.930 . S
N287 Cu276 1.985 . S
N287 C289 1.335 . S
N287 C290 1.390 . S
N288 C289 1.345 . S
N288 C291 1.336 . S
C289 N287 1.335 . S
C289 N288 1.345 . S
C289 H294 0.930 . S
C290 N287 1.390 . S
C290 C291 1.346 . S
C290 H295 0.930 . S
C291 N288 1.336 . S
C291 C290 1.346 . S
C291 H298 0.929 . S
C292 O282 1.282 . S
C292 O293 1.216 . S
O293 C292 1.216 . S
H294 C289 0.930 . S
H295 C290 0.930 . S
O296 Cu276 1.959 . S
O296 C283 1.251 . S
H297 C280 0.930 . S
H298 C291 0.929 . S
Cu299 N300 1.999 . S
Cu299 O305 1.974 . S
Cu299 N310 1.985 . S
Cu299 O319 1.959 . S
N300 Cu299 1.999 . S
N300 C302 1.263 . S
N300 C304 1.389 . S
N301 C302 1.358 . S
N301 C303 1.400 . S
C302 N300 1.263 . S
C302 N301 1.358 . S
C302 H308 0.930 . S
C303 N301 1.400 . S
C303 C304 1.351 . S
C303 H320 0.930 . S
C304 N300 1.389 . S
C304 C303 1.351 . S
C304 H309 0.930 . S
O305 Cu299 1.974 . S
O305 C315 1.282 . S
C306 O307 1.261 . S
C306 O319 1.251 . S
O307 C306 1.261 . S
H308 C302 0.930 . S
H309 C304 0.930 . S
N310 Cu299 1.985 . S
N310 C312 1.335 . S
N310 C313 1.390 1_565 S
N311 C312 1.345 1_545 S
N311 C314 1.336 . S
C312 N310 1.335 . S
C312 N311 1.345 1_565 S
C312 H317 0.930 . S
C313 N310 1.390 1_545 S
C313 C314 1.346 . S
C313 H318 0.930 . S
C314 N311 1.336 . S
C314 C313 1.346 . S
C314 H321 0.929 . S
C315 O305 1.282 . S
C315 O316 1.216 1_565 S
O316 C315 1.216 1_545 S
H317 C312 0.930 . S
H318 C313 0.930 . S
O319 Cu299 1.959 . S
O319 C306 1.251 . S
H320 C303 0.930 . S
H321 C314 0.929 . S
Cu322 N323 1.999 . S
Cu322 O328 1.974 . S
Cu322 N333 1.985 . S
Cu322 O342 1.959 . S
N323 Cu322 1.999 . S
N323 C325 1.263 . S
N323 C327 1.389 . S
N324 C325 1.358 . S
N324 C326 1.400 . S
C325 N323 1.263 . S
C325 N324 1.358 . S
C325 H331 0.930 . S
C326 N324 1.400 . S
C326 C327 1.351 . S
C326 H343 0.930 . S
C327 N323 1.389 . S
C327 C326 1.351 . S
C327 H332 0.930 . S
O328 Cu322 1.974 . S
O328 C338 1.282 . S
C329 O330 1.261 . S
C329 O342 1.251 . S
O330 C329 1.261 . S
H331 C325 0.930 . S
H332 C327 0.930 . S
N333 Cu322 1.985 . S
N333 C335 1.335 . S
N333 C336 1.390 . S
N334 C335 1.345 . S
N334 C337 1.336 . S
C335 N333 1.335 . S
C335 N334 1.345 . S
C335 H340 0.930 . S
C336 N333 1.390 . S
C336 C337 1.346 . S
C336 H341 0.930 . S
C337 N334 1.336 . S
C337 C336 1.346 . S
C337 H344 0.929 . S
C338 O328 1.282 . S
C338 O339 1.216 . S
O339 C338 1.216 . S
H340 C335 0.930 . S
H341 C336 0.930 . S
O342 Cu322 1.959 . S
O342 C329 1.251 . S
H343 C326 0.930 . S
H344 C337 0.929 . S
Cu345 N346 1.999 . S
Cu345 O351 1.974 . S
Cu345 N356 1.985 . S
Cu345 O365 1.959 . S
N346 Cu345 1.999 . S
N346 C348 1.263 . S
N346 C350 1.389 . S
N347 C348 1.358 . S
N347 C349 1.400 . S
C348 N346 1.263 . S
C348 N347 1.358 . S
C348 H354 0.930 . S
C349 N347 1.400 . S
C349 C350 1.351 . S
C349 H366 0.930 . S
C350 N346 1.389 . S
C350 C349 1.351 . S
C350 H355 0.930 . S
O351 Cu345 1.974 . S
O351 C361 1.282 . S
C352 O353 1.261 . S
C352 O365 1.251 . S
O353 C352 1.261 . S
H354 C348 0.930 . S
H355 C350 0.930 . S
N356 Cu345 1.985 . S
N356 C358 1.335 . S
N356 C359 1.390 1_565 S
N357 C358 1.345 1_545 S
N357 C360 1.336 . S
C358 N356 1.335 . S
C358 N357 1.345 1_565 S
C358 H363 0.930 . S
C359 N356 1.390 1_545 S
C359 C360 1.346 . S
C359 H364 0.930 . S
C360 N357 1.336 . S
C360 C359 1.346 . S
C360 H367 0.929 . S
C361 O351 1.282 . S
C361 O362 1.216 1_565 S
O362 C361 1.216 1_545 S
H363 C358 0.930 . S
H364 C359 0.930 . S
O365 Cu345 1.959 . S
O365 C352 1.251 . S
H366 C349 0.930 . S
H367 C360 0.929 . S
Cu368 N369 1.999 . S
Cu368 O374 1.974 . S
Cu368 N379 1.985 . S
Cu368 O388 1.959 . S
N369 Cu368 1.999 . S
N369 C371 1.263 . S
N369 C373 1.389 . S
N370 C371 1.358 . S
N370 C372 1.400 . S
C371 N369 1.263 . S
C371 N370 1.358 . S
C371 H377 0.930 . S
C372 N370 1.400 . S
C372 C373 1.351 . S
C372 H389 0.930 . S
C373 N369 1.389 . S
C373 C372 1.351 . S
C373 H378 0.930 . S
O374 Cu368 1.974 . S
O374 C384 1.282 . S
C375 O376 1.261 . S
C375 O388 1.251 . S
O376 C375 1.261 . S
H377 C371 0.930 . S
H378 C373 0.930 . S
N379 Cu368 1.985 . S
N379 C381 1.335 . S
N379 C382 1.390 . S
N380 C381 1.345 . S
N380 C383 1.336 . S
C381 N379 1.335 . S
C381 N380 1.345 . S
C381 H386 0.930 . S
C382 N379 1.390 . S
C382 C383 1.346 . S
C382 H387 0.930 . S
C383 N380 1.336 . S
C383 C382 1.346 . S
C383 H390 0.929 . S
C384 O374 1.282 . S
C384 O385 1.216 . S
O385 C384 1.216 . S
H386 C381 0.930 . S
H387 C382 0.930 . S
O388 Cu368 1.959 . S
O388 C375 1.251 . S
H389 C372 0.930 . S
H390 C383 0.929 . S
Cu391 N392 1.999 . S
Cu391 O397 1.974 . S
Cu391 N402 1.985 . S
Cu391 O411 1.959 . S
N392 Cu391 1.999 . S
N392 C394 1.263 . S
N392 C396 1.389 . S
N393 C394 1.358 . S
N393 C395 1.400 . S
C394 N392 1.263 . S
C394 N393 1.358 . S
C394 H400 0.930 . S
C395 N393 1.400 . S
C395 C396 1.351 . S
C395 H412 0.930 . S
C396 N392 1.389 . S
C396 C395 1.351 . S
C396 H401 0.930 . S
O397 Cu391 1.974 . S
O397 C407 1.282 . S
C398 O399 1.261 . S
C398 O411 1.251 . S
O399 C398 1.261 . S
H400 C394 0.930 . S
H401 C396 0.930 . S
N402 Cu391 1.985 . S
N402 C404 1.335 . S
N402 C405 1.390 . S
N403 C404 1.345 . S
N403 C406 1.336 . S
C404 N402 1.335 . S
C404 N403 1.345 . S
C404 H409 0.930 . S
C405 N402 1.390 . S
C405 C406 1.346 . S
C405 H410 0.930 . S
C406 N403 1.336 . S
C406 C405 1.346 . S
C406 H413 0.929 . S
C407 O397 1.282 . S
C407 O408 1.216 . S
O408 C407 1.216 . S
H409 C404 0.930 . S
H410 C405 0.930 . S
O411 Cu391 1.959 . S
O411 C398 1.251 . S
H412 C395 0.930 . S
H413 C406 0.929 . S
C414 C415 1.369 . S
C414 C416 1.419 . S
C414 H418 0.930 1_455 S
C415 C414 1.369 . S
C415 C424 1.429 . S
C416 C414 1.419 . S
C416 C417 1.363 . S
C416 H419 0.929 1_455 S
C417 C416 1.363 . S
C417 C423 1.428 . S
H418 C414 0.930 1_655 S
H419 C416 0.929 1_655 S
S420 N421 1.613 . S
S420 N422 1.610 . S
N421 S420 1.613 . S
N421 C424 1.350 . S
N422 S420 1.610 . S
N422 C423 1.351 . S
C423 C417 1.428 . S
C423 N422 1.351 . S
C423 C424 1.434 . S
C424 C415 1.429 . S
C424 N421 1.350 . S
C424 C423 1.434 . S
C425 C426 1.369 . S
C425 C427 1.419 . S
C425 H429 0.930 . S
C426 C425 1.369 . S
C426 C435 1.429 . S
C427 C425 1.419 . S
C427 C428 1.363 . S
C427 H430 0.929 . S
C428 C427 1.363 . S
C428 C434 1.428 . S
H429 C425 0.930 . S
H430 C427 0.929 . S
S431 N432 1.613 . S
S431 N433 1.610 . S
N432 S431 1.613 . S
N432 C435 1.350 . S
N433 S431 1.610 . S
N433 C434 1.351 . S
C434 C428 1.428 . S
C434 N433 1.351 . S
C434 C435 1.434 . S
C435 C426 1.429 . S
C435 N432 1.350 . S
C435 C434 1.434 . S
C436 C437 1.369 . S
C436 C438 1.419 . S
C436 H440 0.930 . S
C437 C436 1.369 . S
C437 C446 1.429 . S
C438 C436 1.419 . S
C438 C439 1.363 . S
C438 H441 0.929 . S
C439 C438 1.363 . S
C439 C445 1.428 . S
H440 C436 0.930 . S
H441 C438 0.929 . S
S442 N443 1.613 . S
S442 N444 1.610 1_545 S
N443 S442 1.613 . S
N443 C446 1.350 1_545 S
N444 S442 1.610 1_565 S
N444 C445 1.351 . S
C445 C439 1.428 . S
C445 N444 1.351 . S
C445 C446 1.434 . S
C446 C437 1.429 . S
C446 N443 1.350 1_565 S
C446 C445 1.434 . S
C447 C448 1.369 . S
C447 C449 1.419 . S
C447 H451 0.930 . S
C448 C447 1.369 . S
C448 C457 1.429 . S
C449 C447 1.419 . S
C449 C450 1.363 . S
C449 H452 0.929 . S
C450 C449 1.363 . S
C450 C456 1.428 . S
H451 C447 0.930 . S
H452 C449 0.929 . S
S453 N454 1.613 . S
S453 N455 1.610 . S
N454 S453 1.613 . S
N454 C457 1.350 . S
N455 S453 1.610 . S
N455 C456 1.351 . S
C456 C450 1.428 . S
C456 N455 1.351 . S
C456 C457 1.434 . S
C457 C448 1.429 . S
C457 N454 1.350 . S
C457 C456 1.434 . S
C458 C459 1.369 . S
C458 C460 1.419 1_655 S
C458 H462 0.930 1_655 S
C459 C458 1.369 . S
C459 C468 1.429 . S
C460 C458 1.419 1_455 S
C460 C461 1.363 1_455 S
C460 H463 0.929 . S
C461 C460 1.363 1_655 S
C461 C467 1.428 . S
H462 C458 0.930 1_455 S
H463 C460 0.929 . S
S464 N465 1.613 . S
S464 N466 1.610 . S
N465 S464 1.613 . S
N465 C468 1.350 . S
N466 S464 1.610 . S
N466 C467 1.351 . S
C467 C461 1.428 . S
C467 N466 1.351 . S
C467 C468 1.434 . S
C468 C459 1.429 . S
C468 N465 1.350 . S
C468 C467 1.434 . S
C469 C470 1.369 . S
C469 C471 1.419 . S
C469 H473 0.930 . S
C470 C469 1.369 . S
C470 C479 1.429 . S
C471 C469 1.419 . S
C471 C472 1.363 . S
C471 H474 0.929 . S
C472 C471 1.363 . S
C472 C478 1.428 . S
H473 C469 0.930 . S
H474 C471 0.929 . S
S475 N476 1.613 . S
S475 N477 1.610 . S
N476 S475 1.613 . S
N476 C479 1.350 . S
N477 S475 1.610 . S
N477 C478 1.351 . S
C478 C472 1.428 . S
C478 N477 1.351 . S
C478 C479 1.434 . S
C479 C470 1.429 . S
C479 N476 1.350 . S
C479 C478 1.434 . S
C480 C481 1.369 . S
C480 C482 1.419 . S
C480 H484 0.930 . S
C481 C480 1.369 . S
C481 C490 1.429 1_655 S
C482 C480 1.419 . S
C482 C483 1.363 . S
C482 H485 0.929 . S
C483 C482 1.363 . S
C483 C489 1.428 1_655 S
H484 C480 0.930 . S
H485 C482 0.929 . S
S486 N487 1.613 . S
S486 N488 1.610 . S
N487 S486 1.613 . S
N487 C490 1.350 . S
N488 S486 1.610 . S
N488 C489 1.351 . S
C489 C483 1.428 1_455 S
C489 N488 1.351 . S
C489 C490 1.434 . S
C490 C481 1.429 1_455 S
C490 N487 1.350 . S
C490 C489 1.434 . S
C491 C492 1.369 . S
C491 C493 1.419 . S
C491 H495 0.930 . S
C492 C491 1.369 . S
C492 C501 1.429 . S
C493 C491 1.419 . S
C493 C494 1.363 . S
C493 H496 0.929 . S
C494 C493 1.363 . S
C494 C500 1.428 . S
H495 C491 0.930 . S
H496 C493 0.929 . S
S497 N498 1.613 . S
S497 N499 1.610 . S
N498 S497 1.613 . S
N498 C501 1.350 . S
N499 S497 1.610 . S
N499 C500 1.351 . S
C500 C494 1.428 . S
C500 N499 1.351 . S
C500 C501 1.434 . S
C501 C492 1.429 . S
C501 N498 1.350 . S
C501 C500 1.434 . S
C502 C503 1.369 . S
C502 C504 1.419 . S
C502 H506 0.930 1_545 S
C503 C502 1.369 . S
C503 C512 1.429 . S
C504 C502 1.419 . S
C504 C505 1.363 . S
C504 H507 0.929 1_545 S
C505 C504 1.363 . S
C505 C511 1.428 . S
H506 C502 0.930 1_565 S
H507 C504 0.929 1_565 S
S508 N509 1.613 . S
S508 N510 1.610 . S
N509 S508 1.613 . S
N509 C512 1.350 . S
N510 S508 1.610 . S
N510 C511 1.351 . S
C511 C505 1.428 . S
C511 N510 1.351 . S
C511 C512 1.434 . S
C512 C503 1.429 . S
C512 N509 1.350 . S
C512 C511 1.434 . S
C513 C514 1.369 . S
C513 C515 1.419 . S
C513 H517 0.930 . S
C514 C513 1.369 . S
C514 C523 1.429 1_565 S
C515 C513 1.419 . S
C515 C516 1.363 . S
C515 H518 0.929 . S
C516 C515 1.363 . S
C516 C522 1.428 1_565 S
H517 C513 0.930 . S
H518 C515 0.929 . S
S519 N520 1.613 . S
S519 N521 1.610 . S
N520 S519 1.613 . S
N520 C523 1.350 . S
N521 S519 1.610 . S
N521 C522 1.351 . S
C522 C516 1.428 1_545 S
C522 N521 1.351 . S
C522 C523 1.434 . S
C523 C514 1.429 1_545 S
C523 N520 1.350 . S
C523 C522 1.434 . S
C524 C525 1.369 . S
C524 C526 1.419 . S
C524 H528 0.930 . S
C525 C524 1.369 . S
C525 C534 1.429 . S
C526 C524 1.419 . S
C526 C527 1.363 . S
C526 H529 0.929 . S
C527 C526 1.363 . S
C527 C533 1.428 . S
H528 C524 0.930 . S
H529 C526 0.929 . S
S530 N531 1.613 . S
S530 N532 1.610 . S
N531 S530 1.613 . S
N531 C534 1.350 . S
N532 S530 1.610 . S
N532 C533 1.351 . S
C533 C527 1.428 . S
C533 N532 1.351 . S
C533 C534 1.434 . S
C534 C525 1.429 . S
C534 N531 1.350 . S
C534 C533 1.434 . S
C535 C536 1.369 . S
C535 C537 1.419 . S
C535 H539 0.930 . S
C536 C535 1.369 . S
C536 C545 1.429 . S
C537 C535 1.419 . S
C537 C538 1.363 . S
C537 H540 0.929 . S
C538 C537 1.363 . S
C538 C544 1.428 . S
H539 C535 0.930 . S
H540 C537 0.929 . S
S541 N542 1.613 . S
S541 N543 1.610 . S
N542 S541 1.613 . S
N542 C545 1.350 . S
N543 S541 1.610 . S
N543 C544 1.351 . S
C544 C538 1.428 . S
C544 N543 1.351 . S
C544 C545 1.434 . S
C545 C536 1.429 . S
C545 N542 1.350 . S
C545 C544 1.434 . S
C546 C547 1.369 . S
C546 C548 1.419 . S
C546 H550 0.930 . S
C547 C546 1.369 . S
C547 C556 1.429 . S
C548 C546 1.419 . S
C548 C549 1.363 . S
C548 H551 0.929 . S
C549 C548 1.363 . S
C549 C555 1.428 . S
H550 C546 0.930 . S
H551 C548 0.929 . S
S552 N553 1.613 . S
S552 N554 1.610 . S
N553 S552 1.613 . S
N553 C556 1.350 . S
N554 S552 1.610 . S
N554 C555 1.351 . S
C555 C549 1.428 . S
C555 N554 1.351 . S
C555 C556 1.434 . S
C556 C547 1.429 . S
C556 N553 1.350 . S
C556 C555 1.434 . S
C557 C558 1.369 . S
C557 C559 1.419 . S
C557 H561 0.930 . S
C558 C557 1.369 . S
C558 C567 1.429 1_545 S
C559 C557 1.419 . S
C559 C560 1.363 1_545 S
C559 H562 0.929 . S
C560 C559 1.363 1_565 S
C560 C566 1.428 . S
H561 C557 0.930 . S
H562 C559 0.929 . S
S563 N564 1.613 . S
S563 N565 1.610 . S
N564 S563 1.613 . S
N564 C567 1.350 . S
N565 S563 1.610 . S
N565 C566 1.351 . S
C566 C560 1.428 . S
C566 N565 1.351 . S
C566 C567 1.434 . S
C567 C558 1.429 1_565 S
C567 N564 1.350 . S
C567 C566 1.434 . S
C568 C569 1.369 1_655 S
C568 C570 1.419 . S
C568 H572 0.930 . S
C569 C568 1.369 1_455 S
C569 C578 1.429 . S
C570 C568 1.419 . S
C570 C571 1.363 . S
C570 H573 0.929 . S
C571 C570 1.363 . S
C571 C577 1.428 1_655 S
H572 C568 0.930 . S
H573 C570 0.929 . S
S574 N575 1.613 . S
S574 N576 1.610 . S
N575 S574 1.613 . S
N575 C578 1.350 . S
N576 S574 1.610 . S
N576 C577 1.351 . S
C577 C571 1.428 1_455 S
C577 N576 1.351 . S
C577 C578 1.434 . S
C578 C569 1.429 . S
C578 N575 1.350 . S
C578 C577 1.434 . S
C579 C580 1.369 . S
C579 C581 1.419 . S
C579 H583 0.930 . S
C580 C579 1.369 . S
C580 C589 1.429 . S
C581 C579 1.419 . S
C581 C582 1.363 . S
C581 H584 0.929 . S
C582 C581 1.363 . S
C582 C588 1.428 . S
H583 C579 0.930 . S
H584 C581 0.929 . S
S585 N586 1.613 . S
S585 N587 1.610 . S
N586 S585 1.613 . S
N586 C589 1.350 . S
N587 S585 1.610 . S
N587 C588 1.351 . S
C588 C582 1.428 . S
C588 N587 1.351 . S
C588 C589 1.434 . S
C589 C580 1.429 . S
C589 N586 1.350 . S
C589 C588 1.434 . S
C590 C591 1.369 1_565 S
C590 C592 1.419 . S
C590 H594 0.930 . S
C591 C590 1.369 1_545 S
C591 C600 1.429 . S
C592 C590 1.419 . S
C592 C593 1.363 . S
C592 H595 0.929 . S
C593 C592 1.363 . S
C593 C599 1.428 1_565 S
H594 C590 0.930 . S
H595 C592 0.929 . S
S596 N597 1.613 . S
S596 N598 1.610 . S
N597 S596 1.613 . S
N597 C600 1.350 . S
N598 S596 1.610 . S
N598 C599 1.351 . S
C599 C593 1.428 1_545 S
C599 N598 1.351 . S
C599 C600 1.434 . S
C600 C591 1.429 . S
C600 N597 1.350 . S
C600 C599 1.434 . S
C601 C602 1.369 1_655 S
C601 C603 1.419 . S
C601 H605 0.930 . S
C602 C601 1.369 1_455 S
C602 C611 1.429 . S
C603 C601 1.419 . S
C603 C604 1.363 . S
C603 H606 0.929 . S
C604 C603 1.363 . S
C604 C610 1.428 1_655 S
H605 C601 0.930 . S
H606 C603 0.929 . S
S607 N608 1.613 . S
S607 N609 1.610 . S
N608 S607 1.613 . S
N608 C611 1.350 . S
N609 S607 1.610 . S
N609 C610 1.351 . S
C610 C604 1.428 1_455 S
C610 N609 1.351 . S
C610 C611 1.434 . S
C611 C602 1.429 . S
C611 N608 1.350 . S
C611 C610 1.434 . S
C612 C613 1.369 . S
C612 C614 1.419 . S
C612 H616 0.930 . S
C613 C612 1.369 . S
C613 C622 1.429 . S
C614 C612 1.419 . S
C614 C615 1.363 . S
C614 H617 0.929 . S
C615 C614 1.363 . S
C615 C621 1.428 . S
H616 C612 0.930 . S
H617 C614 0.929 . S
S618 N619 1.613 . S
S618 N620 1.610 . S
N619 S618 1.613 . S
N619 C622 1.350 . S
N620 S618 1.610 . S
N620 C621 1.351 . S
C621 C615 1.428 . S
C621 N620 1.351 . S
C621 C622 1.434 . S
C622 C613 1.429 . S
C622 N619 1.350 . S
C622 C621 1.434 . S
C623 C624 1.369 . S
C623 C625 1.419 . S
C623 H627 0.930 . S
C624 C623 1.369 . S
C624 C633 1.429 . S
C625 C623 1.419 . S
C625 C626 1.363 . S
C625 H628 0.929 . S
C626 C625 1.363 . S
C626 C632 1.428 . S
H627 C623 0.930 . S
H628 C625 0.929 . S
S629 N630 1.613 . S
S629 N631 1.610 . S
N630 S629 1.613 . S
N630 C633 1.350 . S
N631 S629 1.610 . S
N631 C632 1.351 . S
C632 C626 1.428 . S
C632 N631 1.351 . S
C632 C633 1.434 . S
C633 C624 1.429 . S
C633 N630 1.350 . S
C633 C632 1.434 . S
C634 C635 1.369 . S
C634 C636 1.419 . S
C634 H638 0.930 . S
C635 C634 1.369 . S
C635 C644 1.429 . S
C636 C634 1.419 . S
C636 C637 1.363 . S
C636 H639 0.929 . S
C637 C636 1.363 . S
C637 C643 1.428 . S
H638 C634 0.930 . S
H639 C636 0.929 . S
S640 N641 1.613 . S
S640 N642 1.610 . S
N641 S640 1.613 . S
N641 C644 1.350 . S
N642 S640 1.610 . S
N642 C643 1.351 . S
C643 C637 1.428 . S
C643 N642 1.351 . S
C643 C644 1.434 . S
C644 C635 1.429 . S
C644 N641 1.350 . S
C644 C643 1.434 . S
C645 C646 1.369 . S
C645 C647 1.419 . S
C645 H649 0.930 . S
C646 C645 1.369 . S
C646 C655 1.429 . S
C647 C645 1.419 . S
C647 C648 1.363 . S
C647 H650 0.929 . S
C648 C647 1.363 . S
C648 C654 1.428 . S
H649 C645 0.930 . S
H650 C647 0.929 . S
S651 N652 1.613 . S
S651 N653 1.610 . S
N652 S651 1.613 . S
N652 C655 1.350 . S
N653 S651 1.610 . S
N653 C654 1.351 . S
C654 C648 1.428 . S
C654 N653 1.351 . S
C654 C655 1.434 . S
C655 C646 1.429 . S
C655 N652 1.350 . S
C655 C654 1.434 . S
C656 C657 1.369 . S
C656 C658 1.419 . S
C656 H660 0.930 . S
C657 C656 1.369 . S
C657 C666 1.429 . S
C658 C656 1.419 . S
C658 C659 1.363 . S
C658 H661 0.929 . S
C659 C658 1.363 . S
C659 C665 1.428 . S
H660 C656 0.930 . S
H661 C658 0.929 . S
S662 N663 1.613 . S
S662 N664 1.610 . S
N663 S662 1.613 . S
N663 C666 1.350 . S
N664 S662 1.610 . S
N664 C665 1.351 . S
C665 C659 1.428 . S
C665 N664 1.351 . S
C665 C666 1.434 . S
C666 C657 1.429 . S
C666 N663 1.350 . S
C666 C665 1.434 . S
C667 C668 1.369 . S
C667 C669 1.419 . S
C667 H671 0.930 . S
C668 C667 1.369 . S
C668 C677 1.429 . S
C669 C667 1.419 . S
C669 C670 1.363 . S
C669 H672 0.929 . S
C670 C669 1.363 . S
C670 C676 1.428 . S
H671 C667 0.930 . S
H672 C669 0.929 . S
S673 N674 1.613 . S
S673 N675 1.610 . S
N674 S673 1.613 . S
N674 C677 1.350 . S
N675 S673 1.610 . S
N675 C676 1.351 . S
C676 C670 1.428 . S
C676 N675 1.351 . S
C676 C677 1.434 . S
C677 C668 1.429 . S
C677 N674 1.350 . S
C677 C676 1.434 . S
C678 C679 1.369 . S
C678 C680 1.419 . S
C678 H682 0.930 . S
C679 C678 1.369 . S
C679 C688 1.429 . S
C680 C678 1.419 . S
C680 C681 1.363 . S
C680 H683 0.929 . S
C681 C680 1.363 . S
C681 C687 1.428 . S
H682 C678 0.930 . S
H683 C680 0.929 . S
S684 N685 1.613 . S
S684 N686 1.610 . S
N685 S684 1.613 . S
N685 C688 1.350 . S
N686 S684 1.610 . S
N686 C687 1.351 . S
C687 C681 1.428 . S
C687 N686 1.351 . S
C687 C688 1.434 . S
C688 C679 1.429 . S
C688 N685 1.350 . S
C688 C687 1.434 . S
C689 C690 1.369 . S
C689 C691 1.419 . S
C689 H693 0.930 . S
C690 C689 1.369 . S
C690 C699 1.429 . S
C691 C689 1.419 . S
C691 C692 1.363 . S
C691 H694 0.929 . S
C692 C691 1.363 . S
C692 C698 1.428 . S
H693 C689 0.930 . S
H694 C691 0.929 . S
S695 N696 1.613 . S
S695 N697 1.610 . S
N696 S695 1.613 . S
N696 C699 1.350 . S
N697 S695 1.610 . S
N697 C698 1.351 . S
C698 C692 1.428 . S
C698 N697 1.351 . S
C698 C699 1.434 . S
C699 C690 1.429 . S
C699 N696 1.350 . S
C699 C698 1.434 . S
C700 C701 1.369 . S
C700 C702 1.419 . S
C700 H704 0.930 . S
C701 C700 1.369 . S
C701 C710 1.429 . S
C702 C700 1.419 . S
C702 C703 1.363 . S
C702 H705 0.929 . S
C703 C702 1.363 . S
C703 C709 1.428 . S
H704 C700 0.930 . S
H705 C702 0.929 . S
S706 N707 1.613 . S
S706 N708 1.610 . S
N707 S706 1.613 . S
N707 C710 1.350 . S
N708 S706 1.610 . S
N708 C709 1.351 . S
C709 C703 1.428 . S
C709 N708 1.351 . S
C709 C710 1.434 . S
C710 C701 1.429 . S
C710 N707 1.350 . S
C710 C709 1.434 . S
C711 C712 1.369 . S
C711 C713 1.419 . S
C711 H715 0.930 . S
C712 C711 1.369 . S
C712 C721 1.429 . S
C713 C711 1.419 . S
C713 C714 1.363 . S
C713 H716 0.929 . S
C714 C713 1.363 . S
C714 C720 1.428 . S
H715 C711 0.930 . S
H716 C713 0.929 . S
S717 N718 1.613 . S
S717 N719 1.610 . S
N718 S717 1.613 . S
N718 C721 1.350 . S
N719 S717 1.610 . S
N719 C720 1.351 . S
C720 C714 1.428 . S
C720 N719 1.351 . S
C720 C721 1.434 . S
C721 C712 1.429 . S
C721 N718 1.350 . S
C721 C720 1.434 . S
C722 C723 1.369 . S
C722 C724 1.419 . S
C722 H726 0.930 . S
C723 C722 1.369 . S
C723 C732 1.429 . S
C724 C722 1.419 . S
C724 C725 1.363 . S
C724 H727 0.929 . S
C725 C724 1.363 . S
C725 C731 1.428 . S
H726 C722 0.930 . S
H727 C724 0.929 . S
S728 N729 1.613 . S
S728 N730 1.610 . S
N729 S728 1.613 . S
N729 C732 1.350 . S
N730 S728 1.610 . S
N730 C731 1.351 . S
C731 C725 1.428 . S
C731 N730 1.351 . S
C731 C732 1.434 . S
C732 C723 1.429 . S
C732 N729 1.350 . S
C732 C731 1.434 . S
C733 C734 1.369 . S
C733 C735 1.419 . S
C733 H737 0.930 . S
C734 C733 1.369 . S
C734 C743 1.429 . S
C735 C733 1.419 . S
C735 C736 1.363 . S
C735 H738 0.929 . S
C736 C735 1.363 . S
C736 C742 1.428 . S
H737 C733 0.930 . S
H738 C735 0.929 . S
S739 N740 1.613 . S
S739 N741 1.610 . S
N740 S739 1.613 . S
N740 C743 1.350 . S
N741 S739 1.610 . S
N741 C742 1.351 . S
C742 C736 1.428 . S
C742 N741 1.351 . S
C742 C743 1.434 . S
C743 C734 1.429 . S
C743 N740 1.350 . S
C743 C742 1.434 . S
C744 C745 1.369 . S
C744 C746 1.419 . S
C744 H748 0.930 . S
C745 C744 1.369 . S
C745 C754 1.429 . S
C746 C744 1.419 . S
C746 C747 1.363 . S
C746 H749 0.929 . S
C747 C746 1.363 . S
C747 C753 1.428 . S
H748 C744 0.930 . S
H749 C746 0.929 . S
S750 N751 1.613 . S
S750 N752 1.610 . S
N751 S750 1.613 . S
N751 C754 1.350 . S
N752 S750 1.610 . S
N752 C753 1.351 . S
C753 C747 1.428 . S
C753 N752 1.351 . S
C753 C754 1.434 . S
C754 C745 1.429 . S
C754 N751 1.350 . S
C754 C753 1.434 . S
C755 C756 1.369 . S
C755 C757 1.419 . S
C755 H759 0.930 . S
C756 C755 1.369 . S
C756 C765 1.429 1_545 S
C757 C755 1.419 . S
C757 C758 1.363 . S
C757 H760 0.929 . S
C758 C757 1.363 . S
C758 C764 1.428 1_545 S
H759 C755 0.930 . S
H760 C757 0.929 . S
S761 N762 1.613 . S
S761 N763 1.610 . S
N762 S761 1.613 . S
N762 C765 1.350 . S
N763 S761 1.610 . S
N763 C764 1.351 . S
C764 C758 1.428 1_565 S
C764 N763 1.351 . S
C764 C765 1.434 . S
C765 C756 1.429 1_565 S
C765 N762 1.350 . S
C765 C764 1.434 . S
C766 C767 1.369 1_655 S
C766 C768 1.419 . S
C766 H770 0.930 . S
C767 C766 1.369 1_455 S
C767 C776 1.429 . S
C768 C766 1.419 . S
C768 C769 1.363 1_655 S
C768 H771 0.929 . S
C769 C768 1.363 1_455 S
C769 C775 1.428 . S
H770 C766 0.930 . S
H771 C768 0.929 . S
S772 N773 1.613 . S
S772 N774 1.610 . S
N773 S772 1.613 . S
N773 C776 1.350 . S
N774 S772 1.610 . S
N774 C775 1.351 . S
C775 C769 1.428 . S
C775 N774 1.351 . S
C775 C776 1.434 . S
C776 C767 1.429 . S
C776 N773 1.350 . S
C776 C775 1.434 . S
C777 C778 1.369 . S
C777 C779 1.419 . S
C777 H781 0.930 . S
C778 C777 1.369 . S
C778 C787 1.429 1_556 S
C779 C777 1.419 . S
C779 C780 1.363 1_556 S
C779 H782 0.929 . S
C780 C779 1.363 1_554 S
C780 C786 1.428 . S
H781 C777 0.930 . S
H782 C779 0.929 . S
S783 N784 1.613 . S
S783 N785 1.610 . S
N784 S783 1.613 . S
N784 C787 1.350 . S
N785 S783 1.610 . S
N785 C786 1.351 . S
C786 C780 1.428 . S
C786 N785 1.351 . S
C786 C787 1.434 . S
C787 C778 1.429 1_554 S
C787 N784 1.350 . S
C787 C786 1.434 . S
C788 C789 1.369 . S
C788 C790 1.413 1_556 S
C788 H792 0.930 . S
C789 C788 1.369 . S
C789 C798 1.429 1_546 S
C790 C788 1.413 1_554 S
C790 C791 1.370 . S
C790 H793 0.928 1_554 S
C791 C790 1.370 . S
C791 C797 1.428 1_545 S
H792 C788 0.930 . S
H793 C790 0.928 1_556 S
S794 N795 1.613 . S
S794 N796 1.610 . S
N795 S794 1.613 . S
N795 C798 1.350 . S
N796 S794 1.610 . S
N796 C797 1.351 . S
C797 C791 1.428 1_565 S
C797 N796 1.351 . S
C797 C798 1.434 . S
C798 C789 1.429 1_564 S
C798 N795 1.350 . S
C798 C797 1.434 . S
C799 C800 1.369 1_654 S
C799 C801 1.419 . S
C799 H803 0.930 . S
C800 C799 1.369 1_456 S
C800 C809 1.429 . S
C801 C799 1.419 . S
C801 C802 1.363 1_655 S
C801 H804 0.929 . S
C802 C801 1.363 1_455 S
C802 C808 1.428 1_554 S
H803 C799 0.930 . S
H804 C801 0.929 . S
S805 N806 1.613 . S
S805 N807 1.610 . S
N806 S805 1.613 . S
N806 C809 1.350 . S
N807 S805 1.610 . S
N807 C808 1.351 . S
C808 C802 1.428 1_556 S
C808 N807 1.351 . S
C808 C809 1.434 . S
C809 C800 1.429 . S
C809 N806 1.350 . S
C809 C808 1.434 . S
C415 C7 1.705 . S
C417 C338 1.665 1_554 S
C426 C292 1.635 1_554 S
C428 C39 1.631 . S
C437 C53 1.734 . S
C439 C306 1.738 1_554 S
C448 C154 1.634 . S
C450 C62 1.635 . S
C459 C177 1.636 . S
C461 C16 1.627 . S
C470 C200 1.657 . S
C472 C30 1.696 . S
C481 C76 1.698 . S
C483 C269 1.649 1_556 S
C492 C223 1.634 1_556 S
C494 C108 1.627 . S
C503 C246 1.657 1_556 S
C505 C122 1.697 . S
C514 C131 1.666 . S
C516 C352 1.703 . S
C525 C85 1.634 . S
C527 C384 1.631 . S
C536 C398 1.735 . S
C538 C99 1.737 . S
C547 C283 1.736 . S
C549 C191 1.735 . S
C558 C145 1.709 . S
C560 C315 1.672 . S
C569 C329 1.739 . S
C571 C168 1.734 . S
C580 C407 1.670 . S
C582 C214 1.718 . S
C591 C237 1.718 . S
C593 C361 1.667 . S
C602 C375 1.741 . S
C604 C260 1.735 . S
C613 N347 1.570 . S
C615 N2 1.578 . S
C624 N35 1.672 . S
C626 N380 1.670 . S
C635 N48 1.580 . S
C637 N393 1.571 . S
C646 N58 1.656 . S
C648 N265 1.664 . S
C657 N219 1.664 . S
C659 N12 1.657 . S
C668 N25 1.561 . S
C670 N242 1.678 . S
C679 N150 1.664 . S
C681 N71 1.568 . S
C690 N173 1.657 . S
C692 N104 1.654 . S
C701 N117 1.567 . S
C703 N196 1.666 . S
C712 N127 1.658 . S
C714 N334 1.653 . S
C723 N81 1.659 . S
C725 N288 1.651 . S
C734 N94 1.558 . S
C736 N301 1.567 . S
C745 N186 1.568 . S
C747 N403 1.663 . S
C756 N140 1.566 . S
C758 N357 1.663 . S
C767 N370 1.573 . S
C769 N163 1.573 1_455 S
C778 N278 1.574 . S
C780 N209 1.564 . S
C789 N311 1.659 . S
C791 N232 1.561 . S
C800 N324 1.562 . S
C802 N255 1.574 1_455 S
