# Generated by pormake.
# Topology qtz-e, (6)-cn, num edge types: 1
# Building blocks:
#     Node 0, Type 0, BuildingBlock: BETFEN_clean_sbu_0, # of connection points: 6
#     Node 1, Type 0, BuildingBlock: BETFEN_clean_sbu_0, # of connection points: 6
#     Node 2, Type 0, BuildingBlock: BETFEN_clean_sbu_0, # of connection points: 6
#     Node 3, Type 0, BuildingBlock: BETFEN_clean_sbu_0, # of connection points: 6
#     Node 4, Type 0, BuildingBlock: BETFEN_clean_sbu_0, # of connection points: 6
#     Node 5, Type 0, BuildingBlock: BETFEN_clean_sbu_0, # of connection points: 6
#     Edge 6, Type (0, 0), BuildingBlock: OJICUG_clean_linker_0, # of connection points: 2
#     Edge 7, Type (0, 0), BuildingBlock: OJICUG_clean_linker_0, # of connection points: 2
#     Edge 8, Type (0, 0), BuildingBlock: OJICUG_clean_linker_0, # of connection points: 2
#     Edge 9, Type (0, 0), BuildingBlock: OJICUG_clean_linker_0, # of connection points: 2
#     Edge 10, Type (0, 0), BuildingBlock: OJICUG_clean_linker_0, # of connection points: 2
#     Edge 11, Type (0, 0), BuildingBlock: OJICUG_clean_linker_0, # of connection points: 2
#     Edge 12, Type (0, 0), BuildingBlock: OJICUG_clean_linker_0, # of connection points: 2
#     Edge 13, Type (0, 0), BuildingBlock: OJICUG_clean_linker_0, # of connection points: 2
#     Edge 14, Type (0, 0), BuildingBlock: OJICUG_clean_linker_0, # of connection points: 2
#     Edge 15, Type (0, 0), BuildingBlock: OJICUG_clean_linker_0, # of connection points: 2
#     Edge 16, Type (0, 0), BuildingBlock: OJICUG_clean_linker_0, # of connection points: 2
#     Edge 17, Type (0, 0), BuildingBlock: OJICUG_clean_linker_0, # of connection points: 2
#     Edge 18, Type (0, 0), BuildingBlock: OJICUG_clean_linker_0, # of connection points: 2
#     Edge 19, Type (0, 0), BuildingBlock: OJICUG_clean_linker_0, # of connection points: 2
#     Edge 20, Type (0, 0), BuildingBlock: OJICUG_clean_linker_0, # of connection points: 2
#     Edge 21, Type (0, 0), BuildingBlock: OJICUG_clean_linker_0, # of connection points: 2
#     Edge 22, Type (0, 0), BuildingBlock: OJICUG_clean_linker_0, # of connection points: 2
#     Edge 23, Type (0, 0), BuildingBlock: OJICUG_clean_linker_0, # of connection points: 2
# Relax obj value: 0.226
# Max RMSD: 0.228
# Mean RMSD: 0.228
data_MOF--net-qtz-e--node1-BETFEN_clean_sbu_0--edge1-OJICUG_clean_linker_0
_symmetry_space_group_name_H-M    P1
_symmetry_Int_Tables_number       1
_symmetry_cell_setting            triclinic
loop_
_symmetry_equiv_pos_as_xyz
'x, y, z'
_cell_length_a     18.925465
_cell_length_b     18.938603
_cell_length_c     41.609718
_cell_angle_alpha  89.975879
_cell_angle_beta   89.798767
_cell_angle_gamma 119.93897
loop_
_atom_site_label
_atom_site_type_symbol
_atom_site_fract_x
_atom_site_fract_y
_atom_site_fract_z
_atom_type_partial_charge
Pr0 Pr 0.31995 0.48119 0.12245 0.0
Pr1 Pr 0.21903 0.30439 0.14449 0.0
C2 C 0.41704 0.63263 0.09962 0.0
C3 C 0.42567 0.66339 0.06622 0.0
C4 C 0.35692 0.63672 0.04634 0.0
C5 C 0.36588 0.65787 1.01369 0.0
C6 C 0.44383 0.70534 1.00006 0.0
C7 C 0.51238 0.73381 1.02024 0.0
C8 C 0.50335 0.71302 0.05293 0.0
C9 C 0.15063 0.42169 0.12234 0.0
C10 C 0.27963 0.33744 0.06738 0.0
C11 C 0.10437 0.16022 0.16815 0.0
C12 C 0.06992 0.14092 0.20118 0.0
C13 C 0.0566 0.0696 0.21683 0.0
C14 C 0.03373 0.05644 0.2494 0.0
C15 C 0.02426 0.11473 0.2671 0.0
C16 C 0.03567 0.18509 0.25101 0.0
C17 C 0.05822 0.19802 0.21855 0.0
C18 C 0.38221 0.3772 0.16193 0.0
C19 C 0.27625 0.44778 0.19972 0.0
O20 O 0.44324 0.58142 0.10461 0.0
O21 O 0.34768 0.61082 0.11409 0.0
O22 O 0.19 0.40818 0.14327 0.0
O23 O 0.19806 0.45759 0.09787 0.0
O24 O 0.22674 0.28318 0.08806 0.0
O25 O 0.32539 0.41449 0.07574 0.0
O26 O 0.08656 0.20708 0.1508 0.0
O27 O 0.18103 0.17986 0.16563 0.0
O28 O 0.35768 0.38688 0.1348 0.0
O29 O 0.32284 0.32166 0.17883 0.0
O30 O 0.33085 0.50027 0.17907 0.0
O31 O 0.21858 0.37518 0.19028 0.0
H32 H 0.29615 0.59731 0.05576 0.0
H33 H 0.31191 0.63422 0.99886 0.0
H34 H 0.57333 0.77134 1.01065 0.0
H35 H 0.55726 0.73386 0.06764 0.0
H36 H 0.06607 0.02508 0.2041 0.0
H37 H 0.02615 0.00186 0.26098 0.0
H38 H 0.02764 0.23072 0.26355 0.0
H39 H 0.06827 0.25382 0.20726 0.0
Pr40 Pr 0.63878 0.14742 0.54584 0.0
Pr41 Pr 0.74038 0.07166 0.52449 0.0
C42 C 0.53991 0.20147 0.56739 0.0
C43 C 0.5242 0.22062 0.60056 0.0
C44 C 0.57208 0.299 0.61375 0.0
C45 C 0.5613 0.31504 0.6458 0.0
C46 C 0.50209 0.25325 0.66551 0.0
C47 C 0.45364 0.17521 0.6521 0.0
C48 C 0.46424 0.15928 0.62013 0.0
C49 C 0.80825 0.25643 0.54764 0.0
C50 C 0.67837 0.045 0.6015 0.0
C51 C 0.85389 0.03877 0.50173 0.0
C52 C 0.89117 0.05398 0.4692 0.0
C53 C 0.90125 0.99393 0.45355 0.0
C54 C 0.92688 0.00412 0.42131 0.0
C55 C 0.94271 0.07457 0.40395 0.0
C56 C 0.93422 0.13533 0.42005 0.0
C57 C 0.90889 0.12519 0.4522 0.0
C58 C 0.57845 0.98335 0.5052 0.0
C59 C 0.69094 0.16528 0.46957 0.0
O60 O 0.51372 0.12476 0.5608 0.0
O61 O 0.61195 0.24987 0.55508 0.0
O62 O 0.77003 0.20437 0.52638 0.0
O63 O 0.75918 0.24488 0.57152 0.0
O64 O 0.73057 0.04192 0.58091 0.0
O65 O 0.63326 0.07687 0.59281 0.0
O66 O 0.87221 0.10311 0.51933 0.0
O67 O 0.77644 0.98374 0.50323 0.0
O68 O 0.60094 0.01558 0.53278 0.0
O69 O 0.63908 0.98898 0.48864 0.0
O70 O 0.63209 0.15775 0.48915 0.0
O71 O 0.74855 0.15112 0.48005 0.0
H72 H 0.61872 0.34793 0.59941 0.0
H73 H 0.59904 0.37607 0.65504 0.0
H74 H 0.40827 0.12547 0.6665 0.0
H75 H 0.42626 0.09817 0.61096 0.0
H76 H 0.88752 0.93827 0.46604 0.0
H77 H 0.93382 0.9565 0.40995 0.0
H78 H 0.94454 0.18984 0.40753 0.0
H79 H 0.90102 0.17232 0.46349 0.0
Pr80 Pr 0.46758 0.80115 0.78743 0.0
Pr81 Pr 0.64329 0.87747 0.80935 0.0
C82 C 0.31507 0.74644 0.76623 0.0
C83 C 0.28767 0.7393 0.73254 0.0
C84 C 0.21861 0.6682 0.72172 0.0
C85 C 0.19871 0.65775 0.68893 0.0
C86 C 0.24781 0.7182 0.66641 0.0
C87 C 0.31694 0.78916 0.67748 0.0
C88 C 0.33644 0.7996 0.71006 0.0
C89 C 0.52891 0.69351 0.78453 0.0
C90 C 0.61047 0.90659 0.73254 0.0
C91 C 0.78983 0.91626 0.83359 0.0
C92 C 0.81156 0.90271 0.86643 0.0
C93 C 0.88029 0.96438 0.8821 0.0
C94 C 0.89608 0.9551 0.91434 0.0
C95 C 0.84322 0.88395 0.93177 0.0
C96 C 0.77506 0.82182 0.91574 0.0
C97 C 0.75955 0.83107 0.88355 0.0
C98 C 0.56583 0.96458 0.82604 0.0
C99 C 0.49995 0.78039 0.86365 0.0
O100 O 0.36069 0.82039 0.77731 0.0
O101 O 0.34221 0.69762 0.77417 0.0
O102 O 0.54192 0.74432 0.80634 0.0
O103 O 0.49319 0.70686 0.76061 0.0
O104 O 0.66468 0.90647 0.75277 0.0
O105 O 0.53374 0.87643 0.74142 0.0
O106 O 0.74703 0.85135 0.81587 0.0
O107 O 0.76433 0.96885 0.83156 0.0
O108 O 0.56123 0.93328 0.79877 0.0
O109 O 0.61587 0.95641 0.84471 0.0
O110 O 0.44918 0.78853 0.84416 0.0
O111 O 0.57199 0.79525 0.85316 0.0
H112 H 0.18089 0.62023 0.73854 0.0
H113 H 0.14466 0.60272 0.68126 0.0
H114 H 0.35707 0.83641 0.66085 0.0
H115 H 0.3909 0.85439 0.71755 0.0
H116 H 0.92109 0.02042 0.86955 0.0
H117 H 0.94981 0.00383 0.9256 0.0
H118 H 0.73217 0.76666 0.92828 0.0
H119 H 0.70566 0.78266 0.87226 0.0
Pr120 Pr 0.81509 0.47784 0.21294 0.0
Pr121 Pr 0.89389 0.65556 0.19138 0.0
C122 C 0.76036 0.32562 0.23496 0.0
C123 C 0.73755 0.29319 0.2681 0.0
C124 C 0.69834 0.32166 0.28887 0.0
C125 C 0.68517 0.29815 0.32127 0.0
C126 C 0.71181 0.24646 0.33374 0.0
C127 C 0.74916 0.21645 0.31267 0.0
C128 C 0.7619 0.23961 0.28023 0.0
C129 C 0.70702 0.53922 0.21349 0.0
C130 C 0.91271 0.61957 0.2689 0.0
C131 C 0.92769 0.8005 0.16702 0.0
C132 C 0.92396 0.82142 0.13288 0.0
C133 C 0.94223 0.78229 0.10821 0.0
C134 C 0.93099 0.79479 0.07592 0.0
C135 C 0.9007 0.84657 0.06726 0.0
C136 C 0.88385 0.88702 0.09202 0.0
C137 C 0.89511 0.87434 0.12448 0.0
C138 C 0.98242 0.58023 0.17345 0.0
C139 C 0.80649 0.51276 0.13604 0.0
O140 O 0.83782 0.37713 0.2302 0.0
O141 O 0.71304 0.34812 0.22091 0.0
O142 O 0.76041 0.55301 0.19261 0.0
O143 O 0.71728 0.50205 0.23774 0.0
O144 O 0.91773 0.67518 0.24811 0.0
O145 O 0.88166 0.54287 0.26018 0.0
O146 O 0.85734 0.75052 0.18046 0.0
O147 O 0.98463 0.783 0.17425 0.0
O148 O 0.94793 0.57077 0.20058 0.0
O149 O 0.97968 0.63654 0.15679 0.0
O150 O 0.80516 0.45878 0.15664 0.0
O151 O 0.8257 0.58696 0.14503 0.0
H152 H 0.67999 0.36412 0.28033 0.0
H153 H 0.65713 0.32314 0.33683 0.0
H154 H 0.76966 0.1758 0.32138 0.0
H155 H 0.79278 0.21738 0.26481 0.0
H156 H 0.96399 0.74066 0.11388 0.0
H157 H 0.94602 0.76351 0.05771 0.0
H158 H 0.85965 0.92667 0.08641 0.0
H159 H 0.87956 0.90443 0.14302 0.0
Pr160 Pr 0.14257 0.64116 0.45564 0.0
Pr161 Pr 0.06916 0.74507 0.47758 0.0
C162 C 0.19266 0.5399 0.43336 0.0
C163 C 0.21381 0.52667 0.4002 0.0
C164 C 0.28281 0.5875 0.38385 0.0
C165 C 0.29822 0.57682 0.35172 0.0
C166 C 0.24499 0.50516 0.33499 0.0
C167 C 0.17642 0.44415 0.35157 0.0
C168 C 0.16139 0.45461 0.38371 0.0
C169 C 0.25358 0.81033 0.45379 0.0
C170 C 0.04227 0.68527 0.40069 0.0
C171 C 0.03921 0.85885 0.50208 0.0
C172 C 0.05509 0.89352 0.53505 0.0
C173 C 0.99548 0.90278 0.55163 0.0
C174 C 0.00614 0.92571 0.58414 0.0
C175 C 0.07648 0.93927 0.6009 0.0
C176 C 0.13694 0.93192 0.58392 0.0
C177 C 0.12642 0.90947 0.55146 0.0
C178 C 0.97875 0.58239 0.49659 0.0
C179 C 0.16119 0.69177 0.53156 0.0
O180 O 0.11585 0.51627 0.43874 0.0
O181 O 0.24197 0.6095 0.44708 0.0
O182 O 0.20106 0.77214 0.47506 0.0
O183 O 0.24249 0.76125 0.43009 0.0
O184 O 0.04069 0.73818 0.42122 0.0
O185 O 0.07241 0.63858 0.40922 0.0
O186 O 0.10322 0.8772 0.4841 0.0
O187 O 0.98285 0.78205 0.49995 0.0
O188 O 0.01138 0.60584 0.46908 0.0
O189 O 0.98519 0.64279 0.51341 0.0
O190 O 0.1513 0.63198 0.5122 0.0
O191 O 0.1497 0.75101 0.52098 0.0
H192 H 0.32457 0.64406 0.39569 0.0
H193 H 0.35217 0.62472 0.34007 0.0
H194 H 0.13293 0.38864 0.33956 0.0
H195 H 0.10747 0.4068 0.39547 0.0
H196 H 0.9396 0.89008 0.53967 0.0
H197 H 0.95794 0.93009 0.59642 0.0
H198 H 0.19248 0.94316 0.59575 0.0
H199 H 0.17354 0.90286 0.53938 0.0
Pr200 Pr 0.48773 0.33471 0.87642 0.0
Pr201 Pr 0.31047 0.21173 0.85925 0.0
C202 C 0.62543 0.44646 0.9054 0.0
C203 C 0.65251 0.45321 0.93906 0.0
C204 C 0.63671 0.38319 0.95655 0.0
C205 C 0.66248 0.38935 0.98838 0.0
C206 C 0.70377 0.46558 1.00363 0.0
C207 C 0.71755 0.53534 0.98622 0.0
C208 C 0.69251 0.52921 0.95423 0.0
C209 C 0.46145 0.18034 0.86421 0.0
C210 C 0.34516 0.26804 0.93576 0.0
C211 C 0.17286 0.08332 0.8377 0.0
C212 C 0.14567 0.05946 0.80401 0.0
C213 C 0.15997 0.1189 0.78063 0.0
C214 C 0.14498 0.09808 0.74806 0.0
C215 C 0.11595 0.01735 0.7379 0.0
C216 C 0.10031 0.95765 0.76143 0.0
C217 C 0.11499 0.97851 0.79408 0.0
C218 C 0.36399 0.37125 0.83812 0.0
C219 C 0.44997 0.28717 0.80111 0.0
O220 O 0.56423 0.4585 0.90011 0.0
O221 O 0.61998 0.38484 0.88931 0.0
O222 O 0.41258 0.19335 0.88085 0.0
O223 O 0.52575 0.24664 0.85517 0.0
O224 O 0.28687 0.22808 0.91427 0.0
O225 O 0.42306 0.30404 0.92732 0.0
O226 O 0.23698 0.07828 0.8459 0.0
O227 O 0.17496 0.14942 0.84862 0.0
O228 O 0.37956 0.35144 0.86498 0.0
O229 O 0.3133 0.30706 0.82223 0.0
O230 O 0.49729 0.34968 0.8199 0.0
O231 O 0.38529 0.22192 0.81278 0.0
H232 H 0.60474 0.32345 0.94557 0.0
H233 H 0.65117 0.3344 1.0008 0.0
H234 H 0.74709 0.5948 0.99736 0.0
H235 H 0.70412 0.58381 0.9414 0.0
H236 H 0.18532 0.18219 0.78736 0.0
H237 H 0.15902 0.14596 0.73069 0.0
H238 H 0.07721 0.89475 0.75458 0.0
H239 H 0.10451 0.93171 0.8115 0.0
C240 C 0.29309 0.55888 0.27827 0.0
C241 C 0.26005 0.49353 0.30047 0.0
H242 H 0.32532 0.59644 0.22891 0.0
C243 C 0.23903 0.41553 0.28919 0.0
H244 H 0.30959 0.61983 0.2859 0.0
C245 C 0.24674 0.40229 0.2567 0.0
C246 C 0.27714 0.46677 0.23439 0.0
H247 H 0.21605 0.36406 0.30546 0.0
H248 H 0.22816 0.34082 0.24899 0.0
C249 C 0.30207 0.54569 0.24557 0.0
C250 C 0.39927 0.23932 0.74577 0.0
C251 C 0.46545 0.28733 0.76606 0.0
H252 H 0.35831 0.1932 0.69862 0.0
C253 C 0.54413 0.32926 0.75264 0.0
H254 H 0.33757 0.20725 0.75516 0.0
C255 C 0.55639 0.31994 0.71985 0.0
C256 C 0.49007 0.26913 0.69984 0.0
H257 H 0.5963 0.36649 0.76767 0.0
H258 H 0.61807 0.35029 0.71048 0.0
C259 C 0.41125 0.23076 0.71323 0.0
C260 C 0.51544 0.71484 0.94808 0.0
C261 C 0.45423 0.72129 0.9647 0.0
H262 H 0.57579 0.72584 0.90351 0.0
C263 C 0.40357 0.74222 0.9472 0.0
H264 H 0.55418 0.69678 0.96049 0.0
C265 C 0.41603 0.75912 0.91406 0.0
C266 C 0.47913 0.755 0.89781 0.0
H267 H 0.35572 0.74763 0.95928 0.0
H268 H 0.37789 0.77753 0.90143 0.0
C269 C 0.52753 0.73121 0.91521 0.0
C270 C 0.62987 0.19051 0.41976 0.0
C271 C 0.69564 0.19059 0.43541 0.0
H272 H 0.58276 0.20725 0.3752 0.0
C273 C 0.76678 0.21155 0.41754 0.0
H274 H 0.57415 0.17442 0.43277 0.0
C275 C 0.77156 0.22967 0.38484 0.0
C276 C 0.70546 0.2278 0.36886 0.0
H277 H 0.81932 0.2137 0.42874 0.0
H278 H 0.82763 0.24576 0.37209 0.0
C279 C 0.63483 0.20917 0.3868 0.0
C280 C 0.23641 0.77744 0.61429 0.0
C281 C 0.22664 0.70949 0.6316 0.0
H282 H 0.22603 0.82536 0.56949 0.0
C283 C 0.19746 0.63478 0.61531 0.0
H284 H 0.25747 0.83561 0.626 0.0
C285 C 0.1782 0.62851 0.58243 0.0
C286 C 0.18738 0.69674 0.56543 0.0
H287 H 0.18995 0.5814 0.6279 0.0
H288 H 0.15464 0.57019 0.57055 0.0
C289 C 0.21752 0.77125 0.58176 0.0
C290 C 0.71349 0.42243 0.09274 0.0
C291 C 0.78531 0.49266 0.10198 0.0
H292 H 0.62961 0.35974 0.05456 0.0
C293 C 0.83237 0.55091 0.0786 0.0
H294 H 0.67556 0.37743 0.11052 0.0
C295 C 0.80701 0.54084 0.04669 0.0
C296 C 0.73304 0.4727 0.03739 0.0
H297 H 0.88836 0.60537 0.08518 0.0
H298 H 0.84518 0.58718 1.02941 0.0
C299 C 0.68726 0.4127 0.06071 0.0
C300 C 0.47753 0.42041 0.20842 0.0
C301 C 0.46475 0.42829 0.17558 0.0
H302 H 0.56371 0.45161 0.24657 0.0
C303 C 0.53092 0.48395 0.15679 0.0
H304 H 0.4275 0.37951 0.22376 0.0
C305 C 0.60937 0.52636 0.17006 0.0
C306 C 0.62307 0.5137 0.20238 0.0
H307 H 0.52266 0.49227 0.13155 0.0
H308 H 0.65998 0.56535 0.1545 0.0
C309 C 0.55564 0.46274 0.22166 0.0
C310 C 0.93608 0.43356 0.49195 0.0
C311 C 0.94487 0.49944 0.51035 0.0
H312 H 0.8886 0.30462 0.4899 0.0
C313 C 0.9203 0.48601 0.54284 0.0
H314 H 0.95558 0.44223 0.46706 0.0
C315 C 0.88242 0.40759 0.55605 0.0
C316 C 0.86807 0.34056 0.53706 0.0
H317 H 0.92785 0.53591 0.55791 0.0
H318 H 0.86016 0.39901 0.58057 0.0
C319 C 0.89833 0.3549 0.50522 0.0
C320 C 0.48232 0.06667 0.87956 0.0
C321 C 0.45449 0.10158 0.85683 0.0
H322 H 0.54036 0.99586 0.88733 0.0
C323 C 0.45152 0.08036 0.82427 0.0
H324 H 0.48732 0.084 0.90462 0.0
C325 C 0.48257 0.03068 0.81422 0.0
C326 C 0.51852 0.00306 0.8366 0.0
H327 H 0.43228 0.10836 0.8062 0.0
H328 H 0.48428 0.01938 0.78878 0.0
C329 C 0.51432 0.01785 0.8695 0.0
C330 C 0.5185 0.59447 0.82629 0.0
C331 C 0.50138 0.60869 0.79479 0.0
H332 H 0.48554 0.5096 0.86516 0.0
C333 C 0.44347 0.54231 0.77676 0.0
H334 H 0.56279 0.64419 0.84088 0.0
C335 C 0.39957 0.46484 0.79077 0.0
C336 C 0.4125 0.45244 0.82306 0.0
H337 H 0.42855 0.55105 0.75252 0.0
H338 H 0.35376 0.41522 0.7766 0.0
C339 C 0.47381 0.51748 0.84038 0.0
C340 C 0.06303 0.4328 0.16535 0.0
C341 C 0.09162 0.447 0.13326 0.0
H342 H 0.00697 0.46441 0.20357 0.0
C343 C 0.07602 0.49858 0.11406 0.0
H344 H 0.07393 0.39327 0.18085 0.0
C345 C 0.03853 0.53964 0.12722 0.0
C346 C 0.01537 0.53005 0.15985 0.0
H347 H 0.09696 0.51097 0.08935 0.0
H348 H 0.03003 0.58111 0.11192 0.0
C349 C 0.02531 0.474 0.17853 0.0
C350 C 0.40506 0.88461 0.44565 0.0
C351 C 0.33741 0.87054 0.46433 0.0
H352 H 0.53358 0.93055 0.44415 0.0
C353 C 0.3508 0.90171 0.49595 0.0
H354 H 0.39721 0.86165 0.42132 0.0
C355 C 0.42918 0.94017 0.50935 0.0
C356 C 0.4957 0.94875 0.4913 0.0
H357 H 0.30001 0.89228 0.511 0.0
H358 H 0.43712 0.96043 0.53408 0.0
C359 C 0.48318 0.92321 0.45899 0.0
C360 C 0.24761 0.23354 0.98423 0.0
C361 C 0.32571 0.27969 0.97004 0.0
H362 H 0.17143 0.21334 1.02612 0.0
C363 C 0.38717 0.34178 0.98884 0.0
H364 H 0.19846 0.1853 0.97071 0.0
C365 C 0.37129 0.35877 1.02001 0.0
C366 C 0.29364 0.31349 0.03431 0.0
H367 H 0.4481 0.37933 0.97921 0.0
H368 H 0.42072 0.40813 0.03304 0.0
C369 C 0.23208 0.24951 1.01611 0.0
C370 C 0.92965 0.01702 0.34799 0.0
C371 C 0.96568 0.08403 0.36906 0.0
H372 H 0.91865 0.97397 0.29958 0.0
C373 C 0.02214 0.16077 0.35626 0.0
H374 H 0.88494 0.95722 0.35675 0.0
C375 C 0.04119 0.17038 0.32341 0.0
C376 C 0.00452 0.1036 0.30228 0.0
H377 H 0.05235 0.21366 0.37167 0.0
H378 H 0.0855 0.2303 0.31464 0.0
C379 C 0.94888 0.02664 0.31509 0.0
C380 C 0.58181 0.96747 0.68415 0.0
C381 C 0.63334 0.944 0.69933 0.0
H382 H 0.55524 0.0165 0.64285 0.0
C383 C 0.70243 0.955 0.68193 0.0
H384 H 0.52845 0.96119 0.69645 0.0
C385 C 0.71793 0.98702 0.65012 0.0
C386 C 0.6655 0.01012 0.63515 0.0
H387 H 0.74359 0.9376 0.69263 0.0
H388 H 0.77099 0.99394 0.63736 0.0
C389 C 0.59762 -4e-05 0.65301 0.0
C390 C 0.88864 0.94153 0.98772 0.0
C391 C 0.85826 0.87475 0.96652 0.0
H392 H 0.9262 0.98558 0.03569 0.0
C393 C 0.84138 0.7987 0.97896 0.0
H394 H 0.90135 0.00083 0.97928 0.0
C395 C 0.85472 0.7898 1.01145 0.0
C396 C 0.88547 0.85657 0.03263 0.0
H397 H 0.81863 0.74586 0.96351 0.0
H398 H 0.84022 0.73009 1.02005 0.0
C399 C 0.90193 0.93255 1.02029 0.0
C400 C 0.98184 0.59688 0.35234 0.0
C401 C 0.00641 0.67208 0.36742 0.0
H402 H 0.934 0.52217 0.31095 0.0
C403 C -0.00154 0.73158 0.34982 0.0
H404 H 0.98595 0.54885 0.36482 0.0
C405 C 0.9686 0.71623 0.31776 0.0
C406 C 0.94467 0.64052 0.30285 0.0
H407 H 0.01686 0.79035 0.3605 0.0
H408 H 0.9642 0.7634 0.30475 0.0
C409 C 0.95142 0.58135 0.32102 0.0
C410 C 0.07107 0.03068 0.68213 0.0
C411 C 0.10447 0.99631 0.70289 0.0
H412 H 0.03641 0.04029 0.63401 0.0
C413 C 0.12838 0.94291 0.68975 0.0
H414 H 0.05143 0.07159 0.69136 0.0
C415 C 0.11951 0.92472 0.65684 0.0
C416 C 0.08609 0.95909 0.63605 0.0
H417 H 0.15522 0.91598 0.70485 0.0
H418 H 0.13814 0.88289 0.64774 0.0
C419 C 0.06175 0.01212 0.64922 0.0
loop_
_geom_bond_atom_site_label_1
_geom_bond_atom_site_label_2
_geom_bond_distance
_geom_bond_site_symmetry_2
_ccdc_geom_bond_type
Pr0 C2 2.880 . S
Pr0 O20 2.562 . S
Pr0 O21 2.490 . S
Pr0 O22 2.695 . S
Pr0 O23 2.512 . S
Pr0 O25 2.437 . S
Pr0 O28 2.436 . S
Pr0 O30 2.438 . S
Pr1 C11 2.880 . S
Pr1 O22 2.436 . S
Pr1 O24 2.438 . S
Pr1 O26 2.562 . S
Pr1 O27 2.490 . S
Pr1 O28 2.695 . S
Pr1 O29 2.512 . S
Pr1 O31 2.437 . S
C2 Pr0 2.880 . S
C2 C3 1.491 1_554 S
C2 O20 1.254 . S
C2 O21 1.225 . S
C3 C2 1.491 1_556 S
C3 C4 1.392 . S
C3 C8 1.356 . S
C4 C3 1.392 . S
C4 C5 1.368 . S
C4 H32 0.929 . S
C5 C4 1.368 . S
C5 C6 1.386 . S
C5 H33 0.929 . S
C6 C5 1.386 . S
C6 C7 1.373 . S
C7 C6 1.373 . S
C7 C8 1.409 . S
C7 H34 0.931 . S
C8 C3 1.356 . S
C8 C7 1.409 . S
C8 H35 0.930 . S
C9 O22 1.270 . S
C9 O23 1.248 . S
C10 O24 1.267 . S
C10 O25 1.278 . S
C11 Pr1 2.880 . S
C11 C12 1.491 . S
C11 O26 1.254 . S
C11 O27 1.225 . S
C12 C11 1.491 . S
C12 C13 1.392 . S
C12 C17 1.356 . S
C13 C12 1.392 . S
C13 C14 1.368 . S
C13 H36 0.929 . S
C14 C13 1.368 . S
C14 C15 1.386 . S
C14 H37 0.929 . S
C15 C14 1.386 . S
C15 C16 1.373 . S
C16 C15 1.373 . S
C16 C17 1.409 . S
C16 H38 0.931 . S
C17 C12 1.356 . S
C17 C16 1.409 . S
C17 H39 0.930 . S
C18 O28 1.270 . S
C18 O29 1.248 . S
C19 O30 1.267 . S
C19 O31 1.278 . S
O20 Pr0 2.562 . S
O20 C2 1.254 . S
O21 Pr0 2.490 . S
O21 C2 1.225 . S
O22 Pr0 2.695 . S
O22 Pr1 2.436 . S
O22 C9 1.270 . S
O23 Pr0 2.512 . S
O23 C9 1.248 . S
O24 Pr1 2.438 . S
O24 C10 1.267 . S
O25 Pr0 2.437 . S
O25 C10 1.278 . S
O26 Pr1 2.562 . S
O26 C11 1.254 . S
O27 Pr1 2.490 . S
O27 C11 1.225 . S
O28 Pr0 2.436 . S
O28 Pr1 2.695 . S
O28 C18 1.270 . S
O29 Pr1 2.512 . S
O29 C18 1.248 . S
O30 Pr0 2.438 . S
O30 C19 1.267 . S
O31 Pr1 2.437 . S
O31 C19 1.278 . S
H32 C4 0.929 . S
H33 C5 0.929 . S
H34 C7 0.931 . S
H35 C8 0.930 . S
H36 C13 0.929 . S
H37 C14 0.929 . S
H38 C16 0.931 . S
H39 C17 0.930 . S
Pr40 C42 2.880 . S
Pr40 O60 2.562 . S
Pr40 O61 2.490 . S
Pr40 O62 2.695 . S
Pr40 O63 2.512 . S
Pr40 O65 2.437 . S
Pr40 O68 2.436 1_545 S
Pr40 O70 2.438 . S
Pr41 C51 2.880 . S
Pr41 O62 2.436 . S
Pr41 O64 2.438 1_545 S
Pr41 O66 2.562 . S
Pr41 O67 2.490 1_545 S
Pr41 O68 2.695 1_545 S
Pr41 O69 2.512 1_545 S
Pr41 O71 2.437 . S
C42 Pr40 2.880 . S
C42 C43 1.491 . S
C42 O60 1.254 . S
C42 O61 1.225 . S
C43 C42 1.491 . S
C43 C44 1.392 . S
C43 C48 1.356 . S
C44 C43 1.392 . S
C44 C45 1.368 . S
C44 H72 0.929 . S
C45 C44 1.368 . S
C45 C46 1.386 . S
C45 H73 0.929 . S
C46 C45 1.386 . S
C46 C47 1.373 . S
C47 C46 1.373 . S
C47 C48 1.409 . S
C47 H74 0.931 1_545 S
C48 C43 1.356 . S
C48 C47 1.409 . S
C48 H75 0.930 1_545 S
C49 O62 1.270 . S
C49 O63 1.248 . S
C50 O64 1.267 1_545 S
C50 O65 1.278 . S
C51 Pr41 2.880 . S
C51 C52 1.491 . S
C51 O66 1.254 . S
C51 O67 1.225 1_545 S
C52 C51 1.491 . S
C52 C53 1.392 1_545 S
C52 C57 1.356 . S
C53 C52 1.392 1_565 S
C53 C54 1.368 . S
C53 H76 0.929 . S
C54 C53 1.368 . S
C54 C55 1.386 1_565 S
C54 H77 0.929 . S
C55 C54 1.386 1_545 S
C55 C56 1.373 . S
C56 C55 1.373 . S
C56 C57 1.409 . S
C56 H78 0.931 . S
C57 C52 1.356 . S
C57 C56 1.409 . S
C57 H79 0.930 . S
C58 O68 1.270 . S
C58 O69 1.248 . S
C59 O70 1.267 . S
C59 O71 1.278 . S
O60 Pr40 2.562 . S
O60 C42 1.254 . S
O61 Pr40 2.490 . S
O61 C42 1.225 . S
O62 Pr40 2.695 . S
O62 Pr41 2.436 . S
O62 C49 1.270 . S
O63 Pr40 2.512 . S
O63 C49 1.248 . S
O64 Pr41 2.438 1_565 S
O64 C50 1.267 1_565 S
O65 Pr40 2.437 . S
O65 C50 1.278 . S
O66 Pr41 2.562 . S
O66 C51 1.254 . S
O67 Pr41 2.490 1_565 S
O67 C51 1.225 1_565 S
O68 Pr40 2.436 1_565 S
O68 Pr41 2.695 1_565 S
O68 C58 1.270 . S
O69 Pr41 2.512 1_565 S
O69 C58 1.248 . S
O70 Pr40 2.438 . S
O70 C59 1.267 . S
O71 Pr41 2.437 . S
O71 C59 1.278 . S
H72 C44 0.929 . S
H73 C45 0.929 . S
H74 C47 0.931 1_565 S
H75 C48 0.930 1_565 S
H76 C53 0.929 . S
H77 C54 0.929 . S
H78 C56 0.931 . S
H79 C57 0.930 . S
Pr80 C82 2.880 . S
Pr80 O100 2.562 . S
Pr80 O101 2.490 . S
Pr80 O102 2.695 . S
Pr80 O103 2.512 . S
Pr80 O105 2.437 . S
Pr80 O108 2.436 . S
Pr80 O110 2.438 . S
Pr81 C91 2.880 . S
Pr81 O102 2.436 . S
Pr81 O104 2.438 . S
Pr81 O106 2.562 . S
Pr81 O107 2.490 1_565 S
Pr81 O108 2.695 . S
Pr81 O109 2.512 1_565 S
Pr81 O111 2.437 . S
C82 Pr80 2.880 . S
C82 C83 1.491 . S
C82 O100 1.254 . S
C82 O101 1.225 . S
C83 C82 1.491 . S
C83 C84 1.392 . S
C83 C88 1.356 . S
C84 C83 1.392 . S
C84 C85 1.368 . S
C84 H112 0.929 . S
C85 C84 1.368 . S
C85 C86 1.386 . S
C85 H113 0.929 . S
C86 C85 1.386 . S
C86 C87 1.373 . S
C87 C86 1.373 . S
C87 C88 1.409 . S
C87 H114 0.931 . S
C88 C83 1.356 . S
C88 C87 1.409 . S
C88 H115 0.930 . S
C89 O102 1.270 . S
C89 O103 1.248 . S
C90 O104 1.267 . S
C90 O105 1.278 . S
C91 Pr81 2.880 . S
C91 C92 1.491 . S
C91 O106 1.254 . S
C91 O107 1.225 1_565 S
C92 C91 1.491 . S
C92 C93 1.392 1_565 S
C92 C97 1.356 . S
C93 C92 1.392 1_545 S
C93 C94 1.368 . S
C93 H116 0.929 . S
C94 C93 1.368 . S
C94 C95 1.386 1_545 S
C94 H117 0.929 . S
C95 C94 1.386 1_565 S
C95 C96 1.373 . S
C96 C95 1.373 . S
C96 C97 1.409 . S
C96 H118 0.931 . S
C97 C92 1.356 . S
C97 C96 1.409 . S
C97 H119 0.930 . S
C98 O108 1.270 1_545 S
C98 O109 1.248 . S
C99 O110 1.267 . S
C99 O111 1.278 . S
O100 Pr80 2.562 . S
O100 C82 1.254 . S
O101 Pr80 2.490 . S
O101 C82 1.225 . S
O102 Pr80 2.695 . S
O102 Pr81 2.436 . S
O102 C89 1.270 . S
O103 Pr80 2.512 . S
O103 C89 1.248 . S
O104 Pr81 2.438 . S
O104 C90 1.267 . S
O105 Pr80 2.437 . S
O105 C90 1.278 . S
O106 Pr81 2.562 . S
O106 C91 1.254 . S
O107 Pr81 2.490 1_545 S
O107 C91 1.225 1_545 S
O108 Pr80 2.436 . S
O108 Pr81 2.695 . S
O108 C98 1.270 1_565 S
O109 Pr81 2.512 1_545 S
O109 C98 1.248 . S
O110 Pr80 2.438 . S
O110 C99 1.267 . S
O111 Pr81 2.437 . S
O111 C99 1.278 . S
H112 C84 0.929 . S
H113 C85 0.929 . S
H114 C87 0.931 . S
H115 C88 0.930 . S
H116 C93 0.929 . S
H117 C94 0.929 . S
H118 C96 0.931 . S
H119 C97 0.930 . S
Pr120 C122 2.880 . S
Pr120 O140 2.562 . S
Pr120 O141 2.490 . S
Pr120 O142 2.695 . S
Pr120 O143 2.512 . S
Pr120 O145 2.437 . S
Pr120 O148 2.436 . S
Pr120 O150 2.438 . S
Pr121 C131 2.880 . S
Pr121 O142 2.436 . S
Pr121 O144 2.438 . S
Pr121 O146 2.562 . S
Pr121 O147 2.490 1_655 S
Pr121 O148 2.695 . S
Pr121 O149 2.512 1_655 S
Pr121 O151 2.437 . S
C122 Pr120 2.880 . S
C122 C123 1.491 . S
C122 O140 1.254 . S
C122 O141 1.225 . S
C123 C122 1.491 . S
C123 C124 1.392 . S
C123 C128 1.356 . S
C124 C123 1.392 . S
C124 C125 1.368 . S
C124 H152 0.929 . S
C125 C124 1.368 . S
C125 C126 1.386 . S
C125 H153 0.929 . S
C126 C125 1.386 . S
C126 C127 1.373 . S
C127 C126 1.373 . S
C127 C128 1.409 . S
C127 H154 0.931 . S
C128 C123 1.356 . S
C128 C127 1.409 . S
C128 H155 0.930 . S
C129 O142 1.270 . S
C129 O143 1.248 . S
C130 O144 1.267 . S
C130 O145 1.278 . S
C131 Pr121 2.880 . S
C131 C132 1.491 . S
C131 O146 1.254 . S
C131 O147 1.225 1_655 S
C132 C131 1.491 . S
C132 C133 1.392 1_655 S
C132 C137 1.356 . S
C133 C132 1.392 1_455 S
C133 C134 1.368 . S
C133 H156 0.929 . S
C134 C133 1.368 . S
C134 C135 1.386 1_455 S
C134 H157 0.929 . S
C135 C134 1.386 1_655 S
C135 C136 1.373 . S
C136 C135 1.373 . S
C136 C137 1.409 . S
C136 H158 0.931 . S
C137 C132 1.356 . S
C137 C136 1.409 . S
C137 H159 0.930 . S
C138 O148 1.270 1_455 S
C138 O149 1.248 . S
C139 O150 1.267 . S
C139 O151 1.278 . S
O140 Pr120 2.562 . S
O140 C122 1.254 . S
O141 Pr120 2.490 . S
O141 C122 1.225 . S
O142 Pr120 2.695 . S
O142 Pr121 2.436 . S
O142 C129 1.270 . S
O143 Pr120 2.512 . S
O143 C129 1.248 . S
O144 Pr121 2.438 . S
O144 C130 1.267 . S
O145 Pr120 2.437 . S
O145 C130 1.278 . S
O146 Pr121 2.562 . S
O146 C131 1.254 . S
O147 Pr121 2.490 1_455 S
O147 C131 1.225 1_455 S
O148 Pr120 2.436 . S
O148 Pr121 2.695 . S
O148 C138 1.270 1_655 S
O149 Pr121 2.512 1_455 S
O149 C138 1.248 . S
O150 Pr120 2.438 . S
O150 C139 1.267 . S
O151 Pr121 2.437 . S
O151 C139 1.278 . S
H152 C124 0.929 . S
H153 C125 0.929 . S
H154 C127 0.931 . S
H155 C128 0.930 . S
H156 C133 0.929 . S
H157 C134 0.929 . S
H158 C136 0.931 . S
H159 C137 0.930 . S
Pr160 C162 2.880 . S
Pr160 O180 2.562 . S
Pr160 O181 2.490 . S
Pr160 O182 2.695 . S
Pr160 O183 2.512 . S
Pr160 O185 2.437 . S
Pr160 O188 2.436 1_455 S
Pr160 O190 2.438 . S
Pr161 C171 2.880 . S
Pr161 O182 2.436 . S
Pr161 O184 2.438 1_455 S
Pr161 O186 2.562 . S
Pr161 O187 2.490 1_455 S
Pr161 O188 2.695 1_455 S
Pr161 O189 2.512 1_455 S
Pr161 O191 2.437 . S
C162 Pr160 2.880 . S
C162 C163 1.491 . S
C162 O180 1.254 . S
C162 O181 1.225 . S
C163 C162 1.491 . S
C163 C164 1.392 . S
C163 C168 1.356 . S
C164 C163 1.392 . S
C164 C165 1.368 . S
C164 H192 0.929 . S
C165 C164 1.368 . S
C165 C166 1.386 . S
C165 H193 0.929 . S
C166 C165 1.386 . S
C166 C167 1.373 . S
C167 C166 1.373 . S
C167 C168 1.409 . S
C167 H194 0.931 1_455 S
C168 C163 1.356 . S
C168 C167 1.409 . S
C168 H195 0.930 1_455 S
C169 O182 1.270 . S
C169 O183 1.248 . S
C170 O184 1.267 1_455 S
C170 O185 1.278 . S
C171 Pr161 2.880 . S
C171 C172 1.491 . S
C171 O186 1.254 . S
C171 O187 1.225 1_455 S
C172 C171 1.491 . S
C172 C173 1.392 1_455 S
C172 C177 1.356 . S
C173 C172 1.392 1_655 S
C173 C174 1.368 . S
C173 H196 0.929 . S
C174 C173 1.368 . S
C174 C175 1.386 1_655 S
C174 H197 0.929 . S
C175 C174 1.386 1_455 S
C175 C176 1.373 . S
C176 C175 1.373 . S
C176 C177 1.409 . S
C176 H198 0.931 . S
C177 C172 1.356 . S
C177 C176 1.409 . S
C177 H199 0.930 . S
C178 O188 1.270 . S
C178 O189 1.248 . S
C179 O190 1.267 . S
C179 O191 1.278 . S
O180 Pr160 2.562 . S
O180 C162 1.254 . S
O181 Pr160 2.490 . S
O181 C162 1.225 . S
O182 Pr160 2.695 . S
O182 Pr161 2.436 . S
O182 C169 1.270 . S
O183 Pr160 2.512 . S
O183 C169 1.248 . S
O184 Pr161 2.438 1_655 S
O184 C170 1.267 1_655 S
O185 Pr160 2.437 . S
O185 C170 1.278 . S
O186 Pr161 2.562 . S
O186 C171 1.254 . S
O187 Pr161 2.490 1_655 S
O187 C171 1.225 1_655 S
O188 Pr160 2.436 1_655 S
O188 Pr161 2.695 1_655 S
O188 C178 1.270 . S
O189 Pr161 2.512 1_655 S
O189 C178 1.248 . S
O190 Pr160 2.438 . S
O190 C179 1.267 . S
O191 Pr161 2.437 . S
O191 C179 1.278 . S
H192 C164 0.929 . S
H193 C165 0.929 . S
H194 C167 0.931 1_655 S
H195 C168 0.930 1_655 S
H196 C173 0.929 . S
H197 C174 0.929 . S
H198 C176 0.931 . S
H199 C177 0.930 . S
Pr200 C202 2.880 . S
Pr200 O220 2.562 . S
Pr200 O221 2.490 . S
Pr200 O222 2.695 . S
Pr200 O223 2.512 . S
Pr200 O225 2.437 . S
Pr200 O228 2.436 . S
Pr200 O230 2.438 . S
Pr201 C211 2.880 . S
Pr201 O222 2.436 . S
Pr201 O224 2.438 . S
Pr201 O226 2.562 . S
Pr201 O227 2.490 . S
Pr201 O228 2.695 . S
Pr201 O229 2.512 . S
Pr201 O231 2.437 . S
C202 Pr200 2.880 . S
C202 C203 1.491 . S
C202 O220 1.254 . S
C202 O221 1.225 . S
C203 C202 1.491 . S
C203 C204 1.392 . S
C203 C208 1.356 . S
C204 C203 1.392 . S
C204 C205 1.368 . S
C204 H232 0.929 . S
C205 C204 1.368 . S
C205 C206 1.388 1_556 S
C205 H233 0.929 . S
C206 C205 1.388 1_554 S
C206 C207 1.375 1_554 S
C207 C206 1.375 1_556 S
C207 C208 1.409 . S
C207 H234 0.931 . S
C208 C203 1.356 . S
C208 C207 1.409 . S
C208 H235 0.930 . S
C209 O222 1.270 . S
C209 O223 1.248 . S
C210 O224 1.267 . S
C210 O225 1.278 . S
C211 Pr201 2.880 . S
C211 C212 1.491 . S
C211 O226 1.254 . S
C211 O227 1.225 . S
C212 C211 1.491 . S
C212 C213 1.392 . S
C212 C217 1.356 . S
C213 C212 1.392 . S
C213 C214 1.368 . S
C213 H236 0.929 . S
C214 C213 1.368 . S
C214 C215 1.386 . S
C214 H237 0.929 . S
C215 C214 1.386 . S
C215 C216 1.373 . S
C216 C215 1.373 . S
C216 C217 1.409 . S
C216 H238 0.931 . S
C217 C212 1.356 . S
C217 C216 1.409 . S
C217 H239 0.930 . S
C218 O228 1.270 . S
C218 O229 1.248 . S
C219 O230 1.267 . S
C219 O231 1.278 . S
O220 Pr200 2.562 . S
O220 C202 1.254 . S
O221 Pr200 2.490 . S
O221 C202 1.225 . S
O222 Pr200 2.695 . S
O222 Pr201 2.436 . S
O222 C209 1.270 . S
O223 Pr200 2.512 . S
O223 C209 1.248 . S
O224 Pr201 2.438 . S
O224 C210 1.267 . S
O225 Pr200 2.437 . S
O225 C210 1.278 . S
O226 Pr201 2.562 . S
O226 C211 1.254 . S
O227 Pr201 2.490 . S
O227 C211 1.225 . S
O228 Pr200 2.436 . S
O228 Pr201 2.695 . S
O228 C218 1.270 . S
O229 Pr201 2.512 . S
O229 C218 1.248 . S
O230 Pr200 2.438 . S
O230 C219 1.267 . S
O231 Pr201 2.437 . S
O231 C219 1.278 . S
H232 C204 0.929 . S
H233 C205 0.929 . S
H234 C207 0.931 . S
H235 C208 0.930 . S
H236 C213 0.929 . S
H237 C214 0.929 . S
H238 C216 0.931 . S
H239 C217 0.930 . S
C240 C241 1.387 . S
C240 H244 0.950 . S
C240 C249 1.390 . S
C241 C240 1.387 . S
C241 C243 1.387 . S
H242 C249 0.950 . S
C243 C241 1.387 . S
C243 C245 1.390 . S
C243 H247 0.950 . S
H244 C240 0.950 . S
C245 C243 1.390 . S
C245 C246 1.387 . S
C245 H248 0.950 . S
C246 C245 1.387 . S
C246 C249 1.387 . S
H247 C243 0.950 . S
H248 C245 0.950 . S
C249 C240 1.390 . S
C249 H242 0.950 . S
C249 C246 1.387 . S
C250 C251 1.387 . S
C250 H254 0.950 . S
C250 C259 1.390 . S
C251 C250 1.387 . S
C251 C253 1.387 . S
H252 C259 0.950 . S
C253 C251 1.387 . S
C253 C255 1.390 . S
C253 H257 0.950 . S
H254 C250 0.950 . S
C255 C253 1.390 . S
C255 C256 1.387 . S
C255 H258 0.950 . S
C256 C255 1.387 . S
C256 C259 1.387 . S
H257 C253 0.950 . S
H258 C255 0.950 . S
C259 C250 1.390 . S
C259 H252 0.950 . S
C259 C256 1.387 . S
C260 C261 1.387 . S
C260 H264 0.950 . S
C260 C269 1.390 . S
C261 C260 1.387 . S
C261 C263 1.387 . S
H262 C269 0.950 . S
C263 C261 1.387 . S
C263 C265 1.390 . S
C263 H267 0.950 . S
H264 C260 0.950 . S
C265 C263 1.390 . S
C265 C266 1.387 . S
C265 H268 0.950 . S
C266 C265 1.387 . S
C266 C269 1.387 . S
H267 C263 0.950 . S
H268 C265 0.950 . S
C269 C260 1.390 . S
C269 H262 0.950 . S
C269 C266 1.387 . S
C270 C271 1.387 . S
C270 H274 0.950 . S
C270 C279 1.390 . S
C271 C270 1.387 . S
C271 C273 1.387 . S
H272 C279 0.950 . S
C273 C271 1.387 . S
C273 C275 1.390 . S
C273 H277 0.950 . S
H274 C270 0.950 . S
C275 C273 1.390 . S
C275 C276 1.387 . S
C275 H278 0.950 . S
C276 C275 1.387 . S
C276 C279 1.387 . S
H277 C273 0.950 . S
H278 C275 0.950 . S
C279 C270 1.390 . S
C279 H272 0.950 . S
C279 C276 1.387 . S
C280 C281 1.387 . S
C280 H284 0.950 . S
C280 C289 1.390 . S
C281 C280 1.387 . S
C281 C283 1.387 . S
H282 C289 0.950 . S
C283 C281 1.387 . S
C283 C285 1.390 . S
C283 H287 0.950 . S
H284 C280 0.950 . S
C285 C283 1.390 . S
C285 C286 1.387 . S
C285 H288 0.950 . S
C286 C285 1.387 . S
C286 C289 1.387 . S
H287 C283 0.950 . S
H288 C285 0.950 . S
C289 C280 1.390 . S
C289 H282 0.950 . S
C289 C286 1.387 . S
C290 C291 1.387 . S
C290 H294 0.950 . S
C290 C299 1.390 . S
C291 C290 1.387 . S
C291 C293 1.387 . S
H292 C299 0.950 . S
C293 C291 1.387 . S
C293 C295 1.390 . S
C293 H297 0.950 . S
H294 C290 0.950 . S
C295 C293 1.390 . S
C295 C296 1.387 . S
C295 H298 0.950 . S
C296 C295 1.387 . S
C296 C299 1.387 . S
H297 C293 0.950 . S
H298 C295 0.950 . S
C299 C290 1.390 . S
C299 H292 0.950 . S
C299 C296 1.387 . S
C300 C301 1.387 . S
C300 H304 0.950 . S
C300 C309 1.390 . S
C301 C300 1.387 . S
C301 C303 1.387 . S
H302 C309 0.950 . S
C303 C301 1.387 . S
C303 C305 1.390 . S
C303 H307 0.950 . S
H304 C300 0.950 . S
C305 C303 1.390 . S
C305 C306 1.387 . S
C305 H308 0.950 . S
C306 C305 1.387 . S
C306 C309 1.387 . S
H307 C303 0.950 . S
H308 C305 0.950 . S
C309 C300 1.390 . S
C309 H302 0.950 . S
C309 C306 1.387 . S
C310 C311 1.387 . S
C310 H314 0.950 . S
C310 C319 1.390 . S
C311 C310 1.387 . S
C311 C313 1.387 . S
H312 C319 0.950 . S
C313 C311 1.387 . S
C313 C315 1.390 . S
C313 H317 0.950 . S
H314 C310 0.950 . S
C315 C313 1.390 . S
C315 C316 1.387 . S
C315 H318 0.950 . S
C316 C315 1.387 . S
C316 C319 1.387 . S
H317 C313 0.950 . S
H318 C315 0.950 . S
C319 C310 1.390 . S
C319 H312 0.950 . S
C319 C316 1.387 . S
C320 C321 1.387 . S
C320 H324 0.950 . S
C320 C329 1.390 . S
C321 C320 1.387 . S
C321 C323 1.387 . S
H322 C329 0.950 1_565 S
C323 C321 1.387 . S
C323 C325 1.390 . S
C323 H327 0.950 . S
H324 C320 0.950 . S
C325 C323 1.390 . S
C325 C326 1.387 . S
C325 H328 0.950 . S
C326 C325 1.387 . S
C326 C329 1.387 . S
H327 C323 0.950 . S
H328 C325 0.950 . S
C329 C320 1.390 . S
C329 H322 0.950 1_545 S
C329 C326 1.387 . S
C330 C331 1.387 . S
C330 H334 0.950 . S
C330 C339 1.390 . S
C331 C330 1.387 . S
C331 C333 1.387 . S
H332 C339 0.950 . S
C333 C331 1.387 . S
C333 C335 1.390 . S
C333 H337 0.950 . S
H334 C330 0.950 . S
C335 C333 1.390 . S
C335 C336 1.387 . S
C335 H338 0.950 . S
C336 C335 1.387 . S
C336 C339 1.387 . S
H337 C333 0.950 . S
H338 C335 0.950 . S
C339 C330 1.390 . S
C339 H332 0.950 . S
C339 C336 1.387 . S
C340 C341 1.387 . S
C340 H344 0.950 . S
C340 C349 1.390 . S
C341 C340 1.387 . S
C341 C343 1.387 . S
H342 C349 0.950 . S
C343 C341 1.387 . S
C343 C345 1.390 . S
C343 H347 0.950 . S
H344 C340 0.950 . S
C345 C343 1.390 . S
C345 C346 1.387 . S
C345 H348 0.950 . S
C346 C345 1.387 . S
C346 C349 1.387 . S
H347 C343 0.950 . S
H348 C345 0.950 . S
C349 C340 1.390 . S
C349 H342 0.950 . S
C349 C346 1.387 . S
C350 C351 1.387 . S
C350 H354 0.950 . S
C350 C359 1.390 . S
C351 C350 1.387 . S
C351 C353 1.387 . S
H352 C359 0.950 . S
C353 C351 1.387 . S
C353 C355 1.390 . S
C353 H357 0.950 . S
H354 C350 0.950 . S
C355 C353 1.390 . S
C355 C356 1.387 . S
C355 H358 0.950 . S
C356 C355 1.387 . S
C356 C359 1.387 . S
H357 C353 0.950 . S
H358 C355 0.950 . S
C359 C350 1.390 . S
C359 H352 0.950 . S
C359 C356 1.387 . S
C360 C361 1.387 . S
C360 H364 0.950 . S
C360 C369 1.390 . S
C361 C360 1.387 . S
C361 C363 1.387 . S
H362 C369 0.950 . S
C363 C361 1.387 . S
C363 C365 1.390 . S
C363 H367 0.950 . S
H364 C360 0.950 . S
C365 C363 1.390 . S
C365 C366 1.392 . S
C365 H368 0.950 . S
C366 C365 1.392 . S
C366 C369 1.391 . S
H367 C363 0.950 . S
H368 C365 0.950 . S
C369 C360 1.390 . S
C369 H362 0.950 . S
C369 C366 1.391 . S
C370 C371 1.387 1_565 S
C370 H374 0.950 . S
C370 C379 1.390 . S
C371 C370 1.387 1_545 S
C371 C373 1.387 . S
H372 C379 0.950 . S
C373 C371 1.387 . S
C373 C375 1.390 1_655 S
C373 H377 0.950 1_655 S
H374 C370 0.950 . S
C375 C373 1.390 1_455 S
C375 C376 1.387 . S
C375 H378 0.950 . S
C376 C375 1.387 . S
C376 C379 1.387 1_445 S
H377 C373 0.950 1_455 S
H378 C375 0.950 . S
C379 C370 1.390 . S
C379 H372 0.950 . S
C379 C376 1.387 1_665 S
C380 C381 1.387 . S
C380 H384 0.950 . S
C380 C389 1.390 . S
C381 C380 1.387 . S
C381 C383 1.386 . S
H382 C389 0.950 . S
C383 C381 1.386 . S
C383 C385 1.390 1_565 S
C383 H387 0.951 1_565 S
H384 C380 0.950 . S
C385 C383 1.390 1_545 S
C385 C386 1.387 1_545 S
C385 H388 0.950 . S
C386 C385 1.387 1_565 S
C386 C389 1.387 . S
H387 C383 0.951 1_545 S
H388 C385 0.950 . S
C389 C380 1.390 . S
C389 H382 0.950 . S
C389 C386 1.387 . S
C390 C391 1.387 . S
C390 H394 0.950 1_565 S
C390 C399 1.390 . S
C391 C390 1.387 . S
C391 C393 1.387 . S
H392 C399 0.950 1_554 S
C393 C391 1.387 . S
C393 C395 1.390 . S
C393 H397 0.950 . S
H394 C390 0.950 1_545 S
C395 C393 1.390 . S
C395 C396 1.387 . S
C395 H398 0.950 . S
C396 C395 1.387 . S
C396 C399 1.387 . S
H397 C393 0.950 . S
H398 C395 0.950 . S
C399 C390 1.390 . S
C399 H392 0.950 1_556 S
C399 C396 1.387 . S
C400 C401 1.387 . S
C400 H404 0.950 . S
C400 C409 1.390 . S
C401 C400 1.387 . S
C401 C403 1.387 . S
H402 C409 0.950 . S
C403 C401 1.387 . S
C403 C405 1.390 . S
C403 H407 0.950 . S
H404 C400 0.950 . S
C405 C403 1.390 . S
C405 C406 1.387 . S
C405 H408 0.950 . S
C406 C405 1.387 . S
C406 C409 1.387 . S
H407 C403 0.950 . S
H408 C405 0.950 . S
C409 C400 1.390 . S
C409 H402 0.950 . S
C409 C406 1.387 . S
C410 C411 1.387 1_655 S
C410 H414 0.950 . S
C410 C419 1.390 1_545 S
C411 C410 1.387 1_455 S
C411 C413 1.387 . S
H412 C419 0.950 . S
C413 C411 1.387 . S
C413 C415 1.390 1_545 S
C413 H417 0.950 . S
H414 C410 0.950 . S
C415 C413 1.390 1_565 S
C415 C416 1.387 . S
C415 H418 0.950 . S
C416 C415 1.387 . S
C416 C419 1.387 1_455 S
H417 C413 0.950 . S
H418 C415 0.950 . S
C419 C410 1.390 1_565 S
C419 H412 0.950 . S
C419 C416 1.387 1_655 S
C241 C166 1.743 . S
C246 C19 1.796 . S
C251 C219 1.794 . S
C256 C46 1.741 . S
C261 C6 1.743 . S
C266 C99 1.796 . S
C271 C59 1.794 . S
C276 C126 1.740 . S
C281 C86 1.742 . S
C286 C179 1.795 . S
C291 C139 1.796 . S
C296 C206 1.739 . S
C301 C18 1.933 . S
C306 C129 1.689 . S
C311 C178 1.935 . S
C316 C49 1.692 . S
C321 C209 1.689 . S
C326 C98 1.935 . S
C331 C89 1.689 . S
C336 C218 1.936 . S
C341 C9 1.692 . S
C346 C138 1.936 . S
C351 C169 1.690 . S
C356 C58 1.933 . S
C361 C210 1.865 . S
C366 C10 1.857 1_556 S
C371 C55 0.994 . S
C376 C15 0.992 . S
C381 C90 1.863 . S
C386 C50 1.863 1_565 S
C391 C95 0.995 . S
C396 C135 0.992 1_556 S
C401 C170 1.863 1_655 S
C406 C130 1.863 . S
C411 C215 0.993 . S
C416 C175 0.993 . S
