# Generated by pormake.
# Topology sml, (6)-cn, num edge types: 1
# Building blocks:
#     Node 0, Type 0, BuildingBlock: GEDQOX_clean_sbu_0, # of connection points: 6
#     Node 1, Type 0, BuildingBlock: GEDQOX_clean_sbu_0, # of connection points: 6
#     Node 2, Type 0, BuildingBlock: GEDQOX_clean_sbu_0, # of connection points: 6
#     Node 3, Type 0, BuildingBlock: GEDQOX_clean_sbu_0, # of connection points: 6
#     Node 4, Type 0, BuildingBlock: GEDQOX_clean_sbu_0, # of connection points: 6
#     Node 5, Type 0, BuildingBlock: GEDQOX_clean_sbu_0, # of connection points: 6
#     Edge 6, Type (0, 0), BuildingBlock: XUDNAN_clean_linker_2, # of connection points: 2
#     Edge 7, Type (0, 0), BuildingBlock: XUDNAN_clean_linker_2, # of connection points: 2
#     Edge 8, Type (0, 0), BuildingBlock: XUDNAN_clean_linker_2, # of connection points: 2
#     Edge 9, Type (0, 0), BuildingBlock: XUDNAN_clean_linker_2, # of connection points: 2
#     Edge 10, Type (0, 0), BuildingBlock: XUDNAN_clean_linker_2, # of connection points: 2
#     Edge 11, Type (0, 0), BuildingBlock: XUDNAN_clean_linker_2, # of connection points: 2
#     Edge 12, Type (0, 0), BuildingBlock: XUDNAN_clean_linker_2, # of connection points: 2
#     Edge 13, Type (0, 0), BuildingBlock: XUDNAN_clean_linker_2, # of connection points: 2
#     Edge 14, Type (0, 0), BuildingBlock: XUDNAN_clean_linker_2, # of connection points: 2
#     Edge 15, Type (0, 0), BuildingBlock: XUDNAN_clean_linker_2, # of connection points: 2
#     Edge 16, Type (0, 0), BuildingBlock: XUDNAN_clean_linker_2, # of connection points: 2
#     Edge 17, Type (0, 0), BuildingBlock: XUDNAN_clean_linker_2, # of connection points: 2
#     Edge 18, Type (0, 0), BuildingBlock: XUDNAN_clean_linker_2, # of connection points: 2
#     Edge 19, Type (0, 0), BuildingBlock: XUDNAN_clean_linker_2, # of connection points: 2
#     Edge 20, Type (0, 0), BuildingBlock: XUDNAN_clean_linker_2, # of connection points: 2
#     Edge 21, Type (0, 0), BuildingBlock: XUDNAN_clean_linker_2, # of connection points: 2
#     Edge 22, Type (0, 0), BuildingBlock: XUDNAN_clean_linker_2, # of connection points: 2
#     Edge 23, Type (0, 0), BuildingBlock: XUDNAN_clean_linker_2, # of connection points: 2
# Relax obj value: 0.235
# Max RMSD: 0.230
# Mean RMSD: 0.230
data_MOF--net-sml--node1-GEDQOX_clean_sbu_0--edge1-XUDNAN_clean_linker_2
_symmetry_space_group_name_H-M    P1
_symmetry_Int_Tables_number       1
_symmetry_cell_setting            triclinic
loop_
_symmetry_equiv_pos_as_xyz
'x, y, z'
_cell_length_a     53.140564
_cell_length_b     53.2524
_cell_length_c     15.520603
_cell_angle_alpha  90.009784
_cell_angle_beta   89.963613
_cell_angle_gamma 119.88301
loop_
_atom_site_label
_atom_site_type_symbol
_atom_site_fract_x
_atom_site_fract_y
_atom_site_fract_z
_atom_type_partial_charge
Nd0 Nd 0.23417 0.41845 0.03406 0.0
Nd1 Nd 0.20907 0.45831 1.02226 0.0
C2 C 0.25892 0.38578 1.02247 0.0
C3 C 0.27552 0.37523 0.97163 0.0
C4 C 0.30479 0.39347 0.94915 0.0
C5 C 0.32087 0.38207 0.91066 0.0
C6 C 0.30813 0.35214 0.89423 0.0
C7 C 0.27866 0.33412 0.91504 0.0
C8 C 0.26263 0.34551 0.95332 0.0
C9 C 0.17601 0.39371 0.07533 0.0
C10 C 0.22162 0.43662 0.84501 0.0
C11 C 0.17766 0.48431 0.03775 0.0
C12 C 0.17778 0.50852 0.08413 0.0
C13 C 0.19534 0.52113 0.15677 0.0
C14 C 0.1963 0.54526 0.19645 0.0
C15 C 0.17981 0.55726 0.16401 0.0
C16 C 0.16195 0.54414 0.09188 0.0
C17 C 0.16098 0.52005 0.05249 0.0
C18 C 0.26784 0.48638 0.9908 0.0
C19 C 0.23221 0.44829 0.21136 0.0
O20 O 0.27229 0.41237 0.05179 0.0
O21 O 0.23191 0.37671 1.00134 0.0
O22 O 0.19463 0.38986 0.11861 0.0
O23 O 0.18823 0.41021 1.01185 0.0
O24 O 0.23902 0.43119 0.89195 0.0
O25 O 0.20213 0.4416 0.88213 0.0
O26 O 0.17289 0.46161 0.08282 0.0
O27 O 0.19797 0.49139 0.98006 0.0
O28 O 0.25001 0.4932 0.95536 0.0
O29 O 0.25508 0.46711 0.0477 0.0
O30 O 0.21567 0.45659 0.1705 0.0
O31 O 0.24511 0.43614 0.17019 0.0
H32 H 0.3155 0.41643 0.96319 0.0
H33 H 0.34356 0.39661 0.89631 0.0
H34 H 0.26793 0.31108 0.90216 0.0
H35 H 0.24021 0.33086 0.97066 0.0
H36 H 0.20854 0.51256 0.18204 0.0
H37 H 0.21005 0.55457 0.25238 0.0
H38 H 0.14935 0.55299 0.06406 0.0
H39 H 0.14746 0.51072 0.99607 0.0
Nd40 Nd 0.8295 0.22902 0.36999 0.0
Nd41 Nd 0.75946 0.20174 0.36479 0.0
C42 C 0.88676 0.25886 0.35626 0.0
C43 C 0.91432 0.27899 0.31123 0.0
C44 C 0.93065 0.30791 0.3387 0.0
C45 C 0.95936 0.32544 0.31127 0.0
C46 C 0.9726 0.31451 0.25583 0.0
C47 C 0.95569 0.2862 0.22372 0.0
C48 C 0.92693 0.26858 0.25148 0.0
C49 C 0.7963 0.17125 0.41315 0.0
C50 C 0.7941 0.20847 0.18582 0.0
C51 C 0.70255 0.16804 0.37584 0.0
C52 C 0.67766 0.1702 0.40932 0.0
C53 C 0.6543 0.14601 0.44804 0.0
C54 C 0.63067 0.14773 0.48109 0.0
C55 C 0.62988 0.17374 0.47602 0.0
C56 C 0.65342 0.19795 0.43697 0.0
C57 C 0.67708 0.19623 0.40434 0.0
C58 C 0.78829 0.26185 0.35073 0.0
C59 C 0.79444 0.21839 0.55111 0.0
O60 O 0.87156 0.26918 0.39327 0.0
O61 O 0.87089 0.23225 0.32782 0.0
O62 O 0.82179 0.18862 0.44489 0.0
O63 O 0.79013 0.18404 0.35536 0.0
O64 O 0.81895 0.22669 0.22406 0.0
O65 O 0.76968 0.19303 0.22929 0.0
O66 O 0.72059 0.16809 0.43355 0.0
O67 O 0.7157 0.18351 0.30735 0.0
O68 O 0.76025 0.24584 0.35115 0.0
O69 O 0.79879 0.24556 0.36035 0.0
O70 O 0.77005 0.20351 0.50739 0.0
O71 O 0.82006 0.23402 0.51303 0.0
H72 H 0.92178 0.31661 0.38516 0.0
H73 H 0.97163 0.34728 0.33635 0.0
H74 H 0.96523 0.27703 0.18143 0.0
H75 H 0.91514 0.24632 0.22959 0.0
H76 H 0.65441 0.12576 0.4531 0.0
H77 H 0.61321 0.12877 0.51172 0.0
H78 H 0.65346 0.21822 0.43061 0.0
H79 H 0.69491 0.21527 0.3751 0.0
Nd80 Nd 0.61154 0.82577 0.71124 0.0
Nd81 Nd 0.56975 0.7558 0.70776 0.0
C82 C 0.63805 0.88285 0.69696 0.0
C83 C 0.64555 0.91085 0.65504 0.0
C84 C 0.63789 0.92953 0.69646 0.0
C85 C 0.65002 0.95845 0.67062 0.0
C86 C 0.67016 0.96948 0.60255 0.0
C87 C 0.67624 0.9503 0.55683 0.0
C88 C 0.6642 0.92129 0.58315 0.0
C89 C 0.63717 0.79349 0.75507 0.0
C90 C 0.59687 0.79007 0.52786 0.0
C91 C 0.54678 0.69899 0.72001 0.0
C92 C 0.51962 0.6747 0.75411 0.0
C93 C 0.51754 0.64777 0.76911 0.0
C94 C 0.49193 0.62465 0.80241 0.0
C95 C 0.46786 0.62804 0.82121 0.0
C96 C 0.47016 0.6552 0.80625 0.0
C97 C 0.49579 0.6783 0.77325 0.0
C98 C 0.53762 0.78398 0.69416 0.0
C99 C 0.58882 0.79119 0.89331 0.0
O100 O 0.61287 0.86763 0.73562 0.0
O101 O 0.64876 0.86715 0.66632 0.0
O102 O 0.64511 0.81913 0.78504 0.0
O103 O 0.618 0.78673 0.69749 0.0
O104 O 0.60297 0.8148 0.56582 0.0
O105 O 0.58842 0.76581 0.57158 0.0
O106 O 0.56469 0.71718 0.77736 0.0
O107 O 0.54438 0.71194 0.65118 0.0
O108 O 0.52606 0.75605 0.69468 0.0
O109 O 0.56445 0.79473 0.70335 0.0
O110 O 0.5795 0.76675 0.8501 0.0
O111 O 0.59784 0.81654 0.85477 0.0
H112 H 0.62379 0.92227 0.75237 0.0
H113 H 0.64471 0.97261 0.70671 0.0
H114 H 0.6918 0.95819 0.50449 0.0
H115 H 0.67074 0.90755 0.55008 0.0
H116 H 0.53574 0.6446 0.75496 0.0
H117 H 0.49085 0.60401 0.81231 0.0
H118 H 0.45226 0.65875 0.82118 0.0
H119 H 0.49704 0.699 0.76296 0.0
Nd120 Nd 0.79925 0.60561 0.02968 0.0
Nd121 Nd 0.82255 0.56085 1.02363 0.0
C122 C 0.77721 0.64036 1.01331 0.0
C123 C 0.76008 0.6518 0.96984 0.0
C124 C 0.72986 0.63489 0.95746 0.0
C125 C 0.71364 0.64794 0.93161 0.0
C126 C 0.72737 0.67803 0.9185 0.0
C127 C 0.75766 0.69455 0.92673 0.0
C128 C 0.77381 0.68157 0.9517 0.0
C129 C 0.85675 0.62651 0.07308 0.0
C130 C 0.80773 0.58122 0.84269 0.0
C131 C 0.8553 0.53655 0.03734 0.0
C132 C 0.85239 0.50955 0.07386 0.0
C133 C 0.87547 0.51049 0.12038 0.0
C134 C 0.87318 0.48514 0.15499 0.0
C135 C 0.84774 0.45819 0.14358 0.0
C136 C 0.82458 0.45742 0.09721 0.0
C137 C 0.82683 0.4828 0.06308 0.0
C138 C 0.76259 0.53087 1.01332 0.0
C139 C 0.79896 0.57406 0.20694 0.0
O140 O 0.7638 0.61537 0.05347 0.0
O141 O 0.80259 0.64657 0.98195 0.0
O142 O 0.83962 0.63335 0.11309 0.0
O143 O 0.84351 0.60929 1.01199 0.0
O144 O 0.79381 0.59145 0.88848 0.0
O145 O 0.82471 0.57258 0.8791 0.0
O146 O 0.85633 0.55566 0.09261 0.0
O147 O 0.83967 0.53395 0.96906 0.0
O148 O 0.77821 0.51837 1.01472 0.0
O149 O 0.77902 0.55777 1.02058 0.0
O150 O 0.81685 0.56665 0.16981 0.0
O151 O 0.78567 0.58532 0.16285 0.0
H152 H 0.7186 0.61192 0.97155 0.0
H153 H 0.69025 0.63483 0.92686 0.0
H154 H 0.76869 0.71782 0.9179 0.0
H155 H 0.79697 0.69519 0.96158 0.0
H156 H 0.89531 0.53091 0.13003 0.0
H157 H 0.89129 0.48674 0.19142 0.0
H158 H 0.8048 0.43711 0.08592 0.0
H159 H 0.8086 0.48143 1.02783 0.0
Nd160 Nd 0.20515 0.79428 0.35349 0.0
Nd161 Nd 0.273 0.81561 0.35048 0.0
C162 C 0.1483 0.77199 0.33463 0.0
C163 C 0.12018 0.7507 0.2945 0.0
C164 C 0.10567 0.72137 0.31912 0.0
C165 C 0.07683 0.7028 0.29412 0.0
C166 C 0.06171 0.71302 0.24395 0.0
C167 C 0.07679 0.74193 0.21529 0.0
C168 C 0.10561 0.76055 0.24064 0.0
C169 C 0.24304 0.85258 0.38251 0.0
C170 C 0.23785 0.79892 0.16947 0.0
C171 C 0.33011 0.848 0.36075 0.0
C172 C 0.35413 0.84641 0.40302 0.0
C173 C 0.34896 0.82754 0.47241 0.0
C174 C 0.37194 0.82577 0.51044 0.0
C175 C 0.40054 0.84277 0.47958 0.0
C176 C 0.40549 0.86169 0.41006 0.0
C177 C 0.38252 0.86347 0.37227 0.0
C178 C 0.24191 0.75575 0.34892 0.0
C179 C 0.23616 0.79531 0.53358 0.0
O180 O 0.16005 0.76281 0.39179 0.0
O181 O 0.16749 0.79391 0.28887 0.0
O182 O 0.21835 0.83788 0.4217 0.0
O183 O 0.24623 0.83687 0.32811 0.0
O184 O 0.21375 0.78515 0.21551 0.0
O185 O 0.26334 0.81642 0.20548 0.0
O186 O 0.31222 0.85135 0.41135 0.0
O187 O 0.31686 0.82937 0.29855 0.0
O188 O 0.27005 0.77077 0.35002 0.0
O189 O 0.23189 0.77274 0.35166 0.0
O190 O 0.26164 0.81235 0.49644 0.0
O191 O 0.21168 0.78238 0.48926 0.0
H192 H 0.11612 0.71299 0.36075 0.0
H193 H 0.06606 0.68056 0.31634 0.0
H194 H 0.06583 0.75065 0.17729 0.0
H195 H 0.11602 0.78309 0.22146 0.0
H196 H 0.32714 0.81411 0.49696 0.0
H197 H 0.36731 0.81121 0.56438 0.0
H198 H 0.42707 0.87475 0.38353 0.0
H199 H 0.3869 0.87802 0.31837 0.0
Nd200 Nd 0.41852 0.19849 0.6889 0.0
Nd201 Nd 0.46564 0.26617 0.68509 0.0
C202 C 0.3834 0.14182 0.67364 0.0
C203 C 0.37559 0.11372 0.63274 0.0
C204 C 0.36406 0.08886 0.6847 0.0
C205 C 0.35368 0.0614 0.64824 0.0
C206 C 0.35459 0.05806 0.55857 0.0
C207 C 0.36688 0.08314 0.5066 0.0
C208 C 0.3772 0.11069 0.54327 0.0
C209 C 0.3989 0.23711 0.71845 0.0
C210 C 0.44621 0.2307 0.50423 0.0
C211 C 0.49046 0.32324 0.69398 0.0
C212 C 0.51598 0.34749 0.7353 0.0
C213 C 0.52933 0.34296 0.80696 0.0
C214 C 0.55396 0.36618 0.84414 0.0
C215 C 0.56581 0.39438 0.81016 0.0
C216 C 0.55217 0.39871 0.73849 0.0
C217 C 0.52752 0.3755 0.70155 0.0
C218 C 0.49364 0.2342 0.68114 0.0
C219 C 0.44916 0.22959 0.86845 0.0
O220 O 0.40536 0.15329 0.72724 0.0
O221 O 0.38042 0.16108 0.62898 0.0
O222 O 0.38866 0.21245 0.75769 0.0
O223 O 0.41761 0.2399 0.66381 0.0
O224 O 0.43545 0.20658 0.55013 0.0
O225 O 0.45479 0.25631 0.54028 0.0
O226 O 0.46935 0.3056 0.74519 0.0
O227 O 0.49584 0.30975 0.63234 0.0
O228 O 0.50717 0.26232 0.68309 0.0
O229 O 0.46674 0.22474 0.68535 0.0
O230 O 0.45796 0.25509 0.83124 0.0
O231 O 0.43718 0.20509 0.82434 0.0
H232 H 0.3625 0.09062 0.75384 0.0
H233 H 0.34488 0.04275 0.6905 0.0
H234 H 0.36778 0.08142 0.43728 0.0
H235 H 0.38589 0.12951 0.50162 0.0
H236 H 0.52077 0.32146 0.83392 0.0
H237 H 0.56364 0.36204 0.8998 0.0
H238 H 0.56089 0.41995 0.70961 0.0
H239 H 0.51761 0.37939 0.64594 0.0
H240 H 0.35871 0.23401 0.83572 0.0
H241 H 0.41775 0.28892 0.63644 0.0
H242 H 0.40166 0.32469 0.66073 0.0
H243 H 0.3005 0.24721 0.7858 0.0
H244 H 0.29029 0.24719 0.89658 0.0
H245 H 0.30701 0.22635 0.86505 0.0
H246 H 0.34723 0.25289 0.97948 0.0
H247 H 0.33059 0.27377 1.01157 0.0
H248 H 0.36812 0.2919 0.97876 0.0
H249 H 0.37827 0.35418 0.70551 0.0
H250 H 0.34963 0.3749 0.76667 0.0
H251 H 0.30612 0.30089 0.93774 0.0
C252 C 0.3683 0.2536 0.79738 0.0
C253 C 0.38952 0.25871 0.7342 0.0
C254 C 0.40151 0.28459 0.68528 0.0
C255 C 0.39249 0.30502 0.69862 0.0
C256 C 0.37142 0.29929 0.76115 0.0
C257 C 0.35951 0.27422 0.80983 0.0
C258 C 0.33703 0.27313 0.87236 0.0
C259 C 0.30693 0.24692 0.8538 0.0
C260 C 0.3463 0.27292 0.96609 0.0
C261 C 0.33795 0.30137 0.85083 0.0
C262 C 0.358 0.3162 0.78675 0.0
C263 C 0.3626 0.34278 0.75597 0.0
C264 C 0.3463 0.35447 0.79149 0.0
C265 C 0.32552 0.33963 0.85714 0.0
C266 C 0.32149 0.3127 0.88693 0.0
H267 H 0.12262 0.37086 0.99499 0.0
H268 H 0.16586 0.40111 0.24113 0.0
H269 H 0.11905 0.3878 0.31022 0.0
H270 H 0.06568 0.39074 1.02695 0.0
H271 H 0.03782 0.35822 0.97652 0.0
H272 H 0.07512 0.37338 0.94338 0.0
H273 H 0.07255 0.32441 0.97485 0.0
H274 H 0.03531 0.30913 1.00832 0.0
H275 H 0.06153 0.30835 0.08026 0.0
H276 H 0.06792 0.36937 0.35464 0.0
H277 H 1.01494 0.34408 0.37462 0.0
H278 H 1.00284 0.32219 0.10263 0.0
C279 C 0.12213 0.37517 0.06298 0.0
C280 C 0.14785 0.38744 0.11269 0.0
C281 C 0.14642 0.39199 0.20195 0.0
C282 C 0.11994 0.38455 0.2417 0.0
C283 C 0.09486 0.37204 0.19163 0.0
C284 C 0.09557 0.36711 0.10438 0.0
C285 C 0.06497 0.35097 0.06768 0.0
C286 C 0.06065 0.36944 0.99959 0.0
C287 C 0.0582 0.32147 0.03061 0.0
C288 C 0.04707 0.34734 0.14807 0.0
C289 C 0.0649 0.36014 0.21833 0.0
C290 C 0.05372 0.35945 0.3 0.0
C291 C 0.02353 0.34514 0.31058 0.0
C292 C 1.00459 0.33133 0.24019 0.0
C293 C 0.01668 0.33256 0.15771 0.0
H294 H 0.75425 0.11998 0.33802 0.0
H295 H 0.79358 0.15937 0.58245 0.0
H296 H 0.7625 0.11324 0.65678 0.0
H297 H 0.68057 0.06867 0.41914 0.0
H298 H 0.6762 0.03956 0.35001 0.0
H299 H 0.69859 0.07664 0.31606 0.0
H300 H 0.74182 0.06779 0.29345 0.0
H301 H 0.71964 0.03074 0.32751 0.0
H302 H 0.75352 0.05392 0.38131 0.0
H303 H 0.72919 0.06327 0.70507 0.0
H304 H 0.698 0.01066 0.72427 0.0
H305 H 0.68241 1.00042 0.44865 0.0
C306 C 0.75575 0.11887 0.40734 0.0
C307 C 0.77581 0.14343 0.45498 0.0
C308 C 0.778 0.14099 0.54508 0.0
C309 C 0.76043 0.11485 0.58792 0.0
C310 C 0.74118 0.09091 0.53953 0.0
C311 C 0.73889 0.09242 0.45116 0.0
C312 C 0.71839 0.0625 0.41443 0.0
C313 C 0.69186 0.06181 0.37243 0.0
C314 C 0.7343 0.05319 0.35039 0.0
C315 C 0.70987 0.0441 0.49587 0.0
C316 C 0.72293 0.06122 0.56721 0.0
C317 C 0.71872 0.04962 0.64981 0.0
C318 C 0.70085 0.01969 0.66009 0.0
C319 C 0.68756 1.00139 0.58822 0.0
C320 C 0.69222 0.01385 0.50482 0.0
H321 H 0.641 0.74747 0.68303 0.0
H322 H 0.65532 0.79675 0.91846 0.0
H323 H 0.67532 0.76906 0.98793 0.0
H324 H 0.62373 0.67752 0.78833 0.0
H325 H 0.64311 0.6691 0.70862 0.0
H326 H 0.62636 0.69015 0.67916 0.0
H327 H 0.6757 0.73089 0.62194 0.0
H328 H 0.69262 0.71007 0.65146 0.0
H329 H 0.70683 0.74634 0.6923 0.0
H330 H 0.69796 0.74035 0.02892 0.0
H331 H 0.7223 0.7113 0.03962 0.0
H332 H 0.69512 0.67968 0.7796 0.0
C333 C 0.64781 0.75188 0.74969 0.0
C334 C 0.64644 0.77417 0.79558 0.0
C335 C 0.65614 0.77981 0.88206 0.0
C336 C 0.66747 0.76411 0.92233 0.0
C337 C 0.66927 0.74284 0.87525 0.0
C338 C 0.65974 0.73654 0.79094 0.0
C339 C 0.66639 0.71398 0.75389 0.0
C340 C 0.63822 0.68603 0.73116 0.0
C341 C 0.68659 0.72605 0.67524 0.0
C342 C 0.68173 0.70926 0.82986 0.0
C343 C 0.68277 0.72601 0.89928 0.0
C344 C 0.69698 0.72683 0.97549 0.0
C345 C 0.71079 0.71034 0.98098 0.0
C346 C 0.71035 0.69315 0.91092 0.0
C347 C 0.69534 0.69232 0.83455 0.0
H348 H 0.03028 0.70691 0.0947 0.0
H349 H 0.02052 0.67794 0.36028 0.0
H350 H 0.96747 0.64994 0.34148 0.0
H351 H 0.96869 0.71617 0.08924 0.0
H352 H 0.95827 0.70318 0.98057 0.0
H353 H 0.99572 0.71956 1.01261 0.0
H354 H 0.99688 0.67364 0.96385 0.0
H355 H 0.95938 0.6571 0.93165 0.0
H356 H 0.97063 0.63883 1.00692 0.0
H357 H 0.91539 0.62952 0.29994 0.0
H358 H 0.86775 0.61528 0.23438 0.0
H359 H 0.90995 0.65397 0.99243 0.0
C360 C 0.01699 0.69444 0.14861 0.0
C361 C 0.02976 0.69452 0.22891 0.0
C362 C 1.01147 0.67789 0.29774 0.0
C363 C 0.98122 0.662 0.28785 0.0
C364 C 0.96935 0.66258 0.20836 0.0
C365 C 0.98662 0.67808 0.13951 0.0
C366 C 0.96812 0.67549 0.0616 0.0
C367 C 0.97299 0.70537 0.03444 0.0
C368 C 0.97411 0.66036 0.98657 0.0
C369 C 0.9378 0.65658 0.098 0.0
C370 C 0.93909 0.64954 0.18303 0.0
C371 C 0.9141 0.63434 0.23289 0.0
C372 C 0.88714 0.6263 0.19518 0.0
C373 C 0.88521 0.63286 0.10799 0.0
C374 C 0.91085 0.64792 0.05849 0.0
H375 H 0.30441 1.00808 0.6039 0.0
H376 H 0.37685 0.04087 0.42539 0.0
H377 H 0.35663 0.99197 0.36202 0.0
H378 H 0.29889 0.93842 0.64106 0.0
H379 H 0.25982 0.91926 0.64661 0.0
H380 H 0.28012 0.95678 0.67803 0.0
H381 H 0.25106 0.9692 0.56886 0.0
H382 H 0.23068 0.93174 0.53711 0.0
H383 H 0.24999 0.95936 0.45721 0.0
H384 H 0.32842 0.9389 0.31875 0.0
H385 H 0.29382 0.88675 0.29626 0.0
H386 H 0.23981 0.88872 0.50277 0.0
C387 C 0.31623 1.00499 0.55203 0.0
C388 C 0.34235 0.02849 0.51989 0.0
C389 C 0.35671 0.02342 0.45072 0.0
C390 C 0.34546 0.99563 0.41463 0.0
C391 C 0.31975 0.97301 0.44809 0.0
C392 C 0.30527 0.97743 0.51513 0.0
C393 C 0.27779 0.9496 0.53852 0.0
C394 C 0.27925 0.94048 0.63157 0.0
C395 C 0.25079 0.95267 0.52456 0.0
C396 C 0.27896 0.92881 0.47401 0.0
C397 C 0.30341 0.94269 0.42268 0.0
C398 C 0.3092 0.92789 0.35854 0.0
C399 C 0.28943 0.89826 0.34624 0.0
C400 C 0.26409 0.8837 0.39753 0.0
C401 C 0.25896 0.89927 0.46239 0.0
H402 H 0.18718 0.43884 0.71137 0.0
H403 H 0.26992 0.44383 0.76453 0.0
H404 H 0.28212 0.45116 0.6116 0.0
H405 H 0.17368 0.39907 0.51273 0.0
H406 H 0.15777 0.41753 0.45738 0.0
H407 H 0.15532 0.41416 0.57299 0.0
H408 H 0.1791 0.46985 0.58708 0.0
H409 H 0.18175 0.47338 0.47142 0.0
H410 H 0.21377 0.49285 0.53694 0.0
H411 H 0.2858 0.45611 0.4558 0.0
H412 H 0.27942 0.45604 0.29911 0.0
H413 H 0.19474 0.44804 0.33697 0.0
C414 C 0.20786 0.44159 0.6906 0.0
C415 C 0.22745 0.44059 0.75072 0.0
C416 C 0.25427 0.44417 0.72056 0.0
C417 C 0.26162 0.4486 0.63344 0.0
C418 C 0.24201 0.44937 0.57606 0.0
C419 C 0.21559 0.44582 0.60253 0.0
C420 C 0.19826 0.44637 0.52501 0.0
C421 C 0.16956 0.41757 0.51655 0.0
C422 C 0.19291 0.47215 0.53047 0.0
C423 C 0.21901 0.45033 0.45165 0.0
C424 C 0.24417 0.45226 0.4835 0.0
C425 C 0.26629 0.4548 0.42982 0.0
C426 C 0.26243 0.4547 0.3408 0.0
C427 C 0.23667 0.45212 0.30572 0.0
C428 C 0.21486 0.45049 0.36202 0.0
H429 H 0.83277 0.24451 0.05976 0.0
H430 H 0.75174 0.16372 0.09658 0.0
H431 H 0.74519 0.15804 0.94053 0.0
H432 H 0.80941 0.26963 0.88186 0.0
H433 H 0.84296 0.28478 0.82228 0.0
H434 H 0.84333 0.28237 0.93801 0.0
H435 H 0.87032 0.25329 0.92699 0.0
H436 H 0.87026 0.25581 0.81115 0.0
H437 H 0.85511 0.22087 0.86235 0.0
H438 H 0.7441 0.16209 0.78637 0.0
H439 H 0.75008 0.17356 0.63354 0.0
H440 H 0.83297 0.25113 0.68398 0.0
C441 C 0.81395 0.22542 0.03468 0.0
C442 C 0.79269 0.20463 0.09091 0.0
C443 C 0.76822 0.1801 0.05548 0.0
C444 C 0.76429 0.17658 0.96661 0.0
C445 C 0.78507 0.19764 0.91323 0.0
C446 C 0.80961 0.22145 0.94499 0.0
C447 C 0.82788 0.24099 0.87122 0.0
C448 C 0.83107 0.27124 0.87883 0.0
C449 C 0.85766 0.24284 0.86773 0.0
C450 C 0.80929 0.22458 0.79383 0.0
C451 C 0.78476 0.1997 0.82082 0.0
C452 C 0.76334 0.18133 0.76406 0.0
C453 C 0.76697 0.18831 0.67688 0.0
C454 C 0.79206 0.21337 0.64579 0.0
C455 C 0.81367 0.23176 0.70539 0.0
H456 H 0.59635 0.82712 0.40208 0.0
H457 H 0.60332 0.74989 0.43882 0.0
H458 H 0.60437 0.74433 0.28236 0.0
H459 H 0.54892 0.80086 0.2219 0.0
H460 H 0.56502 0.83467 0.16386 0.0
H461 H 0.56717 0.8347 0.27968 0.0
H462 H 0.62315 0.86586 0.27158 0.0
H463 H 0.62117 0.86606 0.15563 0.0
H464 H 0.6432 0.85351 0.2076 0.0
H465 H 0.60141 0.74429 0.12675 0.0
H466 H 0.59566 0.75012 0.97354 0.0
H467 H 0.59092 0.82786 1.02689 0.0
C468 C 0.59858 0.80936 0.37694 0.0
C469 C 0.59973 0.7889 0.43305 0.0
C470 C 0.60223 0.76573 0.39761 0.0
C471 C 0.60296 0.76242 0.3086 0.0
C472 C 0.60121 0.78246 0.25522 0.0
C473 C 0.59922 0.80558 0.28726 0.0
C474 C 0.5964 0.82304 0.2138 0.0
C475 C 0.56766 0.82332 0.22022 0.0
C476 C 0.62254 0.85396 0.21206 0.0
C477 C 0.59657 0.80565 0.13606 0.0
C478 C 0.59952 0.78247 0.16254 0.0
C479 C 0.59924 0.76242 0.10497 0.0
C480 C 0.59571 0.7659 1.0177 0.0
C481 C 0.59258 0.78936 0.98756 0.0
C482 C 0.59336 0.80978 0.04774 0.0
H483 H 0.84003 0.57573 0.70845 0.0
H484 H 0.76124 0.57861 0.7628 0.0
H485 H 0.74978 0.57402 0.60897 0.0
H486 H 0.85817 0.6182 0.51465 0.0
H487 H 0.87153 0.59783 0.45696 0.0
H488 H 0.87345 0.59965 0.57285 0.0
H489 H 0.84493 0.54365 0.58111 0.0
H490 H 0.8429 0.54166 0.46516 0.0
H491 H 0.81016 0.52388 0.52857 0.0
H492 H 0.74691 0.57126 0.45158 0.0
H493 H 0.75362 0.57163 0.2949 0.0
H494 H 0.83398 0.57046 0.33397 0.0
C495 C 0.82028 0.57515 0.68781 0.0
C496 C 0.80166 0.57769 0.74839 0.0
C497 C 0.77612 0.57704 0.71835 0.0
C498 C 0.76923 0.57424 0.63076 0.0
C499 C 0.78801 0.57211 0.57285 0.0
C500 C 0.81306 0.57258 0.59943 0.0
C501 C 0.82984 0.57109 0.52175 0.0
C502 C 0.86004 0.59831 0.51625 0.0
C503 C 0.83208 0.54342 0.52433 0.0
C504 C 0.81039 0.57008 0.44814 0.0
C505 C 0.78633 0.57051 0.47984 0.0
C506 C 0.76557 0.57076 0.42577 0.0
C507 C 0.76964 0.57103 0.33664 0.0
C508 C 0.79427 0.57102 0.30172 0.0
C509 C 0.81473 0.57011 0.35853 0.0
H510 H 0.27465 0.82922 0.66228 0.0
H511 H 0.19299 0.74982 0.61922 0.0
H512 H 0.18678 0.74158 0.77532 0.0
H513 H 0.29748 0.80326 0.85149 0.0
H514 H 0.31267 0.83746 0.90712 0.0
H515 H 0.31228 0.83653 0.79099 0.0
H516 H 0.28493 0.86539 0.78855 0.0
H517 H 0.28515 0.86633 0.90456 0.0
H518 H 0.25129 0.85176 0.84699 0.0
H519 H 0.18719 0.74263 0.93319 0.0
H520 H 0.19418 0.75276 0.08801 0.0
H521 H 0.27559 0.83169 0.03686 0.0
C522 C 0.25573 0.8099 0.68586 0.0
C523 C 0.23431 0.79014 0.62811 0.0
C524 C 0.20964 0.76535 0.66172 0.0
C525 C 0.20593 0.76039 0.75051 0.0
C526 C 0.22704 0.78039 0.80562 0.0
C527 C 0.25151 0.80464 0.77519 0.0
C528 C 0.27001 0.82322 0.84992 0.0
C529 C 0.29988 0.82523 0.84986 0.0
C530 C 0.27301 0.85347 0.84733 0.0
C531 C 0.25181 0.80574 0.9266 0.0
C532 C 0.22724 0.78106 0.89878 0.0
C533 C 0.20642 0.76179 0.95594 0.0
C534 C 0.21059 0.76787 0.04406 0.0
C535 C 0.23541 0.79308 0.07515 0.0
C536 C 0.25651 0.81213 1.01534 0.0
H537 H 0.45216 0.26886 0.3719 0.0
H538 H 0.44758 0.18642 0.42254 0.0
H539 H 0.45092 0.17949 0.26775 0.0
H540 H 0.40819 0.24577 0.18216 0.0
H541 H 0.42872 0.27932 0.12422 0.0
H542 H 0.42799 0.2794 0.24024 0.0
H543 H 0.48414 0.30556 0.2437 0.0
H544 H 0.48503 0.30554 0.12757 0.0
H545 H 0.50275 0.28985 0.18795 0.0
H546 H 0.45218 0.1794 0.10997 0.0
H547 H 0.45065 0.18593 0.95391 0.0
H548 H 0.45442 0.26834 0.99735 0.0
C549 C 0.45221 0.24956 0.35027 0.0
C550 C 0.44954 0.22818 0.40992 0.0
C551 C 0.44937 0.20306 0.3787 0.0
C552 C 0.45141 0.19893 0.29061 0.0
C553 C 0.45362 0.22007 0.23361 0.0
C554 C 0.45404 0.24491 0.26154 0.0
C555 C 0.4553 0.26339 0.1849 0.0
C556 C 0.42845 0.26719 0.18278 0.0
C557 C 0.48349 0.29284 0.18612 0.0
C558 C 0.45511 0.24476 0.11015 0.0
C559 C 0.45432 0.21999 0.14047 0.0
C560 C 0.45296 0.19878 0.08526 0.0
C561 C 0.45201 0.20268 0.99648 0.0
C562 C 0.45243 0.22764 0.96297 0.0
C563 C 0.4544 0.24919 1.02083 0.0
H564 H 0.22877 0.60528 0.22435 0.0
H565 H 0.13624 0.57039 0.18878 0.0
H566 H 0.14104 0.61642 0.24104 0.0
H567 H 0.23537 0.64653 0.42123 0.0
H568 H 0.27052 0.67588 0.39053 0.0
H569 H 0.2592 0.6395 0.35569 0.0
H570 H 0.26857 0.65683 0.19682 0.0
H571 H 0.27982 0.69319 0.2311 0.0
H572 H 0.25094 0.67554 0.15363 0.0
H573 H 0.15701 0.66829 0.28838 0.0
H574 H 0.18287 0.72055 0.32674 0.0
H575 H 0.26409 0.71987 0.33483 0.0
C576 C 0.20934 0.60696 0.2294 0.0
C577 C 0.18211 0.58407 0.20234 0.0
C578 C 0.15742 0.58766 0.20813 0.0
C579 C 0.15989 0.61369 0.23835 0.0
C580 C 0.18716 0.63594 0.26328 0.0
C581 C 0.21139 0.6327 0.25961 0.0
C582 C 0.23845 0.6602 0.28647 0.0
C583 C 0.25166 0.65522 0.36836 0.0
C584 C 0.26074 0.67213 0.21259 0.0
C585 C 0.22582 0.67963 0.30429 0.0
C586 C 0.19617 0.66533 0.29114 0.0
C587 C 0.18017 0.67956 0.29989 0.0
C588 C 0.19497 0.70918 0.32176 0.0
C589 C 0.22538 0.72412 0.33436 0.0
C590 C 0.24076 0.70894 0.3265 0.0
H591 H 0.63078 0.21962 0.56068 0.0
H592 H 0.57177 0.13247 0.47031 0.0
H593 H 0.53022 0.13645 0.52508 0.0
H594 H 0.59083 0.21705 0.75374 0.0
H595 H 0.59893 0.25402 0.74212 0.0
H596 H 0.62402 0.2433 0.70206 0.0
H597 H 0.62194 0.26252 0.55027 0.0
H598 H 0.59705 0.27346 0.59002 0.0
H599 H 0.58726 0.24953 0.49855 0.0
H600 H 0.49451 0.15144 0.58321 0.0
H601 H 0.46871 0.17684 0.63382 0.0
H602 H 0.55151 0.25402 0.68186 0.0
C603 C 0.60917 0.20131 0.55213 0.0
C604 C 0.60471 0.17569 0.51116 0.0
C605 C 0.57593 0.15219 0.50259 0.0
C606 C 0.55212 0.15428 0.53326 0.0
C607 C 0.55735 0.17998 0.57266 0.0
C608 C 0.58522 0.20306 0.582 0.0
C609 C 0.58512 0.22883 0.6227 0.0
C610 C 0.60064 0.23622 0.71036 0.0
C611 C 0.59863 0.25513 0.56174 0.0
C612 C 0.55282 0.21689 0.6334 0.0
C613 C 0.53705 0.18857 0.60515 0.0
C614 C 0.5067 0.17353 0.60618 0.0
C615 C 0.49221 0.18803 0.6353 0.0
C616 C 0.50814 0.21727 0.66219 0.0
C617 C 0.53876 0.23157 0.66236 0.0
H618 H 0.29627 0.53012 0.87622 0.0
H619 H 0.31098 0.48079 0.07206 0.0
H620 H 0.36414 0.5108 0.04789 0.0
H621 H 0.35383 0.53952 0.73195 0.0
H622 H 0.36256 0.57564 0.70146 0.0
H623 H 0.32606 0.54955 0.73287 0.0
H624 H 0.32732 0.58492 0.84983 0.0
H625 H 0.36385 0.61106 0.81908 0.0
H626 H 0.35586 0.5989 0.92925 0.0
H627 H 0.4162 0.5479 1.0034 0.0
H628 H 0.46176 0.58809 0.94418 0.0
H629 H 0.41178 0.61227 0.77746 0.0
C630 C 0.31063 0.52551 0.91397 0.0
C631 C 0.29957 0.50322 0.97631 0.0
C632 C 0.31907 0.49783 1.02411 0.0
C633 C 0.34924 0.51475 1.01071 0.0
C634 C 0.35944 0.53684 0.94914 0.0
C635 C 0.3406 0.54212 0.90148 0.0
C636 C 0.35677 0.56733 0.84031 0.0
C637 C 0.34936 0.55741 0.74607 0.0
C638 C 0.35058 0.59201 0.8609 0.0
C639 C 0.38778 0.57581 0.86148 0.0
C640 C 0.38897 0.55792 0.92398 0.0
C641 C 0.41543 0.56189 0.95416 0.0
C642 C 0.44122 0.58472 0.91981 0.0
C643 C 0.44045 0.60344 0.85612 0.0
C644 C 0.41323 0.59865 0.82672 0.0
H645 H 0.76567 0.29752 0.33553 0.0
H646 H 0.8463 0.29618 0.31346 0.0
H647 H 0.8712 0.34727 0.26411 0.0
H648 H 0.77419 0.3383 0.14867 0.0
H649 H 0.75824 0.35837 0.1936 0.0
H650 H 0.74754 0.32269 0.2334 0.0
H651 H 0.76141 0.34288 0.38863 0.0
H652 H 0.77193 0.37863 0.34942 0.0
H653 H 0.79738 0.37256 0.40984 0.0
H654 H 0.88615 0.3977 0.2072 0.0
H655 H 0.89032 0.44307 0.15168 0.0
H656 H 0.79978 0.41126 0.21489 0.0
C657 C 0.78868 0.30812 0.32158 0.0
C658 C 0.80418 0.29304 0.32898 0.0
C659 C 0.83416 0.3075 0.30929 0.0
C660 C 0.84841 0.33646 0.2809 0.0
C661 C 0.83235 0.3506 0.27305 0.0
C662 C 0.80317 0.33692 0.29351 0.0
C663 C 0.7905 0.35643 0.27696 0.0
C664 C 0.76619 0.34315 0.20912 0.0
C665 C 0.77967 0.36302 0.36124 0.0
C666 C 0.81695 0.38312 0.24251 0.0
C667 C 0.84092 0.37944 0.24099 0.0
C668 C 0.86758 0.40091 0.20917 0.0
C669 C 0.86977 0.42672 0.17813 0.0
C670 C 0.84544 0.43099 0.17898 0.0
C671 C 0.81878 0.40877 0.21229 0.0
H672 H 0.40029 0.79358 0.53579 0.0
H673 H 0.45642 0.88654 0.51057 0.0
H674 H 0.49741 0.88224 0.56843 0.0
H675 H 0.43138 0.78599 0.73715 0.0
H676 H 0.42748 0.75158 0.70649 0.0
H677 H 0.40245 0.76227 0.66587 0.0
H678 H 0.41457 0.75485 0.50943 0.0
H679 H 0.43963 0.74418 0.54951 0.0
H680 H 0.45181 0.77361 0.47368 0.0
H681 H 0.53311 0.86721 0.62365 0.0
H682 H 0.55982 0.8425 0.67111 0.0
H683 H 0.47978 0.76002 0.66415 0.0
C684 C 0.42103 0.81316 0.54377 0.0
C685 C 0.42501 0.84042 0.51836 0.0
C686 C 0.45281 0.86534 0.52839 0.0
C687 C 0.47622 0.86316 0.56183 0.0
C688 C 0.47154 0.83591 0.58556 0.0
C689 C 0.44458 0.81138 0.57725 0.0
C690 C 0.44537 0.78454 0.60513 0.0
C691 C 0.42549 0.77026 0.68331 0.0
C692 C 0.43738 0.76304 0.52995 0.0
C693 C 0.47705 0.7977 0.62946 0.0
C694 C 0.49185 0.82739 0.61811 0.0
C695 C 0.52164 0.84401 0.63362 0.0
C696 C 0.53665 0.82986 0.66079 0.0
C697 C 0.52184 0.79947 0.67215 0.0
C698 C 0.49164 0.78336 0.65688 0.0
H699 H 0.72761 0.47302 0.9925 0.0
H700 H 0.72701 0.55412 0.98778 0.0
H701 H 0.67533 0.52772 0.94238 0.0
H702 H 0.68594 0.4434 0.80591 0.0
H703 H 0.66701 0.40674 0.84582 0.0
H704 H 0.7028 0.43173 0.885 0.0
H705 H 0.68351 0.42227 0.04192 0.0
H706 H 0.64763 0.39713 1.00324 0.0
H707 H 0.65334 0.42723 0.06997 0.0
H708 H 0.62417 0.49199 0.88892 0.0
H709 H 0.57861 0.45086 0.83369 0.0
H710 H 0.61423 0.39388 0.87049 0.0
C711 C 0.71649 0.48521 0.9833 0.0
C712 C 0.73116 0.51556 0.99424 0.0
C713 C 0.71601 0.5308 0.98052 0.0
C714 C 0.68672 0.51597 0.95461 0.0
C715 C 0.673 0.48598 0.94304 0.0
C716 C 0.68745 0.47081 0.95739 0.0
C717 C 0.6685 0.43896 0.93672 0.0
C718 C 0.68186 0.42968 0.86404 0.0
C719 C 0.66292 0.4203 1.0178 0.0
C720 C 0.64115 0.43847 0.90718 0.0
C721 C 0.64402 0.46571 0.91171 0.0
C722 C 0.62172 0.47059 0.88548 0.0
C723 C 0.59598 0.44709 0.85357 0.0
C724 C 0.59269 0.41901 0.8476 0.0
C725 C 0.61569 0.41485 0.87546 0.0
loop_
_geom_bond_atom_site_label_1
_geom_bond_atom_site_label_2
_geom_bond_distance
_geom_bond_site_symmetry_2
_ccdc_geom_bond_type
Nd0 C2 2.836 1_554 S
Nd0 O20 2.500 1_554 S
Nd0 O21 2.492 1_554 S
Nd0 O22 2.487 . S
Nd0 O23 2.682 . S
Nd0 O24 2.410 1_554 S
Nd0 O29 2.414 1_554 S
Nd0 O31 2.424 . S
Nd1 C11 2.836 1_556 S
Nd1 O23 2.414 1_556 S
Nd1 O25 2.424 . S
Nd1 O26 2.500 1_556 S
Nd1 O27 2.492 1_556 S
Nd1 O28 2.487 . S
Nd1 O29 2.682 . S
Nd1 O30 2.410 1_556 S
C2 Nd0 2.836 1_556 S
C2 C3 1.498 . S
C2 O20 1.258 . S
C2 O21 1.239 . S
C3 C2 1.498 . S
C3 C4 1.366 . S
C3 C8 1.407 . S
C4 C3 1.366 . S
C4 C5 1.392 . S
C4 H32 0.930 . S
C5 C4 1.392 . S
C5 C6 1.398 . S
C5 H33 0.929 . S
C6 C5 1.398 . S
C6 C7 1.352 . S
C7 C6 1.352 . S
C7 C8 1.384 . S
C7 H34 0.930 . S
C8 C3 1.407 . S
C8 C7 1.384 . S
C8 H35 0.929 . S
C9 O22 1.241 . S
C9 O23 1.273 . S
C10 O24 1.251 . S
C10 O25 1.268 . S
C11 Nd1 2.836 1_554 S
C11 C12 1.498 . S
C11 O26 1.258 . S
C11 O27 1.239 . S
C12 C11 1.498 . S
C12 C13 1.366 . S
C12 C17 1.407 . S
C13 C12 1.366 . S
C13 C14 1.392 . S
C13 H36 0.930 . S
C14 C13 1.392 . S
C14 C15 1.398 . S
C14 H37 0.929 . S
C15 C14 1.398 . S
C15 C16 1.352 . S
C16 C15 1.352 . S
C16 C17 1.384 . S
C16 H38 0.930 . S
C17 C12 1.407 . S
C17 C16 1.384 . S
C17 H39 0.929 . S
C18 O28 1.241 . S
C18 O29 1.273 . S
C19 O30 1.251 . S
C19 O31 1.268 . S
O20 Nd0 2.500 1_556 S
O20 C2 1.258 . S
O21 Nd0 2.492 1_556 S
O21 C2 1.239 . S
O22 Nd0 2.487 . S
O22 C9 1.241 . S
O23 Nd0 2.682 . S
O23 Nd1 2.414 1_554 S
O23 C9 1.273 . S
O24 Nd0 2.410 1_556 S
O24 C10 1.251 . S
O25 Nd1 2.424 . S
O25 C10 1.268 . S
O26 Nd1 2.500 1_554 S
O26 C11 1.258 . S
O27 Nd1 2.492 1_554 S
O27 C11 1.239 . S
O28 Nd1 2.487 . S
O28 C18 1.241 . S
O29 Nd0 2.414 1_556 S
O29 Nd1 2.682 . S
O29 C18 1.273 . S
O30 Nd1 2.410 1_554 S
O30 C19 1.251 . S
O31 Nd0 2.424 . S
O31 C19 1.268 . S
H32 C4 0.930 . S
H33 C5 0.929 . S
H34 C7 0.930 . S
H35 C8 0.929 . S
H36 C13 0.930 . S
H37 C14 0.929 . S
H38 C16 0.930 . S
H39 C17 0.929 . S
Nd40 C42 2.836 . S
Nd40 O60 2.500 . S
Nd40 O61 2.492 . S
Nd40 O62 2.487 . S
Nd40 O63 2.682 . S
Nd40 O64 2.410 . S
Nd40 O69 2.414 . S
Nd40 O71 2.424 . S
Nd41 C51 2.836 . S
Nd41 O63 2.414 . S
Nd41 O65 2.424 . S
Nd41 O66 2.500 . S
Nd41 O67 2.492 . S
Nd41 O68 2.487 . S
Nd41 O69 2.682 . S
Nd41 O70 2.410 . S
C42 Nd40 2.836 . S
C42 C43 1.498 . S
C42 O60 1.258 . S
C42 O61 1.239 . S
C43 C42 1.498 . S
C43 C44 1.366 . S
C43 C48 1.407 . S
C44 C43 1.366 . S
C44 C45 1.392 . S
C44 H72 0.930 . S
C45 C44 1.392 . S
C45 C46 1.398 . S
C45 H73 0.929 . S
C46 C45 1.398 . S
C46 C47 1.352 . S
C47 C46 1.352 . S
C47 C48 1.384 . S
C47 H74 0.930 . S
C48 C43 1.407 . S
C48 C47 1.384 . S
C48 H75 0.929 . S
C49 O62 1.241 . S
C49 O63 1.273 . S
C50 O64 1.251 . S
C50 O65 1.268 . S
C51 Nd41 2.836 . S
C51 C52 1.498 . S
C51 O66 1.258 . S
C51 O67 1.239 . S
C52 C51 1.498 . S
C52 C53 1.366 . S
C52 C57 1.407 . S
C53 C52 1.366 . S
C53 C54 1.392 . S
C53 H76 0.930 . S
C54 C53 1.392 . S
C54 C55 1.398 . S
C54 H77 0.929 . S
C55 C54 1.398 . S
C55 C56 1.352 . S
C56 C55 1.352 . S
C56 C57 1.384 . S
C56 H78 0.930 . S
C57 C52 1.407 . S
C57 C56 1.384 . S
C57 H79 0.929 . S
C58 O68 1.241 . S
C58 O69 1.273 . S
C59 O70 1.251 . S
C59 O71 1.268 . S
O60 Nd40 2.500 . S
O60 C42 1.258 . S
O61 Nd40 2.492 . S
O61 C42 1.239 . S
O62 Nd40 2.487 . S
O62 C49 1.241 . S
O63 Nd40 2.682 . S
O63 Nd41 2.414 . S
O63 C49 1.273 . S
O64 Nd40 2.410 . S
O64 C50 1.251 . S
O65 Nd41 2.424 . S
O65 C50 1.268 . S
O66 Nd41 2.500 . S
O66 C51 1.258 . S
O67 Nd41 2.492 . S
O67 C51 1.239 . S
O68 Nd41 2.487 . S
O68 C58 1.241 . S
O69 Nd40 2.414 . S
O69 Nd41 2.682 . S
O69 C58 1.273 . S
O70 Nd41 2.410 . S
O70 C59 1.251 . S
O71 Nd40 2.424 . S
O71 C59 1.268 . S
H72 C44 0.930 . S
H73 C45 0.929 . S
H74 C47 0.930 . S
H75 C48 0.929 . S
H76 C53 0.930 . S
H77 C54 0.929 . S
H78 C56 0.930 . S
H79 C57 0.929 . S
Nd80 C82 2.836 . S
Nd80 O100 2.500 . S
Nd80 O101 2.492 . S
Nd80 O102 2.487 . S
Nd80 O103 2.682 . S
Nd80 O104 2.410 . S
Nd80 O109 2.414 . S
Nd80 O111 2.424 . S
Nd81 C91 2.836 . S
Nd81 O103 2.414 . S
Nd81 O105 2.424 . S
Nd81 O106 2.500 . S
Nd81 O107 2.492 . S
Nd81 O108 2.487 . S
Nd81 O109 2.682 . S
Nd81 O110 2.410 . S
C82 Nd80 2.836 . S
C82 C83 1.498 . S
C82 O100 1.258 . S
C82 O101 1.239 . S
C83 C82 1.498 . S
C83 C84 1.366 . S
C83 C88 1.407 . S
C84 C83 1.366 . S
C84 C85 1.392 . S
C84 H112 0.930 . S
C85 C84 1.392 . S
C85 C86 1.398 . S
C85 H113 0.929 . S
C86 C85 1.398 . S
C86 C87 1.352 . S
C87 C86 1.352 . S
C87 C88 1.384 . S
C87 H114 0.930 . S
C88 C83 1.407 . S
C88 C87 1.384 . S
C88 H115 0.929 . S
C89 O102 1.241 . S
C89 O103 1.273 . S
C90 O104 1.251 . S
C90 O105 1.268 . S
C91 Nd81 2.836 . S
C91 C92 1.498 . S
C91 O106 1.258 . S
C91 O107 1.239 . S
C92 C91 1.498 . S
C92 C93 1.366 . S
C92 C97 1.407 . S
C93 C92 1.366 . S
C93 C94 1.392 . S
C93 H116 0.930 . S
C94 C93 1.392 . S
C94 C95 1.398 . S
C94 H117 0.929 . S
C95 C94 1.398 . S
C95 C96 1.352 . S
C96 C95 1.352 . S
C96 C97 1.384 . S
C96 H118 0.930 . S
C97 C92 1.407 . S
C97 C96 1.384 . S
C97 H119 0.929 . S
C98 O108 1.241 . S
C98 O109 1.273 . S
C99 O110 1.251 . S
C99 O111 1.268 . S
O100 Nd80 2.500 . S
O100 C82 1.258 . S
O101 Nd80 2.492 . S
O101 C82 1.239 . S
O102 Nd80 2.487 . S
O102 C89 1.241 . S
O103 Nd80 2.682 . S
O103 Nd81 2.414 . S
O103 C89 1.273 . S
O104 Nd80 2.410 . S
O104 C90 1.251 . S
O105 Nd81 2.424 . S
O105 C90 1.268 . S
O106 Nd81 2.500 . S
O106 C91 1.258 . S
O107 Nd81 2.492 . S
O107 C91 1.239 . S
O108 Nd81 2.487 . S
O108 C98 1.241 . S
O109 Nd80 2.414 . S
O109 Nd81 2.682 . S
O109 C98 1.273 . S
O110 Nd81 2.410 . S
O110 C99 1.251 . S
O111 Nd80 2.424 . S
O111 C99 1.268 . S
H112 C84 0.930 . S
H113 C85 0.929 . S
H114 C87 0.930 . S
H115 C88 0.929 . S
H116 C93 0.930 . S
H117 C94 0.929 . S
H118 C96 0.930 . S
H119 C97 0.929 . S
Nd120 C122 2.836 1_554 S
Nd120 O140 2.500 1_554 S
Nd120 O141 2.492 1_554 S
Nd120 O142 2.487 . S
Nd120 O143 2.682 . S
Nd120 O144 2.410 1_554 S
Nd120 O149 2.414 1_554 S
Nd120 O151 2.424 . S
Nd121 C131 2.836 1_556 S
Nd121 O143 2.414 1_556 S
Nd121 O145 2.424 . S
Nd121 O146 2.500 1_556 S
Nd121 O147 2.492 1_556 S
Nd121 O148 2.487 . S
Nd121 O149 2.682 . S
Nd121 O150 2.410 1_556 S
C122 Nd120 2.836 1_556 S
C122 C123 1.498 . S
C122 O140 1.258 . S
C122 O141 1.239 . S
C123 C122 1.498 . S
C123 C124 1.366 . S
C123 C128 1.407 . S
C124 C123 1.366 . S
C124 C125 1.392 . S
C124 H152 0.930 . S
C125 C124 1.392 . S
C125 C126 1.398 . S
C125 H153 0.929 . S
C126 C125 1.398 . S
C126 C127 1.352 . S
C127 C126 1.352 . S
C127 C128 1.384 . S
C127 H154 0.930 . S
C128 C123 1.407 . S
C128 C127 1.384 . S
C128 H155 0.929 . S
C129 O142 1.241 . S
C129 O143 1.273 . S
C130 O144 1.251 . S
C130 O145 1.268 . S
C131 Nd121 2.836 1_554 S
C131 C132 1.498 . S
C131 O146 1.258 . S
C131 O147 1.239 . S
C132 C131 1.498 . S
C132 C133 1.366 . S
C132 C137 1.407 . S
C133 C132 1.366 . S
C133 C134 1.392 . S
C133 H156 0.930 . S
C134 C133 1.392 . S
C134 C135 1.398 . S
C134 H157 0.929 . S
C135 C134 1.398 . S
C135 C136 1.352 . S
C136 C135 1.352 . S
C136 C137 1.384 . S
C136 H158 0.930 . S
C137 C132 1.407 . S
C137 C136 1.384 . S
C137 H159 0.929 . S
C138 O148 1.241 . S
C138 O149 1.273 . S
C139 O150 1.251 . S
C139 O151 1.268 . S
O140 Nd120 2.500 1_556 S
O140 C122 1.258 . S
O141 Nd120 2.492 1_556 S
O141 C122 1.239 . S
O142 Nd120 2.487 . S
O142 C129 1.241 . S
O143 Nd120 2.682 . S
O143 Nd121 2.414 1_554 S
O143 C129 1.273 . S
O144 Nd120 2.410 1_556 S
O144 C130 1.251 . S
O145 Nd121 2.424 . S
O145 C130 1.268 . S
O146 Nd121 2.500 1_554 S
O146 C131 1.258 . S
O147 Nd121 2.492 1_554 S
O147 C131 1.239 . S
O148 Nd121 2.487 . S
O148 C138 1.241 . S
O149 Nd120 2.414 1_556 S
O149 Nd121 2.682 . S
O149 C138 1.273 . S
O150 Nd121 2.410 1_554 S
O150 C139 1.251 . S
O151 Nd120 2.424 . S
O151 C139 1.268 . S
H152 C124 0.930 . S
H153 C125 0.929 . S
H154 C127 0.930 . S
H155 C128 0.929 . S
H156 C133 0.930 . S
H157 C134 0.929 . S
H158 C136 0.930 . S
H159 C137 0.929 . S
Nd160 C162 2.836 . S
Nd160 O180 2.500 . S
Nd160 O181 2.492 . S
Nd160 O182 2.487 . S
Nd160 O183 2.682 . S
Nd160 O184 2.410 . S
Nd160 O189 2.414 . S
Nd160 O191 2.424 . S
Nd161 C171 2.836 . S
Nd161 O183 2.414 . S
Nd161 O185 2.424 . S
Nd161 O186 2.500 . S
Nd161 O187 2.492 . S
Nd161 O188 2.487 . S
Nd161 O189 2.682 . S
Nd161 O190 2.410 . S
C162 Nd160 2.836 . S
C162 C163 1.498 . S
C162 O180 1.258 . S
C162 O181 1.239 . S
C163 C162 1.498 . S
C163 C164 1.366 . S
C163 C168 1.407 . S
C164 C163 1.366 . S
C164 C165 1.392 . S
C164 H192 0.930 . S
C165 C164 1.392 . S
C165 C166 1.398 . S
C165 H193 0.929 . S
C166 C165 1.398 . S
C166 C167 1.352 . S
C167 C166 1.352 . S
C167 C168 1.384 . S
C167 H194 0.930 . S
C168 C163 1.407 . S
C168 C167 1.384 . S
C168 H195 0.929 . S
C169 O182 1.241 . S
C169 O183 1.273 . S
C170 O184 1.251 . S
C170 O185 1.268 . S
C171 Nd161 2.836 . S
C171 C172 1.498 . S
C171 O186 1.258 . S
C171 O187 1.239 . S
C172 C171 1.498 . S
C172 C173 1.366 . S
C172 C177 1.407 . S
C173 C172 1.366 . S
C173 C174 1.392 . S
C173 H196 0.930 . S
C174 C173 1.392 . S
C174 C175 1.398 . S
C174 H197 0.929 . S
C175 C174 1.398 . S
C175 C176 1.352 . S
C176 C175 1.352 . S
C176 C177 1.384 . S
C176 H198 0.930 . S
C177 C172 1.407 . S
C177 C176 1.384 . S
C177 H199 0.929 . S
C178 O188 1.241 . S
C178 O189 1.273 . S
C179 O190 1.251 . S
C179 O191 1.268 . S
O180 Nd160 2.500 . S
O180 C162 1.258 . S
O181 Nd160 2.492 . S
O181 C162 1.239 . S
O182 Nd160 2.487 . S
O182 C169 1.241 . S
O183 Nd160 2.682 . S
O183 Nd161 2.414 . S
O183 C169 1.273 . S
O184 Nd160 2.410 . S
O184 C170 1.251 . S
O185 Nd161 2.424 . S
O185 C170 1.268 . S
O186 Nd161 2.500 . S
O186 C171 1.258 . S
O187 Nd161 2.492 . S
O187 C171 1.239 . S
O188 Nd161 2.487 . S
O188 C178 1.241 . S
O189 Nd160 2.414 . S
O189 Nd161 2.682 . S
O189 C178 1.273 . S
O190 Nd161 2.410 . S
O190 C179 1.251 . S
O191 Nd160 2.424 . S
O191 C179 1.268 . S
H192 C164 0.930 . S
H193 C165 0.929 . S
H194 C167 0.930 . S
H195 C168 0.929 . S
H196 C173 0.930 . S
H197 C174 0.929 . S
H198 C176 0.930 . S
H199 C177 0.929 . S
Nd200 C202 2.836 . S
Nd200 O220 2.500 . S
Nd200 O221 2.492 . S
Nd200 O222 2.487 . S
Nd200 O223 2.682 . S
Nd200 O224 2.410 . S
Nd200 O229 2.414 . S
Nd200 O231 2.424 . S
Nd201 C211 2.836 . S
Nd201 O223 2.414 . S
Nd201 O225 2.424 . S
Nd201 O226 2.500 . S
Nd201 O227 2.492 . S
Nd201 O228 2.487 . S
Nd201 O229 2.682 . S
Nd201 O230 2.410 . S
C202 Nd200 2.836 . S
C202 C203 1.498 . S
C202 O220 1.258 . S
C202 O221 1.239 . S
C203 C202 1.498 . S
C203 C204 1.366 . S
C203 C208 1.407 . S
C204 C203 1.366 . S
C204 C205 1.392 . S
C204 H232 0.930 . S
C205 C204 1.392 . S
C205 C206 1.398 . S
C205 H233 0.929 . S
C206 C205 1.398 . S
C206 C207 1.352 . S
C207 C206 1.352 . S
C207 C208 1.384 . S
C207 H234 0.930 . S
C208 C203 1.407 . S
C208 C207 1.384 . S
C208 H235 0.929 . S
C209 O222 1.241 . S
C209 O223 1.273 . S
C210 O224 1.251 . S
C210 O225 1.268 . S
C211 Nd201 2.836 . S
C211 C212 1.498 . S
C211 O226 1.258 . S
C211 O227 1.239 . S
C212 C211 1.498 . S
C212 C213 1.366 . S
C212 C217 1.407 . S
C213 C212 1.366 . S
C213 C214 1.392 . S
C213 H236 0.930 . S
C214 C213 1.392 . S
C214 C215 1.398 . S
C214 H237 0.929 . S
C215 C214 1.398 . S
C215 C216 1.352 . S
C216 C215 1.352 . S
C216 C217 1.384 . S
C216 H238 0.930 . S
C217 C212 1.407 . S
C217 C216 1.384 . S
C217 H239 0.929 . S
C218 O228 1.241 . S
C218 O229 1.273 . S
C219 O230 1.251 . S
C219 O231 1.268 . S
O220 Nd200 2.500 . S
O220 C202 1.258 . S
O221 Nd200 2.492 . S
O221 C202 1.239 . S
O222 Nd200 2.487 . S
O222 C209 1.241 . S
O223 Nd200 2.682 . S
O223 Nd201 2.414 . S
O223 C209 1.273 . S
O224 Nd200 2.410 . S
O224 C210 1.251 . S
O225 Nd201 2.424 . S
O225 C210 1.268 . S
O226 Nd201 2.500 . S
O226 C211 1.258 . S
O227 Nd201 2.492 . S
O227 C211 1.239 . S
O228 Nd201 2.487 . S
O228 C218 1.241 . S
O229 Nd200 2.414 . S
O229 Nd201 2.682 . S
O229 C218 1.273 . S
O230 Nd201 2.410 . S
O230 C219 1.251 . S
O231 Nd200 2.424 . S
O231 C219 1.268 . S
H232 C204 0.930 . S
H233 C205 0.929 . S
H234 C207 0.930 . S
H235 C208 0.929 . S
H236 C213 0.930 . S
H237 C214 0.929 . S
H238 C216 0.930 . S
H239 C217 0.929 . S
H240 C252 0.930 . S
H241 C254 0.930 . S
H242 C255 0.930 . S
H243 C259 0.959 . S
H244 C259 0.959 . S
H245 C259 0.961 . S
H246 C260 0.960 . S
H247 C260 0.961 . S
H248 C260 0.959 . S
H249 C263 0.929 . S
H250 C264 0.931 . S
H251 C266 0.930 . S
C252 H240 0.930 . S
C252 C253 1.399 . S
C252 C257 1.399 . S
C253 C252 1.399 . S
C253 C254 1.376 . S
C254 H241 0.930 . S
C254 C253 1.376 . S
C254 C255 1.388 . S
C255 H242 0.930 . S
C255 C254 1.388 . S
C255 C256 1.390 . S
C256 C255 1.390 . S
C256 C257 1.394 . S
C256 C262 1.465 . S
C257 C252 1.399 . S
C257 C256 1.394 . S
C257 C258 1.516 . S
C258 C257 1.516 . S
C258 C259 1.502 . S
C258 C260 1.561 . S
C258 C261 1.526 . S
C259 H243 0.959 . S
C259 H244 0.959 . S
C259 H245 0.961 . S
C259 C258 1.502 . S
C260 H246 0.960 . S
C260 H247 0.961 . S
C260 H248 0.959 . S
C260 C258 1.561 . S
C261 C258 1.526 . S
C261 C262 1.396 . S
C261 C266 1.390 . S
C262 C256 1.465 . S
C262 C261 1.396 . S
C262 C263 1.399 . S
C263 H249 0.929 . S
C263 C262 1.399 . S
C263 C264 1.385 . S
C264 H250 0.931 . S
C264 C263 1.385 . S
C264 C265 1.389 . S
C265 C264 1.389 . S
C265 C266 1.387 . S
C266 H251 0.930 . S
C266 C261 1.390 . S
C266 C265 1.387 . S
H267 C279 0.930 . S
H268 C281 0.930 . S
H269 C282 0.930 . S
H270 C286 0.959 . S
H271 C286 0.959 . S
H272 C286 0.961 . S
H273 C287 0.960 . S
H274 C287 0.961 . S
H275 C287 0.959 . S
H276 C290 0.929 . S
H277 C291 0.931 . S
H278 C293 0.930 1_556 S
C279 H267 0.930 . S
C279 C280 1.399 1_556 S
C279 C284 1.399 1_556 S
C280 C279 1.399 1_554 S
C280 C281 1.376 . S
C281 H268 0.930 . S
C281 C280 1.376 . S
C281 C282 1.388 . S
C282 H269 0.930 . S
C282 C281 1.388 . S
C282 C283 1.390 . S
C283 C282 1.390 . S
C283 C284 1.394 . S
C283 C289 1.465 . S
C284 C279 1.399 1_554 S
C284 C283 1.394 . S
C284 C285 1.516 1_554 S
C285 C284 1.516 1_556 S
C285 C286 1.502 . S
C285 C287 1.561 . S
C285 C288 1.526 1_556 S
C286 H270 0.959 . S
C286 H271 0.959 . S
C286 H272 0.961 . S
C286 C285 1.502 . S
C287 H273 0.960 . S
C287 H274 0.961 . S
C287 H275 0.959 . S
C287 C285 1.561 . S
C288 C285 1.526 1_554 S
C288 C289 1.396 . S
C288 C293 1.390 1_455 S
C289 C283 1.465 . S
C289 C288 1.396 . S
C289 C290 1.399 . S
C290 H276 0.929 . S
C290 C289 1.399 . S
C290 C291 1.385 1_455 S
C291 H277 0.931 . S
C291 C290 1.385 1_655 S
C291 C292 1.389 . S
C292 C291 1.389 . S
C292 C293 1.387 . S
C293 H278 0.930 1_554 S
C293 C288 1.390 1_655 S
C293 C292 1.387 . S
H294 C306 0.930 . S
H295 C308 0.930 . S
H296 C309 0.930 . S
H297 C313 0.959 . S
H298 C313 0.959 . S
H299 C313 0.961 . S
H300 C314 0.960 . S
H301 C314 0.961 . S
H302 C314 0.959 . S
H303 C317 0.929 . S
H304 C318 0.931 . S
H305 C320 0.930 . S
C306 H294 0.930 . S
C306 C307 1.399 . S
C306 C311 1.399 . S
C307 C306 1.399 . S
C307 C308 1.376 . S
C308 H295 0.930 . S
C308 C307 1.376 . S
C308 C309 1.388 . S
C309 H296 0.930 . S
C309 C308 1.388 . S
C309 C310 1.390 . S
C310 C309 1.390 . S
C310 C311 1.394 . S
C310 C316 1.465 . S
C311 C306 1.399 . S
C311 C310 1.394 . S
C311 C312 1.516 . S
C312 C311 1.516 . S
C312 C313 1.502 . S
C312 C314 1.561 . S
C312 C315 1.526 . S
C313 H297 0.959 . S
C313 H298 0.959 . S
C313 H299 0.961 . S
C313 C312 1.502 . S
C314 H300 0.960 . S
C314 H301 0.961 . S
C314 H302 0.959 . S
C314 C312 1.561 . S
C315 C312 1.526 . S
C315 C316 1.396 . S
C315 C320 1.390 1_545 S
C316 C310 1.465 . S
C316 C315 1.396 . S
C316 C317 1.399 . S
C317 H303 0.929 . S
C317 C316 1.399 . S
C317 C318 1.385 1_545 S
C318 H304 0.931 . S
C318 C317 1.385 1_565 S
C318 C319 1.389 . S
C319 C318 1.389 . S
C319 C320 1.387 . S
C320 H305 0.930 . S
C320 C315 1.390 1_565 S
C320 C319 1.387 . S
H321 C333 0.930 . S
H322 C335 0.930 . S
H323 C336 0.930 . S
H324 C340 0.959 . S
H325 C340 0.959 . S
H326 C340 0.961 . S
H327 C341 0.960 . S
H328 C341 0.961 . S
H329 C341 0.959 . S
H330 C344 0.929 . S
H331 C345 0.931 . S
H332 C347 0.930 . S
C333 H321 0.930 . S
C333 C334 1.399 . S
C333 C338 1.399 . S
C334 C333 1.399 . S
C334 C335 1.376 . S
C335 H322 0.930 . S
C335 C334 1.376 . S
C335 C336 1.388 . S
C336 H323 0.930 . S
C336 C335 1.388 . S
C336 C337 1.390 . S
C337 C336 1.390 . S
C337 C338 1.394 . S
C337 C343 1.465 . S
C338 C333 1.399 . S
C338 C337 1.394 . S
C338 C339 1.516 . S
C339 C338 1.516 . S
C339 C340 1.502 . S
C339 C341 1.561 . S
C339 C342 1.526 . S
C340 H324 0.959 . S
C340 H325 0.959 . S
C340 H326 0.961 . S
C340 C339 1.502 . S
C341 H327 0.960 . S
C341 H328 0.961 . S
C341 H329 0.959 . S
C341 C339 1.561 . S
C342 C339 1.526 . S
C342 C343 1.396 . S
C342 C347 1.390 . S
C343 C337 1.465 . S
C343 C342 1.396 . S
C343 C344 1.399 . S
C344 H330 0.929 . S
C344 C343 1.399 . S
C344 C345 1.385 . S
C345 H331 0.931 . S
C345 C344 1.385 . S
C345 C346 1.389 . S
C346 C345 1.389 . S
C346 C347 1.387 . S
C347 H332 0.930 . S
C347 C342 1.390 . S
C347 C346 1.387 . S
H348 C360 0.937 1_556 S
H349 C362 0.930 . S
H350 C363 0.930 . S
H351 C367 0.959 . S
H352 C367 0.959 . S
H353 C367 0.961 . S
H354 C368 0.960 . S
H355 C368 0.961 . S
H356 C368 0.959 . S
H357 C371 0.929 . S
H358 C372 0.931 . S
H359 C374 0.930 . S
C360 H348 0.937 1_554 S
C360 C361 1.420 . S
C360 C365 1.371 1_455 S
C361 C360 1.420 . S
C361 C362 1.376 . S
C362 H349 0.930 . S
C362 C361 1.376 . S
C362 C363 1.388 1_455 S
C363 H350 0.930 . S
C363 C362 1.388 1_655 S
C363 C364 1.390 . S
C364 C363 1.390 . S
C364 C365 1.394 . S
C364 C370 1.465 . S
C365 C360 1.371 1_655 S
C365 C364 1.394 . S
C365 C366 1.516 1_554 S
C366 C365 1.516 1_556 S
C366 C367 1.502 . S
C366 C368 1.561 . S
C366 C369 1.526 1_556 S
C367 H351 0.959 . S
C367 H352 0.959 . S
C367 H353 0.961 . S
C367 C366 1.502 . S
C368 H354 0.960 . S
C368 H355 0.961 . S
C368 H356 0.959 . S
C368 C366 1.561 . S
C369 C366 1.526 1_554 S
C369 C370 1.396 . S
C369 C374 1.390 1_554 S
C370 C364 1.465 . S
C370 C369 1.396 . S
C370 C371 1.399 . S
C371 H357 0.929 . S
C371 C370 1.399 . S
C371 C372 1.385 . S
C372 H358 0.931 . S
C372 C371 1.385 . S
C372 C373 1.389 . S
C373 C372 1.389 . S
C373 C374 1.387 1_554 S
C374 H359 0.930 . S
C374 C369 1.390 1_556 S
C374 C373 1.387 1_556 S
H375 C387 0.930 . S
H376 C389 0.930 . S
H377 C390 0.930 . S
H378 C394 0.959 . S
H379 C394 0.959 . S
H380 C394 0.961 . S
H381 C395 0.960 . S
H382 C395 0.961 . S
H383 C395 0.959 . S
H384 C398 0.929 . S
H385 C399 0.931 . S
H386 C401 0.930 . S
C387 H375 0.930 . S
C387 C388 1.399 . S
C387 C392 1.399 1_545 S
C388 C387 1.399 . S
C388 C389 1.376 . S
C389 H376 0.930 . S
C389 C388 1.376 . S
C389 C390 1.388 1_545 S
C390 H377 0.930 . S
C390 C389 1.388 1_565 S
C390 C391 1.390 . S
C391 C390 1.390 . S
C391 C392 1.394 . S
C391 C397 1.465 . S
C392 C387 1.399 1_565 S
C392 C391 1.394 . S
C392 C393 1.516 . S
C393 C392 1.516 . S
C393 C394 1.502 . S
C393 C395 1.561 . S
C393 C396 1.526 . S
C394 H378 0.959 . S
C394 H379 0.959 . S
C394 H380 0.961 . S
C394 C393 1.502 . S
C395 H381 0.960 . S
C395 H382 0.961 . S
C395 H383 0.959 . S
C395 C393 1.561 . S
C396 C393 1.526 . S
C396 C397 1.396 . S
C396 C401 1.390 . S
C397 C391 1.465 . S
C397 C396 1.396 . S
C397 C398 1.399 . S
C398 H384 0.929 . S
C398 C397 1.399 . S
C398 C399 1.385 . S
C399 H385 0.931 . S
C399 C398 1.385 . S
C399 C400 1.389 . S
C400 C399 1.389 . S
C400 C401 1.387 . S
C401 H386 0.930 . S
C401 C396 1.390 . S
C401 C400 1.387 . S
H402 C414 0.930 . S
H403 C416 0.930 . S
H404 C417 0.930 . S
H405 C421 0.959 . S
H406 C421 0.959 . S
H407 C421 0.961 . S
H408 C422 0.960 . S
H409 C422 0.961 . S
H410 C422 0.959 . S
H411 C425 0.929 . S
H412 C426 0.931 . S
H413 C428 0.930 . S
C414 H402 0.930 . S
C414 C415 1.399 . S
C414 C419 1.399 . S
C415 C414 1.399 . S
C415 C416 1.376 . S
C416 H403 0.930 . S
C416 C415 1.376 . S
C416 C417 1.388 . S
C417 H404 0.930 . S
C417 C416 1.388 . S
C417 C418 1.390 . S
C418 C417 1.390 . S
C418 C419 1.394 . S
C418 C424 1.465 . S
C419 C414 1.399 . S
C419 C418 1.394 . S
C419 C420 1.516 . S
C420 C419 1.516 . S
C420 C421 1.502 . S
C420 C422 1.561 . S
C420 C423 1.526 . S
C421 H405 0.959 . S
C421 H406 0.959 . S
C421 H407 0.961 . S
C421 C420 1.502 . S
C422 H408 0.960 . S
C422 H409 0.961 . S
C422 H410 0.959 . S
C422 C420 1.561 . S
C423 C420 1.526 . S
C423 C424 1.396 . S
C423 C428 1.390 . S
C424 C418 1.465 . S
C424 C423 1.396 . S
C424 C425 1.399 . S
C425 H411 0.929 . S
C425 C424 1.399 . S
C425 C426 1.385 . S
C426 H412 0.931 . S
C426 C425 1.385 . S
C426 C427 1.389 . S
C427 C426 1.389 . S
C427 C428 1.387 . S
C428 H413 0.930 . S
C428 C423 1.390 . S
C428 C427 1.387 . S
H429 C441 0.930 1_554 S
H430 C443 0.930 . S
H431 C444 0.930 . S
H432 C448 0.959 . S
H433 C448 0.959 . S
H434 C448 0.961 . S
H435 C449 0.960 . S
H436 C449 0.961 . S
H437 C449 0.959 . S
H438 C452 0.929 . S
H439 C453 0.931 . S
H440 C455 0.930 . S
C441 H429 0.930 1_556 S
C441 C442 1.399 1_556 S
C441 C446 1.399 . S
C442 C441 1.399 1_554 S
C442 C443 1.376 . S
C443 H430 0.930 . S
C443 C442 1.376 . S
C443 C444 1.388 1_554 S
C444 H431 0.930 . S
C444 C443 1.388 1_556 S
C444 C445 1.390 . S
C445 C444 1.390 . S
C445 C446 1.394 . S
C445 C451 1.465 . S
C446 C441 1.399 . S
C446 C445 1.394 . S
C446 C447 1.516 . S
C447 C446 1.516 . S
C447 C448 1.502 . S
C447 C449 1.561 . S
C447 C450 1.526 . S
C448 H432 0.959 . S
C448 H433 0.959 . S
C448 H434 0.961 . S
C448 C447 1.502 . S
C449 H435 0.960 . S
C449 H436 0.961 . S
C449 H437 0.959 . S
C449 C447 1.561 . S
C450 C447 1.526 . S
C450 C451 1.396 . S
C450 C455 1.390 . S
C451 C445 1.465 . S
C451 C450 1.396 . S
C451 C452 1.399 . S
C452 H438 0.929 . S
C452 C451 1.399 . S
C452 C453 1.385 . S
C453 H439 0.931 . S
C453 C452 1.385 . S
C453 C454 1.389 . S
C454 C453 1.389 . S
C454 C455 1.387 . S
C455 H440 0.930 . S
C455 C450 1.390 . S
C455 C454 1.387 . S
H456 C468 0.930 . S
H457 C470 0.930 . S
H458 C471 0.930 . S
H459 C475 0.959 . S
H460 C475 0.959 . S
H461 C475 0.961 . S
H462 C476 0.960 . S
H463 C476 0.961 . S
H464 C476 0.959 . S
H465 C479 0.929 . S
H466 C480 0.931 . S
H467 C482 0.930 1_556 S
C468 H456 0.930 . S
C468 C469 1.399 . S
C468 C473 1.399 . S
C469 C468 1.399 . S
C469 C470 1.376 . S
C470 H457 0.930 . S
C470 C469 1.376 . S
C470 C471 1.388 . S
C471 H458 0.930 . S
C471 C470 1.388 . S
C471 C472 1.390 . S
C472 C471 1.390 . S
C472 C473 1.394 . S
C472 C478 1.465 . S
C473 C468 1.399 . S
C473 C472 1.394 . S
C473 C474 1.516 . S
C474 C473 1.516 . S
C474 C475 1.502 . S
C474 C476 1.561 . S
C474 C477 1.526 . S
C475 H459 0.959 . S
C475 H460 0.959 . S
C475 H461 0.961 . S
C475 C474 1.502 . S
C476 H462 0.960 . S
C476 H463 0.961 . S
C476 H464 0.959 . S
C476 C474 1.561 . S
C477 C474 1.526 . S
C477 C478 1.396 . S
C477 C482 1.390 . S
C478 C472 1.465 . S
C478 C477 1.396 . S
C478 C479 1.399 . S
C479 H465 0.929 . S
C479 C478 1.399 . S
C479 C480 1.385 1_554 S
C480 H466 0.931 . S
C480 C479 1.385 1_556 S
C480 C481 1.389 . S
C481 C480 1.389 . S
C481 C482 1.387 1_556 S
C482 H467 0.930 1_554 S
C482 C477 1.390 . S
C482 C481 1.387 1_554 S
H483 C495 0.930 . S
H484 C497 0.930 . S
H485 C498 0.930 . S
H486 C502 0.959 . S
H487 C502 0.959 . S
H488 C502 0.961 . S
H489 C503 0.960 . S
H490 C503 0.961 . S
H491 C503 0.959 . S
H492 C506 0.929 . S
H493 C507 0.931 . S
H494 C509 0.930 . S
C495 H483 0.930 . S
C495 C496 1.399 . S
C495 C500 1.399 . S
C496 C495 1.399 . S
C496 C497 1.376 . S
C497 H484 0.930 . S
C497 C496 1.376 . S
C497 C498 1.388 . S
C498 H485 0.930 . S
C498 C497 1.388 . S
C498 C499 1.390 . S
C499 C498 1.390 . S
C499 C500 1.394 . S
C499 C505 1.465 . S
C500 C495 1.399 . S
C500 C499 1.394 . S
C500 C501 1.516 . S
C501 C500 1.516 . S
C501 C502 1.502 . S
C501 C503 1.561 . S
C501 C504 1.526 . S
C502 H486 0.959 . S
C502 H487 0.959 . S
C502 H488 0.961 . S
C502 C501 1.502 . S
C503 H489 0.960 . S
C503 H490 0.961 . S
C503 H491 0.959 . S
C503 C501 1.561 . S
C504 C501 1.526 . S
C504 C505 1.396 . S
C504 C509 1.390 . S
C505 C499 1.465 . S
C505 C504 1.396 . S
C505 C506 1.399 . S
C506 H492 0.929 . S
C506 C505 1.399 . S
C506 C507 1.385 . S
C507 H493 0.931 . S
C507 C506 1.385 . S
C507 C508 1.389 . S
C508 C507 1.389 . S
C508 C509 1.387 . S
C509 H494 0.930 . S
C509 C504 1.390 . S
C509 C508 1.387 . S
H510 C522 0.930 . S
H511 C524 0.930 . S
H512 C525 0.930 . S
H513 C529 0.959 . S
H514 C529 0.959 . S
H515 C529 0.961 . S
H516 C530 0.960 . S
H517 C530 0.961 . S
H518 C530 0.959 . S
H519 C533 0.929 . S
H520 C534 0.931 . S
H521 C536 0.930 1_554 S
C522 H510 0.930 . S
C522 C523 1.399 . S
C522 C527 1.399 . S
C523 C522 1.399 . S
C523 C524 1.376 . S
C524 H511 0.930 . S
C524 C523 1.376 . S
C524 C525 1.388 . S
C525 H512 0.930 . S
C525 C524 1.388 . S
C525 C526 1.390 . S
C526 C525 1.390 . S
C526 C527 1.394 . S
C526 C532 1.465 . S
C527 C522 1.399 . S
C527 C526 1.394 . S
C527 C528 1.516 . S
C528 C527 1.516 . S
C528 C529 1.502 . S
C528 C530 1.561 . S
C528 C531 1.526 . S
C529 H513 0.959 . S
C529 H514 0.959 . S
C529 H515 0.961 . S
C529 C528 1.502 . S
C530 H516 0.960 . S
C530 H517 0.961 . S
C530 H518 0.959 . S
C530 C528 1.561 . S
C531 C528 1.526 . S
C531 C532 1.396 . S
C531 C536 1.390 . S
C532 C526 1.465 . S
C532 C531 1.396 . S
C532 C533 1.399 . S
C533 H519 0.929 . S
C533 C532 1.399 . S
C533 C534 1.385 1_556 S
C534 H520 0.931 . S
C534 C533 1.385 1_554 S
C534 C535 1.389 . S
C535 C534 1.389 . S
C535 C536 1.387 1_554 S
C536 H521 0.930 1_556 S
C536 C531 1.390 . S
C536 C535 1.387 1_556 S
H537 C549 0.930 . S
H538 C551 0.930 . S
H539 C552 0.930 . S
H540 C556 0.959 . S
H541 C556 0.959 . S
H542 C556 0.961 . S
H543 C557 0.960 . S
H544 C557 0.961 . S
H545 C557 0.959 . S
H546 C560 0.929 . S
H547 C561 0.931 . S
H548 C563 0.930 . S
C549 H537 0.930 . S
C549 C550 1.399 . S
C549 C554 1.399 . S
C550 C549 1.399 . S
C550 C551 1.376 . S
C551 H538 0.930 . S
C551 C550 1.376 . S
C551 C552 1.388 . S
C552 H539 0.930 . S
C552 C551 1.388 . S
C552 C553 1.390 . S
C553 C552 1.390 . S
C553 C554 1.394 . S
C553 C559 1.465 . S
C554 C549 1.399 . S
C554 C553 1.394 . S
C554 C555 1.516 . S
C555 C554 1.516 . S
C555 C556 1.502 . S
C555 C557 1.561 . S
C555 C558 1.526 . S
C556 H540 0.959 . S
C556 H541 0.959 . S
C556 H542 0.961 . S
C556 C555 1.502 . S
C557 H543 0.960 . S
C557 H544 0.961 . S
C557 H545 0.959 . S
C557 C555 1.561 . S
C558 C555 1.526 . S
C558 C559 1.396 . S
C558 C563 1.390 . S
C559 C553 1.465 . S
C559 C558 1.396 . S
C559 C560 1.399 . S
C560 H546 0.929 . S
C560 C559 1.399 . S
C560 C561 1.385 1_554 S
C561 H547 0.931 . S
C561 C560 1.385 1_556 S
C561 C562 1.389 . S
C562 C561 1.389 . S
C562 C563 1.387 1_556 S
C563 H548 0.930 . S
C563 C558 1.390 . S
C563 C562 1.387 1_554 S
H564 C576 0.930 . S
H565 C578 0.930 . S
H566 C579 0.930 . S
H567 C583 0.959 . S
H568 C583 0.959 . S
H569 C583 0.961 . S
H570 C584 0.960 . S
H571 C584 0.961 . S
H572 C584 0.959 . S
H573 C587 0.929 . S
H574 C588 0.931 . S
H575 C590 0.930 . S
C576 H564 0.930 . S
C576 C577 1.399 . S
C576 C581 1.399 . S
C577 C576 1.399 . S
C577 C578 1.376 . S
C578 H565 0.930 . S
C578 C577 1.376 . S
C578 C579 1.388 . S
C579 H566 0.930 . S
C579 C578 1.388 . S
C579 C580 1.390 . S
C580 C579 1.390 . S
C580 C581 1.394 . S
C580 C586 1.465 . S
C581 C576 1.399 . S
C581 C580 1.394 . S
C581 C582 1.516 . S
C582 C581 1.516 . S
C582 C583 1.502 . S
C582 C584 1.561 . S
C582 C585 1.526 . S
C583 H567 0.959 . S
C583 H568 0.959 . S
C583 H569 0.961 . S
C583 C582 1.502 . S
C584 H570 0.960 . S
C584 H571 0.961 . S
C584 H572 0.959 . S
C584 C582 1.561 . S
C585 C582 1.526 . S
C585 C586 1.396 . S
C585 C590 1.390 . S
C586 C580 1.465 . S
C586 C585 1.396 . S
C586 C587 1.399 . S
C587 H573 0.929 . S
C587 C586 1.399 . S
C587 C588 1.385 . S
C588 H574 0.931 . S
C588 C587 1.385 . S
C588 C589 1.389 . S
C589 C588 1.389 . S
C589 C590 1.387 . S
C590 H575 0.930 . S
C590 C585 1.390 . S
C590 C589 1.387 . S
H591 C603 0.930 . S
H592 C605 0.930 . S
H593 C606 0.930 . S
H594 C610 0.959 . S
H595 C610 0.959 . S
H596 C610 0.961 . S
H597 C611 0.960 . S
H598 C611 0.961 . S
H599 C611 0.959 . S
H600 C614 0.929 . S
H601 C615 0.931 . S
H602 C617 0.930 . S
C603 H591 0.930 . S
C603 C604 1.399 . S
C603 C608 1.399 . S
C604 C603 1.399 . S
C604 C605 1.376 . S
C605 H592 0.930 . S
C605 C604 1.376 . S
C605 C606 1.388 . S
C606 H593 0.930 . S
C606 C605 1.388 . S
C606 C607 1.390 . S
C607 C606 1.390 . S
C607 C608 1.394 . S
C607 C613 1.465 . S
C608 C603 1.399 . S
C608 C607 1.394 . S
C608 C609 1.516 . S
C609 C608 1.516 . S
C609 C610 1.502 . S
C609 C611 1.561 . S
C609 C612 1.526 . S
C610 H594 0.959 . S
C610 H595 0.959 . S
C610 H596 0.961 . S
C610 C609 1.502 . S
C611 H597 0.960 . S
C611 H598 0.961 . S
C611 H599 0.959 . S
C611 C609 1.561 . S
C612 C609 1.526 . S
C612 C613 1.396 . S
C612 C617 1.390 . S
C613 C607 1.465 . S
C613 C612 1.396 . S
C613 C614 1.399 . S
C614 H600 0.929 . S
C614 C613 1.399 . S
C614 C615 1.385 . S
C615 H601 0.931 . S
C615 C614 1.385 . S
C615 C616 1.389 . S
C616 C615 1.389 . S
C616 C617 1.387 . S
C617 H602 0.930 . S
C617 C612 1.390 . S
C617 C616 1.387 . S
H618 C630 0.930 . S
H619 C632 0.930 . S
H620 C633 0.930 . S
H621 C637 0.959 . S
H622 C637 0.959 . S
H623 C637 0.961 . S
H624 C638 0.960 . S
H625 C638 0.961 . S
H626 C638 0.959 . S
H627 C641 0.929 . S
H628 C642 0.931 . S
H629 C644 0.930 . S
C630 H618 0.930 . S
C630 C631 1.399 . S
C630 C635 1.399 . S
C631 C630 1.399 . S
C631 C632 1.376 1_556 S
C632 H619 0.930 . S
C632 C631 1.376 1_554 S
C632 C633 1.388 . S
C633 H620 0.930 . S
C633 C632 1.388 . S
C633 C634 1.390 1_554 S
C634 C633 1.390 1_556 S
C634 C635 1.394 . S
C634 C640 1.465 . S
C635 C630 1.399 . S
C635 C634 1.394 . S
C635 C636 1.516 . S
C636 C635 1.516 . S
C636 C637 1.502 . S
C636 C638 1.561 . S
C636 C639 1.526 . S
C637 H621 0.959 . S
C637 H622 0.959 . S
C637 H623 0.961 . S
C637 C636 1.502 . S
C638 H624 0.960 . S
C638 H625 0.961 . S
C638 H626 0.959 . S
C638 C636 1.561 . S
C639 C636 1.526 . S
C639 C640 1.396 . S
C639 C644 1.390 . S
C640 C634 1.465 . S
C640 C639 1.396 . S
C640 C641 1.399 1_556 S
C641 H627 0.929 . S
C641 C640 1.399 1_554 S
C641 C642 1.385 . S
C642 H628 0.931 . S
C642 C641 1.385 . S
C642 C643 1.389 1_554 S
C643 C642 1.389 1_556 S
C643 C644 1.387 . S
C644 H629 0.930 . S
C644 C639 1.390 . S
C644 C643 1.387 . S
H645 C657 0.930 . S
H646 C659 0.930 . S
H647 C660 0.930 . S
H648 C664 0.959 . S
H649 C664 0.959 . S
H650 C664 0.961 . S
H651 C665 0.960 . S
H652 C665 0.961 . S
H653 C665 0.959 . S
H654 C668 0.929 . S
H655 C669 0.931 . S
H656 C671 0.930 . S
C657 H645 0.930 . S
C657 C658 1.399 . S
C657 C662 1.399 . S
C658 C657 1.399 . S
C658 C659 1.376 . S
C659 H646 0.930 . S
C659 C658 1.376 . S
C659 C660 1.388 . S
C660 H647 0.930 . S
C660 C659 1.388 . S
C660 C661 1.390 . S
C661 C660 1.390 . S
C661 C662 1.394 . S
C661 C667 1.465 . S
C662 C657 1.399 . S
C662 C661 1.394 . S
C662 C663 1.516 . S
C663 C662 1.516 . S
C663 C664 1.502 . S
C663 C665 1.561 . S
C663 C666 1.526 . S
C664 H648 0.959 . S
C664 H649 0.959 . S
C664 H650 0.961 . S
C664 C663 1.502 . S
C665 H651 0.960 . S
C665 H652 0.961 . S
C665 H653 0.959 . S
C665 C663 1.561 . S
C666 C663 1.526 . S
C666 C667 1.396 . S
C666 C671 1.390 . S
C667 C661 1.465 . S
C667 C666 1.396 . S
C667 C668 1.399 . S
C668 H654 0.929 . S
C668 C667 1.399 . S
C668 C669 1.385 . S
C669 H655 0.931 . S
C669 C668 1.385 . S
C669 C670 1.389 . S
C670 C669 1.389 . S
C670 C671 1.387 . S
C671 H656 0.930 . S
C671 C666 1.390 . S
C671 C670 1.387 . S
H672 C684 0.930 . S
H673 C686 0.930 . S
H674 C687 0.930 . S
H675 C691 0.959 . S
H676 C691 0.959 . S
H677 C691 0.961 . S
H678 C692 0.960 . S
H679 C692 0.961 . S
H680 C692 0.959 . S
H681 C695 0.929 . S
H682 C696 0.931 . S
H683 C698 0.930 . S
C684 H672 0.930 . S
C684 C685 1.399 . S
C684 C689 1.399 . S
C685 C684 1.399 . S
C685 C686 1.376 . S
C686 H673 0.930 . S
C686 C685 1.376 . S
C686 C687 1.388 . S
C687 H674 0.930 . S
C687 C686 1.388 . S
C687 C688 1.390 . S
C688 C687 1.390 . S
C688 C689 1.394 . S
C688 C694 1.465 . S
C689 C684 1.399 . S
C689 C688 1.394 . S
C689 C690 1.516 . S
C690 C689 1.516 . S
C690 C691 1.502 . S
C690 C692 1.561 . S
C690 C693 1.526 . S
C691 H675 0.959 . S
C691 H676 0.959 . S
C691 H677 0.961 . S
C691 C690 1.502 . S
C692 H678 0.960 . S
C692 H679 0.961 . S
C692 H680 0.959 . S
C692 C690 1.561 . S
C693 C690 1.526 . S
C693 C694 1.396 . S
C693 C698 1.390 . S
C694 C688 1.465 . S
C694 C693 1.396 . S
C694 C695 1.399 . S
C695 H681 0.929 . S
C695 C694 1.399 . S
C695 C696 1.385 . S
C696 H682 0.931 . S
C696 C695 1.385 . S
C696 C697 1.389 . S
C697 C696 1.389 . S
C697 C698 1.387 . S
C698 H683 0.930 . S
C698 C693 1.390 . S
C698 C697 1.387 . S
H699 C711 0.930 . S
H700 C713 0.930 . S
H701 C714 0.930 . S
H702 C718 0.959 . S
H703 C718 0.959 . S
H704 C718 0.961 . S
H705 C719 0.960 . S
H706 C719 0.961 . S
H707 C719 0.959 . S
H708 C722 0.929 . S
H709 C723 0.931 . S
H710 C725 0.930 1_554 S
C711 H699 0.930 . S
C711 C712 1.399 1_554 S
C711 C716 1.399 1_554 S
C712 C711 1.399 1_556 S
C712 C713 1.376 . S
C713 H700 0.930 . S
C713 C712 1.376 . S
C713 C714 1.388 . S
C714 H701 0.930 . S
C714 C713 1.388 . S
C714 C715 1.390 . S
C715 C714 1.390 . S
C715 C716 1.394 . S
C715 C721 1.465 . S
C716 C711 1.399 1_556 S
C716 C715 1.394 . S
C716 C717 1.516 1_556 S
C717 C716 1.516 1_554 S
C717 C718 1.502 . S
C717 C719 1.561 . S
C717 C720 1.526 1_554 S
C718 H702 0.959 . S
C718 H703 0.959 . S
C718 H704 0.961 . S
C718 C717 1.502 . S
C719 H705 0.960 . S
C719 H706 0.961 . S
C719 H707 0.959 . S
C719 C717 1.561 . S
C720 C717 1.526 1_556 S
C720 C721 1.396 . S
C720 C725 1.390 . S
C721 C715 1.465 . S
C721 C720 1.396 . S
C721 C722 1.399 . S
C722 H708 0.929 . S
C722 C721 1.399 . S
C722 C723 1.385 . S
C723 H709 0.931 . S
C723 C722 1.385 . S
C723 C724 1.389 . S
C724 C723 1.389 . S
C724 C725 1.387 . S
C725 H710 0.930 1_556 S
C725 C720 1.390 . S
C725 C724 1.387 . S
C253 C209 1.694 . S
C265 C6 1.661 . S
C280 C9 1.668 . S
C292 C46 1.621 . S
C307 C49 1.667 . S
C319 C86 1.624 . S
C334 C89 1.672 . S
C346 C126 1.616 . S
C361 C166 1.601 . S
C373 C129 1.694 . S
C388 C206 1.674 . S
C400 C169 1.662 . S
C415 C10 2.113 . S
C427 C19 2.074 . S
C442 C50 2.101 . S
C454 C59 2.090 . S
C469 C90 2.084 . S
C481 C99 2.106 . S
C496 C130 2.112 . S
C508 C139 2.076 . S
C523 C179 2.072 . S
C535 C170 2.113 . S
C550 C210 2.107 . S
C562 C219 2.075 . S
C577 C15 1.539 . S
C589 C178 1.568 . S
C604 C55 1.541 . S
C616 C218 1.597 . S
C631 C18 1.554 . S
C643 C95 1.597 . S
C658 C58 1.619 . S
C670 C135 1.563 . S
C685 C175 1.539 . S
C697 C98 1.567 . S
C712 C138 1.613 . S
C724 C215 1.554 . S
