# Generated by pormake.
# Topology uno, (4)-cn, num edge types: 1
# Building blocks:
#     Node 0, Type 0, BuildingBlock: QUQFOY_clean_sbu_1, # of connection points: 4
#     Node 1, Type 0, BuildingBlock: QUQFOY_clean_sbu_1, # of connection points: 4
#     Node 2, Type 0, BuildingBlock: QUQFOY_clean_sbu_1, # of connection points: 4
#     Node 3, Type 0, BuildingBlock: QUQFOY_clean_sbu_1, # of connection points: 4
#     Node 4, Type 0, BuildingBlock: QUQFOY_clean_sbu_1, # of connection points: 4
#     Node 5, Type 0, BuildingBlock: QUQFOY_clean_sbu_1, # of connection points: 4
#     Node 6, Type 0, BuildingBlock: QUQFOY_clean_sbu_1, # of connection points: 4
#     Node 7, Type 0, BuildingBlock: QUQFOY_clean_sbu_1, # of connection points: 4
#     Node 8, Type 0, BuildingBlock: QUQFOY_clean_sbu_1, # of connection points: 4
#     Node 9, Type 0, BuildingBlock: QUQFOY_clean_sbu_1, # of connection points: 4
#     Node 10, Type 0, BuildingBlock: QUQFOY_clean_sbu_1, # of connection points: 4
#     Node 11, Type 0, BuildingBlock: QUQFOY_clean_sbu_1, # of connection points: 4
#     Node 12, Type 0, BuildingBlock: QUQFOY_clean_sbu_1, # of connection points: 4
#     Node 13, Type 0, BuildingBlock: QUQFOY_clean_sbu_1, # of connection points: 4
#     Node 14, Type 0, BuildingBlock: QUQFOY_clean_sbu_1, # of connection points: 4
#     Node 15, Type 0, BuildingBlock: QUQFOY_clean_sbu_1, # of connection points: 4
#     Node 16, Type 0, BuildingBlock: QUQFOY_clean_sbu_1, # of connection points: 4
#     Node 17, Type 0, BuildingBlock: QUQFOY_clean_sbu_1, # of connection points: 4
#     Node 18, Type 0, BuildingBlock: QUQFOY_clean_sbu_1, # of connection points: 4
#     Node 19, Type 0, BuildingBlock: QUQFOY_clean_sbu_1, # of connection points: 4
#     Node 20, Type 0, BuildingBlock: QUQFOY_clean_sbu_1, # of connection points: 4
#     Node 21, Type 0, BuildingBlock: QUQFOY_clean_sbu_1, # of connection points: 4
#     Node 22, Type 0, BuildingBlock: QUQFOY_clean_sbu_1, # of connection points: 4
#     Node 23, Type 0, BuildingBlock: QUQFOY_clean_sbu_1, # of connection points: 4
#     Edge 24, Type (0, 0), BuildingBlock: MIFKUJ_clean_linker_0, # of connection points: 2
#     Edge 25, Type (0, 0), BuildingBlock: MIFKUJ_clean_linker_0, # of connection points: 2
#     Edge 26, Type (0, 0), BuildingBlock: MIFKUJ_clean_linker_0, # of connection points: 2
#     Edge 27, Type (0, 0), BuildingBlock: MIFKUJ_clean_linker_0, # of connection points: 2
#     Edge 28, Type (0, 0), BuildingBlock: MIFKUJ_clean_linker_0, # of connection points: 2
#     Edge 29, Type (0, 0), BuildingBlock: MIFKUJ_clean_linker_0, # of connection points: 2
#     Edge 30, Type (0, 0), BuildingBlock: MIFKUJ_clean_linker_0, # of connection points: 2
#     Edge 31, Type (0, 0), BuildingBlock: MIFKUJ_clean_linker_0, # of connection points: 2
#     Edge 32, Type (0, 0), BuildingBlock: MIFKUJ_clean_linker_0, # of connection points: 2
#     Edge 33, Type (0, 0), BuildingBlock: MIFKUJ_clean_linker_0, # of connection points: 2
#     Edge 34, Type (0, 0), BuildingBlock: MIFKUJ_clean_linker_0, # of connection points: 2
#     Edge 35, Type (0, 0), BuildingBlock: MIFKUJ_clean_linker_0, # of connection points: 2
#     Edge 36, Type (0, 0), BuildingBlock: MIFKUJ_clean_linker_0, # of connection points: 2
#     Edge 37, Type (0, 0), BuildingBlock: MIFKUJ_clean_linker_0, # of connection points: 2
#     Edge 38, Type (0, 0), BuildingBlock: MIFKUJ_clean_linker_0, # of connection points: 2
#     Edge 39, Type (0, 0), BuildingBlock: MIFKUJ_clean_linker_0, # of connection points: 2
#     Edge 40, Type (0, 0), BuildingBlock: MIFKUJ_clean_linker_0, # of connection points: 2
#     Edge 41, Type (0, 0), BuildingBlock: MIFKUJ_clean_linker_0, # of connection points: 2
#     Edge 42, Type (0, 0), BuildingBlock: MIFKUJ_clean_linker_0, # of connection points: 2
#     Edge 43, Type (0, 0), BuildingBlock: MIFKUJ_clean_linker_0, # of connection points: 2
#     Edge 44, Type (0, 0), BuildingBlock: MIFKUJ_clean_linker_0, # of connection points: 2
#     Edge 45, Type (0, 0), BuildingBlock: MIFKUJ_clean_linker_0, # of connection points: 2
#     Edge 46, Type (0, 0), BuildingBlock: MIFKUJ_clean_linker_0, # of connection points: 2
#     Edge 47, Type (0, 0), BuildingBlock: MIFKUJ_clean_linker_0, # of connection points: 2
#     Edge 48, Type (0, 0), BuildingBlock: MIFKUJ_clean_linker_0, # of connection points: 2
#     Edge 49, Type (0, 0), BuildingBlock: MIFKUJ_clean_linker_0, # of connection points: 2
#     Edge 50, Type (0, 0), BuildingBlock: MIFKUJ_clean_linker_0, # of connection points: 2
#     Edge 51, Type (0, 0), BuildingBlock: MIFKUJ_clean_linker_0, # of connection points: 2
#     Edge 52, Type (0, 0), BuildingBlock: MIFKUJ_clean_linker_0, # of connection points: 2
#     Edge 53, Type (0, 0), BuildingBlock: MIFKUJ_clean_linker_0, # of connection points: 2
#     Edge 54, Type (0, 0), BuildingBlock: MIFKUJ_clean_linker_0, # of connection points: 2
#     Edge 55, Type (0, 0), BuildingBlock: MIFKUJ_clean_linker_0, # of connection points: 2
#     Edge 56, Type (0, 0), BuildingBlock: MIFKUJ_clean_linker_0, # of connection points: 2
#     Edge 57, Type (0, 0), BuildingBlock: MIFKUJ_clean_linker_0, # of connection points: 2
#     Edge 58, Type (0, 0), BuildingBlock: MIFKUJ_clean_linker_0, # of connection points: 2
#     Edge 59, Type (0, 0), BuildingBlock: MIFKUJ_clean_linker_0, # of connection points: 2
#     Edge 60, Type (0, 0), BuildingBlock: MIFKUJ_clean_linker_0, # of connection points: 2
#     Edge 61, Type (0, 0), BuildingBlock: MIFKUJ_clean_linker_0, # of connection points: 2
#     Edge 62, Type (0, 0), BuildingBlock: MIFKUJ_clean_linker_0, # of connection points: 2
#     Edge 63, Type (0, 0), BuildingBlock: MIFKUJ_clean_linker_0, # of connection points: 2
#     Edge 64, Type (0, 0), BuildingBlock: MIFKUJ_clean_linker_0, # of connection points: 2
#     Edge 65, Type (0, 0), BuildingBlock: MIFKUJ_clean_linker_0, # of connection points: 2
#     Edge 66, Type (0, 0), BuildingBlock: MIFKUJ_clean_linker_0, # of connection points: 2
#     Edge 67, Type (0, 0), BuildingBlock: MIFKUJ_clean_linker_0, # of connection points: 2
#     Edge 68, Type (0, 0), BuildingBlock: MIFKUJ_clean_linker_0, # of connection points: 2
#     Edge 69, Type (0, 0), BuildingBlock: MIFKUJ_clean_linker_0, # of connection points: 2
#     Edge 70, Type (0, 0), BuildingBlock: MIFKUJ_clean_linker_0, # of connection points: 2
#     Edge 71, Type (0, 0), BuildingBlock: MIFKUJ_clean_linker_0, # of connection points: 2
# Relax obj value: 0.249
# Max RMSD: 0.252
# Mean RMSD: 0.227
data_MOF--net-uno--node1-QUQFOY_clean_sbu_1--edge1-MIFKUJ_clean_linker_0
_symmetry_space_group_name_H-M    P1
_symmetry_Int_Tables_number       1
_symmetry_cell_setting            triclinic
loop_
_symmetry_equiv_pos_as_xyz
'x, y, z'
_cell_length_a     69.795016
_cell_length_b     69.808022
_cell_length_c     69.757326
_cell_angle_alpha  90.083588
_cell_angle_beta   90.144183
_cell_angle_gamma 90.040382
loop_
_atom_site_label
_atom_site_type_symbol
_atom_site_fract_x
_atom_site_fract_y
_atom_site_fract_z
_atom_type_partial_charge
O0 O 0.13796 0.30106 0.29397 0.0
Cd1 Cd 0.1203 0.2996 0.31698 0.0
Cd2 Cd 0.11405 0.26542 0.30023 0.0
O3 O 0.12553 0.27832 0.27577 0.0
O4 O 0.1144 0.32693 0.32292 0.0
O5 O 0.09286 0.30627 0.31193 0.0
C6 C 0.09743 0.32375 0.31618 0.0
C7 C 0.09063 0.24128 0.30157 0.0
C8 C 0.13728 0.29214 0.27813 0.0
C9 C 0.14008 0.26911 0.33552 0.0
O10 O 0.13452 0.26032 0.32058 0.0
O11 O 0.13387 0.28582 0.33931 0.0
O12 O 0.10681 0.23856 0.29313 0.0
O13 O 0.08692 0.25839 0.3076 0.0
O14 O 0.02408 0.83767 0.54656 0.0
Cd15 Cd 0.01327 0.81845 0.52742 0.0
Cd16 Cd 0.98176 0.83659 0.54294 0.0
O17 O 0.99963 0.8463 0.56467 0.0
O18 O 0.03702 0.80334 0.52185 0.0
O19 O 0.01244 0.79127 0.53757 0.0
C20 C 0.02999 0.78959 0.53195 0.0
C21 C 0.95031 0.8253 0.5428 0.0
C22 C 0.0175 0.84647 0.56104 0.0
C23 C 0.99413 0.8465 0.50272 0.0
O24 O 0.98614 0.85127 0.51831 0.0
O25 O 0.00425 0.8313 0.50182 0.0
O26 O 0.95425 0.84245 0.54853 0.0
O27 O 0.96448 0.81379 0.53959 0.0
O28 O 0.39589 0.70462 0.78205 0.0
Cd29 Cd 0.41475 0.70083 0.80374 0.0
Cd30 Cd 0.42051 0.74049 0.78935 0.0
O31 O 0.40371 0.73094 0.76617 0.0
O32 O 0.41222 0.67235 0.80685 0.0
O33 O 0.43899 0.68622 0.79755 0.0
C34 C 0.42932 0.67066 0.8002 0.0
C35 C 0.44224 0.76666 0.78872 0.0
C36 C 0.39325 0.71606 0.76823 0.0
C37 C 0.39949 0.73094 0.82782 0.0
O38 O 0.4047 0.74157 0.81402 0.0
O39 O 0.40394 0.71326 0.82826 0.0
O40 O 0.42415 0.76891 0.78598 0.0
O41 O 0.44845 0.7493 0.79014 0.0
O42 O 0.50434 0.17718 0.01901 0.0
Cd43 Cd 0.50633 0.19583 0.99658 0.0
Cd44 Cd 0.54497 0.18001 0.00504 0.0
O45 O 0.53308 0.16923 0.02977 0.0
O46 O 0.47866 0.20357 0.99589 0.0
O47 O 0.5014 0.22397 0.00337 0.0
C48 C 0.48333 0.22025 0.00209 0.0
C49 C 0.57712 0.18916 1.001 0.0
C50 C 0.51492 0.16849 0.03098 0.0
C51 C 0.52209 0.16761 0.96934 0.0
O52 O 0.53508 0.16538 0.98187 0.0
O53 O 0.51005 0.18132 0.9705 0.0
O54 O 0.57251 0.17183 0.00527 0.0
O55 O 0.56356 0.20175 1.00051 0.0
O56 O 0.02051 0.0222 0.37989 0.0
Cd57 Cd 0.99534 0.0379 0.37683 0.0
Cd58 Cd 0.00205 0.99441 0.34749 0.0
O59 O 0.02833 0.99714 0.36106 0.0
O60 O 0.99865 0.06527 0.38413 0.0
O61 O 0.9954 0.05496 0.35407 0.0
C62 C 0.99875 0.06888 0.36592 0.0
C63 C 0.99322 0.97214 0.32476 0.0
C64 C 0.03198 0.00892 0.37465 0.0
C65 C 0.97401 0.00769 0.37748 0.0
O66 O 0.98177 0.00987 0.36112 0.0
O67 O 0.97141 0.02303 0.3868 0.0
O68 O 0.99259 0.96806 0.3428 0.0
O69 O 0.99971 0.9887 0.31953 0.0
O70 O 0.24835 0.67818 0.64167 0.0
Cd71 Cd 0.23713 0.69627 0.62182 0.0
Cd72 Cd 0.20604 0.67968 0.63801 0.0
O73 O 0.22428 0.65977 0.65064 0.0
O74 O 0.26106 0.70383 0.60822 0.0
O75 O 0.23804 0.68674 0.59454 0.0
C76 C 0.25504 0.694 0.5938 0.0
C77 C 0.17916 0.67824 0.61859 0.0
C78 C 0.24202 0.66404 0.65112 0.0
C79 C 0.21399 0.72079 0.64687 0.0
O80 O 0.20604 0.70525 0.65182 0.0
O81 O 0.22601 0.7213 0.63319 0.0
O82 O 0.17832 0.67297 0.63635 0.0
O83 O 0.1959 0.68156 0.6113 0.0
O84 O 0.51338 0.98292 0.84041 0.0
Cd85 Cd 0.54012 0.97732 0.83128 0.0
Cd86 Cd 0.52664 0.0122 0.81261 0.0
O87 O 0.49939 0.00497 0.82264 0.0
O88 O 0.54184 0.95103 0.8429 0.0
O89 O 0.54285 0.95578 0.81172 0.0
C90 C 0.54142 0.94394 0.82585 0.0
C91 C 0.53495 0.02894 0.78466 0.0
C92 C 0.49888 0.993 0.83638 0.0
C93 C 0.55574 0.01354 0.84611 0.0
O94 O 0.54373 0.02103 0.83467 0.0
O95 O 0.55872 0.99547 0.84621 0.0
O96 O 0.52383 0.0364 0.79735 0.0
O97 O 0.53987 0.01124 0.78685 0.0
O98 O 0.26034 0.31778 0.12938 0.0
Cd99 Cd 0.2644 0.29574 0.11093 0.0
Cd100 Cd 0.3021 0.31021 0.12084 0.0
O101 O 0.28788 0.33233 0.13497 0.0
O102 O 0.23671 0.29005 0.10533 0.0
O103 O 0.25637 0.30131 0.08345 0.0
C104 C 0.2391 0.29696 0.08842 0.0
C105 C 0.32766 0.31156 0.09936 0.0
C106 C 0.26983 0.33112 0.13725 0.0
C107 C 0.29003 0.27057 0.13452 0.0
O108 O 0.30148 0.28471 0.13524 0.0
O109 O 0.27485 0.27112 0.12429 0.0
O110 O 0.32998 0.31595 0.11721 0.0
O111 O 0.3104 0.30827 0.09337 0.0
O112 O 0.29088 0.13769 0.29903 0.0
Cd113 Cd 0.31594 0.12558 0.3092 0.0
Cd114 Cd 0.30938 0.12116 0.25763 0.0
O115 O 0.2858 0.13699 0.26712 0.0
O116 O 0.31497 0.12202 0.33752 0.0
O117 O 0.31345 0.09809 0.31643 0.0
C118 C 0.31256 0.10397 0.33402 0.0
C119 C 0.31181 0.10263 0.2301 0.0
C120 C 0.28089 0.14169 0.28419 0.0
C121 C 0.33923 0.13623 0.28124 0.0
O122 O 0.33142 0.12058 0.27643 0.0
O123 O 0.34023 0.1393 0.29908 0.0
O124 O 0.31641 0.12061 0.2299 0.0
O125 O 0.30487 0.09556 0.24576 0.0
O126 O 0.17724 0.01764 0.50548 0.0
Cd127 Cd 0.19657 0.99588 0.50903 0.0
Cd128 Cd 0.18045 0.00667 0.54633 0.0
O129 O 0.16919 0.03046 0.5333 0.0
O130 O 0.20442 0.99395 0.48155 0.0
O131 O 0.22452 0.00295 0.50412 0.0
C132 C 0.22093 1.00071 0.4861 0.0
C133 C 0.18765 0.0039 0.57893 0.0
C134 C 0.16839 0.03028 0.5151 0.0
C135 C 0.16954 0.96896 0.52604 0.0
O136 O 0.16658 0.98259 0.53766 0.0
O137 O 0.18348 0.96947 0.5143 0.0
O138 O 0.17047 0.00706 0.57304 0.0
O139 O 0.20126 0.00428 0.56644 0.0
O140 O 0.23409 0.85812 0.81449 0.0
Cd141 Cd 0.21155 0.87662 0.81355 0.0
Cd142 Cd 0.22506 0.88163 0.77866 0.0
O143 O 0.24984 0.86875 0.78927 0.0
O144 O 0.20772 0.88566 0.84022 0.0
O145 O 0.21847 0.90415 0.81663 0.0
C146 C 0.21495 0.90177 0.83469 0.0
C147 C 0.22443 0.90492 0.75469 0.0
C148 C 0.24888 0.85789 0.80393 0.0
C149 C 0.18879 0.85773 0.78573 0.0
O150 O 0.20286 0.86271 0.77539 0.0
O151 O 0.18728 0.864 0.80273 0.0
O152 O 0.22972 0.88764 0.75114 0.0
O153 O 0.22077 0.90957 0.77222 0.0
O154 O 0.38039 0.01786 0.02305 0.0
Cd155 Cd 0.36772 0.99258 0.02989 0.0
Cd156 Cd 0.34551 0.00493 1.00061 0.0
O157 O 0.35559 0.03169 0.00892 0.0
O158 O 0.37063 0.98928 0.05815 0.0
O159 O 0.34308 0.9964 0.04367 0.0
C160 C 0.35291 0.99458 0.05934 0.0
C161 C 0.31846 0.99944 0.98153 0.0
C162 C 0.37232 0.03263 0.01619 0.0
C163 C 0.37653 0.97398 0.99511 0.0
O164 O 0.36598 0.98751 0.9892 0.0
O165 O 0.37791 0.97052 0.01296 0.0
O166 O 0.33253 0.00976 0.97567 0.0
O167 O 0.31846 0.99426 0.99928 0.0
O168 O 0.81261 0.23366 0.85652 0.0
Cd169 Cd 0.81077 0.21119 0.87501 0.0
Cd170 Cd 0.7784 0.22863 0.88394 0.0
O171 O 0.79238 0.25226 0.87205 0.0
O172 O 0.83737 0.20519 0.8831 0.0
O173 O 0.81545 0.21793 0.90234 0.0
C174 C 0.83309 0.21306 0.89934 0.0
C175 C 0.75583 0.22998 0.9087 0.0
C176 C 0.80501 0.24996 0.85907 0.0
C177 C 0.77815 0.1921 0.85976 0.0
O178 O 0.77031 0.20767 0.86493 0.0
O179 O 0.7954 0.18848 0.86432 0.0
O180 O 0.75279 0.23812 0.89243 0.0
O181 O 0.77253 0.22256 0.91165 0.0
O182 O 0.01964 0.51926 0.18525 0.0
Cd183 Cd 0.99758 0.50202 0.19456 0.0
Cd184 Cd 0.01196 0.55031 0.17051 0.0
O185 O 0.03558 0.53397 0.1632 0.0
O186 O 0.00491 0.47448 0.19649 0.0
O187 O 1.00008 0.49333 0.22174 0.0
C188 C 0.00528 0.47688 0.21489 0.0
C189 C 0.00812 0.58177 0.17783 0.0
C190 C 0.03018 0.51817 0.17038 0.0
C191 C 0.97237 0.52331 0.16975 0.0
O192 O 0.98739 0.5336 0.16999 0.0
O193 O 0.97146 0.50873 0.18078 0.0
O194 O 0.00719 0.57598 0.16019 0.0
O195 O 0.01299 0.56978 0.19115 0.0
O196 O 0.71455 0.78264 0.41147 0.0
Cd197 Cd 0.69303 0.80205 0.40504 0.0
Cd198 Cd 0.75001 0.79755 0.41523 0.0
O199 O 0.74199 0.77245 0.40114 0.0
O200 O 0.66789 0.79265 0.39578 0.0
O201 O 0.67291 0.80471 0.42496 0.0
C202 C 0.66156 0.79639 0.4128 0.0
C203 C 0.77631 0.80091 0.43552 0.0
C204 C 0.72379 0.77188 0.39999 0.0
C205 C 0.72324 0.82516 0.39628 0.0
O206 O 0.72836 0.81792 0.41226 0.0
O207 O 0.70535 0.82584 0.39267 0.0
O208 O 0.77769 0.80467 0.41739 0.0
O209 O 0.75996 0.7951 0.44203 0.0
O210 O 0.86094 0.77526 0.19309 0.0
Cd211 Cd 0.88007 0.77696 0.21537 0.0
Cd212 Cd 0.87306 0.81402 0.20737 0.0
O213 O 0.85559 0.80537 0.18546 0.0
O214 O 0.88477 0.74904 0.21807 0.0
O215 O 0.90803 0.7696 0.21222 0.0
C216 C 0.90255 0.75211 0.21455 0.0
C217 C 0.89605 0.83763 0.20704 0.0
C218 C 0.852 0.78769 0.18329 0.0
C219 C 0.85938 0.79937 0.2452 0.0
O220 O 0.85979 0.813 0.23324 0.0
O221 O 0.86761 0.78356 0.24149 0.0
O222 O 0.87816 0.84165 0.20463 0.0
O223 O 0.90108 0.8198 0.20742 0.0
O224 O 0.63619 0.2462 0.67557 0.0
Cd225 Cd 0.61735 0.23253 0.69309 0.0
Cd226 Cd 0.63581 0.20637 0.67253 0.0
O227 O 0.64499 0.22638 0.65268 0.0
O228 O 0.60652 0.25655 0.70391 0.0
O229 O 0.5893 0.23669 0.68631 0.0
C230 C 0.59099 0.25317 0.69456 0.0
C231 C 0.61856 0.17821 0.67259 0.0
C232 C 0.64497 0.24309 0.65999 0.0
C233 C 0.64687 0.21196 0.71339 0.0
O234 O 0.65215 0.20796 0.69648 0.0
O235 O 0.63047 0.21937 0.71638 0.0
O236 O 0.63589 0.17866 0.66603 0.0
O237 O 0.61019 0.19431 0.67651 0.0
O238 O 0.45741 0.48909 0.63892 0.0
Cd239 Cd 0.47958 0.48608 0.65793 0.0
Cd240 Cd 0.46894 0.44797 0.64729 0.0
O241 O 0.44525 0.46011 0.63467 0.0
O242 O 0.48377 0.51313 0.66682 0.0
O243 O 0.47376 0.49028 0.68615 0.0
C244 C 0.47779 0.50814 0.68352 0.0
C245 C 0.47233 0.41807 0.66141 0.0
C246 C 0.44503 0.47802 0.63141 0.0
C247 C 0.50627 0.46477 0.63281 0.0
O248 O 0.49288 0.45258 0.63168 0.0
O249 O 0.50517 0.47898 0.64425 0.0
O250 O 0.46625 0.41967 0.64404 0.0
O251 O 0.47402 0.43349 0.67156 0.0
O252 O 0.02802 0.37252 0.02506 0.0
Cd253 Cd 0.03316 0.36607 0.99722 0.0
Cd254 Cd 0.99764 0.34634 0.00521 0.0
O255 O 0.00429 0.3532 0.03335 0.0
O256 O 0.06097 0.37278 0.99489 0.0
O257 O 0.0501 0.343 0.99415 0.0
C258 C 0.06449 0.35464 0.99521 0.0
C259 C 0.97812 0.32015 0.997 0.0
C260 C 0.01698 0.36558 0.03767 0.0
C261 C 0.99876 0.3818 0.97877 0.0
O262 O 0.99018 0.36926 0.9887 0.0
O263 O 0.017 0.38263 0.9784 0.0
O264 O 0.97185 0.33417 0.00718 0.0
O265 O 0.9961 0.32012 0.99271 0.0
O266 O 0.45465 0.62934 0.50017 0.0
Cd267 Cd 0.44767 0.6408 0.47433 0.0
Cd268 Cd 0.48511 0.65738 0.48397 0.0
O269 O 0.48133 0.64355 0.5099 0.0
O270 O 0.42057 0.63211 0.47338 0.0
O271 O 0.4288 0.66264 0.47509 0.0
C272 C 0.41559 0.64969 0.47589 0.0
C273 C 0.50631 0.68317 0.48102 0.0
C274 C 0.46761 0.63191 0.51265 0.0
C275 C 0.4794 0.62901 0.44992 0.0
O276 O 0.48914 0.63935 0.46129 0.0
O277 O 0.46129 0.62788 0.45149 0.0
O278 O 0.51213 0.66626 0.48531 0.0
O279 O 0.4881 0.68607 0.47989 0.0
O280 O 0.63997 0.45655 0.49093 0.0
Cd281 Cd 0.65914 0.47879 0.48928 0.0
Cd282 Cd 0.64802 0.46761 0.45008 0.0
O283 O 0.63545 0.44397 0.46215 0.0
O284 O 0.66659 0.4811 0.517 0.0
O285 O 0.68751 0.47403 0.49457 0.0
C286 C 0.68382 0.47639 0.51254 0.0
C287 C 0.65532 0.47152 0.41747 0.0
C288 C 0.63184 0.44439 0.48002 0.0
C289 C 0.63238 0.50411 0.46994 0.0
O290 O 0.63265 0.49086 0.45758 0.0
O291 O 0.64448 0.50435 0.48364 0.0
O292 O 0.63839 0.46703 0.42308 0.0
O293 O 0.66882 0.47148 0.43013 0.0
O294 O 0.78776 0.39178 0.70362 0.0
Cd295 Cd 0.80698 0.41346 0.70312 0.0
Cd296 Cd 0.78845 0.41959 0.7377 0.0
O297 O 0.76681 0.40338 0.72424 0.0
O298 O 0.81223 0.41644 0.67506 0.0
O299 O 0.79642 0.43788 0.69231 0.0
C300 C 0.80177 0.43169 0.67565 0.0
C301 C 0.78562 0.44342 0.76157 0.0
C302 C 0.7715 0.39095 0.71161 0.0
C303 C 0.82823 0.40091 0.73588 0.0
O304 O 0.8122 0.40375 0.74395 0.0
O305 O 0.83115 0.4064 0.71873 0.0
O306 O 0.77926 0.4263 0.76425 0.0
O307 O 0.79167 0.44768 0.74461 0.0
O308 O 0.84049 0.50451 0.98431 0.0
Cd309 Cd 0.83479 0.53186 0.97651 0.0
Cd310 Cd 0.8134 0.5262 0.01397 0.0
O311 O 0.82338 0.49826 0.01034 0.0
O312 O 0.84506 0.53185 0.94948 0.0
O313 O 0.81436 0.53499 0.95604 0.0
C314 C 0.82763 0.53257 0.94339 0.0
C315 C 0.78728 0.53465 0.03414 0.0
C316 C 0.83524 0.49314 0.99742 0.0
C317 C 0.84933 0.55232 0.01119 0.0
O318 O 0.83566 0.54408 0.01981 0.0
O319 O 0.85138 0.55071 0.99306 0.0
O320 O 0.80219 0.52595 0.04054 0.0
O321 O 0.78625 0.53718 0.01585 0.0
O322 O 0.68192 0.64591 0.25143 0.0
Cd323 Cd 0.69432 0.62249 0.23924 0.0
Cd324 Cd 0.67833 0.63975 0.20983 0.0
O325 O 0.66171 0.65548 0.22906 0.0
O326 O 0.70259 0.60693 0.2618 0.0
O327 O 0.68025 0.59722 0.24147 0.0
C328 C 0.6899 0.59441 0.25702 0.0
C329 C 0.6756 0.61916 0.1841 0.0
C330 C 0.66891 0.65731 0.2458 0.0
C331 C 0.72006 0.64446 0.21481 0.0
O332 O 0.70467 0.65157 0.20833 0.0
O333 O 0.71978 0.63009 0.22602 0.0
O334 O 0.67041 0.63691 0.18246 0.0
O335 O 0.67907 0.6126 0.20115 0.0
H336 H 0.28175 0.3418 0.17336 0.0
H337 H 0.25966 0.3431 0.20057 0.0
H338 H 0.21181 0.34276 0.16112 0.0
H339 H 0.23368 0.34405 0.13448 0.0
H340 H 0.19792 0.35369 0.1897 0.0
H341 H 0.24091 0.29916 0.18043 0.0
H342 H 0.27221 0.28275 0.17953 0.0
H343 H 0.28282 0.29891 0.23803 0.0
H344 H 0.25172 0.31569 0.23914 0.0
H345 H 0.1355 0.28782 0.23871 0.0
H346 H 0.15938 0.29926 0.21533 0.0
H347 H 0.19519 0.31936 0.26166 0.0
H348 H 0.17176 0.30824 0.28476 0.0
H349 H 0.21534 0.2998 0.23256 0.0
H350 H 0.16733 0.35059 0.23983 0.0
H351 H 0.13374 0.36154 0.23844 0.0
H352 H 0.13047 0.34536 0.1791 0.0
H353 H 0.16397 0.33412 0.18022 0.0
C354 C 0.26656 0.34341 0.17062 0.0
C355 C 0.25936 0.34222 0.15184 0.0
C356 C 0.25384 0.34353 0.18618 0.0
C357 C 0.23396 0.34153 0.18302 0.0
C358 C 0.22698 0.34376 0.16425 0.0
C359 C 0.2396 0.3446 0.14886 0.0
C360 C 0.22064 0.33442 0.19822 0.0
C361 C 0.20187 0.3418 0.19889 0.0
C362 C 0.22543 0.31887 0.21051 0.0
C363 C 0.24414 0.30887 0.20978 0.0
C364 C 0.24998 0.29927 0.19305 0.0
C365 C 0.26767 0.28991 0.19251 0.0
C366 C 0.27951 0.28979 0.2087 0.0
C367 C 0.27367 0.29905 0.22548 0.0
C368 C 0.25603 0.30851 0.22607 0.0
C369 C 0.14854 0.29455 0.24381 0.0
C370 C 0.15161 0.29741 0.26351 0.0
C371 C 0.16211 0.30109 0.23051 0.0
C372 C 0.17894 0.3103 0.23684 0.0
C373 C 0.18231 0.31236 0.25649 0.0
C374 C 0.16878 0.3061 0.26965 0.0
C375 C 0.19287 0.31866 0.22325 0.0
C376 C 0.21165 0.31163 0.22318 0.0
C377 C 0.1879 0.3339 0.21095 0.0
C378 C 0.1681 0.34148 0.21012 0.0
C379 C 0.15943 0.34937 0.2265 0.0
C380 C 0.1404 0.3556 0.22576 0.0
C381 C 0.12997 0.35413 0.20869 0.0
C382 C 0.13857 0.3465 0.1923 0.0
C383 C 0.15758 0.34024 0.19297 0.0
H384 H 0.11523 0.35892 0.20817 0.0
H385 H 0.29318 0.2825 0.20826 0.0
H386 H 0.0127 0.84643 0.46756 0.0
H387 H 0.00967 0.87072 0.44217 0.0
H388 H 0.96825 0.90127 0.4763 0.0
H389 H 0.97035 0.87703 0.50085 0.0
H390 H 0.95758 0.89784 0.43844 0.0
H391 H 0.01837 0.93337 0.47092 0.0
H392 H 0.05138 0.9294 0.48327 0.0
H393 H 0.06351 0.88918 0.43833 0.0
H394 H 0.03087 0.89353 0.4253 0.0
H395 H 0.95018 0.99473 0.40581 0.0
H396 H 0.95341 0.96531 0.42486 0.0
H397 H 0.00382 0.9501 0.39257 0.0
H398 H 0.00179 0.97984 0.37571 0.0
H399 H 0.01113 0.94282 0.42627 0.0
H400 H 0.95581 0.92856 0.3868 0.0
H401 H 0.92328 0.93358 0.37383 0.0
H402 H 0.89991 0.93035 0.43063 0.0
H403 H 0.93231 0.92558 0.44396 0.0
C404 C 0.00284 0.85824 0.46949 0.0
C405 C 0.9919 0.8598 0.48631 0.0
C406 C 0.00134 0.87227 0.45513 0.0
C407 C 0.98912 0.88811 0.4576 0.0
C408 C 0.97788 0.88929 0.47412 0.0
C409 C 0.97916 0.87533 0.48821 0.0
C410 C 0.98747 0.9037 0.44328 0.0
C411 C 0.96931 0.90761 0.43554 0.0
C412 C 0.00275 0.91637 0.43947 0.0
C413 C 0.02212 0.91338 0.44748 0.0
C414 C 0.02809 0.92361 0.46377 0.0
C415 C 0.04673 0.92138 0.47082 0.0
C416 C 0.05942 0.90883 0.46178 0.0
C417 C 0.05361 0.89874 0.44545 0.0
C418 C 0.03509 0.90115 0.43817 0.0
C419 C 0.96183 0.98497 0.40272 0.0
C420 C 0.97514 0.9893 0.38824 0.0
C421 C 0.9636 0.96807 0.41352 0.0
C422 C 0.97858 0.95505 0.40983 0.0
C423 C 0.99193 0.9596 0.3956 0.0
C424 C 0.99041 0.97658 0.38533 0.0
C425 C 0.98112 0.93707 0.42108 0.0
C426 C 0.9994 0.93289 0.42857 0.0
C427 C 0.96595 0.92401 0.42439 0.0
C428 C 0.94649 0.9269 0.41637 0.0
C429 C 0.94374 0.92906 0.39653 0.0
C430 C 0.92532 0.93184 0.38912 0.0
C431 C 0.90954 0.93233 0.4014 0.0
C432 C 0.91214 0.93 0.42113 0.0
C433 C 0.93052 0.92725 0.42862 0.0
H434 H 0.8953 0.93448 0.39563 0.0
H435 H 0.0738 0.90705 0.46733 0.0
H436 H 0.27855 0.65443 0.64419 0.0
H437 H 0.30394 0.65784 0.66746 0.0
H438 H 0.2622 0.65864 0.71312 0.0
H439 H 0.23646 0.65678 0.68925 0.0
H440 H 0.28108 0.68746 0.71756 0.0
H441 H 0.30301 0.62486 0.70951 0.0
H442 H 0.31222 0.59453 0.69395 0.0
H443 H 0.35757 0.62329 0.66406 0.0
H444 H 0.34849 0.65387 0.67923 0.0
H445 H 0.35895 0.70541 0.78131 0.0
H446 H 0.3324 0.69185 0.76333 0.0
H447 H 0.36197 0.70365 0.71039 0.0
H448 H 0.38931 0.71687 0.7287 0.0
H449 H 0.34862 0.66592 0.71357 0.0
H450 H 0.32236 0.72983 0.7269 0.0
H451 H 0.31382 0.75513 0.74997 0.0
H452 H 0.27523 0.71669 0.77841 0.0
H453 H 0.28396 0.69094 0.75586 0.0
C454 C 0.27481 0.65431 0.65927 0.0
C455 C 0.25555 0.65552 0.6649 0.0
C456 C 0.28945 0.65626 0.67272 0.0
C457 C 0.2852 0.65871 0.69224 0.0
C458 C 0.26595 0.65708 0.69814 0.0
C459 C 0.25118 0.65558 0.68453 0.0
C460 C 0.30026 0.6664 0.70545 0.0
C461 C 0.29574 0.68236 0.71692 0.0
C462 C 0.31953 0.66001 0.70483 0.0
C463 C 0.32498 0.64171 0.69545 0.0
C464 C 0.31485 0.62476 0.6995 0.0
C465 C 0.32007 0.60751 0.69077 0.0
C466 C 0.33546 0.60699 0.678 0.0
C467 C 0.34566 0.62372 0.67395 0.0
C468 C 0.34051 0.64101 0.68265 0.0
C469 C 0.35969 0.70547 0.76579 0.0
C470 C 0.37617 0.7122 0.75635 0.0
C471 C 0.34444 0.69774 0.75553 0.0
C472 C 0.34509 0.69684 0.73551 0.0
C473 C 0.36119 0.70428 0.72588 0.0
C474 C 0.37667 0.71203 0.73626 0.0
C475 C 0.32938 0.68709 0.72491 0.0
C476 C 0.33386 0.67077 0.71408 0.0
C477 C 0.30993 0.69251 0.72696 0.0
C478 C 0.30394 0.70841 0.73975 0.0
C479 C 0.31208 0.72676 0.73809 0.0
C480 C 0.30721 0.74118 0.7511 0.0
C481 C 0.29398 0.73754 0.76565 0.0
C482 C 0.2855 0.71948 0.76716 0.0
C483 C 0.2904 0.70497 0.75426 0.0
H484 H 0.2903 0.74865 0.77579 0.0
H485 H 0.33948 0.59362 0.67127 0.0
H486 H 0.52028 0.13035 0.97746 0.0
H487 H 0.52705 0.10374 0.95586 0.0
H488 H 0.52733 0.14256 0.90786 0.0
H489 H 0.52094 0.16967 0.92977 0.0
H490 H 0.50851 0.09831 0.90655 0.0
H491 H 0.56512 0.13834 0.9199 0.0
H492 H 0.58447 0.1557 0.94388 0.0
H493 H 0.59612 0.10293 0.97319 0.0
H494 H 0.57588 0.08541 0.95001 0.0
H495 H 0.57258 0.04819 0.84243 0.0
H496 H 0.56858 0.07448 0.86526 0.0
H497 H 0.54686 0.03481 0.90718 0.0
H498 H 0.55098 0.00836 0.88435 0.0
H499 H 0.57721 0.08011 0.91118 0.0
H500 H 0.50915 0.04879 0.91182 0.0
H501 H 0.48509 0.02944 0.89447 0.0
H502 H 0.49584 0.0615 0.84308 0.0
H503 H 0.51988 0.08114 0.8603 0.0
C504 C 0.5212 0.13316 0.96221 0.0
C505 C 0.52019 0.15202 0.95523 0.0
C506 C 0.5251 0.11795 0.94993 0.0
C507 C 0.52794 0.12127 0.93039 0.0
C508 C 0.52518 0.13982 0.92298 0.0
C509 C 0.52142 0.15523 0.93542 0.0
C510 C 0.536 0.10567 0.91851 0.0
C511 C 0.52358 0.09456 0.90732 0.0
C512 C 0.55552 0.10025 0.92022 0.0
C513 C 0.56876 0.1106 0.93334 0.0
C514 C 0.57161 0.13046 0.93158 0.0
C515 C 0.58269 0.14034 0.94507 0.0
C516 C 0.59151 0.13043 0.96007 0.0
C517 C 0.58925 0.1106 0.9616 0.0
C518 C 0.57788 0.1007 0.94833 0.0
C519 C 0.5681 0.04489 0.85692 0.0
C520 C 0.56236 0.02619 0.86171 0.0
C521 C 0.5656 0.05997 0.86988 0.0
C522 C 0.55725 0.05659 0.8878 0.0
C523 C 0.55338 0.03766 0.8934 0.0
C524 C 0.55604 0.02251 0.88046 0.0
C525 C 0.54974 0.073 0.89899 0.0
C526 C 0.56224 0.08413 0.91015 0.0
C527 C 0.5302 0.07817 0.8978 0.0
C528 C 0.51625 0.06628 0.88724 0.0
C529 C 0.50637 0.05163 0.8968 0.0
C530 C 0.49277 0.04062 0.88701 0.0
C531 C 0.48899 0.04417 0.86765 0.0
C532 C 0.49882 0.05874 0.85806 0.0
C533 C 0.51242 0.06981 0.86782 0.0
H534 H 0.47838 0.0357 0.8601 0.0
H535 H 0.60016 0.13811 0.97044 0.0
H536 H 0.25358 0.13614 0.31082 0.0
H537 H 0.23029 0.15965 0.32219 0.0
H538 H 0.24809 0.19886 0.27792 0.0
H539 H 0.27138 0.17507 0.26627 0.0
H540 H 0.24883 0.21412 0.31638 0.0
H541 H 0.20568 0.18107 0.27402 0.0
H542 H 0.18974 0.1527 0.26017 0.0
H543 H 0.16634 0.13868 0.31528 0.0
H544 H 0.18238 0.16683 0.32952 0.0
H545 H 0.17503 0.28284 0.32865 0.0
H546 H 0.20185 0.26157 0.32324 0.0
H547 H 0.17272 0.21686 0.35451 0.0
H548 H 0.14495 0.23781 0.35811 0.0
H549 H 0.17876 0.20427 0.32218 0.0
H550 H 0.22126 0.23713 0.36523 0.0
H551 H 0.23777 0.26482 0.37978 0.0
H552 H 0.26305 0.27861 0.32547 0.0
H553 H 0.24651 0.25114 0.31053 0.0
C554 C 0.25206 0.14953 0.30313 0.0
C555 C 0.26399 0.15375 0.28753 0.0
C556 C 0.23886 0.16298 0.3097 0.0
C557 C 0.23755 0.18099 0.30093 0.0
C558 C 0.24894 0.18501 0.28485 0.0
C559 C 0.26199 0.17136 0.27804 0.0
C560 C 0.225 0.1958 0.30944 0.0
C561 C 0.23344 0.2122 0.31748 0.0
C562 C 0.20511 0.19285 0.31142 0.0
C563 C 0.19536 0.17597 0.30286 0.0
C564 C 0.19726 0.17185 0.28322 0.0
C565 C 0.18819 0.15583 0.27529 0.0
C566 C 0.17707 0.14387 0.28685 0.0
C567 C 0.17497 0.14795 0.30634 0.0
C568 C 0.18403 0.16395 0.31435 0.0
C569 C 0.17487 0.26889 0.33547 0.0
C570 C 0.15796 0.26196 0.34383 0.0
C571 C 0.19028 0.25656 0.33223 0.0
C572 C 0.18938 0.23736 0.33822 0.0
C573 C 0.1737 0.23149 0.34943 0.0
C574 C 0.15795 0.2436 0.35194 0.0
C575 C 0.20249 0.22277 0.3297 0.0
C576 C 0.19414 0.20633 0.32144 0.0
C577 C 0.22251 0.22565 0.32775 0.0
C578 C 0.23253 0.24213 0.33674 0.0
C579 C 0.23024 0.24613 0.35636 0.0
C580 C 0.23962 0.26178 0.36468 0.0
C581 C 0.25142 0.27349 0.35355 0.0
C582 C 0.2539 0.26954 0.33408 0.0
C583 C 0.24456 0.25391 0.32568 0.0
H584 H 0.25866 0.2856 0.36002 0.0
H585 H 0.17005 0.13147 0.28068 0.0
H586 H 0.0125 0.88453 0.56827 0.0
H587 H 0.03894 0.90759 0.56694 0.0
H588 H 0.07954 0.86115 0.57081 0.0
H589 H 0.05328 0.83837 0.57304 0.0
H590 H 0.09567 0.89245 0.58373 0.0
H591 H 0.05866 0.87602 0.52524 0.0
H592 H 0.02817 0.87472 0.50725 0.0
H593 H 0.02067 0.93526 0.51518 0.0
H594 H 0.05121 0.93692 0.53307 0.0
H595 H 0.17283 0.92981 0.53039 0.0
H596 H 0.1462 0.90809 0.53852 0.0
H597 H 0.10606 0.95441 0.53016 0.0
H598 H 0.13224 0.97548 0.52122 0.0
H599 H 0.08922 0.92415 0.52042 0.0
H600 H 0.12694 0.94222 0.5757 0.0
H601 H 0.15641 0.94468 0.59517 0.0
H602 H 0.16152 0.88337 0.59558 0.0
H603 H 0.13219 0.88057 0.57593 0.0
C604 C 0.02704 0.87941 0.57016 0.0
C605 C 0.03091 0.85969 0.57054 0.0
C606 C 0.04218 0.89255 0.56895 0.0
C607 C 0.06122 0.88599 0.56783 0.0
C608 C 0.065 0.86657 0.57131 0.0
C609 C 0.04995 0.85354 0.57277 0.0
C610 C 0.07678 0.89826 0.56001 0.0
C611 C 0.09429 0.89935 0.56988 0.0
C612 C 0.07499 0.90745 0.54199 0.0
C613 C 0.0571 0.90656 0.53055 0.0
C614 C 0.05051 0.88904 0.52307 0.0
C615 C 0.03322 0.88824 0.51293 0.0
C616 C 0.02243 0.90487 0.51019 0.0
C617 C 0.02899 0.92237 0.51742 0.0
C618 C 0.04634 0.92328 0.52745 0.0
C619 C 0.15822 0.93498 0.52953 0.0
C620 C 0.1545 0.95423 0.52523 0.0
C621 C 0.14305 0.92273 0.53451 0.0
C622 C 0.12413 0.92977 0.53557 0.0
C623 C 0.12044 0.94859 0.52963 0.0
C624 C 0.13544 0.96063 0.52448 0.0
C625 C 0.10826 0.91838 0.54413 0.0
C626 C 0.09067 0.91738 0.53434 0.0
C627 C 0.10993 0.90952 0.56234 0.0
C628 C 0.12749 0.9112 0.57421 0.0
C629 C 0.13442 0.92927 0.57986 0.0
C630 C 0.15109 0.93073 0.59093 0.0
C631 C 0.16085 0.91419 0.59657 0.0
C632 C 0.15395 0.89617 0.59118 0.0
C633 C 0.13731 0.89464 0.58009 0.0
H634 H 0.17374 0.91535 0.60516 0.0
H635 H 0.00905 0.90423 0.50234 0.0
H636 H 0.28527 0.85515 0.7887 0.0
H637 H 0.30992 0.8314 0.79696 0.0
H638 H 0.27111 0.80507 0.83715 0.0
H639 H 0.24691 0.82875 0.8295 0.0
H640 H 0.30461 0.80813 0.853 0.0
H641 H 0.2803 0.78588 0.7922 0.0
H642 H 0.27225 0.78907 0.75792 0.0
H643 H 0.33143 0.7995 0.74482 0.0
H644 H 0.33981 0.79648 0.77907 0.0
H645 H 0.3642 0.71543 0.83006 0.0
H646 H 0.3352 0.73509 0.83068 0.0
H647 H 0.3687 0.78384 0.84863 0.0
H648 H 0.39773 0.76436 0.84754 0.0
H649 H 0.33628 0.76737 0.80415 0.0
H650 H 0.34523 0.8087 0.87184 0.0
H651 H 0.3509 0.80413 0.90653 0.0
H652 H 0.31791 0.75216 0.90515 0.0
H653 H 0.31233 0.75636 0.87041 0.0
C654 C 0.28209 0.84433 0.79934 0.0
C655 C 0.2642 0.84397 0.80854 0.0
C656 C 0.29612 0.83072 0.80399 0.0
C657 C 0.29232 0.81639 0.81764 0.0
C658 C 0.27444 0.81604 0.8267 0.0
C659 C 0.26059 0.82965 0.82226 0.0
C660 C 0.30681 0.80171 0.82279 0.0
C661 C 0.31148 0.79926 0.84224 0.0
C662 C 0.3156 0.78983 0.80889 0.0
C663 C 0.31065 0.79114 0.78823 0.0
C664 C 0.29158 0.78899 0.78203 0.0
C665 C 0.28696 0.79075 0.7626 0.0
C666 C 0.3013 0.79463 0.74922 0.0
C667 C 0.32032 0.79658 0.75522 0.0
C668 C 0.32503 0.79477 0.77463 0.0
C669 C 0.3652 0.72998 0.8354 0.0
C670 C 0.3832 0.73837 0.83887 0.0
C671 C 0.34865 0.7413 0.83538 0.0
C672 C 0.34988 0.76095 0.83944 0.0
C673 C 0.36743 0.76868 0.84553 0.0
C674 C 0.384 0.75747 0.8452 0.0
C675 C 0.33398 0.774 0.83425 0.0
C676 C 0.32922 0.77623 0.8148 0.0
C677 C 0.32483 0.78548 0.84806 0.0
C678 C 0.32844 0.78281 0.8687 0.0
C679 C 0.33924 0.79632 0.879 0.0
C680 C 0.34247 0.79376 0.89862 0.0
C681 C 0.33477 0.77786 0.90804 0.0
C682 C 0.32391 0.76443 0.89783 0.0
C683 C 0.3208 0.76683 0.87819 0.0
H684 H 0.33721 0.77595 0.92324 0.0
H685 H 0.2977 0.79597 0.73418 0.0
H686 H 0.4055 0.03573 0.99802 0.0
H687 H 0.42967 0.06075 0.00246 0.0
H688 H 0.39047 0.09236 0.03814 0.0
H689 H 0.36582 0.06753 0.03294 0.0
H690 H 0.41736 0.11459 0.01177 0.0
H691 H 0.4182 0.06281 0.06037 0.0
H692 H 0.4181 0.02803 0.06669 0.0
H693 H 0.46952 0.02155 0.03362 0.0
H694 H 0.4698 0.05626 0.02698 0.0
H695 H 0.48377 0.1725 0.05355 0.0
H696 H 0.45854 0.14832 0.05453 0.0
H697 H 0.49765 0.1065 0.03137 0.0
H698 H 0.52302 0.13063 0.03074 0.0
H699 H 0.47058 0.08877 0.05149 0.0
H700 H 0.47346 0.13192 1.00098 0.0
H701 H 0.47474 0.16112 0.98127 0.0
H702 H 0.42084 0.17955 0.00437 0.0
H703 H 0.41933 0.1505 0.02445 0.0
C704 C 0.40181 0.04851 0.00601 0.0
C705 C 0.38392 0.05 0.01492 0.0
C706 C 0.41562 0.0626 0.00873 0.0
C707 C 0.41192 0.07807 0.02093 0.0
C708 C 0.39351 0.08042 0.0287 0.0
C709 C 0.37947 0.06637 0.02568 0.0
C710 C 0.42799 0.09029 0.02726 0.0
C711 C 0.42872 0.10923 0.02095 0.0
C712 C 0.44345 0.08265 0.03798 0.0
C713 C 0.44407 0.06211 0.04329 0.0
C714 C 0.42954 0.05397 0.05457 0.0
C715 C 0.42942 0.03427 0.05815 0.0
C716 C 0.44381 0.0226 0.0506 0.0
C717 C 0.45842 0.03062 0.03954 0.0
C718 C 0.45861 0.05031 0.03592 0.0
C719 C 0.48733 0.15783 0.04993 0.0
C720 C 0.50527 0.15344 0.04198 0.0
C721 C 0.47281 0.1441 0.05012 0.0
C722 C 0.47606 0.12585 0.04234 0.0
C723 C 0.49479 0.12058 0.03725 0.0
C724 C 0.5094 0.13432 0.03719 0.0
C725 C 0.45958 0.11361 0.03681 0.0
C726 C 0.45893 0.0945 0.04293 0.0
C727 C 0.4447 0.12076 0.02491 0.0
C728 C 0.44641 0.13916 0.01443 0.0
C729 C 0.46207 0.14238 0.00218 0.0
C730 C 0.46277 0.15883 0.99082 0.0
C731 C 0.44782 0.17211 0.9915 0.0
C732 C 0.43236 0.1692 0.00383 0.0
C733 C 0.43159 0.15276 0.01522 0.0
H734 H 0.44816 0.18462 0.98237 0.0
H735 H 0.44364 0.00733 0.0533 0.0
H736 H 0.03113 0.99502 0.41019 0.0
H737 H 0.05548 1.0004 0.43489 0.0
H738 H 0.09383 0.0231 0.39214 0.0
H739 H 0.06922 0.0179 0.36732 0.0
H740 H 0.11054 0.99894 0.42485 0.0
H741 H 0.07022 0.0543 0.41103 0.0
H742 H 0.03835 0.06861 0.40579 0.0
H743 H 0.02128 0.0518 0.46244 0.0
H744 H 0.05298 0.03708 0.46787 0.0
H745 H 0.17227 0.04896 0.48151 0.0
H746 H 0.14741 0.04814 0.4569 0.0
H747 H 0.1058 0.03165 0.49936 0.0
H748 H 0.13071 0.03247 0.5241 0.0
H749 H 0.09009 0.05267 0.46694 0.0
H750 H 0.12657 0.99667 0.48153 0.0
H751 H 0.15459 0.976 0.48716 0.0
H752 H 0.17622 0.98947 0.43124 0.0
H753 H 0.14826 0.0103 0.42525 0.0
C754 C 0.04508 1.00038 0.406 0.0
C755 C 0.04855 0.00594 0.38701 0.0
C756 C 0.05887 0.00355 0.42007 0.0
C757 C 0.07621 0.01238 0.41527 0.0
C758 C 0.08044 0.01626 0.39599 0.0
C759 C 0.06653 0.01318 0.38186 0.0
C760 C 0.08868 0.01978 0.43062 0.0
C761 C 0.10631 0.01092 0.43381 0.0
C762 C 0.08262 0.03489 0.44271 0.0
C763 C 0.06391 0.04451 0.43981 0.0
C764 C 0.05964 0.0536 0.42234 0.0
C765 C 0.04161 0.06177 0.41933 0.0
C766 C 0.02778 0.06108 0.43376 0.0
C767 C 0.032 0.05231 0.45127 0.0
C768 C 0.05001 0.04408 0.45434 0.0
C769 C 0.15757 0.04644 0.48583 0.0
C770 C 0.1534 0.04063 0.50462 0.0
C771 C 0.14344 0.04569 0.47171 0.0
C772 C 0.12499 0.03928 0.4763 0.0
C773 C 0.12004 0.03651 0.49558 0.0
C774 C 0.13424 0.03726 0.50977 0.0
C775 C 0.11232 0.03216 0.46088 0.0
C776 C 0.09453 0.04092 0.45778 0.0
C777 C 0.11805 0.01666 0.44906 0.0
C778 C 0.13549 0.00525 0.45305 0.0
C779 C 0.13746 0.99549 0.47056 0.0
C780 C 0.15327 0.98365 0.47378 0.0
C781 C 0.16718 0.98142 0.45958 0.0
C782 C 0.16542 0.9912 0.44221 0.0
C783 C 0.14959 0.00301 0.43888 0.0
H784 H 0.17927 0.97203 0.46201 0.0
H785 H 0.01381 0.06738 0.43139 0.0
H786 H 0.23914 0.74377 0.66587 0.0
H787 H 0.23085 0.76619 0.69186 0.0
H788 H 0.17078 0.75713 0.68026 0.0
H789 H 0.17898 0.73454 0.65472 0.0
H790 H 0.18496 0.79762 0.6874 0.0
H791 H 0.18969 0.73071 0.71302 0.0
H792 H 0.20974 0.70209 0.71848 0.0
H793 H 0.25116 0.73641 0.74854 0.0
H794 H 0.23147 0.7652 0.74312 0.0
H795 H 0.15647 0.85106 0.764 0.0
H796 H 0.15396 0.82337 0.74252 0.0
H797 H 0.20343 0.79834 0.77038 0.0
H798 H 0.20324 0.82374 0.79364 0.0
H799 H 0.19297 0.77292 0.75352 0.0
H800 H 0.2027 0.83565 0.72697 0.0
H801 H 0.19623 0.86913 0.7179 0.0
H802 H 0.14514 0.85157 0.68823 0.0
H803 H 0.15151 0.81789 0.69695 0.0
C804 C 0.22422 0.74716 0.6685 0.0
C805 C 0.20963 0.73778 0.65829 0.0
C806 C 0.21952 0.7597 0.68341 0.0
C807 C 0.20023 0.76302 0.68798 0.0
C808 C 0.18572 0.75463 0.6769 0.0
C809 C 0.1904 0.74191 0.66229 0.0
C810 C 0.19488 0.77441 0.70488 0.0
C811 C 0.18655 0.79232 0.70194 0.0
C812 C 0.19789 0.7677 0.7237 0.0
C813 C 0.20912 0.7501 0.72763 0.0
C814 C 0.20307 0.73213 0.72078 0.0
C815 C 0.21439 0.71588 0.72388 0.0
C816 C 0.23172 0.71742 0.73385 0.0
C817 C 0.23773 0.7352 0.74086 0.0
C818 C 0.22648 0.75147 0.73782 0.0
C819 C 0.16574 0.83883 0.7663 0.0
C820 C 0.18012 0.83947 0.78031 0.0
C821 C 0.16485 0.82331 0.75358 0.0
C822 C 0.17947 0.80934 0.75365 0.0
C823 C 0.19206 0.80883 0.76942 0.0
C824 C 0.19192 0.82345 0.78296 0.0
C825 C 0.18348 0.79709 0.73648 0.0
C826 C 0.19133 0.77867 0.73919 0.0
C827 C 0.18178 0.80415 0.71741 0.0
C828 C 0.1774 0.82438 0.71287 0.0
C829 C 0.19 0.83899 0.71866 0.0
C830 C 0.18638 0.85799 0.71354 0.0
C831 C 0.17019 0.86254 0.70263 0.0
C832 C 0.15763 0.84805 0.69675 0.0
C833 C 0.16126 0.829 0.70172 0.0
H834 H 0.16744 0.87726 0.69865 0.0
H835 H 0.2405 0.70484 0.73616 0.0
H836 H 0.41511 0.96711 0.99777 0.0
H837 H 0.43677 0.9665 0.97013 0.0
H838 H 0.38799 0.96404 0.93202 0.0
H839 H 0.36665 0.96325 0.95943 0.0
H840 H 0.41514 0.94775 0.91508 0.0
H841 H 0.41512 0.01676 0.94318 0.0
H842 H 0.42178 0.04036 0.96871 0.0
H843 H 0.47373 0.01071 0.98322 0.0
H844 H 0.46784 0.98761 0.95698 0.0
H845 H 0.45898 0.99251 0.83303 0.0
H846 H 0.43635 0.98742 0.85984 0.0
H847 H 0.48383 0.98786 0.89969 0.0
H848 H 0.50568 0.99396 0.87378 0.0
H849 H 0.4567 0.00535 0.91509 0.0
H850 H 0.46253 0.94505 0.88057 0.0
H851 H 0.45939 0.9246 0.85184 0.0
H852 H 0.39901 0.93626 0.84962 0.0
H853 H 0.40185 0.95693 0.87823 0.0
C854 C 0.40914 0.96536 0.98352 0.0
C855 C 0.38923 0.96534 0.98069 0.0
C856 C 0.42149 0.96564 0.96767 0.0
C857 C 0.414 0.9663 0.9489 0.0
C858 C 0.39421 0.96387 0.94626 0.0
C859 C 0.38198 0.96325 0.96199 0.0
C860 C 0.42611 0.97121 0.93205 0.0
C861 C 0.42422 0.96037 0.91512 0.0
C862 C 0.43813 0.98755 0.93187 0.0
C863 C 0.44076 1.00023 0.9486 0.0
C864 C 0.42779 0.01516 0.95204 0.0
C865 C 0.43151 0.02852 0.96652 0.0
C866 C 0.44796 0.0268 0.97789 0.0
C867 C 0.4609 0.01191 0.97455 0.0
C868 C 0.45747 0.9988 0.95977 0.0
C869 C 0.46432 0.99201 0.8476 0.0
C870 C 0.48403 0.99336 0.85133 0.0
C871 C 0.45151 0.98884 0.86286 0.0
C872 C 0.45845 0.98687 0.88179 0.0
C873 C 0.47803 0.98924 0.88533 0.0
C874 C 0.49056 0.99262 0.8704 0.0
C875 C 0.44599 0.98175 0.89825 0.0
C876 C 0.44768 0.99267 0.91505 0.0
C877 C 0.43418 0.96529 0.89833 0.0
C878 C 0.43243 0.95263 0.88139 0.0
C879 C 0.4486 0.94329 0.87389 0.0
C880 C 0.44688 0.93167 0.85764 0.0
C881 C 0.42902 0.92917 0.84888 0.0
C882 C 0.41284 0.93823 0.8564 0.0
C883 C 0.41449 0.94988 0.87264 0.0
H884 H 0.42772 0.92019 0.83629 0.0
H885 H 0.45084 0.0371 0.98913 0.0
H886 H 0.35345 0.14016 0.24536 0.0
H887 H 0.34502 0.16479 0.22167 0.0
H888 H 0.30893 0.19255 0.26333 0.0
H889 H 0.31804 0.16852 0.28731 0.0
H890 H 0.29851 0.1738 0.21601 0.0
H891 H 0.32645 0.22254 0.2599 0.0
H892 H 0.35255 0.23509 0.28024 0.0
H893 H 0.39155 0.23127 0.23286 0.0
H894 H 0.3657 0.21827 0.21238 0.0
H895 H 0.26464 0.25069 0.15661 0.0
H896 H 0.27254 0.22886 0.18295 0.0
H897 H 0.33243 0.23236 0.16796 0.0
H898 H 0.32463 0.25494 0.14241 0.0
H899 H 0.32972 0.23651 0.20414 0.0
H900 H 0.30243 0.19106 0.15936 0.0
H901 H 0.27724 0.17853 0.13786 0.0
H902 H 0.23807 0.17547 0.18514 0.0
H903 H 0.26299 0.18819 0.20688 0.0
C904 C 0.34426 0.15192 0.2496 0.0
C905 C 0.33673 0.1527 0.26822 0.0
C906 C 0.33938 0.16589 0.23608 0.0
C907 C 0.32663 0.18065 0.24088 0.0
C908 C 0.31921 0.18158 0.25953 0.0
C909 C 0.32445 0.16788 0.2732 0.0
C910 C 0.31979 0.1939 0.22579 0.0
C911 C 0.30509 0.18767 0.21353 0.0
C912 C 0.32867 0.21172 0.22239 0.0
C913 C 0.34429 0.21901 0.23478 0.0
C914 C 0.34068 0.224 0.25395 0.0
C915 C 0.3554 0.23129 0.26547 0.0
C916 C 0.37373 0.23386 0.25788 0.0
C917 C 0.37737 0.22917 0.23875 0.0
C918 C 0.3627 0.22181 0.2272 0.0
C919 C 0.2794 0.24635 0.15866 0.0
C920 C 0.29401 0.2543 0.14738 0.0
C921 C 0.28395 0.23393 0.17377 0.0
C922 C 0.30312 0.22881 0.17745 0.0
C923 C 0.31757 0.23615 0.16556 0.0
C924 C 0.31308 0.24888 0.15082 0.0
C925 C 0.30838 0.21646 0.19407 0.0
C926 C 0.32289 0.22277 0.2066 0.0
C927 C 0.29935 0.19864 0.19766 0.0
C928 C 0.2845 0.19071 0.18469 0.0
C929 C 0.28842 0.18779 0.16514 0.0
C930 C 0.2742 0.18065 0.15292 0.0
C931 C 0.25606 0.17625 0.16012 0.0
C932 C 0.25212 0.17891 0.17958 0.0
C933 C 0.26629 0.18605 0.19186 0.0
H934 H 0.24506 0.17074 0.15064 0.0
H935 H 0.3851 0.23958 0.2668 0.0
H936 H 0.84073 0.40349 0.77226 0.0
H937 H 0.84446 0.37572 0.79275 0.0
H938 H 0.84637 0.33912 0.74285 0.0
H939 H 0.84192 0.36716 0.72227 0.0
H940 H 0.81801 0.32892 0.76403 0.0
H941 H 0.88365 0.3405 0.7782 0.0
H942 H 0.91239 0.35918 0.78688 0.0
H943 H 0.88717 0.37372 0.84107 0.0
H944 H 0.85818 0.35533 0.83262 0.0
H945 H 0.82164 0.24676 0.82417 0.0
H946 H 0.8317 0.27231 0.80269 0.0
H947 H 0.81178 0.31453 0.84314 0.0
H948 H 0.80128 0.28881 0.86486 0.0
H949 H 0.85192 0.31933 0.82589 0.0
H950 H 0.7846 0.31291 0.80829 0.0
H951 H 0.75647 0.29273 0.80097 0.0
H952 H 0.78672 0.26675 0.75419 0.0
H953 H 0.81497 0.28707 0.76103 0.0
C954 C 0.8432 0.38967 0.76562 0.0
C955 C 0.84103 0.38745 0.74573 0.0
C956 C 0.84521 0.37368 0.77738 0.0
C957 C 0.84549 0.35519 0.76941 0.0
C958 C 0.84604 0.35322 0.74934 0.0
C959 C 0.84389 0.3693 0.73754 0.0
C960 C 0.84158 0.33837 0.7819 0.0
C961 C 0.82581 0.32662 0.7773 0.0
C962 C 0.85127 0.33555 0.79956 0.0
C963 C 0.8687 0.3466 0.80473 0.0
C964 C 0.88418 0.34778 0.79192 0.0
C965 C 0.90053 0.3583 0.79681 0.0
C966 C 0.9016 0.36765 0.81451 0.0
C967 C 0.88633 0.36646 0.82737 0.0
C968 C 0.86995 0.35596 0.82255 0.0
C969 C 0.81941 0.26146 0.8286 0.0
C970 C 0.81072 0.26579 0.84626 0.0
C971 C 0.82517 0.27602 0.81627 0.0
C972 C 0.82255 0.29522 0.82142 0.0
C973 C 0.81398 0.29972 0.83905 0.0
C974 C 0.80791 0.28508 0.85135 0.0
C975 C 0.82845 0.31043 0.80797 0.0
C976 C 0.84445 0.32169 0.81244 0.0
C977 C 0.81912 0.31279 0.79018 0.0
C978 C 0.80186 0.30144 0.7852 0.0
C979 C 0.78519 0.30297 0.79636 0.0
C980 C 0.76924 0.29156 0.79228 0.0
C981 C 0.76981 0.27851 0.77709 0.0
C982 C 0.78628 0.27698 0.76585 0.0
C983 C 0.80223 0.28852 0.76975 0.0
H984 H 0.75752 0.26955 0.77412 0.0
H985 H 0.91427 0.37579 0.81826 0.0
H986 H 0.98168 0.52502 0.13257 0.0
H987 H 0.9611 0.53265 0.10535 0.0
H988 H 0.91232 0.53609 0.14311 0.0
H989 H 0.93305 0.5276 0.17053 0.0
H990 H 0.90204 0.51999 0.11023 0.0
H991 H 0.93505 0.57751 0.12651 0.0
H992 H 0.96279 0.59794 0.13439 0.0
H993 H 0.98784 0.58546 0.07966 0.0
H994 H 0.96014 0.56505 0.07135 0.0
H995 H 0.84562 0.57199 0.04442 0.0
H996 H 0.86778 0.56976 0.07148 0.0
H997 H 0.91005 0.5438 0.03481 0.0
H998 H 0.88775 0.54578 0.00759 0.0
H999 H 0.92267 0.57318 0.06775 0.0
H1000 H 0.89276 0.50689 0.05926 0.0
H1001 H 0.86451 0.48622 0.05365 0.0
H1002 H 0.83222 0.51885 0.09451 0.0
H1003 H 0.86056 0.53914 0.101 0.0
C1004 C 0.96651 0.52725 0.13504 0.0
C1005 C 0.95892 0.52592 0.15362 0.0
C1006 C 0.95478 0.53175 0.11949 0.0
C1007 C 0.93524 0.53555 0.12219 0.0
C1008 C 0.9274 0.53341 0.14068 0.0
C1009 C 0.93918 0.52853 0.15631 0.0
C1010 C 0.92327 0.54195 0.10565 0.0
C1011 C 0.90649 0.5318 0.10117 0.0
C1012 C 0.92901 0.55727 0.09356 0.0
C1013 C 0.94561 0.56964 0.09838 0.0
C1014 C 0.94653 0.57904 0.1162 0.0
C1015 C 0.96225 0.59061 0.12075 0.0
C1016 C 0.97716 0.59285 0.10763 0.0
C1017 C 0.9763 0.58366 0.08984 0.0
C1018 C 0.96056 0.57216 0.08516 0.0
C1019 C 0.85999 0.56671 0.04186 0.0
C1020 C 0.86496 0.55918 0.02381 0.0
C1021 C 0.87254 0.5652 0.05742 0.0
C1022 C 0.89038 0.55631 0.05519 0.0
C1023 C 0.89628 0.55067 0.03679 0.0
C1024 C 0.88364 0.55212 0.02116 0.0
C1025 C 0.90176 0.55107 0.0724 0.0
C1026 C 0.91834 0.56144 0.07694 0.0
C1027 C 0.89574 0.53621 0.08474 0.0
C1028 C 0.8786 0.52456 0.08045 0.0
C1029 C 0.87958 0.50967 0.06695 0.0
C1030 C 0.8636 0.49802 0.06364 0.0
C1031 C 0.84651 0.50141 0.07346 0.0
C1032 C 0.84543 0.5163 0.08683 0.0
C1033 C 0.86148 0.52778 0.09045 0.0
H1034 H 0.83414 0.49241 0.07082 0.0
H1035 H 0.98934 0.60178 0.11122 0.0
H1036 H 0.68603 0.7634 0.39531 0.0
H1037 H 0.66972 0.75275 0.36623 0.0
H1038 H 0.7247 0.74505 0.33889 0.0
H1039 H 0.74047 0.7591 0.36677 0.0
H1040 H 0.70302 0.75656 0.31359 0.0
H1041 H 0.69054 0.70629 0.36325 0.0
H1042 H 0.67652 0.69646 0.39421 0.0
H1043 H 0.62166 0.71802 0.37649 0.0
H1044 H 0.63537 0.72795 0.34546 0.0
H1045 H 0.69884 0.67933 0.25332 0.0
H1046 H 0.70152 0.70448 0.27678 0.0
H1047 H 0.64029 0.70293 0.28564 0.0
H1048 H 0.63787 0.67595 0.26273 0.0
H1049 H 0.65608 0.70344 0.3181 0.0
H1050 H 0.66692 0.74481 0.26517 0.0
H1051 H 0.68036 0.75426 0.2339 0.0
H1052 H 0.73731 0.75058 0.25704 0.0
H1053 H 0.72427 0.74104 0.28834 0.0
C1054 C 0.69443 0.7604 0.3827 0.0
C1055 C 0.71434 0.76308 0.38304 0.0
C1056 C 0.68519 0.75353 0.36624 0.0
C1057 C 0.69585 0.74759 0.35021 0.0
C1058 C 0.71594 0.74962 0.35085 0.0
C1059 C 0.72505 0.75747 0.36695 0.0
C1060 C 0.6865 0.73899 0.33282 0.0
C1061 C 0.69287 0.74484 0.31464 0.0
C1062 C 0.67221 0.72454 0.33382 0.0
C1063 C 0.66398 0.71795 0.35217 0.0
C1064 C 0.67549 0.70887 0.36599 0.0
C1065 C 0.6676 0.70331 0.38353 0.0
C1066 C 0.64822 0.70665 0.38733 0.0
C1067 C 0.63665 0.71544 0.37354 0.0
C1068 C 0.64446 0.72099 0.35597 0.0
C1069 C 0.68581 0.68461 0.25991 0.0
C1070 C 0.66815 0.67568 0.25624 0.0
C1071 C 0.68732 0.69931 0.27323 0.0
C1072 C 0.67108 0.7062 0.2828 0.0
C1073 C 0.65306 0.69803 0.27835 0.0
C1074 C 0.6516 0.68278 0.26515 0.0
C1075 C 0.67379 0.71999 0.29902 0.0
C1076 C 0.66601 0.71535 0.31696 0.0
C1077 C 0.68671 0.73565 0.29778 0.0
C1078 C 0.69457 0.74224 0.27914 0.0
C1079 C 0.68231 0.74606 0.26359 0.0
C1080 C 0.68987 0.75143 0.24584 0.0
C1081 C 0.70968 0.75303 0.24346 0.0
C1082 C 0.72197 0.74941 0.25887 0.0
C1083 C 0.71449 0.74412 0.27665 0.0
H1084 H 0.71548 0.75705 0.22967 0.0
H1085 H 0.64217 0.7024 0.40094 0.0
H1086 H 0.73562 0.65188 0.18041 0.0
H1087 H 0.7574 0.67842 0.17332 0.0
H1088 H 0.76339 0.68994 0.23383 0.0
H1089 H 0.7418 0.66304 0.24095 0.0
H1090 H 0.75113 0.72207 0.21024 0.0
H1091 H 0.80086 0.67453 0.2134 0.0
H1092 H 0.81452 0.64292 0.20551 0.0
H1093 H 0.81374 0.65715 0.14564 0.0
H1094 H 0.79987 0.68878 0.15318 0.0
H1095 H 0.82157 0.79378 0.20445 0.0
H1096 H 0.79743 0.76988 0.20868 0.0
H1097 H 0.81275 0.74436 0.15425 0.0
H1098 H 0.84002 0.76633 0.15236 0.0
H1099 H 0.8129 0.71851 0.17554 0.0
H1100 H 0.76171 0.76655 0.17205 0.0
H1101 H 0.74711 0.79766 0.18046 0.0
H1102 H 0.74941 0.78303 0.24018 0.0
H1103 H 0.76387 0.7518 0.2321 0.0
C1104 C 0.74235 0.65952 0.19217 0.0
C1105 C 0.73759 0.65522 0.21119 0.0
C1106 C 0.75452 0.6748 0.18814 0.0
C1107 C 0.76182 0.68613 0.20307 0.0
C1108 C 0.75783 0.6813 0.22216 0.0
C1109 C 0.74587 0.66577 0.22622 0.0
C1110 C 0.77276 0.7036 0.19847 0.0
C1111 C 0.76472 0.72147 0.20273 0.0
C1112 C 0.79014 0.70261 0.18833 0.0
C1113 C 0.79927 0.68397 0.18384 0.0
C1114 C 0.80358 0.67089 0.19855 0.0
C1115 C 0.81135 0.65298 0.19414 0.0
C1116 C 0.81498 0.64802 0.17508 0.0
C1117 C 0.81094 0.66102 0.1604 0.0
C1118 C 0.80317 0.67896 0.16473 0.0
C1119 C 0.81916 0.78368 0.19285 0.0
C1120 C 0.83259 0.7819 0.17805 0.0
C1121 C 0.80503 0.76987 0.19523 0.0
C1122 C 0.80274 0.75504 0.18175 0.0
C1123 C 0.8143 0.75532 0.16516 0.0
C1124 C 0.8296 0.76821 0.16368 0.0
C1125 C 0.79111 0.73769 0.18655 0.0
C1126 C 0.79911 0.71957 0.18257 0.0
C1127 C 0.7735 0.73854 0.19677 0.0
C1128 C 0.76381 0.75685 0.20145 0.0
C1129 C 0.75897 0.76993 0.18695 0.0
C1130 C 0.75074 0.78758 0.19167 0.0
C1131 C 0.74731 0.79229 0.21084 0.0
C1132 C 0.75198 0.77932 0.22533 0.0
C1133 C 0.76006 0.7616 0.22069 0.0
H1134 H 0.74108 0.80602 0.21446 0.0
H1135 H 0.82093 0.63412 0.17169 0.0
H1136 H 0.63634 0.28033 0.66153 0.0
H1137 H 0.65924 0.30544 0.66672 0.0
H1138 H 0.70488 0.26796 0.64817 0.0
H1139 H 0.68169 0.24159 0.6455 0.0
H1140 H 0.71642 0.28239 0.67762 0.0
H1141 H 0.68853 0.3147 0.62435 0.0
H1142 H 0.66259 0.32693 0.60365 0.0
H1143 H 0.64199 0.36202 0.64981 0.0
H1144 H 0.66766 0.34986 0.67084 0.0
H1145 H 0.78074 0.3607 0.68903 0.0
H1146 H 0.7601 0.33556 0.67691 0.0
H1147 H 0.71245 0.35932 0.70817 0.0
H1148 H 0.73323 0.38517 0.72037 0.0
H1149 H 0.70453 0.35196 0.66983 0.0
H1150 H 0.73502 0.31761 0.72244 0.0
H1151 H 0.76343 0.30614 0.74014 0.0
H1152 H 0.78241 0.27555 0.69025 0.0
H1153 H 0.7543 0.28706 0.67217 0.0
C1154 C 0.65115 0.27757 0.65779 0.0
C1155 C 0.65721 0.25893 0.65324 0.0
C1156 C 0.6644 0.29216 0.66064 0.0
C1157 C 0.68403 0.28898 0.65766 0.0
C1158 C 0.68987 0.27088 0.65074 0.0
C1159 C 0.67656 0.25587 0.64873 0.0
C1160 C 0.69825 0.30364 0.66432 0.0
C1161 C 0.71397 0.29757 0.67544 0.0
C1162 C 0.69515 0.32361 0.66196 0.0
C1163 C 0.68 0.33132 0.64917 0.0
C1164 C 0.67845 0.325 0.63008 0.0
C1165 C 0.66378 0.33191 0.6183 0.0
C1166 C 0.65064 0.34523 0.62542 0.0
C1167 C 0.65219 0.35173 0.64431 0.0
C1168 C 0.66683 0.34487 0.65614 0.0
C1169 C 0.76589 0.36068 0.69352 0.0
C1170 C 0.7586 0.37513 0.70562 0.0
C1171 C 0.75414 0.3461 0.68663 0.0
C1172 C 0.73481 0.34541 0.69178 0.0
C1173 C 0.72742 0.35958 0.70411 0.0
C1174 C 0.73926 0.3743 0.71108 0.0
C1175 C 0.72218 0.3306 0.68319 0.0
C1176 C 0.7069 0.33672 0.67172 0.0
C1177 C 0.72608 0.31075 0.68473 0.0
C1178 C 0.74263 0.30335 0.6959 0.0
C1179 C 0.7453 0.30851 0.71522 0.0
C1180 C 0.76135 0.302 0.72532 0.0
C1181 C 0.77475 0.2902 0.71629 0.0
C1182 C 0.77203 0.28472 0.69721 0.0
C1183 C 0.75604 0.29122 0.68704 0.0
H1184 H 0.78728 0.28533 0.72402 0.0
H1185 H 0.63927 0.35053 0.61628 0.0
H1186 H 0.43835 0.62726 0.53717 0.0
H1187 H 0.43251 0.5988 0.55664 0.0
H1188 H 0.48892 0.57767 0.54288 0.0
H1189 H 0.49485 0.6064 0.52342 0.0
H1190 H 0.45872 0.55188 0.53414 0.0
H1191 H 0.48067 0.58952 0.58751 0.0
H1192 H 0.48159 0.61867 0.6075 0.0
H1193 H 0.4218 0.61206 0.62028 0.0
H1194 H 0.42047 0.58298 0.60017 0.0
H1195 H 0.4587 0.47232 0.59654 0.0
H1196 H 0.4602 0.49795 0.57356 0.0
H1197 H 0.41361 0.52668 0.60249 0.0
H1198 H 0.41443 0.50212 0.62741 0.0
H1199 H 0.43941 0.54924 0.60238 0.0
H1200 H 0.41724 0.51045 0.54914 0.0
H1201 H 0.41644 0.48207 0.52802 0.0
H1202 H 0.47563 0.4907 0.51375 0.0
H1203 H 0.47685 0.51898 0.53491 0.0
C1204 C 0.44981 0.61695 0.53907 0.0
C1205 C 0.46717 0.61909 0.52921 0.0
C1206 C 0.4464 0.60063 0.54998 0.0
C1207 C 0.46025 0.58612 0.55106 0.0
C1208 C 0.47808 0.58874 0.54216 0.0
C1209 C 0.48159 0.60526 0.53139 0.0
C1210 C 0.45536 0.56776 0.56036 0.0
C1211 C 0.45466 0.5511 0.54913 0.0
C1212 C 0.44955 0.56703 0.57967 0.0
C1213 C 0.45045 0.58416 0.59224 0.0
C1214 C 0.4677 0.59434 0.59452 0.0
C1215 C 0.46829 0.61085 0.60586 0.0
C1216 C 0.45174 0.61727 0.61506 0.0
C1217 C 0.43459 0.6071 0.61309 0.0
C1218 C 0.43392 0.59057 0.60176 0.0
C1219 C 0.44799 0.48354 0.59736 0.0
C1220 C 0.43649 0.48532 0.61374 0.0
C1221 C 0.44885 0.49839 0.58407 0.0
C1222 C 0.43714 0.51463 0.58615 0.0
C1223 C 0.42315 0.51458 0.60071 0.0
C1224 C 0.4232 0.50029 0.61475 0.0
C1225 C 0.44208 0.53287 0.57613 0.0
C1226 C 0.44304 0.54969 0.58729 0.0
C1227 C 0.44799 0.53367 0.55666 0.0
C1228 C 0.44713 0.51681 0.54368 0.0
C1229 C 0.4301 0.50625 0.54155 0.0
C1230 C 0.42957 0.49018 0.52956 0.0
C1231 C 0.44598 0.48458 0.51956 0.0
C1232 C 0.46293 0.49506 0.52148 0.0
C1233 C 0.46353 0.51114 0.53343 0.0
H1234 H 0.44554 0.47211 0.51032 0.0
H1235 H 0.45222 0.63007 0.62382 0.0
H1236 H 0.74196 0.17895 0.86206 0.0
H1237 H 0.72087 0.17502 0.83449 0.0
H1238 H 0.76963 0.17826 0.7967 0.0
H1239 H 0.79082 0.18213 0.82449 0.0
H1240 H 0.74553 0.20701 0.79064 0.0
H1241 H 0.73962 0.14007 0.79385 0.0
H1242 H 0.73511 0.10785 0.8075 0.0
H1243 H 0.67842 0.12315 0.8257 0.0
H1244 H 0.68267 0.15558 0.8124 0.0
H1245 H 0.68509 0.2079 0.70961 0.0
H1246 H 0.70841 0.19993 0.73407 0.0
H1247 H 0.66396 0.20019 0.77695 0.0
H1248 H 0.64004 0.20797 0.75211 0.0
H1249 H 0.68748 0.16789 0.77805 0.0
H1250 H 0.69624 0.2368 0.77484 0.0
H1251 H 0.70166 0.26719 0.75768 0.0
H1252 H 0.75497 0.24576 0.73587 0.0
H1253 H 0.74981 0.21516 0.75279 0.0
C1254 C 0.74827 0.17762 0.84794 0.0
C1255 C 0.76793 0.18078 0.84531 0.0
C1256 C 0.7362 0.17547 0.83215 0.0
C1257 C 0.74367 0.17657 0.81353 0.0
C1258 C 0.76361 0.17741 0.81098 0.0
C1259 C 0.77574 0.17935 0.82685 0.0
C1260 C 0.73052 0.18084 0.79742 0.0
C1261 C 0.73306 0.19821 0.7876 0.0
C1262 C 0.71404 0.16963 0.79376 0.0
C1263 C 0.71154 0.15033 0.80228 0.0
C1264 C 0.72627 0.13665 0.80097 0.0
C1265 C 0.72374 0.11833 0.80859 0.0
C1266 C 0.70651 0.11347 0.8175 0.0
C1267 C 0.69177 0.12694 0.81881 0.0
C1268 C 0.69422 0.14529 0.81121 0.0
C1269 C 0.68016 0.20633 0.72424 0.0
C1270 C 0.66068 0.20845 0.72897 0.0
C1271 C 0.6936 0.20192 0.73822 0.0
C1272 C 0.68794 0.1997 0.75729 0.0
C1273 C 0.66855 0.20198 0.76224 0.0
C1274 C 0.65496 0.20649 0.74814 0.0
C1275 C 0.70235 0.19413 0.77173 0.0
C1276 C 0.70002 0.17657 0.78115 0.0
C1277 C 0.71921 0.205 0.77475 0.0
C1278 C 0.72255 0.22361 0.76497 0.0
C1279 C 0.70908 0.23852 0.76632 0.0
C1280 C 0.71211 0.25579 0.75664 0.0
C1281 C 0.72859 0.25835 0.7456 0.0
C1282 C 0.74216 0.24371 0.74435 0.0
C1283 C 0.73923 0.22643 0.75405 0.0
H1284 H 0.73089 0.27171 0.7381 0.0
H1285 H 0.70456 0.09925 0.82335 0.0
H1286 H 0.05874 0.50281 0.14828 0.0
H1287 H 0.05618 0.47497 0.12662 0.0
H1288 H 0.99651 0.46894 0.14149 0.0
H1289 H 0.99907 0.49627 0.16234 0.0
H1290 H 0.01236 0.4357 0.14311 0.0
H1291 H 0.0086 0.48639 0.09956 0.0
H1292 H 0.01651 0.51601 0.08214 0.0
H1293 H 0.06788 0.48999 0.06062 0.0
H1294 H 0.06047 0.46028 0.07824 0.0
H1295 H 0.98726 0.37507 0.06128 0.0
H1296 H 0.98889 0.39925 0.08684 0.0
H1297 H 0.05046 0.40084 0.08161 0.0
H1298 H 0.04891 0.37686 0.05623 0.0
H1299 H 0.03188 0.43628 0.07483 0.0
H1300 H 0.02981 0.38344 0.12181 0.0
H1301 H 0.0139 0.35511 0.1357 0.0
H1302 H 0.96328 0.38838 0.14635 0.0
H1303 H 0.97884 0.41684 0.13236 0.0
C1304 C 0.0452 0.49533 0.147 0.0
C1305 C 0.02928 0.50118 0.1578 0.0
C1306 C 0.0437 0.47957 0.13458 0.0
C1307 C 0.02618 0.46974 0.13268 0.0
C1308 C 0.01028 0.47598 0.14307 0.0
C1309 C 0.01182 0.49155 0.15532 0.0
C1310 C 0.02419 0.45274 0.12019 0.0
C1311 C 0.0166 0.43589 0.12815 0.0
C1312 C 0.02919 0.45312 0.10057 0.0
C1313 C 0.03415 0.47119 0.09053 0.0
C1314 C 0.02176 0.48707 0.09139 0.0
C1315 C 0.02611 0.50386 0.08141 0.0
C1316 C 0.04273 0.50491 0.07035 0.0
C1317 C 0.05504 0.48917 0.06926 0.0
C1318 C 0.05079 0.47236 0.07926 0.0
C1319 C 0.00115 0.37998 0.06622 0.0
C1320 C 0.01795 0.37428 0.05679 0.0
C1321 C 0.00207 0.39389 0.08067 0.0
C1322 C 0.01979 0.40199 0.08579 0.0
C1323 C 0.03666 0.3949 0.07764 0.0
C1324 C 0.03576 0.3811 0.06329 0.0
C1325 C 0.02084 0.4192 0.09802 0.0
C1326 C 0.02798 0.43614 0.08989 0.0
C1327 C 0.01452 0.41922 0.11718 0.0
C1328 C 0.00545 0.4022 0.12598 0.0
C1329 C 0.01527 0.38467 0.12707 0.0
C1330 C 0.00631 0.3686 0.13496 0.0
C1331 C 0.98758 0.36994 0.14188 0.0
C1332 C 0.97779 0.38736 0.14099 0.0
C1333 C 0.98668 0.40347 0.13312 0.0
H1334 H 0.98067 0.35747 0.14795 0.0
H1335 H 0.04604 0.5179 0.06257 0.0
H1336 H 0.71578 0.81402 0.35947 0.0
H1337 H 0.73892 0.80968 0.33357 0.0
H1338 H 0.78408 0.83047 0.37051 0.0
H1339 H 0.76101 0.8344 0.39664 0.0
H1340 H 0.76248 0.8327 0.3141 0.0
H1341 H 0.82282 0.80767 0.36363 0.0
H1342 H 0.82742 0.79041 0.39413 0.0
H1343 H 0.77516 0.75927 0.38455 0.0
H1344 H 0.77025 0.77646 0.35401 0.0
H1345 H 0.84849 0.83274 0.26197 0.0
H1346 H 0.82499 0.837 0.28742 0.0
H1347 H 0.81902 0.77566 0.29226 0.0
H1348 H 0.84293 0.77127 0.26697 0.0
H1349 H 0.81941 0.79192 0.32659 0.0
H1350 H 0.78527 0.80221 0.26767 0.0
H1351 H 0.77965 0.81671 0.23592 0.0
H1352 H 0.77698 0.87256 0.2617 0.0
H1353 H 0.78274 0.85839 0.29358 0.0
C1354 C 0.7306 0.81794 0.36197 0.0
C1355 C 0.73669 0.82454 0.38005 0.0
C1356 C 0.74379 0.81541 0.34717 0.0
C1357 C 0.76325 0.81951 0.35019 0.0
C1358 C 0.76919 0.82685 0.368 0.0
C1359 C 0.75604 0.82917 0.38287 0.0
C1360 C 0.77742 0.8155 0.33495 0.0
C1361 C 0.77493 0.8238 0.31681 0.0
C1362 C 0.79344 0.80358 0.33833 0.0
C1363 C 0.79614 0.79337 0.35668 0.0
C1364 C 0.81233 0.79713 0.36807 0.0
C1365 C 0.81495 0.78742 0.38538 0.0
C1366 C 0.80152 0.77383 0.39134 0.0
C1367 C 0.78545 0.76992 0.38 0.0
C1368 C 0.78271 0.77967 0.36273 0.0
C1369 C 0.84236 0.82014 0.26862 0.0
C1370 C 0.84749 0.80166 0.26247 0.0
C1371 C 0.82882 0.82261 0.28304 0.0
C1372 C 0.81994 0.80666 0.29139 0.0
C1373 C 0.82564 0.78816 0.28589 0.0
C1374 C 0.83936 0.78566 0.27154 0.0
C1375 C 0.80468 0.80936 0.30581 0.0
C1376 C 0.80696 0.80081 0.32382 0.0
C1377 C 0.78828 0.82073 0.30211 0.0
C1378 C 0.78457 0.82925 0.28298 0.0
C1379 C 0.78358 0.81759 0.26655 0.0
C1380 C 0.78035 0.82575 0.24853 0.0
C1381 C 0.778 0.84555 0.24679 0.0
C1382 C 0.7788 0.85722 0.26307 0.0
C1383 C 0.78201 0.84913 0.28112 0.0
H1384 H 0.77553 0.85185 0.23283 0.0
H1385 H 0.80357 0.76631 0.40475 0.0
H1386 H 0.52181 0.43155 0.62105 0.0
H1387 H 0.54133 0.42642 0.59267 0.0
H1388 H 0.54517 0.48751 0.58412 0.0
H1389 H 0.5251 0.49274 0.61265 0.0
H1390 H 0.53346 0.46733 0.55143 0.0
H1391 H 0.58438 0.46246 0.5985 0.0
H1392 H 0.59864 0.4498 0.62829 0.0
H1393 H 0.59454 0.39251 0.60613 0.0
H1394 H 0.58006 0.40482 0.57631 0.0
H1395 H 0.60162 0.46664 0.47775 0.0
H1396 H 0.57795 0.46876 0.50239 0.0
H1397 H 0.5933 0.41196 0.52194 0.0
H1398 H 0.62009 0.41193 0.49931 0.0
H1399 H 0.59368 0.42987 0.54984 0.0
H1400 H 0.54274 0.43296 0.50261 0.0
H1401 H 0.52632 0.44431 0.47338 0.0
H1402 H 0.52726 0.50195 0.49495 0.0
H1403 H 0.54377 0.491 0.52422 0.0
C1404 C 0.52726 0.44393 0.61345 0.0
C1405 C 0.52211 0.46256 0.61911 0.0
C1406 C 0.53836 0.44097 0.59719 0.0
C1407 C 0.54472 0.45657 0.58631 0.0
C1408 C 0.54038 0.47529 0.59238 0.0
C1409 C 0.52921 0.47829 0.6088 0.0
C1410 C 0.55502 0.45302 0.56811 0.0
C1411 C 0.54676 0.4593 0.55092 0.0
C1412 C 0.57185 0.44186 0.56753 0.0
C1413 C 0.58108 0.43455 0.58523 0.0
C1414 C 0.58648 0.44716 0.60002 0.0
C1415 C 0.5946 0.44005 0.6169 0.0
C1416 C 0.59747 0.42036 0.61911 0.0
C1417 C 0.59231 0.40775 0.6044 0.0
C1418 C 0.58419 0.41479 0.58749 0.0
C1419 C 0.59936 0.45419 0.48674 0.0
C1420 C 0.61265 0.43913 0.48664 0.0
C1421 C 0.58549 0.45533 0.50096 0.0
C1422 C 0.58333 0.4405 0.51438 0.0
C1423 C 0.59477 0.42391 0.51218 0.0
C1424 C 0.60982 0.42354 0.49889 0.0
C1425 C 0.57207 0.44375 0.53239 0.0
C1426 C 0.5802 0.43756 0.54982 0.0
C1427 C 0.55481 0.45463 0.53306 0.0
C1428 C 0.54453 0.46113 0.51559 0.0
C1429 C 0.53946 0.44805 0.5011 0.0
C1430 C 0.53013 0.45443 0.48453 0.0
C1431 C 0.52576 0.47384 0.48231 0.0
C1432 C 0.53062 0.48692 0.4967 0.0
C1433 C 0.5399 0.48062 0.5133 0.0
H1434 H 0.51859 0.47874 0.46945 0.0
H1435 H 0.60372 0.41488 0.63221 0.0
H1436 H 0.00231 0.42012 0.98498 0.0
H1437 H 0.97504 0.44226 0.98579 0.0
H1438 H 0.93961 0.39961 0.95832 0.0
H1439 H 0.96675 0.37765 0.95741 0.0
H1440 H 0.92862 0.43698 0.94899 0.0
H1441 H 0.94688 0.40032 0.0075 0.0
H1442 H 0.96984 0.39316 0.03349 0.0
H1443 H 0.9705 0.45249 0.04986 0.0
H1444 H 0.9478 0.46003 0.02377 0.0
H1445 H 0.83622 0.45884 0.97851 0.0
H1446 H 0.86549 0.43993 0.97403 0.0
H1447 H 0.8946 0.47559 0.01557 0.0
H1448 H 0.86521 0.49345 0.02068 0.0
H1449 H 0.91066 0.4446 0.01736 0.0
H1450 H 0.89481 0.48415 0.96492 0.0
H1451 H 0.87539 0.49784 0.93873 0.0
H1452 H 0.87414 0.44316 0.91048 0.0
H1453 H 0.89334 0.42906 0.93667 0.0
C1454 C 0.98903 0.41595 0.97806 0.0
C1455 C 0.98662 0.39722 0.97107 0.0
C1456 C 0.97336 0.42849 0.97882 0.0
C1457 C 0.95516 0.42236 0.9726 0.0
C1458 C 0.95346 0.4046 0.96333 0.0
C1459 C 0.96903 0.3921 0.96265 0.0
C1460 C 0.93745 0.43271 0.97822 0.0
C1461 C 0.92461 0.43861 0.96392 0.0
C1462 C 0.93253 0.43552 0.99772 0.0
C1463 C 0.94581 0.43075 0.0136 0.0
C1464 C 0.95199 0.41183 0.01661 0.0
C1465 C 0.96496 0.40771 0.03135 0.0
C1466 C 0.97165 0.42238 0.04329 0.0
C1467 C 0.96533 0.44116 0.04058 0.0
C1468 C 0.95243 0.44536 0.02583 0.0
C1469 C 0.84856 0.46172 0.98752 0.0
C1470 C 0.84829 0.47705 1.00053 0.0
C1471 C 0.86546 0.4513 0.98461 0.0
C1472 C 0.88254 0.4567 0.99399 0.0
C1473 C 0.88174 0.47101 0.00813 0.0
C1474 C 0.86477 0.481 0.0114 0.0
C1475 C 0.90147 0.4487 0.98811 0.0
C1476 C 0.91455 0.44317 0.00238 0.0
C1477 C 0.907 0.44718 0.96859 0.0
C1478 C 0.89536 0.45551 0.95284 0.0
C1479 C 0.89028 0.47501 0.95319 0.0
C1480 C 0.87934 0.48285 0.93834 0.0
C1481 C 0.87356 0.47138 0.92295 0.0
C1482 C 0.87866 0.45203 0.92241 0.0
C1483 C 0.88957 0.4441 0.93725 0.0
H1484 H 0.86516 0.4775 0.91144 0.0
H1485 H 0.98172 0.41921 0.05465 0.0
H1486 H 0.6296 0.54269 0.47992 0.0
H1487 H 0.60197 0.56381 0.47313 0.0
H1488 H 0.57037 0.51544 0.45094 0.0
H1489 H 0.59735 0.49478 0.45731 0.0
H1490 H 0.56879 0.54347 0.42613 0.0
H1491 H 0.55775 0.53418 0.49245 0.0
H1492 H 0.565 0.53357 0.52704 0.0
H1493 H 0.57483 0.59431 0.52649 0.0
H1494 H 0.56787 0.59524 0.49178 0.0
H1495 H 0.47273 0.59076 0.44764 0.0
H1496 H 0.49876 0.56729 0.44617 0.0
H1497 H 0.5379 0.61168 0.42873 0.0
H1498 H 0.51199 0.6351 0.42997 0.0
H1499 H 0.53527 0.58561 0.47244 0.0
H1500 H 0.54759 0.58965 0.40104 0.0
H1501 H 0.53531 0.58566 0.36805 0.0
H1502 H 0.51668 0.52859 0.38149 0.0
H1503 H 0.52874 0.53237 0.4146 0.0
C1504 C 0.61664 0.53666 0.47385 0.0
C1505 C 0.61577 0.51719 0.46887 0.0
C1506 C 0.60091 0.54866 0.46993 0.0
C1507 C 0.58424 0.54118 0.46121 0.0
C1508 C 0.58316 0.5216 0.45728 0.0
C1509 C 0.59867 0.5098 0.46104 0.0
C1510 C 0.56796 0.55353 0.45544 0.0
C1511 C 0.56156 0.55273 0.4363 0.0
C1512 C 0.55814 0.56522 0.46871 0.0
C1513 C 0.56258 0.56474 0.48948 0.0
C1514 C 0.56168 0.54738 0.49966 0.0
C1515 C 0.56568 0.54698 0.51929 0.0
C1516 C 0.57045 0.56388 0.52894 0.0
C1517 C 0.57119 0.58122 0.51898 0.0
C1518 C 0.56721 0.5817 0.49933 0.0
C1519 C 0.48654 0.59525 0.44218 0.0
C1520 C 0.49041 0.61475 0.43902 0.0
C1521 C 0.50147 0.58188 0.44163 0.0
C1522 C 0.5202 0.58789 0.43757 0.0
C1523 C 0.52349 0.60681 0.43181 0.0
C1524 C 0.50862 0.62013 0.43232 0.0
C1525 C 0.53663 0.57586 0.44316 0.0
C1526 C 0.54284 0.57658 0.4623 0.0
C1527 C 0.54588 0.56362 0.4301 0.0
C1528 C 0.53889 0.56135 0.41024 0.0
C1529 C 0.54075 0.57632 0.39696 0.0
C1530 C 0.53388 0.57408 0.37825 0.0
C1531 C 0.52518 0.5569 0.37269 0.0
C1532 C 0.5234 0.54189 0.38581 0.0
C1533 C 0.53028 0.54407 0.40453 0.0
H1534 H 0.51985 0.55519 0.3582 0.0
H1535 H 0.57352 0.56355 0.54415 0.0
H1536 H 0.0145 0.07736 0.33132 0.0
H1537 H 0.02827 0.10793 0.32107 0.0
H1538 H 0.01027 0.13413 0.37402 0.0
H1539 H 0.99701 0.10332 0.38473 0.0
H1540 H 0.00336 0.15524 0.33458 0.0
H1541 H 0.05032 0.12674 0.3764 0.0
H1542 H 0.07039 0.1001 0.38798 0.0
H1543 H 0.09853 0.09724 0.33338 0.0
H1544 H 0.07826 0.12358 0.32131 0.0
H1545 H 0.05978 0.24043 0.32583 0.0
H1546 H 0.04234 0.21219 0.33705 0.0
H1547 H 0.07581 0.17638 0.29944 0.0
H1548 H 0.09362 0.20446 0.28857 0.0
H1549 H 0.07426 0.16039 0.3331 0.0
H1550 H 0.02747 0.18777 0.29072 0.0
H1551 H 0.00649 0.21308 0.27779 0.0
H1552 H 0.9777 0.21728 0.33197 0.0
H1553 H 0.9987 0.19217 0.3453 0.0
C1554 C 0.01318 0.08969 0.34067 0.0
C1555 C 0.0046 0.08797 0.35881 0.0
C1556 C 0.02114 0.1071 0.33483 0.0
C1557 C 0.02032 0.12321 0.34682 0.0
C1558 C 0.01101 0.12182 0.36458 0.0
C1559 C 0.00346 0.10425 0.37066 0.0
C1560 C 0.02998 0.1412 0.34105 0.0
C1561 C 0.01885 0.15656 0.33453 0.0
C1562 C 0.05018 0.14263 0.34059 0.0
C1563 C 0.06258 0.12696 0.34787 0.0
C1564 C 0.06062 0.12028 0.36678 0.0
C1565 C 0.07206 0.10526 0.37345 0.0
C1566 C 0.08569 0.09694 0.3614 0.0
C1567 C 0.08793 0.10367 0.34268 0.0
C1568 C 0.07646 0.11864 0.33592 0.0
C1569 C 0.06319 0.2266 0.31968 0.0
C1570 C 0.07803 0.22476 0.30619 0.0
C1571 C 0.05321 0.21042 0.32614 0.0
C1572 C 0.05764 0.19207 0.31904 0.0
C1573 C 0.07213 0.19031 0.30521 0.0
C1574 C 0.08221 0.20644 0.29888 0.0
C1575 C 0.04766 0.17464 0.32639 0.0
C1576 C 0.05876 0.15927 0.33322 0.0
C1577 C 0.0274 0.17317 0.32703 0.0
C1578 C 0.01478 0.18826 0.31906 0.0
C1579 C 0.01677 0.19421 0.29992 0.0
C1580 C 0.00486 0.2085 0.29251 0.0
C1581 C 0.99081 0.21683 0.30407 0.0
C1582 C 0.98861 0.21085 0.32305 0.0
C1583 C 1.0005 0.19658 0.33053 0.0
H1584 H 0.9816 0.22788 0.29831 0.0
H1585 H 0.09455 0.08532 0.36659 0.0
H1586 H 0.14219 0.67825 0.63185 0.0
H1587 H 0.11456 0.69425 0.61739 0.0
H1588 H 0.14838 0.70781 0.56757 0.0
H1589 H 0.17612 0.69209 0.58203 0.0
H1590 H 0.13101 0.73936 0.58282 0.0
H1591 H 0.11116 0.67366 0.56729 0.0
H1592 H 0.10278 0.64061 0.57654 0.0
H1593 H 0.05821 0.66187 0.61317 0.0
H1594 H 0.06648 0.69505 0.6043 0.0
H1595 H 0.06589 0.78034 0.51952 0.0
H1596 H 0.08884 0.75874 0.53463 0.0
H1597 H 0.04649 0.74289 0.57667 0.0
H1598 H 0.02321 0.76417 0.56121 0.0
H1599 H 0.06651 0.71279 0.56899 0.0
H1600 H 0.08232 0.77539 0.58711 0.0
H1601 H 0.0897 0.80984 0.58477 0.0
H1602 H 0.14021 0.7971 0.55216 0.0
H1603 H 0.13295 0.76257 0.55399 0.0
C1604 C 0.14363 0.68417 0.61759 0.0
C1605 C 0.16144 0.68383 0.60811 0.0
C1606 C 0.12778 0.69337 0.60934 0.0
C1607 C 0.12933 0.70228 0.59137 0.0
C1608 C 0.14681 0.7011 0.58148 0.0
C1609 C 0.16266 0.69195 0.58971 0.0
C1610 C 0.11338 0.71409 0.58339 0.0
C1611 C 0.11701 0.73346 0.57944 0.0
C1612 C 0.09469 0.70679 0.58027 0.0
C1613 C 0.08952 0.68682 0.58522 0.0
C1614 C 0.09963 0.67128 0.57737 0.0
C1615 C 0.09489 0.65253 0.58255 0.0
C1616 C 0.08 0.64914 0.59546 0.0
C1617 C 0.06975 0.6645 0.60318 0.0
C1618 C 0.07444 0.68328 0.59806 0.0
C1619 C 0.0613 0.772 0.53176 0.0
C1620 C 0.04267 0.77402 0.53912 0.0
C1621 C 0.07454 0.75977 0.54054 0.0
C1622 C 0.06964 0.74947 0.55714 0.0
C1623 C 0.05073 0.75072 0.56397 0.0
C1624 C 0.03738 0.76285 0.55505 0.0
C1625 C 0.08444 0.7379 0.56746 0.0
C1626 C 0.08055 0.71871 0.57215 0.0
C1627 C 0.10271 0.74557 0.57207 0.0
C1628 C 0.10694 0.76637 0.57048 0.0
C1629 C 0.09488 0.77993 0.57923 0.0
C1630 C 0.09906 0.79948 0.57804 0.0
C1631 C 0.11538 0.80566 0.56828 0.0
C1632 C 0.12755 0.79229 0.55968 0.0
C1633 C 0.1234 0.77273 0.56078 0.0
H1634 H 0.11863 0.8208 0.56741 0.0
H1635 H 0.07637 0.63461 0.59947 0.0
H1636 H 0.5486 0.92084 0.79457 0.0
H1637 H 0.53595 0.88861 0.78852 0.0
H1638 H 0.50732 0.8898 0.84332 0.0
H1639 H 0.52124 0.92107 0.84996 0.0
H1640 H 0.51557 0.85643 0.83889 0.0
H1641 H 0.48494 0.89991 0.79598 0.0
H1642 H 0.48221 0.92449 0.77075 0.0
H1643 H 0.50995 0.88692 0.7307 0.0
H1644 H 0.51303 0.8622 0.75577 0.0
H1645 H 0.43173 0.80209 0.8011 0.0
H1646 H 0.45225 0.82968 0.80817 0.0
H1647 H 0.50184 0.79749 0.79061 0.0
H1648 H 0.4814 0.76939 0.78419 0.0
H1649 H 0.48484 0.84422 0.77589 0.0
H1650 H 0.51191 0.79968 0.8251 0.0
H1651 H 0.50748 0.77778 0.85245 0.0
H1652 H 0.47757 0.82182 0.88326 0.0
H1653 H 0.48141 0.84381 0.85587 0.0
C1654 C 0.53995 0.91399 0.80546 0.0
C1655 C 0.53603 0.92352 0.82277 0.0
C1656 C 0.53245 0.89563 0.8019 0.0
C1657 C 0.5201 0.88672 0.81519 0.0
C1658 C 0.51675 0.89608 0.83274 0.0
C1659 C 0.52477 0.91408 0.83655 0.0
C1660 C 0.51014 0.86808 0.81073 0.0
C1661 C 0.50893 0.85391 0.82504 0.0
C1662 C 0.50109 0.86446 0.79282 0.0
C1663 C 0.49944 0.87933 0.77779 0.0
C1664 C 0.49059 0.89696 0.78182 0.0
C1665 C 0.48896 0.9109 0.76755 0.0
C1666 C 0.49596 0.90729 0.74915 0.0
C1667 C 0.50457 0.88971 0.74497 0.0
C1668 C 0.50627 0.87573 0.7592 0.0
C1669 C 0.44701 0.80084 0.79869 0.0
C1670 C 0.45491 0.78354 0.79195 0.0
C1671 C 0.45872 0.8166 0.80288 0.0
C1672 C 0.47859 0.81558 0.80018 0.0
C1673 C 0.48656 0.79848 0.79312 0.0
C1674 C 0.47487 0.78249 0.78934 0.0
C1675 C 0.49068 0.8328 0.80386 0.0
C1676 C 0.49196 0.84676 0.7895 0.0
C1677 C 0.49903 0.83657 0.82197 0.0
C1678 C 0.49664 0.82325 0.83829 0.0
C1679 C 0.50409 0.80457 0.83755 0.0
C1680 C 0.50175 0.79217 0.8531 0.0
C1681 C 0.49217 0.79837 0.86955 0.0
C1682 C 0.48493 0.81701 0.87049 0.0
C1683 C 0.48716 0.82943 0.85495 0.0
H1684 H 0.49042 0.78877 0.88158 0.0
H1685 H 0.49466 0.9181 0.73811 0.0
H1686 H 0.32873 0.29019 0.06663 0.0
H1687 H 0.35716 0.2784 0.04994 0.0
H1688 H 0.39332 0.31175 0.0874 0.0
H1689 H 0.36489 0.32324 0.10463 0.0
H1690 H 0.40335 0.31002 0.04392 0.0
H1691 H 0.39372 0.2726 0.10041 0.0
H1692 H 0.37438 0.25448 0.1237 0.0
H1693 H 0.35881 0.21413 0.07984 0.0
H1694 H 0.37777 0.23226 0.05616 0.0
H1695 H 0.48805 0.25463 0.02105 0.0
H1696 H 0.46328 0.27354 0.03731 0.0
H1697 H 0.42005 0.23415 0.01716 0.0
H1698 H 0.44457 0.21526 1.00111 0.0
H1699 H 0.4157 0.24085 0.05465 0.0
H1700 H 0.42539 0.27964 0.99798 0.0
H1701 H 0.44476 0.29852 0.9753 0.0
H1702 H 0.46129 0.33674 0.02073 0.0
H1703 H 0.44219 0.31792 0.04373 0.0
C1704 C 0.34267 0.29542 0.07106 0.0
C1705 C 0.34452 0.30767 0.08698 0.0
C1706 C 0.35892 0.28859 0.06154 0.0
C1707 C 0.37734 0.29414 0.06748 0.0
C1708 C 0.37923 0.30734 0.08256 0.0
C1709 C 0.36297 0.31388 0.09239 0.0
C1710 C 0.39444 0.2847 0.059 0.0
C1711 C 0.40627 0.29498 0.04646 0.0
C1712 C 0.39817 0.26507 0.06227 0.0
C1713 C 0.38696 0.25393 0.07646 0.0
C1714 C 0.38601 0.25998 0.09568 0.0
C1715 C 0.37514 0.24969 0.10896 0.0
C1716 C 0.36532 0.2332 0.10324 0.0
C1717 C 0.3664 0.22693 0.08423 0.0
C1718 C 0.3772 0.23721 0.07087 0.0
C1719 C 0.47323 0.25021 0.01979 0.0
C1720 C 0.46835 0.23344 0.00965 0.0
C1721 C 0.45906 0.26101 0.02915 0.0
C1722 C 0.43971 0.25531 0.02849 0.0
C1723 C 0.43483 0.23884 0.018 0.0
C1724 C 0.44892 0.22809 0.00867 0.0
C1725 C 0.42451 0.26601 0.0391 0.0
C1726 C 0.41296 0.25593 0.05214 0.0
C1727 C 0.42122 0.28587 0.03642 0.0
C1728 C 0.43253 0.29727 0.02259 0.0
C1729 C 0.43326 0.29199 0.00315 0.0
C1730 C 0.44417 0.30269 0.99024 0.0
C1731 C 0.45429 0.31879 0.99658 0.0
C1732 C 0.45347 0.32425 0.01584 0.0
C1733 C 0.44259 0.31359 0.02882 0.0
H1734 H 0.46274 0.32705 0.98656 0.0
H1735 H 0.35691 0.22525 0.11355 0.0
H1736 H 0.32084 0.11371 0.19358 0.0
H1737 H 0.32725 0.09311 0.16586 0.0
H1738 H 0.3178 0.04301 0.20064 0.0
H1739 H 0.31112 0.06349 0.22839 0.0
H1740 H 0.35205 0.04217 0.17531 0.0
H1741 H 0.2833 0.0543 0.17353 0.0
H1742 H 0.25573 0.07638 0.17424 0.0
H1743 H 0.27701 0.1051 0.12422 0.0
H1744 H 0.30483 0.08332 0.12337 0.0
H1745 H 0.3547 0.97882 0.09541 0.0
H1746 H 0.34582 0.99437 0.12569 0.0
H1747 H 0.32893 0.045 0.09429 0.0
H1748 H 0.33574 0.02864 0.06428 0.0
H1749 H 0.30692 0.0438 0.12032 0.0
H1750 H 0.37575 0.0363 0.12138 0.0
H1751 H 0.40636 0.01865 0.12058 0.0
H1752 H 0.3895 0.98644 0.17016 0.0
H1753 H 0.35871 0.00376 0.17112 0.0
C1754 C 0.32007 0.09831 0.19533 0.0
C1755 C 0.31527 0.09025 0.21315 0.0
C1756 C 0.3238 0.08657 0.1795 0.0
C1757 C 0.323 0.06654 0.18122 0.0
C1758 C 0.31855 0.05843 0.19904 0.0
C1759 C 0.31458 0.07017 0.21483 0.0
C1760 C 0.32594 0.05413 0.16416 0.0
C1761 C 0.34213 0.04229 0.16331 0.0
C1762 C 0.31327 0.05472 0.14838 0.0
C1763 C 0.29615 0.06724 0.14843 0.0
C1764 C 0.2821 0.06535 0.16271 0.0
C1765 C 0.26644 0.07781 0.16314 0.0
C1766 C 0.26463 0.09215 0.1493 0.0
C1767 C 0.27842 0.09398 0.13493 0.0
C1768 C 0.29411 0.08156 0.13444 0.0
C1769 C 0.34859 0.99307 0.0951 0.0
C1770 C 0.34557 0.00243 0.07756 0.0
C1771 C 0.34385 0.00216 0.11242 0.0
C1772 C 0.33713 0.02122 0.11257 0.0
C1773 C 0.33392 0.03033 0.09486 0.0
C1774 C 0.33779 0.02094 0.07761 0.0
C1775 C 0.33353 0.03195 0.13086 0.0
C1776 C 0.31704 0.04349 0.13213 0.0
C1777 C 0.34636 0.03156 0.14674 0.0
C1778 C 0.36486 0.02116 0.14619 0.0
C1779 C 0.37854 0.02537 0.13204 0.0
C1780 C 0.39592 0.01544 0.13157 0.0
C1781 C 0.39985 0.00139 0.14528 0.0
C1782 C 0.38642 0.99729 0.15953 0.0
C1783 C 0.36901 0.00717 0.16005 0.0
H1784 H 0.41331 0.99371 0.14489 0.0
H1785 H 0.25252 0.10182 0.14969 0.0
H1786 H 0.25671 0.01702 0.49011 0.0
H1787 H 0.27584 0.0325 0.46505 0.0
H1788 H 0.23292 0.01743 0.42301 0.0
H1789 H 0.21427 0.00144 0.44765 0.0
H1790 H 0.26587 0.01288 0.40777 0.0
H1791 H 0.2371 0.06381 0.44504 0.0
H1792 H 0.23051 0.08281 0.47413 0.0
H1793 H 0.29065 0.09398 0.48104 0.0
H1794 H 0.2976 0.07487 0.4521 0.0
H1795 H 0.28413 0.07774 0.33265 0.0
H1796 H 0.27118 0.05897 0.35903 0.0
H1797 H 0.31512 0.08135 0.39663 0.0
H1798 H 0.32687 0.10164 0.37047 0.0
H1799 H 0.28495 0.08089 0.41535 0.0
H1800 H 0.31304 0.03137 0.37571 0.0
H1801 H 0.31816 0.014 0.34531 0.0
H1802 H 0.2581 0.00097 0.34205 0.0
H1803 H 0.2526 0.0184 0.37231 0.0
C1804 C 0.25156 0.01672 0.47546 0.0
C1805 C 0.23397 0.00793 0.47092 0.0
C1806 C 0.2624 0.02577 0.46116 0.0
C1807 C 0.2557 0.02649 0.44212 0.0
C1808 C 0.23847 0.01714 0.43753 0.0
C1809 C 0.22779 0.00794 0.4517 0.0
C1810 C 0.26626 0.03714 0.42687 0.0
C1811 C 0.26997 0.02779 0.40943 0.0
C1812 C 0.27205 0.05649 0.42903 0.0
C1813 C 0.26788 0.06771 0.44657 0.0
C1814 C 0.24892 0.07017 0.45287 0.0
C1815 C 0.24512 0.08099 0.46931 0.0
C1816 C 0.26015 0.08954 0.47947 0.0
C1817 C 0.27902 0.08731 0.47319 0.0
C1818 C 0.2829 0.07649 0.45678 0.0
C1819 C 0.29119 0.07839 0.34649 0.0
C1820 C 0.30668 0.09086 0.34949 0.0
C1821 C 0.28386 0.06753 0.3616 0.0
C1822 C 0.29247 0.06812 0.37986 0.0
C1823 C 0.30821 0.08044 0.38274 0.0
C1824 C 0.31505 0.09193 0.36777 0.0
C1825 C 0.28446 0.05668 0.39612 0.0
C1826 C 0.28119 0.06589 0.41375 0.0
C1827 C 0.27898 0.0372 0.39411 0.0
C1828 C 0.28242 0.02623 0.37623 0.0
C1829 C 0.30094 0.0248 0.36849 0.0
C1830 C 0.3039 0.01496 0.35128 0.0
C1831 C 0.28847 0.00641 0.34175 0.0
C1832 C 0.27004 0.00759 0.34945 0.0
C1833 C 0.267 0.0174 0.36665 0.0
H1834 H 0.29078 0.99884 0.3284 0.0
H1835 H 0.25718 0.09794 0.49217 0.0
H1836 H 0.1952 0.9011 0.73002 0.0
H1837 H 0.18845 0.92013 0.7014 0.0
H1838 H 0.23678 0.95656 0.7145 0.0
H1839 H 0.24318 0.9376 0.74361 0.0
H1840 H 0.20731 0.97732 0.70099 0.0
H1841 H 0.23941 0.91925 0.68108 0.0
H1842 H 0.24363 0.88421 0.67953 0.0
H1843 H 0.1886 0.87836 0.65249 0.0
H1844 H 0.18394 0.91335 0.65409 0.0
H1845 H 0.22047 0.0067 0.60062 0.0
H1846 H 0.22623 0.9922 0.63229 0.0
H1847 H 0.1686 0.96996 0.63249 0.0
H1848 H 0.16249 0.98499 0.60147 0.0
H1849 H 0.20354 0.94268 0.63889 0.0
H1850 H 0.16962 0.99834 0.66045 0.0
H1851 H 0.16293 0.03293 0.66248 0.0
H1852 H 0.21881 0.04268 0.6865 0.0
H1853 H 0.22597 0.00812 0.68423 0.0
C1854 C 0.20432 0.9132 0.72675 0.0
C1855 C 0.21984 0.9178 0.7387 0.0
C1856 C 0.20049 0.92406 0.71042 0.0
C1857 C 0.21241 0.93949 0.70549 0.0
C1858 C 0.22749 0.94462 0.71793 0.0
C1859 C 0.23116 0.93383 0.73449 0.0
C1860 C 0.20943 0.94981 0.68708 0.0
C1861 C 0.20682 0.96976 0.6874 0.0
C1862 C 0.20824 0.93991 0.66933 0.0
C1863 C 0.21127 0.91891 0.66785 0.0
C1864 C 0.22819 0.91048 0.67486 0.0
C1865 C 0.23065 0.89063 0.67398 0.0
C1866 C 0.21637 0.87906 0.66596 0.0
C1867 C 0.19964 0.88734 0.65871 0.0
C1868 C 0.19709 0.90718 0.65958 0.0
C1869 C 0.20896 0.99904 0.60764 0.0
C1870 C 0.19098 0.99718 0.59872 0.0
C1871 C 0.21226 0.99075 0.62564 0.0
C1872 C 0.1978 0.98008 0.63464 0.0
C1873 C 0.17987 0.97825 0.62578 0.0
C1874 C 0.17639 0.98697 0.60814 0.0
C1875 C 0.20156 0.97006 0.65292 0.0
C1876 C 0.20427 0.95018 0.65251 0.0
C1877 C 0.20261 0.97995 0.67056 0.0
C1878 C 0.19846 1.00071 0.67185 0.0
C1879 C 0.1806 0.00789 0.66589 0.0
C1880 C 0.17669 0.02748 0.66715 0.0
C1881 C 0.19047 0.04002 0.67453 0.0
C1882 C 0.20818 0.03296 0.68072 0.0
C1883 C 0.21217 0.01337 0.67944 0.0
H1884 H 0.18741 0.05518 0.67553 0.0
H1885 H 0.21828 0.86369 0.66534 0.0
H1886 H 0.20043 0.90853 0.87036 0.0
H1887 H 0.21563 0.92713 0.89618 0.0
H1888 H 0.26127 0.9431 0.85788 0.0
H1889 H 0.24578 0.92527 0.83183 0.0
H1890 H 0.26741 0.92076 0.89952 0.0
H1891 H 0.24677 0.9769 0.86436 0.0
H1892 H 0.22286 0.99666 0.84747 0.0
H1893 H 0.18857 0.99911 0.89845 0.0
H1894 H 0.21216 0.97899 0.91552 0.0
H1895 H 0.3249 0.99366 0.94376 0.0
H1896 H 0.30464 0.97686 0.92068 0.0
H1897 H 0.26126 0.96935 0.96387 0.0
H1898 H 0.28196 0.98562 0.98755 0.0
H1899 H 0.25193 0.98656 0.92162 0.0
H1900 H 0.27727 0.93324 0.95774 0.0
H1901 H 0.30221 0.91329 0.9728 0.0
H1902 H 0.32944 0.90564 0.9182 0.0
H1903 H 0.30487 0.9259 0.90286 0.0
C1904 C 0.21339 0.91649 0.86733 0.0
C1905 C 0.22182 0.91568 0.84907 0.0
C1906 C 0.22208 0.92699 0.88207 0.0
C1907 C 0.2395 0.93644 0.87884 0.0
C1908 C 0.24772 0.93602 0.86053 0.0
C1909 C 0.23878 0.92597 0.84566 0.0
C1910 C 0.24981 0.94561 0.89492 0.0
C1911 C 0.26414 0.93517 0.90434 0.0
C1912 C 0.24526 0.96425 0.90126 0.0
C1913 C 0.23101 0.97617 0.89108 0.0
C1914 C 0.23397 0.98139 0.87186 0.0
C1915 C 0.22053 0.99272 0.86228 0.0
C1916 C 0.20415 0.99906 0.87185 0.0
C1917 C 0.20122 0.99412 0.89104 0.0
C1918 C 0.21462 0.98275 0.90067 0.0
C1919 C 0.31095 0.98867 0.94837 0.0
C1920 C 0.30489 0.99119 0.96744 0.0
C1921 C 0.29949 0.97892 0.93518 0.0
C1922 C 0.28157 0.97181 0.94064 0.0
C1923 C 0.27514 0.9747 0.95949 0.0
C1924 C 0.28688 0.98405 0.97293 0.0
C1925 C 0.26964 0.96174 0.92628 0.0
C1926 C 0.25505 0.97203 0.91705 0.0
C1927 C 0.27422 0.94303 0.91992 0.0
C1928 C 0.28938 0.93138 0.92921 0.0
C1929 C 0.28876 0.92761 0.94899 0.0
C1930 C 0.30279 0.91616 0.95757 0.0
C1931 C 0.31745 0.90827 0.94648 0.0
C1932 C 0.31811 0.91182 0.92678 0.0
C1933 C 0.30414 0.92329 0.91815 0.0
H1934 H 0.32825 0.89935 0.95313 0.0
H1935 H 0.19376 0.00786 0.86442 0.0
H1936 H 0.07382 0.32204 0.01439 0.0
H1937 H 0.10493 0.31375 0.02842 0.0
H1938 H 0.13033 0.36336 0.00198 0.0
H1939 H 0.09898 0.37222 0.98848 0.0
H1940 H 0.15129 0.32271 1.00066 0.0
H1941 H 0.12545 0.37236 0.0406 0.0
H1942 H 0.10021 0.38829 0.05943 0.0
H1943 H 0.09727 0.33976 0.09705 0.0
H1944 H 0.12217 0.32331 0.07812 0.0
H1945 H 0.2382 0.3182 0.0553 0.0
H1946 H 0.2099 0.32935 0.03777 0.0
H1947 H 0.17344 0.29834 0.07677 0.0
H1948 H 0.20159 0.28759 0.0946 0.0
H1949 H 0.15885 0.33257 0.07075 0.0
H1950 H 0.18351 0.28241 0.03001 0.0
H1951 H 0.20846 0.26621 0.011 0.0
H1952 H 0.21366 0.31582 0.97504 0.0
H1953 H 0.1889 0.33241 0.99403 0.0
C1954 C 0.0861 0.33096 0.01116 0.0
C1955 C 0.08397 0.3477 1.00017 0.0
C1956 C 0.10383 0.32628 0.01934 0.0
C1957 C 0.11987 0.33801 0.01633 0.0
C1958 C 0.11809 0.35415 0.00448 0.0
C1959 C 0.10022 0.35914 0.99672 0.0
C1960 C 0.13821 0.3337 0.02629 0.0
C1961 C 0.15311 0.32514 0.01593 0.0
C1962 C 0.14041 0.33662 0.04625 0.0
C1963 C 0.12545 0.34646 0.05772 0.0
C1964 C 0.11922 0.36495 0.0527 0.0
C1965 C 0.10501 0.3741 0.06343 0.0
C1966 C 0.09707 0.36501 0.07937 0.0
C1967 C 0.10338 0.34676 0.08465 0.0
C1968 C 0.11754 0.33751 0.07391 0.0
C1969 C 0.22418 0.31351 0.05997 0.0
C1970 C 0.22223 0.30178 0.07624 0.0
C1971 C 0.20796 0.31995 0.04995 0.0
C1972 C 0.18943 0.31459 0.0558 0.0
C1973 C 0.18751 0.30274 0.07194 0.0
C1974 C 0.20368 0.29643 0.08203 0.0
C1975 C 0.17201 0.32125 0.0452 0.0
C1976 C 0.15719 0.33024 0.05546 0.0
C1977 C 0.16989 0.31875 0.02513 0.0
C1978 C 0.1845 0.30869 0.01353 0.0
C1979 C 0.19005 0.28989 0.01811 0.0
C1980 C 0.20415 0.28064 0.00734 0.0
C1981 C 0.21268 0.28999 0.99185 0.0
C1982 C 0.20706 0.3086 0.98706 0.0
C1983 C 0.19299 0.31793 0.99781 0.0
H1984 H 0.2236 0.28281 0.98353 0.0
H1985 H 0.08608 0.37212 0.08766 0.0
H1986 H 0.72185 0.24918 0.90957 0.0
H1987 H 0.69362 0.24172 0.92881 0.0
H1988 H 0.72467 0.19649 0.95718 0.0
H1989 H 0.75317 0.20401 0.93802 0.0
H1990 H 0.68769 0.18553 0.94239 0.0
H1991 H 0.71545 0.23429 0.9824 0.0
H1992 H 0.73013 0.2659 0.9883 0.0
H1993 H 0.67916 0.29363 0.96777 0.0
H1994 H 0.66428 0.26217 0.96151 0.0
H1995 H 0.6091 0.16671 0.00404 0.0
H1996 H 0.64113 0.17324 0.99162 0.0
H1997 H 0.62184 0.22817 0.97086 0.0
H1998 H 0.59 0.22202 0.98397 0.0
H1999 H 0.65525 0.23276 0.98444 0.0
H2000 H 0.63046 0.18726 0.93788 0.0
H2001 H 0.61606 0.15713 0.92621 0.0
H2002 H 0.65943 0.1248 0.95555 0.0
H2003 H 0.67446 0.15483 0.96685 0.0
C2004 C 0.72282 0.23787 0.92015 0.0
C2005 C 0.73982 0.2273 0.92238 0.0
C2006 C 0.70665 0.23359 0.93111 0.0
C2007 C 0.70705 0.21857 0.94444 0.0
C2008 C 0.72407 0.20815 0.94697 0.0
C2009 C 0.74039 0.2126 0.93615 0.0
C2010 C 0.68941 0.21352 0.95523 0.0
C2011 C 0.68078 0.19567 0.95193 0.0
C2012 C 0.6801 0.22697 0.96717 0.0
C2013 C 0.68879 0.24589 0.97142 0.0
C2014 C 0.70741 0.24714 0.97908 0.0
C2015 C 0.71576 0.26502 0.98249 0.0
C2016 C 0.7056 0.28177 0.97839 0.0
C2017 C 0.68702 0.28065 0.97095 0.0
C2018 C 0.6786 0.2628 0.9675 0.0
C2019 C 0.61174 0.18028 0.99703 0.0
C2020 C 0.59699 0.19388 0.99508 0.0
C2021 C 0.63004 0.18391 0.98969 0.0
C2022 C 0.63393 0.20105 0.97989 0.0
C2023 C 0.6193 0.21482 0.97832 0.0
C2024 C 0.60106 0.21131 0.98588 0.0
C2025 C 0.6532 0.2048 0.9714 0.0
C2026 C 0.6622 0.22243 0.97514 0.0
C2027 C 0.66268 0.19128 0.95955 0.0
C2028 C 0.65341 0.17322 0.95338 0.0
C2029 C 0.63683 0.17371 0.94193 0.0
C2030 C 0.62862 0.15666 0.93531 0.0
C2031 C 0.6367 0.13904 0.9403 0.0
C2032 C 0.65315 0.13845 0.95174 0.0
C2033 C 0.66161 0.15547 0.95814 0.0
H2034 H 0.63025 0.12586 0.93524 0.0
H2035 H 0.7121 0.29561 0.98101 0.0
H2036 H 0.1012 0.36164 0.32598 0.0
H2037 H 0.08434 0.38893 0.31165 0.0
H2038 H 0.04943 0.35011 0.2785 0.0
H2039 H 0.06591 0.32279 0.29294 0.0
H2040 H 0.07126 0.37976 0.25724 0.0
H2041 H 0.02889 0.37267 0.31281 0.0
H2042 H 0.02313 0.37176 0.34766 0.0
H2043 H 0.0467 0.42831 0.3535 0.0
H2044 H 0.05284 0.42944 0.31871 0.0
H2045 H 0.00765 0.43855 0.20742 0.0
H2046 H 0.02234 0.41379 0.22727 0.0
H2047 H 0.03612 0.45618 0.27028 0.0
H2048 H 0.02039 0.48079 0.25089 0.0
H2049 H 0.02765 0.42653 0.28814 0.0
H2050 H 0.07031 0.43712 0.23744 0.0
H2051 H 0.08224 0.44122 0.20447 0.0
H2052 H 0.06675 0.38316 0.19117 0.0
H2053 H 0.05443 0.37879 0.22399 0.0
C2054 C 0.0896 0.35889 0.31601 0.0
C2055 C 0.08488 0.34 0.31064 0.0
C2056 C 0.08003 0.37451 0.3078 0.0
C2057 C 0.06572 0.37152 0.29394 0.0
C2058 C 0.06046 0.35271 0.28915 0.0
C2059 C 0.06981 0.3371 0.29754 0.0
C2060 C 0.05716 0.38787 0.28337 0.0
C2061 C 0.06147 0.38985 0.26386 0.0
C2062 C 0.04545 0.4017 0.29236 0.0
C2063 C 0.04146 0.40107 0.3132 0.0
C2064 C 0.03297 0.38485 0.32155 0.0
C2065 C 0.02961 0.38431 0.34129 0.0
C2066 C 0.03459 0.39995 0.3528 0.0
C2067 C 0.04287 0.4162 0.34458 0.0
C2068 C 0.04627 0.41681 0.32485 0.0
C2069 C 0.01362 0.44255 0.22121 0.0
C2070 C 0.01284 0.46162 0.22759 0.0
C2071 C 0.02223 0.4284 0.23249 0.0
C2072 C 0.03086 0.43309 0.25015 0.0
C2073 C 0.02966 0.4521 0.25674 0.0
C2074 C 0.02064 0.46618 0.24564 0.0
C2075 C 0.0411 0.41815 0.26159 0.0
C2076 C 0.03734 0.4165 0.28133 0.0
C2077 C 0.05411 0.40511 0.253 0.0
C2078 C 0.06124 0.4077 0.23313 0.0
C2079 C 0.06927 0.42528 0.22743 0.0
C2080 C 0.07613 0.42765 0.20878 0.0
C2081 C 0.0752 0.41248 0.19572 0.0
C2082 C 0.06742 0.39491 0.2013 0.0
C2083 C 0.0605 0.39248 0.21993 0.0
H2084 H 0.08055 0.41433 0.18129 0.0
H2085 H 0.03199 0.3995 0.36808 0.0
H2086 H 0.9393 0.79784 0.51721 0.0
H2087 H 0.90789 0.79441 0.50191 0.0
H2088 H 0.88501 0.83829 0.53878 0.0
H2089 H 0.91665 0.84233 0.55378 0.0
H2090 H 0.86183 0.79821 0.52922 0.0
H2091 H 0.88993 0.8569 0.50485 0.0
H2092 H 0.91597 0.87646 0.49123 0.0
H2093 H 0.91935 0.83858 0.44281 0.0
H2094 H 0.89359 0.81855 0.45638 0.0
H2095 H 0.77621 0.80985 0.4737 0.0
H2096 H 0.80389 0.81478 0.49474 0.0
H2097 H 0.84174 0.80101 0.44781 0.0
H2098 H 0.81412 0.79758 0.42656 0.0
H2099 H 0.85658 0.82835 0.46506 0.0
H2100 H 0.82885 0.76923 0.48916 0.0
H2101 H 0.80321 0.7491 0.50279 0.0
H2102 H 0.79913 0.78678 0.55132 0.0
H2103 H 0.8246 0.80723 0.53788 0.0
C2104 C 0.9275 0.80644 0.52244 0.0
C2105 C 0.93049 0.82032 0.53679 0.0
C2106 C 0.90959 0.80454 0.51357 0.0
C2107 C 0.8942 0.81619 0.51913 0.0
C2108 C 0.89673 0.82919 0.53429 0.0
C2109 C 0.91479 0.83142 0.54288 0.0
C2110 C 0.87596 0.81557 0.50813 0.0
C2111 C 0.8605 0.80498 0.51529 0.0
C2112 C 0.87441 0.82418 0.48987 0.0
C2113 C 0.89007 0.83604 0.48181 0.0
C2114 C 0.89644 0.85256 0.49146 0.0
C2115 C 0.9111 0.86378 0.48371 0.0
C2116 C 0.91938 0.85872 0.4662 0.0
C2117 C 0.91298 0.84245 0.4564 0.0
C2118 C 0.89836 0.83115 0.46412 0.0
C2119 C 0.79047 0.80786 0.46793 0.0
C2120 C 0.79302 0.80326 0.44848 0.0
C2121 C 0.80633 0.81053 0.48002 0.0
C2122 C 0.82509 0.8079 0.47311 0.0
C2123 C 0.82753 0.80319 0.45364 0.0
C2124 C 0.81171 0.80113 0.44145 0.0
C2125 C 0.84226 0.81048 0.4858 0.0
C2126 C 0.85767 0.82152 0.47898 0.0
C2127 C 0.84373 0.80219 0.50434 0.0
C2128 C 0.82849 0.78983 0.51243 0.0
C2129 C 0.82241 0.77326 0.50269 0.0
C2130 C 0.80791 0.7618 0.51038 0.0
C2131 C 0.79951 0.76668 0.52789 0.0
C2132 C 0.80562 0.78302 0.53776 0.0
C2133 C 0.8201 0.79454 0.53012 0.0
H2134 H 0.78829 0.75779 0.53382 0.0
H2135 H 0.9307 0.86745 0.46021 0.0
H2136 H 0.26483 0.71336 0.56125 0.0
H2137 H 0.2906 0.70489 0.53875 0.0
H2138 H 0.30237 0.65378 0.57147 0.0
H2139 H 0.27661 0.66223 0.59378 0.0
H2140 H 0.33488 0.67226 0.56373 0.0
H2141 H 0.28207 0.64901 0.52915 0.0
H2142 H 0.24998 0.6487 0.51436 0.0
H2143 H 0.2666 0.69425 0.47656 0.0
H2144 H 0.29876 0.69501 0.49135 0.0
H2145 H 0.38935 0.62469 0.49006 0.0
H2146 H 0.3604 0.63237 0.50803 0.0
H2147 H 0.36876 0.69239 0.49641 0.0
H2148 H 0.39833 0.68493 0.47883 0.0
H2149 H 0.32622 0.66833 0.49317 0.0
H2150 H 0.38171 0.689 0.53301 0.0
H2151 H 0.41324 0.68215 0.54749 0.0
H2152 H 0.3899 0.63272 0.57561 0.0
H2153 H 0.35831 0.63909 0.56096 0.0
C2154 C 0.27273 0.70017 0.56331 0.0
C2155 C 0.26867 0.68823 0.5789 0.0
C2156 C 0.28744 0.69535 0.55056 0.0
C2157 C 0.29838 0.67866 0.5534 0.0
C2158 C 0.29415 0.66671 0.56899 0.0
C2159 C 0.27936 0.67143 0.58159 0.0
C2160 C 0.31457 0.67396 0.54043 0.0
C2161 C 0.33292 0.67138 0.54832 0.0
C2162 C 0.31206 0.67243 0.52035 0.0
C2163 C 0.29273 0.67224 0.51152 0.0
C2164 C 0.27881 0.65911 0.51783 0.0
C2165 C 0.26063 0.65881 0.50941 0.0
C2166 C 0.25623 0.67149 0.49457 0.0
C2167 C 0.27002 0.68447 0.48809 0.0
C2168 C 0.28824 0.68483 0.49648 0.0
C2169 C 0.38486 0.63952 0.49089 0.0
C2170 C 0.39615 0.65423 0.48299 0.0
C2171 C 0.36834 0.64385 0.50126 0.0
C2172 C 0.36261 0.66291 0.50361 0.0
C2173 C 0.37308 0.67758 0.49473 0.0
C2174 C 0.38988 0.6733 0.48466 0.0
C2175 C 0.34644 0.66745 0.51645 0.0
C2176 C 0.3281 0.66964 0.50855 0.0
C2177 C 0.34885 0.66794 0.53657 0.0
C2178 C 0.36774 0.66437 0.54567 0.0
C2179 C 0.38336 0.67655 0.54209 0.0
C2180 C 0.40123 0.67278 0.55037 0.0
C2181 C 0.4036 0.65696 0.5624 0.0
C2182 C 0.38806 0.64494 0.56625 0.0
C2183 C 0.37018 0.64863 0.55796 0.0
H2184 H 0.41745 0.65405 0.56878 0.0
H2185 H 0.24214 0.67123 0.48805 0.0
H2186 H 0.00824 0.96194 0.29012 0.0
H2187 H 0.99507 0.93852 0.26739 0.0
H2188 H 0.9464 0.93003 0.30467 0.0
H2189 H 0.96049 0.95199 0.32796 0.0
H2190 H 0.95419 0.89849 0.29273 0.0
H2191 H 0.94633 0.95792 0.25988 0.0
H2192 H 0.95543 0.98882 0.24541 0.0
H2193 H 0.99377 0.95986 0.20704 0.0
H2194 H 0.98505 0.9288 0.22144 0.0
H2195 H 0.88733 0.87442 0.21628 0.0
H2196 H 0.90766 0.89703 0.23353 0.0
H2197 H 0.95547 0.85832 0.22859 0.0
H2198 H 0.93499 0.83508 0.21183 0.0
H2199 H 0.95022 0.91155 0.22295 0.0
H2200 H 0.95392 0.85018 0.26305 0.0
H2201 H 0.9365 0.82296 0.27735 0.0
H2202 H 0.89607 0.86181 0.3026 0.0
H2203 H 0.91301 0.8892 0.28802 0.0
C2204 C 0.99478 0.95493 0.29336 0.0
C2205 C 0.98536 0.95858 0.3107 0.0
C2206 C 0.98715 0.9417 0.28033 0.0
C2207 C 0.96953 0.93262 0.28409 0.0
C2208 C 0.96007 0.93661 0.30141 0.0
C2209 C 0.96806 0.94922 0.3147 0.0
C2210 C 0.96099 0.91872 0.2703 0.0
C2211 C 0.95346 0.90148 0.27749 0.0
C2212 C 0.95971 0.92243 0.25034 0.0
C2213 C 0.96523 0.94109 0.2419 0.0
C2214 C 0.95684 0.95817 0.24848 0.0
C2215 C 0.96189 0.97571 0.24027 0.0
C2216 C 0.97522 0.97631 0.22536 0.0
C2217 C 0.98349 0.95938 0.21862 0.0
C2218 C 0.97849 0.94181 0.22679 0.0
C2219 C 0.90228 0.87083 0.21841 0.0
C2220 C 0.90953 0.85287 0.21282 0.0
C2221 C 0.91383 0.88376 0.22835 0.0
C2222 C 0.93285 0.87909 0.23259 0.0
C2223 C 0.94066 0.86193 0.22567 0.0
C2224 C 0.92901 0.84878 0.21598 0.0
C2225 C 0.94391 0.89163 0.2455 0.0
C2226 C 0.95158 0.90861 0.23816 0.0
C2227 C 0.94455 0.88815 0.26541 0.0
C2228 C 0.93452 0.87165 0.27417 0.0
C2229 C 0.94116 0.85287 0.27141 0.0
C2230 C 0.9314 0.83743 0.27961 0.0
C2231 C 0.91513 0.84065 0.2908 0.0
C2232 C 0.90862 0.85932 0.29386 0.0
C2233 C 0.91827 0.87479 0.2856 0.0
H2234 H 0.90762 0.82868 0.29717 0.0
H2235 H 0.9791 0.9899 0.219 0.0
H2236 H 0.51913 0.06002 0.76693 0.0
H2237 H 0.53504 0.08262 0.7452 0.0
H2238 H 0.58691 0.04933 0.7484 0.0
H2239 H 0.57081 0.02617 0.76943 0.0
H2240 H 0.58381 0.09713 0.75703 0.0
H2241 H 0.58106 0.04451 0.71246 0.0
H2242 H 0.56541 0.0174 0.69601 0.0
H2243 H 0.52256 0.05536 0.67344 0.0
H2244 H 0.53779 0.08265 0.69014 0.0
H2245 H 0.63738 0.14596 0.68364 0.0
H2246 H 0.62404 0.1183 0.70053 0.0
H2247 H 0.56717 0.14122 0.69339 0.0
H2248 H 0.58051 0.16943 0.67712 0.0
H2249 H 0.57509 0.09693 0.68635 0.0
H2250 H 0.58187 0.15047 0.7311 0.0
H2251 H 0.60071 0.17603 0.74667 0.0
H2252 H 0.64007 0.13418 0.76866 0.0
H2253 H 0.62172 0.10839 0.75276 0.0
C2254 C 0.53379 0.05729 0.76265 0.0
C2255 C 0.54362 0.04116 0.76962 0.0
C2256 C 0.54289 0.07026 0.75035 0.0
C2257 C 0.56213 0.06762 0.7452 0.0
C2258 C 0.57201 0.05153 0.7521 0.0
C2259 C 0.56274 0.03825 0.76397 0.0
C2260 C 0.57184 0.08199 0.73289 0.0
C2261 C 0.58213 0.09697 0.74156 0.0
C2262 C 0.56965 0.08179 0.71275 0.0
C2263 C 0.56033 0.06552 0.70282 0.0
C2264 C 0.56812 0.04701 0.70425 0.0
C2265 C 0.55938 0.03163 0.69482 0.0
C2266 C 0.54294 0.03463 0.68376 0.0
C2267 C 0.53525 0.05304 0.68207 0.0
C2268 C 0.54392 0.06847 0.69153 0.0
C2269 C 0.62198 0.14491 0.68521 0.0
C2270 C 0.60996 0.15984 0.67892 0.0
C2271 C 0.61441 0.12914 0.69498 0.0
C2272 C 0.59465 0.12777 0.69827 0.0
C2273 C 0.58247 0.14203 0.69097 0.0
C2274 C 0.59009 0.15809 0.68164 0.0
C2275 C 0.58687 0.11221 0.71048 0.0
C2276 C 0.57688 0.09706 0.7018 0.0
C2277 C 0.58978 0.11204 0.73059 0.0
C2278 C 0.60058 0.12752 0.74047 0.0
C2279 C 0.59467 0.14673 0.73904 0.0
C2280 C 0.60525 0.16126 0.74796 0.0
C2281 C 0.62163 0.15674 0.75858 0.0
C2282 C 0.62741 0.13766 0.76037 0.0
C2283 C 0.61694 0.12309 0.75139 0.0
H2284 H 0.6298 0.16801 0.76547 0.0
H2285 H 0.53621 0.02272 0.67644 0.0
H2286 H 0.59851 0.29111 0.69582 0.0
H2287 H 0.57715 0.31762 0.68857 0.0
H2288 H 0.53097 0.27788 0.67789 0.0
H2289 H 0.55285 0.2509 0.68419 0.0
H2290 H 0.53167 0.30865 0.65191 0.0
H2291 H 0.53638 0.30151 0.72237 0.0
H2292 H 0.55647 0.29935 0.75147 0.0
H2293 H 0.58168 0.35398 0.73865 0.0
H2294 H 0.56188 0.35636 0.70942 0.0
H2295 H 0.46086 0.38143 0.6531 0.0
H2296 H 0.479 0.35194 0.65894 0.0
H2297 H 0.52342 0.38511 0.68675 0.0
H2298 H 0.5045 0.41401 0.68252 0.0
H2299 H 0.52252 0.35588 0.70428 0.0
H2300 H 0.52445 0.36625 0.63712 0.0
H2301 H 0.51245 0.37148 0.60426 0.0
H2302 H 0.48425 0.31681 0.60536 0.0
H2303 H 0.49587 0.31136 0.63834 0.0
C2304 C 0.58376 0.28793 0.69212 0.0
C2305 C 0.57719 0.2689 0.69114 0.0
C2306 C 0.57157 0.30315 0.68787 0.0
C2307 C 0.5523 0.2998 0.68321 0.0
C2308 C 0.54575 0.2808 0.68166 0.0
C2309 C 0.55817 0.26543 0.68545 0.0
C2310 C 0.53895 0.31625 0.68092 0.0
C2311 C 0.52935 0.31886 0.66342 0.0
C2312 C 0.53673 0.33011 0.69557 0.0
C2313 C 0.54765 0.32911 0.71377 0.0
C2314 C 0.54615 0.31308 0.72584 0.0
C2315 C 0.55753 0.3118 0.74231 0.0
C2316 C 0.57034 0.32651 0.74691 0.0
C2317 C 0.57173 0.34261 0.73511 0.0
C2318 C 0.5604 0.34396 0.71862 0.0
C2319 C 0.47423 0.38221 0.66099 0.0
C2320 C 0.48112 0.39991 0.66769 0.0
C2321 C 0.48481 0.36542 0.66399 0.0
C2322 C 0.50292 0.36616 0.67291 0.0
C2323 C 0.5095 0.3839 0.67995 0.0
C2324 C 0.49861 0.4005 0.67763 0.0
C2325 C 0.51512 0.34868 0.67508 0.0
C2326 C 0.52454 0.34576 0.69265 0.0
C2327 C 0.51802 0.33522 0.66005 0.0
C2328 C 0.51081 0.33852 0.6403 0.0
C2329 C 0.51553 0.35542 0.63042 0.0
C2330 C 0.50883 0.35841 0.61176 0.0
C2331 C 0.49753 0.34452 0.60276 0.0
C2332 C 0.49295 0.32758 0.61237 0.0
C2333 C 0.4996 0.32453 0.63105 0.0
H2334 H 0.49236 0.34685 0.5883 0.0
H2335 H 0.5792 0.32545 0.75962 0.0
H2336 H 0.87135 0.20465 0.89746 0.0
H2337 H 0.89725 0.22008 0.91544 0.0
H2338 H 0.85572 0.25134 0.94876 0.0
H2339 H 0.82974 0.23599 0.9309 0.0
H2340 H 0.88288 0.27469 0.93177 0.0
H2341 H 0.88162 0.21664 0.96929 0.0
H2342 H 0.88273 0.18165 0.9739 0.0
H2343 H 0.93886 0.1798 0.94888 0.0
H2344 H 0.93796 0.21477 0.94387 0.0
H2345 H 0.93946 0.31886 0.00197 0.0
H2346 H 0.91639 0.29828 0.98567 0.0
H2347 H 0.96247 0.26895 0.95689 0.0
H2348 H 0.98584 0.28965 0.97322 0.0
H2349 H 0.93477 0.244 0.96952 0.0
H2350 H 0.93754 0.30095 0.93279 0.0
H2351 H 0.93708 0.33552 0.92565 0.0
H2352 H 0.87923 0.33933 0.94608 0.0
H2353 H 0.87944 0.30483 0.95368 0.0
C2354 C 0.8677 0.21444 0.90894 0.0
C2355 C 0.84846 0.2191 0.91273 0.0
C2356 C 0.88254 0.22328 0.91918 0.0
C2357 C 0.87841 0.23692 0.93337 0.0
C2358 C 0.85921 0.2409 0.93781 0.0
C2359 C 0.84437 0.23199 0.92768 0.0
C2360 C 0.894 0.24808 0.94264 0.0
C2361 C 0.89406 0.26803 0.9403 0.0
C2362 C 0.90906 0.23927 0.95295 0.0
C2363 C 0.90965 0.21828 0.95605 0.0
C2364 C 0.89414 0.20875 0.96463 0.0
C2365 C 0.89474 0.18893 0.96734 0.0
C2366 C 0.91084 0.1785 0.96164 0.0
C2367 C 0.92639 0.18789 0.95326 0.0
C2368 C 0.92585 0.20771 0.9505 0.0
C2369 C 0.94478 0.3079 0.99236 0.0
C2370 C 0.96454 0.30592 0.9889 0.0
C2371 C 0.93153 0.29622 0.98294 0.0
C2372 C 0.93768 0.28228 0.96984 0.0
C2373 C 0.95742 0.27969 0.96689 0.0
C2374 C 0.97075 0.29149 0.97627 0.0
C2375 C 0.92334 0.2707 0.95913 0.0
C2376 C 0.92358 0.25069 0.96104 0.0
C2377 C 0.90866 0.27944 0.94816 0.0
C2378 C 0.90859 0.30032 0.94403 0.0
C2379 C 0.92479 0.30919 0.93599 0.0
C2380 C 0.92456 0.32877 0.93181 0.0
C2381 C 0.90816 0.33962 0.93546 0.0
C2382 C 0.89194 0.33091 0.9433 0.0
C2383 C 0.89211 0.31134 0.94755 0.0
H2384 H 0.90799 0.35477 0.93218 0.0
H2385 H 0.91128 0.16315 0.96376 0.0
H2386 H 0.89336 0.71654 0.20249 0.0
H2387 H 0.91438 0.68905 0.19872 0.0
H2388 H 0.9624 0.72285 0.21843 0.0
H2389 H 0.94136 0.75099 0.2211 0.0
H2390 H 0.97336 0.7009 0.1903 0.0
H2391 H 0.93817 0.68892 0.24805 0.0
H2392 H 0.90908 0.6864 0.2679 0.0
H2393 H 0.8876 0.64167 0.23139 0.0
H2394 H 0.91641 0.6441 0.21116 0.0
H2395 H 0.02334 0.60872 0.20225 0.0
H2396 H 0.0083 0.63935 0.21167 0.0
H2397 H 0.95965 0.6263 0.17569 0.0
H2398 H 0.97481 0.59629 0.16591 0.0
H2399 H 0.95278 0.63841 0.2172 0.0
H2400 H 0.98399 0.65447 0.1571 0.0
H2401 H 0.01238 0.65611 0.13621 0.0
H2402 H 0.04072 0.69248 0.17712 0.0
H2403 H 0.01258 0.6907 0.19845 0.0
C2404 C 0.9084 0.71813 0.20607 0.0
C2405 C 0.91573 0.73579 0.21234 0.0
C2406 C 0.92039 0.70235 0.20402 0.0
C2407 C 0.93987 0.70366 0.20892 0.0
C2408 C 0.94737 0.72144 0.21479 0.0
C2409 C 0.93538 0.73747 0.21635 0.0
C2410 C 0.95224 0.68642 0.20759 0.0
C2411 C 0.96906 0.68737 0.1966 0.0
C2412 C 0.94656 0.66861 0.21557 0.0
C2413 C 0.92945 0.66674 0.22805 0.0
C2414 C 0.92722 0.67857 0.24423 0.0
C2415 C 0.91077 0.67717 0.25554 0.0
C2416 C 0.8965 0.66389 0.2509 0.0
C2417 C 0.89867 0.65194 0.23497 0.0
C2418 C 0.91508 0.6533 0.2236 0.0
C2419 C 0.00958 0.61265 0.19622 0.0
C2420 C 1.00036 0.60059 0.18297 0.0
C2421 C 1.001 0.62997 0.20164 0.0
C2422 C 0.98292 0.63495 0.19431 0.0
C2423 C 0.97364 0.62268 0.1814 0.0
C2424 C 0.98239 0.60575 0.17562 0.0
C2425 C 0.97349 0.65302 0.19976 0.0
C2426 C 0.95724 0.65213 0.21144 0.0
C2427 C 0.97962 0.6708 0.19242 0.0
C2428 C 0.99634 0.67222 0.17948 0.0
C2429 C 0.99636 0.66264 0.16173 0.0
C2430 C 0.01238 0.66362 0.1498 0.0
C2431 C 0.02838 0.67433 0.15537 0.0
C2432 C 0.02834 0.68414 0.17286 0.0
C2433 C 0.01237 0.68315 0.18487 0.0
H2434 H 0.04078 0.67507 0.14612 0.0
H2435 H 0.88376 0.66286 0.25965 0.0
H2436 H 0.53452 0.67752 0.45579 0.0
H2437 H 0.55857 0.70021 0.44487 0.0
H2438 H 0.53454 0.74373 0.48171 0.0
H2439 H 0.50925 0.72111 0.49156 0.0
H2440 H 0.54591 0.76002 0.45076 0.0
H2441 H 0.57676 0.71693 0.49356 0.0
H2442 H 0.58595 0.6857 0.50723 0.0
H2443 H 0.61419 0.67064 0.45472 0.0
H2444 H 0.60492 0.70165 0.44062 0.0
H2445 H 0.6405 0.80731 0.44406 0.0
H2446 H 0.61156 0.79162 0.45647 0.0
H2447 H 0.61184 0.75276 0.40839 0.0
H2448 H 0.64032 0.76855 0.39566 0.0
H2449 H 0.61311 0.73689 0.44913 0.0
H2450 H 0.5792 0.78052 0.40654 0.0
H2451 H 0.57102 0.8128 0.39481 0.0
H2452 H 0.55032 0.8282 0.45067 0.0
H2453 H 0.55868 0.79607 0.46281 0.0
C2454 C 0.53436 0.69195 0.46153 0.0
C2455 C 0.52032 0.69756 0.47473 0.0
C2456 C 0.5482 0.7049 0.45539 0.0
C2457 C 0.5489 0.72352 0.463 0.0
C2458 C 0.53446 0.72938 0.47581 0.0
C2459 C 0.5201 0.7165 0.48149 0.0
C2460 C 0.56486 0.73654 0.4575 0.0
C2461 C 0.56062 0.75504 0.45076 0.0
C2462 C 0.58417 0.73018 0.45746 0.0
C2463 C 0.59004 0.71159 0.466 0.0
C2464 C 0.58485 0.70693 0.4849 0.0
C2465 C 0.59008 0.68925 0.49272 0.0
C2466 C 0.60062 0.67618 0.48184 0.0
C2467 C 0.60602 0.68077 0.46313 0.0
C2468 C 0.6008 0.69841 0.45522 0.0
C2469 C 0.63411 0.79571 0.43593 0.0
C2470 C 0.64263 0.78918 0.41888 0.0
C2471 C 0.61763 0.78679 0.44303 0.0
C2472 C 0.60967 0.77108 0.43331 0.0
C2473 C 0.61778 0.76494 0.41601 0.0
C2474 C 0.634 0.77404 0.40873 0.0
C2475 C 0.59396 0.75988 0.44194 0.0
C2476 C 0.59836 0.74182 0.44939 0.0
C2477 C 0.57499 0.7668 0.44298 0.0
C2478 C 0.56977 0.78599 0.43563 0.0
C2479 C 0.57308 0.79085 0.41637 0.0
C2480 C 0.56837 0.80911 0.40964 0.0
C2481 C 0.56021 0.82257 0.422 0.0
C2482 C 0.55668 0.81777 0.44111 0.0
C2483 C 0.56138 0.79954 0.44792 0.0
H2484 H 0.55658 0.83669 0.41676 0.0
H2485 H 0.60464 0.6625 0.48792 0.0
H2486 H 0.62812 0.48647 0.39402 0.0
H2487 H 0.6329 0.50538 0.36522 0.0
H2488 H 0.69367 0.49423 0.36798 0.0
H2489 H 0.68903 0.47625 0.39779 0.0
H2490 H 0.68795 0.53034 0.36242 0.0
H2491 H 0.65897 0.47325 0.33254 0.0
H2492 H 0.63281 0.44959 0.32951 0.0
H2493 H 0.5926 0.49488 0.31876 0.0
H2494 H 0.61847 0.51878 0.32186 0.0
H2495 H 0.71541 0.57268 0.2767 0.0
H2496 H 0.70851 0.54893 0.30144 0.0
H2497 H 0.64784 0.55781 0.29295 0.0
H2498 H 0.65486 0.58048 0.26707 0.0
H2499 H 0.65181 0.52332 0.3015 0.0
H2500 H 0.67506 0.57976 0.33129 0.0
H2501 H 0.69677 0.60701 0.33729 0.0
H2502 H 0.74217 0.56814 0.35185 0.0
H2503 H 0.72077 0.54063 0.34575 0.0
C2504 C 0.64248 0.48765 0.38829 0.0
C2505 C 0.65821 0.47969 0.39811 0.0
C2506 C 0.64518 0.49846 0.37169 0.0
C2507 C 0.66361 0.501 0.36407 0.0
C2508 C 0.67928 0.49245 0.37349 0.0
C2509 C 0.67663 0.48204 0.39045 0.0
C2510 C 0.66678 0.51373 0.34721 0.0
C2511 C 0.68033 0.52851 0.34897 0.0
C2512 C 0.65597 0.51226 0.33003 0.0
C2513 C 0.64064 0.49777 0.32748 0.0
C2514 C 0.64455 0.47813 0.32952 0.0
C2515 C 0.62977 0.4647 0.32781 0.0
C2516 C 0.61106 0.47073 0.32396 0.0
C2517 C 0.6071 0.49021 0.32172 0.0
C2518 C 0.62182 0.5037 0.3234 0.0
C2519 C 0.70062 0.56922 0.27988 0.0
C2520 C 0.68567 0.57832 0.27001 0.0
C2521 C 0.69665 0.55584 0.2942 0.0
C2522 C 0.67763 0.55197 0.29961 0.0
C2523 C 0.66264 0.56054 0.28918 0.0
C2524 C 0.66664 0.57347 0.27437 0.0
C2525 C 0.67352 0.53949 0.31648 0.0
C2526 C 0.65965 0.52498 0.31485 0.0
C2527 C 0.68346 0.54166 0.33411 0.0
C2528 C 0.69637 0.55815 0.3379 0.0
C2529 C 0.68971 0.57703 0.33566 0.0
C2530 C 0.70195 0.59252 0.3391 0.0
C2531 C 0.72085 0.58931 0.3449 0.0
C2532 C 0.72753 0.5706 0.34734 0.0
C2533 C 0.71534 0.55505 0.34392 0.0
H2534 H 0.73032 0.60132 0.34754 0.0
H2535 H 0.59964 0.46031 0.3227 0.0
H2536 H 0.72087 0.46323 0.50872 0.0
H2537 H 0.74392 0.4563 0.53447 0.0
H2538 H 0.70231 0.47403 0.5765 0.0
H2539 H 0.67947 0.48115 0.55105 0.0
H2540 H 0.73624 0.48942 0.58411 0.0
H2541 H 0.71282 0.42613 0.56755 0.0
H2542 H 0.70687 0.39863 0.5461 0.0
H2543 H 0.76718 0.3939 0.53506 0.0
H2544 H 0.77346 0.42153 0.55627 0.0
H2545 H 0.76985 0.45381 0.67206 0.0
H2546 H 0.75275 0.46198 0.64277 0.0
H2547 H 0.7975 0.43587 0.60909 0.0
H2548 H 0.81416 0.4266 0.63864 0.0
H2549 H 0.76558 0.42562 0.5946 0.0
H2550 H 0.78952 0.48744 0.61236 0.0
H2551 H 0.79583 0.51471 0.63401 0.0
H2552 H 0.73537 0.52254 0.64215 0.0
H2553 H 0.72871 0.4952 0.6207 0.0
C2554 C 0.7167 0.46576 0.52345 0.0
C2555 C 0.69834 0.47288 0.52778 0.0
C2556 C 0.72984 0.46164 0.53817 0.0
C2557 C 0.72484 0.46451 0.55749 0.0
C2558 C 0.70656 0.47171 0.56175 0.0
C2559 C 0.69349 0.4758 0.54712 0.0
C2560 C 0.73858 0.46059 0.57343 0.0
C2561 C 0.74254 0.47541 0.58646 0.0
C2562 C 0.7474 0.44252 0.5762 0.0
C2563 C 0.74358 0.42605 0.5633 0.0
C2564 C 0.72479 0.41935 0.5604 0.0
C2565 C 0.72136 0.40371 0.54832 0.0
C2566 C 0.73663 0.39457 0.53917 0.0
C2567 C 0.75536 0.40102 0.54212 0.0
C2568 C 0.75886 0.41666 0.55417 0.0
C2569 C 0.77632 0.45018 0.65843 0.0
C2570 C 0.79354 0.43978 0.65773 0.0
C2571 C 0.7665 0.4549 0.64158 0.0
C2572 C 0.77392 0.44992 0.62351 0.0
C2573 C 0.79142 0.43996 0.62277 0.0
C2574 C 0.80105 0.43483 0.63968 0.0
C2575 C 0.76293 0.45439 0.60558 0.0
C2576 C 0.7595 0.4397 0.59215 0.0
C2577 C 0.75467 0.47264 0.60231 0.0
C2578 C 0.75863 0.48923 0.61501 0.0
C2579 C 0.77758 0.49494 0.61883 0.0
C2580 C 0.78122 0.51041 0.63106 0.0
C2581 C 0.76602 0.52033 0.63947 0.0
C2582 C 0.74714 0.51484 0.63562 0.0
C2583 C 0.74342 0.49939 0.6234 0.0
H2584 H 0.76886 0.53229 0.64895 0.0
H2585 H 0.73395 0.38245 0.52984 0.0
H2586 H 0.7928 0.52287 0.92805 0.0
H2587 H 0.78622 0.5103 0.89592 0.0
H2588 H 0.84531 0.51889 0.88036 0.0
H2589 H 0.85213 0.53114 0.91266 0.0
H2590 H 0.81748 0.52947 0.85074 0.0
H2591 H 0.83472 0.47701 0.89117 0.0
H2592 H 0.83316 0.45671 0.92005 0.0
H2593 H 0.77432 0.44348 0.90779 0.0
H2594 H 0.77542 0.46399 0.87904 0.0
H2595 H 0.81412 0.46971 0.767 0.0
H2596 H 0.82201 0.48697 0.79647 0.0
H2597 H 0.7711 0.46429 0.82321 0.0
H2598 H 0.7641 0.44585 0.79418 0.0
H2599 H 0.79699 0.46151 0.84729 0.0
H2600 H 0.77973 0.51521 0.80662 0.0
H2601 H 0.78209 0.53558 0.77785 0.0
H2602 H 0.84139 0.54657 0.79023 0.0
H2603 H 0.83944 0.52608 0.81895 0.0
C2604 C 0.80434 0.52247 0.91771 0.0
C2605 C 0.823 0.5281 0.92298 0.0
C2606 C 0.80057 0.51516 0.89935 0.0
C2607 C 0.81528 0.51353 0.88573 0.0
C2608 C 0.83371 0.52004 0.8906 0.0
C2609 C 0.83758 0.52706 0.90908 0.0
C2610 C 0.81159 0.50397 0.86691 0.0
C2611 C 0.81314 0.51457 0.84991 0.0
C2612 C 0.80581 0.48457 0.86581 0.0
C2613 C 0.80509 0.47223 0.88309 0.0
C2614 C 0.82139 0.46994 0.89476 0.0
C2615 C 0.82061 0.45837 0.91107 0.0
C2616 C 0.80364 0.44887 0.91578 0.0
C2617 C 0.78744 0.45089 0.90415 0.0
C2618 C 0.78813 0.46249 0.88784 0.0
C2619 C 0.80439 0.46874 0.77905 0.0
C2620 C 0.78832 0.4566 0.77815 0.0
C2621 C 0.8089 0.4787 0.79598 0.0
C2622 C 0.79704 0.47737 0.81224 0.0
C2623 C 0.78061 0.46567 0.81104 0.0
C2624 C 0.77646 0.45524 0.79433 0.0
C2625 C 0.80213 0.48714 0.83082 0.0
C2626 C 0.80109 0.47649 0.84792 0.0
C2627 C 0.80837 0.50652 0.83195 0.0
C2628 C 0.80947 0.51899 0.81482 0.0
C2629 C 0.79329 0.5219 0.80314 0.0
C2630 C 0.79456 0.53347 0.78685 0.0
C2631 C 0.81189 0.54233 0.78219 0.0
C2632 C 0.82798 0.53969 0.79385 0.0
C2633 C 0.8268 0.52812 0.81014 0.0
H2634 H 0.81285 0.55127 0.76956 0.0
H2635 H 0.80307 0.4399 0.92841 0.0
H2636 H 0.66717 0.62633 0.14619 0.0
H2637 H 0.68297 0.61225 0.11802 0.0
H2638 H 0.71479 0.57431 0.15486 0.0
H2639 H 0.69875 0.58776 0.1829 0.0
H2640 H 0.73632 0.60164 0.1266 0.0
H2641 H 0.68647 0.55283 0.13232 0.0
H2642 H 0.65278 0.54225 0.13337 0.0
H2643 H 0.64287 0.56682 0.07782 0.0
H2644 H 0.67646 0.57782 0.0766 0.0
H2645 H 0.78925 0.53548 0.07316 0.0
H2646 H 0.76768 0.55127 0.09558 0.0
H2647 H 0.73153 0.56896 0.04865 0.0
H2648 H 0.75329 0.55316 0.0259 0.0
H2649 H 0.71022 0.55589 0.07869 0.0
H2650 H 0.75901 0.60133 0.06976 0.0
H2651 H 0.79134 0.61528 0.06726 0.0
H2652 H 0.80226 0.6018 0.12632 0.0
H2653 H 0.77011 0.58742 0.12909 0.0
C2654 C 0.67709 0.61458 0.14824 0.0
C2655 C 0.68155 0.60809 0.16685 0.0
C2656 C 0.6862 0.60665 0.13213 0.0
C2657 C 0.70015 0.59234 0.13438 0.0
C2658 C 0.70408 0.58536 0.15282 0.0
C2659 C 0.69473 0.59296 0.16884 0.0
C2660 C 0.71163 0.58542 0.1178 0.0
C2661 C 0.73072 0.59148 0.11621 0.0
C2662 C 0.70401 0.57295 0.10374 0.0
C2663 C 0.68387 0.56637 0.10449 0.0
C2664 C 0.67704 0.55618 0.12044 0.0
C2665 C 0.65798 0.55005 0.12104 0.0
C2666 C 0.64567 0.55392 0.1057 0.0
C2667 C 0.65241 0.56387 0.08971 0.0
C2668 C 0.67145 0.57005 0.08905 0.0
C2669 C 0.77665 0.54257 0.06752 0.0
C2670 C 0.773 0.54294 0.04766 0.0
C2671 C 0.76438 0.55176 0.08041 0.0
C2672 C 0.74807 0.56156 0.07385 0.0
C2673 C 0.74405 0.56157 0.05407 0.0
C2674 C 0.75648 0.55248 0.04108 0.0
C2675 C 0.7353 0.57148 0.08786 0.0
C2676 C 0.71591 0.56613 0.08894 0.0
C2677 C 0.74256 0.58497 0.10126 0.0
C2678 C 0.76218 0.59307 0.09956 0.0
C2679 C 0.76838 0.60109 0.08215 0.0
C2680 C 0.78667 0.60913 0.0807 0.0
C2681 C 0.79887 0.60937 0.09661 0.0
C2682 C 0.79281 0.60156 0.114 0.0
C2683 C 0.77455 0.59345 0.11551 0.0
H2684 H 0.81301 0.61566 0.09547 0.0
H2685 H 0.63092 0.54915 0.10618 0.0
H2686 H 0.41062 0.63617 0.80097 0.0
H2687 H 0.41928 0.60688 0.78388 0.0
H2688 H 0.47215 0.63312 0.76573 0.0
H2689 H 0.46343 0.66262 0.78253 0.0
H2690 H 0.45226 0.61818 0.73587 0.0
H2691 H 0.46992 0.59584 0.79996 0.0
H2692 H 0.46293 0.58866 0.83385 0.0
H2693 H 0.41776 0.5505 0.81663 0.0
H2694 H 0.42433 0.55763 0.78266 0.0
H2695 H 0.49615 0.54227 0.68806 0.0
H2696 H 0.48852 0.56797 0.71053 0.0
H2697 H 0.44283 0.53368 0.73416 0.0
H2698 H 0.45134 0.50742 0.71243 0.0
H2699 H 0.45671 0.55215 0.76158 0.0
H2700 H 0.4354 0.57223 0.70057 0.0
H2701 H 0.43658 0.57917 0.66593 0.0
H2702 H 0.48045 0.62124 0.67571 0.0
H2703 H 0.47971 0.61439 0.71038 0.0
C2704 C 0.42431 0.6356 0.79372 0.0
C2705 C 0.43634 0.65181 0.79315 0.0
C2706 C 0.42925 0.61877 0.78395 0.0
C2707 C 0.44641 0.61771 0.77352 0.0
C2708 C 0.45883 0.63358 0.77365 0.0
C2709 C 0.45388 0.65042 0.78338 0.0
C2710 C 0.45078 0.60076 0.76123 0.0
C2711 C 0.45359 0.60378 0.74155 0.0
C2712 C 0.45128 0.58178 0.76837 0.0
C2713 C 0.44754 0.57738 0.78879 0.0
C2714 C 0.45843 0.58601 0.80342 0.0
C2715 C 0.45455 0.58193 0.82264 0.0
C2716 C 0.43989 0.56916 0.82739 0.0
C2717 C 0.42911 0.56039 0.81294 0.0
C2718 C 0.43292 0.56443 0.7937 0.0
C2719 C 0.48465 0.54012 0.69823 0.0
C2720 C 0.47435 0.52283 0.69848 0.0
C2721 C 0.48012 0.55493 0.71096 0.0
C2722 C 0.46468 0.55313 0.72376 0.0
C2723 C 0.45475 0.53558 0.72443 0.0
C2724 C 0.45964 0.52053 0.71201 0.0
C2725 C 0.45886 0.56962 0.73621 0.0
C2726 C 0.45554 0.56653 0.75584 0.0
C2727 C 0.45708 0.5885 0.72891 0.0
C2728 C 0.45765 0.59264 0.70805 0.0
C2729 C 0.44541 0.58286 0.69531 0.0
C2730 C 0.44598 0.58679 0.67568 0.0
C2731 C 0.45863 0.60058 0.66863 0.0
C2732 C 0.47068 0.61053 0.6812 0.0
C2733 C 0.47018 0.60664 0.70084 0.0
H2734 H 0.4591 0.60357 0.65344 0.0
H2735 H 0.4369 0.56604 0.84228 0.0
loop_
_geom_bond_atom_site_label_1
_geom_bond_atom_site_label_2
_geom_bond_distance
_geom_bond_site_symmetry_2
_ccdc_geom_bond_type
O0 Cd1 2.223 . S
O0 C8 1.315 . S
Cd1 O0 2.223 . S
Cd1 O4 2.297 . S
Cd1 O5 2.439 . S
Cd1 O11 2.240 . S
Cd2 O3 2.240 . S
Cd2 O10 2.223 . S
Cd2 O12 2.297 . S
Cd2 O13 2.439 . S
O3 Cd2 2.240 . S
O3 C8 1.279 . S
O4 Cd1 2.297 . S
O4 C6 1.247 . S
O5 Cd1 2.439 . S
O5 C6 1.208 . S
C6 O4 1.247 . S
C6 O5 1.208 . S
C7 O12 1.247 . S
C7 O13 1.208 . S
C8 O0 1.315 . S
C8 O3 1.279 . S
C9 O10 1.315 . S
C9 O11 1.279 . S
O10 Cd2 2.223 . S
O10 C9 1.315 . S
O11 Cd1 2.240 . S
O11 C9 1.279 . S
O12 Cd2 2.297 . S
O12 C7 1.247 . S
O13 Cd2 2.439 . S
O13 C7 1.208 . S
O14 Cd15 2.223 . S
O14 C22 1.315 . S
Cd15 O14 2.223 . S
Cd15 O18 2.297 . S
Cd15 O19 2.439 . S
Cd15 O25 2.240 1_455 S
Cd16 O17 2.240 1_655 S
Cd16 O24 2.223 . S
Cd16 O26 2.297 . S
Cd16 O27 2.439 . S
O17 Cd16 2.240 1_455 S
O17 C22 1.279 . S
O18 Cd15 2.297 . S
O18 C20 1.247 . S
O19 Cd15 2.439 . S
O19 C20 1.208 . S
C20 O18 1.247 . S
C20 O19 1.208 . S
C21 O26 1.247 . S
C21 O27 1.208 . S
C22 O14 1.315 . S
C22 O17 1.279 . S
C23 O24 1.315 . S
C23 O25 1.279 . S
O24 Cd16 2.223 . S
O24 C23 1.315 . S
O25 Cd15 2.240 1_655 S
O25 C23 1.279 . S
O26 Cd16 2.297 . S
O26 C21 1.247 . S
O27 Cd16 2.439 . S
O27 C21 1.208 . S
O28 Cd29 2.223 . S
O28 C36 1.315 . S
Cd29 O28 2.223 . S
Cd29 O32 2.297 . S
Cd29 O33 2.439 . S
Cd29 O39 2.240 . S
Cd30 O31 2.240 . S
Cd30 O38 2.223 . S
Cd30 O40 2.297 . S
Cd30 O41 2.439 . S
O31 Cd30 2.240 . S
O31 C36 1.279 . S
O32 Cd29 2.297 . S
O32 C34 1.247 . S
O33 Cd29 2.439 . S
O33 C34 1.208 . S
C34 O32 1.247 . S
C34 O33 1.208 . S
C35 O40 1.247 . S
C35 O41 1.208 . S
C36 O28 1.315 . S
C36 O31 1.279 . S
C37 O38 1.315 . S
C37 O39 1.279 . S
O38 Cd30 2.223 . S
O38 C37 1.315 . S
O39 Cd29 2.240 . S
O39 C37 1.279 . S
O40 Cd30 2.297 . S
O40 C35 1.247 . S
O41 Cd30 2.439 . S
O41 C35 1.208 . S
O42 Cd43 2.230 . S
O42 C50 1.302 1_556 S
Cd43 O42 2.230 . S
Cd43 O46 2.297 1_556 S
Cd43 O47 2.439 1_556 S
Cd43 O53 2.240 . S
Cd44 O45 2.240 . S
Cd44 O52 2.223 1_554 S
Cd44 O54 2.297 1_554 S
Cd44 O55 2.439 . S
O45 Cd44 2.240 . S
O45 C50 1.279 . S
O46 Cd43 2.297 1_554 S
O46 C48 1.247 . S
O47 Cd43 2.439 1_554 S
O47 C48 1.208 . S
C48 O46 1.247 . S
C48 O47 1.208 . S
C49 O54 1.250 . S
C49 O55 1.203 1_556 S
C50 O42 1.302 1_554 S
C50 O45 1.279 . S
C51 O52 1.315 . S
C51 O53 1.279 . S
O52 Cd44 2.223 1_556 S
O52 C51 1.315 . S
O53 Cd43 2.240 . S
O53 C51 1.279 . S
O54 Cd44 2.297 1_556 S
O54 C49 1.250 . S
O55 Cd44 2.439 . S
O55 C49 1.203 1_554 S
O56 Cd57 2.223 1_455 S
O56 C64 1.315 . S
Cd57 O56 2.223 1_655 S
Cd57 O60 2.297 1_655 S
Cd57 O61 2.439 . S
Cd57 O67 2.240 1_545 S
Cd58 O59 2.214 1_565 S
Cd58 O66 2.228 . S
Cd58 O68 2.297 1_455 S
Cd58 O69 2.439 1_455 S
O59 Cd58 2.214 1_545 S
O59 C64 1.285 . S
O60 Cd57 2.297 1_455 S
O60 C62 1.247 . S
O61 Cd57 2.439 . S
O61 C62 1.208 1_655 S
C62 O60 1.247 . S
C62 O61 1.208 1_455 S
C63 O68 1.247 . S
C63 O69 1.208 . S
C64 O56 1.315 . S
C64 O59 1.285 . S
C65 O66 1.305 1_655 S
C65 O67 1.279 . S
O66 Cd58 2.228 . S
O66 C65 1.305 1_455 S
O67 Cd57 2.240 1_565 S
O67 C65 1.279 . S
O68 Cd58 2.297 1_655 S
O68 C63 1.247 . S
O69 Cd58 2.439 1_655 S
O69 C63 1.208 . S
O70 Cd71 2.223 . S
O70 C78 1.315 . S
Cd71 O70 2.223 . S
Cd71 O74 2.297 . S
Cd71 O75 2.439 . S
Cd71 O81 2.240 . S
Cd72 O73 2.240 . S
Cd72 O80 2.223 . S
Cd72 O82 2.297 . S
Cd72 O83 2.439 . S
O73 Cd72 2.240 . S
O73 C78 1.279 . S
O74 Cd71 2.297 . S
O74 C76 1.247 . S
O75 Cd71 2.439 . S
O75 C76 1.208 . S
C76 O74 1.247 . S
C76 O75 1.208 . S
C77 O82 1.247 . S
C77 O83 1.208 . S
C78 O70 1.315 . S
C78 O73 1.279 . S
C79 O80 1.315 . S
C79 O81 1.279 . S
O80 Cd72 2.223 . S
O80 C79 1.315 . S
O81 Cd71 2.240 . S
O81 C79 1.279 . S
O82 Cd72 2.297 . S
O82 C77 1.247 . S
O83 Cd72 2.439 . S
O83 C77 1.208 . S
O84 Cd85 2.223 . S
O84 C92 1.315 . S
Cd85 O84 2.223 . S
Cd85 O88 2.297 . S
Cd85 O89 2.439 . S
Cd85 O95 2.240 1_565 S
Cd86 O87 2.240 1_545 S
Cd86 O94 2.223 . S
Cd86 O96 2.297 . S
Cd86 O97 2.439 . S
O87 Cd86 2.240 1_565 S
O87 C92 1.279 . S
O88 Cd85 2.297 . S
O88 C90 1.247 . S
O89 Cd85 2.439 . S
O89 C90 1.208 . S
C90 O88 1.247 . S
C90 O89 1.208 . S
C91 O96 1.247 . S
C91 O97 1.208 . S
C92 O84 1.315 . S
C92 O87 1.279 . S
C93 O94 1.315 . S
C93 O95 1.279 . S
O94 Cd86 2.223 . S
O94 C93 1.315 . S
O95 Cd85 2.240 1_545 S
O95 C93 1.279 . S
O96 Cd86 2.297 . S
O96 C91 1.247 . S
O97 Cd86 2.439 . S
O97 C91 1.208 . S
O98 Cd99 2.223 . S
O98 C106 1.315 . S
Cd99 O98 2.223 . S
Cd99 O102 2.297 . S
Cd99 O103 2.439 . S
Cd99 O109 2.240 . S
Cd100 O101 2.240 . S
Cd100 O108 2.223 . S
Cd100 O110 2.297 . S
Cd100 O111 2.439 . S
O101 Cd100 2.240 . S
O101 C106 1.279 . S
O102 Cd99 2.297 . S
O102 C104 1.247 . S
O103 Cd99 2.439 . S
O103 C104 1.208 . S
C104 O102 1.247 . S
C104 O103 1.208 . S
C105 O110 1.247 . S
C105 O111 1.208 . S
C106 O98 1.315 . S
C106 O101 1.279 . S
C107 O108 1.315 . S
C107 O109 1.279 . S
O108 Cd100 2.223 . S
O108 C107 1.315 . S
O109 Cd99 2.240 . S
O109 C107 1.279 . S
O110 Cd100 2.297 . S
O110 C105 1.247 . S
O111 Cd100 2.439 . S
O111 C105 1.208 . S
O112 Cd113 2.223 . S
O112 C120 1.315 . S
Cd113 O112 2.223 . S
Cd113 O116 2.297 . S
Cd113 O117 2.439 . S
Cd113 O123 2.240 . S
Cd114 O115 2.240 . S
Cd114 O122 2.223 . S
Cd114 O124 2.297 . S
Cd114 O125 2.439 . S
O115 Cd114 2.240 . S
O115 C120 1.279 . S
O116 Cd113 2.297 . S
O116 C118 1.247 . S
O117 Cd113 2.439 . S
O117 C118 1.208 . S
C118 O116 1.247 . S
C118 O117 1.208 . S
C119 O124 1.247 . S
C119 O125 1.208 . S
C120 O112 1.315 . S
C120 O115 1.279 . S
C121 O122 1.315 . S
C121 O123 1.279 . S
O122 Cd114 2.223 . S
O122 C121 1.315 . S
O123 Cd113 2.240 . S
O123 C121 1.279 . S
O124 Cd114 2.297 . S
O124 C119 1.247 . S
O125 Cd114 2.439 . S
O125 C119 1.208 . S
O126 Cd127 2.230 . S
O126 C134 1.302 1_565 S
Cd127 O126 2.230 . S
Cd127 O130 2.297 1_565 S
Cd127 O131 2.439 1_565 S
Cd127 O137 2.240 . S
Cd128 O129 2.240 . S
Cd128 O136 2.223 1_545 S
Cd128 O138 2.297 1_545 S
Cd128 O139 2.439 . S
O129 Cd128 2.240 . S
O129 C134 1.279 . S
O130 Cd127 2.297 1_545 S
O130 C132 1.247 . S
O131 Cd127 2.439 1_545 S
O131 C132 1.208 . S
C132 O130 1.247 . S
C132 O131 1.208 . S
C133 O138 1.250 . S
C133 O139 1.203 1_565 S
C134 O126 1.302 1_545 S
C134 O129 1.279 . S
C135 O136 1.315 . S
C135 O137 1.279 . S
O136 Cd128 2.223 1_565 S
O136 C135 1.315 . S
O137 Cd127 2.240 . S
O137 C135 1.279 . S
O138 Cd128 2.297 1_565 S
O138 C133 1.250 . S
O139 Cd128 2.439 . S
O139 C133 1.203 1_545 S
O140 Cd141 2.223 . S
O140 C148 1.315 . S
Cd141 O140 2.223 . S
Cd141 O144 2.297 . S
Cd141 O145 2.439 . S
Cd141 O151 2.240 . S
Cd142 O143 2.240 . S
Cd142 O150 2.223 . S
Cd142 O152 2.297 . S
Cd142 O153 2.439 . S
O143 Cd142 2.240 . S
O143 C148 1.279 . S
O144 Cd141 2.297 . S
O144 C146 1.247 . S
O145 Cd141 2.439 . S
O145 C146 1.208 . S
C146 O144 1.247 . S
C146 O145 1.208 . S
C147 O152 1.247 . S
C147 O153 1.208 . S
C148 O140 1.315 . S
C148 O143 1.279 . S
C149 O150 1.315 . S
C149 O151 1.279 . S
O150 Cd142 2.223 . S
O150 C149 1.315 . S
O151 Cd141 2.240 . S
O151 C149 1.279 . S
O152 Cd142 2.297 . S
O152 C147 1.247 . S
O153 Cd142 2.439 . S
O153 C147 1.208 . S
O154 Cd155 2.223 1_545 S
O154 C162 1.315 . S
Cd155 O154 2.223 1_565 S
Cd155 O158 2.297 1_565 S
Cd155 O159 2.439 . S
Cd155 O165 2.240 1_554 S
Cd156 O157 2.214 1_556 S
Cd156 O164 2.228 . S
Cd156 O166 2.297 1_545 S
Cd156 O167 2.439 1_545 S
O157 Cd156 2.214 1_554 S
O157 C162 1.285 . S
O158 Cd155 2.297 1_545 S
O158 C160 1.247 . S
O159 Cd155 2.439 . S
O159 C160 1.208 1_565 S
C160 O158 1.247 . S
C160 O159 1.208 1_545 S
C161 O166 1.247 . S
C161 O167 1.208 . S
C162 O154 1.315 . S
C162 O157 1.285 . S
C163 O164 1.305 1_565 S
C163 O165 1.279 . S
O164 Cd156 2.228 . S
O164 C163 1.305 1_545 S
O165 Cd155 2.240 1_556 S
O165 C163 1.279 . S
O166 Cd156 2.297 1_565 S
O166 C161 1.247 . S
O167 Cd156 2.439 1_565 S
O167 C161 1.208 . S
O168 Cd169 2.223 . S
O168 C176 1.315 . S
Cd169 O168 2.223 . S
Cd169 O172 2.297 . S
Cd169 O173 2.439 . S
Cd169 O179 2.240 . S
Cd170 O171 2.240 . S
Cd170 O178 2.223 . S
Cd170 O180 2.297 . S
Cd170 O181 2.439 . S
O171 Cd170 2.240 . S
O171 C176 1.279 . S
O172 Cd169 2.297 . S
O172 C174 1.247 . S
O173 Cd169 2.439 . S
O173 C174 1.208 . S
C174 O172 1.247 . S
C174 O173 1.208 . S
C175 O180 1.247 . S
C175 O181 1.208 . S
C176 O168 1.315 . S
C176 O171 1.279 . S
C177 O178 1.315 . S
C177 O179 1.279 . S
O178 Cd170 2.223 . S
O178 C177 1.315 . S
O179 Cd169 2.240 . S
O179 C177 1.279 . S
O180 Cd170 2.297 . S
O180 C175 1.247 . S
O181 Cd170 2.439 . S
O181 C175 1.208 . S
O182 Cd183 2.230 . S
O182 C190 1.302 1_655 S
Cd183 O182 2.230 . S
Cd183 O186 2.297 1_655 S
Cd183 O187 2.439 1_655 S
Cd183 O193 2.240 . S
Cd184 O185 2.240 . S
Cd184 O192 2.223 1_455 S
Cd184 O194 2.297 1_455 S
Cd184 O195 2.439 . S
O185 Cd184 2.240 . S
O185 C190 1.279 . S
O186 Cd183 2.297 1_455 S
O186 C188 1.247 . S
O187 Cd183 2.439 1_455 S
O187 C188 1.208 . S
C188 O186 1.247 . S
C188 O187 1.208 . S
C189 O194 1.250 . S
C189 O195 1.203 1_655 S
C190 O182 1.302 1_455 S
C190 O185 1.279 . S
C191 O192 1.315 . S
C191 O193 1.279 . S
O192 Cd184 2.223 1_655 S
O192 C191 1.315 . S
O193 Cd183 2.240 . S
O193 C191 1.279 . S
O194 Cd184 2.297 1_655 S
O194 C189 1.250 . S
O195 Cd184 2.439 . S
O195 C189 1.203 1_455 S
O196 Cd197 2.223 . S
O196 C204 1.315 . S
Cd197 O196 2.223 . S
Cd197 O200 2.297 . S
Cd197 O201 2.439 . S
Cd197 O207 2.240 . S
Cd198 O199 2.240 . S
Cd198 O206 2.223 . S
Cd198 O208 2.297 . S
Cd198 O209 2.439 . S
O199 Cd198 2.240 . S
O199 C204 1.279 . S
O200 Cd197 2.297 . S
O200 C202 1.247 . S
O201 Cd197 2.439 . S
O201 C202 1.208 . S
C202 O200 1.247 . S
C202 O201 1.208 . S
C203 O208 1.247 . S
C203 O209 1.208 . S
C204 O196 1.315 . S
C204 O199 1.279 . S
C205 O206 1.315 . S
C205 O207 1.279 . S
O206 Cd198 2.223 . S
O206 C205 1.315 . S
O207 Cd197 2.240 . S
O207 C205 1.279 . S
O208 Cd198 2.297 . S
O208 C203 1.247 . S
O209 Cd198 2.439 . S
O209 C203 1.208 . S
O210 Cd211 2.223 . S
O210 C218 1.315 . S
Cd211 O210 2.223 . S
Cd211 O214 2.297 . S
Cd211 O215 2.439 . S
Cd211 O221 2.240 . S
Cd212 O213 2.240 . S
Cd212 O220 2.223 . S
Cd212 O222 2.297 . S
Cd212 O223 2.439 . S
O213 Cd212 2.240 . S
O213 C218 1.279 . S
O214 Cd211 2.297 . S
O214 C216 1.247 . S
O215 Cd211 2.439 . S
O215 C216 1.208 . S
C216 O214 1.247 . S
C216 O215 1.208 . S
C217 O222 1.247 . S
C217 O223 1.208 . S
C218 O210 1.315 . S
C218 O213 1.279 . S
C219 O220 1.315 . S
C219 O221 1.279 . S
O220 Cd212 2.223 . S
O220 C219 1.315 . S
O221 Cd211 2.240 . S
O221 C219 1.279 . S
O222 Cd212 2.297 . S
O222 C217 1.247 . S
O223 Cd212 2.439 . S
O223 C217 1.208 . S
O224 Cd225 2.223 . S
O224 C232 1.315 . S
Cd225 O224 2.223 . S
Cd225 O228 2.297 . S
Cd225 O229 2.439 . S
Cd225 O235 2.240 . S
Cd226 O227 2.240 . S
Cd226 O234 2.223 . S
Cd226 O236 2.297 . S
Cd226 O237 2.439 . S
O227 Cd226 2.240 . S
O227 C232 1.279 . S
O228 Cd225 2.297 . S
O228 C230 1.247 . S
O229 Cd225 2.439 . S
O229 C230 1.208 . S
C230 O228 1.247 . S
C230 O229 1.208 . S
C231 O236 1.247 . S
C231 O237 1.208 . S
C232 O224 1.315 . S
C232 O227 1.279 . S
C233 O234 1.315 . S
C233 O235 1.279 . S
O234 Cd226 2.223 . S
O234 C233 1.315 . S
O235 Cd225 2.240 . S
O235 C233 1.279 . S
O236 Cd226 2.297 . S
O236 C231 1.247 . S
O237 Cd226 2.439 . S
O237 C231 1.208 . S
O238 Cd239 2.223 . S
O238 C246 1.315 . S
Cd239 O238 2.223 . S
Cd239 O242 2.297 . S
Cd239 O243 2.439 . S
Cd239 O249 2.240 . S
Cd240 O241 2.240 . S
Cd240 O248 2.223 . S
Cd240 O250 2.297 . S
Cd240 O251 2.439 . S
O241 Cd240 2.240 . S
O241 C246 1.279 . S
O242 Cd239 2.297 . S
O242 C244 1.247 . S
O243 Cd239 2.439 . S
O243 C244 1.208 . S
C244 O242 1.247 . S
C244 O243 1.208 . S
C245 O250 1.247 . S
C245 O251 1.208 . S
C246 O238 1.315 . S
C246 O241 1.279 . S
C247 O248 1.315 . S
C247 O249 1.279 . S
O248 Cd240 2.223 . S
O248 C247 1.315 . S
O249 Cd239 2.240 . S
O249 C247 1.279 . S
O250 Cd240 2.297 . S
O250 C245 1.247 . S
O251 Cd240 2.439 . S
O251 C245 1.208 . S
O252 Cd253 2.223 1_554 S
O252 C260 1.315 . S
Cd253 O252 2.223 1_556 S
Cd253 O256 2.297 1_556 S
Cd253 O257 2.439 . S
Cd253 O263 2.240 1_455 S
Cd254 O255 2.214 1_655 S
Cd254 O262 2.228 . S
Cd254 O264 2.297 1_554 S
Cd254 O265 2.439 1_554 S
O255 Cd254 2.214 1_455 S
O255 C260 1.285 . S
O256 Cd253 2.297 1_554 S
O256 C258 1.247 . S
O257 Cd253 2.439 . S
O257 C258 1.208 1_556 S
C258 O256 1.247 . S
C258 O257 1.208 1_554 S
C259 O264 1.247 . S
C259 O265 1.208 . S
C260 O252 1.315 . S
C260 O255 1.285 . S
C261 O262 1.305 1_556 S
C261 O263 1.279 . S
O262 Cd254 2.228 . S
O262 C261 1.305 1_554 S
O263 Cd253 2.240 1_655 S
O263 C261 1.279 . S
O264 Cd254 2.297 1_556 S
O264 C259 1.247 . S
O265 Cd254 2.439 1_556 S
O265 C259 1.208 . S
O266 Cd267 2.223 . S
O266 C274 1.315 . S
Cd267 O266 2.223 . S
Cd267 O270 2.297 . S
Cd267 O271 2.439 . S
Cd267 O277 2.240 . S
Cd268 O269 2.240 . S
Cd268 O276 2.223 . S
Cd268 O278 2.297 . S
Cd268 O279 2.439 . S
O269 Cd268 2.240 . S
O269 C274 1.279 . S
O270 Cd267 2.297 . S
O270 C272 1.247 . S
O271 Cd267 2.439 . S
O271 C272 1.208 . S
C272 O270 1.247 . S
C272 O271 1.208 . S
C273 O278 1.247 . S
C273 O279 1.208 . S
C274 O266 1.315 . S
C274 O269 1.279 . S
C275 O276 1.315 . S
C275 O277 1.279 . S
O276 Cd268 2.223 . S
O276 C275 1.315 . S
O277 Cd267 2.240 . S
O277 C275 1.279 . S
O278 Cd268 2.297 . S
O278 C273 1.247 . S
O279 Cd268 2.439 . S
O279 C273 1.208 . S
O280 Cd281 2.223 . S
O280 C288 1.315 . S
Cd281 O280 2.223 . S
Cd281 O284 2.297 . S
Cd281 O285 2.439 . S
Cd281 O291 2.240 . S
Cd282 O283 2.240 . S
Cd282 O290 2.223 . S
Cd282 O292 2.297 . S
Cd282 O293 2.439 . S
O283 Cd282 2.240 . S
O283 C288 1.279 . S
O284 Cd281 2.297 . S
O284 C286 1.247 . S
O285 Cd281 2.439 . S
O285 C286 1.208 . S
C286 O284 1.247 . S
C286 O285 1.208 . S
C287 O292 1.247 . S
C287 O293 1.208 . S
C288 O280 1.315 . S
C288 O283 1.279 . S
C289 O290 1.315 . S
C289 O291 1.279 . S
O290 Cd282 2.223 . S
O290 C289 1.315 . S
O291 Cd281 2.240 . S
O291 C289 1.279 . S
O292 Cd282 2.297 . S
O292 C287 1.247 . S
O293 Cd282 2.439 . S
O293 C287 1.208 . S
O294 Cd295 2.223 . S
O294 C302 1.315 . S
Cd295 O294 2.223 . S
Cd295 O298 2.297 . S
Cd295 O299 2.439 . S
Cd295 O305 2.240 . S
Cd296 O297 2.240 . S
Cd296 O304 2.223 . S
Cd296 O306 2.297 . S
Cd296 O307 2.439 . S
O297 Cd296 2.240 . S
O297 C302 1.279 . S
O298 Cd295 2.297 . S
O298 C300 1.247 . S
O299 Cd295 2.439 . S
O299 C300 1.208 . S
C300 O298 1.247 . S
C300 O299 1.208 . S
C301 O306 1.247 . S
C301 O307 1.208 . S
C302 O294 1.315 . S
C302 O297 1.279 . S
C303 O304 1.315 . S
C303 O305 1.279 . S
O304 Cd296 2.223 . S
O304 C303 1.315 . S
O305 Cd295 2.240 . S
O305 C303 1.279 . S
O306 Cd296 2.297 . S
O306 C301 1.247 . S
O307 Cd296 2.439 . S
O307 C301 1.208 . S
O308 Cd309 2.223 . S
O308 C316 1.315 . S
Cd309 O308 2.223 . S
Cd309 O312 2.297 . S
Cd309 O313 2.439 . S
Cd309 O319 2.240 1_556 S
Cd310 O311 2.240 1_554 S
Cd310 O318 2.223 . S
Cd310 O320 2.297 . S
Cd310 O321 2.439 . S
O311 Cd310 2.240 1_556 S
O311 C316 1.279 . S
O312 Cd309 2.297 . S
O312 C314 1.247 . S
O313 Cd309 2.439 . S
O313 C314 1.208 . S
C314 O312 1.247 . S
C314 O313 1.208 . S
C315 O320 1.247 . S
C315 O321 1.208 . S
C316 O308 1.315 . S
C316 O311 1.279 . S
C317 O318 1.315 . S
C317 O319 1.279 . S
O318 Cd310 2.223 . S
O318 C317 1.315 . S
O319 Cd309 2.240 1_554 S
O319 C317 1.279 . S
O320 Cd310 2.297 . S
O320 C315 1.247 . S
O321 Cd310 2.439 . S
O321 C315 1.208 . S
O322 Cd323 2.223 . S
O322 C330 1.315 . S
Cd323 O322 2.223 . S
Cd323 O326 2.297 . S
Cd323 O327 2.439 . S
Cd323 O333 2.240 . S
Cd324 O325 2.240 . S
Cd324 O332 2.223 . S
Cd324 O334 2.297 . S
Cd324 O335 2.439 . S
O325 Cd324 2.240 . S
O325 C330 1.279 . S
O326 Cd323 2.297 . S
O326 C328 1.247 . S
O327 Cd323 2.439 . S
O327 C328 1.208 . S
C328 O326 1.247 . S
C328 O327 1.208 . S
C329 O334 1.247 . S
C329 O335 1.208 . S
C330 O322 1.315 . S
C330 O325 1.279 . S
C331 O332 1.315 . S
C331 O333 1.279 . S
O332 Cd324 2.223 . S
O332 C331 1.315 . S
O333 Cd323 2.240 . S
O333 C331 1.279 . S
O334 Cd324 2.297 . S
O334 C329 1.247 . S
O335 Cd324 2.439 . S
O335 C329 1.208 . S
H336 C354 0.951 . S
H337 C356 0.951 . S
H338 C358 0.950 . S
H339 C359 0.950 . S
H340 C361 0.950 . S
H341 C364 0.950 . S
H342 C365 0.950 . S
H343 C367 0.950 . S
H344 C368 0.950 . S
H345 C369 0.951 . S
H346 C371 0.951 . S
H347 C373 0.950 . S
H348 C374 0.950 . S
H349 C376 0.950 . S
H350 C379 0.950 . S
H351 C380 0.950 . S
H352 C382 0.950 . S
H353 C383 0.950 . S
C354 H336 0.951 . S
C354 C355 1.366 . S
C354 C356 1.388 . S
C355 C354 1.366 . S
C355 C359 1.385 . S
C356 H337 0.951 . S
C356 C354 1.388 . S
C356 C357 1.366 . S
C357 C356 1.366 . S
C357 C358 1.414 . S
C357 C360 1.499 . S
C358 H338 0.950 . S
C358 C357 1.414 . S
C358 C359 1.374 . S
C359 H339 0.950 . S
C359 C355 1.385 . S
C359 C358 1.374 . S
C360 C357 1.499 . S
C360 C361 1.373 . S
C360 C362 1.389 . S
C361 H340 0.950 . S
C361 C360 1.373 . S
C361 C377 1.377 . S
C362 C360 1.389 . S
C362 C363 1.524 . S
C362 C376 1.377 . S
C363 C362 1.524 . S
C363 C364 1.397 . S
C363 C368 1.363 . S
C364 H341 0.950 . S
C364 C363 1.397 . S
C364 C365 1.334 . S
C365 H342 0.950 . S
C365 C364 1.334 . S
C365 C366 1.287 . S
C366 C365 1.287 . S
C366 C367 1.524 . S
C366 H385 0.913 . S
C367 H343 0.950 . S
C367 C366 1.524 . S
C367 C368 1.415 . S
C368 H344 0.950 . S
C368 C363 1.363 . S
C368 C367 1.415 . S
C369 H345 0.951 . S
C369 C370 1.366 . S
C369 C371 1.388 . S
C370 C369 1.366 . S
C370 C374 1.385 . S
C371 H346 0.951 . S
C371 C369 1.388 . S
C371 C372 1.366 . S
C372 C371 1.366 . S
C372 C373 1.414 . S
C372 C375 1.499 . S
C373 H347 0.950 . S
C373 C372 1.414 . S
C373 C374 1.374 . S
C374 H348 0.950 . S
C374 C370 1.385 . S
C374 C373 1.374 . S
C375 C372 1.499 . S
C375 C376 1.373 . S
C375 C377 1.389 . S
C376 H349 0.950 . S
C376 C362 1.377 . S
C376 C375 1.373 . S
C377 C361 1.377 . S
C377 C375 1.389 . S
C377 C378 1.524 . S
C378 C377 1.524 . S
C378 C379 1.397 . S
C378 C383 1.363 . S
C379 H350 0.950 . S
C379 C378 1.397 . S
C379 C380 1.334 . S
C380 H351 0.950 . S
C380 C379 1.334 . S
C380 C381 1.287 . S
C381 C380 1.287 . S
C381 C382 1.524 . S
C381 H384 0.999 . S
C382 H352 0.950 . S
C382 C381 1.524 . S
C382 C383 1.415 . S
C383 H353 0.950 . S
C383 C378 1.363 . S
C383 C382 1.415 . S
H384 C381 0.999 . S
H385 C366 0.913 . S
H386 C404 0.951 . S
H387 C406 0.951 . S
H388 C408 0.950 . S
H389 C409 0.950 . S
H390 C411 0.950 . S
H391 C414 0.950 . S
H392 C415 0.950 . S
H393 C417 0.950 . S
H394 C418 0.950 . S
H395 C419 0.951 . S
H396 C421 0.951 . S
H397 C423 0.950 1_455 S
H398 C424 0.950 1_455 S
H399 C426 0.950 . S
H400 C429 0.950 . S
H401 C430 0.950 . S
H402 C432 0.950 . S
H403 C433 0.950 . S
C404 H386 0.951 . S
C404 C405 1.366 1_455 S
C404 C406 1.388 . S
C405 C404 1.366 1_655 S
C405 C409 1.385 . S
C406 H387 0.951 . S
C406 C404 1.388 . S
C406 C407 1.366 1_455 S
C407 C406 1.366 1_655 S
C407 C408 1.414 . S
C407 C410 1.499 . S
C408 H388 0.950 . S
C408 C407 1.414 . S
C408 C409 1.374 . S
C409 H389 0.950 . S
C409 C405 1.385 . S
C409 C408 1.374 . S
C410 C407 1.499 . S
C410 C411 1.373 . S
C410 C412 1.389 1_655 S
C411 H390 0.950 . S
C411 C410 1.373 . S
C411 C427 1.377 . S
C412 C410 1.389 1_455 S
C412 C413 1.524 . S
C412 C426 1.377 . S
C413 C412 1.524 . S
C413 C414 1.397 . S
C413 C418 1.363 . S
C414 H391 0.950 . S
C414 C413 1.397 . S
C414 C415 1.334 . S
C415 H392 0.950 . S
C415 C414 1.334 . S
C415 C416 1.287 . S
C416 C415 1.287 . S
C416 C417 1.524 . S
C416 H435 0.913 . S
C417 H393 0.950 . S
C417 C416 1.524 . S
C417 C418 1.415 . S
C418 H394 0.950 . S
C418 C413 1.363 . S
C418 C417 1.415 . S
C419 H395 0.951 . S
C419 C420 1.366 . S
C419 C421 1.388 . S
C420 C419 1.366 . S
C420 C424 1.385 . S
C421 H396 0.951 . S
C421 C419 1.388 . S
C421 C422 1.366 . S
C422 C421 1.366 . S
C422 C423 1.414 . S
C422 C425 1.499 . S
C423 H397 0.950 1_655 S
C423 C422 1.414 . S
C423 C424 1.374 . S
C424 H398 0.950 1_655 S
C424 C420 1.385 . S
C424 C423 1.374 . S
C425 C422 1.499 . S
C425 C426 1.373 1_655 S
C425 C427 1.389 . S
C426 H399 0.950 . S
C426 C412 1.377 . S
C426 C425 1.373 1_455 S
C427 C411 1.377 . S
C427 C425 1.389 . S
C427 C428 1.524 . S
C428 C427 1.524 . S
C428 C429 1.397 . S
C428 C433 1.363 . S
C429 H400 0.950 . S
C429 C428 1.397 . S
C429 C430 1.334 . S
C430 H401 0.950 . S
C430 C429 1.334 . S
C430 C431 1.287 . S
C431 C430 1.287 . S
C431 C432 1.524 . S
C431 H434 0.999 . S
C432 H402 0.950 . S
C432 C431 1.524 . S
C432 C433 1.415 . S
C433 H403 0.950 . S
C433 C428 1.363 . S
C433 C432 1.415 . S
H434 C431 0.999 . S
H435 C416 0.913 . S
H436 C454 0.951 . S
H437 C456 0.951 . S
H438 C458 0.950 . S
H439 C459 0.950 . S
H440 C461 0.950 . S
H441 C464 0.950 . S
H442 C465 0.950 . S
H443 C467 0.950 . S
H444 C468 0.950 . S
H445 C469 0.951 . S
H446 C471 0.951 . S
H447 C473 0.950 . S
H448 C474 0.950 . S
H449 C476 0.950 . S
H450 C479 0.950 . S
H451 C480 0.950 . S
H452 C482 0.950 . S
H453 C483 0.950 . S
C454 H436 0.951 . S
C454 C455 1.366 . S
C454 C456 1.388 . S
C455 C454 1.366 . S
C455 C459 1.385 . S
C456 H437 0.951 . S
C456 C454 1.388 . S
C456 C457 1.366 . S
C457 C456 1.366 . S
C457 C458 1.414 . S
C457 C460 1.499 . S
C458 H438 0.950 . S
C458 C457 1.414 . S
C458 C459 1.374 . S
C459 H439 0.950 . S
C459 C455 1.385 . S
C459 C458 1.374 . S
C460 C457 1.499 . S
C460 C461 1.373 . S
C460 C462 1.389 . S
C461 H440 0.950 . S
C461 C460 1.373 . S
C461 C477 1.377 . S
C462 C460 1.389 . S
C462 C463 1.524 . S
C462 C476 1.377 . S
C463 C462 1.524 . S
C463 C464 1.397 . S
C463 C468 1.363 . S
C464 H441 0.950 . S
C464 C463 1.397 . S
C464 C465 1.334 . S
C465 H442 0.950 . S
C465 C464 1.334 . S
C465 C466 1.287 . S
C466 C465 1.287 . S
C466 C467 1.524 . S
C466 H485 0.913 . S
C467 H443 0.950 . S
C467 C466 1.524 . S
C467 C468 1.415 . S
C468 H444 0.950 . S
C468 C463 1.363 . S
C468 C467 1.415 . S
C469 H445 0.951 . S
C469 C470 1.366 . S
C469 C471 1.388 . S
C470 C469 1.366 . S
C470 C474 1.385 . S
C471 H446 0.951 . S
C471 C469 1.388 . S
C471 C472 1.366 . S
C472 C471 1.366 . S
C472 C473 1.414 . S
C472 C475 1.499 . S
C473 H447 0.950 . S
C473 C472 1.414 . S
C473 C474 1.374 . S
C474 H448 0.950 . S
C474 C470 1.385 . S
C474 C473 1.374 . S
C475 C472 1.499 . S
C475 C476 1.373 . S
C475 C477 1.389 . S
C476 H449 0.950 . S
C476 C462 1.377 . S
C476 C475 1.373 . S
C477 C461 1.377 . S
C477 C475 1.389 . S
C477 C478 1.524 . S
C478 C477 1.524 . S
C478 C479 1.397 . S
C478 C483 1.363 . S
C479 H450 0.950 . S
C479 C478 1.397 . S
C479 C480 1.334 . S
C480 H451 0.950 . S
C480 C479 1.334 . S
C480 C481 1.287 . S
C481 C480 1.287 . S
C481 C482 1.524 . S
C481 H484 0.999 . S
C482 H452 0.950 . S
C482 C481 1.524 . S
C482 C483 1.415 . S
C483 H453 0.950 . S
C483 C478 1.363 . S
C483 C482 1.415 . S
H484 C481 0.999 . S
H485 C466 0.913 . S
H486 C504 0.951 . S
H487 C506 0.951 . S
H488 C508 0.950 . S
H489 C509 0.950 . S
H490 C511 0.950 . S
H491 C514 0.950 . S
H492 C515 0.950 . S
H493 C517 0.950 . S
H494 C518 0.950 . S
H495 C519 0.951 . S
H496 C521 0.951 . S
H497 C523 0.950 . S
H498 C524 0.950 . S
H499 C526 0.950 . S
H500 C529 0.950 . S
H501 C530 0.950 . S
H502 C532 0.950 . S
H503 C533 0.950 . S
C504 H486 0.951 . S
C504 C505 1.366 . S
C504 C506 1.388 . S
C505 C504 1.366 . S
C505 C509 1.385 . S
C506 H487 0.951 . S
C506 C504 1.388 . S
C506 C507 1.366 . S
C507 C506 1.366 . S
C507 C508 1.414 . S
C507 C510 1.499 . S
C508 H488 0.950 . S
C508 C507 1.414 . S
C508 C509 1.374 . S
C509 H489 0.950 . S
C509 C505 1.385 . S
C509 C508 1.374 . S
C510 C507 1.499 . S
C510 C511 1.373 . S
C510 C512 1.389 . S
C511 H490 0.950 . S
C511 C510 1.373 . S
C511 C527 1.377 . S
C512 C510 1.389 . S
C512 C513 1.524 . S
C512 C526 1.377 . S
C513 C512 1.524 . S
C513 C514 1.397 . S
C513 C518 1.363 . S
C514 H491 0.950 . S
C514 C513 1.397 . S
C514 C515 1.334 . S
C515 H492 0.950 . S
C515 C514 1.334 . S
C515 C516 1.287 . S
C516 C515 1.287 . S
C516 C517 1.524 . S
C516 H535 0.913 . S
C517 H493 0.950 . S
C517 C516 1.524 . S
C517 C518 1.415 . S
C518 H494 0.950 . S
C518 C513 1.363 . S
C518 C517 1.415 . S
C519 H495 0.951 . S
C519 C520 1.366 . S
C519 C521 1.388 . S
C520 C519 1.366 . S
C520 C524 1.385 . S
C521 H496 0.951 . S
C521 C519 1.388 . S
C521 C522 1.366 . S
C522 C521 1.366 . S
C522 C523 1.414 . S
C522 C525 1.499 . S
C523 H497 0.950 . S
C523 C522 1.414 . S
C523 C524 1.374 . S
C524 H498 0.950 . S
C524 C520 1.385 . S
C524 C523 1.374 . S
C525 C522 1.499 . S
C525 C526 1.373 . S
C525 C527 1.389 . S
C526 H499 0.950 . S
C526 C512 1.377 . S
C526 C525 1.373 . S
C527 C511 1.377 . S
C527 C525 1.389 . S
C527 C528 1.524 . S
C528 C527 1.524 . S
C528 C529 1.397 . S
C528 C533 1.363 . S
C529 H500 0.950 . S
C529 C528 1.397 . S
C529 C530 1.334 . S
C530 H501 0.950 . S
C530 C529 1.334 . S
C530 C531 1.287 . S
C531 C530 1.287 . S
C531 C532 1.524 . S
C531 H534 0.999 . S
C532 H502 0.950 . S
C532 C531 1.524 . S
C532 C533 1.415 . S
C533 H503 0.950 . S
C533 C528 1.363 . S
C533 C532 1.415 . S
H534 C531 0.999 . S
H535 C516 0.913 . S
H536 C554 0.951 . S
H537 C556 0.951 . S
H538 C558 0.950 . S
H539 C559 0.950 . S
H540 C561 0.950 . S
H541 C564 0.950 . S
H542 C565 0.950 . S
H543 C567 0.950 . S
H544 C568 0.950 . S
H545 C569 0.951 . S
H546 C571 0.951 . S
H547 C573 0.950 . S
H548 C574 0.950 . S
H549 C576 0.950 . S
H550 C579 0.950 . S
H551 C580 0.950 . S
H552 C582 0.950 . S
H553 C583 0.950 . S
C554 H536 0.951 . S
C554 C555 1.366 . S
C554 C556 1.388 . S
C555 C554 1.366 . S
C555 C559 1.385 . S
C556 H537 0.951 . S
C556 C554 1.388 . S
C556 C557 1.366 . S
C557 C556 1.366 . S
C557 C558 1.414 . S
C557 C560 1.499 . S
C558 H538 0.950 . S
C558 C557 1.414 . S
C558 C559 1.374 . S
C559 H539 0.950 . S
C559 C555 1.385 . S
C559 C558 1.374 . S
C560 C557 1.499 . S
C560 C561 1.373 . S
C560 C562 1.389 . S
C561 H540 0.950 . S
C561 C560 1.373 . S
C561 C577 1.377 . S
C562 C560 1.389 . S
C562 C563 1.524 . S
C562 C576 1.377 . S
C563 C562 1.524 . S
C563 C564 1.397 . S
C563 C568 1.363 . S
C564 H541 0.950 . S
C564 C563 1.397 . S
C564 C565 1.334 . S
C565 H542 0.950 . S
C565 C564 1.334 . S
C565 C566 1.287 . S
C566 C565 1.287 . S
C566 C567 1.524 . S
C566 H585 0.913 . S
C567 H543 0.950 . S
C567 C566 1.524 . S
C567 C568 1.415 . S
C568 H544 0.950 . S
C568 C563 1.363 . S
C568 C567 1.415 . S
C569 H545 0.951 . S
C569 C570 1.366 . S
C569 C571 1.388 . S
C570 C569 1.366 . S
C570 C574 1.385 . S
C571 H546 0.951 . S
C571 C569 1.388 . S
C571 C572 1.366 . S
C572 C571 1.366 . S
C572 C573 1.414 . S
C572 C575 1.499 . S
C573 H547 0.950 . S
C573 C572 1.414 . S
C573 C574 1.374 . S
C574 H548 0.950 . S
C574 C570 1.385 . S
C574 C573 1.374 . S
C575 C572 1.499 . S
C575 C576 1.373 . S
C575 C577 1.389 . S
C576 H549 0.950 . S
C576 C562 1.377 . S
C576 C575 1.373 . S
C577 C561 1.377 . S
C577 C575 1.389 . S
C577 C578 1.524 . S
C578 C577 1.524 . S
C578 C579 1.397 . S
C578 C583 1.363 . S
C579 H550 0.950 . S
C579 C578 1.397 . S
C579 C580 1.334 . S
C580 H551 0.950 . S
C580 C579 1.334 . S
C580 C581 1.287 . S
C581 C580 1.287 . S
C581 C582 1.524 . S
C581 H584 0.999 . S
C582 H552 0.950 . S
C582 C581 1.524 . S
C582 C583 1.415 . S
C583 H553 0.950 . S
C583 C578 1.363 . S
C583 C582 1.415 . S
H584 C581 0.999 . S
H585 C566 0.913 . S
H586 C604 0.951 . S
H587 C606 0.951 . S
H588 C608 0.950 . S
H589 C609 0.950 . S
H590 C611 0.950 . S
H591 C614 0.950 . S
H592 C615 0.950 . S
H593 C617 0.950 . S
H594 C618 0.950 . S
H595 C619 0.951 . S
H596 C621 0.951 . S
H597 C623 0.950 . S
H598 C624 0.950 . S
H599 C626 0.950 . S
H600 C629 0.950 . S
H601 C630 0.950 . S
H602 C632 0.950 . S
H603 C633 0.950 . S
C604 H586 0.951 . S
C604 C605 1.366 . S
C604 C606 1.388 . S
C605 C604 1.366 . S
C605 C609 1.385 . S
C606 H587 0.951 . S
C606 C604 1.388 . S
C606 C607 1.366 . S
C607 C606 1.366 . S
C607 C608 1.414 . S
C607 C610 1.499 . S
C608 H588 0.950 . S
C608 C607 1.414 . S
C608 C609 1.374 . S
C609 H589 0.950 . S
C609 C605 1.385 . S
C609 C608 1.374 . S
C610 C607 1.499 . S
C610 C611 1.373 . S
C610 C612 1.389 . S
C611 H590 0.950 . S
C611 C610 1.373 . S
C611 C627 1.377 . S
C612 C610 1.389 . S
C612 C613 1.524 . S
C612 C626 1.377 . S
C613 C612 1.524 . S
C613 C614 1.397 . S
C613 C618 1.363 . S
C614 H591 0.950 . S
C614 C613 1.397 . S
C614 C615 1.334 . S
C615 H592 0.950 . S
C615 C614 1.334 . S
C615 C616 1.287 . S
C616 C615 1.287 . S
C616 C617 1.524 . S
C616 H635 0.913 . S
C617 H593 0.950 . S
C617 C616 1.524 . S
C617 C618 1.415 . S
C618 H594 0.950 . S
C618 C613 1.363 . S
C618 C617 1.415 . S
C619 H595 0.951 . S
C619 C620 1.366 . S
C619 C621 1.388 . S
C620 C619 1.366 . S
C620 C624 1.385 . S
C621 H596 0.951 . S
C621 C619 1.388 . S
C621 C622 1.366 . S
C622 C621 1.366 . S
C622 C623 1.414 . S
C622 C625 1.499 . S
C623 H597 0.950 . S
C623 C622 1.414 . S
C623 C624 1.374 . S
C624 H598 0.950 . S
C624 C620 1.385 . S
C624 C623 1.374 . S
C625 C622 1.499 . S
C625 C626 1.373 . S
C625 C627 1.389 . S
C626 H599 0.950 . S
C626 C612 1.377 . S
C626 C625 1.373 . S
C627 C611 1.377 . S
C627 C625 1.389 . S
C627 C628 1.524 . S
C628 C627 1.524 . S
C628 C629 1.397 . S
C628 C633 1.363 . S
C629 H600 0.950 . S
C629 C628 1.397 . S
C629 C630 1.334 . S
C630 H601 0.950 . S
C630 C629 1.334 . S
C630 C631 1.287 . S
C631 C630 1.287 . S
C631 C632 1.524 . S
C631 H634 0.999 . S
C632 H602 0.950 . S
C632 C631 1.524 . S
C632 C633 1.415 . S
C633 H603 0.950 . S
C633 C628 1.363 . S
C633 C632 1.415 . S
H634 C631 0.999 . S
H635 C616 0.913 . S
H636 C654 0.951 . S
H637 C656 0.951 . S
H638 C658 0.950 . S
H639 C659 0.950 . S
H640 C661 0.950 . S
H641 C664 0.950 . S
H642 C665 0.950 . S
H643 C667 0.950 . S
H644 C668 0.950 . S
H645 C669 0.951 . S
H646 C671 0.951 . S
H647 C673 0.950 . S
H648 C674 0.950 . S
H649 C676 0.950 . S
H650 C679 0.950 . S
H651 C680 0.950 . S
H652 C682 0.950 . S
H653 C683 0.950 . S
C654 H636 0.951 . S
C654 C655 1.366 . S
C654 C656 1.388 . S
C655 C654 1.366 . S
C655 C659 1.385 . S
C656 H637 0.951 . S
C656 C654 1.388 . S
C656 C657 1.366 . S
C657 C656 1.366 . S
C657 C658 1.414 . S
C657 C660 1.499 . S
C658 H638 0.950 . S
C658 C657 1.414 . S
C658 C659 1.374 . S
C659 H639 0.950 . S
C659 C655 1.385 . S
C659 C658 1.374 . S
C660 C657 1.499 . S
C660 C661 1.373 . S
C660 C662 1.389 . S
C661 H640 0.950 . S
C661 C660 1.373 . S
C661 C677 1.377 . S
C662 C660 1.389 . S
C662 C663 1.524 . S
C662 C676 1.377 . S
C663 C662 1.524 . S
C663 C664 1.397 . S
C663 C668 1.363 . S
C664 H641 0.950 . S
C664 C663 1.397 . S
C664 C665 1.334 . S
C665 H642 0.950 . S
C665 C664 1.334 . S
C665 C666 1.287 . S
C666 C665 1.287 . S
C666 C667 1.524 . S
C666 H685 0.913 . S
C667 H643 0.950 . S
C667 C666 1.524 . S
C667 C668 1.415 . S
C668 H644 0.950 . S
C668 C663 1.363 . S
C668 C667 1.415 . S
C669 H645 0.951 . S
C669 C670 1.366 . S
C669 C671 1.388 . S
C670 C669 1.366 . S
C670 C674 1.385 . S
C671 H646 0.951 . S
C671 C669 1.388 . S
C671 C672 1.366 . S
C672 C671 1.366 . S
C672 C673 1.414 . S
C672 C675 1.499 . S
C673 H647 0.950 . S
C673 C672 1.414 . S
C673 C674 1.374 . S
C674 H648 0.950 . S
C674 C670 1.385 . S
C674 C673 1.374 . S
C675 C672 1.499 . S
C675 C676 1.373 . S
C675 C677 1.389 . S
C676 H649 0.950 . S
C676 C662 1.377 . S
C676 C675 1.373 . S
C677 C661 1.377 . S
C677 C675 1.389 . S
C677 C678 1.524 . S
C678 C677 1.524 . S
C678 C679 1.397 . S
C678 C683 1.363 . S
C679 H650 0.950 . S
C679 C678 1.397 . S
C679 C680 1.334 . S
C680 H651 0.950 . S
C680 C679 1.334 . S
C680 C681 1.287 . S
C681 C680 1.287 . S
C681 C682 1.524 . S
C681 H684 0.999 . S
C682 H652 0.950 . S
C682 C681 1.524 . S
C682 C683 1.415 . S
C683 H653 0.950 . S
C683 C678 1.363 . S
C683 C682 1.415 . S
H684 C681 0.999 . S
H685 C666 0.913 . S
H686 C704 0.951 . S
H687 C706 0.951 . S
H688 C708 0.950 . S
H689 C709 0.950 . S
H690 C711 0.950 1_556 S
H691 C714 0.950 . S
H692 C715 0.950 . S
H693 C717 0.950 . S
H694 C718 0.950 . S
H695 C719 0.951 . S
H696 C721 0.951 . S
H697 C723 0.950 . S
H698 C724 0.950 . S
H699 C726 0.950 . S
H700 C729 0.950 . S
H701 C730 0.950 . S
H702 C732 0.950 . S
H703 C733 0.950 1_554 S
C704 H686 0.951 . S
C704 C705 1.365 1_556 S
C704 C706 1.388 . S
C705 C704 1.365 1_554 S
C705 C709 1.386 . S
C706 H687 0.951 . S
C706 C704 1.388 . S
C706 C707 1.366 1_556 S
C707 C706 1.366 1_554 S
C707 C708 1.414 . S
C707 C710 1.499 . S
C708 H688 0.950 . S
C708 C707 1.414 . S
C708 C709 1.374 . S
C709 H689 0.950 . S
C709 C705 1.386 . S
C709 C708 1.374 . S
C710 C707 1.499 . S
C710 C711 1.373 . S
C710 C712 1.389 . S
C711 H690 0.950 1_554 S
C711 C710 1.373 . S
C711 C727 1.377 . S
C712 C710 1.389 . S
C712 C713 1.524 . S
C712 C726 1.377 . S
C713 C712 1.524 . S
C713 C714 1.397 . S
C713 C718 1.363 . S
C714 H691 0.950 . S
C714 C713 1.397 . S
C714 C715 1.334 . S
C715 H692 0.950 . S
C715 C714 1.334 . S
C715 C716 1.287 . S
C716 C715 1.287 . S
C716 C717 1.524 . S
C716 H735 0.913 . S
C717 H693 0.950 . S
C717 C716 1.524 . S
C717 C718 1.415 . S
C718 H694 0.950 . S
C718 C713 1.363 . S
C718 C717 1.415 . S
C719 H695 0.951 . S
C719 C720 1.366 . S
C719 C721 1.388 . S
C720 C719 1.366 . S
C720 C724 1.385 . S
C721 H696 0.951 . S
C721 C719 1.388 . S
C721 C722 1.366 . S
C722 C721 1.366 . S
C722 C723 1.414 . S
C722 C725 1.499 . S
C723 H697 0.950 . S
C723 C722 1.414 . S
C723 C724 1.374 . S
C724 H698 0.950 . S
C724 C720 1.385 . S
C724 C723 1.374 . S
C725 C722 1.499 . S
C725 C726 1.373 . S
C725 C727 1.389 . S
C726 H699 0.950 . S
C726 C712 1.377 . S
C726 C725 1.373 . S
C727 C711 1.377 . S
C727 C725 1.389 . S
C727 C728 1.524 1_554 S
C728 C727 1.524 1_556 S
C728 C729 1.397 . S
C728 C733 1.363 . S
C729 H700 0.950 . S
C729 C728 1.397 . S
C729 C730 1.334 . S
C730 H701 0.950 . S
C730 C729 1.334 . S
C730 C731 1.287 . S
C731 C730 1.287 . S
C731 C732 1.524 . S
C731 H734 0.999 . S
C732 H702 0.950 . S
C732 C731 1.524 . S
C732 C733 1.415 . S
C733 H703 0.950 1_556 S
C733 C728 1.363 . S
C733 C732 1.415 . S
H734 C731 0.999 . S
H735 C716 0.913 . S
H736 C754 0.948 1_565 S
H737 C756 0.951 . S
H738 C758 0.950 . S
H739 C759 0.950 . S
H740 C761 0.950 . S
H741 C764 0.950 . S
H742 C765 0.950 . S
H743 C767 0.950 . S
H744 C768 0.950 . S
H745 C769 0.951 . S
H746 C771 0.951 . S
H747 C773 0.950 . S
H748 C774 0.950 . S
H749 C776 0.950 . S
H750 C779 0.950 . S
H751 C780 0.950 . S
H752 C782 0.950 . S
H753 C783 0.950 . S
C754 H736 0.948 1_545 S
C754 C755 1.366 . S
C754 C756 1.392 . S
C755 C754 1.366 . S
C755 C759 1.385 . S
C756 H737 0.951 . S
C756 C754 1.392 . S
C756 C757 1.366 . S
C757 C756 1.366 . S
C757 C758 1.414 . S
C757 C760 1.499 . S
C758 H738 0.950 . S
C758 C757 1.414 . S
C758 C759 1.374 . S
C759 H739 0.950 . S
C759 C755 1.385 . S
C759 C758 1.374 . S
C760 C757 1.499 . S
C760 C761 1.373 1_545 S
C760 C762 1.389 . S
C761 H740 0.950 . S
C761 C760 1.373 1_565 S
C761 C777 1.377 . S
C762 C760 1.389 . S
C762 C763 1.524 . S
C762 C776 1.377 . S
C763 C762 1.524 . S
C763 C764 1.397 . S
C763 C768 1.363 . S
C764 H741 0.950 . S
C764 C763 1.397 . S
C764 C765 1.334 . S
C765 H742 0.950 . S
C765 C764 1.334 . S
C765 C766 1.287 . S
C766 C765 1.287 . S
C766 C767 1.524 . S
C766 H785 0.913 . S
C767 H743 0.950 . S
C767 C766 1.524 . S
C767 C768 1.415 . S
C768 H744 0.950 . S
C768 C763 1.363 . S
C768 C767 1.415 . S
C769 H745 0.951 . S
C769 C770 1.366 . S
C769 C771 1.388 . S
C770 C769 1.366 . S
C770 C774 1.385 . S
C771 H746 0.951 . S
C771 C769 1.388 . S
C771 C772 1.366 . S
C772 C771 1.366 . S
C772 C773 1.414 . S
C772 C775 1.499 . S
C773 H747 0.950 . S
C773 C772 1.414 . S
C773 C774 1.374 . S
C774 H748 0.950 . S
C774 C770 1.385 . S
C774 C773 1.374 . S
C775 C772 1.499 . S
C775 C776 1.373 . S
C775 C777 1.389 1_545 S
C776 H749 0.950 . S
C776 C762 1.377 . S
C776 C775 1.373 . S
C777 C761 1.377 . S
C777 C775 1.389 1_565 S
C777 C778 1.524 . S
C778 C777 1.524 . S
C778 C779 1.397 . S
C778 C783 1.363 . S
C779 H750 0.950 . S
C779 C778 1.397 . S
C779 C780 1.334 . S
C780 H751 0.950 . S
C780 C779 1.334 . S
C780 C781 1.287 . S
C781 C780 1.287 . S
C781 C782 1.524 . S
C781 H784 0.999 . S
C782 H752 0.950 . S
C782 C781 1.524 . S
C782 C783 1.415 . S
C783 H753 0.950 . S
C783 C778 1.363 . S
C783 C782 1.415 . S
H784 C781 0.999 . S
H785 C766 0.913 . S
H786 C804 0.951 . S
H787 C806 0.951 . S
H788 C808 0.950 . S
H789 C809 0.950 . S
H790 C811 0.950 . S
H791 C814 0.950 . S
H792 C815 0.950 . S
H793 C817 0.950 . S
H794 C818 0.950 . S
H795 C819 0.951 . S
H796 C821 0.951 . S
H797 C823 0.950 . S
H798 C824 0.950 . S
H799 C826 0.950 . S
H800 C829 0.950 . S
H801 C830 0.950 . S
H802 C832 0.950 . S
H803 C833 0.950 . S
C804 H786 0.951 . S
C804 C805 1.366 . S
C804 C806 1.388 . S
C805 C804 1.366 . S
C805 C809 1.385 . S
C806 H787 0.951 . S
C806 C804 1.388 . S
C806 C807 1.366 . S
C807 C806 1.366 . S
C807 C808 1.414 . S
C807 C810 1.499 . S
C808 H788 0.950 . S
C808 C807 1.414 . S
C808 C809 1.374 . S
C809 H789 0.950 . S
C809 C805 1.385 . S
C809 C808 1.374 . S
C810 C807 1.499 . S
C810 C811 1.373 . S
C810 C812 1.389 . S
C811 H790 0.950 . S
C811 C810 1.373 . S
C811 C827 1.377 . S
C812 C810 1.389 . S
C812 C813 1.524 . S
C812 C826 1.377 . S
C813 C812 1.524 . S
C813 C814 1.397 . S
C813 C818 1.363 . S
C814 H791 0.950 . S
C814 C813 1.397 . S
C814 C815 1.334 . S
C815 H792 0.950 . S
C815 C814 1.334 . S
C815 C816 1.287 . S
C816 C815 1.287 . S
C816 C817 1.524 . S
C816 H835 0.913 . S
C817 H793 0.950 . S
C817 C816 1.524 . S
C817 C818 1.415 . S
C818 H794 0.950 . S
C818 C813 1.363 . S
C818 C817 1.415 . S
C819 H795 0.951 . S
C819 C820 1.366 . S
C819 C821 1.388 . S
C820 C819 1.366 . S
C820 C824 1.385 . S
C821 H796 0.951 . S
C821 C819 1.388 . S
C821 C822 1.366 . S
C822 C821 1.366 . S
C822 C823 1.414 . S
C822 C825 1.499 . S
C823 H797 0.950 . S
C823 C822 1.414 . S
C823 C824 1.374 . S
C824 H798 0.950 . S
C824 C820 1.385 . S
C824 C823 1.374 . S
C825 C822 1.499 . S
C825 C826 1.373 . S
C825 C827 1.389 . S
C826 H799 0.950 . S
C826 C812 1.377 . S
C826 C825 1.373 . S
C827 C811 1.377 . S
C827 C825 1.389 . S
C827 C828 1.524 . S
C828 C827 1.524 . S
C828 C829 1.397 . S
C828 C833 1.363 . S
C829 H800 0.950 . S
C829 C828 1.397 . S
C829 C830 1.334 . S
C830 H801 0.950 . S
C830 C829 1.334 . S
C830 C831 1.287 . S
C831 C830 1.287 . S
C831 C832 1.524 . S
C831 H834 0.999 . S
C832 H802 0.950 . S
C832 C831 1.524 . S
C832 C833 1.415 . S
C833 H803 0.950 . S
C833 C828 1.363 . S
C833 C832 1.415 . S
H834 C831 0.999 . S
H835 C816 0.913 . S
H836 C854 0.951 . S
H837 C856 0.951 . S
H838 C858 0.950 . S
H839 C859 0.950 . S
H840 C861 0.950 . S
H841 C864 0.950 . S
H842 C865 0.950 . S
H843 C867 0.950 . S
H844 C868 0.950 . S
H845 C869 0.951 . S
H846 C871 0.944 1_545 S
H847 C873 0.950 . S
H848 C874 0.950 . S
H849 C876 0.965 . S
H850 C879 0.950 . S
H851 C880 0.950 . S
H852 C882 0.950 . S
H853 C883 0.950 . S
C854 H836 0.951 . S
C854 C855 1.366 . S
C854 C856 1.388 . S
C855 C854 1.366 . S
C855 C859 1.385 . S
C856 H837 0.951 . S
C856 C854 1.388 . S
C856 C857 1.366 . S
C857 C856 1.366 . S
C857 C858 1.414 . S
C857 C860 1.499 . S
C858 H838 0.950 . S
C858 C857 1.414 . S
C858 C859 1.374 . S
C859 H839 0.950 . S
C859 C855 1.385 . S
C859 C858 1.374 . S
C860 C857 1.499 . S
C860 C861 1.373 . S
C860 C862 1.391 . S
C861 H840 0.950 . S
C861 C860 1.373 . S
C861 C877 1.377 . S
C862 C860 1.391 . S
C862 C863 1.523 1_565 S
C862 C876 1.376 1_565 S
C863 C862 1.523 1_545 S
C863 C864 1.397 . S
C863 C868 1.363 . S
C864 H841 0.950 . S
C864 C863 1.397 . S
C864 C865 1.334 . S
C865 H842 0.950 . S
C865 C864 1.334 . S
C865 C866 1.287 . S
C866 C865 1.287 . S
C866 C867 1.524 . S
C866 H885 0.913 . S
C867 H843 0.950 . S
C867 C866 1.524 . S
C867 C868 1.415 . S
C868 H844 0.950 . S
C868 C863 1.363 . S
C868 C867 1.415 . S
C869 H845 0.951 . S
C869 C870 1.366 1_545 S
C869 C871 1.383 1_545 S
C870 C869 1.366 1_565 S
C870 C874 1.385 . S
C871 H846 0.944 1_565 S
C871 C869 1.383 1_565 S
C871 C872 1.379 . S
C872 C871 1.379 . S
C872 C873 1.414 . S
C872 C875 1.499 . S
C873 H847 0.950 . S
C873 C872 1.414 . S
C873 C874 1.374 . S
C874 H848 0.950 . S
C874 C870 1.385 . S
C874 C873 1.374 . S
C875 C872 1.499 . S
C875 C876 1.360 1_565 S
C875 C877 1.389 . S
C876 H849 0.965 . S
C876 C862 1.376 1_545 S
C876 C875 1.360 1_545 S
C877 C861 1.377 . S
C877 C875 1.389 . S
C877 C878 1.524 . S
C878 C877 1.524 . S
C878 C879 1.397 . S
C878 C883 1.363 . S
C879 H850 0.950 . S
C879 C878 1.397 . S
C879 C880 1.334 . S
C880 H851 0.950 . S
C880 C879 1.334 . S
C880 C881 1.287 . S
C881 C880 1.287 . S
C881 C882 1.524 . S
C881 H884 0.999 . S
C882 H852 0.950 . S
C882 C881 1.524 . S
C882 C883 1.415 . S
C883 H853 0.950 . S
C883 C878 1.363 . S
C883 C882 1.415 . S
H884 C881 0.999 . S
H885 C866 0.913 . S
H886 C904 0.951 . S
H887 C906 0.951 . S
H888 C908 0.950 . S
H889 C909 0.950 . S
H890 C911 0.950 . S
H891 C914 0.950 . S
H892 C915 0.950 . S
H893 C917 0.950 . S
H894 C918 0.950 . S
H895 C919 0.951 . S
H896 C921 0.951 . S
H897 C923 0.950 . S
H898 C924 0.950 . S
H899 C926 0.950 . S
H900 C929 0.950 . S
H901 C930 0.950 . S
H902 C932 0.950 . S
H903 C933 0.950 . S
C904 H886 0.951 . S
C904 C905 1.366 . S
C904 C906 1.388 . S
C905 C904 1.366 . S
C905 C909 1.385 . S
C906 H887 0.951 . S
C906 C904 1.388 . S
C906 C907 1.366 . S
C907 C906 1.366 . S
C907 C908 1.414 . S
C907 C910 1.499 . S
C908 H888 0.950 . S
C908 C907 1.414 . S
C908 C909 1.374 . S
C909 H889 0.950 . S
C909 C905 1.385 . S
C909 C908 1.374 . S
C910 C907 1.499 . S
C910 C911 1.373 . S
C910 C912 1.389 . S
C911 H890 0.950 . S
C911 C910 1.373 . S
C911 C927 1.377 . S
C912 C910 1.389 . S
C912 C913 1.524 . S
C912 C926 1.377 . S
C913 C912 1.524 . S
C913 C914 1.397 . S
C913 C918 1.363 . S
C914 H891 0.950 . S
C914 C913 1.397 . S
C914 C915 1.334 . S
C915 H892 0.950 . S
C915 C914 1.334 . S
C915 C916 1.287 . S
C916 C915 1.287 . S
C916 C917 1.524 . S
C916 H935 0.913 . S
C917 H893 0.950 . S
C917 C916 1.524 . S
C917 C918 1.415 . S
C918 H894 0.950 . S
C918 C913 1.363 . S
C918 C917 1.415 . S
C919 H895 0.951 . S
C919 C920 1.366 . S
C919 C921 1.388 . S
C920 C919 1.366 . S
C920 C924 1.385 . S
C921 H896 0.951 . S
C921 C919 1.388 . S
C921 C922 1.366 . S
C922 C921 1.366 . S
C922 C923 1.414 . S
C922 C925 1.499 . S
C923 H897 0.950 . S
C923 C922 1.414 . S
C923 C924 1.374 . S
C924 H898 0.950 . S
C924 C920 1.385 . S
C924 C923 1.374 . S
C925 C922 1.499 . S
C925 C926 1.373 . S
C925 C927 1.389 . S
C926 H899 0.950 . S
C926 C912 1.377 . S
C926 C925 1.373 . S
C927 C911 1.377 . S
C927 C925 1.389 . S
C927 C928 1.524 . S
C928 C927 1.524 . S
C928 C929 1.397 . S
C928 C933 1.363 . S
C929 H900 0.950 . S
C929 C928 1.397 . S
C929 C930 1.334 . S
C930 H901 0.950 . S
C930 C929 1.334 . S
C930 C931 1.287 . S
C931 C930 1.287 . S
C931 C932 1.524 . S
C931 H934 0.999 . S
C932 H902 0.950 . S
C932 C931 1.524 . S
C932 C933 1.415 . S
C933 H903 0.950 . S
C933 C928 1.363 . S
C933 C932 1.415 . S
H934 C931 0.999 . S
H935 C916 0.913 . S
H936 C954 0.951 . S
H937 C956 0.951 . S
H938 C958 0.950 . S
H939 C959 0.950 . S
H940 C961 0.950 . S
H941 C964 0.950 . S
H942 C965 0.950 . S
H943 C967 0.950 . S
H944 C968 0.950 . S
H945 C969 0.951 . S
H946 C971 0.951 . S
H947 C973 0.950 . S
H948 C974 0.950 . S
H949 C976 0.950 . S
H950 C979 0.950 . S
H951 C980 0.950 . S
H952 C982 0.950 . S
H953 C983 0.950 . S
C954 H936 0.951 . S
C954 C955 1.366 . S
C954 C956 1.388 . S
C955 C954 1.366 . S
C955 C959 1.385 . S
C956 H937 0.951 . S
C956 C954 1.388 . S
C956 C957 1.366 . S
C957 C956 1.366 . S
C957 C958 1.414 . S
C957 C960 1.499 . S
C958 H938 0.950 . S
C958 C957 1.414 . S
C958 C959 1.374 . S
C959 H939 0.950 . S
C959 C955 1.385 . S
C959 C958 1.374 . S
C960 C957 1.499 . S
C960 C961 1.373 . S
C960 C962 1.389 . S
C961 H940 0.950 . S
C961 C960 1.373 . S
C961 C977 1.377 . S
C962 C960 1.389 . S
C962 C963 1.524 . S
C962 C976 1.377 . S
C963 C962 1.524 . S
C963 C964 1.397 . S
C963 C968 1.363 . S
C964 H941 0.950 . S
C964 C963 1.397 . S
C964 C965 1.334 . S
C965 H942 0.950 . S
C965 C964 1.334 . S
C965 C966 1.287 . S
C966 C965 1.287 . S
C966 C967 1.524 . S
C966 H985 0.913 . S
C967 H943 0.950 . S
C967 C966 1.524 . S
C967 C968 1.415 . S
C968 H944 0.950 . S
C968 C963 1.363 . S
C968 C967 1.415 . S
C969 H945 0.951 . S
C969 C970 1.366 . S
C969 C971 1.388 . S
C970 C969 1.366 . S
C970 C974 1.385 . S
C971 H946 0.951 . S
C971 C969 1.388 . S
C971 C972 1.366 . S
C972 C971 1.366 . S
C972 C973 1.414 . S
C972 C975 1.499 . S
C973 H947 0.950 . S
C973 C972 1.414 . S
C973 C974 1.374 . S
C974 H948 0.950 . S
C974 C970 1.385 . S
C974 C973 1.374 . S
C975 C972 1.499 . S
C975 C976 1.373 . S
C975 C977 1.389 . S
C976 H949 0.950 . S
C976 C962 1.377 . S
C976 C975 1.373 . S
C977 C961 1.377 . S
C977 C975 1.389 . S
C977 C978 1.524 . S
C978 C977 1.524 . S
C978 C979 1.397 . S
C978 C983 1.363 . S
C979 H950 0.950 . S
C979 C978 1.397 . S
C979 C980 1.334 . S
C980 H951 0.950 . S
C980 C979 1.334 . S
C980 C981 1.287 . S
C981 C980 1.287 . S
C981 C982 1.524 . S
C981 H984 0.999 . S
C982 H952 0.950 . S
C982 C981 1.524 . S
C982 C983 1.415 . S
C983 H953 0.950 . S
C983 C978 1.363 . S
C983 C982 1.415 . S
H984 C981 0.999 . S
H985 C966 0.913 . S
H986 C1004 0.951 . S
H987 C1006 0.951 . S
H988 C1008 0.950 . S
H989 C1009 0.950 . S
H990 C1011 0.950 . S
H991 C1014 0.950 . S
H992 C1015 0.950 . S
H993 C1017 0.950 . S
H994 C1018 0.950 . S
H995 C1019 0.951 . S
H996 C1021 0.951 . S
H997 C1023 0.950 . S
H998 C1024 0.950 . S
H999 C1026 0.950 . S
H1000 C1029 0.950 . S
H1001 C1030 0.950 . S
H1002 C1032 0.950 . S
H1003 C1033 0.950 . S
C1004 H986 0.951 . S
C1004 C1005 1.366 . S
C1004 C1006 1.388 . S
C1005 C1004 1.366 . S
C1005 C1009 1.385 . S
C1006 H987 0.951 . S
C1006 C1004 1.388 . S
C1006 C1007 1.366 . S
C1007 C1006 1.366 . S
C1007 C1008 1.414 . S
C1007 C1010 1.499 . S
C1008 H988 0.950 . S
C1008 C1007 1.414 . S
C1008 C1009 1.374 . S
C1009 H989 0.950 . S
C1009 C1005 1.385 . S
C1009 C1008 1.374 . S
C1010 C1007 1.499 . S
C1010 C1011 1.373 . S
C1010 C1012 1.389 . S
C1011 H990 0.950 . S
C1011 C1010 1.373 . S
C1011 C1027 1.377 . S
C1012 C1010 1.389 . S
C1012 C1013 1.524 . S
C1012 C1026 1.377 . S
C1013 C1012 1.524 . S
C1013 C1014 1.397 . S
C1013 C1018 1.363 . S
C1014 H991 0.950 . S
C1014 C1013 1.397 . S
C1014 C1015 1.334 . S
C1015 H992 0.950 . S
C1015 C1014 1.334 . S
C1015 C1016 1.287 . S
C1016 C1015 1.287 . S
C1016 C1017 1.524 . S
C1016 H1035 0.913 . S
C1017 H993 0.950 . S
C1017 C1016 1.524 . S
C1017 C1018 1.415 . S
C1018 H994 0.950 . S
C1018 C1013 1.363 . S
C1018 C1017 1.415 . S
C1019 H995 0.951 . S
C1019 C1020 1.366 . S
C1019 C1021 1.388 . S
C1020 C1019 1.366 . S
C1020 C1024 1.385 . S
C1021 H996 0.951 . S
C1021 C1019 1.388 . S
C1021 C1022 1.366 . S
C1022 C1021 1.366 . S
C1022 C1023 1.414 . S
C1022 C1025 1.499 . S
C1023 H997 0.950 . S
C1023 C1022 1.414 . S
C1023 C1024 1.374 . S
C1024 H998 0.950 . S
C1024 C1020 1.385 . S
C1024 C1023 1.374 . S
C1025 C1022 1.499 . S
C1025 C1026 1.373 . S
C1025 C1027 1.389 . S
C1026 H999 0.950 . S
C1026 C1012 1.377 . S
C1026 C1025 1.373 . S
C1027 C1011 1.377 . S
C1027 C1025 1.389 . S
C1027 C1028 1.524 . S
C1028 C1027 1.524 . S
C1028 C1029 1.397 . S
C1028 C1033 1.363 . S
C1029 H1000 0.950 . S
C1029 C1028 1.397 . S
C1029 C1030 1.334 . S
C1030 H1001 0.950 . S
C1030 C1029 1.334 . S
C1030 C1031 1.287 . S
C1031 C1030 1.287 . S
C1031 C1032 1.524 . S
C1031 H1034 0.999 . S
C1032 H1002 0.950 . S
C1032 C1031 1.524 . S
C1032 C1033 1.415 . S
C1033 H1003 0.950 . S
C1033 C1028 1.363 . S
C1033 C1032 1.415 . S
H1034 C1031 0.999 . S
H1035 C1016 0.913 . S
H1036 C1054 0.951 . S
H1037 C1056 0.951 . S
H1038 C1058 0.950 . S
H1039 C1059 0.950 . S
H1040 C1061 0.950 . S
H1041 C1064 0.950 . S
H1042 C1065 0.950 . S
H1043 C1067 0.950 . S
H1044 C1068 0.950 . S
H1045 C1069 0.951 . S
H1046 C1071 0.951 . S
H1047 C1073 0.950 . S
H1048 C1074 0.950 . S
H1049 C1076 0.950 . S
H1050 C1079 0.950 . S
H1051 C1080 0.950 . S
H1052 C1082 0.950 . S
H1053 C1083 0.950 . S
C1054 H1036 0.951 . S
C1054 C1055 1.366 . S
C1054 C1056 1.388 . S
C1055 C1054 1.366 . S
C1055 C1059 1.385 . S
C1056 H1037 0.951 . S
C1056 C1054 1.388 . S
C1056 C1057 1.366 . S
C1057 C1056 1.366 . S
C1057 C1058 1.414 . S
C1057 C1060 1.499 . S
C1058 H1038 0.950 . S
C1058 C1057 1.414 . S
C1058 C1059 1.374 . S
C1059 H1039 0.950 . S
C1059 C1055 1.385 . S
C1059 C1058 1.374 . S
C1060 C1057 1.499 . S
C1060 C1061 1.373 . S
C1060 C1062 1.389 . S
C1061 H1040 0.950 . S
C1061 C1060 1.373 . S
C1061 C1077 1.377 . S
C1062 C1060 1.389 . S
C1062 C1063 1.524 . S
C1062 C1076 1.377 . S
C1063 C1062 1.524 . S
C1063 C1064 1.397 . S
C1063 C1068 1.363 . S
C1064 H1041 0.950 . S
C1064 C1063 1.397 . S
C1064 C1065 1.334 . S
C1065 H1042 0.950 . S
C1065 C1064 1.334 . S
C1065 C1066 1.287 . S
C1066 C1065 1.287 . S
C1066 C1067 1.524 . S
C1066 H1085 0.913 . S
C1067 H1043 0.950 . S
C1067 C1066 1.524 . S
C1067 C1068 1.415 . S
C1068 H1044 0.950 . S
C1068 C1063 1.363 . S
C1068 C1067 1.415 . S
C1069 H1045 0.951 . S
C1069 C1070 1.366 . S
C1069 C1071 1.388 . S
C1070 C1069 1.366 . S
C1070 C1074 1.385 . S
C1071 H1046 0.951 . S
C1071 C1069 1.388 . S
C1071 C1072 1.366 . S
C1072 C1071 1.366 . S
C1072 C1073 1.414 . S
C1072 C1075 1.499 . S
C1073 H1047 0.950 . S
C1073 C1072 1.414 . S
C1073 C1074 1.374 . S
C1074 H1048 0.950 . S
C1074 C1070 1.385 . S
C1074 C1073 1.374 . S
C1075 C1072 1.499 . S
C1075 C1076 1.373 . S
C1075 C1077 1.389 . S
C1076 H1049 0.950 . S
C1076 C1062 1.377 . S
C1076 C1075 1.373 . S
C1077 C1061 1.377 . S
C1077 C1075 1.389 . S
C1077 C1078 1.524 . S
C1078 C1077 1.524 . S
C1078 C1079 1.397 . S
C1078 C1083 1.363 . S
C1079 H1050 0.950 . S
C1079 C1078 1.397 . S
C1079 C1080 1.334 . S
C1080 H1051 0.950 . S
C1080 C1079 1.334 . S
C1080 C1081 1.287 . S
C1081 C1080 1.287 . S
C1081 C1082 1.524 . S
C1081 H1084 0.999 . S
C1082 H1052 0.950 . S
C1082 C1081 1.524 . S
C1082 C1083 1.415 . S
C1083 H1053 0.950 . S
C1083 C1078 1.363 . S
C1083 C1082 1.415 . S
H1084 C1081 0.999 . S
H1085 C1066 0.913 . S
H1086 C1104 0.951 . S
H1087 C1106 0.951 . S
H1088 C1108 0.950 . S
H1089 C1109 0.950 . S
H1090 C1111 0.950 . S
H1091 C1114 0.950 . S
H1092 C1115 0.950 . S
H1093 C1117 0.950 . S
H1094 C1118 0.950 . S
H1095 C1119 0.951 . S
H1096 C1121 0.951 . S
H1097 C1123 0.950 . S
H1098 C1124 0.950 . S
H1099 C1126 0.950 . S
H1100 C1129 0.950 . S
H1101 C1130 0.950 . S
H1102 C1132 0.950 . S
H1103 C1133 0.950 . S
C1104 H1086 0.951 . S
C1104 C1105 1.366 . S
C1104 C1106 1.388 . S
C1105 C1104 1.366 . S
C1105 C1109 1.385 . S
C1106 H1087 0.951 . S
C1106 C1104 1.388 . S
C1106 C1107 1.366 . S
C1107 C1106 1.366 . S
C1107 C1108 1.414 . S
C1107 C1110 1.499 . S
C1108 H1088 0.950 . S
C1108 C1107 1.414 . S
C1108 C1109 1.374 . S
C1109 H1089 0.950 . S
C1109 C1105 1.385 . S
C1109 C1108 1.374 . S
C1110 C1107 1.499 . S
C1110 C1111 1.373 . S
C1110 C1112 1.389 . S
C1111 H1090 0.950 . S
C1111 C1110 1.373 . S
C1111 C1127 1.377 . S
C1112 C1110 1.389 . S
C1112 C1113 1.524 . S
C1112 C1126 1.377 . S
C1113 C1112 1.524 . S
C1113 C1114 1.397 . S
C1113 C1118 1.363 . S
C1114 H1091 0.950 . S
C1114 C1113 1.397 . S
C1114 C1115 1.334 . S
C1115 H1092 0.950 . S
C1115 C1114 1.334 . S
C1115 C1116 1.287 . S
C1116 C1115 1.287 . S
C1116 C1117 1.524 . S
C1116 H1135 0.913 . S
C1117 H1093 0.950 . S
C1117 C1116 1.524 . S
C1117 C1118 1.415 . S
C1118 H1094 0.950 . S
C1118 C1113 1.363 . S
C1118 C1117 1.415 . S
C1119 H1095 0.951 . S
C1119 C1120 1.366 . S
C1119 C1121 1.388 . S
C1120 C1119 1.366 . S
C1120 C1124 1.385 . S
C1121 H1096 0.951 . S
C1121 C1119 1.388 . S
C1121 C1122 1.366 . S
C1122 C1121 1.366 . S
C1122 C1123 1.414 . S
C1122 C1125 1.499 . S
C1123 H1097 0.950 . S
C1123 C1122 1.414 . S
C1123 C1124 1.374 . S
C1124 H1098 0.950 . S
C1124 C1120 1.385 . S
C1124 C1123 1.374 . S
C1125 C1122 1.499 . S
C1125 C1126 1.373 . S
C1125 C1127 1.389 . S
C1126 H1099 0.950 . S
C1126 C1112 1.377 . S
C1126 C1125 1.373 . S
C1127 C1111 1.377 . S
C1127 C1125 1.389 . S
C1127 C1128 1.524 . S
C1128 C1127 1.524 . S
C1128 C1129 1.397 . S
C1128 C1133 1.363 . S
C1129 H1100 0.950 . S
C1129 C1128 1.397 . S
C1129 C1130 1.334 . S
C1130 H1101 0.950 . S
C1130 C1129 1.334 . S
C1130 C1131 1.287 . S
C1131 C1130 1.287 . S
C1131 C1132 1.524 . S
C1131 H1134 0.999 . S
C1132 H1102 0.950 . S
C1132 C1131 1.524 . S
C1132 C1133 1.415 . S
C1133 H1103 0.950 . S
C1133 C1128 1.363 . S
C1133 C1132 1.415 . S
H1134 C1131 0.999 . S
H1135 C1116 0.913 . S
H1136 C1154 0.951 . S
H1137 C1156 0.951 . S
H1138 C1158 0.950 . S
H1139 C1159 0.950 . S
H1140 C1161 0.950 . S
H1141 C1164 0.950 . S
H1142 C1165 0.950 . S
H1143 C1167 0.950 . S
H1144 C1168 0.950 . S
H1145 C1169 0.951 . S
H1146 C1171 0.951 . S
H1147 C1173 0.950 . S
H1148 C1174 0.950 . S
H1149 C1176 0.950 . S
H1150 C1179 0.950 . S
H1151 C1180 0.950 . S
H1152 C1182 0.950 . S
H1153 C1183 0.950 . S
C1154 H1136 0.951 . S
C1154 C1155 1.366 . S
C1154 C1156 1.388 . S
C1155 C1154 1.366 . S
C1155 C1159 1.385 . S
C1156 H1137 0.951 . S
C1156 C1154 1.388 . S
C1156 C1157 1.366 . S
C1157 C1156 1.366 . S
C1157 C1158 1.414 . S
C1157 C1160 1.499 . S
C1158 H1138 0.950 . S
C1158 C1157 1.414 . S
C1158 C1159 1.374 . S
C1159 H1139 0.950 . S
C1159 C1155 1.385 . S
C1159 C1158 1.374 . S
C1160 C1157 1.499 . S
C1160 C1161 1.373 . S
C1160 C1162 1.389 . S
C1161 H1140 0.950 . S
C1161 C1160 1.373 . S
C1161 C1177 1.377 . S
C1162 C1160 1.389 . S
C1162 C1163 1.524 . S
C1162 C1176 1.377 . S
C1163 C1162 1.524 . S
C1163 C1164 1.397 . S
C1163 C1168 1.363 . S
C1164 H1141 0.950 . S
C1164 C1163 1.397 . S
C1164 C1165 1.334 . S
C1165 H1142 0.950 . S
C1165 C1164 1.334 . S
C1165 C1166 1.287 . S
C1166 C1165 1.287 . S
C1166 C1167 1.524 . S
C1166 H1185 0.913 . S
C1167 H1143 0.950 . S
C1167 C1166 1.524 . S
C1167 C1168 1.415 . S
C1168 H1144 0.950 . S
C1168 C1163 1.363 . S
C1168 C1167 1.415 . S
C1169 H1145 0.951 . S
C1169 C1170 1.366 . S
C1169 C1171 1.388 . S
C1170 C1169 1.366 . S
C1170 C1174 1.385 . S
C1171 H1146 0.951 . S
C1171 C1169 1.388 . S
C1171 C1172 1.366 . S
C1172 C1171 1.366 . S
C1172 C1173 1.414 . S
C1172 C1175 1.499 . S
C1173 H1147 0.950 . S
C1173 C1172 1.414 . S
C1173 C1174 1.374 . S
C1174 H1148 0.950 . S
C1174 C1170 1.385 . S
C1174 C1173 1.374 . S
C1175 C1172 1.499 . S
C1175 C1176 1.373 . S
C1175 C1177 1.389 . S
C1176 H1149 0.950 . S
C1176 C1162 1.377 . S
C1176 C1175 1.373 . S
C1177 C1161 1.377 . S
C1177 C1175 1.389 . S
C1177 C1178 1.524 . S
C1178 C1177 1.524 . S
C1178 C1179 1.397 . S
C1178 C1183 1.363 . S
C1179 H1150 0.950 . S
C1179 C1178 1.397 . S
C1179 C1180 1.334 . S
C1180 H1151 0.950 . S
C1180 C1179 1.334 . S
C1180 C1181 1.287 . S
C1181 C1180 1.287 . S
C1181 C1182 1.524 . S
C1181 H1184 0.999 . S
C1182 H1152 0.950 . S
C1182 C1181 1.524 . S
C1182 C1183 1.415 . S
C1183 H1153 0.950 . S
C1183 C1178 1.363 . S
C1183 C1182 1.415 . S
H1184 C1181 0.999 . S
H1185 C1166 0.913 . S
H1186 C1204 0.951 . S
H1187 C1206 0.951 . S
H1188 C1208 0.950 . S
H1189 C1209 0.950 . S
H1190 C1211 0.950 . S
H1191 C1214 0.950 . S
H1192 C1215 0.950 . S
H1193 C1217 0.950 . S
H1194 C1218 0.950 . S
H1195 C1219 0.951 . S
H1196 C1221 0.951 . S
H1197 C1223 0.950 . S
H1198 C1224 0.950 . S
H1199 C1226 0.950 . S
H1200 C1229 0.950 . S
H1201 C1230 0.950 . S
H1202 C1232 0.950 . S
H1203 C1233 0.950 . S
C1204 H1186 0.951 . S
C1204 C1205 1.366 . S
C1204 C1206 1.388 . S
C1205 C1204 1.366 . S
C1205 C1209 1.385 . S
C1206 H1187 0.951 . S
C1206 C1204 1.388 . S
C1206 C1207 1.366 . S
C1207 C1206 1.366 . S
C1207 C1208 1.414 . S
C1207 C1210 1.499 . S
C1208 H1188 0.950 . S
C1208 C1207 1.414 . S
C1208 C1209 1.374 . S
C1209 H1189 0.950 . S
C1209 C1205 1.385 . S
C1209 C1208 1.374 . S
C1210 C1207 1.499 . S
C1210 C1211 1.373 . S
C1210 C1212 1.389 . S
C1211 H1190 0.950 . S
C1211 C1210 1.373 . S
C1211 C1227 1.377 . S
C1212 C1210 1.389 . S
C1212 C1213 1.524 . S
C1212 C1226 1.377 . S
C1213 C1212 1.524 . S
C1213 C1214 1.397 . S
C1213 C1218 1.363 . S
C1214 H1191 0.950 . S
C1214 C1213 1.397 . S
C1214 C1215 1.334 . S
C1215 H1192 0.950 . S
C1215 C1214 1.334 . S
C1215 C1216 1.287 . S
C1216 C1215 1.287 . S
C1216 C1217 1.524 . S
C1216 H1235 0.913 . S
C1217 H1193 0.950 . S
C1217 C1216 1.524 . S
C1217 C1218 1.415 . S
C1218 H1194 0.950 . S
C1218 C1213 1.363 . S
C1218 C1217 1.415 . S
C1219 H1195 0.951 . S
C1219 C1220 1.366 . S
C1219 C1221 1.388 . S
C1220 C1219 1.366 . S
C1220 C1224 1.385 . S
C1221 H1196 0.951 . S
C1221 C1219 1.388 . S
C1221 C1222 1.366 . S
C1222 C1221 1.366 . S
C1222 C1223 1.414 . S
C1222 C1225 1.499 . S
C1223 H1197 0.950 . S
C1223 C1222 1.414 . S
C1223 C1224 1.374 . S
C1224 H1198 0.950 . S
C1224 C1220 1.385 . S
C1224 C1223 1.374 . S
C1225 C1222 1.499 . S
C1225 C1226 1.373 . S
C1225 C1227 1.389 . S
C1226 H1199 0.950 . S
C1226 C1212 1.377 . S
C1226 C1225 1.373 . S
C1227 C1211 1.377 . S
C1227 C1225 1.389 . S
C1227 C1228 1.524 . S
C1228 C1227 1.524 . S
C1228 C1229 1.397 . S
C1228 C1233 1.363 . S
C1229 H1200 0.950 . S
C1229 C1228 1.397 . S
C1229 C1230 1.334 . S
C1230 H1201 0.950 . S
C1230 C1229 1.334 . S
C1230 C1231 1.287 . S
C1231 C1230 1.287 . S
C1231 C1232 1.524 . S
C1231 H1234 0.999 . S
C1232 H1202 0.950 . S
C1232 C1231 1.524 . S
C1232 C1233 1.415 . S
C1233 H1203 0.950 . S
C1233 C1228 1.363 . S
C1233 C1232 1.415 . S
H1234 C1231 0.999 . S
H1235 C1216 0.913 . S
H1236 C1254 0.951 . S
H1237 C1256 0.951 . S
H1238 C1258 0.950 . S
H1239 C1259 0.950 . S
H1240 C1261 0.950 . S
H1241 C1264 0.950 . S
H1242 C1265 0.950 . S
H1243 C1267 0.950 . S
H1244 C1268 0.950 . S
H1245 C1269 0.951 . S
H1246 C1271 0.951 . S
H1247 C1273 0.950 . S
H1248 C1274 0.950 . S
H1249 C1276 0.950 . S
H1250 C1279 0.950 . S
H1251 C1280 0.950 . S
H1252 C1282 0.950 . S
H1253 C1283 0.950 . S
C1254 H1236 0.951 . S
C1254 C1255 1.366 . S
C1254 C1256 1.388 . S
C1255 C1254 1.366 . S
C1255 C1259 1.385 . S
C1256 H1237 0.951 . S
C1256 C1254 1.388 . S
C1256 C1257 1.366 . S
C1257 C1256 1.366 . S
C1257 C1258 1.414 . S
C1257 C1260 1.499 . S
C1258 H1238 0.950 . S
C1258 C1257 1.414 . S
C1258 C1259 1.374 . S
C1259 H1239 0.950 . S
C1259 C1255 1.385 . S
C1259 C1258 1.374 . S
C1260 C1257 1.499 . S
C1260 C1261 1.373 . S
C1260 C1262 1.389 . S
C1261 H1240 0.950 . S
C1261 C1260 1.373 . S
C1261 C1277 1.377 . S
C1262 C1260 1.389 . S
C1262 C1263 1.524 . S
C1262 C1276 1.377 . S
C1263 C1262 1.524 . S
C1263 C1264 1.397 . S
C1263 C1268 1.363 . S
C1264 H1241 0.950 . S
C1264 C1263 1.397 . S
C1264 C1265 1.334 . S
C1265 H1242 0.950 . S
C1265 C1264 1.334 . S
C1265 C1266 1.287 . S
C1266 C1265 1.287 . S
C1266 C1267 1.524 . S
C1266 H1285 0.913 . S
C1267 H1243 0.950 . S
C1267 C1266 1.524 . S
C1267 C1268 1.415 . S
C1268 H1244 0.950 . S
C1268 C1263 1.363 . S
C1268 C1267 1.415 . S
C1269 H1245 0.951 . S
C1269 C1270 1.366 . S
C1269 C1271 1.388 . S
C1270 C1269 1.366 . S
C1270 C1274 1.385 . S
C1271 H1246 0.951 . S
C1271 C1269 1.388 . S
C1271 C1272 1.366 . S
C1272 C1271 1.366 . S
C1272 C1273 1.414 . S
C1272 C1275 1.499 . S
C1273 H1247 0.950 . S
C1273 C1272 1.414 . S
C1273 C1274 1.374 . S
C1274 H1248 0.950 . S
C1274 C1270 1.385 . S
C1274 C1273 1.374 . S
C1275 C1272 1.499 . S
C1275 C1276 1.373 . S
C1275 C1277 1.389 . S
C1276 H1249 0.950 . S
C1276 C1262 1.377 . S
C1276 C1275 1.373 . S
C1277 C1261 1.377 . S
C1277 C1275 1.389 . S
C1277 C1278 1.524 . S
C1278 C1277 1.524 . S
C1278 C1279 1.397 . S
C1278 C1283 1.363 . S
C1279 H1250 0.950 . S
C1279 C1278 1.397 . S
C1279 C1280 1.334 . S
C1280 H1251 0.950 . S
C1280 C1279 1.334 . S
C1280 C1281 1.287 . S
C1281 C1280 1.287 . S
C1281 C1282 1.524 . S
C1281 H1284 0.999 . S
C1282 H1252 0.950 . S
C1282 C1281 1.524 . S
C1282 C1283 1.415 . S
C1283 H1253 0.950 . S
C1283 C1278 1.363 . S
C1283 C1282 1.415 . S
H1284 C1281 0.999 . S
H1285 C1266 0.913 . S
H1286 C1304 0.951 . S
H1287 C1306 0.951 . S
H1288 C1308 0.950 . S
H1289 C1309 0.950 1_655 S
H1290 C1311 0.950 1_655 S
H1291 C1314 0.950 . S
H1292 C1315 0.950 . S
H1293 C1317 0.950 . S
H1294 C1318 0.950 . S
H1295 C1319 0.951 . S
H1296 C1321 0.951 . S
H1297 C1323 0.950 . S
H1298 C1324 0.950 . S
H1299 C1326 0.950 . S
H1300 C1329 0.950 . S
H1301 C1330 0.926 1_455 S
H1302 C1332 0.950 . S
H1303 C1333 0.950 . S
C1304 H1286 0.951 . S
C1304 C1305 1.366 . S
C1304 C1306 1.388 . S
C1305 C1304 1.366 . S
C1305 C1309 1.385 . S
C1306 H1287 0.951 . S
C1306 C1304 1.388 . S
C1306 C1307 1.366 . S
C1307 C1306 1.366 . S
C1307 C1308 1.414 1_455 S
C1307 C1310 1.499 . S
C1308 H1288 0.950 . S
C1308 C1307 1.414 1_655 S
C1308 C1309 1.374 1_655 S
C1309 H1289 0.950 1_455 S
C1309 C1305 1.385 . S
C1309 C1308 1.374 1_455 S
C1310 C1307 1.499 . S
C1310 C1311 1.373 . S
C1310 C1312 1.389 . S
C1311 H1290 0.950 1_455 S
C1311 C1310 1.373 . S
C1311 C1327 1.377 . S
C1312 C1310 1.389 . S
C1312 C1313 1.524 . S
C1312 C1326 1.377 . S
C1313 C1312 1.524 . S
C1313 C1314 1.397 . S
C1313 C1318 1.363 . S
C1314 H1291 0.950 . S
C1314 C1313 1.397 . S
C1314 C1315 1.334 . S
C1315 H1292 0.950 . S
C1315 C1314 1.334 . S
C1315 C1316 1.287 . S
C1316 C1315 1.287 . S
C1316 C1317 1.524 . S
C1316 H1335 0.913 . S
C1317 H1293 0.950 . S
C1317 C1316 1.524 . S
C1317 C1318 1.415 . S
C1318 H1294 0.950 . S
C1318 C1313 1.363 . S
C1318 C1317 1.415 . S
C1319 H1295 0.951 . S
C1319 C1320 1.362 1_655 S
C1319 C1321 1.388 . S
C1320 C1319 1.362 1_455 S
C1320 C1324 1.389 . S
C1321 H1296 0.951 . S
C1321 C1319 1.388 . S
C1321 C1322 1.366 1_655 S
C1322 C1321 1.366 1_455 S
C1322 C1323 1.414 . S
C1322 C1325 1.499 . S
C1323 H1297 0.950 . S
C1323 C1322 1.414 . S
C1323 C1324 1.374 . S
C1324 H1298 0.950 . S
C1324 C1320 1.389 . S
C1324 C1323 1.374 . S
C1325 C1322 1.499 . S
C1325 C1326 1.373 . S
C1325 C1327 1.389 . S
C1326 H1299 0.950 . S
C1326 C1312 1.377 . S
C1326 C1325 1.373 . S
C1327 C1311 1.377 . S
C1327 C1325 1.389 . S
C1327 C1328 1.524 1_455 S
C1328 C1327 1.524 1_655 S
C1328 C1329 1.397 1_655 S
C1328 C1333 1.363 . S
C1329 H1300 0.950 . S
C1329 C1328 1.397 1_455 S
C1329 C1330 1.322 1_455 S
C1330 H1301 0.926 1_655 S
C1330 C1329 1.322 1_655 S
C1330 C1331 1.326 . S
C1331 C1330 1.326 . S
C1331 C1332 1.524 . S
C1331 H1334 0.999 . S
C1332 H1302 0.950 . S
C1332 C1331 1.524 . S
C1332 C1333 1.415 . S
C1333 H1303 0.950 . S
C1333 C1328 1.363 . S
C1333 C1332 1.415 . S
H1334 C1331 0.999 . S
H1335 C1316 0.913 . S
H1336 C1354 0.951 . S
H1337 C1356 0.951 . S
H1338 C1358 0.950 . S
H1339 C1359 0.950 . S
H1340 C1361 0.950 . S
H1341 C1364 0.950 . S
H1342 C1365 0.950 . S
H1343 C1367 0.950 . S
H1344 C1368 0.950 . S
H1345 C1369 0.951 . S
H1346 C1371 0.951 . S
H1347 C1373 0.950 . S
H1348 C1374 0.950 . S
H1349 C1376 0.950 . S
H1350 C1379 0.950 . S
H1351 C1380 0.950 . S
H1352 C1382 0.950 . S
H1353 C1383 0.950 . S
C1354 H1336 0.951 . S
C1354 C1355 1.366 . S
C1354 C1356 1.388 . S
C1355 C1354 1.366 . S
C1355 C1359 1.385 . S
C1356 H1337 0.951 . S
C1356 C1354 1.388 . S
C1356 C1357 1.366 . S
C1357 C1356 1.366 . S
C1357 C1358 1.414 . S
C1357 C1360 1.499 . S
C1358 H1338 0.950 . S
C1358 C1357 1.414 . S
C1358 C1359 1.374 . S
C1359 H1339 0.950 . S
C1359 C1355 1.385 . S
C1359 C1358 1.374 . S
C1360 C1357 1.499 . S
C1360 C1361 1.373 . S
C1360 C1362 1.389 . S
C1361 H1340 0.950 . S
C1361 C1360 1.373 . S
C1361 C1377 1.377 . S
C1362 C1360 1.389 . S
C1362 C1363 1.524 . S
C1362 C1376 1.377 . S
C1363 C1362 1.524 . S
C1363 C1364 1.397 . S
C1363 C1368 1.363 . S
C1364 H1341 0.950 . S
C1364 C1363 1.397 . S
C1364 C1365 1.334 . S
C1365 H1342 0.950 . S
C1365 C1364 1.334 . S
C1365 C1366 1.287 . S
C1366 C1365 1.287 . S
C1366 C1367 1.524 . S
C1366 H1385 0.913 . S
C1367 H1343 0.950 . S
C1367 C1366 1.524 . S
C1367 C1368 1.415 . S
C1368 H1344 0.950 . S
C1368 C1363 1.363 . S
C1368 C1367 1.415 . S
C1369 H1345 0.951 . S
C1369 C1370 1.366 . S
C1369 C1371 1.388 . S
C1370 C1369 1.366 . S
C1370 C1374 1.385 . S
C1371 H1346 0.951 . S
C1371 C1369 1.388 . S
C1371 C1372 1.366 . S
C1372 C1371 1.366 . S
C1372 C1373 1.414 . S
C1372 C1375 1.499 . S
C1373 H1347 0.950 . S
C1373 C1372 1.414 . S
C1373 C1374 1.374 . S
C1374 H1348 0.950 . S
C1374 C1370 1.385 . S
C1374 C1373 1.374 . S
C1375 C1372 1.499 . S
C1375 C1376 1.373 . S
C1375 C1377 1.389 . S
C1376 H1349 0.950 . S
C1376 C1362 1.377 . S
C1376 C1375 1.373 . S
C1377 C1361 1.377 . S
C1377 C1375 1.389 . S
C1377 C1378 1.524 . S
C1378 C1377 1.524 . S
C1378 C1379 1.397 . S
C1378 C1383 1.363 . S
C1379 H1350 0.950 . S
C1379 C1378 1.397 . S
C1379 C1380 1.334 . S
C1380 H1351 0.950 . S
C1380 C1379 1.334 . S
C1380 C1381 1.287 . S
C1381 C1380 1.287 . S
C1381 C1382 1.524 . S
C1381 H1384 0.999 . S
C1382 H1352 0.950 . S
C1382 C1381 1.524 . S
C1382 C1383 1.415 . S
C1383 H1353 0.950 . S
C1383 C1378 1.363 . S
C1383 C1382 1.415 . S
H1384 C1381 0.999 . S
H1385 C1366 0.913 . S
H1386 C1404 0.951 . S
H1387 C1406 0.951 . S
H1388 C1408 0.950 . S
H1389 C1409 0.950 . S
H1390 C1411 0.950 . S
H1391 C1414 0.950 . S
H1392 C1415 0.950 . S
H1393 C1417 0.950 . S
H1394 C1418 0.950 . S
H1395 C1419 0.951 . S
H1396 C1421 0.951 . S
H1397 C1423 0.950 . S
H1398 C1424 0.950 . S
H1399 C1426 0.950 . S
H1400 C1429 0.950 . S
H1401 C1430 0.950 . S
H1402 C1432 0.950 . S
H1403 C1433 0.950 . S
C1404 H1386 0.951 . S
C1404 C1405 1.366 . S
C1404 C1406 1.388 . S
C1405 C1404 1.366 . S
C1405 C1409 1.385 . S
C1406 H1387 0.951 . S
C1406 C1404 1.388 . S
C1406 C1407 1.366 . S
C1407 C1406 1.366 . S
C1407 C1408 1.414 . S
C1407 C1410 1.499 . S
C1408 H1388 0.950 . S
C1408 C1407 1.414 . S
C1408 C1409 1.374 . S
C1409 H1389 0.950 . S
C1409 C1405 1.385 . S
C1409 C1408 1.374 . S
C1410 C1407 1.499 . S
C1410 C1411 1.373 . S
C1410 C1412 1.389 . S
C1411 H1390 0.950 . S
C1411 C1410 1.373 . S
C1411 C1427 1.377 . S
C1412 C1410 1.389 . S
C1412 C1413 1.524 . S
C1412 C1426 1.377 . S
C1413 C1412 1.524 . S
C1413 C1414 1.397 . S
C1413 C1418 1.363 . S
C1414 H1391 0.950 . S
C1414 C1413 1.397 . S
C1414 C1415 1.334 . S
C1415 H1392 0.950 . S
C1415 C1414 1.334 . S
C1415 C1416 1.287 . S
C1416 C1415 1.287 . S
C1416 C1417 1.524 . S
C1416 H1435 0.913 . S
C1417 H1393 0.950 . S
C1417 C1416 1.524 . S
C1417 C1418 1.415 . S
C1418 H1394 0.950 . S
C1418 C1413 1.363 . S
C1418 C1417 1.415 . S
C1419 H1395 0.951 . S
C1419 C1420 1.366 . S
C1419 C1421 1.388 . S
C1420 C1419 1.366 . S
C1420 C1424 1.385 . S
C1421 H1396 0.951 . S
C1421 C1419 1.388 . S
C1421 C1422 1.366 . S
C1422 C1421 1.366 . S
C1422 C1423 1.414 . S
C1422 C1425 1.499 . S
C1423 H1397 0.950 . S
C1423 C1422 1.414 . S
C1423 C1424 1.374 . S
C1424 H1398 0.950 . S
C1424 C1420 1.385 . S
C1424 C1423 1.374 . S
C1425 C1422 1.499 . S
C1425 C1426 1.373 . S
C1425 C1427 1.389 . S
C1426 H1399 0.950 . S
C1426 C1412 1.377 . S
C1426 C1425 1.373 . S
C1427 C1411 1.377 . S
C1427 C1425 1.389 . S
C1427 C1428 1.524 . S
C1428 C1427 1.524 . S
C1428 C1429 1.397 . S
C1428 C1433 1.363 . S
C1429 H1400 0.950 . S
C1429 C1428 1.397 . S
C1429 C1430 1.334 . S
C1430 H1401 0.950 . S
C1430 C1429 1.334 . S
C1430 C1431 1.287 . S
C1431 C1430 1.287 . S
C1431 C1432 1.524 . S
C1431 H1434 0.999 . S
C1432 H1402 0.950 . S
C1432 C1431 1.524 . S
C1432 C1433 1.415 . S
C1433 H1403 0.950 . S
C1433 C1428 1.363 . S
C1433 C1432 1.415 . S
H1434 C1431 0.999 . S
H1435 C1416 0.913 . S
H1436 C1454 0.951 . S
H1437 C1456 0.951 . S
H1438 C1458 0.950 . S
H1439 C1459 0.950 . S
H1440 C1461 0.950 . S
H1441 C1464 0.950 . S
H1442 C1465 0.950 . S
H1443 C1467 0.950 . S
H1444 C1468 0.950 . S
H1445 C1469 0.951 . S
H1446 C1471 0.951 . S
H1447 C1473 0.950 . S
H1448 C1474 0.950 . S
H1449 C1476 0.950 . S
H1450 C1479 0.950 . S
H1451 C1480 0.950 . S
H1452 C1482 0.950 . S
H1453 C1483 0.950 . S
C1454 H1436 0.951 . S
C1454 C1455 1.366 . S
C1454 C1456 1.388 . S
C1455 C1454 1.366 . S
C1455 C1459 1.385 . S
C1456 H1437 0.951 . S
C1456 C1454 1.388 . S
C1456 C1457 1.366 . S
C1457 C1456 1.366 . S
C1457 C1458 1.414 . S
C1457 C1460 1.499 . S
C1458 H1438 0.950 . S
C1458 C1457 1.414 . S
C1458 C1459 1.374 . S
C1459 H1439 0.950 . S
C1459 C1455 1.385 . S
C1459 C1458 1.374 . S
C1460 C1457 1.499 . S
C1460 C1461 1.373 . S
C1460 C1462 1.389 1_556 S
C1461 H1440 0.950 . S
C1461 C1460 1.373 . S
C1461 C1477 1.377 . S
C1462 C1460 1.389 1_554 S
C1462 C1463 1.524 . S
C1462 C1476 1.377 . S
C1463 C1462 1.524 . S
C1463 C1464 1.397 . S
C1463 C1468 1.363 . S
C1464 H1441 0.950 . S
C1464 C1463 1.397 . S
C1464 C1465 1.334 . S
C1465 H1442 0.950 . S
C1465 C1464 1.334 . S
C1465 C1466 1.287 . S
C1466 C1465 1.287 . S
C1466 C1467 1.524 . S
C1466 H1485 0.913 . S
C1467 H1443 0.950 . S
C1467 C1466 1.524 . S
C1467 C1468 1.415 . S
C1468 H1444 0.950 . S
C1468 C1463 1.363 . S
C1468 C1467 1.415 . S
C1469 H1445 0.951 . S
C1469 C1470 1.366 . S
C1469 C1471 1.388 . S
C1470 C1469 1.366 . S
C1470 C1474 1.385 1_556 S
C1471 H1446 0.951 . S
C1471 C1469 1.388 . S
C1471 C1472 1.366 . S
C1472 C1471 1.366 . S
C1472 C1473 1.414 1_556 S
C1472 C1475 1.499 . S
C1473 H1447 0.950 . S
C1473 C1472 1.414 1_554 S
C1473 C1474 1.374 . S
C1474 H1448 0.950 . S
C1474 C1470 1.385 1_554 S
C1474 C1473 1.374 . S
C1475 C1472 1.499 . S
C1475 C1476 1.373 1_556 S
C1475 C1477 1.389 . S
C1476 H1449 0.950 . S
C1476 C1462 1.377 . S
C1476 C1475 1.373 1_554 S
C1477 C1461 1.377 . S
C1477 C1475 1.389 . S
C1477 C1478 1.524 . S
C1478 C1477 1.524 . S
C1478 C1479 1.397 . S
C1478 C1483 1.363 . S
C1479 H1450 0.950 . S
C1479 C1478 1.397 . S
C1479 C1480 1.334 . S
C1480 H1451 0.950 . S
C1480 C1479 1.334 . S
C1480 C1481 1.287 . S
C1481 C1480 1.287 . S
C1481 C1482 1.524 . S
C1481 H1484 0.999 . S
C1482 H1452 0.950 . S
C1482 C1481 1.524 . S
C1482 C1483 1.415 . S
C1483 H1453 0.950 . S
C1483 C1478 1.363 . S
C1483 C1482 1.415 . S
H1484 C1481 0.999 . S
H1485 C1466 0.913 . S
H1486 C1504 0.951 . S
H1487 C1506 0.951 . S
H1488 C1508 0.950 . S
H1489 C1509 0.950 . S
H1490 C1511 0.950 . S
H1491 C1514 0.950 . S
H1492 C1515 0.950 . S
H1493 C1517 0.950 . S
H1494 C1518 0.950 . S
H1495 C1519 0.951 . S
H1496 C1521 0.951 . S
H1497 C1523 0.950 . S
H1498 C1524 0.950 . S
H1499 C1526 0.950 . S
H1500 C1529 0.950 . S
H1501 C1530 0.950 . S
H1502 C1532 0.950 . S
H1503 C1533 0.950 . S
C1504 H1486 0.951 . S
C1504 C1505 1.366 . S
C1504 C1506 1.388 . S
C1505 C1504 1.366 . S
C1505 C1509 1.385 . S
C1506 H1487 0.951 . S
C1506 C1504 1.388 . S
C1506 C1507 1.366 . S
C1507 C1506 1.366 . S
C1507 C1508 1.414 . S
C1507 C1510 1.499 . S
C1508 H1488 0.950 . S
C1508 C1507 1.414 . S
C1508 C1509 1.374 . S
C1509 H1489 0.950 . S
C1509 C1505 1.385 . S
C1509 C1508 1.374 . S
C1510 C1507 1.499 . S
C1510 C1511 1.373 . S
C1510 C1512 1.389 . S
C1511 H1490 0.950 . S
C1511 C1510 1.373 . S
C1511 C1527 1.377 . S
C1512 C1510 1.389 . S
C1512 C1513 1.524 . S
C1512 C1526 1.377 . S
C1513 C1512 1.524 . S
C1513 C1514 1.397 . S
C1513 C1518 1.363 . S
C1514 H1491 0.950 . S
C1514 C1513 1.397 . S
C1514 C1515 1.334 . S
C1515 H1492 0.950 . S
C1515 C1514 1.334 . S
C1515 C1516 1.287 . S
C1516 C1515 1.287 . S
C1516 C1517 1.524 . S
C1516 H1535 0.913 . S
C1517 H1493 0.950 . S
C1517 C1516 1.524 . S
C1517 C1518 1.415 . S
C1518 H1494 0.950 . S
C1518 C1513 1.363 . S
C1518 C1517 1.415 . S
C1519 H1495 0.951 . S
C1519 C1520 1.366 . S
C1519 C1521 1.388 . S
C1520 C1519 1.366 . S
C1520 C1524 1.385 . S
C1521 H1496 0.951 . S
C1521 C1519 1.388 . S
C1521 C1522 1.366 . S
C1522 C1521 1.366 . S
C1522 C1523 1.414 . S
C1522 C1525 1.499 . S
C1523 H1497 0.950 . S
C1523 C1522 1.414 . S
C1523 C1524 1.374 . S
C1524 H1498 0.950 . S
C1524 C1520 1.385 . S
C1524 C1523 1.374 . S
C1525 C1522 1.499 . S
C1525 C1526 1.373 . S
C1525 C1527 1.389 . S
C1526 H1499 0.950 . S
C1526 C1512 1.377 . S
C1526 C1525 1.373 . S
C1527 C1511 1.377 . S
C1527 C1525 1.389 . S
C1527 C1528 1.524 . S
C1528 C1527 1.524 . S
C1528 C1529 1.397 . S
C1528 C1533 1.363 . S
C1529 H1500 0.950 . S
C1529 C1528 1.397 . S
C1529 C1530 1.334 . S
C1530 H1501 0.950 . S
C1530 C1529 1.334 . S
C1530 C1531 1.287 . S
C1531 C1530 1.287 . S
C1531 C1532 1.524 . S
C1531 H1534 0.999 . S
C1532 H1502 0.950 . S
C1532 C1531 1.524 . S
C1532 C1533 1.415 . S
C1533 H1503 0.950 . S
C1533 C1528 1.363 . S
C1533 C1532 1.415 . S
H1534 C1531 0.999 . S
H1535 C1516 0.913 . S
H1536 C1554 0.951 . S
H1537 C1556 0.951 . S
H1538 C1558 0.950 . S
H1539 C1559 0.950 1_655 S
H1540 C1561 0.950 . S
H1541 C1564 0.950 . S
H1542 C1565 0.950 . S
H1543 C1567 0.950 . S
H1544 C1568 0.950 . S
H1545 C1569 0.951 . S
H1546 C1571 0.951 . S
H1547 C1573 0.950 . S
H1548 C1574 0.950 . S
H1549 C1576 0.950 . S
H1550 C1579 0.950 . S
H1551 C1580 0.950 . S
H1552 C1582 0.950 . S
H1553 C1583 0.943 1_655 S
C1554 H1536 0.951 . S
C1554 C1555 1.366 . S
C1554 C1556 1.388 . S
C1555 C1554 1.366 . S
C1555 C1559 1.385 . S
C1556 H1537 0.951 . S
C1556 C1554 1.388 . S
C1556 C1557 1.366 . S
C1557 C1556 1.366 . S
C1557 C1558 1.414 . S
C1557 C1560 1.499 . S
C1558 H1538 0.950 . S
C1558 C1557 1.414 . S
C1558 C1559 1.374 . S
C1559 H1539 0.950 1_455 S
C1559 C1555 1.385 . S
C1559 C1558 1.374 . S
C1560 C1557 1.499 . S
C1560 C1561 1.373 . S
C1560 C1562 1.389 . S
C1561 H1540 0.950 . S
C1561 C1560 1.373 . S
C1561 C1577 1.377 . S
C1562 C1560 1.389 . S
C1562 C1563 1.524 . S
C1562 C1576 1.377 . S
C1563 C1562 1.524 . S
C1563 C1564 1.397 . S
C1563 C1568 1.363 . S
C1564 H1541 0.950 . S
C1564 C1563 1.397 . S
C1564 C1565 1.334 . S
C1565 H1542 0.950 . S
C1565 C1564 1.334 . S
C1565 C1566 1.287 . S
C1566 C1565 1.287 . S
C1566 C1567 1.524 . S
C1566 H1585 0.913 . S
C1567 H1543 0.950 . S
C1567 C1566 1.524 . S
C1567 C1568 1.415 . S
C1568 H1544 0.950 . S
C1568 C1563 1.363 . S
C1568 C1567 1.415 . S
C1569 H1545 0.951 . S
C1569 C1570 1.366 . S
C1569 C1571 1.388 . S
C1570 C1569 1.366 . S
C1570 C1574 1.385 . S
C1571 H1546 0.951 . S
C1571 C1569 1.388 . S
C1571 C1572 1.366 . S
C1572 C1571 1.366 . S
C1572 C1573 1.414 . S
C1572 C1575 1.499 . S
C1573 H1547 0.950 . S
C1573 C1572 1.414 . S
C1573 C1574 1.374 . S
C1574 H1548 0.950 . S
C1574 C1570 1.385 . S
C1574 C1573 1.374 . S
C1575 C1572 1.499 . S
C1575 C1576 1.373 . S
C1575 C1577 1.389 . S
C1576 H1549 0.950 . S
C1576 C1562 1.377 . S
C1576 C1575 1.373 . S
C1577 C1561 1.377 . S
C1577 C1575 1.389 . S
C1577 C1578 1.524 . S
C1578 C1577 1.524 . S
C1578 C1579 1.397 . S
C1578 C1583 1.363 . S
C1579 H1550 0.950 . S
C1579 C1578 1.397 . S
C1579 C1580 1.334 . S
C1580 H1551 0.950 . S
C1580 C1579 1.334 . S
C1580 C1581 1.287 1_455 S
C1581 C1580 1.287 1_655 S
C1581 C1582 1.524 . S
C1581 H1584 0.999 . S
C1582 H1552 0.950 . S
C1582 C1581 1.524 . S
C1582 C1583 1.415 1_655 S
C1583 H1553 0.943 1_455 S
C1583 C1578 1.363 . S
C1583 C1582 1.415 1_455 S
H1584 C1581 0.999 . S
H1585 C1566 0.913 . S
H1586 C1604 0.951 . S
H1587 C1606 0.951 . S
H1588 C1608 0.950 . S
H1589 C1609 0.950 . S
H1590 C1611 0.950 . S
H1591 C1614 0.950 . S
H1592 C1615 0.950 . S
H1593 C1617 0.950 . S
H1594 C1618 0.950 . S
H1595 C1619 0.951 . S
H1596 C1621 0.951 . S
H1597 C1623 0.950 . S
H1598 C1624 0.950 . S
H1599 C1626 0.950 . S
H1600 C1629 0.950 . S
H1601 C1630 0.950 . S
H1602 C1632 0.950 . S
H1603 C1633 0.950 . S
C1604 H1586 0.951 . S
C1604 C1605 1.366 . S
C1604 C1606 1.388 . S
C1605 C1604 1.366 . S
C1605 C1609 1.385 . S
C1606 H1587 0.951 . S
C1606 C1604 1.388 . S
C1606 C1607 1.366 . S
C1607 C1606 1.366 . S
C1607 C1608 1.414 . S
C1607 C1610 1.499 . S
C1608 H1588 0.950 . S
C1608 C1607 1.414 . S
C1608 C1609 1.374 . S
C1609 H1589 0.950 . S
C1609 C1605 1.385 . S
C1609 C1608 1.374 . S
C1610 C1607 1.499 . S
C1610 C1611 1.373 . S
C1610 C1612 1.389 . S
C1611 H1590 0.950 . S
C1611 C1610 1.373 . S
C1611 C1627 1.377 . S
C1612 C1610 1.389 . S
C1612 C1613 1.524 . S
C1612 C1626 1.377 . S
C1613 C1612 1.524 . S
C1613 C1614 1.397 . S
C1613 C1618 1.363 . S
C1614 H1591 0.950 . S
C1614 C1613 1.397 . S
C1614 C1615 1.334 . S
C1615 H1592 0.950 . S
C1615 C1614 1.334 . S
C1615 C1616 1.287 . S
C1616 C1615 1.287 . S
C1616 C1617 1.524 . S
C1616 H1635 0.913 . S
C1617 H1593 0.950 . S
C1617 C1616 1.524 . S
C1617 C1618 1.415 . S
C1618 H1594 0.950 . S
C1618 C1613 1.363 . S
C1618 C1617 1.415 . S
C1619 H1595 0.951 . S
C1619 C1620 1.366 . S
C1619 C1621 1.388 . S
C1620 C1619 1.366 . S
C1620 C1624 1.385 . S
C1621 H1596 0.951 . S
C1621 C1619 1.388 . S
C1621 C1622 1.366 . S
C1622 C1621 1.366 . S
C1622 C1623 1.414 . S
C1622 C1625 1.499 . S
C1623 H1597 0.950 . S
C1623 C1622 1.414 . S
C1623 C1624 1.374 . S
C1624 H1598 0.950 . S
C1624 C1620 1.385 . S
C1624 C1623 1.374 . S
C1625 C1622 1.499 . S
C1625 C1626 1.373 . S
C1625 C1627 1.389 . S
C1626 H1599 0.950 . S
C1626 C1612 1.377 . S
C1626 C1625 1.373 . S
C1627 C1611 1.377 . S
C1627 C1625 1.389 . S
C1627 C1628 1.524 . S
C1628 C1627 1.524 . S
C1628 C1629 1.397 . S
C1628 C1633 1.363 . S
C1629 H1600 0.950 . S
C1629 C1628 1.397 . S
C1629 C1630 1.334 . S
C1630 H1601 0.950 . S
C1630 C1629 1.334 . S
C1630 C1631 1.287 . S
C1631 C1630 1.287 . S
C1631 C1632 1.524 . S
C1631 H1634 0.999 . S
C1632 H1602 0.950 . S
C1632 C1631 1.524 . S
C1632 C1633 1.415 . S
C1633 H1603 0.950 . S
C1633 C1628 1.363 . S
C1633 C1632 1.415 . S
H1634 C1631 0.999 . S
H1635 C1616 0.913 . S
H1636 C1654 0.951 . S
H1637 C1656 0.951 . S
H1638 C1658 0.950 . S
H1639 C1659 0.950 . S
H1640 C1661 0.950 . S
H1641 C1664 0.950 . S
H1642 C1665 0.950 . S
H1643 C1667 0.950 . S
H1644 C1668 0.950 . S
H1645 C1669 0.951 . S
H1646 C1671 0.951 . S
H1647 C1673 0.950 . S
H1648 C1674 0.950 . S
H1649 C1676 0.950 . S
H1650 C1679 0.950 . S
H1651 C1680 0.950 . S
H1652 C1682 0.950 . S
H1653 C1683 0.950 . S
C1654 H1636 0.951 . S
C1654 C1655 1.366 . S
C1654 C1656 1.388 . S
C1655 C1654 1.366 . S
C1655 C1659 1.385 . S
C1656 H1637 0.951 . S
C1656 C1654 1.388 . S
C1656 C1657 1.366 . S
C1657 C1656 1.366 . S
C1657 C1658 1.414 . S
C1657 C1660 1.499 . S
C1658 H1638 0.950 . S
C1658 C1657 1.414 . S
C1658 C1659 1.374 . S
C1659 H1639 0.950 . S
C1659 C1655 1.385 . S
C1659 C1658 1.374 . S
C1660 C1657 1.499 . S
C1660 C1661 1.373 . S
C1660 C1662 1.389 . S
C1661 H1640 0.950 . S
C1661 C1660 1.373 . S
C1661 C1677 1.377 . S
C1662 C1660 1.389 . S
C1662 C1663 1.524 . S
C1662 C1676 1.377 . S
C1663 C1662 1.524 . S
C1663 C1664 1.397 . S
C1663 C1668 1.363 . S
C1664 H1641 0.950 . S
C1664 C1663 1.397 . S
C1664 C1665 1.334 . S
C1665 H1642 0.950 . S
C1665 C1664 1.334 . S
C1665 C1666 1.287 . S
C1666 C1665 1.287 . S
C1666 C1667 1.524 . S
C1666 H1685 0.913 . S
C1667 H1643 0.950 . S
C1667 C1666 1.524 . S
C1667 C1668 1.415 . S
C1668 H1644 0.950 . S
C1668 C1663 1.363 . S
C1668 C1667 1.415 . S
C1669 H1645 0.951 . S
C1669 C1670 1.366 . S
C1669 C1671 1.388 . S
C1670 C1669 1.366 . S
C1670 C1674 1.385 . S
C1671 H1646 0.951 . S
C1671 C1669 1.388 . S
C1671 C1672 1.366 . S
C1672 C1671 1.366 . S
C1672 C1673 1.414 . S
C1672 C1675 1.499 . S
C1673 H1647 0.950 . S
C1673 C1672 1.414 . S
C1673 C1674 1.374 . S
C1674 H1648 0.950 . S
C1674 C1670 1.385 . S
C1674 C1673 1.374 . S
C1675 C1672 1.499 . S
C1675 C1676 1.373 . S
C1675 C1677 1.389 . S
C1676 H1649 0.950 . S
C1676 C1662 1.377 . S
C1676 C1675 1.373 . S
C1677 C1661 1.377 . S
C1677 C1675 1.389 . S
C1677 C1678 1.524 . S
C1678 C1677 1.524 . S
C1678 C1679 1.397 . S
C1678 C1683 1.363 . S
C1679 H1650 0.950 . S
C1679 C1678 1.397 . S
C1679 C1680 1.334 . S
C1680 H1651 0.950 . S
C1680 C1679 1.334 . S
C1680 C1681 1.287 . S
C1681 C1680 1.287 . S
C1681 C1682 1.524 . S
C1681 H1684 0.999 . S
C1682 H1652 0.950 . S
C1682 C1681 1.524 . S
C1682 C1683 1.415 . S
C1683 H1653 0.950 . S
C1683 C1678 1.363 . S
C1683 C1682 1.415 . S
H1684 C1681 0.999 . S
H1685 C1666 0.913 . S
H1686 C1704 0.951 . S
H1687 C1706 0.951 . S
H1688 C1708 0.950 . S
H1689 C1709 0.950 . S
H1690 C1711 0.950 . S
H1691 C1714 0.950 . S
H1692 C1715 0.950 . S
H1693 C1717 0.950 . S
H1694 C1718 0.950 . S
H1695 C1719 0.951 . S
H1696 C1721 0.951 . S
H1697 C1723 0.950 . S
H1698 C1724 0.950 . S
H1699 C1726 0.950 . S
H1700 C1729 0.950 . S
H1701 C1730 0.950 . S
H1702 C1732 0.950 . S
H1703 C1733 0.950 . S
C1704 H1686 0.951 . S
C1704 C1705 1.366 . S
C1704 C1706 1.388 . S
C1705 C1704 1.366 . S
C1705 C1709 1.385 . S
C1706 H1687 0.951 . S
C1706 C1704 1.388 . S
C1706 C1707 1.366 . S
C1707 C1706 1.366 . S
C1707 C1708 1.414 . S
C1707 C1710 1.499 . S
C1708 H1688 0.950 . S
C1708 C1707 1.414 . S
C1708 C1709 1.374 . S
C1709 H1689 0.950 . S
C1709 C1705 1.385 . S
C1709 C1708 1.374 . S
C1710 C1707 1.499 . S
C1710 C1711 1.373 . S
C1710 C1712 1.389 . S
C1711 H1690 0.950 . S
C1711 C1710 1.373 . S
C1711 C1727 1.377 . S
C1712 C1710 1.389 . S
C1712 C1713 1.524 . S
C1712 C1726 1.377 . S
C1713 C1712 1.524 . S
C1713 C1714 1.397 . S
C1713 C1718 1.363 . S
C1714 H1691 0.950 . S
C1714 C1713 1.397 . S
C1714 C1715 1.334 . S
C1715 H1692 0.950 . S
C1715 C1714 1.334 . S
C1715 C1716 1.287 . S
C1716 C1715 1.287 . S
C1716 C1717 1.524 . S
C1716 H1735 0.913 . S
C1717 H1693 0.950 . S
C1717 C1716 1.524 . S
C1717 C1718 1.415 . S
C1718 H1694 0.950 . S
C1718 C1713 1.363 . S
C1718 C1717 1.415 . S
C1719 H1695 0.951 . S
C1719 C1720 1.366 . S
C1719 C1721 1.388 . S
C1720 C1719 1.366 . S
C1720 C1724 1.385 . S
C1721 H1696 0.951 . S
C1721 C1719 1.388 . S
C1721 C1722 1.366 . S
C1722 C1721 1.366 . S
C1722 C1723 1.414 . S
C1722 C1725 1.499 . S
C1723 H1697 0.950 . S
C1723 C1722 1.414 . S
C1723 C1724 1.374 . S
C1724 H1698 0.950 . S
C1724 C1720 1.385 . S
C1724 C1723 1.374 . S
C1725 C1722 1.499 . S
C1725 C1726 1.373 . S
C1725 C1727 1.389 . S
C1726 H1699 0.950 . S
C1726 C1712 1.377 . S
C1726 C1725 1.373 . S
C1727 C1711 1.377 . S
C1727 C1725 1.389 . S
C1727 C1728 1.524 . S
C1728 C1727 1.524 . S
C1728 C1729 1.397 . S
C1728 C1733 1.363 . S
C1729 H1700 0.950 . S
C1729 C1728 1.397 . S
C1729 C1730 1.334 1_554 S
C1730 H1701 0.950 . S
C1730 C1729 1.334 1_556 S
C1730 C1731 1.287 1_556 S
C1731 C1730 1.287 1_554 S
C1731 C1732 1.524 . S
C1731 H1734 0.999 1_554 S
C1732 H1702 0.950 . S
C1732 C1731 1.524 . S
C1732 C1733 1.415 . S
C1733 H1703 0.950 . S
C1733 C1728 1.363 . S
C1733 C1732 1.415 . S
H1734 C1731 0.999 1_556 S
H1735 C1716 0.913 . S
H1736 C1754 0.951 . S
H1737 C1756 0.951 . S
H1738 C1758 0.950 . S
H1739 C1759 0.950 . S
H1740 C1761 0.950 . S
H1741 C1764 0.950 . S
H1742 C1765 0.950 . S
H1743 C1767 0.950 . S
H1744 C1768 0.950 . S
H1745 C1769 1.011 . S
H1746 C1771 0.934 1_565 S
H1747 C1773 0.950 . S
H1748 C1774 0.950 . S
H1749 C1776 0.950 . S
H1750 C1779 0.950 . S
H1751 C1780 0.950 . S
H1752 C1782 0.950 . S
H1753 C1783 0.947 1_565 S
C1754 H1736 0.951 . S
C1754 C1755 1.366 . S
C1754 C1756 1.388 . S
C1755 C1754 1.366 . S
C1755 C1759 1.385 . S
C1756 H1737 0.951 . S
C1756 C1754 1.388 . S
C1756 C1757 1.366 . S
C1757 C1756 1.366 . S
C1757 C1758 1.414 . S
C1757 C1760 1.499 . S
C1758 H1738 0.950 . S
C1758 C1757 1.414 . S
C1758 C1759 1.374 . S
C1759 H1739 0.950 . S
C1759 C1755 1.385 . S
C1759 C1758 1.374 . S
C1760 C1757 1.499 . S
C1760 C1761 1.373 . S
C1760 C1762 1.389 . S
C1761 H1740 0.950 . S
C1761 C1760 1.373 . S
C1761 C1777 1.377 . S
C1762 C1760 1.389 . S
C1762 C1763 1.524 . S
C1762 C1776 1.377 . S
C1763 C1762 1.524 . S
C1763 C1764 1.397 . S
C1763 C1768 1.363 . S
C1764 H1741 0.950 . S
C1764 C1763 1.397 . S
C1764 C1765 1.334 . S
C1765 H1742 0.950 . S
C1765 C1764 1.334 . S
C1765 C1766 1.287 . S
C1766 C1765 1.287 . S
C1766 C1767 1.524 . S
C1766 H1785 0.913 . S
C1767 H1743 0.950 . S
C1767 C1766 1.524 . S
C1767 C1768 1.415 . S
C1768 H1744 0.950 . S
C1768 C1763 1.363 . S
C1768 C1767 1.415 . S
C1769 H1745 1.011 . S
C1769 C1770 1.332 1_565 S
C1769 C1771 1.363 1_565 S
C1770 C1769 1.332 1_545 S
C1770 C1774 1.385 . S
C1771 H1746 0.934 1_545 S
C1771 C1769 1.363 1_545 S
C1771 C1772 1.366 . S
C1772 C1771 1.366 . S
C1772 C1773 1.414 . S
C1772 C1775 1.499 . S
C1773 H1747 0.950 . S
C1773 C1772 1.414 . S
C1773 C1774 1.374 . S
C1774 H1748 0.950 . S
C1774 C1770 1.385 . S
C1774 C1773 1.374 . S
C1775 C1772 1.499 . S
C1775 C1776 1.373 . S
C1775 C1777 1.389 . S
C1776 H1749 0.950 . S
C1776 C1762 1.377 . S
C1776 C1775 1.373 . S
C1777 C1761 1.377 . S
C1777 C1775 1.389 . S
C1777 C1778 1.524 . S
C1778 C1777 1.524 . S
C1778 C1779 1.397 . S
C1778 C1783 1.363 . S
C1779 H1750 0.950 . S
C1779 C1778 1.397 . S
C1779 C1780 1.334 . S
C1780 H1751 0.950 . S
C1780 C1779 1.334 . S
C1780 C1781 1.287 1_545 S
C1781 C1780 1.287 1_565 S
C1781 C1782 1.524 . S
C1781 H1784 0.999 . S
C1782 H1752 0.950 . S
C1782 C1781 1.524 . S
C1782 C1783 1.415 1_565 S
C1783 H1753 0.947 1_545 S
C1783 C1778 1.363 . S
C1783 C1782 1.415 1_545 S
H1784 C1781 0.999 . S
H1785 C1766 0.913 . S
H1786 C1804 0.951 . S
H1787 C1806 0.951 . S
H1788 C1808 0.950 . S
H1789 C1809 0.950 . S
H1790 C1811 0.950 . S
H1791 C1814 0.950 . S
H1792 C1815 0.950 . S
H1793 C1817 0.950 . S
H1794 C1818 0.950 . S
H1795 C1819 0.951 . S
H1796 C1821 0.951 . S
H1797 C1823 0.950 . S
H1798 C1824 0.950 . S
H1799 C1826 0.950 . S
H1800 C1829 0.950 . S
H1801 C1830 0.950 . S
H1802 C1832 0.950 . S
H1803 C1833 0.950 . S
C1804 H1786 0.951 . S
C1804 C1805 1.366 . S
C1804 C1806 1.388 . S
C1805 C1804 1.366 . S
C1805 C1809 1.385 . S
C1806 H1787 0.951 . S
C1806 C1804 1.388 . S
C1806 C1807 1.366 . S
C1807 C1806 1.366 . S
C1807 C1808 1.414 . S
C1807 C1810 1.499 . S
C1808 H1788 0.950 . S
C1808 C1807 1.414 . S
C1808 C1809 1.374 . S
C1809 H1789 0.950 . S
C1809 C1805 1.385 . S
C1809 C1808 1.374 . S
C1810 C1807 1.499 . S
C1810 C1811 1.373 . S
C1810 C1812 1.389 . S
C1811 H1790 0.950 . S
C1811 C1810 1.373 . S
C1811 C1827 1.377 . S
C1812 C1810 1.389 . S
C1812 C1813 1.524 . S
C1812 C1826 1.377 . S
C1813 C1812 1.524 . S
C1813 C1814 1.397 . S
C1813 C1818 1.363 . S
C1814 H1791 0.950 . S
C1814 C1813 1.397 . S
C1814 C1815 1.334 . S
C1815 H1792 0.950 . S
C1815 C1814 1.334 . S
C1815 C1816 1.287 . S
C1816 C1815 1.287 . S
C1816 C1817 1.524 . S
C1816 H1835 0.913 . S
C1817 H1793 0.950 . S
C1817 C1816 1.524 . S
C1817 C1818 1.415 . S
C1818 H1794 0.950 . S
C1818 C1813 1.363 . S
C1818 C1817 1.415 . S
C1819 H1795 0.951 . S
C1819 C1820 1.366 . S
C1819 C1821 1.388 . S
C1820 C1819 1.366 . S
C1820 C1824 1.385 . S
C1821 H1796 0.951 . S
C1821 C1819 1.388 . S
C1821 C1822 1.366 . S
C1822 C1821 1.366 . S
C1822 C1823 1.414 . S
C1822 C1825 1.499 . S
C1823 H1797 0.950 . S
C1823 C1822 1.414 . S
C1823 C1824 1.374 . S
C1824 H1798 0.950 . S
C1824 C1820 1.385 . S
C1824 C1823 1.374 . S
C1825 C1822 1.499 . S
C1825 C1826 1.373 . S
C1825 C1827 1.389 . S
C1826 H1799 0.950 . S
C1826 C1812 1.377 . S
C1826 C1825 1.373 . S
C1827 C1811 1.377 . S
C1827 C1825 1.389 . S
C1827 C1828 1.524 . S
C1828 C1827 1.524 . S
C1828 C1829 1.397 . S
C1828 C1833 1.363 . S
C1829 H1800 0.950 . S
C1829 C1828 1.397 . S
C1829 C1830 1.334 . S
C1830 H1801 0.950 . S
C1830 C1829 1.334 . S
C1830 C1831 1.287 . S
C1831 C1830 1.287 . S
C1831 C1832 1.524 . S
C1831 H1834 1.003 . S
C1832 H1802 0.950 . S
C1832 C1831 1.524 . S
C1832 C1833 1.415 . S
C1833 H1803 0.950 . S
C1833 C1828 1.363 . S
C1833 C1832 1.415 . S
H1834 C1831 1.003 . S
H1835 C1816 0.913 . S
H1836 C1854 0.951 . S
H1837 C1856 0.951 . S
H1838 C1858 0.950 . S
H1839 C1859 0.950 . S
H1840 C1861 0.950 . S
H1841 C1864 0.950 . S
H1842 C1865 0.950 . S
H1843 C1867 0.950 . S
H1844 C1868 0.950 . S
H1845 C1869 0.951 1_545 S
H1846 C1871 0.951 . S
H1847 C1873 0.950 . S
H1848 C1874 0.950 . S
H1849 C1876 0.950 . S
H1850 C1879 0.950 1_565 S
H1851 C1880 0.950 . S
H1852 C1882 0.950 . S
H1853 C1883 0.950 . S
C1854 H1836 0.951 . S
C1854 C1855 1.366 . S
C1854 C1856 1.388 . S
C1855 C1854 1.366 . S
C1855 C1859 1.385 . S
C1856 H1837 0.951 . S
C1856 C1854 1.388 . S
C1856 C1857 1.366 . S
C1857 C1856 1.366 . S
C1857 C1858 1.414 . S
C1857 C1860 1.499 . S
C1858 H1838 0.950 . S
C1858 C1857 1.414 . S
C1858 C1859 1.374 . S
C1859 H1839 0.950 . S
C1859 C1855 1.385 . S
C1859 C1858 1.374 . S
C1860 C1857 1.499 . S
C1860 C1861 1.373 . S
C1860 C1862 1.389 . S
C1861 H1840 0.950 . S
C1861 C1860 1.373 . S
C1861 C1877 1.377 . S
C1862 C1860 1.389 . S
C1862 C1863 1.524 . S
C1862 C1876 1.377 . S
C1863 C1862 1.524 . S
C1863 C1864 1.397 . S
C1863 C1868 1.363 . S
C1864 H1841 0.950 . S
C1864 C1863 1.397 . S
C1864 C1865 1.334 . S
C1865 H1842 0.950 . S
C1865 C1864 1.334 . S
C1865 C1866 1.287 . S
C1866 C1865 1.287 . S
C1866 C1867 1.524 . S
C1866 H1885 0.913 . S
C1867 H1843 0.950 . S
C1867 C1866 1.524 . S
C1867 C1868 1.415 . S
C1868 H1844 0.950 . S
C1868 C1863 1.363 . S
C1868 C1867 1.415 . S
C1869 H1845 0.951 1_565 S
C1869 C1870 1.366 . S
C1869 C1871 1.388 . S
C1870 C1869 1.366 . S
C1870 C1874 1.385 . S
C1871 H1846 0.951 . S
C1871 C1869 1.388 . S
C1871 C1872 1.366 . S
C1872 C1871 1.366 . S
C1872 C1873 1.414 . S
C1872 C1875 1.499 . S
C1873 H1847 0.950 . S
C1873 C1872 1.414 . S
C1873 C1874 1.374 . S
C1874 H1848 0.950 . S
C1874 C1870 1.385 . S
C1874 C1873 1.374 . S
C1875 C1872 1.499 . S
C1875 C1876 1.373 . S
C1875 C1877 1.389 . S
C1876 H1849 0.950 . S
C1876 C1862 1.377 . S
C1876 C1875 1.373 . S
C1877 C1861 1.377 . S
C1877 C1875 1.389 . S
C1877 C1878 1.524 . S
C1878 C1877 1.524 . S
C1878 C1879 1.397 1_565 S
C1878 C1883 1.363 1_565 S
C1879 H1850 0.950 1_545 S
C1879 C1878 1.397 1_545 S
C1879 C1880 1.334 . S
C1880 H1851 0.950 . S
C1880 C1879 1.334 . S
C1880 C1881 1.287 . S
C1881 C1880 1.287 . S
C1881 C1882 1.524 . S
C1881 H1884 0.999 . S
C1882 H1852 0.950 . S
C1882 C1881 1.524 . S
C1882 C1883 1.415 . S
C1883 H1853 0.950 . S
C1883 C1878 1.363 1_545 S
C1883 C1882 1.415 . S
H1884 C1881 0.999 . S
H1885 C1866 0.913 . S
H1886 C1904 0.951 . S
H1887 C1906 0.951 . S
H1888 C1908 0.950 . S
H1889 C1909 0.950 . S
H1890 C1911 0.950 . S
H1891 C1914 0.950 . S
H1892 C1915 0.950 . S
H1893 C1917 0.950 . S
H1894 C1918 0.950 . S
H1895 C1919 0.951 . S
H1896 C1921 0.951 . S
H1897 C1923 0.950 . S
H1898 C1924 0.950 . S
H1899 C1926 0.950 . S
H1900 C1929 0.950 . S
H1901 C1930 0.950 . S
H1902 C1932 0.950 . S
H1903 C1933 0.950 . S
C1904 H1886 0.951 . S
C1904 C1905 1.366 . S
C1904 C1906 1.388 . S
C1905 C1904 1.366 . S
C1905 C1909 1.385 . S
C1906 H1887 0.951 . S
C1906 C1904 1.388 . S
C1906 C1907 1.366 . S
C1907 C1906 1.366 . S
C1907 C1908 1.414 . S
C1907 C1910 1.499 . S
C1908 H1888 0.950 . S
C1908 C1907 1.414 . S
C1908 C1909 1.374 . S
C1909 H1889 0.950 . S
C1909 C1905 1.385 . S
C1909 C1908 1.374 . S
C1910 C1907 1.499 . S
C1910 C1911 1.373 . S
C1910 C1912 1.389 . S
C1911 H1890 0.950 . S
C1911 C1910 1.373 . S
C1911 C1927 1.377 . S
C1912 C1910 1.389 . S
C1912 C1913 1.524 . S
C1912 C1926 1.377 . S
C1913 C1912 1.524 . S
C1913 C1914 1.397 . S
C1913 C1918 1.363 . S
C1914 H1891 0.950 . S
C1914 C1913 1.397 . S
C1914 C1915 1.334 . S
C1915 H1892 0.950 . S
C1915 C1914 1.334 . S
C1915 C1916 1.287 . S
C1916 C1915 1.287 . S
C1916 C1917 1.524 . S
C1916 H1935 0.949 . S
C1917 H1893 0.950 . S
C1917 C1916 1.524 . S
C1917 C1918 1.415 . S
C1918 H1894 0.950 . S
C1918 C1913 1.363 . S
C1918 C1917 1.415 . S
C1919 H1895 0.951 . S
C1919 C1920 1.366 . S
C1919 C1921 1.388 . S
C1920 C1919 1.366 . S
C1920 C1924 1.385 . S
C1921 H1896 0.951 . S
C1921 C1919 1.388 . S
C1921 C1922 1.366 . S
C1922 C1921 1.366 . S
C1922 C1923 1.414 . S
C1922 C1925 1.499 . S
C1923 H1897 0.950 . S
C1923 C1922 1.414 . S
C1923 C1924 1.374 . S
C1924 H1898 0.950 . S
C1924 C1920 1.385 . S
C1924 C1923 1.374 . S
C1925 C1922 1.499 . S
C1925 C1926 1.373 . S
C1925 C1927 1.389 . S
C1926 H1899 0.950 . S
C1926 C1912 1.377 . S
C1926 C1925 1.373 . S
C1927 C1911 1.377 . S
C1927 C1925 1.389 . S
C1927 C1928 1.524 . S
C1928 C1927 1.524 . S
C1928 C1929 1.397 . S
C1928 C1933 1.363 . S
C1929 H1900 0.950 . S
C1929 C1928 1.397 . S
C1929 C1930 1.334 . S
C1930 H1901 0.950 . S
C1930 C1929 1.334 . S
C1930 C1931 1.287 . S
C1931 C1930 1.287 . S
C1931 C1932 1.524 . S
C1931 H1934 0.999 . S
C1932 H1902 0.950 . S
C1932 C1931 1.524 . S
C1932 C1933 1.415 . S
C1933 H1903 0.950 . S
C1933 C1928 1.363 . S
C1933 C1932 1.415 . S
H1934 C1931 0.999 . S
H1935 C1916 0.949 . S
H1936 C1954 0.951 . S
H1937 C1956 0.951 . S
H1938 C1958 0.950 . S
H1939 C1959 0.913 1_556 S
H1940 C1961 0.950 . S
H1941 C1964 0.950 . S
H1942 C1965 0.950 . S
H1943 C1967 0.950 . S
H1944 C1968 0.950 . S
H1945 C1969 0.951 . S
H1946 C1971 0.951 . S
H1947 C1973 0.950 . S
H1948 C1974 0.950 . S
H1949 C1976 0.950 . S
H1950 C1979 0.950 . S
H1951 C1980 0.950 . S
H1952 C1982 0.950 . S
H1953 C1983 0.950 1_556 S
C1954 H1936 0.951 . S
C1954 C1955 1.366 . S
C1954 C1956 1.388 . S
C1955 C1954 1.366 . S
C1955 C1959 1.405 . S
C1956 H1937 0.951 . S
C1956 C1954 1.388 . S
C1956 C1957 1.366 . S
C1957 C1956 1.366 . S
C1957 C1958 1.414 . S
C1957 C1960 1.499 . S
C1958 H1938 0.950 . S
C1958 C1957 1.414 . S
C1958 C1959 1.392 . S
C1959 H1939 0.913 1_554 S
C1959 C1955 1.405 . S
C1959 C1958 1.392 . S
C1960 C1957 1.499 . S
C1960 C1961 1.373 . S
C1960 C1962 1.389 . S
C1961 H1940 0.950 . S
C1961 C1960 1.373 . S
C1961 C1977 1.377 . S
C1962 C1960 1.389 . S
C1962 C1963 1.524 . S
C1962 C1976 1.377 . S
C1963 C1962 1.524 . S
C1963 C1964 1.397 . S
C1963 C1968 1.363 . S
C1964 H1941 0.950 . S
C1964 C1963 1.397 . S
C1964 C1965 1.334 . S
C1965 H1942 0.950 . S
C1965 C1964 1.334 . S
C1965 C1966 1.287 . S
C1966 C1965 1.287 . S
C1966 C1967 1.524 . S
C1966 H1985 0.913 . S
C1967 H1943 0.950 . S
C1967 C1966 1.524 . S
C1967 C1968 1.415 . S
C1968 H1944 0.950 . S
C1968 C1963 1.363 . S
C1968 C1967 1.415 . S
C1969 H1945 0.951 . S
C1969 C1970 1.366 . S
C1969 C1971 1.388 . S
C1970 C1969 1.366 . S
C1970 C1974 1.385 . S
C1971 H1946 0.951 . S
C1971 C1969 1.388 . S
C1971 C1972 1.366 . S
C1972 C1971 1.366 . S
C1972 C1973 1.414 . S
C1972 C1975 1.499 . S
C1973 H1947 0.950 . S
C1973 C1972 1.414 . S
C1973 C1974 1.374 . S
C1974 H1948 0.950 . S
C1974 C1970 1.385 . S
C1974 C1973 1.374 . S
C1975 C1972 1.499 . S
C1975 C1976 1.373 . S
C1975 C1977 1.389 . S
C1976 H1949 0.950 . S
C1976 C1962 1.377 . S
C1976 C1975 1.373 . S
C1977 C1961 1.377 . S
C1977 C1975 1.389 . S
C1977 C1978 1.524 . S
C1978 C1977 1.524 . S
C1978 C1979 1.397 . S
C1978 C1983 1.363 . S
C1979 H1950 0.950 . S
C1979 C1978 1.397 . S
C1979 C1980 1.334 . S
C1980 H1951 0.950 . S
C1980 C1979 1.334 . S
C1980 C1981 1.287 . S
C1981 C1980 1.287 . S
C1981 C1982 1.524 1_554 S
C1981 H1984 0.999 1_554 S
C1982 H1952 0.950 . S
C1982 C1981 1.524 1_556 S
C1982 C1983 1.415 1_556 S
C1983 H1953 0.950 1_554 S
C1983 C1978 1.363 . S
C1983 C1982 1.415 1_554 S
H1984 C1981 0.999 1_556 S
H1985 C1966 0.913 . S
H1986 C2004 0.951 . S
H1987 C2006 0.951 . S
H1988 C2008 0.950 . S
H1989 C2009 0.950 . S
H1990 C2011 0.950 . S
H1991 C2014 0.950 . S
H1992 C2015 0.950 . S
H1993 C2017 0.950 . S
H1994 C2018 0.950 . S
H1995 C2019 0.951 1_554 S
H1996 C2021 0.951 . S
H1997 C2023 0.950 . S
H1998 C2024 0.950 . S
H1999 C2026 0.950 . S
H2000 C2029 0.950 . S
H2001 C2030 0.950 . S
H2002 C2032 0.950 . S
H2003 C2033 0.950 . S
C2004 H1986 0.951 . S
C2004 C2005 1.366 . S
C2004 C2006 1.388 . S
C2005 C2004 1.366 . S
C2005 C2009 1.385 . S
C2006 H1987 0.951 . S
C2006 C2004 1.388 . S
C2006 C2007 1.366 . S
C2007 C2006 1.366 . S
C2007 C2008 1.414 . S
C2007 C2010 1.499 . S
C2008 H1988 0.950 . S
C2008 C2007 1.414 . S
C2008 C2009 1.374 . S
C2009 H1989 0.950 . S
C2009 C2005 1.385 . S
C2009 C2008 1.374 . S
C2010 C2007 1.499 . S
C2010 C2011 1.373 . S
C2010 C2012 1.389 . S
C2011 H1990 0.950 . S
C2011 C2010 1.373 . S
C2011 C2027 1.377 . S
C2012 C2010 1.389 . S
C2012 C2013 1.524 . S
C2012 C2026 1.377 . S
C2013 C2012 1.524 . S
C2013 C2014 1.397 . S
C2013 C2018 1.363 . S
C2014 H1991 0.950 . S
C2014 C2013 1.397 . S
C2014 C2015 1.334 . S
C2015 H1992 0.950 . S
C2015 C2014 1.334 . S
C2015 C2016 1.287 . S
C2016 C2015 1.287 . S
C2016 C2017 1.524 . S
C2016 H2035 0.913 . S
C2017 H1993 0.950 . S
C2017 C2016 1.524 . S
C2017 C2018 1.415 . S
C2018 H1994 0.950 . S
C2018 C2013 1.363 . S
C2018 C2017 1.415 . S
C2019 H1995 0.951 1_556 S
C2019 C2020 1.366 . S
C2019 C2021 1.388 . S
C2020 C2019 1.366 . S
C2020 C2024 1.385 . S
C2021 H1996 0.951 . S
C2021 C2019 1.388 . S
C2021 C2022 1.366 . S
C2022 C2021 1.366 . S
C2022 C2023 1.414 . S
C2022 C2025 1.499 . S
C2023 H1997 0.950 . S
C2023 C2022 1.414 . S
C2023 C2024 1.374 . S
C2024 H1998 0.950 . S
C2024 C2020 1.385 . S
C2024 C2023 1.374 . S
C2025 C2022 1.499 . S
C2025 C2026 1.373 . S
C2025 C2027 1.389 . S
C2026 H1999 0.950 . S
C2026 C2012 1.377 . S
C2026 C2025 1.373 . S
C2027 C2011 1.377 . S
C2027 C2025 1.389 . S
C2027 C2028 1.524 . S
C2028 C2027 1.524 . S
C2028 C2029 1.397 . S
C2028 C2033 1.363 . S
C2029 H2000 0.950 . S
C2029 C2028 1.397 . S
C2029 C2030 1.334 . S
C2030 H2001 0.950 . S
C2030 C2029 1.334 . S
C2030 C2031 1.287 . S
C2031 C2030 1.287 . S
C2031 C2032 1.524 . S
C2031 H2034 0.999 . S
C2032 H2002 0.950 . S
C2032 C2031 1.524 . S
C2032 C2033 1.415 . S
C2033 H2003 0.950 . S
C2033 C2028 1.363 . S
C2033 C2032 1.415 . S
H2034 C2031 0.999 . S
H2035 C2016 0.913 . S
H2036 C2054 0.951 . S
H2037 C2056 0.951 . S
H2038 C2058 0.950 . S
H2039 C2059 0.950 . S
H2040 C2061 0.950 . S
H2041 C2064 0.950 . S
H2042 C2065 0.950 . S
H2043 C2067 0.950 . S
H2044 C2068 0.950 . S
H2045 C2069 0.951 . S
H2046 C2071 0.951 . S
H2047 C2073 0.950 . S
H2048 C2074 0.950 . S
H2049 C2076 0.950 . S
H2050 C2079 0.950 . S
H2051 C2080 0.950 . S
H2052 C2082 0.950 . S
H2053 C2083 0.950 . S
C2054 H2036 0.951 . S
C2054 C2055 1.366 . S
C2054 C2056 1.388 . S
C2055 C2054 1.366 . S
C2055 C2059 1.385 . S
C2056 H2037 0.951 . S
C2056 C2054 1.388 . S
C2056 C2057 1.366 . S
C2057 C2056 1.366 . S
C2057 C2058 1.414 . S
C2057 C2060 1.499 . S
C2058 H2038 0.950 . S
C2058 C2057 1.414 . S
C2058 C2059 1.374 . S
C2059 H2039 0.950 . S
C2059 C2055 1.385 . S
C2059 C2058 1.374 . S
C2060 C2057 1.499 . S
C2060 C2061 1.373 . S
C2060 C2062 1.389 . S
C2061 H2040 0.950 . S
C2061 C2060 1.373 . S
C2061 C2077 1.377 . S
C2062 C2060 1.389 . S
C2062 C2063 1.524 . S
C2062 C2076 1.377 . S
C2063 C2062 1.524 . S
C2063 C2064 1.397 . S
C2063 C2068 1.363 . S
C2064 H2041 0.950 . S
C2064 C2063 1.397 . S
C2064 C2065 1.334 . S
C2065 H2042 0.950 . S
C2065 C2064 1.334 . S
C2065 C2066 1.287 . S
C2066 C2065 1.287 . S
C2066 C2067 1.524 . S
C2066 H2085 0.913 . S
C2067 H2043 0.950 . S
C2067 C2066 1.524 . S
C2067 C2068 1.415 . S
C2068 H2044 0.950 . S
C2068 C2063 1.363 . S
C2068 C2067 1.415 . S
C2069 H2045 0.951 . S
C2069 C2070 1.366 . S
C2069 C2071 1.388 . S
C2070 C2069 1.366 . S
C2070 C2074 1.385 . S
C2071 H2046 0.951 . S
C2071 C2069 1.388 . S
C2071 C2072 1.366 . S
C2072 C2071 1.366 . S
C2072 C2073 1.414 . S
C2072 C2075 1.499 . S
C2073 H2047 0.950 . S
C2073 C2072 1.414 . S
C2073 C2074 1.374 . S
C2074 H2048 0.950 . S
C2074 C2070 1.385 . S
C2074 C2073 1.374 . S
C2075 C2072 1.499 . S
C2075 C2076 1.373 . S
C2075 C2077 1.389 . S
C2076 H2049 0.950 . S
C2076 C2062 1.377 . S
C2076 C2075 1.373 . S
C2077 C2061 1.377 . S
C2077 C2075 1.389 . S
C2077 C2078 1.524 . S
C2078 C2077 1.524 . S
C2078 C2079 1.397 . S
C2078 C2083 1.363 . S
C2079 H2050 0.950 . S
C2079 C2078 1.397 . S
C2079 C2080 1.334 . S
C2080 H2051 0.950 . S
C2080 C2079 1.334 . S
C2080 C2081 1.287 . S
C2081 C2080 1.287 . S
C2081 C2082 1.524 . S
C2081 H2084 0.999 . S
C2082 H2052 0.950 . S
C2082 C2081 1.524 . S
C2082 C2083 1.415 . S
C2083 H2053 0.950 . S
C2083 C2078 1.363 . S
C2083 C2082 1.415 . S
H2084 C2081 0.999 . S
H2085 C2066 0.913 . S
H2086 C2104 0.951 . S
H2087 C2106 0.951 . S
H2088 C2108 0.950 . S
H2089 C2109 0.950 . S
H2090 C2111 0.950 . S
H2091 C2114 0.950 . S
H2092 C2115 0.950 . S
H2093 C2117 0.950 . S
H2094 C2118 0.950 . S
H2095 C2119 0.951 . S
H2096 C2121 0.951 . S
H2097 C2123 0.950 . S
H2098 C2124 0.950 . S
H2099 C2126 0.950 . S
H2100 C2129 0.950 . S
H2101 C2130 0.950 . S
H2102 C2132 0.950 . S
H2103 C2133 0.950 . S
C2104 H2086 0.951 . S
C2104 C2105 1.366 . S
C2104 C2106 1.388 . S
C2105 C2104 1.366 . S
C2105 C2109 1.385 . S
C2106 H2087 0.951 . S
C2106 C2104 1.388 . S
C2106 C2107 1.366 . S
C2107 C2106 1.366 . S
C2107 C2108 1.414 . S
C2107 C2110 1.499 . S
C2108 H2088 0.950 . S
C2108 C2107 1.414 . S
C2108 C2109 1.374 . S
C2109 H2089 0.950 . S
C2109 C2105 1.385 . S
C2109 C2108 1.374 . S
C2110 C2107 1.499 . S
C2110 C2111 1.373 . S
C2110 C2112 1.389 . S
C2111 H2090 0.950 . S
C2111 C2110 1.373 . S
C2111 C2127 1.377 . S
C2112 C2110 1.389 . S
C2112 C2113 1.524 . S
C2112 C2126 1.377 . S
C2113 C2112 1.524 . S
C2113 C2114 1.397 . S
C2113 C2118 1.363 . S
C2114 H2091 0.950 . S
C2114 C2113 1.397 . S
C2114 C2115 1.334 . S
C2115 H2092 0.950 . S
C2115 C2114 1.334 . S
C2115 C2116 1.287 . S
C2116 C2115 1.287 . S
C2116 C2117 1.524 . S
C2116 H2135 0.913 . S
C2117 H2093 0.950 . S
C2117 C2116 1.524 . S
C2117 C2118 1.415 . S
C2118 H2094 0.950 . S
C2118 C2113 1.363 . S
C2118 C2117 1.415 . S
C2119 H2095 0.951 . S
C2119 C2120 1.366 . S
C2119 C2121 1.388 . S
C2120 C2119 1.366 . S
C2120 C2124 1.385 . S
C2121 H2096 0.951 . S
C2121 C2119 1.388 . S
C2121 C2122 1.366 . S
C2122 C2121 1.366 . S
C2122 C2123 1.414 . S
C2122 C2125 1.499 . S
C2123 H2097 0.950 . S
C2123 C2122 1.414 . S
C2123 C2124 1.374 . S
C2124 H2098 0.950 . S
C2124 C2120 1.385 . S
C2124 C2123 1.374 . S
C2125 C2122 1.499 . S
C2125 C2126 1.373 . S
C2125 C2127 1.389 . S
C2126 H2099 0.950 . S
C2126 C2112 1.377 . S
C2126 C2125 1.373 . S
C2127 C2111 1.377 . S
C2127 C2125 1.389 . S
C2127 C2128 1.524 . S
C2128 C2127 1.524 . S
C2128 C2129 1.397 . S
C2128 C2133 1.363 . S
C2129 H2100 0.950 . S
C2129 C2128 1.397 . S
C2129 C2130 1.334 . S
C2130 H2101 0.950 . S
C2130 C2129 1.334 . S
C2130 C2131 1.287 . S
C2131 C2130 1.287 . S
C2131 C2132 1.524 . S
C2131 H2134 0.999 . S
C2132 H2102 0.950 . S
C2132 C2131 1.524 . S
C2132 C2133 1.415 . S
C2133 H2103 0.950 . S
C2133 C2128 1.363 . S
C2133 C2132 1.415 . S
H2134 C2131 0.999 . S
H2135 C2116 0.913 . S
H2136 C2154 0.951 . S
H2137 C2156 0.951 . S
H2138 C2158 0.950 . S
H2139 C2159 0.950 . S
H2140 C2161 0.950 . S
H2141 C2164 0.950 . S
H2142 C2165 0.950 . S
H2143 C2167 0.950 . S
H2144 C2168 0.950 . S
H2145 C2169 0.951 . S
H2146 C2171 0.951 . S
H2147 C2173 0.950 . S
H2148 C2174 0.950 . S
H2149 C2176 0.950 . S
H2150 C2179 0.950 . S
H2151 C2180 0.950 . S
H2152 C2182 0.950 . S
H2153 C2183 0.950 . S
C2154 H2136 0.951 . S
C2154 C2155 1.366 . S
C2154 C2156 1.388 . S
C2155 C2154 1.366 . S
C2155 C2159 1.385 . S
C2156 H2137 0.951 . S
C2156 C2154 1.388 . S
C2156 C2157 1.366 . S
C2157 C2156 1.366 . S
C2157 C2158 1.414 . S
C2157 C2160 1.499 . S
C2158 H2138 0.950 . S
C2158 C2157 1.414 . S
C2158 C2159 1.374 . S
C2159 H2139 0.950 . S
C2159 C2155 1.385 . S
C2159 C2158 1.374 . S
C2160 C2157 1.499 . S
C2160 C2161 1.373 . S
C2160 C2162 1.389 . S
C2161 H2140 0.950 . S
C2161 C2160 1.373 . S
C2161 C2177 1.377 . S
C2162 C2160 1.389 . S
C2162 C2163 1.524 . S
C2162 C2176 1.377 . S
C2163 C2162 1.524 . S
C2163 C2164 1.397 . S
C2163 C2168 1.363 . S
C2164 H2141 0.950 . S
C2164 C2163 1.397 . S
C2164 C2165 1.334 . S
C2165 H2142 0.950 . S
C2165 C2164 1.334 . S
C2165 C2166 1.287 . S
C2166 C2165 1.287 . S
C2166 C2167 1.524 . S
C2166 H2185 0.913 . S
C2167 H2143 0.950 . S
C2167 C2166 1.524 . S
C2167 C2168 1.415 . S
C2168 H2144 0.950 . S
C2168 C2163 1.363 . S
C2168 C2167 1.415 . S
C2169 H2145 0.951 . S
C2169 C2170 1.366 . S
C2169 C2171 1.388 . S
C2170 C2169 1.366 . S
C2170 C2174 1.385 . S
C2171 H2146 0.951 . S
C2171 C2169 1.388 . S
C2171 C2172 1.366 . S
C2172 C2171 1.366 . S
C2172 C2173 1.414 . S
C2172 C2175 1.499 . S
C2173 H2147 0.950 . S
C2173 C2172 1.414 . S
C2173 C2174 1.374 . S
C2174 H2148 0.950 . S
C2174 C2170 1.385 . S
C2174 C2173 1.374 . S
C2175 C2172 1.499 . S
C2175 C2176 1.373 . S
C2175 C2177 1.389 . S
C2176 H2149 0.950 . S
C2176 C2162 1.377 . S
C2176 C2175 1.373 . S
C2177 C2161 1.377 . S
C2177 C2175 1.389 . S
C2177 C2178 1.524 . S
C2178 C2177 1.524 . S
C2178 C2179 1.397 . S
C2178 C2183 1.363 . S
C2179 H2150 0.950 . S
C2179 C2178 1.397 . S
C2179 C2180 1.334 . S
C2180 H2151 0.950 . S
C2180 C2179 1.334 . S
C2180 C2181 1.287 . S
C2181 C2180 1.287 . S
C2181 C2182 1.524 . S
C2181 H2184 0.999 . S
C2182 H2152 0.950 . S
C2182 C2181 1.524 . S
C2182 C2183 1.415 . S
C2183 H2153 0.950 . S
C2183 C2178 1.363 . S
C2183 C2182 1.415 . S
H2184 C2181 0.999 . S
H2185 C2166 0.913 . S
H2186 C2204 0.951 . S
H2187 C2206 0.951 . S
H2188 C2208 0.950 . S
H2189 C2209 0.950 . S
H2190 C2211 0.950 . S
H2191 C2214 0.950 . S
H2192 C2215 0.950 . S
H2193 C2217 0.950 . S
H2194 C2218 0.950 . S
H2195 C2219 0.951 . S
H2196 C2221 0.951 . S
H2197 C2223 0.950 . S
H2198 C2224 0.950 . S
H2199 C2226 0.950 . S
H2200 C2229 0.950 . S
H2201 C2230 0.950 . S
H2202 C2232 0.950 . S
H2203 C2233 0.950 . S
C2204 H2186 0.951 . S
C2204 C2205 1.366 . S
C2204 C2206 1.388 . S
C2205 C2204 1.366 . S
C2205 C2209 1.385 . S
C2206 H2187 0.951 . S
C2206 C2204 1.388 . S
C2206 C2207 1.366 . S
C2207 C2206 1.366 . S
C2207 C2208 1.414 . S
C2207 C2210 1.499 . S
C2208 H2188 0.950 . S
C2208 C2207 1.414 . S
C2208 C2209 1.374 . S
C2209 H2189 0.950 . S
C2209 C2205 1.385 . S
C2209 C2208 1.374 . S
C2210 C2207 1.499 . S
C2210 C2211 1.373 . S
C2210 C2212 1.389 . S
C2211 H2190 0.950 . S
C2211 C2210 1.373 . S
C2211 C2227 1.377 . S
C2212 C2210 1.389 . S
C2212 C2213 1.524 . S
C2212 C2226 1.377 . S
C2213 C2212 1.524 . S
C2213 C2214 1.397 . S
C2213 C2218 1.363 . S
C2214 H2191 0.950 . S
C2214 C2213 1.397 . S
C2214 C2215 1.334 . S
C2215 H2192 0.950 . S
C2215 C2214 1.334 . S
C2215 C2216 1.287 . S
C2216 C2215 1.287 . S
C2216 C2217 1.524 . S
C2216 H2235 0.913 . S
C2217 H2193 0.950 . S
C2217 C2216 1.524 . S
C2217 C2218 1.415 . S
C2218 H2194 0.950 . S
C2218 C2213 1.363 . S
C2218 C2217 1.415 . S
C2219 H2195 0.951 . S
C2219 C2220 1.366 . S
C2219 C2221 1.388 . S
C2220 C2219 1.366 . S
C2220 C2224 1.385 . S
C2221 H2196 0.951 . S
C2221 C2219 1.388 . S
C2221 C2222 1.366 . S
C2222 C2221 1.366 . S
C2222 C2223 1.414 . S
C2222 C2225 1.499 . S
C2223 H2197 0.950 . S
C2223 C2222 1.414 . S
C2223 C2224 1.374 . S
C2224 H2198 0.950 . S
C2224 C2220 1.385 . S
C2224 C2223 1.374 . S
C2225 C2222 1.499 . S
C2225 C2226 1.373 . S
C2225 C2227 1.389 . S
C2226 H2199 0.950 . S
C2226 C2212 1.377 . S
C2226 C2225 1.373 . S
C2227 C2211 1.377 . S
C2227 C2225 1.389 . S
C2227 C2228 1.524 . S
C2228 C2227 1.524 . S
C2228 C2229 1.397 . S
C2228 C2233 1.363 . S
C2229 H2200 0.950 . S
C2229 C2228 1.397 . S
C2229 C2230 1.334 . S
C2230 H2201 0.950 . S
C2230 C2229 1.334 . S
C2230 C2231 1.287 . S
C2231 C2230 1.287 . S
C2231 C2232 1.524 . S
C2231 H2234 0.999 . S
C2232 H2202 0.950 . S
C2232 C2231 1.524 . S
C2232 C2233 1.415 . S
C2233 H2203 0.950 . S
C2233 C2228 1.363 . S
C2233 C2232 1.415 . S
H2234 C2231 0.999 . S
H2235 C2216 0.913 . S
H2236 C2254 0.951 . S
H2237 C2256 0.951 . S
H2238 C2258 0.950 . S
H2239 C2259 0.950 . S
H2240 C2261 0.950 . S
H2241 C2264 0.950 . S
H2242 C2265 0.950 . S
H2243 C2267 0.950 . S
H2244 C2268 0.950 . S
H2245 C2269 0.951 . S
H2246 C2271 0.951 . S
H2247 C2273 0.950 . S
H2248 C2274 0.950 . S
H2249 C2276 0.950 . S
H2250 C2279 0.950 . S
H2251 C2280 0.950 . S
H2252 C2282 0.950 . S
H2253 C2283 0.950 . S
C2254 H2236 0.951 . S
C2254 C2255 1.366 . S
C2254 C2256 1.388 . S
C2255 C2254 1.366 . S
C2255 C2259 1.385 . S
C2256 H2237 0.951 . S
C2256 C2254 1.388 . S
C2256 C2257 1.366 . S
C2257 C2256 1.366 . S
C2257 C2258 1.414 . S
C2257 C2260 1.499 . S
C2258 H2238 0.950 . S
C2258 C2257 1.414 . S
C2258 C2259 1.374 . S
C2259 H2239 0.950 . S
C2259 C2255 1.385 . S
C2259 C2258 1.374 . S
C2260 C2257 1.499 . S
C2260 C2261 1.373 . S
C2260 C2262 1.389 . S
C2261 H2240 0.950 . S
C2261 C2260 1.373 . S
C2261 C2277 1.377 . S
C2262 C2260 1.389 . S
C2262 C2263 1.524 . S
C2262 C2276 1.377 . S
C2263 C2262 1.524 . S
C2263 C2264 1.397 . S
C2263 C2268 1.363 . S
C2264 H2241 0.950 . S
C2264 C2263 1.397 . S
C2264 C2265 1.334 . S
C2265 H2242 0.950 . S
C2265 C2264 1.334 . S
C2265 C2266 1.287 . S
C2266 C2265 1.287 . S
C2266 C2267 1.524 . S
C2266 H2285 0.913 . S
C2267 H2243 0.950 . S
C2267 C2266 1.524 . S
C2267 C2268 1.415 . S
C2268 H2244 0.950 . S
C2268 C2263 1.363 . S
C2268 C2267 1.415 . S
C2269 H2245 0.951 . S
C2269 C2270 1.366 . S
C2269 C2271 1.388 . S
C2270 C2269 1.366 . S
C2270 C2274 1.385 . S
C2271 H2246 0.951 . S
C2271 C2269 1.388 . S
C2271 C2272 1.366 . S
C2272 C2271 1.366 . S
C2272 C2273 1.414 . S
C2272 C2275 1.499 . S
C2273 H2247 0.950 . S
C2273 C2272 1.414 . S
C2273 C2274 1.374 . S
C2274 H2248 0.950 . S
C2274 C2270 1.385 . S
C2274 C2273 1.374 . S
C2275 C2272 1.499 . S
C2275 C2276 1.373 . S
C2275 C2277 1.389 . S
C2276 H2249 0.950 . S
C2276 C2262 1.377 . S
C2276 C2275 1.373 . S
C2277 C2261 1.377 . S
C2277 C2275 1.389 . S
C2277 C2278 1.524 . S
C2278 C2277 1.524 . S
C2278 C2279 1.397 . S
C2278 C2283 1.363 . S
C2279 H2250 0.950 . S
C2279 C2278 1.397 . S
C2279 C2280 1.334 . S
C2280 H2251 0.950 . S
C2280 C2279 1.334 . S
C2280 C2281 1.287 . S
C2281 C2280 1.287 . S
C2281 C2282 1.524 . S
C2281 H2284 0.999 . S
C2282 H2252 0.950 . S
C2282 C2281 1.524 . S
C2282 C2283 1.415 . S
C2283 H2253 0.950 . S
C2283 C2278 1.363 . S
C2283 C2282 1.415 . S
H2284 C2281 0.999 . S
H2285 C2266 0.913 . S
H2286 C2304 0.951 . S
H2287 C2306 0.951 . S
H2288 C2308 0.950 . S
H2289 C2309 0.950 . S
H2290 C2311 0.950 . S
H2291 C2314 0.950 . S
H2292 C2315 0.950 . S
H2293 C2317 0.950 . S
H2294 C2318 0.950 . S
H2295 C2319 0.951 . S
H2296 C2321 0.951 . S
H2297 C2323 0.950 . S
H2298 C2324 0.950 . S
H2299 C2326 0.950 . S
H2300 C2329 0.950 . S
H2301 C2330 0.950 . S
H2302 C2332 0.950 . S
H2303 C2333 0.950 . S
C2304 H2286 0.951 . S
C2304 C2305 1.366 . S
C2304 C2306 1.388 . S
C2305 C2304 1.366 . S
C2305 C2309 1.385 . S
C2306 H2287 0.951 . S
C2306 C2304 1.388 . S
C2306 C2307 1.366 . S
C2307 C2306 1.366 . S
C2307 C2308 1.414 . S
C2307 C2310 1.499 . S
C2308 H2288 0.950 . S
C2308 C2307 1.414 . S
C2308 C2309 1.374 . S
C2309 H2289 0.950 . S
C2309 C2305 1.385 . S
C2309 C2308 1.374 . S
C2310 C2307 1.499 . S
C2310 C2311 1.373 . S
C2310 C2312 1.389 . S
C2311 H2290 0.950 . S
C2311 C2310 1.373 . S
C2311 C2327 1.377 . S
C2312 C2310 1.389 . S
C2312 C2313 1.524 . S
C2312 C2326 1.377 . S
C2313 C2312 1.524 . S
C2313 C2314 1.397 . S
C2313 C2318 1.363 . S
C2314 H2291 0.950 . S
C2314 C2313 1.397 . S
C2314 C2315 1.334 . S
C2315 H2292 0.950 . S
C2315 C2314 1.334 . S
C2315 C2316 1.287 . S
C2316 C2315 1.287 . S
C2316 C2317 1.524 . S
C2316 H2335 0.913 . S
C2317 H2293 0.950 . S
C2317 C2316 1.524 . S
C2317 C2318 1.415 . S
C2318 H2294 0.950 . S
C2318 C2313 1.363 . S
C2318 C2317 1.415 . S
C2319 H2295 0.951 . S
C2319 C2320 1.366 . S
C2319 C2321 1.388 . S
C2320 C2319 1.366 . S
C2320 C2324 1.385 . S
C2321 H2296 0.951 . S
C2321 C2319 1.388 . S
C2321 C2322 1.366 . S
C2322 C2321 1.366 . S
C2322 C2323 1.414 . S
C2322 C2325 1.499 . S
C2323 H2297 0.950 . S
C2323 C2322 1.414 . S
C2323 C2324 1.374 . S
C2324 H2298 0.950 . S
C2324 C2320 1.385 . S
C2324 C2323 1.374 . S
C2325 C2322 1.499 . S
C2325 C2326 1.373 . S
C2325 C2327 1.389 . S
C2326 H2299 0.950 . S
C2326 C2312 1.377 . S
C2326 C2325 1.373 . S
C2327 C2311 1.377 . S
C2327 C2325 1.389 . S
C2327 C2328 1.524 . S
C2328 C2327 1.524 . S
C2328 C2329 1.397 . S
C2328 C2333 1.363 . S
C2329 H2300 0.950 . S
C2329 C2328 1.397 . S
C2329 C2330 1.334 . S
C2330 H2301 0.950 . S
C2330 C2329 1.334 . S
C2330 C2331 1.287 . S
C2331 C2330 1.287 . S
C2331 C2332 1.524 . S
C2331 H2334 0.999 . S
C2332 H2302 0.950 . S
C2332 C2331 1.524 . S
C2332 C2333 1.415 . S
C2333 H2303 0.950 . S
C2333 C2328 1.363 . S
C2333 C2332 1.415 . S
H2334 C2331 0.999 . S
H2335 C2316 0.913 . S
H2336 C2354 0.951 . S
H2337 C2356 0.951 . S
H2338 C2358 0.950 . S
H2339 C2359 0.950 . S
H2340 C2361 0.950 . S
H2341 C2364 0.950 . S
H2342 C2365 0.950 . S
H2343 C2367 0.950 . S
H2344 C2368 0.950 . S
H2345 C2369 0.951 . S
H2346 C2371 0.951 . S
H2347 C2373 0.950 . S
H2348 C2374 0.950 . S
H2349 C2376 0.950 . S
H2350 C2379 0.950 . S
H2351 C2380 0.950 . S
H2352 C2382 0.950 . S
H2353 C2383 0.950 . S
C2354 H2336 0.951 . S
C2354 C2355 1.366 . S
C2354 C2356 1.388 . S
C2355 C2354 1.366 . S
C2355 C2359 1.385 . S
C2356 H2337 0.951 . S
C2356 C2354 1.388 . S
C2356 C2357 1.366 . S
C2357 C2356 1.366 . S
C2357 C2358 1.414 . S
C2357 C2360 1.499 . S
C2358 H2338 0.950 . S
C2358 C2357 1.414 . S
C2358 C2359 1.374 . S
C2359 H2339 0.950 . S
C2359 C2355 1.385 . S
C2359 C2358 1.374 . S
C2360 C2357 1.499 . S
C2360 C2361 1.373 . S
C2360 C2362 1.389 . S
C2361 H2340 0.950 . S
C2361 C2360 1.373 . S
C2361 C2377 1.377 . S
C2362 C2360 1.389 . S
C2362 C2363 1.524 . S
C2362 C2376 1.377 . S
C2363 C2362 1.524 . S
C2363 C2364 1.397 . S
C2363 C2368 1.363 . S
C2364 H2341 0.950 . S
C2364 C2363 1.397 . S
C2364 C2365 1.334 . S
C2365 H2342 0.950 . S
C2365 C2364 1.334 . S
C2365 C2366 1.287 . S
C2366 C2365 1.287 . S
C2366 C2367 1.524 . S
C2366 H2385 0.913 . S
C2367 H2343 0.950 . S
C2367 C2366 1.524 . S
C2367 C2368 1.415 . S
C2368 H2344 0.950 . S
C2368 C2363 1.363 . S
C2368 C2367 1.415 . S
C2369 H2345 0.951 . S
C2369 C2370 1.366 . S
C2369 C2371 1.388 . S
C2370 C2369 1.366 . S
C2370 C2374 1.385 . S
C2371 H2346 0.951 . S
C2371 C2369 1.388 . S
C2371 C2372 1.366 . S
C2372 C2371 1.366 . S
C2372 C2373 1.414 . S
C2372 C2375 1.499 . S
C2373 H2347 0.950 . S
C2373 C2372 1.414 . S
C2373 C2374 1.374 . S
C2374 H2348 0.950 . S
C2374 C2370 1.385 . S
C2374 C2373 1.374 . S
C2375 C2372 1.499 . S
C2375 C2376 1.373 . S
C2375 C2377 1.389 . S
C2376 H2349 0.950 . S
C2376 C2362 1.377 . S
C2376 C2375 1.373 . S
C2377 C2361 1.377 . S
C2377 C2375 1.389 . S
C2377 C2378 1.524 . S
C2378 C2377 1.524 . S
C2378 C2379 1.397 . S
C2378 C2383 1.363 . S
C2379 H2350 0.950 . S
C2379 C2378 1.397 . S
C2379 C2380 1.334 . S
C2380 H2351 0.950 . S
C2380 C2379 1.334 . S
C2380 C2381 1.287 . S
C2381 C2380 1.287 . S
C2381 C2382 1.524 . S
C2381 H2384 0.999 . S
C2382 H2352 0.950 . S
C2382 C2381 1.524 . S
C2382 C2383 1.415 . S
C2383 H2353 0.950 . S
C2383 C2378 1.363 . S
C2383 C2382 1.415 . S
H2384 C2381 0.999 . S
H2385 C2366 0.913 . S
H2386 C2404 0.951 . S
H2387 C2406 0.951 . S
H2388 C2408 0.950 . S
H2389 C2409 0.950 . S
H2390 C2411 0.950 . S
H2391 C2414 0.950 . S
H2392 C2415 0.950 . S
H2393 C2417 0.950 . S
H2394 C2418 0.950 . S
H2395 C2419 0.951 . S
H2396 C2421 0.951 . S
H2397 C2423 0.950 . S
H2398 C2424 0.950 . S
H2399 C2426 0.950 . S
H2400 C2429 0.950 . S
H2401 C2430 0.950 . S
H2402 C2432 0.950 . S
H2403 C2433 0.950 . S
C2404 H2386 0.951 . S
C2404 C2405 1.366 . S
C2404 C2406 1.388 . S
C2405 C2404 1.366 . S
C2405 C2409 1.385 . S
C2406 H2387 0.951 . S
C2406 C2404 1.388 . S
C2406 C2407 1.366 . S
C2407 C2406 1.366 . S
C2407 C2408 1.414 . S
C2407 C2410 1.499 . S
C2408 H2388 0.950 . S
C2408 C2407 1.414 . S
C2408 C2409 1.374 . S
C2409 H2389 0.950 . S
C2409 C2405 1.385 . S
C2409 C2408 1.374 . S
C2410 C2407 1.499 . S
C2410 C2411 1.373 . S
C2410 C2412 1.389 . S
C2411 H2390 0.950 . S
C2411 C2410 1.373 . S
C2411 C2427 1.377 . S
C2412 C2410 1.389 . S
C2412 C2413 1.524 . S
C2412 C2426 1.377 . S
C2413 C2412 1.524 . S
C2413 C2414 1.397 . S
C2413 C2418 1.363 . S
C2414 H2391 0.950 . S
C2414 C2413 1.397 . S
C2414 C2415 1.334 . S
C2415 H2392 0.950 . S
C2415 C2414 1.334 . S
C2415 C2416 1.287 . S
C2416 C2415 1.287 . S
C2416 C2417 1.524 . S
C2416 H2435 0.913 . S
C2417 H2393 0.950 . S
C2417 C2416 1.524 . S
C2417 C2418 1.415 . S
C2418 H2394 0.950 . S
C2418 C2413 1.363 . S
C2418 C2417 1.415 . S
C2419 H2395 0.951 . S
C2419 C2420 1.366 1_455 S
C2419 C2421 1.388 1_455 S
C2420 C2419 1.366 1_655 S
C2420 C2424 1.385 . S
C2421 H2396 0.951 . S
C2421 C2419 1.388 1_655 S
C2421 C2422 1.366 . S
C2422 C2421 1.366 . S
C2422 C2423 1.414 . S
C2422 C2425 1.499 . S
C2423 H2397 0.950 . S
C2423 C2422 1.414 . S
C2423 C2424 1.374 . S
C2424 H2398 0.950 . S
C2424 C2420 1.385 . S
C2424 C2423 1.374 . S
C2425 C2422 1.499 . S
C2425 C2426 1.373 . S
C2425 C2427 1.389 . S
C2426 H2399 0.950 . S
C2426 C2412 1.377 . S
C2426 C2425 1.373 . S
C2427 C2411 1.377 . S
C2427 C2425 1.389 . S
C2427 C2428 1.524 . S
C2428 C2427 1.524 . S
C2428 C2429 1.397 . S
C2428 C2433 1.363 1_655 S
C2429 H2400 0.950 . S
C2429 C2428 1.397 . S
C2429 C2430 1.334 1_655 S
C2430 H2401 0.950 . S
C2430 C2429 1.334 1_455 S
C2430 C2431 1.287 . S
C2431 C2430 1.287 . S
C2431 C2432 1.524 . S
C2431 H2434 0.999 . S
C2432 H2402 0.950 . S
C2432 C2431 1.524 . S
C2432 C2433 1.415 . S
C2433 H2403 0.950 . S
C2433 C2428 1.363 1_455 S
C2433 C2432 1.415 . S
H2434 C2431 0.999 . S
H2435 C2416 0.913 . S
H2436 C2454 0.951 . S
H2437 C2456 0.951 . S
H2438 C2458 0.950 . S
H2439 C2459 0.950 . S
H2440 C2461 0.950 . S
H2441 C2464 0.950 . S
H2442 C2465 0.950 . S
H2443 C2467 0.950 . S
H2444 C2468 0.950 . S
H2445 C2469 0.951 . S
H2446 C2471 0.951 . S
H2447 C2473 0.950 . S
H2448 C2474 0.950 . S
H2449 C2476 0.950 . S
H2450 C2479 0.950 . S
H2451 C2480 0.950 . S
H2452 C2482 0.950 . S
H2453 C2483 0.950 . S
C2454 H2436 0.951 . S
C2454 C2455 1.366 . S
C2454 C2456 1.388 . S
C2455 C2454 1.366 . S
C2455 C2459 1.385 . S
C2456 H2437 0.951 . S
C2456 C2454 1.388 . S
C2456 C2457 1.366 . S
C2457 C2456 1.366 . S
C2457 C2458 1.414 . S
C2457 C2460 1.499 . S
C2458 H2438 0.950 . S
C2458 C2457 1.414 . S
C2458 C2459 1.374 . S
C2459 H2439 0.950 . S
C2459 C2455 1.385 . S
C2459 C2458 1.374 . S
C2460 C2457 1.499 . S
C2460 C2461 1.373 . S
C2460 C2462 1.389 . S
C2461 H2440 0.950 . S
C2461 C2460 1.373 . S
C2461 C2477 1.377 . S
C2462 C2460 1.389 . S
C2462 C2463 1.524 . S
C2462 C2476 1.377 . S
C2463 C2462 1.524 . S
C2463 C2464 1.397 . S
C2463 C2468 1.363 . S
C2464 H2441 0.950 . S
C2464 C2463 1.397 . S
C2464 C2465 1.334 . S
C2465 H2442 0.950 . S
C2465 C2464 1.334 . S
C2465 C2466 1.287 . S
C2466 C2465 1.287 . S
C2466 C2467 1.524 . S
C2466 H2485 0.913 . S
C2467 H2443 0.950 . S
C2467 C2466 1.524 . S
C2467 C2468 1.415 . S
C2468 H2444 0.950 . S
C2468 C2463 1.363 . S
C2468 C2467 1.415 . S
C2469 H2445 0.951 . S
C2469 C2470 1.366 . S
C2469 C2471 1.388 . S
C2470 C2469 1.366 . S
C2470 C2474 1.385 . S
C2471 H2446 0.951 . S
C2471 C2469 1.388 . S
C2471 C2472 1.366 . S
C2472 C2471 1.366 . S
C2472 C2473 1.414 . S
C2472 C2475 1.499 . S
C2473 H2447 0.950 . S
C2473 C2472 1.414 . S
C2473 C2474 1.374 . S
C2474 H2448 0.950 . S
C2474 C2470 1.385 . S
C2474 C2473 1.374 . S
C2475 C2472 1.499 . S
C2475 C2476 1.373 . S
C2475 C2477 1.389 . S
C2476 H2449 0.950 . S
C2476 C2462 1.377 . S
C2476 C2475 1.373 . S
C2477 C2461 1.377 . S
C2477 C2475 1.389 . S
C2477 C2478 1.524 . S
C2478 C2477 1.524 . S
C2478 C2479 1.397 . S
C2478 C2483 1.363 . S
C2479 H2450 0.950 . S
C2479 C2478 1.397 . S
C2479 C2480 1.334 . S
C2480 H2451 0.950 . S
C2480 C2479 1.334 . S
C2480 C2481 1.287 . S
C2481 C2480 1.287 . S
C2481 C2482 1.524 . S
C2481 H2484 0.999 . S
C2482 H2452 0.950 . S
C2482 C2481 1.524 . S
C2482 C2483 1.415 . S
C2483 H2453 0.950 . S
C2483 C2478 1.363 . S
C2483 C2482 1.415 . S
H2484 C2481 0.999 . S
H2485 C2466 0.913 . S
H2486 C2504 0.951 . S
H2487 C2506 0.951 . S
H2488 C2508 0.950 . S
H2489 C2509 0.950 . S
H2490 C2511 0.950 . S
H2491 C2514 0.950 . S
H2492 C2515 0.950 . S
H2493 C2517 0.950 . S
H2494 C2518 0.950 . S
H2495 C2519 0.951 . S
H2496 C2521 0.951 . S
H2497 C2523 0.950 . S
H2498 C2524 0.950 . S
H2499 C2526 0.950 . S
H2500 C2529 0.950 . S
H2501 C2530 0.950 . S
H2502 C2532 0.950 . S
H2503 C2533 0.950 . S
C2504 H2486 0.951 . S
C2504 C2505 1.366 . S
C2504 C2506 1.388 . S
C2505 C2504 1.366 . S
C2505 C2509 1.385 . S
C2506 H2487 0.951 . S
C2506 C2504 1.388 . S
C2506 C2507 1.366 . S
C2507 C2506 1.366 . S
C2507 C2508 1.414 . S
C2507 C2510 1.499 . S
C2508 H2488 0.950 . S
C2508 C2507 1.414 . S
C2508 C2509 1.374 . S
C2509 H2489 0.950 . S
C2509 C2505 1.385 . S
C2509 C2508 1.374 . S
C2510 C2507 1.499 . S
C2510 C2511 1.373 . S
C2510 C2512 1.389 . S
C2511 H2490 0.950 . S
C2511 C2510 1.373 . S
C2511 C2527 1.377 . S
C2512 C2510 1.389 . S
C2512 C2513 1.524 . S
C2512 C2526 1.377 . S
C2513 C2512 1.524 . S
C2513 C2514 1.397 . S
C2513 C2518 1.363 . S
C2514 H2491 0.950 . S
C2514 C2513 1.397 . S
C2514 C2515 1.334 . S
C2515 H2492 0.950 . S
C2515 C2514 1.334 . S
C2515 C2516 1.287 . S
C2516 C2515 1.287 . S
C2516 C2517 1.524 . S
C2516 H2535 0.913 . S
C2517 H2493 0.950 . S
C2517 C2516 1.524 . S
C2517 C2518 1.415 . S
C2518 H2494 0.950 . S
C2518 C2513 1.363 . S
C2518 C2517 1.415 . S
C2519 H2495 0.951 . S
C2519 C2520 1.366 . S
C2519 C2521 1.388 . S
C2520 C2519 1.366 . S
C2520 C2524 1.385 . S
C2521 H2496 0.951 . S
C2521 C2519 1.388 . S
C2521 C2522 1.366 . S
C2522 C2521 1.366 . S
C2522 C2523 1.414 . S
C2522 C2525 1.499 . S
C2523 H2497 0.950 . S
C2523 C2522 1.414 . S
C2523 C2524 1.374 . S
C2524 H2498 0.950 . S
C2524 C2520 1.385 . S
C2524 C2523 1.374 . S
C2525 C2522 1.499 . S
C2525 C2526 1.373 . S
C2525 C2527 1.389 . S
C2526 H2499 0.950 . S
C2526 C2512 1.377 . S
C2526 C2525 1.373 . S
C2527 C2511 1.377 . S
C2527 C2525 1.389 . S
C2527 C2528 1.524 . S
C2528 C2527 1.524 . S
C2528 C2529 1.397 . S
C2528 C2533 1.363 . S
C2529 H2500 0.950 . S
C2529 C2528 1.397 . S
C2529 C2530 1.334 . S
C2530 H2501 0.950 . S
C2530 C2529 1.334 . S
C2530 C2531 1.287 . S
C2531 C2530 1.287 . S
C2531 C2532 1.524 . S
C2531 H2534 0.999 . S
C2532 H2502 0.950 . S
C2532 C2531 1.524 . S
C2532 C2533 1.415 . S
C2533 H2503 0.950 . S
C2533 C2528 1.363 . S
C2533 C2532 1.415 . S
H2534 C2531 0.999 . S
H2535 C2516 0.913 . S
H2536 C2554 0.951 . S
H2537 C2556 0.951 . S
H2538 C2558 0.950 . S
H2539 C2559 0.950 . S
H2540 C2561 0.950 . S
H2541 C2564 0.950 . S
H2542 C2565 0.950 . S
H2543 C2567 0.950 . S
H2544 C2568 0.950 . S
H2545 C2569 0.951 . S
H2546 C2571 0.951 . S
H2547 C2573 0.950 . S
H2548 C2574 0.950 . S
H2549 C2576 0.950 . S
H2550 C2579 0.950 . S
H2551 C2580 0.950 . S
H2552 C2582 0.950 . S
H2553 C2583 0.950 . S
C2554 H2536 0.951 . S
C2554 C2555 1.366 . S
C2554 C2556 1.388 . S
C2555 C2554 1.366 . S
C2555 C2559 1.385 . S
C2556 H2537 0.951 . S
C2556 C2554 1.388 . S
C2556 C2557 1.366 . S
C2557 C2556 1.366 . S
C2557 C2558 1.414 . S
C2557 C2560 1.499 . S
C2558 H2538 0.950 . S
C2558 C2557 1.414 . S
C2558 C2559 1.374 . S
C2559 H2539 0.950 . S
C2559 C2555 1.385 . S
C2559 C2558 1.374 . S
C2560 C2557 1.499 . S
C2560 C2561 1.373 . S
C2560 C2562 1.389 . S
C2561 H2540 0.950 . S
C2561 C2560 1.373 . S
C2561 C2577 1.377 . S
C2562 C2560 1.389 . S
C2562 C2563 1.524 . S
C2562 C2576 1.377 . S
C2563 C2562 1.524 . S
C2563 C2564 1.397 . S
C2563 C2568 1.363 . S
C2564 H2541 0.950 . S
C2564 C2563 1.397 . S
C2564 C2565 1.334 . S
C2565 H2542 0.950 . S
C2565 C2564 1.334 . S
C2565 C2566 1.287 . S
C2566 C2565 1.287 . S
C2566 C2567 1.524 . S
C2566 H2585 0.913 . S
C2567 H2543 0.950 . S
C2567 C2566 1.524 . S
C2567 C2568 1.415 . S
C2568 H2544 0.950 . S
C2568 C2563 1.363 . S
C2568 C2567 1.415 . S
C2569 H2545 0.951 . S
C2569 C2570 1.366 . S
C2569 C2571 1.388 . S
C2570 C2569 1.366 . S
C2570 C2574 1.385 . S
C2571 H2546 0.951 . S
C2571 C2569 1.388 . S
C2571 C2572 1.366 . S
C2572 C2571 1.366 . S
C2572 C2573 1.414 . S
C2572 C2575 1.499 . S
C2573 H2547 0.950 . S
C2573 C2572 1.414 . S
C2573 C2574 1.374 . S
C2574 H2548 0.950 . S
C2574 C2570 1.385 . S
C2574 C2573 1.374 . S
C2575 C2572 1.499 . S
C2575 C2576 1.373 . S
C2575 C2577 1.389 . S
C2576 H2549 0.950 . S
C2576 C2562 1.377 . S
C2576 C2575 1.373 . S
C2577 C2561 1.377 . S
C2577 C2575 1.389 . S
C2577 C2578 1.524 . S
C2578 C2577 1.524 . S
C2578 C2579 1.397 . S
C2578 C2583 1.363 . S
C2579 H2550 0.950 . S
C2579 C2578 1.397 . S
C2579 C2580 1.334 . S
C2580 H2551 0.950 . S
C2580 C2579 1.334 . S
C2580 C2581 1.287 . S
C2581 C2580 1.287 . S
C2581 C2582 1.524 . S
C2581 H2584 0.999 . S
C2582 H2552 0.950 . S
C2582 C2581 1.524 . S
C2582 C2583 1.415 . S
C2583 H2553 0.950 . S
C2583 C2578 1.363 . S
C2583 C2582 1.415 . S
H2584 C2581 0.999 . S
H2585 C2566 0.913 . S
H2586 C2604 0.951 . S
H2587 C2606 0.951 . S
H2588 C2608 0.950 . S
H2589 C2609 0.950 . S
H2590 C2611 0.950 . S
H2591 C2614 0.950 . S
H2592 C2615 0.950 . S
H2593 C2617 0.950 . S
H2594 C2618 0.950 . S
H2595 C2619 0.951 . S
H2596 C2621 0.951 . S
H2597 C2623 0.950 . S
H2598 C2624 0.950 . S
H2599 C2626 0.950 . S
H2600 C2629 0.950 . S
H2601 C2630 0.950 . S
H2602 C2632 0.950 . S
H2603 C2633 0.950 . S
C2604 H2586 0.951 . S
C2604 C2605 1.366 . S
C2604 C2606 1.388 . S
C2605 C2604 1.366 . S
C2605 C2609 1.385 . S
C2606 H2587 0.951 . S
C2606 C2604 1.388 . S
C2606 C2607 1.366 . S
C2607 C2606 1.366 . S
C2607 C2608 1.414 . S
C2607 C2610 1.499 . S
C2608 H2588 0.950 . S
C2608 C2607 1.414 . S
C2608 C2609 1.374 . S
C2609 H2589 0.950 . S
C2609 C2605 1.385 . S
C2609 C2608 1.374 . S
C2610 C2607 1.499 . S
C2610 C2611 1.373 . S
C2610 C2612 1.389 . S
C2611 H2590 0.950 . S
C2611 C2610 1.373 . S
C2611 C2627 1.377 . S
C2612 C2610 1.389 . S
C2612 C2613 1.524 . S
C2612 C2626 1.377 . S
C2613 C2612 1.524 . S
C2613 C2614 1.397 . S
C2613 C2618 1.363 . S
C2614 H2591 0.950 . S
C2614 C2613 1.397 . S
C2614 C2615 1.334 . S
C2615 H2592 0.950 . S
C2615 C2614 1.334 . S
C2615 C2616 1.287 . S
C2616 C2615 1.287 . S
C2616 C2617 1.524 . S
C2616 H2635 0.913 . S
C2617 H2593 0.950 . S
C2617 C2616 1.524 . S
C2617 C2618 1.415 . S
C2618 H2594 0.950 . S
C2618 C2613 1.363 . S
C2618 C2617 1.415 . S
C2619 H2595 0.951 . S
C2619 C2620 1.366 . S
C2619 C2621 1.388 . S
C2620 C2619 1.366 . S
C2620 C2624 1.385 . S
C2621 H2596 0.951 . S
C2621 C2619 1.388 . S
C2621 C2622 1.366 . S
C2622 C2621 1.366 . S
C2622 C2623 1.414 . S
C2622 C2625 1.499 . S
C2623 H2597 0.950 . S
C2623 C2622 1.414 . S
C2623 C2624 1.374 . S
C2624 H2598 0.950 . S
C2624 C2620 1.385 . S
C2624 C2623 1.374 . S
C2625 C2622 1.499 . S
C2625 C2626 1.373 . S
C2625 C2627 1.389 . S
C2626 H2599 0.950 . S
C2626 C2612 1.377 . S
C2626 C2625 1.373 . S
C2627 C2611 1.377 . S
C2627 C2625 1.389 . S
C2627 C2628 1.524 . S
C2628 C2627 1.524 . S
C2628 C2629 1.397 . S
C2628 C2633 1.363 . S
C2629 H2600 0.950 . S
C2629 C2628 1.397 . S
C2629 C2630 1.334 . S
C2630 H2601 0.950 . S
C2630 C2629 1.334 . S
C2630 C2631 1.287 . S
C2631 C2630 1.287 . S
C2631 C2632 1.524 . S
C2631 H2634 0.999 . S
C2632 H2602 0.950 . S
C2632 C2631 1.524 . S
C2632 C2633 1.415 . S
C2633 H2603 0.950 . S
C2633 C2628 1.363 . S
C2633 C2632 1.415 . S
H2634 C2631 0.999 . S
H2635 C2616 0.913 . S
H2636 C2654 0.951 . S
H2637 C2656 0.951 . S
H2638 C2658 0.950 . S
H2639 C2659 0.950 . S
H2640 C2661 0.950 . S
H2641 C2664 0.950 . S
H2642 C2665 0.950 . S
H2643 C2667 0.950 . S
H2644 C2668 0.950 . S
H2645 C2669 0.951 . S
H2646 C2671 0.951 . S
H2647 C2673 0.950 . S
H2648 C2674 0.950 . S
H2649 C2676 0.950 . S
H2650 C2679 0.950 . S
H2651 C2680 0.950 . S
H2652 C2682 0.950 . S
H2653 C2683 0.950 . S
C2654 H2636 0.951 . S
C2654 C2655 1.366 . S
C2654 C2656 1.388 . S
C2655 C2654 1.366 . S
C2655 C2659 1.385 . S
C2656 H2637 0.951 . S
C2656 C2654 1.388 . S
C2656 C2657 1.366 . S
C2657 C2656 1.366 . S
C2657 C2658 1.414 . S
C2657 C2660 1.499 . S
C2658 H2638 0.950 . S
C2658 C2657 1.414 . S
C2658 C2659 1.374 . S
C2659 H2639 0.950 . S
C2659 C2655 1.385 . S
C2659 C2658 1.374 . S
C2660 C2657 1.499 . S
C2660 C2661 1.373 . S
C2660 C2662 1.389 . S
C2661 H2640 0.950 . S
C2661 C2660 1.373 . S
C2661 C2677 1.377 . S
C2662 C2660 1.389 . S
C2662 C2663 1.524 . S
C2662 C2676 1.377 . S
C2663 C2662 1.524 . S
C2663 C2664 1.397 . S
C2663 C2668 1.363 . S
C2664 H2641 0.950 . S
C2664 C2663 1.397 . S
C2664 C2665 1.334 . S
C2665 H2642 0.950 . S
C2665 C2664 1.334 . S
C2665 C2666 1.287 . S
C2666 C2665 1.287 . S
C2666 C2667 1.524 . S
C2666 H2685 0.913 . S
C2667 H2643 0.950 . S
C2667 C2666 1.524 . S
C2667 C2668 1.415 . S
C2668 H2644 0.950 . S
C2668 C2663 1.363 . S
C2668 C2667 1.415 . S
C2669 H2645 0.951 . S
C2669 C2670 1.366 . S
C2669 C2671 1.388 . S
C2670 C2669 1.366 . S
C2670 C2674 1.385 . S
C2671 H2646 0.951 . S
C2671 C2669 1.388 . S
C2671 C2672 1.366 . S
C2672 C2671 1.366 . S
C2672 C2673 1.414 . S
C2672 C2675 1.499 . S
C2673 H2647 0.950 . S
C2673 C2672 1.414 . S
C2673 C2674 1.374 . S
C2674 H2648 0.950 . S
C2674 C2670 1.385 . S
C2674 C2673 1.374 . S
C2675 C2672 1.499 . S
C2675 C2676 1.373 . S
C2675 C2677 1.389 . S
C2676 H2649 0.950 . S
C2676 C2662 1.377 . S
C2676 C2675 1.373 . S
C2677 C2661 1.377 . S
C2677 C2675 1.389 . S
C2677 C2678 1.524 . S
C2678 C2677 1.524 . S
C2678 C2679 1.397 . S
C2678 C2683 1.363 . S
C2679 H2650 0.950 . S
C2679 C2678 1.397 . S
C2679 C2680 1.334 . S
C2680 H2651 0.950 . S
C2680 C2679 1.334 . S
C2680 C2681 1.287 . S
C2681 C2680 1.287 . S
C2681 C2682 1.524 . S
C2681 H2684 0.999 . S
C2682 H2652 0.950 . S
C2682 C2681 1.524 . S
C2682 C2683 1.415 . S
C2683 H2653 0.950 . S
C2683 C2678 1.363 . S
C2683 C2682 1.415 . S
H2684 C2681 0.999 . S
H2685 C2666 0.913 . S
H2686 C2704 0.951 . S
H2687 C2706 0.951 . S
H2688 C2708 0.950 . S
H2689 C2709 0.950 . S
H2690 C2711 0.950 . S
H2691 C2714 0.950 . S
H2692 C2715 0.950 . S
H2693 C2717 0.950 . S
H2694 C2718 0.950 . S
H2695 C2719 0.951 . S
H2696 C2721 0.951 . S
H2697 C2723 0.950 . S
H2698 C2724 0.950 . S
H2699 C2726 0.950 . S
H2700 C2729 0.950 . S
H2701 C2730 0.950 . S
H2702 C2732 0.950 . S
H2703 C2733 0.950 . S
C2704 H2686 0.951 . S
C2704 C2705 1.366 . S
C2704 C2706 1.388 . S
C2705 C2704 1.366 . S
C2705 C2709 1.385 . S
C2706 H2687 0.951 . S
C2706 C2704 1.388 . S
C2706 C2707 1.366 . S
C2707 C2706 1.366 . S
C2707 C2708 1.414 . S
C2707 C2710 1.499 . S
C2708 H2688 0.950 . S
C2708 C2707 1.414 . S
C2708 C2709 1.374 . S
C2709 H2689 0.950 . S
C2709 C2705 1.385 . S
C2709 C2708 1.374 . S
C2710 C2707 1.499 . S
C2710 C2711 1.373 . S
C2710 C2712 1.389 . S
C2711 H2690 0.950 . S
C2711 C2710 1.373 . S
C2711 C2727 1.377 . S
C2712 C2710 1.389 . S
C2712 C2713 1.524 . S
C2712 C2726 1.377 . S
C2713 C2712 1.524 . S
C2713 C2714 1.397 . S
C2713 C2718 1.363 . S
C2714 H2691 0.950 . S
C2714 C2713 1.397 . S
C2714 C2715 1.334 . S
C2715 H2692 0.950 . S
C2715 C2714 1.334 . S
C2715 C2716 1.287 . S
C2716 C2715 1.287 . S
C2716 C2717 1.524 . S
C2716 H2735 0.913 . S
C2717 H2693 0.950 . S
C2717 C2716 1.524 . S
C2717 C2718 1.415 . S
C2718 H2694 0.950 . S
C2718 C2713 1.363 . S
C2718 C2717 1.415 . S
C2719 H2695 0.951 . S
C2719 C2720 1.366 . S
C2719 C2721 1.388 . S
C2720 C2719 1.366 . S
C2720 C2724 1.385 . S
C2721 H2696 0.951 . S
C2721 C2719 1.388 . S
C2721 C2722 1.366 . S
C2722 C2721 1.366 . S
C2722 C2723 1.414 . S
C2722 C2725 1.499 . S
C2723 H2697 0.950 . S
C2723 C2722 1.414 . S
C2723 C2724 1.374 . S
C2724 H2698 0.950 . S
C2724 C2720 1.385 . S
C2724 C2723 1.374 . S
C2725 C2722 1.499 . S
C2725 C2726 1.373 . S
C2725 C2727 1.389 . S
C2726 H2699 0.950 . S
C2726 C2712 1.377 . S
C2726 C2725 1.373 . S
C2727 C2711 1.377 . S
C2727 C2725 1.389 . S
C2727 C2728 1.524 . S
C2728 C2727 1.524 . S
C2728 C2729 1.397 . S
C2728 C2733 1.363 . S
C2729 H2700 0.950 . S
C2729 C2728 1.397 . S
C2729 C2730 1.334 . S
C2730 H2701 0.950 . S
C2730 C2729 1.334 . S
C2730 C2731 1.287 . S
C2731 C2730 1.287 . S
C2731 C2732 1.524 . S
C2731 H2734 0.999 . S
C2732 H2702 0.950 . S
C2732 C2731 1.524 . S
C2732 C2733 1.415 . S
C2733 H2703 0.950 . S
C2733 C2728 1.363 . S
C2733 C2732 1.415 . S
H2734 C2731 0.999 . S
H2735 C2716 0.913 . S
C355 C106 0.968 . S
C370 C8 1.070 . S
C405 C23 0.568 . S
C420 C65 0.615 . S
C455 C78 0.946 . S
C470 C36 1.062 . S
C505 C51 0.705 . S
C520 C93 0.709 . S
C555 C120 1.070 . S
C570 C9 0.966 . S
C605 C22 0.716 . S
C620 C135 0.696 . S
C655 C148 1.061 . S
C670 C37 0.954 . S
C705 C162 0.553 . S
C720 C50 0.607 . S
C755 C64 0.553 . S
C770 C134 0.606 . S
C805 C79 0.802 . S
C820 C149 0.781 . S
C855 C163 0.615 . S
C870 C92 0.567 . S
C905 C121 0.966 . S
C920 C107 1.070 . S
C955 C303 0.954 . S
C970 C176 1.061 . S
C1005 C191 0.706 . S
C1020 C317 0.710 . S
C1055 C204 1.063 . S
C1070 C330 0.947 . S
C1105 C331 0.802 . S
C1120 C218 0.779 . S
C1155 C232 0.947 . S
C1170 C302 1.063 . S
C1205 C274 0.653 . S
C1220 C246 0.696 . S
C1255 C177 0.779 . S
C1270 C233 0.801 . S
C1305 C190 0.608 . S
C1320 C260 0.545 . S
C1355 C205 0.956 . S
C1370 C219 1.062 . S
C1405 C247 0.654 . S
C1420 C288 0.697 . S
C1455 C261 0.617 . S
C1470 C316 0.568 . S
C1505 C289 0.653 . S
C1520 C275 0.696 . S
C1555 C62 1.878 . S
C1570 C7 1.862 . S
C1605 C77 1.316 . S
C1620 C20 1.311 . S
C1655 C90 2.045 . S
C1670 C35 2.038 . S
C1705 C105 1.784 . S
C1720 C48 1.779 . S
C1755 C119 1.861 . S
C1770 C160 1.882 . S
C1805 C132 1.775 . S
C1820 C118 1.787 . S
C1855 C147 1.521 . S
C1870 C133 1.515 . S
C1905 C146 1.147 . S
C1920 C161 1.146 . S
C1955 C258 1.878 . S
C1970 C104 1.862 . S
C2005 C175 1.520 . S
C2020 C49 1.515 . S
C2055 C6 1.783 . S
C2070 C188 1.779 . S
C2105 C21 2.045 . S
C2120 C203 2.038 . S
C2155 C76 1.691 . S
C2170 C272 1.666 . S
C2205 C63 1.145 . S
C2220 C217 1.148 . S
C2255 C91 1.313 . S
C2270 C231 1.312 . S
C2305 C230 1.692 . S
C2320 C245 1.666 . S
C2355 C174 1.147 . S
C2370 C259 1.146 . S
C2405 C216 1.520 . S
C2420 C189 1.515 . S
C2455 C273 1.929 . S
C2470 C202 1.902 . S
C2505 C287 1.666 . S
C2520 C328 1.692 . S
C2555 C286 1.928 . S
C2570 C300 1.901 . S
C2605 C314 2.045 . S
C2620 C301 2.038 . S
C2655 C329 1.316 . S
C2670 C315 1.310 . S
C2705 C34 1.901 . S
C2720 C244 1.928 . S
