# Generated by pormake.
# Topology uof, (4)-cn, num edge types: 1
# Building blocks:
#     Node 0, Type 0, BuildingBlock: CEKHIL_clean_sbu_0, # of connection points: 4
#     Node 1, Type 0, BuildingBlock: CEKHIL_clean_sbu_0, # of connection points: 4
#     Node 2, Type 0, BuildingBlock: CEKHIL_clean_sbu_0, # of connection points: 4
#     Node 3, Type 0, BuildingBlock: CEKHIL_clean_sbu_0, # of connection points: 4
#     Node 4, Type 0, BuildingBlock: CEKHIL_clean_sbu_0, # of connection points: 4
#     Node 5, Type 0, BuildingBlock: CEKHIL_clean_sbu_0, # of connection points: 4
#     Node 6, Type 0, BuildingBlock: CEKHIL_clean_sbu_0, # of connection points: 4
#     Node 7, Type 0, BuildingBlock: CEKHIL_clean_sbu_0, # of connection points: 4
#     Node 8, Type 0, BuildingBlock: CEKHIL_clean_sbu_0, # of connection points: 4
#     Node 9, Type 0, BuildingBlock: CEKHIL_clean_sbu_0, # of connection points: 4
#     Node 10, Type 0, BuildingBlock: CEKHIL_clean_sbu_0, # of connection points: 4
#     Node 11, Type 0, BuildingBlock: CEKHIL_clean_sbu_0, # of connection points: 4
#     Edge 12, Type (0, 0), BuildingBlock: EZIPEK_clean_linker_0, # of connection points: 2
#     Edge 13, Type (0, 0), BuildingBlock: EZIPEK_clean_linker_0, # of connection points: 2
#     Edge 14, Type (0, 0), BuildingBlock: EZIPEK_clean_linker_0, # of connection points: 2
#     Edge 15, Type (0, 0), BuildingBlock: EZIPEK_clean_linker_0, # of connection points: 2
#     Edge 16, Type (0, 0), BuildingBlock: EZIPEK_clean_linker_0, # of connection points: 2
#     Edge 17, Type (0, 0), BuildingBlock: EZIPEK_clean_linker_0, # of connection points: 2
#     Edge 18, Type (0, 0), BuildingBlock: EZIPEK_clean_linker_0, # of connection points: 2
#     Edge 19, Type (0, 0), BuildingBlock: EZIPEK_clean_linker_0, # of connection points: 2
#     Edge 20, Type (0, 0), BuildingBlock: EZIPEK_clean_linker_0, # of connection points: 2
#     Edge 21, Type (0, 0), BuildingBlock: EZIPEK_clean_linker_0, # of connection points: 2
#     Edge 22, Type (0, 0), BuildingBlock: EZIPEK_clean_linker_0, # of connection points: 2
#     Edge 23, Type (0, 0), BuildingBlock: EZIPEK_clean_linker_0, # of connection points: 2
#     Edge 24, Type (0, 0), BuildingBlock: EZIPEK_clean_linker_0, # of connection points: 2
#     Edge 25, Type (0, 0), BuildingBlock: EZIPEK_clean_linker_0, # of connection points: 2
#     Edge 26, Type (0, 0), BuildingBlock: EZIPEK_clean_linker_0, # of connection points: 2
#     Edge 27, Type (0, 0), BuildingBlock: EZIPEK_clean_linker_0, # of connection points: 2
#     Edge 28, Type (0, 0), BuildingBlock: EZIPEK_clean_linker_0, # of connection points: 2
#     Edge 29, Type (0, 0), BuildingBlock: EZIPEK_clean_linker_0, # of connection points: 2
#     Edge 30, Type (0, 0), BuildingBlock: EZIPEK_clean_linker_0, # of connection points: 2
#     Edge 31, Type (0, 0), BuildingBlock: EZIPEK_clean_linker_0, # of connection points: 2
#     Edge 32, Type (0, 0), BuildingBlock: EZIPEK_clean_linker_0, # of connection points: 2
#     Edge 33, Type (0, 0), BuildingBlock: EZIPEK_clean_linker_0, # of connection points: 2
#     Edge 34, Type (0, 0), BuildingBlock: EZIPEK_clean_linker_0, # of connection points: 2
#     Edge 35, Type (0, 0), BuildingBlock: EZIPEK_clean_linker_0, # of connection points: 2
# Relax obj value: 0.191
# Max RMSD: 0.141
# Mean RMSD: 0.141
data_MOF--net-uof--node1-CEKHIL_clean_sbu_0--edge1-EZIPEK_clean_linker_0
_symmetry_space_group_name_H-M    P1
_symmetry_Int_Tables_number       1
_symmetry_cell_setting            triclinic
loop_
_symmetry_equiv_pos_as_xyz
'x, y, z'
_cell_length_a     23.439149
_cell_length_b     23.38647
_cell_length_c     45.618522
_cell_angle_alpha  90.181701
_cell_angle_beta   89.880863
_cell_angle_gamma 120.17328
loop_
_atom_site_label
_atom_site_type_symbol
_atom_site_fract_x
_atom_site_fract_y
_atom_site_fract_z
_atom_type_partial_charge
Co0 Co 0.21522 0.25888 0.23421 0.0
O1 O 0.1199 0.20101 0.22652 0.0
O2 O 0.1853 0.28095 0.19743 0.0
C3 C 0.20987 0.27576 0.28321 0.0
O4 O 0.31691 0.32935 0.23476 0.0
Co5 Co 0.28997 0.21636 0.27966 0.0
O6 O 0.3701 0.29802 0.26659 0.0
C7 C 0.22867 0.14309 0.22816 0.0
C8 C 0.12576 0.2318 0.20206 0.0
C9 C 0.37069 0.3386 0.24774 0.0
O10 O 0.23302 0.19301 0.21427 0.0
O11 O 0.22468 0.13915 0.25596 0.0
O12 O 0.19898 0.31131 0.26443 0.0
O13 O 0.21694 0.23004 0.27181 0.0
Co14 Co 0.99553 0.25498 0.56274 0.0
O15 O 0.96222 0.16017 0.55578 0.0
O16 O 0.942 0.22088 0.52617 0.0
C17 C 0.9753 0.24842 0.61141 0.0
O18 O 0.02339 0.35633 0.56434 0.0
Co19 Co 0.11534 0.3322 0.60774 0.0
O20 O 0.11181 0.41073 0.59443 0.0
C21 C 0.12461 0.27213 0.55598 0.0
C22 C 0.93513 0.1629 0.53153 0.0
C23 C 0.06869 0.41049 0.57728 0.0
O24 O 0.07914 0.2764 0.54216 0.0
O25 O 0.12254 0.26495 0.58362 0.0
O26 O 0.92696 0.23512 0.59335 0.0
O27 O 0.02859 0.25853 0.59958 0.0
Co28 Co 0.66006 0.94147 0.88007 0.0
O29 O 0.73254 0.92612 0.86851 0.0
O30 O 0.62957 0.85611 0.85882 0.0
C31 C 0.69895 0.98003 0.92633 0.0
O32 O 0.57178 0.94224 0.88807 0.0
Co33 Co 0.69074 0.0855 0.8987 0.0
O34 O 0.595 0.04513 0.90199 0.0
C35 C 0.70326 0.05019 0.83733 0.0
C36 C 0.69096 0.87117 0.85575 0.0
C37 C 0.55414 0.98519 0.89564 0.0
O38 O 0.67047 0.98779 0.84223 0.0
O39 O 0.7207 0.0942 0.85743 0.0
O40 O 0.66466 0.91656 0.92137 0.0
O41 O 0.71132 0.01621 0.90364 0.0
Co42 Co 0.77958 0.68075 0.22042 0.0
O43 O 0.87037 0.75344 0.21324 0.0
O44 O 0.83699 0.6524 0.19971 0.0
C45 C 0.77082 0.71322 0.26682 0.0
O46 O 0.68773 0.59216 0.22418 0.0
Co47 Co 0.66445 0.71156 0.23444 0.0
O48 O 0.60628 0.61537 0.2337 0.0
C49 C 0.7365 0.74479 0.17871 0.0
C50 C 0.88482 0.71389 0.1994 0.0
C51 C 0.62575 0.57439 0.22871 0.0
O52 O 0.75332 0.70091 0.18228 0.0
O53 O 0.70763 0.76076 0.1981 0.0
O54 O 0.80007 0.6788 0.26268 0.0
O55 O 0.75224 0.72886 0.24348 0.0
Co56 Co 0.12468 0.81763 0.5618 0.0
O57 O 0.13999 0.90711 0.55426 0.0
O58 O 0.21062 0.87726 0.54194 0.0
C59 C 0.07894 0.80606 0.60785 0.0
O60 O 0.12375 0.72731 0.56542 0.0
Co61 Co 0.97859 0.70068 0.57287 0.0
O62 O 0.01905 0.64462 0.57425 0.0
C63 C 0.02698 0.75235 0.51321 0.0
C64 C 0.19405 0.9228 0.54028 0.0
C65 C 0.0797 0.66488 0.56926 0.0
O66 O 0.08589 0.78962 0.52225 0.0
O67 O 0.97776 0.71903 0.53028 0.0
O68 O 0.14293 0.83731 0.60462 0.0
O69 O 0.04674 0.78806 0.58382 0.0
Co70 Co 0.25884 0.09867 0.9128 0.0
O71 O 0.20659 0.14272 0.90867 0.0
O72 O 0.2885 0.1616 0.87965 0.0
C73 C 0.27001 0.10362 0.96234 0.0
O74 O 0.32306 0.06089 0.91029 0.0
Co75 Co 0.19895 0.96529 0.94872 0.0
O76 O 0.27837 0.96368 0.93474 0.0
C77 C 0.1407 0.97538 0.89508 0.0
C78 C 0.24007 0.17234 0.88533 0.0
C79 C 0.32432 1.00848 0.91917 0.0
O80 O 0.19492 0.02617 0.88702 0.0
O81 O 0.12793 0.95497 0.92149 0.0
O82 O 0.30976 0.15531 0.94672 0.0
O83 O 0.22312 0.0569 0.94799 0.0
Co84 Co 0.78657 0.83224 0.42278 0.0
O85 O 0.84729 0.92771 0.4287 0.0
O86 O 0.76709 0.86756 0.45895 0.0
C87 C 0.77098 0.83514 0.37388 0.0
O88 O 0.7139 0.73069 0.42306 0.0
Co89 Co 0.82794 0.75317 0.37919 0.0
O90 O 0.74494 0.67488 0.39232 0.0
C91 C 0.89895 0.81262 0.43195 0.0
C92 C 0.81769 0.92561 0.45303 0.0
C93 C 0.70405 0.67586 0.41056 0.0
O94 O 0.84922 0.81265 0.44397 0.0
O95 O 0.90548 0.81025 0.40434 0.0
O96 O 0.73605 0.84864 0.39199 0.0
O97 O 0.81551 0.82734 0.38582 0.0
Co98 Co 0.89236 0.72179 0.76339 0.0
O99 O 0.86394 0.78819 0.76771 0.0
O100 O 0.81085 0.69007 0.78737 0.0
C101 C 0.92274 0.74007 0.71477 0.0
O102 O 0.90748 0.64028 0.76489 0.0
Co103 Co 0.03977 0.76601 0.74618 0.0
O104 O 1.01241 0.67171 0.7516 0.0
C105 C 1.00451 0.806 0.8009 0.0
C106 C 0.81653 0.74828 0.78498 0.0
C107 C 0.95539 0.62788 0.76049 0.0
O108 O 0.94543 0.75759 0.79931 0.0
O109 O 0.04725 0.82279 0.78045 0.0
O110 O 0.86075 0.70163 0.72181 0.0
O111 O 0.96089 0.76832 0.7365 0.0
Co112 Co 0.24723 0.91474 0.11161 0.0
O113 O 0.15895 0.89984 0.12033 0.0
O114 O 0.18628 0.82635 0.12964 0.0
C115 C 0.25675 0.96525 0.06739 0.0
O116 O 0.3369 0.91583 0.10487 0.0
Co117 Co 0.3638 0.06239 0.10295 0.0
O118 O 0.41841 0.02169 0.09662 0.0
C119 C 0.30727 1.00904 0.16143 0.0
C120 C 0.14139 0.84353 0.13241 0.0
C121 C 0.3985 0.9604 0.09955 0.0
O122 O 0.27608 0.94954 0.15196 0.0
O123 O 0.33835 0.05954 0.14479 0.0
O124 O 0.22532 0.90086 0.06904 0.0
O125 O 0.27627 0.99501 0.09198 0.0
Co126 Co 0.35597 0.27145 0.44094 0.0
O127 O 0.28075 0.18435 0.45119 0.0
O128 O 0.38132 0.21208 0.46178 0.0
C129 C 0.31734 0.27636 0.39517 0.0
O130 O 0.44616 0.35998 0.43383 0.0
Co131 Co 0.32833 0.38829 0.42747 0.0
O132 O 0.42472 0.44284 0.42468 0.0
C133 C 0.33136 0.34569 0.4883 0.0
C134 C 0.31881 0.16804 0.46477 0.0
C135 C 0.46492 0.42216 0.42885 0.0
O136 O 0.35082 0.30616 0.4799 0.0
O137 O 0.31495 0.37747 0.47065 0.0
O138 O 0.34889 0.24426 0.39902 0.0
O139 O 0.30653 0.2991 0.41874 0.0
Co140 Co 0.05628 0.31381 0.77781 0.0
O141 O 0.09328 0.2564 0.78532 0.0
O142 O 0.12118 0.34599 0.81055 0.0
C143 C 0.05942 0.3109 0.72818 0.0
O144 O 0.02476 0.38394 0.77446 0.0
Co145 Co 0.92052 0.2514 0.74102 0.0
O146 O 0.9247 0.33562 0.75208 0.0
C147 C 0.93997 0.20265 0.79281 0.0
C148 C 0.12664 0.2934 0.80718 0.0
C149 C 0.97337 0.38579 0.76419 0.0
O150 O 0.98233 0.25727 0.80466 0.0
O151 O 0.94378 0.19507 0.7655 0.0
O152 O 0.11301 0.35239 0.74229 0.0
O153 O 1.01122 0.27169 0.74413 0.0
Co154 Co 0.80813 0.06643 0.08573 0.0
O155 O 0.90364 0.10466 0.09242 0.0
O156 O 0.83917 0.11701 0.12302 0.0
C157 C 0.81064 0.08929 0.03724 0.0
O158 O 0.70639 0.03253 0.08634 0.0
Co159 Co 0.73509 0.94825 0.04061 0.0
O160 O 0.65381 0.94335 0.05653 0.0
C161 C 0.7943 0.93584 0.09274 0.0
C162 C 0.89833 0.12727 0.11768 0.0
C163 C 0.65259 0.98407 0.07489 0.0
O164 O 0.79174 0.98386 0.10517 0.0
O165 O 0.79322 0.92817 0.06505 0.0
O166 O 0.82197 0.13549 0.05641 0.0
O167 O 0.80581 0.03689 0.04791 0.0
C168 C 0.94664 0.1462 0.17049 0.0
C169 C 0.9562 0.15858 0.13969 0.0
C170 C 0.07723 0.21393 0.14923 0.0
C171 C 0.06773 0.20946 0.18032 0.0
N172 N 0.989 0.18636 0.21929 0.0
N173 N 0.03483 0.22218 0.10188 0.0
C174 C 1.00113 0.18007 0.19053 0.0
C175 C 0.02277 0.19785 0.12976 0.0
N176 N 0.88655 0.09921 0.18095 0.0
N177 N 0.13714 0.22958 0.13771 0.0
H178 H 0.99738 0.21552 0.08755 0.0
H179 H 0.08209 0.25577 0.09436 0.0
H180 H 0.17697 0.23653 0.15041 0.0
H181 H 0.14466 0.22735 0.11531 0.0
H182 H 0.87902 0.08406 0.20278 0.0
H183 H 0.84657 0.06961 0.16746 0.0
H184 H 0.9417 0.17078 0.22726 0.0
H185 H 0.02633 0.21456 0.23424 0.0
C186 C 0.83616 0.07212 0.50207 0.0
C187 C 0.9041 0.10379 0.51029 0.0
C188 C 0.91179 0.01414 0.4842 0.0
C189 C 0.84554 0.98539 0.47389 0.0
N190 N 0.74738 0.99329 0.47027 0.0
N191 N 1.00931 0.11048 0.50366 0.0
C192 C 0.80847 0.01612 0.4822 0.0
C193 C 0.94242 0.07609 0.49981 0.0
N194 N 0.79717 0.09398 0.51411 0.0
N195 N 0.94511 0.98066 0.48028 0.0
H196 H 0.03398 0.1561 0.51431 0.0
H197 H 0.04109 0.09733 0.49369 0.0
H198 H 0.9246 0.93496 0.46974 0.0
H199 H 0.99034 0.99465 0.4901 0.0
H200 H 0.74606 0.0692 0.51192 0.0
H201 H 0.81557 0.13459 0.52823 0.0
H202 H 0.72038 0.01731 0.47256 0.0
H203 H 0.72563 0.95269 0.45614 0.0
C204 C 0.69452 0.8082 0.80894 0.0
C205 C 0.71467 0.82996 0.83851 0.0
C206 C 0.79755 0.79332 0.83354 0.0
C207 C 0.77784 0.77183 0.80404 0.0
N208 N 0.69934 0.74851 0.76565 0.0
N209 N 0.77374 0.82574 0.88073 0.0
C210 C 0.7238 0.77629 0.79243 0.0
C211 C 0.76309 0.81766 0.85115 0.0
N212 N 0.6492 0.82034 0.796 0.0
N213 N 0.85074 0.79196 0.84481 0.0
H214 H 0.74772 0.84023 0.89453 0.0
H215 H 0.8028 0.8113 0.89215 0.0
H216 H 0.87321 0.76923 0.83409 0.0
H217 H 0.87466 0.81621 0.86403 0.0
H218 H 0.63843 0.81424 0.77371 0.0
H219 H 0.62476 0.8406 0.80716 0.0
H220 H 0.65591 0.7428 0.7568 0.0
H221 H 0.72004 0.72613 0.75309 0.0
C222 C 0.97463 0.8039 0.16746 0.0
C223 C 0.94908 0.7413 0.18114 0.0
C224 C 0.0451 0.73802 0.15888 0.0
C225 C 0.07609 0.80641 0.15024 0.0
N226 N 0.07267 0.90777 0.15882 0.0
N227 N 0.96913 0.65244 0.19268 0.0
C228 C 0.0417 0.84031 0.15827 0.0
C229 C 0.98699 0.70929 0.17766 0.0
N230 N 0.93374 0.82772 0.16133 0.0
N231 N 0.0684 0.69894 0.14841 0.0
H232 H 0.92838 0.63088 0.20662 0.0
H233 H 0.99831 0.63047 0.19339 0.0
H234 H 0.10714 0.71536 0.13355 0.0
H235 H 0.0442 0.64804 0.15188 0.0
H236 H 0.94907 0.87126 0.14956 0.0
H237 H 0.88301 0.798 0.16377 0.0
H238 H 0.04872 0.93289 0.16575 0.0
H239 H 0.12357 0.93833 0.15749 0.0
C240 C 0.22446 0.07813 0.4962 0.0
C241 C 0.28998 0.10586 0.48473 0.0
C242 C 0.29744 0.01877 0.51356 0.0
C243 C 0.22855 0.98541 0.52068 0.0
N244 N 0.12418 0.97689 0.50751 0.0
N245 N 0.38296 0.08876 0.47874 0.0
C246 C 0.19148 0.01312 0.50865 0.0
C247 C 0.32486 0.07225 0.49238 0.0
N248 N 0.1935 0.1144 0.49684 0.0
N249 N 0.338 1.00177 0.52767 0.0
H250 H 0.40303 0.12399 0.4622 0.0
H251 H 0.40706 0.06191 0.48147 0.0
H252 H 0.32157 0.96625 0.54413 0.0
H253 H 0.38918 0.02837 0.52538 0.0
H254 H 0.1474 0.09703 0.50656 0.0
H255 H 0.21729 0.16476 0.49228 0.0
H256 H 0.09609 0.99387 0.49699 0.0
H257 H 0.09702 0.9269 0.51275 0.0
C258 C 0.19657 0.2526 0.87699 0.0
C259 C 0.21907 0.21084 0.86509 0.0
C260 C 0.19784 0.24033 0.81562 0.0
C261 C 0.1647 0.27222 0.82761 0.0
N262 N 0.12329 0.29703 0.87161 0.0
N263 N 0.22583 0.15452 0.82177 0.0
C264 C 0.162 0.27567 0.85884 0.0
C265 C 0.21598 0.20224 0.83402 0.0
N266 N 0.20965 0.27206 0.90562 0.0
N267 N 0.21383 0.24759 0.78654 0.0
H268 H 0.23482 0.12236 0.83398 0.0
H269 H 0.21733 0.14178 0.79964 0.0
H270 H 0.20485 0.27761 0.77269 0.0
H271 H 0.24308 0.2305 0.77714 0.0
H272 H 0.2002 0.30734 0.91479 0.0
H273 H 0.23686 0.25883 0.9192 0.0
H274 H 0.11389 0.29356 0.89407 0.0
H275 H 0.09511 0.31185 0.85976 0.0
C276 C 0.52521 0.47533 0.20695 0.0
C277 C 0.57119 0.50349 0.2304 0.0
C278 C 0.4843 0.4295 0.26461 0.0
C279 C 0.43842 0.39793 0.24111 0.0
N280 N 0.42399 0.38137 0.1887 0.0
N281 N 0.59901 0.49367 0.27984 0.0
C282 C 0.46136 0.41812 0.21186 0.0
C283 C 0.55209 0.47536 0.25857 0.0
N284 N 0.54205 0.50445 0.18001 0.0
N285 N 0.4626 0.41922 0.29295 0.0
H286 H 0.64888 0.52652 0.27565 0.0
H287 H 0.58962 0.47093 0.30029 0.0
H288 H 0.4131 0.39018 0.29855 0.0
H289 H 0.49244 0.44564 0.31062 0.0
H290 H 0.50843 0.49185 0.16289 0.0
H291 H 0.58932 0.54364 0.17542 0.0
H292 H 0.44101 0.39013 0.16714 0.0
H293 H 0.3786 0.33818 0.19115 0.0
C294 C 0.07131 0.56477 0.54338 0.0
C295 C 0.09573 0.61014 0.56734 0.0
C296 C 0.09476 0.52328 0.59763 0.0
C297 C 0.07404 0.47792 0.57332 0.0
N298 N 0.06111 0.46586 0.5207 0.0
N299 N 0.15094 0.638 0.61361 0.0
C300 C 0.06752 0.50157 0.54545 0.0
C301 C 0.11444 0.59109 0.59314 0.0
N302 N 0.05076 0.58182 0.51864 0.0
N303 N 0.09194 0.50135 0.62559 0.0
H304 H 0.16785 0.68807 0.61004 0.0
H305 H 0.17098 0.62833 0.63201 0.0
H306 H 0.07378 0.452 0.63077 0.0
H307 H 0.10016 0.53099 0.644 0.0
H308 H 0.02486 0.54844 0.50186 0.0
H309 H 0.05721 0.62898 0.5157 0.0
H310 H 0.0624 0.48365 0.49966 0.0
H311 H 0.06147 0.42152 0.5209 0.0
C312 C 0.40339 1.00225 0.88194 0.0
C313 C 0.38084 0.99704 0.91139 0.0
C314 C 0.45268 0.95168 0.9251 0.0
C315 C 0.48366 0.96881 0.89743 0.0
N316 N 0.49046 0.01312 0.84926 0.0
N317 N 0.39273 0.97413 0.96212 0.0
C318 C 0.45905 0.99436 0.87571 0.0
C319 C 0.40736 0.97295 0.93321 0.0
N320 N 0.37019 1.01178 0.85968 0.0
N321 N 0.46757 0.91571 0.94386 0.0
H322 H 0.36318 0.99264 0.96948 0.0
H323 H 0.41558 0.96346 0.97907 0.0
H324 H 0.49974 0.89898 0.9379 0.0
H325 H 0.44286 0.89646 0.96358 0.0
H326 H 0.3805 1.00961 0.83762 0.0
H327 H 0.32803 0.01524 0.86302 0.0
H328 H 0.48091 0.03995 0.83381 0.0
H329 H 0.52847 1.00424 0.84349 0.0
C330 C 0.61264 0.56217 0.3933 0.0
C331 C 0.64352 0.60851 0.41686 0.0
C332 C 0.56377 0.52255 0.45069 0.0
C333 C 0.53601 0.47621 0.42724 0.0
N334 N 0.54685 0.44712 0.37809 0.0
N335 N 0.6576 0.62348 0.46933 0.0
C336 C 0.56526 0.49458 0.39926 0.0
C337 C 0.62169 0.58605 0.446 0.0
N338 N 0.62529 0.58322 0.36491 0.0
N339 N 0.53356 0.50643 0.47745 0.0
H340 H 0.70118 0.6686 0.46706 0.0
H341 H 0.64769 0.60669 0.49089 0.0
H342 H 0.49385 0.4594 0.48199 0.0
H343 H 0.54578 0.54048 0.49445 0.0
H344 H 0.59927 0.55351 0.34712 0.0
H345 H 0.65642 0.6323 0.35919 0.0
H346 H 0.57036 0.45565 0.35784 0.0
H347 H 0.51295 0.39744 0.38226 0.0
C348 C 0.91538 0.50983 0.74517 0.0
C349 C 0.94776 0.56059 0.76611 0.0
C350 C 0.98976 0.49278 0.78934 0.0
C351 C 0.96791 0.44836 0.76499 0.0
N352 N 0.9226 0.42859 0.71549 0.0
N353 N 0.02154 0.60271 0.80746 0.0
C354 C 0.93391 0.4606 0.7418 0.0
C355 C 0.9868 0.55269 0.78795 0.0
N356 N 0.86672 0.50834 0.72828 0.0
N357 N 1.01 0.47673 0.81446 0.0
H358 H 0.01746 0.64508 0.8083 0.0
H359 H 0.05688 0.60357 0.82157 0.0
H360 H 1.00907 0.4321 0.81725 0.0
H361 H 0.02059 0.50436 0.8337 0.0
H362 H 0.83763 0.46928 0.71415 0.0
H363 H 0.85007 0.54173 0.73133 0.0
H364 H 0.9041 0.4409 0.69731 0.0
H365 H 0.93906 0.39602 0.71037 0.0
C366 C 0.50154 0.96474 0.11871 0.0
C367 C 0.45282 0.94442 0.09635 0.0
C368 C 0.53545 0.95455 0.06024 0.0
C369 C 0.58441 0.97267 0.08268 0.0
N370 N 0.60542 0.97577 0.13468 0.0
N371 N 0.41881 0.90158 0.04788 0.0
C372 C 0.56497 0.97221 0.11237 0.0
C373 C 0.46841 0.93282 0.06787 0.0
N374 N 0.48767 0.97872 0.14599 0.0
N375 N 0.55331 0.96195 0.03138 0.0
H376 H 0.36956 0.88444 0.05336 0.0
H377 H 0.42548 0.88632 0.02731 0.0
H378 H 0.60174 0.98092 0.02442 0.0
H379 H 0.5213 0.95621 0.01434 0.0
H380 H 0.52324 1.00186 0.16227 0.0
H381 H 0.44076 0.96986 0.15175 0.0
H382 H 0.59118 0.96928 0.15662 0.0
H383 H 0.65061 0.97835 0.13121 0.0
C384 C 0.2322 0.9915 0.20235 0.0
C385 C 0.29753 0.02238 0.19195 0.0
C386 C 0.32072 0.1282 0.21092 0.0
C387 C 0.25148 0.10145 0.21469 0.0
N388 N 0.14198 1.00619 0.21923 0.0
N389 N 0.40903 0.10475 0.2009 0.0
C390 C 0.20727 0.03212 0.21253 0.0
C391 C 0.34365 0.08545 0.20215 0.0
N392 N 0.19554 0.92414 0.20249 0.0
N393 N 0.36381 0.1943 0.21438 0.0
H394 H 0.42427 0.07235 0.19325 0.0
H395 H 0.44647 0.14916 0.20946 0.0
H396 H 0.34876 0.22768 0.22003 0.0
H397 H 0.41396 0.21701 0.20962 0.0
H398 H 0.14785 0.89725 0.21081 0.0
H399 H 0.21616 0.89527 0.1965 0.0
H400 H 0.10664 0.95645 0.21697 0.0
H401 H 0.12232 0.03533 0.2261 0.0
C402 C 0.22924 0.36591 0.53677 0.0
C403 C 0.18988 0.29705 0.54318 0.0
C404 C 0.28408 0.28253 0.53329 0.0
C405 C 0.31358 0.34435 0.51929 0.0
N406 N 0.33832 0.45582 0.52314 0.0
N407 N 0.18323 0.19231 0.5536 0.0
C408 C 0.29465 0.39021 0.52721 0.0
C409 C 0.21881 0.25615 0.54389 0.0
N410 N 0.20384 0.40707 0.53879 0.0
N411 N 0.31842 0.24988 0.5355 0.0
H412 H 0.13405 0.17057 0.56019 0.0
H413 H 0.20116 0.15971 0.55415 0.0
H414 H 0.36752 0.27199 0.52862 0.0
H415 H 0.30104 0.20464 0.54595 0.0
H416 H 0.22883 0.45618 0.53202 0.0
H417 H 0.15613 0.3915 0.54579 0.0
H418 H 0.32991 0.49359 0.52976 0.0
H419 H 0.3857 0.47156 0.51503 0.0
C420 C 0.84984 0.09232 0.80448 0.0
C421 C 0.87385 0.16148 0.80462 0.0
C422 C 0.76061 0.14021 0.80363 0.0
C423 C 0.73919 0.07369 0.80966 0.0
N424 N 0.75419 0.98294 0.79777 0.0
N425 N 0.85209 0.25255 0.80495 0.0
C426 C 0.78107 0.04853 0.80373 0.0
C427 C 0.82922 0.18613 0.80394 0.0
N428 N 0.89288 0.06906 0.80565 0.0
N429 N 0.71427 0.15864 0.80053 0.0
H430 H 0.9017 0.28759 0.80753 0.0
H431 H 0.8217 0.27305 0.80588 0.0
H432 H 0.664 0.1235 0.8018 0.0
H433 H 0.72491 0.20598 0.79468 0.0
H434 H 0.87789 0.01913 0.80779 0.0
H435 H 0.9439 0.10053 0.80702 0.0
H436 H 0.78165 0.96101 0.79166 0.0
H437 H 0.70312 0.95266 0.79605 0.0
C438 C 0.73821 0.81658 0.10648 0.0
C439 C 0.78954 0.88313 0.11116 0.0
C440 C 0.81194 0.85569 0.15913 0.0
C441 C 0.76284 0.78885 0.15389 0.0
N442 N 0.69257 0.70204 0.12042 0.0
N443 N 0.88787 0.96088 0.13721 0.0
C444 C 0.73138 0.76787 0.12655 0.0
C445 C 0.83081 0.90099 0.13596 0.0
N446 N 0.69185 0.80072 0.08503 0.0
N447 N 0.83966 0.876 0.18629 0.0
H448 H 0.90389 0.99441 0.11985 0.0
H449 H 0.92242 0.97413 0.15398 0.0
H450 H 0.83072 0.84341 0.20356 0.0
H451 H 0.86948 0.92563 0.19197 0.0
H452 H 0.65007 0.75398 0.08308 0.0
H453 H 0.69026 0.83508 0.07114 0.0
H454 H 0.67323 0.68431 0.09964 0.0
H455 H 0.68501 0.66516 0.13535 0.0
C456 C 1.00695 0.8387 0.45279 0.0
C457 C 0.93862 0.79337 0.4491 0.0
C458 C 0.95019 0.70618 0.47225 0.0
C459 C 1.01231 0.75546 0.48217 0.0
N460 N 0.11263 0.85291 0.46803 0.0
N461 N 0.84593 0.68104 0.45103 0.0
C462 C 0.04534 0.81709 0.46784 0.0
C463 C 0.91055 0.72564 0.45704 0.0
N464 N 0.03399 0.90227 0.44296 0.0
N465 N 0.9298 0.64163 0.47841 0.0
H466 H 0.81553 0.69314 0.4393 0.0
H467 H 0.82124 0.63266 0.45873 0.0
H468 H 0.96049 0.62869 0.48963 0.0
H469 H 0.88637 0.60161 0.47055 0.0
H470 H 0.08254 0.9389 0.447 0.0
H471 H 1.00659 0.91952 0.43198 0.0
H472 H 0.14028 0.89709 0.45671 0.0
H473 H 0.14067 0.8339 0.4769 0.0
C474 C 0.09291 0.86651 0.87099 0.0
C475 C 0.09847 0.92977 0.87265 0.0
C476 C 0.03194 0.90733 0.82876 0.0
C477 C 0.02545 0.84379 0.82783 0.0
N478 N 0.03145 0.75539 0.85182 0.0
N479 N 0.06515 1.00713 0.85713 0.0
C480 C 0.04942 0.8207 0.8504 0.0
C481 C 0.06524 0.94928 0.85278 0.0
N482 N 0.13276 0.85193 0.88741 0.0
N483 N 1.00776 0.92768 0.80635 0.0
H484 H 0.0897 0.03899 0.8746 0.0
H485 H 0.03708 0.02137 0.8448 0.0
H486 H 0.98005 0.8964 0.78922 0.0
H487 H 0.01724 0.97595 0.80405 0.0
H488 H 0.13525 0.80903 0.88452 0.0
H489 H 0.16857 0.88534 0.90179 0.0
H490 H 0.04295 0.73492 0.8695 0.0
H491 H 0.99911 0.72039 0.83683 0.0
C492 C 0.22169 0.22754 0.36002 0.0
C493 C 0.28633 0.27936 0.36697 0.0
C494 C 0.28187 0.34383 0.32501 0.0
C495 C 0.2231 0.28752 0.31533 0.0
N496 N 0.13165 0.17902 0.32476 0.0
N497 N 0.37696 0.38882 0.35766 0.0
C498 C 0.19089 0.23091 0.33364 0.0
C499 C 0.31573 0.33857 0.35009 0.0
N500 N 0.18933 0.17564 0.37895 0.0
N501 N 0.30549 0.40158 0.30981 0.0
H502 H 0.40414 0.38404 0.37448 0.0
H503 H 0.40268 0.43362 0.34669 0.0
H504 H 0.28031 0.4061 0.29198 0.0
H505 H 0.34655 0.44613 0.31591 0.0
H506 H 0.1398 0.13966 0.37702 0.0
H507 H 0.21111 0.17014 0.39783 0.0
H508 H 0.10852 0.1325 0.33444 0.0
H509 H 0.10612 0.18263 0.30677 0.0
C510 C 0.98837 0.31663 0.65551 0.0
C511 C 0.97636 0.25567 0.64359 0.0
C512 C 0.03527 0.24099 0.68458 0.0
C513 C 0.04925 0.30298 0.69617 0.0
N514 N 0.04718 0.4039 0.69173 0.0
N515 N 0.97356 0.15263 0.64945 0.0
C516 C 0.02782 0.34198 0.68136 0.0
C517 C 0.99509 0.21555 0.65922 0.0
N518 N 0.96023 0.34876 0.64238 0.0
N519 N 0.06208 0.20747 0.69775 0.0
H520 H 0.94285 0.13331 0.63116 0.0
H521 H 0.98095 0.11806 0.66051 0.0
H522 H 0.09333 0.22652 0.71588 0.0
H523 H 0.05826 0.16412 0.68957 0.0
H524 H 0.96156 0.39063 0.65104 0.0
H525 H 0.93079 0.3298 0.62373 0.0
H526 H 0.03732 0.43743 0.68129 0.0
H527 H 0.07719 0.42326 0.7102 0.0
C528 C 0.73078 0.07763 0.99805 0.0
C529 C 0.79342 0.08712 0.00572 0.0
C530 C 0.7939 0.0268 0.96149 0.0
C531 C 0.72849 1.01165 0.95511 0.0
N532 N 0.63484 0.02397 0.96593 0.0
N533 N 0.89251 0.08896 0.99141 0.0
C534 C 0.69733 0.03838 0.97283 0.0
C535 C 0.82747 0.06767 0.98609 0.0
N536 N 0.70334 0.10524 0.01536 0.0
N537 N 0.82294 1.00012 0.94454 0.0
H538 H 0.91746 0.1199 0.00913 0.0
H539 H 0.92302 0.08128 0.97736 0.0
H540 H 0.79966 0.9698 0.92648 0.0
H541 H 0.8682 1.00411 0.94923 0.0
H542 H 0.65785 0.10145 0.01164 0.0
H543 H 0.72845 0.13557 0.03314 0.0
H544 H 0.60866 0.04273 0.9767 0.0
H545 H 0.60762 0.99012 0.94957 0.0
C546 C 0.82328 0.80707 0.30236 0.0
C547 C 0.76833 0.74463 0.29491 0.0
C548 C 0.70209 0.7592 0.3334 0.0
C549 C 0.75892 0.81839 0.34221 0.0
N550 N 0.86465 0.90984 0.32978 0.0
N551 N 0.65314 0.66415 0.30043 0.0
C552 C 0.81642 0.84595 0.32461 0.0
C553 C 0.70666 0.72199 0.3094 0.0
N554 N 0.8825 0.82848 0.2886 0.0
N555 N 0.64472 0.73826 0.3486 0.0
H556 H 0.65719 0.63332 0.28512 0.0
H557 H 0.60532 0.64592 0.3081 0.0
H558 H 0.64041 0.76698 0.36501 0.0
H559 H 0.60114 0.69408 0.3448 0.0
H560 H 0.92614 0.87055 0.29481 0.0
H561 H 0.88941 0.80146 0.27217 0.0
H562 H 0.90625 0.93602 0.31667 0.0
H563 H 0.85928 0.93857 0.34593 0.0
C564 C 0.02238 0.73085 0.651 0.0
C565 C 0.04251 0.79175 0.63649 0.0
C566 C 0.9749 0.81427 0.67111 0.0
C567 C 0.95202 0.75166 0.68456 0.0
N568 N 0.94469 0.64565 0.68405 0.0
N569 N 0.03082 0.88753 0.63003 0.0
C570 C 0.97296 0.70851 0.67339 0.0
C571 C 0.01656 0.83227 0.64579 0.0
N572 N 0.05189 0.69516 0.64377 0.0
N573 N 0.95799 0.85738 0.68308 0.0
H574 H 0.06387 0.90423 0.61248 0.0
H575 H 1.00741 0.91487 0.63328 0.0
H576 H 0.92431 0.84429 0.70029 0.0
H577 H 0.97936 0.90677 0.67693 0.0
H578 H 0.04421 0.65314 0.65495 0.0
H579 H 0.08912 0.71155 0.62809 0.0
H580 H 0.95327 0.60926 0.6756 0.0
H581 H 0.90726 0.62828 0.69966 0.0
C582 C 0.322 0.03493 0.02422 0.0
C583 C 0.26214 1.00411 0.04056 0.0
C584 C 0.22058 0.06374 0.01136 0.0
C585 C 0.2781 0.09033 0.99357 0.0
N586 N 0.38997 0.11569 0.98702 0.0
N587 N 0.16021 0.99921 0.05391 0.0
C588 C 0.33131 0.08112 0.00155 0.0
C589 C 0.21321 0.02176 0.03541 0.0
N590 N 0.36906 0.01845 0.03007 0.0
N591 N 0.17182 0.07711 0.00423 0.0
H592 H 0.15127 0.96568 0.07076 0.0
H593 H 0.1264 0.01562 0.05364 0.0
H594 H 0.17857 0.11196 0.98829 0.0
H595 H 0.12476 0.05336 0.01334 0.0
H596 H 0.41427 0.038 0.01946 0.0
H597 H 0.36104 0.98155 0.04495 0.0
H598 H 0.43231 0.11389 0.99193 0.0
H599 H 0.39789 0.15065 0.97104 0.0
loop_
_geom_bond_atom_site_label_1
_geom_bond_atom_site_label_2
_geom_bond_distance
_geom_bond_site_symmetry_2
_ccdc_geom_bond_type
Co0 O1 2.216 . S
Co0 O2 2.091 . S
Co0 O4 2.004 . S
Co0 O10 2.021 . S
Co0 O12 2.137 . S
Co0 O13 2.244 . S
O1 Co0 2.216 . S
O1 C8 1.247 . S
O2 Co0 2.091 . S
O2 C8 1.261 . S
C3 O12 1.247 . S
C3 O13 1.272 . S
O4 Co0 2.004 . S
O4 C9 1.259 . S
Co5 O6 2.061 . S
Co5 O11 2.052 . S
Co5 O13 2.135 . S
O6 Co5 2.061 . S
O6 C9 1.235 . S
C7 O10 1.238 . S
C7 O11 1.241 . S
C8 O1 1.247 . S
C8 O2 1.261 . S
C9 O4 1.259 . S
C9 O6 1.235 . S
O10 Co0 2.021 . S
O10 C7 1.238 . S
O11 Co5 2.052 . S
O11 C7 1.241 . S
O12 Co0 2.137 . S
O12 C3 1.247 . S
O13 Co0 2.244 . S
O13 C3 1.272 . S
O13 Co5 2.135 . S
Co14 O15 2.216 . S
Co14 O16 2.091 . S
Co14 O18 2.004 . S
Co14 O24 2.021 1_655 S
Co14 O26 2.137 . S
Co14 O27 2.241 1_655 S
O15 Co14 2.216 . S
O15 C22 1.247 . S
O16 Co14 2.091 . S
O16 C22 1.261 . S
C17 O26 1.247 . S
C17 O27 1.267 1_655 S
O18 Co14 2.004 . S
O18 C23 1.259 . S
Co19 O20 2.061 . S
Co19 O25 2.052 . S
Co19 O27 2.137 . S
O20 Co19 2.061 . S
O20 C23 1.235 1_455 S
C21 O24 1.238 . S
C21 O25 1.241 . S
C22 O15 1.247 . S
C22 O16 1.261 . S
C23 O18 1.259 . S
C23 O20 1.235 1_655 S
O24 Co14 2.021 1_455 S
O24 C21 1.238 . S
O25 Co19 2.052 . S
O25 C21 1.241 . S
O26 Co14 2.137 . S
O26 C17 1.247 . S
O27 Co14 2.241 1_455 S
O27 C17 1.267 1_455 S
O27 Co19 2.137 . S
Co28 O29 2.216 . S
Co28 O30 2.091 . S
Co28 O32 2.004 . S
Co28 O38 2.021 1_565 S
Co28 O40 2.137 . S
Co28 O41 2.241 1_565 S
O29 Co28 2.216 . S
O29 C36 1.247 . S
O30 Co28 2.091 . S
O30 C36 1.261 . S
C31 O40 1.247 . S
C31 O41 1.268 1_565 S
O32 Co28 2.004 . S
O32 C37 1.259 . S
Co33 O34 2.061 . S
Co33 O39 2.052 . S
Co33 O41 2.140 . S
O34 Co33 2.061 . S
O34 C37 1.235 1_545 S
C35 O38 1.238 . S
C35 O39 1.241 . S
C36 O29 1.247 . S
C36 O30 1.261 . S
C37 O32 1.259 . S
C37 O34 1.235 1_565 S
O38 Co28 2.021 1_545 S
O38 C35 1.238 . S
O39 Co33 2.052 . S
O39 C35 1.241 . S
O40 Co28 2.137 . S
O40 C31 1.247 . S
O41 Co28 2.241 1_545 S
O41 C31 1.268 1_545 S
O41 Co33 2.140 . S
Co42 O43 2.216 . S
Co42 O44 2.091 . S
Co42 O46 2.004 . S
Co42 O52 2.021 . S
Co42 O54 2.137 . S
Co42 O55 2.244 . S
O43 Co42 2.216 . S
O43 C50 1.247 . S
O44 Co42 2.091 . S
O44 C50 1.261 . S
C45 O54 1.247 . S
C45 O55 1.272 . S
O46 Co42 2.004 . S
O46 C51 1.259 . S
Co47 O48 2.061 . S
Co47 O53 2.052 . S
Co47 O55 2.135 . S
O48 Co47 2.061 . S
O48 C51 1.235 . S
C49 O52 1.238 . S
C49 O53 1.241 . S
C50 O43 1.247 . S
C50 O44 1.261 . S
C51 O46 1.259 . S
C51 O48 1.235 . S
O52 Co42 2.021 . S
O52 C49 1.238 . S
O53 Co47 2.052 . S
O53 C49 1.241 . S
O54 Co42 2.137 . S
O54 C45 1.247 . S
O55 Co42 2.244 . S
O55 C45 1.272 . S
O55 Co47 2.135 . S
Co56 O57 2.216 . S
Co56 O58 2.091 . S
Co56 O60 2.004 . S
Co56 O66 2.021 1_455 S
Co56 O68 2.137 . S
Co56 O69 2.241 1_455 S
O57 Co56 2.216 . S
O57 C64 1.247 . S
O58 Co56 2.091 . S
O58 C64 1.261 . S
C59 O68 1.247 . S
C59 O69 1.267 1_455 S
O60 Co56 2.004 . S
O60 C65 1.259 . S
Co61 O62 2.061 . S
Co61 O67 2.052 . S
Co61 O69 2.137 . S
O62 Co61 2.061 . S
O62 C65 1.235 1_655 S
C63 O66 1.238 . S
C63 O67 1.241 . S
C64 O57 1.247 . S
C64 O58 1.261 . S
C65 O60 1.259 . S
C65 O62 1.235 1_455 S
O66 Co56 2.021 1_655 S
O66 C63 1.238 . S
O67 Co61 2.052 . S
O67 C63 1.241 . S
O68 Co56 2.137 . S
O68 C59 1.247 . S
O69 Co56 2.241 1_655 S
O69 C59 1.267 1_655 S
O69 Co61 2.137 . S
Co70 O71 2.216 . S
Co70 O72 2.091 . S
Co70 O74 2.004 . S
Co70 O80 2.021 1_545 S
Co70 O82 2.137 . S
Co70 O83 2.241 1_545 S
O71 Co70 2.216 . S
O71 C78 1.247 . S
O72 Co70 2.091 . S
O72 C78 1.261 . S
C73 O82 1.247 . S
C73 O83 1.268 1_545 S
O74 Co70 2.004 . S
O74 C79 1.259 . S
Co75 O76 2.061 . S
Co75 O81 2.052 . S
Co75 O83 2.140 . S
O76 Co75 2.061 . S
O76 C79 1.235 1_565 S
C77 O80 1.238 . S
C77 O81 1.241 . S
C78 O71 1.247 . S
C78 O72 1.261 . S
C79 O74 1.259 . S
C79 O76 1.235 1_545 S
O80 Co70 2.021 1_565 S
O80 C77 1.238 . S
O81 Co75 2.052 . S
O81 C77 1.241 . S
O82 Co70 2.137 . S
O82 C73 1.247 . S
O83 Co70 2.241 1_565 S
O83 C73 1.268 1_565 S
O83 Co75 2.140 . S
Co84 O85 2.216 . S
Co84 O86 2.091 . S
Co84 O88 2.004 . S
Co84 O94 2.021 . S
Co84 O96 2.137 . S
Co84 O97 2.244 . S
O85 Co84 2.216 . S
O85 C92 1.247 . S
O86 Co84 2.091 . S
O86 C92 1.261 . S
C87 O96 1.247 . S
C87 O97 1.272 . S
O88 Co84 2.004 . S
O88 C93 1.259 . S
Co89 O90 2.061 . S
Co89 O95 2.052 . S
Co89 O97 2.135 . S
O90 Co89 2.061 . S
O90 C93 1.235 . S
C91 O94 1.238 . S
C91 O95 1.241 . S
C92 O85 1.247 . S
C92 O86 1.261 . S
C93 O88 1.259 . S
C93 O90 1.235 . S
O94 Co84 2.021 . S
O94 C91 1.238 . S
O95 Co89 2.052 . S
O95 C91 1.241 . S
O96 Co84 2.137 . S
O96 C87 1.247 . S
O97 Co84 2.244 . S
O97 C87 1.272 . S
O97 Co89 2.135 . S
Co98 O99 2.216 . S
Co98 O100 2.091 . S
Co98 O102 2.004 . S
Co98 O108 2.021 1_655 S
Co98 O110 2.137 . S
Co98 O111 2.241 1_655 S
O99 Co98 2.216 . S
O99 C106 1.247 . S
O100 Co98 2.091 . S
O100 C106 1.261 . S
C101 O110 1.247 . S
C101 O111 1.268 1_655 S
O102 Co98 2.004 . S
O102 C107 1.259 . S
Co103 O104 2.061 . S
Co103 O109 2.052 . S
Co103 O111 2.140 . S
O104 Co103 2.061 . S
O104 C107 1.235 1_455 S
C105 O108 1.238 . S
C105 O109 1.241 . S
C106 O99 1.247 . S
C106 O100 1.261 . S
C107 O102 1.259 . S
C107 O104 1.235 1_655 S
O108 Co98 2.021 1_455 S
O108 C105 1.238 . S
O109 Co103 2.052 . S
O109 C105 1.241 . S
O110 Co98 2.137 . S
O110 C101 1.247 . S
O111 Co98 2.241 1_455 S
O111 C101 1.268 1_455 S
O111 Co103 2.140 . S
Co112 O113 2.216 . S
Co112 O114 2.091 . S
Co112 O116 2.004 . S
Co112 O122 2.021 1_565 S
Co112 O124 2.137 . S
Co112 O125 2.241 1_565 S
O113 Co112 2.216 . S
O113 C120 1.247 . S
O114 Co112 2.091 . S
O114 C120 1.261 . S
C115 O124 1.247 . S
C115 O125 1.267 1_565 S
O116 Co112 2.004 . S
O116 C121 1.259 . S
Co117 O118 2.061 . S
Co117 O123 2.052 . S
Co117 O125 2.137 . S
O118 Co117 2.061 . S
O118 C121 1.235 1_545 S
C119 O122 1.238 . S
C119 O123 1.241 . S
C120 O113 1.247 . S
C120 O114 1.261 . S
C121 O116 1.259 . S
C121 O118 1.235 1_565 S
O122 Co112 2.021 1_545 S
O122 C119 1.238 . S
O123 Co117 2.052 . S
O123 C119 1.241 . S
O124 Co112 2.137 . S
O124 C115 1.247 . S
O125 Co112 2.241 1_545 S
O125 C115 1.267 1_545 S
O125 Co117 2.137 . S
Co126 O127 2.216 . S
Co126 O128 2.091 . S
Co126 O130 2.004 . S
Co126 O136 2.021 . S
Co126 O138 2.137 . S
Co126 O139 2.244 . S
O127 Co126 2.216 . S
O127 C134 1.247 . S
O128 Co126 2.091 . S
O128 C134 1.261 . S
C129 O138 1.247 . S
C129 O139 1.272 . S
O130 Co126 2.004 . S
O130 C135 1.259 . S
Co131 O132 2.061 . S
Co131 O137 2.052 . S
Co131 O139 2.135 . S
O132 Co131 2.061 . S
O132 C135 1.235 . S
C133 O136 1.238 . S
C133 O137 1.241 . S
C134 O127 1.247 . S
C134 O128 1.261 . S
C135 O130 1.259 . S
C135 O132 1.235 . S
O136 Co126 2.021 . S
O136 C133 1.238 . S
O137 Co131 2.052 . S
O137 C133 1.241 . S
O138 Co126 2.137 . S
O138 C129 1.247 . S
O139 Co126 2.244 . S
O139 C129 1.272 . S
O139 Co131 2.135 . S
Co140 O141 2.216 . S
Co140 O142 2.091 . S
Co140 O144 2.004 . S
Co140 O150 2.021 1_455 S
Co140 O152 2.137 . S
Co140 O153 2.241 1_455 S
O141 Co140 2.216 . S
O141 C148 1.247 . S
O142 Co140 2.091 . S
O142 C148 1.261 . S
C143 O152 1.247 . S
C143 O153 1.268 1_455 S
O144 Co140 2.004 . S
O144 C149 1.259 . S
Co145 O146 2.061 . S
Co145 O151 2.052 . S
Co145 O153 2.140 . S
O146 Co145 2.061 . S
O146 C149 1.235 1_655 S
C147 O150 1.238 . S
C147 O151 1.241 . S
C148 O141 1.247 . S
C148 O142 1.261 . S
C149 O144 1.259 . S
C149 O146 1.235 1_455 S
O150 Co140 2.021 1_655 S
O150 C147 1.238 . S
O151 Co145 2.052 . S
O151 C147 1.241 . S
O152 Co140 2.137 . S
O152 C143 1.247 . S
O153 Co140 2.241 1_655 S
O153 C143 1.268 1_655 S
O153 Co145 2.140 . S
Co154 O155 2.216 . S
Co154 O156 2.091 . S
Co154 O158 2.004 . S
Co154 O164 2.021 1_545 S
Co154 O166 2.137 . S
Co154 O167 2.241 1_545 S
O155 Co154 2.216 . S
O155 C162 1.247 . S
O156 Co154 2.091 . S
O156 C162 1.261 . S
C157 O166 1.247 . S
C157 O167 1.267 1_545 S
O158 Co154 2.004 . S
O158 C163 1.259 . S
Co159 O160 2.061 . S
Co159 O165 2.052 . S
Co159 O167 2.137 . S
O160 Co159 2.061 . S
O160 C163 1.235 1_565 S
C161 O164 1.238 . S
C161 O165 1.241 . S
C162 O155 1.247 . S
C162 O156 1.261 . S
C163 O158 1.259 . S
C163 O160 1.235 1_545 S
O164 Co154 2.021 1_565 S
O164 C161 1.238 . S
O165 Co159 2.052 . S
O165 C161 1.241 . S
O166 Co154 2.137 . S
O166 C157 1.247 . S
O167 Co154 2.241 1_565 S
O167 C157 1.267 1_565 S
O167 Co159 2.137 . S
C168 C169 1.363 . S
C168 C174 1.379 1_655 S
C168 N176 1.356 . S
C169 C168 1.363 . S
C169 C175 1.363 . S
C170 C171 1.363 . S
C170 C175 1.379 1_455 S
C170 N177 1.356 . S
C171 C170 1.363 . S
C171 C174 1.363 . S
N172 C174 1.356 . S
N172 H184 0.984 1_455 S
N172 H185 0.985 . S
N173 C175 1.356 . S
N173 H178 0.984 . S
N173 H179 0.985 1_655 S
C174 C168 1.379 1_455 S
C174 C171 1.363 . S
C174 N172 1.356 . S
C175 C169 1.363 . S
C175 C170 1.379 1_655 S
C175 N173 1.356 . S
N176 C168 1.356 . S
N176 H182 0.984 . S
N176 H183 0.984 . S
N177 C170 1.356 . S
N177 H180 0.984 . S
N177 H181 0.985 . S
H178 N173 0.984 . S
H179 N173 0.985 1_455 S
H180 N177 0.984 . S
H181 N177 0.985 . S
H182 N176 0.984 . S
H183 N176 0.984 . S
H184 N172 0.984 1_655 S
H185 N172 0.985 . S
C186 C187 1.363 . S
C186 C192 1.379 1_545 S
C186 N194 1.356 . S
C187 C186 1.363 . S
C187 C193 1.363 . S
C188 C189 1.363 . S
C188 C193 1.379 1_565 S
C188 N195 1.356 . S
C189 C188 1.363 . S
C189 C192 1.363 . S
N190 C192 1.356 . S
N190 H202 0.984 . S
N190 H203 0.985 . S
N191 C193 1.356 . S
N191 H196 0.984 . S
N191 H197 0.985 . S
C192 C186 1.379 1_565 S
C192 C189 1.363 . S
C192 N190 1.356 . S
C193 C187 1.363 . S
C193 C188 1.379 1_545 S
C193 N191 1.356 . S
N194 C186 1.356 . S
N194 H200 0.984 . S
N194 H201 0.984 . S
N195 C188 1.356 . S
N195 H198 0.984 . S
N195 H199 0.985 . S
H196 N191 0.984 . S
H197 N191 0.985 . S
H198 N195 0.984 . S
H199 N195 0.985 . S
H200 N194 0.984 . S
H201 N194 0.984 . S
H202 N190 0.984 . S
H203 N190 0.985 . S
C204 C205 1.363 . S
C204 C210 1.379 . S
C204 N212 1.356 . S
C205 C204 1.363 . S
C205 C211 1.363 . S
C206 C207 1.363 . S
C206 C211 1.379 . S
C206 N213 1.356 . S
C207 C206 1.363 . S
C207 C210 1.363 . S
N208 C210 1.356 . S
N208 H220 0.984 . S
N208 H221 0.985 . S
N209 C211 1.356 . S
N209 H214 0.984 . S
N209 H215 0.985 . S
C210 C204 1.379 . S
C210 C207 1.363 . S
C210 N208 1.356 . S
C211 C205 1.363 . S
C211 C206 1.379 . S
C211 N209 1.356 . S
N212 C204 1.356 . S
N212 H218 0.984 . S
N212 H219 0.984 . S
N213 C206 1.356 . S
N213 H216 0.984 . S
N213 H217 0.985 . S
H214 N209 0.984 . S
H215 N209 0.985 . S
H216 N213 0.984 . S
H217 N213 0.985 . S
H218 N212 0.984 . S
H219 N212 0.984 . S
H220 N208 0.984 . S
H221 N208 0.985 . S
C222 C223 1.363 . S
C222 C228 1.379 1_655 S
C222 N230 1.356 . S
C223 C222 1.363 . S
C223 C229 1.363 . S
C224 C225 1.363 . S
C224 C229 1.379 1_455 S
C224 N231 1.356 . S
C225 C224 1.363 . S
C225 C228 1.363 . S
N226 C228 1.356 . S
N226 H238 0.984 . S
N226 H239 0.985 . S
N227 C229 1.356 . S
N227 H232 0.984 . S
N227 H233 0.985 . S
C228 C222 1.379 1_455 S
C228 C225 1.363 . S
C228 N226 1.356 . S
C229 C223 1.363 . S
C229 C224 1.379 1_655 S
C229 N227 1.356 . S
N230 C222 1.356 . S
N230 H236 0.984 . S
N230 H237 0.984 . S
N231 C224 1.356 . S
N231 H234 0.984 . S
N231 H235 0.985 . S
H232 N227 0.984 . S
H233 N227 0.985 . S
H234 N231 0.984 . S
H235 N231 0.985 . S
H236 N230 0.984 . S
H237 N230 0.984 . S
H238 N226 0.984 . S
H239 N226 0.985 . S
C240 C241 1.363 . S
C240 C246 1.379 1_545 S
C240 N248 1.356 . S
C241 C240 1.363 . S
C241 C247 1.363 . S
C242 C243 1.363 . S
C242 C247 1.379 1_565 S
C242 N249 1.356 . S
C243 C242 1.363 . S
C243 C246 1.363 . S
N244 C246 1.356 . S
N244 H256 0.984 . S
N244 H257 0.985 . S
N245 C247 1.356 . S
N245 H250 0.984 . S
N245 H251 0.985 . S
C246 C240 1.379 1_565 S
C246 C243 1.363 . S
C246 N244 1.356 . S
C247 C241 1.363 . S
C247 C242 1.379 1_545 S
C247 N245 1.356 . S
N248 C240 1.356 . S
N248 H254 0.984 . S
N248 H255 0.984 . S
N249 C242 1.356 . S
N249 H252 0.984 . S
N249 H253 0.985 . S
H250 N245 0.984 . S
H251 N245 0.985 . S
H252 N249 0.984 . S
H253 N249 0.985 . S
H254 N248 0.984 . S
H255 N248 0.984 . S
H256 N244 0.984 . S
H257 N244 0.985 . S
C258 C259 1.363 . S
C258 C264 1.379 . S
C258 N266 1.356 . S
C259 C258 1.363 . S
C259 C265 1.363 . S
C260 C261 1.363 . S
C260 C265 1.379 . S
C260 N267 1.356 . S
C261 C260 1.363 . S
C261 C264 1.363 . S
N262 C264 1.356 . S
N262 H274 0.984 . S
N262 H275 0.985 . S
N263 C265 1.356 . S
N263 H268 0.984 . S
N263 H269 0.985 . S
C264 C258 1.379 . S
C264 C261 1.363 . S
C264 N262 1.356 . S
C265 C259 1.363 . S
C265 C260 1.379 . S
C265 N263 1.356 . S
N266 C258 1.356 . S
N266 H272 0.984 . S
N266 H273 0.984 . S
N267 C260 1.356 . S
N267 H270 0.984 . S
N267 H271 0.985 . S
H268 N263 0.984 . S
H269 N263 0.985 . S
H270 N267 0.984 . S
H271 N267 0.985 . S
H272 N266 0.984 . S
H273 N266 0.984 . S
H274 N262 0.984 . S
H275 N262 0.985 . S
C276 C277 1.363 . S
C276 C282 1.379 . S
C276 N284 1.356 . S
C277 C276 1.363 . S
C277 C283 1.363 . S
C278 C279 1.363 . S
C278 C283 1.379 . S
C278 N285 1.356 . S
C279 C278 1.363 . S
C279 C282 1.363 . S
N280 C282 1.356 . S
N280 H292 0.984 . S
N280 H293 0.985 . S
N281 C283 1.356 . S
N281 H286 0.984 . S
N281 H287 0.985 . S
C282 C276 1.379 . S
C282 C279 1.363 . S
C282 N280 1.356 . S
C283 C277 1.363 . S
C283 C278 1.379 . S
C283 N281 1.356 . S
N284 C276 1.356 . S
N284 H290 0.984 . S
N284 H291 0.984 . S
N285 C278 1.356 . S
N285 H288 0.984 . S
N285 H289 0.985 . S
H286 N281 0.984 . S
H287 N281 0.985 . S
H288 N285 0.984 . S
H289 N285 0.985 . S
H290 N284 0.984 . S
H291 N284 0.984 . S
H292 N280 0.984 . S
H293 N280 0.985 . S
C294 C295 1.363 1_655 S
C294 C300 1.379 . S
C294 N302 1.356 . S
C295 C294 1.363 1_455 S
C295 C301 1.363 . S
C296 C297 1.363 1_455 S
C296 C301 1.379 . S
C296 N303 1.356 . S
C297 C296 1.363 1_655 S
C297 C300 1.363 . S
N298 C300 1.356 . S
N298 H310 0.984 . S
N298 H311 0.985 . S
N299 C301 1.356 . S
N299 H304 0.984 . S
N299 H305 0.985 . S
C300 C294 1.379 . S
C300 C297 1.363 . S
C300 N298 1.356 . S
C301 C295 1.363 . S
C301 C296 1.379 . S
C301 N299 1.356 . S
N302 C294 1.356 . S
N302 H308 0.984 . S
N302 H309 0.984 . S
N303 C296 1.356 . S
N303 H306 0.984 . S
N303 H307 0.985 . S
H304 N299 0.984 . S
H305 N299 0.985 . S
H306 N303 0.984 . S
H307 N303 0.985 . S
H308 N302 0.984 . S
H309 N302 0.984 . S
H310 N298 0.984 . S
H311 N298 0.985 . S
C312 C313 1.363 1_565 S
C312 C318 1.379 . S
C312 N320 1.356 . S
C313 C312 1.363 1_545 S
C313 C319 1.363 . S
C314 C315 1.363 1_545 S
C314 C319 1.379 . S
C314 N321 1.356 . S
C315 C314 1.363 1_565 S
C315 C318 1.363 . S
N316 C318 1.356 . S
N316 H328 0.984 . S
N316 H329 0.985 . S
N317 C319 1.356 . S
N317 H322 0.984 . S
N317 H323 0.985 . S
C318 C312 1.379 . S
C318 C315 1.363 . S
C318 N316 1.356 . S
C319 C313 1.363 . S
C319 C314 1.379 . S
C319 N317 1.356 . S
N320 C312 1.356 . S
N320 H326 0.984 . S
N320 H327 0.984 . S
N321 C314 1.356 . S
N321 H324 0.984 . S
N321 H325 0.985 . S
H322 N317 0.984 . S
H323 N317 0.985 . S
H324 N321 0.984 . S
H325 N321 0.985 . S
H326 N320 0.984 . S
H327 N320 0.984 . S
H328 N316 0.984 . S
H329 N316 0.985 . S
C330 C331 1.363 . S
C330 C336 1.379 . S
C330 N338 1.356 . S
C331 C330 1.363 . S
C331 C337 1.363 . S
C332 C333 1.363 . S
C332 C337 1.379 . S
C332 N339 1.356 . S
C333 C332 1.363 . S
C333 C336 1.363 . S
N334 C336 1.356 . S
N334 H346 0.984 . S
N334 H347 0.985 . S
N335 C337 1.356 . S
N335 H340 0.984 . S
N335 H341 0.985 . S
C336 C330 1.379 . S
C336 C333 1.363 . S
C336 N334 1.356 . S
C337 C331 1.363 . S
C337 C332 1.379 . S
C337 N335 1.356 . S
N338 C330 1.356 . S
N338 H344 0.984 . S
N338 H345 0.984 . S
N339 C332 1.356 . S
N339 H342 0.984 . S
N339 H343 0.985 . S
H340 N335 0.984 . S
H341 N335 0.985 . S
H342 N339 0.984 . S
H343 N339 0.985 . S
H344 N338 0.984 . S
H345 N338 0.984 . S
H346 N334 0.984 . S
H347 N334 0.985 . S
C348 C349 1.363 . S
C348 C354 1.379 . S
C348 N356 1.356 . S
C349 C348 1.363 . S
C349 C355 1.363 1_655 S
C350 C351 1.363 . S
C350 C355 1.379 . S
C350 N357 1.356 . S
C351 C350 1.363 . S
C351 C354 1.363 1_455 S
N352 C354 1.356 . S
N352 H364 0.984 . S
N352 H365 0.985 . S
N353 C355 1.356 . S
N353 H358 0.984 . S
N353 H359 0.985 . S
C354 C348 1.379 . S
C354 C351 1.363 1_655 S
C354 N352 1.356 . S
C355 C349 1.363 1_455 S
C355 C350 1.379 . S
C355 N353 1.356 . S
N356 C348 1.356 . S
N356 H362 0.984 . S
N356 H363 0.984 . S
N357 C350 1.356 . S
N357 H360 0.984 . S
N357 H361 0.985 . S
H358 N353 0.984 . S
H359 N353 0.985 . S
H360 N357 0.984 . S
H361 N357 0.985 . S
H362 N356 0.984 . S
H363 N356 0.984 . S
H364 N352 0.984 . S
H365 N352 0.985 . S
C366 C367 1.363 1_545 S
C366 C372 1.379 . S
C366 N374 1.356 . S
C367 C366 1.363 1_565 S
C367 C373 1.363 . S
C368 C369 1.363 1_565 S
C368 C373 1.379 . S
C368 N375 1.356 . S
C369 C368 1.363 1_545 S
C369 C372 1.363 . S
N370 C372 1.356 . S
N370 H382 0.984 . S
N370 H383 0.985 . S
N371 C373 1.356 . S
N371 H376 0.984 . S
N371 H377 0.985 . S
C372 C366 1.379 . S
C372 C369 1.363 . S
C372 N370 1.356 . S
C373 C367 1.363 . S
C373 C368 1.379 . S
C373 N371 1.356 . S
N374 C366 1.356 . S
N374 H380 0.984 . S
N374 H381 0.984 . S
N375 C368 1.356 . S
N375 H378 0.984 . S
N375 H379 0.985 . S
H376 N371 0.984 . S
H377 N371 0.985 . S
H378 N375 0.984 . S
H379 N375 0.985 . S
H380 N374 0.984 . S
H381 N374 0.984 . S
H382 N370 0.984 . S
H383 N370 0.985 . S
C384 C385 1.363 . S
C384 C390 1.379 . S
C384 N392 1.356 . S
C385 C384 1.363 . S
C385 C391 1.363 . S
C386 C387 1.363 . S
C386 C391 1.379 . S
C386 N393 1.356 . S
C387 C386 1.363 . S
C387 C390 1.363 . S
N388 C390 1.356 . S
N388 H400 0.984 . S
N388 H401 0.985 . S
N389 C391 1.356 . S
N389 H394 0.984 . S
N389 H395 0.985 . S
C390 C384 1.379 . S
C390 C387 1.363 . S
C390 N388 1.356 . S
C391 C385 1.363 . S
C391 C386 1.379 . S
C391 N389 1.356 . S
N392 C384 1.356 . S
N392 H398 0.984 . S
N392 H399 0.984 1_545 S
N393 C386 1.356 . S
N393 H396 0.984 . S
N393 H397 0.985 . S
H394 N389 0.984 . S
H395 N389 0.985 . S
H396 N393 0.984 . S
H397 N393 0.985 . S
H398 N392 0.984 . S
H399 N392 0.984 1_565 S
H400 N388 0.984 . S
H401 N388 0.985 . S
C402 C403 1.363 . S
C402 C408 1.379 . S
C402 N410 1.356 . S
C403 C402 1.363 . S
C403 C409 1.363 . S
C404 C405 1.363 . S
C404 C409 1.379 . S
C404 N411 1.356 . S
C405 C404 1.363 . S
C405 C408 1.363 . S
N406 C408 1.356 . S
N406 H418 0.984 . S
N406 H419 0.985 . S
N407 C409 1.356 . S
N407 H412 0.984 . S
N407 H413 0.985 . S
C408 C402 1.379 . S
C408 C405 1.363 . S
C408 N406 1.356 . S
C409 C403 1.363 . S
C409 C404 1.379 . S
C409 N407 1.356 . S
N410 C402 1.356 . S
N410 H416 0.984 . S
N410 H417 0.984 . S
N411 C404 1.356 . S
N411 H414 0.984 . S
N411 H415 0.985 . S
H412 N407 0.984 . S
H413 N407 0.985 . S
H414 N411 0.984 . S
H415 N411 0.985 . S
H416 N410 0.984 . S
H417 N410 0.984 . S
H418 N406 0.984 . S
H419 N406 0.985 . S
C420 C421 1.363 . S
C420 C426 1.379 . S
C420 N428 1.356 . S
C421 C420 1.363 . S
C421 C427 1.363 . S
C422 C423 1.363 . S
C422 C427 1.379 . S
C422 N429 1.356 . S
C423 C422 1.363 . S
C423 C426 1.363 . S
N424 C426 1.356 . S
N424 H436 0.984 . S
N424 H437 0.985 . S
N425 C427 1.356 . S
N425 H430 0.984 . S
N425 H431 0.985 . S
C426 C420 1.379 . S
C426 C423 1.363 . S
C426 N424 1.356 . S
C427 C421 1.363 . S
C427 C422 1.379 . S
C427 N425 1.356 . S
N428 C420 1.356 . S
N428 H434 0.984 . S
N428 H435 0.984 1_655 S
N429 C422 1.356 . S
N429 H432 0.984 . S
N429 H433 0.985 . S
H430 N425 0.984 . S
H431 N425 0.985 . S
H432 N429 0.984 . S
H433 N429 0.985 . S
H434 N428 0.984 . S
H435 N428 0.984 1_455 S
H436 N424 0.984 . S
H437 N424 0.985 . S
C438 C439 1.363 . S
C438 C444 1.379 . S
C438 N446 1.356 . S
C439 C438 1.363 . S
C439 C445 1.363 . S
C440 C441 1.363 . S
C440 C445 1.379 . S
C440 N447 1.356 . S
C441 C440 1.363 . S
C441 C444 1.363 . S
N442 C444 1.356 . S
N442 H454 0.984 . S
N442 H455 0.985 . S
N443 C445 1.356 . S
N443 H448 0.984 1_565 S
N443 H449 0.985 . S
C444 C438 1.379 . S
C444 C441 1.363 . S
C444 N442 1.356 . S
C445 C439 1.363 . S
C445 C440 1.379 . S
C445 N443 1.356 . S
N446 C438 1.356 . S
N446 H452 0.984 . S
N446 H453 0.984 . S
N447 C440 1.356 . S
N447 H450 0.984 . S
N447 H451 0.985 . S
H448 N443 0.984 1_545 S
H449 N443 0.985 . S
H450 N447 0.984 . S
H451 N447 0.985 . S
H452 N446 0.984 . S
H453 N446 0.984 . S
H454 N442 0.984 . S
H455 N442 0.985 . S
C456 C457 1.363 . S
C456 C462 1.379 . S
C456 N464 1.356 . S
C457 C456 1.363 . S
C457 C463 1.363 . S
C458 C459 1.363 . S
C458 C463 1.379 . S
C458 N465 1.356 . S
C459 C458 1.363 . S
C459 C462 1.363 . S
N460 C462 1.356 . S
N460 H472 0.984 . S
N460 H473 0.985 1_655 S
N461 C463 1.356 . S
N461 H466 0.984 . S
N461 H467 0.985 . S
C462 C456 1.379 . S
C462 C459 1.363 . S
C462 N460 1.356 . S
C463 C457 1.363 . S
C463 C458 1.379 . S
C463 N461 1.356 . S
N464 C456 1.356 . S
N464 H470 0.984 . S
N464 H471 0.984 . S
N465 C458 1.356 . S
N465 H468 0.984 . S
N465 H469 0.985 . S
H466 N461 0.984 . S
H467 N461 0.985 . S
H468 N465 0.984 . S
H469 N465 0.985 . S
H470 N464 0.984 . S
H471 N464 0.984 . S
H472 N460 0.984 . S
H473 N460 0.985 1_455 S
C474 C475 1.363 . S
C474 C480 1.379 . S
C474 N482 1.356 . S
C475 C474 1.363 . S
C475 C481 1.363 . S
C476 C477 1.363 . S
C476 C481 1.379 . S
C476 N483 1.356 . S
C477 C476 1.363 . S
C477 C480 1.363 . S
N478 C480 1.356 . S
N478 H490 0.984 . S
N478 H491 0.985 . S
N479 C481 1.356 . S
N479 H484 0.984 1_565 S
N479 H485 0.985 . S
C480 C474 1.379 . S
C480 C477 1.363 . S
C480 N478 1.356 . S
C481 C475 1.363 . S
C481 C476 1.379 . S
C481 N479 1.356 . S
N482 C474 1.356 . S
N482 H488 0.984 . S
N482 H489 0.984 . S
N483 C476 1.356 . S
N483 H486 0.984 . S
N483 H487 0.985 . S
H484 N479 0.984 1_545 S
H485 N479 0.985 . S
H486 N483 0.984 . S
H487 N483 0.985 . S
H488 N482 0.984 . S
H489 N482 0.984 . S
H490 N478 0.984 . S
H491 N478 0.985 . S
C492 C493 1.363 . S
C492 C498 1.379 . S
C492 N500 1.356 . S
C493 C492 1.363 . S
C493 C499 1.363 . S
C494 C495 1.363 . S
C494 C499 1.379 . S
C494 N501 1.356 . S
C495 C494 1.363 . S
C495 C498 1.363 . S
N496 C498 1.356 . S
N496 H508 0.984 . S
N496 H509 0.985 . S
N497 C499 1.356 . S
N497 H502 0.984 . S
N497 H503 0.985 . S
C498 C492 1.379 . S
C498 C495 1.363 . S
C498 N496 1.356 . S
C499 C493 1.363 . S
C499 C494 1.379 . S
C499 N497 1.356 . S
N500 C492 1.356 . S
N500 H506 0.984 . S
N500 H507 0.984 . S
N501 C494 1.356 . S
N501 H504 0.984 . S
N501 H505 0.985 . S
H502 N497 0.984 . S
H503 N497 0.985 . S
H504 N501 0.984 . S
H505 N501 0.985 . S
H506 N500 0.984 . S
H507 N500 0.984 . S
H508 N496 0.984 . S
H509 N496 0.985 . S
C510 C511 1.363 . S
C510 C516 1.379 1_655 S
C510 N518 1.356 . S
C511 C510 1.363 . S
C511 C517 1.363 . S
C512 C513 1.363 . S
C512 C517 1.379 1_455 S
C512 N519 1.356 . S
C513 C512 1.363 . S
C513 C516 1.363 . S
N514 C516 1.356 . S
N514 H526 0.984 . S
N514 H527 0.985 . S
N515 C517 1.356 . S
N515 H520 0.984 . S
N515 H521 0.985 . S
C516 C510 1.379 1_455 S
C516 C513 1.363 . S
C516 N514 1.356 . S
C517 C511 1.363 . S
C517 C512 1.379 1_655 S
C517 N515 1.356 . S
N518 C510 1.356 . S
N518 H524 0.984 . S
N518 H525 0.984 . S
N519 C512 1.356 . S
N519 H522 0.984 . S
N519 H523 0.985 . S
H520 N515 0.984 . S
H521 N515 0.985 . S
H522 N519 0.984 . S
H523 N519 0.985 . S
H524 N518 0.984 . S
H525 N518 0.984 . S
H526 N514 0.984 . S
H527 N514 0.985 . S
C528 C529 1.363 . S
C528 C534 1.379 1_554 S
C528 N536 1.356 . S
C529 C528 1.363 . S
C529 C535 1.363 1_545 S
C530 C531 1.363 . S
C530 C535 1.379 1_556 S
C530 N537 1.356 . S
C531 C530 1.363 . S
C531 C534 1.363 1_565 S
N532 C534 1.356 . S
N532 H544 0.984 . S
N532 H545 0.985 . S
N533 C535 1.356 . S
N533 H538 0.984 . S
N533 H539 0.985 . S
C534 C528 1.379 1_556 S
C534 C531 1.363 1_545 S
C534 N532 1.356 . S
C535 C529 1.363 1_565 S
C535 C530 1.379 1_554 S
C535 N533 1.356 . S
N536 C528 1.356 . S
N536 H542 0.984 . S
N536 H543 0.984 . S
N537 C530 1.356 . S
N537 H540 0.984 . S
N537 H541 0.985 . S
H538 N533 0.984 . S
H539 N533 0.985 . S
H540 N537 0.984 . S
H541 N537 0.985 . S
H542 N536 0.984 . S
H543 N536 0.984 . S
H544 N532 0.984 . S
H545 N532 0.985 . S
C546 C547 1.363 . S
C546 C552 1.379 . S
C546 N554 1.356 . S
C547 C546 1.363 . S
C547 C553 1.363 . S
C548 C549 1.363 . S
C548 C553 1.379 . S
C548 N555 1.356 . S
C549 C548 1.363 . S
C549 C552 1.363 . S
N550 C552 1.356 . S
N550 H562 0.984 . S
N550 H563 0.985 . S
N551 C553 1.356 . S
N551 H556 0.984 . S
N551 H557 0.985 . S
C552 C546 1.379 . S
C552 C549 1.363 . S
C552 N550 1.356 . S
C553 C547 1.363 . S
C553 C548 1.379 . S
C553 N551 1.356 . S
N554 C546 1.356 . S
N554 H560 0.984 . S
N554 H561 0.984 . S
N555 C548 1.356 . S
N555 H558 0.984 . S
N555 H559 0.985 . S
H556 N551 0.984 . S
H557 N551 0.985 . S
H558 N555 0.984 . S
H559 N555 0.985 . S
H560 N554 0.984 . S
H561 N554 0.984 . S
H562 N550 0.984 . S
H563 N550 0.985 . S
C564 C565 1.363 1_655 S
C564 C570 1.379 . S
C564 N572 1.356 . S
C565 C564 1.363 1_455 S
C565 C571 1.363 . S
C566 C567 1.363 1_455 S
C566 C571 1.379 . S
C566 N573 1.356 . S
C567 C566 1.363 1_655 S
C567 C570 1.363 . S
N568 C570 1.356 . S
N568 H580 0.984 . S
N568 H581 0.985 . S
N569 C571 1.356 . S
N569 H574 0.984 . S
N569 H575 0.985 . S
C570 C564 1.379 . S
C570 C567 1.363 . S
C570 N568 1.356 . S
C571 C565 1.363 . S
C571 C566 1.379 . S
C571 N569 1.356 . S
N572 C564 1.356 . S
N572 H578 0.984 . S
N572 H579 0.984 . S
N573 C566 1.356 . S
N573 H576 0.984 . S
N573 H577 0.985 . S
H574 N569 0.984 . S
H575 N569 0.985 . S
H576 N573 0.984 . S
H577 N573 0.985 . S
H578 N572 0.984 . S
H579 N572 0.984 . S
H580 N568 0.984 . S
H581 N568 0.985 . S
C582 C583 1.363 . S
C582 C588 1.379 1_554 S
C582 N590 1.356 . S
C583 C582 1.363 . S
C583 C589 1.363 1_565 S
C584 C585 1.363 . S
C584 C589 1.379 1_556 S
C584 N591 1.356 . S
C585 C584 1.363 . S
C585 C588 1.363 1_545 S
N586 C588 1.356 . S
N586 H598 0.984 . S
N586 H599 0.985 . S
N587 C589 1.356 . S
N587 H592 0.984 . S
N587 H593 0.985 . S
C588 C582 1.379 1_556 S
C588 C585 1.363 1_565 S
C588 N586 1.356 . S
C589 C583 1.363 1_545 S
C589 C584 1.379 1_554 S
C589 N587 1.356 . S
N590 C582 1.356 . S
N590 H596 0.984 . S
N590 H597 0.984 . S
N591 C584 1.356 . S
N591 H594 0.984 . S
N591 H595 0.985 . S
H592 N587 0.984 . S
H593 N587 0.985 . S
H594 N591 0.984 . S
H595 N591 0.985 . S
H596 N590 0.984 . S
H597 N590 0.984 . S
H598 N586 0.984 . S
H599 N586 0.985 . S
C169 C162 1.672 . S
C171 C8 1.672 . S
C187 C22 1.672 . S
C189 C92 1.672 . S
C205 C36 1.672 . S
C207 C106 1.672 . S
C223 C50 1.672 . S
C225 C120 1.672 . S
C241 C134 1.672 . S
C243 C64 1.672 . S
C259 C78 1.672 . S
C261 C148 1.672 . S
C277 C51 1.291 . S
C279 C9 1.291 . S
C295 C65 1.291 . S
C297 C23 1.291 . S
C313 C79 1.291 . S
C315 C37 1.291 . S
C331 C93 1.291 . S
C333 C135 1.291 . S
C349 C107 1.291 . S
C351 C149 1.291 . S
C367 C121 1.291 . S
C369 C163 1.291 . S
C385 C119 0.815 . S
C387 C7 0.815 . S
C403 C21 0.815 . S
C405 C133 0.815 . S
C421 C147 0.815 . S
C423 C35 0.815 . S
C439 C161 0.815 . S
C441 C49 0.815 . S
C457 C91 0.815 . S
C459 C63 0.815 . S
C475 C77 0.815 . S
C477 C105 0.815 . S
C493 C129 1.672 . S
C495 C3 1.672 . S
C511 C17 1.672 . S
C513 C143 1.672 . S
C529 C157 1.672 . S
C531 C31 1.672 . S
C547 C45 1.672 . S
C549 C87 1.672 . S
C565 C59 1.672 . S
C567 C101 1.672 . S
C583 C115 1.672 . S
C585 C73 1.672 . S
