# Generated by pormake.
# Topology upc, (4)-cn, num edge types: 1
# Building blocks:
#     Node 0, Type 0, BuildingBlock: NAWXER_clean_sbu_0, # of connection points: 4
#     Node 1, Type 0, BuildingBlock: NAWXER_clean_sbu_0, # of connection points: 4
#     Node 2, Type 0, BuildingBlock: NAWXER_clean_sbu_0, # of connection points: 4
#     Node 3, Type 0, BuildingBlock: NAWXER_clean_sbu_0, # of connection points: 4
#     Node 4, Type 0, BuildingBlock: NAWXER_clean_sbu_0, # of connection points: 4
#     Node 5, Type 0, BuildingBlock: NAWXER_clean_sbu_0, # of connection points: 4
#     Node 6, Type 0, BuildingBlock: NAWXER_clean_sbu_0, # of connection points: 4
#     Node 7, Type 0, BuildingBlock: NAWXER_clean_sbu_0, # of connection points: 4
#     Node 8, Type 0, BuildingBlock: NAWXER_clean_sbu_0, # of connection points: 4
#     Node 9, Type 0, BuildingBlock: NAWXER_clean_sbu_0, # of connection points: 4
#     Node 10, Type 0, BuildingBlock: NAWXER_clean_sbu_0, # of connection points: 4
#     Node 11, Type 0, BuildingBlock: NAWXER_clean_sbu_0, # of connection points: 4
#     Node 12, Type 0, BuildingBlock: NAWXER_clean_sbu_0, # of connection points: 4
#     Node 13, Type 0, BuildingBlock: NAWXER_clean_sbu_0, # of connection points: 4
#     Node 14, Type 0, BuildingBlock: NAWXER_clean_sbu_0, # of connection points: 4
#     Node 15, Type 0, BuildingBlock: NAWXER_clean_sbu_0, # of connection points: 4
#     Edge 16, Type (0, 0), BuildingBlock: TEMPAE_clean_linker_10, # of connection points: 2
#     Edge 17, Type (0, 0), BuildingBlock: TEMPAE_clean_linker_10, # of connection points: 2
#     Edge 18, Type (0, 0), BuildingBlock: TEMPAE_clean_linker_10, # of connection points: 2
#     Edge 19, Type (0, 0), BuildingBlock: TEMPAE_clean_linker_10, # of connection points: 2
#     Edge 20, Type (0, 0), BuildingBlock: TEMPAE_clean_linker_10, # of connection points: 2
#     Edge 21, Type (0, 0), BuildingBlock: TEMPAE_clean_linker_10, # of connection points: 2
#     Edge 22, Type (0, 0), BuildingBlock: TEMPAE_clean_linker_10, # of connection points: 2
#     Edge 23, Type (0, 0), BuildingBlock: TEMPAE_clean_linker_10, # of connection points: 2
#     Edge 24, Type (0, 0), BuildingBlock: TEMPAE_clean_linker_10, # of connection points: 2
#     Edge 25, Type (0, 0), BuildingBlock: TEMPAE_clean_linker_10, # of connection points: 2
#     Edge 26, Type (0, 0), BuildingBlock: TEMPAE_clean_linker_10, # of connection points: 2
#     Edge 27, Type (0, 0), BuildingBlock: TEMPAE_clean_linker_10, # of connection points: 2
#     Edge 28, Type (0, 0), BuildingBlock: TEMPAE_clean_linker_10, # of connection points: 2
#     Edge 29, Type (0, 0), BuildingBlock: TEMPAE_clean_linker_10, # of connection points: 2
#     Edge 30, Type (0, 0), BuildingBlock: TEMPAE_clean_linker_10, # of connection points: 2
#     Edge 31, Type (0, 0), BuildingBlock: TEMPAE_clean_linker_10, # of connection points: 2
#     Edge 32, Type (0, 0), BuildingBlock: TEMPAE_clean_linker_10, # of connection points: 2
#     Edge 33, Type (0, 0), BuildingBlock: TEMPAE_clean_linker_10, # of connection points: 2
#     Edge 34, Type (0, 0), BuildingBlock: TEMPAE_clean_linker_10, # of connection points: 2
#     Edge 35, Type (0, 0), BuildingBlock: TEMPAE_clean_linker_10, # of connection points: 2
#     Edge 36, Type (0, 0), BuildingBlock: TEMPAE_clean_linker_10, # of connection points: 2
#     Edge 37, Type (0, 0), BuildingBlock: TEMPAE_clean_linker_10, # of connection points: 2
#     Edge 38, Type (0, 0), BuildingBlock: TEMPAE_clean_linker_10, # of connection points: 2
#     Edge 39, Type (0, 0), BuildingBlock: TEMPAE_clean_linker_10, # of connection points: 2
#     Edge 40, Type (0, 0), BuildingBlock: TEMPAE_clean_linker_10, # of connection points: 2
#     Edge 41, Type (0, 0), BuildingBlock: TEMPAE_clean_linker_10, # of connection points: 2
#     Edge 42, Type (0, 0), BuildingBlock: TEMPAE_clean_linker_10, # of connection points: 2
#     Edge 43, Type (0, 0), BuildingBlock: TEMPAE_clean_linker_10, # of connection points: 2
#     Edge 44, Type (0, 0), BuildingBlock: TEMPAE_clean_linker_10, # of connection points: 2
#     Edge 45, Type (0, 0), BuildingBlock: TEMPAE_clean_linker_10, # of connection points: 2
#     Edge 46, Type (0, 0), BuildingBlock: TEMPAE_clean_linker_10, # of connection points: 2
#     Edge 47, Type (0, 0), BuildingBlock: TEMPAE_clean_linker_10, # of connection points: 2
# Relax obj value: 0.229
# Max RMSD: 0.220
# Mean RMSD: 0.220
data_MOF--net-upc--node1-NAWXER_clean_sbu_0--edge1-TEMPAE_clean_linker_10
_symmetry_space_group_name_H-M    P1
_symmetry_Int_Tables_number       1
_symmetry_cell_setting            triclinic
loop_
_symmetry_equiv_pos_as_xyz
'x, y, z'
_cell_length_a     36.358877
_cell_length_b     36.250653
_cell_length_c     41.889169
_cell_angle_alpha  90.112716
_cell_angle_beta   90.037441
_cell_angle_gamma 89.969506
loop_
_atom_site_label
_atom_site_type_symbol
_atom_site_fract_x
_atom_site_fract_y
_atom_site_fract_z
_atom_type_partial_charge
C0 C 0.04142 0.57004 0.1618 0.0
C1 C 0.1108 0.66831 0.10793 0.0
O2 O 0.02065 0.59628 0.1518 0.0
Zn3 Zn 0.02704 0.64727 0.12464 0.0
O4 O 0.07529 0.56987 0.15411 0.0
Zn5 Zn 0.0747 0.61546 0.1298 0.0
O6 O 0.06122 0.65259 0.16849 0.0
O7 O 0.0096 0.68152 0.15585 0.0
O8 O 0.12147 0.6361 0.11545 0.0
O9 O 0.07633 0.67576 0.10932 0.0
O10 O 0.99608 0.64086 0.08844 0.0
O11 O 0.04184 0.60105 0.08835 0.0
C12 C 0.03569 0.67569 0.17542 0.0
C13 C 0.0119 0.61329 0.07592 0.0
C14 C 0.92129 0.04682 0.07209 0.0
C15 C 0.85167 0.07612 0.16474 0.0
O16 O 0.93558 0.07571 0.08503 0.0
Zn17 Zn 0.91995 0.1105 0.12576 0.0
O18 O 0.89148 0.03416 0.0829 0.0
Zn19 Zn 0.88608 0.0658 0.11773 0.0
O20 O 0.86375 0.11685 0.09936 0.0
O21 O 0.90568 0.15883 0.10971 0.0
O22 O 0.84789 0.05059 0.14432 0.0
O23 O 0.87706 0.10042 0.16122 0.0
O24 O 0.96298 0.10804 0.15296 0.0
O25 O 0.9337 0.05505 0.14853 0.0
C26 C 0.87423 0.15059 0.09862 0.0
C27 C 0.96028 0.07413 0.16029 0.0
C28 C 0.39217 0.85613 0.14415 0.0
C29 C 0.37325 0.9526 0.06805 0.0
O30 O 0.3663 0.87778 0.1535 0.0
Zn31 Zn 0.33755 0.92557 0.13409 0.0
O32 O 0.40644 0.8604 0.11676 0.0
Zn33 Zn 0.37721 0.90156 0.10544 0.0
O34 O 0.39715 0.9417 0.14154 0.0
O35 O 0.34796 0.95988 0.16817 0.0
O36 O 0.3893 0.92186 0.06512 0.0
O37 O 0.35288 0.95861 0.09258 0.0
O38 O 0.28687 0.90771 0.13006 0.0
O39 O 0.32432 0.87527 0.10012 0.0
C40 C 0.38264 0.961 0.16412 0.0
C41 C 0.29204 0.88046 0.11153 0.0
C42 C 0.62652 0.44111 0.04626 0.0
C43 C 0.68293 0.42216 0.14742 0.0
O44 O 0.61111 0.41347 0.06004 0.0
Zn45 Zn 0.62287 0.38187 0.10296 0.0
O46 O 0.65578 0.45442 0.05781 0.0
Zn47 Zn 0.65826 0.42598 0.09525 0.0
O48 O 0.68298 0.37404 0.08293 0.0
O49 O 0.64014 0.33261 0.09155 0.0
O50 O 0.69254 0.44413 0.1254 0.0
O51 O 0.65861 0.39725 0.14216 0.0
O52 O 0.57721 0.38595 0.12649 0.0
O53 O 0.60719 0.43863 0.12138 0.0
C54 C 0.67281 0.34022 0.08324 0.0
C55 C 0.57975 0.42031 0.13248 0.0
C56 C 0.12692 0.95231 0.32386 0.0
C57 C 0.21638 0.87134 0.3767 0.0
O58 O 0.11208 0.93378 0.3467 0.0
Zn59 Zn 0.13163 0.89399 0.38328 0.0
O60 O 0.16161 0.95083 0.32004 0.0
Zn61 Zn 0.17146 0.9172 0.35454 0.0
O62 O 0.14189 0.86967 0.3354 0.0
O63 O 0.10158 0.85325 0.37228 0.0
O64 O 0.22186 0.89868 0.35846 0.0
O65 O 0.18409 0.86658 0.38821 0.0
O66 O 0.12008 0.91495 0.42357 0.0
O67 O 0.15651 0.95113 0.39573 0.0
C68 C 0.11566 0.84859 0.34483 0.0
C69 C 0.13626 0.94555 0.42039 0.0
C70 C 0.57025 0.07325 0.41677 0.0
C71 C 0.65799 0.0872 0.33296 0.0
O72 O 0.56086 0.1005 0.39898 0.0
Zn73 Zn 0.58634 0.12941 0.35941 0.0
O74 O 0.60058 0.05702 0.41226 0.0
Zn75 Zn 0.61478 0.08287 0.37526 0.0
O76 O 0.63785 0.13372 0.39236 0.0
O77 O 0.60221 0.17804 0.37444 0.0
O78 O 0.65639 0.06287 0.35465 0.0
O79 O 0.63369 0.11286 0.33168 0.0
O80 O 0.54833 0.12657 0.3271 0.0
O81 O 0.57147 0.07232 0.33993 0.0
C82 C 0.63077 0.16818 0.38972 0.0
C83 C 0.54873 0.09172 0.32344 0.0
C84 C 0.49318 0.59846 0.39976 0.0
C85 C 0.46656 0.66836 0.30475 0.0
O86 O 0.46267 0.58736 0.38755 0.0
Zn87 Zn 0.4288 0.60476 0.3475 0.0
O88 O 0.50901 0.62643 0.38809 0.0
Zn89 Zn 0.47693 0.63554 0.35315 0.0
O90 O 0.42834 0.6634 0.37119 0.0
O91 O 0.38265 0.62461 0.364 0.0
O92 O 0.49362 0.67196 0.32372 0.0
O93 O 0.44109 0.64493 0.31085 0.0
O94 O 0.42693 0.56108 0.32063 0.0
O95 O 0.48193 0.58663 0.32301 0.0
C96 C 0.39384 0.6562 0.37291 0.0
C97 C 0.46051 0.56138 0.31211 0.0
C98 C 0.90886 0.43399 0.43201 0.0
C99 C 0.81706 0.42208 0.35076 0.0
O100 O 0.91765 0.40796 0.41268 0.0
Zn101 Zn 0.8903 0.37986 0.37396 0.0
O102 O 0.87757 0.44908 0.43012 0.0
Zn103 Zn 0.86113 0.42493 0.39248 0.0
O104 O 0.83895 0.3726 0.40709 0.0
O105 O 0.87593 0.33041 0.38734 0.0
O106 O 0.81827 0.44563 0.37325 0.0
O107 O 0.84187 0.39705 0.34844 0.0
O108 O 0.92577 0.38461 0.33988 0.0
O109 O 0.90198 0.43777 0.35542 0.0
C110 C 0.8469 0.33854 0.40268 0.0
C111 C 0.9239 0.41951 0.33714 0.0
C112 C 0.89323 0.34309 0.8453 0.0
C113 C 0.88702 0.43897 0.92463 0.0
O114 O 0.91095 0.3459 0.87133 0.0
Zn115 Zn 0.88557 0.38855 0.88623 0.0
O116 O 0.86761 0.36631 0.83881 0.0
Zn117 Zn 0.84354 0.41465 0.8613 0.0
O118 O 0.8516 0.44955 0.82741 0.0
O119 O 0.90268 0.42882 0.84966 0.0
O120 O 0.86398 0.44564 0.90211 0.0
O121 O 0.9032 0.40808 0.92561 0.0
O122 O 0.83231 0.36528 0.8962 0.0
O123 O 0.79306 0.39918 0.86931 0.0
C124 C 0.88656 0.44935 0.82884 0.0
C125 C 0.79916 0.37198 0.88758 0.0
C126 C 0.06634 0.90059 0.82845 0.0
C127 C 0.15114 0.81775 0.88431 0.0
O128 O 0.06729 0.8655 0.82745 0.0
Zn129 Zn 0.10311 0.859 0.86096 0.0
O130 O 0.08628 0.91782 0.84906 0.0
Zn131 Zn 0.12824 0.9028 0.88483 0.0
O132 O 0.16819 0.93101 0.86896 0.0
O133 O 0.14868 0.88586 0.83744 0.0
O134 O 0.15592 0.8514 0.8926 0.0
O135 O 0.12271 0.8094 0.86823 0.0
O136 O 0.07316 0.87823 0.90237 0.0
O137 O 0.11051 0.91852 0.9249 0.0
C138 C 0.17049 0.91296 0.84301 0.0
C139 C 0.08036 0.90121 0.92486 0.0
C140 C 0.55115 0.17411 0.82102 0.0
C141 C 0.51222 0.11487 0.91846 0.0
O142 O 0.52272 0.18059 0.83775 0.0
Zn143 Zn 0.53459 0.14629 0.87063 0.0
O144 O 0.57482 0.15023 0.83048 0.0
Zn145 Zn 0.58141 0.11314 0.87075 0.0
O146 O 0.58408 0.06705 0.84758 0.0
O147 O 0.53029 0.0949 0.8435 0.0
O148 O 0.54311 0.10125 0.90923 0.0
O149 O 0.49884 0.14214 0.90363 0.0
O150 O 0.58258 0.17329 0.89067 0.0
O151 O 0.62661 0.13172 0.88942 0.0
C152 C 0.55165 0.06789 0.83623 0.0
C153 C 0.61629 0.16443 0.89556 0.0
C154 C 0.35932 0.56339 0.82808 0.0
C155 C 0.45456 0.578 0.90567 0.0
O156 O 0.36498 0.54452 0.85311 0.0
Zn157 Zn 0.40465 0.57411 0.86768 0.0
O158 O 0.37948 0.59154 0.82181 0.0
Zn159 Zn 0.42534 0.62001 0.84363 0.0
O160 O 0.46029 0.6164 0.80914 0.0
O161 O 0.44591 0.56266 0.83053 0.0
O162 O 0.45861 0.60205 0.88352 0.0
O163 O 0.42583 0.55839 0.90657 0.0
O164 O 0.3753 0.62389 0.87862 0.0
O165 O 0.40388 0.66833 0.85327 0.0
C166 C 0.4642 0.58152 0.80992 0.0
C167 C 0.37754 0.658 0.87103 0.0
C168 C 0.99996 0.10941 0.5713 0.0
C169 C 0.96224 0.17045 0.66855 0.0
O170 O 0.01352 0.13694 0.58572 0.0
Zn171 Zn 0.97831 0.14149 0.61916 0.0
O172 O 0.96934 0.09582 0.58112 0.0
Zn173 Zn 0.93177 0.108 0.62016 0.0
O174 O 0.88598 0.12585 0.60192 0.0
O175 O 0.92972 0.16759 0.5992 0.0
O176 O 0.93866 0.14611 0.65977 0.0
O177 O 0.99037 0.17665 0.65141 0.0
O178 O 0.98376 0.09062 0.64671 0.0
O179 O 0.93024 0.06218 0.64376 0.0
C180 C 0.89598 0.15841 0.59494 0.0
C181 C 0.96293 0.06345 0.65452 0.0
C182 C 0.44744 0.91598 0.65677 0.0
C183 C 0.35526 0.83609 0.6065 0.0
O184 O 0.44889 0.88115 0.65299 0.0
Zn185 Zn 0.40542 0.87733 0.62648 0.0
O186 O 0.42192 0.9345 0.64282 0.0
Zn187 Zn 0.3728 0.92189 0.61423 0.0
O188 O 0.33775 0.94455 0.64072 0.0
O189 O 0.36647 0.89681 0.66223 0.0
O190 O 0.34639 0.87015 0.6039 0.0
O191 O 0.38719 0.82798 0.61651 0.0
O192 O 0.42252 0.90567 0.58295 0.0
O193 O 0.37892 0.94706 0.57574 0.0
C194 C 0.34338 0.92353 0.6644 0.0
C195 C 0.40891 0.9327 0.56697 0.0
C196 C 0.61664 0.33676 0.63682 0.0
C197 C 0.62029 0.42763 0.55335 0.0
O198 O 0.59873 0.33751 0.61078 0.0
Zn199 Zn 0.6232 0.37959 0.59389 0.0
O200 O 0.64182 0.36085 0.64212 0.0
Zn201 Zn 0.66477 0.40815 0.61734 0.0
O202 O 0.65616 0.44498 0.64969 0.0
O203 O 0.60539 0.42159 0.62894 0.0
O204 O 0.64333 0.43614 0.57542 0.0
O205 O 0.60491 0.39634 0.55375 0.0
O206 O 0.67691 0.35649 0.58498 0.0
O207 O 0.71555 0.39308 0.60989 0.0
C208 C 0.62119 0.44377 0.64871 0.0
C209 C 0.70995 0.3644 0.59317 0.0
C210 C 0.15551 0.56524 0.67399 0.0
C211 C 0.08501 0.56244 0.5785 0.0
O212 O 0.15747 0.54403 0.64997 0.0
Zn213 Zn 0.12282 0.56932 0.62528 0.0
O214 O 0.13409 0.59346 0.67339 0.0
Zn215 Zn 0.09437 0.61587 0.63928 0.0
O216 O 0.05103 0.61465 0.66599 0.0
O217 O 0.07358 0.55971 0.65444 0.0
O218 O 0.07414 0.59014 0.59528 0.0
O219 O 0.11373 0.54526 0.58662 0.0
O220 O 0.15183 0.61955 0.61393 0.0
O221 O 0.11488 0.66411 0.62919 0.0
C222 C 0.04947 0.57974 0.66876 0.0
C223 C 0.14536 0.65411 0.61724 0.0
C224 C 0.1271 0.73184 0.08792 0.0
C225 C 0.13799 0.69849 0.10212 0.0
C226 C 0.15129 0.7622 0.08603 0.0
C227 C 0.18703 0.75968 0.09944 0.0
C228 C 0.19844 0.72579 0.11313 0.0
C229 C 0.17403 0.69559 0.11396 0.0
C230 C 0.13822 0.79732 0.0704 0.0
C231 C 0.23594 0.72187 0.12826 0.0
C232 C 0.26412 0.82807 0.08012 0.0
C233 C 0.2626 0.85234 0.10627 0.0
C234 C 0.23877 0.79883 0.07682 0.0
C235 C 0.21184 0.79285 0.10075 0.0
C236 C 0.20979 0.81771 0.1269 0.0
C237 C 0.23479 0.84733 0.1291 0.0
C238 C 0.24139 0.77382 0.04806 0.0
C239 C 0.18213 0.81213 0.15335 0.0
H240 H 0.09936 0.73444 0.07868 0.0
H241 H 0.18268 0.67019 0.12531 0.0
H242 H 0.13549 0.81938 0.08864 0.0
H243 H 0.15867 0.80687 0.05259 0.0
H244 H 0.11124 0.79377 0.05833 0.0
H245 H 0.24109 0.69349 0.13716 0.0
H246 H 0.25771 0.72903 0.11081 0.0
H247 H 0.23846 0.7414 0.14858 0.0
H248 H 0.28544 0.8317 0.06233 0.0
H249 H 0.23359 0.86561 0.14958 0.0
H250 H 0.21399 0.77073 0.03667 0.0
H251 H 0.25046 0.74596 0.05561 0.0
H252 H 0.2611 0.78436 0.02999 0.0
H253 H 0.15386 0.8113 0.14342 0.0
H254 H 0.18346 0.83427 0.17169 0.0
H255 H 0.18718 0.78523 0.16518 0.0
C256 C 0.8203 0.17348 0.06657 0.0
C257 C 0.84767 0.17998 0.08954 0.0
C258 C 0.79231 0.1996 0.0608 0.0
C259 C 0.79065 0.23224 0.07946 0.0
C260 C 0.81872 0.23922 0.10219 0.0
C261 C 0.84717 0.21337 0.10652 0.0
C262 C 0.76407 0.19193 0.03522 0.0
C263 C 0.81772 0.27314 0.12316 0.0
C264 C 0.73166 0.31636 0.05933 0.0
C265 C 0.70044 0.31045 0.07833 0.0
C266 C 0.76029 0.29017 0.05791 0.0
C267 C 0.75839 0.25791 0.07695 0.0
C268 C 0.72645 0.25144 0.09554 0.0
C269 C 0.69768 0.27743 0.09557 0.0
C270 C 0.79315 0.2979 0.037 0.0
C271 C 0.7235 0.21802 0.11685 0.0
H272 H 0.82059 0.14777 0.0533 0.0
H273 H 0.86795 0.21837 0.12459 0.0
H274 H 0.73686 0.18692 0.04635 0.0
H275 H 0.76115 0.21624 0.01935 0.0
H276 H 0.77142 0.16751 0.02048 0.0
H277 H 0.84173 0.27471 0.13952 0.0
H278 H 0.81721 0.29837 0.10826 0.0
H279 H 0.7922 0.27308 0.13769 0.0
H280 H 0.73398 0.34179 0.04589 0.0
H281 H 0.67387 0.27285 0.11061 0.0
H282 H 0.80323 0.27229 0.02538 0.0
H283 H 0.81584 0.30905 0.05185 0.0
H284 H 0.78664 0.31852 0.01822 0.0
H285 H 0.72733 0.19241 0.10272 0.0
H286 H 0.69655 0.21651 0.12926 0.0
H287 H 0.74563 0.21881 0.13511 0.0
C288 C 0.24344 0.81755 0.40679 0.0
C289 C 0.24534 0.84257 0.38127 0.0
C290 C 0.26823 0.78772 0.40926 0.0
C291 C 0.29497 0.78193 0.38511 0.0
C292 C 0.29745 0.80753 0.35962 0.0
C293 C 0.27302 0.83769 0.35826 0.0
C294 C 0.2652 0.76189 0.43734 0.0
C295 C 0.32493 0.80222 0.33297 0.0
C296 C 0.37865 0.7189 0.3956 0.0
C297 C 0.3671 0.68635 0.38034 0.0
C298 C 0.35498 0.74956 0.39868 0.0
C299 C 0.3191 0.74821 0.38542 0.0
C300 C 0.30697 0.71506 0.37077 0.0
C301 C 0.33087 0.68452 0.36876 0.0
C302 C 0.36879 0.78383 0.41531 0.0
C303 C 0.26929 0.71241 0.35577 0.0
H304 H 0.22222 0.82106 0.42471 0.0
H305 H 0.27452 0.85654 0.33825 0.0
H306 H 0.25546 0.7345 0.42908 0.0
H307 H 0.29258 0.75779 0.44852 0.0
H308 H 0.24582 0.77232 0.45577 0.0
H309 H 0.324 0.82495 0.31524 0.0
H310 H 0.3532 0.80047 0.34279 0.0
H311 H 0.31931 0.77582 0.32042 0.0
H312 H 0.40654 0.72068 0.40464 0.0
H313 H 0.32171 0.65976 0.3566 0.0
H314 H 0.34852 0.79329 0.43336 0.0
H315 H 0.37208 0.80639 0.3977 0.0
H316 H 0.39565 0.77923 0.42731 0.0
H317 H 0.24779 0.71956 0.37349 0.0
H318 H 0.26348 0.68441 0.3462 0.0
H319 H 0.26707 0.73255 0.33594 0.0
C320 C 0.78975 0.31753 0.43096 0.0
C321 C 0.81861 0.31 0.40965 0.0
C322 C 0.75878 0.29432 0.43288 0.0
C323 C 0.75601 0.26333 0.41233 0.0
C324 C 0.78591 0.2546 0.39192 0.0
C325 C 0.81697 0.27774 0.39112 0.0
C326 C 0.72824 0.30446 0.45565 0.0
C327 C 0.78414 0.22209 0.36937 0.0
C328 C 0.68615 0.18571 0.42221 0.0
C329 C 0.65902 0.19553 0.39988 0.0
C330 C 0.71679 0.20854 0.42793 0.0
C331 C 0.72108 0.24151 0.41024 0.0
C332 C 0.69295 0.25236 0.38873 0.0
C333 C 0.66212 0.22947 0.38408 0.0
C334 C 0.7453 0.19653 0.45196 0.0
C335 C 0.69637 0.28724 0.36932 0.0
H336 H 0.79072 0.34237 0.4454 0.0
H337 H 0.83889 0.27183 0.37435 0.0
H338 H 0.70785 0.32189 0.44299 0.0
H339 H 0.71376 0.27969 0.46473 0.0
H340 H 0.7389 0.32051 0.47631 0.0
H341 H 0.81023 0.21806 0.35602 0.0
H342 H 0.77792 0.19646 0.38272 0.0
H343 H 0.76155 0.22633 0.35191 0.0
H344 H 0.68396 0.1596 0.43464 0.0
H345 H 0.64151 0.23718 0.36661 0.0
H346 H 0.75441 0.22025 0.46673 0.0
H347 H 0.76979 0.18571 0.43923 0.0
H348 H 0.73475 0.17455 0.46796 0.0
H349 H 0.67174 0.29237 0.35425 0.0
H350 H 0.72085 0.28538 0.35358 0.0
H351 H 0.70046 0.31129 0.38534 0.0
C352 C 0.74006 0.34025 0.87382 0.0
C353 C 0.76941 0.34518 0.89516 0.0
C354 C 0.7148 0.31121 0.87765 0.0
C355 C 0.71818 0.28697 0.90403 0.0
C356 C 0.74666 0.29298 0.92661 0.0
C357 C 0.77215 0.32173 0.9217 0.0
C358 C 0.68565 0.3053 0.85243 0.0
C359 C 0.7505 0.26889 0.95579 0.0
C360 C 0.63343 0.22677 0.91766 0.0
C361 C 0.64387 0.19362 0.90282 0.0
C362 C 0.65811 0.25664 0.92013 0.0
C363 C 0.69361 0.25387 0.90634 0.0
C364 C 0.70464 0.22 0.89231 0.0
C365 C 0.6799 0.19021 0.89117 0.0
C366 C 0.6458 0.2916 0.93657 0.0
C367 C 0.74199 0.21582 0.87695 0.0
H368 H 0.73796 0.35793 0.85306 0.0
H369 H 0.79459 0.32554 0.93844 0.0
H370 H 0.68987 0.27811 0.84075 0.0
H371 H 0.65796 0.30491 0.86349 0.0
H372 H 0.68612 0.32702 0.83376 0.0
H373 H 0.77699 0.27358 0.96834 0.0
H374 H 0.72771 0.27505 0.97259 0.0
H375 H 0.74854 0.23925 0.94939 0.0
H376 H 0.60569 0.22961 0.92682 0.0
H377 H 0.68814 0.16487 0.87939 0.0
H378 H 0.64254 0.31393 0.91873 0.0
H379 H 0.66694 0.30076 0.95398 0.0
H380 H 0.61924 0.28797 0.94926 0.0
H381 H 0.74453 0.23546 0.85678 0.0
H382 H 0.74679 0.18744 0.86779 0.0
H383 H 0.76396 0.22262 0.89438 0.0
C384 C 0.34186 0.71664 0.86252 0.0
C385 C 0.3467 0.68344 0.8792 0.0
C386 C 0.30972 0.73792 0.86628 0.0
C387 C 0.28181 0.72605 0.88756 0.0
C388 C 0.28734 0.69353 0.90562 0.0
C389 C 0.31952 0.67255 0.90108 0.0
C390 C 0.30495 0.77233 0.84644 0.0
C391 C 0.2587 0.68019 0.92897 0.0
C392 C 0.21041 0.79868 0.91027 0.0
C393 C 0.18156 0.79074 0.88901 0.0
C394 C 0.24249 0.77693 0.91108 0.0
C395 C 0.24624 0.74682 0.88972 0.0
C396 C 0.21658 0.73772 0.86916 0.0
C397 C 0.18453 0.75958 0.86923 0.0
C398 C 0.27297 0.78714 0.93393 0.0
C399 C 0.21937 0.70595 0.84591 0.0
H400 H 0.36248 0.72523 0.8454 0.0
H401 H 0.32293 0.647 0.91415 0.0
H402 H 0.28114 0.76889 0.83011 0.0
H403 H 0.29896 0.79632 0.86206 0.0
H404 H 0.32972 0.77865 0.83193 0.0
H405 H 0.26848 0.65629 0.9432 0.0
H406 H 0.25083 0.70276 0.94556 0.0
H407 H 0.23351 0.67186 0.91585 0.0
H408 H 0.20839 0.82263 0.92571 0.0
H409 H 0.16261 0.75335 0.85254 0.0
H410 H 0.29695 0.79761 0.92033 0.0
H411 H 0.28227 0.7625 0.94738 0.0
H412 H 0.26431 0.8087 0.95126 0.0
H413 H 0.2415 0.71158 0.82834 0.0
H414 H 0.19327 0.70122 0.83271 0.0
H415 H 0.22687 0.68022 0.85864 0.0
C416 C 0.76955 0.33471 0.60876 0.0
C417 C 0.74017 0.33749 0.58715 0.0
C418 C 0.7953 0.30579 0.60662 0.0
C419 C 0.79236 0.2794 0.5817 0.0
C420 C 0.76377 0.28313 0.55886 0.0
C421 C 0.73785 0.31187 0.56204 0.0
C422 C 0.82452 0.3024 0.6321 0.0
C423 C 0.76032 0.25673 0.53112 0.0
C424 C 0.87801 0.21941 0.5707 0.0
C425 C 0.86811 0.18714 0.58706 0.0
C426 C 0.85293 0.24883 0.56706 0.0
C427 C 0.81759 0.2466 0.5812 0.0
C428 C 0.80716 0.21364 0.59695 0.0
C429 C 0.83227 0.18421 0.59925 0.0
C430 C 0.86457 0.28268 0.54878 0.0
C431 C 0.76996 0.21005 0.61265 0.0
H432 H 0.77134 0.35406 0.62846 0.0
H433 H 0.71541 0.31399 0.54509 0.0
H434 H 0.82073 0.27616 0.64532 0.0
H435 H 0.85222 0.30152 0.62108 0.0
H436 H 0.82368 0.32559 0.64947 0.0
H437 H 0.73313 0.25897 0.5192 0.0
H438 H 0.78203 0.26305 0.51334 0.0
H439 H 0.76429 0.22775 0.53884 0.0
H440 H 0.90558 0.22187 0.56111 0.0
H441 H 0.82444 0.15957 0.6122 0.0
H442 H 0.86694 0.30651 0.5653 0.0
H443 H 0.84344 0.2898 0.53067 0.0
H444 H 0.8914 0.27875 0.53656 0.0
H445 H 0.76701 0.23135 0.63156 0.0
H446 H 0.76579 0.18246 0.62356 0.0
H447 H 0.74783 0.21485 0.59489 0.0
C448 C 0.17588 0.71503 0.62743 0.0
C449 C 0.17469 0.68167 0.61041 0.0
C450 C 0.20565 0.73956 0.62422 0.0
C451 C 0.2346 0.73117 0.60272 0.0
C452 C 0.23273 0.69829 0.5844 0.0
C453 C 0.20317 0.67367 0.58885 0.0
C454 C 0.2068 0.77378 0.64482 0.0
C455 C 0.2623 0.6888 0.56048 0.0
C456 C 0.2965 0.81285 0.58195 0.0
C457 C 0.32683 0.80697 0.60205 0.0
C458 C 0.2672 0.78744 0.58061 0.0
C459 C 0.26752 0.75601 0.60073 0.0
C460 C 0.29851 0.74957 0.62053 0.0
C461 C 0.32796 0.77478 0.62058 0.0
C462 C 0.23543 0.79478 0.55831 0.0
C463 C 0.29978 0.717 0.64293 0.0
H464 H 0.15424 0.72127 0.6444 0.0
H465 H 0.20242 0.64801 0.57553 0.0
H466 H 0.2315 0.77301 0.66039 0.0
H467 H 0.20906 0.79872 0.62967 0.0
H468 H 0.18203 0.77654 0.66015 0.0
H469 H 0.25516 0.66409 0.54603 0.0
H470 H 0.26702 0.71239 0.54415 0.0
H471 H 0.28859 0.68338 0.57308 0.0
H472 H 0.29546 0.83762 0.56752 0.0
H473 H 0.35106 0.77024 0.63647 0.0
H474 H 0.2105 0.80171 0.57235 0.0
H475 H 0.22906 0.76971 0.5441 0.0
H476 H 0.2412 0.8179 0.54169 0.0
H477 H 0.27711 0.71925 0.66057 0.0
H478 H 0.32627 0.71521 0.65607 0.0
H479 H 0.2956 0.69095 0.62951 0.0
C480 C 0.95112 0.4771 0.31386 0.0
C481 C 0.94502 0.43896 0.31183 0.0
C482 C 0.96893 0.49633 0.28916 0.0
C483 C 0.98027 0.47718 0.26131 0.0
C484 C 0.97465 0.43856 0.2593 0.0
C485 C 0.95745 0.41988 0.28469 0.0
C486 C 0.97501 0.53735 0.29263 0.0
C487 C 0.9857 0.41715 0.22988 0.0
C488 C 0.98836 0.53674 0.18676 0.0
C489 C 0.02643 0.54265 0.18477 0.0
C490 C 0.97319 0.51431 0.21074 0.0
C491 C 0.99652 0.49795 0.23384 0.0
C492 C 0.03508 0.50302 0.23147 0.0
C493 C 0.04959 0.52499 0.20679 0.0
C494 C 0.93202 0.50902 0.21187 0.0
C495 C 0.06091 0.48659 0.25583 0.0
H496 H 0.94182 0.49204 0.33481 0.0
H497 H 0.95262 0.39046 0.28278 0.0
H498 H 1.00439 0.5441 0.28856 0.0
H499 H 0.95876 0.55231 0.27435 0.0
H500 H 0.9669 0.54771 0.31659 0.0
H501 H 0.98076 0.38707 0.2325 0.0
H502 H 0.96985 0.42725 0.209 0.0
H503 H 0.01524 0.42162 0.22458 0.0
H504 H 0.97027 0.55015 0.16977 0.0
H505 H 0.079 0.52969 0.20564 0.0
H506 H 0.92076 0.52226 0.23367 0.0
H507 H 0.92526 0.47921 0.21315 0.0
H508 H 0.918 0.52104 0.19073 0.0
H509 H 0.0554 0.49899 0.27959 0.0
H510 H 0.09025 0.49134 0.24969 0.0
H511 H 0.05619 0.45648 0.25797 0.0
C512 C 0.00788 0.07931 0.20369 0.0
C513 C 0.98635 0.05712 0.18349 0.0
C514 C 0.03103 0.06364 0.22699 0.0
C515 C 0.03334 0.02476 0.2299 0.0
C516 C 0.0122 1.00221 0.20916 0.0
C517 C 0.98877 0.01862 0.18647 0.0
C518 C 0.0526 0.08874 0.24887 0.0
C519 C 0.01428 0.96067 0.21098 0.0
C520 C 0.11753 0.98293 0.2707 0.0
C521 C 0.10352 0.97293 0.30071 0.0
C522 C 0.09509 0.99983 0.24755 0.0
C523 C 0.05778 0.00764 0.25463 0.0
C524 C 0.04372 0.99846 0.28517 0.0
C525 C 0.06661 0.98094 0.30769 0.0
C526 C 0.11113 0.00855 0.21519 0.0
C527 C 1.00434 1.00684 0.29398 0.0
H528 H 0.00603 0.10907 0.2018 0.0
H529 H 0.97237 1.00122 0.17095 0.0
H530 H 0.04499 0.08326 0.27407 0.0
H531 H 0.08245 0.08308 0.2465 0.0
H532 H 0.04765 0.11838 0.24371 0.0
H533 H 0.99703 0.94702 0.19252 0.0
H534 H 0.04317 0.95144 0.20792 0.0
H535 H 1.00507 0.95122 0.23484 0.0
H536 H 0.14589 0.97661 0.26491 0.0
H537 H 0.05552 0.97342 0.33079 0.0
H538 H 0.10814 0.03839 0.21001 0.0
H539 H 0.09581 0.99333 0.19641 0.0
H540 H 0.1407 1.00108 0.21349 0.0
H541 H 0.99852 0.0366 0.29038 0.0
H542 H 0.99807 0.99962 0.31915 0.0
H543 H 0.98545 0.99121 0.27815 0.0
C544 C 0.51912 0.03507 0.30005 0.0
C545 C 0.52366 0.07354 0.3 0.0
C546 C 0.49591 0.01743 0.27785 0.0
C547 C 0.47699 0.03861 0.25464 0.0
C548 C 0.48153 0.07744 0.2544 0.0
C549 C 0.50455 0.09442 0.27715 0.0
C550 C 0.49157 0.97604 0.2793 0.0
C551 C 0.46225 0.10107 0.22991 0.0
C552 C 0.44384 0.98811 0.17978 0.0
C553 C 0.40637 0.98265 0.18639 0.0
C554 C 0.46692 1.00683 0.20144 0.0
C555 C 0.45243 0.02009 0.23071 0.0
C556 C 0.41457 0.01497 0.23738 0.0
C557 C 0.39202 0.99658 0.21512 0.0
C558 C 0.50698 0.01206 0.19314 0.0
C559 C 0.39799 0.02828 0.26837 0.0
H560 H 0.53358 0.01864 0.31764 0.0
H561 H 0.50795 0.12412 0.27675 0.0
H562 H 0.46215 0.96883 0.28252 0.0
H563 H 0.50068 0.96347 0.25647 0.0
H564 H 0.50765 0.96358 0.29909 0.0
H565 H 0.46888 0.13082 0.23268 0.0
H566 H 0.47021 0.09216 0.20552 0.0
H567 H 0.43203 0.09754 0.23194 0.0
H568 H 0.45524 0.97759 0.15766 0.0
H569 H 0.3632 0.99238 0.22062 0.0
H570 H 0.52447 0.99744 0.21077 0.0
H571 H 0.51427 0.04174 0.19436 0.0
H572 H 0.51369 1.00154 0.16891 0.0
H573 H 0.41179 0.0145 0.28877 0.0
H574 H 0.368 0.02268 0.2698 0.0
H575 H 0.4025 0.05837 0.27115 0.0
C576 C 0.55047 0.47664 0.15617 0.0
C577 C 0.55488 0.43821 0.15603 0.0
C578 C 0.53185 0.49465 0.18118 0.0
C579 C 0.51811 0.47387 0.20721 0.0
C580 C 0.52148 0.43492 0.2067 0.0
C581 C 0.53944 0.41754 0.18096 0.0
C582 C 0.52812 0.53612 0.1803 0.0
C583 C 0.50799 0.41174 0.2342 0.0
C584 C 0.51207 0.52732 0.28547 0.0
C585 C 0.47439 0.53534 0.28744 0.0
C586 C 0.52634 0.50601 0.26025 0.0
C587 C 0.50254 0.49321 0.2358 0.0
C588 C 0.46433 0.50054 0.23803 0.0
C589 C 0.45066 0.52112 0.26401 0.0
C590 C 0.56711 0.49805 0.25934 0.0
C591 C 0.43809 0.48804 0.21226 0.0
H592 H 0.56234 0.49279 0.13701 0.0
H593 H 0.54321 0.38788 0.18129 0.0
H594 H 0.49918 0.54431 0.18486 0.0
H595 H 0.54523 0.54856 0.19943 0.0
H596 H 0.53689 0.54783 0.15703 0.0
H597 H 0.50994 0.38172 0.22906 0.0
H598 H 0.52466 0.41787 0.25576 0.0
H599 H 0.47901 0.41859 0.23995 0.0
H600 H 0.53055 0.53809 0.30355 0.0
H601 H 0.42157 0.52755 0.26517 0.0
H602 H 0.57975 0.51235 0.23869 0.0
H603 H 0.57197 0.46805 0.25609 0.0
H604 H 0.58134 0.50723 0.28144 0.0
H605 H 0.44491 0.50215 0.18953 0.0
H606 H 0.40897 0.49411 0.21834 0.0
H607 H 0.44099 0.45797 0.20803 0.0
C608 C 1.00318 0.58321 0.71321 0.0
C609 C 0.02202 0.5622 0.69025 0.0
C610 C 0.97989 0.56638 0.73572 0.0
C611 C 0.97483 0.52763 0.73503 0.0
C612 C 0.99281 0.50644 0.71123 0.0
C613 C 0.01635 0.52391 0.68933 0.0
C614 C 0.96157 0.58995 0.76085 0.0
C615 C 0.98777 0.46516 0.70928 0.0
C616 C 0.9465 0.47651 0.8106 0.0
C617 C 0.90869 0.47112 0.80568 0.0
C618 C 0.96812 0.4955 0.78816 0.0
C619 C 0.95173 0.50902 0.75978 0.0
C620 C 0.91352 0.50396 0.7548 0.0
C621 C 0.89245 0.48534 0.77787 0.0
C622 C 0.00864 0.50071 0.79466 0.0
C623 C 0.89504 0.5175 0.72473 0.0
H624 H 0.00753 0.61277 0.71428 0.0
H625 H 0.03064 0.50743 0.67163 0.0
H626 H 0.93138 0.58566 0.76038 0.0
H627 H 0.97142 0.58166 0.78487 0.0
H628 H 0.96729 0.6198 0.75752 0.0
H629 H 1.00195 0.45294 0.68829 0.0
H630 H 0.99874 0.45203 0.73122 0.0
H631 H 0.95807 0.45828 0.70786 0.0
H632 H 0.9593 0.46579 0.83204 0.0
H633 H 0.86332 0.48115 0.77372 0.0
H634 H 0.01582 0.53042 0.79337 0.0
H635 H 0.02501 0.48623 0.77614 0.0
H636 H 0.01686 0.49004 0.81846 0.0
H637 H 0.89955 0.54758 0.72191 0.0
H638 H 0.86497 0.51208 0.72472 0.0
H639 H 0.9074 0.50372 0.70364 0.0
C640 C 0.03755 0.95921 0.80868 0.0
C641 C 0.04575 0.92179 0.80386 0.0
C642 C 0.02175 0.98066 0.78428 0.0
C643 C 0.01469 0.96458 0.75402 0.0
C644 C 0.02211 0.92658 0.74925 0.0
C645 C 0.03718 0.90559 0.7743 0.0
C646 C 0.01354 0.02083 0.79066 0.0
C647 C 0.01559 0.90845 0.71727 0.0
C648 C 0.95102 0.01541 0.6964 0.0
C649 C 0.97612 0.03569 0.678 0.0
C650 C 0.96311 0.99193 0.72101 0.0
C651 C 1.00127 0.98798 0.72699 0.0
C652 C 0.02676 0.00736 0.7077 0.0
C653 C 0.01389 0.03124 0.68372 0.0
C654 C 0.93499 0.97231 0.74132 0.0
C655 C 0.0677 1.00339 0.71274 0.0
H656 H 0.04395 0.97192 0.83146 0.0
H657 H 0.04375 0.8768 0.77022 0.0
H658 H 0.03162 0.03838 0.77572 0.0
H659 H 0.9847 0.02726 0.78401 0.0
H660 H 0.01781 0.0284 0.8161 0.0
H661 H 0.02106 0.8783 0.71785 0.0
H662 H 0.98682 0.91297 0.70939 0.0
H663 H 0.03377 0.92116 0.6991 0.0
H664 H 0.92178 0.01893 0.69236 0.0
H665 H 0.03349 0.04668 0.66955 0.0
H666 H 0.93734 0.98185 0.76642 0.0
H667 H 0.94026 0.94217 0.74121 0.0
H668 H 0.90641 0.97729 0.73297 0.0
H669 H 0.0753 0.01416 0.73666 0.0
H670 H 0.08389 0.01846 0.69446 0.0
H671 H 0.07562 0.97383 0.71204 0.0
C672 C 0.56545 0.02295 0.79225 0.0
C673 C 0.53962 0.04028 0.81217 0.0
C674 C 0.55417 1.00056 0.76655 0.0
C675 C 0.51617 0.99462 0.76108 0.0
C676 C 0.49008 0.01065 0.78209 0.0
C677 C 0.50209 0.03367 0.80706 0.0
C678 C 0.58285 0.98467 0.7444 0.0
C679 C 0.44934 1.00431 0.77768 0.0
C680 C 0.47729 0.97276 0.67882 0.0
C681 C 0.47087 0.9347 0.68088 0.0
C682 C 0.49388 0.99219 0.70409 0.0
C683 C 0.50338 0.97334 0.73254 0.0
C684 C 0.49821 0.93465 0.73428 0.0
C685 C 0.48243 0.91573 0.70829 0.0
C686 C 0.49979 0.03324 0.70082 0.0
C687 C 0.50726 0.91356 0.76432 0.0
H688 H 0.5945 0.02827 0.79583 0.0
H689 H 0.482 0.04687 0.82243 0.0
H690 H 0.57899 0.95448 0.74177 0.0
H691 H 0.57969 0.99701 0.72033 0.0
H692 H 0.61129 0.99 0.75296 0.0
H693 H 0.43288 0.01607 0.79759 0.0
H694 H 0.44008 0.01717 0.75505 0.0
H695 H 0.44349 0.97433 0.77593 0.0
H696 H 0.46844 0.98757 0.6577 0.0
H697 H 0.47708 0.8864 0.71024 0.0
H698 H 0.52833 0.04062 0.70771 0.0
H699 H 0.48097 0.04818 0.71718 0.0
H700 H 0.49467 0.04303 0.67609 0.0
H701 H 0.53566 0.91979 0.77233 0.0
H702 H 0.50456 0.88327 0.76099 0.0
H703 H 0.48838 0.92229 0.78373 0.0
C704 C 0.56037 0.46791 0.66828 0.0
C705 C 0.5988 0.46625 0.67132 0.0
C706 C 0.53873 0.48752 0.69042 0.0
C707 C 0.5558 0.5057 0.71649 0.0
C708 C 0.59459 0.50444 0.71952 0.0
C709 C 0.61559 0.48493 0.69686 0.0
C710 C 0.49752 0.48844 0.68609 0.0
C711 C 0.6139 0.52316 0.74705 0.0
C712 C 0.50287 0.58149 0.76014 0.0
C713 C 0.48867 0.5625 0.78659 0.0
C714 C 0.52473 0.56342 0.7372 0.0
C715 C 0.53301 0.52546 0.74088 0.0
C716 C 0.51924 0.50628 0.76779 0.0
C717 C 0.49714 0.52493 0.79018 0.0
C718 C 0.53858 0.58485 0.70878 0.0
C719 C 0.5277 0.46593 0.77285 0.0
H720 H 0.54708 0.45369 0.64864 0.0
H721 H 0.64522 0.48373 0.69958 0.0
H722 H 0.48393 0.47522 0.70683 0.0
H723 H 0.48775 0.51742 0.68512 0.0
H724 H 0.48857 0.47402 0.66399 0.0
H725 H 0.64427 0.52011 0.74576 0.0
H726 H 0.60706 0.55298 0.74742 0.0
H727 H 0.60422 0.5113 0.76995 0.0
H728 H 0.49639 0.61045 0.75702 0.0
H729 H 0.48647 0.51 0.81056 0.0
H730 H 0.52812 0.57221 0.68641 0.0
H731 H 0.56905 0.58368 0.70784 0.0
H732 H 0.52993 0.61424 0.70947 0.0
H733 H 0.51673 0.44946 0.75264 0.0
H734 H 0.51572 0.45521 0.79539 0.0
H735 H 0.5579 0.46158 0.77345 0.0
C736 C 0.06237 0.68456 0.22928 0.0
C737 C 0.03854 0.69682 0.20523 0.0
C738 C 0.07073 0.70707 0.25537 0.0
C739 C 0.05496 0.74264 0.25718 0.0
C740 C 0.02858 0.75399 0.23436 0.0
C741 C 0.02053 0.73075 0.20855 0.0
C742 C 0.0987 0.69393 0.27949 0.0
C743 C 0.01114 0.79176 0.23576 0.0
C744 C 0.07038 0.79896 0.33208 0.0
C745 C 0.1007 0.82048 0.32306 0.0
C746 C 0.05487 0.7735 0.3108 0.0
C747 C 0.07017 0.76965 0.27998 0.0
C748 C 0.1009 0.79108 0.27082 0.0
C749 C 0.11582 0.81624 0.29252 0.0
C750 C 0.02215 0.75087 0.32119 0.0
C751 C 0.11801 0.78752 0.23806 0.0
H752 H 0.07579 0.65796 0.22704 0.0
H753 H 1.00191 0.74014 0.19004 0.0
H754 H 0.12498 0.70889 0.27581 0.0
H755 H 0.08932 0.69991 0.30415 0.0
H756 H 0.10416 0.66387 0.27732 0.0
H757 H 0.98732 0.79416 0.21925 0.0
H758 H 1.0018 0.79821 0.26034 0.0
H759 H 0.03182 0.81286 0.22902 0.0
H760 H 0.05853 0.80223 0.35565 0.0
H761 H 0.13921 0.83282 0.2854 0.0
H762 H 0.02878 0.72105 0.31959 0.0
H763 H 0.99857 0.756 0.30497 0.0
H764 H 0.01354 0.75728 0.34603 0.0
H765 H 0.12787 0.75887 0.23426 0.0
H766 H 0.14157 0.80663 0.23465 0.0
H767 H 0.09715 0.79334 0.21939 0.0
C768 C 0.83105 0.1042 0.21611 0.0
C769 C 0.82604 0.07818 0.19172 0.0
C770 C 0.80574 0.10691 0.24117 0.0
C771 C 0.77484 0.08325 0.24141 0.0
C772 C 0.76995 0.05664 0.21711 0.0
C773 C 0.79574 0.05433 0.19259 0.0
C774 C 0.81169 0.13533 0.26707 0.0
C775 C 0.73706 0.03112 0.2166 0.0
C776 C 0.71925 0.06455 0.31539 0.0
C777 C 0.6885 0.08704 0.3101 0.0
C778 C 0.74857 0.06433 0.29386 0.0
C779 C 0.74666 0.0868 0.26639 0.0
C780 C 0.71609 0.11016 0.26126 0.0
C781 C 0.68733 0.11009 0.28333 0.0
C782 C 0.78106 0.03932 0.3 0.0
C783 C 0.71315 0.13417 0.23192 0.0
H784 H 0.85457 0.12255 0.21554 0.0
H785 H 0.79171 0.03417 0.17377 0.0
H786 H 0.78891 0.15569 0.2668 0.0
H787 H 0.81144 0.1219 0.29085 0.0
H788 H 0.83811 0.15033 0.26419 0.0
H789 H 0.73779 0.01154 0.19617 0.0
H790 H 0.73582 0.01501 0.23905 0.0
H791 H 0.71135 0.04753 0.21505 0.0
H792 H 0.72042 0.04707 0.33633 0.0
H793 H 0.66363 0.12764 0.27928 0.0
H794 H 0.80713 0.05507 0.29815 0.0
H795 H 0.78194 0.01725 0.28163 0.0
H796 H 0.77978 0.02619 0.32392 0.0
H797 H 0.73813 0.15148 0.22939 0.0
H798 H 0.68868 0.15252 0.23264 0.0
H799 H 0.71128 0.11653 0.2103 0.0
C800 C 0.43602 0.6844 0.25368 0.0
C801 C 0.46253 0.69263 0.27693 0.0
C802 C 0.42768 0.70962 0.22958 0.0
C803 C 0.44626 0.74383 0.22891 0.0
C804 C 0.47467 0.75138 0.25106 0.0
C805 C 0.4826 0.72551 0.27487 0.0
C806 C 0.39742 0.70056 0.2061 0.0
C807 C 0.49504 0.78767 0.25087 0.0
C808 C 0.43429 0.80347 0.15571 0.0
C809 C 0.406 0.82718 0.16562 0.0
C810 C 0.4481 0.77635 0.17622 0.0
C811 C 0.43319 0.77304 0.20722 0.0
C812 C 0.40474 0.79695 0.21742 0.0
C813 C 0.39144 0.82375 0.19644 0.0
C814 C 0.47839 0.7511 0.1647 0.0
C815 C 0.38816 0.79406 0.25042 0.0
H816 H 0.42081 0.65872 0.25494 0.0
H817 H 0.5032 0.73188 0.29277 0.0
H818 H 0.37321 0.71837 0.21089 0.0
H819 H 0.40654 0.70619 0.18132 0.0
H820 H 0.38861 0.67128 0.20768 0.0
H821 H 0.51914 0.78746 0.26719 0.0
H822 H 0.50461 0.79436 0.22642 0.0
H823 H 0.47617 0.81009 0.25849 0.0
H824 H 0.4457 0.80607 0.13192 0.0
H825 H 0.36966 0.84207 0.20427 0.0
H826 H 0.46874 0.72207 0.165 0.0
H827 H 0.5024 0.75285 0.181 0.0
H828 H 0.48759 0.75793 0.14013 0.0
H829 H 0.3755 0.76648 0.25362 0.0
H830 H 0.36679 0.81539 0.25482 0.0
H831 H 0.40995 0.79699 0.2688 0.0
C832 C 0.73189 0.4425 0.18463 0.0
C833 C 0.69713 0.42711 0.17974 0.0
C834 C 0.7462 0.44572 0.21546 0.0
C835 C 0.72473 0.43387 0.24171 0.0
C836 C 0.68852 0.42091 0.237 0.0
C837 C 0.67526 0.41719 0.20588 0.0
C838 C 0.78513 0.45945 0.21972 0.0
C839 C 0.66457 0.40904 0.26457 0.0
C840 C 0.78373 0.39336 0.3059 0.0
C841 C 0.78838 0.42368 0.32625 0.0
C842 C 0.76113 0.39575 0.27917 0.0
C843 C 0.74255 0.42922 0.27293 0.0
C844 C 0.74464 0.45893 0.29477 0.0
C845 C 0.76781 0.45585 0.32136 0.0
C846 C 0.75929 0.36331 0.25646 0.0
C847 C 0.7243 0.49462 0.28905 0.0
H848 H 0.74846 0.45059 0.1643 0.0
H849 H 0.64782 0.40631 0.202 0.0
H850 H 0.78623 0.48111 0.23842 0.0
H851 H 0.80294 0.43635 0.22769 0.0
H852 H 0.79669 0.47086 0.19727 0.0
H853 H 0.63514 0.40715 0.25758 0.0
H854 H 0.6736 0.38151 0.27305 0.0
H855 H 0.66715 0.42854 0.2849 0.0
H856 H 0.79898 0.36811 0.3101 0.0
H857 H 0.77113 0.47918 0.33735 0.0
H858 H 0.77227 0.37086 0.23341 0.0
H859 H 0.73027 0.35591 0.25144 0.0
H860 H 0.77355 0.33855 0.26601 0.0
H861 H 0.73852 0.51051 0.27012 0.0
H862 H 0.72314 0.51196 0.31093 0.0
H863 H 0.69584 0.48923 0.28068 0.0
C864 C 0.9274 0.18177 0.71877 0.0
C865 C 0.95547 0.1922 0.69769 0.0
C866 C 0.9183 0.20385 0.74504 0.0
C867 C 0.93755 0.23723 0.75008 0.0
C868 C 0.96684 0.24722 0.72963 0.0
C869 C 0.97558 0.22444 0.70368 0.0
C870 C 0.88715 0.19221 0.76662 0.0
C871 C 0.98781 0.28279 0.73428 0.0
C872 C 0.8873 0.31513 0.79123 0.0
C873 C 0.90319 0.31454 0.82173 0.0
C874 C 0.89806 0.28982 0.76779 0.0
C875 C 0.92515 0.26314 0.77516 0.0
C876 C 0.94069 0.26176 0.80609 0.0
C877 C 0.9296 0.28764 0.82905 0.0
C878 C 0.88096 0.29212 0.73495 0.0
C879 C 0.96938 0.23334 0.81473 0.0
H880 H 0.91201 0.15665 0.71443 0.0
H881 H 0.99732 0.23258 0.68747 0.0
H882 H 0.89589 0.1934 0.79198 0.0
H883 H 0.8637 0.21154 0.76381 0.0
H884 H 0.87736 0.16384 0.76122 0.0
H885 H 0.01147 0.28522 0.71765 0.0
H886 H 0.96913 0.30657 0.73031 0.0
H887 H 0.99817 0.28483 0.75913 0.0
H888 H 0.86693 0.33589 0.78538 0.0
H889 H 0.94188 0.28698 0.85263 0.0
H890 H 0.86787 0.26545 0.72864 0.0
H891 H 0.9026 0.29753 0.71689 0.0
H892 H 0.85988 0.31424 0.73328 0.0
H893 H 0.9588 0.20519 0.80983 0.0
H894 H 0.97761 0.23504 0.84024 0.0
H895 H 0.99421 0.23723 0.79974 0.0
C896 C 0.30034 0.96049 0.6976 0.0
C897 C 0.32414 0.93027 0.69456 0.0
C898 C 0.27925 0.96518 0.72514 0.0
C899 C 0.28199 0.93878 0.74977 0.0
C900 C 0.30839 0.9102 0.74806 0.0
C901 C 0.32924 0.90626 0.72033 0.0
C902 C 0.25167 0.9963 0.72654 0.0
C903 C 0.31208 0.88165 0.7741 0.0
C904 C 0.22776 0.94549 0.82637 0.0
C905 C 0.1979 0.92261 0.81892 0.0
C906 C 0.25514 0.95234 0.80366 0.0
C907 C 0.25217 0.93577 0.7732 0.0
C908 C 0.22129 0.91391 0.76524 0.0
C909 C 0.1945 0.90765 0.78825 0.0
C910 C 0.28774 0.97597 0.81259 0.0
C911 C 0.21709 0.89599 0.73278 0.0
H912 H 0.29705 0.97972 0.67801 0.0
H913 H 0.34829 0.88336 0.71835 0.0
H914 H 0.2239 0.98541 0.72087 0.0
H915 H 0.25051 0.0085 0.75083 0.0
H916 H 0.25825 0.01841 0.70913 0.0
H917 H 0.33777 0.86527 0.77166 0.0
H918 H 0.31178 0.89485 0.798 0.0
H919 H 0.28837 0.86242 0.77292 0.0
H920 H 0.23025 0.95718 0.85012 0.0
H921 H 0.17109 0.89045 0.78227 0.0
H922 H 0.29411 0.9959 0.7933 0.0
H923 H 0.31231 0.9582 0.81579 0.0
H924 H 0.283 0.99145 0.83514 0.0
H925 H 0.21861 0.91712 0.71372 0.0
H926 H 0.19062 0.88095 0.73027 0.0
H927 H 0.23987 0.87614 0.72875 0.0
C928 C 0.58587 0.1833 0.77048 0.0
C929 C 0.55787 0.19466 0.79131 0.0
C930 C 0.59455 0.20395 0.74334 0.0
C931 C 0.57494 0.23684 0.73715 0.0
C932 C 0.54583 0.24783 0.75747 0.0
C933 C 0.53751 0.22645 0.78431 0.0
C934 C 0.62554 0.19128 0.72196 0.0
C935 C 0.52451 0.28294 0.75158 0.0
C936 C 0.62373 0.31238 0.69197 0.0
C937 C 0.60737 0.30967 0.66173 0.0
C938 C 0.6136 0.28855 0.71664 0.0
C939 C 0.58666 0.26121 0.71081 0.0
C940 C 0.57065 0.25769 0.68019 0.0
C941 C 0.58113 0.28211 0.65596 0.0
C942 C 0.6312 0.2931 0.74912 0.0
C943 C 0.5421 0.22853 0.6732 0.0
H944 H 0.60145 0.1585 0.77563 0.0
H945 H 0.51582 0.2353 0.80034 0.0
H946 H 0.61637 0.19064 0.6967 0.0
H947 H 0.64873 0.21108 0.72354 0.0
H948 H 0.63584 0.16346 0.72855 0.0
H949 H 0.50118 0.2863 0.76846 0.0
H950 H 0.54308 0.30705 0.75417 0.0
H951 H 0.51361 0.28331 0.72685 0.0
H952 H 0.64399 0.33365 0.69662 0.0
H953 H 0.56849 0.27983 0.6326 0.0
H954 H 0.64464 0.26698 0.75646 0.0
H955 H 0.6098 0.2995 0.76718 0.0
H956 H 0.65208 0.31545 0.74952 0.0
H957 H 0.55305 0.20082 0.6792 0.0
H958 H 0.53342 0.22852 0.64776 0.0
H959 H 0.51749 0.23317 0.68832 0.0
C960 C 0.328 0.56897 0.77604 0.0
C961 C 0.32818 0.55503 0.80714 0.0
C962 C 0.29685 0.56574 0.75686 0.0
C963 C 0.26515 0.54832 0.76929 0.0
C964 C 0.26562 0.5327 0.80017 0.0
C965 C 0.29741 0.53613 0.81883 0.0
C966 C 0.29747 0.58224 0.72373 0.0
C967 C 0.23216 0.51398 0.81399 0.0
C968 C 0.18193 0.58402 0.72638 0.0
C969 C 0.17884 0.5579 0.70188 0.0
C970 C 0.20805 0.57954 0.75058 0.0
C971 C 0.23134 0.54826 0.74997 0.0
C972 C 0.22605 0.52024 0.72697 0.0
C973 C 0.19979 0.52544 0.70308 0.0
C974 C 0.21281 0.60977 0.77511 0.0
C975 C 0.25023 0.48637 0.72586 0.0
H976 H 0.35201 0.58322 0.76692 0.0
H977 H 0.29757 0.5255 0.843 0.0
H978 H 0.28952 0.56117 0.70577 0.0
H979 H 0.27718 0.60505 0.72221 0.0
H980 H 0.32497 0.59327 0.71727 0.0
H981 H 0.23859 0.4991 0.83647 0.0
H982 H 0.21074 0.53497 0.81913 0.0
H983 H 0.22028 0.49415 0.79662 0.0
H984 H 0.16534 0.60887 0.7258 0.0
H985 H 0.19689 0.50473 0.68454 0.0
H986 H 0.23807 0.62572 0.76963 0.0
H987 H 0.2162 0.59793 0.79934 0.0
H988 H 0.18911 0.62913 0.77537 0.0
H989 H 0.27765 0.49402 0.71633 0.0
H990 H 0.23846 0.46448 0.71032 0.0
H991 H 0.25444 0.47493 0.75013 0.0
C992 C 0.95488 0.59596 0.04645 0.0
C993 C 0.99315 0.59275 0.05002 0.0
C994 C 0.93546 0.57329 0.02516 0.0
C995 C 0.95487 0.5474 0.00631 0.0
C996 C 0.99374 0.54537 0.00854 0.0
C997 C 0.0124 0.5677 0.03075 0.0
C998 C 0.894 0.57571 0.02411 0.0
C999 C 0.01551 0.51882 0.98816 0.0
C1000 C 0.90807 0.45953 0.97829 0.0
C1001 C 0.89898 0.46829 0.94672 0.0
C1002 C 0.92502 0.48556 -0.00173 0.0
C1003 C 0.93432 0.52072 0.98596 0.0
C1004 C 0.92457 0.52991 0.95421 0.0
C1005 C 0.90646 0.5037 0.93508 0.0
C1006 C 0.93384 0.47507 0.0323 0.0
C1007 C 0.93487 0.56671 0.93996 0.0
H1008 H 0.93972 0.61502 0.06148 0.0
H1009 H 0.04195 0.56522 0.03333 0.0
H1010 H 0.88436 0.57963 -0.00077 0.0
H1011 H 0.88199 0.54945 0.03283 0.0
H1012 H 0.8832 0.59867 0.03902 0.0
H1013 H 0.04563 0.52339 0.99026 0.0
H1014 H 0.00939 0.49008 -0.00454 0.0
H1015 H 0.00745 0.52159 0.96272 0.0
H1016 H 0.90243 0.43204 0.98717 0.0
H1017 H 0.90011 0.51017 0.91041 0.0
H1018 H 0.92293 0.49621 0.049 0.0
H1019 H 0.96408 0.47401 0.03566 0.0
H1020 H 0.92216 0.44782 0.03887 0.0
H1021 H 0.92429 0.58956 0.95501 0.0
H1022 H 0.92404 0.57012 0.91533 0.0
H1023 H 0.96527 0.56934 0.9393 0.0
C1024 C 0.01843 0.92657 0.93472 0.0
C1025 C 0.05178 0.91353 0.947 0.0
C1026 C 0.99492 0.94809 0.95365 0.0
C1027 C 1.00472 0.95559 0.98572 0.0
C1028 C 0.0372 0.94018 -0.00122 0.0
C1029 C 0.06076 0.91988 0.979 0.0
C1030 C 0.96091 0.9647 0.93876 0.0
C1031 C 0.04784 0.94643 0.03322 0.0
C1032 C 0.96974 0.04023 0.02979 0.0
C1033 C 0.94096 0.02511 0.04764 0.0
C1034 C 0.98983 0.01818 0.00837 0.0
C1035 C 0.98148 0.98008 0.00563 0.0
C1036 C 0.95213 0.9649 0.02326 0.0
C1037 C 0.93196 0.98768 0.04372 0.0
C1038 C 0.02046 0.0354 0.98921 0.0
C1039 C 0.94302 0.92426 0.02161 0.0
H1040 H 0.01212 0.92236 0.90966 0.0
H1041 H 0.08687 0.91006 0.9882 0.0
H1042 H 0.93628 0.95838 0.95336 0.0
H1043 H 0.96372 0.99518 0.93808 0.0
H1044 H 0.95619 0.95454 0.91406 0.0
H1045 H 0.07213 0.92973 0.04031 0.0
H1046 H 0.05438 0.97599 0.03709 0.0
H1047 H 0.02454 0.93941 0.04919 0.0
H1048 H 0.97665 0.06913 0.03269 0.0
H1049 H 0.90995 0.97563 0.05767 0.0
H1050 H 0.01715 0.02858 0.96352 0.0
H1051 H 0.0473 0.02398 -0.00299 0.0
H1052 H 0.02127 0.06588 0.99192 0.0
H1053 H 0.93805 0.91573 -0.00346 0.0
H1054 H 0.91839 0.9171 0.03601 0.0
H1055 H 0.9667 0.90791 0.03051 0.0
C1056 C 0.3941 0.01696 0.05809 0.0
C1057 C 0.38367 0.98246 0.04599 0.0
C1058 C 0.41345 0.04222 0.03897 0.0
C1059 C 0.4217 0.03292 0.00688 0.0
C1060 C 0.40873 0.99918 -0.006 0.0
C1061 C 0.39035 0.97414 0.01385 0.0
C1062 C 0.42726 0.07761 0.05374 0.0
C1063 C 0.41599 0.98861 0.95968 0.0
C1064 C 0.45261 0.10487 0.94687 0.0
C1065 C 0.49028 0.09687 0.9439 0.0
C1066 C 0.43013 0.08513 0.96802 0.0
C1067 C 0.44575 0.0571 0.98714 0.0
C1068 C 0.4841 0.05017 0.98549 0.0
C1069 C 0.50586 0.06988 0.96364 0.0
C1070 C 0.38934 0.09299 0.96867 0.0
C1071 C 0.50196 0.02101 0.006 0.0
H1072 H 0.38961 0.02308 0.08316 0.0
H1073 H 0.38247 0.94735 0.00458 0.0
H1074 H 0.45764 0.07631 0.05603 0.0
H1075 H 0.4207 0.1015 0.03825 0.0
H1076 H 0.41533 0.08254 0.07778 0.0
H1077 H 0.40086 0.96329 0.95254 0.0
H1078 H 0.4079 0.0114 0.94349 0.0
H1079 H 0.44584 0.98366 0.95624 0.0
H1080 H 0.44022 0.12559 0.93163 0.0
H1081 H 0.53493 0.06369 0.96164 0.0
H1082 H 0.37982 0.09734 -0.00646 0.0
H1083 H 0.37417 0.06884 0.95904 0.0
H1084 H 0.38194 0.11763 0.9543 0.0
H1085 H 0.49405 0.02489 0.03137 0.0
H1086 H 0.53243 0.02152 0.00421 0.0
H1087 H 0.49215 0.99332 -0.00146 0.0
C1088 C 0.47947 0.56022 0.95839 0.0
C1089 C 0.48547 0.56737 0.92605 0.0
C1090 C 0.50596 0.54163 0.97656 0.0
C1091 C 0.53837 0.52865 0.96151 0.0
C1092 C 0.54511 0.53705 0.92905 0.0
C1093 C 0.51869 0.55692 0.91177 0.0
C1094 C 0.49844 0.53439 0.01145 0.0
C1095 C 0.57886 0.52284 0.91201 0.0
C1096 C 0.61554 0.49904 0.0162 0.0
C1097 C 0.60752 0.4615 0.02064 0.0
C1098 C 0.59392 0.52107 -0.00377 0.0
C1099 C 0.56423 0.50493 0.97957 0.0
C1100 C 0.55748 0.46653 0.98223 0.0
C1101 C 0.57891 0.44531 0.00319 0.0
C1102 C 0.60139 0.56203 -0.00534 0.0
C1103 C 0.52668 0.4482 0.96397 0.0
H1104 H 0.45348 0.56805 0.96916 0.0
H1105 H 0.52273 0.56173 0.88646 0.0
H1106 H 0.49366 0.50449 0.01518 0.0
H1107 H 0.52258 0.54236 0.02614 0.0
H1108 H 0.47397 0.54973 0.0202 0.0
H1109 H 0.58143 0.5343 0.88754 0.0
H1110 H 0.6041 0.52969 0.92565 0.0
H1111 H 0.5774 0.49232 0.91026 0.0
H1112 H 0.63746 0.51186 0.02982 0.0
H1113 H 0.57276 0.4163 0.00647 0.0
H1114 H 0.57831 0.57722 0.006 0.0
H1115 H 0.60306 0.57135 0.96951 0.0
H1116 H 0.62731 0.56975 0.00705 0.0
H1117 H 0.49981 0.45753 0.97359 0.0
H1118 H 0.52793 0.41764 0.96563 0.0
H1119 H 0.52769 0.45622 0.93843 0.0
C1120 C 0.11542 0.01002 0.43029 0.0
C1121 C 0.12622 0.97568 0.44242 0.0
C1122 C 0.0964 0.03547 0.44958 0.0
C1123 C 0.08885 0.02655 0.48186 0.0
C1124 C 0.10219 0.993 0.49471 0.0
C1125 C 0.12022 0.96774 0.47471 0.0
C1126 C 0.08216 0.07065 0.43483 0.0
C1127 C 0.09569 0.98283 0.5292 0.0
C1128 C 0.059 0.09917 0.54198 0.0
C1129 C 0.02143 0.09113 0.54561 0.0
C1130 C 0.08109 0.07923 0.52057 0.0
C1131 C 0.06514 0.05093 0.50185 0.0
C1132 C 0.02686 0.04395 0.50418 0.0
C1133 C 1.00552 0.06387 0.52628 0.0
C1134 C 0.12182 0.08716 0.5192 0.0
C1135 C 0.00866 0.01451 0.48412 0.0
H1136 H 0.11936 0.01583 0.40512 0.0
H1137 H 0.12837 0.94108 0.484 0.0
H1138 H 0.05174 0.06926 0.43303 0.0
H1139 H 0.08897 0.09474 0.45008 0.0
H1140 H 0.09357 0.07531 0.41058 0.0
H1141 H 0.11105 0.95762 0.53624 0.0
H1142 H 0.10406 1.00583 0.54513 0.0
H1143 H 0.06594 0.97786 0.53314 0.0
H1144 H 0.07164 0.1201 0.5569 0.0
H1145 H 0.97652 0.05764 0.52879 0.0
H1146 H 0.13078 0.09125 0.49416 0.0
H1147 H 0.13728 0.06317 0.5287 0.0
H1148 H 0.12945 0.11199 0.53332 0.0
H1149 H 0.016 0.0181 0.45861 0.0
H1150 H 0.97822 0.01499 0.4864 0.0
H1151 H 0.0187 0.98693 0.49157 0.0
C1152 C 0.50935 0.04639 0.42861 0.0
C1153 C 0.54425 0.05692 0.43929 0.0
C1154 C 0.48662 0.02436 0.44771 0.0
C1155 C 0.49879 0.01392 0.47851 0.0
C1156 C 0.53356 0.02578 0.48979 0.0
C1157 C 0.55626 0.04654 0.46969 0.0
C1158 C 0.45013 0.01139 0.43462 0.0
C1159 C 0.54682 0.01643 0.52299 0.0
C1160 C 0.42642 0.99029 0.53957 0.0
C1161 C 0.43046 0.95192 0.54236 0.0
C1162 C 0.44849 0.01067 0.51885 0.0
C1163 C 0.47446 0.99212 0.49961 0.0
C1164 C 0.47793 0.95319 0.50145 0.0
C1165 C 0.45627 0.93351 0.52339 0.0
C1166 C 0.44487 0.05223 0.51843 0.0
C1167 C 0.5047 0.93251 0.4805 0.0
H1168 H 0.50068 0.05372 0.40466 0.0
H1169 H 0.58356 0.05447 0.47758 0.0
H1170 H 0.44892 0.9808 0.43514 0.0
H1171 H 0.42735 0.02175 0.44976 0.0
H1172 H 0.44542 0.02079 0.40972 0.0
H1173 H 0.57391 0.02912 0.52847 0.0
H1174 H 0.52654 0.02608 0.54095 0.0
H1175 H 0.54929 0.9861 0.52562 0.0
H1176 H 0.40692 1.00474 0.55464 0.0
H1177 H 0.45938 0.90387 0.52561 0.0
H1178 H 0.43803 0.06188 0.49404 0.0
H1179 H 0.47149 0.06504 0.52517 0.0
H1180 H 0.42333 0.06235 0.53509 0.0
H1181 H 0.50037 0.94007 0.45511 0.0
H1182 H 0.50188 0.90213 0.48296 0.0
H1183 H 0.53328 0.94033 0.48682 0.0
C1184 C 0.59718 0.44461 0.49936 0.0
C1185 C 0.60738 0.45542 0.53023 0.0
C1186 C 0.57974 0.4694 0.47856 0.0
C1187 C 0.57109 0.50543 0.48937 0.0
C1188 C 0.58181 0.51663 0.52043 0.0
C1189 C 0.60038 0.49161 0.54034 0.0
C1190 C 0.56992 0.45676 0.44526 0.0
C1191 C 0.57226 0.55444 0.53312 0.0
C1192 C 0.55073 0.57851 0.42704 0.0
C1193 C 0.51226 0.57669 0.42466 0.0
C1194 C 0.57017 0.55574 0.44817 0.0
C1195 C 0.55062 0.53119 0.46812 0.0
C1196 C 0.51165 0.53019 0.46673 0.0
C1197 C 0.49293 0.55256 0.44462 0.0
C1198 C 0.6117 0.55694 0.44823 0.0
C1199 C 0.48979 0.50508 0.48826 0.0
H1200 H 0.60246 0.41654 0.49163 0.0
H1201 H 0.60759 0.49972 0.56449 0.0
H1202 H 0.53959 0.45614 0.44244 0.0
H1203 H 0.58084 0.47648 0.42739 0.0
H1204 H 0.58092 0.42885 0.43982 0.0
H1205 H 0.58307 0.55908 0.55762 0.0
H1206 H 0.58345 0.57609 0.51719 0.0
H1207 H 0.54193 0.55787 0.53355 0.0
H1208 H 0.56592 0.5968 0.4114 0.0
H1209 H 0.46322 0.55113 0.44291 0.0
H1210 H 0.62278 0.52963 0.44105 0.0
H1211 H 0.62208 0.56282 0.47261 0.0
H1212 H 0.62273 0.57816 0.43171 0.0
H1213 H 0.49563 0.47588 0.48217 0.0
H1214 H 0.45969 0.50982 0.48614 0.0
H1215 H 0.49807 0.50932 0.5135 0.0
C1216 C 0.92822 0.45834 0.48476 0.0
C1217 C 0.93656 0.45063 0.45288 0.0
C1218 C 0.95306 0.47793 0.50396 0.0
C1219 C 0.98607 0.49143 0.49035 0.0
C1220 C 0.99422 0.48418 0.4579 0.0
C1221 C 0.96959 0.46317 0.43966 0.0
C1222 C 0.94415 0.48387 0.5388 0.0
C1223 C 0.02859 0.4991 0.44236 0.0
C1224 C 0.03409 0.56662 0.53806 0.0
C1225 C 0.06173 0.54626 0.55325 0.0
C1226 C 0.01006 0.54947 0.5163 0.0
C1227 C 0.01314 0.511 0.51069 0.0
C1228 C 0.04132 0.49055 0.52567 0.0
C1229 C 0.06557 0.50853 0.54632 0.0
C1230 C 0.98101 0.57227 0.4998 0.0
C1231 C 0.04488 0.44932 0.52106 0.0
H1232 H 0.90234 0.44888 0.49464 0.0
H1233 H 0.97535 0.4579 0.41466 0.0
H1234 H 0.96641 0.47223 0.55388 0.0
H1235 H 0.94253 0.5138 0.54411 0.0
H1236 H 0.9177 0.47082 0.54576 0.0
H1237 H 0.02963 0.49292 0.41639 0.0
H1238 H 0.03004 0.52944 0.44574 0.0
H1239 H 0.05332 0.48707 0.45384 0.0
H1240 H 0.03112 0.59576 0.54334 0.0
H1241 H 0.08662 0.49244 0.55825 0.0
H1242 H 0.95337 0.56407 0.5084 0.0
H1243 H 0.98172 0.56717 0.47367 0.0
H1244 H 0.98466 0.60228 0.50421 0.0
H1245 H 0.01935 0.43546 0.52922 0.0
H1246 H 0.06852 0.43755 0.53443 0.0
H1247 H 0.04838 0.44265 0.4954 0.0
loop_
_geom_bond_atom_site_label_1
_geom_bond_atom_site_label_2
_geom_bond_distance
_geom_bond_site_symmetry_2
_ccdc_geom_bond_type
C0 O2 1.247 . S
C0 O4 1.258 . S
C1 O8 1.247 . S
C1 O9 1.258 . S
O2 C0 1.247 . S
O2 Zn3 2.028 . S
Zn3 O2 2.028 . S
Zn3 O7 2.035 . S
Zn3 O9 2.035 . S
Zn3 O10 2.028 . S
O4 C0 1.258 . S
O4 Zn5 2.035 . S
Zn5 O4 2.035 . S
Zn5 O6 2.028 . S
Zn5 O8 2.028 . S
Zn5 O11 2.035 . S
O6 Zn5 2.028 . S
O6 C12 1.247 . S
O7 Zn3 2.035 . S
O7 C12 1.258 . S
O8 C1 1.247 . S
O8 Zn5 2.028 . S
O9 C1 1.258 . S
O9 Zn3 2.035 . S
O10 Zn3 2.028 . S
O10 C13 1.247 . S
O11 Zn5 2.035 . S
O11 C13 1.258 . S
C12 O6 1.247 . S
C12 O7 1.258 . S
C13 O10 1.247 . S
C13 O11 1.258 . S
C14 O16 1.247 . S
C14 O18 1.258 . S
C15 O22 1.247 . S
C15 O23 1.258 . S
O16 C14 1.247 . S
O16 Zn17 2.028 . S
Zn17 O16 2.028 . S
Zn17 O21 2.035 . S
Zn17 O23 2.035 . S
Zn17 O24 2.028 . S
O18 C14 1.258 . S
O18 Zn19 2.035 . S
Zn19 O18 2.035 . S
Zn19 O20 2.028 . S
Zn19 O22 2.028 . S
Zn19 O25 2.035 . S
O20 Zn19 2.028 . S
O20 C26 1.247 . S
O21 Zn17 2.035 . S
O21 C26 1.258 . S
O22 C15 1.247 . S
O22 Zn19 2.028 . S
O23 C15 1.258 . S
O23 Zn17 2.035 . S
O24 Zn17 2.028 . S
O24 C27 1.247 . S
O25 Zn19 2.035 . S
O25 C27 1.258 . S
C26 O20 1.247 . S
C26 O21 1.258 . S
C27 O24 1.247 . S
C27 O25 1.258 . S
C28 O30 1.247 . S
C28 O32 1.258 . S
C29 O36 1.247 . S
C29 O37 1.258 . S
O30 C28 1.247 . S
O30 Zn31 2.028 . S
Zn31 O30 2.028 . S
Zn31 O35 2.035 . S
Zn31 O37 2.035 . S
Zn31 O38 2.028 . S
O32 C28 1.258 . S
O32 Zn33 2.035 . S
Zn33 O32 2.035 . S
Zn33 O34 2.028 . S
Zn33 O36 2.028 . S
Zn33 O39 2.035 . S
O34 Zn33 2.028 . S
O34 C40 1.247 . S
O35 Zn31 2.035 . S
O35 C40 1.258 . S
O36 C29 1.247 . S
O36 Zn33 2.028 . S
O37 C29 1.258 . S
O37 Zn31 2.035 . S
O38 Zn31 2.028 . S
O38 C41 1.247 . S
O39 Zn33 2.035 . S
O39 C41 1.258 . S
C40 O34 1.247 . S
C40 O35 1.258 . S
C41 O38 1.247 . S
C41 O39 1.258 . S
C42 O44 1.247 . S
C42 O46 1.258 . S
C43 O50 1.247 . S
C43 O51 1.258 . S
O44 C42 1.247 . S
O44 Zn45 2.028 . S
Zn45 O44 2.028 . S
Zn45 O49 2.035 . S
Zn45 O51 2.035 . S
Zn45 O52 2.028 . S
O46 C42 1.258 . S
O46 Zn47 2.035 . S
Zn47 O46 2.035 . S
Zn47 O48 2.028 . S
Zn47 O50 2.028 . S
Zn47 O53 2.035 . S
O48 Zn47 2.028 . S
O48 C54 1.247 . S
O49 Zn45 2.035 . S
O49 C54 1.258 . S
O50 C43 1.247 . S
O50 Zn47 2.028 . S
O51 C43 1.258 . S
O51 Zn45 2.035 . S
O52 Zn45 2.028 . S
O52 C55 1.247 . S
O53 Zn47 2.035 . S
O53 C55 1.258 . S
C54 O48 1.247 . S
C54 O49 1.258 . S
C55 O52 1.247 . S
C55 O53 1.258 . S
C56 O58 1.247 . S
C56 O60 1.258 . S
C57 O64 1.247 . S
C57 O65 1.258 . S
O58 C56 1.247 . S
O58 Zn59 2.028 . S
Zn59 O58 2.028 . S
Zn59 O63 2.035 . S
Zn59 O65 2.035 . S
Zn59 O66 2.028 . S
O60 C56 1.258 . S
O60 Zn61 2.035 . S
Zn61 O60 2.035 . S
Zn61 O62 2.028 . S
Zn61 O64 2.028 . S
Zn61 O67 2.035 . S
O62 Zn61 2.028 . S
O62 C68 1.247 . S
O63 Zn59 2.035 . S
O63 C68 1.258 . S
O64 C57 1.247 . S
O64 Zn61 2.028 . S
O65 C57 1.258 . S
O65 Zn59 2.035 . S
O66 Zn59 2.028 . S
O66 C69 1.247 . S
O67 Zn61 2.035 . S
O67 C69 1.258 . S
C68 O62 1.247 . S
C68 O63 1.258 . S
C69 O66 1.247 . S
C69 O67 1.258 . S
C70 O72 1.247 . S
C70 O74 1.258 . S
C71 O78 1.247 . S
C71 O79 1.258 . S
O72 C70 1.247 . S
O72 Zn73 2.028 . S
Zn73 O72 2.028 . S
Zn73 O77 2.035 . S
Zn73 O79 2.035 . S
Zn73 O80 2.028 . S
O74 C70 1.258 . S
O74 Zn75 2.035 . S
Zn75 O74 2.035 . S
Zn75 O76 2.028 . S
Zn75 O78 2.028 . S
Zn75 O81 2.035 . S
O76 Zn75 2.028 . S
O76 C82 1.247 . S
O77 Zn73 2.035 . S
O77 C82 1.258 . S
O78 C71 1.247 . S
O78 Zn75 2.028 . S
O79 C71 1.258 . S
O79 Zn73 2.035 . S
O80 Zn73 2.028 . S
O80 C83 1.247 . S
O81 Zn75 2.035 . S
O81 C83 1.258 . S
C82 O76 1.247 . S
C82 O77 1.258 . S
C83 O80 1.247 . S
C83 O81 1.258 . S
C84 O86 1.247 . S
C84 O88 1.258 . S
C85 O92 1.247 . S
C85 O93 1.258 . S
O86 C84 1.247 . S
O86 Zn87 2.028 . S
Zn87 O86 2.028 . S
Zn87 O91 2.035 . S
Zn87 O93 2.035 . S
Zn87 O94 2.028 . S
O88 C84 1.258 . S
O88 Zn89 2.035 . S
Zn89 O88 2.035 . S
Zn89 O90 2.028 . S
Zn89 O92 2.028 . S
Zn89 O95 2.035 . S
O90 Zn89 2.028 . S
O90 C96 1.247 . S
O91 Zn87 2.035 . S
O91 C96 1.258 . S
O92 C85 1.247 . S
O92 Zn89 2.028 . S
O93 C85 1.258 . S
O93 Zn87 2.035 . S
O94 Zn87 2.028 . S
O94 C97 1.247 . S
O95 Zn89 2.035 . S
O95 C97 1.258 . S
C96 O90 1.247 . S
C96 O91 1.258 . S
C97 O94 1.247 . S
C97 O95 1.258 . S
C98 O100 1.247 . S
C98 O102 1.258 . S
C99 O106 1.247 . S
C99 O107 1.258 . S
O100 C98 1.247 . S
O100 Zn101 2.028 . S
Zn101 O100 2.028 . S
Zn101 O105 2.035 . S
Zn101 O107 2.035 . S
Zn101 O108 2.028 . S
O102 C98 1.258 . S
O102 Zn103 2.035 . S
Zn103 O102 2.035 . S
Zn103 O104 2.028 . S
Zn103 O106 2.028 . S
Zn103 O109 2.035 . S
O104 Zn103 2.028 . S
O104 C110 1.247 . S
O105 Zn101 2.035 . S
O105 C110 1.258 . S
O106 C99 1.247 . S
O106 Zn103 2.028 . S
O107 C99 1.258 . S
O107 Zn101 2.035 . S
O108 Zn101 2.028 . S
O108 C111 1.247 . S
O109 Zn103 2.035 . S
O109 C111 1.258 . S
C110 O104 1.247 . S
C110 O105 1.258 . S
C111 O108 1.247 . S
C111 O109 1.258 . S
C112 O114 1.247 . S
C112 O116 1.258 . S
C113 O120 1.247 . S
C113 O121 1.258 . S
O114 C112 1.247 . S
O114 Zn115 2.028 . S
Zn115 O114 2.028 . S
Zn115 O119 2.035 . S
Zn115 O121 2.035 . S
Zn115 O122 2.028 . S
O116 C112 1.258 . S
O116 Zn117 2.035 . S
Zn117 O116 2.035 . S
Zn117 O118 2.028 . S
Zn117 O120 2.028 . S
Zn117 O123 2.035 . S
O118 Zn117 2.028 . S
O118 C124 1.247 . S
O119 Zn115 2.035 . S
O119 C124 1.258 . S
O120 C113 1.247 . S
O120 Zn117 2.028 . S
O121 C113 1.258 . S
O121 Zn115 2.035 . S
O122 Zn115 2.028 . S
O122 C125 1.247 . S
O123 Zn117 2.035 . S
O123 C125 1.258 . S
C124 O118 1.247 . S
C124 O119 1.258 . S
C125 O122 1.247 . S
C125 O123 1.258 . S
C126 O128 1.247 . S
C126 O130 1.258 . S
C127 O134 1.247 . S
C127 O135 1.258 . S
O128 C126 1.247 . S
O128 Zn129 2.028 . S
Zn129 O128 2.028 . S
Zn129 O133 2.035 . S
Zn129 O135 2.035 . S
Zn129 O136 2.028 . S
O130 C126 1.258 . S
O130 Zn131 2.035 . S
Zn131 O130 2.035 . S
Zn131 O132 2.028 . S
Zn131 O134 2.028 . S
Zn131 O137 2.035 . S
O132 Zn131 2.028 . S
O132 C138 1.247 . S
O133 Zn129 2.035 . S
O133 C138 1.258 . S
O134 C127 1.247 . S
O134 Zn131 2.028 . S
O135 C127 1.258 . S
O135 Zn129 2.035 . S
O136 Zn129 2.028 . S
O136 C139 1.247 . S
O137 Zn131 2.035 . S
O137 C139 1.258 . S
C138 O132 1.247 . S
C138 O133 1.258 . S
C139 O136 1.247 . S
C139 O137 1.258 . S
C140 O142 1.247 . S
C140 O144 1.258 . S
C141 O148 1.247 . S
C141 O149 1.258 . S
O142 C140 1.247 . S
O142 Zn143 2.028 . S
Zn143 O142 2.028 . S
Zn143 O147 2.035 . S
Zn143 O149 2.035 . S
Zn143 O150 2.028 . S
O144 C140 1.258 . S
O144 Zn145 2.035 . S
Zn145 O144 2.035 . S
Zn145 O146 2.028 . S
Zn145 O148 2.028 . S
Zn145 O151 2.035 . S
O146 Zn145 2.028 . S
O146 C152 1.247 . S
O147 Zn143 2.035 . S
O147 C152 1.258 . S
O148 C141 1.247 . S
O148 Zn145 2.028 . S
O149 C141 1.258 . S
O149 Zn143 2.035 . S
O150 Zn143 2.028 . S
O150 C153 1.247 . S
O151 Zn145 2.035 . S
O151 C153 1.258 . S
C152 O146 1.247 . S
C152 O147 1.258 . S
C153 O150 1.247 . S
C153 O151 1.258 . S
C154 O156 1.247 . S
C154 O158 1.258 . S
C155 O162 1.247 . S
C155 O163 1.258 . S
O156 C154 1.247 . S
O156 Zn157 2.028 . S
Zn157 O156 2.028 . S
Zn157 O161 2.035 . S
Zn157 O163 2.035 . S
Zn157 O164 2.028 . S
O158 C154 1.258 . S
O158 Zn159 2.035 . S
Zn159 O158 2.035 . S
Zn159 O160 2.028 . S
Zn159 O162 2.028 . S
Zn159 O165 2.035 . S
O160 Zn159 2.028 . S
O160 C166 1.247 . S
O161 Zn157 2.035 . S
O161 C166 1.258 . S
O162 C155 1.247 . S
O162 Zn159 2.028 . S
O163 C155 1.258 . S
O163 Zn157 2.035 . S
O164 Zn157 2.028 . S
O164 C167 1.247 . S
O165 Zn159 2.035 . S
O165 C167 1.258 . S
C166 O160 1.247 . S
C166 O161 1.258 . S
C167 O164 1.247 . S
C167 O165 1.258 . S
C168 O170 1.247 . S
C168 O172 1.258 . S
C169 O176 1.247 . S
C169 O177 1.258 . S
O170 C168 1.247 . S
O170 Zn171 2.028 . S
Zn171 O170 2.028 . S
Zn171 O175 2.035 . S
Zn171 O177 2.035 . S
Zn171 O178 2.028 . S
O172 C168 1.258 . S
O172 Zn173 2.035 . S
Zn173 O172 2.035 . S
Zn173 O174 2.028 . S
Zn173 O176 2.028 . S
Zn173 O179 2.035 . S
O174 Zn173 2.028 . S
O174 C180 1.247 . S
O175 Zn171 2.035 . S
O175 C180 1.258 . S
O176 C169 1.247 . S
O176 Zn173 2.028 . S
O177 C169 1.258 . S
O177 Zn171 2.035 . S
O178 Zn171 2.028 . S
O178 C181 1.247 . S
O179 Zn173 2.035 . S
O179 C181 1.258 . S
C180 O174 1.247 . S
C180 O175 1.258 . S
C181 O178 1.247 . S
C181 O179 1.258 . S
C182 O184 1.247 . S
C182 O186 1.258 . S
C183 O190 1.247 . S
C183 O191 1.258 . S
O184 C182 1.247 . S
O184 Zn185 2.028 . S
Zn185 O184 2.028 . S
Zn185 O189 2.035 . S
Zn185 O191 2.035 . S
Zn185 O192 2.028 . S
O186 C182 1.258 . S
O186 Zn187 2.035 . S
Zn187 O186 2.035 . S
Zn187 O188 2.028 . S
Zn187 O190 2.028 . S
Zn187 O193 2.035 . S
O188 Zn187 2.028 . S
O188 C194 1.247 . S
O189 Zn185 2.035 . S
O189 C194 1.258 . S
O190 C183 1.247 . S
O190 Zn187 2.028 . S
O191 C183 1.258 . S
O191 Zn185 2.035 . S
O192 Zn185 2.028 . S
O192 C195 1.247 . S
O193 Zn187 2.035 . S
O193 C195 1.258 . S
C194 O188 1.247 . S
C194 O189 1.258 . S
C195 O192 1.247 . S
C195 O193 1.258 . S
C196 O198 1.247 . S
C196 O200 1.258 . S
C197 O204 1.247 . S
C197 O205 1.258 . S
O198 C196 1.247 . S
O198 Zn199 2.028 . S
Zn199 O198 2.028 . S
Zn199 O203 2.035 . S
Zn199 O205 2.035 . S
Zn199 O206 2.028 . S
O200 C196 1.258 . S
O200 Zn201 2.035 . S
Zn201 O200 2.035 . S
Zn201 O202 2.028 . S
Zn201 O204 2.028 . S
Zn201 O207 2.035 . S
O202 Zn201 2.028 . S
O202 C208 1.247 . S
O203 Zn199 2.035 . S
O203 C208 1.258 . S
O204 C197 1.247 . S
O204 Zn201 2.028 . S
O205 C197 1.258 . S
O205 Zn199 2.035 . S
O206 Zn199 2.028 . S
O206 C209 1.247 . S
O207 Zn201 2.035 . S
O207 C209 1.258 . S
C208 O202 1.247 . S
C208 O203 1.258 . S
C209 O206 1.247 . S
C209 O207 1.258 . S
C210 O212 1.247 . S
C210 O214 1.258 . S
C211 O218 1.247 . S
C211 O219 1.258 . S
O212 C210 1.247 . S
O212 Zn213 2.028 . S
Zn213 O212 2.028 . S
Zn213 O217 2.035 . S
Zn213 O219 2.035 . S
Zn213 O220 2.028 . S
O214 C210 1.258 . S
O214 Zn215 2.035 . S
Zn215 O214 2.035 . S
Zn215 O216 2.028 . S
Zn215 O218 2.028 . S
Zn215 O221 2.035 . S
O216 Zn215 2.028 . S
O216 C222 1.247 . S
O217 Zn213 2.035 . S
O217 C222 1.258 . S
O218 C211 1.247 . S
O218 Zn215 2.028 . S
O219 C211 1.258 . S
O219 Zn213 2.035 . S
O220 Zn213 2.028 . S
O220 C223 1.247 . S
O221 Zn215 2.035 . S
O221 C223 1.258 . S
C222 O216 1.247 . S
C222 O217 1.258 . S
C223 O220 1.247 . S
C223 O221 1.258 . S
C224 C225 1.391 . S
C224 C226 1.394 . S
C224 H240 0.931 . S
C225 C224 1.391 . S
C225 C229 1.376 . S
C226 C224 1.394 . S
C226 C227 1.369 . S
C226 C230 1.531 . S
C227 C226 1.369 . S
C227 C228 1.410 . S
C227 C235 1.503 . S
C228 C227 1.410 . S
C228 C229 1.392 . S
C228 C231 1.511 . S
C229 C225 1.376 . S
C229 C228 1.392 . S
C229 H241 0.929 . S
C230 C226 1.531 . S
C230 H242 0.960 . S
C230 H243 0.962 . S
C230 H244 0.960 . S
C231 C228 1.511 . S
C231 H245 0.961 . S
C231 H246 0.961 . S
C231 H247 0.961 . S
C232 C233 1.370 . S
C232 C234 1.363 . S
C232 H248 0.931 . S
C233 C232 1.370 . S
C233 C237 1.408 . S
C234 C232 1.363 . S
C234 C235 1.370 . S
C234 C238 1.524 . S
C235 C227 1.503 . S
C235 C234 1.370 . S
C235 C236 1.403 . S
C236 C235 1.403 . S
C236 C237 1.404 . S
C236 C239 1.539 . S
C237 C233 1.408 . S
C237 C236 1.404 . S
C237 H249 0.930 . S
C238 C234 1.524 . S
C238 H250 0.956 . S
C238 H251 0.961 . S
C238 H252 0.961 . S
C239 C236 1.539 . S
C239 H253 0.958 . S
C239 H254 0.961 . S
C239 H255 0.960 . S
H240 C224 0.931 . S
H241 C229 0.929 . S
H242 C230 0.960 . S
H243 C230 0.962 . S
H244 C230 0.960 . S
H245 C231 0.961 . S
H246 C231 0.961 . S
H247 C231 0.961 . S
H248 C232 0.931 . S
H249 C237 0.930 . S
H250 C238 0.956 . S
H251 C238 0.961 . S
H252 C238 0.961 . S
H253 C239 0.958 . S
H254 C239 0.961 . S
H255 C239 0.960 . S
C256 C257 1.391 . S
C256 C258 1.394 . S
C256 H272 0.931 . S
C257 C256 1.391 . S
C257 C261 1.376 . S
C258 C256 1.394 . S
C258 C259 1.369 . S
C258 C262 1.531 . S
C259 C258 1.369 . S
C259 C260 1.410 . S
C259 C267 1.503 . S
C260 C259 1.410 . S
C260 C261 1.392 . S
C260 C263 1.511 . S
C261 C257 1.376 . S
C261 C260 1.392 . S
C261 H273 0.929 . S
C262 C258 1.531 . S
C262 H274 0.960 . S
C262 H275 0.962 . S
C262 H276 0.960 . S
C263 C260 1.511 . S
C263 H277 0.961 . S
C263 H278 0.961 . S
C263 H279 0.961 . S
C264 C265 1.370 . S
C264 C266 1.363 . S
C264 H280 0.931 . S
C265 C264 1.370 . S
C265 C269 1.408 . S
C266 C264 1.363 . S
C266 C267 1.370 . S
C266 C270 1.524 . S
C267 C259 1.503 . S
C267 C266 1.370 . S
C267 C268 1.403 . S
C268 C267 1.403 . S
C268 C269 1.404 . S
C268 C271 1.539 . S
C269 C265 1.408 . S
C269 C268 1.404 . S
C269 H281 0.930 . S
C270 C266 1.524 . S
C270 H282 0.956 . S
C270 H283 0.961 . S
C270 H284 0.961 . S
C271 C268 1.539 . S
C271 H285 0.958 . S
C271 H286 0.961 . S
C271 H287 0.960 . S
H272 C256 0.931 . S
H273 C261 0.929 . S
H274 C262 0.960 . S
H275 C262 0.962 . S
H276 C262 0.960 . S
H277 C263 0.961 . S
H278 C263 0.961 . S
H279 C263 0.961 . S
H280 C264 0.931 . S
H281 C269 0.930 . S
H282 C270 0.956 . S
H283 C270 0.961 . S
H284 C270 0.961 . S
H285 C271 0.958 . S
H286 C271 0.961 . S
H287 C271 0.960 . S
C288 C289 1.391 . S
C288 C290 1.394 . S
C288 H304 0.931 . S
C289 C288 1.391 . S
C289 C293 1.376 . S
C290 C288 1.394 . S
C290 C291 1.369 . S
C290 C294 1.531 . S
C291 C290 1.369 . S
C291 C292 1.410 . S
C291 C299 1.503 . S
C292 C291 1.410 . S
C292 C293 1.392 . S
C292 C295 1.511 . S
C293 C289 1.376 . S
C293 C292 1.392 . S
C293 H305 0.929 . S
C294 C290 1.531 . S
C294 H306 0.960 . S
C294 H307 0.962 . S
C294 H308 0.960 . S
C295 C292 1.511 . S
C295 H309 0.961 . S
C295 H310 0.961 . S
C295 H311 0.961 . S
C296 C297 1.370 . S
C296 C298 1.363 . S
C296 H312 0.931 . S
C297 C296 1.370 . S
C297 C301 1.408 . S
C298 C296 1.363 . S
C298 C299 1.370 . S
C298 C302 1.524 . S
C299 C291 1.503 . S
C299 C298 1.370 . S
C299 C300 1.403 . S
C300 C299 1.403 . S
C300 C301 1.404 . S
C300 C303 1.539 . S
C301 C297 1.408 . S
C301 C300 1.404 . S
C301 H313 0.930 . S
C302 C298 1.524 . S
C302 H314 0.956 . S
C302 H315 0.961 . S
C302 H316 0.961 . S
C303 C300 1.539 . S
C303 H317 0.958 . S
C303 H318 0.961 . S
C303 H319 0.960 . S
H304 C288 0.931 . S
H305 C293 0.929 . S
H306 C294 0.960 . S
H307 C294 0.962 . S
H308 C294 0.960 . S
H309 C295 0.961 . S
H310 C295 0.961 . S
H311 C295 0.961 . S
H312 C296 0.931 . S
H313 C301 0.930 . S
H314 C302 0.956 . S
H315 C302 0.961 . S
H316 C302 0.961 . S
H317 C303 0.958 . S
H318 C303 0.961 . S
H319 C303 0.960 . S
C320 C321 1.391 . S
C320 C322 1.394 . S
C320 H336 0.931 . S
C321 C320 1.391 . S
C321 C325 1.376 . S
C322 C320 1.394 . S
C322 C323 1.369 . S
C322 C326 1.531 . S
C323 C322 1.369 . S
C323 C324 1.410 . S
C323 C331 1.503 . S
C324 C323 1.410 . S
C324 C325 1.392 . S
C324 C327 1.511 . S
C325 C321 1.376 . S
C325 C324 1.392 . S
C325 H337 0.929 . S
C326 C322 1.531 . S
C326 H338 0.960 . S
C326 H339 0.962 . S
C326 H340 0.960 . S
C327 C324 1.511 . S
C327 H341 0.961 . S
C327 H342 0.961 . S
C327 H343 0.961 . S
C328 C329 1.370 . S
C328 C330 1.363 . S
C328 H344 0.931 . S
C329 C328 1.370 . S
C329 C333 1.408 . S
C330 C328 1.363 . S
C330 C331 1.370 . S
C330 C334 1.524 . S
C331 C323 1.503 . S
C331 C330 1.370 . S
C331 C332 1.403 . S
C332 C331 1.403 . S
C332 C333 1.404 . S
C332 C335 1.539 . S
C333 C329 1.408 . S
C333 C332 1.404 . S
C333 H345 0.930 . S
C334 C330 1.524 . S
C334 H346 0.956 . S
C334 H347 0.961 . S
C334 H348 0.961 . S
C335 C332 1.539 . S
C335 H349 0.958 . S
C335 H350 0.961 . S
C335 H351 0.960 . S
H336 C320 0.931 . S
H337 C325 0.929 . S
H338 C326 0.960 . S
H339 C326 0.962 . S
H340 C326 0.960 . S
H341 C327 0.961 . S
H342 C327 0.961 . S
H343 C327 0.961 . S
H344 C328 0.931 . S
H345 C333 0.930 . S
H346 C334 0.956 . S
H347 C334 0.961 . S
H348 C334 0.961 . S
H349 C335 0.958 . S
H350 C335 0.961 . S
H351 C335 0.960 . S
C352 C353 1.391 . S
C352 C354 1.394 . S
C352 H368 0.931 . S
C353 C352 1.391 . S
C353 C357 1.376 . S
C354 C352 1.394 . S
C354 C355 1.369 . S
C354 C358 1.531 . S
C355 C354 1.369 . S
C355 C356 1.410 . S
C355 C363 1.503 . S
C356 C355 1.410 . S
C356 C357 1.392 . S
C356 C359 1.511 . S
C357 C353 1.376 . S
C357 C356 1.392 . S
C357 H369 0.929 . S
C358 C354 1.531 . S
C358 H370 0.960 . S
C358 H371 0.962 . S
C358 H372 0.960 . S
C359 C356 1.511 . S
C359 H373 0.961 . S
C359 H374 0.961 . S
C359 H375 0.961 . S
C360 C361 1.370 . S
C360 C362 1.363 . S
C360 H376 0.931 . S
C361 C360 1.370 . S
C361 C365 1.408 . S
C362 C360 1.363 . S
C362 C363 1.370 . S
C362 C366 1.524 . S
C363 C355 1.503 . S
C363 C362 1.370 . S
C363 C364 1.403 . S
C364 C363 1.403 . S
C364 C365 1.404 . S
C364 C367 1.539 . S
C365 C361 1.408 . S
C365 C364 1.404 . S
C365 H377 0.930 . S
C366 C362 1.524 . S
C366 H378 0.956 . S
C366 H379 0.961 . S
C366 H380 0.961 . S
C367 C364 1.539 . S
C367 H381 0.958 . S
C367 H382 0.961 . S
C367 H383 0.960 . S
H368 C352 0.931 . S
H369 C357 0.929 . S
H370 C358 0.960 . S
H371 C358 0.962 . S
H372 C358 0.960 . S
H373 C359 0.961 . S
H374 C359 0.961 . S
H375 C359 0.961 . S
H376 C360 0.931 . S
H377 C365 0.930 . S
H378 C366 0.956 . S
H379 C366 0.961 . S
H380 C366 0.961 . S
H381 C367 0.958 . S
H382 C367 0.961 . S
H383 C367 0.960 . S
C384 C385 1.391 . S
C384 C386 1.394 . S
C384 H400 0.931 . S
C385 C384 1.391 . S
C385 C389 1.376 . S
C386 C384 1.394 . S
C386 C387 1.369 . S
C386 C390 1.531 . S
C387 C386 1.369 . S
C387 C388 1.410 . S
C387 C395 1.503 . S
C388 C387 1.410 . S
C388 C389 1.392 . S
C388 C391 1.511 . S
C389 C385 1.376 . S
C389 C388 1.392 . S
C389 H401 0.929 . S
C390 C386 1.531 . S
C390 H402 0.960 . S
C390 H403 0.962 . S
C390 H404 0.960 . S
C391 C388 1.511 . S
C391 H405 0.961 . S
C391 H406 0.961 . S
C391 H407 0.961 . S
C392 C393 1.370 . S
C392 C394 1.363 . S
C392 H408 0.931 . S
C393 C392 1.370 . S
C393 C397 1.408 . S
C394 C392 1.363 . S
C394 C395 1.370 . S
C394 C398 1.524 . S
C395 C387 1.503 . S
C395 C394 1.370 . S
C395 C396 1.403 . S
C396 C395 1.403 . S
C396 C397 1.404 . S
C396 C399 1.539 . S
C397 C393 1.408 . S
C397 C396 1.404 . S
C397 H409 0.930 . S
C398 C394 1.524 . S
C398 H410 0.956 . S
C398 H411 0.961 . S
C398 H412 0.961 . S
C399 C396 1.539 . S
C399 H413 0.958 . S
C399 H414 0.961 . S
C399 H415 0.960 . S
H400 C384 0.931 . S
H401 C389 0.929 . S
H402 C390 0.960 . S
H403 C390 0.962 . S
H404 C390 0.960 . S
H405 C391 0.961 . S
H406 C391 0.961 . S
H407 C391 0.961 . S
H408 C392 0.931 . S
H409 C397 0.930 . S
H410 C398 0.956 . S
H411 C398 0.961 . S
H412 C398 0.961 . S
H413 C399 0.958 . S
H414 C399 0.961 . S
H415 C399 0.960 . S
C416 C417 1.391 . S
C416 C418 1.394 . S
C416 H432 0.931 . S
C417 C416 1.391 . S
C417 C421 1.376 . S
C418 C416 1.394 . S
C418 C419 1.369 . S
C418 C422 1.531 . S
C419 C418 1.369 . S
C419 C420 1.410 . S
C419 C427 1.503 . S
C420 C419 1.410 . S
C420 C421 1.392 . S
C420 C423 1.511 . S
C421 C417 1.376 . S
C421 C420 1.392 . S
C421 H433 0.929 . S
C422 C418 1.531 . S
C422 H434 0.960 . S
C422 H435 0.962 . S
C422 H436 0.960 . S
C423 C420 1.511 . S
C423 H437 0.961 . S
C423 H438 0.961 . S
C423 H439 0.961 . S
C424 C425 1.370 . S
C424 C426 1.363 . S
C424 H440 0.931 . S
C425 C424 1.370 . S
C425 C429 1.408 . S
C426 C424 1.363 . S
C426 C427 1.370 . S
C426 C430 1.524 . S
C427 C419 1.503 . S
C427 C426 1.370 . S
C427 C428 1.403 . S
C428 C427 1.403 . S
C428 C429 1.404 . S
C428 C431 1.539 . S
C429 C425 1.408 . S
C429 C428 1.404 . S
C429 H441 0.930 . S
C430 C426 1.524 . S
C430 H442 0.956 . S
C430 H443 0.961 . S
C430 H444 0.961 . S
C431 C428 1.539 . S
C431 H445 0.958 . S
C431 H446 0.961 . S
C431 H447 0.960 . S
H432 C416 0.931 . S
H433 C421 0.929 . S
H434 C422 0.960 . S
H435 C422 0.962 . S
H436 C422 0.960 . S
H437 C423 0.961 . S
H438 C423 0.961 . S
H439 C423 0.961 . S
H440 C424 0.931 . S
H441 C429 0.930 . S
H442 C430 0.956 . S
H443 C430 0.961 . S
H444 C430 0.961 . S
H445 C431 0.958 . S
H446 C431 0.961 . S
H447 C431 0.960 . S
C448 C449 1.391 . S
C448 C450 1.394 . S
C448 H464 0.931 . S
C449 C448 1.391 . S
C449 C453 1.376 . S
C450 C448 1.394 . S
C450 C451 1.369 . S
C450 C454 1.531 . S
C451 C450 1.369 . S
C451 C452 1.410 . S
C451 C459 1.503 . S
C452 C451 1.410 . S
C452 C453 1.392 . S
C452 C455 1.511 . S
C453 C449 1.376 . S
C453 C452 1.392 . S
C453 H465 0.929 . S
C454 C450 1.531 . S
C454 H466 0.960 . S
C454 H467 0.962 . S
C454 H468 0.960 . S
C455 C452 1.511 . S
C455 H469 0.961 . S
C455 H470 0.961 . S
C455 H471 0.961 . S
C456 C457 1.370 . S
C456 C458 1.363 . S
C456 H472 0.931 . S
C457 C456 1.370 . S
C457 C461 1.408 . S
C458 C456 1.363 . S
C458 C459 1.370 . S
C458 C462 1.524 . S
C459 C451 1.503 . S
C459 C458 1.370 . S
C459 C460 1.403 . S
C460 C459 1.403 . S
C460 C461 1.404 . S
C460 C463 1.539 . S
C461 C457 1.408 . S
C461 C460 1.404 . S
C461 H473 0.930 . S
C462 C458 1.524 . S
C462 H474 0.956 . S
C462 H475 0.961 . S
C462 H476 0.961 . S
C463 C460 1.539 . S
C463 H477 0.958 . S
C463 H478 0.961 . S
C463 H479 0.960 . S
H464 C448 0.931 . S
H465 C453 0.929 . S
H466 C454 0.960 . S
H467 C454 0.962 . S
H468 C454 0.960 . S
H469 C455 0.961 . S
H470 C455 0.961 . S
H471 C455 0.961 . S
H472 C456 0.931 . S
H473 C461 0.930 . S
H474 C462 0.956 . S
H475 C462 0.961 . S
H476 C462 0.961 . S
H477 C463 0.958 . S
H478 C463 0.961 . S
H479 C463 0.960 . S
C480 C481 1.391 . S
C480 C482 1.394 . S
C480 H496 0.931 . S
C481 C480 1.391 . S
C481 C485 1.376 . S
C482 C480 1.394 . S
C482 C483 1.369 . S
C482 C486 1.531 . S
C483 C482 1.369 . S
C483 C484 1.410 . S
C483 C491 1.503 . S
C484 C483 1.410 . S
C484 C485 1.392 . S
C484 C487 1.511 . S
C485 C481 1.376 . S
C485 C484 1.392 . S
C485 H497 0.929 . S
C486 C482 1.531 . S
C486 H498 0.960 1_655 S
C486 H499 0.962 . S
C486 H500 0.960 . S
C487 C484 1.511 . S
C487 H501 0.961 . S
C487 H502 0.961 . S
C487 H503 0.961 . S
C488 C489 1.370 . S
C488 C490 1.363 . S
C488 H504 0.931 . S
C489 C488 1.370 . S
C489 C493 1.408 1_655 S
C490 C488 1.363 . S
C490 C491 1.370 . S
C490 C494 1.524 . S
C491 C483 1.503 . S
C491 C490 1.370 . S
C491 C492 1.403 1_655 S
C492 C491 1.403 1_455 S
C492 C493 1.404 . S
C492 C495 1.539 . S
C493 C489 1.408 1_455 S
C493 C492 1.404 . S
C493 H505 0.930 . S
C494 C490 1.524 . S
C494 H506 0.956 . S
C494 H507 0.961 . S
C494 H508 0.961 . S
C495 C492 1.539 . S
C495 H509 0.958 . S
C495 H510 0.961 . S
C495 H511 0.960 . S
H496 C480 0.931 . S
H497 C485 0.929 . S
H498 C486 0.960 1_455 S
H499 C486 0.962 . S
H500 C486 0.960 . S
H501 C487 0.961 . S
H502 C487 0.961 . S
H503 C487 0.961 . S
H504 C488 0.931 . S
H505 C493 0.930 . S
H506 C494 0.956 . S
H507 C494 0.961 . S
H508 C494 0.961 . S
H509 C495 0.958 . S
H510 C495 0.961 . S
H511 C495 0.960 . S
C512 C513 1.391 1_545 S
C512 C514 1.394 . S
C512 H528 0.931 . S
C513 C512 1.391 1_565 S
C513 C517 1.376 . S
C514 C512 1.394 . S
C514 C515 1.369 1_545 S
C514 C518 1.531 . S
C515 C514 1.369 1_565 S
C515 C516 1.410 . S
C515 C523 1.503 . S
C516 C515 1.410 . S
C516 C517 1.392 . S
C516 C519 1.511 . S
C517 C513 1.376 . S
C517 C516 1.392 . S
C517 H529 0.929 . S
C518 C514 1.531 . S
C518 H530 0.960 . S
C518 H531 0.962 . S
C518 H532 0.960 . S
C519 C516 1.511 . S
C519 H533 0.961 . S
C519 H534 0.961 . S
C519 H535 0.961 . S
C520 C521 1.370 1_455 S
C520 C522 1.363 1_455 S
C520 H536 0.931 . S
C521 C520 1.370 1_655 S
C521 C525 1.408 . S
C522 C520 1.363 1_655 S
C522 C523 1.370 . S
C522 C526 1.524 1_655 S
C523 C515 1.503 . S
C523 C522 1.370 . S
C523 C524 1.403 . S
C524 C523 1.403 . S
C524 C525 1.404 . S
C524 C527 1.539 . S
C525 C521 1.408 . S
C525 C524 1.404 . S
C525 H537 0.930 . S
C526 C522 1.524 1_455 S
C526 H538 0.956 . S
C526 H539 0.961 1_455 S
C526 H540 0.961 . S
C527 C524 1.539 . S
C527 H541 0.958 . S
C527 H542 0.961 . S
C527 H543 0.960 . S
H528 C512 0.931 . S
H529 C517 0.929 . S
H530 C518 0.960 . S
H531 C518 0.962 . S
H532 C518 0.960 . S
H533 C519 0.961 . S
H534 C519 0.961 . S
H535 C519 0.961 . S
H536 C520 0.931 . S
H537 C525 0.930 . S
H538 C526 0.956 . S
H539 C526 0.961 1_655 S
H540 C526 0.961 . S
H541 C527 0.958 . S
H542 C527 0.961 . S
H543 C527 0.960 . S
C544 C545 1.391 . S
C544 C546 1.394 . S
C544 H560 0.931 . S
C545 C544 1.391 . S
C545 C549 1.376 1_565 S
C546 C544 1.394 . S
C546 C547 1.369 . S
C546 C550 1.531 . S
C547 C546 1.369 . S
C547 C548 1.410 . S
C547 C555 1.503 . S
C548 C547 1.410 . S
C548 C549 1.392 1_565 S
C548 C551 1.511 1_565 S
C549 C545 1.376 1_545 S
C549 C548 1.392 1_545 S
C549 H561 0.929 . S
C550 C546 1.531 . S
C550 H562 0.960 . S
C550 H563 0.962 . S
C550 H564 0.960 . S
C551 C548 1.511 1_545 S
C551 H565 0.961 . S
C551 H566 0.961 . S
C551 H567 0.961 1_545 S
C552 C553 1.370 . S
C552 C554 1.363 . S
C552 H568 0.931 . S
C553 C552 1.370 . S
C553 C557 1.408 . S
C554 C552 1.363 . S
C554 C555 1.370 . S
C554 C558 1.524 . S
C555 C547 1.503 . S
C555 C554 1.370 . S
C555 C556 1.403 . S
C556 C555 1.403 . S
C556 C557 1.404 . S
C556 C559 1.539 . S
C557 C553 1.408 . S
C557 C556 1.404 . S
C557 H569 0.930 . S
C558 C554 1.524 . S
C558 H570 0.956 . S
C558 H571 0.961 1_565 S
C558 H572 0.961 . S
C559 C556 1.539 . S
C559 H573 0.958 . S
C559 H574 0.961 . S
C559 H575 0.960 . S
H560 C544 0.931 . S
H561 C549 0.929 . S
H562 C550 0.960 . S
H563 C550 0.962 . S
H564 C550 0.960 . S
H565 C551 0.961 . S
H566 C551 0.961 . S
H567 C551 0.961 1_565 S
H568 C552 0.931 . S
H569 C557 0.930 . S
H570 C558 0.956 . S
H571 C558 0.961 1_545 S
H572 C558 0.961 . S
H573 C559 0.958 . S
H574 C559 0.961 . S
H575 C559 0.960 . S
C576 C577 1.391 . S
C576 C578 1.394 . S
C576 H592 0.931 . S
C577 C576 1.391 . S
C577 C581 1.376 . S
C578 C576 1.394 . S
C578 C579 1.369 . S
C578 C582 1.531 . S
C579 C578 1.369 . S
C579 C580 1.410 . S
C579 C587 1.503 . S
C580 C579 1.410 . S
C580 C581 1.392 . S
C580 C583 1.511 . S
C581 C577 1.376 . S
C581 C580 1.392 . S
C581 H593 0.929 . S
C582 C578 1.531 . S
C582 H594 0.960 . S
C582 H595 0.962 . S
C582 H596 0.960 . S
C583 C580 1.511 . S
C583 H597 0.961 . S
C583 H598 0.961 . S
C583 H599 0.961 . S
C584 C585 1.370 . S
C584 C586 1.363 . S
C584 H600 0.931 . S
C585 C584 1.370 . S
C585 C589 1.408 . S
C586 C584 1.363 . S
C586 C587 1.370 . S
C586 C590 1.524 . S
C587 C579 1.503 . S
C587 C586 1.370 . S
C587 C588 1.403 . S
C588 C587 1.403 . S
C588 C589 1.404 . S
C588 C591 1.539 . S
C589 C585 1.408 . S
C589 C588 1.404 . S
C589 H601 0.930 . S
C590 C586 1.524 . S
C590 H602 0.956 . S
C590 H603 0.961 . S
C590 H604 0.961 . S
C591 C588 1.539 . S
C591 H605 0.958 . S
C591 H606 0.961 . S
C591 H607 0.960 . S
H592 C576 0.931 . S
H593 C581 0.929 . S
H594 C582 0.960 . S
H595 C582 0.962 . S
H596 C582 0.960 . S
H597 C583 0.961 . S
H598 C583 0.961 . S
H599 C583 0.961 . S
H600 C584 0.931 . S
H601 C589 0.930 . S
H602 C590 0.956 . S
H603 C590 0.961 . S
H604 C590 0.961 . S
H605 C591 0.958 . S
H606 C591 0.961 . S
H607 C591 0.960 . S
C608 C609 1.391 . S
C608 C610 1.394 . S
C608 H624 0.931 . S
C609 C608 1.391 . S
C609 C613 1.376 . S
C610 C608 1.394 . S
C610 C611 1.369 . S
C610 C614 1.531 . S
C611 C610 1.369 . S
C611 C612 1.410 . S
C611 C619 1.503 . S
C612 C611 1.410 . S
C612 C613 1.392 . S
C612 C615 1.511 1_455 S
C613 C609 1.376 . S
C613 C612 1.392 . S
C613 H625 0.929 . S
C614 C610 1.531 . S
C614 H626 0.960 . S
C614 H627 0.962 . S
C614 H628 0.960 . S
C615 C612 1.511 1_655 S
C615 H629 0.961 . S
C615 H630 0.961 . S
C615 H631 0.961 . S
C616 C617 1.370 . S
C616 C618 1.363 . S
C616 H632 0.931 . S
C617 C616 1.370 . S
C617 C621 1.408 1_455 S
C618 C616 1.363 . S
C618 C619 1.370 . S
C618 C622 1.524 . S
C619 C611 1.503 . S
C619 C618 1.370 . S
C619 C620 1.403 . S
C620 C619 1.403 . S
C620 C621 1.404 1_455 S
C620 C623 1.539 1_455 S
C621 C617 1.408 1_655 S
C621 C620 1.404 1_655 S
C621 H633 0.930 . S
C622 C618 1.524 . S
C622 H634 0.956 . S
C622 H635 0.961 . S
C622 H636 0.961 . S
C623 C620 1.539 1_655 S
C623 H637 0.958 1_655 S
C623 H638 0.961 . S
C623 H639 0.960 . S
H624 C608 0.931 . S
H625 C613 0.929 . S
H626 C614 0.960 . S
H627 C614 0.962 . S
H628 C614 0.960 . S
H629 C615 0.961 . S
H630 C615 0.961 . S
H631 C615 0.961 . S
H632 C616 0.931 . S
H633 C621 0.930 . S
H634 C622 0.956 . S
H635 C622 0.961 . S
H636 C622 0.961 . S
H637 C623 0.958 1_455 S
H638 C623 0.961 . S
H639 C623 0.960 . S
C640 C641 1.391 . S
C640 C642 1.394 . S
C640 H656 0.931 . S
C641 C640 1.391 . S
C641 C645 1.376 . S
C642 C640 1.394 . S
C642 C643 1.369 . S
C642 C646 1.531 . S
C643 C642 1.369 . S
C643 C644 1.410 . S
C643 C651 1.503 . S
C644 C643 1.410 . S
C644 C645 1.392 . S
C644 C647 1.511 1_455 S
C645 C641 1.376 . S
C645 C644 1.392 . S
C645 H657 0.929 1_545 S
C646 C642 1.531 . S
C646 H658 0.960 . S
C646 H659 0.962 . S
C646 H660 0.960 . S
C647 C644 1.511 1_655 S
C647 H661 0.961 . S
C647 H662 0.961 . S
C647 H663 0.961 1_545 S
C648 C649 1.370 . S
C648 C650 1.363 . S
C648 H664 0.931 . S
C649 C648 1.370 . S
C649 C653 1.408 . S
C650 C648 1.363 . S
C650 C651 1.370 . S
C650 C654 1.524 . S
C651 C643 1.503 . S
C651 C650 1.370 . S
C651 C652 1.403 . S
C652 C651 1.403 . S
C652 C653 1.404 . S
C652 C655 1.539 1_545 S
C653 C649 1.408 . S
C653 C652 1.404 . S
C653 H665 0.930 . S
C654 C650 1.524 . S
C654 H666 0.956 . S
C654 H667 0.961 . S
C654 H668 0.961 . S
C655 C652 1.539 1_565 S
C655 H669 0.958 . S
C655 H670 0.961 . S
C655 H671 0.960 . S
H656 C640 0.931 . S
H657 C645 0.929 1_565 S
H658 C646 0.960 . S
H659 C646 0.962 . S
H660 C646 0.960 . S
H661 C647 0.961 . S
H662 C647 0.961 . S
H663 C647 0.961 1_565 S
H664 C648 0.931 . S
H665 C653 0.930 . S
H666 C654 0.956 . S
H667 C654 0.961 . S
H668 C654 0.961 . S
H669 C655 0.958 . S
H670 C655 0.961 . S
H671 C655 0.960 . S
C672 C673 1.391 . S
C672 C674 1.394 . S
C672 H688 0.931 . S
C673 C672 1.391 . S
C673 C677 1.376 . S
C674 C672 1.394 . S
C674 C675 1.369 . S
C674 C678 1.531 1_545 S
C675 C674 1.369 . S
C675 C676 1.410 . S
C675 C683 1.503 . S
C676 C675 1.410 . S
C676 C677 1.392 . S
C676 C679 1.511 . S
C677 C673 1.376 . S
C677 C676 1.392 . S
C677 H689 0.929 . S
C678 C674 1.531 1_565 S
C678 H690 0.960 . S
C678 H691 0.962 . S
C678 H692 0.960 . S
C679 C676 1.511 . S
C679 H693 0.961 . S
C679 H694 0.961 . S
C679 H695 0.961 . S
C680 C681 1.370 . S
C680 C682 1.363 . S
C680 H696 0.931 . S
C681 C680 1.370 . S
C681 C685 1.408 . S
C682 C680 1.363 . S
C682 C683 1.370 . S
C682 C686 1.524 . S
C683 C675 1.503 . S
C683 C682 1.370 . S
C683 C684 1.403 . S
C684 C683 1.403 . S
C684 C685 1.404 . S
C684 C687 1.539 . S
C685 C681 1.408 . S
C685 C684 1.404 . S
C685 H697 0.930 1_545 S
C686 C682 1.524 . S
C686 H698 0.956 . S
C686 H699 0.961 . S
C686 H700 0.961 . S
C687 C684 1.539 . S
C687 H701 0.958 1_545 S
C687 H702 0.961 . S
C687 H703 0.960 . S
H688 C672 0.931 . S
H689 C677 0.929 . S
H690 C678 0.960 . S
H691 C678 0.962 . S
H692 C678 0.960 . S
H693 C679 0.961 . S
H694 C679 0.961 . S
H695 C679 0.961 . S
H696 C680 0.931 . S
H697 C685 0.930 1_565 S
H698 C686 0.956 . S
H699 C686 0.961 . S
H700 C686 0.961 . S
H701 C687 0.958 1_565 S
H702 C687 0.961 . S
H703 C687 0.960 . S
C704 C705 1.391 . S
C704 C706 1.394 . S
C704 H720 0.931 . S
C705 C704 1.391 . S
C705 C709 1.376 . S
C706 C704 1.394 . S
C706 C707 1.369 . S
C706 C710 1.531 . S
C707 C706 1.369 . S
C707 C708 1.410 . S
C707 C715 1.503 . S
C708 C707 1.410 . S
C708 C709 1.392 . S
C708 C711 1.511 . S
C709 C705 1.376 . S
C709 C708 1.392 . S
C709 H721 0.929 . S
C710 C706 1.531 . S
C710 H722 0.960 . S
C710 H723 0.962 . S
C710 H724 0.960 . S
C711 C708 1.511 . S
C711 H725 0.961 . S
C711 H726 0.961 . S
C711 H727 0.961 . S
C712 C713 1.370 . S
C712 C714 1.363 . S
C712 H728 0.931 . S
C713 C712 1.370 . S
C713 C717 1.408 . S
C714 C712 1.363 . S
C714 C715 1.370 . S
C714 C718 1.524 . S
C715 C707 1.503 . S
C715 C714 1.370 . S
C715 C716 1.403 . S
C716 C715 1.403 . S
C716 C717 1.404 . S
C716 C719 1.539 . S
C717 C713 1.408 . S
C717 C716 1.404 . S
C717 H729 0.930 . S
C718 C714 1.524 . S
C718 H730 0.956 . S
C718 H731 0.961 . S
C718 H732 0.961 . S
C719 C716 1.539 . S
C719 H733 0.958 . S
C719 H734 0.961 . S
C719 H735 0.960 . S
H720 C704 0.931 . S
H721 C709 0.929 . S
H722 C710 0.960 . S
H723 C710 0.962 . S
H724 C710 0.960 . S
H725 C711 0.961 . S
H726 C711 0.961 . S
H727 C711 0.961 . S
H728 C712 0.931 . S
H729 C717 0.930 . S
H730 C718 0.956 . S
H731 C718 0.961 . S
H732 C718 0.961 . S
H733 C719 0.958 . S
H734 C719 0.961 . S
H735 C719 0.960 . S
C736 C737 1.391 . S
C736 C738 1.394 . S
C736 H752 0.931 . S
C737 C736 1.391 . S
C737 C741 1.376 . S
C738 C736 1.394 . S
C738 C739 1.369 . S
C738 C742 1.531 . S
C739 C738 1.369 . S
C739 C740 1.410 . S
C739 C747 1.503 . S
C740 C739 1.410 . S
C740 C741 1.392 . S
C740 C743 1.511 . S
C741 C737 1.376 . S
C741 C740 1.392 . S
C741 H753 0.929 . S
C742 C738 1.531 . S
C742 H754 0.960 . S
C742 H755 0.962 . S
C742 H756 0.960 . S
C743 C740 1.511 . S
C743 H757 0.961 . S
C743 H758 0.961 . S
C743 H759 0.961 . S
C744 C745 1.370 . S
C744 C746 1.363 . S
C744 H760 0.931 . S
C745 C744 1.370 . S
C745 C749 1.408 . S
C746 C744 1.363 . S
C746 C747 1.370 . S
C746 C750 1.524 . S
C747 C739 1.503 . S
C747 C746 1.370 . S
C747 C748 1.403 . S
C748 C747 1.403 . S
C748 C749 1.404 . S
C748 C751 1.539 . S
C749 C745 1.408 . S
C749 C748 1.404 . S
C749 H761 0.930 . S
C750 C746 1.524 . S
C750 H762 0.956 . S
C750 H763 0.961 . S
C750 H764 0.961 . S
C751 C748 1.539 . S
C751 H765 0.958 . S
C751 H766 0.961 . S
C751 H767 0.960 . S
H752 C736 0.931 . S
H753 C741 0.929 . S
H754 C742 0.960 . S
H755 C742 0.962 . S
H756 C742 0.960 . S
H757 C743 0.961 . S
H758 C743 0.961 . S
H759 C743 0.961 . S
H760 C744 0.931 . S
H761 C749 0.930 . S
H762 C750 0.956 . S
H763 C750 0.961 . S
H764 C750 0.961 . S
H765 C751 0.958 . S
H766 C751 0.961 . S
H767 C751 0.960 . S
C768 C769 1.391 . S
C768 C770 1.394 . S
C768 H784 0.931 . S
C769 C768 1.391 . S
C769 C773 1.376 . S
C770 C768 1.394 . S
C770 C771 1.369 . S
C770 C774 1.531 . S
C771 C770 1.369 . S
C771 C772 1.410 . S
C771 C779 1.503 . S
C772 C771 1.410 . S
C772 C773 1.392 . S
C772 C775 1.511 . S
C773 C769 1.376 . S
C773 C772 1.392 . S
C773 H785 0.929 . S
C774 C770 1.531 . S
C774 H786 0.960 . S
C774 H787 0.962 . S
C774 H788 0.960 . S
C775 C772 1.511 . S
C775 H789 0.961 . S
C775 H790 0.961 . S
C775 H791 0.961 . S
C776 C777 1.370 . S
C776 C778 1.363 . S
C776 H792 0.931 . S
C777 C776 1.370 . S
C777 C781 1.408 . S
C778 C776 1.363 . S
C778 C779 1.370 . S
C778 C782 1.524 . S
C779 C771 1.503 . S
C779 C778 1.370 . S
C779 C780 1.403 . S
C780 C779 1.403 . S
C780 C781 1.404 . S
C780 C783 1.539 . S
C781 C777 1.408 . S
C781 C780 1.404 . S
C781 H793 0.930 . S
C782 C778 1.524 . S
C782 H794 0.956 . S
C782 H795 0.961 . S
C782 H796 0.961 . S
C783 C780 1.539 . S
C783 H797 0.958 . S
C783 H798 0.961 . S
C783 H799 0.960 . S
H784 C768 0.931 . S
H785 C773 0.929 . S
H786 C774 0.960 . S
H787 C774 0.962 . S
H788 C774 0.960 . S
H789 C775 0.961 . S
H790 C775 0.961 . S
H791 C775 0.961 . S
H792 C776 0.931 . S
H793 C781 0.930 . S
H794 C782 0.956 . S
H795 C782 0.961 . S
H796 C782 0.961 . S
H797 C783 0.958 . S
H798 C783 0.961 . S
H799 C783 0.960 . S
C800 C801 1.391 . S
C800 C802 1.394 . S
C800 H816 0.931 . S
C801 C800 1.391 . S
C801 C805 1.376 . S
C802 C800 1.394 . S
C802 C803 1.369 . S
C802 C806 1.531 . S
C803 C802 1.369 . S
C803 C804 1.410 . S
C803 C811 1.503 . S
C804 C803 1.410 . S
C804 C805 1.392 . S
C804 C807 1.511 . S
C805 C801 1.376 . S
C805 C804 1.392 . S
C805 H817 0.929 . S
C806 C802 1.531 . S
C806 H818 0.960 . S
C806 H819 0.962 . S
C806 H820 0.960 . S
C807 C804 1.511 . S
C807 H821 0.961 . S
C807 H822 0.961 . S
C807 H823 0.961 . S
C808 C809 1.370 . S
C808 C810 1.363 . S
C808 H824 0.931 . S
C809 C808 1.370 . S
C809 C813 1.408 . S
C810 C808 1.363 . S
C810 C811 1.370 . S
C810 C814 1.524 . S
C811 C803 1.503 . S
C811 C810 1.370 . S
C811 C812 1.403 . S
C812 C811 1.403 . S
C812 C813 1.404 . S
C812 C815 1.539 . S
C813 C809 1.408 . S
C813 C812 1.404 . S
C813 H825 0.930 . S
C814 C810 1.524 . S
C814 H826 0.956 . S
C814 H827 0.961 . S
C814 H828 0.961 . S
C815 C812 1.539 . S
C815 H829 0.958 . S
C815 H830 0.961 . S
C815 H831 0.960 . S
H816 C800 0.931 . S
H817 C805 0.929 . S
H818 C806 0.960 . S
H819 C806 0.962 . S
H820 C806 0.960 . S
H821 C807 0.961 . S
H822 C807 0.961 . S
H823 C807 0.961 . S
H824 C808 0.931 . S
H825 C813 0.930 . S
H826 C814 0.956 . S
H827 C814 0.961 . S
H828 C814 0.961 . S
H829 C815 0.958 . S
H830 C815 0.961 . S
H831 C815 0.960 . S
C832 C833 1.391 . S
C832 C834 1.394 . S
C832 H848 0.931 . S
C833 C832 1.391 . S
C833 C837 1.376 . S
C834 C832 1.394 . S
C834 C835 1.369 . S
C834 C838 1.531 . S
C835 C834 1.369 . S
C835 C836 1.410 . S
C835 C843 1.503 . S
C836 C835 1.410 . S
C836 C837 1.392 . S
C836 C839 1.511 . S
C837 C833 1.376 . S
C837 C836 1.392 . S
C837 H849 0.929 . S
C838 C834 1.531 . S
C838 H850 0.960 . S
C838 H851 0.962 . S
C838 H852 0.960 . S
C839 C836 1.511 . S
C839 H853 0.961 . S
C839 H854 0.961 . S
C839 H855 0.961 . S
C840 C841 1.370 . S
C840 C842 1.363 . S
C840 H856 0.931 . S
C841 C840 1.370 . S
C841 C845 1.408 . S
C842 C840 1.363 . S
C842 C843 1.370 . S
C842 C846 1.524 . S
C843 C835 1.503 . S
C843 C842 1.370 . S
C843 C844 1.403 . S
C844 C843 1.403 . S
C844 C845 1.404 . S
C844 C847 1.539 . S
C845 C841 1.408 . S
C845 C844 1.404 . S
C845 H857 0.930 . S
C846 C842 1.524 . S
C846 H858 0.956 . S
C846 H859 0.961 . S
C846 H860 0.961 . S
C847 C844 1.539 . S
C847 H861 0.958 . S
C847 H862 0.961 . S
C847 H863 0.960 . S
H848 C832 0.931 . S
H849 C837 0.929 . S
H850 C838 0.960 . S
H851 C838 0.962 . S
H852 C838 0.960 . S
H853 C839 0.961 . S
H854 C839 0.961 . S
H855 C839 0.961 . S
H856 C840 0.931 . S
H857 C845 0.930 . S
H858 C846 0.956 . S
H859 C846 0.961 . S
H860 C846 0.961 . S
H861 C847 0.958 . S
H862 C847 0.961 . S
H863 C847 0.960 . S
C864 C865 1.391 . S
C864 C866 1.394 . S
C864 H880 0.931 . S
C865 C864 1.391 . S
C865 C869 1.376 . S
C866 C864 1.394 . S
C866 C867 1.369 . S
C866 C870 1.531 . S
C867 C866 1.369 . S
C867 C868 1.410 . S
C867 C875 1.503 . S
C868 C867 1.410 . S
C868 C869 1.392 . S
C868 C871 1.511 . S
C869 C865 1.376 . S
C869 C868 1.392 . S
C869 H881 0.929 . S
C870 C866 1.531 . S
C870 H882 0.960 . S
C870 H883 0.962 . S
C870 H884 0.960 . S
C871 C868 1.511 . S
C871 H885 0.961 . S
C871 H886 0.961 . S
C871 H887 0.961 . S
C872 C873 1.370 . S
C872 C874 1.363 . S
C872 H888 0.931 . S
C873 C872 1.370 . S
C873 C877 1.408 . S
C874 C872 1.363 . S
C874 C875 1.370 . S
C874 C878 1.524 . S
C875 C867 1.503 . S
C875 C874 1.370 . S
C875 C876 1.403 . S
C876 C875 1.403 . S
C876 C877 1.404 . S
C876 C879 1.539 . S
C877 C873 1.408 . S
C877 C876 1.404 . S
C877 H889 0.930 . S
C878 C874 1.524 . S
C878 H890 0.956 . S
C878 H891 0.961 . S
C878 H892 0.961 . S
C879 C876 1.539 . S
C879 H893 0.958 . S
C879 H894 0.961 . S
C879 H895 0.960 . S
H880 C864 0.931 . S
H881 C869 0.929 . S
H882 C870 0.960 . S
H883 C870 0.962 . S
H884 C870 0.960 . S
H885 C871 0.961 . S
H886 C871 0.961 . S
H887 C871 0.961 . S
H888 C872 0.931 . S
H889 C877 0.930 . S
H890 C878 0.956 . S
H891 C878 0.961 . S
H892 C878 0.961 . S
H893 C879 0.958 . S
H894 C879 0.961 . S
H895 C879 0.960 . S
C896 C897 1.391 . S
C896 C898 1.394 . S
C896 H912 0.931 . S
C897 C896 1.391 . S
C897 C901 1.376 . S
C898 C896 1.394 . S
C898 C899 1.369 . S
C898 C902 1.531 . S
C899 C898 1.369 . S
C899 C900 1.410 . S
C899 C907 1.503 . S
C900 C899 1.410 . S
C900 C901 1.392 . S
C900 C903 1.511 . S
C901 C897 1.376 . S
C901 C900 1.392 . S
C901 H913 0.929 . S
C902 C898 1.531 . S
C902 H914 0.960 . S
C902 H915 0.962 . S
C902 H916 0.960 . S
C903 C900 1.511 . S
C903 H917 0.961 . S
C903 H918 0.961 . S
C903 H919 0.961 . S
C904 C905 1.370 . S
C904 C906 1.363 . S
C904 H920 0.931 . S
C905 C904 1.370 . S
C905 C909 1.408 . S
C906 C904 1.363 . S
C906 C907 1.370 . S
C906 C910 1.524 . S
C907 C899 1.503 . S
C907 C906 1.370 . S
C907 C908 1.403 . S
C908 C907 1.403 . S
C908 C909 1.404 . S
C908 C911 1.539 . S
C909 C905 1.408 . S
C909 C908 1.404 . S
C909 H921 0.930 . S
C910 C906 1.524 . S
C910 H922 0.956 . S
C910 H923 0.961 . S
C910 H924 0.961 . S
C911 C908 1.539 . S
C911 H925 0.958 . S
C911 H926 0.961 . S
C911 H927 0.960 . S
H912 C896 0.931 . S
H913 C901 0.929 . S
H914 C902 0.960 . S
H915 C902 0.962 . S
H916 C902 0.960 . S
H917 C903 0.961 . S
H918 C903 0.961 . S
H919 C903 0.961 . S
H920 C904 0.931 . S
H921 C909 0.930 . S
H922 C910 0.956 . S
H923 C910 0.961 . S
H924 C910 0.961 . S
H925 C911 0.958 . S
H926 C911 0.961 . S
H927 C911 0.960 . S
C928 C929 1.391 . S
C928 C930 1.394 . S
C928 H944 0.931 . S
C929 C928 1.391 . S
C929 C933 1.376 . S
C930 C928 1.394 . S
C930 C931 1.369 . S
C930 C934 1.531 . S
C931 C930 1.369 . S
C931 C932 1.410 . S
C931 C939 1.503 . S
C932 C931 1.410 . S
C932 C933 1.392 . S
C932 C935 1.511 . S
C933 C929 1.376 . S
C933 C932 1.392 . S
C933 H945 0.929 . S
C934 C930 1.531 . S
C934 H946 0.960 . S
C934 H947 0.962 . S
C934 H948 0.960 . S
C935 C932 1.511 . S
C935 H949 0.961 . S
C935 H950 0.961 . S
C935 H951 0.961 . S
C936 C937 1.370 . S
C936 C938 1.363 . S
C936 H952 0.931 . S
C937 C936 1.370 . S
C937 C941 1.408 . S
C938 C936 1.363 . S
C938 C939 1.370 . S
C938 C942 1.524 . S
C939 C931 1.503 . S
C939 C938 1.370 . S
C939 C940 1.403 . S
C940 C939 1.403 . S
C940 C941 1.404 . S
C940 C943 1.539 . S
C941 C937 1.408 . S
C941 C940 1.404 . S
C941 H953 0.930 . S
C942 C938 1.524 . S
C942 H954 0.956 . S
C942 H955 0.961 . S
C942 H956 0.961 . S
C943 C940 1.539 . S
C943 H957 0.958 . S
C943 H958 0.961 . S
C943 H959 0.960 . S
H944 C928 0.931 . S
H945 C933 0.929 . S
H946 C934 0.960 . S
H947 C934 0.962 . S
H948 C934 0.960 . S
H949 C935 0.961 . S
H950 C935 0.961 . S
H951 C935 0.961 . S
H952 C936 0.931 . S
H953 C941 0.930 . S
H954 C942 0.956 . S
H955 C942 0.961 . S
H956 C942 0.961 . S
H957 C943 0.958 . S
H958 C943 0.961 . S
H959 C943 0.960 . S
C960 C961 1.391 . S
C960 C962 1.394 . S
C960 H976 0.931 . S
C961 C960 1.391 . S
C961 C965 1.376 . S
C962 C960 1.394 . S
C962 C963 1.369 . S
C962 C966 1.531 . S
C963 C962 1.369 . S
C963 C964 1.410 . S
C963 C971 1.503 . S
C964 C963 1.410 . S
C964 C965 1.392 . S
C964 C967 1.511 . S
C965 C961 1.376 . S
C965 C964 1.392 . S
C965 H977 0.929 . S
C966 C962 1.531 . S
C966 H978 0.960 . S
C966 H979 0.962 . S
C966 H980 0.960 . S
C967 C964 1.511 . S
C967 H981 0.961 . S
C967 H982 0.961 . S
C967 H983 0.961 . S
C968 C969 1.370 . S
C968 C970 1.363 . S
C968 H984 0.931 . S
C969 C968 1.370 . S
C969 C973 1.408 . S
C970 C968 1.363 . S
C970 C971 1.370 . S
C970 C974 1.524 . S
C971 C963 1.503 . S
C971 C970 1.370 . S
C971 C972 1.403 . S
C972 C971 1.403 . S
C972 C973 1.404 . S
C972 C975 1.539 . S
C973 C969 1.408 . S
C973 C972 1.404 . S
C973 H985 0.930 . S
C974 C970 1.524 . S
C974 H986 0.956 . S
C974 H987 0.961 . S
C974 H988 0.961 . S
C975 C972 1.539 . S
C975 H989 0.958 . S
C975 H990 0.961 . S
C975 H991 0.960 . S
H976 C960 0.931 . S
H977 C965 0.929 . S
H978 C966 0.960 . S
H979 C966 0.962 . S
H980 C966 0.960 . S
H981 C967 0.961 . S
H982 C967 0.961 . S
H983 C967 0.961 . S
H984 C968 0.931 . S
H985 C973 0.930 . S
H986 C974 0.956 . S
H987 C974 0.961 . S
H988 C974 0.961 . S
H989 C975 0.958 . S
H990 C975 0.961 . S
H991 C975 0.960 . S
C992 C993 1.391 . S
C992 C994 1.394 1_455 S
C992 H1008 0.931 1_455 S
C993 C992 1.391 . S
C993 C997 1.376 . S
C994 C992 1.394 1_655 S
C994 C995 1.369 1_655 S
C994 C998 1.531 . S
C995 C994 1.369 1_455 S
C995 C996 1.410 . S
C995 C1003 1.503 1_454 S
C996 C995 1.410 . S
C996 C997 1.392 . S
C996 C999 1.511 1_554 S
C997 C993 1.376 . S
C997 C996 1.392 . S
C997 H1009 0.929 . S
C998 C994 1.531 . S
C998 H1010 0.960 1_554 S
C998 H1011 0.962 . S
C998 H1012 0.960 . S
C999 C996 1.511 1_556 S
C999 H1013 0.961 . S
C999 H1014 0.961 . S
C999 H1015 0.961 . S
C1000 C1001 1.370 . S
C1000 C1002 1.363 . S
C1000 H1016 0.931 . S
C1001 C1000 1.370 . S
C1001 C1005 1.408 . S
C1002 C1000 1.363 . S
C1002 C1003 1.370 . S
C1002 C1006 1.524 1_556 S
C1003 C995 1.503 1_656 S
C1003 C1002 1.370 . S
C1003 C1004 1.403 . S
C1004 C1003 1.403 . S
C1004 C1005 1.404 . S
C1004 C1007 1.539 . S
C1005 C1001 1.408 . S
C1005 C1004 1.404 . S
C1005 H1017 0.930 . S
C1006 C1002 1.524 1_554 S
C1006 H1018 0.956 . S
C1006 H1019 0.961 1_655 S
C1006 H1020 0.961 . S
C1007 C1004 1.539 . S
C1007 H1021 0.958 . S
C1007 H1022 0.962 . S
C1007 H1023 0.960 1_655 S
H1008 C992 0.931 1_655 S
H1009 C997 0.929 . S
H1010 C998 0.960 1_556 S
H1011 C998 0.962 . S
H1012 C998 0.960 . S
H1013 C999 0.961 . S
H1014 C999 0.961 . S
H1015 C999 0.961 . S
H1016 C1000 0.931 . S
H1017 C1005 0.930 . S
H1018 C1006 0.956 . S
H1019 C1006 0.961 1_455 S
H1020 C1006 0.961 . S
H1021 C1007 0.958 . S
H1022 C1007 0.962 . S
H1023 C1007 0.960 1_455 S
C1024 C1025 1.391 . S
C1024 C1026 1.394 . S
C1024 H1040 0.931 . S
C1025 C1024 1.391 . S
C1025 C1029 1.376 . S
C1026 C1024 1.394 . S
C1026 C1027 1.369 . S
C1026 C1030 1.531 1_455 S
C1027 C1026 1.369 . S
C1027 C1028 1.410 1_556 S
C1027 C1035 1.503 1_466 S
C1028 C1027 1.410 1_554 S
C1028 C1029 1.392 1_554 S
C1028 C1031 1.511 . S
C1029 C1025 1.376 . S
C1029 C1028 1.392 1_556 S
C1029 H1041 0.929 . S
C1030 C1026 1.531 1_655 S
C1030 H1042 0.960 . S
C1030 H1043 0.962 1_565 S
C1030 H1044 0.960 . S
C1031 C1028 1.511 . S
C1031 H1045 0.961 . S
C1031 H1046 0.961 . S
C1031 H1047 0.961 . S
C1032 C1033 1.370 . S
C1032 C1034 1.363 . S
C1032 H1048 0.931 . S
C1033 C1032 1.370 . S
C1033 C1037 1.408 . S
C1034 C1032 1.363 . S
C1034 C1035 1.370 . S
C1034 C1038 1.524 1_654 S
C1035 C1027 1.503 1_644 S
C1035 C1034 1.370 . S
C1035 C1036 1.403 1_545 S
C1036 C1035 1.403 1_565 S
C1036 C1037 1.404 1_565 S
C1036 C1039 1.539 . S
C1037 C1033 1.408 . S
C1037 C1036 1.404 1_545 S
C1037 H1049 0.930 1_545 S
C1038 C1034 1.524 1_456 S
C1038 H1050 0.956 . S
C1038 H1051 0.961 1_556 S
C1038 H1052 0.961 1_556 S
C1039 C1036 1.539 . S
C1039 H1053 0.958 . S
C1039 H1054 0.961 . S
C1039 H1055 0.960 . S
H1040 C1024 0.931 . S
H1041 C1029 0.929 . S
H1042 C1030 0.960 . S
H1043 C1030 0.962 1_545 S
H1044 C1030 0.960 . S
H1045 C1031 0.961 . S
H1046 C1031 0.961 . S
H1047 C1031 0.961 . S
H1048 C1032 0.931 . S
H1049 C1037 0.930 1_565 S
H1050 C1038 0.956 . S
H1051 C1038 0.961 1_554 S
H1052 C1038 0.961 1_554 S
H1053 C1039 0.958 . S
H1054 C1039 0.961 . S
H1055 C1039 0.960 . S
C1056 C1057 1.391 . S
C1056 C1058 1.394 . S
C1056 H1072 0.931 . S
C1057 C1056 1.391 . S
C1057 C1061 1.376 . S
C1058 C1056 1.394 . S
C1058 C1059 1.369 . S
C1058 C1062 1.530 1_565 S
C1059 C1058 1.369 . S
C1059 C1060 1.410 . S
C1059 C1067 1.503 1_564 S
C1060 C1059 1.410 . S
C1060 C1061 1.392 . S
C1060 C1063 1.511 1_554 S
C1061 C1057 1.376 . S
C1061 C1060 1.392 . S
C1061 H1073 0.929 . S
C1062 C1058 1.530 1_545 S
C1062 H1074 0.960 . S
C1062 H1075 0.962 . S
C1062 H1076 0.960 . S
C1063 C1060 1.511 1_556 S
C1063 H1077 0.961 . S
C1063 H1078 0.961 . S
C1063 H1079 0.961 1_556 S
C1064 C1065 1.370 . S
C1064 C1066 1.363 . S
C1064 H1080 0.931 . S
C1065 C1064 1.370 . S
C1065 C1069 1.408 . S
C1066 C1064 1.363 . S
C1066 C1067 1.370 . S
C1066 C1070 1.524 1_545 S
C1067 C1059 1.503 1_546 S
C1067 C1066 1.370 . S
C1067 C1068 1.403 1_556 S
C1068 C1067 1.403 1_554 S
C1068 C1069 1.404 1_554 S
C1068 C1071 1.539 . S
C1069 C1065 1.408 . S
C1069 C1068 1.404 1_556 S
C1069 H1081 0.930 . S
C1070 C1066 1.524 1_565 S
C1070 H1082 0.956 1_565 S
C1070 H1083 0.961 . S
C1070 H1084 0.961 1_565 S
C1071 C1068 1.539 . S
C1071 H1085 0.958 . S
C1071 H1086 0.961 . S
C1071 H1087 0.960 . S
H1072 C1056 0.931 . S
H1073 C1061 0.929 . S
H1074 C1062 0.960 . S
H1075 C1062 0.962 . S
H1076 C1062 0.960 . S
H1077 C1063 0.961 . S
H1078 C1063 0.961 . S
H1079 C1063 0.961 1_554 S
H1080 C1064 0.931 . S
H1081 C1069 0.930 . S
H1082 C1070 0.956 1_545 S
H1083 C1070 0.961 . S
H1084 C1070 0.961 1_545 S
H1085 C1071 0.958 . S
H1086 C1071 0.961 . S
H1087 C1071 0.960 . S
C1088 C1089 1.391 . S
C1088 C1090 1.392 1_556 S
C1088 H1104 0.931 . S
C1089 C1088 1.391 . S
C1089 C1093 1.376 . S
C1090 C1088 1.392 1_554 S
C1090 C1091 1.368 1_554 S
C1090 C1094 1.533 . S
C1091 C1090 1.368 1_556 S
C1091 C1092 1.410 . S
C1091 C1099 1.503 1_556 S
C1092 C1091 1.410 . S
C1092 C1093 1.392 . S
C1092 C1095 1.511 . S
C1093 C1089 1.376 . S
C1093 C1092 1.392 . S
C1093 H1105 0.929 . S
C1094 C1090 1.533 . S
C1094 H1106 0.960 . S
C1094 H1107 0.962 . S
C1094 H1108 0.960 . S
C1095 C1092 1.511 . S
C1095 H1109 0.961 . S
C1095 H1110 0.961 . S
C1095 H1111 0.961 . S
C1096 C1097 1.370 . S
C1096 C1098 1.363 . S
C1096 H1112 0.931 . S
C1097 C1096 1.370 . S
C1097 C1101 1.408 . S
C1098 C1096 1.363 . S
C1098 C1099 1.370 . S
C1098 C1102 1.524 . S
C1099 C1091 1.503 1_554 S
C1099 C1098 1.370 . S
C1099 C1100 1.403 . S
C1100 C1099 1.403 . S
C1100 C1101 1.404 . S
C1100 C1103 1.539 1_554 S
C1101 C1097 1.408 . S
C1101 C1100 1.404 . S
C1101 H1113 0.930 . S
C1102 C1098 1.524 . S
C1102 H1114 0.956 . S
C1102 H1115 0.961 1_554 S
C1102 H1116 0.961 . S
C1103 C1100 1.539 1_556 S
C1103 H1117 0.958 1_556 S
C1103 H1118 0.961 . S
C1103 H1119 0.960 . S
H1104 C1088 0.931 . S
H1105 C1093 0.929 . S
H1106 C1094 0.960 . S
H1107 C1094 0.962 . S
H1108 C1094 0.960 . S
H1109 C1095 0.961 . S
H1110 C1095 0.961 . S
H1111 C1095 0.961 . S
H1112 C1096 0.931 . S
H1113 C1101 0.930 . S
H1114 C1102 0.956 . S
H1115 C1102 0.961 1_556 S
H1116 C1102 0.961 . S
H1117 C1103 0.958 1_554 S
H1118 C1103 0.961 . S
H1119 C1103 0.960 . S
C1120 C1121 1.391 . S
C1120 C1122 1.394 1_455 S
C1120 H1136 0.931 1_455 S
C1121 C1120 1.391 . S
C1121 C1125 1.376 . S
C1122 C1120 1.394 1_655 S
C1122 C1123 1.369 1_655 S
C1122 C1126 1.531 . S
C1123 C1122 1.369 1_455 S
C1123 C1124 1.410 . S
C1123 C1131 1.503 1_465 S
C1124 C1123 1.410 . S
C1124 C1125 1.392 . S
C1124 C1127 1.511 . S
C1125 C1121 1.376 . S
C1125 C1124 1.392 . S
C1125 H1137 0.929 . S
C1126 C1122 1.531 . S
C1126 H1138 0.960 . S
C1126 H1139 0.962 . S
C1126 H1140 0.960 . S
C1127 C1124 1.511 . S
C1127 H1141 0.964 . S
C1127 H1142 0.961 1_565 S
C1127 H1143 0.961 . S
C1128 C1129 1.370 . S
C1128 C1130 1.363 . S
C1128 H1144 0.931 . S
C1129 C1128 1.370 . S
C1129 C1133 1.408 . S
C1130 C1128 1.363 . S
C1130 C1131 1.370 . S
C1130 C1134 1.524 1_655 S
C1131 C1123 1.503 1_645 S
C1131 C1130 1.370 . S
C1131 C1132 1.403 1_545 S
C1132 C1131 1.403 1_565 S
C1132 C1133 1.404 1_565 S
C1132 C1135 1.539 . S
C1133 C1129 1.408 . S
C1133 C1132 1.404 1_545 S
C1133 H1145 0.930 . S
C1134 C1130 1.524 1_455 S
C1134 H1146 0.956 1_455 S
C1134 H1147 0.961 . S
C1134 H1148 0.961 . S
C1135 C1132 1.539 . S
C1135 H1149 0.958 . S
C1135 H1150 0.961 . S
C1135 H1151 0.970 . S
H1136 C1120 0.931 1_655 S
H1137 C1125 0.929 . S
H1138 C1126 0.960 . S
H1139 C1126 0.962 . S
H1140 C1126 0.960 . S
H1141 C1127 0.964 . S
H1142 C1127 0.961 1_545 S
H1143 C1127 0.961 . S
H1144 C1128 0.931 . S
H1145 C1133 0.930 . S
H1146 C1134 0.956 1_655 S
H1147 C1134 0.961 . S
H1148 C1134 0.961 . S
H1149 C1135 0.958 . S
H1150 C1135 0.961 . S
H1151 C1135 0.970 . S
C1152 C1153 1.391 . S
C1152 C1154 1.389 1_545 S
C1152 H1168 0.931 . S
C1153 C1152 1.391 . S
C1153 C1157 1.376 . S
C1154 C1152 1.389 1_565 S
C1154 C1155 1.368 1_565 S
C1154 C1158 1.536 . S
C1155 C1154 1.368 1_545 S
C1155 C1156 1.410 . S
C1155 C1163 1.503 1_545 S
C1156 C1155 1.410 . S
C1156 C1157 1.392 . S
C1156 C1159 1.511 . S
C1157 C1153 1.376 . S
C1157 C1156 1.392 . S
C1157 H1169 0.929 . S
C1158 C1154 1.536 . S
C1158 H1170 0.960 . S
C1158 H1171 0.962 . S
C1158 H1172 0.960 . S
C1159 C1156 1.511 . S
C1159 H1173 0.961 . S
C1159 H1174 0.961 . S
C1159 H1175 0.961 . S
C1160 C1161 1.370 . S
C1160 C1162 1.363 1_565 S
C1160 H1176 0.944 . S
C1161 C1160 1.370 . S
C1161 C1165 1.408 . S
C1162 C1160 1.363 1_545 S
C1162 C1163 1.370 1_545 S
C1162 C1166 1.524 . S
C1163 C1155 1.503 1_565 S
C1163 C1162 1.370 1_565 S
C1163 C1164 1.403 . S
C1164 C1163 1.403 . S
C1164 C1165 1.404 . S
C1164 C1167 1.539 . S
C1165 C1161 1.408 . S
C1165 C1164 1.404 . S
C1165 H1177 0.930 . S
C1166 C1162 1.524 . S
C1166 H1178 0.956 . S
C1166 H1179 0.961 . S
C1166 H1180 0.961 . S
C1167 C1164 1.539 . S
C1167 H1181 0.958 . S
C1167 H1182 0.961 . S
C1167 H1183 0.960 . S
H1168 C1152 0.931 . S
H1169 C1157 0.929 . S
H1170 C1158 0.960 . S
H1171 C1158 0.962 . S
H1172 C1158 0.960 . S
H1173 C1159 0.961 . S
H1174 C1159 0.961 . S
H1175 C1159 0.961 . S
H1176 C1160 0.944 . S
H1177 C1165 0.930 . S
H1178 C1166 0.956 . S
H1179 C1166 0.961 . S
H1180 C1166 0.961 . S
H1181 C1167 0.958 . S
H1182 C1167 0.961 . S
H1183 C1167 0.960 . S
C1184 C1185 1.391 . S
C1184 C1186 1.394 . S
C1184 H1200 0.931 . S
C1185 C1184 1.391 . S
C1185 C1189 1.376 . S
C1186 C1184 1.394 . S
C1186 C1187 1.369 . S
C1186 C1190 1.531 . S
C1187 C1186 1.369 . S
C1187 C1188 1.410 . S
C1187 C1195 1.503 . S
C1188 C1187 1.410 . S
C1188 C1189 1.392 . S
C1188 C1191 1.511 . S
C1189 C1185 1.376 . S
C1189 C1188 1.392 . S
C1189 H1201 0.929 . S
C1190 C1186 1.531 . S
C1190 H1202 0.960 . S
C1190 H1203 0.962 . S
C1190 H1204 0.960 . S
C1191 C1188 1.511 . S
C1191 H1205 0.961 . S
C1191 H1206 0.961 . S
C1191 H1207 0.961 . S
C1192 C1193 1.370 . S
C1192 C1194 1.363 . S
C1192 H1208 0.931 . S
C1193 C1192 1.370 . S
C1193 C1197 1.408 . S
C1194 C1192 1.363 . S
C1194 C1195 1.370 . S
C1194 C1198 1.524 . S
C1195 C1187 1.503 . S
C1195 C1194 1.370 . S
C1195 C1196 1.403 . S
C1196 C1195 1.403 . S
C1196 C1197 1.404 . S
C1196 C1199 1.539 . S
C1197 C1193 1.408 . S
C1197 C1196 1.404 . S
C1197 H1209 0.930 . S
C1198 C1194 1.524 . S
C1198 H1210 0.956 . S
C1198 H1211 0.961 . S
C1198 H1212 0.961 . S
C1199 C1196 1.539 . S
C1199 H1213 0.958 . S
C1199 H1214 0.961 . S
C1199 H1215 0.960 . S
H1200 C1184 0.931 . S
H1201 C1189 0.929 . S
H1202 C1190 0.960 . S
H1203 C1190 0.962 . S
H1204 C1190 0.960 . S
H1205 C1191 0.961 . S
H1206 C1191 0.961 . S
H1207 C1191 0.961 . S
H1208 C1192 0.931 . S
H1209 C1197 0.930 . S
H1210 C1198 0.956 . S
H1211 C1198 0.961 . S
H1212 C1198 0.961 . S
H1213 C1199 0.958 . S
H1214 C1199 0.961 . S
H1215 C1199 0.960 . S
C1216 C1217 1.391 . S
C1216 C1218 1.394 . S
C1216 H1232 0.931 . S
C1217 C1216 1.391 . S
C1217 C1221 1.376 . S
C1218 C1216 1.394 . S
C1218 C1219 1.369 . S
C1218 C1222 1.531 . S
C1219 C1218 1.369 . S
C1219 C1220 1.407 1_655 S
C1219 C1227 1.503 1_655 S
C1220 C1219 1.407 1_455 S
C1220 C1221 1.387 1_455 S
C1220 C1223 1.518 . S
C1221 C1217 1.376 . S
C1221 C1220 1.387 1_655 S
C1221 H1233 0.929 . S
C1222 C1218 1.531 . S
C1222 H1234 0.960 . S
C1222 H1235 0.962 . S
C1222 H1236 0.960 . S
C1223 C1220 1.518 . S
C1223 H1237 0.961 . S
C1223 H1238 0.961 . S
C1223 H1239 0.961 . S
C1224 C1225 1.370 . S
C1224 C1226 1.363 . S
C1224 H1240 0.931 . S
C1225 C1224 1.370 . S
C1225 C1229 1.408 . S
C1226 C1224 1.363 . S
C1226 C1227 1.370 . S
C1226 C1230 1.524 1_455 S
C1227 C1219 1.503 1_455 S
C1227 C1226 1.370 . S
C1227 C1228 1.403 . S
C1228 C1227 1.403 . S
C1228 C1229 1.404 . S
C1228 C1231 1.539 . S
C1229 C1225 1.408 . S
C1229 C1228 1.404 . S
C1229 H1241 0.930 . S
C1230 C1226 1.524 1_655 S
C1230 H1242 0.956 . S
C1230 H1243 0.961 . S
C1230 H1244 0.961 1_655 S
C1231 C1228 1.539 . S
C1231 H1245 0.958 . S
C1231 H1246 0.961 . S
C1231 H1247 0.960 . S
H1232 C1216 0.931 . S
H1233 C1221 0.929 . S
H1234 C1222 0.960 . S
H1235 C1222 0.962 . S
H1236 C1222 0.960 . S
H1237 C1223 0.961 . S
H1238 C1223 0.961 . S
H1239 C1223 0.961 . S
H1240 C1224 0.931 . S
H1241 C1229 0.930 . S
H1242 C1230 0.956 . S
H1243 C1230 0.961 . S
H1244 C1230 0.961 1_455 S
H1245 C1231 0.958 . S
H1246 C1231 0.961 . S
H1247 C1231 0.960 . S
C225 C1 1.936 . S
C233 C41 1.945 . S
C257 C26 1.932 . S
C265 C54 1.950 . S
C289 C57 1.960 . S
C297 C96 1.952 . S
C321 C110 1.965 . S
C329 C82 1.955 . S
C353 C125 1.946 . S
C361 C153 1.949 . S
C385 C167 1.942 . S
C393 C127 1.948 . S
C417 C209 1.956 . S
C425 C180 1.950 . S
C449 C223 1.932 . S
C457 C183 1.949 . S
C481 C111 1.660 . S
C489 C0 1.658 1_655 S
C513 C27 1.629 1_565 S
C521 C56 1.674 1_655 S
C545 C83 1.687 1_565 S
C553 C40 1.649 . S
C577 C55 1.687 . S
C585 C97 1.647 . S
C609 C222 1.641 . S
C617 C124 1.660 1_455 S
C641 C126 1.628 1_545 S
C649 C181 1.668 1_455 S
C673 C152 1.687 . S
C681 C182 1.650 1_545 S
C705 C208 1.628 . S
C713 C166 1.673 . S
C737 C12 0.528 . S
C745 C68 0.539 . S
C769 C15 0.564 . S
C777 C71 0.530 . S
C801 C85 0.543 . S
C809 C28 0.538 . S
C833 C43 0.496 . S
C841 C99 0.509 . S
C865 C169 0.482 . S
C873 C112 0.516 . S
C897 C194 0.565 . S
C905 C138 0.524 . S
C929 C140 0.496 . S
C937 C196 0.505 . S
C961 C154 0.509 . S
C969 C210 0.504 . S
C993 C13 1.799 . S
C1001 C113 1.799 . S
C1025 C139 1.811 . S
C1033 C14 1.795 . S
C1057 C29 1.784 . S
C1065 C141 1.807 . S
C1089 C155 1.783 . S
C1097 C42 1.808 . S
C1121 C69 1.796 . S
C1129 C168 1.800 . S
C1153 C70 1.785 . S
C1161 C195 1.806 . S
C1185 C197 1.783 . S
C1193 C84 1.807 . S
C1217 C98 1.812 . S
C1225 C211 1.795 . S
