# Generated by pormake.
# Topology smb, (6)-cn, num edge types: 1
# Building blocks:
#     Node 0, Type 0, BuildingBlock: IZENUY_clean_sbu_0, # of connection points: 6
#     Node 1, Type 0, BuildingBlock: IZENUY_clean_sbu_0, # of connection points: 6
#     Node 2, Type 0, BuildingBlock: IZENUY_clean_sbu_0, # of connection points: 6
#     Node 3, Type 0, BuildingBlock: IZENUY_clean_sbu_0, # of connection points: 6
#     Node 4, Type 0, BuildingBlock: IZENUY_clean_sbu_0, # of connection points: 6
#     Node 5, Type 0, BuildingBlock: IZENUY_clean_sbu_0, # of connection points: 6
#     Node 6, Type 0, BuildingBlock: IZENUY_clean_sbu_0, # of connection points: 6
#     Node 7, Type 0, BuildingBlock: IZENUY_clean_sbu_0, # of connection points: 6
#     Node 8, Type 0, BuildingBlock: IZENUY_clean_sbu_0, # of connection points: 6
#     Edge 9, Type (0, 0), BuildingBlock: OJICUG_clean_linker_0, # of connection points: 2
#     Edge 10, Type (0, 0), BuildingBlock: OJICUG_clean_linker_0, # of connection points: 2
#     Edge 11, Type (0, 0), BuildingBlock: OJICUG_clean_linker_0, # of connection points: 2
#     Edge 12, Type (0, 0), BuildingBlock: OJICUG_clean_linker_0, # of connection points: 2
#     Edge 13, Type (0, 0), BuildingBlock: OJICUG_clean_linker_0, # of connection points: 2
#     Edge 14, Type (0, 0), BuildingBlock: OJICUG_clean_linker_0, # of connection points: 2
#     Edge 15, Type (0, 0), BuildingBlock: OJICUG_clean_linker_0, # of connection points: 2
#     Edge 16, Type (0, 0), BuildingBlock: OJICUG_clean_linker_0, # of connection points: 2
#     Edge 17, Type (0, 0), BuildingBlock: OJICUG_clean_linker_0, # of connection points: 2
#     Edge 18, Type (0, 0), BuildingBlock: OJICUG_clean_linker_0, # of connection points: 2
#     Edge 19, Type (0, 0), BuildingBlock: OJICUG_clean_linker_0, # of connection points: 2
#     Edge 20, Type (0, 0), BuildingBlock: OJICUG_clean_linker_0, # of connection points: 2
#     Edge 21, Type (0, 0), BuildingBlock: OJICUG_clean_linker_0, # of connection points: 2
#     Edge 22, Type (0, 0), BuildingBlock: OJICUG_clean_linker_0, # of connection points: 2
#     Edge 23, Type (0, 0), BuildingBlock: OJICUG_clean_linker_0, # of connection points: 2
#     Edge 24, Type (0, 0), BuildingBlock: OJICUG_clean_linker_0, # of connection points: 2
#     Edge 25, Type (0, 0), BuildingBlock: OJICUG_clean_linker_0, # of connection points: 2
#     Edge 26, Type (0, 0), BuildingBlock: OJICUG_clean_linker_0, # of connection points: 2
#     Edge 27, Type (0, 0), BuildingBlock: OJICUG_clean_linker_0, # of connection points: 2
#     Edge 28, Type (0, 0), BuildingBlock: OJICUG_clean_linker_0, # of connection points: 2
#     Edge 29, Type (0, 0), BuildingBlock: OJICUG_clean_linker_0, # of connection points: 2
#     Edge 30, Type (0, 0), BuildingBlock: OJICUG_clean_linker_0, # of connection points: 2
#     Edge 31, Type (0, 0), BuildingBlock: OJICUG_clean_linker_0, # of connection points: 2
#     Edge 32, Type (0, 0), BuildingBlock: OJICUG_clean_linker_0, # of connection points: 2
#     Edge 33, Type (0, 0), BuildingBlock: OJICUG_clean_linker_0, # of connection points: 2
#     Edge 34, Type (0, 0), BuildingBlock: OJICUG_clean_linker_0, # of connection points: 2
#     Edge 35, Type (0, 0), BuildingBlock: OJICUG_clean_linker_0, # of connection points: 2
# Relax obj value: 0.326
# Max RMSD: 0.238
# Mean RMSD: 0.238
data_MOF--net-smb--node1-IZENUY_clean_sbu_0--edge1-OJICUG_clean_linker_0
_symmetry_space_group_name_H-M    P1
_symmetry_Int_Tables_number       1
_symmetry_cell_setting            triclinic
loop_
_symmetry_equiv_pos_as_xyz
'x, y, z'
_cell_length_a     29.032877
_cell_length_b     28.94138
_cell_length_c     21.154507
_cell_angle_alpha  88.95439
_cell_angle_beta   90.107994
_cell_angle_gamma 120.13591
loop_
_atom_site_label
_atom_site_type_symbol
_atom_site_fract_x
_atom_site_fract_y
_atom_site_fract_z
_atom_type_partial_charge
Fe0 Fe 0.42172 0.20617 0.96156 0.0
Fe1 Fe 0.34234 0.17044 0.07368 0.0
O2 O 0.40838 0.20241 0.0439 0.0
Fe3 Fe 0.46186 0.22956 0.09738 0.0
O4 O 0.50821 0.28202 0.04307 0.0
O5 O 0.46007 0.27883 0.9615 0.0
O6 O 0.36397 0.21244 0.93878 0.0
C7 C 0.33456 0.22475 0.97007 0.0
C8 C 0.49517 0.1805 1.01633 0.0
O9 O 0.32752 0.21547 1.02895 0.0
C10 C 0.38906 0.13523 0.15988 0.0
O11 O 0.38466 0.13414 0.95538 0.0
O12 O 0.31498 0.12026 1.01144 0.0
O13 O 0.48243 0.1835 0.07233 0.0
O14 O 0.48181 0.20033 0.97073 0.0
C15 C 0.39883 0.26261 0.1496 0.0
O16 O 0.35281 0.1222 0.11946 0.0
O17 O 0.42609 0.18305 0.16265 0.0
C18 C 0.33717 0.104 0.97322 0.0
O19 O 0.35871 0.21638 0.1411 0.0
O20 O 0.44338 0.27624 0.12495 0.0
C21 C 0.49909 0.30477 0.99729 0.0
Fe22 Fe 0.83195 0.16745 0.07591 0.0
Fe23 Fe 0.76751 0.22253 0.09993 0.0
O24 O 0.79561 0.19716 0.04662 0.0
Fe25 Fe 0.78552 0.20043 0.96441 0.0
O26 O 0.75141 0.12833 0.9588 0.0
O27 O 0.80998 0.11742 1.01347 0.0
O28 O 0.7741 0.11783 0.1218 0.0
C29 C 0.74968 0.12931 0.16218 0.0
C30 C 0.89208 0.22153 0.97134 0.0
O31 O 0.75781 0.17619 0.165 0.0
C32 C 0.8058 0.29832 1.00113 0.0
O33 O 0.86061 0.21359 0.14347 0.0
O34 O 0.83184 0.27048 0.12854 0.0
O35 O 0.84929 0.20703 0.94138 0.0
O36 O 0.89132 0.21406 0.03058 0.0
C37 C 0.68592 0.17375 1.01779 0.0
O38 O 0.77283 0.27464 0.04561 0.0
O39 O 0.81933 0.27308 0.96484 0.0
C40 C 0.86415 0.25862 0.15297 0.0
O41 O 0.70123 0.1752 0.07385 0.0
O42 O 0.71959 0.19421 0.97299 0.0
C43 C 0.77095 0.09979 0.97568 0.0
Fe44 Fe 0.79125 0.57322 0.95559 0.0
Fe45 Fe 0.82611 0.64864 0.06944 0.0
O46 O 0.79441 0.58351 0.03838 0.0
Fe47 Fe 0.76608 0.52785 0.09088 0.0
O48 O 0.81163 0.50715 0.06324 0.0
O49 O 0.79612 0.51216 0.96222 0.0
O50 O 0.86321 0.6102 0.94785 0.0
C51 C 0.89348 0.65694 0.96693 0.0
C52 C 0.69224 0.49504 0.99247 0.0
O53 O 0.87709 0.67796 1.00659 0.0
C54 C 0.73266 0.59042 0.14452 0.0
O55 O 0.78583 0.63226 0.9351 0.0
O56 O 0.78195 0.6654 1.02666 0.0
O57 O 0.7143 0.48374 0.03671 0.0
O58 O 0.71873 0.53538 0.95709 0.0
C59 C 0.85926 0.59897 0.15405 0.0
O60 O 0.77952 0.63019 0.13779 0.0
O61 O 0.71948 0.54621 0.12006 0.0
C62 C 0.77281 0.66017 0.96801 0.0
O63 O 0.87314 0.63629 0.11367 0.0
O64 O 0.81181 0.5609 0.1562 0.0
C65 C 0.81431 0.49582 1.00651 0.0
Fe66 Fe 0.08312 0.53589 0.30009 0.0
Fe67 Fe 0.00339 0.49991 0.41168 0.0
O68 O 0.06947 0.53113 0.38238 0.0
Fe69 Fe 0.12285 0.55652 0.43612 0.0
O70 O 0.16987 0.60916 0.38258 0.0
O71 O 0.12201 0.60848 0.30194 0.0
O72 O 0.02597 0.54314 0.27745 0.0
C73 C -0.00337 0.5555 0.30871 0.0
C74 C 0.15569 0.50831 0.35357 0.0
O75 O 0.9894 0.54596 0.36756 0.0
C76 C 0.04848 0.46244 0.49736 0.0
O77 O 0.04537 0.46399 0.2925 0.0
O78 O 0.97574 0.4504 0.34862 0.0
O79 O 0.14213 0.50975 0.40971 0.0
O80 O 0.14273 0.52923 0.3088 0.0
C81 C 0.06137 0.59107 0.48917 0.0
O82 O 0.01276 0.45055 0.45655 0.0
O83 O 0.08636 0.50972 0.50089 0.0
C84 C -0.00234 0.43419 0.30987 0.0
O85 O 0.02041 0.5455 0.47981 0.0
O86 O 0.10577 0.60381 0.46483 0.0
C87 C 0.16088 0.63328 0.33832 0.0
Fe88 Fe 0.44914 0.53594 0.294 0.0
Fe89 Fe 0.49764 0.50454 0.40482 0.0
O90 O 0.46129 0.53441 0.37591 0.0
Fe91 Fe 0.43536 0.56163 0.42954 0.0
O92 O 0.36818 0.51447 0.40639 0.0
O93 O 0.38354 0.53014 0.30453 0.0
O94 O 0.41456 0.46365 0.2905 0.0
C95 C 0.4343 0.43525 0.30716 0.0
C96 C 0.47083 0.6351 0.32777 0.0
O97 O 0.47419 0.45347 0.3436 0.0
C98 C 0.53293 0.5972 0.47963 0.0
O99 O 0.51227 0.54171 0.26952 0.0
O100 O 0.55615 0.55016 0.35765 0.0
O101 O 0.43984 0.61296 0.3744 0.0
O102 O 0.48314 0.60867 0.29184 0.0
C103 C 0.41697 0.4687 0.493 0.0
O104 O 0.52796 0.55149 0.47116 0.0
O105 O 0.50085 0.60955 0.45545 0.0
C106 C 0.55567 0.55648 0.29832 0.0
O107 O 0.44045 0.45604 0.45261 0.0
O108 O 0.4267 0.5162 0.49526 0.0
C109 C 0.35126 0.51095 0.35081 0.0
Fe110 Fe 0.43293 0.86158 0.42533 0.0
Fe111 Fe 0.45222 0.90645 0.28968 0.0
O112 O 0.4601 0.91695 0.37241 0.0
Fe113 Fe 0.4942 0.9822 0.40311 0.0
O114 O 0.52203 0.9637 0.47185 0.0
O115 O 0.49811 0.8798 0.45422 0.0
O116 O 0.43978 0.8169 0.37145 0.0
C117 C 0.47203 0.82742 0.32625 0.0
C118 C 0.41156 0.93333 0.48759 0.0
O119 O 0.4859 0.86772 0.2908 0.0
C120 C 0.43571 0.99141 0.30026 0.0
O121 O 0.36652 0.841 0.39819 0.0
O122 O 0.3858 0.84592 0.29682 0.0
O123 O 0.43501 0.97048 0.44701 0.0
O124 O 0.42099 0.89531 0.49032 0.0
C125 C 0.55839 0.9923 0.30199 0.0
O126 O 0.41811 0.9443 0.28192 0.0
O127 O 0.47326 0.01197 0.33991 0.0
C128 C 0.35182 0.82969 0.34163 0.0
O129 O 0.51719 0.96487 0.26902 0.0
O130 O 0.55477 -0.00207 0.36057 0.0
C131 C 0.52913 0.924 0.47878 0.0
Fe132 Fe 0.75761 0.86892 0.62828 0.0
Fe133 Fe 0.67775 0.83679 0.73888 0.0
O134 O 0.74395 0.86646 0.71028 0.0
Fe135 Fe 0.79713 0.89251 0.76422 0.0
O136 O 0.84421 0.94441 0.70981 0.0
O137 O 0.79678 0.94161 0.62749 0.0
O138 O 0.70056 0.87548 0.60419 0.0
C139 C 0.6721 0.89012 0.63336 0.0
C140 C 0.83011 0.84266 0.68404 0.0
O141 O 0.66532 0.88323 0.69264 0.0
C142 C 0.72165 0.79928 0.82646 0.0
O143 O 0.71939 0.7967 0.62346 0.0
O144 O 0.6498 0.78654 0.67675 0.0
O145 O 0.81651 0.84526 0.73977 0.0
O146 O 0.81714 0.86257 0.63831 0.0
C147 C 0.73588 0.92826 0.8155 0.0
O148 O 0.6859 0.78746 0.78559 0.0
O149 O 0.76015 0.84636 0.8294 0.0
C150 C 0.67111 0.76851 0.63966 0.0
O151 O 0.69474 0.88298 0.80608 0.0
O152 O 0.78022 0.94045 0.79139 0.0
C153 C 0.83553 0.96737 0.66381 0.0
Fe154 Fe 0.12448 0.8707 0.63218 0.0
Fe155 Fe 0.16808 0.83448 0.74416 0.0
O156 O 0.13376 0.86625 0.71448 0.0
Fe157 Fe 0.10677 0.89261 0.76794 0.0
O158 O 0.04031 0.84604 0.74226 0.0
O159 O 0.05849 0.86462 0.64109 0.0
O160 O 0.08964 0.79878 0.62512 0.0
C161 C 0.10675 0.76843 0.6431 0.0
C162 C 0.14529 0.96864 0.66955 0.0
O163 O 0.14505 0.78435 0.68174 0.0
C164 C 0.20318 0.92662 0.82021 0.0
O165 O 0.18848 0.87721 0.60945 0.0
O166 O 0.22801 0.87964 0.69952 0.0
O167 O 0.11231 0.94491 0.71391 0.0
O168 O 0.15886 0.94339 0.63341 0.0
C169 C 0.08614 0.79869 0.83027 0.0
O170 O 0.19768 0.88063 0.81162 0.0
O171 O 0.17169 0.93969 0.79585 0.0
C172 C 0.2302 0.8892 0.64069 0.0
O173 O 0.10942 0.78595 0.78981 0.0
O174 O 0.09666 0.84635 0.83314 0.0
C175 C 0.02492 0.84397 0.68611 0.0
Fe176 Fe 0.15978 0.3164 0.73627 0.0
Fe177 Fe 0.10142 0.19585 0.75947 0.0
O178 O 0.12838 0.25097 0.70612 0.0
Fe179 Fe 0.12447 0.24005 0.6234 0.0
O180 O 0.19639 0.2781 0.61435 0.0
O181 O 0.20954 0.346 0.67218 0.0
O182 O 0.20822 0.30537 0.77915 0.0
C183 C 0.19547 0.26843 0.81977 0.0
C184 C 0.10407 0.32571 0.63621 0.0
O185 O 0.14823 0.23009 0.8234 0.0
C186 C 0.02633 0.16093 0.66199 0.0
O187 O 0.11452 0.29808 0.80587 0.0
O188 O 0.05471 0.2137 0.79006 0.0
O189 O 0.11747 0.29823 0.603 0.0
O190 O 0.11406 0.33156 0.69465 0.0
C191 C 0.14948 0.16401 0.67426 0.0
O192 O 0.049 0.15081 0.70661 0.0
O193 O 0.05203 0.20102 0.62598 0.0
C194 C 0.06814 0.25799 0.81445 0.0
O195 O 0.14705 0.17553 0.73097 0.0
O196 O 0.13065 0.17974 0.63008 0.0
C197 C 0.22617 0.32524 0.6325 0.0
C198 C 0.24973 0.02154 0.9542 0.0
C199 C 0.30467 0.05213 0.94174 0.0
H200 H 0.17462 0.95673 0.92532 0.0
C201 C 0.32706 0.03476 0.89524 0.0
H202 H 0.23115 0.03328 0.98996 0.0
C203 C 0.29445 0.99015 0.85874 0.0
C204 C 0.2392 0.9625 0.86833 0.0
H205 H 0.36935 0.05715 0.88482 0.0
H206 H 0.31189 0.97966 0.82033 0.0
C207 C 0.21735 0.97745 0.91756 0.0
C208 C 0.94177 0.25015 0.8685 0.0
C209 C 0.94182 0.24018 0.93394 0.0
H210 H 0.98249 0.26416 0.77965 0.0
C211 C 0.98791 0.24388 0.96091 0.0
H212 H 0.9073 0.24821 0.84603 0.0
C213 C 0.03146 0.25388 0.92245 0.0
C214 C 0.02953 0.2606 0.85677 0.0
H215 H 0.98931 0.23643 1.01104 0.0
H216 H 0.06527 0.25336 0.94343 0.0
C217 C 0.98495 0.25978 0.83035 0.0
C218 C 0.74488 0.77192 0.92843 0.0
C219 C 0.72322 0.7583 0.86754 0.0
H220 H 0.77667 0.75123 1.00841 0.0
C221 C 0.71311 0.70955 0.84245 0.0
H222 H 0.75346 0.80954 0.94861 0.0
C223 C 0.72782 0.67679 0.87596 0.0
C224 C 0.75191 0.69171 0.93567 0.0
H225 H 0.6973 0.69855 0.7952 0.0
H226 H 0.72179 0.64054 0.85432 0.0
C227 C 0.75843 0.73865 0.9625 0.0
C228 C 0.01098 0.70544 0.85315 0.0
C229 C 0.043 0.75863 0.87173 0.0
H230 H 0.93818 0.63131 0.86852 0.0
C231 C 0.02828 0.77592 0.9258 0.0
H232 H 0.0211 0.69113 0.81143 0.0
C233 C 0.98091 0.74209 0.95811 0.0
C234 C 0.94684 0.69003 0.93715 0.0
H235 H 0.05231 0.81661 0.94163 0.0
H236 H 0.97013 0.75758 0.99818 0.0
C237 C 0.96325 0.67141 0.88558 0.0
C238 C 0.21983 0.24474 0.92341 0.0
C239 C 0.23525 0.2673 0.86231 0.0
H240 H 0.23962 0.21466 1.00598 0.0
C241 C 0.28589 0.28079 0.83937 0.0
H242 H 0.18086 0.23384 0.94208 0.0
C243 C 0.31906 0.26854 0.87534 0.0
C244 C 0.3026 0.2437 0.93539 0.0
H245 H 0.29841 0.29763 0.79213 0.0
H246 H 0.35695 0.27709 0.85541 0.0
C247 C 0.25344 0.2337 0.95993 0.0
C248 C 0.77585 0.98196 0.91041 0.0
C249 C 0.73619 0.964 0.8641 0.0
H250 H 0.81711 0.03798 0.98284 0.0
C251 C 0.70328 0.98642 0.85973 0.0
H252 H 0.80159 0.96498 0.91462 0.0
C253 C 0.71266 0.02913 0.89836 0.0
C254 C 0.75475 0.04943 0.94214 0.0
H255 H 0.67273 0.9733 0.82394 0.0
H256 H 0.68852 0.04769 0.89199 0.0
C257 C 0.78474 0.02385 0.9494 0.0
C258 C 0.87699 0.31123 0.24858 0.0
C259 C 0.8994 0.29481 0.20152 0.0
H260 H 0.89034 0.36738 0.32037 0.0
C261 C 0.9549 0.32032 0.19521 0.0
H262 H 0.83412 0.29206 0.25405 0.0
C263 C 0.9874 0.36431 0.2327 0.0
C264 C 0.96469 0.38302 0.27714 0.0
H265 H 0.97287 0.30861 0.15864 0.0
H266 H 0.03007 0.38506 0.22484 0.0
C267 C 0.90924 0.35455 0.28634 0.0
C268 C 0.6008 0.57206 0.19335 0.0
C269 C 0.60454 0.57369 0.25974 0.0
H270 H 0.63905 0.57648 0.10528 0.0
C271 C 0.65405 0.58836 0.28754 0.0
H272 H 0.56361 0.56134 0.16999 0.0
C273 C 0.69791 0.59826 0.24967 0.0
C274 C 0.69254 0.59321 0.18379 0.0
H275 H 0.65836 0.59022 0.33844 0.0
H276 H 0.73487 0.60667 0.27198 0.0
C277 C 0.64408 0.58111 0.156 0.0
C278 C 0.36874 0.04147 0.18498 0.0
C279 C 0.39197 0.09528 0.20192 0.0
H280 H 0.36443 0.96616 0.20262 0.0
C281 C 0.42498 0.11277 0.25528 0.0
H282 H 0.34344 0.02692 0.14387 0.0
C283 C 0.43721 0.07834 0.28861 0.0
C284 C 0.41693 0.02544 0.2694 0.0
H285 H 0.44325 0.15392 0.26991 0.0
H286 H 0.46421 0.09393 0.32814 0.0
C287 C 0.38116 0.00684 0.2184 0.0
C288 C 0.66724 0.04045 0.17662 0.0
C289 C 0.70695 0.08818 0.20273 0.0
H290 H 0.5884 0.97295 0.18731 0.0
C291 C 0.69963 0.10129 0.2641 0.0
H292 H 0.67153 0.02998 0.12895 0.0
C293 C 0.65245 0.06866 0.29768 0.0
C294 C 0.61098 0.02291 0.26988 0.0
H295 H 0.72952 0.1382 0.285 0.0
H296 H 0.6474 0.08093 0.344 0.0
C297 C 0.61942 0.00832 0.20969 0.0
C298 C 0.91433 0.56222 0.29595 0.0
C299 C 0.96483 0.5745 0.27364 0.0
H300 H 0.84114 0.56031 0.27509 0.0
C301 C 0.98275 0.6011 0.21471 0.0
H302 H 0.89936 0.54167 0.34103 0.0
C303 C 0.94986 0.61298 0.17758 0.0
C304 C 0.89801 0.5973 0.1981 0.0
H305 H 0.02165 0.61133 0.19647 0.0
H306 H 0.96375 0.63137 0.13124 0.0
C307 C 0.88101 0.57286 0.25818 0.0
C308 C 0.36657 0.32158 0.19169 0.0
C309 C 0.3982 0.29786 0.19816 0.0
H310 H 0.35314 0.3843 0.22157 0.0
C311 C 0.4366 0.3149 0.24587 0.0
H312 H 0.33709 0.30924 0.15467 0.0
C313 C 0.44575 0.3573 0.28411 0.0
C314 C 0.41725 0.38424 0.2747 0.0
H315 H 0.46145 0.29701 0.25151 0.0
H316 H 0.47729 0.37077 0.31864 0.0
C317 C 0.37613 0.36469 0.22966 0.0
C318 C 0.65798 0.69799 0.56176 0.0
C319 C 0.63663 0.71828 0.60596 0.0
H320 H 0.64129 0.64224 0.48707 0.0
C321 C 0.58108 0.69285 0.61349 0.0
H322 H 0.70064 0.71645 0.55511 0.0
C323 C 0.54766 0.65111 0.57449 0.0
C324 C 0.5689 0.63312 0.52787 0.0
H325 H 0.56314 0.70694 0.64727 0.0
H326 H 0.50496 0.63422 0.57902 0.0
C327 C 0.62422 0.65541 0.5231 0.0
C328 C 0.3344 0.94654 0.50982 0.0
C329 C 0.37101 0.93167 0.53115 0.0
H330 H 0.26046 0.944 0.52772 0.0
C331 C 0.36381 0.90775 0.59152 0.0
H332 H 0.33873 0.96449 0.46322 0.0
C333 C 0.31961 0.89678 0.62882 0.0
C334 C 0.28096 0.90823 0.60576 0.0
H335 H 0.39147 0.89582 0.60902 0.0
H336 H 0.31427 0.87667 0.67419 0.0
C337 C 0.28942 0.93435 0.54651 0.0
C338 C 0.08656 0.40215 0.63224 0.0
C339 C 0.08186 0.35627 0.60443 0.0
H340 H 0.07908 0.47171 0.61978 0.0
C341 C 0.0583 0.34159 0.54443 0.0
H342 H 0.10428 0.41448 0.67843 0.0
C343 C 0.04246 0.37372 0.51154 0.0
C344 C 0.05085 0.42154 0.53765 0.0
H345 H 0.05363 0.30613 0.52204 0.0
H346 H 0.02719 0.36311 0.46403 0.0
C347 C 0.07183 0.43477 0.59885 0.0
C348 C 0.29585 0.34049 0.55046 0.0
C349 C 0.27909 0.35902 0.60179 0.0
H350 H 0.35349 0.36058 0.47593 0.0
C351 C 0.31239 0.41159 0.62175 0.0
H352 H 0.27139 0.30005 0.53413 0.0
C353 C 0.35929 0.44584 0.58882 0.0
C354 C 0.37439 0.42853 0.53509 0.0
H355 H 0.30134 0.42708 0.66159 0.0
H356 H 0.38266 0.48682 0.60397 0.0
C357 C 0.34314 0.37497 0.51741 0.0
C358 C 0.56896 0.92838 0.58502 0.0
C359 C 0.57173 0.92686 0.5189 0.0
H360 H 0.59871 0.91771 0.67394 0.0
C361 C 0.61056 0.91849 0.49116 0.0
H362 H 0.53848 0.93386 0.6072 0.0
C363 C 0.64494 0.90964 0.52873 0.0
C364 C 0.64047 0.9077 0.59514 0.0
H365 H 0.61286 0.91662 0.4402 0.0
H366 H 0.67344 0.90185 0.50534 0.0
C367 C 0.6031 0.91873 0.62302 0.0
C368 C 0.09923 0.64187 0.58638 0.0
C369 C 0.06178 0.62688 0.53769 0.0
H370 H 0.14227 0.69775 0.65849 0.0
C371 C 0.03409 0.65453 0.52888 0.0
H372 H 0.1213 0.62115 0.59356 0.0
C373 C 0.04665 0.69917 0.56554 0.0
C374 C 0.08702 0.71657 0.61146 0.0
H375 H 0.00567 0.64404 0.4909 0.0
H376 H 0.02662 0.72154 0.5557 0.0
C377 C 0.11147 0.68598 0.62322 0.0
C378 C 0.546 0.1382 0.05628 0.0
C379 C 0.53615 0.16548 1.00732 0.0
H380 H 0.60134 0.11847 0.09727 0.0
C381 C 0.57083 0.18512 0.95494 0.0
H382 H 0.5192 0.12152 0.09657 0.0
C383 C 0.61798 0.18328 0.95531 0.0
C384 C 0.63084 0.16183 1.0081 0.0
H385 H 0.56388 0.20583 0.91623 0.0
H386 H 0.6462 0.20265 0.91681 0.0
C387 C 0.59299 0.1364 0.05668 0.0
C388 C 0.80665 0.42084 0.94124 0.0
C389 C 0.82645 0.4529 0.99496 0.0
H390 H 0.78522 0.34519 0.90052 0.0
C391 C 0.85055 0.43831 0.04284 0.0
H392 H 0.78803 0.43121 0.90348 0.0
C393 C 0.84898 0.38952 0.04085 0.0
C394 C 0.82401 0.35496 0.99063 0.0
H395 H 0.86691 0.46259 0.0843 0.0
H396 H 0.86345 0.3769 0.08107 0.0
C397 C 0.80529 0.37184 0.9392 0.0
C398 C 0.61995 0.42406 0.92855 0.0
C399 C 0.63586 0.45716 0.98135 0.0
H400 H 0.56159 0.3481 0.89168 0.0
C401 C 0.60046 0.44465 0.03225 0.0
H402 H 0.64731 0.43268 0.88943 0.0
C403 C 0.55215 0.39682 0.03362 0.0
C404 C 0.53852 0.36089 0.98405 0.0
H405 H 0.61231 0.46952 0.07362 0.0
H406 H 0.52763 0.38573 0.07598 0.0
C407 C 0.57113 0.37585 0.92986 0.0
C408 C 0.25886 0.47104 0.39253 0.0
C409 C 0.29538 0.49683 0.34276 0.0
H410 H 0.18472 0.45331 0.43415 0.0
C411 C 0.28008 0.51596 0.28995 0.0
H412 H 0.26915 0.45479 0.43317 0.0
C413 C 0.23163 0.51522 0.29055 0.0
C414 C 0.19806 0.49528 0.34393 0.0
H415 H 0.30725 0.53548 0.25056 0.0
H416 H 0.22271 0.53423 0.25163 0.0
C417 C 0.21052 0.47018 0.39306 0.0
C418 C 0.51278 0.77563 0.36349 0.0
C419 C 0.489 0.78857 0.31387 0.0
H420 H 0.52668 0.71606 0.40541 0.0
C421 C 0.46981 0.75534 0.26126 0.0
H422 H 0.52733 0.8006 0.4047 0.0
C423 C 0.46944 0.70666 0.26164 0.0
C424 C 0.4882 0.6914 0.31468 0.0
H425 H 0.45038 0.76432 0.22315 0.0
H426 H 0.44976 0.67888 0.22382 0.0
C427 C 0.51239 0.72738 0.36389 0.0
C428 C 0.28297 0.75489 0.27713 0.0
C429 C 0.29637 0.78712 0.3308 0.0
H430 H 0.22739 0.67942 0.23692 0.0
C431 C 0.25841 0.77297 0.37936 0.0
H432 H 0.31139 0.76489 0.23889 0.0
C433 C 0.21081 0.72446 0.37801 0.0
C434 C 0.20001 0.68974 0.32771 0.0
H435 H 0.2672 0.79739 0.42083 0.0
H436 H 0.1843 0.71218 0.41868 0.0
C437 C 0.23489 0.70619 0.2757 0.0
C438 C 0.955 0.84975 0.62335 0.0
C439 C 0.96924 0.83005 0.67652 0.0
H440 H 0.89859 0.86879 0.58368 0.0
C441 C 0.93183 0.80404 0.72546 0.0
H442 H 0.98283 0.86944 0.58457 0.0
C443 C 0.88375 0.8037 0.72499 0.0
C444 C 0.87234 0.82931 0.67553 0.0
H445 H 0.94126 0.78731 0.76636 0.0
H446 H 0.85729 0.78677 0.76553 0.0
C447 C 0.90672 0.84936 0.62284 0.0
C448 C 0.14292 0.04099 0.60728 0.0
C449 C 0.16276 0.02507 0.65849 0.0
H450 H 0.12356 0.09892 0.5717 0.0
C451 C 0.18758 0.06011 0.70834 0.0
H452 H 0.12287 0.01393 0.56892 0.0
C453 C 0.18791 0.10831 0.71025 0.0
C454 C 0.16271 0.12184 0.66266 0.0
H455 H 0.20282 0.0482 0.74845 0.0
H456 H 0.20419 0.1329 0.7515 0.0
C457 C 0.14305 0.08939 0.60922 0.0
C458 C 0.88732 0.05874 0.7026 0.0
C459 C 0.87447 0.02389 0.65198 0.0
H460 H 0.94615 0.1314 0.74402 0.0
C461 C 0.90704 0.04059 0.59768 0.0
H462 H 0.86275 0.04639 0.74499 0.0
C463 C 0.95511 0.08959 0.59713 0.0
C464 C 0.97032 0.12167 0.65084 0.0
H465 H 0.89806 0.01375 0.55862 0.0
H466 H 0.98251 0.0997 0.55771 0.0
C467 C 0.93487 0.10729 0.70201 0.0
loop_
_geom_bond_atom_site_label_1
_geom_bond_atom_site_label_2
_geom_bond_distance
_geom_bond_site_symmetry_2
_ccdc_geom_bond_type
Fe0 O2 1.918 1_556 S
Fe0 O5 1.997 . S
Fe0 O6 2.002 . S
Fe0 O11 1.976 . S
Fe0 O14 1.996 . S
Fe1 O2 1.918 . S
Fe1 O9 1.997 1_554 S
Fe1 O12 1.996 1_554 S
Fe1 O16 1.976 . S
Fe1 O19 2.002 . S
O2 Fe0 1.918 1_554 S
O2 Fe1 1.918 . S
O2 Fe3 1.918 . S
Fe3 O2 1.918 . S
Fe3 O4 2.002 . S
Fe3 O13 1.976 . S
Fe3 O17 1.996 . S
Fe3 O20 1.997 . S
O4 Fe3 2.002 . S
O4 C21 1.295 1_554 S
O5 Fe0 1.997 . S
O5 C21 1.235 . S
O6 Fe0 2.002 . S
O6 C7 1.295 . S
C7 O6 1.295 . S
C7 O9 1.235 . S
C8 O13 1.287 1_556 S
C8 O14 1.255 . S
O9 Fe1 1.997 1_556 S
O9 C7 1.235 . S
C10 O16 1.287 . S
C10 O17 1.255 . S
O11 Fe0 1.976 . S
O11 C18 1.287 . S
O12 Fe1 1.996 1_556 S
O12 C18 1.255 . S
O13 Fe3 1.976 . S
O13 C8 1.287 1_554 S
O14 Fe0 1.996 . S
O14 C8 1.255 . S
C15 O19 1.295 . S
C15 O20 1.235 . S
O16 Fe1 1.976 . S
O16 C10 1.287 . S
O17 Fe3 1.996 . S
O17 C10 1.255 . S
C18 O11 1.287 . S
C18 O12 1.255 . S
O19 Fe1 2.002 . S
O19 C15 1.295 . S
O20 Fe3 1.997 . S
O20 C15 1.235 . S
C21 O4 1.295 1_556 S
C21 O5 1.235 . S
Fe22 O24 1.918 . S
Fe22 O27 1.997 1_554 S
Fe22 O28 2.002 . S
Fe22 O33 1.976 . S
Fe22 O36 1.996 1_554 S
Fe23 O24 1.918 . S
Fe23 O31 1.997 . S
Fe23 O34 1.996 . S
Fe23 O38 1.976 . S
Fe23 O41 2.002 . S
O24 Fe22 1.918 . S
O24 Fe23 1.918 . S
O24 Fe25 1.918 1_554 S
Fe25 O24 1.918 1_556 S
Fe25 O26 2.002 . S
Fe25 O35 1.976 . S
Fe25 O39 1.996 . S
Fe25 O42 1.997 . S
O26 Fe25 2.002 . S
O26 C43 1.295 . S
O27 Fe22 1.997 1_556 S
O27 C43 1.235 . S
O28 Fe22 2.002 . S
O28 C29 1.295 . S
C29 O28 1.295 . S
C29 O31 1.235 . S
C30 O35 1.287 . S
C30 O36 1.255 . S
O31 Fe23 1.997 . S
O31 C29 1.235 . S
C32 O38 1.287 1_556 S
C32 O39 1.255 . S
O33 Fe22 1.976 . S
O33 C40 1.287 . S
O34 Fe23 1.996 . S
O34 C40 1.255 . S
O35 Fe25 1.976 . S
O35 C30 1.287 . S
O36 Fe22 1.996 1_556 S
O36 C30 1.255 . S
C37 O41 1.295 1_556 S
C37 O42 1.235 . S
O38 Fe23 1.976 . S
O38 C32 1.287 1_554 S
O39 Fe25 1.996 . S
O39 C32 1.255 . S
C40 O33 1.287 . S
C40 O34 1.255 . S
O41 Fe23 2.002 . S
O41 C37 1.295 1_554 S
O42 Fe25 1.997 . S
O42 C37 1.235 . S
C43 O26 1.295 . S
C43 O27 1.235 . S
Fe44 O46 1.918 1_556 S
Fe44 O49 1.997 . S
Fe44 O50 2.002 . S
Fe44 O55 1.976 . S
Fe44 O58 1.996 . S
Fe45 O46 1.918 . S
Fe45 O53 1.997 1_554 S
Fe45 O56 1.996 1_554 S
Fe45 O60 1.976 . S
Fe45 O63 2.002 . S
O46 Fe44 1.918 1_554 S
O46 Fe45 1.918 . S
O46 Fe47 1.918 . S
Fe47 O46 1.918 . S
Fe47 O48 2.002 . S
Fe47 O57 1.976 . S
Fe47 O61 1.996 . S
Fe47 O64 1.997 . S
O48 Fe47 2.002 . S
O48 C65 1.295 1_554 S
O49 Fe44 1.997 . S
O49 C65 1.235 . S
O50 Fe44 2.002 . S
O50 C51 1.295 . S
C51 O50 1.295 . S
C51 O53 1.235 . S
C52 O57 1.287 1_556 S
C52 O58 1.255 . S
O53 Fe45 1.997 1_556 S
O53 C51 1.235 . S
C54 O60 1.287 . S
C54 O61 1.255 . S
O55 Fe44 1.976 . S
O55 C62 1.287 . S
O56 Fe45 1.996 1_556 S
O56 C62 1.255 . S
O57 Fe47 1.976 . S
O57 C52 1.287 1_554 S
O58 Fe44 1.996 . S
O58 C52 1.255 . S
C59 O63 1.295 . S
C59 O64 1.235 . S
O60 Fe45 1.976 . S
O60 C54 1.287 . S
O61 Fe47 1.996 . S
O61 C54 1.255 . S
C62 O55 1.287 . S
C62 O56 1.255 . S
O63 Fe45 2.002 . S
O63 C59 1.295 . S
O64 Fe47 1.997 . S
O64 C59 1.235 . S
C65 O48 1.295 1_556 S
C65 O49 1.235 . S
Fe66 O68 1.918 . S
Fe66 O71 1.997 . S
Fe66 O72 2.002 . S
Fe66 O77 1.976 . S
Fe66 O80 1.996 . S
Fe67 O68 1.918 . S
Fe67 O75 1.997 1_455 S
Fe67 O78 1.996 1_455 S
Fe67 O82 1.976 . S
Fe67 O85 2.002 . S
O68 Fe66 1.918 . S
O68 Fe67 1.918 . S
O68 Fe69 1.918 . S
Fe69 O68 1.918 . S
Fe69 O70 2.002 . S
Fe69 O79 1.976 . S
Fe69 O83 1.996 . S
Fe69 O86 1.997 . S
O70 Fe69 2.002 . S
O70 C87 1.295 . S
O71 Fe66 1.997 . S
O71 C87 1.235 . S
O72 Fe66 2.002 . S
O72 C73 1.295 . S
C73 O72 1.295 . S
C73 O75 1.235 1_455 S
C74 O79 1.287 . S
C74 O80 1.255 . S
O75 Fe67 1.997 1_655 S
O75 C73 1.235 1_655 S
C76 O82 1.287 . S
C76 O83 1.255 . S
O77 Fe66 1.976 . S
O77 C84 1.287 . S
O78 Fe67 1.996 1_655 S
O78 C84 1.255 1_655 S
O79 Fe69 1.976 . S
O79 C74 1.287 . S
O80 Fe66 1.996 . S
O80 C74 1.255 . S
C81 O85 1.295 . S
C81 O86 1.235 . S
O82 Fe67 1.976 . S
O82 C76 1.287 . S
O83 Fe69 1.996 . S
O83 C76 1.255 . S
C84 O77 1.287 . S
C84 O78 1.255 1_455 S
O85 Fe67 2.002 . S
O85 C81 1.295 . S
O86 Fe69 1.997 . S
O86 C81 1.235 . S
C87 O70 1.295 . S
C87 O71 1.235 . S
Fe88 O90 1.918 . S
Fe88 O93 1.997 . S
Fe88 O94 2.002 . S
Fe88 O99 1.976 . S
Fe88 O102 1.996 . S
Fe89 O90 1.918 . S
Fe89 O97 1.997 . S
Fe89 O100 1.996 . S
Fe89 O104 1.976 . S
Fe89 O107 2.002 . S
O90 Fe88 1.918 . S
O90 Fe89 1.918 . S
O90 Fe91 1.918 . S
Fe91 O90 1.918 . S
Fe91 O92 2.002 . S
Fe91 O101 1.976 . S
Fe91 O105 1.996 . S
Fe91 O108 1.997 . S
O92 Fe91 2.002 . S
O92 C109 1.295 . S
O93 Fe88 1.997 . S
O93 C109 1.235 . S
O94 Fe88 2.002 . S
O94 C95 1.295 . S
C95 O94 1.295 . S
C95 O97 1.235 . S
C96 O101 1.287 . S
C96 O102 1.255 . S
O97 Fe89 1.997 . S
O97 C95 1.235 . S
C98 O104 1.287 . S
C98 O105 1.255 . S
O99 Fe88 1.976 . S
O99 C106 1.287 . S
O100 Fe89 1.996 . S
O100 C106 1.255 . S
O101 Fe91 1.976 . S
O101 C96 1.287 . S
O102 Fe88 1.996 . S
O102 C96 1.255 . S
C103 O107 1.295 . S
C103 O108 1.235 . S
O104 Fe89 1.976 . S
O104 C98 1.287 . S
O105 Fe91 1.996 . S
O105 C98 1.255 . S
C106 O99 1.287 . S
C106 O100 1.255 . S
O107 Fe89 2.002 . S
O107 C103 1.295 . S
O108 Fe91 1.997 . S
O108 C103 1.235 . S
C109 O92 1.295 . S
C109 O93 1.235 . S
Fe110 O112 1.918 . S
Fe110 O115 1.997 . S
Fe110 O116 2.002 . S
Fe110 O121 1.976 . S
Fe110 O124 1.996 . S
Fe111 O112 1.918 . S
Fe111 O119 1.997 . S
Fe111 O122 1.996 . S
Fe111 O126 1.976 . S
Fe111 O129 2.002 . S
O112 Fe110 1.918 . S
O112 Fe111 1.918 . S
O112 Fe113 1.918 . S
Fe113 O112 1.918 . S
Fe113 O114 2.002 . S
Fe113 O123 1.976 . S
Fe113 O127 1.996 1_565 S
Fe113 O130 1.997 1_565 S
O114 Fe113 2.002 . S
O114 C131 1.295 . S
O115 Fe110 1.997 . S
O115 C131 1.235 . S
O116 Fe110 2.002 . S
O116 C117 1.295 . S
C117 O116 1.295 . S
C117 O119 1.235 . S
C118 O123 1.287 . S
C118 O124 1.255 . S
O119 Fe111 1.997 . S
O119 C117 1.235 . S
C120 O126 1.287 . S
C120 O127 1.255 1_565 S
O121 Fe110 1.976 . S
O121 C128 1.287 . S
O122 Fe111 1.996 . S
O122 C128 1.255 . S
O123 Fe113 1.976 . S
O123 C118 1.287 . S
O124 Fe110 1.996 . S
O124 C118 1.255 . S
C125 O129 1.295 . S
C125 O130 1.235 1_565 S
O126 Fe111 1.976 . S
O126 C120 1.287 . S
O127 Fe113 1.996 1_545 S
O127 C120 1.255 1_545 S
C128 O121 1.287 . S
C128 O122 1.255 . S
O129 Fe111 2.002 . S
O129 C125 1.295 . S
O130 Fe113 1.997 1_545 S
O130 C125 1.235 1_545 S
C131 O114 1.295 . S
C131 O115 1.235 . S
Fe132 O134 1.918 . S
Fe132 O137 1.997 . S
Fe132 O138 2.002 . S
Fe132 O143 1.976 . S
Fe132 O146 1.996 . S
Fe133 O134 1.918 . S
Fe133 O141 1.997 . S
Fe133 O144 1.996 . S
Fe133 O148 1.976 . S
Fe133 O151 2.002 . S
O134 Fe132 1.918 . S
O134 Fe133 1.918 . S
O134 Fe135 1.918 . S
Fe135 O134 1.918 . S
Fe135 O136 2.002 . S
Fe135 O145 1.976 . S
Fe135 O149 1.996 . S
Fe135 O152 1.997 . S
O136 Fe135 2.002 . S
O136 C153 1.295 . S
O137 Fe132 1.997 . S
O137 C153 1.235 . S
O138 Fe132 2.002 . S
O138 C139 1.295 . S
C139 O138 1.295 . S
C139 O141 1.235 . S
C140 O145 1.287 . S
C140 O146 1.255 . S
O141 Fe133 1.997 . S
O141 C139 1.235 . S
C142 O148 1.287 . S
C142 O149 1.255 . S
O143 Fe132 1.976 . S
O143 C150 1.287 . S
O144 Fe133 1.996 . S
O144 C150 1.255 . S
O145 Fe135 1.976 . S
O145 C140 1.287 . S
O146 Fe132 1.996 . S
O146 C140 1.255 . S
C147 O151 1.295 . S
C147 O152 1.235 . S
O148 Fe133 1.976 . S
O148 C142 1.287 . S
O149 Fe135 1.996 . S
O149 C142 1.255 . S
C150 O143 1.287 . S
C150 O144 1.255 . S
O151 Fe133 2.002 . S
O151 C147 1.295 . S
O152 Fe135 1.997 . S
O152 C147 1.235 . S
C153 O136 1.295 . S
C153 O137 1.235 . S
Fe154 O156 1.918 . S
Fe154 O159 1.997 . S
Fe154 O160 2.002 . S
Fe154 O165 1.976 . S
Fe154 O168 1.996 . S
Fe155 O156 1.918 . S
Fe155 O163 1.997 . S
Fe155 O166 1.996 . S
Fe155 O170 1.976 . S
Fe155 O173 2.002 . S
O156 Fe154 1.918 . S
O156 Fe155 1.918 . S
O156 Fe157 1.918 . S
Fe157 O156 1.918 . S
Fe157 O158 2.002 . S
Fe157 O167 1.976 . S
Fe157 O171 1.996 . S
Fe157 O174 1.997 . S
O158 Fe157 2.002 . S
O158 C175 1.295 . S
O159 Fe154 1.997 . S
O159 C175 1.235 . S
O160 Fe154 2.002 . S
O160 C161 1.295 . S
C161 O160 1.295 . S
C161 O163 1.235 . S
C162 O167 1.287 . S
C162 O168 1.255 . S
O163 Fe155 1.997 . S
O163 C161 1.235 . S
C164 O170 1.287 . S
C164 O171 1.255 . S
O165 Fe154 1.976 . S
O165 C172 1.287 . S
O166 Fe155 1.996 . S
O166 C172 1.255 . S
O167 Fe157 1.976 . S
O167 C162 1.287 . S
O168 Fe154 1.996 . S
O168 C162 1.255 . S
C169 O173 1.295 . S
C169 O174 1.235 . S
O170 Fe155 1.976 . S
O170 C164 1.287 . S
O171 Fe157 1.996 . S
O171 C164 1.255 . S
C172 O165 1.287 . S
C172 O166 1.255 . S
O173 Fe155 2.002 . S
O173 C169 1.295 . S
O174 Fe157 1.997 . S
O174 C169 1.235 . S
C175 O158 1.295 . S
C175 O159 1.235 . S
Fe176 O178 1.918 . S
Fe176 O181 1.997 . S
Fe176 O182 2.002 . S
Fe176 O187 1.976 . S
Fe176 O190 1.996 . S
Fe177 O178 1.918 . S
Fe177 O185 1.997 . S
Fe177 O188 1.996 . S
Fe177 O192 1.976 . S
Fe177 O195 2.002 . S
O178 Fe176 1.918 . S
O178 Fe177 1.918 . S
O178 Fe179 1.918 . S
Fe179 O178 1.918 . S
Fe179 O180 2.002 . S
Fe179 O189 1.976 . S
Fe179 O193 1.996 . S
Fe179 O196 1.997 . S
O180 Fe179 2.002 . S
O180 C197 1.295 . S
O181 Fe176 1.997 . S
O181 C197 1.235 . S
O182 Fe176 2.002 . S
O182 C183 1.295 . S
C183 O182 1.295 . S
C183 O185 1.235 . S
C184 O189 1.287 . S
C184 O190 1.255 . S
O185 Fe177 1.997 . S
O185 C183 1.235 . S
C186 O192 1.287 . S
C186 O193 1.255 . S
O187 Fe176 1.976 . S
O187 C194 1.287 . S
O188 Fe177 1.996 . S
O188 C194 1.255 . S
O189 Fe179 1.976 . S
O189 C184 1.287 . S
O190 Fe176 1.996 . S
O190 C184 1.255 . S
C191 O195 1.295 . S
C191 O196 1.235 . S
O192 Fe177 1.976 . S
O192 C186 1.287 . S
O193 Fe179 1.996 . S
O193 C186 1.255 . S
C194 O187 1.287 . S
C194 O188 1.255 . S
O195 Fe177 2.002 . S
O195 C191 1.295 . S
O196 Fe179 1.997 . S
O196 C191 1.235 . S
C197 O180 1.295 . S
C197 O181 1.235 . S
C198 C199 1.387 . S
C198 H202 0.950 . S
C198 C207 1.390 1_545 S
C199 C198 1.387 . S
C199 C201 1.387 . S
H200 C207 0.950 . S
C201 C199 1.387 . S
C201 C203 1.390 1_545 S
C201 H205 0.950 . S
H202 C198 0.950 . S
C203 C201 1.390 1_565 S
C203 C204 1.387 . S
C203 H206 0.950 . S
C204 C203 1.387 . S
C204 C207 1.387 . S
H205 C201 0.950 . S
H206 C203 0.950 . S
C207 C198 1.390 1_565 S
C207 H200 0.950 . S
C207 C204 1.387 . S
C208 C209 1.387 . S
C208 H212 0.950 . S
C208 C217 1.390 1_655 S
C209 C208 1.387 . S
C209 C211 1.387 . S
H210 C217 0.950 . S
C211 C209 1.387 . S
C211 C213 1.390 1_655 S
C211 H215 0.950 . S
H212 C208 0.950 . S
C213 C211 1.390 1_455 S
C213 C214 1.387 . S
C213 H216 0.950 . S
C214 C213 1.387 . S
C214 C217 1.387 . S
H215 C211 0.950 . S
H216 C213 0.950 . S
C217 C208 1.390 1_455 S
C217 H210 0.950 . S
C217 C214 1.387 . S
C218 C219 1.387 . S
C218 H222 0.950 . S
C218 C227 1.390 . S
C219 C218 1.387 . S
C219 C221 1.387 . S
H220 C227 0.950 . S
C221 C219 1.387 . S
C221 C223 1.390 . S
C221 H225 0.950 . S
H222 C218 0.950 . S
C223 C221 1.390 . S
C223 C224 1.387 . S
C223 H226 0.950 . S
C224 C223 1.387 . S
C224 C227 1.387 . S
H225 C221 0.950 . S
H226 C223 0.950 . S
C227 C218 1.390 . S
C227 H220 0.950 . S
C227 C224 1.387 . S
C228 C229 1.387 . S
C228 H232 0.950 . S
C228 C237 1.390 1_455 S
C229 C228 1.387 . S
C229 C231 1.387 . S
H230 C237 0.950 . S
C231 C229 1.387 . S
C231 C233 1.390 1_455 S
C231 H235 0.950 . S
H232 C228 0.950 . S
C233 C231 1.390 1_655 S
C233 C234 1.387 . S
C233 H236 0.950 . S
C234 C233 1.387 . S
C234 C237 1.387 . S
H235 C231 0.950 . S
H236 C233 0.950 . S
C237 C228 1.390 1_655 S
C237 H230 0.950 . S
C237 C234 1.387 . S
C238 C239 1.387 . S
C238 H242 0.950 . S
C238 C247 1.390 . S
C239 C238 1.387 . S
C239 C241 1.387 . S
H240 C247 0.950 . S
C241 C239 1.387 . S
C241 C243 1.390 . S
C241 H245 0.950 . S
H242 C238 0.950 . S
C243 C241 1.390 . S
C243 C244 1.387 . S
C243 H246 0.950 . S
C244 C243 1.387 . S
C244 C247 1.387 . S
H245 C241 0.950 . S
H246 C243 0.950 . S
C247 C238 1.390 . S
C247 H240 0.950 . S
C247 C244 1.387 . S
C248 C249 1.387 1_545 S
C248 H252 0.940 1_545 S
C248 C257 1.390 . S
C249 C248 1.387 1_565 S
C249 C251 1.387 . S
H250 C257 0.950 . S
C251 C249 1.387 . S
C251 C253 1.390 1_565 S
C251 H255 0.950 . S
H252 C248 0.940 1_565 S
C253 C251 1.390 1_545 S
C253 C254 1.387 . S
C253 H256 0.950 . S
C254 C253 1.387 . S
C254 C257 1.387 . S
H255 C251 0.950 . S
H256 C253 0.950 . S
C257 C248 1.390 . S
C257 H250 0.950 . S
C257 C254 1.387 . S
C258 C259 1.387 . S
C258 H262 0.950 . S
C258 C267 1.390 . S
C259 C258 1.387 . S
C259 C261 1.387 . S
H260 C267 0.950 . S
C261 C259 1.387 . S
C261 C263 1.390 . S
C261 H265 0.950 . S
H262 C258 0.950 . S
C263 C261 1.390 . S
C263 C264 1.388 . S
C263 H266 0.949 1_655 S
C264 C263 1.388 . S
C264 C267 1.387 . S
H265 C261 0.950 . S
H266 C263 0.949 1_455 S
C267 C258 1.390 . S
C267 H260 0.950 . S
C267 C264 1.387 . S
C268 C269 1.387 . S
C268 H272 0.950 . S
C268 C277 1.390 . S
C269 C268 1.387 . S
C269 C271 1.387 . S
H270 C277 0.950 . S
C271 C269 1.387 . S
C271 C273 1.390 . S
C271 H275 0.950 . S
H272 C268 0.950 . S
C273 C271 1.390 . S
C273 C274 1.387 . S
C273 H276 0.950 . S
C274 C273 1.387 . S
C274 C277 1.387 . S
H275 C271 0.950 . S
H276 C273 0.950 . S
C277 C268 1.390 . S
C277 H270 0.950 . S
C277 C274 1.387 . S
C278 C279 1.387 . S
C278 H282 0.950 . S
C278 C287 1.405 . S
C279 C278 1.387 . S
C279 C281 1.387 . S
H280 C287 0.934 1_565 S
C281 C279 1.387 . S
C281 C283 1.390 . S
C281 H285 0.950 . S
H282 C278 0.950 . S
C283 C281 1.390 . S
C283 C284 1.387 . S
C283 H286 0.950 . S
C284 C283 1.387 . S
C284 C287 1.388 . S
H285 C281 0.950 . S
H286 C283 0.950 . S
C287 C278 1.405 . S
C287 H280 0.934 1_545 S
C287 C284 1.388 . S
C288 C289 1.387 . S
C288 H292 0.950 . S
C288 C297 1.390 1_545 S
C289 C288 1.387 . S
C289 C291 1.387 . S
H290 C297 0.950 . S
C291 C289 1.387 . S
C291 C293 1.390 . S
C291 H295 0.950 . S
H292 C288 0.950 . S
C293 C291 1.390 . S
C293 C294 1.387 . S
C293 H296 0.950 . S
C294 C293 1.387 . S
C294 C297 1.387 1_545 S
H295 C291 0.950 . S
H296 C293 0.950 . S
C297 C288 1.390 1_565 S
C297 H290 0.950 . S
C297 C294 1.387 1_565 S
C298 C299 1.387 . S
C298 H302 0.950 . S
C298 C307 1.390 . S
C299 C298 1.387 . S
C299 C301 1.387 . S
H300 C307 0.950 . S
C301 C299 1.387 . S
C301 C303 1.390 . S
C301 H305 0.950 1_655 S
H302 C298 0.950 . S
C303 C301 1.390 . S
C303 C304 1.387 . S
C303 H306 0.950 . S
C304 C303 1.387 . S
C304 C307 1.387 . S
H305 C301 0.950 1_455 S
H306 C303 0.950 . S
C307 C298 1.390 . S
C307 H300 0.950 . S
C307 C304 1.387 . S
C308 C309 1.387 . S
C308 H312 0.950 . S
C308 C317 1.390 . S
C309 C308 1.387 . S
C309 C311 1.387 . S
H310 C317 0.950 . S
C311 C309 1.387 . S
C311 C313 1.390 . S
C311 H315 0.950 . S
H312 C308 0.950 . S
C313 C311 1.390 . S
C313 C314 1.387 . S
C313 H316 0.950 . S
C314 C313 1.387 . S
C314 C317 1.387 . S
H315 C311 0.950 . S
H316 C313 0.950 . S
C317 C308 1.390 . S
C317 H310 0.950 . S
C317 C314 1.387 . S
C318 C319 1.387 . S
C318 H322 0.950 . S
C318 C327 1.390 . S
C319 C318 1.387 . S
C319 C321 1.387 . S
H320 C327 0.950 . S
C321 C319 1.387 . S
C321 C323 1.390 . S
C321 H325 0.950 . S
H322 C318 0.950 . S
C323 C321 1.390 . S
C323 C324 1.387 . S
C323 H326 0.950 . S
C324 C323 1.387 . S
C324 C327 1.387 . S
H325 C321 0.950 . S
H326 C323 0.950 . S
C327 C318 1.390 . S
C327 H320 0.950 . S
C327 C324 1.387 . S
C328 C329 1.387 . S
C328 H332 0.950 1_565 S
C328 C337 1.390 . S
C329 C328 1.387 . S
C329 C331 1.387 . S
H330 C337 0.950 . S
C331 C329 1.387 . S
C331 C333 1.390 . S
C331 H335 0.950 . S
H332 C328 0.950 1_545 S
C333 C331 1.390 . S
C333 C334 1.387 . S
C333 H336 0.950 . S
C334 C333 1.387 . S
C334 C337 1.387 . S
H335 C331 0.950 . S
H336 C333 0.950 . S
C337 C328 1.390 . S
C337 H330 0.950 . S
C337 C334 1.387 . S
C338 C339 1.387 . S
C338 H342 0.950 . S
C338 C347 1.390 . S
C339 C338 1.387 . S
C339 C341 1.387 . S
H340 C347 0.950 . S
C341 C339 1.387 . S
C341 C343 1.390 . S
C341 H345 0.950 . S
H342 C338 0.950 . S
C343 C341 1.390 . S
C343 C344 1.387 . S
C343 H346 0.950 . S
C344 C343 1.387 . S
C344 C347 1.387 . S
H345 C341 0.950 . S
H346 C343 0.950 . S
C347 C338 1.390 . S
C347 H340 0.950 . S
C347 C344 1.387 . S
C348 C349 1.387 . S
C348 H352 0.950 . S
C348 C357 1.390 . S
C349 C348 1.387 . S
C349 C351 1.387 . S
H350 C357 0.950 . S
C351 C349 1.387 . S
C351 C353 1.390 . S
C351 H355 0.950 . S
H352 C348 0.950 . S
C353 C351 1.390 . S
C353 C354 1.387 . S
C353 H356 0.950 . S
C354 C353 1.387 . S
C354 C357 1.387 . S
H355 C351 0.950 . S
H356 C353 0.950 . S
C357 C348 1.390 . S
C357 H350 0.950 . S
C357 C354 1.387 . S
C358 C359 1.387 . S
C358 H362 0.950 . S
C358 C367 1.390 . S
C359 C358 1.387 . S
C359 C361 1.387 . S
H360 C367 0.950 . S
C361 C359 1.387 . S
C361 C363 1.390 . S
C361 H365 0.950 1_565 S
H362 C358 0.950 . S
C363 C361 1.390 . S
C363 C364 1.387 . S
C363 H366 0.950 . S
C364 C363 1.387 . S
C364 C367 1.387 . S
H365 C361 0.950 1_545 S
H366 C363 0.950 . S
C367 C358 1.390 . S
C367 H360 0.950 . S
C367 C364 1.387 . S
C368 C369 1.387 . S
C368 H372 0.950 . S
C368 C377 1.390 . S
C369 C368 1.387 . S
C369 C371 1.387 . S
H370 C377 0.950 . S
C371 C369 1.387 . S
C371 C373 1.390 . S
C371 H375 0.950 1_455 S
H372 C368 0.950 . S
C373 C371 1.390 . S
C373 C374 1.387 . S
C373 H376 0.950 . S
C374 C373 1.387 . S
C374 C377 1.387 . S
H375 C371 0.950 1_655 S
H376 C373 0.950 . S
C377 C368 1.390 . S
C377 H370 0.950 . S
C377 C374 1.387 . S
C378 C379 1.387 1_554 S
C378 H382 0.950 . S
C378 C387 1.390 . S
C379 C378 1.387 1_556 S
C379 C381 1.387 . S
H380 C387 0.950 . S
C381 C379 1.387 . S
C381 C383 1.390 . S
C381 H385 0.950 . S
H382 C378 0.950 . S
C383 C381 1.390 . S
C383 C384 1.387 . S
C383 H386 0.950 . S
C384 C383 1.387 . S
C384 C387 1.387 1_556 S
H385 C381 0.950 . S
H386 C383 0.950 . S
C387 C378 1.390 . S
C387 H380 0.950 . S
C387 C384 1.387 1_554 S
C388 C389 1.387 . S
C388 H392 0.950 . S
C388 C397 1.390 . S
C389 C388 1.387 . S
C389 C391 1.387 1_556 S
H390 C397 0.950 . S
C391 C389 1.387 1_554 S
C391 C393 1.390 . S
C391 H395 0.950 . S
H392 C388 0.950 . S
C393 C391 1.390 . S
C393 C394 1.387 1_554 S
C393 H396 0.950 . S
C394 C393 1.387 1_556 S
C394 C397 1.387 . S
H395 C391 0.950 . S
H396 C393 0.950 . S
C397 C388 1.390 . S
C397 H390 0.950 . S
C397 C394 1.387 . S
C398 C399 1.387 . S
C398 H402 0.950 . S
C398 C407 1.390 . S
C399 C398 1.387 . S
C399 C401 1.387 1_556 S
H400 C407 0.950 . S
C401 C399 1.387 1_554 S
C401 C403 1.390 . S
C401 H405 0.950 . S
H402 C398 0.950 . S
C403 C401 1.390 . S
C403 C404 1.387 1_554 S
C403 H406 0.950 . S
C404 C403 1.387 1_556 S
C404 C407 1.387 . S
H405 C401 0.950 . S
H406 C403 0.950 . S
C407 C398 1.390 . S
C407 H400 0.950 . S
C407 C404 1.387 . S
C408 C409 1.387 . S
C408 H412 0.950 . S
C408 C417 1.390 . S
C409 C408 1.387 . S
C409 C411 1.387 . S
H410 C417 0.950 . S
C411 C409 1.387 . S
C411 C413 1.390 . S
C411 H415 0.950 . S
H412 C408 0.950 . S
C413 C411 1.390 . S
C413 C414 1.387 . S
C413 H416 0.950 . S
C414 C413 1.387 . S
C414 C417 1.387 . S
H415 C411 0.950 . S
H416 C413 0.950 . S
C417 C408 1.390 . S
C417 H410 0.950 . S
C417 C414 1.387 . S
C418 C419 1.387 . S
C418 H422 0.950 . S
C418 C427 1.390 . S
C419 C418 1.387 . S
C419 C421 1.387 . S
H420 C427 0.950 . S
C421 C419 1.387 . S
C421 C423 1.390 . S
C421 H425 0.950 . S
H422 C418 0.950 . S
C423 C421 1.390 . S
C423 C424 1.387 . S
C423 H426 0.950 . S
C424 C423 1.387 . S
C424 C427 1.387 . S
H425 C421 0.950 . S
H426 C423 0.950 . S
C427 C418 1.390 . S
C427 H420 0.950 . S
C427 C424 1.387 . S
C428 C429 1.387 . S
C428 H432 0.950 . S
C428 C437 1.390 . S
C429 C428 1.387 . S
C429 C431 1.387 . S
H430 C437 0.950 . S
C431 C429 1.387 . S
C431 C433 1.390 . S
C431 H435 0.950 . S
H432 C428 0.950 . S
C433 C431 1.390 . S
C433 C434 1.387 . S
C433 H436 0.950 . S
C434 C433 1.387 . S
C434 C437 1.387 . S
H435 C431 0.950 . S
H436 C433 0.950 . S
C437 C428 1.390 . S
C437 H430 0.950 . S
C437 C434 1.387 . S
C438 C439 1.387 . S
C438 H442 0.950 . S
C438 C447 1.390 . S
C439 C438 1.387 . S
C439 C441 1.387 . S
H440 C447 0.950 . S
C441 C439 1.387 . S
C441 C443 1.390 . S
C441 H445 0.950 . S
H442 C438 0.950 . S
C443 C441 1.390 . S
C443 C444 1.387 . S
C443 H446 0.950 . S
C444 C443 1.387 . S
C444 C447 1.387 . S
H445 C441 0.950 . S
H446 C443 0.950 . S
C447 C438 1.390 . S
C447 H440 0.950 . S
C447 C444 1.387 . S
C448 C449 1.387 . S
C448 H452 0.950 . S
C448 C457 1.390 . S
C449 C448 1.387 . S
C449 C451 1.387 . S
H450 C457 0.950 . S
C451 C449 1.387 . S
C451 C453 1.390 . S
C451 H455 0.950 . S
H452 C448 0.950 . S
C453 C451 1.390 . S
C453 C454 1.387 . S
C453 H456 0.950 . S
C454 C453 1.387 . S
C454 C457 1.387 . S
H455 C451 0.950 . S
H456 C453 0.950 . S
C457 C448 1.390 . S
C457 H450 0.950 . S
C457 C454 1.387 . S
C458 C459 1.387 . S
C458 H462 0.950 . S
C458 C467 1.390 . S
C459 C458 1.387 . S
C459 C461 1.387 . S
H460 C467 0.950 . S
C461 C459 1.387 . S
C461 C463 1.390 . S
C461 H465 0.950 . S
H462 C458 0.950 . S
C463 C461 1.390 . S
C463 C464 1.387 . S
C463 H466 0.950 . S
C464 C463 1.387 . S
C464 C467 1.387 . S
H465 C461 0.950 . S
H466 C463 0.950 . S
C467 C458 1.390 . S
C467 H460 0.950 . S
C467 C464 1.387 . S
C199 C18 1.395 . S
C204 C164 1.339 . S
C209 C30 1.396 . S
C214 C194 1.342 . S
C219 C142 1.339 . S
C224 C62 1.395 . S
C229 C169 1.438 . S
C234 C51 1.457 . S
C239 C183 1.439 . S
C244 C7 1.456 . S
C249 C147 1.439 . S
C254 C43 1.456 . S
C259 C40 1.339 . S
C264 C84 1.395 1_655 S
C269 C106 1.396 . S
C274 C54 1.342 . S
C279 C10 1.342 . S
C284 C120 1.395 1_545 S
C289 C29 1.438 . S
C294 C125 1.457 1_545 S
C299 C73 1.456 1_655 S
C304 C59 1.438 . S
C309 C15 1.438 . S
C314 C95 1.457 . S
C319 C150 1.395 . S
C324 C98 1.341 . S
C329 C118 1.341 . S
C334 C172 1.396 . S
C339 C184 1.395 . S
C344 C76 1.339 . S
C349 C197 1.457 . S
C354 C103 1.438 . S
C359 C131 1.439 . S
C364 C139 1.455 . S
C369 C81 1.439 . S
C374 C161 1.455 . S
C379 C8 1.081 . S
C384 C37 1.068 . S
C389 C65 1.064 . S
C394 C32 1.083 . S
C399 C52 1.082 . S
C404 C21 1.064 . S
C409 C109 1.067 . S
C414 C74 1.081 . S
C419 C117 1.068 . S
C424 C96 1.081 . S
C429 C128 1.082 . S
C434 C87 1.064 . S
C439 C175 1.065 1_655 S
C444 C140 1.082 . S
C449 C162 1.082 1_545 S
C454 C191 1.064 . S
C459 C153 1.068 1_545 S
C464 C186 1.081 1_655 S
