# Generated by pormake.
# Topology umz, (4)-cn, num edge types: 1
# Building blocks:
#     Node 0, Type 0, BuildingBlock: AZAVOO_clean_sbu_0, # of connection points: 4
#     Node 1, Type 0, BuildingBlock: AZAVOO_clean_sbu_0, # of connection points: 4
#     Node 2, Type 0, BuildingBlock: AZAVOO_clean_sbu_0, # of connection points: 4
#     Node 3, Type 0, BuildingBlock: AZAVOO_clean_sbu_0, # of connection points: 4
#     Node 4, Type 0, BuildingBlock: AZAVOO_clean_sbu_0, # of connection points: 4
#     Node 5, Type 0, BuildingBlock: AZAVOO_clean_sbu_0, # of connection points: 4
#     Node 6, Type 0, BuildingBlock: AZAVOO_clean_sbu_0, # of connection points: 4
#     Node 7, Type 0, BuildingBlock: AZAVOO_clean_sbu_0, # of connection points: 4
#     Node 8, Type 0, BuildingBlock: AZAVOO_clean_sbu_0, # of connection points: 4
#     Node 9, Type 0, BuildingBlock: AZAVOO_clean_sbu_0, # of connection points: 4
#     Node 10, Type 0, BuildingBlock: AZAVOO_clean_sbu_0, # of connection points: 4
#     Node 11, Type 0, BuildingBlock: AZAVOO_clean_sbu_0, # of connection points: 4
#     Node 12, Type 0, BuildingBlock: AZAVOO_clean_sbu_0, # of connection points: 4
#     Node 13, Type 0, BuildingBlock: AZAVOO_clean_sbu_0, # of connection points: 4
#     Node 14, Type 0, BuildingBlock: AZAVOO_clean_sbu_0, # of connection points: 4
#     Node 15, Type 0, BuildingBlock: AZAVOO_clean_sbu_0, # of connection points: 4
#     Edge 16, Type (0, 0), BuildingBlock: EZIPEK_clean_linker_0, # of connection points: 2
#     Edge 17, Type (0, 0), BuildingBlock: EZIPEK_clean_linker_0, # of connection points: 2
#     Edge 18, Type (0, 0), BuildingBlock: EZIPEK_clean_linker_0, # of connection points: 2
#     Edge 19, Type (0, 0), BuildingBlock: EZIPEK_clean_linker_0, # of connection points: 2
#     Edge 20, Type (0, 0), BuildingBlock: EZIPEK_clean_linker_0, # of connection points: 2
#     Edge 21, Type (0, 0), BuildingBlock: EZIPEK_clean_linker_0, # of connection points: 2
#     Edge 22, Type (0, 0), BuildingBlock: EZIPEK_clean_linker_0, # of connection points: 2
#     Edge 23, Type (0, 0), BuildingBlock: EZIPEK_clean_linker_0, # of connection points: 2
#     Edge 24, Type (0, 0), BuildingBlock: EZIPEK_clean_linker_0, # of connection points: 2
#     Edge 25, Type (0, 0), BuildingBlock: EZIPEK_clean_linker_0, # of connection points: 2
#     Edge 26, Type (0, 0), BuildingBlock: EZIPEK_clean_linker_0, # of connection points: 2
#     Edge 27, Type (0, 0), BuildingBlock: EZIPEK_clean_linker_0, # of connection points: 2
#     Edge 28, Type (0, 0), BuildingBlock: EZIPEK_clean_linker_0, # of connection points: 2
#     Edge 29, Type (0, 0), BuildingBlock: EZIPEK_clean_linker_0, # of connection points: 2
#     Edge 30, Type (0, 0), BuildingBlock: EZIPEK_clean_linker_0, # of connection points: 2
#     Edge 31, Type (0, 0), BuildingBlock: EZIPEK_clean_linker_0, # of connection points: 2
#     Edge 32, Type (0, 0), BuildingBlock: EZIPEK_clean_linker_0, # of connection points: 2
#     Edge 33, Type (0, 0), BuildingBlock: EZIPEK_clean_linker_0, # of connection points: 2
#     Edge 34, Type (0, 0), BuildingBlock: EZIPEK_clean_linker_0, # of connection points: 2
#     Edge 35, Type (0, 0), BuildingBlock: EZIPEK_clean_linker_0, # of connection points: 2
#     Edge 36, Type (0, 0), BuildingBlock: EZIPEK_clean_linker_0, # of connection points: 2
#     Edge 37, Type (0, 0), BuildingBlock: EZIPEK_clean_linker_0, # of connection points: 2
#     Edge 38, Type (0, 0), BuildingBlock: EZIPEK_clean_linker_0, # of connection points: 2
#     Edge 39, Type (0, 0), BuildingBlock: EZIPEK_clean_linker_0, # of connection points: 2
#     Edge 40, Type (0, 0), BuildingBlock: EZIPEK_clean_linker_0, # of connection points: 2
#     Edge 41, Type (0, 0), BuildingBlock: EZIPEK_clean_linker_0, # of connection points: 2
#     Edge 42, Type (0, 0), BuildingBlock: EZIPEK_clean_linker_0, # of connection points: 2
#     Edge 43, Type (0, 0), BuildingBlock: EZIPEK_clean_linker_0, # of connection points: 2
#     Edge 44, Type (0, 0), BuildingBlock: EZIPEK_clean_linker_0, # of connection points: 2
#     Edge 45, Type (0, 0), BuildingBlock: EZIPEK_clean_linker_0, # of connection points: 2
#     Edge 46, Type (0, 0), BuildingBlock: EZIPEK_clean_linker_0, # of connection points: 2
#     Edge 47, Type (0, 0), BuildingBlock: EZIPEK_clean_linker_0, # of connection points: 2
# Relax obj value: 0.264
# Max RMSD: 0.177
# Mean RMSD: 0.177
data_MOF--net-umz--node1-AZAVOO_clean_sbu_0--edge1-EZIPEK_clean_linker_0
_symmetry_space_group_name_H-M    P1
_symmetry_Int_Tables_number       1
_symmetry_cell_setting            triclinic
loop_
_symmetry_equiv_pos_as_xyz
'x, y, z'
_cell_length_a     44.778335
_cell_length_b     44.740647
_cell_length_c     14.798147
_cell_angle_alpha  90.004526
_cell_angle_beta   89.993655
_cell_angle_gamma 89.998993
loop_
_atom_site_label
_atom_site_type_symbol
_atom_site_fract_x
_atom_site_fract_y
_atom_site_fract_z
_atom_type_partial_charge
Mg0 Mg 0.98884 0.61607 0.9184 0.0
O1 O 0.02517 0.59646 0.00649 0.0
O2 O 0.0702 0.61216 0.96393 0.0
Mg3 Mg 0.06251 0.6396 0.8335 0.0
C4 C 0.05338 0.59675 0.01574 0.0
C5 C 0.94556 0.62009 0.09316 0.0
O6 O 0.94701 0.64914 0.08117 0.0
O7 O 0.99498 0.66407 0.97152 0.0
O8 O 0.03799 0.67761 0.90559 0.0
O9 O 0.99396 0.57573 0.82713 0.0
O10 O 0.01889 0.61786 0.81024 0.0
C11 C 0.0148 0.68367 0.95225 0.0
C12 C 0.0146 0.59073 0.78578 0.0
O13 O 0.95736 0.60257 0.03542 0.0
Mg14 Mg 0.8824 0.98772 0.44084 0.0
O15 O 0.9003 0.02355 0.53409 0.0
O16 O 0.88329 0.06855 0.49611 0.0
Mg17 Mg 0.85718 0.06163 0.36302 0.0
C18 C 0.89924 0.05164 0.5461 0.0
C19 C 0.91882 0.95565 0.59522 0.0
O20 O 0.93802 0.97639 0.57139 0.0
O21 O 0.83385 0.99156 0.4918 0.0
O22 O 0.81961 0.03508 0.43024 0.0
O23 O 0.92353 0.99508 0.35476 0.0
O24 O 0.88098 0.01927 0.33643 0.0
C25 C 0.81387 0.01115 0.47383 0.0
C26 C 0.90849 0.01594 0.31456 0.0
O27 O 0.89432 0.95319 0.55196 0.0
Mg28 Mg 0.51854 0.88712 0.93544 0.0
O29 O 0.48257 0.90648 0.02559 0.0
O30 O 0.43756 0.88981 0.98632 0.0
Mg31 Mg 0.44465 0.86222 0.85603 0.0
C32 C 0.45442 0.90581 0.0363 0.0
C33 C 0.56279 0.88592 0.10922 0.0
O34 O 0.55897 0.85683 0.10705 0.0
O35 O 0.5136 0.83906 0.99049 0.0
O36 O 0.4702 0.82499 0.92792 0.0
O37 O 0.51206 0.92709 0.84428 0.0
O38 O 0.48778 0.88442 0.82925 0.0
C39 C 0.49377 0.81924 0.97314 0.0
C40 C 0.49144 0.91162 0.80452 0.0
O41 O 0.5513 0.90217 0.04763 0.0
Mg42 Mg 0.61673 0.51302 0.4452 0.0
O43 O 0.59687 0.47901 0.54259 0.0
O44 O 0.61267 0.43325 0.50663 0.0
Mg45 Mg 0.63969 0.43767 0.37441 0.0
C46 C 0.59714 0.45088 0.5556 0.0
C47 C 0.58169 0.55139 0.59017 0.0
O48 O 0.55977 0.53386 0.56439 0.0
O49 O 0.66473 0.50803 0.49783 0.0
O50 O 0.67809 0.46384 0.43898 0.0
O51 O 0.57583 0.50649 0.35713 0.0
O52 O 0.61745 0.48047 0.34416 0.0
C53 C 0.68427 0.48794 0.48109 0.0
C54 C 0.59035 0.48471 0.31967 0.0
O55 O 0.60699 0.54945 0.55144 0.0
Mg56 Mg 0.99553 0.87698 0.07929 0.0
O57 O 0.02563 0.89502 0.97177 0.0
O58 O 0.07307 0.88251 0.99314 0.0
Mg59 Mg 0.07272 0.8511 0.11788 0.0
C60 C 0.05287 0.89669 0.94998 0.0
C61 C 0.95629 0.88301 0.9011 0.0
O62 O 0.96771 0.85648 0.88569 0.0
O63 O 0.99605 0.82907 0.02226 0.0
O64 O 0.04294 0.81498 0.055 0.0
O65 O 0.01002 0.91598 0.16873 0.0
O66 O 0.03153 0.87179 0.17046 0.0
C67 C 0.01683 0.80943 0.02463 0.0
C68 C 0.03083 0.89866 0.19947 0.0
O69 O 0.95975 0.89496 0.9788 0.0
Mg70 Mg 0.61972 0.98936 0.58654 0.0
O71 O 0.60133 0.02523 0.49421 0.0
O72 O 0.619 0.07009 0.53143 0.0
Mg73 Mg 0.64636 0.06312 0.66216 0.0
C74 C 0.60265 0.05332 0.4822 0.0
C75 C 0.62037 0.94394 0.41559 0.0
O76 O 0.6495 0.94714 0.41852 0.0
O77 O 0.66789 0.99278 0.53171 0.0
O78 O 0.68305 0.03616 0.59218 0.0
O79 O 0.5798 0.99734 0.67678 0.0
O80 O 0.62292 0.02077 0.69117 0.0
C81 C 0.6882 0.01217 0.5482 0.0
C82 C 0.59561 0.01788 0.71567 0.0
O83 O 0.60416 0.9562 0.47592 0.0
Mg84 Mg 0.51185 0.62486 0.08715 0.0
O85 O 0.47352 0.60843 0.00102 0.0
O86 O 0.42965 0.62596 0.04819 0.0
Mg87 Mg 0.44045 0.65347 0.17643 0.0
C88 C 0.44528 0.61003 0.99448 0.0
C89 C 0.55188 0.6229 0.904 0.0
O90 O 0.55055 0.65221 0.90604 0.0
O91 O 0.50903 0.67313 0.03351 0.0
O92 O 0.46709 0.68926 0.10062 0.0
O93 O 0.5043 0.5851 0.17843 0.0
O94 O 0.48269 0.62897 0.19728 0.0
C95 C 0.4904 0.69388 0.05295 0.0
C96 C 0.48504 0.60151 0.22087 0.0
O97 O 0.54127 0.60776 0.96946 0.0
Mg98 Mg 0.87823 0.51994 0.56202 0.0
O99 O 0.89486 0.4897 0.45083 0.0
O100 O 0.88535 0.44219 0.4864 0.0
Mg101 Mg 0.86031 0.44206 0.62226 0.0
C102 C 0.89695 0.46192 0.43485 0.0
C103 C 0.91136 0.5614 0.42604 0.0
O104 O 0.9338 0.5465 0.46102 0.0
O105 O 0.8291 0.51446 0.52097 0.0
O106 O 0.81973 0.46782 0.56868 0.0
O107 O 0.92221 0.51211 0.6344 0.0
O108 O 0.88185 0.48477 0.65597 0.0
C109 C 0.81123 0.49264 0.53479 0.0
C110 C 0.90967 0.48909 0.67137 0.0
O111 O 0.88528 0.55784 0.45865 0.0
Mg112 Mg 0.01025 0.38398 0.05505 0.0
O113 O 0.97988 0.40168 0.94779 0.0
O114 O 0.93322 0.38524 0.96234 0.0
Mg115 Mg 0.93307 0.3608 0.10095 0.0
C116 C 0.95297 0.40086 0.92192 0.0
C117 C 0.04965 0.38402 0.87581 0.0
O118 O 0.03746 0.35758 0.86518 0.0
O119 O 0.00793 0.33483 0.0085 0.0
O120 O 0.96179 0.32185 0.05197 0.0
O121 O 1.00026 0.42591 0.13304 0.0
O122 O 0.97408 0.38446 0.14839 0.0
C123 C 0.98743 0.3153 0.02015 0.0
C124 C 0.97774 0.41218 0.16894 0.0
O125 O 0.04654 0.39762 0.95101 0.0
Mg126 Mg 0.12358 0.00545 0.55242 0.0
O127 O 0.11498 0.96696 0.45687 0.0
O128 O 0.13414 0.92461 0.50894 0.0
Mg129 Mg 0.15323 0.93591 0.6496 0.0
C130 C 0.12009 0.93914 0.44824 0.0
C131 C 0.12568 0.04923 0.37559 0.0
O132 O 0.15479 0.05032 0.3858 0.0
O133 O 0.17374 0.00661 0.51827 0.0
O134 O 0.18998 0.96526 0.5884 0.0
O135 O 0.08026 0.99474 0.62171 0.0
O136 O 0.12376 0.97535 0.66134 0.0
C137 C 0.1948 0.98914 0.54345 0.0
C138 C 0.09526 0.97629 0.67143 0.0
O139 O 0.10966 0.03553 0.43333 0.0
Mg140 Mg 0.48904 0.11914 0.08685 0.0
O141 O 0.52504 0.10112 0.99423 0.0
O142 O 0.5697 0.11918 0.03156 0.0
Mg143 Mg 0.56247 0.14633 0.16272 0.0
C144 C 0.5531 0.10269 0.98222 0.0
C145 C 0.44376 0.11979 0.91598 0.0
O146 O 0.44671 0.14897 0.91957 0.0
O147 O 0.49198 0.1675 0.03305 0.0
O148 O 0.53514 0.183 0.09384 0.0
O149 O 0.4973 0.07912 0.17641 0.0
O150 O 0.52035 0.12247 0.19146 0.0
C151 C 0.5111 0.18801 0.05009 0.0
C152 C 0.51767 0.09508 0.21557 0.0
O153 O 0.45608 0.10353 0.97603 0.0
Mg154 Mg 0.38231 0.4977 0.59215 0.0
O155 O 0.40146 0.534 0.50379 0.0
O156 O 0.38319 0.57881 0.53809 0.0
Mg157 Mg 0.35427 0.57117 0.66566 0.0
C158 C 0.40016 0.56202 0.49093 0.0
C159 C 0.38476 0.45171 0.4228 0.0
O160 O 0.35565 0.44981 0.43191 0.0
O161 O 0.33515 0.50099 0.53035 0.0
O162 O 0.31888 0.54407 0.59037 0.0
O163 O 0.42059 0.50565 0.68863 0.0
O164 O 0.37706 0.5286 0.69739 0.0
C165 C 0.31452 0.52021 0.54498 0.0
C166 C 0.40386 0.52571 0.72635 0.0
O167 O 0.40001 0.46641 0.48017 0.0
Mg168 Mg 0.01303 0.12077 0.93519 0.0
O169 O 0.97961 0.10058 0.03467 0.0
O170 O 0.93374 0.11636 1.00001 0.0
Mg171 Mg 0.93737 0.14341 0.86763 0.0
C172 C 0.95153 0.10085 0.04855 0.0
C173 C 0.05526 0.08439 0.06612 0.0
O174 O 0.04064 0.06187 0.03027 0.0
O175 O 0.00821 0.16891 0.98801 0.0
O176 O 0.96376 0.18193 0.93051 0.0
O177 O 0.00638 0.07989 0.84714 0.0
O178 O 0.98007 0.1214 0.8358 0.0
C179 C 0.98799 0.18835 0.97153 0.0
C180 C 0.98438 0.09435 0.81077 0.0
O181 O 0.05008 0.11083 0.03864 0.0
Mg182 Mg 0.38824 0.01761 0.43549 0.0
O183 O 0.40764 0.98175 0.52595 0.0
O184 O 0.39081 0.93667 0.4876 0.0
Mg185 Mg 0.36309 0.94358 0.35758 0.0
C186 C 0.40692 0.95359 0.53709 0.0
C187 C 0.38687 0.06227 0.60789 0.0
O188 O 0.3578 0.05862 0.6048 0.0
O189 O 0.34034 0.0129 0.4914 0.0
O190 O 0.32607 0.96948 0.42929 0.0
O191 O 0.42805 0.01091 0.34385 0.0
O192 O 0.38537 0.98663 0.32974 0.0
C193 C 0.32046 0.99312 0.47446 0.0
C194 C 0.41251 0.99024 0.30453 0.0
O195 O 0.40328 0.05056 0.5471 0.0
Mg196 Mg 0.48404 0.38234 0.94712 0.0
O197 O 0.51957 0.40076 0.04105 0.0
O198 O 0.56473 0.3842 0.00315 0.0
Mg199 Mg 0.55828 0.35795 0.87006 0.0
C200 C 0.54766 0.39998 0.05315 0.0
C201 C 0.4513 0.41811 0.10228 0.0
O202 O 0.47195 0.4377 0.08081 0.0
O203 O 0.48839 0.33376 0.9982 0.0
O204 O 0.53209 0.32005 0.93682 0.0
O205 O 0.49094 0.42343 0.86061 0.0
O206 O 0.51563 0.38109 0.84329 0.0
C207 C 0.50821 0.31399 0.98018 0.0
C208 C 0.51197 0.40851 0.82082 0.0
O209 O 0.44918 0.39391 0.05724 0.0
Mg210 Mg 0.12372 0.48775 0.41589 0.0
O211 O 0.10196 0.52207 0.50794 0.0
O212 O 0.1156 0.56835 0.47108 0.0
Mg213 Mg 0.14446 0.5636 0.34232 0.0
C214 C 0.10075 0.55017 0.52012 0.0
C215 C 0.0873 0.45319 0.56352 0.0
O216 O 0.06719 0.47248 0.53572 0.0
O217 O 0.17081 0.49502 0.47372 0.0
O218 O 0.18286 0.53955 0.4144 0.0
O219 O 0.08401 0.49184 0.32211 0.0
O220 O 0.12465 0.51952 0.31259 0.0
C221 C 0.18961 0.51596 0.45844 0.0
C222 C 0.09819 0.51382 0.28452 0.0
O223 O 0.11261 0.45224 0.52426 0.0
C224 C 0.01004 0.72616 0.06307 0.0
C225 C 0.00919 0.71561 0.97291 0.0
C226 C 0.00842 0.7672 0.91564 0.0
C227 C 0.00975 0.77772 0.00563 0.0
N228 N 0.00409 0.76824 0.16507 0.0
N229 N 0.99921 0.72531 0.8154 0.0
C230 C 0.00798 0.75744 0.07943 0.0
C231 C 0.0057 0.73596 0.89975 0.0
N232 N 0.01437 0.70647 0.13249 0.0
N233 N 0.01111 0.78692 0.84554 0.0
H234 H 0.99652 0.70258 0.80184 0.0
H235 H 0.99369 0.73897 0.76096 0.0
H236 H 0.01231 0.80999 0.85509 0.0
H237 H 0.01392 0.78039 0.77855 0.0
H238 H 0.01867 0.71298 0.19875 0.0
H239 H 0.01553 0.6834 0.12289 0.0
H240 H 0.99985 0.75473 0.22086 0.0
H241 H 0.00238 0.79104 0.17909 0.0
C242 C 0.73035 0.00498 0.43734 0.0
C243 C 0.71991 0.00535 0.5276 0.0
C244 C 0.77153 0.00485 0.58437 0.0
C245 C 0.782 0.00495 0.49412 0.0
N246 N 0.77212 0.99674 0.33586 0.0
N247 N 0.72971 0.99699 0.68583 0.0
C248 C 0.76156 1.0023 0.42091 0.0
C249 C 0.74031 0.00247 0.60078 0.0
N250 N 0.71065 0.00866 0.36766 0.0
N251 N 0.7912 0.00858 0.6541 0.0
H252 H 0.70698 0.99462 0.69978 0.0
H253 H 0.74339 0.99189 0.74058 0.0
H254 H 0.81424 0.00989 0.64466 0.0
H255 H 0.78462 0.01232 0.72064 0.0
H256 H 0.71718 0.01217 0.30097 0.0
H257 H 0.68761 0.01005 0.37728 0.0
H258 H 0.75841 0.99182 0.28103 0.0
H259 H 0.79483 0.99418 0.32191 0.0
C260 C 0.50131 0.76652 0.92242 0.0
C261 C 0.49946 0.78737 0.99483 0.0
C262 C 0.50142 0.74609 0.10305 0.0
C263 C 0.49755 0.72543 0.03086 0.0
N264 N 0.49293 0.71565 0.8714 0.0
N265 N 0.49694 0.79741 0.15456 0.0
C266 C 0.49771 0.73548 0.94018 0.0
C267 C 0.49976 0.77732 0.08549 0.0
N268 N 0.50703 0.77651 0.83684 0.0
N269 N 0.50723 0.73574 0.18818 0.0
H270 H 0.4962 0.82046 0.14421 0.0
H271 H 0.49342 0.79122 0.22154 0.0
H272 H 0.50919 0.71301 0.20294 0.0
H273 H 0.51302 0.74956 0.242 0.0
H274 H 0.51139 0.76235 0.78255 0.0
H275 H 0.51037 0.79906 0.82193 0.0
H276 H 0.48927 0.72209 0.8047 0.0
H277 H 0.49063 0.69271 0.88186 0.0
C278 C 0.72825 0.4933 0.58565 0.0
C279 C 0.71626 0.49444 0.49726 0.0
C280 C 0.7667 0.49802 0.43266 0.0
C281 C 0.77873 0.49681 0.52103 0.0
N282 N 0.77145 0.50075 0.68208 0.0
N283 N 0.72289 0.50548 0.33897 0.0
C284 C 0.75959 0.49681 0.59777 0.0
C285 C 0.73518 0.49924 0.42145 0.0
N286 N 0.70988 0.48757 0.65738 0.0
N287 N 0.78531 0.49654 0.35952 0.0
H288 H 0.69988 0.50683 0.32855 0.0
H289 H 0.73535 0.51205 0.28299 0.0
H290 H 0.80852 0.49621 0.36529 0.0
H291 H 0.77781 0.49367 0.2935 0.0
H292 H 0.71761 0.48293 0.72222 0.0
H293 H 0.68676 0.48564 0.65089 0.0
H294 H 0.75859 0.5038 0.73997 0.0
H295 H 0.79427 0.50374 0.69315 0.0
C296 C 0.99572 0.27077 0.91963 0.0
C297 C 0.99416 0.28315 0.00747 0.0
C298 C 0.99325 0.23286 0.07441 0.0
C299 C 0.9943 0.22049 0.98647 0.0
N300 N 0.00463 0.22676 0.82767 0.0
N301 N 0.99918 0.2769 0.16855 0.0
C302 C 0.99819 0.23924 0.90975 0.0
C303 C 0.99547 0.2644 0.08498 0.0
N304 N 0.99332 0.28898 0.8458 0.0
N305 N 0.98872 0.2146 0.14718 0.0
H306 H 1.00116 0.29992 0.17827 0.0
H307 H 0.00304 0.26452 0.22694 0.0
H308 H 0.98779 0.19136 0.14173 0.0
H309 H 0.98418 0.22243 0.21198 0.0
H310 H 0.9907 0.28107 0.78011 0.0
H311 H 0.99207 0.3122 0.85076 0.0
H312 H 0.01047 0.23918 0.77086 0.0
H313 H 0.00689 0.20374 0.81842 0.0
C314 C 0.27777 0.99858 0.58436 0.0
C315 C 0.28861 0.99926 0.49458 0.0
C316 C 0.23735 0.99829 0.4355 0.0
C317 C 0.22643 0.99704 0.5253 0.0
N318 N 0.23525 0.00463 0.6844 0.0
N319 N 0.27926 0.009 0.3369 0.0
C320 C 0.2464 0.99999 0.59957 0.0
C321 C 0.26848 1.00219 0.42085 0.0
N322 N 0.29729 0.99513 0.65458 0.0
N323 N 0.21836 0.99396 0.36433 0.0
H324 H 0.30194 0.01241 0.32432 0.0
H325 H 0.26562 0.01422 0.28213 0.0
H326 H 0.19539 0.9911 0.37197 0.0
H327 H 0.2256 0.99104 0.29804 0.0
H328 H 0.2906 0.99091 0.72074 0.0
H329 H 0.3204 0.99476 0.64575 0.0
H330 H 0.24853 0.00962 0.74016 0.0
H331 H 0.2124 0.0064 0.69729 0.0
C332 C 0.50073 0.23982 0.10472 0.0
C333 C 0.50382 0.21973 0.03076 0.0
C334 C 0.49985 0.26177 0.92564 0.0
C335 C 0.50232 0.28198 0.99953 0.0
N336 N 0.50598 0.29066 0.15974 0.0
N337 N 0.50691 0.21113 0.87043 0.0
C338 C 0.50253 0.27116 0.08939 0.0
C339 C 0.50307 0.23051 0.94089 0.0
N340 N 0.49557 0.22879 0.18947 0.0
N341 N 0.49397 0.27258 0.84109 0.0
H342 H 0.50872 0.18807 0.8792 0.0
H343 H 0.51015 0.21798 0.80391 0.0
H344 H 0.49102 0.29531 0.82805 0.0
H345 H 0.48917 0.259 0.78583 0.0
H346 H 0.49035 0.24219 0.24479 0.0
H347 H 0.4936 0.20596 0.20267 0.0
H348 H 0.50994 0.2839 0.226 0.0
H349 H 0.50679 0.31378 0.15105 0.0
C350 C 0.27373 0.5134 0.42967 0.0
C351 C 0.28318 0.51315 0.52088 0.0
C352 C 0.23104 0.51105 0.57254 0.0
C353 C 0.22154 0.51151 0.48134 0.0
N354 N 0.23336 0.50484 0.3235 0.0
N355 N 0.27192 0.50342 0.67753 0.0
C356 C 0.2428 0.51006 0.40995 0.0
C357 C 0.2621 0.50929 0.59185 0.0
N358 N 0.29406 0.51821 0.36232 0.0
N359 N 0.21054 0.51377 0.64053 0.0
H360 H 0.29453 0.5015 0.69363 0.0
H361 H 0.25779 0.49759 0.73055 0.0
H362 H 0.18759 0.51469 0.62889 0.0
H363 H 0.21631 0.51715 0.70792 0.0
H364 H 0.28816 0.52218 0.29534 0.0
H365 H 0.31693 0.52013 0.37439 0.0
H366 H 0.24782 0.50073 0.26983 0.0
H367 H 0.21092 0.50175 0.30693 0.0
C368 C 0.05457 0.5546 0.7361 0.0
C369 C 0.03407 0.57771 0.71458 0.0
C370 C 0.05631 0.58209 0.5631 0.0
C371 C 0.07909 0.56153 0.58863 0.0
N372 N 0.10272 0.5321 0.70503 0.0
N373 N 0.01584 0.61463 0.60933 0.0
C374 C 0.07885 0.54868 0.67653 0.0
C375 C 0.03518 0.59183 0.62864 0.0
N376 N 0.051 0.53828 0.81338 0.0
N377 N 0.05366 0.59112 0.47516 0.0
H378 H 0.9979 0.62032 0.65091 0.0
H379 H 0.01829 0.62881 0.554 0.0
H380 H 0.06846 0.58503 0.42426 0.0
H381 H 0.03527 0.60276 0.45033 0.0
H382 H 0.06297 0.51881 0.8268 0.0
H383 H 0.03462 0.54279 0.86139 0.0
H384 H 0.1053 0.52454 0.77112 0.0
H385 H 0.12159 0.52846 0.66513 0.0
C386 C 0.91868 0.05707 0.09189 0.0
C387 C 0.93934 0.07982 0.11765 0.0
C388 C 0.94308 0.05784 0.26979 0.0
C389 C 0.9217 0.03594 0.24516 0.0
N390 N 0.89305 0.01082 0.13067 0.0
N391 N 0.96614 0.10554 0.23538 0.0
C392 C 0.91035 0.03469 0.15573 0.0
C393 C 0.95041 0.08101 0.20759 0.0
N394 N 0.9067 0.05698 0.0068 0.0
N395 N 0.95687 0.05616 0.35202 0.0
H396 H 0.97088 0.12351 0.1928 0.0
H397 H 0.972 0.10955 0.30236 0.0
H398 H 0.95126 0.04034 0.40084 0.0
H399 H 0.97533 0.06905 0.36962 0.0
H400 H 0.88878 0.04374 0.98703 0.0
H401 H 0.91355 0.07114 0.95519 0.0
H402 H 0.88629 0.00635 0.06486 0.0
H403 H 0.88723 0.99367 0.17505 0.0
C404 C 0.44995 0.94621 0.75753 0.0
C405 C 0.47141 0.92423 0.7344 0.0
C406 C 0.44932 0.91925 0.58284 0.0
C407 C 0.42721 0.94077 0.60694 0.0
N408 N 0.40252 0.96961 0.72249 0.0
N409 N 0.49545 0.89362 0.62239 0.0
C410 C 0.42662 0.95303 0.6956 0.0
C411 C 0.47196 0.91155 0.6465 0.0
N412 N 0.45218 0.96105 0.83799 0.0
N413 N 0.4486 0.90588 0.49969 0.0
H414 H 0.51281 0.88826 0.66653 0.0
H415 H 0.49946 0.88594 0.55721 0.0
H416 H 0.43406 0.91197 0.4482 0.0
H417 H 0.46145 0.88745 0.48185 0.0
H418 H 0.43974 0.98001 0.85373 0.0
H419 H 0.46797 0.95579 0.88715 0.0
H420 H 0.39897 0.97651 0.78881 0.0
H421 H 0.38431 0.9739 0.68047 0.0
C422 C 0.54722 0.42102 0.21047 0.0
C423 C 0.56032 0.42053 0.12284 0.0
C424 C 0.59066 0.4646 0.16247 0.0
C425 C 0.5773 0.46497 0.24942 0.0
N426 N 0.53854 0.44813 0.35 0.0
N427 N 0.59633 0.44069 0.01655 0.0
C428 C 0.55422 0.4446 0.2715 0.0
C429 C 0.58262 0.44195 0.09915 0.0
N430 N 0.52963 0.39767 0.23758 0.0
N431 N 0.60954 0.48738 0.13863 0.0
H432 H 0.5896 0.42687 0.96401 0.0
H433 H 0.61549 0.45258 0.99984 0.0
H434 H 0.61506 0.50485 0.18224 0.0
H435 H 0.61793 0.49078 0.07395 0.0
H436 H 0.52184 0.39498 0.30336 0.0
H437 H 0.52534 0.37916 0.19674 0.0
H438 H 0.51898 0.4365 0.36464 0.0
H439 H 0.54379 0.46426 0.39824 0.0
C440 C 0.10014 0.93888 0.28979 0.0
C441 C 0.10432 0.92347 0.37275 0.0
C442 C 0.05989 0.89334 0.3425 0.0
C443 C 0.05517 0.90898 0.26036 0.0
N444 N 0.07545 0.94082 0.14433 0.0
N445 N 0.09633 0.87678 0.45156 0.0
C446 C 0.07665 0.93016 0.23055 0.0
C447 C 0.08681 0.89777 0.39118 0.0
N448 N 0.11886 0.96184 0.26769 0.0
N449 N 0.03827 0.87477 0.37568 0.0
H450 H 0.11745 0.8772 0.48075 0.0
H451 H 0.08513 0.85666 0.46219 0.0
H452 H 0.01791 0.87131 0.34305 0.0
H453 H 0.03937 0.86529 0.43996 0.0
H454 H 0.11469 0.97669 0.21511 0.0
H455 H 0.13837 0.96629 0.30392 0.0
H456 H 0.09204 0.95385 0.11469 0.0
H457 H 0.05885 0.93437 0.09967 0.0
C458 C 0.58821 0.06098 0.93606 0.0
C459 C 0.56629 0.0827 0.9121 0.0
C460 C 0.56118 0.05977 0.76153 0.0
C461 C 0.58332 0.03848 0.78496 0.0
N462 N 0.61406 0.01489 0.89757 0.0
N463 N 0.53686 0.10679 0.79692 0.0
C464 C 0.59604 0.03825 0.87282 0.0
C465 C 0.55396 0.08302 0.82355 0.0
N466 N 0.60183 0.06212 0.01877 0.0
N467 N 0.54657 0.05744 0.68074 0.0
H468 H 0.53222 0.12489 0.83913 0.0
H469 H 0.52976 0.11023 0.73077 0.0
H470 H 0.55222 0.04184 0.63136 0.0
H471 H 0.52752 0.06967 0.66459 0.0
H472 H 0.62064 0.04973 0.03594 0.0
H473 H 0.59564 0.07662 0.07028 0.0
H474 H 0.62157 0.01105 0.96304 0.0
H475 H 0.6196 0.99744 0.85392 0.0
C476 C 0.44203 0.59664 0.44239 0.0
C477 C 0.42023 0.57463 0.42017 0.0
C478 C 0.44364 0.56717 0.2714 0.0
C479 C 0.46481 0.58972 0.29208 0.0
N480 N 0.48775 0.62269 0.40018 0.0
N481 N 0.39599 0.54447 0.30703 0.0
C482 C 0.46477 0.60381 0.37824 0.0
C483 C 0.42002 0.56127 0.33307 0.0
N484 N 0.44101 0.6107 0.52448 0.0
N485 N 0.44627 0.55091 0.19362 0.0
H486 H 0.37757 0.54075 0.34875 0.0
H487 H 0.3927 0.53697 0.24119 0.0
H488 H 0.46176 0.55563 0.14319 0.0
H489 H 0.43428 0.53136 0.18152 0.0
H490 H 0.45421 0.62882 0.54263 0.0
H491 H 0.4259 0.60533 0.57521 0.0
H492 H 0.49073 0.63265 0.46291 0.0
H493 H 0.50559 0.62703 0.35679 0.0
C494 C 0.94273 0.45452 0.88302 0.0
C495 C 0.94357 0.42386 0.85622 0.0
C496 C 0.93206 0.43871 0.70194 0.0
C497 C 0.92597 0.46823 0.73161 0.0
N498 N 0.92327 0.50407 0.85277 0.0
N499 N 0.9366 0.38638 0.74132 0.0
C500 C 0.93087 0.47618 0.82279 0.0
C501 C 0.93729 0.41579 0.76607 0.0
N502 N 0.9537 0.4632 0.9651 0.0
N503 N 0.93494 0.43311 0.61213 0.0
H504 H 0.94147 0.36903 0.78606 0.0
H505 H 0.9292 0.37922 0.67816 0.0
H506 H 0.93467 0.45051 0.56602 0.0
H507 H 0.94172 0.41263 0.5856 0.0
H508 H 0.95662 0.4855 0.98339 0.0
H509 H 0.96247 0.44841 0.0122 0.0
H510 H 0.92266 0.50989 0.92092 0.0
H511 H 0.91567 0.52093 0.80988 0.0
C512 C 0.92564 0.42699 0.2182 0.0
C513 C 0.95703 0.42764 0.23269 0.0
C514 C 0.94863 0.45775 0.36829 0.0
C515 C 0.91732 0.45209 0.36195 0.0
N516 N 0.87614 0.42916 0.28311 0.0
N517 N 0.99809 0.43976 0.33206 0.0
C518 C 0.9059 0.43574 0.28808 0.0
C519 C 0.96851 0.44217 0.31028 0.0
N520 N 0.91472 0.42059 0.13487 0.0
N521 N 0.95968 0.47791 0.42904 0.0
H522 H 0.01342 0.42774 0.2935 0.0
H523 H 0.00685 0.44715 0.39338 0.0
H524 H 0.94659 0.48942 0.47535 0.0
H525 H 0.98181 0.48516 0.42821 0.0
H526 H 0.89223 0.42213 0.11738 0.0
H527 H 0.92904 0.41833 0.08077 0.0
H528 H 0.86736 0.4143 0.23578 0.0
H529 H 0.86048 0.43712 0.32943 0.0
C530 C 0.07255 0.90551 0.79327 0.0
C531 C 0.06103 0.9172 0.87511 0.0
C532 C 0.0697 0.96823 0.82016 0.0
C533 C 0.08036 0.95646 0.73764 0.0
N534 N 0.08019 0.91516 0.63433 0.0
N535 N 0.03819 0.95996 0.94966 0.0
C536 C 0.07856 0.92539 0.7208 0.0
C537 C 0.05629 0.94863 0.88369 0.0
N538 N 0.07702 0.87548 0.78352 0.0
N539 N 0.07292 0.99796 0.83909 0.0
H540 H 0.02623 0.94679 0.99477 0.0
H541 H 0.03216 0.98244 0.95276 0.0
H542 H 0.08192 0.0132 0.79323 0.0
H543 H 0.06873 0.00699 0.9028 0.0
H544 H 0.08829 0.8663 0.7285 0.0
H545 H 0.07096 0.85991 0.8327 0.0
H546 H 0.07622 0.89296 0.61683 0.0
H547 H 0.08095 0.92984 0.57983 0.0
C548 C 0.56062 0.088 0.43606 0.0
C549 C 0.58258 0.06631 0.41207 0.0
C550 C 0.55982 0.06101 0.2614 0.0
C551 C 0.53828 0.0829 0.2849 0.0
N552 N 0.51424 0.11325 0.39765 0.0
N553 N 0.60702 0.03712 0.29695 0.0
C554 C 0.53783 0.09556 0.37284 0.0
C555 C 0.58309 0.054 0.32349 0.0
N556 N 0.56161 0.10165 0.51876 0.0
N557 N 0.5577 0.04642 0.18047 0.0
H558 H 0.62512 0.03265 0.33924 0.0
H559 H 0.61057 0.03005 0.23081 0.0
H560 H 0.54207 0.05193 0.1311 0.0
H561 H 0.57016 0.02753 0.16417 0.0
H562 H 0.54899 0.12032 0.53592 0.0
H563 H 0.57621 0.09567 0.57019 0.0
H564 H 0.51028 0.12064 0.46319 0.0
H565 H 0.49675 0.11858 0.35398 0.0
C566 C 0.40125 0.54672 0.8832 0.0
C567 C 0.41502 0.54657 0.79659 0.0
C568 C 0.4417 0.59266 0.83471 0.0
C569 C 0.43089 0.59094 0.92457 0.0
N570 N 0.40176 0.56487 0.03741 0.0
N571 N 0.45164 0.56706 0.69404 0.0
C572 C 0.41074 0.56777 0.94956 0.0
C573 C 0.43628 0.56878 0.77365 0.0
N574 N 0.37915 0.52658 0.90229 0.0
N575 N 0.45591 0.61799 0.80635 0.0
H576 H 0.44751 0.55085 0.64509 0.0
H577 H 0.47 0.58054 0.67944 0.0
H578 H 0.4596 0.63626 0.84879 0.0
H579 H 0.46077 0.6222 0.7387 0.0
H580 H 0.36541 0.52801 0.95888 0.0
H581 H 0.37344 0.50905 0.85915 0.0
H582 H 0.39055 0.54622 0.06225 0.0
H583 H 0.40695 0.58024 0.08774 0.0
C584 C 0.92077 0.05097 0.7026 0.0
C585 C 0.91975 0.06445 0.61552 0.0
C586 C 0.96364 0.0951 0.65448 0.0
C587 C 0.96453 0.08135 0.74084 0.0
N588 N 0.94869 0.04183 0.8403 0.0
N589 N 0.93911 0.10111 0.50973 0.0
C590 C 0.94457 0.05791 0.76279 0.0
C591 C 0.94082 0.08709 0.59178 0.0
N592 N 0.89776 0.03301 0.73002 0.0
N593 N 0.98612 0.1143 0.63044 0.0
H594 H 0.92526 0.09438 0.45729 0.0
H595 H 0.95067 0.12051 0.49338 0.0
H596 H 0.00375 0.11976 0.67347 0.0
H597 H 0.98914 0.12302 0.56599 0.0
H598 H 0.89549 0.02487 0.79556 0.0
H599 H 0.87908 0.02873 0.68989 0.0
H600 H 0.93735 0.02206 0.85453 0.0
H601 H 0.96502 0.04698 0.88797 0.0
C602 C 0.44699 0.9487 0.25707 0.0
C603 C 0.42497 0.97015 0.23425 0.0
C604 C 0.41999 0.94815 0.08249 0.0
C605 C 0.44155 0.92604 0.10634 0.0
N606 N 0.47034 0.90124 0.22175 0.0
N607 N 0.39413 0.99413 0.12274 0.0
C608 C 0.45379 0.92538 0.19499 0.0
C609 C 0.41221 0.9707 0.14645 0.0
N610 N 0.46191 0.95092 0.33738 0.0
N611 N 0.40669 0.94752 0.99925 0.0
H612 H 0.38871 0.01143 0.16708 0.0
H613 H 0.38631 0.99814 0.05774 0.0
H614 H 0.41287 0.9331 0.94753 0.0
H615 H 0.38826 0.96036 0.98143 0.0
H616 H 0.48089 0.9385 0.35282 0.0
H617 H 0.45667 0.96669 0.38668 0.0
H618 H 0.47719 0.89765 0.28808 0.0
H619 H 0.4746 0.88303 0.17965 0.0
C620 C 0.53088 0.40992 0.66236 0.0
C621 C 0.53185 0.4217 0.7513 0.0
C622 C 0.57699 0.45021 0.71403 0.0
C623 C 0.57616 0.43864 0.6246 0.0
N624 N 0.55371 0.40542 0.51445 0.0
N625 N 0.55156 0.45749 0.85714 0.0
C626 C 0.55351 0.41786 0.59895 0.0
C627 C 0.5536 0.44324 0.7757 0.0
N628 N 0.50706 0.39258 0.63727 0.0
N629 N 0.60138 0.46614 0.7419 0.0
H630 H 0.53553 0.45217 0.90557 0.0
H631 H 0.56437 0.47607 0.87433 0.0
H632 H 0.61959 0.47048 0.69991 0.0
H633 H 0.60506 0.4725 0.80864 0.0
H634 H 0.50278 0.38555 0.57159 0.0
H635 H 0.48972 0.38708 0.68135 0.0
H636 H 0.54052 0.38739 0.49516 0.0
H637 H 0.56804 0.41198 0.46293 0.0
C638 C 0.06049 0.55185 0.23277 0.0
C639 C 0.08495 0.53288 0.21284 0.0
C640 C 0.08858 0.55503 0.06109 0.0
C641 C 0.06647 0.57647 0.08522 0.0
N642 N 0.03618 0.59903 0.20156 0.0
N643 N 0.12413 0.51766 0.11059 0.0
C644 C 0.05365 0.57581 0.1731 0.0
C645 C 0.09964 0.53501 0.12793 0.0
N646 N 0.04366 0.54714 0.30845 0.0
N647 N 0.09785 0.55237 0.97337 0.0
H648 H 0.13117 0.50049 0.15321 0.0
H649 H 0.13835 0.52125 0.05592 0.0
H650 H 0.09055 0.56614 0.92128 0.0
H651 H 0.11091 0.53472 0.95011 0.0
H652 H 0.02346 0.55804 0.3202 0.0
H653 H 0.04863 0.53086 0.35645 0.0
H654 H 0.02875 0.60127 0.26791 0.0
H655 H 0.03195 0.61779 0.16168 0.0
C656 C 0.90399 0.56992 0.259 0.0
C657 C 0.91644 0.5793 0.34276 0.0
C658 C 0.94775 0.61583 0.26315 0.0
C659 C 0.93407 0.60765 0.17987 0.0
N660 N 0.89488 0.58152 0.10122 0.0
N661 N 0.94541 0.61502 0.42702 0.0
C662 C 0.91084 0.5861 0.17872 0.0
C663 C 0.9368 0.60353 0.34546 0.0
N664 N 0.88704 0.54453 0.25494 0.0
N665 N 0.97239 0.6339 0.26352 0.0
H666 H 0.93772 0.60656 0.48848 0.0
H667 H 0.95781 0.63459 0.43377 0.0
H668 H 0.98181 0.64285 0.20515 0.0
H669 H 0.98528 0.63783 0.32087 0.0
H670 H 0.88048 0.5346 0.19446 0.0
H671 H 0.88146 0.53188 0.31159 0.0
H672 H 0.87569 0.56839 0.09844 0.0
H673 H 0.89916 0.59313 0.04145 0.0
C674 C 0.90883 0.93447 0.75116 0.0
C675 C 0.92647 0.93519 0.67123 0.0
C676 C 0.96462 0.90467 0.74597 0.0
C677 C 0.94576 0.9013 0.82282 0.0
N678 N 0.89778 0.90926 0.89268 0.0
N679 N 0.96792 0.9155 0.58607 0.0
C680 C 0.91722 0.91518 0.8238 0.0
C681 C 0.95338 0.91862 0.66679 0.0
N682 N 0.88485 0.95316 0.75957 0.0
N683 N 0.99392 0.89613 0.74981 0.0
H684 H 0.96007 0.92486 0.52603 0.0
H685 H 0.98596 0.9011 0.57684 0.0
H686 H 0.00373 0.88689 0.8071 0.0
H687 H 0.00937 0.90118 0.69942 0.0
H688 H 0.87327 0.95617 0.81994 0.0
H689 H 0.87796 0.96757 0.70829 0.0
H690 H 0.87557 0.91617 0.89242 0.0
H691 H 0.90312 0.89524 0.94661 0.0
C692 C 0.56853 0.8938 0.2774 0.0
C693 C 0.57811 0.90018 0.18774 0.0
C694 C 0.61303 0.93761 0.24749 0.0
C695 C 0.60611 0.92854 0.33725 0.0
N696 N 0.58112 0.89383 0.43658 0.0
N697 N 0.61367 0.92418 0.08897 0.0
C698 C 0.58494 0.90543 0.35192 0.0
C699 C 0.60157 0.92096 0.17321 0.0
N700 N 0.54286 0.87796 0.29186 0.0
N701 N 0.62924 0.96303 0.23263 0.0
H702 H 0.60644 0.91191 0.03318 0.0
H703 H 0.63281 0.93676 0.07643 0.0
H704 H 0.63716 0.97662 0.28457 0.0
H705 H 0.6321 0.97238 0.16872 0.0
H706 H 0.53317 0.87555 0.35546 0.0
H707 H 0.52945 0.86991 0.23971 0.0
H708 H 0.56824 0.87491 0.44946 0.0
H709 H 0.59315 0.90123 0.49262 0.0
C710 C 0.55718 0.59643 0.65833 0.0
C711 C 0.57712 0.57206 0.66764 0.0
C712 C 0.5851 0.58526 0.82717 0.0
C713 C 0.56217 0.60707 0.82088 0.0
N714 N 0.52368 0.63115 0.73206 0.0
N715 N 0.60856 0.54138 0.76204 0.0
C716 C 0.54769 0.61232 0.73663 0.0
C717 C 0.59089 0.56609 0.75223 0.0
N718 N 0.54769 0.60471 0.57415 0.0
N719 N 0.60197 0.58348 0.904 0.0
H720 H 0.61405 0.52731 0.70842 0.0
H721 H 0.61615 0.53365 0.82429 0.0
H722 H 0.59864 0.59747 0.9595 0.0
H723 H 0.62095 0.57018 0.90974 0.0
H724 H 0.536 0.62438 0.56143 0.0
H725 H 0.55402 0.5934 0.51552 0.0
H726 H 0.51035 0.63338 0.67483 0.0
H727 H 0.51527 0.64273 0.78751 0.0
C728 C 0.09733 0.43347 0.72123 0.0
C729 C 0.07999 0.4331 0.64065 0.0
C730 C 0.04195 0.40297 0.71715 0.0
C731 C 0.06059 0.40063 0.7948 0.0
N732 N 0.10843 0.40948 0.86451 0.0
N733 N 0.03939 0.41151 0.55591 0.0
C734 C 0.08903 0.41466 0.795 0.0
C735 C 0.05344 0.41594 0.63684 0.0
N736 N 0.12074 0.45288 0.72947 0.0
N737 N 0.01261 0.39462 0.72123 0.0
H738 H 0.04758 0.41999 0.49509 0.0
H739 H 0.02153 0.39681 0.54779 0.0
H740 H 0.00246 0.38661 0.77972 0.0
H741 H 0.99745 0.39887 0.6694 0.0
H742 H 0.13194 0.45655 0.79016 0.0
H743 H 0.12738 0.46729 0.67794 0.0
H744 H 0.13058 0.41662 0.86389 0.0
H745 H 0.1032 0.39571 0.91914 0.0
C746 C 0.06789 0.08894 0.23131 0.0
C747 C 0.07579 0.07899 0.14335 0.0
C748 C 0.11869 0.05173 0.20597 0.0
C749 C 0.11103 0.06212 0.29397 0.0
N750 N 0.08325 0.09648 0.38684 0.0
N751 N 0.11188 0.05662 0.04366 0.0
C752 C 0.0871 0.08256 0.30541 0.0
C753 C 0.10225 0.06219 0.12974 0.0
N754 N 0.04128 0.10323 0.24498 0.0
N755 N 0.14051 0.03063 0.19539 0.0
H756 H 0.10025 0.06383 0.98657 0.0
H757 H 0.13258 0.04729 0.02854 0.0
H758 H 0.15295 0.02199 0.24875 0.0
H759 H 0.14472 0.01971 0.13462 0.0
H760 H 0.03253 0.10766 0.3088 0.0
H761 H 0.02674 0.10873 0.1926 0.0
H762 H 0.06811 0.11382 0.39722 0.0
H763 H 0.09732 0.09278 0.44191 0.0
C764 C 0.39428 0.06786 0.77618 0.0
C765 C 0.40087 0.07755 0.68679 0.0
C766 C 0.43791 0.11265 0.74771 0.0
C767 C 0.42863 0.10558 0.83716 0.0
N768 N 0.39387 0.08026 0.93551 0.0
N769 N 0.42503 0.11324 0.58877 0.0
C770 C 0.40563 0.08425 0.85112 0.0
C771 C 0.42158 0.10112 0.67291 0.0
N772 N 0.37848 0.04211 0.78997 0.0
N773 N 0.46323 0.12908 0.73366 0.0
H774 H 0.41304 0.10591 0.53257 0.0
H775 H 0.43753 0.13247 0.5766 0.0
H776 H 0.47657 0.1371 0.78602 0.0
H777 H 0.47275 0.13206 0.67004 0.0
H778 H 0.37592 0.03233 0.85339 0.0
H779 H 0.37059 0.02874 0.73747 0.0
H780 H 0.37501 0.06725 0.94788 0.0
H781 H 0.40109 0.09225 0.99185 0.0
C782 C 0.43573 0.40787 0.26286 0.0
C783 C 0.43159 0.42413 0.18124 0.0
C784 C 0.39361 0.45548 0.25514 0.0
C785 C 0.39954 0.44086 0.3387 0.0
N786 N 0.42732 0.40467 0.42497 0.0
N787 N 0.40837 0.46448 0.09948 0.0
C788 C 0.42084 0.41739 0.34321 0.0
C789 C 0.41088 0.44813 0.17729 0.0
N790 N 0.45395 0.38332 0.26352 0.0
N791 N 0.37148 0.47651 0.25013 0.0
H792 H 0.41899 0.45856 0.03934 0.0
H793 H 0.39701 0.48472 0.09502 0.0
H794 H 0.35989 0.48443 0.30624 0.0
H795 H 0.3634 0.48522 0.18971 0.0
H796 H 0.45562 0.36856 0.31758 0.0
H797 H 0.46625 0.37641 0.20751 0.0
H798 H 0.44515 0.39021 0.4359 0.0
H799 H 0.41565 0.40977 0.484 0.0
loop_
_geom_bond_atom_site_label_1
_geom_bond_atom_site_label_2
_geom_bond_distance
_geom_bond_site_symmetry_2
_ccdc_geom_bond_type
Mg0 O1 2.028 . S
Mg0 O7 1.986 . S
Mg0 O9 2.114 1_554 S
Mg0 O10 2.251 1_554 S
Mg0 O13 2.010 1_455 S
O1 Mg0 2.028 . S
O1 C4 1.250 . S
O2 Mg3 2.028 . S
O2 C4 1.248 . S
Mg3 O2 2.028 . S
Mg3 O8 2.032 . S
Mg3 O10 2.079 1_554 S
C4 O1 1.250 . S
C4 O2 1.248 . S
C5 O6 1.264 . S
C5 O13 1.249 . S
O6 C5 1.264 . S
O7 Mg0 1.986 . S
O7 C11 1.246 . S
O8 Mg3 2.032 . S
O8 C11 1.259 . S
O9 Mg0 2.114 1_556 S
O9 C12 1.252 . S
O10 Mg0 2.251 1_556 S
O10 Mg3 2.079 1_556 S
O10 C12 1.273 . S
C11 O7 1.246 . S
C11 O8 1.259 . S
C12 O9 1.252 . S
C12 O10 1.273 . S
O13 Mg0 2.010 1_655 S
O13 C5 1.249 . S
Mg14 O15 2.028 . S
Mg14 O21 1.986 . S
Mg14 O23 2.114 . S
Mg14 O24 2.251 . S
Mg14 O27 2.010 1_545 S
O15 Mg14 2.028 . S
O15 C18 1.250 . S
O16 Mg17 2.028 . S
O16 C18 1.248 . S
Mg17 O16 2.028 . S
Mg17 O22 2.032 . S
Mg17 O24 2.079 . S
C18 O15 1.250 . S
C18 O16 1.248 . S
C19 O20 1.264 . S
C19 O27 1.249 . S
O20 C19 1.264 . S
O21 Mg14 1.986 . S
O21 C25 1.246 . S
O22 Mg17 2.032 . S
O22 C25 1.259 . S
O23 Mg14 2.114 . S
O23 C26 1.252 . S
O24 Mg14 2.251 . S
O24 Mg17 2.079 . S
O24 C26 1.273 . S
C25 O21 1.246 . S
C25 O22 1.259 . S
C26 O23 1.252 . S
C26 O24 1.273 . S
O27 Mg14 2.010 1_565 S
O27 C19 1.249 . S
Mg28 O29 2.028 . S
Mg28 O35 1.986 . S
Mg28 O37 2.114 1_554 S
Mg28 O38 2.251 1_554 S
Mg28 O41 2.010 . S
O29 Mg28 2.028 . S
O29 C32 1.250 . S
O30 Mg31 2.028 . S
O30 C32 1.248 . S
Mg31 O30 2.028 . S
Mg31 O36 2.032 . S
Mg31 O38 2.079 1_554 S
C32 O29 1.250 . S
C32 O30 1.248 . S
C33 O34 1.264 . S
C33 O41 1.249 . S
O34 C33 1.264 . S
O35 Mg28 1.986 . S
O35 C39 1.246 . S
O36 Mg31 2.032 . S
O36 C39 1.259 . S
O37 Mg28 2.114 1_556 S
O37 C40 1.252 . S
O38 Mg28 2.251 1_556 S
O38 Mg31 2.079 1_556 S
O38 C40 1.273 . S
C39 O35 1.246 . S
C39 O36 1.259 . S
C40 O37 1.252 . S
C40 O38 1.273 . S
O41 Mg28 2.010 . S
O41 C33 1.249 . S
Mg42 O43 2.028 . S
Mg42 O49 1.986 . S
Mg42 O51 2.114 . S
Mg42 O52 2.251 . S
Mg42 O55 2.010 . S
O43 Mg42 2.028 . S
O43 C46 1.250 . S
O44 Mg45 2.028 . S
O44 C46 1.248 . S
Mg45 O44 2.028 . S
Mg45 O50 2.032 . S
Mg45 O52 2.079 . S
C46 O43 1.250 . S
C46 O44 1.248 . S
C47 O48 1.264 . S
C47 O55 1.249 . S
O48 C47 1.264 . S
O49 Mg42 1.986 . S
O49 C53 1.246 . S
O50 Mg45 2.032 . S
O50 C53 1.259 . S
O51 Mg42 2.114 . S
O51 C54 1.252 . S
O52 Mg42 2.251 . S
O52 Mg45 2.079 . S
O52 C54 1.273 . S
C53 O49 1.246 . S
C53 O50 1.259 . S
C54 O51 1.252 . S
C54 O52 1.273 . S
O55 Mg42 2.010 . S
O55 C47 1.249 . S
Mg56 O57 2.028 . S
Mg56 O63 1.986 . S
Mg56 O65 2.114 1_556 S
Mg56 O66 2.251 1_556 S
Mg56 O69 2.010 1_455 S
O57 Mg56 2.028 . S
O57 C60 1.250 . S
O58 Mg59 2.028 . S
O58 C60 1.248 . S
Mg59 O58 2.028 . S
Mg59 O64 2.032 . S
Mg59 O66 2.079 1_556 S
C60 O57 1.250 . S
C60 O58 1.248 . S
C61 O62 1.264 . S
C61 O69 1.249 . S
O62 C61 1.264 . S
O63 Mg56 1.986 . S
O63 C67 1.246 . S
O64 Mg59 2.032 . S
O64 C67 1.259 . S
O65 Mg56 2.114 1_554 S
O65 C68 1.252 . S
O66 Mg56 2.251 1_554 S
O66 Mg59 2.079 1_554 S
O66 C68 1.273 . S
C67 O63 1.246 . S
C67 O64 1.259 . S
C68 O65 1.252 . S
C68 O66 1.273 . S
O69 Mg56 2.010 1_655 S
O69 C61 1.249 . S
Mg70 O71 2.028 . S
Mg70 O77 1.986 . S
Mg70 O79 2.114 . S
Mg70 O80 2.251 . S
Mg70 O83 2.010 1_545 S
O71 Mg70 2.028 . S
O71 C74 1.250 . S
O72 Mg73 2.028 . S
O72 C74 1.248 . S
Mg73 O72 2.028 . S
Mg73 O78 2.032 . S
Mg73 O80 2.079 . S
C74 O71 1.250 . S
C74 O72 1.248 . S
C75 O76 1.264 . S
C75 O83 1.249 . S
O76 C75 1.264 . S
O77 Mg70 1.986 . S
O77 C81 1.246 . S
O78 Mg73 2.032 . S
O78 C81 1.259 . S
O79 Mg70 2.114 . S
O79 C82 1.252 . S
O80 Mg70 2.251 . S
O80 Mg73 2.079 . S
O80 C82 1.273 . S
C81 O77 1.246 . S
C81 O78 1.259 . S
C82 O79 1.252 . S
C82 O80 1.273 . S
O83 Mg70 2.010 1_565 S
O83 C75 1.249 . S
Mg84 O85 2.028 . S
Mg84 O91 1.986 . S
Mg84 O93 2.114 1_556 S
Mg84 O94 2.251 1_556 S
Mg84 O97 2.010 . S
O85 Mg84 2.028 . S
O85 C88 1.250 . S
O86 Mg87 2.028 . S
O86 C88 1.248 . S
Mg87 O86 2.028 . S
Mg87 O92 2.032 . S
Mg87 O94 2.079 1_556 S
C88 O85 1.250 . S
C88 O86 1.248 . S
C89 O90 1.264 . S
C89 O97 1.249 . S
O90 C89 1.264 . S
O91 Mg84 1.986 . S
O91 C95 1.246 . S
O92 Mg87 2.032 . S
O92 C95 1.259 . S
O93 Mg84 2.114 1_554 S
O93 C96 1.252 . S
O94 Mg84 2.251 1_554 S
O94 Mg87 2.079 1_554 S
O94 C96 1.273 . S
C95 O91 1.246 . S
C95 O92 1.259 . S
C96 O93 1.252 . S
C96 O94 1.273 . S
O97 Mg84 2.010 . S
O97 C89 1.249 . S
Mg98 O99 2.028 . S
Mg98 O105 1.986 . S
Mg98 O107 2.114 . S
Mg98 O108 2.251 . S
Mg98 O111 2.010 . S
O99 Mg98 2.028 . S
O99 C102 1.250 . S
O100 Mg101 2.028 . S
O100 C102 1.248 . S
Mg101 O100 2.028 . S
Mg101 O106 2.032 . S
Mg101 O108 2.079 . S
C102 O99 1.250 . S
C102 O100 1.248 . S
C103 O104 1.264 . S
C103 O111 1.249 . S
O104 C103 1.264 . S
O105 Mg98 1.986 . S
O105 C109 1.246 . S
O106 Mg101 2.032 . S
O106 C109 1.259 . S
O107 Mg98 2.114 . S
O107 C110 1.252 . S
O108 Mg98 2.251 . S
O108 Mg101 2.079 . S
O108 C110 1.273 . S
C109 O105 1.246 . S
C109 O106 1.259 . S
C110 O107 1.252 . S
C110 O108 1.273 . S
O111 Mg98 2.010 . S
O111 C103 1.249 . S
Mg112 O113 2.028 . S
Mg112 O119 1.986 . S
Mg112 O121 2.114 1_556 S
Mg112 O122 2.251 1_556 S
Mg112 O125 2.010 1_655 S
O113 Mg112 2.028 . S
O113 C116 1.250 . S
O114 Mg115 2.028 . S
O114 C116 1.248 . S
Mg115 O114 2.028 . S
Mg115 O120 2.032 . S
Mg115 O122 2.079 1_556 S
C116 O113 1.250 . S
C116 O114 1.248 . S
C117 O118 1.264 . S
C117 O125 1.249 . S
O118 C117 1.264 . S
O119 Mg112 1.986 . S
O119 C123 1.246 . S
O120 Mg115 2.032 . S
O120 C123 1.259 . S
O121 Mg112 2.114 1_554 S
O121 C124 1.252 . S
O122 Mg112 2.251 1_554 S
O122 Mg115 2.079 1_554 S
O122 C124 1.273 . S
C123 O119 1.246 . S
C123 O120 1.259 . S
C124 O121 1.252 . S
C124 O122 1.273 . S
O125 Mg112 2.010 1_455 S
O125 C117 1.249 . S
Mg126 O127 2.028 . S
Mg126 O133 1.986 . S
Mg126 O135 2.114 . S
Mg126 O136 2.251 . S
Mg126 O139 2.010 1_565 S
O127 Mg126 2.028 . S
O127 C130 1.250 . S
O128 Mg129 2.028 . S
O128 C130 1.248 . S
Mg129 O128 2.028 . S
Mg129 O134 2.032 . S
Mg129 O136 2.079 . S
C130 O127 1.250 . S
C130 O128 1.248 . S
C131 O132 1.264 . S
C131 O139 1.249 . S
O132 C131 1.264 . S
O133 Mg126 1.986 . S
O133 C137 1.246 . S
O134 Mg129 2.032 . S
O134 C137 1.259 . S
O135 Mg126 2.114 . S
O135 C138 1.252 . S
O136 Mg126 2.251 . S
O136 Mg129 2.079 . S
O136 C138 1.273 . S
C137 O133 1.246 . S
C137 O134 1.259 . S
C138 O135 1.252 . S
C138 O136 1.273 . S
O139 Mg126 2.010 1_545 S
O139 C131 1.249 . S
Mg140 O141 2.028 . S
Mg140 O147 1.986 . S
Mg140 O149 2.114 1_556 S
Mg140 O150 2.251 1_556 S
Mg140 O153 2.010 . S
O141 Mg140 2.028 . S
O141 C144 1.250 . S
O142 Mg143 2.028 . S
O142 C144 1.248 . S
Mg143 O142 2.028 . S
Mg143 O148 2.032 . S
Mg143 O150 2.079 1_556 S
C144 O141 1.250 . S
C144 O142 1.248 . S
C145 O146 1.264 . S
C145 O153 1.249 . S
O146 C145 1.264 . S
O147 Mg140 1.986 . S
O147 C151 1.246 . S
O148 Mg143 2.032 . S
O148 C151 1.259 . S
O149 Mg140 2.114 1_554 S
O149 C152 1.252 . S
O150 Mg140 2.251 1_554 S
O150 Mg143 2.079 1_554 S
O150 C152 1.273 . S
C151 O147 1.246 . S
C151 O148 1.259 . S
C152 O149 1.252 . S
C152 O150 1.273 . S
O153 Mg140 2.010 . S
O153 C145 1.249 . S
Mg154 O155 2.028 . S
Mg154 O161 1.986 . S
Mg154 O163 2.114 . S
Mg154 O164 2.251 . S
Mg154 O167 2.010 . S
O155 Mg154 2.028 . S
O155 C158 1.250 . S
O156 Mg157 2.028 . S
O156 C158 1.248 . S
Mg157 O156 2.028 . S
Mg157 O162 2.032 . S
Mg157 O164 2.079 . S
C158 O155 1.250 . S
C158 O156 1.248 . S
C159 O160 1.264 . S
C159 O167 1.249 . S
O160 C159 1.264 . S
O161 Mg154 1.986 . S
O161 C165 1.246 . S
O162 Mg157 2.032 . S
O162 C165 1.259 . S
O163 Mg154 2.114 . S
O163 C166 1.252 . S
O164 Mg154 2.251 . S
O164 Mg157 2.079 . S
O164 C166 1.273 . S
C165 O161 1.246 . S
C165 O162 1.259 . S
C166 O163 1.252 . S
C166 O164 1.273 . S
O167 Mg154 2.010 . S
O167 C159 1.249 . S
Mg168 O169 2.028 . S
Mg168 O175 1.986 . S
Mg168 O177 2.114 1_554 S
Mg168 O178 2.251 1_554 S
Mg168 O181 2.010 1_655 S
O169 Mg168 2.028 . S
O169 C172 1.250 . S
O170 Mg171 2.028 . S
O170 C172 1.248 . S
Mg171 O170 2.028 . S
Mg171 O176 2.032 . S
Mg171 O178 2.079 1_554 S
C172 O169 1.250 . S
C172 O170 1.248 . S
C173 O174 1.264 . S
C173 O181 1.249 . S
O174 C173 1.264 . S
O175 Mg168 1.986 . S
O175 C179 1.246 . S
O176 Mg171 2.032 . S
O176 C179 1.259 . S
O177 Mg168 2.114 1_556 S
O177 C180 1.252 . S
O178 Mg168 2.251 1_556 S
O178 Mg171 2.079 1_556 S
O178 C180 1.273 . S
C179 O175 1.246 . S
C179 O176 1.259 . S
C180 O177 1.252 . S
C180 O178 1.273 . S
O181 Mg168 2.010 1_455 S
O181 C173 1.249 . S
Mg182 O183 2.028 . S
Mg182 O189 1.986 . S
Mg182 O191 2.114 . S
Mg182 O192 2.251 . S
Mg182 O195 2.010 1_565 S
O183 Mg182 2.028 . S
O183 C186 1.250 . S
O184 Mg185 2.028 . S
O184 C186 1.248 . S
Mg185 O184 2.028 . S
Mg185 O190 2.032 . S
Mg185 O192 2.079 . S
C186 O183 1.250 . S
C186 O184 1.248 . S
C187 O188 1.264 . S
C187 O195 1.249 . S
O188 C187 1.264 . S
O189 Mg182 1.986 . S
O189 C193 1.246 . S
O190 Mg185 2.032 . S
O190 C193 1.259 . S
O191 Mg182 2.114 . S
O191 C194 1.252 . S
O192 Mg182 2.251 . S
O192 Mg185 2.079 . S
O192 C194 1.273 . S
C193 O189 1.246 . S
C193 O190 1.259 . S
C194 O191 1.252 . S
C194 O192 1.273 . S
O195 Mg182 2.010 1_545 S
O195 C187 1.249 . S
Mg196 O197 2.028 . S
Mg196 O203 1.986 . S
Mg196 O205 2.114 1_554 S
Mg196 O206 2.251 1_554 S
Mg196 O209 2.010 . S
O197 Mg196 2.028 . S
O197 C200 1.250 . S
O198 Mg199 2.028 . S
O198 C200 1.248 . S
Mg199 O198 2.028 . S
Mg199 O204 2.032 . S
Mg199 O206 2.079 1_554 S
C200 O197 1.250 . S
C200 O198 1.248 . S
C201 O202 1.264 . S
C201 O209 1.249 . S
O202 C201 1.264 . S
O203 Mg196 1.986 . S
O203 C207 1.246 . S
O204 Mg199 2.032 . S
O204 C207 1.259 . S
O205 Mg196 2.114 1_556 S
O205 C208 1.252 . S
O206 Mg196 2.251 1_556 S
O206 Mg199 2.079 1_556 S
O206 C208 1.273 . S
C207 O203 1.246 . S
C207 O204 1.259 . S
C208 O205 1.252 . S
C208 O206 1.273 . S
O209 Mg196 2.010 . S
O209 C201 1.249 . S
Mg210 O211 2.028 . S
Mg210 O217 1.986 . S
Mg210 O219 2.114 . S
Mg210 O220 2.251 . S
Mg210 O223 2.010 . S
O211 Mg210 2.028 . S
O211 C214 1.250 . S
O212 Mg213 2.028 . S
O212 C214 1.248 . S
Mg213 O212 2.028 . S
Mg213 O218 2.032 . S
Mg213 O220 2.079 . S
C214 O211 1.250 . S
C214 O212 1.248 . S
C215 O216 1.264 . S
C215 O223 1.249 . S
O216 C215 1.264 . S
O217 Mg210 1.986 . S
O217 C221 1.246 . S
O218 Mg213 2.032 . S
O218 C221 1.259 . S
O219 Mg210 2.114 . S
O219 C222 1.252 . S
O220 Mg210 2.251 . S
O220 Mg213 2.079 . S
O220 C222 1.273 . S
C221 O217 1.246 . S
C221 O218 1.259 . S
C222 O219 1.252 . S
C222 O220 1.273 . S
O223 Mg210 2.010 . S
O223 C215 1.249 . S
C224 C225 1.363 . S
C224 C230 1.379 . S
C224 N232 1.356 . S
C225 C224 1.363 . S
C225 C231 1.363 1_554 S
C226 C227 1.363 . S
C226 C231 1.379 . S
C226 N233 1.356 . S
C227 C226 1.363 . S
C227 C230 1.363 1_556 S
N228 C230 1.356 . S
N228 H240 0.984 . S
N228 H241 0.985 . S
N229 C231 1.356 . S
N229 H234 0.984 . S
N229 H235 0.985 1_455 S
C230 C224 1.379 . S
C230 C227 1.363 1_554 S
C230 N228 1.356 . S
C231 C225 1.363 1_556 S
C231 C226 1.379 . S
C231 N229 1.356 . S
N232 C224 1.356 . S
N232 H238 0.984 . S
N232 H239 0.984 . S
N233 C226 1.356 . S
N233 H236 0.984 . S
N233 H237 0.985 1_455 S
H234 N229 0.984 . S
H235 N229 0.985 1_655 S
H236 N233 0.984 . S
H237 N233 0.985 1_655 S
H238 N232 0.984 . S
H239 N232 0.984 . S
H240 N228 0.984 . S
H241 N228 0.985 . S
C242 C243 1.363 . S
C242 C248 1.379 . S
C242 N250 1.356 . S
C243 C242 1.363 . S
C243 C249 1.363 . S
C244 C245 1.363 . S
C244 C249 1.379 . S
C244 N251 1.356 1_545 S
C245 C244 1.363 . S
C245 C248 1.363 . S
N246 C248 1.356 . S
N246 H258 0.984 . S
N246 H259 0.985 . S
N247 C249 1.356 1_565 S
N247 H252 0.984 . S
N247 H253 0.985 . S
C248 C242 1.379 . S
C248 C245 1.363 . S
C248 N246 1.356 . S
C249 C243 1.363 . S
C249 C244 1.379 . S
C249 N247 1.356 1_545 S
N250 C242 1.356 . S
N250 H256 0.984 . S
N250 H257 0.984 . S
N251 C244 1.356 1_565 S
N251 H254 0.984 . S
N251 H255 0.985 . S
H252 N247 0.984 . S
H253 N247 0.985 . S
H254 N251 0.984 . S
H255 N251 0.985 . S
H256 N250 0.984 . S
H257 N250 0.984 . S
H258 N246 0.984 . S
H259 N246 0.985 . S
C260 C261 1.363 1_556 S
C260 C266 1.379 . S
C260 N268 1.356 . S
C261 C260 1.363 1_554 S
C261 C267 1.363 . S
C262 C263 1.363 1_554 S
C262 C267 1.379 . S
C262 N269 1.356 . S
C263 C262 1.363 1_556 S
C263 C266 1.363 . S
N264 C266 1.356 . S
N264 H276 0.984 . S
N264 H277 0.985 . S
N265 C267 1.356 . S
N265 H270 0.984 . S
N265 H271 0.985 . S
C266 C260 1.379 . S
C266 C263 1.363 . S
C266 N264 1.356 . S
C267 C261 1.363 . S
C267 C262 1.379 . S
C267 N265 1.356 . S
N268 C260 1.356 . S
N268 H274 0.984 . S
N268 H275 0.984 . S
N269 C262 1.356 . S
N269 H272 0.984 . S
N269 H273 0.985 . S
H270 N265 0.984 . S
H271 N265 0.985 . S
H272 N269 0.984 . S
H273 N269 0.985 . S
H274 N268 0.984 . S
H275 N268 0.984 . S
H276 N264 0.984 . S
H277 N264 0.985 . S
C278 C279 1.363 . S
C278 C284 1.379 . S
C278 N286 1.356 . S
C279 C278 1.363 . S
C279 C285 1.363 . S
C280 C281 1.363 . S
C280 C285 1.379 . S
C280 N287 1.356 . S
C281 C280 1.363 . S
C281 C284 1.363 . S
N282 C284 1.356 . S
N282 H294 0.984 . S
N282 H295 0.985 . S
N283 C285 1.356 . S
N283 H288 0.984 . S
N283 H289 0.985 . S
C284 C278 1.379 . S
C284 C281 1.363 . S
C284 N282 1.356 . S
C285 C279 1.363 . S
C285 C280 1.379 . S
C285 N283 1.356 . S
N286 C278 1.356 . S
N286 H292 0.984 . S
N286 H293 0.984 . S
N287 C280 1.356 . S
N287 H290 0.984 . S
N287 H291 0.985 . S
H288 N283 0.984 . S
H289 N283 0.985 . S
H290 N287 0.984 . S
H291 N287 0.985 . S
H292 N286 0.984 . S
H293 N286 0.984 . S
H294 N282 0.984 . S
H295 N282 0.985 . S
C296 C297 1.363 . S
C296 C302 1.379 . S
C296 N304 1.356 1_655 S
C297 C296 1.363 . S
C297 C303 1.363 1_556 S
C298 C299 1.363 . S
C298 C303 1.379 . S
C298 N305 1.356 . S
C299 C298 1.363 . S
C299 C302 1.363 1_554 S
N300 C302 1.356 1_455 S
N300 H312 0.984 . S
N300 H313 0.985 1_556 S
N301 C303 1.356 . S
N301 H306 0.984 1_554 S
N301 H307 0.985 . S
C302 C296 1.379 . S
C302 C299 1.363 1_556 S
C302 N300 1.356 1_655 S
C303 C297 1.363 1_554 S
C303 C298 1.379 . S
C303 N301 1.356 . S
N304 C296 1.356 1_455 S
N304 H310 0.984 . S
N304 H311 0.984 . S
N305 C298 1.356 . S
N305 H308 0.984 . S
N305 H309 0.985 . S
H306 N301 0.984 1_556 S
H307 N301 0.985 . S
H308 N305 0.984 . S
H309 N305 0.985 . S
H310 N304 0.984 . S
H311 N304 0.984 . S
H312 N300 0.984 . S
H313 N300 0.985 1_554 S
C314 C315 1.363 . S
C314 C320 1.379 . S
C314 N322 1.356 1_565 S
C315 C314 1.363 . S
C315 C321 1.363 . S
C316 C317 1.363 . S
C316 C321 1.379 . S
C316 N323 1.356 . S
C317 C316 1.363 . S
C317 C320 1.363 . S
N318 C320 1.356 1_545 S
N318 H330 0.984 . S
N318 H331 0.985 . S
N319 C321 1.356 . S
N319 H324 0.984 . S
N319 H325 0.985 . S
C320 C314 1.379 . S
C320 C317 1.363 . S
C320 N318 1.356 1_565 S
C321 C315 1.363 . S
C321 C316 1.379 . S
C321 N319 1.356 . S
N322 C314 1.356 1_545 S
N322 H328 0.984 . S
N322 H329 0.984 . S
N323 C316 1.356 . S
N323 H326 0.984 . S
N323 H327 0.985 . S
H324 N319 0.984 . S
H325 N319 0.985 . S
H326 N323 0.984 . S
H327 N323 0.985 . S
H328 N322 0.984 . S
H329 N322 0.984 . S
H330 N318 0.984 . S
H331 N318 0.985 . S
C332 C333 1.363 1_554 S
C332 C338 1.379 . S
C332 N340 1.356 . S
C333 C332 1.363 1_556 S
C333 C339 1.363 . S
C334 C335 1.363 1_556 S
C334 C339 1.379 . S
C334 N341 1.356 . S
C335 C334 1.363 1_554 S
C335 C338 1.363 . S
N336 C338 1.356 . S
N336 H348 0.984 . S
N336 H349 0.985 . S
N337 C339 1.356 . S
N337 H342 0.984 . S
N337 H343 0.985 . S
C338 C332 1.379 . S
C338 C335 1.363 . S
C338 N336 1.356 . S
C339 C333 1.363 . S
C339 C334 1.379 . S
C339 N337 1.356 . S
N340 C332 1.356 . S
N340 H346 0.984 . S
N340 H347 0.984 1_554 S
N341 C334 1.356 . S
N341 H344 0.984 1_556 S
N341 H345 0.985 . S
H342 N337 0.984 . S
H343 N337 0.985 . S
H344 N341 0.984 1_554 S
H345 N341 0.985 . S
H346 N340 0.984 . S
H347 N340 0.984 1_556 S
H348 N336 0.984 . S
H349 N336 0.985 . S
C350 C351 1.363 . S
C350 C356 1.379 . S
C350 N358 1.356 . S
C351 C350 1.363 . S
C351 C357 1.363 . S
C352 C353 1.363 . S
C352 C357 1.379 . S
C352 N359 1.356 . S
C353 C352 1.363 . S
C353 C356 1.363 . S
N354 C356 1.356 . S
N354 H366 0.984 . S
N354 H367 0.985 . S
N355 C357 1.356 . S
N355 H360 0.984 . S
N355 H361 0.985 . S
C356 C350 1.379 . S
C356 C353 1.363 . S
C356 N354 1.356 . S
C357 C351 1.363 . S
C357 C352 1.379 . S
C357 N355 1.356 . S
N358 C350 1.356 . S
N358 H364 0.984 . S
N358 H365 0.984 . S
N359 C352 1.356 . S
N359 H362 0.984 . S
N359 H363 0.985 . S
H360 N355 0.984 . S
H361 N355 0.985 . S
H362 N359 0.984 . S
H363 N359 0.985 . S
H364 N358 0.984 . S
H365 N358 0.984 . S
H366 N354 0.984 . S
H367 N354 0.985 . S
C368 C369 1.363 . S
C368 C374 1.379 . S
C368 N376 1.356 . S
C369 C368 1.363 . S
C369 C375 1.363 . S
C370 C371 1.363 . S
C370 C375 1.379 . S
C370 N377 1.356 . S
C371 C370 1.363 . S
C371 C374 1.363 . S
N372 C374 1.356 . S
N372 H384 0.984 . S
N372 H385 0.985 . S
N373 C375 1.356 . S
N373 H378 0.984 . S
N373 H379 0.985 . S
C374 C368 1.379 . S
C374 C371 1.363 . S
C374 N372 1.356 . S
C375 C369 1.363 . S
C375 C370 1.379 . S
C375 N373 1.356 . S
N376 C368 1.356 . S
N376 H382 0.984 1_556 S
N376 H383 0.984 1_556 S
N377 C370 1.356 . S
N377 H380 0.984 . S
N377 H381 0.985 . S
H378 N373 0.984 . S
H379 N373 0.985 . S
H380 N377 0.984 . S
H381 N377 0.985 . S
H382 N376 0.984 1_554 S
H383 N376 0.984 1_554 S
H384 N372 0.984 . S
H385 N372 0.985 . S
C386 C387 1.363 . S
C386 C392 1.379 . S
C386 N394 1.356 . S
C387 C386 1.363 . S
C387 C393 1.363 . S
C388 C389 1.363 . S
C388 C393 1.379 . S
C388 N395 1.356 . S
C389 C388 1.363 . S
C389 C392 1.363 . S
N390 C392 1.356 . S
N390 H402 0.984 . S
N390 H403 0.985 . S
N391 C393 1.356 . S
N391 H396 0.984 . S
N391 H397 0.985 . S
C392 C386 1.379 . S
C392 C389 1.363 . S
C392 N390 1.356 . S
C393 C387 1.363 . S
C393 C388 1.379 . S
C393 N391 1.356 . S
N394 C386 1.356 . S
N394 H400 0.984 . S
N394 H401 0.984 . S
N395 C388 1.356 . S
N395 H398 0.984 . S
N395 H399 0.985 . S
H396 N391 0.984 . S
H397 N391 0.985 . S
H398 N395 0.984 . S
H399 N395 0.985 . S
H400 N394 0.984 . S
H401 N394 0.984 . S
H402 N390 0.984 . S
H403 N390 0.985 . S
C404 C405 1.363 . S
C404 C410 1.379 . S
C404 N412 1.356 . S
C405 C404 1.363 . S
C405 C411 1.363 . S
C406 C407 1.363 . S
C406 C411 1.379 . S
C406 N413 1.356 . S
C407 C406 1.363 . S
C407 C410 1.363 . S
N408 C410 1.356 . S
N408 H420 0.984 . S
N408 H421 0.985 . S
N409 C411 1.356 . S
N409 H414 0.984 . S
N409 H415 0.985 . S
C410 C404 1.379 . S
C410 C407 1.363 . S
C410 N408 1.356 . S
C411 C405 1.363 . S
C411 C406 1.379 . S
C411 N409 1.356 . S
N412 C404 1.356 . S
N412 H418 0.984 1_556 S
N412 H419 0.984 1_556 S
N413 C406 1.356 . S
N413 H416 0.984 . S
N413 H417 0.985 . S
H414 N409 0.984 . S
H415 N409 0.985 . S
H416 N413 0.984 . S
H417 N413 0.985 . S
H418 N412 0.984 1_554 S
H419 N412 0.984 1_554 S
H420 N408 0.984 . S
H421 N408 0.985 . S
C422 C423 1.363 . S
C422 C428 1.379 . S
C422 N430 1.356 . S
C423 C422 1.363 . S
C423 C429 1.363 . S
C424 C425 1.363 . S
C424 C429 1.379 . S
C424 N431 1.356 . S
C425 C424 1.363 . S
C425 C428 1.363 . S
N426 C428 1.356 . S
N426 H438 0.984 . S
N426 H439 0.985 . S
N427 C429 1.356 . S
N427 H432 0.984 . S
N427 H433 0.985 . S
C428 C422 1.379 . S
C428 C425 1.363 . S
C428 N426 1.356 . S
C429 C423 1.363 . S
C429 C424 1.379 . S
C429 N427 1.356 . S
N430 C422 1.356 . S
N430 H436 0.984 . S
N430 H437 0.984 . S
N431 C424 1.356 . S
N431 H434 0.984 . S
N431 H435 0.985 . S
H432 N427 0.984 . S
H433 N427 0.985 . S
H434 N431 0.984 . S
H435 N431 0.985 . S
H436 N430 0.984 . S
H437 N430 0.984 . S
H438 N426 0.984 . S
H439 N426 0.985 . S
C440 C441 1.363 . S
C440 C446 1.379 . S
C440 N448 1.356 . S
C441 C440 1.363 . S
C441 C447 1.363 . S
C442 C443 1.363 . S
C442 C447 1.379 . S
C442 N449 1.356 . S
C443 C442 1.363 . S
C443 C446 1.363 . S
N444 C446 1.356 . S
N444 H456 0.984 1_554 S
N444 H457 0.985 . S
N445 C447 1.356 . S
N445 H450 0.984 . S
N445 H451 0.985 . S
C446 C440 1.379 . S
C446 C443 1.363 . S
C446 N444 1.356 . S
C447 C441 1.363 . S
C447 C442 1.379 . S
C447 N445 1.356 . S
N448 C440 1.356 . S
N448 H454 0.984 . S
N448 H455 0.984 . S
N449 C442 1.356 . S
N449 H452 0.984 . S
N449 H453 0.985 . S
H450 N445 0.984 . S
H451 N445 0.985 . S
H452 N449 0.984 . S
H453 N449 0.985 . S
H454 N448 0.984 . S
H455 N448 0.984 . S
H456 N444 0.984 1_556 S
H457 N444 0.985 . S
C458 C459 1.363 . S
C458 C464 1.379 . S
C458 N466 1.356 . S
C459 C458 1.363 . S
C459 C465 1.363 . S
C460 C461 1.363 . S
C460 C465 1.379 . S
C460 N467 1.356 . S
C461 C460 1.363 . S
C461 C464 1.363 . S
N462 C464 1.356 . S
N462 H474 0.984 . S
N462 H475 0.985 . S
N463 C465 1.356 . S
N463 H468 0.984 . S
N463 H469 0.985 . S
C464 C458 1.379 . S
C464 C461 1.363 . S
C464 N462 1.356 . S
C465 C459 1.363 . S
C465 C460 1.379 . S
C465 N463 1.356 . S
N466 C458 1.356 . S
N466 H472 0.984 . S
N466 H473 0.984 . S
N467 C460 1.356 . S
N467 H470 0.984 . S
N467 H471 0.985 . S
H468 N463 0.984 . S
H469 N463 0.985 . S
H470 N467 0.984 . S
H471 N467 0.985 . S
H472 N466 0.984 . S
H473 N466 0.984 . S
H474 N462 0.984 . S
H475 N462 0.985 . S
C476 C477 1.363 . S
C476 C482 1.379 . S
C476 N484 1.356 . S
C477 C476 1.363 . S
C477 C483 1.363 . S
C478 C479 1.363 . S
C478 C483 1.379 . S
C478 N485 1.356 . S
C479 C478 1.363 . S
C479 C482 1.363 . S
N480 C482 1.356 . S
N480 H492 0.984 . S
N480 H493 0.985 . S
N481 C483 1.356 . S
N481 H486 0.984 . S
N481 H487 0.985 . S
C482 C476 1.379 . S
C482 C479 1.363 . S
C482 N480 1.356 . S
C483 C477 1.363 . S
C483 C478 1.379 . S
C483 N481 1.356 . S
N484 C476 1.356 . S
N484 H490 0.984 . S
N484 H491 0.984 . S
N485 C478 1.356 . S
N485 H488 0.984 1_554 S
N485 H489 0.985 1_554 S
H486 N481 0.984 . S
H487 N481 0.985 . S
H488 N485 0.984 1_556 S
H489 N485 0.985 1_556 S
H490 N484 0.984 . S
H491 N484 0.984 . S
H492 N480 0.984 . S
H493 N480 0.985 . S
C494 C495 1.363 . S
C494 C500 1.379 . S
C494 N502 1.356 . S
C495 C494 1.363 . S
C495 C501 1.363 . S
C496 C497 1.363 . S
C496 C501 1.379 . S
C496 N503 1.356 . S
C497 C496 1.363 . S
C497 C500 1.363 . S
N498 C500 1.356 . S
N498 H510 0.984 . S
N498 H511 0.985 . S
N499 C501 1.356 . S
N499 H504 0.984 . S
N499 H505 0.985 . S
C500 C494 1.379 . S
C500 C497 1.363 . S
C500 N498 1.356 . S
C501 C495 1.363 . S
C501 C496 1.379 . S
C501 N499 1.356 . S
N502 C494 1.356 . S
N502 H508 0.984 . S
N502 H509 0.984 . S
N503 C496 1.356 . S
N503 H506 0.984 . S
N503 H507 0.985 . S
H504 N499 0.984 . S
H505 N499 0.985 . S
H506 N503 0.984 . S
H507 N503 0.985 . S
H508 N502 0.984 . S
H509 N502 0.984 . S
H510 N498 0.984 . S
H511 N498 0.985 . S
C512 C513 1.363 . S
C512 C518 1.379 . S
C512 N520 1.356 . S
C513 C512 1.363 . S
C513 C519 1.363 . S
C514 C515 1.363 . S
C514 C519 1.379 . S
C514 N521 1.356 . S
C515 C514 1.363 . S
C515 C518 1.363 . S
N516 C518 1.356 . S
N516 H528 0.984 . S
N516 H529 0.985 . S
N517 C519 1.356 . S
N517 H522 0.984 . S
N517 H523 0.985 . S
C518 C512 1.379 . S
C518 C515 1.363 . S
C518 N516 1.356 . S
C519 C513 1.363 . S
C519 C514 1.379 . S
C519 N517 1.356 . S
N520 C512 1.356 . S
N520 H526 0.984 . S
N520 H527 0.984 . S
N521 C514 1.356 . S
N521 H524 0.984 . S
N521 H525 0.985 . S
H522 N517 0.984 . S
H523 N517 0.985 . S
H524 N521 0.984 . S
H525 N521 0.985 . S
H526 N520 0.984 . S
H527 N520 0.984 . S
H528 N516 0.984 . S
H529 N516 0.985 . S
C530 C531 1.363 . S
C530 C536 1.379 . S
C530 N538 1.356 . S
C531 C530 1.363 . S
C531 C537 1.363 . S
C532 C533 1.363 . S
C532 C537 1.379 . S
C532 N539 1.356 . S
C533 C532 1.363 . S
C533 C536 1.363 . S
N534 C536 1.356 . S
N534 H546 0.984 . S
N534 H547 0.985 . S
N535 C537 1.356 . S
N535 H540 0.984 . S
N535 H541 0.985 . S
C536 C530 1.379 . S
C536 C533 1.363 . S
C536 N534 1.356 . S
C537 C531 1.363 . S
C537 C532 1.379 . S
C537 N535 1.356 . S
N538 C530 1.356 . S
N538 H544 0.984 . S
N538 H545 0.984 . S
N539 C532 1.356 . S
N539 H542 0.984 . S
N539 H543 0.985 . S
H540 N535 0.984 . S
H541 N535 0.985 . S
H542 N539 0.984 . S
H543 N539 0.985 . S
H544 N538 0.984 . S
H545 N538 0.984 . S
H546 N534 0.984 . S
H547 N534 0.985 . S
C548 C549 1.363 . S
C548 C554 1.379 . S
C548 N556 1.356 . S
C549 C548 1.363 . S
C549 C555 1.363 . S
C550 C551 1.363 . S
C550 C555 1.379 . S
C550 N557 1.356 . S
C551 C550 1.363 . S
C551 C554 1.363 . S
N552 C554 1.356 . S
N552 H564 0.984 . S
N552 H565 0.985 . S
N553 C555 1.356 . S
N553 H558 0.984 . S
N553 H559 0.985 . S
C554 C548 1.379 . S
C554 C551 1.363 . S
C554 N552 1.356 . S
C555 C549 1.363 . S
C555 C550 1.379 . S
C555 N553 1.356 . S
N556 C548 1.356 . S
N556 H562 0.984 . S
N556 H563 0.984 . S
N557 C550 1.356 . S
N557 H560 0.984 1_554 S
N557 H561 0.985 1_554 S
H558 N553 0.984 . S
H559 N553 0.985 . S
H560 N557 0.984 1_556 S
H561 N557 0.985 1_556 S
H562 N556 0.984 . S
H563 N556 0.984 . S
H564 N552 0.984 . S
H565 N552 0.985 . S
C566 C567 1.363 . S
C566 C572 1.379 . S
C566 N574 1.356 . S
C567 C566 1.363 . S
C567 C573 1.363 . S
C568 C569 1.363 . S
C568 C573 1.379 . S
C568 N575 1.356 . S
C569 C568 1.363 . S
C569 C572 1.363 . S
N570 C572 1.356 . S
N570 H582 0.984 . S
N570 H583 0.985 . S
N571 C573 1.356 . S
N571 H576 0.984 . S
N571 H577 0.985 . S
C572 C566 1.379 . S
C572 C569 1.363 . S
C572 N570 1.356 . S
C573 C567 1.363 . S
C573 C568 1.379 . S
C573 N571 1.356 . S
N574 C566 1.356 . S
N574 H580 0.984 . S
N574 H581 0.984 . S
N575 C568 1.356 . S
N575 H578 0.984 . S
N575 H579 0.985 . S
H576 N571 0.984 . S
H577 N571 0.985 . S
H578 N575 0.984 . S
H579 N575 0.985 . S
H580 N574 0.984 . S
H581 N574 0.984 . S
H582 N570 0.984 . S
H583 N570 0.985 . S
C584 C585 1.363 . S
C584 C590 1.379 . S
C584 N592 1.356 . S
C585 C584 1.363 . S
C585 C591 1.363 . S
C586 C587 1.363 . S
C586 C591 1.379 . S
C586 N593 1.356 . S
C587 C586 1.363 . S
C587 C590 1.363 . S
N588 C590 1.356 . S
N588 H600 0.984 1_556 S
N588 H601 0.985 1_556 S
N589 C591 1.356 . S
N589 H594 0.984 . S
N589 H595 0.985 . S
C590 C584 1.379 . S
C590 C587 1.363 . S
C590 N588 1.356 . S
C591 C585 1.363 . S
C591 C586 1.379 . S
C591 N589 1.356 . S
N592 C584 1.356 . S
N592 H598 0.984 . S
N592 H599 0.984 . S
N593 C586 1.356 . S
N593 H596 0.984 . S
N593 H597 0.985 . S
H594 N589 0.984 . S
H595 N589 0.985 . S
H596 N593 0.984 . S
H597 N593 0.985 . S
H598 N592 0.984 . S
H599 N592 0.984 . S
H600 N588 0.984 1_554 S
H601 N588 0.985 1_554 S
C602 C603 1.363 . S
C602 C608 1.379 . S
C602 N610 1.356 . S
C603 C602 1.363 . S
C603 C609 1.363 . S
C604 C605 1.363 . S
C604 C609 1.379 . S
C604 N611 1.356 . S
C605 C604 1.363 . S
C605 C608 1.363 . S
N606 C608 1.356 . S
N606 H618 0.984 . S
N606 H619 0.985 . S
N607 C609 1.356 . S
N607 H612 0.984 . S
N607 H613 0.985 . S
C608 C602 1.379 . S
C608 C605 1.363 . S
C608 N606 1.356 . S
C609 C603 1.363 . S
C609 C604 1.379 . S
C609 N607 1.356 . S
N610 C602 1.356 . S
N610 H616 0.984 . S
N610 H617 0.984 . S
N611 C604 1.356 . S
N611 H614 0.984 . S
N611 H615 0.985 . S
H612 N607 0.984 . S
H613 N607 0.985 . S
H614 N611 0.984 . S
H615 N611 0.985 . S
H616 N610 0.984 . S
H617 N610 0.984 . S
H618 N606 0.984 . S
H619 N606 0.985 . S
C620 C621 1.363 . S
C620 C626 1.379 . S
C620 N628 1.356 . S
C621 C620 1.363 . S
C621 C627 1.363 . S
C622 C623 1.363 . S
C622 C627 1.379 . S
C622 N629 1.356 . S
C623 C622 1.363 . S
C623 C626 1.363 . S
N624 C626 1.356 . S
N624 H636 0.984 . S
N624 H637 0.985 . S
N625 C627 1.356 . S
N625 H630 0.984 . S
N625 H631 0.985 . S
C626 C620 1.379 . S
C626 C623 1.363 . S
C626 N624 1.356 . S
C627 C621 1.363 . S
C627 C622 1.379 . S
C627 N625 1.356 . S
N628 C620 1.356 . S
N628 H634 0.984 . S
N628 H635 0.984 . S
N629 C622 1.356 . S
N629 H632 0.984 . S
N629 H633 0.985 . S
H630 N625 0.984 . S
H631 N625 0.985 . S
H632 N629 0.984 . S
H633 N629 0.985 . S
H634 N628 0.984 . S
H635 N628 0.984 . S
H636 N624 0.984 . S
H637 N624 0.985 . S
C638 C639 1.363 . S
C638 C644 1.379 . S
C638 N646 1.356 . S
C639 C638 1.363 . S
C639 C645 1.363 . S
C640 C641 1.363 . S
C640 C645 1.379 . S
C640 N647 1.356 . S
C641 C640 1.363 . S
C641 C644 1.363 . S
N642 C644 1.356 . S
N642 H654 0.984 . S
N642 H655 0.985 . S
N643 C645 1.356 . S
N643 H648 0.984 . S
N643 H649 0.985 . S
C644 C638 1.379 . S
C644 C641 1.363 . S
C644 N642 1.356 . S
C645 C639 1.363 . S
C645 C640 1.379 . S
C645 N643 1.356 . S
N646 C638 1.356 . S
N646 H652 0.984 . S
N646 H653 0.984 . S
N647 C640 1.356 . S
N647 H650 0.984 . S
N647 H651 0.985 . S
H648 N643 0.984 . S
H649 N643 0.985 . S
H650 N647 0.984 . S
H651 N647 0.985 . S
H652 N646 0.984 . S
H653 N646 0.984 . S
H654 N642 0.984 . S
H655 N642 0.985 . S
C656 C657 1.363 . S
C656 C662 1.379 . S
C656 N664 1.356 . S
C657 C656 1.363 . S
C657 C663 1.363 . S
C658 C659 1.363 . S
C658 C663 1.379 . S
C658 N665 1.356 . S
C659 C658 1.363 . S
C659 C662 1.363 . S
N660 C662 1.356 . S
N660 H672 0.984 . S
N660 H673 0.985 . S
N661 C663 1.356 . S
N661 H666 0.984 . S
N661 H667 0.985 . S
C662 C656 1.379 . S
C662 C659 1.363 . S
C662 N660 1.356 . S
C663 C657 1.363 . S
C663 C658 1.379 . S
C663 N661 1.356 . S
N664 C656 1.356 . S
N664 H670 0.984 . S
N664 H671 0.984 . S
N665 C658 1.356 . S
N665 H668 0.984 . S
N665 H669 0.985 . S
H666 N661 0.984 . S
H667 N661 0.985 . S
H668 N665 0.984 . S
H669 N665 0.985 . S
H670 N664 0.984 . S
H671 N664 0.984 . S
H672 N660 0.984 . S
H673 N660 0.985 . S
C674 C675 1.363 . S
C674 C680 1.379 . S
C674 N682 1.356 . S
C675 C674 1.363 . S
C675 C681 1.363 . S
C676 C677 1.363 . S
C676 C681 1.379 . S
C676 N683 1.356 . S
C677 C676 1.363 . S
C677 C680 1.363 . S
N678 C680 1.356 . S
N678 H690 0.984 . S
N678 H691 0.985 . S
N679 C681 1.356 . S
N679 H684 0.984 . S
N679 H685 0.985 . S
C680 C674 1.379 . S
C680 C677 1.363 . S
C680 N678 1.356 . S
C681 C675 1.363 . S
C681 C676 1.379 . S
C681 N679 1.356 . S
N682 C674 1.356 . S
N682 H688 0.984 1_565 S
N682 H689 0.984 . S
N683 C676 1.356 . S
N683 H686 0.984 . S
N683 H687 0.985 . S
H684 N679 0.984 . S
H685 N679 0.985 . S
H686 N683 0.984 . S
H687 N683 0.985 . S
H688 N682 0.984 1_545 S
H689 N682 0.984 . S
H690 N678 0.984 . S
H691 N678 0.985 . S
C692 C693 1.363 . S
C692 C698 1.379 . S
C692 N700 1.356 . S
C693 C692 1.363 . S
C693 C699 1.363 . S
C694 C695 1.363 . S
C694 C699 1.379 . S
C694 N701 1.356 . S
C695 C694 1.363 . S
C695 C698 1.363 . S
N696 C698 1.356 . S
N696 H708 0.984 . S
N696 H709 0.985 . S
N697 C699 1.356 . S
N697 H702 0.984 . S
N697 H703 0.985 . S
C698 C692 1.379 . S
C698 C695 1.363 . S
C698 N696 1.356 . S
C699 C693 1.363 . S
C699 C694 1.379 . S
C699 N697 1.356 . S
N700 C692 1.356 . S
N700 H706 0.984 . S
N700 H707 0.984 . S
N701 C694 1.356 . S
N701 H704 0.984 . S
N701 H705 0.985 . S
H702 N697 0.984 . S
H703 N697 0.985 . S
H704 N701 0.984 . S
H705 N701 0.985 . S
H706 N700 0.984 . S
H707 N700 0.984 . S
H708 N696 0.984 . S
H709 N696 0.985 . S
C710 C711 1.363 . S
C710 C716 1.379 . S
C710 N718 1.356 . S
C711 C710 1.363 . S
C711 C717 1.363 . S
C712 C713 1.363 . S
C712 C717 1.379 . S
C712 N719 1.356 . S
C713 C712 1.363 . S
C713 C716 1.363 . S
N714 C716 1.356 . S
N714 H726 0.984 . S
N714 H727 0.985 . S
N715 C717 1.356 . S
N715 H720 0.984 . S
N715 H721 0.985 . S
C716 C710 1.379 . S
C716 C713 1.363 . S
C716 N714 1.356 . S
C717 C711 1.363 . S
C717 C712 1.379 . S
C717 N715 1.356 . S
N718 C710 1.356 . S
N718 H724 0.984 . S
N718 H725 0.984 . S
N719 C712 1.356 . S
N719 H722 0.984 . S
N719 H723 0.985 . S
H720 N715 0.984 . S
H721 N715 0.985 . S
H722 N719 0.984 . S
H723 N719 0.985 . S
H724 N718 0.984 . S
H725 N718 0.984 . S
H726 N714 0.984 . S
H727 N714 0.985 . S
C728 C729 1.363 . S
C728 C734 1.379 . S
C728 N736 1.356 . S
C729 C728 1.363 . S
C729 C735 1.363 . S
C730 C731 1.363 . S
C730 C735 1.379 . S
C730 N737 1.356 . S
C731 C730 1.363 . S
C731 C734 1.363 . S
N732 C734 1.356 . S
N732 H744 0.984 . S
N732 H745 0.985 . S
N733 C735 1.356 . S
N733 H738 0.984 . S
N733 H739 0.985 . S
C734 C728 1.379 . S
C734 C731 1.363 . S
C734 N732 1.356 . S
C735 C729 1.363 . S
C735 C730 1.379 . S
C735 N733 1.356 . S
N736 C728 1.356 . S
N736 H742 0.984 . S
N736 H743 0.984 . S
N737 C730 1.356 . S
N737 H740 0.984 . S
N737 H741 0.985 . S
H738 N733 0.984 . S
H739 N733 0.985 . S
H740 N737 0.984 . S
H741 N737 0.985 . S
H742 N736 0.984 . S
H743 N736 0.984 . S
H744 N732 0.984 . S
H745 N732 0.985 . S
C746 C747 1.363 . S
C746 C752 1.379 . S
C746 N754 1.356 . S
C747 C746 1.363 . S
C747 C753 1.363 . S
C748 C749 1.363 . S
C748 C753 1.379 . S
C748 N755 1.356 . S
C749 C748 1.363 . S
C749 C752 1.363 . S
N750 C752 1.356 . S
N750 H762 0.984 . S
N750 H763 0.985 . S
N751 C753 1.356 . S
N751 H756 0.984 . S
N751 H757 0.985 . S
C752 C746 1.379 . S
C752 C749 1.363 . S
C752 N750 1.356 . S
C753 C747 1.363 . S
C753 C748 1.379 . S
C753 N751 1.356 . S
N754 C746 1.356 . S
N754 H760 0.984 1_455 S
N754 H761 0.984 . S
N755 C748 1.356 . S
N755 H758 0.984 . S
N755 H759 0.985 . S
H756 N751 0.984 . S
H757 N751 0.985 . S
H758 N755 0.984 . S
H759 N755 0.985 . S
H760 N754 0.984 1_655 S
H761 N754 0.984 . S
H762 N750 0.984 . S
H763 N750 0.985 . S
C764 C765 1.363 . S
C764 C770 1.379 . S
C764 N772 1.356 . S
C765 C764 1.363 . S
C765 C771 1.363 . S
C766 C767 1.363 . S
C766 C771 1.379 . S
C766 N773 1.356 . S
C767 C766 1.363 . S
C767 C770 1.363 . S
N768 C770 1.356 . S
N768 H780 0.984 . S
N768 H781 0.985 . S
N769 C771 1.356 . S
N769 H774 0.984 . S
N769 H775 0.985 . S
C770 C764 1.379 . S
C770 C767 1.363 . S
C770 N768 1.356 . S
C771 C765 1.363 . S
C771 C766 1.379 . S
C771 N769 1.356 . S
N772 C764 1.356 . S
N772 H778 0.984 . S
N772 H779 0.984 . S
N773 C766 1.356 . S
N773 H776 0.984 . S
N773 H777 0.985 . S
H774 N769 0.984 . S
H775 N769 0.985 . S
H776 N773 0.984 . S
H777 N773 0.985 . S
H778 N772 0.984 . S
H779 N772 0.984 . S
H780 N768 0.984 . S
H781 N768 0.985 . S
C782 C783 1.363 . S
C782 C788 1.379 . S
C782 N790 1.356 . S
C783 C782 1.363 . S
C783 C789 1.363 . S
C784 C785 1.363 . S
C784 C789 1.379 . S
C784 N791 1.356 . S
C785 C784 1.363 . S
C785 C788 1.363 . S
N786 C788 1.356 . S
N786 H798 0.984 . S
N786 H799 0.985 . S
N787 C789 1.356 . S
N787 H792 0.984 . S
N787 H793 0.985 . S
C788 C782 1.379 . S
C788 C785 1.363 . S
C788 N786 1.356 . S
C789 C783 1.363 . S
C789 C784 1.379 . S
C789 N787 1.356 . S
N790 C782 1.356 . S
N790 H796 0.984 . S
N790 H797 0.984 . S
N791 C784 1.356 . S
N791 H794 0.984 . S
N791 H795 0.985 . S
H792 N787 0.984 . S
H793 N787 0.985 . S
H794 N791 0.984 . S
H795 N791 0.985 . S
H796 N790 0.984 . S
H797 N790 0.984 . S
H798 N786 0.984 . S
H799 N786 0.985 . S
C225 C11 1.187 . S
C227 C67 1.187 . S
C243 C81 1.187 . S
C245 C25 1.187 . S
C261 C39 1.187 . S
C263 C95 1.187 . S
C279 C53 1.187 . S
C281 C109 1.187 . S
C297 C123 1.187 . S
C299 C179 1.187 . S
C315 C193 1.187 . S
C317 C137 1.187 . S
C333 C151 1.187 . S
C335 C207 1.187 . S
C351 C165 1.187 . S
C353 C221 1.187 . S
C369 C12 1.276 . S
C371 C214 1.261 . S
C387 C172 1.261 . S
C389 C26 1.276 . S
C405 C40 1.276 . S
C407 C186 1.261 . S
C423 C200 1.261 . S
C425 C54 1.276 . S
C441 C130 1.261 . S
C443 C68 1.276 . S
C459 C144 1.261 . S
C461 C82 1.276 . S
C477 C158 1.261 . S
C479 C96 1.276 . S
C495 C116 1.261 . S
C497 C110 1.276 . S
C513 C124 1.276 . S
C515 C102 1.261 . S
C531 C60 1.261 . S
C533 C138 1.276 . S
C549 C74 1.261 . S
C551 C152 1.276 . S
C567 C166 1.276 . S
C569 C88 1.261 . S
C585 C18 1.261 . S
C587 C180 1.276 . S
C603 C194 1.276 . S
C605 C32 1.261 . S
C621 C208 1.276 . S
C623 C46 1.261 . S
C639 C222 1.276 . S
C641 C4 1.261 . S
C657 C103 1.466 . S
C659 C5 1.466 . S
C675 C19 1.466 . S
C677 C61 1.466 . S
C693 C33 1.466 . S
C695 C75 1.466 . S
C711 C47 1.466 . S
C713 C89 1.466 . S
C729 C215 1.466 . S
C731 C117 1.466 . S
C747 C173 1.466 . S
C749 C131 1.466 . S
C765 C187 1.466 . S
C767 C145 1.466 . S
C783 C201 1.466 . S
C785 C159 1.466 . S
