# Generated by pormake.
# Topology pcb, (4)-cn, num edge types: 1
# Building blocks:
#     Node 0, Type 0, BuildingBlock: CEKHIL_clean_sbu_0, # of connection points: 4
#     Node 1, Type 0, BuildingBlock: CEKHIL_clean_sbu_0, # of connection points: 4
#     Node 2, Type 0, BuildingBlock: CEKHIL_clean_sbu_0, # of connection points: 4
#     Node 3, Type 0, BuildingBlock: CEKHIL_clean_sbu_0, # of connection points: 4
#     Node 4, Type 0, BuildingBlock: CEKHIL_clean_sbu_0, # of connection points: 4
#     Node 5, Type 0, BuildingBlock: CEKHIL_clean_sbu_0, # of connection points: 4
#     Node 6, Type 0, BuildingBlock: CEKHIL_clean_sbu_0, # of connection points: 4
#     Node 7, Type 0, BuildingBlock: CEKHIL_clean_sbu_0, # of connection points: 4
#     Node 8, Type 0, BuildingBlock: CEKHIL_clean_sbu_0, # of connection points: 4
#     Node 9, Type 0, BuildingBlock: CEKHIL_clean_sbu_0, # of connection points: 4
#     Node 10, Type 0, BuildingBlock: CEKHIL_clean_sbu_0, # of connection points: 4
#     Node 11, Type 0, BuildingBlock: CEKHIL_clean_sbu_0, # of connection points: 4
#     Node 12, Type 0, BuildingBlock: CEKHIL_clean_sbu_0, # of connection points: 4
#     Node 13, Type 0, BuildingBlock: CEKHIL_clean_sbu_0, # of connection points: 4
#     Node 14, Type 0, BuildingBlock: CEKHIL_clean_sbu_0, # of connection points: 4
#     Node 15, Type 0, BuildingBlock: CEKHIL_clean_sbu_0, # of connection points: 4
#     Edge 16, Type (0, 0), BuildingBlock: CIFDUS_clean_linker_0, # of connection points: 2
#     Edge 17, Type (0, 0), BuildingBlock: CIFDUS_clean_linker_0, # of connection points: 2
#     Edge 18, Type (0, 0), BuildingBlock: CIFDUS_clean_linker_0, # of connection points: 2
#     Edge 19, Type (0, 0), BuildingBlock: CIFDUS_clean_linker_0, # of connection points: 2
#     Edge 20, Type (0, 0), BuildingBlock: CIFDUS_clean_linker_0, # of connection points: 2
#     Edge 21, Type (0, 0), BuildingBlock: CIFDUS_clean_linker_0, # of connection points: 2
#     Edge 22, Type (0, 0), BuildingBlock: CIFDUS_clean_linker_0, # of connection points: 2
#     Edge 23, Type (0, 0), BuildingBlock: CIFDUS_clean_linker_0, # of connection points: 2
#     Edge 24, Type (0, 0), BuildingBlock: CIFDUS_clean_linker_0, # of connection points: 2
#     Edge 25, Type (0, 0), BuildingBlock: CIFDUS_clean_linker_0, # of connection points: 2
#     Edge 26, Type (0, 0), BuildingBlock: CIFDUS_clean_linker_0, # of connection points: 2
#     Edge 27, Type (0, 0), BuildingBlock: CIFDUS_clean_linker_0, # of connection points: 2
#     Edge 28, Type (0, 0), BuildingBlock: CIFDUS_clean_linker_0, # of connection points: 2
#     Edge 29, Type (0, 0), BuildingBlock: CIFDUS_clean_linker_0, # of connection points: 2
#     Edge 30, Type (0, 0), BuildingBlock: CIFDUS_clean_linker_0, # of connection points: 2
#     Edge 31, Type (0, 0), BuildingBlock: CIFDUS_clean_linker_0, # of connection points: 2
#     Edge 32, Type (0, 0), BuildingBlock: CIFDUS_clean_linker_0, # of connection points: 2
#     Edge 33, Type (0, 0), BuildingBlock: CIFDUS_clean_linker_0, # of connection points: 2
#     Edge 34, Type (0, 0), BuildingBlock: CIFDUS_clean_linker_0, # of connection points: 2
#     Edge 35, Type (0, 0), BuildingBlock: CIFDUS_clean_linker_0, # of connection points: 2
#     Edge 36, Type (0, 0), BuildingBlock: CIFDUS_clean_linker_0, # of connection points: 2
#     Edge 37, Type (0, 0), BuildingBlock: CIFDUS_clean_linker_0, # of connection points: 2
#     Edge 38, Type (0, 0), BuildingBlock: CIFDUS_clean_linker_0, # of connection points: 2
#     Edge 39, Type (0, 0), BuildingBlock: CIFDUS_clean_linker_0, # of connection points: 2
#     Edge 40, Type (0, 0), BuildingBlock: CIFDUS_clean_linker_0, # of connection points: 2
#     Edge 41, Type (0, 0), BuildingBlock: CIFDUS_clean_linker_0, # of connection points: 2
#     Edge 42, Type (0, 0), BuildingBlock: CIFDUS_clean_linker_0, # of connection points: 2
#     Edge 43, Type (0, 0), BuildingBlock: CIFDUS_clean_linker_0, # of connection points: 2
#     Edge 44, Type (0, 0), BuildingBlock: CIFDUS_clean_linker_0, # of connection points: 2
#     Edge 45, Type (0, 0), BuildingBlock: CIFDUS_clean_linker_0, # of connection points: 2
#     Edge 46, Type (0, 0), BuildingBlock: CIFDUS_clean_linker_0, # of connection points: 2
#     Edge 47, Type (0, 0), BuildingBlock: CIFDUS_clean_linker_0, # of connection points: 2
# Relax obj value: 0.232
# Max RMSD: 0.083
# Mean RMSD: 0.083
data_MOF--net-pcb--node1-CEKHIL_clean_sbu_0--edge1-CIFDUS_clean_linker_0
_symmetry_space_group_name_H-M    P1
_symmetry_Int_Tables_number       1
_symmetry_cell_setting            triclinic
loop_
_symmetry_equiv_pos_as_xyz
'x, y, z'
_cell_length_a     49.482361
_cell_length_b     32.25244
_cell_length_c     32.2673
_cell_angle_alpha  89.955359
_cell_angle_beta   89.981194
_cell_angle_gamma 89.986042
loop_
_atom_site_label
_atom_site_type_symbol
_atom_site_fract_x
_atom_site_fract_y
_atom_site_fract_z
_atom_type_partial_charge
Co0 Co 0.14119 0.19206 0.19878 0.0
O1 O 0.17998 0.18999 0.19221 0.0
O2 O 0.15748 0.24348 0.21749 0.0
C3 C 0.13838 0.12823 0.22734 0.0
O4 O 0.10114 0.20563 0.21057 0.0
Co5 Co 0.10252 0.12838 0.15747 0.0
O6 O 0.07569 0.14948 0.19766 0.0
C7 C 0.12564 0.1983 0.10831 0.0
C8 C 0.18067 0.22693 0.208 0.0
C9 C 0.07841 0.18592 0.21204 0.0
O10 O 0.13728 0.21392 0.14042 0.0
O11 O 0.11231 0.16423 0.10891 0.0
O12 O 0.14442 0.15986 0.25044 0.0
O13 O 0.13541 0.13571 0.18844 0.0
Co14 Co 0.86427 0.18975 0.18293 0.0
O15 O 0.82619 0.18125 0.17428 0.0
O16 O 0.84392 0.20622 0.23192 0.0
C17 C 0.8708 0.22039 0.12081 0.0
O18 O 0.90308 0.20277 0.20256 0.0
Co19 Co 0.90699 0.14995 0.12515 0.0
O20 O 0.93113 0.1926 0.14883 0.0
C21 C 0.88075 0.09942 0.19078 0.0
C22 C 0.82238 0.19556 0.2113 0.0
C23 C 0.92654 0.20603 0.18518 0.0
O24 O 0.86767 0.13118 0.20417 0.0
O25 O 0.89647 0.10032 0.15923 0.0
O26 O 0.86218 0.2421 0.152 0.0
O27 O 0.87379 0.18124 0.12741 0.0
Co28 Co 0.8768 0.79594 0.19883 0.0
O29 O 0.83796 0.79679 0.19327 0.0
O30 O 0.86094 0.74593 0.22245 0.0
C31 C 0.87987 0.86178 0.22222 0.0
O32 O 0.9171 0.78523 0.21146 0.0
Co33 Co 0.91273 0.85833 0.14866 0.0
O34 O 0.94137 0.83902 0.1866 0.0
C35 C 0.89078 0.78298 0.10795 0.0
C36 C 0.83754 0.76153 0.21251 0.0
C37 C 0.9394 0.80578 0.20766 0.0
O38 O 0.88053 0.76922 0.14208 0.0
O39 O 0.90262 0.81806 0.10437 0.0
O40 O 0.87414 0.83208 0.24794 0.0
O41 O 0.88172 0.85138 0.18389 0.0
Co42 Co 0.14845 0.80823 0.18355 0.0
O43 O 0.18605 0.82366 0.18183 0.0
O44 O 0.1666 0.79195 0.23465 0.0
C45 C 0.14872 0.77997 0.11945 0.0
O46 O 0.10993 0.78665 0.19551 0.0
Co47 Co 0.10779 0.84337 0.11825 0.0
O48 O 0.08434 0.79844 0.13896 0.0
C49 C 0.12386 0.89431 0.19122 0.0
C50 C 0.1886 0.80656 0.21793 0.0
C51 C 0.08794 0.782 0.17437 0.0
O52 O 0.13847 0.86486 0.20649 0.0
O53 O 0.11162 0.89189 0.15632 0.0
O54 O 0.15683 0.75822 0.15091 0.0
O55 O 0.14238 0.81787 0.12717 0.0
Co56 Co 0.13941 0.80983 0.7979 0.0
O57 O 0.17723 0.81732 0.80972 0.0
O58 O 0.16015 0.76046 0.78235 0.0
C59 C 0.13443 0.87235 0.76714 0.0
O60 O 0.10057 0.79244 0.78116 0.0
Co61 Co 0.09766 0.87151 0.8369 0.0
O62 O 0.0729 0.84599 0.79643 0.0
C63 C 0.12016 0.80253 0.8872 0.0
C64 C 0.18145 0.78058 0.79507 0.0
C65 C 0.0773 0.81088 0.77977 0.0
O66 O 0.13348 0.78801 0.85611 0.0
O67 O 0.10616 0.8359 0.88593 0.0
O68 O 0.14351 0.84124 0.74581 0.0
O69 O 0.13063 0.86554 0.80598 0.0
Co70 Co 0.14052 0.19693 0.80449 0.0
O71 O 0.17837 0.18722 0.81506 0.0
O72 O 0.16281 0.22057 0.76037 0.0
C73 C 0.1308 0.21801 0.86955 0.0
O74 O 0.10216 0.21372 0.78467 0.0
Co75 Co 0.09727 0.14581 0.85399 0.0
O76 O 0.07205 0.18632 0.82973 0.0
C77 C 0.12705 0.10697 0.78455 0.0
C78 C 0.18363 0.20695 0.78106 0.0
C79 C 0.07787 0.20961 0.79918 0.0
O80 O 0.13834 0.14163 0.77469 0.0
O81 O 0.11166 0.10224 0.81607 0.0
O82 O 0.14098 0.24419 0.84324 0.0
O83 O 0.12896 0.18032 0.8569 0.0
Co84 Co 0.87039 0.18792 0.80082 0.0
O85 O 0.83273 0.18386 0.81604 0.0
O86 O 0.85042 0.23724 0.78319 0.0
C87 C 0.87241 0.12269 0.77496 0.0
O88 O 0.90871 0.20209 0.7789 0.0
Co89 Co 0.91316 0.12672 0.83823 0.0
O90 O 0.93594 0.14772 0.79271 0.0
C91 C 0.89385 0.19912 0.88722 0.0
C92 C 0.82893 0.21938 0.79825 0.0
C93 C 0.93137 0.18231 0.7751 0.0
O94 O 0.87934 0.21306 0.85697 0.0
O95 O 0.9071 0.16505 0.88585 0.0
O96 O 0.86321 0.1526 0.75201 0.0
O97 O 0.87844 0.13256 0.8124 0.0
Co98 Co 0.87065 0.80153 0.81303 0.0
O99 O 0.83315 0.8172 0.81576 0.0
O100 O 0.85222 0.78843 0.76106 0.0
C101 C 0.87011 0.76967 0.87548 0.0
O102 O 0.90939 0.78081 0.80008 0.0
Co103 Co 0.91113 0.83302 0.87976 0.0
O104 O 0.93387 0.78746 0.8585 0.0
C105 C 0.89454 0.88822 0.81025 0.0
C106 C 0.83039 0.80269 0.77866 0.0
C107 C 0.93101 0.77406 0.82168 0.0
O108 O 0.8804 0.85928 0.79326 0.0
O109 O 0.90685 0.88402 0.84493 0.0
O110 O 0.86221 0.74981 0.84273 0.0
O111 O 0.87649 0.80797 0.86999 0.0
Co112 Co 0.64573 0.68871 0.70927 0.0
O113 O 0.68367 0.68017 0.69935 0.0
O114 O 0.66563 0.74086 0.71443 0.0
C115 C 0.6422 0.63324 0.75201 0.0
O116 O 0.60674 0.7084 0.72169 0.0
Co117 Co 0.604 0.62118 0.68548 0.0
O118 O 0.57959 0.65251 0.72254 0.0
C119 C 0.62879 0.67428 0.62019 0.0
C120 C 0.68726 0.71925 0.70634 0.0
C121 C 0.58365 0.69092 0.72898 0.0
O122 O 0.63987 0.69759 0.64783 0.0
O123 O 0.61552 0.64137 0.62928 0.0
O124 O 0.65038 0.66862 0.76645 0.0
O125 O 0.63781 0.6321 0.71271 0.0
Co126 Co 0.37042 0.70509 0.69435 0.0
O127 O 0.33259 0.69617 0.68355 0.0
O128 O 0.34877 0.71608 0.744 0.0
C129 C 0.37721 0.74204 0.63583 0.0
O130 O 0.40908 0.71733 0.71574 0.0
Co131 Co 0.41364 0.67267 0.63169 0.0
O132 O 0.43767 0.71121 0.66175 0.0
C133 C 0.38772 0.6148 0.69175 0.0
C134 C 0.32775 0.70686 0.72144 0.0
C135 C 0.43275 0.72164 0.69903 0.0
O136 O 0.37478 0.64457 0.70956 0.0
O137 O 0.40256 0.61984 0.65957 0.0
O138 O 0.36799 0.7605 0.66864 0.0
O139 O 0.38043 0.7026 0.63873 0.0
Co140 Co 0.37206 0.30588 0.68747 0.0
O141 O 0.33407 0.31571 0.67899 0.0
O142 O 0.35031 0.26361 0.71558 0.0
C143 C 0.38222 0.37233 0.70292 0.0
O144 O 0.41097 0.28781 0.70336 0.0
Co145 Co 0.41322 0.3514 0.62887 0.0
O146 O 0.4401 0.32825 0.66735 0.0
C147 C 0.38242 0.27922 0.59834 0.0
C148 C 0.32921 0.28316 0.70123 0.0
C149 C 0.43515 0.30049 0.69434 0.0
O150 O 0.37283 0.2718 0.63472 0.0
O151 O 0.39716 0.31059 0.58957 0.0
O152 O 0.37265 0.34813 0.73157 0.0
O153 O 0.38303 0.35685 0.66621 0.0
Co154 Co 0.64573 0.33153 0.69783 0.0
O155 O 0.68356 0.34627 0.69834 0.0
O156 O 0.66585 0.29705 0.73712 0.0
C157 C 0.64336 0.33177 0.62746 0.0
O158 O 0.60733 0.30669 0.7045 0.0
Co159 Co 0.60258 0.38812 0.65488 0.0
O160 O 0.57929 0.33888 0.65971 0.0
C161 C 0.62447 0.40981 0.73812 0.0
C162 C 0.68736 0.3172 0.72542 0.0
C163 C 0.58428 0.31037 0.68586 0.0
O164 O 0.63805 0.37572 0.74122 0.0
O165 O 0.61098 0.42033 0.70596 0.0
O166 O 0.65168 0.29869 0.64668 0.0
O167 O 0.63758 0.36263 0.65093 0.0
Co168 Co 0.6419 0.31852 0.28976 0.0
O169 O 0.68029 0.3233 0.29658 0.0
O170 O 0.65916 0.26446 0.28318 0.0
C171 C 0.63859 0.37376 0.24701 0.0
O172 O 0.60186 0.30333 0.28008 0.0
Co173 Co 0.60525 0.39187 0.31841 0.0
O174 O 0.57773 0.36251 0.28511 0.0
C175 C 0.63091 0.3362 0.38037 0.0
C176 C 0.68187 0.2839 0.28967 0.0
C177 C 0.57972 0.32427 0.27574 0.0
O178 O 0.63796 0.31037 0.35186 0.0
O179 O 0.61987 0.37129 0.37252 0.0
O180 O 0.64494 0.3378 0.23185 0.0
O181 O 0.63632 0.37551 0.28667 0.0
Co182 Co 0.64589 0.67886 0.3034 0.0
O183 O 0.68478 0.67139 0.30374 0.0
O184 O 0.66297 0.71618 0.26423 0.0
C185 C 0.64088 0.67919 0.3733 0.0
O186 O 0.60623 0.69722 0.29525 0.0
Co187 Co 0.60631 0.6144 0.34252 0.0
O188 O 0.57955 0.65924 0.33731 0.0
C189 C 0.63225 0.59714 0.26159 0.0
C190 C 0.68593 0.70026 0.27574 0.0
C191 C 0.58322 0.6894 0.31255 0.0
O192 O 0.64266 0.63376 0.25975 0.0
O193 O 0.61874 0.58364 0.29258 0.0
O194 O 0.6482 0.71288 0.35417 0.0
O195 O 0.6387 0.6468 0.35029 0.0
Co196 Co 0.37037 0.69193 0.31742 0.0
O197 O 0.33215 0.68496 0.32633 0.0
O198 O 0.35016 0.73623 0.29035 0.0
C199 C 0.37857 0.62493 0.30091 0.0
O200 O 0.40937 0.7078 0.30079 0.0
Co201 Co 0.41102 0.64311 0.37397 0.0
O202 O 0.43815 0.66581 0.33552 0.0
C203 C 0.38315 0.71742 0.40625 0.0
C204 C 0.32847 0.71827 0.3046 0.0
C205 C 0.43336 0.69406 0.30898 0.0
O206 O 0.37275 0.72539 0.37051 0.0
O207 O 0.39729 0.68514 0.41408 0.0
O208 O 0.36942 0.65013 0.27279 0.0
O209 O 0.38012 0.6399 0.33778 0.0
Co210 Co 0.36989 0.2914 0.30726 0.0
O211 O 0.33118 0.29691 0.30631 0.0
O212 O 0.35574 0.27654 0.25288 0.0
C213 C 0.37063 0.25685 0.36806 0.0
O214 O 0.41066 0.28121 0.29794 0.0
Co215 Co 0.40323 0.32988 0.37961 0.0
O216 O 0.43182 0.29258 0.35869 0.0
C217 C 0.38336 0.38331 0.31088 0.0
C218 C 0.3319 0.28407 0.26834 0.0
C219 C 0.43172 0.27915 0.3216 0.0
O220 O 0.37382 0.35188 0.29097 0.0
O221 O 0.39421 0.38067 0.34682 0.0
O222 O 0.36659 0.23665 0.33387 0.0
O223 O 0.37255 0.29649 0.36471 0.0
H224 H 0.28239 0.31588 0.28453 0.0
H225 H 0.32393 0.2314 0.20287 0.0
H226 H 0.28052 0.20804 0.17475 0.0
H227 H 0.23062 0.20692 0.17853 0.0
H228 H 0.18944 0.29267 0.25942 0.0
H229 H 0.23284 0.32045 0.28249 0.0
C230 C 0.28197 0.29276 0.26013 0.0
C231 C 0.30635 0.27509 0.24607 0.0
C232 C 0.25698 0.27948 0.24426 0.0
C233 C 0.30549 0.24554 0.21416 0.0
C234 C 0.28064 0.23197 0.1983 0.0
C235 C 0.23115 0.23203 0.20085 0.0
C236 C 0.20679 0.24737 0.2176 0.0
C237 C 0.25624 0.24797 0.2139 0.0
C238 C 0.20783 0.28023 0.24611 0.0
C239 C 0.23267 0.29603 0.25944 0.0
H240 H 0.69721 0.21893 0.24079 0.0
H241 H 0.72708 0.30583 0.33125 0.0
H242 H 0.77335 0.2829 0.31851 0.0
H243 H 0.80587 0.24389 0.27599 0.0
H244 H 0.77624 0.16043 0.18207 0.0
H245 H 0.72972 0.17587 0.20185 0.0
C246 C 0.71382 0.23204 0.25835 0.0
C247 C 0.70876 0.26399 0.28688 0.0
C248 C 0.74059 0.21971 0.2498 0.0
C249 C 0.73051 0.28123 0.309 0.0
C250 C 0.757 0.26825 0.30164 0.0
C251 C 0.78923 0.22858 0.26037 0.0
C252 C 0.79455 0.2013 0.22744 0.0
C253 C 0.7624 0.23841 0.27121 0.0
C254 C 0.77273 0.18187 0.20733 0.0
C255 C 0.74606 0.19067 0.21861 0.0
H256 H 0.78689 0.78766 0.19297 0.0
H257 H 0.82936 0.69219 0.26033 0.0
H258 H 0.78626 0.66423 0.28513 0.0
H259 H 0.73645 0.66876 0.28999 0.0
H260 H 0.69444 0.76451 0.22223 0.0
H261 H 0.73737 0.79042 0.19539 0.0
C262 C 0.78678 0.76053 0.21284 0.0
C263 C 0.81143 0.74215 0.22483 0.0
C264 C 0.76194 0.7448 0.22716 0.0
C265 C 0.81077 0.70696 0.25054 0.0
C266 C 0.78609 0.69104 0.26486 0.0
C267 C 0.73667 0.69522 0.26924 0.0
C268 C 0.71216 0.71477 0.25836 0.0
C269 C 0.76155 0.71001 0.25378 0.0
C270 C 0.7129 0.74887 0.23124 0.0
C271 C 0.73749 0.76376 0.21585 0.0
H272 H 0.31297 0.78343 0.25534 0.0
H273 H 0.28127 0.6877 0.3352 0.0
H274 H 0.23526 0.70912 0.31902 0.0
H275 H 0.20363 0.75182 0.27836 0.0
H276 H 0.23517 0.84612 0.1968 0.0
H277 H 0.28121 0.829 0.21785 0.0
C278 C 0.296 0.7675 0.26944 0.0
C279 C 0.30069 0.73379 0.29621 0.0
C280 C 0.26937 0.77976 0.25971 0.0
C281 C 0.27837 0.71357 0.31426 0.0
C282 C 0.25195 0.72583 0.30507 0.0
C283 C 0.22055 0.76913 0.26581 0.0
C284 C 0.21589 0.80016 0.23602 0.0
C285 C 0.24715 0.75847 0.27735 0.0
C286 C 0.23813 0.82199 0.21973 0.0
C287 C 0.26454 0.81212 0.23163 0.0
H288 H 0.3078 0.75253 0.78635 0.0
H289 H 0.28358 0.66947 0.68854 0.0
H290 H 0.23611 0.68123 0.70515 0.0
H291 H 0.20103 0.7202 0.74321 0.0
H292 H 0.22533 0.80611 0.83848 0.0
H293 H 0.27264 0.78799 0.82752 0.0
C294 C 0.29213 0.73647 0.76921 0.0
C295 C 0.29932 0.71028 0.73617 0.0
C296 C 0.26464 0.74418 0.77827 0.0
C297 C 0.27868 0.69001 0.71401 0.0
C298 C 0.25144 0.69675 0.72343 0.0
C299 C 0.21666 0.73436 0.76203 0.0
C300 C 0.20956 0.76458 0.7915 0.0
C301 C 0.24409 0.72453 0.75486 0.0
C302 C 0.23016 0.78292 0.81537 0.0
C303 C 0.25732 0.77262 0.80911 0.0
H304 H 0.20268 0.25825 0.7198 0.0
H305 H 0.22896 0.17197 0.81371 0.0
H306 H 0.27608 0.186 0.79655 0.0
H307 H 0.31036 0.2251 0.75673 0.0
H308 H 0.28385 0.31272 0.66417 0.0
H309 H 0.23685 0.29581 0.67877 0.0
C310 C 0.21871 0.24228 0.73625 0.0
C311 C 0.21215 0.21417 0.76806 0.0
C312 C 0.24598 0.25089 0.72659 0.0
C313 C 0.2333 0.19392 0.78917 0.0
C314 C 0.26036 0.20192 0.7794 0.0
C315 C 0.2943 0.24024 0.73959 0.0
C316 C 0.30079 0.27025 0.7095 0.0
C317 C 0.26703 0.2307 0.74846 0.0
C318 C 0.2796 0.28964 0.68769 0.0
C319 C 0.25259 0.27999 0.69598 0.0
H320 H 0.81271 0.28862 0.75517 0.0
H321 H 0.78203 0.18715 0.82856 0.0
H322 H 0.73579 0.20906 0.81457 0.0
H323 H 0.70352 0.25469 0.77797 0.0
H324 H 0.73426 0.35607 0.7045 0.0
H325 H 0.78045 0.33678 0.72214 0.0
C326 C 0.79593 0.2716 0.7685 0.0
C327 C 0.80103 0.23614 0.79276 0.0
C328 C 0.76913 0.28422 0.76007 0.0
C329 C 0.77888 0.21449 0.80967 0.0
C330 C 0.7523 0.22695 0.80161 0.0
C331 C 0.7203 0.27278 0.76614 0.0
C332 C 0.71523 0.30667 0.73971 0.0
C333 C 0.74709 0.26139 0.7763 0.0
C334 C 0.73738 0.32972 0.72476 0.0
C335 C 0.76394 0.31869 0.73481 0.0
H336 H 0.81291 0.74838 0.71939 0.0
H337 H 0.78598 0.84812 0.79811 0.0
H338 H 0.73912 0.83471 0.77873 0.0
H339 H 0.70519 0.78911 0.74608 0.0
H340 H 0.73217 0.68683 0.67067 0.0
H341 H 0.77914 0.70689 0.68158 0.0
C342 C 0.79683 0.76777 0.73148 0.0
C343 C 0.80297 0.79908 0.76026 0.0
C344 C 0.7697 0.75907 0.72115 0.0
C345 C 0.78182 0.82365 0.77603 0.0
C346 C 0.75495 0.81593 0.76508 0.0
C347 C 0.72134 0.7718 0.73135 0.0
C348 C 0.71512 0.73639 0.70782 0.0
C349 C 0.74853 0.78288 0.73867 0.0
C350 C 0.73635 0.71407 0.68922 0.0
C351 C 0.7633 0.72547 0.69548 0.0
H352 H 0.16254 0.24975 0.93022 0.0
H353 H 0.08171 0.20761 0.90409 0.0
H354 H 0.07143 0.20526 0.97779 0.0
H355 H 0.08799 0.20231 0.04873 0.0
H356 H 0.16961 0.23943 0.07669 0.0
H357 H 0.17702 0.25745 0.00362 0.0
C358 C 0.14243 0.24158 0.94086 0.0
C359 C 0.12284 0.22883 0.91201 0.0
C360 C 0.13704 0.23863 0.98363 0.0
C361 C 0.09703 0.21749 0.92582 0.0
C362 C 0.0912 0.21591 0.96798 0.0
C363 C 0.10723 0.2152 0.03894 0.0
C364 C 0.12839 0.21883 0.06765 0.0
C365 C 0.11146 0.22435 0.99706 0.0
C366 C 0.15306 0.23624 0.05496 0.0
C367 C 0.15734 0.24621 0.01316 0.0
H368 H 0.85233 0.23338 0.93153 0.0
H369 H 0.93839 0.21245 0.93303 0.0
H370 H 0.93975 0.2254 0.00733 0.0
H371 H 0.91506 0.22676 0.07311 0.0
H372 H 0.82913 0.24692 0.07334 0.0
H373 H 0.82899 0.25082 0.99742 0.0
C374 C 0.87147 0.23345 0.94792 0.0
C375 C 0.89515 0.22134 0.92713 0.0
C376 C 0.87201 0.23991 0.99114 0.0
C377 C 0.91985 0.22126 0.94864 0.0
C378 C 0.92064 0.22836 0.99118 0.0
C379 C 0.89654 0.23367 0.05648 0.0
C380 C 0.87218 0.23653 0.07832 0.0
C381 C 0.89665 0.23528 0.01304 0.0
C382 C 0.84816 0.24508 0.05683 0.0
C383 C 0.84806 0.24686 0.01345 0.0
H384 H 0.91108 0.74562 0.92474 0.0
H385 H 0.82465 0.75951 0.92059 0.0
H386 H 0.82231 0.75487 0.99631 0.0
H387 H 0.84631 0.76289 0.06315 0.0
H388 H 0.93301 0.75186 0.06612 0.0
H389 H 0.93393 0.73782 0.99182 0.0
C390 C 0.8917 0.74589 0.94047 0.0
C391 C 0.86809 0.75281 0.91759 0.0
C392 C 0.89066 0.74404 0.98392 0.0
C393 C 0.84303 0.75369 0.93791 0.0
C394 C 0.84174 0.75146 0.98118 0.0
C395 C 0.86517 0.7553 0.04775 0.0
C396 C 0.88956 0.75829 0.06976 0.0
C397 C 0.86559 0.74881 0.00459 0.0
C398 C 0.91402 0.74936 0.04958 0.0
C399 C 0.91457 0.74187 0.00704 0.0
H400 H 0.10446 0.76644 0.07361 0.0
H401 H 0.19128 0.76176 0.06967 0.0
H402 H 0.19013 0.75987 0.99365 0.0
H403 H 0.16435 0.77474 0.92931 0.0
H404 H 0.07755 0.78426 0.93559 0.0
H405 H 0.07851 0.76815 0.0094 0.0
C406 C 0.12303 0.76359 0.05608 0.0
C407 C 0.14786 0.76436 0.07679 0.0
C408 C 0.12213 0.76395 0.0127 0.0
C409 C 0.17191 0.76073 0.05405 0.0
C410 C 0.17124 0.76017 0.01064 0.0
C411 C 0.14569 0.77173 0.94669 0.0
C412 C 0.12094 0.78108 0.92745 0.0
C413 C 0.14648 0.76396 0.98964 0.0
C414 C 0.09681 0.77752 0.95009 0.0
C415 C 0.09736 0.76851 0.99228 0.0
H416 H 0.03645 0.16285 0.26147 0.0
H417 H 0.06258 0.25799 0.17672 0.0
H418 H 0.01573 0.27964 0.1662 0.0
H419 H 0.96742 0.25985 0.16869 0.0
H420 H 0.94124 0.16686 0.25572 0.0
H421 H 0.98784 0.15678 0.27875 0.0
C422 C 0.03193 0.1896 0.24227 0.0
C423 C 0.0529 0.20865 0.21971 0.0
C424 C 1.00485 0.20181 0.23629 0.0
C425 C 0.04683 0.2431 0.19472 0.0
C426 C 0.01996 0.25512 0.18824 0.0
C427 C 0.97181 0.23895 0.19418 0.0
C428 C 0.95096 0.21402 0.21039 0.0
C429 C 0.99875 0.23314 0.20708 0.0
C430 C 0.95687 0.18674 0.2431 0.0
C431 C 0.98362 0.1805 0.25583 0.0
H432 H 0.84232 0.92064 0.23595 0.0
H433 H 0.92819 0.89935 0.2331 0.0
H434 H 0.93646 0.97376 0.22748 0.0
H435 H 0.91877 0.04298 0.21072 0.0
H436 H 0.83297 0.06534 0.21493 0.0
H437 H 0.82499 0.99264 0.23351 0.0
C438 C 0.86281 0.93261 0.23586 0.0
C439 C 0.88466 0.90488 0.23457 0.0
C440 C 0.86733 0.97549 0.2321 0.0
C441 C 0.91113 0.9203 0.23379 0.0
C442 C 0.91584 0.96281 0.23037 0.0
C443 C 0.8984 0.03203 0.21669 0.0
C444 C 0.87644 0.05894 0.21084 0.0
C445 C 0.89404 0.99042 0.22739 0.0
C446 C 0.85014 0.04491 0.21918 0.0
C447 C 0.84558 0.00336 0.22956 0.0
H448 H 0.96757 0.74006 0.1793 0.0
H449 H 0.96972 0.83864 0.26898 0.0
H450 H 0.01872 0.83134 0.27533 0.0
H451 H 0.06109 0.80965 0.24163 0.0
H452 H 0.05877 0.71714 0.14568 0.0
H453 H 0.01021 0.70808 0.15617 0.0
C454 C 0.97868 0.7583 0.20182 0.0
C455 C 0.96512 0.78948 0.22403 0.0
C456 C 1.00709 0.75546 0.20346 0.0
C457 C 0.97975 0.81399 0.25212 0.0
C458 C 0.00784 0.81018 0.25528 0.0
C459 C 0.05015 0.78592 0.22472 0.0
C460 C 0.06346 0.76382 0.1932 0.0
C461 C 0.02187 0.7828 0.22922 0.0
C462 C 0.04896 0.73407 0.17049 0.0
C463 C 0.02109 0.72937 0.17607 0.0
H464 H 0.0956 0.07752 0.22716 0.0
H465 H 0.18025 0.08249 0.25683 0.0
H466 H 0.18272 0.00649 0.25575 0.0
H467 H 0.16242 0.94019 0.23151 0.0
H468 H 0.07779 0.93766 0.19965 0.0
H469 H 0.0734 0.01067 0.21739 0.0
C470 C 0.11427 0.06181 0.23509 0.0
C471 C 0.13765 0.08518 0.24216 0.0
C472 C 0.11559 0.01844 0.23329 0.0
C473 C 0.16191 0.06483 0.25192 0.0
C474 C 0.16337 0.02142 0.25071 0.0
C475 C 0.14289 0.95538 0.22995 0.0
C476 C 0.12057 0.93391 0.21361 0.0
C477 C 0.14062 0.99799 0.23928 0.0
C478 C 0.09534 0.95385 0.21157 0.0
C479 C 0.09281 0.99563 0.22158 0.0
H480 H 0.95568 0.80104 0.75143 0.0
H481 H 0.96367 0.71374 0.85167 0.0
H482 H 0.0122 0.70851 0.839 0.0
H483 H 0.05302 0.7431 0.81211 0.0
H484 H 0.04519 0.83541 0.71656 0.0
H485 H 0.99646 0.82365 0.71355 0.0
C486 C 0.96784 0.77922 0.76896 0.0
C487 C 0.95607 0.75776 0.80241 0.0
C488 C 0.99611 0.77801 0.7628 0.0
C489 C 0.97223 0.73037 0.82559 0.0
C490 C 1.0001 0.72779 0.81867 0.0
C491 C 0.04082 0.75881 0.78899 0.0
C492 C 0.05274 0.7898 0.76432 0.0
C493 C 0.01249 0.75346 0.78914 0.0
C494 C 0.03654 0.81094 0.7354 0.0
C495 C 0.00855 0.8047 0.7342 0.0
H496 H 0.17142 0.93153 0.75106 0.0
H497 H 0.08608 0.90585 0.74733 0.0
H498 H 0.07617 0.97987 0.74318 0.0
H499 H 0.09157 0.05077 0.7565 0.0
H500 H 0.17673 0.07738 0.76322 0.0
H501 H 0.18719 0.00446 0.7489 0.0
C502 C 0.15078 0.94229 0.74749 0.0
C503 C 0.12943 0.91366 0.74974 0.0
C504 C 0.14528 0.98507 0.74622 0.0
C505 C 0.10272 0.92753 0.74587 0.0
C506 C 0.09708 0.96985 0.74367 0.0
C507 C 0.11241 0.04079 0.75317 0.0
C508 C 0.13338 0.06897 0.76126 0.0
C509 C 0.11813 0.99882 0.7462 0.0
C510 C 0.16031 0.05609 0.75688 0.0
C511 C 0.16625 0.01431 0.74924 0.0
H512 H 0.05078 0.18309 0.7317 0.0
H513 H 0.05039 0.27646 0.82677 0.0
H514 H 1.00156 0.28473 0.81924 0.0
H515 H 0.95861 0.25074 0.80004 0.0
H516 H 0.95925 0.15293 0.70942 0.0
H517 H 0.00783 0.16175 0.69958 0.0
C518 C 0.0402 0.20705 0.74885 0.0
C519 C 0.05422 0.22943 0.77945 0.0
C520 C 0.01181 0.20998 0.74582 0.0
C521 C 0.04013 0.25944 0.80248 0.0
C522 C 0.01206 0.26359 0.7987 0.0
C523 C 0.96916 0.23313 0.7764 0.0
C524 C 0.95533 0.20136 0.75533 0.0
C525 C 0.99749 0.23699 0.77251 0.0
C526 C 0.96939 0.1779 0.72562 0.0
C527 C 0.99731 0.18251 0.72049 0.0
H528 H 0.85543 0.93197 0.76867 0.0
H529 H 0.93871 0.93687 0.80802 0.0
H530 H 0.94067 0.01046 0.79177 0.0
H531 H 0.91645 0.07494 0.77988 0.0
H532 H 0.83295 0.07304 0.74293 0.0
H533 H 0.83331 0.99684 0.74377 0.0
C534 C 0.87417 0.949 0.7724 0.0
C535 C 0.89674 0.92931 0.79027 0.0
C536 C 0.87498 0.99191 0.76391 0.0
C537 C 0.92094 0.9516 0.79501 0.0
C538 C 0.92209 0.9937 0.78578 0.0
C539 C 0.89863 0.05783 0.77059 0.0
C540 C 0.87474 0.07927 0.7615 0.0
C541 C 0.8989 0.01448 0.77224 0.0
C542 C 0.85167 0.05694 0.7496 0.0
C543 C 0.85181 0.01343 0.75064 0.0
H544 H 0.65573 0.73236 0.43624 0.0
H545 H 0.61121 0.62 0.411 0.0
H546 H 0.6025 0.61051 0.48411 0.0
H547 H 0.60926 0.63093 0.55514 0.0
H548 H 0.65517 0.74091 0.5842 0.0
H549 H 0.66146 0.75446 0.50997 0.0
C550 C 0.64387 0.70616 0.44687 0.0
C551 C 0.63414 0.67699 0.41798 0.0
C552 C 0.63933 0.70017 0.48971 0.0
C553 C 0.61901 0.64297 0.43225 0.0
C554 C 0.614 0.63738 0.47425 0.0
C555 C 0.62057 0.6581 0.54557 0.0
C556 C 0.63181 0.68469 0.57548 0.0
C557 C 0.62439 0.66533 0.50322 0.0
C558 C 0.64633 0.71974 0.56198 0.0
C559 C 0.64996 0.7275 0.51948 0.0
H560 H 0.33977 0.7607 0.57853 0.0
H561 H 0.4252 0.76498 0.60321 0.0
H562 H 0.43475 0.76776 0.52904 0.0
H563 H 0.41902 0.75014 0.45922 0.0
H564 H 0.33376 0.74173 0.43411 0.0
H565 H 0.32363 0.76065 0.506 0.0
C566 C 0.36034 0.76451 0.56752 0.0
C567 C 0.38182 0.76255 0.59593 0.0
C568 C 0.36563 0.76444 0.52471 0.0
C569 C 0.40845 0.76654 0.58171 0.0
C570 C 0.41389 0.7677 0.5393 0.0
C571 C 0.39824 0.75432 0.46917 0.0
C572 C 0.37713 0.74419 0.44194 0.0
C573 C 0.39272 0.76385 0.51068 0.0
C574 C 0.35027 0.74957 0.45472 0.0
C575 C 0.34452 0.75986 0.49594 0.0
H576 H 0.33336 0.24824 0.4278 0.0
H577 H 0.41687 0.22441 0.39904 0.0
H578 H 0.42756 0.21988 0.47291 0.0
H579 H 0.41474 0.24034 0.54375 0.0
H580 H 0.33126 0.26455 0.57264 0.0
H581 H 0.31853 0.24976 0.50087 0.0
C582 C 0.35359 0.24001 0.43787 0.0
C583 C 0.37442 0.23707 0.40851 0.0
C584 C 0.35954 0.23806 0.48037 0.0
C585 C 0.40064 0.22693 0.4214 0.0
C586 C 0.40675 0.22463 0.4636 0.0
C587 C 0.39363 0.24035 0.53463 0.0
C588 C 0.37394 0.25381 0.56294 0.0
C589 C 0.38665 0.23272 0.49321 0.0
C590 C 0.34666 0.25399 0.55121 0.0
C591 C 0.33946 0.2461 0.51006 0.0
H592 H 0.63247 0.3905 0.44319 0.0
H593 H 0.64038 0.25986 0.41755 0.0
H594 H 0.64553 0.2459 0.49216 0.0
H595 H 0.64626 0.27182 0.56565 0.0
H596 H 0.63723 0.40351 0.5866 0.0
H597 H 0.63399 0.41573 0.51301 0.0
C598 C 0.63521 0.35879 0.45363 0.0
C599 C 0.6357 0.32628 0.42475 0.0
C600 C 0.63789 0.35113 0.49603 0.0
C601 C 0.63988 0.28556 0.43912 0.0
C602 C 0.64272 0.27757 0.4818 0.0
C603 C 0.64358 0.30305 0.55392 0.0
C604 C 0.64171 0.33657 0.58186 0.0
C605 C 0.64151 0.3102 0.51073 0.0
C606 C 0.63837 0.37695 0.56614 0.0
C607 C 0.6366 0.38416 0.52388 0.0
H608 H 0.54082 0.6742 0.77926 0.0
H609 H 0.57015 0.76271 0.68983 0.0
H610 H 0.5241 0.78772 0.67846 0.0
H611 H 0.4752 0.77215 0.68185 0.0
H612 H 0.44585 0.68419 0.77172 0.0
H613 H 0.49201 0.67209 0.79594 0.0
C614 C 0.53724 0.70021 0.75865 0.0
C615 C 0.55888 0.71627 0.7351 0.0
C616 C 0.51057 0.71408 0.75189 0.0
C617 C 0.55396 0.74995 0.70851 0.0
C618 C 0.5275 0.76389 0.70159 0.0
C619 C 0.47882 0.75187 0.70812 0.0
C620 C 0.45712 0.72889 0.72479 0.0
C621 C 0.50555 0.74452 0.72134 0.0
C622 C 0.46209 0.70254 0.75862 0.0
C623 C 0.4886 0.69511 0.77202 0.0
H624 H 0.4235 0.55286 0.68148 0.0
H625 H 0.3465 0.58038 0.73781 0.0
H626 H 0.33994 0.50649 0.75317 0.0
H627 H 0.35346 0.43316 0.74093 0.0
H628 H 0.42884 0.40788 0.67893 0.0
H629 H 0.43896 0.48173 0.67599 0.0
C630 C 0.40535 0.54285 0.6975 0.0
C631 C 0.38525 0.57191 0.7077 0.0
C632 C 0.40148 0.50059 0.70513 0.0
C633 C 0.36219 0.55854 0.72936 0.0
C634 C 0.35839 0.51629 0.73794 0.0
C635 C 0.3724 0.44402 0.72793 0.0
C636 C 0.39048 0.41542 0.71022 0.0
C637 C 0.37751 0.48687 0.72467 0.0
C638 C 0.41472 0.42948 0.69272 0.0
C639 C 0.42043 0.47168 0.69084 0.0
H640 H 0.5511 0.31937 0.75179 0.0
H641 H 0.56354 0.24685 0.64153 0.0
H642 H 0.51599 0.22638 0.64167 0.0
H643 H 0.46966 0.24499 0.66209 0.0
H644 H 0.45656 0.32276 0.76841 0.0
H645 H 0.50521 0.32429 0.78199 0.0
C646 C 0.54365 0.29722 0.72923 0.0
C647 C 0.56086 0.28416 0.69698 0.0
C648 C 0.51586 0.28724 0.72844 0.0
C649 C 0.55081 0.25662 0.66706 0.0
C650 C 0.52348 0.24543 0.66682 0.0
C651 C 0.47739 0.26014 0.68967 0.0
C652 C 0.45951 0.28333 0.7145 0.0
C653 C 0.50554 0.26266 0.69583 0.0
C654 C 0.46981 0.30394 0.74941 0.0
C655 C 0.49775 0.3055 0.75663 0.0
H656 H 0.60239 0.5855 0.78338 0.0
H657 H 0.68856 0.59241 0.76713 0.0
H658 H 0.69226 0.51719 0.77472 0.0
H659 H 0.66901 0.4502 0.765 0.0
H660 H 0.58262 0.44398 0.77919 0.0
H661 H 0.58094 0.51766 0.79567 0.0
C662 C 0.62206 0.57062 0.78385 0.0
C663 C 0.64516 0.59404 0.77467 0.0
C664 C 0.6239 0.52727 0.7874 0.0
C665 C 0.67058 0.57474 0.7746 0.0
C666 C 0.67264 0.53167 0.77844 0.0
C667 C 0.65011 0.46447 0.77438 0.0
C668 C 0.62593 0.44206 0.77027 0.0
C669 C 0.6492 0.50744 0.78198 0.0
C670 C 0.60147 0.46082 0.78211 0.0
C671 C 0.60045 0.50318 0.79075 0.0
H672 H 0.45655 0.30711 0.25189 0.0
H673 H 0.46733 0.226 0.35663 0.0
H674 H 0.51608 0.22452 0.34468 0.0
H675 H 0.55589 0.25945 0.31482 0.0
H676 H 0.54504 0.34633 0.21487 0.0
H677 H 0.49657 0.33181 0.21359 0.0
C678 C 0.46949 0.28764 0.27082 0.0
C679 C 0.4584 0.26665 0.30502 0.0
C680 C 0.49775 0.28866 0.26499 0.0
C681 C 0.47545 0.24228 0.33 0.0
C682 C 0.50338 0.24177 0.32341 0.0
C683 C 0.54305 0.27359 0.2915 0.0
C684 C 0.55398 0.3037 0.26482 0.0
C685 C 0.5149 0.2667 0.29248 0.0
C686 C 0.53705 0.32275 0.23546 0.0
C687 C 0.50926 0.31482 0.23506 0.0
H688 H 0.67686 0.42901 0.22653 0.0
H689 H 0.59179 0.40362 0.21565 0.0
H690 H 0.58258 0.47727 0.20487 0.0
H691 H 0.59762 0.54803 0.22037 0.0
H692 H 0.6823 0.57349 0.23686 0.0
H693 H 0.69318 0.50121 0.2214 0.0
C694 C 0.65654 0.43953 0.21949 0.0
C695 C 0.63495 0.41139 0.22215 0.0
C696 C 0.6514 0.48215 0.2149 0.0
C697 C 0.60862 0.42498 0.21374 0.0
C698 C 0.60337 0.46713 0.20793 0.0
C699 C 0.61854 0.53815 0.21811 0.0
C700 C 0.63911 0.56553 0.23048 0.0
C701 C 0.62439 0.49611 0.21155 0.0
C702 C 0.66616 0.55283 0.22746 0.0
C703 C 0.67231 0.51125 0.21945 0.0
H704 H 0.54903 0.67785 0.24847 0.0
H705 H 0.56192 0.75181 0.35762 0.0
H706 H 0.51402 0.77042 0.35913 0.0
H707 H 0.46774 0.75008 0.34033 0.0
H708 H 0.45442 0.67108 0.23498 0.0
H709 H 0.50289 0.671 0.21988 0.0
C710 C 0.54151 0.69983 0.27116 0.0
C711 C 0.55892 0.71389 0.30263 0.0
C712 C 0.51365 0.70883 0.27282 0.0
C713 C 0.54893 0.74129 0.33271 0.0
C714 C 0.52146 0.75143 0.33388 0.0
C715 C 0.47536 0.73491 0.31267 0.0
C716 C 0.45758 0.71099 0.2885 0.0
C717 C 0.50342 0.73332 0.30561 0.0
C718 C 0.46766 0.69038 0.25347 0.0
C719 C 0.49549 0.68971 0.24535 0.0
H720 H 0.4198 0.44401 0.31941 0.0
H721 H 0.34289 0.41715 0.26291 0.0
H722 H 0.33644 0.49124 0.2478 0.0
H723 H 0.34975 0.56459 0.26159 0.0
H724 H 0.42525 0.58879 0.32358 0.0
H725 H 0.43548 0.51505 0.32505 0.0
C726 C 0.4018 0.45428 0.30313 0.0
C727 C 0.38163 0.42543 0.29295 0.0
C728 C 0.39798 0.49662 0.2958 0.0
C729 C 0.35867 0.43891 0.27116 0.0
C730 C 0.35491 0.48128 0.26286 0.0
C731 C 0.36874 0.55355 0.27424 0.0
C732 C 0.38677 0.58189 0.29254 0.0
C733 C 0.37397 0.51061 0.27656 0.0
C734 C 0.41111 0.5675 0.30947 0.0
C735 C 0.41691 0.52531 0.31047 0.0
loop_
_geom_bond_atom_site_label_1
_geom_bond_atom_site_label_2
_geom_bond_distance
_geom_bond_site_symmetry_2
_ccdc_geom_bond_type
Co0 O1 2.216 . S
Co0 O2 2.091 . S
Co0 O4 2.004 . S
Co0 O10 2.021 . S
Co0 O12 2.137 . S
Co0 O13 2.244 . S
O1 Co0 2.216 . S
O1 C8 1.247 . S
O2 Co0 2.091 . S
O2 C8 1.261 . S
C3 O12 1.247 . S
C3 O13 1.272 . S
O4 Co0 2.004 . S
O4 C9 1.259 . S
Co5 O6 2.061 . S
Co5 O11 2.052 . S
Co5 O13 2.135 . S
O6 Co5 2.061 . S
O6 C9 1.235 . S
C7 O10 1.238 . S
C7 O11 1.241 . S
C8 O1 1.247 . S
C8 O2 1.261 . S
C9 O4 1.259 . S
C9 O6 1.235 . S
O10 Co0 2.021 . S
O10 C7 1.238 . S
O11 Co5 2.052 . S
O11 C7 1.241 . S
O12 Co0 2.137 . S
O12 C3 1.247 . S
O13 Co0 2.244 . S
O13 C3 1.272 . S
O13 Co5 2.135 . S
Co14 O15 2.216 . S
Co14 O16 2.091 . S
Co14 O18 2.004 . S
Co14 O24 2.021 . S
Co14 O26 2.137 . S
Co14 O27 2.244 . S
O15 Co14 2.216 . S
O15 C22 1.247 . S
O16 Co14 2.091 . S
O16 C22 1.261 . S
C17 O26 1.247 . S
C17 O27 1.272 . S
O18 Co14 2.004 . S
O18 C23 1.259 . S
Co19 O20 2.061 . S
Co19 O25 2.052 . S
Co19 O27 2.135 . S
O20 Co19 2.061 . S
O20 C23 1.235 . S
C21 O24 1.238 . S
C21 O25 1.241 . S
C22 O15 1.247 . S
C22 O16 1.261 . S
C23 O18 1.259 . S
C23 O20 1.235 . S
O24 Co14 2.021 . S
O24 C21 1.238 . S
O25 Co19 2.052 . S
O25 C21 1.241 . S
O26 Co14 2.137 . S
O26 C17 1.247 . S
O27 Co14 2.244 . S
O27 C17 1.272 . S
O27 Co19 2.135 . S
Co28 O29 2.216 . S
Co28 O30 2.091 . S
Co28 O32 2.004 . S
Co28 O38 2.021 . S
Co28 O40 2.137 . S
Co28 O41 2.244 . S
O29 Co28 2.216 . S
O29 C36 1.247 . S
O30 Co28 2.091 . S
O30 C36 1.261 . S
C31 O40 1.247 . S
C31 O41 1.272 . S
O32 Co28 2.004 . S
O32 C37 1.259 . S
Co33 O34 2.061 . S
Co33 O39 2.052 . S
Co33 O41 2.135 . S
O34 Co33 2.061 . S
O34 C37 1.235 . S
C35 O38 1.238 . S
C35 O39 1.241 . S
C36 O29 1.247 . S
C36 O30 1.261 . S
C37 O32 1.259 . S
C37 O34 1.235 . S
O38 Co28 2.021 . S
O38 C35 1.238 . S
O39 Co33 2.052 . S
O39 C35 1.241 . S
O40 Co28 2.137 . S
O40 C31 1.247 . S
O41 Co28 2.244 . S
O41 C31 1.272 . S
O41 Co33 2.135 . S
Co42 O43 2.216 . S
Co42 O44 2.091 . S
Co42 O46 2.004 . S
Co42 O52 2.021 . S
Co42 O54 2.137 . S
Co42 O55 2.244 . S
O43 Co42 2.216 . S
O43 C50 1.247 . S
O44 Co42 2.091 . S
O44 C50 1.261 . S
C45 O54 1.247 . S
C45 O55 1.272 . S
O46 Co42 2.004 . S
O46 C51 1.259 . S
Co47 O48 2.061 . S
Co47 O53 2.052 . S
Co47 O55 2.135 . S
O48 Co47 2.061 . S
O48 C51 1.235 . S
C49 O52 1.238 . S
C49 O53 1.241 . S
C50 O43 1.247 . S
C50 O44 1.261 . S
C51 O46 1.259 . S
C51 O48 1.235 . S
O52 Co42 2.021 . S
O52 C49 1.238 . S
O53 Co47 2.052 . S
O53 C49 1.241 . S
O54 Co42 2.137 . S
O54 C45 1.247 . S
O55 Co42 2.244 . S
O55 C45 1.272 . S
O55 Co47 2.135 . S
Co56 O57 2.216 . S
Co56 O58 2.091 . S
Co56 O60 2.004 . S
Co56 O66 2.021 . S
Co56 O68 2.137 . S
Co56 O69 2.244 . S
O57 Co56 2.216 . S
O57 C64 1.247 . S
O58 Co56 2.091 . S
O58 C64 1.261 . S
C59 O68 1.247 . S
C59 O69 1.272 . S
O60 Co56 2.004 . S
O60 C65 1.259 . S
Co61 O62 2.061 . S
Co61 O67 2.052 . S
Co61 O69 2.135 . S
O62 Co61 2.061 . S
O62 C65 1.235 . S
C63 O66 1.238 . S
C63 O67 1.241 . S
C64 O57 1.247 . S
C64 O58 1.261 . S
C65 O60 1.259 . S
C65 O62 1.235 . S
O66 Co56 2.021 . S
O66 C63 1.238 . S
O67 Co61 2.052 . S
O67 C63 1.241 . S
O68 Co56 2.137 . S
O68 C59 1.247 . S
O69 Co56 2.244 . S
O69 C59 1.272 . S
O69 Co61 2.135 . S
Co70 O71 2.216 . S
Co70 O72 2.091 . S
Co70 O74 2.004 . S
Co70 O80 2.021 . S
Co70 O82 2.137 . S
Co70 O83 2.244 . S
O71 Co70 2.216 . S
O71 C78 1.247 . S
O72 Co70 2.091 . S
O72 C78 1.261 . S
C73 O82 1.247 . S
C73 O83 1.272 . S
O74 Co70 2.004 . S
O74 C79 1.259 . S
Co75 O76 2.061 . S
Co75 O81 2.052 . S
Co75 O83 2.135 . S
O76 Co75 2.061 . S
O76 C79 1.235 . S
C77 O80 1.238 . S
C77 O81 1.241 . S
C78 O71 1.247 . S
C78 O72 1.261 . S
C79 O74 1.259 . S
C79 O76 1.235 . S
O80 Co70 2.021 . S
O80 C77 1.238 . S
O81 Co75 2.052 . S
O81 C77 1.241 . S
O82 Co70 2.137 . S
O82 C73 1.247 . S
O83 Co70 2.244 . S
O83 C73 1.272 . S
O83 Co75 2.135 . S
Co84 O85 2.216 . S
Co84 O86 2.091 . S
Co84 O88 2.004 . S
Co84 O94 2.021 . S
Co84 O96 2.137 . S
Co84 O97 2.244 . S
O85 Co84 2.216 . S
O85 C92 1.247 . S
O86 Co84 2.091 . S
O86 C92 1.261 . S
C87 O96 1.247 . S
C87 O97 1.272 . S
O88 Co84 2.004 . S
O88 C93 1.259 . S
Co89 O90 2.061 . S
Co89 O95 2.052 . S
Co89 O97 2.135 . S
O90 Co89 2.061 . S
O90 C93 1.235 . S
C91 O94 1.238 . S
C91 O95 1.241 . S
C92 O85 1.247 . S
C92 O86 1.261 . S
C93 O88 1.259 . S
C93 O90 1.235 . S
O94 Co84 2.021 . S
O94 C91 1.238 . S
O95 Co89 2.052 . S
O95 C91 1.241 . S
O96 Co84 2.137 . S
O96 C87 1.247 . S
O97 Co84 2.244 . S
O97 C87 1.272 . S
O97 Co89 2.135 . S
Co98 O99 2.216 . S
Co98 O100 2.091 . S
Co98 O102 2.004 . S
Co98 O108 2.021 . S
Co98 O110 2.137 . S
Co98 O111 2.244 . S
O99 Co98 2.216 . S
O99 C106 1.247 . S
O100 Co98 2.091 . S
O100 C106 1.261 . S
C101 O110 1.247 . S
C101 O111 1.272 . S
O102 Co98 2.004 . S
O102 C107 1.259 . S
Co103 O104 2.061 . S
Co103 O109 2.052 . S
Co103 O111 2.135 . S
O104 Co103 2.061 . S
O104 C107 1.235 . S
C105 O108 1.238 . S
C105 O109 1.241 . S
C106 O99 1.247 . S
C106 O100 1.261 . S
C107 O102 1.259 . S
C107 O104 1.235 . S
O108 Co98 2.021 . S
O108 C105 1.238 . S
O109 Co103 2.052 . S
O109 C105 1.241 . S
O110 Co98 2.137 . S
O110 C101 1.247 . S
O111 Co98 2.244 . S
O111 C101 1.272 . S
O111 Co103 2.135 . S
Co112 O113 2.216 . S
Co112 O114 2.091 . S
Co112 O116 2.004 . S
Co112 O122 2.021 . S
Co112 O124 2.137 . S
Co112 O125 2.244 . S
O113 Co112 2.216 . S
O113 C120 1.247 . S
O114 Co112 2.091 . S
O114 C120 1.261 . S
C115 O124 1.247 . S
C115 O125 1.272 . S
O116 Co112 2.004 . S
O116 C121 1.259 . S
Co117 O118 2.061 . S
Co117 O123 2.052 . S
Co117 O125 2.135 . S
O118 Co117 2.061 . S
O118 C121 1.235 . S
C119 O122 1.238 . S
C119 O123 1.241 . S
C120 O113 1.247 . S
C120 O114 1.261 . S
C121 O116 1.259 . S
C121 O118 1.235 . S
O122 Co112 2.021 . S
O122 C119 1.238 . S
O123 Co117 2.052 . S
O123 C119 1.241 . S
O124 Co112 2.137 . S
O124 C115 1.247 . S
O125 Co112 2.244 . S
O125 C115 1.272 . S
O125 Co117 2.135 . S
Co126 O127 2.216 . S
Co126 O128 2.091 . S
Co126 O130 2.004 . S
Co126 O136 2.021 . S
Co126 O138 2.137 . S
Co126 O139 2.244 . S
O127 Co126 2.216 . S
O127 C134 1.247 . S
O128 Co126 2.091 . S
O128 C134 1.261 . S
C129 O138 1.247 . S
C129 O139 1.272 . S
O130 Co126 2.004 . S
O130 C135 1.259 . S
Co131 O132 2.061 . S
Co131 O137 2.052 . S
Co131 O139 2.135 . S
O132 Co131 2.061 . S
O132 C135 1.235 . S
C133 O136 1.238 . S
C133 O137 1.241 . S
C134 O127 1.247 . S
C134 O128 1.261 . S
C135 O130 1.259 . S
C135 O132 1.235 . S
O136 Co126 2.021 . S
O136 C133 1.238 . S
O137 Co131 2.052 . S
O137 C133 1.241 . S
O138 Co126 2.137 . S
O138 C129 1.247 . S
O139 Co126 2.244 . S
O139 C129 1.272 . S
O139 Co131 2.135 . S
Co140 O141 2.216 . S
Co140 O142 2.091 . S
Co140 O144 2.004 . S
Co140 O150 2.021 . S
Co140 O152 2.137 . S
Co140 O153 2.244 . S
O141 Co140 2.216 . S
O141 C148 1.247 . S
O142 Co140 2.091 . S
O142 C148 1.261 . S
C143 O152 1.247 . S
C143 O153 1.272 . S
O144 Co140 2.004 . S
O144 C149 1.259 . S
Co145 O146 2.061 . S
Co145 O151 2.052 . S
Co145 O153 2.135 . S
O146 Co145 2.061 . S
O146 C149 1.235 . S
C147 O150 1.238 . S
C147 O151 1.241 . S
C148 O141 1.247 . S
C148 O142 1.261 . S
C149 O144 1.259 . S
C149 O146 1.235 . S
O150 Co140 2.021 . S
O150 C147 1.238 . S
O151 Co145 2.052 . S
O151 C147 1.241 . S
O152 Co140 2.137 . S
O152 C143 1.247 . S
O153 Co140 2.244 . S
O153 C143 1.272 . S
O153 Co145 2.135 . S
Co154 O155 2.216 . S
Co154 O156 2.091 . S
Co154 O158 2.004 . S
Co154 O164 2.021 . S
Co154 O166 2.137 . S
Co154 O167 2.244 . S
O155 Co154 2.216 . S
O155 C162 1.247 . S
O156 Co154 2.091 . S
O156 C162 1.261 . S
C157 O166 1.247 . S
C157 O167 1.272 . S
O158 Co154 2.004 . S
O158 C163 1.259 . S
Co159 O160 2.061 . S
Co159 O165 2.052 . S
Co159 O167 2.135 . S
O160 Co159 2.061 . S
O160 C163 1.235 . S
C161 O164 1.238 . S
C161 O165 1.241 . S
C162 O155 1.247 . S
C162 O156 1.261 . S
C163 O158 1.259 . S
C163 O160 1.235 . S
O164 Co154 2.021 . S
O164 C161 1.238 . S
O165 Co159 2.052 . S
O165 C161 1.241 . S
O166 Co154 2.137 . S
O166 C157 1.247 . S
O167 Co154 2.244 . S
O167 C157 1.272 . S
O167 Co159 2.135 . S
Co168 O169 2.216 . S
Co168 O170 2.091 . S
Co168 O172 2.004 . S
Co168 O178 2.021 . S
Co168 O180 2.137 . S
Co168 O181 2.244 . S
O169 Co168 2.216 . S
O169 C176 1.247 . S
O170 Co168 2.091 . S
O170 C176 1.261 . S
C171 O180 1.247 . S
C171 O181 1.272 . S
O172 Co168 2.004 . S
O172 C177 1.259 . S
Co173 O174 2.061 . S
Co173 O179 2.052 . S
Co173 O181 2.135 . S
O174 Co173 2.061 . S
O174 C177 1.235 . S
C175 O178 1.238 . S
C175 O179 1.241 . S
C176 O169 1.247 . S
C176 O170 1.261 . S
C177 O172 1.259 . S
C177 O174 1.235 . S
O178 Co168 2.021 . S
O178 C175 1.238 . S
O179 Co173 2.052 . S
O179 C175 1.241 . S
O180 Co168 2.137 . S
O180 C171 1.247 . S
O181 Co168 2.244 . S
O181 C171 1.272 . S
O181 Co173 2.135 . S
Co182 O183 2.216 . S
Co182 O184 2.091 . S
Co182 O186 2.004 . S
Co182 O192 2.021 . S
Co182 O194 2.137 . S
Co182 O195 2.244 . S
O183 Co182 2.216 . S
O183 C190 1.247 . S
O184 Co182 2.091 . S
O184 C190 1.261 . S
C185 O194 1.247 . S
C185 O195 1.272 . S
O186 Co182 2.004 . S
O186 C191 1.259 . S
Co187 O188 2.061 . S
Co187 O193 2.052 . S
Co187 O195 2.135 . S
O188 Co187 2.061 . S
O188 C191 1.235 . S
C189 O192 1.238 . S
C189 O193 1.241 . S
C190 O183 1.247 . S
C190 O184 1.261 . S
C191 O186 1.259 . S
C191 O188 1.235 . S
O192 Co182 2.021 . S
O192 C189 1.238 . S
O193 Co187 2.052 . S
O193 C189 1.241 . S
O194 Co182 2.137 . S
O194 C185 1.247 . S
O195 Co182 2.244 . S
O195 C185 1.272 . S
O195 Co187 2.135 . S
Co196 O197 2.216 . S
Co196 O198 2.091 . S
Co196 O200 2.004 . S
Co196 O206 2.021 . S
Co196 O208 2.137 . S
Co196 O209 2.244 . S
O197 Co196 2.216 . S
O197 C204 1.247 . S
O198 Co196 2.091 . S
O198 C204 1.261 . S
C199 O208 1.247 . S
C199 O209 1.272 . S
O200 Co196 2.004 . S
O200 C205 1.259 . S
Co201 O202 2.061 . S
Co201 O207 2.052 . S
Co201 O209 2.135 . S
O202 Co201 2.061 . S
O202 C205 1.235 . S
C203 O206 1.238 . S
C203 O207 1.241 . S
C204 O197 1.247 . S
C204 O198 1.261 . S
C205 O200 1.259 . S
C205 O202 1.235 . S
O206 Co196 2.021 . S
O206 C203 1.238 . S
O207 Co201 2.052 . S
O207 C203 1.241 . S
O208 Co196 2.137 . S
O208 C199 1.247 . S
O209 Co196 2.244 . S
O209 C199 1.272 . S
O209 Co201 2.135 . S
Co210 O211 2.216 . S
Co210 O212 2.091 . S
Co210 O214 2.004 . S
Co210 O220 2.021 . S
Co210 O222 2.137 . S
Co210 O223 2.244 . S
O211 Co210 2.216 . S
O211 C218 1.247 . S
O212 Co210 2.091 . S
O212 C218 1.261 . S
C213 O222 1.247 . S
C213 O223 1.272 . S
O214 Co210 2.004 . S
O214 C219 1.259 . S
Co215 O216 2.061 . S
Co215 O221 2.052 . S
Co215 O223 2.135 . S
O216 Co215 2.061 . S
O216 C219 1.235 . S
C217 O220 1.238 . S
C217 O221 1.241 . S
C218 O211 1.247 . S
C218 O212 1.261 . S
C219 O214 1.259 . S
C219 O216 1.235 . S
O220 Co210 2.021 . S
O220 C217 1.238 . S
O221 Co215 2.052 . S
O221 C217 1.241 . S
O222 Co210 2.137 . S
O222 C213 1.247 . S
O223 Co210 2.244 . S
O223 C213 1.272 . S
O223 Co215 2.135 . S
H224 C230 0.930 . S
H225 C233 0.930 . S
H226 C234 0.930 . S
H227 C235 0.930 . S
H228 C238 0.930 . S
H229 C239 0.930 . S
C230 H224 0.930 . S
C230 C231 1.355 . S
C230 C232 1.415 . S
C231 C230 1.355 . S
C231 C233 1.419 . S
C232 C230 1.415 . S
C232 C237 1.425 . S
C232 C239 1.409 . S
C233 H225 0.930 . S
C233 C231 1.419 . S
C233 C234 1.362 . S
C234 H226 0.930 . S
C234 C233 1.362 . S
C234 C237 1.409 . S
C235 H227 0.930 . S
C235 C236 1.355 . S
C235 C237 1.415 . S
C236 C235 1.355 . S
C236 C238 1.419 . S
C237 C232 1.425 . S
C237 C234 1.409 . S
C237 C235 1.415 . S
C238 H228 0.930 . S
C238 C236 1.419 . S
C238 C239 1.362 . S
C239 H229 0.930 . S
C239 C232 1.409 . S
C239 C238 1.362 . S
H240 C246 0.930 . S
H241 C249 0.930 . S
H242 C250 0.930 . S
H243 C251 0.930 . S
H244 C254 0.930 . S
H245 C255 0.930 . S
C246 H240 0.930 . S
C246 C247 1.355 . S
C246 C248 1.415 . S
C247 C246 1.355 . S
C247 C249 1.419 . S
C248 C246 1.415 . S
C248 C253 1.425 . S
C248 C255 1.409 . S
C249 H241 0.930 . S
C249 C247 1.419 . S
C249 C250 1.362 . S
C250 H242 0.930 . S
C250 C249 1.362 . S
C250 C253 1.409 . S
C251 H243 0.930 . S
C251 C252 1.355 . S
C251 C253 1.415 . S
C252 C251 1.355 . S
C252 C254 1.419 . S
C253 C248 1.425 . S
C253 C250 1.409 . S
C253 C251 1.415 . S
C254 H244 0.930 . S
C254 C252 1.419 . S
C254 C255 1.362 . S
C255 H245 0.930 . S
C255 C248 1.409 . S
C255 C254 1.362 . S
H256 C262 0.930 . S
H257 C265 0.930 . S
H258 C266 0.930 . S
H259 C267 0.930 . S
H260 C270 0.930 . S
H261 C271 0.930 . S
C262 H256 0.930 . S
C262 C263 1.355 . S
C262 C264 1.415 . S
C263 C262 1.355 . S
C263 C265 1.419 . S
C264 C262 1.415 . S
C264 C269 1.425 . S
C264 C271 1.409 . S
C265 H257 0.930 . S
C265 C263 1.419 . S
C265 C266 1.362 . S
C266 H258 0.930 . S
C266 C265 1.362 . S
C266 C269 1.409 . S
C267 H259 0.930 . S
C267 C268 1.355 . S
C267 C269 1.415 . S
C268 C267 1.355 . S
C268 C270 1.419 . S
C269 C264 1.425 . S
C269 C266 1.409 . S
C269 C267 1.415 . S
C270 H260 0.930 . S
C270 C268 1.419 . S
C270 C271 1.362 . S
C271 H261 0.930 . S
C271 C264 1.409 . S
C271 C270 1.362 . S
H272 C278 0.930 . S
H273 C281 0.930 . S
H274 C282 0.930 . S
H275 C283 0.930 . S
H276 C286 0.930 . S
H277 C287 0.930 . S
C278 H272 0.930 . S
C278 C279 1.355 . S
C278 C280 1.415 . S
C279 C278 1.355 . S
C279 C281 1.419 . S
C280 C278 1.415 . S
C280 C285 1.425 . S
C280 C287 1.409 . S
C281 H273 0.930 . S
C281 C279 1.419 . S
C281 C282 1.362 . S
C282 H274 0.930 . S
C282 C281 1.362 . S
C282 C285 1.409 . S
C283 H275 0.930 . S
C283 C284 1.355 . S
C283 C285 1.415 . S
C284 C283 1.355 . S
C284 C286 1.419 . S
C285 C280 1.425 . S
C285 C282 1.409 . S
C285 C283 1.415 . S
C286 H276 0.930 . S
C286 C284 1.419 . S
C286 C287 1.362 . S
C287 H277 0.930 . S
C287 C280 1.409 . S
C287 C286 1.362 . S
H288 C294 0.930 . S
H289 C297 0.930 . S
H290 C298 0.930 . S
H291 C299 0.930 . S
H292 C302 0.930 . S
H293 C303 0.930 . S
C294 H288 0.930 . S
C294 C295 1.355 . S
C294 C296 1.415 . S
C295 C294 1.355 . S
C295 C297 1.419 . S
C296 C294 1.415 . S
C296 C301 1.425 . S
C296 C303 1.409 . S
C297 H289 0.930 . S
C297 C295 1.419 . S
C297 C298 1.362 . S
C298 H290 0.930 . S
C298 C297 1.362 . S
C298 C301 1.409 . S
C299 H291 0.930 . S
C299 C300 1.355 . S
C299 C301 1.415 . S
C300 C299 1.355 . S
C300 C302 1.419 . S
C301 C296 1.425 . S
C301 C298 1.409 . S
C301 C299 1.415 . S
C302 H292 0.930 . S
C302 C300 1.419 . S
C302 C303 1.362 . S
C303 H293 0.930 . S
C303 C296 1.409 . S
C303 C302 1.362 . S
H304 C310 0.930 . S
H305 C313 0.930 . S
H306 C314 0.930 . S
H307 C315 0.930 . S
H308 C318 0.930 . S
H309 C319 0.930 . S
C310 H304 0.930 . S
C310 C311 1.355 . S
C310 C312 1.415 . S
C311 C310 1.355 . S
C311 C313 1.419 . S
C312 C310 1.415 . S
C312 C317 1.425 . S
C312 C319 1.409 . S
C313 H305 0.930 . S
C313 C311 1.419 . S
C313 C314 1.362 . S
C314 H306 0.930 . S
C314 C313 1.362 . S
C314 C317 1.409 . S
C315 H307 0.930 . S
C315 C316 1.355 . S
C315 C317 1.415 . S
C316 C315 1.355 . S
C316 C318 1.419 . S
C317 C312 1.425 . S
C317 C314 1.409 . S
C317 C315 1.415 . S
C318 H308 0.930 . S
C318 C316 1.419 . S
C318 C319 1.362 . S
C319 H309 0.930 . S
C319 C312 1.409 . S
C319 C318 1.362 . S
H320 C326 0.930 . S
H321 C329 0.930 . S
H322 C330 0.930 . S
H323 C331 0.930 . S
H324 C334 0.930 . S
H325 C335 0.930 . S
C326 H320 0.930 . S
C326 C327 1.355 . S
C326 C328 1.415 . S
C327 C326 1.355 . S
C327 C329 1.419 . S
C328 C326 1.415 . S
C328 C333 1.425 . S
C328 C335 1.409 . S
C329 H321 0.930 . S
C329 C327 1.419 . S
C329 C330 1.362 . S
C330 H322 0.930 . S
C330 C329 1.362 . S
C330 C333 1.409 . S
C331 H323 0.930 . S
C331 C332 1.355 . S
C331 C333 1.415 . S
C332 C331 1.355 . S
C332 C334 1.419 . S
C333 C328 1.425 . S
C333 C330 1.409 . S
C333 C331 1.415 . S
C334 H324 0.930 . S
C334 C332 1.419 . S
C334 C335 1.362 . S
C335 H325 0.930 . S
C335 C328 1.409 . S
C335 C334 1.362 . S
H336 C342 0.930 . S
H337 C345 0.930 . S
H338 C346 0.930 . S
H339 C347 0.930 . S
H340 C350 0.930 . S
H341 C351 0.930 . S
C342 H336 0.930 . S
C342 C343 1.355 . S
C342 C344 1.415 . S
C343 C342 1.355 . S
C343 C345 1.419 . S
C344 C342 1.415 . S
C344 C349 1.425 . S
C344 C351 1.409 . S
C345 H337 0.930 . S
C345 C343 1.419 . S
C345 C346 1.362 . S
C346 H338 0.930 . S
C346 C345 1.362 . S
C346 C349 1.409 . S
C347 H339 0.930 . S
C347 C348 1.355 . S
C347 C349 1.415 . S
C348 C347 1.355 . S
C348 C350 1.419 . S
C349 C344 1.425 . S
C349 C346 1.409 . S
C349 C347 1.415 . S
C350 H340 0.930 . S
C350 C348 1.419 . S
C350 C351 1.362 . S
C351 H341 0.930 . S
C351 C344 1.409 . S
C351 C350 1.362 . S
H352 C358 0.930 . S
H353 C361 0.930 . S
H354 C362 0.930 . S
H355 C363 0.930 . S
H356 C366 0.930 . S
H357 C367 0.930 . S
C358 H352 0.930 . S
C358 C359 1.355 . S
C358 C360 1.415 . S
C359 C358 1.355 . S
C359 C361 1.419 . S
C360 C358 1.415 . S
C360 C365 1.425 1_556 S
C360 C367 1.409 1_556 S
C361 H353 0.930 . S
C361 C359 1.419 . S
C361 C362 1.362 . S
C362 H354 0.930 . S
C362 C361 1.362 . S
C362 C365 1.409 1_556 S
C363 H355 0.930 . S
C363 C364 1.355 . S
C363 C365 1.415 . S
C364 C363 1.355 . S
C364 C366 1.419 . S
C365 C360 1.425 1_554 S
C365 C362 1.409 1_554 S
C365 C363 1.415 . S
C366 H356 0.930 . S
C366 C364 1.419 . S
C366 C367 1.362 . S
C367 H357 0.930 . S
C367 C360 1.409 1_554 S
C367 C366 1.362 . S
H368 C374 0.930 . S
H369 C377 0.930 . S
H370 C378 0.930 . S
H371 C379 0.930 . S
H372 C382 0.930 . S
H373 C383 0.930 . S
C374 H368 0.930 . S
C374 C375 1.355 . S
C374 C376 1.415 . S
C375 C374 1.355 . S
C375 C377 1.419 . S
C376 C374 1.415 . S
C376 C381 1.425 1_556 S
C376 C383 1.409 1_556 S
C377 H369 0.930 . S
C377 C375 1.419 . S
C377 C378 1.362 . S
C378 H370 0.930 . S
C378 C377 1.362 . S
C378 C381 1.409 1_556 S
C379 H371 0.930 . S
C379 C380 1.355 . S
C379 C381 1.415 . S
C380 C379 1.355 . S
C380 C382 1.419 . S
C381 C376 1.425 1_554 S
C381 C378 1.409 1_554 S
C381 C379 1.415 . S
C382 H372 0.930 . S
C382 C380 1.419 . S
C382 C383 1.362 . S
C383 H373 0.930 . S
C383 C376 1.409 1_554 S
C383 C382 1.362 . S
H384 C390 0.930 . S
H385 C393 0.930 . S
H386 C394 0.930 . S
H387 C395 0.930 . S
H388 C398 0.930 . S
H389 C399 0.930 . S
C390 H384 0.930 . S
C390 C391 1.355 . S
C390 C392 1.415 . S
C391 C390 1.355 . S
C391 C393 1.419 . S
C392 C390 1.415 . S
C392 C397 1.425 1_556 S
C392 C399 1.409 1_556 S
C393 H385 0.930 . S
C393 C391 1.419 . S
C393 C394 1.362 . S
C394 H386 0.930 . S
C394 C393 1.362 . S
C394 C397 1.409 1_556 S
C395 H387 0.930 . S
C395 C396 1.355 . S
C395 C397 1.415 . S
C396 C395 1.355 . S
C396 C398 1.419 . S
C397 C392 1.425 1_554 S
C397 C394 1.409 1_554 S
C397 C395 1.415 . S
C398 H388 0.930 . S
C398 C396 1.419 . S
C398 C399 1.362 . S
C399 H389 0.930 . S
C399 C392 1.409 1_554 S
C399 C398 1.362 . S
H400 C406 0.930 . S
H401 C409 0.930 . S
H402 C410 0.930 . S
H403 C411 0.930 . S
H404 C414 0.930 . S
H405 C415 0.930 . S
C406 H400 0.930 . S
C406 C407 1.355 . S
C406 C408 1.415 . S
C407 C406 1.355 . S
C407 C409 1.419 . S
C408 C406 1.415 . S
C408 C413 1.425 1_554 S
C408 C415 1.409 1_554 S
C409 H401 0.930 . S
C409 C407 1.419 . S
C409 C410 1.362 . S
C410 H402 0.930 . S
C410 C409 1.362 . S
C410 C413 1.409 1_554 S
C411 H403 0.930 . S
C411 C412 1.355 . S
C411 C413 1.415 . S
C412 C411 1.355 . S
C412 C414 1.419 . S
C413 C408 1.425 1_556 S
C413 C410 1.409 1_556 S
C413 C411 1.415 . S
C414 H404 0.930 . S
C414 C412 1.419 . S
C414 C415 1.362 . S
C415 H405 0.930 . S
C415 C408 1.409 1_556 S
C415 C414 1.362 . S
H416 C422 0.930 . S
H417 C425 0.930 . S
H418 C426 0.930 . S
H419 C427 0.930 . S
H420 C430 0.930 . S
H421 C431 0.930 . S
C422 H416 0.930 . S
C422 C423 1.355 . S
C422 C424 1.415 . S
C423 C422 1.355 . S
C423 C425 1.419 . S
C424 C422 1.415 . S
C424 C429 1.425 1_455 S
C424 C431 1.409 1_455 S
C425 H417 0.930 . S
C425 C423 1.419 . S
C425 C426 1.362 . S
C426 H418 0.930 . S
C426 C425 1.362 . S
C426 C429 1.409 1_455 S
C427 H419 0.930 . S
C427 C428 1.355 . S
C427 C429 1.415 . S
C428 C427 1.355 . S
C428 C430 1.419 . S
C429 C424 1.425 1_655 S
C429 C426 1.409 1_655 S
C429 C427 1.415 . S
C430 H420 0.930 . S
C430 C428 1.419 . S
C430 C431 1.362 . S
C431 H421 0.930 . S
C431 C424 1.409 1_655 S
C431 C430 1.362 . S
H432 C438 0.930 . S
H433 C441 0.930 . S
H434 C442 0.930 . S
H435 C443 0.930 . S
H436 C446 0.930 . S
H437 C447 0.930 . S
C438 H432 0.930 . S
C438 C439 1.355 . S
C438 C440 1.415 . S
C439 C438 1.355 . S
C439 C441 1.419 . S
C440 C438 1.415 . S
C440 C445 1.425 1_565 S
C440 C447 1.409 1_565 S
C441 H433 0.930 . S
C441 C439 1.419 . S
C441 C442 1.362 . S
C442 H434 0.930 . S
C442 C441 1.362 . S
C442 C445 1.409 1_565 S
C443 H435 0.930 . S
C443 C444 1.355 . S
C443 C445 1.415 . S
C444 C443 1.355 . S
C444 C446 1.419 . S
C445 C440 1.425 1_545 S
C445 C442 1.409 1_545 S
C445 C443 1.415 . S
C446 H436 0.930 . S
C446 C444 1.419 . S
C446 C447 1.362 . S
C447 H437 0.930 . S
C447 C440 1.409 1_545 S
C447 C446 1.362 . S
H448 C454 0.930 . S
H449 C457 0.930 . S
H450 C458 0.930 . S
H451 C459 0.930 . S
H452 C462 0.930 . S
H453 C463 0.930 . S
C454 H448 0.930 . S
C454 C455 1.355 . S
C454 C456 1.415 . S
C455 C454 1.355 . S
C455 C457 1.419 . S
C456 C454 1.415 . S
C456 C461 1.425 1_655 S
C456 C463 1.409 1_655 S
C457 H449 0.930 . S
C457 C455 1.419 . S
C457 C458 1.362 . S
C458 H450 0.930 . S
C458 C457 1.362 . S
C458 C461 1.409 1_655 S
C459 H451 0.930 . S
C459 C460 1.355 . S
C459 C461 1.415 . S
C460 C459 1.355 . S
C460 C462 1.419 . S
C461 C456 1.425 1_455 S
C461 C458 1.409 1_455 S
C461 C459 1.415 . S
C462 H452 0.930 . S
C462 C460 1.419 . S
C462 C463 1.362 . S
C463 H453 0.930 . S
C463 C456 1.409 1_455 S
C463 C462 1.362 . S
H464 C470 0.930 . S
H465 C473 0.930 . S
H466 C474 0.930 . S
H467 C475 0.930 . S
H468 C478 0.930 . S
H469 C479 0.930 . S
C470 H464 0.930 . S
C470 C471 1.355 . S
C470 C472 1.415 . S
C471 C470 1.355 . S
C471 C473 1.419 . S
C472 C470 1.415 . S
C472 C477 1.425 1_545 S
C472 C479 1.409 1_545 S
C473 H465 0.930 . S
C473 C471 1.419 . S
C473 C474 1.362 . S
C474 H466 0.930 . S
C474 C473 1.362 . S
C474 C477 1.409 1_545 S
C475 H467 0.930 . S
C475 C476 1.355 . S
C475 C477 1.415 . S
C476 C475 1.355 . S
C476 C478 1.419 . S
C477 C472 1.425 1_565 S
C477 C474 1.409 1_565 S
C477 C475 1.415 . S
C478 H468 0.930 . S
C478 C476 1.419 . S
C478 C479 1.362 . S
C479 H469 0.930 . S
C479 C472 1.409 1_565 S
C479 C478 1.362 . S
H480 C486 0.930 . S
H481 C489 0.930 . S
H482 C490 0.930 . S
H483 C491 0.930 . S
H484 C494 0.930 . S
H485 C495 0.930 . S
C486 H480 0.930 . S
C486 C487 1.355 . S
C486 C488 1.415 . S
C487 C486 1.355 . S
C487 C489 1.419 . S
C488 C486 1.415 . S
C488 C493 1.425 1_655 S
C488 C495 1.409 1_655 S
C489 H481 0.930 . S
C489 C487 1.419 . S
C489 C490 1.362 . S
C490 H482 0.930 . S
C490 C489 1.362 . S
C490 C493 1.409 1_655 S
C491 H483 0.930 . S
C491 C492 1.355 . S
C491 C493 1.415 . S
C492 C491 1.355 . S
C492 C494 1.419 . S
C493 C488 1.425 1_455 S
C493 C490 1.409 1_455 S
C493 C491 1.415 . S
C494 H484 0.930 . S
C494 C492 1.419 . S
C494 C495 1.362 . S
C495 H485 0.930 . S
C495 C488 1.409 1_455 S
C495 C494 1.362 . S
H496 C502 0.930 . S
H497 C505 0.930 . S
H498 C506 0.930 . S
H499 C507 0.930 . S
H500 C510 0.930 . S
H501 C511 0.930 . S
C502 H496 0.930 . S
C502 C503 1.355 . S
C502 C504 1.415 . S
C503 C502 1.355 . S
C503 C505 1.419 . S
C504 C502 1.415 . S
C504 C509 1.425 1_565 S
C504 C511 1.409 1_565 S
C505 H497 0.930 . S
C505 C503 1.419 . S
C505 C506 1.362 . S
C506 H498 0.930 . S
C506 C505 1.362 . S
C506 C509 1.409 1_565 S
C507 H499 0.930 . S
C507 C508 1.355 . S
C507 C509 1.415 . S
C508 C507 1.355 . S
C508 C510 1.419 . S
C509 C504 1.425 1_545 S
C509 C506 1.409 1_545 S
C509 C507 1.415 . S
C510 H500 0.930 . S
C510 C508 1.419 . S
C510 C511 1.362 . S
C511 H501 0.930 . S
C511 C504 1.409 1_545 S
C511 C510 1.362 . S
H512 C518 0.930 . S
H513 C521 0.930 . S
H514 C522 0.930 . S
H515 C523 0.930 . S
H516 C526 0.930 . S
H517 C527 0.930 . S
C518 H512 0.930 . S
C518 C519 1.355 . S
C518 C520 1.415 . S
C519 C518 1.355 . S
C519 C521 1.419 . S
C520 C518 1.415 . S
C520 C525 1.425 1_455 S
C520 C527 1.409 1_455 S
C521 H513 0.930 . S
C521 C519 1.419 . S
C521 C522 1.362 . S
C522 H514 0.930 . S
C522 C521 1.362 . S
C522 C525 1.409 1_455 S
C523 H515 0.930 . S
C523 C524 1.355 . S
C523 C525 1.415 . S
C524 C523 1.355 . S
C524 C526 1.419 . S
C525 C520 1.425 1_655 S
C525 C522 1.409 1_655 S
C525 C523 1.415 . S
C526 H516 0.930 . S
C526 C524 1.419 . S
C526 C527 1.362 . S
C527 H517 0.930 . S
C527 C520 1.409 1_655 S
C527 C526 1.362 . S
H528 C534 0.930 . S
H529 C537 0.930 . S
H530 C538 0.930 . S
H531 C539 0.930 . S
H532 C542 0.930 . S
H533 C543 0.930 . S
C534 H528 0.930 . S
C534 C535 1.355 . S
C534 C536 1.415 . S
C535 C534 1.355 . S
C535 C537 1.419 . S
C536 C534 1.415 . S
C536 C541 1.425 1_565 S
C536 C543 1.409 1_565 S
C537 H529 0.930 . S
C537 C535 1.419 . S
C537 C538 1.362 . S
C538 H530 0.930 . S
C538 C537 1.362 . S
C538 C541 1.409 1_565 S
C539 H531 0.930 . S
C539 C540 1.355 . S
C539 C541 1.415 . S
C540 C539 1.355 . S
C540 C542 1.419 . S
C541 C536 1.425 1_545 S
C541 C538 1.409 1_545 S
C541 C539 1.415 . S
C542 H532 0.930 . S
C542 C540 1.419 . S
C542 C543 1.362 . S
C543 H533 0.930 . S
C543 C536 1.409 1_545 S
C543 C542 1.362 . S
H544 C550 0.930 . S
H545 C553 0.930 . S
H546 C554 0.930 . S
H547 C555 0.930 . S
H548 C558 0.930 . S
H549 C559 0.930 . S
C550 H544 0.930 . S
C550 C551 1.355 . S
C550 C552 1.415 . S
C551 C550 1.355 . S
C551 C553 1.419 . S
C552 C550 1.415 . S
C552 C557 1.425 . S
C552 C559 1.409 . S
C553 H545 0.930 . S
C553 C551 1.419 . S
C553 C554 1.362 . S
C554 H546 0.930 . S
C554 C553 1.362 . S
C554 C557 1.409 . S
C555 H547 0.930 . S
C555 C556 1.355 . S
C555 C557 1.415 . S
C556 C555 1.355 . S
C556 C558 1.419 . S
C557 C552 1.425 . S
C557 C554 1.409 . S
C557 C555 1.415 . S
C558 H548 0.930 . S
C558 C556 1.419 . S
C558 C559 1.362 . S
C559 H549 0.930 . S
C559 C552 1.409 . S
C559 C558 1.362 . S
H560 C566 0.930 . S
H561 C569 0.930 . S
H562 C570 0.930 . S
H563 C571 0.930 . S
H564 C574 0.930 . S
H565 C575 0.930 . S
C566 H560 0.930 . S
C566 C567 1.355 . S
C566 C568 1.415 . S
C567 C566 1.355 . S
C567 C569 1.419 . S
C568 C566 1.415 . S
C568 C573 1.425 . S
C568 C575 1.409 . S
C569 H561 0.930 . S
C569 C567 1.419 . S
C569 C570 1.362 . S
C570 H562 0.930 . S
C570 C569 1.362 . S
C570 C573 1.409 . S
C571 H563 0.930 . S
C571 C572 1.355 . S
C571 C573 1.415 . S
C572 C571 1.355 . S
C572 C574 1.419 . S
C573 C568 1.425 . S
C573 C570 1.409 . S
C573 C571 1.415 . S
C574 H564 0.930 . S
C574 C572 1.419 . S
C574 C575 1.362 . S
C575 H565 0.930 . S
C575 C568 1.409 . S
C575 C574 1.362 . S
H576 C582 0.930 . S
H577 C585 0.930 . S
H578 C586 0.930 . S
H579 C587 0.930 . S
H580 C590 0.930 . S
H581 C591 0.930 . S
C582 H576 0.930 . S
C582 C583 1.355 . S
C582 C584 1.415 . S
C583 C582 1.355 . S
C583 C585 1.419 . S
C584 C582 1.415 . S
C584 C589 1.425 . S
C584 C591 1.409 . S
C585 H577 0.930 . S
C585 C583 1.419 . S
C585 C586 1.362 . S
C586 H578 0.930 . S
C586 C585 1.362 . S
C586 C589 1.409 . S
C587 H579 0.930 . S
C587 C588 1.355 . S
C587 C589 1.415 . S
C588 C587 1.355 . S
C588 C590 1.419 . S
C589 C584 1.425 . S
C589 C586 1.409 . S
C589 C587 1.415 . S
C590 H580 0.930 . S
C590 C588 1.419 . S
C590 C591 1.362 . S
C591 H581 0.930 . S
C591 C584 1.409 . S
C591 C590 1.362 . S
H592 C598 0.930 . S
H593 C601 0.930 . S
H594 C602 0.930 . S
H595 C603 0.930 . S
H596 C606 0.930 . S
H597 C607 0.930 . S
C598 H592 0.930 . S
C598 C599 1.355 . S
C598 C600 1.415 . S
C599 C598 1.355 . S
C599 C601 1.419 . S
C600 C598 1.415 . S
C600 C605 1.425 . S
C600 C607 1.409 . S
C601 H593 0.930 . S
C601 C599 1.419 . S
C601 C602 1.362 . S
C602 H594 0.930 . S
C602 C601 1.362 . S
C602 C605 1.409 . S
C603 H595 0.930 . S
C603 C604 1.355 . S
C603 C605 1.415 . S
C604 C603 1.355 . S
C604 C606 1.419 . S
C605 C600 1.425 . S
C605 C602 1.409 . S
C605 C603 1.415 . S
C606 H596 0.930 . S
C606 C604 1.419 . S
C606 C607 1.362 . S
C607 H597 0.930 . S
C607 C600 1.409 . S
C607 C606 1.362 . S
H608 C614 0.930 . S
H609 C617 0.930 . S
H610 C618 0.930 . S
H611 C619 0.930 . S
H612 C622 0.930 . S
H613 C623 0.930 . S
C614 H608 0.930 . S
C614 C615 1.355 . S
C614 C616 1.415 . S
C615 C614 1.355 . S
C615 C617 1.419 . S
C616 C614 1.415 . S
C616 C621 1.425 . S
C616 C623 1.409 . S
C617 H609 0.930 . S
C617 C615 1.419 . S
C617 C618 1.362 . S
C618 H610 0.930 . S
C618 C617 1.362 . S
C618 C621 1.409 . S
C619 H611 0.930 . S
C619 C620 1.355 . S
C619 C621 1.415 . S
C620 C619 1.355 . S
C620 C622 1.419 . S
C621 C616 1.425 . S
C621 C618 1.409 . S
C621 C619 1.415 . S
C622 H612 0.930 . S
C622 C620 1.419 . S
C622 C623 1.362 . S
C623 H613 0.930 . S
C623 C616 1.409 . S
C623 C622 1.362 . S
H624 C630 0.930 . S
H625 C633 0.930 . S
H626 C634 0.930 . S
H627 C635 0.930 . S
H628 C638 0.930 . S
H629 C639 0.930 . S
C630 H624 0.930 . S
C630 C631 1.355 . S
C630 C632 1.415 . S
C631 C630 1.355 . S
C631 C633 1.419 . S
C632 C630 1.415 . S
C632 C637 1.425 . S
C632 C639 1.409 . S
C633 H625 0.930 . S
C633 C631 1.419 . S
C633 C634 1.362 . S
C634 H626 0.930 . S
C634 C633 1.362 . S
C634 C637 1.409 . S
C635 H627 0.930 . S
C635 C636 1.355 . S
C635 C637 1.415 . S
C636 C635 1.355 . S
C636 C638 1.419 . S
C637 C632 1.425 . S
C637 C634 1.409 . S
C637 C635 1.415 . S
C638 H628 0.930 . S
C638 C636 1.419 . S
C638 C639 1.362 . S
C639 H629 0.930 . S
C639 C632 1.409 . S
C639 C638 1.362 . S
H640 C646 0.930 . S
H641 C649 0.930 . S
H642 C650 0.930 . S
H643 C651 0.930 . S
H644 C654 0.930 . S
H645 C655 0.930 . S
C646 H640 0.930 . S
C646 C647 1.355 . S
C646 C648 1.415 . S
C647 C646 1.355 . S
C647 C649 1.419 . S
C648 C646 1.415 . S
C648 C653 1.425 . S
C648 C655 1.409 . S
C649 H641 0.930 . S
C649 C647 1.419 . S
C649 C650 1.362 . S
C650 H642 0.930 . S
C650 C649 1.362 . S
C650 C653 1.409 . S
C651 H643 0.930 . S
C651 C652 1.355 . S
C651 C653 1.415 . S
C652 C651 1.355 . S
C652 C654 1.419 . S
C653 C648 1.425 . S
C653 C650 1.409 . S
C653 C651 1.415 . S
C654 H644 0.930 . S
C654 C652 1.419 . S
C654 C655 1.362 . S
C655 H645 0.930 . S
C655 C648 1.409 . S
C655 C654 1.362 . S
H656 C662 0.930 . S
H657 C665 0.930 . S
H658 C666 0.930 . S
H659 C667 0.930 . S
H660 C670 0.930 . S
H661 C671 0.930 . S
C662 H656 0.930 . S
C662 C663 1.355 . S
C662 C664 1.415 . S
C663 C662 1.355 . S
C663 C665 1.419 . S
C664 C662 1.415 . S
C664 C669 1.425 . S
C664 C671 1.409 . S
C665 H657 0.930 . S
C665 C663 1.419 . S
C665 C666 1.362 . S
C666 H658 0.930 . S
C666 C665 1.362 . S
C666 C669 1.409 . S
C667 H659 0.930 . S
C667 C668 1.355 . S
C667 C669 1.415 . S
C668 C667 1.355 . S
C668 C670 1.419 . S
C669 C664 1.425 . S
C669 C666 1.409 . S
C669 C667 1.415 . S
C670 H660 0.930 . S
C670 C668 1.419 . S
C670 C671 1.362 . S
C671 H661 0.930 . S
C671 C664 1.409 . S
C671 C670 1.362 . S
H672 C678 0.930 . S
H673 C681 0.930 . S
H674 C682 0.930 . S
H675 C683 0.930 . S
H676 C686 0.930 . S
H677 C687 0.930 . S
C678 H672 0.930 . S
C678 C679 1.355 . S
C678 C680 1.415 . S
C679 C678 1.355 . S
C679 C681 1.419 . S
C680 C678 1.415 . S
C680 C685 1.425 . S
C680 C687 1.409 . S
C681 H673 0.930 . S
C681 C679 1.419 . S
C681 C682 1.362 . S
C682 H674 0.930 . S
C682 C681 1.362 . S
C682 C685 1.409 . S
C683 H675 0.930 . S
C683 C684 1.355 . S
C683 C685 1.415 . S
C684 C683 1.355 . S
C684 C686 1.419 . S
C685 C680 1.425 . S
C685 C682 1.409 . S
C685 C683 1.415 . S
C686 H676 0.930 . S
C686 C684 1.419 . S
C686 C687 1.362 . S
C687 H677 0.930 . S
C687 C680 1.409 . S
C687 C686 1.362 . S
H688 C694 0.930 . S
H689 C697 0.930 . S
H690 C698 0.930 . S
H691 C699 0.930 . S
H692 C702 0.930 . S
H693 C703 0.930 . S
C694 H688 0.930 . S
C694 C695 1.355 . S
C694 C696 1.415 . S
C695 C694 1.355 . S
C695 C697 1.419 . S
C696 C694 1.415 . S
C696 C701 1.425 . S
C696 C703 1.409 . S
C697 H689 0.930 . S
C697 C695 1.419 . S
C697 C698 1.362 . S
C698 H690 0.930 . S
C698 C697 1.362 . S
C698 C701 1.409 . S
C699 H691 0.930 . S
C699 C700 1.355 . S
C699 C701 1.415 . S
C700 C699 1.355 . S
C700 C702 1.419 . S
C701 C696 1.425 . S
C701 C698 1.409 . S
C701 C699 1.415 . S
C702 H692 0.930 . S
C702 C700 1.419 . S
C702 C703 1.362 . S
C703 H693 0.930 . S
C703 C696 1.409 . S
C703 C702 1.362 . S
H704 C710 0.930 . S
H705 C713 0.930 . S
H706 C714 0.930 . S
H707 C715 0.930 . S
H708 C718 0.930 . S
H709 C719 0.930 . S
C710 H704 0.930 . S
C710 C711 1.355 . S
C710 C712 1.415 . S
C711 C710 1.355 . S
C711 C713 1.419 . S
C712 C710 1.415 . S
C712 C717 1.425 . S
C712 C719 1.409 . S
C713 H705 0.930 . S
C713 C711 1.419 . S
C713 C714 1.362 . S
C714 H706 0.930 . S
C714 C713 1.362 . S
C714 C717 1.409 . S
C715 H707 0.930 . S
C715 C716 1.355 . S
C715 C717 1.415 . S
C716 C715 1.355 . S
C716 C718 1.419 . S
C717 C712 1.425 . S
C717 C714 1.409 . S
C717 C715 1.415 . S
C718 H708 0.930 . S
C718 C716 1.419 . S
C718 C719 1.362 . S
C719 H709 0.930 . S
C719 C712 1.409 . S
C719 C718 1.362 . S
H720 C726 0.930 . S
H721 C729 0.930 . S
H722 C730 0.930 . S
H723 C731 0.930 . S
H724 C734 0.930 . S
H725 C735 0.930 . S
C726 H720 0.930 . S
C726 C727 1.355 . S
C726 C728 1.415 . S
C727 C726 1.355 . S
C727 C729 1.419 . S
C728 C726 1.415 . S
C728 C733 1.425 . S
C728 C735 1.409 . S
C729 H721 0.930 . S
C729 C727 1.419 . S
C729 C730 1.362 . S
C730 H722 0.930 . S
C730 C729 1.362 . S
C730 C733 1.409 . S
C731 H723 0.930 . S
C731 C732 1.355 . S
C731 C733 1.415 . S
C732 C731 1.355 . S
C732 C734 1.419 . S
C733 C728 1.425 . S
C733 C730 1.409 . S
C733 C731 1.415 . S
C734 H724 0.930 . S
C734 C732 1.419 . S
C734 C735 1.362 . S
C735 H725 0.930 . S
C735 C728 1.409 . S
C735 C734 1.362 . S
C231 C218 1.328 . S
C236 C8 1.332 . S
C247 C176 1.276 . S
C252 C22 1.280 . S
C263 C36 1.316 . S
C268 C190 1.326 . S
C279 C204 1.300 . S
C284 C50 1.288 . S
C295 C134 1.276 . S
C300 C64 1.279 . S
C311 C78 1.276 . S
C316 C148 1.281 . S
C327 C92 1.279 . S
C332 C162 1.287 . S
C343 C106 1.278 . S
C348 C120 1.286 . S
C359 C73 1.663 . S
C364 C7 1.553 . S
C375 C91 1.574 . S
C380 C17 1.646 . S
C391 C101 1.646 . S
C396 C35 1.571 . S
C407 C45 1.648 . S
C412 C63 1.565 . S
C423 C9 1.248 . S
C428 C23 1.326 . S
C439 C31 1.658 . S
C444 C21 1.574 . S
C455 C37 1.316 . S
C460 C51 1.250 . S
C471 C3 1.652 . S
C476 C49 1.550 . S
C487 C107 1.296 . S
C492 C65 1.267 . S
C503 C59 1.641 . S
C508 C77 1.604 . S
C519 C79 1.317 . S
C524 C93 1.249 . S
C535 C105 1.545 . S
C540 C87 1.654 . S
C551 C185 1.643 . S
C556 C119 1.585 . S
C567 C129 1.648 . S
C572 C203 1.600 . S
C583 C213 1.663 . S
C588 C147 1.555 . S
C599 C175 1.605 . S
C604 C157 1.643 . S
C615 C121 1.265 . S
C620 C135 1.315 . S
C631 C133 1.597 . S
C636 C143 1.649 . S
C647 C163 1.314 . S
C652 C149 1.251 . S
C663 C115 1.667 . S
C668 C161 1.522 . S
C679 C219 1.327 . S
C684 C177 1.246 . S
C695 C171 1.644 . S
C700 C189 1.605 . S
C711 C191 1.246 . S
C716 C205 1.321 . S
C727 C217 1.526 . S
C732 C199 1.667 . S
