# Generated by pormake.
# Topology uow, (4)-cn, num edge types: 1
# Building blocks:
#     Node 0, Type 0, BuildingBlock: NAHDIM_clean_sbu_0, # of connection points: 4
#     Node 1, Type 0, BuildingBlock: NAHDIM_clean_sbu_0, # of connection points: 4
#     Node 2, Type 0, BuildingBlock: NAHDIM_clean_sbu_0, # of connection points: 4
#     Node 3, Type 0, BuildingBlock: NAHDIM_clean_sbu_0, # of connection points: 4
#     Node 4, Type 0, BuildingBlock: NAHDIM_clean_sbu_0, # of connection points: 4
#     Node 5, Type 0, BuildingBlock: NAHDIM_clean_sbu_0, # of connection points: 4
#     Node 6, Type 0, BuildingBlock: NAHDIM_clean_sbu_0, # of connection points: 4
#     Node 7, Type 0, BuildingBlock: NAHDIM_clean_sbu_0, # of connection points: 4
#     Node 8, Type 0, BuildingBlock: NAHDIM_clean_sbu_0, # of connection points: 4
#     Node 9, Type 0, BuildingBlock: NAHDIM_clean_sbu_0, # of connection points: 4
#     Node 10, Type 0, BuildingBlock: NAHDIM_clean_sbu_0, # of connection points: 4
#     Node 11, Type 0, BuildingBlock: NAHDIM_clean_sbu_0, # of connection points: 4
#     Node 12, Type 0, BuildingBlock: NAHDIM_clean_sbu_0, # of connection points: 4
#     Node 13, Type 0, BuildingBlock: NAHDIM_clean_sbu_0, # of connection points: 4
#     Node 14, Type 0, BuildingBlock: NAHDIM_clean_sbu_0, # of connection points: 4
#     Node 15, Type 0, BuildingBlock: NAHDIM_clean_sbu_0, # of connection points: 4
#     Node 16, Type 0, BuildingBlock: NAHDIM_clean_sbu_0, # of connection points: 4
#     Node 17, Type 0, BuildingBlock: NAHDIM_clean_sbu_0, # of connection points: 4
#     Node 18, Type 0, BuildingBlock: NAHDIM_clean_sbu_0, # of connection points: 4
#     Node 19, Type 0, BuildingBlock: NAHDIM_clean_sbu_0, # of connection points: 4
#     Node 20, Type 0, BuildingBlock: NAHDIM_clean_sbu_0, # of connection points: 4
#     Node 21, Type 0, BuildingBlock: NAHDIM_clean_sbu_0, # of connection points: 4
#     Node 22, Type 0, BuildingBlock: NAHDIM_clean_sbu_0, # of connection points: 4
#     Node 23, Type 0, BuildingBlock: NAHDIM_clean_sbu_0, # of connection points: 4
#     Node 24, Type 0, BuildingBlock: NAHDIM_clean_sbu_0, # of connection points: 4
#     Node 25, Type 0, BuildingBlock: NAHDIM_clean_sbu_0, # of connection points: 4
#     Node 26, Type 0, BuildingBlock: NAHDIM_clean_sbu_0, # of connection points: 4
#     Node 27, Type 0, BuildingBlock: NAHDIM_clean_sbu_0, # of connection points: 4
#     Node 28, Type 0, BuildingBlock: NAHDIM_clean_sbu_0, # of connection points: 4
#     Node 29, Type 0, BuildingBlock: NAHDIM_clean_sbu_0, # of connection points: 4
#     Node 30, Type 0, BuildingBlock: NAHDIM_clean_sbu_0, # of connection points: 4
#     Node 31, Type 0, BuildingBlock: NAHDIM_clean_sbu_0, # of connection points: 4
#     Edge 32, Type (0, 0), BuildingBlock: XUDNAN_clean_linker_2, # of connection points: 2
#     Edge 33, Type (0, 0), BuildingBlock: XUDNAN_clean_linker_2, # of connection points: 2
#     Edge 34, Type (0, 0), BuildingBlock: XUDNAN_clean_linker_2, # of connection points: 2
#     Edge 35, Type (0, 0), BuildingBlock: XUDNAN_clean_linker_2, # of connection points: 2
#     Edge 36, Type (0, 0), BuildingBlock: XUDNAN_clean_linker_2, # of connection points: 2
#     Edge 37, Type (0, 0), BuildingBlock: XUDNAN_clean_linker_2, # of connection points: 2
#     Edge 38, Type (0, 0), BuildingBlock: XUDNAN_clean_linker_2, # of connection points: 2
#     Edge 39, Type (0, 0), BuildingBlock: XUDNAN_clean_linker_2, # of connection points: 2
#     Edge 40, Type (0, 0), BuildingBlock: XUDNAN_clean_linker_2, # of connection points: 2
#     Edge 41, Type (0, 0), BuildingBlock: XUDNAN_clean_linker_2, # of connection points: 2
#     Edge 42, Type (0, 0), BuildingBlock: XUDNAN_clean_linker_2, # of connection points: 2
#     Edge 43, Type (0, 0), BuildingBlock: XUDNAN_clean_linker_2, # of connection points: 2
#     Edge 44, Type (0, 0), BuildingBlock: XUDNAN_clean_linker_2, # of connection points: 2
#     Edge 45, Type (0, 0), BuildingBlock: XUDNAN_clean_linker_2, # of connection points: 2
#     Edge 46, Type (0, 0), BuildingBlock: XUDNAN_clean_linker_2, # of connection points: 2
#     Edge 47, Type (0, 0), BuildingBlock: XUDNAN_clean_linker_2, # of connection points: 2
#     Edge 48, Type (0, 0), BuildingBlock: XUDNAN_clean_linker_2, # of connection points: 2
#     Edge 49, Type (0, 0), BuildingBlock: XUDNAN_clean_linker_2, # of connection points: 2
#     Edge 50, Type (0, 0), BuildingBlock: XUDNAN_clean_linker_2, # of connection points: 2
#     Edge 51, Type (0, 0), BuildingBlock: XUDNAN_clean_linker_2, # of connection points: 2
#     Edge 52, Type (0, 0), BuildingBlock: XUDNAN_clean_linker_2, # of connection points: 2
#     Edge 53, Type (0, 0), BuildingBlock: XUDNAN_clean_linker_2, # of connection points: 2
#     Edge 54, Type (0, 0), BuildingBlock: XUDNAN_clean_linker_2, # of connection points: 2
#     Edge 55, Type (0, 0), BuildingBlock: XUDNAN_clean_linker_2, # of connection points: 2
#     Edge 56, Type (0, 0), BuildingBlock: XUDNAN_clean_linker_2, # of connection points: 2
#     Edge 57, Type (0, 0), BuildingBlock: XUDNAN_clean_linker_2, # of connection points: 2
#     Edge 58, Type (0, 0), BuildingBlock: XUDNAN_clean_linker_2, # of connection points: 2
#     Edge 59, Type (0, 0), BuildingBlock: XUDNAN_clean_linker_2, # of connection points: 2
#     Edge 60, Type (0, 0), BuildingBlock: XUDNAN_clean_linker_2, # of connection points: 2
#     Edge 61, Type (0, 0), BuildingBlock: XUDNAN_clean_linker_2, # of connection points: 2
#     Edge 62, Type (0, 0), BuildingBlock: XUDNAN_clean_linker_2, # of connection points: 2
#     Edge 63, Type (0, 0), BuildingBlock: XUDNAN_clean_linker_2, # of connection points: 2
#     Edge 64, Type (0, 0), BuildingBlock: XUDNAN_clean_linker_2, # of connection points: 2
#     Edge 65, Type (0, 0), BuildingBlock: XUDNAN_clean_linker_2, # of connection points: 2
#     Edge 66, Type (0, 0), BuildingBlock: XUDNAN_clean_linker_2, # of connection points: 2
#     Edge 67, Type (0, 0), BuildingBlock: XUDNAN_clean_linker_2, # of connection points: 2
#     Edge 68, Type (0, 0), BuildingBlock: XUDNAN_clean_linker_2, # of connection points: 2
#     Edge 69, Type (0, 0), BuildingBlock: XUDNAN_clean_linker_2, # of connection points: 2
#     Edge 70, Type (0, 0), BuildingBlock: XUDNAN_clean_linker_2, # of connection points: 2
#     Edge 71, Type (0, 0), BuildingBlock: XUDNAN_clean_linker_2, # of connection points: 2
#     Edge 72, Type (0, 0), BuildingBlock: XUDNAN_clean_linker_2, # of connection points: 2
#     Edge 73, Type (0, 0), BuildingBlock: XUDNAN_clean_linker_2, # of connection points: 2
#     Edge 74, Type (0, 0), BuildingBlock: XUDNAN_clean_linker_2, # of connection points: 2
#     Edge 75, Type (0, 0), BuildingBlock: XUDNAN_clean_linker_2, # of connection points: 2
#     Edge 76, Type (0, 0), BuildingBlock: XUDNAN_clean_linker_2, # of connection points: 2
#     Edge 77, Type (0, 0), BuildingBlock: XUDNAN_clean_linker_2, # of connection points: 2
#     Edge 78, Type (0, 0), BuildingBlock: XUDNAN_clean_linker_2, # of connection points: 2
#     Edge 79, Type (0, 0), BuildingBlock: XUDNAN_clean_linker_2, # of connection points: 2
#     Edge 80, Type (0, 0), BuildingBlock: XUDNAN_clean_linker_2, # of connection points: 2
#     Edge 81, Type (0, 0), BuildingBlock: XUDNAN_clean_linker_2, # of connection points: 2
#     Edge 82, Type (0, 0), BuildingBlock: XUDNAN_clean_linker_2, # of connection points: 2
#     Edge 83, Type (0, 0), BuildingBlock: XUDNAN_clean_linker_2, # of connection points: 2
#     Edge 84, Type (0, 0), BuildingBlock: XUDNAN_clean_linker_2, # of connection points: 2
#     Edge 85, Type (0, 0), BuildingBlock: XUDNAN_clean_linker_2, # of connection points: 2
#     Edge 86, Type (0, 0), BuildingBlock: XUDNAN_clean_linker_2, # of connection points: 2
#     Edge 87, Type (0, 0), BuildingBlock: XUDNAN_clean_linker_2, # of connection points: 2
#     Edge 88, Type (0, 0), BuildingBlock: XUDNAN_clean_linker_2, # of connection points: 2
#     Edge 89, Type (0, 0), BuildingBlock: XUDNAN_clean_linker_2, # of connection points: 2
#     Edge 90, Type (0, 0), BuildingBlock: XUDNAN_clean_linker_2, # of connection points: 2
#     Edge 91, Type (0, 0), BuildingBlock: XUDNAN_clean_linker_2, # of connection points: 2
#     Edge 92, Type (0, 0), BuildingBlock: XUDNAN_clean_linker_2, # of connection points: 2
#     Edge 93, Type (0, 0), BuildingBlock: XUDNAN_clean_linker_2, # of connection points: 2
#     Edge 94, Type (0, 0), BuildingBlock: XUDNAN_clean_linker_2, # of connection points: 2
#     Edge 95, Type (0, 0), BuildingBlock: XUDNAN_clean_linker_2, # of connection points: 2
# Relax obj value: 0.216
# Max RMSD: 0.240
# Mean RMSD: 0.240
data_MOF--net-uow--node1-NAHDIM_clean_sbu_0--edge1-XUDNAN_clean_linker_2
_symmetry_space_group_name_H-M    P1
_symmetry_Int_Tables_number       1
_symmetry_cell_setting            triclinic
loop_
_symmetry_equiv_pos_as_xyz
'x, y, z'
_cell_length_a     62.101455
_cell_length_b     62.208601
_cell_length_c     39.369919
_cell_angle_alpha  89.987414
_cell_angle_beta   89.962913
_cell_angle_gamma 90.006447
loop_
_atom_site_label
_atom_site_type_symbol
_atom_site_fract_x
_atom_site_fract_y
_atom_site_fract_z
_atom_type_partial_charge
C0 C 0.07 0.428 0.27888 0.0
O1 O 0.05625 0.41862 0.2583 0.0
O2 O 0.03518 0.38626 0.3218 0.0
Zn3 Zn 0.0663 0.38732 0.30704 0.0
O4 O 0.06928 0.37423 0.26044 0.0
C5 C 0.08065 0.36585 0.36918 0.0
O6 O 0.06508 0.37632 0.38457 0.0
O7 O 0.07693 0.41761 0.30437 0.0
C8 C 0.07456 0.35465 0.2563 0.0
O9 O 0.07769 0.34238 0.28299 0.0
C10 C 0.02494 0.36883 0.3171 0.0
O11 O 0.03493 0.35254 0.30295 0.0
O12 O 0.08435 0.36947 0.33801 0.0
C13 C 0.81517 0.8378 0.59873 0.0
O14 O 0.82093 0.82596 0.62483 0.0
O15 O 0.85582 0.8028 0.59315 0.0
Zn16 Zn 0.85953 0.83465 0.58702 0.0
O17 O 0.87701 0.84074 0.54523 0.0
C18 C 0.89022 0.83561 0.63941 0.0
O19 O 0.89165 0.81549 0.62954 0.0
O20 O 0.82977 0.84614 0.58038 0.0
C21 C 0.89146 0.82822 0.53375 0.0
O22 O 0.89538 0.80988 0.54907 0.0
C23 C 0.85131 0.79022 0.56877 0.0
O24 O 0.84981 0.79767 0.53766 0.0
O25 O 0.87582 0.8475 0.62623 0.0
C26 C 0.46581 0.56353 0.7741 0.0
O27 O 0.47035 0.56603 0.80645 0.0
O28 O 0.50724 0.6123 0.77521 0.0
Zn29 Zn 0.47536 0.60949 0.76631 0.0
O30 O 0.46586 0.6274 0.72665 0.0
C31 C 0.46697 0.62982 0.83106 0.0
O32 O 0.48777 0.63357 0.83011 0.0
O33 O 0.46746 0.5794 0.75401 0.0
C34 C 0.4586 0.64641 0.72952 0.0
O35 O 0.45863 0.65576 0.75944 0.0
C36 C 0.51767 0.62865 0.76499 0.0
O37 O 0.50778 0.64311 0.74638 0.0
O38 O 0.45832 0.61911 0.80719 0.0
C39 C 0.6626 0.19136 0.03561 0.0
O40 O 0.65948 0.19803 0.0669 0.0
O41 O 0.61408 0.22637 0.04775 0.0
Zn42 Zn 0.61658 0.19606 0.03076 0.0
O43 O 0.59736 0.19412 0.99034 0.0
C44 C 0.60122 0.17999 0.0956 0.0
O45 O 0.60374 0.2 0.10547 0.0
O46 O 0.64657 0.18916 0.01597 0.0
C47 C 0.59303 0.17608 0.97698 0.0
O48 O 0.6014 0.15853 0.99003 0.0
C49 C 0.62727 0.24145 0.04129 0.0
O50 O 0.64473 0.23745 0.02358 0.0
O51 O 0.60623 0.17477 0.06543 0.0
C52 C 0.08932 0.57562 0.20198 0.0
O53 O 0.09872 0.59231 0.21606 0.0
O54 O 0.0322 0.60446 0.15376 0.0
Zn55 Zn 0.06296 0.60759 0.16854 0.0
O56 O 0.06412 0.62641 0.20997 0.0
C57 C 0.0725 0.63981 0.12172 0.0
O58 O 0.05393 0.64635 0.13396 0.0
O59 O 0.07461 0.5786 0.18007 0.0
C60 C 0.0568 0.62014 0.23842 0.0
O61 O 0.04793 0.60103 0.2407 0.0
C62 C 0.01967 0.59011 0.16557 0.0
O63 O 0.02698 0.57627 0.18798 0.0
O64 O 0.08018 0.62207 0.1321 0.0
C65 C 0.68277 0.77586 0.51091 0.0
O66 O 0.67398 0.76325 0.53381 0.0
O67 O 0.64688 0.73387 0.45455 0.0
Zn68 Zn 0.6452 0.76371 0.47412 0.0
O69 O 0.6287 0.76418 0.51799 0.0
C70 C 0.63555 0.79473 0.4199 0.0
O71 O 0.65648 0.79651 0.41595 0.0
O72 O 0.67388 0.77767 0.48201 0.0
C73 C 0.6222 0.78262 0.52729 0.0
O74 O 0.62721 0.79944 0.5087 0.0
C75 C 0.63259 0.72031 0.4633 0.0
O76 O 0.61877 0.72561 0.48715 0.0
O77 O 0.62807 0.78177 0.44187 0.0
C78 C 0.43299 0.41369 0.71818 0.0
O79 O 0.43651 0.40124 0.74451 0.0
O80 O 0.46244 0.36634 0.66354 0.0
Zn81 Zn 0.43278 0.37357 0.6803 0.0
O82 O 0.42645 0.35619 0.72215 0.0
C83 C 0.39357 0.35675 0.65242 0.0
O84 O 0.38831 0.35547 0.68468 0.0
O85 O 0.43052 0.40532 0.689 0.0
C86 C 0.43973 0.35176 0.74566 0.0
O87 O 0.45946 0.35931 0.74424 0.0
C88 C 0.47926 0.37667 0.67197 0.0
O89 O 0.4776 0.39307 0.69282 0.0
O90 O 0.41165 0.36479 0.6442 0.0
C91 C 0.81313 0.20763 0.96775 0.0
O92 O 0.82275 0.22022 0.98983 0.0
O93 O 0.85881 0.2387 0.92489 0.0
Zn94 Zn 0.85503 0.2085 0.94146 0.0
O95 O 0.86643 0.20622 0.98881 0.0
C96 C 0.8651 0.17724 0.88787 0.0
O97 O 0.84487 0.17917 0.87862 0.0
O98 O 0.82383 0.20048 0.94269 0.0
C99 C 0.86607 0.18779 0.00259 0.0
O100 O 0.85864 0.17138 0.98516 0.0
C101 C 0.87631 0.24819 0.93219 0.0
O102 O 0.89096 0.23784 0.94985 0.0
O103 O 0.87214 0.18817 0.91274 0.0
C104 C 0.9185 0.58188 0.6839 0.0
O105 O 0.93578 0.58768 0.66698 0.0
O106 O 0.94505 0.63174 0.68022 0.0
Zn107 Zn 0.91478 0.62738 0.6972 0.0
O108 O 0.91275 0.63854 0.7448 0.0
C109 C 0.89727 0.65131 0.63994 0.0
O110 O 0.91549 0.64649 0.62477 0.0
O111 O 0.90685 0.59615 0.69782 0.0
C112 C 0.92111 0.65642 0.75315 0.0
O113 O 0.93172 0.66758 0.73027 0.0
C114 C 0.96101 0.62622 0.69846 0.0
O115 O 0.95747 0.61748 0.72834 0.0
O116 O 0.8937 0.64427 0.66968 0.0
C117 C 0.15212 0.16388 0.41662 0.0
O118 O 0.14805 0.17564 0.38967 0.0
O119 O 0.10955 0.20434 0.43152 0.0
Zn120 Zn 0.10751 0.17224 0.43232 0.0
O121 O 0.09108 0.16597 0.47478 0.0
C122 C 0.07943 0.14469 0.39591 0.0
O123 O 0.07898 0.13519 0.42571 0.0
O124 O 0.13694 0.15956 0.4371 0.0
C125 C 0.10017 0.17108 0.50249 0.0
O126 O 0.11972 0.17914 0.50172 0.0
C127 C 0.11269 0.21618 0.40578 0.0
O128 O 0.11519 0.20732 0.37575 0.0
O129 O 0.09144 0.16101 0.39177 0.0
C130 C 0.55025 0.43638 0.16597 0.0
O131 O 0.54452 0.42397 0.14053 0.0
O132 O 0.52336 0.38783 0.18896 0.0
Zn133 Zn 0.55459 0.39568 0.19546 0.0
O134 O 0.56572 0.38394 0.23993 0.0
C135 C 0.56375 0.37204 0.13392 0.0
O136 O 0.54267 0.37147 0.13159 0.0
O137 O 0.55631 0.42773 0.19359 0.0
C138 C 0.57358 0.36504 0.23955 0.0
O139 O 0.57388 0.3543 0.21085 0.0
C140 C 0.51517 0.36981 0.19692 0.0
O141 O 0.52717 0.3553 0.21201 0.0
O142 O 0.57244 0.3827 0.15777 0.0
C143 C 0.33949 0.77032 0.03051 0.0
O144 O 0.35435 0.76002 0.04781 0.0
O145 O 0.38147 0.74567 0.97143 0.0
Zn146 Zn 0.3751 0.77591 0.98689 0.0
O147 O 0.39327 0.78338 0.02734 0.0
C148 C 0.39057 0.79189 0.92209 0.0
O149 O 0.3939 0.77142 0.91594 0.0
O150 O 0.34438 0.77841 0.00187 0.0
C151 C 0.41083 0.79379 0.02542 0.0
O152 O 0.41827 0.79952 0.99551 0.0
C153 C 0.40052 0.73831 0.97361 0.0
O154 O 0.41563 0.7504 0.98698 0.0
O155 O 0.38176 0.79741 0.9499 0.0
C156 C 0.92699 0.43205 0.75543 0.0
O157 O 0.91239 0.41761 0.76332 0.0
O158 O 0.98553 0.39803 0.79154 0.0
Zn159 Zn 0.95595 0.39772 0.77134 0.0
O160 O 0.95482 0.37885 0.7302 0.0
C161 C 0.94174 0.37388 0.82981 0.0
O162 O 0.96254 0.37244 0.83534 0.0
O163 O 0.94682 0.42724 0.75772 0.0
C164 C 0.97042 0.36964 0.71524 0.0
O165 O 0.99016 0.37245 0.72635 0.0
C166 C 0.00203 0.40804 0.78087 0.0
O167 O 0.00063 0.42003 0.75349 0.0
O168 O 0.93507 0.38484 0.8047 0.0
C169 C 0.29977 0.18546 0.48729 0.0
O170 O 0.30988 0.19771 0.46526 0.0
O171 O 0.33492 0.22566 0.54026 0.0
Zn172 Zn 0.33726 0.19494 0.52518 0.0
O173 O 0.35477 0.19358 0.48243 0.0
C174 C 0.37255 0.18365 0.56515 0.0
O175 O 0.3803 0.19978 0.54739 0.0
O176 O 0.30831 0.18204 0.5161 0.0
C177 C 0.36178 0.17552 0.47232 0.0
O178 O 0.35744 0.15822 0.49024 0.0
C179 C 0.33622 0.24112 0.51924 0.0
O180 O 0.33786 0.23687 0.48666 0.0
O181 O 0.35305 0.17818 0.56081 0.0
C182 C 0.52771 0.59066 0.20118 0.0
O183 O 0.52068 0.6057 0.18059 0.0
O184 O 0.5048 0.6334 0.27179 0.0
Zn185 Zn 0.53234 0.62629 0.24743 0.0
O186 O 0.53676 0.64607 0.20786 0.0
C187 C 0.55555 0.62897 0.31099 0.0
O188 O 0.53713 0.62266 0.32406 0.0
O189 O 0.53308 0.59564 0.23131 0.0
C190 C 0.52217 0.65466 0.18975 0.0
O191 O 0.50182 0.65095 0.19673 0.0
C192 C 0.48779 0.62206 0.27079 0.0
O193 O 0.48744 0.60454 0.25219 0.0
O194 O 0.55719 0.63115 0.27902 0.0
C195 C 0.18819 0.80066 0.08166 0.0
O196 O 0.17529 0.7923 0.10459 0.0
O197 O 0.13725 0.78086 0.04589 0.0
Zn198 Zn 0.14833 0.81114 0.04895 0.0
O199 O 0.14171 0.82706 0.00598 0.0
C200 C 0.11229 0.8259 0.08314 0.0
O201 O 0.10423 0.81827 0.05472 0.0
O202 O 0.18014 0.81038 0.05632 0.0
C203 C 0.14323 0.81811 0.9771 0.0
O204 O 0.14965 0.79803 0.97523 0.0
C205 C 0.14844 0.76474 0.03685 0.0
O206 O 0.16857 0.76755 0.02757 0.0
O207 O 0.13255 0.82522 0.08747 0.0
C208 C 0.54126 0.91904 0.76891 0.0
O209 O 0.5443 0.91523 0.80138 0.0
O210 O 0.50731 0.86445 0.78303 0.0
Zn211 Zn 0.53621 0.87282 0.76418 0.0
O212 O 0.54256 0.85453 0.72383 0.0
C213 C 0.5563 0.86256 0.82907 0.0
O214 O 0.53667 0.86429 0.8412 0.0
O215 O 0.53726 0.9035 0.74901 0.0
C216 C 0.54445 0.83428 0.72682 0.0
O217 O 0.54097 0.8253 0.75653 0.0
C218 C 0.49307 0.87746 0.79372 0.0
O219 O 0.49674 0.89823 0.79241 0.0
O220 O 0.55967 0.86642 0.79783 0.0
C221 C 0.326 0.28882 -6e-05 0.0
O222 O 0.33441 0.27385 0.98048 0.0
O223 O 0.36936 0.25704 0.03994 0.0
Zn224 Zn 0.36829 0.28782 0.02474 0.0
O225 O 0.3798 0.28997 0.97729 0.0
C226 C 0.39575 0.30004 0.08137 0.0
O227 O 0.3955 0.27938 0.08818 0.0
O228 O 0.33763 0.29746 0.02268 0.0
C229 C 0.3976 0.29852 0.96894 0.0
O230 O 0.41028 0.30633 0.99261 0.0
C231 C 0.38549 0.24542 0.03244 0.0
O232 O 0.40133 0.25381 0.01472 0.0
O233 O 0.38516 0.3071 0.05611 0.0
C234 C 0.90727 0.0604 0.29227 0.0
O235 O 0.92018 0.06766 0.31608 0.0
O236 O 0.9353 0.10834 0.2895 0.0
Zn237 Zn 0.90383 0.10502 0.27896 0.0
O238 O 0.89768 0.12007 0.23531 0.0
C239 C 0.89462 0.12322 0.34447 0.0
O240 O 0.91371 0.11537 0.35176 0.0
O241 O 0.89719 0.07374 0.27378 0.0
C242 C 0.90087 0.1402 0.23333 0.0
O243 O 0.90794 0.15059 0.26016 0.0
C244 C 0.94987 0.11142 0.26735 0.0
O245 O 0.94463 0.11252 0.23508 0.0
O246 O 0.88651 0.11949 0.31545 0.0
C247 C 0.15361 0.68818 0.54417 0.0
O248 O 0.14824 0.70276 0.56677 0.0
O249 O 0.10981 0.72383 0.53713 0.0
Zn250 Zn 0.10926 0.69287 0.52322 0.0
O251 O 0.09847 0.69076 0.47531 0.0
C252 C 0.09422 0.66819 0.5822 0.0
O253 O 0.11442 0.6684 0.59205 0.0
O254 O 0.13931 0.68093 0.52414 0.0
C255 C 0.08801 0.67431 0.46569 0.0
O256 O 0.08391 0.65897 0.48771 0.0
C257 C 0.12156 0.73777 0.52252 0.0
O258 O 0.13383 0.73193 0.49694 0.0
O259 O 0.08905 0.67714 0.55436 0.0
C260 C 0.54139 0.07396 0.7236 0.0
O261 O 0.538 0.08402 0.75243 0.0
O262 O 0.50898 0.12437 0.67817 0.0
Zn263 Zn 0.53767 0.11678 0.69772 0.0
O264 O 0.53891 0.12726 0.74558 0.0
C265 C 0.56528 0.13022 0.64129 0.0
O266 O 0.55568 0.11496 0.62389 0.0
O267 O 0.54223 0.08474 0.69619 0.0
C268 C 0.53281 0.14603 0.75373 0.0
O269 O 0.52494 0.15882 0.73026 0.0
C270 C 0.49155 0.11603 0.68874 0.0
O271 O 0.49223 0.10146 0.71287 0.0
O272 O 0.56042 0.13295 0.67232 0.0
C273 C 0.17376 0.30717 0.94337 0.0
O274 O 0.16802 0.2935 0.9196 0.0
O275 O 0.12174 0.28221 0.93493 0.0
Zn276 Zn 0.12782 0.31069 0.9565 0.0
O277 O 0.11559 0.30996 0.0034 0.0
C278 C 0.12121 0.34593 0.90788 0.0
O279 O 0.142 0.3448 0.90197 0.0
O280 O 0.15937 0.31653 0.96084 0.0
C281 C 0.11018 0.32721 0.01834 0.0
O282 O 0.11236 0.34563 0.00237 0.0
C283 C 0.12836 0.26439 0.94674 0.0
O284 O 0.14091 0.26425 0.97359 0.0
O285 O 0.11271 0.33342 0.92959 0.0
C286 C 0.94232 0.9096 0.24887 0.0
O287 O 0.95711 0.90355 0.27073 0.0
O288 O 0.97418 0.86163 0.21504 0.0
Zn289 Zn 0.9446 0.86541 0.23477 0.0
O290 O 0.9445 0.86055 0.28506 0.0
C291 C 0.9298 0.82688 0.20265 0.0
O292 O 0.94957 0.82065 0.20932 0.0
O293 O 0.93463 0.89579 0.22844 0.0
C294 C 0.9433 0.84318 0.30186 0.0
O295 O 0.94246 0.8247 0.2858 0.0
C296 C 0.99149 0.86368 0.23193 0.0
O297 O 0.99049 0.86864 0.26432 0.0
O298 O 0.92383 0.84556 0.21159 0.0
C299 C 0.30839 0.69482 0.50473 0.0
O300 O 0.31791 0.70689 0.52761 0.0
O301 O 0.3517 0.72863 0.45492 0.0
Zn302 Zn 0.34951 0.69834 0.47202 0.0
O303 O 0.36547 0.69674 0.51627 0.0
C304 C 0.38308 0.68502 0.4288 0.0
O305 O 0.39169 0.7022 0.44267 0.0
O306 O 0.31878 0.6892 0.47838 0.0
C307 C 0.376 0.6801 0.5248 0.0
O308 O 0.37594 0.66326 0.50467 0.0
C309 C 0.35161 0.74485 0.47452 0.0
O310 O 0.34809 0.74207 0.50713 0.0
O311 O 0.36419 0.67948 0.43761 0.0
C312 C 0.44438 0.05543 0.24416 0.0
O313 O 0.46013 0.06469 0.26097 0.0
O314 O 0.47384 0.09934 0.20675 0.0
Zn315 Zn 0.44209 0.09715 0.21701 0.0
O316 O 0.43444 0.11276 0.25992 0.0
C317 C 0.43386 0.11871 0.15313 0.0
O318 O 0.45477 0.11678 0.14919 0.0
O319 O 0.43385 0.06636 0.2226 0.0
C320 C 0.43089 0.13288 0.25949 0.0
O321 O 0.43323 0.14354 0.23091 0.0
C322 C 0.4862 0.11315 0.22035 0.0
O323 O 0.47853 0.1261 0.24373 0.0
O324 O 0.42496 0.11068 0.17928 0.0
C325 C 0.67229 0.70534 0.01724 0.0
O326 O 0.65637 0.71308 0.0355 0.0
O327 O 0.64213 0.74249 0.94659 0.0
Zn328 Zn 0.6419 0.71188 0.96351 0.0
O329 O 0.61841 0.70797 -0.00206 0.0
C330 C 0.62712 0.69825 0.89741 0.0
O331 O 0.62484 0.71903 0.89271 0.0
O332 O 0.67007 0.70379 0.98522 0.0
C333 C 0.59843 0.70895 0.99115 0.0
O334 O 0.59224 0.71314 0.95994 0.0
C335 C 0.63199 0.75736 0.96191 0.0
O336 O 0.62251 0.75316 0.99099 0.0
O337 O 0.63505 0.69153 0.9252 0.0
C338 C 0.09415 0.9354 0.70583 0.0
O339 O 0.10208 0.92721 0.73391 0.0
O340 O 0.04423 0.89108 0.70004 0.0
Zn341 Zn 0.07642 0.89299 0.69835 0.0
O342 O 0.08774 0.88636 0.74478 0.0
C343 C 0.10164 0.87456 0.64214 0.0
O344 O 0.11076 0.89353 0.63939 0.0
O345 O 0.08379 0.92333 0.68558 0.0
C346 C 0.09584 0.86844 0.75339 0.0
O347 O 0.09708 0.85284 0.73098 0.0
C348 C 0.03489 0.87323 0.70533 0.0
O349 O 0.04662 0.85588 0.70976 0.0
O350 O 0.08731 0.87148 0.66465 0.0
C351 C 0.83595 0.32481 0.51473 0.0
O352 O 0.852 0.33104 0.53409 0.0
O353 O 0.86525 0.2721 0.45846 0.0
Zn354 Zn 0.86899 0.30226 0.47621 0.0
O355 O 0.88813 0.30318 0.5172 0.0
C356 C 0.89314 0.31372 0.41639 0.0
O357 O 0.89319 0.29281 0.41178 0.0
O358 O 0.83975 0.31322 0.48882 0.0
C359 C 0.90852 0.30236 0.51447 0.0
O360 O 0.91719 0.29916 0.48445 0.0
C361 C 0.87541 0.25575 0.46934 0.0
O362 O 0.88961 0.25804 0.49377 0.0
O363 O 0.88274 0.3215 0.4413 0.0
C364 C 0.44126 0.90146 0.29418 0.0
O365 O 0.42805 0.8862 0.28427 0.0
O366 O 0.49503 0.86008 0.33075 0.0
Zn367 Zn 0.46573 0.86498 0.31129 0.0
O368 O 0.46533 0.85293 0.26397 0.0
C369 C 0.43479 0.85839 0.36597 0.0
O370 O 0.44034 0.87785 0.37548 0.0
O371 O 0.45902 0.89628 0.30794 0.0
C372 C 0.45086 0.83996 0.25404 0.0
O373 O 0.43582 0.83382 0.27542 0.0
C374 C 0.51186 0.86634 0.31527 0.0
O375 O 0.50989 0.87715 0.28677 0.0
O376 O 0.44363 0.85006 0.34002 0.0
C377 C 0.81929 0.66689 0.07967 0.0
O378 O 0.82989 0.67177 0.10749 0.0
O379 O 0.86832 0.69681 0.07433 0.0
Zn380 Zn 0.86132 0.66974 0.04905 0.0
O381 O 0.86961 0.67315 0.00013 0.0
C382 C 0.87676 0.63192 0.08972 0.0
O383 O 0.85758 0.62969 0.10333 0.0
O384 O 0.82968 0.66395 0.05225 0.0
C385 C 0.88474 0.68566 0.99102 0.0
O386 O 0.89464 0.69735 0.014 0.0
C387 C 0.85673 0.71362 0.07341 0.0
O388 O 0.83901 0.71366 0.05519 0.0
O389 O 0.88009 0.64659 0.06791 0.0
C390 C 0.04654 0.08135 0.74198 0.0
O391 O 0.03558 0.09388 0.72148 0.0
O392 O 0.00688 0.11409 0.80499 0.0
Zn393 Zn 0.0371 0.11564 0.78726 0.0
O394 O 0.03716 0.13433 0.74586 0.0
C395 C 0.05172 0.1494 0.82727 0.0
O396 O 0.03532 0.15807 0.81122 0.0
O397 O 0.04881 0.0868 0.77294 0.0
C398 C 0.05516 0.14076 0.73444 0.0
O399 O 0.07275 0.13644 0.75166 0.0
C400 C 0.99093 0.11013 0.78578 0.0
O401 O 0.99437 0.10528 0.75377 0.0
O402 O 0.05601 0.12972 0.82208 0.0
C403 C 0.68053 0.31914 0.5521 0.0
O404 O 0.66793 0.32606 0.57658 0.0
O405 O 0.6377 0.26813 0.53365 0.0
Zn406 Zn 0.6417 0.29954 0.52383 0.0
O407 O 0.63261 0.30452 0.47571 0.0
C408 C 0.60286 0.31255 0.55448 0.0
O409 O 0.59589 0.29717 0.53444 0.0
O410 O 0.67268 0.30778 0.52833 0.0
C411 C 0.62591 0.32262 0.46515 0.0
O412 O 0.62495 0.33891 0.48634 0.0
C413 C 0.63582 0.26115 0.56381 0.0
O414 O 0.63741 0.27471 0.58927 0.0
O415 O 0.62284 0.31689 0.55482 0.0
H416 H 0.07633 0.37707 0.19655 0.0
H417 H 0.08044 0.31259 0.23838 0.0
H418 H 0.08755 0.29821 0.18102 0.0
H419 H 0.05107 0.36243 0.11581 0.0
H420 H 0.06636 0.38198 0.09211 0.0
H421 H 0.05977 0.38694 0.136 0.0
H422 H 0.10024 0.39238 0.14962 0.0
H423 H 0.10696 0.3874 0.10586 0.0
H424 H 0.1192 0.3715 0.1389 0.0
H425 H 0.09605 0.29113 0.11989 0.0
H426 H 0.10638 0.2919 0.05939 0.0
H427 H 0.09736 0.36113 0.05786 0.0
C428 C 0.07841 0.35988 0.1936 0.0
C429 C 0.07773 0.34592 0.22185 0.0
C430 C 0.08086 0.32357 0.21703 0.0
C431 C 0.08484 0.31525 0.18457 0.0
C432 C 0.08564 0.32949 0.1573 0.0
C433 C 0.08253 0.35133 0.16146 0.0
C434 C 0.08548 0.36332 0.12835 0.0
C435 C 0.06441 0.37431 0.11743 0.0
C436 C 0.10408 0.3796 0.13085 0.0
C437 C 0.09109 0.34485 0.105 0.0
C438 C 0.09087 0.32545 0.12212 0.0
C439 C 0.09615 0.3062 0.10614 0.0
C440 C 0.10201 0.30681 0.07178 0.0
C441 C 0.10268 0.32658 0.05391 0.0
C442 C 0.09693 0.34577 0.07077 0.0
H443 H 0.9357 0.81 0.3467 0.0
H444 H 0.94418 0.87925 0.34116 0.0
H445 H 0.93523 0.88231 0.40175 0.0
H446 H 0.89091 0.81035 0.39888 0.0
H447 H 0.89818 0.78717 0.42386 0.0
H448 H 0.90797 0.78978 0.38105 0.0
H449 H 0.94725 0.78607 0.40237 0.0
H450 H 0.93757 0.78329 0.44533 0.0
H451 H 0.95698 0.80384 0.43511 0.0
H452 H 0.92026 0.87882 0.45964 0.0
H453 H 0.90275 0.86839 0.51352 0.0
H454 H 0.9057 0.80135 0.48363 0.0
C455 C 0.93617 0.82573 0.35843 0.0
C456 C 0.94059 0.84436 0.33912 0.0
C457 C 0.94082 0.86471 0.35535 0.0
C458 C 0.93581 0.86664 0.38983 0.0
C459 C 0.93091 0.84807 0.40791 0.0
C460 C 0.93135 0.82795 0.39302 0.0
C461 C 0.92413 0.81077 0.41784 0.0
C462 C 0.90411 0.79883 0.40461 0.0
C463 C 0.94259 0.79506 0.42563 0.0
C464 C 0.91881 0.82451 0.44849 0.0
C465 C 0.92292 0.84598 0.44217 0.0
C466 C 0.91744 0.86203 0.46527 0.0
C467 C 0.9074 0.85599 0.49564 0.0
C468 C 0.9032 0.8341 0.5027 0.0
C469 C 0.90925 0.81816 0.47907 0.0
H470 H 0.45083 0.62882 0.66712 0.0
H471 H 0.44201 0.68723 0.72587 0.0
H472 H 0.42128 0.70307 0.67847 0.0
H473 H 0.45553 0.6544 0.58354 0.0
H474 H 0.44086 0.63315 0.56276 0.0
H475 H 0.45666 0.62739 0.60002 0.0
H476 H 0.42297 0.61109 0.62919 0.0
H477 H 0.40702 0.61696 0.5922 0.0
H478 H 0.39891 0.62711 0.63314 0.0
H479 H 0.39943 0.71144 0.62615 0.0
H480 H 0.37869 0.712 0.57266 0.0
H481 H 0.40157 0.64773 0.54912 0.0
C482 C 0.4449 0.6451 0.66987 0.0
C483 C 0.4481 0.65683 0.70016 0.0
C484 C 0.43981 0.67797 0.70284 0.0
C485 C 0.42803 0.6871 0.67607 0.0
C486 C 0.42475 0.67487 0.64686 0.0
C487 C 0.43306 0.65437 0.64356 0.0
C488 C 0.42632 0.64412 0.61039 0.0
C489 C 0.44602 0.6395 0.58784 0.0
C490 C 0.41301 0.62361 0.61662 0.0
C491 C 0.41262 0.66191 0.59573 0.0
C492 C 0.41202 0.67958 0.61699 0.0
C493 C 0.39992 0.69777 0.60918 0.0
C494 C 0.38815 0.69789 0.57879 0.0
C495 C 0.3885 0.6799 0.55671 0.0
C496 C 0.40097 0.66175 0.5654 0.0
H497 H 0.54956 0.12349 0.80704 0.0
H498 H 0.52495 0.18638 0.77902 0.0
H499 H 0.53473 0.20019 0.8358 0.0
H500 H 0.53345 0.12534 0.89747 0.0
H501 H 0.55756 0.11162 0.91083 0.0
H502 H 0.54617 0.10615 0.86964 0.0
H503 H 0.58267 0.11564 0.8414 0.0
H504 H 0.59413 0.12127 0.88238 0.0
H505 H 0.59476 0.14148 0.84958 0.0
H506 H 0.55068 0.20797 0.89302 0.0
H507 H 0.57103 0.20908 0.94679 0.0
H508 H 0.58506 0.14098 0.93702 0.0
C509 C 0.54582 0.14008 0.81299 0.0
C510 C 0.53647 0.15387 0.78863 0.0
C511 C 0.53204 0.17551 0.79735 0.0
C512 C 0.5375 0.18348 0.82954 0.0
C513 C 0.54718 0.16954 0.85267 0.0
C514 C 0.55114 0.14825 0.84488 0.0
C515 C 0.56306 0.13698 0.87324 0.0
C516 C 0.54923 0.11896 0.88871 0.0
C517 C 0.58495 0.12835 0.8609 0.0
C518 C 0.56581 0.15543 0.89781 0.0
C519 C 0.55635 0.17402 0.88567 0.0
C520 C 0.55789 0.19345 0.90303 0.0
C521 C 0.56955 0.19392 0.93347 0.0
C522 C 0.57958 0.17509 0.94612 0.0
C523 C 0.57739 0.15558 0.9282 0.0
H524 H 0.04763 0.60931 0.30426 0.0
H525 H 0.07339 0.66088 0.24198 0.0
H526 H 0.08123 0.6819 0.29368 0.0
H527 H 0.0238 0.64388 0.37083 0.0
H528 H 0.03093 0.62535 0.40418 0.0
H529 H 0.02512 0.61545 0.36215 0.0
H530 H 0.06226 0.59645 0.36052 0.0
H531 H 0.0682 0.60633 0.40241 0.0
H532 H 0.08635 0.61196 0.36778 0.0
H533 H 0.08904 0.69593 0.35209 0.0
H534 H 0.09664 0.70175 0.41293 0.0
H535 H 0.066 0.64083 0.43684 0.0
C536 C 0.05455 0.62519 0.30141 0.0
C537 C 0.05984 0.63348 0.26908 0.0
C538 C 0.06915 0.65422 0.2665 0.0
C539 C 0.0736 0.66631 0.29571 0.0
C540 C 0.06854 0.65748 0.32723 0.0
C541 C 0.05913 0.63744 0.33026 0.0
C542 C 0.05661 0.63101 0.36712 0.0
C543 C 0.03269 0.6288 0.37662 0.0
C544 C 0.06911 0.61021 0.3749 0.0
C545 C 0.0667 0.65026 0.38433 0.0
C546 C 0.0732 0.6655 0.36092 0.0
C547 C 0.0838 0.68424 0.3707 0.0
C548 C 0.08807 0.68737 0.40531 0.0
C549 C 0.0819 0.67175 0.42965 0.0
C550 C 0.07083 0.65313 0.41891 0.0
H551 H 0.60318 0.8194 0.54985 0.0
H552 H 0.61147 0.75189 0.57453 0.0
H553 H 0.58995 0.75703 0.62684 0.0
H554 H 0.60851 0.83933 0.63288 0.0
H555 H 0.58858 0.86014 0.62775 0.0
H556 H 0.60341 0.85063 0.59149 0.0
H557 H 0.56758 0.84176 0.56073 0.0
H558 H 0.55261 0.85119 0.597 0.0
H559 H 0.54822 0.82439 0.58105 0.0
H560 H 0.56931 0.77035 0.67825 0.0
H561 H 0.55174 0.79074 0.72453 0.0
H562 H 0.55684 0.84912 0.66458 0.0
C563 C 0.60039 0.80563 0.56608 0.0
C564 C 0.60902 0.78526 0.55819 0.0
C565 C 0.60498 0.76765 0.58013 0.0
C566 C 0.59274 0.7704 0.60981 0.0
C567 C 0.58456 0.79078 0.6169 0.0
C568 C 0.58819 0.80805 0.59556 0.0
C569 C 0.57837 0.82847 0.60937 0.0
C570 C 0.59576 0.84564 0.61576 0.0
C571 C 0.56064 0.83694 0.58562 0.0
C572 C 0.56902 0.82013 0.64225 0.0
C573 C 0.57259 0.79834 0.64612 0.0
C574 C 0.56624 0.78737 0.67534 0.0
C575 C 0.55628 0.79909 0.70147 0.0
C576 C 0.55287 0.82151 0.69813 0.0
C577 C 0.55904 0.83198 0.66785 0.0
H578 H 0.432 0.32003 0.94098 0.0
H579 H 0.37499 0.28314 0.91469 0.0
H580 H 0.38169 0.29018 0.85408 0.0
H581 H 0.42462 0.36072 0.88153 0.0
H582 H 0.4527 0.36407 0.87117 0.0
H583 H 0.44505 0.35413 0.91235 0.0
H584 H 0.4687 0.3203 0.90325 0.0
H585 H 0.47653 0.3302 0.86202 0.0
H586 H 0.46463 0.30389 0.86606 0.0
H587 H 0.39181 0.30448 0.79753 0.0
H588 H 0.40578 0.32413 0.74777 0.0
H589 H 0.45686 0.35103 0.80984 0.0
C590 C 0.42118 0.31306 0.92244 0.0
C591 C 0.40298 0.30103 0.93259 0.0
C592 C 0.38905 0.29241 0.90756 0.0
C593 C 0.39274 0.29626 0.87303 0.0
C594 C 0.41052 0.30859 0.86391 0.0
C595 C 0.42465 0.31671 0.88779 0.0
C596 C 0.44177 0.33057 0.87124 0.0
C597 C 0.44097 0.35374 0.88489 0.0
C598 C 0.46424 0.32064 0.87592 0.0
C599 C 0.43463 0.32948 0.8345 0.0
C600 C 0.41664 0.31659 0.83088 0.0
C601 C 0.40611 0.31431 0.79988 0.0
C602 C 0.4141 0.32561 0.77184 0.0
C603 C 0.43247 0.33894 0.77498 0.0
C604 C 0.44302 0.34063 0.80662 0.0
H605 H 0.8666 0.15057 0.03947 0.0
H606 H 0.88144 0.21867 0.04593 0.0
H607 H 0.89233 0.21395 0.1058 0.0
H608 H 0.84429 0.14532 0.12239 0.0
H609 H 0.85537 0.11893 0.12954 0.0
H610 H 0.8493 0.12762 0.087 0.0
H611 H 0.88865 0.1198 0.06873 0.0
H612 H 0.89483 0.11102 0.11121 0.0
H613 H 0.91052 0.13206 0.09174 0.0
H614 H 0.90093 0.2018 0.16536 0.0
H615 H 0.90698 0.18302 0.21985 0.0
H616 H 0.88641 0.12305 0.17365 0.0
C617 C 0.87222 0.1645 0.05337 0.0
C618 C 0.87318 0.18498 0.03805 0.0
C619 C 0.88059 0.20281 0.05717 0.0
C620 C 0.88681 0.2003 0.09117 0.0
C621 C 0.88553 0.17988 0.10555 0.0
C622 C 0.87848 0.16229 0.08723 0.0
C623 C 0.87839 0.14212 0.10864 0.0
C624 C 0.85547 0.13297 0.11209 0.0
C625 C 0.89403 0.12526 0.09422 0.0
C626 C 0.8864 0.15113 0.14196 0.0
C627 C 0.89046 0.17291 0.13971 0.0
C628 C 0.89785 0.18473 0.16742 0.0
C629 C 0.90121 0.17393 0.19824 0.0
C630 C 0.89716 0.15159 0.20099 0.0
C631 C 0.88966 0.14014 0.17239 0.0
H632 H 0.89514 0.64023 0.80303 0.0
H633 H 0.94087 0.69135 0.78209 0.0
H634 H 0.93603 0.70508 0.84056 0.0
H635 H 0.85895 0.67182 0.85391 0.0
H636 H 0.85299 0.65009 0.88273 0.0
H637 H 0.86016 0.64437 0.83933 0.0
H638 H 0.89117 0.6197 0.85993 0.0
H639 H 0.88406 0.62529 0.90338 0.0
H640 H 0.9111 0.63027 0.88871 0.0
H641 H 0.92672 0.71257 0.90202 0.0
H642 H 0.91332 0.71348 0.96117 0.0
H643 H 0.87306 0.65796 0.9404 0.0
C644 C 0.90418 0.6543 0.81068 0.0
C645 C 0.91842 0.6647 0.78805 0.0
C646 C 0.92985 0.68314 0.79903 0.0
C647 C 0.92722 0.69105 0.83216 0.0
C648 C 0.91299 0.68041 0.8538 0.0
C649 C 0.90163 0.66248 0.84344 0.0
C650 C 0.88732 0.65396 0.87145 0.0
C651 C 0.86344 0.65514 0.86124 0.0
C652 C 0.89381 0.63095 0.88146 0.0
C653 C 0.89249 0.66982 0.89934 0.0
C654 C 0.90735 0.68495 0.88876 0.0
C655 C 0.91498 0.70088 0.91052 0.0
C656 C 0.90729 0.70127 0.94405 0.0
C657 C 0.89207 0.68587 0.95533 0.0
C658 C 0.88453 0.67009 0.93249 0.0
H659 H 0.1176 0.17206 0.5661 0.0
H660 H 0.05713 0.16398 0.51234 0.0
H661 H 0.03822 0.1594 0.5671 0.0
H662 H 0.10805 0.13191 0.62692 0.0
H663 H 0.1211 0.14598 0.66123 0.0
H664 H 0.12935 0.15081 0.6181 0.0
H665 H 0.12226 0.19158 0.62614 0.0
H666 H 0.11382 0.18683 0.66931 0.0
H667 H 0.09612 0.20054 0.64021 0.0
H668 H 0.0263 0.15391 0.62723 0.0
H669 H 0.02265 0.14476 0.68792 0.0
H670 H 0.09115 0.1556 0.70202 0.0
C671 C 0.10033 0.16962 0.56586 0.0
C672 C 0.08878 0.1685 0.53507 0.0
C673 C 0.06627 0.16489 0.53572 0.0
C674 C 0.05537 0.16243 0.56666 0.0
C675 C 0.06726 0.16358 0.5966 0.0
C676 C 0.08926 0.16693 0.59643 0.0
C677 C 0.09856 0.16575 0.63188 0.0
C678 C 0.11524 0.14753 0.63468 0.0
C679 C 0.10826 0.18747 0.6425 0.0
C680 C 0.07841 0.16075 0.65195 0.0
C681 C 0.06047 0.15994 0.63122 0.0
C682 C 0.04018 0.15467 0.64378 0.0
C683 C 0.03828 0.14954 0.6783 0.0
C684 C 0.05663 0.14947 0.69968 0.0
C685 C 0.07681 0.15564 0.68638 0.0
H686 H 0.60866 0.35842 0.43457 0.0
H687 H 0.62779 0.2924 0.41489 0.0
H688 H 0.6164 0.29626 0.35527 0.0
H689 H 0.56144 0.35801 0.38167 0.0
H690 H 0.56507 0.38522 0.36698 0.0
H691 H 0.57487 0.37743 0.40824 0.0
H692 H 0.61312 0.39054 0.39194 0.0
H693 H 0.60344 0.39839 0.35065 0.0
H694 H 0.62583 0.3801 0.35421 0.0
H695 H 0.60322 0.30707 0.29815 0.0
H696 H 0.58874 0.32415 0.24659 0.0
H697 H 0.57778 0.38316 0.30303 0.0
C698 C 0.61049 0.34478 0.41773 0.0
C699 C 0.61914 0.32511 0.4294 0.0
C700 C 0.62121 0.30763 0.40655 0.0
C701 C 0.61479 0.30965 0.37263 0.0
C702 C 0.60631 0.32923 0.36197 0.0
C703 C 0.60411 0.34649 0.38376 0.0
C704 C 0.59441 0.36571 0.36573 0.0
C705 C 0.57266 0.37195 0.3816 0.0
C706 C 0.61015 0.38481 0.36562 0.0
C707 C 0.59154 0.35652 0.33041 0.0
C708 C 0.59854 0.33546 0.32886 0.0
C709 C 0.59766 0.32354 0.299 0.0
C710 C 0.58941 0.33342 0.26984 0.0
C711 C 0.58211 0.355 0.27076 0.0
C712 C 0.58319 0.36664 0.30153 0.0
H713 H 0.42061 0.8144 0.22376 0.0
H714 H 0.47945 0.84986 0.20329 0.0
H715 H 0.47699 0.83984 0.14273 0.0
H716 H 0.4302 0.77069 0.16335 0.0
H717 H 0.4022 0.76902 0.1516 0.0
H718 H 0.40959 0.77759 0.19372 0.0
H719 H 0.3876 0.81265 0.18558 0.0
H720 H 0.3802 0.80422 0.14347 0.0
H721 H 0.3933 0.82977 0.14973 0.0
H722 H 0.46667 0.82804 0.08374 0.0
H723 H 0.44929 0.81522 0.03102 0.0
H724 H 0.39746 0.78748 0.09079 0.0
C725 C 0.43316 0.81983 0.20668 0.0
C726 C 0.45024 0.83287 0.21826 0.0
C727 C 0.46622 0.8398 0.19499 0.0
C728 C 0.465 0.83417 0.16056 0.0
C729 C 0.44777 0.82153 0.14991 0.0
C730 C 0.43219 0.81437 0.17232 0.0
C731 C 0.41475 0.80187 0.15424 0.0
C732 C 0.41416 0.7784 0.16646 0.0
C733 C 0.39267 0.81279 0.15851 0.0
C734 C 0.42274 0.80345 0.11805 0.0
C735 C 0.44187 0.81472 0.11605 0.0
C736 C 0.4518 0.819 0.08502 0.0
C737 C 0.4418 0.81169 0.05523 0.0
C738 C 0.42207 0.8003 0.0568 0.0
C739 C 0.41263 0.79598 0.08872 0.0
H740 H 0.93127 0.35604 0.6927 0.0
H741 H -0.00041 0.35279 0.66987 0.0
H742 H 0.99146 0.33188 0.61791 0.0
H743 H 0.91733 0.30224 0.66143 0.0
H744 H 0.8918 0.31122 0.6449 0.0
H745 H 0.9033 0.32418 0.68158 0.0
H746 H 0.90095 0.36105 0.65103 0.0
H747 H 0.88945 0.34822 0.61436 0.0
H748 H 0.91345 0.36429 0.61 0.0
H749 H 0.9753 0.31426 0.56575 0.0
H750 H 0.95265 0.30142 0.51826 0.0
H751 H 0.89527 0.31582 0.57704 0.0
C752 C 0.9446 0.35075 0.67704 0.0
C753 C 0.96607 0.35607 0.68526 0.0
C754 C 0.98301 0.34883 0.66407 0.0
C755 C 0.97855 0.33692 0.63458 0.0
C756 C 0.95712 0.33221 0.62702 0.0
C757 C 0.94046 0.3388 0.64783 0.0
C758 C 0.91877 0.3327 0.6334 0.0
C759 C 0.90712 0.31662 0.65672 0.0
C760 C 0.90485 0.35276 0.6268 0.0
C761 C 0.92574 0.32219 0.60063 0.0
C762 C 0.94791 0.32186 0.59744 0.0
C763 C 0.95795 0.31415 0.5682 0.0
C764 C 0.94495 0.30691 0.54137 0.0
C765 C 0.9222 0.30752 0.54402 0.0
C766 C 0.9126 0.31488 0.57435 0.0
H767 H 0.41962 0.11455 0.32012 0.0
H768 H 0.42424 0.17605 0.2684 0.0
H769 H 0.40901 0.19408 0.31888 0.0
H770 H 0.36955 0.12397 0.35853 0.0
H771 H 0.37592 0.11021 0.39754 0.0
H772 H 0.38896 0.10243 0.35862 0.0
H773 H 0.42632 0.10853 0.38636 0.0
H774 H 0.41338 0.11625 0.42547 0.0
H775 H 0.43237 0.13415 0.40548 0.0
H776 H 0.39125 0.20503 0.37359 0.0
H777 H 0.37213 0.20808 0.42838 0.0
H778 H 0.37891 0.13927 0.44367 0.0
C779 C 0.41775 0.13186 0.31954 0.0
C780 C 0.42318 0.14392 0.29037 0.0
C781 C 0.42022 0.16649 0.29051 0.0
C782 C 0.41163 0.17689 0.31907 0.0
C783 C 0.40614 0.16446 0.34722 0.0
C784 C 0.40914 0.14245 0.3477 0.0
C785 C 0.40088 0.13262 0.38036 0.0
C786 C 0.38275 0.11636 0.37332 0.0
C787 C 0.41934 0.12228 0.40061 0.0
C788 C 0.39241 0.1525 0.39795 0.0
C789 C 0.39576 0.17073 0.37857 0.0
C790 C 0.38869 0.1909 0.38912 0.0
C791 C 0.37782 0.19245 0.42024 0.0
C792 C 0.37404 0.17391 0.4403 0.0
C793 C 0.38162 0.15375 0.429 0.0
H794 H 0.56246 0.66807 0.17269 0.0
H795 H 0.4963 0.6683 0.13724 0.0
H796 H 0.50813 0.68521 0.08341 0.0
H797 H 0.57886 0.71913 0.13305 0.0
H798 H 0.60535 0.70901 0.12332 0.0
H799 H 0.59113 0.69924 0.16014 0.0
H800 H 0.59552 0.66014 0.13838 0.0
H801 H 0.60959 0.66977 0.10147 0.0
H802 H 0.58595 0.65325 0.09655 0.0
H803 H 0.52813 0.69874 0.03111 0.0
H804 H 0.55423 0.70843 0.98605 0.0
H805 H 0.60674 0.69916 0.05731 0.0
C806 C 0.55035 0.67199 0.1539 0.0
C807 C 0.52846 0.66687 0.15913 0.0
C808 C 0.51316 0.67219 0.13382 0.0
C809 C 0.51973 0.68178 0.10318 0.0
C810 C 0.54158 0.68611 0.09856 0.0
C811 C 0.55659 0.68155 0.12345 0.0
C812 C 0.57922 0.68653 0.11179 0.0
C813 C 0.58922 0.70456 0.13335 0.0
C814 C 0.59339 0.66621 0.11206 0.0
C815 C 0.57473 0.69406 0.07605 0.0
C816 C 0.55295 0.69391 0.06883 0.0
C817 C 0.54519 0.69919 0.03665 0.0
C818 C 0.56012 0.70462 0.01122 0.0
C819 C 0.58251 0.70459 0.01818 0.0
C820 C 0.58974 0.69948 0.05117 0.0
H821 H 0.11259 0.83171 0.78167 0.0
H822 H 0.09605 0.89799 0.80474 0.0
H823 H 0.10772 0.89262 0.86393 0.0
H824 H 0.09438 0.8094 0.85964 0.0
H825 H 0.11582 0.78997 0.86276 0.0
H826 H 0.10707 0.79923 0.8217 0.0
H827 H 0.1461 0.81089 0.80733 0.0
H828 H 0.15499 0.80165 0.84837 0.0
H829 H 0.16011 0.82898 0.83546 0.0
H830 H 0.11976 0.87985 0.9209 0.0
H831 H 0.13157 0.86039 0.97219 0.0
H832 H 0.14052 0.80251 0.9121 0.0
C833 C 0.11156 0.84514 0.79909 0.0
C834 C 0.10341 0.86526 0.78857 0.0
C835 C 0.10223 0.88241 0.81221 0.0
C836 C 0.10885 0.87955 0.84589 0.0
C837 C 0.11667 0.85949 0.85548 0.0
C838 C 0.11811 0.84258 0.83283 0.0
C839 C 0.12661 0.82251 0.84993 0.0
C840 C 0.10997 0.80421 0.84842 0.0
C841 C 0.14824 0.81561 0.83435 0.0
C842 C 0.12947 0.83074 0.88583 0.0
C843 C 0.12372 0.85212 0.88842 0.0
C844 C 0.12444 0.86313 0.91919 0.0
C845 C 0.13115 0.85193 0.94817 0.0
C846 C 0.13702 0.82995 0.94614 0.0
C847 C 0.13628 0.81933 0.91445 0.0
H848 H 0.10502 0.33529 0.33796 0.0
H849 H 0.07745 0.3525 0.43557 0.0
H850 H 0.08806 0.31699 0.4583 0.0
H851 H 0.08398 0.28537 0.33569 0.0
H852 H 0.10634 0.27246 0.3148 0.0
H853 H 0.10166 0.30067 0.30853 0.0
H854 H 0.14032 0.30937 0.32898 0.0
H855 H 0.14534 0.28107 0.33487 0.0
H856 H 0.14938 0.29951 0.36959 0.0
H857 H 0.09665 0.27811 0.46756 0.0
H858 H 0.10163 0.23895 0.46261 0.0
H859 H 0.12138 0.24675 0.35751 0.0
C860 C 0.10183 0.33196 0.36447 0.0
C861 C 0.0905 0.34673 0.38508 0.0
C862 C 0.08626 0.34149 0.41941 0.0
C863 C 0.09226 0.32138 0.43253 0.0
C864 C 0.10248 0.30679 0.41095 0.0
C865 C 0.10731 0.3119 0.37766 0.0
C866 C 0.11551 0.29256 0.35825 0.0
C867 C 0.101 0.28747 0.32753 0.0
C868 C 0.13904 0.29582 0.34729 0.0
C869 C 0.11368 0.2755 0.38541 0.0
C870 C 0.10665 0.28411 0.41585 0.0
C871 C 0.10248 0.27125 0.44403 0.0
C872 C 0.1053 0.249 0.44089 0.0
C873 C 0.11187 0.23979 0.4096 0.0
C874 C 0.11645 0.25332 0.38177 0.0
H875 H 0.92488 0.81479 0.66632 0.0
H876 H 0.8958 0.87796 0.65717 0.0
H877 H 0.92867 0.89431 0.68115 0.0
H878 H 0.95737 0.82606 0.74525 0.0
H879 H 0.97945 0.81005 0.72965 0.0
H880 H 0.95217 0.80311 0.71852 0.0
H881 H 0.96244 0.80457 0.65476 0.0
H882 H 0.98959 0.81177 0.66557 0.0
H883 H 0.97415 0.82879 0.63766 0.0
H884 H 0.96661 0.90411 0.69625 0.0
H885 H 0.00599 0.90649 0.70375 0.0
H886 H 0.0102 0.83685 0.70302 0.0
C887 C 0.92509 0.832 0.67041 0.0
C888 C 0.90775 0.84509 0.65993 0.0
C889 C 0.90883 0.86759 0.66521 0.0
C890 C 0.92745 0.87702 0.67884 0.0
C891 C 0.94467 0.8637 0.68742 0.0
C892 C 0.94352 0.84163 0.68387 0.0
C893 C 0.96495 0.83106 0.6914 0.0
C894 C 0.96339 0.81673 0.7231 0.0
C895 C 0.97326 0.81831 0.66051 0.0
C896 C 0.97863 0.85071 0.69813 0.0
C897 C 0.96659 0.86937 0.69623 0.0
C898 C 0.9761 0.8896 0.69855 0.0
C899 C -0.00149 0.89078 0.70261 0.0
C900 C 0.01115 0.87184 0.70414 0.0
C901 C 0.00095 0.8516 0.70248 0.0
H902 H 0.44082 0.72221 0.96257 0.0
H903 H 0.37308 0.70814 0.947 0.0
H904 H 0.38297 0.67565 0.91445 0.0
H905 H 0.4572 0.70945 0.8815 0.0
H906 H 0.48272 0.69794 0.89353 0.0
H907 H 0.47038 0.718 0.91999 0.0
H908 H 0.47192 0.69203 0.97144 0.0
H909 H 0.48436 0.67185 0.94509 0.0
H910 H 0.46001 0.66569 0.96806 0.0
H911 H 0.4002 0.64733 0.87808 0.0
H912 H 0.42335 0.6258 0.84008 0.0
H913 H 0.47974 0.65867 0.8794 0.0
C914 C 0.42803 0.71201 0.9531 0.0
C915 C 0.40618 0.71762 0.9575 0.0
C916 C 0.38994 0.70409 0.94406 0.0
C917 C 0.3954 0.68556 0.92565 0.0
C918 C 0.41713 0.68078 0.92107 0.0
C919 C 0.43319 0.69358 0.93455 0.0
C920 C 0.45528 0.68616 0.9233 0.0
C921 C 0.46707 0.70394 0.9034 0.0
C922 C 0.46867 0.67847 0.9538 0.0
C923 C 0.44912 0.66759 0.90051 0.0
C924 C 0.42707 0.66454 0.89991 0.0
C925 C 0.4175 0.64933 0.87876 0.0
C926 C 0.43078 0.63721 0.85722 0.0
C927 C 0.45336 0.64048 0.85686 0.0
C928 C 0.46258 0.65556 0.87937 0.0
H929 H 0.57938 0.18813 0.15459 0.0
H930 H 0.59649 0.13678 0.08503 0.0
H931 H 0.57274 0.11196 0.11634 0.0
H932 H 0.5721 0.15342 0.23258 0.0
H933 H 0.54945 0.16927 0.24647 0.0
H934 H 0.57106 0.18175 0.22306 0.0
H935 H 0.54358 0.19584 0.17881 0.0
H936 H 0.52198 0.18336 0.20187 0.0
H937 H 0.52604 0.17703 0.15765 0.0
H938 H 0.5428 0.09472 0.14828 0.0
H939 H 0.50919 0.08627 0.17899 0.0
H940 H 0.51166 0.1486 0.22827 0.0
C941 C 0.57872 0.17148 0.14665 0.0
C942 C 0.58985 0.16437 0.11748 0.0
C943 C 0.58815 0.14258 0.10739 0.0
C944 C 0.57477 0.12832 0.12512 0.0
C945 C 0.56336 0.13605 0.15303 0.0
C946 C 0.56536 0.15707 0.16399 0.0
C947 C 0.54946 0.16206 0.19207 0.0
C948 C 0.56122 0.16691 0.22553 0.0
C949 C 0.53438 0.18066 0.18197 0.0
C950 C 0.53749 0.1409 0.194 0.0
C951 C 0.546 0.12598 0.17171 0.0
C952 C 0.5363 0.10606 0.16643 0.0
C953 C 0.51717 0.10144 0.18387 0.0
C954 C 0.50793 0.11671 0.2062 0.0
C955 C 0.51859 0.13643 0.21193 0.0
H956 H 0.06278 0.68089 0.10311 0.0
H957 H 0.11165 0.63153 0.09195 0.0
H958 H 0.13498 0.65742 0.06169 0.0
H959 H 0.07324 0.70932 0.02128 0.0
H960 H 0.06856 0.7352 0.0405 0.0
H961 H 0.05443 0.71185 0.05595 0.0
H962 H 0.06864 0.71941 0.11669 0.0
H963 H 0.08288 0.74264 0.10144 0.0
H964 H 0.09725 0.72173 0.1236 0.0
H965 H 0.15467 0.68991 0.03935 0.0
H966 H 0.16911 0.72617 0.02748 0.0
H967 H 0.10726 0.75396 0.05417 0.0
C968 C 0.07814 0.67531 0.09352 0.0
C969 C 0.08536 0.65417 0.09975 0.0
C970 C 0.10575 0.64764 0.08731 0.0
C971 C 0.11908 0.66221 0.07001 0.0
C972 C 0.11171 0.68316 0.0652 0.0
C973 C 0.09163 0.68964 0.07643 0.0
C974 C 0.08828 0.71349 0.07125 0.0
C975 C 0.07005 0.7177 0.04572 0.0
C976 C 0.08403 0.72498 0.10526 0.0
C977 C 0.10992 0.7196 0.05659 0.0
C978 C 0.12311 0.70188 0.0527 0.0
C979 C 0.14437 0.70385 0.04175 0.0
C980 C 0.15244 0.72451 0.03513 0.0
C981 C 0.13931 0.74289 0.03987 0.0
C982 C 0.11767 0.74024 0.05006 0.0
H983 H 0.52071 0.8406 0.36965 0.0
H984 H 0.55146 0.87675 0.28869 0.0
H985 H 0.587 0.86334 0.30757 0.0
H986 H 0.56257 0.848 0.43314 0.0
H987 H 0.55933 0.82121 0.44979 0.0
H988 H 0.5367 0.83492 0.43112 0.0
H989 H 0.53114 0.80305 0.38959 0.0
H990 H 0.55382 0.78931 0.40795 0.0
H991 H 0.55316 0.79453 0.36292 0.0
H992 H 0.61916 0.84445 0.33433 0.0
H993 H 0.64488 0.82197 0.36674 0.0
H994 H 0.59216 0.79815 0.42871 0.0
C995 C 0.5349 0.84597 0.35608 0.0
C996 C 0.53331 0.85977 0.32775 0.0
C997 C 0.5523 0.86621 0.31055 0.0
C998 C 0.57255 0.85869 0.32107 0.0
C999 C 0.57347 0.84478 0.34881 0.0
C1000 C 0.55512 0.83857 0.3661 0.0
C1001 C 0.56021 0.82286 0.39423 0.0
C1002 C 0.55436 0.83232 0.42913 0.0
C1003 C 0.54891 0.80116 0.38829 0.0
C1004 C 0.58429 0.82097 0.38987 0.0
C1005 C 0.59174 0.83379 0.36374 0.0
C1006 C 0.6135 0.83441 0.35493 0.0
C1007 C 0.62797 0.82157 0.37342 0.0
C1008 C 0.62053 0.80826 0.40016 0.0
C1009 C 0.59839 0.80807 0.40834 0.0
H1010 H 0.33196 0.25545 0.58451 0.0
H1011 H 0.34824 0.27661 0.48264 0.0
H1012 H 0.35946 0.3118 0.50544 0.0
H1013 H 0.31378 0.30972 0.61728 0.0
H1014 H 0.32531 0.30437 0.65843 0.0
H1015 H 0.3146 0.2826 0.63338 0.0
H1016 H 0.35119 0.26275 0.63771 0.0
H1017 H 0.36203 0.28443 0.66247 0.0
H1018 H 0.37539 0.27621 0.62394 0.0
H1019 H 0.3756 0.34133 0.54009 0.0
H1020 H 0.3934 0.36367 0.58376 0.0
H1021 H 0.36517 0.32407 0.66276 0.0
C1022 C 0.33724 0.26772 0.56685 0.0
C1023 C 0.33924 0.26329 0.53182 0.0
C1024 C 0.34646 0.27967 0.50957 0.0
C1025 C 0.35284 0.29975 0.52228 0.0
C1026 C 0.35149 0.30329 0.55717 0.0
C1027 C 0.34351 0.28785 0.57909 0.0
C1028 C 0.34575 0.29476 0.61577 0.0
C1029 C 0.32353 0.29806 0.63218 0.0
C1030 C 0.35941 0.27858 0.63613 0.0
C1031 C 0.35736 0.31593 0.61117 0.0
C1032 C 0.36029 0.32074 0.57718 0.0
C1033 C 0.37286 0.3381 0.56676 0.0
C1034 C 0.38299 0.35064 0.59169 0.0
C1035 C 0.3804 0.34575 0.62657 0.0
C1036 C 0.36695 0.32854 0.63631 0.0
H1037 H 0.97912 0.12661 0.84728 0.0
H1038 H 0.95287 0.10377 0.75171 0.0
H1039 H 0.91656 0.1154 0.76982 0.0
H1040 H 0.93186 0.11358 0.9012 0.0
H1041 H 0.93533 0.13763 0.92612 0.0
H1042 H 0.95842 0.12455 0.90762 0.0
H1043 H 0.96903 0.16021 0.87791 0.0
H1044 H 0.94593 0.17333 0.89598 0.0
H1045 H 0.94983 0.1734 0.85061 0.0
H1046 H 0.88383 0.13319 0.79608 0.0
H1047 H 0.85774 0.15536 0.82825 0.0
H1048 H 0.90624 0.16683 0.90551 0.0
C1049 C 0.96569 0.12351 0.83045 0.0
C1050 C 0.96882 0.11419 0.79814 0.0
C1051 C 0.95083 0.11079 0.77667 0.0
C1052 C 0.93014 0.11731 0.78675 0.0
C1053 C 0.92775 0.12709 0.81839 0.0
C1054 C 0.94505 0.13001 0.84 0.0
C1055 C 0.93872 0.14255 0.87131 0.0
C1056 C 0.94123 0.12875 0.90346 0.0
C1057 C 0.95164 0.16362 0.87408 0.0
C1058 C 0.91529 0.14683 0.86353 0.0
C1059 C 0.90912 0.13756 0.83317 0.0
C1060 C 0.88842 0.14029 0.8201 0.0
C1061 C 0.87374 0.15294 0.83849 0.0
C1062 C 0.87996 0.16285 0.86934 0.0
C1063 C 0.90094 0.15947 0.88204 0.0
H1064 H 0.90376 0.67632 0.58346 0.0
H1065 H 0.85815 0.6638 0.6647 0.0
H1066 H 0.83722 0.69557 0.6477 0.0
H1067 H 0.90703 0.72957 0.5944 0.0
H1068 H 0.90872 0.73725 0.55033 0.0
H1069 H 0.91741 0.71098 0.56329 0.0
H1070 H 0.8912 0.69345 0.52027 0.0
H1071 H 0.88251 0.71979 0.50686 0.0
H1072 H 0.86302 0.70037 0.52136 0.0
H1073 H 0.82647 0.7323 0.63157 0.0
H1074 H 0.82499 0.77041 0.61374 0.0
H1075 H 0.87577 0.75886 0.54059 0.0
C1076 C 0.88892 0.67979 0.59682 0.0
C1077 C 0.88262 0.6676 0.62541 0.0
C1078 C 0.86332 0.6729 0.64269 0.0
C1079 C 0.85124 0.69088 0.63313 0.0
C1080 C 0.85844 0.7032 0.60588 0.0
C1081 C 0.87661 0.69769 0.58749 0.0
C1082 C 0.88228 0.71499 0.56191 0.0
C1083 C 0.9052 0.72371 0.56788 0.0
C1084 C 0.87958 0.70665 0.52543 0.0
C1085 C 0.86533 0.73165 0.57036 0.0
C1086 C 0.85155 0.72439 0.5955 0.0
C1087 C 0.83659 0.73793 0.61102 0.0
C1088 C 0.83591 0.7595 0.60093 0.0
C1089 C 0.8499 0.76713 0.57535 0.0
C1090 C 0.8644 0.753 0.55931 0.0
H1091 H 0.9671 0.10229 0.32935 0.0
H1092 H 0.98316 0.12863 0.23044 0.0
H1093 H 0.0198 0.1372 0.25107 0.0
H1094 H 0.99335 0.14075 0.37787 0.0
H1095 H 0.00257 0.12233 0.41008 0.0
H1096 H 0.97854 0.11641 0.38641 0.0
H1097 H 0.99466 0.07975 0.3681 0.0
H1098 H 0.01878 0.08554 0.39183 0.0
H1099 H 0.02053 0.079 0.34731 0.0
H1100 H 0.05306 0.14673 0.28483 0.0
H1101 H 0.08078 0.15483 0.32813 0.0
H1102 H 0.04311 0.12066 0.4037 0.0
C1103 C 0.97841 0.10958 0.31184 0.0
C1104 C 0.97232 0.11485 0.27833 0.0
C1105 C 0.98756 0.12438 0.25619 0.0
C1106 C 0.00838 0.1293 0.26767 0.0
C1107 C 0.01373 0.12424 0.30113 0.0
C1108 C -0.00076 0.11435 0.32273 0.0
C1109 C 0.00852 0.11148 0.35791 0.0
C1110 C 0.99494 0.12346 0.38462 0.0
C1111 C 0.01076 0.08751 0.3668 0.0
C1112 C 0.03029 0.12191 0.3531 0.0
C1113 C 0.03307 0.12912 0.32017 0.0
C1114 C 0.05124 0.14079 0.3105 0.0
C1115 C 0.06685 0.14536 0.33525 0.0
C1116 C 0.06418 0.13817 0.36912 0.0
C1117 C 0.04582 0.12599 0.37785 0.0
H1118 H 0.58769 0.25745 0.05668 0.0
H1119 H 0.65508 0.27532 0.0496 0.0
H1120 H 0.64593 0.31223 0.06845 0.0
H1121 H 0.56624 0.30827 0.02577 0.0
H1122 H 0.54336 0.30737 0.05394 0.0
H1123 H 0.55529 0.28274 0.03891 0.0
H1124 H 0.56065 0.26993 0.10104 0.0
H1125 H 0.54859 0.2944 0.11619 0.0
H1126 H 0.57511 0.28683 0.13041 0.0
H1127 H 0.62945 0.34615 0.09321 0.0
H1128 H 0.6069 0.37448 0.11957 0.0
H1129 H 0.55033 0.33454 0.10578 0.0
C1130 C 0.60055 0.26913 0.05901 0.0
C1131 C 0.62211 0.26357 0.05196 0.0
C1132 C 0.63844 0.27933 0.05492 0.0
C1133 C 0.6334 0.30029 0.06555 0.0
C1134 C 0.61192 0.30522 0.07239 0.0
C1135 C 0.59576 0.2901 0.06891 0.0
C1136 C 0.574 0.29922 0.07822 0.0
C1137 C 0.55883 0.29941 0.04736 0.0
C1138 C 0.56401 0.28687 0.10825 0.0
C1139 C 0.58045 0.32174 0.08832 0.0
C1140 C 0.60237 0.32495 0.08488 0.0
C1141 C 0.61221 0.34397 0.09538 0.0
C1142 C 0.59932 0.35994 0.11029 0.0
C1143 C 0.57687 0.35681 0.11411 0.0
C1144 C 0.56735 0.33764 0.10232 0.0
H1145 H 0.41962 0.78564 0.87102 0.0
H1146 H 0.38378 0.83547 0.92352 0.0
H1147 H 0.40355 0.86319 0.89109 0.0
H1148 H 0.46869 0.81099 0.87479 0.0
H1149 H 0.47813 0.80219 0.83379 0.0
H1150 H 0.45875 0.78631 0.85663 0.0
H1151 H 0.43268 0.78795 0.80528 0.0
H1152 H 0.4521 0.80372 0.7821 0.0
H1153 H 0.4251 0.81368 0.78796 0.0
H1154 H 0.43009 0.88541 0.85765 0.0
H1155 H 0.46141 0.90019 0.82666 0.0
H1156 H 0.48018 0.83553 0.79756 0.0
C1157 C 0.41544 0.80235 0.87502 0.0
C1158 C 0.40003 0.80839 0.89958 0.0
C1159 C 0.39545 0.83047 0.90465 0.0
C1160 C 0.40656 0.84633 0.8863 0.0
C1161 C 0.42214 0.83981 0.86298 0.0
C1162 C 0.4265 0.81832 0.8572 0.0
C1163 C 0.44543 0.81551 0.83342 0.0
C1164 C 0.46382 0.80302 0.8507 0.0
C1165 C 0.4384 0.80457 0.80022 0.0
C1166 C 0.45146 0.83875 0.8275 0.0
C1167 C 0.43767 0.85256 0.8443 0.0
C1168 C 0.44082 0.87476 0.84402 0.0
C1169 C 0.45867 0.883 0.8264 0.0
C1170 C 0.47324 0.86902 0.80968 0.0
C1171 C 0.4693 0.84667 0.80993 0.0
H1172 H 0.91355 0.2712 0.93866 0.0
H1173 H 0.84899 0.27461 0.89677 0.0
H1174 H 0.85736 0.31021 0.8723 0.0
H1175 H 0.91973 0.32951 0.95705 0.0
H1176 H 0.94771 0.32927 0.94486 0.0
H1177 H 0.93564 0.30558 0.96313 0.0
H1178 H 0.9476 0.28327 0.91078 0.0
H1179 H 0.9597 0.30682 0.89246 0.0
H1180 H 0.93977 0.29197 0.86887 0.0
H1181 H 0.87402 0.34334 0.84718 0.0
H1182 H 0.89799 0.37059 0.8217 0.0
H1183 H 0.95156 0.34533 0.8802 0.0
C1184 C 0.901 0.2796 0.92495 0.0
C1185 C 0.8806 0.27017 0.9197 0.0
C1186 C 0.86473 0.28157 0.90117 0.0
C1187 C 0.86929 0.30184 0.88734 0.0
C1188 C 0.88972 0.31052 0.8925 0.0
C1189 C 0.90529 0.29978 0.91096 0.0
C1190 C 0.92656 0.31162 0.91025 0.0
C1191 C 0.93276 0.31946 0.94595 0.0
C1192 C 0.94444 0.29758 0.89465 0.0
C1193 C 0.92078 0.33026 0.88735 0.0
C1194 C 0.89936 0.32958 0.87787 0.0
C1195 C 0.89073 0.34424 0.85484 0.0
C1196 C 0.90448 0.35965 0.84048 0.0
C1197 C 0.92664 0.36011 0.84899 0.0
C1198 C 0.93466 0.34556 0.87343 0.0
H1199 H 0.48491 0.14889 0.64401 0.0
H1200 H 0.45126 0.09951 0.70116 0.0
H1201 H 0.41668 0.11188 0.6768 0.0
H1202 H 0.4447 0.19 0.65333 0.0
H1203 H 0.44881 0.20054 0.61117 0.0
H1204 H 0.47072 0.18778 0.63333 0.0
H1205 H 0.47586 0.16131 0.5831 0.0
H1206 H 0.45401 0.17401 0.56076 0.0
H1207 H 0.45331 0.14549 0.56873 0.0
H1208 H 0.38586 0.12939 0.64477 0.0
H1209 H 0.36145 0.15067 0.60821 0.0
H1210 H 0.41586 0.18866 0.57356 0.0
C1211 C 0.4703 0.14062 0.65146 0.0
C1212 C 0.47078 0.12319 0.67442 0.0
C1213 C 0.45127 0.11291 0.68358 0.0
C1214 C 0.43157 0.11982 0.66991 0.0
C1215 C 0.43171 0.13708 0.64731 0.0
C1216 C 0.45059 0.14735 0.63825 0.0
C1217 C 0.44653 0.16543 0.61345 0.0
C1218 C 0.45308 0.18723 0.62875 0.0
C1219 C 0.45811 0.1613 0.5795 0.0
C1220 C 0.4224 0.16367 0.60969 0.0
C1221 C 0.41409 0.14725 0.62938 0.0
C1222 C 0.39218 0.14235 0.62938 0.0
C1223 C 0.37846 0.15452 0.60855 0.0
C1224 C 0.38674 0.17137 0.58814 0.0
C1225 C 0.40898 0.17599 0.58901 0.0
H1226 H 0.59933 0.69188 0.46908 0.0
H1227 H 0.65645 0.70565 0.40935 0.0
H1228 H 0.64563 0.67792 0.36794 0.0
H1229 H 0.59551 0.63235 0.44771 0.0
H1230 H 0.56655 0.63392 0.44605 0.0
H1231 H 0.58135 0.65086 0.47496 0.0
H1232 H 0.56298 0.68444 0.44894 0.0
H1233 H 0.54835 0.66773 0.41984 0.0
H1234 H 0.56506 0.68917 0.40386 0.0
H1235 H 0.6252 0.6547 0.3278 0.0
H1236 H 0.5973 0.63714 0.29291 0.0
H1237 H 0.55346 0.63832 0.37872 0.0
C1238 C 0.61002 0.68851 0.448 0.0
C1239 C 0.62876 0.7009 0.4425 0.0
C1240 C 0.64206 0.69629 0.41419 0.0
C1241 C 0.63608 0.68051 0.39057 0.0
C1242 C 0.6169 0.66933 0.39586 0.0
C1243 C 0.60421 0.67292 0.42416 0.0
C1244 C 0.58303 0.66095 0.42176 0.0
C1245 C 0.58153 0.64348 0.44925 0.0
C1246 C 0.56374 0.67651 0.42369 0.0
C1247 C 0.58521 0.65113 0.38679 0.0
C1248 C 0.60505 0.65577 0.37255 0.0
C1249 C 0.60985 0.65048 0.33899 0.0
C1250 C 0.59386 0.64062 0.31931 0.0
C1251 C 0.57327 0.63625 0.3332 0.0
C1252 C 0.56918 0.64104 0.36764 0.0
H1253 H 0.06855 0.82929 0.08022 0.0
H1254 H 0.1231 0.84064 0.14676 0.0
H1255 H 0.09819 0.85257 0.19211 0.0
H1256 H 0.03649 0.87462 0.10787 0.0
H1257 H 0.0115 0.86003 0.1045 0.0
H1258 H 0.03377 0.85328 0.0772 0.0
H1259 H 0.03195 0.81374 0.09792 0.0
H1260 H 0.00974 0.82039 0.12536 0.0
H1261 H 0.03358 0.80807 0.14275 0.0
H1262 H 0.06685 0.86189 0.23088 0.0
H1263 H 0.03191 0.86839 0.25932 0.0
H1264 H -0.00147 0.85084 0.16649 0.0
C1265 C 0.07534 0.83443 0.10421 0.0
C1266 C 0.09778 0.83405 0.10995 0.0
C1267 C 0.10595 0.84085 0.14178 0.0
C1268 C 0.09194 0.84763 0.16768 0.0
C1269 C 0.06986 0.84758 0.16121 0.0
C1270 C 0.06166 0.84123 0.13018 0.0
C1271 C 0.03734 0.84217 0.12972 0.0
C1272 C 0.02931 0.8585 0.10326 0.0
C1273 C 0.02759 0.81976 0.12359 0.0
C1274 C 0.03307 0.84988 0.16548 0.0
C1275 C 0.05199 0.85296 0.1833 0.0
C1276 C 0.05194 0.85964 0.2171 0.0
C1277 C 0.03203 0.86326 0.23304 0.0
C1278 C 0.01249 0.86017 0.21512 0.0
C1279 C 0.01316 0.85345 0.18089 0.0
H1280 H 0.5982 0.78453 0.97219 0.0
H1281 H 0.65525 0.77546 0.91028 0.0
H1282 H 0.64468 0.80646 0.87479 0.0
H1283 H 0.56418 0.79305 0.90629 0.0
H1284 H 0.54736 0.81277 0.92683 0.0
H1285 H 0.56169 0.79337 0.95192 0.0
H1286 H 0.57975 0.82403 0.98616 0.0
H1287 H 0.56533 0.84362 0.96122 0.0
H1288 H 0.59428 0.84486 0.96402 0.0
H1289 H 0.62541 0.83444 0.84129 0.0
H1290 H 0.59836 0.85609 0.81087 0.0
H1291 H 0.55312 0.84617 0.89351 0.0
C1292 C 0.60889 0.7896 0.95198 0.0
C1293 C 0.6277 0.77783 0.94423 0.0
C1294 C 0.64088 0.78442 0.9168 0.0
C1295 C 0.63505 0.80206 0.89663 0.0
C1296 C 0.61599 0.81289 0.90422 0.0
C1297 C 0.60312 0.80694 0.93132 0.0
C1298 C 0.58201 0.81913 0.93121 0.0
C1299 C 0.56269 0.80366 0.92891 0.0
C1300 C 0.58025 0.83379 0.96251 0.0
C1301 C 0.5846 0.83217 0.89901 0.0
C1302 C 0.60451 0.82872 0.88426 0.0
C1303 C 0.60992 0.83758 0.8529 0.0
C1304 C 0.59441 0.84982 0.83577 0.0
C1305 C 0.57362 0.85287 0.84983 0.0
C1306 C 0.56895 0.8444 0.8823 0.0
H1307 H 0.49616 0.33008 0.19643 0.0
H1308 H 0.48551 0.39665 0.16789 0.0
H1309 H 0.45146 0.38639 0.14006 0.0
H1310 H 0.47942 0.30794 0.12071 0.0
H1311 H 0.4666 0.28461 0.13887 0.0
H1312 H 0.48838 0.29749 0.16101 0.0
H1313 H 0.4642 0.30226 0.21416 0.0
H1314 H 0.44233 0.2892 0.19225 0.0
H1315 H 0.43856 0.31561 0.21013 0.0
H1316 H 0.42119 0.36841 0.10935 0.0
H1317 H 0.39632 0.34404 0.07921 0.0
H1318 H 0.42659 0.28923 0.12799 0.0
C1319 C 0.48639 0.3426 0.18516 0.0
C1320 C 0.49344 0.36418 0.18448 0.0
C1321 C 0.48039 0.38002 0.16884 0.0
C1322 C 0.46099 0.37436 0.15302 0.0
C1323 C 0.45482 0.35284 0.15326 0.0
C1324 C 0.46703 0.33722 0.16917 0.0
C1325 C 0.45775 0.31502 0.16334 0.0
C1326 C 0.47401 0.30042 0.14488 0.0
C1327 C 0.45026 0.30493 0.19698 0.0
C1328 C 0.43882 0.32053 0.14079 0.0
C1329 C 0.43728 0.34244 0.13555 0.0
C1330 C 0.42199 0.35125 0.11372 0.0
C1331 C 0.40799 0.33728 0.09662 0.0
C1332 C 0.40943 0.31475 0.10141 0.0
C1333 C 0.42487 0.30639 0.12418 0.0
H1334 H 0.90143 0.22033 0.47309 0.0
H1335 H 0.84196 0.24364 0.4285 0.0
H1336 H 0.83764 0.20924 0.39806 0.0
H1337 H 0.92077 0.19626 0.40027 0.0
H1338 H 0.93318 0.17365 0.42116 0.0
H1339 H 0.92976 0.19855 0.44366 0.0
H1340 H 0.90881 0.1786 0.49113 0.0
H1341 H 0.91212 0.15358 0.46863 0.0
H1342 H 0.88556 0.16267 0.48024 0.0
H1343 H 0.84183 0.17435 0.36763 0.0
H1344 H 0.85523 0.14244 0.33708 0.0
H1345 H 0.91219 0.1419 0.40097 0.0
C1346 C 0.88722 0.21799 0.4576 0.0
C1347 C 0.87195 0.23457 0.45333 0.0
C1348 C 0.85384 0.23111 0.43218 0.0
C1349 C 0.85117 0.21158 0.41497 0.0
C1350 C 0.86672 0.19567 0.41924 0.0
C1351 C 0.88441 0.19866 0.44001 0.0
C1352 C 0.89997 0.17999 0.43735 0.0
C1353 C 0.92222 0.18758 0.42485 0.0
C1354 C 0.90171 0.168 0.47137 0.0
C1355 C 0.88865 0.16643 0.4109 0.0
C1356 C 0.86929 0.17555 0.40127 0.0
C1357 C 0.85678 0.16686 0.37533 0.0
C1358 C 0.86454 0.14874 0.3581 0.0
C1359 C 0.88472 0.13962 0.36671 0.0
C1360 C 0.89655 0.14827 0.39413 0.0
H1361 H 0.0509 0.66735 0.57 0.0
H1362 H 0.09908 0.64797 0.64379 0.0
H1363 H 0.07026 0.63388 0.68106 0.0
H1364 H 0.01217 0.68549 0.62916 0.0
H1365 H 0.98937 0.67604 0.60509 0.0
H1366 H 0.01386 0.68341 0.58356 0.0
H1367 H 0.01555 0.64572 0.55556 0.0
H1368 H 0.99101 0.63826 0.57692 0.0
H1369 H 0.01486 0.62206 0.582 0.0
H1370 H 0.03582 0.62322 0.71114 0.0
H1371 H -0.00128 0.61676 0.73147 0.0
H1372 H 0.97358 0.64353 0.63767 0.0
C1373 C 0.05548 0.65998 0.59385 0.0
C1374 C 0.07727 0.65873 0.60397 0.0
C1375 C 0.0825 0.64906 0.63548 0.0
C1376 C 0.06625 0.64101 0.6568 0.0
C1377 C 0.0449 0.64274 0.64616 0.0
C1378 C 0.03953 0.65194 0.61537 0.0
C1379 C 0.01541 0.65248 0.61019 0.0
C1380 C 0.00723 0.67574 0.60681 0.0
C1381 C 0.00883 0.63881 0.57934 0.0
C1382 C 0.00798 0.64235 0.64306 0.0
C1383 C 0.0252 0.63673 0.66344 0.0
C1384 C 0.02223 0.62746 0.69532 0.0
C1385 C 0.00109 0.62388 0.70665 0.0
C1386 C 0.98324 0.62963 0.68617 0.0
C1387 C 0.98685 0.63891 0.65393 0.0
H1388 H 0.62469 0.24242 0.62426 0.0
H1389 H 0.63247 0.22883 0.5168 0.0
H1390 H 0.61866 0.19208 0.52601 0.0
H1391 H 0.63836 0.18791 0.65566 0.0
H1392 H 0.61833 0.18919 0.68876 0.0
H1393 H 0.63139 0.21343 0.67439 0.0
H1394 H 0.59413 0.23039 0.6616 0.0
H1395 H 0.581 0.20624 0.67579 0.0
H1396 H 0.57571 0.21653 0.63382 0.0
H1397 H 0.60035 0.1582 0.54587 0.0
H1398 H 0.57914 0.13003 0.57497 0.0
H1399 H 0.58371 0.16596 0.66924 0.0
C1400 C 0.62397 0.23158 0.60277 0.0
C1401 C 0.62974 0.23848 0.56984 0.0
C1402 C 0.6282 0.22389 0.5423 0.0
C1403 C 0.62043 0.20295 0.54728 0.0
C1404 C 0.6144 0.19682 0.57997 0.0
C1405 C 0.61622 0.21067 0.60728 0.0
C1406 C 0.60714 0.20077 0.63932 0.0
C1407 C 0.62487 0.19764 0.66611 0.0
C1408 C 0.58838 0.21428 0.65344 0.0
C1409 C 0.59937 0.17944 0.62557 0.0
C1410 C 0.60389 0.17732 0.59138 0.0
C1411 C 0.597 0.15953 0.57277 0.0
C1412 C 0.58494 0.14363 0.58949 0.0
C1413 C 0.57983 0.14572 0.62439 0.0
C1414 C 0.58752 0.16372 0.64263 0.0
H1415 H 0.00875 0.38679 0.8403 0.0
H1416 H 0.04242 0.42085 0.76001 0.0
H1417 H 0.07727 0.41146 0.7868 0.0
H1418 H 0.0459 0.40035 0.90966 0.0
H1419 H 0.04295 0.37421 0.92886 0.0
H1420 H 0.02095 0.3858 0.90532 0.0
H1421 H 0.01952 0.35193 0.86703 0.0
H1422 H 0.04152 0.34028 0.89028 0.0
H1423 H 0.04348 0.34346 0.84488 0.0
H1424 H 0.10848 0.39496 0.81984 0.0
H1425 H 0.13287 0.37336 0.85607 0.0
H1426 H 0.07779 0.35074 0.91388 0.0
C1427 C 0.0234 0.39263 0.82853 0.0
C1428 C 0.02288 0.40455 0.79805 0.0
C1429 C 0.04245 0.41176 0.78347 0.0
C1430 C 0.0623 0.40651 0.79851 0.0
C1431 C 0.06219 0.39426 0.82821 0.0
C1432 C 0.04318 0.38759 0.84314 0.0
C1433 C 0.0472 0.37346 0.87366 0.0
C1434 C 0.03876 0.3841 0.90631 0.0
C1435 C 0.03735 0.35096 0.86863 0.0
C1436 C 0.07149 0.37271 0.87318 0.0
C1437 C 0.07994 0.38492 0.84705 0.0
C1438 C 0.10203 0.38558 0.84065 0.0
C1439 C 0.11575 0.37325 0.86132 0.0
C1440 C 0.10725 0.36039 0.88784 0.0
C1441 C 0.08486 0.36049 0.89399 0.0
H1442 H 0.89452 0.71971 0.10757 0.0
H1443 H 0.83424 0.7512 0.08222 0.0
H1444 H 0.84593 0.78348 0.11392 0.0
H1445 H 0.89968 0.74103 0.19226 0.0
H1446 H 0.92849 0.74399 0.18929 0.0
H1447 H 0.91505 0.72328 0.16537 0.0
H1448 H 0.93183 0.73804 0.10974 0.0
H1449 H 0.94533 0.75878 0.13346 0.0
H1450 H 0.92791 0.76588 0.09861 0.0
H1451 H 0.86456 0.8124 0.14804 0.0
H1452 H 0.88893 0.83605 0.18062 0.0
H1453 H 0.93701 0.78537 0.18259 0.0
C1454 C 0.88369 0.73333 0.10877 0.0
C1455 C 0.86343 0.73293 0.09249 0.0
C1456 C 0.84983 0.75116 0.09451 0.0
C1457 C 0.85631 0.76953 0.1125 0.0
C1458 C 0.87643 0.76937 0.1282 0.0
C1459 C 0.88991 0.75175 0.12643 0.0
C1460 C 0.91091 0.75576 0.14481 0.0
C1461 C 0.91368 0.74009 0.17471 0.0
C1462 C 0.93012 0.75455 0.12018 0.0
C1463 C 0.90721 0.77847 0.15711 0.0
C1464 C 0.88719 0.78602 0.14745 0.0
C1465 C 0.88026 0.80665 0.15577 0.0
C1466 C 0.89421 0.81995 0.17429 0.0
C1467 C 0.91489 0.81257 0.18412 0.0
C1468 C 0.92133 0.79151 0.17546 0.0
H1469 H 0.42367 0.69302 0.40511 0.0
H1470 H 0.37013 0.64858 0.39509 0.0
H1471 H 0.39081 0.62777 0.35265 0.0
H1472 H 0.43915 0.6933 0.31719 0.0
H1473 H 0.46755 0.69467 0.32633 0.0
H1474 H 0.44841 0.70604 0.35563 0.0
H1475 H 0.46413 0.68261 0.40413 0.0
H1476 H 0.48333 0.67119 0.37499 0.0
H1477 H 0.46562 0.65387 0.39881 0.0
H1478 H 0.41773 0.61167 0.31149 0.0
H1479 H 0.44876 0.60148 0.27551 0.0
H1480 H 0.48421 0.65674 0.31309 0.0
C1481 C 0.41623 0.67893 0.39402 0.0
C1482 C 0.39527 0.67243 0.40341 0.0
C1483 C 0.38617 0.65387 0.38827 0.0
C1484 C 0.39778 0.64196 0.36413 0.0
C1485 C 0.41842 0.64884 0.35546 0.0
C1486 C 0.42755 0.6669 0.36998 0.0
C1487 C 0.45003 0.67085 0.3566 0.0
C1488 C 0.45135 0.6925 0.33782 0.0
C1489 C 0.46676 0.66954 0.38535 0.0
C1490 C 0.45219 0.65216 0.33231 0.0
C1491 C 0.43381 0.63965 0.33191 0.0
C1492 C 0.43219 0.62138 0.31156 0.0
C1493 C 0.44989 0.61573 0.29121 0.0
C1494 C 0.46891 0.62831 0.29144 0.0
C1495 C 0.46991 0.64679 0.31223 0.0
H1496 H 0.4494 0.14498 0.1031 0.0
H1497 H 0.39027 0.12541 0.15318 0.0
H1498 H 0.37035 0.1533 0.12163 0.0
H1499 H 0.44072 0.19904 0.10892 0.0
H1500 H 0.45217 0.20612 0.06834 0.0
H1501 H 0.46111 0.18227 0.0899 0.0
H1502 H 0.45146 0.15922 0.03723 0.0
H1503 H 0.44264 0.18309 0.0153 0.0
H1504 H 0.42465 0.16053 0.01981 0.0
H1505 H 0.35803 0.18642 0.09149 0.0
H1506 H 0.35403 0.22178 0.06374 0.0
H1507 H 0.42118 0.21968 0.03323 0.0
C1508 C 0.43215 0.14609 0.10667 0.0
C1509 C 0.42137 0.13295 0.13048 0.0
C1510 C 0.39885 0.13524 0.13494 0.0
C1511 C 0.38738 0.151 0.11708 0.0
C1512 C 0.39864 0.16421 0.09467 0.0
C1513 C 0.4205 0.16178 0.08915 0.0
C1514 C 0.4292 0.17935 0.06636 0.0
C1515 C 0.44683 0.19246 0.08448 0.0
C1516 C 0.43747 0.16998 0.03267 0.0
C1517 C 0.40901 0.19252 0.06104 0.0
C1518 C 0.3915 0.18338 0.0772 0.0
C1519 C 0.37151 0.19352 0.07817 0.0
C1520 C 0.36943 0.21365 0.06248 0.0
C1521 C 0.38727 0.22341 0.04618 0.0
C1522 C 0.40717 0.21248 0.04502 0.0
H1523 H 0.53972 0.66655 0.76204 0.0
H1524 H 0.54386 0.60143 0.80096 0.0
H1525 H 0.57697 0.61108 0.83212 0.0
H1526 H 0.59944 0.67756 0.75743 0.0
H1527 H 0.59554 0.7049 0.77132 0.0
H1528 H 0.5751 0.6917 0.74636 0.0
H1529 H 0.54685 0.70007 0.793 0.0
H1530 H 0.56712 0.71312 0.81812 0.0
H1531 H 0.55173 0.69128 0.83596 0.0
H1532 H 0.6057 0.62916 0.86618 0.0
H1533 H 0.62721 0.6542 0.90093 0.0
H1534 H 0.60397 0.70764 0.84027 0.0
C1535 C 0.548 0.65409 0.77612 0.0
C1536 C 0.53931 0.6332 0.77887 0.0
C1537 C 0.55032 0.61751 0.79831 0.0
C1538 C 0.56919 0.62283 0.81599 0.0
C1539 C 0.57689 0.64384 0.81378 0.0
C1540 C 0.56671 0.65919 0.7941 0.0
C1541 C 0.57648 0.68122 0.79939 0.0
C1542 C 0.58729 0.68932 0.76668 0.0
C1543 C 0.55954 0.69735 0.81241 0.0
C1544 C 0.59302 0.67609 0.82638 0.0
C1545 C 0.59335 0.65437 0.83381 0.0
C1546 C 0.60592 0.64612 0.86009 0.0
C1547 C 0.61805 0.66049 0.87976 0.0
C1548 C 0.61733 0.68289 0.87327 0.0
C1549 C 0.60511 0.6906 0.84559 0.0
H1550 H 0.08665 0.83338 0.6441 0.0
H1551 H 0.13069 0.87507 0.58925 0.0
H1552 H 0.14068 0.84461 0.55192 0.0
H1553 H 0.1196 0.78633 0.64233 0.0
H1554 H 0.09712 0.7683 0.63718 0.0
H1555 H 0.09353 0.79346 0.65907 0.0
H1556 H 0.06278 0.80366 0.61755 0.0
H1557 H 0.06628 0.77855 0.59551 0.0
H1558 H 0.06785 0.80353 0.57245 0.0
H1559 H 0.14568 0.80909 0.52065 0.0
H1560 H 0.14544 0.77181 0.49865 0.0
H1561 H 0.09802 0.75434 0.5749 0.0
C1562 C 0.09839 0.83621 0.62424 0.0
C1563 C 0.10787 0.85663 0.61955 0.0
C1564 C 0.12321 0.85955 0.59329 0.0
C1565 C 0.12897 0.84236 0.57197 0.0
C1566 C 0.11924 0.82244 0.57735 0.0
C1567 C 0.1043 0.81934 0.6029 0.0
C1568 C 0.09621 0.79645 0.60374 0.0
C1569 C 0.10197 0.78549 0.63758 0.0
C1570 C 0.07184 0.7955 0.59689 0.0
C1571 C 0.10891 0.78706 0.57459 0.0
C1572 C 0.12212 0.80222 0.55961 0.0
C1573 C 0.13538 0.7971 0.53219 0.0
C1574 C 0.13513 0.77591 0.51987 0.0
C1575 C 0.1217 0.76017 0.53502 0.0
C1576 C 0.10846 0.76596 0.56269 0.0
H1577 H 0.92222 0.30104 0.36832 0.0
H1578 H 0.8988 0.35734 0.42196 0.0
H1579 H 0.92808 0.37898 0.39681 0.0
H1580 H 0.97561 0.30992 0.38269 0.0
H1581 H 0.9851 0.30049 0.34207 0.0
H1582 H 0.96026 0.29036 0.35914 0.0
H1583 H 0.93998 0.30223 0.30475 0.0
H1584 H 0.96488 0.31221 0.28724 0.0
H1585 H 0.94187 0.32974 0.29065 0.0
H1586 H 0.96281 0.39312 0.37236 0.0
H1587 H -0.00056 0.39871 0.34924 0.0
H1588 H -0.00018 0.333 0.31211 0.0
C1589 C 0.92282 0.31806 0.374 0.0
C1590 C 0.90818 0.3275 0.39702 0.0
C1591 C 0.90978 0.34976 0.40425 0.0
C1592 C 0.92634 0.3622 0.39005 0.0
C1593 C 0.94103 0.35218 0.36846 0.0
C1594 C 0.93925 0.33065 0.36016 0.0
C1595 C 0.95815 0.3232 0.33899 0.0
C1596 C 0.9705 0.30492 0.35681 0.0
C1597 C 0.95077 0.31645 0.30328 0.0
C1598 C 0.97127 0.34365 0.33781 0.0
C1599 C 0.96104 0.36029 0.35452 0.0
C1600 C 0.97081 0.38031 0.35868 0.0
C1601 C 0.99163 0.38331 0.34559 0.0
C1602 C 0.00246 0.36632 0.3288 0.0
C1603 C 0.99193 0.34639 0.32455 0.0
H1604 H 0.41799 0.81916 0.34974 0.0
H1605 H 0.41574 0.86909 0.42668 0.0
H1606 H 0.39077 0.8468 0.46072 0.0
H1607 H 0.36161 0.8018 0.35774 0.0
H1608 H 0.36841 0.77395 0.35115 0.0
H1609 H 0.38437 0.79475 0.33159 0.0
H1610 H 0.41875 0.77916 0.3597 0.0
H1611 H 0.40294 0.75835 0.37926 0.0
H1612 H 0.41947 0.77562 0.40514 0.0
H1613 H 0.36891 0.8174 0.48872 0.0
H1614 H 0.35218 0.78349 0.50822 0.0
H1615 H 0.3684 0.75361 0.41192 0.0
C1616 C 0.41206 0.82558 0.37353 0.0
C1617 C 0.41883 0.84586 0.38558 0.0
C1618 C 0.41073 0.85361 0.41692 0.0
C1619 C 0.3965 0.84109 0.43637 0.0
C1620 C 0.39039 0.82101 0.42391 0.0
C1621 C 0.39783 0.81339 0.39309 0.0
C1622 C 0.38992 0.79084 0.38618 0.0
C1623 C 0.3752 0.79032 0.35481 0.0
C1624 C 0.40889 0.77507 0.38237 0.0
C1625 C 0.37735 0.78666 0.41839 0.0
C1626 C 0.37761 0.80429 0.43975 0.0
C1627 C 0.36831 0.80362 0.47198 0.0
C1628 C 0.35887 0.78429 0.48285 0.0
C1629 C 0.35885 0.76595 0.46153 0.0
C1630 C 0.36782 0.76741 0.42865 0.0
H1631 H 0.00128 0.61184 0.11302 0.0
H1632 H 0.98626 0.56857 0.19618 0.0
H1633 H 0.94748 0.57151 0.18244 0.0
H1634 H 0.95899 0.64704 0.12532 0.0
H1635 H 0.95413 0.65192 0.08086 0.0
H1636 H 0.98058 0.64434 0.09497 0.0
H1637 H 0.98045 0.61209 0.0532 0.0
H1638 H 0.95395 0.61962 0.03887 0.0
H1639 H 0.95873 0.59288 0.05481 0.0
H1640 H 0.90995 0.58279 0.16322 0.0
H1641 H 0.87759 0.6006 0.13943 0.0
H1642 H 0.91827 0.63524 0.06831 0.0
C1643 C 0.9899 0.60268 0.12804 0.0
C1644 C 0.99675 0.59001 0.15567 0.0
C1645 C 0.98134 0.57831 0.17475 0.0
C1646 C 0.95929 0.57987 0.16713 0.0
C1647 C 0.95304 0.59292 0.14007 0.0
C1648 C 0.96798 0.60391 0.12062 0.0
C1649 C 0.95726 0.61781 0.09416 0.0
C1650 C 0.96308 0.64168 0.09915 0.0
C1651 C 0.96293 0.61013 0.05813 0.0
C1652 C 0.93391 0.61353 0.10243 0.0
C1653 C 0.93168 0.59903 0.12876 0.0
C1654 C 0.91151 0.59388 0.14219 0.0
C1655 C 0.89323 0.60408 0.12857 0.0
C1656 C 0.89536 0.61925 0.10195 0.0
C1657 C 0.91598 0.62359 0.08844 0.0
H1658 H 0.09632 0.25962 0.9001 0.0
H1659 H 0.14251 0.2233 0.95968 0.0
H1660 H 0.1281 0.18945 0.93555 0.0
H1661 H 0.0526 0.22335 0.91055 0.0
H1662 H 0.0423 0.22744 0.86825 0.0
H1663 H 0.05691 0.24863 0.88918 0.0
H1664 H 0.08369 0.25048 0.83869 0.0
H1665 H 0.06909 0.22939 0.8175 0.0
H1666 H 0.09752 0.22644 0.82537 0.0
H1667 H 0.1082 0.15952 0.90438 0.0
H1668 H 0.08435 0.13633 0.86977 0.0
H1669 H 0.05089 0.193 0.83303 0.0
C1670 C 0.10359 0.24459 0.90792 0.0
C1671 C 0.12062 0.24408 0.93163 0.0
C1672 C 0.12946 0.22404 0.94147 0.0
C1673 C 0.1214 0.20476 0.92792 0.0
C1674 C 0.10443 0.20587 0.90479 0.0
C1675 C 0.09564 0.22531 0.89498 0.0
C1676 C 0.07717 0.22229 0.87049 0.0
C1677 C 0.056 0.23094 0.88553 0.0
C1678 C 0.08218 0.23277 0.83597 0.0
C1679 C 0.0769 0.19808 0.86794 0.0
C1680 C 0.09277 0.18883 0.88772 0.0
C1681 C 0.09569 0.16661 0.88889 0.0
C1682 C 0.08208 0.15358 0.86918 0.0
C1683 C 0.0657 0.16286 0.84887 0.0
C1684 C 0.06313 0.18538 0.84849 0.0
H1685 H 0.55937 0.30669 0.55954 0.0
H1686 H 0.61181 0.34611 0.59747 0.0
H1687 H 0.58595 0.3668 0.63229 0.0
H1688 H 0.52046 0.3487 0.55305 0.0
H1689 H 0.49827 0.33201 0.56634 0.0
H1690 H 0.521 0.32018 0.54497 0.0
H1691 H 0.52632 0.29376 0.59523 0.0
H1692 H 0.50359 0.3055 0.61674 0.0
H1693 H 0.52937 0.30424 0.63765 0.0
H1694 H 0.55404 0.38348 0.66236 0.0
H1695 H 0.51874 0.39459 0.68554 0.0
H1696 H 0.48769 0.34394 0.62757 0.0
C1697 C 0.56548 0.31964 0.57521 0.0
C1698 C 0.58761 0.3248 0.5758 0.0
C1699 C 0.59491 0.34187 0.59665 0.0
C1700 C 0.58035 0.35371 0.6165 0.0
C1701 C 0.55861 0.34823 0.61521 0.0
C1702 C 0.55123 0.33157 0.59513 0.0
C1703 C 0.5271 0.32894 0.59803 0.0
C1704 C 0.51607 0.33269 0.56355 0.0
C1705 C 0.52126 0.3068 0.6128 0.0
C1706 C 0.52201 0.34679 0.6228 0.0
C1707 C 0.54036 0.35774 0.63247 0.0
C1708 C 0.53956 0.37499 0.65502 0.0
C1709 C 0.51945 0.38119 0.66802 0.0
C1710 C 0.50046 0.37013 0.65839 0.0
C1711 C 0.50189 0.35272 0.6355 0.0
H1712 H 0.05881 0.45326 0.2252 0.0
H1713 H 0.09831 0.45247 0.31614 0.0
H1714 H 0.11052 0.48949 0.30348 0.0
H1715 H 0.0956 0.48429 0.17239 0.0
H1716 H 0.07405 0.4987 0.15186 0.0
H1717 H 0.06966 0.47172 0.16702 0.0
H1718 H 0.03723 0.4849 0.203 0.0
H1719 H 0.04143 0.51183 0.18778 0.0
H1720 H 0.04102 0.50657 0.2328 0.0
H1721 H 0.11661 0.5275 0.28226 0.0
H1722 H 0.11481 0.56351 0.25574 0.0
H1723 H 0.07157 0.53837 0.17877 0.0
C1724 C 0.07016 0.46075 0.24239 0.0
C1725 C 0.07762 0.45 0.27164 0.0
C1726 C 0.09239 0.46044 0.29354 0.0
C1727 C 0.09949 0.48141 0.28649 0.0
C1728 C 0.09175 0.49155 0.25738 0.0
C1729 C 0.0774 0.48153 0.23573 0.0
C1730 C 0.07061 0.49616 0.20706 0.0
C1731 C 0.07793 0.48718 0.17254 0.0
C1732 C 0.04613 0.5001 0.20773 0.0
C1733 C 0.08299 0.5162 0.21633 0.0
C1734 C 0.09529 0.51323 0.24519 0.0
C1735 C 0.10722 0.52994 0.25944 0.0
C1736 C 0.10614 0.55031 0.24417 0.0
C1737 C 0.09309 0.55373 0.21515 0.0
C1738 C 0.08182 0.53627 0.20077 0.0
H1739 H 0.78255 0.81256 0.62275 0.0
H1740 H 0.79818 0.85832 0.54318 0.0
H1741 H 0.76433 0.84916 0.51373 0.0
H1742 H 0.7641 0.77298 0.5705 0.0
H1743 H 0.74264 0.76371 0.59764 0.0
H1744 H 0.7659 0.77646 0.61587 0.0
H1745 H 0.74169 0.80476 0.64544 0.0
H1746 H 0.71822 0.79181 0.62794 0.0
H1747 H 0.72275 0.82005 0.62055 0.0
H1748 H 0.73176 0.83117 0.48886 0.0
H1749 H 0.70102 0.80806 0.47304 0.0
H1750 H 0.70706 0.77395 0.5688 0.0
C1751 C 0.77854 0.82124 0.59977 0.0
C1752 C 0.793 0.8362 0.58533 0.0
C1753 C 0.7873 0.84687 0.55483 0.0
C1754 C 0.76813 0.84174 0.53786 0.0
C1755 C 0.75479 0.82607 0.5519 0.0
C1756 C 0.75956 0.81624 0.58248 0.0
C1757 C 0.74354 0.79867 0.59074 0.0
C1758 C 0.75472 0.77666 0.59385 0.0
C1759 C 0.73079 0.80416 0.62308 0.0
C1760 C 0.72938 0.7997 0.55955 0.0
C1761 C 0.73604 0.81568 0.53754 0.0
C1762 C 0.72617 0.81885 0.50616 0.0
C1763 C 0.70884 0.80553 0.4973 0.0
C1764 C 0.70161 0.78923 0.51972 0.0
C1765 C 0.71209 0.78635 0.55121 0.0
H1766 H 0.44499 0.43692 0.77429 0.0
H1767 H 0.4236 0.44378 0.66981 0.0
H1768 H 0.42803 0.48306 0.67406 0.0
H1769 H 0.42006 0.48641 0.80679 0.0
H1770 H 0.44236 0.49221 0.83461 0.0
H1771 H 0.43582 0.46475 0.82431 0.0
H1772 H 0.47485 0.45872 0.803 0.0
H1773 H 0.48147 0.48617 0.81299 0.0
H1774 H 0.48568 0.47611 0.77057 0.0
H1775 H 0.43716 0.5209 0.68793 0.0
H1776 H 0.44952 0.5555 0.71106 0.0
H1777 H 0.465 0.5244 0.80681 0.0
C1778 C 0.44088 0.44671 0.75248 0.0
C1779 C 0.4339 0.4373 0.72173 0.0
C1780 C 0.42896 0.45064 0.69363 0.0
C1781 C 0.43139 0.47296 0.6958 0.0
C1782 C 0.43871 0.48168 0.72625 0.0
C1783 C 0.44328 0.46903 0.75417 0.0
C1784 C 0.45186 0.4824 0.78334 0.0
C1785 C 0.43661 0.48138 0.81408 0.0
C1786 C 0.47482 0.47543 0.79303 0.0
C1787 C 0.45174 0.5045 0.76721 0.0
C1788 C 0.444 0.50368 0.73433 0.0
C1789 C 0.44307 0.52182 0.71374 0.0
C1790 C 0.45022 0.54138 0.72712 0.0
C1791 C 0.45821 0.54267 0.76079 0.0
C1792 C 0.45885 0.52396 0.78109 0.0
H1793 H 0.78755 0.2169 0.02226 0.0
H1794 H 0.78741 0.1844 0.92465 0.0
H1795 H 0.74925 0.1745 0.93325 0.0
H1796 H 0.75283 0.17884 0.06615 0.0
H1797 H 0.73944 0.19949 0.09034 0.0
H1798 H 0.76697 0.20318 0.07712 0.0
H1799 H 0.75663 0.23896 0.04754 0.0
H1800 H 0.72912 0.23543 0.06077 0.0
H1801 H 0.73534 0.23907 0.01642 0.0
H1802 H 0.71068 0.17006 0.95104 0.0
H1803 H 0.6744 0.17142 0.97663 0.0
H1804 H 0.70025 0.20606 0.06321 0.0
C1805 C 0.77955 0.20762 0.00271 0.0
C1806 C 0.79041 0.20146 0.97274 0.0
C1807 C 0.77938 0.18929 0.94782 0.0
C1808 C 0.75774 0.18355 0.95251 0.0
C1809 C 0.74751 0.18995 0.98235 0.0
C1810 C 0.75807 0.20166 0.00706 0.0
C1811 C 0.74328 0.20709 0.03638 0.0
C1812 C 0.7511 0.19651 0.06945 0.0
C1813 C 0.74095 0.23159 0.04049 0.0
C1814 C 0.7226 0.19697 0.024 0.0
C1815 C 0.72539 0.18707 0.99287 0.0
C1816 C 0.70833 0.17755 0.97557 0.0
C1817 C 0.6878 0.17844 0.99028 0.0
C1818 C 0.68456 0.18874 0.02198 0.0
C1819 C 0.70229 0.1978 0.03921 0.0
H1820 H 0.95247 0.46197 0.7245 0.0
H1821 H 0.88706 0.45066 0.75915 0.0
H1822 H 0.87682 0.48717 0.74025 0.0
H1823 H 0.95627 0.51584 0.75027 0.0
H1824 H 0.97178 0.52438 0.71398 0.0
H1825 H 0.97344 0.497 0.72841 0.0
H1826 H 0.96264 0.48364 0.6684 0.0
H1827 H 0.96087 0.51104 0.6538 0.0
H1828 H 0.9381 0.49329 0.6493 0.0
H1829 H 0.87468 0.52593 0.72206 0.0
H1830 H 0.88062 0.56369 0.70477 0.0
H1831 H 0.94699 0.54865 0.67973 0.0
C1832 C 0.93594 0.4671 0.72795 0.0
C1833 C 0.92056 0.45355 0.74339 0.0
C1834 C 0.89909 0.46081 0.74732 0.0
C1835 C 0.89312 0.48148 0.73663 0.0
C1836 C 0.90875 0.49448 0.72166 0.0
C1837 C 0.92968 0.4875 0.71709 0.0
C1838 C 0.94359 0.50475 0.70127 0.0
C1839 C 0.96237 0.51085 0.7249 0.0
C1840 C 0.95178 0.49776 0.6661 0.0
C1841 C 0.92737 0.52276 0.69843 0.0
C1842 C 0.90734 0.51653 0.71021 0.0
C1843 C 0.89019 0.53091 0.71227 0.0
C1844 C 0.89372 0.55229 0.70247 0.0
C1845 C 0.91419 0.55898 0.69061 0.0
C1846 C 0.93105 0.54389 0.68803 0.0
H1847 H 0.27507 0.19397 0.43148 0.0
H1848 H 0.27646 0.15626 0.52426 0.0
H1849 H 0.24017 0.14228 0.51133 0.0
H1850 H 0.22214 0.21042 0.43863 0.0
H1851 H 0.21624 0.20937 0.39384 0.0
H1852 H 0.24339 0.21388 0.40788 0.0
H1853 H 0.25623 0.18104 0.37272 0.0
H1854 H 0.22901 0.17637 0.35867 0.0
H1855 H 0.24382 0.15519 0.37943 0.0
H1856 H 0.20255 0.13558 0.49174 0.0
H1857 H 0.16576 0.13804 0.46854 0.0
H1858 H 0.18897 0.18008 0.38846 0.0
C1859 C 0.26794 0.18244 0.44876 0.0
C1860 C 0.2786 0.17613 0.47881 0.0
C1861 C 0.26858 0.16129 0.50105 0.0
C1862 C 0.24804 0.15315 0.49381 0.0
C1863 C 0.23785 0.15993 0.46417 0.0
C1864 C 0.24746 0.17423 0.44198 0.0
C1865 C 0.23232 0.18057 0.41361 0.0
C1866 C 0.22828 0.205 0.41352 0.0
C1867 C 0.24086 0.17282 0.37906 0.0
C1868 C 0.21239 0.16822 0.424 0.0
C1869 C 0.21603 0.15611 0.45288 0.0
C1870 C 0.19958 0.14471 0.46882 0.0
C1871 C 0.17874 0.14623 0.45546 0.0
C1872 C 0.17453 0.15919 0.42661 0.0
C1873 C 0.19174 0.16976 0.41018 0.0
H1874 H 0.54197 0.55579 0.23725 0.0
H1875 H 0.5191 0.57511 0.13757 0.0
H1876 H 0.52397 0.53796 0.11694 0.0
H1877 H 0.58254 0.51861 0.20807 0.0
H1878 H 0.57778 0.49966 0.2419 0.0
H1879 H 0.57287 0.52787 0.2487 0.0
H1880 H 0.5336 0.5195 0.26676 0.0
H1881 H 0.53843 0.49127 0.26022 0.0
H1882 H 0.51648 0.50437 0.23856 0.0
H1883 H 0.53077 0.49865 0.10747 0.0
H1884 H 0.53785 0.45966 0.11036 0.0
H1885 H 0.5564 0.46625 0.2162 0.0
C1886 C 0.538 0.55225 0.21106 0.0
C1887 C 0.53017 0.56835 0.18901 0.0
C1888 C 0.52511 0.56302 0.15495 0.0
C1889 C 0.52788 0.54199 0.14295 0.0
C1890 C 0.53574 0.52653 0.16533 0.0
C1891 C 0.54067 0.53138 0.19868 0.0
C1892 C 0.54843 0.51173 0.21773 0.0
C1893 C 0.57179 0.51465 0.2298 0.0
C1894 C 0.53333 0.50641 0.24757 0.0
C1895 C 0.54691 0.49502 0.18994 0.0
C1896 C 0.53967 0.5039 0.15987 0.0
C1897 C 0.53652 0.49152 0.13084 0.0
C1898 C 0.5406 0.46939 0.13274 0.0
C1899 C 0.5477 0.45992 0.16349 0.0
C1900 C 0.55112 0.47302 0.19227 0.0
H1901 H 0.21814 0.81124 0.03356 0.0
H1902 H 0.21097 0.77973 0.13136 0.0
H1903 H 0.24941 0.76945 0.12983 0.0
H1904 H 0.25168 0.77233 0.99682 0.0
H1905 H 0.26799 0.79124 0.97352 0.0
H1906 H 0.24049 0.79774 0.98364 0.0
H1907 H 0.25289 0.83274 0.01351 0.0
H1908 H 0.28045 0.82647 0.00318 0.0
H1909 H 0.27282 0.83132 0.0467 0.0
H1910 H 0.28804 0.76079 0.11584 0.0
H1911 H 0.32423 0.75529 0.09132 0.0
H1912 H 0.30556 0.79215 0.00239 0.0
C1913 C 0.22468 0.80249 0.05498 0.0
C1914 C 0.21157 0.79634 0.08266 0.0
C1915 C 0.22074 0.78467 0.10995 0.0
C1916 C 0.24254 0.77875 0.10929 0.0
C1917 C 0.25488 0.78467 0.08122 0.0
C1918 C 0.2463 0.79639 0.05467 0.0
C1919 C 0.26269 0.79997 0.02679 0.0
C1920 C 0.25526 0.7897 0.99322 0.0
C1921 C 0.2675 0.82406 0.0223 0.0
C1922 C 0.28178 0.78818 0.04159 0.0
C1923 C 0.27701 0.77954 0.07305 0.0
C1924 C 0.29201 0.76759 0.09132 0.0
C1925 C 0.31249 0.7645 0.07712 0.0
C1926 C 0.31772 0.77328 0.04493 0.0
C1927 C 0.30208 0.78524 0.02704 0.0
H1928 H 0.54248 0.95675 0.80492 0.0
H1929 H 0.54253 0.93127 0.70223 0.0
H1930 H 0.54413 0.96816 0.67937 0.0
H1931 H 0.50843 0.00148 0.7876 0.0
H1932 H 0.52233 0.01946 0.816 0.0
H1933 H 0.52226 0.991 0.82429 0.0
H1934 H 0.56401 0.99096 0.82538 0.0
H1935 H 0.5642 0.01943 0.81705 0.0
H1936 H 0.57869 0.00139 0.78946 0.0
H1937 H 0.5451 0.00782 0.66763 0.0
H1938 H 0.54397 0.04752 0.66797 0.0
H1939 H 0.5426 0.04689 0.77827 0.0
C1940 C 0.54299 0.95891 0.77763 0.0
C1941 C 0.54245 0.94114 0.75537 0.0
C1942 C 0.54291 0.94466 0.7198 0.0
C1943 C 0.54389 0.96554 0.70655 0.0
C1944 C 0.54432 0.98271 0.7292 0.0
C1945 C 0.54381 0.97964 0.76397 0.0
C1946 C 0.54363 0.00085 0.78274 0.0
C1947 C 0.52293 0.00334 0.80389 0.0
C1948 C 0.56384 0.0033 0.80496 0.0
C1949 C 0.54399 0.01631 0.75308 0.0
C1950 C 0.54455 0.00555 0.72242 0.0
C1951 C 0.54471 0.01644 0.69149 0.0
C1952 C 0.54408 0.03898 0.69194 0.0
C1953 C 0.54318 0.0503 0.72313 0.0
C1954 C 0.54329 0.03872 0.754 0.0
H1955 H 0.29671 0.27244 0.95496 0.0
H1956 H 0.30453 0.32109 0.03309 0.0
H1957 H 0.26698 0.33282 0.02404 0.0
H1958 H 0.26253 0.30388 0.89886 0.0
H1959 H 0.24617 0.28114 0.8871 0.0
H1960 H 0.274 0.27726 0.89852 0.0
H1961 H 0.26267 0.24984 0.94481 0.0
H1962 H 0.23486 0.25354 0.93341 0.0
H1963 H 0.24337 0.25771 0.97668 0.0
H1964 H 0.22834 0.33826 0.00813 0.0
H1965 H 0.19079 0.33616 0.9881 0.0
H1966 H 0.20833 0.28397 0.92023 0.0
C1967 C 0.2906 0.28565 0.97005 0.0
C1968 C 0.30355 0.29588 0.9947 0.0
C1969 C 0.29489 0.31301 0.01406 0.0
C1970 C 0.27362 0.31985 0.00901 0.0
C1971 C 0.26131 0.30941 0.98448 0.0
C1972 C 0.26945 0.29265 0.96538 0.0
C1973 C 0.25259 0.28356 0.94163 0.0
C1974 C 0.25923 0.28665 0.90431 0.0
C1975 C 0.24811 0.25976 0.94963 0.0
C1976 C 0.23358 0.29761 0.95076 0.0
C1977 C 0.239 0.31254 0.97532 0.0
C1978 C 0.22393 0.32675 0.98874 0.0
C1979 C 0.20264 0.32541 0.97719 0.0
C1980 C 0.19664 0.30993 0.95255 0.0
C1981 C 0.21245 0.29612 0.93882 0.0
H1982 H 0.93184 0.02859 0.32033 0.0
H1983 H 0.88262 0.04011 0.24419 0.0
H1984 H 0.88547 0.00231 0.22551 0.0
H1985 H 0.96485 0.99619 0.2698 0.0
H1986 H 0.97266 0.97822 0.30354 0.0
H1987 H 0.96533 0.00553 0.31314 0.0
H1988 H 0.9362 0.99216 0.35535 0.0
H1989 H 0.94363 0.96477 0.34622 0.0
H1990 H 0.91609 0.97331 0.34108 0.0
H1991 H 0.89557 0.96388 0.21264 0.0
H1992 H 0.91098 0.92733 0.20842 0.0
H1993 H 0.95382 0.94167 0.29256 0.0
C1994 C 0.92135 0.02311 0.30016 0.0
C1995 C 0.90697 0.03728 0.28378 0.0
C1996 C 0.89372 0.0295 0.25719 0.0
C1997 C 0.89523 0.00808 0.24636 0.0
C1998 C 0.91003 0.99469 0.26246 0.0
C1999 C 0.92271 0.00186 0.28898 0.0
C2000 C 0.93799 0.98457 0.30108 0.0
C2001 C 0.9616 0.99155 0.2966 0.0
C2002 C 0.93318 0.97833 0.33813 0.0
C2003 C 0.93216 0.96664 0.2769 0.0
C2004 C 0.91594 0.97271 0.25489 0.0
C2005 C 0.90817 0.95889 0.22989 0.0
C2006 C 0.91708 0.93821 0.2276 0.0
C2007 C 0.93361 0.93166 0.25013 0.0
C2008 C 0.94123 0.94617 0.27493 0.0
H2009 H 0.27934 0.71033 0.55097 0.0
H2010 H 0.28605 0.66485 0.46802 0.0
H2011 H 0.24765 0.65519 0.47365 0.0
H2012 H 0.24 0.67925 0.60122 0.0
H2013 H 0.22531 0.70298 0.61361 0.0
H2014 H 0.25385 0.70456 0.60564 0.0
H2015 H 0.24733 0.73473 0.56139 0.0
H2016 H 0.21884 0.73328 0.56928 0.0
H2017 H 0.229 0.73001 0.52669 0.0
H2018 H 0.20813 0.65257 0.4852 0.0
H2019 H 0.16996 0.65837 0.49997 0.0
H2020 H 0.18897 0.70585 0.57504 0.0
C2021 C 0.27284 0.69807 0.53438 0.0
C2022 C 0.28569 0.68826 0.50916 0.0
C2023 C 0.27649 0.67256 0.48755 0.0
C2024 C 0.25473 0.66688 0.49067 0.0
C2025 C 0.24244 0.67703 0.51555 0.0
C2026 C 0.25114 0.69231 0.53701 0.0
C2027 C 0.23408 0.70206 0.55977 0.0
C2028 C 0.23858 0.6969 0.59729 0.0
C2029 C 0.23221 0.72646 0.55391 0.0
C2030 C 0.21432 0.69027 0.54714 0.0
C2031 C 0.21954 0.67568 0.52198 0.0
C2032 C 0.20386 0.66376 0.50513 0.0
C2033 C 0.18222 0.66719 0.51369 0.0
C2034 C 0.17647 0.68253 0.53871 0.0
C2035 C 0.19283 0.69384 0.55609 0.0
H2036 H 0.46728 0.0263 0.28153 0.0
H2037 H 0.40962 0.033 0.22009 0.0
H2038 H 0.40121 0.99465 0.22945 0.0
H2039 H 0.48203 0.975 0.25088 0.0
H2040 H 0.492 0.96547 0.29116 0.0
H2041 H 0.4926 0.99375 0.28155 0.0
H2042 H 0.4708 0.00173 0.3363 0.0
H2043 H 0.47008 0.97344 0.34605 0.0
H2044 H 0.44534 0.98846 0.34304 0.0
H2045 H 0.39985 0.95533 0.24377 0.0
H2046 H 0.40643 0.91756 0.25998 0.0
H2047 H 0.46527 0.93674 0.3113 0.0
C2048 C 0.45277 0.01978 0.27031 0.0
C2049 C 0.43906 0.03263 0.25019 0.0
C2050 C 0.42036 0.02343 0.23561 0.0
C2051 C 0.41539 0.0017 0.24089 0.0
C2052 C 0.42932 0.98945 0.26075 0.0
C2053 C 0.44765 -0.00186 0.27514 0.0
C2054 C 0.46051 0.9813 0.29399 0.0
C2055 C 0.48312 0.97873 0.27845 0.0
C2056 C 0.46175 0.98655 0.33211 0.0
C2057 C 0.44671 0.9617 0.28755 0.0
C2058 C 0.42868 0.96677 0.26863 0.0
C2059 C 0.41385 0.95118 0.25875 0.0
C2060 C 0.41773 0.92978 0.2681 0.0
C2061 C 0.43636 0.92421 0.28689 0.0
C2062 C 0.45084 0.94048 0.29703 0.0
H2063 H 0.79332 0.66425 0.02379 0.0
H2064 H 0.79177 0.67461 0.13282 0.0
H2065 H 0.75296 0.68307 0.12928 0.0
H2066 H 0.76105 0.70725 0.0024 0.0
H2067 H 0.74732 0.69414 0.9678 0.0
H2068 H 0.77406 0.68583 0.97937 0.0
H2069 H 0.76083 0.64665 0.98756 0.0
H2070 H 0.73404 0.65477 0.97555 0.0
H2071 H 0.73845 0.64133 0.01551 0.0
H2072 H 0.71542 0.69419 0.11286 0.0
H2073 H 0.6817 0.70581 0.08521 0.0
H2074 H 0.70831 0.68861 0.98687 0.0
C2075 C 0.78475 0.66775 0.0471 0.0
C2076 C 0.79557 0.66869 0.07862 0.0
C2077 C 0.78379 0.67369 0.10841 0.0
C2078 C 0.76175 0.67852 0.10665 0.0
C2079 C 0.75176 0.67817 0.07496 0.0
C2080 C 0.76284 0.6727 0.04577 0.0
C2081 C 0.74886 0.67503 0.01453 0.0
C2082 C 0.7584 0.69154 0.98958 0.0
C2083 C 0.74533 0.65314 -0.00272 0.0
C2084 C 0.72832 0.68324 0.03058 0.0
C2085 C 0.73023 0.68475 0.06548 0.0
C2086 C 0.71365 0.69283 0.0856 0.0
C2087 C 0.6946 0.69947 0.06963 0.0
C2088 C 0.69236 0.69811 0.03387 0.0
C2089 C 0.70947 0.68978 0.01426 0.0
H2090 H 0.06918 0.05076 0.77735 0.0
H2091 H 0.04605 0.06698 0.67647 0.0
H2092 H 0.06126 0.03325 0.65423 0.0
H2093 H 0.11943 0.02315 0.74945 0.0
H2094 H 0.11713 0.00303 0.78221 0.0
H2095 H 0.10702 0.02981 0.78949 0.0
H2096 H 0.0694 0.01423 0.80415 0.0
H2097 H 0.07945 0.9875 0.79722 0.0
H2098 H 0.05619 -0.00322 0.77411 0.0
H2099 H 0.07473 0.99618 0.64427 0.0
H2100 H 0.08431 0.95774 0.64806 0.0
H2101 H 0.09965 0.96588 0.75481 0.0
C2102 C 0.06764 0.04739 0.75048 0.0
C2103 C 0.05643 0.06149 0.72867 0.0
C2104 C 0.05455 0.0564 0.69371 0.0
C2105 C 0.06328 0.03736 0.68074 0.0
C2106 C 0.07404 0.02367 0.70297 0.0
C2107 C 0.07631 0.02845 0.73708 0.0
C2108 C 0.08687 0.01014 0.75609 0.0
C2109 C 0.10893 0.01695 0.77013 0.0
C2110 C 0.07209 0.00167 0.78455 0.0
C2111 C 0.08928 0.99397 0.72764 0.0
C2112 C 0.08213 0.00222 0.69707 0.0
C2113 C 0.08079 0.98963 0.66788 0.0
C2114 C 0.08623 0.96783 0.67026 0.0
C2115 C 0.09287 0.95891 0.70164 0.0
C2116 C 0.0951 0.97236 0.7303 0.0
H2117 H 0.70971 0.30913 0.50286 0.0
H2118 H 0.70387 0.34078 0.6007 0.0
H2119 H 0.74304 0.34823 0.6002 0.0
H2120 H 0.75877 0.28318 0.5189 0.0
H2121 H 0.76892 0.28644 0.47631 0.0
H2122 H 0.74036 0.28509 0.48363 0.0
H2123 H 0.73542 0.32171 0.45309 0.0
H2124 H 0.76401 0.32319 0.44573 0.0
H2125 H 0.75042 0.34478 0.46747 0.0
H2126 H 0.78345 0.35019 0.59001 0.0
H2127 H 0.82133 0.34597 0.57159 0.0
H2128 H 0.79961 0.31328 0.4804 0.0
C2129 C 0.71656 0.31779 0.52413 0.0
C2130 C 0.70374 0.32437 0.55184 0.0
C2131 C 0.7134 0.33561 0.57916 0.0
C2132 C 0.73561 0.33995 0.57906 0.0
C2133 C 0.7478 0.33307 0.55135 0.0
C2134 C 0.73855 0.32228 0.52438 0.0
C2135 C 0.75513 0.31576 0.49826 0.0
C2136 C 0.75583 0.29116 0.49406 0.0
C2137 C 0.751 0.32704 0.46412 0.0
C2138 C 0.77529 0.32415 0.51504 0.0
C2139 C 0.77081 0.33425 0.5455 0.0
C2140 C 0.78712 0.34248 0.56606 0.0
C2141 C 0.80857 0.34002 0.55538 0.0
C2142 C 0.81343 0.32932 0.52454 0.0
C2143 C 0.79647 0.32164 0.50402 0.0
loop_
_geom_bond_atom_site_label_1
_geom_bond_atom_site_label_2
_geom_bond_distance
_geom_bond_site_symmetry_2
_ccdc_geom_bond_type
C0 O1 1.160 . S
C0 O7 1.185 . S
O1 C0 1.160 . S
O2 Zn3 1.899 . S
O2 C10 1.284 . S
Zn3 O2 1.899 . S
Zn3 O4 2.032 . S
Zn3 O7 2.086 . S
Zn3 O12 1.977 . S
O4 Zn3 2.032 . S
O4 C8 1.278 . S
C5 O6 1.203 . S
C5 O12 1.267 . S
O6 C5 1.203 . S
O7 C0 1.185 . S
O7 Zn3 2.086 . S
C8 O4 1.278 . S
C8 O9 1.211 . S
O9 C8 1.211 . S
C10 O2 1.284 . S
C10 O11 1.273 . S
O11 C10 1.273 . S
O12 Zn3 1.977 . S
O12 C5 1.267 . S
C13 O14 1.160 . S
C13 O20 1.185 . S
O14 C13 1.160 . S
O15 Zn16 1.899 . S
O15 C23 1.284 . S
Zn16 O15 1.899 . S
Zn16 O17 2.032 . S
Zn16 O20 2.086 . S
Zn16 O25 1.977 . S
O17 Zn16 2.032 . S
O17 C21 1.278 . S
C18 O19 1.203 . S
C18 O25 1.267 . S
O19 C18 1.203 . S
O20 C13 1.185 . S
O20 Zn16 2.086 . S
C21 O17 1.278 . S
C21 O22 1.211 . S
O22 C21 1.211 . S
C23 O15 1.284 . S
C23 O24 1.273 . S
O24 C23 1.273 . S
O25 Zn16 1.977 . S
O25 C18 1.267 . S
C26 O27 1.160 . S
C26 O33 1.185 . S
O27 C26 1.160 . S
O28 Zn29 1.899 . S
O28 C36 1.284 . S
Zn29 O28 1.899 . S
Zn29 O30 2.032 . S
Zn29 O33 2.086 . S
Zn29 O38 1.977 . S
O30 Zn29 2.032 . S
O30 C34 1.278 . S
C31 O32 1.203 . S
C31 O38 1.267 . S
O32 C31 1.203 . S
O33 C26 1.185 . S
O33 Zn29 2.086 . S
C34 O30 1.278 . S
C34 O35 1.211 . S
O35 C34 1.211 . S
C36 O28 1.284 . S
C36 O37 1.273 . S
O37 C36 1.273 . S
O38 Zn29 1.977 . S
O38 C31 1.267 . S
C39 O40 1.160 . S
C39 O46 1.185 . S
O40 C39 1.160 . S
O41 Zn42 1.899 . S
O41 C49 1.284 . S
Zn42 O41 1.899 . S
Zn42 O43 2.032 1_554 S
Zn42 O46 2.086 . S
Zn42 O51 1.977 . S
O43 Zn42 2.032 1_556 S
O43 C47 1.278 . S
C44 O45 1.203 . S
C44 O51 1.267 . S
O45 C44 1.203 . S
O46 C39 1.185 . S
O46 Zn42 2.086 . S
C47 O43 1.278 . S
C47 O48 1.211 . S
O48 C47 1.211 . S
C49 O41 1.284 . S
C49 O50 1.273 . S
O50 C49 1.273 . S
O51 Zn42 1.977 . S
O51 C44 1.267 . S
C52 O53 1.160 . S
C52 O59 1.185 . S
O53 C52 1.160 . S
O54 Zn55 1.899 . S
O54 C62 1.284 . S
Zn55 O54 1.899 . S
Zn55 O56 2.032 . S
Zn55 O59 2.086 . S
Zn55 O64 1.977 . S
O56 Zn55 2.032 . S
O56 C60 1.278 . S
C57 O58 1.203 . S
C57 O64 1.267 . S
O58 C57 1.203 . S
O59 C52 1.185 . S
O59 Zn55 2.086 . S
C60 O56 1.278 . S
C60 O61 1.211 . S
O61 C60 1.211 . S
C62 O54 1.284 . S
C62 O63 1.273 . S
O63 C62 1.273 . S
O64 Zn55 1.977 . S
O64 C57 1.267 . S
C65 O66 1.160 . S
C65 O72 1.185 . S
O66 C65 1.160 . S
O67 Zn68 1.899 . S
O67 C75 1.284 . S
Zn68 O67 1.899 . S
Zn68 O69 2.032 . S
Zn68 O72 2.086 . S
Zn68 O77 1.977 . S
O69 Zn68 2.032 . S
O69 C73 1.278 . S
C70 O71 1.203 . S
C70 O77 1.267 . S
O71 C70 1.203 . S
O72 C65 1.185 . S
O72 Zn68 2.086 . S
C73 O69 1.278 . S
C73 O74 1.211 . S
O74 C73 1.211 . S
C75 O67 1.284 . S
C75 O76 1.273 . S
O76 C75 1.273 . S
O77 Zn68 1.977 . S
O77 C70 1.267 . S
C78 O79 1.160 . S
C78 O85 1.185 . S
O79 C78 1.160 . S
O80 Zn81 1.899 . S
O80 C88 1.284 . S
Zn81 O80 1.899 . S
Zn81 O82 2.032 . S
Zn81 O85 2.086 . S
Zn81 O90 1.977 . S
O82 Zn81 2.032 . S
O82 C86 1.278 . S
C83 O84 1.203 . S
C83 O90 1.267 . S
O84 C83 1.203 . S
O85 C78 1.185 . S
O85 Zn81 2.086 . S
C86 O82 1.278 . S
C86 O87 1.211 . S
O87 C86 1.211 . S
C88 O80 1.284 . S
C88 O89 1.273 . S
O89 C88 1.273 . S
O90 Zn81 1.977 . S
O90 C83 1.267 . S
C91 O92 1.160 . S
C91 O98 1.185 . S
O92 C91 1.160 . S
O93 Zn94 1.899 . S
O93 C101 1.284 . S
Zn94 O93 1.899 . S
Zn94 O95 2.032 1_556 S
Zn94 O98 2.086 . S
Zn94 O103 1.977 . S
O95 Zn94 2.032 1_554 S
O95 C99 1.278 . S
C96 O97 1.203 . S
C96 O103 1.267 . S
O97 C96 1.203 . S
O98 C91 1.185 . S
O98 Zn94 2.086 . S
C99 O95 1.278 . S
C99 O100 1.211 . S
O100 C99 1.211 . S
C101 O93 1.284 . S
C101 O102 1.273 . S
O102 C101 1.273 . S
O103 Zn94 1.977 . S
O103 C96 1.267 . S
C104 O105 1.160 . S
C104 O111 1.185 . S
O105 C104 1.160 . S
O106 Zn107 1.899 . S
O106 C114 1.284 . S
Zn107 O106 1.899 . S
Zn107 O108 2.032 . S
Zn107 O111 2.086 . S
Zn107 O116 1.977 . S
O108 Zn107 2.032 . S
O108 C112 1.278 . S
C109 O110 1.203 . S
C109 O116 1.267 . S
O110 C109 1.203 . S
O111 C104 1.185 . S
O111 Zn107 2.086 . S
C112 O108 1.278 . S
C112 O113 1.211 . S
O113 C112 1.211 . S
C114 O106 1.284 . S
C114 O115 1.273 . S
O115 C114 1.273 . S
O116 Zn107 1.977 . S
O116 C109 1.267 . S
C117 O118 1.160 . S
C117 O124 1.185 . S
O118 C117 1.160 . S
O119 Zn120 1.899 . S
O119 C127 1.284 . S
Zn120 O119 1.899 . S
Zn120 O121 2.032 . S
Zn120 O124 2.086 . S
Zn120 O129 1.977 . S
O121 Zn120 2.032 . S
O121 C125 1.278 . S
C122 O123 1.203 . S
C122 O129 1.267 . S
O123 C122 1.203 . S
O124 C117 1.185 . S
O124 Zn120 2.086 . S
C125 O121 1.278 . S
C125 O126 1.211 . S
O126 C125 1.211 . S
C127 O119 1.284 . S
C127 O128 1.273 . S
O128 C127 1.273 . S
O129 Zn120 1.977 . S
O129 C122 1.267 . S
C130 O131 1.160 . S
C130 O137 1.185 . S
O131 C130 1.160 . S
O132 Zn133 1.899 . S
O132 C140 1.284 . S
Zn133 O132 1.899 . S
Zn133 O134 2.032 . S
Zn133 O137 2.086 . S
Zn133 O142 1.977 . S
O134 Zn133 2.032 . S
O134 C138 1.278 . S
C135 O136 1.203 . S
C135 O142 1.267 . S
O136 C135 1.203 . S
O137 C130 1.185 . S
O137 Zn133 2.086 . S
C138 O134 1.278 . S
C138 O139 1.211 . S
O139 C138 1.211 . S
C140 O132 1.284 . S
C140 O141 1.273 . S
O141 C140 1.273 . S
O142 Zn133 1.977 . S
O142 C135 1.267 . S
C143 O144 1.160 . S
C143 O150 1.185 . S
O144 C143 1.160 . S
O145 Zn146 1.899 . S
O145 C153 1.284 . S
Zn146 O145 1.899 . S
Zn146 O147 2.032 1_556 S
Zn146 O150 2.086 . S
Zn146 O155 1.977 . S
O147 Zn146 2.032 1_554 S
O147 C151 1.278 . S
C148 O149 1.203 . S
C148 O155 1.267 . S
O149 C148 1.203 . S
O150 C143 1.185 . S
O150 Zn146 2.086 . S
C151 O147 1.278 . S
C151 O152 1.211 . S
O152 C151 1.211 . S
C153 O145 1.284 . S
C153 O154 1.273 . S
O154 C153 1.273 . S
O155 Zn146 1.977 . S
O155 C148 1.267 . S
C156 O157 1.160 . S
C156 O163 1.185 . S
O157 C156 1.160 . S
O158 Zn159 1.899 . S
O158 C166 1.284 . S
Zn159 O158 1.899 . S
Zn159 O160 2.032 . S
Zn159 O163 2.086 . S
Zn159 O168 1.977 . S
O160 Zn159 2.032 . S
O160 C164 1.278 . S
C161 O162 1.203 . S
C161 O168 1.267 . S
O162 C161 1.203 . S
O163 C156 1.185 . S
O163 Zn159 2.086 . S
C164 O160 1.278 . S
C164 O165 1.211 . S
O165 C164 1.211 . S
C166 O158 1.284 . S
C166 O167 1.273 . S
O167 C166 1.273 . S
O168 Zn159 1.977 . S
O168 C161 1.267 . S
C169 O170 1.160 . S
C169 O176 1.185 . S
O170 C169 1.160 . S
O171 Zn172 1.899 . S
O171 C179 1.284 . S
Zn172 O171 1.899 . S
Zn172 O173 2.032 . S
Zn172 O176 2.086 . S
Zn172 O181 1.977 . S
O173 Zn172 2.032 . S
O173 C177 1.278 . S
C174 O175 1.203 . S
C174 O181 1.267 . S
O175 C174 1.203 . S
O176 C169 1.185 . S
O176 Zn172 2.086 . S
C177 O173 1.278 . S
C177 O178 1.211 . S
O178 C177 1.211 . S
C179 O171 1.284 . S
C179 O180 1.273 . S
O180 C179 1.273 . S
O181 Zn172 1.977 . S
O181 C174 1.267 . S
C182 O183 1.160 . S
C182 O189 1.185 . S
O183 C182 1.160 . S
O184 Zn185 1.899 . S
O184 C192 1.284 . S
Zn185 O184 1.899 . S
Zn185 O186 2.032 . S
Zn185 O189 2.086 . S
Zn185 O194 1.977 . S
O186 Zn185 2.032 . S
O186 C190 1.278 . S
C187 O188 1.203 . S
C187 O194 1.267 . S
O188 C187 1.203 . S
O189 C182 1.185 . S
O189 Zn185 2.086 . S
C190 O186 1.278 . S
C190 O191 1.211 . S
O191 C190 1.211 . S
C192 O184 1.284 . S
C192 O193 1.273 . S
O193 C192 1.273 . S
O194 Zn185 1.977 . S
O194 C187 1.267 . S
C195 O196 1.160 . S
C195 O202 1.185 . S
O196 C195 1.160 . S
O197 Zn198 1.899 . S
O197 C205 1.284 . S
Zn198 O197 1.899 . S
Zn198 O199 2.032 1_554 S
Zn198 O202 2.086 . S
Zn198 O207 1.977 . S
O199 Zn198 2.032 1_556 S
O199 C203 1.278 . S
C200 O201 1.203 . S
C200 O207 1.267 . S
O201 C200 1.203 . S
O202 C195 1.185 . S
O202 Zn198 2.086 . S
C203 O199 1.278 . S
C203 O204 1.211 . S
O204 C203 1.211 . S
C205 O197 1.284 . S
C205 O206 1.273 . S
O206 C205 1.273 . S
O207 Zn198 1.977 . S
O207 C200 1.267 . S
C208 O209 1.160 . S
C208 O215 1.185 . S
O209 C208 1.160 . S
O210 Zn211 1.899 . S
O210 C218 1.284 . S
Zn211 O210 1.899 . S
Zn211 O212 2.032 . S
Zn211 O215 2.086 . S
Zn211 O220 1.977 . S
O212 Zn211 2.032 . S
O212 C216 1.278 . S
C213 O214 1.203 . S
C213 O220 1.267 . S
O214 C213 1.203 . S
O215 C208 1.185 . S
O215 Zn211 2.086 . S
C216 O212 1.278 . S
C216 O217 1.211 . S
O217 C216 1.211 . S
C218 O210 1.284 . S
C218 O219 1.273 . S
O219 C218 1.273 . S
O220 Zn211 1.977 . S
O220 C213 1.267 . S
C221 O222 1.160 . S
C221 O228 1.185 . S
O222 C221 1.160 . S
O223 Zn224 1.899 . S
O223 C231 1.284 . S
Zn224 O223 1.899 . S
Zn224 O225 2.032 1_554 S
Zn224 O228 2.086 . S
Zn224 O233 1.977 . S
O225 Zn224 2.032 1_556 S
O225 C229 1.278 . S
C226 O227 1.203 . S
C226 O233 1.267 . S
O227 C226 1.203 . S
O228 C221 1.185 . S
O228 Zn224 2.086 . S
C229 O225 1.278 . S
C229 O230 1.211 . S
O230 C229 1.211 . S
C231 O223 1.284 . S
C231 O232 1.273 . S
O232 C231 1.273 . S
O233 Zn224 1.977 . S
O233 C226 1.267 . S
C234 O235 1.160 . S
C234 O241 1.185 . S
O235 C234 1.160 . S
O236 Zn237 1.899 . S
O236 C244 1.284 . S
Zn237 O236 1.899 . S
Zn237 O238 2.032 . S
Zn237 O241 2.086 . S
Zn237 O246 1.977 . S
O238 Zn237 2.032 . S
O238 C242 1.278 . S
C239 O240 1.203 . S
C239 O246 1.267 . S
O240 C239 1.203 . S
O241 C234 1.185 . S
O241 Zn237 2.086 . S
C242 O238 1.278 . S
C242 O243 1.211 . S
O243 C242 1.211 . S
C244 O236 1.284 . S
C244 O245 1.273 . S
O245 C244 1.273 . S
O246 Zn237 1.977 . S
O246 C239 1.267 . S
C247 O248 1.160 . S
C247 O254 1.185 . S
O248 C247 1.160 . S
O249 Zn250 1.899 . S
O249 C257 1.284 . S
Zn250 O249 1.899 . S
Zn250 O251 2.032 . S
Zn250 O254 2.086 . S
Zn250 O259 1.977 . S
O251 Zn250 2.032 . S
O251 C255 1.278 . S
C252 O253 1.203 . S
C252 O259 1.267 . S
O253 C252 1.203 . S
O254 C247 1.185 . S
O254 Zn250 2.086 . S
C255 O251 1.278 . S
C255 O256 1.211 . S
O256 C255 1.211 . S
C257 O249 1.284 . S
C257 O258 1.273 . S
O258 C257 1.273 . S
O259 Zn250 1.977 . S
O259 C252 1.267 . S
C260 O261 1.160 . S
C260 O267 1.185 . S
O261 C260 1.160 . S
O262 Zn263 1.899 . S
O262 C270 1.284 . S
Zn263 O262 1.899 . S
Zn263 O264 2.032 . S
Zn263 O267 2.086 . S
Zn263 O272 1.977 . S
O264 Zn263 2.032 . S
O264 C268 1.278 . S
C265 O266 1.203 . S
C265 O272 1.267 . S
O266 C265 1.203 . S
O267 C260 1.185 . S
O267 Zn263 2.086 . S
C268 O264 1.278 . S
C268 O269 1.211 . S
O269 C268 1.211 . S
C270 O262 1.284 . S
C270 O271 1.273 . S
O271 C270 1.273 . S
O272 Zn263 1.977 . S
O272 C265 1.267 . S
C273 O274 1.160 . S
C273 O280 1.185 . S
O274 C273 1.160 . S
O275 Zn276 1.899 . S
O275 C283 1.284 . S
Zn276 O275 1.899 . S
Zn276 O277 2.032 1_556 S
Zn276 O280 2.086 . S
Zn276 O285 1.977 . S
O277 Zn276 2.032 1_554 S
O277 C281 1.278 . S
C278 O279 1.203 . S
C278 O285 1.267 . S
O279 C278 1.203 . S
O280 C273 1.185 . S
O280 Zn276 2.086 . S
C281 O277 1.278 . S
C281 O282 1.211 . S
O282 C281 1.211 . S
C283 O275 1.284 . S
C283 O284 1.273 . S
O284 C283 1.273 . S
O285 Zn276 1.977 . S
O285 C278 1.267 . S
C286 O287 1.160 . S
C286 O293 1.185 . S
O287 C286 1.160 . S
O288 Zn289 1.899 . S
O288 C296 1.284 . S
Zn289 O288 1.899 . S
Zn289 O290 2.032 . S
Zn289 O293 2.086 . S
Zn289 O298 1.977 . S
O290 Zn289 2.032 . S
O290 C294 1.278 . S
C291 O292 1.203 . S
C291 O298 1.267 . S
O292 C291 1.203 . S
O293 C286 1.185 . S
O293 Zn289 2.086 . S
C294 O290 1.278 . S
C294 O295 1.211 . S
O295 C294 1.211 . S
C296 O288 1.284 . S
C296 O297 1.273 . S
O297 C296 1.273 . S
O298 Zn289 1.977 . S
O298 C291 1.267 . S
C299 O300 1.160 . S
C299 O306 1.185 . S
O300 C299 1.160 . S
O301 Zn302 1.899 . S
O301 C309 1.284 . S
Zn302 O301 1.899 . S
Zn302 O303 2.032 . S
Zn302 O306 2.086 . S
Zn302 O311 1.977 . S
O303 Zn302 2.032 . S
O303 C307 1.278 . S
C304 O305 1.203 . S
C304 O311 1.267 . S
O305 C304 1.203 . S
O306 C299 1.185 . S
O306 Zn302 2.086 . S
C307 O303 1.278 . S
C307 O308 1.211 . S
O308 C307 1.211 . S
C309 O301 1.284 . S
C309 O310 1.273 . S
O310 C309 1.273 . S
O311 Zn302 1.977 . S
O311 C304 1.267 . S
C312 O313 1.160 . S
C312 O319 1.185 . S
O313 C312 1.160 . S
O314 Zn315 1.899 . S
O314 C322 1.284 . S
Zn315 O314 1.899 . S
Zn315 O316 2.032 . S
Zn315 O319 2.086 . S
Zn315 O324 1.977 . S
O316 Zn315 2.032 . S
O316 C320 1.278 . S
C317 O318 1.203 . S
C317 O324 1.267 . S
O318 C317 1.203 . S
O319 C312 1.185 . S
O319 Zn315 2.086 . S
C320 O316 1.278 . S
C320 O321 1.211 . S
O321 C320 1.211 . S
C322 O314 1.284 . S
C322 O323 1.273 . S
O323 C322 1.273 . S
O324 Zn315 1.977 . S
O324 C317 1.267 . S
C325 O326 1.160 . S
C325 O332 1.185 . S
O326 C325 1.160 . S
O327 Zn328 1.899 . S
O327 C335 1.284 . S
Zn328 O327 1.899 . S
Zn328 O329 2.032 1_556 S
Zn328 O332 2.086 . S
Zn328 O337 1.977 . S
O329 Zn328 2.032 1_554 S
O329 C333 1.278 . S
C330 O331 1.203 . S
C330 O337 1.267 . S
O331 C330 1.203 . S
O332 C325 1.185 . S
O332 Zn328 2.086 . S
C333 O329 1.278 . S
C333 O334 1.211 . S
O334 C333 1.211 . S
C335 O327 1.284 . S
C335 O336 1.273 . S
O336 C335 1.273 . S
O337 Zn328 1.977 . S
O337 C330 1.267 . S
C338 O339 1.160 . S
C338 O345 1.185 . S
O339 C338 1.160 . S
O340 Zn341 1.899 . S
O340 C348 1.284 . S
Zn341 O340 1.899 . S
Zn341 O342 2.032 . S
Zn341 O345 2.086 . S
Zn341 O350 1.977 . S
O342 Zn341 2.032 . S
O342 C346 1.278 . S
C343 O344 1.203 . S
C343 O350 1.267 . S
O344 C343 1.203 . S
O345 C338 1.185 . S
O345 Zn341 2.086 . S
C346 O342 1.278 . S
C346 O347 1.211 . S
O347 C346 1.211 . S
C348 O340 1.284 . S
C348 O349 1.273 . S
O349 C348 1.273 . S
O350 Zn341 1.977 . S
O350 C343 1.267 . S
C351 O352 1.160 . S
C351 O358 1.185 . S
O352 C351 1.160 . S
O353 Zn354 1.899 . S
O353 C361 1.284 . S
Zn354 O353 1.899 . S
Zn354 O355 2.032 . S
Zn354 O358 2.086 . S
Zn354 O363 1.977 . S
O355 Zn354 2.032 . S
O355 C359 1.278 . S
C356 O357 1.203 . S
C356 O363 1.267 . S
O357 C356 1.203 . S
O358 C351 1.185 . S
O358 Zn354 2.086 . S
C359 O355 1.278 . S
C359 O360 1.211 . S
O360 C359 1.211 . S
C361 O353 1.284 . S
C361 O362 1.273 . S
O362 C361 1.273 . S
O363 Zn354 1.977 . S
O363 C356 1.267 . S
C364 O365 1.160 . S
C364 O371 1.185 . S
O365 C364 1.160 . S
O366 Zn367 1.899 . S
O366 C374 1.284 . S
Zn367 O366 1.899 . S
Zn367 O368 2.032 . S
Zn367 O371 2.086 . S
Zn367 O376 1.977 . S
O368 Zn367 2.032 . S
O368 C372 1.278 . S
C369 O370 1.203 . S
C369 O376 1.267 . S
O370 C369 1.203 . S
O371 C364 1.185 . S
O371 Zn367 2.086 . S
C372 O368 1.278 . S
C372 O373 1.211 . S
O373 C372 1.211 . S
C374 O366 1.284 . S
C374 O375 1.273 . S
O375 C374 1.273 . S
O376 Zn367 1.977 . S
O376 C369 1.267 . S
C377 O378 1.160 . S
C377 O384 1.185 . S
O378 C377 1.160 . S
O379 Zn380 1.899 . S
O379 C387 1.284 . S
Zn380 O379 1.899 . S
Zn380 O381 2.032 1_554 S
Zn380 O384 2.086 . S
Zn380 O389 1.977 . S
O381 Zn380 2.032 1_556 S
O381 C385 1.278 . S
C382 O383 1.203 . S
C382 O389 1.267 . S
O383 C382 1.203 . S
O384 C377 1.185 . S
O384 Zn380 2.086 . S
C385 O381 1.278 . S
C385 O386 1.211 . S
O386 C385 1.211 . S
C387 O379 1.284 . S
C387 O388 1.273 . S
O388 C387 1.273 . S
O389 Zn380 1.977 . S
O389 C382 1.267 . S
C390 O391 1.160 . S
C390 O397 1.185 . S
O391 C390 1.160 . S
O392 Zn393 1.899 . S
O392 C400 1.284 . S
Zn393 O392 1.899 . S
Zn393 O394 2.032 . S
Zn393 O397 2.086 . S
Zn393 O402 1.977 . S
O394 Zn393 2.032 . S
O394 C398 1.278 . S
C395 O396 1.203 . S
C395 O402 1.267 . S
O396 C395 1.203 . S
O397 C390 1.185 . S
O397 Zn393 2.086 . S
C398 O394 1.278 . S
C398 O399 1.211 . S
O399 C398 1.211 . S
C400 O392 1.284 . S
C400 O401 1.273 . S
O401 C400 1.273 . S
O402 Zn393 1.977 . S
O402 C395 1.267 . S
C403 O404 1.160 . S
C403 O410 1.185 . S
O404 C403 1.160 . S
O405 Zn406 1.899 . S
O405 C413 1.284 . S
Zn406 O405 1.899 . S
Zn406 O407 2.032 . S
Zn406 O410 2.086 . S
Zn406 O415 1.977 . S
O407 Zn406 2.032 . S
O407 C411 1.278 . S
C408 O409 1.203 . S
C408 O415 1.267 . S
O409 C408 1.203 . S
O410 C403 1.185 . S
O410 Zn406 2.086 . S
C411 O407 1.278 . S
C411 O412 1.211 . S
O412 C411 1.211 . S
C413 O405 1.284 . S
C413 O414 1.273 . S
O414 C413 1.273 . S
O415 Zn406 1.977 . S
O415 C408 1.267 . S
H416 C428 0.930 . S
H417 C430 0.930 . S
H418 C431 0.930 . S
H419 C435 0.959 . S
H420 C435 0.959 . S
H421 C435 0.961 . S
H422 C436 0.960 . S
H423 C436 0.961 . S
H424 C436 0.959 . S
H425 C439 0.929 . S
H426 C440 0.931 . S
H427 C442 0.930 . S
C428 H416 0.930 . S
C428 C429 1.399 . S
C428 C433 1.399 . S
C429 C428 1.399 . S
C429 C430 1.376 . S
C430 H417 0.930 . S
C430 C429 1.376 . S
C430 C431 1.388 . S
C431 H418 0.930 . S
C431 C430 1.388 . S
C431 C432 1.390 . S
C432 C431 1.390 . S
C432 C433 1.394 . S
C432 C438 1.465 . S
C433 C428 1.399 . S
C433 C432 1.394 . S
C433 C434 1.516 . S
C434 C433 1.516 . S
C434 C435 1.502 . S
C434 C436 1.561 . S
C434 C437 1.526 . S
C435 H419 0.959 . S
C435 H420 0.959 . S
C435 H421 0.961 . S
C435 C434 1.502 . S
C436 H422 0.960 . S
C436 H423 0.961 . S
C436 H424 0.959 . S
C436 C434 1.561 . S
C437 C434 1.526 . S
C437 C438 1.396 . S
C437 C442 1.390 . S
C438 C432 1.465 . S
C438 C437 1.396 . S
C438 C439 1.399 . S
C439 H425 0.929 . S
C439 C438 1.399 . S
C439 C440 1.385 . S
C440 H426 0.931 . S
C440 C439 1.385 . S
C440 C441 1.389 . S
C441 C440 1.389 . S
C441 C442 1.387 . S
C442 H427 0.930 . S
C442 C437 1.390 . S
C442 C441 1.387 . S
H443 C455 0.930 . S
H444 C457 0.930 . S
H445 C458 0.930 . S
H446 C462 0.959 . S
H447 C462 0.959 . S
H448 C462 0.961 . S
H449 C463 0.960 . S
H450 C463 0.961 . S
H451 C463 0.959 . S
H452 C466 0.929 . S
H453 C467 0.931 . S
H454 C469 0.930 . S
C455 H443 0.930 . S
C455 C456 1.399 . S
C455 C460 1.399 . S
C456 C455 1.399 . S
C456 C457 1.376 . S
C457 H444 0.930 . S
C457 C456 1.376 . S
C457 C458 1.388 . S
C458 H445 0.930 . S
C458 C457 1.388 . S
C458 C459 1.390 . S
C459 C458 1.390 . S
C459 C460 1.394 . S
C459 C465 1.465 . S
C460 C455 1.399 . S
C460 C459 1.394 . S
C460 C461 1.516 . S
C461 C460 1.516 . S
C461 C462 1.502 . S
C461 C463 1.561 . S
C461 C464 1.526 . S
C462 H446 0.959 . S
C462 H447 0.959 . S
C462 H448 0.961 . S
C462 C461 1.502 . S
C463 H449 0.960 . S
C463 H450 0.961 . S
C463 H451 0.959 . S
C463 C461 1.561 . S
C464 C461 1.526 . S
C464 C465 1.396 . S
C464 C469 1.390 . S
C465 C459 1.465 . S
C465 C464 1.396 . S
C465 C466 1.399 . S
C466 H452 0.929 . S
C466 C465 1.399 . S
C466 C467 1.385 . S
C467 H453 0.931 . S
C467 C466 1.385 . S
C467 C468 1.389 . S
C468 C467 1.389 . S
C468 C469 1.387 . S
C469 H454 0.930 . S
C469 C464 1.390 . S
C469 C468 1.387 . S
H470 C482 0.930 . S
H471 C484 0.930 . S
H472 C485 0.930 . S
H473 C489 0.959 . S
H474 C489 0.959 . S
H475 C489 0.961 . S
H476 C490 0.960 . S
H477 C490 0.961 . S
H478 C490 0.959 . S
H479 C493 0.929 . S
H480 C494 0.931 . S
H481 C496 0.930 . S
C482 H470 0.930 . S
C482 C483 1.399 . S
C482 C487 1.399 . S
C483 C482 1.399 . S
C483 C484 1.376 . S
C484 H471 0.930 . S
C484 C483 1.376 . S
C484 C485 1.388 . S
C485 H472 0.930 . S
C485 C484 1.388 . S
C485 C486 1.390 . S
C486 C485 1.390 . S
C486 C487 1.394 . S
C486 C492 1.465 . S
C487 C482 1.399 . S
C487 C486 1.394 . S
C487 C488 1.516 . S
C488 C487 1.516 . S
C488 C489 1.502 . S
C488 C490 1.561 . S
C488 C491 1.526 . S
C489 H473 0.959 . S
C489 H474 0.959 . S
C489 H475 0.961 . S
C489 C488 1.502 . S
C490 H476 0.960 . S
C490 H477 0.961 . S
C490 H478 0.959 . S
C490 C488 1.561 . S
C491 C488 1.526 . S
C491 C492 1.396 . S
C491 C496 1.390 . S
C492 C486 1.465 . S
C492 C491 1.396 . S
C492 C493 1.399 . S
C493 H479 0.929 . S
C493 C492 1.399 . S
C493 C494 1.385 . S
C494 H480 0.931 . S
C494 C493 1.385 . S
C494 C495 1.389 . S
C495 C494 1.389 . S
C495 C496 1.387 . S
C496 H481 0.930 . S
C496 C491 1.390 . S
C496 C495 1.387 . S
H497 C509 0.930 . S
H498 C511 0.930 . S
H499 C512 0.930 . S
H500 C516 0.959 . S
H501 C516 0.959 . S
H502 C516 0.961 . S
H503 C517 0.960 . S
H504 C517 0.961 . S
H505 C517 0.959 . S
H506 C520 0.929 . S
H507 C521 0.931 . S
H508 C523 0.930 . S
C509 H497 0.930 . S
C509 C510 1.399 . S
C509 C514 1.399 . S
C510 C509 1.399 . S
C510 C511 1.376 . S
C511 H498 0.930 . S
C511 C510 1.376 . S
C511 C512 1.388 . S
C512 H499 0.930 . S
C512 C511 1.388 . S
C512 C513 1.390 . S
C513 C512 1.390 . S
C513 C514 1.394 . S
C513 C519 1.465 . S
C514 C509 1.399 . S
C514 C513 1.394 . S
C514 C515 1.516 . S
C515 C514 1.516 . S
C515 C516 1.502 . S
C515 C517 1.561 . S
C515 C518 1.526 . S
C516 H500 0.959 . S
C516 H501 0.959 . S
C516 H502 0.961 . S
C516 C515 1.502 . S
C517 H503 0.960 . S
C517 H504 0.961 . S
C517 H505 0.959 . S
C517 C515 1.561 . S
C518 C515 1.526 . S
C518 C519 1.396 . S
C518 C523 1.390 . S
C519 C513 1.465 . S
C519 C518 1.396 . S
C519 C520 1.399 . S
C520 H506 0.929 . S
C520 C519 1.399 . S
C520 C521 1.385 . S
C521 H507 0.931 . S
C521 C520 1.385 . S
C521 C522 1.389 . S
C522 C521 1.389 . S
C522 C523 1.387 . S
C523 H508 0.930 . S
C523 C518 1.390 . S
C523 C522 1.387 . S
H524 C536 0.930 . S
H525 C538 0.930 . S
H526 C539 0.930 . S
H527 C543 0.959 . S
H528 C543 0.959 . S
H529 C543 0.961 . S
H530 C544 0.960 . S
H531 C544 0.961 . S
H532 C544 0.959 . S
H533 C547 0.929 . S
H534 C548 0.931 . S
H535 C550 0.930 . S
C536 H524 0.930 . S
C536 C537 1.399 . S
C536 C541 1.399 . S
C537 C536 1.399 . S
C537 C538 1.376 . S
C538 H525 0.930 . S
C538 C537 1.376 . S
C538 C539 1.388 . S
C539 H526 0.930 . S
C539 C538 1.388 . S
C539 C540 1.390 . S
C540 C539 1.390 . S
C540 C541 1.394 . S
C540 C546 1.465 . S
C541 C536 1.399 . S
C541 C540 1.394 . S
C541 C542 1.516 . S
C542 C541 1.516 . S
C542 C543 1.502 . S
C542 C544 1.561 . S
C542 C545 1.526 . S
C543 H527 0.959 . S
C543 H528 0.959 . S
C543 H529 0.961 . S
C543 C542 1.502 . S
C544 H530 0.960 . S
C544 H531 0.961 . S
C544 H532 0.959 . S
C544 C542 1.561 . S
C545 C542 1.526 . S
C545 C546 1.396 . S
C545 C550 1.390 . S
C546 C540 1.465 . S
C546 C545 1.396 . S
C546 C547 1.399 . S
C547 H533 0.929 . S
C547 C546 1.399 . S
C547 C548 1.385 . S
C548 H534 0.931 . S
C548 C547 1.385 . S
C548 C549 1.389 . S
C549 C548 1.389 . S
C549 C550 1.387 . S
C550 H535 0.930 . S
C550 C545 1.390 . S
C550 C549 1.387 . S
H551 C563 0.930 . S
H552 C565 0.930 . S
H553 C566 0.930 . S
H554 C570 0.959 . S
H555 C570 0.959 . S
H556 C570 0.961 . S
H557 C571 0.960 . S
H558 C571 0.961 . S
H559 C571 0.959 . S
H560 C574 0.929 . S
H561 C575 0.931 . S
H562 C577 0.930 . S
C563 H551 0.930 . S
C563 C564 1.399 . S
C563 C568 1.399 . S
C564 C563 1.399 . S
C564 C565 1.376 . S
C565 H552 0.930 . S
C565 C564 1.376 . S
C565 C566 1.388 . S
C566 H553 0.930 . S
C566 C565 1.388 . S
C566 C567 1.390 . S
C567 C566 1.390 . S
C567 C568 1.394 . S
C567 C573 1.465 . S
C568 C563 1.399 . S
C568 C567 1.394 . S
C568 C569 1.516 . S
C569 C568 1.516 . S
C569 C570 1.502 . S
C569 C571 1.561 . S
C569 C572 1.526 . S
C570 H554 0.959 . S
C570 H555 0.959 . S
C570 H556 0.961 . S
C570 C569 1.502 . S
C571 H557 0.960 . S
C571 H558 0.961 . S
C571 H559 0.959 . S
C571 C569 1.561 . S
C572 C569 1.526 . S
C572 C573 1.396 . S
C572 C577 1.390 . S
C573 C567 1.465 . S
C573 C572 1.396 . S
C573 C574 1.399 . S
C574 H560 0.929 . S
C574 C573 1.399 . S
C574 C575 1.385 . S
C575 H561 0.931 . S
C575 C574 1.385 . S
C575 C576 1.389 . S
C576 C575 1.389 . S
C576 C577 1.387 . S
C577 H562 0.930 . S
C577 C572 1.390 . S
C577 C576 1.387 . S
H578 C590 0.930 . S
H579 C592 0.930 . S
H580 C593 0.930 . S
H581 C597 0.959 . S
H582 C597 0.959 . S
H583 C597 0.961 . S
H584 C598 0.960 . S
H585 C598 0.961 . S
H586 C598 0.959 . S
H587 C601 0.929 . S
H588 C602 0.931 . S
H589 C604 0.930 . S
C590 H578 0.930 . S
C590 C591 1.399 . S
C590 C595 1.399 . S
C591 C590 1.399 . S
C591 C592 1.376 . S
C592 H579 0.930 . S
C592 C591 1.376 . S
C592 C593 1.388 . S
C593 H580 0.930 . S
C593 C592 1.388 . S
C593 C594 1.390 . S
C594 C593 1.390 . S
C594 C595 1.394 . S
C594 C600 1.465 . S
C595 C590 1.399 . S
C595 C594 1.394 . S
C595 C596 1.516 . S
C596 C595 1.516 . S
C596 C597 1.502 . S
C596 C598 1.561 . S
C596 C599 1.526 . S
C597 H581 0.959 . S
C597 H582 0.959 . S
C597 H583 0.961 . S
C597 C596 1.502 . S
C598 H584 0.960 . S
C598 H585 0.961 . S
C598 H586 0.959 . S
C598 C596 1.561 . S
C599 C596 1.526 . S
C599 C600 1.396 . S
C599 C604 1.390 . S
C600 C594 1.465 . S
C600 C599 1.396 . S
C600 C601 1.399 . S
C601 H587 0.929 . S
C601 C600 1.399 . S
C601 C602 1.385 . S
C602 H588 0.931 . S
C602 C601 1.385 . S
C602 C603 1.389 . S
C603 C602 1.389 . S
C603 C604 1.387 . S
C604 H589 0.930 . S
C604 C599 1.390 . S
C604 C603 1.387 . S
H605 C617 0.930 . S
H606 C619 0.930 . S
H607 C620 0.930 . S
H608 C624 0.959 . S
H609 C624 0.959 . S
H610 C624 0.961 . S
H611 C625 0.960 . S
H612 C625 0.961 . S
H613 C625 0.959 . S
H614 C628 0.929 . S
H615 C629 0.931 . S
H616 C631 0.930 . S
C617 H605 0.930 . S
C617 C618 1.399 . S
C617 C622 1.399 . S
C618 C617 1.399 . S
C618 C619 1.376 . S
C619 H606 0.930 . S
C619 C618 1.376 . S
C619 C620 1.388 . S
C620 H607 0.930 . S
C620 C619 1.388 . S
C620 C621 1.390 . S
C621 C620 1.390 . S
C621 C622 1.394 . S
C621 C627 1.465 . S
C622 C617 1.399 . S
C622 C621 1.394 . S
C622 C623 1.516 . S
C623 C622 1.516 . S
C623 C624 1.502 . S
C623 C625 1.561 . S
C623 C626 1.526 . S
C624 H608 0.959 . S
C624 H609 0.959 . S
C624 H610 0.961 . S
C624 C623 1.502 . S
C625 H611 0.960 . S
C625 H612 0.961 . S
C625 H613 0.959 . S
C625 C623 1.561 . S
C626 C623 1.526 . S
C626 C627 1.396 . S
C626 C631 1.390 . S
C627 C621 1.465 . S
C627 C626 1.396 . S
C627 C628 1.399 . S
C628 H614 0.929 . S
C628 C627 1.399 . S
C628 C629 1.385 . S
C629 H615 0.931 . S
C629 C628 1.385 . S
C629 C630 1.389 . S
C630 C629 1.389 . S
C630 C631 1.387 . S
C631 H616 0.930 . S
C631 C626 1.390 . S
C631 C630 1.387 . S
H632 C644 0.930 . S
H633 C646 0.930 . S
H634 C647 0.930 . S
H635 C651 0.959 . S
H636 C651 0.959 . S
H637 C651 0.961 . S
H638 C652 0.960 . S
H639 C652 0.961 . S
H640 C652 0.959 . S
H641 C655 0.929 . S
H642 C656 0.931 . S
H643 C658 0.930 . S
C644 H632 0.930 . S
C644 C645 1.399 . S
C644 C649 1.399 . S
C645 C644 1.399 . S
C645 C646 1.376 . S
C646 H633 0.930 . S
C646 C645 1.376 . S
C646 C647 1.388 . S
C647 H634 0.930 . S
C647 C646 1.388 . S
C647 C648 1.390 . S
C648 C647 1.390 . S
C648 C649 1.394 . S
C648 C654 1.465 . S
C649 C644 1.399 . S
C649 C648 1.394 . S
C649 C650 1.516 . S
C650 C649 1.516 . S
C650 C651 1.502 . S
C650 C652 1.561 . S
C650 C653 1.526 . S
C651 H635 0.959 . S
C651 H636 0.959 . S
C651 H637 0.961 . S
C651 C650 1.502 . S
C652 H638 0.960 . S
C652 H639 0.961 . S
C652 H640 0.959 . S
C652 C650 1.561 . S
C653 C650 1.526 . S
C653 C654 1.396 . S
C653 C658 1.390 . S
C654 C648 1.465 . S
C654 C653 1.396 . S
C654 C655 1.399 . S
C655 H641 0.929 . S
C655 C654 1.399 . S
C655 C656 1.385 . S
C656 H642 0.931 . S
C656 C655 1.385 . S
C656 C657 1.389 . S
C657 C656 1.389 . S
C657 C658 1.387 . S
C658 H643 0.930 . S
C658 C653 1.390 . S
C658 C657 1.387 . S
H659 C671 0.930 . S
H660 C673 0.930 . S
H661 C674 0.930 . S
H662 C678 0.959 . S
H663 C678 0.959 . S
H664 C678 0.961 . S
H665 C679 0.960 . S
H666 C679 0.961 . S
H667 C679 0.959 . S
H668 C682 0.929 . S
H669 C683 0.931 . S
H670 C685 0.930 . S
C671 H659 0.930 . S
C671 C672 1.399 . S
C671 C676 1.399 . S
C672 C671 1.399 . S
C672 C673 1.376 . S
C673 H660 0.930 . S
C673 C672 1.376 . S
C673 C674 1.388 . S
C674 H661 0.930 . S
C674 C673 1.388 . S
C674 C675 1.390 . S
C675 C674 1.390 . S
C675 C676 1.394 . S
C675 C681 1.465 . S
C676 C671 1.399 . S
C676 C675 1.394 . S
C676 C677 1.516 . S
C677 C676 1.516 . S
C677 C678 1.502 . S
C677 C679 1.561 . S
C677 C680 1.526 . S
C678 H662 0.959 . S
C678 H663 0.959 . S
C678 H664 0.961 . S
C678 C677 1.502 . S
C679 H665 0.960 . S
C679 H666 0.961 . S
C679 H667 0.959 . S
C679 C677 1.561 . S
C680 C677 1.526 . S
C680 C681 1.396 . S
C680 C685 1.390 . S
C681 C675 1.465 . S
C681 C680 1.396 . S
C681 C682 1.399 . S
C682 H668 0.929 . S
C682 C681 1.399 . S
C682 C683 1.385 . S
C683 H669 0.931 . S
C683 C682 1.385 . S
C683 C684 1.389 . S
C684 C683 1.389 . S
C684 C685 1.387 . S
C685 H670 0.930 . S
C685 C680 1.390 . S
C685 C684 1.387 . S
H686 C698 0.930 . S
H687 C700 0.930 . S
H688 C701 0.930 . S
H689 C705 0.959 . S
H690 C705 0.959 . S
H691 C705 0.961 . S
H692 C706 0.960 . S
H693 C706 0.961 . S
H694 C706 0.959 . S
H695 C709 0.929 . S
H696 C710 0.931 . S
H697 C712 0.930 . S
C698 H686 0.930 . S
C698 C699 1.399 . S
C698 C703 1.399 . S
C699 C698 1.399 . S
C699 C700 1.376 . S
C700 H687 0.930 . S
C700 C699 1.376 . S
C700 C701 1.388 . S
C701 H688 0.930 . S
C701 C700 1.388 . S
C701 C702 1.390 . S
C702 C701 1.390 . S
C702 C703 1.394 . S
C702 C708 1.465 . S
C703 C698 1.399 . S
C703 C702 1.394 . S
C703 C704 1.516 . S
C704 C703 1.516 . S
C704 C705 1.502 . S
C704 C706 1.561 . S
C704 C707 1.526 . S
C705 H689 0.959 . S
C705 H690 0.959 . S
C705 H691 0.961 . S
C705 C704 1.502 . S
C706 H692 0.960 . S
C706 H693 0.961 . S
C706 H694 0.959 . S
C706 C704 1.561 . S
C707 C704 1.526 . S
C707 C708 1.396 . S
C707 C712 1.390 . S
C708 C702 1.465 . S
C708 C707 1.396 . S
C708 C709 1.399 . S
C709 H695 0.929 . S
C709 C708 1.399 . S
C709 C710 1.385 . S
C710 H696 0.931 . S
C710 C709 1.385 . S
C710 C711 1.389 . S
C711 C710 1.389 . S
C711 C712 1.387 . S
C712 H697 0.930 . S
C712 C707 1.390 . S
C712 C711 1.387 . S
H713 C725 0.930 . S
H714 C727 0.930 . S
H715 C728 0.930 . S
H716 C732 0.959 . S
H717 C732 0.959 . S
H718 C732 0.961 . S
H719 C733 0.960 . S
H720 C733 0.961 . S
H721 C733 0.959 . S
H722 C736 0.929 . S
H723 C737 0.931 . S
H724 C739 0.930 . S
C725 H713 0.930 . S
C725 C726 1.399 . S
C725 C730 1.399 . S
C726 C725 1.399 . S
C726 C727 1.376 . S
C727 H714 0.930 . S
C727 C726 1.376 . S
C727 C728 1.388 . S
C728 H715 0.930 . S
C728 C727 1.388 . S
C728 C729 1.390 . S
C729 C728 1.390 . S
C729 C730 1.394 . S
C729 C735 1.465 . S
C730 C725 1.399 . S
C730 C729 1.394 . S
C730 C731 1.516 . S
C731 C730 1.516 . S
C731 C732 1.502 . S
C731 C733 1.561 . S
C731 C734 1.526 . S
C732 H716 0.959 . S
C732 H717 0.959 . S
C732 H718 0.961 . S
C732 C731 1.502 . S
C733 H719 0.960 . S
C733 H720 0.961 . S
C733 H721 0.959 . S
C733 C731 1.561 . S
C734 C731 1.526 . S
C734 C735 1.396 . S
C734 C739 1.390 . S
C735 C729 1.465 . S
C735 C734 1.396 . S
C735 C736 1.399 . S
C736 H722 0.929 . S
C736 C735 1.399 . S
C736 C737 1.385 . S
C737 H723 0.931 . S
C737 C736 1.385 . S
C737 C738 1.389 . S
C738 C737 1.389 . S
C738 C739 1.387 . S
C739 H724 0.930 . S
C739 C734 1.390 . S
C739 C738 1.387 . S
H740 C752 0.930 . S
H741 C754 0.930 . S
H742 C755 0.930 . S
H743 C759 0.959 . S
H744 C759 0.959 . S
H745 C759 0.961 . S
H746 C760 0.960 . S
H747 C760 0.961 . S
H748 C760 0.959 . S
H749 C763 0.929 . S
H750 C764 0.931 . S
H751 C766 0.930 . S
C752 H740 0.930 . S
C752 C753 1.399 . S
C752 C757 1.399 . S
C753 C752 1.399 . S
C753 C754 1.376 . S
C754 H741 0.930 . S
C754 C753 1.376 . S
C754 C755 1.388 . S
C755 H742 0.930 . S
C755 C754 1.388 . S
C755 C756 1.390 . S
C756 C755 1.390 . S
C756 C757 1.394 . S
C756 C762 1.465 . S
C757 C752 1.399 . S
C757 C756 1.394 . S
C757 C758 1.516 . S
C758 C757 1.516 . S
C758 C759 1.502 . S
C758 C760 1.561 . S
C758 C761 1.526 . S
C759 H743 0.959 . S
C759 H744 0.959 . S
C759 H745 0.961 . S
C759 C758 1.502 . S
C760 H746 0.960 . S
C760 H747 0.961 . S
C760 H748 0.959 . S
C760 C758 1.561 . S
C761 C758 1.526 . S
C761 C762 1.396 . S
C761 C766 1.390 . S
C762 C756 1.465 . S
C762 C761 1.396 . S
C762 C763 1.399 . S
C763 H749 0.929 . S
C763 C762 1.399 . S
C763 C764 1.385 . S
C764 H750 0.931 . S
C764 C763 1.385 . S
C764 C765 1.389 . S
C765 C764 1.389 . S
C765 C766 1.387 . S
C766 H751 0.930 . S
C766 C761 1.390 . S
C766 C765 1.387 . S
H767 C779 0.930 . S
H768 C781 0.930 . S
H769 C782 0.930 . S
H770 C786 0.959 . S
H771 C786 0.959 . S
H772 C786 0.961 . S
H773 C787 0.960 . S
H774 C787 0.961 . S
H775 C787 0.959 . S
H776 C790 0.929 . S
H777 C791 0.931 . S
H778 C793 0.930 . S
C779 H767 0.930 . S
C779 C780 1.399 . S
C779 C784 1.399 . S
C780 C779 1.399 . S
C780 C781 1.376 . S
C781 H768 0.930 . S
C781 C780 1.376 . S
C781 C782 1.388 . S
C782 H769 0.930 . S
C782 C781 1.388 . S
C782 C783 1.390 . S
C783 C782 1.390 . S
C783 C784 1.394 . S
C783 C789 1.465 . S
C784 C779 1.399 . S
C784 C783 1.394 . S
C784 C785 1.516 . S
C785 C784 1.516 . S
C785 C786 1.502 . S
C785 C787 1.561 . S
C785 C788 1.526 . S
C786 H770 0.959 . S
C786 H771 0.959 . S
C786 H772 0.961 . S
C786 C785 1.502 . S
C787 H773 0.960 . S
C787 H774 0.961 . S
C787 H775 0.959 . S
C787 C785 1.561 . S
C788 C785 1.526 . S
C788 C789 1.396 . S
C788 C793 1.390 . S
C789 C783 1.465 . S
C789 C788 1.396 . S
C789 C790 1.399 . S
C790 H776 0.929 . S
C790 C789 1.399 . S
C790 C791 1.385 . S
C791 H777 0.931 . S
C791 C790 1.385 . S
C791 C792 1.389 . S
C792 C791 1.389 . S
C792 C793 1.387 . S
C793 H778 0.930 . S
C793 C788 1.390 . S
C793 C792 1.387 . S
H794 C806 0.930 . S
H795 C808 0.930 . S
H796 C809 0.930 . S
H797 C813 0.959 . S
H798 C813 0.959 . S
H799 C813 0.961 . S
H800 C814 0.960 . S
H801 C814 0.961 . S
H802 C814 0.959 . S
H803 C817 0.929 . S
H804 C818 0.931 . S
H805 C820 0.930 . S
C806 H794 0.930 . S
C806 C807 1.399 . S
C806 C811 1.399 . S
C807 C806 1.399 . S
C807 C808 1.376 . S
C808 H795 0.930 . S
C808 C807 1.376 . S
C808 C809 1.388 . S
C809 H796 0.930 . S
C809 C808 1.388 . S
C809 C810 1.390 . S
C810 C809 1.390 . S
C810 C811 1.394 . S
C810 C816 1.465 . S
C811 C806 1.399 . S
C811 C810 1.394 . S
C811 C812 1.516 . S
C812 C811 1.516 . S
C812 C813 1.502 . S
C812 C814 1.561 . S
C812 C815 1.526 . S
C813 H797 0.959 . S
C813 H798 0.959 . S
C813 H799 0.961 . S
C813 C812 1.502 . S
C814 H800 0.960 . S
C814 H801 0.961 . S
C814 H802 0.959 . S
C814 C812 1.561 . S
C815 C812 1.526 . S
C815 C816 1.396 . S
C815 C820 1.390 . S
C816 C810 1.465 . S
C816 C815 1.396 . S
C816 C817 1.399 . S
C817 H803 0.929 . S
C817 C816 1.399 . S
C817 C818 1.385 . S
C818 H804 0.931 . S
C818 C817 1.385 . S
C818 C819 1.389 . S
C819 C818 1.389 . S
C819 C820 1.387 . S
C820 H805 0.930 . S
C820 C815 1.390 . S
C820 C819 1.387 . S
H821 C833 0.930 . S
H822 C835 0.930 . S
H823 C836 0.930 . S
H824 C840 0.959 . S
H825 C840 0.959 . S
H826 C840 0.961 . S
H827 C841 0.960 . S
H828 C841 0.961 . S
H829 C841 0.959 . S
H830 C844 0.929 . S
H831 C845 0.931 . S
H832 C847 0.930 . S
C833 H821 0.930 . S
C833 C834 1.399 . S
C833 C838 1.399 . S
C834 C833 1.399 . S
C834 C835 1.376 . S
C835 H822 0.930 . S
C835 C834 1.376 . S
C835 C836 1.388 . S
C836 H823 0.930 . S
C836 C835 1.388 . S
C836 C837 1.390 . S
C837 C836 1.390 . S
C837 C838 1.394 . S
C837 C843 1.465 . S
C838 C833 1.399 . S
C838 C837 1.394 . S
C838 C839 1.516 . S
C839 C838 1.516 . S
C839 C840 1.502 . S
C839 C841 1.561 . S
C839 C842 1.526 . S
C840 H824 0.959 . S
C840 H825 0.959 . S
C840 H826 0.961 . S
C840 C839 1.502 . S
C841 H827 0.960 . S
C841 H828 0.961 . S
C841 H829 0.959 . S
C841 C839 1.561 . S
C842 C839 1.526 . S
C842 C843 1.396 . S
C842 C847 1.390 . S
C843 C837 1.465 . S
C843 C842 1.396 . S
C843 C844 1.399 . S
C844 H830 0.929 . S
C844 C843 1.399 . S
C844 C845 1.385 . S
C845 H831 0.931 . S
C845 C844 1.385 . S
C845 C846 1.389 . S
C846 C845 1.389 . S
C846 C847 1.387 . S
C847 H832 0.930 . S
C847 C842 1.390 . S
C847 C846 1.387 . S
H848 C860 0.930 . S
H849 C862 0.930 . S
H850 C863 0.930 . S
H851 C867 0.959 . S
H852 C867 0.959 . S
H853 C867 0.961 . S
H854 C868 0.960 . S
H855 C868 0.961 . S
H856 C868 0.959 . S
H857 C871 0.929 . S
H858 C872 0.931 . S
H859 C874 0.930 . S
C860 H848 0.930 . S
C860 C861 1.399 . S
C860 C865 1.399 . S
C861 C860 1.399 . S
C861 C862 1.376 . S
C862 H849 0.930 . S
C862 C861 1.376 . S
C862 C863 1.388 . S
C863 H850 0.930 . S
C863 C862 1.388 . S
C863 C864 1.390 . S
C864 C863 1.390 . S
C864 C865 1.394 . S
C864 C870 1.465 . S
C865 C860 1.399 . S
C865 C864 1.394 . S
C865 C866 1.516 . S
C866 C865 1.516 . S
C866 C867 1.502 . S
C866 C868 1.561 . S
C866 C869 1.526 . S
C867 H851 0.959 . S
C867 H852 0.959 . S
C867 H853 0.961 . S
C867 C866 1.502 . S
C868 H854 0.960 . S
C868 H855 0.961 . S
C868 H856 0.959 . S
C868 C866 1.561 . S
C869 C866 1.526 . S
C869 C870 1.396 . S
C869 C874 1.390 . S
C870 C864 1.465 . S
C870 C869 1.396 . S
C870 C871 1.399 . S
C871 H857 0.929 . S
C871 C870 1.399 . S
C871 C872 1.385 . S
C872 H858 0.931 . S
C872 C871 1.385 . S
C872 C873 1.389 . S
C873 C872 1.389 . S
C873 C874 1.387 . S
C874 H859 0.930 . S
C874 C869 1.390 . S
C874 C873 1.387 . S
H875 C887 0.930 . S
H876 C889 0.930 . S
H877 C890 0.930 . S
H878 C894 0.959 . S
H879 C894 0.959 . S
H880 C894 0.961 . S
H881 C895 0.960 . S
H882 C895 0.961 . S
H883 C895 0.959 . S
H884 C898 0.929 . S
H885 C899 0.931 1_455 S
H886 C901 0.930 . S
C887 H875 0.930 . S
C887 C888 1.399 . S
C887 C892 1.399 . S
C888 C887 1.399 . S
C888 C889 1.376 . S
C889 H876 0.930 . S
C889 C888 1.376 . S
C889 C890 1.388 . S
C890 H877 0.930 . S
C890 C889 1.388 . S
C890 C891 1.390 . S
C891 C890 1.390 . S
C891 C892 1.394 . S
C891 C897 1.465 . S
C892 C887 1.399 . S
C892 C891 1.394 . S
C892 C893 1.516 . S
C893 C892 1.516 . S
C893 C894 1.502 . S
C893 C895 1.561 . S
C893 C896 1.526 . S
C894 H878 0.959 . S
C894 H879 0.959 . S
C894 H880 0.961 . S
C894 C893 1.502 . S
C895 H881 0.960 . S
C895 H882 0.961 . S
C895 H883 0.959 . S
C895 C893 1.561 . S
C896 C893 1.526 . S
C896 C897 1.396 . S
C896 C901 1.390 . S
C897 C891 1.465 . S
C897 C896 1.396 . S
C897 C898 1.399 . S
C898 H884 0.929 . S
C898 C897 1.399 . S
C898 C899 1.385 . S
C899 H885 0.931 1_655 S
C899 C898 1.385 . S
C899 C900 1.384 1_655 S
C900 C899 1.384 1_455 S
C900 C901 1.370 1_455 S
C901 H886 0.930 . S
C901 C896 1.390 . S
C901 C900 1.370 1_655 S
H902 C914 0.930 . S
H903 C916 0.930 . S
H904 C917 0.930 . S
H905 C921 0.959 . S
H906 C921 0.959 . S
H907 C921 0.961 . S
H908 C922 0.960 . S
H909 C922 0.961 . S
H910 C922 0.959 . S
H911 C925 0.929 . S
H912 C926 0.931 . S
H913 C928 0.930 . S
C914 H902 0.930 . S
C914 C915 1.399 . S
C914 C919 1.399 . S
C915 C914 1.399 . S
C915 C916 1.376 . S
C916 H903 0.930 . S
C916 C915 1.376 . S
C916 C917 1.388 . S
C917 H904 0.930 . S
C917 C916 1.388 . S
C917 C918 1.390 . S
C918 C917 1.390 . S
C918 C919 1.394 . S
C918 C924 1.465 . S
C919 C914 1.399 . S
C919 C918 1.394 . S
C919 C920 1.516 . S
C920 C919 1.516 . S
C920 C921 1.502 . S
C920 C922 1.561 . S
C920 C923 1.526 . S
C921 H905 0.959 . S
C921 H906 0.959 . S
C921 H907 0.961 . S
C921 C920 1.502 . S
C922 H908 0.960 . S
C922 H909 0.961 . S
C922 H910 0.959 . S
C922 C920 1.561 . S
C923 C920 1.526 . S
C923 C924 1.396 . S
C923 C928 1.390 . S
C924 C918 1.465 . S
C924 C923 1.396 . S
C924 C925 1.399 . S
C925 H911 0.929 . S
C925 C924 1.399 . S
C925 C926 1.385 . S
C926 H912 0.931 . S
C926 C925 1.385 . S
C926 C927 1.389 . S
C927 C926 1.389 . S
C927 C928 1.387 . S
C928 H913 0.930 . S
C928 C923 1.390 . S
C928 C927 1.387 . S
H929 C941 0.930 . S
H930 C943 0.930 . S
H931 C944 0.930 . S
H932 C948 0.959 . S
H933 C948 0.959 . S
H934 C948 0.961 . S
H935 C949 0.960 . S
H936 C949 0.961 . S
H937 C949 0.959 . S
H938 C952 0.929 . S
H939 C953 0.931 . S
H940 C955 0.930 . S
C941 H929 0.930 . S
C941 C942 1.399 . S
C941 C946 1.399 . S
C942 C941 1.399 . S
C942 C943 1.376 . S
C943 H930 0.930 . S
C943 C942 1.376 . S
C943 C944 1.388 . S
C944 H931 0.930 . S
C944 C943 1.388 . S
C944 C945 1.390 . S
C945 C944 1.390 . S
C945 C946 1.394 . S
C945 C951 1.465 . S
C946 C941 1.399 . S
C946 C945 1.394 . S
C946 C947 1.516 . S
C947 C946 1.516 . S
C947 C948 1.502 . S
C947 C949 1.561 . S
C947 C950 1.526 . S
C948 H932 0.959 . S
C948 H933 0.959 . S
C948 H934 0.961 . S
C948 C947 1.502 . S
C949 H935 0.960 . S
C949 H936 0.961 . S
C949 H937 0.959 . S
C949 C947 1.561 . S
C950 C947 1.526 . S
C950 C951 1.396 . S
C950 C955 1.390 . S
C951 C945 1.465 . S
C951 C950 1.396 . S
C951 C952 1.399 . S
C952 H938 0.929 . S
C952 C951 1.399 . S
C952 C953 1.385 . S
C953 H939 0.931 . S
C953 C952 1.385 . S
C953 C954 1.389 . S
C954 C953 1.389 . S
C954 C955 1.387 . S
C955 H940 0.930 . S
C955 C950 1.390 . S
C955 C954 1.387 . S
H956 C968 0.930 . S
H957 C970 0.930 . S
H958 C971 0.930 . S
H959 C975 0.959 . S
H960 C975 0.959 . S
H961 C975 0.961 . S
H962 C976 0.960 . S
H963 C976 0.961 . S
H964 C976 0.959 . S
H965 C979 0.929 . S
H966 C980 0.931 . S
H967 C982 0.930 . S
C968 H956 0.930 . S
C968 C969 1.399 . S
C968 C973 1.399 . S
C969 C968 1.399 . S
C969 C970 1.376 . S
C970 H957 0.930 . S
C970 C969 1.376 . S
C970 C971 1.388 . S
C971 H958 0.930 . S
C971 C970 1.388 . S
C971 C972 1.390 . S
C972 C971 1.390 . S
C972 C973 1.394 . S
C972 C978 1.465 . S
C973 C968 1.399 . S
C973 C972 1.394 . S
C973 C974 1.516 . S
C974 C973 1.516 . S
C974 C975 1.502 . S
C974 C976 1.561 . S
C974 C977 1.526 . S
C975 H959 0.959 . S
C975 H960 0.959 . S
C975 H961 0.961 . S
C975 C974 1.502 . S
C976 H962 0.960 . S
C976 H963 0.961 . S
C976 H964 0.959 . S
C976 C974 1.561 . S
C977 C974 1.526 . S
C977 C978 1.396 . S
C977 C982 1.390 . S
C978 C972 1.465 . S
C978 C977 1.396 . S
C978 C979 1.399 . S
C979 H965 0.929 . S
C979 C978 1.399 . S
C979 C980 1.385 . S
C980 H966 0.931 . S
C980 C979 1.385 . S
C980 C981 1.389 . S
C981 C980 1.389 . S
C981 C982 1.387 . S
C982 H967 0.930 . S
C982 C977 1.390 . S
C982 C981 1.387 . S
H983 C995 0.930 . S
H984 C997 0.930 . S
H985 C998 0.930 . S
H986 C1002 0.959 . S
H987 C1002 0.959 . S
H988 C1002 0.961 . S
H989 C1003 0.960 . S
H990 C1003 0.961 . S
H991 C1003 0.959 . S
H992 C1006 0.929 . S
H993 C1007 0.931 . S
H994 C1009 0.930 . S
C995 H983 0.930 . S
C995 C996 1.399 . S
C995 C1000 1.399 . S
C996 C995 1.399 . S
C996 C997 1.376 . S
C997 H984 0.930 . S
C997 C996 1.376 . S
C997 C998 1.388 . S
C998 H985 0.930 . S
C998 C997 1.388 . S
C998 C999 1.390 . S
C999 C998 1.390 . S
C999 C1000 1.394 . S
C999 C1005 1.465 . S
C1000 C995 1.399 . S
C1000 C999 1.394 . S
C1000 C1001 1.516 . S
C1001 C1000 1.516 . S
C1001 C1002 1.502 . S
C1001 C1003 1.561 . S
C1001 C1004 1.526 . S
C1002 H986 0.959 . S
C1002 H987 0.959 . S
C1002 H988 0.961 . S
C1002 C1001 1.502 . S
C1003 H989 0.960 . S
C1003 H990 0.961 . S
C1003 H991 0.959 . S
C1003 C1001 1.561 . S
C1004 C1001 1.526 . S
C1004 C1005 1.396 . S
C1004 C1009 1.390 . S
C1005 C999 1.465 . S
C1005 C1004 1.396 . S
C1005 C1006 1.399 . S
C1006 H992 0.929 . S
C1006 C1005 1.399 . S
C1006 C1007 1.385 . S
C1007 H993 0.931 . S
C1007 C1006 1.385 . S
C1007 C1008 1.389 . S
C1008 C1007 1.389 . S
C1008 C1009 1.387 . S
C1009 H994 0.930 . S
C1009 C1004 1.390 . S
C1009 C1008 1.387 . S
H1010 C1022 0.930 . S
H1011 C1024 0.930 . S
H1012 C1025 0.930 . S
H1013 C1029 0.959 . S
H1014 C1029 0.959 . S
H1015 C1029 0.961 . S
H1016 C1030 0.960 . S
H1017 C1030 0.961 . S
H1018 C1030 0.959 . S
H1019 C1033 0.929 . S
H1020 C1034 0.931 . S
H1021 C1036 0.930 . S
C1022 H1010 0.930 . S
C1022 C1023 1.399 . S
C1022 C1027 1.399 . S
C1023 C1022 1.399 . S
C1023 C1024 1.376 . S
C1024 H1011 0.930 . S
C1024 C1023 1.376 . S
C1024 C1025 1.388 . S
C1025 H1012 0.930 . S
C1025 C1024 1.388 . S
C1025 C1026 1.390 . S
C1026 C1025 1.390 . S
C1026 C1027 1.394 . S
C1026 C1032 1.465 . S
C1027 C1022 1.399 . S
C1027 C1026 1.394 . S
C1027 C1028 1.516 . S
C1028 C1027 1.516 . S
C1028 C1029 1.502 . S
C1028 C1030 1.561 . S
C1028 C1031 1.526 . S
C1029 H1013 0.959 . S
C1029 H1014 0.959 . S
C1029 H1015 0.961 . S
C1029 C1028 1.502 . S
C1030 H1016 0.960 . S
C1030 H1017 0.961 . S
C1030 H1018 0.959 . S
C1030 C1028 1.561 . S
C1031 C1028 1.526 . S
C1031 C1032 1.396 . S
C1031 C1036 1.390 . S
C1032 C1026 1.465 . S
C1032 C1031 1.396 . S
C1032 C1033 1.399 . S
C1033 H1019 0.929 . S
C1033 C1032 1.399 . S
C1033 C1034 1.385 . S
C1034 H1020 0.931 . S
C1034 C1033 1.385 . S
C1034 C1035 1.389 . S
C1035 C1034 1.389 . S
C1035 C1036 1.387 . S
C1036 H1021 0.930 . S
C1036 C1031 1.390 . S
C1036 C1035 1.387 . S
H1037 C1049 0.930 . S
H1038 C1051 0.930 1_455 S
H1039 C1052 0.930 . S
H1040 C1056 0.959 . S
H1041 C1056 0.959 . S
H1042 C1056 0.961 . S
H1043 C1057 0.960 . S
H1044 C1057 0.961 . S
H1045 C1057 0.959 . S
H1046 C1060 0.929 . S
H1047 C1061 0.931 . S
H1048 C1063 0.930 . S
C1049 H1037 0.930 . S
C1049 C1050 1.399 1_655 S
C1049 C1054 1.399 . S
C1050 C1049 1.399 1_455 S
C1050 C1051 1.376 1_455 S
C1051 H1038 0.930 1_655 S
C1051 C1050 1.376 1_655 S
C1051 C1052 1.388 . S
C1052 H1039 0.930 . S
C1052 C1051 1.388 . S
C1052 C1053 1.390 . S
C1053 C1052 1.390 . S
C1053 C1054 1.394 . S
C1053 C1059 1.465 . S
C1054 C1049 1.399 . S
C1054 C1053 1.394 . S
C1054 C1055 1.516 . S
C1055 C1054 1.516 . S
C1055 C1056 1.502 . S
C1055 C1057 1.561 . S
C1055 C1058 1.526 . S
C1056 H1040 0.959 . S
C1056 H1041 0.959 . S
C1056 H1042 0.961 . S
C1056 C1055 1.502 . S
C1057 H1043 0.960 . S
C1057 H1044 0.961 . S
C1057 H1045 0.959 . S
C1057 C1055 1.561 . S
C1058 C1055 1.526 . S
C1058 C1059 1.396 . S
C1058 C1063 1.390 . S
C1059 C1053 1.465 . S
C1059 C1058 1.396 . S
C1059 C1060 1.399 . S
C1060 H1046 0.929 . S
C1060 C1059 1.399 . S
C1060 C1061 1.385 . S
C1061 H1047 0.931 . S
C1061 C1060 1.385 . S
C1061 C1062 1.389 . S
C1062 C1061 1.389 . S
C1062 C1063 1.387 . S
C1063 H1048 0.930 . S
C1063 C1058 1.390 . S
C1063 C1062 1.387 . S
H1064 C1076 0.930 . S
H1065 C1078 0.930 . S
H1066 C1079 0.930 . S
H1067 C1083 0.959 . S
H1068 C1083 0.959 . S
H1069 C1083 0.961 . S
H1070 C1084 0.960 . S
H1071 C1084 0.961 . S
H1072 C1084 0.959 . S
H1073 C1087 0.929 . S
H1074 C1088 0.931 . S
H1075 C1090 0.930 . S
C1076 H1064 0.930 . S
C1076 C1077 1.399 . S
C1076 C1081 1.399 . S
C1077 C1076 1.399 . S
C1077 C1078 1.376 . S
C1078 H1065 0.930 . S
C1078 C1077 1.376 . S
C1078 C1079 1.388 . S
C1079 H1066 0.930 . S
C1079 C1078 1.388 . S
C1079 C1080 1.390 . S
C1080 C1079 1.390 . S
C1080 C1081 1.394 . S
C1080 C1086 1.465 . S
C1081 C1076 1.399 . S
C1081 C1080 1.394 . S
C1081 C1082 1.516 . S
C1082 C1081 1.516 . S
C1082 C1083 1.502 . S
C1082 C1084 1.561 . S
C1082 C1085 1.526 . S
C1083 H1067 0.959 . S
C1083 H1068 0.959 . S
C1083 H1069 0.961 . S
C1083 C1082 1.502 . S
C1084 H1070 0.960 . S
C1084 H1071 0.961 . S
C1084 H1072 0.959 . S
C1084 C1082 1.561 . S
C1085 C1082 1.526 . S
C1085 C1086 1.396 . S
C1085 C1090 1.390 . S
C1086 C1080 1.465 . S
C1086 C1085 1.396 . S
C1086 C1087 1.399 . S
C1087 H1073 0.929 . S
C1087 C1086 1.399 . S
C1087 C1088 1.385 . S
C1088 H1074 0.931 . S
C1088 C1087 1.385 . S
C1088 C1089 1.389 . S
C1089 C1088 1.389 . S
C1089 C1090 1.387 . S
C1090 H1075 0.930 . S
C1090 C1085 1.390 . S
C1090 C1089 1.387 . S
H1091 C1103 0.930 . S
H1092 C1105 0.939 . S
H1093 C1106 0.930 . S
H1094 C1110 0.959 . S
H1095 C1110 0.959 . S
H1096 C1110 0.961 . S
H1097 C1111 0.960 . S
H1098 C1111 0.961 . S
H1099 C1111 0.959 . S
H1100 C1114 0.929 . S
H1101 C1115 0.931 . S
H1102 C1117 0.930 . S
C1103 H1091 0.930 . S
C1103 C1104 1.407 . S
C1103 C1108 1.399 . S
C1104 C1103 1.407 . S
C1104 C1105 1.382 . S
C1105 H1092 0.939 . S
C1105 C1104 1.382 . S
C1105 C1106 1.388 . S
C1106 H1093 0.930 . S
C1106 C1105 1.388 . S
C1106 C1107 1.390 . S
C1107 C1106 1.390 . S
C1107 C1108 1.394 . S
C1107 C1113 1.465 . S
C1108 C1103 1.399 . S
C1108 C1107 1.394 . S
C1108 C1109 1.516 . S
C1109 C1108 1.516 . S
C1109 C1110 1.502 . S
C1109 C1111 1.561 . S
C1109 C1112 1.526 . S
C1110 H1094 0.959 . S
C1110 H1095 0.959 . S
C1110 H1096 0.961 . S
C1110 C1109 1.502 . S
C1111 H1097 0.960 . S
C1111 H1098 0.961 . S
C1111 H1099 0.959 . S
C1111 C1109 1.561 . S
C1112 C1109 1.526 . S
C1112 C1113 1.396 . S
C1112 C1117 1.390 . S
C1113 C1107 1.465 . S
C1113 C1112 1.396 . S
C1113 C1114 1.399 . S
C1114 H1100 0.929 . S
C1114 C1113 1.399 . S
C1114 C1115 1.385 . S
C1115 H1101 0.931 . S
C1115 C1114 1.385 . S
C1115 C1116 1.389 . S
C1116 C1115 1.389 . S
C1116 C1117 1.387 . S
C1117 H1102 0.930 . S
C1117 C1112 1.390 . S
C1117 C1116 1.387 . S
H1118 C1130 0.930 . S
H1119 C1132 0.930 . S
H1120 C1133 0.930 . S
H1121 C1137 0.959 . S
H1122 C1137 0.959 . S
H1123 C1137 0.961 . S
H1124 C1138 0.960 . S
H1125 C1138 0.961 . S
H1126 C1138 0.959 . S
H1127 C1141 0.929 . S
H1128 C1142 0.931 . S
H1129 C1144 0.930 . S
C1130 H1118 0.930 . S
C1130 C1131 1.399 . S
C1130 C1135 1.399 . S
C1131 C1130 1.399 . S
C1131 C1132 1.376 . S
C1132 H1119 0.930 . S
C1132 C1131 1.376 . S
C1132 C1133 1.388 . S
C1133 H1120 0.930 . S
C1133 C1132 1.388 . S
C1133 C1134 1.390 . S
C1134 C1133 1.390 . S
C1134 C1135 1.394 . S
C1134 C1140 1.465 . S
C1135 C1130 1.399 . S
C1135 C1134 1.394 . S
C1135 C1136 1.516 . S
C1136 C1135 1.516 . S
C1136 C1137 1.502 . S
C1136 C1138 1.561 . S
C1136 C1139 1.526 . S
C1137 H1121 0.959 . S
C1137 H1122 0.959 . S
C1137 H1123 0.961 . S
C1137 C1136 1.502 . S
C1138 H1124 0.960 . S
C1138 H1125 0.961 . S
C1138 H1126 0.959 . S
C1138 C1136 1.561 . S
C1139 C1136 1.526 . S
C1139 C1140 1.396 . S
C1139 C1144 1.390 . S
C1140 C1134 1.465 . S
C1140 C1139 1.396 . S
C1140 C1141 1.399 . S
C1141 H1127 0.929 . S
C1141 C1140 1.399 . S
C1141 C1142 1.385 . S
C1142 H1128 0.931 . S
C1142 C1141 1.385 . S
C1142 C1143 1.389 . S
C1143 C1142 1.389 . S
C1143 C1144 1.387 . S
C1144 H1129 0.930 . S
C1144 C1139 1.390 . S
C1144 C1143 1.387 . S
H1145 C1157 0.930 . S
H1146 C1159 0.930 . S
H1147 C1160 0.930 . S
H1148 C1164 0.959 . S
H1149 C1164 0.959 . S
H1150 C1164 0.961 . S
H1151 C1165 0.960 . S
H1152 C1165 0.961 . S
H1153 C1165 0.959 . S
H1154 C1168 0.929 . S
H1155 C1169 0.931 . S
H1156 C1171 0.930 . S
C1157 H1145 0.930 . S
C1157 C1158 1.399 . S
C1157 C1162 1.399 . S
C1158 C1157 1.399 . S
C1158 C1159 1.376 . S
C1159 H1146 0.930 . S
C1159 C1158 1.376 . S
C1159 C1160 1.388 . S
C1160 H1147 0.930 . S
C1160 C1159 1.388 . S
C1160 C1161 1.390 . S
C1161 C1160 1.390 . S
C1161 C1162 1.394 . S
C1161 C1167 1.465 . S
C1162 C1157 1.399 . S
C1162 C1161 1.394 . S
C1162 C1163 1.516 . S
C1163 C1162 1.516 . S
C1163 C1164 1.502 . S
C1163 C1165 1.561 . S
C1163 C1166 1.526 . S
C1164 H1148 0.959 . S
C1164 H1149 0.959 . S
C1164 H1150 0.961 . S
C1164 C1163 1.502 . S
C1165 H1151 0.960 . S
C1165 H1152 0.961 . S
C1165 H1153 0.959 . S
C1165 C1163 1.561 . S
C1166 C1163 1.526 . S
C1166 C1167 1.396 . S
C1166 C1171 1.390 . S
C1167 C1161 1.465 . S
C1167 C1166 1.396 . S
C1167 C1168 1.399 . S
C1168 H1154 0.929 . S
C1168 C1167 1.399 . S
C1168 C1169 1.385 . S
C1169 H1155 0.931 . S
C1169 C1168 1.385 . S
C1169 C1170 1.389 . S
C1170 C1169 1.389 . S
C1170 C1171 1.387 . S
C1171 H1156 0.930 . S
C1171 C1166 1.390 . S
C1171 C1170 1.387 . S
H1172 C1184 0.930 . S
H1173 C1186 0.930 . S
H1174 C1187 0.930 . S
H1175 C1191 0.959 . S
H1176 C1191 0.959 . S
H1177 C1191 0.961 . S
H1178 C1192 0.960 . S
H1179 C1192 0.961 . S
H1180 C1192 0.959 . S
H1181 C1195 0.929 . S
H1182 C1196 0.931 . S
H1183 C1198 0.930 . S
C1184 H1172 0.930 . S
C1184 C1185 1.399 . S
C1184 C1189 1.399 . S
C1185 C1184 1.399 . S
C1185 C1186 1.376 . S
C1186 H1173 0.930 . S
C1186 C1185 1.376 . S
C1186 C1187 1.388 . S
C1187 H1174 0.930 . S
C1187 C1186 1.388 . S
C1187 C1188 1.390 . S
C1188 C1187 1.390 . S
C1188 C1189 1.394 . S
C1188 C1194 1.465 . S
C1189 C1184 1.399 . S
C1189 C1188 1.394 . S
C1189 C1190 1.516 . S
C1190 C1189 1.516 . S
C1190 C1191 1.502 . S
C1190 C1192 1.561 . S
C1190 C1193 1.526 . S
C1191 H1175 0.959 . S
C1191 H1176 0.959 . S
C1191 H1177 0.961 . S
C1191 C1190 1.502 . S
C1192 H1178 0.960 . S
C1192 H1179 0.961 . S
C1192 H1180 0.959 . S
C1192 C1190 1.561 . S
C1193 C1190 1.526 . S
C1193 C1194 1.396 . S
C1193 C1198 1.390 . S
C1194 C1188 1.465 . S
C1194 C1193 1.396 . S
C1194 C1195 1.399 . S
C1195 H1181 0.929 . S
C1195 C1194 1.399 . S
C1195 C1196 1.385 . S
C1196 H1182 0.931 . S
C1196 C1195 1.385 . S
C1196 C1197 1.389 . S
C1197 C1196 1.389 . S
C1197 C1198 1.387 . S
C1198 H1183 0.930 . S
C1198 C1193 1.390 . S
C1198 C1197 1.387 . S
H1199 C1211 0.930 . S
H1200 C1213 0.930 . S
H1201 C1214 0.930 . S
H1202 C1218 0.959 . S
H1203 C1218 0.959 . S
H1204 C1218 0.961 . S
H1205 C1219 0.960 . S
H1206 C1219 0.961 . S
H1207 C1219 0.959 . S
H1208 C1222 0.929 . S
H1209 C1223 0.931 . S
H1210 C1225 0.930 . S
C1211 H1199 0.930 . S
C1211 C1212 1.399 . S
C1211 C1216 1.399 . S
C1212 C1211 1.399 . S
C1212 C1213 1.376 . S
C1213 H1200 0.930 . S
C1213 C1212 1.376 . S
C1213 C1214 1.388 . S
C1214 H1201 0.930 . S
C1214 C1213 1.388 . S
C1214 C1215 1.390 . S
C1215 C1214 1.390 . S
C1215 C1216 1.394 . S
C1215 C1221 1.465 . S
C1216 C1211 1.399 . S
C1216 C1215 1.394 . S
C1216 C1217 1.516 . S
C1217 C1216 1.516 . S
C1217 C1218 1.502 . S
C1217 C1219 1.561 . S
C1217 C1220 1.526 . S
C1218 H1202 0.959 . S
C1218 H1203 0.959 . S
C1218 H1204 0.961 . S
C1218 C1217 1.502 . S
C1219 H1205 0.960 . S
C1219 H1206 0.961 . S
C1219 H1207 0.959 . S
C1219 C1217 1.561 . S
C1220 C1217 1.526 . S
C1220 C1221 1.396 . S
C1220 C1225 1.390 . S
C1221 C1215 1.465 . S
C1221 C1220 1.396 . S
C1221 C1222 1.399 . S
C1222 H1208 0.929 . S
C1222 C1221 1.399 . S
C1222 C1223 1.385 . S
C1223 H1209 0.931 . S
C1223 C1222 1.385 . S
C1223 C1224 1.389 . S
C1224 C1223 1.389 . S
C1224 C1225 1.387 . S
C1225 H1210 0.930 . S
C1225 C1220 1.390 . S
C1225 C1224 1.387 . S
H1226 C1238 0.930 . S
H1227 C1240 0.930 . S
H1228 C1241 0.930 . S
H1229 C1245 0.959 . S
H1230 C1245 0.959 . S
H1231 C1245 0.961 . S
H1232 C1246 0.960 . S
H1233 C1246 0.961 . S
H1234 C1246 0.959 . S
H1235 C1249 0.929 . S
H1236 C1250 0.931 . S
H1237 C1252 0.930 . S
C1238 H1226 0.930 . S
C1238 C1239 1.399 . S
C1238 C1243 1.399 . S
C1239 C1238 1.399 . S
C1239 C1240 1.376 . S
C1240 H1227 0.930 . S
C1240 C1239 1.376 . S
C1240 C1241 1.388 . S
C1241 H1228 0.930 . S
C1241 C1240 1.388 . S
C1241 C1242 1.390 . S
C1242 C1241 1.390 . S
C1242 C1243 1.394 . S
C1242 C1248 1.465 . S
C1243 C1238 1.399 . S
C1243 C1242 1.394 . S
C1243 C1244 1.516 . S
C1244 C1243 1.516 . S
C1244 C1245 1.502 . S
C1244 C1246 1.561 . S
C1244 C1247 1.526 . S
C1245 H1229 0.959 . S
C1245 H1230 0.959 . S
C1245 H1231 0.961 . S
C1245 C1244 1.502 . S
C1246 H1232 0.960 . S
C1246 H1233 0.961 . S
C1246 H1234 0.959 . S
C1246 C1244 1.561 . S
C1247 C1244 1.526 . S
C1247 C1248 1.396 . S
C1247 C1252 1.390 . S
C1248 C1242 1.465 . S
C1248 C1247 1.396 . S
C1248 C1249 1.399 . S
C1249 H1235 0.929 . S
C1249 C1248 1.399 . S
C1249 C1250 1.385 . S
C1250 H1236 0.931 . S
C1250 C1249 1.385 . S
C1250 C1251 1.389 . S
C1251 C1250 1.389 . S
C1251 C1252 1.387 . S
C1252 H1237 0.930 . S
C1252 C1247 1.390 . S
C1252 C1251 1.387 . S
H1253 C1265 0.930 . S
H1254 C1267 0.930 . S
H1255 C1268 0.930 . S
H1256 C1272 0.959 . S
H1257 C1272 0.959 . S
H1258 C1272 0.961 . S
H1259 C1273 0.960 . S
H1260 C1273 0.961 . S
H1261 C1273 0.959 . S
H1262 C1276 0.929 . S
H1263 C1277 0.931 . S
H1264 C1279 0.930 1_655 S
C1265 H1253 0.930 . S
C1265 C1266 1.399 . S
C1265 C1270 1.399 . S
C1266 C1265 1.399 . S
C1266 C1267 1.376 . S
C1267 H1254 0.930 . S
C1267 C1266 1.376 . S
C1267 C1268 1.388 . S
C1268 H1255 0.930 . S
C1268 C1267 1.388 . S
C1268 C1269 1.390 . S
C1269 C1268 1.390 . S
C1269 C1270 1.394 . S
C1269 C1275 1.465 . S
C1270 C1265 1.399 . S
C1270 C1269 1.394 . S
C1270 C1271 1.516 . S
C1271 C1270 1.516 . S
C1271 C1272 1.502 . S
C1271 C1273 1.561 . S
C1271 C1274 1.526 . S
C1272 H1256 0.959 . S
C1272 H1257 0.959 . S
C1272 H1258 0.961 . S
C1272 C1271 1.502 . S
C1273 H1259 0.960 . S
C1273 H1260 0.961 . S
C1273 H1261 0.959 . S
C1273 C1271 1.561 . S
C1274 C1271 1.526 . S
C1274 C1275 1.396 . S
C1274 C1279 1.390 . S
C1275 C1269 1.465 . S
C1275 C1274 1.396 . S
C1275 C1276 1.399 . S
C1276 H1262 0.929 . S
C1276 C1275 1.399 . S
C1276 C1277 1.385 . S
C1277 H1263 0.931 . S
C1277 C1276 1.385 . S
C1277 C1278 1.433 . S
C1278 C1277 1.433 . S
C1278 C1279 1.396 . S
C1279 H1264 0.930 1_455 S
C1279 C1274 1.390 . S
C1279 C1278 1.396 . S
H1280 C1292 0.930 . S
H1281 C1294 0.930 . S
H1282 C1295 0.930 . S
H1283 C1299 0.959 . S
H1284 C1299 0.959 . S
H1285 C1299 0.961 . S
H1286 C1300 0.960 . S
H1287 C1300 0.961 . S
H1288 C1300 0.959 . S
H1289 C1303 0.929 . S
H1290 C1304 0.931 . S
H1291 C1306 0.930 . S
C1292 H1280 0.930 . S
C1292 C1293 1.399 . S
C1292 C1297 1.399 . S
C1293 C1292 1.399 . S
C1293 C1294 1.376 . S
C1294 H1281 0.930 . S
C1294 C1293 1.376 . S
C1294 C1295 1.388 . S
C1295 H1282 0.930 . S
C1295 C1294 1.388 . S
C1295 C1296 1.390 . S
C1296 C1295 1.390 . S
C1296 C1297 1.394 . S
C1296 C1302 1.465 . S
C1297 C1292 1.399 . S
C1297 C1296 1.394 . S
C1297 C1298 1.516 . S
C1298 C1297 1.516 . S
C1298 C1299 1.502 . S
C1298 C1300 1.561 . S
C1298 C1301 1.526 . S
C1299 H1283 0.959 . S
C1299 H1284 0.959 . S
C1299 H1285 0.961 . S
C1299 C1298 1.502 . S
C1300 H1286 0.960 . S
C1300 H1287 0.961 . S
C1300 H1288 0.959 . S
C1300 C1298 1.561 . S
C1301 C1298 1.526 . S
C1301 C1302 1.396 . S
C1301 C1306 1.390 . S
C1302 C1296 1.465 . S
C1302 C1301 1.396 . S
C1302 C1303 1.399 . S
C1303 H1289 0.929 . S
C1303 C1302 1.399 . S
C1303 C1304 1.385 . S
C1304 H1290 0.931 . S
C1304 C1303 1.385 . S
C1304 C1305 1.389 . S
C1305 C1304 1.389 . S
C1305 C1306 1.387 . S
C1306 H1291 0.930 . S
C1306 C1301 1.390 . S
C1306 C1305 1.387 . S
H1307 C1319 0.930 . S
H1308 C1321 0.930 . S
H1309 C1322 0.930 . S
H1310 C1326 0.959 . S
H1311 C1326 0.959 . S
H1312 C1326 0.961 . S
H1313 C1327 0.960 . S
H1314 C1327 0.961 . S
H1315 C1327 0.959 . S
H1316 C1330 0.929 . S
H1317 C1331 0.931 . S
H1318 C1333 0.930 . S
C1319 H1307 0.930 . S
C1319 C1320 1.399 . S
C1319 C1324 1.399 . S
C1320 C1319 1.399 . S
C1320 C1321 1.376 . S
C1321 H1308 0.930 . S
C1321 C1320 1.376 . S
C1321 C1322 1.388 . S
C1322 H1309 0.930 . S
C1322 C1321 1.388 . S
C1322 C1323 1.390 . S
C1323 C1322 1.390 . S
C1323 C1324 1.394 . S
C1323 C1329 1.465 . S
C1324 C1319 1.399 . S
C1324 C1323 1.394 . S
C1324 C1325 1.516 . S
C1325 C1324 1.516 . S
C1325 C1326 1.502 . S
C1325 C1327 1.561 . S
C1325 C1328 1.526 . S
C1326 H1310 0.959 . S
C1326 H1311 0.959 . S
C1326 H1312 0.961 . S
C1326 C1325 1.502 . S
C1327 H1313 0.960 . S
C1327 H1314 0.961 . S
C1327 H1315 0.959 . S
C1327 C1325 1.561 . S
C1328 C1325 1.526 . S
C1328 C1329 1.396 . S
C1328 C1333 1.390 . S
C1329 C1323 1.465 . S
C1329 C1328 1.396 . S
C1329 C1330 1.399 . S
C1330 H1316 0.929 . S
C1330 C1329 1.399 . S
C1330 C1331 1.385 . S
C1331 H1317 0.931 . S
C1331 C1330 1.385 . S
C1331 C1332 1.389 . S
C1332 C1331 1.389 . S
C1332 C1333 1.387 . S
C1333 H1318 0.930 . S
C1333 C1328 1.390 . S
C1333 C1332 1.387 . S
H1334 C1346 0.930 . S
H1335 C1348 0.930 . S
H1336 C1349 0.930 . S
H1337 C1353 0.959 . S
H1338 C1353 0.959 . S
H1339 C1353 0.961 . S
H1340 C1354 0.960 . S
H1341 C1354 0.961 . S
H1342 C1354 0.959 . S
H1343 C1357 0.929 . S
H1344 C1358 0.931 . S
H1345 C1360 0.930 . S
C1346 H1334 0.930 . S
C1346 C1347 1.399 . S
C1346 C1351 1.399 . S
C1347 C1346 1.399 . S
C1347 C1348 1.376 . S
C1348 H1335 0.930 . S
C1348 C1347 1.376 . S
C1348 C1349 1.388 . S
C1349 H1336 0.930 . S
C1349 C1348 1.388 . S
C1349 C1350 1.390 . S
C1350 C1349 1.390 . S
C1350 C1351 1.394 . S
C1350 C1356 1.465 . S
C1351 C1346 1.399 . S
C1351 C1350 1.394 . S
C1351 C1352 1.516 . S
C1352 C1351 1.516 . S
C1352 C1353 1.502 . S
C1352 C1354 1.561 . S
C1352 C1355 1.526 . S
C1353 H1337 0.959 . S
C1353 H1338 0.959 . S
C1353 H1339 0.961 . S
C1353 C1352 1.502 . S
C1354 H1340 0.960 . S
C1354 H1341 0.961 . S
C1354 H1342 0.959 . S
C1354 C1352 1.561 . S
C1355 C1352 1.526 . S
C1355 C1356 1.396 . S
C1355 C1360 1.390 . S
C1356 C1350 1.465 . S
C1356 C1355 1.396 . S
C1356 C1357 1.399 . S
C1357 H1343 0.929 . S
C1357 C1356 1.399 . S
C1357 C1358 1.385 . S
C1358 H1344 0.931 . S
C1358 C1357 1.385 . S
C1358 C1359 1.389 . S
C1359 C1358 1.389 . S
C1359 C1360 1.387 . S
C1360 H1345 0.930 . S
C1360 C1355 1.390 . S
C1360 C1359 1.387 . S
H1361 C1373 0.930 . S
H1362 C1375 0.930 . S
H1363 C1376 0.930 . S
H1364 C1380 0.959 . S
H1365 C1380 0.959 . S
H1366 C1380 0.961 . S
H1367 C1381 0.960 . S
H1368 C1381 0.961 . S
H1369 C1381 0.959 . S
H1370 C1384 0.929 . S
H1371 C1385 0.931 1_655 S
H1372 C1387 0.930 . S
C1373 H1361 0.930 . S
C1373 C1374 1.399 . S
C1373 C1378 1.399 . S
C1374 C1373 1.399 . S
C1374 C1375 1.376 . S
C1375 H1362 0.930 . S
C1375 C1374 1.376 . S
C1375 C1376 1.388 . S
C1376 H1363 0.930 . S
C1376 C1375 1.388 . S
C1376 C1377 1.390 . S
C1377 C1376 1.390 . S
C1377 C1378 1.394 . S
C1377 C1383 1.465 . S
C1378 C1373 1.399 . S
C1378 C1377 1.394 . S
C1378 C1379 1.516 . S
C1379 C1378 1.516 . S
C1379 C1380 1.502 . S
C1379 C1381 1.561 . S
C1379 C1382 1.526 . S
C1380 H1364 0.959 . S
C1380 H1365 0.959 . S
C1380 H1366 0.961 . S
C1380 C1379 1.502 . S
C1381 H1367 0.960 . S
C1381 H1368 0.961 . S
C1381 H1369 0.959 . S
C1381 C1379 1.561 . S
C1382 C1379 1.526 . S
C1382 C1383 1.396 . S
C1382 C1387 1.390 . S
C1383 C1377 1.465 . S
C1383 C1382 1.396 . S
C1383 C1384 1.399 . S
C1384 H1370 0.929 . S
C1384 C1383 1.399 . S
C1384 C1385 1.385 . S
C1385 H1371 0.931 1_455 S
C1385 C1384 1.385 . S
C1385 C1386 1.389 1_455 S
C1386 C1385 1.389 1_655 S
C1386 C1387 1.385 1_655 S
C1387 H1372 0.930 . S
C1387 C1382 1.390 . S
C1387 C1386 1.385 1_455 S
H1388 C1400 0.930 . S
H1389 C1402 0.930 . S
H1390 C1403 0.930 . S
H1391 C1407 0.959 . S
H1392 C1407 0.959 . S
H1393 C1407 0.961 . S
H1394 C1408 0.960 . S
H1395 C1408 0.961 . S
H1396 C1408 0.959 . S
H1397 C1411 0.929 . S
H1398 C1412 0.931 . S
H1399 C1414 0.930 . S
C1400 H1388 0.930 . S
C1400 C1401 1.399 . S
C1400 C1405 1.399 . S
C1401 C1400 1.399 . S
C1401 C1402 1.376 . S
C1402 H1389 0.930 . S
C1402 C1401 1.376 . S
C1402 C1403 1.388 . S
C1403 H1390 0.930 . S
C1403 C1402 1.388 . S
C1403 C1404 1.390 . S
C1404 C1403 1.390 . S
C1404 C1405 1.394 . S
C1404 C1410 1.465 . S
C1405 C1400 1.399 . S
C1405 C1404 1.394 . S
C1405 C1406 1.516 . S
C1406 C1405 1.516 . S
C1406 C1407 1.502 . S
C1406 C1408 1.561 . S
C1406 C1409 1.526 . S
C1407 H1391 0.959 . S
C1407 H1392 0.959 . S
C1407 H1393 0.961 . S
C1407 C1406 1.502 . S
C1408 H1394 0.960 . S
C1408 H1395 0.961 . S
C1408 H1396 0.959 . S
C1408 C1406 1.561 . S
C1409 C1406 1.526 . S
C1409 C1410 1.396 . S
C1409 C1414 1.390 . S
C1410 C1404 1.465 . S
C1410 C1409 1.396 . S
C1410 C1411 1.399 . S
C1411 H1397 0.929 . S
C1411 C1410 1.399 . S
C1411 C1412 1.385 . S
C1412 H1398 0.931 . S
C1412 C1411 1.385 . S
C1412 C1413 1.389 . S
C1413 C1412 1.389 . S
C1413 C1414 1.387 . S
C1414 H1399 0.930 . S
C1414 C1409 1.390 . S
C1414 C1413 1.387 . S
H1415 C1427 0.930 . S
H1416 C1429 0.915 1_655 S
H1417 C1430 0.930 . S
H1418 C1434 0.959 . S
H1419 C1434 0.959 . S
H1420 C1434 0.961 . S
H1421 C1435 0.960 . S
H1422 C1435 0.961 . S
H1423 C1435 0.959 . S
H1424 C1438 0.929 . S
H1425 C1439 0.931 . S
H1426 C1441 0.930 . S
C1427 H1415 0.930 . S
C1427 C1428 1.399 1_455 S
C1427 C1432 1.399 . S
C1428 C1427 1.399 1_655 S
C1428 C1429 1.375 1_655 S
C1429 H1416 0.915 1_455 S
C1429 C1428 1.375 1_455 S
C1429 C1430 1.405 . S
C1430 H1417 0.930 . S
C1430 C1429 1.405 . S
C1430 C1431 1.390 . S
C1431 C1430 1.390 . S
C1431 C1432 1.394 . S
C1431 C1437 1.465 . S
C1432 C1427 1.399 . S
C1432 C1431 1.394 . S
C1432 C1433 1.516 . S
C1433 C1432 1.516 . S
C1433 C1434 1.502 . S
C1433 C1435 1.561 . S
C1433 C1436 1.526 . S
C1434 H1418 0.959 . S
C1434 H1419 0.959 . S
C1434 H1420 0.961 . S
C1434 C1433 1.502 . S
C1435 H1421 0.960 . S
C1435 H1422 0.961 . S
C1435 H1423 0.959 . S
C1435 C1433 1.561 . S
C1436 C1433 1.526 . S
C1436 C1437 1.396 . S
C1436 C1441 1.390 . S
C1437 C1431 1.465 . S
C1437 C1436 1.396 . S
C1437 C1438 1.399 . S
C1438 H1424 0.929 . S
C1438 C1437 1.399 . S
C1438 C1439 1.385 . S
C1439 H1425 0.931 . S
C1439 C1438 1.385 . S
C1439 C1440 1.389 . S
C1440 C1439 1.389 . S
C1440 C1441 1.387 . S
C1441 H1426 0.930 . S
C1441 C1436 1.390 . S
C1441 C1440 1.387 . S
H1442 C1454 0.930 . S
H1443 C1456 0.930 . S
H1444 C1457 0.930 . S
H1445 C1461 0.959 . S
H1446 C1461 0.959 . S
H1447 C1461 0.961 . S
H1448 C1462 0.960 . S
H1449 C1462 0.961 . S
H1450 C1462 0.959 . S
H1451 C1465 0.929 . S
H1452 C1466 0.931 . S
H1453 C1468 0.930 . S
C1454 H1442 0.930 . S
C1454 C1455 1.399 . S
C1454 C1459 1.399 . S
C1455 C1454 1.399 . S
C1455 C1456 1.376 . S
C1456 H1443 0.930 . S
C1456 C1455 1.376 . S
C1456 C1457 1.388 . S
C1457 H1444 0.930 . S
C1457 C1456 1.388 . S
C1457 C1458 1.390 . S
C1458 C1457 1.390 . S
C1458 C1459 1.394 . S
C1458 C1464 1.465 . S
C1459 C1454 1.399 . S
C1459 C1458 1.394 . S
C1459 C1460 1.516 . S
C1460 C1459 1.516 . S
C1460 C1461 1.502 . S
C1460 C1462 1.561 . S
C1460 C1463 1.526 . S
C1461 H1445 0.959 . S
C1461 H1446 0.959 . S
C1461 H1447 0.961 . S
C1461 C1460 1.502 . S
C1462 H1448 0.960 . S
C1462 H1449 0.961 . S
C1462 H1450 0.959 . S
C1462 C1460 1.561 . S
C1463 C1460 1.526 . S
C1463 C1464 1.396 . S
C1463 C1468 1.390 . S
C1464 C1458 1.465 . S
C1464 C1463 1.396 . S
C1464 C1465 1.399 . S
C1465 H1451 0.929 . S
C1465 C1464 1.399 . S
C1465 C1466 1.385 . S
C1466 H1452 0.931 . S
C1466 C1465 1.385 . S
C1466 C1467 1.389 . S
C1467 C1466 1.389 . S
C1467 C1468 1.387 . S
C1468 H1453 0.930 . S
C1468 C1463 1.390 . S
C1468 C1467 1.387 . S
H1469 C1481 0.930 . S
H1470 C1483 0.930 . S
H1471 C1484 0.930 . S
H1472 C1488 0.959 . S
H1473 C1488 0.959 . S
H1474 C1488 0.961 . S
H1475 C1489 0.960 . S
H1476 C1489 0.961 . S
H1477 C1489 0.959 . S
H1478 C1492 0.929 . S
H1479 C1493 0.931 . S
H1480 C1495 0.930 . S
C1481 H1469 0.930 . S
C1481 C1482 1.399 . S
C1481 C1486 1.399 . S
C1482 C1481 1.399 . S
C1482 C1483 1.376 . S
C1483 H1470 0.930 . S
C1483 C1482 1.376 . S
C1483 C1484 1.388 . S
C1484 H1471 0.930 . S
C1484 C1483 1.388 . S
C1484 C1485 1.390 . S
C1485 C1484 1.390 . S
C1485 C1486 1.394 . S
C1485 C1491 1.465 . S
C1486 C1481 1.399 . S
C1486 C1485 1.394 . S
C1486 C1487 1.516 . S
C1487 C1486 1.516 . S
C1487 C1488 1.502 . S
C1487 C1489 1.561 . S
C1487 C1490 1.526 . S
C1488 H1472 0.959 . S
C1488 H1473 0.959 . S
C1488 H1474 0.961 . S
C1488 C1487 1.502 . S
C1489 H1475 0.960 . S
C1489 H1476 0.961 . S
C1489 H1477 0.959 . S
C1489 C1487 1.561 . S
C1490 C1487 1.526 . S
C1490 C1491 1.396 . S
C1490 C1495 1.390 . S
C1491 C1485 1.465 . S
C1491 C1490 1.396 . S
C1491 C1492 1.399 . S
C1492 H1478 0.929 . S
C1492 C1491 1.399 . S
C1492 C1493 1.385 . S
C1493 H1479 0.931 . S
C1493 C1492 1.385 . S
C1493 C1494 1.389 . S
C1494 C1493 1.389 . S
C1494 C1495 1.387 . S
C1495 H1480 0.930 . S
C1495 C1490 1.390 . S
C1495 C1494 1.387 . S
H1496 C1508 0.930 . S
H1497 C1510 0.930 . S
H1498 C1511 0.930 . S
H1499 C1515 0.959 . S
H1500 C1515 0.959 . S
H1501 C1515 0.961 . S
H1502 C1516 0.960 . S
H1503 C1516 0.961 . S
H1504 C1516 0.959 . S
H1505 C1519 0.929 . S
H1506 C1520 0.931 . S
H1507 C1522 0.930 . S
C1508 H1496 0.930 . S
C1508 C1509 1.399 . S
C1508 C1513 1.399 . S
C1509 C1508 1.399 . S
C1509 C1510 1.376 . S
C1510 H1497 0.930 . S
C1510 C1509 1.376 . S
C1510 C1511 1.388 . S
C1511 H1498 0.930 . S
C1511 C1510 1.388 . S
C1511 C1512 1.390 . S
C1512 C1511 1.390 . S
C1512 C1513 1.394 . S
C1512 C1518 1.465 . S
C1513 C1508 1.399 . S
C1513 C1512 1.394 . S
C1513 C1514 1.516 . S
C1514 C1513 1.516 . S
C1514 C1515 1.502 . S
C1514 C1516 1.561 . S
C1514 C1517 1.526 . S
C1515 H1499 0.959 . S
C1515 H1500 0.959 . S
C1515 H1501 0.961 . S
C1515 C1514 1.502 . S
C1516 H1502 0.960 . S
C1516 H1503 0.961 . S
C1516 H1504 0.959 . S
C1516 C1514 1.561 . S
C1517 C1514 1.526 . S
C1517 C1518 1.396 . S
C1517 C1522 1.390 . S
C1518 C1512 1.465 . S
C1518 C1517 1.396 . S
C1518 C1519 1.399 . S
C1519 H1505 0.929 . S
C1519 C1518 1.399 . S
C1519 C1520 1.385 . S
C1520 H1506 0.931 . S
C1520 C1519 1.385 . S
C1520 C1521 1.389 . S
C1521 C1520 1.389 . S
C1521 C1522 1.387 . S
C1522 H1507 0.930 . S
C1522 C1517 1.390 . S
C1522 C1521 1.387 . S
H1523 C1535 0.930 . S
H1524 C1537 0.930 . S
H1525 C1538 0.930 . S
H1526 C1542 0.959 . S
H1527 C1542 0.959 . S
H1528 C1542 0.961 . S
H1529 C1543 0.960 . S
H1530 C1543 0.961 . S
H1531 C1543 0.959 . S
H1532 C1546 0.929 . S
H1533 C1547 0.931 . S
H1534 C1549 0.930 . S
C1535 H1523 0.930 . S
C1535 C1536 1.399 . S
C1535 C1540 1.399 . S
C1536 C1535 1.399 . S
C1536 C1537 1.376 . S
C1537 H1524 0.930 . S
C1537 C1536 1.376 . S
C1537 C1538 1.388 . S
C1538 H1525 0.930 . S
C1538 C1537 1.388 . S
C1538 C1539 1.390 . S
C1539 C1538 1.390 . S
C1539 C1540 1.394 . S
C1539 C1545 1.465 . S
C1540 C1535 1.399 . S
C1540 C1539 1.394 . S
C1540 C1541 1.516 . S
C1541 C1540 1.516 . S
C1541 C1542 1.502 . S
C1541 C1543 1.561 . S
C1541 C1544 1.526 . S
C1542 H1526 0.959 . S
C1542 H1527 0.959 . S
C1542 H1528 0.961 . S
C1542 C1541 1.502 . S
C1543 H1529 0.960 . S
C1543 H1530 0.961 . S
C1543 H1531 0.959 . S
C1543 C1541 1.561 . S
C1544 C1541 1.526 . S
C1544 C1545 1.396 . S
C1544 C1549 1.390 . S
C1545 C1539 1.465 . S
C1545 C1544 1.396 . S
C1545 C1546 1.399 . S
C1546 H1532 0.929 . S
C1546 C1545 1.399 . S
C1546 C1547 1.385 . S
C1547 H1533 0.931 . S
C1547 C1546 1.385 . S
C1547 C1548 1.389 . S
C1548 C1547 1.389 . S
C1548 C1549 1.387 . S
C1549 H1534 0.930 . S
C1549 C1544 1.390 . S
C1549 C1548 1.387 . S
H1550 C1562 0.930 . S
H1551 C1564 0.930 . S
H1552 C1565 0.930 . S
H1553 C1569 0.959 . S
H1554 C1569 0.959 . S
H1555 C1569 0.961 . S
H1556 C1570 0.960 . S
H1557 C1570 0.961 . S
H1558 C1570 0.959 . S
H1559 C1573 0.929 . S
H1560 C1574 0.931 . S
H1561 C1576 0.930 . S
C1562 H1550 0.930 . S
C1562 C1563 1.399 . S
C1562 C1567 1.399 . S
C1563 C1562 1.399 . S
C1563 C1564 1.376 . S
C1564 H1551 0.930 . S
C1564 C1563 1.376 . S
C1564 C1565 1.388 . S
C1565 H1552 0.930 . S
C1565 C1564 1.388 . S
C1565 C1566 1.390 . S
C1566 C1565 1.390 . S
C1566 C1567 1.394 . S
C1566 C1572 1.465 . S
C1567 C1562 1.399 . S
C1567 C1566 1.394 . S
C1567 C1568 1.516 . S
C1568 C1567 1.516 . S
C1568 C1569 1.502 . S
C1568 C1570 1.561 . S
C1568 C1571 1.526 . S
C1569 H1553 0.959 . S
C1569 H1554 0.959 . S
C1569 H1555 0.961 . S
C1569 C1568 1.502 . S
C1570 H1556 0.960 . S
C1570 H1557 0.961 . S
C1570 H1558 0.959 . S
C1570 C1568 1.561 . S
C1571 C1568 1.526 . S
C1571 C1572 1.396 . S
C1571 C1576 1.390 . S
C1572 C1566 1.465 . S
C1572 C1571 1.396 . S
C1572 C1573 1.399 . S
C1573 H1559 0.929 . S
C1573 C1572 1.399 . S
C1573 C1574 1.385 . S
C1574 H1560 0.931 . S
C1574 C1573 1.385 . S
C1574 C1575 1.389 . S
C1575 C1574 1.389 . S
C1575 C1576 1.387 . S
C1576 H1561 0.930 . S
C1576 C1571 1.390 . S
C1576 C1575 1.387 . S
H1577 C1589 0.930 . S
H1578 C1591 0.930 . S
H1579 C1592 0.930 . S
H1580 C1596 0.959 . S
H1581 C1596 0.959 . S
H1582 C1596 0.961 . S
H1583 C1597 0.960 . S
H1584 C1597 0.961 . S
H1585 C1597 0.959 . S
H1586 C1600 0.929 . S
H1587 C1601 0.931 . S
H1588 C1603 0.930 . S
C1589 H1577 0.930 . S
C1589 C1590 1.399 . S
C1589 C1594 1.399 . S
C1590 C1589 1.399 . S
C1590 C1591 1.376 . S
C1591 H1578 0.930 . S
C1591 C1590 1.376 . S
C1591 C1592 1.388 . S
C1592 H1579 0.930 . S
C1592 C1591 1.388 . S
C1592 C1593 1.390 . S
C1593 C1592 1.390 . S
C1593 C1594 1.394 . S
C1593 C1599 1.465 . S
C1594 C1589 1.399 . S
C1594 C1593 1.394 . S
C1594 C1595 1.516 . S
C1595 C1594 1.516 . S
C1595 C1596 1.502 . S
C1595 C1597 1.561 . S
C1595 C1598 1.526 . S
C1596 H1580 0.959 . S
C1596 H1581 0.959 . S
C1596 H1582 0.961 . S
C1596 C1595 1.502 . S
C1597 H1583 0.960 . S
C1597 H1584 0.961 . S
C1597 H1585 0.959 . S
C1597 C1595 1.561 . S
C1598 C1595 1.526 . S
C1598 C1599 1.396 . S
C1598 C1603 1.390 . S
C1599 C1593 1.465 . S
C1599 C1598 1.396 . S
C1599 C1600 1.399 . S
C1600 H1586 0.929 . S
C1600 C1599 1.399 . S
C1600 C1601 1.385 . S
C1601 H1587 0.931 . S
C1601 C1600 1.385 . S
C1601 C1602 1.396 . S
C1602 C1601 1.396 . S
C1602 C1603 1.393 . S
C1603 H1588 0.930 . S
C1603 C1598 1.390 . S
C1603 C1602 1.393 . S
H1604 C1616 0.930 . S
H1605 C1618 0.930 . S
H1606 C1619 0.930 . S
H1607 C1623 0.959 . S
H1608 C1623 0.959 . S
H1609 C1623 0.961 . S
H1610 C1624 0.960 . S
H1611 C1624 0.961 . S
H1612 C1624 0.959 . S
H1613 C1627 0.929 . S
H1614 C1628 0.931 . S
H1615 C1630 0.930 . S
C1616 H1604 0.930 . S
C1616 C1617 1.399 . S
C1616 C1621 1.399 . S
C1617 C1616 1.399 . S
C1617 C1618 1.376 . S
C1618 H1605 0.930 . S
C1618 C1617 1.376 . S
C1618 C1619 1.388 . S
C1619 H1606 0.930 . S
C1619 C1618 1.388 . S
C1619 C1620 1.390 . S
C1620 C1619 1.390 . S
C1620 C1621 1.394 . S
C1620 C1626 1.465 . S
C1621 C1616 1.399 . S
C1621 C1620 1.394 . S
C1621 C1622 1.516 . S
C1622 C1621 1.516 . S
C1622 C1623 1.502 . S
C1622 C1624 1.561 . S
C1622 C1625 1.526 . S
C1623 H1607 0.959 . S
C1623 H1608 0.959 . S
C1623 H1609 0.961 . S
C1623 C1622 1.502 . S
C1624 H1610 0.960 . S
C1624 H1611 0.961 . S
C1624 H1612 0.959 . S
C1624 C1622 1.561 . S
C1625 C1622 1.526 . S
C1625 C1626 1.396 . S
C1625 C1630 1.390 . S
C1626 C1620 1.465 . S
C1626 C1625 1.396 . S
C1626 C1627 1.399 . S
C1627 H1613 0.929 . S
C1627 C1626 1.399 . S
C1627 C1628 1.385 . S
C1628 H1614 0.931 . S
C1628 C1627 1.385 . S
C1628 C1629 1.389 . S
C1629 C1628 1.389 . S
C1629 C1630 1.387 . S
C1630 H1615 0.930 . S
C1630 C1625 1.390 . S
C1630 C1629 1.387 . S
H1631 C1643 0.930 . S
H1632 C1645 0.930 . S
H1633 C1646 0.930 . S
H1634 C1650 0.959 . S
H1635 C1650 0.959 . S
H1636 C1650 0.961 . S
H1637 C1651 0.960 . S
H1638 C1651 0.961 . S
H1639 C1651 0.959 . S
H1640 C1654 0.929 . S
H1641 C1655 0.931 . S
H1642 C1657 0.930 . S
C1643 H1631 0.930 . S
C1643 C1644 1.414 . S
C1643 C1648 1.399 . S
C1644 C1643 1.414 . S
C1644 C1645 1.397 . S
C1645 H1632 0.930 . S
C1645 C1644 1.397 . S
C1645 C1646 1.388 . S
C1646 H1633 0.930 . S
C1646 C1645 1.388 . S
C1646 C1647 1.390 . S
C1647 C1646 1.390 . S
C1647 C1648 1.394 . S
C1647 C1653 1.465 . S
C1648 C1643 1.399 . S
C1648 C1647 1.394 . S
C1648 C1649 1.516 . S
C1649 C1648 1.516 . S
C1649 C1650 1.502 . S
C1649 C1651 1.561 . S
C1649 C1652 1.526 . S
C1650 H1634 0.959 . S
C1650 H1635 0.959 . S
C1650 H1636 0.961 . S
C1650 C1649 1.502 . S
C1651 H1637 0.960 . S
C1651 H1638 0.961 . S
C1651 H1639 0.959 . S
C1651 C1649 1.561 . S
C1652 C1649 1.526 . S
C1652 C1653 1.396 . S
C1652 C1657 1.390 . S
C1653 C1647 1.465 . S
C1653 C1652 1.396 . S
C1653 C1654 1.399 . S
C1654 H1640 0.929 . S
C1654 C1653 1.399 . S
C1654 C1655 1.385 . S
C1655 H1641 0.931 . S
C1655 C1654 1.385 . S
C1655 C1656 1.389 . S
C1656 C1655 1.389 . S
C1656 C1657 1.387 . S
C1657 H1642 0.930 . S
C1657 C1652 1.390 . S
C1657 C1656 1.387 . S
H1658 C1670 0.930 . S
H1659 C1672 0.930 . S
H1660 C1673 0.930 . S
H1661 C1677 0.959 . S
H1662 C1677 0.959 . S
H1663 C1677 0.961 . S
H1664 C1678 0.960 . S
H1665 C1678 0.961 . S
H1666 C1678 0.959 . S
H1667 C1681 0.929 . S
H1668 C1682 0.931 . S
H1669 C1684 0.930 . S
C1670 H1658 0.930 . S
C1670 C1671 1.399 . S
C1670 C1675 1.399 . S
C1671 C1670 1.399 . S
C1671 C1672 1.376 . S
C1672 H1659 0.930 . S
C1672 C1671 1.376 . S
C1672 C1673 1.388 . S
C1673 H1660 0.930 . S
C1673 C1672 1.388 . S
C1673 C1674 1.390 . S
C1674 C1673 1.390 . S
C1674 C1675 1.394 . S
C1674 C1680 1.465 . S
C1675 C1670 1.399 . S
C1675 C1674 1.394 . S
C1675 C1676 1.516 . S
C1676 C1675 1.516 . S
C1676 C1677 1.502 . S
C1676 C1678 1.561 . S
C1676 C1679 1.526 . S
C1677 H1661 0.959 . S
C1677 H1662 0.959 . S
C1677 H1663 0.961 . S
C1677 C1676 1.502 . S
C1678 H1664 0.960 . S
C1678 H1665 0.961 . S
C1678 H1666 0.959 . S
C1678 C1676 1.561 . S
C1679 C1676 1.526 . S
C1679 C1680 1.396 . S
C1679 C1684 1.390 . S
C1680 C1674 1.465 . S
C1680 C1679 1.396 . S
C1680 C1681 1.399 . S
C1681 H1667 0.929 . S
C1681 C1680 1.399 . S
C1681 C1682 1.385 . S
C1682 H1668 0.931 . S
C1682 C1681 1.385 . S
C1682 C1683 1.389 . S
C1683 C1682 1.389 . S
C1683 C1684 1.387 . S
C1684 H1669 0.930 . S
C1684 C1679 1.390 . S
C1684 C1683 1.387 . S
H1685 C1697 0.930 . S
H1686 C1699 0.930 . S
H1687 C1700 0.930 . S
H1688 C1704 0.959 . S
H1689 C1704 0.959 . S
H1690 C1704 0.961 . S
H1691 C1705 0.960 . S
H1692 C1705 0.961 . S
H1693 C1705 0.959 . S
H1694 C1708 0.929 . S
H1695 C1709 0.931 . S
H1696 C1711 0.930 . S
C1697 H1685 0.930 . S
C1697 C1698 1.399 . S
C1697 C1702 1.399 . S
C1698 C1697 1.399 . S
C1698 C1699 1.376 . S
C1699 H1686 0.930 . S
C1699 C1698 1.376 . S
C1699 C1700 1.388 . S
C1700 H1687 0.930 . S
C1700 C1699 1.388 . S
C1700 C1701 1.390 . S
C1701 C1700 1.390 . S
C1701 C1702 1.394 . S
C1701 C1707 1.465 . S
C1702 C1697 1.399 . S
C1702 C1701 1.394 . S
C1702 C1703 1.516 . S
C1703 C1702 1.516 . S
C1703 C1704 1.502 . S
C1703 C1705 1.561 . S
C1703 C1706 1.526 . S
C1704 H1688 0.959 . S
C1704 H1689 0.959 . S
C1704 H1690 0.961 . S
C1704 C1703 1.502 . S
C1705 H1691 0.960 . S
C1705 H1692 0.961 . S
C1705 H1693 0.959 . S
C1705 C1703 1.561 . S
C1706 C1703 1.526 . S
C1706 C1707 1.396 . S
C1706 C1711 1.390 . S
C1707 C1701 1.465 . S
C1707 C1706 1.396 . S
C1707 C1708 1.399 . S
C1708 H1694 0.929 . S
C1708 C1707 1.399 . S
C1708 C1709 1.385 . S
C1709 H1695 0.931 . S
C1709 C1708 1.385 . S
C1709 C1710 1.389 . S
C1710 C1709 1.389 . S
C1710 C1711 1.387 . S
C1711 H1696 0.930 . S
C1711 C1706 1.390 . S
C1711 C1710 1.387 . S
H1712 C1724 0.930 . S
H1713 C1726 0.930 . S
H1714 C1727 0.930 . S
H1715 C1731 0.959 . S
H1716 C1731 0.959 . S
H1717 C1731 0.961 . S
H1718 C1732 0.960 . S
H1719 C1732 0.961 . S
H1720 C1732 0.959 . S
H1721 C1735 0.929 . S
H1722 C1736 0.931 . S
H1723 C1738 0.930 . S
C1724 H1712 0.930 . S
C1724 C1725 1.399 . S
C1724 C1729 1.399 . S
C1725 C1724 1.399 . S
C1725 C1726 1.376 . S
C1726 H1713 0.930 . S
C1726 C1725 1.376 . S
C1726 C1727 1.388 . S
C1727 H1714 0.930 . S
C1727 C1726 1.388 . S
C1727 C1728 1.390 . S
C1728 C1727 1.390 . S
C1728 C1729 1.394 . S
C1728 C1734 1.465 . S
C1729 C1724 1.399 . S
C1729 C1728 1.394 . S
C1729 C1730 1.516 . S
C1730 C1729 1.516 . S
C1730 C1731 1.502 . S
C1730 C1732 1.561 . S
C1730 C1733 1.526 . S
C1731 H1715 0.959 . S
C1731 H1716 0.959 . S
C1731 H1717 0.961 . S
C1731 C1730 1.502 . S
C1732 H1718 0.960 . S
C1732 H1719 0.961 . S
C1732 H1720 0.959 . S
C1732 C1730 1.561 . S
C1733 C1730 1.526 . S
C1733 C1734 1.396 . S
C1733 C1738 1.390 . S
C1734 C1728 1.465 . S
C1734 C1733 1.396 . S
C1734 C1735 1.399 . S
C1735 H1721 0.929 . S
C1735 C1734 1.399 . S
C1735 C1736 1.385 . S
C1736 H1722 0.931 . S
C1736 C1735 1.385 . S
C1736 C1737 1.389 . S
C1737 C1736 1.389 . S
C1737 C1738 1.387 . S
C1738 H1723 0.930 . S
C1738 C1733 1.390 . S
C1738 C1737 1.387 . S
H1739 C1751 0.930 . S
H1740 C1753 0.930 . S
H1741 C1754 0.930 . S
H1742 C1758 0.959 . S
H1743 C1758 0.959 . S
H1744 C1758 0.961 . S
H1745 C1759 0.960 . S
H1746 C1759 0.961 . S
H1747 C1759 0.959 . S
H1748 C1762 0.929 . S
H1749 C1763 0.931 . S
H1750 C1765 0.930 . S
C1751 H1739 0.930 . S
C1751 C1752 1.399 . S
C1751 C1756 1.399 . S
C1752 C1751 1.399 . S
C1752 C1753 1.376 . S
C1753 H1740 0.930 . S
C1753 C1752 1.376 . S
C1753 C1754 1.388 . S
C1754 H1741 0.930 . S
C1754 C1753 1.388 . S
C1754 C1755 1.390 . S
C1755 C1754 1.390 . S
C1755 C1756 1.394 . S
C1755 C1761 1.465 . S
C1756 C1751 1.399 . S
C1756 C1755 1.394 . S
C1756 C1757 1.516 . S
C1757 C1756 1.516 . S
C1757 C1758 1.502 . S
C1757 C1759 1.561 . S
C1757 C1760 1.526 . S
C1758 H1742 0.959 . S
C1758 H1743 0.959 . S
C1758 H1744 0.961 . S
C1758 C1757 1.502 . S
C1759 H1745 0.960 . S
C1759 H1746 0.961 . S
C1759 H1747 0.959 . S
C1759 C1757 1.561 . S
C1760 C1757 1.526 . S
C1760 C1761 1.396 . S
C1760 C1765 1.390 . S
C1761 C1755 1.465 . S
C1761 C1760 1.396 . S
C1761 C1762 1.399 . S
C1762 H1748 0.929 . S
C1762 C1761 1.399 . S
C1762 C1763 1.385 . S
C1763 H1749 0.931 . S
C1763 C1762 1.385 . S
C1763 C1764 1.389 . S
C1764 C1763 1.389 . S
C1764 C1765 1.387 . S
C1765 H1750 0.930 . S
C1765 C1760 1.390 . S
C1765 C1764 1.387 . S
H1766 C1778 0.930 . S
H1767 C1780 0.930 . S
H1768 C1781 0.930 . S
H1769 C1785 0.959 . S
H1770 C1785 0.959 . S
H1771 C1785 0.961 . S
H1772 C1786 0.960 . S
H1773 C1786 0.961 . S
H1774 C1786 0.959 . S
H1775 C1789 0.929 . S
H1776 C1790 0.931 . S
H1777 C1792 0.930 . S
C1778 H1766 0.930 . S
C1778 C1779 1.399 . S
C1778 C1783 1.399 . S
C1779 C1778 1.399 . S
C1779 C1780 1.376 . S
C1780 H1767 0.930 . S
C1780 C1779 1.376 . S
C1780 C1781 1.388 . S
C1781 H1768 0.930 . S
C1781 C1780 1.388 . S
C1781 C1782 1.390 . S
C1782 C1781 1.390 . S
C1782 C1783 1.394 . S
C1782 C1788 1.465 . S
C1783 C1778 1.399 . S
C1783 C1782 1.394 . S
C1783 C1784 1.516 . S
C1784 C1783 1.516 . S
C1784 C1785 1.502 . S
C1784 C1786 1.561 . S
C1784 C1787 1.526 . S
C1785 H1769 0.959 . S
C1785 H1770 0.959 . S
C1785 H1771 0.961 . S
C1785 C1784 1.502 . S
C1786 H1772 0.960 . S
C1786 H1773 0.961 . S
C1786 H1774 0.959 . S
C1786 C1784 1.561 . S
C1787 C1784 1.526 . S
C1787 C1788 1.396 . S
C1787 C1792 1.390 . S
C1788 C1782 1.465 . S
C1788 C1787 1.396 . S
C1788 C1789 1.399 . S
C1789 H1775 0.929 . S
C1789 C1788 1.399 . S
C1789 C1790 1.385 . S
C1790 H1776 0.931 . S
C1790 C1789 1.385 . S
C1790 C1791 1.389 . S
C1791 C1790 1.389 . S
C1791 C1792 1.387 . S
C1792 H1777 0.930 . S
C1792 C1787 1.390 . S
C1792 C1791 1.387 . S
H1793 C1805 0.930 . S
H1794 C1807 0.930 . S
H1795 C1808 0.930 . S
H1796 C1812 0.959 . S
H1797 C1812 0.959 . S
H1798 C1812 0.961 . S
H1799 C1813 0.958 1_556 S
H1800 C1813 0.961 . S
H1801 C1813 0.959 1_556 S
H1802 C1816 0.929 . S
H1803 C1817 0.931 . S
H1804 C1819 0.930 . S
C1805 H1793 0.930 . S
C1805 C1806 1.399 . S
C1805 C1810 1.399 . S
C1806 C1805 1.399 . S
C1806 C1807 1.376 . S
C1807 H1794 0.930 . S
C1807 C1806 1.376 . S
C1807 C1808 1.388 . S
C1808 H1795 0.930 . S
C1808 C1807 1.388 . S
C1808 C1809 1.390 . S
C1809 C1808 1.390 . S
C1809 C1810 1.394 . S
C1809 C1815 1.465 . S
C1810 C1805 1.399 . S
C1810 C1809 1.394 . S
C1810 C1811 1.516 1_556 S
C1811 C1810 1.516 1_554 S
C1811 C1812 1.502 . S
C1811 C1813 1.561 . S
C1811 C1814 1.526 . S
C1812 H1796 0.959 . S
C1812 H1797 0.959 . S
C1812 H1798 0.961 . S
C1812 C1811 1.502 . S
C1813 H1799 0.958 1_554 S
C1813 H1800 0.961 . S
C1813 H1801 0.959 1_554 S
C1813 C1811 1.561 . S
C1814 C1811 1.526 . S
C1814 C1815 1.396 1_554 S
C1814 C1819 1.390 . S
C1815 C1809 1.465 . S
C1815 C1814 1.396 1_556 S
C1815 C1816 1.399 . S
C1816 H1802 0.929 . S
C1816 C1815 1.399 . S
C1816 C1817 1.385 1_556 S
C1817 H1803 0.931 . S
C1817 C1816 1.385 1_554 S
C1817 C1818 1.389 . S
C1818 C1817 1.389 . S
C1818 C1819 1.387 . S
C1819 H1804 0.930 . S
C1819 C1814 1.390 . S
C1819 C1818 1.387 . S
H1820 C1832 0.930 . S
H1821 C1834 0.930 . S
H1822 C1835 0.930 . S
H1823 C1839 0.959 . S
H1824 C1839 0.959 . S
H1825 C1839 0.961 . S
H1826 C1840 0.960 . S
H1827 C1840 0.961 . S
H1828 C1840 0.959 . S
H1829 C1843 0.929 . S
H1830 C1844 0.931 . S
H1831 C1846 0.930 . S
C1832 H1820 0.930 . S
C1832 C1833 1.399 . S
C1832 C1837 1.399 . S
C1833 C1832 1.399 . S
C1833 C1834 1.376 . S
C1834 H1821 0.930 . S
C1834 C1833 1.376 . S
C1834 C1835 1.388 . S
C1835 H1822 0.930 . S
C1835 C1834 1.388 . S
C1835 C1836 1.390 . S
C1836 C1835 1.390 . S
C1836 C1837 1.394 . S
C1836 C1842 1.465 . S
C1837 C1832 1.399 . S
C1837 C1836 1.394 . S
C1837 C1838 1.516 . S
C1838 C1837 1.516 . S
C1838 C1839 1.502 . S
C1838 C1840 1.561 . S
C1838 C1841 1.526 . S
C1839 H1823 0.959 . S
C1839 H1824 0.959 . S
C1839 H1825 0.961 . S
C1839 C1838 1.502 . S
C1840 H1826 0.960 . S
C1840 H1827 0.961 . S
C1840 H1828 0.959 . S
C1840 C1838 1.561 . S
C1841 C1838 1.526 . S
C1841 C1842 1.396 . S
C1841 C1846 1.390 . S
C1842 C1836 1.465 . S
C1842 C1841 1.396 . S
C1842 C1843 1.399 . S
C1843 H1829 0.929 . S
C1843 C1842 1.399 . S
C1843 C1844 1.385 . S
C1844 H1830 0.931 . S
C1844 C1843 1.385 . S
C1844 C1845 1.389 . S
C1845 C1844 1.389 . S
C1845 C1846 1.387 . S
C1846 H1831 0.930 . S
C1846 C1841 1.390 . S
C1846 C1845 1.387 . S
H1847 C1859 0.930 . S
H1848 C1861 0.930 . S
H1849 C1862 0.930 . S
H1850 C1866 0.959 . S
H1851 C1866 0.959 . S
H1852 C1866 0.961 . S
H1853 C1867 0.960 . S
H1854 C1867 0.961 . S
H1855 C1867 0.959 . S
H1856 C1870 0.929 . S
H1857 C1871 0.931 . S
H1858 C1873 0.930 . S
C1859 H1847 0.930 . S
C1859 C1860 1.399 . S
C1859 C1864 1.399 . S
C1860 C1859 1.399 . S
C1860 C1861 1.376 . S
C1861 H1848 0.930 . S
C1861 C1860 1.376 . S
C1861 C1862 1.388 . S
C1862 H1849 0.930 . S
C1862 C1861 1.388 . S
C1862 C1863 1.390 . S
C1863 C1862 1.390 . S
C1863 C1864 1.394 . S
C1863 C1869 1.465 . S
C1864 C1859 1.399 . S
C1864 C1863 1.394 . S
C1864 C1865 1.516 . S
C1865 C1864 1.516 . S
C1865 C1866 1.502 . S
C1865 C1867 1.561 . S
C1865 C1868 1.526 . S
C1866 H1850 0.959 . S
C1866 H1851 0.959 . S
C1866 H1852 0.961 . S
C1866 C1865 1.502 . S
C1867 H1853 0.960 . S
C1867 H1854 0.961 . S
C1867 H1855 0.959 . S
C1867 C1865 1.561 . S
C1868 C1865 1.526 . S
C1868 C1869 1.396 . S
C1868 C1873 1.390 . S
C1869 C1863 1.465 . S
C1869 C1868 1.396 . S
C1869 C1870 1.399 . S
C1870 H1856 0.929 . S
C1870 C1869 1.399 . S
C1870 C1871 1.385 . S
C1871 H1857 0.931 . S
C1871 C1870 1.385 . S
C1871 C1872 1.389 . S
C1872 C1871 1.389 . S
C1872 C1873 1.387 . S
C1873 H1858 0.930 . S
C1873 C1868 1.390 . S
C1873 C1872 1.387 . S
H1874 C1886 0.930 . S
H1875 C1888 0.930 . S
H1876 C1889 0.930 . S
H1877 C1893 0.959 . S
H1878 C1893 0.959 . S
H1879 C1893 0.961 . S
H1880 C1894 0.960 . S
H1881 C1894 0.961 . S
H1882 C1894 0.959 . S
H1883 C1897 0.929 . S
H1884 C1898 0.931 . S
H1885 C1900 0.930 . S
C1886 H1874 0.930 . S
C1886 C1887 1.399 . S
C1886 C1891 1.399 . S
C1887 C1886 1.399 . S
C1887 C1888 1.376 . S
C1888 H1875 0.930 . S
C1888 C1887 1.376 . S
C1888 C1889 1.388 . S
C1889 H1876 0.930 . S
C1889 C1888 1.388 . S
C1889 C1890 1.390 . S
C1890 C1889 1.390 . S
C1890 C1891 1.394 . S
C1890 C1896 1.465 . S
C1891 C1886 1.399 . S
C1891 C1890 1.394 . S
C1891 C1892 1.516 . S
C1892 C1891 1.516 . S
C1892 C1893 1.502 . S
C1892 C1894 1.561 . S
C1892 C1895 1.526 . S
C1893 H1877 0.959 . S
C1893 H1878 0.959 . S
C1893 H1879 0.961 . S
C1893 C1892 1.502 . S
C1894 H1880 0.960 . S
C1894 H1881 0.961 . S
C1894 H1882 0.959 . S
C1894 C1892 1.561 . S
C1895 C1892 1.526 . S
C1895 C1896 1.396 . S
C1895 C1900 1.390 . S
C1896 C1890 1.465 . S
C1896 C1895 1.396 . S
C1896 C1897 1.399 . S
C1897 H1883 0.929 . S
C1897 C1896 1.399 . S
C1897 C1898 1.385 . S
C1898 H1884 0.931 . S
C1898 C1897 1.385 . S
C1898 C1899 1.389 . S
C1899 C1898 1.389 . S
C1899 C1900 1.387 . S
C1900 H1885 0.930 . S
C1900 C1895 1.390 . S
C1900 C1899 1.387 . S
H1901 C1913 0.944 . S
H1902 C1915 0.930 . S
H1903 C1916 0.930 . S
H1904 C1920 0.959 . S
H1905 C1920 0.959 . S
H1906 C1920 0.961 . S
H1907 C1921 0.960 . S
H1908 C1921 0.961 . S
H1909 C1921 0.959 1_554 S
H1910 C1924 0.929 . S
H1911 C1925 0.931 . S
H1912 C1927 0.930 . S
C1913 H1901 0.944 . S
C1913 C1914 1.399 . S
C1913 C1918 1.399 . S
C1914 C1913 1.399 . S
C1914 C1915 1.376 . S
C1915 H1902 0.930 . S
C1915 C1914 1.376 . S
C1915 C1916 1.388 . S
C1916 H1903 0.930 . S
C1916 C1915 1.388 . S
C1916 C1917 1.390 . S
C1917 C1916 1.390 . S
C1917 C1918 1.394 . S
C1917 C1923 1.465 . S
C1918 C1913 1.399 . S
C1918 C1917 1.394 . S
C1918 C1919 1.516 1_554 S
C1919 C1918 1.516 1_556 S
C1919 C1920 1.502 . S
C1919 C1921 1.561 . S
C1919 C1922 1.526 . S
C1920 H1904 0.959 . S
C1920 H1905 0.959 . S
C1920 H1906 0.961 . S
C1920 C1919 1.502 . S
C1921 H1907 0.960 . S
C1921 H1908 0.961 . S
C1921 H1909 0.959 1_556 S
C1921 C1919 1.561 . S
C1922 C1919 1.526 . S
C1922 C1923 1.396 1_556 S
C1922 C1927 1.390 . S
C1923 C1917 1.465 . S
C1923 C1922 1.396 1_554 S
C1923 C1924 1.399 . S
C1924 H1910 0.929 . S
C1924 C1923 1.399 . S
C1924 C1925 1.385 1_554 S
C1925 H1911 0.931 . S
C1925 C1924 1.385 1_556 S
C1925 C1926 1.389 . S
C1926 C1925 1.389 . S
C1926 C1927 1.387 . S
C1927 H1912 0.930 . S
C1927 C1922 1.390 . S
C1927 C1926 1.387 . S
H1928 C1940 0.930 . S
H1929 C1942 0.930 . S
H1930 C1943 0.930 . S
H1931 C1947 0.959 . S
H1932 C1947 0.959 . S
H1933 C1947 0.948 1_565 S
H1934 C1948 0.960 . S
H1935 C1948 0.961 . S
H1936 C1948 0.959 . S
H1937 C1951 0.929 . S
H1938 C1952 0.931 . S
H1939 C1954 0.930 . S
C1940 H1928 0.930 . S
C1940 C1941 1.399 . S
C1940 C1945 1.399 . S
C1941 C1940 1.399 . S
C1941 C1942 1.376 . S
C1942 H1929 0.930 . S
C1942 C1941 1.376 . S
C1942 C1943 1.388 . S
C1943 H1930 0.930 . S
C1943 C1942 1.388 . S
C1943 C1944 1.390 . S
C1944 C1943 1.390 . S
C1944 C1945 1.394 . S
C1944 C1950 1.465 1_565 S
C1945 C1940 1.399 . S
C1945 C1944 1.394 . S
C1945 C1946 1.516 1_565 S
C1946 C1945 1.516 1_545 S
C1946 C1947 1.502 . S
C1946 C1948 1.561 . S
C1946 C1949 1.526 . S
C1947 H1931 0.959 . S
C1947 H1932 0.959 . S
C1947 H1933 0.948 1_545 S
C1947 C1946 1.502 . S
C1948 H1934 0.960 . S
C1948 H1935 0.961 . S
C1948 H1936 0.959 . S
C1948 C1946 1.561 . S
C1949 C1946 1.526 . S
C1949 C1950 1.396 . S
C1949 C1954 1.390 . S
C1950 C1944 1.465 1_545 S
C1950 C1949 1.396 . S
C1950 C1951 1.399 . S
C1951 H1937 0.929 . S
C1951 C1950 1.399 . S
C1951 C1952 1.385 . S
C1952 H1938 0.931 . S
C1952 C1951 1.385 . S
C1952 C1953 1.389 . S
C1953 C1952 1.389 . S
C1953 C1954 1.387 . S
C1954 H1939 0.930 . S
C1954 C1949 1.390 . S
C1954 C1953 1.387 . S
H1955 C1967 0.930 . S
H1956 C1969 0.930 . S
H1957 C1970 0.930 . S
H1958 C1974 0.959 . S
H1959 C1974 0.959 . S
H1960 C1974 0.961 . S
H1961 C1975 0.960 . S
H1962 C1975 0.961 1_556 S
H1963 C1975 0.959 . S
H1964 C1978 0.929 . S
H1965 C1979 0.931 . S
H1966 C1981 0.930 . S
C1967 H1955 0.930 . S
C1967 C1968 1.399 . S
C1967 C1972 1.399 . S
C1968 C1967 1.399 . S
C1968 C1969 1.376 . S
C1969 H1956 0.930 . S
C1969 C1968 1.376 . S
C1969 C1970 1.388 . S
C1970 H1957 0.930 . S
C1970 C1969 1.388 . S
C1970 C1971 1.390 . S
C1971 C1970 1.390 . S
C1971 C1972 1.394 . S
C1971 C1977 1.465 . S
C1972 C1967 1.399 . S
C1972 C1971 1.394 . S
C1972 C1973 1.516 1_554 S
C1973 C1972 1.516 1_556 S
C1973 C1974 1.502 . S
C1973 C1975 1.561 1_556 S
C1973 C1976 1.526 . S
C1974 H1958 0.959 . S
C1974 H1959 0.959 . S
C1974 H1960 0.961 . S
C1974 C1973 1.502 . S
C1975 H1961 0.960 . S
C1975 H1962 0.961 1_554 S
C1975 H1963 0.959 . S
C1975 C1973 1.561 1_554 S
C1976 C1973 1.526 . S
C1976 C1977 1.396 1_556 S
C1976 C1981 1.390 . S
C1977 C1971 1.465 . S
C1977 C1976 1.396 1_554 S
C1977 C1978 1.399 . S
C1978 H1964 0.929 . S
C1978 C1977 1.399 . S
C1978 C1979 1.385 1_554 S
C1979 H1965 0.931 . S
C1979 C1978 1.385 1_556 S
C1979 C1980 1.389 . S
C1980 C1979 1.389 . S
C1980 C1981 1.387 . S
C1981 H1966 0.930 . S
C1981 C1976 1.390 . S
C1981 C1980 1.387 . S
H1982 C1994 0.930 . S
H1983 C1996 0.930 . S
H1984 C1997 0.930 . S
H1985 C2001 0.959 . S
H1986 C2001 0.959 . S
H1987 C2001 0.961 . S
H1988 C2002 0.960 . S
H1989 C2002 0.961 . S
H1990 C2002 0.959 . S
H1991 C2005 0.929 . S
H1992 C2006 0.931 . S
H1993 C2008 0.930 . S
C1994 H1982 0.930 . S
C1994 C1995 1.399 . S
C1994 C1999 1.399 . S
C1995 C1994 1.399 . S
C1995 C1996 1.376 . S
C1996 H1983 0.930 . S
C1996 C1995 1.376 . S
C1996 C1997 1.388 . S
C1997 H1984 0.930 . S
C1997 C1996 1.388 . S
C1997 C1998 1.390 . S
C1998 C1997 1.390 . S
C1998 C1999 1.394 . S
C1998 C2004 1.465 1_545 S
C1999 C1994 1.399 . S
C1999 C1998 1.394 . S
C1999 C2000 1.516 1_545 S
C2000 C1999 1.516 1_565 S
C2000 C2001 1.502 . S
C2000 C2002 1.561 . S
C2000 C2003 1.526 . S
C2001 H1985 0.959 . S
C2001 H1986 0.959 . S
C2001 H1987 0.961 . S
C2001 C2000 1.502 . S
C2002 H1988 0.960 . S
C2002 H1989 0.961 . S
C2002 H1990 0.959 . S
C2002 C2000 1.561 . S
C2003 C2000 1.526 . S
C2003 C2004 1.396 . S
C2003 C2008 1.390 . S
C2004 C1998 1.465 1_565 S
C2004 C2003 1.396 . S
C2004 C2005 1.399 . S
C2005 H1991 0.929 . S
C2005 C2004 1.399 . S
C2005 C2006 1.385 . S
C2006 H1992 0.931 . S
C2006 C2005 1.385 . S
C2006 C2007 1.389 . S
C2007 C2006 1.389 . S
C2007 C2008 1.387 . S
C2008 H1993 0.930 . S
C2008 C2003 1.390 . S
C2008 C2007 1.387 . S
H2009 C2021 0.930 . S
H2010 C2023 0.930 . S
H2011 C2024 0.930 . S
H2012 C2028 0.959 . S
H2013 C2028 0.959 . S
H2014 C2028 0.961 . S
H2015 C2029 0.960 . S
H2016 C2029 0.961 . S
H2017 C2029 0.959 . S
H2018 C2032 0.929 . S
H2019 C2033 0.931 . S
H2020 C2035 0.930 . S
C2021 H2009 0.930 . S
C2021 C2022 1.399 . S
C2021 C2026 1.399 . S
C2022 C2021 1.399 . S
C2022 C2023 1.376 . S
C2023 H2010 0.930 . S
C2023 C2022 1.376 . S
C2023 C2024 1.388 . S
C2024 H2011 0.930 . S
C2024 C2023 1.388 . S
C2024 C2025 1.390 . S
C2025 C2024 1.390 . S
C2025 C2026 1.394 . S
C2025 C2031 1.465 . S
C2026 C2021 1.399 . S
C2026 C2025 1.394 . S
C2026 C2027 1.516 . S
C2027 C2026 1.516 . S
C2027 C2028 1.502 . S
C2027 C2029 1.561 . S
C2027 C2030 1.526 . S
C2028 H2012 0.959 . S
C2028 H2013 0.959 . S
C2028 H2014 0.961 . S
C2028 C2027 1.502 . S
C2029 H2015 0.960 . S
C2029 H2016 0.961 . S
C2029 H2017 0.959 . S
C2029 C2027 1.561 . S
C2030 C2027 1.526 . S
C2030 C2031 1.396 . S
C2030 C2035 1.390 . S
C2031 C2025 1.465 . S
C2031 C2030 1.396 . S
C2031 C2032 1.399 . S
C2032 H2018 0.929 . S
C2032 C2031 1.399 . S
C2032 C2033 1.385 . S
C2033 H2019 0.931 . S
C2033 C2032 1.385 . S
C2033 C2034 1.389 . S
C2034 C2033 1.389 . S
C2034 C2035 1.387 . S
C2035 H2020 0.930 . S
C2035 C2030 1.390 . S
C2035 C2034 1.387 . S
H2036 C2048 0.930 . S
H2037 C2050 0.930 . S
H2038 C2051 0.930 . S
H2039 C2055 0.959 . S
H2040 C2055 0.959 . S
H2041 C2055 0.961 . S
H2042 C2056 0.960 . S
H2043 C2056 0.961 . S
H2044 C2056 0.959 . S
H2045 C2059 0.929 . S
H2046 C2060 0.931 . S
H2047 C2062 0.930 . S
C2048 H2036 0.930 . S
C2048 C2049 1.399 . S
C2048 C2053 1.399 . S
C2049 C2048 1.399 . S
C2049 C2050 1.376 . S
C2050 H2037 0.930 . S
C2050 C2049 1.376 . S
C2050 C2051 1.388 . S
C2051 H2038 0.930 . S
C2051 C2050 1.388 . S
C2051 C2052 1.390 . S
C2052 C2051 1.390 . S
C2052 C2053 1.394 . S
C2052 C2058 1.465 1_545 S
C2053 C2048 1.399 . S
C2053 C2052 1.394 . S
C2053 C2054 1.516 1_545 S
C2054 C2053 1.516 1_565 S
C2054 C2055 1.502 . S
C2054 C2056 1.561 . S
C2054 C2057 1.526 . S
C2055 H2039 0.959 . S
C2055 H2040 0.959 . S
C2055 H2041 0.961 . S
C2055 C2054 1.502 . S
C2056 H2042 0.960 . S
C2056 H2043 0.961 . S
C2056 H2044 0.959 . S
C2056 C2054 1.561 . S
C2057 C2054 1.526 . S
C2057 C2058 1.396 . S
C2057 C2062 1.390 . S
C2058 C2052 1.465 1_565 S
C2058 C2057 1.396 . S
C2058 C2059 1.399 . S
C2059 H2045 0.929 . S
C2059 C2058 1.399 . S
C2059 C2060 1.385 . S
C2060 H2046 0.931 . S
C2060 C2059 1.385 . S
C2060 C2061 1.389 . S
C2061 C2060 1.389 . S
C2061 C2062 1.387 . S
C2062 H2047 0.930 . S
C2062 C2057 1.390 . S
C2062 C2061 1.387 . S
H2063 C2075 0.930 . S
H2064 C2077 0.930 . S
H2065 C2078 0.930 . S
H2066 C2082 0.959 . S
H2067 C2082 0.959 . S
H2068 C2082 0.961 . S
H2069 C2083 0.960 . S
H2070 C2083 0.961 1_556 S
H2071 C2083 0.959 . S
H2072 C2086 0.929 . S
H2073 C2087 0.931 . S
H2074 C2089 0.930 . S
C2075 H2063 0.930 . S
C2075 C2076 1.399 . S
C2075 C2080 1.399 . S
C2076 C2075 1.399 . S
C2076 C2077 1.376 . S
C2077 H2064 0.930 . S
C2077 C2076 1.376 . S
C2077 C2078 1.388 . S
C2078 H2065 0.930 . S
C2078 C2077 1.388 . S
C2078 C2079 1.390 . S
C2079 C2078 1.390 . S
C2079 C2080 1.394 . S
C2079 C2085 1.465 . S
C2080 C2075 1.399 . S
C2080 C2079 1.394 . S
C2080 C2081 1.516 1_554 S
C2081 C2080 1.516 1_556 S
C2081 C2082 1.502 . S
C2081 C2083 1.561 1_556 S
C2081 C2084 1.526 . S
C2082 H2066 0.959 . S
C2082 H2067 0.959 . S
C2082 H2068 0.961 . S
C2082 C2081 1.502 . S
C2083 H2069 0.960 . S
C2083 H2070 0.961 1_554 S
C2083 H2071 0.959 . S
C2083 C2081 1.561 1_554 S
C2084 C2081 1.526 . S
C2084 C2085 1.396 1_556 S
C2084 C2089 1.390 . S
C2085 C2079 1.465 . S
C2085 C2084 1.396 1_554 S
C2085 C2086 1.399 . S
C2086 H2072 0.929 . S
C2086 C2085 1.399 . S
C2086 C2087 1.385 1_554 S
C2087 H2073 0.931 . S
C2087 C2086 1.385 1_556 S
C2087 C2088 1.389 . S
C2088 C2087 1.389 . S
C2088 C2089 1.387 . S
C2089 H2074 0.930 . S
C2089 C2084 1.390 . S
C2089 C2088 1.387 . S
H2090 C2102 0.930 . S
H2091 C2104 0.930 . S
H2092 C2105 0.930 . S
H2093 C2109 0.959 . S
H2094 C2109 0.959 . S
H2095 C2109 0.961 . S
H2096 C2110 0.960 . S
H2097 C2110 0.961 . S
H2098 C2110 0.959 . S
H2099 C2113 0.929 . S
H2100 C2114 0.931 . S
H2101 C2116 0.930 . S
C2102 H2090 0.930 . S
C2102 C2103 1.399 . S
C2102 C2107 1.399 . S
C2103 C2102 1.399 . S
C2103 C2104 1.376 . S
C2104 H2091 0.930 . S
C2104 C2103 1.376 . S
C2104 C2105 1.388 . S
C2105 H2092 0.930 . S
C2105 C2104 1.388 . S
C2105 C2106 1.390 . S
C2106 C2105 1.390 . S
C2106 C2107 1.394 . S
C2106 C2112 1.465 1_545 S
C2107 C2102 1.399 . S
C2107 C2106 1.394 . S
C2107 C2108 1.516 1_545 S
C2108 C2107 1.516 1_565 S
C2108 C2109 1.502 . S
C2108 C2110 1.561 . S
C2108 C2111 1.526 . S
C2109 H2093 0.959 . S
C2109 H2094 0.959 . S
C2109 H2095 0.961 . S
C2109 C2108 1.502 . S
C2110 H2096 0.960 . S
C2110 H2097 0.961 . S
C2110 H2098 0.959 . S
C2110 C2108 1.561 . S
C2111 C2108 1.526 . S
C2111 C2112 1.396 . S
C2111 C2116 1.390 . S
C2112 C2106 1.465 1_565 S
C2112 C2111 1.396 . S
C2112 C2113 1.399 . S
C2113 H2099 0.929 . S
C2113 C2112 1.399 . S
C2113 C2114 1.385 . S
C2114 H2100 0.931 . S
C2114 C2113 1.385 . S
C2114 C2115 1.389 . S
C2115 C2114 1.389 . S
C2115 C2116 1.387 . S
C2116 H2101 0.930 . S
C2116 C2111 1.390 . S
C2116 C2115 1.387 . S
H2117 C2129 0.930 . S
H2118 C2131 0.930 . S
H2119 C2132 0.930 . S
H2120 C2136 0.959 . S
H2121 C2136 0.959 . S
H2122 C2136 0.961 . S
H2123 C2137 0.960 . S
H2124 C2137 0.961 . S
H2125 C2137 0.959 . S
H2126 C2140 0.929 . S
H2127 C2141 0.931 . S
H2128 C2143 0.930 . S
C2129 H2117 0.930 . S
C2129 C2130 1.399 . S
C2129 C2134 1.399 . S
C2130 C2129 1.399 . S
C2130 C2131 1.376 . S
C2131 H2118 0.930 . S
C2131 C2130 1.376 . S
C2131 C2132 1.388 . S
C2132 H2119 0.930 . S
C2132 C2131 1.388 . S
C2132 C2133 1.390 . S
C2133 C2132 1.390 . S
C2133 C2134 1.394 . S
C2133 C2139 1.465 . S
C2134 C2129 1.399 . S
C2134 C2133 1.394 . S
C2134 C2135 1.516 . S
C2135 C2134 1.516 . S
C2135 C2136 1.502 . S
C2135 C2137 1.561 . S
C2135 C2138 1.526 . S
C2136 H2120 0.959 . S
C2136 H2121 0.959 . S
C2136 H2122 0.961 . S
C2136 C2135 1.502 . S
C2137 H2123 0.960 . S
C2137 H2124 0.961 . S
C2137 H2125 0.959 . S
C2137 C2135 1.561 . S
C2138 C2135 1.526 . S
C2138 C2139 1.396 . S
C2138 C2143 1.390 . S
C2139 C2133 1.465 . S
C2139 C2138 1.396 . S
C2139 C2140 1.399 . S
C2140 H2126 0.929 . S
C2140 C2139 1.399 . S
C2140 C2141 1.385 . S
C2141 H2127 0.931 . S
C2141 C2140 1.385 . S
C2141 C2142 1.389 . S
C2142 C2141 1.389 . S
C2142 C2143 1.387 . S
C2143 H2128 0.930 . S
C2143 C2138 1.390 . S
C2143 C2142 1.387 . S
C429 C8 1.227 . S
C441 C281 1.327 . S
C456 C294 1.325 . S
C468 C21 1.236 . S
C483 C34 1.241 . S
C495 C307 1.321 . S
C510 C268 1.227 . S
C522 C47 1.327 . S
C537 C60 1.327 . S
C549 C255 1.228 . S
C564 C73 1.328 . S
C576 C216 1.231 . S
C591 C229 1.309 . S
C603 C86 1.258 . S
C618 C99 1.239 . S
C630 C242 1.306 . S
C645 C112 1.299 . S
C657 C385 1.276 . S
C672 C125 1.227 . S
C684 C398 1.326 . S
C699 C411 1.327 . S
C711 C138 1.235 . S
C726 C372 1.322 . S
C738 C151 1.228 . S
C753 C164 1.316 . S
C765 C359 1.255 . S
C780 C320 1.252 . S
C792 C177 1.317 . S
C807 C190 1.258 . S
C819 C333 1.313 . S
C834 C346 1.307 . S
C846 C203 1.236 . S
C861 C5 0.954 . S
C873 C127 1.100 . S
C888 C18 1.045 . S
C900 C348 1.147 . S
C915 C153 1.125 . S
C927 C31 1.075 . S
C942 C44 1.017 . S
C954 C322 1.119 . S
C969 C57 1.103 . S
C981 C205 1.114 . S
C996 C374 1.096 . S
C1008 C70 0.999 . S
C1023 C179 1.096 . S
C1035 C83 1.010 . S
C1050 C400 1.097 . S
C1062 C96 0.966 . S
C1077 C109 0.995 . S
C1089 C23 1.107 . S
C1104 C244 1.086 1_455 S
C1116 C122 1.000 . S
C1131 C49 1.123 . S
C1143 C135 1.106 . S
C1158 C148 1.109 . S
C1170 C218 1.124 . S
C1185 C101 1.103 . S
C1197 C161 0.978 . S
C1212 C270 1.108 . S
C1224 C174 1.042 . S
C1239 C75 1.105 . S
C1251 C187 0.988 . S
C1266 C200 1.078 . S
C1278 C296 1.066 1_455 S
C1293 C335 1.122 . S
C1305 C213 1.034 . S
C1320 C140 1.121 . S
C1332 C226 1.107 . S
C1347 C361 1.116 . S
C1359 C239 1.000 . S
C1374 C252 1.014 . S
C1386 C114 1.099 . S
C1401 C413 1.109 . S
C1413 C265 0.971 . S
C1428 C166 1.097 . S
C1440 C278 0.963 . S
C1455 C387 1.120 . S
C1467 C291 1.108 . S
C1482 C304 1.064 . S
C1494 C192 1.104 . S
C1509 C317 1.074 . S
C1521 C231 1.121 . S
C1536 C36 1.113 . S
C1548 C330 1.029 . S
C1563 C343 0.995 . S
C1575 C257 1.100 . S
C1590 C356 1.109 . S
C1602 C10 1.112 1_655 S
C1617 C369 0.983 . S
C1629 C309 1.099 . S
C1644 C62 1.071 1_655 S
C1656 C382 1.027 . S
C1671 C283 1.119 . S
C1683 C395 1.094 . S
C1698 C408 0.994 . S
C1710 C88 1.100 . S
C1725 C0 1.237 . S
C1737 C52 1.216 . S
C1752 C13 1.271 . S
C1764 C65 1.267 . S
C1779 C78 1.225 . S
C1791 C26 1.205 . S
C1806 C91 1.261 . S
C1818 C39 1.244 . S
C1833 C156 1.266 . S
C1845 C104 1.226 . S
C1860 C169 1.222 . S
C1872 C117 1.264 . S
C1887 C182 1.178 . S
C1899 C130 1.207 . S
C1914 C195 1.221 . S
C1926 C143 1.183 . S
C1941 C208 1.256 . S
C1953 C260 1.267 . S
C1968 C221 1.265 . S
C1980 C273 1.251 . S
C1995 C234 1.243 . S
C2007 C286 1.259 . S
C2022 C299 1.267 . S
C2034 C247 1.255 . S
C2049 C312 1.180 . S
C2061 C364 1.215 . S
C2076 C377 1.215 . S
C2088 C325 1.181 . S
C2103 C390 1.183 . S
C2115 C338 1.224 . S
C2130 C403 1.194 . S
C2142 C351 1.181 . S
