# Generated by pormake.
# Topology hbo, (4)-cn, num edge types: 1
# Building blocks:
#     Node 0, Type 0, BuildingBlock: CEKHIL_clean_sbu_0, # of connection points: 4
#     Node 1, Type 0, BuildingBlock: CEKHIL_clean_sbu_0, # of connection points: 4
#     Node 2, Type 0, BuildingBlock: CEKHIL_clean_sbu_0, # of connection points: 4
#     Node 3, Type 0, BuildingBlock: CEKHIL_clean_sbu_0, # of connection points: 4
#     Node 4, Type 0, BuildingBlock: CEKHIL_clean_sbu_0, # of connection points: 4
#     Node 5, Type 0, BuildingBlock: CEKHIL_clean_sbu_0, # of connection points: 4
#     Node 6, Type 0, BuildingBlock: CEKHIL_clean_sbu_0, # of connection points: 4
#     Node 7, Type 0, BuildingBlock: CEKHIL_clean_sbu_0, # of connection points: 4
#     Node 8, Type 0, BuildingBlock: CEKHIL_clean_sbu_0, # of connection points: 4
#     Node 9, Type 0, BuildingBlock: CEKHIL_clean_sbu_0, # of connection points: 4
#     Node 10, Type 0, BuildingBlock: CEKHIL_clean_sbu_0, # of connection points: 4
#     Node 11, Type 0, BuildingBlock: CEKHIL_clean_sbu_0, # of connection points: 4
#     Node 12, Type 0, BuildingBlock: CEKHIL_clean_sbu_0, # of connection points: 4
#     Node 13, Type 0, BuildingBlock: CEKHIL_clean_sbu_0, # of connection points: 4
#     Node 14, Type 0, BuildingBlock: CEKHIL_clean_sbu_0, # of connection points: 4
#     Node 15, Type 0, BuildingBlock: CEKHIL_clean_sbu_0, # of connection points: 4
#     Node 16, Type 0, BuildingBlock: CEKHIL_clean_sbu_0, # of connection points: 4
#     Node 17, Type 0, BuildingBlock: CEKHIL_clean_sbu_0, # of connection points: 4
#     Node 18, Type 0, BuildingBlock: CEKHIL_clean_sbu_0, # of connection points: 4
#     Node 19, Type 0, BuildingBlock: CEKHIL_clean_sbu_0, # of connection points: 4
#     Node 20, Type 0, BuildingBlock: CEKHIL_clean_sbu_0, # of connection points: 4
#     Node 21, Type 0, BuildingBlock: CEKHIL_clean_sbu_0, # of connection points: 4
#     Node 22, Type 0, BuildingBlock: CEKHIL_clean_sbu_0, # of connection points: 4
#     Node 23, Type 0, BuildingBlock: CEKHIL_clean_sbu_0, # of connection points: 4
#     Edge 24, Type (0, 0), None
#     Edge 25, Type (0, 0), None
#     Edge 26, Type (0, 0), None
#     Edge 27, Type (0, 0), None
#     Edge 28, Type (0, 0), None
#     Edge 29, Type (0, 0), None
#     Edge 30, Type (0, 0), None
#     Edge 31, Type (0, 0), None
#     Edge 32, Type (0, 0), None
#     Edge 33, Type (0, 0), None
#     Edge 34, Type (0, 0), None
#     Edge 35, Type (0, 0), None
#     Edge 36, Type (0, 0), None
#     Edge 37, Type (0, 0), None
#     Edge 38, Type (0, 0), None
#     Edge 39, Type (0, 0), None
#     Edge 40, Type (0, 0), None
#     Edge 41, Type (0, 0), None
#     Edge 42, Type (0, 0), None
#     Edge 43, Type (0, 0), None
#     Edge 44, Type (0, 0), None
#     Edge 45, Type (0, 0), None
#     Edge 46, Type (0, 0), None
#     Edge 47, Type (0, 0), None
#     Edge 48, Type (0, 0), None
#     Edge 49, Type (0, 0), None
#     Edge 50, Type (0, 0), None
#     Edge 51, Type (0, 0), None
#     Edge 52, Type (0, 0), None
#     Edge 53, Type (0, 0), None
#     Edge 54, Type (0, 0), None
#     Edge 55, Type (0, 0), None
#     Edge 56, Type (0, 0), None
#     Edge 57, Type (0, 0), None
#     Edge 58, Type (0, 0), None
#     Edge 59, Type (0, 0), None
#     Edge 60, Type (0, 0), None
#     Edge 61, Type (0, 0), None
#     Edge 62, Type (0, 0), None
#     Edge 63, Type (0, 0), None
#     Edge 64, Type (0, 0), None
#     Edge 65, Type (0, 0), None
#     Edge 66, Type (0, 0), None
#     Edge 67, Type (0, 0), None
#     Edge 68, Type (0, 0), None
#     Edge 69, Type (0, 0), None
#     Edge 70, Type (0, 0), None
#     Edge 71, Type (0, 0), None
# Relax obj value: 0.230
# Max RMSD: 0.257
# Mean RMSD: 0.240
data_MOF--net-hbo--node1-CEKHIL_clean_sbu_0--edge1-none
_symmetry_space_group_name_H-M    P1
_symmetry_Int_Tables_number       1
_symmetry_cell_setting            triclinic
loop_
_symmetry_equiv_pos_as_xyz
'x, y, z'
_cell_length_a     23.445924
_cell_length_b     23.413255
_cell_length_c     23.491074
_cell_angle_alpha  89.513956
_cell_angle_beta   89.348675
_cell_angle_gamma 87.963815
loop_
_atom_site_label
_atom_site_type_symbol
_atom_site_fract_x
_atom_site_fract_y
_atom_site_fract_z
_atom_type_partial_charge
Co0 Co 0.11396 0.33194 0.23405 0.0
O1 O 0.0474 0.35608 0.27614 0.0
O2 O 0.05001 0.34115 0.18286 0.0
C3 C 0.14312 0.26023 0.29159 0.0
O4 O 0.17637 0.30355 0.18019 0.0
Co5 Co 0.22965 0.34905 0.29655 0.0
O6 O 0.25749 0.30254 0.23169 0.0
C7 C 0.17109 0.4471 0.24319 0.0
C8 C 0.02042 0.35424 0.22854 0.0
C9 C 0.22961 0.29049 0.18734 0.0
O10 O 0.13516 0.41427 0.22019 0.0
O11 O 0.20751 0.43026 0.28025 0.0
O12 O 0.10286 0.25191 0.25558 0.0
O13 O 0.15689 0.31276 0.29784 0.0
Co14 Co 0.12723 0.63838 0.73918 0.0
O15 O 0.05154 0.62965 0.70769 0.0
O16 O 0.07011 0.64779 0.79786 0.0
C17 C 0.16589 0.69759 0.67361 0.0
O18 O 0.19335 0.65576 0.78948 0.0
Co19 Co 0.24189 0.59833 0.68112 0.0
O20 O 0.27566 0.64678 0.74009 0.0
C21 C 0.16296 0.51405 0.72343 0.0
C22 C 0.03249 0.64049 0.75903 0.0
C23 C 0.24636 0.66519 0.7825 0.0
O24 O 0.13599 0.55257 0.75352 0.0
O25 O 0.20122 0.5253 0.68636 0.0
O26 O 0.12938 0.71773 0.71116 0.0
O27 O 0.17083 0.64258 0.67187 0.0
Co28 Co 0.89171 0.64401 0.23993 0.0
O29 O 0.96696 0.62465 0.2687 0.0
O30 O 0.9437 0.63126 0.17751 0.0
C31 C 0.87018 0.72147 0.29419 0.0
O32 O 0.82244 0.66647 0.19392 0.0
Co33 Co 0.7833 0.64096 0.31957 0.0
O34 O 0.74739 0.68025 0.25371 0.0
C35 C 0.83283 0.53381 0.27155 0.0
C36 C 0.98304 0.62371 0.21557 0.0
C37 C 0.77092 0.68337 0.2047 0.0
O38 O 0.8698 0.56032 0.24101 0.0
O39 O 0.79983 0.55838 0.30823 0.0
O40 O 0.90367 0.7264 0.25023 0.0
O41 O 0.85858 0.66978 0.30836 0.0
Co42 Co 0.8789 0.3439 0.73159 0.0
O43 O 0.95608 0.35289 0.70175 0.0
O44 O 0.93352 0.33222 0.79117 0.0
C45 C 0.84186 0.28676 0.66435 0.0
O46 O 0.81109 0.3259 0.78072 0.0
Co47 Co 0.76656 0.38667 0.67285 0.0
O48 O 0.73067 0.33602 0.73026 0.0
C49 C 0.84359 0.46926 0.71918 0.0
C50 C 0.97286 0.34059 0.75337 0.0
C51 C 0.75847 0.31651 0.77284 0.0
O52 O 0.87034 0.42927 0.74759 0.0
O53 O 0.8061 0.45985 0.68177 0.0
O54 O 0.87692 0.26538 0.70215 0.0
O55 O 0.83746 0.34189 0.66346 0.0
Co56 Co 0.22839 0.14151 0.35738 0.0
O57 O 0.18503 0.14051 0.42532 0.0
O58 O 0.28029 0.13931 0.42023 0.0
C59 C 0.17631 0.2131 0.31745 0.0
O60 O 0.285 0.14238 0.29137 0.0
Co61 Co 0.1634 0.1027 0.25362 0.0
O62 O 0.23872 0.11004 0.21518 0.0
C63 C 0.20181 0.01762 0.33613 0.0
C64 C 0.23352 0.13857 0.4508 0.0
C65 C 0.28366 0.12687 0.23902 0.0
O66 O 0.23218 0.056 0.35735 0.0
O67 O 0.16477 0.02842 0.29767 0.0
O68 O 0.21772 0.22371 0.35125 0.0
O69 O 0.16362 0.15979 0.31323 0.0
Co70 Co 0.38458 0.76475 0.8368 0.0
O71 O 0.45771 0.80085 0.8424 0.0
O72 O 0.44445 0.70767 0.84703 0.0
C73 C 0.35027 0.81187 0.75765 0.0
O74 O 0.32168 0.7091 0.82776 0.0
Co75 Co 0.26706 0.82968 0.84861 0.0
O76 O 0.23869 0.75843 0.81592 0.0
C77 C 0.33356 0.80328 0.95241 0.0
C78 C 0.47964 0.749 0.84539 0.0
C79 C 0.26899 0.71222 0.81423 0.0
O80 O 0.37005 0.77159 0.92373 0.0
O81 O 0.29393 0.83355 0.92857 0.0
O82 O 0.38815 0.77041 0.75278 0.0
O83 O 0.34004 0.8281 0.80936 0.0
Co84 Co 0.78159 0.84153 0.35668 0.0
O85 O 0.82553 0.84606 0.42385 0.0
O86 O 0.73063 0.84374 0.42151 0.0
C87 C 0.83593 0.76973 0.31796 0.0
O88 O 0.72225 0.83544 0.29406 0.0
Co89 Co 0.83924 0.87828 0.24748 0.0
O90 O 0.76353 0.86602 0.2132 0.0
C91 C 0.80548 0.96569 0.32828 0.0
C92 C 0.77719 0.84634 0.45091 0.0
C93 C 0.72041 0.84815 0.24072 0.0
O94 O 0.77562 0.92755 0.35246 0.0
O95 O 0.84088 0.95382 0.28801 0.0
O96 O 0.79541 0.75963 0.35415 0.0
O97 O 0.84665 0.8233 0.30995 0.0
Co98 Co 0.61996 0.21552 0.82837 0.0
O99 O 0.54693 0.17911 0.83556 0.0
O100 O 0.56005 0.2722 0.84051 0.0
C101 C 0.65474 0.17063 0.74835 0.0
O102 O 0.68262 0.27145 0.8183 0.0
Co103 Co 0.7377 0.15001 0.83718 0.0
O104 O 0.76555 0.22221 0.80431 0.0
C105 C 0.67226 0.1758 0.94265 0.0
C106 C 0.52492 0.23084 0.83964 0.0
C107 C 0.73527 0.26848 0.80365 0.0
O108 O 0.63483 0.20677 0.91471 0.0
O109 O 0.71237 0.14641 0.91819 0.0
O110 O 0.61647 0.21184 0.74435 0.0
O111 O 0.66467 0.15309 0.79971 0.0
Co112 Co 0.25519 0.85689 0.63497 0.0
O113 O 0.28357 0.9326 0.62331 0.0
O114 O 0.19225 0.9111 0.62939 0.0
C115 C 0.31437 0.83221 0.70924 0.0
O116 O 0.20709 0.78707 0.65078 0.0
Co117 Co 0.32873 0.74802 0.61764 0.0
O118 O 0.25983 0.70619 0.63947 0.0
C119 C 0.29136 0.8153 0.51704 0.0
C120 C 0.23027 0.94981 0.62469 0.0
C121 C 0.21281 0.73229 0.6516 0.0
O122 O 0.25575 0.84457 0.54844 0.0
O123 O 0.32784 0.77933 0.53816 0.0
O124 O 0.26791 0.86286 0.71725 0.0
O125 O 0.32634 0.82089 0.65646 0.0
Co126 Co 0.62533 0.77909 0.14544 0.0
O127 O 0.55473 0.82168 0.13295 0.0
O128 O 0.56214 0.7281 0.14865 0.0
C129 C 0.66963 0.83577 0.20688 0.0
O130 O 0.68863 0.72169 0.16281 0.0
Co131 Co 0.74074 0.83091 0.10545 0.0
O132 O 0.77306 0.76198 0.14469 0.0
C133 C 0.66073 0.79246 0.02273 0.0
C134 C 0.52996 0.77297 0.13731 0.0
C135 C 0.74323 0.7216 0.16423 0.0
O136 O 0.63397 0.76475 0.0614 0.0
O137 O 0.69834 0.82889 0.03296 0.0
O138 O 0.6295 0.80311 0.22562 0.0
O139 O 0.67283 0.84081 0.15235 0.0
Co140 Co 0.7522 0.12817 0.62533 0.0
O141 O 0.72379 0.05232 0.61621 0.0
O142 O 0.81506 0.07355 0.62057 0.0
C143 C 0.69213 0.15261 0.69975 0.0
O144 O 0.80071 0.19799 0.63957 0.0
Co145 Co 0.68066 0.23735 0.60705 0.0
O146 O 0.74857 0.27933 0.62957 0.0
C147 C 0.71487 0.16782 0.50733 0.0
C148 C 0.77696 0.03487 0.61811 0.0
C149 C 0.79529 0.25283 0.64131 0.0
O150 O 0.75166 0.13973 0.53825 0.0
O151 O 0.67886 0.20413 0.52887 0.0
O152 O 0.73884 0.12252 0.7077 0.0
O153 O 0.68068 0.16428 0.64697 0.0
Co154 Co 0.37624 0.18883 0.13643 0.0
O155 O 0.44645 0.14558 0.12445 0.0
O156 O 0.43863 0.23986 0.13558 0.0
C157 C 0.33335 0.13547 0.202 0.0
O158 O 0.31213 0.24635 0.15114 0.0
Co159 Co 0.26126 0.13571 0.10163 0.0
O160 O 0.22738 0.20735 0.13411 0.0
C161 C 0.33946 0.17599 0.01537 0.0
C162 C 0.47081 0.19452 0.12605 0.0
C163 C 0.25735 0.24822 0.15085 0.0
O164 O 0.3679 0.20127 0.05302 0.0
O165 O 0.30066 0.14058 0.0264 0.0
O166 O 0.37376 0.1686 0.21727 0.0
O167 O 0.32907 0.12738 0.14794 0.0
Co168 Co 0.84763 0.62374 0.75054 0.0
O169 O 0.85384 0.54771 0.78373 0.0
O170 O 0.84741 0.5677 0.69148 0.0
C171 C 0.77758 0.6602 0.8094 0.0
O172 O 0.83958 0.69512 0.70066 0.0
Co173 Co 0.88189 0.72781 0.82011 0.0
O174 O 0.86402 0.77244 0.74992 0.0
C175 C 0.97163 0.65149 0.77228 0.0
C176 C 0.85149 0.52948 0.73181 0.0
C177 C 0.84799 0.74898 0.70437 0.0
O178 O 0.93377 0.6261 0.7438 0.0
O179 O 0.95913 0.68889 0.81023 0.0
O180 O 0.76527 0.62848 0.76665 0.0
O181 O 0.83172 0.66345 0.81935 0.0
Co182 Co 0.86308 0.35418 0.23406 0.0
O183 O 0.93075 0.36276 0.27753 0.0
O184 O 0.92851 0.35474 0.18337 0.0
C185 C 0.82386 0.28639 0.28888 0.0
O186 O 0.80265 0.33929 0.17456 0.0
Co187 Co 0.74117 0.38153 0.28318 0.0
O188 O 0.71658 0.33667 0.21774 0.0
C189 C 0.82303 0.47254 0.26455 0.0
C190 C 0.95825 0.35939 0.22926 0.0
C191 C 0.75029 0.3242 0.17655 0.0
O192 O 0.85287 0.44079 0.22998 0.0
O193 O 0.78105 0.45407 0.2937 0.0
O194 O 0.86393 0.27231 0.25242 0.0
O195 O 0.81359 0.34051 0.29495 0.0
Co196 Co 0.15813 0.35835 0.74964 0.0
O197 O 0.15088 0.43263 0.78514 0.0
O198 O 0.16005 0.41709 0.69235 0.0
C199 C 0.22676 0.31911 0.80767 0.0
O200 O 0.16747 0.28907 0.6981 0.0
Co201 Co 0.12094 0.25253 0.81766 0.0
O202 O 0.13987 0.21099 0.74633 0.0
C203 C 0.03308 0.32939 0.76816 0.0
C204 C 0.15475 0.45331 0.73389 0.0
C205 C 0.15776 0.23537 0.7012 0.0
O206 O 0.07218 0.35632 0.74168 0.0
O207 O 0.04386 0.29072 0.80569 0.0
O208 O 0.24008 0.35288 0.76605 0.0
O209 O 0.17237 0.31577 0.81747 0.0
Co210 Co 0.16852 0.60235 0.2137 0.0
O211 O 0.16111 0.52842 0.17834 0.0
O212 O 0.17815 0.5439 0.26982 0.0
C213 C 0.22724 0.64836 0.15236 0.0
O214 O 0.18203 0.66632 0.26682 0.0
Co215 Co 0.12123 0.7154 0.16029 0.0
O216 O 0.15749 0.75095 0.22699 0.0
C217 C 0.04277 0.63065 0.1995 0.0
C218 C 0.16928 0.50802 0.22961 0.0
C219 C 0.17955 0.72072 0.26697 0.0
O220 O 0.08302 0.60691 0.22922 0.0
O221 O 0.0516 0.66893 0.16179 0.0
O222 O 0.24843 0.60984 0.18724 0.0
O223 O 0.17225 0.64913 0.14877 0.0
Co224 Co 0.77893 0.84932 0.6064 0.0
O225 O 0.82429 0.8549 0.53918 0.0
O226 O 0.73006 0.84391 0.54193 0.0
C227 C 0.8334 0.78614 0.65566 0.0
O228 O 0.71971 0.83801 0.66726 0.0
Co229 Co 0.82879 0.89472 0.71897 0.0
O230 O 0.76313 0.85311 0.75065 0.0
C231 C 0.79244 0.97525 0.63095 0.0
C232 C 0.77676 0.84889 0.51234 0.0
C233 C 0.72214 0.83459 0.72153 0.0
O234 O 0.7654 0.93528 0.60706 0.0
O235 O 0.82685 0.96637 0.67207 0.0
O236 O 0.8009 0.76845 0.61551 0.0
O237 O 0.83926 0.84083 0.65728 0.0
Co238 Co 0.62749 0.20307 0.1247 0.0
O239 O 0.56522 0.15214 0.12015 0.0
O240 O 0.55691 0.247 0.11845 0.0
C241 C 0.66983 0.15965 0.20085 0.0
O242 O 0.6804 0.26944 0.13371 0.0
Co243 Co 0.7518 0.16069 0.10476 0.0
O244 O 0.77145 0.23593 0.13513 0.0
C245 C 0.67586 0.17624 0.00595 0.0
C246 C 0.53254 0.19804 0.11988 0.0
C247 C 0.73397 0.27606 0.14172 0.0
O248 O 0.63783 0.20194 0.03766 0.0
O249 O 0.72116 0.15219 0.02634 0.0
O250 O 0.62665 0.19499 0.20757 0.0
O251 O 0.68275 0.14699 0.14849 0.0
Co252 Co 0.22862 0.13502 0.6051 0.0
O253 O 0.18488 0.12925 0.53862 0.0
O254 O 0.2794 0.13972 0.54107 0.0
C255 C 0.17307 0.19878 0.65266 0.0
O256 O 0.28651 0.1464 0.66465 0.0
Co257 Co 0.1753 0.09191 0.71923 0.0
O258 O 0.24108 0.1334 0.74853 0.0
C259 C 0.21422 0.00965 0.63442 0.0
C260 C 0.23316 0.13524 0.51185 0.0
C261 C 0.28291 0.1507 0.71854 0.0
O262 O 0.2415 0.04899 0.60841 0.0
O263 O 0.17877 0.01947 0.67511 0.0
O264 O 0.20684 0.21621 0.61238 0.0
O265 O 0.16709 0.14419 0.65544 0.0
Co266 Co 0.37136 0.76808 0.13502 0.0
O267 O 0.43623 0.8162 0.13157 0.0
O268 O 0.44173 0.7217 0.12999 0.0
C269 C 0.33056 0.81462 0.21129 0.0
O270 O 0.3123 0.70434 0.14157 0.0
Co271 Co 0.25226 0.82295 0.11404 0.0
O272 O 0.2251 0.74506 0.12745 0.0
C273 C 0.33006 0.80298 0.01599 0.0
C274 C 0.46782 0.76984 0.13167 0.0
C275 C 0.2574 0.70148 0.13797 0.0
O276 O 0.36413 0.77216 0.04758 0.0
O277 O 0.28739 0.83178 0.03672 0.0
O278 O 0.36965 0.77487 0.21827 0.0
O279 O 0.32023 0.82819 0.15885 0.0
Co280 Co 0.75704 0.11757 0.32789 0.0
O281 O 0.73402 0.04018 0.33825 0.0
O282 O 0.82378 0.0668 0.33603 0.0
C283 C 0.70205 0.13709 0.25016 0.0
O284 O 0.79692 0.19247 0.31419 0.0
Co285 Co 0.66662 0.21762 0.33911 0.0
O286 O 0.73067 0.26469 0.31407 0.0
C287 C 0.71314 0.16318 0.44391 0.0
C288 C 0.7879 0.0257 0.33751 0.0
C289 C 0.78182 0.24549 0.30789 0.0
O290 O 0.75009 0.13267 0.41457 0.0
O291 O 0.67395 0.19457 0.42067 0.0
O292 O 0.75072 0.1098 0.24473 0.0
O293 O 0.68553 0.14622 0.30206 0.0
Co294 Co 0.34108 0.22189 0.86788 0.0
O295 O 0.34915 0.248 0.94399 0.0
O296 O 0.3412 0.15724 0.91692 0.0
C297 C 0.27115 0.28529 0.8389 0.0
O298 O 0.32983 0.17742 0.79812 0.0
Co299 Co 0.37195 0.29601 0.7635 0.0
O300 O 0.33079 0.23627 0.72248 0.0
C301 C 0.4637 0.24372 0.83253 0.0
C302 C 0.34587 0.19403 0.9572 0.0
C303 C 0.32089 0.18833 0.74597 0.0
O304 O 0.42706 0.21335 0.85882 0.0
O305 O 0.44978 0.28358 0.79723 0.0
O306 O 0.25875 0.24111 0.86965 0.0
O307 O 0.32535 0.29361 0.83262 0.0
Co308 Co 0.24848 0.86673 0.33855 0.0
O309 O 0.27349 0.94328 0.34706 0.0
O310 O 0.183 0.91792 0.34771 0.0
C311 C 0.30243 0.84351 0.26028 0.0
O312 O 0.20465 0.79585 0.32603 0.0
Co313 Co 0.33156 0.76014 0.34849 0.0
O314 O 0.26948 0.7258 0.30565 0.0
C315 C 0.2908 0.8181 0.45359 0.0
C316 C 0.2195 0.95822 0.3472 0.0
C317 C 0.21886 0.74737 0.30462 0.0
O318 O 0.25533 0.85096 0.42514 0.0
O319 O 0.32679 0.78339 0.42966 0.0
O320 O 0.25562 0.87412 0.25515 0.0
O321 O 0.31839 0.83374 0.31208 0.0
Co322 Co 0.66285 0.75498 0.87262 0.0
O323 O 0.65094 0.72465 0.94793 0.0
O324 O 0.66172 0.81633 0.92486 0.0
C325 C 0.73258 0.69231 0.84185 0.0
O326 O 0.67863 0.80275 0.80397 0.0
Co327 Co 0.63306 0.68722 0.76572 0.0
O328 O 0.67207 0.74998 0.72519 0.0
C329 C 0.54087 0.73626 0.83693 0.0
C330 C 0.65442 0.7776 0.96369 0.0
C331 C 0.68476 0.79567 0.7505 0.0
O332 O 0.57742 0.76601 0.86267 0.0
O333 O 0.55503 0.6972 0.80122 0.0
O334 O 0.74466 0.73402 0.87508 0.0
O335 O 0.67844 0.68513 0.83473 0.0
loop_
_geom_bond_atom_site_label_1
_geom_bond_atom_site_label_2
_geom_bond_distance
_geom_bond_site_symmetry_2
_ccdc_geom_bond_type
Co0 O1 2.216 . S
Co0 O2 2.091 . S
Co0 O4 2.004 . S
Co0 O10 2.021 . S
Co0 O12 2.137 . S
Co0 O13 2.244 . S
O1 Co0 2.216 . S
O1 C8 1.247 . S
O2 Co0 2.091 . S
O2 C8 1.261 . S
C3 O12 1.247 . S
C3 O13 1.272 . S
O4 Co0 2.004 . S
O4 C9 1.259 . S
Co5 O6 2.061 . S
Co5 O11 2.052 . S
Co5 O13 2.135 . S
O6 Co5 2.061 . S
O6 C9 1.235 . S
C7 O10 1.238 . S
C7 O11 1.241 . S
C8 O1 1.247 . S
C8 O2 1.261 . S
C9 O4 1.259 . S
C9 O6 1.235 . S
O10 Co0 2.021 . S
O10 C7 1.238 . S
O11 Co5 2.052 . S
O11 C7 1.241 . S
O12 Co0 2.137 . S
O12 C3 1.247 . S
O13 Co0 2.244 . S
O13 C3 1.272 . S
O13 Co5 2.135 . S
Co14 O15 2.216 . S
Co14 O16 2.091 . S
Co14 O18 2.004 . S
Co14 O24 2.021 . S
Co14 O26 2.137 . S
Co14 O27 2.244 . S
O15 Co14 2.216 . S
O15 C22 1.247 . S
O16 Co14 2.091 . S
O16 C22 1.261 . S
C17 O26 1.247 . S
C17 O27 1.272 . S
O18 Co14 2.004 . S
O18 C23 1.259 . S
Co19 O20 2.061 . S
Co19 O25 2.052 . S
Co19 O27 2.135 . S
O20 Co19 2.061 . S
O20 C23 1.235 . S
C21 O24 1.238 . S
C21 O25 1.241 . S
C22 O15 1.247 . S
C22 O16 1.261 . S
C23 O18 1.259 . S
C23 O20 1.235 . S
O24 Co14 2.021 . S
O24 C21 1.238 . S
O25 Co19 2.052 . S
O25 C21 1.241 . S
O26 Co14 2.137 . S
O26 C17 1.247 . S
O27 Co14 2.244 . S
O27 C17 1.272 . S
O27 Co19 2.135 . S
Co28 O29 2.216 . S
Co28 O30 2.091 . S
Co28 O32 2.004 . S
Co28 O38 2.021 . S
Co28 O40 2.137 . S
Co28 O41 2.244 . S
O29 Co28 2.216 . S
O29 C36 1.247 . S
O30 Co28 2.091 . S
O30 C36 1.261 . S
C31 O40 1.247 . S
C31 O41 1.272 . S
O32 Co28 2.004 . S
O32 C37 1.259 . S
Co33 O34 2.061 . S
Co33 O39 2.052 . S
Co33 O41 2.135 . S
O34 Co33 2.061 . S
O34 C37 1.235 . S
C35 O38 1.238 . S
C35 O39 1.241 . S
C36 O29 1.247 . S
C36 O30 1.261 . S
C37 O32 1.259 . S
C37 O34 1.235 . S
O38 Co28 2.021 . S
O38 C35 1.238 . S
O39 Co33 2.052 . S
O39 C35 1.241 . S
O40 Co28 2.137 . S
O40 C31 1.247 . S
O41 Co28 2.244 . S
O41 C31 1.272 . S
O41 Co33 2.135 . S
Co42 O43 2.216 . S
Co42 O44 2.091 . S
Co42 O46 2.004 . S
Co42 O52 2.021 . S
Co42 O54 2.137 . S
Co42 O55 2.244 . S
O43 Co42 2.216 . S
O43 C50 1.247 . S
O44 Co42 2.091 . S
O44 C50 1.261 . S
C45 O54 1.247 . S
C45 O55 1.272 . S
O46 Co42 2.004 . S
O46 C51 1.259 . S
Co47 O48 2.061 . S
Co47 O53 2.052 . S
Co47 O55 2.135 . S
O48 Co47 2.061 . S
O48 C51 1.235 . S
C49 O52 1.238 . S
C49 O53 1.241 . S
C50 O43 1.247 . S
C50 O44 1.261 . S
C51 O46 1.259 . S
C51 O48 1.235 . S
O52 Co42 2.021 . S
O52 C49 1.238 . S
O53 Co47 2.052 . S
O53 C49 1.241 . S
O54 Co42 2.137 . S
O54 C45 1.247 . S
O55 Co42 2.244 . S
O55 C45 1.272 . S
O55 Co47 2.135 . S
Co56 O57 2.216 . S
Co56 O58 2.091 . S
Co56 O60 2.004 . S
Co56 O66 2.021 . S
Co56 O68 2.137 . S
Co56 O69 2.244 . S
O57 Co56 2.216 . S
O57 C64 1.247 . S
O58 Co56 2.091 . S
O58 C64 1.261 . S
C59 O68 1.247 . S
C59 O69 1.272 . S
O60 Co56 2.004 . S
O60 C65 1.259 . S
Co61 O62 2.061 . S
Co61 O67 2.052 . S
Co61 O69 2.135 . S
O62 Co61 2.061 . S
O62 C65 1.235 . S
C63 O66 1.238 . S
C63 O67 1.241 . S
C64 O57 1.247 . S
C64 O58 1.261 . S
C65 O60 1.259 . S
C65 O62 1.235 . S
O66 Co56 2.021 . S
O66 C63 1.238 . S
O67 Co61 2.052 . S
O67 C63 1.241 . S
O68 Co56 2.137 . S
O68 C59 1.247 . S
O69 Co56 2.244 . S
O69 C59 1.272 . S
O69 Co61 2.135 . S
Co70 O71 2.216 . S
Co70 O72 2.091 . S
Co70 O74 2.004 . S
Co70 O80 2.021 . S
Co70 O82 2.137 . S
Co70 O83 2.244 . S
O71 Co70 2.216 . S
O71 C78 1.247 . S
O72 Co70 2.091 . S
O72 C78 1.261 . S
C73 O82 1.247 . S
C73 O83 1.272 . S
O74 Co70 2.004 . S
O74 C79 1.259 . S
Co75 O76 2.061 . S
Co75 O81 2.052 . S
Co75 O83 2.135 . S
O76 Co75 2.061 . S
O76 C79 1.235 . S
C77 O80 1.238 . S
C77 O81 1.241 . S
C78 O71 1.247 . S
C78 O72 1.261 . S
C79 O74 1.259 . S
C79 O76 1.235 . S
O80 Co70 2.021 . S
O80 C77 1.238 . S
O81 Co75 2.052 . S
O81 C77 1.241 . S
O82 Co70 2.137 . S
O82 C73 1.247 . S
O83 Co70 2.244 . S
O83 C73 1.272 . S
O83 Co75 2.135 . S
Co84 O85 2.216 . S
Co84 O86 2.091 . S
Co84 O88 2.004 . S
Co84 O94 2.021 . S
Co84 O96 2.137 . S
Co84 O97 2.244 . S
O85 Co84 2.216 . S
O85 C92 1.247 . S
O86 Co84 2.091 . S
O86 C92 1.261 . S
C87 O96 1.247 . S
C87 O97 1.272 . S
O88 Co84 2.004 . S
O88 C93 1.259 . S
Co89 O90 2.061 . S
Co89 O95 2.052 . S
Co89 O97 2.135 . S
O90 Co89 2.061 . S
O90 C93 1.235 . S
C91 O94 1.238 . S
C91 O95 1.241 . S
C92 O85 1.247 . S
C92 O86 1.261 . S
C93 O88 1.259 . S
C93 O90 1.235 . S
O94 Co84 2.021 . S
O94 C91 1.238 . S
O95 Co89 2.052 . S
O95 C91 1.241 . S
O96 Co84 2.137 . S
O96 C87 1.247 . S
O97 Co84 2.244 . S
O97 C87 1.272 . S
O97 Co89 2.135 . S
Co98 O99 2.216 . S
Co98 O100 2.091 . S
Co98 O102 2.004 . S
Co98 O108 2.021 . S
Co98 O110 2.137 . S
Co98 O111 2.244 . S
O99 Co98 2.216 . S
O99 C106 1.247 . S
O100 Co98 2.091 . S
O100 C106 1.261 . S
C101 O110 1.247 . S
C101 O111 1.272 . S
O102 Co98 2.004 . S
O102 C107 1.259 . S
Co103 O104 2.061 . S
Co103 O109 2.052 . S
Co103 O111 2.135 . S
O104 Co103 2.061 . S
O104 C107 1.235 . S
C105 O108 1.238 . S
C105 O109 1.241 . S
C106 O99 1.247 . S
C106 O100 1.261 . S
C107 O102 1.259 . S
C107 O104 1.235 . S
O108 Co98 2.021 . S
O108 C105 1.238 . S
O109 Co103 2.052 . S
O109 C105 1.241 . S
O110 Co98 2.137 . S
O110 C101 1.247 . S
O111 Co98 2.244 . S
O111 C101 1.272 . S
O111 Co103 2.135 . S
Co112 O113 2.216 . S
Co112 O114 2.091 . S
Co112 O116 2.004 . S
Co112 O122 2.021 . S
Co112 O124 2.137 . S
Co112 O125 2.244 . S
O113 Co112 2.216 . S
O113 C120 1.247 . S
O114 Co112 2.091 . S
O114 C120 1.261 . S
C115 O124 1.247 . S
C115 O125 1.272 . S
O116 Co112 2.004 . S
O116 C121 1.259 . S
Co117 O118 2.061 . S
Co117 O123 2.052 . S
Co117 O125 2.135 . S
O118 Co117 2.061 . S
O118 C121 1.235 . S
C119 O122 1.238 . S
C119 O123 1.241 . S
C120 O113 1.247 . S
C120 O114 1.261 . S
C121 O116 1.259 . S
C121 O118 1.235 . S
O122 Co112 2.021 . S
O122 C119 1.238 . S
O123 Co117 2.052 . S
O123 C119 1.241 . S
O124 Co112 2.137 . S
O124 C115 1.247 . S
O125 Co112 2.244 . S
O125 C115 1.272 . S
O125 Co117 2.135 . S
Co126 O127 2.216 . S
Co126 O128 2.091 . S
Co126 O130 2.004 . S
Co126 O136 2.021 . S
Co126 O138 2.137 . S
Co126 O139 2.244 . S
O127 Co126 2.216 . S
O127 C134 1.247 . S
O128 Co126 2.091 . S
O128 C134 1.261 . S
C129 O138 1.247 . S
C129 O139 1.272 . S
O130 Co126 2.004 . S
O130 C135 1.259 . S
Co131 O132 2.061 . S
Co131 O137 2.052 . S
Co131 O139 2.135 . S
O132 Co131 2.061 . S
O132 C135 1.235 . S
C133 O136 1.238 . S
C133 O137 1.241 . S
C134 O127 1.247 . S
C134 O128 1.261 . S
C135 O130 1.259 . S
C135 O132 1.235 . S
O136 Co126 2.021 . S
O136 C133 1.238 . S
O137 Co131 2.052 . S
O137 C133 1.241 . S
O138 Co126 2.137 . S
O138 C129 1.247 . S
O139 Co126 2.244 . S
O139 C129 1.272 . S
O139 Co131 2.135 . S
Co140 O141 2.216 . S
Co140 O142 2.091 . S
Co140 O144 2.004 . S
Co140 O150 2.021 . S
Co140 O152 2.137 . S
Co140 O153 2.244 . S
O141 Co140 2.216 . S
O141 C148 1.247 . S
O142 Co140 2.091 . S
O142 C148 1.261 . S
C143 O152 1.247 . S
C143 O153 1.272 . S
O144 Co140 2.004 . S
O144 C149 1.259 . S
Co145 O146 2.061 . S
Co145 O151 2.052 . S
Co145 O153 2.135 . S
O146 Co145 2.061 . S
O146 C149 1.235 . S
C147 O150 1.238 . S
C147 O151 1.241 . S
C148 O141 1.247 . S
C148 O142 1.261 . S
C149 O144 1.259 . S
C149 O146 1.235 . S
O150 Co140 2.021 . S
O150 C147 1.238 . S
O151 Co145 2.052 . S
O151 C147 1.241 . S
O152 Co140 2.137 . S
O152 C143 1.247 . S
O153 Co140 2.244 . S
O153 C143 1.272 . S
O153 Co145 2.135 . S
Co154 O155 2.216 . S
Co154 O156 2.091 . S
Co154 O158 2.004 . S
Co154 O164 2.021 . S
Co154 O166 2.137 . S
Co154 O167 2.244 . S
O155 Co154 2.216 . S
O155 C162 1.247 . S
O156 Co154 2.091 . S
O156 C162 1.261 . S
C157 O166 1.247 . S
C157 O167 1.272 . S
O158 Co154 2.004 . S
O158 C163 1.259 . S
Co159 O160 2.061 . S
Co159 O165 2.052 . S
Co159 O167 2.135 . S
O160 Co159 2.061 . S
O160 C163 1.235 . S
C161 O164 1.238 . S
C161 O165 1.241 . S
C162 O155 1.247 . S
C162 O156 1.261 . S
C163 O158 1.259 . S
C163 O160 1.235 . S
O164 Co154 2.021 . S
O164 C161 1.238 . S
O165 Co159 2.052 . S
O165 C161 1.241 . S
O166 Co154 2.137 . S
O166 C157 1.247 . S
O167 Co154 2.244 . S
O167 C157 1.272 . S
O167 Co159 2.135 . S
Co168 O169 2.216 . S
Co168 O170 2.091 . S
Co168 O172 2.004 . S
Co168 O178 2.021 . S
Co168 O180 2.137 . S
Co168 O181 2.244 . S
O169 Co168 2.216 . S
O169 C176 1.247 . S
O170 Co168 2.091 . S
O170 C176 1.261 . S
C171 O180 1.247 . S
C171 O181 1.272 . S
O172 Co168 2.004 . S
O172 C177 1.259 . S
Co173 O174 2.061 . S
Co173 O179 2.052 . S
Co173 O181 2.135 . S
O174 Co173 2.061 . S
O174 C177 1.235 . S
C175 O178 1.238 . S
C175 O179 1.241 . S
C176 O169 1.247 . S
C176 O170 1.261 . S
C177 O172 1.259 . S
C177 O174 1.235 . S
O178 Co168 2.021 . S
O178 C175 1.238 . S
O179 Co173 2.052 . S
O179 C175 1.241 . S
O180 Co168 2.137 . S
O180 C171 1.247 . S
O181 Co168 2.244 . S
O181 C171 1.272 . S
O181 Co173 2.135 . S
Co182 O183 2.216 . S
Co182 O184 2.091 . S
Co182 O186 2.004 . S
Co182 O192 2.021 . S
Co182 O194 2.137 . S
Co182 O195 2.244 . S
O183 Co182 2.216 . S
O183 C190 1.247 . S
O184 Co182 2.091 . S
O184 C190 1.261 . S
C185 O194 1.247 . S
C185 O195 1.272 . S
O186 Co182 2.004 . S
O186 C191 1.259 . S
Co187 O188 2.061 . S
Co187 O193 2.052 . S
Co187 O195 2.135 . S
O188 Co187 2.061 . S
O188 C191 1.235 . S
C189 O192 1.238 . S
C189 O193 1.241 . S
C190 O183 1.247 . S
C190 O184 1.261 . S
C191 O186 1.259 . S
C191 O188 1.235 . S
O192 Co182 2.021 . S
O192 C189 1.238 . S
O193 Co187 2.052 . S
O193 C189 1.241 . S
O194 Co182 2.137 . S
O194 C185 1.247 . S
O195 Co182 2.244 . S
O195 C185 1.272 . S
O195 Co187 2.135 . S
Co196 O197 2.216 . S
Co196 O198 2.091 . S
Co196 O200 2.004 . S
Co196 O206 2.021 . S
Co196 O208 2.137 . S
Co196 O209 2.244 . S
O197 Co196 2.216 . S
O197 C204 1.247 . S
O198 Co196 2.091 . S
O198 C204 1.261 . S
C199 O208 1.247 . S
C199 O209 1.272 . S
O200 Co196 2.004 . S
O200 C205 1.259 . S
Co201 O202 2.061 . S
Co201 O207 2.052 . S
Co201 O209 2.135 . S
O202 Co201 2.061 . S
O202 C205 1.235 . S
C203 O206 1.238 . S
C203 O207 1.241 . S
C204 O197 1.247 . S
C204 O198 1.261 . S
C205 O200 1.259 . S
C205 O202 1.235 . S
O206 Co196 2.021 . S
O206 C203 1.238 . S
O207 Co201 2.052 . S
O207 C203 1.241 . S
O208 Co196 2.137 . S
O208 C199 1.247 . S
O209 Co196 2.244 . S
O209 C199 1.272 . S
O209 Co201 2.135 . S
Co210 O211 2.216 . S
Co210 O212 2.091 . S
Co210 O214 2.004 . S
Co210 O220 2.021 . S
Co210 O222 2.137 . S
Co210 O223 2.244 . S
O211 Co210 2.216 . S
O211 C218 1.247 . S
O212 Co210 2.091 . S
O212 C218 1.261 . S
C213 O222 1.247 . S
C213 O223 1.272 . S
O214 Co210 2.004 . S
O214 C219 1.259 . S
Co215 O216 2.061 . S
Co215 O221 2.052 . S
Co215 O223 2.135 . S
O216 Co215 2.061 . S
O216 C219 1.235 . S
C217 O220 1.238 . S
C217 O221 1.241 . S
C218 O211 1.247 . S
C218 O212 1.261 . S
C219 O214 1.259 . S
C219 O216 1.235 . S
O220 Co210 2.021 . S
O220 C217 1.238 . S
O221 Co215 2.052 . S
O221 C217 1.241 . S
O222 Co210 2.137 . S
O222 C213 1.247 . S
O223 Co210 2.244 . S
O223 C213 1.272 . S
O223 Co215 2.135 . S
Co224 O225 2.216 . S
Co224 O226 2.091 . S
Co224 O228 2.004 . S
Co224 O234 2.021 . S
Co224 O236 2.137 . S
Co224 O237 2.244 . S
O225 Co224 2.216 . S
O225 C232 1.247 . S
O226 Co224 2.091 . S
O226 C232 1.261 . S
C227 O236 1.247 . S
C227 O237 1.272 . S
O228 Co224 2.004 . S
O228 C233 1.259 . S
Co229 O230 2.061 . S
Co229 O235 2.052 . S
Co229 O237 2.135 . S
O230 Co229 2.061 . S
O230 C233 1.235 . S
C231 O234 1.238 . S
C231 O235 1.241 . S
C232 O225 1.247 . S
C232 O226 1.261 . S
C233 O228 1.259 . S
C233 O230 1.235 . S
O234 Co224 2.021 . S
O234 C231 1.238 . S
O235 Co229 2.052 . S
O235 C231 1.241 . S
O236 Co224 2.137 . S
O236 C227 1.247 . S
O237 Co224 2.244 . S
O237 C227 1.272 . S
O237 Co229 2.135 . S
Co238 O239 2.216 . S
Co238 O240 2.091 . S
Co238 O242 2.004 . S
Co238 O248 2.021 . S
Co238 O250 2.137 . S
Co238 O251 2.244 . S
O239 Co238 2.216 . S
O239 C246 1.247 . S
O240 Co238 2.091 . S
O240 C246 1.261 . S
C241 O250 1.247 . S
C241 O251 1.272 . S
O242 Co238 2.004 . S
O242 C247 1.259 . S
Co243 O244 2.061 . S
Co243 O249 2.052 . S
Co243 O251 2.135 . S
O244 Co243 2.061 . S
O244 C247 1.235 . S
C245 O248 1.238 . S
C245 O249 1.241 . S
C246 O239 1.247 . S
C246 O240 1.261 . S
C247 O242 1.259 . S
C247 O244 1.235 . S
O248 Co238 2.021 . S
O248 C245 1.238 . S
O249 Co243 2.052 . S
O249 C245 1.241 . S
O250 Co238 2.137 . S
O250 C241 1.247 . S
O251 Co238 2.244 . S
O251 C241 1.272 . S
O251 Co243 2.135 . S
Co252 O253 2.216 . S
Co252 O254 2.091 . S
Co252 O256 2.004 . S
Co252 O262 2.021 . S
Co252 O264 2.137 . S
Co252 O265 2.244 . S
O253 Co252 2.216 . S
O253 C260 1.247 . S
O254 Co252 2.091 . S
O254 C260 1.261 . S
C255 O264 1.247 . S
C255 O265 1.272 . S
O256 Co252 2.004 . S
O256 C261 1.259 . S
Co257 O258 2.061 . S
Co257 O263 2.052 . S
Co257 O265 2.135 . S
O258 Co257 2.061 . S
O258 C261 1.235 . S
C259 O262 1.238 . S
C259 O263 1.241 . S
C260 O253 1.247 . S
C260 O254 1.261 . S
C261 O256 1.259 . S
C261 O258 1.235 . S
O262 Co252 2.021 . S
O262 C259 1.238 . S
O263 Co257 2.052 . S
O263 C259 1.241 . S
O264 Co252 2.137 . S
O264 C255 1.247 . S
O265 Co252 2.244 . S
O265 C255 1.272 . S
O265 Co257 2.135 . S
Co266 O267 2.216 . S
Co266 O268 2.091 . S
Co266 O270 2.004 . S
Co266 O276 2.021 . S
Co266 O278 2.137 . S
Co266 O279 2.244 . S
O267 Co266 2.216 . S
O267 C274 1.247 . S
O268 Co266 2.091 . S
O268 C274 1.261 . S
C269 O278 1.247 . S
C269 O279 1.272 . S
O270 Co266 2.004 . S
O270 C275 1.259 . S
Co271 O272 2.061 . S
Co271 O277 2.052 . S
Co271 O279 2.135 . S
O272 Co271 2.061 . S
O272 C275 1.235 . S
C273 O276 1.238 . S
C273 O277 1.241 . S
C274 O267 1.247 . S
C274 O268 1.261 . S
C275 O270 1.259 . S
C275 O272 1.235 . S
O276 Co266 2.021 . S
O276 C273 1.238 . S
O277 Co271 2.052 . S
O277 C273 1.241 . S
O278 Co266 2.137 . S
O278 C269 1.247 . S
O279 Co266 2.244 . S
O279 C269 1.272 . S
O279 Co271 2.135 . S
Co280 O281 2.216 . S
Co280 O282 2.091 . S
Co280 O284 2.004 . S
Co280 O290 2.021 . S
Co280 O292 2.137 . S
Co280 O293 2.244 . S
O281 Co280 2.216 . S
O281 C288 1.247 . S
O282 Co280 2.091 . S
O282 C288 1.261 . S
C283 O292 1.247 . S
C283 O293 1.272 . S
O284 Co280 2.004 . S
O284 C289 1.259 . S
Co285 O286 2.061 . S
Co285 O291 2.052 . S
Co285 O293 2.135 . S
O286 Co285 2.061 . S
O286 C289 1.235 . S
C287 O290 1.238 . S
C287 O291 1.241 . S
C288 O281 1.247 . S
C288 O282 1.261 . S
C289 O284 1.259 . S
C289 O286 1.235 . S
O290 Co280 2.021 . S
O290 C287 1.238 . S
O291 Co285 2.052 . S
O291 C287 1.241 . S
O292 Co280 2.137 . S
O292 C283 1.247 . S
O293 Co280 2.244 . S
O293 C283 1.272 . S
O293 Co285 2.135 . S
Co294 O295 2.216 . S
Co294 O296 2.091 . S
Co294 O298 2.004 . S
Co294 O304 2.021 . S
Co294 O306 2.137 . S
Co294 O307 2.244 . S
O295 Co294 2.216 . S
O295 C302 1.247 . S
O296 Co294 2.091 . S
O296 C302 1.261 . S
C297 O306 1.247 . S
C297 O307 1.272 . S
O298 Co294 2.004 . S
O298 C303 1.259 . S
Co299 O300 2.061 . S
Co299 O305 2.052 . S
Co299 O307 2.135 . S
O300 Co299 2.061 . S
O300 C303 1.235 . S
C301 O304 1.238 . S
C301 O305 1.241 . S
C302 O295 1.247 . S
C302 O296 1.261 . S
C303 O298 1.259 . S
C303 O300 1.235 . S
O304 Co294 2.021 . S
O304 C301 1.238 . S
O305 Co299 2.052 . S
O305 C301 1.241 . S
O306 Co294 2.137 . S
O306 C297 1.247 . S
O307 Co294 2.244 . S
O307 C297 1.272 . S
O307 Co299 2.135 . S
Co308 O309 2.216 . S
Co308 O310 2.091 . S
Co308 O312 2.004 . S
Co308 O318 2.021 . S
Co308 O320 2.137 . S
Co308 O321 2.244 . S
O309 Co308 2.216 . S
O309 C316 1.247 . S
O310 Co308 2.091 . S
O310 C316 1.261 . S
C311 O320 1.247 . S
C311 O321 1.272 . S
O312 Co308 2.004 . S
O312 C317 1.259 . S
Co313 O314 2.061 . S
Co313 O319 2.052 . S
Co313 O321 2.135 . S
O314 Co313 2.061 . S
O314 C317 1.235 . S
C315 O318 1.238 . S
C315 O319 1.241 . S
C316 O309 1.247 . S
C316 O310 1.261 . S
C317 O312 1.259 . S
C317 O314 1.235 . S
O318 Co308 2.021 . S
O318 C315 1.238 . S
O319 Co313 2.052 . S
O319 C315 1.241 . S
O320 Co308 2.137 . S
O320 C311 1.247 . S
O321 Co308 2.244 . S
O321 C311 1.272 . S
O321 Co313 2.135 . S
Co322 O323 2.216 . S
Co322 O324 2.091 . S
Co322 O326 2.004 . S
Co322 O332 2.021 . S
Co322 O334 2.137 . S
Co322 O335 2.244 . S
O323 Co322 2.216 . S
O323 C330 1.247 . S
O324 Co322 2.091 . S
O324 C330 1.261 . S
C325 O334 1.247 . S
C325 O335 1.272 . S
O326 Co322 2.004 . S
O326 C331 1.259 . S
Co327 O328 2.061 . S
Co327 O333 2.052 . S
Co327 O335 2.135 . S
O328 Co327 2.061 . S
O328 C331 1.235 . S
C329 O332 1.238 . S
C329 O333 1.241 . S
C330 O323 1.247 . S
C330 O324 1.261 . S
C331 O326 1.259 . S
C331 O328 1.235 . S
O332 Co322 2.021 . S
O332 C329 1.238 . S
O333 Co327 2.052 . S
O333 C329 1.241 . S
O334 Co322 2.137 . S
O334 C325 1.247 . S
O335 Co322 2.244 . S
O335 C325 1.272 . S
O335 Co327 2.135 . S
C218 C7 1.261 . S
C175 C22 1.407 1_655 S
C189 C35 1.378 . S
C203 C50 1.412 1_455 S
C204 C21 1.361 . S
C36 C217 1.393 1_655 S
C176 C49 1.355 . S
C190 C8 1.256 1_655 S
C260 C64 1.146 . S
C77 C273 1.494 1_556 S
C92 C232 1.191 . S
C245 C105 1.470 1_554 S
C315 C119 1.543 . S
C133 C330 1.198 1_554 S
C147 C287 1.566 . S
C161 C302 1.209 1_554 S
C246 C162 1.238 . S
C329 C78 1.501 . S
C91 C288 1.487 1_565 S
C301 C106 1.486 . S
C316 C63 1.396 1_565 S
C134 C274 1.319 . S
C231 C148 1.401 1_565 S
C259 C120 1.384 1_545 S
C3 C59 1.129 . S
C79 C23 0.950 . S
C31 C87 1.231 . S
C51 C107 0.938 . S
C121 C17 1.091 . S
C135 C37 0.895 . S
C149 C45 1.106 . S
C9 C163 0.799 . S
C157 C65 0.945 . S
C73 C115 1.298 . S
C93 C129 0.956 . S
C143 C101 1.285 . S
C227 C177 1.005 . S
C247 C191 0.962 . S
C205 C255 1.000 . S
C213 C275 1.055 . S
C185 C289 1.094 . S
C199 C297 1.259 . S
C317 C219 0.920 . S
C171 C325 1.257 . S
C233 C331 0.857 . S
C283 C241 1.287 . S
C261 C303 0.843 . S
C311 C269 1.269 . S
