# Generated by pormake.
# Topology smu, (6)-cn, num edge types: 1
# Building blocks:
#     Node 0, Type 0, BuildingBlock: UKALOJ_clean_sbu_0, # of connection points: 6
#     Node 1, Type 0, BuildingBlock: UKALOJ_clean_sbu_0, # of connection points: 6
#     Node 2, Type 0, BuildingBlock: UKALOJ_clean_sbu_0, # of connection points: 6
#     Node 3, Type 0, BuildingBlock: UKALOJ_clean_sbu_0, # of connection points: 6
#     Node 4, Type 0, BuildingBlock: UKALOJ_clean_sbu_0, # of connection points: 6
#     Node 5, Type 0, BuildingBlock: UKALOJ_clean_sbu_0, # of connection points: 6
#     Edge 6, Type (0, 0), BuildingBlock: OJICUG_clean_linker_0, # of connection points: 2
#     Edge 7, Type (0, 0), BuildingBlock: OJICUG_clean_linker_0, # of connection points: 2
#     Edge 8, Type (0, 0), BuildingBlock: OJICUG_clean_linker_0, # of connection points: 2
#     Edge 9, Type (0, 0), BuildingBlock: OJICUG_clean_linker_0, # of connection points: 2
#     Edge 10, Type (0, 0), BuildingBlock: OJICUG_clean_linker_0, # of connection points: 2
#     Edge 11, Type (0, 0), BuildingBlock: OJICUG_clean_linker_0, # of connection points: 2
#     Edge 12, Type (0, 0), BuildingBlock: OJICUG_clean_linker_0, # of connection points: 2
#     Edge 13, Type (0, 0), BuildingBlock: OJICUG_clean_linker_0, # of connection points: 2
#     Edge 14, Type (0, 0), BuildingBlock: OJICUG_clean_linker_0, # of connection points: 2
#     Edge 15, Type (0, 0), BuildingBlock: OJICUG_clean_linker_0, # of connection points: 2
#     Edge 16, Type (0, 0), BuildingBlock: OJICUG_clean_linker_0, # of connection points: 2
#     Edge 17, Type (0, 0), BuildingBlock: OJICUG_clean_linker_0, # of connection points: 2
#     Edge 18, Type (0, 0), BuildingBlock: OJICUG_clean_linker_0, # of connection points: 2
#     Edge 19, Type (0, 0), BuildingBlock: OJICUG_clean_linker_0, # of connection points: 2
#     Edge 20, Type (0, 0), BuildingBlock: OJICUG_clean_linker_0, # of connection points: 2
#     Edge 21, Type (0, 0), BuildingBlock: OJICUG_clean_linker_0, # of connection points: 2
#     Edge 22, Type (0, 0), BuildingBlock: OJICUG_clean_linker_0, # of connection points: 2
#     Edge 23, Type (0, 0), BuildingBlock: OJICUG_clean_linker_0, # of connection points: 2
# Relax obj value: 0.157
# Max RMSD: 0.224
# Mean RMSD: 0.224
data_MOF--net-smu--node1-UKALOJ_clean_sbu_0--edge1-OJICUG_clean_linker_0
_symmetry_space_group_name_H-M    P1
_symmetry_Int_Tables_number       1
_symmetry_cell_setting            triclinic
loop_
_symmetry_equiv_pos_as_xyz
'x, y, z'
_cell_length_a     21.30527
_cell_length_b     21.27544
_cell_length_c     31.350926
_cell_angle_alpha  90.267633
_cell_angle_beta   89.983114
_cell_angle_gamma 119.90717
loop_
_atom_site_label
_atom_site_type_symbol
_atom_site_fract_x
_atom_site_fract_y
_atom_site_fract_z
_atom_type_partial_charge
Zn0 Zn 0.28007 0.07803 0.32203 0.0
O1 O 0.19987 0.10698 0.32428 0.0
C2 C 0.17421 0.93518 0.28707 0.0
Zn3 Zn 0.27894 0.07638 0.25001 0.0
C4 C 0.17727 0.11764 0.289 0.0
O5 O 0.19878 0.10466 0.25398 0.0
C6 C 0.39063 0.0487 0.28288 0.0
O7 O 0.3554 0.18702 0.24948 0.0
O8 O 0.35668 0.18908 0.31979 0.0
N9 N 0.27046 0.07325 0.18391 0.0
C10 C 0.25929 0.0212 0.15498 0.0
C11 C 0.25632 0.10631 0.12137 0.0
N12 N 0.26868 0.12603 0.16279 0.0
N13 N 0.24949 0.04031 0.11528 0.0
C14 C 0.24035 0.0394 0.41969 0.0
C15 C 0.34562 0.09321 0.4473 0.0
N16 N 0.28759 0.07789 0.38827 0.0
N17 N 0.35271 0.11195 0.4059 0.0
N18 N 0.27567 0.04719 0.45714 0.0
H19 H 0.14434 -0.00558 0.37991 0.0
H20 H 0.13178 0.01361 0.43336 0.0
H21 H 0.1425 0.93637 0.423 0.0
C22 C 0.16031 -0.00712 0.41324 0.0
C23 C 0.26089 0.95342 0.16579 0.0
H24 H 0.29232 0.96042 0.19517 0.0
H25 H 0.285 0.93777 0.13932 0.0
H26 H 0.20484 0.90879 0.17143 0.0
O27 O 0.36279 0.05299 0.24799 0.0
O28 O 0.36357 0.05337 0.31805 0.0
C29 C 0.37754 0.22214 0.28437 0.0
O30 O 0.20177 -0.03206 0.32191 0.0
O31 O 0.19994 -0.03265 0.25203 0.0
Zn32 Zn 0.72835 0.63447 0.24965 0.0
O33 O 0.76283 0.55848 0.24915 0.0
C34 C 0.58845 0.52344 0.28283 0.0
Zn35 Zn 0.72783 0.6346 0.32162 0.0
C36 C 0.77476 0.53633 0.28417 0.0
O37 O 0.76132 0.55703 0.31946 0.0
C38 C 0.69158 0.74023 0.2862 0.0
O39 O 0.83716 0.71409 0.32367 0.0
O40 O 0.83699 0.71521 0.25341 0.0
N41 N 0.72075 0.62856 0.38777 0.0
C42 C 0.72761 0.67717 0.418 0.0
C43 C 0.68797 0.57558 0.44898 0.0
N44 N 0.69657 0.56559 0.40732 0.0
N45 N 0.70655 0.64514 0.45657 0.0
C46 C 0.69159 0.6526 0.15495 0.0
C47 C 0.77945 0.656 0.12073 0.0
N48 N 0.73297 0.6419 0.18352 0.0
N49 N 0.7874 0.64395 0.16203 0.0
N50 N 0.72005 0.6624 0.11511 0.0
H51 H 0.59817 0.61917 0.19551 0.0
H52 H 0.58234 0.6263 0.13985 0.0
H53 H 0.63332 0.70671 0.1722 0.0
C54 C 0.62222 0.65065 0.16622 0.0
C55 C 0.75841 0.75652 0.41036 0.0
H56 H 0.79299 0.77415 0.38153 0.0
H57 H 0.79057 0.78815 0.43844 0.0
H58 H 0.71341 0.7677 0.40613 0.0
O59 O 0.69753 0.71447 0.32143 0.0
O60 O 0.69781 0.71297 0.25154 0.0
C61 C 0.87099 0.73656 0.28861 0.0
O62 O 0.62126 0.55001 0.24799 0.0
O63 O 0.61952 0.5517 0.31802 0.0
Zn64 Zn 0.83617 0.18667 0.32154 0.0
O65 O 0.80491 0.07683 0.32313 0.0
C66 C -0.02225 0.2212 0.28657 0.0
Zn67 Zn 0.83658 0.18616 0.24961 0.0
C68 C 0.79414 0.04313 0.28787 0.0
O69 O 0.80779 0.07737 0.25288 0.0
C70 C 0.86678 0.32672 0.28321 0.0
O71 O 0.72642 0.15288 0.24887 0.0
O72 O 0.72587 0.15477 0.31918 0.0
N73 N 0.83964 0.18107 0.18354 0.0
C74 C 0.89195 0.22155 0.15502 0.0
C75 C 0.80683 0.13408 0.12072 0.0
N76 N 0.78685 0.12688 0.16201 0.0
N77 N 0.87301 0.19275 0.11515 0.0
C78 C 0.87753 0.18596 0.41789 0.0
C79 C 0.81711 0.22767 0.449 0.0
N80 N 0.83672 0.19386 0.38768 0.0
N81 N 0.79886 0.21932 0.40731 0.0
N82 N 0.8669 0.20762 0.45652 0.0
H83 H 0.90776 0.11917 0.38108 0.0
H84 H 0.92303 0.12077 0.43804 0.0
H85 H -0.01867 0.19778 0.40635 0.0
C86 C 0.92479 0.15357 0.41016 0.0
C87 C -0.04014 0.29046 0.16636 0.0
H88 H -0.04716 0.31519 0.19569 0.0
H89 H -0.02396 0.33021 0.14004 0.0
H90 H 0.00407 0.27837 0.17233 0.0
O91 O 0.86052 0.29363 0.24827 0.0
O92 O 0.86307 0.2955 0.31832 0.0
C93 C 0.69216 0.14154 0.28381 0.0
O94 O 0.94564 0.21548 0.32166 0.0
O95 O 0.94505 0.21547 0.25175 0.0
Zn96 Zn 0.05844 0.29592 0.81986 0.0
O97 O 0.16851 0.37238 0.82019 0.0
C98 C 0.02783 0.40625 0.78721 0.0
Zn99 Zn 0.05729 0.29601 0.74792 0.0
C100 C 0.20227 0.39495 0.78512 0.0
O101 O 0.16799 0.37429 0.7499 0.0
C102 C 0.9163 0.18952 0.78359 0.0
O103 O 0.08816 0.2172 0.74537 0.0
O104 O 0.08719 0.21571 0.81563 0.0
N105 N 0.05581 0.30239 0.68184 0.0
C106 C 0.01426 0.25389 0.65157 0.0
C107 C 0.07559 0.35566 0.62074 0.0
N108 N 0.0942 0.36547 0.66238 0.0
N109 N 0.02499 0.2861 0.61307 0.0
C110 C 0.00424 0.27723 0.9147 0.0
C111 C 0.08856 0.27283 0.94845 0.0
N112 N 0.05608 0.28803 0.88594 0.0
N113 N 0.10837 0.28535 0.90713 0.0
N114 N 0.02297 0.26675 0.95436 0.0
H115 H 0.9441 0.31135 0.87463 0.0
H116 H 0.92162 0.3039 0.93035 0.0
H117 H 0.892 0.2237 0.89771 0.0
C118 C 0.93692 0.27962 0.90378 0.0
C119 C -0.03387 0.17449 0.65909 0.0
H120 H -0.01657 0.15671 0.68774 0.0
H121 H -0.03346 0.14301 0.63087 0.0
H122 H 0.91003 0.1633 0.6636 0.0
O123 O -0.05238 0.21548 0.7483 0.0
O124 O -0.0502 0.21691 0.81819 0.0
C125 C 0.09995 0.19471 0.78031 0.0
O126 O 0.0349 0.37992 0.82194 0.0
O127 O 0.03064 0.37814 0.75194 0.0
Zn128 Zn 0.16609 0.85373 0.81886 0.0
O129 O 0.13138 0.74297 0.81987 0.0
C130 C 0.30476 0.8801 0.78579 0.0
Zn131 Zn 0.16502 0.85123 0.74683 0.0
C132 C 0.11797 0.70742 0.78512 0.0
O133 O 0.13015 0.74012 0.74957 0.0
C134 C 0.2033 -0.00517 0.78125 0.0
O135 O 0.05617 0.82307 0.74478 0.0
O136 O 0.05796 0.82635 0.81507 0.0
N137 N 0.1722 0.85034 0.68058 0.0
C138 C 0.16388 0.88892 0.64899 0.0
C139 C 0.21401 0.83337 0.62163 0.0
N140 N 0.20239 0.81517 0.66311 0.0
N141 N 0.1909 0.88012 0.61158 0.0
C142 C 0.20245 0.90968 0.91375 0.0
C143 C 0.11431 0.82541 0.94759 0.0
N144 N 0.16118 0.85768 0.88495 0.0
N145 N 0.10658 0.80544 0.90621 0.0
N146 N 0.17377 0.89105 0.95353 0.0
H147 H 0.2958 -0.0305 0.87323 0.0
H148 H 0.31181 -0.00792 0.92906 0.0
H149 H 0.26102 0.02204 0.89728 0.0
C150 C 0.27193 -0.02309 0.90275 0.0
C151 C 0.13127 0.93647 0.65522 0.0
H152 H 0.11365 0.93526 0.68849 0.0
H153 H 0.08231 0.91641 0.63499 0.0
H154 H 0.17047 -0.00724 0.64546 0.0
O155 O 0.19735 0.9615 0.74649 0.0
O156 O 0.19681 0.96289 0.81639 0.0
C157 C 0.02327 0.81305 0.78014 0.0
O158 O 0.27288 0.87622 0.82071 0.0
O159 O 0.27288 0.87513 0.75066 0.0
Zn160 Zn 0.61395 0.74335 0.74795 0.0
O161 O 0.69278 0.85306 0.74669 0.0
C162 C 0.72031 0.70791 0.78325 0.0
Zn163 Zn 0.6144 0.74374 0.81991 0.0
C164 C 0.71563 0.88665 0.78197 0.0
O165 O 0.6947 0.85239 0.81694 0.0
C166 C 0.50376 0.6036 0.78592 0.0
O167 O 0.53797 0.77781 0.82034 0.0
O168 O 0.53602 0.77597 0.75002 0.0
N169 N 0.62186 0.74839 0.88606 0.0
C170 C 0.63321 0.70745 0.91457 0.0
C171 C 0.63605 0.79527 0.94894 0.0
N172 N 0.62354 0.80279 0.90764 0.0
N173 N 0.6431 0.73618 0.95447 0.0
C174 C 0.65726 0.74447 0.65177 0.0
C175 C 0.55577 0.70337 0.6202 0.0
N176 N 0.60823 0.73659 0.68176 0.0
N177 N 0.54532 0.7115 0.66185 0.0
N178 N 0.62557 0.72317 0.61298 0.0
H179 H 0.76801 0.80945 0.63211 0.0
H180 H 0.74891 0.73222 0.66379 0.0
H181 H 0.75356 0.81083 0.689 0.0
C182 C 0.73663 0.77657 0.65987 0.0
C183 C 0.63179 0.63822 0.90314 0.0
H184 H 0.60007 0.61378 0.8738 0.0
H185 H 0.60802 0.59843 0.92943 0.0
H186 H 0.68786 0.64978 0.89714 0.0
O187 O 0.53053 0.63646 0.82091 0.0
O188 O 0.53167 0.63472 0.75086 0.0
C189 C 0.51534 0.78929 0.78532 0.0
O190 O 0.69413 0.71377 0.74812 0.0
O191 O 0.69318 0.71366 0.81802 0.0
C192 C 0.23331 0.0056 0.99667 0.0
C193 C 0.19627 0.92936 0.99408 0.0
H194 H 0.28123 0.0999 0.03683 0.0
C195 C 0.17607 0.89018 1.03251 0.0
H196 H 0.24575 0.03844 0.96846 0.0
C197 C 0.19314 0.9258 0.07211 0.0
C198 C 0.23313 0.002 0.0747 0.0
H199 H 0.14562 0.8315 1.03198 0.0
H200 H 0.17253 0.89305 0.10034 0.0
C201 C 0.25238 0.0412 0.03627 0.0
C202 C 0.63564 0.72965 0.53444 0.0
C203 C 0.65383 0.71142 0.57373 0.0
H204 H 0.63804 0.7228 0.46631 0.0
C205 C 0.69292 0.67418 0.57367 0.0
H206 H 0.60423 0.75693 0.53362 0.0
C207 C 0.71247 0.65481 0.53518 0.0
C208 C 0.69397 0.67273 0.49589 0.0
H209 H 0.70515 0.65669 0.6033 0.0
H210 H 0.74053 0.62415 0.53599 0.0
C211 C 0.65573 0.71083 0.49595 0.0
C212 C -0.01234 0.25003 0.07276 0.0
C213 C 0.91156 0.21444 0.07485 0.0
H214 H 0.08208 0.2966 1.03321 0.0
C215 C 0.87264 0.19491 0.03619 0.0
H216 H 0.02017 0.26172 0.10118 0.0
C217 C 0.90842 0.21145 0.99683 0.0
C218 C -0.01544 0.25038 0.99473 0.0
H219 H 0.81402 0.16545 0.03636 0.0
H220 H 0.87573 0.1913 0.96842 0.0
C221 C 0.02348 0.26871 1.03339 0.0
C222 C 0.29744 -0.01681 0.51558 0.0
C223 C 0.25187 0.00473 0.49596 0.0
H224 H 0.31405 0.92784 0.56716 0.0
C225 C 0.18492 -0.01522 0.51543 0.0
H226 H 0.34929 -0.00272 0.50163 0.0
C227 C 0.1639 0.94335 0.55306 0.0
C228 C 0.21008 0.92237 0.57266 0.0
H229 H 0.14913 0.00194 0.5023 0.0
H230 H 0.11114 0.92704 0.5661 0.0
C231 C 0.27692 0.94276 0.55311 0.0
C232 C 0.69981 0.67788 0.99676 0.0
C233 C 0.65992 0.71428 0.99475 0.0
H234 H 0.74747 0.63083 0.03619 0.0
C235 C 0.64124 0.7345 1.03347 0.0
H236 H 0.72009 0.66558 0.9683 0.0
C237 C 0.6607 0.71798 0.0728 0.0
C238 C 0.69745 0.67844 0.07481 0.0
H239 H 0.61255 0.76454 1.03338 0.0
H240 H 0.64873 0.73864 0.10124 0.0
C241 C 0.71718 0.65927 0.03609 0.0
C242 C 0.87019 0.20135 0.53508 0.0
C243 C 0.90671 0.21963 0.49584 0.0
H244 H 0.87919 0.20819 0.60323 0.0
C245 C -0.01712 0.25707 0.49596 0.0
H246 H 0.81161 0.17392 0.53584 0.0
C247 C 0.02158 0.27657 0.53448 0.0
C248 C -0.01493 0.25855 0.57373 0.0
H249 H 0.0126 0.27456 0.46635 0.0
H250 H 0.08017 0.30734 0.53372 0.0
C251 C 0.9089 0.22028 0.57361 0.0
C252 C 0.50088 0.06812 0.24423 0.0
C253 C 0.46302 0.05611 0.28278 0.0
H254 H 0.60356 0.10601 0.21434 0.0
C255 C 0.49994 0.06584 0.32155 0.0
H256 H 0.4739 0.06098 0.21383 0.0
C257 C 0.57437 0.09266 0.32184 0.0
C258 C 0.61307 0.10976 0.28338 0.0
H259 H 0.47225 0.05685 0.35181 0.0
H260 H 0.60176 0.10197 0.35227 0.0
C261 C 0.57534 0.09486 0.24454 0.0
C262 C 0.49708 0.41264 0.24438 0.0
C263 C 0.52311 0.45126 0.28285 0.0
H264 H 0.43141 0.30942 0.21471 0.0
C265 C 0.49537 0.41524 0.32167 0.0
H266 H 0.5173 0.4389 0.21393 0.0
C267 C 0.44696 0.34089 0.32212 0.0
C268 C 0.42511 0.30133 0.28376 0.0
H269 H 0.5142 0.44351 0.35187 0.0
H270 H 0.42852 0.31415 0.35261 0.0
C271 C 0.44857 0.33826 0.24485 0.0
C272 C 0.84893 0.41862 0.24477 0.0
C273 C 0.86031 0.39234 0.28331 0.0
H274 H 0.81154 0.48387 0.21483 0.0
C275 C 0.85048 0.41964 0.3221 0.0
H276 H 0.85627 0.39879 0.21435 0.0
C277 C 0.82384 0.46756 0.32237 0.0
C278 C 0.80705 0.48933 0.28387 0.0
H279 H 0.85903 0.40064 0.35236 0.0
H280 H 0.81422 0.48558 0.35279 0.0
C281 C 0.82237 0.46661 0.24506 0.0
C282 C 0.04086 0.51376 0.74845 0.0
C283 C 0.03401 0.47824 0.7873 0.0
H284 H 0.07415 0.61452 0.71728 0.0
C285 C 0.04774 0.51732 0.82568 0.0
H286 H 0.03042 0.48509 0.71832 0.0
C287 C 0.07363 0.59175 0.82503 0.0
C288 C 0.08596 0.62819 0.78601 0.0
H289 H 0.04277 0.49142 0.85615 0.0
H290 H 0.08639 0.62101 0.85506 0.0
C291 C 0.06685 0.58815 0.74782 0.0
C292 C 0.39714 0.86307 0.74717 0.0
C293 C 0.37 0.87312 0.78589 0.0
H294 H 0.46343 0.82729 0.71664 0.0
C295 C 0.39651 0.86216 0.8245 0.0
H296 H 0.37793 0.87128 0.71687 0.0
C297 C 0.44488 0.83609 0.82434 0.0
C298 C 0.46771 0.82083 0.78558 0.0
H299 H 0.37675 0.86962 0.85487 0.0
H300 H 0.46245 0.82569 0.8546 0.0
C301 C 0.44542 0.83694 0.74702 0.0
C302 C 0.31967 0.46452 0.74673 0.0
C303 C 0.28139 0.44213 0.78528 0.0
H304 H 0.42144 0.53154 0.71665 0.0
C305 C 0.31959 0.46416 0.82403 0.0
H306 H 0.2919 0.4471 0.71634 0.0
C307 C 0.39403 0.51185 0.82425 0.0
C308 C 0.43146 0.53853 0.7857 0.0
H309 H 0.29176 0.44646 0.85429 0.0
H310 H 0.42134 0.53101 0.85466 0.0
C311 C 0.39411 0.51213 0.74693 0.0
C312 C 0.10468 0.15992 0.24909 0.0
C313 C 0.13182 0.15143 0.28811 0.0
H314 H 0.03673 0.1921 0.21771 0.0
C315 C 0.11877 0.17947 0.32554 0.0
H316 H 0.11555 0.14069 0.21947 0.0
C317 C 0.07484 0.21074 0.32434 0.0
C318 C 0.04224 0.21304 0.28594 0.0
H319 H 0.14134 0.17616 0.35584 0.0
H320 H 0.0636 0.22974 0.35377 0.0
C321 C 0.06051 0.19068 0.24797 0.0
C322 C -0.01243 0.80293 0.24941 0.0
C323 C -0.04971 0.78165 0.28834 0.0
H324 H 0.08904 0.86587 0.21837 0.0
C325 C -0.01024 0.8005 0.32666 0.0
H326 H -0.04119 0.78751 0.21926 0.0
C327 C 0.06485 0.84436 0.32611 0.0
C328 C 0.10148 0.87077 0.2873 0.0
H329 H -0.03739 0.78299 0.35712 0.0
H330 H 0.0935 0.86106 0.35622 0.0
C331 C 0.06249 0.84682 0.24888 0.0
C332 C 0.75094 0.9274 0.24812 0.0
C333 C 0.75997 0.96383 0.28705 0.0
H334 H 0.71874 0.82666 0.21703 0.0
C335 C 0.73256 0.92352 0.32457 0.0
H336 H 0.76963 0.95688 0.21844 0.0
C337 C 0.70163 0.84836 0.32358 0.0
C338 C 0.69901 0.81268 0.2853 0.0
H339 H 0.73631 0.95002 0.35482 0.0
H340 H 0.68332 0.81881 0.35311 0.0
C341 C 0.72049 0.85247 0.24722 0.0
C342 C 0.15178 0.12935 0.81911 0.0
C343 C 0.13446 0.14979 0.7803 0.0
H344 H 0.19101 0.06664 0.8499 0.0
C345 C 0.15375 0.12997 0.74181 0.0
H346 H 0.13956 0.14562 0.84936 0.0
C347 C 0.18472 0.08572 0.74214 0.0
C348 C 0.19595 0.05992 0.78092 0.0
H349 H 0.1431 0.14686 0.71141 0.0
H350 H 0.19548 0.06812 0.71196 0.0
C351 C 0.18256 0.08511 0.81943 0.0
C352 C 0.90891 0.77167 0.82033 0.0
C353 C 0.94414 0.77914 0.78128 0.0
H354 H 0.80911 0.73975 0.85193 0.0
C355 C 0.90279 0.74962 0.74412 0.0
H356 H 0.93925 0.79205 0.84976 0.0
C357 C 0.82768 0.71781 0.74558 0.0
C358 C 0.79309 0.71646 0.78394 0.0
H359 H 0.92839 0.75208 0.71383 0.0
H360 H 0.79717 0.69758 0.71634 0.0
C361 C 0.83405 0.74037 0.82169 0.0
C362 C 0.81837 0.08144 0.74631 0.0
C363 C 0.85166 0.11699 0.78454 0.0
H364 H 0.75094 -0.02004 0.71513 0.0
C365 C 0.83367 0.07711 0.8226 0.0
H366 H 0.82943 0.11104 0.71681 0.0
C367 C 0.78899 0.00222 0.82171 0.0
C368 C 0.76113 -0.03409 0.78282 0.0
H369 H 0.85797 0.10283 0.85275 0.0
H370 H 0.77835 -0.02734 0.85135 0.0
C371 C 0.77397 0.00634 0.74534 0.0
loop_
_geom_bond_atom_site_label_1
_geom_bond_atom_site_label_2
_geom_bond_distance
_geom_bond_site_symmetry_2
_ccdc_geom_bond_type
Zn0 O1 2.055 . S
Zn0 O8 2.046 . S
Zn0 N16 2.036 . S
Zn0 O28 2.053 . S
Zn0 O30 2.066 . S
O1 Zn0 2.055 . S
O1 C4 1.259 . S
C2 O30 1.256 1_565 S
C2 O31 1.244 1_565 S
Zn3 O5 2.046 . S
Zn3 O7 2.055 . S
Zn3 N9 2.036 . S
Zn3 O27 2.066 . S
Zn3 O31 2.053 . S
C4 O1 1.259 . S
C4 O5 1.254 . S
O5 Zn3 2.046 . S
O5 C4 1.254 . S
C6 O27 1.256 . S
C6 O28 1.244 . S
O7 Zn3 2.055 . S
O7 C29 1.259 . S
O8 Zn0 2.046 . S
O8 C29 1.254 . S
N9 Zn3 2.036 . S
N9 C10 1.298 . S
N9 N12 1.398 . S
C10 N9 1.298 . S
C10 N13 1.367 . S
C10 C23 1.481 . S
C11 N12 1.299 . S
C11 N13 1.379 . S
N12 N9 1.398 . S
N12 C11 1.299 . S
N13 C10 1.367 . S
N13 C11 1.379 . S
C14 N16 1.298 . S
C14 N18 1.367 . S
C14 C22 1.481 . S
C15 N17 1.299 . S
C15 N18 1.379 . S
N16 Zn0 2.036 . S
N16 C14 1.298 . S
N16 N17 1.398 . S
N17 C15 1.299 . S
N17 N16 1.398 . S
N18 C14 1.367 . S
N18 C15 1.379 . S
H19 C22 0.980 . S
H20 C22 0.981 . S
H21 C22 0.981 . S
C22 C14 1.481 . S
C22 H19 0.980 . S
C22 H20 0.981 . S
C22 H21 0.981 . S
C23 C10 1.481 . S
C23 H24 0.980 . S
C23 H25 0.981 . S
C23 H26 0.981 . S
H24 C23 0.980 . S
H25 C23 0.981 . S
H26 C23 0.981 . S
O27 Zn3 2.066 . S
O27 C6 1.256 . S
O28 Zn0 2.053 . S
O28 C6 1.244 . S
C29 O7 1.259 . S
C29 O8 1.254 . S
O30 Zn0 2.066 . S
O30 C2 1.256 1_545 S
O31 C2 1.244 1_545 S
O31 Zn3 2.053 . S
Zn32 O33 2.055 . S
Zn32 O40 2.046 . S
Zn32 N48 2.036 . S
Zn32 O60 2.053 . S
Zn32 O62 2.066 . S
O33 Zn32 2.055 . S
O33 C36 1.259 . S
C34 O62 1.256 . S
C34 O63 1.244 . S
Zn35 O37 2.046 . S
Zn35 O39 2.055 . S
Zn35 N41 2.036 . S
Zn35 O59 2.066 . S
Zn35 O63 2.053 . S
C36 O33 1.259 . S
C36 O37 1.254 . S
O37 Zn35 2.046 . S
O37 C36 1.254 . S
C38 O59 1.256 . S
C38 O60 1.244 . S
O39 Zn35 2.055 . S
O39 C61 1.259 . S
O40 Zn32 2.046 . S
O40 C61 1.254 . S
N41 Zn35 2.036 . S
N41 C42 1.298 . S
N41 N44 1.398 . S
C42 N41 1.298 . S
C42 N45 1.367 . S
C42 C55 1.481 . S
C43 N44 1.299 . S
C43 N45 1.379 . S
N44 N41 1.398 . S
N44 C43 1.299 . S
N45 C42 1.367 . S
N45 C43 1.379 . S
C46 N48 1.298 . S
C46 N50 1.367 . S
C46 C54 1.481 . S
C47 N49 1.299 . S
C47 N50 1.379 . S
N48 Zn32 2.036 . S
N48 C46 1.298 . S
N48 N49 1.398 . S
N49 C47 1.299 . S
N49 N48 1.398 . S
N50 C46 1.367 . S
N50 C47 1.379 . S
H51 C54 0.980 . S
H52 C54 0.981 . S
H53 C54 0.981 . S
C54 C46 1.481 . S
C54 H51 0.980 . S
C54 H52 0.981 . S
C54 H53 0.981 . S
C55 C42 1.481 . S
C55 H56 0.980 . S
C55 H57 0.981 . S
C55 H58 0.981 . S
H56 C55 0.980 . S
H57 C55 0.981 . S
H58 C55 0.981 . S
O59 Zn35 2.066 . S
O59 C38 1.256 . S
O60 Zn32 2.053 . S
O60 C38 1.244 . S
C61 O39 1.259 . S
C61 O40 1.254 . S
O62 Zn32 2.066 . S
O62 C34 1.256 . S
O63 C34 1.244 . S
O63 Zn35 2.053 . S
Zn64 O65 2.055 . S
Zn64 O72 2.046 . S
Zn64 N80 2.036 . S
Zn64 O92 2.053 . S
Zn64 O94 2.066 . S
O65 Zn64 2.055 . S
O65 C68 1.259 . S
C66 O94 1.256 1_455 S
C66 O95 1.244 1_455 S
Zn67 O69 2.046 . S
Zn67 O71 2.055 . S
Zn67 N73 2.036 . S
Zn67 O91 2.066 . S
Zn67 O95 2.053 . S
C68 O65 1.259 . S
C68 O69 1.254 . S
O69 Zn67 2.046 . S
O69 C68 1.254 . S
C70 O91 1.256 . S
C70 O92 1.244 . S
O71 Zn67 2.055 . S
O71 C93 1.259 . S
O72 Zn64 2.046 . S
O72 C93 1.254 . S
N73 Zn67 2.036 . S
N73 C74 1.298 . S
N73 N76 1.398 . S
C74 N73 1.298 . S
C74 N77 1.367 . S
C74 C87 1.481 . S
C75 N76 1.299 . S
C75 N77 1.379 . S
N76 N73 1.398 . S
N76 C75 1.299 . S
N77 C74 1.367 . S
N77 C75 1.379 . S
C78 N80 1.298 . S
C78 N82 1.367 . S
C78 C86 1.481 . S
C79 N81 1.299 . S
C79 N82 1.379 . S
N80 Zn64 2.036 . S
N80 C78 1.298 . S
N80 N81 1.398 . S
N81 C79 1.299 . S
N81 N80 1.398 . S
N82 C78 1.367 . S
N82 C79 1.379 . S
H83 C86 0.980 . S
H84 C86 0.981 . S
H85 C86 0.981 . S
C86 C78 1.481 . S
C86 H83 0.980 . S
C86 H84 0.981 . S
C86 H85 0.981 . S
C87 C74 1.481 . S
C87 H88 0.980 . S
C87 H89 0.981 . S
C87 H90 0.981 . S
H88 C87 0.980 . S
H89 C87 0.981 . S
H90 C87 0.981 . S
O91 Zn67 2.066 . S
O91 C70 1.256 . S
O92 Zn64 2.053 . S
O92 C70 1.244 . S
C93 O71 1.259 . S
C93 O72 1.254 . S
O94 Zn64 2.066 . S
O94 C66 1.256 1_655 S
O95 C66 1.244 1_655 S
O95 Zn67 2.053 . S
Zn96 O97 2.055 . S
Zn96 O104 2.046 . S
Zn96 N112 2.036 . S
Zn96 O124 2.053 . S
Zn96 O126 2.066 . S
O97 Zn96 2.055 . S
O97 C100 1.259 . S
C98 O126 1.256 . S
C98 O127 1.244 . S
Zn99 O101 2.046 . S
Zn99 O103 2.055 . S
Zn99 N105 2.036 . S
Zn99 O123 2.066 . S
Zn99 O127 2.053 . S
C100 O97 1.259 . S
C100 O101 1.254 . S
O101 Zn99 2.046 . S
O101 C100 1.254 . S
C102 O123 1.256 1_655 S
C102 O124 1.244 1_655 S
O103 Zn99 2.055 . S
O103 C125 1.259 . S
O104 Zn96 2.046 . S
O104 C125 1.254 . S
N105 Zn99 2.036 . S
N105 C106 1.298 . S
N105 N108 1.398 . S
C106 N105 1.298 . S
C106 N109 1.367 . S
C106 C119 1.481 . S
C107 N108 1.299 . S
C107 N109 1.379 . S
N108 N105 1.398 . S
N108 C107 1.299 . S
N109 C106 1.367 . S
N109 C107 1.379 . S
C110 N112 1.298 . S
C110 N114 1.367 . S
C110 C118 1.481 . S
C111 N113 1.299 . S
C111 N114 1.379 . S
N112 Zn96 2.036 . S
N112 C110 1.298 . S
N112 N113 1.398 . S
N113 C111 1.299 . S
N113 N112 1.398 . S
N114 C110 1.367 . S
N114 C111 1.379 . S
H115 C118 0.980 . S
H116 C118 0.981 . S
H117 C118 0.981 . S
C118 C110 1.481 . S
C118 H115 0.980 . S
C118 H116 0.981 . S
C118 H117 0.981 . S
C119 C106 1.481 . S
C119 H120 0.980 . S
C119 H121 0.981 . S
C119 H122 0.981 . S
H120 C119 0.980 . S
H121 C119 0.981 . S
H122 C119 0.981 . S
O123 Zn99 2.066 . S
O123 C102 1.256 1_455 S
O124 Zn96 2.053 . S
O124 C102 1.244 1_455 S
C125 O103 1.259 . S
C125 O104 1.254 . S
O126 Zn96 2.066 . S
O126 C98 1.256 . S
O127 C98 1.244 . S
O127 Zn99 2.053 . S
Zn128 O129 2.055 . S
Zn128 O136 2.046 . S
Zn128 N144 2.036 . S
Zn128 O156 2.053 . S
Zn128 O158 2.066 . S
O129 Zn128 2.055 . S
O129 C132 1.259 . S
C130 O158 1.256 . S
C130 O159 1.244 . S
Zn131 O133 2.046 . S
Zn131 O135 2.055 . S
Zn131 N137 2.036 . S
Zn131 O155 2.066 . S
Zn131 O159 2.053 . S
C132 O129 1.259 . S
C132 O133 1.254 . S
O133 Zn131 2.046 . S
O133 C132 1.254 . S
C134 O155 1.256 1_545 S
C134 O156 1.244 1_545 S
O135 Zn131 2.055 . S
O135 C157 1.259 . S
O136 Zn128 2.046 . S
O136 C157 1.254 . S
N137 Zn131 2.036 . S
N137 C138 1.298 . S
N137 N140 1.398 . S
C138 N137 1.298 . S
C138 N141 1.367 . S
C138 C151 1.481 . S
C139 N140 1.299 . S
C139 N141 1.379 . S
N140 N137 1.398 . S
N140 C139 1.299 . S
N141 C138 1.367 . S
N141 C139 1.379 . S
C142 N144 1.298 . S
C142 N146 1.367 . S
C142 C150 1.481 . S
C143 N145 1.299 . S
C143 N146 1.379 . S
N144 Zn128 2.036 . S
N144 C142 1.298 . S
N144 N145 1.398 . S
N145 C143 1.299 . S
N145 N144 1.398 . S
N146 C142 1.367 . S
N146 C143 1.379 . S
H147 C150 0.980 . S
H148 C150 0.981 . S
H149 C150 0.981 . S
C150 C142 1.481 . S
C150 H147 0.980 . S
C150 H148 0.981 . S
C150 H149 0.981 . S
C151 C138 1.481 . S
C151 H152 0.980 . S
C151 H153 0.981 . S
C151 H154 0.981 . S
H152 C151 0.980 . S
H153 C151 0.981 . S
H154 C151 0.981 . S
O155 Zn131 2.066 . S
O155 C134 1.256 1_565 S
O156 Zn128 2.053 . S
O156 C134 1.244 1_565 S
C157 O135 1.259 . S
C157 O136 1.254 . S
O158 Zn128 2.066 . S
O158 C130 1.256 . S
O159 C130 1.244 . S
O159 Zn131 2.053 . S
Zn160 O161 2.055 . S
Zn160 O168 2.046 . S
Zn160 N176 2.036 . S
Zn160 O188 2.053 . S
Zn160 O190 2.066 . S
O161 Zn160 2.055 . S
O161 C164 1.259 . S
C162 O190 1.256 . S
C162 O191 1.244 . S
Zn163 O165 2.046 . S
Zn163 O167 2.055 . S
Zn163 N169 2.036 . S
Zn163 O187 2.066 . S
Zn163 O191 2.053 . S
C164 O161 1.259 . S
C164 O165 1.254 . S
O165 Zn163 2.046 . S
O165 C164 1.254 . S
C166 O187 1.256 . S
C166 O188 1.244 . S
O167 Zn163 2.055 . S
O167 C189 1.259 . S
O168 Zn160 2.046 . S
O168 C189 1.254 . S
N169 Zn163 2.036 . S
N169 C170 1.298 . S
N169 N172 1.398 . S
C170 N169 1.298 . S
C170 N173 1.367 . S
C170 C183 1.481 . S
C171 N172 1.299 . S
C171 N173 1.379 . S
N172 N169 1.398 . S
N172 C171 1.299 . S
N173 C170 1.367 . S
N173 C171 1.379 . S
C174 N176 1.298 . S
C174 N178 1.367 . S
C174 C182 1.481 . S
C175 N177 1.299 . S
C175 N178 1.379 . S
N176 Zn160 2.036 . S
N176 C174 1.298 . S
N176 N177 1.398 . S
N177 C175 1.299 . S
N177 N176 1.398 . S
N178 C174 1.367 . S
N178 C175 1.379 . S
H179 C182 0.980 . S
H180 C182 0.981 . S
H181 C182 0.981 . S
C182 C174 1.481 . S
C182 H179 0.980 . S
C182 H180 0.981 . S
C182 H181 0.981 . S
C183 C170 1.481 . S
C183 H184 0.980 . S
C183 H185 0.981 . S
C183 H186 0.981 . S
H184 C183 0.980 . S
H185 C183 0.981 . S
H186 C183 0.981 . S
O187 Zn163 2.066 . S
O187 C166 1.256 . S
O188 Zn160 2.053 . S
O188 C166 1.244 . S
C189 O167 1.259 . S
C189 O168 1.254 . S
O190 Zn160 2.066 . S
O190 C162 1.256 . S
O191 C162 1.244 . S
O191 Zn163 2.053 . S
C192 C193 1.387 . S
C192 H196 0.950 . S
C192 C201 1.390 1_566 S
C193 C192 1.387 . S
C193 C195 1.387 . S
H194 C201 0.950 . S
C195 C193 1.387 . S
C195 C197 1.390 1_566 S
C195 H199 0.950 . S
H196 C192 0.950 . S
C197 C195 1.390 1_544 S
C197 C198 1.387 . S
C197 H200 0.950 . S
C198 C197 1.387 . S
C198 C201 1.387 . S
H199 C195 0.950 . S
H200 C197 0.950 . S
C201 C192 1.390 1_544 S
C201 H194 0.950 . S
C201 C198 1.387 . S
C202 C203 1.387 . S
C202 H206 0.950 . S
C202 C211 1.390 . S
C203 C202 1.387 . S
C203 C205 1.387 . S
H204 C211 0.950 . S
C205 C203 1.387 . S
C205 C207 1.390 . S
C205 H209 0.950 . S
H206 C202 0.950 . S
C207 C205 1.390 . S
C207 C208 1.387 . S
C207 H210 0.950 . S
C208 C207 1.387 . S
C208 C211 1.387 . S
H209 C205 0.950 . S
H210 C207 0.950 . S
C211 C202 1.390 . S
C211 H204 0.950 . S
C211 C208 1.387 . S
C212 C213 1.387 . S
C212 H216 0.950 . S
C212 C221 1.390 1_554 S
C213 C212 1.387 . S
C213 C215 1.388 1_655 S
H214 C221 0.951 . S
C215 C213 1.388 1_455 S
C215 C217 1.390 1_554 S
C215 H219 0.951 . S
H216 C212 0.950 . S
C217 C215 1.390 1_556 S
C217 C218 1.387 . S
C217 H220 0.950 . S
C218 C217 1.387 . S
C218 C221 1.388 1_455 S
H219 C215 0.951 . S
H220 C217 0.950 . S
C221 C212 1.390 1_556 S
C221 H214 0.951 . S
C221 C218 1.388 1_655 S
C222 C223 1.387 . S
C222 H226 0.950 . S
C222 C231 1.390 1_545 S
C223 C222 1.387 . S
C223 C225 1.387 . S
H224 C231 0.950 . S
C225 C223 1.387 . S
C225 C227 1.390 1_545 S
C225 H229 0.950 . S
H226 C222 0.950 . S
C227 C225 1.390 1_565 S
C227 C228 1.387 . S
C227 H230 0.950 . S
C228 C227 1.387 . S
C228 C231 1.387 . S
H229 C225 0.950 . S
H230 C227 0.950 . S
C231 C222 1.390 1_565 S
C231 H224 0.950 . S
C231 C228 1.387 . S
C232 C233 1.387 . S
C232 H236 0.950 . S
C232 C241 1.373 1_556 S
C233 C232 1.387 . S
C233 C235 1.405 . S
H234 C241 0.950 . S
C235 C233 1.405 . S
C235 C237 1.373 1_556 S
C235 H239 0.950 . S
H236 C232 0.950 . S
C237 C235 1.373 1_554 S
C237 C238 1.387 . S
C237 H240 0.950 . S
C238 C237 1.387 . S
C238 C241 1.405 . S
H239 C235 0.950 . S
H240 C237 0.950 . S
C241 C232 1.373 1_554 S
C241 H234 0.950 . S
C241 C238 1.405 . S
C242 C243 1.387 . S
C242 H246 0.950 . S
C242 C251 1.390 . S
C243 C242 1.387 . S
C243 C245 1.387 1_655 S
H244 C251 0.950 . S
C245 C243 1.387 1_455 S
C245 C247 1.390 . S
C245 H249 0.950 . S
H246 C242 0.950 . S
C247 C245 1.390 . S
C247 C248 1.387 . S
C247 H250 0.950 . S
C248 C247 1.387 . S
C248 C251 1.387 1_455 S
H249 C245 0.950 . S
H250 C247 0.950 . S
C251 C242 1.390 . S
C251 H244 0.950 . S
C251 C248 1.387 1_655 S
C252 C253 1.387 . S
C252 H256 0.950 . S
C252 C261 1.390 . S
C253 C252 1.387 . S
C253 C255 1.387 . S
H254 C261 0.950 . S
C255 C253 1.387 . S
C255 C257 1.390 . S
C255 H259 0.950 . S
H256 C252 0.950 . S
C257 C255 1.390 . S
C257 C258 1.387 . S
C257 H260 0.950 . S
C258 C257 1.387 . S
C258 C261 1.387 . S
H259 C255 0.950 . S
H260 C257 0.950 . S
C261 C252 1.390 . S
C261 H254 0.950 . S
C261 C258 1.387 . S
C262 C263 1.387 . S
C262 H266 0.950 . S
C262 C271 1.390 . S
C263 C262 1.387 . S
C263 C265 1.387 . S
H264 C271 0.950 . S
C265 C263 1.387 . S
C265 C267 1.390 . S
C265 H269 0.950 . S
H266 C262 0.950 . S
C267 C265 1.390 . S
C267 C268 1.387 . S
C267 H270 0.950 . S
C268 C267 1.387 . S
C268 C271 1.387 . S
H269 C265 0.950 . S
H270 C267 0.950 . S
C271 C262 1.390 . S
C271 H264 0.950 . S
C271 C268 1.387 . S
C272 C273 1.387 . S
C272 H276 0.950 . S
C272 C281 1.390 . S
C273 C272 1.387 . S
C273 C275 1.387 . S
H274 C281 0.950 . S
C275 C273 1.387 . S
C275 C277 1.390 . S
C275 H279 0.950 . S
H276 C272 0.950 . S
C277 C275 1.390 . S
C277 C278 1.387 . S
C277 H280 0.950 . S
C278 C277 1.387 . S
C278 C281 1.387 . S
H279 C275 0.950 . S
H280 C277 0.950 . S
C281 C272 1.390 . S
C281 H274 0.950 . S
C281 C278 1.387 . S
C282 C283 1.387 . S
C282 H286 0.950 . S
C282 C291 1.390 . S
C283 C282 1.387 . S
C283 C285 1.387 . S
H284 C291 0.950 . S
C285 C283 1.387 . S
C285 C287 1.390 . S
C285 H289 0.950 . S
H286 C282 0.950 . S
C287 C285 1.390 . S
C287 C288 1.387 . S
C287 H290 0.950 . S
C288 C287 1.387 . S
C288 C291 1.387 . S
H289 C285 0.950 . S
H290 C287 0.950 . S
C291 C282 1.390 . S
C291 H284 0.950 . S
C291 C288 1.387 . S
C292 C293 1.387 . S
C292 H296 0.950 . S
C292 C301 1.390 . S
C293 C292 1.387 . S
C293 C295 1.387 . S
H294 C301 0.950 . S
C295 C293 1.387 . S
C295 C297 1.390 . S
C295 H299 0.950 . S
H296 C292 0.950 . S
C297 C295 1.390 . S
C297 C298 1.387 . S
C297 H300 0.950 . S
C298 C297 1.387 . S
C298 C301 1.387 . S
H299 C295 0.950 . S
H300 C297 0.950 . S
C301 C292 1.390 . S
C301 H294 0.950 . S
C301 C298 1.387 . S
C302 C303 1.387 . S
C302 H306 0.950 . S
C302 C311 1.390 . S
C303 C302 1.387 . S
C303 C305 1.387 . S
H304 C311 0.950 . S
C305 C303 1.387 . S
C305 C307 1.390 . S
C305 H309 0.950 . S
H306 C302 0.950 . S
C307 C305 1.390 . S
C307 C308 1.387 . S
C307 H310 0.950 . S
C308 C307 1.387 . S
C308 C311 1.387 . S
H309 C305 0.950 . S
H310 C307 0.950 . S
C311 C302 1.390 . S
C311 H304 0.950 . S
C311 C308 1.387 . S
C312 C313 1.387 . S
C312 H316 0.950 . S
C312 C321 1.390 . S
C313 C312 1.387 . S
C313 C315 1.387 . S
H314 C321 0.950 . S
C315 C313 1.387 . S
C315 C317 1.390 . S
C315 H319 0.950 . S
H316 C312 0.950 . S
C317 C315 1.390 . S
C317 C318 1.387 . S
C317 H320 0.950 . S
C318 C317 1.387 . S
C318 C321 1.387 . S
H319 C315 0.950 . S
H320 C317 0.950 . S
C321 C312 1.390 . S
C321 H314 0.950 . S
C321 C318 1.387 . S
C322 C323 1.387 1_455 S
C322 H326 0.950 . S
C322 C331 1.390 . S
C323 C322 1.387 1_655 S
C323 C325 1.387 1_655 S
H324 C331 0.950 . S
C325 C323 1.387 1_455 S
C325 C327 1.390 . S
C325 H329 0.950 . S
H326 C322 0.950 . S
C327 C325 1.390 . S
C327 C328 1.387 . S
C327 H330 0.950 1_565 S
C328 C327 1.387 . S
C328 C331 1.387 . S
H329 C325 0.950 . S
H330 C327 0.950 1_545 S
C331 C322 1.390 . S
C331 H324 0.950 . S
C331 C328 1.387 . S
C332 C333 1.387 1_565 S
C332 H336 0.950 . S
C332 C341 1.390 . S
C333 C332 1.387 1_545 S
C333 C335 1.387 1_545 S
H334 C341 0.950 . S
C335 C333 1.387 1_565 S
C335 C337 1.390 . S
C335 H339 0.950 . S
H336 C332 0.950 . S
C337 C335 1.390 . S
C337 C338 1.387 . S
C337 H340 0.950 . S
C338 C337 1.387 . S
C338 C341 1.387 . S
H339 C335 0.950 . S
H340 C337 0.950 . S
C341 C332 1.390 . S
C341 H334 0.950 . S
C341 C338 1.387 . S
C342 C343 1.387 . S
C342 H346 0.950 . S
C342 C351 1.390 . S
C343 C342 1.387 . S
C343 C345 1.387 . S
H344 C351 0.950 . S
C345 C343 1.387 . S
C345 C347 1.390 . S
C345 H349 0.950 . S
H346 C342 0.950 . S
C347 C345 1.390 . S
C347 C348 1.387 . S
C347 H350 0.950 . S
C348 C347 1.387 . S
C348 C351 1.387 . S
H349 C345 0.950 . S
H350 C347 0.950 . S
C351 C342 1.390 . S
C351 H344 0.950 . S
C351 C348 1.387 . S
C352 C353 1.387 1_655 S
C352 H356 0.950 . S
C352 C361 1.390 . S
C353 C352 1.387 1_455 S
C353 C355 1.387 1_455 S
H354 C361 0.950 . S
C355 C353 1.387 1_655 S
C355 C357 1.390 . S
C355 H359 0.950 1_655 S
H356 C352 0.950 . S
C357 C355 1.390 . S
C357 C358 1.387 . S
C357 H360 0.950 . S
C358 C357 1.387 . S
C358 C361 1.387 . S
H359 C355 0.950 1_455 S
H360 C357 0.950 . S
C361 C352 1.390 . S
C361 H354 0.950 . S
C361 C358 1.387 . S
C362 C363 1.387 . S
C362 H366 0.950 . S
C362 C371 1.390 . S
C363 C362 1.387 . S
C363 C365 1.387 . S
H364 C371 0.950 1_565 S
C365 C363 1.387 . S
C365 C367 1.390 . S
C365 H369 0.950 . S
H366 C362 0.950 . S
C367 C365 1.390 . S
C367 C368 1.387 1_545 S
C367 H370 0.950 . S
C368 C367 1.387 1_565 S
C368 C371 1.387 1_565 S
H369 C365 0.950 . S
H370 C367 0.950 . S
C371 C362 1.390 . S
C371 H364 0.950 1_545 S
C371 C368 1.387 1_545 S
C193 N146 1.828 . S
C198 N13 1.828 . S
C203 N178 1.687 . S
C208 N45 1.689 . S
C213 N77 1.828 . S
C218 N114 1.829 . S
C223 N18 1.687 . S
C228 N141 1.687 . S
C233 N173 1.832 . S
C238 N50 1.830 . S
C243 N82 1.687 . S
C248 N109 1.688 . S
C253 C6 1.385 . S
C258 C93 1.417 . S
C263 C34 1.383 . S
C268 C29 1.416 . S
C273 C70 1.384 . S
C278 C36 1.417 . S
C283 C98 1.382 . S
C288 C132 1.415 . S
C293 C130 1.381 . S
C298 C189 1.415 . S
C303 C100 1.415 . S
C308 C166 1.381 . S
C313 C4 1.109 . S
C318 C66 1.085 . S
C323 C61 1.110 . S
C328 C2 1.086 . S
C333 C68 1.110 . S
C338 C38 1.087 . S
C343 C125 1.109 . S
C348 C134 1.085 . S
C353 C157 1.109 . S
C358 C162 1.085 . S
C363 C102 1.090 . S
C368 C164 1.112 . S
