# Generated by pormake.
# Topology uol, (4)-cn, num edge types: 1
# Building blocks:
#     Node 0, Type 0, BuildingBlock: QUQFOY_clean_sbu_3, # of connection points: 4
#     Node 1, Type 0, BuildingBlock: QUQFOY_clean_sbu_3, # of connection points: 4
#     Node 2, Type 0, BuildingBlock: QUQFOY_clean_sbu_3, # of connection points: 4
#     Node 3, Type 0, BuildingBlock: QUQFOY_clean_sbu_3, # of connection points: 4
#     Node 4, Type 0, BuildingBlock: QUQFOY_clean_sbu_3, # of connection points: 4
#     Node 5, Type 0, BuildingBlock: QUQFOY_clean_sbu_3, # of connection points: 4
#     Node 6, Type 0, BuildingBlock: QUQFOY_clean_sbu_3, # of connection points: 4
#     Node 7, Type 0, BuildingBlock: QUQFOY_clean_sbu_3, # of connection points: 4
#     Node 8, Type 0, BuildingBlock: QUQFOY_clean_sbu_3, # of connection points: 4
#     Node 9, Type 0, BuildingBlock: QUQFOY_clean_sbu_3, # of connection points: 4
#     Node 10, Type 0, BuildingBlock: QUQFOY_clean_sbu_3, # of connection points: 4
#     Node 11, Type 0, BuildingBlock: QUQFOY_clean_sbu_3, # of connection points: 4
#     Edge 12, Type (0, 0), BuildingBlock: TEMPAE_clean_linker_10, # of connection points: 2
#     Edge 13, Type (0, 0), BuildingBlock: TEMPAE_clean_linker_10, # of connection points: 2
#     Edge 14, Type (0, 0), BuildingBlock: TEMPAE_clean_linker_10, # of connection points: 2
#     Edge 15, Type (0, 0), BuildingBlock: TEMPAE_clean_linker_10, # of connection points: 2
#     Edge 16, Type (0, 0), BuildingBlock: TEMPAE_clean_linker_10, # of connection points: 2
#     Edge 17, Type (0, 0), BuildingBlock: TEMPAE_clean_linker_10, # of connection points: 2
#     Edge 18, Type (0, 0), BuildingBlock: TEMPAE_clean_linker_10, # of connection points: 2
#     Edge 19, Type (0, 0), BuildingBlock: TEMPAE_clean_linker_10, # of connection points: 2
#     Edge 20, Type (0, 0), BuildingBlock: TEMPAE_clean_linker_10, # of connection points: 2
#     Edge 21, Type (0, 0), BuildingBlock: TEMPAE_clean_linker_10, # of connection points: 2
#     Edge 22, Type (0, 0), BuildingBlock: TEMPAE_clean_linker_10, # of connection points: 2
#     Edge 23, Type (0, 0), BuildingBlock: TEMPAE_clean_linker_10, # of connection points: 2
#     Edge 24, Type (0, 0), BuildingBlock: TEMPAE_clean_linker_10, # of connection points: 2
#     Edge 25, Type (0, 0), BuildingBlock: TEMPAE_clean_linker_10, # of connection points: 2
#     Edge 26, Type (0, 0), BuildingBlock: TEMPAE_clean_linker_10, # of connection points: 2
#     Edge 27, Type (0, 0), BuildingBlock: TEMPAE_clean_linker_10, # of connection points: 2
#     Edge 28, Type (0, 0), BuildingBlock: TEMPAE_clean_linker_10, # of connection points: 2
#     Edge 29, Type (0, 0), BuildingBlock: TEMPAE_clean_linker_10, # of connection points: 2
#     Edge 30, Type (0, 0), BuildingBlock: TEMPAE_clean_linker_10, # of connection points: 2
#     Edge 31, Type (0, 0), BuildingBlock: TEMPAE_clean_linker_10, # of connection points: 2
#     Edge 32, Type (0, 0), BuildingBlock: TEMPAE_clean_linker_10, # of connection points: 2
#     Edge 33, Type (0, 0), BuildingBlock: TEMPAE_clean_linker_10, # of connection points: 2
#     Edge 34, Type (0, 0), BuildingBlock: TEMPAE_clean_linker_10, # of connection points: 2
#     Edge 35, Type (0, 0), BuildingBlock: TEMPAE_clean_linker_10, # of connection points: 2
# Relax obj value: 0.116
# Max RMSD: 0.171
# Mean RMSD: 0.171
data_MOF--net-uol--node1-QUQFOY_clean_sbu_3--edge1-TEMPAE_clean_linker_10
_symmetry_space_group_name_H-M    P1
_symmetry_Int_Tables_number       1
_symmetry_cell_setting            triclinic
loop_
_symmetry_equiv_pos_as_xyz
'x, y, z'
_cell_length_a     34.47874
_cell_length_b     34.500811
_cell_length_c     68.847056
_cell_angle_alpha  89.959645
_cell_angle_beta   90.016419
_cell_angle_gamma 119.98542
loop_
_atom_site_label
_atom_site_type_symbol
_atom_site_fract_x
_atom_site_fract_y
_atom_site_fract_z
_atom_type_partial_charge
C0 C 0.10497 0.26758 0.03717 0.0
O1 O 0.07407 0.23256 0.04523 0.0
Cd2 Cd 0.04291 0.23082 0.07684 0.0
O3 O 0.12193 0.30526 0.04571 0.0
Cd4 Cd 0.11415 0.33748 0.07621 0.0
C5 C 0.13896 0.27281 0.10444 0.0
O6 O 0.03274 0.2937 0.0796 0.0
O7 O 0.06956 0.33398 0.10411 0.0
O8 O 0.12172 0.40077 0.05804 0.0
C9 C 0.03195 0.30655 0.09677 0.0
O10 O 0.09933 0.24144 0.1008 0.0
C11 C 0.15334 0.4304 0.06822 0.0
O12 O 0.15559 0.31062 0.09592 0.0
O13 O 0.16823 0.41665 0.08188 0.0
C14 C 0.82468 0.12413 0.20165 0.0
O15 O 0.83148 0.09392 0.20861 0.0
Cd16 Cd 0.81051 0.06362 0.24077 0.0
O17 O 0.804 0.13937 0.21151 0.0
Cd18 Cd 0.76624 0.12786 0.24316 0.0
C19 C 0.86324 0.16165 0.26752 0.0
O20 O 0.73557 0.04711 0.24644 0.0
O21 O 0.73109 0.08226 0.27146 0.0
O22 O 0.70437 0.1294 0.22748 0.0
C23 C 0.72325 0.04553 0.26394 0.0
O24 O 0.86018 0.12488 0.26214 0.0
C25 C 0.70685 0.16153 0.23744 0.0
O26 O 0.83461 0.17254 0.26211 0.0
O27 O 0.73811 0.1791 0.24992 0.0
C28 C 0.69307 0.8317 0.3668 0.0
O29 O 0.72969 0.83847 0.3742 0.0
Cd30 Cd 0.73819 0.81963 0.40684 0.0
O31 O 0.65668 0.81141 0.37641 0.0
Cd32 Cd 0.62917 0.77412 0.40818 0.0
C33 C 0.69017 0.87261 0.43164 0.0
O34 O 0.68027 0.74511 0.41321 0.0
O35 O 0.63959 0.74228 0.43756 0.0
O36 O 0.56725 0.71057 0.39247 0.0
C37 C 0.66918 0.73446 0.43084 0.0
O38 O 0.72435 0.8697 0.42688 0.0
C39 C 0.53672 0.71205 0.40219 0.0
O40 O 0.65093 0.84332 0.42618 0.0
O41 O 0.54919 0.74364 0.41443 0.0
C42 C 0.84604 0.69976 0.5369 0.0
O43 O 0.87711 0.73479 0.54485 0.0
Cd44 Cd 0.90836 0.73687 0.57648 0.0
O45 O 0.829 0.66216 0.54554 0.0
Cd46 Cd 0.83694 0.63001 0.57609 0.0
C47 C 0.81236 0.69501 0.60422 0.0
O48 O 0.91833 0.67389 0.57941 0.0
O49 O 0.8817 0.63349 0.60393 0.0
O50 O 0.82936 0.56667 0.55801 0.0
C51 C 0.91924 0.66108 0.59659 0.0
O52 O 0.85183 0.72643 0.60033 0.0
C53 C 0.79768 0.53707 0.56818 0.0
O54 O 0.7958 0.65698 0.59591 0.0
O55 O 0.78276 0.55086 0.58181 0.0
C56 C 0.12532 0.84412 0.70158 0.0
O57 O 0.11836 0.87425 0.70848 0.0
Cd58 Cd 0.13896 0.90434 0.74068 0.0
O59 O 0.14598 0.82894 0.7115 0.0
Cd60 Cd 0.18348 0.84052 0.74323 0.0
C61 C 0.08618 0.8062 0.76739 0.0
O62 O 0.21401 0.92128 0.74656 0.0
O63 O 0.21808 0.88586 0.77159 0.0
O64 O 0.24557 0.83937 0.72757 0.0
C65 C 0.2261 0.92268 0.76409 0.0
O66 O 0.08918 0.84295 0.76198 0.0
C67 C 0.24341 0.80746 0.7376 0.0
O68 O 0.11496 0.79546 0.76205 0.0
O69 O 0.21221 0.7898 0.75012 0.0
C70 C 0.25823 0.13661 0.8671 0.0
O71 O 0.22164 0.12966 0.8746 0.0
Cd72 Cd 0.21323 0.14838 0.90725 0.0
O73 O 0.29473 0.15702 0.87662 0.0
Cd74 Cd 0.32232 0.19426 0.9084 0.0
C75 C 0.26179 0.09582 0.93201 0.0
O76 O 0.27101 0.22299 0.91346 0.0
O77 O 0.31184 0.22599 0.93779 0.0
O78 O 0.38429 0.25807 0.8928 0.0
C79 C 0.28213 0.23367 0.93107 0.0
O80 O 0.22748 0.09857 0.92731 0.0
C81 C 0.41477 0.25649 0.90252 0.0
O82 O 0.30092 0.12516 0.92645 0.0
O83 O 0.40226 0.2247 0.91468 0.0
C84 C 0.69084 0.8508 0.76708 0.0
O85 O 0.72601 0.88107 0.75887 0.0
Cd86 Cd 0.72803 0.91202 0.72717 0.0
O87 O 0.65303 0.83426 0.75865 0.0
Cd88 Cd 0.62094 0.84219 0.72811 0.0
C89 C 0.684 0.81547 0.69987 0.0
O90 O 0.66588 0.92341 0.72446 0.0
O91 O 0.6253 0.88668 0.70001 0.0
O92 O 0.55829 0.83634 0.74624 0.0
C93 C 0.65311 0.92421 0.70727 0.0
O94 O 0.71584 0.85496 0.70331 0.0
C95 C 0.52818 0.80479 0.73621 0.0
O96 O 0.6464 0.79942 0.70854 0.0
O97 O 0.54133 0.78914 0.72263 0.0
C98 C 0.82258 0.70136 0.93835 0.0
O99 O 0.82939 0.73784 0.93079 0.0
Cd100 Cd 0.81016 0.7458 0.89813 0.0
O101 O 0.80212 0.6648 0.92891 0.0
Cd102 Cd 0.76462 0.63679 0.89722 0.0
C103 C 0.8628 0.69741 0.87337 0.0
O104 O 0.73554 0.68778 0.89199 0.0
O105 O 0.73229 0.64648 0.86784 0.0
O106 O 0.70103 0.57497 0.91301 0.0
C107 C 0.72463 0.67627 0.87443 0.0
O108 O 0.85995 0.73165 0.87803 0.0
C109 C 0.70268 0.54442 0.9034 0.0
O110 O 0.83362 0.65831 0.87903 0.0
O111 O 0.73442 0.55685 0.89122 0.0
C112 C 0.11585 0.83376 0.10372 0.0
O113 O 0.08555 0.84052 0.09684 0.0
Cd114 Cd 0.05506 0.81971 0.0647 0.0
O115 O 0.131 0.81306 0.09381 0.0
Cd116 Cd 0.11902 0.77521 0.06217 0.0
C117 C 0.15309 0.87229 0.03789 0.0
O118 O 0.03821 0.74477 0.0589 0.0
O119 O 0.07344 0.74054 0.03385 0.0
O120 O 0.12026 0.71312 0.07777 0.0
C121 C 0.03667 0.73265 0.04137 0.0
O122 O 0.11636 0.86931 0.04332 0.0
C123 C 0.15223 0.71541 0.06774 0.0
O124 O 0.16389 0.84356 0.04324 0.0
O125 O 0.16989 0.7467 0.05527 0.0
C126 C 0.25948 0.11543 0.2673 0.0
O127 O 0.22452 0.08442 0.25927 0.0
Cd128 Cd 0.22303 0.05313 0.22773 0.0
O129 O 0.2972 0.13245 0.25876 0.0
Cd130 Cd 0.32965 0.12462 0.22833 0.0
C131 C 0.26482 0.14888 0.19994 0.0
O132 O 0.28613 0.04322 0.22511 0.0
O133 O 0.32639 0.07984 0.20055 0.0
O134 O 0.39294 0.13263 0.24665 0.0
C135 C 0.29906 0.0423 0.20796 0.0
O136 O 0.23353 0.10925 0.20363 0.0
C137 C 0.42261 0.16411 0.23642 0.0
O138 O 0.30263 0.16571 0.20849 0.0
O139 O 0.40888 0.17873 0.22264 0.0
C140 C 0.12877 0.26803 0.43798 0.0
O141 O 0.12171 0.23141 0.43051 0.0
Cd142 Cd 0.14009 0.22291 0.3978 0.0
O143 O 0.14911 0.30445 0.42841 0.0
Cd144 Cd 0.18607 0.33193 0.39657 0.0
C145 C 0.0873 0.27144 0.37319 0.0
O146 O 0.21467 0.28059 0.39132 0.0
O147 O 0.21741 0.32146 0.36706 0.0
O148 O 0.25013 0.39357 0.41214 0.0
C149 C 0.22512 0.29171 0.37369 0.0
O150 O 0.09006 0.23716 0.37789 0.0
C151 C 0.24859 0.42422 0.40255 0.0
O152 O 0.11674 0.31058 0.37867 0.0
O153 O 0.21673 0.41195 0.39044 0.0
C154 C 0.83676 0.13426 0.6031 0.0
O155 O 0.86741 0.12807 0.5962 0.0
Cd156 Cd 0.89812 0.14989 0.56414 0.0
O157 O 0.82139 0.1549 0.59328 0.0
Cd158 Cd 0.83321 0.19346 0.56181 0.0
C159 C 0.8003 0.09706 0.53718 0.0
O160 O 0.91413 0.22469 0.55866 0.0
O161 O 0.87897 0.22929 0.53365 0.0
O162 O 0.83104 0.25471 0.57773 0.0
C163 C 0.91575 0.23726 0.54119 0.0
O164 O 0.83716 0.10033 0.54261 0.0
C165 C 0.79906 0.25238 0.56767 0.0
O166 O 0.78907 0.1254 0.54264 0.0
O167 O 0.78181 0.22144 0.55505 0.0
C168 C 0.14073 0.64377 0.08153 0.0
C169 C 0.16528 0.68076 0.06939 0.0
C170 C 0.1477 0.60716 0.08121 0.0
C171 C 0.18044 0.60779 0.0686 0.0
C172 C 0.20762 0.64637 0.05735 0.0
C173 C 0.19949 0.6824 0.05776 0.0
C174 C 0.11791 0.5666 0.09344 0.0
C175 C 0.24353 0.64863 0.04409 0.0
C176 C 0.19929 0.51055 0.0784 0.0
C177 C 0.16801 0.47831 0.06569 0.0
C178 C 0.20676 0.55446 0.07846 0.0
C179 C 0.18193 0.56595 0.06567 0.0
C180 C 0.15306 0.53452 0.05178 0.0
C181 C 0.14667 0.49114 0.05189 0.0
C182 C 0.2387 0.58747 0.09312 0.0
C183 C 0.12596 0.54542 0.03787 0.0
H184 H 0.11447 0.64241 0.09067 0.0
H185 H 0.21889 0.71113 0.04848 0.0
H186 H 0.09612 0.53806 0.08384 0.0
H187 H 0.1384 0.55649 0.10219 0.0
H188 H 0.09622 0.57269 0.10344 0.0
H189 H 0.26687 0.68338 0.03918 0.0
H190 H 0.26306 0.6353 0.05146 0.0
H191 H 0.22773 0.62763 0.03107 0.0
H192 H 0.2163 0.50097 0.08896 0.0
H193 H 0.12282 0.46655 0.04187 0.0
H194 H 0.21936 0.59066 0.10528 0.0
H195 H 0.25898 0.6211 0.08651 0.0
H196 H 0.26162 0.57662 0.0992 0.0
H197 H 0.10036 0.5492 0.0461 0.0
H198 H 0.10859 0.51893 0.02674 0.0
H199 H 0.14771 0.5776 0.03036 0.0
C200 C 0.6744 0.20944 0.24714 0.0
C201 C 0.67241 0.17487 0.23569 0.0
C202 C 0.63857 0.21792 0.24746 0.0
C203 C 0.59984 0.19071 0.2363 0.0
C204 C 0.59887 0.15757 0.22386 0.0
C205 C 0.63529 0.15027 0.22362 0.0
C206 C 0.64122 0.25427 0.26053 0.0
C207 C 0.55813 0.12773 0.21174 0.0
C208 C 0.48334 0.15785 0.253 0.0
C209 C 0.47055 0.17886 0.23903 0.0
C210 C 0.52671 0.16414 0.25318 0.0
C211 C 0.55816 0.19257 0.23918 0.0
C212 C 0.54674 0.21717 0.22623 0.0
C213 C 0.50283 0.20981 0.22622 0.0
C214 C 0.53754 0.1373 0.26728 0.0
C215 C 0.57979 0.24869 0.21145 0.0
H216 H 0.70324 0.22888 0.25636 0.0
H217 H 0.63367 0.12374 0.21462 0.0
H218 H 0.62791 0.27371 0.25306 0.0
H219 H 0.62038 0.23891 0.27364 0.0
H220 H 0.6761 0.2776 0.26529 0.0
H221 H 0.56395 0.10566 0.20188 0.0
H222 H 0.52956 0.10635 0.22142 0.0
H223 H 0.54821 0.14817 0.20285 0.0
H224 H 0.45871 0.13429 0.2631 0.0
H225 H 0.49329 0.22658 0.21552 0.0
H226 H 0.56981 0.15912 0.2747 0.0
H227 H 0.54109 0.1114 0.25921 0.0
H228 H 0.51108 0.12035 0.27847 0.0
H229 H 0.61351 0.26892 0.218 0.0
H230 H 0.56908 0.27161 0.20527 0.0
H231 H 0.58276 0.22903 0.19938 0.0
C232 C 0.4566 0.67534 0.41283 0.0
C233 C 0.48943 0.67622 0.40051 0.0
C234 C 0.41311 0.63814 0.41322 0.0
C235 C 0.40252 0.60105 0.40109 0.0
C236 C 0.43477 0.60297 0.38781 0.0
C237 C 0.47779 0.64059 0.38765 0.0
C238 C 0.37936 0.63751 0.42736 0.0
C239 C 0.42477 0.56412 0.37459 0.0
C240 C 0.3206 0.4828 0.41684 0.0
C241 C 0.28457 0.47142 0.40422 0.0
C242 C 0.35826 0.52578 0.41667 0.0
C243 C 0.35981 0.55827 0.40363 0.0
C244 C 0.32238 0.54791 0.39174 0.0
C245 C 0.28514 0.50445 0.39213 0.0
C246 C 0.39749 0.53552 0.42962 0.0
C247 C 0.32261 0.58192 0.37786 0.0
H248 H 0.4653 0.70292 0.42273 0.0
H249 H 0.50288 0.64118 0.37797 0.0
H250 H 0.34644 0.62522 0.42019 0.0
H251 H 0.37439 0.6142 0.43945 0.0
H252 H 0.39043 0.67115 0.43359 0.0
H253 H 0.45219 0.57238 0.36403 0.0
H254 H 0.41985 0.53509 0.38343 0.0
H255 H 0.39334 0.55361 0.36641 0.0
H256 H 0.32025 0.45755 0.42634 0.0
H257 H 0.25726 0.49594 0.38242 0.0
H258 H 0.40816 0.56671 0.43799 0.0
H259 H 0.42633 0.54073 0.42057 0.0
H260 H 0.38955 0.50786 0.44 0.0
H261 H 0.33503 0.61464 0.3852 0.0
H262 H 0.2888 0.57094 0.37182 0.0
H263 H 0.34568 0.5872 0.36563 0.0
C264 C 0.75148 0.4569 0.57836 0.0
C265 C 0.78295 0.48914 0.56569 0.0
C266 C 0.74391 0.41295 0.57844 0.0
C267 C 0.76885 0.40144 0.56575 0.0
C268 C 0.79792 0.43289 0.5519 0.0
C269 C 0.80439 0.4763 0.55196 0.0
C270 C 0.71172 0.37991 0.59305 0.0
C271 C 0.82514 0.42197 0.53807 0.0
C272 C 0.80991 0.32355 0.58169 0.0
C273 C 0.78566 0.28675 0.56944 0.0
C274 C 0.80281 0.36008 0.58141 0.0
C275 C 0.77021 0.35954 0.56873 0.0
C276 C 0.74324 0.32108 0.55739 0.0
C277 C 0.75152 0.28514 0.55776 0.0
C278 C 0.83237 0.4005 0.59374 0.0
C279 C 0.70746 0.3189 0.54405 0.0
H280 H 0.73439 0.46649 0.58886 0.0
H281 H 0.82838 0.5009 0.54197 0.0
H282 H 0.69155 0.34629 0.58643 0.0
H283 H 0.73086 0.3767 0.6053 0.0
H284 H 0.68872 0.39075 0.599 0.0
H285 H 0.84277 0.44854 0.52699 0.0
H286 H 0.85053 0.418 0.54639 0.0
H287 H 0.80341 0.38989 0.53051 0.0
H288 H 0.8361 0.32487 0.59087 0.0
H289 H 0.73234 0.25656 0.54839 0.0
H290 H 0.81173 0.41053 0.60241 0.0
H291 H 0.85435 0.42913 0.5842 0.0
H292 H 0.85387 0.39429 0.60381 0.0
H293 H 0.68793 0.3323 0.55135 0.0
H294 H 0.6841 0.28415 0.53917 0.0
H295 H 0.72338 0.33985 0.53103 0.0
C296 C 0.46832 0.81302 0.75251 0.0
C297 C 0.48045 0.79089 0.73883 0.0
C298 C 0.42508 0.80705 0.75276 0.0
C299 C 0.39307 0.77783 0.73913 0.0
C300 C 0.4039 0.75238 0.72644 0.0
C301 C 0.44769 0.75941 0.72636 0.0
C302 C 0.41489 0.83484 0.76655 0.0
C303 C 0.37028 0.7201 0.71204 0.0
C304 C 0.27688 0.76065 0.74767 0.0
C305 C 0.27809 0.79444 0.73589 0.0
C306 C 0.31297 0.75256 0.74797 0.0
C307 C 0.35114 0.77933 0.73642 0.0
C308 C 0.35133 0.81164 0.72367 0.0
C309 C 0.31469 0.81861 0.72349 0.0
C310 C 0.31121 0.71715 0.7614 0.0
C311 C 0.39145 0.84096 0.71112 0.0
H312 H 0.49334 0.83706 0.76234 0.0
H313 H 0.45673 0.74183 0.71588 0.0
H314 H 0.41093 0.86016 0.75819 0.0
H315 H 0.38296 0.81351 0.77432 0.0
H316 H 0.44185 0.85255 0.77747 0.0
H317 H 0.38082 0.69698 0.70596 0.0
H318 H 0.33688 0.70008 0.71891 0.0
H319 H 0.36664 0.73913 0.69987 0.0
H320 H 0.24847 0.74156 0.75715 0.0
H321 H 0.3157 0.84453 0.71423 0.0
H322 H 0.33298 0.73341 0.77417 0.0
H323 H 0.32398 0.69718 0.75401 0.0
H324 H 0.27669 0.69418 0.76669 0.0
H325 H 0.42035 0.86308 0.72049 0.0
H326 H 0.38497 0.86228 0.70105 0.0
H327 H 0.40123 0.82017 0.70243 0.0
C328 C 0.47374 0.32833 0.88824 0.0
C329 C 0.46206 0.29239 0.90094 0.0
C330 C 0.51674 0.36597 0.88853 0.0
C331 C 0.54894 0.36759 0.90177 0.0
C332 C 0.5383 0.33023 0.91375 0.0
C333 C 0.49482 0.29301 0.91324 0.0
C334 C 0.5268 0.40512 0.87547 0.0
C335 C 0.57198 0.33053 0.92784 0.0
C336 C 0.66629 0.46429 0.89291 0.0
C337 C 0.66686 0.49715 0.9051 0.0
C338 C 0.62908 0.42082 0.89247 0.0
C339 C 0.59167 0.41028 0.90441 0.0
C340 C 0.59326 0.44257 0.91756 0.0
C341 C 0.63089 0.48557 0.91778 0.0
C342 C 0.62882 0.38704 0.87848 0.0
C343 C 0.55406 0.43261 0.93057 0.0
H344 H 0.4487 0.32795 0.87859 0.0
H345 H 0.48608 0.26519 0.92302 0.0
H346 H 0.53177 0.43398 0.88443 0.0
H347 H 0.55822 0.41577 0.86726 0.0
H348 H 0.49939 0.39714 0.86494 0.0
H349 H 0.56087 0.29676 0.93395 0.0
H350 H 0.60492 0.34295 0.92067 0.0
H351 H 0.57692 0.3536 0.94002 0.0
H352 H 0.69413 0.47296 0.88316 0.0
H353 H 0.63124 0.51068 0.92735 0.0
H354 H 0.6058 0.38203 0.86625 0.0
H355 H 0.61634 0.35417 0.88571 0.0
H356 H 0.66264 0.39808 0.87243 0.0
H357 H 0.52524 0.42767 0.92156 0.0
H358 H 0.56206 0.46006 0.94106 0.0
H359 H 0.54334 0.40123 0.93881 0.0
C360 C 0.26928 0.21962 0.18816 0.0
C361 C 0.25663 0.17471 0.18511 0.0
C362 C 0.25614 0.24222 0.17506 0.0
C363 C 0.23099 0.21954 0.15835 0.0
C364 C 0.22093 0.17511 0.15463 0.0
C365 C 0.23324 0.15302 0.16823 0.0
C366 C 0.26665 0.28922 0.17972 0.0
C367 C 0.1952 0.15005 0.13676 0.0
C368 C 0.1434 0.24099 0.13605 0.0
C369 C 0.165 0.26474 0.11921 0.0
C370 C 0.16576 0.22894 0.14961 0.0
C371 C 0.21043 0.23965 0.1459 0.0
C372 C 0.233 0.2651 0.12923 0.0
C373 C 0.2101 0.27796 0.11616 0.0
C374 C 0.14079 0.20285 0.16744 0.0
C375 C 0.28025 0.2763 0.12458 0.0
H376 H 0.28727 0.23625 0.20129 0.0
H377 H 0.22399 0.11839 0.16578 0.0
H378 H 0.28025 0.31113 0.16678 0.0
H379 H 0.23535 0.28873 0.18394 0.0
H380 H 0.29106 0.30407 0.19183 0.0
H381 H 0.19513 0.11805 0.1348 0.0
H382 H 0.15998 0.14242 0.13795 0.0
H383 H 0.20975 0.1709 0.12358 0.0
H384 H 0.10863 0.23131 0.13849 0.0
H385 H 0.22666 0.29623 0.10307 0.0
H386 H 0.16148 0.21753 0.18064 0.0
H387 H 0.13374 0.16786 0.16621 0.0
H388 H 0.10847 0.20218 0.16938 0.0
H389 H 0.30207 0.29007 0.13753 0.0
H390 H 0.29488 0.30078 0.11249 0.0
H391 H 0.28028 0.24528 0.12035 0.0
C392 C 0.89182 0.21578 0.29524 0.0
C393 C 0.8988 0.18997 0.28145 0.0
C394 C 0.92222 0.23652 0.31058 0.0
C395 C 0.96063 0.23178 0.31188 0.0
C396 C 0.96937 0.20853 0.29715 0.0
C397 C 0.93814 0.18757 0.28223 0.0
C398 C 0.9116 0.26076 0.32606 0.0
C399 C 0.01041 0.20344 0.29777 0.0
C400 C 0.05877 0.29795 0.34581 0.0
C401 C 0.05129 0.2653 0.35975 0.0
C402 C 0.02811 0.28864 0.33061 0.0
C403 C -0.01104 0.24601 0.32962 0.0
C404 C -0.02035 0.21439 0.3446 0.0
C405 C 0.01115 0.22427 0.35937 0.0
C406 C 0.03932 0.3231 0.31486 0.0
C407 C 0.93782 0.16887 0.34434 0.0
H408 H 0.86134 0.21759 0.29471 0.0
H409 H 0.94389 0.16809 0.27145 0.0
H410 H 0.90048 0.24002 0.33943 0.0
H411 H 0.94181 0.29294 0.32986 0.0
H412 H 0.88464 0.26749 0.32145 0.0
H413 H 0.01487 0.18892 0.28413 0.0
H414 H 0.0409 0.23633 0.30029 0.0
H415 H 0.00746 0.18118 0.31001 0.0
H416 H 0.08989 0.32967 0.34603 0.0
H417 H 0.00508 0.19917 0.37029 0.0
H418 H 0.0095 0.3257 0.31093 0.0
H419 H 0.05007 0.31267 0.30163 0.0
H420 H 0.06676 0.35667 0.31929 0.0
H421 H 0.90788 0.17213 0.34158 0.0
H422 H 0.9329 0.15048 0.3582 0.0
H423 H 0.94011 0.14854 0.33239 0.0
C424 C 0.77475 0.02231 0.52248 0.0
C425 C 0.77219 0.06154 0.52321 0.0
C426 C 0.75385 -0.00896 0.50757 0.0
C427 C 0.73052 -0.00035 0.49281 0.0
C428 C 0.7257 0.03799 0.49405 0.0
C429 C 0.74636 0.06842 0.50937 0.0
C430 C 0.75904 0.95009 0.50703 0.0
C431 C 0.7014 0.04847 0.47852 0.0
C432 C 0.73766 0.9487 0.44541 0.0
C433 C 0.69656 0.90864 0.44509 0.0
C434 C 0.7477 0.9803 0.46013 0.0
C435 C 0.71617 0.97115 0.47513 0.0
C436 C 0.67349 0.93204 0.47423 0.0
C437 C 0.66401 0.9013 0.45907 0.0
C438 C 0.79327 0.02207 0.46031 0.0
C439 C 0.63913 0.92099 0.49 0.0
H440 H 0.79426 0.01666 0.53329 0.0
H441 H 0.74444 0.09883 0.50986 0.0
H442 H 0.72614 0.91956 0.50455 0.0
H443 H 0.78125 0.95297 0.49478 0.0
H444 H 0.77367 0.94576 0.52068 0.0
H445 H 0.69478 0.07553 0.48304 0.0
H446 H 0.72206 0.05935 0.46512 0.0
H447 H 0.66914 0.01827 0.4748 0.0
H448 H 0.76269 0.95467 0.43447 0.0
H449 H 0.63223 0.87024 0.45889 0.0
H450 H 0.81368 0.01987 0.47227 0.0
H451 H 0.79006 0.05204 0.46302 0.0
H452 H 0.81157 0.02686 0.44644 0.0
H453 H 0.64975 0.91051 0.50328 0.0
H454 H 0.60553 0.89344 0.48567 0.0
H455 H 0.63648 0.9508 0.49384 0.0
C456 C 0.80891 0.73117 0.63476 0.0
C457 C 0.7864 0.70329 0.61899 0.0
C458 C 0.78613 0.7426 0.64834 0.0
C459 C 0.73984 0.72675 0.6458 0.0
C460 C 0.71653 0.69732 0.63024 0.0
C461 C 0.74008 0.68542 0.61711 0.0
C462 C 0.8121 0.7732 0.66497 0.0
C463 C 0.66741 0.68046 0.62686 0.0
C464 C 0.68351 0.74605 0.68918 0.0
C465 C 0.69122 0.78907 0.68506 0.0
C466 C 0.69713 0.72394 0.67605 0.0
C467 C 0.71767 0.74509 0.6583 0.0
C468 C 0.72231 0.78715 0.65357 0.0
C469 C 0.70974 0.80896 0.66717 0.0
C470 C 0.69248 0.6796 0.68178 0.0
C471 C 0.74296 0.81038 0.63461 0.0
H472 H 0.84465 0.74444 0.63639 0.0
H473 H 0.72271 0.66389 0.60488 0.0
H474 H 0.81467 0.8063 0.66288 0.0
H475 H 0.79442 0.75931 0.67892 0.0
H476 H 0.84651 0.77836 0.66612 0.0
H477 H 0.6531 0.65391 0.61558 0.0
H478 H 0.64817 0.66711 0.64051 0.0
H479 H 0.66286 0.70867 0.62209 0.0
H480 H 0.66935 0.73093 0.70311 0.0
H481 H 0.71525 0.84215 0.664 0.0
H482 H 0.72603 0.68445 0.68531 0.0
H483 H 0.67883 0.65544 0.66959 0.0
H484 H 0.67046 0.66483 0.69465 0.0
H485 H 0.77936 0.82215 0.63473 0.0
H486 H 0.73848 0.8397 0.63205 0.0
H487 H 0.72798 0.78681 0.62226 0.0
C488 C 0.89109 0.6706 0.84602 0.0
C489 C 0.89859 0.70353 0.85981 0.0
C490 C 0.92155 0.67971 0.83076 0.0
C491 C 0.96055 0.72242 0.82955 0.0
C492 C 0.96987 0.75439 0.84435 0.0
C493 C 0.93856 0.74469 0.85919 0.0
C494 C 0.91032 0.64489 0.8152 0.0
C495 C 0.01153 0.80002 0.84385 0.0
C496 C 0.05769 0.75234 0.79523 0.0
C497 C 0.05057 0.77781 0.7813 0.0
C498 C 0.02731 0.73175 0.81059 0.0
C499 C -0.01123 0.73629 0.81177 0.0
C500 C -0.02015 0.75911 0.79688 0.0
C501 C 0.01107 0.77994 0.78194 0.0
C502 C 0.03811 0.70795 0.82624 0.0
C503 C 0.93866 0.76395 0.79736 0.0
H504 H 0.8601 0.63877 0.84643 0.0
H505 H 0.94467 0.77002 0.86998 0.0
H506 H 0.89938 0.65493 0.80189 0.0
H507 H 0.94017 0.64233 0.81132 0.0
H508 H 0.883 0.61138 0.81979 0.0
H509 H 0.01647 0.8188 0.85759 0.0
H510 H 0.04158 0.79688 0.84117 0.0
H511 H 0.00902 0.81991 0.83174 0.0
H512 H 0.0883 0.75074 0.79481 0.0
H513 H 0.00522 0.79917 0.77105 0.0
H514 H 0.00799 0.67579 0.83015 0.0
H515 H 0.04921 0.72899 0.83951 0.0
H516 H 0.06515 0.70127 0.82172 0.0
H517 H 0.90829 0.73106 0.80005 0.0
H518 H 0.93403 0.77801 0.78361 0.0
H519 H 0.94156 0.78652 0.80945 0.0
C520 C 0.17926 0.94729 0.02329 0.0
C521 C 0.18143 0.90784 0.02395 0.0
C522 C 0.20009 0.97849 0.00834 0.0
C523 C 0.22295 0.9696 -0.00653 0.0
C524 C 0.22751 0.93109 -0.00533 0.0
C525 C 0.20692 0.90073 0.01004 0.0
C526 C 0.19521 0.01963 0.00783 0.0
C527 C 0.25136 0.92034 0.97905 0.0
C528 C 0.21457 0.01995 0.94608 0.0
C529 C 0.25572 0.05996 0.94552 0.0
C530 C 0.2049 -0.01144 0.96088 0.0
C531 C 0.23686 -0.00216 0.9757 0.0
C532 C 0.27957 0.03686 0.97454 0.0
C533 C 0.28866 0.06741 0.95931 0.0
C534 C 0.15927 0.94688 0.96134 0.0
C535 C 0.31439 0.04803 -0.00989 0.0
H536 H 0.16002 0.95313 0.03417 0.0
H537 H 0.20855 0.87016 0.01048 0.0
H538 H 0.22812 0.05001 0.00518 0.0
H539 H 0.17268 0.01675 -0.00428 0.0
H540 H 0.18107 0.02422 0.02157 0.0
H541 H 0.25809 0.89334 0.98358 0.0
H542 H 0.23031 0.90922 0.96577 0.0
H543 H 0.28353 0.95045 0.97513 0.0
H544 H 0.18924 0.01389 0.93528 0.0
H545 H 0.32048 0.09841 0.95895 0.0
H546 H 0.13929 0.94931 0.97342 0.0
H547 H 0.16245 0.91688 0.96402 0.0
H548 H 0.14053 0.94198 0.94758 0.0
H549 H 0.30432 0.0589 0.00342 0.0
H550 H 0.34792 0.07535 0.98554 0.0
H551 H 0.31696 0.01818 -0.00602 0.0
C552 C 0.15381 0.30336 0.00824 0.0
C553 C 0.124 0.26437 0.01839 0.0
C554 C 0.17682 0.30135 -0.00817 0.0
C555 C 0.17019 0.25943 0.98558 0.0
C556 C 0.13813 0.21975 -0.00497 0.0
C557 C 0.11522 0.22268 0.01128 0.0
C558 C 0.2102 0.34433 0.98195 0.0
C559 C 0.13023 0.17439 -0.01119 0.0
C560 C 0.21702 0.24499 0.93789 0.0
C561 C 0.25589 0.24549 0.9443 0.0
C562 C 0.18932 0.25102 0.95105 0.0
C563 C 0.20079 0.25739 0.971 0.0
C564 C 0.24091 0.25968 0.97736 0.0
C565 C 0.26803 0.2539 0.96393 0.0
C566 C 0.14707 0.24899 0.94374 0.0
C567 C 0.25441 0.26651 -0.00147 0.0
H568 H 0.16031 0.33569 0.01348 0.0
H569 H 0.09208 0.19239 0.01897 0.0
H570 H 0.24468 0.35183 0.98546 0.0
H571 H 0.20636 0.34098 0.96594 0.0
H572 H 0.20654 0.37314 -0.01335 0.0
H573 H 0.10095 0.14662 -0.00372 0.0
H574 H 0.12476 0.17008 0.9729 0.0
H575 H 0.16032 0.17179 -0.00781 0.0
H576 H 0.20753 0.23859 0.92272 0.0
H577 H 0.29818 0.25463 0.96897 0.0
H578 H 0.14478 0.27805 0.94917 0.0
H579 H 0.11747 0.21834 0.94936 0.0
H580 H 0.14534 0.24853 0.92762 0.0
H581 H 0.25598 0.29745 0.00407 0.0
H582 H 0.28745 0.26903 0.00096 0.0
H583 H 0.22891 0.23813 0.00725 0.0
C584 C 0.83323 0.17438 0.17375 0.0
C585 C 0.84458 0.14484 0.18273 0.0
C586 C 0.85659 0.1992 0.15734 0.0
C587 C 0.89253 0.19484 0.14999 0.0
C588 C 0.90225 0.16304 0.15824 0.0
C589 C 0.87792 0.13818 0.17443 0.0
C590 C 0.84457 0.23198 0.14863 0.0
C591 C 0.94049 0.15754 0.15086 0.0
C592 C 0.95353 0.24436 0.10263 0.0
C593 C -0.00772 0.28229 0.1094 0.0
C594 C 0.91904 0.21678 0.1155 0.0
C595 C 0.92386 0.22732 0.13554 0.0
C596 C 0.96154 0.26717 0.14219 0.0
C597 C -0.00487 0.29431 0.12901 0.0
C598 C 0.87883 0.17507 0.10784 0.0
C599 C 0.96795 0.27968 0.16346 0.0
H600 H 0.80705 0.17924 0.17992 0.0
H601 H 0.88676 0.11528 0.18121 0.0
H602 H 0.87017 0.26652 0.15281 0.0
H603 H 0.84423 0.23018 0.13253 0.0
H604 H 0.81138 0.2258 0.15372 0.0
H605 H 0.94115 0.12872 0.15773 0.0
H606 H 0.93814 0.1527 0.1349 0.0
H607 H 0.97275 0.18837 0.15399 0.0
H608 H 0.95098 0.23507 0.08745 0.0
H609 H 0.02476 0.32386 0.13431 0.0
H610 H 0.84751 0.17088 0.11434 0.0
H611 H 0.88142 0.14535 0.11194 0.0
H612 H 0.87632 0.17572 0.09177 0.0
H613 H 0.93784 0.27933 0.16935 0.0
H614 H -0.00249 0.3133 0.16603 0.0
H615 H 0.97254 0.25468 0.17177 0.0
C616 C 0.70745 0.96688 0.26882 0.0
C617 C 0.70929 0.00561 0.27627 0.0
C618 C 0.70006 0.93137 0.28118 0.0
C619 C 0.69499 0.93515 0.30137 0.0
C620 C 0.6945 0.97318 0.30875 0.0
C621 C 0.70135 0.00776 0.29609 0.0
C622 C 0.69982 0.89088 0.27276 0.0
C623 C 0.68925 0.97858 0.33022 0.0
C624 C 0.6532 0.84249 0.33872 0.0
C625 C 0.69346 0.8518 0.34775 0.0
C626 C 0.6532 0.86694 0.32242 0.0
C627 C 0.69436 0.90187 0.31523 0.0
C628 C 0.73516 0.90917 0.3234 0.0
C629 C 0.73421 0.88382 0.33948 0.0
C630 C 0.60907 0.85744 0.31378 0.0
C631 C 0.77981 0.94621 0.31619 0.0
H632 H 0.71326 0.9649 0.25348 0.0
H633 H 0.70231 0.0374 0.30193 0.0
H634 H 0.73142 0.89166 0.27666 0.0
H635 H 0.67181 0.85964 0.27888 0.0
H636 H 0.69682 0.88973 0.25667 0.0
H637 H 0.68733 0.00912 0.33344 0.0
H638 H 0.65853 0.9491 0.33586 0.0
H639 H 0.71813 0.98064 0.33825 0.0
H640 H 0.62155 0.81731 0.34484 0.0
H641 H 0.76551 0.89103 0.34626 0.0
H642 H 0.6107 0.85812 0.29768 0.0
H643 H 0.60151 0.88375 0.31842 0.0
H644 H 0.58108 0.82446 0.31852 0.0
H645 H 0.7819 0.94486 0.30016 0.0
H646 H 0.80838 0.94443 0.32268 0.0
H647 H 0.78331 0.9791 0.31995 0.0
C648 C 0.79679 0.66387 0.50809 0.0
C649 C 0.82693 0.70289 0.51811 0.0
C650 C 0.77379 0.66589 0.49168 0.0
C651 C 0.78074 0.70787 0.4853 0.0
C652 C 0.81311 0.74755 0.49462 0.0
C653 C 0.83602 0.7446 0.51088 0.0
C654 C 0.74006 0.62291 0.48192 0.0
C655 C 0.82136 0.79297 0.48827 0.0
C656 C 0.73388 0.72242 0.43761 0.0
C657 C 0.69527 0.7224 0.44405 0.0
C658 C 0.76147 0.71615 0.45076 0.0
C659 C 0.75016 0.71005 0.47073 0.0
C660 C 0.71029 0.70823 0.47713 0.0
C661 C 0.68327 0.71422 0.46371 0.0
C662 C 0.80344 0.71765 0.44341 0.0
C663 C 0.69699 0.70171 0.49831 0.0
H664 H 0.79005 0.63151 0.51343 0.0
H665 H 0.85941 0.77491 0.51847 0.0
H666 H 0.70571 0.61573 0.48549 0.0
H667 H 0.74375 0.62605 0.4659 0.0
H668 H 0.7435 0.594 0.48669 0.0
H669 H 0.85082 0.82069 0.49566 0.0
H670 H 0.82672 0.79706 0.47235 0.0
H671 H 0.79147 0.79593 0.49165 0.0
H672 H 0.74326 0.72864 0.42242 0.0
H673 H 0.65333 0.71386 0.46877 0.0
H674 H 0.80548 0.6885 0.44892 0.0
H675 H 0.83326 0.74824 0.44892 0.0
H676 H 0.80496 0.71785 0.42729 0.0
H677 H 0.69516 0.67069 0.50392 0.0
H678 H 0.66411 0.69953 0.50078 0.0
H679 H 0.72272 0.73006 0.50696 0.0
C680 C 0.11741 0.79424 0.67366 0.0
C681 C 0.10564 0.82343 0.68263 0.0
C682 C 0.09428 0.76941 0.65722 0.0
C683 C 0.05814 0.7734 0.64984 0.0
C684 C 0.04798 0.80487 0.65809 0.0
C685 C 0.0721 0.82977 0.67431 0.0
C686 C 0.10677 0.737 0.6485 0.0
C687 C 0.00951 0.80997 0.65069 0.0
C688 C -0.00256 0.72371 0.60245 0.0
C689 C 0.95887 0.68554 0.60921 0.0
C690 C 0.0318 0.75145 0.61534 0.0
C691 C 0.02703 0.74082 0.63538 0.0
C692 C -0.01043 0.70074 0.64201 0.0
C693 C 0.95612 0.67346 0.62882 0.0
C694 C 0.07179 0.79339 0.60769 0.0
C695 C -0.01677 0.68813 0.66327 0.0
H696 H 0.14375 0.78964 0.67985 0.0
H697 H 0.06293 0.8524 0.68109 0.0
H698 H 0.08142 0.70235 0.65267 0.0
H699 H 0.10714 0.73887 0.63241 0.0
H700 H 0.14007 0.74351 0.6536 0.0
H701 H 0.0085 0.83858 0.65757 0.0
H702 H 0.01189 0.8149 0.63473 0.0
H703 H -0.0226 0.77894 0.65378 0.0
H704 H -8e-05 0.73306 0.58728 0.0
H705 H 0.92664 0.64372 0.6341 0.0
H706 H 0.10322 0.79791 0.61421 0.0
H707 H 0.06882 0.8229 0.61178 0.0
H708 H 0.07438 0.79281 0.59162 0.0
H709 H 0.01347 0.68876 0.66916 0.0
H710 H 0.95386 0.65436 0.66583 0.0
H711 H -0.02167 0.7129 0.67159 0.0
C712 C 0.29778 0.12563 0.83895 0.0
C713 C 0.25764 0.11658 0.84802 0.0
C714 C 0.29751 0.10119 0.82261 0.0
C715 C 0.2562 0.06656 0.81541 0.0
C716 C 0.21555 0.05957 0.82361 0.0
C717 C 0.21676 0.08489 0.83973 0.0
C718 C 0.34151 0.11036 0.81394 0.0
C719 C 0.17074 0.02285 0.81639 0.0
C720 C 0.24247 0.00151 0.76898 0.0
C721 C 0.24028 0.96259 0.77642 0.0
C722 C 0.25018 0.03709 0.78134 0.0
C723 C 0.25523 0.03317 0.80154 0.0
C724 C 0.25533 -0.00508 0.80891 0.0
C725 C 0.24816 0.96028 0.79624 0.0
C726 C 0.25083 0.07781 0.77294 0.0
C727 C 0.26052 -0.01064 0.83037 0.0
H728 H 0.32953 0.15056 0.84508 0.0
H729 H 0.18556 0.07789 0.84652 0.0
H730 H 0.3488 0.08384 0.81856 0.0
H731 H 0.33985 0.10976 0.79784 0.0
H732 H 0.36969 0.1432 0.81868 0.0
H733 H 0.14235 0.02492 0.82289 0.0
H734 H 0.16868 0.02432 0.80036 0.0
H735 H 0.1669 -0.01019 0.82013 0.0
H736 H 0.2367 0.00361 0.75364 0.0
H737 H 0.24693 0.93049 0.80207 0.0
H738 H 0.279 0.1089 0.77906 0.0
H739 H 0.21938 0.07731 0.77685 0.0
H740 H 0.25382 0.07899 0.75685 0.0
H741 H 0.29139 0.01865 0.836 0.0
H742 H 0.2621 0.95862 0.83359 0.0
H743 H 0.23178 -0.01242 0.83841 0.0
C744 C 0.73559 0.8404 0.79304 0.0
C745 C 0.69398 0.83208 0.78598 0.0
C746 C 0.73839 0.81787 0.80946 0.0
C747 C 0.69865 0.78668 0.81914 0.0
C748 C 0.65685 0.78053 0.81292 0.0
C749 C 0.65497 0.80312 0.79632 0.0
C750 C 0.78361 0.82522 0.81564 0.0
C751 C 0.61384 0.74809 0.82306 0.0
C752 C 0.70325 0.68905 0.84157 0.0
C753 C 0.7125 0.70207 0.86108 0.0
C754 C 0.69737 0.71575 0.82794 0.0
C755 C 0.70043 0.75638 0.83399 0.0
C756 C 0.70754 0.76873 0.85383 0.0
C757 C 0.71364 0.7414 0.86719 0.0
C758 C 0.68972 0.70132 0.8069 0.0
C759 C 0.71037 0.81153 0.8608 0.0
H760 H 0.7659 0.86288 0.78519 0.0
H761 H 0.62271 0.79699 0.79112 0.0
H762 H 0.78837 0.83141 0.8315 0.0
H763 H 0.78551 0.79464 0.81256 0.0
H764 H 0.81154 0.85384 0.80792 0.0
H765 H 0.58527 0.75215 0.81831 0.0
H766 H 0.60566 0.71331 0.81981 0.0
H767 H 0.61758 0.75255 0.83903 0.0
H768 H 0.70199 0.65852 0.83676 0.0
H769 H 0.72069 0.75158 0.88226 0.0
H770 H 0.7181 0.72609 0.79795 0.0
H771 H 0.6589 0.70012 0.8014 0.0
H772 H 0.6865 0.66792 0.80475 0.0
H773 H 0.74125 0.84062 0.85502 0.0
H774 H 0.71103 0.81382 0.87691 0.0
H775 H 0.68154 0.81418 0.85529 0.0
C776 C 0.83344 0.66203 0.96663 0.0
C777 C 0.84279 0.7021 0.95742 0.0
C778 C 0.85795 0.66231 0.98297 0.0
C779 C 0.89296 0.70356 -0.00999 0.0
C780 C 0.90031 0.74419 0.98166 0.0
C781 C 0.87491 0.74297 0.96554 0.0
C782 C 0.8484 0.61836 -0.0082 0.0
C783 C 0.93744 0.78892 -0.01129 0.0
C784 C 0.95808 0.71719 0.03645 0.0
C785 C -0.00325 0.71875 0.02905 0.0
C786 C 0.92258 0.70978 0.02408 0.0
C787 C 0.92629 0.70439 0.00391 0.0
C788 C 0.96427 0.70367 -0.00343 0.0
C789 C -0.00115 0.71057 0.00925 0.0
C790 C 0.88216 0.70983 0.03246 0.0
C791 C 0.9696 0.69806 0.97514 0.0
H792 H 0.80818 0.63029 0.96063 0.0
H793 H 0.88215 0.77412 0.95863 0.0
H794 H 0.8747 0.61068 -0.01275 0.0
H795 H 0.8491 0.62029 0.0079 0.0
H796 H 0.81539 0.59032 -0.01286 0.0
H797 H 0.93565 0.81738 0.9821 0.0
H798 H 0.93618 0.79131 0.00473 0.0
H799 H 0.97031 0.79232 0.98496 0.0
H800 H 0.95615 0.72322 0.05178 0.0
H801 H 0.02844 0.71131 0.00344 0.0
H802 H 0.85084 0.68176 0.02643 0.0
H803 H 0.88301 0.74136 0.0284 0.0
H804 H 0.88108 0.70716 0.04855 0.0
H805 H 0.94005 0.6673 0.96959 0.0
H806 H 0.00012 0.69604 0.97195 0.0
H807 H 0.97167 0.72682 0.96699 0.0
C808 C 0.16673 0.84278 0.13143 0.0
C809 C 0.13683 0.85381 0.12258 0.0
C810 C 0.19179 0.86633 0.14776 0.0
C811 C 0.1873 0.90213 0.15514 0.0
C812 C 0.15515 0.91153 0.14702 0.0
C813 C 0.13005 0.88701 0.13092 0.0
C814 C 0.22496 0.85466 0.15634 0.0
C815 C 0.14948 0.94962 0.15444 0.0
C816 C 0.23724 0.96363 0.20233 0.0
C817 C 0.2749 0.00248 0.19543 0.0
C818 C 0.20967 0.92894 0.18955 0.0
C819 C 0.21993 0.93366 0.16948 0.0
C820 C 0.25955 0.97145 0.1627 0.0
C821 C 0.28669 0.00524 0.17579 0.0
C822 C 0.16825 0.88862 0.19736 0.0
C823 C 0.27174 0.97776 0.1414 0.0
H824 H 0.1717 0.8167 0.12523 0.0
H825 H 0.10687 0.89561 0.12424 0.0
H826 H 0.25938 0.88033 0.15201 0.0
H827 H 0.22349 0.85446 0.17244 0.0
H828 H 0.21886 0.8215 0.15128 0.0
H829 H 0.12044 0.95005 0.14767 0.0
H830 H 0.14488 0.94732 0.17042 0.0
H831 H 0.18017 0.98193 0.15123 0.0
H832 H 0.22815 0.96114 0.21754 0.0
H833 H 0.31603 0.03495 0.17039 0.0
H834 H 0.16419 0.85737 0.19086 0.0
H835 H 0.13828 0.89091 0.19337 0.0
H836 H 0.16921 0.88623 0.21342 0.0
H837 H 0.27151 0.94774 0.13551 0.0
H838 H 0.30526 0.00742 0.13872 0.0
H839 H 0.24649 0.98212 0.13316 0.0
C840 C 0.29512 0.1644 0.29618 0.0
C841 C 0.25616 0.13445 0.28606 0.0
C842 C 0.29299 0.18728 0.3126 0.0
C843 C 0.25095 0.18037 0.31889 0.0
C844 C 0.21131 0.14821 0.30946 0.0
C845 C 0.21438 0.12544 0.29319 0.0
C846 C 0.33593 0.2208 0.32247 0.0
C847 C 0.16584 0.14002 0.31572 0.0
C848 C 0.2365 0.22674 0.36671 0.0
C849 C 0.23682 0.26555 0.36037 0.0
C850 C 0.24253 0.19918 0.35348 0.0
C851 C 0.24873 0.21074 0.33354 0.0
C852 C 0.25079 0.25078 0.32723 0.0
C853 C 0.245 0.27775 0.34074 0.0
C854 C 0.24073 0.15701 0.36071 0.0
C855 C 0.25743 0.26436 0.30608 0.0
H856 H 0.32753 0.17109 0.29092 0.0
H857 H 0.18411 0.1022 0.28552 0.0
H858 H 0.34315 0.25519 0.31901 0.0
H859 H 0.33265 0.21681 0.33848 0.0
H860 H 0.36489 0.21744 0.3177 0.0
H861 H 0.13814 0.11072 0.30825 0.0
H862 H 0.16156 0.13446 0.33163 0.0
H863 H 0.16303 0.17 0.31238 0.0
H864 H 0.23026 0.21719 0.38188 0.0
H865 H 0.24559 0.30785 0.33575 0.0
H866 H 0.26997 0.155 0.35528 0.0
H867 H 0.2102 0.12737 0.35504 0.0
H868 H 0.24019 0.15511 0.37683 0.0
H869 H 0.28845 0.26617 0.30048 0.0
H870 H 0.25971 0.29728 0.30369 0.0
H871 H 0.22907 0.2388 0.29737 0.0
C872 C 0.11865 0.30784 0.46624 0.0
C873 C 0.10895 0.26762 0.45711 0.0
C874 C 0.09445 0.30786 0.48263 0.0
C875 C 0.05937 0.26676 0.48979 0.0
C876 C 0.0517 0.22597 0.48151 0.0
C877 C 0.07681 0.2269 0.46535 0.0
C878 C 0.10438 0.35196 0.4914 0.0
C879 C 0.01448 0.18139 0.48868 0.0
C880 C -0.00552 0.25316 0.53627 0.0
C881 C 0.95578 0.25158 0.52889 0.0
C882 C 0.03001 0.26073 0.52389 0.0
C883 C 0.02627 0.26623 0.50373 0.0
C884 C -0.01168 0.26707 0.49642 0.0
C885 C 0.95372 0.26003 0.50911 0.0
C886 C 0.07043 0.26063 0.53224 0.0
C887 C -0.01705 0.27279 0.475 0.0
H888 H 0.14394 0.33946 0.46015 0.0
H889 H 0.0693 0.19563 0.45849 0.0
H890 H 0.07828 0.35991 0.48683 0.0
H891 H 0.1037 0.35011 0.5075 0.0
H892 H 0.1375 0.3798 0.4867 0.0
H893 H 0.01594 0.15278 0.48208 0.0
H894 H 0.01597 0.17909 0.5047 0.0
H895 H -0.01835 0.1782 0.48502 0.0
H896 H -0.0036 0.24696 0.55158 0.0
H897 H 0.92412 0.2593 0.50333 0.0
H898 H 0.10175 0.28848 0.52608 0.0
H899 H 0.06934 0.22892 0.52831 0.0
H900 H 0.07172 0.26361 0.54832 0.0
H901 H 0.01257 0.30347 0.46942 0.0
H902 H 0.95252 0.27502 0.47184 0.0
H903 H -0.01935 0.24397 0.46684 0.0
C904 C 0.6663 0.96066 0.67488 0.0
C905 C 0.67766 0.96374 0.6946 0.0
C906 C 0.69355 -0.0056 0.66179 0.0
C907 C 0.73284 0.03247 0.66861 0.0
C908 C 0.74279 0.03736 0.68871 0.0
C909 C 0.71512 0.00273 0.70151 0.0
C910 C 0.68172 -0.01211 0.64044 0.0
C911 C 0.78391 0.07794 0.69655 0.0
C912 C 0.82308 0.0808 0.6302 0.0
C913 C 0.81572 0.11369 0.6219 0.0
C914 C 0.79803 0.05583 0.64624 0.0
C915 C 0.7653 0.06441 0.65432 0.0
C916 C 0.76014 0.09986 0.64696 0.0
C917 C 0.78521 0.1239 0.63071 0.0
C918 C 0.80442 0.01815 0.65364 0.0
C919 C 0.72629 0.11062 0.65548 0.0
H920 H 0.63715 0.93081 0.66947 0.0
H921 H 0.7239 0.00544 0.71676 0.0
H922 H 0.68144 0.01761 0.63448 0.0
H923 H 0.70747 -0.01588 0.63233 0.0
H924 H 0.64853 0.95785 0.6377 0.0
H925 H 0.78297 0.08012 0.71262 0.0
H926 H 0.81416 0.07625 0.69248 0.0
H927 H 0.78742 0.10905 0.69013 0.0
H928 H 0.84673 0.07282 0.62355 0.0
H929 H 0.77977 0.14972 0.62454 0.0
H930 H 0.77415 -0.01441 0.6503 0.0
H931 H 0.80871 0.02026 0.66963 0.0
H932 H 0.83389 0.01844 0.64695 0.0
H933 H 0.69209 0.08439 0.65118 0.0
H934 H 0.73164 0.14349 0.65036 0.0
H935 H 0.72778 0.11094 0.67158 0.0
loop_
_geom_bond_atom_site_label_1
_geom_bond_atom_site_label_2
_geom_bond_distance
_geom_bond_site_symmetry_2
_ccdc_geom_bond_type
C0 O1 1.306 . S
C0 O3 1.160 . S
O1 C0 1.306 . S
O1 Cd2 2.228 . S
Cd2 O1 2.228 . S
Cd2 O6 2.273 . S
Cd2 O10 2.277 . S
O3 C0 1.160 . S
O3 Cd4 2.203 . S
Cd4 O3 2.203 . S
Cd4 O6 2.411 . S
Cd4 O7 2.333 . S
Cd4 O8 2.352 . S
Cd4 O12 2.277 . S
Cd4 O13 2.356 . S
C5 O10 1.209 . S
C5 O12 1.226 . S
O6 Cd2 2.273 . S
O6 Cd4 2.411 . S
O6 C9 1.320 . S
O7 Cd4 2.333 . S
O7 C9 1.214 . S
O8 Cd4 2.352 . S
O8 C11 1.258 . S
C9 O6 1.320 . S
C9 O7 1.214 . S
O10 Cd2 2.277 . S
O10 C5 1.209 . S
C11 O8 1.258 . S
C11 O13 1.282 . S
O12 Cd4 2.277 . S
O12 C5 1.226 . S
O13 Cd4 2.356 . S
O13 C11 1.282 . S
C14 O15 1.306 . S
C14 O17 1.160 . S
O15 C14 1.306 . S
O15 Cd16 2.228 . S
Cd16 O15 2.228 . S
Cd16 O20 2.273 . S
Cd16 O24 2.277 . S
O17 C14 1.160 . S
O17 Cd18 2.203 . S
Cd18 O17 2.203 . S
Cd18 O20 2.411 . S
Cd18 O21 2.333 . S
Cd18 O22 2.352 . S
Cd18 O26 2.277 . S
Cd18 O27 2.356 . S
C19 O24 1.209 . S
C19 O26 1.226 . S
O20 Cd16 2.273 . S
O20 Cd18 2.411 . S
O20 C23 1.320 . S
O21 Cd18 2.333 . S
O21 C23 1.214 . S
O22 Cd18 2.352 . S
O22 C25 1.258 . S
C23 O20 1.320 . S
C23 O21 1.214 . S
O24 Cd16 2.277 . S
O24 C19 1.209 . S
C25 O22 1.258 . S
C25 O27 1.282 . S
O26 Cd18 2.277 . S
O26 C19 1.226 . S
O27 Cd18 2.356 . S
O27 C25 1.282 . S
C28 O29 1.306 . S
C28 O31 1.160 . S
O29 C28 1.306 . S
O29 Cd30 2.228 . S
Cd30 O29 2.228 . S
Cd30 O34 2.273 . S
Cd30 O38 2.277 . S
O31 C28 1.160 . S
O31 Cd32 2.203 . S
Cd32 O31 2.203 . S
Cd32 O34 2.411 . S
Cd32 O35 2.333 . S
Cd32 O36 2.352 . S
Cd32 O40 2.277 . S
Cd32 O41 2.356 . S
C33 O38 1.209 . S
C33 O40 1.226 . S
O34 Cd30 2.273 . S
O34 Cd32 2.411 . S
O34 C37 1.320 . S
O35 Cd32 2.333 . S
O35 C37 1.214 . S
O36 Cd32 2.352 . S
O36 C39 1.258 . S
C37 O34 1.320 . S
C37 O35 1.214 . S
O38 Cd30 2.277 . S
O38 C33 1.209 . S
C39 O36 1.258 . S
C39 O41 1.282 . S
O40 Cd32 2.277 . S
O40 C33 1.226 . S
O41 Cd32 2.356 . S
O41 C39 1.282 . S
C42 O43 1.306 . S
C42 O45 1.160 . S
O43 C42 1.306 . S
O43 Cd44 2.228 . S
Cd44 O43 2.228 . S
Cd44 O48 2.273 . S
Cd44 O52 2.277 . S
O45 C42 1.160 . S
O45 Cd46 2.203 . S
Cd46 O45 2.203 . S
Cd46 O48 2.411 . S
Cd46 O49 2.333 . S
Cd46 O50 2.352 . S
Cd46 O54 2.277 . S
Cd46 O55 2.356 . S
C47 O52 1.209 . S
C47 O54 1.226 . S
O48 Cd44 2.273 . S
O48 Cd46 2.411 . S
O48 C51 1.320 . S
O49 Cd46 2.333 . S
O49 C51 1.214 . S
O50 Cd46 2.352 . S
O50 C53 1.258 . S
C51 O48 1.320 . S
C51 O49 1.214 . S
O52 Cd44 2.277 . S
O52 C47 1.209 . S
C53 O50 1.258 . S
C53 O55 1.282 . S
O54 Cd46 2.277 . S
O54 C47 1.226 . S
O55 Cd46 2.356 . S
O55 C53 1.282 . S
C56 O57 1.306 . S
C56 O59 1.160 . S
O57 C56 1.306 . S
O57 Cd58 2.228 . S
Cd58 O57 2.228 . S
Cd58 O62 2.273 . S
Cd58 O66 2.277 . S
O59 C56 1.160 . S
O59 Cd60 2.203 . S
Cd60 O59 2.203 . S
Cd60 O62 2.411 . S
Cd60 O63 2.333 . S
Cd60 O64 2.352 . S
Cd60 O68 2.277 . S
Cd60 O69 2.356 . S
C61 O66 1.209 . S
C61 O68 1.226 . S
O62 Cd58 2.273 . S
O62 Cd60 2.411 . S
O62 C65 1.320 . S
O63 Cd60 2.333 . S
O63 C65 1.214 . S
O64 Cd60 2.352 . S
O64 C67 1.258 . S
C65 O62 1.320 . S
C65 O63 1.214 . S
O66 Cd58 2.277 . S
O66 C61 1.209 . S
C67 O64 1.258 . S
C67 O69 1.282 . S
O68 Cd60 2.277 . S
O68 C61 1.226 . S
O69 Cd60 2.356 . S
O69 C67 1.282 . S
C70 O71 1.306 . S
C70 O73 1.160 . S
O71 C70 1.306 . S
O71 Cd72 2.228 . S
Cd72 O71 2.228 . S
Cd72 O76 2.273 . S
Cd72 O80 2.277 . S
O73 C70 1.160 . S
O73 Cd74 2.203 . S
Cd74 O73 2.203 . S
Cd74 O76 2.411 . S
Cd74 O77 2.333 . S
Cd74 O78 2.352 . S
Cd74 O82 2.277 . S
Cd74 O83 2.356 . S
C75 O80 1.209 . S
C75 O82 1.226 . S
O76 Cd72 2.273 . S
O76 Cd74 2.411 . S
O76 C79 1.320 . S
O77 Cd74 2.333 . S
O77 C79 1.214 . S
O78 Cd74 2.352 . S
O78 C81 1.258 . S
C79 O76 1.320 . S
C79 O77 1.214 . S
O80 Cd72 2.277 . S
O80 C75 1.209 . S
C81 O78 1.258 . S
C81 O83 1.282 . S
O82 Cd74 2.277 . S
O82 C75 1.226 . S
O83 Cd74 2.356 . S
O83 C81 1.282 . S
C84 O85 1.306 . S
C84 O87 1.160 . S
O85 C84 1.306 . S
O85 Cd86 2.228 . S
Cd86 O85 2.228 . S
Cd86 O90 2.273 . S
Cd86 O94 2.277 . S
O87 C84 1.160 . S
O87 Cd88 2.203 . S
Cd88 O87 2.203 . S
Cd88 O90 2.411 . S
Cd88 O91 2.333 . S
Cd88 O92 2.352 . S
Cd88 O96 2.277 . S
Cd88 O97 2.356 . S
C89 O94 1.209 . S
C89 O96 1.226 . S
O90 Cd86 2.273 . S
O90 Cd88 2.411 . S
O90 C93 1.320 . S
O91 Cd88 2.333 . S
O91 C93 1.214 . S
O92 Cd88 2.352 . S
O92 C95 1.258 . S
C93 O90 1.320 . S
C93 O91 1.214 . S
O94 Cd86 2.277 . S
O94 C89 1.209 . S
C95 O92 1.258 . S
C95 O97 1.282 . S
O96 Cd88 2.277 . S
O96 C89 1.226 . S
O97 Cd88 2.356 . S
O97 C95 1.282 . S
C98 O99 1.306 . S
C98 O101 1.160 . S
O99 C98 1.306 . S
O99 Cd100 2.228 . S
Cd100 O99 2.228 . S
Cd100 O104 2.273 . S
Cd100 O108 2.277 . S
O101 C98 1.160 . S
O101 Cd102 2.203 . S
Cd102 O101 2.203 . S
Cd102 O104 2.411 . S
Cd102 O105 2.333 . S
Cd102 O106 2.352 . S
Cd102 O110 2.277 . S
Cd102 O111 2.356 . S
C103 O108 1.209 . S
C103 O110 1.226 . S
O104 Cd100 2.273 . S
O104 Cd102 2.411 . S
O104 C107 1.320 . S
O105 Cd102 2.333 . S
O105 C107 1.214 . S
O106 Cd102 2.352 . S
O106 C109 1.258 . S
C107 O104 1.320 . S
C107 O105 1.214 . S
O108 Cd100 2.277 . S
O108 C103 1.209 . S
C109 O106 1.258 . S
C109 O111 1.282 . S
O110 Cd102 2.277 . S
O110 C103 1.226 . S
O111 Cd102 2.356 . S
O111 C109 1.282 . S
C112 O113 1.306 . S
C112 O115 1.160 . S
O113 C112 1.306 . S
O113 Cd114 2.228 . S
Cd114 O113 2.228 . S
Cd114 O118 2.273 . S
Cd114 O122 2.277 . S
O115 C112 1.160 . S
O115 Cd116 2.203 . S
Cd116 O115 2.203 . S
Cd116 O118 2.411 . S
Cd116 O119 2.333 . S
Cd116 O120 2.352 . S
Cd116 O124 2.277 . S
Cd116 O125 2.356 . S
C117 O122 1.209 . S
C117 O124 1.226 . S
O118 Cd114 2.273 . S
O118 Cd116 2.411 . S
O118 C121 1.320 . S
O119 Cd116 2.333 . S
O119 C121 1.214 . S
O120 Cd116 2.352 . S
O120 C123 1.258 . S
C121 O118 1.320 . S
C121 O119 1.214 . S
O122 Cd114 2.277 . S
O122 C117 1.209 . S
C123 O120 1.258 . S
C123 O125 1.282 . S
O124 Cd116 2.277 . S
O124 C117 1.226 . S
O125 Cd116 2.356 . S
O125 C123 1.282 . S
C126 O127 1.306 . S
C126 O129 1.160 . S
O127 C126 1.306 . S
O127 Cd128 2.228 . S
Cd128 O127 2.228 . S
Cd128 O132 2.273 . S
Cd128 O136 2.277 . S
O129 C126 1.160 . S
O129 Cd130 2.203 . S
Cd130 O129 2.203 . S
Cd130 O132 2.411 . S
Cd130 O133 2.333 . S
Cd130 O134 2.352 . S
Cd130 O138 2.277 . S
Cd130 O139 2.356 . S
C131 O136 1.209 . S
C131 O138 1.226 . S
O132 Cd128 2.273 . S
O132 Cd130 2.411 . S
O132 C135 1.320 . S
O133 Cd130 2.333 . S
O133 C135 1.214 . S
O134 Cd130 2.352 . S
O134 C137 1.258 . S
C135 O132 1.320 . S
C135 O133 1.214 . S
O136 Cd128 2.277 . S
O136 C131 1.209 . S
C137 O134 1.258 . S
C137 O139 1.282 . S
O138 Cd130 2.277 . S
O138 C131 1.226 . S
O139 Cd130 2.356 . S
O139 C137 1.282 . S
C140 O141 1.306 . S
C140 O143 1.160 . S
O141 C140 1.306 . S
O141 Cd142 2.228 . S
Cd142 O141 2.228 . S
Cd142 O146 2.273 . S
Cd142 O150 2.277 . S
O143 C140 1.160 . S
O143 Cd144 2.203 . S
Cd144 O143 2.203 . S
Cd144 O146 2.411 . S
Cd144 O147 2.333 . S
Cd144 O148 2.352 . S
Cd144 O152 2.277 . S
Cd144 O153 2.356 . S
C145 O150 1.209 . S
C145 O152 1.226 . S
O146 Cd142 2.273 . S
O146 Cd144 2.411 . S
O146 C149 1.320 . S
O147 Cd144 2.333 . S
O147 C149 1.214 . S
O148 Cd144 2.352 . S
O148 C151 1.258 . S
C149 O146 1.320 . S
C149 O147 1.214 . S
O150 Cd142 2.277 . S
O150 C145 1.209 . S
C151 O148 1.258 . S
C151 O153 1.282 . S
O152 Cd144 2.277 . S
O152 C145 1.226 . S
O153 Cd144 2.356 . S
O153 C151 1.282 . S
C154 O155 1.306 . S
C154 O157 1.160 . S
O155 C154 1.306 . S
O155 Cd156 2.228 . S
Cd156 O155 2.228 . S
Cd156 O160 2.273 . S
Cd156 O164 2.277 . S
O157 C154 1.160 . S
O157 Cd158 2.203 . S
Cd158 O157 2.203 . S
Cd158 O160 2.411 . S
Cd158 O161 2.333 . S
Cd158 O162 2.352 . S
Cd158 O166 2.277 . S
Cd158 O167 2.356 . S
C159 O164 1.209 . S
C159 O166 1.226 . S
O160 Cd156 2.273 . S
O160 Cd158 2.411 . S
O160 C163 1.320 . S
O161 Cd158 2.333 . S
O161 C163 1.214 . S
O162 Cd158 2.352 . S
O162 C165 1.258 . S
C163 O160 1.320 . S
C163 O161 1.214 . S
O164 Cd156 2.277 . S
O164 C159 1.209 . S
C165 O162 1.258 . S
C165 O167 1.282 . S
O166 Cd158 2.277 . S
O166 C159 1.226 . S
O167 Cd158 2.356 . S
O167 C165 1.282 . S
C168 C169 1.391 . S
C168 C170 1.394 . S
C168 H184 0.931 . S
C169 C168 1.391 . S
C169 C173 1.376 . S
C170 C168 1.394 . S
C170 C171 1.369 . S
C170 C174 1.531 . S
C171 C170 1.369 . S
C171 C172 1.410 . S
C171 C179 1.503 . S
C172 C171 1.410 . S
C172 C173 1.392 . S
C172 C175 1.511 . S
C173 C169 1.376 . S
C173 C172 1.392 . S
C173 H185 0.929 . S
C174 C170 1.531 . S
C174 H186 0.960 . S
C174 H187 0.962 . S
C174 H188 0.960 . S
C175 C172 1.511 . S
C175 H189 0.961 . S
C175 H190 0.961 . S
C175 H191 0.961 . S
C176 C177 1.370 . S
C176 C178 1.363 . S
C176 H192 0.931 . S
C177 C176 1.370 . S
C177 C181 1.408 . S
C178 C176 1.363 . S
C178 C179 1.370 . S
C178 C182 1.524 . S
C179 C171 1.503 . S
C179 C178 1.370 . S
C179 C180 1.403 . S
C180 C179 1.403 . S
C180 C181 1.404 . S
C180 C183 1.539 . S
C181 C177 1.408 . S
C181 C180 1.404 . S
C181 H193 0.930 . S
C182 C178 1.524 . S
C182 H194 0.956 . S
C182 H195 0.961 . S
C182 H196 0.961 . S
C183 C180 1.539 . S
C183 H197 0.958 . S
C183 H198 0.961 . S
C183 H199 0.960 . S
H184 C168 0.931 . S
H185 C173 0.929 . S
H186 C174 0.960 . S
H187 C174 0.962 . S
H188 C174 0.960 . S
H189 C175 0.961 . S
H190 C175 0.961 . S
H191 C175 0.961 . S
H192 C176 0.931 . S
H193 C181 0.930 . S
H194 C182 0.956 . S
H195 C182 0.961 . S
H196 C182 0.961 . S
H197 C183 0.958 . S
H198 C183 0.961 . S
H199 C183 0.960 . S
C200 C201 1.391 . S
C200 C202 1.394 . S
C200 H216 0.931 . S
C201 C200 1.391 . S
C201 C205 1.376 . S
C202 C200 1.394 . S
C202 C203 1.369 . S
C202 C206 1.531 . S
C203 C202 1.369 . S
C203 C204 1.410 . S
C203 C211 1.503 . S
C204 C203 1.410 . S
C204 C205 1.392 . S
C204 C207 1.511 . S
C205 C201 1.376 . S
C205 C204 1.392 . S
C205 H217 0.929 . S
C206 C202 1.531 . S
C206 H218 0.960 . S
C206 H219 0.962 . S
C206 H220 0.960 . S
C207 C204 1.511 . S
C207 H221 0.961 . S
C207 H222 0.961 . S
C207 H223 0.961 . S
C208 C209 1.370 . S
C208 C210 1.363 . S
C208 H224 0.931 . S
C209 C208 1.370 . S
C209 C213 1.408 . S
C210 C208 1.363 . S
C210 C211 1.370 . S
C210 C214 1.524 . S
C211 C203 1.503 . S
C211 C210 1.370 . S
C211 C212 1.403 . S
C212 C211 1.403 . S
C212 C213 1.404 . S
C212 C215 1.539 . S
C213 C209 1.408 . S
C213 C212 1.404 . S
C213 H225 0.930 . S
C214 C210 1.524 . S
C214 H226 0.956 . S
C214 H227 0.961 . S
C214 H228 0.961 . S
C215 C212 1.539 . S
C215 H229 0.958 . S
C215 H230 0.961 . S
C215 H231 0.960 . S
H216 C200 0.931 . S
H217 C205 0.929 . S
H218 C206 0.960 . S
H219 C206 0.962 . S
H220 C206 0.960 . S
H221 C207 0.961 . S
H222 C207 0.961 . S
H223 C207 0.961 . S
H224 C208 0.931 . S
H225 C213 0.930 . S
H226 C214 0.956 . S
H227 C214 0.961 . S
H228 C214 0.961 . S
H229 C215 0.958 . S
H230 C215 0.961 . S
H231 C215 0.960 . S
C232 C233 1.391 . S
C232 C234 1.394 . S
C232 H248 0.931 . S
C233 C232 1.391 . S
C233 C237 1.376 . S
C234 C232 1.394 . S
C234 C235 1.369 . S
C234 C238 1.531 . S
C235 C234 1.369 . S
C235 C236 1.410 . S
C235 C243 1.503 . S
C236 C235 1.410 . S
C236 C237 1.392 . S
C236 C239 1.511 . S
C237 C233 1.376 . S
C237 C236 1.392 . S
C237 H249 0.929 . S
C238 C234 1.531 . S
C238 H250 0.960 . S
C238 H251 0.962 . S
C238 H252 0.960 . S
C239 C236 1.511 . S
C239 H253 0.961 . S
C239 H254 0.961 . S
C239 H255 0.961 . S
C240 C241 1.370 . S
C240 C242 1.363 . S
C240 H256 0.931 . S
C241 C240 1.370 . S
C241 C245 1.408 . S
C242 C240 1.363 . S
C242 C243 1.370 . S
C242 C246 1.524 . S
C243 C235 1.503 . S
C243 C242 1.370 . S
C243 C244 1.403 . S
C244 C243 1.403 . S
C244 C245 1.404 . S
C244 C247 1.539 . S
C245 C241 1.408 . S
C245 C244 1.404 . S
C245 H257 0.930 . S
C246 C242 1.524 . S
C246 H258 0.956 . S
C246 H259 0.961 . S
C246 H260 0.961 . S
C247 C244 1.539 . S
C247 H261 0.958 . S
C247 H262 0.961 . S
C247 H263 0.960 . S
H248 C232 0.931 . S
H249 C237 0.929 . S
H250 C238 0.960 . S
H251 C238 0.962 . S
H252 C238 0.960 . S
H253 C239 0.961 . S
H254 C239 0.961 . S
H255 C239 0.961 . S
H256 C240 0.931 . S
H257 C245 0.930 . S
H258 C246 0.956 . S
H259 C246 0.961 . S
H260 C246 0.961 . S
H261 C247 0.958 . S
H262 C247 0.961 . S
H263 C247 0.960 . S
C264 C265 1.391 . S
C264 C266 1.394 . S
C264 H280 0.931 . S
C265 C264 1.391 . S
C265 C269 1.376 . S
C266 C264 1.394 . S
C266 C267 1.369 . S
C266 C270 1.531 . S
C267 C266 1.369 . S
C267 C268 1.410 . S
C267 C275 1.503 . S
C268 C267 1.410 . S
C268 C269 1.392 . S
C268 C271 1.511 . S
C269 C265 1.376 . S
C269 C268 1.392 . S
C269 H281 0.929 . S
C270 C266 1.531 . S
C270 H282 0.960 . S
C270 H283 0.962 . S
C270 H284 0.960 . S
C271 C268 1.511 . S
C271 H285 0.961 . S
C271 H286 0.961 . S
C271 H287 0.961 . S
C272 C273 1.370 . S
C272 C274 1.363 . S
C272 H288 0.931 . S
C273 C272 1.370 . S
C273 C277 1.408 . S
C274 C272 1.363 . S
C274 C275 1.370 . S
C274 C278 1.524 . S
C275 C267 1.503 . S
C275 C274 1.370 . S
C275 C276 1.403 . S
C276 C275 1.403 . S
C276 C277 1.404 . S
C276 C279 1.539 . S
C277 C273 1.408 . S
C277 C276 1.404 . S
C277 H289 0.930 . S
C278 C274 1.524 . S
C278 H290 0.956 . S
C278 H291 0.961 . S
C278 H292 0.961 . S
C279 C276 1.539 . S
C279 H293 0.958 . S
C279 H294 0.961 . S
C279 H295 0.960 . S
H280 C264 0.931 . S
H281 C269 0.929 . S
H282 C270 0.960 . S
H283 C270 0.962 . S
H284 C270 0.960 . S
H285 C271 0.961 . S
H286 C271 0.961 . S
H287 C271 0.961 . S
H288 C272 0.931 . S
H289 C277 0.930 . S
H290 C278 0.956 . S
H291 C278 0.961 . S
H292 C278 0.961 . S
H293 C279 0.958 . S
H294 C279 0.961 . S
H295 C279 0.960 . S
C296 C297 1.391 . S
C296 C298 1.394 . S
C296 H312 0.931 . S
C297 C296 1.391 . S
C297 C301 1.376 . S
C298 C296 1.394 . S
C298 C299 1.369 . S
C298 C302 1.531 . S
C299 C298 1.369 . S
C299 C300 1.410 . S
C299 C307 1.503 . S
C300 C299 1.410 . S
C300 C301 1.392 . S
C300 C303 1.511 . S
C301 C297 1.376 . S
C301 C300 1.392 . S
C301 H313 0.929 . S
C302 C298 1.531 . S
C302 H314 0.960 . S
C302 H315 0.962 . S
C302 H316 0.960 . S
C303 C300 1.511 . S
C303 H317 0.961 . S
C303 H318 0.961 . S
C303 H319 0.961 . S
C304 C305 1.370 . S
C304 C306 1.363 . S
C304 H320 0.931 . S
C305 C304 1.370 . S
C305 C309 1.408 . S
C306 C304 1.363 . S
C306 C307 1.370 . S
C306 C310 1.524 . S
C307 C299 1.503 . S
C307 C306 1.370 . S
C307 C308 1.403 . S
C308 C307 1.403 . S
C308 C309 1.404 . S
C308 C311 1.539 . S
C309 C305 1.408 . S
C309 C308 1.404 . S
C309 H321 0.930 . S
C310 C306 1.524 . S
C310 H322 0.956 . S
C310 H323 0.961 . S
C310 H324 0.961 . S
C311 C308 1.539 . S
C311 H325 0.958 . S
C311 H326 0.961 . S
C311 H327 0.960 . S
H312 C296 0.931 . S
H313 C301 0.929 . S
H314 C302 0.960 . S
H315 C302 0.962 . S
H316 C302 0.960 . S
H317 C303 0.961 . S
H318 C303 0.961 . S
H319 C303 0.961 . S
H320 C304 0.931 . S
H321 C309 0.930 . S
H322 C310 0.956 . S
H323 C310 0.961 . S
H324 C310 0.961 . S
H325 C311 0.958 . S
H326 C311 0.961 . S
H327 C311 0.960 . S
C328 C329 1.391 . S
C328 C330 1.394 . S
C328 H344 0.931 . S
C329 C328 1.391 . S
C329 C333 1.376 . S
C330 C328 1.394 . S
C330 C331 1.369 . S
C330 C334 1.531 . S
C331 C330 1.369 . S
C331 C332 1.410 . S
C331 C339 1.503 . S
C332 C331 1.410 . S
C332 C333 1.392 . S
C332 C335 1.511 . S
C333 C329 1.376 . S
C333 C332 1.392 . S
C333 H345 0.929 . S
C334 C330 1.531 . S
C334 H346 0.960 . S
C334 H347 0.962 . S
C334 H348 0.960 . S
C335 C332 1.511 . S
C335 H349 0.961 . S
C335 H350 0.961 . S
C335 H351 0.961 . S
C336 C337 1.370 . S
C336 C338 1.363 . S
C336 H352 0.931 . S
C337 C336 1.370 . S
C337 C341 1.408 . S
C338 C336 1.363 . S
C338 C339 1.370 . S
C338 C342 1.524 . S
C339 C331 1.503 . S
C339 C338 1.370 . S
C339 C340 1.403 . S
C340 C339 1.403 . S
C340 C341 1.404 . S
C340 C343 1.539 . S
C341 C337 1.408 . S
C341 C340 1.404 . S
C341 H353 0.930 . S
C342 C338 1.524 . S
C342 H354 0.956 . S
C342 H355 0.961 . S
C342 H356 0.961 . S
C343 C340 1.539 . S
C343 H357 0.958 . S
C343 H358 0.961 . S
C343 H359 0.960 . S
H344 C328 0.931 . S
H345 C333 0.929 . S
H346 C334 0.960 . S
H347 C334 0.962 . S
H348 C334 0.960 . S
H349 C335 0.961 . S
H350 C335 0.961 . S
H351 C335 0.961 . S
H352 C336 0.931 . S
H353 C341 0.930 . S
H354 C342 0.956 . S
H355 C342 0.961 . S
H356 C342 0.961 . S
H357 C343 0.958 . S
H358 C343 0.961 . S
H359 C343 0.960 . S
C360 C361 1.391 . S
C360 C362 1.394 . S
C360 H376 0.931 . S
C361 C360 1.391 . S
C361 C365 1.376 . S
C362 C360 1.394 . S
C362 C363 1.369 . S
C362 C366 1.531 . S
C363 C362 1.369 . S
C363 C364 1.410 . S
C363 C371 1.503 . S
C364 C363 1.410 . S
C364 C365 1.392 . S
C364 C367 1.511 . S
C365 C361 1.376 . S
C365 C364 1.392 . S
C365 H377 0.929 . S
C366 C362 1.531 . S
C366 H378 0.960 . S
C366 H379 0.962 . S
C366 H380 0.960 . S
C367 C364 1.511 . S
C367 H381 0.961 . S
C367 H382 0.961 . S
C367 H383 0.961 . S
C368 C369 1.370 . S
C368 C370 1.363 . S
C368 H384 0.931 . S
C369 C368 1.370 . S
C369 C373 1.408 . S
C370 C368 1.363 . S
C370 C371 1.370 . S
C370 C374 1.524 . S
C371 C363 1.503 . S
C371 C370 1.370 . S
C371 C372 1.403 . S
C372 C371 1.403 . S
C372 C373 1.404 . S
C372 C375 1.539 . S
C373 C369 1.408 . S
C373 C372 1.404 . S
C373 H385 0.930 . S
C374 C370 1.524 . S
C374 H386 0.956 . S
C374 H387 0.961 . S
C374 H388 0.961 . S
C375 C372 1.539 . S
C375 H389 0.958 . S
C375 H390 0.961 . S
C375 H391 0.960 . S
H376 C360 0.931 . S
H377 C365 0.929 . S
H378 C366 0.960 . S
H379 C366 0.962 . S
H380 C366 0.960 . S
H381 C367 0.961 . S
H382 C367 0.961 . S
H383 C367 0.961 . S
H384 C368 0.931 . S
H385 C373 0.930 . S
H386 C374 0.956 . S
H387 C374 0.961 . S
H388 C374 0.961 . S
H389 C375 0.958 . S
H390 C375 0.961 . S
H391 C375 0.960 . S
C392 C393 1.391 . S
C392 C394 1.394 . S
C392 H408 0.931 . S
C393 C392 1.391 . S
C393 C397 1.376 . S
C394 C392 1.394 . S
C394 C395 1.369 . S
C394 C398 1.531 . S
C395 C394 1.369 . S
C395 C396 1.410 . S
C395 C403 1.503 1_655 S
C396 C395 1.410 . S
C396 C397 1.392 . S
C396 C399 1.511 1_655 S
C397 C393 1.376 . S
C397 C396 1.392 . S
C397 H409 0.929 . S
C398 C394 1.531 . S
C398 H410 0.960 . S
C398 H411 0.962 . S
C398 H412 0.960 . S
C399 C396 1.511 1_455 S
C399 H413 0.961 . S
C399 H414 0.961 . S
C399 H415 0.961 . S
C400 C401 1.370 . S
C400 C402 1.363 . S
C400 H416 0.931 . S
C401 C400 1.370 . S
C401 C405 1.408 . S
C402 C400 1.363 . S
C402 C403 1.370 . S
C402 C406 1.524 . S
C403 C395 1.503 1_455 S
C403 C402 1.370 . S
C403 C404 1.403 . S
C404 C403 1.403 . S
C404 C405 1.404 . S
C404 C407 1.539 . S
C405 C401 1.408 . S
C405 C404 1.404 . S
C405 H417 0.930 . S
C406 C402 1.524 . S
C406 H418 0.956 . S
C406 H419 0.961 . S
C406 H420 0.961 . S
C407 C404 1.539 . S
C407 H421 0.958 1_455 S
C407 H422 0.961 . S
C407 H423 0.960 1_455 S
H408 C392 0.931 . S
H409 C397 0.929 . S
H410 C398 0.960 . S
H411 C398 0.962 . S
H412 C398 0.960 . S
H413 C399 0.961 . S
H414 C399 0.961 . S
H415 C399 0.961 . S
H416 C400 0.931 . S
H417 C405 0.930 . S
H418 C406 0.956 . S
H419 C406 0.961 . S
H420 C406 0.961 . S
H421 C407 0.958 1_655 S
H422 C407 0.961 . S
H423 C407 0.960 1_655 S
C424 C425 1.391 . S
C424 C426 1.394 . S
C424 H440 0.931 . S
C425 C424 1.391 . S
C425 C429 1.376 . S
C426 C424 1.394 . S
C426 C427 1.369 . S
C426 C430 1.531 . S
C427 C426 1.369 . S
C427 C428 1.410 . S
C427 C435 1.503 1_545 S
C428 C427 1.410 . S
C428 C429 1.392 . S
C428 C431 1.511 . S
C429 C425 1.376 . S
C429 C428 1.392 . S
C429 H441 0.929 . S
C430 C426 1.531 . S
C430 H442 0.960 1_545 S
C430 H443 0.962 . S
C430 H444 0.960 . S
C431 C428 1.511 . S
C431 H445 0.961 . S
C431 H446 0.961 1_545 S
C431 H447 0.961 1_545 S
C432 C433 1.370 . S
C432 C434 1.363 . S
C432 H448 0.931 . S
C433 C432 1.370 . S
C433 C437 1.408 . S
C434 C432 1.363 . S
C434 C435 1.370 . S
C434 C438 1.524 1_565 S
C435 C427 1.503 1_565 S
C435 C434 1.370 . S
C435 C436 1.403 . S
C436 C435 1.403 . S
C436 C437 1.404 . S
C436 C439 1.539 . S
C437 C433 1.408 . S
C437 C436 1.404 . S
C437 H449 0.930 . S
C438 C434 1.524 1_545 S
C438 H450 0.956 . S
C438 H451 0.961 . S
C438 H452 0.961 . S
C439 C436 1.539 . S
C439 H453 0.958 . S
C439 H454 0.961 . S
C439 H455 0.960 . S
H440 C424 0.931 . S
H441 C429 0.929 . S
H442 C430 0.960 1_565 S
H443 C430 0.962 . S
H444 C430 0.960 . S
H445 C431 0.961 . S
H446 C431 0.961 1_565 S
H447 C431 0.961 1_565 S
H448 C432 0.931 . S
H449 C437 0.930 . S
H450 C438 0.956 . S
H451 C438 0.961 . S
H452 C438 0.961 . S
H453 C439 0.958 . S
H454 C439 0.961 . S
H455 C439 0.960 . S
C456 C457 1.391 . S
C456 C458 1.394 . S
C456 H472 0.931 . S
C457 C456 1.391 . S
C457 C461 1.376 . S
C458 C456 1.394 . S
C458 C459 1.369 . S
C458 C462 1.531 . S
C459 C458 1.369 . S
C459 C460 1.410 . S
C459 C467 1.503 . S
C460 C459 1.410 . S
C460 C461 1.392 . S
C460 C463 1.511 . S
C461 C457 1.376 . S
C461 C460 1.392 . S
C461 H473 0.929 . S
C462 C458 1.531 . S
C462 H474 0.960 . S
C462 H475 0.962 . S
C462 H476 0.960 . S
C463 C460 1.511 . S
C463 H477 0.961 . S
C463 H478 0.961 . S
C463 H479 0.961 . S
C464 C465 1.370 . S
C464 C466 1.363 . S
C464 H480 0.931 . S
C465 C464 1.370 . S
C465 C469 1.408 . S
C466 C464 1.363 . S
C466 C467 1.370 . S
C466 C470 1.524 . S
C467 C459 1.503 . S
C467 C466 1.370 . S
C467 C468 1.403 . S
C468 C467 1.403 . S
C468 C469 1.404 . S
C468 C471 1.539 . S
C469 C465 1.408 . S
C469 C468 1.404 . S
C469 H481 0.930 . S
C470 C466 1.524 . S
C470 H482 0.956 . S
C470 H483 0.961 . S
C470 H484 0.961 . S
C471 C468 1.539 . S
C471 H485 0.958 . S
C471 H486 0.961 . S
C471 H487 0.960 . S
H472 C456 0.931 . S
H473 C461 0.929 . S
H474 C462 0.960 . S
H475 C462 0.962 . S
H476 C462 0.960 . S
H477 C463 0.961 . S
H478 C463 0.961 . S
H479 C463 0.961 . S
H480 C464 0.931 . S
H481 C469 0.930 . S
H482 C470 0.956 . S
H483 C470 0.961 . S
H484 C470 0.961 . S
H485 C471 0.958 . S
H486 C471 0.961 . S
H487 C471 0.960 . S
C488 C489 1.391 . S
C488 C490 1.394 . S
C488 H504 0.931 . S
C489 C488 1.391 . S
C489 C493 1.376 . S
C490 C488 1.394 . S
C490 C491 1.369 . S
C490 C494 1.531 . S
C491 C490 1.369 . S
C491 C492 1.410 . S
C491 C499 1.503 1_655 S
C492 C491 1.410 . S
C492 C493 1.392 . S
C492 C495 1.511 . S
C493 C489 1.376 . S
C493 C492 1.392 . S
C493 H505 0.929 . S
C494 C490 1.531 . S
C494 H506 0.960 . S
C494 H507 0.962 . S
C494 H508 0.960 . S
C495 C492 1.511 . S
C495 H509 0.961 . S
C495 H510 0.961 1_655 S
C495 H511 0.961 . S
C496 C497 1.370 . S
C496 C498 1.363 . S
C496 H512 0.931 . S
C497 C496 1.370 . S
C497 C501 1.408 . S
C498 C496 1.363 . S
C498 C499 1.370 . S
C498 C502 1.524 . S
C499 C491 1.503 1_455 S
C499 C498 1.370 . S
C499 C500 1.403 . S
C500 C499 1.403 . S
C500 C501 1.404 . S
C500 C503 1.539 1_455 S
C501 C497 1.408 . S
C501 C500 1.404 . S
C501 H513 0.930 . S
C502 C498 1.524 . S
C502 H514 0.956 . S
C502 H515 0.961 . S
C502 H516 0.961 . S
C503 C500 1.539 1_655 S
C503 H517 0.958 . S
C503 H518 0.961 . S
C503 H519 0.960 . S
H504 C488 0.931 . S
H505 C493 0.929 . S
H506 C494 0.960 . S
H507 C494 0.962 . S
H508 C494 0.960 . S
H509 C495 0.961 . S
H510 C495 0.961 1_455 S
H511 C495 0.961 . S
H512 C496 0.931 . S
H513 C501 0.930 . S
H514 C502 0.956 . S
H515 C502 0.961 . S
H516 C502 0.961 . S
H517 C503 0.958 . S
H518 C503 0.961 . S
H519 C503 0.960 . S
C520 C521 1.391 . S
C520 C522 1.394 . S
C520 H536 0.931 . S
C521 C520 1.391 . S
C521 C525 1.376 . S
C522 C520 1.394 . S
C522 C523 1.369 . S
C522 C526 1.531 . S
C523 C522 1.369 . S
C523 C524 1.410 . S
C523 C531 1.503 1_564 S
C524 C523 1.410 . S
C524 C525 1.392 . S
C524 C527 1.511 . S
C525 C521 1.376 . S
C525 C524 1.392 . S
C525 H537 0.929 . S
C526 C522 1.531 . S
C526 H538 0.960 1_565 S
C526 H539 0.962 . S
C526 H540 0.960 . S
C527 C524 1.511 . S
C527 H541 0.968 . S
C527 H542 0.961 1_554 S
C527 H543 0.961 . S
C528 C529 1.370 . S
C528 C530 1.363 . S
C528 H544 0.931 . S
C529 C528 1.370 . S
C529 C533 1.408 . S
C530 C528 1.363 . S
C530 C531 1.370 . S
C530 C534 1.524 1_545 S
C531 C523 1.503 1_546 S
C531 C530 1.370 . S
C531 C532 1.403 1_556 S
C532 C531 1.403 1_554 S
C532 C533 1.404 1_554 S
C532 C535 1.539 . S
C533 C529 1.408 . S
C533 C532 1.404 1_556 S
C533 H545 0.930 . S
C534 C530 1.524 1_565 S
C534 H546 0.956 . S
C534 H547 0.961 . S
C534 H548 0.961 . S
C535 C532 1.539 . S
C535 H549 0.958 . S
C535 H550 0.961 . S
C535 H551 0.960 . S
H536 C520 0.931 . S
H537 C525 0.929 . S
H538 C526 0.960 1_545 S
H539 C526 0.962 . S
H540 C526 0.960 . S
H541 C527 0.968 . S
H542 C527 0.961 1_556 S
H543 C527 0.961 . S
H544 C528 0.931 . S
H545 C533 0.930 . S
H546 C534 0.956 . S
H547 C534 0.961 . S
H548 C534 0.961 . S
H549 C535 0.958 . S
H550 C535 0.961 . S
H551 C535 0.960 . S
C552 C553 1.391 . S
C552 C554 1.394 . S
C552 H568 0.931 . S
C553 C552 1.391 . S
C553 C557 1.376 . S
C554 C552 1.394 . S
C554 C555 1.369 . S
C554 C558 1.531 . S
C555 C554 1.369 . S
C555 C556 1.410 . S
C555 C563 1.503 . S
C556 C555 1.410 . S
C556 C557 1.392 . S
C556 C559 1.511 . S
C557 C553 1.376 . S
C557 C556 1.392 . S
C557 H569 0.929 . S
C558 C554 1.531 . S
C558 H570 0.960 . S
C558 H571 0.962 1_554 S
C558 H572 0.960 . S
C559 C556 1.511 . S
C559 H573 0.961 . S
C559 H574 0.961 . S
C559 H575 0.961 . S
C560 C561 1.370 . S
C560 C562 1.363 . S
C560 H576 0.931 . S
C561 C560 1.370 . S
C561 C565 1.408 . S
C562 C560 1.363 . S
C562 C563 1.370 1_556 S
C562 C566 1.524 . S
C563 C555 1.503 . S
C563 C562 1.370 1_554 S
C563 C564 1.403 . S
C564 C563 1.403 . S
C564 C565 1.404 1_554 S
C564 C567 1.539 . S
C565 C561 1.408 . S
C565 C564 1.404 1_556 S
C565 H577 0.930 . S
C566 C562 1.524 . S
C566 H578 0.956 . S
C566 H579 0.960 1_556 S
C566 H580 0.961 . S
C567 C564 1.539 . S
C567 H581 0.958 . S
C567 H582 0.961 . S
C567 H583 0.960 . S
H568 C552 0.931 . S
H569 C557 0.929 . S
H570 C558 0.960 . S
H571 C558 0.962 1_556 S
H572 C558 0.960 . S
H573 C559 0.961 . S
H574 C559 0.961 . S
H575 C559 0.961 . S
H576 C560 0.931 . S
H577 C565 0.930 . S
H578 C566 0.956 . S
H579 C566 0.960 1_554 S
H580 C566 0.961 . S
H581 C567 0.958 . S
H582 C567 0.961 . S
H583 C567 0.960 . S
C584 C585 1.391 . S
C584 C586 1.394 . S
C584 H600 0.931 . S
C585 C584 1.391 . S
C585 C589 1.376 . S
C586 C584 1.394 . S
C586 C587 1.369 . S
C586 C590 1.531 . S
C587 C586 1.369 . S
C587 C588 1.410 . S
C587 C595 1.503 . S
C588 C587 1.410 . S
C588 C589 1.392 . S
C588 C591 1.511 . S
C589 C585 1.376 . S
C589 C588 1.392 . S
C589 H601 0.929 . S
C590 C586 1.531 . S
C590 H602 0.960 . S
C590 H603 0.962 . S
C590 H604 0.960 . S
C591 C588 1.511 . S
C591 H605 0.961 . S
C591 H606 0.961 . S
C591 H607 0.961 . S
C592 C593 1.370 1_655 S
C592 C594 1.363 . S
C592 H608 0.931 . S
C593 C592 1.370 1_455 S
C593 C597 1.408 . S
C594 C592 1.363 . S
C594 C595 1.370 . S
C594 C598 1.524 . S
C595 C587 1.503 . S
C595 C594 1.370 . S
C595 C596 1.403 1_655 S
C596 C595 1.403 1_455 S
C596 C597 1.404 . S
C596 C599 1.539 . S
C597 C593 1.408 . S
C597 C596 1.404 . S
C597 H609 0.930 . S
C598 C594 1.524 . S
C598 H610 0.956 . S
C598 H611 0.961 . S
C598 H612 0.961 . S
C599 C596 1.539 . S
C599 H613 0.958 . S
C599 H614 0.961 . S
C599 H615 0.960 . S
H600 C584 0.931 . S
H601 C589 0.929 . S
H602 C590 0.960 . S
H603 C590 0.962 . S
H604 C590 0.960 . S
H605 C591 0.961 . S
H606 C591 0.961 . S
H607 C591 0.961 . S
H608 C592 0.931 . S
H609 C597 0.930 . S
H610 C598 0.956 . S
H611 C598 0.961 . S
H612 C598 0.961 . S
H613 C599 0.958 . S
H614 C599 0.961 . S
H615 C599 0.960 . S
C616 C617 1.391 1_565 S
C616 C618 1.394 . S
C616 H632 0.931 . S
C617 C616 1.391 1_545 S
C617 C621 1.376 . S
C618 C616 1.394 . S
C618 C619 1.369 . S
C618 C622 1.531 . S
C619 C618 1.369 . S
C619 C620 1.410 1_565 S
C619 C627 1.503 . S
C620 C619 1.410 1_545 S
C620 C621 1.392 . S
C620 C623 1.511 . S
C621 C617 1.376 . S
C621 C620 1.392 . S
C621 H633 0.929 . S
C622 C618 1.531 . S
C622 H634 0.960 . S
C622 H635 0.962 . S
C622 H636 0.960 . S
C623 C620 1.511 . S
C623 H637 0.961 . S
C623 H638 0.955 1_545 S
C623 H639 0.961 . S
C624 C625 1.370 . S
C624 C626 1.363 . S
C624 H640 0.931 . S
C625 C624 1.370 . S
C625 C629 1.408 . S
C626 C624 1.363 . S
C626 C627 1.370 . S
C626 C630 1.524 . S
C627 C619 1.503 . S
C627 C626 1.370 . S
C627 C628 1.403 . S
C628 C627 1.403 . S
C628 C629 1.404 . S
C628 C631 1.539 . S
C629 C625 1.408 . S
C629 C628 1.404 . S
C629 H641 0.930 . S
C630 C626 1.524 . S
C630 H642 0.956 . S
C630 H643 0.961 . S
C630 H644 0.961 . S
C631 C628 1.539 . S
C631 H645 0.958 . S
C631 H646 0.961 . S
C631 H647 0.960 . S
H632 C616 0.931 . S
H633 C621 0.929 . S
H634 C622 0.960 . S
H635 C622 0.962 . S
H636 C622 0.960 . S
H637 C623 0.961 . S
H638 C623 0.955 1_565 S
H639 C623 0.961 . S
H640 C624 0.931 . S
H641 C629 0.930 . S
H642 C630 0.956 . S
H643 C630 0.961 . S
H644 C630 0.961 . S
H645 C631 0.958 . S
H646 C631 0.961 . S
H647 C631 0.960 . S
C648 C649 1.391 . S
C648 C650 1.394 . S
C648 H664 0.931 . S
C649 C648 1.391 . S
C649 C653 1.376 . S
C650 C648 1.394 . S
C650 C651 1.369 . S
C650 C654 1.531 . S
C651 C650 1.369 . S
C651 C652 1.410 . S
C651 C659 1.503 . S
C652 C651 1.410 . S
C652 C653 1.392 . S
C652 C655 1.511 . S
C653 C649 1.376 . S
C653 C652 1.392 . S
C653 H665 0.929 . S
C654 C650 1.531 . S
C654 H666 0.960 . S
C654 H667 0.962 . S
C654 H668 0.960 . S
C655 C652 1.511 . S
C655 H669 0.961 . S
C655 H670 0.961 . S
C655 H671 0.961 . S
C656 C657 1.370 . S
C656 C658 1.363 . S
C656 H672 0.931 . S
C657 C656 1.370 . S
C657 C661 1.408 . S
C658 C656 1.363 . S
C658 C659 1.370 . S
C658 C662 1.524 . S
C659 C651 1.503 . S
C659 C658 1.370 . S
C659 C660 1.403 . S
C660 C659 1.403 . S
C660 C661 1.404 . S
C660 C663 1.539 . S
C661 C657 1.408 . S
C661 C660 1.404 . S
C661 H673 0.930 . S
C662 C658 1.524 . S
C662 H674 0.956 . S
C662 H675 0.961 . S
C662 H676 0.961 . S
C663 C660 1.539 . S
C663 H677 0.958 . S
C663 H678 0.961 . S
C663 H679 0.960 . S
H664 C648 0.931 . S
H665 C653 0.929 . S
H666 C654 0.960 . S
H667 C654 0.962 . S
H668 C654 0.960 . S
H669 C655 0.961 . S
H670 C655 0.961 . S
H671 C655 0.961 . S
H672 C656 0.931 . S
H673 C661 0.930 . S
H674 C662 0.956 . S
H675 C662 0.961 . S
H676 C662 0.961 . S
H677 C663 0.958 . S
H678 C663 0.961 . S
H679 C663 0.960 . S
C680 C681 1.391 . S
C680 C682 1.394 . S
C680 H696 0.931 . S
C681 C680 1.391 . S
C681 C685 1.376 . S
C682 C680 1.394 . S
C682 C683 1.369 . S
C682 C686 1.531 . S
C683 C682 1.369 . S
C683 C684 1.410 . S
C683 C691 1.503 . S
C684 C683 1.410 . S
C684 C685 1.392 . S
C684 C687 1.511 . S
C685 C681 1.376 . S
C685 C684 1.392 . S
C685 H697 0.929 . S
C686 C682 1.531 . S
C686 H698 0.960 . S
C686 H699 0.962 . S
C686 H700 0.960 . S
C687 C684 1.511 . S
C687 H701 0.961 . S
C687 H702 0.961 . S
C687 H703 0.961 . S
C688 C689 1.370 1_455 S
C688 C690 1.363 . S
C688 H704 0.931 . S
C689 C688 1.370 1_655 S
C689 C693 1.408 . S
C690 C688 1.363 . S
C690 C691 1.370 . S
C690 C694 1.524 . S
C691 C683 1.503 . S
C691 C690 1.370 . S
C691 C692 1.403 1_455 S
C692 C691 1.403 1_655 S
C692 C693 1.404 . S
C692 C695 1.539 . S
C693 C689 1.408 . S
C693 C692 1.404 . S
C693 H705 0.930 . S
C694 C690 1.524 . S
C694 H706 0.956 . S
C694 H707 0.961 . S
C694 H708 0.961 . S
C695 C692 1.539 . S
C695 H709 0.958 . S
C695 H710 0.961 . S
C695 H711 0.960 . S
H696 C680 0.931 . S
H697 C685 0.929 . S
H698 C686 0.960 . S
H699 C686 0.962 . S
H700 C686 0.960 . S
H701 C687 0.961 . S
H702 C687 0.961 . S
H703 C687 0.961 . S
H704 C688 0.931 . S
H705 C693 0.930 . S
H706 C694 0.956 . S
H707 C694 0.961 . S
H708 C694 0.961 . S
H709 C695 0.958 . S
H710 C695 0.961 . S
H711 C695 0.960 . S
C712 C713 1.391 . S
C712 C714 1.394 . S
C712 H728 0.931 . S
C713 C712 1.391 . S
C713 C717 1.376 . S
C714 C712 1.394 . S
C714 C715 1.369 . S
C714 C718 1.531 . S
C715 C714 1.369 . S
C715 C716 1.410 . S
C715 C723 1.503 . S
C716 C715 1.410 . S
C716 C717 1.392 . S
C716 C719 1.511 . S
C717 C713 1.376 . S
C717 C716 1.392 . S
C717 H729 0.929 . S
C718 C714 1.531 . S
C718 H730 0.960 . S
C718 H731 0.962 . S
C718 H732 0.960 . S
C719 C716 1.511 . S
C719 H733 0.961 . S
C719 H734 0.961 . S
C719 H735 0.961 . S
C720 C721 1.370 1_545 S
C720 C722 1.363 . S
C720 H736 0.931 . S
C721 C720 1.370 1_565 S
C721 C725 1.408 . S
C722 C720 1.363 . S
C722 C723 1.370 . S
C722 C726 1.524 . S
C723 C715 1.503 . S
C723 C722 1.370 . S
C723 C724 1.403 1_545 S
C724 C723 1.403 1_565 S
C724 C725 1.404 . S
C724 C727 1.539 . S
C725 C721 1.408 . S
C725 C724 1.404 . S
C725 H737 0.930 . S
C726 C722 1.524 . S
C726 H738 0.956 . S
C726 H739 0.961 . S
C726 H740 0.961 . S
C727 C724 1.539 . S
C727 H741 0.958 . S
C727 H742 0.961 . S
C727 H743 0.960 . S
H728 C712 0.931 . S
H729 C717 0.929 . S
H730 C718 0.960 . S
H731 C718 0.962 . S
H732 C718 0.960 . S
H733 C719 0.961 . S
H734 C719 0.961 . S
H735 C719 0.961 . S
H736 C720 0.931 . S
H737 C725 0.930 . S
H738 C726 0.956 . S
H739 C726 0.961 . S
H740 C726 0.961 . S
H741 C727 0.958 . S
H742 C727 0.961 . S
H743 C727 0.960 . S
C744 C745 1.391 . S
C744 C746 1.394 . S
C744 H760 0.931 . S
C745 C744 1.391 . S
C745 C749 1.376 . S
C746 C744 1.394 . S
C746 C747 1.369 . S
C746 C750 1.531 . S
C747 C746 1.369 . S
C747 C748 1.410 . S
C747 C755 1.503 . S
C748 C747 1.410 . S
C748 C749 1.392 . S
C748 C751 1.511 . S
C749 C745 1.376 . S
C749 C748 1.392 . S
C749 H761 0.929 . S
C750 C746 1.531 . S
C750 H762 0.960 . S
C750 H763 0.962 . S
C750 H764 0.960 . S
C751 C748 1.511 . S
C751 H765 0.961 . S
C751 H766 0.961 . S
C751 H767 0.961 . S
C752 C753 1.370 . S
C752 C754 1.363 . S
C752 H768 0.931 . S
C753 C752 1.370 . S
C753 C757 1.408 . S
C754 C752 1.363 . S
C754 C755 1.370 . S
C754 C758 1.524 . S
C755 C747 1.503 . S
C755 C754 1.370 . S
C755 C756 1.403 . S
C756 C755 1.403 . S
C756 C757 1.404 . S
C756 C759 1.539 . S
C757 C753 1.408 . S
C757 C756 1.404 . S
C757 H769 0.930 . S
C758 C754 1.524 . S
C758 H770 0.956 . S
C758 H771 0.961 . S
C758 H772 0.961 . S
C759 C756 1.539 . S
C759 H773 0.958 . S
C759 H774 0.961 . S
C759 H775 0.960 . S
H760 C744 0.931 . S
H761 C749 0.929 . S
H762 C750 0.960 . S
H763 C750 0.962 . S
H764 C750 0.960 . S
H765 C751 0.961 . S
H766 C751 0.961 . S
H767 C751 0.961 . S
H768 C752 0.931 . S
H769 C757 0.930 . S
H770 C758 0.956 . S
H771 C758 0.961 . S
H772 C758 0.961 . S
H773 C759 0.958 . S
H774 C759 0.961 . S
H775 C759 0.960 . S
C776 C777 1.391 . S
C776 C778 1.394 . S
C776 H792 0.931 . S
C777 C776 1.391 . S
C777 C781 1.376 . S
C778 C776 1.394 . S
C778 C779 1.369 . S
C778 C782 1.531 1_556 S
C779 C778 1.369 . S
C779 C780 1.410 . S
C779 C787 1.503 . S
C780 C779 1.410 . S
C780 C781 1.392 . S
C780 C783 1.511 . S
C781 C777 1.376 . S
C781 C780 1.392 . S
C781 H793 0.929 . S
C782 C778 1.531 1_554 S
C782 H794 0.960 . S
C782 H795 0.962 . S
C782 H796 0.960 . S
C783 C780 1.511 . S
C783 H797 0.961 1_655 S
C783 H798 0.961 1_655 S
C783 H799 0.961 . S
C784 C785 1.370 . S
C784 C786 1.363 1_455 S
C784 H800 0.931 . S
C785 C784 1.370 . S
C785 C789 1.408 . S
C786 C784 1.363 1_655 S
C786 C787 1.370 1_554 S
C786 C790 1.524 1_554 S
C787 C779 1.503 . S
C787 C786 1.370 1_556 S
C787 C788 1.403 1_556 S
C788 C787 1.403 1_554 S
C788 C789 1.388 1_655 S
C788 C791 1.539 1_554 S
C789 C785 1.408 . S
C789 C788 1.388 1_455 S
C789 H801 0.946 . S
C790 C786 1.524 1_556 S
C790 H802 0.956 . S
C790 H803 0.961 . S
C790 H804 0.961 1_556 S
C791 C788 1.539 1_556 S
C791 H805 0.935 1_556 S
C791 H806 0.961 . S
C791 H807 0.960 . S
H792 C776 0.931 . S
H793 C781 0.929 . S
H794 C782 0.960 . S
H795 C782 0.962 . S
H796 C782 0.960 . S
H797 C783 0.961 1_455 S
H798 C783 0.961 1_455 S
H799 C783 0.961 . S
H800 C784 0.931 . S
H801 C789 0.946 . S
H802 C790 0.956 . S
H803 C790 0.961 . S
H804 C790 0.961 1_554 S
H805 C791 0.935 1_554 S
H806 C791 0.961 . S
H807 C791 0.960 . S
C808 C809 1.391 . S
C808 C810 1.394 . S
C808 H824 0.931 . S
C809 C808 1.391 . S
C809 C813 1.376 . S
C810 C808 1.394 . S
C810 C811 1.369 . S
C810 C814 1.531 . S
C811 C810 1.369 . S
C811 C812 1.410 . S
C811 C819 1.503 . S
C812 C811 1.410 . S
C812 C813 1.392 . S
C812 C815 1.511 . S
C813 C809 1.376 . S
C813 C812 1.392 . S
C813 H825 0.929 . S
C814 C810 1.531 . S
C814 H826 0.960 . S
C814 H827 0.962 . S
C814 H828 0.960 . S
C815 C812 1.511 . S
C815 H829 0.961 . S
C815 H830 0.961 . S
C815 H831 0.961 . S
C816 C817 1.370 1_565 S
C816 C818 1.363 . S
C816 H832 0.931 . S
C817 C816 1.370 1_545 S
C817 C821 1.408 . S
C818 C816 1.363 . S
C818 C819 1.370 . S
C818 C822 1.524 . S
C819 C811 1.503 . S
C819 C818 1.370 . S
C819 C820 1.403 1_565 S
C820 C819 1.403 1_545 S
C820 C821 1.404 . S
C820 C823 1.539 . S
C821 C817 1.408 . S
C821 C820 1.404 . S
C821 H833 0.930 . S
C822 C818 1.524 . S
C822 H834 0.956 . S
C822 H835 0.961 . S
C822 H836 0.961 . S
C823 C820 1.539 . S
C823 H837 0.958 . S
C823 H838 0.961 . S
C823 H839 0.960 . S
H824 C808 0.931 . S
H825 C813 0.929 . S
H826 C814 0.960 . S
H827 C814 0.962 . S
H828 C814 0.960 . S
H829 C815 0.961 . S
H830 C815 0.961 . S
H831 C815 0.961 . S
H832 C816 0.931 . S
H833 C821 0.930 . S
H834 C822 0.956 . S
H835 C822 0.961 . S
H836 C822 0.961 . S
H837 C823 0.958 . S
H838 C823 0.961 . S
H839 C823 0.960 . S
C840 C841 1.391 . S
C840 C842 1.394 . S
C840 H856 0.931 . S
C841 C840 1.391 . S
C841 C845 1.376 . S
C842 C840 1.394 . S
C842 C843 1.369 . S
C842 C846 1.531 . S
C843 C842 1.369 . S
C843 C844 1.410 . S
C843 C851 1.503 . S
C844 C843 1.410 . S
C844 C845 1.392 . S
C844 C847 1.511 . S
C845 C841 1.376 . S
C845 C844 1.392 . S
C845 H857 0.929 . S
C846 C842 1.531 . S
C846 H858 0.960 . S
C846 H859 0.962 . S
C846 H860 0.960 . S
C847 C844 1.511 . S
C847 H861 0.961 . S
C847 H862 0.961 . S
C847 H863 0.961 . S
C848 C849 1.370 . S
C848 C850 1.363 . S
C848 H864 0.931 . S
C849 C848 1.370 . S
C849 C853 1.408 . S
C850 C848 1.363 . S
C850 C851 1.370 . S
C850 C854 1.524 . S
C851 C843 1.503 . S
C851 C850 1.370 . S
C851 C852 1.403 . S
C852 C851 1.403 . S
C852 C853 1.404 . S
C852 C855 1.539 . S
C853 C849 1.408 . S
C853 C852 1.404 . S
C853 H865 0.930 . S
C854 C850 1.524 . S
C854 H866 0.956 . S
C854 H867 0.961 . S
C854 H868 0.961 . S
C855 C852 1.539 . S
C855 H869 0.958 . S
C855 H870 0.961 . S
C855 H871 0.960 . S
H856 C840 0.931 . S
H857 C845 0.929 . S
H858 C846 0.960 . S
H859 C846 0.962 . S
H860 C846 0.960 . S
H861 C847 0.961 . S
H862 C847 0.961 . S
H863 C847 0.961 . S
H864 C848 0.931 . S
H865 C853 0.930 . S
H866 C854 0.956 . S
H867 C854 0.961 . S
H868 C854 0.961 . S
H869 C855 0.958 . S
H870 C855 0.961 . S
H871 C855 0.960 . S
C872 C873 1.391 . S
C872 C874 1.394 . S
C872 H888 0.931 . S
C873 C872 1.391 . S
C873 C877 1.376 . S
C874 C872 1.394 . S
C874 C875 1.369 . S
C874 C878 1.531 . S
C875 C874 1.369 . S
C875 C876 1.410 . S
C875 C883 1.503 . S
C876 C875 1.410 . S
C876 C877 1.392 . S
C876 C879 1.511 . S
C877 C873 1.376 . S
C877 C876 1.392 . S
C877 H889 0.929 . S
C878 C874 1.531 . S
C878 H890 0.960 . S
C878 H891 0.962 . S
C878 H892 0.960 . S
C879 C876 1.511 . S
C879 H893 0.961 . S
C879 H894 0.961 . S
C879 H895 0.961 . S
C880 C881 1.370 1_455 S
C880 C882 1.363 . S
C880 H896 0.931 . S
C881 C880 1.370 1_655 S
C881 C885 1.408 . S
C882 C880 1.363 . S
C882 C883 1.370 . S
C882 C886 1.524 . S
C883 C875 1.503 . S
C883 C882 1.370 . S
C883 C884 1.403 1_455 S
C884 C883 1.403 1_655 S
C884 C885 1.404 . S
C884 C887 1.539 . S
C885 C881 1.408 . S
C885 C884 1.404 . S
C885 H897 0.930 . S
C886 C882 1.524 . S
C886 H898 0.956 . S
C886 H899 0.961 . S
C886 H900 0.961 . S
C887 C884 1.539 . S
C887 H901 0.958 . S
C887 H902 0.961 . S
C887 H903 0.960 . S
H888 C872 0.931 . S
H889 C877 0.929 . S
H890 C878 0.960 . S
H891 C878 0.962 . S
H892 C878 0.960 . S
H893 C879 0.961 . S
H894 C879 0.961 . S
H895 C879 0.961 . S
H896 C880 0.931 . S
H897 C885 0.930 . S
H898 C886 0.956 . S
H899 C886 0.961 . S
H900 C886 0.961 . S
H901 C887 0.958 . S
H902 C887 0.961 . S
H903 C887 0.960 . S
C904 C905 1.391 . S
C904 C906 1.394 . S
C904 H920 0.931 . S
C905 C904 1.391 . S
C905 C909 1.376 1_565 S
C906 C904 1.394 . S
C906 C907 1.369 1_565 S
C906 C910 1.531 . S
C907 C906 1.369 1_545 S
C907 C908 1.410 . S
C907 C915 1.503 . S
C908 C907 1.410 . S
C908 C909 1.392 . S
C908 C911 1.511 . S
C909 C905 1.376 1_545 S
C909 C908 1.392 . S
C909 H921 0.929 . S
C910 C906 1.531 . S
C910 H922 0.960 . S
C910 H923 0.961 . S
C910 H924 0.960 . S
C911 C908 1.511 . S
C911 H925 0.961 . S
C911 H926 0.961 . S
C911 H927 0.961 . S
C912 C913 1.370 . S
C912 C914 1.363 . S
C912 H928 0.931 . S
C913 C912 1.370 . S
C913 C917 1.408 . S
C914 C912 1.363 . S
C914 C915 1.370 . S
C914 C918 1.524 . S
C915 C907 1.503 . S
C915 C914 1.370 . S
C915 C916 1.403 . S
C916 C915 1.403 . S
C916 C917 1.404 . S
C916 C919 1.539 . S
C917 C913 1.408 . S
C917 C916 1.404 . S
C917 H929 0.930 . S
C918 C914 1.524 . S
C918 H930 0.956 . S
C918 H931 0.961 . S
C918 H932 0.961 . S
C919 C916 1.539 . S
C919 H933 0.958 1_545 S
C919 H934 0.961 . S
C919 H935 0.960 . S
H920 C904 0.931 . S
H921 C909 0.929 . S
H922 C910 0.960 . S
H923 C910 0.961 . S
H924 C910 0.960 . S
H925 C911 0.961 . S
H926 C911 0.961 . S
H927 C911 0.961 . S
H928 C912 0.931 . S
H929 C917 0.930 . S
H930 C918 0.956 . S
H931 C918 0.961 . S
H932 C918 0.961 . S
H933 C919 0.958 1_565 S
H934 C919 0.961 . S
H935 C919 0.960 . S
C169 C123 1.287 . S
C177 C11 1.303 . S
C201 C25 1.306 . S
C209 C137 1.296 . S
C233 C39 1.295 . S
C241 C151 1.301 . S
C265 C53 1.306 . S
C273 C165 1.296 . S
C297 C95 1.289 . S
C305 C67 1.302 . S
C329 C81 1.295 . S
C337 C109 1.300 . S
C361 C131 1.000 . S
C369 C5 0.988 . S
C393 C19 0.960 . S
C401 C145 0.972 . S
C425 C159 0.972 . S
C433 C33 0.982 . S
C457 C47 0.973 . S
C465 C89 0.983 . S
C489 C103 0.974 . S
C497 C61 0.975 . S
C521 C117 0.980 . S
C529 C75 0.985 . S
C553 C0 1.397 . S
C561 C79 1.410 . S
C585 C14 1.394 . S
C593 C9 1.408 . S
C617 C23 1.407 . S
C625 C28 1.417 . S
C649 C42 1.397 . S
C657 C37 1.410 . S
C681 C56 1.394 . S
C689 C51 1.408 . S
C713 C70 1.397 . S
C721 C65 1.410 . S
C745 C84 1.421 . S
C753 C107 1.420 . S
C777 C98 1.413 . S
C785 C121 1.417 . S
C809 C112 1.400 . S
C817 C135 1.411 . S
C841 C126 1.407 . S
C849 C149 1.414 . S
C873 C140 1.394 . S
C881 C163 1.408 . S
C905 C93 1.396 . S
C913 C154 1.412 . S
