# Generated by pormake.
# Topology wio, (6)-cn, num edge types: 1
# Building blocks:
#     Node 0, Type 0, BuildingBlock: JUFBIX_clean_sbu_0, # of connection points: 6
#     Node 1, Type 0, BuildingBlock: JUFBIX_clean_sbu_0, # of connection points: 6
#     Node 2, Type 0, BuildingBlock: JUFBIX_clean_sbu_0, # of connection points: 6
#     Node 3, Type 0, BuildingBlock: JUFBIX_clean_sbu_0, # of connection points: 6
#     Node 4, Type 0, BuildingBlock: JUFBIX_clean_sbu_0, # of connection points: 6
#     Node 5, Type 0, BuildingBlock: JUFBIX_clean_sbu_0, # of connection points: 6
#     Node 6, Type 0, BuildingBlock: JUFBIX_clean_sbu_0, # of connection points: 6
#     Node 7, Type 0, BuildingBlock: JUFBIX_clean_sbu_0, # of connection points: 6
#     Node 8, Type 0, BuildingBlock: JUFBIX_clean_sbu_0, # of connection points: 6
#     Node 9, Type 0, BuildingBlock: JUFBIX_clean_sbu_0, # of connection points: 6
#     Node 10, Type 0, BuildingBlock: JUFBIX_clean_sbu_0, # of connection points: 6
#     Node 11, Type 0, BuildingBlock: JUFBIX_clean_sbu_0, # of connection points: 6
#     Node 12, Type 0, BuildingBlock: JUFBIX_clean_sbu_0, # of connection points: 6
#     Node 13, Type 0, BuildingBlock: JUFBIX_clean_sbu_0, # of connection points: 6
#     Node 14, Type 0, BuildingBlock: JUFBIX_clean_sbu_0, # of connection points: 6
#     Node 15, Type 0, BuildingBlock: JUFBIX_clean_sbu_0, # of connection points: 6
#     Node 16, Type 0, BuildingBlock: JUFBIX_clean_sbu_0, # of connection points: 6
#     Node 17, Type 0, BuildingBlock: JUFBIX_clean_sbu_0, # of connection points: 6
#     Node 18, Type 0, BuildingBlock: JUFBIX_clean_sbu_0, # of connection points: 6
#     Node 19, Type 0, BuildingBlock: JUFBIX_clean_sbu_0, # of connection points: 6
#     Node 20, Type 0, BuildingBlock: JUFBIX_clean_sbu_0, # of connection points: 6
#     Node 21, Type 0, BuildingBlock: JUFBIX_clean_sbu_0, # of connection points: 6
#     Node 22, Type 0, BuildingBlock: JUFBIX_clean_sbu_0, # of connection points: 6
#     Node 23, Type 0, BuildingBlock: JUFBIX_clean_sbu_0, # of connection points: 6
#     Node 24, Type 0, BuildingBlock: JUFBIX_clean_sbu_0, # of connection points: 6
#     Node 25, Type 0, BuildingBlock: JUFBIX_clean_sbu_0, # of connection points: 6
#     Node 26, Type 0, BuildingBlock: JUFBIX_clean_sbu_0, # of connection points: 6
#     Node 27, Type 0, BuildingBlock: JUFBIX_clean_sbu_0, # of connection points: 6
#     Node 28, Type 0, BuildingBlock: JUFBIX_clean_sbu_0, # of connection points: 6
#     Node 29, Type 0, BuildingBlock: JUFBIX_clean_sbu_0, # of connection points: 6
#     Node 30, Type 0, BuildingBlock: JUFBIX_clean_sbu_0, # of connection points: 6
#     Node 31, Type 0, BuildingBlock: JUFBIX_clean_sbu_0, # of connection points: 6
#     Edge 32, Type (0, 0), BuildingBlock: EZIPEK_clean_linker_0, # of connection points: 2
#     Edge 33, Type (0, 0), BuildingBlock: EZIPEK_clean_linker_0, # of connection points: 2
#     Edge 34, Type (0, 0), BuildingBlock: EZIPEK_clean_linker_0, # of connection points: 2
#     Edge 35, Type (0, 0), BuildingBlock: EZIPEK_clean_linker_0, # of connection points: 2
#     Edge 36, Type (0, 0), BuildingBlock: EZIPEK_clean_linker_0, # of connection points: 2
#     Edge 37, Type (0, 0), BuildingBlock: EZIPEK_clean_linker_0, # of connection points: 2
#     Edge 38, Type (0, 0), BuildingBlock: EZIPEK_clean_linker_0, # of connection points: 2
#     Edge 39, Type (0, 0), BuildingBlock: EZIPEK_clean_linker_0, # of connection points: 2
#     Edge 40, Type (0, 0), BuildingBlock: EZIPEK_clean_linker_0, # of connection points: 2
#     Edge 41, Type (0, 0), BuildingBlock: EZIPEK_clean_linker_0, # of connection points: 2
#     Edge 42, Type (0, 0), BuildingBlock: EZIPEK_clean_linker_0, # of connection points: 2
#     Edge 43, Type (0, 0), BuildingBlock: EZIPEK_clean_linker_0, # of connection points: 2
#     Edge 44, Type (0, 0), BuildingBlock: EZIPEK_clean_linker_0, # of connection points: 2
#     Edge 45, Type (0, 0), BuildingBlock: EZIPEK_clean_linker_0, # of connection points: 2
#     Edge 46, Type (0, 0), BuildingBlock: EZIPEK_clean_linker_0, # of connection points: 2
#     Edge 47, Type (0, 0), BuildingBlock: EZIPEK_clean_linker_0, # of connection points: 2
#     Edge 48, Type (0, 0), BuildingBlock: EZIPEK_clean_linker_0, # of connection points: 2
#     Edge 49, Type (0, 0), BuildingBlock: EZIPEK_clean_linker_0, # of connection points: 2
#     Edge 50, Type (0, 0), BuildingBlock: EZIPEK_clean_linker_0, # of connection points: 2
#     Edge 51, Type (0, 0), BuildingBlock: EZIPEK_clean_linker_0, # of connection points: 2
#     Edge 52, Type (0, 0), BuildingBlock: EZIPEK_clean_linker_0, # of connection points: 2
#     Edge 53, Type (0, 0), BuildingBlock: EZIPEK_clean_linker_0, # of connection points: 2
#     Edge 54, Type (0, 0), BuildingBlock: EZIPEK_clean_linker_0, # of connection points: 2
#     Edge 55, Type (0, 0), BuildingBlock: EZIPEK_clean_linker_0, # of connection points: 2
#     Edge 56, Type (0, 0), BuildingBlock: EZIPEK_clean_linker_0, # of connection points: 2
#     Edge 57, Type (0, 0), BuildingBlock: EZIPEK_clean_linker_0, # of connection points: 2
#     Edge 58, Type (0, 0), BuildingBlock: EZIPEK_clean_linker_0, # of connection points: 2
#     Edge 59, Type (0, 0), BuildingBlock: EZIPEK_clean_linker_0, # of connection points: 2
#     Edge 60, Type (0, 0), BuildingBlock: EZIPEK_clean_linker_0, # of connection points: 2
#     Edge 61, Type (0, 0), BuildingBlock: EZIPEK_clean_linker_0, # of connection points: 2
#     Edge 62, Type (0, 0), BuildingBlock: EZIPEK_clean_linker_0, # of connection points: 2
#     Edge 63, Type (0, 0), BuildingBlock: EZIPEK_clean_linker_0, # of connection points: 2
#     Edge 64, Type (0, 0), BuildingBlock: EZIPEK_clean_linker_0, # of connection points: 2
#     Edge 65, Type (0, 0), BuildingBlock: EZIPEK_clean_linker_0, # of connection points: 2
#     Edge 66, Type (0, 0), BuildingBlock: EZIPEK_clean_linker_0, # of connection points: 2
#     Edge 67, Type (0, 0), BuildingBlock: EZIPEK_clean_linker_0, # of connection points: 2
#     Edge 68, Type (0, 0), BuildingBlock: EZIPEK_clean_linker_0, # of connection points: 2
#     Edge 69, Type (0, 0), BuildingBlock: EZIPEK_clean_linker_0, # of connection points: 2
#     Edge 70, Type (0, 0), BuildingBlock: EZIPEK_clean_linker_0, # of connection points: 2
#     Edge 71, Type (0, 0), BuildingBlock: EZIPEK_clean_linker_0, # of connection points: 2
#     Edge 72, Type (0, 0), BuildingBlock: EZIPEK_clean_linker_0, # of connection points: 2
#     Edge 73, Type (0, 0), BuildingBlock: EZIPEK_clean_linker_0, # of connection points: 2
#     Edge 74, Type (0, 0), BuildingBlock: EZIPEK_clean_linker_0, # of connection points: 2
#     Edge 75, Type (0, 0), BuildingBlock: EZIPEK_clean_linker_0, # of connection points: 2
#     Edge 76, Type (0, 0), BuildingBlock: EZIPEK_clean_linker_0, # of connection points: 2
#     Edge 77, Type (0, 0), BuildingBlock: EZIPEK_clean_linker_0, # of connection points: 2
#     Edge 78, Type (0, 0), BuildingBlock: EZIPEK_clean_linker_0, # of connection points: 2
#     Edge 79, Type (0, 0), BuildingBlock: EZIPEK_clean_linker_0, # of connection points: 2
#     Edge 80, Type (0, 0), BuildingBlock: EZIPEK_clean_linker_0, # of connection points: 2
#     Edge 81, Type (0, 0), BuildingBlock: EZIPEK_clean_linker_0, # of connection points: 2
#     Edge 82, Type (0, 0), BuildingBlock: EZIPEK_clean_linker_0, # of connection points: 2
#     Edge 83, Type (0, 0), BuildingBlock: EZIPEK_clean_linker_0, # of connection points: 2
#     Edge 84, Type (0, 0), BuildingBlock: EZIPEK_clean_linker_0, # of connection points: 2
#     Edge 85, Type (0, 0), BuildingBlock: EZIPEK_clean_linker_0, # of connection points: 2
#     Edge 86, Type (0, 0), BuildingBlock: EZIPEK_clean_linker_0, # of connection points: 2
#     Edge 87, Type (0, 0), BuildingBlock: EZIPEK_clean_linker_0, # of connection points: 2
#     Edge 88, Type (0, 0), BuildingBlock: EZIPEK_clean_linker_0, # of connection points: 2
#     Edge 89, Type (0, 0), BuildingBlock: EZIPEK_clean_linker_0, # of connection points: 2
#     Edge 90, Type (0, 0), BuildingBlock: EZIPEK_clean_linker_0, # of connection points: 2
#     Edge 91, Type (0, 0), BuildingBlock: EZIPEK_clean_linker_0, # of connection points: 2
#     Edge 92, Type (0, 0), BuildingBlock: EZIPEK_clean_linker_0, # of connection points: 2
#     Edge 93, Type (0, 0), BuildingBlock: EZIPEK_clean_linker_0, # of connection points: 2
#     Edge 94, Type (0, 0), BuildingBlock: EZIPEK_clean_linker_0, # of connection points: 2
#     Edge 95, Type (0, 0), BuildingBlock: EZIPEK_clean_linker_0, # of connection points: 2
#     Edge 96, Type (0, 0), BuildingBlock: EZIPEK_clean_linker_0, # of connection points: 2
#     Edge 97, Type (0, 0), BuildingBlock: EZIPEK_clean_linker_0, # of connection points: 2
#     Edge 98, Type (0, 0), BuildingBlock: EZIPEK_clean_linker_0, # of connection points: 2
#     Edge 99, Type (0, 0), BuildingBlock: EZIPEK_clean_linker_0, # of connection points: 2
#     Edge 100, Type (0, 0), BuildingBlock: EZIPEK_clean_linker_0, # of connection points: 2
#     Edge 101, Type (0, 0), BuildingBlock: EZIPEK_clean_linker_0, # of connection points: 2
#     Edge 102, Type (0, 0), BuildingBlock: EZIPEK_clean_linker_0, # of connection points: 2
#     Edge 103, Type (0, 0), BuildingBlock: EZIPEK_clean_linker_0, # of connection points: 2
#     Edge 104, Type (0, 0), BuildingBlock: EZIPEK_clean_linker_0, # of connection points: 2
#     Edge 105, Type (0, 0), BuildingBlock: EZIPEK_clean_linker_0, # of connection points: 2
#     Edge 106, Type (0, 0), BuildingBlock: EZIPEK_clean_linker_0, # of connection points: 2
#     Edge 107, Type (0, 0), BuildingBlock: EZIPEK_clean_linker_0, # of connection points: 2
#     Edge 108, Type (0, 0), BuildingBlock: EZIPEK_clean_linker_0, # of connection points: 2
#     Edge 109, Type (0, 0), BuildingBlock: EZIPEK_clean_linker_0, # of connection points: 2
#     Edge 110, Type (0, 0), BuildingBlock: EZIPEK_clean_linker_0, # of connection points: 2
#     Edge 111, Type (0, 0), BuildingBlock: EZIPEK_clean_linker_0, # of connection points: 2
#     Edge 112, Type (0, 0), BuildingBlock: EZIPEK_clean_linker_0, # of connection points: 2
#     Edge 113, Type (0, 0), BuildingBlock: EZIPEK_clean_linker_0, # of connection points: 2
#     Edge 114, Type (0, 0), BuildingBlock: EZIPEK_clean_linker_0, # of connection points: 2
#     Edge 115, Type (0, 0), BuildingBlock: EZIPEK_clean_linker_0, # of connection points: 2
#     Edge 116, Type (0, 0), BuildingBlock: EZIPEK_clean_linker_0, # of connection points: 2
#     Edge 117, Type (0, 0), BuildingBlock: EZIPEK_clean_linker_0, # of connection points: 2
#     Edge 118, Type (0, 0), BuildingBlock: EZIPEK_clean_linker_0, # of connection points: 2
#     Edge 119, Type (0, 0), BuildingBlock: EZIPEK_clean_linker_0, # of connection points: 2
#     Edge 120, Type (0, 0), BuildingBlock: EZIPEK_clean_linker_0, # of connection points: 2
#     Edge 121, Type (0, 0), BuildingBlock: EZIPEK_clean_linker_0, # of connection points: 2
#     Edge 122, Type (0, 0), BuildingBlock: EZIPEK_clean_linker_0, # of connection points: 2
#     Edge 123, Type (0, 0), BuildingBlock: EZIPEK_clean_linker_0, # of connection points: 2
#     Edge 124, Type (0, 0), BuildingBlock: EZIPEK_clean_linker_0, # of connection points: 2
#     Edge 125, Type (0, 0), BuildingBlock: EZIPEK_clean_linker_0, # of connection points: 2
#     Edge 126, Type (0, 0), BuildingBlock: EZIPEK_clean_linker_0, # of connection points: 2
#     Edge 127, Type (0, 0), BuildingBlock: EZIPEK_clean_linker_0, # of connection points: 2
# Relax obj value: 0.536
# Max RMSD: 0.267
# Mean RMSD: 0.257
data_MOF--net-wio--node1-JUFBIX_clean_sbu_0--edge1-EZIPEK_clean_linker_0
_symmetry_space_group_name_H-M    P1
_symmetry_Int_Tables_number       1
_symmetry_cell_setting            triclinic
loop_
_symmetry_equiv_pos_as_xyz
'x, y, z'
_cell_length_a     41.640272
_cell_length_b     39.453083
_cell_length_c     34.424124
_cell_angle_alpha  86.310533
_cell_angle_beta   88.213014
_cell_angle_gamma 90.105447
loop_
_atom_site_label
_atom_site_type_symbol
_atom_site_fract_x
_atom_site_fract_y
_atom_site_fract_z
_atom_type_partial_charge
Co0 Co 0.17664 0.0965 0.31855 0.0
C1 C 0.15791 0.15824 0.34981 0.0
Co2 Co 0.12478 0.1044 0.32482 0.0
C3 C 0.23589 0.0772 0.28194 0.0
C4 C 0.2446 0.1034 0.33288 0.0
N5 N 0.22081 0.09117 0.31231 0.0
N6 N 0.26839 0.07924 0.2827 0.0
C7 C 0.27359 0.09691 0.31447 0.0
H8 H 0.22292 0.0677 0.25815 0.0
H9 H 0.24106 0.11789 0.35828 0.0
C10 C 0.14179 0.04295 0.29801 0.0
N11 N 0.0812 0.10797 0.32682 0.0
C12 C 0.06105 0.10877 0.35797 0.0
C13 C 0.06223 0.10315 0.29641 0.0
N14 N 0.03056 0.10386 0.34797 0.0
C15 C 0.03099 0.10053 0.30944 0.0
C16 C 0.14916 0.12543 0.25044 0.0
O17 O 0.17036 0.05376 0.2994 0.0
O18 O 0.11901 0.0621 0.30653 0.0
O19 O 0.12438 0.12425 0.27264 0.0
O20 O 0.17592 0.11692 0.26507 0.0
O21 O 0.12978 0.14734 0.34443 0.0
H22 H 0.07067 0.09931 0.26699 0.0
H23 H 0.06856 0.11098 0.38753 0.0
O24 O 0.18215 0.14061 0.33979 0.0
O25 O 0.17664 0.07365 0.37078 0.0
O26 O 0.12497 0.08282 0.37698 0.0
C27 C 0.15021 0.06863 0.39033 0.0
H28 H 0.29611 0.10696 0.32322 0.0
H29 H 1.01028 0.09544 0.29244 0.0
Co30 Co 0.16294 0.91041 0.57491 0.0
C31 C 0.19478 0.88553 0.51106 0.0
Co32 Co 0.1326 0.88792 0.53272 0.0
C33 C 0.19031 0.91918 0.64684 0.0
C34 C 0.21592 0.9494 0.6022 0.0
N35 N 0.19039 0.92845 0.60862 0.0
N36 N 0.21511 0.93255 0.66447 0.0
C37 C 0.23146 0.95176 0.63676 0.0
H38 H 0.174 0.90051 0.661 0.0
H39 H 0.22405 0.96016 0.57393 0.0
C40 C 0.10198 0.90922 0.60114 0.0
N41 N 0.10329 0.86881 0.50122 0.0
C42 C 0.10769 0.86122 0.46394 0.0
C43 C 0.07415 0.85538 0.51215 0.0
N44 N 0.08284 0.84342 0.45171 0.0
C45 C 0.06157 0.83954 0.48168 0.0
C46 C 0.15361 0.83956 0.58939 0.0
O47 O 0.12938 0.91998 0.60865 0.0
O48 O 0.09794 0.89705 0.56842 0.0
O49 O 0.13827 0.8443 0.55838 0.0
O50 O 0.16625 0.86568 0.60273 0.0
O51 O 0.16737 0.87827 0.49889 0.0
H52 H 0.06317 0.85544 0.54093 0.0
H53 H 0.12926 0.86713 0.44644 0.0
O54 O 0.19744 0.89988 0.54262 0.0
O55 O 0.15933 0.95476 0.54594 0.0
O56 O 0.1282 0.93154 0.50495 0.0
C57 C 0.14366 0.95752 0.51451 0.0
H58 H 0.25442 0.96386 0.6405 0.0
H59 H 0.03943 0.8251 0.48188 0.0
Co60 Co 0.35713 0.8578 0.82894 0.0
C61 C 0.37912 0.79483 0.85851 0.0
Co62 Co 0.40947 0.85631 0.83069 0.0
C63 C 0.29852 0.87857 0.79806 0.0
C64 C 0.28942 0.84633 0.84946 0.0
N65 N 0.31336 0.86061 0.8265 0.0
N66 N 0.26655 0.87602 0.80174 0.0
C67 C 0.26025 0.85552 0.83381 0.0
H68 H 0.31081 0.892 0.77361 0.0
H69 H 0.29296 0.82951 0.87503 0.0
C70 C 0.38789 0.91778 0.80181 0.0
N71 N 0.45327 0.85466 0.83374 0.0
C72 C 0.47103 0.87679 0.85214 0.0
C73 C 0.47421 0.8311 0.82189 0.0
N74 N 0.502 0.86781 0.85293 0.0
C75 C 0.50444 0.83907 0.834 0.0
C76 C 0.38685 0.84072 0.75777 0.0
O77 O 0.36086 0.90356 0.80896 0.0
O78 O 0.41323 0.90152 0.8097 0.0
O79 O 0.41228 0.84195 0.77744 0.0
O80 O 0.35984 0.84378 0.77566 0.0
O81 O 0.40617 0.80976 0.85253 0.0
H82 H 0.46763 0.80878 0.80721 0.0
H83 H 0.46132 0.89809 0.86678 0.0
O84 O 0.35381 0.81112 0.84925 0.0
O85 O 0.35394 0.87417 0.88032 0.0
O86 O 0.40617 0.87324 0.88285 0.0
C87 C 0.37919 0.88177 0.89769 0.0
H88 H 0.23664 0.84662 0.84386 0.0
H89 H 0.52598 0.82397 0.83138 0.0
Co90 Co 0.35895 0.07234 0.06118 0.0
C91 C 0.41201 0.09499 0.09657 0.0
Co92 Co 0.35666 0.12764 0.07317 0.0
C93 C 0.35958 0.01104 1.01594 0.0
C94 C 0.36554 0.99962 0.07686 0.0
N95 N 0.36022 0.02575 0.05057 0.0
N96 N 0.36452 0.97699 0.01976 0.0
C97 C 0.36821 0.96983 0.05811 0.0
H98 H 0.35674 0.0251 0.98821 0.0
H99 H 0.36851 1.00219 0.10763 0.0
C100 C 0.30378 0.10633 0.03711 0.0
N101 N 0.35525 0.17408 0.08306 0.0
C102 C 0.36149 0.19074 0.11538 0.0
C103 C 0.34525 0.19862 0.0571 0.0
N104 N 0.35541 0.22449 0.11032 0.0
C105 C 0.34535 0.22938 0.07364 0.0
C106 C 0.38287 0.11488 0.99966 0.0
O107 O 0.31739 0.07733 0.03938 0.0
O108 O 0.31656 0.13148 0.05166 0.0
O109 O 0.37617 0.13831 0.0224 0.0
O110 O 0.37797 0.08404 1.01129 0.0
O111 O 0.39711 0.1231 0.09471 0.0
H112 H 0.33815 0.1944 0.02785 0.0
H113 H 0.37032 0.17849 0.14197 0.0
O114 O 0.40009 0.06878 0.08285 0.0
O115 O 0.33996 0.06171 0.1122 0.0
O116 O 0.33685 0.11593 0.12288 0.0
C117 C 0.33215 0.085 0.13471 0.0
H118 H 0.37344 0.94492 0.07142 0.0
H119 H 0.33892 0.2537 0.05969 0.0
Co120 Co 0.16032 0.88941 0.15464 0.0
C121 C 0.14082 0.92246 0.21973 0.0
Co122 Co 0.14379 0.85663 0.20565 0.0
C123 C 0.15588 0.92888 0.07993 0.0
C124 C 0.19545 0.9445 0.11279 0.0
N125 N 0.17246 0.92035 0.11252 0.0
N126 N 0.16703 0.95781 0.06078 0.0
C127 C 0.1922 0.9674 0.08116 0.0
H128 H 0.13452 0.91571 0.07183 0.0
H129 H 0.21194 0.94695 0.13609 0.0
C130 C 0.16401 0.82212 0.14128 0.0
N131 N 0.12991 0.82613 0.2452 0.0
C132 C 0.12691 0.83113 0.28333 0.0
C133 C 0.11469 0.79628 0.241 0.0
N134 N 0.10996 0.80607 0.30273 0.0
C135 C 0.10221 0.78392 0.27653 0.0
C136 C 0.09235 0.87546 0.15716 0.0
O137 O 0.16932 0.8511 0.12379 0.0
O138 O 0.15359 0.82047 0.17616 0.0
O139 O 0.1001 0.85765 0.18743 0.0
O140 O 0.11494 0.89097 0.13712 0.0
O141 O 0.13436 0.89315 0.23502 0.0
H142 H 0.11066 0.7855 0.21346 0.0
H143 H 0.13461 0.85398 0.29625 0.0
O144 O 0.1518 0.92642 0.18499 0.0
O145 O 0.20526 0.88788 0.17578 0.0
O146 O 0.18716 0.85625 0.22571 0.0
C147 C 0.21099 0.87228 0.20891 0.0
H148 H 0.206 0.9905 0.07494 0.0
H149 H 0.08669 0.76201 0.28223 0.0
Co150 Co 0.37426 0.89656 0.41177 0.0
C151 C 0.32519 0.88184 0.4665 0.0
Co152 Co 0.39019 0.8793 0.47286 0.0
C153 C 0.33489 0.88835 0.3399 0.0
C154 C 0.3479 0.93996 0.34596 0.0
N155 N 0.35385 0.90838 0.36142 0.0
N156 N 0.31744 0.90614 0.31217 0.0
C157 C 0.32598 0.9387 0.31647 0.0
H158 H 0.33254 0.86118 0.34578 0.0
H159 H 0.35736 0.96293 0.35687 0.0
C160 C 0.44126 0.89426 0.41543 0.0
N161 N 0.40489 0.86501 0.52359 0.0
C162 C 0.38883 0.86305 0.55883 0.0
C163 C 0.43482 0.85435 0.53215 0.0
N164 N 0.40762 0.85191 0.58865 0.0
C165 C 0.43659 0.84662 0.57171 0.0
C166 C 0.38061 0.82613 0.42668 0.0
O167 O 0.41851 0.9014 0.39185 0.0
O168 O 0.43417 0.88454 0.451 0.0
O169 O 0.38912 0.83432 0.45987 0.0
O170 O 0.3743 0.84924 0.40025 0.0
O171 O 0.34668 0.875 0.49124 0.0
H172 H 0.45438 0.85231 0.51105 0.0
H173 H 0.36391 0.87016 0.56283 0.0
O174 O 0.33301 0.8913 0.43178 0.0
O175 O 0.37467 0.94457 0.4289 0.0
O176 O 0.39015 0.92409 0.48622 0.0
C177 C 0.38226 0.94962 0.46424 0.0
H178 H 0.31622 0.96046 0.30011 0.0
H179 H 0.45768 0.83792 0.58699 0.0
Co180 Co 0.37174 0.10352 0.6718 0.0
C181 C 0.38534 0.05276 0.72778 0.0
Co182 Co 0.38914 0.12274 0.72721 0.0
C183 C 0.37475 0.07104 0.596 0.0
C184 C 0.32654 0.0774 0.61706 0.0
N185 N 0.35717 0.08527 0.62484 0.0
N186 N 0.35642 0.05405 0.57146 0.0
C187 C 0.32605 0.0583 0.58483 0.0
H188 H 0.40074 0.0711 0.59434 0.0
H189 H 0.30573 0.08335 0.63484 0.0
C190 C 0.37626 0.17423 0.67082 0.0
N191 N 0.40446 0.13897 0.77296 0.0
C192 C 0.40019 0.12483 0.8095 0.0
C193 C 0.41978 0.16862 0.77745 0.0
N194 N 0.41147 0.1447 0.83658 0.0
C195 C 0.4237 0.17242 0.81657 0.0
C196 C 0.43968 0.1111 0.67289 0.0
O197 O 0.36795 0.14996 0.65028 0.0
O198 O 0.38562 0.1674 0.7052 0.0
O199 O 0.43288 0.12046 0.70689 0.0
O200 O 0.41658 0.10281 0.65167 0.0
O201 O 0.39211 0.0773 0.74828 0.0
H202 H 0.4265 0.18705 0.75399 0.0
H203 H 0.38735 0.10125 0.8165 0.0
O204 O 0.3761 0.05857 0.69324 0.0
O205 O 0.32683 0.10446 0.69586 0.0
O206 O 0.34548 0.12526 0.74792 0.0
C207 C 0.32131 0.11483 0.73019 0.0
H208 H 0.30499 0.04703 0.57314 0.0
H209 H 0.43338 0.19444 0.82943 0.0
Co210 Co 0.13482 0.12314 0.9111 0.0
C211 C 0.1823 0.12563 0.96451 0.0
Co212 Co 0.11631 0.13273 0.97213 0.0
C213 C 0.18209 0.10632 0.84721 0.0
C214 C 0.14514 0.14006 0.8277 0.0
N215 N 0.15306 0.11944 0.85869 0.0
N216 N 0.19297 0.11887 0.81109 0.0
C217 C 0.16927 0.13997 0.79911 0.0
H218 H 0.19643 0.09015 0.8664 0.0
H219 H 0.12459 0.15681 0.82733 0.0
C220 C 0.06587 0.1301 0.91973 0.0
N221 N 0.10425 0.13789 0.02538 0.0
C222 C 0.1225 0.13049 0.05699 0.0
C223 C 0.07745 0.15189 0.04045 0.0
N224 N 0.10842 0.13949 0.09076 0.0
C225 C 0.07988 0.15277 0.08044 0.0
C226 C 0.12978 0.19213 0.92916 0.0
O227 O 0.08913 0.12554 0.89483 0.0
O228 O 0.07244 0.13273 0.95553 0.0
O229 O 0.11835 0.18055 0.9621 0.0
O230 O 0.13822 0.17171 0.9035 0.0
O231 O 0.15907 0.1327 0.98691 0.0
H232 H 0.05768 0.16159 0.02343 0.0
H233 H 0.14602 0.11896 0.05559 0.0
O234 O 0.17746 0.12094 0.92912 0.0
O235 O 0.13171 0.07446 0.9216 0.0
O236 O 0.11537 0.0848 0.9812 0.0
C237 C 0.12427 0.06355 0.95659 0.0
H238 H 0.17021 0.15607 0.7724 0.0
H239 H 0.06231 0.16299 0.10033 0.0
Co240 Co 0.89719 0.91226 0.71119 0.0
C241 C 0.8742 0.96854 0.74561 0.0
Co242 Co 0.84503 0.91369 0.72113 0.0
C243 C 0.96573 0.89575 0.70639 0.0
C244 C 0.95357 0.94661 0.68754 0.0
N245 N 0.94058 0.91695 0.70207 0.0
N246 N 0.99338 0.91112 0.69328 0.0
C247 C 0.98555 0.9431 0.68178 0.0
H248 H 0.96366 0.86979 0.71841 0.0
H249 H 0.94076 0.96962 0.68118 0.0
C250 C 0.86849 0.85621 0.68482 0.0
N251 N 0.80133 0.91277 0.73059 0.0
C252 C 0.78715 0.92142 0.76412 0.0
C253 C 0.777 0.90349 0.70848 0.0
N254 N 0.75514 0.91761 0.76426 0.0
C255 C 0.74834 0.9061 0.72948 0.0
C256 C 0.86382 0.94706 0.65003 0.0
O257 O 0.89583 0.87023 0.68756 0.0
O258 O 0.84352 0.87062 0.69837 0.0
O259 O 0.83885 0.93826 0.67064 0.0
O260 O 0.8908 0.93612 0.66148 0.0
O261 O 0.84667 0.95561 0.74335 0.0
H262 H 0.77999 0.89438 0.67962 0.0
H263 H 0.80016 0.92872 0.78901 0.0
O264 O 0.89854 0.9531 0.73367 0.0
O265 O 0.90394 0.89002 0.76166 0.0
O266 O 0.85184 0.89117 0.77265 0.0
C267 C 0.87993 0.88506 0.7852 0.0
H268 H 1.00186 0.96232 0.66869 0.0
H269 H 0.72475 0.89855 0.72081 0.0
Co270 Co 0.88364 0.12513 0.50244 0.0
C271 C 0.91703 0.09502 0.44209 0.0
Co272 Co 0.85468 0.09932 0.46081 0.0
C273 C 0.9069 0.155 0.57067 0.0
C274 C 0.93964 0.16143 0.52162 0.0
N275 N 0.91163 0.14616 0.53385 0.0
N276 N 0.93062 0.17527 0.58146 0.0
C277 C 0.95133 0.17951 0.5509 0.0
H278 H 0.8857 0.14833 0.58857 0.0
H279 H 0.95011 0.16112 0.49252 0.0
C280 C 0.82105 0.13065 0.51902 0.0
N281 N 0.82814 0.07947 0.42717 0.0
C282 C 0.82849 0.08717 0.38856 0.0
C283 C 0.80163 0.06013 0.43468 0.0
N284 N 0.80266 0.07479 0.37185 0.0
C285 C 0.78573 0.05737 0.40051 0.0
C286 C 0.86959 0.05692 0.52585 0.0
O287 O 0.84796 0.13951 0.53124 0.0
O288 O 0.81934 0.11287 0.48981 0.0
O289 O 0.8562 0.05735 0.49302 0.0
O290 O 0.88396 0.08379 0.53497 0.0
O291 O 0.88988 0.0859 0.43126 0.0
H292 H 0.79268 0.05159 0.4634 0.0
H293 H 0.84525 0.10491 0.37361 0.0
O294 O 0.9193 0.11083 0.4727 0.0
O295 O 0.88224 0.16621 0.47123 0.0
O296 O 0.85303 0.14229 0.42923 0.0
C297 C 0.86705 0.16871 0.4399 0.0
H298 H 0.97248 0.19559 0.54949 0.0
H299 H 0.76189 0.04695 0.39776 0.0
Co300 Co 0.60413 0.15455 0.20407 0.0
C301 C 0.6244 0.09277 0.23813 0.0
Co302 Co 0.65582 0.15138 0.20814 0.0
C303 C 0.54362 0.13167 0.18314 0.0
C304 C 0.53948 0.18035 0.20698 0.0
N305 N 0.56075 0.15576 0.19907 0.0
N306 N 0.51273 0.14032 0.18023 0.0
C307 C 0.50964 0.1709 0.19506 0.0
H308 H 0.55381 0.10908 0.17162 0.0
H309 H 0.54556 0.20409 0.21907 0.0
C310 C 0.63477 0.21474 0.17471 0.0
N311 N 0.69942 0.1491 0.2127 0.0
C312 C 0.71382 0.13441 0.24365 0.0
C313 C 0.7236 0.15819 0.18699 0.0
N314 N 0.74576 0.13349 0.23845 0.0
C315 C 0.75251 0.14872 0.20308 0.0
C316 C 0.63612 0.12606 0.13936 0.0
O317 O 0.60776 0.19956 0.17853 0.0
O318 O 0.65948 0.1987 0.18701 0.0
O319 O 0.66096 0.13463 0.15688 0.0
O320 O 0.60885 0.13412 0.15376 0.0
O321 O 0.65193 0.10532 0.22901 0.0
H322 H 0.72039 0.17048 0.15839 0.0
H323 H 0.70123 0.12464 0.26989 0.0
O324 O 0.59996 0.11038 0.22963 0.0
O325 O 0.59934 0.17278 0.25486 0.0
O326 O 0.6508 0.1654 0.26153 0.0
C327 C 0.62329 0.17116 0.27703 0.0
H328 H 0.48785 0.18582 0.19544 0.0
H329 H 0.77636 0.15276 0.19018 0.0
Co330 Co 0.65801 0.87724 0.96976 0.0
C331 C 0.71217 0.90058 1.00385 0.0
Co332 Co 0.65626 0.93252 0.98039 0.0
C333 C 0.65934 0.81432 0.92806 0.0
C334 C 0.66471 0.80535 0.98948 0.0
N335 N 0.66035 0.83051 0.96168 0.0
N336 N 0.66341 0.78037 0.93405 0.0
C337 C 0.66663 0.77472 0.97267 0.0
H338 H 0.65539 0.82704 0.89982 0.0
H339 H 0.66597 0.80882 0.02026 0.0
C340 C 0.60277 0.90712 0.9451 0.0
N341 N 0.65433 0.97959 0.98915 0.0
C342 C 0.65593 0.99527 0.02313 0.0
C343 C 0.64796 0.00501 0.96239 0.0
N344 N 0.65059 0.02924 0.0185 0.0
C345 C 0.64559 0.03533 0.98024 0.0
C346 C 0.68366 0.91733 0.90843 0.0
O347 O 0.61721 0.87907 0.95072 0.0
O348 O 0.61534 0.93454 0.95555 0.0
O349 O 0.67849 0.94166 0.93051 0.0
O350 O 0.67492 0.88743 0.91985 0.0
O351 O 0.69665 0.92838 1.0051 0.0
H352 H 0.64412 1.00157 0.93197 0.0
H353 H 0.6597 0.98189 0.05105 0.0
O354 O 0.69952 0.87586 0.98819 0.0
O355 O 0.64077 0.86796 0.02132 0.0
O356 O 0.63523 0.92253 0.02918 0.0
C357 C 0.63191 0.89189 0.04227 0.0
H358 H 0.66939 0.74998 0.98771 0.0
H359 H 0.63959 0.05982 0.96642 0.0
Co360 Co 0.87893 0.15856 0.82447 0.0
C361 C 0.85343 0.18716 0.89046 0.0
Co362 Co 0.86223 0.12234 0.87256 0.0
C363 C 0.89327 0.1891 0.74879 0.0
C364 C 0.90624 0.22173 0.79306 0.0
N365 N 0.8917 0.19183 0.78744 0.0
N366 N 0.90881 0.21551 0.73019 0.0
C367 C 0.91701 0.23638 0.7576 0.0
H368 H 0.88551 0.16689 0.73466 0.0
H369 H 0.91078 0.23104 0.82126 0.0
C370 C 0.88741 0.09505 0.80602 0.0
N371 N 0.85083 0.08863 0.91216 0.0
C372 C 0.86745 0.07957 0.94452 0.0
C373 C 0.82769 0.06462 0.91169 0.0
N374 N 0.8562 0.0506 0.96322 0.0
C375 C 0.83105 0.0412 0.94281 0.0
C376 C 0.81367 0.13659 0.816 0.0
O377 O 0.89287 0.12519 0.79311 0.0
O378 O 0.87497 0.08857 0.83983 0.0
O379 O 0.81866 0.12131 0.84944 0.0
O380 O 0.83631 0.15583 0.80128 0.0
O381 O 0.84939 0.15706 0.9052 0.0
H382 H 0.81042 0.06305 0.88921 0.0
H383 H 0.88866 0.09262 0.95322 0.0
O384 O 0.86487 0.19222 0.85614 0.0
O385 O 0.92188 0.15975 0.84595 0.0
O386 O 0.90605 0.12331 0.89281 0.0
C387 C 0.92885 0.14068 0.87575 0.0
H388 H 0.93179 0.25894 0.75262 0.0
H389 H 0.81714 0.01815 0.94892 0.0
Co390 Co 0.62583 0.12931 0.56203 0.0
C391 C 0.57628 0.11354 0.61935 0.0
Co392 Co 0.64405 0.11106 0.62123 0.0
C393 C 0.6254 0.14213 0.47573 0.0
C394 C 0.58463 0.16317 0.50473 0.0
N395 N 0.61119 0.14447 0.51174 0.0
N396 N 0.60875 0.15874 0.447 0.0
C397 C 0.583 0.17172 0.4653 0.0
H398 H 0.64758 0.12862 0.47064 0.0
H399 H 0.56765 0.17061 0.52698 0.0
C400 C 0.69135 0.12777 0.56612 0.0
N401 N 0.66551 0.09882 0.67065 0.0
C402 C 0.68328 0.11898 0.69342 0.0
C403 C 0.67609 0.06736 0.68108 0.0
N404 N 0.70482 0.1014 0.71655 0.0
C405 C 0.69989 0.06887 0.70806 0.0
C406 C 0.63551 0.05907 0.56949 0.0
O407 O 0.66898 0.13676 0.54345 0.0
O408 O 0.68472 0.11499 0.59994 0.0
O409 O 0.64187 0.06374 0.60515 0.0
O410 O 0.62826 0.08468 0.54712 0.0
O411 O 0.59975 0.10797 0.64252 0.0
H412 H 0.6688 0.0446 0.66794 0.0
H413 H 0.68184 0.14638 0.6914 0.0
O414 O 0.58259 0.1214 0.58313 0.0
O415 O 0.62391 0.17387 0.57749 0.0
O416 O 0.64637 0.15729 0.63203 0.0
C417 C 0.63657 0.18124 0.60883 0.0
H418 H 0.56427 0.18637 0.45106 0.0
H419 H 0.71357 0.04735 0.71949 0.0
Co420 Co 0.62914 0.88782 0.31026 0.0
C421 C 0.64542 0.83521 0.36515 0.0
Co422 Co 0.6469 0.90449 0.36587 0.0
C423 C 0.61938 0.8828 0.22915 0.0
C424 C 0.59151 0.84596 0.26397 0.0
N425 N 0.61307 0.87138 0.26619 0.0
N426 N 0.60255 0.86568 0.20406 0.0
C427 C 0.58508 0.84227 0.22549 0.0
H428 H 0.63643 0.90288 0.2206 0.0
H429 H 0.58136 0.8309 0.28872 0.0
C430 C 0.63072 0.95677 0.31084 0.0
N431 N 0.6616 0.92268 0.41206 0.0
C432 C 0.64379 0.93711 0.44038 0.0
C433 C 0.69219 0.93053 0.42001 0.0
N434 N 0.66189 0.95446 0.46458 0.0
C435 C 0.6924 0.95013 0.45176 0.0
C436 C 0.69694 0.89643 0.30605 0.0
O437 O 0.62351 0.93277 0.28986 0.0
O438 O 0.64102 0.94983 0.34478 0.0
O439 O 0.69172 0.90394 0.34154 0.0
O440 O 0.67236 0.88855 0.28735 0.0
O441 O 0.6525 0.85893 0.38683 0.0
H442 H 0.71314 0.92403 0.40282 0.0
H443 H 0.61781 0.93692 0.44195 0.0
O444 O 0.63511 0.8425 0.33128 0.0
O445 O 0.5859 0.88774 0.33175 0.0
O446 O 0.60199 0.90392 0.38731 0.0
C447 C 0.57888 0.89567 0.3661 0.0
H448 H 0.56963 0.82346 0.21402 0.0
H449 H 0.71334 0.96149 0.46363 0.0
Co450 Co 0.90345 0.87762 0.06426 0.0
C451 C 0.95374 0.88446 0.11705 0.0
Co452 Co 0.88466 0.89125 0.12384 0.0
C453 C 0.89938 0.87143 0.97996 0.0
C454 C 0.94589 0.85696 0.99935 0.0
N455 N 0.91687 0.86713 1.01273 0.0
N456 N 0.91618 0.86457 0.94708 0.0
C457 C 0.94557 0.85553 0.95925 0.0
H458 H 0.875 0.88081 0.97961 0.0
H459 H 0.96638 0.85183 1.0173 0.0
C460 C 0.83752 0.88453 0.07023 0.0
N461 N 0.86446 0.90267 0.1733 0.0
C462 C 0.83818 0.88735 0.19229 0.0
C463 C 0.86557 0.93324 0.18858 0.0
N464 N 0.82249 0.90745 0.21781 0.0
C465 C 0.84015 0.93633 0.21503 0.0
C466 C 0.89756 0.94734 0.07025 0.0
O467 O 0.86083 0.87659 0.04836 0.0
O468 O 0.84241 0.8914 0.10495 0.0
O469 O 0.88856 0.93909 0.1055 0.0
O470 O 0.90543 0.92385 0.04825 0.0
O471 O 0.93031 0.8904 0.14137 0.0
H472 H 0.88229 0.95327 0.17897 0.0
H473 H 0.82937 0.86267 0.18544 0.0
O474 O 0.94685 0.87957 0.08183 0.0
O475 O 0.90067 0.83058 0.08164 0.0
O476 O 0.8809 0.844 0.13904 0.0
C477 C 0.88943 0.82159 0.11572 0.0
H478 H 0.96561 0.84907 0.94038 0.0
H479 H 0.83429 0.95898 0.22992 0.0
Co480 Co 0.68631 0.60516 0.80775 0.0
C481 C 0.66125 0.66275 0.84198 0.0
Co482 Co 0.63385 0.60583 0.81283 0.0
C483 C 0.74439 0.59252 0.76736 0.0
C484 C 0.7558 0.61258 0.82115 0.0
N485 N 0.73081 0.60402 0.80003 0.0
N486 N 0.77684 0.59129 0.76732 0.0
C487 C 0.784 0.60567 0.8008 0.0
H488 H 0.73027 0.58658 0.74309 0.0
H489 H 0.75371 0.62389 0.84891 0.0
C490 C 0.65657 0.54904 0.78137 0.0
N491 N 0.5902 0.60383 0.81574 0.0
C492 C 0.57111 0.60081 0.84784 0.0
C493 C 0.57113 0.59676 0.7861 0.0
N494 N 0.54129 0.59154 0.83932 0.0
C495 C 0.54078 0.58929 0.80066 0.0
C496 C 0.65625 0.63444 0.74112 0.0
O497 O 0.68393 0.5624 0.78449 0.0
O498 O 0.63197 0.56443 0.79231 0.0
O499 O 0.63115 0.62764 0.76184 0.0
O500 O 0.68339 0.62873 0.7562 0.0
O501 O 0.63482 0.64875 0.83431 0.0
H502 H 0.57912 0.59541 0.75606 0.0
H503 H 0.57891 0.60447 0.87698 0.0
O504 O 0.6876 0.64822 0.83248 0.0
O505 O 0.68881 0.58048 0.85849 0.0
O506 O 0.63661 0.5821 0.86419 0.0
C507 C 0.66323 0.57184 0.8781 0.0
H508 H 0.80759 0.61263 0.80975 0.0
H509 H 0.51998 0.58292 0.78445 0.0
Co510 Co 0.64811 0.42009 0.07043 0.0
C511 C 0.69608 0.39183 0.02654 0.0
Co512 Co 0.63188 0.39175 0.02195 0.0
C513 C 0.66703 0.4324 0.14782 0.0
C514 C 0.68577 0.47007 0.10568 0.0
N515 N 0.6645 0.44409 0.11032 0.0
N516 N 0.69041 0.44837 0.16575 0.0
C517 C 0.70186 0.47259 0.13968 0.0
H518 H 0.65554 0.40948 0.16037 0.0
H519 H 0.69241 0.48331 0.07814 0.0
C520 C 0.58339 0.41969 0.06574 0.0
N521 N 0.61661 0.36779 0.98326 0.0
C522 C 0.62385 0.3355 0.97607 0.0
C523 C 0.59661 0.37871 0.95517 0.0
N524 N 0.60978 0.32612 0.94394 0.0
C525 C 0.5925 0.35309 0.93075 0.0
C526 C 0.63741 0.35042 0.09186 0.0
O527 O 0.60611 0.43142 0.08477 0.0
O528 O 0.58994 0.40171 0.03748 0.0
O529 O 0.63053 0.35042 0.0562 0.0
O530 O 0.64513 0.37857 0.10509 0.0
O531 O 0.67362 0.382 1.00608 0.0
H532 H 0.58627 0.40384 0.95225 0.0
H533 H 0.63938 0.3194 0.99378 0.0
O534 O 0.68985 0.40828 0.05623 0.0
O535 O 0.65141 0.46089 0.03463 0.0
O536 O 0.63384 0.43242 0.98721 0.0
C537 C 0.6444 0.46014 0.99886 0.0
H538 H 0.72306 0.48787 0.14328 0.0
H539 H 0.57869 0.3544 0.90455 0.0
Co540 Co 0.85216 0.36626 0.32284 0.0
C541 C 0.86957 0.30386 0.35802 0.0
Co542 Co 0.90396 0.36181 0.32938 0.0
C543 C 0.79544 0.38715 0.28434 0.0
C544 C 0.78383 0.36222 0.34007 0.0
N545 N 0.8088 0.37133 0.3156 0.0
N546 N 0.76329 0.38851 0.28834 0.0
C547 C 0.75558 0.37266 0.32315 0.0
H548 H 0.80895 0.3975 0.25892 0.0
H549 H 0.78606 0.34909 0.36841 0.0
C550 C 0.88752 0.42266 0.29516 0.0
N551 N 0.94684 0.35645 0.3365 0.0
C552 C 0.96628 0.37668 0.35525 0.0
C553 C 0.96516 0.32981 0.32704 0.0
N554 N 0.99578 0.3634 0.35829 0.0
C555 C 0.99549 0.33404 0.34059 0.0
C556 C 0.8858 0.34404 0.25618 0.0
O557 O 0.85946 0.41019 0.29959 0.0
O558 O 0.91133 0.40556 0.3071 0.0
O559 O 0.90941 0.34498 0.27856 0.0
O560 O 0.85772 0.34899 0.27076 0.0
O561 O 0.89709 0.31722 0.35166 0.0
H562 H 0.95664 0.30814 0.31257 0.0
H563 H 0.9587 0.3999 0.3679 0.0
O564 O 0.84514 0.32106 0.34736 0.0
O565 O 0.847 0.38598 0.37266 0.0
O566 O 0.89876 0.38105 0.38002 0.0
C567 C 0.87167 0.39195 0.39203 0.0
H568 H 0.73142 0.36893 0.33521 0.0
H569 H 0.01538 0.3165 0.339 0.0
Co570 Co 0.87449 0.58683 0.55069 0.0
C571 C 0.92536 0.61681 0.5859 0.0
Co572 Co 0.86783 0.64138 0.56092 0.0
C573 C 0.86692 0.52223 0.51237 0.0
C574 C 0.90089 0.51828 0.55764 0.0
N575 N 0.87948 0.53994 0.54105 0.0
N576 N 0.88017 0.49088 0.50998 0.0
C577 C 0.90159 0.48858 0.53855 0.0
H578 H 0.84968 0.53278 0.49208 0.0
H579 H 0.91626 0.52409 0.58107 0.0
C580 C 0.81653 0.6153 0.52674 0.0
N581 N 0.86374 0.68817 0.56803 0.0
C582 C 0.86206 0.70475 0.60137 0.0
C583 C 0.86472 0.71334 0.53938 0.0
N584 N 0.86244 0.73887 0.59428 0.0
C585 C 0.86398 0.74428 0.55537 0.0
C586 C 0.89517 0.6283 0.48799 0.0
O587 O 0.83434 0.58909 0.5245 0.0
O588 O 0.82614 0.63993 0.54507 0.0
O589 O 0.88283 0.65116 0.50805 0.0
O590 O 0.89613 0.59796 0.50237 0.0
O591 O 0.90948 0.64329 0.57707 0.0
H592 H 0.86662 0.70988 0.50855 0.0
H593 H 0.86129 0.69226 0.63029 0.0
O594 O 0.91456 0.58789 0.57759 0.0
O595 O 0.8525 0.57563 0.59951 0.0
O596 O 0.85256 0.62953 0.61308 0.0
C597 C 0.84624 0.59851 0.62316 0.0
H598 H 0.91744 0.46726 0.54441 0.0
H599 H 0.86492 0.76898 0.53971 0.0
Co600 Co 0.65187 0.38381 0.66269 0.0
C601 C 0.63095 0.42 0.72654 0.0
Co602 Co 0.63217 0.35475 0.71501 0.0
C603 C 0.64955 0.43579 0.59842 0.0
C604 C 0.69381 0.40833 0.59856 0.0
N605 N 0.66615 0.41179 0.6194 0.0
N606 N 0.66561 0.447 0.56527 0.0
C607 C 0.69366 0.43011 0.56557 0.0
H608 H 0.62625 0.44516 0.60735 0.0
H609 H 0.71269 0.39066 0.60654 0.0
C610 C 0.65444 0.31761 0.65241 0.0
N611 N 0.61631 0.32335 0.75304 0.0
C612 C 0.62093 0.31999 0.79151 0.0
C613 C 0.60068 0.29454 0.74513 0.0
N614 N 0.60915 0.29016 0.80754 0.0
C615 C 0.59703 0.27373 0.77837 0.0
C616 C 0.58424 0.37194 0.6614 0.0
O617 O 0.66222 0.34542 0.63434 0.0
O618 O 0.6423 0.31801 0.68629 0.0
O619 O 0.58976 0.35676 0.6941 0.0
O620 O 0.60815 0.38487 0.64147 0.0
O621 O 0.62246 0.39177 0.74371 0.0
H622 H 0.59374 0.28817 0.71646 0.0
H623 H 0.63373 0.3384 0.80728 0.0
O624 O 0.64207 0.42163 0.69153 0.0
O625 O 0.69528 0.38297 0.68631 0.0
O626 O 0.67492 0.35413 0.73764 0.0
C627 C 0.69906 0.37001 0.72117 0.0
H628 H 0.71298 0.43395 0.54393 0.0
H629 H 0.58702 0.24831 0.7808 0.0
Co630 Co 0.87018 0.3914 0.91595 0.0
C631 C 0.82605 0.3786 0.97734 0.0
Co632 Co 0.89041 0.37434 0.97466 0.0
C633 C 0.82875 0.38444 0.84504 0.0
C634 C 0.83638 0.43586 0.858 0.0
N635 N 0.84668 0.40419 0.86807 0.0
N636 N 0.80759 0.4025 0.8219 0.0
C637 C 0.8128 0.43489 0.83062 0.0
H638 H 0.82993 0.35701 0.84659 0.0
H639 H 0.8439 0.45843 0.87144 0.0
C640 C 0.93759 0.3872 0.91306 0.0
N641 N 0.90701 0.35892 0.02324 0.0
C642 C 0.89523 0.36525 0.05937 0.0
C643 C 0.92868 0.33395 0.02984 0.0
N644 N 0.90823 0.34484 0.08783 0.0
C645 C 0.92949 0.32532 0.06936 0.0
C646 C 0.87414 0.32128 0.92988 0.0
O647 O 0.91334 0.39409 0.89154 0.0
O648 O 0.93245 0.37829 0.94927 0.0
O649 O 0.88601 0.3291 0.96163 0.0
O650 O 0.86718 0.34478 0.90443 0.0
O651 O 0.84988 0.37119 0.99783 0.0
H652 H 0.94206 0.32176 1.00726 0.0
H653 H 0.87656 0.38361 0.06465 0.0
O654 O 0.82973 0.3881 0.94161 0.0
O655 O 0.87392 0.43891 0.93184 0.0
O656 O 0.89301 0.41943 0.98787 0.0
C657 C 0.88381 0.44453 0.96597 0.0
H658 H 0.79957 0.45663 0.81889 0.0
H659 H 0.9443 0.30596 0.08347 0.0
Co660 Co 0.88302 0.60829 0.16272 0.0
C661 C 0.89615 0.55686 0.21965 0.0
Co662 Co 0.90023 0.6252 0.21874 0.0
C663 C 0.88393 0.57251 0.08951 0.0
C664 C 0.83628 0.58356 0.10942 0.0
N665 N 0.86734 0.58954 0.11691 0.0
N666 N 0.86452 0.55528 0.06644 0.0
C667 C 0.83452 0.56244 0.07918 0.0
H668 H 0.90986 0.57099 0.08788 0.0
H669 H 0.81591 0.59247 0.12597 0.0
C670 C 0.88722 0.67774 0.16266 0.0
N671 N 0.91683 0.64154 0.26292 0.0
C672 C 0.90958 0.63128 0.30019 0.0
C673 C 0.93868 0.66669 0.26492 0.0
N674 N 0.92585 0.64911 0.3253 0.0
C675 C 0.94407 0.67163 0.30345 0.0
C676 C 0.95075 0.61343 0.16283 0.0
O677 O 0.87889 0.65422 0.14116 0.0
O678 O 0.89679 0.67009 0.19677 0.0
O679 O 0.94405 0.62208 0.19716 0.0
O680 O 0.92743 0.60678 0.14123 0.0
O681 O 0.90291 0.58107 0.24036 0.0
H682 H 0.94948 0.68097 0.23998 0.0
H683 H 0.89189 0.61188 0.30889 0.0
O684 O 0.88796 0.5634 0.18472 0.0
O685 O 0.83811 0.61026 0.18728 0.0
O686 O 0.85673 0.62713 0.24114 0.0
C687 C 0.83236 0.61852 0.22241 0.0
H688 H 0.81271 0.55208 0.06826 0.0
H689 H 0.95929 0.69079 0.31461 0.0
Co690 Co 0.64572 0.62085 0.40555 0.0
C691 C 0.69522 0.63338 0.45341 0.0
Co692 Co 0.62951 0.63774 0.46482 0.0
C693 C 0.68989 0.62386 0.33535 0.0
C694 C 0.66687 0.57554 0.34452 0.0
N695 N 0.6651 0.60744 0.35633 0.0
N696 N 0.70734 0.60338 0.31191 0.0
C697 C 0.69234 0.573 0.31792 0.0
H698 H 0.69673 0.64979 0.33965 0.0
H699 H 0.6525 0.55449 0.35704 0.0
C700 C 0.57697 0.6251 0.41666 0.0
N701 N 0.61703 0.65075 0.51565 0.0
C702 C 0.63621 0.65868 0.54517 0.0
C703 C 0.58821 0.64402 0.53364 0.0
N704 N 0.62085 0.65561 0.58061 0.0
C705 C 0.59053 0.64683 0.57317 0.0
C706 C 0.63923 0.69125 0.40883 0.0
O707 O 0.59921 0.61757 0.39144 0.0
O708 O 0.58564 0.63284 0.45025 0.0
O709 O 0.6301 0.68352 0.44402 0.0
O710 O 0.64633 0.66777 0.38616 0.0
O711 O 0.6732 0.64169 0.47722 0.0
H712 H 0.56743 0.63447 0.51972 0.0
H713 H 0.66181 0.66309 0.54162 0.0
O714 O 0.68812 0.62481 0.42017 0.0
O715 O 0.64581 0.57331 0.42943 0.0
O716 O 0.62971 0.59247 0.48534 0.0
C717 C 0.63925 0.56786 0.46611 0.0
H718 H 0.70029 0.54984 0.30542 0.0
H719 H 0.57199 0.64032 0.59516 0.0
Co720 Co 0.39749 0.40428 0.21736 0.0
C721 C 0.37824 0.46549 0.23833 0.0
Co722 Co 0.34535 0.40703 0.22222 0.0
C723 C 0.45595 0.39797 0.17652 0.0
C724 C 0.46384 0.40762 0.23597 0.0
N725 N 0.44065 0.40136 0.21077 0.0
N726 N 0.48756 0.40282 0.17887 0.0
C727 C 0.49306 0.40862 0.21615 0.0
H728 H 0.44406 0.39454 0.14958 0.0
H729 H 0.45953 0.41361 0.26591 0.0
C730 C 0.36558 0.34595 0.1946 0.0
N731 N 0.30147 0.41127 0.2317 0.0
C732 C 0.28881 0.42309 0.26476 0.0
C733 C 0.27612 0.39929 0.21324 0.0
N734 N 0.25687 0.41814 0.26844 0.0
C735 C 0.24858 0.40325 0.23605 0.0
C736 C 0.36764 0.43582 0.15019 0.0
O737 O 0.39271 0.35992 0.1988 0.0
O738 O 0.34021 0.3618 0.20443 0.0
O739 O 0.34194 0.42689 0.16931 0.0
O740 O 0.39408 0.42617 0.16493 0.0
O741 O 0.35091 0.4514 0.23778 0.0
H742 H 0.27785 0.38627 0.18655 0.0
H743 H 0.30316 0.43226 0.28764 0.0
O744 O 0.4029 0.44739 0.23453 0.0
O745 O 0.40125 0.38519 0.26952 0.0
O746 O 0.34921 0.38882 0.2765 0.0
C747 C 0.37627 0.38211 0.29139 0.0
H748 H 0.51599 0.41575 0.22724 0.0
H749 H 0.2249 0.39349 0.23083 0.0
Co750 Co 0.39873 0.61803 1.00512 0.0
C751 C 0.43531 0.58836 0.94721 0.0
Co752 Co 0.37168 0.59033 0.96368 0.0
C753 C 0.41954 0.6494 0.07327 0.0
C754 C 0.45228 0.6578 0.02453 0.0
N755 N 0.42481 0.64121 0.03639 0.0
N756 N 0.44239 0.67053 0.08435 0.0
C757 C 0.46308 0.67605 0.05403 0.0
H758 H 0.39885 0.64117 0.09122 0.0
H759 H 0.46332 0.6578 0.99581 0.0
C760 C 0.33473 0.62342 1.01772 0.0
N761 N 0.34696 0.56858 0.92947 0.0
C762 C 0.34947 0.57475 0.89058 0.0
C763 C 0.31833 0.55287 0.93621 0.0
N764 N 0.32273 0.56573 0.87293 0.0
C765 C 0.30319 0.55138 0.90131 0.0
C766 C 0.38567 0.54975 0.03131 0.0
O767 O 0.36115 0.6335 0.03038 0.0
O768 O 0.33497 0.60291 0.99087 0.0
O769 O 0.37377 0.54912 0.99761 0.0
O770 O 0.39888 0.57724 0.04069 0.0
O771 O 0.40863 0.57849 0.93549 0.0
H772 H 0.30756 0.54679 0.96482 0.0
H773 H 0.36825 0.59039 0.87616 0.0
O774 O 0.43628 0.60341 0.97852 0.0
O775 O 0.39723 0.65848 0.97139 0.0
O776 O 0.36867 0.63238 0.93051 0.0
C777 C 0.38181 0.65959 0.94017 0.0
H778 H 0.48379 0.69274 0.05315 0.0
H779 H 0.27839 0.54423 0.89772 0.0
Co780 Co 0.12677 0.64454 0.70461 0.0
C781 C 0.14895 0.58399 0.73551 0.0
Co782 Co 0.17875 0.64413 0.70898 0.0
C783 C 0.06501 0.64525 0.67008 0.0
C784 C 0.06255 0.63344 0.73176 0.0
N785 N 0.08292 0.6439 0.70204 0.0
N786 N 0.03469 0.63506 0.67875 0.0
C787 C 0.03276 0.62804 0.71745 0.0
H788 H 0.07425 0.65173 0.64085 0.0
H789 H 0.06943 0.62766 0.76148 0.0
C790 C 0.15598 0.70577 0.6764 0.0
N791 N 0.2225 0.64219 0.71288 0.0
C792 C 0.237 0.62819 0.74425 0.0
C793 C 0.24645 0.64908 0.68611 0.0
N794 N 0.26878 0.62556 0.73818 0.0
C795 C 0.2753 0.6388 0.70181 0.0
C796 C 0.15823 0.61984 0.63868 0.0
O797 O 0.12915 0.69016 0.68141 0.0
O798 O 0.18146 0.69052 0.68726 0.0
O799 O 0.18272 0.62777 0.65732 0.0
O800 O 0.1308 0.62603 0.65391 0.0
O801 O 0.17615 0.59814 0.72996 0.0
H802 H 0.24303 0.65977 0.65681 0.0
H803 H 0.22439 0.61902 0.77087 0.0
O804 O 0.12399 0.60032 0.72669 0.0
O805 O 0.12296 0.66111 0.75603 0.0
O806 O 0.17444 0.65921 0.76197 0.0
C807 C 0.14689 0.66457 0.77749 0.0
H808 H 1.0116 0.61856 0.73377 0.0
H809 H 0.2989 0.64044 0.68773 0.0
Co810 Co 0.15896 0.37141 0.47473 0.0
C811 C 0.20774 0.40084 0.51255 0.0
Co812 Co 0.15241 0.42672 0.48194 0.0
C813 C 0.16056 0.30803 0.43492 0.0
C814 C 0.18166 0.30351 0.49098 0.0
N815 N 0.16687 0.32586 0.46618 0.0
N816 N 0.17104 0.27564 0.43939 0.0
C817 C 0.18424 0.27271 0.47462 0.0
H818 H 0.14828 0.31842 0.4096 0.0
H819 H 0.18991 0.30921 0.51933 0.0
C820 C 0.10357 0.39596 0.44412 0.0
N821 N 0.1434 0.4721 0.49322 0.0
C822 C 0.16203 0.49639 0.50772 0.0
C823 C 0.11303 0.4823 0.50084 0.0
N824 N 0.14427 0.52039 0.52519 0.0
C825 C 0.11352 0.51142 0.52042 0.0
C826 C 0.18486 0.41517 0.41368 0.0
O827 O 0.11908 0.36892 0.45199 0.0
O828 O 0.11408 0.42441 0.45363 0.0
O829 O 0.17611 0.4395 0.43439 0.0
O830 O 0.17826 0.38463 0.42564 0.0
O831 O 0.19093 0.42766 0.50961 0.0
H832 H 0.09166 0.46773 0.49607 0.0
H833 H 0.18798 0.49508 0.50822 0.0
O834 O 0.19865 0.37415 0.4976 0.0
O835 O 0.14021 0.3591 0.52457 0.0
O836 O 0.12957 0.41305 0.52921 0.0
C837 C 0.12919 0.38287 0.54428 0.0
H838 H 0.19434 0.24964 0.48784 0.0
H839 H 0.09273 0.52411 0.53231 0.0
Co840 Co 0.38713 0.6528 0.33007 0.0
C841 C 0.3682 0.68722 0.39535 0.0
Co842 Co 0.36996 0.62053 0.3809 0.0
C843 C 0.40361 0.68049 0.25315 0.0
C844 C 0.41753 0.71318 0.29692 0.0
N845 N 0.40203 0.68367 0.29167 0.0
N846 N 0.41969 0.7065 0.23444 0.0
C847 C 0.42847 0.72736 0.26151 0.0
H848 H 0.39509 0.65848 0.23921 0.0
H849 H 0.42239 0.72278 0.32489 0.0
C850 C 0.38749 0.58701 0.31487 0.0
N851 N 0.35614 0.58977 0.42187 0.0
C852 C 0.37157 0.58027 0.45495 0.0
C853 C 0.33205 0.56695 0.42058 0.0
N854 N 0.35856 0.552 0.47349 0.0
C855 C 0.33347 0.54382 0.45219 0.0
C856 C 0.31995 0.64017 0.32654 0.0
O857 O 0.39515 0.61611 0.29959 0.0
O858 O 0.37732 0.58357 0.34999 0.0
O859 O 0.32524 0.62446 0.35969 0.0
O860 O 0.34419 0.65519 0.30963 0.0
O861 O 0.36228 0.65828 0.41248 0.0
H862 H 0.31589 0.56563 0.39674 0.0
H863 H 0.39327 0.59225 0.46394 0.0
O864 O 0.37839 0.68918 0.36044 0.0
O865 O 0.43061 0.64967 0.34857 0.0
O866 O 0.41493 0.6168 0.39893 0.0
C867 C 0.43787 0.63169 0.37894 0.0
H868 H 0.44363 0.7496 0.25625 0.0
H869 H 0.31843 0.52152 0.45793 0.0
Co870 Co 0.13964 0.62984 0.06315 0.0
C871 C 0.08954 0.61257 0.11902 0.0
Co872 Co 0.15794 0.61385 0.12335 0.0
C873 C 0.13788 0.63641 0.97614 0.0
C874 C 0.10203 0.66585 1.00411 0.0
N875 N 0.12528 0.64291 1.012 0.0
N876 N 0.12399 0.65512 0.9466 0.0
C877 C 0.10137 0.67352 0.96448 0.0
H878 H 0.15748 0.61908 0.97168 0.0
H879 H 0.08708 0.6772 0.02592 0.0
C880 C 0.20506 0.63275 0.06766 0.0
N881 N 0.17791 0.60361 0.17422 0.0
C882 C 0.19846 0.62329 0.19401 0.0
C883 C 0.17993 0.57293 0.1937 0.0
N884 N 0.21305 0.60618 0.22469 0.0
C885 C 0.20116 0.57435 0.2239 0.0
C886 C 0.15417 0.56008 0.07339 0.0
O887 O 0.18176 0.63892 0.04551 0.0
O888 O 0.19974 0.62098 0.10244 0.0
O889 O 0.16054 0.56651 0.1085 0.0
O890 O 0.14414 0.58383 0.04997 0.0
O891 O 0.11267 0.60736 0.14288 0.0
H892 H 0.16792 0.55028 0.18541 0.0
H893 H 0.2039 0.64947 0.18494 0.0
O894 O 0.09647 0.62105 0.08315 0.0
O895 O 0.13663 0.67544 0.07712 0.0
O896 O 0.15557 0.66057 0.13412 0.0
C897 C 0.1453 0.68383 0.11028 0.0
H898 H 0.0857 0.69175 0.94985 0.0
H899 H 0.20801 0.5531 0.24333 0.0
Co900 Co 0.1278 0.38082 0.81381 0.0
C901 C 0.13788 0.33536 0.88019 0.0
Co902 Co 0.14206 0.40375 0.86854 0.0
C903 C 0.10938 0.36918 0.7354 0.0
C904 C 0.12895 0.32452 0.76393 0.0
N905 N 0.11984 0.35666 0.77017 0.0
N906 N 0.11285 0.34679 0.70762 0.0
C907 C 0.12485 0.3185 0.72546 0.0
H908 H 0.10271 0.3954 0.72914 0.0
H909 H 0.14062 0.30748 0.78487 0.0
C910 C 0.13209 0.44801 0.80166 0.0
N911 N 0.14705 0.4318 0.91238 0.0
C912 C 0.16325 0.43435 0.94615 0.0
C913 C 0.12693 0.45881 0.91247 0.0
N914 N 0.15361 0.4619 0.96581 0.0
C915 C 0.13093 0.47691 0.94423 0.0
C916 C 0.19623 0.39109 0.82001 0.0
O917 O 0.12347 0.42226 0.78459 0.0
O918 O 0.14066 0.44468 0.83659 0.0
O919 O 0.18901 0.40102 0.85425 0.0
O920 O 0.17303 0.3816 0.79983 0.0
O921 O 0.14346 0.36132 0.89949 0.0
H922 H 0.10932 0.46508 0.89089 0.0
H923 H 0.18118 0.41637 0.95636 0.0
O924 O 0.13242 0.33955 0.84408 0.0
O925 O 0.08257 0.38077 0.82723 0.0
O926 O 0.09539 0.40516 0.87988 0.0
C927 C 0.07379 0.39362 0.85877 0.0
H928 H 0.13321 0.29652 0.71087 0.0
H929 H 0.11768 0.49939 0.95146 0.0
Co930 Co 0.39565 0.37458 0.57231 0.0
C931 C 0.44684 0.37954 0.62359 0.0
Co932 Co 0.37912 0.38811 0.63288 0.0
C933 C 0.39182 0.37368 0.48745 0.0
C934 C 0.43316 0.34675 0.50787 0.0
N935 N 0.40772 0.36461 0.5205 0.0
N936 N 0.40622 0.36223 0.45498 0.0
C937 C 0.43237 0.34538 0.4678 0.0
H938 H 0.37007 0.38865 0.48697 0.0
H939 H 0.45111 0.33532 0.52657 0.0
C940 C 0.33058 0.38418 0.58041 0.0
N941 N 0.36054 0.39922 0.68329 0.0
C942 C 0.33547 0.38341 0.70417 0.0
C943 C 0.36124 0.43027 0.69753 0.0
N944 N 0.32011 0.40365 0.72984 0.0
C945 C 0.33671 0.43314 0.72513 0.0
C946 C 0.39149 0.44433 0.58061 0.0
O947 O 0.35281 0.37519 0.55751 0.0
O948 O 0.33669 0.39024 0.61509 0.0
O949 O 0.38415 0.43572 0.61616 0.0
O950 O 0.39869 0.42134 0.5576 0.0
O951 O 0.42445 0.38601 0.6489 0.0
H952 H 0.3768 0.45083 0.68631 0.0
H953 H 0.32712 0.35825 0.69855 0.0
O954 O 0.43929 0.37448 0.58866 0.0
O955 O 0.39178 0.32758 0.58811 0.0
O956 O 0.37431 0.34034 0.64671 0.0
C957 C 0.38144 0.31818 0.62238 0.0
H958 H 0.44962 0.33284 0.44947 0.0
H959 H 0.33056 0.45607 0.73933 0.0
C960 C 0.32123 0.08595 0.24557 0.0
C961 C 0.29069 0.07052 0.25115 0.0
C962 C 0.29417 0.05286 0.18399 0.0
C963 C 0.31993 0.07649 0.17564 0.0
N964 N 0.36013 0.1134 0.20077 0.0
N965 N 0.26135 0.02172 0.23403 0.0
C966 C 0.3341 0.09242 0.2071 0.0
C967 C 0.28095 0.04857 0.22274 0.0
N968 N 0.34017 0.08899 0.27672 0.0
N969 N 0.28102 0.03583 0.15501 0.0
H970 H 0.25435 0.0165 0.26321 0.0
H971 H 0.25552 1.00256 0.21601 0.0
H972 H 0.29064 0.03606 0.12682 0.0
H973 H 0.25943 0.02245 0.15854 0.0
H974 H 0.36377 0.09792 0.2743 0.0
H975 H 0.33437 0.0764 0.30361 0.0
H976 H 0.36831 0.12885 0.22188 0.0
H977 H 0.37302 0.11626 0.17437 0.0
C978 C 0.12069 0.02039 0.43072 0.0
C979 C 0.14778 0.04269 0.42514 0.0
C980 C 0.17363 0.00867 0.47848 0.0
C981 C 0.14476 0.9895 0.48711 0.0
N982 N 0.08764 0.98673 0.47765 0.0
N983 N 0.19674 0.06224 0.45224 0.0
C984 C 0.11731 0.99858 0.46532 0.0
C985 C 0.17319 0.03818 0.45174 0.0
N986 N 0.09925 0.01744 0.40189 0.0
N987 N 0.20212 0.99784 0.49333 0.0
H988 H 0.19649 0.08479 0.4347 0.0
H989 H 0.21428 0.06154 0.47324 0.0
H990 H 0.20457 0.97533 0.51034 0.0
H991 H 0.22407 0.00916 0.48473 0.0
H992 H 0.08099 0.99923 0.40381 0.0
H993 H 0.1021 0.02941 0.3742 0.0
H994 H 0.06664 0.99482 0.4642 0.0
H995 H 0.08376 0.97237 0.50391 0.0
C996 C 0.24948 0.86917 0.73624 0.0
C997 C 0.24604 0.88637 0.77077 0.0
C998 C 0.21953 0.93355 0.73542 0.0
C999 C 0.22711 0.91825 0.70029 0.0
N1000 N 0.25341 0.87423 0.66601 0.0
N1001 N 0.22968 0.9351 0.80442 0.0
C1002 C 0.24311 0.88667 0.70034 0.0
C1003 C 0.23113 0.91851 0.77084 0.0
N1004 N 0.25969 0.83625 0.73819 0.0
N1005 N 0.20129 0.96227 0.73458 0.0
H1006 H 0.23736 0.92382 0.83078 0.0
H1007 H 0.22222 0.96017 0.80583 0.0
H1008 H 0.19347 0.97407 0.70857 0.0
H1009 H 0.1925 0.97319 0.75951 0.0
H1010 H 0.26058 0.82124 0.71439 0.0
H1011 H 0.26448 0.82309 0.76464 0.0
H1012 H 0.26862 0.85342 0.66442 0.0
H1013 H 0.24897 0.88638 0.63893 0.0
C1014 C 0.39652 0.93512 0.93045 0.0
C1015 C 0.37702 0.90517 0.93094 0.0
C1016 C 0.34666 0.92568 0.98769 0.0
C1017 C 0.36836 0.95323 0.98937 0.0
N1018 N 0.41854 0.97924 0.96782 0.0
N1019 N 0.33721 0.86945 0.96575 0.0
C1020 C 0.39469 0.95639 0.96242 0.0
C1021 C 0.35306 0.8998 0.96123 0.0
N1022 N 0.41514 0.94502 0.89837 0.0
N1023 N 0.31932 0.9248 1.01066 0.0
H1024 H 0.34234 0.84952 0.94821 0.0
H1025 H 0.32166 0.86278 0.9893 0.0
H1026 H 0.31385 0.94363 0.02973 0.0
H1027 H 0.30082 0.90735 1.00815 0.0
H1028 H 0.42709 0.96832 0.89521 0.0
H1029 H 0.41554 0.93231 0.87293 0.0
H1030 H 0.44004 0.98023 0.95143 0.0
H1031 H 0.41823 0.99479 0.99121 0.0
C1032 C 0.29487 0.90554 0.24438 0.0
C1033 C 0.29327 0.89452 0.2848 0.0
C1034 C 0.24588 0.85969 0.26975 0.0
C1035 C 0.24282 0.87634 0.23165 0.0
N1036 N 0.26904 0.91443 0.18226 0.0
N1037 N 0.26168 0.86526 0.33636 0.0
C1038 C 0.26862 0.89915 0.21894 0.0
C1039 C 0.26723 0.87272 0.29749 0.0
N1040 N 0.32265 0.92031 0.22942 0.0
N1041 N 0.23015 0.82975 0.27906 0.0
H1042 H 0.27526 0.87561 0.35761 0.0
H1043 H 0.24133 0.85199 0.34733 0.0
H1044 H 0.21871 0.81628 0.25836 0.0
H1045 H 0.23313 0.81565 0.30537 0.0
H1046 H 0.32714 0.92606 0.1998 0.0
H1047 H 0.34275 0.92329 0.24622 0.0
H1048 H 0.28306 0.93576 0.17405 0.0
H1049 H 0.25601 0.90555 0.15973 0.0
C1050 C 0.40036 0.98641 0.51669 0.0
C1051 C 0.38096 0.98345 0.48355 0.0
C1052 C 0.35228 0.03492 0.50349 0.0
C1053 C 0.3665 0.03194 0.54072 0.0
N1054 N 0.39996 0.99854 0.58448 0.0
N1055 N 0.33804 0.00781 0.44498 0.0
C1056 C 0.38969 0.0062 0.54769 0.0
C1057 C 0.35697 0.00877 0.47651 0.0
N1058 N 0.42924 0.97018 0.51873 0.0
N1059 N 0.33512 0.0634 0.4934 0.0
H1060 H 0.34225 0.99177 0.42262 0.0
H1061 H 0.31735 0.0224 0.44168 0.0
H1062 H 0.33255 0.08335 0.51172 0.0
H1063 H 0.32651 0.06882 0.46561 0.0
H1064 H 0.44526 0.97359 0.54085 0.0
H1065 H 0.43866 0.95675 0.49593 0.0
H1066 H 0.4149 0.97797 0.59132 0.0
H1067 H 0.39049 0.00976 0.60887 0.0
C1068 C 0.25378 0.11816 0.81155 0.0
C1069 C 0.22482 0.11563 0.79125 0.0
C1070 C 0.25841 0.11659 0.72991 0.0
C1071 C 0.2876 0.11405 0.75083 0.0
N1072 N 0.30895 0.10057 0.81513 0.0
N1073 N 0.20137 0.10305 0.73071 0.0
C1074 C 0.2841 0.11133 0.79265 0.0
C1075 C 0.22773 0.11198 0.7503 0.0
N1076 N 0.25302 0.12904 0.84838 0.0
N1077 N 0.2593 0.12533 0.69088 0.0
H1078 H 0.17928 0.09754 0.74483 0.0
H1079 H 0.20257 0.0972 0.70159 0.0
H1080 H 0.28034 0.1321 0.67518 0.0
H1081 H 0.23859 0.13015 0.67521 0.0
H1082 H 0.27373 0.13328 0.86351 0.0
H1083 H 0.23228 0.13818 0.86172 0.0
H1084 H 0.30581 0.09442 0.84493 0.0
H1085 H 0.3312 0.09341 0.80406 0.0
C1086 C 0.12206 0.99301 0.03399 0.0
C1087 C 0.15268 0.97789 0.02901 0.0
C1088 C 0.16096 0.01175 0.96675 0.0
C1089 C 0.13053 0.02772 0.97249 0.0
N1090 N 0.07804 0.02359 1.00337 0.0
N1091 N 0.19701 0.9656 0.98625 0.0
C1092 C 0.10968 0.01461 1.00327 0.0
C1093 C 0.17064 0.98491 0.99378 0.0
N1094 N 0.10583 0.98907 0.06907 0.0
N1095 N 0.18166 0.02339 0.93732 0.0
H1096 H 0.20431 0.94587 1.00563 0.0
H1097 H 0.20965 0.96694 0.95961 0.0
H1098 H 0.17516 0.04022 0.91451 0.0
H1099 H 0.20584 0.01673 0.93594 0.0
H1100 H 0.08503 1.0025 0.07558 0.0
H1101 H 0.11467 0.97493 0.09297 0.0
H1102 H 0.06095 0.01292 0.0233 0.0
H1103 H 0.06852 0.039 0.98075 0.0
C1104 C 0.74012 0.89213 0.82862 0.0
C1105 C 0.73487 0.91737 0.79868 0.0
C1106 C 0.69618 0.94543 0.84098 0.0
C1107 C 0.70361 0.9214 0.87196 0.0
N1108 N 0.74094 0.8795 0.89783 0.0
N1109 N 0.71221 0.97091 0.77702 0.0
C1110 C 0.72803 0.89694 0.8665 0.0
C1111 C 0.71406 0.94493 0.80501 0.0
N1112 N 0.75665 0.8634 0.82064 0.0
N1113 N 0.67167 0.96791 0.84535 0.0
H1114 H 0.72467 0.97055 0.75027 0.0
H1115 H 0.70013 0.99354 0.78124 0.0
H1116 H 0.65899 0.96993 0.87159 0.0
H1117 H 0.66286 0.98333 0.82243 0.0
H1118 H 0.75862 0.84264 0.84072 0.0
H1119 H 0.76545 0.85898 0.79271 0.0
H1120 H 0.76061 0.86338 0.89554 0.0
H1121 H 0.73474 0.8846 0.9264 0.0
C1122 C 0.89303 0.02063 0.58064 0.0
C1123 C 0.86771 0.02625 0.55456 0.0
C1124 C 0.83999 0.97619 0.58793 0.0
C1125 C 0.86327 0.97463 0.61731 0.0
N1126 N 0.90235 0.00847 0.64809 0.0
N1127 N 0.8121 0.01333 0.54162 0.0
C1128 C 0.88724 1.00042 0.61547 0.0
C1129 C 0.83974 0.00498 0.56014 0.0
N1130 N 0.9228 0.03436 0.57263 0.0
N1131 N 0.81823 0.95051 0.58618 0.0
H1132 H 0.80944 0.03581 0.52464 0.0
H1133 H 0.79056 1.00022 0.54743 0.0
H1134 H 0.81776 0.92927 0.6058 0.0
H1135 H 0.80268 0.94904 0.56318 0.0
H1136 H 0.94208 0.02914 0.59073 0.0
H1137 H 0.92911 0.04707 0.54597 0.0
H1138 H 0.91829 0.0289 0.64837 0.0
H1139 H 0.89533 0.99787 0.67541 0.0
C1140 C 0.77892 0.08781 0.26774 0.0
C1141 C 0.7669 0.12133 0.26801 0.0
C1142 C 0.77635 0.12275 0.33718 0.0
C1143 C 0.78986 0.08986 0.33679 0.0
N1144 N 0.80827 0.04245 0.30203 0.0
N1145 N 0.76034 0.17342 0.2994 0.0
C1146 C 0.79262 0.07282 0.30199 0.0
C1147 C 0.76798 0.13972 0.30168 0.0
N1148 N 0.7756 0.06997 0.23543 0.0
N1149 N 0.76998 0.13694 0.37173 0.0
H1150 H 0.75415 0.18623 0.27321 0.0
H1151 H 0.76297 0.18913 0.32226 0.0
H1152 H 0.77557 0.12516 0.39862 0.0
H1153 H 0.75642 0.15891 0.37403 0.0
H1154 H 0.78072 0.04421 0.23454 0.0
H1155 H 0.76614 0.08085 0.20984 0.0
H1156 H 0.81359 0.0299 0.27695 0.0
H1157 H 0.81762 0.0308 0.32732 0.0
C1158 C 0.66798 0.082 0.04869 0.0
C1159 C 0.64694 0.05364 0.04837 0.0
C1160 C 0.62028 0.07149 0.10832 0.0
C1161 C 0.63891 0.10205 0.10667 0.0
N1162 N 0.67719 0.13858 0.07038 0.0
N1163 N 0.59806 0.02636 0.07271 0.0
C1164 C 0.66191 0.10789 0.07542 0.0
C1165 C 0.62157 0.04996 0.07661 0.0
N1166 N 0.69443 0.08361 0.02421 0.0
N1167 N 0.60312 0.06134 0.14141 0.0
H1168 H 0.59784 0.01071 0.04943 0.0
H1169 H 0.57718 0.02485 0.09025 0.0
H1170 H 0.60378 0.07442 0.16652 0.0
H1171 H 0.59171 0.03779 0.14552 0.0
H1172 H 0.71255 0.10171 0.02547 0.0
H1173 H 0.69964 0.06485 1.00496 0.0
H1174 H 0.69195 0.14559 0.04621 0.0
H1175 H 0.67258 0.15833 0.08845 0.0
C1176 C 0.76702 0.0974 0.79639 0.0
C1177 C 0.78355 0.1293 0.79207 0.0
C1178 C 0.74961 0.14225 0.73416 0.0
C1179 C 0.72977 0.11294 0.74305 0.0
N1180 N 0.71546 0.06948 0.7933 0.0
N1181 N 0.78223 0.18595 0.76051 0.0
C1182 C 0.73713 0.09283 0.7776 0.0
C1183 C 0.77225 0.15293 0.76211 0.0
N1184 N 0.78085 0.07002 0.81531 0.0
N1185 N 0.74888 0.15888 0.69825 0.0
H1186 H 0.79636 0.19563 0.78169 0.0
H1187 H 0.77292 0.20449 0.74105 0.0
H1188 H 0.73577 0.15008 0.67568 0.0
H1189 H 0.76467 0.17866 0.6895 0.0
H1190 H 0.77033 0.04592 0.81697 0.0
H1191 H 0.80475 0.07001 0.82324 0.0
H1192 H 0.71913 0.05562 0.81963 0.0
H1193 H 0.69239 0.06735 0.78272 0.0
C1194 C 0.66175 1.00073 0.55789 0.0
C1195 C 0.637 0.0252 0.55108 0.0
C1196 C 0.62746 1.00146 0.48807 0.0
C1197 C 0.65139 0.97644 0.49499 0.0
N1198 N 0.6834 0.94583 0.54237 0.0
N1199 N 0.58769 0.03695 0.51776 0.0
C1200 C 0.66604 0.97406 0.53184 0.0
C1201 C 0.6169 0.02132 0.51895 0.0
N1202 N 0.68209 1.00323 0.58786 0.0
N1203 N 0.6165 0.00852 0.45148 0.0
H1204 H 0.57856 0.05026 0.54092 0.0
H1205 H 0.5713 0.03312 0.49615 0.0
H1206 H 0.62598 0.99745 0.42701 0.0
H1207 H 0.60093 0.02859 0.44484 0.0
H1208 H 0.70297 0.98888 0.59059 0.0
H1209 H 0.67925 0.02073 0.6089 0.0
H1210 H 0.69236 0.94111 0.57012 0.0
H1211 H 0.68563 0.92539 0.52471 0.0
C1212 C 0.78862 0.91358 0.2794 0.0
C1213 C 0.79204 0.90192 0.24107 0.0
C1214 C 0.7366 0.87902 0.25094 0.0
C1215 C 0.73076 0.89704 0.28545 0.0
N1216 N 0.75294 0.93937 0.32558 0.0
N1217 N 0.76332 0.88142 0.18726 0.0
C1218 C 0.75728 0.91648 0.29785 0.0
C1219 C 0.76434 0.88683 0.22592 0.0
N1220 N 0.81538 0.92096 0.29913 0.0
N1221 N 0.71679 0.85307 0.24248 0.0
H1222 H 0.78134 0.88974 0.16722 0.0
H1223 H 0.74264 0.87282 0.17458 0.0
H1224 H 0.69904 0.84301 0.26191 0.0
H1225 H 0.72133 0.83825 0.2189 0.0
H1226 H 0.81438 0.92704 0.32818 0.0
H1227 H 0.83852 0.91666 0.28812 0.0
H1228 H 0.77112 0.95583 0.33281 0.0
H1229 H 0.73064 0.94532 0.33754 0.0
C1230 C 0.89968 0.0122 0.98628 0.0
C1231 C 0.87118 0.03047 0.99423 0.0
C1232 C 0.86935 0.00481 0.06147 0.0
C1233 C 0.89473 0.98272 0.0513 0.0
N1234 N 0.94285 0.97702 1.01208 0.0
N1235 N 0.82933 0.046 0.039 0.0
C1236 C 0.91278 0.99036 1.01618 0.0
C1237 C 0.85641 0.02762 0.03199 0.0
N1238 N 0.91281 0.01372 0.94934 0.0
N1239 N 0.85879 0.00518 0.09937 0.0
H1240 H 0.82047 0.0639 0.01842 0.0
H1241 H 0.81487 0.04258 0.06415 0.0
H1242 H 0.87045 0.99195 0.12189 0.0
H1243 H 0.84133 0.02165 0.10927 0.0
H1244 H 0.93149 0.99815 0.94059 0.0
H1245 H 0.90335 0.02864 0.92641 0.0
H1246 H 0.95855 0.98351 0.98863 0.0
H1247 H 0.9533 0.96234 0.03463 0.0
C1248 C 0.78424 0.56853 0.70141 0.0
C1249 C 0.7977 0.58171 0.73468 0.0
C1250 C 0.84797 0.59201 0.69653 0.0
C1251 C 0.83071 0.58916 0.66184 0.0
N1252 N 0.78175 0.57333 0.63142 0.0
N1253 N 0.84788 0.58213 0.767 0.0
C1254 C 0.79878 0.57656 0.66426 0.0
C1255 C 0.83141 0.58708 0.73351 0.0
N1256 N 0.76 0.54518 0.70585 0.0
N1257 N 0.88021 0.5983 0.69396 0.0
H1258 H 0.83694 0.5706 0.79216 0.0
H1259 H 0.87268 0.58436 0.76862 0.0
H1260 H 0.89345 0.59667 0.66794 0.0
H1261 H 0.8937 0.60503 0.71724 0.0
H1262 H 0.75097 0.53274 0.68267 0.0
H1263 H 0.7523 0.53511 0.73339 0.0
H1264 H 0.7573 0.56735 0.63242 0.0
H1265 H 0.79132 0.57916 0.60345 0.0
C1266 C 0.63855 0.5487 0.94404 0.0
C1267 C 0.66322 0.54702 0.91436 0.0
C1268 C 0.67563 0.4888 0.94086 0.0
C1269 C 0.65093 0.49037 0.97024 0.0
N1270 N 0.61249 0.52426 1.00383 0.0
N1271 N 0.71395 0.52019 0.89837 0.0
C1272 C 0.63359 0.52117 0.97308 0.0
C1273 C 0.68439 0.51854 0.91678 0.0
N1274 N 0.62016 0.57721 0.94499 0.0
N1275 N 0.691 0.45879 0.93554 0.0
H1276 H 0.72349 0.54213 0.88422 0.0
H1277 H 0.73115 0.5012 0.90206 0.0
H1278 H 0.68684 0.43678 0.95333 0.0
H1279 H 0.70614 0.4551 0.91152 0.0
H1280 H 0.59864 0.57871 0.96096 0.0
H1281 H 0.62693 0.59972 0.92957 0.0
H1282 H 0.60147 0.54689 1.0105 0.0
H1283 H 0.60727 0.50431 0.02432 0.0
C1284 C 0.72566 0.40289 0.19199 0.0
C1285 C 0.70821 0.43319 0.19739 0.0
C1286 C 0.72711 0.43403 0.26389 0.0
C1287 C 0.74214 0.40228 0.25935 0.0
N1288 N 0.75089 0.35325 0.22264 0.0
N1289 N 0.68916 0.47609 0.23864 0.0
C1290 C 0.7398 0.38568 0.22444 0.0
C1291 C 0.70796 0.44833 0.23351 0.0
N1292 N 0.73013 0.39157 0.15554 0.0
N1293 N 0.73232 0.45099 0.29646 0.0
H1294 H 0.6754 0.48716 0.2163 0.0
H1295 H 0.68555 0.48674 0.26525 0.0
H1296 H 0.74631 0.44091 0.31909 0.0
H1297 H 0.72471 0.47571 0.30002 0.0
H1298 H 0.74511 0.37141 0.14937 0.0
H1299 H 0.72156 0.40451 0.13056 0.0
H1300 H 0.7472 0.33848 0.19922 0.0
H1301 H 0.76116 0.33998 0.24642 0.0
C1302 C 0.87035 0.43107 0.49218 0.0
C1303 C 0.87558 0.4661 0.48078 0.0
C1304 C 0.86974 0.45247 0.4127 0.0
C1305 C 0.8701 0.41699 0.42339 0.0
N1306 N 0.87361 0.37245 0.47416 0.0
N1307 N 0.88886 0.50768 0.42821 0.0
C1308 C 0.87142 0.40626 0.46345 0.0
C1309 C 0.87754 0.47618 0.44047 0.0
N1310 N 0.86285 0.42168 0.53022 0.0
N1311 N 0.86131 0.46389 0.37622 0.0
H1312 H 0.89754 0.5248 0.44721 0.0
H1313 H 0.89344 0.51504 0.39893 0.0
H1314 H 0.85351 0.44771 0.35582 0.0
H1315 H 0.8583 0.48958 0.36807 0.0
H1316 H 0.85614 0.39704 0.53989 0.0
H1317 H 0.85993 0.43932 0.55133 0.0
H1318 H 0.87804 0.36322 0.50252 0.0
H1319 H 0.87304 0.35378 0.45404 0.0
C1320 C 0.73826 0.35373 0.77705 0.0
C1321 C 0.72964 0.37629 0.74466 0.0
C1322 C 0.77816 0.41011 0.75868 0.0
C1323 C 0.78288 0.39143 0.79493 0.0
N1324 N 0.75997 0.3494 0.84189 0.0
N1325 N 0.73884 0.43294 0.71407 0.0
C1326 C 0.76093 0.3642 0.80498 0.0
C1327 C 0.74899 0.40635 0.7379 0.0
N1328 N 0.72576 0.32165 0.78093 0.0
N1329 N 0.80188 0.43125 0.74328 0.0
H1330 H 0.71639 0.43395 0.70169 0.0
H1331 H 0.75099 0.45615 0.71115 0.0
H1332 H 0.82416 0.43298 0.75605 0.0
H1333 H 0.80074 0.44354 0.71561 0.0
H1334 H 0.73318 0.30356 0.80218 0.0
H1335 H 0.71148 0.31176 0.76003 0.0
H1336 H 0.74258 0.33152 0.85162 0.0
H1337 H 0.77383 0.35801 0.86393 0.0
C1338 C 0.89675 0.50601 0.0435 0.0
C1339 C 0.87294 0.5313 0.03701 0.0
C1340 C 0.85727 0.50254 0.97863 0.0
C1341 C 0.88291 0.47882 0.98368 0.0
N1342 N 0.93443 0.46886 1.01272 0.0
N1343 N 0.83858 0.55938 0.99005 0.0
C1344 C 0.90519 0.48441 1.01324 0.0
C1345 C 0.85582 0.53142 1.00182 0.0
N1346 N 0.90956 0.50027 0.07931 0.0
N1347 N 0.83305 0.497 0.95396 0.0
H1348 H 0.83863 0.58154 1.00504 0.0
H1349 H 0.82767 0.56188 0.96317 0.0
H1350 H 0.83189 0.47613 0.9372 0.0
H1351 H 0.81234 0.51181 0.95299 0.0
H1352 H 0.92521 0.48021 0.08571 0.0
H1353 H 0.90134 0.51224 0.10377 0.0
H1354 H 0.95214 0.47384 0.03239 0.0
H1355 H 0.94216 0.45446 0.98982 0.0
C1356 C 0.77236 0.59637 0.23108 0.0
C1357 C 0.79828 0.61722 0.24279 0.0
C1358 C 0.76428 0.62735 0.30223 0.0
C1359 C 0.73734 0.61014 0.28805 0.0
N1360 N 0.7145 0.58768 0.23169 0.0
N1361 N 0.81069 0.66262 0.28439 0.0
C1362 C 0.74108 0.59762 0.25023 0.0
C1363 C 0.79177 0.63569 0.27684 0.0
N1364 N 0.77726 0.57368 0.20325 0.0
N1365 N 0.7648 0.63444 0.34045 0.0
H1366 H 0.82827 0.6727 0.26473 0.0
H1367 H 0.80558 0.678 0.30731 0.0
H1368 H 0.74681 0.62645 0.36069 0.0
H1369 H 0.78504 0.64442 0.3528 0.0
H1370 H 0.75996 0.55587 0.19693 0.0
H1371 H 0.79932 0.56953 0.18973 0.0
H1372 H 0.71527 0.58114 0.2028 0.0
H1373 H 0.69132 0.59011 0.24354 0.0
C1374 C 0.64088 0.47354 0.50555 0.0
C1375 C 0.65835 0.47652 0.53996 0.0
C1376 C 0.66734 0.53676 0.52219 0.0
C1377 C 0.64737 0.53519 0.48918 0.0
N1378 N 0.61257 0.50202 0.45175 0.0
N1379 N 0.68453 0.51121 0.58398 0.0
C1380 C 0.6336 0.5034 0.48127 0.0
C1381 C 0.67044 0.50823 0.54898 0.0
N1382 N 0.63162 0.44199 0.49611 0.0
N1383 N 0.68487 0.56519 0.52727 0.0
H1384 H 0.68807 0.49067 0.60395 0.0
H1385 H 0.6905 0.53435 0.59476 0.0
H1386 H 0.68257 0.58741 0.5102 0.0
H1387 H 0.70376 0.56588 0.54633 0.0
H1388 H 0.62148 0.43708 0.46979 0.0
H1389 H 0.63599 0.42026 0.51409 0.0
H1390 H 0.59924 0.48051 0.44665 0.0
H1391 H 0.60689 0.52324 0.43366 0.0
C1392 C 0.19667 0.44345 0.34582 0.0
C1393 C 0.20536 0.42058 0.37747 0.0
C1394 C 0.24571 0.3947 0.33545 0.0
C1395 C 0.23848 0.41852 0.30457 0.0
N1396 N 0.21153 0.4692 0.28151 0.0
N1397 N 0.24539 0.3826 0.40499 0.0
C1398 C 0.21525 0.44407 0.31014 0.0
C1399 C 0.2321 0.39868 0.37301 0.0
N1400 N 0.17016 0.46351 0.34908 0.0
N1401 N 0.26489 0.36754 0.32856 0.0
H1402 H 0.23733 0.38637 0.43334 0.0
H1403 H 0.2667 0.36886 0.40365 0.0
H1404 H 0.2746 0.36326 0.30103 0.0
H1405 H 0.26837 0.34749 0.3492 0.0
H1406 H 0.16061 0.47764 0.32563 0.0
H1407 H 0.15643 0.46459 0.37475 0.0
H1408 H 0.19747 0.49066 0.285 0.0
H1409 H 0.22455 0.46965 0.25507 0.0
C1410 C 0.39325 0.461 0.08552 0.0
C1411 C 0.3681 0.46174 0.11484 0.0
C1412 C 0.35624 0.52086 0.09032 0.0
C1413 C 0.38077 0.51977 0.06076 0.0
N1414 N 0.41982 0.48706 0.0268 0.0
N1415 N 0.31834 0.48949 0.13341 0.0
C1416 C 0.39835 0.48923 0.05737 0.0
C1417 C 0.34743 0.49075 0.11383 0.0
N1418 N 0.41217 0.4329 0.08418 0.0
N1419 N 0.34122 0.55093 0.09639 0.0
H1420 H 0.30856 0.4677 0.14756 0.0
H1421 H 0.30142 0.50885 0.13079 0.0
H1422 H 0.34584 0.57316 0.07916 0.0
H1423 H 0.32634 0.55457 0.12066 0.0
H1424 H 0.43393 0.43219 0.06853 0.0
H1425 H 0.40592 0.41003 0.09915 0.0
H1426 H 0.4309 0.46465 0.01941 0.0
H1427 H 0.42542 0.5077 1.00734 0.0
C1428 C 0.29859 0.6322 0.79658 0.0
C1429 C 0.29005 0.61154 0.76669 0.0
C1430 C 0.3081 0.56096 0.8047 0.0
C1431 C 0.3124 0.58119 0.83658 0.0
N1432 N 0.30672 0.6352 0.86533 0.0
N1433 N 0.28494 0.55665 0.74126 0.0
C1434 C 0.30671 0.61674 0.8331 0.0
C1435 C 0.29477 0.57596 0.77021 0.0
N1436 N 0.29776 0.66669 0.79007 0.0
N1437 N 0.31676 0.52756 0.80774 0.0
H1438 H 0.27594 0.56746 0.71536 0.0
H1439 H 0.28442 0.53022 0.74347 0.0
H1440 H 0.32608 0.51618 0.83318 0.0
H1441 H 0.31666 0.51181 0.78462 0.0
H1442 H 0.30638 0.68349 0.80946 0.0
H1443 H 0.29115 0.67831 0.76342 0.0
H1444 H 0.2999 0.66057 0.8653 0.0
H1445 H 0.31033 0.62428 0.89313 0.0
C1446 C 0.13808 0.6031 0.57264 0.0
C1447 C 0.161 0.59943 0.6027 0.0
C1448 C 0.17588 0.54384 0.57873 0.0
C1449 C 0.15398 0.54828 0.54805 0.0
N1450 N 0.12404 0.58815 0.50805 0.0
N1451 N 0.21182 0.5724 0.6195 0.0
C1452 C 0.13834 0.57996 0.54253 0.0
C1453 C 0.18335 0.57199 0.60091 0.0
N1454 N 0.1156 0.62816 0.57256 0.0
N1455 N 0.18808 0.51255 0.58884 0.0
H1456 H 0.22043 0.59335 0.63277 0.0
H1457 H 0.22913 0.55358 0.61661 0.0
H1458 H 0.18114 0.49061 0.57616 0.0
H1459 H 0.20228 0.50789 0.613 0.0
H1460 H 0.09603 0.62882 0.55436 0.0
H1461 H 0.11536 0.64724 0.59182 0.0
H1462 H 0.1145 0.61207 0.50094 0.0
H1463 H 0.12525 0.57226 0.48494 0.0
C1464 C 0.23461 0.61001 0.29282 0.0
C1465 C 0.23755 0.61771 0.25167 0.0
C1466 C 0.2864 0.65086 0.26465 0.0
C1467 C 0.28814 0.63673 0.30394 0.0
N1468 N 0.25922 0.60416 0.35605 0.0
N1469 N 0.27248 0.63969 0.19908 0.0
C1470 C 0.26093 0.61652 0.31813 0.0
C1471 C 0.26512 0.63661 0.23789 0.0
N1472 N 0.20573 0.59852 0.30833 0.0
N1473 N 0.30346 0.67947 0.25294 0.0
H1474 H 0.2596 0.62714 0.17884 0.0
H1475 H 0.29382 0.65103 0.18827 0.0
H1476 H 0.315 0.69411 0.27248 0.0
H1477 H 0.30143 0.69168 0.22533 0.0
H1478 H 0.20059 0.59535 0.33814 0.0
H1479 H 0.18564 0.5959 0.29142 0.0
H1480 H 0.2436 0.58465 0.36611 0.0
H1481 H 0.27292 0.61369 0.37762 0.0
C1482 C 0.13862 0.47372 0.03323 0.0
C1483 C 0.16231 0.47493 1.00263 0.0
C1484 C 0.18823 0.5226 0.03246 0.0
C1485 C 0.1607 0.52611 0.0573 0.0
N1486 N 0.11086 0.50327 0.08448 0.0
N1487 N 0.21074 0.49933 0.97374 0.0
C1488 C 0.13655 0.50061 0.05925 0.0
C1489 C 0.18798 0.49847 1.00316 0.0
N1490 N 0.1173 0.44733 0.03581 0.0
N1491 N 0.21445 0.54262 0.03689 0.0
H1492 H 0.21127 0.48133 0.9528 0.0
H1493 H 0.22807 0.51835 0.96924 0.0
H1494 H 0.21513 0.55985 0.05862 0.0
H1495 H 0.23624 0.54002 0.02172 0.0
H1496 H 0.10022 0.44315 0.05832 0.0
H1497 H 0.11869 0.428 1.01646 0.0
H1498 H 0.09061 0.48775 0.085 0.0
H1499 H 0.10962 0.52202 0.1045 0.0
C1500 C 0.28728 0.41106 0.79208 0.0
C1501 C 0.29047 0.39777 0.75447 0.0
C1502 C 0.23684 0.3718 0.76786 0.0
C1503 C 0.2305 0.39139 0.80098 0.0
N1504 N 0.25127 0.43639 0.83847 0.0
N1505 N 0.26137 0.3735 0.70319 0.0
C1506 C 0.25618 0.41289 0.81152 0.0
C1507 C 0.26331 0.38033 0.74136 0.0
N1508 N 0.31405 0.4209 0.81028 0.0
N1509 N 0.21859 0.3439 0.7621 0.0
H1510 H 0.27798 0.38278 0.68187 0.0
H1511 H 0.24089 0.36282 0.69215 0.0
H1512 H 0.20204 0.33367 0.78302 0.0
H1513 H 0.2235 0.32819 0.73942 0.0
H1514 H 0.31334 0.42838 0.83881 0.0
H1515 H 0.33717 0.41728 0.79881 0.0
H1516 H 0.26862 0.45442 0.84395 0.0
H1517 H 0.2292 0.44068 0.85211 0.0
C1518 C 0.35843 0.49816 0.56746 0.0
C1519 C 0.38775 0.47985 0.56304 0.0
C1520 C 0.40031 0.5136 0.50196 0.0
C1521 C 0.37091 0.53132 0.5059 0.0
N1522 N 0.32687 0.5476 0.54694 0.0
N1523 N 0.44102 0.47908 0.53411 0.0
C1524 C 0.35172 0.52597 0.54038 0.0
C1525 C 0.41024 0.49091 0.53304 0.0
N1526 N 0.33574 0.48772 0.59523 0.0
N1527 N 0.41758 0.51634 0.46752 0.0
H1528 H 0.44886 0.46289 0.55708 0.0
H1529 H 0.45928 0.48814 0.51477 0.0
H1530 H 0.41054 0.53158 0.44347 0.0
H1531 H 0.43734 0.50112 0.46165 0.0
H1532 H 0.3123 0.49686 0.59554 0.0
H1533 H 0.33941 0.46886 0.61706 0.0
H1534 H 0.31362 0.54733 0.57313 0.0
H1535 H 0.32167 0.56801 0.52735 0.0
C1536 C 0.18453 0.24588 0.37956 0.0
C1537 C 0.16602 0.24811 0.41456 0.0
C1538 C 0.14537 0.19063 0.40883 0.0
C1539 C 0.16171 0.18916 0.37203 0.0
N1540 N 0.19278 0.21769 0.31931 0.0
N1541 N 0.12352 0.22634 0.4578 0.0
C1542 C 0.18025 0.21746 0.35648 0.0
C1543 C 0.14475 0.22159 0.42761 0.0
N1544 N 0.20688 0.27042 0.36916 0.0
N1545 N 0.13199 0.16194 0.42706 0.0
H1546 H 0.12229 0.24907 0.47169 0.0
H1547 H 0.10512 0.20926 0.46629 0.0
H1548 H 0.13346 0.13818 0.41561 0.0
H1549 H 0.12259 0.1609 0.45551 0.0
H1550 H 0.22355 0.26869 0.34619 0.0
H1551 H 0.21016 0.29153 0.38538 0.0
H1552 H 0.20381 0.23888 0.30499 0.0
H1553 H 0.18984 0.19753 0.30156 0.0
C1554 C 0.05788 0.87434 0.63507 0.0
C1555 C 0.07723 0.90419 0.63288 0.0
C1556 C 0.05051 0.9194 0.69308 0.0
C1557 C 0.02467 0.89785 0.68549 0.0
N1558 N 1.00493 0.85196 0.64899 0.0
N1559 N 0.09067 0.95682 0.66177 0.0
C1560 C 0.02885 0.87385 0.65704 0.0
C1561 C 0.07394 0.92692 0.66311 0.0
N1562 N 0.06807 0.84573 0.61848 0.0
N1563 N 0.04986 0.9357 0.72679 0.0
H1564 H 0.10562 0.96532 0.63834 0.0
H1565 H 0.08686 0.97503 0.68202 0.0
H1566 H 0.03139 0.93114 0.74776 0.0
H1567 H 0.06878 0.95074 0.73502 0.0
H1568 H 0.0556 0.82272 0.6218 0.0
H1569 H 0.09114 0.84396 0.60674 0.0
H1570 H 1.00604 0.83754 0.62462 0.0
H1571 H 0.98384 0.84864 0.66564 0.0
C1572 C 0.39387 0.73196 0.86044 0.0
C1573 C 0.37725 0.75919 0.8775 0.0
C1574 C 0.36205 0.72027 0.93436 0.0
C1575 C 0.37811 0.69296 0.91699 0.0
N1576 N 0.40456 0.67125 0.8606 0.0
N1577 N 0.3406 0.77731 0.92785 0.0
C1578 C 0.39245 0.69834 0.87905 0.0
C1579 C 0.35975 0.75265 0.91347 0.0
N1580 N 0.4114 0.73829 0.82651 0.0
N1581 N 0.34943 0.71553 0.97149 0.0
H1582 H 0.33957 0.80193 0.91539 0.0
H1583 H 0.32388 0.77289 0.95073 0.0
H1584 H 0.34799 0.69189 0.98671 0.0
H1585 H 0.34187 0.73525 0.98822 0.0
H1586 H 0.42748 0.72111 0.81506 0.0
H1587 H 0.41109 0.76158 0.81047 0.0
H1588 H 0.41215 0.67243 0.83146 0.0
H1589 H 0.40506 0.64669 0.87365 0.0
C1590 C 0.46903 0.10974 0.09597 0.0
C1591 C 0.44269 0.09367 0.11604 0.0
C1592 C 0.46721 0.10102 0.17835 0.0
C1593 C 0.48986 0.12315 0.15849 0.0
N1594 N 0.51352 0.14889 0.09896 0.0
N1595 N 0.4183 0.06761 0.17461 0.0
C1596 C 0.49152 0.12714 0.11731 0.0
C1597 C 0.44256 0.08678 0.15685 0.0
N1598 N 0.47218 0.10806 0.05658 0.0
N1599 N 0.46946 0.09414 0.21756 0.0
H1600 H 0.40103 0.05583 0.15867 0.0
H1601 H 0.41491 0.06359 0.20461 0.0
H1602 H 0.48736 0.10482 0.23355 0.0
H1603 H 0.45485 0.07689 0.234 0.0
H1604 H 0.49207 0.11725 0.04005 0.0
H1605 H 0.45599 0.09418 0.04123 0.0
H1606 H 0.5139 0.15537 0.06915 0.0
H1607 H 0.53012 0.16242 0.11399 0.0
C1608 C 0.14822 0.78097 0.093 0.0
C1609 C 0.16823 0.78917 0.12341 0.0
C1610 C 0.16756 0.73021 0.14943 0.0
C1611 C 0.14837 0.72082 0.11838 0.0
N1612 N 0.11129 0.74037 0.06904 0.0
N1613 N 0.20584 0.7704 0.17138 0.0
C1614 C 0.13649 0.747 0.09188 0.0
C1615 C 0.18127 0.76304 0.14792 0.0
N1616 N 0.14066 0.80563 0.06517 0.0
N1617 N 0.16926 0.70981 0.1829 0.0
H1618 H 0.21592 0.79472 0.17076 0.0
H1619 H 0.21808 0.7518 0.18792 0.0
H1620 H 0.15376 0.68932 0.1893 0.0
H1621 H 0.18156 0.71665 0.20713 0.0
H1622 H 0.12852 0.80103 0.04006 0.0
H1623 H 0.14968 0.83029 0.06514 0.0
H1624 H 0.09998 0.75861 0.05113 0.0
H1625 H 0.09838 0.71777 0.07224 0.0
C1626 C 0.52402 0.86632 0.37525 0.0
C1627 C 0.54379 0.89533 0.38016 0.0
C1628 C 0.49607 0.92389 0.40822 0.0
C1629 C 0.47621 0.89556 0.40148 0.0
N1630 N 0.47034 0.84211 0.37259 0.0
N1631 N 0.54663 0.9542 0.39484 0.0
C1632 C 0.48999 0.86751 0.38321 0.0
C1633 C 0.52929 0.9247 0.39524 0.0
N1634 N 0.53792 0.83687 0.36441 0.0
N1635 N 0.483 0.95034 0.42689 0.0
H1636 H 0.57043 0.9563 0.3847 0.0
H1637 H 0.5368 0.97746 0.40137 0.0
H1638 H 0.45844 0.95206 0.4332 0.0
H1639 H 0.49652 0.96969 0.43761 0.0
H1640 H 0.52587 0.8137 0.36508 0.0
H1641 H 0.56236 0.83465 0.35789 0.0
H1642 H 0.4779 0.82289 0.35512 0.0
H1643 H 0.44562 0.84171 0.37853 0.0
C1644 C 0.3541 0.261 0.62147 0.0
C1645 C 0.37935 0.28135 0.6344 0.0
C1646 C 0.40509 0.2303 0.66274 0.0
C1647 C 0.37772 0.21043 0.65496 0.0
N1648 N 0.32339 0.20875 0.63236 0.0
N1649 N 0.42545 0.28595 0.67455 0.0
C1650 C 0.35147 0.22619 0.63551 0.0
C1651 C 0.40371 0.26619 0.65736 0.0
N1652 N 0.33259 0.27487 0.59589 0.0
N1653 N 0.43312 0.21488 0.67347 0.0
H1654 H 0.42538 0.31241 0.67141 0.0
H1655 H 0.44167 0.27613 0.69477 0.0
H1656 H 0.43598 0.18861 0.67562 0.0
H1657 H 0.45458 0.22814 0.6757 0.0
H1658 H 0.31572 0.26051 0.58234 0.0
H1659 H 0.33324 0.3004 0.5859 0.0
H1660 H 0.30245 0.2201 0.62211 0.0
H1661 H 0.31998 0.18374 0.64334 0.0
C1662 C 0.01374 0.16412 0.91073 0.0
C1663 C 0.03091 0.133 0.90776 0.0
C1664 C 0.97982 0.10571 0.89066 0.0
C1665 C 0.96355 0.13769 0.88906 0.0
N1666 N 0.96625 0.19801 0.89604 0.0
N1667 N 0.03037 0.07466 0.89135 0.0
C1668 C 0.98102 0.16705 0.89846 0.0
C1669 C 0.0139 0.10404 0.89659 0.0
N1670 N 0.02839 0.19085 0.92645 0.0
N1671 N 0.96271 0.07648 0.8875 0.0
H1672 H 0.05464 0.07174 0.89734 0.0
H1673 H 0.02065 0.05397 0.87846 0.0
H1674 H 0.93837 0.076 0.88167 0.0
H1675 H 0.97206 0.05232 0.8935 0.0
H1676 H 0.01641 0.21276 0.93387 0.0
H1677 H 0.0522 0.19031 0.93489 0.0
H1678 H 0.97846 0.22097 0.89711 0.0
H1679 H 0.94182 0.20101 0.89111 0.0
C1680 C 0.84068 0.8206 0.63721 0.0
C1681 C 0.86552 0.82417 0.66422 0.0
C1682 C 0.88838 0.76992 0.64551 0.0
C1683 C 0.86194 0.76518 0.62153 0.0
N1684 N 0.80905 0.78165 0.60229 0.0
N1685 N 0.90847 0.79747 0.70069 0.0
C1686 C 0.83675 0.78911 0.62016 0.0
C1687 C 0.88804 0.79738 0.67042 0.0
N1688 N 0.82239 0.84783 0.62528 0.0
N1689 N 0.9146 0.74938 0.64304 0.0
H1690 H 0.90823 0.81629 0.72056 0.0
H1691 H 0.92324 0.77701 0.70849 0.0
H1692 H 0.91599 0.72954 0.6245 0.0
H1693 H 0.93602 0.75406 0.65666 0.0
H1694 H 0.80606 0.84705 0.60303 0.0
H1695 H 0.82617 0.87227 0.63393 0.0
H1696 H 0.78863 0.79683 0.60332 0.0
H1697 H 0.80554 0.75845 0.59004 0.0
C1698 C 0.9984 0.07302 0.39998 0.0
C1699 C 1.00272 0.10134 0.37292 0.0
C1700 C 0.9481 0.11962 0.38499 0.0
C1701 C 0.94495 0.09395 0.41568 0.0
N1702 N 0.96758 0.04808 0.45556 0.0
N1703 N 0.98507 0.1553 0.34539 0.0
C1704 C 0.97033 0.07119 0.42432 0.0
C1705 C 0.97852 0.12578 0.36718 0.0
N1706 N 0.02033 0.04734 0.40101 0.0
N1707 N 0.92206 0.13761 0.37224 0.0
H1708 H 1.00772 0.16073 0.33264 0.0
H1709 H 0.96919 0.17568 0.3434 0.0
H1710 H 0.89891 0.13279 0.3832 0.0
H1711 H 0.92287 0.15463 0.3478 0.0
H1712 H 0.01708 0.0246 0.41778 0.0
H1713 H 0.04055 0.0476 0.38238 0.0
H1714 H 0.98668 0.03333 0.46567 0.0
H1715 H 0.9465 0.04499 0.47265 0.0
C1716 C 0.61222 0.30739 0.14268 0.0
C1717 C 0.63821 0.31744 0.11678 0.0
C1718 C 0.66195 0.26048 0.12816 0.0
C1719 C 0.637 0.25075 0.15602 0.0
N1720 N 0.59341 0.26966 0.19723 0.0
N1721 N 0.69268 0.30705 0.09591 0.0
C1722 C 0.61349 0.27558 0.16535 0.0
C1723 C 0.66455 0.29502 0.11294 0.0
N1724 N 0.58608 0.32804 0.14542 0.0
N1725 N 0.68223 0.23662 0.11425 0.0
H1726 H 0.69584 0.33257 0.08667 0.0
H1727 H 0.71371 0.29278 0.09531 0.0
H1728 H 0.68033 0.21084 0.12252 0.0
H1729 H 0.69868 0.24196 0.09121 0.0
H1730 H 0.56487 0.32061 0.16043 0.0
H1731 H 0.58492 0.35185 0.13046 0.0
H1732 H 0.5778 0.28786 0.20754 0.0
H1733 H 0.59495 0.24802 0.2161 0.0
C1734 C 0.54385 0.90975 0.86411 0.0
C1735 C 0.52497 0.88142 0.87783 0.0
C1736 C 0.54899 0.88159 0.94154 0.0
C1737 C 0.57162 0.90609 0.92591 0.0
N1738 N 0.58998 0.94556 0.87347 0.0
N1739 N 0.50777 0.84054 0.92907 0.0
C1740 C 0.56846 0.92139 0.88775 0.0
C1741 C 0.52675 0.86766 0.91664 0.0
N1742 N 0.53798 0.92533 0.82846 0.0
N1743 N 0.54915 0.87172 0.98033 0.0
H1744 H 0.4904 0.83054 0.91184 0.0
H1745 H 0.51021 0.82671 0.95558 0.0
H1746 H 0.56555 0.88153 0.99895 0.0
H1747 H 0.53176 0.85618 0.9947 0.0
H1748 H 0.54863 0.94808 0.81783 0.0
H1749 H 0.52069 0.91635 0.8103 0.0
H1750 H 0.59186 0.95445 0.84437 0.0
H1751 H 0.60656 0.9565 0.8909 0.0
C1752 C 0.88562 0.25833 0.93893 0.0
C1753 C 0.86531 0.28522 0.92489 0.0
C1754 C 0.82936 0.24333 0.89917 0.0
C1755 C 0.84981 0.21712 0.91323 0.0
N1756 N 0.89033 0.19836 0.95777 0.0
N1757 N 0.81193 0.3012 0.90362 0.0
C1758 C 0.87521 0.22427 0.93751 0.0
C1759 C 0.8353 0.27718 0.90864 0.0
N1760 N 0.91588 0.26485 0.95072 0.0
N1761 N 0.80493 0.23588 0.8755 0.0
H1762 H 0.81408 0.32593 0.91202 0.0
H1763 H 0.78876 0.29551 0.89542 0.0
H1764 H 0.79893 0.2109 0.8702 0.0
H1765 H 0.79183 0.25435 0.85989 0.0
H1766 H 0.93268 0.24593 0.95712 0.0
H1767 H 0.92565 0.28905 0.94991 0.0
H1768 H 0.90746 0.20232 0.97846 0.0
H1769 H 0.88311 0.1731 0.95706 0.0
C1770 C 0.49663 0.08685 0.67504 0.0
C1771 C 0.47444 0.11069 0.65838 0.0
C1772 C 0.51994 0.13914 0.62162 0.0
C1773 C 0.5414 0.11272 0.63412 0.0
N1774 N 0.54743 0.05744 0.66733 0.0
N1775 N 0.46492 0.15661 0.61051 0.0
C1776 C 0.529 0.08552 0.65949 0.0
C1777 C 0.48608 0.13571 0.62979 0.0
N1778 N 0.48704 0.06555 0.70609 0.0
N1779 N 0.53202 0.16878 0.60423 0.0
H1780 H 0.4402 0.15575 0.61631 0.0
H1781 H 0.47167 0.17284 0.58656 0.0
H1782 H 0.55657 0.17364 0.60056 0.0
H1783 H 0.51794 0.19011 0.59788 0.0
H1784 H 0.50291 0.05022 0.72205 0.0
H1785 H 0.46372 0.06527 0.718 0.0
H1786 H 0.53857 0.03541 0.68226 0.0
H1787 H 0.57054 0.05471 0.65547 0.0
C1788 C 0.61835 0.78448 0.39822 0.0
C1789 C 0.64631 0.79905 0.3797 0.0
C1790 C 0.6713 0.74259 0.38107 0.0
C1791 C 0.6416 0.7278 0.39505 0.0
N1792 N 0.58463 0.73461 0.40425 0.0
N1793 N 0.69844 0.79189 0.34902 0.0
C1794 C 0.6145 0.74878 0.40026 0.0
C1795 C 0.67255 0.77805 0.36967 0.0
N1796 N 0.59551 0.80462 0.41412 0.0
N1797 N 0.69847 0.72327 0.38009 0.0
H1798 H 0.70066 0.81792 0.34185 0.0
H1799 H 0.71667 0.77737 0.33711 0.0
H1800 H 0.6986 0.6974 0.38836 0.0
H1801 H 0.72132 0.73343 0.37404 0.0
H1802 H 0.57583 0.79482 0.43068 0.0
H1803 H 0.59795 0.83096 0.41388 0.0
H1804 H 0.56361 0.74889 0.40537 0.0
H1805 H 0.58109 0.70891 0.40045 0.0
C1806 C 1.00235 0.90234 0.15709 0.0
C1807 C 0.9892 0.88185 0.12871 0.0
C1808 C 0.04492 0.86121 0.11523 0.0
C1809 C 0.05704 0.87851 0.14659 0.0
N1810 N 0.04423 0.90897 0.20364 0.0
N1811 N 0.99898 0.83367 0.08945 0.0
C1812 C 0.03477 0.89689 0.1695 0.0
C1813 C 1.01083 0.85916 0.11002 0.0
N1814 N 0.98488 0.92852 0.17084 0.0
N1815 N 0.06586 0.84599 0.09054 0.0
H1816 H 0.97459 0.82856 0.08759 0.0
H1817 H 0.01335 0.81468 0.0785 0.0
H1818 H 0.09061 0.84572 0.09426 0.0
H1819 H 0.05885 0.8362 0.06468 0.0
H1820 H 0.99447 0.9461 0.18866 0.0
H1821 H 0.96229 0.93527 0.16086 0.0
H1822 H 0.02824 0.91944 0.22342 0.0
H1823 H 0.06736 0.90564 0.2139 0.0
C1824 C 0.63707 0.69951 0.8937 0.0
C1825 C 0.66076 0.69493 0.86346 0.0
C1826 C 0.6857 0.74921 0.87857 0.0
C1827 C 0.66089 0.75421 0.90668 0.0
N1828 N 0.60835 0.73939 0.9326 0.0
N1829 N 0.70207 0.72122 0.82051 0.0
C1830 C 0.63505 0.73105 0.91129 0.0
C1831 C 0.68356 0.72147 0.85396 0.0
N1832 N 0.61775 0.67325 0.90787 0.0
N1833 N 0.71174 0.77037 0.87616 0.0
H1834 H 0.69977 0.70283 0.80036 0.0
H1835 H 0.71704 0.74134 0.81058 0.0
H1836 H 0.71366 0.79099 0.89347 0.0
H1837 H 0.73226 0.76597 0.85916 0.0
H1838 H 0.60273 0.67454 0.93251 0.0
H1839 H 0.61911 0.64895 0.89822 0.0
H1840 H 0.58723 0.72509 0.9339 0.0
H1841 H 0.60622 0.7626 0.94539 0.0
C1842 C 0.54154 0.44853 0.10429 0.0
C1843 C 0.55031 0.42103 0.08186 0.0
C1844 C 0.51499 0.38285 0.12111 0.0
C1845 C 0.50845 0.40936 0.14577 0.0
N1846 N 0.50499 0.46962 0.15317 0.0
N1847 N 0.53176 0.36901 0.05633 0.0
C1848 C 0.51841 0.44309 0.13498 0.0
C1849 C 0.53249 0.39037 0.08595 0.0
N1850 N 0.55596 0.4794 0.09654 0.0
N1851 N 0.50525 0.35046 0.13194 0.0
H1852 H 0.54114 0.37589 0.02852 0.0
H1853 H 0.51771 0.34707 0.0576 0.0
H1854 H 0.49279 0.34417 0.15819 0.0
H1855 H 0.51204 0.32957 0.11658 0.0
H1856 H 0.55373 0.4995 0.11462 0.0
H1857 H 0.57084 0.48431 0.0719 0.0
H1858 H 0.50941 0.49498 0.1444 0.0
H1859 H 0.48704 0.46631 0.17487 0.0
C1860 C 0.89157 0.25847 0.40503 0.0
C1861 C 0.86705 0.2692 0.37909 0.0
C1862 C 0.83957 0.21469 0.39648 0.0
C1863 C 0.86708 0.20215 0.4163 0.0
N1864 N 0.92378 0.21066 0.42628 0.0
N1865 N 0.82122 0.25179 0.34314 0.0
C1866 C 0.89451 0.22354 0.41645 0.0
C1867 C 0.84197 0.24571 0.37267 0.0
N1868 N 0.91112 0.28144 0.42079 0.0
N1869 N 0.8107 0.19842 0.40171 0.0
H1870 H 0.82332 0.27253 0.32294 0.0
H1871 H 0.80433 0.23387 0.33595 0.0
H1872 H 0.80708 0.17713 0.42084 0.0
H1873 H 0.78957 0.20871 0.39059 0.0
H1874 H 0.92793 0.27422 0.44158 0.0
H1875 H 0.90741 0.30759 0.41773 0.0
H1876 H 0.94466 0.22543 0.42424 0.0
H1877 H 0.92787 0.18471 0.43115 0.0
C1878 C 0.98302 0.60258 0.60139 0.0
C1879 C 0.95429 0.62064 0.6093 0.0
C1880 C 0.98245 0.65315 0.65611 0.0
C1881 C 1.00911 0.6318 0.65253 0.0
N1882 N 0.03419 0.58309 0.62603 0.0
N1883 N 0.92539 0.65793 0.65209 0.0
C1884 C 1.00935 0.60561 0.62628 0.0
C1885 C 0.95363 0.64465 0.63873 0.0
N1886 N 0.98583 0.58393 0.56937 0.0
N1887 N 0.98485 0.68176 0.6762 0.0
H1888 H 0.90299 0.65101 0.64284 0.0
H1889 H 0.9238 0.67273 0.67608 0.0
H1890 H 1.00609 0.68868 0.68899 0.0
H1891 H 0.967 0.70022 0.67661 0.0
H1892 H 1.00737 0.57301 0.56044 0.0
H1893 H 0.96767 0.58216 0.54945 0.0
H1894 H 0.03411 0.56141 0.61027 0.0
H1895 H 0.05371 0.58464 0.64409 0.0
C1896 C 0.646 0.2783 0.59824 0.0
C1897 C 0.65725 0.28423 0.63568 0.0
C1898 C 0.64887 0.22488 0.65599 0.0
C1899 C 0.64223 0.2173 0.61728 0.0
N1900 N 0.64521 0.23839 0.54853 0.0
N1901 N 0.68087 0.26006 0.69433 0.0
C1902 C 0.64405 0.2443 0.58726 0.0
C1903 C 0.6631 0.25627 0.66223 0.0
N1904 N 0.6356 0.30429 0.5737 0.0
N1905 N 0.63934 0.20381 0.68729 0.0
H1906 H 0.69247 0.28287 0.69902 0.0
H1907 H 0.68676 0.23955 0.71343 0.0
H1908 H 0.62403 0.18314 0.68503 0.0
H1909 H 0.64255 0.21004 0.71592 0.0
H1910 H 0.62378 0.30004 0.54817 0.0
H1911 H 0.63611 0.32971 0.57994 0.0
H1912 H 0.6493 0.25782 0.52693 0.0
H1913 H 0.64637 0.2146 0.53741 0.0
C1914 C 0.98327 0.4147 0.86884 0.0
C1915 C 0.97215 0.3887 0.89689 0.0
C1916 C 0.02859 0.3702 0.90392 0.0
C1917 C 0.03893 0.39286 0.87231 0.0
N1918 N 0.02438 0.43315 0.82023 0.0
N1919 N 0.98496 0.33527 0.93119 0.0
C1920 C 0.01565 0.4138 0.85319 0.0
C1921 C 0.99509 0.36474 0.91173 0.0
N1922 N 0.9639 0.44155 0.85884 0.0
N1923 N 0.05055 0.35358 0.92678 0.0
H1924 H 0.96085 0.32859 0.93397 0.0
H1925 H 1.00046 0.31559 0.93955 0.0
H1926 H 0.07528 0.35627 0.92213 0.0
H1927 H 0.04407 0.33946 0.95248 0.0
H1928 H 0.97188 0.46269 0.84149 0.0
H1929 H 0.94109 0.44473 0.87131 0.0
H1930 H 1.00782 0.44619 0.80283 0.0
H1931 H 0.04781 0.43392 0.8086 0.0
C1932 C 0.85861 0.76679 0.12938 0.0
C1933 C 0.88806 0.78504 0.12908 0.0
C1934 C 0.9168 0.73267 0.1479 0.0
C1935 C 0.88738 0.71419 0.14854 0.0
N1936 N 0.82962 0.7139 0.14585 0.0
N1937 N 0.94309 0.78754 0.14792 0.0
C1938 C 0.85806 0.73126 0.14056 0.0
C1939 C 0.91661 0.76855 0.14096 0.0
N1940 N 0.83114 0.78365 0.1194 0.0
N1941 N 0.94514 0.71583 0.15331 0.0
H1942 H 0.9432 0.81399 0.14494 0.0
H1943 H 0.96375 0.7776 0.16047 0.0
H1944 H 0.94643 0.6898 0.16018 0.0
H1945 H 0.96762 0.72711 0.14818 0.0
H1946 H 0.80955 0.77175 0.11406 0.0
H1947 H 0.83017 0.81005 0.11557 0.0
H1948 H 0.80712 0.72522 0.14441 0.0
H1949 H 0.82831 0.68804 0.15414 0.0
C1950 C 0.52508 0.59779 0.39232 0.0
C1951 C 0.54087 0.62601 0.40778 0.0
C1952 C 0.48921 0.65771 0.40295 0.0
C1953 C 0.47293 0.62892 0.39044 0.0
N1954 N 0.47475 0.56961 0.37827 0.0
N1955 N 0.53246 0.6792 0.43917 0.0
C1956 C 0.49075 0.59838 0.3867 0.0
C1957 C 0.52135 0.65477 0.41651 0.0
N1958 N 0.54268 0.56995 0.38357 0.0
N1959 N 0.47423 0.68856 0.40145 0.0
H1960 H 0.55532 0.67989 0.45013 0.0
H1961 H 0.51762 0.69772 0.45033 0.0
H1962 H 0.4506 0.69202 0.39301 0.0
H1963 H 0.48623 0.71125 0.40532 0.0
H1964 H 0.53396 0.55053 0.36768 0.0
H1965 H 0.56664 0.56677 0.39078 0.0
H1966 H 0.48509 0.54559 0.37916 0.0
H1967 H 0.45022 0.56929 0.37308 0.0
C1968 C 0.38479 0.27599 0.12501 0.0
C1969 C 0.36102 0.25142 0.13604 0.0
C1970 C 0.3436 0.28578 0.19014 0.0
C1971 C 0.36405 0.31287 0.17512 0.0
N1972 N 0.39926 0.33522 0.12218 0.0
N1973 N 0.31544 0.23385 0.17689 0.0
C1974 C 0.38364 0.30823 0.14112 0.0
C1975 C 0.33985 0.25645 0.16821 0.0
N1976 N 0.40846 0.26841 0.09867 0.0
N1977 N 0.32869 0.28742 0.22588 0.0
H1978 H 0.31252 0.21208 0.16168 0.0
H1979 H 0.29702 0.23788 0.19722 0.0
H1980 H 0.33175 0.30776 0.24333 0.0
H1981 H 0.31589 0.26719 0.23982 0.0
H1982 H 0.42837 0.28401 0.09205 0.0
H1983 H 0.4098 0.24479 0.08668 0.0
H1984 H 0.41142 0.33386 0.09541 0.0
H1985 H 0.39676 0.3599 0.13058 0.0
C1986 C 0.4988 0.6204 0.87317 0.0
C1987 C 0.51441 0.58996 0.86565 0.0
C1988 C 0.47771 0.55755 0.91045 0.0
C1989 C 0.46368 0.58861 0.92072 0.0
N1990 N 0.46404 0.65038 0.91536 0.0
N1991 N 0.52259 0.53021 0.87834 0.0
C1992 C 0.4752 0.62026 0.90321 0.0
C1993 C 0.50496 0.5586 0.88462 0.0
N1994 N 0.5061 0.64938 0.8506 0.0
N1995 N 0.46485 0.5273 0.92504 0.0
H1996 H 0.54227 0.53058 0.85877 0.0
H1997 H 0.51908 0.507 0.89405 0.0
H1998 H 0.44553 0.52573 0.94505 0.0
H1999 H 0.47203 0.50383 0.9157 0.0
H2000 H 0.49256 0.67154 0.85103 0.0
H2001 H 0.52414 0.65052 0.82885 0.0
H2002 H 0.47486 0.67378 0.90767 0.0
H2003 H 0.4452 0.65212 0.93517 0.0
C2004 C 0.13486 0.77684 0.60141 0.0
C2005 C 0.15572 0.8043 0.61005 0.0
C2006 C 0.17607 0.7672 0.66465 0.0
C2007 C 0.15757 0.73953 0.65335 0.0
N2008 N 0.13148 0.71598 0.59996 0.0
N2009 N 0.20585 0.81699 0.6405 0.0
C2010 C 0.14056 0.74378 0.61849 0.0
C2011 C 0.17911 0.79715 0.6391 0.0
N2012 N 0.10901 0.78117 0.57806 0.0
N2013 N 0.1906 0.76538 0.6997 0.0
H2014 H 0.21205 0.83586 0.61903 0.0
H2015 H 0.22441 0.81078 0.65925 0.0
H2016 H 0.18848 0.74427 0.71945 0.0
H2017 H 0.20207 0.78622 0.71043 0.0
H2018 H 0.09225 0.76185 0.57534 0.0
H2019 H 0.10146 0.80382 0.56464 0.0
H2020 H 0.12136 0.71754 0.57256 0.0
H2021 H 0.13886 0.69177 0.6094 0.0
C2022 C 0.04762 0.39215 0.36048 0.0
C2023 C 0.02121 0.37578 0.38033 0.0
C2024 C 0.04572 0.38203 0.44288 0.0
C2025 C 0.07401 0.39389 0.4226 0.0
N2026 N 0.10353 0.40856 0.3624 0.0
N2027 N 0.99503 0.35231 0.43932 0.0
C2028 C 0.07536 0.39895 0.38143 0.0
C2029 C 0.02002 0.37025 0.42136 0.0
N2030 N 0.04585 0.4012 0.32164 0.0
N2031 N 0.04357 0.38225 0.48258 0.0
H2032 H 0.9759 0.34316 0.42412 0.0
H2033 H 0.99432 0.34433 0.46876 0.0
H2034 H 0.06212 0.3912 0.49892 0.0
H2035 H 0.02259 0.37652 0.49894 0.0
H2036 H 0.06307 0.41605 0.30594 0.0
H2037 H 0.02564 0.39602 0.30578 0.0
H2038 H 0.10702 0.40912 0.33229 0.0
H2039 H 0.12423 0.41401 0.37704 0.0
C2040 C 0.39936 0.76568 0.43321 0.0
C2041 C 0.37553 0.78955 0.42105 0.0
C2042 C 0.34172 0.74298 0.40159 0.0
C2043 C 0.36531 0.71941 0.41454 0.0
N2044 N 0.41134 0.70707 0.45311 0.0
N2045 N 0.31999 0.79957 0.40477 0.0
C2046 C 0.39226 0.73043 0.43417 0.0
C2047 C 0.34544 0.77788 0.40847 0.0
N2048 N 0.42943 0.77651 0.44158 0.0
N2049 N 0.3162 0.73201 0.38171 0.0
H2050 H 0.32111 0.82502 0.41094 0.0
H2051 H 0.2968 0.79156 0.39936 0.0
H2052 H 0.31183 0.70628 0.37849 0.0
H2053 H 0.30042 0.7484 0.36704 0.0
H2054 H 0.44856 0.76003 0.44679 0.0
H2055 H 0.43626 0.80202 0.43941 0.0
H2056 H 0.42991 0.71363 0.47082 0.0
H2057 H 0.40649 0.68106 0.45394 0.0
C2058 C 0.03948 0.58344 0.15312 0.0
C2059 C 0.05415 0.61212 0.13228 0.0
C2060 C 0.99992 0.63728 0.12433 0.0
C2061 C 0.98569 0.61089 0.14899 0.0
N2062 N 0.99202 0.55825 0.18706 0.0
N2063 N 0.04797 0.67015 0.1072 0.0
C2064 C 1.00565 0.58391 0.16361 0.0
C2065 C 0.03416 0.63999 0.1203 0.0
N2066 N 0.05743 0.55509 0.16129 0.0
N2067 N 0.98077 0.65956 0.10386 0.0
H2068 H 0.07271 0.67404 0.10701 0.0
H2069 H 0.03491 0.69231 0.10141 0.0
H2070 H 0.95577 0.65777 0.10516 0.0
H2071 H 0.9897 0.67742 0.0826 0.0
H2072 H 0.04782 0.53201 0.17252 0.0
H2073 H 0.08191 0.55387 0.15434 0.0
H2074 H 1.00514 0.54009 0.20302 0.0
H2075 H 0.9672 0.55581 0.19126 0.0
C2076 C 0.10799 0.2801 0.88732 0.0
C2077 C 0.13428 0.30009 0.89855 0.0
C2078 C 0.15486 0.24977 0.93577 0.0
C2079 C 0.13123 0.22932 0.91949 0.0
N2080 N 0.0887 0.22443 0.87405 0.0
N2081 N 0.18528 0.30253 0.9298 0.0
C2082 C 0.10885 0.2443 0.89357 0.0
C2083 C 0.15828 0.28469 0.92225 0.0
N2084 N 0.08148 0.29536 0.87171 0.0
N2085 N 0.17433 0.23574 0.96365 0.0
H2086 H 0.18904 0.32778 0.91995 0.0
H2087 H 0.20517 0.29154 0.94315 0.0
H2088 H 0.17349 0.21004 0.97289 0.0
H2089 H 0.18968 0.25001 0.97955 0.0
H2090 H 0.06031 0.28228 0.86711 0.0
H2091 H 0.07917 0.32154 0.86747 0.0
H2092 H 0.07464 0.23397 0.85136 0.0
H2093 H 0.08789 0.19804 0.87808 0.0
C2094 C 0.53225 0.34426 0.64195 0.0
C2095 C 0.54992 0.37436 0.64775 0.0
C2096 C 0.49946 0.40744 0.64098 0.0
C2097 C 0.48203 0.37753 0.63376 0.0
N2098 N 0.48375 0.31841 0.6195 0.0
N2099 N 0.55128 0.43554 0.64419 0.0
C2100 C 0.49905 0.34624 0.63193 0.0
C2101 C 0.53376 0.40622 0.64466 0.0
N2102 N 0.54727 0.3135 0.64598 0.0
N2103 N 0.48321 0.43724 0.64438 0.0
H2104 H 0.57611 0.43581 0.64683 0.0
H2105 H 0.54179 0.45957 0.63785 0.0
H2106 H 0.45865 0.43965 0.6399 0.0
H2107 H 0.49353 0.45903 0.65422 0.0
H2108 H 0.53512 0.29034 0.64769 0.0
H2109 H 0.57198 0.31107 0.64942 0.0
H2110 H 0.49548 0.2961 0.61303 0.0
H2111 H 0.45953 0.31826 0.61282 0.0
C2112 C 0.1098 1.00152 0.26255 0.0
C2113 C 0.13553 0.00835 0.28691 0.0
C2114 C 0.16111 0.95513 0.27295 0.0
C2115 C 0.13842 0.95146 0.24352 0.0
N2116 N 0.0938 0.9731 0.20626 0.0
N2117 N 0.17655 0.98543 0.32844 0.0
C2118 C 0.11339 0.9751 0.23719 0.0
C2119 C 0.15859 0.98322 0.29607 0.0
N2120 N 0.08118 0.01815 0.26562 0.0
N2121 N 0.18618 0.93307 0.27708 0.0
H2122 H 0.173 1.0046 0.34764 0.0
H2123 H 0.19208 0.96655 0.33883 0.0
H2124 H 0.18798 0.91118 0.26209 0.0
H2125 H 0.20613 0.93734 0.29361 0.0
H2126 H 0.06113 0.01217 0.25 0.0
H2127 H 0.07543 0.03338 0.28833 0.0
H2128 H 0.07742 0.99198 0.19813 0.0
H2129 H 0.09597 0.95423 0.18649 0.0
C2130 C 0.24279 0.85012 0.50195 0.0
C2131 C 0.22426 0.87855 0.48939 0.0
C2132 C 0.27186 0.90929 0.46548 0.0
C2133 C 0.29082 0.88063 0.47689 0.0
N2134 N 0.29373 0.8209 0.49719 0.0
N2135 N 0.21898 0.92997 0.44911 0.0
C2136 C 0.27617 0.85004 0.49252 0.0
C2137 C 0.23817 0.90621 0.46725 0.0
N2138 N 0.22859 0.82393 0.52408 0.0
N2139 N 0.28601 0.94003 0.45546 0.0
H2140 H 0.19396 0.92792 0.45047 0.0
H2141 H 0.22786 0.9495 0.42989 0.0
H2142 H 0.31068 0.94398 0.45676 0.0
H2143 H 0.27308 0.96236 0.45024 0.0
H2144 H 0.24144 0.8045 0.53835 0.0
H2145 H 0.20377 0.82259 0.5293 0.0
H2146 H 0.28346 0.79723 0.50485 0.0
H2147 H 0.31825 0.81981 0.49035 0.0
C2148 C 0.40827 0.96028 0.74885 0.0
C2149 C 0.38934 0.95267 0.78355 0.0
C2150 C 0.36429 0.00841 0.7765 0.0
C2151 C 0.38591 0.01767 0.74514 0.0
N2152 N 0.43009 1.00368 0.70221 0.0
N2153 N 0.35468 0.97248 0.83499 0.0
C2154 C 0.40844 0.99398 0.7315 0.0
C2155 C 0.36898 0.97765 0.79879 0.0
N2156 N 0.42458 0.93514 0.73114 0.0
N2157 N 0.33797 0.02795 0.78337 0.0
H2158 H 0.35818 0.95061 0.85299 0.0
H2159 H 0.34213 0.99142 0.84872 0.0
H2160 H 0.33229 0.04893 0.76497 0.0
H2161 H 0.31984 0.02085 0.80386 0.0
H2162 H 0.43547 0.93851 0.70352 0.0
H2163 H 0.42486 0.90994 0.74207 0.0
H2164 H 0.44973 0.98899 0.69443 0.0
H2165 H 0.42956 0.02743 0.68709 0.0
C2166 C 0.24002 0.14162 0.96902 0.0
C2167 C 0.21403 0.11992 0.98113 0.0
C2168 C 0.24602 0.09223 0.03231 0.0
C2169 C 0.273 0.11128 1.01778 0.0
N2170 N 0.29692 0.15344 0.97132 0.0
N2171 N 0.19327 0.07122 0.02048 0.0
C2172 C 0.27038 0.13589 0.98587 0.0
C2173 C 0.21735 0.09421 1.0116 0.0
N2174 N 0.23526 0.16863 0.94286 0.0
N2175 N 0.24707 0.07411 0.06746 0.0
H2176 H 0.17131 0.07234 1.00713 0.0
H2177 H 0.19598 0.04945 0.03884 0.0
H2178 H 0.26722 0.07383 0.0846 0.0
H2179 H 0.22703 0.06266 0.0817 0.0
H2180 H 0.25212 0.1878 0.93624 0.0
H2181 H 0.21339 0.17341 0.92963 0.0
H2182 H 0.29742 0.16848 0.94534 0.0
H2183 H 0.31941 0.15112 0.98353 0.0
C2184 C 0.912 0.04173 0.79104 0.0
C2185 C 0.89044 0.06761 0.78038 0.0
C2186 C 0.86115 0.02999 0.74091 0.0
C2187 C 0.87863 1.00248 0.75848 0.0
N2188 N 0.91905 0.98161 0.80341 0.0
N2189 N 0.84536 0.08858 0.74371 0.0
C2190 C 0.9039 0.00814 0.78416 0.0
C2191 C 0.8655 0.06257 0.7544 0.0
N2192 N 0.94016 0.04966 0.8076 0.0
N2193 N 0.84171 0.02551 0.71029 0.0
H2194 H 0.85003 0.11367 0.74935 0.0
H2195 H 0.82368 0.08514 0.73016 0.0
H2196 H 0.83815 1.00226 0.69844 0.0
H2197 H 0.83146 0.04553 0.69387 0.0
H2198 H 0.95824 0.03204 0.81357 0.0
H2199 H 0.94661 0.07488 0.811 0.0
H2200 H 0.93527 0.98485 0.82533 0.0
H2201 H 0.91332 0.95625 0.80031 0.0
C2202 C 0.74559 0.10297 0.56421 0.0
C2203 C 0.72535 0.13091 0.55441 0.0
C2204 C 0.77167 0.16384 0.52853 0.0
C2205 C 0.79148 0.13642 0.54068 0.0
N2206 N 0.79912 0.08546 0.58126 0.0
N2207 N 0.72029 0.1911 0.53718 0.0
C2208 C 0.77895 0.10805 0.56286 0.0
C2209 C 0.73862 0.16245 0.53942 0.0
N2210 N 0.73308 0.07117 0.57233 0.0
N2211 N 0.7843 0.19053 0.50579 0.0
H2212 H 0.69637 0.19126 0.54676 0.0
H2213 H 0.7297 0.21518 0.52951 0.0
H2214 H 0.80889 0.19276 0.49916 0.0
H2215 H 0.77024 0.20935 0.49223 0.0
H2216 H 0.74728 0.0496 0.57665 0.0
H2217 H 0.70874 0.06584 0.5699 0.0
H2218 H 0.79092 0.06537 0.60017 0.0
H2219 H 0.82396 0.08921 0.58064 0.0
C2220 C 0.59697 0.03502 0.25627 0.0
C2221 C 0.6216 0.05944 0.26147 0.0
C2222 C 0.6514 0.01678 0.30023 0.0
C2223 C 0.62682 0.99256 0.29585 0.0
N2224 N 0.57136 0.98258 0.28153 0.0
N2225 N 0.66194 0.07627 0.30531 0.0
C2226 C 0.59811 1.00281 0.27735 0.0
C2227 C 0.64573 0.05117 0.28864 0.0
N2228 N 0.57278 0.04169 0.23108 0.0
N2229 N 0.68071 0.00717 0.31379 0.0
H2230 H 0.65543 0.10173 0.30117 0.0
H2231 H 0.6783 0.07137 0.32729 0.0
H2232 H 0.68686 0.98196 0.32048 0.0
H2233 H 0.69999 0.02405 0.31417 0.0
H2234 H 0.55758 0.02285 0.22219 0.0
H2235 H 0.56835 0.06535 0.2176 0.0
H2236 H 0.54885 0.99032 0.27205 0.0
H2237 H 0.57069 0.95969 0.29849 0.0
C2238 C 0.76498 0.92495 0.02334 0.0
C2239 C 0.7445 0.89633 0.02089 0.0
C2240 C 0.78834 0.85966 0.04391 0.0
C2241 C 0.80547 0.8885 0.05395 0.0
N2242 N 0.80753 0.94935 0.0585 0.0
N2243 N 0.7358 0.83599 0.03971 0.0
C2244 C 0.7928 0.9214 0.0458 0.0
C2245 C 0.75583 0.86345 0.0341 0.0
N2246 N 0.75968 0.95469 1.00192 0.0
N2247 N 0.80282 0.82864 0.04348 0.0
H2248 H 0.71113 0.83708 0.037 0.0
H2249 H 0.74322 0.81276 0.0525 0.0
H2250 H 0.8269 0.82479 0.04975 0.0
H2251 H 0.79173 0.80758 0.03276 0.0
H2252 H 0.77564 0.97516 1.0009 0.0
H2253 H 0.7423 0.95732 0.98084 0.0
H2254 H 0.79736 0.9735 0.05606 0.0
H2255 H 0.82829 0.94787 0.07455 0.0
C2256 C 0.6655 0.48646 0.78663 0.0
C2257 C 0.65201 0.51543 0.76681 0.0
C2258 C 0.61613 0.47931 0.7329 0.0
C2259 C 0.6328 0.45069 0.74792 0.0
N2260 N 0.67387 0.42587 0.78884 0.0
N2261 N 0.61756 0.53967 0.71699 0.0
C2262 C 0.65749 0.45384 0.77499 0.0
C2263 C 0.62817 0.51192 0.7387 0.0
N2264 N 0.68449 0.48988 0.81784 0.0
N2265 N 0.58822 0.475 0.71401 0.0
H2266 H 0.62606 0.56417 0.72007 0.0
H2267 H 0.60256 0.538 0.69353 0.0
H2268 H 0.5782 0.45093 0.71203 0.0
H2269 H 0.57337 0.49496 0.7048 0.0
H2270 H 0.69151 0.46952 0.83638 0.0
H2271 H 0.69145 0.51326 0.82715 0.0
H2272 H 0.69534 0.42719 0.80343 0.0
H2273 H 0.66648 0.40119 0.78487 0.0
C2274 C 0.77414 0.35077 0.99614 0.0
C2275 C 0.79437 0.37955 0.9957 0.0
C2276 C 0.75016 0.41591 1.01248 0.0
C2277 C 0.7295 0.38716 1.01431 0.0
N2278 N 0.72138 0.32653 1.01114 0.0
N2279 N 0.80467 0.4359 1.01526 0.0
C2280 C 0.74126 0.35427 1.00692 0.0
C2281 C 0.78333 0.411 1.00769 0.0
N2282 N 0.78663 0.32032 0.98643 0.0
N2283 N 0.73804 0.44811 1.01282 0.0
H2284 H 0.82943 0.43236 1.01344 0.0
H2285 H 0.79795 0.45834 0.02766 0.0
H2286 H 0.71357 0.45337 1.01409 0.0
H2287 H 0.75211 0.46986 1.00732 0.0
H2288 H 0.77295 0.29904 0.98146 0.0
H2289 H 0.81129 0.31655 0.98259 0.0
H2290 H 0.7291 0.30159 1.00974 0.0
H2291 H 0.69696 0.32794 0.01811 0.0
C2292 C 0.91811 0.5116 0.26632 0.0
C2293 C 0.89598 0.52158 0.23701 0.0
C2294 C 0.87509 0.46375 0.24005 0.0
C2295 C 0.8923 0.456 0.27426 0.0
N2296 N 0.92629 0.47542 0.3243 0.0
N2297 N 0.84682 0.50787 0.20469 0.0
C2298 C 0.91287 0.48062 0.28867 0.0
C2299 C 0.87267 0.49789 0.22601 0.0
N2300 N 0.9446 0.53085 0.27232 0.0
N2301 N 0.86152 0.43864 0.22038 0.0
H2302 H 0.84147 0.53308 0.19716 0.0
H2303 H 0.82819 0.4913 0.19916 0.0
H2304 H 0.86417 0.41293 0.22847 0.0
H2305 H 0.85104 0.44335 0.19345 0.0
H2306 H 0.96269 0.52259 0.29092 0.0
H2307 H 0.9506 0.55307 0.25578 0.0
H2308 H 0.93859 0.49441 0.33748 0.0
H2309 H 0.92233 0.45367 0.34261 0.0
C2310 C 0.74547 0.65769 0.47715 0.0
C2311 C 0.72826 0.62922 0.46637 0.0
C2312 C 0.76748 0.5912 0.497 0.0
C2313 C 0.78659 0.61963 0.50468 0.0
N2314 N 0.7981 0.6795 0.48704 0.0
N2315 N 0.72873 0.56912 0.45468 0.0
C2316 C 0.77692 0.65289 0.49055 0.0
C2317 C 0.74143 0.59611 0.47194 0.0
N2318 N 0.73227 0.68941 0.47389 0.0
N2319 N 0.77229 0.56004 0.5156 0.0
H2320 H 0.70911 0.5709 0.43674 0.0
H2321 H 0.73967 0.54534 0.45559 0.0
H2322 H 0.78883 0.55562 0.53739 0.0
H2323 H 0.75685 0.53952 0.51307 0.0
H2324 H 0.74269 0.71035 0.48566 0.0
H2325 H 0.70999 0.69435 0.46174 0.0
H2326 H 0.79234 0.70321 0.47406 0.0
H2327 H 0.82255 0.67689 0.49134 0.0
C2328 C 0.41418 0.54495 0.27361 0.0
C2329 C 0.38571 0.55821 0.29037 0.0
C2330 C 0.35316 0.52006 0.255 0.0
C2331 C 0.38114 0.50177 0.24625 0.0
N2332 N 0.43709 0.50761 0.22684 0.0
N2333 N 0.32752 0.5564 0.2993 0.0
C2334 C 0.41161 0.51729 0.24948 0.0
C2335 C 0.35499 0.54544 0.28153 0.0
N2336 N 0.44349 0.55764 0.28231 0.0
N2337 N 0.32551 0.51499 0.23577 0.0
H2338 H 0.32727 0.57449 0.31973 0.0
H2339 H 0.30518 0.54494 0.29658 0.0
H2340 H 0.32481 0.49971 0.2122 0.0
H2341 H 0.30504 0.52983 0.23897 0.0
H2342 H 0.46524 0.54651 0.27469 0.0
H2343 H 0.44613 0.57825 0.29947 0.0
H2344 H 0.45956 0.51925 0.22599 0.0
H2345 H 0.43443 0.49109 0.20468 0.0
C2346 C 0.27931 0.63871 1.00182 0.0
C2347 C 0.30333 0.63707 0.03001 0.0
C2348 C 0.26195 0.64911 0.07848 0.0
C2349 C 0.23835 0.63825 0.05305 0.0
N2350 N 0.22729 0.61684 0.98997 0.0
N2351 N 0.31684 0.64201 0.09752 0.0
C2352 C 0.24747 0.63197 1.01418 0.0
C2353 C 0.29476 0.64325 0.06908 0.0
N2354 N 0.28698 0.64595 0.9634 0.0
N2355 N 0.25327 0.66602 0.11049 0.0
H2356 H 0.34119 0.63788 0.09266 0.0
H2357 H 0.31027 0.64292 0.12681 0.0
H2358 H 0.22949 0.67248 0.11692 0.0
H2359 H 0.27014 0.67738 0.12732 0.0
H2360 H 0.26952 0.64909 0.94237 0.0
H2361 H 0.31022 0.65297 0.95393 0.0
H2362 H 0.23467 0.61031 0.96219 0.0
H2363 H 0.20527 0.60631 0.99924 0.0
C2364 C 0.15682 0.48827 0.75018 0.0
C2365 C 0.13404 0.48177 0.78128 0.0
C2366 C 0.12504 0.54247 0.78553 0.0
C2367 C 0.14563 0.54894 0.7523 0.0
N2368 N 0.17602 0.52785 0.6981 0.0
N2369 N 0.09101 0.50153 0.82234 0.0
C2370 C 0.16017 0.52182 0.7332 0.0
C2371 C 0.11646 0.50857 0.79707 0.0
N2372 N 0.17617 0.46285 0.73788 0.0
N2373 N 0.11473 0.56858 0.80699 0.0
H2374 H 0.08355 0.47676 0.83047 0.0
H2375 H 0.07541 0.52005 0.83197 0.0
H2376 H 0.1215 0.59379 0.80029 0.0
H2377 H 0.10225 0.56489 0.83363 0.0
H2378 H 0.19577 0.46714 0.71863 0.0
H2379 H 0.17426 0.43771 0.74899 0.0
H2380 H 0.18393 0.50857 0.68092 0.0
H2381 H 0.17873 0.55206 0.68453 0.0
C2382 C 0.24117 0.37726 0.56629 0.0
C2383 C 0.23803 0.40001 0.53292 0.0
C2384 C 0.29449 0.41568 0.53448 0.0
C2385 C 0.29841 0.39051 0.56545 0.0
N2386 N 0.27678 0.34539 0.60926 0.0
N2387 N 0.26164 0.43812 0.48222 0.0
C2388 C 0.27202 0.37104 0.58134 0.0
C2389 C 0.26455 0.41882 0.51643 0.0
N2390 N 0.21455 0.36182 0.58368 0.0
N2391 N 0.3192 0.43716 0.52282 0.0
H2392 H 0.23994 0.44179 0.46828 0.0
H2393 H 0.28112 0.44858 0.46591 0.0
H2394 H 0.34197 0.43494 0.53399 0.0
H2395 H 0.3166 0.45883 0.50427 0.0
H2396 H 0.21445 0.34847 0.61077 0.0
H2397 H 0.1918 0.36431 0.57223 0.0
H2398 H 0.25931 0.32758 0.6187 0.0
H2399 H 0.29899 0.34032 0.62149 0.0
C2400 C 0.1292 0.10419 0.14724 0.0
C2401 C 0.12165 0.13656 0.12958 0.0
C2402 C 0.1358 0.16276 0.19018 0.0
C2403 C 0.14486 0.13054 0.20715 0.0
N2404 N 0.1569 0.07166 0.19805 0.0
N2405 N 0.12494 0.19729 0.13096 0.0
C2406 C 0.14387 0.10166 0.18434 0.0
C2407 C 0.12703 0.16606 0.15019 0.0
N2408 N 0.12062 0.07565 0.12956 0.0
N2409 N 0.13517 0.19018 0.21247 0.0
H2410 H 0.11974 0.20039 0.10151 0.0
H2411 H 0.13137 0.21978 0.14301 0.0
H2412 H 0.14317 0.18903 0.24096 0.0
H2413 H 0.12523 0.21346 0.20345 0.0
H2414 H 0.12219 0.05121 0.14269 0.0
H2415 H 0.10892 0.07656 0.10318 0.0
H2416 H 0.15957 0.05063 0.18145 0.0
H2417 H 0.16814 0.06882 0.22459 0.0
C2418 C 0.06587 0.84339 0.38442 0.0
C2419 C 0.0823 0.82748 0.41579 0.0
C2420 C 0.11098 0.79063 0.37255 0.0
C2421 C 0.09622 0.80813 0.34091 0.0
N2422 N 0.05438 0.84427 0.31568 0.0
N2423 N 0.11368 0.78132 0.44279 0.0
C2424 C 0.07157 0.83207 0.34668 0.0
C2425 C 0.10244 0.7992 0.41079 0.0
N2426 N 0.0466 0.8706 0.39066 0.0
N2427 N 0.13449 0.76753 0.36556 0.0
H2428 H 0.10756 0.78763 0.47109 0.0
H2429 H 0.12684 0.75901 0.44161 0.0
H2430 H 0.14062 0.76067 0.33748 0.0
H2431 H 0.14872 0.7562 0.38702 0.0
H2432 H 0.03643 0.88579 0.36852 0.0
H2433 H 0.04187 0.87891 0.41845 0.0
H2434 H 0.0346 0.86013 0.31801 0.0
H2435 H 0.05855 0.83618 0.28767 0.0
C2436 C 0.38035 0.87211 0.69107 0.0
C2437 C 0.38904 0.84191 0.71352 0.0
C2438 C 0.40421 0.81641 0.6517 0.0
C2439 C 0.3997 0.84808 0.63038 0.0
N2440 N 0.39015 0.90803 0.63205 0.0
N2441 N 0.41186 0.78585 0.71443 0.0
C2442 C 0.38934 0.87638 0.65066 0.0
C2443 C 0.40187 0.81426 0.69353 0.0
N2444 N 0.36346 0.89712 0.708 0.0
N2445 N 0.4095 0.78805 0.63174 0.0
H2446 H 0.40882 0.7827 0.7446 0.0
H2447 H 0.42474 0.76641 0.70214 0.0
H2448 H 0.41007 0.78871 0.60139 0.0
H2449 H 0.41012 0.7636 0.64501 0.0
H2450 H 0.35327 0.91754 0.69215 0.0
H2451 H 0.35745 0.89627 0.73742 0.0
H2452 H 0.38648 0.93022 0.64641 0.0
H2453 H 0.39799 0.91248 0.60313 0.0
C2454 C 0.37322 0.13402 0.89167 0.0
C2455 C 0.40503 0.14021 0.87802 0.0
C2456 C 0.42205 0.13639 0.94576 0.0
C2457 C 0.39121 0.12351 0.95794 0.0
N2458 N 0.33974 0.10217 0.93871 0.0
N2459 N 0.46123 0.14347 0.89203 0.0
C2460 C 0.36751 0.11977 0.92981 0.0
C2461 C 0.43003 0.14053 0.90507 0.0
N2462 N 0.34819 0.14368 0.86901 0.0
N2463 N 0.44347 0.14485 0.97273 0.0
H2464 H 0.4677 0.14554 0.86247 0.0
H2465 H 0.4806 0.14083 0.91042 0.0
H2466 H 0.43787 0.14283 1.0025 0.0
H2467 H 0.46535 0.15681 0.96536 0.0
H2468 H 0.32465 0.14344 0.88014 0.0
H2469 H 0.35143 0.15614 0.8415 0.0
H2470 H 0.32324 0.097 0.91763 0.0
H2471 H 0.33435 0.09053 0.96608 0.0
C2472 C 0.88038 0.90372 0.85454 0.0
C2473 C 0.88545 0.87768 0.82811 0.0
C2474 C 0.90652 0.84109 0.88251 0.0
C2475 C 0.90562 0.86878 0.90701 0.0
N2476 N 0.89816 0.92873 0.9127 0.0
N2477 N 0.90553 0.82188 0.81678 0.0
C2478 C 0.8941 0.90066 0.89208 0.0
C2479 C 0.89932 0.84648 0.84209 0.0
N2480 N 0.86245 0.93157 0.84412 0.0
N2481 N 0.91288 0.80929 0.89833 0.0
H2482 H 0.89847 0.82403 0.78794 0.0
H2483 H 0.91899 0.80026 0.82384 0.0
H2484 H 0.91702 0.80444 0.92789 0.0
H2485 H 0.91103 0.78742 0.88314 0.0
H2486 H 0.85518 0.94934 0.8637 0.0
H2487 H 0.85244 0.93554 0.81698 0.0
H2488 H 0.89335 0.95331 0.90156 0.0
H2489 H 0.90983 0.92795 0.9391 0.0
C2490 C 0.90248 0.22882 0.66065 0.0
C2491 C 0.92126 0.21506 0.69114 0.0
C2492 C 0.95142 0.18048 0.64663 0.0
C2493 C 0.93108 0.19241 0.61671 0.0
N2494 N 0.89348 0.23346 0.59114 0.0
N2495 N 0.96829 0.18539 0.71291 0.0
C2496 C 0.90874 0.21872 0.62241 0.0
C2497 C 0.94769 0.19372 0.68375 0.0
N2498 N 0.87755 0.2498 0.66911 0.0
N2499 N 0.97257 0.1549 0.64008 0.0
H2500 H 0.96542 0.19458 0.74054 0.0
H2501 H 0.98944 0.17183 0.70905 0.0
H2502 H 0.97561 0.14479 0.61296 0.0
H2503 H 0.98589 0.14245 0.6617 0.0
H2504 H 0.86056 0.25812 0.64914 0.0
H2505 H 0.8734 0.258 0.69706 0.0
H2506 H 0.87838 0.25435 0.59263 0.0
H2507 H 0.89804 0.22621 0.56286 0.0
C2508 C 0.63355 0.18735 0.38626 0.0
C2509 C 0.61482 0.16059 0.40494 0.0
C2510 C 0.59822 0.14384 0.34075 0.0
C2511 C 0.61868 0.16937 0.32125 0.0
N2512 N 0.65819 0.2135 0.32651 0.0
N2513 N 0.5847 0.10949 0.40038 0.0
C2514 C 0.63721 0.19039 0.34444 0.0
C2515 C 0.59884 0.13775 0.38215 0.0
N2516 N 0.64705 0.21047 0.40874 0.0
N2517 N 0.57742 0.12561 0.32025 0.0
H2518 H 0.58438 0.10478 0.43057 0.0
H2519 H 0.57613 0.08924 0.38567 0.0
H2520 H 0.57555 0.12804 0.29032 0.0
H2521 H 0.5595 0.10994 0.33333 0.0
H2522 H 0.65822 0.23279 0.39758 0.0
H2523 H 0.64541 0.20808 0.43911 0.0
H2524 H 0.67516 0.22671 0.34125 0.0
H2525 H 0.65957 0.21854 0.29639 0.0
C2526 C 0.64502 0.86687 0.10814 0.0
C2527 C 0.62279 0.88437 0.08375 0.0
C2528 C 0.58582 0.88899 0.13991 0.0
C2529 C 0.60697 0.86869 0.1627 0.0
N2530 N 0.65325 0.83274 0.16779 0.0
N2531 N 0.57108 0.91105 0.07549 0.0
C2532 C 0.6353 0.85553 0.14632 0.0
C2533 C 0.59278 0.89514 0.09933 0.0
N2534 N 0.6764 0.86419 0.09625 0.0
N2535 N 0.55991 0.9034 0.15762 0.0
H2536 H 0.57616 0.91775 0.04618 0.0
H2537 H 0.54753 0.9162 0.08421 0.0
H2538 H 0.55418 0.89855 0.18719 0.0
H2539 H 0.54524 0.92145 0.14379 0.0
H2540 H 0.69433 0.85433 0.11411 0.0
H2541 H 0.68519 0.87633 0.07046 0.0
H2542 H 0.67274 0.81987 0.1561 0.0
H2543 H 0.64676 0.8244 0.19635 0.0
C2544 C 0.635 0.67299 0.68618 0.0
C2545 C 0.65304 0.64386 0.69837 0.0
C2546 C 0.65569 0.62703 0.63047 0.0
C2547 C 0.63454 0.65383 0.61917 0.0
N2548 N 0.60435 0.70289 0.63542 0.0
N2549 N 0.67844 0.59131 0.68219 0.0
C2550 C 0.62446 0.6771 0.64688 0.0
C2551 C 0.66356 0.6209 0.67034 0.0
N2552 N 0.62862 0.69706 0.71218 0.0
N2553 N 0.66756 0.60641 0.60326 0.0
H2554 H 0.68376 0.58485 0.71093 0.0
H2555 H 0.683 0.57147 0.66429 0.0
H2556 H 0.65805 0.60533 0.57585 0.0
H2557 H 0.68801 0.59168 0.60749 0.0
H2558 H 0.61772 0.72023 0.70506 0.0
H2559 H 0.63659 0.69491 0.74068 0.0
H2560 H 0.59294 0.71881 0.6544 0.0
H2561 H 0.59818 0.70766 0.60643 0.0
C2562 C 0.58323 0.27508 0.87186 0.0
C2563 C 0.61135 0.27856 0.84761 0.0
C2564 C 0.64337 0.2915 0.90247 0.0
C2565 C 0.6142 0.2958 0.92375 0.0
N2566 N 0.56088 0.27587 0.93797 0.0
N2567 N 0.66853 0.2741 0.84222 0.0
C2568 C 0.58593 0.28064 0.91178 0.0
C2569 C 0.64173 0.2805 0.86429 0.0
N2570 N 0.55391 0.27042 0.85638 0.0
N2571 N 0.67178 0.30126 0.91702 0.0
H2572 H 0.66681 0.26667 0.81376 0.0
H2573 H 0.69165 0.27337 0.8529 0.0
H2574 H 0.67376 0.30762 0.94569 0.0
H2575 H 0.69331 0.30297 0.90081 0.0
H2576 H 0.53232 0.27173 0.87229 0.0
H2577 H 0.55092 0.26622 0.82723 0.0
H2578 H 0.53966 0.26347 0.93202 0.0
H2579 H 0.56309 0.28203 0.96686 0.0
C2580 C 0.92259 0.36318 0.15235 0.0
C2581 C 0.90206 0.34473 0.12961 0.0
C2582 C 0.87286 0.32247 0.18964 0.0
C2583 C 0.89181 0.34329 0.21246 0.0
N2584 N 0.93061 0.38956 0.21229 0.0
N2585 N 0.85555 0.30953 0.12509 0.0
C2586 C 0.91574 0.36509 0.19297 0.0
C2587 C 0.87647 0.32526 0.14789 0.0
N2588 N 0.94903 0.37897 0.13494 0.0
N2589 N 0.85253 0.29886 0.20788 0.0
H2590 H 0.85843 0.31035 0.09482 0.0
H2591 H 0.83436 0.2978 0.13573 0.0
H2592 H 0.85014 0.29527 0.2381 0.0
H2593 H 0.84018 0.28079 0.19335 0.0
H2594 H 0.96754 0.38893 0.15045 0.0
H2595 H 0.95366 0.37988 0.10493 0.0
H2596 H 0.94467 0.40887 0.19843 0.0
H2597 H 0.92655 0.39319 0.24146 0.0
C2598 C 0.8894 0.65635 0.38107 0.0
C2599 C 0.92017 0.64789 0.36666 0.0
C2600 C 0.93665 0.63192 0.43305 0.0
C2601 C 0.9044 0.63592 0.44647 0.0
N2602 N 0.84865 0.64268 0.43035 0.0
N2603 N 0.9726 0.62436 0.37732 0.0
C2604 C 0.88036 0.64596 0.41979 0.0
C2605 C 0.94387 0.63499 0.39225 0.0
N2606 N 0.86875 0.67418 0.35751 0.0
N2607 N 0.96026 0.62565 0.45921 0.0
H2608 H 0.97831 0.62632 0.34755 0.0
H2609 H 0.9897 0.61149 0.39402 0.0
H2610 H 0.95561 0.62331 0.48923 0.0
H2611 H 0.98462 0.6255 0.45141 0.0
H2612 H 0.84685 0.68352 0.36762 0.0
H2613 H 0.87511 0.68265 0.32895 0.0
H2614 H 0.83011 0.64685 0.41097 0.0
H2615 H 0.84121 0.63134 0.45711 0.0
C2616 C 0.38299 0.34315 0.35248 0.0
C2617 C 0.37969 0.3764 0.33473 0.0
C2618 C 0.39441 0.40027 0.39642 0.0
C2619 C 0.3961 0.36711 0.41481 0.0
N2620 N 0.38526 0.30743 0.41267 0.0
N2621 N 0.37515 0.43654 0.34253 0.0
C2622 C 0.38847 0.33864 0.39341 0.0
C2623 C 0.38308 0.40491 0.35766 0.0
N2624 N 0.38137 0.31587 0.3301 0.0
N2625 N 0.40536 0.42727 0.41521 0.0
H2626 H 0.36648 0.44085 0.31462 0.0
H2627 H 0.37407 0.45786 0.35885 0.0
H2628 H 0.41485 0.42468 0.44291 0.0
H2629 H 0.40794 0.45167 0.40203 0.0
H2630 H 0.3871 0.29123 0.34012 0.0
H2631 H 0.37604 0.31827 0.30062 0.0
H2632 H 0.3769 0.28605 0.39985 0.0
H2633 H 0.38809 0.30366 0.44264 0.0
C2634 C 0.45839 0.68542 0.18752 0.0
C2635 C 0.43171 0.70627 0.19537 0.0
C2636 C 0.41959 0.71209 0.12673 0.0
C2637 C 0.44246 0.68651 0.12019 0.0
N2638 N 0.4842 0.6487 0.14225 0.0
N2639 N 0.38767 0.74111 0.1745 0.0
C2640 C 0.46266 0.6737 0.1498 0.0
C2641 C 0.41292 0.72078 0.16535 0.0
N2642 N 0.47871 0.67614 0.21667 0.0
N2643 N 0.40418 0.72737 0.09588 0.0
H2644 H 0.38313 0.74826 0.20287 0.0
H2645 H 0.37075 0.74991 0.15472 0.0
H2646 H 0.40899 0.72101 0.06726 0.0
H2647 H 0.3886 0.74776 0.09805 0.0
H2648 H 0.5 0.66296 0.2125 0.0
H2649 H 0.47541 0.68407 0.24489 0.0
H2650 H 0.49742 0.6356 0.16344 0.0
H2651 H 0.4877 0.63973 0.11454 0.0
C2652 C 0.11032 0.66515 0.83866 0.0
C2653 C 0.14187 0.66862 0.82142 0.0
C2654 C 0.16215 0.66747 0.88898 0.0
C2655 C 0.13137 0.65699 0.9046 0.0
N2656 N 0.07785 0.63884 0.89176 0.0
N2657 N 0.19838 0.67748 0.83274 0.0
C2658 C 0.10611 0.65357 0.87853 0.0
C2659 C 0.16804 0.67076 0.84737 0.0
N2660 N 0.08414 0.6756 0.81827 0.0
N2661 N 0.18517 0.67663 0.91375 0.0
H2662 H 0.20305 0.68829 0.80475 0.0
H2663 H 0.21889 0.67312 0.84888 0.0
H2664 H 0.18138 0.67595 0.94383 0.0
H2665 H 0.20703 0.68773 0.90451 0.0
H2666 H 0.06093 0.67512 0.83057 0.0
H2667 H 0.08611 0.69008 0.7919 0.0
H2668 H 0.05954 0.63318 0.87318 0.0
H2669 H 0.07439 0.62885 0.9204 0.0
C2670 C 0.09379 0.34345 0.64061 0.0
C2671 C 0.11591 0.35594 0.6666 0.0
C2672 C 0.14115 0.39181 0.61396 0.0
C2673 C 0.1217 0.37635 0.58657 0.0
N2674 N 0.08045 0.33593 0.57348 0.0
N2675 N 0.16585 0.38447 0.6764 0.0
C2676 C 0.09827 0.3516 0.59981 0.0
C2677 C 0.14099 0.37807 0.65284 0.0
N2678 N 0.06826 0.3244 0.65522 0.0
N2679 N 0.16019 0.41934 0.60339 0.0
H2680 H 0.16747 0.37357 0.70466 0.0
H2681 H 0.1867 0.39735 0.66648 0.0
H2682 H 0.16282 0.43028 0.57531 0.0
H2683 H 0.17151 0.43344 0.62363 0.0
H2684 H 0.0494 0.31699 0.63847 0.0
H2685 H 0.06497 0.31795 0.68497 0.0
H2686 H 0.06551 0.31518 0.58086 0.0
H2687 H 0.08169 0.34281 0.5437 0.0
loop_
_geom_bond_atom_site_label_1
_geom_bond_atom_site_label_2
_geom_bond_distance
_geom_bond_site_symmetry_2
_ccdc_geom_bond_type
Co0 N5 2.057 . S
Co0 O17 2.021 . S
Co0 O20 2.062 . S
Co0 O24 2.117 . S
Co0 O25 2.020 . S
C1 O21 1.259 . S
C1 O24 1.258 . S
Co2 N11 2.057 . S
Co2 O18 2.117 . S
Co2 O19 2.020 . S
Co2 O21 2.021 . S
Co2 O26 2.062 . S
C3 N5 1.316 . S
C3 N6 1.347 . S
C3 H8 0.931 . S
C4 N5 1.375 . S
C4 C7 1.350 . S
C4 H9 0.930 . S
N5 Co0 2.057 . S
N5 C3 1.316 . S
N5 C4 1.375 . S
N6 C3 1.347 . S
N6 C7 1.373 . S
C7 C4 1.350 . S
C7 N6 1.373 . S
C7 H28 0.931 . S
H8 C3 0.931 . S
H9 C4 0.930 . S
C10 O17 1.259 . S
C10 O18 1.258 . S
N11 Co2 2.057 . S
N11 C12 1.316 . S
N11 C13 1.375 . S
C12 N11 1.316 . S
C12 N14 1.347 . S
C12 H23 0.931 . S
C13 N11 1.375 . S
C13 C15 1.350 . S
C13 H22 0.930 . S
N14 C12 1.347 . S
N14 C15 1.373 . S
C15 C13 1.350 . S
C15 N14 1.373 . S
C15 H29 0.931 1_455 S
C16 O19 1.256 . S
C16 O20 1.255 . S
O17 Co0 2.021 . S
O17 C10 1.259 . S
O18 Co2 2.117 . S
O18 C10 1.258 . S
O19 Co2 2.020 . S
O19 C16 1.256 . S
O20 Co0 2.062 . S
O20 C16 1.255 . S
O21 C1 1.259 . S
O21 Co2 2.021 . S
H22 C13 0.930 . S
H23 C12 0.931 . S
O24 Co0 2.117 . S
O24 C1 1.258 . S
O25 Co0 2.020 . S
O25 C27 1.256 . S
O26 Co2 2.062 . S
O26 C27 1.255 . S
C27 O25 1.256 . S
C27 O26 1.255 . S
H28 C7 0.931 . S
H29 C15 0.931 1_655 S
Co30 N35 2.057 . S
Co30 O47 2.021 . S
Co30 O50 2.062 . S
Co30 O54 2.117 . S
Co30 O55 2.020 . S
C31 O51 1.259 . S
C31 O54 1.258 . S
Co32 N41 2.057 . S
Co32 O48 2.117 . S
Co32 O49 2.020 . S
Co32 O51 2.021 . S
Co32 O56 2.062 . S
C33 N35 1.316 . S
C33 N36 1.347 . S
C33 H38 0.931 . S
C34 N35 1.375 . S
C34 C37 1.350 . S
C34 H39 0.930 . S
N35 Co30 2.057 . S
N35 C33 1.316 . S
N35 C34 1.375 . S
N36 C33 1.347 . S
N36 C37 1.373 . S
C37 C34 1.350 . S
C37 N36 1.373 . S
C37 H58 0.931 . S
H38 C33 0.931 . S
H39 C34 0.930 . S
C40 O47 1.259 . S
C40 O48 1.258 . S
N41 Co32 2.057 . S
N41 C42 1.316 . S
N41 C43 1.375 . S
C42 N41 1.316 . S
C42 N44 1.347 . S
C42 H53 0.931 . S
C43 N41 1.375 . S
C43 C45 1.350 . S
C43 H52 0.930 . S
N44 C42 1.347 . S
N44 C45 1.373 . S
C45 C43 1.350 . S
C45 N44 1.373 . S
C45 H59 0.931 . S
C46 O49 1.256 . S
C46 O50 1.255 . S
O47 Co30 2.021 . S
O47 C40 1.259 . S
O48 Co32 2.117 . S
O48 C40 1.258 . S
O49 Co32 2.020 . S
O49 C46 1.256 . S
O50 Co30 2.062 . S
O50 C46 1.255 . S
O51 C31 1.259 . S
O51 Co32 2.021 . S
H52 C43 0.930 . S
H53 C42 0.931 . S
O54 Co30 2.117 . S
O54 C31 1.258 . S
O55 Co30 2.020 . S
O55 C57 1.256 . S
O56 Co32 2.062 . S
O56 C57 1.255 . S
C57 O55 1.256 . S
C57 O56 1.255 . S
H58 C37 0.931 . S
H59 C45 0.931 . S
Co60 N65 2.057 . S
Co60 O77 2.021 . S
Co60 O80 2.062 . S
Co60 O84 2.117 . S
Co60 O85 2.020 . S
C61 O81 1.259 . S
C61 O84 1.258 . S
Co62 N71 2.057 . S
Co62 O78 2.117 . S
Co62 O79 2.020 . S
Co62 O81 2.021 . S
Co62 O86 2.062 . S
C63 N65 1.316 . S
C63 N66 1.347 . S
C63 H68 0.931 . S
C64 N65 1.375 . S
C64 C67 1.350 . S
C64 H69 0.930 . S
N65 Co60 2.057 . S
N65 C63 1.316 . S
N65 C64 1.375 . S
N66 C63 1.347 . S
N66 C67 1.373 . S
C67 C64 1.350 . S
C67 N66 1.373 . S
C67 H88 0.931 . S
H68 C63 0.931 . S
H69 C64 0.930 . S
C70 O77 1.259 . S
C70 O78 1.258 . S
N71 Co62 2.057 . S
N71 C72 1.316 . S
N71 C73 1.375 . S
C72 N71 1.316 . S
C72 N74 1.347 . S
C72 H83 0.931 . S
C73 N71 1.375 . S
C73 C75 1.350 . S
C73 H82 0.930 . S
N74 C72 1.347 . S
N74 C75 1.373 . S
C75 C73 1.350 . S
C75 N74 1.373 . S
C75 H89 0.931 . S
C76 O79 1.256 . S
C76 O80 1.255 . S
O77 Co60 2.021 . S
O77 C70 1.259 . S
O78 Co62 2.117 . S
O78 C70 1.258 . S
O79 Co62 2.020 . S
O79 C76 1.256 . S
O80 Co60 2.062 . S
O80 C76 1.255 . S
O81 C61 1.259 . S
O81 Co62 2.021 . S
H82 C73 0.930 . S
H83 C72 0.931 . S
O84 Co60 2.117 . S
O84 C61 1.258 . S
O85 Co60 2.020 . S
O85 C87 1.256 . S
O86 Co62 2.062 . S
O86 C87 1.255 . S
C87 O85 1.256 . S
C87 O86 1.255 . S
H88 C67 0.931 . S
H89 C75 0.931 . S
Co90 N95 2.057 . S
Co90 O107 2.021 . S
Co90 O110 2.062 1_554 S
Co90 O114 2.117 . S
Co90 O115 2.020 . S
C91 O111 1.259 . S
C91 O114 1.258 . S
Co92 N101 2.057 . S
Co92 O108 2.117 . S
Co92 O109 2.020 1_554 S
Co92 O111 2.021 . S
Co92 O116 2.062 . S
C93 N95 1.318 1_556 S
C93 N96 1.346 1_545 S
C93 H98 0.929 . S
C94 N95 1.375 . S
C94 C97 1.350 1_545 S
C94 H99 0.930 . S
N95 Co90 2.057 . S
N95 C93 1.318 1_554 S
N95 C94 1.375 . S
N96 C93 1.346 1_565 S
N96 C97 1.373 1_556 S
C97 C94 1.350 1_565 S
C97 N96 1.373 1_554 S
C97 H118 0.931 . S
H98 C93 0.929 . S
H99 C94 0.930 . S
C100 O107 1.259 . S
C100 O108 1.258 . S
N101 Co92 2.057 . S
N101 C102 1.316 . S
N101 C103 1.375 . S
C102 N101 1.316 . S
C102 N104 1.347 . S
C102 H113 0.931 . S
C103 N101 1.375 . S
C103 C105 1.350 . S
C103 H112 0.930 . S
N104 C102 1.347 . S
N104 C105 1.373 . S
C105 C103 1.350 . S
C105 N104 1.373 . S
C105 H119 0.931 . S
C106 O109 1.256 . S
C106 O110 1.255 . S
O107 Co90 2.021 . S
O107 C100 1.259 . S
O108 Co92 2.117 . S
O108 C100 1.258 . S
O109 Co92 2.020 1_556 S
O109 C106 1.256 . S
O110 Co90 2.062 1_556 S
O110 C106 1.255 . S
O111 C91 1.259 . S
O111 Co92 2.021 . S
H112 C103 0.930 . S
H113 C102 0.931 . S
O114 Co90 2.117 . S
O114 C91 1.258 . S
O115 Co90 2.020 . S
O115 C117 1.256 . S
O116 Co92 2.062 . S
O116 C117 1.255 . S
C117 O115 1.256 . S
C117 O116 1.255 . S
H118 C97 0.931 . S
H119 C105 0.931 . S
Co120 N125 2.057 . S
Co120 O137 2.021 . S
Co120 O140 2.062 . S
Co120 O144 2.117 . S
Co120 O145 2.020 . S
C121 O141 1.259 . S
C121 O144 1.258 . S
Co122 N131 2.057 . S
Co122 O138 2.117 . S
Co122 O139 2.020 . S
Co122 O141 2.021 . S
Co122 O146 2.062 . S
C123 N125 1.316 . S
C123 N126 1.347 . S
C123 H128 0.931 . S
C124 N125 1.375 . S
C124 C127 1.350 . S
C124 H129 0.930 . S
N125 Co120 2.057 . S
N125 C123 1.316 . S
N125 C124 1.375 . S
N126 C123 1.347 . S
N126 C127 1.373 . S
C127 C124 1.350 . S
C127 N126 1.373 . S
C127 H148 0.931 . S
H128 C123 0.931 . S
H129 C124 0.930 . S
C130 O137 1.259 . S
C130 O138 1.258 . S
N131 Co122 2.057 . S
N131 C132 1.316 . S
N131 C133 1.375 . S
C132 N131 1.316 . S
C132 N134 1.347 . S
C132 H143 0.931 . S
C133 N131 1.375 . S
C133 C135 1.350 . S
C133 H142 0.930 . S
N134 C132 1.347 . S
N134 C135 1.373 . S
C135 C133 1.350 . S
C135 N134 1.373 . S
C135 H149 0.931 . S
C136 O139 1.256 . S
C136 O140 1.255 . S
O137 Co120 2.021 . S
O137 C130 1.259 . S
O138 Co122 2.117 . S
O138 C130 1.258 . S
O139 Co122 2.020 . S
O139 C136 1.256 . S
O140 Co120 2.062 . S
O140 C136 1.255 . S
O141 C121 1.259 . S
O141 Co122 2.021 . S
H142 C133 0.930 . S
H143 C132 0.931 . S
O144 Co120 2.117 . S
O144 C121 1.258 . S
O145 Co120 2.020 . S
O145 C147 1.256 . S
O146 Co122 2.062 . S
O146 C147 1.255 . S
C147 O145 1.256 . S
C147 O146 1.255 . S
H148 C127 0.931 . S
H149 C135 0.931 . S
Co150 N155 2.057 . S
Co150 O167 2.021 . S
Co150 O170 2.062 . S
Co150 O174 2.117 . S
Co150 O175 2.020 . S
C151 O171 1.259 . S
C151 O174 1.258 . S
Co152 N161 2.057 . S
Co152 O168 2.117 . S
Co152 O169 2.020 . S
Co152 O171 2.021 . S
Co152 O176 2.062 . S
C153 N155 1.316 . S
C153 N156 1.347 . S
C153 H158 0.931 . S
C154 N155 1.375 . S
C154 C157 1.350 . S
C154 H159 0.930 . S
N155 Co150 2.057 . S
N155 C153 1.316 . S
N155 C154 1.375 . S
N156 C153 1.347 . S
N156 C157 1.373 . S
C157 C154 1.350 . S
C157 N156 1.373 . S
C157 H178 0.931 . S
H158 C153 0.931 . S
H159 C154 0.930 . S
C160 O167 1.259 . S
C160 O168 1.258 . S
N161 Co152 2.057 . S
N161 C162 1.316 . S
N161 C163 1.375 . S
C162 N161 1.316 . S
C162 N164 1.347 . S
C162 H173 0.931 . S
C163 N161 1.375 . S
C163 C165 1.350 . S
C163 H172 0.930 . S
N164 C162 1.347 . S
N164 C165 1.373 . S
C165 C163 1.350 . S
C165 N164 1.373 . S
C165 H179 0.931 . S
C166 O169 1.256 . S
C166 O170 1.255 . S
O167 Co150 2.021 . S
O167 C160 1.259 . S
O168 Co152 2.117 . S
O168 C160 1.258 . S
O169 Co152 2.020 . S
O169 C166 1.256 . S
O170 Co150 2.062 . S
O170 C166 1.255 . S
O171 C151 1.259 . S
O171 Co152 2.021 . S
H172 C163 0.930 . S
H173 C162 0.931 . S
O174 Co150 2.117 . S
O174 C151 1.258 . S
O175 Co150 2.020 . S
O175 C177 1.256 . S
O176 Co152 2.062 . S
O176 C177 1.255 . S
C177 O175 1.256 . S
C177 O176 1.255 . S
H178 C157 0.931 . S
H179 C165 0.931 . S
Co180 N185 2.057 . S
Co180 O197 2.021 . S
Co180 O200 2.062 . S
Co180 O204 2.117 . S
Co180 O205 2.020 . S
C181 O201 1.259 . S
C181 O204 1.258 . S
Co182 N191 2.057 . S
Co182 O198 2.117 . S
Co182 O199 2.020 . S
Co182 O201 2.021 . S
Co182 O206 2.062 . S
C183 N185 1.316 . S
C183 N186 1.347 . S
C183 H188 0.931 . S
C184 N185 1.375 . S
C184 C187 1.350 . S
C184 H189 0.930 . S
N185 Co180 2.057 . S
N185 C183 1.316 . S
N185 C184 1.375 . S
N186 C183 1.347 . S
N186 C187 1.373 . S
C187 C184 1.350 . S
C187 N186 1.373 . S
C187 H208 0.931 . S
H188 C183 0.931 . S
H189 C184 0.930 . S
C190 O197 1.259 . S
C190 O198 1.258 . S
N191 Co182 2.057 . S
N191 C192 1.316 . S
N191 C193 1.375 . S
C192 N191 1.316 . S
C192 N194 1.347 . S
C192 H203 0.931 . S
C193 N191 1.375 . S
C193 C195 1.350 . S
C193 H202 0.930 . S
N194 C192 1.347 . S
N194 C195 1.373 . S
C195 C193 1.350 . S
C195 N194 1.373 . S
C195 H209 0.931 . S
C196 O199 1.256 . S
C196 O200 1.255 . S
O197 Co180 2.021 . S
O197 C190 1.259 . S
O198 Co182 2.117 . S
O198 C190 1.258 . S
O199 Co182 2.020 . S
O199 C196 1.256 . S
O200 Co180 2.062 . S
O200 C196 1.255 . S
O201 C181 1.259 . S
O201 Co182 2.021 . S
H202 C193 0.930 . S
H203 C192 0.931 . S
O204 Co180 2.117 . S
O204 C181 1.258 . S
O205 Co180 2.020 . S
O205 C207 1.256 . S
O206 Co182 2.062 . S
O206 C207 1.255 . S
C207 O205 1.256 . S
C207 O206 1.255 . S
H208 C187 0.931 . S
H209 C195 0.931 . S
Co210 N215 2.057 . S
Co210 O227 2.021 . S
Co210 O230 2.062 . S
Co210 O234 2.117 . S
Co210 O235 2.020 . S
C211 O231 1.259 . S
C211 O234 1.258 . S
Co212 N221 2.057 1_556 S
Co212 O228 2.117 . S
Co212 O229 2.020 . S
Co212 O231 2.021 . S
Co212 O236 2.062 . S
C213 N215 1.316 . S
C213 N216 1.347 . S
C213 H218 0.931 . S
C214 N215 1.375 . S
C214 C217 1.350 . S
C214 H219 0.930 . S
N215 Co210 2.057 . S
N215 C213 1.316 . S
N215 C214 1.375 . S
N216 C213 1.347 . S
N216 C217 1.373 . S
C217 C214 1.350 . S
C217 N216 1.373 . S
C217 H238 0.931 . S
H218 C213 0.931 . S
H219 C214 0.930 . S
C220 O227 1.259 . S
C220 O228 1.258 . S
N221 Co212 2.057 1_554 S
N221 C222 1.316 . S
N221 C223 1.375 . S
C222 N221 1.316 . S
C222 N224 1.347 . S
C222 H233 0.931 . S
C223 N221 1.375 . S
C223 C225 1.350 . S
C223 H232 0.930 1_554 S
N224 C222 1.347 . S
N224 C225 1.373 . S
C225 C223 1.350 . S
C225 N224 1.373 . S
C225 H239 0.931 . S
C226 O229 1.256 . S
C226 O230 1.255 . S
O227 Co210 2.021 . S
O227 C220 1.259 . S
O228 Co212 2.117 . S
O228 C220 1.258 . S
O229 Co212 2.020 . S
O229 C226 1.256 . S
O230 Co210 2.062 . S
O230 C226 1.255 . S
O231 C211 1.259 . S
O231 Co212 2.021 . S
H232 C223 0.930 1_556 S
H233 C222 0.931 . S
O234 Co210 2.117 . S
O234 C211 1.258 . S
O235 Co210 2.020 . S
O235 C237 1.256 . S
O236 Co212 2.062 . S
O236 C237 1.255 . S
C237 O235 1.256 . S
C237 O236 1.255 . S
H238 C217 0.931 . S
H239 C225 0.931 . S
Co240 N245 2.057 . S
Co240 O257 2.021 . S
Co240 O260 2.062 . S
Co240 O264 2.117 . S
Co240 O265 2.020 . S
C241 O261 1.259 . S
C241 O264 1.258 . S
Co242 N251 2.057 . S
Co242 O258 2.117 . S
Co242 O259 2.020 . S
Co242 O261 2.021 . S
Co242 O266 2.062 . S
C243 N245 1.316 . S
C243 N246 1.347 . S
C243 H248 0.931 . S
C244 N245 1.375 . S
C244 C247 1.350 . S
C244 H249 0.930 . S
N245 Co240 2.057 . S
N245 C243 1.316 . S
N245 C244 1.375 . S
N246 C243 1.347 . S
N246 C247 1.373 . S
C247 C244 1.350 . S
C247 N246 1.373 . S
C247 H268 0.931 1_655 S
H248 C243 0.931 . S
H249 C244 0.930 . S
C250 O257 1.259 . S
C250 O258 1.258 . S
N251 Co242 2.057 . S
N251 C252 1.316 . S
N251 C253 1.375 . S
C252 N251 1.316 . S
C252 N254 1.347 . S
C252 H263 0.931 . S
C253 N251 1.375 . S
C253 C255 1.350 . S
C253 H262 0.930 . S
N254 C252 1.347 . S
N254 C255 1.373 . S
C255 C253 1.350 . S
C255 N254 1.373 . S
C255 H269 0.931 . S
C256 O259 1.256 . S
C256 O260 1.255 . S
O257 Co240 2.021 . S
O257 C250 1.259 . S
O258 Co242 2.117 . S
O258 C250 1.258 . S
O259 Co242 2.020 . S
O259 C256 1.256 . S
O260 Co240 2.062 . S
O260 C256 1.255 . S
O261 C241 1.259 . S
O261 Co242 2.021 . S
H262 C253 0.930 . S
H263 C252 0.931 . S
O264 Co240 2.117 . S
O264 C241 1.258 . S
O265 Co240 2.020 . S
O265 C267 1.256 . S
O266 Co242 2.062 . S
O266 C267 1.255 . S
C267 O265 1.256 . S
C267 O266 1.255 . S
H268 C247 0.931 1_455 S
H269 C255 0.931 . S
Co270 N275 2.057 . S
Co270 O287 2.021 . S
Co270 O290 2.062 . S
Co270 O294 2.117 . S
Co270 O295 2.020 . S
C271 O291 1.259 . S
C271 O294 1.258 . S
Co272 N281 2.057 . S
Co272 O288 2.117 . S
Co272 O289 2.020 . S
Co272 O291 2.021 . S
Co272 O296 2.062 . S
C273 N275 1.316 . S
C273 N276 1.347 . S
C273 H278 0.931 . S
C274 N275 1.375 . S
C274 C277 1.350 . S
C274 H279 0.930 . S
N275 Co270 2.057 . S
N275 C273 1.316 . S
N275 C274 1.375 . S
N276 C273 1.347 . S
N276 C277 1.373 . S
C277 C274 1.350 . S
C277 N276 1.373 . S
C277 H298 0.931 . S
H278 C273 0.931 . S
H279 C274 0.930 . S
C280 O287 1.259 . S
C280 O288 1.258 . S
N281 Co272 2.057 . S
N281 C282 1.316 . S
N281 C283 1.375 . S
C282 N281 1.316 . S
C282 N284 1.347 . S
C282 H293 0.931 . S
C283 N281 1.375 . S
C283 C285 1.350 . S
C283 H292 0.930 . S
N284 C282 1.347 . S
N284 C285 1.373 . S
C285 C283 1.350 . S
C285 N284 1.373 . S
C285 H299 0.931 . S
C286 O289 1.256 . S
C286 O290 1.255 . S
O287 Co270 2.021 . S
O287 C280 1.259 . S
O288 Co272 2.117 . S
O288 C280 1.258 . S
O289 Co272 2.020 . S
O289 C286 1.256 . S
O290 Co270 2.062 . S
O290 C286 1.255 . S
O291 C271 1.259 . S
O291 Co272 2.021 . S
H292 C283 0.930 . S
H293 C282 0.931 . S
O294 Co270 2.117 . S
O294 C271 1.258 . S
O295 Co270 2.020 . S
O295 C297 1.256 . S
O296 Co272 2.062 . S
O296 C297 1.255 . S
C297 O295 1.256 . S
C297 O296 1.255 . S
H298 C277 0.931 . S
H299 C285 0.931 . S
Co300 N305 2.057 . S
Co300 O317 2.021 . S
Co300 O320 2.062 . S
Co300 O324 2.117 . S
Co300 O325 2.020 . S
C301 O321 1.259 . S
C301 O324 1.258 . S
Co302 N311 2.057 . S
Co302 O318 2.117 . S
Co302 O319 2.020 . S
Co302 O321 2.021 . S
Co302 O326 2.062 . S
C303 N305 1.316 . S
C303 N306 1.347 . S
C303 H308 0.931 . S
C304 N305 1.375 . S
C304 C307 1.350 . S
C304 H309 0.930 . S
N305 Co300 2.057 . S
N305 C303 1.316 . S
N305 C304 1.375 . S
N306 C303 1.347 . S
N306 C307 1.373 . S
C307 C304 1.350 . S
C307 N306 1.373 . S
C307 H328 0.931 . S
H308 C303 0.931 . S
H309 C304 0.930 . S
C310 O317 1.259 . S
C310 O318 1.258 . S
N311 Co302 2.057 . S
N311 C312 1.316 . S
N311 C313 1.375 . S
C312 N311 1.316 . S
C312 N314 1.347 . S
C312 H323 0.931 . S
C313 N311 1.375 . S
C313 C315 1.350 . S
C313 H322 0.930 . S
N314 C312 1.347 . S
N314 C315 1.373 . S
C315 C313 1.350 . S
C315 N314 1.373 . S
C315 H329 0.931 . S
C316 O319 1.256 . S
C316 O320 1.255 . S
O317 Co300 2.021 . S
O317 C310 1.259 . S
O318 Co302 2.117 . S
O318 C310 1.258 . S
O319 Co302 2.020 . S
O319 C316 1.256 . S
O320 Co300 2.062 . S
O320 C316 1.255 . S
O321 C301 1.259 . S
O321 Co302 2.021 . S
H322 C313 0.930 . S
H323 C312 0.931 . S
O324 Co300 2.117 . S
O324 C301 1.258 . S
O325 Co300 2.020 . S
O325 C327 1.256 . S
O326 Co302 2.062 . S
O326 C327 1.255 . S
C327 O325 1.256 . S
C327 O326 1.255 . S
H328 C307 0.931 . S
H329 C315 0.931 . S
Co330 N335 2.057 . S
Co330 O347 2.021 . S
Co330 O350 2.062 . S
Co330 O354 2.117 . S
Co330 O355 2.020 1_556 S
C331 O351 1.259 . S
C331 O354 1.258 . S
Co332 N341 2.057 . S
Co332 O348 2.117 . S
Co332 O349 2.020 . S
Co332 O351 2.021 . S
Co332 O356 2.062 1_556 S
C333 N335 1.316 . S
C333 N336 1.347 . S
C333 H338 0.931 . S
C334 N335 1.375 . S
C334 C337 1.350 . S
C334 H339 0.930 . S
N335 Co330 2.057 . S
N335 C333 1.316 . S
N335 C334 1.375 . S
N336 C333 1.347 . S
N336 C337 1.373 . S
C337 C334 1.350 . S
C337 N336 1.373 . S
C337 H358 0.931 . S
H338 C333 0.931 . S
H339 C334 0.930 . S
C340 O347 1.259 . S
C340 O348 1.258 . S
N341 Co332 2.057 . S
N341 C342 1.318 1_556 S
N341 C343 1.375 . S
C342 N341 1.318 1_554 S
C342 N344 1.346 1_565 S
C342 H353 0.929 . S
C343 N341 1.375 . S
C343 C345 1.350 1_565 S
C343 H352 0.930 . S
N344 C342 1.346 1_545 S
N344 C345 1.373 1_554 S
C345 C343 1.350 1_545 S
C345 N344 1.373 1_556 S
C345 H359 0.931 . S
C346 O349 1.256 . S
C346 O350 1.255 . S
O347 Co330 2.021 . S
O347 C340 1.259 . S
O348 Co332 2.117 . S
O348 C340 1.258 . S
O349 Co332 2.020 . S
O349 C346 1.256 . S
O350 Co330 2.062 . S
O350 C346 1.255 . S
O351 C331 1.259 . S
O351 Co332 2.021 . S
H352 C343 0.930 . S
H353 C342 0.929 . S
O354 Co330 2.117 . S
O354 C331 1.258 . S
O355 Co330 2.020 1_554 S
O355 C357 1.256 . S
O356 Co332 2.062 1_554 S
O356 C357 1.255 . S
C357 O355 1.256 . S
C357 O356 1.255 . S
H358 C337 0.931 . S
H359 C345 0.931 . S
Co360 N365 2.057 . S
Co360 O377 2.021 . S
Co360 O380 2.062 . S
Co360 O384 2.117 . S
Co360 O385 2.020 . S
C361 O381 1.259 . S
C361 O384 1.258 . S
Co362 N371 2.057 . S
Co362 O378 2.117 . S
Co362 O379 2.020 . S
Co362 O381 2.021 . S
Co362 O386 2.062 . S
C363 N365 1.316 . S
C363 N366 1.347 . S
C363 H368 0.931 . S
C364 N365 1.375 . S
C364 C367 1.350 . S
C364 H369 0.930 . S
N365 Co360 2.057 . S
N365 C363 1.316 . S
N365 C364 1.375 . S
N366 C363 1.347 . S
N366 C367 1.373 . S
C367 C364 1.350 . S
C367 N366 1.373 . S
C367 H388 0.931 . S
H368 C363 0.931 . S
H369 C364 0.930 . S
C370 O377 1.259 . S
C370 O378 1.258 . S
N371 Co362 2.057 . S
N371 C372 1.316 . S
N371 C373 1.375 . S
C372 N371 1.316 . S
C372 N374 1.347 . S
C372 H383 0.931 . S
C373 N371 1.375 . S
C373 C375 1.350 . S
C373 H382 0.930 . S
N374 C372 1.347 . S
N374 C375 1.373 . S
C375 C373 1.350 . S
C375 N374 1.373 . S
C375 H389 0.931 . S
C376 O379 1.256 . S
C376 O380 1.255 . S
O377 Co360 2.021 . S
O377 C370 1.259 . S
O378 Co362 2.117 . S
O378 C370 1.258 . S
O379 Co362 2.020 . S
O379 C376 1.256 . S
O380 Co360 2.062 . S
O380 C376 1.255 . S
O381 C361 1.259 . S
O381 Co362 2.021 . S
H382 C373 0.930 . S
H383 C372 0.931 . S
O384 Co360 2.117 . S
O384 C361 1.258 . S
O385 Co360 2.020 . S
O385 C387 1.256 . S
O386 Co362 2.062 . S
O386 C387 1.255 . S
C387 O385 1.256 . S
C387 O386 1.255 . S
H388 C367 0.931 . S
H389 C375 0.931 . S
Co390 N395 2.057 . S
Co390 O407 2.021 . S
Co390 O410 2.062 . S
Co390 O414 2.117 . S
Co390 O415 2.020 . S
C391 O411 1.259 . S
C391 O414 1.258 . S
Co392 N401 2.057 . S
Co392 O408 2.117 . S
Co392 O409 2.020 . S
Co392 O411 2.021 . S
Co392 O416 2.062 . S
C393 N395 1.316 . S
C393 N396 1.347 . S
C393 H398 0.931 . S
C394 N395 1.375 . S
C394 C397 1.350 . S
C394 H399 0.930 . S
N395 Co390 2.057 . S
N395 C393 1.316 . S
N395 C394 1.375 . S
N396 C393 1.347 . S
N396 C397 1.373 . S
C397 C394 1.350 . S
C397 N396 1.373 . S
C397 H418 0.931 . S
H398 C393 0.931 . S
H399 C394 0.930 . S
C400 O407 1.259 . S
C400 O408 1.258 . S
N401 Co392 2.057 . S
N401 C402 1.316 . S
N401 C403 1.375 . S
C402 N401 1.316 . S
C402 N404 1.347 . S
C402 H413 0.931 . S
C403 N401 1.375 . S
C403 C405 1.350 . S
C403 H412 0.930 . S
N404 C402 1.347 . S
N404 C405 1.373 . S
C405 C403 1.350 . S
C405 N404 1.373 . S
C405 H419 0.931 . S
C406 O409 1.256 . S
C406 O410 1.255 . S
O407 Co390 2.021 . S
O407 C400 1.259 . S
O408 Co392 2.117 . S
O408 C400 1.258 . S
O409 Co392 2.020 . S
O409 C406 1.256 . S
O410 Co390 2.062 . S
O410 C406 1.255 . S
O411 C391 1.259 . S
O411 Co392 2.021 . S
H412 C403 0.930 . S
H413 C402 0.931 . S
O414 Co390 2.117 . S
O414 C391 1.258 . S
O415 Co390 2.020 . S
O415 C417 1.256 . S
O416 Co392 2.062 . S
O416 C417 1.255 . S
C417 O415 1.256 . S
C417 O416 1.255 . S
H418 C397 0.931 . S
H419 C405 0.931 . S
Co420 N425 2.057 . S
Co420 O437 2.021 . S
Co420 O440 2.062 . S
Co420 O444 2.117 . S
Co420 O445 2.020 . S
C421 O441 1.259 . S
C421 O444 1.258 . S
Co422 N431 2.057 . S
Co422 O438 2.117 . S
Co422 O439 2.020 . S
Co422 O441 2.021 . S
Co422 O446 2.062 . S
C423 N425 1.316 . S
C423 N426 1.347 . S
C423 H428 0.931 . S
C424 N425 1.375 . S
C424 C427 1.350 . S
C424 H429 0.930 . S
N425 Co420 2.057 . S
N425 C423 1.316 . S
N425 C424 1.375 . S
N426 C423 1.347 . S
N426 C427 1.373 . S
C427 C424 1.350 . S
C427 N426 1.373 . S
C427 H448 0.931 . S
H428 C423 0.931 . S
H429 C424 0.930 . S
C430 O437 1.259 . S
C430 O438 1.258 . S
N431 Co422 2.057 . S
N431 C432 1.316 . S
N431 C433 1.375 . S
C432 N431 1.316 . S
C432 N434 1.347 . S
C432 H443 0.931 . S
C433 N431 1.375 . S
C433 C435 1.350 . S
C433 H442 0.930 . S
N434 C432 1.347 . S
N434 C435 1.373 . S
C435 C433 1.350 . S
C435 N434 1.373 . S
C435 H449 0.931 . S
C436 O439 1.256 . S
C436 O440 1.255 . S
O437 Co420 2.021 . S
O437 C430 1.259 . S
O438 Co422 2.117 . S
O438 C430 1.258 . S
O439 Co422 2.020 . S
O439 C436 1.256 . S
O440 Co420 2.062 . S
O440 C436 1.255 . S
O441 C421 1.259 . S
O441 Co422 2.021 . S
H442 C433 0.930 . S
H443 C432 0.931 . S
O444 Co420 2.117 . S
O444 C421 1.258 . S
O445 Co420 2.020 . S
O445 C447 1.256 . S
O446 Co422 2.062 . S
O446 C447 1.255 . S
C447 O445 1.256 . S
C447 O446 1.255 . S
H448 C427 0.931 . S
H449 C435 0.931 . S
Co450 N455 2.057 1_554 S
Co450 O467 2.021 . S
Co450 O470 2.062 . S
Co450 O474 2.117 . S
Co450 O475 2.020 . S
C451 O471 1.259 . S
C451 O474 1.258 . S
Co452 N461 2.057 . S
Co452 O468 2.117 . S
Co452 O469 2.020 . S
Co452 O471 2.021 . S
Co452 O476 2.062 . S
C453 N455 1.316 . S
C453 N456 1.347 . S
C453 H458 0.931 . S
C454 N455 1.375 . S
C454 C457 1.350 . S
C454 H459 0.930 1_556 S
N455 Co450 2.057 1_556 S
N455 C453 1.316 . S
N455 C454 1.375 . S
N456 C453 1.347 . S
N456 C457 1.373 . S
C457 C454 1.350 . S
C457 N456 1.373 . S
C457 H478 0.931 . S
H458 C453 0.931 . S
H459 C454 0.930 1_554 S
C460 O467 1.259 . S
C460 O468 1.258 . S
N461 Co452 2.057 . S
N461 C462 1.316 . S
N461 C463 1.375 . S
C462 N461 1.316 . S
C462 N464 1.347 . S
C462 H473 0.931 . S
C463 N461 1.375 . S
C463 C465 1.350 . S
C463 H472 0.930 . S
N464 C462 1.347 . S
N464 C465 1.373 . S
C465 C463 1.350 . S
C465 N464 1.373 . S
C465 H479 0.931 . S
C466 O469 1.256 . S
C466 O470 1.255 . S
O467 Co450 2.021 . S
O467 C460 1.259 . S
O468 Co452 2.117 . S
O468 C460 1.258 . S
O469 Co452 2.020 . S
O469 C466 1.256 . S
O470 Co450 2.062 . S
O470 C466 1.255 . S
O471 C451 1.259 . S
O471 Co452 2.021 . S
H472 C463 0.930 . S
H473 C462 0.931 . S
O474 Co450 2.117 . S
O474 C451 1.258 . S
O475 Co450 2.020 . S
O475 C477 1.256 . S
O476 Co452 2.062 . S
O476 C477 1.255 . S
C477 O475 1.256 . S
C477 O476 1.255 . S
H478 C457 0.931 . S
H479 C465 0.931 . S
Co480 N485 2.057 . S
Co480 O497 2.021 . S
Co480 O500 2.062 . S
Co480 O504 2.117 . S
Co480 O505 2.020 . S
C481 O501 1.259 . S
C481 O504 1.258 . S
Co482 N491 2.057 . S
Co482 O498 2.117 . S
Co482 O499 2.020 . S
Co482 O501 2.021 . S
Co482 O506 2.062 . S
C483 N485 1.316 . S
C483 N486 1.347 . S
C483 H488 0.931 . S
C484 N485 1.375 . S
C484 C487 1.350 . S
C484 H489 0.930 . S
N485 Co480 2.057 . S
N485 C483 1.316 . S
N485 C484 1.375 . S
N486 C483 1.347 . S
N486 C487 1.373 . S
C487 C484 1.350 . S
C487 N486 1.373 . S
C487 H508 0.931 . S
H488 C483 0.931 . S
H489 C484 0.930 . S
C490 O497 1.259 . S
C490 O498 1.258 . S
N491 Co482 2.057 . S
N491 C492 1.316 . S
N491 C493 1.375 . S
C492 N491 1.316 . S
C492 N494 1.347 . S
C492 H503 0.931 . S
C493 N491 1.375 . S
C493 C495 1.350 . S
C493 H502 0.930 . S
N494 C492 1.347 . S
N494 C495 1.373 . S
C495 C493 1.350 . S
C495 N494 1.373 . S
C495 H509 0.931 . S
C496 O499 1.256 . S
C496 O500 1.255 . S
O497 Co480 2.021 . S
O497 C490 1.259 . S
O498 Co482 2.117 . S
O498 C490 1.258 . S
O499 Co482 2.020 . S
O499 C496 1.256 . S
O500 Co480 2.062 . S
O500 C496 1.255 . S
O501 C481 1.259 . S
O501 Co482 2.021 . S
H502 C493 0.930 . S
H503 C492 0.931 . S
O504 Co480 2.117 . S
O504 C481 1.258 . S
O505 Co480 2.020 . S
O505 C507 1.256 . S
O506 Co482 2.062 . S
O506 C507 1.255 . S
C507 O505 1.256 . S
C507 O506 1.255 . S
H508 C487 0.931 . S
H509 C495 0.931 . S
Co510 N515 2.057 . S
Co510 O527 2.021 . S
Co510 O530 2.062 . S
Co510 O534 2.117 . S
Co510 O535 2.020 . S
C511 O531 1.259 1_554 S
C511 O534 1.258 . S
Co512 N521 2.057 1_554 S
Co512 O528 2.117 . S
Co512 O529 2.020 . S
Co512 O531 2.021 1_554 S
Co512 O536 2.062 1_554 S
C513 N515 1.316 . S
C513 N516 1.347 . S
C513 H518 0.931 . S
C514 N515 1.375 . S
C514 C517 1.350 . S
C514 H519 0.930 . S
N515 Co510 2.057 . S
N515 C513 1.316 . S
N515 C514 1.375 . S
N516 C513 1.347 . S
N516 C517 1.373 . S
C517 C514 1.350 . S
C517 N516 1.373 . S
C517 H538 0.931 . S
H518 C513 0.931 . S
H519 C514 0.930 . S
C520 O527 1.259 . S
C520 O528 1.258 . S
N521 Co512 2.057 1_556 S
N521 C522 1.316 . S
N521 C523 1.375 . S
C522 N521 1.316 . S
C522 N524 1.347 . S
C522 H533 0.931 . S
C523 N521 1.375 . S
C523 C525 1.350 . S
C523 H532 0.930 . S
N524 C522 1.347 . S
N524 C525 1.373 . S
C525 C523 1.350 . S
C525 N524 1.373 . S
C525 H539 0.931 . S
C526 O529 1.256 . S
C526 O530 1.255 . S
O527 Co510 2.021 . S
O527 C520 1.259 . S
O528 Co512 2.117 . S
O528 C520 1.258 . S
O529 Co512 2.020 . S
O529 C526 1.256 . S
O530 Co510 2.062 . S
O530 C526 1.255 . S
O531 C511 1.259 1_556 S
O531 Co512 2.021 1_556 S
H532 C523 0.930 . S
H533 C522 0.931 . S
O534 Co510 2.117 . S
O534 C511 1.258 . S
O535 Co510 2.020 . S
O535 C537 1.256 . S
O536 Co512 2.062 1_556 S
O536 C537 1.255 1_556 S
C537 O535 1.256 . S
C537 O536 1.255 1_554 S
H538 C517 0.931 . S
H539 C525 0.931 . S
Co540 N545 2.057 . S
Co540 O557 2.021 . S
Co540 O560 2.062 . S
Co540 O564 2.117 . S
Co540 O565 2.020 . S
C541 O561 1.259 . S
C541 O564 1.258 . S
Co542 N551 2.057 . S
Co542 O558 2.117 . S
Co542 O559 2.020 . S
Co542 O561 2.021 . S
Co542 O566 2.062 . S
C543 N545 1.316 . S
C543 N546 1.347 . S
C543 H548 0.931 . S
C544 N545 1.375 . S
C544 C547 1.350 . S
C544 H549 0.930 . S
N545 Co540 2.057 . S
N545 C543 1.316 . S
N545 C544 1.375 . S
N546 C543 1.347 . S
N546 C547 1.373 . S
C547 C544 1.350 . S
C547 N546 1.373 . S
C547 H568 0.931 . S
H548 C543 0.931 . S
H549 C544 0.930 . S
C550 O557 1.259 . S
C550 O558 1.258 . S
N551 Co542 2.057 . S
N551 C552 1.316 . S
N551 C553 1.375 . S
C552 N551 1.316 . S
C552 N554 1.347 1_655 S
C552 H563 0.931 . S
C553 N551 1.375 . S
C553 C555 1.350 1_655 S
C553 H562 0.930 . S
N554 C552 1.347 1_455 S
N554 C555 1.373 . S
C555 C553 1.350 1_455 S
C555 N554 1.373 . S
C555 H569 0.931 . S
C556 O559 1.256 . S
C556 O560 1.255 . S
O557 Co540 2.021 . S
O557 C550 1.259 . S
O558 Co542 2.117 . S
O558 C550 1.258 . S
O559 Co542 2.020 . S
O559 C556 1.256 . S
O560 Co540 2.062 . S
O560 C556 1.255 . S
O561 C541 1.259 . S
O561 Co542 2.021 . S
H562 C553 0.930 . S
H563 C552 0.931 . S
O564 Co540 2.117 . S
O564 C541 1.258 . S
O565 Co540 2.020 . S
O565 C567 1.256 . S
O566 Co542 2.062 . S
O566 C567 1.255 . S
C567 O565 1.256 . S
C567 O566 1.255 . S
H568 C547 0.931 . S
H569 C555 0.931 . S
Co570 N575 2.057 . S
Co570 O587 2.021 . S
Co570 O590 2.062 . S
Co570 O594 2.117 . S
Co570 O595 2.020 . S
C571 O591 1.259 . S
C571 O594 1.258 . S
Co572 N581 2.057 . S
Co572 O588 2.117 . S
Co572 O589 2.020 . S
Co572 O591 2.021 . S
Co572 O596 2.062 . S
C573 N575 1.316 . S
C573 N576 1.347 . S
C573 H578 0.931 . S
C574 N575 1.375 . S
C574 C577 1.350 . S
C574 H579 0.930 . S
N575 Co570 2.057 . S
N575 C573 1.316 . S
N575 C574 1.375 . S
N576 C573 1.347 . S
N576 C577 1.373 . S
C577 C574 1.350 . S
C577 N576 1.373 . S
C577 H598 0.931 . S
H578 C573 0.931 . S
H579 C574 0.930 . S
C580 O587 1.259 . S
C580 O588 1.258 . S
N581 Co572 2.057 . S
N581 C582 1.316 . S
N581 C583 1.375 . S
C582 N581 1.316 . S
C582 N584 1.347 . S
C582 H593 0.931 . S
C583 N581 1.375 . S
C583 C585 1.350 . S
C583 H592 0.930 . S
N584 C582 1.347 . S
N584 C585 1.373 . S
C585 C583 1.350 . S
C585 N584 1.373 . S
C585 H599 0.931 . S
C586 O589 1.256 . S
C586 O590 1.255 . S
O587 Co570 2.021 . S
O587 C580 1.259 . S
O588 Co572 2.117 . S
O588 C580 1.258 . S
O589 Co572 2.020 . S
O589 C586 1.256 . S
O590 Co570 2.062 . S
O590 C586 1.255 . S
O591 C571 1.259 . S
O591 Co572 2.021 . S
H592 C583 0.930 . S
H593 C582 0.931 . S
O594 Co570 2.117 . S
O594 C571 1.258 . S
O595 Co570 2.020 . S
O595 C597 1.256 . S
O596 Co572 2.062 . S
O596 C597 1.255 . S
C597 O595 1.256 . S
C597 O596 1.255 . S
H598 C577 0.931 . S
H599 C585 0.931 . S
Co600 N605 2.057 . S
Co600 O617 2.021 . S
Co600 O620 2.062 . S
Co600 O624 2.117 . S
Co600 O625 2.020 . S
C601 O621 1.259 . S
C601 O624 1.258 . S
Co602 N611 2.057 . S
Co602 O618 2.117 . S
Co602 O619 2.020 . S
Co602 O621 2.021 . S
Co602 O626 2.062 . S
C603 N605 1.316 . S
C603 N606 1.347 . S
C603 H608 0.931 . S
C604 N605 1.375 . S
C604 C607 1.350 . S
C604 H609 0.930 . S
N605 Co600 2.057 . S
N605 C603 1.316 . S
N605 C604 1.375 . S
N606 C603 1.347 . S
N606 C607 1.373 . S
C607 C604 1.350 . S
C607 N606 1.373 . S
C607 H628 0.931 . S
H608 C603 0.931 . S
H609 C604 0.930 . S
C610 O617 1.259 . S
C610 O618 1.258 . S
N611 Co602 2.057 . S
N611 C612 1.316 . S
N611 C613 1.375 . S
C612 N611 1.316 . S
C612 N614 1.347 . S
C612 H623 0.931 . S
C613 N611 1.375 . S
C613 C615 1.350 . S
C613 H622 0.930 . S
N614 C612 1.347 . S
N614 C615 1.373 . S
C615 C613 1.350 . S
C615 N614 1.373 . S
C615 H629 0.931 . S
C616 O619 1.256 . S
C616 O620 1.255 . S
O617 Co600 2.021 . S
O617 C610 1.259 . S
O618 Co602 2.117 . S
O618 C610 1.258 . S
O619 Co602 2.020 . S
O619 C616 1.256 . S
O620 Co600 2.062 . S
O620 C616 1.255 . S
O621 C601 1.259 . S
O621 Co602 2.021 . S
H622 C613 0.930 . S
H623 C612 0.931 . S
O624 Co600 2.117 . S
O624 C601 1.258 . S
O625 Co600 2.020 . S
O625 C627 1.256 . S
O626 Co602 2.062 . S
O626 C627 1.255 . S
C627 O625 1.256 . S
C627 O626 1.255 . S
H628 C607 0.931 . S
H629 C615 0.931 . S
Co630 N635 2.057 . S
Co630 O647 2.021 . S
Co630 O650 2.062 . S
Co630 O654 2.117 . S
Co630 O655 2.020 . S
C631 O651 1.259 . S
C631 O654 1.258 . S
Co632 N641 2.057 1_556 S
Co632 O648 2.117 . S
Co632 O649 2.020 . S
Co632 O651 2.021 . S
Co632 O656 2.062 . S
C633 N635 1.316 . S
C633 N636 1.347 . S
C633 H638 0.931 . S
C634 N635 1.375 . S
C634 C637 1.350 . S
C634 H639 0.930 . S
N635 Co630 2.057 . S
N635 C633 1.316 . S
N635 C634 1.375 . S
N636 C633 1.347 . S
N636 C637 1.373 . S
C637 C634 1.350 . S
C637 N636 1.373 . S
C637 H658 0.931 . S
H638 C633 0.931 . S
H639 C634 0.930 . S
C640 O647 1.259 . S
C640 O648 1.258 . S
N641 Co632 2.057 1_554 S
N641 C642 1.316 . S
N641 C643 1.375 . S
C642 N641 1.316 . S
C642 N644 1.347 . S
C642 H653 0.931 . S
C643 N641 1.375 . S
C643 C645 1.350 . S
C643 H652 0.930 1_554 S
N644 C642 1.347 . S
N644 C645 1.373 . S
C645 C643 1.350 . S
C645 N644 1.373 . S
C645 H659 0.931 . S
C646 O649 1.256 . S
C646 O650 1.255 . S
O647 Co630 2.021 . S
O647 C640 1.259 . S
O648 Co632 2.117 . S
O648 C640 1.258 . S
O649 Co632 2.020 . S
O649 C646 1.256 . S
O650 Co630 2.062 . S
O650 C646 1.255 . S
O651 C631 1.259 . S
O651 Co632 2.021 . S
H652 C643 0.930 1_556 S
H653 C642 0.931 . S
O654 Co630 2.117 . S
O654 C631 1.258 . S
O655 Co630 2.020 . S
O655 C657 1.256 . S
O656 Co632 2.062 . S
O656 C657 1.255 . S
C657 O655 1.256 . S
C657 O656 1.255 . S
H658 C637 0.931 . S
H659 C645 0.931 . S
Co660 N665 2.057 . S
Co660 O677 2.021 . S
Co660 O680 2.062 . S
Co660 O684 2.117 . S
Co660 O685 2.020 . S
C661 O681 1.259 . S
C661 O684 1.258 . S
Co662 N671 2.057 . S
Co662 O678 2.117 . S
Co662 O679 2.020 . S
Co662 O681 2.021 . S
Co662 O686 2.062 . S
C663 N665 1.316 . S
C663 N666 1.347 . S
C663 H668 0.931 . S
C664 N665 1.375 . S
C664 C667 1.350 . S
C664 H669 0.930 . S
N665 Co660 2.057 . S
N665 C663 1.316 . S
N665 C664 1.375 . S
N666 C663 1.347 . S
N666 C667 1.373 . S
C667 C664 1.350 . S
C667 N666 1.373 . S
C667 H688 0.931 . S
H668 C663 0.931 . S
H669 C664 0.930 . S
C670 O677 1.259 . S
C670 O678 1.258 . S
N671 Co662 2.057 . S
N671 C672 1.316 . S
N671 C673 1.375 . S
C672 N671 1.316 . S
C672 N674 1.347 . S
C672 H683 0.931 . S
C673 N671 1.375 . S
C673 C675 1.350 . S
C673 H682 0.930 . S
N674 C672 1.347 . S
N674 C675 1.373 . S
C675 C673 1.350 . S
C675 N674 1.373 . S
C675 H689 0.931 . S
C676 O679 1.256 . S
C676 O680 1.255 . S
O677 Co660 2.021 . S
O677 C670 1.259 . S
O678 Co662 2.117 . S
O678 C670 1.258 . S
O679 Co662 2.020 . S
O679 C676 1.256 . S
O680 Co660 2.062 . S
O680 C676 1.255 . S
O681 C661 1.259 . S
O681 Co662 2.021 . S
H682 C673 0.930 . S
H683 C672 0.931 . S
O684 Co660 2.117 . S
O684 C661 1.258 . S
O685 Co660 2.020 . S
O685 C687 1.256 . S
O686 Co662 2.062 . S
O686 C687 1.255 . S
C687 O685 1.256 . S
C687 O686 1.255 . S
H688 C667 0.931 . S
H689 C675 0.931 . S
Co690 N695 2.057 . S
Co690 O707 2.021 . S
Co690 O710 2.062 . S
Co690 O714 2.117 . S
Co690 O715 2.020 . S
C691 O711 1.259 . S
C691 O714 1.258 . S
Co692 N701 2.057 . S
Co692 O708 2.117 . S
Co692 O709 2.020 . S
Co692 O711 2.021 . S
Co692 O716 2.062 . S
C693 N695 1.316 . S
C693 N696 1.347 . S
C693 H698 0.931 . S
C694 N695 1.375 . S
C694 C697 1.350 . S
C694 H699 0.930 . S
N695 Co690 2.057 . S
N695 C693 1.316 . S
N695 C694 1.375 . S
N696 C693 1.347 . S
N696 C697 1.373 . S
C697 C694 1.350 . S
C697 N696 1.373 . S
C697 H718 0.931 . S
H698 C693 0.931 . S
H699 C694 0.930 . S
C700 O707 1.259 . S
C700 O708 1.258 . S
N701 Co692 2.057 . S
N701 C702 1.316 . S
N701 C703 1.375 . S
C702 N701 1.316 . S
C702 N704 1.347 . S
C702 H713 0.931 . S
C703 N701 1.375 . S
C703 C705 1.350 . S
C703 H712 0.930 . S
N704 C702 1.347 . S
N704 C705 1.373 . S
C705 C703 1.350 . S
C705 N704 1.373 . S
C705 H719 0.931 . S
C706 O709 1.256 . S
C706 O710 1.255 . S
O707 Co690 2.021 . S
O707 C700 1.259 . S
O708 Co692 2.117 . S
O708 C700 1.258 . S
O709 Co692 2.020 . S
O709 C706 1.256 . S
O710 Co690 2.062 . S
O710 C706 1.255 . S
O711 C691 1.259 . S
O711 Co692 2.021 . S
H712 C703 0.930 . S
H713 C702 0.931 . S
O714 Co690 2.117 . S
O714 C691 1.258 . S
O715 Co690 2.020 . S
O715 C717 1.256 . S
O716 Co692 2.062 . S
O716 C717 1.255 . S
C717 O715 1.256 . S
C717 O716 1.255 . S
H718 C697 0.931 . S
H719 C705 0.931 . S
Co720 N725 2.057 . S
Co720 O737 2.021 . S
Co720 O740 2.062 . S
Co720 O744 2.117 . S
Co720 O745 2.020 . S
C721 O741 1.259 . S
C721 O744 1.258 . S
Co722 N731 2.057 . S
Co722 O738 2.117 . S
Co722 O739 2.020 . S
Co722 O741 2.021 . S
Co722 O746 2.062 . S
C723 N725 1.316 . S
C723 N726 1.347 . S
C723 H728 0.931 . S
C724 N725 1.375 . S
C724 C727 1.350 . S
C724 H729 0.930 . S
N725 Co720 2.057 . S
N725 C723 1.316 . S
N725 C724 1.375 . S
N726 C723 1.347 . S
N726 C727 1.373 . S
C727 C724 1.350 . S
C727 N726 1.373 . S
C727 H748 0.931 . S
H728 C723 0.931 . S
H729 C724 0.930 . S
C730 O737 1.259 . S
C730 O738 1.258 . S
N731 Co722 2.057 . S
N731 C732 1.316 . S
N731 C733 1.375 . S
C732 N731 1.316 . S
C732 N734 1.347 . S
C732 H743 0.931 . S
C733 N731 1.375 . S
C733 C735 1.350 . S
C733 H742 0.930 . S
N734 C732 1.347 . S
N734 C735 1.373 . S
C735 C733 1.350 . S
C735 N734 1.373 . S
C735 H749 0.931 . S
C736 O739 1.256 . S
C736 O740 1.255 . S
O737 Co720 2.021 . S
O737 C730 1.259 . S
O738 Co722 2.117 . S
O738 C730 1.258 . S
O739 Co722 2.020 . S
O739 C736 1.256 . S
O740 Co720 2.062 . S
O740 C736 1.255 . S
O741 C721 1.259 . S
O741 Co722 2.021 . S
H742 C733 0.930 . S
H743 C732 0.931 . S
O744 Co720 2.117 . S
O744 C721 1.258 . S
O745 Co720 2.020 . S
O745 C747 1.256 . S
O746 Co722 2.062 . S
O746 C747 1.255 . S
C747 O745 1.256 . S
C747 O746 1.255 . S
H748 C727 0.931 . S
H749 C735 0.931 . S
Co750 N755 2.057 1_556 S
Co750 O767 2.021 1_556 S
Co750 O770 2.062 1_556 S
Co750 O774 2.117 . S
Co750 O775 2.020 . S
C751 O771 1.259 . S
C751 O774 1.258 . S
Co752 N761 2.057 . S
Co752 O768 2.117 . S
Co752 O769 2.020 . S
Co752 O771 2.021 . S
Co752 O776 2.062 . S
C753 N755 1.316 . S
C753 N756 1.347 . S
C753 H758 0.931 . S
C754 N755 1.375 . S
C754 C757 1.350 . S
C754 H759 0.930 . S
N755 Co750 2.057 1_554 S
N755 C753 1.316 . S
N755 C754 1.375 . S
N756 C753 1.347 . S
N756 C757 1.373 . S
C757 C754 1.350 . S
C757 N756 1.373 . S
C757 H778 0.931 . S
H758 C753 0.931 . S
H759 C754 0.930 . S
C760 O767 1.259 1_556 S
C760 O768 1.258 . S
N761 Co752 2.057 . S
N761 C762 1.316 . S
N761 C763 1.375 . S
C762 N761 1.316 . S
C762 N764 1.347 . S
C762 H773 0.931 . S
C763 N761 1.375 . S
C763 C765 1.350 . S
C763 H772 0.930 . S
N764 C762 1.347 . S
N764 C765 1.373 . S
C765 C763 1.350 . S
C765 N764 1.373 . S
C765 H779 0.931 . S
C766 O769 1.256 . S
C766 O770 1.255 1_556 S
O767 Co750 2.021 1_554 S
O767 C760 1.259 1_554 S
O768 Co752 2.117 . S
O768 C760 1.258 . S
O769 Co752 2.020 . S
O769 C766 1.256 . S
O770 Co750 2.062 1_554 S
O770 C766 1.255 1_554 S
O771 C751 1.259 . S
O771 Co752 2.021 . S
H772 C763 0.930 . S
H773 C762 0.931 . S
O774 Co750 2.117 . S
O774 C751 1.258 . S
O775 Co750 2.020 . S
O775 C777 1.256 . S
O776 Co752 2.062 . S
O776 C777 1.255 . S
C777 O775 1.256 . S
C777 O776 1.255 . S
H778 C757 0.931 . S
H779 C765 0.931 . S
Co780 N785 2.057 . S
Co780 O797 2.021 . S
Co780 O800 2.062 . S
Co780 O804 2.117 . S
Co780 O805 2.020 . S
C781 O801 1.259 . S
C781 O804 1.258 . S
Co782 N791 2.057 . S
Co782 O798 2.117 . S
Co782 O799 2.020 . S
Co782 O801 2.021 . S
Co782 O806 2.062 . S
C783 N785 1.316 . S
C783 N786 1.347 1_455 S
C783 H788 0.931 . S
C784 N785 1.375 . S
C784 C787 1.350 1_455 S
C784 H789 0.930 . S
N785 Co780 2.057 . S
N785 C783 1.316 . S
N785 C784 1.375 . S
N786 C783 1.347 1_655 S
N786 C787 1.373 . S
C787 C784 1.350 1_655 S
C787 N786 1.373 . S
C787 H808 0.931 . S
H788 C783 0.931 . S
H789 C784 0.930 . S
C790 O797 1.259 . S
C790 O798 1.258 . S
N791 Co782 2.057 . S
N791 C792 1.316 . S
N791 C793 1.375 . S
C792 N791 1.316 . S
C792 N794 1.347 . S
C792 H803 0.931 . S
C793 N791 1.375 . S
C793 C795 1.350 . S
C793 H802 0.930 . S
N794 C792 1.347 . S
N794 C795 1.373 . S
C795 C793 1.350 . S
C795 N794 1.373 . S
C795 H809 0.931 . S
C796 O799 1.256 . S
C796 O800 1.255 . S
O797 Co780 2.021 . S
O797 C790 1.259 . S
O798 Co782 2.117 . S
O798 C790 1.258 . S
O799 Co782 2.020 . S
O799 C796 1.256 . S
O800 Co780 2.062 . S
O800 C796 1.255 . S
O801 C781 1.259 . S
O801 Co782 2.021 . S
H802 C793 0.930 . S
H803 C792 0.931 . S
O804 Co780 2.117 . S
O804 C781 1.258 . S
O805 Co780 2.020 . S
O805 C807 1.256 . S
O806 Co782 2.062 . S
O806 C807 1.255 . S
C807 O805 1.256 . S
C807 O806 1.255 . S
H808 C787 0.931 . S
H809 C795 0.931 . S
Co810 N815 2.057 . S
Co810 O827 2.021 . S
Co810 O830 2.062 . S
Co810 O834 2.117 . S
Co810 O835 2.020 . S
C811 O831 1.259 . S
C811 O834 1.258 . S
Co812 N821 2.057 . S
Co812 O828 2.117 . S
Co812 O829 2.020 . S
Co812 O831 2.021 . S
Co812 O836 2.062 . S
C813 N815 1.316 . S
C813 N816 1.347 . S
C813 H818 0.931 . S
C814 N815 1.375 . S
C814 C817 1.350 . S
C814 H819 0.930 . S
N815 Co810 2.057 . S
N815 C813 1.316 . S
N815 C814 1.375 . S
N816 C813 1.347 . S
N816 C817 1.373 . S
C817 C814 1.350 . S
C817 N816 1.373 . S
C817 H838 0.931 . S
H818 C813 0.931 . S
H819 C814 0.930 . S
C820 O827 1.259 . S
C820 O828 1.258 . S
N821 Co812 2.057 . S
N821 C822 1.316 . S
N821 C823 1.375 . S
C822 N821 1.316 . S
C822 N824 1.347 . S
C822 H833 0.931 . S
C823 N821 1.375 . S
C823 C825 1.350 . S
C823 H832 0.930 . S
N824 C822 1.347 . S
N824 C825 1.373 . S
C825 C823 1.350 . S
C825 N824 1.373 . S
C825 H839 0.931 . S
C826 O829 1.256 . S
C826 O830 1.255 . S
O827 Co810 2.021 . S
O827 C820 1.259 . S
O828 Co812 2.117 . S
O828 C820 1.258 . S
O829 Co812 2.020 . S
O829 C826 1.256 . S
O830 Co810 2.062 . S
O830 C826 1.255 . S
O831 C811 1.259 . S
O831 Co812 2.021 . S
H832 C823 0.930 . S
H833 C822 0.931 . S
O834 Co810 2.117 . S
O834 C811 1.258 . S
O835 Co810 2.020 . S
O835 C837 1.256 . S
O836 Co812 2.062 . S
O836 C837 1.255 . S
C837 O835 1.256 . S
C837 O836 1.255 . S
H838 C817 0.931 . S
H839 C825 0.931 . S
Co840 N845 2.057 . S
Co840 O857 2.021 . S
Co840 O860 2.062 . S
Co840 O864 2.117 . S
Co840 O865 2.020 . S
C841 O861 1.259 . S
C841 O864 1.258 . S
Co842 N851 2.057 . S
Co842 O858 2.117 . S
Co842 O859 2.020 . S
Co842 O861 2.021 . S
Co842 O866 2.062 . S
C843 N845 1.316 . S
C843 N846 1.347 . S
C843 H848 0.931 . S
C844 N845 1.375 . S
C844 C847 1.350 . S
C844 H849 0.930 . S
N845 Co840 2.057 . S
N845 C843 1.316 . S
N845 C844 1.375 . S
N846 C843 1.347 . S
N846 C847 1.373 . S
C847 C844 1.350 . S
C847 N846 1.373 . S
C847 H868 0.931 . S
H848 C843 0.931 . S
H849 C844 0.930 . S
C850 O857 1.259 . S
C850 O858 1.258 . S
N851 Co842 2.057 . S
N851 C852 1.316 . S
N851 C853 1.375 . S
C852 N851 1.316 . S
C852 N854 1.347 . S
C852 H863 0.931 . S
C853 N851 1.375 . S
C853 C855 1.350 . S
C853 H862 0.930 . S
N854 C852 1.347 . S
N854 C855 1.373 . S
C855 C853 1.350 . S
C855 N854 1.373 . S
C855 H869 0.931 . S
C856 O859 1.256 . S
C856 O860 1.255 . S
O857 Co840 2.021 . S
O857 C850 1.259 . S
O858 Co842 2.117 . S
O858 C850 1.258 . S
O859 Co842 2.020 . S
O859 C856 1.256 . S
O860 Co840 2.062 . S
O860 C856 1.255 . S
O861 C841 1.259 . S
O861 Co842 2.021 . S
H862 C853 0.930 . S
H863 C852 0.931 . S
O864 Co840 2.117 . S
O864 C841 1.258 . S
O865 Co840 2.020 . S
O865 C867 1.256 . S
O866 Co842 2.062 . S
O866 C867 1.255 . S
C867 O865 1.256 . S
C867 O866 1.255 . S
H868 C847 0.931 . S
H869 C855 0.931 . S
Co870 N875 2.057 1_554 S
Co870 O887 2.021 . S
Co870 O890 2.062 . S
Co870 O894 2.117 . S
Co870 O895 2.020 . S
C871 O891 1.259 . S
C871 O894 1.258 . S
Co872 N881 2.057 . S
Co872 O888 2.117 . S
Co872 O889 2.020 . S
Co872 O891 2.021 . S
Co872 O896 2.062 . S
C873 N875 1.316 . S
C873 N876 1.347 . S
C873 H878 0.931 . S
C874 N875 1.375 . S
C874 C877 1.350 . S
C874 H879 0.930 1_556 S
N875 Co870 2.057 1_556 S
N875 C873 1.316 . S
N875 C874 1.375 . S
N876 C873 1.347 . S
N876 C877 1.373 . S
C877 C874 1.350 . S
C877 N876 1.373 . S
C877 H898 0.931 . S
H878 C873 0.931 . S
H879 C874 0.930 1_554 S
C880 O887 1.259 . S
C880 O888 1.258 . S
N881 Co872 2.057 . S
N881 C882 1.316 . S
N881 C883 1.375 . S
C882 N881 1.316 . S
C882 N884 1.347 . S
C882 H893 0.931 . S
C883 N881 1.375 . S
C883 C885 1.350 . S
C883 H892 0.930 . S
N884 C882 1.347 . S
N884 C885 1.373 . S
C885 C883 1.350 . S
C885 N884 1.373 . S
C885 H899 0.931 . S
C886 O889 1.256 . S
C886 O890 1.255 . S
O887 Co870 2.021 . S
O887 C880 1.259 . S
O888 Co872 2.117 . S
O888 C880 1.258 . S
O889 Co872 2.020 . S
O889 C886 1.256 . S
O890 Co870 2.062 . S
O890 C886 1.255 . S
O891 C871 1.259 . S
O891 Co872 2.021 . S
H892 C883 0.930 . S
H893 C882 0.931 . S
O894 Co870 2.117 . S
O894 C871 1.258 . S
O895 Co870 2.020 . S
O895 C897 1.256 . S
O896 Co872 2.062 . S
O896 C897 1.255 . S
C897 O895 1.256 . S
C897 O896 1.255 . S
H898 C877 0.931 . S
H899 C885 0.931 . S
Co900 N905 2.057 . S
Co900 O917 2.021 . S
Co900 O920 2.062 . S
Co900 O924 2.117 . S
Co900 O925 2.020 . S
C901 O921 1.259 . S
C901 O924 1.258 . S
Co902 N911 2.057 . S
Co902 O918 2.117 . S
Co902 O919 2.020 . S
Co902 O921 2.021 . S
Co902 O926 2.062 . S
C903 N905 1.316 . S
C903 N906 1.347 . S
C903 H908 0.931 . S
C904 N905 1.375 . S
C904 C907 1.350 . S
C904 H909 0.930 . S
N905 Co900 2.057 . S
N905 C903 1.316 . S
N905 C904 1.375 . S
N906 C903 1.347 . S
N906 C907 1.373 . S
C907 C904 1.350 . S
C907 N906 1.373 . S
C907 H928 0.931 . S
H908 C903 0.931 . S
H909 C904 0.930 . S
C910 O917 1.259 . S
C910 O918 1.258 . S
N911 Co902 2.057 . S
N911 C912 1.316 . S
N911 C913 1.375 . S
C912 N911 1.316 . S
C912 N914 1.347 . S
C912 H923 0.931 . S
C913 N911 1.375 . S
C913 C915 1.350 . S
C913 H922 0.930 . S
N914 C912 1.347 . S
N914 C915 1.373 . S
C915 C913 1.350 . S
C915 N914 1.373 . S
C915 H929 0.931 . S
C916 O919 1.256 . S
C916 O920 1.255 . S
O917 Co900 2.021 . S
O917 C910 1.259 . S
O918 Co902 2.117 . S
O918 C910 1.258 . S
O919 Co902 2.020 . S
O919 C916 1.256 . S
O920 Co900 2.062 . S
O920 C916 1.255 . S
O921 C901 1.259 . S
O921 Co902 2.021 . S
H922 C913 0.930 . S
H923 C912 0.931 . S
O924 Co900 2.117 . S
O924 C901 1.258 . S
O925 Co900 2.020 . S
O925 C927 1.256 . S
O926 Co902 2.062 . S
O926 C927 1.255 . S
C927 O925 1.256 . S
C927 O926 1.255 . S
H928 C907 0.931 . S
H929 C915 0.931 . S
Co930 N935 2.057 . S
Co930 O947 2.021 . S
Co930 O950 2.062 . S
Co930 O954 2.117 . S
Co930 O955 2.020 . S
C931 O951 1.259 . S
C931 O954 1.258 . S
Co932 N941 2.057 . S
Co932 O948 2.117 . S
Co932 O949 2.020 . S
Co932 O951 2.021 . S
Co932 O956 2.062 . S
C933 N935 1.316 . S
C933 N936 1.347 . S
C933 H938 0.931 . S
C934 N935 1.375 . S
C934 C937 1.350 . S
C934 H939 0.930 . S
N935 Co930 2.057 . S
N935 C933 1.316 . S
N935 C934 1.375 . S
N936 C933 1.347 . S
N936 C937 1.373 . S
C937 C934 1.350 . S
C937 N936 1.373 . S
C937 H958 0.931 . S
H938 C933 0.931 . S
H939 C934 0.930 . S
C940 O947 1.259 . S
C940 O948 1.258 . S
N941 Co932 2.057 . S
N941 C942 1.316 . S
N941 C943 1.375 . S
C942 N941 1.316 . S
C942 N944 1.347 . S
C942 H953 0.931 . S
C943 N941 1.375 . S
C943 C945 1.350 . S
C943 H952 0.930 . S
N944 C942 1.347 . S
N944 C945 1.373 . S
C945 C943 1.350 . S
C945 N944 1.373 . S
C945 H959 0.931 . S
C946 O949 1.256 . S
C946 O950 1.255 . S
O947 Co930 2.021 . S
O947 C940 1.259 . S
O948 Co932 2.117 . S
O948 C940 1.258 . S
O949 Co932 2.020 . S
O949 C946 1.256 . S
O950 Co930 2.062 . S
O950 C946 1.255 . S
O951 C931 1.259 . S
O951 Co932 2.021 . S
H952 C943 0.930 . S
H953 C942 0.931 . S
O954 Co930 2.117 . S
O954 C931 1.258 . S
O955 Co930 2.020 . S
O955 C957 1.256 . S
O956 Co932 2.062 . S
O956 C957 1.255 . S
C957 O955 1.256 . S
C957 O956 1.255 . S
H958 C937 0.931 . S
H959 C945 0.931 . S
C960 C961 1.363 . S
C960 C966 1.379 . S
C960 N968 1.356 . S
C961 C960 1.363 . S
C961 C967 1.363 . S
C962 C963 1.363 . S
C962 C967 1.379 . S
C962 N969 1.356 . S
C963 C962 1.363 . S
C963 C966 1.363 . S
N964 C966 1.356 . S
N964 H976 0.984 . S
N964 H977 0.985 . S
N965 C967 1.356 . S
N965 H970 0.984 . S
N965 H971 0.985 . S
C966 C960 1.379 . S
C966 C963 1.363 . S
C966 N964 1.356 . S
C967 C961 1.363 . S
C967 C962 1.379 . S
C967 N965 1.356 . S
N968 C960 1.356 . S
N968 H974 0.984 . S
N968 H975 0.984 . S
N969 C962 1.356 . S
N969 H972 0.984 . S
N969 H973 0.985 . S
H970 N965 0.984 . S
H971 N965 0.985 . S
H972 N969 0.984 . S
H973 N969 0.985 . S
H974 N968 0.984 . S
H975 N968 0.984 . S
H976 N964 0.984 . S
H977 N964 0.985 . S
C978 C979 1.363 1_565 S
C978 C984 1.379 . S
C978 N986 1.356 . S
C979 C978 1.363 1_545 S
C979 C985 1.363 . S
C980 C981 1.363 . S
C980 C985 1.379 1_565 S
C980 N987 1.356 . S
C981 C980 1.363 . S
C981 C984 1.363 . S
N982 C984 1.356 . S
N982 H994 0.984 . S
N982 H995 0.985 . S
N983 C985 1.356 . S
N983 H988 0.984 . S
N983 H989 0.985 . S
C984 C978 1.379 . S
C984 C981 1.363 . S
C984 N982 1.356 . S
C985 C979 1.363 . S
C985 C980 1.379 1_545 S
C985 N983 1.356 . S
N986 C978 1.356 . S
N986 H992 0.984 . S
N986 H993 0.984 1_565 S
N987 C980 1.356 . S
N987 H990 0.984 . S
N987 H991 0.993 . S
H988 N983 0.984 . S
H989 N983 0.985 . S
H990 N987 0.984 . S
H991 N987 0.993 . S
H992 N986 0.984 . S
H993 N986 0.984 1_545 S
H994 N982 0.984 . S
H995 N982 0.985 . S
C996 C997 1.363 . S
C996 C1002 1.379 . S
C996 N1004 1.356 . S
C997 C996 1.363 . S
C997 C1003 1.363 . S
C998 C999 1.363 . S
C998 C1003 1.379 . S
C998 N1005 1.356 . S
C999 C998 1.363 . S
C999 C1002 1.363 . S
N1000 C1002 1.356 . S
N1000 H1012 0.984 . S
N1000 H1013 0.985 . S
N1001 C1003 1.356 . S
N1001 H1006 0.984 . S
N1001 H1007 0.985 . S
C1002 C996 1.379 . S
C1002 C999 1.363 . S
C1002 N1000 1.356 . S
C1003 C997 1.363 . S
C1003 C998 1.379 . S
C1003 N1001 1.356 . S
N1004 C996 1.356 . S
N1004 H1010 0.984 . S
N1004 H1011 0.984 . S
N1005 C998 1.356 . S
N1005 H1008 0.984 . S
N1005 H1009 0.985 . S
H1006 N1001 0.984 . S
H1007 N1001 0.985 . S
H1008 N1005 0.984 . S
H1009 N1005 0.985 . S
H1010 N1004 0.984 . S
H1011 N1004 0.984 . S
H1012 N1000 0.984 . S
H1013 N1000 0.985 . S
C1014 C1015 1.363 . S
C1014 C1020 1.379 . S
C1014 N1022 1.356 . S
C1015 C1014 1.363 . S
C1015 C1021 1.363 . S
C1016 C1017 1.363 . S
C1016 C1021 1.379 . S
C1016 N1023 1.356 1_556 S
C1017 C1016 1.363 . S
C1017 C1020 1.363 . S
N1018 C1020 1.356 1_545 S
N1018 H1030 0.984 . S
N1018 H1031 0.985 . S
N1019 C1021 1.356 . S
N1019 H1024 0.984 . S
N1019 H1025 0.985 . S
C1020 C1014 1.379 . S
C1020 C1017 1.363 . S
C1020 N1018 1.356 1_565 S
C1021 C1015 1.363 . S
C1021 C1016 1.379 . S
C1021 N1019 1.356 . S
N1022 C1014 1.356 . S
N1022 H1028 0.984 . S
N1022 H1029 0.984 . S
N1023 C1016 1.356 1_554 S
N1023 H1026 0.984 . S
N1023 H1027 0.985 . S
H1024 N1019 0.984 . S
H1025 N1019 0.985 . S
H1026 N1023 0.984 . S
H1027 N1023 0.985 . S
H1028 N1022 0.984 . S
H1029 N1022 0.984 . S
H1030 N1018 0.984 . S
H1031 N1018 0.985 . S
C1032 C1033 1.363 . S
C1032 C1038 1.379 . S
C1032 N1040 1.356 . S
C1033 C1032 1.363 . S
C1033 C1039 1.363 . S
C1034 C1035 1.363 . S
C1034 C1039 1.379 . S
C1034 N1041 1.356 . S
C1035 C1034 1.363 . S
C1035 C1038 1.363 . S
N1036 C1038 1.356 . S
N1036 H1048 0.984 . S
N1036 H1049 0.985 . S
N1037 C1039 1.356 . S
N1037 H1042 0.984 . S
N1037 H1043 0.985 . S
C1038 C1032 1.379 . S
C1038 C1035 1.363 . S
C1038 N1036 1.356 . S
C1039 C1033 1.363 . S
C1039 C1034 1.379 . S
C1039 N1037 1.356 . S
N1040 C1032 1.356 . S
N1040 H1046 0.984 . S
N1040 H1047 0.984 . S
N1041 C1034 1.356 . S
N1041 H1044 0.984 . S
N1041 H1045 0.985 . S
H1042 N1037 0.984 . S
H1043 N1037 0.985 . S
H1044 N1041 0.984 . S
H1045 N1041 0.985 . S
H1046 N1040 0.984 . S
H1047 N1040 0.984 . S
H1048 N1036 0.984 . S
H1049 N1036 0.985 . S
C1050 C1051 1.363 . S
C1050 C1056 1.379 1_565 S
C1050 N1058 1.356 . S
C1051 C1050 1.363 . S
C1051 C1057 1.363 . S
C1052 C1053 1.363 . S
C1052 C1057 1.379 1_545 S
C1052 N1059 1.356 . S
C1053 C1052 1.363 . S
C1053 C1056 1.363 . S
N1054 C1056 1.356 . S
N1054 H1066 0.984 . S
N1054 H1067 0.985 . S
N1055 C1057 1.356 . S
N1055 H1060 0.984 . S
N1055 H1061 0.985 . S
C1056 C1050 1.379 1_545 S
C1056 C1053 1.363 . S
C1056 N1054 1.356 . S
C1057 C1051 1.363 . S
C1057 C1052 1.379 1_565 S
C1057 N1055 1.356 . S
N1058 C1050 1.356 . S
N1058 H1064 0.984 . S
N1058 H1065 0.984 . S
N1059 C1052 1.356 . S
N1059 H1062 0.984 . S
N1059 H1063 0.985 . S
H1060 N1055 0.984 . S
H1061 N1055 0.985 . S
H1062 N1059 0.984 . S
H1063 N1059 0.985 . S
H1064 N1058 0.984 . S
H1065 N1058 0.984 . S
H1066 N1054 0.984 . S
H1067 N1054 0.985 . S
C1068 C1069 1.363 . S
C1068 C1074 1.379 . S
C1068 N1076 1.356 . S
C1069 C1068 1.363 . S
C1069 C1075 1.363 . S
C1070 C1071 1.363 . S
C1070 C1075 1.379 . S
C1070 N1077 1.356 . S
C1071 C1070 1.363 . S
C1071 C1074 1.363 . S
N1072 C1074 1.356 . S
N1072 H1084 0.984 . S
N1072 H1085 0.985 . S
N1073 C1075 1.356 . S
N1073 H1078 0.984 . S
N1073 H1079 0.985 . S
C1074 C1068 1.379 . S
C1074 C1071 1.363 . S
C1074 N1072 1.356 . S
C1075 C1069 1.363 . S
C1075 C1070 1.379 . S
C1075 N1073 1.356 . S
N1076 C1068 1.356 . S
N1076 H1082 0.984 . S
N1076 H1083 0.984 . S
N1077 C1070 1.356 . S
N1077 H1080 0.984 . S
N1077 H1081 0.985 . S
H1078 N1073 0.984 . S
H1079 N1073 0.985 . S
H1080 N1077 0.984 . S
H1081 N1077 0.985 . S
H1082 N1076 0.984 . S
H1083 N1076 0.984 . S
H1084 N1072 0.984 . S
H1085 N1072 0.985 . S
C1086 C1087 1.363 1_554 S
C1086 C1092 1.379 1_564 S
C1086 N1094 1.356 . S
C1087 C1086 1.363 1_556 S
C1087 C1093 1.363 . S
C1088 C1089 1.363 . S
C1088 C1093 1.379 1_545 S
C1088 N1095 1.356 . S
C1089 C1088 1.363 . S
C1089 C1092 1.363 . S
N1090 C1092 1.356 1_554 S
N1090 H1102 0.984 . S
N1090 H1103 0.985 1_554 S
N1091 C1093 1.356 . S
N1091 H1096 0.984 . S
N1091 H1097 0.985 . S
C1092 C1086 1.379 1_546 S
C1092 C1089 1.363 . S
C1092 N1090 1.356 1_556 S
C1093 C1087 1.363 . S
C1093 C1088 1.379 1_565 S
C1093 N1091 1.356 . S
N1094 C1086 1.356 . S
N1094 H1100 0.984 . S
N1094 H1101 0.984 . S
N1095 C1088 1.356 . S
N1095 H1098 0.984 . S
N1095 H1099 0.985 . S
H1096 N1091 0.984 . S
H1097 N1091 0.985 . S
H1098 N1095 0.984 . S
H1099 N1095 0.985 . S
H1100 N1094 0.984 . S
H1101 N1094 0.984 . S
H1102 N1090 0.984 . S
H1103 N1090 0.985 1_556 S
C1104 C1105 1.363 . S
C1104 C1110 1.379 . S
C1104 N1112 1.356 . S
C1105 C1104 1.363 . S
C1105 C1111 1.363 . S
C1106 C1107 1.363 . S
C1106 C1111 1.379 . S
C1106 N1113 1.356 . S
C1107 C1106 1.363 . S
C1107 C1110 1.363 . S
N1108 C1110 1.356 . S
N1108 H1120 0.984 . S
N1108 H1121 0.985 . S
N1109 C1111 1.356 . S
N1109 H1114 0.984 . S
N1109 H1115 0.985 . S
C1110 C1104 1.379 . S
C1110 C1107 1.363 . S
C1110 N1108 1.356 . S
C1111 C1105 1.363 . S
C1111 C1106 1.379 . S
C1111 N1109 1.356 . S
N1112 C1104 1.356 . S
N1112 H1118 0.984 . S
N1112 H1119 0.984 . S
N1113 C1106 1.356 . S
N1113 H1116 0.984 . S
N1113 H1117 0.985 . S
H1114 N1109 0.984 . S
H1115 N1109 0.985 . S
H1116 N1113 0.984 . S
H1117 N1113 0.985 . S
H1118 N1112 0.984 . S
H1119 N1112 0.984 . S
H1120 N1108 0.984 . S
H1121 N1108 0.985 . S
C1122 C1123 1.363 . S
C1122 C1128 1.379 . S
C1122 N1130 1.356 . S
C1123 C1122 1.363 . S
C1123 C1129 1.363 . S
C1124 C1125 1.363 . S
C1124 C1129 1.379 1_565 S
C1124 N1131 1.356 . S
C1125 C1124 1.363 . S
C1125 C1128 1.363 1_565 S
N1126 C1128 1.356 . S
N1126 H1138 0.984 . S
N1126 H1139 0.985 1_545 S
N1127 C1129 1.356 . S
N1127 H1132 0.984 . S
N1127 H1133 0.985 . S
C1128 C1122 1.379 . S
C1128 C1125 1.363 1_545 S
C1128 N1126 1.356 . S
C1129 C1123 1.363 . S
C1129 C1124 1.379 1_545 S
C1129 N1127 1.356 . S
N1130 C1122 1.356 . S
N1130 H1136 0.984 . S
N1130 H1137 0.984 . S
N1131 C1124 1.356 . S
N1131 H1134 0.984 . S
N1131 H1135 0.985 . S
H1132 N1127 0.984 . S
H1133 N1127 0.985 . S
H1134 N1131 0.984 . S
H1135 N1131 0.985 . S
H1136 N1130 0.984 . S
H1137 N1130 0.984 . S
H1138 N1126 0.984 . S
H1139 N1126 0.985 1_565 S
C1140 C1141 1.363 . S
C1140 C1146 1.379 . S
C1140 N1148 1.356 . S
C1141 C1140 1.363 . S
C1141 C1147 1.363 . S
C1142 C1143 1.363 . S
C1142 C1147 1.379 . S
C1142 N1149 1.356 . S
C1143 C1142 1.363 . S
C1143 C1146 1.363 . S
N1144 C1146 1.356 . S
N1144 H1156 0.984 . S
N1144 H1157 0.985 . S
N1145 C1147 1.356 . S
N1145 H1150 0.984 . S
N1145 H1151 0.985 . S
C1146 C1140 1.379 . S
C1146 C1143 1.363 . S
C1146 N1144 1.356 . S
C1147 C1141 1.363 . S
C1147 C1142 1.379 . S
C1147 N1145 1.356 . S
N1148 C1140 1.356 . S
N1148 H1154 0.984 . S
N1148 H1155 0.984 . S
N1149 C1142 1.356 . S
N1149 H1152 0.984 . S
N1149 H1153 0.985 . S
H1150 N1145 0.984 . S
H1151 N1145 0.985 . S
H1152 N1149 0.984 . S
H1153 N1149 0.985 . S
H1154 N1148 0.984 . S
H1155 N1148 0.984 . S
H1156 N1144 0.984 . S
H1157 N1144 0.985 . S
C1158 C1159 1.363 . S
C1158 C1164 1.379 . S
C1158 N1166 1.356 . S
C1159 C1158 1.363 . S
C1159 C1165 1.363 . S
C1160 C1161 1.363 . S
C1160 C1165 1.379 . S
C1160 N1167 1.356 . S
C1161 C1160 1.363 . S
C1161 C1164 1.363 . S
N1162 C1164 1.356 . S
N1162 H1174 0.984 . S
N1162 H1175 0.985 . S
N1163 C1165 1.356 1_565 S
N1163 H1168 0.984 . S
N1163 H1169 0.985 . S
C1164 C1158 1.379 . S
C1164 C1161 1.363 . S
C1164 N1162 1.356 . S
C1165 C1159 1.363 . S
C1165 C1160 1.379 . S
C1165 N1163 1.356 1_545 S
N1166 C1158 1.356 . S
N1166 H1172 0.984 1_554 S
N1166 H1173 0.984 1_554 S
N1167 C1160 1.356 . S
N1167 H1170 0.984 . S
N1167 H1171 0.985 . S
H1168 N1163 0.984 . S
H1169 N1163 0.985 . S
H1170 N1167 0.984 . S
H1171 N1167 0.985 . S
H1172 N1166 0.984 1_556 S
H1173 N1166 0.984 1_556 S
H1174 N1162 0.984 . S
H1175 N1162 0.985 . S
C1176 C1177 1.363 . S
C1176 C1182 1.379 . S
C1176 N1184 1.356 . S
C1177 C1176 1.363 . S
C1177 C1183 1.363 . S
C1178 C1179 1.363 . S
C1178 C1183 1.379 . S
C1178 N1185 1.356 . S
C1179 C1178 1.363 . S
C1179 C1182 1.363 . S
N1180 C1182 1.356 . S
N1180 H1192 0.984 . S
N1180 H1193 0.985 . S
N1181 C1183 1.356 . S
N1181 H1186 0.984 . S
N1181 H1187 0.985 . S
C1182 C1176 1.379 . S
C1182 C1179 1.363 . S
C1182 N1180 1.356 . S
C1183 C1177 1.363 . S
C1183 C1178 1.379 . S
C1183 N1181 1.356 . S
N1184 C1176 1.356 . S
N1184 H1190 0.984 . S
N1184 H1191 0.984 . S
N1185 C1178 1.356 . S
N1185 H1188 0.984 . S
N1185 H1189 0.985 . S
H1186 N1181 0.984 . S
H1187 N1181 0.985 . S
H1188 N1185 0.984 . S
H1189 N1185 0.985 . S
H1190 N1184 0.984 . S
H1191 N1184 0.984 . S
H1192 N1180 0.984 . S
H1193 N1180 0.985 . S
C1194 C1195 1.363 . S
C1194 C1200 1.379 1_545 S
C1194 N1202 1.356 . S
C1195 C1194 1.363 . S
C1195 C1201 1.363 . S
C1196 C1197 1.363 . S
C1196 C1201 1.379 1_565 S
C1196 N1203 1.356 . S
C1197 C1196 1.363 . S
C1197 C1200 1.363 . S
N1198 C1200 1.356 . S
N1198 H1210 0.984 . S
N1198 H1211 0.985 . S
N1199 C1201 1.356 . S
N1199 H1204 0.984 . S
N1199 H1205 0.985 . S
C1200 C1194 1.379 1_565 S
C1200 C1197 1.363 . S
C1200 N1198 1.356 . S
C1201 C1195 1.363 . S
C1201 C1196 1.379 1_545 S
C1201 N1199 1.356 . S
N1202 C1194 1.356 . S
N1202 H1208 0.984 . S
N1202 H1209 0.984 . S
N1203 C1196 1.356 . S
N1203 H1206 0.984 . S
N1203 H1207 0.985 . S
H1204 N1199 0.984 . S
H1205 N1199 0.985 . S
H1206 N1203 0.984 . S
H1207 N1203 0.985 . S
H1208 N1202 0.984 . S
H1209 N1202 0.984 . S
H1210 N1198 0.984 . S
H1211 N1198 0.985 . S
C1212 C1213 1.363 . S
C1212 C1218 1.379 . S
C1212 N1220 1.356 . S
C1213 C1212 1.363 . S
C1213 C1219 1.363 . S
C1214 C1215 1.363 . S
C1214 C1219 1.379 . S
C1214 N1221 1.356 . S
C1215 C1214 1.363 . S
C1215 C1218 1.363 . S
N1216 C1218 1.356 . S
N1216 H1228 0.984 . S
N1216 H1229 0.985 . S
N1217 C1219 1.356 . S
N1217 H1222 0.984 . S
N1217 H1223 0.985 . S
C1218 C1212 1.379 . S
C1218 C1215 1.363 . S
C1218 N1216 1.356 . S
C1219 C1213 1.363 . S
C1219 C1214 1.379 . S
C1219 N1217 1.356 . S
N1220 C1212 1.356 . S
N1220 H1226 0.984 . S
N1220 H1227 0.984 . S
N1221 C1214 1.356 . S
N1221 H1224 0.984 . S
N1221 H1225 0.985 . S
H1222 N1217 0.984 . S
H1223 N1217 0.985 . S
H1224 N1221 0.984 . S
H1225 N1221 0.985 . S
H1226 N1220 0.984 . S
H1227 N1220 0.984 . S
H1228 N1216 0.984 . S
H1229 N1216 0.985 . S
C1230 C1231 1.363 . S
C1230 C1236 1.379 1_545 S
C1230 N1238 1.356 . S
C1231 C1230 1.363 . S
C1231 C1237 1.363 1_554 S
C1232 C1233 1.363 . S
C1232 C1237 1.379 1_564 S
C1232 N1239 1.356 1_554 S
C1233 C1232 1.363 . S
C1233 C1236 1.363 . S
N1234 C1236 1.356 . S
N1234 H1246 0.984 . S
N1234 H1247 0.985 . S
N1235 C1237 1.356 . S
N1235 H1240 0.984 . S
N1235 H1241 0.985 . S
C1236 C1230 1.379 1_565 S
C1236 C1233 1.363 . S
C1236 N1234 1.356 . S
C1237 C1231 1.363 1_556 S
C1237 C1232 1.379 1_546 S
C1237 N1235 1.356 . S
N1238 C1230 1.356 . S
N1238 H1244 0.984 . S
N1238 H1245 0.984 . S
N1239 C1232 1.356 1_556 S
N1239 H1242 0.984 1_556 S
N1239 H1243 0.985 . S
H1240 N1235 0.984 . S
H1241 N1235 0.985 . S
H1242 N1239 0.984 1_554 S
H1243 N1239 0.985 . S
H1244 N1238 0.984 . S
H1245 N1238 0.984 . S
H1246 N1234 0.984 . S
H1247 N1234 0.985 . S
C1248 C1249 1.363 . S
C1248 C1254 1.379 . S
C1248 N1256 1.356 . S
C1249 C1248 1.363 . S
C1249 C1255 1.363 . S
C1250 C1251 1.363 . S
C1250 C1255 1.379 . S
C1250 N1257 1.356 . S
C1251 C1250 1.363 . S
C1251 C1254 1.363 . S
N1252 C1254 1.356 . S
N1252 H1264 0.984 . S
N1252 H1265 0.985 . S
N1253 C1255 1.356 . S
N1253 H1258 0.984 . S
N1253 H1259 0.985 . S
C1254 C1248 1.379 . S
C1254 C1251 1.363 . S
C1254 N1252 1.356 . S
C1255 C1249 1.363 . S
C1255 C1250 1.379 . S
C1255 N1253 1.356 . S
N1256 C1248 1.356 . S
N1256 H1262 0.984 . S
N1256 H1263 0.984 . S
N1257 C1250 1.356 . S
N1257 H1260 0.984 . S
N1257 H1261 0.985 . S
H1258 N1253 0.984 . S
H1259 N1253 0.985 . S
H1260 N1257 0.984 . S
H1261 N1257 0.985 . S
H1262 N1256 0.984 . S
H1263 N1256 0.984 . S
H1264 N1252 0.984 . S
H1265 N1252 0.985 . S
C1266 C1267 1.363 . S
C1266 C1272 1.379 . S
C1266 N1274 1.356 . S
C1267 C1266 1.363 . S
C1267 C1273 1.363 . S
C1268 C1269 1.363 . S
C1268 C1273 1.379 . S
C1268 N1275 1.356 . S
C1269 C1268 1.363 . S
C1269 C1272 1.363 . S
N1270 C1272 1.356 1_554 S
N1270 H1282 0.984 . S
N1270 H1283 0.985 . S
N1271 C1273 1.356 . S
N1271 H1276 0.984 . S
N1271 H1277 0.985 . S
C1272 C1266 1.379 . S
C1272 C1269 1.363 . S
C1272 N1270 1.356 1_556 S
C1273 C1267 1.363 . S
C1273 C1268 1.379 . S
C1273 N1271 1.356 . S
N1274 C1266 1.356 . S
N1274 H1280 0.984 . S
N1274 H1281 0.984 . S
N1275 C1268 1.356 . S
N1275 H1278 0.984 . S
N1275 H1279 0.985 . S
H1276 N1271 0.984 . S
H1277 N1271 0.985 . S
H1278 N1275 0.984 . S
H1279 N1275 0.985 . S
H1280 N1274 0.984 . S
H1281 N1274 0.984 . S
H1282 N1270 0.984 . S
H1283 N1270 0.985 . S
C1284 C1285 1.363 . S
C1284 C1290 1.379 . S
C1284 N1292 1.356 . S
C1285 C1284 1.363 . S
C1285 C1291 1.363 . S
C1286 C1287 1.363 . S
C1286 C1291 1.379 . S
C1286 N1293 1.356 . S
C1287 C1286 1.363 . S
C1287 C1290 1.363 . S
N1288 C1290 1.356 . S
N1288 H1300 0.984 . S
N1288 H1301 0.985 . S
N1289 C1291 1.356 . S
N1289 H1294 0.984 . S
N1289 H1295 0.985 . S
C1290 C1284 1.379 . S
C1290 C1287 1.363 . S
C1290 N1288 1.356 . S
C1291 C1285 1.363 . S
C1291 C1286 1.379 . S
C1291 N1289 1.356 . S
N1292 C1284 1.356 . S
N1292 H1298 0.984 . S
N1292 H1299 0.984 . S
N1293 C1286 1.356 . S
N1293 H1296 0.984 . S
N1293 H1297 0.985 . S
H1294 N1289 0.984 . S
H1295 N1289 0.985 . S
H1296 N1293 0.984 . S
H1297 N1293 0.985 . S
H1298 N1292 0.984 . S
H1299 N1292 0.984 . S
H1300 N1288 0.984 . S
H1301 N1288 0.985 . S
C1302 C1303 1.363 . S
C1302 C1308 1.379 . S
C1302 N1310 1.356 . S
C1303 C1302 1.363 . S
C1303 C1309 1.363 . S
C1304 C1305 1.363 . S
C1304 C1309 1.379 . S
C1304 N1311 1.356 . S
C1305 C1304 1.363 . S
C1305 C1308 1.363 . S
N1306 C1308 1.356 . S
N1306 H1318 0.984 . S
N1306 H1319 0.985 . S
N1307 C1309 1.356 . S
N1307 H1312 0.984 . S
N1307 H1313 0.985 . S
C1308 C1302 1.379 . S
C1308 C1305 1.363 . S
C1308 N1306 1.356 . S
C1309 C1303 1.363 . S
C1309 C1304 1.379 . S
C1309 N1307 1.356 . S
N1310 C1302 1.356 . S
N1310 H1316 0.984 . S
N1310 H1317 0.984 . S
N1311 C1304 1.356 . S
N1311 H1314 0.984 . S
N1311 H1315 0.985 . S
H1312 N1307 0.984 . S
H1313 N1307 0.985 . S
H1314 N1311 0.984 . S
H1315 N1311 0.985 . S
H1316 N1310 0.984 . S
H1317 N1310 0.984 . S
H1318 N1306 0.984 . S
H1319 N1306 0.985 . S
C1320 C1321 1.363 . S
C1320 C1326 1.379 . S
C1320 N1328 1.356 . S
C1321 C1320 1.363 . S
C1321 C1327 1.363 . S
C1322 C1323 1.363 . S
C1322 C1327 1.379 . S
C1322 N1329 1.356 . S
C1323 C1322 1.363 . S
C1323 C1326 1.363 . S
N1324 C1326 1.356 . S
N1324 H1336 0.984 . S
N1324 H1337 0.985 . S
N1325 C1327 1.356 . S
N1325 H1330 0.984 . S
N1325 H1331 0.985 . S
C1326 C1320 1.379 . S
C1326 C1323 1.363 . S
C1326 N1324 1.356 . S
C1327 C1321 1.363 . S
C1327 C1322 1.379 . S
C1327 N1325 1.356 . S
N1328 C1320 1.356 . S
N1328 H1334 0.984 . S
N1328 H1335 0.984 . S
N1329 C1322 1.356 . S
N1329 H1332 0.984 . S
N1329 H1333 0.985 . S
H1330 N1325 0.984 . S
H1331 N1325 0.985 . S
H1332 N1329 0.984 . S
H1333 N1329 0.985 . S
H1334 N1328 0.984 . S
H1335 N1328 0.984 . S
H1336 N1324 0.984 . S
H1337 N1324 0.985 . S
C1338 C1339 1.359 1_556 S
C1338 C1344 1.388 . S
C1338 N1346 1.349 1_556 S
C1339 C1338 1.359 1_554 S
C1339 C1345 1.363 1_554 S
C1340 C1341 1.363 . S
C1340 C1345 1.379 . S
C1340 N1347 1.356 . S
C1341 C1340 1.363 . S
C1341 C1344 1.363 . S
N1342 C1344 1.356 . S
N1342 H1354 0.984 . S
N1342 H1355 0.985 . S
N1343 C1345 1.356 1_554 S
N1343 H1348 0.984 . S
N1343 H1349 0.985 . S
C1344 C1338 1.388 . S
C1344 C1341 1.363 . S
C1344 N1342 1.356 . S
C1345 C1339 1.363 1_556 S
C1345 C1340 1.379 . S
C1345 N1343 1.356 1_556 S
N1346 C1338 1.349 1_554 S
N1346 H1352 0.984 . S
N1346 H1353 0.984 . S
N1347 C1340 1.356 . S
N1347 H1350 0.984 . S
N1347 H1351 0.985 . S
H1348 N1343 0.984 . S
H1349 N1343 0.985 . S
H1350 N1347 0.984 . S
H1351 N1347 0.985 . S
H1352 N1346 0.984 . S
H1353 N1346 0.984 . S
H1354 N1342 0.984 . S
H1355 N1342 0.985 . S
C1356 C1357 1.363 . S
C1356 C1362 1.379 . S
C1356 N1364 1.356 . S
C1357 C1356 1.363 . S
C1357 C1363 1.363 . S
C1358 C1359 1.363 . S
C1358 C1363 1.379 . S
C1358 N1365 1.356 . S
C1359 C1358 1.363 . S
C1359 C1362 1.363 . S
N1360 C1362 1.356 . S
N1360 H1372 0.984 . S
N1360 H1373 0.985 . S
N1361 C1363 1.356 . S
N1361 H1366 0.984 . S
N1361 H1367 0.985 . S
C1362 C1356 1.379 . S
C1362 C1359 1.363 . S
C1362 N1360 1.356 . S
C1363 C1357 1.363 . S
C1363 C1358 1.379 . S
C1363 N1361 1.356 . S
N1364 C1356 1.356 . S
N1364 H1370 0.984 . S
N1364 H1371 0.984 . S
N1365 C1358 1.356 . S
N1365 H1368 0.984 . S
N1365 H1369 0.985 . S
H1366 N1361 0.984 . S
H1367 N1361 0.985 . S
H1368 N1365 0.984 . S
H1369 N1365 0.985 . S
H1370 N1364 0.984 . S
H1371 N1364 0.984 . S
H1372 N1360 0.984 . S
H1373 N1360 0.985 . S
C1374 C1375 1.363 . S
C1374 C1380 1.379 . S
C1374 N1382 1.356 . S
C1375 C1374 1.363 . S
C1375 C1381 1.363 . S
C1376 C1377 1.363 . S
C1376 C1381 1.379 . S
C1376 N1383 1.356 . S
C1377 C1376 1.363 . S
C1377 C1380 1.363 . S
N1378 C1380 1.356 . S
N1378 H1390 0.984 . S
N1378 H1391 0.985 . S
N1379 C1381 1.356 . S
N1379 H1384 0.984 . S
N1379 H1385 0.985 . S
C1380 C1374 1.379 . S
C1380 C1377 1.363 . S
C1380 N1378 1.356 . S
C1381 C1375 1.363 . S
C1381 C1376 1.379 . S
C1381 N1379 1.356 . S
N1382 C1374 1.356 . S
N1382 H1388 0.984 . S
N1382 H1389 0.984 . S
N1383 C1376 1.356 . S
N1383 H1386 0.984 . S
N1383 H1387 0.985 . S
H1384 N1379 0.984 . S
H1385 N1379 0.985 . S
H1386 N1383 0.984 . S
H1387 N1383 0.985 . S
H1388 N1382 0.984 . S
H1389 N1382 0.984 . S
H1390 N1378 0.984 . S
H1391 N1378 0.985 . S
C1392 C1393 1.363 . S
C1392 C1398 1.379 . S
C1392 N1400 1.356 . S
C1393 C1392 1.363 . S
C1393 C1399 1.363 . S
C1394 C1395 1.363 . S
C1394 C1399 1.379 . S
C1394 N1401 1.356 . S
C1395 C1394 1.363 . S
C1395 C1398 1.363 . S
N1396 C1398 1.356 . S
N1396 H1408 0.984 . S
N1396 H1409 0.985 . S
N1397 C1399 1.356 . S
N1397 H1402 0.984 . S
N1397 H1403 0.985 . S
C1398 C1392 1.379 . S
C1398 C1395 1.363 . S
C1398 N1396 1.356 . S
C1399 C1393 1.363 . S
C1399 C1394 1.379 . S
C1399 N1397 1.356 . S
N1400 C1392 1.356 . S
N1400 H1406 0.984 . S
N1400 H1407 0.984 . S
N1401 C1394 1.356 . S
N1401 H1404 0.984 . S
N1401 H1405 0.985 . S
H1402 N1397 0.984 . S
H1403 N1397 0.985 . S
H1404 N1401 0.984 . S
H1405 N1401 0.985 . S
H1406 N1400 0.984 . S
H1407 N1400 0.984 . S
H1408 N1396 0.984 . S
H1409 N1396 0.985 . S
C1410 C1411 1.363 . S
C1410 C1416 1.379 . S
C1410 N1418 1.356 . S
C1411 C1410 1.363 . S
C1411 C1417 1.363 . S
C1412 C1413 1.363 . S
C1412 C1417 1.379 . S
C1412 N1419 1.356 . S
C1413 C1412 1.363 . S
C1413 C1416 1.363 . S
N1414 C1416 1.356 . S
N1414 H1426 0.984 . S
N1414 H1427 0.985 1_554 S
N1415 C1417 1.356 . S
N1415 H1420 0.984 . S
N1415 H1421 0.985 . S
C1416 C1410 1.379 . S
C1416 C1413 1.363 . S
C1416 N1414 1.356 . S
C1417 C1411 1.363 . S
C1417 C1412 1.379 . S
C1417 N1415 1.356 . S
N1418 C1410 1.356 . S
N1418 H1424 0.984 . S
N1418 H1425 0.984 . S
N1419 C1412 1.356 . S
N1419 H1422 0.984 . S
N1419 H1423 0.985 . S
H1420 N1415 0.984 . S
H1421 N1415 0.985 . S
H1422 N1419 0.984 . S
H1423 N1419 0.985 . S
H1424 N1418 0.984 . S
H1425 N1418 0.984 . S
H1426 N1414 0.984 . S
H1427 N1414 0.985 1_556 S
C1428 C1429 1.363 . S
C1428 C1434 1.379 . S
C1428 N1436 1.356 . S
C1429 C1428 1.363 . S
C1429 C1435 1.363 . S
C1430 C1431 1.363 . S
C1430 C1435 1.379 . S
C1430 N1437 1.356 . S
C1431 C1430 1.363 . S
C1431 C1434 1.363 . S
N1432 C1434 1.356 . S
N1432 H1444 0.984 . S
N1432 H1445 0.985 . S
N1433 C1435 1.356 . S
N1433 H1438 0.984 . S
N1433 H1439 0.985 . S
C1434 C1428 1.379 . S
C1434 C1431 1.363 . S
C1434 N1432 1.356 . S
C1435 C1429 1.363 . S
C1435 C1430 1.379 . S
C1435 N1433 1.356 . S
N1436 C1428 1.356 . S
N1436 H1442 0.984 . S
N1436 H1443 0.984 . S
N1437 C1430 1.356 . S
N1437 H1440 0.984 . S
N1437 H1441 0.985 . S
H1438 N1433 0.984 . S
H1439 N1433 0.985 . S
H1440 N1437 0.984 . S
H1441 N1437 0.985 . S
H1442 N1436 0.984 . S
H1443 N1436 0.984 . S
H1444 N1432 0.984 . S
H1445 N1432 0.985 . S
C1446 C1447 1.363 . S
C1446 C1452 1.379 . S
C1446 N1454 1.356 . S
C1447 C1446 1.363 . S
C1447 C1453 1.363 . S
C1448 C1449 1.363 . S
C1448 C1453 1.379 . S
C1448 N1455 1.356 . S
C1449 C1448 1.363 . S
C1449 C1452 1.363 . S
N1450 C1452 1.356 . S
N1450 H1462 0.984 . S
N1450 H1463 0.985 . S
N1451 C1453 1.356 . S
N1451 H1456 0.984 . S
N1451 H1457 0.985 . S
C1452 C1446 1.379 . S
C1452 C1449 1.363 . S
C1452 N1450 1.356 . S
C1453 C1447 1.363 . S
C1453 C1448 1.379 . S
C1453 N1451 1.356 . S
N1454 C1446 1.356 . S
N1454 H1460 0.984 . S
N1454 H1461 0.984 . S
N1455 C1448 1.356 . S
N1455 H1458 0.984 . S
N1455 H1459 0.985 . S
H1456 N1451 0.984 . S
H1457 N1451 0.985 . S
H1458 N1455 0.984 . S
H1459 N1455 0.985 . S
H1460 N1454 0.984 . S
H1461 N1454 0.984 . S
H1462 N1450 0.984 . S
H1463 N1450 0.985 . S
C1464 C1465 1.363 . S
C1464 C1470 1.379 . S
C1464 N1472 1.356 . S
C1465 C1464 1.363 . S
C1465 C1471 1.363 . S
C1466 C1467 1.363 . S
C1466 C1471 1.379 . S
C1466 N1473 1.356 . S
C1467 C1466 1.363 . S
C1467 C1470 1.363 . S
N1468 C1470 1.356 . S
N1468 H1480 0.984 . S
N1468 H1481 0.985 . S
N1469 C1471 1.356 . S
N1469 H1474 0.984 . S
N1469 H1475 0.985 . S
C1470 C1464 1.379 . S
C1470 C1467 1.363 . S
C1470 N1468 1.356 . S
C1471 C1465 1.363 . S
C1471 C1466 1.379 . S
C1471 N1469 1.356 . S
N1472 C1464 1.356 . S
N1472 H1478 0.984 . S
N1472 H1479 0.984 . S
N1473 C1466 1.356 . S
N1473 H1476 0.984 . S
N1473 H1477 0.985 . S
H1474 N1469 0.984 . S
H1475 N1469 0.985 . S
H1476 N1473 0.984 . S
H1477 N1473 0.985 . S
H1478 N1472 0.984 . S
H1479 N1472 0.984 . S
H1480 N1468 0.984 . S
H1481 N1468 0.985 . S
C1482 C1483 1.363 1_554 S
C1482 C1488 1.379 . S
C1482 N1490 1.356 . S
C1483 C1482 1.363 1_556 S
C1483 C1489 1.363 . S
C1484 C1485 1.363 1_556 S
C1484 C1489 1.379 . S
C1484 N1491 1.356 . S
C1485 C1484 1.363 1_554 S
C1485 C1488 1.363 . S
N1486 C1488 1.356 . S
N1486 H1498 0.984 . S
N1486 H1499 0.985 . S
N1487 C1489 1.356 . S
N1487 H1492 0.984 . S
N1487 H1493 0.985 . S
C1488 C1482 1.379 . S
C1488 C1485 1.363 . S
C1488 N1486 1.356 . S
C1489 C1483 1.363 . S
C1489 C1484 1.379 . S
C1489 N1487 1.356 . S
N1490 C1482 1.356 . S
N1490 H1496 0.984 . S
N1490 H1497 0.984 . S
N1491 C1484 1.356 . S
N1491 H1494 0.984 1_556 S
N1491 H1495 0.985 . S
H1492 N1487 0.984 . S
H1493 N1487 0.985 . S
H1494 N1491 0.984 1_554 S
H1495 N1491 0.985 . S
H1496 N1490 0.984 . S
H1497 N1490 0.984 . S
H1498 N1486 0.984 . S
H1499 N1486 0.985 . S
C1500 C1501 1.363 . S
C1500 C1506 1.379 . S
C1500 N1508 1.356 . S
C1501 C1500 1.363 . S
C1501 C1507 1.363 . S
C1502 C1503 1.363 . S
C1502 C1507 1.379 . S
C1502 N1509 1.356 . S
C1503 C1502 1.363 . S
C1503 C1506 1.363 . S
N1504 C1506 1.356 . S
N1504 H1516 0.984 . S
N1504 H1517 0.985 . S
N1505 C1507 1.356 . S
N1505 H1510 0.984 . S
N1505 H1511 0.985 . S
C1506 C1500 1.379 . S
C1506 C1503 1.363 . S
C1506 N1504 1.356 . S
C1507 C1501 1.363 . S
C1507 C1502 1.379 . S
C1507 N1505 1.356 . S
N1508 C1500 1.356 . S
N1508 H1514 0.984 . S
N1508 H1515 0.984 . S
N1509 C1502 1.356 . S
N1509 H1512 0.984 . S
N1509 H1513 0.985 . S
H1510 N1505 0.984 . S
H1511 N1505 0.985 . S
H1512 N1509 0.984 . S
H1513 N1509 0.985 . S
H1514 N1508 0.984 . S
H1515 N1508 0.984 . S
H1516 N1504 0.984 . S
H1517 N1504 0.985 . S
C1518 C1519 1.363 . S
C1518 C1524 1.379 . S
C1518 N1526 1.356 . S
C1519 C1518 1.363 . S
C1519 C1525 1.363 . S
C1520 C1521 1.363 . S
C1520 C1525 1.379 . S
C1520 N1527 1.356 . S
C1521 C1520 1.363 . S
C1521 C1524 1.363 . S
N1522 C1524 1.356 . S
N1522 H1534 0.984 . S
N1522 H1535 0.985 . S
N1523 C1525 1.356 . S
N1523 H1528 0.984 . S
N1523 H1529 0.985 . S
C1524 C1518 1.379 . S
C1524 C1521 1.363 . S
C1524 N1522 1.356 . S
C1525 C1519 1.363 . S
C1525 C1520 1.379 . S
C1525 N1523 1.356 . S
N1526 C1518 1.356 . S
N1526 H1532 0.984 . S
N1526 H1533 0.984 . S
N1527 C1520 1.356 . S
N1527 H1530 0.984 . S
N1527 H1531 0.985 . S
H1528 N1523 0.984 . S
H1529 N1523 0.985 . S
H1530 N1527 0.984 . S
H1531 N1527 0.985 . S
H1532 N1526 0.984 . S
H1533 N1526 0.984 . S
H1534 N1522 0.984 . S
H1535 N1522 0.985 . S
C1536 C1537 1.363 . S
C1536 C1542 1.379 . S
C1536 N1544 1.356 . S
C1537 C1536 1.363 . S
C1537 C1543 1.363 . S
C1538 C1539 1.363 . S
C1538 C1543 1.379 . S
C1538 N1545 1.356 . S
C1539 C1538 1.363 . S
C1539 C1542 1.363 . S
N1540 C1542 1.356 . S
N1540 H1552 0.984 . S
N1540 H1553 0.985 . S
N1541 C1543 1.356 . S
N1541 H1546 0.984 . S
N1541 H1547 0.985 . S
C1542 C1536 1.379 . S
C1542 C1539 1.363 . S
C1542 N1540 1.356 . S
C1543 C1537 1.363 . S
C1543 C1538 1.379 . S
C1543 N1541 1.356 . S
N1544 C1536 1.356 . S
N1544 H1550 0.984 . S
N1544 H1551 0.984 . S
N1545 C1538 1.356 . S
N1545 H1548 0.984 . S
N1545 H1549 0.985 . S
H1546 N1541 0.984 . S
H1547 N1541 0.985 . S
H1548 N1545 0.984 . S
H1549 N1545 0.985 . S
H1550 N1544 0.984 . S
H1551 N1544 0.984 . S
H1552 N1540 0.984 . S
H1553 N1540 0.985 . S
C1554 C1555 1.363 . S
C1554 C1560 1.379 . S
C1554 N1562 1.356 . S
C1555 C1554 1.363 . S
C1555 C1561 1.363 . S
C1556 C1557 1.363 . S
C1556 C1561 1.379 . S
C1556 N1563 1.356 . S
C1557 C1556 1.363 . S
C1557 C1560 1.363 . S
N1558 C1560 1.356 1_655 S
N1558 H1570 0.984 . S
N1558 H1571 0.985 . S
N1559 C1561 1.356 . S
N1559 H1564 0.984 . S
N1559 H1565 0.985 . S
C1560 C1554 1.379 . S
C1560 C1557 1.363 . S
C1560 N1558 1.356 1_455 S
C1561 C1555 1.363 . S
C1561 C1556 1.379 . S
C1561 N1559 1.356 . S
N1562 C1554 1.356 . S
N1562 H1568 0.984 . S
N1562 H1569 0.984 . S
N1563 C1556 1.356 . S
N1563 H1566 0.984 . S
N1563 H1567 0.985 . S
H1564 N1559 0.984 . S
H1565 N1559 0.985 . S
H1566 N1563 0.984 . S
H1567 N1563 0.985 . S
H1568 N1562 0.984 . S
H1569 N1562 0.984 . S
H1570 N1558 0.984 . S
H1571 N1558 0.985 . S
C1572 C1573 1.363 . S
C1572 C1578 1.379 . S
C1572 N1580 1.356 . S
C1573 C1572 1.363 . S
C1573 C1579 1.363 . S
C1574 C1575 1.363 . S
C1574 C1579 1.379 . S
C1574 N1581 1.356 . S
C1575 C1574 1.363 . S
C1575 C1578 1.363 . S
N1576 C1578 1.356 . S
N1576 H1588 0.984 . S
N1576 H1589 0.985 . S
N1577 C1579 1.356 . S
N1577 H1582 0.984 . S
N1577 H1583 0.985 . S
C1578 C1572 1.379 . S
C1578 C1575 1.363 . S
C1578 N1576 1.356 . S
C1579 C1573 1.363 . S
C1579 C1574 1.379 . S
C1579 N1577 1.356 . S
N1580 C1572 1.356 . S
N1580 H1586 0.984 . S
N1580 H1587 0.984 . S
N1581 C1574 1.356 . S
N1581 H1584 0.984 . S
N1581 H1585 0.985 . S
H1582 N1577 0.984 . S
H1583 N1577 0.985 . S
H1584 N1581 0.984 . S
H1585 N1581 0.985 . S
H1586 N1580 0.984 . S
H1587 N1580 0.984 . S
H1588 N1576 0.984 . S
H1589 N1576 0.985 . S
C1590 C1591 1.363 . S
C1590 C1596 1.379 . S
C1590 N1598 1.356 . S
C1591 C1590 1.363 . S
C1591 C1597 1.363 . S
C1592 C1593 1.363 . S
C1592 C1597 1.379 . S
C1592 N1599 1.356 . S
C1593 C1592 1.363 . S
C1593 C1596 1.363 . S
N1594 C1596 1.356 . S
N1594 H1606 0.984 . S
N1594 H1607 0.985 . S
N1595 C1597 1.356 . S
N1595 H1600 0.984 . S
N1595 H1601 0.985 . S
C1596 C1590 1.379 . S
C1596 C1593 1.363 . S
C1596 N1594 1.356 . S
C1597 C1591 1.363 . S
C1597 C1592 1.379 . S
C1597 N1595 1.356 . S
N1598 C1590 1.356 . S
N1598 H1604 0.984 . S
N1598 H1605 0.984 . S
N1599 C1592 1.356 . S
N1599 H1602 0.984 . S
N1599 H1603 0.985 . S
H1600 N1595 0.984 . S
H1601 N1595 0.985 . S
H1602 N1599 0.984 . S
H1603 N1599 0.985 . S
H1604 N1598 0.984 . S
H1605 N1598 0.984 . S
H1606 N1594 0.984 . S
H1607 N1594 0.985 . S
C1608 C1609 1.363 . S
C1608 C1614 1.379 . S
C1608 N1616 1.356 . S
C1609 C1608 1.363 . S
C1609 C1615 1.363 . S
C1610 C1611 1.363 . S
C1610 C1615 1.379 . S
C1610 N1617 1.356 . S
C1611 C1610 1.363 . S
C1611 C1614 1.363 . S
N1612 C1614 1.356 . S
N1612 H1624 0.984 . S
N1612 H1625 0.985 . S
N1613 C1615 1.356 . S
N1613 H1618 0.984 . S
N1613 H1619 0.985 . S
C1614 C1608 1.379 . S
C1614 C1611 1.363 . S
C1614 N1612 1.356 . S
C1615 C1609 1.363 . S
C1615 C1610 1.379 . S
C1615 N1613 1.356 . S
N1616 C1608 1.356 . S
N1616 H1622 0.984 . S
N1616 H1623 0.984 . S
N1617 C1610 1.356 . S
N1617 H1620 0.984 . S
N1617 H1621 0.985 . S
H1618 N1613 0.984 . S
H1619 N1613 0.985 . S
H1620 N1617 0.984 . S
H1621 N1617 0.985 . S
H1622 N1616 0.984 . S
H1623 N1616 0.984 . S
H1624 N1612 0.984 . S
H1625 N1612 0.985 . S
C1626 C1627 1.363 . S
C1626 C1632 1.379 . S
C1626 N1634 1.356 . S
C1627 C1626 1.363 . S
C1627 C1633 1.363 . S
C1628 C1629 1.363 . S
C1628 C1633 1.379 . S
C1628 N1635 1.356 . S
C1629 C1628 1.363 . S
C1629 C1632 1.363 . S
N1630 C1632 1.356 . S
N1630 H1642 0.984 . S
N1630 H1643 0.985 . S
N1631 C1633 1.356 . S
N1631 H1636 0.984 . S
N1631 H1637 0.985 . S
C1632 C1626 1.379 . S
C1632 C1629 1.363 . S
C1632 N1630 1.356 . S
C1633 C1627 1.363 . S
C1633 C1628 1.379 . S
C1633 N1631 1.356 . S
N1634 C1626 1.356 . S
N1634 H1640 0.984 . S
N1634 H1641 0.984 . S
N1635 C1628 1.356 . S
N1635 H1638 0.984 . S
N1635 H1639 0.985 . S
H1636 N1631 0.984 . S
H1637 N1631 0.985 . S
H1638 N1635 0.984 . S
H1639 N1635 0.985 . S
H1640 N1634 0.984 . S
H1641 N1634 0.984 . S
H1642 N1630 0.984 . S
H1643 N1630 0.985 . S
C1644 C1645 1.363 . S
C1644 C1650 1.379 . S
C1644 N1652 1.356 . S
C1645 C1644 1.363 . S
C1645 C1651 1.363 . S
C1646 C1647 1.363 . S
C1646 C1651 1.379 . S
C1646 N1653 1.356 . S
C1647 C1646 1.363 . S
C1647 C1650 1.363 . S
N1648 C1650 1.356 . S
N1648 H1660 0.984 . S
N1648 H1661 0.985 . S
N1649 C1651 1.356 . S
N1649 H1654 0.984 . S
N1649 H1655 0.985 . S
C1650 C1644 1.379 . S
C1650 C1647 1.363 . S
C1650 N1648 1.356 . S
C1651 C1645 1.363 . S
C1651 C1646 1.379 . S
C1651 N1649 1.356 . S
N1652 C1644 1.356 . S
N1652 H1658 0.984 . S
N1652 H1659 0.984 . S
N1653 C1646 1.356 . S
N1653 H1656 0.984 . S
N1653 H1657 0.985 . S
H1654 N1649 0.984 . S
H1655 N1649 0.985 . S
H1656 N1653 0.984 . S
H1657 N1653 0.985 . S
H1658 N1652 0.984 . S
H1659 N1652 0.984 . S
H1660 N1648 0.984 . S
H1661 N1648 0.985 . S
C1662 C1663 1.363 . S
C1662 C1668 1.379 1_455 S
C1662 N1670 1.356 . S
C1663 C1662 1.363 . S
C1663 C1669 1.363 . S
C1664 C1665 1.363 . S
C1664 C1669 1.379 1_655 S
C1664 N1671 1.356 . S
C1665 C1664 1.363 . S
C1665 C1668 1.363 . S
N1666 C1668 1.356 . S
N1666 H1678 0.984 . S
N1666 H1679 0.985 . S
N1667 C1669 1.356 . S
N1667 H1672 0.984 . S
N1667 H1673 0.985 . S
C1668 C1662 1.379 1_655 S
C1668 C1665 1.363 . S
C1668 N1666 1.356 . S
C1669 C1663 1.363 . S
C1669 C1664 1.379 1_455 S
C1669 N1667 1.356 . S
N1670 C1662 1.356 . S
N1670 H1676 0.984 . S
N1670 H1677 0.984 . S
N1671 C1664 1.356 . S
N1671 H1674 0.984 . S
N1671 H1675 0.985 . S
H1672 N1667 0.984 . S
H1673 N1667 0.985 . S
H1674 N1671 0.984 . S
H1675 N1671 0.985 . S
H1676 N1670 0.984 . S
H1677 N1670 0.984 . S
H1678 N1666 0.984 . S
H1679 N1666 0.985 . S
C1680 C1681 1.363 . S
C1680 C1686 1.379 . S
C1680 N1688 1.356 . S
C1681 C1680 1.363 . S
C1681 C1687 1.363 . S
C1682 C1683 1.363 . S
C1682 C1687 1.379 . S
C1682 N1689 1.356 . S
C1683 C1682 1.363 . S
C1683 C1686 1.363 . S
N1684 C1686 1.356 . S
N1684 H1696 0.984 . S
N1684 H1697 0.985 . S
N1685 C1687 1.356 . S
N1685 H1690 0.984 . S
N1685 H1691 0.985 . S
C1686 C1680 1.379 . S
C1686 C1683 1.363 . S
C1686 N1684 1.356 . S
C1687 C1681 1.363 . S
C1687 C1682 1.379 . S
C1687 N1685 1.356 . S
N1688 C1680 1.356 . S
N1688 H1694 0.984 . S
N1688 H1695 0.984 . S
N1689 C1682 1.356 . S
N1689 H1692 0.984 . S
N1689 H1693 0.985 . S
H1690 N1685 0.984 . S
H1691 N1685 0.985 . S
H1692 N1689 0.984 . S
H1693 N1689 0.985 . S
H1694 N1688 0.984 . S
H1695 N1688 0.984 . S
H1696 N1684 0.984 . S
H1697 N1684 0.985 . S
C1698 C1699 1.363 . S
C1698 C1704 1.379 . S
C1698 N1706 1.356 . S
C1699 C1698 1.363 . S
C1699 C1705 1.363 . S
C1700 C1701 1.363 . S
C1700 C1705 1.379 . S
C1700 N1707 1.356 . S
C1701 C1700 1.363 . S
C1701 C1704 1.363 . S
N1702 C1704 1.356 . S
N1702 H1714 0.984 . S
N1702 H1715 0.985 . S
N1703 C1705 1.356 1_455 S
N1703 H1708 0.984 . S
N1703 H1709 0.985 . S
C1704 C1698 1.379 . S
C1704 C1701 1.363 . S
C1704 N1702 1.356 . S
C1705 C1699 1.363 . S
C1705 C1700 1.379 . S
C1705 N1703 1.356 1_655 S
N1706 C1698 1.356 . S
N1706 H1712 0.984 . S
N1706 H1713 0.984 . S
N1707 C1700 1.356 . S
N1707 H1710 0.984 . S
N1707 H1711 0.985 . S
H1708 N1703 0.984 . S
H1709 N1703 0.985 . S
H1710 N1707 0.984 . S
H1711 N1707 0.985 . S
H1712 N1706 0.984 . S
H1713 N1706 0.984 . S
H1714 N1702 0.984 . S
H1715 N1702 0.985 . S
C1716 C1717 1.363 . S
C1716 C1722 1.379 . S
C1716 N1724 1.356 . S
C1717 C1716 1.363 . S
C1717 C1723 1.363 . S
C1718 C1719 1.363 . S
C1718 C1723 1.379 . S
C1718 N1725 1.356 . S
C1719 C1718 1.363 . S
C1719 C1722 1.363 . S
N1720 C1722 1.356 . S
N1720 H1732 0.984 . S
N1720 H1733 0.985 . S
N1721 C1723 1.356 . S
N1721 H1726 0.984 . S
N1721 H1727 0.985 . S
C1722 C1716 1.379 . S
C1722 C1719 1.363 . S
C1722 N1720 1.356 . S
C1723 C1717 1.363 . S
C1723 C1718 1.379 . S
C1723 N1721 1.356 . S
N1724 C1716 1.356 . S
N1724 H1730 0.984 . S
N1724 H1731 0.984 . S
N1725 C1718 1.356 . S
N1725 H1728 0.984 . S
N1725 H1729 0.985 . S
H1726 N1721 0.984 . S
H1727 N1721 0.985 . S
H1728 N1725 0.984 . S
H1729 N1725 0.985 . S
H1730 N1724 0.984 . S
H1731 N1724 0.984 . S
H1732 N1720 0.984 . S
H1733 N1720 0.985 . S
C1734 C1735 1.363 . S
C1734 C1740 1.379 . S
C1734 N1742 1.356 . S
C1735 C1734 1.363 . S
C1735 C1741 1.363 . S
C1736 C1737 1.363 . S
C1736 C1741 1.379 . S
C1736 N1743 1.356 . S
C1737 C1736 1.363 . S
C1737 C1740 1.363 . S
N1738 C1740 1.356 . S
N1738 H1750 0.984 . S
N1738 H1751 0.985 . S
N1739 C1741 1.356 . S
N1739 H1744 0.984 . S
N1739 H1745 0.985 . S
C1740 C1734 1.379 . S
C1740 C1737 1.363 . S
C1740 N1738 1.356 . S
C1741 C1735 1.363 . S
C1741 C1736 1.379 . S
C1741 N1739 1.356 . S
N1742 C1734 1.356 . S
N1742 H1748 0.984 . S
N1742 H1749 0.984 . S
N1743 C1736 1.356 . S
N1743 H1746 0.984 . S
N1743 H1747 0.985 . S
H1744 N1739 0.984 . S
H1745 N1739 0.985 . S
H1746 N1743 0.984 . S
H1747 N1743 0.985 . S
H1748 N1742 0.984 . S
H1749 N1742 0.984 . S
H1750 N1738 0.984 . S
H1751 N1738 0.985 . S
C1752 C1753 1.363 . S
C1752 C1758 1.379 . S
C1752 N1760 1.356 . S
C1753 C1752 1.363 . S
C1753 C1759 1.363 . S
C1754 C1755 1.363 . S
C1754 C1759 1.379 . S
C1754 N1761 1.356 . S
C1755 C1754 1.363 . S
C1755 C1758 1.363 . S
N1756 C1758 1.356 . S
N1756 H1768 0.984 . S
N1756 H1769 0.985 . S
N1757 C1759 1.356 . S
N1757 H1762 0.984 . S
N1757 H1763 0.985 . S
C1758 C1752 1.379 . S
C1758 C1755 1.363 . S
C1758 N1756 1.356 . S
C1759 C1753 1.363 . S
C1759 C1754 1.379 . S
C1759 N1757 1.356 . S
N1760 C1752 1.356 . S
N1760 H1766 0.984 . S
N1760 H1767 0.984 . S
N1761 C1754 1.356 . S
N1761 H1764 0.984 . S
N1761 H1765 0.985 . S
H1762 N1757 0.984 . S
H1763 N1757 0.985 . S
H1764 N1761 0.984 . S
H1765 N1761 0.985 . S
H1766 N1760 0.984 . S
H1767 N1760 0.984 . S
H1768 N1756 0.984 . S
H1769 N1756 0.985 . S
C1770 C1771 1.363 . S
C1770 C1776 1.379 . S
C1770 N1778 1.356 . S
C1771 C1770 1.363 . S
C1771 C1777 1.363 . S
C1772 C1773 1.363 . S
C1772 C1777 1.379 . S
C1772 N1779 1.356 . S
C1773 C1772 1.363 . S
C1773 C1776 1.363 . S
N1774 C1776 1.356 . S
N1774 H1786 0.984 . S
N1774 H1787 0.985 . S
N1775 C1777 1.356 . S
N1775 H1780 0.984 . S
N1775 H1781 0.985 . S
C1776 C1770 1.379 . S
C1776 C1773 1.363 . S
C1776 N1774 1.356 . S
C1777 C1771 1.363 . S
C1777 C1772 1.379 . S
C1777 N1775 1.356 . S
N1778 C1770 1.356 . S
N1778 H1784 0.984 . S
N1778 H1785 0.984 . S
N1779 C1772 1.356 . S
N1779 H1782 0.984 . S
N1779 H1783 0.985 . S
H1780 N1775 0.984 . S
H1781 N1775 0.985 . S
H1782 N1779 0.984 . S
H1783 N1779 0.985 . S
H1784 N1778 0.984 . S
H1785 N1778 0.984 . S
H1786 N1774 0.984 . S
H1787 N1774 0.985 . S
C1788 C1789 1.363 . S
C1788 C1794 1.379 . S
C1788 N1796 1.356 . S
C1789 C1788 1.363 . S
C1789 C1795 1.363 . S
C1790 C1791 1.363 . S
C1790 C1795 1.379 . S
C1790 N1797 1.356 . S
C1791 C1790 1.363 . S
C1791 C1794 1.363 . S
N1792 C1794 1.356 . S
N1792 H1804 0.984 . S
N1792 H1805 0.985 . S
N1793 C1795 1.356 . S
N1793 H1798 0.984 . S
N1793 H1799 0.985 . S
C1794 C1788 1.379 . S
C1794 C1791 1.363 . S
C1794 N1792 1.356 . S
C1795 C1789 1.363 . S
C1795 C1790 1.379 . S
C1795 N1793 1.356 . S
N1796 C1788 1.356 . S
N1796 H1802 0.984 . S
N1796 H1803 0.984 . S
N1797 C1790 1.356 . S
N1797 H1800 0.984 . S
N1797 H1801 0.985 . S
H1798 N1793 0.984 . S
H1799 N1793 0.985 . S
H1800 N1797 0.984 . S
H1801 N1797 0.985 . S
H1802 N1796 0.984 . S
H1803 N1796 0.984 . S
H1804 N1792 0.984 . S
H1805 N1792 0.985 . S
C1806 C1807 1.363 . S
C1806 C1812 1.379 1_655 S
C1806 N1814 1.356 . S
C1807 C1806 1.363 . S
C1807 C1813 1.363 . S
C1808 C1809 1.363 . S
C1808 C1813 1.379 1_455 S
C1808 N1815 1.356 . S
C1809 C1808 1.363 . S
C1809 C1812 1.363 . S
N1810 C1812 1.356 . S
N1810 H1822 0.984 . S
N1810 H1823 0.985 . S
N1811 C1813 1.356 . S
N1811 H1816 0.984 . S
N1811 H1817 0.985 . S
C1812 C1806 1.379 1_455 S
C1812 C1809 1.363 . S
C1812 N1810 1.356 . S
C1813 C1807 1.363 . S
C1813 C1808 1.379 1_655 S
C1813 N1811 1.356 . S
N1814 C1806 1.356 . S
N1814 H1820 0.984 . S
N1814 H1821 0.984 . S
N1815 C1808 1.356 . S
N1815 H1818 0.984 . S
N1815 H1819 0.985 . S
H1816 N1811 0.984 . S
H1817 N1811 0.985 . S
H1818 N1815 0.984 . S
H1819 N1815 0.985 . S
H1820 N1814 0.984 . S
H1821 N1814 0.984 . S
H1822 N1810 0.984 . S
H1823 N1810 0.985 . S
C1824 C1825 1.363 . S
C1824 C1830 1.379 . S
C1824 N1832 1.356 . S
C1825 C1824 1.363 . S
C1825 C1831 1.363 . S
C1826 C1827 1.363 . S
C1826 C1831 1.379 . S
C1826 N1833 1.356 . S
C1827 C1826 1.363 . S
C1827 C1830 1.363 . S
N1828 C1830 1.356 . S
N1828 H1840 0.984 . S
N1828 H1841 0.985 . S
N1829 C1831 1.356 . S
N1829 H1834 0.984 . S
N1829 H1835 0.985 . S
C1830 C1824 1.379 . S
C1830 C1827 1.363 . S
C1830 N1828 1.356 . S
C1831 C1825 1.363 . S
C1831 C1826 1.379 . S
C1831 N1829 1.356 . S
N1832 C1824 1.356 . S
N1832 H1838 0.984 . S
N1832 H1839 0.984 . S
N1833 C1826 1.356 . S
N1833 H1836 0.984 . S
N1833 H1837 0.985 . S
H1834 N1829 0.984 . S
H1835 N1829 0.985 . S
H1836 N1833 0.984 . S
H1837 N1833 0.985 . S
H1838 N1832 0.984 . S
H1839 N1832 0.984 . S
H1840 N1828 0.984 . S
H1841 N1828 0.985 . S
C1842 C1843 1.363 . S
C1842 C1848 1.379 . S
C1842 N1850 1.356 . S
C1843 C1842 1.363 . S
C1843 C1849 1.363 . S
C1844 C1845 1.363 . S
C1844 C1849 1.379 . S
C1844 N1851 1.356 . S
C1845 C1844 1.363 . S
C1845 C1848 1.363 . S
N1846 C1848 1.356 . S
N1846 H1858 0.984 . S
N1846 H1859 0.985 . S
N1847 C1849 1.356 . S
N1847 H1852 0.984 . S
N1847 H1853 0.985 . S
C1848 C1842 1.379 . S
C1848 C1845 1.363 . S
C1848 N1846 1.356 . S
C1849 C1843 1.363 . S
C1849 C1844 1.379 . S
C1849 N1847 1.356 . S
N1850 C1842 1.356 . S
N1850 H1856 0.984 . S
N1850 H1857 0.984 . S
N1851 C1844 1.356 . S
N1851 H1854 0.984 . S
N1851 H1855 0.985 . S
H1852 N1847 0.984 . S
H1853 N1847 0.985 . S
H1854 N1851 0.984 . S
H1855 N1851 0.985 . S
H1856 N1850 0.984 . S
H1857 N1850 0.984 . S
H1858 N1846 0.984 . S
H1859 N1846 0.985 . S
C1860 C1861 1.363 . S
C1860 C1866 1.379 . S
C1860 N1868 1.356 . S
C1861 C1860 1.363 . S
C1861 C1867 1.363 . S
C1862 C1863 1.363 . S
C1862 C1867 1.379 . S
C1862 N1869 1.356 . S
C1863 C1862 1.363 . S
C1863 C1866 1.363 . S
N1864 C1866 1.356 . S
N1864 H1876 0.984 . S
N1864 H1877 0.985 . S
N1865 C1867 1.356 . S
N1865 H1870 0.984 . S
N1865 H1871 0.985 . S
C1866 C1860 1.379 . S
C1866 C1863 1.363 . S
C1866 N1864 1.356 . S
C1867 C1861 1.363 . S
C1867 C1862 1.379 . S
C1867 N1865 1.356 . S
N1868 C1860 1.356 . S
N1868 H1874 0.984 . S
N1868 H1875 0.984 . S
N1869 C1862 1.356 . S
N1869 H1872 0.984 . S
N1869 H1873 0.985 . S
H1870 N1865 0.984 . S
H1871 N1865 0.985 . S
H1872 N1869 0.984 . S
H1873 N1869 0.985 . S
H1874 N1868 0.984 . S
H1875 N1868 0.984 . S
H1876 N1864 0.984 . S
H1877 N1864 0.985 . S
C1878 C1879 1.363 . S
C1878 C1884 1.379 . S
C1878 N1886 1.356 . S
C1879 C1878 1.363 . S
C1879 C1885 1.363 . S
C1880 C1881 1.363 . S
C1880 C1885 1.379 . S
C1880 N1887 1.356 . S
C1881 C1880 1.363 . S
C1881 C1884 1.363 . S
N1882 C1884 1.356 . S
N1882 H1894 0.984 . S
N1882 H1895 0.985 1_655 S
N1883 C1885 1.356 . S
N1883 H1888 0.984 . S
N1883 H1889 0.985 . S
C1884 C1878 1.379 . S
C1884 C1881 1.363 . S
C1884 N1882 1.356 . S
C1885 C1879 1.363 . S
C1885 C1880 1.379 . S
C1885 N1883 1.356 . S
N1886 C1878 1.356 . S
N1886 H1892 0.984 . S
N1886 H1893 0.984 . S
N1887 C1880 1.356 . S
N1887 H1890 0.984 . S
N1887 H1891 0.985 . S
H1888 N1883 0.984 . S
H1889 N1883 0.985 . S
H1890 N1887 0.984 . S
H1891 N1887 0.985 . S
H1892 N1886 0.984 . S
H1893 N1886 0.984 . S
H1894 N1882 0.984 . S
H1895 N1882 0.985 1_455 S
C1896 C1897 1.363 . S
C1896 C1902 1.379 . S
C1896 N1904 1.356 . S
C1897 C1896 1.363 . S
C1897 C1903 1.363 . S
C1898 C1899 1.363 . S
C1898 C1903 1.379 . S
C1898 N1905 1.356 . S
C1899 C1898 1.363 . S
C1899 C1902 1.363 . S
N1900 C1902 1.356 . S
N1900 H1912 0.984 . S
N1900 H1913 0.985 . S
N1901 C1903 1.356 . S
N1901 H1906 0.984 . S
N1901 H1907 0.985 . S
C1902 C1896 1.379 . S
C1902 C1899 1.363 . S
C1902 N1900 1.356 . S
C1903 C1897 1.363 . S
C1903 C1898 1.379 . S
C1903 N1901 1.356 . S
N1904 C1896 1.356 . S
N1904 H1910 0.984 . S
N1904 H1911 0.984 . S
N1905 C1898 1.356 . S
N1905 H1908 0.984 . S
N1905 H1909 0.985 . S
H1906 N1901 0.984 . S
H1907 N1901 0.985 . S
H1908 N1905 0.984 . S
H1909 N1905 0.985 . S
H1910 N1904 0.984 . S
H1911 N1904 0.984 . S
H1912 N1900 0.984 . S
H1913 N1900 0.985 . S
C1914 C1915 1.363 . S
C1914 C1920 1.361 1_655 S
C1914 N1922 1.356 . S
C1915 C1914 1.363 . S
C1915 C1921 1.363 . S
C1916 C1917 1.363 . S
C1916 C1921 1.379 1_455 S
C1916 N1923 1.356 . S
C1917 C1916 1.363 . S
C1917 C1920 1.376 . S
N1918 C1920 1.367 . S
N1918 H1930 0.984 . S
N1918 H1931 0.985 . S
N1919 C1921 1.356 . S
N1919 H1924 0.984 . S
N1919 H1925 0.985 . S
C1920 C1914 1.361 1_455 S
C1920 C1917 1.376 . S
C1920 N1918 1.367 . S
C1921 C1915 1.363 . S
C1921 C1916 1.379 1_655 S
C1921 N1919 1.356 . S
N1922 C1914 1.356 . S
N1922 H1928 0.984 . S
N1922 H1929 0.984 . S
N1923 C1916 1.356 . S
N1923 H1926 0.984 . S
N1923 H1927 0.985 . S
H1924 N1919 0.984 . S
H1925 N1919 0.985 . S
H1926 N1923 0.984 . S
H1927 N1923 0.985 . S
H1928 N1922 0.984 . S
H1929 N1922 0.984 . S
H1930 N1918 0.984 . S
H1931 N1918 0.985 . S
C1932 C1933 1.363 . S
C1932 C1938 1.379 . S
C1932 N1940 1.356 . S
C1933 C1932 1.363 . S
C1933 C1939 1.363 . S
C1934 C1935 1.363 . S
C1934 C1939 1.379 . S
C1934 N1941 1.356 . S
C1935 C1934 1.363 . S
C1935 C1938 1.363 . S
N1936 C1938 1.356 . S
N1936 H1948 0.984 . S
N1936 H1949 0.985 . S
N1937 C1939 1.356 . S
N1937 H1942 0.984 . S
N1937 H1943 0.985 . S
C1938 C1932 1.379 . S
C1938 C1935 1.363 . S
C1938 N1936 1.356 . S
C1939 C1933 1.363 . S
C1939 C1934 1.379 . S
C1939 N1937 1.356 . S
N1940 C1932 1.356 . S
N1940 H1946 0.984 . S
N1940 H1947 0.984 . S
N1941 C1934 1.356 . S
N1941 H1944 0.984 . S
N1941 H1945 0.985 . S
H1942 N1937 0.984 . S
H1943 N1937 0.985 . S
H1944 N1941 0.984 . S
H1945 N1941 0.985 . S
H1946 N1940 0.984 . S
H1947 N1940 0.984 . S
H1948 N1936 0.984 . S
H1949 N1936 0.985 . S
C1950 C1951 1.363 . S
C1950 C1956 1.379 . S
C1950 N1958 1.356 . S
C1951 C1950 1.363 . S
C1951 C1957 1.363 . S
C1952 C1953 1.363 . S
C1952 C1957 1.379 . S
C1952 N1959 1.356 . S
C1953 C1952 1.363 . S
C1953 C1956 1.363 . S
N1954 C1956 1.356 . S
N1954 H1966 0.984 . S
N1954 H1967 0.985 . S
N1955 C1957 1.356 . S
N1955 H1960 0.984 . S
N1955 H1961 0.985 . S
C1956 C1950 1.379 . S
C1956 C1953 1.363 . S
C1956 N1954 1.356 . S
C1957 C1951 1.363 . S
C1957 C1952 1.379 . S
C1957 N1955 1.356 . S
N1958 C1950 1.356 . S
N1958 H1964 0.984 . S
N1958 H1965 0.984 . S
N1959 C1952 1.356 . S
N1959 H1962 0.984 . S
N1959 H1963 0.985 . S
H1960 N1955 0.984 . S
H1961 N1955 0.985 . S
H1962 N1959 0.984 . S
H1963 N1959 0.985 . S
H1964 N1958 0.984 . S
H1965 N1958 0.984 . S
H1966 N1954 0.984 . S
H1967 N1954 0.985 . S
C1968 C1969 1.363 . S
C1968 C1974 1.379 . S
C1968 N1976 1.356 . S
C1969 C1968 1.363 . S
C1969 C1975 1.363 . S
C1970 C1971 1.363 . S
C1970 C1975 1.379 . S
C1970 N1977 1.356 . S
C1971 C1970 1.363 . S
C1971 C1974 1.363 . S
N1972 C1974 1.356 . S
N1972 H1984 0.984 . S
N1972 H1985 0.985 . S
N1973 C1975 1.356 . S
N1973 H1978 0.984 . S
N1973 H1979 0.985 . S
C1974 C1968 1.379 . S
C1974 C1971 1.363 . S
C1974 N1972 1.356 . S
C1975 C1969 1.363 . S
C1975 C1970 1.379 . S
C1975 N1973 1.356 . S
N1976 C1968 1.356 . S
N1976 H1982 0.984 . S
N1976 H1983 0.984 . S
N1977 C1970 1.356 . S
N1977 H1980 0.984 . S
N1977 H1981 0.985 . S
H1978 N1973 0.984 . S
H1979 N1973 0.985 . S
H1980 N1977 0.984 . S
H1981 N1977 0.985 . S
H1982 N1976 0.984 . S
H1983 N1976 0.984 . S
H1984 N1972 0.984 . S
H1985 N1972 0.985 . S
C1986 C1987 1.363 . S
C1986 C1992 1.379 . S
C1986 N1994 1.356 . S
C1987 C1986 1.363 . S
C1987 C1993 1.363 . S
C1988 C1989 1.363 . S
C1988 C1993 1.379 . S
C1988 N1995 1.356 . S
C1989 C1988 1.363 . S
C1989 C1992 1.363 . S
N1990 C1992 1.356 . S
N1990 H2002 0.984 . S
N1990 H2003 0.985 . S
N1991 C1993 1.356 . S
N1991 H1996 0.984 . S
N1991 H1997 0.985 . S
C1992 C1986 1.379 . S
C1992 C1989 1.363 . S
C1992 N1990 1.356 . S
C1993 C1987 1.363 . S
C1993 C1988 1.379 . S
C1993 N1991 1.356 . S
N1994 C1986 1.356 . S
N1994 H2000 0.984 . S
N1994 H2001 0.984 . S
N1995 C1988 1.356 . S
N1995 H1998 0.984 . S
N1995 H1999 0.985 . S
H1996 N1991 0.984 . S
H1997 N1991 0.985 . S
H1998 N1995 0.984 . S
H1999 N1995 0.985 . S
H2000 N1994 0.984 . S
H2001 N1994 0.984 . S
H2002 N1990 0.984 . S
H2003 N1990 0.985 . S
C2004 C2005 1.363 . S
C2004 C2010 1.379 . S
C2004 N2012 1.356 . S
C2005 C2004 1.363 . S
C2005 C2011 1.363 . S
C2006 C2007 1.363 . S
C2006 C2011 1.379 . S
C2006 N2013 1.356 . S
C2007 C2006 1.363 . S
C2007 C2010 1.363 . S
N2008 C2010 1.356 . S
N2008 H2020 0.984 . S
N2008 H2021 0.985 . S
N2009 C2011 1.356 . S
N2009 H2014 0.984 . S
N2009 H2015 0.985 . S
C2010 C2004 1.379 . S
C2010 C2007 1.363 . S
C2010 N2008 1.356 . S
C2011 C2005 1.363 . S
C2011 C2006 1.379 . S
C2011 N2009 1.356 . S
N2012 C2004 1.356 . S
N2012 H2018 0.984 . S
N2012 H2019 0.984 . S
N2013 C2006 1.356 . S
N2013 H2016 0.984 . S
N2013 H2017 0.985 . S
H2014 N2009 0.984 . S
H2015 N2009 0.985 . S
H2016 N2013 0.984 . S
H2017 N2013 0.985 . S
H2018 N2012 0.984 . S
H2019 N2012 0.984 . S
H2020 N2008 0.984 . S
H2021 N2008 0.985 . S
C2022 C2023 1.363 . S
C2022 C2028 1.379 . S
C2022 N2030 1.356 . S
C2023 C2022 1.363 . S
C2023 C2029 1.363 . S
C2024 C2025 1.363 . S
C2024 C2029 1.379 . S
C2024 N2031 1.356 . S
C2025 C2024 1.363 . S
C2025 C2028 1.363 . S
N2026 C2028 1.356 . S
N2026 H2038 0.984 . S
N2026 H2039 0.985 . S
N2027 C2029 1.356 . S
N2027 H2032 0.984 1_455 S
N2027 H2033 0.985 . S
C2028 C2022 1.379 . S
C2028 C2025 1.363 . S
C2028 N2026 1.356 . S
C2029 C2023 1.363 . S
C2029 C2024 1.379 . S
C2029 N2027 1.356 . S
N2030 C2022 1.356 . S
N2030 H2036 0.984 . S
N2030 H2037 0.984 . S
N2031 C2024 1.356 . S
N2031 H2034 0.984 . S
N2031 H2035 0.985 . S
H2032 N2027 0.984 1_655 S
H2033 N2027 0.985 . S
H2034 N2031 0.984 . S
H2035 N2031 0.985 . S
H2036 N2030 0.984 . S
H2037 N2030 0.984 . S
H2038 N2026 0.984 . S
H2039 N2026 0.985 . S
C2040 C2041 1.363 . S
C2040 C2046 1.379 . S
C2040 N2048 1.356 . S
C2041 C2040 1.363 . S
C2041 C2047 1.363 . S
C2042 C2043 1.363 . S
C2042 C2047 1.379 . S
C2042 N2049 1.356 . S
C2043 C2042 1.363 . S
C2043 C2046 1.363 . S
N2044 C2046 1.356 . S
N2044 H2056 0.984 . S
N2044 H2057 0.985 . S
N2045 C2047 1.356 . S
N2045 H2050 0.984 . S
N2045 H2051 0.985 . S
C2046 C2040 1.379 . S
C2046 C2043 1.363 . S
C2046 N2044 1.356 . S
C2047 C2041 1.363 . S
C2047 C2042 1.379 . S
C2047 N2045 1.356 . S
N2048 C2040 1.356 . S
N2048 H2054 0.984 . S
N2048 H2055 0.984 . S
N2049 C2042 1.356 . S
N2049 H2052 0.984 . S
N2049 H2053 0.985 . S
H2050 N2045 0.984 . S
H2051 N2045 0.985 . S
H2052 N2049 0.984 . S
H2053 N2049 0.985 . S
H2054 N2048 0.984 . S
H2055 N2048 0.984 . S
H2056 N2044 0.984 . S
H2057 N2044 0.985 . S
C2058 C2059 1.363 . S
C2058 C2064 1.379 1_455 S
C2058 N2066 1.356 . S
C2059 C2058 1.363 . S
C2059 C2065 1.363 . S
C2060 C2061 1.363 . S
C2060 C2065 1.379 1_655 S
C2060 N2067 1.356 . S
C2061 C2060 1.363 . S
C2061 C2064 1.363 . S
N2062 C2064 1.356 . S
N2062 H2074 0.984 . S
N2062 H2075 0.985 . S
N2063 C2065 1.356 . S
N2063 H2068 0.984 . S
N2063 H2069 0.985 . S
C2064 C2058 1.379 1_655 S
C2064 C2061 1.363 . S
C2064 N2062 1.356 . S
C2065 C2059 1.363 . S
C2065 C2060 1.379 1_455 S
C2065 N2063 1.356 . S
N2066 C2058 1.356 . S
N2066 H2072 0.984 . S
N2066 H2073 0.984 . S
N2067 C2060 1.356 . S
N2067 H2070 0.984 . S
N2067 H2071 0.985 . S
H2068 N2063 0.984 . S
H2069 N2063 0.985 . S
H2070 N2067 0.984 . S
H2071 N2067 0.985 . S
H2072 N2066 0.984 . S
H2073 N2066 0.984 . S
H2074 N2062 0.984 . S
H2075 N2062 0.985 . S
C2076 C2077 1.363 . S
C2076 C2082 1.379 . S
C2076 N2084 1.356 . S
C2077 C2076 1.363 . S
C2077 C2083 1.363 . S
C2078 C2079 1.363 . S
C2078 C2083 1.379 . S
C2078 N2085 1.356 . S
C2079 C2078 1.363 . S
C2079 C2082 1.363 . S
N2080 C2082 1.356 . S
N2080 H2092 0.984 . S
N2080 H2093 0.985 . S
N2081 C2083 1.356 . S
N2081 H2086 0.984 . S
N2081 H2087 0.985 . S
C2082 C2076 1.379 . S
C2082 C2079 1.363 . S
C2082 N2080 1.356 . S
C2083 C2077 1.363 . S
C2083 C2078 1.379 . S
C2083 N2081 1.356 . S
N2084 C2076 1.356 . S
N2084 H2090 0.984 . S
N2084 H2091 0.984 . S
N2085 C2078 1.356 . S
N2085 H2088 0.984 . S
N2085 H2089 0.985 . S
H2086 N2081 0.984 . S
H2087 N2081 0.985 . S
H2088 N2085 0.984 . S
H2089 N2085 0.985 . S
H2090 N2084 0.984 . S
H2091 N2084 0.984 . S
H2092 N2080 0.984 . S
H2093 N2080 0.985 . S
C2094 C2095 1.363 . S
C2094 C2100 1.379 . S
C2094 N2102 1.356 . S
C2095 C2094 1.363 . S
C2095 C2101 1.363 . S
C2096 C2097 1.363 . S
C2096 C2101 1.379 . S
C2096 N2103 1.356 . S
C2097 C2096 1.363 . S
C2097 C2100 1.363 . S
N2098 C2100 1.356 . S
N2098 H2110 0.984 . S
N2098 H2111 0.985 . S
N2099 C2101 1.356 . S
N2099 H2104 0.984 . S
N2099 H2105 0.985 . S
C2100 C2094 1.379 . S
C2100 C2097 1.363 . S
C2100 N2098 1.356 . S
C2101 C2095 1.363 . S
C2101 C2096 1.379 . S
C2101 N2099 1.356 . S
N2102 C2094 1.356 . S
N2102 H2108 0.984 . S
N2102 H2109 0.984 . S
N2103 C2096 1.356 . S
N2103 H2106 0.984 . S
N2103 H2107 0.985 . S
H2104 N2099 0.984 . S
H2105 N2099 0.985 . S
H2106 N2103 0.984 . S
H2107 N2103 0.985 . S
H2108 N2102 0.984 . S
H2109 N2102 0.984 . S
H2110 N2098 0.984 . S
H2111 N2098 0.985 . S
C2112 C2113 1.363 . S
C2112 C2118 1.379 . S
C2112 N2120 1.356 1_565 S
C2113 C2112 1.363 . S
C2113 C2119 1.363 . S
C2114 C2115 1.363 . S
C2114 C2119 1.379 . S
C2114 N2121 1.356 . S
C2115 C2114 1.363 . S
C2115 C2118 1.363 . S
N2116 C2118 1.356 . S
N2116 H2128 0.984 . S
N2116 H2129 0.985 . S
N2117 C2119 1.356 . S
N2117 H2122 0.984 1_565 S
N2117 H2123 0.985 . S
C2118 C2112 1.379 . S
C2118 C2115 1.363 . S
C2118 N2116 1.356 . S
C2119 C2113 1.363 . S
C2119 C2114 1.379 . S
C2119 N2117 1.356 . S
N2120 C2112 1.356 1_545 S
N2120 H2126 0.984 . S
N2120 H2127 0.984 . S
N2121 C2114 1.356 . S
N2121 H2124 0.984 . S
N2121 H2125 0.985 . S
H2122 N2117 0.984 1_545 S
H2123 N2117 0.985 . S
H2124 N2121 0.984 . S
H2125 N2121 0.985 . S
H2126 N2120 0.984 . S
H2127 N2120 0.984 . S
H2128 N2116 0.984 . S
H2129 N2116 0.985 . S
C2130 C2131 1.363 . S
C2130 C2136 1.379 . S
C2130 N2138 1.356 . S
C2131 C2130 1.363 . S
C2131 C2137 1.363 . S
C2132 C2133 1.363 . S
C2132 C2137 1.379 . S
C2132 N2139 1.356 . S
C2133 C2132 1.363 . S
C2133 C2136 1.363 . S
N2134 C2136 1.356 . S
N2134 H2146 0.984 . S
N2134 H2147 0.985 . S
N2135 C2137 1.356 . S
N2135 H2140 0.984 . S
N2135 H2141 0.985 . S
C2136 C2130 1.379 . S
C2136 C2133 1.363 . S
C2136 N2134 1.356 . S
C2137 C2131 1.363 . S
C2137 C2132 1.379 . S
C2137 N2135 1.356 . S
N2138 C2130 1.356 . S
N2138 H2144 0.984 . S
N2138 H2145 0.984 . S
N2139 C2132 1.356 . S
N2139 H2142 0.984 . S
N2139 H2143 0.985 . S
H2140 N2135 0.984 . S
H2141 N2135 0.985 . S
H2142 N2139 0.984 . S
H2143 N2139 0.985 . S
H2144 N2138 0.984 . S
H2145 N2138 0.984 . S
H2146 N2134 0.984 . S
H2147 N2134 0.985 . S
C2148 C2149 1.363 . S
C2148 C2154 1.379 1_565 S
C2148 N2156 1.356 . S
C2149 C2148 1.363 . S
C2149 C2155 1.363 . S
C2150 C2151 1.363 . S
C2150 C2155 1.379 1_545 S
C2150 N2157 1.356 . S
C2151 C2150 1.363 . S
C2151 C2154 1.363 . S
N2152 C2154 1.356 . S
N2152 H2164 0.984 . S
N2152 H2165 0.985 . S
N2153 C2155 1.356 . S
N2153 H2158 0.984 . S
N2153 H2159 0.985 . S
C2154 C2148 1.379 1_545 S
C2154 C2151 1.363 . S
C2154 N2152 1.356 . S
C2155 C2149 1.363 . S
C2155 C2150 1.379 1_565 S
C2155 N2153 1.356 . S
N2156 C2148 1.356 . S
N2156 H2162 0.984 . S
N2156 H2163 0.984 . S
N2157 C2150 1.356 . S
N2157 H2160 0.984 . S
N2157 H2161 0.985 . S
H2158 N2153 0.984 . S
H2159 N2153 0.985 . S
H2160 N2157 0.984 . S
H2161 N2157 0.985 . S
H2162 N2156 0.984 . S
H2163 N2156 0.984 . S
H2164 N2152 0.984 . S
H2165 N2152 0.985 . S
C2166 C2167 1.363 . S
C2166 C2172 1.379 . S
C2166 N2174 1.356 . S
C2167 C2166 1.363 . S
C2167 C2173 1.363 . S
C2168 C2169 1.363 . S
C2168 C2173 1.379 1_554 S
C2168 N2175 1.356 . S
C2169 C2168 1.363 . S
C2169 C2172 1.363 1_554 S
N2170 C2172 1.356 . S
N2170 H2182 0.984 . S
N2170 H2183 0.985 . S
N2171 C2173 1.356 . S
N2171 H2176 0.984 . S
N2171 H2177 0.985 1_556 S
C2172 C2166 1.379 . S
C2172 C2169 1.363 1_556 S
C2172 N2170 1.356 . S
C2173 C2167 1.363 . S
C2173 C2168 1.379 1_556 S
C2173 N2171 1.356 . S
N2174 C2166 1.356 . S
N2174 H2180 0.984 . S
N2174 H2181 0.984 . S
N2175 C2168 1.356 . S
N2175 H2178 0.984 . S
N2175 H2179 0.985 . S
H2176 N2171 0.984 . S
H2177 N2171 0.985 1_554 S
H2178 N2175 0.984 . S
H2179 N2175 0.985 . S
H2180 N2174 0.984 . S
H2181 N2174 0.984 . S
H2182 N2170 0.984 . S
H2183 N2170 0.985 . S
C2184 C2185 1.363 . S
C2184 C2190 1.379 1_545 S
C2184 N2192 1.356 . S
C2185 C2184 1.363 . S
C2185 C2191 1.363 . S
C2186 C2187 1.363 . S
C2186 C2191 1.379 . S
C2186 N2193 1.356 . S
C2187 C2186 1.363 . S
C2187 C2190 1.363 1_545 S
N2188 C2190 1.356 . S
N2188 H2200 0.984 . S
N2188 H2201 0.985 . S
N2189 C2191 1.356 . S
N2189 H2194 0.984 . S
N2189 H2195 0.985 . S
C2190 C2184 1.379 1_565 S
C2190 C2187 1.363 1_565 S
C2190 N2188 1.356 . S
C2191 C2185 1.363 . S
C2191 C2186 1.379 . S
C2191 N2189 1.356 . S
N2192 C2184 1.356 . S
N2192 H2198 0.984 1_545 S
N2192 H2199 0.984 . S
N2193 C2186 1.356 . S
N2193 H2196 0.984 . S
N2193 H2197 0.985 . S
H2194 N2189 0.984 . S
H2195 N2189 0.985 . S
H2196 N2193 0.984 . S
H2197 N2193 0.985 . S
H2198 N2192 0.984 1_565 S
H2199 N2192 0.984 . S
H2200 N2188 0.984 . S
H2201 N2188 0.985 . S
C2202 C2203 1.363 . S
C2202 C2208 1.379 . S
C2202 N2210 1.356 . S
C2203 C2202 1.363 . S
C2203 C2209 1.363 . S
C2204 C2205 1.363 . S
C2204 C2209 1.379 . S
C2204 N2211 1.356 . S
C2205 C2204 1.363 . S
C2205 C2208 1.363 . S
N2206 C2208 1.356 . S
N2206 H2218 0.984 . S
N2206 H2219 0.985 . S
N2207 C2209 1.356 . S
N2207 H2212 0.984 . S
N2207 H2213 0.985 . S
C2208 C2202 1.379 . S
C2208 C2205 1.363 . S
C2208 N2206 1.356 . S
C2209 C2203 1.363 . S
C2209 C2204 1.379 . S
C2209 N2207 1.356 . S
N2210 C2202 1.356 . S
N2210 H2216 0.984 . S
N2210 H2217 0.984 . S
N2211 C2204 1.356 . S
N2211 H2214 0.984 . S
N2211 H2215 0.985 . S
H2212 N2207 0.984 . S
H2213 N2207 0.985 . S
H2214 N2211 0.984 . S
H2215 N2211 0.985 . S
H2216 N2210 0.984 . S
H2217 N2210 0.984 . S
H2218 N2206 0.984 . S
H2219 N2206 0.985 . S
C2220 C2221 1.363 . S
C2220 C2226 1.379 1_545 S
C2220 N2228 1.356 . S
C2221 C2220 1.363 . S
C2221 C2227 1.363 . S
C2222 C2223 1.363 . S
C2222 C2227 1.379 1_565 S
C2222 N2229 1.356 . S
C2223 C2222 1.363 . S
C2223 C2226 1.363 . S
N2224 C2226 1.356 . S
N2224 H2236 0.984 . S
N2224 H2237 0.985 . S
N2225 C2227 1.356 . S
N2225 H2230 0.984 . S
N2225 H2231 0.985 . S
C2226 C2220 1.379 1_565 S
C2226 C2223 1.363 . S
C2226 N2224 1.356 . S
C2227 C2221 1.363 . S
C2227 C2222 1.379 1_545 S
C2227 N2225 1.356 . S
N2228 C2220 1.356 . S
N2228 H2234 0.984 . S
N2228 H2235 0.984 . S
N2229 C2222 1.356 . S
N2229 H2232 0.984 . S
N2229 H2233 0.985 . S
H2230 N2225 0.984 . S
H2231 N2225 0.985 . S
H2232 N2229 0.984 . S
H2233 N2229 0.985 . S
H2234 N2228 0.984 . S
H2235 N2228 0.984 . S
H2236 N2224 0.984 . S
H2237 N2224 0.985 . S
C2238 C2239 1.363 . S
C2238 C2244 1.379 1_556 S
C2238 N2246 1.356 . S
C2239 C2238 1.363 . S
C2239 C2245 1.363 1_556 S
C2240 C2241 1.363 . S
C2240 C2245 1.379 . S
C2240 N2247 1.356 . S
C2241 C2240 1.363 . S
C2241 C2244 1.363 . S
N2242 C2244 1.356 . S
N2242 H2254 0.984 1_554 S
N2242 H2255 0.985 . S
N2243 C2245 1.356 . S
N2243 H2248 0.984 . S
N2243 H2249 0.985 . S
C2244 C2238 1.379 1_554 S
C2244 C2241 1.363 . S
C2244 N2242 1.356 . S
C2245 C2239 1.363 1_554 S
C2245 C2240 1.379 . S
C2245 N2243 1.356 . S
N2246 C2238 1.356 . S
N2246 H2252 0.984 . S
N2246 H2253 0.984 . S
N2247 C2240 1.356 . S
N2247 H2250 0.984 . S
N2247 H2251 0.985 . S
H2248 N2243 0.984 . S
H2249 N2243 0.985 . S
H2250 N2247 0.984 . S
H2251 N2247 0.985 . S
H2252 N2246 0.984 . S
H2253 N2246 0.984 . S
H2254 N2242 0.984 1_556 S
H2255 N2242 0.985 . S
C2256 C2257 1.363 . S
C2256 C2262 1.379 . S
C2256 N2264 1.356 . S
C2257 C2256 1.363 . S
C2257 C2263 1.363 . S
C2258 C2259 1.363 . S
C2258 C2263 1.379 . S
C2258 N2265 1.356 . S
C2259 C2258 1.363 . S
C2259 C2262 1.363 . S
N2260 C2262 1.356 . S
N2260 H2272 0.984 . S
N2260 H2273 0.985 . S
N2261 C2263 1.356 . S
N2261 H2266 0.984 . S
N2261 H2267 0.985 . S
C2262 C2256 1.379 . S
C2262 C2259 1.363 . S
C2262 N2260 1.356 . S
C2263 C2257 1.363 . S
C2263 C2258 1.379 . S
C2263 N2261 1.356 . S
N2264 C2256 1.356 . S
N2264 H2270 0.984 . S
N2264 H2271 0.984 . S
N2265 C2258 1.356 . S
N2265 H2268 0.984 . S
N2265 H2269 0.985 . S
H2266 N2261 0.984 . S
H2267 N2261 0.985 . S
H2268 N2265 0.984 . S
H2269 N2265 0.985 . S
H2270 N2264 0.984 . S
H2271 N2264 0.984 . S
H2272 N2260 0.984 . S
H2273 N2260 0.985 . S
C2274 C2275 1.363 . S
C2274 C2280 1.379 . S
C2274 N2282 1.356 . S
C2275 C2274 1.363 . S
C2275 C2281 1.363 . S
C2276 C2277 1.368 . S
C2276 C2281 1.379 1_554 S
C2276 N2283 1.356 . S
C2277 C2276 1.368 . S
C2277 C2280 1.353 1_554 S
N2278 C2280 1.356 . S
N2278 H2290 0.984 . S
N2278 H2291 0.985 . S
N2279 C2281 1.356 . S
N2279 H2284 0.984 . S
N2279 H2285 0.985 1_556 S
C2280 C2274 1.379 . S
C2280 C2277 1.353 1_556 S
C2280 N2278 1.356 . S
C2281 C2275 1.363 . S
C2281 C2276 1.379 1_556 S
C2281 N2279 1.356 . S
N2282 C2274 1.356 . S
N2282 H2288 0.984 . S
N2282 H2289 0.984 . S
N2283 C2276 1.356 . S
N2283 H2286 0.984 . S
N2283 H2287 0.985 . S
H2284 N2279 0.984 . S
H2285 N2279 0.985 1_554 S
H2286 N2283 0.984 . S
H2287 N2283 0.985 . S
H2288 N2282 0.984 . S
H2289 N2282 0.984 . S
H2290 N2278 0.984 . S
H2291 N2278 0.985 . S
C2292 C2293 1.363 . S
C2292 C2298 1.379 . S
C2292 N2300 1.356 . S
C2293 C2292 1.363 . S
C2293 C2299 1.363 . S
C2294 C2295 1.363 . S
C2294 C2299 1.379 . S
C2294 N2301 1.356 . S
C2295 C2294 1.363 . S
C2295 C2298 1.363 . S
N2296 C2298 1.356 . S
N2296 H2308 0.984 . S
N2296 H2309 0.985 . S
N2297 C2299 1.356 . S
N2297 H2302 0.984 . S
N2297 H2303 0.985 . S
C2298 C2292 1.379 . S
C2298 C2295 1.363 . S
C2298 N2296 1.356 . S
C2299 C2293 1.363 . S
C2299 C2294 1.379 . S
C2299 N2297 1.356 . S
N2300 C2292 1.356 . S
N2300 H2306 0.984 . S
N2300 H2307 0.984 . S
N2301 C2294 1.356 . S
N2301 H2304 0.984 . S
N2301 H2305 0.985 . S
H2302 N2297 0.984 . S
H2303 N2297 0.985 . S
H2304 N2301 0.984 . S
H2305 N2301 0.985 . S
H2306 N2300 0.984 . S
H2307 N2300 0.984 . S
H2308 N2296 0.984 . S
H2309 N2296 0.985 . S
C2310 C2311 1.363 . S
C2310 C2316 1.379 . S
C2310 N2318 1.356 . S
C2311 C2310 1.363 . S
C2311 C2317 1.363 . S
C2312 C2313 1.363 . S
C2312 C2317 1.379 . S
C2312 N2319 1.356 . S
C2313 C2312 1.363 . S
C2313 C2316 1.363 . S
N2314 C2316 1.356 . S
N2314 H2326 0.984 . S
N2314 H2327 0.985 . S
N2315 C2317 1.356 . S
N2315 H2320 0.984 . S
N2315 H2321 0.985 . S
C2316 C2310 1.379 . S
C2316 C2313 1.363 . S
C2316 N2314 1.356 . S
C2317 C2311 1.363 . S
C2317 C2312 1.379 . S
C2317 N2315 1.356 . S
N2318 C2310 1.356 . S
N2318 H2324 0.984 . S
N2318 H2325 0.984 . S
N2319 C2312 1.356 . S
N2319 H2322 0.984 . S
N2319 H2323 0.985 . S
H2320 N2315 0.984 . S
H2321 N2315 0.985 . S
H2322 N2319 0.984 . S
H2323 N2319 0.985 . S
H2324 N2318 0.984 . S
H2325 N2318 0.984 . S
H2326 N2314 0.984 . S
H2327 N2314 0.985 . S
C2328 C2329 1.363 . S
C2328 C2334 1.379 . S
C2328 N2336 1.356 . S
C2329 C2328 1.363 . S
C2329 C2335 1.363 . S
C2330 C2331 1.363 . S
C2330 C2335 1.379 . S
C2330 N2337 1.356 . S
C2331 C2330 1.363 . S
C2331 C2334 1.363 . S
N2332 C2334 1.356 . S
N2332 H2344 0.984 . S
N2332 H2345 0.985 . S
N2333 C2335 1.356 . S
N2333 H2338 0.984 . S
N2333 H2339 0.985 . S
C2334 C2328 1.379 . S
C2334 C2331 1.363 . S
C2334 N2332 1.356 . S
C2335 C2329 1.363 . S
C2335 C2330 1.379 . S
C2335 N2333 1.356 . S
N2336 C2328 1.356 . S
N2336 H2342 0.984 . S
N2336 H2343 0.984 . S
N2337 C2330 1.356 . S
N2337 H2340 0.984 . S
N2337 H2341 0.985 . S
H2338 N2333 0.984 . S
H2339 N2333 0.985 . S
H2340 N2337 0.984 . S
H2341 N2337 0.985 . S
H2342 N2336 0.984 . S
H2343 N2336 0.984 . S
H2344 N2332 0.984 . S
H2345 N2332 0.985 . S
C2346 C2347 1.374 . S
C2346 C2352 1.379 . S
C2346 N2354 1.356 . S
C2347 C2346 1.374 . S
C2347 C2353 1.347 1_556 S
C2348 C2349 1.363 . S
C2348 C2353 1.379 . S
C2348 N2355 1.356 . S
C2349 C2348 1.363 . S
C2349 C2352 1.363 1_554 S
N2350 C2352 1.356 . S
N2350 H2362 0.984 . S
N2350 H2363 0.985 . S
N2351 C2353 1.356 . S
N2351 H2356 0.984 . S
N2351 H2357 0.985 . S
C2352 C2346 1.379 . S
C2352 C2349 1.363 1_556 S
C2352 N2350 1.356 . S
C2353 C2347 1.347 1_554 S
C2353 C2348 1.379 . S
C2353 N2351 1.356 . S
N2354 C2346 1.356 . S
N2354 H2360 0.984 . S
N2354 H2361 0.984 . S
N2355 C2348 1.356 . S
N2355 H2358 0.984 . S
N2355 H2359 0.985 . S
H2356 N2351 0.984 . S
H2357 N2351 0.985 . S
H2358 N2355 0.984 . S
H2359 N2355 0.985 . S
H2360 N2354 0.984 . S
H2361 N2354 0.984 . S
H2362 N2350 0.984 . S
H2363 N2350 0.985 . S
C2364 C2365 1.363 . S
C2364 C2370 1.379 . S
C2364 N2372 1.356 . S
C2365 C2364 1.363 . S
C2365 C2371 1.363 . S
C2366 C2367 1.363 . S
C2366 C2371 1.379 . S
C2366 N2373 1.356 . S
C2367 C2366 1.363 . S
C2367 C2370 1.363 . S
N2368 C2370 1.356 . S
N2368 H2380 0.984 . S
N2368 H2381 0.985 . S
N2369 C2371 1.356 . S
N2369 H2374 0.984 . S
N2369 H2375 0.985 . S
C2370 C2364 1.379 . S
C2370 C2367 1.363 . S
C2370 N2368 1.356 . S
C2371 C2365 1.363 . S
C2371 C2366 1.379 . S
C2371 N2369 1.356 . S
N2372 C2364 1.356 . S
N2372 H2378 0.984 . S
N2372 H2379 0.984 . S
N2373 C2366 1.356 . S
N2373 H2376 0.984 . S
N2373 H2377 0.985 . S
H2374 N2369 0.984 . S
H2375 N2369 0.985 . S
H2376 N2373 0.984 . S
H2377 N2373 0.985 . S
H2378 N2372 0.984 . S
H2379 N2372 0.984 . S
H2380 N2368 0.984 . S
H2381 N2368 0.985 . S
C2382 C2383 1.363 . S
C2382 C2388 1.379 . S
C2382 N2390 1.356 . S
C2383 C2382 1.363 . S
C2383 C2389 1.363 . S
C2384 C2385 1.363 . S
C2384 C2389 1.379 . S
C2384 N2391 1.356 . S
C2385 C2384 1.363 . S
C2385 C2388 1.363 . S
N2386 C2388 1.356 . S
N2386 H2398 0.984 . S
N2386 H2399 0.985 . S
N2387 C2389 1.356 . S
N2387 H2392 0.984 . S
N2387 H2393 0.985 . S
C2388 C2382 1.379 . S
C2388 C2385 1.363 . S
C2388 N2386 1.356 . S
C2389 C2383 1.363 . S
C2389 C2384 1.379 . S
C2389 N2387 1.356 . S
N2390 C2382 1.356 . S
N2390 H2396 0.984 . S
N2390 H2397 0.984 . S
N2391 C2384 1.356 . S
N2391 H2394 0.984 . S
N2391 H2395 0.985 . S
H2392 N2387 0.984 . S
H2393 N2387 0.985 . S
H2394 N2391 0.984 . S
H2395 N2391 0.985 . S
H2396 N2390 0.984 . S
H2397 N2390 0.984 . S
H2398 N2386 0.984 . S
H2399 N2386 0.985 . S
C2400 C2401 1.363 . S
C2400 C2406 1.379 . S
C2400 N2408 1.356 . S
C2401 C2400 1.363 . S
C2401 C2407 1.363 . S
C2402 C2403 1.363 . S
C2402 C2407 1.379 . S
C2402 N2409 1.356 . S
C2403 C2402 1.363 . S
C2403 C2406 1.363 . S
N2404 C2406 1.356 . S
N2404 H2416 0.984 . S
N2404 H2417 0.985 . S
N2405 C2407 1.356 . S
N2405 H2410 0.984 . S
N2405 H2411 0.985 . S
C2406 C2400 1.379 . S
C2406 C2403 1.363 . S
C2406 N2404 1.356 . S
C2407 C2401 1.363 . S
C2407 C2402 1.379 . S
C2407 N2405 1.356 . S
N2408 C2400 1.356 . S
N2408 H2414 0.984 . S
N2408 H2415 0.984 . S
N2409 C2402 1.356 . S
N2409 H2412 0.984 . S
N2409 H2413 0.985 . S
H2410 N2405 0.984 . S
H2411 N2405 0.985 . S
H2412 N2409 0.984 . S
H2413 N2409 0.985 . S
H2414 N2408 0.984 . S
H2415 N2408 0.984 . S
H2416 N2404 0.984 . S
H2417 N2404 0.985 . S
C2418 C2419 1.363 . S
C2418 C2424 1.379 . S
C2418 N2426 1.356 . S
C2419 C2418 1.363 . S
C2419 C2425 1.363 . S
C2420 C2421 1.363 . S
C2420 C2425 1.379 . S
C2420 N2427 1.356 . S
C2421 C2420 1.363 . S
C2421 C2424 1.363 . S
N2422 C2424 1.356 . S
N2422 H2434 0.984 . S
N2422 H2435 0.985 . S
N2423 C2425 1.356 . S
N2423 H2428 0.984 . S
N2423 H2429 0.985 . S
C2424 C2418 1.379 . S
C2424 C2421 1.363 . S
C2424 N2422 1.356 . S
C2425 C2419 1.363 . S
C2425 C2420 1.379 . S
C2425 N2423 1.356 . S
N2426 C2418 1.356 . S
N2426 H2432 0.984 . S
N2426 H2433 0.984 . S
N2427 C2420 1.356 . S
N2427 H2430 0.984 . S
N2427 H2431 0.985 . S
H2428 N2423 0.984 . S
H2429 N2423 0.985 . S
H2430 N2427 0.984 . S
H2431 N2427 0.985 . S
H2432 N2426 0.984 . S
H2433 N2426 0.984 . S
H2434 N2422 0.984 . S
H2435 N2422 0.985 . S
C2436 C2437 1.363 . S
C2436 C2442 1.379 . S
C2436 N2444 1.356 . S
C2437 C2436 1.363 . S
C2437 C2443 1.363 . S
C2438 C2439 1.363 . S
C2438 C2443 1.379 . S
C2438 N2445 1.356 . S
C2439 C2438 1.363 . S
C2439 C2442 1.363 . S
N2440 C2442 1.356 . S
N2440 H2452 0.984 . S
N2440 H2453 0.985 . S
N2441 C2443 1.356 . S
N2441 H2446 0.984 . S
N2441 H2447 0.985 . S
C2442 C2436 1.379 . S
C2442 C2439 1.363 . S
C2442 N2440 1.356 . S
C2443 C2437 1.363 . S
C2443 C2438 1.379 . S
C2443 N2441 1.356 . S
N2444 C2436 1.356 . S
N2444 H2450 0.984 . S
N2444 H2451 0.984 . S
N2445 C2438 1.356 . S
N2445 H2448 0.984 . S
N2445 H2449 0.985 . S
H2446 N2441 0.984 . S
H2447 N2441 0.985 . S
H2448 N2445 0.984 . S
H2449 N2445 0.985 . S
H2450 N2444 0.984 . S
H2451 N2444 0.984 . S
H2452 N2440 0.984 . S
H2453 N2440 0.985 . S
C2454 C2455 1.363 . S
C2454 C2460 1.379 . S
C2454 N2462 1.356 . S
C2455 C2454 1.363 . S
C2455 C2461 1.363 . S
C2456 C2457 1.363 . S
C2456 C2461 1.379 . S
C2456 N2463 1.356 . S
C2457 C2456 1.363 . S
C2457 C2460 1.363 . S
N2458 C2460 1.356 . S
N2458 H2470 0.984 . S
N2458 H2471 0.985 . S
N2459 C2461 1.356 . S
N2459 H2464 0.984 . S
N2459 H2465 0.985 . S
C2460 C2454 1.379 . S
C2460 C2457 1.363 . S
C2460 N2458 1.356 . S
C2461 C2455 1.363 . S
C2461 C2456 1.379 . S
C2461 N2459 1.356 . S
N2462 C2454 1.356 . S
N2462 H2468 0.984 . S
N2462 H2469 0.984 . S
N2463 C2456 1.356 . S
N2463 H2466 0.984 . S
N2463 H2467 0.985 . S
H2464 N2459 0.984 . S
H2465 N2459 0.985 . S
H2466 N2463 0.984 . S
H2467 N2463 0.985 . S
H2468 N2462 0.984 . S
H2469 N2462 0.984 . S
H2470 N2458 0.984 . S
H2471 N2458 0.985 . S
C2472 C2473 1.363 . S
C2472 C2478 1.379 . S
C2472 N2480 1.356 . S
C2473 C2472 1.363 . S
C2473 C2479 1.363 . S
C2474 C2475 1.363 . S
C2474 C2479 1.379 . S
C2474 N2481 1.356 . S
C2475 C2474 1.363 . S
C2475 C2478 1.363 . S
N2476 C2478 1.356 . S
N2476 H2488 0.984 . S
N2476 H2489 0.985 . S
N2477 C2479 1.356 . S
N2477 H2482 0.984 . S
N2477 H2483 0.985 . S
C2478 C2472 1.379 . S
C2478 C2475 1.363 . S
C2478 N2476 1.356 . S
C2479 C2473 1.363 . S
C2479 C2474 1.379 . S
C2479 N2477 1.356 . S
N2480 C2472 1.356 . S
N2480 H2486 0.984 . S
N2480 H2487 0.984 . S
N2481 C2474 1.356 . S
N2481 H2484 0.984 . S
N2481 H2485 0.985 . S
H2482 N2477 0.984 . S
H2483 N2477 0.985 . S
H2484 N2481 0.984 . S
H2485 N2481 0.985 . S
H2486 N2480 0.984 . S
H2487 N2480 0.984 . S
H2488 N2476 0.984 . S
H2489 N2476 0.985 . S
C2490 C2491 1.363 . S
C2490 C2496 1.379 . S
C2490 N2498 1.356 . S
C2491 C2490 1.363 . S
C2491 C2497 1.363 . S
C2492 C2493 1.363 . S
C2492 C2497 1.379 . S
C2492 N2499 1.356 . S
C2493 C2492 1.363 . S
C2493 C2496 1.363 . S
N2494 C2496 1.356 . S
N2494 H2506 0.984 . S
N2494 H2507 0.985 . S
N2495 C2497 1.356 . S
N2495 H2500 0.984 . S
N2495 H2501 0.985 . S
C2496 C2490 1.379 . S
C2496 C2493 1.363 . S
C2496 N2494 1.356 . S
C2497 C2491 1.363 . S
C2497 C2492 1.379 . S
C2497 N2495 1.356 . S
N2498 C2490 1.356 . S
N2498 H2504 0.984 . S
N2498 H2505 0.984 . S
N2499 C2492 1.356 . S
N2499 H2502 0.984 . S
N2499 H2503 0.985 . S
H2500 N2495 0.984 . S
H2501 N2495 0.985 . S
H2502 N2499 0.984 . S
H2503 N2499 0.985 . S
H2504 N2498 0.984 . S
H2505 N2498 0.984 . S
H2506 N2494 0.984 . S
H2507 N2494 0.985 . S
C2508 C2509 1.363 . S
C2508 C2514 1.379 . S
C2508 N2516 1.356 . S
C2509 C2508 1.363 . S
C2509 C2515 1.363 . S
C2510 C2511 1.363 . S
C2510 C2515 1.379 . S
C2510 N2517 1.356 . S
C2511 C2510 1.363 . S
C2511 C2514 1.363 . S
N2512 C2514 1.356 . S
N2512 H2524 0.984 . S
N2512 H2525 0.985 . S
N2513 C2515 1.356 . S
N2513 H2518 0.984 . S
N2513 H2519 0.985 . S
C2514 C2508 1.379 . S
C2514 C2511 1.363 . S
C2514 N2512 1.356 . S
C2515 C2509 1.363 . S
C2515 C2510 1.379 . S
C2515 N2513 1.356 . S
N2516 C2508 1.356 . S
N2516 H2522 0.984 . S
N2516 H2523 0.984 . S
N2517 C2510 1.356 . S
N2517 H2520 0.984 . S
N2517 H2521 0.985 . S
H2518 N2513 0.984 . S
H2519 N2513 0.985 . S
H2520 N2517 0.984 . S
H2521 N2517 0.985 . S
H2522 N2516 0.984 . S
H2523 N2516 0.984 . S
H2524 N2512 0.984 . S
H2525 N2512 0.985 . S
C2526 C2527 1.363 . S
C2526 C2532 1.379 . S
C2526 N2534 1.356 . S
C2527 C2526 1.363 . S
C2527 C2533 1.363 . S
C2528 C2529 1.363 . S
C2528 C2533 1.379 . S
C2528 N2535 1.356 . S
C2529 C2528 1.363 . S
C2529 C2532 1.363 . S
N2530 C2532 1.356 . S
N2530 H2542 0.984 . S
N2530 H2543 0.985 . S
N2531 C2533 1.356 . S
N2531 H2536 0.984 . S
N2531 H2537 0.985 . S
C2532 C2526 1.379 . S
C2532 C2529 1.363 . S
C2532 N2530 1.356 . S
C2533 C2527 1.363 . S
C2533 C2528 1.379 . S
C2533 N2531 1.356 . S
N2534 C2526 1.356 . S
N2534 H2540 0.984 . S
N2534 H2541 0.984 . S
N2535 C2528 1.356 . S
N2535 H2538 0.984 . S
N2535 H2539 0.985 . S
H2536 N2531 0.984 . S
H2537 N2531 0.985 . S
H2538 N2535 0.984 . S
H2539 N2535 0.985 . S
H2540 N2534 0.984 . S
H2541 N2534 0.984 . S
H2542 N2530 0.984 . S
H2543 N2530 0.985 . S
C2544 C2545 1.363 . S
C2544 C2550 1.379 . S
C2544 N2552 1.356 . S
C2545 C2544 1.363 . S
C2545 C2551 1.363 . S
C2546 C2547 1.363 . S
C2546 C2551 1.379 . S
C2546 N2553 1.356 . S
C2547 C2546 1.363 . S
C2547 C2550 1.363 . S
N2548 C2550 1.356 . S
N2548 H2560 0.984 . S
N2548 H2561 0.985 . S
N2549 C2551 1.356 . S
N2549 H2554 0.984 . S
N2549 H2555 0.985 . S
C2550 C2544 1.379 . S
C2550 C2547 1.363 . S
C2550 N2548 1.356 . S
C2551 C2545 1.363 . S
C2551 C2546 1.379 . S
C2551 N2549 1.356 . S
N2552 C2544 1.356 . S
N2552 H2558 0.984 . S
N2552 H2559 0.984 . S
N2553 C2546 1.356 . S
N2553 H2556 0.984 . S
N2553 H2557 0.985 . S
H2554 N2549 0.984 . S
H2555 N2549 0.985 . S
H2556 N2553 0.984 . S
H2557 N2553 0.985 . S
H2558 N2552 0.984 . S
H2559 N2552 0.984 . S
H2560 N2548 0.984 . S
H2561 N2548 0.985 . S
C2562 C2563 1.363 . S
C2562 C2568 1.379 . S
C2562 N2570 1.356 . S
C2563 C2562 1.363 . S
C2563 C2569 1.363 . S
C2564 C2565 1.363 . S
C2564 C2569 1.379 . S
C2564 N2571 1.356 . S
C2565 C2564 1.363 . S
C2565 C2568 1.363 . S
N2566 C2568 1.356 . S
N2566 H2578 0.984 . S
N2566 H2579 0.985 . S
N2567 C2569 1.356 . S
N2567 H2572 0.984 . S
N2567 H2573 0.985 . S
C2568 C2562 1.379 . S
C2568 C2565 1.363 . S
C2568 N2566 1.356 . S
C2569 C2563 1.363 . S
C2569 C2564 1.379 . S
C2569 N2567 1.356 . S
N2570 C2562 1.356 . S
N2570 H2576 0.984 . S
N2570 H2577 0.984 . S
N2571 C2564 1.356 . S
N2571 H2574 0.984 . S
N2571 H2575 0.985 . S
H2572 N2567 0.984 . S
H2573 N2567 0.985 . S
H2574 N2571 0.984 . S
H2575 N2571 0.985 . S
H2576 N2570 0.984 . S
H2577 N2570 0.984 . S
H2578 N2566 0.984 . S
H2579 N2566 0.985 . S
C2580 C2581 1.363 . S
C2580 C2586 1.379 . S
C2580 N2588 1.356 . S
C2581 C2580 1.363 . S
C2581 C2587 1.363 . S
C2582 C2583 1.363 . S
C2582 C2587 1.379 . S
C2582 N2589 1.356 . S
C2583 C2582 1.363 . S
C2583 C2586 1.363 . S
N2584 C2586 1.356 . S
N2584 H2596 0.984 . S
N2584 H2597 0.985 . S
N2585 C2587 1.356 . S
N2585 H2590 0.984 . S
N2585 H2591 0.985 . S
C2586 C2580 1.379 . S
C2586 C2583 1.363 . S
C2586 N2584 1.356 . S
C2587 C2581 1.363 . S
C2587 C2582 1.379 . S
C2587 N2585 1.356 . S
N2588 C2580 1.356 . S
N2588 H2594 0.984 . S
N2588 H2595 0.984 . S
N2589 C2582 1.356 . S
N2589 H2592 0.984 . S
N2589 H2593 0.985 . S
H2590 N2585 0.984 . S
H2591 N2585 0.985 . S
H2592 N2589 0.984 . S
H2593 N2589 0.985 . S
H2594 N2588 0.984 . S
H2595 N2588 0.984 . S
H2596 N2584 0.984 . S
H2597 N2584 0.985 . S
C2598 C2599 1.363 . S
C2598 C2604 1.379 . S
C2598 N2606 1.356 . S
C2599 C2598 1.363 . S
C2599 C2605 1.363 . S
C2600 C2601 1.363 . S
C2600 C2605 1.379 . S
C2600 N2607 1.356 . S
C2601 C2600 1.363 . S
C2601 C2604 1.363 . S
N2602 C2604 1.356 . S
N2602 H2614 0.984 . S
N2602 H2615 0.985 . S
N2603 C2605 1.356 . S
N2603 H2608 0.984 . S
N2603 H2609 0.985 . S
C2604 C2598 1.379 . S
C2604 C2601 1.363 . S
C2604 N2602 1.356 . S
C2605 C2599 1.363 . S
C2605 C2600 1.379 . S
C2605 N2603 1.356 . S
N2606 C2598 1.356 . S
N2606 H2612 0.984 . S
N2606 H2613 0.984 . S
N2607 C2600 1.356 . S
N2607 H2610 0.984 . S
N2607 H2611 0.985 . S
H2608 N2603 0.984 . S
H2609 N2603 0.985 . S
H2610 N2607 0.984 . S
H2611 N2607 0.985 . S
H2612 N2606 0.984 . S
H2613 N2606 0.984 . S
H2614 N2602 0.984 . S
H2615 N2602 0.985 . S
C2616 C2617 1.363 . S
C2616 C2622 1.379 . S
C2616 N2624 1.356 . S
C2617 C2616 1.363 . S
C2617 C2623 1.363 . S
C2618 C2619 1.363 . S
C2618 C2623 1.379 . S
C2618 N2625 1.356 . S
C2619 C2618 1.363 . S
C2619 C2622 1.363 . S
N2620 C2622 1.356 . S
N2620 H2632 0.984 . S
N2620 H2633 0.985 . S
N2621 C2623 1.356 . S
N2621 H2626 0.984 . S
N2621 H2627 0.985 . S
C2622 C2616 1.379 . S
C2622 C2619 1.363 . S
C2622 N2620 1.356 . S
C2623 C2617 1.363 . S
C2623 C2618 1.379 . S
C2623 N2621 1.356 . S
N2624 C2616 1.356 . S
N2624 H2630 0.984 . S
N2624 H2631 0.984 . S
N2625 C2618 1.356 . S
N2625 H2628 0.984 . S
N2625 H2629 0.985 . S
H2626 N2621 0.984 . S
H2627 N2621 0.985 . S
H2628 N2625 0.984 . S
H2629 N2625 0.985 . S
H2630 N2624 0.984 . S
H2631 N2624 0.984 . S
H2632 N2620 0.984 . S
H2633 N2620 0.985 . S
C2634 C2635 1.363 . S
C2634 C2640 1.379 . S
C2634 N2642 1.356 . S
C2635 C2634 1.363 . S
C2635 C2641 1.363 . S
C2636 C2637 1.363 . S
C2636 C2641 1.379 . S
C2636 N2643 1.356 . S
C2637 C2636 1.363 . S
C2637 C2640 1.363 . S
N2638 C2640 1.356 . S
N2638 H2650 0.984 . S
N2638 H2651 0.985 . S
N2639 C2641 1.356 . S
N2639 H2644 0.984 . S
N2639 H2645 0.985 . S
C2640 C2634 1.379 . S
C2640 C2637 1.363 . S
C2640 N2638 1.356 . S
C2641 C2635 1.363 . S
C2641 C2636 1.379 . S
C2641 N2639 1.356 . S
N2642 C2634 1.356 . S
N2642 H2648 0.984 . S
N2642 H2649 0.984 . S
N2643 C2636 1.356 . S
N2643 H2646 0.984 . S
N2643 H2647 0.985 . S
H2644 N2639 0.984 . S
H2645 N2639 0.985 . S
H2646 N2643 0.984 . S
H2647 N2643 0.985 . S
H2648 N2642 0.984 . S
H2649 N2642 0.984 . S
H2650 N2638 0.984 . S
H2651 N2638 0.985 . S
C2652 C2653 1.363 . S
C2652 C2658 1.379 . S
C2652 N2660 1.356 . S
C2653 C2652 1.363 . S
C2653 C2659 1.363 . S
C2654 C2655 1.363 . S
C2654 C2659 1.379 . S
C2654 N2661 1.356 . S
C2655 C2654 1.363 . S
C2655 C2658 1.363 . S
N2656 C2658 1.356 . S
N2656 H2668 0.984 . S
N2656 H2669 0.985 . S
N2657 C2659 1.356 . S
N2657 H2662 0.984 . S
N2657 H2663 0.985 . S
C2658 C2652 1.379 . S
C2658 C2655 1.363 . S
C2658 N2656 1.356 . S
C2659 C2653 1.363 . S
C2659 C2654 1.379 . S
C2659 N2657 1.356 . S
N2660 C2652 1.356 . S
N2660 H2666 0.984 . S
N2660 H2667 0.984 . S
N2661 C2654 1.356 . S
N2661 H2664 0.984 . S
N2661 H2665 0.985 . S
H2662 N2657 0.984 . S
H2663 N2657 0.985 . S
H2664 N2661 0.984 . S
H2665 N2661 0.985 . S
H2666 N2660 0.984 . S
H2667 N2660 0.984 . S
H2668 N2656 0.984 . S
H2669 N2656 0.985 . S
C2670 C2671 1.363 . S
C2670 C2676 1.379 . S
C2670 N2678 1.356 . S
C2671 C2670 1.363 . S
C2671 C2677 1.363 . S
C2672 C2673 1.363 . S
C2672 C2677 1.379 . S
C2672 N2679 1.356 . S
C2673 C2672 1.363 . S
C2673 C2676 1.363 . S
N2674 C2676 1.356 . S
N2674 H2686 0.984 . S
N2674 H2687 0.985 . S
N2675 C2677 1.356 . S
N2675 H2680 0.984 . S
N2675 H2681 0.985 . S
C2676 C2670 1.379 . S
C2676 C2673 1.363 . S
C2676 N2674 1.356 . S
C2677 C2671 1.363 . S
C2677 C2672 1.379 . S
C2677 N2675 1.356 . S
N2678 C2670 1.356 . S
N2678 H2684 0.984 . S
N2678 H2685 0.984 . S
N2679 C2672 1.356 . S
N2679 H2682 0.984 . S
N2679 H2683 0.985 . S
H2680 N2675 0.984 . S
H2681 N2675 0.985 . S
H2682 N2679 0.984 . S
H2683 N2679 0.985 . S
H2684 N2678 0.984 . S
H2685 N2678 0.984 . S
H2686 N2674 0.984 . S
H2687 N2674 0.985 . S
C961 N6 1.350 . S
C963 C117 1.425 . S
C979 C27 2.012 . S
C981 C57 2.003 . S
C997 N66 0.807 . S
C999 N36 0.791 . S
C1015 C87 1.298 . S
C1017 N96 1.268 . S
C1033 N156 2.075 . S
C1035 C147 2.332 . S
C1051 C177 1.831 . S
C1053 N186 1.574 . S
C1069 N216 1.617 . S
C1071 C207 1.960 . S
C1087 N126 1.179 1_556 S
C1089 C237 1.461 . S
C1105 N254 1.350 . S
C1107 C346 1.425 . S
C1123 C286 2.003 . S
C1125 C256 2.012 . S
C1141 N314 0.807 . S
C1143 N284 0.791 . S
C1159 N344 1.268 . S
C1161 C316 1.298 . S
C1177 C376 2.332 . S
C1179 N404 2.075 . S
C1195 C406 1.831 . S
C1197 N434 1.574 . S
C1213 N464 1.617 . S
C1215 C436 1.960 . S
C1231 N374 1.179 1_554 S
C1233 C466 1.461 . S
C1249 N486 1.350 . S
C1251 C597 1.425 . S
C1267 C507 2.012 . S
C1269 C537 2.003 1_556 S
C1285 N516 0.791 . S
C1287 N546 0.807 . S
C1303 N576 1.268 . S
C1305 C567 1.298 . S
C1321 C627 2.332 . S
C1323 N636 2.075 . S
C1339 N666 1.574 . S
C1341 C657 1.831 . S
C1357 C687 1.960 . S
C1359 N696 1.617 . S
C1375 N606 1.179 . S
C1377 C717 1.461 . S
C1393 C826 1.425 . S
C1395 N734 1.350 . S
C1411 C736 2.012 . S
C1413 C766 2.003 1_554 S
C1429 N794 0.807 . S
C1431 N764 0.791 . S
C1447 C796 1.298 . S
C1449 N824 1.268 . S
C1465 N884 2.075 . S
C1467 C856 2.332 . S
C1483 N914 1.574 . S
C1485 C886 1.831 . S
C1501 N944 1.617 . S
C1503 C916 1.960 . S
C1519 C946 1.461 . S
C1521 N854 1.179 . S
C1537 N816 1.362 . S
C1539 C1 1.372 . S
C1555 C40 1.205 . S
C1557 N246 1.211 1_455 S
C1573 C61 1.442 . S
C1575 C777 1.441 . S
C1591 C91 1.059 . S
C1593 N306 1.045 . S
C1609 C130 1.336 . S
C1611 C897 1.334 . S
C1627 C447 1.800 . S
C1629 C160 1.803 . S
C1645 C957 1.349 . S
C1647 C190 1.350 . S
C1663 C220 1.716 . S
C1665 C387 1.711 . S
C1681 C250 1.372 . S
C1683 N584 1.362 . S
C1699 N14 1.211 1_655 S
C1701 C271 1.205 . S
C1717 C526 1.441 . S
C1719 C310 1.442 . S
C1735 N74 1.045 . S
C1737 C340 1.059 . S
C1753 C646 1.334 . S
C1755 C361 1.336 . S
C1771 C196 1.800 . S
C1773 C391 1.803 . S
C1789 C421 1.350 . S
C1791 C706 1.349 . S
C1807 C451 1.716 . S
C1809 C136 1.711 . S
C1825 C481 1.372 . S
C1827 N336 1.362 . S
C1843 C520 1.205 . S
C1845 N726 1.210 . S
C1861 C541 1.442 . S
C1863 C297 1.441 . S
C1879 C571 1.059 . S
C1881 N786 1.045 . S
C1897 C610 1.336 . S
C1899 C417 1.334 . S
C1915 C640 1.803 . S
C1917 C927 1.801 . S
C1933 C477 1.349 . S
C1935 C670 1.350 . S
C1951 C700 1.716 . S
C1953 C867 1.711 . S
C1969 N104 1.362 . S
C1971 C730 1.372 . S
C1987 N494 1.210 . S
C1989 C751 1.205 . S
C2005 C46 1.441 . S
C2007 C790 1.442 . S
C2023 N554 1.045 . S
C2025 C820 1.059 . S
C2041 C166 1.334 . S
C2043 C841 1.336 . S
C2059 C871 1.803 . S
C2061 C676 1.801 . S
C2077 C901 1.350 . S
C2079 C226 1.349 . S
C2095 C616 1.711 . S
C2097 C931 1.716 . S
C2113 C10 0.903 1_565 S
C2115 C121 0.892 . S
C2131 C31 1.009 . S
C2133 C151 1.011 . S
C2149 C70 1.041 . S
C2151 C181 1.046 . S
C2167 C211 0.852 . S
C2169 C100 0.854 . S
C2185 C370 0.892 . S
C2187 C241 0.903 1_545 S
C2203 C400 1.011 . S
C2205 C280 1.009 . S
C2221 C301 1.041 . S
C2223 C430 1.046 . S
C2239 C331 0.854 . S
C2241 C460 0.852 . S
C2257 C490 0.903 . S
C2259 C601 0.892 . S
C2275 C631 1.011 . S
C2277 C511 1.014 . S
C2293 C661 1.046 . S
C2295 C550 1.041 . S
C2311 C691 0.852 . S
C2313 C580 0.854 . S
C2329 C850 0.892 . S
C2331 C721 0.903 . S
C2347 C760 1.014 . S
C2349 C880 1.011 . S
C2365 C910 1.046 . S
C2367 C781 1.041 . S
C2383 C811 0.854 . S
C2385 C940 0.852 . S
C2401 N224 1.917 . S
C2403 C16 1.943 . S
C2419 N44 0.632 . S
C2421 N134 0.635 . S
C2437 C76 1.943 . S
C2439 N164 1.960 . S
C2455 N194 1.617 . S
C2457 C106 1.637 . S
C2473 C267 1.943 . S
C2475 N456 1.917 . S
C2491 N366 0.635 . S
C2493 N276 0.632 . S
C2509 N396 1.960 . S
C2511 C327 1.943 . S
C2527 C357 1.637 . S
C2529 N426 1.617 . S
C2545 C496 1.943 . S
C2547 N704 1.917 . S
C2563 N614 0.635 . S
C2565 N524 0.632 . S
C2581 N644 1.960 . S
C2583 C556 1.943 . S
C2599 N674 1.617 . S
C2601 C586 1.637 . S
C2617 C747 1.943 . S
C2619 N936 1.917 . S
C2635 N846 0.635 . S
C2637 N756 0.632 . S
C2653 C807 1.943 . S
C2655 N876 1.960 . S
C2671 N906 1.617 . S
C2673 C837 1.637 . S
