# Generated by pormake.
# Topology wiu, (6)-cn, num edge types: 1
# Building blocks:
#     Node 0, Type 0, BuildingBlock: MIFKUJ_clean_sbu_0, # of connection points: 6
#     Node 1, Type 0, BuildingBlock: MIFKUJ_clean_sbu_0, # of connection points: 6
#     Node 2, Type 0, BuildingBlock: MIFKUJ_clean_sbu_0, # of connection points: 6
#     Node 3, Type 0, BuildingBlock: MIFKUJ_clean_sbu_0, # of connection points: 6
#     Node 4, Type 0, BuildingBlock: MIFKUJ_clean_sbu_0, # of connection points: 6
#     Node 5, Type 0, BuildingBlock: MIFKUJ_clean_sbu_0, # of connection points: 6
#     Node 6, Type 0, BuildingBlock: MIFKUJ_clean_sbu_0, # of connection points: 6
#     Node 7, Type 0, BuildingBlock: MIFKUJ_clean_sbu_0, # of connection points: 6
#     Node 8, Type 0, BuildingBlock: MIFKUJ_clean_sbu_0, # of connection points: 6
#     Node 9, Type 0, BuildingBlock: MIFKUJ_clean_sbu_0, # of connection points: 6
#     Node 10, Type 0, BuildingBlock: MIFKUJ_clean_sbu_0, # of connection points: 6
#     Node 11, Type 0, BuildingBlock: MIFKUJ_clean_sbu_0, # of connection points: 6
#     Node 12, Type 0, BuildingBlock: MIFKUJ_clean_sbu_0, # of connection points: 6
#     Node 13, Type 0, BuildingBlock: MIFKUJ_clean_sbu_0, # of connection points: 6
#     Node 14, Type 0, BuildingBlock: MIFKUJ_clean_sbu_0, # of connection points: 6
#     Node 15, Type 0, BuildingBlock: MIFKUJ_clean_sbu_0, # of connection points: 6
#     Edge 16, Type (0, 0), None
#     Edge 17, Type (0, 0), None
#     Edge 18, Type (0, 0), None
#     Edge 19, Type (0, 0), None
#     Edge 20, Type (0, 0), None
#     Edge 21, Type (0, 0), None
#     Edge 22, Type (0, 0), None
#     Edge 23, Type (0, 0), None
#     Edge 24, Type (0, 0), None
#     Edge 25, Type (0, 0), None
#     Edge 26, Type (0, 0), None
#     Edge 27, Type (0, 0), None
#     Edge 28, Type (0, 0), None
#     Edge 29, Type (0, 0), None
#     Edge 30, Type (0, 0), None
#     Edge 31, Type (0, 0), None
#     Edge 32, Type (0, 0), None
#     Edge 33, Type (0, 0), None
#     Edge 34, Type (0, 0), None
#     Edge 35, Type (0, 0), None
#     Edge 36, Type (0, 0), None
#     Edge 37, Type (0, 0), None
#     Edge 38, Type (0, 0), None
#     Edge 39, Type (0, 0), None
#     Edge 40, Type (0, 0), None
#     Edge 41, Type (0, 0), None
#     Edge 42, Type (0, 0), None
#     Edge 43, Type (0, 0), None
#     Edge 44, Type (0, 0), None
#     Edge 45, Type (0, 0), None
#     Edge 46, Type (0, 0), None
#     Edge 47, Type (0, 0), None
#     Edge 48, Type (0, 0), None
#     Edge 49, Type (0, 0), None
#     Edge 50, Type (0, 0), None
#     Edge 51, Type (0, 0), None
#     Edge 52, Type (0, 0), None
#     Edge 53, Type (0, 0), None
#     Edge 54, Type (0, 0), None
#     Edge 55, Type (0, 0), None
#     Edge 56, Type (0, 0), None
#     Edge 57, Type (0, 0), None
#     Edge 58, Type (0, 0), None
#     Edge 59, Type (0, 0), None
#     Edge 60, Type (0, 0), None
#     Edge 61, Type (0, 0), None
#     Edge 62, Type (0, 0), None
#     Edge 63, Type (0, 0), None
# Relax obj value: 0.177
# Max RMSD: 0.240
# Mean RMSD: 0.240
data_MOF--net-wiu--node1-MIFKUJ_clean_sbu_0--edge1-none
_symmetry_space_group_name_H-M    P1
_symmetry_Int_Tables_number       1
_symmetry_cell_setting            triclinic
loop_
_symmetry_equiv_pos_as_xyz
'x, y, z'
_cell_length_a     15.351312
_cell_length_b     15.351323
_cell_length_c     34.686049
_cell_angle_alpha  89.999983
_cell_angle_beta   90.000025
_cell_angle_gamma 89.999802
loop_
_atom_site_label
_atom_site_type_symbol
_atom_site_fract_x
_atom_site_fract_y
_atom_site_fract_z
_atom_type_partial_charge
Zn0 Zn 0.30963 0.09334 0.05593 0.0
Zn1 Zn 0.26956 0.1974 0.15015 0.0
C2 C 0.19989 0.06229 0.99111 0.0
O3 O 0.20648 -0.01671 1.00534 0.0
C4 C 0.32374 0.06641 0.20906 0.0
O5 O 0.40343 0.07756 0.19624 0.0
O6 O 0.38345 -0.0059 0.04223 0.0
O7 O 0.40231 0.18399 0.07115 0.0
O8 O 0.39388 0.21274 0.13392 0.0
C9 C 0.44777 0.01274 0.02103 0.0
O10 O 0.45685 0.09207 1.00743 0.0
O11 O 0.24029 0.12467 1.00758 0.0
C12 C 0.14902 0.32733 0.17208 0.0
O13 O 0.09476 0.26396 0.16388 0.0
O14 O 0.23057 0.31369 0.17058 0.0
O15 O 0.18226 0.17284 0.10792 0.0
O16 O 0.2245 0.04176 0.09331 0.0
O17 O 0.26076 0.10803 0.19366 0.0
C18 C 0.43521 0.21355 0.10221 0.0
C19 C 0.16482 0.09311 0.10362 0.0
Zn20 Zn 0.60879 0.55979 0.3064 0.0
Zn21 Zn 0.51435 0.51951 0.40002 0.0
C22 C 0.64882 0.45199 0.24137 0.0
O23 O 0.727 0.45963 0.25637 0.0
C24 C 0.64327 0.57157 0.45922 0.0
O25 O 0.63042 0.65111 0.44653 0.0
O26 O 0.7027 0.64164 0.29478 0.0
O27 O 0.50669 0.64125 0.32028 0.0
O28 O 0.50543 0.64502 0.38418 0.0
C29 C 0.68244 0.7063 0.27411 0.0
O30 O 0.60337 0.7132 0.25999 0.0
O31 O 0.58488 0.49084 0.25734 0.0
C32 C 0.38236 0.40298 0.42242 0.0
O33 O 0.44585 0.34778 0.41569 0.0
O34 O 0.39669 0.48434 0.42007 0.0
O35 O 0.53549 0.43019 0.35825 0.0
O36 O 0.66484 0.47533 0.34302 0.0
O37 O 0.60302 0.50793 0.44366 0.0
C38 C 0.4925 0.68128 0.35181 0.0
C39 C 0.61488 0.41387 0.35247 0.0
Zn40 Zn 0.15024 0.86644 0.55593 0.0
Zn41 Zn 0.1903 0.76248 0.65016 0.0
C42 C 0.25995 0.89758 0.49111 0.0
O43 O 0.25334 0.97657 0.50534 0.0
C44 C 0.13615 0.89347 0.70906 0.0
O45 O 0.05645 0.88233 0.69625 0.0
O46 O 0.07634 0.96564 0.54225 0.0
O47 O 0.05765 0.77568 0.57114 0.0
O48 O 0.06596 0.7472 0.63394 0.0
C49 C 0.012 0.94698 0.52106 0.0
O50 O 0.00292 0.86765 0.50747 0.0
O51 O 0.21958 0.83517 0.50758 0.0
C52 C 0.31082 0.63255 0.67209 0.0
O53 O 0.36508 0.69593 0.6639 0.0
O54 O 0.22927 0.64619 0.67059 0.0
O55 O 0.27761 0.78701 0.60794 0.0
O56 O 0.23535 0.91807 0.5933 0.0
O57 O 0.19912 0.85186 0.69367 0.0
C58 C 0.02469 0.74626 0.60222 0.0
C59 C 0.29504 0.86674 0.60362 0.0
Zn60 Zn 0.85108 0.40009 0.80639 0.0
Zn61 Zn 0.94548 0.44037 0.90002 0.0
C62 C 0.81106 0.50789 0.74136 0.0
O63 O 0.73288 0.50025 0.75636 0.0
C64 C 0.81657 0.3883 0.95921 0.0
O65 O 0.82943 0.30877 0.94652 0.0
O66 O 0.75718 0.31823 0.79477 0.0
O67 O 0.95319 0.31864 0.82027 0.0
O68 O 0.95439 0.31486 0.88417 0.0
C69 C 0.77745 0.25356 0.7741 0.0
O70 O 0.85652 0.24666 0.75998 0.0
O71 O 0.875 0.46904 0.75732 0.0
C72 C 0.07749 0.55688 0.92242 0.0
O73 O 0.01401 0.6121 0.91569 0.0
O74 O 0.06315 0.47553 0.92006 0.0
O75 O 0.92435 0.5297 0.85825 0.0
O76 O 0.79501 0.48455 0.843 0.0
O77 O 0.85681 0.45195 0.94366 0.0
C78 C 0.96735 0.2786 0.8518 0.0
C79 C 0.84496 0.54601 0.85246 0.0
Zn80 Zn 0.69032 0.76252 0.88325 0.0
Zn81 Zn 0.65027 0.86624 0.97748 0.0
C82 C 0.63623 0.89348 0.82433 0.0
O83 O 0.55653 0.88231 0.83714 0.0
C84 C 0.75997 0.89754 0.04231 0.0
O85 O 0.75331 0.97653 0.02807 0.0
O86 O 0.72923 0.6462 0.86282 0.0
O87 O 0.77767 0.78697 0.92546 0.0
O88 O 0.73535 0.91798 0.94012 0.0
C89 C 0.81078 0.63257 0.86129 0.0
O90 O 0.86504 0.69596 0.86945 0.0
O91 O 0.6992 0.85189 0.83973 0.0
C92 C 0.51183 0.94666 1.01229 0.0
O93 O 0.50277 0.86734 0.02588 0.0
O94 O 0.57621 0.96535 0.99113 0.0
O95 O 0.55788 0.77526 0.96231 0.0
O96 O 0.56596 0.74737 0.89945 0.0
O97 O 0.71964 0.83511 0.02584 0.0
C98 C 0.79508 0.86668 0.92981 0.0
C99 C 0.52479 0.74616 0.9312 0.0
Zn100 Zn 0.44552 0.44035 0.63338 0.0
Zn101 Zn 0.35113 0.4001 0.72705 0.0
C102 C 0.31659 0.38829 0.57419 0.0
O103 O 0.32944 0.30875 0.58686 0.0
C104 C 0.31115 0.50791 0.79207 0.0
O105 O 0.23298 0.50028 0.77707 0.0
O106 O 0.56318 0.47553 0.61334 0.0
O107 O 0.42439 0.52967 0.67515 0.0
O108 O 0.29505 0.48457 0.69044 0.0
C109 C 0.57749 0.55689 0.61098 0.0
O110 O 0.51399 0.61208 0.6177 0.0
O111 O 0.35685 0.45192 0.58975 0.0
C112 C 0.27746 0.25356 0.75932 0.0
O113 O 0.35653 0.2466 0.77343 0.0
O114 O 0.25721 0.31826 0.73867 0.0
O115 O 0.4532 0.31862 0.71314 0.0
O116 O 0.45444 0.31485 0.64924 0.0
O117 O 0.37509 0.46905 0.77611 0.0
C118 C 0.345 0.54599 0.68093 0.0
C119 C 0.46738 0.27859 0.68161 0.0
Zn120 Zn 0.76953 0.19736 0.38325 0.0
Zn121 Zn 0.80959 0.09353 0.47749 0.0
C122 C 0.82365 0.0664 0.32434 0.0
O123 O 0.90335 0.07757 0.33715 0.0
C124 C 0.69988 0.06232 0.54231 0.0
O125 O 0.70651 -0.01667 0.52807 0.0
O126 O 0.73061 0.31367 0.36283 0.0
O127 O 0.6822 0.17288 0.42547 0.0
O128 O 0.7245 0.04185 0.44012 0.0
C129 C 0.64906 0.32731 0.36131 0.0
O130 O 0.59479 0.26392 0.36947 0.0
O131 O 0.76068 0.108 0.33974 0.0
C132 C 0.94793 0.01306 0.51232 0.0
O133 O 0.957 0.09238 0.52592 0.0
O134 O 0.88357 -0.00561 0.49115 0.0
O135 O 0.90208 0.18441 0.4623 0.0
O136 O 0.89389 0.21257 0.39947 0.0
O137 O 0.74024 0.12473 0.52584 0.0
C138 C 0.66478 0.09316 0.42981 0.0
C139 C 0.93511 0.21365 0.4312 0.0
Zn140 Zn 0.01431 0.51953 0.13338 0.0
Zn141 Zn 0.10874 0.55978 0.22703 0.0
C142 C 0.14325 0.57159 0.07418 0.0
O143 O 0.13041 0.65114 0.08685 0.0
C144 C 0.14873 0.45197 0.29206 0.0
O145 O 0.22691 0.4596 0.27706 0.0
O146 O 0.89665 0.48434 0.11333 0.0
O147 O 0.03545 0.43021 0.17515 0.0
O148 O 0.1648 0.47531 0.19042 0.0
C149 C 0.88236 0.40297 0.11097 0.0
O150 O 0.94587 0.3478 0.1177 0.0
O151 O 0.10299 0.50797 0.08974 0.0
C152 C 0.18243 0.7063 0.25931 0.0
O153 O 0.10336 0.71326 0.27342 0.0
O154 O 0.20268 0.6416 0.23866 0.0
O155 O 0.00668 0.64127 0.21314 0.0
O156 O 0.00538 0.64503 0.14923 0.0
O157 O 0.08479 0.49083 0.2761 0.0
C158 C 0.11485 0.41389 0.18092 0.0
C159 C -0.00754 0.68129 0.18161 0.0
Zn160 Zn 0.81042 0.59046 0.55739 0.0
Zn161 Zn 0.76942 0.69461 0.64947 0.0
C162 C 0.70059 0.55629 0.49259 0.0
O163 O 0.70874 0.47711 0.50646 0.0
C164 C 0.82436 0.56478 0.70769 0.0
O165 O 0.90294 0.57639 0.69368 0.0
O166 O 0.88569 0.4925 0.54389 0.0
O167 O 0.90139 0.68394 0.5709 0.0
O168 O 0.89436 0.70852 0.63392 0.0
C169 C 0.94728 0.51218 0.52135 0.0
O170 O 0.95226 0.59097 0.50676 0.0
O171 O 0.73972 0.61917 0.50926 0.0
C172 C 0.65118 0.82784 0.67083 0.0
O173 O 0.59499 0.76597 0.66287 0.0
O174 O 0.73227 0.81174 0.66937 0.0
O175 O 0.68109 0.66983 0.60763 0.0
O176 O 0.72682 0.53877 0.59547 0.0
O177 O 0.76013 0.60613 0.69324 0.0
C178 C 0.93527 0.71106 0.60216 0.0
C179 C 0.66489 0.58993 0.60299 0.0
Zn180 Zn 0.12612 0.06156 0.80695 0.0
Zn181 Zn 0.01265 0.02063 0.89877 0.0
C182 C 0.15282 0.95039 0.74248 0.0
O183 O 0.23214 0.95561 0.75647 0.0
C184 C 0.14286 0.07759 0.95759 0.0
O185 O 0.13118 0.15682 0.94432 0.0
O186 O 0.22893 0.12933 0.7923 0.0
O187 O 0.04117 0.15969 0.82195 0.0
O188 O -0.00548 0.14416 0.88222 0.0
C189 C 0.21175 0.18954 0.76866 0.0
O190 O 0.13278 0.19697 0.75445 0.0
O191 O 0.09145 -0.00788 0.75906 0.0
C192 C 0.88165 0.89943 0.91999 0.0
O193 O 0.9438 0.84437 0.91106 0.0
O194 O 0.89668 -0.01925 0.91906 0.0
O195 O 0.03997 0.93321 0.85686 0.0
O196 O 0.17273 0.97553 0.84519 0.0
O197 O 0.10172 0.01392 0.94253 0.0
C198 C 0.00228 0.18899 0.85166 0.0
C199 C 0.11992 0.91543 0.8535 0.0
Zn200 Zn 0.64944 0.3693 0.05739 0.0
Zn201 Zn 0.69043 0.26528 0.14948 0.0
C202 C 0.75925 0.40357 0.99258 0.0
O203 O 0.75108 0.48274 1.00646 0.0
C204 C 0.63553 0.3951 0.2077 0.0
O205 O 0.55694 0.38348 0.1937 0.0
O206 O 0.57407 0.4672 0.04391 0.0
O207 O 0.55859 0.27569 0.07089 0.0
O208 O 0.56548 0.25144 0.13393 0.0
C209 C 0.51245 0.4475 0.02139 0.0
O210 O 0.50748 0.36871 1.0068 0.0
O211 O 0.72015 0.34067 1.00925 0.0
C212 C 0.80865 0.13204 0.17084 0.0
O213 O 0.86483 0.19391 0.16289 0.0
O214 O 0.72756 0.14813 0.16938 0.0
O215 O 0.77878 0.29002 0.10764 0.0
O216 O 0.73303 0.42105 0.09546 0.0
O217 O 0.69975 0.35376 0.19325 0.0
C218 C 0.52463 0.24875 0.10216 0.0
C219 C 0.79496 0.36992 0.10298 0.0
Zn220 Zn 0.33375 0.89832 0.30694 0.0
Zn221 Zn 0.44718 0.93925 0.39877 0.0
C222 C 0.30705 0.0095 0.24247 0.0
O223 O 0.22774 0.00426 0.25646 0.0
C224 C 0.31699 0.88229 0.45759 0.0
O225 O 0.32869 0.80306 0.44432 0.0
O226 O 0.23095 0.83054 0.29228 0.0
O227 O 0.4187 0.80019 0.32194 0.0
O228 O 0.4653 0.81572 0.38222 0.0
C229 C 0.24814 0.77032 0.26865 0.0
O230 O 0.32712 0.76289 0.25445 0.0
O231 O 0.36843 0.96777 0.25905 0.0
C232 C 0.57821 0.06044 0.41998 0.0
O233 O 0.51606 0.11551 0.41106 0.0
O234 O 0.56315 0.97912 0.41906 0.0
O235 O 0.41987 0.02667 0.35686 0.0
O236 O 0.28711 -0.01566 0.34517 0.0
O237 O 0.35812 0.94597 0.44253 0.0
C238 C 0.45756 0.77089 0.35166 0.0
C239 C 0.33991 0.04445 0.35349 0.0
Zn240 Zn 0.19042 0.26523 0.38395 0.0
Zn241 Zn 0.14943 0.36953 0.47602 0.0
C242 C 0.13543 0.39507 0.32573 0.0
O243 O 0.05684 0.38346 0.33974 0.0
C244 C 0.25928 0.40359 0.54082 0.0
O245 O 0.25115 0.48277 0.52695 0.0
O246 O 0.22762 0.14812 0.36403 0.0
O247 O 0.27874 0.29006 0.42579 0.0
O248 O 0.23304 0.42114 0.43792 0.0
C249 C 0.30871 0.13203 0.36259 0.0
O250 O 0.36489 0.19388 0.37057 0.0
O251 O 0.19966 0.35373 0.34018 0.0
C252 C 0.01271 0.44791 0.51211 0.0
O253 O 0.00773 0.36912 0.52669 0.0
O254 O 0.07427 0.46756 0.48954 0.0
O255 O 0.05831 0.2762 0.46249 0.0
O256 O 0.0655 0.25123 0.39951 0.0
O257 O 0.22013 0.34073 0.52414 0.0
C258 C 0.29495 0.36996 0.43041 0.0
C259 C 0.02453 0.24886 0.43125 0.0
Zn260 Zn 0.94715 0.93927 0.13466 0.0
Zn261 Zn 0.8337 0.89832 0.22646 0.0
C262 C 0.817 0.8823 0.07583 0.0
O263 O 0.82872 0.80307 0.08911 0.0
C264 C 0.80697 0.00949 0.29093 0.0
O265 O 0.72765 0.00423 0.27695 0.0
O266 O 0.06314 0.97912 0.11437 0.0
O267 O 0.91981 0.02669 0.17655 0.0
O268 O 0.78705 -0.01567 0.18822 0.0
C269 C 0.07823 0.06043 0.11346 0.0
O270 O 0.01611 0.11553 0.12239 0.0
O271 O 0.85811 0.94599 0.09089 0.0
C272 C 0.74812 0.77034 0.26477 0.0
O273 O 0.82709 0.76297 0.27898 0.0
O274 O 0.73092 0.83053 0.24112 0.0
O275 O 0.91866 0.8002 0.21147 0.0
O276 O 0.96527 0.81573 0.15119 0.0
O277 O 0.86836 0.96778 0.27435 0.0
C278 C 0.83985 0.04445 0.17991 0.0
C279 C 0.95753 0.7709 0.18175 0.0
Zn280 Zn 0.26944 0.69465 0.88396 0.0
Zn281 Zn 0.31043 0.59023 0.97602 0.0
C282 C 0.32445 0.5648 0.82574 0.0
O283 O 0.40304 0.57642 0.83975 0.0
C284 C 0.20056 0.55627 0.04081 0.0
O285 O 0.20867 0.47708 0.02694 0.0
O286 O 0.2322 0.81175 0.86404 0.0
O287 O 0.18113 0.66979 0.9258 0.0
O288 O 0.22681 0.53869 0.93791 0.0
C289 C 0.15111 0.82785 0.8626 0.0
O290 O 0.09493 0.766 0.87059 0.0
O291 O 0.26023 0.60615 0.84019 0.0
C292 C 0.44703 0.51177 1.01214 0.0
O293 O 0.45201 0.59056 0.02672 0.0
O294 O 0.38549 0.49214 0.98956 0.0
O295 O 0.40166 0.68343 0.96248 0.0
O296 O 0.39434 0.70873 0.89952 0.0
O297 O 0.23973 0.61911 0.02413 0.0
C298 C 0.16491 0.58988 0.93041 0.0
C299 C 0.43537 0.71095 0.93125 0.0
Zn300 Zn 0.51268 0.02061 0.63465 0.0
Zn301 Zn 0.62617 0.06156 0.72645 0.0
C302 C 0.64285 0.07758 0.57583 0.0
O303 O 0.63115 0.15681 0.58911 0.0
C304 C 0.65291 0.9504 0.79092 0.0
O305 O 0.73222 0.95565 0.77693 0.0
O306 O 0.3967 -0.01925 0.61437 0.0
O307 O 0.54002 0.93319 0.67655 0.0
O308 O 0.67279 0.97555 0.68821 0.0
C309 C 0.38162 0.89944 0.61345 0.0
O310 O 0.44375 0.84435 0.62238 0.0
O311 O 0.60172 0.0139 0.59089 0.0
C312 C 0.71177 0.18952 0.76476 0.0
O313 O 0.6328 0.19689 0.77897 0.0
O314 O 0.72897 0.12934 0.7411 0.0
O315 O 0.54121 0.15968 0.71146 0.0
O316 O 0.49456 0.14415 0.65119 0.0
O317 O 0.59152 -0.00789 0.77434 0.0
C318 C 0.61998 0.91543 0.67991 0.0
C319 C 0.50232 0.18898 0.68175 0.0
loop_
_geom_bond_atom_site_label_1
_geom_bond_atom_site_label_2
_geom_bond_distance
_geom_bond_site_symmetry_2
_ccdc_geom_bond_type
Zn0 O6 1.969 1_545 S
Zn0 O7 1.965 . S
Zn0 O11 2.024 1_554 S
Zn0 O16 1.969 . S
Zn1 O8 1.969 . S
Zn1 O14 1.969 . S
Zn1 O15 1.965 . S
Zn1 O17 2.024 . S
C2 O3 1.229 . S
C2 O11 1.058 . S
O3 C2 1.229 . S
C4 O5 1.229 . S
C4 O17 1.058 . S
O5 C4 1.229 . S
O6 Zn0 1.969 1_565 S
O6 C9 1.267 . S
O7 Zn0 1.965 . S
O7 C18 1.260 . S
O8 Zn1 1.969 . S
O8 C18 1.258 . S
C9 O6 1.267 . S
C9 O10 1.228 1_564 S
O10 C9 1.228 1_546 S
O11 Zn0 2.024 1_556 S
O11 C2 1.058 . S
C12 O13 1.228 . S
C12 O14 1.267 . S
O13 C12 1.228 . S
O14 Zn1 1.969 . S
O14 C12 1.267 . S
O15 Zn1 1.965 . S
O15 C19 1.260 . S
O16 Zn0 1.969 . S
O16 C19 1.258 . S
O17 Zn1 2.024 . S
O17 C4 1.058 . S
C18 O7 1.260 . S
C18 O8 1.258 . S
C19 O15 1.260 . S
C19 O16 1.258 . S
Zn20 O26 1.969 . S
Zn20 O27 1.965 . S
Zn20 O31 2.024 . S
Zn20 O36 1.969 . S
Zn21 O28 1.969 . S
Zn21 O34 1.969 . S
Zn21 O35 1.965 . S
Zn21 O37 2.024 . S
C22 O23 1.229 . S
C22 O31 1.058 . S
O23 C22 1.229 . S
C24 O25 1.229 . S
C24 O37 1.058 . S
O25 C24 1.229 . S
O26 Zn20 1.969 . S
O26 C29 1.267 . S
O27 Zn20 1.965 . S
O27 C38 1.260 . S
O28 Zn21 1.969 . S
O28 C38 1.258 . S
C29 O26 1.267 . S
C29 O30 1.228 . S
O30 C29 1.228 . S
O31 Zn20 2.024 . S
O31 C22 1.058 . S
C32 O33 1.228 . S
C32 O34 1.267 . S
O33 C32 1.228 . S
O34 Zn21 1.969 . S
O34 C32 1.267 . S
O35 Zn21 1.965 . S
O35 C39 1.260 . S
O36 Zn20 1.969 . S
O36 C39 1.258 . S
O37 Zn21 2.024 . S
O37 C24 1.058 . S
C38 O27 1.260 . S
C38 O28 1.258 . S
C39 O35 1.260 . S
C39 O36 1.258 . S
Zn40 O46 1.969 1_565 S
Zn40 O47 1.965 . S
Zn40 O51 2.024 . S
Zn40 O56 1.969 . S
Zn41 O48 1.969 . S
Zn41 O54 1.969 . S
Zn41 O55 1.965 . S
Zn41 O57 2.024 . S
C42 O43 1.229 . S
C42 O51 1.058 . S
O43 C42 1.229 . S
C44 O45 1.229 . S
C44 O57 1.058 . S
O45 C44 1.229 . S
O46 Zn40 1.969 1_545 S
O46 C49 1.267 . S
O47 Zn40 1.965 . S
O47 C58 1.260 . S
O48 Zn41 1.969 . S
O48 C58 1.258 . S
C49 O46 1.267 . S
C49 O50 1.228 1_545 S
O50 C49 1.228 1_565 S
O51 Zn40 2.024 . S
O51 C42 1.058 . S
C52 O53 1.228 . S
C52 O54 1.267 . S
O53 C52 1.228 . S
O54 Zn41 1.969 . S
O54 C52 1.267 . S
O55 Zn41 1.965 . S
O55 C59 1.260 . S
O56 Zn40 1.969 . S
O56 C59 1.258 . S
O57 Zn41 2.024 . S
O57 C44 1.058 . S
C58 O47 1.260 . S
C58 O48 1.258 . S
C59 O55 1.260 . S
C59 O56 1.258 . S
Zn60 O66 1.969 . S
Zn60 O67 1.965 . S
Zn60 O71 2.024 . S
Zn60 O76 1.969 . S
Zn61 O68 1.969 1_655 S
Zn61 O74 1.969 1_655 S
Zn61 O75 1.965 . S
Zn61 O77 2.024 . S
C62 O63 1.229 . S
C62 O71 1.058 . S
O63 C62 1.229 . S
C64 O65 1.229 1_655 S
C64 O77 1.058 . S
O65 C64 1.229 1_455 S
O66 Zn60 1.969 . S
O66 C69 1.267 . S
O67 Zn60 1.965 . S
O67 C78 1.260 . S
O68 Zn61 1.969 1_455 S
O68 C78 1.258 1_455 S
C69 O66 1.267 . S
C69 O70 1.228 . S
O70 C69 1.228 . S
O71 Zn60 2.024 . S
O71 C62 1.058 . S
C72 O73 1.228 . S
C72 O74 1.267 . S
O73 C72 1.228 . S
O74 Zn61 1.969 1_455 S
O74 C72 1.267 . S
O75 Zn61 1.965 . S
O75 C79 1.260 . S
O76 Zn60 1.969 . S
O76 C79 1.258 . S
O77 Zn61 2.024 . S
O77 C64 1.058 . S
C78 O67 1.260 . S
C78 O68 1.258 1_655 S
C79 O75 1.260 . S
C79 O76 1.258 . S
Zn80 O86 1.969 . S
Zn80 O87 1.965 . S
Zn80 O91 2.024 . S
Zn80 O96 1.969 . S
Zn81 O88 1.969 . S
Zn81 O94 1.969 1_565 S
Zn81 O95 1.965 . S
Zn81 O97 2.024 1_556 S
C82 O83 1.229 . S
C82 O91 1.058 . S
O83 C82 1.229 . S
C84 O85 1.229 . S
C84 O97 1.058 . S
O85 C84 1.229 . S
O86 Zn80 1.969 . S
O86 C89 1.267 . S
O87 Zn80 1.965 . S
O87 C98 1.260 . S
O88 Zn81 1.969 . S
O88 C98 1.258 . S
C89 O86 1.267 . S
C89 O90 1.228 . S
O90 C89 1.228 . S
O91 Zn80 2.024 . S
O91 C82 1.058 . S
C92 O93 1.228 1_546 S
C92 O94 1.267 . S
O93 C92 1.228 1_564 S
O94 Zn81 1.969 1_545 S
O94 C92 1.267 . S
O95 Zn81 1.965 . S
O95 C99 1.260 . S
O96 Zn80 1.969 . S
O96 C99 1.258 . S
O97 Zn81 2.024 1_554 S
O97 C84 1.058 . S
C98 O87 1.260 . S
C98 O88 1.258 . S
C99 O95 1.260 . S
C99 O96 1.258 . S
Zn100 O106 1.969 . S
Zn100 O107 1.965 . S
Zn100 O111 2.024 . S
Zn100 O116 1.969 . S
Zn101 O108 1.969 . S
Zn101 O114 1.969 . S
Zn101 O115 1.965 . S
Zn101 O117 2.024 . S
C102 O103 1.229 . S
C102 O111 1.058 . S
O103 C102 1.229 . S
C104 O105 1.229 . S
C104 O117 1.058 . S
O105 C104 1.229 . S
O106 Zn100 1.969 . S
O106 C109 1.267 . S
O107 Zn100 1.965 . S
O107 C118 1.260 . S
O108 Zn101 1.969 . S
O108 C118 1.258 . S
C109 O106 1.267 . S
C109 O110 1.228 . S
O110 C109 1.228 . S
O111 Zn100 2.024 . S
O111 C102 1.058 . S
C112 O113 1.228 . S
C112 O114 1.267 . S
O113 C112 1.228 . S
O114 Zn101 1.969 . S
O114 C112 1.267 . S
O115 Zn101 1.965 . S
O115 C119 1.260 . S
O116 Zn100 1.969 . S
O116 C119 1.258 . S
O117 Zn101 2.024 . S
O117 C104 1.058 . S
C118 O107 1.260 . S
C118 O108 1.258 . S
C119 O115 1.260 . S
C119 O116 1.258 . S
Zn120 O126 1.969 . S
Zn120 O127 1.965 . S
Zn120 O131 2.024 . S
Zn120 O136 1.969 . S
Zn121 O128 1.969 . S
Zn121 O134 1.969 1_545 S
Zn121 O135 1.965 . S
Zn121 O137 2.024 . S
C122 O123 1.229 . S
C122 O131 1.058 . S
O123 C122 1.229 . S
C124 O125 1.229 . S
C124 O137 1.058 . S
O125 C124 1.229 . S
O126 Zn120 1.969 . S
O126 C129 1.267 . S
O127 Zn120 1.965 . S
O127 C138 1.260 . S
O128 Zn121 1.969 . S
O128 C138 1.258 . S
C129 O126 1.267 . S
C129 O130 1.228 . S
O130 C129 1.228 . S
O131 Zn120 2.024 . S
O131 C122 1.058 . S
C132 O133 1.228 1_565 S
C132 O134 1.267 . S
O133 C132 1.228 1_545 S
O134 Zn121 1.969 1_565 S
O134 C132 1.267 . S
O135 Zn121 1.965 . S
O135 C139 1.260 . S
O136 Zn120 1.969 . S
O136 C139 1.258 . S
O137 Zn121 2.024 . S
O137 C124 1.058 . S
C138 O127 1.260 . S
C138 O128 1.258 . S
C139 O135 1.260 . S
C139 O136 1.258 . S
Zn140 O146 1.969 1_455 S
Zn140 O147 1.965 . S
Zn140 O151 2.024 . S
Zn140 O156 1.969 1_455 S
Zn141 O148 1.969 . S
Zn141 O154 1.969 . S
Zn141 O155 1.965 . S
Zn141 O157 2.024 . S
C142 O143 1.229 1_455 S
C142 O151 1.058 . S
O143 C142 1.229 1_655 S
C144 O145 1.229 . S
C144 O157 1.058 . S
O145 C144 1.229 . S
O146 Zn140 1.969 1_655 S
O146 C149 1.267 . S
O147 Zn140 1.965 . S
O147 C158 1.260 . S
O148 Zn141 1.969 . S
O148 C158 1.258 . S
C149 O146 1.267 . S
C149 O150 1.228 . S
O150 C149 1.228 . S
O151 Zn140 2.024 . S
O151 C142 1.058 . S
C152 O153 1.228 . S
C152 O154 1.267 . S
O153 C152 1.228 . S
O154 Zn141 1.969 . S
O154 C152 1.267 . S
O155 Zn141 1.965 . S
O155 C159 1.260 . S
O156 Zn140 1.969 1_655 S
O156 C159 1.258 1_655 S
O157 Zn141 2.024 . S
O157 C144 1.058 . S
C158 O147 1.260 . S
C158 O148 1.258 . S
C159 O155 1.260 . S
C159 O156 1.258 1_455 S
Zn160 O166 1.969 . S
Zn160 O167 1.965 . S
Zn160 O171 2.024 . S
Zn160 O176 1.969 . S
Zn161 O168 1.969 . S
Zn161 O174 1.969 . S
Zn161 O175 1.965 . S
Zn161 O177 2.024 . S
C162 O163 1.229 . S
C162 O171 1.058 . S
O163 C162 1.229 . S
C164 O165 1.229 . S
C164 O177 1.058 . S
O165 C164 1.229 . S
O166 Zn160 1.969 . S
O166 C169 1.267 . S
O167 Zn160 1.965 . S
O167 C178 1.260 . S
O168 Zn161 1.969 . S
O168 C178 1.258 . S
C169 O166 1.267 . S
C169 O170 1.228 . S
O170 C169 1.228 . S
O171 Zn160 2.024 . S
O171 C162 1.058 . S
C172 O173 1.228 . S
C172 O174 1.267 . S
O173 C172 1.228 . S
O174 Zn161 1.969 . S
O174 C172 1.267 . S
O175 Zn161 1.965 . S
O175 C179 1.260 . S
O176 Zn160 1.969 . S
O176 C179 1.258 . S
O177 Zn161 2.024 . S
O177 C164 1.058 . S
C178 O167 1.260 . S
C178 O168 1.258 . S
C179 O175 1.260 . S
C179 O176 1.258 . S
Zn180 O186 1.969 . S
Zn180 O187 1.965 . S
Zn180 O191 2.024 . S
Zn180 O196 1.969 1_545 S
Zn181 O188 1.969 1_455 S
Zn181 O194 1.969 1_445 S
Zn181 O195 1.965 1_545 S
Zn181 O197 2.024 . S
C182 O183 1.228 1_545 S
C182 O191 1.058 . S
O183 C182 1.228 1_565 S
C184 O185 1.229 1_455 S
C184 O197 1.058 . S
O185 C184 1.229 1_655 S
O186 Zn180 1.969 . S
O186 C189 1.267 . S
O187 Zn180 1.965 . S
O187 C198 1.260 . S
O188 Zn181 1.969 1_655 S
O188 C198 1.258 1_655 S
C189 O186 1.267 . S
C189 O190 1.228 . S
O190 C189 1.228 . S
O191 Zn180 2.024 . S
O191 C182 1.058 . S
C192 O193 1.228 . S
C192 O194 1.267 . S
O193 C192 1.228 . S
O194 Zn181 1.969 1_665 S
O194 C192 1.267 . S
O195 Zn181 1.965 1_565 S
O195 C199 1.260 . S
O196 Zn180 1.969 1_565 S
O196 C199 1.258 . S
O197 Zn181 2.024 . S
O197 C184 1.058 . S
C198 O187 1.260 . S
C198 O188 1.258 1_455 S
C199 O195 1.260 . S
C199 O196 1.258 . S
Zn200 O206 1.969 . S
Zn200 O207 1.965 . S
Zn200 O211 2.024 1_554 S
Zn200 O216 1.969 . S
Zn201 O208 1.969 . S
Zn201 O214 1.969 . S
Zn201 O215 1.965 . S
Zn201 O217 2.024 . S
C202 O203 1.229 . S
C202 O211 1.058 . S
O203 C202 1.229 . S
C204 O205 1.229 . S
C204 O217 1.058 . S
O205 C204 1.229 . S
O206 Zn200 1.969 . S
O206 C209 1.267 . S
O207 Zn200 1.965 . S
O207 C218 1.260 . S
O208 Zn201 1.969 . S
O208 C218 1.258 . S
C209 O206 1.267 . S
C209 O210 1.228 1_554 S
O210 C209 1.228 1_556 S
O211 Zn200 2.024 1_556 S
O211 C202 1.058 . S
C212 O213 1.228 . S
C212 O214 1.267 . S
O213 C212 1.228 . S
O214 Zn201 1.969 . S
O214 C212 1.267 . S
O215 Zn201 1.965 . S
O215 C219 1.260 . S
O216 Zn200 1.969 . S
O216 C219 1.258 . S
O217 Zn201 2.024 . S
O217 C204 1.058 . S
C218 O207 1.260 . S
C218 O208 1.258 . S
C219 O215 1.260 . S
C219 O216 1.258 . S
Zn220 O226 1.969 . S
Zn220 O227 1.965 . S
Zn220 O231 2.024 . S
Zn220 O236 1.969 1_565 S
Zn221 O228 1.969 . S
Zn221 O234 1.969 1_565 S
Zn221 O235 1.965 1_565 S
Zn221 O237 2.024 . S
C222 O223 1.228 1_565 S
C222 O231 1.058 . S
O223 C222 1.228 1_545 S
C224 O225 1.229 . S
C224 O237 1.058 . S
O225 C224 1.229 . S
O226 Zn220 1.969 . S
O226 C229 1.267 . S
O227 Zn220 1.965 . S
O227 C238 1.260 . S
O228 Zn221 1.969 . S
O228 C238 1.258 . S
C229 O226 1.267 . S
C229 O230 1.228 . S
O230 C229 1.228 . S
O231 Zn220 2.024 . S
O231 C222 1.058 . S
C232 O233 1.228 . S
C232 O234 1.267 . S
O233 C232 1.228 . S
O234 Zn221 1.969 1_545 S
O234 C232 1.267 . S
O235 Zn221 1.965 1_545 S
O235 C239 1.260 . S
O236 Zn220 1.969 1_545 S
O236 C239 1.258 . S
O237 Zn221 2.024 . S
O237 C224 1.058 . S
C238 O227 1.260 . S
C238 O228 1.258 . S
C239 O235 1.260 . S
C239 O236 1.258 . S
Zn240 O246 1.969 . S
Zn240 O247 1.965 . S
Zn240 O251 2.024 . S
Zn240 O256 1.969 . S
Zn241 O248 1.969 . S
Zn241 O254 1.969 . S
Zn241 O255 1.965 . S
Zn241 O257 2.024 . S
C242 O243 1.229 . S
C242 O251 1.058 . S
O243 C242 1.229 . S
C244 O245 1.229 . S
C244 O257 1.058 . S
O245 C244 1.229 . S
O246 Zn240 1.969 . S
O246 C249 1.267 . S
O247 Zn240 1.965 . S
O247 C258 1.260 . S
O248 Zn241 1.969 . S
O248 C258 1.258 . S
C249 O246 1.267 . S
C249 O250 1.228 . S
O250 C249 1.228 . S
O251 Zn240 2.024 . S
O251 C242 1.058 . S
C252 O253 1.228 . S
C252 O254 1.267 . S
O253 C252 1.228 . S
O254 Zn241 1.969 . S
O254 C252 1.267 . S
O255 Zn241 1.965 . S
O255 C259 1.260 . S
O256 Zn240 1.969 . S
O256 C259 1.258 . S
O257 Zn241 2.024 . S
O257 C244 1.058 . S
C258 O247 1.260 . S
C258 O248 1.258 . S
C259 O255 1.260 . S
C259 O256 1.258 . S
Zn260 O266 1.969 1_665 S
Zn260 O267 1.965 1_565 S
Zn260 O271 2.024 . S
Zn260 O276 1.969 1_655 S
Zn261 O268 1.969 1_565 S
Zn261 O274 1.969 . S
Zn261 O275 1.965 . S
Zn261 O277 2.024 . S
C262 O263 1.229 1_655 S
C262 O271 1.058 . S
O263 C262 1.229 1_455 S
C264 O265 1.228 1_565 S
C264 O277 1.058 . S
O265 C264 1.228 1_545 S
O266 Zn260 1.969 1_445 S
O266 C269 1.267 . S
O267 Zn260 1.965 1_545 S
O267 C278 1.260 . S
O268 Zn261 1.969 1_545 S
O268 C278 1.258 . S
C269 O266 1.267 . S
C269 O270 1.228 . S
O270 C269 1.228 . S
O271 Zn260 2.024 . S
O271 C262 1.058 . S
C272 O273 1.228 . S
C272 O274 1.267 . S
O273 C272 1.228 . S
O274 Zn261 1.969 . S
O274 C272 1.267 . S
O275 Zn261 1.965 . S
O275 C279 1.260 . S
O276 Zn260 1.969 1_455 S
O276 C279 1.258 1_455 S
O277 Zn261 2.024 . S
O277 C264 1.058 . S
C278 O267 1.260 . S
C278 O268 1.258 . S
C279 O275 1.260 . S
C279 O276 1.258 1_655 S
Zn280 O286 1.969 . S
Zn280 O287 1.965 . S
Zn280 O291 2.024 . S
Zn280 O296 1.969 . S
Zn281 O288 1.969 . S
Zn281 O294 1.969 . S
Zn281 O295 1.965 . S
Zn281 O297 2.024 1_556 S
C282 O283 1.229 . S
C282 O291 1.058 . S
O283 C282 1.229 . S
C284 O285 1.229 . S
C284 O297 1.058 . S
O285 C284 1.229 . S
O286 Zn280 1.969 . S
O286 C289 1.267 . S
O287 Zn280 1.965 . S
O287 C298 1.260 . S
O288 Zn281 1.969 . S
O288 C298 1.258 . S
C289 O286 1.267 . S
C289 O290 1.228 . S
O290 C289 1.228 . S
O291 Zn280 2.024 . S
O291 C282 1.058 . S
C292 O293 1.228 1_556 S
C292 O294 1.267 . S
O293 C292 1.228 1_554 S
O294 Zn281 1.969 . S
O294 C292 1.267 . S
O295 Zn281 1.965 . S
O295 C299 1.260 . S
O296 Zn280 1.969 . S
O296 C299 1.258 . S
O297 Zn281 2.024 1_554 S
O297 C284 1.058 . S
C298 O287 1.260 . S
C298 O288 1.258 . S
C299 O295 1.260 . S
C299 O296 1.258 . S
Zn300 O306 1.969 1_545 S
Zn300 O307 1.965 1_545 S
Zn300 O311 2.024 . S
Zn300 O316 1.969 . S
Zn301 O308 1.969 1_545 S
Zn301 O314 1.969 . S
Zn301 O315 1.965 . S
Zn301 O317 2.024 . S
C302 O303 1.229 . S
C302 O311 1.058 . S
O303 C302 1.229 . S
C304 O305 1.228 1_545 S
C304 O317 1.058 . S
O305 C304 1.228 1_565 S
O306 Zn300 1.969 1_565 S
O306 C309 1.267 . S
O307 Zn300 1.965 1_565 S
O307 C318 1.260 . S
O308 Zn301 1.969 1_565 S
O308 C318 1.258 . S
C309 O306 1.267 . S
C309 O310 1.228 . S
O310 C309 1.228 . S
O311 Zn300 2.024 . S
O311 C302 1.058 . S
C312 O313 1.228 . S
C312 O314 1.267 . S
O313 C312 1.228 . S
O314 Zn301 1.969 . S
O314 C312 1.267 . S
O315 Zn301 1.965 . S
O315 C319 1.260 . S
O316 Zn300 1.969 . S
O316 C319 1.258 . S
O317 Zn301 2.024 . S
O317 C304 1.058 . S
C318 O307 1.260 . S
C318 O308 1.258 . S
C319 O315 1.260 . S
C319 O316 1.258 . S
C18 C218 1.924 . S
C38 C238 1.924 . S
C58 C178 1.924 1_455 S
C198 C78 1.924 1_455 S
C99 C299 1.924 . S
C319 C119 1.924 . S
C259 C139 1.924 1_455 S
C159 C279 1.924 1_455 S
C9 C92 1.628 1_564 S
C29 C272 1.628 . S
C49 C132 1.628 1_445 S
C69 C312 1.628 . S
C112 C189 1.628 . S
C229 C152 1.628 . S
C252 C169 1.628 1_455 S
C209 C292 1.628 1_554 S
C12 C158 1.345 . S
C32 C258 1.345 . S
C52 C118 1.345 . S
C72 C298 1.345 . S
C79 C89 1.345 . S
C109 C179 1.345 . S
C129 C39 1.345 . S
C219 C149 1.345 . S
C172 C318 1.345 . S
C98 C192 1.345 . S
C278 C212 1.345 . S
C138 C232 1.345 . S
C249 C239 1.345 . S
C269 C19 1.345 . S
C199 C289 1.345 . S
C309 C59 1.345 . S
C2 C184 3.090 . S
C204 C22 3.090 . S
C42 C224 3.090 . S
C164 C62 3.090 . S
C262 C84 3.090 . S
C282 C104 3.090 . S
C302 C124 3.090 . S
C242 C144 3.090 . S
C24 C162 3.090 . S
C44 C182 3.090 1_565 S
C64 C202 3.090 . S
C222 C4 3.090 1_565 S
C102 C244 3.090 . S
C122 C264 3.090 1_545 S
C142 C284 3.090 . S
C82 C304 3.090 1_565 S
