# Generated by pormake.
# Topology ubt, (5)-cn, num edge types: 1
# Building blocks:
#     Node 0, Type 0, BuildingBlock: XOMCOT_clean_sbu_1, # of connection points: 5
#     Node 1, Type 0, BuildingBlock: XOMCOT_clean_sbu_1, # of connection points: 5
#     Node 2, Type 0, BuildingBlock: XOMCOT_clean_sbu_1, # of connection points: 5
#     Node 3, Type 0, BuildingBlock: XOMCOT_clean_sbu_1, # of connection points: 5
#     Node 4, Type 0, BuildingBlock: XOMCOT_clean_sbu_1, # of connection points: 5
#     Node 5, Type 0, BuildingBlock: XOMCOT_clean_sbu_1, # of connection points: 5
#     Node 6, Type 0, BuildingBlock: XOMCOT_clean_sbu_1, # of connection points: 5
#     Node 7, Type 0, BuildingBlock: XOMCOT_clean_sbu_1, # of connection points: 5
#     Node 8, Type 0, BuildingBlock: XOMCOT_clean_sbu_1, # of connection points: 5
#     Node 9, Type 0, BuildingBlock: XOMCOT_clean_sbu_1, # of connection points: 5
#     Node 10, Type 0, BuildingBlock: XOMCOT_clean_sbu_1, # of connection points: 5
#     Node 11, Type 0, BuildingBlock: XOMCOT_clean_sbu_1, # of connection points: 5
#     Node 12, Type 0, BuildingBlock: XOMCOT_clean_sbu_1, # of connection points: 5
#     Node 13, Type 0, BuildingBlock: XOMCOT_clean_sbu_1, # of connection points: 5
#     Node 14, Type 0, BuildingBlock: XOMCOT_clean_sbu_1, # of connection points: 5
#     Node 15, Type 0, BuildingBlock: XOMCOT_clean_sbu_1, # of connection points: 5
#     Node 16, Type 0, BuildingBlock: XOMCOT_clean_sbu_1, # of connection points: 5
#     Node 17, Type 0, BuildingBlock: XOMCOT_clean_sbu_1, # of connection points: 5
#     Node 18, Type 0, BuildingBlock: XOMCOT_clean_sbu_1, # of connection points: 5
#     Node 19, Type 0, BuildingBlock: XOMCOT_clean_sbu_1, # of connection points: 5
#     Node 20, Type 0, BuildingBlock: XOMCOT_clean_sbu_1, # of connection points: 5
#     Node 21, Type 0, BuildingBlock: XOMCOT_clean_sbu_1, # of connection points: 5
#     Node 22, Type 0, BuildingBlock: XOMCOT_clean_sbu_1, # of connection points: 5
#     Node 23, Type 0, BuildingBlock: XOMCOT_clean_sbu_1, # of connection points: 5
#     Node 24, Type 0, BuildingBlock: XOMCOT_clean_sbu_1, # of connection points: 5
#     Node 25, Type 0, BuildingBlock: XOMCOT_clean_sbu_1, # of connection points: 5
#     Node 26, Type 0, BuildingBlock: XOMCOT_clean_sbu_1, # of connection points: 5
#     Node 27, Type 0, BuildingBlock: XOMCOT_clean_sbu_1, # of connection points: 5
#     Node 28, Type 0, BuildingBlock: XOMCOT_clean_sbu_1, # of connection points: 5
#     Node 29, Type 0, BuildingBlock: XOMCOT_clean_sbu_1, # of connection points: 5
#     Node 30, Type 0, BuildingBlock: XOMCOT_clean_sbu_1, # of connection points: 5
#     Node 31, Type 0, BuildingBlock: XOMCOT_clean_sbu_1, # of connection points: 5
#     Node 32, Type 0, BuildingBlock: XOMCOT_clean_sbu_1, # of connection points: 5
#     Node 33, Type 0, BuildingBlock: XOMCOT_clean_sbu_1, # of connection points: 5
#     Node 34, Type 0, BuildingBlock: XOMCOT_clean_sbu_1, # of connection points: 5
#     Node 35, Type 0, BuildingBlock: XOMCOT_clean_sbu_1, # of connection points: 5
#     Node 36, Type 0, BuildingBlock: XOMCOT_clean_sbu_1, # of connection points: 5
#     Node 37, Type 0, BuildingBlock: XOMCOT_clean_sbu_1, # of connection points: 5
#     Node 38, Type 0, BuildingBlock: XOMCOT_clean_sbu_1, # of connection points: 5
#     Node 39, Type 0, BuildingBlock: XOMCOT_clean_sbu_1, # of connection points: 5
#     Node 40, Type 0, BuildingBlock: XOMCOT_clean_sbu_1, # of connection points: 5
#     Node 41, Type 0, BuildingBlock: XOMCOT_clean_sbu_1, # of connection points: 5
#     Node 42, Type 0, BuildingBlock: XOMCOT_clean_sbu_1, # of connection points: 5
#     Node 43, Type 0, BuildingBlock: XOMCOT_clean_sbu_1, # of connection points: 5
#     Node 44, Type 0, BuildingBlock: XOMCOT_clean_sbu_1, # of connection points: 5
#     Node 45, Type 0, BuildingBlock: XOMCOT_clean_sbu_1, # of connection points: 5
#     Node 46, Type 0, BuildingBlock: XOMCOT_clean_sbu_1, # of connection points: 5
#     Node 47, Type 0, BuildingBlock: XOMCOT_clean_sbu_1, # of connection points: 5
#     Edge 48, Type (0, 0), BuildingBlock: EZIPEK_clean_linker_0, # of connection points: 2
#     Edge 49, Type (0, 0), BuildingBlock: EZIPEK_clean_linker_0, # of connection points: 2
#     Edge 50, Type (0, 0), BuildingBlock: EZIPEK_clean_linker_0, # of connection points: 2
#     Edge 51, Type (0, 0), BuildingBlock: EZIPEK_clean_linker_0, # of connection points: 2
#     Edge 52, Type (0, 0), BuildingBlock: EZIPEK_clean_linker_0, # of connection points: 2
#     Edge 53, Type (0, 0), BuildingBlock: EZIPEK_clean_linker_0, # of connection points: 2
#     Edge 54, Type (0, 0), BuildingBlock: EZIPEK_clean_linker_0, # of connection points: 2
#     Edge 55, Type (0, 0), BuildingBlock: EZIPEK_clean_linker_0, # of connection points: 2
#     Edge 56, Type (0, 0), BuildingBlock: EZIPEK_clean_linker_0, # of connection points: 2
#     Edge 57, Type (0, 0), BuildingBlock: EZIPEK_clean_linker_0, # of connection points: 2
#     Edge 58, Type (0, 0), BuildingBlock: EZIPEK_clean_linker_0, # of connection points: 2
#     Edge 59, Type (0, 0), BuildingBlock: EZIPEK_clean_linker_0, # of connection points: 2
#     Edge 60, Type (0, 0), BuildingBlock: EZIPEK_clean_linker_0, # of connection points: 2
#     Edge 61, Type (0, 0), BuildingBlock: EZIPEK_clean_linker_0, # of connection points: 2
#     Edge 62, Type (0, 0), BuildingBlock: EZIPEK_clean_linker_0, # of connection points: 2
#     Edge 63, Type (0, 0), BuildingBlock: EZIPEK_clean_linker_0, # of connection points: 2
#     Edge 64, Type (0, 0), BuildingBlock: EZIPEK_clean_linker_0, # of connection points: 2
#     Edge 65, Type (0, 0), BuildingBlock: EZIPEK_clean_linker_0, # of connection points: 2
#     Edge 66, Type (0, 0), BuildingBlock: EZIPEK_clean_linker_0, # of connection points: 2
#     Edge 67, Type (0, 0), BuildingBlock: EZIPEK_clean_linker_0, # of connection points: 2
#     Edge 68, Type (0, 0), BuildingBlock: EZIPEK_clean_linker_0, # of connection points: 2
#     Edge 69, Type (0, 0), BuildingBlock: EZIPEK_clean_linker_0, # of connection points: 2
#     Edge 70, Type (0, 0), BuildingBlock: EZIPEK_clean_linker_0, # of connection points: 2
#     Edge 71, Type (0, 0), BuildingBlock: EZIPEK_clean_linker_0, # of connection points: 2
#     Edge 72, Type (0, 0), BuildingBlock: EZIPEK_clean_linker_0, # of connection points: 2
#     Edge 73, Type (0, 0), BuildingBlock: EZIPEK_clean_linker_0, # of connection points: 2
#     Edge 74, Type (0, 0), BuildingBlock: EZIPEK_clean_linker_0, # of connection points: 2
#     Edge 75, Type (0, 0), BuildingBlock: EZIPEK_clean_linker_0, # of connection points: 2
#     Edge 76, Type (0, 0), BuildingBlock: EZIPEK_clean_linker_0, # of connection points: 2
#     Edge 77, Type (0, 0), BuildingBlock: EZIPEK_clean_linker_0, # of connection points: 2
#     Edge 78, Type (0, 0), BuildingBlock: EZIPEK_clean_linker_0, # of connection points: 2
#     Edge 79, Type (0, 0), BuildingBlock: EZIPEK_clean_linker_0, # of connection points: 2
#     Edge 80, Type (0, 0), BuildingBlock: EZIPEK_clean_linker_0, # of connection points: 2
#     Edge 81, Type (0, 0), BuildingBlock: EZIPEK_clean_linker_0, # of connection points: 2
#     Edge 82, Type (0, 0), BuildingBlock: EZIPEK_clean_linker_0, # of connection points: 2
#     Edge 83, Type (0, 0), BuildingBlock: EZIPEK_clean_linker_0, # of connection points: 2
#     Edge 84, Type (0, 0), BuildingBlock: EZIPEK_clean_linker_0, # of connection points: 2
#     Edge 85, Type (0, 0), BuildingBlock: EZIPEK_clean_linker_0, # of connection points: 2
#     Edge 86, Type (0, 0), BuildingBlock: EZIPEK_clean_linker_0, # of connection points: 2
#     Edge 87, Type (0, 0), BuildingBlock: EZIPEK_clean_linker_0, # of connection points: 2
#     Edge 88, Type (0, 0), BuildingBlock: EZIPEK_clean_linker_0, # of connection points: 2
#     Edge 89, Type (0, 0), BuildingBlock: EZIPEK_clean_linker_0, # of connection points: 2
#     Edge 90, Type (0, 0), BuildingBlock: EZIPEK_clean_linker_0, # of connection points: 2
#     Edge 91, Type (0, 0), BuildingBlock: EZIPEK_clean_linker_0, # of connection points: 2
#     Edge 92, Type (0, 0), BuildingBlock: EZIPEK_clean_linker_0, # of connection points: 2
#     Edge 93, Type (0, 0), BuildingBlock: EZIPEK_clean_linker_0, # of connection points: 2
#     Edge 94, Type (0, 0), BuildingBlock: EZIPEK_clean_linker_0, # of connection points: 2
#     Edge 95, Type (0, 0), BuildingBlock: EZIPEK_clean_linker_0, # of connection points: 2
#     Edge 96, Type (0, 0), BuildingBlock: EZIPEK_clean_linker_0, # of connection points: 2
#     Edge 97, Type (0, 0), BuildingBlock: EZIPEK_clean_linker_0, # of connection points: 2
#     Edge 98, Type (0, 0), BuildingBlock: EZIPEK_clean_linker_0, # of connection points: 2
#     Edge 99, Type (0, 0), BuildingBlock: EZIPEK_clean_linker_0, # of connection points: 2
#     Edge 100, Type (0, 0), BuildingBlock: EZIPEK_clean_linker_0, # of connection points: 2
#     Edge 101, Type (0, 0), BuildingBlock: EZIPEK_clean_linker_0, # of connection points: 2
#     Edge 102, Type (0, 0), BuildingBlock: EZIPEK_clean_linker_0, # of connection points: 2
#     Edge 103, Type (0, 0), BuildingBlock: EZIPEK_clean_linker_0, # of connection points: 2
#     Edge 104, Type (0, 0), BuildingBlock: EZIPEK_clean_linker_0, # of connection points: 2
#     Edge 105, Type (0, 0), BuildingBlock: EZIPEK_clean_linker_0, # of connection points: 2
#     Edge 106, Type (0, 0), BuildingBlock: EZIPEK_clean_linker_0, # of connection points: 2
#     Edge 107, Type (0, 0), BuildingBlock: EZIPEK_clean_linker_0, # of connection points: 2
#     Edge 108, Type (0, 0), BuildingBlock: EZIPEK_clean_linker_0, # of connection points: 2
#     Edge 109, Type (0, 0), BuildingBlock: EZIPEK_clean_linker_0, # of connection points: 2
#     Edge 110, Type (0, 0), BuildingBlock: EZIPEK_clean_linker_0, # of connection points: 2
#     Edge 111, Type (0, 0), BuildingBlock: EZIPEK_clean_linker_0, # of connection points: 2
#     Edge 112, Type (0, 0), BuildingBlock: EZIPEK_clean_linker_0, # of connection points: 2
#     Edge 113, Type (0, 0), BuildingBlock: EZIPEK_clean_linker_0, # of connection points: 2
#     Edge 114, Type (0, 0), BuildingBlock: EZIPEK_clean_linker_0, # of connection points: 2
#     Edge 115, Type (0, 0), BuildingBlock: EZIPEK_clean_linker_0, # of connection points: 2
#     Edge 116, Type (0, 0), BuildingBlock: EZIPEK_clean_linker_0, # of connection points: 2
#     Edge 117, Type (0, 0), BuildingBlock: EZIPEK_clean_linker_0, # of connection points: 2
#     Edge 118, Type (0, 0), BuildingBlock: EZIPEK_clean_linker_0, # of connection points: 2
#     Edge 119, Type (0, 0), BuildingBlock: EZIPEK_clean_linker_0, # of connection points: 2
#     Edge 120, Type (0, 0), BuildingBlock: EZIPEK_clean_linker_0, # of connection points: 2
#     Edge 121, Type (0, 0), BuildingBlock: EZIPEK_clean_linker_0, # of connection points: 2
#     Edge 122, Type (0, 0), BuildingBlock: EZIPEK_clean_linker_0, # of connection points: 2
#     Edge 123, Type (0, 0), BuildingBlock: EZIPEK_clean_linker_0, # of connection points: 2
#     Edge 124, Type (0, 0), BuildingBlock: EZIPEK_clean_linker_0, # of connection points: 2
#     Edge 125, Type (0, 0), BuildingBlock: EZIPEK_clean_linker_0, # of connection points: 2
#     Edge 126, Type (0, 0), BuildingBlock: EZIPEK_clean_linker_0, # of connection points: 2
#     Edge 127, Type (0, 0), BuildingBlock: EZIPEK_clean_linker_0, # of connection points: 2
#     Edge 128, Type (0, 0), BuildingBlock: EZIPEK_clean_linker_0, # of connection points: 2
#     Edge 129, Type (0, 0), BuildingBlock: EZIPEK_clean_linker_0, # of connection points: 2
#     Edge 130, Type (0, 0), BuildingBlock: EZIPEK_clean_linker_0, # of connection points: 2
#     Edge 131, Type (0, 0), BuildingBlock: EZIPEK_clean_linker_0, # of connection points: 2
#     Edge 132, Type (0, 0), BuildingBlock: EZIPEK_clean_linker_0, # of connection points: 2
#     Edge 133, Type (0, 0), BuildingBlock: EZIPEK_clean_linker_0, # of connection points: 2
#     Edge 134, Type (0, 0), BuildingBlock: EZIPEK_clean_linker_0, # of connection points: 2
#     Edge 135, Type (0, 0), BuildingBlock: EZIPEK_clean_linker_0, # of connection points: 2
#     Edge 136, Type (0, 0), BuildingBlock: EZIPEK_clean_linker_0, # of connection points: 2
#     Edge 137, Type (0, 0), BuildingBlock: EZIPEK_clean_linker_0, # of connection points: 2
#     Edge 138, Type (0, 0), BuildingBlock: EZIPEK_clean_linker_0, # of connection points: 2
#     Edge 139, Type (0, 0), BuildingBlock: EZIPEK_clean_linker_0, # of connection points: 2
#     Edge 140, Type (0, 0), BuildingBlock: EZIPEK_clean_linker_0, # of connection points: 2
#     Edge 141, Type (0, 0), BuildingBlock: EZIPEK_clean_linker_0, # of connection points: 2
#     Edge 142, Type (0, 0), BuildingBlock: EZIPEK_clean_linker_0, # of connection points: 2
#     Edge 143, Type (0, 0), BuildingBlock: EZIPEK_clean_linker_0, # of connection points: 2
#     Edge 144, Type (0, 0), BuildingBlock: EZIPEK_clean_linker_0, # of connection points: 2
#     Edge 145, Type (0, 0), BuildingBlock: EZIPEK_clean_linker_0, # of connection points: 2
#     Edge 146, Type (0, 0), BuildingBlock: EZIPEK_clean_linker_0, # of connection points: 2
#     Edge 147, Type (0, 0), BuildingBlock: EZIPEK_clean_linker_0, # of connection points: 2
#     Edge 148, Type (0, 0), BuildingBlock: EZIPEK_clean_linker_0, # of connection points: 2
#     Edge 149, Type (0, 0), BuildingBlock: EZIPEK_clean_linker_0, # of connection points: 2
#     Edge 150, Type (0, 0), BuildingBlock: EZIPEK_clean_linker_0, # of connection points: 2
#     Edge 151, Type (0, 0), BuildingBlock: EZIPEK_clean_linker_0, # of connection points: 2
#     Edge 152, Type (0, 0), BuildingBlock: EZIPEK_clean_linker_0, # of connection points: 2
#     Edge 153, Type (0, 0), BuildingBlock: EZIPEK_clean_linker_0, # of connection points: 2
#     Edge 154, Type (0, 0), BuildingBlock: EZIPEK_clean_linker_0, # of connection points: 2
#     Edge 155, Type (0, 0), BuildingBlock: EZIPEK_clean_linker_0, # of connection points: 2
#     Edge 156, Type (0, 0), BuildingBlock: EZIPEK_clean_linker_0, # of connection points: 2
#     Edge 157, Type (0, 0), BuildingBlock: EZIPEK_clean_linker_0, # of connection points: 2
#     Edge 158, Type (0, 0), BuildingBlock: EZIPEK_clean_linker_0, # of connection points: 2
#     Edge 159, Type (0, 0), BuildingBlock: EZIPEK_clean_linker_0, # of connection points: 2
#     Edge 160, Type (0, 0), BuildingBlock: EZIPEK_clean_linker_0, # of connection points: 2
#     Edge 161, Type (0, 0), BuildingBlock: EZIPEK_clean_linker_0, # of connection points: 2
#     Edge 162, Type (0, 0), BuildingBlock: EZIPEK_clean_linker_0, # of connection points: 2
#     Edge 163, Type (0, 0), BuildingBlock: EZIPEK_clean_linker_0, # of connection points: 2
#     Edge 164, Type (0, 0), BuildingBlock: EZIPEK_clean_linker_0, # of connection points: 2
#     Edge 165, Type (0, 0), BuildingBlock: EZIPEK_clean_linker_0, # of connection points: 2
#     Edge 166, Type (0, 0), BuildingBlock: EZIPEK_clean_linker_0, # of connection points: 2
#     Edge 167, Type (0, 0), BuildingBlock: EZIPEK_clean_linker_0, # of connection points: 2
# Relax obj value: 0.234
# Max RMSD: 0.186
# Mean RMSD: 0.181
data_MOF--net-ubt--node1-XOMCOT_clean_sbu_1--edge1-EZIPEK_clean_linker_0
_symmetry_space_group_name_H-M    P1
_symmetry_Int_Tables_number       1
_symmetry_cell_setting            triclinic
loop_
_symmetry_equiv_pos_as_xyz
'x, y, z'
_cell_length_a     54.698548
_cell_length_b     54.977341
_cell_length_c     54.699085
_cell_angle_alpha  89.927978
_cell_angle_beta   90.491012
_cell_angle_gamma 91.561378
loop_
_atom_site_label
_atom_site_type_symbol
_atom_site_fract_x
_atom_site_fract_y
_atom_site_fract_z
_atom_type_partial_charge
C0 C 0.98281 0.19987 0.15963 0.0
C1 C 0.96403 0.20165 0.14257 0.0
N2 N 0.96232 0.18053 0.13008 0.0
N3 N 0.99261 0.1777 0.15772 0.0
C4 C 0.97961 0.16649 0.13968 0.0
H5 H 0.98925 0.21398 0.17205 0.0
Co6 Co 0.01926 0.16222 0.17191 0.0
C7 C 0.9944 0.11942 0.19532 0.0
O8 O 0.0097 0.12069 0.21396 0.0
N9 N 0.04541 0.14475 0.18488 0.0
C10 C 0.08038 0.13066 0.19976 0.0
C11 C 0.06452 0.14981 0.2001 0.0
C12 C 0.04999 0.12244 0.17593 0.0
N13 N 0.071 0.11365 0.18447 0.0
O14 O 0.02911 0.15187 0.1401 0.0
H15 H 0.06772 0.1667 0.20979 0.0
H16 H 0.03865 0.11314 0.16238 0.0
O17 O 0.99698 0.1341 0.17735 0.0
C18 C 0.03993 0.17053 0.13072 0.0
O19 O 0.03775 0.19176 0.14138 0.0
N20 N 0.01309 0.17648 0.20234 0.0
C21 C 0.01393 0.20688 0.24317 0.0
C22 C 0.99593 0.1883 0.24073 0.0
C23 C 0.99584 0.17313 0.22006 0.0
C24 C 0.02996 0.19508 0.20425 0.0
C25 C 0.0312 0.20997 0.22471 0.0
H26 H 0.98182 0.15918 0.2185 0.0
H27 H 0.04295 0.19814 0.1897 0.0
H28 H 0.9831 0.14832 0.13319 0.0
H29 H 0.95295 0.21734 0.13917 0.0
H30 H 0.09788 0.12976 0.20905 0.0
H31 H 0.98199 0.18574 0.25451 0.0
H32 H 0.04513 0.22433 0.22578 0.0
C33 C 0.88338 0.03102 0.2274 0.0
C34 C 0.90086 0.04923 0.23153 0.0
N35 N 0.91334 0.05273 0.21069 0.0
N36 N 0.88496 0.02337 0.20401 0.0
C37 C 0.90339 0.03705 0.1944 0.0
H38 H 0.87079 0.02362 0.24077 0.0
Co39 Co 0.86887 0.99845 0.18637 0.0
C40 C 0.8504 0.02494 0.14198 0.0
O41 O 0.83172 0.00965 0.1392 0.0
N42 N 0.85337 0.97359 0.16748 0.0
C43 C 0.82933 0.94364 0.15252 0.0
C44 C 0.83241 0.96041 0.17103 0.0
C45 C 0.8625 0.96445 0.14654 0.0
N46 N 0.84833 0.94626 0.13726 0.0
O47 O 0.89992 0.98749 0.17531 0.0
H48 H 0.82006 0.96239 0.18611 0.0
H49 H 0.87942 0.97075 0.13827 0.0
O50 O 0.86581 0.02184 0.1593 0.0
C51 C 0.90991 0.97603 0.19295 0.0
O52 O 0.90018 0.97723 0.21477 0.0
N53 N 0.83901 0.00608 0.2008 0.0
C54 C 0.79687 0.00496 0.22933 0.0
C55 C 0.79923 0.02131 0.20959 0.0
C56 C 0.8206 0.02156 0.19536 0.0
C57 C 0.8372 0.99096 0.22052 0.0
C58 C 0.81629 0.98984 0.23473 0.0
H59 H 0.82204 0.03394 0.18015 0.0
H60 H 0.85197 0.9789 0.22465 0.0
H61 H 0.90978 0.03526 0.17583 0.0
H62 H 0.90439 0.05887 0.24849 0.0
H63 H 0.81465 0.93014 0.15068 0.0
H64 H 0.78465 0.03356 0.20517 0.0
H65 H 0.81526 0.97717 0.2499 0.0
C66 C 0.99391 0.86485 0.20959 0.0
C67 C 0.97928 0.88388 0.21593 0.0
N68 N 0.97617 0.89784 0.19597 0.0
N69 N 0.99932 0.86663 0.18559 0.0
C70 C 0.98873 0.88728 0.17808 0.0
H71 H 1.00022 0.85071 0.22166 0.0
Co72 Co 0.02013 0.84834 0.16646 0.0
C73 C 0.97372 0.84832 0.13389 0.0
O74 O 0.95878 0.85675 0.15024 0.0
N75 N 0.04135 0.83088 0.14611 0.0
C76 C 0.05311 0.8059 0.11653 0.0
C77 C 0.03602 0.80967 0.13443 0.0
C78 C 0.06192 0.83944 0.13504 0.0
N79 N 0.06917 0.82481 0.11699 0.0
O80 O 0.03462 0.87869 0.15559 0.0
H81 H 0.01978 0.79848 0.13747 0.0
H82 H 0.07081 0.85679 0.13877 0.0
O83 O 0.9964 0.84568 0.13889 0.0
C84 C 0.05088 0.8826 0.17223 0.0
O85 O 0.05525 0.8648 0.18762 0.0
N86 N 0.00792 0.8191 0.18083 0.0
C87 C 0.99466 0.78187 0.21325 0.0
C88 C 0.97673 0.79496 0.20102 0.0
C89 C 0.98376 0.81365 0.18496 0.0
C90 C 0.02553 0.80608 0.19236 0.0
C91 C 0.0193 0.78719 0.20843 0.0
H92 H 0.96972 0.8247 0.17741 0.0
H93 H 0.0446 0.81124 0.19016 0.0
H94 H 0.98974 0.89424 0.15957 0.0
H95 H 0.97115 0.88699 0.23359 0.0
H96 H 0.05299 0.79124 0.10334 0.0
H97 H 0.95753 0.79161 0.20482 0.0
H98 H 0.03359 0.77768 0.218 0.0
C99 C 0.13825 0.99442 0.20616 0.0
C100 C 0.11907 0.97822 0.21024 0.0
N101 N 0.11917 0.96108 0.19265 0.0
N102 N 0.15011 0.98776 0.18585 0.0
C103 C 0.13868 0.96685 0.17869 0.0
H104 H 0.14142 0.01151 0.21559 0.0
Co105 Co 0.16776 0.00971 0.16658 0.0
C106 C 0.19116 0.98126 0.12801 0.0
O107 O 0.21209 0.9914 0.135 0.0
N108 N 0.18474 0.03243 0.14624 0.0
C109 C 0.20671 0.06271 0.12941 0.0
C110 C 0.20479 0.04717 0.14912 0.0
C111 C 0.17557 0.03888 0.12418 0.0
N112 N 0.18799 0.05763 0.11398 0.0
O113 O 0.13711 0.0197 0.15252 0.0
H114 H 0.21678 0.04779 0.16485 0.0
H115 H 0.15932 0.03066 0.11602 0.0
O116 O 0.17207 0.98525 0.14063 0.0
C117 C 0.1315 0.03879 0.16424 0.0
O118 O 0.14673 0.04726 0.18106 0.0
N119 N 0.19628 0.00208 0.18388 0.0
C120 C 0.23322 0.99722 0.21889 0.0
C121 C 0.22658 0.97764 0.20346 0.0
C122 C 0.20763 0.98033 0.18617 0.0
C123 C 0.20166 0.02051 0.19985 0.0
C124 C 0.22047 0.01877 0.21694 0.0
H125 H 0.20161 0.96486 0.17529 0.0
H126 H 0.19104 0.0368 0.19937 0.0
H127 H 0.14287 0.95729 0.16219 0.0
H128 H 0.1049 0.98009 0.22375 0.0
H129 H 0.21961 0.07786 0.12751 0.0
H130 H 0.23552 0.96038 0.20521 0.0
H131 H 0.22454 0.03391 0.22911 0.0
C132 C 0.03332 0.87028 0.81343 0.0
C133 C 0.05127 0.8873 0.80747 0.0
N134 N 0.05895 0.89922 0.82797 0.0
N135 N 0.02884 0.87188 0.83747 0.0
C136 C 0.04339 0.89059 0.84529 0.0
H137 H 0.02389 0.85788 0.80099 0.0
Co138 Co 0.00748 0.85408 0.85802 0.0
C139 C 0.05802 0.84724 0.88104 0.0
O140 O 0.06985 0.8512 0.86059 0.0
N141 N 0.98695 0.8368 0.88022 0.0
C142 C 0.97278 0.80895 0.90676 0.0
C143 C 0.98896 0.81351 0.88796 0.0
C144 C 0.96988 0.84605 0.89511 0.0
N145 N 0.961 0.82959 0.9111 0.0
O146 O 0.99767 0.88412 0.87273 0.0
H147 H 0.00189 0.80079 0.88095 0.0
H148 H 0.96421 0.86469 0.89495 0.0
O149 O 0.03461 0.84834 0.88177 0.0
C150 C 0.98254 0.8928 0.85706 0.0
O151 O 0.98169 0.88334 0.835 0.0
N152 N 0.01228 0.82521 0.84004 0.0
C153 C 0.00879 0.78742 0.80591 0.0
C154 C 0.03145 0.79429 0.81633 0.0
C155 C 0.03284 0.8134 0.83334 0.0
C156 C 0.9902 0.81854 0.82989 0.0
C157 C 0.98796 0.79949 0.81321 0.0
H158 H 0.05052 0.81927 0.83969 0.0
H159 H 0.97414 0.82864 0.83431 0.0
H160 H 0.04225 0.89756 0.86364 0.0
H161 H 0.05735 0.89091 0.78905 0.0
H162 H 0.97006 0.79203 0.91662 0.0
H163 H 0.04801 0.78564 0.81062 0.0
H164 H 0.97023 0.79492 0.80523 0.0
C165 C 0.1994 0.97955 0.86598 0.0
C166 C 0.20261 0.96201 0.88384 0.0
N167 N 0.18221 0.96058 0.89751 0.0
N168 N 0.17705 0.98899 0.8685 0.0
C169 C 0.16714 0.97697 0.88778 0.0
H170 H 0.21273 0.98548 0.85259 0.0
Co171 Co 0.16065 0.01442 0.85311 0.0
C172 C 0.11585 0.98857 0.83277 0.0
O173 O 0.11232 0.00525 0.81601 0.0
N174 N 0.14232 0.03967 0.83901 0.0
C175 C 0.12759 0.07258 0.82077 0.0
C176 C 0.14646 0.05641 0.82123 0.0
C177 C 0.12067 0.04604 0.84872 0.0
N178 N 0.1116 0.06604 0.83827 0.0
O179 O 0.15089 0.0258 0.88456 0.0
H180 H 0.16234 0.05759 0.80971 0.0
H181 H 0.11178 0.03637 0.86359 0.0
O182 O 0.1331 0.99131 0.84857 0.0
C183 C 0.16991 0.03815 0.89147 0.0
O184 O 0.18993 0.03698 0.87848 0.0
N185 N 0.17434 0.0064 0.82294 0.0
C186 C 0.20401 0.00164 0.78205 0.0
C187 C 0.18585 0.98383 0.78737 0.0
C188 C 0.17123 0.98644 0.80826 0.0
C189 C 0.1926 0.02308 0.81838 0.0
C190 C 0.20723 0.02137 0.79788 0.0
H191 H 0.15831 0.97208 0.81307 0.0
H192 H 0.19583 0.03802 0.83092 0.0
H193 H 0.14929 0.98064 0.8951 0.0
H194 H 0.21893 0.95175 0.88711 0.0
H195 H 0.12592 0.08819 0.80884 0.0
H196 H 0.18352 0.96786 0.77593 0.0
H197 H 0.22147 0.03509 0.79474 0.0
C198 C 0.97584 0.14287 0.81481 0.0
C199 C 0.95883 0.12425 0.8109 0.0
N200 N 0.95285 0.11476 0.83279 0.0
N201 N 0.98025 0.14497 0.83905 0.0
C202 C 0.96605 0.12746 0.84946 0.0
H203 H 0.98494 0.1536 0.80085 0.0
Co204 Co 0.00328 0.16428 0.85544 0.0
C205 C 0.97589 0.18297 0.8983 0.0
O206 O 0.98715 0.20427 0.89612 0.0
N207 N 0.02716 0.18312 0.87265 0.0
C208 C 0.05921 0.20683 0.88339 0.0
C209 C 0.04165 0.20224 0.8657 0.0
C210 C 0.03625 0.17671 0.89475 0.0
N211 N 0.05572 0.19066 0.9015 0.0
O212 O 0.01793 0.13513 0.86747 0.0
H213 H 0.04074 0.21164 0.84845 0.0
H214 H 0.02948 0.16129 0.90522 0.0
O215 O 0.98095 0.16572 0.88366 0.0
C216 C 0.03501 0.13052 0.85253 0.0
O217 O 0.03918 0.14584 0.83449 0.0
N218 N 0.99071 0.19203 0.84009 0.0
C219 C 0.97791 0.22852 0.80718 0.0
C220 C 0.96232 0.22203 0.82653 0.0
C221 C 0.96901 0.20349 0.84282 0.0
C222 C 0.00522 0.19749 0.82061 0.0
C223 C 0.99953 0.21595 0.80435 0.0
H224 H 0.95637 0.19801 0.85686 0.0
H225 H 0.02142 0.18712 0.81753 0.0
H226 H 0.96593 0.1235 0.86885 0.0
H227 H 0.9518 0.11781 0.79345 0.0
H228 H 0.07415 0.22012 0.88248 0.0
H229 H 0.94504 0.23091 0.82874 0.0
H230 H 0.01171 0.22002 0.78928 0.0
C231 C 0.80442 0.03039 0.8827 0.0
C232 C 0.79866 0.0478 0.89985 0.0
N233 N 0.81939 0.05457 0.91176 0.0
N234 N 0.82866 0.02647 0.88392 0.0
C235 C 0.83717 0.04154 0.90175 0.0
H236 H 0.79166 0.02057 0.87088 0.0
Co237 Co 0.84803 0.00298 0.86931 0.0
C238 C 0.88618 0.03371 0.84612 0.0
O239 O 0.88217 0.02186 0.8256 0.0
N240 N 0.8696 0.97956 0.85553 0.0
C241 C 0.89164 0.95583 0.83146 0.0
C242 C 0.87183 0.97069 0.83255 0.0
C243 C 0.88875 0.96975 0.86781 0.0
N244 N 0.90229 0.95539 0.85364 0.0
O245 O 0.85871 0.99361 0.90133 0.0
H246 H 0.86059 0.9752 0.817 0.0
H247 H 0.89305 0.97294 0.88686 0.0
O248 O 0.87413 0.02789 0.86531 0.0
C249 C 0.84124 0.97916 0.90796 0.0
O250 O 0.82202 0.97658 0.89351 0.0
N251 N 0.83313 0.00922 0.83867 0.0
C252 C 0.80317 0.01112 0.79704 0.0
C253 C 0.81637 0.03194 0.80509 0.0
C254 C 0.83101 0.03072 0.8263 0.0
C255 C 0.81911 0.98944 0.83182 0.0
C256 C 0.80466 0.98973 0.81074 0.0
H257 H 0.84005 0.04708 0.833 0.0
H258 H 0.81942 0.97305 0.84277 0.0
H259 H 0.85598 0.04221 0.90808 0.0
H260 H 0.78064 0.05433 0.90385 0.0
H261 H 0.89768 0.94591 0.81563 0.0
H262 H 0.81489 0.04904 0.79542 0.0
H263 H 0.79418 0.97353 0.80551 0.0
C264 C 0.20576 0.14224 0.98326 0.0
C265 C 0.20959 0.12386 0.96662 0.0
N266 N 0.18782 0.11282 0.96177 0.0
N267 N 0.18166 0.14277 0.98828 0.0
C268 C 0.17133 0.12454 0.975 0.0
H269 H 0.2196 0.15429 0.99126 0.0
Co270 Co 0.1643 0.16102 0.01035 0.0
C271 C 0.1258 0.18194 0.97942 0.0
O272 O 0.13207 0.20335 0.98844 0.0
N273 N 0.14503 0.17862 0.03295 0.0
C274 C 0.12606 0.20541 0.05641 0.0
C275 C 0.14487 0.20221 0.04018 0.0
C276 C 0.12576 0.16823 0.04492 0.0
N277 N 0.11422 0.18389 0.05931 0.0
O278 O 0.15231 0.13119 0.02434 0.0
H279 H 0.15715 0.21654 0.03392 0.0
H280 H 0.11995 0.14936 0.04348 0.0
O281 O 0.13702 0.163 0.98657 0.0
C282 C 0.16927 0.12574 0.03943 0.0
O283 O 0.18924 0.13957 0.04026 0.0
N284 N 0.18037 0.1894 0.99884 0.0
C285 C 0.21555 0.22493 0.98686 0.0
C286 C 0.19971 0.21533 0.96881 0.0
C287 C 0.18239 0.19716 0.97514 0.0
C288 C 0.19632 0.19812 0.01622 0.0
C289 C 0.21365 0.21626 0.01077 0.0
H290 H 0.17158 0.18861 0.96085 0.0
H291 H 0.19594 0.19044 0.03443 0.0
H292 H 0.15198 0.11984 0.97503 0.0
H293 H 0.22682 0.11905 0.9586 0.0
H294 H 0.12182 0.22203 0.06587 0.0
H295 H 0.20133 0.22119 0.94998 0.0
H296 H 0.22609 0.22286 0.02495 0.0
C297 C 0.22011 0.88085 0.03027 0.0
C298 C 0.22501 0.89851 0.04772 0.0
N299 N 0.20361 0.90789 0.05456 0.0
N300 N 0.19568 0.87873 0.02674 0.0
C301 C 0.18626 0.89577 0.04142 0.0
H302 H 0.23341 0.86997 0.02109 0.0
Co303 Co 0.17694 0.85784 0.00649 0.0
C304 C 0.1445 0.83677 0.04625 0.0
O305 O 0.15412 0.81532 0.04425 0.0
N306 N 0.15665 0.83743 0.98576 0.0
C307 C 0.12924 0.80918 0.97288 0.0
C308 C 0.14779 0.81445 0.98939 0.0
C309 C 0.14392 0.84498 0.9659 0.0
N310 N 0.12674 0.82861 0.95829 0.0
O311 O 0.16193 0.8865 0.99273 0.0
H312 H 0.154 0.80211 0.00325 0.0
H313 H 0.14645 0.86242 0.95734 0.0
O314 O 0.15175 0.85462 0.03268 0.0
C315 C 0.1769 0.89515 0.97687 0.0
O316 O 0.19715 0.88343 0.97308 0.0
N317 N 0.19487 0.8308 0.01804 0.0
C318 C 0.22859 0.79553 0.03075 0.0
C319 C 0.2192 0.81078 0.0486 0.0
C320 C 0.20258 0.8285 0.0418 0.0
C321 C 0.20456 0.81646 1.00041 0.0
C322 C 0.22106 0.79839 0.00643 0.0
H323 H 0.19655 0.84099 0.0555 0.0
H324 H 0.2001 0.81951 0.98138 0.0
H325 H 0.16692 0.89923 0.04258 0.0
H326 H 0.24284 0.90421 0.05469 0.0
H327 H 0.11812 0.79261 0.97194 0.0
H328 H 0.22522 0.80946 0.06746 0.0
H329 H 0.22858 0.78732 0.99211 0.0
C330 C 0.87566 0.19929 0.99885 0.0
C331 C 0.89244 0.20525 0.9809 0.0
N332 N 0.90282 0.18464 0.97347 0.0
N333 N 0.87536 0.17498 0.0025 0.0
C334 C 0.89228 0.16664 0.98684 0.0
H335 H 0.86463 0.21189 0.0088 0.0
Co336 Co 0.85786 0.15614 0.02554 0.0
C337 C 0.83282 0.11909 0.99449 0.0
O338 O 0.8126 0.12421 0.00596 0.0
N339 N 0.84108 0.13563 0.049 0.0
C340 C 0.81871 0.11899 0.07907 0.0
C341 C 0.82061 0.13787 0.06255 0.0
C342 C 0.85051 0.11449 0.05722 0.0
N343 N 0.83775 0.10447 0.07587 0.0
O344 O 0.88865 0.14428 0.03747 0.0
H345 H 0.80779 0.15234 0.06138 0.0
H346 H 0.86673 0.10659 0.04987 0.0
O347 O 0.85293 0.13008 1.00072 0.0
C348 C 0.89358 0.15965 0.05456 0.0
O349 O 0.878 0.17688 0.05871 0.0
N350 N 0.82894 0.17228 0.01675 0.0
C351 C 0.7923 0.2063 0.01038 0.0
C352 C 0.79966 0.19189 0.99069 0.0
C353 C 0.8183 0.17505 0.99421 0.0
C354 C 0.82282 0.18731 0.03539 0.0
C355 C 0.80396 0.20356 0.03297 0.0
H356 H 0.82483 0.1652 0.97865 0.0
H357 H 0.83287 0.18685 0.05245 0.0
H358 H 0.89699 0.1477 0.98543 0.0
H359 H 0.89683 0.22328 0.97396 0.0
H360 H 0.80496 0.11665 0.09306 0.0
H361 H 0.7917 0.19424 0.97268 0.0
H362 H 0.79938 0.21489 0.04838 0.0
C363 C 0.81055 0.87781 0.00294 0.0
C364 C 0.80557 0.89854 0.98968 0.0
N365 N 0.82703 0.90976 0.98418 0.0
N366 N 0.83503 0.87589 0.00513 0.0
C367 C 0.84437 0.89613 0.99439 0.0
H368 H 0.79728 0.86458 0.00978 0.0
Co369 Co 0.854 0.85267 0.02094 0.0
C370 C 0.88183 0.85718 0.97177 0.0
O371 O 0.86495 0.86778 0.95874 0.0
N372 N 0.87471 0.83032 0.03686 0.0
C373 C 0.90493 0.80385 0.0401 0.0
C374 C 0.88429 0.81012 0.02702 0.0
C375 C 0.88977 0.83559 0.05601 0.0
N376 N 0.9082 0.82007 0.05827 0.0
O377 O 0.86976 0.87893 0.0386 0.0
H378 H 0.87828 0.80199 0.00992 0.0
H379 H 0.88945 0.85207 0.06656 0.0
O380 O 0.87848 0.85228 0.99441 0.0
C381 C 0.85455 0.88276 0.05582 0.0
O382 O 0.83398 0.86984 0.05625 0.0
N383 N 0.83519 0.82701 0.00632 0.0
C384 C 0.79776 0.79448 0.99172 0.0
C385 C 0.80816 0.81087 0.97498 0.0
C386 C 0.82674 0.82714 0.98273 0.0
C387 C 0.82533 0.81081 0.0227 0.0
C388 C 0.80683 0.79417 0.0157 0.0
H389 H 0.8325 0.84117 0.97029 0.0
H390 H 0.83083 0.81167 0.04172 0.0
H391 H 0.86377 0.90028 0.99297 0.0
H392 H 0.78781 0.90404 0.98316 0.0
H393 H 0.91754 0.78976 0.03552 0.0
H394 H 0.80103 0.812 0.9565 0.0
H395 H 0.79876 0.78204 0.02921 0.0
C396 C 0.97416 0.70793 0.6416 0.0
C397 C 0.95598 0.70899 0.62387 0.0
N398 N 0.95609 0.68823 0.61076 0.0
N399 N 0.98552 0.68656 0.63952 0.0
C400 C 0.97398 0.67509 0.62067 0.0
H401 H 0.97903 0.72197 0.65473 0.0
Co402 Co 0.01189 0.67228 0.65552 0.0
C403 C 0.98728 0.63068 0.68063 0.0
O404 O 0.00223 0.63398 0.69935 0.0
N405 N 0.03794 0.65595 0.67034 0.0
C406 C 0.07135 0.64267 0.68917 0.0
C407 C 0.05561 0.66181 0.68695 0.0
C408 C 0.04336 0.63325 0.66295 0.0
N409 N 0.06354 0.62493 0.67386 0.0
O410 O 0.02339 0.66098 0.62442 0.0
H411 H 0.05758 0.67893 0.69647 0.0
H412 H 0.03283 0.62299 0.64945 0.0
O413 O 0.98996 0.6438 0.66144 0.0
C414 C 0.03508 0.6796 0.61592 0.0
O415 O 0.03402 0.70032 0.62774 0.0
N416 N 0.00394 0.68772 0.68523 0.0
C417 C 0.00189 0.71836 0.72584 0.0
C418 C 0.98429 0.6996 0.72243 0.0
C419 C 0.98546 0.68454 0.70175 0.0
C420 C 0.02021 0.70679 0.68785 0.0
C421 C 0.01982 0.72201 0.70812 0.0
H422 H 0.97147 0.6707 0.69929 0.0
H423 H 0.03407 0.70993 0.67418 0.0
H424 H 0.97885 0.65737 0.61394 0.0
H425 H 0.94412 0.72407 0.62038 0.0
H426 H 0.08742 0.64193 0.7008 0.0
H427 H 0.96973 0.69677 0.73552 0.0
H428 H 0.03337 0.73666 0.70988 0.0
C429 C 0.87469 0.54392 0.71589 0.0
C430 C 0.89299 0.56068 0.72243 0.0
N431 N 0.90631 0.56581 0.7024 0.0
N432 N 0.87637 0.53899 0.69177 0.0
C433 C 0.89598 0.55248 0.68429 0.0
H434 H 0.86112 0.53589 0.72794 0.0
Co435 Co 0.85864 0.51755 0.67078 0.0
C436 C 0.85145 0.56746 0.64731 0.0
O437 O 0.85615 0.5798 0.66735 0.0
N438 N 0.84163 0.49696 0.64869 0.0
C439 C 0.81613 0.48579 0.61856 0.0
C440 C 0.82139 0.50314 0.63602 0.0
C441 C 0.84801 0.47548 0.63896 0.0
N442 N 0.83292 0.46848 0.62049 0.0
O443 O 0.88903 0.50909 0.65594 0.0
H444 H 0.81164 0.51979 0.6386 0.0
H445 H 0.86388 0.46553 0.64455 0.0
O446 O 0.85244 0.54422 0.6473 0.0
C447 C 0.89662 0.49325 0.67125 0.0
O448 O 0.88276 0.48768 0.69007 0.0
N449 N 0.82944 0.52172 0.68818 0.0
C450 C 0.7885 0.51757 0.7181 0.0
C451 C 0.79653 0.54041 0.70938 0.0
C452 C 0.81726 0.54211 0.69443 0.0
C453 C 0.82199 0.49958 0.69719 0.0
C454 C 0.80139 0.49703 0.71178 0.0
H455 H 0.82391 0.55975 0.68903 0.0
H456 H 0.83237 0.48362 0.69322 0.0
H457 H 0.90237 0.55296 0.66561 0.0
H458 H 0.8962 0.56855 0.74034 0.0
H459 H 0.80155 0.48612 0.60506 0.0
H460 H 0.78724 0.55674 0.71457 0.0
H461 H 0.79597 0.47922 0.71867 0.0
C462 C 0.96781 0.38375 0.70954 0.0
C463 C 0.95282 0.4036 0.70863 0.0
N464 N 0.95647 0.4152 0.68718 0.0
N465 N 0.98069 0.38287 0.68864 0.0
C466 C 0.9735 0.40245 0.67564 0.0
H467 H 0.96943 0.37109 0.72457 0.0
Co468 Co 0.00497 0.36212 0.67753 0.0
C469 C 0.96298 0.35399 0.64221 0.0
O470 O 0.94692 0.36122 0.65812 0.0
N471 N 0.02944 0.34228 0.66417 0.0
C472 C 0.05703 0.31535 0.65279 0.0
C473 C 0.03995 0.32106 0.67024 0.0
C474 C 0.04018 0.34857 0.64271 0.0
N475 N 0.05716 0.33293 0.63565 0.0
O476 O 0.02167 0.39005 0.66368 0.0
H477 H 0.0358 0.31022 0.6862 0.0
H478 H 0.03578 0.36452 0.63214 0.0
O479 O 0.98574 0.354 0.64771 0.0
C480 C 0.03399 0.39848 0.68194 0.0
O481 O 0.03083 0.3883 0.70346 0.0
N482 N 0.99146 0.33569 0.69588 0.0
C483 C 0.97911 0.30124 0.73181 0.0
C484 C 0.96304 0.30579 0.71235 0.0
C485 C 0.96955 0.32311 0.69455 0.0
C486 C 0.00651 0.33228 0.71555 0.0
C487 C 1.00102 0.31486 0.73335 0.0
H488 H 0.9565 0.32648 0.68047 0.0
H489 H 0.02328 0.34302 0.71724 0.0
H490 H 0.98041 0.4072 0.65774 0.0
H491 H 0.94064 0.40944 0.72284 0.0
H492 H 0.06888 0.29989 0.65298 0.0
H493 H 0.94562 0.29602 0.71095 0.0
H494 H 0.01373 0.31218 0.74835 0.0
C495 C 0.13767 0.49477 0.71125 0.0
C496 C 0.11894 0.47798 0.71577 0.0
N497 N 0.11194 0.46811 0.69422 0.0
N498 N 0.14222 0.49507 0.68705 0.0
C499 C 0.1263 0.47856 0.67728 0.0
H500 H 0.14633 0.50691 0.72446 0.0
Co501 Co 0.15971 0.51707 0.66814 0.0
C502 C 0.1805 0.48656 0.62783 0.0
O503 O 0.19828 0.50239 0.62326 0.0
N504 N 0.17634 0.53945 0.64789 0.0
C505 C 0.19627 0.5713 0.63167 0.0
C506 C 0.19476 0.55598 0.6516 0.0
C507 C 0.16752 0.54481 0.62544 0.0
N508 N 0.17885 0.56427 0.61546 0.0
O509 O 0.12912 0.527 0.65411 0.0
H510 H 0.20541 0.55818 0.66816 0.0
H511 H 0.15213 0.53535 0.61691 0.0
O512 O 0.16449 0.49107 0.64405 0.0
C513 C 0.12318 0.54456 0.66794 0.0
O514 O 0.13794 0.55065 0.68613 0.0
N515 N 0.18837 0.50971 0.68512 0.0
C516 C 0.22686 0.50457 0.71815 0.0
C517 C 0.22096 0.48595 0.70139 0.0
C518 C 0.20119 0.48873 0.68516 0.0
C519 C 0.19341 0.52731 0.70207 0.0
C520 C 0.2128 0.52535 0.71843 0.0
H521 H 0.19564 0.4737 0.67354 0.0
H522 H 0.18208 0.54308 0.70296 0.0
H523 H 0.12401 0.47537 0.65786 0.0
H524 H 0.11058 0.47394 0.73322 0.0
H525 H 0.20775 0.58758 0.63014 0.0
H526 H 0.23099 0.46924 0.70144 0.0
H527 H 0.21646 0.53971 0.73163 0.0
C528 C 0.02669 0.36214 0.32405 0.0
C529 C 0.04474 0.37907 0.31784 0.0
N530 N 0.05272 0.39005 0.33849 0.0
N531 N 0.02356 0.36256 0.34849 0.0
C532 C 0.0396 0.37988 0.35669 0.0
H533 H 0.01619 0.35072 0.31151 0.0
Co534 Co 1.00079 0.34609 0.36795 0.0
C535 C 0.03098 0.32661 0.40827 0.0
O536 O 0.01855 0.30588 0.40653 0.0
N537 N 0.9777 0.33024 0.38872 0.0
C538 C 0.94614 0.30973 0.40514 0.0
C539 C 0.96106 0.31185 0.3851 0.0
C540 C 0.97256 0.3387 0.41127 0.0
N541 N 0.95339 0.32676 0.4214 0.0
O542 O 0.98943 0.37722 0.37846 0.0
H543 H 0.95882 0.30106 0.36878 0.0
H544 H 0.98204 0.35409 0.41974 0.0
O545 O 0.02559 0.3444 0.39428 0.0
C546 C 0.96976 0.37989 0.36604 0.0
O547 O 0.96107 0.36117 0.35349 0.0
N548 N 0.00941 0.31649 0.35362 0.0
C549 C 0.01512 0.27783 0.32136 0.0
C550 C 0.03408 0.28468 0.33766 0.0
C551 C 0.03092 0.30435 0.35366 0.0
C552 C 0.99156 0.31053 0.33701 0.0
C553 C 0.99359 0.29085 0.32145 0.0
H554 H 0.04608 0.31035 0.36502 0.0
H555 H 0.97563 0.3216 0.33543 0.0
H556 H 0.04125 0.38542 0.37563 0.0
H557 H 0.05121 0.3833 0.29963 0.0
H558 H 0.93068 0.29723 0.40733 0.0
H559 H 0.05136 0.27553 0.33735 0.0
H560 H 0.97891 0.28662 0.30859 0.0
C561 C 0.20692 0.47077 0.38107 0.0
C562 C 0.21186 0.45411 0.39936 0.0
N563 N 0.19083 0.44881 0.41108 0.0
N564 N 0.18288 0.47574 0.38142 0.0
C565 C 0.17367 0.46199 0.39987 0.0
H566 H 0.22013 0.47942 0.36903 0.0
Co567 Co 0.16437 0.49925 0.36514 0.0
C568 C 0.12568 0.46713 0.34313 0.0
O569 O 0.1306 0.47623 0.3215 0.0
N570 N 0.14347 0.52254 0.3496 0.0
C571 C 0.12091 0.54399 0.32338 0.0
C572 C 0.13964 0.52789 0.32566 0.0
C573 C 0.12638 0.53571 0.36127 0.0
N574 N 0.1126 0.54873 0.34582 0.0
O575 O 0.15436 0.51098 0.39637 0.0
H576 H 0.14914 0.52013 0.31044 0.0
H577 H 0.12366 0.53592 0.38079 0.0
O578 O 0.13748 0.47479 0.36205 0.0
C579 C 0.1729 0.52471 0.40206 0.0
O580 O 0.19254 0.52394 0.38843 0.0
N581 N 0.17928 0.49151 0.33526 0.0
C582 C 0.21232 0.48933 0.29657 0.0
C583 C 0.19931 0.46827 0.30434 0.0
C584 C 0.18291 0.4697 0.32404 0.0
C585 C 0.19262 0.51166 0.32837 0.0
C586 C 0.20849 0.51119 0.30872 0.0
H587 H 0.17407 0.45328 0.33087 0.0
H588 H 0.19108 0.52842 0.33852 0.0
H589 H 0.15483 0.4624 0.40573 0.0
H590 H 0.22953 0.44702 0.40415 0.0
H591 H 0.11398 0.55175 0.30657 0.0
H592 H 0.20247 0.45086 0.29586 0.0
H593 H 0.21862 0.52765 0.30373 0.0
C594 C 0.98386 0.62806 0.30703 0.0
C595 C 0.96535 0.61068 0.30383 0.0
N596 N 0.95742 0.60382 0.32611 0.0
N597 N 0.98717 0.63207 0.33119 0.0
C598 C 0.9711 0.61671 0.34223 0.0
H599 H 0.99376 0.63759 0.29274 0.0
Co600 Co 0.00813 0.65356 0.34784 0.0
C601 C 0.97422 0.67662 0.38249 0.0
O602 O 0.98238 0.69815 0.37545 0.0
N603 N 0.02945 0.67508 0.36626 0.0
C604 C 0.05152 0.70613 0.38238 0.0
C605 C 0.03422 0.69942 0.36499 0.0
C606 C 0.0436 0.66789 0.38526 0.0
N607 N 0.05753 0.68604 0.39475 0.0
O608 O 0.02237 0.62599 0.36369 0.0
H609 H 0.02581 0.71185 0.35238 0.0
H610 H 0.04468 0.64943 0.39185 0.0
O611 O 0.98305 0.65736 0.37332 0.0
C612 C 0.03923 0.61953 0.34913 0.0
O613 O 0.04169 0.63123 0.32829 0.0
N614 N 0.99681 0.67917 0.32841 0.0
C615 C 0.98721 0.71256 0.29145 0.0
C616 C 0.96817 0.70337 0.30615 0.0
C617 C 0.97334 0.68628 0.32445 0.0
C618 C 0.01501 0.6869 0.31314 0.0
C619 C 0.01077 0.70402 0.29498 0.0
H620 H 0.95848 0.67831 0.33481 0.0
H621 H 0.03311 0.67968 0.31519 0.0
H622 H 0.96891 0.61538 0.36183 0.0
H623 H 0.95768 0.60429 0.28662 0.0
H624 H 0.05985 0.72404 0.38499 0.0
H625 H 0.94958 0.70907 0.30324 0.0
H626 H 0.0257 0.71024 0.28347 0.0
C627 C 0.80197 0.52374 0.37947 0.0
C628 C 0.79492 0.54134 0.39592 0.0
N629 N 0.81459 0.548 0.4096 0.0
N630 N 0.82603 0.51969 0.38267 0.0
C631 C 0.83285 0.53424 0.40164 0.0
H632 H 0.79047 0.51501 0.36571 0.0
Co633 Co 0.84817 0.49938 0.36661 0.0
C634 C 0.87291 0.55019 0.36064 0.0
O635 O 0.85429 0.56323 0.36694 0.0
N636 N 0.87189 0.48026 0.35134 0.0
C637 C 0.90537 0.47408 0.32953 0.0
C638 C 0.88524 0.48818 0.33204 0.0
C639 C 0.88388 0.46064 0.35963 0.0
N640 N 0.90451 0.45681 0.34693 0.0
O641 O 0.86109 0.49076 0.39829 0.0
H642 H 0.88156 0.50435 0.32149 0.0
H643 H 0.87836 0.45 0.37529 0.0
O644 O 0.87128 0.52695 0.36117 0.0
C645 C 0.8456 0.47387 0.40432 0.0
O646 O 0.8286 0.46724 0.38835 0.0
N647 N 0.83254 0.50391 0.33614 0.0
C648 C 0.80487 0.50212 0.29303 0.0
C649 C 0.81199 0.52458 0.30346 0.0
C650 C 0.82588 0.52508 0.32518 0.0
C651 C 0.82525 0.48205 0.3263 0.0
C652 C 0.8119 0.48073 0.30455 0.0
H653 H 0.83006 0.54226 0.33377 0.0
H654 H 0.82948 0.46534 0.33568 0.0
H655 H 0.85139 0.53575 0.40869 0.0
H656 H 0.77711 0.54935 0.39706 0.0
H657 H 0.92 0.47676 0.31651 0.0
H658 H 0.8063 0.54146 0.29524 0.0
H659 H 0.80629 0.46311 0.29725 0.0
C660 C 0.20741 0.63609 0.4856 0.0
C661 C 0.21263 0.61528 0.47262 0.0
N662 N 0.19141 0.60298 0.46828 0.0
N663 N 0.18297 0.63695 0.48873 0.0
C664 C 0.17401 0.61615 0.4786 0.0
H665 H 0.22049 0.64983 0.49193 0.0
Co666 Co 0.16313 0.6588 0.5052 0.0
C667 C 0.13782 0.65683 0.45474 0.0
O668 O 0.15453 0.64501 0.44299 0.0
N669 N 0.14144 0.67978 0.52146 0.0
C670 C 0.11664 0.71005 0.531 0.0
C671 C 0.13677 0.70359 0.51757 0.0
C672 C 0.12324 0.67222 0.53655 0.0
N673 N 0.10831 0.69005 0.54268 0.0
O674 O 0.14678 0.63127 0.51964 0.0
H675 H 0.14675 0.71545 0.50518 0.0
H676 H 0.12017 0.65384 0.54294 0.0
O677 O 0.14039 0.66154 0.47751 0.0
C678 C 0.16098 0.62789 0.53802 0.0
O679 O 0.18045 0.64222 0.54072 0.0
N680 N 0.18247 0.68531 0.49431 0.0
C681 C 0.22016 0.71915 0.4855 0.0
C682 C 0.20884 0.70655 0.46606 0.0
C683 C 0.19 0.6895 0.47092 0.0
C684 C 0.19342 0.69755 0.51331 0.0
C685 C 0.21202 0.71484 0.50928 0.0
H686 H 0.18316 0.67829 0.45627 0.0
H687 H 0.18832 0.69314 0.53189 0.0
H688 H 0.15471 0.61126 0.47768 0.0
H689 H 0.23035 0.61013 0.46601 0.0
H690 H 0.10875 0.72785 0.53207 0.0
H691 H 0.21532 0.70899 0.44754 0.0
H692 H 0.2208 0.72394 0.52471 0.0
C693 C 0.14063 0.3044 0.49882 0.0
C694 C 0.1224 0.29898 0.48189 0.0
N695 N 0.11113 0.31974 0.47633 0.0
N696 N 0.14077 0.32848 0.50367 0.0
C697 C 0.12246 0.33725 0.48975 0.0
H698 H 0.15268 0.29154 0.50731 0.0
Co699 Co 0.15955 0.34666 0.52622 0.0
C700 C 0.17991 0.38703 0.49561 0.0
O701 O 0.201 0.38503 0.50699 0.0
N702 N 0.17789 0.36609 0.54931 0.0
C703 C 0.20527 0.38238 0.57514 0.0
C704 C 0.20114 0.36496 0.55753 0.0
C705 C 0.16886 0.38512 0.56181 0.0
N706 N 0.1844 0.39434 0.57916 0.0
O707 O 0.12981 0.35777 0.54056 0.0
H708 H 0.21488 0.35306 0.55071 0.0
H709 H 0.15141 0.39265 0.55734 0.0
O710 O 0.16161 0.37354 0.50208 0.0
C711 C 0.12338 0.34076 0.55539 0.0
O712 O 0.13558 0.3205 0.55529 0.0
N713 N 0.18799 0.33169 0.51508 0.0
C714 C 0.22709 0.30126 0.50697 0.0
C715 C 0.21995 0.31792 0.48897 0.0
C716 C 0.19994 0.3328 0.49323 0.0
C717 C 0.1941 0.31464 0.53205 0.0
C718 C 0.21378 0.29958 0.52858 0.0
H719 H 0.19395 0.34463 0.47882 0.0
H720 H 0.18368 0.313 0.5487 0.0
H721 H 0.11725 0.35611 0.4897 0.0
H722 H 0.11765 0.28125 0.47439 0.0
H723 H 0.22293 0.38641 0.5834 0.0
H724 H 0.22944 0.31902 0.47168 0.0
H725 H 0.21844 0.28651 0.54259 0.0
C726 C 0.87274 0.7069 0.47684 0.0
C727 C 0.89007 0.71003 0.4588 0.0
N728 N 0.89774 0.68793 0.45226 0.0
N729 N 0.86958 0.68291 0.48147 0.0
C730 C 0.88517 0.67186 0.46626 0.0
H731 H 0.86363 0.72116 0.48652 0.0
Co732 Co 0.85131 0.66749 0.50605 0.0
C733 C 0.82612 0.62885 0.4754 0.0
O734 O 0.8046 0.63725 0.48054 0.0
N735 N 0.8333 0.65061 0.5313 0.0
C736 C 0.80505 0.62938 0.5525 0.0
C737 C 0.80908 0.64494 0.53308 0.0
C738 C 0.8432 0.63882 0.55062 0.0
N739 N 0.82668 0.62557 0.56338 0.0
O740 O 0.88152 0.6551 0.51881 0.0
H741 H 0.79494 0.65143 0.52105 0.0
H742 H 0.86224 0.63928 0.55537 0.0
O743 O 0.84567 0.639 0.48419 0.0
C744 C 0.88967 0.67244 0.53251 0.0
O745 O 0.87606 0.69163 0.53495 0.0
N746 N 0.82318 0.68377 0.4954 0.0
C747 C 0.78874 0.71883 0.48448 0.0
C748 C 0.79851 0.70467 0.46581 0.0
C749 C 0.81598 0.68729 0.47166 0.0
C750 C 0.81413 0.69794 0.51349 0.0
C751 C 0.79653 0.71512 0.50853 0.0
H752 H 0.82463 0.67763 0.45707 0.0
H753 H 0.82134 0.69658 0.53189 0.0
H754 H 0.88804 0.65246 0.46612 0.0
H755 H 0.89705 0.72717 0.45157 0.0
H756 H 0.78768 0.6214 0.55814 0.0
H757 H 0.79337 0.70767 0.4469 0.0
H758 H 0.78986 0.72625 0.52325 0.0
C759 C 0.80642 0.37101 0.49317 0.0
C760 C 0.80446 0.38977 0.47648 0.0
N761 N 0.82594 0.40238 0.4762 0.0
N762 N 0.8292 0.37166 0.50288 0.0
C763 C 0.84038 0.39122 0.49249 0.0
H764 H 0.79236 0.35753 0.49753 0.0
Co765 Co 0.84464 0.35145 0.52521 0.0
C766 C 0.88754 0.33439 0.49826 0.0
O767 O 0.87948 0.31201 0.50196 0.0
N768 N 0.86201 0.33147 0.54806 0.0
C769 C 0.8843 0.30173 0.56397 0.0
C770 C 0.86422 0.30701 0.54972 0.0
C771 C 0.88037 0.34026 0.5626 0.0
N772 N 0.89426 0.3228 0.57226 0.0
O773 O 0.85506 0.38037 0.54225 0.0
H774 H 0.85372 0.29364 0.53932 0.0
H775 H 0.88498 0.35928 0.56487 0.0
O776 O 0.87435 0.35207 0.50486 0.0
C777 C 0.84229 0.38292 0.56144 0.0
O778 O 0.82871 0.36425 0.56878 0.0
N779 N 0.83024 0.32414 0.50959 0.0
C780 C 0.79587 0.29075 0.4905 0.0
C781 C 0.8133 0.30199 0.4752 0.0
C782 C 0.83031 0.31897 0.48513 0.0
C783 C 0.81309 0.31353 0.52441 0.0
C784 C 0.79611 0.29644 0.51537 0.0
H785 H 0.84242 0.32902 0.47302 0.0
H786 H 0.81205 0.3191 0.54332 0.0
H787 H 0.85901 0.39706 0.4965 0.0
H788 H 0.78868 0.3937 0.46523 0.0
H789 H 0.89162 0.28389 0.5671 0.0
H790 H 0.81308 0.29844 0.45573 0.0
H791 H 0.78253 0.28852 0.52753 0.0
C792 C 0.49035 0.21149 0.642 0.0
C793 C 0.47405 0.21846 0.62394 0.0
N794 N 0.46206 0.19835 0.61557 0.0
N795 N 0.48874 0.1871 0.64463 0.0
C796 C 0.47123 0.17979 0.62845 0.0
H797 H 0.50346 0.22322 0.65153 0.0
Co798 Co 0.50881 0.1648 0.66049 0.0
C799 C 0.46607 0.13582 0.6815 0.0
O800 O 0.46914 0.14586 0.70304 0.0
N801 N 0.52812 0.14022 0.67527 0.0
C802 C 0.5372 0.10772 0.69769 0.0
C803 C 0.52287 0.12771 0.69599 0.0
C804 C 0.54673 0.12786 0.66539 0.0
N805 N 0.55236 0.10796 0.67852 0.0
O806 O 0.51797 0.15383 0.62833 0.0
H807 H 0.50936 0.13242 0.70916 0.0
H808 H 0.55567 0.13261 0.64846 0.0
O809 O 0.48004 0.14174 0.66354 0.0
C810 C 0.5363 0.16865 0.62516 0.0
O811 O 0.54384 0.18166 0.64409 0.0
N812 N 0.50409 0.18028 0.69113 0.0
C813 C 0.50653 0.21257 0.73054 0.0
C814 C 0.48457 0.20886 0.71749 0.0
C815 C 0.48381 0.19283 0.69755 0.0
C816 C 0.52561 0.18439 0.7036 0.0
C817 C 0.52704 0.19987 0.72367 0.0
H818 H 0.46717 0.19107 0.6868 0.0
H819 H 0.5424 0.17684 0.6972 0.0
H820 H 0.46621 0.16093 0.62498 0.0
H821 H 0.47165 0.23671 0.61705 0.0
H822 H 0.53675 0.09414 0.71205 0.0
H823 H 0.46854 0.219 0.72205 0.0
H824 H 0.54446 0.20302 0.73287 0.0
C825 C 0.35958 0.04044 0.70769 0.0
C826 C 0.3758 0.05938 0.71381 0.0
N827 N 0.39024 0.06384 0.69439 0.0
N828 N 0.36389 0.03344 0.6845 0.0
C829 C 0.38291 0.04783 0.67726 0.0
H830 H 0.34566 0.03239 0.71933 0.0
Co831 Co 0.35094 0.00937 0.66351 0.0
C832 C 0.34276 0.05681 0.6363 0.0
O833 O 0.34288 0.06974 0.65642 0.0
N834 N 0.33899 0.986 0.64111 0.0
C835 C 0.31757 0.96977 0.61007 0.0
C836 C 0.31815 0.98755 0.62776 0.0
C837 C 0.35075 0.96715 0.63117 0.0
N838 N 0.33816 0.95718 0.61234 0.0
O839 O 0.38431 0.00272 0.65432 0.0
H840 H 0.30484 0.00157 0.62989 0.0
H841 H 0.3687 0.96135 0.63659 0.0
O842 O 0.34603 0.03381 0.63705 0.0
C843 C 0.38969 0.9875 0.6712 0.0
O844 O 0.37171 0.97931 0.68503 0.0
N845 N 0.31897 0.01212 0.67671 0.0
C846 C 0.27752 0.00727 0.7063 0.0
C847 C 0.28371 0.02964 0.69526 0.0
C848 C 0.30455 0.0317 0.68042 0.0
C849 C 0.31255 0.99018 0.68692 0.0
C850 C 0.29179 0.98725 0.70131 0.0
H851 H 0.30939 0.04926 0.67328 0.0
H852 H 0.32418 0.97479 0.68467 0.0
H853 H 0.3909 0.04717 0.65925 0.0
H854 H 0.3768 0.06917 0.73096 0.0
H855 H 0.30372 0.9669 0.59604 0.0
H856 H 0.27316 0.0456 0.69895 0.0
H857 H 0.2877 0.96974 0.70965 0.0
C858 C 0.49363 0.90115 0.71477 0.0
C859 C 0.4802 0.92186 0.71769 0.0
N860 N 0.4695 0.92736 0.69608 0.0
N861 N 0.49173 0.89375 0.69134 0.0
C862 C 0.47743 0.91037 0.68046 0.0
H863 H 0.50515 0.89287 0.72843 0.0
Co864 Co 0.51088 0.87135 0.67457 0.0
C865 C 0.46086 0.86334 0.64834 0.0
O866 O 0.44707 0.87308 0.66501 0.0
N867 N 0.53029 0.84988 0.65603 0.0
C868 C 0.53845 0.8224 0.62784 0.0
C869 C 0.52165 0.82978 0.64454 0.0
C870 C 0.55278 0.85382 0.64626 0.0
N871 N 0.55882 0.83697 0.62919 0.0
O872 O 0.5245 0.89868 0.6564 0.0
H873 H 0.50334 0.82216 0.64654 0.0
H874 H 0.56347 0.87001 0.65024 0.0
O875 O 0.48421 0.86357 0.65076 0.0
C876 C 0.54069 0.90725 0.67144 0.0
O877 O 0.54436 0.89545 0.692 0.0
N878 N 0.50006 0.84522 0.69547 0.0
C879 C 0.48892 0.80923 0.73037 0.0
C880 C 0.47111 0.82531 0.72247 0.0
C881 C 0.47709 0.84323 0.70514 0.0
C882 C 0.51779 0.83012 0.70382 0.0
C883 C 0.51249 0.81174 0.72083 0.0
H884 H 0.46349 0.85624 0.70073 0.0
H885 H 0.53648 0.83264 0.69788 0.0
H886 H 0.47364 0.9106 0.66103 0.0
H887 H 0.47884 0.93236 0.73432 0.0
H888 H 0.53439 0.80867 0.61422 0.0
H889 H 0.4529 0.82439 0.7301 0.0
H890 H 0.52691 0.80007 0.7271 0.0
C891 C 0.65118 0.99132 0.70396 0.0
C892 C 0.63185 0.97477 0.70718 0.0
N893 N 0.62081 0.97111 0.6853 0.0
N894 N 0.6521 0.99776 0.68015 0.0
C895 C 0.63346 0.98503 0.66948 0.0
H896 H 0.66308 0.99872 0.71814 0.0
Co897 Co 0.66966 0.02049 0.66163 0.0
C898 C 0.69042 0.98954 0.62218 0.0
O899 O 0.71038 0.00332 0.62097 0.0
N900 N 0.68604 0.04302 0.64143 0.0
C901 C 0.70325 0.07682 0.62615 0.0
C902 C 0.70235 0.06138 0.64609 0.0
C903 C 0.67774 0.04744 0.61857 0.0
N904 N 0.68751 0.06796 0.60915 0.0
O905 O 0.63885 0.03067 0.64827 0.0
H906 H 0.71146 0.06464 0.66341 0.0
H907 H 0.66324 0.03687 0.60968 0.0
O908 O 0.67345 0.99491 0.63697 0.0
C909 C 0.63446 0.05021 0.65981 0.0
O910 O 0.65221 0.06043 0.67285 0.0
N911 N 0.69883 0.01348 0.67866 0.0
C912 C 0.73592 0.01093 0.71405 0.0
C913 C 0.73404 0.9936 0.6952 0.0
C914 C 0.71525 0.9952 0.67754 0.0
C915 C 0.70065 0.03027 0.69696 0.0
C916 C 0.71914 0.02958 0.71453 0.0
H917 H 0.71385 0.98144 0.66365 0.0
H918 H 0.68721 0.04421 0.69823 0.0
H919 H 0.62865 0.98638 0.65029 0.0
H920 H 0.62589 0.96672 0.72425 0.0
H921 H 0.71329 0.09401 0.6249 0.0
H922 H 0.74659 0.97873 0.69451 0.0
H923 H 0.71982 0.0431 0.72894 0.0
C924 C 0.53196 0.85992 0.31443 0.0
C925 C 0.54839 0.87844 0.30825 0.0
N926 N 0.55722 0.88845 0.32909 0.0
N927 N 0.53072 0.85837 0.33902 0.0
C928 C 0.54621 0.87611 0.34735 0.0
H929 H 0.52131 0.84864 0.30188 0.0
Co930 Co 0.51083 0.83898 0.35896 0.0
C931 C 0.54679 0.81923 0.39374 0.0
O932 O 0.54046 0.79721 0.38642 0.0
N933 N 0.49096 0.81974 0.38104 0.0
C934 C 0.47185 0.79042 0.40269 0.0
C935 C 0.48681 0.79534 0.38308 0.0
C936 C 0.47877 0.82892 0.4003 0.0
N937 N 0.46693 0.81164 0.41333 0.0
O938 O 0.49765 0.86862 0.37132 0.0
H939 H 0.49445 0.7816 0.37158 0.0
H940 H 0.4783 0.84796 0.40497 0.0
O941 O 0.53702 0.83782 0.38389 0.0
C942 C 0.47734 0.86966 0.35957 0.0
O943 O 0.46925 0.84989 0.34831 0.0
N944 N 0.52066 0.81133 0.34204 0.0
C945 C 0.52699 0.77587 0.30661 0.0
C946 C 0.54738 0.7866 0.31856 0.0
C947 C 0.54382 0.80482 0.33606 0.0
C948 C 0.50101 0.80177 0.32949 0.0
C949 C 0.50368 0.78359 0.31227 0.0
H950 H 0.55951 0.81431 0.34405 0.0
H951 H 0.48298 0.80855 0.33268 0.0
H952 H 0.54893 0.88039 0.36651 0.0
H953 H 0.55319 0.88437 0.28999 0.0
H954 H 0.46488 0.77275 0.40852 0.0
H955 H 0.56573 0.78157 0.31377 0.0
H956 H 0.48768 0.77622 0.30275 0.0
C957 C 0.70473 0.97861 0.37863 0.0
C958 C 0.71026 0.96207 0.39674 0.0
N959 N 0.68922 0.95426 0.40714 0.0
N960 N 0.68028 0.98117 0.37766 0.0
C961 C 0.67138 0.96598 0.39516 0.0
H962 H 0.71772 0.98876 0.36752 0.0
Co963 Co 0.66142 0.00352 0.36006 0.0
C964 C 0.6256 0.96946 0.33633 0.0
O965 O 0.63107 0.97889 0.31496 0.0
N966 N 0.64038 0.02564 0.34297 0.0
C967 C 0.61956 0.04704 0.31527 0.0
C968 C 0.63817 0.03102 0.31884 0.0
C969 C 0.62231 0.03852 0.3534 0.0
N970 N 0.60962 0.05158 0.33706 0.0
O971 O 0.64891 0.01506 0.39033 0.0
H972 H 0.64893 0.02356 0.30434 0.0
H973 H 0.61829 0.03874 0.37269 0.0
O974 O 0.63603 0.97772 0.35578 0.0
C975 C 0.6662 0.03 0.39689 0.0
O976 O 0.68721 0.02927 0.38546 0.0
N977 N 0.67844 0.99628 0.33131 0.0
C978 C 0.7142 0.99539 0.29513 0.0
C979 C 0.70151 0.97386 0.30204 0.0
C980 C 0.68368 0.97464 0.32049 0.0
C981 C 0.69139 0.01693 0.32523 0.0
C982 C 0.70861 0.01708 0.30676 0.0
H983 H 0.67507 0.95791 0.3268 0.0
H984 H 0.6885 0.03358 0.33517 0.0
H985 H 0.65218 0.96418 0.39969 0.0
H986 H 0.72835 0.95651 0.40219 0.0
H987 H 0.61389 0.05495 0.29807 0.0
H988 H 0.706 0.9566 0.29395 0.0
H989 H 0.71843 0.0339 0.30241 0.0
C990 C 0.47972 0.13733 0.29537 0.0
C991 C 0.46329 0.11804 0.29192 0.0
N992 N 0.45985 0.1071 0.31369 0.0
N993 N 0.4861 0.13851 0.31926 0.0
C994 C 0.47408 0.11948 0.32971 0.0
H995 H 0.48648 0.14968 0.28141 0.0
Co996 Co 0.50814 0.15897 0.33633 0.0
C997 C 0.46079 0.16409 0.36549 0.0
O998 O 0.44601 0.15607 0.34813 0.0
N999 N 0.53008 0.17896 0.35505 0.0
C1000 C 0.54478 0.2092 0.37875 0.0
C1001 C 0.52862 0.203 0.36011 0.0
C1002 C 0.547 0.17106 0.37125 0.0
N1003 N 0.55612 0.18891 0.38563 0.0
O1004 O 0.52068 0.13071 0.35245 0.0
H1005 H 0.51549 0.21505 0.35204 0.0
H1006 H 0.55186 0.15234 0.37381 0.0
O1007 O 0.48396 0.16536 0.36223 0.0
C1008 C 0.53533 0.12162 0.33697 0.0
O1009 O 0.53607 0.13088 0.31481 0.0
N1010 N 0.49898 0.18589 0.31706 0.0
C1011 C 0.49266 0.22149 0.2812 0.0
C1012 C 0.47257 0.21204 0.29419 0.0
C1013 C 0.47611 0.19402 0.31195 0.0
C1014 C 0.51853 0.19463 0.30406 0.0
C1015 C 0.51586 0.21266 0.28636 0.0
H1016 H 0.46033 0.18573 0.32019 0.0
H1017 H 0.53638 0.18713 0.30713 0.0
H1018 H 0.47514 0.11515 0.349 0.0
H1019 H 0.45424 0.11276 0.275 0.0
H1020 H 0.54705 0.22679 0.38746 0.0
H1021 H 0.45427 0.21797 0.29007 0.0
H1022 H 0.5317 0.21921 0.2763 0.0
C1023 C 0.31917 0.02041 0.38643 0.0
C1024 C 0.31686 0.03859 0.40369 0.0
N1025 N 0.33939 0.04773 0.40904 0.0
N1026 N 0.34302 0.01848 0.38084 0.0
C1027 C 0.35475 0.03548 0.39486 0.0
H1028 H 0.30459 0.00877 0.37917 0.0
Co1029 Co 0.35983 0.99484 0.36342 0.0
C1030 C 0.39045 0.03124 0.33486 0.0
O1031 O 0.3787 0.02671 0.31435 0.0
N1032 N 0.37897 0.97162 0.34664 0.0
C1033 C 0.40574 0.9572 0.32014 0.0
C1034 C 0.3869 0.97279 0.32329 0.0
C1035 C 0.39251 0.95386 0.35677 0.0
N1036 N 0.40927 0.94524 0.34125 0.0
O1037 O 0.37607 0.98695 0.39356 0.0
H1038 H 0.37989 0.98444 0.30923 0.0
H1039 H 0.39094 0.94786 0.37544 0.0
O1040 O 0.38472 0.02012 0.35468 0.0
C1041 C 0.35974 0.97318 0.40361 0.0
O1042 O 0.33963 0.96792 0.39114 0.0
N1043 N 0.33992 0.99974 0.33525 0.0
C1044 C 0.30559 1.0 0.29707 0.0
C1045 C 0.31382 0.02189 0.30794 0.0
C1046 C 0.33078 0.02134 0.32736 0.0
C1047 C 0.33064 0.97837 0.32579 0.0
C1048 C 0.31413 0.9781 0.30628 0.0
H1049 H 0.33651 0.0382 0.3361 0.0
H1050 H 0.33577 0.96119 0.33367 0.0
H1051 H 0.37441 0.03822 0.39549 0.0
H1052 H 0.30008 0.04444 0.41192 0.0
H1053 H 0.41622 0.95492 0.30363 0.0
H1054 H 0.30695 0.03913 0.30168 0.0
H1055 H 0.30746 0.96086 0.2989 0.0
C1056 C 0.69956 0.14293 0.47674 0.0
C1057 C 0.70226 0.12306 0.46154 0.0
N1058 N 0.67992 0.11287 0.45743 0.0
N1059 N 0.67557 0.14517 0.48166 0.0
C1060 C 0.66423 0.12668 0.46947 0.0
H1061 H 0.71408 0.15446 0.48427 0.0
Co1062 Co 0.65816 0.16453 0.50303 0.0
C1063 C 0.62335 0.18342 0.46511 0.0
O1064 O 0.63223 0.20566 0.46737 0.0
N1065 N 0.63839 0.18302 0.52458 0.0
C1066 C 0.60935 0.2084 0.53576 0.0
C1067 C 0.62937 0.20545 0.52113 0.0
C1068 C 0.62444 0.17363 0.54291 0.0
N1069 N 0.60622 0.18823 0.54944 0.0
O1070 O 0.64546 0.13477 0.51723 0.0
H1071 H 0.63624 0.21879 0.50829 0.0
H1072 H 0.62664 0.15591 0.55079 0.0
O1073 O 0.63171 0.16601 0.47806 0.0
C1074 C 0.66292 0.12969 0.532 0.0
O1075 O 0.68108 0.14567 0.53461 0.0
N1076 N 0.67509 0.19281 0.49151 0.0
C1077 C 0.71247 0.22688 0.4812 0.0
C1078 C 0.70072 0.21389 0.46224 0.0
C1079 C 0.68215 0.19671 0.46782 0.0
C1080 C 0.68641 0.20558 0.50999 0.0
C1081 C 0.70478 0.22296 0.5052 0.0
H1082 H 0.67457 0.1855 0.4533 0.0
H1083 H 0.68229 0.20121 0.5288 0.0
H1084 H 0.64472 0.12287 0.46993 0.0
H1085 H 0.7192 0.11643 0.45435 0.0
H1086 H 0.59774 0.22403 0.53606 0.0
H1087 H 0.70668 0.21613 0.44353 0.0
H1088 H 0.71391 0.23229 0.5203 0.0
C1089 C 0.64328 0.80614 0.49927 0.0
C1090 C 0.62668 0.79985 0.48113 0.0
N1091 N 0.61755 0.82047 0.47195 0.0
N1092 N 0.64466 0.8306 0.50122 0.0
C1093 C 0.62847 0.83881 0.48458 0.0
H1094 H 0.65393 0.79373 0.51009 0.0
Co1095 Co 0.66518 0.84911 0.52153 0.0
C1096 C 0.68596 0.88786 0.48917 0.0
O1097 O 0.70708 0.8851 0.50029 0.0
N1098 N 0.68544 0.86887 0.5425 0.0
C1099 C 0.71264 0.88553 0.56868 0.0
C1100 C 0.70686 0.86545 0.55452 0.0
C1101 C 0.67894 0.8914 0.54959 0.0
N1102 N 0.69495 0.90171 0.56556 0.0
O1103 O 0.63647 0.86168 0.53739 0.0
H1104 H 0.71779 0.8495 0.55377 0.0
H1105 H 0.6624 0.9 0.54357 0.0
O1106 O 0.66706 0.87532 0.49611 0.0
C1107 C 0.6321 0.84635 0.55461 0.0
O1108 O 0.64684 0.82803 0.55723 0.0
N1109 N 0.69198 0.83301 0.50821 0.0
C1110 C 0.72406 0.79819 0.49141 0.0
C1111 C 0.71273 0.81395 0.47493 0.0
C1112 C 0.69632 0.831 0.48372 0.0
C1113 C 0.70178 0.8167 0.52406 0.0
C1114 C 0.71843 0.7997 0.51621 0.0
H1115 H 0.68577 0.84124 0.47072 0.0
H1116 H 0.69563 0.81601 0.54278 0.0
H1117 H 0.62488 0.85784 0.48157 0.0
H1118 H 0.62165 0.78163 0.47512 0.0
H1119 H 0.72815 0.88776 0.58098 0.0
H1120 H 0.71575 0.81239 0.45547 0.0
H1121 H 0.72594 0.78699 0.52924 0.0
C1122 C 0.31319 0.14911 0.52957 0.0
C1123 C 0.30859 0.13379 0.54907 0.0
N1124 N 0.3298 0.12401 0.55693 0.0
N1125 N 0.33703 0.14838 0.52418 0.0
C1126 C 0.34601 0.13156 0.53966 0.0
H1127 H 0.29998 0.15988 0.51986 0.0
Co1128 Co 0.35592 0.16545 0.50079 0.0
C1129 C 0.38322 0.17634 0.54918 0.0
O1130 O 0.36382 0.17246 0.56272 0.0
N1131 N 0.37651 0.18199 0.47808 0.0
C1132 C 0.40207 0.20982 0.46176 0.0
C1133 C 0.38464 0.20545 0.4794 0.0
C1134 C 0.38984 0.17243 0.45986 0.0
N1135 N 0.40517 0.18896 0.44957 0.0
O1136 O 0.36926 0.13487 0.49071 0.0
H1137 H 0.37894 0.21843 0.4929 0.0
H1138 H 0.38932 0.15351 0.45463 0.0
O1139 O 0.38198 0.17355 0.52585 0.0
C1140 C 0.35213 0.12691 0.47622 0.0
O1141 O 0.3318 0.13908 0.47488 0.0
N1142 N 0.33848 0.19439 0.50615 0.0
C1143 C 0.30496 0.23194 0.50473 0.0
C1144 C 0.31663 0.22573 0.52668 0.0
C1145 C 0.3332 0.2067 0.52705 0.0
C1146 C 0.32704 0.20036 0.48474 0.0
C1147 C 0.31057 0.21925 0.48352 0.0
H1148 H 0.3403 0.20129 0.54434 0.0
H1149 H 0.33025 0.18987 0.46842 0.0
H1150 H 0.36443 0.12533 0.53798 0.0
H1151 H 0.29056 0.12993 0.55623 0.0
H1152 H 0.41193 0.22681 0.45833 0.0
H1153 H 0.31218 0.23484 0.54356 0.0
H1154 H 0.30155 0.22328 0.46633 0.0
C1155 C 0.32209 0.86562 0.48213 0.0
C1156 C 0.32212 0.88502 0.46596 0.0
N1157 N 0.34448 0.89603 0.46655 0.0
N1158 N 0.34442 0.86445 0.49262 0.0
C1159 C 0.35747 0.88315 0.48269 0.0
H1160 H 0.30669 0.85366 0.48642 0.0
Co1161 Co 0.35806 0.84526 0.51711 0.0
C1162 C 0.3964 0.82127 0.48922 0.0
O1163 O 0.38912 0.80019 0.49823 0.0
N1164 N 0.37419 0.82673 0.54199 0.0
C1165 C 0.39047 0.79909 0.56703 0.0
C1166 C 0.37344 0.80295 0.54867 0.0
C1167 C 0.39214 0.83652 0.55649 0.0
N1168 N 0.40188 0.8205 0.57202 0.0
O1169 O 0.37128 0.87454 0.53144 0.0
H1170 H 0.36184 0.78894 0.54048 0.0
H1171 H 0.39851 0.85525 0.55606 0.0
O1172 O 0.38614 0.8408 0.49578 0.0
C1173 C 0.35407 0.88113 0.54542 0.0
O1174 O 0.33356 0.86811 0.5456 0.0
N1175 N 0.34055 0.81761 0.50516 0.0
C1176 C 0.304 0.78363 0.49203 0.0
C1177 C 0.32143 0.79142 0.47495 0.0
C1178 C 0.3395 0.80866 0.48184 0.0
C1179 C 0.32322 0.81048 0.52168 0.0
C1180 C 0.3051 0.79317 0.51568 0.0
H1181 H 0.35175 0.81539 0.46812 0.0
H1182 H 0.32316 0.81878 0.53959 0.0
H1183 H 0.37622 0.88773 0.48771 0.0
H1184 H 0.30667 0.89118 0.45535 0.0
H1185 H 0.39387 0.78209 0.57629 0.0
H1186 H 0.32062 0.78478 0.45632 0.0
H1187 H 0.29152 0.7879 0.52912 0.0
C1188 C 0.49357 0.70495 0.13992 0.0
C1189 C 0.47568 0.71134 0.12325 0.0
N1190 N 0.4637 0.69086 0.11581 0.0
N1191 N 0.49265 0.68058 0.14293 0.0
C1192 C 0.47404 0.67266 0.12829 0.0
H1193 H 0.50731 0.71703 0.14802 0.0
Co1194 Co 0.51502 0.65939 0.15716 0.0
C1195 C 0.47538 0.63 0.18289 0.0
O1196 O 0.47989 0.64019 0.20414 0.0
N1197 N 0.53667 0.63615 0.17055 0.0
C1198 C 0.54968 0.6053 0.19321 0.0
C1199 C 0.53397 0.62423 0.19205 0.0
C1200 C 0.5552 0.6246 0.15951 0.0
N1201 N 0.56317 0.60561 0.17281 0.0
O1202 O 0.52031 0.64656 0.12509 0.0
H1203 H 0.52131 0.62867 0.20615 0.0
H1204 H 0.56243 0.6295 0.14182 0.0
O1205 O 0.48764 0.63612 0.16388 0.0
C1206 C 0.5358 0.6625 0.11705 0.0
O1207 O 0.54371 0.67969 0.13208 0.0
N1208 N 0.51327 0.67586 0.18753 0.0
C1209 C 0.51838 0.7071 0.2275 0.0
C1210 C 0.49533 0.70262 0.21676 0.0
C1211 C 0.49322 0.6872 0.19641 0.0
C1212 C 0.53587 0.68119 0.19733 0.0
C1213 C 0.53874 0.69616 0.21767 0.0
H1214 H 0.47557 0.68464 0.18758 0.0
H1215 H 0.55215 0.67462 0.18879 0.0
H1216 H 0.46932 0.65364 0.1253 0.0
H1217 H 0.47251 0.7294 0.1162 0.0
H1218 H 0.5513 0.59238 0.20806 0.0
H1219 H 0.47934 0.71148 0.22362 0.0
H1220 H 0.55688 0.70002 0.22503 0.0
C1221 C 0.37657 0.52988 0.21629 0.0
C1222 C 0.39432 0.54795 0.22021 0.0
N1223 N 0.40286 0.55518 0.19828 0.0
N1224 N 0.37404 0.5261 0.192 0.0
C1225 C 0.39048 0.54168 0.18173 0.0
H1226 H 0.36677 0.5198 0.23026 0.0
Co1227 Co 0.35704 0.5027 0.17323 0.0
C1228 C 0.34409 0.55086 0.14997 0.0
O1229 O 0.34431 0.56167 0.17139 0.0
N1230 N 0.3409 0.47967 0.1535 0.0
C1231 C 0.31913 0.46556 0.12177 0.0
C1232 C 0.32085 0.48329 0.13947 0.0
C1233 C 0.35052 0.45921 0.14452 0.0
N1234 N 0.33802 0.45074 0.12494 0.0
O1235 O 0.38764 0.49583 0.15727 0.0
H1236 H 0.3096 0.49911 0.14035 0.0
H1237 H 0.36748 0.45167 0.15072 0.0
O1238 O 0.34841 0.52805 0.14868 0.0
C1239 C 0.39895 0.4817 0.1719 0.0
O1240 O 0.38804 0.47537 0.19234 0.0
N1241 N 0.32829 0.506 0.19163 0.0
C1242 C 0.28889 0.49996 0.22367 0.0
C1243 C 0.28793 0.51677 0.20429 0.0
C1244 C 0.30773 0.51918 0.18809 0.0
C1245 C 0.32918 0.48944 0.21016 0.0
C1246 C 0.30976 0.48603 0.22623 0.0
H1247 H 0.30604 0.53093 0.17251 0.0
H1248 H 0.34515 0.47849 0.21232 0.0
H1249 H 0.39379 0.54285 0.16231 0.0
H1250 H 0.40053 0.55512 0.23767 0.0
H1251 H 0.30629 0.46473 0.1066 0.0
H1252 H 0.2719 0.52761 0.20152 0.0
H1253 H 0.31114 0.47272 0.24077 0.0
C1254 C 0.48295 0.37608 0.19004 0.0
C1255 C 0.46652 0.39456 0.19203 0.0
N1256 N 0.46869 0.40902 0.17223 0.0
N1257 N 0.49541 0.37878 0.16896 0.0
C1258 C 0.48652 0.39931 0.15876 0.0
H1259 H 0.48558 0.36169 0.20321 0.0
Co1260 Co 0.52015 0.35949 0.15542 0.0
C1261 C 0.4776 0.35314 0.121 0.0
O1262 O 0.46205 0.35706 0.13858 0.0
N1263 N 0.5448 0.3408 0.14024 0.0
C1264 C 0.56285 0.31097 0.11996 0.0
C1265 C 0.54472 0.31648 0.13625 0.0
C1266 C 0.56331 0.34948 0.12594 0.0
N1267 N 0.57445 0.33182 0.1135 0.0
O1268 O 0.53623 0.38878 0.14385 0.0
H1269 H 0.53153 0.30346 0.14352 0.0
H1270 H 0.56814 0.36851 0.12358 0.0
O1271 O 0.50064 0.35404 0.12527 0.0
C1272 C 0.54782 0.39669 0.16287 0.0
O1273 O 0.54349 0.3861 0.184 0.0
N1274 N 0.50737 0.33131 0.17141 0.0
C1275 C 0.49704 0.29402 0.20487 0.0
C1276 C 0.48166 0.29761 0.18463 0.0
C1277 C 0.48719 0.31637 0.16797 0.0
C1278 C 0.52247 0.32769 0.19098 0.0
C1279 C 0.51771 0.30921 0.20786 0.0
H1280 H 0.47507 0.31848 0.15273 0.0
H1281 H 0.53839 0.33949 0.19361 0.0
H1282 H 0.4927 0.40682 0.14152 0.0
H1283 H 0.45408 0.39737 0.20699 0.0
H1284 H 0.56675 0.29314 0.11282 0.0
H1285 H 0.46553 0.28607 0.1818 0.0
H1286 H 0.53 0.30691 0.22329 0.0
C1287 C 0.65633 0.48663 0.19756 0.0
C1288 C 0.63734 0.46986 0.20129 0.0
N1289 N 0.62754 0.46404 0.17931 0.0
N1290 N 0.65837 0.49085 0.17334 0.0
C1291 C 0.64057 0.47682 0.16287 0.0
H1292 H 0.66748 0.49549 0.21152 0.0
Co1293 Co 0.67683 0.51258 0.1548 0.0
C1294 C 0.69929 0.48076 0.11865 0.0
O1295 O 0.72043 0.49146 0.12401 0.0
N1296 N 0.69447 0.53428 0.13388 0.0
C1297 C 0.71529 0.56499 0.11648 0.0
C1298 C 0.71453 0.54913 0.13604 0.0
C1299 C 0.6844 0.54068 0.11222 0.0
N1300 N 0.69597 0.55978 0.10184 0.0
O1301 O 0.64626 0.52453 0.14221 0.0
H1302 H 0.72693 0.55001 0.15145 0.0
H1303 H 0.66744 0.53293 0.10503 0.0
O1304 O 0.6799 0.48743 0.12943 0.0
C1305 C 0.64396 0.54461 0.15366 0.0
O1306 O 0.66296 0.55345 0.1659 0.0
N1307 N 0.70532 0.50381 0.17187 0.0
C1308 C 0.74064 0.49796 0.20838 0.0
C1309 C 0.73305 0.47814 0.1937 0.0
C1310 C 0.71496 0.48139 0.17561 0.0
C1311 C 0.71197 0.52269 0.18686 0.0
C1312 C 0.73002 0.52041 0.20463 0.0
H1313 H 0.70794 0.46575 0.16564 0.0
H1314 H 0.70256 0.53965 0.18557 0.0
H1315 H 0.63677 0.47635 0.14342 0.0
H1316 H 0.63105 0.46273 0.21865 0.0
H1317 H 0.72758 0.58062 0.11447 0.0
H1318 H 0.74028 0.46026 0.19688 0.0
H1319 H 0.73477 0.53581 0.21625 0.0
C1320 C 0.52723 0.37252 0.81065 0.0
C1321 C 0.54474 0.39014 0.80474 0.0
N1322 N 0.55321 0.4002 0.82571 0.0
N1323 N 0.52498 0.37158 0.83519 0.0
C1324 C 0.5408 0.3889 0.84371 0.0
H1325 H 0.51698 0.36104 0.79794 0.0
Co1326 Co 0.50465 0.35266 0.85528 0.0
C1327 C 0.5408 0.33313 0.8908 0.0
O1328 O 0.53161 0.31103 0.88792 0.0
N1329 N 0.48428 0.33397 0.87701 0.0
C1330 C 0.46355 0.30497 0.8976 0.0
C1331 C 0.47996 0.30961 0.8791 0.0
C1332 C 0.47059 0.34341 0.89502 0.0
N1333 N 0.45759 0.3264 0.90726 0.0
O1334 O 0.49256 0.38204 0.86875 0.0
H1335 H 0.48807 0.29579 0.86801 0.0
H1336 H 0.46916 0.36257 0.89888 0.0
O1337 O 0.53154 0.35098 0.87929 0.0
C1338 C 0.47574 0.38751 0.85343 0.0
O1339 O 0.47301 0.37425 0.83358 0.0
N1340 N 0.51321 0.32471 0.83825 0.0
C1341 C 0.51621 0.28672 0.80498 0.0
C1342 C 0.53717 0.29508 0.8178 0.0
C1343 C 0.53534 0.31452 0.83429 0.0
C1344 C 0.49313 0.31729 0.82501 0.0
C1345 C 0.49409 0.29805 0.80871 0.0
H1346 H 0.55164 0.32169 0.8432 0.0
H1347 H 0.47606 0.32645 0.82728 0.0
H1348 H 0.54349 0.393 0.86291 0.0
H1349 H 0.55116 0.39481 0.78663 0.0
H1350 H 0.45576 0.28743 0.90282 0.0
H1351 H 0.55472 0.28706 0.81463 0.0
H1352 H 0.47776 0.2924 0.79865 0.0
C1353 C 0.70531 0.49229 0.87069 0.0
C1354 C 0.71199 0.47693 0.88956 0.0
N1355 N 0.69182 0.47123 0.90259 0.0
N1356 N 0.681 0.49578 0.87175 0.0
C1357 C 0.67365 0.48341 0.8919 0.0
H1358 H 0.71728 0.49997 0.85689 0.0
Co1359 Co 0.65912 0.51453 0.85308 0.0
C1360 C 0.63464 0.46345 0.85162 0.0
O1361 O 0.65403 0.45167 0.85852 0.0
N1362 N 0.6353 0.53232 0.83577 0.0
C1363 C 0.60153 0.53716 0.81338 0.0
C1364 C 0.62215 0.52365 0.81646 0.0
C1365 C 0.6224 0.55142 0.84372 0.0
N1366 N 0.60182 0.55468 0.83054 0.0
O1367 O 0.64732 0.52763 0.883 0.0
H1368 H 0.62621 0.50728 0.8065 0.0
H1369 H 0.62653 0.56153 0.86018 0.0
O1370 O 0.63531 0.48674 0.85042 0.0
C1371 C 0.66442 0.54396 0.88611 0.0
O1372 O 0.6829 0.54458 0.87086 0.0
N1373 N 0.67463 0.5065 0.82362 0.0
C1374 C 0.70804 0.50527 0.78544 0.0
C1375 C 0.70053 0.48371 0.79729 0.0
C1376 C 0.68374 0.48474 0.81654 0.0
C1377 C 0.68166 0.52741 0.81177 0.0
C1378 C 0.69792 0.52714 0.79241 0.0
H1379 H 0.68008 0.46857 0.827 0.0
H1380 H 0.6759 0.54484 0.81839 0.0
H1381 H 0.65484 0.48224 0.89791 0.0
H1382 H 0.72989 0.46956 0.89273 0.0
H1383 H 0.58699 0.53386 0.80015 0.0
H1384 H 0.70867 0.46659 0.79272 0.0
H1385 H 0.70382 0.54416 0.78403 0.0
C1386 C 0.47906 0.64104 0.80775 0.0
C1387 C 0.46203 0.62234 0.80404 0.0
N1388 N 0.45336 0.61534 0.826 0.0
N1389 N 0.48098 0.64566 0.83192 0.0
C1390 C 0.46519 0.62958 0.84247 0.0
H1391 H 0.48993 0.65002 0.79382 0.0
Co1392 Co 0.50372 0.66514 0.84878 0.0
C1393 C 0.47591 0.68305 0.89207 0.0
O1394 O 0.48809 0.70397 0.89171 0.0
N1395 N 0.527 0.68396 0.86667 0.0
C1396 C 0.55775 0.7087 0.8786 0.0
C1397 C 0.54074 0.70381 0.86042 0.0
C1398 C 0.53592 0.67733 0.88877 0.0
N1399 N 0.55456 0.69198 0.89629 0.0
O1400 O 0.51832 0.63572 0.86037 0.0
H1401 H 0.53957 0.71355 0.84335 0.0
H1402 H 0.52967 0.66132 0.89867 0.0
O1403 O 0.48085 0.6665 0.87658 0.0
C1404 C 0.53718 0.63311 0.84703 0.0
O1405 O 0.54397 0.65124 0.83272 0.0
N1406 N 0.49161 0.69317 0.83332 0.0
C1407 C 0.48281 0.73242 0.80223 0.0
C1408 C 0.46726 0.72732 0.82202 0.0
C1409 C 0.47194 0.70741 0.83742 0.0
C1410 C 0.50582 0.69726 0.81329 0.0
C1411 C 0.50205 0.71692 0.79781 0.0
H1412 H 0.45963 0.70362 0.85224 0.0
H1413 H 0.52071 0.68533 0.80958 0.0
H1414 H 0.46287 0.62764 0.862 0.0
H1415 H 0.4565 0.61443 0.78668 0.0
H1416 H 0.57211 0.72264 0.87834 0.0
H1417 H 0.45182 0.73868 0.82557 0.0
H1418 H 0.51411 0.72002 0.78244 0.0
C1419 C 0.30479 0.52979 0.88197 0.0
C1420 C 0.30031 0.54656 0.90022 0.0
N1421 N 0.32152 0.55126 0.91221 0.0
N1422 N 0.3288 0.52459 0.88239 0.0
C1423 C 0.3382 0.53771 0.90126 0.0
H1424 H 0.29147 0.52193 0.86934 0.0
Co1425 Co 0.34824 0.50252 0.86557 0.0
C1426 C 0.37491 0.55147 0.85679 0.0
O1427 O 0.35591 0.56441 0.86198 0.0
N1428 N 0.36977 0.48132 0.84973 0.0
C1429 C 0.39773 0.46816 0.82365 0.0
C1430 C 0.37833 0.48333 0.8266 0.0
C1431 C 0.38479 0.46524 0.86051 0.0
N1432 N 0.40163 0.45702 0.84511 0.0
O1433 O 0.36127 0.4925 0.89678 0.0
H1434 H 0.37187 0.49606 0.81308 0.0
H1435 H 0.38454 0.46033 0.87961 0.0
O1436 O 0.3737 0.52821 0.8586 0.0
C1437 C 0.34393 0.47747 0.90299 0.0
O1438 O 0.32461 0.47528 0.88859 0.0
N1439 N 0.33116 0.50783 0.83587 0.0
C1440 C 0.2998 0.50665 0.7953 0.0
C1441 C 0.30863 0.5289 0.80479 0.0
C1442 C 0.32405 0.5291 0.82542 0.0
C1443 C 0.32186 0.48617 0.82715 0.0
C1444 C 0.30663 0.48512 0.80664 0.0
H1445 H 0.3286 0.54622 0.83377 0.0
H1446 H 0.3259 0.4694 0.83653 0.0
H1447 H 0.35733 0.53788 0.90654 0.0
H1448 H 0.28309 0.55493 0.90408 0.0
H1449 H 0.40858 0.46602 0.80738 0.0
H1450 H 0.30278 0.54593 0.79699 0.0
H1451 H 0.2995 0.46767 0.80023 0.0
C1452 C 0.70475 0.64813 0.97674 0.0
C1453 C 0.7083 0.63004 0.95962 0.0
N1454 N 0.68659 0.61855 0.95554 0.0
N1455 N 0.68087 0.64796 0.98282 0.0
C1456 C 0.67046 0.62968 0.96966 0.0
H1457 H 0.7186 0.66044 0.98428 0.0
Co1458 Co 0.66301 0.66503 0.00543 0.0
C1459 C 0.62334 0.68518 0.97534 0.0
O1460 O 0.62675 0.70609 0.98666 0.0
N1461 N 0.64337 0.68076 0.0283 0.0
C1462 C 0.62718 0.69672 0.06171 0.0
C1463 C 0.64753 0.69657 0.04691 0.0
C1464 C 0.6203 0.67207 0.03205 0.0
N1465 N 0.61038 0.68094 0.05238 0.0
O1466 O 0.65112 0.63479 0.01837 0.0
H1467 H 0.66457 0.70617 0.05078 0.0
H1468 H 0.61146 0.65802 0.021 0.0
O1469 O 0.63635 0.66707 0.98121 0.0
C1470 C 0.66793 0.63009 0.03386 0.0
O1471 O 0.68717 0.64486 0.03538 0.0
N1472 N 0.67846 0.69429 0.99531 0.0
C1473 C 0.71366 0.73056 0.98544 0.0
C1474 C 0.69678 0.72313 0.9673 0.0
C1475 C 0.67936 0.70463 0.97255 0.0
C1476 C 0.69518 0.70122 0.01274 0.0
C1477 C 0.71253 0.7196 0.00841 0.0
H1478 H 0.66773 0.69786 0.95799 0.0
H1479 H 0.69608 0.69134 0.02977 0.0
H1480 H 0.65124 0.62452 0.97036 0.0
H1481 H 0.72527 0.62579 0.95077 0.0
H1482 H 0.62534 0.70665 0.07864 0.0
H1483 H 0.69771 0.73084 0.9491 0.0
H1484 H 0.7258 0.72439 0.02254 0.0
C1485 C 0.72239 0.37237 0.02867 0.0
C1486 C 0.72756 0.38991 0.04611 0.0
N1487 N 0.70702 0.40208 0.05015 0.0
N1488 N 0.69857 0.37342 0.02189 0.0
C1489 C 0.68991 0.39203 0.03521 0.0
H1490 H 0.73543 0.35993 0.02149 0.0
Co1491 Co 0.67935 0.3557 0.99861 0.0
C1492 C 0.65508 0.34627 0.04655 0.0
O1493 O 0.67692 0.34556 0.05666 0.0
N1494 N 0.65945 0.33894 0.97542 0.0
C1495 C 0.64367 0.31301 0.9478 0.0
C1496 C 0.66332 0.31812 0.96303 0.0
C1497 C 0.63737 0.34616 0.96717 0.0
N1498 N 0.62755 0.33084 0.9503 0.0
O1499 O 0.66649 0.38618 0.98719 0.0
H1500 H 0.67946 0.30732 0.9645 0.0
H1501 H 0.62867 0.36254 0.97313 0.0
O1502 O 0.6532 0.35012 0.02342 0.0
C1503 C 0.68294 0.39459 0.97268 0.0
O1504 O 0.70307 0.38239 0.97022 0.0
N1505 N 0.69497 0.32653 0.00635 0.0
C1506 C 0.72363 0.28521 0.00746 0.0
C1507 C 0.70132 0.28557 0.02006 0.0
C1508 C 0.68675 0.30621 0.01852 0.0
C1509 C 0.71616 0.32597 0.99345 0.0
C1510 C 0.73061 0.30558 0.99361 0.0
H1511 H 0.6687 0.30541 0.02621 0.0
H1512 H 0.72168 0.34147 0.98247 0.0
H1513 H 0.67123 0.39799 0.03417 0.0
H1514 H 0.745 0.39355 0.05507 0.0
H1515 H 0.64171 0.29788 0.93522 0.0
H1516 H 0.695 0.26986 0.03043 0.0
H1517 H 0.74738 0.30583 0.98318 0.0
C1518 C 0.3098 0.63263 0.03554 0.0
C1519 C 0.30575 0.61601 0.05411 0.0
N1520 N 0.32713 0.61258 0.06586 0.0
N1521 N 0.33364 0.63959 0.0356 0.0
C1522 C 0.3437 0.62707 0.05433 0.0
H1523 H 0.29642 0.63872 0.02239 0.0
Co1524 Co 0.34967 0.65892 0.01214 0.0
C1525 C 0.39029 0.68383 0.03936 0.0
O1526 O 0.38632 0.70362 0.02665 0.0
N1527 N 0.36717 0.67789 0.98798 0.0
C1528 C 0.38143 0.70496 0.96061 0.0
C1529 C 0.36335 0.69981 0.97737 0.0
C1530 C 0.38813 0.67055 0.97745 0.0
N1531 N 0.39677 0.68633 0.9605 0.0
O1532 O 0.36202 0.62961 0.99809 0.0
H1533 H 0.34868 0.71182 0.98132 0.0
H1534 H 0.3969 0.65366 0.9818 0.0
O1535 O 0.37757 0.66429 0.0351 0.0
C1536 C 0.34566 0.62471 0.98176 0.0
O1537 O 0.32766 0.63977 0.97877 0.0
N1538 N 0.33325 0.68601 0.02369 0.0
C1539 C 0.30079 0.72217 0.03577 0.0
C1540 C 0.31741 0.71363 0.0533 0.0
C1541 C 0.33328 0.69501 0.04696 0.0
C1542 C 0.31563 0.69269 0.00744 0.0
C1543 C 0.29975 0.7112 0.01279 0.0
H1544 H 0.34484 0.68724 0.06085 0.0
H1545 H 0.31414 0.68374 0.98989 0.0
H1546 H 0.36295 0.62787 0.05906 0.0
H1547 H 0.28853 0.60695 0.05853 0.0
H1548 H 0.38285 0.72082 0.94891 0.0
H1549 H 0.31781 0.721 0.07166 0.0
H1550 H 0.28651 0.71672 0.99917 0.0
C1551 C 0.30898 0.37778 0.99896 0.0
C1552 C 0.30459 0.3987 0.9857 0.0
N1553 N 0.32633 0.40951 0.98039 0.0
N1554 N 0.33338 0.37539 0.00147 0.0
C1555 C 0.34319 0.39559 0.99098 0.0
H1556 H 0.29539 0.36467 0.0054 0.0
Co1557 Co 0.35251 0.35171 0.01666 0.0
C1558 C 0.37848 0.35674 0.96674 0.0
O1559 O 0.36126 0.36761 0.95443 0.0
N1560 N 0.37359 0.32903 0.03169 0.0
C1561 C 0.40681 0.30628 0.03121 0.0
C1562 C 0.38485 0.31097 0.01975 0.0
C1563 C 0.38854 0.33389 0.05103 0.0
N1564 N 0.4091 0.32098 0.05076 0.0
O1565 O 0.36884 0.3776 0.0342 0.0
H1566 H 0.37931 0.30416 0.00194 0.0
H1567 H 0.38673 0.34921 0.06303 0.0
O1568 O 0.37598 0.3517 0.98944 0.0
C1569 C 0.35361 0.38115 0.05145 0.0
O1570 O 0.3335 0.36748 0.05201 0.0
N1571 N 0.33338 0.32624 0.00232 0.0
C1572 C 0.29695 0.29232 0.98861 0.0
C1573 C 0.30618 0.30917 0.97164 0.0
C1574 C 0.32427 0.32618 0.97897 0.0
C1575 C 0.32456 0.30968 0.0189 0.0
C1576 C 0.30659 0.29236 0.01234 0.0
H1577 H 0.32922 0.34044 0.96646 0.0
H1578 H 0.33055 0.31065 0.03777 0.0
H1579 H 0.36268 0.39929 0.98969 0.0
H1580 H 0.28704 0.40443 0.97883 0.0
H1581 H 0.42106 0.29494 0.02428 0.0
H1582 H 0.29853 0.31001 0.95334 0.0
H1583 H 0.29941 0.27987 0.02601 0.0
C1584 C 0.01836 0.23405 0.30761 0.0
C1585 C 0.01806 0.25924 0.30192 0.0
C1586 C 0.01148 0.24957 0.25871 0.0
C1587 C 0.01412 0.22447 0.26389 0.0
N1588 N 0.02504 0.19323 0.29275 0.0
N1589 N 0.02109 0.29084 0.27138 0.0
C1590 C 0.019 0.21677 0.28822 0.0
C1591 C 0.01682 0.26692 0.27721 0.0
N1592 N 0.01712 0.22655 0.3314 0.0
N1593 N 0.00287 0.25682 0.2364 0.0
H1594 H 0.02576 0.304 0.28447 0.0
H1595 H 0.02259 0.29703 0.25342 0.0
H1596 H 0.99761 0.24459 0.22264 0.0
H1597 H 0.99845 0.27475 0.23253 0.0
H1598 H 0.01454 0.2084 0.33645 0.0
H1599 H 0.01685 0.23865 0.34605 0.0
H1600 H 0.03119 0.18725 0.30974 0.0
H1601 H 0.02598 0.18015 0.27903 0.0
C1602 C 0.75204 0.99408 0.23635 0.0
C1603 C 0.77481 0.00369 0.24529 0.0
C1604 C 0.75886 0.0024 0.28704 0.0
C1605 C 0.73528 0.99565 0.27789 0.0
N1606 N 0.70845 0.98858 0.24326 0.0
N1607 N 0.79802 0.02195 0.27853 0.0
C1608 C 0.73157 0.99242 0.25235 0.0
C1609 C 0.77763 0.00932 0.27049 0.0
N1610 N 0.75017 0.98567 0.2129 0.0
N1611 N 0.7635 0.00158 0.31162 0.0
H1612 H 0.81186 0.02799 0.26681 0.0
H1613 H 0.79996 0.0286 0.29628 0.0
H1614 H 0.7504 0.99587 0.3243 0.0
H1615 H 0.78096 0.00406 0.31914 0.0
H1616 H 0.73484 0.9761 0.20621 0.0
H1617 H 0.76469 0.98647 0.20067 0.0
H1618 H 0.7043 0.9888 0.22465 0.0
H1619 H 0.6931 0.98702 0.2544 0.0
C1620 C 0.98457 0.75568 0.27705 0.0
C1621 C 0.98307 0.73049 0.27155 0.0
C1622 C 0.983 0.73969 0.22757 0.0
C1623 C 0.98799 0.76452 0.23314 0.0
N1624 N 0.99314 0.79683 0.26265 0.0
N1625 N 0.98011 0.69793 0.2422 0.0
C1626 C 0.98831 0.77276 0.25776 0.0
C1627 C 0.9817 0.72235 0.24693 0.0
N1628 N 0.98248 0.76315 0.30077 0.0
N1629 N 0.9795 0.73281 0.20375 0.0
H1630 H 0.97775 0.68492 0.25595 0.0
H1631 H 0.98198 0.69039 0.22491 0.0
H1632 H 0.98085 0.74504 0.1892 0.0
H1633 H 0.9736 0.71547 0.19837 0.0
H1634 H 0.98112 0.78123 0.30601 0.0
H1635 H 0.98023 0.75102 0.3153 0.0
H1636 H 0.99661 0.80374 0.28007 0.0
H1637 H 0.99481 0.81003 0.24901 0.0
C1638 C 0.2945 0.00326 0.25241 0.0
C1639 C 0.287 0.99945 0.27696 0.0
C1640 C 0.24457 0.99189 0.26311 0.0
C1641 C 0.25214 0.99526 0.23852 0.0
N1642 N 0.28415 0.00136 0.20906 0.0
N1643 N 0.25579 0.98813 0.30601 0.0
C1644 C 0.27712 1.00008 0.23298 0.0
C1645 C 0.26226 0.99317 0.28238 0.0
N1646 N 0.3182 0.01032 0.24781 0.0
N1647 N 0.22026 0.98809 0.26799 0.0
H1648 H 0.26776 0.99052 0.3208 0.0
H1649 H 0.23894 0.98059 0.31108 0.0
H1650 H 0.20705 0.98537 0.25433 0.0
H1651 H 0.21283 0.98853 0.28542 0.0
H1652 H 0.32456 0.01585 0.23077 0.0
H1653 H 0.33156 0.01198 0.26147 0.0
H1654 H 0.30223 0.00254 0.20339 0.0
H1655 H 0.27181 0.99966 0.19448 0.0
C1656 C 1.00101 0.7773 0.76172 0.0
C1657 C 0.00688 0.76928 0.7857 0.0
C1658 C 0.00925 0.72733 0.77066 0.0
C1659 C 1.00142 0.73517 0.74717 0.0
N1660 N 0.98474 0.76657 0.72172 0.0
N1661 N 0.01243 0.73624 0.81405 0.0
C1662 C 0.99571 0.75986 0.74316 0.0
C1663 C 0.0098 0.74413 0.79049 0.0
N1664 N 0.00148 0.80162 0.75639 0.0
N1665 N 0.01707 0.70413 0.77381 0.0
H1666 H 0.01303 0.74803 0.82898 0.0
H1667 H 0.012 0.71792 0.81895 0.0
H1668 H 0.01673 0.69124 0.75983 0.0
H1669 H 0.02559 0.69818 0.78974 0.0
H1670 H 0.99989 0.80842 0.73869 0.0
H1671 H 0.00586 0.81502 0.76931 0.0
H1672 H 0.97789 0.78382 0.71871 0.0
H1673 H 0.9803 0.75419 0.70782 0.0
C1674 C 0.23287 0.00627 0.71857 0.0
C1675 C 0.25799 0.00505 0.72519 0.0
C1676 C 0.24637 0.99487 0.7673 0.0
C1677 C 0.22158 0.99931 0.76151 0.0
N1678 N 0.19119 0.0116 0.73219 0.0
N1679 N 0.28877 0.00259 0.75697 0.0
C1680 C 0.21476 0.00552 0.73723 0.0
C1681 C 0.26478 1.00045 0.74987 0.0
N1682 N 0.22631 0.00755 0.69446 0.0
N1683 N 0.25228 0.98509 0.7895 0.0
H1684 H 0.30282 0.0075 0.74502 0.0
H1685 H 0.29448 0.00194 0.77517 0.0
H1686 H 0.23916 0.98056 0.8026 0.0
H1687 H 0.26972 0.97922 0.79391 0.0
H1688 H 0.20827 0.00597 0.68829 0.0
H1689 H 0.23908 0.00823 0.6804 0.0
H1690 H 0.18567 0.01901 0.71557 0.0
H1691 H 0.17739 0.01066 0.74522 0.0
C1692 C 0.97133 0.29007 0.7757 0.0
C1693 C 0.9733 0.28264 0.75095 0.0
C1694 C 0.96853 0.24011 0.76396 0.0
C1695 C 0.97176 0.24738 0.78867 0.0
N1696 N 0.97785 0.27958 0.81824 0.0
N1697 N 0.97615 0.25002 0.72158 0.0
C1698 C 0.97322 0.27248 0.79469 0.0
C1699 C 0.97214 0.25749 0.74499 0.0
N1700 N 0.96749 0.31394 0.781 0.0
N1701 N 0.96216 0.21647 0.7587 0.0
H1702 H 0.97955 0.262 0.70715 0.0
H1703 H 0.97823 0.23185 0.71684 0.0
H1704 H 0.95917 0.20343 0.77232 0.0
H1705 H 0.95742 0.2105 0.74118 0.0
H1706 H 0.96372 0.3201 0.79854 0.0
H1707 H 0.96558 0.32715 0.76745 0.0
H1708 H 0.982 0.29753 0.82315 0.0
H1709 H 0.97927 0.26733 0.8327 0.0
C1710 C 0.76076 0.00838 0.77901 0.0
C1711 C 0.78631 0.0117 0.77541 0.0
C1712 C 0.77915 0.01467 0.73103 0.0
C1713 C 0.75393 0.00907 0.73462 0.0
N1714 N 0.72179 0.9952 0.76159 0.0
N1715 N 0.82039 0.0138 0.74771 0.0
C1716 C 0.74508 0.00428 0.75852 0.0
C1717 C 0.7957 0.01368 0.75131 0.0
N1718 N 0.75132 0.01006 0.802 0.0
N1719 N 0.78718 0.02181 0.70848 0.0
H1720 H 0.83305 0.01312 0.76205 0.0
H1721 H 0.82826 0.01256 0.7305 0.0
H1722 H 0.77568 0.02255 0.69321 0.0
H1723 H 0.80478 0.02875 0.70533 0.0
H1724 H 0.73263 0.01027 0.80542 0.0
H1725 H 0.76211 0.01374 0.81744 0.0
H1726 H 0.71514 0.98908 0.77836 0.0
H1727 H 0.70991 0.99145 0.74697 0.0
C1728 C 0.25924 0.23469 0.97615 0.0
C1729 C 0.2354 0.24293 0.98106 0.0
C1730 C 0.25153 0.28457 0.98671 0.0
C1731 C 0.2755 0.27618 0.98266 0.0
N1732 N 0.30192 0.24516 0.96815 0.0
N1733 N 0.20772 0.27587 0.98524 0.0
C1734 C 0.27924 0.25181 0.97553 0.0
C1735 C 0.2312 0.26801 0.98433 0.0
N1736 N 0.26284 0.21036 0.97319 0.0
N1737 N 0.24837 0.30807 0.99396 0.0
H1738 H 0.19254 0.26403 0.98379 0.0
H1739 H 0.20317 0.29412 0.98534 0.0
H1740 H 0.26271 0.32093 0.99511 0.0
H1741 H 0.23184 0.31462 1.00008 0.0
H1742 H 0.28 0.20268 0.97252 0.0
H1743 H 0.24846 0.1975 0.97245 0.0
H1744 H 0.30556 0.22829 0.96061 0.0
H1745 H 0.31688 0.25734 0.96776 0.0
C1746 C 0.27275 0.78426 0.03337 0.0
C1747 C 0.24772 0.77775 0.03698 0.0
C1748 C 0.25857 0.73559 0.04579 0.0
C1749 C 0.28343 0.74184 0.04098 0.0
N1750 N 0.31524 0.77236 0.03544 0.0
N1751 N 0.21702 0.74912 0.05141 0.0
C1752 C 0.29085 0.76635 0.03661 0.0
C1753 C 0.24073 0.75399 0.04487 0.0
N1754 N 0.27902 0.80736 0.02597 0.0
N1755 N 0.25201 0.71182 0.05023 0.0
H1756 H 0.20344 0.76205 0.05032 0.0
H1757 H 0.21099 0.73292 0.05946 0.0
H1758 H 0.26483 0.69825 0.0524 0.0
H1759 H 0.23402 0.70526 0.05095 0.0
H1760 H 0.29641 0.81273 0.02019 0.0
H1761 H 0.26641 0.8212 0.02457 0.0
H1762 H 0.32221 0.79012 0.03443 0.0
H1763 H 0.32883 0.75954 0.03737 0.0
C1764 C 0.78243 0.25045 0.01267 0.0
C1765 C 0.77447 0.22622 0.00743 0.0
C1766 C 0.73295 0.24073 1.00003 0.0
C1767 C 0.74037 0.26418 0.00878 0.0
N1768 N 0.77124 0.28922 0.02921 0.0
N1769 N 0.74101 0.19757 1.00001 0.0
C1770 C 0.76486 0.2684 0.01682 0.0
C1771 C 0.74938 0.22111 0.00216 0.0
N1772 N 0.80683 0.2565 0.01307 0.0
N1773 N 0.71074 0.23735 0.98877 0.0
H1774 H 0.7524 0.18273 0.00158 0.0
H1775 H 0.72248 0.19276 0.99876 0.0
H1776 H 0.69849 0.25134 0.98619 0.0
H1777 H 0.70549 0.22123 0.97995 0.0
H1778 H 0.81345 0.27439 0.01463 0.0
H1779 H 0.82029 0.24404 0.00909 0.0
H1780 H 0.78839 0.2921 0.03733 0.0
H1781 H 0.75864 0.30235 0.03375 0.0
C1782 C 0.73104 0.77313 0.98608 0.0
C1783 C 0.7341 0.74824 0.98059 0.0
C1784 C 0.77834 0.75557 0.97598 0.0
C1785 C 0.77567 0.77945 0.98514 0.0
N1786 N 0.74996 0.81165 0.99864 0.0
N1787 N 0.76 0.71528 0.96973 0.0
C1788 C 0.75208 0.78856 0.98976 0.0
C1789 C 0.75756 0.7394 0.97496 0.0
N1790 N 0.70796 0.78185 0.98781 0.0
N1791 N 0.80077 0.74846 0.96829 0.0
H1792 H 0.74503 0.70327 0.96762 0.0
H1793 H 0.77674 0.70685 0.96841 0.0
H1794 H 0.81635 0.75981 0.96924 0.0
H1795 H 0.80371 0.73214 0.95932 0.0
H1796 H 0.70416 0.80019 0.98965 0.0
H1797 H 0.69231 0.77081 0.98537 0.0
H1798 H 0.73373 0.81855 0.00515 0.0
H1799 H 0.76484 0.82378 1.00064 0.0
C1800 C 0.75287 0.51093 0.77741 0.0
C1801 C 0.72888 0.50609 0.76816 0.0
C1802 C 0.74359 0.51105 0.72611 0.0
C1803 C 0.76773 0.51489 0.73534 0.0
N1804 N 0.79627 0.51563 0.76921 0.0
N1805 N 0.70148 0.49836 0.73428 0.0
C1806 C 0.77262 0.514 0.76086 0.0
C1807 C 0.72427 0.5052 0.74262 0.0
N1808 N 0.75659 0.51341 0.80207 0.0
N1809 N 0.73917 0.51346 0.70159 0.0
H1810 H 0.68699 0.49418 0.74598 0.0
H1811 H 0.69723 0.49506 0.71598 0.0
H1812 H 0.75298 0.51721 0.689 0.0
H1813 H 0.72176 0.51334 0.69378 0.0
H1814 H 0.77285 0.52001 0.8099 0.0
H1815 H 0.74289 0.51013 0.8149 0.0
H1816 H 0.80143 0.51204 0.78718 0.0
H1817 H 0.81114 0.51923 0.75783 0.0
C1818 C 0.23943 0.49642 0.76132 0.0
C1819 C 0.24635 0.50211 0.73701 0.0
C1820 C 0.28894 0.50871 0.7505 0.0
C1821 C 0.28144 0.50565 0.77511 0.0
N1822 N 0.2491 0.5 0.80449 0.0
N1823 N 0.27691 0.51584 0.7083 0.0
C1824 C 0.25655 0.50034 0.78067 0.0
C1825 C 0.27095 0.50873 0.7315 0.0
N1826 N 0.21653 0.48695 0.7658 0.0
N1827 N 0.31329 0.51102 0.74527 0.0
H1828 H 0.26438 0.51531 0.69382 0.0
H1829 H 0.29381 0.52362 0.70367 0.0
H1830 H 0.32689 0.51149 0.75877 0.0
H1831 H 0.32016 0.51069 0.72759 0.0
H1832 H 0.21114 0.48007 0.78272 0.0
H1833 H 0.20352 0.48387 0.752 0.0
H1834 H 0.23082 0.4989 0.80963 0.0
H1835 H 0.26104 0.50296 0.81922 0.0
C1836 C 0.24517 0.48771 0.23478 0.0
C1837 C 0.2687 0.49702 0.24189 0.0
C1838 C 0.25633 0.49488 0.28488 0.0
C1839 C 0.23192 0.48892 0.27764 0.0
N1840 N 0.20226 0.48279 0.24522 0.0
N1841 N 0.29482 0.51424 0.27359 0.0
C1842 C 0.22608 0.4861 0.25243 0.0
C1843 C 0.27376 0.50191 0.26695 0.0
N1844 N 0.24124 0.4796 0.21145 0.0
N1845 N 0.26299 0.49342 0.30897 0.0
H1846 H 0.30766 0.52061 0.26096 0.0
H1847 H 0.29829 0.52039 0.29133 0.0
H1848 H 0.25084 0.48772 0.32257 0.0
H1849 H 0.28105 0.49533 0.31503 0.0
H1850 H 0.22526 0.47036 0.20592 0.0
H1851 H 0.25478 0.48013 0.19814 0.0
H1852 H 0.19661 0.48338 0.227 0.0
H1853 H 0.18787 0.48128 0.25756 0.0
C1854 C 0.79853 0.50282 0.24734 0.0
C1855 C 0.7885 0.50053 0.27114 0.0
C1856 C 0.74747 0.49325 0.25347 0.0
C1857 C 0.75752 0.49539 0.22968 0.0
N1858 N 0.79241 0.49886 0.20334 0.0
N1859 N 0.75427 0.49114 0.29735 0.0
C1860 C 0.78306 0.49912 0.22645 0.0
C1861 C 0.76319 0.49497 0.27431 0.0
N1862 N 0.82279 0.50898 0.24482 0.0
N1863 N 0.72268 0.4904 0.25603 0.0
H1864 H 0.76473 0.49397 0.31317 0.0
H1865 H 0.73684 0.4841 0.30098 0.0
H1866 H 0.71079 0.48746 0.24125 0.0
H1867 H 0.7136 0.49185 0.27257 0.0
H1868 H 0.83099 0.51335 0.22826 0.0
H1869 H 0.83474 0.51103 0.25968 0.0
H1870 H 0.81099 0.49937 0.19945 0.0
H1871 H 0.78145 0.49642 0.18778 0.0
C1872 C 0.26573 0.72533 0.48585 0.0
C1873 C 0.24222 0.73501 0.48175 0.0
C1874 C 0.26007 0.77634 0.4799 0.0
C1875 C 0.28341 0.76677 0.48513 0.0
N1876 N 0.30975 0.7325 0.48818 0.0
N1877 N 0.21716 0.76839 0.46992 0.0
C1878 C 0.28665 0.7413 0.48639 0.0
C1879 C 0.23948 0.76015 0.47706 0.0
N1880 N 0.2678 0.70095 0.49019 0.0
N1881 N 0.25757 0.801 0.47851 0.0
H1882 H 0.20173 0.75694 0.46809 0.0
H1883 H 0.21413 0.78608 0.46411 0.0
H1884 H 0.27246 0.81327 0.47915 0.0
H1885 H 0.24084 0.80951 0.47764 0.0
H1886 H 0.28377 0.69296 0.49626 0.0
H1887 H 0.25307 0.68858 0.48865 0.0
H1888 H 0.31375 0.71416 0.48687 0.0
H1889 H 0.32536 0.74377 0.48928 0.0
C1890 C 0.29126 0.2754 0.50571 0.0
C1891 C 0.28527 0.25015 0.50419 0.0
C1892 C 0.24192 0.25941 0.49879 0.0
C1893 C 0.24753 0.28435 0.50325 0.0
N1894 N 0.27709 0.31613 0.51344 0.0
N1895 N 0.25462 0.21774 0.50292 0.0
C1896 C 0.27212 0.29242 0.50725 0.0
C1897 C 0.26051 0.24204 0.5016 0.0
N1898 N 0.31521 0.28312 0.50512 0.0
N1899 N 0.21881 0.25241 0.49151 0.0
H1900 H 0.26763 0.2044 0.50529 0.0
H1901 H 0.23671 0.2109 0.50386 0.0
H1902 H 0.20477 0.26471 0.48919 0.0
H1903 H 0.21414 0.2349 0.48555 0.0
H1904 H 0.32072 0.30133 0.50356 0.0
H1905 H 0.32966 0.27116 0.50422 0.0
H1906 H 0.29421 0.32253 0.5194 0.0
H1907 H 0.26364 0.3292 0.51418 0.0
C1908 C 0.76541 0.78325 0.47997 0.0
C1909 C 0.74003 0.77839 0.483 0.0
C1910 C 0.74642 0.73452 0.47847 0.0
C1911 C 0.77202 0.73919 0.47931 0.0
N1912 N 0.80648 0.76738 0.47926 0.0
N1913 N 0.70559 0.75018 0.48354 0.0
C1914 C 0.78167 0.76345 0.47914 0.0
C1915 C 0.73026 0.75422 0.48136 0.0
N1916 N 0.77385 0.80682 0.47809 0.0
N1917 N 0.7377 0.71121 0.47512 0.0
H1918 H 0.69323 0.76428 0.48429 0.0
H1919 H 0.69726 0.73305 0.48535 0.0
H1920 H 0.74918 0.69649 0.47333 0.0
H1921 H 0.71935 0.70649 0.47237 0.0
H1922 H 0.79177 0.81183 0.47382 0.0
H1923 H 0.76238 0.82162 0.47911 0.0
H1924 H 0.81506 0.78428 0.48206 0.0
H1925 H 0.81877 0.75335 0.47728 0.0
C1926 C 0.7524 0.28415 0.47628 0.0
C1927 C 0.77581 0.27445 0.48091 0.0
C1928 C 0.75815 0.23297 0.47991 0.0
C1929 C 0.73453 0.24274 0.47682 0.0
N1930 N 0.70941 0.27647 0.46635 0.0
N1931 N 0.80223 0.24025 0.48136 0.0
C1932 C 0.73179 0.26802 0.47299 0.0
C1933 C 0.77907 0.24898 0.48067 0.0
N1934 N 0.74983 0.30882 0.47618 0.0
N1935 N 0.76035 0.20846 0.48325 0.0
H1936 H 0.81777 0.25166 0.48215 0.0
H1937 H 0.80626 0.222 0.47919 0.0
H1938 H 0.74556 0.19615 0.48168 0.0
H1939 H 0.7765 0.20029 0.48851 0.0
H1940 H 0.73305 0.31729 0.47588 0.0
H1941 H 0.76473 0.32105 0.47729 0.0
H1942 H 0.70635 0.29437 0.46125 0.0
H1943 H 0.69404 0.26501 0.46411 0.0
C1944 C 0.5055 0.22529 0.77461 0.0
C1945 C 0.50919 0.23158 0.74973 0.0
C1946 C 0.51992 0.27367 0.76136 0.0
C1947 C 0.51697 0.2672 0.78631 0.0
N1948 N 0.51053 0.2367 0.81735 0.0
N1949 N 0.52316 0.2604 0.71925 0.0
C1950 C 0.51088 0.24289 0.79312 0.0
C1951 C 0.51738 0.2554 0.74306 0.0
N1952 N 0.49629 0.20265 0.78041 0.0
N1953 N 0.52432 0.2975 0.75516 0.0
H1954 H 0.52047 0.24789 0.7051 0.0
H1955 H 0.53201 0.27641 0.71361 0.0
H1956 H 0.52756 0.31118 0.76808 0.0
H1957 H 0.52352 0.30405 0.73732 0.0
H1958 H 0.49078 0.19753 0.79787 0.0
H1959 H 0.49257 0.18925 0.7673 0.0
H1960 H 0.50848 0.21893 0.82372 0.0
H1961 H 0.51419 0.24928 0.83127 0.0
C1962 C 0.47128 0.76855 0.74386 0.0
C1963 C 0.48358 0.79086 0.7499 0.0
C1964 C 0.48919 0.77684 0.79232 0.0
C1965 C 0.47943 0.7536 0.78553 0.0
N1966 N 0.46032 0.72699 0.7557 0.0
N1967 N 0.50334 0.81723 0.77961 0.0
C1968 C 0.4699 0.7495 0.76159 0.0
C1969 C 0.49202 0.79537 0.77418 0.0
N1970 N 0.461 0.76565 0.72112 0.0
N1971 N 0.49585 0.78105 0.81615 0.0
H1972 H 0.50433 0.83169 0.76726 0.0
H1973 H 0.51246 0.82108 0.79595 0.0
H1974 H 0.4947 0.7677 0.82967 0.0
H1975 H 0.50114 0.79799 0.8231 0.0
H1976 H 0.44977 0.75093 0.71603 0.0
H1977 H 0.46255 0.77878 0.70741 0.0
H1978 H 0.45564 0.7215 0.73805 0.0
H1979 H 0.45766 0.71323 0.76864 0.0
C1980 C 0.52622 0.73288 0.2918 0.0
C1981 C 0.52926 0.75802 0.28652 0.0
C1982 C 0.52755 0.74945 0.24253 0.0
C1983 C 0.52185 0.72466 0.24788 0.0
N1984 N 0.51439 0.69253 0.27707 0.0
N1985 N 0.53158 0.79093 0.25742 0.0
C1986 C 0.52094 0.71626 0.2724 0.0
C1987 C 0.52984 0.76648 0.262 0.0
N1988 N 0.52858 0.72502 0.31541 0.0
N1989 N 0.53109 0.75659 0.21882 0.0
H1990 H 0.53451 0.80386 0.27115 0.0
H1991 H 0.52892 0.7986 0.24023 0.0
H1992 H 0.52853 0.7449 0.20396 0.0
H1993 H 0.53807 0.77367 0.21385 0.0
H1994 H 0.52877 0.70678 0.32048 0.0
H1995 H 0.53235 0.73687 0.32993 0.0
H1996 H 0.51086 0.68569 0.29447 0.0
H1997 H 0.5109 0.67978 0.26327 0.0
C1998 C 0.49301 0.23209 0.23656 0.0
C1999 C 0.48963 0.23953 0.26112 0.0
C2000 C 0.48446 0.28153 0.24719 0.0
C2001 C 0.49175 0.27471 0.22337 0.0
N2002 N 0.50505 0.24381 0.19556 0.0
N2003 N 0.48387 0.27159 0.29039 0.0
C2004 C 0.49633 0.25001 0.21799 0.0
C2005 C 0.48554 0.2643 0.26659 0.0
N2006 N 0.49272 0.20785 0.23098 0.0
N2007 N 0.47622 0.30443 0.25113 0.0
H2008 H 0.48436 0.25951 0.30509 0.0
H2009 H 0.48377 0.28976 0.2957 0.0
H2010 H 0.47509 0.3174 0.23724 0.0
H2011 H 0.46841 0.30985 0.26747 0.0
H2012 H 0.49268 0.20125 0.21314 0.0
H2013 H 0.49015 0.19428 0.24414 0.0
H2014 H 0.51148 0.22663 0.19152 0.0
H2015 H 0.50758 0.25632 0.18141 0.0
C2016 C 0.09128 0.04905 0.18034 0.0
C2017 C 0.10818 0.05137 0.16109 0.0
C2018 C 0.09625 0.09321 0.15392 0.0
C2019 C 0.08246 0.09216 0.17576 0.0
N2020 N 0.06458 0.06928 0.20878 0.0
N2021 N 0.11911 0.07095 0.12369 0.0
C2022 C 0.07894 0.06993 0.18848 0.0
C2023 C 0.10816 0.07206 0.14591 0.0
N2024 N 0.08719 0.02662 0.19035 0.0
N2025 N 0.09885 0.11475 0.14166 0.0
H2026 H 0.12655 0.05485 0.11755 0.0
H2027 H 0.11844 0.08466 0.11059 0.0
H2028 H 0.09018 0.13041 0.14724 0.0
H2029 H 0.11045 0.11751 0.12688 0.0
H2030 H 0.07468 0.02279 0.20414 0.0
H2031 H 0.09505 0.01132 0.18276 0.0
H2032 H 0.06233 0.05415 0.22004 0.0
H2033 H 0.05539 0.0845 0.21485 0.0
C2034 C 0.95773 0.06109 0.20781 0.0
C2035 C 0.93353 0.0694 0.20631 0.0
C2036 C 0.94872 0.11029 0.19563 0.0
C2037 C 0.97316 0.1019 0.19638 0.0
N2038 N 1.00045 0.06823 0.1977 0.0
N2039 N 0.90531 0.09987 0.19429 0.0
C2040 C 0.97753 0.07693 0.20094 0.0
C2041 C 0.92886 0.09342 0.19888 0.0
N2042 N 0.96166 0.0381 0.2162 0.0
N2043 N 0.94433 0.13448 0.193 0.0
H2044 H 0.89039 0.08803 0.19722 0.0
H2045 H 0.9007 0.11614 0.18588 0.0
H2046 H 0.95766 0.1474 0.18824 0.0
H2047 H 0.92738 0.14196 0.19628 0.0
H2048 H 0.97893 0.0315 0.22007 0.0
H2049 H 0.94736 0.0261 0.22093 0.0
H2050 H 0.00453 0.04987 0.19867 0.0
H2051 H 0.01504 0.07918 0.19162 0.0
C2052 C 0.91772 0.93168 0.19141 0.0
C2053 C 0.92683 0.95599 0.1886 0.0
C2054 C 0.96891 0.94173 0.19026 0.0
C2055 C 0.95965 0.91754 0.19293 0.0
N2056 N 0.92599 0.88866 0.19021 0.0
N2057 N 0.96038 0.98418 0.18154 0.0
C2058 C 0.93425 0.9123 0.19172 0.0
C2059 C 0.95228 0.961 0.1866 0.0
N2060 N 0.89329 0.92719 0.19487 0.0
N2061 N 0.99355 0.94615 0.19218 0.0
H2062 H 0.94844 0.99846 0.17894 0.0
H2063 H 0.97857 0.98902 0.17822 0.0
H2064 H 0.0059 0.93226 0.19496 0.0
H2065 H 0.00169 0.96347 0.19247 0.0
H2066 H 0.88605 0.91046 0.20066 0.0
H2067 H 0.88021 0.94053 0.19315 0.0
H2068 H 0.90787 0.88363 0.18637 0.0
H2069 H 0.93765 0.87399 0.19075 0.0
C2070 C 0.08988 0.94107 0.16313 0.0
C2071 C 0.09988 0.94328 0.18719 0.0
C2072 C 0.06974 0.9129 0.20086 0.0
C2073 C 0.06428 0.90629 0.17626 0.0
N2074 N 0.07151 0.91371 0.13319 0.0
N2075 N 0.10158 0.92741 0.22829 0.0
C2076 C 0.07483 0.92034 0.15705 0.0
C2077 C 0.09033 0.92821 0.20595 0.0
N2078 N 0.09363 0.95925 0.14646 0.0
N2079 N 0.055 0.90491 0.2194 0.0
H2080 H 0.11789 0.9369 0.23219 0.0
H2081 H 0.09619 0.91511 0.24187 0.0
H2082 H 0.03872 0.89507 0.21617 0.0
H2083 H 0.0574 0.91072 0.23743 0.0
H2084 H 0.08522 0.95922 0.12929 0.0
H2085 H 0.10247 0.9757 0.15094 0.0
H2086 H 0.0812 0.92204 0.11898 0.0
H2087 H 0.06062 0.89889 0.12768 0.0
C2088 C 0.08237 0.93054 0.85315 0.0
C2089 C 0.07786 0.91854 0.83053 0.0
C2090 C 0.10236 0.95035 0.8099 0.0
C2091 C 0.10213 0.96479 0.83159 0.0
N2092 N 0.08983 0.96886 0.87372 0.0
N2093 N 0.09978 0.90938 0.79404 0.0
C2094 C 0.09164 0.9549 0.85321 0.0
C2095 C 0.09222 0.92625 0.8104 0.0
N2096 N 0.08187 0.91757 0.87439 0.0
N2097 N 0.11247 0.95921 0.78882 0.0
H2098 H 0.09709 0.89077 0.79716 0.0
H2099 H 0.11209 0.91328 0.78006 0.0
H2100 H 0.12212 0.97571 0.78755 0.0
H2101 H 0.11004 0.95053 0.77201 0.0
H2102 H 0.08674 0.92503 0.89131 0.0
H2103 H 0.08083 0.8986 0.87432 0.0
H2104 H 0.08027 0.96295 0.88914 0.0
H2105 H 0.09567 0.98706 0.87447 0.0
C2106 C 0.06638 0.10408 0.87211 0.0
C2107 C 0.04921 0.10786 0.85307 0.0
C2108 C 0.06963 0.0777 0.82782 0.0
C2109 C 0.08943 0.07809 0.84458 0.0
N2110 N 0.10712 0.09116 0.88298 0.0
N2111 N 0.03236 0.09643 0.81379 0.0
C2112 C 0.08774 0.09076 0.86709 0.0
C2113 C 0.05002 0.09376 0.83134 0.0
N2114 N 0.0623 0.11329 0.89482 0.0
N2115 N 0.06964 0.0617 0.80875 0.0
H2116 H 0.01693 0.10678 0.81664 0.0
H2117 H 0.03322 0.08908 0.79631 0.0
H2118 H 0.0838 0.04965 0.80613 0.0
H2119 H 0.05494 0.05887 0.7968 0.0
H2120 H 0.07317 0.10967 0.91004 0.0
H2121 H 0.04654 0.12257 0.89896 0.0
H2122 H 0.10819 0.10199 0.89857 0.0
H2123 H 0.12298 0.0817 0.87975 0.0
C2124 C 0.91224 0.09866 0.84449 0.0
C2125 C 0.93656 0.09442 0.8376 0.0
C2126 C 0.92857 0.05042 0.8384 0.0
C2127 C 0.90418 0.05448 0.84601 0.0
N2128 N 0.87382 0.08244 0.85996 0.0
N2129 N 0.96961 0.06725 0.83232 0.0
C2130 C 0.89637 0.0786 0.85038 0.0
C2131 C 0.94523 0.07054 0.83586 0.0
N2132 N 0.90419 0.12198 0.84442 0.0
N2133 N 0.93569 0.02737 0.83314 0.0
H2134 H 0.98203 0.08179 0.83011 0.0
H2135 H 0.97786 0.05045 0.83342 0.0
H2136 H 0.92459 0.01196 0.83602 0.0
H2137 H 0.95213 0.02349 0.82474 0.0
H2138 H 0.886 0.12653 0.84659 0.0
H2139 H 0.91563 0.13693 0.84042 0.0
H2140 H 0.86822 0.09934 0.86593 0.0
H2141 H 0.86111 0.06857 0.86362 0.0
C2142 C 0.94562 0.94937 0.86637 0.0
C2143 C 0.92181 0.93972 0.8611 0.0
C2144 C 0.93741 0.89852 0.86016 0.0
C2145 C 0.96166 0.90813 0.86394 0.0
N2146 N 0.9884 0.94156 0.87576 0.0
N2147 N 0.89383 0.90548 0.86094 0.0
C2148 C 0.96557 0.93323 0.86902 0.0
C2149 C 0.9174 0.91435 0.86072 0.0
N2150 N 0.94919 0.97399 0.86772 0.0
N2151 N 0.93354 0.87447 0.85455 0.0
H2152 H 0.8789 0.91687 0.86099 0.0
H2153 H 0.88909 0.88718 0.86342 0.0
H2154 H 0.94734 0.86181 0.85455 0.0
H2155 H 0.91683 0.86718 0.8484 0.0
H2156 H 0.96628 0.9827 0.86879 0.0
H2157 H 0.93471 0.98588 0.86715 0.0
H2158 H 0.9924 0.95931 0.88137 0.0
H2159 H 0.0032 0.93009 0.87741 0.0
C2160 C 0.17613 0.06557 0.0708 0.0
C2161 C 0.17854 0.07351 0.09539 0.0
C2162 C 0.16741 0.11458 0.08347 0.0
C2163 C 0.1662 0.10703 0.05867 0.0
N2164 N 0.16228 0.07454 0.02946 0.0
N2165 N 0.16771 0.10254 0.12605 0.0
C2166 C 0.16803 0.08214 0.05259 0.0
C2167 C 0.17141 0.09713 0.10201 0.0
N2168 N 0.18269 0.04259 0.06479 0.0
N2169 N 0.16569 0.13864 0.08922 0.0
H2170 H 0.16932 0.08967 0.13995 0.0
H2171 H 0.16028 0.11875 0.13191 0.0
H2172 H 0.1616 0.15183 0.07625 0.0
H2173 H 0.16963 0.14568 0.10652 0.0
H2174 H 0.18397 0.03638 0.04689 0.0
H2175 H 0.18818 0.03008 0.07787 0.0
H2176 H 0.16127 0.05632 0.02429 0.0
H2177 H 0.1563 0.08645 0.01596 0.0
C2178 C 0.93211 0.18131 0.06788 0.0
C2179 C 0.91641 0.16033 0.06943 0.0
C2180 C 0.93046 0.15356 0.11134 0.0
C2181 C 0.9467 0.17401 0.10958 0.0
N2182 N 0.96807 0.20286 0.08385 0.0
N2183 N 0.90666 0.12257 0.08967 0.0
C2184 C 0.94915 0.18651 0.08707 0.0
C2185 C 0.9177 0.14507 0.09018 0.0
N2186 N 0.92996 0.19684 0.04854 0.0
N2187 N 0.92626 0.1431 0.13357 0.0
H2188 H 0.89877 0.11561 0.07371 0.0
H2189 H 0.90817 0.10992 0.10376 0.0
H2190 H 0.93424 0.15007 0.1495 0.0
H2191 H 0.91302 0.12944 0.13651 0.0
H2192 H 0.93889 0.21381 0.04772 0.0
H2193 H 0.91801 0.19324 0.03396 0.0
H2194 H 0.97209 0.2109 0.06705 0.0
H2195 H 0.98115 0.20656 0.09742 0.0
C2196 C 0.85937 0.89007 0.10085 0.0
C2197 C 0.8596 0.89953 0.07657 0.0
C2198 C 0.85254 0.94021 0.09267 0.0
C2199 C 0.85371 0.93095 0.11677 0.0
N2200 N 0.86452 0.89866 0.14402 0.0
N2201 N 0.86243 0.9345 0.05 0.0
C2202 C 0.85932 0.90638 0.12088 0.0
C2203 C 0.8585 0.92497 0.07272 0.0
N2204 N 0.85773 0.86554 0.10495 0.0
N2205 N 0.8439 0.96293 0.08878 0.0
H2206 H 0.86671 0.92378 0.03503 0.0
H2207 H 0.86382 0.95315 0.04667 0.0
H2208 H 0.83793 0.97373 0.10308 0.0
H2209 H 0.84035 0.96993 0.07144 0.0
H2210 H 0.85467 0.85799 0.12217 0.0
H2211 H 0.85734 0.85264 0.09106 0.0
H2212 H 0.87133 0.88154 0.14789 0.0
H2213 H 0.86418 0.91024 0.15905 0.0
C2214 C 0.10042 0.84131 0.05787 0.0
C2215 C 0.1253 0.83938 0.06502 0.0
C2216 C 0.11282 0.82831 0.10667 0.0
C2217 C 0.08809 0.83042 0.09959 0.0
N2218 N 0.0582 0.84431 0.07074 0.0
N2219 N 0.15535 0.83695 0.09731 0.0
C2220 C 0.08185 0.83865 0.07585 0.0
C2221 C 0.13152 0.83477 0.08983 0.0
N2222 N 0.0945 0.84434 0.03378 0.0
N2223 N 0.11829 0.81916 0.12923 0.0
H2224 H 0.1693 0.84217 0.08545 0.0
H2225 H 0.16096 0.83605 0.11551 0.0
H2226 H 0.10484 0.81434 0.1419 0.0
H2227 H 0.13585 0.81464 0.13474 0.0
H2228 H 0.07668 0.84303 0.02697 0.0
H2229 H 0.10766 0.84677 0.02028 0.0
H2230 H 0.05273 0.85261 0.05454 0.0
H2231 H 0.04433 0.84256 0.08364 0.0
C2232 C 0.19217 0.93526 0.96078 0.0
C2233 C 0.17287 0.9175 0.96201 0.0
C2234 C 0.15826 0.92999 0.92161 0.0
C2235 C 0.17821 0.94695 0.91982 0.0
N2236 N 0.20869 0.97156 0.94084 0.0
N2237 N 0.13213 0.90621 0.94876 0.0
C2238 C 0.19351 0.95143 0.94045 0.0
C2239 C 0.15407 0.91753 0.94409 0.0
N2240 N 0.20949 0.93626 0.97892 0.0
N2241 N 0.14408 0.92484 0.90153 0.0
H2242 H 0.12819 0.89881 0.96587 0.0
H2243 H 0.11713 0.90693 0.93693 0.0
H2244 H 0.14709 0.93306 0.88459 0.0
H2245 H 0.13086 0.91083 0.90117 0.0
H2246 H 0.22565 0.94664 0.97782 0.0
H2247 H 0.20784 0.92588 0.99484 0.0
H2248 H 0.21883 0.97704 0.95615 0.0
H2249 H 0.2092 0.98417 0.92658 0.0
C2250 C 0.08403 0.19294 0.96435 0.0
C2251 C 0.10629 0.18074 0.96018 0.0
C2252 C 0.09287 0.17207 0.91795 0.0
C2253 C 0.07212 0.18635 0.92161 0.0
N2254 N 0.04835 0.21207 0.9468 0.0
N2255 N 0.13301 0.16073 0.9319 0.0
C2256 C 0.06772 0.19709 0.94449 0.0
C2257 C 0.11088 0.1705 0.93678 0.0
N2258 N 0.07829 0.20018 0.98745 0.0
N2259 N 0.09526 0.16007 0.89627 0.0
H2260 H 0.14667 0.15861 0.94494 0.0
H2261 H 0.13863 0.15623 0.9144 0.0
H2262 H 0.08271 0.16156 0.88192 0.0
H2263 H 0.10852 0.14727 0.89305 0.0
H2264 H 0.06129 0.20666 0.99226 0.0
H2265 H 0.0899 0.19798 0.00242 0.0
H2266 H 0.04537 0.22277 0.96212 0.0
H2267 H 0.03603 0.21507 0.93251 0.0
C2268 C 0.83235 0.09435 0.92888 0.0
C2269 C 0.82223 0.07074 0.93242 0.0
C2270 C 0.81946 0.07838 0.97653 0.0
C2271 C 0.83119 0.1017 0.97334 0.0
N2272 N 0.85147 0.13058 0.94621 0.0
N2273 N 0.80873 0.0387 0.95921 0.0
C2274 C 0.83859 0.10922 0.94947 0.0
C2275 C 0.81646 0.06235 0.95616 0.0
N2276 N 0.83484 0.10292 0.90556 0.0
N2277 N 0.81096 0.07155 0.99901 0.0
H2278 H 0.80597 0.02679 0.94455 0.0
H2279 H 0.80665 0.03031 0.97615 0.0
H2280 H 0.81423 0.08173 0.01477 0.0
H2281 H 0.79958 0.05638 0.002 0.0
H2282 H 0.83957 0.12088 0.90127 0.0
H2283 H 0.82994 0.09243 0.89031 0.0
H2284 H 0.86017 0.13518 0.92994 0.0
H2285 H 0.85495 0.14313 0.96003 0.0
C2286 C 0.94701 0.84719 0.94989 0.0
C2287 C 0.94186 0.83363 0.92837 0.0
C2288 C 0.89866 0.83075 0.93906 0.0
C2289 C 0.90308 0.84724 0.95872 0.0
N2290 N 0.93132 0.87213 0.98258 0.0
N2291 N 0.91287 0.81492 0.90057 0.0
C2292 C 0.92731 0.85551 0.96432 0.0
C2293 C 0.91772 0.82592 0.92253 0.0
N2294 N 0.97081 0.85197 0.95636 0.0
N2295 N 0.87645 0.81902 0.93668 0.0
H2296 H 0.92652 0.81097 0.8881 0.0
H2297 H 0.89522 0.81147 0.8939 0.0
H2298 H 0.86238 0.82129 0.94905 0.0
H2299 H 0.87289 0.8051 0.92415 0.0
H2300 H 0.97619 0.85992 0.97288 0.0
H2301 H 0.98536 0.84615 0.94582 0.0
H2302 H 0.94816 0.88076 0.986 0.0
H2303 H 0.91735 0.87846 0.99356 0.0
C2304 C 0.05404 0.16409 0.08778 0.0
C2305 C 0.05974 0.16844 0.11271 0.0
C2306 C 0.10241 0.17834 0.10228 0.0
C2307 C 0.09595 0.17752 0.07723 0.0
N2308 N 0.06646 0.16864 0.04542 0.0
N2309 N 0.08913 0.17985 0.14421 0.0
C2310 C 0.07204 0.16974 0.06976 0.0
C2311 C 0.08394 0.17537 0.1201 0.0
N2312 N 0.03137 0.15495 0.08148 0.0
N2313 N 0.12645 0.18111 0.10899 0.0
H2314 H 0.07681 0.17592 0.15817 0.0
H2315 H 0.10527 0.18834 0.15038 0.0
H2316 H 0.14046 0.1835 0.09637 0.0
H2317 H 0.13284 0.17889 0.12681 0.0
H2318 H 0.02632 0.1496 0.06387 0.0
H2319 H 0.01784 0.15115 0.09436 0.0
H2320 H 0.04893 0.16559 0.03837 0.0
H2321 H 0.07953 0.17173 0.03201 0.0
C2322 C 0.08735 0.81976 0.90198 0.0
C2323 C 0.07261 0.8406 0.90301 0.0
C2324 C 0.09074 0.85083 0.94297 0.0
C2325 C 0.10801 0.83225 0.93995 0.0
N2326 N 0.12502 0.80122 0.91486 0.0
N2327 N 0.06195 0.87763 0.92348 0.0
C2328 C 0.10685 0.81721 0.91902 0.0
C2329 C 0.0746 0.85654 0.92334 0.0
N2330 N 0.0822 0.80198 0.88517 0.0
N2331 N 0.08925 0.86246 0.9649 0.0
H2332 H 0.04964 0.88226 0.90969 0.0
H2333 H 0.06499 0.89132 0.93638 0.0
H2334 H 0.10046 0.85833 0.97972 0.0
H2335 H 0.07551 0.8745 0.96906 0.0
H2336 H 0.09099 0.78541 0.88486 0.0
H2337 H 0.06713 0.80264 0.87347 0.0
H2338 H 0.12651 0.7915 0.89863 0.0
H2339 H 0.13992 0.79942 0.92668 0.0
C2340 C 0.17789 0.10055 0.91969 0.0
C2341 C 0.18229 0.09402 0.94425 0.0
C2342 C 0.1714 0.05136 0.93516 0.0
C2343 C 0.16928 0.05754 0.91009 0.0
N2344 N 0.17223 0.08753 0.87781 0.0
N2345 N 0.18567 0.06385 0.97563 0.0
C2346 C 0.17278 0.08208 0.90221 0.0
C2347 C 0.1795 0.06957 0.95213 0.0
N2348 N 0.17842 0.12458 0.91326 0.0
N2349 N 0.16606 0.02807 0.94251 0.0
H2350 H 0.19215 0.07697 0.98803 0.0
H2351 H 0.18608 0.04618 0.98242 0.0
H2352 H 0.16037 0.01444 0.9303 0.0
H2353 H 0.16554 0.02256 0.96071 0.0
H2354 H 0.17267 0.13099 0.8963 0.0
H2355 H 0.1832 0.13845 0.92553 0.0
H2356 H 0.17784 0.10426 0.87056 0.0
H2357 H 0.16705 0.07487 0.8645 0.0
C2358 C 0.96453 0.18366 0.94275 0.0
C2359 C 0.9573 0.17957 0.91802 0.0
C2360 C 0.91411 0.17739 0.93046 0.0
C2361 C 0.92129 0.18226 0.95491 0.0
N2362 N 0.95251 0.19122 0.98477 0.0
N2363 N 0.92571 0.16692 0.88918 0.0
C2364 C 0.94635 0.18553 0.96118 0.0
C2365 C 0.93223 0.17463 0.91212 0.0
N2366 N 0.9889 0.18462 0.94863 0.0
N2367 N 0.88976 0.17681 0.92464 0.0
H2368 H 0.93818 0.16475 0.87518 0.0
H2369 H 0.90821 0.16057 0.88444 0.0
H2370 H 0.87623 0.17889 0.93773 0.0
H2371 H 0.88291 0.1761 0.90684 0.0
H2372 H 0.99586 0.18598 0.96633 0.0
H2373 H 0.00252 0.18216 0.93573 0.0
H2374 H 0.97003 0.1962 0.99073 0.0
H2375 H 0.93949 0.19205 0.99847 0.0
C2376 C 0.83254 0.91987 0.94077 0.0
C2377 C 0.83159 0.9276 0.96539 0.0
C2378 C 0.84255 0.9695 0.95305 0.0
C2379 C 0.84329 0.96162 0.92839 0.0
N2380 N 0.84531 0.92878 0.89943 0.0
N2381 N 0.83807 0.95831 0.99598 0.0
C2382 C 0.84028 0.93658 0.92253 0.0
C2383 C 0.83754 0.95203 0.97184 0.0
N2384 N 0.82532 0.89663 0.93473 0.0
N2385 N 0.8457 0.99368 0.95825 0.0
H2386 H 0.83294 0.94603 0.00969 0.0
H2387 H 0.84424 0.97514 0.00256 0.0
H2388 H 0.85012 0.00658 0.9449 0.0
H2389 H 0.84344 0.00116 0.9755 0.0
H2390 H 0.82266 0.89066 0.91683 0.0
H2391 H 0.82028 0.88353 0.94763 0.0
H2392 H 0.8461 0.91053 0.89454 0.0
H2393 H 0.85098 0.9406 0.88558 0.0
C2394 C 0.95893 0.85417 0.09073 0.0
C2395 C 0.96292 0.83848 0.11082 0.0
C2396 C 0.93399 0.80819 0.09343 0.0
C2397 C 0.92942 0.82412 0.07373 0.0
N2398 N 0.94238 0.85857 0.04961 0.0
N2399 N 0.96092 0.79774 0.12697 0.0
C2400 C 0.94361 0.84594 0.07107 0.0
C2401 C 0.95264 0.8145 0.11071 0.0
N2402 N 0.96907 0.87715 0.09089 0.0
N2403 N 0.91953 0.7878 0.09642 0.0
H2404 H 0.9755 0.80166 0.13877 0.0
H2405 H 0.95546 0.77945 0.12671 0.0
H2406 H 0.90574 0.78274 0.08401 0.0
H2407 H 0.92008 0.77687 0.11197 0.0
H2408 H 0.96466 0.89047 0.07816 0.0
H2409 H 0.98123 0.88318 0.10454 0.0
H2410 H 0.95352 0.87368 0.04561 0.0
H2411 H 0.93173 0.85236 0.03485 0.0
C2412 C 0.21059 0.95053 0.06846 0.0
C2413 C 0.19968 0.92713 0.07197 0.0
C2414 C 0.17558 0.94341 0.10533 0.0
C2415 C 0.19068 0.96483 0.10595 0.0
N2416 N 0.22104 0.99016 0.08523 0.0
N2417 N 0.17454 0.90036 0.0967 0.0
C2418 C 0.20784 0.96877 0.08668 0.0
C2419 C 0.18299 0.92329 0.09132 0.0
N2420 N 0.22231 0.95577 0.04707 0.0
N2421 N 0.15327 0.94274 0.11622 0.0
H2422 H 0.18066 0.88505 0.08763 0.0
H2423 H 0.16369 0.8965 0.11189 0.0
H2424 H 0.14484 0.95855 0.12164 0.0
H2425 H 0.14137 0.92762 0.11532 0.0
H2426 H 0.22844 0.97319 0.04219 0.0
H2427 H 0.22376 0.94317 0.033 0.0
H2428 H 0.23629 0.99255 0.07412 0.0
H2429 H 0.21692 0.00556 0.09528 0.0
C2430 C 0.85269 0.04188 0.09956 0.0
C2431 C 0.85275 0.04622 0.12508 0.0
C2432 C 0.85061 0.09006 0.11682 0.0
C2433 C 0.84511 0.08497 0.09193 0.0
N2434 N 0.84051 0.05581 0.05939 0.0
N2435 N 0.85219 0.07507 0.15844 0.0
C2436 C 0.84631 0.06082 0.08317 0.0
C2437 C 0.85221 0.07054 0.13389 0.0
N2438 N 0.85982 0.0199 0.09102 0.0
N2439 N 0.85508 0.11358 0.12388 0.0
H2440 H 0.85444 0.06166 0.17163 0.0
H2441 H 0.84869 0.09208 0.1658 0.0
H2442 H 0.85488 0.12805 0.11152 0.0
H2443 H 0.86156 0.11844 0.1412 0.0
H2444 H 0.86206 0.01612 0.07253 0.0
H2445 H 0.8664 0.00653 0.10272 0.0
H2446 H 0.83839 0.0382 0.05254 0.0
H2447 H 0.83618 0.06937 0.04696 0.0
C2448 C 0.08637 0.56235 0.6863 0.0
C2449 C 0.10057 0.55866 0.66507 0.0
C2450 C 0.08676 0.59701 0.64782 0.0
C2451 C 0.07432 0.60168 0.66992 0.0
N2452 N 0.0564 0.58667 0.70703 0.0
N2453 N 0.10671 0.56732 0.6225 0.0
C2454 C 0.07216 0.58352 0.68813 0.0
C2455 C 0.09816 0.57428 0.64469 0.0
N2456 N 0.08749 0.54599 0.70508 0.0
N2457 N 0.08862 0.61478 0.63043 0.0
H2458 H 0.11346 0.55004 0.61968 0.0
H2459 H 0.10443 0.57725 0.60646 0.0
H2460 H 0.08046 0.63155 0.6323 0.0
H2461 H 0.09942 0.61356 0.61493 0.0
H2462 H 0.08003 0.54872 0.72226 0.0
H2463 H 0.09666 0.52967 0.70348 0.0
H2464 H 0.05222 0.57336 0.71998 0.0
H2465 H 0.04597 0.60219 0.70865 0.0
C2466 C 0.94142 0.62192 0.68186 0.0
C2467 C 0.96586 0.61355 0.68364 0.0
C2468 C 0.95055 0.57567 0.70274 0.0
C2469 C 0.9263 0.58323 0.69943 0.0
N2470 N 0.89791 0.61307 0.68666 0.0
N2471 N 0.99305 0.58051 0.69103 0.0
C2472 C 0.9216 0.60627 0.68919 0.0
C2473 C 0.97021 0.58983 0.69278 0.0
N2474 N 0.93707 0.6451 0.67425 0.0
N2475 N 0.95471 0.55527 0.71619 0.0
H2476 H 0.00756 0.58999 0.68276 0.0
H2477 H 0.99702 0.5626 0.69538 0.0
H2478 H 0.94054 0.54567 0.72484 0.0
H2479 H 0.97207 0.54956 0.72108 0.0
H2480 H 0.9203 0.65341 0.67585 0.0
H2481 H 0.9503 0.65667 0.66673 0.0
H2482 H 0.89233 0.6277 0.67611 0.0
H2483 H 0.88361 0.60352 0.69515 0.0
C2484 C 0.93243 0.43959 0.65735 0.0
C2485 C 0.94638 0.43799 0.67934 0.0
C2486 C 0.93521 0.47929 0.69016 0.0
C2487 C 0.91982 0.48008 0.66919 0.0
N2488 N 0.91242 0.46609 0.62832 0.0
N2489 N 0.96835 0.45936 0.71128 0.0
C2490 C 0.9215 0.46197 0.65115 0.0
C2491 C 0.95021 0.45895 0.69399 0.0
N2492 N 0.92814 0.41946 0.64327 0.0
N2493 N 0.93437 0.4975 0.70702 0.0
H2494 H 0.98007 0.44487 0.71371 0.0
H2495 H 0.97335 0.47482 0.72132 0.0
H2496 H 0.92415 0.51295 0.70394 0.0
H2497 H 0.9428 0.49677 0.72414 0.0
H2498 H 0.91601 0.41903 0.62848 0.0
H2499 H 0.93517 0.40264 0.64758 0.0
H2500 H 0.91495 0.4543 0.61372 0.0
H2501 H 0.90507 0.48276 0.62355 0.0
C2502 C 0.06956 0.45869 0.68068 0.0
C2503 C 0.09245 0.4507 0.68945 0.0
C2504 C 0.07837 0.4083 0.68572 0.0
C2505 C 0.05459 0.41628 0.67954 0.0
N2506 N 0.02682 0.44874 0.67206 0.0
N2507 N 0.11938 0.4188 0.70053 0.0
C2508 C 0.05004 0.44141 0.67688 0.0
C2509 C 0.09708 0.42569 0.6919 0.0
N2510 N 0.06668 0.48284 0.67593 0.0
N2511 N 0.08291 0.38397 0.68555 0.0
H2512 H 0.13362 0.43127 0.70429 0.0
H2513 H 0.12362 0.40104 0.70515 0.0
H2514 H 0.06959 0.37084 0.68089 0.0
H2515 H 0.10007 0.37673 0.68833 0.0
H2516 H 0.05142 0.48979 0.66716 0.0
H2517 H 0.08038 0.49593 0.67951 0.0
H2518 H 0.0215 0.46674 0.67287 0.0
H2519 H 0.01246 0.4365 0.66819 0.0
C2520 C 0.06372 0.43386 0.33744 0.0
C2521 C 0.07075 0.40952 0.34081 0.0
C2522 C 0.11272 0.42341 0.35068 0.0
C2523 C 0.10631 0.44767 0.34492 0.0
N2524 N 0.07614 0.47614 0.33147 0.0
N2525 N 0.10159 0.3803 0.34839 0.0
C2526 C 0.08187 0.45294 0.33797 0.0
C2527 C 0.09515 0.4041 0.34701 0.0
N2528 N 0.03951 0.43861 0.33425 0.0
N2529 N 0.13559 0.41879 0.35947 0.0
H2530 H 0.08897 0.36594 0.34578 0.0
H2531 H 0.1195 0.37465 0.35039 0.0
H2532 H 0.14929 0.43217 0.36144 0.0
H2533 H 0.14061 0.402 0.3664 0.0
H2534 H 0.03254 0.45603 0.33417 0.0
H2535 H 0.02601 0.42485 0.33335 0.0
H2536 H 0.05952 0.48077 0.32358 0.0
H2537 H 0.08853 0.49083 0.33287 0.0
C2538 C 0.10134 0.59139 0.35131 0.0
C2539 C 0.09467 0.5664 0.35207 0.0
C2540 C 0.05156 0.57637 0.35788 0.0
C2541 C 0.05804 0.60145 0.35555 0.0
N2542 N 0.08933 0.63321 0.35596 0.0
N2543 N 0.06528 0.53474 0.36165 0.0
C2544 C 0.08309 0.60903 0.35426 0.0
C2545 C 0.07032 0.5588 0.35734 0.0
N2546 N 0.12515 0.59809 0.34692 0.0
N2547 N 0.02746 0.56935 0.35917 0.0
H2548 H 0.07876 0.52173 0.36115 0.0
H2549 H 0.04841 0.52787 0.36751 0.0
H2550 H 0.01348 0.58177 0.3605 0.0
H2551 H 0.02112 0.55137 0.35804 0.0
H2552 H 0.13113 0.61581 0.34315 0.0
H2553 H 0.13905 0.58551 0.34608 0.0
H2554 H 0.10722 0.63996 0.35764 0.0
H2555 H 0.07641 0.64665 0.35751 0.0
C2556 C 0.93949 0.56706 0.34548 0.0
C2557 C 0.93636 0.58886 0.33223 0.0
C2558 C 0.8921 0.58235 0.33346 0.0
C2559 C 0.89499 0.56267 0.35014 0.0
N2560 N 0.92227 0.53879 0.37503 0.0
N2561 N 0.90967 0.62007 0.31803 0.0
C2562 C 0.91895 0.55549 0.35686 0.0
C2563 C 0.91266 0.5973 0.32741 0.0
N2564 N 0.96217 0.55743 0.34699 0.0
N2565 N 0.87006 0.58621 0.32239 0.0
H2566 H 0.92433 0.63185 0.31394 0.0
H2567 H 0.89266 0.62808 0.31666 0.0
H2568 H 0.85482 0.57477 0.32472 0.0
H2569 H 0.8678 0.59901 0.30854 0.0
H2570 H 0.96544 0.54042 0.35458 0.0
H2571 H 0.97726 0.56552 0.33834 0.0
H2572 H 0.93942 0.53464 0.38206 0.0
H2573 H 0.90793 0.53087 0.38491 0.0
C2574 C 0.95079 0.41916 0.38067 0.0
C2575 C 0.95822 0.40368 0.36153 0.0
C2576 C 0.93027 0.42344 0.33313 0.0
C2577 C 0.92312 0.43931 0.35188 0.0
N2578 N 0.93313 0.45788 0.39065 0.0
N2579 N 0.96253 0.39863 0.31797 0.0
C2580 C 0.93534 0.43889 0.37489 0.0
C2581 C 0.95042 0.40838 0.33721 0.0
N2582 N 0.95761 0.41472 0.40426 0.0
N2583 N 0.91712 0.42181 0.31185 0.0
H2584 H 0.97829 0.38857 0.32038 0.0
H2585 H 0.95866 0.403 0.29982 0.0
H2586 H 0.90131 0.43158 0.30877 0.0
H2587 H 0.92044 0.40886 0.29847 0.0
H2588 H 0.95034 0.42388 0.41908 0.0
H2589 H 0.96932 0.40087 0.40913 0.0
H2590 H 0.9432 0.45953 0.40685 0.0
H2591 H 0.92313 0.47318 0.3862 0.0
C2592 C 0.1555 0.61821 0.58215 0.0
C2593 C 0.15612 0.60987 0.55756 0.0
C2594 C 0.16859 0.56984 0.57167 0.0
C2595 C 0.169 0.57865 0.59597 0.0
N2596 N 0.15354 0.60713 0.62495 0.0
N2597 N 0.15468 0.57588 0.5299 0.0
C2598 C 0.15932 0.60154 0.60141 0.0
C2599 C 0.15961 0.58494 0.55265 0.0
N2600 N 0.15265 0.64231 0.58714 0.0
N2601 N 0.17801 0.54768 0.56666 0.0
H2602 H 0.14785 0.58662 0.51585 0.0
H2603 H 0.15477 0.55737 0.52587 0.0
H2604 H 0.18497 0.53644 0.58027 0.0
H2605 H 0.18053 0.54129 0.54896 0.0
H2606 H 0.15496 0.64976 0.60453 0.0
H2607 H 0.14959 0.65521 0.57362 0.0
H2608 H 0.14448 0.62283 0.62976 0.0
H2609 H 0.15525 0.59474 0.63927 0.0
C2610 C 0.92784 0.69345 0.54802 0.0
C2611 C 0.91278 0.67194 0.54716 0.0
C2612 C 0.92786 0.66029 0.58757 0.0
C2613 C 0.9423 0.68212 0.58883 0.0
N2614 N 0.96276 0.71449 0.56678 0.0
N2615 N 0.90766 0.63055 0.56107 0.0
C2616 C 0.94441 0.69719 0.56791 0.0
C2617 C 0.91582 0.65384 0.56526 0.0
N2618 N 0.92579 0.71063 0.53011 0.0
N2619 N 0.92456 0.64635 0.60798 0.0
H2620 H 0.9005 0.62506 0.54419 0.0
H2621 H 0.9108 0.61628 0.57316 0.0
H2622 H 0.93223 0.65112 0.62484 0.0
H2623 H 0.91234 0.63149 0.60865 0.0
H2624 H 0.93397 0.72793 0.53123 0.0
H2625 H 0.91494 0.70782 0.51455 0.0
H2626 H 0.9666 0.72463 0.55112 0.0
H2627 H 0.97579 0.71683 0.58067 0.0
C2628 C 0.8158 0.43067 0.60226 0.0
C2629 C 0.83528 0.44785 0.60459 0.0
C2630 C 0.86037 0.42313 0.57793 0.0
C2631 C 0.84011 0.40671 0.57419 0.0
N2632 N 0.79592 0.40178 0.57514 0.0
N2633 N 0.87243 0.46473 0.58764 0.0
C2634 C 0.81698 0.4125 0.58408 0.0
C2635 C 0.85655 0.44539 0.59034 0.0
N2636 N 0.79638 0.43131 0.61772 0.0
N2637 N 0.88335 0.41744 0.57073 0.0
H2638 H 0.86933 0.48164 0.59548 0.0
H2639 H 0.88706 0.46463 0.57556 0.0
H2640 H 0.88745 0.40128 0.56205 0.0
H2641 H 0.89878 0.42802 0.57543 0.0
H2642 H 0.78266 0.41777 0.61797 0.0
H2643 H 0.79537 0.44394 0.63186 0.0
H2644 H 0.77861 0.40685 0.58072 0.0
H2645 H 0.7956 0.39042 0.55987 0.0
C2646 C 0.08057 0.34264 0.57137 0.0
C2647 C 0.10611 0.34423 0.57583 0.0
C2648 C 0.09886 0.34151 0.62007 0.0
C2649 C 0.07373 0.33646 0.61542 0.0
N2650 N 0.04055 0.33029 0.58683 0.0
N2651 N 0.14006 0.34397 0.60438 0.0
C2652 C 0.06449 0.33678 0.59108 0.0
C2653 C 0.11536 0.34352 0.60021 0.0
N2654 N 0.07181 0.34653 0.54828 0.0
N2655 N 0.10686 0.34515 0.64353 0.0
H2656 H 0.15282 0.34679 0.59058 0.0
H2657 H 0.14799 0.34023 0.62129 0.0
H2658 H 0.09542 0.34333 0.65855 0.0
H2659 H 0.12429 0.35189 0.64803 0.0
H2660 H 0.05329 0.34759 0.54399 0.0
H2661 H 0.08329 0.35085 0.53368 0.0
H2662 H 0.03298 0.32794 0.56945 0.0
H2663 H 0.02864 0.32528 0.60086 0.0
C2664 C 0.17358 0.39454 0.45014 0.0
C2665 C 0.17874 0.40382 0.47404 0.0
C2666 C 0.19017 0.4437 0.45603 0.0
C2667 C 0.18723 0.4336 0.43236 0.0
N2668 N 0.17834 0.39964 0.40619 0.0
N2669 N 0.19064 0.43752 0.50011 0.0
C2670 C 0.17935 0.40912 0.42927 0.0
C2671 C 0.18661 0.42857 0.47704 0.0
N2672 N 0.163 0.37192 0.44723 0.0
N2673 N 0.19608 0.46792 0.45819 0.0
H2674 H 0.18595 0.42775 0.51583 0.0
H2675 H 0.19886 0.45437 0.50392 0.0
H2676 H 0.19946 0.47902 0.44304 0.0
H2677 H 0.19668 0.4774 0.47462 0.0
H2678 H 0.15636 0.36531 0.43058 0.0
H2679 H 0.15893 0.36025 0.46163 0.0
H2680 H 0.17547 0.38125 0.40233 0.0
H2681 H 0.18224 0.41009 0.39069 0.0
C2682 C 0.07341 0.67447 0.43526 0.0
C2683 C 0.07787 0.68264 0.41114 0.0
C2684 C 0.12177 0.67916 0.4181 0.0
C2685 C 0.11711 0.66707 0.44068 0.0
N2686 N 0.08761 0.65045 0.46939 0.0
N2687 N 0.1061 0.68876 0.37795 0.0
C2688 C 0.09268 0.66419 0.44911 0.0
C2689 C 0.10201 0.68405 0.40212 0.0
N2690 N 0.05065 0.67665 0.44483 0.0
N2691 N 0.14492 0.68683 0.41214 0.0
H2692 H 0.09213 0.69186 0.36538 0.0
H2693 H 0.12318 0.68717 0.3699 0.0
H2694 H 0.15991 0.68474 0.42366 0.0
H2695 H 0.14876 0.69781 0.39703 0.0
H2696 H 0.04656 0.67313 0.46308 0.0
H2697 H 0.03653 0.68444 0.43491 0.0
H2698 H 0.06988 0.64589 0.47489 0.0
H2699 H 0.10092 0.64162 0.47951 0.0
C2700 C 0.82923 0.61108 0.43347 0.0
C2701 C 0.82694 0.60739 0.459 0.0
C2702 C 0.8176 0.56398 0.45191 0.0
C2703 C 0.81733 0.56825 0.42634 0.0
N2704 N 0.81952 0.59634 0.39266 0.0
N2705 N 0.81752 0.58093 0.49294 0.0
C2706 C 0.82224 0.59197 0.41709 0.0
C2707 C 0.82083 0.58394 0.46836 0.0
N2708 N 0.83849 0.63276 0.42493 0.0
N2709 N 0.8149 0.54073 0.46035 0.0
H2710 H 0.82091 0.59489 0.50553 0.0
H2711 H 0.81039 0.56505 0.50081 0.0
H2712 H 0.81114 0.52617 0.44868 0.0
H2713 H 0.81758 0.53571 0.47851 0.0
H2714 H 0.84278 0.63594 0.40668 0.0
H2715 H 0.84423 0.6468 0.43657 0.0
H2716 H 0.82043 0.61366 0.38494 0.0
H2717 H 0.81423 0.5828 0.38024 0.0
C2718 C 0.91443 0.3575 0.46791 0.0
C2719 C 0.91082 0.33785 0.48432 0.0
C2720 C 0.94275 0.31539 0.46358 0.0
C2721 C 0.94154 0.33217 0.44403 0.0
N2722 N 0.92669 0.36947 0.42709 0.0
N2723 N 0.92981 0.3044 0.50467 0.0
C2724 C 0.92792 0.35362 0.44625 0.0
C2725 C 0.92768 0.31865 0.48432 0.0
N2726 N 0.90648 0.38003 0.47372 0.0
N2727 N 0.95777 0.29605 0.46173 0.0
H2728 H 0.92024 0.30792 0.52066 0.0
H2729 H 0.94243 0.29074 0.50672 0.0
H2730 H 0.96982 0.29419 0.4472 0.0
H2731 H 0.95806 0.28165 0.47406 0.0
H2732 H 0.91042 0.39548 0.46328 0.0
H2733 H 0.89952 0.38393 0.49088 0.0
H2734 H 0.9159 0.38474 0.42705 0.0
H2735 H 0.93518 0.36647 0.41043 0.0
C2736 C 0.09605 0.68936 0.5856 0.0
C2737 C 0.0894 0.68772 0.56066 0.0
C2738 C 0.047 0.67709 0.57165 0.0
C2739 C 0.05387 0.67803 0.5967 0.0
N2740 N 0.08549 0.68086 0.62767 0.0
N2741 N 0.06029 0.6767 0.52928 0.0
C2742 C 0.07863 0.68286 0.60368 0.0
C2743 C 0.06533 0.68054 0.55348 0.0
N2744 N 0.11904 0.69767 0.59187 0.0
N2745 N 0.0229 0.67395 0.56533 0.0
H2746 H 0.0733 0.67991 0.51572 0.0
H2747 H 0.04385 0.66912 0.52277 0.0
H2748 H 0.00926 0.67062 0.57822 0.0
H2749 H 0.01624 0.67577 0.54755 0.0
H2750 H 0.12456 0.70178 0.60967 0.0
H2751 H 0.13228 0.7022 0.5789 0.0
H2752 H 0.10355 0.68161 0.63379 0.0
H2753 H 0.07317 0.67617 0.64139 0.0
C2754 C 0.07604 0.33237 0.41831 0.0
C2755 C 0.05153 0.32854 0.42637 0.0
C2756 C 0.06671 0.32122 0.46824 0.0
C2757 C 0.09098 0.32278 0.45955 0.0
N2758 N 0.11938 0.32744 0.42671 0.0
N2759 N 0.02313 0.32041 0.45908 0.0
C2760 C 0.09579 0.32788 0.43471 0.0
C2761 C 0.04678 0.32335 0.45144 0.0
N2762 N 0.08055 0.3404 0.39509 0.0
N2763 N 0.06297 0.31785 0.49269 0.0
H2764 H 0.00815 0.32412 0.4479 0.0
H2765 H 0.0181 0.31399 0.47625 0.0
H2766 H 0.07732 0.31516 0.505 0.0
H2767 H 0.04604 0.31867 0.5011 0.0
H2768 H 0.09777 0.34603 0.38903 0.0
H2769 H 0.0669 0.34338 0.3822 0.0
H2770 H 0.12431 0.32823 0.40839 0.0
H2771 H 0.13412 0.32448 0.43847 0.0
C2772 C 0.18168 0.55952 0.46099 0.0
C2773 C 0.18666 0.58314 0.45162 0.0
C2774 C 0.17677 0.5691 0.41016 0.0
C2775 C 0.17193 0.54526 0.4195 0.0
N2776 N 0.16549 0.51843 0.45366 0.0
N2777 N 0.18722 0.61154 0.41824 0.0
C2778 C 0.1729 0.54071 0.44497 0.0
C2779 C 0.18365 0.58822 0.42644 0.0
N2780 N 0.18642 0.55507 0.4851 0.0
N2781 N 0.17561 0.57313 0.38548 0.0
H2782 H 0.19423 0.62551 0.42931 0.0
H2783 H 0.18242 0.61751 0.40085 0.0
H2784 H 0.16906 0.56007 0.37313 0.0
H2785 H 0.18176 0.58901 0.37691 0.0
H2786 H 0.18521 0.53792 0.49312 0.0
H2787 H 0.19332 0.5686 0.49684 0.0
H2788 H 0.164 0.51424 0.47215 0.0
H2789 H 0.159 0.50452 0.44219 0.0
C2790 C 0.94176 0.68668 0.44286 0.0
C2791 C 0.91713 0.68264 0.43553 0.0
C2792 C 0.93068 0.66803 0.39562 0.0
C2793 C 0.9551 0.67541 0.40171 0.0
N2794 N 0.98401 0.69272 0.43081 0.0
N2795 N 0.88748 0.67147 0.40475 0.0
C2796 C 0.96067 0.68493 0.42532 0.0
C2797 C 0.91142 0.6736 0.41191 0.0
N2798 N 0.94697 0.69157 0.46683 0.0
N2799 N 0.92586 0.65583 0.3743 0.0
H2800 H 0.87317 0.67578 0.41631 0.0
H2801 H 0.88184 0.66732 0.38698 0.0
H2802 H 0.93939 0.6517 0.36185 0.0
H2803 H 0.90888 0.64792 0.36993 0.0
H2804 H 0.96462 0.69245 0.47409 0.0
H2805 H 0.93335 0.69254 0.47995 0.0
H2806 H 0.98876 0.70246 0.44653 0.0
H2807 H 0.99855 0.69051 0.41891 0.0
C2808 C 0.85336 0.42127 0.44528 0.0
C2809 C 0.83283 0.4227 0.46077 0.0
C2810 C 0.82343 0.46201 0.44256 0.0
C2811 C 0.84507 0.46124 0.42833 0.0
N2812 N 0.88454 0.444 0.42324 0.0
N2813 N 0.80234 0.44758 0.47883 0.0
C2814 C 0.86144 0.44223 0.43224 0.0
C2815 C 0.81917 0.44417 0.46099 0.0
N2816 N 0.86385 0.39946 0.44126 0.0
N2817 N 0.8063 0.47893 0.43759 0.0
H2818 H 0.7994 0.43502 0.49289 0.0
H2819 H 0.79326 0.46385 0.481 0.0
H2820 H 0.80888 0.49235 0.42433 0.0
H2821 H 0.78904 0.47863 0.44553 0.0
H2822 H 0.87667 0.39717 0.42756 0.0
H2823 H 0.85754 0.38328 0.44928 0.0
H2824 H 0.89764 0.43096 0.42665 0.0
H2825 H 0.89106 0.46002 0.4151 0.0
C2826 C 0.9332 0.34591 0.58023 0.0
C2827 C 0.91626 0.32688 0.58675 0.0
C2828 C 0.94167 0.31891 0.62256 0.0
C2829 C 0.95345 0.34187 0.61984 0.0
N2830 N 0.96123 0.37752 0.59536 0.0
N2831 N 0.90327 0.29721 0.6172 0.0
C2832 C 0.94972 0.35539 0.59825 0.0
C2833 C 0.92037 0.3135 0.60856 0.0
N2834 N 0.93381 0.35446 0.55682 0.0
N2835 N 0.9509 0.30238 0.63845 0.0
H2836 H 0.88613 0.29443 0.60912 0.0
H2837 H 0.90508 0.28864 0.63411 0.0
H2838 H 0.96786 0.30547 0.64694 0.0
H2839 H 0.94359 0.28476 0.64026 0.0
H2840 H 0.94687 0.3672 0.55077 0.0
H2841 H 0.92303 0.34672 0.54291 0.0
H2842 H 0.95706 0.38938 0.58113 0.0
H2843 H 0.97413 0.38429 0.60797 0.0
C2844 C 0.15959 0.4524 0.60435 0.0
C2845 C 0.18074 0.46185 0.61671 0.0
C2846 C 0.19949 0.42198 0.61282 0.0
C2847 C 0.18079 0.41452 0.59619 0.0
N2848 N 0.13691 0.41571 0.59342 0.0
N2849 N 0.22165 0.45507 0.63252 0.0
C2850 C 0.15885 0.42772 0.59651 0.0
C2851 C 0.20097 0.44653 0.62086 0.0
N2852 N 0.14045 0.46711 0.59931 0.0
N2853 N 0.21328 0.40483 0.624 0.0
H2854 H 0.22352 0.47236 0.64012 0.0
H2855 H 0.23771 0.4453 0.63321 0.0
H2856 H 0.20918 0.38627 0.62202 0.0
H2857 H 0.22578 0.40879 0.63801 0.0
H2858 H 0.12574 0.46164 0.5882 0.0
H2859 H 0.14035 0.48541 0.60433 0.0
H2860 H 0.12015 0.42403 0.59537 0.0
H2861 H 0.1356 0.39674 0.59332 0.0
C2862 C 0.84774 0.59028 0.58125 0.0
C2863 C 0.83173 0.60995 0.58394 0.0
C2864 C 0.82517 0.59841 0.62661 0.0
C2865 C 0.8438 0.58092 0.62495 0.0
N2866 N 0.87591 0.56327 0.60121 0.0
N2867 N 0.80897 0.63569 0.61039 0.0
C2868 C 0.85589 0.57755 0.60235 0.0
C2869 C 0.82144 0.61481 0.60696 0.0
N2870 N 0.85463 0.58337 0.55842 0.0
N2871 N 0.81029 0.59879 0.64651 0.0
H2872 H 0.80657 0.64851 0.59656 0.0
H2873 H 0.80321 0.64144 0.6275 0.0
H2874 H 0.81147 0.58631 0.66074 0.0
H2875 H 0.79499 0.60963 0.64753 0.0
H2876 H 0.86442 0.56774 0.55508 0.0
H2877 H 0.8484 0.59191 0.54261 0.0
H2878 H 0.88689 0.56231 0.58579 0.0
H2879 H 0.883 0.55419 0.61631 0.0
C2880 C 0.58761 0.08434 0.69235 0.0
C2881 C 0.57109 0.09072 0.67353 0.0
C2882 C 0.59373 0.06586 0.64455 0.0
C2883 C 0.60948 0.059 0.66392 0.0
N2884 N 0.61424 0.05343 0.70743 0.0
N2885 N 0.554 0.08148 0.63368 0.0
C2886 C 0.60383 0.06536 0.68825 0.0
C2887 C 0.57275 0.07962 0.65013 0.0
N2888 N 0.58924 0.09752 0.71346 0.0
N2889 N 0.59908 0.06005 0.62099 0.0
H2890 H 0.53781 0.09009 0.63788 0.0
H2891 H 0.55343 0.07228 0.61704 0.0
H2892 H 0.61388 0.04946 0.61643 0.0
H2893 H 0.58971 0.06702 0.60599 0.0
H2894 H 0.60252 0.09448 0.72683 0.0
H2895 H 0.57957 0.11334 0.71622 0.0
H2896 H 0.60929 0.05638 0.72554 0.0
H2897 H 0.62559 0.03869 0.70489 0.0
C2898 C 0.40284 0.10659 0.68621 0.0
C2899 C 0.4092 0.08223 0.69102 0.0
C2900 C 0.45204 0.09221 0.68112 0.0
C2901 C 0.44618 0.11711 0.67927 0.0
N2902 N 0.41644 0.14856 0.68008 0.0
N2903 N 0.43953 0.05171 0.69491 0.0
C2904 C 0.42162 0.12442 0.68167 0.0
C2905 C 0.43375 0.07499 0.68881 0.0
N2906 N 0.37873 0.1124 0.68523 0.0
N2907 N 0.47506 0.08513 0.67543 0.0
H2908 H 0.42645 0.03895 0.70095 0.0
H2909 H 0.45731 0.04552 0.69586 0.0
H2910 H 0.48856 0.09734 0.66928 0.0
H2911 H 0.48018 0.06707 0.67457 0.0
H2912 H 0.37253 0.12911 0.67916 0.0
H2913 H 0.36467 0.09985 0.68909 0.0
H2914 H 0.39962 0.15563 0.68464 0.0
H2915 H 0.42946 0.16179 0.67493 0.0
C2916 C 0.43415 0.95277 0.70744 0.0
C2917 C 0.45247 0.94656 0.69053 0.0
C2918 C 0.43212 0.97193 0.65957 0.0
C2919 C 0.41476 0.97882 0.67725 0.0
N2920 N 0.40816 0.9849 0.7204 0.0
N2921 N 0.47359 0.9588 0.65362 0.0
C2922 C 0.41906 0.97252 0.70203 0.0
C2923 C 0.45299 0.95881 0.66749 0.0
N2924 N 0.4292 0.93868 0.72744 0.0
N2925 N 0.4286 0.97681 0.63537 0.0
H2926 H 0.48979 0.95129 0.65984 0.0
H2927 H 0.47538 0.96887 0.63755 0.0
H2928 H 0.41398 0.98665 0.62873 0.0
H2929 H 0.43957 0.96968 0.62179 0.0
H2930 H 0.41479 0.94222 0.73918 0.0
H2931 H 0.43675 0.92173 0.73025 0.0
H2932 H 0.41191 0.98152 0.73881 0.0
H2933 H 0.39786 1.00028 0.71699 0.0
C2934 C 0.57736 0.92715 0.65316 0.0
C2935 C 0.55619 0.92944 0.66732 0.0
C2936 C 0.57613 0.9637 0.68929 0.0
C2937 C 0.59882 0.9572 0.67932 0.0
N2938 N 0.62146 0.93182 0.65245 0.0
N2939 N 0.53403 0.95163 0.69726 0.0
C2940 C 0.59948 0.9389 0.6611 0.0
C2941 C 0.55512 0.94853 0.68472 0.0
N2942 N 0.57619 0.91379 0.63221 0.0
N2943 N 0.57456 0.98477 0.70232 0.0
H2944 H 0.51801 0.94218 0.69238 0.0
H2945 H 0.53263 0.96294 0.71241 0.0
H2946 H 0.58953 0.9966 0.70515 0.0
H2947 H 0.5581 0.99162 0.70831 0.0
H2948 H 0.59052 0.9132 0.61986 0.0
H2949 H 0.55976 0.90581 0.62598 0.0
H2950 H 0.62328 0.91745 0.64039 0.0
H2951 H 0.63802 0.9388 0.6593 0.0
C2952 C 0.59869 0.90484 0.33851 0.0
C2953 C 0.57412 0.90887 0.3317 0.0
C2954 C 0.58286 0.95279 0.32934 0.0
C2955 C 0.60732 0.94893 0.33721 0.0
N2956 N 0.63761 0.92169 0.35299 0.0
N2957 N 0.54137 0.93625 0.32489 0.0
C2958 C 0.61491 0.92507 0.34312 0.0
C2959 C 0.56579 0.93277 0.32833 0.0
N2960 N 0.60666 0.88152 0.33946 0.0
N2961 N 0.57603 0.97557 0.3225 0.0
H2962 H 0.52859 0.92183 0.32399 0.0
H2963 H 0.5335 0.95328 0.32482 0.0
H2964 H 0.58756 0.9909 0.32418 0.0
H2965 H 0.55944 0.97916 0.31395 0.0
H2966 H 0.6249 0.87708 0.34188 0.0
H2967 H 0.59513 0.86649 0.33588 0.0
H2968 H 0.64322 0.90517 0.36012 0.0
H2969 H 0.65037 0.93581 0.35579 0.0
C2970 C 0.5981 0.09425 0.3412 0.0
C2971 C 0.59139 0.06931 0.34212 0.0
C2972 C 0.54852 0.07969 0.34888 0.0
C2973 C 0.55472 0.10441 0.34385 0.0
N2974 N 0.58552 0.13563 0.3352 0.0
N2975 N 0.56105 0.03753 0.34772 0.0
C2976 C 0.57962 0.11186 0.34042 0.0
C2977 C 0.56684 0.06181 0.34665 0.0
N2978 N 0.62233 0.10096 0.3412 0.0
N2979 N 0.52511 0.07337 0.35529 0.0
H2980 H 0.57433 0.02434 0.34692 0.0
H2981 H 0.54327 0.03037 0.34838 0.0
H2982 H 0.51139 0.08607 0.35671 0.0
H2983 H 0.51958 0.056 0.36088 0.0
H2984 H 0.62881 0.11881 0.3434 0.0
H2985 H 0.63615 0.08828 0.34105 0.0
H2986 H 0.60273 0.14165 0.32943 0.0
H2987 H 0.57285 0.14942 0.33534 0.0
C2988 C 0.45101 0.06382 0.32265 0.0
C2989 C 0.4427 0.08784 0.31985 0.0
C2990 C 0.40217 0.07512 0.33453 0.0
C2991 C 0.40959 0.05065 0.33448 0.0
N2992 N 0.44055 0.02098 0.32873 0.0
N2993 N 0.41048 0.11663 0.3213 0.0
C2994 C 0.43399 0.04479 0.32886 0.0
C2995 C 0.4183 0.09359 0.32541 0.0
N2996 N 0.47522 0.05943 0.31941 0.0
N2997 N 0.3798 0.08058 0.3437 0.0
H2998 H 0.42196 0.13051 0.31465 0.0
H2999 H 0.39234 0.12163 0.3227 0.0
H3000 H 0.3679 0.06733 0.35091 0.0
H3001 H 0.37397 0.09824 0.34633 0.0
H3002 H 0.48322 0.04294 0.32346 0.0
H3003 H 0.48771 0.07293 0.31373 0.0
H3004 H 0.45716 0.01502 0.32221 0.0
H3005 H 0.42883 0.00689 0.3346 0.0
C3006 C 0.45885 0.90986 0.37312 0.0
C3007 C 0.46388 0.89245 0.35481 0.0
C3008 C 0.43164 0.90885 0.32902 0.0
C3009 C 0.4278 0.92755 0.34613 0.0
N3010 N 0.44427 0.9504 0.38045 0.0
N3011 N 0.46206 0.88357 0.31148 0.0
C3012 C 0.44331 0.92947 0.36711 0.0
C3013 C 0.45257 0.89464 0.33148 0.0
N3014 N 0.46797 0.90751 0.39626 0.0
N3015 N 0.41479 0.90371 0.3111 0.0
H3016 H 0.47862 0.87459 0.31216 0.0
H3017 H 0.45509 0.88608 0.29387 0.0
H3018 H 0.39799 0.91219 0.31006 0.0
H3019 H 0.4163 0.88894 0.2993 0.0
H3020 H 0.46261 0.91852 0.41065 0.0
H3021 H 0.47936 0.89353 0.40147 0.0
H3022 H 0.45671 0.95334 0.39476 0.0
H3023 H 0.43466 0.96576 0.3754 0.0
C3024 C 0.65642 0.09188 0.58747 0.0
C3025 C 0.67912 0.08005 0.58749 0.0
C3026 C 0.68691 0.09431 0.54603 0.0
C3027 C 0.66443 0.10679 0.54627 0.0
N3028 N 0.62398 0.10876 0.5628 0.0
N3029 N 0.71265 0.06425 0.56518 0.0
C3030 C 0.64782 0.10262 0.56553 0.0
C3031 C 0.69324 0.0793 0.56611 0.0
N3032 N 0.6438 0.09405 0.60871 0.0
N3033 N 0.70268 0.0978 0.52708 0.0
H3034 H 0.71767 0.05339 0.57997 0.0
H3035 H 0.72246 0.06107 0.54932 0.0
H3036 H 0.69793 0.10761 0.51157 0.0
H3037 H 0.72057 0.09179 0.52711 0.0
H3038 H 0.62835 0.10461 0.61028 0.0
H3039 H 0.65007 0.08703 0.62525 0.0
H3040 H 0.61065 0.10482 0.57583 0.0
H3041 H 0.61712 0.11491 0.54614 0.0
C3042 C 0.4482 0.18024 0.57609 0.0
C3043 C 0.44412 0.19614 0.59602 0.0
C3044 C 0.40403 0.20506 0.57862 0.0
C3045 C 0.40597 0.18548 0.56186 0.0
N3046 N 0.42992 0.15293 0.54587 0.0
N3047 N 0.41632 0.22113 0.61808 0.0
C3048 C 0.42821 0.17281 0.56064 0.0
C3049 C 0.42163 0.2081 0.59766 0.0
N3050 N 0.47129 0.17259 0.57179 0.0
N3051 N 0.38557 0.22108 0.57604 0.0
H3052 H 0.42826 0.2229 0.63295 0.0
H3053 H 0.39911 0.22812 0.62123 0.0
H3054 H 0.3734 0.22026 0.5613 0.0
H3055 H 0.38437 0.23678 0.58658 0.0
H3056 H 0.47587 0.16259 0.55641 0.0
H3057 H 0.48631 0.17852 0.5823 0.0
H3058 H 0.44477 0.14146 0.54638 0.0
H3059 H 0.41576 0.14683 0.53438 0.0
C3060 C 0.35865 0.92566 0.5556 0.0
C3061 C 0.35689 0.90106 0.56344 0.0
C3062 C 0.34506 0.91399 0.60442 0.0
C3063 C 0.34627 0.93838 0.59644 0.0
N3064 N 0.35971 0.96833 0.56721 0.0
N3065 N 0.35479 0.87206 0.59656 0.0
C3066 C 0.35491 0.94449 0.57285 0.0
C3067 C 0.35228 0.89536 0.58835 0.0
N3068 N 0.36245 0.93097 0.53151 0.0
N3069 N 0.33571 0.90863 0.62694 0.0
H3070 H 0.35965 0.85789 0.58515 0.0
H3071 H 0.35415 0.86716 0.61494 0.0
H3072 H 0.33029 0.92202 0.63909 0.0
H3073 H 0.3317 0.891 0.63294 0.0
H3074 H 0.36075 0.94829 0.52407 0.0
H3075 H 0.36624 0.91774 0.51863 0.0
H3076 H 0.36816 0.97404 0.55113 0.0
H3077 H 0.35704 0.98236 0.57966 0.0
C3078 C 0.59425 0.82675 0.57124 0.0
C3079 C 0.61073 0.84708 0.57137 0.0
C3080 C 0.59837 0.85595 0.61349 0.0
C3081 C 0.57952 0.83768 0.61206 0.0
N3082 N 0.57386 0.79691 0.59665 0.0
N3083 N 0.62658 0.88282 0.59175 0.0
C3084 C 0.58102 0.82053 0.59273 0.0
C3085 C 0.61202 0.86233 0.59218 0.0
N3086 N 0.59146 0.81308 0.55054 0.0
N3087 N 0.60636 0.8638 0.63586 0.0
H3088 H 0.63624 0.88817 0.57626 0.0
H3089 H 0.62709 0.89554 0.60578 0.0
H3090 H 0.60025 0.85552 0.65195 0.0
H3091 H 0.62187 0.87496 0.6383 0.0
H3092 H 0.57811 0.79928 0.54872 0.0
H3093 H 0.60091 0.81726 0.53451 0.0
H3094 H 0.57627 0.78311 0.58392 0.0
H3095 H 0.56957 0.79054 0.61412 0.0
C3096 C 0.6733 0.92709 0.46901 0.0
C3097 C 0.68503 0.9044 0.46745 0.0
C3098 C 0.69526 0.91343 0.42464 0.0
C3099 C 0.68656 0.93722 0.42721 0.0
N3100 N 0.67139 0.96839 0.45341 0.0
N3101 N 0.71275 0.87911 0.44501 0.0
C3102 C 0.67646 0.9445 0.44979 0.0
C3103 C 0.6976 0.89841 0.44562 0.0
N3104 N 0.65965 0.9323 0.48903 0.0
N3105 N 0.70085 0.905 0.40196 0.0
H3106 H 0.7165 0.86847 0.4602 0.0
H3107 H 0.7239 0.87545 0.43018 0.0
H3108 H 0.69862 0.91541 0.38617 0.0
H3109 H 0.70506 0.88693 0.39861 0.0
H3110 H 0.64877 0.94751 0.49011 0.0
H3111 H 0.65776 0.92048 0.50384 0.0
H3112 H 0.66617 0.97539 0.4702 0.0
H3113 H 0.67484 0.9817 0.44021 0.0
C3114 C 0.61259 0.17428 0.42176 0.0
C3115 C 0.60468 0.17904 0.44583 0.0
C3116 C 0.56343 0.18659 0.43025 0.0
C3117 C 0.57244 0.18562 0.40606 0.0
N3118 N 0.60558 0.18011 0.37829 0.0
N3119 N 0.57291 0.18995 0.4736 0.0
C3120 C 0.597 0.17963 0.40168 0.0
C3121 C 0.58009 0.18509 0.45028 0.0
N3122 N 0.63499 0.16457 0.41822 0.0
N3123 N 0.53885 0.18812 0.43393 0.0
H3124 H 0.58432 0.18752 0.48874 0.0
H3125 H 0.55611 0.19728 0.47783 0.0
H3126 H 0.52626 0.18881 0.41954 0.0
H3127 H 0.53076 0.18665 0.45105 0.0
H3128 H 0.64115 0.15882 0.40129 0.0
H3129 H 0.64642 0.16 0.43275 0.0
H3130 H 0.62389 0.17817 0.37387 0.0
H3131 H 0.59459 0.18445 0.36332 0.0
C3132 C 0.34893 0.11138 0.43326 0.0
C3133 C 0.35474 0.10666 0.45832 0.0
C3134 C 0.35481 0.06281 0.44927 0.0
C3135 C 0.34584 0.06756 0.42536 0.0
N3136 N 0.33449 0.09565 0.39405 0.0
N3137 N 0.36219 0.07782 0.49056 0.0
C3138 C 0.3432 0.09169 0.41717 0.0
C3139 C 0.35786 0.08235 0.46636 0.0
N3140 N 0.34907 0.1348 0.42478 0.0
N3141 N 0.36039 0.03955 0.4555 0.0
H3142 H 0.36499 0.09161 0.50342 0.0
H3143 H 0.36176 0.06048 0.49822 0.0
H3144 H 0.35783 0.025 0.44347 0.0
H3145 H 0.36918 0.0349 0.47173 0.0
H3146 H 0.34801 0.13942 0.40636 0.0
H3147 H 0.35196 0.14992 0.43595 0.0
H3148 H 0.32905 0.11248 0.38759 0.0
H3149 H 0.33144 0.08162 0.38146 0.0
C3150 C 0.43924 0.81372 0.47578 0.0
C3151 C 0.41537 0.82163 0.46999 0.0
C3152 C 0.42555 0.82171 0.42637 0.0
C3153 C 0.44972 0.8156 0.43249 0.0
N3154 N 0.4813 0.81164 0.4627 0.0
N3155 N 0.38727 0.83758 0.43993 0.0
C3156 C 0.45708 0.81335 0.45715 0.0
C3157 C 0.40897 0.82709 0.44532 0.0
N3158 N 0.44477 0.80607 0.4989 0.0
N3159 N 0.41839 0.82184 0.40237 0.0
H3160 H 0.3753 0.84323 0.45325 0.0
H3161 H 0.38236 0.84343 0.42251 0.0
H3162 H 0.43037 0.81846 0.38811 0.0
H3163 H 0.4003 0.82337 0.39662 0.0
H3164 H 0.46109 0.79776 0.50345 0.0
H3165 H 0.43231 0.80627 0.51317 0.0
H3166 H 0.48829 0.81212 0.48047 0.0
H3167 H 0.49453 0.81246 0.44918 0.0
C3168 C 0.58033 0.20083 0.58379 0.0
C3169 C 0.58676 0.18298 0.56667 0.0
C3170 C 0.55724 0.15427 0.58591 0.0
C3171 C 0.54954 0.17311 0.60162 0.0
N3172 N 0.54736 0.21666 0.60705 0.0
N3173 N 0.57508 0.14521 0.54663 0.0
C3174 C 0.55895 0.19716 0.59768 0.0
C3175 C 0.57337 0.16035 0.56624 0.0
N3176 N 0.59527 0.2207 0.58798 0.0
N3177 N 0.55019 0.13064 0.59002 0.0
H3178 H 0.58503 0.14997 0.5311 0.0
H3179 H 0.56431 0.12939 0.54466 0.0
H3180 H 0.53823 0.12536 0.60385 0.0
H3181 H 0.55767 0.11616 0.58063 0.0
H3182 H 0.59196 0.23323 0.60178 0.0
H3183 H 0.61241 0.22292 0.57996 0.0
H3184 H 0.55277 0.23459 0.60322 0.0
H3185 H 0.53065 0.21477 0.61586 0.0
C3186 C 0.55882 0.81042 0.43721 0.0
C3187 C 0.56441 0.82185 0.41448 0.0
C3188 C 0.6057 0.8324 0.42988 0.0
C3189 C 0.59937 0.8223 0.45289 0.0
N3190 N 0.56863 0.80698 0.48032 0.0
N3191 N 0.59233 0.84606 0.38987 0.0
C3192 C 0.57553 0.81286 0.45706 0.0
C3193 C 0.58751 0.83385 0.41113 0.0
N3194 N 0.53781 0.79668 0.4398 0.0
N3195 N 0.62949 0.83922 0.42556 0.0
H3196 H 0.5804 0.84581 0.37494 0.0
H3197 H 0.60757 0.85754 0.38748 0.0
H3198 H 0.64325 0.83782 0.43875 0.0
H3199 H 0.63604 0.84442 0.40847 0.0
H3200 H 0.5345 0.78534 0.45475 0.0
H3201 H 0.52414 0.79541 0.42648 0.0
H3202 H 0.55069 0.80245 0.48511 0.0
H3203 H 0.58044 0.80904 0.49527 0.0
C3204 C 0.67252 0.09557 0.41661 0.0
C3205 C 0.67334 0.09237 0.44218 0.0
C3206 C 0.65929 0.0497 0.43752 0.0
C3207 C 0.66233 0.05196 0.41196 0.0
N3208 N 0.67054 0.07714 0.37654 0.0
N3209 N 0.66664 0.06745 0.47773 0.0
C3210 C 0.66814 0.07508 0.40132 0.0
C3211 C 0.66611 0.06977 0.45289 0.0
N3212 N 0.67554 0.11844 0.40708 0.0
N3213 N 0.65011 0.02835 0.44693 0.0
H3214 H 0.67104 0.08202 0.48924 0.0
H3215 H 0.66387 0.05109 0.487 0.0
H3216 H 0.64468 0.01375 0.43582 0.0
H3217 H 0.64599 0.02566 0.46527 0.0
H3218 H 0.67241 0.12274 0.38881 0.0
H3219 H 0.67951 0.13366 0.4179 0.0
H3220 H 0.67805 0.09237 0.3678 0.0
H3221 H 0.66579 0.06307 0.36454 0.0
C3222 C 0.43187 0.19147 0.38651 0.0
C3223 C 0.44974 0.17327 0.38834 0.0
C3224 C 0.44147 0.16961 0.43226 0.0
C3225 C 0.42119 0.18487 0.42932 0.0
N3226 N 0.3948 0.20767 0.40306 0.0
N3227 N 0.47062 0.14354 0.41276 0.0
C3228 C 0.41585 0.19521 0.4063 0.0
C3229 C 0.45456 0.1621 0.41125 0.0
N3230 N 0.43073 0.20575 0.36613 0.0
N3231 N 0.44831 0.16266 0.45522 0.0
H3232 H 0.48058 0.13757 0.39786 0.0
H3233 H 0.47287 0.13294 0.42836 0.0
H3234 H 0.43901 0.1681 0.47079 0.0
H3235 H 0.46427 0.1534 0.459 0.0
H3236 H 0.41953 0.22072 0.36466 0.0
H3237 H 0.44311 0.20441 0.35189 0.0
H3238 H 0.38856 0.21336 0.386 0.0
H3239 H 0.38241 0.21037 0.41712 0.0
C3240 C 0.37381 0.92068 0.44115 0.0
C3241 C 0.35211 0.91882 0.45531 0.0
C3242 C 0.34199 0.9602 0.44332 0.0
C3243 C 0.36252 0.96101 0.42764 0.0
N3244 N 0.40344 0.94791 0.42176 0.0
N3245 N 0.32187 0.94045 0.47767 0.0
C3246 C 0.3804 0.94325 0.43009 0.0
C3247 C 0.33818 0.93984 0.45896 0.0
N3248 N 0.38723 0.90068 0.43678 0.0
N3249 N 0.32559 0.97845 0.44233 0.0
H3250 H 0.31983 0.92619 0.49015 0.0
H3251 H 0.31251 0.95598 0.4824 0.0
H3252 H 0.32874 0.99405 0.43184 0.0
H3253 H 0.30873 0.97763 0.45103 0.0
H3254 H 0.40178 0.90063 0.4246 0.0
H3255 H 0.38236 0.88366 0.44359 0.0
H3256 H 0.4178 0.93613 0.42461 0.0
H3257 H 0.40857 0.96489 0.41467 0.0
C3258 C 0.44149 0.83926 0.58538 0.0
C3259 C 0.41918 0.82682 0.59127 0.0
C3260 C 0.42873 0.83278 0.63467 0.0
C3261 C 0.44853 0.8489 0.62855 0.0
N3262 N 0.47418 0.86704 0.59715 0.0
N3263 N 0.3894 0.81607 0.62206 0.0
C3264 C 0.45518 0.85183 0.60371 0.0
C3265 C 0.41231 0.82446 0.61609 0.0
N3266 N 0.44984 0.84004 0.56205 0.0
N3267 N 0.42603 0.8247 0.65814 0.0
H3268 H 0.37618 0.81098 0.60912 0.0
H3269 H 0.38269 0.8166 0.63983 0.0
H3270 H 0.43853 0.82913 0.67202 0.0
H3271 H 0.41317 0.81127 0.66307 0.0
H3272 H 0.44124 0.83086 0.54756 0.0
H3273 H 0.44124 0.83086 0.54756 0.0
H3274 H 0.47932 0.86954 0.57896 0.0
H3275 H 0.48417 0.87778 0.60956 0.0
C3276 C 0.68537 0.92225 0.60422 0.0
C3277 C 0.69185 0.92376 0.57929 0.0
C3278 C 0.69196 0.96834 0.58152 0.0
C3279 C 0.68853 0.96687 0.60724 0.0
N3280 N 0.68385 0.94195 0.64357 0.0
N3281 N 0.70297 0.94753 0.54412 0.0
C3282 C 0.68546 0.9437 0.61872 0.0
C3283 C 0.69544 0.94666 0.56786 0.0
N3284 N 0.67845 0.9002 0.61386 0.0
N3285 N 0.69106 0.99044 0.57008 0.0
H3286 H 0.70541 0.93188 0.53375 0.0
H3287 H 0.70841 0.96351 0.53524 0.0
H3288 H 0.68788 0.00657 0.57942 0.0
H3289 H 0.69118 0.99259 0.55117 0.0
H3290 H 0.67073 0.89808 0.6311 0.0
H3291 H 0.67821 0.88417 0.60368 0.0
H3292 H 0.68541 0.92564 0.65309 0.0
H3293 H 0.68195 0.95679 0.65505 0.0
C3294 C 0.35727 0.09825 0.58355 0.0
C3295 C 0.33397 0.10832 0.57837 0.0
C3296 C 0.316 0.08156 0.60985 0.0
C3297 C 0.33854 0.06994 0.61297 0.0
N3298 N 0.37992 0.06456 0.60007 0.0
N3299 N 0.29787 0.11967 0.60014 0.0
C3300 C 0.35883 0.07722 0.59866 0.0
C3301 C 0.31478 0.10268 0.595 0.0
N3302 N 0.37814 0.11141 0.57865 0.0
N3303 N 0.29565 0.0725 0.62133 0.0
H3304 H 0.30018 0.13772 0.59455 0.0
H3305 H 0.28448 0.1172 0.61343 0.0
H3306 H 0.29594 0.05663 0.63181 0.0
H3307 H 0.27825 0.07916 0.61811 0.0
H3308 H 0.39559 0.10575 0.58334 0.0
H3309 H 0.3777 0.1299 0.57466 0.0
H3310 H 0.39456 0.06773 0.5883 0.0
H3311 H 0.38174 0.04937 0.61132 0.0
C3312 C 0.58304 0.57649 0.14463 0.0
C3313 C 0.58254 0.58918 0.16726 0.0
C3314 C 0.61595 0.56469 0.18201 0.0
C3315 C 0.62014 0.55615 0.15799 0.0
N3316 N 0.6085 0.55626 0.11528 0.0
N3317 N 0.60323 0.59913 0.20524 0.0
C3318 C 0.60385 0.56255 0.13886 0.0
C3319 C 0.60032 0.58431 0.18537 0.0
N3320 N 0.56328 0.57666 0.1293 0.0
N3321 N 0.62668 0.55386 0.20171 0.0
H3322 H 0.59364 0.61514 0.20723 0.0
H3323 H 0.6173 0.59709 0.218 0.0
H3324 H 0.63705 0.53829 0.20005 0.0
H3325 H 0.62273 0.55859 0.21968 0.0
H3326 H 0.56201 0.56604 0.11354 0.0
H3327 H 0.54718 0.58525 0.13381 0.0
H3328 H 0.59839 0.56275 0.10052 0.0
H3329 H 0.62349 0.5461 0.11039 0.0
C3330 C 0.41445 0.5987 0.1946 0.0
C3331 C 0.42085 0.57398 0.19278 0.0
C3332 C 0.46217 0.58612 0.17945 0.0
C3333 C 0.45592 0.61085 0.18186 0.0
N3334 N 0.42532 0.64107 0.18619 0.0
N3335 N 0.4485 0.54384 0.17859 0.0
C3336 C 0.43174 0.61724 0.1878 0.0
C3337 C 0.44401 0.56762 0.1836 0.0
N3338 N 0.39177 0.60429 0.20282 0.0
N3339 N 0.48572 0.58028 0.17434 0.0
H3340 H 0.43595 0.52981 0.18219 0.0
H3341 H 0.46383 0.53812 0.16929 0.0
H3342 H 0.49912 0.59321 0.16964 0.0
H3343 H 0.49234 0.56276 0.17572 0.0
H3344 H 0.38657 0.62182 0.20715 0.0
H3345 H 0.3782 0.59109 0.2063 0.0
H3346 H 0.4076 0.64706 0.18839 0.0
H3347 H 0.43753 0.65483 0.18054 0.0
C3348 C 0.43872 0.43302 0.14812 0.0
C3349 C 0.45569 0.43121 0.16779 0.0
C3350 C 0.44037 0.46861 0.18553 0.0
C3351 C 0.42253 0.46985 0.16646 0.0
N3352 N 0.4113 0.45868 0.12518 0.0
N3353 N 0.47832 0.45137 0.1999 0.0
C3354 C 0.42404 0.45399 0.14614 0.0
C3355 C 0.45842 0.45052 0.18467 0.0
N3356 N 0.43543 0.41408 0.13227 0.0
N3357 N 0.43923 0.48385 0.20518 0.0
H3358 H 0.49187 0.43839 0.19917 0.0
H3359 H 0.48262 0.46606 0.2113 0.0
H3360 H 0.42668 0.49774 0.20628 0.0
H3361 H 0.44977 0.48188 0.22097 0.0
H3362 H 0.42136 0.41306 0.11932 0.0
H3363 H 0.4457 0.39851 0.13333 0.0
H3364 H 0.41305 0.44862 0.10919 0.0
H3365 H 0.40124 0.47432 0.12289 0.0
C3366 C 0.61234 0.42209 0.1726 0.0
C3367 C 0.60771 0.44718 0.17369 0.0
C3368 C 0.56532 0.43927 0.15993 0.0
C3369 C 0.56914 0.41393 0.16184 0.0
N3370 N 0.59586 0.38087 0.17179 0.0
N3371 N 0.58044 0.48036 0.16928 0.0
C3372 C 0.59262 0.40524 0.16844 0.0
C3373 C 0.58438 0.456 0.16734 0.0
N3374 N 0.63581 0.4145 0.17506 0.0
N3375 N 0.54338 0.4472 0.15136 0.0
H3376 H 0.59416 0.4928 0.17475 0.0
H3377 H 0.56345 0.48814 0.167 0.0
H3378 H 0.52919 0.43526 0.14605 0.0
H3379 H 0.53976 0.46534 0.14781 0.0
H3380 H 0.64104 0.39676 0.17162 0.0
H3381 H 0.65052 0.42647 0.17867 0.0
H3382 H 0.61154 0.3737 0.17955 0.0
H3383 H 0.58227 0.36771 0.16821 0.0
C3384 C 0.59729 0.41103 0.82389 0.0
C3385 C 0.57313 0.41758 0.82918 0.0
C3386 C 0.58871 0.45479 0.84937 0.0
C3387 C 0.6129 0.44907 0.84244 0.0
N3388 N 0.63825 0.42567 0.81556 0.0
N3389 N 0.5453 0.44815 0.84134 0.0
C3390 C 0.61663 0.42836 0.82742 0.0
C3391 C 0.5687 0.44034 0.84012 0.0
N3392 N 0.602 0.38791 0.81656 0.0
N3393 N 0.58479 0.47297 0.86577 0.0
H3394 H 0.53062 0.43804 0.83392 0.0
H3395 H 0.5409 0.46549 0.84723 0.0
H3396 H 0.59886 0.48332 0.8739 0.0
H3397 H 0.56768 0.47623 0.8731 0.0
H3398 H 0.61969 0.38153 0.81496 0.0
H3399 H 0.58836 0.37445 0.81447 0.0
H3400 H 0.64099 0.41189 0.80287 0.0
H3401 H 0.65225 0.43885 0.81593 0.0
C3402 C 0.57343 0.57544 0.8587 0.0
C3403 C 0.58324 0.57237 0.83492 0.0
C3404 C 0.55526 0.60266 0.81948 0.0
C3405 C 0.54954 0.60955 0.84374 0.0
N3406 N 0.55542 0.60348 0.88712 0.0
N3407 N 0.58665 0.58727 0.79354 0.0
C3408 C 0.55904 0.59609 0.86365 0.0
C3409 C 0.5749 0.58701 0.81546 0.0
N3410 N 0.57707 0.55822 0.87625 0.0
N3411 N 0.54176 0.61086 0.8002 0.0
H3412 H 0.60245 0.57761 0.79042 0.0
H3413 H 0.5824 0.59935 0.77953 0.0
H3414 H 0.52637 0.62136 0.80255 0.0
H3415 H 0.54412 0.60479 0.78235 0.0
H3416 H 0.56875 0.55864 0.89331 0.0
H3417 H 0.58603 0.54212 0.87269 0.0
H3418 H 0.56425 0.59575 0.90207 0.0
H3419 H 0.54508 0.61848 0.89148 0.0
C3420 C 0.41063 0.6 0.82237 0.0
C3421 C 0.43467 0.59711 0.83131 0.0
C3422 C 0.42049 0.56221 0.85612 0.0
C3423 C 0.39662 0.56444 0.84604 0.0
N3424 N 0.37191 0.58011 0.81309 0.0
N3425 N 0.46383 0.57226 0.85201 0.0
C3426 C 0.39262 0.58168 0.82713 0.0
C3427 C 0.44002 0.57713 0.84673 0.0
N3428 N 0.40457 0.62085 0.81045 0.0
N3429 N 0.42434 0.54691 0.87538 0.0
H3430 H 0.47837 0.58263 0.84488 0.0
H3431 H 0.46914 0.55673 0.86136 0.0
H3432 H 0.41057 0.53585 0.88289 0.0
H3433 H 0.4408 0.54653 0.88508 0.0
H3434 H 0.38662 0.62487 0.80576 0.0
H3435 H 0.41701 0.63525 0.80756 0.0
H3436 H 0.36904 0.59105 0.79781 0.0
H3437 H 0.35924 0.56579 0.81478 0.0
C3438 C 0.44411 0.44805 0.85699 0.0
C3439 C 0.42009 0.43981 0.85083 0.0
C3440 C 0.4319 0.39765 0.85609 0.0
C3441 C 0.45679 0.40561 0.85833 0.0
N3442 N 0.4869 0.43818 0.8622 0.0
N3443 N 0.39055 0.40746 0.844 0.0
C3444 C 0.46298 0.43082 0.85963 0.0
C3445 C 0.41376 0.41478 0.85062 0.0
N3446 N 0.4486 0.47238 0.86039 0.0
N3447 N 0.4257 0.37361 0.85929 0.0
H3448 H 0.37681 0.41972 0.84014 0.0
H3449 H 0.38525 0.38943 0.84071 0.0
H3450 H 0.43859 0.36045 0.86281 0.0
H3451 H 0.40776 0.36695 0.86052 0.0
H3452 H 0.46511 0.47976 0.86692 0.0
H3453 H 0.43502 0.48519 0.85817 0.0
H3454 H 0.49309 0.45616 0.86054 0.0
H3455 H 0.50087 0.42602 0.86533 0.0
C3456 C 0.67507 0.59815 0.09392 0.0
C3457 C 0.68446 0.57614 0.08506 0.0
C3458 C 0.66971 0.58608 0.04398 0.0
C3459 C 0.66615 0.61017 0.05182 0.0
N3460 N 0.66454 0.6395 0.08453 0.0
N3461 N 0.69022 0.54833 0.05191 0.0
C3462 C 0.66818 0.61621 0.07698 0.0
C3463 C 0.6812 0.56964 0.06019 0.0
N3464 N 0.67219 0.60147 0.11845 0.0
N3465 N 0.66232 0.57908 0.02113 0.0
H3466 H 0.69894 0.53625 0.0635 0.0
H3467 H 0.69065 0.54356 0.03349 0.0
H3468 H 0.65384 0.59093 0.00903 0.0
H3469 H 0.66225 0.56107 0.01525 0.0
H3470 H 0.66321 0.61619 0.12582 0.0
H3471 H 0.67645 0.58822 0.13132 0.0
H3472 H 0.66882 0.64572 0.10207 0.0
H3473 H 0.65826 0.65294 0.07278 0.0
C3474 C 0.44962 0.67484 0.07534 0.0
C3475 C 0.44521 0.6885 0.09683 0.0
C3476 C 0.40575 0.70056 0.07987 0.0
C3477 C 0.40894 0.68491 0.05943 0.0
N3478 N 0.43303 0.65513 0.03889 0.0
N3479 N 0.41699 0.70966 0.12191 0.0
C3480 C 0.43053 0.67125 0.05766 0.0
C3481 C 0.42266 0.70002 0.09973 0.0
N3482 N 0.47248 0.66644 0.07117 0.0
N3483 N 0.38697 0.71643 0.08026 0.0
H3484 H 0.42876 0.70896 0.13698 0.0
H3485 H 0.39974 0.71602 0.12605 0.0
H3486 H 0.37412 0.71782 0.06628 0.0
H3487 H 0.38549 0.72995 0.09345 0.0
H3488 H 0.47769 0.65871 0.05472 0.0
H3489 H 0.487 0.66918 0.08335 0.0
H3490 H 0.44696 0.64262 0.0382 0.0
H3491 H 0.42033 0.65315 0.02467 0.0
C3492 C 0.34336 0.40827 0.11301 0.0
C3493 C 0.34649 0.43321 0.10778 0.0
C3494 C 0.36204 0.42399 0.06698 0.0
C3495 C 0.35758 0.39883 0.07173 0.0
N3496 N 0.35161 0.36687 0.10168 0.0
N3497 N 0.3646 0.46511 0.08337 0.0
C3498 C 0.35086 0.39097 0.09564 0.0
C3499 C 0.35782 0.44115 0.08587 0.0
N3500 N 0.33199 0.40124 0.13411 0.0
N3501 N 0.36888 0.43165 0.04423 0.0
H3502 H 0.36146 0.47798 0.09691 0.0
H3503 H 0.37513 0.47191 0.06902 0.0
H3504 H 0.37336 0.41984 0.03024 0.0
H3505 H 0.36941 0.44982 0.03884 0.0
H3506 H 0.32642 0.38337 0.13785 0.0
H3507 H 0.32655 0.41367 0.14726 0.0
H3508 H 0.34938 0.36033 0.11942 0.0
H3509 H 0.35665 0.35353 0.08938 0.0
C3510 C 0.61644 0.32328 0.10011 0.0
C3511 C 0.59404 0.33483 0.09602 0.0
C3512 C 0.61155 0.35519 0.05988 0.0
C3513 C 0.63314 0.34142 0.06237 0.0
N3514 N 0.65229 0.3069 0.08175 0.0
N3515 N 0.56826 0.3572 0.06871 0.0
C3516 C 0.63448 0.32386 0.08158 0.0
C3517 C 0.59097 0.34941 0.07487 0.0
N3518 N 0.62093 0.31247 0.12211 0.0
N3519 N 0.61095 0.37469 0.0444 0.0
H3520 H 0.55275 0.35257 0.07885 0.0
H3521 H 0.5645 0.36595 0.05225 0.0
H3522 H 0.62588 0.3807 0.03415 0.0
H3523 H 0.59643 0.38656 0.04379 0.0
H3524 H 0.63799 0.30589 0.127 0.0
H3525 H 0.60844 0.31245 0.13641 0.0
H3526 H 0.65252 0.2925 0.09415 0.0
H3527 H 0.66505 0.30531 0.0679 0.0
C3528 C 0.681 0.43943 0.96313 0.0
C3529 C 0.67907 0.41489 0.95521 0.0
C3530 C 0.68615 0.42769 0.91276 0.0
C3531 C 0.68843 0.45221 0.92057 0.0
N3532 N 0.68576 0.48229 0.95205 0.0
N3533 N 0.67397 0.38608 0.92246 0.0
C3534 C 0.68493 0.45833 0.94547 0.0
C3535 C 0.67979 0.40924 0.92995 0.0
N3536 N 0.67997 0.44442 0.98755 0.0
N3537 N 0.69073 0.42198 0.88895 0.0
H3538 H 0.66912 0.37228 0.93472 0.0
H3539 H 0.67177 0.381 0.90424 0.0
H3540 H 0.69479 0.43502 0.87568 0.0
H3541 H 0.6922 0.40428 0.88254 0.0
H3542 H 0.68331 0.46154 0.99511 0.0
H3543 H 0.67606 0.43099 1.00052 0.0
H3544 H 0.68139 0.48865 0.96932 0.0
H3545 H 0.69025 0.4961 0.93965 0.0
C3546 C 0.58077 0.69234 0.96007 0.0
C3547 C 0.60442 0.6832 0.95564 0.0
C3548 C 0.59241 0.67513 0.91298 0.0
C3549 C 0.57067 0.68785 0.91665 0.0
N3550 N 0.54423 0.70996 0.94274 0.0
N3551 N 0.63352 0.66775 0.92669 0.0
C3552 C 0.5648 0.69675 0.94 0.0
C3553 C 0.61038 0.67473 0.93187 0.0
N3554 N 0.57328 0.69594 0.98353 0.0
N3555 N 0.5957 0.6632 0.89141 0.0
H3556 H 0.64733 0.66637 0.9397 0.0
H3557 H 0.63956 0.66509 0.90892 0.0
H3558 H 0.583 0.66359 0.87709 0.0
H3559 H 0.60985 0.65124 0.88856 0.0
H3560 H 0.55556 0.70058 0.98805 0.0
H3561 H 0.58408 0.69176 0.99868 0.0
H3562 H 0.54008 0.71916 0.95874 0.0
H3563 H 0.53215 0.71309 0.92827 0.0
C3564 C 0.32543 0.56356 0.95561 0.0
C3565 C 0.32714 0.56942 0.93047 0.0
C3566 C 0.34992 0.60687 0.94066 0.0
C3567 C 0.34538 0.60293 0.96578 0.0
N3568 N 0.32693 0.57835 0.99745 0.0
N3569 N 0.33639 0.59875 0.8992 0.0
C3570 C 0.33279 0.58132 0.97341 0.0
C3571 C 0.33816 0.59169 0.92305 0.0
N3572 N 0.31681 0.54103 0.96232 0.0
N3573 N 0.36572 0.6251 0.93367 0.0
H3574 H 0.32631 0.58859 0.88636 0.0
H3575 H 0.34238 0.61577 0.89292 0.0
H3576 H 0.37517 0.63583 0.94643 0.0
H3577 H 0.37153 0.62746 0.91571 0.0
H3578 H 0.31722 0.53464 0.98024 0.0
H3579 H 0.31052 0.52821 0.94952 0.0
H3580 H 0.3155 0.56436 0.0039 0.0
H3581 H 0.3327 0.59079 0.01078 0.0
C3582 C 0.41348 0.32733 0.91579 0.0
C3583 C 0.43794 0.33135 0.92363 0.0
C3584 C 0.42375 0.35266 0.95997 0.0
C3585 C 0.39922 0.34684 0.95303 0.0
N3586 N 0.37143 0.32243 0.9279 0.0
N3587 N 0.46667 0.34381 0.95486 0.0
C3588 C 0.39428 0.33228 0.93202 0.0
C3589 C 0.44314 0.3427 0.94637 0.0
N3590 N 0.40847 0.3201 0.89236 0.0
N3591 N 0.42853 0.36873 0.97854 0.0
H3592 H 0.48105 0.33654 0.94509 0.0
H3593 H 0.47153 0.34988 0.97231 0.0
H3594 H 0.41478 0.37706 0.98832 0.0
H3595 H 0.44603 0.37542 0.98288 0.0
H3596 H 0.39084 0.31954 0.88496 0.0
H3597 H 0.422 0.31713 0.8795 0.0
H3598 H 0.36756 0.30982 0.9141 0.0
H3599 H 0.35701 0.32461 0.9399 0.0
C3600 C 0.56206 0.64377 0.08572 0.0
C3601 C 0.54645 0.66264 0.09219 0.0
C3602 C 0.56846 0.69031 0.06425 0.0
C3603 C 0.58741 0.67345 0.06308 0.0
N3604 N 0.60231 0.63338 0.07182 0.0
N3605 N 0.53164 0.70272 0.08459 0.0
C3606 C 0.58401 0.6497 0.07305 0.0
C3607 C 0.54839 0.68541 0.07995 0.0
N3608 N 0.55591 0.62036 0.09177 0.0
N3609 N 0.56996 0.71097 0.05039 0.0
H3610 H 0.51616 0.69887 0.09498 0.0
H3611 H 0.53327 0.72072 0.0788 0.0
H3612 H 0.58472 0.71476 0.0389 0.0
H3613 H 0.55594 0.7233 0.04876 0.0
H3614 H 0.56559 0.60546 0.08582 0.0
H3615 H 0.53944 0.61583 0.10031 0.0
H3616 H 0.60206 0.61693 0.0813 0.0
H3617 H 0.61851 0.63694 0.06255 0.0
C3618 C 0.58241 0.32941 0.94693 0.0
C3619 C 0.60551 0.334 0.93609 0.0
C3620 C 0.58556 0.3438 0.897 0.0
C3621 C 0.56257 0.33667 0.90707 0.0
N3622 N 0.53841 0.32373 0.94158 0.0
N3623 N 0.62978 0.34432 0.901 0.0
C3624 C 0.56081 0.32994 0.93213 0.0
C3625 C 0.60723 0.34108 0.91123 0.0
N3626 N 0.58136 0.32432 0.97137 0.0
N3627 N 0.58677 0.35312 0.87385 0.0
H3628 H 0.64595 0.34331 0.91107 0.0
H3629 H 0.63274 0.34652 0.88235 0.0
H3630 H 0.5717 0.35424 0.86228 0.0
H3631 H 0.60238 0.36144 0.86654 0.0
H3632 H 0.56526 0.32288 0.98129 0.0
H3633 H 0.59698 0.3225 0.9822 0.0
H3634 H 0.53572 0.31623 0.95884 0.0
H3635 H 0.52214 0.32564 0.93177 0.0
C3636 C 0.66646 0.55788 0.92975 0.0
C3637 C 0.6642 0.5637 0.90459 0.0
C3638 C 0.67521 0.60648 0.91371 0.0
C3639 C 0.68043 0.59986 0.93806 0.0
N3640 N 0.68445 0.56936 0.96897 0.0
N3641 N 0.66804 0.59365 0.87206 0.0
C3642 C 0.6768 0.57559 0.94606 0.0
C3643 C 0.66877 0.58812 0.89645 0.0
N3644 N 0.65898 0.53548 0.93803 0.0
N3645 N 0.67626 0.63049 0.90721 0.0
H3646 H 0.66238 0.58135 0.8586 0.0
H3647 H 0.6745 0.61009 0.86481 0.0
H3648 H 0.68205 0.64422 0.91923 0.0
H3649 H 0.6699 0.63703 0.89053 0.0
H3650 H 0.65814 0.53096 0.9565 0.0
H3651 H 0.65146 0.52207 0.92658 0.0
H3652 H 0.68478 0.55149 0.97529 0.0
H3653 H 0.69259 0.58205 0.98088 0.0
C3654 C 0.41143 0.67778 0.91877 0.0
C3655 C 0.41666 0.68274 0.94375 0.0
C3656 C 0.46074 0.6828 0.93534 0.0
C3657 C 0.45556 0.6797 0.90999 0.0
N3658 N 0.42624 0.66948 0.878 0.0
N3659 N 0.44549 0.69158 0.97599 0.0
C3660 C 0.43097 0.67567 0.90182 0.0
C3661 C 0.44115 0.68536 0.95213 0.0
N3662 N 0.38756 0.67611 0.9112 0.0
N3663 N 0.48446 0.68222 0.94339 0.0
H3664 H 0.43146 0.69352 0.98859 0.0
H3665 H 0.46267 0.69634 0.98307 0.0
H3666 H 0.49905 0.67936 0.93167 0.0
H3667 H 0.48966 0.68233 0.96173 0.0
H3668 H 0.38189 0.67564 0.89301 0.0
H3669 H 0.37296 0.67602 0.92331 0.0
H3670 H 0.40922 0.66356 0.8714 0.0
H3671 H 0.4396 0.66863 0.8647 0.0
C3672 C 0.34567 0.46785 0.94828 0.0
C3673 C 0.34524 0.45985 0.92359 0.0
C3674 C 0.33129 0.41902 0.93665 0.0
C3675 C 0.33168 0.4269 0.96127 0.0
N3676 N 0.34205 0.45714 0.9914 0.0
N3677 N 0.34334 0.42647 0.89488 0.0
C3678 C 0.33995 0.45083 0.96733 0.0
C3679 C 0.33987 0.43498 0.91806 0.0
N3680 N 0.35035 0.49185 0.95336 0.0
N3681 N 0.32206 0.39636 0.93088 0.0
H3682 H 0.34866 0.4376 0.88039 0.0
H3683 H 0.34297 0.40808 0.89035 0.0
H3684 H 0.31684 0.38347 0.9439 0.0
H3685 H 0.31806 0.39073 0.9131 0.0
H3686 H 0.34858 0.49951 0.97061 0.0
H3687 H 0.35533 0.50448 0.93996 0.0
H3688 H 0.35021 0.47333 0.99758 0.0
H3689 H 0.33644 0.44541 0.0054 0.0
C3690 C 0.46281 0.31894 0.09439 0.0
C3691 C 0.46749 0.34424 0.09735 0.0
C3692 C 0.44059 0.35208 0.06251 0.0
C3693 C 0.43136 0.32771 0.06383 0.0
N3694 N 0.4335 0.28764 0.0813 0.0
N3695 N 0.46202 0.38526 0.08352 0.0
C3696 C 0.44274 0.31087 0.07952 0.0
C3697 C 0.45697 0.36093 0.08094 0.0
N3698 N 0.47762 0.30277 0.10572 0.0
N3699 N 0.43391 0.36647 0.0434 0.0
H3700 H 0.47506 0.39201 0.096 0.0
H3701 H 0.45261 0.39861 0.07409 0.0
H3702 H 0.42285 0.35988 0.02913 0.0
H3703 H 0.44132 0.38386 0.04037 0.0
H3704 H 0.47614 0.28404 0.10301 0.0
H3705 H 0.49317 0.30849 0.1155 0.0
H3706 H 0.43945 0.27527 0.09435 0.0
H3707 H 0.41861 0.28133 0.07086 0.0
C3708 C 0.71022 0.44587 0.05948 0.0
C3709 C 0.7039 0.42193 0.06688 0.0
C3710 C 0.69034 0.43692 0.10667 0.0
C3711 C 0.69864 0.46083 0.10013 0.0
N3712 N 0.71723 0.48817 0.07058 0.0
N3713 N 0.69059 0.39362 0.09764 0.0
C3714 C 0.70876 0.46532 0.07655 0.0
C3715 C 0.69445 0.41721 0.09045 0.0
N3716 N 0.71727 0.44989 0.03588 0.0
N3717 N 0.6788 0.43289 0.12842 0.0
H3718 H 0.69371 0.37897 0.08613 0.0
H3719 H 0.68622 0.38836 0.11539 0.0
H3720 H 0.67692 0.44616 0.14172 0.0
H3721 H 0.66967 0.41664 0.13283 0.0
H3722 H 0.71979 0.46706 0.02814 0.0
H3723 H 0.71914 0.43578 0.02335 0.0
H3724 H 0.72742 0.49222 0.05506 0.0
H3725 H 0.7149 0.50324 0.08172 0.0
C3726 C 0.35344 0.56342 0.10604 0.0
C3727 C 0.33897 0.56561 0.12746 0.0
C3728 C 0.31894 0.60073 0.10874 0.0
C3729 C 0.33132 0.59676 0.08659 0.0
N3730 N 0.35678 0.57121 0.06256 0.0
N3731 N 0.30343 0.58309 0.14609 0.0
C3732 C 0.34751 0.57715 0.08477 0.0
C3733 C 0.32042 0.58335 0.12793 0.0
N3734 N 0.37372 0.54943 0.10621 0.0
N3735 N 0.30648 0.62167 0.11185 0.0
H3736 H 0.30283 0.5701 0.15993 0.0
H3737 H 0.28822 0.5941 0.14585 0.0
H3738 H 0.30576 0.63517 0.09847 0.0
H3739 H 0.29916 0.62677 0.12855 0.0
H3740 H 0.38622 0.5494 0.09194 0.0
H3741 H 0.37962 0.53979 0.12141 0.0
H3742 H 0.3665 0.55547 0.05954 0.0
H3743 H 0.35278 0.58082 0.04668 0.0
loop_
_geom_bond_atom_site_label_1
_geom_bond_atom_site_label_2
_geom_bond_distance
_geom_bond_site_symmetry_2
_ccdc_geom_bond_type
C0 C1 1.351 . S
C0 N3 1.368 . S
C0 H5 0.931 1_655 S
C1 C0 1.351 . S
C1 N2 1.373 . S
C1 H29 0.930 . S
N2 C1 1.373 . S
N2 C4 1.340 . S
N3 C0 1.368 . S
N3 C4 1.321 . S
N3 Co6 2.135 1_655 S
C4 N2 1.340 . S
C4 N3 1.321 . S
C4 H28 0.930 . S
H5 C0 0.931 1_455 S
Co6 N3 2.135 1_455 S
Co6 N9 2.121 . S
Co6 O14 2.055 . S
Co6 O17 2.039 1_455 S
Co6 N20 2.140 . S
C7 O8 1.227 . S
C7 O17 1.265 . S
O8 C7 1.227 . S
N9 Co6 2.121 . S
N9 C11 1.375 . S
N9 C12 1.313 . S
C10 C11 1.338 . S
C10 N13 1.377 . S
C10 H30 0.930 . S
C11 N9 1.375 . S
C11 C10 1.338 . S
C11 H15 0.931 . S
C12 N9 1.313 . S
C12 N13 1.344 . S
C12 H16 0.930 . S
N13 C10 1.377 . S
N13 C12 1.344 . S
O14 Co6 2.055 . S
O14 C18 1.253 . S
H15 C11 0.931 . S
H16 C12 0.930 . S
O17 Co6 2.039 1_655 S
O17 C7 1.265 . S
C18 O14 1.253 . S
C18 O19 1.227 . S
O19 C18 1.227 . S
N20 Co6 2.140 . S
N20 C23 1.346 1_455 S
N20 C24 1.345 . S
C21 C22 1.387 1_455 S
C21 C25 1.391 . S
C22 C21 1.387 1_655 S
C22 C23 1.369 . S
C22 H31 0.929 . S
C23 N20 1.346 1_655 S
C23 C22 1.369 . S
C23 H26 0.928 . S
C24 N20 1.345 . S
C24 C25 1.371 . S
C24 H27 0.931 . S
C25 C21 1.391 . S
C25 C24 1.371 . S
C25 H32 0.930 . S
H26 C23 0.928 . S
H27 C24 0.931 . S
H28 C4 0.930 . S
H29 C1 0.930 . S
H30 C10 0.930 . S
H31 C22 0.929 . S
H32 C25 0.930 . S
C33 C34 1.351 . S
C33 N36 1.368 . S
C33 H38 0.931 . S
C34 C33 1.351 . S
C34 N35 1.373 . S
C34 H62 0.930 . S
N35 C34 1.373 . S
N35 C37 1.340 . S
N36 C33 1.368 . S
N36 C37 1.321 . S
N36 Co39 2.135 . S
C37 N35 1.340 . S
C37 N36 1.321 . S
C37 H61 0.930 . S
H38 C33 0.931 . S
Co39 N36 2.135 . S
Co39 N42 2.121 1_545 S
Co39 O47 2.055 1_545 S
Co39 O50 2.039 . S
Co39 N53 2.140 . S
C40 O41 1.227 . S
C40 O50 1.265 . S
O41 C40 1.227 . S
N42 Co39 2.121 1_565 S
N42 C44 1.375 . S
N42 C45 1.313 . S
C43 C44 1.338 . S
C43 N46 1.377 . S
C43 H63 0.930 . S
C44 N42 1.375 . S
C44 C43 1.338 . S
C44 H48 0.909 1_565 S
C45 N42 1.313 . S
C45 N46 1.344 . S
C45 H49 0.930 . S
N46 C43 1.377 . S
N46 C45 1.344 . S
O47 Co39 2.055 1_565 S
O47 C51 1.253 . S
H48 C44 0.909 1_545 S
H49 C45 0.930 . S
O50 Co39 2.039 . S
O50 C40 1.265 . S
C51 O47 1.253 . S
C51 O52 1.227 . S
O52 C51 1.227 . S
N53 Co39 2.140 . S
N53 C56 1.346 . S
N53 C57 1.345 1_545 S
C54 C55 1.387 . S
C54 C58 1.391 1_545 S
C55 C54 1.387 . S
C55 C56 1.369 . S
C55 H64 0.929 . S
C56 N53 1.346 . S
C56 C55 1.369 . S
C56 H59 0.928 . S
C57 N53 1.345 1_565 S
C57 C58 1.371 . S
C57 H60 0.931 . S
C58 C54 1.391 1_565 S
C58 C57 1.371 . S
C58 H65 0.930 . S
H59 C56 0.928 . S
H60 C57 0.931 . S
H61 C37 0.930 . S
H62 C34 0.930 . S
H63 C43 0.930 . S
H64 C55 0.929 . S
H65 C58 0.930 . S
C66 C67 1.351 . S
C66 N69 1.368 . S
C66 H71 0.931 1_655 S
C67 C66 1.351 . S
C67 N68 1.373 . S
C67 H95 0.930 . S
N68 C67 1.373 . S
N68 C70 1.340 . S
N69 C66 1.368 . S
N69 C70 1.321 . S
N69 Co72 2.135 1_655 S
C70 N68 1.340 . S
C70 N69 1.321 . S
C70 H94 0.930 . S
H71 C66 0.931 1_455 S
Co72 N69 2.135 1_455 S
Co72 N75 2.121 . S
Co72 O80 2.055 . S
Co72 O83 2.039 1_455 S
Co72 N86 2.140 . S
C73 O74 1.227 . S
C73 O83 1.265 . S
O74 C73 1.227 . S
N75 Co72 2.121 . S
N75 C77 1.375 . S
N75 C78 1.313 . S
C76 C77 1.338 . S
C76 N79 1.377 . S
C76 H96 0.930 . S
C77 N75 1.375 . S
C77 C76 1.338 . S
C77 H81 0.931 . S
C78 N75 1.313 . S
C78 N79 1.344 . S
C78 H82 0.930 . S
N79 C76 1.377 . S
N79 C78 1.344 . S
O80 Co72 2.055 . S
O80 C84 1.253 . S
H81 C77 0.931 . S
H82 C78 0.930 . S
O83 Co72 2.039 1_655 S
O83 C73 1.265 . S
C84 O80 1.253 . S
C84 O85 1.227 . S
O85 C84 1.227 . S
N86 Co72 2.140 . S
N86 C89 1.346 1_455 S
N86 C90 1.345 . S
C87 C88 1.387 1_455 S
C87 C91 1.391 . S
C88 C87 1.387 1_655 S
C88 C89 1.369 . S
C88 H97 0.929 . S
C89 N86 1.346 1_655 S
C89 C88 1.369 . S
C89 H92 0.928 . S
C90 N86 1.345 . S
C90 C91 1.371 . S
C90 H93 0.931 . S
C91 C87 1.391 . S
C91 C90 1.371 . S
C91 H98 0.930 . S
H92 C89 0.928 . S
H93 C90 0.931 . S
H94 C70 0.930 . S
H95 C67 0.930 . S
H96 C76 0.930 . S
H97 C88 0.929 . S
H98 C91 0.930 . S
C99 C100 1.351 . S
C99 N102 1.368 . S
C99 H104 0.931 1_565 S
C100 C99 1.351 . S
C100 N101 1.373 . S
C100 H128 0.930 . S
N101 C100 1.373 . S
N101 C103 1.340 . S
N102 C99 1.368 . S
N102 C103 1.321 . S
N102 Co105 2.135 1_565 S
C103 N101 1.340 . S
C103 N102 1.321 . S
C103 H127 0.930 . S
H104 C99 0.931 1_545 S
Co105 N102 2.135 1_545 S
Co105 N108 2.121 . S
Co105 O113 2.055 . S
Co105 O116 2.039 1_545 S
Co105 N119 2.140 . S
C106 O107 1.227 . S
C106 O116 1.265 . S
O107 C106 1.227 . S
N108 Co105 2.121 . S
N108 C110 1.375 . S
N108 C111 1.313 . S
C109 C110 1.338 . S
C109 N112 1.377 . S
C109 H129 0.930 . S
C110 N108 1.375 . S
C110 C109 1.338 . S
C110 H114 0.931 . S
C111 N108 1.313 . S
C111 N112 1.344 . S
C111 H115 0.930 . S
N112 C109 1.377 . S
N112 C111 1.344 . S
O113 Co105 2.055 . S
O113 C117 1.253 . S
H114 C110 0.931 . S
H115 C111 0.930 . S
O116 Co105 2.039 1_565 S
O116 C106 1.265 . S
C117 O113 1.253 . S
C117 O118 1.227 . S
O118 C117 1.227 . S
N119 Co105 2.140 . S
N119 C122 1.346 1_545 S
N119 C123 1.345 . S
C120 C121 1.387 1_545 S
C120 C124 1.391 . S
C121 C120 1.387 1_565 S
C121 C122 1.369 . S
C121 H130 0.929 . S
C122 N119 1.346 1_565 S
C122 C121 1.369 . S
C122 H125 0.928 . S
C123 N119 1.345 . S
C123 C124 1.371 . S
C123 H126 0.931 . S
C124 C120 1.391 . S
C124 C123 1.371 . S
C124 H131 0.930 . S
H125 C122 0.928 . S
H126 C123 0.931 . S
H127 C103 0.930 . S
H128 C100 0.930 . S
H129 C109 0.930 . S
H130 C121 0.929 . S
H131 C124 0.930 . S
C132 C133 1.351 . S
C132 N135 1.368 . S
C132 H137 0.931 . S
C133 C132 1.351 . S
C133 N134 1.373 . S
C133 H161 0.930 . S
N134 C133 1.373 . S
N134 C136 1.340 . S
N135 C132 1.368 . S
N135 C136 1.321 . S
N135 Co138 2.135 . S
C136 N134 1.340 . S
C136 N135 1.321 . S
C136 H160 0.930 . S
H137 C132 0.931 . S
Co138 N135 2.135 . S
Co138 N141 2.121 1_455 S
Co138 O146 2.055 1_455 S
Co138 O149 2.039 . S
Co138 N152 2.140 . S
C139 O140 1.227 . S
C139 O149 1.265 . S
O140 C139 1.227 . S
N141 Co138 2.121 1_655 S
N141 C143 1.375 . S
N141 C144 1.313 . S
C142 C143 1.338 . S
C142 N145 1.377 . S
C142 H162 0.930 . S
C143 N141 1.375 . S
C143 C142 1.338 . S
C143 H147 0.931 1_655 S
C144 N141 1.313 . S
C144 N145 1.344 . S
C144 H148 0.930 . S
N145 C142 1.377 . S
N145 C144 1.344 . S
O146 Co138 2.055 1_655 S
O146 C150 1.253 . S
H147 C143 0.931 1_455 S
H148 C144 0.930 . S
O149 Co138 2.039 . S
O149 C139 1.265 . S
C150 O146 1.253 . S
C150 O151 1.227 . S
O151 C150 1.227 . S
N152 Co138 2.140 . S
N152 C155 1.346 . S
N152 C156 1.345 1_455 S
C153 C154 1.387 . S
C153 C157 1.391 1_455 S
C154 C153 1.387 . S
C154 C155 1.369 . S
C154 H163 0.929 . S
C155 N152 1.346 . S
C155 C154 1.369 . S
C155 H158 0.928 . S
C156 N152 1.345 1_655 S
C156 C157 1.371 . S
C156 H159 0.931 . S
C157 C153 1.391 1_655 S
C157 C156 1.371 . S
C157 H164 0.930 . S
H158 C155 0.928 . S
H159 C156 0.931 . S
H160 C136 0.930 . S
H161 C133 0.930 . S
H162 C142 0.930 . S
H163 C154 0.929 . S
H164 C157 0.930 . S
C165 C166 1.351 . S
C165 N168 1.368 . S
C165 H170 0.931 1_565 S
C166 C165 1.351 . S
C166 N167 1.373 . S
C166 H194 0.930 . S
N167 C166 1.373 . S
N167 C169 1.340 . S
N168 C165 1.368 . S
N168 C169 1.321 . S
N168 Co171 2.135 1_565 S
C169 N167 1.340 . S
C169 N168 1.321 . S
C169 H193 0.930 . S
H170 C165 0.931 1_545 S
Co171 N168 2.135 1_545 S
Co171 N174 2.121 . S
Co171 O179 2.055 . S
Co171 O182 2.039 1_545 S
Co171 N185 2.140 . S
C172 O173 1.227 . S
C172 O182 1.265 . S
O173 C172 1.227 . S
N174 Co171 2.121 . S
N174 C176 1.375 . S
N174 C177 1.313 . S
C175 C176 1.338 . S
C175 N178 1.377 . S
C175 H195 0.930 . S
C176 N174 1.375 . S
C176 C175 1.338 . S
C176 H180 0.931 . S
C177 N174 1.313 . S
C177 N178 1.344 . S
C177 H181 0.930 . S
N178 C175 1.377 . S
N178 C177 1.344 . S
O179 Co171 2.055 . S
O179 C183 1.253 . S
H180 C176 0.931 . S
H181 C177 0.930 . S
O182 Co171 2.039 1_565 S
O182 C172 1.265 . S
C183 O179 1.253 . S
C183 O184 1.227 . S
O184 C183 1.227 . S
N185 Co171 2.140 . S
N185 C188 1.346 1_545 S
N185 C189 1.345 . S
C186 C187 1.387 1_545 S
C186 C190 1.391 . S
C187 C186 1.387 1_565 S
C187 C188 1.369 . S
C187 H196 0.929 . S
C188 N185 1.346 1_565 S
C188 C187 1.369 . S
C188 H191 0.928 . S
C189 N185 1.345 . S
C189 C190 1.371 . S
C189 H192 0.931 . S
C190 C186 1.391 . S
C190 C189 1.371 . S
C190 H197 0.930 . S
H191 C188 0.928 . S
H192 C189 0.931 . S
H193 C169 0.930 . S
H194 C166 0.930 . S
H195 C175 0.930 . S
H196 C187 0.929 . S
H197 C190 0.930 . S
C198 C199 1.351 . S
C198 N201 1.368 . S
C198 H203 0.931 1_655 S
C199 C198 1.351 . S
C199 N200 1.373 . S
C199 H227 0.930 . S
N200 C199 1.373 . S
N200 C202 1.340 . S
N201 C198 1.368 . S
N201 C202 1.321 . S
N201 Co204 2.135 1_655 S
C202 N200 1.340 . S
C202 N201 1.321 . S
C202 H226 0.930 . S
H203 C198 0.931 1_455 S
Co204 N201 2.135 1_455 S
Co204 N207 2.121 . S
Co204 O212 2.055 . S
Co204 O215 2.039 1_455 S
Co204 N218 2.140 . S
C205 O206 1.227 . S
C205 O215 1.265 . S
O206 C205 1.227 . S
N207 Co204 2.121 . S
N207 C209 1.375 . S
N207 C210 1.313 . S
C208 C209 1.338 . S
C208 N211 1.377 . S
C208 H228 0.930 . S
C209 N207 1.375 . S
C209 C208 1.338 . S
C209 H213 0.931 . S
C210 N207 1.313 . S
C210 N211 1.344 . S
C210 H214 0.930 . S
N211 C208 1.377 . S
N211 C210 1.344 . S
O212 Co204 2.055 . S
O212 C216 1.253 . S
H213 C209 0.931 . S
H214 C210 0.930 . S
O215 Co204 2.039 1_655 S
O215 C205 1.265 . S
C216 O212 1.253 . S
C216 O217 1.227 . S
O217 C216 1.227 . S
N218 Co204 2.140 . S
N218 C221 1.346 1_455 S
N218 C222 1.345 . S
C219 C220 1.382 1_455 S
C219 C223 1.397 . S
C220 C219 1.382 1_655 S
C220 C221 1.369 . S
C220 H229 0.929 . S
C221 N218 1.346 1_655 S
C221 C220 1.369 . S
C221 H224 0.928 . S
C222 N218 1.345 . S
C222 C223 1.371 . S
C222 H225 0.931 . S
C223 C219 1.397 . S
C223 C222 1.371 . S
C223 H230 0.930 . S
H224 C221 0.928 . S
H225 C222 0.931 . S
H226 C202 0.930 . S
H227 C199 0.930 . S
H228 C208 0.930 . S
H229 C220 0.929 . S
H230 C223 0.930 . S
C231 C232 1.351 . S
C231 N234 1.368 . S
C231 H236 0.931 . S
C232 C231 1.351 . S
C232 N233 1.373 . S
C232 H260 0.930 . S
N233 C232 1.373 . S
N233 C235 1.340 . S
N234 C231 1.368 . S
N234 C235 1.321 . S
N234 Co237 2.135 . S
C235 N233 1.340 . S
C235 N234 1.321 . S
C235 H259 0.930 . S
H236 C231 0.931 . S
Co237 N234 2.135 . S
Co237 N240 2.121 1_545 S
Co237 O245 2.055 1_545 S
Co237 O248 2.039 . S
Co237 N251 2.140 . S
C238 O239 1.227 . S
C238 O248 1.265 . S
O239 C238 1.227 . S
N240 Co237 2.121 1_565 S
N240 C242 1.375 . S
N240 C243 1.313 . S
C241 C242 1.338 . S
C241 N244 1.377 . S
C241 H261 0.930 . S
C242 N240 1.375 . S
C242 C241 1.338 . S
C242 H246 0.931 1_565 S
C243 N240 1.313 . S
C243 N244 1.344 . S
C243 H247 0.930 . S
N244 C241 1.377 . S
N244 C243 1.344 . S
O245 Co237 2.055 1_565 S
O245 C249 1.253 . S
H246 C242 0.931 1_545 S
H247 C243 0.930 . S
O248 Co237 2.039 . S
O248 C238 1.265 . S
C249 O245 1.253 . S
C249 O250 1.227 . S
O250 C249 1.227 . S
N251 Co237 2.140 . S
N251 C254 1.346 . S
N251 C255 1.345 1_545 S
C252 C253 1.387 . S
C252 C256 1.391 1_545 S
C253 C252 1.387 . S
C253 C254 1.369 . S
C253 H262 0.929 . S
C254 N251 1.346 . S
C254 C253 1.369 . S
C254 H257 0.928 . S
C255 N251 1.345 1_565 S
C255 C256 1.371 . S
C255 H258 0.931 . S
C256 C252 1.391 1_565 S
C256 C255 1.371 . S
C256 H263 0.930 . S
H257 C254 0.928 . S
H258 C255 0.931 . S
H259 C235 0.930 . S
H260 C232 0.930 . S
H261 C241 0.930 . S
H262 C253 0.929 . S
H263 C256 0.930 . S
C264 C265 1.351 . S
C264 N267 1.368 . S
C264 H269 0.931 1_556 S
C265 C264 1.351 . S
C265 N266 1.373 . S
C265 H293 0.930 . S
N266 C265 1.373 . S
N266 C268 1.340 . S
N267 C264 1.368 . S
N267 C268 1.321 . S
N267 Co270 2.135 1_556 S
C268 N266 1.340 . S
C268 N267 1.321 . S
C268 H292 0.930 . S
H269 C264 0.931 1_554 S
Co270 N267 2.135 1_554 S
Co270 N273 2.121 . S
Co270 O278 2.055 . S
Co270 O281 2.039 1_554 S
Co270 N284 2.140 . S
C271 O272 1.227 . S
C271 O281 1.265 . S
O272 C271 1.227 . S
N273 Co270 2.121 . S
N273 C275 1.375 . S
N273 C276 1.313 . S
C274 C275 1.338 . S
C274 N277 1.377 . S
C274 H294 0.930 . S
C275 N273 1.375 . S
C275 C274 1.338 . S
C275 H279 0.931 . S
C276 N273 1.313 . S
C276 N277 1.344 . S
C276 H280 0.930 . S
N277 C274 1.377 . S
N277 C276 1.344 . S
O278 Co270 2.055 . S
O278 C282 1.253 . S
H279 C275 0.931 . S
H280 C276 0.930 . S
O281 Co270 2.039 1_556 S
O281 C271 1.265 . S
C282 O278 1.253 . S
C282 O283 1.227 . S
O283 C282 1.227 . S
N284 Co270 2.140 . S
N284 C287 1.346 1_554 S
N284 C288 1.345 . S
C285 C286 1.387 1_554 S
C285 C289 1.391 . S
C286 C285 1.387 1_556 S
C286 C287 1.369 . S
C286 H295 0.929 . S
C287 N284 1.346 1_556 S
C287 C286 1.369 . S
C287 H290 0.928 . S
C288 N284 1.345 . S
C288 C289 1.371 . S
C288 H291 0.931 . S
C289 C285 1.391 . S
C289 C288 1.371 . S
C289 H296 0.930 . S
H290 C287 0.928 . S
H291 C288 0.931 . S
H292 C268 0.930 . S
H293 C265 0.930 . S
H294 C274 0.930 . S
H295 C286 0.929 . S
H296 C289 0.930 . S
C297 C298 1.351 . S
C297 N300 1.368 . S
C297 H302 0.931 . S
C298 C297 1.351 . S
C298 N299 1.373 . S
C298 H326 0.930 . S
N299 C298 1.373 . S
N299 C301 1.340 . S
N300 C297 1.368 . S
N300 C301 1.321 . S
N300 Co303 2.135 . S
C301 N299 1.340 . S
C301 N300 1.321 . S
C301 H325 0.930 . S
H302 C297 0.931 . S
Co303 N300 2.135 . S
Co303 N306 2.121 1_554 S
Co303 O311 2.055 1_554 S
Co303 O314 2.039 . S
Co303 N317 2.140 . S
C304 O305 1.227 . S
C304 O314 1.265 . S
O305 C304 1.227 . S
N306 Co303 2.121 1_556 S
N306 C308 1.375 . S
N306 C309 1.313 . S
C307 C308 1.338 . S
C307 N310 1.377 . S
C307 H327 0.930 . S
C308 N306 1.375 . S
C308 C307 1.338 . S
C308 H312 0.931 1_556 S
C309 N306 1.313 . S
C309 N310 1.344 . S
C309 H313 0.930 . S
N310 C307 1.377 . S
N310 C309 1.344 . S
O311 Co303 2.055 1_556 S
O311 C315 1.253 . S
H312 C308 0.931 1_554 S
H313 C309 0.930 . S
O314 Co303 2.039 . S
O314 C304 1.265 . S
C315 O311 1.253 . S
C315 O316 1.227 . S
O316 C315 1.227 . S
N317 Co303 2.140 . S
N317 C320 1.346 . S
N317 C321 1.345 1_554 S
C318 C319 1.387 . S
C318 C322 1.391 1_554 S
C319 C318 1.387 . S
C319 C320 1.369 . S
C319 H328 0.929 . S
C320 N317 1.346 . S
C320 C319 1.369 . S
C320 H323 0.928 . S
C321 N317 1.345 1_556 S
C321 C322 1.371 . S
C321 H324 0.931 . S
C322 C318 1.391 1_556 S
C322 C321 1.371 . S
C322 H329 0.930 . S
H323 C320 0.928 . S
H324 C321 0.931 . S
H325 C301 0.930 . S
H326 C298 0.930 . S
H327 C307 0.930 . S
H328 C319 0.929 . S
H329 C322 0.930 . S
C330 C331 1.351 . S
C330 N333 1.368 . S
C330 H335 0.931 1_556 S
C331 C330 1.351 . S
C331 N332 1.373 . S
C331 H359 0.930 . S
N332 C331 1.373 . S
N332 C334 1.340 . S
N333 C330 1.368 . S
N333 C334 1.321 . S
N333 Co336 2.135 1_556 S
C334 N332 1.340 . S
C334 N333 1.321 . S
C334 H358 0.930 . S
H335 C330 0.931 1_554 S
Co336 N333 2.135 1_554 S
Co336 N339 2.121 . S
Co336 O344 2.055 . S
Co336 O347 2.039 1_554 S
Co336 N350 2.140 . S
C337 O338 1.227 . S
C337 O347 1.265 . S
O338 C337 1.227 . S
N339 Co336 2.121 . S
N339 C341 1.375 . S
N339 C342 1.313 . S
C340 C341 1.338 . S
C340 N343 1.377 . S
C340 H360 0.930 . S
C341 N339 1.375 . S
C341 C340 1.338 . S
C341 H345 0.931 . S
C342 N339 1.313 . S
C342 N343 1.344 . S
C342 H346 0.930 . S
N343 C340 1.377 . S
N343 C342 1.344 . S
O344 Co336 2.055 . S
O344 C348 1.253 . S
H345 C341 0.931 . S
H346 C342 0.930 . S
O347 Co336 2.039 1_556 S
O347 C337 1.265 . S
C348 O344 1.253 . S
C348 O349 1.227 . S
O349 C348 1.227 . S
N350 Co336 2.140 . S
N350 C353 1.346 1_554 S
N350 C354 1.345 . S
C351 C352 1.387 1_554 S
C351 C355 1.391 . S
C352 C351 1.387 1_556 S
C352 C353 1.369 . S
C352 H361 0.929 . S
C353 N350 1.346 1_556 S
C353 C352 1.369 . S
C353 H356 0.928 . S
C354 N350 1.345 . S
C354 C355 1.371 . S
C354 H357 0.931 . S
C355 C351 1.391 . S
C355 C354 1.371 . S
C355 H362 0.930 . S
H356 C353 0.928 . S
H357 C354 0.931 . S
H358 C334 0.930 . S
H359 C331 0.930 . S
H360 C340 0.930 . S
H361 C352 0.929 . S
H362 C355 0.930 . S
C363 C364 1.351 . S
C363 N366 1.368 . S
C363 H368 0.931 1_556 S
C364 C363 1.351 . S
C364 N365 1.373 . S
C364 H392 0.930 . S
N365 C364 1.373 . S
N365 C367 1.340 . S
N366 C363 1.368 . S
N366 C367 1.321 . S
N366 Co369 2.135 1_556 S
C367 N365 1.340 . S
C367 N366 1.321 . S
C367 H391 0.930 . S
H368 C363 0.931 1_554 S
Co369 N366 2.135 1_554 S
Co369 N372 2.121 . S
Co369 O377 2.055 . S
Co369 O380 2.039 1_554 S
Co369 N383 2.140 . S
C370 O371 1.227 . S
C370 O380 1.265 . S
O371 C370 1.227 . S
N372 Co369 2.121 . S
N372 C374 1.375 . S
N372 C375 1.313 . S
C373 C374 1.338 . S
C373 N376 1.377 . S
C373 H393 0.930 . S
C374 N372 1.375 . S
C374 C373 1.338 . S
C374 H378 0.931 . S
C375 N372 1.313 . S
C375 N376 1.344 . S
C375 H379 0.930 . S
N376 C373 1.377 . S
N376 C375 1.344 . S
O377 Co369 2.055 . S
O377 C381 1.253 . S
H378 C374 0.931 . S
H379 C375 0.930 . S
O380 Co369 2.039 1_556 S
O380 C370 1.265 . S
C381 O377 1.253 . S
C381 O382 1.227 . S
O382 C381 1.227 . S
N383 Co369 2.140 . S
N383 C386 1.346 1_554 S
N383 C387 1.345 . S
C384 C385 1.387 1_554 S
C384 C388 1.391 . S
C385 C384 1.387 1_556 S
C385 C386 1.369 . S
C385 H394 0.929 . S
C386 N383 1.346 1_556 S
C386 C385 1.369 . S
C386 H389 0.928 . S
C387 N383 1.345 . S
C387 C388 1.371 . S
C387 H390 0.931 . S
C388 C384 1.391 . S
C388 C387 1.371 . S
C388 H395 0.930 . S
H389 C386 0.928 . S
H390 C387 0.931 . S
H391 C367 0.930 . S
H392 C364 0.930 . S
H393 C373 0.930 . S
H394 C385 0.929 . S
H395 C388 0.930 . S
C396 C397 1.351 . S
C396 N399 1.368 . S
C396 H401 0.931 1_655 S
C397 C396 1.351 . S
C397 N398 1.373 . S
C397 H425 0.930 . S
N398 C397 1.373 . S
N398 C400 1.340 . S
N399 C396 1.368 . S
N399 C400 1.321 . S
N399 Co402 2.135 1_655 S
C400 N398 1.340 . S
C400 N399 1.321 . S
C400 H424 0.930 . S
H401 C396 0.931 1_455 S
Co402 N399 2.135 1_455 S
Co402 N405 2.121 . S
Co402 O410 2.055 . S
Co402 O413 2.039 1_455 S
Co402 N416 2.140 . S
C403 O404 1.227 . S
C403 O413 1.265 . S
O404 C403 1.227 . S
N405 Co402 2.121 . S
N405 C407 1.375 . S
N405 C408 1.313 . S
C406 C407 1.338 . S
C406 N409 1.377 . S
C406 H426 0.930 . S
C407 N405 1.375 . S
C407 C406 1.338 . S
C407 H411 0.931 . S
C408 N405 1.313 . S
C408 N409 1.344 . S
C408 H412 0.930 . S
N409 C406 1.377 . S
N409 C408 1.344 . S
O410 Co402 2.055 . S
O410 C414 1.253 . S
H411 C407 0.931 . S
H412 C408 0.930 . S
O413 Co402 2.039 1_655 S
O413 C403 1.265 . S
C414 O410 1.253 . S
C414 O415 1.227 . S
O415 C414 1.227 . S
N416 Co402 2.140 . S
N416 C419 1.346 1_455 S
N416 C420 1.345 . S
C417 C418 1.387 1_455 S
C417 C421 1.391 . S
C418 C417 1.387 1_655 S
C418 C419 1.369 . S
C418 H427 0.929 . S
C419 N416 1.346 1_655 S
C419 C418 1.369 . S
C419 H422 0.928 . S
C420 N416 1.345 . S
C420 C421 1.371 . S
C420 H423 0.931 . S
C421 C417 1.391 . S
C421 C420 1.371 . S
C421 H428 0.930 . S
H422 C419 0.928 . S
H423 C420 0.931 . S
H424 C400 0.930 . S
H425 C397 0.930 . S
H426 C406 0.930 . S
H427 C418 0.929 . S
H428 C421 0.930 . S
C429 C430 1.351 . S
C429 N432 1.368 . S
C429 H434 0.931 . S
C430 C429 1.351 . S
C430 N431 1.373 . S
C430 H458 0.930 . S
N431 C430 1.373 . S
N431 C433 1.340 . S
N432 C429 1.368 . S
N432 C433 1.321 . S
N432 Co435 2.135 . S
C433 N431 1.340 . S
C433 N432 1.321 . S
C433 H457 0.930 . S
H434 C429 0.931 . S
Co435 N432 2.135 . S
Co435 N438 2.121 . S
Co435 O443 2.055 . S
Co435 O446 2.039 . S
Co435 N449 2.140 . S
C436 O437 1.227 . S
C436 O446 1.265 . S
O437 C436 1.227 . S
N438 Co435 2.121 . S
N438 C440 1.375 . S
N438 C441 1.313 . S
C439 C440 1.338 . S
C439 N442 1.377 . S
C439 H459 0.930 . S
C440 N438 1.375 . S
C440 C439 1.338 . S
C440 H444 0.931 . S
C441 N438 1.313 . S
C441 N442 1.344 . S
C441 H445 0.930 . S
N442 C439 1.377 . S
N442 C441 1.344 . S
O443 Co435 2.055 . S
O443 C447 1.253 . S
H444 C440 0.931 . S
H445 C441 0.930 . S
O446 Co435 2.039 . S
O446 C436 1.265 . S
C447 O443 1.253 . S
C447 O448 1.227 . S
O448 C447 1.227 . S
N449 Co435 2.140 . S
N449 C452 1.346 . S
N449 C453 1.345 . S
C450 C451 1.387 . S
C450 C454 1.391 . S
C451 C450 1.387 . S
C451 C452 1.369 . S
C451 H460 0.929 . S
C452 N449 1.346 . S
C452 C451 1.369 . S
C452 H455 0.928 . S
C453 N449 1.345 . S
C453 C454 1.371 . S
C453 H456 0.931 . S
C454 C450 1.391 . S
C454 C453 1.371 . S
C454 H461 0.930 . S
H455 C452 0.928 . S
H456 C453 0.931 . S
H457 C433 0.930 . S
H458 C430 0.930 . S
H459 C439 0.930 . S
H460 C451 0.929 . S
H461 C454 0.930 . S
C462 C463 1.351 . S
C462 N465 1.368 . S
C462 H467 0.931 1_655 S
C463 C462 1.351 . S
C463 N464 1.373 . S
C463 H491 0.930 . S
N464 C463 1.373 . S
N464 C466 1.340 . S
N465 C462 1.368 . S
N465 C466 1.321 . S
N465 Co468 2.135 1_655 S
C466 N464 1.340 . S
C466 N465 1.321 . S
C466 H490 0.930 . S
H467 C462 0.931 1_455 S
Co468 N465 2.135 1_455 S
Co468 N471 2.121 . S
Co468 O476 2.055 . S
Co468 O479 2.039 1_455 S
Co468 N482 2.140 . S
C469 O470 1.227 . S
C469 O479 1.265 . S
O470 C469 1.227 . S
N471 Co468 2.121 . S
N471 C473 1.375 . S
N471 C474 1.313 . S
C472 C473 1.338 . S
C472 N475 1.377 . S
C472 H492 0.930 . S
C473 N471 1.375 . S
C473 C472 1.338 . S
C473 H477 0.931 . S
C474 N471 1.313 . S
C474 N475 1.344 . S
C474 H478 0.930 . S
N475 C472 1.377 . S
N475 C474 1.344 . S
O476 Co468 2.055 . S
O476 C480 1.253 . S
H477 C473 0.931 . S
H478 C474 0.930 . S
O479 Co468 2.039 1_655 S
O479 C469 1.265 . S
C480 O476 1.253 . S
C480 O481 1.227 . S
O481 C480 1.227 . S
N482 Co468 2.140 . S
N482 C485 1.346 1_455 S
N482 C486 1.345 . S
C483 C484 1.387 1_455 S
C483 C487 1.391 . S
C484 C483 1.387 1_655 S
C484 C485 1.369 . S
C484 H493 0.929 . S
C485 N482 1.346 1_655 S
C485 C484 1.369 . S
C485 H488 0.928 . S
C486 N482 1.345 . S
C486 C487 1.371 . S
C486 H489 0.931 . S
C487 C483 1.391 . S
C487 C486 1.371 . S
C487 H494 0.930 . S
H488 C485 0.928 . S
H489 C486 0.931 . S
H490 C466 0.930 . S
H491 C463 0.930 . S
H492 C472 0.930 . S
H493 C484 0.929 . S
H494 C487 0.930 . S
C495 C496 1.351 . S
C495 N498 1.368 . S
C495 H500 0.931 . S
C496 C495 1.351 . S
C496 N497 1.373 . S
C496 H524 0.930 . S
N497 C496 1.373 . S
N497 C499 1.340 . S
N498 C495 1.368 . S
N498 C499 1.321 . S
N498 Co501 2.135 . S
C499 N497 1.340 . S
C499 N498 1.321 . S
C499 H523 0.930 . S
H500 C495 0.931 . S
Co501 N498 2.135 . S
Co501 N504 2.121 . S
Co501 O509 2.055 . S
Co501 O512 2.039 . S
Co501 N515 2.140 . S
C502 O503 1.227 . S
C502 O512 1.265 . S
O503 C502 1.227 . S
N504 Co501 2.121 . S
N504 C506 1.375 . S
N504 C507 1.313 . S
C505 C506 1.338 . S
C505 N508 1.377 . S
C505 H525 0.930 . S
C506 N504 1.375 . S
C506 C505 1.338 . S
C506 H510 0.931 . S
C507 N504 1.313 . S
C507 N508 1.344 . S
C507 H511 0.930 . S
N508 C505 1.377 . S
N508 C507 1.344 . S
O509 Co501 2.055 . S
O509 C513 1.253 . S
H510 C506 0.931 . S
H511 C507 0.930 . S
O512 Co501 2.039 . S
O512 C502 1.265 . S
C513 O509 1.253 . S
C513 O514 1.227 . S
O514 C513 1.227 . S
N515 Co501 2.140 . S
N515 C518 1.346 . S
N515 C519 1.345 . S
C516 C517 1.387 . S
C516 C520 1.391 . S
C517 C516 1.387 . S
C517 C518 1.369 . S
C517 H526 0.929 . S
C518 N515 1.346 . S
C518 C517 1.369 . S
C518 H521 0.928 . S
C519 N515 1.345 . S
C519 C520 1.371 . S
C519 H522 0.931 . S
C520 C516 1.391 . S
C520 C519 1.371 . S
C520 H527 0.930 . S
H521 C518 0.928 . S
H522 C519 0.931 . S
H523 C499 0.930 . S
H524 C496 0.930 . S
H525 C505 0.930 . S
H526 C517 0.929 . S
H527 C520 0.930 . S
C528 C529 1.351 . S
C528 N531 1.368 . S
C528 H533 0.931 . S
C529 C528 1.351 . S
C529 N530 1.373 . S
C529 H557 0.930 . S
N530 C529 1.373 . S
N530 C532 1.340 . S
N531 C528 1.368 . S
N531 C532 1.321 . S
N531 Co534 2.135 . S
C532 N530 1.340 . S
C532 N531 1.321 . S
C532 H556 0.930 . S
H533 C528 0.931 . S
Co534 N531 2.135 . S
Co534 N537 2.121 1_455 S
Co534 O542 2.055 1_455 S
Co534 O545 2.039 . S
Co534 N548 2.140 . S
C535 O536 1.227 . S
C535 O545 1.265 . S
O536 C535 1.227 . S
N537 Co534 2.121 1_655 S
N537 C539 1.375 . S
N537 C540 1.313 . S
C538 C539 1.338 . S
C538 N541 1.377 . S
C538 H558 0.930 . S
C539 N537 1.375 . S
C539 C538 1.338 . S
C539 H543 0.931 1_655 S
C540 N537 1.313 . S
C540 N541 1.344 . S
C540 H544 0.930 . S
N541 C538 1.377 . S
N541 C540 1.344 . S
O542 Co534 2.055 1_655 S
O542 C546 1.253 . S
H543 C539 0.931 1_455 S
H544 C540 0.930 . S
O545 Co534 2.039 . S
O545 C535 1.265 . S
C546 O542 1.253 . S
C546 O547 1.227 . S
O547 C546 1.227 . S
N548 Co534 2.140 . S
N548 C551 1.346 . S
N548 C552 1.345 1_455 S
C549 C550 1.387 . S
C549 C553 1.391 1_455 S
C550 C549 1.387 . S
C550 C551 1.369 . S
C550 H559 0.929 . S
C551 N548 1.346 . S
C551 C550 1.369 . S
C551 H554 0.928 . S
C552 N548 1.345 1_655 S
C552 C553 1.371 . S
C552 H555 0.931 . S
C553 C549 1.391 1_655 S
C553 C552 1.371 . S
C553 H560 0.930 . S
H554 C551 0.928 . S
H555 C552 0.931 . S
H556 C532 0.930 . S
H557 C529 0.930 . S
H558 C538 0.930 . S
H559 C550 0.929 . S
H560 C553 0.930 . S
C561 C562 1.351 . S
C561 N564 1.368 . S
C561 H566 0.931 . S
C562 C561 1.351 . S
C562 N563 1.373 . S
C562 H590 0.930 . S
N563 C562 1.373 . S
N563 C565 1.340 . S
N564 C561 1.368 . S
N564 C565 1.321 . S
N564 Co567 2.135 . S
C565 N563 1.340 . S
C565 N564 1.321 . S
C565 H589 0.930 . S
H566 C561 0.931 . S
Co567 N564 2.135 . S
Co567 N570 2.121 . S
Co567 O575 2.055 . S
Co567 O578 2.039 . S
Co567 N581 2.140 . S
C568 O569 1.227 . S
C568 O578 1.265 . S
O569 C568 1.227 . S
N570 Co567 2.121 . S
N570 C572 1.375 . S
N570 C573 1.313 . S
C571 C572 1.338 . S
C571 N574 1.377 . S
C571 H591 0.930 . S
C572 N570 1.375 . S
C572 C571 1.338 . S
C572 H576 0.931 . S
C573 N570 1.313 . S
C573 N574 1.344 . S
C573 H577 0.930 . S
N574 C571 1.377 . S
N574 C573 1.344 . S
O575 Co567 2.055 . S
O575 C579 1.253 . S
H576 C572 0.931 . S
H577 C573 0.930 . S
O578 Co567 2.039 . S
O578 C568 1.265 . S
C579 O575 1.253 . S
C579 O580 1.227 . S
O580 C579 1.227 . S
N581 Co567 2.140 . S
N581 C584 1.346 . S
N581 C585 1.345 . S
C582 C583 1.387 . S
C582 C586 1.391 . S
C583 C582 1.387 . S
C583 C584 1.369 . S
C583 H592 0.929 . S
C584 N581 1.346 . S
C584 C583 1.369 . S
C584 H587 0.928 . S
C585 N581 1.345 . S
C585 C586 1.371 . S
C585 H588 0.931 . S
C586 C582 1.391 . S
C586 C585 1.371 . S
C586 H593 0.930 . S
H587 C584 0.928 . S
H588 C585 0.931 . S
H589 C565 0.930 . S
H590 C562 0.930 . S
H591 C571 0.930 . S
H592 C583 0.929 . S
H593 C586 0.930 . S
C594 C595 1.351 . S
C594 N597 1.368 . S
C594 H599 0.931 1_655 S
C595 C594 1.351 . S
C595 N596 1.373 . S
C595 H623 0.930 . S
N596 C595 1.373 . S
N596 C598 1.340 . S
N597 C594 1.368 . S
N597 C598 1.321 . S
N597 Co600 2.135 1_655 S
C598 N596 1.340 . S
C598 N597 1.321 . S
C598 H622 0.930 . S
H599 C594 0.931 1_455 S
Co600 N597 2.135 1_455 S
Co600 N603 2.121 . S
Co600 O608 2.055 . S
Co600 O611 2.039 1_455 S
Co600 N614 2.140 . S
C601 O602 1.227 . S
C601 O611 1.265 . S
O602 C601 1.227 . S
N603 Co600 2.121 . S
N603 C605 1.375 . S
N603 C606 1.313 . S
C604 C605 1.338 . S
C604 N607 1.377 . S
C604 H624 0.930 . S
C605 N603 1.375 . S
C605 C604 1.338 . S
C605 H609 0.931 . S
C606 N603 1.313 . S
C606 N607 1.344 . S
C606 H610 0.930 . S
N607 C604 1.377 . S
N607 C606 1.344 . S
O608 Co600 2.055 . S
O608 C612 1.253 . S
H609 C605 0.931 . S
H610 C606 0.930 . S
O611 Co600 2.039 1_655 S
O611 C601 1.265 . S
C612 O608 1.253 . S
C612 O613 1.227 . S
O613 C612 1.227 . S
N614 Co600 2.140 . S
N614 C617 1.346 1_455 S
N614 C618 1.345 . S
C615 C616 1.387 1_455 S
C615 C619 1.391 . S
C616 C615 1.387 1_655 S
C616 C617 1.369 . S
C616 H625 0.929 . S
C617 N614 1.346 1_655 S
C617 C616 1.369 . S
C617 H620 0.928 . S
C618 N614 1.345 . S
C618 C619 1.371 . S
C618 H621 0.931 . S
C619 C615 1.391 . S
C619 C618 1.371 . S
C619 H626 0.930 . S
H620 C617 0.928 . S
H621 C618 0.931 . S
H622 C598 0.930 . S
H623 C595 0.930 . S
H624 C604 0.930 . S
H625 C616 0.929 . S
H626 C619 0.930 . S
C627 C628 1.351 . S
C627 N630 1.368 . S
C627 H632 0.931 . S
C628 C627 1.351 . S
C628 N629 1.373 . S
C628 H656 0.930 . S
N629 C628 1.373 . S
N629 C631 1.340 . S
N630 C627 1.368 . S
N630 C631 1.321 . S
N630 Co633 2.135 . S
C631 N629 1.340 . S
C631 N630 1.321 . S
C631 H655 0.930 . S
H632 C627 0.931 . S
Co633 N630 2.135 . S
Co633 N636 2.121 . S
Co633 O641 2.055 . S
Co633 O644 2.039 . S
Co633 N647 2.140 . S
C634 O635 1.227 . S
C634 O644 1.265 . S
O635 C634 1.227 . S
N636 Co633 2.121 . S
N636 C638 1.375 . S
N636 C639 1.313 . S
C637 C638 1.338 . S
C637 N640 1.377 . S
C637 H657 0.930 . S
C638 N636 1.375 . S
C638 C637 1.338 . S
C638 H642 0.931 . S
C639 N636 1.313 . S
C639 N640 1.344 . S
C639 H643 0.930 . S
N640 C637 1.377 . S
N640 C639 1.344 . S
O641 Co633 2.055 . S
O641 C645 1.253 . S
H642 C638 0.931 . S
H643 C639 0.930 . S
O644 Co633 2.039 . S
O644 C634 1.265 . S
C645 O641 1.253 . S
C645 O646 1.227 . S
O646 C645 1.227 . S
N647 Co633 2.140 . S
N647 C650 1.346 . S
N647 C651 1.345 . S
C648 C649 1.387 . S
C648 C652 1.391 . S
C649 C648 1.387 . S
C649 C650 1.369 . S
C649 H658 0.929 . S
C650 N647 1.346 . S
C650 C649 1.369 . S
C650 H653 0.928 . S
C651 N647 1.345 . S
C651 C652 1.371 . S
C651 H654 0.931 . S
C652 C648 1.391 . S
C652 C651 1.371 . S
C652 H659 0.930 . S
H653 C650 0.928 . S
H654 C651 0.931 . S
H655 C631 0.930 . S
H656 C628 0.930 . S
H657 C637 0.930 . S
H658 C649 0.929 . S
H659 C652 0.930 . S
C660 C661 1.351 . S
C660 N663 1.368 . S
C660 H665 0.931 . S
C661 C660 1.351 . S
C661 N662 1.373 . S
C661 H689 0.930 . S
N662 C661 1.373 . S
N662 C664 1.340 . S
N663 C660 1.368 . S
N663 C664 1.321 . S
N663 Co666 2.135 . S
C664 N662 1.340 . S
C664 N663 1.321 . S
C664 H688 0.930 . S
H665 C660 0.931 . S
Co666 N663 2.135 . S
Co666 N669 2.121 . S
Co666 O674 2.055 . S
Co666 O677 2.039 . S
Co666 N680 2.140 . S
C667 O668 1.227 . S
C667 O677 1.265 . S
O668 C667 1.227 . S
N669 Co666 2.121 . S
N669 C671 1.375 . S
N669 C672 1.313 . S
C670 C671 1.338 . S
C670 N673 1.377 . S
C670 H690 0.930 . S
C671 N669 1.375 . S
C671 C670 1.338 . S
C671 H675 0.931 . S
C672 N669 1.313 . S
C672 N673 1.344 . S
C672 H676 0.930 . S
N673 C670 1.377 . S
N673 C672 1.344 . S
O674 Co666 2.055 . S
O674 C678 1.253 . S
H675 C671 0.931 . S
H676 C672 0.930 . S
O677 Co666 2.039 . S
O677 C667 1.265 . S
C678 O674 1.253 . S
C678 O679 1.227 . S
O679 C678 1.227 . S
N680 Co666 2.140 . S
N680 C683 1.346 . S
N680 C684 1.345 . S
C681 C682 1.387 . S
C681 C685 1.391 . S
C682 C681 1.387 . S
C682 C683 1.369 . S
C682 H691 0.929 . S
C683 N680 1.346 . S
C683 C682 1.369 . S
C683 H686 0.928 . S
C684 N680 1.345 . S
C684 C685 1.371 . S
C684 H687 0.931 . S
C685 C681 1.391 . S
C685 C684 1.371 . S
C685 H692 0.930 . S
H686 C683 0.928 . S
H687 C684 0.931 . S
H688 C664 0.930 . S
H689 C661 0.930 . S
H690 C670 0.930 . S
H691 C682 0.929 . S
H692 C685 0.930 . S
C693 C694 1.351 . S
C693 N696 1.368 . S
C693 H698 0.931 . S
C694 C693 1.351 . S
C694 N695 1.373 . S
C694 H722 0.930 . S
N695 C694 1.373 . S
N695 C697 1.340 . S
N696 C693 1.368 . S
N696 C697 1.321 . S
N696 Co699 2.135 . S
C697 N695 1.340 . S
C697 N696 1.321 . S
C697 H721 0.930 . S
H698 C693 0.931 . S
Co699 N696 2.135 . S
Co699 N702 2.121 . S
Co699 O707 2.055 . S
Co699 O710 2.039 . S
Co699 N713 2.140 . S
C700 O701 1.227 . S
C700 O710 1.265 . S
O701 C700 1.227 . S
N702 Co699 2.121 . S
N702 C704 1.375 . S
N702 C705 1.313 . S
C703 C704 1.338 . S
C703 N706 1.377 . S
C703 H723 0.930 . S
C704 N702 1.375 . S
C704 C703 1.338 . S
C704 H708 0.931 . S
C705 N702 1.313 . S
C705 N706 1.344 . S
C705 H709 0.930 . S
N706 C703 1.377 . S
N706 C705 1.344 . S
O707 Co699 2.055 . S
O707 C711 1.253 . S
H708 C704 0.931 . S
H709 C705 0.930 . S
O710 Co699 2.039 . S
O710 C700 1.265 . S
C711 O707 1.253 . S
C711 O712 1.227 . S
O712 C711 1.227 . S
N713 Co699 2.140 . S
N713 C716 1.346 . S
N713 C717 1.345 . S
C714 C715 1.387 . S
C714 C718 1.391 . S
C715 C714 1.387 . S
C715 C716 1.369 . S
C715 H724 0.929 . S
C716 N713 1.346 . S
C716 C715 1.369 . S
C716 H719 0.928 . S
C717 N713 1.345 . S
C717 C718 1.371 . S
C717 H720 0.931 . S
C718 C714 1.391 . S
C718 C717 1.371 . S
C718 H725 0.930 . S
H719 C716 0.928 . S
H720 C717 0.931 . S
H721 C697 0.930 . S
H722 C694 0.930 . S
H723 C703 0.930 . S
H724 C715 0.929 . S
H725 C718 0.930 . S
C726 C727 1.351 . S
C726 N729 1.368 . S
C726 H731 0.931 . S
C727 C726 1.351 . S
C727 N728 1.373 . S
C727 H755 0.930 . S
N728 C727 1.373 . S
N728 C730 1.340 . S
N729 C726 1.368 . S
N729 C730 1.321 . S
N729 Co732 2.135 . S
C730 N728 1.340 . S
C730 N729 1.321 . S
C730 H754 0.930 . S
H731 C726 0.931 . S
Co732 N729 2.135 . S
Co732 N735 2.121 . S
Co732 O740 2.055 . S
Co732 O743 2.039 . S
Co732 N746 2.140 . S
C733 O734 1.227 . S
C733 O743 1.265 . S
O734 C733 1.227 . S
N735 Co732 2.121 . S
N735 C737 1.375 . S
N735 C738 1.313 . S
C736 C737 1.338 . S
C736 N739 1.377 . S
C736 H756 0.930 . S
C737 N735 1.375 . S
C737 C736 1.338 . S
C737 H741 0.931 . S
C738 N735 1.313 . S
C738 N739 1.344 . S
C738 H742 0.930 . S
N739 C736 1.377 . S
N739 C738 1.344 . S
O740 Co732 2.055 . S
O740 C744 1.253 . S
H741 C737 0.931 . S
H742 C738 0.930 . S
O743 Co732 2.039 . S
O743 C733 1.265 . S
C744 O740 1.253 . S
C744 O745 1.227 . S
O745 C744 1.227 . S
N746 Co732 2.140 . S
N746 C749 1.346 . S
N746 C750 1.345 . S
C747 C748 1.387 . S
C747 C751 1.391 . S
C748 C747 1.387 . S
C748 C749 1.369 . S
C748 H757 0.929 . S
C749 N746 1.346 . S
C749 C748 1.369 . S
C749 H752 0.928 . S
C750 N746 1.345 . S
C750 C751 1.371 . S
C750 H753 0.931 . S
C751 C747 1.391 . S
C751 C750 1.371 . S
C751 H758 0.930 . S
H752 C749 0.928 . S
H753 C750 0.931 . S
H754 C730 0.930 . S
H755 C727 0.930 . S
H756 C736 0.930 . S
H757 C748 0.929 . S
H758 C751 0.930 . S
C759 C760 1.351 . S
C759 N762 1.368 . S
C759 H764 0.931 . S
C760 C759 1.351 . S
C760 N761 1.373 . S
C760 H788 0.930 . S
N761 C760 1.373 . S
N761 C763 1.340 . S
N762 C759 1.368 . S
N762 C763 1.321 . S
N762 Co765 2.135 . S
C763 N761 1.340 . S
C763 N762 1.321 . S
C763 H787 0.930 . S
H764 C759 0.931 . S
Co765 N762 2.135 . S
Co765 N768 2.121 . S
Co765 O773 2.055 . S
Co765 O776 2.039 . S
Co765 N779 2.140 . S
C766 O767 1.227 . S
C766 O776 1.265 . S
O767 C766 1.227 . S
N768 Co765 2.121 . S
N768 C770 1.375 . S
N768 C771 1.313 . S
C769 C770 1.338 . S
C769 N772 1.377 . S
C769 H789 0.930 . S
C770 N768 1.375 . S
C770 C769 1.338 . S
C770 H774 0.931 . S
C771 N768 1.313 . S
C771 N772 1.344 . S
C771 H775 0.930 . S
N772 C769 1.377 . S
N772 C771 1.344 . S
O773 Co765 2.055 . S
O773 C777 1.253 . S
H774 C770 0.931 . S
H775 C771 0.930 . S
O776 Co765 2.039 . S
O776 C766 1.265 . S
C777 O773 1.253 . S
C777 O778 1.227 . S
O778 C777 1.227 . S
N779 Co765 2.140 . S
N779 C782 1.346 . S
N779 C783 1.345 . S
C780 C781 1.387 . S
C780 C784 1.391 . S
C781 C780 1.387 . S
C781 C782 1.369 . S
C781 H790 0.929 . S
C782 N779 1.346 . S
C782 C781 1.369 . S
C782 H785 0.928 . S
C783 N779 1.345 . S
C783 C784 1.371 . S
C783 H786 0.931 . S
C784 C780 1.391 . S
C784 C783 1.371 . S
C784 H791 0.930 . S
H785 C782 0.928 . S
H786 C783 0.931 . S
H787 C763 0.930 . S
H788 C760 0.930 . S
H789 C769 0.930 . S
H790 C781 0.929 . S
H791 C784 0.930 . S
C792 C793 1.351 . S
C792 N795 1.368 . S
C792 H797 0.931 . S
C793 C792 1.351 . S
C793 N794 1.373 . S
C793 H821 0.930 . S
N794 C793 1.373 . S
N794 C796 1.340 . S
N795 C792 1.368 . S
N795 C796 1.321 . S
N795 Co798 2.135 . S
C796 N794 1.340 . S
C796 N795 1.321 . S
C796 H820 0.930 . S
H797 C792 0.931 . S
Co798 N795 2.135 . S
Co798 N801 2.121 . S
Co798 O806 2.055 . S
Co798 O809 2.039 . S
Co798 N812 2.140 . S
C799 O800 1.227 . S
C799 O809 1.265 . S
O800 C799 1.227 . S
N801 Co798 2.121 . S
N801 C803 1.375 . S
N801 C804 1.313 . S
C802 C803 1.338 . S
C802 N805 1.377 . S
C802 H822 0.930 . S
C803 N801 1.375 . S
C803 C802 1.338 . S
C803 H807 0.931 . S
C804 N801 1.313 . S
C804 N805 1.344 . S
C804 H808 0.930 . S
N805 C802 1.377 . S
N805 C804 1.344 . S
O806 Co798 2.055 . S
O806 C810 1.253 . S
H807 C803 0.931 . S
H808 C804 0.930 . S
O809 Co798 2.039 . S
O809 C799 1.265 . S
C810 O806 1.253 . S
C810 O811 1.227 . S
O811 C810 1.227 . S
N812 Co798 2.140 . S
N812 C815 1.346 . S
N812 C816 1.345 . S
C813 C814 1.387 . S
C813 C817 1.391 . S
C814 C813 1.387 . S
C814 C815 1.369 . S
C814 H823 0.929 . S
C815 N812 1.346 . S
C815 C814 1.369 . S
C815 H818 0.928 . S
C816 N812 1.345 . S
C816 C817 1.371 . S
C816 H819 0.931 . S
C817 C813 1.391 . S
C817 C816 1.371 . S
C817 H824 0.930 . S
H818 C815 0.928 . S
H819 C816 0.931 . S
H820 C796 0.930 . S
H821 C793 0.930 . S
H822 C802 0.930 . S
H823 C814 0.929 . S
H824 C817 0.930 . S
C825 C826 1.351 . S
C825 N828 1.368 . S
C825 H830 0.931 . S
C826 C825 1.351 . S
C826 N827 1.373 . S
C826 H854 0.930 . S
N827 C826 1.373 . S
N827 C829 1.340 . S
N828 C825 1.368 . S
N828 C829 1.321 . S
N828 Co831 2.135 . S
C829 N827 1.340 . S
C829 N828 1.321 . S
C829 H853 0.930 . S
H830 C825 0.931 . S
Co831 N828 2.135 . S
Co831 N834 2.121 1_545 S
Co831 O839 2.055 1_545 S
Co831 O842 2.039 . S
Co831 N845 2.140 . S
C832 O833 1.227 . S
C832 O842 1.265 . S
O833 C832 1.227 . S
N834 Co831 2.121 1_565 S
N834 C836 1.375 . S
N834 C837 1.313 . S
C835 C836 1.338 . S
C835 N838 1.377 . S
C835 H855 0.930 . S
C836 N834 1.375 . S
C836 C835 1.338 . S
C836 H840 0.931 1_565 S
C837 N834 1.313 . S
C837 N838 1.344 . S
C837 H841 0.930 . S
N838 C835 1.377 . S
N838 C837 1.344 . S
O839 Co831 2.055 1_565 S
O839 C843 1.253 . S
H840 C836 0.931 1_545 S
H841 C837 0.930 . S
O842 Co831 2.039 . S
O842 C832 1.265 . S
C843 O839 1.253 . S
C843 O844 1.227 . S
O844 C843 1.227 . S
N845 Co831 2.140 . S
N845 C848 1.346 . S
N845 C849 1.345 1_545 S
C846 C847 1.387 . S
C846 C850 1.391 1_545 S
C847 C846 1.387 . S
C847 C848 1.369 . S
C847 H856 0.929 . S
C848 N845 1.346 . S
C848 C847 1.369 . S
C848 H851 0.928 . S
C849 N845 1.345 1_565 S
C849 C850 1.371 . S
C849 H852 0.931 . S
C850 C846 1.391 1_565 S
C850 C849 1.371 . S
C850 H857 0.930 . S
H851 C848 0.928 . S
H852 C849 0.931 . S
H853 C829 0.930 . S
H854 C826 0.930 . S
H855 C835 0.930 . S
H856 C847 0.929 . S
H857 C850 0.930 . S
C858 C859 1.351 . S
C858 N861 1.368 . S
C858 H863 0.931 . S
C859 C858 1.351 . S
C859 N860 1.373 . S
C859 H887 0.930 . S
N860 C859 1.373 . S
N860 C862 1.340 . S
N861 C858 1.368 . S
N861 C862 1.321 . S
N861 Co864 2.135 . S
C862 N860 1.340 . S
C862 N861 1.321 . S
C862 H886 0.930 . S
H863 C858 0.931 . S
Co864 N861 2.135 . S
Co864 N867 2.121 . S
Co864 O872 2.055 . S
Co864 O875 2.039 . S
Co864 N878 2.140 . S
C865 O866 1.227 . S
C865 O875 1.265 . S
O866 C865 1.227 . S
N867 Co864 2.121 . S
N867 C869 1.375 . S
N867 C870 1.313 . S
C868 C869 1.338 . S
C868 N871 1.377 . S
C868 H888 0.930 . S
C869 N867 1.375 . S
C869 C868 1.338 . S
C869 H873 0.931 . S
C870 N867 1.313 . S
C870 N871 1.344 . S
C870 H874 0.930 . S
N871 C868 1.377 . S
N871 C870 1.344 . S
O872 Co864 2.055 . S
O872 C876 1.253 . S
H873 C869 0.931 . S
H874 C870 0.930 . S
O875 Co864 2.039 . S
O875 C865 1.265 . S
C876 O872 1.253 . S
C876 O877 1.227 . S
O877 C876 1.227 . S
N878 Co864 2.140 . S
N878 C881 1.346 . S
N878 C882 1.345 . S
C879 C880 1.387 . S
C879 C883 1.391 . S
C880 C879 1.387 . S
C880 C881 1.369 . S
C880 H889 0.929 . S
C881 N878 1.346 . S
C881 C880 1.369 . S
C881 H884 0.928 . S
C882 N878 1.345 . S
C882 C883 1.371 . S
C882 H885 0.931 . S
C883 C879 1.391 . S
C883 C882 1.371 . S
C883 H890 0.930 . S
H884 C881 0.928 . S
H885 C882 0.931 . S
H886 C862 0.930 . S
H887 C859 0.930 . S
H888 C868 0.930 . S
H889 C880 0.929 . S
H890 C883 0.930 . S
C891 C892 1.351 . S
C891 N894 1.368 . S
C891 H896 0.931 1_565 S
C892 C891 1.351 . S
C892 N893 1.373 . S
C892 H920 0.930 . S
N893 C892 1.373 . S
N893 C895 1.340 . S
N894 C891 1.368 . S
N894 C895 1.321 . S
N894 Co897 2.135 1_565 S
C895 N893 1.340 . S
C895 N894 1.321 . S
C895 H919 0.930 . S
H896 C891 0.931 1_545 S
Co897 N894 2.135 1_545 S
Co897 N900 2.121 . S
Co897 O905 2.055 . S
Co897 O908 2.039 1_545 S
Co897 N911 2.140 . S
C898 O899 1.227 . S
C898 O908 1.265 . S
O899 C898 1.227 . S
N900 Co897 2.121 . S
N900 C902 1.375 . S
N900 C903 1.313 . S
C901 C902 1.338 . S
C901 N904 1.377 . S
C901 H921 0.930 . S
C902 N900 1.375 . S
C902 C901 1.338 . S
C902 H906 0.931 . S
C903 N900 1.313 . S
C903 N904 1.344 . S
C903 H907 0.930 . S
N904 C901 1.377 . S
N904 C903 1.344 . S
O905 Co897 2.055 . S
O905 C909 1.253 . S
H906 C902 0.931 . S
H907 C903 0.930 . S
O908 Co897 2.039 1_565 S
O908 C898 1.265 . S
C909 O905 1.253 . S
C909 O910 1.227 . S
O910 C909 1.227 . S
N911 Co897 2.140 . S
N911 C914 1.346 1_545 S
N911 C915 1.345 . S
C912 C913 1.387 1_545 S
C912 C916 1.391 . S
C913 C912 1.387 1_565 S
C913 C914 1.369 . S
C913 H922 0.929 . S
C914 N911 1.346 1_565 S
C914 C913 1.369 . S
C914 H917 0.928 . S
C915 N911 1.345 . S
C915 C916 1.371 . S
C915 H918 0.931 . S
C916 C912 1.391 . S
C916 C915 1.371 . S
C916 H923 0.930 . S
H917 C914 0.928 . S
H918 C915 0.931 . S
H919 C895 0.930 . S
H920 C892 0.930 . S
H921 C901 0.930 . S
H922 C913 0.929 . S
H923 C916 0.930 . S
C924 C925 1.351 . S
C924 N927 1.368 . S
C924 H929 0.931 . S
C925 C924 1.351 . S
C925 N926 1.373 . S
C925 H953 0.930 . S
N926 C925 1.373 . S
N926 C928 1.340 . S
N927 C924 1.368 . S
N927 C928 1.321 . S
N927 Co930 2.135 . S
C928 N926 1.340 . S
C928 N927 1.321 . S
C928 H952 0.930 . S
H929 C924 0.931 . S
Co930 N927 2.135 . S
Co930 N933 2.121 . S
Co930 O938 2.055 . S
Co930 O941 2.039 . S
Co930 N944 2.140 . S
C931 O932 1.227 . S
C931 O941 1.265 . S
O932 C931 1.227 . S
N933 Co930 2.121 . S
N933 C935 1.375 . S
N933 C936 1.313 . S
C934 C935 1.338 . S
C934 N937 1.377 . S
C934 H954 0.930 . S
C935 N933 1.375 . S
C935 C934 1.338 . S
C935 H939 0.931 . S
C936 N933 1.313 . S
C936 N937 1.344 . S
C936 H940 0.930 . S
N937 C934 1.377 . S
N937 C936 1.344 . S
O938 Co930 2.055 . S
O938 C942 1.253 . S
H939 C935 0.931 . S
H940 C936 0.930 . S
O941 Co930 2.039 . S
O941 C931 1.265 . S
C942 O938 1.253 . S
C942 O943 1.227 . S
O943 C942 1.227 . S
N944 Co930 2.140 . S
N944 C947 1.346 . S
N944 C948 1.345 . S
C945 C946 1.387 . S
C945 C949 1.391 . S
C946 C945 1.387 . S
C946 C947 1.369 . S
C946 H955 0.929 . S
C947 N944 1.346 . S
C947 C946 1.369 . S
C947 H950 0.928 . S
C948 N944 1.345 . S
C948 C949 1.371 . S
C948 H951 0.931 . S
C949 C945 1.391 . S
C949 C948 1.371 . S
C949 H956 0.930 . S
H950 C947 0.928 . S
H951 C948 0.931 . S
H952 C928 0.930 . S
H953 C925 0.930 . S
H954 C934 0.930 . S
H955 C946 0.929 . S
H956 C949 0.930 . S
C957 C958 1.351 . S
C957 N960 1.368 . S
C957 H962 0.931 1_565 S
C958 C957 1.351 . S
C958 N959 1.373 . S
C958 H986 0.930 . S
N959 C958 1.373 . S
N959 C961 1.340 . S
N960 C957 1.368 . S
N960 C961 1.321 . S
N960 Co963 2.135 1_565 S
C961 N959 1.340 . S
C961 N960 1.321 . S
C961 H985 0.930 . S
H962 C957 0.931 1_545 S
Co963 N960 2.135 1_545 S
Co963 N966 2.121 . S
Co963 O971 2.055 . S
Co963 O974 2.039 1_545 S
Co963 N977 2.140 . S
C964 O965 1.227 . S
C964 O974 1.265 . S
O965 C964 1.227 . S
N966 Co963 2.121 . S
N966 C968 1.375 . S
N966 C969 1.313 . S
C967 C968 1.338 . S
C967 N970 1.377 . S
C967 H987 0.930 . S
C968 N966 1.375 . S
C968 C967 1.338 . S
C968 H972 0.931 . S
C969 N966 1.313 . S
C969 N970 1.344 . S
C969 H973 0.930 . S
N970 C967 1.377 . S
N970 C969 1.344 . S
O971 Co963 2.055 . S
O971 C975 1.253 . S
H972 C968 0.931 . S
H973 C969 0.930 . S
O974 Co963 2.039 1_565 S
O974 C964 1.265 . S
C975 O971 1.253 . S
C975 O976 1.227 . S
O976 C975 1.227 . S
N977 Co963 2.140 . S
N977 C980 1.346 1_545 S
N977 C981 1.345 . S
C978 C979 1.387 1_545 S
C978 C982 1.391 . S
C979 C978 1.387 1_565 S
C979 C980 1.369 . S
C979 H988 0.929 . S
C980 N977 1.346 1_565 S
C980 C979 1.369 . S
C980 H983 0.928 . S
C981 N977 1.345 . S
C981 C982 1.371 . S
C981 H984 0.931 . S
C982 C978 1.391 . S
C982 C981 1.371 . S
C982 H989 0.930 . S
H983 C980 0.928 . S
H984 C981 0.931 . S
H985 C961 0.930 . S
H986 C958 0.930 . S
H987 C967 0.930 . S
H988 C979 0.929 . S
H989 C982 0.930 . S
C990 C991 1.351 . S
C990 N993 1.368 . S
C990 H995 0.931 . S
C991 C990 1.351 . S
C991 N992 1.373 . S
C991 H1019 0.930 . S
N992 C991 1.373 . S
N992 C994 1.340 . S
N993 C990 1.368 . S
N993 C994 1.321 . S
N993 Co996 2.135 . S
C994 N992 1.340 . S
C994 N993 1.321 . S
C994 H1018 0.930 . S
H995 C990 0.931 . S
Co996 N993 2.135 . S
Co996 N999 2.121 . S
Co996 O1004 2.055 . S
Co996 O1007 2.039 . S
Co996 N1010 2.140 . S
C997 O998 1.227 . S
C997 O1007 1.265 . S
O998 C997 1.227 . S
N999 Co996 2.121 . S
N999 C1001 1.375 . S
N999 C1002 1.313 . S
C1000 C1001 1.338 . S
C1000 N1003 1.377 . S
C1000 H1020 0.930 . S
C1001 N999 1.375 . S
C1001 C1000 1.338 . S
C1001 H1005 0.931 . S
C1002 N999 1.313 . S
C1002 N1003 1.344 . S
C1002 H1006 0.930 . S
N1003 C1000 1.377 . S
N1003 C1002 1.344 . S
O1004 Co996 2.055 . S
O1004 C1008 1.253 . S
H1005 C1001 0.931 . S
H1006 C1002 0.930 . S
O1007 Co996 2.039 . S
O1007 C997 1.265 . S
C1008 O1004 1.253 . S
C1008 O1009 1.227 . S
O1009 C1008 1.227 . S
N1010 Co996 2.140 . S
N1010 C1013 1.346 . S
N1010 C1014 1.345 . S
C1011 C1012 1.387 . S
C1011 C1015 1.391 . S
C1012 C1011 1.387 . S
C1012 C1013 1.369 . S
C1012 H1021 0.929 . S
C1013 N1010 1.346 . S
C1013 C1012 1.369 . S
C1013 H1016 0.928 . S
C1014 N1010 1.345 . S
C1014 C1015 1.371 . S
C1014 H1017 0.931 . S
C1015 C1011 1.391 . S
C1015 C1014 1.371 . S
C1015 H1022 0.930 . S
H1016 C1013 0.928 . S
H1017 C1014 0.931 . S
H1018 C994 0.930 . S
H1019 C991 0.930 . S
H1020 C1000 0.930 . S
H1021 C1012 0.929 . S
H1022 C1015 0.930 . S
C1023 C1024 1.351 . S
C1023 N1026 1.368 . S
C1023 H1028 0.931 . S
C1024 C1023 1.351 . S
C1024 N1025 1.373 . S
C1024 H1052 0.930 . S
N1025 C1024 1.373 . S
N1025 C1027 1.340 . S
N1026 C1023 1.368 . S
N1026 C1027 1.321 . S
N1026 Co1029 2.135 . S
C1027 N1025 1.340 . S
C1027 N1026 1.321 . S
C1027 H1051 0.930 . S
H1028 C1023 0.931 . S
Co1029 N1026 2.135 . S
Co1029 N1032 2.121 1_545 S
Co1029 O1037 2.055 1_545 S
Co1029 O1040 2.039 . S
Co1029 N1043 2.140 . S
C1030 O1031 1.227 . S
C1030 O1040 1.265 . S
O1031 C1030 1.227 . S
N1032 Co1029 2.121 1_565 S
N1032 C1034 1.375 . S
N1032 C1035 1.313 . S
C1033 C1034 1.338 . S
C1033 N1036 1.377 . S
C1033 H1053 0.930 . S
C1034 N1032 1.375 . S
C1034 C1033 1.338 . S
C1034 H1038 0.902 1_565 S
C1035 N1032 1.313 . S
C1035 N1036 1.344 . S
C1035 H1039 0.930 . S
N1036 C1033 1.377 . S
N1036 C1035 1.344 . S
O1037 Co1029 2.055 1_565 S
O1037 C1041 1.253 . S
H1038 C1034 0.902 1_545 S
H1039 C1035 0.930 . S
O1040 Co1029 2.039 . S
O1040 C1030 1.265 . S
C1041 O1037 1.253 . S
C1041 O1042 1.227 . S
O1042 C1041 1.227 . S
N1043 Co1029 2.140 . S
N1043 C1046 1.346 . S
N1043 C1047 1.345 1_545 S
C1044 C1045 1.387 . S
C1044 C1048 1.391 1_545 S
C1045 C1044 1.387 . S
C1045 C1046 1.369 . S
C1045 H1054 0.929 . S
C1046 N1043 1.346 . S
C1046 C1045 1.369 . S
C1046 H1049 0.928 . S
C1047 N1043 1.345 1_565 S
C1047 C1048 1.371 . S
C1047 H1050 0.931 . S
C1048 C1044 1.391 1_565 S
C1048 C1047 1.371 . S
C1048 H1055 0.930 . S
H1049 C1046 0.928 . S
H1050 C1047 0.931 . S
H1051 C1027 0.930 . S
H1052 C1024 0.930 . S
H1053 C1033 0.930 . S
H1054 C1045 0.929 . S
H1055 C1048 0.930 . S
C1056 C1057 1.351 . S
C1056 N1059 1.368 . S
C1056 H1061 0.931 . S
C1057 C1056 1.351 . S
C1057 N1058 1.373 . S
C1057 H1085 0.930 . S
N1058 C1057 1.373 . S
N1058 C1060 1.340 . S
N1059 C1056 1.368 . S
N1059 C1060 1.321 . S
N1059 Co1062 2.135 . S
C1060 N1058 1.340 . S
C1060 N1059 1.321 . S
C1060 H1084 0.930 . S
H1061 C1056 0.931 . S
Co1062 N1059 2.135 . S
Co1062 N1065 2.121 . S
Co1062 O1070 2.055 . S
Co1062 O1073 2.039 . S
Co1062 N1076 2.140 . S
C1063 O1064 1.227 . S
C1063 O1073 1.265 . S
O1064 C1063 1.227 . S
N1065 Co1062 2.121 . S
N1065 C1067 1.375 . S
N1065 C1068 1.313 . S
C1066 C1067 1.338 . S
C1066 N1069 1.377 . S
C1066 H1086 0.930 . S
C1067 N1065 1.375 . S
C1067 C1066 1.338 . S
C1067 H1071 0.931 . S
C1068 N1065 1.313 . S
C1068 N1069 1.344 . S
C1068 H1072 0.930 . S
N1069 C1066 1.377 . S
N1069 C1068 1.344 . S
O1070 Co1062 2.055 . S
O1070 C1074 1.253 . S
H1071 C1067 0.931 . S
H1072 C1068 0.930 . S
O1073 Co1062 2.039 . S
O1073 C1063 1.265 . S
C1074 O1070 1.253 . S
C1074 O1075 1.227 . S
O1075 C1074 1.227 . S
N1076 Co1062 2.140 . S
N1076 C1079 1.346 . S
N1076 C1080 1.345 . S
C1077 C1078 1.387 . S
C1077 C1081 1.391 . S
C1078 C1077 1.387 . S
C1078 C1079 1.369 . S
C1078 H1087 0.929 . S
C1079 N1076 1.346 . S
C1079 C1078 1.369 . S
C1079 H1082 0.928 . S
C1080 N1076 1.345 . S
C1080 C1081 1.371 . S
C1080 H1083 0.931 . S
C1081 C1077 1.391 . S
C1081 C1080 1.371 . S
C1081 H1088 0.930 . S
H1082 C1079 0.928 . S
H1083 C1080 0.931 . S
H1084 C1060 0.930 . S
H1085 C1057 0.930 . S
H1086 C1066 0.930 . S
H1087 C1078 0.929 . S
H1088 C1081 0.930 . S
C1089 C1090 1.351 . S
C1089 N1092 1.368 . S
C1089 H1094 0.931 . S
C1090 C1089 1.351 . S
C1090 N1091 1.373 . S
C1090 H1118 0.930 . S
N1091 C1090 1.373 . S
N1091 C1093 1.340 . S
N1092 C1089 1.368 . S
N1092 C1093 1.321 . S
N1092 Co1095 2.135 . S
C1093 N1091 1.340 . S
C1093 N1092 1.321 . S
C1093 H1117 0.930 . S
H1094 C1089 0.931 . S
Co1095 N1092 2.135 . S
Co1095 N1098 2.121 . S
Co1095 O1103 2.055 . S
Co1095 O1106 2.039 . S
Co1095 N1109 2.140 . S
C1096 O1097 1.227 . S
C1096 O1106 1.265 . S
O1097 C1096 1.227 . S
N1098 Co1095 2.121 . S
N1098 C1100 1.375 . S
N1098 C1101 1.313 . S
C1099 C1100 1.338 . S
C1099 N1102 1.377 . S
C1099 H1119 0.930 . S
C1100 N1098 1.375 . S
C1100 C1099 1.338 . S
C1100 H1104 0.931 . S
C1101 N1098 1.313 . S
C1101 N1102 1.344 . S
C1101 H1105 0.930 . S
N1102 C1099 1.377 . S
N1102 C1101 1.344 . S
O1103 Co1095 2.055 . S
O1103 C1107 1.253 . S
H1104 C1100 0.931 . S
H1105 C1101 0.930 . S
O1106 Co1095 2.039 . S
O1106 C1096 1.265 . S
C1107 O1103 1.253 . S
C1107 O1108 1.227 . S
O1108 C1107 1.227 . S
N1109 Co1095 2.140 . S
N1109 C1112 1.346 . S
N1109 C1113 1.345 . S
C1110 C1111 1.387 . S
C1110 C1114 1.391 . S
C1111 C1110 1.387 . S
C1111 C1112 1.369 . S
C1111 H1120 0.929 . S
C1112 N1109 1.346 . S
C1112 C1111 1.369 . S
C1112 H1115 0.928 . S
C1113 N1109 1.345 . S
C1113 C1114 1.371 . S
C1113 H1116 0.931 . S
C1114 C1110 1.391 . S
C1114 C1113 1.371 . S
C1114 H1121 0.930 . S
H1115 C1112 0.928 . S
H1116 C1113 0.931 . S
H1117 C1093 0.930 . S
H1118 C1090 0.930 . S
H1119 C1099 0.930 . S
H1120 C1111 0.929 . S
H1121 C1114 0.930 . S
C1122 C1123 1.351 . S
C1122 N1125 1.368 . S
C1122 H1127 0.931 . S
C1123 C1122 1.351 . S
C1123 N1124 1.373 . S
C1123 H1151 0.930 . S
N1124 C1123 1.373 . S
N1124 C1126 1.340 . S
N1125 C1122 1.368 . S
N1125 C1126 1.321 . S
N1125 Co1128 2.135 . S
C1126 N1124 1.340 . S
C1126 N1125 1.321 . S
C1126 H1150 0.930 . S
H1127 C1122 0.931 . S
Co1128 N1125 2.135 . S
Co1128 N1131 2.121 . S
Co1128 O1136 2.055 . S
Co1128 O1139 2.039 . S
Co1128 N1142 2.140 . S
C1129 O1130 1.227 . S
C1129 O1139 1.265 . S
O1130 C1129 1.227 . S
N1131 Co1128 2.121 . S
N1131 C1133 1.375 . S
N1131 C1134 1.313 . S
C1132 C1133 1.338 . S
C1132 N1135 1.377 . S
C1132 H1152 0.930 . S
C1133 N1131 1.375 . S
C1133 C1132 1.338 . S
C1133 H1137 0.931 . S
C1134 N1131 1.313 . S
C1134 N1135 1.344 . S
C1134 H1138 0.930 . S
N1135 C1132 1.377 . S
N1135 C1134 1.344 . S
O1136 Co1128 2.055 . S
O1136 C1140 1.253 . S
H1137 C1133 0.931 . S
H1138 C1134 0.930 . S
O1139 Co1128 2.039 . S
O1139 C1129 1.265 . S
C1140 O1136 1.253 . S
C1140 O1141 1.227 . S
O1141 C1140 1.227 . S
N1142 Co1128 2.140 . S
N1142 C1145 1.346 . S
N1142 C1146 1.345 . S
C1143 C1144 1.387 . S
C1143 C1147 1.391 . S
C1144 C1143 1.387 . S
C1144 C1145 1.369 . S
C1144 H1153 0.929 . S
C1145 N1142 1.346 . S
C1145 C1144 1.369 . S
C1145 H1148 0.928 . S
C1146 N1142 1.345 . S
C1146 C1147 1.371 . S
C1146 H1149 0.931 . S
C1147 C1143 1.391 . S
C1147 C1146 1.371 . S
C1147 H1154 0.930 . S
H1148 C1145 0.928 . S
H1149 C1146 0.931 . S
H1150 C1126 0.930 . S
H1151 C1123 0.930 . S
H1152 C1132 0.930 . S
H1153 C1144 0.929 . S
H1154 C1147 0.930 . S
C1155 C1156 1.351 . S
C1155 N1158 1.368 . S
C1155 H1160 0.931 . S
C1156 C1155 1.351 . S
C1156 N1157 1.373 . S
C1156 H1184 0.930 . S
N1157 C1156 1.373 . S
N1157 C1159 1.340 . S
N1158 C1155 1.368 . S
N1158 C1159 1.321 . S
N1158 Co1161 2.135 . S
C1159 N1157 1.340 . S
C1159 N1158 1.321 . S
C1159 H1183 0.930 . S
H1160 C1155 0.931 . S
Co1161 N1158 2.135 . S
Co1161 N1164 2.121 . S
Co1161 O1169 2.055 . S
Co1161 O1172 2.039 . S
Co1161 N1175 2.140 . S
C1162 O1163 1.227 . S
C1162 O1172 1.265 . S
O1163 C1162 1.227 . S
N1164 Co1161 2.121 . S
N1164 C1166 1.375 . S
N1164 C1167 1.313 . S
C1165 C1166 1.338 . S
C1165 N1168 1.377 . S
C1165 H1185 0.930 . S
C1166 N1164 1.375 . S
C1166 C1165 1.338 . S
C1166 H1170 0.931 . S
C1167 N1164 1.313 . S
C1167 N1168 1.344 . S
C1167 H1171 0.930 . S
N1168 C1165 1.377 . S
N1168 C1167 1.344 . S
O1169 Co1161 2.055 . S
O1169 C1173 1.253 . S
H1170 C1166 0.931 . S
H1171 C1167 0.930 . S
O1172 Co1161 2.039 . S
O1172 C1162 1.265 . S
C1173 O1169 1.253 . S
C1173 O1174 1.227 . S
O1174 C1173 1.227 . S
N1175 Co1161 2.140 . S
N1175 C1178 1.346 . S
N1175 C1179 1.345 . S
C1176 C1177 1.387 . S
C1176 C1180 1.391 . S
C1177 C1176 1.387 . S
C1177 C1178 1.369 . S
C1177 H1186 0.929 . S
C1178 N1175 1.346 . S
C1178 C1177 1.369 . S
C1178 H1181 0.928 . S
C1179 N1175 1.345 . S
C1179 C1180 1.371 . S
C1179 H1182 0.931 . S
C1180 C1176 1.391 . S
C1180 C1179 1.371 . S
C1180 H1187 0.930 . S
H1181 C1178 0.928 . S
H1182 C1179 0.931 . S
H1183 C1159 0.930 . S
H1184 C1156 0.930 . S
H1185 C1165 0.930 . S
H1186 C1177 0.929 . S
H1187 C1180 0.930 . S
C1188 C1189 1.351 . S
C1188 N1191 1.368 . S
C1188 H1193 0.931 . S
C1189 C1188 1.351 . S
C1189 N1190 1.373 . S
C1189 H1217 0.930 . S
N1190 C1189 1.373 . S
N1190 C1192 1.340 . S
N1191 C1188 1.368 . S
N1191 C1192 1.321 . S
N1191 Co1194 2.135 . S
C1192 N1190 1.340 . S
C1192 N1191 1.321 . S
C1192 H1216 0.930 . S
H1193 C1188 0.931 . S
Co1194 N1191 2.135 . S
Co1194 N1197 2.121 . S
Co1194 O1202 2.055 . S
Co1194 O1205 2.039 . S
Co1194 N1208 2.140 . S
C1195 O1196 1.227 . S
C1195 O1205 1.265 . S
O1196 C1195 1.227 . S
N1197 Co1194 2.121 . S
N1197 C1199 1.375 . S
N1197 C1200 1.313 . S
C1198 C1199 1.338 . S
C1198 N1201 1.377 . S
C1198 H1218 0.930 . S
C1199 N1197 1.375 . S
C1199 C1198 1.338 . S
C1199 H1203 0.931 . S
C1200 N1197 1.313 . S
C1200 N1201 1.344 . S
C1200 H1204 0.930 . S
N1201 C1198 1.377 . S
N1201 C1200 1.344 . S
O1202 Co1194 2.055 . S
O1202 C1206 1.253 . S
H1203 C1199 0.931 . S
H1204 C1200 0.930 . S
O1205 Co1194 2.039 . S
O1205 C1195 1.265 . S
C1206 O1202 1.253 . S
C1206 O1207 1.227 . S
O1207 C1206 1.227 . S
N1208 Co1194 2.140 . S
N1208 C1211 1.346 . S
N1208 C1212 1.345 . S
C1209 C1210 1.387 . S
C1209 C1213 1.391 . S
C1210 C1209 1.387 . S
C1210 C1211 1.369 . S
C1210 H1219 0.929 . S
C1211 N1208 1.346 . S
C1211 C1210 1.369 . S
C1211 H1214 0.928 . S
C1212 N1208 1.345 . S
C1212 C1213 1.371 . S
C1212 H1215 0.931 . S
C1213 C1209 1.391 . S
C1213 C1212 1.371 . S
C1213 H1220 0.930 . S
H1214 C1211 0.928 . S
H1215 C1212 0.931 . S
H1216 C1192 0.930 . S
H1217 C1189 0.930 . S
H1218 C1198 0.930 . S
H1219 C1210 0.929 . S
H1220 C1213 0.930 . S
C1221 C1222 1.351 . S
C1221 N1224 1.368 . S
C1221 H1226 0.931 . S
C1222 C1221 1.351 . S
C1222 N1223 1.373 . S
C1222 H1250 0.930 . S
N1223 C1222 1.373 . S
N1223 C1225 1.340 . S
N1224 C1221 1.368 . S
N1224 C1225 1.321 . S
N1224 Co1227 2.135 . S
C1225 N1223 1.340 . S
C1225 N1224 1.321 . S
C1225 H1249 0.930 . S
H1226 C1221 0.931 . S
Co1227 N1224 2.135 . S
Co1227 N1230 2.121 . S
Co1227 O1235 2.055 . S
Co1227 O1238 2.039 . S
Co1227 N1241 2.140 . S
C1228 O1229 1.227 . S
C1228 O1238 1.265 . S
O1229 C1228 1.227 . S
N1230 Co1227 2.121 . S
N1230 C1232 1.375 . S
N1230 C1233 1.313 . S
C1231 C1232 1.338 . S
C1231 N1234 1.377 . S
C1231 H1251 0.930 . S
C1232 N1230 1.375 . S
C1232 C1231 1.338 . S
C1232 H1236 0.931 . S
C1233 N1230 1.313 . S
C1233 N1234 1.344 . S
C1233 H1237 0.930 . S
N1234 C1231 1.377 . S
N1234 C1233 1.344 . S
O1235 Co1227 2.055 . S
O1235 C1239 1.253 . S
H1236 C1232 0.931 . S
H1237 C1233 0.930 . S
O1238 Co1227 2.039 . S
O1238 C1228 1.265 . S
C1239 O1235 1.253 . S
C1239 O1240 1.227 . S
O1240 C1239 1.227 . S
N1241 Co1227 2.140 . S
N1241 C1244 1.346 . S
N1241 C1245 1.345 . S
C1242 C1243 1.387 . S
C1242 C1246 1.391 . S
C1243 C1242 1.387 . S
C1243 C1244 1.369 . S
C1243 H1252 0.929 . S
C1244 N1241 1.346 . S
C1244 C1243 1.369 . S
C1244 H1247 0.928 . S
C1245 N1241 1.345 . S
C1245 C1246 1.371 . S
C1245 H1248 0.931 . S
C1246 C1242 1.391 . S
C1246 C1245 1.371 . S
C1246 H1253 0.930 . S
H1247 C1244 0.928 . S
H1248 C1245 0.931 . S
H1249 C1225 0.930 . S
H1250 C1222 0.930 . S
H1251 C1231 0.930 . S
H1252 C1243 0.929 . S
H1253 C1246 0.930 . S
C1254 C1255 1.351 . S
C1254 N1257 1.368 . S
C1254 H1259 0.931 . S
C1255 C1254 1.351 . S
C1255 N1256 1.373 . S
C1255 H1283 0.930 . S
N1256 C1255 1.373 . S
N1256 C1258 1.340 . S
N1257 C1254 1.368 . S
N1257 C1258 1.321 . S
N1257 Co1260 2.135 . S
C1258 N1256 1.340 . S
C1258 N1257 1.321 . S
C1258 H1282 0.930 . S
H1259 C1254 0.931 . S
Co1260 N1257 2.135 . S
Co1260 N1263 2.121 . S
Co1260 O1268 2.055 . S
Co1260 O1271 2.039 . S
Co1260 N1274 2.140 . S
C1261 O1262 1.227 . S
C1261 O1271 1.265 . S
O1262 C1261 1.227 . S
N1263 Co1260 2.121 . S
N1263 C1265 1.375 . S
N1263 C1266 1.313 . S
C1264 C1265 1.338 . S
C1264 N1267 1.377 . S
C1264 H1284 0.930 . S
C1265 N1263 1.375 . S
C1265 C1264 1.338 . S
C1265 H1269 0.931 . S
C1266 N1263 1.313 . S
C1266 N1267 1.344 . S
C1266 H1270 0.930 . S
N1267 C1264 1.377 . S
N1267 C1266 1.344 . S
O1268 Co1260 2.055 . S
O1268 C1272 1.253 . S
H1269 C1265 0.931 . S
H1270 C1266 0.930 . S
O1271 Co1260 2.039 . S
O1271 C1261 1.265 . S
C1272 O1268 1.253 . S
C1272 O1273 1.227 . S
O1273 C1272 1.227 . S
N1274 Co1260 2.140 . S
N1274 C1277 1.346 . S
N1274 C1278 1.345 . S
C1275 C1276 1.387 . S
C1275 C1279 1.391 . S
C1276 C1275 1.387 . S
C1276 C1277 1.369 . S
C1276 H1285 0.929 . S
C1277 N1274 1.346 . S
C1277 C1276 1.369 . S
C1277 H1280 0.928 . S
C1278 N1274 1.345 . S
C1278 C1279 1.371 . S
C1278 H1281 0.931 . S
C1279 C1275 1.391 . S
C1279 C1278 1.371 . S
C1279 H1286 0.930 . S
H1280 C1277 0.928 . S
H1281 C1278 0.931 . S
H1282 C1258 0.930 . S
H1283 C1255 0.930 . S
H1284 C1264 0.930 . S
H1285 C1276 0.929 . S
H1286 C1279 0.930 . S
C1287 C1288 1.351 . S
C1287 N1290 1.368 . S
C1287 H1292 0.931 . S
C1288 C1287 1.351 . S
C1288 N1289 1.373 . S
C1288 H1316 0.930 . S
N1289 C1288 1.373 . S
N1289 C1291 1.340 . S
N1290 C1287 1.368 . S
N1290 C1291 1.321 . S
N1290 Co1293 2.135 . S
C1291 N1289 1.340 . S
C1291 N1290 1.321 . S
C1291 H1315 0.930 . S
H1292 C1287 0.931 . S
Co1293 N1290 2.135 . S
Co1293 N1296 2.121 . S
Co1293 O1301 2.055 . S
Co1293 O1304 2.039 . S
Co1293 N1307 2.140 . S
C1294 O1295 1.227 . S
C1294 O1304 1.265 . S
O1295 C1294 1.227 . S
N1296 Co1293 2.121 . S
N1296 C1298 1.375 . S
N1296 C1299 1.313 . S
C1297 C1298 1.338 . S
C1297 N1300 1.377 . S
C1297 H1317 0.930 . S
C1298 N1296 1.375 . S
C1298 C1297 1.338 . S
C1298 H1302 0.931 . S
C1299 N1296 1.313 . S
C1299 N1300 1.344 . S
C1299 H1303 0.930 . S
N1300 C1297 1.377 . S
N1300 C1299 1.344 . S
O1301 Co1293 2.055 . S
O1301 C1305 1.253 . S
H1302 C1298 0.931 . S
H1303 C1299 0.930 . S
O1304 Co1293 2.039 . S
O1304 C1294 1.265 . S
C1305 O1301 1.253 . S
C1305 O1306 1.227 . S
O1306 C1305 1.227 . S
N1307 Co1293 2.140 . S
N1307 C1310 1.346 . S
N1307 C1311 1.345 . S
C1308 C1309 1.387 . S
C1308 C1312 1.391 . S
C1309 C1308 1.387 . S
C1309 C1310 1.369 . S
C1309 H1318 0.929 . S
C1310 N1307 1.346 . S
C1310 C1309 1.369 . S
C1310 H1313 0.928 . S
C1311 N1307 1.345 . S
C1311 C1312 1.371 . S
C1311 H1314 0.931 . S
C1312 C1308 1.391 . S
C1312 C1311 1.371 . S
C1312 H1319 0.930 . S
H1313 C1310 0.928 . S
H1314 C1311 0.931 . S
H1315 C1291 0.930 . S
H1316 C1288 0.930 . S
H1317 C1297 0.930 . S
H1318 C1309 0.929 . S
H1319 C1312 0.930 . S
C1320 C1321 1.351 . S
C1320 N1323 1.368 . S
C1320 H1325 0.931 . S
C1321 C1320 1.351 . S
C1321 N1322 1.373 . S
C1321 H1349 0.930 . S
N1322 C1321 1.373 . S
N1322 C1324 1.340 . S
N1323 C1320 1.368 . S
N1323 C1324 1.321 . S
N1323 Co1326 2.135 . S
C1324 N1322 1.340 . S
C1324 N1323 1.321 . S
C1324 H1348 0.930 . S
H1325 C1320 0.931 . S
Co1326 N1323 2.135 . S
Co1326 N1329 2.121 . S
Co1326 O1334 2.055 . S
Co1326 O1337 2.039 . S
Co1326 N1340 2.140 . S
C1327 O1328 1.227 . S
C1327 O1337 1.265 . S
O1328 C1327 1.227 . S
N1329 Co1326 2.121 . S
N1329 C1331 1.375 . S
N1329 C1332 1.313 . S
C1330 C1331 1.338 . S
C1330 N1333 1.377 . S
C1330 H1350 0.930 . S
C1331 N1329 1.375 . S
C1331 C1330 1.338 . S
C1331 H1335 0.931 . S
C1332 N1329 1.313 . S
C1332 N1333 1.344 . S
C1332 H1336 0.930 . S
N1333 C1330 1.377 . S
N1333 C1332 1.344 . S
O1334 Co1326 2.055 . S
O1334 C1338 1.253 . S
H1335 C1331 0.931 . S
H1336 C1332 0.930 . S
O1337 Co1326 2.039 . S
O1337 C1327 1.265 . S
C1338 O1334 1.253 . S
C1338 O1339 1.227 . S
O1339 C1338 1.227 . S
N1340 Co1326 2.140 . S
N1340 C1343 1.346 . S
N1340 C1344 1.345 . S
C1341 C1342 1.387 . S
C1341 C1345 1.391 . S
C1342 C1341 1.387 . S
C1342 C1343 1.369 . S
C1342 H1351 0.929 . S
C1343 N1340 1.346 . S
C1343 C1342 1.369 . S
C1343 H1346 0.928 . S
C1344 N1340 1.345 . S
C1344 C1345 1.371 . S
C1344 H1347 0.931 . S
C1345 C1341 1.391 . S
C1345 C1344 1.371 . S
C1345 H1352 0.930 . S
H1346 C1343 0.928 . S
H1347 C1344 0.931 . S
H1348 C1324 0.930 . S
H1349 C1321 0.930 . S
H1350 C1330 0.930 . S
H1351 C1342 0.929 . S
H1352 C1345 0.930 . S
C1353 C1354 1.351 . S
C1353 N1356 1.368 . S
C1353 H1358 0.931 . S
C1354 C1353 1.351 . S
C1354 N1355 1.373 . S
C1354 H1382 0.930 . S
N1355 C1354 1.373 . S
N1355 C1357 1.340 . S
N1356 C1353 1.368 . S
N1356 C1357 1.321 . S
N1356 Co1359 2.135 . S
C1357 N1355 1.340 . S
C1357 N1356 1.321 . S
C1357 H1381 0.930 . S
H1358 C1353 0.931 . S
Co1359 N1356 2.135 . S
Co1359 N1362 2.121 . S
Co1359 O1367 2.055 . S
Co1359 O1370 2.039 . S
Co1359 N1373 2.140 . S
C1360 O1361 1.227 . S
C1360 O1370 1.265 . S
O1361 C1360 1.227 . S
N1362 Co1359 2.121 . S
N1362 C1364 1.375 . S
N1362 C1365 1.313 . S
C1363 C1364 1.338 . S
C1363 N1366 1.377 . S
C1363 H1383 0.930 . S
C1364 N1362 1.375 . S
C1364 C1363 1.338 . S
C1364 H1368 0.931 . S
C1365 N1362 1.313 . S
C1365 N1366 1.344 . S
C1365 H1369 0.930 . S
N1366 C1363 1.377 . S
N1366 C1365 1.344 . S
O1367 Co1359 2.055 . S
O1367 C1371 1.253 . S
H1368 C1364 0.931 . S
H1369 C1365 0.930 . S
O1370 Co1359 2.039 . S
O1370 C1360 1.265 . S
C1371 O1367 1.253 . S
C1371 O1372 1.227 . S
O1372 C1371 1.227 . S
N1373 Co1359 2.140 . S
N1373 C1376 1.346 . S
N1373 C1377 1.345 . S
C1374 C1375 1.387 . S
C1374 C1378 1.391 . S
C1375 C1374 1.387 . S
C1375 C1376 1.369 . S
C1375 H1384 0.929 . S
C1376 N1373 1.346 . S
C1376 C1375 1.369 . S
C1376 H1379 0.928 . S
C1377 N1373 1.345 . S
C1377 C1378 1.371 . S
C1377 H1380 0.931 . S
C1378 C1374 1.391 . S
C1378 C1377 1.371 . S
C1378 H1385 0.930 . S
H1379 C1376 0.928 . S
H1380 C1377 0.931 . S
H1381 C1357 0.930 . S
H1382 C1354 0.930 . S
H1383 C1363 0.930 . S
H1384 C1375 0.929 . S
H1385 C1378 0.930 . S
C1386 C1387 1.351 . S
C1386 N1389 1.368 . S
C1386 H1391 0.931 . S
C1387 C1386 1.351 . S
C1387 N1388 1.373 . S
C1387 H1415 0.930 . S
N1388 C1387 1.373 . S
N1388 C1390 1.340 . S
N1389 C1386 1.368 . S
N1389 C1390 1.321 . S
N1389 Co1392 2.135 . S
C1390 N1388 1.340 . S
C1390 N1389 1.321 . S
C1390 H1414 0.930 . S
H1391 C1386 0.931 . S
Co1392 N1389 2.135 . S
Co1392 N1395 2.121 . S
Co1392 O1400 2.055 . S
Co1392 O1403 2.039 . S
Co1392 N1406 2.140 . S
C1393 O1394 1.227 . S
C1393 O1403 1.265 . S
O1394 C1393 1.227 . S
N1395 Co1392 2.121 . S
N1395 C1397 1.375 . S
N1395 C1398 1.313 . S
C1396 C1397 1.338 . S
C1396 N1399 1.377 . S
C1396 H1416 0.930 . S
C1397 N1395 1.375 . S
C1397 C1396 1.338 . S
C1397 H1401 0.931 . S
C1398 N1395 1.313 . S
C1398 N1399 1.344 . S
C1398 H1402 0.930 . S
N1399 C1396 1.377 . S
N1399 C1398 1.344 . S
O1400 Co1392 2.055 . S
O1400 C1404 1.253 . S
H1401 C1397 0.931 . S
H1402 C1398 0.930 . S
O1403 Co1392 2.039 . S
O1403 C1393 1.265 . S
C1404 O1400 1.253 . S
C1404 O1405 1.227 . S
O1405 C1404 1.227 . S
N1406 Co1392 2.140 . S
N1406 C1409 1.346 . S
N1406 C1410 1.345 . S
C1407 C1408 1.387 . S
C1407 C1411 1.391 . S
C1408 C1407 1.387 . S
C1408 C1409 1.369 . S
C1408 H1417 0.929 . S
C1409 N1406 1.346 . S
C1409 C1408 1.369 . S
C1409 H1412 0.928 . S
C1410 N1406 1.345 . S
C1410 C1411 1.371 . S
C1410 H1413 0.931 . S
C1411 C1407 1.391 . S
C1411 C1410 1.371 . S
C1411 H1418 0.930 . S
H1412 C1409 0.928 . S
H1413 C1410 0.931 . S
H1414 C1390 0.930 . S
H1415 C1387 0.930 . S
H1416 C1396 0.930 . S
H1417 C1408 0.929 . S
H1418 C1411 0.930 . S
C1419 C1420 1.351 . S
C1419 N1422 1.368 . S
C1419 H1424 0.931 . S
C1420 C1419 1.351 . S
C1420 N1421 1.373 . S
C1420 H1448 0.930 . S
N1421 C1420 1.373 . S
N1421 C1423 1.340 . S
N1422 C1419 1.368 . S
N1422 C1423 1.321 . S
N1422 Co1425 2.135 . S
C1423 N1421 1.340 . S
C1423 N1422 1.321 . S
C1423 H1447 0.930 . S
H1424 C1419 0.931 . S
Co1425 N1422 2.135 . S
Co1425 N1428 2.121 . S
Co1425 O1433 2.055 . S
Co1425 O1436 2.039 . S
Co1425 N1439 2.140 . S
C1426 O1427 1.227 . S
C1426 O1436 1.265 . S
O1427 C1426 1.227 . S
N1428 Co1425 2.121 . S
N1428 C1430 1.375 . S
N1428 C1431 1.313 . S
C1429 C1430 1.338 . S
C1429 N1432 1.377 . S
C1429 H1449 0.930 . S
C1430 N1428 1.375 . S
C1430 C1429 1.338 . S
C1430 H1434 0.931 . S
C1431 N1428 1.313 . S
C1431 N1432 1.344 . S
C1431 H1435 0.930 . S
N1432 C1429 1.377 . S
N1432 C1431 1.344 . S
O1433 Co1425 2.055 . S
O1433 C1437 1.253 . S
H1434 C1430 0.931 . S
H1435 C1431 0.930 . S
O1436 Co1425 2.039 . S
O1436 C1426 1.265 . S
C1437 O1433 1.253 . S
C1437 O1438 1.227 . S
O1438 C1437 1.227 . S
N1439 Co1425 2.140 . S
N1439 C1442 1.346 . S
N1439 C1443 1.345 . S
C1440 C1441 1.387 . S
C1440 C1444 1.391 . S
C1441 C1440 1.387 . S
C1441 C1442 1.369 . S
C1441 H1450 0.929 . S
C1442 N1439 1.346 . S
C1442 C1441 1.369 . S
C1442 H1445 0.928 . S
C1443 N1439 1.345 . S
C1443 C1444 1.371 . S
C1443 H1446 0.931 . S
C1444 C1440 1.391 . S
C1444 C1443 1.371 . S
C1444 H1451 0.930 . S
H1445 C1442 0.928 . S
H1446 C1443 0.931 . S
H1447 C1423 0.930 . S
H1448 C1420 0.930 . S
H1449 C1429 0.930 . S
H1450 C1441 0.929 . S
H1451 C1444 0.930 . S
C1452 C1453 1.351 . S
C1452 N1455 1.368 . S
C1452 H1457 0.931 1_556 S
C1453 C1452 1.351 . S
C1453 N1454 1.373 . S
C1453 H1481 0.930 . S
N1454 C1453 1.373 . S
N1454 C1456 1.340 . S
N1455 C1452 1.368 . S
N1455 C1456 1.321 . S
N1455 Co1458 2.135 1_556 S
C1456 N1454 1.340 . S
C1456 N1455 1.321 . S
C1456 H1480 0.930 . S
H1457 C1452 0.931 1_554 S
Co1458 N1455 2.135 1_554 S
Co1458 N1461 2.121 . S
Co1458 O1466 2.055 . S
Co1458 O1469 2.039 1_554 S
Co1458 N1472 2.140 . S
C1459 O1460 1.227 . S
C1459 O1469 1.265 . S
O1460 C1459 1.227 . S
N1461 Co1458 2.121 . S
N1461 C1463 1.375 . S
N1461 C1464 1.313 . S
C1462 C1463 1.338 . S
C1462 N1465 1.377 . S
C1462 H1482 0.930 . S
C1463 N1461 1.375 . S
C1463 C1462 1.338 . S
C1463 H1467 0.931 . S
C1464 N1461 1.313 . S
C1464 N1465 1.344 . S
C1464 H1468 0.930 . S
N1465 C1462 1.377 . S
N1465 C1464 1.344 . S
O1466 Co1458 2.055 . S
O1466 C1470 1.253 . S
H1467 C1463 0.931 . S
H1468 C1464 0.930 . S
O1469 Co1458 2.039 1_556 S
O1469 C1459 1.265 . S
C1470 O1466 1.253 . S
C1470 O1471 1.227 . S
O1471 C1470 1.227 . S
N1472 Co1458 2.140 . S
N1472 C1475 1.346 1_554 S
N1472 C1476 1.345 . S
C1473 C1474 1.387 1_554 S
C1473 C1477 1.391 . S
C1474 C1473 1.387 1_556 S
C1474 C1475 1.369 . S
C1474 H1483 0.929 . S
C1475 N1472 1.346 1_556 S
C1475 C1474 1.369 . S
C1475 H1478 0.928 . S
C1476 N1472 1.345 . S
C1476 C1477 1.371 . S
C1476 H1479 0.931 . S
C1477 C1473 1.391 . S
C1477 C1476 1.371 . S
C1477 H1484 0.930 . S
H1478 C1475 0.928 . S
H1479 C1476 0.931 . S
H1480 C1456 0.930 . S
H1481 C1453 0.930 . S
H1482 C1462 0.930 . S
H1483 C1474 0.929 . S
H1484 C1477 0.930 . S
C1485 C1486 1.351 . S
C1485 N1488 1.368 . S
C1485 H1490 0.931 . S
C1486 C1485 1.351 . S
C1486 N1487 1.373 . S
C1486 H1514 0.930 . S
N1487 C1486 1.373 . S
N1487 C1489 1.340 . S
N1488 C1485 1.368 . S
N1488 C1489 1.321 . S
N1488 Co1491 2.135 . S
C1489 N1487 1.340 . S
C1489 N1488 1.321 . S
C1489 H1513 0.930 . S
H1490 C1485 0.931 . S
Co1491 N1488 2.135 . S
Co1491 N1494 2.121 1_554 S
Co1491 O1499 2.055 1_554 S
Co1491 O1502 2.039 . S
Co1491 N1505 2.140 . S
C1492 O1493 1.227 . S
C1492 O1502 1.265 . S
O1493 C1492 1.227 . S
N1494 Co1491 2.121 1_556 S
N1494 C1496 1.375 . S
N1494 C1497 1.313 . S
C1495 C1496 1.338 . S
C1495 N1498 1.377 . S
C1495 H1515 0.930 . S
C1496 N1494 1.375 . S
C1496 C1495 1.338 . S
C1496 H1500 0.931 1_556 S
C1497 N1494 1.313 . S
C1497 N1498 1.344 . S
C1497 H1501 0.930 . S
N1498 C1495 1.377 . S
N1498 C1497 1.344 . S
O1499 Co1491 2.055 1_556 S
O1499 C1503 1.253 . S
H1500 C1496 0.931 1_554 S
H1501 C1497 0.930 . S
O1502 Co1491 2.039 . S
O1502 C1492 1.265 . S
C1503 O1499 1.253 . S
C1503 O1504 1.227 . S
O1504 C1503 1.227 . S
N1505 Co1491 2.140 . S
N1505 C1508 1.346 . S
N1505 C1509 1.345 1_554 S
C1506 C1507 1.387 . S
C1506 C1510 1.391 1_554 S
C1507 C1506 1.387 . S
C1507 C1508 1.369 . S
C1507 H1516 0.929 . S
C1508 N1505 1.346 . S
C1508 C1507 1.369 . S
C1508 H1511 0.928 . S
C1509 N1505 1.345 1_556 S
C1509 C1510 1.371 . S
C1509 H1512 0.931 . S
C1510 C1506 1.391 1_556 S
C1510 C1509 1.371 . S
C1510 H1517 0.930 . S
H1511 C1508 0.928 . S
H1512 C1509 0.931 . S
H1513 C1489 0.930 . S
H1514 C1486 0.930 . S
H1515 C1495 0.930 . S
H1516 C1507 0.929 . S
H1517 C1510 0.930 . S
C1518 C1519 1.351 . S
C1518 N1521 1.368 . S
C1518 H1523 0.931 . S
C1519 C1518 1.351 . S
C1519 N1520 1.373 . S
C1519 H1547 0.930 . S
N1520 C1519 1.373 . S
N1520 C1522 1.340 . S
N1521 C1518 1.368 . S
N1521 C1522 1.321 . S
N1521 Co1524 2.135 . S
C1522 N1520 1.340 . S
C1522 N1521 1.321 . S
C1522 H1546 0.930 . S
H1523 C1518 0.931 . S
Co1524 N1521 2.135 . S
Co1524 N1527 2.121 1_554 S
Co1524 O1532 2.055 1_554 S
Co1524 O1535 2.039 . S
Co1524 N1538 2.140 . S
C1525 O1526 1.227 . S
C1525 O1535 1.265 . S
O1526 C1525 1.227 . S
N1527 Co1524 2.121 1_556 S
N1527 C1529 1.375 . S
N1527 C1530 1.313 . S
C1528 C1529 1.338 . S
C1528 N1531 1.377 . S
C1528 H1548 0.930 . S
C1529 N1527 1.375 . S
C1529 C1528 1.338 . S
C1529 H1533 0.931 1_556 S
C1530 N1527 1.313 . S
C1530 N1531 1.344 . S
C1530 H1534 0.930 . S
N1531 C1528 1.377 . S
N1531 C1530 1.344 . S
O1532 Co1524 2.055 1_556 S
O1532 C1536 1.253 . S
H1533 C1529 0.931 1_554 S
H1534 C1530 0.930 . S
O1535 Co1524 2.039 . S
O1535 C1525 1.265 . S
C1536 O1532 1.253 . S
C1536 O1537 1.227 . S
O1537 C1536 1.227 . S
N1538 Co1524 2.140 . S
N1538 C1541 1.346 . S
N1538 C1542 1.345 1_554 S
C1539 C1540 1.387 . S
C1539 C1543 1.391 1_554 S
C1540 C1539 1.387 . S
C1540 C1541 1.369 . S
C1540 H1549 0.929 . S
C1541 N1538 1.346 . S
C1541 C1540 1.369 . S
C1541 H1544 0.928 . S
C1542 N1538 1.345 1_556 S
C1542 C1543 1.371 . S
C1542 H1545 0.931 . S
C1543 C1539 1.391 1_556 S
C1543 C1542 1.371 . S
C1543 H1550 0.930 . S
H1544 C1541 0.928 . S
H1545 C1542 0.931 . S
H1546 C1522 0.930 . S
H1547 C1519 0.930 . S
H1548 C1528 0.930 . S
H1549 C1540 0.929 . S
H1550 C1543 0.930 . S
C1551 C1552 1.351 . S
C1551 N1554 1.368 . S
C1551 H1556 0.931 1_556 S
C1552 C1551 1.351 . S
C1552 N1553 1.373 . S
C1552 H1580 0.930 . S
N1553 C1552 1.373 . S
N1553 C1555 1.340 . S
N1554 C1551 1.368 . S
N1554 C1555 1.321 . S
N1554 Co1557 2.135 1_556 S
C1555 N1553 1.340 . S
C1555 N1554 1.321 . S
C1555 H1579 0.930 . S
H1556 C1551 0.931 1_554 S
Co1557 N1554 2.135 1_554 S
Co1557 N1560 2.121 . S
Co1557 O1565 2.055 . S
Co1557 O1568 2.039 1_554 S
Co1557 N1571 2.140 . S
C1558 O1559 1.227 . S
C1558 O1568 1.265 . S
O1559 C1558 1.227 . S
N1560 Co1557 2.121 . S
N1560 C1562 1.375 . S
N1560 C1563 1.313 . S
C1561 C1562 1.338 . S
C1561 N1564 1.377 . S
C1561 H1581 0.930 . S
C1562 N1560 1.375 . S
C1562 C1561 1.338 . S
C1562 H1566 0.931 . S
C1563 N1560 1.313 . S
C1563 N1564 1.344 . S
C1563 H1567 0.930 . S
N1564 C1561 1.377 . S
N1564 C1563 1.344 . S
O1565 Co1557 2.055 . S
O1565 C1569 1.253 . S
H1566 C1562 0.931 . S
H1567 C1563 0.930 . S
O1568 Co1557 2.039 1_556 S
O1568 C1558 1.265 . S
C1569 O1565 1.253 . S
C1569 O1570 1.227 . S
O1570 C1569 1.227 . S
N1571 Co1557 2.140 . S
N1571 C1574 1.346 1_554 S
N1571 C1575 1.345 . S
C1572 C1573 1.387 1_554 S
C1572 C1576 1.391 . S
C1573 C1572 1.387 1_556 S
C1573 C1574 1.369 . S
C1573 H1582 0.929 . S
C1574 N1571 1.346 1_556 S
C1574 C1573 1.369 . S
C1574 H1577 0.928 . S
C1575 N1571 1.345 . S
C1575 C1576 1.371 . S
C1575 H1578 0.931 . S
C1576 C1572 1.391 . S
C1576 C1575 1.371 . S
C1576 H1583 0.930 . S
H1577 C1574 0.928 . S
H1578 C1575 0.931 . S
H1579 C1555 0.930 . S
H1580 C1552 0.930 . S
H1581 C1561 0.930 . S
H1582 C1573 0.929 . S
H1583 C1576 0.930 . S
C1584 C1585 1.363 . S
C1584 C1590 1.379 . S
C1584 N1592 1.356 . S
C1585 C1584 1.363 . S
C1585 C1591 1.363 1_455 S
C1586 C1587 1.363 1_655 S
C1586 C1591 1.379 . S
C1586 N1593 1.356 . S
C1587 C1586 1.363 1_455 S
C1587 C1590 1.363 . S
N1588 C1590 1.356 . S
N1588 H1600 0.984 . S
N1588 H1601 0.985 . S
N1589 C1591 1.356 . S
N1589 H1594 0.984 . S
N1589 H1595 0.985 . S
C1590 C1584 1.379 . S
C1590 C1587 1.363 . S
C1590 N1588 1.356 . S
C1591 C1585 1.363 1_655 S
C1591 C1586 1.379 . S
C1591 N1589 1.356 . S
N1592 C1584 1.356 . S
N1592 H1598 0.984 . S
N1592 H1599 0.984 . S
N1593 C1586 1.356 . S
N1593 H1596 0.984 . S
N1593 H1597 0.985 . S
H1594 N1589 0.984 . S
H1595 N1589 0.985 . S
H1596 N1593 0.984 . S
H1597 N1593 0.985 . S
H1598 N1592 0.984 . S
H1599 N1592 0.984 . S
H1600 N1588 0.984 . S
H1601 N1588 0.985 . S
C1602 C1603 1.363 1_565 S
C1602 C1608 1.379 . S
C1602 N1610 1.356 . S
C1603 C1602 1.363 1_545 S
C1603 C1609 1.363 . S
C1604 C1605 1.363 . S
C1604 C1609 1.379 . S
C1604 N1611 1.356 . S
C1605 C1604 1.363 . S
C1605 C1608 1.363 1_545 S
N1606 C1608 1.356 . S
N1606 H1618 0.984 . S
N1606 H1619 0.985 . S
N1607 C1609 1.356 . S
N1607 H1612 0.984 . S
N1607 H1613 0.985 . S
C1608 C1602 1.379 . S
C1608 C1605 1.363 1_565 S
C1608 N1606 1.356 . S
C1609 C1603 1.363 . S
C1609 C1604 1.379 . S
C1609 N1607 1.356 . S
N1610 C1602 1.356 . S
N1610 H1616 0.984 . S
N1610 H1617 0.984 . S
N1611 C1604 1.356 . S
N1611 H1614 0.984 . S
N1611 H1615 0.985 . S
H1612 N1607 0.984 . S
H1613 N1607 0.985 . S
H1614 N1611 0.984 . S
H1615 N1611 0.985 . S
H1616 N1610 0.984 . S
H1617 N1610 0.984 . S
H1618 N1606 0.984 . S
H1619 N1606 0.985 . S
C1620 C1621 1.363 1_655 S
C1620 C1626 1.379 . S
C1620 N1628 1.356 . S
C1621 C1620 1.363 1_455 S
C1621 C1627 1.363 . S
C1622 C1623 1.363 . S
C1622 C1627 1.379 . S
C1622 N1629 1.356 . S
C1623 C1622 1.363 . S
C1623 C1626 1.363 1_455 S
N1624 C1626 1.356 . S
N1624 H1636 0.984 . S
N1624 H1637 0.985 . S
N1625 C1627 1.356 . S
N1625 H1630 0.984 . S
N1625 H1631 0.985 . S
C1626 C1620 1.379 . S
C1626 C1623 1.363 1_655 S
C1626 N1624 1.356 . S
C1627 C1621 1.363 . S
C1627 C1622 1.379 . S
C1627 N1625 1.356 . S
N1628 C1620 1.356 . S
N1628 H1634 0.984 . S
N1628 H1635 0.984 . S
N1629 C1622 1.356 . S
N1629 H1632 0.984 . S
N1629 H1633 0.985 . S
H1630 N1625 0.984 . S
H1631 N1625 0.985 . S
H1632 N1629 0.984 . S
H1633 N1629 0.985 . S
H1634 N1628 0.984 . S
H1635 N1628 0.984 . S
H1636 N1624 0.984 . S
H1637 N1624 0.985 . S
C1638 C1639 1.363 1_565 S
C1638 C1644 1.379 . S
C1638 N1646 1.356 . S
C1639 C1638 1.363 1_545 S
C1639 C1645 1.363 . S
C1640 C1641 1.363 . S
C1640 C1645 1.379 . S
C1640 N1647 1.356 . S
C1641 C1640 1.363 . S
C1641 C1644 1.363 1_545 S
N1642 C1644 1.356 . S
N1642 H1654 0.984 . S
N1642 H1655 0.985 . S
N1643 C1645 1.356 . S
N1643 H1648 0.984 . S
N1643 H1649 0.985 . S
C1644 C1638 1.379 . S
C1644 C1641 1.363 1_565 S
C1644 N1642 1.356 . S
C1645 C1639 1.363 . S
C1645 C1640 1.379 . S
C1645 N1643 1.356 . S
N1646 C1638 1.356 . S
N1646 H1652 0.984 . S
N1646 H1653 0.984 . S
N1647 C1640 1.356 . S
N1647 H1650 0.984 . S
N1647 H1651 0.985 . S
H1648 N1643 0.984 . S
H1649 N1643 0.985 . S
H1650 N1647 0.984 . S
H1651 N1647 0.985 . S
H1652 N1646 0.984 . S
H1653 N1646 0.984 . S
H1654 N1642 0.984 . S
H1655 N1642 0.985 . S
C1656 C1657 1.363 1_655 S
C1656 C1662 1.379 . S
C1656 N1664 1.356 . S
C1657 C1656 1.363 1_455 S
C1657 C1663 1.363 . S
C1658 C1659 1.363 . S
C1658 C1663 1.379 . S
C1658 N1665 1.356 . S
C1659 C1658 1.363 . S
C1659 C1662 1.363 1_455 S
N1660 C1662 1.356 . S
N1660 H1672 0.984 . S
N1660 H1673 0.985 . S
N1661 C1663 1.356 . S
N1661 H1666 0.984 . S
N1661 H1667 0.985 . S
C1662 C1656 1.379 . S
C1662 C1659 1.363 1_655 S
C1662 N1660 1.356 . S
C1663 C1657 1.363 . S
C1663 C1658 1.379 . S
C1663 N1661 1.356 . S
N1664 C1656 1.356 . S
N1664 H1670 0.984 . S
N1664 H1671 0.984 . S
N1665 C1658 1.356 . S
N1665 H1668 0.984 . S
N1665 H1669 0.985 . S
H1666 N1661 0.984 . S
H1667 N1661 0.985 . S
H1668 N1665 0.984 . S
H1669 N1665 0.985 . S
H1670 N1664 0.984 . S
H1671 N1664 0.984 . S
H1672 N1660 0.984 . S
H1673 N1660 0.985 . S
C1674 C1675 1.363 1_565 S
C1674 C1680 1.379 . S
C1674 N1682 1.356 . S
C1675 C1674 1.363 1_545 S
C1675 C1681 1.363 . S
C1676 C1677 1.363 . S
C1676 C1681 1.379 . S
C1676 N1683 1.356 . S
C1677 C1676 1.363 . S
C1677 C1680 1.363 1_545 S
N1678 C1680 1.356 . S
N1678 H1690 0.984 . S
N1678 H1691 0.985 . S
N1679 C1681 1.356 . S
N1679 H1684 0.984 . S
N1679 H1685 0.985 . S
C1680 C1674 1.379 . S
C1680 C1677 1.363 1_565 S
C1680 N1678 1.356 . S
C1681 C1675 1.363 . S
C1681 C1676 1.379 . S
C1681 N1679 1.356 . S
N1682 C1674 1.356 . S
N1682 H1688 0.984 . S
N1682 H1689 0.984 . S
N1683 C1676 1.356 . S
N1683 H1686 0.984 . S
N1683 H1687 0.985 . S
H1684 N1679 0.984 . S
H1685 N1679 0.985 . S
H1686 N1683 0.984 . S
H1687 N1683 0.985 . S
H1688 N1682 0.984 . S
H1689 N1682 0.984 . S
H1690 N1678 0.984 . S
H1691 N1678 0.985 . S
C1692 C1693 1.363 1_655 S
C1692 C1698 1.379 . S
C1692 N1700 1.356 . S
C1693 C1692 1.363 1_455 S
C1693 C1699 1.363 . S
C1694 C1695 1.364 1_455 S
C1694 C1699 1.379 . S
C1694 N1701 1.356 . S
C1695 C1694 1.364 1_655 S
C1695 C1698 1.362 . S
N1696 C1698 1.356 . S
N1696 H1708 0.984 . S
N1696 H1709 0.985 . S
N1697 C1699 1.356 . S
N1697 H1702 0.984 . S
N1697 H1703 0.985 . S
C1698 C1692 1.379 . S
C1698 C1695 1.362 . S
C1698 N1696 1.356 . S
C1699 C1693 1.363 . S
C1699 C1694 1.379 . S
C1699 N1697 1.356 . S
N1700 C1692 1.356 . S
N1700 H1706 0.984 . S
N1700 H1707 0.984 . S
N1701 C1694 1.356 . S
N1701 H1704 0.984 . S
N1701 H1705 0.985 . S
H1702 N1697 0.984 . S
H1703 N1697 0.985 . S
H1704 N1701 0.984 . S
H1705 N1701 0.985 . S
H1706 N1700 0.984 . S
H1707 N1700 0.984 . S
H1708 N1696 0.984 . S
H1709 N1696 0.985 . S
C1710 C1711 1.363 . S
C1710 C1716 1.379 . S
C1710 N1718 1.356 . S
C1711 C1710 1.363 . S
C1711 C1717 1.363 1_545 S
C1712 C1713 1.363 1_565 S
C1712 C1717 1.379 . S
C1712 N1719 1.356 . S
C1713 C1712 1.363 1_545 S
C1713 C1716 1.363 . S
N1714 C1716 1.356 . S
N1714 H1726 0.984 . S
N1714 H1727 0.985 . S
N1715 C1717 1.356 . S
N1715 H1720 0.984 . S
N1715 H1721 0.985 . S
C1716 C1710 1.379 . S
C1716 C1713 1.363 . S
C1716 N1714 1.356 . S
C1717 C1711 1.363 1_565 S
C1717 C1712 1.379 . S
C1717 N1715 1.356 . S
N1718 C1710 1.356 . S
N1718 H1724 0.984 . S
N1718 H1725 0.984 . S
N1719 C1712 1.356 . S
N1719 H1722 0.984 . S
N1719 H1723 0.985 . S
H1720 N1715 0.984 . S
H1721 N1715 0.985 . S
H1722 N1719 0.984 . S
H1723 N1719 0.985 . S
H1724 N1718 0.984 . S
H1725 N1718 0.984 . S
H1726 N1714 0.984 . S
H1727 N1714 0.985 . S
C1728 C1729 1.363 1_556 S
C1728 C1734 1.379 . S
C1728 N1736 1.356 . S
C1729 C1728 1.363 1_554 S
C1729 C1735 1.363 . S
C1730 C1731 1.363 . S
C1730 C1735 1.379 . S
C1730 N1737 1.356 . S
C1731 C1730 1.363 . S
C1731 C1734 1.363 1_554 S
N1732 C1734 1.356 . S
N1732 H1744 0.984 . S
N1732 H1745 0.985 . S
N1733 C1735 1.356 . S
N1733 H1738 0.984 . S
N1733 H1739 0.985 . S
C1734 C1728 1.379 . S
C1734 C1731 1.363 1_556 S
C1734 N1732 1.356 . S
C1735 C1729 1.363 . S
C1735 C1730 1.379 . S
C1735 N1733 1.356 . S
N1736 C1728 1.356 . S
N1736 H1742 0.984 . S
N1736 H1743 0.984 . S
N1737 C1730 1.356 . S
N1737 H1740 0.984 . S
N1737 H1741 0.985 . S
H1738 N1733 0.984 . S
H1739 N1733 0.985 . S
H1740 N1737 0.984 . S
H1741 N1737 0.985 . S
H1742 N1736 0.984 . S
H1743 N1736 0.984 . S
H1744 N1732 0.984 . S
H1745 N1732 0.985 . S
C1746 C1747 1.363 . S
C1746 C1752 1.379 . S
C1746 N1754 1.356 . S
C1747 C1746 1.363 . S
C1747 C1753 1.363 1_554 S
C1748 C1749 1.357 1_556 S
C1748 C1753 1.379 . S
C1748 N1755 1.361 . S
C1749 C1748 1.357 1_554 S
C1749 C1752 1.363 . S
N1750 C1752 1.356 . S
N1750 H1762 0.984 . S
N1750 H1763 0.985 . S
N1751 C1753 1.356 . S
N1751 H1756 0.984 . S
N1751 H1757 0.985 . S
C1752 C1746 1.379 . S
C1752 C1749 1.363 . S
C1752 N1750 1.356 . S
C1753 C1747 1.363 1_556 S
C1753 C1748 1.379 . S
C1753 N1751 1.356 . S
N1754 C1746 1.356 . S
N1754 H1760 0.984 . S
N1754 H1761 0.984 . S
N1755 C1748 1.361 . S
N1755 H1758 0.984 . S
N1755 H1759 0.985 . S
H1756 N1751 0.984 . S
H1757 N1751 0.985 . S
H1758 N1755 0.984 . S
H1759 N1755 0.985 . S
H1760 N1754 0.984 . S
H1761 N1754 0.984 . S
H1762 N1750 0.984 . S
H1763 N1750 0.985 . S
C1764 C1765 1.363 1_556 S
C1764 C1770 1.379 . S
C1764 N1772 1.356 . S
C1765 C1764 1.363 1_554 S
C1765 C1771 1.363 . S
C1766 C1767 1.363 . S
C1766 C1771 1.379 . S
C1766 N1773 1.356 . S
C1767 C1766 1.363 . S
C1767 C1770 1.363 1_554 S
N1768 C1770 1.356 . S
N1768 H1780 0.984 . S
N1768 H1781 0.985 . S
N1769 C1771 1.356 . S
N1769 H1774 0.984 . S
N1769 H1775 0.985 . S
C1770 C1764 1.379 . S
C1770 C1767 1.363 1_556 S
C1770 N1768 1.356 . S
C1771 C1765 1.363 . S
C1771 C1766 1.379 . S
C1771 N1769 1.356 . S
N1772 C1764 1.356 . S
N1772 H1778 0.984 . S
N1772 H1779 0.984 . S
N1773 C1766 1.356 . S
N1773 H1776 0.984 . S
N1773 H1777 0.985 . S
H1774 N1769 0.984 . S
H1775 N1769 0.985 . S
H1776 N1773 0.984 . S
H1777 N1773 0.985 . S
H1778 N1772 0.984 . S
H1779 N1772 0.984 . S
H1780 N1768 0.984 . S
H1781 N1768 0.985 . S
C1782 C1783 1.363 . S
C1782 C1788 1.379 . S
C1782 N1790 1.356 . S
C1783 C1782 1.363 . S
C1783 C1789 1.363 1_554 S
C1784 C1785 1.363 1_556 S
C1784 C1789 1.379 . S
C1784 N1791 1.356 . S
C1785 C1784 1.363 1_554 S
C1785 C1788 1.363 . S
N1786 C1788 1.356 . S
N1786 H1798 0.984 . S
N1786 H1799 0.985 . S
N1787 C1789 1.356 . S
N1787 H1792 0.984 . S
N1787 H1793 0.985 . S
C1788 C1782 1.379 . S
C1788 C1785 1.363 . S
C1788 N1786 1.356 . S
C1789 C1783 1.363 1_556 S
C1789 C1784 1.379 . S
C1789 N1787 1.356 . S
N1790 C1782 1.356 . S
N1790 H1796 0.984 . S
N1790 H1797 0.984 . S
N1791 C1784 1.356 . S
N1791 H1794 0.984 . S
N1791 H1795 0.985 . S
H1792 N1787 0.984 . S
H1793 N1787 0.985 . S
H1794 N1791 0.984 . S
H1795 N1791 0.985 . S
H1796 N1790 0.984 . S
H1797 N1790 0.984 . S
H1798 N1786 0.984 . S
H1799 N1786 0.985 . S
C1800 C1801 1.363 . S
C1800 C1806 1.379 . S
C1800 N1808 1.356 . S
C1801 C1800 1.363 . S
C1801 C1807 1.363 . S
C1802 C1803 1.363 . S
C1802 C1807 1.379 . S
C1802 N1809 1.356 . S
C1803 C1802 1.363 . S
C1803 C1806 1.363 . S
N1804 C1806 1.356 . S
N1804 H1816 0.984 . S
N1804 H1817 0.985 . S
N1805 C1807 1.356 . S
N1805 H1810 0.984 . S
N1805 H1811 0.985 . S
C1806 C1800 1.379 . S
C1806 C1803 1.363 . S
C1806 N1804 1.356 . S
C1807 C1801 1.363 . S
C1807 C1802 1.379 . S
C1807 N1805 1.356 . S
N1808 C1800 1.356 . S
N1808 H1814 0.984 . S
N1808 H1815 0.984 . S
N1809 C1802 1.356 . S
N1809 H1812 0.984 . S
N1809 H1813 0.985 . S
H1810 N1805 0.984 . S
H1811 N1805 0.985 . S
H1812 N1809 0.984 . S
H1813 N1809 0.985 . S
H1814 N1808 0.984 . S
H1815 N1808 0.984 . S
H1816 N1804 0.984 . S
H1817 N1804 0.985 . S
C1818 C1819 1.363 . S
C1818 C1824 1.379 . S
C1818 N1826 1.356 . S
C1819 C1818 1.363 . S
C1819 C1825 1.363 . S
C1820 C1821 1.363 . S
C1820 C1825 1.379 . S
C1820 N1827 1.356 . S
C1821 C1820 1.363 . S
C1821 C1824 1.363 . S
N1822 C1824 1.356 . S
N1822 H1834 0.984 . S
N1822 H1835 0.985 . S
N1823 C1825 1.356 . S
N1823 H1828 0.984 . S
N1823 H1829 0.985 . S
C1824 C1818 1.379 . S
C1824 C1821 1.363 . S
C1824 N1822 1.356 . S
C1825 C1819 1.363 . S
C1825 C1820 1.379 . S
C1825 N1823 1.356 . S
N1826 C1818 1.356 . S
N1826 H1832 0.984 . S
N1826 H1833 0.984 . S
N1827 C1820 1.356 . S
N1827 H1830 0.984 . S
N1827 H1831 0.985 . S
H1828 N1823 0.984 . S
H1829 N1823 0.985 . S
H1830 N1827 0.984 . S
H1831 N1827 0.985 . S
H1832 N1826 0.984 . S
H1833 N1826 0.984 . S
H1834 N1822 0.984 . S
H1835 N1822 0.985 . S
C1836 C1837 1.363 . S
C1836 C1842 1.379 . S
C1836 N1844 1.356 . S
C1837 C1836 1.363 . S
C1837 C1843 1.363 . S
C1838 C1839 1.363 . S
C1838 C1843 1.379 . S
C1838 N1845 1.356 . S
C1839 C1838 1.363 . S
C1839 C1842 1.363 . S
N1840 C1842 1.356 . S
N1840 H1852 0.984 . S
N1840 H1853 0.985 . S
N1841 C1843 1.356 . S
N1841 H1846 0.984 . S
N1841 H1847 0.985 . S
C1842 C1836 1.379 . S
C1842 C1839 1.363 . S
C1842 N1840 1.356 . S
C1843 C1837 1.363 . S
C1843 C1838 1.379 . S
C1843 N1841 1.356 . S
N1844 C1836 1.356 . S
N1844 H1850 0.984 . S
N1844 H1851 0.984 . S
N1845 C1838 1.356 . S
N1845 H1848 0.984 . S
N1845 H1849 0.985 . S
H1846 N1841 0.984 . S
H1847 N1841 0.985 . S
H1848 N1845 0.984 . S
H1849 N1845 0.985 . S
H1850 N1844 0.984 . S
H1851 N1844 0.984 . S
H1852 N1840 0.984 . S
H1853 N1840 0.985 . S
C1854 C1855 1.363 . S
C1854 C1860 1.379 . S
C1854 N1862 1.356 . S
C1855 C1854 1.363 . S
C1855 C1861 1.363 . S
C1856 C1857 1.363 . S
C1856 C1861 1.379 . S
C1856 N1863 1.356 . S
C1857 C1856 1.363 . S
C1857 C1860 1.363 . S
N1858 C1860 1.356 . S
N1858 H1870 0.984 . S
N1858 H1871 0.985 . S
N1859 C1861 1.356 . S
N1859 H1864 0.984 . S
N1859 H1865 0.985 . S
C1860 C1854 1.379 . S
C1860 C1857 1.363 . S
C1860 N1858 1.356 . S
C1861 C1855 1.363 . S
C1861 C1856 1.379 . S
C1861 N1859 1.356 . S
N1862 C1854 1.356 . S
N1862 H1868 0.984 . S
N1862 H1869 0.984 . S
N1863 C1856 1.356 . S
N1863 H1866 0.984 . S
N1863 H1867 0.985 . S
H1864 N1859 0.984 . S
H1865 N1859 0.985 . S
H1866 N1863 0.984 . S
H1867 N1863 0.985 . S
H1868 N1862 0.984 . S
H1869 N1862 0.984 . S
H1870 N1858 0.984 . S
H1871 N1858 0.985 . S
C1872 C1873 1.363 . S
C1872 C1878 1.379 . S
C1872 N1880 1.356 . S
C1873 C1872 1.363 . S
C1873 C1879 1.363 . S
C1874 C1875 1.363 . S
C1874 C1879 1.379 . S
C1874 N1881 1.356 . S
C1875 C1874 1.363 . S
C1875 C1878 1.363 . S
N1876 C1878 1.356 . S
N1876 H1888 0.984 . S
N1876 H1889 0.985 . S
N1877 C1879 1.356 . S
N1877 H1882 0.984 . S
N1877 H1883 0.985 . S
C1878 C1872 1.379 . S
C1878 C1875 1.363 . S
C1878 N1876 1.356 . S
C1879 C1873 1.363 . S
C1879 C1874 1.379 . S
C1879 N1877 1.356 . S
N1880 C1872 1.356 . S
N1880 H1886 0.984 . S
N1880 H1887 0.984 . S
N1881 C1874 1.356 . S
N1881 H1884 0.984 . S
N1881 H1885 0.985 . S
H1882 N1877 0.984 . S
H1883 N1877 0.985 . S
H1884 N1881 0.984 . S
H1885 N1881 0.985 . S
H1886 N1880 0.984 . S
H1887 N1880 0.984 . S
H1888 N1876 0.984 . S
H1889 N1876 0.985 . S
C1890 C1891 1.363 . S
C1890 C1896 1.379 . S
C1890 N1898 1.356 . S
C1891 C1890 1.363 . S
C1891 C1897 1.363 . S
C1892 C1893 1.363 . S
C1892 C1897 1.379 . S
C1892 N1899 1.356 . S
C1893 C1892 1.363 . S
C1893 C1896 1.363 . S
N1894 C1896 1.356 . S
N1894 H1906 0.984 . S
N1894 H1907 0.985 . S
N1895 C1897 1.356 . S
N1895 H1900 0.984 . S
N1895 H1901 0.985 . S
C1896 C1890 1.379 . S
C1896 C1893 1.363 . S
C1896 N1894 1.356 . S
C1897 C1891 1.363 . S
C1897 C1892 1.379 . S
C1897 N1895 1.356 . S
N1898 C1890 1.356 . S
N1898 H1904 0.984 . S
N1898 H1905 0.984 . S
N1899 C1892 1.356 . S
N1899 H1902 0.984 . S
N1899 H1903 0.985 . S
H1900 N1895 0.984 . S
H1901 N1895 0.985 . S
H1902 N1899 0.984 . S
H1903 N1899 0.985 . S
H1904 N1898 0.984 . S
H1905 N1898 0.984 . S
H1906 N1894 0.984 . S
H1907 N1894 0.985 . S
C1908 C1909 1.363 . S
C1908 C1914 1.379 . S
C1908 N1916 1.356 . S
C1909 C1908 1.363 . S
C1909 C1915 1.363 . S
C1910 C1911 1.363 . S
C1910 C1915 1.379 . S
C1910 N1917 1.356 . S
C1911 C1910 1.363 . S
C1911 C1914 1.363 . S
N1912 C1914 1.356 . S
N1912 H1924 0.984 . S
N1912 H1925 0.985 . S
N1913 C1915 1.356 . S
N1913 H1918 0.984 . S
N1913 H1919 0.985 . S
C1914 C1908 1.379 . S
C1914 C1911 1.363 . S
C1914 N1912 1.356 . S
C1915 C1909 1.363 . S
C1915 C1910 1.379 . S
C1915 N1913 1.356 . S
N1916 C1908 1.356 . S
N1916 H1922 0.984 . S
N1916 H1923 0.984 . S
N1917 C1910 1.356 . S
N1917 H1920 0.984 . S
N1917 H1921 0.985 . S
H1918 N1913 0.984 . S
H1919 N1913 0.985 . S
H1920 N1917 0.984 . S
H1921 N1917 0.985 . S
H1922 N1916 0.984 . S
H1923 N1916 0.984 . S
H1924 N1912 0.984 . S
H1925 N1912 0.985 . S
C1926 C1927 1.363 . S
C1926 C1932 1.379 . S
C1926 N1934 1.356 . S
C1927 C1926 1.363 . S
C1927 C1933 1.363 . S
C1928 C1929 1.363 . S
C1928 C1933 1.379 . S
C1928 N1935 1.356 . S
C1929 C1928 1.363 . S
C1929 C1932 1.363 . S
N1930 C1932 1.356 . S
N1930 H1942 0.984 . S
N1930 H1943 0.985 . S
N1931 C1933 1.356 . S
N1931 H1936 0.984 . S
N1931 H1937 0.985 . S
C1932 C1926 1.379 . S
C1932 C1929 1.363 . S
C1932 N1930 1.356 . S
C1933 C1927 1.363 . S
C1933 C1928 1.379 . S
C1933 N1931 1.356 . S
N1934 C1926 1.356 . S
N1934 H1940 0.984 . S
N1934 H1941 0.984 . S
N1935 C1928 1.356 . S
N1935 H1938 0.984 . S
N1935 H1939 0.985 . S
H1936 N1931 0.984 . S
H1937 N1931 0.985 . S
H1938 N1935 0.984 . S
H1939 N1935 0.985 . S
H1940 N1934 0.984 . S
H1941 N1934 0.984 . S
H1942 N1930 0.984 . S
H1943 N1930 0.985 . S
C1944 C1945 1.363 . S
C1944 C1950 1.379 . S
C1944 N1952 1.356 . S
C1945 C1944 1.363 . S
C1945 C1951 1.363 . S
C1946 C1947 1.363 . S
C1946 C1951 1.379 . S
C1946 N1953 1.356 . S
C1947 C1946 1.363 . S
C1947 C1950 1.363 . S
N1948 C1950 1.356 . S
N1948 H1960 0.984 . S
N1948 H1961 0.985 . S
N1949 C1951 1.356 . S
N1949 H1954 0.984 . S
N1949 H1955 0.985 . S
C1950 C1944 1.379 . S
C1950 C1947 1.363 . S
C1950 N1948 1.356 . S
C1951 C1945 1.363 . S
C1951 C1946 1.379 . S
C1951 N1949 1.356 . S
N1952 C1944 1.356 . S
N1952 H1958 0.984 . S
N1952 H1959 0.984 . S
N1953 C1946 1.356 . S
N1953 H1956 0.984 . S
N1953 H1957 0.985 . S
H1954 N1949 0.984 . S
H1955 N1949 0.985 . S
H1956 N1953 0.984 . S
H1957 N1953 0.985 . S
H1958 N1952 0.984 . S
H1959 N1952 0.984 . S
H1960 N1948 0.984 . S
H1961 N1948 0.985 . S
C1962 C1963 1.363 . S
C1962 C1968 1.379 . S
C1962 N1970 1.356 . S
C1963 C1962 1.363 . S
C1963 C1969 1.363 . S
C1964 C1965 1.363 . S
C1964 C1969 1.379 . S
C1964 N1971 1.356 . S
C1965 C1964 1.363 . S
C1965 C1968 1.363 . S
N1966 C1968 1.356 . S
N1966 H1978 0.984 . S
N1966 H1979 0.985 . S
N1967 C1969 1.356 . S
N1967 H1972 0.984 . S
N1967 H1973 0.985 . S
C1968 C1962 1.379 . S
C1968 C1965 1.363 . S
C1968 N1966 1.356 . S
C1969 C1963 1.363 . S
C1969 C1964 1.379 . S
C1969 N1967 1.356 . S
N1970 C1962 1.356 . S
N1970 H1976 0.984 . S
N1970 H1977 0.984 . S
N1971 C1964 1.356 . S
N1971 H1974 0.984 . S
N1971 H1975 0.985 . S
H1972 N1967 0.984 . S
H1973 N1967 0.985 . S
H1974 N1971 0.984 . S
H1975 N1971 0.985 . S
H1976 N1970 0.984 . S
H1977 N1970 0.984 . S
H1978 N1966 0.984 . S
H1979 N1966 0.985 . S
C1980 C1981 1.363 . S
C1980 C1986 1.379 . S
C1980 N1988 1.356 . S
C1981 C1980 1.363 . S
C1981 C1987 1.363 . S
C1982 C1983 1.363 . S
C1982 C1987 1.379 . S
C1982 N1989 1.356 . S
C1983 C1982 1.363 . S
C1983 C1986 1.363 . S
N1984 C1986 1.356 . S
N1984 H1996 0.984 . S
N1984 H1997 0.985 . S
N1985 C1987 1.356 . S
N1985 H1990 0.984 . S
N1985 H1991 0.985 . S
C1986 C1980 1.379 . S
C1986 C1983 1.363 . S
C1986 N1984 1.356 . S
C1987 C1981 1.363 . S
C1987 C1982 1.379 . S
C1987 N1985 1.356 . S
N1988 C1980 1.356 . S
N1988 H1994 0.984 . S
N1988 H1995 0.984 . S
N1989 C1982 1.356 . S
N1989 H1992 0.984 . S
N1989 H1993 0.985 . S
H1990 N1985 0.984 . S
H1991 N1985 0.985 . S
H1992 N1989 0.984 . S
H1993 N1989 0.985 . S
H1994 N1988 0.984 . S
H1995 N1988 0.984 . S
H1996 N1984 0.984 . S
H1997 N1984 0.985 . S
C1998 C1999 1.363 . S
C1998 C2004 1.379 . S
C1998 N2006 1.356 . S
C1999 C1998 1.363 . S
C1999 C2005 1.363 . S
C2000 C2001 1.363 . S
C2000 C2005 1.379 . S
C2000 N2007 1.356 . S
C2001 C2000 1.363 . S
C2001 C2004 1.363 . S
N2002 C2004 1.356 . S
N2002 H2014 0.984 . S
N2002 H2015 0.985 . S
N2003 C2005 1.356 . S
N2003 H2008 0.984 . S
N2003 H2009 0.985 . S
C2004 C1998 1.379 . S
C2004 C2001 1.363 . S
C2004 N2002 1.356 . S
C2005 C1999 1.363 . S
C2005 C2000 1.379 . S
C2005 N2003 1.356 . S
N2006 C1998 1.356 . S
N2006 H2012 0.984 . S
N2006 H2013 0.984 . S
N2007 C2000 1.356 . S
N2007 H2010 0.984 . S
N2007 H2011 0.985 . S
H2008 N2003 0.984 . S
H2009 N2003 0.985 . S
H2010 N2007 0.984 . S
H2011 N2007 0.985 . S
H2012 N2006 0.984 . S
H2013 N2006 0.984 . S
H2014 N2002 0.984 . S
H2015 N2002 0.985 . S
C2016 C2017 1.363 . S
C2016 C2022 1.379 . S
C2016 N2024 1.356 . S
C2017 C2016 1.363 . S
C2017 C2023 1.363 . S
C2018 C2019 1.363 . S
C2018 C2023 1.379 . S
C2018 N2025 1.356 . S
C2019 C2018 1.363 . S
C2019 C2022 1.363 . S
N2020 C2022 1.356 . S
N2020 H2032 0.984 . S
N2020 H2033 0.985 . S
N2021 C2023 1.356 . S
N2021 H2026 0.984 . S
N2021 H2027 0.985 . S
C2022 C2016 1.379 . S
C2022 C2019 1.363 . S
C2022 N2020 1.356 . S
C2023 C2017 1.363 . S
C2023 C2018 1.379 . S
C2023 N2021 1.356 . S
N2024 C2016 1.356 . S
N2024 H2030 0.984 . S
N2024 H2031 0.984 . S
N2025 C2018 1.356 . S
N2025 H2028 0.984 . S
N2025 H2029 0.985 . S
H2026 N2021 0.984 . S
H2027 N2021 0.985 . S
H2028 N2025 0.984 . S
H2029 N2025 0.985 . S
H2030 N2024 0.984 . S
H2031 N2024 0.984 . S
H2032 N2020 0.984 . S
H2033 N2020 0.985 . S
C2034 C2035 1.363 . S
C2034 C2040 1.379 . S
C2034 N2042 1.356 . S
C2035 C2034 1.363 . S
C2035 C2041 1.363 . S
C2036 C2037 1.363 . S
C2036 C2041 1.379 . S
C2036 N2043 1.356 . S
C2037 C2036 1.363 . S
C2037 C2040 1.363 . S
N2038 C2040 1.356 . S
N2038 H2050 0.984 . S
N2038 H2051 0.985 . S
N2039 C2041 1.356 . S
N2039 H2044 0.984 . S
N2039 H2045 0.985 . S
C2040 C2034 1.379 . S
C2040 C2037 1.363 . S
C2040 N2038 1.356 . S
C2041 C2035 1.363 . S
C2041 C2036 1.379 . S
C2041 N2039 1.356 . S
N2042 C2034 1.356 . S
N2042 H2048 0.984 . S
N2042 H2049 0.984 . S
N2043 C2036 1.356 . S
N2043 H2046 0.984 . S
N2043 H2047 0.985 . S
H2044 N2039 0.984 . S
H2045 N2039 0.985 . S
H2046 N2043 0.984 . S
H2047 N2043 0.985 . S
H2048 N2042 0.984 . S
H2049 N2042 0.984 . S
H2050 N2038 0.984 . S
H2051 N2038 0.985 . S
C2052 C2053 1.363 . S
C2052 C2058 1.379 . S
C2052 N2060 1.356 . S
C2053 C2052 1.363 . S
C2053 C2059 1.363 . S
C2054 C2055 1.363 . S
C2054 C2059 1.379 . S
C2054 N2061 1.356 . S
C2055 C2054 1.363 . S
C2055 C2058 1.363 . S
N2056 C2058 1.356 . S
N2056 H2068 0.984 . S
N2056 H2069 0.985 . S
N2057 C2059 1.356 . S
N2057 H2062 0.984 . S
N2057 H2063 0.985 . S
C2058 C2052 1.379 . S
C2058 C2055 1.363 . S
C2058 N2056 1.356 . S
C2059 C2053 1.363 . S
C2059 C2054 1.379 . S
C2059 N2057 1.356 . S
N2060 C2052 1.356 . S
N2060 H2066 0.984 . S
N2060 H2067 0.984 . S
N2061 C2054 1.356 . S
N2061 H2064 0.984 . S
N2061 H2065 0.985 . S
H2062 N2057 0.984 . S
H2063 N2057 0.985 . S
H2064 N2061 0.984 . S
H2065 N2061 0.985 . S
H2066 N2060 0.984 . S
H2067 N2060 0.984 . S
H2068 N2056 0.984 . S
H2069 N2056 0.985 . S
C2070 C2071 1.363 . S
C2070 C2076 1.379 . S
C2070 N2078 1.356 . S
C2071 C2070 1.363 . S
C2071 C2077 1.363 . S
C2072 C2073 1.363 . S
C2072 C2077 1.379 . S
C2072 N2079 1.356 . S
C2073 C2072 1.363 . S
C2073 C2076 1.363 . S
N2074 C2076 1.356 . S
N2074 H2086 0.984 . S
N2074 H2087 0.985 . S
N2075 C2077 1.356 . S
N2075 H2080 0.984 . S
N2075 H2081 0.985 . S
C2076 C2070 1.379 . S
C2076 C2073 1.363 . S
C2076 N2074 1.356 . S
C2077 C2071 1.363 . S
C2077 C2072 1.379 . S
C2077 N2075 1.356 . S
N2078 C2070 1.356 . S
N2078 H2084 0.984 . S
N2078 H2085 0.984 . S
N2079 C2072 1.356 . S
N2079 H2082 0.984 . S
N2079 H2083 0.985 . S
H2080 N2075 0.984 . S
H2081 N2075 0.985 . S
H2082 N2079 0.984 . S
H2083 N2079 0.985 . S
H2084 N2078 0.984 . S
H2085 N2078 0.984 . S
H2086 N2074 0.984 . S
H2087 N2074 0.985 . S
C2088 C2089 1.363 . S
C2088 C2094 1.379 . S
C2088 N2096 1.356 . S
C2089 C2088 1.363 . S
C2089 C2095 1.363 . S
C2090 C2091 1.363 . S
C2090 C2095 1.379 . S
C2090 N2097 1.356 . S
C2091 C2090 1.363 . S
C2091 C2094 1.363 . S
N2092 C2094 1.356 . S
N2092 H2104 0.984 . S
N2092 H2105 0.985 . S
N2093 C2095 1.356 . S
N2093 H2098 0.984 . S
N2093 H2099 0.985 . S
C2094 C2088 1.379 . S
C2094 C2091 1.363 . S
C2094 N2092 1.356 . S
C2095 C2089 1.363 . S
C2095 C2090 1.379 . S
C2095 N2093 1.356 . S
N2096 C2088 1.356 . S
N2096 H2102 0.984 . S
N2096 H2103 0.984 . S
N2097 C2090 1.356 . S
N2097 H2100 0.984 . S
N2097 H2101 0.985 . S
H2098 N2093 0.984 . S
H2099 N2093 0.985 . S
H2100 N2097 0.984 . S
H2101 N2097 0.985 . S
H2102 N2096 0.984 . S
H2103 N2096 0.984 . S
H2104 N2092 0.984 . S
H2105 N2092 0.985 . S
C2106 C2107 1.363 . S
C2106 C2112 1.379 . S
C2106 N2114 1.356 . S
C2107 C2106 1.363 . S
C2107 C2113 1.363 . S
C2108 C2109 1.363 . S
C2108 C2113 1.379 . S
C2108 N2115 1.356 . S
C2109 C2108 1.363 . S
C2109 C2112 1.363 . S
N2110 C2112 1.356 . S
N2110 H2122 0.984 . S
N2110 H2123 0.985 . S
N2111 C2113 1.356 . S
N2111 H2116 0.984 . S
N2111 H2117 0.985 . S
C2112 C2106 1.379 . S
C2112 C2109 1.363 . S
C2112 N2110 1.356 . S
C2113 C2107 1.363 . S
C2113 C2108 1.379 . S
C2113 N2111 1.356 . S
N2114 C2106 1.356 . S
N2114 H2120 0.984 . S
N2114 H2121 0.984 . S
N2115 C2108 1.356 . S
N2115 H2118 0.984 . S
N2115 H2119 0.985 . S
H2116 N2111 0.984 . S
H2117 N2111 0.985 . S
H2118 N2115 0.984 . S
H2119 N2115 0.985 . S
H2120 N2114 0.984 . S
H2121 N2114 0.984 . S
H2122 N2110 0.984 . S
H2123 N2110 0.985 . S
C2124 C2125 1.363 . S
C2124 C2130 1.379 . S
C2124 N2132 1.356 . S
C2125 C2124 1.363 . S
C2125 C2131 1.363 . S
C2126 C2127 1.363 . S
C2126 C2131 1.379 . S
C2126 N2133 1.356 . S
C2127 C2126 1.363 . S
C2127 C2130 1.363 . S
N2128 C2130 1.356 . S
N2128 H2140 0.984 . S
N2128 H2141 0.985 . S
N2129 C2131 1.356 . S
N2129 H2134 0.984 . S
N2129 H2135 0.985 . S
C2130 C2124 1.379 . S
C2130 C2127 1.363 . S
C2130 N2128 1.356 . S
C2131 C2125 1.363 . S
C2131 C2126 1.379 . S
C2131 N2129 1.356 . S
N2132 C2124 1.356 . S
N2132 H2138 0.984 . S
N2132 H2139 0.984 . S
N2133 C2126 1.356 . S
N2133 H2136 0.984 . S
N2133 H2137 0.985 . S
H2134 N2129 0.984 . S
H2135 N2129 0.985 . S
H2136 N2133 0.984 . S
H2137 N2133 0.985 . S
H2138 N2132 0.984 . S
H2139 N2132 0.984 . S
H2140 N2128 0.984 . S
H2141 N2128 0.985 . S
C2142 C2143 1.363 . S
C2142 C2148 1.379 . S
C2142 N2150 1.356 . S
C2143 C2142 1.363 . S
C2143 C2149 1.363 . S
C2144 C2145 1.363 . S
C2144 C2149 1.379 . S
C2144 N2151 1.356 . S
C2145 C2144 1.363 . S
C2145 C2148 1.363 . S
N2146 C2148 1.356 . S
N2146 H2158 0.984 . S
N2146 H2159 0.985 . S
N2147 C2149 1.356 . S
N2147 H2152 0.984 . S
N2147 H2153 0.985 . S
C2148 C2142 1.379 . S
C2148 C2145 1.363 . S
C2148 N2146 1.356 . S
C2149 C2143 1.363 . S
C2149 C2144 1.379 . S
C2149 N2147 1.356 . S
N2150 C2142 1.356 . S
N2150 H2156 0.984 . S
N2150 H2157 0.984 . S
N2151 C2144 1.356 . S
N2151 H2154 0.984 . S
N2151 H2155 0.985 . S
H2152 N2147 0.984 . S
H2153 N2147 0.985 . S
H2154 N2151 0.984 . S
H2155 N2151 0.985 . S
H2156 N2150 0.984 . S
H2157 N2150 0.984 . S
H2158 N2146 0.984 . S
H2159 N2146 0.985 . S
C2160 C2161 1.363 . S
C2160 C2166 1.379 . S
C2160 N2168 1.356 . S
C2161 C2160 1.363 . S
C2161 C2167 1.363 . S
C2162 C2163 1.363 . S
C2162 C2167 1.379 . S
C2162 N2169 1.356 . S
C2163 C2162 1.363 . S
C2163 C2166 1.363 . S
N2164 C2166 1.356 . S
N2164 H2176 0.984 . S
N2164 H2177 0.985 . S
N2165 C2167 1.356 . S
N2165 H2170 0.984 . S
N2165 H2171 0.985 . S
C2166 C2160 1.379 . S
C2166 C2163 1.363 . S
C2166 N2164 1.356 . S
C2167 C2161 1.363 . S
C2167 C2162 1.379 . S
C2167 N2165 1.356 . S
N2168 C2160 1.356 . S
N2168 H2174 0.984 . S
N2168 H2175 0.984 . S
N2169 C2162 1.356 . S
N2169 H2172 0.984 . S
N2169 H2173 0.985 . S
H2170 N2165 0.984 . S
H2171 N2165 0.985 . S
H2172 N2169 0.984 . S
H2173 N2169 0.985 . S
H2174 N2168 0.984 . S
H2175 N2168 0.984 . S
H2176 N2164 0.984 . S
H2177 N2164 0.985 . S
C2178 C2179 1.363 . S
C2178 C2184 1.379 . S
C2178 N2186 1.356 . S
C2179 C2178 1.363 . S
C2179 C2185 1.363 . S
C2180 C2181 1.363 . S
C2180 C2185 1.379 . S
C2180 N2187 1.356 . S
C2181 C2180 1.363 . S
C2181 C2184 1.363 . S
N2182 C2184 1.356 . S
N2182 H2194 0.984 . S
N2182 H2195 0.985 . S
N2183 C2185 1.356 . S
N2183 H2188 0.984 . S
N2183 H2189 0.985 . S
C2184 C2178 1.379 . S
C2184 C2181 1.363 . S
C2184 N2182 1.356 . S
C2185 C2179 1.363 . S
C2185 C2180 1.379 . S
C2185 N2183 1.356 . S
N2186 C2178 1.356 . S
N2186 H2192 0.984 . S
N2186 H2193 0.984 . S
N2187 C2180 1.356 . S
N2187 H2190 0.984 . S
N2187 H2191 0.985 . S
H2188 N2183 0.984 . S
H2189 N2183 0.985 . S
H2190 N2187 0.984 . S
H2191 N2187 0.985 . S
H2192 N2186 0.984 . S
H2193 N2186 0.984 . S
H2194 N2182 0.984 . S
H2195 N2182 0.985 . S
C2196 C2197 1.363 . S
C2196 C2202 1.379 . S
C2196 N2204 1.356 . S
C2197 C2196 1.363 . S
C2197 C2203 1.363 . S
C2198 C2199 1.363 . S
C2198 C2203 1.379 . S
C2198 N2205 1.356 . S
C2199 C2198 1.363 . S
C2199 C2202 1.363 . S
N2200 C2202 1.356 . S
N2200 H2212 0.984 . S
N2200 H2213 0.985 . S
N2201 C2203 1.356 . S
N2201 H2206 0.984 . S
N2201 H2207 0.985 . S
C2202 C2196 1.379 . S
C2202 C2199 1.363 . S
C2202 N2200 1.356 . S
C2203 C2197 1.363 . S
C2203 C2198 1.379 . S
C2203 N2201 1.356 . S
N2204 C2196 1.356 . S
N2204 H2210 0.984 . S
N2204 H2211 0.984 . S
N2205 C2198 1.356 . S
N2205 H2208 0.984 . S
N2205 H2209 0.985 . S
H2206 N2201 0.984 . S
H2207 N2201 0.985 . S
H2208 N2205 0.984 . S
H2209 N2205 0.985 . S
H2210 N2204 0.984 . S
H2211 N2204 0.984 . S
H2212 N2200 0.984 . S
H2213 N2200 0.985 . S
C2214 C2215 1.363 . S
C2214 C2220 1.379 . S
C2214 N2222 1.356 . S
C2215 C2214 1.363 . S
C2215 C2221 1.363 . S
C2216 C2217 1.363 . S
C2216 C2221 1.379 . S
C2216 N2223 1.356 . S
C2217 C2216 1.363 . S
C2217 C2220 1.363 . S
N2218 C2220 1.356 . S
N2218 H2230 0.984 . S
N2218 H2231 0.985 . S
N2219 C2221 1.356 . S
N2219 H2224 0.984 . S
N2219 H2225 0.985 . S
C2220 C2214 1.379 . S
C2220 C2217 1.363 . S
C2220 N2218 1.356 . S
C2221 C2215 1.363 . S
C2221 C2216 1.379 . S
C2221 N2219 1.356 . S
N2222 C2214 1.356 . S
N2222 H2228 0.984 . S
N2222 H2229 0.984 . S
N2223 C2216 1.356 . S
N2223 H2226 0.984 . S
N2223 H2227 0.985 . S
H2224 N2219 0.984 . S
H2225 N2219 0.985 . S
H2226 N2223 0.984 . S
H2227 N2223 0.985 . S
H2228 N2222 0.984 . S
H2229 N2222 0.984 . S
H2230 N2218 0.984 . S
H2231 N2218 0.985 . S
C2232 C2233 1.363 . S
C2232 C2238 1.379 . S
C2232 N2240 1.356 . S
C2233 C2232 1.363 . S
C2233 C2239 1.363 . S
C2234 C2235 1.363 . S
C2234 C2239 1.379 . S
C2234 N2241 1.356 . S
C2235 C2234 1.363 . S
C2235 C2238 1.363 . S
N2236 C2238 1.356 . S
N2236 H2248 0.984 . S
N2236 H2249 0.985 . S
N2237 C2239 1.356 . S
N2237 H2242 0.984 . S
N2237 H2243 0.985 . S
C2238 C2232 1.379 . S
C2238 C2235 1.363 . S
C2238 N2236 1.356 . S
C2239 C2233 1.363 . S
C2239 C2234 1.379 . S
C2239 N2237 1.356 . S
N2240 C2232 1.356 . S
N2240 H2246 0.984 . S
N2240 H2247 0.984 . S
N2241 C2234 1.356 . S
N2241 H2244 0.984 . S
N2241 H2245 0.985 . S
H2242 N2237 0.984 . S
H2243 N2237 0.985 . S
H2244 N2241 0.984 . S
H2245 N2241 0.985 . S
H2246 N2240 0.984 . S
H2247 N2240 0.984 . S
H2248 N2236 0.984 . S
H2249 N2236 0.985 . S
C2250 C2251 1.363 . S
C2250 C2256 1.379 . S
C2250 N2258 1.356 . S
C2251 C2250 1.363 . S
C2251 C2257 1.363 . S
C2252 C2253 1.363 . S
C2252 C2257 1.379 . S
C2252 N2259 1.356 . S
C2253 C2252 1.363 . S
C2253 C2256 1.363 . S
N2254 C2256 1.356 . S
N2254 H2266 0.984 . S
N2254 H2267 0.985 . S
N2255 C2257 1.356 . S
N2255 H2260 0.984 . S
N2255 H2261 0.985 . S
C2256 C2250 1.379 . S
C2256 C2253 1.363 . S
C2256 N2254 1.356 . S
C2257 C2251 1.363 . S
C2257 C2252 1.379 . S
C2257 N2255 1.356 . S
N2258 C2250 1.356 . S
N2258 H2264 0.984 . S
N2258 H2265 0.984 . S
N2259 C2252 1.356 . S
N2259 H2262 0.984 . S
N2259 H2263 0.985 . S
H2260 N2255 0.984 . S
H2261 N2255 0.985 . S
H2262 N2259 0.984 . S
H2263 N2259 0.985 . S
H2264 N2258 0.984 . S
H2265 N2258 0.984 . S
H2266 N2254 0.984 . S
H2267 N2254 0.985 . S
C2268 C2269 1.363 . S
C2268 C2274 1.379 . S
C2268 N2276 1.356 . S
C2269 C2268 1.363 . S
C2269 C2275 1.363 . S
C2270 C2271 1.363 . S
C2270 C2275 1.379 . S
C2270 N2277 1.356 . S
C2271 C2270 1.363 . S
C2271 C2274 1.363 . S
N2272 C2274 1.356 . S
N2272 H2284 0.984 . S
N2272 H2285 0.985 . S
N2273 C2275 1.356 . S
N2273 H2278 0.984 . S
N2273 H2279 0.985 . S
C2274 C2268 1.379 . S
C2274 C2271 1.363 . S
C2274 N2272 1.356 . S
C2275 C2269 1.363 . S
C2275 C2270 1.379 . S
C2275 N2273 1.356 . S
N2276 C2268 1.356 . S
N2276 H2282 0.984 . S
N2276 H2283 0.984 . S
N2277 C2270 1.356 . S
N2277 H2280 0.984 . S
N2277 H2281 0.985 . S
H2278 N2273 0.984 . S
H2279 N2273 0.985 . S
H2280 N2277 0.984 . S
H2281 N2277 0.985 . S
H2282 N2276 0.984 . S
H2283 N2276 0.984 . S
H2284 N2272 0.984 . S
H2285 N2272 0.985 . S
C2286 C2287 1.363 . S
C2286 C2292 1.379 . S
C2286 N2294 1.356 . S
C2287 C2286 1.363 . S
C2287 C2293 1.363 . S
C2288 C2289 1.363 . S
C2288 C2293 1.379 . S
C2288 N2295 1.356 . S
C2289 C2288 1.363 . S
C2289 C2292 1.363 . S
N2290 C2292 1.356 . S
N2290 H2302 0.984 . S
N2290 H2303 0.985 . S
N2291 C2293 1.356 . S
N2291 H2296 0.984 . S
N2291 H2297 0.985 . S
C2292 C2286 1.379 . S
C2292 C2289 1.363 . S
C2292 N2290 1.356 . S
C2293 C2287 1.363 . S
C2293 C2288 1.379 . S
C2293 N2291 1.356 . S
N2294 C2286 1.356 . S
N2294 H2300 0.984 . S
N2294 H2301 0.984 . S
N2295 C2288 1.356 . S
N2295 H2298 0.984 . S
N2295 H2299 0.985 . S
H2296 N2291 0.984 . S
H2297 N2291 0.985 . S
H2298 N2295 0.984 . S
H2299 N2295 0.985 . S
H2300 N2294 0.984 . S
H2301 N2294 0.984 . S
H2302 N2290 0.984 . S
H2303 N2290 0.985 . S
C2304 C2305 1.363 . S
C2304 C2310 1.379 . S
C2304 N2312 1.356 . S
C2305 C2304 1.363 . S
C2305 C2311 1.363 . S
C2306 C2307 1.363 . S
C2306 C2311 1.379 . S
C2306 N2313 1.356 . S
C2307 C2306 1.363 . S
C2307 C2310 1.363 . S
N2308 C2310 1.356 . S
N2308 H2320 0.984 . S
N2308 H2321 0.985 . S
N2309 C2311 1.356 . S
N2309 H2314 0.984 . S
N2309 H2315 0.985 . S
C2310 C2304 1.379 . S
C2310 C2307 1.363 . S
C2310 N2308 1.356 . S
C2311 C2305 1.363 . S
C2311 C2306 1.379 . S
C2311 N2309 1.356 . S
N2312 C2304 1.356 . S
N2312 H2318 0.984 . S
N2312 H2319 0.984 . S
N2313 C2306 1.356 . S
N2313 H2316 0.984 . S
N2313 H2317 0.985 . S
H2314 N2309 0.984 . S
H2315 N2309 0.985 . S
H2316 N2313 0.984 . S
H2317 N2313 0.985 . S
H2318 N2312 0.984 . S
H2319 N2312 0.984 . S
H2320 N2308 0.984 . S
H2321 N2308 0.985 . S
C2322 C2323 1.363 . S
C2322 C2328 1.379 . S
C2322 N2330 1.356 . S
C2323 C2322 1.363 . S
C2323 C2329 1.363 . S
C2324 C2325 1.363 . S
C2324 C2329 1.379 . S
C2324 N2331 1.356 . S
C2325 C2324 1.363 . S
C2325 C2328 1.363 . S
N2326 C2328 1.356 . S
N2326 H2338 0.984 . S
N2326 H2339 0.985 . S
N2327 C2329 1.356 . S
N2327 H2332 0.984 . S
N2327 H2333 0.985 . S
C2328 C2322 1.379 . S
C2328 C2325 1.363 . S
C2328 N2326 1.356 . S
C2329 C2323 1.363 . S
C2329 C2324 1.379 . S
C2329 N2327 1.356 . S
N2330 C2322 1.356 . S
N2330 H2336 0.984 . S
N2330 H2337 0.984 . S
N2331 C2324 1.356 . S
N2331 H2334 0.984 . S
N2331 H2335 0.985 . S
H2332 N2327 0.984 . S
H2333 N2327 0.985 . S
H2334 N2331 0.984 . S
H2335 N2331 0.985 . S
H2336 N2330 0.984 . S
H2337 N2330 0.984 . S
H2338 N2326 0.984 . S
H2339 N2326 0.985 . S
C2340 C2341 1.363 . S
C2340 C2346 1.379 . S
C2340 N2348 1.356 . S
C2341 C2340 1.363 . S
C2341 C2347 1.363 . S
C2342 C2343 1.363 . S
C2342 C2347 1.379 . S
C2342 N2349 1.356 . S
C2343 C2342 1.363 . S
C2343 C2346 1.363 . S
N2344 C2346 1.356 . S
N2344 H2356 0.984 . S
N2344 H2357 0.985 . S
N2345 C2347 1.356 . S
N2345 H2350 0.984 . S
N2345 H2351 0.985 . S
C2346 C2340 1.379 . S
C2346 C2343 1.363 . S
C2346 N2344 1.356 . S
C2347 C2341 1.363 . S
C2347 C2342 1.379 . S
C2347 N2345 1.356 . S
N2348 C2340 1.356 . S
N2348 H2354 0.984 . S
N2348 H2355 0.984 . S
N2349 C2342 1.356 . S
N2349 H2352 0.984 . S
N2349 H2353 0.985 . S
H2350 N2345 0.984 . S
H2351 N2345 0.985 . S
H2352 N2349 0.984 . S
H2353 N2349 0.985 . S
H2354 N2348 0.984 . S
H2355 N2348 0.984 . S
H2356 N2344 0.984 . S
H2357 N2344 0.985 . S
C2358 C2359 1.363 . S
C2358 C2364 1.379 . S
C2358 N2366 1.356 . S
C2359 C2358 1.363 . S
C2359 C2365 1.363 . S
C2360 C2361 1.363 . S
C2360 C2365 1.379 . S
C2360 N2367 1.356 . S
C2361 C2360 1.363 . S
C2361 C2364 1.363 . S
N2362 C2364 1.356 . S
N2362 H2374 0.984 . S
N2362 H2375 0.985 . S
N2363 C2365 1.356 . S
N2363 H2368 0.984 . S
N2363 H2369 0.985 . S
C2364 C2358 1.379 . S
C2364 C2361 1.363 . S
C2364 N2362 1.356 . S
C2365 C2359 1.363 . S
C2365 C2360 1.379 . S
C2365 N2363 1.356 . S
N2366 C2358 1.356 . S
N2366 H2372 0.984 . S
N2366 H2373 0.984 . S
N2367 C2360 1.356 . S
N2367 H2370 0.984 . S
N2367 H2371 0.985 . S
H2368 N2363 0.984 . S
H2369 N2363 0.985 . S
H2370 N2367 0.984 . S
H2371 N2367 0.985 . S
H2372 N2366 0.984 . S
H2373 N2366 0.984 . S
H2374 N2362 0.984 . S
H2375 N2362 0.985 . S
C2376 C2377 1.363 . S
C2376 C2382 1.379 . S
C2376 N2384 1.356 . S
C2377 C2376 1.363 . S
C2377 C2383 1.363 . S
C2378 C2379 1.363 . S
C2378 C2383 1.379 . S
C2378 N2385 1.356 . S
C2379 C2378 1.363 . S
C2379 C2382 1.363 . S
N2380 C2382 1.356 . S
N2380 H2392 0.984 . S
N2380 H2393 0.985 . S
N2381 C2383 1.356 . S
N2381 H2386 0.984 . S
N2381 H2387 0.985 . S
C2382 C2376 1.379 . S
C2382 C2379 1.363 . S
C2382 N2380 1.356 . S
C2383 C2377 1.363 . S
C2383 C2378 1.379 . S
C2383 N2381 1.356 . S
N2384 C2376 1.356 . S
N2384 H2390 0.984 . S
N2384 H2391 0.984 . S
N2385 C2378 1.356 . S
N2385 H2388 0.984 . S
N2385 H2389 0.985 . S
H2386 N2381 0.984 . S
H2387 N2381 0.985 . S
H2388 N2385 0.984 . S
H2389 N2385 0.985 . S
H2390 N2384 0.984 . S
H2391 N2384 0.984 . S
H2392 N2380 0.984 . S
H2393 N2380 0.985 . S
C2394 C2395 1.363 . S
C2394 C2400 1.379 . S
C2394 N2402 1.356 . S
C2395 C2394 1.363 . S
C2395 C2401 1.363 . S
C2396 C2397 1.363 . S
C2396 C2401 1.379 . S
C2396 N2403 1.356 . S
C2397 C2396 1.363 . S
C2397 C2400 1.363 . S
N2398 C2400 1.356 . S
N2398 H2410 0.984 . S
N2398 H2411 0.985 . S
N2399 C2401 1.356 . S
N2399 H2404 0.984 . S
N2399 H2405 0.985 . S
C2400 C2394 1.379 . S
C2400 C2397 1.363 . S
C2400 N2398 1.356 . S
C2401 C2395 1.363 . S
C2401 C2396 1.379 . S
C2401 N2399 1.356 . S
N2402 C2394 1.356 . S
N2402 H2408 0.984 . S
N2402 H2409 0.984 . S
N2403 C2396 1.356 . S
N2403 H2406 0.984 . S
N2403 H2407 0.985 . S
H2404 N2399 0.984 . S
H2405 N2399 0.985 . S
H2406 N2403 0.984 . S
H2407 N2403 0.985 . S
H2408 N2402 0.984 . S
H2409 N2402 0.984 . S
H2410 N2398 0.984 . S
H2411 N2398 0.985 . S
C2412 C2413 1.363 . S
C2412 C2418 1.379 . S
C2412 N2420 1.356 . S
C2413 C2412 1.363 . S
C2413 C2419 1.363 . S
C2414 C2415 1.363 . S
C2414 C2419 1.379 . S
C2414 N2421 1.356 . S
C2415 C2414 1.363 . S
C2415 C2418 1.363 . S
N2416 C2418 1.356 . S
N2416 H2428 0.984 . S
N2416 H2429 0.985 . S
N2417 C2419 1.356 . S
N2417 H2422 0.984 . S
N2417 H2423 0.985 . S
C2418 C2412 1.379 . S
C2418 C2415 1.363 . S
C2418 N2416 1.356 . S
C2419 C2413 1.363 . S
C2419 C2414 1.379 . S
C2419 N2417 1.356 . S
N2420 C2412 1.356 . S
N2420 H2426 0.984 . S
N2420 H2427 0.984 . S
N2421 C2414 1.356 . S
N2421 H2424 0.984 . S
N2421 H2425 0.985 . S
H2422 N2417 0.984 . S
H2423 N2417 0.985 . S
H2424 N2421 0.984 . S
H2425 N2421 0.985 . S
H2426 N2420 0.984 . S
H2427 N2420 0.984 . S
H2428 N2416 0.984 . S
H2429 N2416 0.985 . S
C2430 C2431 1.363 . S
C2430 C2436 1.379 . S
C2430 N2438 1.356 . S
C2431 C2430 1.363 . S
C2431 C2437 1.363 . S
C2432 C2433 1.363 . S
C2432 C2437 1.379 . S
C2432 N2439 1.356 . S
C2433 C2432 1.363 . S
C2433 C2436 1.363 . S
N2434 C2436 1.356 . S
N2434 H2446 0.984 . S
N2434 H2447 0.985 . S
N2435 C2437 1.356 . S
N2435 H2440 0.984 . S
N2435 H2441 0.985 . S
C2436 C2430 1.379 . S
C2436 C2433 1.363 . S
C2436 N2434 1.356 . S
C2437 C2431 1.363 . S
C2437 C2432 1.379 . S
C2437 N2435 1.356 . S
N2438 C2430 1.356 . S
N2438 H2444 0.984 . S
N2438 H2445 0.984 . S
N2439 C2432 1.356 . S
N2439 H2442 0.984 . S
N2439 H2443 0.985 . S
H2440 N2435 0.984 . S
H2441 N2435 0.985 . S
H2442 N2439 0.984 . S
H2443 N2439 0.985 . S
H2444 N2438 0.984 . S
H2445 N2438 0.984 . S
H2446 N2434 0.984 . S
H2447 N2434 0.985 . S
C2448 C2449 1.363 . S
C2448 C2454 1.379 . S
C2448 N2456 1.356 . S
C2449 C2448 1.363 . S
C2449 C2455 1.363 . S
C2450 C2451 1.363 . S
C2450 C2455 1.379 . S
C2450 N2457 1.356 . S
C2451 C2450 1.363 . S
C2451 C2454 1.363 . S
N2452 C2454 1.356 . S
N2452 H2464 0.984 . S
N2452 H2465 0.985 . S
N2453 C2455 1.356 . S
N2453 H2458 0.984 . S
N2453 H2459 0.985 . S
C2454 C2448 1.379 . S
C2454 C2451 1.363 . S
C2454 N2452 1.356 . S
C2455 C2449 1.363 . S
C2455 C2450 1.379 . S
C2455 N2453 1.356 . S
N2456 C2448 1.356 . S
N2456 H2462 0.984 . S
N2456 H2463 0.984 . S
N2457 C2450 1.356 . S
N2457 H2460 0.984 . S
N2457 H2461 0.985 . S
H2458 N2453 0.984 . S
H2459 N2453 0.985 . S
H2460 N2457 0.984 . S
H2461 N2457 0.985 . S
H2462 N2456 0.984 . S
H2463 N2456 0.984 . S
H2464 N2452 0.984 . S
H2465 N2452 0.985 . S
C2466 C2467 1.363 . S
C2466 C2472 1.379 . S
C2466 N2474 1.356 . S
C2467 C2466 1.363 . S
C2467 C2473 1.363 . S
C2468 C2469 1.363 . S
C2468 C2473 1.379 . S
C2468 N2475 1.356 . S
C2469 C2468 1.363 . S
C2469 C2472 1.363 . S
N2470 C2472 1.356 . S
N2470 H2482 0.984 . S
N2470 H2483 0.985 . S
N2471 C2473 1.356 . S
N2471 H2476 0.984 . S
N2471 H2477 0.985 . S
C2472 C2466 1.379 . S
C2472 C2469 1.363 . S
C2472 N2470 1.356 . S
C2473 C2467 1.363 . S
C2473 C2468 1.379 . S
C2473 N2471 1.356 . S
N2474 C2466 1.356 . S
N2474 H2480 0.984 . S
N2474 H2481 0.984 . S
N2475 C2468 1.356 . S
N2475 H2478 0.984 . S
N2475 H2479 0.985 . S
H2476 N2471 0.984 . S
H2477 N2471 0.985 . S
H2478 N2475 0.984 . S
H2479 N2475 0.985 . S
H2480 N2474 0.984 . S
H2481 N2474 0.984 . S
H2482 N2470 0.984 . S
H2483 N2470 0.985 . S
C2484 C2485 1.363 . S
C2484 C2490 1.379 . S
C2484 N2492 1.356 . S
C2485 C2484 1.363 . S
C2485 C2491 1.363 . S
C2486 C2487 1.363 . S
C2486 C2491 1.379 . S
C2486 N2493 1.356 . S
C2487 C2486 1.363 . S
C2487 C2490 1.363 . S
N2488 C2490 1.356 . S
N2488 H2500 0.984 . S
N2488 H2501 0.985 . S
N2489 C2491 1.356 . S
N2489 H2494 0.984 . S
N2489 H2495 0.985 . S
C2490 C2484 1.379 . S
C2490 C2487 1.363 . S
C2490 N2488 1.356 . S
C2491 C2485 1.363 . S
C2491 C2486 1.379 . S
C2491 N2489 1.356 . S
N2492 C2484 1.356 . S
N2492 H2498 0.984 . S
N2492 H2499 0.984 . S
N2493 C2486 1.356 . S
N2493 H2496 0.984 . S
N2493 H2497 0.985 . S
H2494 N2489 0.984 . S
H2495 N2489 0.985 . S
H2496 N2493 0.984 . S
H2497 N2493 0.985 . S
H2498 N2492 0.984 . S
H2499 N2492 0.984 . S
H2500 N2488 0.984 . S
H2501 N2488 0.985 . S
C2502 C2503 1.363 . S
C2502 C2508 1.379 . S
C2502 N2510 1.356 . S
C2503 C2502 1.363 . S
C2503 C2509 1.363 . S
C2504 C2505 1.363 . S
C2504 C2509 1.379 . S
C2504 N2511 1.356 . S
C2505 C2504 1.363 . S
C2505 C2508 1.363 . S
N2506 C2508 1.356 . S
N2506 H2518 0.984 . S
N2506 H2519 0.985 . S
N2507 C2509 1.356 . S
N2507 H2512 0.984 . S
N2507 H2513 0.985 . S
C2508 C2502 1.379 . S
C2508 C2505 1.363 . S
C2508 N2506 1.356 . S
C2509 C2503 1.363 . S
C2509 C2504 1.379 . S
C2509 N2507 1.356 . S
N2510 C2502 1.356 . S
N2510 H2516 0.984 . S
N2510 H2517 0.984 . S
N2511 C2504 1.356 . S
N2511 H2514 0.984 . S
N2511 H2515 0.985 . S
H2512 N2507 0.984 . S
H2513 N2507 0.985 . S
H2514 N2511 0.984 . S
H2515 N2511 0.985 . S
H2516 N2510 0.984 . S
H2517 N2510 0.984 . S
H2518 N2506 0.984 . S
H2519 N2506 0.985 . S
C2520 C2521 1.363 . S
C2520 C2526 1.379 . S
C2520 N2528 1.356 . S
C2521 C2520 1.363 . S
C2521 C2527 1.363 . S
C2522 C2523 1.363 . S
C2522 C2527 1.379 . S
C2522 N2529 1.356 . S
C2523 C2522 1.363 . S
C2523 C2526 1.363 . S
N2524 C2526 1.356 . S
N2524 H2536 0.984 . S
N2524 H2537 0.985 . S
N2525 C2527 1.356 . S
N2525 H2530 0.984 . S
N2525 H2531 0.985 . S
C2526 C2520 1.379 . S
C2526 C2523 1.363 . S
C2526 N2524 1.356 . S
C2527 C2521 1.363 . S
C2527 C2522 1.379 . S
C2527 N2525 1.356 . S
N2528 C2520 1.356 . S
N2528 H2534 0.984 . S
N2528 H2535 0.984 . S
N2529 C2522 1.356 . S
N2529 H2532 0.984 . S
N2529 H2533 0.985 . S
H2530 N2525 0.984 . S
H2531 N2525 0.985 . S
H2532 N2529 0.984 . S
H2533 N2529 0.985 . S
H2534 N2528 0.984 . S
H2535 N2528 0.984 . S
H2536 N2524 0.984 . S
H2537 N2524 0.985 . S
C2538 C2539 1.363 . S
C2538 C2544 1.379 . S
C2538 N2546 1.356 . S
C2539 C2538 1.363 . S
C2539 C2545 1.363 . S
C2540 C2541 1.363 . S
C2540 C2545 1.379 . S
C2540 N2547 1.356 . S
C2541 C2540 1.363 . S
C2541 C2544 1.363 . S
N2542 C2544 1.356 . S
N2542 H2554 0.984 . S
N2542 H2555 0.985 . S
N2543 C2545 1.356 . S
N2543 H2548 0.984 . S
N2543 H2549 0.985 . S
C2544 C2538 1.379 . S
C2544 C2541 1.363 . S
C2544 N2542 1.356 . S
C2545 C2539 1.363 . S
C2545 C2540 1.379 . S
C2545 N2543 1.356 . S
N2546 C2538 1.356 . S
N2546 H2552 0.984 . S
N2546 H2553 0.984 . S
N2547 C2540 1.356 . S
N2547 H2550 0.984 . S
N2547 H2551 0.985 . S
H2548 N2543 0.984 . S
H2549 N2543 0.985 . S
H2550 N2547 0.984 . S
H2551 N2547 0.985 . S
H2552 N2546 0.984 . S
H2553 N2546 0.984 . S
H2554 N2542 0.984 . S
H2555 N2542 0.985 . S
C2556 C2557 1.363 . S
C2556 C2562 1.379 . S
C2556 N2564 1.356 . S
C2557 C2556 1.363 . S
C2557 C2563 1.363 . S
C2558 C2559 1.363 . S
C2558 C2563 1.379 . S
C2558 N2565 1.356 . S
C2559 C2558 1.363 . S
C2559 C2562 1.363 . S
N2560 C2562 1.356 . S
N2560 H2572 0.984 . S
N2560 H2573 0.985 . S
N2561 C2563 1.356 . S
N2561 H2566 0.984 . S
N2561 H2567 0.985 . S
C2562 C2556 1.379 . S
C2562 C2559 1.363 . S
C2562 N2560 1.356 . S
C2563 C2557 1.363 . S
C2563 C2558 1.379 . S
C2563 N2561 1.356 . S
N2564 C2556 1.356 . S
N2564 H2570 0.984 . S
N2564 H2571 0.984 . S
N2565 C2558 1.356 . S
N2565 H2568 0.984 . S
N2565 H2569 0.985 . S
H2566 N2561 0.984 . S
H2567 N2561 0.985 . S
H2568 N2565 0.984 . S
H2569 N2565 0.985 . S
H2570 N2564 0.984 . S
H2571 N2564 0.984 . S
H2572 N2560 0.984 . S
H2573 N2560 0.985 . S
C2574 C2575 1.363 . S
C2574 C2580 1.379 . S
C2574 N2582 1.356 . S
C2575 C2574 1.363 . S
C2575 C2581 1.363 . S
C2576 C2577 1.363 . S
C2576 C2581 1.379 . S
C2576 N2583 1.356 . S
C2577 C2576 1.363 . S
C2577 C2580 1.363 . S
N2578 C2580 1.356 . S
N2578 H2590 0.984 . S
N2578 H2591 0.985 . S
N2579 C2581 1.356 . S
N2579 H2584 0.984 . S
N2579 H2585 0.985 . S
C2580 C2574 1.379 . S
C2580 C2577 1.363 . S
C2580 N2578 1.356 . S
C2581 C2575 1.363 . S
C2581 C2576 1.379 . S
C2581 N2579 1.356 . S
N2582 C2574 1.356 . S
N2582 H2588 0.984 . S
N2582 H2589 0.984 . S
N2583 C2576 1.356 . S
N2583 H2586 0.984 . S
N2583 H2587 0.985 . S
H2584 N2579 0.984 . S
H2585 N2579 0.985 . S
H2586 N2583 0.984 . S
H2587 N2583 0.985 . S
H2588 N2582 0.984 . S
H2589 N2582 0.984 . S
H2590 N2578 0.984 . S
H2591 N2578 0.985 . S
C2592 C2593 1.363 . S
C2592 C2598 1.379 . S
C2592 N2600 1.356 . S
C2593 C2592 1.363 . S
C2593 C2599 1.363 . S
C2594 C2595 1.363 . S
C2594 C2599 1.379 . S
C2594 N2601 1.356 . S
C2595 C2594 1.363 . S
C2595 C2598 1.363 . S
N2596 C2598 1.356 . S
N2596 H2608 0.984 . S
N2596 H2609 0.985 . S
N2597 C2599 1.356 . S
N2597 H2602 0.984 . S
N2597 H2603 0.985 . S
C2598 C2592 1.379 . S
C2598 C2595 1.363 . S
C2598 N2596 1.356 . S
C2599 C2593 1.363 . S
C2599 C2594 1.379 . S
C2599 N2597 1.356 . S
N2600 C2592 1.356 . S
N2600 H2606 0.984 . S
N2600 H2607 0.984 . S
N2601 C2594 1.356 . S
N2601 H2604 0.984 . S
N2601 H2605 0.985 . S
H2602 N2597 0.984 . S
H2603 N2597 0.985 . S
H2604 N2601 0.984 . S
H2605 N2601 0.985 . S
H2606 N2600 0.984 . S
H2607 N2600 0.984 . S
H2608 N2596 0.984 . S
H2609 N2596 0.985 . S
C2610 C2611 1.363 . S
C2610 C2616 1.379 . S
C2610 N2618 1.356 . S
C2611 C2610 1.363 . S
C2611 C2617 1.363 . S
C2612 C2613 1.363 . S
C2612 C2617 1.379 . S
C2612 N2619 1.356 . S
C2613 C2612 1.363 . S
C2613 C2616 1.363 . S
N2614 C2616 1.356 . S
N2614 H2626 0.984 . S
N2614 H2627 0.985 . S
N2615 C2617 1.356 . S
N2615 H2620 0.984 . S
N2615 H2621 0.985 . S
C2616 C2610 1.379 . S
C2616 C2613 1.363 . S
C2616 N2614 1.356 . S
C2617 C2611 1.363 . S
C2617 C2612 1.379 . S
C2617 N2615 1.356 . S
N2618 C2610 1.356 . S
N2618 H2624 0.984 . S
N2618 H2625 0.984 . S
N2619 C2612 1.356 . S
N2619 H2622 0.984 . S
N2619 H2623 0.985 . S
H2620 N2615 0.984 . S
H2621 N2615 0.985 . S
H2622 N2619 0.984 . S
H2623 N2619 0.985 . S
H2624 N2618 0.984 . S
H2625 N2618 0.984 . S
H2626 N2614 0.984 . S
H2627 N2614 0.985 . S
C2628 C2629 1.363 . S
C2628 C2634 1.379 . S
C2628 N2636 1.356 . S
C2629 C2628 1.363 . S
C2629 C2635 1.363 . S
C2630 C2631 1.363 . S
C2630 C2635 1.379 . S
C2630 N2637 1.356 . S
C2631 C2630 1.363 . S
C2631 C2634 1.363 . S
N2632 C2634 1.356 . S
N2632 H2644 0.984 . S
N2632 H2645 0.985 . S
N2633 C2635 1.356 . S
N2633 H2638 0.984 . S
N2633 H2639 0.985 . S
C2634 C2628 1.379 . S
C2634 C2631 1.363 . S
C2634 N2632 1.356 . S
C2635 C2629 1.363 . S
C2635 C2630 1.379 . S
C2635 N2633 1.356 . S
N2636 C2628 1.356 . S
N2636 H2642 0.984 . S
N2636 H2643 0.984 . S
N2637 C2630 1.356 . S
N2637 H2640 0.984 . S
N2637 H2641 0.985 . S
H2638 N2633 0.984 . S
H2639 N2633 0.985 . S
H2640 N2637 0.984 . S
H2641 N2637 0.985 . S
H2642 N2636 0.984 . S
H2643 N2636 0.984 . S
H2644 N2632 0.984 . S
H2645 N2632 0.985 . S
C2646 C2647 1.363 . S
C2646 C2652 1.379 . S
C2646 N2654 1.356 . S
C2647 C2646 1.363 . S
C2647 C2653 1.363 . S
C2648 C2649 1.363 . S
C2648 C2653 1.379 . S
C2648 N2655 1.356 . S
C2649 C2648 1.363 . S
C2649 C2652 1.363 . S
N2650 C2652 1.356 . S
N2650 H2662 0.984 . S
N2650 H2663 0.985 . S
N2651 C2653 1.356 . S
N2651 H2656 0.984 . S
N2651 H2657 0.985 . S
C2652 C2646 1.379 . S
C2652 C2649 1.363 . S
C2652 N2650 1.356 . S
C2653 C2647 1.363 . S
C2653 C2648 1.379 . S
C2653 N2651 1.356 . S
N2654 C2646 1.356 . S
N2654 H2660 0.984 . S
N2654 H2661 0.984 . S
N2655 C2648 1.356 . S
N2655 H2658 0.984 . S
N2655 H2659 0.985 . S
H2656 N2651 0.984 . S
H2657 N2651 0.985 . S
H2658 N2655 0.984 . S
H2659 N2655 0.985 . S
H2660 N2654 0.984 . S
H2661 N2654 0.984 . S
H2662 N2650 0.984 . S
H2663 N2650 0.985 . S
C2664 C2665 1.363 . S
C2664 C2670 1.379 . S
C2664 N2672 1.356 . S
C2665 C2664 1.363 . S
C2665 C2671 1.363 . S
C2666 C2667 1.363 . S
C2666 C2671 1.379 . S
C2666 N2673 1.356 . S
C2667 C2666 1.363 . S
C2667 C2670 1.363 . S
N2668 C2670 1.356 . S
N2668 H2680 0.984 . S
N2668 H2681 0.985 . S
N2669 C2671 1.356 . S
N2669 H2674 0.984 . S
N2669 H2675 0.985 . S
C2670 C2664 1.379 . S
C2670 C2667 1.363 . S
C2670 N2668 1.356 . S
C2671 C2665 1.363 . S
C2671 C2666 1.379 . S
C2671 N2669 1.356 . S
N2672 C2664 1.356 . S
N2672 H2678 0.984 . S
N2672 H2679 0.984 . S
N2673 C2666 1.356 . S
N2673 H2676 0.984 . S
N2673 H2677 0.985 . S
H2674 N2669 0.984 . S
H2675 N2669 0.985 . S
H2676 N2673 0.984 . S
H2677 N2673 0.985 . S
H2678 N2672 0.984 . S
H2679 N2672 0.984 . S
H2680 N2668 0.984 . S
H2681 N2668 0.985 . S
C2682 C2683 1.363 . S
C2682 C2688 1.379 . S
C2682 N2690 1.356 . S
C2683 C2682 1.363 . S
C2683 C2689 1.363 . S
C2684 C2685 1.363 . S
C2684 C2689 1.379 . S
C2684 N2691 1.356 . S
C2685 C2684 1.363 . S
C2685 C2688 1.363 . S
N2686 C2688 1.356 . S
N2686 H2698 0.984 . S
N2686 H2699 0.985 . S
N2687 C2689 1.356 . S
N2687 H2692 0.984 . S
N2687 H2693 0.985 . S
C2688 C2682 1.379 . S
C2688 C2685 1.363 . S
C2688 N2686 1.356 . S
C2689 C2683 1.363 . S
C2689 C2684 1.379 . S
C2689 N2687 1.356 . S
N2690 C2682 1.356 . S
N2690 H2696 0.984 . S
N2690 H2697 0.984 . S
N2691 C2684 1.356 . S
N2691 H2694 0.984 . S
N2691 H2695 0.985 . S
H2692 N2687 0.984 . S
H2693 N2687 0.985 . S
H2694 N2691 0.984 . S
H2695 N2691 0.985 . S
H2696 N2690 0.984 . S
H2697 N2690 0.984 . S
H2698 N2686 0.984 . S
H2699 N2686 0.985 . S
C2700 C2701 1.363 . S
C2700 C2706 1.379 . S
C2700 N2708 1.356 . S
C2701 C2700 1.363 . S
C2701 C2707 1.363 . S
C2702 C2703 1.363 . S
C2702 C2707 1.379 . S
C2702 N2709 1.356 . S
C2703 C2702 1.363 . S
C2703 C2706 1.363 . S
N2704 C2706 1.356 . S
N2704 H2716 0.984 . S
N2704 H2717 0.985 . S
N2705 C2707 1.356 . S
N2705 H2710 0.984 . S
N2705 H2711 0.985 . S
C2706 C2700 1.379 . S
C2706 C2703 1.363 . S
C2706 N2704 1.356 . S
C2707 C2701 1.363 . S
C2707 C2702 1.379 . S
C2707 N2705 1.356 . S
N2708 C2700 1.356 . S
N2708 H2714 0.984 . S
N2708 H2715 0.984 . S
N2709 C2702 1.356 . S
N2709 H2712 0.984 . S
N2709 H2713 0.985 . S
H2710 N2705 0.984 . S
H2711 N2705 0.985 . S
H2712 N2709 0.984 . S
H2713 N2709 0.985 . S
H2714 N2708 0.984 . S
H2715 N2708 0.984 . S
H2716 N2704 0.984 . S
H2717 N2704 0.985 . S
C2718 C2719 1.363 . S
C2718 C2724 1.379 . S
C2718 N2726 1.356 . S
C2719 C2718 1.363 . S
C2719 C2725 1.363 . S
C2720 C2721 1.363 . S
C2720 C2725 1.379 . S
C2720 N2727 1.356 . S
C2721 C2720 1.363 . S
C2721 C2724 1.363 . S
N2722 C2724 1.356 . S
N2722 H2734 0.984 . S
N2722 H2735 0.985 . S
N2723 C2725 1.356 . S
N2723 H2728 0.984 . S
N2723 H2729 0.985 . S
C2724 C2718 1.379 . S
C2724 C2721 1.363 . S
C2724 N2722 1.356 . S
C2725 C2719 1.363 . S
C2725 C2720 1.379 . S
C2725 N2723 1.356 . S
N2726 C2718 1.356 . S
N2726 H2732 0.984 . S
N2726 H2733 0.984 . S
N2727 C2720 1.356 . S
N2727 H2730 0.984 . S
N2727 H2731 0.985 . S
H2728 N2723 0.984 . S
H2729 N2723 0.985 . S
H2730 N2727 0.984 . S
H2731 N2727 0.985 . S
H2732 N2726 0.984 . S
H2733 N2726 0.984 . S
H2734 N2722 0.984 . S
H2735 N2722 0.985 . S
C2736 C2737 1.363 . S
C2736 C2742 1.379 . S
C2736 N2744 1.356 . S
C2737 C2736 1.363 . S
C2737 C2743 1.363 . S
C2738 C2739 1.363 . S
C2738 C2743 1.379 . S
C2738 N2745 1.356 . S
C2739 C2738 1.363 . S
C2739 C2742 1.363 . S
N2740 C2742 1.356 . S
N2740 H2752 0.984 . S
N2740 H2753 0.985 . S
N2741 C2743 1.356 . S
N2741 H2746 0.984 . S
N2741 H2747 0.985 . S
C2742 C2736 1.379 . S
C2742 C2739 1.363 . S
C2742 N2740 1.356 . S
C2743 C2737 1.363 . S
C2743 C2738 1.379 . S
C2743 N2741 1.356 . S
N2744 C2736 1.356 . S
N2744 H2750 0.984 . S
N2744 H2751 0.984 . S
N2745 C2738 1.356 . S
N2745 H2748 0.984 . S
N2745 H2749 0.985 . S
H2746 N2741 0.984 . S
H2747 N2741 0.985 . S
H2748 N2745 0.984 . S
H2749 N2745 0.985 . S
H2750 N2744 0.984 . S
H2751 N2744 0.984 . S
H2752 N2740 0.984 . S
H2753 N2740 0.985 . S
C2754 C2755 1.363 . S
C2754 C2760 1.379 . S
C2754 N2762 1.356 . S
C2755 C2754 1.363 . S
C2755 C2761 1.363 . S
C2756 C2757 1.363 . S
C2756 C2761 1.379 . S
C2756 N2763 1.356 . S
C2757 C2756 1.363 . S
C2757 C2760 1.363 . S
N2758 C2760 1.356 . S
N2758 H2770 0.984 . S
N2758 H2771 0.985 . S
N2759 C2761 1.356 . S
N2759 H2764 0.984 . S
N2759 H2765 0.985 . S
C2760 C2754 1.379 . S
C2760 C2757 1.363 . S
C2760 N2758 1.356 . S
C2761 C2755 1.363 . S
C2761 C2756 1.379 . S
C2761 N2759 1.356 . S
N2762 C2754 1.356 . S
N2762 H2768 0.984 . S
N2762 H2769 0.984 . S
N2763 C2756 1.356 . S
N2763 H2766 0.984 . S
N2763 H2767 0.985 . S
H2764 N2759 0.984 . S
H2765 N2759 0.985 . S
H2766 N2763 0.984 . S
H2767 N2763 0.985 . S
H2768 N2762 0.984 . S
H2769 N2762 0.984 . S
H2770 N2758 0.984 . S
H2771 N2758 0.985 . S
C2772 C2773 1.363 . S
C2772 C2778 1.379 . S
C2772 N2780 1.356 . S
C2773 C2772 1.363 . S
C2773 C2779 1.363 . S
C2774 C2775 1.363 . S
C2774 C2779 1.379 . S
C2774 N2781 1.356 . S
C2775 C2774 1.363 . S
C2775 C2778 1.363 . S
N2776 C2778 1.356 . S
N2776 H2788 0.984 . S
N2776 H2789 0.985 . S
N2777 C2779 1.356 . S
N2777 H2782 0.984 . S
N2777 H2783 0.985 . S
C2778 C2772 1.379 . S
C2778 C2775 1.363 . S
C2778 N2776 1.356 . S
C2779 C2773 1.363 . S
C2779 C2774 1.379 . S
C2779 N2777 1.356 . S
N2780 C2772 1.356 . S
N2780 H2786 0.984 . S
N2780 H2787 0.984 . S
N2781 C2774 1.356 . S
N2781 H2784 0.984 . S
N2781 H2785 0.985 . S
H2782 N2777 0.984 . S
H2783 N2777 0.985 . S
H2784 N2781 0.984 . S
H2785 N2781 0.985 . S
H2786 N2780 0.984 . S
H2787 N2780 0.984 . S
H2788 N2776 0.984 . S
H2789 N2776 0.985 . S
C2790 C2791 1.363 . S
C2790 C2796 1.379 . S
C2790 N2798 1.356 . S
C2791 C2790 1.363 . S
C2791 C2797 1.363 . S
C2792 C2793 1.363 . S
C2792 C2797 1.379 . S
C2792 N2799 1.356 . S
C2793 C2792 1.363 . S
C2793 C2796 1.363 . S
N2794 C2796 1.356 . S
N2794 H2806 0.984 . S
N2794 H2807 0.985 . S
N2795 C2797 1.356 . S
N2795 H2800 0.984 . S
N2795 H2801 0.985 . S
C2796 C2790 1.379 . S
C2796 C2793 1.363 . S
C2796 N2794 1.356 . S
C2797 C2791 1.363 . S
C2797 C2792 1.379 . S
C2797 N2795 1.356 . S
N2798 C2790 1.356 . S
N2798 H2804 0.984 . S
N2798 H2805 0.984 . S
N2799 C2792 1.356 . S
N2799 H2802 0.984 . S
N2799 H2803 0.985 . S
H2800 N2795 0.984 . S
H2801 N2795 0.985 . S
H2802 N2799 0.984 . S
H2803 N2799 0.985 . S
H2804 N2798 0.984 . S
H2805 N2798 0.984 . S
H2806 N2794 0.984 . S
H2807 N2794 0.985 . S
C2808 C2809 1.363 . S
C2808 C2814 1.379 . S
C2808 N2816 1.356 . S
C2809 C2808 1.363 . S
C2809 C2815 1.363 . S
C2810 C2811 1.363 . S
C2810 C2815 1.379 . S
C2810 N2817 1.356 . S
C2811 C2810 1.363 . S
C2811 C2814 1.363 . S
N2812 C2814 1.356 . S
N2812 H2824 0.984 . S
N2812 H2825 0.985 . S
N2813 C2815 1.356 . S
N2813 H2818 0.984 . S
N2813 H2819 0.985 . S
C2814 C2808 1.379 . S
C2814 C2811 1.363 . S
C2814 N2812 1.356 . S
C2815 C2809 1.363 . S
C2815 C2810 1.379 . S
C2815 N2813 1.356 . S
N2816 C2808 1.356 . S
N2816 H2822 0.984 . S
N2816 H2823 0.984 . S
N2817 C2810 1.356 . S
N2817 H2820 0.984 . S
N2817 H2821 0.985 . S
H2818 N2813 0.984 . S
H2819 N2813 0.985 . S
H2820 N2817 0.984 . S
H2821 N2817 0.985 . S
H2822 N2816 0.984 . S
H2823 N2816 0.984 . S
H2824 N2812 0.984 . S
H2825 N2812 0.985 . S
C2826 C2827 1.363 . S
C2826 C2832 1.379 . S
C2826 N2834 1.356 . S
C2827 C2826 1.363 . S
C2827 C2833 1.363 . S
C2828 C2829 1.363 . S
C2828 C2833 1.379 . S
C2828 N2835 1.356 . S
C2829 C2828 1.363 . S
C2829 C2832 1.363 . S
N2830 C2832 1.356 . S
N2830 H2842 0.984 . S
N2830 H2843 0.985 . S
N2831 C2833 1.356 . S
N2831 H2836 0.984 . S
N2831 H2837 0.985 . S
C2832 C2826 1.379 . S
C2832 C2829 1.363 . S
C2832 N2830 1.356 . S
C2833 C2827 1.363 . S
C2833 C2828 1.379 . S
C2833 N2831 1.356 . S
N2834 C2826 1.356 . S
N2834 H2840 0.984 . S
N2834 H2841 0.984 . S
N2835 C2828 1.356 . S
N2835 H2838 0.984 . S
N2835 H2839 0.985 . S
H2836 N2831 0.984 . S
H2837 N2831 0.985 . S
H2838 N2835 0.984 . S
H2839 N2835 0.985 . S
H2840 N2834 0.984 . S
H2841 N2834 0.984 . S
H2842 N2830 0.984 . S
H2843 N2830 0.985 . S
C2844 C2845 1.363 . S
C2844 C2850 1.379 . S
C2844 N2852 1.356 . S
C2845 C2844 1.363 . S
C2845 C2851 1.363 . S
C2846 C2847 1.363 . S
C2846 C2851 1.379 . S
C2846 N2853 1.356 . S
C2847 C2846 1.363 . S
C2847 C2850 1.363 . S
N2848 C2850 1.356 . S
N2848 H2860 0.984 . S
N2848 H2861 0.985 . S
N2849 C2851 1.356 . S
N2849 H2854 0.984 . S
N2849 H2855 0.985 . S
C2850 C2844 1.379 . S
C2850 C2847 1.363 . S
C2850 N2848 1.356 . S
C2851 C2845 1.363 . S
C2851 C2846 1.379 . S
C2851 N2849 1.356 . S
N2852 C2844 1.356 . S
N2852 H2858 0.984 . S
N2852 H2859 0.984 . S
N2853 C2846 1.356 . S
N2853 H2856 0.984 . S
N2853 H2857 0.985 . S
H2854 N2849 0.984 . S
H2855 N2849 0.985 . S
H2856 N2853 0.984 . S
H2857 N2853 0.985 . S
H2858 N2852 0.984 . S
H2859 N2852 0.984 . S
H2860 N2848 0.984 . S
H2861 N2848 0.985 . S
C2862 C2863 1.363 . S
C2862 C2868 1.379 . S
C2862 N2870 1.356 . S
C2863 C2862 1.363 . S
C2863 C2869 1.363 . S
C2864 C2865 1.363 . S
C2864 C2869 1.379 . S
C2864 N2871 1.356 . S
C2865 C2864 1.363 . S
C2865 C2868 1.363 . S
N2866 C2868 1.356 . S
N2866 H2878 0.984 . S
N2866 H2879 0.985 . S
N2867 C2869 1.356 . S
N2867 H2872 0.984 . S
N2867 H2873 0.985 . S
C2868 C2862 1.379 . S
C2868 C2865 1.363 . S
C2868 N2866 1.356 . S
C2869 C2863 1.363 . S
C2869 C2864 1.379 . S
C2869 N2867 1.356 . S
N2870 C2862 1.356 . S
N2870 H2876 0.984 . S
N2870 H2877 0.984 . S
N2871 C2864 1.356 . S
N2871 H2874 0.984 . S
N2871 H2875 0.985 . S
H2872 N2867 0.984 . S
H2873 N2867 0.985 . S
H2874 N2871 0.984 . S
H2875 N2871 0.985 . S
H2876 N2870 0.984 . S
H2877 N2870 0.984 . S
H2878 N2866 0.984 . S
H2879 N2866 0.985 . S
C2880 C2881 1.363 . S
C2880 C2886 1.379 . S
C2880 N2888 1.356 . S
C2881 C2880 1.363 . S
C2881 C2887 1.363 . S
C2882 C2883 1.363 . S
C2882 C2887 1.379 . S
C2882 N2889 1.356 . S
C2883 C2882 1.363 . S
C2883 C2886 1.363 . S
N2884 C2886 1.356 . S
N2884 H2896 0.984 . S
N2884 H2897 0.985 . S
N2885 C2887 1.356 . S
N2885 H2890 0.984 . S
N2885 H2891 0.985 . S
C2886 C2880 1.379 . S
C2886 C2883 1.363 . S
C2886 N2884 1.356 . S
C2887 C2881 1.363 . S
C2887 C2882 1.379 . S
C2887 N2885 1.356 . S
N2888 C2880 1.356 . S
N2888 H2894 0.984 . S
N2888 H2895 0.984 . S
N2889 C2882 1.356 . S
N2889 H2892 0.984 . S
N2889 H2893 0.985 . S
H2890 N2885 0.984 . S
H2891 N2885 0.985 . S
H2892 N2889 0.984 . S
H2893 N2889 0.985 . S
H2894 N2888 0.984 . S
H2895 N2888 0.984 . S
H2896 N2884 0.984 . S
H2897 N2884 0.985 . S
C2898 C2899 1.363 . S
C2898 C2904 1.379 . S
C2898 N2906 1.356 . S
C2899 C2898 1.363 . S
C2899 C2905 1.363 . S
C2900 C2901 1.363 . S
C2900 C2905 1.379 . S
C2900 N2907 1.356 . S
C2901 C2900 1.363 . S
C2901 C2904 1.363 . S
N2902 C2904 1.356 . S
N2902 H2914 0.984 . S
N2902 H2915 0.985 . S
N2903 C2905 1.356 . S
N2903 H2908 0.984 . S
N2903 H2909 0.985 . S
C2904 C2898 1.379 . S
C2904 C2901 1.363 . S
C2904 N2902 1.356 . S
C2905 C2899 1.363 . S
C2905 C2900 1.379 . S
C2905 N2903 1.356 . S
N2906 C2898 1.356 . S
N2906 H2912 0.984 . S
N2906 H2913 0.984 . S
N2907 C2900 1.356 . S
N2907 H2910 0.984 . S
N2907 H2911 0.985 . S
H2908 N2903 0.984 . S
H2909 N2903 0.985 . S
H2910 N2907 0.984 . S
H2911 N2907 0.985 . S
H2912 N2906 0.984 . S
H2913 N2906 0.984 . S
H2914 N2902 0.984 . S
H2915 N2902 0.985 . S
C2916 C2917 1.363 . S
C2916 C2922 1.379 . S
C2916 N2924 1.356 . S
C2917 C2916 1.363 . S
C2917 C2923 1.363 . S
C2918 C2919 1.363 . S
C2918 C2923 1.379 . S
C2918 N2925 1.356 . S
C2919 C2918 1.363 . S
C2919 C2922 1.363 . S
N2920 C2922 1.356 . S
N2920 H2932 0.984 . S
N2920 H2933 0.985 . S
N2921 C2923 1.356 . S
N2921 H2926 0.984 . S
N2921 H2927 0.985 . S
C2922 C2916 1.379 . S
C2922 C2919 1.363 . S
C2922 N2920 1.356 . S
C2923 C2917 1.363 . S
C2923 C2918 1.379 . S
C2923 N2921 1.356 . S
N2924 C2916 1.356 . S
N2924 H2930 0.984 . S
N2924 H2931 0.984 . S
N2925 C2918 1.356 . S
N2925 H2928 0.984 . S
N2925 H2929 0.985 . S
H2926 N2921 0.984 . S
H2927 N2921 0.985 . S
H2928 N2925 0.984 . S
H2929 N2925 0.985 . S
H2930 N2924 0.984 . S
H2931 N2924 0.984 . S
H2932 N2920 0.984 . S
H2933 N2920 0.985 . S
C2934 C2935 1.363 . S
C2934 C2940 1.379 . S
C2934 N2942 1.356 . S
C2935 C2934 1.363 . S
C2935 C2941 1.363 . S
C2936 C2937 1.363 . S
C2936 C2941 1.379 . S
C2936 N2943 1.356 . S
C2937 C2936 1.363 . S
C2937 C2940 1.363 . S
N2938 C2940 1.356 . S
N2938 H2950 0.984 . S
N2938 H2951 0.985 . S
N2939 C2941 1.356 . S
N2939 H2944 0.984 . S
N2939 H2945 0.985 . S
C2940 C2934 1.379 . S
C2940 C2937 1.363 . S
C2940 N2938 1.356 . S
C2941 C2935 1.363 . S
C2941 C2936 1.379 . S
C2941 N2939 1.356 . S
N2942 C2934 1.356 . S
N2942 H2948 0.984 . S
N2942 H2949 0.984 . S
N2943 C2936 1.356 . S
N2943 H2946 0.984 . S
N2943 H2947 0.985 . S
H2944 N2939 0.984 . S
H2945 N2939 0.985 . S
H2946 N2943 0.984 . S
H2947 N2943 0.985 . S
H2948 N2942 0.984 . S
H2949 N2942 0.984 . S
H2950 N2938 0.984 . S
H2951 N2938 0.985 . S
C2952 C2953 1.363 . S
C2952 C2958 1.379 . S
C2952 N2960 1.356 . S
C2953 C2952 1.363 . S
C2953 C2959 1.363 . S
C2954 C2955 1.363 . S
C2954 C2959 1.379 . S
C2954 N2961 1.356 . S
C2955 C2954 1.363 . S
C2955 C2958 1.363 . S
N2956 C2958 1.356 . S
N2956 H2968 0.984 . S
N2956 H2969 0.985 . S
N2957 C2959 1.356 . S
N2957 H2962 0.984 . S
N2957 H2963 0.985 . S
C2958 C2952 1.379 . S
C2958 C2955 1.363 . S
C2958 N2956 1.356 . S
C2959 C2953 1.363 . S
C2959 C2954 1.379 . S
C2959 N2957 1.356 . S
N2960 C2952 1.356 . S
N2960 H2966 0.984 . S
N2960 H2967 0.984 . S
N2961 C2954 1.356 . S
N2961 H2964 0.984 . S
N2961 H2965 0.985 . S
H2962 N2957 0.984 . S
H2963 N2957 0.985 . S
H2964 N2961 0.984 . S
H2965 N2961 0.985 . S
H2966 N2960 0.984 . S
H2967 N2960 0.984 . S
H2968 N2956 0.984 . S
H2969 N2956 0.985 . S
C2970 C2971 1.363 . S
C2970 C2976 1.379 . S
C2970 N2978 1.356 . S
C2971 C2970 1.363 . S
C2971 C2977 1.363 . S
C2972 C2973 1.363 . S
C2972 C2977 1.379 . S
C2972 N2979 1.356 . S
C2973 C2972 1.363 . S
C2973 C2976 1.363 . S
N2974 C2976 1.356 . S
N2974 H2986 0.984 . S
N2974 H2987 0.985 . S
N2975 C2977 1.356 . S
N2975 H2980 0.984 . S
N2975 H2981 0.985 . S
C2976 C2970 1.379 . S
C2976 C2973 1.363 . S
C2976 N2974 1.356 . S
C2977 C2971 1.363 . S
C2977 C2972 1.379 . S
C2977 N2975 1.356 . S
N2978 C2970 1.356 . S
N2978 H2984 0.984 . S
N2978 H2985 0.984 . S
N2979 C2972 1.356 . S
N2979 H2982 0.984 . S
N2979 H2983 0.985 . S
H2980 N2975 0.984 . S
H2981 N2975 0.985 . S
H2982 N2979 0.984 . S
H2983 N2979 0.985 . S
H2984 N2978 0.984 . S
H2985 N2978 0.984 . S
H2986 N2974 0.984 . S
H2987 N2974 0.985 . S
C2988 C2989 1.363 . S
C2988 C2994 1.379 . S
C2988 N2996 1.356 . S
C2989 C2988 1.363 . S
C2989 C2995 1.363 . S
C2990 C2991 1.363 . S
C2990 C2995 1.379 . S
C2990 N2997 1.356 . S
C2991 C2990 1.363 . S
C2991 C2994 1.363 . S
N2992 C2994 1.356 . S
N2992 H3004 0.984 . S
N2992 H3005 0.985 . S
N2993 C2995 1.356 . S
N2993 H2998 0.984 . S
N2993 H2999 0.985 . S
C2994 C2988 1.379 . S
C2994 C2991 1.363 . S
C2994 N2992 1.356 . S
C2995 C2989 1.363 . S
C2995 C2990 1.379 . S
C2995 N2993 1.356 . S
N2996 C2988 1.356 . S
N2996 H3002 0.984 . S
N2996 H3003 0.984 . S
N2997 C2990 1.356 . S
N2997 H3000 0.984 . S
N2997 H3001 0.985 . S
H2998 N2993 0.984 . S
H2999 N2993 0.985 . S
H3000 N2997 0.984 . S
H3001 N2997 0.985 . S
H3002 N2996 0.984 . S
H3003 N2996 0.984 . S
H3004 N2992 0.984 . S
H3005 N2992 0.985 . S
C3006 C3007 1.363 . S
C3006 C3012 1.379 . S
C3006 N3014 1.356 . S
C3007 C3006 1.363 . S
C3007 C3013 1.363 . S
C3008 C3009 1.363 . S
C3008 C3013 1.379 . S
C3008 N3015 1.356 . S
C3009 C3008 1.363 . S
C3009 C3012 1.363 . S
N3010 C3012 1.356 . S
N3010 H3022 0.984 . S
N3010 H3023 0.985 . S
N3011 C3013 1.356 . S
N3011 H3016 0.984 . S
N3011 H3017 0.985 . S
C3012 C3006 1.379 . S
C3012 C3009 1.363 . S
C3012 N3010 1.356 . S
C3013 C3007 1.363 . S
C3013 C3008 1.379 . S
C3013 N3011 1.356 . S
N3014 C3006 1.356 . S
N3014 H3020 0.984 . S
N3014 H3021 0.984 . S
N3015 C3008 1.356 . S
N3015 H3018 0.984 . S
N3015 H3019 0.985 . S
H3016 N3011 0.984 . S
H3017 N3011 0.985 . S
H3018 N3015 0.984 . S
H3019 N3015 0.985 . S
H3020 N3014 0.984 . S
H3021 N3014 0.984 . S
H3022 N3010 0.984 . S
H3023 N3010 0.985 . S
C3024 C3025 1.363 . S
C3024 C3030 1.379 . S
C3024 N3032 1.356 . S
C3025 C3024 1.363 . S
C3025 C3031 1.363 . S
C3026 C3027 1.363 . S
C3026 C3031 1.379 . S
C3026 N3033 1.356 . S
C3027 C3026 1.363 . S
C3027 C3030 1.363 . S
N3028 C3030 1.356 . S
N3028 H3040 0.984 . S
N3028 H3041 0.985 . S
N3029 C3031 1.356 . S
N3029 H3034 0.984 . S
N3029 H3035 0.985 . S
C3030 C3024 1.379 . S
C3030 C3027 1.363 . S
C3030 N3028 1.356 . S
C3031 C3025 1.363 . S
C3031 C3026 1.379 . S
C3031 N3029 1.356 . S
N3032 C3024 1.356 . S
N3032 H3038 0.984 . S
N3032 H3039 0.984 . S
N3033 C3026 1.356 . S
N3033 H3036 0.984 . S
N3033 H3037 0.985 . S
H3034 N3029 0.984 . S
H3035 N3029 0.985 . S
H3036 N3033 0.984 . S
H3037 N3033 0.985 . S
H3038 N3032 0.984 . S
H3039 N3032 0.984 . S
H3040 N3028 0.984 . S
H3041 N3028 0.985 . S
C3042 C3043 1.363 . S
C3042 C3048 1.379 . S
C3042 N3050 1.356 . S
C3043 C3042 1.363 . S
C3043 C3049 1.363 . S
C3044 C3045 1.363 . S
C3044 C3049 1.379 . S
C3044 N3051 1.356 . S
C3045 C3044 1.363 . S
C3045 C3048 1.363 . S
N3046 C3048 1.356 . S
N3046 H3058 0.984 . S
N3046 H3059 0.985 . S
N3047 C3049 1.356 . S
N3047 H3052 0.984 . S
N3047 H3053 0.985 . S
C3048 C3042 1.379 . S
C3048 C3045 1.363 . S
C3048 N3046 1.356 . S
C3049 C3043 1.363 . S
C3049 C3044 1.379 . S
C3049 N3047 1.356 . S
N3050 C3042 1.356 . S
N3050 H3056 0.984 . S
N3050 H3057 0.984 . S
N3051 C3044 1.356 . S
N3051 H3054 0.984 . S
N3051 H3055 0.985 . S
H3052 N3047 0.984 . S
H3053 N3047 0.985 . S
H3054 N3051 0.984 . S
H3055 N3051 0.985 . S
H3056 N3050 0.984 . S
H3057 N3050 0.984 . S
H3058 N3046 0.984 . S
H3059 N3046 0.985 . S
C3060 C3061 1.363 . S
C3060 C3066 1.379 . S
C3060 N3068 1.356 . S
C3061 C3060 1.363 . S
C3061 C3067 1.363 . S
C3062 C3063 1.363 . S
C3062 C3067 1.379 . S
C3062 N3069 1.356 . S
C3063 C3062 1.363 . S
C3063 C3066 1.363 . S
N3064 C3066 1.356 . S
N3064 H3076 0.984 . S
N3064 H3077 0.985 . S
N3065 C3067 1.356 . S
N3065 H3070 0.984 . S
N3065 H3071 0.985 . S
C3066 C3060 1.379 . S
C3066 C3063 1.363 . S
C3066 N3064 1.356 . S
C3067 C3061 1.363 . S
C3067 C3062 1.379 . S
C3067 N3065 1.356 . S
N3068 C3060 1.356 . S
N3068 H3074 0.984 . S
N3068 H3075 0.984 . S
N3069 C3062 1.356 . S
N3069 H3072 0.984 . S
N3069 H3073 0.985 . S
H3070 N3065 0.984 . S
H3071 N3065 0.985 . S
H3072 N3069 0.984 . S
H3073 N3069 0.985 . S
H3074 N3068 0.984 . S
H3075 N3068 0.984 . S
H3076 N3064 0.984 . S
H3077 N3064 0.985 . S
C3078 C3079 1.363 . S
C3078 C3084 1.379 . S
C3078 N3086 1.356 . S
C3079 C3078 1.363 . S
C3079 C3085 1.363 . S
C3080 C3081 1.363 . S
C3080 C3085 1.379 . S
C3080 N3087 1.356 . S
C3081 C3080 1.363 . S
C3081 C3084 1.363 . S
N3082 C3084 1.356 . S
N3082 H3094 0.984 . S
N3082 H3095 0.985 . S
N3083 C3085 1.356 . S
N3083 H3088 0.984 . S
N3083 H3089 0.985 . S
C3084 C3078 1.379 . S
C3084 C3081 1.363 . S
C3084 N3082 1.356 . S
C3085 C3079 1.363 . S
C3085 C3080 1.379 . S
C3085 N3083 1.356 . S
N3086 C3078 1.356 . S
N3086 H3092 0.984 . S
N3086 H3093 0.984 . S
N3087 C3080 1.356 . S
N3087 H3090 0.984 . S
N3087 H3091 0.985 . S
H3088 N3083 0.984 . S
H3089 N3083 0.985 . S
H3090 N3087 0.984 . S
H3091 N3087 0.985 . S
H3092 N3086 0.984 . S
H3093 N3086 0.984 . S
H3094 N3082 0.984 . S
H3095 N3082 0.985 . S
C3096 C3097 1.363 . S
C3096 C3102 1.379 . S
C3096 N3104 1.356 . S
C3097 C3096 1.363 . S
C3097 C3103 1.363 . S
C3098 C3099 1.363 . S
C3098 C3103 1.379 . S
C3098 N3105 1.356 . S
C3099 C3098 1.363 . S
C3099 C3102 1.363 . S
N3100 C3102 1.356 . S
N3100 H3112 0.984 . S
N3100 H3113 0.985 . S
N3101 C3103 1.356 . S
N3101 H3106 0.984 . S
N3101 H3107 0.985 . S
C3102 C3096 1.379 . S
C3102 C3099 1.363 . S
C3102 N3100 1.356 . S
C3103 C3097 1.363 . S
C3103 C3098 1.379 . S
C3103 N3101 1.356 . S
N3104 C3096 1.356 . S
N3104 H3110 0.984 . S
N3104 H3111 0.984 . S
N3105 C3098 1.356 . S
N3105 H3108 0.984 . S
N3105 H3109 0.985 . S
H3106 N3101 0.984 . S
H3107 N3101 0.985 . S
H3108 N3105 0.984 . S
H3109 N3105 0.985 . S
H3110 N3104 0.984 . S
H3111 N3104 0.984 . S
H3112 N3100 0.984 . S
H3113 N3100 0.985 . S
C3114 C3115 1.363 . S
C3114 C3120 1.379 . S
C3114 N3122 1.356 . S
C3115 C3114 1.363 . S
C3115 C3121 1.363 . S
C3116 C3117 1.363 . S
C3116 C3121 1.379 . S
C3116 N3123 1.356 . S
C3117 C3116 1.363 . S
C3117 C3120 1.363 . S
N3118 C3120 1.356 . S
N3118 H3130 0.984 . S
N3118 H3131 0.985 . S
N3119 C3121 1.356 . S
N3119 H3124 0.984 . S
N3119 H3125 0.985 . S
C3120 C3114 1.379 . S
C3120 C3117 1.363 . S
C3120 N3118 1.356 . S
C3121 C3115 1.363 . S
C3121 C3116 1.379 . S
C3121 N3119 1.356 . S
N3122 C3114 1.356 . S
N3122 H3128 0.984 . S
N3122 H3129 0.984 . S
N3123 C3116 1.356 . S
N3123 H3126 0.984 . S
N3123 H3127 0.985 . S
H3124 N3119 0.984 . S
H3125 N3119 0.985 . S
H3126 N3123 0.984 . S
H3127 N3123 0.985 . S
H3128 N3122 0.984 . S
H3129 N3122 0.984 . S
H3130 N3118 0.984 . S
H3131 N3118 0.985 . S
C3132 C3133 1.363 . S
C3132 C3138 1.379 . S
C3132 N3140 1.356 . S
C3133 C3132 1.363 . S
C3133 C3139 1.363 . S
C3134 C3135 1.363 . S
C3134 C3139 1.379 . S
C3134 N3141 1.356 . S
C3135 C3134 1.363 . S
C3135 C3138 1.363 . S
N3136 C3138 1.356 . S
N3136 H3148 0.984 . S
N3136 H3149 0.985 . S
N3137 C3139 1.356 . S
N3137 H3142 0.984 . S
N3137 H3143 0.985 . S
C3138 C3132 1.379 . S
C3138 C3135 1.363 . S
C3138 N3136 1.356 . S
C3139 C3133 1.363 . S
C3139 C3134 1.379 . S
C3139 N3137 1.356 . S
N3140 C3132 1.356 . S
N3140 H3146 0.984 . S
N3140 H3147 0.984 . S
N3141 C3134 1.356 . S
N3141 H3144 0.984 . S
N3141 H3145 0.985 . S
H3142 N3137 0.984 . S
H3143 N3137 0.985 . S
H3144 N3141 0.984 . S
H3145 N3141 0.985 . S
H3146 N3140 0.984 . S
H3147 N3140 0.984 . S
H3148 N3136 0.984 . S
H3149 N3136 0.985 . S
C3150 C3151 1.363 . S
C3150 C3156 1.379 . S
C3150 N3158 1.356 . S
C3151 C3150 1.363 . S
C3151 C3157 1.363 . S
C3152 C3153 1.363 . S
C3152 C3157 1.379 . S
C3152 N3159 1.356 . S
C3153 C3152 1.363 . S
C3153 C3156 1.363 . S
N3154 C3156 1.356 . S
N3154 H3166 0.984 . S
N3154 H3167 0.985 . S
N3155 C3157 1.356 . S
N3155 H3160 0.984 . S
N3155 H3161 0.985 . S
C3156 C3150 1.379 . S
C3156 C3153 1.363 . S
C3156 N3154 1.356 . S
C3157 C3151 1.363 . S
C3157 C3152 1.379 . S
C3157 N3155 1.356 . S
N3158 C3150 1.356 . S
N3158 H3164 0.984 . S
N3158 H3165 0.984 . S
N3159 C3152 1.356 . S
N3159 H3162 0.984 . S
N3159 H3163 0.985 . S
H3160 N3155 0.984 . S
H3161 N3155 0.985 . S
H3162 N3159 0.984 . S
H3163 N3159 0.985 . S
H3164 N3158 0.984 . S
H3165 N3158 0.984 . S
H3166 N3154 0.984 . S
H3167 N3154 0.985 . S
C3168 C3169 1.363 . S
C3168 C3174 1.379 . S
C3168 N3176 1.356 . S
C3169 C3168 1.363 . S
C3169 C3175 1.363 . S
C3170 C3171 1.363 . S
C3170 C3175 1.379 . S
C3170 N3177 1.356 . S
C3171 C3170 1.363 . S
C3171 C3174 1.363 . S
N3172 C3174 1.356 . S
N3172 H3184 0.984 . S
N3172 H3185 0.985 . S
N3173 C3175 1.356 . S
N3173 H3178 0.984 . S
N3173 H3179 0.985 . S
C3174 C3168 1.379 . S
C3174 C3171 1.363 . S
C3174 N3172 1.356 . S
C3175 C3169 1.363 . S
C3175 C3170 1.379 . S
C3175 N3173 1.356 . S
N3176 C3168 1.356 . S
N3176 H3182 0.984 . S
N3176 H3183 0.984 . S
N3177 C3170 1.356 . S
N3177 H3180 0.984 . S
N3177 H3181 0.985 . S
H3178 N3173 0.984 . S
H3179 N3173 0.985 . S
H3180 N3177 0.984 . S
H3181 N3177 0.985 . S
H3182 N3176 0.984 . S
H3183 N3176 0.984 . S
H3184 N3172 0.984 . S
H3185 N3172 0.985 . S
C3186 C3187 1.363 . S
C3186 C3192 1.379 . S
C3186 N3194 1.356 . S
C3187 C3186 1.363 . S
C3187 C3193 1.363 . S
C3188 C3189 1.363 . S
C3188 C3193 1.379 . S
C3188 N3195 1.356 . S
C3189 C3188 1.363 . S
C3189 C3192 1.363 . S
N3190 C3192 1.356 . S
N3190 H3202 0.984 . S
N3190 H3203 0.985 . S
N3191 C3193 1.356 . S
N3191 H3196 0.984 . S
N3191 H3197 0.985 . S
C3192 C3186 1.379 . S
C3192 C3189 1.363 . S
C3192 N3190 1.356 . S
C3193 C3187 1.363 . S
C3193 C3188 1.379 . S
C3193 N3191 1.356 . S
N3194 C3186 1.356 . S
N3194 H3200 0.984 . S
N3194 H3201 0.984 . S
N3195 C3188 1.356 . S
N3195 H3198 0.984 . S
N3195 H3199 0.985 . S
H3196 N3191 0.984 . S
H3197 N3191 0.985 . S
H3198 N3195 0.984 . S
H3199 N3195 0.985 . S
H3200 N3194 0.984 . S
H3201 N3194 0.984 . S
H3202 N3190 0.984 . S
H3203 N3190 0.985 . S
C3204 C3205 1.363 . S
C3204 C3210 1.379 . S
C3204 N3212 1.356 . S
C3205 C3204 1.363 . S
C3205 C3211 1.363 . S
C3206 C3207 1.363 . S
C3206 C3211 1.379 . S
C3206 N3213 1.356 . S
C3207 C3206 1.363 . S
C3207 C3210 1.363 . S
N3208 C3210 1.356 . S
N3208 H3220 0.984 . S
N3208 H3221 0.985 . S
N3209 C3211 1.356 . S
N3209 H3214 0.984 . S
N3209 H3215 0.985 . S
C3210 C3204 1.379 . S
C3210 C3207 1.363 . S
C3210 N3208 1.356 . S
C3211 C3205 1.363 . S
C3211 C3206 1.379 . S
C3211 N3209 1.356 . S
N3212 C3204 1.356 . S
N3212 H3218 0.984 . S
N3212 H3219 0.984 . S
N3213 C3206 1.356 . S
N3213 H3216 0.984 . S
N3213 H3217 0.985 . S
H3214 N3209 0.984 . S
H3215 N3209 0.985 . S
H3216 N3213 0.984 . S
H3217 N3213 0.985 . S
H3218 N3212 0.984 . S
H3219 N3212 0.984 . S
H3220 N3208 0.984 . S
H3221 N3208 0.985 . S
C3222 C3223 1.363 . S
C3222 C3228 1.379 . S
C3222 N3230 1.356 . S
C3223 C3222 1.363 . S
C3223 C3229 1.363 . S
C3224 C3225 1.363 . S
C3224 C3229 1.379 . S
C3224 N3231 1.356 . S
C3225 C3224 1.363 . S
C3225 C3228 1.363 . S
N3226 C3228 1.356 . S
N3226 H3238 0.984 . S
N3226 H3239 0.985 . S
N3227 C3229 1.356 . S
N3227 H3232 0.984 . S
N3227 H3233 0.985 . S
C3228 C3222 1.379 . S
C3228 C3225 1.363 . S
C3228 N3226 1.356 . S
C3229 C3223 1.363 . S
C3229 C3224 1.379 . S
C3229 N3227 1.356 . S
N3230 C3222 1.356 . S
N3230 H3236 0.984 . S
N3230 H3237 0.984 . S
N3231 C3224 1.356 . S
N3231 H3234 0.984 . S
N3231 H3235 0.985 . S
H3232 N3227 0.984 . S
H3233 N3227 0.985 . S
H3234 N3231 0.984 . S
H3235 N3231 0.985 . S
H3236 N3230 0.984 . S
H3237 N3230 0.984 . S
H3238 N3226 0.984 . S
H3239 N3226 0.985 . S
C3240 C3241 1.363 . S
C3240 C3246 1.379 . S
C3240 N3248 1.356 . S
C3241 C3240 1.363 . S
C3241 C3247 1.363 . S
C3242 C3243 1.363 . S
C3242 C3247 1.379 . S
C3242 N3249 1.356 . S
C3243 C3242 1.363 . S
C3243 C3246 1.363 . S
N3244 C3246 1.356 . S
N3244 H3256 0.984 . S
N3244 H3257 0.985 . S
N3245 C3247 1.356 . S
N3245 H3250 0.984 . S
N3245 H3251 0.985 . S
C3246 C3240 1.379 . S
C3246 C3243 1.363 . S
C3246 N3244 1.356 . S
C3247 C3241 1.363 . S
C3247 C3242 1.379 . S
C3247 N3245 1.356 . S
N3248 C3240 1.356 . S
N3248 H3254 0.984 . S
N3248 H3255 0.984 . S
N3249 C3242 1.356 . S
N3249 H3252 0.984 . S
N3249 H3253 0.985 . S
H3250 N3245 0.984 . S
H3251 N3245 0.985 . S
H3252 N3249 0.984 . S
H3253 N3249 0.985 . S
H3254 N3248 0.984 . S
H3255 N3248 0.984 . S
H3256 N3244 0.984 . S
H3257 N3244 0.985 . S
C3258 C3259 1.363 . S
C3258 C3264 1.379 . S
C3258 N3266 1.356 . S
C3259 C3258 1.363 . S
C3259 C3265 1.363 . S
C3260 C3261 1.363 . S
C3260 C3265 1.379 . S
C3260 N3267 1.356 . S
C3261 C3260 1.363 . S
C3261 C3264 1.363 . S
N3262 C3264 1.356 . S
N3262 H3274 0.984 . S
N3262 H3275 0.985 . S
N3263 C3265 1.356 . S
N3263 H3268 0.984 . S
N3263 H3269 0.985 . S
C3264 C3258 1.379 . S
C3264 C3261 1.363 . S
C3264 N3262 1.356 . S
C3265 C3259 1.363 . S
C3265 C3260 1.379 . S
C3265 N3263 1.356 . S
N3266 C3258 1.356 . S
N3266 H3272 0.984 . S
N3266 H3273 0.984 . S
N3267 C3260 1.356 . S
N3267 H3270 0.984 . S
N3267 H3271 0.985 . S
H3268 N3263 0.984 . S
H3269 N3263 0.985 . S
H3270 N3267 0.984 . S
H3271 N3267 0.985 . S
H3272 N3266 0.984 . S
H3273 N3266 0.984 . S
H3274 N3262 0.984 . S
H3275 N3262 0.985 . S
C3276 C3277 1.363 . S
C3276 C3282 1.379 . S
C3276 N3284 1.356 . S
C3277 C3276 1.363 . S
C3277 C3283 1.363 . S
C3278 C3279 1.363 . S
C3278 C3283 1.379 . S
C3278 N3285 1.356 . S
C3279 C3278 1.363 . S
C3279 C3282 1.363 . S
N3280 C3282 1.356 . S
N3280 H3292 0.984 . S
N3280 H3293 0.985 . S
N3281 C3283 1.356 . S
N3281 H3286 0.984 . S
N3281 H3287 0.985 . S
C3282 C3276 1.379 . S
C3282 C3279 1.363 . S
C3282 N3280 1.356 . S
C3283 C3277 1.363 . S
C3283 C3278 1.379 . S
C3283 N3281 1.356 . S
N3284 C3276 1.356 . S
N3284 H3290 0.984 . S
N3284 H3291 0.984 . S
N3285 C3278 1.356 . S
N3285 H3288 0.984 . S
N3285 H3289 0.985 . S
H3286 N3281 0.984 . S
H3287 N3281 0.985 . S
H3288 N3285 0.984 . S
H3289 N3285 0.985 . S
H3290 N3284 0.984 . S
H3291 N3284 0.984 . S
H3292 N3280 0.984 . S
H3293 N3280 0.985 . S
C3294 C3295 1.363 . S
C3294 C3300 1.379 . S
C3294 N3302 1.356 . S
C3295 C3294 1.363 . S
C3295 C3301 1.363 . S
C3296 C3297 1.363 . S
C3296 C3301 1.379 . S
C3296 N3303 1.356 . S
C3297 C3296 1.363 . S
C3297 C3300 1.363 . S
N3298 C3300 1.356 . S
N3298 H3310 0.984 . S
N3298 H3311 0.985 . S
N3299 C3301 1.356 . S
N3299 H3304 0.984 . S
N3299 H3305 0.985 . S
C3300 C3294 1.379 . S
C3300 C3297 1.363 . S
C3300 N3298 1.356 . S
C3301 C3295 1.363 . S
C3301 C3296 1.379 . S
C3301 N3299 1.356 . S
N3302 C3294 1.356 . S
N3302 H3308 0.984 . S
N3302 H3309 0.984 . S
N3303 C3296 1.356 . S
N3303 H3306 0.984 . S
N3303 H3307 0.985 . S
H3304 N3299 0.984 . S
H3305 N3299 0.985 . S
H3306 N3303 0.984 . S
H3307 N3303 0.985 . S
H3308 N3302 0.984 . S
H3309 N3302 0.984 . S
H3310 N3298 0.984 . S
H3311 N3298 0.985 . S
C3312 C3313 1.363 . S
C3312 C3318 1.379 . S
C3312 N3320 1.356 . S
C3313 C3312 1.363 . S
C3313 C3319 1.363 . S
C3314 C3315 1.363 . S
C3314 C3319 1.379 . S
C3314 N3321 1.356 . S
C3315 C3314 1.363 . S
C3315 C3318 1.363 . S
N3316 C3318 1.356 . S
N3316 H3328 0.984 . S
N3316 H3329 0.985 . S
N3317 C3319 1.356 . S
N3317 H3322 0.984 . S
N3317 H3323 0.985 . S
C3318 C3312 1.379 . S
C3318 C3315 1.363 . S
C3318 N3316 1.356 . S
C3319 C3313 1.363 . S
C3319 C3314 1.379 . S
C3319 N3317 1.356 . S
N3320 C3312 1.356 . S
N3320 H3326 0.984 . S
N3320 H3327 0.984 . S
N3321 C3314 1.356 . S
N3321 H3324 0.984 . S
N3321 H3325 0.985 . S
H3322 N3317 0.984 . S
H3323 N3317 0.985 . S
H3324 N3321 0.984 . S
H3325 N3321 0.985 . S
H3326 N3320 0.984 . S
H3327 N3320 0.984 . S
H3328 N3316 0.984 . S
H3329 N3316 0.985 . S
C3330 C3331 1.363 . S
C3330 C3336 1.379 . S
C3330 N3338 1.356 . S
C3331 C3330 1.363 . S
C3331 C3337 1.363 . S
C3332 C3333 1.363 . S
C3332 C3337 1.379 . S
C3332 N3339 1.356 . S
C3333 C3332 1.363 . S
C3333 C3336 1.363 . S
N3334 C3336 1.356 . S
N3334 H3346 0.984 . S
N3334 H3347 0.985 . S
N3335 C3337 1.356 . S
N3335 H3340 0.984 . S
N3335 H3341 0.985 . S
C3336 C3330 1.379 . S
C3336 C3333 1.363 . S
C3336 N3334 1.356 . S
C3337 C3331 1.363 . S
C3337 C3332 1.379 . S
C3337 N3335 1.356 . S
N3338 C3330 1.356 . S
N3338 H3344 0.984 . S
N3338 H3345 0.984 . S
N3339 C3332 1.356 . S
N3339 H3342 0.984 . S
N3339 H3343 0.985 . S
H3340 N3335 0.984 . S
H3341 N3335 0.985 . S
H3342 N3339 0.984 . S
H3343 N3339 0.985 . S
H3344 N3338 0.984 . S
H3345 N3338 0.984 . S
H3346 N3334 0.984 . S
H3347 N3334 0.985 . S
C3348 C3349 1.363 . S
C3348 C3354 1.379 . S
C3348 N3356 1.356 . S
C3349 C3348 1.363 . S
C3349 C3355 1.363 . S
C3350 C3351 1.363 . S
C3350 C3355 1.379 . S
C3350 N3357 1.356 . S
C3351 C3350 1.363 . S
C3351 C3354 1.363 . S
N3352 C3354 1.356 . S
N3352 H3364 0.984 . S
N3352 H3365 0.985 . S
N3353 C3355 1.356 . S
N3353 H3358 0.984 . S
N3353 H3359 0.985 . S
C3354 C3348 1.379 . S
C3354 C3351 1.363 . S
C3354 N3352 1.356 . S
C3355 C3349 1.363 . S
C3355 C3350 1.379 . S
C3355 N3353 1.356 . S
N3356 C3348 1.356 . S
N3356 H3362 0.984 . S
N3356 H3363 0.984 . S
N3357 C3350 1.356 . S
N3357 H3360 0.984 . S
N3357 H3361 0.985 . S
H3358 N3353 0.984 . S
H3359 N3353 0.985 . S
H3360 N3357 0.984 . S
H3361 N3357 0.985 . S
H3362 N3356 0.984 . S
H3363 N3356 0.984 . S
H3364 N3352 0.984 . S
H3365 N3352 0.985 . S
C3366 C3367 1.363 . S
C3366 C3372 1.379 . S
C3366 N3374 1.356 . S
C3367 C3366 1.363 . S
C3367 C3373 1.363 . S
C3368 C3369 1.363 . S
C3368 C3373 1.379 . S
C3368 N3375 1.356 . S
C3369 C3368 1.363 . S
C3369 C3372 1.363 . S
N3370 C3372 1.356 . S
N3370 H3382 0.984 . S
N3370 H3383 0.985 . S
N3371 C3373 1.356 . S
N3371 H3376 0.984 . S
N3371 H3377 0.985 . S
C3372 C3366 1.379 . S
C3372 C3369 1.363 . S
C3372 N3370 1.356 . S
C3373 C3367 1.363 . S
C3373 C3368 1.379 . S
C3373 N3371 1.356 . S
N3374 C3366 1.356 . S
N3374 H3380 0.984 . S
N3374 H3381 0.984 . S
N3375 C3368 1.356 . S
N3375 H3378 0.984 . S
N3375 H3379 0.985 . S
H3376 N3371 0.984 . S
H3377 N3371 0.985 . S
H3378 N3375 0.984 . S
H3379 N3375 0.985 . S
H3380 N3374 0.984 . S
H3381 N3374 0.984 . S
H3382 N3370 0.984 . S
H3383 N3370 0.985 . S
C3384 C3385 1.363 . S
C3384 C3390 1.379 . S
C3384 N3392 1.356 . S
C3385 C3384 1.363 . S
C3385 C3391 1.363 . S
C3386 C3387 1.363 . S
C3386 C3391 1.379 . S
C3386 N3393 1.356 . S
C3387 C3386 1.363 . S
C3387 C3390 1.363 . S
N3388 C3390 1.356 . S
N3388 H3400 0.984 . S
N3388 H3401 0.985 . S
N3389 C3391 1.356 . S
N3389 H3394 0.984 . S
N3389 H3395 0.985 . S
C3390 C3384 1.379 . S
C3390 C3387 1.363 . S
C3390 N3388 1.356 . S
C3391 C3385 1.363 . S
C3391 C3386 1.379 . S
C3391 N3389 1.356 . S
N3392 C3384 1.356 . S
N3392 H3398 0.984 . S
N3392 H3399 0.984 . S
N3393 C3386 1.356 . S
N3393 H3396 0.984 . S
N3393 H3397 0.985 . S
H3394 N3389 0.984 . S
H3395 N3389 0.985 . S
H3396 N3393 0.984 . S
H3397 N3393 0.985 . S
H3398 N3392 0.984 . S
H3399 N3392 0.984 . S
H3400 N3388 0.984 . S
H3401 N3388 0.985 . S
C3402 C3403 1.363 . S
C3402 C3408 1.379 . S
C3402 N3410 1.356 . S
C3403 C3402 1.363 . S
C3403 C3409 1.363 . S
C3404 C3405 1.363 . S
C3404 C3409 1.379 . S
C3404 N3411 1.356 . S
C3405 C3404 1.363 . S
C3405 C3408 1.363 . S
N3406 C3408 1.356 . S
N3406 H3418 0.984 . S
N3406 H3419 0.985 . S
N3407 C3409 1.356 . S
N3407 H3412 0.984 . S
N3407 H3413 0.985 . S
C3408 C3402 1.379 . S
C3408 C3405 1.363 . S
C3408 N3406 1.356 . S
C3409 C3403 1.363 . S
C3409 C3404 1.379 . S
C3409 N3407 1.356 . S
N3410 C3402 1.356 . S
N3410 H3416 0.984 . S
N3410 H3417 0.984 . S
N3411 C3404 1.356 . S
N3411 H3414 0.984 . S
N3411 H3415 0.985 . S
H3412 N3407 0.984 . S
H3413 N3407 0.985 . S
H3414 N3411 0.984 . S
H3415 N3411 0.985 . S
H3416 N3410 0.984 . S
H3417 N3410 0.984 . S
H3418 N3406 0.984 . S
H3419 N3406 0.985 . S
C3420 C3421 1.363 . S
C3420 C3426 1.379 . S
C3420 N3428 1.356 . S
C3421 C3420 1.363 . S
C3421 C3427 1.363 . S
C3422 C3423 1.363 . S
C3422 C3427 1.379 . S
C3422 N3429 1.356 . S
C3423 C3422 1.363 . S
C3423 C3426 1.363 . S
N3424 C3426 1.356 . S
N3424 H3436 0.984 . S
N3424 H3437 0.985 . S
N3425 C3427 1.356 . S
N3425 H3430 0.984 . S
N3425 H3431 0.985 . S
C3426 C3420 1.379 . S
C3426 C3423 1.363 . S
C3426 N3424 1.356 . S
C3427 C3421 1.363 . S
C3427 C3422 1.379 . S
C3427 N3425 1.356 . S
N3428 C3420 1.356 . S
N3428 H3434 0.984 . S
N3428 H3435 0.984 . S
N3429 C3422 1.356 . S
N3429 H3432 0.984 . S
N3429 H3433 0.985 . S
H3430 N3425 0.984 . S
H3431 N3425 0.985 . S
H3432 N3429 0.984 . S
H3433 N3429 0.985 . S
H3434 N3428 0.984 . S
H3435 N3428 0.984 . S
H3436 N3424 0.984 . S
H3437 N3424 0.985 . S
C3438 C3439 1.363 . S
C3438 C3444 1.379 . S
C3438 N3446 1.356 . S
C3439 C3438 1.363 . S
C3439 C3445 1.363 . S
C3440 C3441 1.363 . S
C3440 C3445 1.379 . S
C3440 N3447 1.356 . S
C3441 C3440 1.363 . S
C3441 C3444 1.363 . S
N3442 C3444 1.356 . S
N3442 H3454 0.984 . S
N3442 H3455 0.985 . S
N3443 C3445 1.356 . S
N3443 H3448 0.984 . S
N3443 H3449 0.985 . S
C3444 C3438 1.379 . S
C3444 C3441 1.363 . S
C3444 N3442 1.356 . S
C3445 C3439 1.363 . S
C3445 C3440 1.379 . S
C3445 N3443 1.356 . S
N3446 C3438 1.356 . S
N3446 H3452 0.984 . S
N3446 H3453 0.984 . S
N3447 C3440 1.356 . S
N3447 H3450 0.984 . S
N3447 H3451 0.985 . S
H3448 N3443 0.984 . S
H3449 N3443 0.985 . S
H3450 N3447 0.984 . S
H3451 N3447 0.985 . S
H3452 N3446 0.984 . S
H3453 N3446 0.984 . S
H3454 N3442 0.984 . S
H3455 N3442 0.985 . S
C3456 C3457 1.363 . S
C3456 C3462 1.379 . S
C3456 N3464 1.356 . S
C3457 C3456 1.363 . S
C3457 C3463 1.363 . S
C3458 C3459 1.363 . S
C3458 C3463 1.379 . S
C3458 N3465 1.356 . S
C3459 C3458 1.363 . S
C3459 C3462 1.363 . S
N3460 C3462 1.356 . S
N3460 H3472 0.984 . S
N3460 H3473 0.985 . S
N3461 C3463 1.356 . S
N3461 H3466 0.984 . S
N3461 H3467 0.985 . S
C3462 C3456 1.379 . S
C3462 C3459 1.363 . S
C3462 N3460 1.356 . S
C3463 C3457 1.363 . S
C3463 C3458 1.379 . S
C3463 N3461 1.356 . S
N3464 C3456 1.356 . S
N3464 H3470 0.984 . S
N3464 H3471 0.984 . S
N3465 C3458 1.356 . S
N3465 H3468 0.984 . S
N3465 H3469 0.985 . S
H3466 N3461 0.984 . S
H3467 N3461 0.985 . S
H3468 N3465 0.984 . S
H3469 N3465 0.985 . S
H3470 N3464 0.984 . S
H3471 N3464 0.984 . S
H3472 N3460 0.984 . S
H3473 N3460 0.985 . S
C3474 C3475 1.363 . S
C3474 C3480 1.379 . S
C3474 N3482 1.356 . S
C3475 C3474 1.363 . S
C3475 C3481 1.363 . S
C3476 C3477 1.363 . S
C3476 C3481 1.379 . S
C3476 N3483 1.356 . S
C3477 C3476 1.363 . S
C3477 C3480 1.363 . S
N3478 C3480 1.356 . S
N3478 H3490 0.984 . S
N3478 H3491 0.985 . S
N3479 C3481 1.356 . S
N3479 H3484 0.984 . S
N3479 H3485 0.985 . S
C3480 C3474 1.379 . S
C3480 C3477 1.363 . S
C3480 N3478 1.356 . S
C3481 C3475 1.363 . S
C3481 C3476 1.379 . S
C3481 N3479 1.356 . S
N3482 C3474 1.356 . S
N3482 H3488 0.984 . S
N3482 H3489 0.984 . S
N3483 C3476 1.356 . S
N3483 H3486 0.984 . S
N3483 H3487 0.985 . S
H3484 N3479 0.984 . S
H3485 N3479 0.985 . S
H3486 N3483 0.984 . S
H3487 N3483 0.985 . S
H3488 N3482 0.984 . S
H3489 N3482 0.984 . S
H3490 N3478 0.984 . S
H3491 N3478 0.985 . S
C3492 C3493 1.363 . S
C3492 C3498 1.379 . S
C3492 N3500 1.356 . S
C3493 C3492 1.363 . S
C3493 C3499 1.363 . S
C3494 C3495 1.363 . S
C3494 C3499 1.379 . S
C3494 N3501 1.356 . S
C3495 C3494 1.363 . S
C3495 C3498 1.363 . S
N3496 C3498 1.356 . S
N3496 H3508 0.984 . S
N3496 H3509 0.985 . S
N3497 C3499 1.356 . S
N3497 H3502 0.984 . S
N3497 H3503 0.985 . S
C3498 C3492 1.379 . S
C3498 C3495 1.363 . S
C3498 N3496 1.356 . S
C3499 C3493 1.363 . S
C3499 C3494 1.379 . S
C3499 N3497 1.356 . S
N3500 C3492 1.356 . S
N3500 H3506 0.984 . S
N3500 H3507 0.984 . S
N3501 C3494 1.356 . S
N3501 H3504 0.984 . S
N3501 H3505 0.985 . S
H3502 N3497 0.984 . S
H3503 N3497 0.985 . S
H3504 N3501 0.984 . S
H3505 N3501 0.985 . S
H3506 N3500 0.984 . S
H3507 N3500 0.984 . S
H3508 N3496 0.984 . S
H3509 N3496 0.985 . S
C3510 C3511 1.363 . S
C3510 C3516 1.379 . S
C3510 N3518 1.356 . S
C3511 C3510 1.363 . S
C3511 C3517 1.363 . S
C3512 C3513 1.363 . S
C3512 C3517 1.379 . S
C3512 N3519 1.356 . S
C3513 C3512 1.363 . S
C3513 C3516 1.363 . S
N3514 C3516 1.356 . S
N3514 H3526 0.984 . S
N3514 H3527 0.985 . S
N3515 C3517 1.356 . S
N3515 H3520 0.984 . S
N3515 H3521 0.985 . S
C3516 C3510 1.379 . S
C3516 C3513 1.363 . S
C3516 N3514 1.356 . S
C3517 C3511 1.363 . S
C3517 C3512 1.379 . S
C3517 N3515 1.356 . S
N3518 C3510 1.356 . S
N3518 H3524 0.984 . S
N3518 H3525 0.984 . S
N3519 C3512 1.356 . S
N3519 H3522 0.984 . S
N3519 H3523 0.985 . S
H3520 N3515 0.984 . S
H3521 N3515 0.985 . S
H3522 N3519 0.984 . S
H3523 N3519 0.985 . S
H3524 N3518 0.984 . S
H3525 N3518 0.984 . S
H3526 N3514 0.984 . S
H3527 N3514 0.985 . S
C3528 C3529 1.363 . S
C3528 C3534 1.379 . S
C3528 N3536 1.356 . S
C3529 C3528 1.363 . S
C3529 C3535 1.363 . S
C3530 C3531 1.363 . S
C3530 C3535 1.379 . S
C3530 N3537 1.356 . S
C3531 C3530 1.363 . S
C3531 C3534 1.363 . S
N3532 C3534 1.356 . S
N3532 H3544 0.984 . S
N3532 H3545 0.985 . S
N3533 C3535 1.356 . S
N3533 H3538 0.984 . S
N3533 H3539 0.985 . S
C3534 C3528 1.379 . S
C3534 C3531 1.363 . S
C3534 N3532 1.356 . S
C3535 C3529 1.363 . S
C3535 C3530 1.379 . S
C3535 N3533 1.356 . S
N3536 C3528 1.356 . S
N3536 H3542 0.984 . S
N3536 H3543 0.984 . S
N3537 C3530 1.356 . S
N3537 H3540 0.984 . S
N3537 H3541 0.985 . S
H3538 N3533 0.984 . S
H3539 N3533 0.985 . S
H3540 N3537 0.984 . S
H3541 N3537 0.985 . S
H3542 N3536 0.984 . S
H3543 N3536 0.984 . S
H3544 N3532 0.984 . S
H3545 N3532 0.985 . S
C3546 C3547 1.363 . S
C3546 C3552 1.379 . S
C3546 N3554 1.356 . S
C3547 C3546 1.363 . S
C3547 C3553 1.363 . S
C3548 C3549 1.363 . S
C3548 C3553 1.379 . S
C3548 N3555 1.356 . S
C3549 C3548 1.363 . S
C3549 C3552 1.363 . S
N3550 C3552 1.356 . S
N3550 H3562 0.984 . S
N3550 H3563 0.985 . S
N3551 C3553 1.356 . S
N3551 H3556 0.984 . S
N3551 H3557 0.985 . S
C3552 C3546 1.379 . S
C3552 C3549 1.363 . S
C3552 N3550 1.356 . S
C3553 C3547 1.363 . S
C3553 C3548 1.379 . S
C3553 N3551 1.356 . S
N3554 C3546 1.356 . S
N3554 H3560 0.984 . S
N3554 H3561 0.984 . S
N3555 C3548 1.356 . S
N3555 H3558 0.984 . S
N3555 H3559 0.985 . S
H3556 N3551 0.984 . S
H3557 N3551 0.985 . S
H3558 N3555 0.984 . S
H3559 N3555 0.985 . S
H3560 N3554 0.984 . S
H3561 N3554 0.984 . S
H3562 N3550 0.984 . S
H3563 N3550 0.985 . S
C3564 C3565 1.363 . S
C3564 C3570 1.379 . S
C3564 N3572 1.356 . S
C3565 C3564 1.363 . S
C3565 C3571 1.363 . S
C3566 C3567 1.363 . S
C3566 C3571 1.379 . S
C3566 N3573 1.356 . S
C3567 C3566 1.363 . S
C3567 C3570 1.363 . S
N3568 C3570 1.356 . S
N3568 H3580 0.984 . S
N3568 H3581 0.985 . S
N3569 C3571 1.356 . S
N3569 H3574 0.984 . S
N3569 H3575 0.985 . S
C3570 C3564 1.379 . S
C3570 C3567 1.363 . S
C3570 N3568 1.356 . S
C3571 C3565 1.363 . S
C3571 C3566 1.379 . S
C3571 N3569 1.356 . S
N3572 C3564 1.356 . S
N3572 H3578 0.984 . S
N3572 H3579 0.984 . S
N3573 C3566 1.356 . S
N3573 H3576 0.984 . S
N3573 H3577 0.985 . S
H3574 N3569 0.984 . S
H3575 N3569 0.985 . S
H3576 N3573 0.984 . S
H3577 N3573 0.985 . S
H3578 N3572 0.984 . S
H3579 N3572 0.984 . S
H3580 N3568 0.984 . S
H3581 N3568 0.985 . S
C3582 C3583 1.363 . S
C3582 C3588 1.379 . S
C3582 N3590 1.356 . S
C3583 C3582 1.363 . S
C3583 C3589 1.363 . S
C3584 C3585 1.363 . S
C3584 C3589 1.379 . S
C3584 N3591 1.356 . S
C3585 C3584 1.363 . S
C3585 C3588 1.363 . S
N3586 C3588 1.356 . S
N3586 H3598 0.984 . S
N3586 H3599 0.985 . S
N3587 C3589 1.356 . S
N3587 H3592 0.984 . S
N3587 H3593 0.985 . S
C3588 C3582 1.379 . S
C3588 C3585 1.363 . S
C3588 N3586 1.356 . S
C3589 C3583 1.363 . S
C3589 C3584 1.379 . S
C3589 N3587 1.356 . S
N3590 C3582 1.356 . S
N3590 H3596 0.984 . S
N3590 H3597 0.984 . S
N3591 C3584 1.356 . S
N3591 H3594 0.984 . S
N3591 H3595 0.985 . S
H3592 N3587 0.984 . S
H3593 N3587 0.985 . S
H3594 N3591 0.984 . S
H3595 N3591 0.985 . S
H3596 N3590 0.984 . S
H3597 N3590 0.984 . S
H3598 N3586 0.984 . S
H3599 N3586 0.985 . S
C3600 C3601 1.363 . S
C3600 C3606 1.379 . S
C3600 N3608 1.356 . S
C3601 C3600 1.363 . S
C3601 C3607 1.363 . S
C3602 C3603 1.363 . S
C3602 C3607 1.379 . S
C3602 N3609 1.356 . S
C3603 C3602 1.363 . S
C3603 C3606 1.363 . S
N3604 C3606 1.356 . S
N3604 H3616 0.984 . S
N3604 H3617 0.985 . S
N3605 C3607 1.356 . S
N3605 H3610 0.984 . S
N3605 H3611 0.985 . S
C3606 C3600 1.379 . S
C3606 C3603 1.363 . S
C3606 N3604 1.356 . S
C3607 C3601 1.363 . S
C3607 C3602 1.379 . S
C3607 N3605 1.356 . S
N3608 C3600 1.356 . S
N3608 H3614 0.984 . S
N3608 H3615 0.984 . S
N3609 C3602 1.356 . S
N3609 H3612 0.984 . S
N3609 H3613 0.985 . S
H3610 N3605 0.984 . S
H3611 N3605 0.985 . S
H3612 N3609 0.984 . S
H3613 N3609 0.985 . S
H3614 N3608 0.984 . S
H3615 N3608 0.984 . S
H3616 N3604 0.984 . S
H3617 N3604 0.985 . S
C3618 C3619 1.363 . S
C3618 C3624 1.379 . S
C3618 N3626 1.356 . S
C3619 C3618 1.363 . S
C3619 C3625 1.363 . S
C3620 C3621 1.363 . S
C3620 C3625 1.379 . S
C3620 N3627 1.356 . S
C3621 C3620 1.363 . S
C3621 C3624 1.363 . S
N3622 C3624 1.356 . S
N3622 H3634 0.984 . S
N3622 H3635 0.985 . S
N3623 C3625 1.356 . S
N3623 H3628 0.984 . S
N3623 H3629 0.985 . S
C3624 C3618 1.379 . S
C3624 C3621 1.363 . S
C3624 N3622 1.356 . S
C3625 C3619 1.363 . S
C3625 C3620 1.379 . S
C3625 N3623 1.356 . S
N3626 C3618 1.356 . S
N3626 H3632 0.984 . S
N3626 H3633 0.984 . S
N3627 C3620 1.356 . S
N3627 H3630 0.984 . S
N3627 H3631 0.985 . S
H3628 N3623 0.984 . S
H3629 N3623 0.985 . S
H3630 N3627 0.984 . S
H3631 N3627 0.985 . S
H3632 N3626 0.984 . S
H3633 N3626 0.984 . S
H3634 N3622 0.984 . S
H3635 N3622 0.985 . S
C3636 C3637 1.363 . S
C3636 C3642 1.379 . S
C3636 N3644 1.356 . S
C3637 C3636 1.363 . S
C3637 C3643 1.363 . S
C3638 C3639 1.363 . S
C3638 C3643 1.379 . S
C3638 N3645 1.356 . S
C3639 C3638 1.363 . S
C3639 C3642 1.363 . S
N3640 C3642 1.356 . S
N3640 H3652 0.984 . S
N3640 H3653 0.985 . S
N3641 C3643 1.356 . S
N3641 H3646 0.984 . S
N3641 H3647 0.985 . S
C3642 C3636 1.379 . S
C3642 C3639 1.363 . S
C3642 N3640 1.356 . S
C3643 C3637 1.363 . S
C3643 C3638 1.379 . S
C3643 N3641 1.356 . S
N3644 C3636 1.356 . S
N3644 H3650 0.984 . S
N3644 H3651 0.984 . S
N3645 C3638 1.356 . S
N3645 H3648 0.984 . S
N3645 H3649 0.985 . S
H3646 N3641 0.984 . S
H3647 N3641 0.985 . S
H3648 N3645 0.984 . S
H3649 N3645 0.985 . S
H3650 N3644 0.984 . S
H3651 N3644 0.984 . S
H3652 N3640 0.984 . S
H3653 N3640 0.985 . S
C3654 C3655 1.363 . S
C3654 C3660 1.379 . S
C3654 N3662 1.356 . S
C3655 C3654 1.363 . S
C3655 C3661 1.363 . S
C3656 C3657 1.363 . S
C3656 C3661 1.379 . S
C3656 N3663 1.356 . S
C3657 C3656 1.363 . S
C3657 C3660 1.363 . S
N3658 C3660 1.356 . S
N3658 H3670 0.984 . S
N3658 H3671 0.985 . S
N3659 C3661 1.356 . S
N3659 H3664 0.984 . S
N3659 H3665 0.985 . S
C3660 C3654 1.379 . S
C3660 C3657 1.363 . S
C3660 N3658 1.356 . S
C3661 C3655 1.363 . S
C3661 C3656 1.379 . S
C3661 N3659 1.356 . S
N3662 C3654 1.356 . S
N3662 H3668 0.984 . S
N3662 H3669 0.984 . S
N3663 C3656 1.356 . S
N3663 H3666 0.984 . S
N3663 H3667 0.985 . S
H3664 N3659 0.984 . S
H3665 N3659 0.985 . S
H3666 N3663 0.984 . S
H3667 N3663 0.985 . S
H3668 N3662 0.984 . S
H3669 N3662 0.984 . S
H3670 N3658 0.984 . S
H3671 N3658 0.985 . S
C3672 C3673 1.363 . S
C3672 C3678 1.379 . S
C3672 N3680 1.356 . S
C3673 C3672 1.363 . S
C3673 C3679 1.363 . S
C3674 C3675 1.363 . S
C3674 C3679 1.379 . S
C3674 N3681 1.356 . S
C3675 C3674 1.363 . S
C3675 C3678 1.363 . S
N3676 C3678 1.356 . S
N3676 H3688 0.984 . S
N3676 H3689 0.985 . S
N3677 C3679 1.356 . S
N3677 H3682 0.984 . S
N3677 H3683 0.985 . S
C3678 C3672 1.379 . S
C3678 C3675 1.363 . S
C3678 N3676 1.356 . S
C3679 C3673 1.363 . S
C3679 C3674 1.379 . S
C3679 N3677 1.356 . S
N3680 C3672 1.356 . S
N3680 H3686 0.984 . S
N3680 H3687 0.984 . S
N3681 C3674 1.356 . S
N3681 H3684 0.984 . S
N3681 H3685 0.985 . S
H3682 N3677 0.984 . S
H3683 N3677 0.985 . S
H3684 N3681 0.984 . S
H3685 N3681 0.985 . S
H3686 N3680 0.984 . S
H3687 N3680 0.984 . S
H3688 N3676 0.984 . S
H3689 N3676 0.985 . S
C3690 C3691 1.363 . S
C3690 C3696 1.379 . S
C3690 N3698 1.356 . S
C3691 C3690 1.363 . S
C3691 C3697 1.363 . S
C3692 C3693 1.363 . S
C3692 C3697 1.379 . S
C3692 N3699 1.356 . S
C3693 C3692 1.363 . S
C3693 C3696 1.363 . S
N3694 C3696 1.356 . S
N3694 H3706 0.984 . S
N3694 H3707 0.985 . S
N3695 C3697 1.356 . S
N3695 H3700 0.984 . S
N3695 H3701 0.985 . S
C3696 C3690 1.379 . S
C3696 C3693 1.363 . S
C3696 N3694 1.356 . S
C3697 C3691 1.363 . S
C3697 C3692 1.379 . S
C3697 N3695 1.356 . S
N3698 C3690 1.356 . S
N3698 H3704 0.984 . S
N3698 H3705 0.984 . S
N3699 C3692 1.356 . S
N3699 H3702 0.984 . S
N3699 H3703 0.985 . S
H3700 N3695 0.984 . S
H3701 N3695 0.985 . S
H3702 N3699 0.984 . S
H3703 N3699 0.985 . S
H3704 N3698 0.984 . S
H3705 N3698 0.984 . S
H3706 N3694 0.984 . S
H3707 N3694 0.985 . S
C3708 C3709 1.363 . S
C3708 C3714 1.379 . S
C3708 N3716 1.356 . S
C3709 C3708 1.363 . S
C3709 C3715 1.363 . S
C3710 C3711 1.363 . S
C3710 C3715 1.379 . S
C3710 N3717 1.356 . S
C3711 C3710 1.363 . S
C3711 C3714 1.363 . S
N3712 C3714 1.356 . S
N3712 H3724 0.984 . S
N3712 H3725 0.985 . S
N3713 C3715 1.356 . S
N3713 H3718 0.984 . S
N3713 H3719 0.985 . S
C3714 C3708 1.379 . S
C3714 C3711 1.363 . S
C3714 N3712 1.356 . S
C3715 C3709 1.363 . S
C3715 C3710 1.379 . S
C3715 N3713 1.356 . S
N3716 C3708 1.356 . S
N3716 H3722 0.984 . S
N3716 H3723 0.984 . S
N3717 C3710 1.356 . S
N3717 H3720 0.984 . S
N3717 H3721 0.985 . S
H3718 N3713 0.984 . S
H3719 N3713 0.985 . S
H3720 N3717 0.984 . S
H3721 N3717 0.985 . S
H3722 N3716 0.984 . S
H3723 N3716 0.984 . S
H3724 N3712 0.984 . S
H3725 N3712 0.985 . S
C3726 C3727 1.363 . S
C3726 C3732 1.379 . S
C3726 N3734 1.356 . S
C3727 C3726 1.363 . S
C3727 C3733 1.363 . S
C3728 C3729 1.363 . S
C3728 C3733 1.379 . S
C3728 N3735 1.356 . S
C3729 C3728 1.363 . S
C3729 C3732 1.363 . S
N3730 C3732 1.356 . S
N3730 H3742 0.984 . S
N3730 H3743 0.985 . S
N3731 C3733 1.356 . S
N3731 H3736 0.984 . S
N3731 H3737 0.985 . S
C3732 C3726 1.379 . S
C3732 C3729 1.363 . S
C3732 N3730 1.356 . S
C3733 C3727 1.363 . S
C3733 C3728 1.379 . S
C3733 N3731 1.356 . S
N3734 C3726 1.356 . S
N3734 H3740 0.984 . S
N3734 H3741 0.984 . S
N3735 C3728 1.356 . S
N3735 H3738 0.984 . S
N3735 H3739 0.985 . S
H3736 N3731 0.984 . S
H3737 N3731 0.985 . S
H3738 N3735 0.984 . S
H3739 N3735 0.985 . S
H3740 N3734 0.984 . S
H3741 N3734 0.984 . S
H3742 N3730 0.984 . S
H3743 N3730 0.985 . S
C1585 C549 1.025 . S
C1587 C21 1.025 . S
C1603 C54 1.014 . S
C1605 C978 1.014 . S
C1621 C615 1.010 . S
C1623 C87 1.010 . S
C1639 C1044 0.946 . S
C1641 C120 0.945 . S
C1657 C153 1.030 . S
C1659 C417 1.030 . S
C1675 C846 1.048 . S
C1677 C186 1.048 . S
C1693 C483 1.010 . S
C1695 C219 1.009 1_655 S
C1711 C252 1.002 . S
C1713 C912 1.002 . S
C1729 C285 0.933 . S
C1731 C1572 0.933 . S
C1747 C318 1.107 . S
C1749 C1539 1.107 . S
C1765 C351 1.102 . S
C1767 C1506 1.102 . S
C1783 C1473 0.941 . S
C1785 C384 0.941 . S
C1801 C1374 1.014 . S
C1803 C450 1.014 . S
C1819 C516 0.949 . S
C1821 C1440 0.949 . S
C1837 C1242 1.048 . S
C1839 C582 1.048 . S
C1855 C648 0.998 . S
C1857 C1308 0.998 . S
C1873 C681 0.931 . S
C1875 C1176 0.931 . S
C1891 C1143 1.103 . S
C1893 C714 1.103 . S
C1909 C1110 1.104 . S
C1911 C747 1.104 . S
C1927 C780 0.940 . S
C1929 C1077 0.939 . S
C1945 C813 1.009 . S
C1947 C1341 1.009 . S
C1963 C879 1.028 . S
C1965 C1407 1.028 . S
C1981 C945 1.005 . S
C1983 C1209 1.005 . S
C1999 C1011 1.027 . S
C2001 C1275 1.027 . S
C2017 C117 1.721 . S
C2019 N13 1.588 . S
C2035 N35 1.513 . S
C2037 C7 1.681 . S
C2053 C51 1.710 . S
C2055 N68 1.528 . S
C2071 N101 1.508 . S
C2073 C84 1.691 . S
C2089 N134 1.529 . S
C2091 C172 1.693 . S
C2107 C216 1.773 . S
C2109 N178 1.638 . S
C2125 N200 1.543 . S
C2127 C238 1.717 . S
C2143 N244 1.605 . S
C2145 C150 1.732 . S
C2161 N112 1.564 . S
C2163 C282 1.698 . S
C2179 C348 1.717 . S
C2181 N2 1.538 . S
C2197 C381 1.723 . S
C2199 N46 1.591 . S
C2215 C304 1.697 . S
C2217 N79 1.588 . S
C2233 C315 1.741 . S
C2235 N167 1.559 . S
C2251 C271 1.665 . S
C2253 N211 1.558 . S
C2269 N233 1.572 . S
C2271 C337 1.739 . S
C2287 N145 1.541 . S
C2289 C370 1.652 . S
C2305 C18 1.683 . S
C2307 N277 1.559 . S
C2323 C139 1.738 . S
C2325 N310 1.625 . S
C2341 N266 1.484 . S
C2343 C183 1.665 . S
C2359 C205 1.725 . S
C2361 N332 1.562 . S
C2377 N365 1.503 . S
C2379 C249 1.683 . S
C2395 C73 1.654 . S
C2397 N376 1.548 . S
C2413 N299 1.527 . S
C2415 C106 1.699 . S
C2431 C40 1.772 . S
C2433 N343 1.652 . S
C2449 C513 1.691 . S
C2451 N409 1.560 . S
C2467 C403 1.684 . S
C2469 N431 1.514 . S
C2485 N464 1.509 . S
C2487 C447 1.695 . S
C2503 N497 1.488 . S
C2505 C480 1.669 . S
C2521 N530 1.548 . S
C2523 C568 1.714 . S
C2539 N574 1.656 . S
C2541 C612 1.788 . S
C2557 N596 1.541 . S
C2559 C634 1.714 . S
C2575 C546 1.760 . S
C2577 N640 1.631 . S
C2593 C678 1.679 . S
C2595 N508 1.545 . S
C2611 C744 1.728 . S
C2613 N398 1.545 . S
C2629 N442 1.593 . S
C2631 C777 1.726 . S
C2647 C711 1.723 . S
C2649 N475 1.597 . S
C2665 C700 1.717 . S
C2667 N563 1.552 . S
C2683 N607 1.554 . S
C2685 C667 1.662 . S
C2701 C733 1.727 . S
C2703 N629 1.563 . S
C2719 C766 1.669 . S
C2721 N541 1.558 . S
C2737 N673 1.556 . S
C2739 C414 1.679 . S
C2755 C535 1.728 . S
C2757 N695 1.561 . S
C2773 N662 1.484 . S
C2775 C579 1.667 . S
C2791 N728 1.564 . S
C2793 C601 1.738 . S
C2809 N761 1.505 . S
C2811 C645 1.687 . S
C2827 N772 1.546 . S
C2829 C469 1.653 . S
C2845 C502 1.709 . S
C2847 N706 1.592 . S
C2863 N739 1.645 . S
C2865 C436 1.757 . S
C2881 N805 1.585 . S
C2883 C909 1.714 . S
C2899 N827 1.529 . S
C2901 C799 1.700 . S
C2917 N860 1.549 . S
C2919 C843 1.739 . S
C2935 C876 1.654 . S
C2937 N893 1.475 . S
C2953 N926 1.558 . S
C2955 C964 1.725 . S
C2971 N970 1.627 . S
C2973 C1008 1.760 . S
C2989 N992 1.530 . S
C2991 C1030 1.704 . S
C3007 C942 1.722 . S
C3009 N1036 1.594 . S
C3025 N904 1.540 . S
C3027 C1074 1.674 . S
C3043 N794 1.548 . S
C3045 C1129 1.715 . S
C3061 C1173 1.742 . S
C3063 N838 1.608 . S
C3079 C1107 1.741 . S
C3081 N871 1.616 . S
C3097 C1096 1.681 . S
C3099 N959 1.519 . S
C3115 C1063 1.651 . S
C3117 N1003 1.544 . S
C3133 C1140 1.722 . S
C3135 N1025 1.545 . S
C3151 C1162 1.688 . S
C3153 N937 1.576 . S
C3169 N1069 1.546 . S
C3171 C810 1.669 . S
C3187 C931 1.697 . S
C3189 N1091 1.528 . S
C3205 N1058 1.500 . S
C3207 C975 1.684 . S
C3223 C997 1.727 . S
C3225 N1135 1.612 . S
C3241 N1157 1.512 . S
C3243 C1041 1.696 . S
C3259 N1168 1.532 . S
C3261 C865 1.639 . S
C3277 N1102 1.627 . S
C3279 C898 1.742 . S
C3295 N1124 1.606 . S
C3297 C832 1.775 . S
C3313 N1201 1.613 . S
C3315 C1305 1.743 . S
C3331 N1223 1.528 . S
C3333 C1195 1.697 . S
C3349 N1256 1.568 . S
C3351 C1239 1.754 . S
C3367 N1289 1.495 . S
C3369 C1272 1.676 . S
C3385 N1322 1.538 . S
C3387 C1360 1.704 . S
C3403 N1366 1.610 . S
C3405 C1404 1.745 . S
C3421 N1388 1.531 . S
C3423 C1426 1.707 . S
C3439 N1432 1.567 . S
C3441 C1338 1.694 . S
C3457 N1300 1.559 . S
C3459 C1470 1.693 . S
C3475 N1190 1.540 . S
C3477 C1525 1.704 . S
C3493 N1234 1.605 . S
C3495 C1569 1.739 . S
C3511 N1267 1.608 . S
C3513 C1492 1.715 . S
C3529 C1503 1.705 . S
C3531 N1355 1.528 . S
C3547 C1459 1.654 . S
C3549 N1399 1.546 . S
C3565 N1421 1.552 . S
C3567 C1536 1.734 . S
C3583 N1333 1.560 . S
C3585 C1558 1.671 . S
C3601 C1206 1.672 . S
C3603 N1465 1.549 . S
C3619 N1498 1.594 . S
C3621 C1327 1.710 . S
C3637 C1371 1.683 . S
C3639 N1454 1.500 . S
C3655 N1531 1.606 . S
C3657 C1393 1.713 . S
C3673 C1437 1.691 . S
C3675 N1553 1.509 . S
C3691 C1261 1.640 . S
C3693 N1564 1.534 . S
C3709 N1487 1.564 . S
C3711 C1294 1.734 . S
C3727 C1228 1.789 . S
C3729 N1520 1.609 . S
