# Generated by pormake.
# Topology una, (4)-cn, num edge types: 1
# Building blocks:
#     Node 0, Type 0, BuildingBlock: KUFVIS_clean_sbu_0, # of connection points: 4
#     Node 1, Type 0, BuildingBlock: KUFVIS_clean_sbu_0, # of connection points: 4
#     Node 2, Type 0, BuildingBlock: KUFVIS_clean_sbu_0, # of connection points: 4
#     Node 3, Type 0, BuildingBlock: KUFVIS_clean_sbu_0, # of connection points: 4
#     Node 4, Type 0, BuildingBlock: KUFVIS_clean_sbu_0, # of connection points: 4
#     Node 5, Type 0, BuildingBlock: KUFVIS_clean_sbu_0, # of connection points: 4
#     Node 6, Type 0, BuildingBlock: KUFVIS_clean_sbu_0, # of connection points: 4
#     Node 7, Type 0, BuildingBlock: KUFVIS_clean_sbu_0, # of connection points: 4
#     Node 8, Type 0, BuildingBlock: KUFVIS_clean_sbu_0, # of connection points: 4
#     Node 9, Type 0, BuildingBlock: KUFVIS_clean_sbu_0, # of connection points: 4
#     Node 10, Type 0, BuildingBlock: KUFVIS_clean_sbu_0, # of connection points: 4
#     Node 11, Type 0, BuildingBlock: KUFVIS_clean_sbu_0, # of connection points: 4
#     Edge 12, Type (0, 0), None
#     Edge 13, Type (0, 0), None
#     Edge 14, Type (0, 0), None
#     Edge 15, Type (0, 0), None
#     Edge 16, Type (0, 0), None
#     Edge 17, Type (0, 0), None
#     Edge 18, Type (0, 0), None
#     Edge 19, Type (0, 0), None
#     Edge 20, Type (0, 0), None
#     Edge 21, Type (0, 0), None
#     Edge 22, Type (0, 0), None
#     Edge 23, Type (0, 0), None
#     Edge 24, Type (0, 0), None
#     Edge 25, Type (0, 0), None
#     Edge 26, Type (0, 0), None
#     Edge 27, Type (0, 0), None
#     Edge 28, Type (0, 0), None
#     Edge 29, Type (0, 0), None
#     Edge 30, Type (0, 0), None
#     Edge 31, Type (0, 0), None
#     Edge 32, Type (0, 0), None
#     Edge 33, Type (0, 0), None
#     Edge 34, Type (0, 0), None
#     Edge 35, Type (0, 0), None
# Relax obj value: 0.036
# Max RMSD: 0.075
# Mean RMSD: 0.075
data_MOF--net-una--node1-KUFVIS_clean_sbu_0--edge1-none
_symmetry_space_group_name_H-M    P1
_symmetry_Int_Tables_number       1
_symmetry_cell_setting            triclinic
loop_
_symmetry_equiv_pos_as_xyz
'x, y, z'
_cell_length_a     26.414372
_cell_length_b     26.413423
_cell_length_c     10.769027
_cell_angle_alpha  89.997178
_cell_angle_beta   90.001821
_cell_angle_gamma 119.99847
loop_
_atom_site_label
_atom_site_type_symbol
_atom_site_fract_x
_atom_site_fract_y
_atom_site_fract_z
_atom_type_partial_charge
Mn0 Mn 0.13834 0.41588 0.02369 0.0
Mn1 Mn 0.11143 0.47633 0.8002 0.0
C2 C 0.19566 0.4258 0.83181 0.0
C3 C 0.18552 0.40029 0.20959 0.0
C4 C 0.02722 0.37474 0.89697 0.0
O5 O 0.11711 0.48531 0.10266 0.0
O6 O 0.12636 0.54024 0.93845 0.0
C7 C 0.17181 0.58912 0.70371 0.0
N8 N 0.15918 0.52755 0.68776 0.0
C9 C 0.22941 0.54058 0.46854 0.0
C10 C 0.26931 0.61498 0.45126 0.0
C11 C 0.25488 0.65981 0.54509 0.0
C12 C 0.1806 0.50287 0.58587 0.0
H13 H 0.14126 0.59402 0.76184 0.0
C14 C 0.1216 0.53463 0.05937 0.0
O15 O 0.13168 0.36492 0.18176 0.0
O16 O 0.20696 0.44503 0.13724 0.0
N17 N 0.10068 0.41912 0.66705 0.0
C18 C 0.06766 0.3593 0.65673 0.0
C19 C 0.05176 0.33313 0.53992 0.0
C20 C 0.07495 0.36806 0.43553 0.0
C21 C 0.12125 0.42546 0.45076 0.0
C22 C 0.13744 0.44671 0.56961 0.0
H23 H 0.05509 0.32984 0.73318 0.0
O24 O 0.17846 0.38327 0.91037 0.0
O25 O 0.17608 0.46178 0.86461 0.0
O26 O 0.05694 0.35342 0.93892 0.0
O27 O 0.05098 0.42742 0.91187 0.0
C28 C 0.14771 0.46247 0.35043 0.0
C29 C 0.20333 0.51428 0.35412 0.0
H30 H 0.29458 0.63188 0.36769 0.0
H31 H 0.27607 0.70699 0.53392 0.0
H32 H 0.02175 0.28665 0.53079 0.0
H33 H 0.05936 0.34927 0.34475 0.0
H34 H 0.12566 0.44561 0.26665 0.0
H35 H 0.22101 0.53796 0.26826 0.0
Mn36 Mn 0.72278 0.13804 0.19046 0.0
Mn37 Mn 0.6355 0.11123 0.96687 0.0
C38 C 0.77021 0.1954 -0.00141 0.0
C39 C 0.78556 0.18522 0.37632 0.0
C40 C 0.65275 0.02693 0.06369 0.0
O41 O 0.63214 0.11688 0.26938 0.0
O42 O 0.58649 0.12615 0.1051 0.0
C43 C 0.58322 0.17174 0.8702 0.0
N44 N 0.63214 0.15905 0.85436 0.0
C45 C 0.68912 0.22887 0.63448 0.0
C46 C 0.65462 0.26875 0.61688 0.0
C47 C 0.59548 0.25452 0.71084 0.0
C48 C 0.67812 0.18026 0.75222 0.0
H49 H 0.54781 0.14128 0.92851 0.0
C50 C 0.5873 0.12135 0.22603 0.0
O51 O 0.7671 0.13137 0.34851 0.0
O52 O 0.76225 0.20664 0.30395 0.0
N53 N 0.68198 0.10042 0.83385 0.0
C54 C 0.7089 0.06749 0.82383 0.0
C55 C 0.71923 0.05152 0.70716 0.0
C56 C 0.70743 0.07454 0.60259 0.0
C57 C 0.69618 0.12075 0.61749 0.0
C58 C 0.69109 0.13706 0.73622 0.0
H59 H 0.7258 0.05501 0.9004 0.0
O60 O 0.79552 0.17815 0.0771 0.0
O61 O 0.71467 0.17582 0.03139 0.0
O62 O 0.70377 0.0566 0.10576 0.0
O63 O 0.62387 0.05074 0.07853 0.0
C64 C 0.6855 0.147 0.51696 0.0
C65 C 0.68926 0.2026 0.52026 0.0
H66 H 0.6629 0.29388 0.53309 0.0
H67 H 0.56948 0.27568 0.69946 0.0
H68 H 0.7358 0.02158 0.69828 0.0
H69 H 0.71072 0.05892 0.5119 0.0
H70 H 0.68025 0.12478 0.43333 0.0
H71 H 0.68316 0.22014 0.43429 0.0
Mn72 Mn 0.58504 0.72253 0.357 0.0
Mn73 Mn 0.52457 0.63517 0.1335 0.0
C74 C 0.57512 0.76993 0.16512 0.0
C75 C 0.60064 0.7853 0.54289 0.0
C76 C 0.62618 0.65255 0.23022 0.0
O77 O 0.51562 0.63186 0.43597 0.0
O78 O 0.46067 0.58619 0.27178 0.0
C79 C 0.41178 0.58279 0.03705 0.0
N80 N 0.47335 0.63174 0.0211 0.0
C81 C 0.46031 0.68893 0.80186 0.0
C82 C 0.38591 0.65443 0.78459 0.0
C83 C 0.34109 0.59517 0.87843 0.0
C84 C 0.49803 0.67783 0.91919 0.0
H85 H 0.40688 0.54734 0.09518 0.0
C86 C 0.46629 0.58703 0.3927 0.0
O87 O 0.63601 0.76682 0.51506 0.0
O88 O 0.5559 0.76201 0.47054 0.0
N89 N 0.58177 0.68163 0.00032 0.0
C90 C 0.64159 0.70842 -0.01002 0.0
C91 C 0.66773 0.71865 0.87316 0.0
C92 C 0.63279 0.7069 0.76879 0.0
C93 C 0.57541 0.69583 0.78404 0.0
C94 C 0.55418 0.6908 0.9029 0.0
H95 H 0.67105 0.7253 0.06642 0.0
O96 O 0.61766 0.79526 0.24368 0.0
O97 O 0.53914 0.71438 0.19792 0.0
O98 O 0.6475 0.70358 0.2722 0.0
O99 O 0.5735 0.62362 0.24511 0.0
C100 C 0.53839 0.68531 0.68373 0.0
C101 C 0.4866 0.68914 0.68743 0.0
H102 H 0.36902 0.66281 0.70102 0.0
H103 H 0.29392 0.56919 0.86728 0.0
H104 H 0.71421 0.7351 0.86399 0.0
H105 H 0.65157 0.71008 0.67799 0.0
H106 H 0.55525 0.68012 0.59995 0.0
H107 H 0.46292 0.68315 0.60158 0.0
Mn108 Mn 0.86288 0.5848 0.52373 0.0
Mn109 Mn 0.88967 0.5243 0.30014 0.0
C110 C 0.80552 0.57487 0.33187 0.0
C111 C 0.8157 0.6004 0.7096 0.0
C112 C 0.97398 0.62586 0.39692 0.0
O113 O 0.88405 0.51532 0.60265 0.0
O114 O 0.87475 0.46038 0.4384 0.0
C115 C 0.82913 0.41151 0.20352 0.0
N116 N 0.84182 0.47312 0.18767 0.0
C117 C 0.77201 0.46029 -0.03221 0.0
C118 C 0.73212 0.38591 0.9502 0.0
C119 C 0.74635 0.34099 0.04417 0.0
C120 C 0.82062 0.4979 0.08552 0.0
H121 H 0.85958 0.40655 0.26183 0.0
C122 C 0.87957 0.466 0.55933 0.0
O123 O 0.86955 0.63579 0.68178 0.0
O124 O 0.79428 0.55567 0.63724 0.0
N125 N 0.90048 0.58158 0.1671 0.0
C126 C 0.93342 0.64143 0.15705 0.0
C127 C 0.9494 0.66772 0.04036 0.0
C128 C 0.92637 0.63289 0.93581 0.0
C129 C 0.88014 0.57543 0.95074 0.0
C130 C 0.86383 0.55406 0.06948 0.0
H131 H 0.94589 0.67081 0.2336 0.0
O132 O 0.82277 0.61743 0.41038 0.0
O133 O 0.82509 0.5389 0.36468 0.0
O134 O 0.94431 0.64721 0.43901 0.0
O135 O 0.95019 0.57317 0.41174 0.0
C136 C 0.85387 0.53851 0.85024 0.0
C137 C 0.79827 0.48668 0.85355 0.0
H138 H 0.70699 0.36906 0.86642 0.0
H139 H 0.72519 0.29383 0.03281 0.0
H140 H 0.97935 0.71422 0.03146 0.0
H141 H 0.942 0.65179 0.84511 0.0
H142 H 0.87609 0.55547 0.7666 0.0
H143 H 0.78073 0.46305 0.76759 0.0
Mn144 Mn 0.2784 0.86259 0.69032 0.0
Mn145 Mn 0.36576 0.8895 0.46684 0.0
C146 C 0.231 0.80527 0.49844 0.0
C147 C 0.21563 0.81541 0.87621 0.0
C148 C 0.34838 0.97371 0.56359 0.0
O149 O 0.36906 0.88382 0.76931 0.0
O150 O 0.41474 0.87457 0.6051 0.0
C151 C 0.41815 0.82909 0.37036 0.0
N152 N 0.36921 0.84174 0.3544 0.0
C153 C 0.31201 0.77152 0.13517 0.0
C154 C 0.34649 0.7316 0.11791 0.0
C155 C 0.40574 0.74601 0.21175 0.0
C156 C 0.32312 0.82034 0.2525 0.0
H157 H 0.45359 0.85963 0.4285 0.0
C158 C 0.4139 0.87933 0.72602 0.0
O159 O 0.23411 0.86926 0.84837 0.0
O160 O 0.23893 0.79397 0.80387 0.0
N161 N 0.31929 0.90026 0.33368 0.0
C162 C 0.29248 0.93327 0.32337 0.0
C163 C 0.28223 0.94918 0.20655 0.0
C164 C 0.29397 0.926 0.10217 0.0
C165 C 0.30508 0.8797 0.11739 0.0
C166 C 0.31013 0.8635 0.23624 0.0
H167 H 0.2756 0.94584 0.39981 0.0
O168 O 0.20567 0.82247 0.577 0.0
O169 O 0.28656 0.82485 0.53124 0.0
O170 O 0.29734 0.944 0.60554 0.0
O171 O 0.37729 0.94995 0.57851 0.0
C172 C 0.31563 0.85324 0.01707 0.0
C173 C 0.3118 0.79761 0.02075 0.0
H174 H 0.33809 0.70632 0.03434 0.0
H175 H 0.43171 0.72481 0.2006 0.0
H176 H 0.26575 0.97918 0.19742 0.0
H177 H 0.29077 0.94159 0.01138 0.0
H178 H 0.32082 0.8753 0.93329 0.0
H179 H 0.31779 0.77992 0.9349 0.0
Mn180 Mn 0.41615 0.27816 0.85709 0.0
Mn181 Mn 0.47662 0.36545 0.6335 0.0
C182 C 0.42608 0.23073 0.66522 0.0
C183 C 0.40056 0.21539 0.04296 0.0
C184 C 0.37507 0.3482 0.73034 0.0
O185 O 0.48563 0.3688 0.93601 0.0
O186 O 0.54055 0.41446 0.77173 0.0
C187 C 0.5894 0.41771 0.53684 0.0
N188 N 0.52779 0.3688 0.52099 0.0
C189 C 0.5406 0.3118 0.30113 0.0
C190 C 0.61498 0.34629 0.28353 0.0
C191 C 0.65991 0.40543 0.37749 0.0
C192 C 0.50301 0.32282 0.41886 0.0
H193 H 0.59437 0.45312 0.59515 0.0
C194 C 0.53493 0.41364 0.89266 0.0
O195 O 0.36517 0.23384 0.01513 0.0
O196 O 0.44529 0.23869 -0.02941 0.0
N197 N 0.41932 0.31897 0.50048 0.0
C198 C 0.35947 0.29205 0.49047 0.0
C199 C 0.33316 0.28172 0.3738 0.0
C200 C 0.36798 0.29351 0.26922 0.0
C201 C 0.42545 0.30477 0.28413 0.0
C202 C 0.44684 0.30985 0.40285 0.0
H203 H 0.3301 0.27516 0.56704 0.0
O204 O 0.38352 0.20542 0.74374 0.0
O205 O 0.46205 0.28628 0.69802 0.0
O206 O 0.35373 0.29717 0.7724 0.0
O207 O 0.42776 0.37708 0.74516 0.0
C208 C 0.46236 0.31544 0.1836 0.0
C209 C 0.5142 0.31168 0.1869 0.0
H210 H 0.63182 0.33799 0.19975 0.0
H211 H 0.70706 0.43142 0.36613 0.0
H212 H 0.28666 0.26514 0.36492 0.0
H213 H 0.34907 0.29021 0.17853 0.0
H214 H 0.4454 0.3207 0.09997 0.0
H215 H 0.53783 0.31777 0.10093 0.0
Mn216 Mn 0.58505 0.86264 0.8527 0.0
Mn217 Mn 0.52455 0.88947 0.07624 0.0
C218 C 0.57513 0.80531 0.04459 0.0
C219 C 0.60063 0.81549 0.66678 0.0
C220 C 0.62614 0.97373 -0.02042 0.0
O221 O 0.5156 0.88384 0.77376 0.0
O222 O 0.46065 0.87455 0.93798 0.0
C223 C 0.41176 0.82901 0.17275 0.0
N224 N 0.47335 0.84166 0.18867 0.0
C225 C 0.46039 0.77161 0.40818 0.0
C226 C 0.386 0.73172 0.42559 0.0
C227 C 0.34114 0.74607 0.33169 0.0
C228 C 0.49806 0.82034 0.29068 0.0
H229 H 0.40683 0.85952 0.11454 0.0
C230 C 0.46627 0.87934 0.81706 0.0
O231 O 0.63604 0.86933 0.69466 0.0
O232 O 0.55591 0.79403 0.73917 0.0
N233 N 0.58179 0.90023 0.20936 0.0
C234 C 0.64162 0.93318 0.21956 0.0
C235 C 0.66783 0.94913 0.33632 0.0
C236 C 0.63293 0.92604 0.44077 0.0
C237 C 0.57551 0.87977 0.42566 0.0
C238 C 0.55422 0.86352 0.30686 0.0
H239 H 0.67104 0.94568 0.14306 0.0
O240 O 0.61767 0.82252 0.96605 0.0
O241 O 0.53915 0.82487 0.01176 0.0
O242 O 0.64749 0.94407 0.93747 0.0
O243 O 0.57347 0.94997 0.96464 0.0
C244 C 0.53853 0.85339 0.52606 0.0
C245 C 0.48673 0.79777 0.52253 0.0
H246 H 0.36913 0.7065 0.50925 0.0
H247 H 0.29398 0.72489 0.34295 0.0
H248 H 0.71432 0.9791 0.34536 0.0
H249 H 0.65176 0.94166 0.53152 0.0
H250 H 0.55544 0.87551 0.60977 0.0
H251 H 0.46307 0.78014 0.60843 0.0
Mn252 Mn 0.72276 0.58478 0.01944 0.0
Mn253 Mn 0.63537 0.52431 0.24288 0.0
C254 C 0.77014 0.57487 0.21134 0.0
C255 C 0.78549 0.60036 0.83349 0.0
C256 C 0.65281 0.62594 0.14626 0.0
O257 O 0.6321 0.51537 0.94044 0.0
O258 O 0.58642 0.46042 0.1046 0.0
C259 C 0.5829 0.41151 0.33924 0.0
N260 N 0.63187 0.47307 0.35525 0.0
C261 C 0.68917 0.45991 0.57412 0.0
C262 C 0.65468 0.3855 0.5912 0.0
C263 C 0.59536 0.34072 0.49744 0.0
C264 C 0.67801 0.49769 0.45702 0.0
H265 H 0.54743 0.40665 0.2812 0.0
C266 C 0.58728 0.46603 -0.01631 0.0
O267 O 0.76704 0.63575 0.86138 0.0
O268 O 0.76224 0.55563 0.90587 0.0
N269 N 0.68181 0.58147 0.37612 0.0
C270 C 0.70858 0.64128 0.38661 0.0
C271 C 0.71877 0.66735 0.50351 0.0
C272 C 0.70703 0.63235 0.60778 0.0
C273 C 0.69602 0.57499 0.59236 0.0
C274 C 0.69101 0.55383 0.47344 0.0
H275 H 0.72547 0.67078 0.31023 0.0
O276 O 0.79549 0.61739 0.13276 0.0
O277 O 0.71459 0.53888 0.17853 0.0
O278 O 0.70384 0.64726 0.10427 0.0
O279 O 0.62388 0.57327 0.13124 0.0
C280 C 0.68556 0.53792 0.69256 0.0
C281 C 0.68943 0.48615 0.68865 0.0
H282 H 0.66312 0.36858 0.67465 0.0
H283 H 0.56939 0.29354 0.50849 0.0
H284 H 0.73519 0.71382 0.5128 0.0
H285 H 0.71016 0.65106 0.69862 0.0
H286 H 0.6804 0.55472 0.77642 0.0
H287 H 0.6835 0.46243 0.77443 0.0
Mn288 Mn 0.13829 0.72249 0.18602 0.0
Mn289 Mn 0.11144 0.63515 0.40955 0.0
C290 C 0.19562 0.7699 0.37791 0.0
C291 C 0.18544 0.78522 0.00011 0.0
C292 C 0.02719 0.65248 0.31284 0.0
O293 O 0.11711 0.63184 0.10708 0.0
O294 O 0.12637 0.58617 0.27132 0.0
C295 C 0.17189 0.58282 0.50611 0.0
N296 N 0.15922 0.63174 0.52202 0.0
C297 C 0.22927 0.68886 0.74151 0.0
C298 C 0.26917 0.65437 0.75893 0.0
C299 C 0.25485 0.59517 0.66505 0.0
C300 C 0.18054 0.67779 0.62401 0.0
H301 H 0.14139 0.54738 0.4479 0.0
C302 C 0.1216 0.58701 0.15039 0.0
O303 O 0.13161 0.76679 0.02798 0.0
O304 O 0.20691 0.76196 0.0725 0.0
N305 N 0.10065 0.68163 0.54264 0.0
C306 C 0.06771 0.70852 0.55282 0.0
C307 C 0.05177 0.7188 0.66957 0.0
C308 C 0.07486 0.70701 0.77404 0.0
C309 C 0.12111 0.69583 0.75896 0.0
C310 C 0.13736 0.69076 0.64017 0.0
H311 H 0.05519 0.72542 0.47631 0.0
O312 O 0.1784 0.79522 0.29937 0.0
O313 O 0.17605 0.71435 0.3451 0.0
O314 O 0.05685 0.7035 0.27075 0.0
O315 O 0.05097 0.62358 0.2979 0.0
C316 C 0.14748 0.68522 0.85937 0.0
C317 C 0.2031 0.68903 0.85585 0.0
H318 H 0.29439 0.66273 0.84259 0.0
H319 H 0.27604 0.56919 0.67629 0.0
H320 H 0.02181 0.73534 0.67858 0.0
H321 H 0.05925 0.71025 0.86478 0.0
H322 H 0.12534 0.67999 0.94308 0.0
H323 H 0.22073 0.683 0.94176 0.0
Mn324 Mn 0.41617 0.13806 0.3528 0.0
Mn325 Mn 0.47662 0.11111 0.57623 0.0
C326 C 0.42608 0.19535 0.54469 0.0
C327 C 0.4006 0.18521 0.16685 0.0
C328 C 0.375 0.02695 0.4796 0.0
O329 O 0.48558 0.1168 0.2738 0.0
O330 O 0.54051 0.12604 0.43797 0.0
C331 C 0.58942 0.17144 0.6726 0.0
N332 N 0.52786 0.15883 0.68862 0.0
C333 C 0.54099 0.22929 0.90747 0.0
C334 C 0.6154 0.26921 0.92455 0.0
C335 C 0.66019 0.25469 0.83079 0.0
C336 C 0.50323 0.18036 0.79038 0.0
H337 H 0.5943 0.14085 0.61456 0.0
C338 C 0.53491 0.1213 0.31706 0.0
O339 O 0.36521 0.13138 0.19475 0.0
O340 O 0.44534 0.2067 0.23922 0.0
N341 N 0.41945 0.10039 0.70946 0.0
C342 C 0.35964 0.06737 0.71993 0.0
C343 C 0.33355 0.0515 0.83682 0.0
C344 C 0.36855 0.07475 0.94111 0.0
C345 C 0.42592 0.12108 0.9257 0.0
C346 C 0.44709 0.13721 0.80679 0.0
H347 H 0.33014 0.05478 0.64355 0.0
O348 O 0.38357 0.17818 0.4661 0.0
O349 O 0.46207 0.17578 0.51189 0.0
O350 O 0.35368 0.05666 0.43762 0.0
O351 O 0.42766 0.05068 0.46458 0.0
C352 C 0.46298 0.14766 0.02591 0.0
C353 C 0.51476 0.2033 0.022 0.0
H354 H 0.63231 0.29458 0.00799 0.0
H355 H 0.70737 0.27591 0.84183 0.0
H356 H 0.28709 0.02148 0.8461 0.0
H357 H 0.34983 0.05917 0.03195 0.0
H358 H 0.44618 0.12569 0.10977 0.0
H359 H 0.53847 0.22108 0.10779 0.0
Mn360 Mn 0.27845 0.41588 0.5194 0.0
Mn361 Mn 0.36577 0.47638 0.74294 0.0
C362 C 0.23103 0.4258 0.71128 0.0
C363 C 0.21572 0.4003 0.33349 0.0
C364 C 0.34846 0.3748 0.64626 0.0
O365 O 0.3691 0.48534 0.44046 0.0
O366 O 0.41475 0.54029 0.60467 0.0
C367 C 0.41808 0.58918 0.83945 0.0
N368 N 0.36916 0.52758 0.85536 0.0
C369 C 0.31205 0.54052 0.07487 0.0
C370 C 0.34653 0.61491 0.09227 0.0
C371 C 0.40573 0.65978 -0.00163 0.0
C372 C 0.32312 0.50286 0.95737 0.0
H373 H 0.45352 0.59411 0.78124 0.0
C374 C 0.41392 0.53467 0.48375 0.0
O375 O 0.23415 0.3649 0.36137 0.0
O376 O 0.23897 0.44502 0.40587 0.0
N377 N 0.31931 0.41914 0.87605 0.0
C378 C 0.29244 0.3593 0.88625 0.0
C379 C 0.28217 0.33308 0.00301 0.0
C380 C 0.29396 0.36798 0.10746 0.0
C381 C 0.30512 0.42541 0.09235 0.0
C382 C 0.31016 0.4467 -0.02645 0.0
H383 H 0.27553 0.32988 0.80975 0.0
O384 O 0.20571 0.38326 0.63274 0.0
O385 O 0.28658 0.46178 0.67846 0.0
O386 O 0.29745 0.35345 0.60416 0.0
O387 O 0.37737 0.42748 0.63133 0.0
C388 C 0.31571 0.46238 0.19275 0.0
C389 C 0.31189 0.51419 0.18922 0.0
H390 H 0.33817 0.63177 0.17592 0.0
H391 H 0.43171 0.70695 0.00961 0.0
H392 H 0.26565 0.28659 0.01205 0.0
H393 H 0.29074 0.34915 0.19822 0.0
H394 H 0.32093 0.44548 0.27646 0.0
H395 H 0.31791 0.53784 0.27511 0.0
Mn396 Mn 0.86287 0.27816 0.68616 0.0
Mn397 Mn 0.88979 0.36556 0.9096 0.0
C398 C 0.80558 0.23078 0.87806 0.0
C399 C 0.81573 0.21543 0.50022 0.0
C400 C 0.97398 0.34811 0.81301 0.0
O401 O 0.88414 0.36883 0.60715 0.0
O402 O 0.87486 0.41452 0.7713 0.0
C403 C 0.82943 0.41801 0.00592 0.0
N404 N 0.84204 0.36905 0.02195 0.0
C405 C 0.77158 0.31173 0.24081 0.0
C406 C 0.73166 0.34622 0.25787 0.0
C407 C 0.74619 0.40554 0.16411 0.0
C408 C 0.82051 0.3229 0.12372 0.0
H409 H 0.86003 0.45348 0.94788 0.0
C410 C 0.87961 0.41366 0.65039 0.0
O411 O 0.86957 0.23389 0.52811 0.0
O412 O 0.79424 0.23868 0.57258 0.0
N413 N 0.9005 0.31911 0.04285 0.0
C414 C 0.93356 0.29236 0.05336 0.0
C415 C 0.94944 0.28218 0.17027 0.0
C416 C 0.92617 0.29391 0.27453 0.0
C417 C 0.87981 0.30491 0.25909 0.0
C418 C 0.86367 0.30992 0.14016 0.0
H419 H 0.94616 0.27546 -0.02301 0.0
O420 O 0.82276 0.20543 0.79948 0.0
O421 O 0.82514 0.28633 0.84524 0.0
O422 O 0.94427 0.29708 0.77101 0.0
O423 O 0.95025 0.37705 0.798 0.0
C424 C 0.85321 0.31537 0.35928 0.0
C425 C 0.79755 0.31148 0.35535 0.0
H426 H 0.70629 0.33777 0.34132 0.0
H427 H 0.72497 0.4315 0.17513 0.0
H428 H 0.97949 0.26576 0.17958 0.0
H429 H 0.94176 0.29079 0.36538 0.0
H430 H 0.87515 0.32052 0.44314 0.0
H431 H 0.77977 0.31741 0.44113 0.0
loop_
_geom_bond_atom_site_label_1
_geom_bond_atom_site_label_2
_geom_bond_distance
_geom_bond_site_symmetry_2
_ccdc_geom_bond_type
Mn0 O5 2.095 . S
Mn0 O15 2.162 . S
Mn0 O16 2.297 . S
Mn0 O24 2.385 1_554 S
Mn0 O25 2.209 1_554 S
Mn0 O26 2.094 . S
Mn1 O6 2.121 . S
Mn1 N8 2.257 . S
Mn1 N17 2.282 . S
Mn1 O25 2.215 . S
Mn1 O27 2.117 . S
C2 O24 1.234 . S
C2 O25 1.283 . S
C3 O15 1.281 . S
C3 O16 1.236 . S
C4 O26 1.240 1_556 S
C4 O27 1.264 . S
O5 Mn0 2.095 . S
O5 C14 1.250 . S
O6 Mn1 2.121 . S
O6 C14 1.258 1_556 S
C7 N8 1.326 . S
C7 C11 1.460 . S
C7 H13 0.929 . S
N8 Mn1 2.257 . S
N8 C7 1.326 . S
N8 C12 1.362 . S
C9 C10 1.258 . S
C9 C12 1.431 . S
C9 C29 1.449 . S
C10 C9 1.258 . S
C10 C11 1.477 . S
C10 H30 0.931 . S
C11 C7 1.460 . S
C11 C10 1.477 . S
C11 H31 0.930 . S
C12 N8 1.362 . S
C12 C9 1.431 . S
C12 C22 1.476 . S
H13 C7 0.929 . S
C14 O5 1.250 . S
C14 O6 1.258 1_554 S
O15 Mn0 2.162 . S
O15 C3 1.281 . S
O16 Mn0 2.297 . S
O16 C3 1.236 . S
N17 Mn1 2.282 . S
N17 C18 1.328 . S
N17 C22 1.318 . S
C18 N17 1.328 . S
C18 C19 1.457 . S
C18 H23 0.929 . S
C19 C18 1.457 . S
C19 C20 1.291 . S
C19 H32 0.931 . S
C20 C19 1.291 . S
C20 C21 1.373 . S
C20 H33 0.929 . S
C21 C20 1.373 . S
C21 C22 1.396 . S
C21 C28 1.403 . S
C22 C12 1.476 . S
C22 N17 1.318 . S
C22 C21 1.396 . S
H23 C18 0.929 . S
O24 Mn0 2.385 1_556 S
O24 C2 1.234 . S
O25 Mn0 2.209 1_556 S
O25 Mn1 2.215 . S
O25 C2 1.283 . S
O26 Mn0 2.094 . S
O26 C4 1.240 1_554 S
O27 Mn1 2.117 . S
O27 C4 1.264 . S
C28 C21 1.403 . S
C28 C29 1.399 . S
C28 H34 0.929 . S
C29 C9 1.449 . S
C29 C28 1.399 . S
C29 H35 0.930 . S
H30 C10 0.931 . S
H31 C11 0.930 . S
H32 C19 0.931 . S
H33 C20 0.929 . S
H34 C28 0.929 . S
H35 C29 0.930 . S
Mn36 O41 2.095 . S
Mn36 O51 2.162 . S
Mn36 O52 2.297 . S
Mn36 O60 2.385 . S
Mn36 O61 2.209 . S
Mn36 O62 2.094 . S
Mn37 O42 2.121 1_556 S
Mn37 N44 2.257 . S
Mn37 N53 2.282 . S
Mn37 O61 2.215 1_556 S
Mn37 O63 2.117 1_556 S
C38 O60 1.234 . S
C38 O61 1.283 . S
C39 O51 1.281 . S
C39 O52 1.236 . S
C40 O62 1.240 . S
C40 O63 1.264 . S
O41 Mn36 2.095 . S
O41 C50 1.250 . S
O42 Mn37 2.121 1_554 S
O42 C50 1.258 . S
C43 N44 1.326 . S
C43 C47 1.460 . S
C43 H49 0.929 . S
N44 Mn37 2.257 . S
N44 C43 1.326 . S
N44 C48 1.362 . S
C45 C46 1.258 . S
C45 C48 1.431 . S
C45 C65 1.449 . S
C46 C45 1.258 . S
C46 C47 1.477 . S
C46 H66 0.931 . S
C47 C43 1.460 . S
C47 C46 1.477 . S
C47 H67 0.930 . S
C48 N44 1.362 . S
C48 C45 1.431 . S
C48 C58 1.476 . S
H49 C43 0.929 . S
C50 O41 1.250 . S
C50 O42 1.258 . S
O51 Mn36 2.162 . S
O51 C39 1.281 . S
O52 Mn36 2.297 . S
O52 C39 1.236 . S
N53 Mn37 2.282 . S
N53 C54 1.328 . S
N53 C58 1.318 . S
C54 N53 1.328 . S
C54 C55 1.457 . S
C54 H59 0.929 . S
C55 C54 1.457 . S
C55 C56 1.291 . S
C55 H68 0.931 . S
C56 C55 1.291 . S
C56 C57 1.373 . S
C56 H69 0.929 . S
C57 C56 1.373 . S
C57 C58 1.396 . S
C57 C64 1.403 . S
C58 C48 1.476 . S
C58 N53 1.318 . S
C58 C57 1.396 . S
H59 C54 0.929 . S
O60 Mn36 2.385 . S
O60 C38 1.234 . S
O61 Mn36 2.209 . S
O61 Mn37 2.215 1_554 S
O61 C38 1.283 . S
O62 Mn36 2.094 . S
O62 C40 1.240 . S
O63 Mn37 2.117 1_554 S
O63 C40 1.264 . S
C64 C57 1.403 . S
C64 C65 1.399 . S
C64 H70 0.929 . S
C65 C45 1.449 . S
C65 C64 1.399 . S
C65 H71 0.930 . S
H66 C46 0.931 . S
H67 C47 0.930 . S
H68 C55 0.931 . S
H69 C56 0.929 . S
H70 C64 0.929 . S
H71 C65 0.930 . S
Mn72 O77 2.095 . S
Mn72 O87 2.162 . S
Mn72 O88 2.297 . S
Mn72 O96 2.385 . S
Mn72 O97 2.209 . S
Mn72 O98 2.094 . S
Mn73 O78 2.121 . S
Mn73 N80 2.257 . S
Mn73 N89 2.282 1_554 S
Mn73 O97 2.215 . S
Mn73 O99 2.117 . S
C74 O96 1.234 . S
C74 O97 1.283 . S
C75 O87 1.281 . S
C75 O88 1.236 . S
C76 O98 1.240 . S
C76 O99 1.264 . S
O77 Mn72 2.095 . S
O77 C86 1.250 . S
O78 Mn73 2.121 . S
O78 C86 1.258 . S
C79 N80 1.326 . S
C79 C83 1.460 1_554 S
C79 H85 0.929 . S
N80 Mn73 2.257 . S
N80 C79 1.326 . S
N80 C84 1.362 1_554 S
C81 C82 1.258 . S
C81 C84 1.431 . S
C81 C101 1.449 . S
C82 C81 1.258 . S
C82 C83 1.477 . S
C82 H102 0.931 . S
C83 C79 1.460 1_556 S
C83 C82 1.477 . S
C83 H103 0.930 . S
C84 N80 1.362 1_556 S
C84 C81 1.431 . S
C84 C94 1.476 . S
H85 C79 0.929 . S
C86 O77 1.250 . S
C86 O78 1.258 . S
O87 Mn72 2.162 . S
O87 C75 1.281 . S
O88 Mn72 2.297 . S
O88 C75 1.236 . S
N89 Mn73 2.282 1_556 S
N89 C90 1.328 . S
N89 C94 1.318 . S
C90 N89 1.328 . S
C90 C91 1.457 . S
C90 H95 0.929 . S
C91 C90 1.457 . S
C91 C92 1.291 . S
C91 H104 0.931 . S
C92 C91 1.291 . S
C92 C93 1.373 . S
C92 H105 0.929 . S
C93 C92 1.373 . S
C93 C94 1.396 . S
C93 C100 1.403 . S
C94 C84 1.476 . S
C94 N89 1.318 . S
C94 C93 1.396 . S
H95 C90 0.929 . S
O96 Mn72 2.385 . S
O96 C74 1.234 . S
O97 Mn72 2.209 . S
O97 Mn73 2.215 . S
O97 C74 1.283 . S
O98 Mn72 2.094 . S
O98 C76 1.240 . S
O99 Mn73 2.117 . S
O99 C76 1.264 . S
C100 C93 1.403 . S
C100 C101 1.399 . S
C100 H106 0.929 . S
C101 C81 1.449 . S
C101 C100 1.399 . S
C101 H107 0.930 . S
H102 C82 0.931 . S
H103 C83 0.930 . S
H104 C91 0.931 . S
H105 C92 0.929 . S
H106 C100 0.929 . S
H107 C101 0.930 . S
Mn108 O113 2.095 . S
Mn108 O123 2.162 . S
Mn108 O124 2.297 . S
Mn108 O132 2.385 . S
Mn108 O133 2.209 . S
Mn108 O134 2.094 . S
Mn109 O114 2.121 . S
Mn109 N116 2.257 . S
Mn109 N125 2.282 . S
Mn109 O133 2.215 . S
Mn109 O135 2.117 . S
C110 O132 1.234 . S
C110 O133 1.283 . S
C111 O123 1.281 . S
C111 O124 1.236 . S
C112 O134 1.240 . S
C112 O135 1.264 . S
O113 Mn108 2.095 . S
O113 C122 1.250 . S
O114 Mn109 2.121 . S
O114 C122 1.258 . S
C115 N116 1.326 . S
C115 C119 1.460 . S
C115 H121 0.929 . S
N116 Mn109 2.257 . S
N116 C115 1.326 . S
N116 C120 1.362 . S
C117 C118 1.258 . S
C117 C120 1.431 1_556 S
C117 C137 1.449 . S
C118 C117 1.258 . S
C118 C119 1.477 1_556 S
C118 H138 0.931 . S
C119 C115 1.460 . S
C119 C118 1.477 1_554 S
C119 H139 0.930 . S
C120 N116 1.362 . S
C120 C117 1.431 1_554 S
C120 C130 1.476 . S
H121 C115 0.929 . S
C122 O113 1.250 . S
C122 O114 1.258 . S
O123 Mn108 2.162 . S
O123 C111 1.281 . S
O124 Mn108 2.297 . S
O124 C111 1.236 . S
N125 Mn109 2.282 . S
N125 C126 1.328 . S
N125 C130 1.318 . S
C126 N125 1.328 . S
C126 C127 1.457 1_554 S
C126 H131 0.929 . S
C127 C126 1.457 1_556 S
C127 C128 1.291 . S
C127 H140 0.931 . S
C128 C127 1.291 . S
C128 C129 1.373 . S
C128 H141 0.929 . S
C129 C128 1.373 . S
C129 C130 1.396 1_556 S
C129 C136 1.403 . S
C130 C120 1.476 . S
C130 N125 1.318 . S
C130 C129 1.396 1_554 S
H131 C126 0.929 . S
O132 Mn108 2.385 . S
O132 C110 1.234 . S
O133 Mn108 2.209 . S
O133 Mn109 2.215 . S
O133 C110 1.283 . S
O134 Mn108 2.094 . S
O134 C112 1.240 . S
O135 Mn109 2.117 . S
O135 C112 1.264 . S
C136 C129 1.403 . S
C136 C137 1.399 . S
C136 H142 0.929 . S
C137 C117 1.449 . S
C137 C136 1.399 . S
C137 H143 0.930 . S
H138 C118 0.931 . S
H139 C119 0.930 . S
H140 C127 0.931 . S
H141 C128 0.929 . S
H142 C136 0.929 . S
H143 C137 0.930 . S
Mn144 O149 2.095 . S
Mn144 O159 2.162 . S
Mn144 O160 2.297 . S
Mn144 O168 2.385 . S
Mn144 O169 2.209 . S
Mn144 O170 2.094 . S
Mn145 O150 2.121 . S
Mn145 N152 2.257 . S
Mn145 N161 2.282 . S
Mn145 O169 2.215 . S
Mn145 O171 2.117 . S
C146 O168 1.234 . S
C146 O169 1.283 . S
C147 O159 1.281 . S
C147 O160 1.236 . S
C148 O170 1.240 . S
C148 O171 1.264 . S
O149 Mn144 2.095 . S
O149 C158 1.250 . S
O150 Mn145 2.121 . S
O150 C158 1.258 . S
C151 N152 1.326 . S
C151 C155 1.460 . S
C151 H157 0.929 . S
N152 Mn145 2.257 . S
N152 C151 1.326 . S
N152 C156 1.362 . S
C153 C154 1.258 . S
C153 C156 1.431 . S
C153 C173 1.449 1_554 S
C154 C153 1.258 . S
C154 C155 1.477 . S
C154 H174 0.931 . S
C155 C151 1.460 . S
C155 C154 1.477 . S
C155 H175 0.930 . S
C156 N152 1.362 . S
C156 C153 1.431 . S
C156 C166 1.476 . S
H157 C151 0.929 . S
C158 O149 1.250 . S
C158 O150 1.258 . S
O159 Mn144 2.162 . S
O159 C147 1.281 . S
O160 Mn144 2.297 . S
O160 C147 1.236 . S
N161 Mn145 2.282 . S
N161 C162 1.328 . S
N161 C166 1.318 . S
C162 N161 1.328 . S
C162 C163 1.457 . S
C162 H167 0.929 . S
C163 C162 1.457 . S
C163 C164 1.291 . S
C163 H176 0.931 . S
C164 C163 1.291 . S
C164 C165 1.373 . S
C164 H177 0.929 1_554 S
C165 C164 1.373 . S
C165 C166 1.396 . S
C165 C172 1.403 1_554 S
C166 C156 1.476 . S
C166 N161 1.318 . S
C166 C165 1.396 . S
H167 C162 0.929 . S
O168 Mn144 2.385 . S
O168 C146 1.234 . S
O169 Mn144 2.209 . S
O169 Mn145 2.215 . S
O169 C146 1.283 . S
O170 Mn144 2.094 . S
O170 C148 1.240 . S
O171 Mn145 2.117 . S
O171 C148 1.264 . S
C172 C165 1.403 1_556 S
C172 C173 1.399 . S
C172 H178 0.929 . S
C173 C153 1.449 1_556 S
C173 C172 1.399 . S
C173 H179 0.930 . S
H174 C154 0.931 . S
H175 C155 0.930 . S
H176 C163 0.931 . S
H177 C164 0.929 1_556 S
H178 C172 0.929 . S
H179 C173 0.930 . S
Mn180 O185 2.095 . S
Mn180 O195 2.162 1_556 S
Mn180 O196 2.297 1_556 S
Mn180 O204 2.385 . S
Mn180 O205 2.209 . S
Mn180 O206 2.094 . S
Mn181 O186 2.121 . S
Mn181 N188 2.257 . S
Mn181 N197 2.282 . S
Mn181 O205 2.215 . S
Mn181 O207 2.117 . S
C182 O204 1.234 . S
C182 O205 1.283 . S
C183 O195 1.281 . S
C183 O196 1.236 . S
C184 O206 1.240 . S
C184 O207 1.264 . S
O185 Mn180 2.095 . S
O185 C194 1.250 . S
O186 Mn181 2.121 . S
O186 C194 1.258 . S
C187 N188 1.326 . S
C187 C191 1.460 . S
C187 H193 0.929 . S
N188 Mn181 2.257 . S
N188 C187 1.326 . S
N188 C192 1.362 . S
C189 C190 1.258 . S
C189 C192 1.431 . S
C189 C209 1.449 . S
C190 C189 1.258 . S
C190 C191 1.477 . S
C190 H210 0.931 . S
C191 C187 1.460 . S
C191 C190 1.477 . S
C191 H211 0.930 . S
C192 N188 1.362 . S
C192 C189 1.431 . S
C192 C202 1.476 . S
H193 C187 0.929 . S
C194 O185 1.250 . S
C194 O186 1.258 . S
O195 Mn180 2.162 1_554 S
O195 C183 1.281 . S
O196 Mn180 2.297 1_554 S
O196 C183 1.236 . S
N197 Mn181 2.282 . S
N197 C198 1.328 . S
N197 C202 1.318 . S
C198 N197 1.328 . S
C198 C199 1.457 . S
C198 H203 0.929 . S
C199 C198 1.457 . S
C199 C200 1.291 . S
C199 H212 0.931 . S
C200 C199 1.291 . S
C200 C201 1.373 . S
C200 H213 0.929 . S
C201 C200 1.373 . S
C201 C202 1.396 . S
C201 C208 1.403 . S
C202 C192 1.476 . S
C202 N197 1.318 . S
C202 C201 1.396 . S
H203 C198 0.929 . S
O204 Mn180 2.385 . S
O204 C182 1.234 . S
O205 Mn180 2.209 . S
O205 Mn181 2.215 . S
O205 C182 1.283 . S
O206 Mn180 2.094 . S
O206 C184 1.240 . S
O207 Mn181 2.117 . S
O207 C184 1.264 . S
C208 C201 1.403 . S
C208 C209 1.399 . S
C208 H214 0.929 . S
C209 C189 1.449 . S
C209 C208 1.399 . S
C209 H215 0.930 . S
H210 C190 0.931 . S
H211 C191 0.930 . S
H212 C199 0.931 . S
H213 C200 0.929 . S
H214 C208 0.929 . S
H215 C209 0.930 . S
Mn216 O221 2.095 . S
Mn216 O231 2.162 . S
Mn216 O232 2.297 . S
Mn216 O240 2.385 1_556 S
Mn216 O241 2.209 1_556 S
Mn216 O242 2.094 . S
Mn217 O222 2.121 1_554 S
Mn217 N224 2.257 . S
Mn217 N233 2.282 . S
Mn217 O241 2.215 . S
Mn217 O243 2.117 . S
C218 O240 1.234 . S
C218 O241 1.283 . S
C219 O231 1.281 . S
C219 O232 1.236 . S
C220 O242 1.240 1_554 S
C220 O243 1.264 . S
O221 Mn216 2.095 . S
O221 C230 1.250 . S
O222 Mn217 2.121 1_556 S
O222 C230 1.258 . S
C223 N224 1.326 . S
C223 C227 1.460 . S
C223 H229 0.929 . S
N224 Mn217 2.257 . S
N224 C223 1.326 . S
N224 C228 1.362 . S
C225 C226 1.258 . S
C225 C228 1.431 . S
C225 C245 1.449 . S
C226 C225 1.258 . S
C226 C227 1.477 . S
C226 H246 0.931 . S
C227 C223 1.460 . S
C227 C226 1.477 . S
C227 H247 0.930 . S
C228 N224 1.362 . S
C228 C225 1.431 . S
C228 C238 1.476 . S
H229 C223 0.929 . S
C230 O221 1.250 . S
C230 O222 1.258 . S
O231 Mn216 2.162 . S
O231 C219 1.281 . S
O232 Mn216 2.297 . S
O232 C219 1.236 . S
N233 Mn217 2.282 . S
N233 C234 1.328 . S
N233 C238 1.318 . S
C234 N233 1.328 . S
C234 C235 1.457 . S
C234 H239 0.929 . S
C235 C234 1.457 . S
C235 C236 1.291 . S
C235 H248 0.931 . S
C236 C235 1.291 . S
C236 C237 1.373 . S
C236 H249 0.929 . S
C237 C236 1.373 . S
C237 C238 1.396 . S
C237 C244 1.403 . S
C238 C228 1.476 . S
C238 N233 1.318 . S
C238 C237 1.396 . S
H239 C234 0.929 . S
O240 Mn216 2.385 1_554 S
O240 C218 1.234 . S
O241 Mn216 2.209 1_554 S
O241 Mn217 2.215 . S
O241 C218 1.283 . S
O242 Mn216 2.094 . S
O242 C220 1.240 1_556 S
O243 Mn217 2.117 . S
O243 C220 1.264 . S
C244 C237 1.403 . S
C244 C245 1.399 . S
C244 H250 0.929 . S
C245 C225 1.449 . S
C245 C244 1.399 . S
C245 H251 0.930 . S
H246 C226 0.931 . S
H247 C227 0.930 . S
H248 C235 0.931 . S
H249 C236 0.929 . S
H250 C244 0.929 . S
H251 C245 0.930 . S
Mn252 O257 2.095 1_554 S
Mn252 O267 2.162 1_554 S
Mn252 O268 2.297 1_554 S
Mn252 O276 2.385 . S
Mn252 O277 2.209 . S
Mn252 O278 2.094 . S
Mn253 O258 2.121 . S
Mn253 N260 2.257 . S
Mn253 N269 2.282 . S
Mn253 O277 2.215 . S
Mn253 O279 2.117 . S
C254 O276 1.234 . S
C254 O277 1.283 . S
C255 O267 1.281 . S
C255 O268 1.236 . S
C256 O278 1.240 . S
C256 O279 1.264 . S
O257 Mn252 2.095 1_556 S
O257 C266 1.250 1_556 S
O258 Mn253 2.121 . S
O258 C266 1.258 . S
C259 N260 1.326 . S
C259 C263 1.460 . S
C259 H265 0.929 . S
N260 Mn253 2.257 . S
N260 C259 1.326 . S
N260 C264 1.362 . S
C261 C262 1.258 . S
C261 C264 1.431 . S
C261 C281 1.449 . S
C262 C261 1.258 . S
C262 C263 1.477 . S
C262 H282 0.931 . S
C263 C259 1.460 . S
C263 C262 1.477 . S
C263 H283 0.930 . S
C264 N260 1.362 . S
C264 C261 1.431 . S
C264 C274 1.476 . S
H265 C259 0.929 . S
C266 O257 1.250 1_554 S
C266 O258 1.258 . S
O267 Mn252 2.162 1_556 S
O267 C255 1.281 . S
O268 Mn252 2.297 1_556 S
O268 C255 1.236 . S
N269 Mn253 2.282 . S
N269 C270 1.328 . S
N269 C274 1.318 . S
C270 N269 1.328 . S
C270 C271 1.457 . S
C270 H275 0.929 . S
C271 C270 1.457 . S
C271 C272 1.291 . S
C271 H284 0.931 . S
C272 C271 1.291 . S
C272 C273 1.373 . S
C272 H285 0.929 . S
C273 C272 1.373 . S
C273 C274 1.396 . S
C273 C280 1.403 . S
C274 C264 1.476 . S
C274 N269 1.318 . S
C274 C273 1.396 . S
H275 C270 0.929 . S
O276 Mn252 2.385 . S
O276 C254 1.234 . S
O277 Mn252 2.209 . S
O277 Mn253 2.215 . S
O277 C254 1.283 . S
O278 Mn252 2.094 . S
O278 C256 1.240 . S
O279 Mn253 2.117 . S
O279 C256 1.264 . S
C280 C273 1.403 . S
C280 C281 1.399 . S
C280 H286 0.929 . S
C281 C261 1.449 . S
C281 C280 1.399 . S
C281 H287 0.930 . S
H282 C262 0.931 . S
H283 C263 0.930 . S
H284 C271 0.931 . S
H285 C272 0.929 . S
H286 C280 0.929 . S
H287 C281 0.930 . S
Mn288 O293 2.095 . S
Mn288 O303 2.162 . S
Mn288 O304 2.297 . S
Mn288 O312 2.385 . S
Mn288 O313 2.209 . S
Mn288 O314 2.094 . S
Mn289 O294 2.121 . S
Mn289 N296 2.257 . S
Mn289 N305 2.282 . S
Mn289 O313 2.215 . S
Mn289 O315 2.117 . S
C290 O312 1.234 . S
C290 O313 1.283 . S
C291 O303 1.281 . S
C291 O304 1.236 . S
C292 O314 1.240 . S
C292 O315 1.264 . S
O293 Mn288 2.095 . S
O293 C302 1.250 . S
O294 Mn289 2.121 . S
O294 C302 1.258 . S
C295 N296 1.326 . S
C295 C299 1.460 . S
C295 H301 0.929 . S
N296 Mn289 2.257 . S
N296 C295 1.326 . S
N296 C300 1.362 . S
C297 C298 1.258 . S
C297 C300 1.431 . S
C297 C317 1.449 . S
C298 C297 1.258 . S
C298 C299 1.477 . S
C298 H318 0.931 . S
C299 C295 1.460 . S
C299 C298 1.477 . S
C299 H319 0.930 . S
C300 N296 1.362 . S
C300 C297 1.431 . S
C300 C310 1.476 . S
H301 C295 0.929 . S
C302 O293 1.250 . S
C302 O294 1.258 . S
O303 Mn288 2.162 . S
O303 C291 1.281 . S
O304 Mn288 2.297 . S
O304 C291 1.236 . S
N305 Mn289 2.282 . S
N305 C306 1.328 . S
N305 C310 1.318 . S
C306 N305 1.328 . S
C306 C307 1.457 . S
C306 H311 0.929 . S
C307 C306 1.457 . S
C307 C308 1.291 . S
C307 H320 0.931 . S
C308 C307 1.291 . S
C308 C309 1.373 . S
C308 H321 0.929 . S
C309 C308 1.373 . S
C309 C310 1.396 . S
C309 C316 1.403 . S
C310 C300 1.476 . S
C310 N305 1.318 . S
C310 C309 1.396 . S
H311 C306 0.929 . S
O312 Mn288 2.385 . S
O312 C290 1.234 . S
O313 Mn288 2.209 . S
O313 Mn289 2.215 . S
O313 C290 1.283 . S
O314 Mn288 2.094 . S
O314 C292 1.240 . S
O315 Mn289 2.117 . S
O315 C292 1.264 . S
C316 C309 1.403 . S
C316 C317 1.399 . S
C316 H322 0.929 1_556 S
C317 C297 1.449 . S
C317 C316 1.399 . S
C317 H323 0.930 1_556 S
H318 C298 0.931 . S
H319 C299 0.930 . S
H320 C307 0.931 . S
H321 C308 0.929 . S
H322 C316 0.929 1_554 S
H323 C317 0.930 1_554 S
Mn324 O329 2.095 . S
Mn324 O339 2.162 . S
Mn324 O340 2.297 . S
Mn324 O348 2.385 . S
Mn324 O349 2.209 . S
Mn324 O350 2.094 . S
Mn325 O330 2.121 . S
Mn325 N332 2.257 . S
Mn325 N341 2.282 . S
Mn325 O349 2.215 . S
Mn325 O351 2.117 . S
C326 O348 1.234 . S
C326 O349 1.283 . S
C327 O339 1.281 . S
C327 O340 1.236 . S
C328 O350 1.240 . S
C328 O351 1.264 . S
O329 Mn324 2.095 . S
O329 C338 1.250 . S
O330 Mn325 2.121 . S
O330 C338 1.258 . S
C331 N332 1.326 . S
C331 C335 1.460 . S
C331 H337 0.929 . S
N332 Mn325 2.257 . S
N332 C331 1.326 . S
N332 C336 1.362 . S
C333 C334 1.258 . S
C333 C336 1.431 . S
C333 C353 1.449 1_556 S
C334 C333 1.258 . S
C334 C335 1.477 . S
C334 H354 0.931 1_556 S
C335 C331 1.460 . S
C335 C334 1.477 . S
C335 H355 0.930 . S
C336 N332 1.362 . S
C336 C333 1.431 . S
C336 C346 1.476 . S
H337 C331 0.929 . S
C338 O329 1.250 . S
C338 O330 1.258 . S
O339 Mn324 2.162 . S
O339 C327 1.281 . S
O340 Mn324 2.297 . S
O340 C327 1.236 . S
N341 Mn325 2.282 . S
N341 C342 1.328 . S
N341 C346 1.318 . S
C342 N341 1.328 . S
C342 C343 1.457 . S
C342 H347 0.929 . S
C343 C342 1.457 . S
C343 C344 1.291 1_556 S
C343 H356 0.931 1_556 S
C344 C343 1.291 1_554 S
C344 C345 1.373 . S
C344 H357 0.929 . S
C345 C344 1.373 . S
C345 C346 1.396 1_554 S
C345 C352 1.403 . S
C346 C336 1.476 . S
C346 N341 1.318 . S
C346 C345 1.396 1_556 S
H347 C342 0.929 . S
O348 Mn324 2.385 . S
O348 C326 1.234 . S
O349 Mn324 2.209 . S
O349 Mn325 2.215 . S
O349 C326 1.283 . S
O350 Mn324 2.094 . S
O350 C328 1.240 . S
O351 Mn325 2.117 . S
O351 C328 1.264 . S
C352 C345 1.403 . S
C352 C353 1.399 . S
C352 H358 0.929 . S
C353 C333 1.449 1_554 S
C353 C352 1.399 . S
C353 H359 0.930 . S
H354 C334 0.931 1_554 S
H355 C335 0.930 . S
H356 C343 0.931 1_554 S
H357 C344 0.929 . S
H358 C352 0.929 . S
H359 C353 0.930 . S
Mn360 O365 2.095 . S
Mn360 O375 2.162 . S
Mn360 O376 2.297 . S
Mn360 O384 2.385 . S
Mn360 O385 2.209 . S
Mn360 O386 2.094 . S
Mn361 O366 2.121 . S
Mn361 N368 2.257 . S
Mn361 N377 2.282 1_556 S
Mn361 O385 2.215 . S
Mn361 O387 2.117 . S
C362 O384 1.234 . S
C362 O385 1.283 . S
C363 O375 1.281 . S
C363 O376 1.236 . S
C364 O386 1.240 . S
C364 O387 1.264 . S
O365 Mn360 2.095 . S
O365 C374 1.250 . S
O366 Mn361 2.121 . S
O366 C374 1.258 . S
C367 N368 1.326 . S
C367 C371 1.460 . S
C367 H373 0.929 . S
N368 Mn361 2.257 . S
N368 C367 1.326 . S
N368 C372 1.362 1_556 S
C369 C370 1.258 . S
C369 C372 1.431 . S
C369 C389 1.449 . S
C370 C369 1.258 . S
C370 C371 1.477 1_554 S
C370 H390 0.931 . S
C371 C367 1.460 . S
C371 C370 1.477 1_556 S
C371 H391 0.930 . S
C372 N368 1.362 1_554 S
C372 C369 1.431 . S
C372 C382 1.476 . S
H373 C367 0.929 . S
C374 O365 1.250 . S
C374 O366 1.258 . S
O375 Mn360 2.162 . S
O375 C363 1.281 . S
O376 Mn360 2.297 . S
O376 C363 1.236 . S
N377 Mn361 2.282 1_554 S
N377 C378 1.328 . S
N377 C382 1.318 . S
C378 N377 1.328 . S
C378 C379 1.457 . S
C378 H383 0.929 1_554 S
C379 C378 1.457 . S
C379 C380 1.291 . S
C379 H392 0.931 . S
C380 C379 1.291 . S
C380 C381 1.373 . S
C380 H393 0.929 . S
C381 C380 1.373 . S
C381 C382 1.396 . S
C381 C388 1.403 . S
C382 C372 1.476 . S
C382 N377 1.318 . S
C382 C381 1.396 . S
H383 C378 0.929 1_556 S
O384 Mn360 2.385 . S
O384 C362 1.234 . S
O385 Mn360 2.209 . S
O385 Mn361 2.215 . S
O385 C362 1.283 . S
O386 Mn360 2.094 . S
O386 C364 1.240 . S
O387 Mn361 2.117 . S
O387 C364 1.264 . S
C388 C381 1.403 . S
C388 C389 1.399 . S
C388 H394 0.929 . S
C389 C369 1.449 . S
C389 C388 1.399 . S
C389 H395 0.930 . S
H390 C370 0.931 . S
H391 C371 0.930 . S
H392 C379 0.931 . S
H393 C380 0.929 . S
H394 C388 0.929 . S
H395 C389 0.930 . S
Mn396 O401 2.095 . S
Mn396 O411 2.162 . S
Mn396 O412 2.297 . S
Mn396 O420 2.385 . S
Mn396 O421 2.209 . S
Mn396 O422 2.094 . S
Mn397 O402 2.121 . S
Mn397 N404 2.257 1_556 S
Mn397 N413 2.282 1_556 S
Mn397 O421 2.215 . S
Mn397 O423 2.117 . S
C398 O420 1.234 . S
C398 O421 1.283 . S
C399 O411 1.281 . S
C399 O412 1.236 . S
C400 O422 1.240 . S
C400 O423 1.264 . S
O401 Mn396 2.095 . S
O401 C410 1.250 . S
O402 Mn397 2.121 . S
O402 C410 1.258 . S
C403 N404 1.326 . S
C403 C407 1.460 . S
C403 H409 0.929 1_554 S
N404 Mn397 2.257 1_554 S
N404 C403 1.326 . S
N404 C408 1.362 . S
C405 C406 1.258 . S
C405 C408 1.431 . S
C405 C425 1.449 . S
C406 C405 1.258 . S
C406 C407 1.477 . S
C406 H426 0.931 . S
C407 C403 1.460 . S
C407 C406 1.477 . S
C407 H427 0.930 . S
C408 N404 1.362 . S
C408 C405 1.431 . S
C408 C418 1.476 . S
H409 C403 0.929 1_556 S
C410 O401 1.250 . S
C410 O402 1.258 . S
O411 Mn396 2.162 . S
O411 C399 1.281 . S
O412 Mn396 2.297 . S
O412 C399 1.236 . S
N413 Mn397 2.282 1_554 S
N413 C414 1.328 . S
N413 C418 1.318 . S
C414 N413 1.328 . S
C414 C415 1.457 . S
C414 H419 0.929 . S
C415 C414 1.457 . S
C415 C416 1.291 . S
C415 H428 0.931 . S
C416 C415 1.291 . S
C416 C417 1.373 . S
C416 H429 0.929 . S
C417 C416 1.373 . S
C417 C418 1.396 . S
C417 C424 1.403 . S
C418 C408 1.476 . S
C418 N413 1.318 . S
C418 C417 1.396 . S
H419 C414 0.929 . S
O420 Mn396 2.385 . S
O420 C398 1.234 . S
O421 Mn396 2.209 . S
O421 Mn397 2.215 . S
O421 C398 1.283 . S
O422 Mn396 2.094 . S
O422 C400 1.240 . S
O423 Mn397 2.117 . S
O423 C400 1.264 . S
C424 C417 1.403 . S
C424 C425 1.399 . S
C424 H430 0.929 . S
C425 C405 1.449 . S
C425 C424 1.399 . S
C425 H431 0.930 . S
H426 C406 0.931 . S
H427 C407 0.930 . S
H428 C415 0.931 . S
H429 C416 0.929 . S
H430 C424 0.929 . S
H431 C425 0.930 . S
C3 C363 1.250 . S
C399 C39 1.250 . S
C75 C219 1.250 . S
C111 C255 1.250 . S
C147 C291 1.250 1_556 S
C327 C183 1.250 . S
C14 C302 1.698 . S
C50 C338 1.698 . S
C374 C86 1.698 . S
C122 C410 1.698 . S
C158 C230 1.698 . S
C194 C266 1.697 1_556 S
C362 C2 1.579 . S
C38 C398 1.578 1_554 S
C74 C218 1.578 . S
C110 C254 1.578 . S
C290 C146 1.578 . S
C182 C326 1.578 . S
C4 C400 1.342 1_455 S
C220 C40 1.341 1_565 S
C256 C76 1.341 . S
C292 C112 1.341 1_455 S
C328 C148 1.341 1_545 S
C364 C184 1.341 . S
