# Generated by pormake.
# Topology soe, (5)-cn, num edge types: 1
# Building blocks:
#     Node 0, Type 0, BuildingBlock: XOMCOT_clean_sbu_0, # of connection points: 5
#     Node 1, Type 0, BuildingBlock: XOMCOT_clean_sbu_0, # of connection points: 5
#     Node 2, Type 0, BuildingBlock: XOMCOT_clean_sbu_0, # of connection points: 5
#     Node 3, Type 0, BuildingBlock: XOMCOT_clean_sbu_0, # of connection points: 5
#     Node 4, Type 0, BuildingBlock: XOMCOT_clean_sbu_0, # of connection points: 5
#     Node 5, Type 0, BuildingBlock: XOMCOT_clean_sbu_0, # of connection points: 5
#     Node 6, Type 0, BuildingBlock: XOMCOT_clean_sbu_0, # of connection points: 5
#     Node 7, Type 0, BuildingBlock: XOMCOT_clean_sbu_0, # of connection points: 5
#     Edge 8, Type (0, 0), BuildingBlock: AJUNOK_clean_linker_0, # of connection points: 2
#     Edge 9, Type (0, 0), BuildingBlock: AJUNOK_clean_linker_0, # of connection points: 2
#     Edge 10, Type (0, 0), BuildingBlock: AJUNOK_clean_linker_0, # of connection points: 2
#     Edge 11, Type (0, 0), BuildingBlock: AJUNOK_clean_linker_0, # of connection points: 2
#     Edge 12, Type (0, 0), BuildingBlock: AJUNOK_clean_linker_0, # of connection points: 2
#     Edge 13, Type (0, 0), BuildingBlock: AJUNOK_clean_linker_0, # of connection points: 2
#     Edge 14, Type (0, 0), BuildingBlock: AJUNOK_clean_linker_0, # of connection points: 2
#     Edge 15, Type (0, 0), BuildingBlock: AJUNOK_clean_linker_0, # of connection points: 2
#     Edge 16, Type (0, 0), BuildingBlock: AJUNOK_clean_linker_0, # of connection points: 2
#     Edge 17, Type (0, 0), BuildingBlock: AJUNOK_clean_linker_0, # of connection points: 2
#     Edge 18, Type (0, 0), BuildingBlock: AJUNOK_clean_linker_0, # of connection points: 2
#     Edge 19, Type (0, 0), BuildingBlock: AJUNOK_clean_linker_0, # of connection points: 2
#     Edge 20, Type (0, 0), BuildingBlock: AJUNOK_clean_linker_0, # of connection points: 2
#     Edge 21, Type (0, 0), BuildingBlock: AJUNOK_clean_linker_0, # of connection points: 2
#     Edge 22, Type (0, 0), BuildingBlock: AJUNOK_clean_linker_0, # of connection points: 2
#     Edge 23, Type (0, 0), BuildingBlock: AJUNOK_clean_linker_0, # of connection points: 2
#     Edge 24, Type (0, 0), BuildingBlock: AJUNOK_clean_linker_0, # of connection points: 2
#     Edge 25, Type (0, 0), BuildingBlock: AJUNOK_clean_linker_0, # of connection points: 2
#     Edge 26, Type (0, 0), BuildingBlock: AJUNOK_clean_linker_0, # of connection points: 2
#     Edge 27, Type (0, 0), BuildingBlock: AJUNOK_clean_linker_0, # of connection points: 2
# Relax obj value: 0.039
# Max RMSD: 0.066
# Mean RMSD: 0.066
data_MOF--net-soe--node1-XOMCOT_clean_sbu_0--edge1-AJUNOK_clean_linker_0
_symmetry_space_group_name_H-M    P1
_symmetry_Int_Tables_number       1
_symmetry_cell_setting            triclinic
loop_
_symmetry_equiv_pos_as_xyz
'x, y, z'
_cell_length_a     44.482836
_cell_length_b     32.840697
_cell_length_c     13.58445
_cell_angle_alpha  90.08301
_cell_angle_beta   89.549373
_cell_angle_gamma 89.713316
loop_
_atom_site_label
_atom_site_type_symbol
_atom_site_fract_x
_atom_site_fract_y
_atom_site_fract_z
_atom_type_partial_charge
Co0 Co 0.10709 0.11071 0.14368 0.0
C1 C 0.11065 0.11128 0.92428 0.0
C2 C 0.09931 0.16993 0.98249 0.0
C3 C 0.09748 0.17167 0.88154 0.0
N4 N 0.10856 0.13236 1.00985 0.0
N5 N 0.10431 0.13463 0.84535 0.0
H6 H 0.11473 0.07897 0.91929 0.0
H7 H 0.09217 0.19385 0.03223 0.0
C8 C 0.13377 0.1933 0.17411 0.0
O9 O 0.15352 0.18294 0.10601 0.0
N10 N 0.10443 0.08933 0.27592 0.0
C11 C 0.11061 0.05084 0.30372 0.0
C12 C 0.10885 0.04861 0.40482 0.0
C13 C 0.09896 0.11 0.36012 0.0
N14 N 0.10153 0.08582 0.44003 0.0
C15 C 0.16054 0.06934 0.07941 0.0
C16 C 0.19742 0.09529 0.22938 0.0
C17 C 0.20832 0.06613 0.16241 0.0
C18 C 0.18953 0.05342 0.08649 0.0
C19 C 0.16804 0.11035 0.21993 0.0
N20 N 0.15006 0.09796 0.14426 0.0
H21 H 0.14604 0.05644 0.0251 0.0
H22 H 0.15935 0.13064 0.27607 0.0
H23 H 0.1172 0.0265 0.25423 0.0
H24 H 0.09393 0.14224 0.36338 0.0
O25 O 0.09312 0.05932 0.09284 0.0
O26 O 0.06354 0.11092 0.13472 0.0
O27 O 0.1134 0.1678 0.19907 0.0
C28 C 0.06607 0.07409 0.09917 0.0
H29 H 0.08978 0.19734 0.83847 0.0
H30 H 0.11413 1.0222 0.44914 0.0
H31 H 0.211 0.10508 0.29077 0.0
H32 H 0.19694 0.03051 0.03408 0.0
Co33 Co 0.42709 0.94325 0.1322 0.0
C34 C 0.42336 0.94259 0.91302 0.0
C35 C 0.4338 0.88366 0.97032 0.0
C36 C 0.43563 0.88187 0.86924 0.0
N37 N 0.42514 0.92148 0.9984 0.0
N38 N 0.42937 0.91909 0.8336 0.0
H39 H 0.41978 0.975 0.90844 0.0
H40 H 0.4406 0.85956 1.01952 0.0
C41 C 0.39972 0.86109 0.16561 0.0
O42 O 0.37992 0.87154 0.09883 0.0
N43 N 0.4302 0.96468 0.26435 0.0
C44 C 0.42435 1.00325 0.29282 0.0
C45 C 0.42607 1.00541 0.39389 0.0
C46 C 0.43545 0.9439 0.34816 0.0
N47 N 0.43304 0.96807 0.42844 0.0
C48 C 0.37397 0.98533 0.07143 0.0
C49 C 0.33703 0.96065 0.22423 0.0
C50 C 0.32658 0.99028 0.15855 0.0
C51 C 0.34527 1.00208 0.08069 0.0
C52 C 0.36619 0.94479 0.21273 0.0
N53 N 0.38422 0.95669 0.13586 0.0
H54 H 0.38849 0.99767 1.01579 0.0
H55 H 0.37468 0.92431 0.26822 0.0
H56 H 0.41792 0.02769 0.24389 0.0
H57 H 0.44015 0.91158 0.35094 0.0
O58 O 0.44137 0.99443 0.08019 0.0
O59 O 0.47063 0.94247 0.11963 0.0
O60 O 0.42043 0.88631 0.18836 0.0
C61 C 0.4683 0.97924 0.08395 0.0
H62 H 0.44298 0.856 0.82565 0.0
H63 H 0.42096 0.03186 0.4387 0.0
H64 H 0.3233 0.95118 0.28623 0.0
H65 H 0.33804 1.02502 0.02861 0.0
Co66 Co 0.1076 0.43642 0.42186 0.0
C67 C 0.10719 0.43729 0.64055 0.0
C68 C 0.09774 0.37791 0.58336 0.0
C69 C 0.09427 0.37708 0.68429 0.0
N70 N 0.10603 0.41565 0.55581 0.0
N71 N 0.09991 0.41457 0.72025 0.0
H72 H 0.11257 0.46923 0.64367 0.0
H73 H 0.09308 0.35307 0.53357 0.0
C74 C 0.12709 0.3644 0.2919 0.0
O75 O 0.1397 0.38964 0.22932 0.0
N76 N 0.10812 0.45798 0.28862 0.0
C77 C 0.12371 0.49046 0.25614 0.0
C78 C 0.11968 0.49415 0.15607 0.0
C79 C 0.0938 0.44343 0.20849 0.0
N80 N 0.10121 0.46426 0.12604 0.0
C81 C 0.15699 0.48397 0.48767 0.0
C82 C 0.20295 0.44372 0.39136 0.0
C83 C 0.20902 0.48145 0.43577 0.0
C84 C 0.18573 0.50029 0.48865 0.0
C85 C 0.17398 0.42717 0.39719 0.0
N86 N 0.15064 0.44884 0.43777 0.0
H87 H 0.1398 0.5011 0.52541 0.0
H88 H 0.17111 0.39716 0.36887 0.0
H89 H 0.13798 0.5093 0.30107 0.0
H90 H 0.08007 0.4163 0.20919 0.0
O91 O 0.09267 0.48806 0.46662 0.0
O92 O 0.06337 0.43772 0.422 0.0
O93 O 0.11475 0.37796 0.37142 0.0
C94 C 0.06571 0.47459 0.45739 0.0
H95 H 0.08695 0.35123 0.72743 0.0
H96 H 0.13111 0.51541 0.108 0.0
H97 H 0.21997 0.42725 0.35009 0.0
H98 H 0.18934 0.52834 0.52881 0.0
Co99 Co 0.42327 0.61762 0.41517 0.0
C100 C 0.42659 0.61628 0.63424 0.0
C101 C 0.43058 0.67685 0.57775 0.0
C102 C 0.43471 0.67791 0.6782 0.0
N103 N 0.42519 0.63817 0.5499 0.0
N104 N 0.43239 0.63971 0.71386 0.0
H105 H 0.42397 0.58375 0.6372 0.0
H106 H 0.43258 0.70255 0.52861 0.0
C107 C 0.40466 0.69052 0.28679 0.0
O108 O 0.39344 0.6658 0.22079 0.0
N109 N 0.42259 0.59637 0.2816 0.0
C110 C 0.40647 0.56456 0.24872 0.0
C111 C 0.411 0.56074 0.1486 0.0
C112 C 0.43777 0.61026 0.20183 0.0
N113 N 0.43035 0.58981 0.11912 0.0
C114 C 0.37419 0.57257 0.49247 0.0
C115 C 0.32865 0.6046 0.38038 0.0
C116 C 0.32344 0.56841 0.4326 0.0
C117 C 0.34609 0.55441 0.49468 0.0
C118 C 0.35697 0.62321 0.38418 0.0
N119 N 0.38025 0.60534 0.43357 0.0
H120 H 0.39134 0.55835 0.53564 0.0
H121 H 0.35949 0.6514 0.34652 0.0
H122 H 0.39151 0.54635 0.29349 0.0
H123 H 0.45208 0.63684 0.20293 0.0
O124 O 0.43777 0.56557 0.45744 0.0
O125 O 0.46747 0.61571 0.41275 0.0
O126 O 0.41612 0.67636 0.36649 0.0
C127 C 0.46484 0.5787 0.44706 0.0
H128 H 0.43993 0.70471 0.72112 0.0
H129 H 0.39934 0.54005 0.10011 0.0
H130 H 0.31134 0.61799 0.33493 0.0
H131 H 0.34262 0.52863 0.54296 0.0
Co132 Co 0.92597 0.93648 0.91863 0.0
C133 C 0.92491 0.93427 0.13877 0.0
C134 C 0.93858 0.87716 0.0772 0.0
C135 C 0.9408 0.87477 0.17816 0.0
N136 N 0.92756 0.9141 0.052 0.0
N137 N 0.93227 0.91086 0.21659 0.0
H138 H 0.92029 0.96639 0.14581 0.0
H139 H 0.94597 0.85396 0.02588 0.0
C140 C 0.90314 0.85112 0.88582 0.0
O141 O 0.88529 0.85558 0.96262 0.0
N142 N 0.92565 0.95847 0.78667 0.0
C143 C 0.9144 0.99468 0.75821 0.0
C144 C 0.91537 0.99653 0.65685 0.0
C145 C 0.9337 0.93907 0.70284 0.0
N146 N 0.92746 0.9615 0.62212 0.0
C147 C 0.87263 0.97381 0.99378 0.0
C148 C 0.83439 0.94883 0.84674 0.0
C149 C 0.82467 0.97879 0.9136 0.0
C150 C 0.84378 0.99 0.98974 0.0
C151 C 0.86367 0.93292 0.85398 0.0
N152 N 0.8826 0.94578 0.92665 0.0
H153 H 0.88758 0.987 0.04604 0.0
H154 H 0.87176 0.91272 0.7967 0.0
H155 H 0.90504 1.01742 0.80748 0.0
H156 H 0.94262 0.90842 0.70088 0.0
O157 O 0.93829 0.98856 0.9684 0.0
O158 O 0.9697 0.94004 0.9202 0.0
O159 O 0.92088 0.87987 0.86019 0.0
C160 C 0.96586 0.9765 0.95704 0.0
H161 H 0.9486 0.84873 0.21963 0.0
H162 H 0.90715 1.02138 0.61205 0.0
H163 H 0.82023 0.93971 0.78614 0.0
H164 H 0.83708 1.01304 0.04286 0.0
Co165 Co 0.61004 0.11323 0.89425 0.0
C166 C 0.59843 0.1156 0.11159 0.0
C167 C 0.62477 0.16619 0.06219 0.0
C168 C 0.62172 0.16851 0.16301 0.0
N169 N 0.61004 0.13311 0.02951 0.0
N170 N 0.60501 0.13677 0.19399 0.0
H171 H 0.58625 0.08723 0.11231 0.0
H172 H 0.63809 0.18631 1.0167 0.0
C173 C 0.62554 0.18841 0.76728 0.0
O174 O 0.63412 0.16545 0.69316 0.0
N175 N 0.60979 0.09259 0.76019 0.0
C176 C 0.62726 0.06238 0.7242 0.0
C177 C 0.62275 0.05941 0.62452 0.0
C178 C 0.59342 0.10574 0.6829 0.0
N179 N 0.60198 0.08732 0.59771 0.0
C180 C 0.66035 0.07248 0.97426 0.0
C181 C 0.70374 0.09806 0.84244 0.0
C182 C 0.71062 0.06618 0.90706 0.0
C183 C 0.68876 0.05434 0.97562 0.0
C184 C 0.67502 0.11564 0.84409 0.0
N185 N 0.65312 0.10145 0.90611 0.0
H186 H 0.64364 0.06175 0.02594 0.0
H187 H 0.67069 0.13916 0.79241 0.0
H188 H 0.64321 0.04486 0.76654 0.0
H189 H 0.57717 0.13027 0.68836 0.0
O190 O 0.59632 0.06066 0.93665 0.0
O191 O 0.56604 0.11137 0.89744 0.0
O192 O 0.61618 0.1725 0.84831 0.0
C193 C 0.56901 0.07387 0.92825 0.0
H194 H 0.63253 0.19051 0.21015 0.0
H195 H 0.63548 0.04012 0.57453 0.0
H196 H 0.71996 0.10831 0.78815 0.0
H197 H 0.69335 0.03055 0.02868 0.0
Co198 Co 0.92357 0.61057 0.64332 0.0
C199 C 0.92058 0.61317 0.42348 0.0
C200 C 0.93786 0.6683 0.4842 0.0
C201 C 0.93995 0.67056 0.38323 0.0
N202 N 0.92486 0.63277 0.51003 0.0
N203 N 0.92931 0.63564 0.3452 0.0
H204 H 0.91374 0.58188 0.4169 0.0
H205 H 0.94672 0.6904 0.53523 0.0
C206 C 0.90137 0.69685 0.67197 0.0
O207 O 0.88402 0.69245 0.59491 0.0
N208 N 0.92343 0.58875 0.7754 0.0
C209 C 0.91296 0.55217 0.8039 0.0
C210 C 0.91354 0.55027 0.90524 0.0
C211 C 0.93052 0.60844 0.85927 0.0
N212 N 0.92464 0.58564 0.93978 0.0
C213 C 0.87079 0.57047 0.57711 0.0
C214 C 0.83182 0.60148 0.71791 0.0
C215 C 0.82204 0.57008 0.65605 0.0
C216 C 0.84177 0.55518 0.58398 0.0
C217 C 0.86127 0.6161 0.70842 0.0
N218 N 0.88041 0.60074 0.63803 0.0
H219 H 0.88606 0.55533 0.5276 0.0
H220 H 0.86917 0.63764 0.76229 0.0
H221 H 0.90441 0.52914 0.75464 0.0
H222 H 0.93843 0.63952 0.86171 0.0
O223 O 0.93716 0.55855 0.5927 0.0
O224 O 0.96709 0.60826 0.64021 0.0
O225 O 0.91794 0.66733 0.70094 0.0
C226 C 0.96437 0.5718 0.6031 0.0
H227 H 0.94923 0.69562 0.34148 0.0
H228 H 0.90583 0.52516 0.95022 0.0
H229 H 0.81745 0.61307 0.77636 0.0
H230 H 0.83518 0.53064 0.5354 0.0
Co231 Co 0.60638 0.44305 0.63237 0.0
C232 C 0.61069 0.44187 0.41296 0.0
C233 C 0.59888 0.38359 0.47077 0.0
C234 C 0.59811 0.38152 0.3696 0.0
N235 N 0.6078 0.42115 0.49855 0.0
N236 N 0.60574 0.4182 0.33349 0.0
H237 H 0.6134 0.4744 0.40801 0.0
H238 H 0.59161 0.35978 0.52019 0.0
C239 C 0.6332 0.36023 0.66338 0.0
O240 O 0.65315 0.37045 0.59611 0.0
N241 N 0.6039 0.46473 0.7647 0.0
C242 C 0.60938 0.50354 0.79125 0.0
C243 C 0.60936 0.50596 0.89239 0.0
C244 C 0.60043 0.4441 0.84989 0.0
N245 N 0.60408 0.46849 0.92897 0.0
C246 C 0.65943 0.48384 0.5674 0.0
C247 C 0.69595 0.46043 0.72092 0.0
C248 C 0.70605 0.49035 0.65524 0.0
C249 C 0.68773 0.50115 0.57642 0.0
C250 C 0.66725 0.4437 0.70912 0.0
N251 N 0.64929 0.45534 0.63257 0.0
H252 H 0.645 0.49601 0.51192 0.0
H253 H 0.65891 0.42309 0.76474 0.0
H254 H 0.61426 0.52808 0.74071 0.0
H255 H 0.59686 0.4116 0.85444 0.0
O256 O 0.59253 0.49462 0.58141 0.0
O257 O 0.56285 0.44365 0.6238 0.0
O258 O 0.61266 0.3859 0.68769 0.0
C259 C 0.56546 0.48044 0.58839 0.0
H260 H 0.59144 0.35548 0.32611 0.0
H261 H 0.61347 0.53305 0.9356 0.0
H262 H 0.70948 0.45153 0.78334 0.0
H263 H 0.69479 0.52402 0.52378 0.0
C264 C 0.27049 0.98631 0.17129 0.0
C265 C 0.29671 1.00996 0.17135 0.0
C266 C 0.24195 1.00476 0.17116 0.0
C267 C 0.23864 0.04748 0.17246 0.0
H268 H 0.27206 0.95342 0.16748 0.0
H269 H 0.22229 0.98547 0.16835 0.0
S270 S 0.30038 0.12273 0.18089 0.0
N271 N 0.31767 0.0781 0.17871 0.0
N272 N 0.26404 0.11271 0.17873 0.0
C273 C 0.26469 0.07135 0.1769 0.0
C274 C 0.29372 0.0526 0.17609 0.0
C275 C 0.23985 0.54508 0.42007 0.0
C276 C 0.2388 0.5022 0.4272 0.0
C277 C 0.26713 0.56618 0.41999 0.0
C278 C 0.29473 0.54536 0.42441 0.0
H279 H 0.21933 0.56284 0.41571 0.0
H280 H 0.26643 0.59914 0.41903 0.0
S281 S 0.30508 0.43292 0.43035 0.0
N282 N 0.26832 0.43965 0.43432 0.0
N283 N 0.31951 0.479 0.42335 0.0
C284 C 0.29418 0.50236 0.4249 0.0
C285 C 0.26633 0.48088 0.42854 0.0
C286 C 0.74096 1.00147 0.90297 0.0
C287 C 0.74001 0.04443 0.90196 0.0
C288 C 0.76841 0.98014 0.90236 0.0
C289 C 0.79585 1.00105 0.90152 0.0
H290 H 0.72028 0.9842 0.90494 0.0
H291 H 0.76817 0.94719 0.90581 0.0
S292 S 0.80593 0.1131 0.89332 0.0
N293 N 0.76913 0.10685 0.89691 0.0
N294 N 0.82059 0.06682 0.89392 0.0
C295 C 0.79525 0.04387 0.89728 0.0
C296 C 0.76738 0.06555 0.89788 0.0
C297 C 0.78994 0.50809 0.67339 0.0
C298 C 0.79213 0.55085 0.66849 0.0
C299 C 0.76193 0.48867 0.67401 0.0
C300 C 0.73516 0.51133 0.66881 0.0
H301 H 0.81009 0.48944 0.67453 0.0
H302 H 0.76127 0.45569 0.67434 0.0
S303 S 0.72848 0.624 0.66377 0.0
N304 N 0.76507 0.61523 0.66472 0.0
N305 N 0.71238 0.57881 0.66665 0.0
C306 C 0.73698 0.55413 0.66856 0.0
C307 C 0.76549 0.57389 0.66842 0.0
C308 C 0.02094 0.98823 0.98436 0.0
C309 C 0.99115 1.0025 0.99027 0.0
C310 C 0.04488 1.01162 0.01995 0.0
C311 C 0.04005 0.05025 0.06305 0.0
H312 H 0.02586 0.95861 0.95279 0.0
H313 H 0.06739 0.99913 1.01359 0.0
S314 S 0.96635 0.10224 0.09389 0.0
N315 N 0.95823 0.05843 0.041 0.0
N316 N 1.00317 0.102 0.10762 0.0
C317 C 1.01043 0.06511 0.06838 0.0
C318 C 0.98603 0.04136 0.03209 0.0
C319 C 0.4898 0.04108 1.00125 0.0
C320 C 0.49436 1.00239 0.04401 0.0
C321 C 0.5138 0.06368 0.96189 0.0
C322 C 0.54339 0.0485 0.96333 0.0
H323 H 0.46745 0.05423 0.99823 0.0
H324 H 0.50913 0.09344 0.93114 0.0
S325 S 0.56741 0.94826 0.06451 0.0
N326 N 0.53075 0.94968 0.08362 0.0
N327 N 0.57576 0.99162 1.0098 0.0
C328 C 0.54819 1.00953 1.00464 0.0
C329 C 0.52375 0.98665 0.04493 0.0
C330 C 1.01017 0.48623 0.48386 0.0
C331 C 0.03992 0.49969 0.49346 0.0
C332 C 0.98594 0.50956 0.52051 0.0
C333 C 0.99051 0.54717 0.56852 0.0
H334 H 1.00553 0.45753 0.44781 0.0
H335 H 0.9634 0.49801 0.51053 0.0
S336 S 0.06413 0.59573 0.61525 0.0
N337 N 0.07256 0.55315 0.55654 0.0
N338 N 0.02716 0.59634 0.62493 0.0
C339 C 0.02014 0.56079 0.57928 0.0
C340 C 0.04477 0.53725 0.5419 0.0
C341 C 0.52027 0.56612 0.47015 0.0
C342 C 0.49043 0.55308 0.48112 0.0
C343 C 0.54431 0.54247 0.50549 0.0
C344 C 0.53946 0.5049 0.55343 0.0
H345 H 0.52514 0.5948 0.43428 0.0
H346 H 0.56693 0.5538 0.49476 0.0
S347 S 0.46551 0.45734 0.60343 0.0
N348 N 0.45739 0.50001 0.54533 0.0
N349 N 0.50248 0.45619 0.61116 0.0
C350 C 0.50976 0.4916 0.56523 0.0
C351 C 0.4853 0.51551 0.52927 0.0
C352 C 0.11391 0.14762 0.6693 0.0
C353 C 0.10265 0.12214 0.74388 0.0
C354 C 0.11303 0.13588 0.57007 0.0
C355 C 0.10074 0.09826 0.54181 0.0
H356 H 0.12403 0.17648 0.68821 0.0
H357 H 0.1227 0.15594 0.51529 0.0
S358 S 0.06464 1.02303 0.70771 0.0
N359 N 0.07636 0.05935 0.78213 0.0
N360 N 0.07476 0.03721 0.59566 0.0
C361 C 0.08856 0.07307 0.61546 0.0
C362 C 0.08948 0.08502 0.71649 0.0
C363 C 0.42095 0.91813 0.55852 0.0
C364 C 0.43361 0.95555 0.53011 0.0
C365 C 0.41986 0.90635 0.6577 0.0
C366 C 0.43129 0.93157 0.73211 0.0
H367 H 0.41115 0.89826 0.50394 0.0
H368 H 0.40945 0.87765 0.67673 0.0
S369 S 0.47028 0.03003 0.69528 0.0
N370 N 0.46011 1.01611 0.58352 0.0
N371 N 0.45817 0.99387 0.76981 0.0
C372 C 0.44485 0.96847 0.70449 0.0
C373 C 0.44596 0.98047 0.60353 0.0
C374 C 0.10465 0.39932 0.89806 0.0
C375 C 0.09803 0.42723 0.82241 0.0
C376 C 0.10422 0.41109 0.9975 0.0
C377 C 0.09744 0.45137 0.02536 0.0
H378 H 0.1111 0.36834 0.88021 0.0
H379 H 0.11043 0.38892 0.05267 0.0
S380 S 0.07438 0.53495 0.85911 0.0
N381 N 0.081 0.49606 0.78466 0.0
N382 N 0.08154 0.5183 0.97124 0.0
C383 C 0.08976 0.47924 0.95139 0.0
C384 C 0.08972 0.46719 0.8501 0.0
C385 C 0.42721 0.64297 0.99132 0.0
C386 C 0.43464 0.60295 1.01879 0.0
C387 C 0.42703 0.65479 0.89206 0.0
C388 C 0.43474 0.62726 0.81604 0.0
H389 H 0.42021 0.66485 0.0466 0.0
H390 H 0.4198 0.68544 0.87483 0.0
S391 S 0.46071 0.5205 0.85235 0.0
N392 N 0.45233 0.53675 0.96443 0.0
N393 N 0.45382 0.55919 0.77819 0.0
C394 C 0.44394 0.58766 0.84358 0.0
C395 C 0.44345 0.5755 0.94475 0.0
C396 C 0.90866 0.94881 0.35397 0.0
C397 C 0.93174 0.92308 0.31877 0.0
C398 C 0.90754 0.96134 0.45266 0.0
C399 C 0.92953 0.94882 0.52032 0.0
H400 H 0.89104 0.95884 0.30495 0.0
H401 H 0.88896 0.98044 0.47651 0.0
S402 S 0.9962 0.88435 0.46347 0.0
N403 N 0.97806 0.88732 0.35812 0.0
N404 N 0.97607 0.91106 0.54347 0.0
C405 C 0.95301 0.92357 0.48578 0.0
C406 C 0.95409 0.91067 0.38515 0.0
C407 C 0.59905 0.07128 0.42033 0.0
C408 C 0.59666 0.10002 0.49717 0.0
C409 C 0.60038 0.08331 0.32133 0.0
C410 C 0.59945 0.12469 0.2948 0.0
H411 H 0.60113 0.03918 0.43715 0.0
H412 H 0.60372 0.06008 0.26566 0.0
S413 S 0.58885 0.21205 0.4653 0.0
N414 N 0.59028 0.17187 0.53793 0.0
N415 N 0.59236 0.19418 0.35214 0.0
C416 C 0.59497 0.15362 0.37002 0.0
C417 C 0.59355 0.14139 0.47102 0.0
C418 C 0.90505 0.59934 0.20793 0.0
C419 C 0.92882 0.6233 0.24307 0.0
C420 C 0.90395 0.58693 0.10915 0.0
C421 C 0.92656 0.59803 0.04148 0.0
H422 H 0.8869 0.59061 0.25699 0.0
H423 H 0.88495 0.5691 0.08509 0.0
S424 S 0.99523 0.65688 0.09776 0.0
N425 N 0.97666 0.65515 0.2034 0.0
N426 N 0.97436 0.63212 1.01772 0.0
C427 C 0.95071 0.62138 0.07581 0.0
C428 C 0.95191 0.63393 0.17652 0.0
C429 C 0.58464 0.41497 0.16556 0.0
C430 C 0.60581 0.43077 0.23179 0.0
C431 C 0.5842 0.42739 0.06673 0.0
C432 C 0.60483 0.45617 0.0307 0.0
H433 H 0.56798 0.39334 0.19065 0.0
H434 H 0.56735 0.41487 1.01838 0.0
S435 S 0.66688 0.50323 0.17112 0.0
N436 N 0.64932 0.47432 0.25229 0.0
N437 N 0.64843 0.49772 0.06701 0.0
C438 C 0.62649 0.47154 0.09559 0.0
C439 C 0.62699 0.45884 0.19598 0.0
C440 C 0.10859 0.25128 0.26708 0.0
C441 C 0.1336 0.2358 0.21405 0.0
C442 C 0.10699 0.29253 0.2963 0.0
C443 C 0.13024 0.31988 0.27291 0.0
H444 H 0.08966 0.23176 0.28354 0.0
H445 H 0.08693 0.30341 0.33383 0.0
S446 S 0.2025 0.29379 0.14895 0.0
N447 N 0.18358 0.25071 0.14974 0.0
N448 N 0.18034 0.32758 0.20314 0.0
C449 C 0.15594 0.30433 0.22458 0.0
C450 C 0.15769 0.26252 0.19562 0.0
C451 C 0.42396 0.80338 0.26096 0.0
C452 C 0.39936 0.81885 0.20715 0.0
C453 C 0.42507 0.76229 0.29163 0.0
C454 C 0.40173 0.73513 0.26901 0.0
H455 H 0.44296 0.82273 0.2768 0.0
H456 H 0.4449 0.75133 0.32926 0.0
S457 S 0.33039 0.7613 0.14343 0.0
N458 N 0.34961 0.80414 0.14301 0.0
N459 N 0.35199 0.72763 0.1991 0.0
C460 C 0.3764 0.75073 0.22014 0.0
C461 C 0.37514 0.79235 0.18968 0.0
C462 C 0.90213 0.77476 0.88 0.0
C463 C 0.90303 0.81223 0.82981 0.0
C464 C 0.90216 0.73752 0.8285 0.0
C465 C 0.90207 0.73643 0.72491 0.0
H466 H 0.90183 0.77421 0.95974 0.0
H467 H 0.9017 0.70939 0.87008 0.0
S468 S 0.90409 0.82599 0.55877 0.0
N469 N 0.90408 0.8458 0.67061 0.0
N470 N 0.90312 0.7761 0.57405 0.0
C471 C 0.9027 0.77367 0.67392 0.0
C472 C 0.90347 0.81149 0.72629 0.0
C473 C 0.60576 0.26053 0.77943 0.0
C474 C 0.6292 0.23315 0.75626 0.0
C475 C 0.60755 0.30203 0.75273 0.0
C476 C 0.63292 0.31761 0.70241 0.0
H477 H 0.58533 0.24946 0.81385 0.0
H478 H 0.58844 0.32162 0.76834 0.0
S479 S 0.70222 0.25909 0.63922 0.0
N480 N 0.67965 0.22518 0.68978 0.0
N481 N 0.68339 0.30252 0.64138 0.0
C482 C 0.6572 0.29075 0.68478 0.0
C483 C 0.65523 0.24874 0.71116 0.0
loop_
_geom_bond_atom_site_label_1
_geom_bond_atom_site_label_2
_geom_bond_distance
_geom_bond_site_symmetry_2
_ccdc_geom_bond_type
Co0 N4 2.148 1_554 S
Co0 N10 2.128 . S
Co0 N20 2.194 . S
Co0 O25 2.351 . S
Co0 O26 2.155 . S
Co0 O27 2.096 . S
C1 N4 1.301 . S
C1 N5 1.328 . S
C1 H6 0.930 . S
C2 C3 1.333 . S
C2 N4 1.317 . S
C2 H7 0.930 . S
C3 C2 1.333 . S
C3 N5 1.350 . S
C3 H29 0.931 . S
N4 Co0 2.148 1_556 S
N4 C1 1.301 . S
N4 C2 1.317 . S
N5 C1 1.328 . S
N5 C3 1.350 . S
H6 C1 0.930 . S
H7 C2 0.930 . S
C8 O9 1.224 . S
C8 O27 1.247 . S
O9 C8 1.224 . S
N10 Co0 2.128 . S
N10 C11 1.355 . S
N10 C13 1.311 . S
C11 N10 1.355 . S
C11 C12 1.363 . S
C11 H23 0.929 . S
C12 C11 1.363 . S
C12 N14 1.375 . S
C12 H30 0.931 . S
C13 N10 1.311 . S
C13 N14 1.347 . S
C13 H24 0.929 . S
N14 C12 1.375 . S
N14 C13 1.347 . S
C15 C18 1.365 . S
C15 N20 1.328 . S
C15 H21 0.929 . S
C16 C17 1.362 . S
C16 C19 1.378 . S
C16 H31 0.929 . S
C17 C16 1.362 . S
C17 C18 1.366 . S
C18 C15 1.365 . S
C18 C17 1.366 . S
C18 H32 0.930 1_545 S
C19 C16 1.378 . S
C19 N20 1.315 . S
C19 H22 0.930 . S
N20 Co0 2.194 . S
N20 C15 1.328 . S
N20 C19 1.315 . S
H21 C15 0.929 . S
H22 C19 0.930 . S
H23 C11 0.929 . S
H24 C13 0.929 . S
O25 Co0 2.351 . S
O25 C28 1.244 . S
O26 Co0 2.155 . S
O26 C28 1.240 . S
O27 Co0 2.096 . S
O27 C8 1.247 . S
C28 O25 1.244 . S
C28 O26 1.240 . S
H29 C3 0.931 . S
H30 C12 0.931 . S
H31 C16 0.929 . S
H32 C18 0.930 1_565 S
Co33 N37 2.148 1_554 S
Co33 N43 2.128 . S
Co33 N53 2.194 . S
Co33 O58 2.351 . S
Co33 O59 2.155 . S
Co33 O60 2.096 . S
C34 N37 1.301 . S
C34 N38 1.328 . S
C34 H39 0.930 . S
C35 C36 1.333 . S
C35 N37 1.317 . S
C35 H40 0.930 . S
C36 C35 1.333 . S
C36 N38 1.350 . S
C36 H62 0.931 . S
N37 Co33 2.148 1_556 S
N37 C34 1.301 . S
N37 C35 1.317 . S
N38 C34 1.328 . S
N38 C36 1.350 . S
H39 C34 0.930 . S
H40 C35 0.930 . S
C41 O42 1.224 . S
C41 O60 1.247 . S
O42 C41 1.224 . S
N43 Co33 2.128 . S
N43 C44 1.355 . S
N43 C46 1.311 . S
C44 N43 1.355 . S
C44 C45 1.363 . S
C44 H56 0.929 . S
C45 C44 1.363 . S
C45 N47 1.375 . S
C45 H63 0.931 . S
C46 N43 1.311 . S
C46 N47 1.347 . S
C46 H57 0.929 . S
N47 C45 1.375 . S
N47 C46 1.347 . S
C48 C51 1.365 . S
C48 N53 1.328 . S
C48 H54 0.929 . S
C49 C50 1.362 . S
C49 C52 1.378 . S
C49 H64 0.929 . S
C50 C49 1.362 . S
C50 C51 1.366 . S
C51 C48 1.365 . S
C51 C50 1.366 . S
C51 H65 0.930 1_565 S
C52 C49 1.378 . S
C52 N53 1.315 . S
C52 H55 0.930 . S
N53 Co33 2.194 . S
N53 C48 1.328 . S
N53 C52 1.315 . S
H54 C48 0.929 . S
H55 C52 0.930 . S
H56 C44 0.929 . S
H57 C46 0.929 . S
O58 Co33 2.351 . S
O58 C61 1.244 . S
O59 Co33 2.155 . S
O59 C61 1.240 . S
O60 Co33 2.096 . S
O60 C41 1.247 . S
C61 O58 1.244 . S
C61 O59 1.240 . S
H62 C36 0.931 . S
H63 C45 0.931 . S
H64 C49 0.929 . S
H65 C51 0.930 1_545 S
Co66 N70 2.148 . S
Co66 N76 2.128 . S
Co66 N86 2.194 . S
Co66 O91 2.351 . S
Co66 O92 2.155 . S
Co66 O93 2.096 . S
C67 N70 1.301 . S
C67 N71 1.328 . S
C67 H72 0.930 . S
C68 C69 1.333 . S
C68 N70 1.317 . S
C68 H73 0.930 . S
C69 C68 1.333 . S
C69 N71 1.350 . S
C69 H95 0.931 . S
N70 Co66 2.148 . S
N70 C67 1.301 . S
N70 C68 1.317 . S
N71 C67 1.328 . S
N71 C69 1.350 . S
H72 C67 0.930 . S
H73 C68 0.930 . S
C74 O75 1.224 . S
C74 O93 1.247 . S
O75 C74 1.224 . S
N76 Co66 2.128 . S
N76 C77 1.355 . S
N76 C79 1.311 . S
C77 N76 1.355 . S
C77 C78 1.363 . S
C77 H89 0.929 . S
C78 C77 1.363 . S
C78 N80 1.375 . S
C78 H96 0.931 . S
C79 N76 1.311 . S
C79 N80 1.347 . S
C79 H90 0.929 . S
N80 C78 1.375 . S
N80 C79 1.347 . S
C81 C84 1.365 . S
C81 N86 1.328 . S
C81 H87 0.929 . S
C82 C83 1.362 . S
C82 C85 1.378 . S
C82 H97 0.929 . S
C83 C82 1.362 . S
C83 C84 1.366 . S
C84 C81 1.365 . S
C84 C83 1.366 . S
C84 H98 0.930 . S
C85 C82 1.378 . S
C85 N86 1.315 . S
C85 H88 0.930 . S
N86 Co66 2.194 . S
N86 C81 1.328 . S
N86 C85 1.315 . S
H87 C81 0.929 . S
H88 C85 0.930 . S
H89 C77 0.929 . S
H90 C79 0.929 . S
O91 Co66 2.351 . S
O91 C94 1.244 . S
O92 Co66 2.155 . S
O92 C94 1.240 . S
O93 Co66 2.096 . S
O93 C74 1.247 . S
C94 O91 1.244 . S
C94 O92 1.240 . S
H95 C69 0.931 . S
H96 C78 0.931 . S
H97 C82 0.929 . S
H98 C84 0.930 . S
Co99 N103 2.148 . S
Co99 N109 2.128 . S
Co99 N119 2.194 . S
Co99 O124 2.351 . S
Co99 O125 2.155 . S
Co99 O126 2.096 . S
C100 N103 1.301 . S
C100 N104 1.328 . S
C100 H105 0.930 . S
C101 C102 1.333 . S
C101 N103 1.317 . S
C101 H106 0.930 . S
C102 C101 1.333 . S
C102 N104 1.350 . S
C102 H128 0.931 . S
N103 Co99 2.148 . S
N103 C100 1.301 . S
N103 C101 1.317 . S
N104 C100 1.328 . S
N104 C102 1.350 . S
H105 C100 0.930 . S
H106 C101 0.930 . S
C107 O108 1.224 . S
C107 O126 1.247 . S
O108 C107 1.224 . S
N109 Co99 2.128 . S
N109 C110 1.355 . S
N109 C112 1.311 . S
C110 N109 1.355 . S
C110 C111 1.363 . S
C110 H122 0.929 . S
C111 C110 1.363 . S
C111 N113 1.375 . S
C111 H129 0.931 . S
C112 N109 1.311 . S
C112 N113 1.347 . S
C112 H123 0.929 . S
N113 C111 1.375 . S
N113 C112 1.347 . S
C114 C117 1.365 . S
C114 N119 1.328 . S
C114 H120 0.929 . S
C115 C116 1.362 . S
C115 C118 1.378 . S
C115 H130 0.929 . S
C116 C115 1.362 . S
C116 C117 1.366 . S
C117 C114 1.365 . S
C117 C116 1.366 . S
C117 H131 0.930 . S
C118 C115 1.378 . S
C118 N119 1.315 . S
C118 H121 0.930 . S
N119 Co99 2.194 . S
N119 C114 1.328 . S
N119 C118 1.315 . S
H120 C114 0.929 . S
H121 C118 0.930 . S
H122 C110 0.929 . S
H123 C112 0.929 . S
O124 Co99 2.351 . S
O124 C127 1.244 . S
O125 Co99 2.155 . S
O125 C127 1.240 . S
O126 Co99 2.096 . S
O126 C107 1.247 . S
C127 O124 1.244 . S
C127 O125 1.240 . S
H128 C102 0.931 . S
H129 C111 0.931 . S
H130 C115 0.929 . S
H131 C117 0.930 . S
Co132 N136 2.148 1_556 S
Co132 N142 2.128 . S
Co132 N152 2.194 . S
Co132 O157 2.351 . S
Co132 O158 2.155 . S
Co132 O159 2.096 . S
C133 N136 1.301 . S
C133 N137 1.328 . S
C133 H138 0.930 . S
C134 C135 1.333 . S
C134 N136 1.317 . S
C134 H139 0.930 . S
C135 C134 1.333 . S
C135 N137 1.350 . S
C135 H161 0.931 . S
N136 Co132 2.148 1_554 S
N136 C133 1.301 . S
N136 C134 1.317 . S
N137 C133 1.328 . S
N137 C135 1.350 . S
H138 C133 0.930 . S
H139 C134 0.930 . S
C140 O141 1.224 . S
C140 O159 1.247 . S
O141 C140 1.224 . S
N142 Co132 2.128 . S
N142 C143 1.355 . S
N142 C145 1.311 . S
C143 N142 1.355 . S
C143 C144 1.363 . S
C143 H155 0.929 . S
C144 C143 1.363 . S
C144 N146 1.375 . S
C144 H162 0.931 . S
C145 N142 1.311 . S
C145 N146 1.347 . S
C145 H156 0.929 . S
N146 C144 1.375 . S
N146 C145 1.347 . S
C147 C150 1.365 . S
C147 N152 1.328 . S
C147 H153 0.929 . S
C148 C149 1.362 . S
C148 C151 1.378 . S
C148 H163 0.929 . S
C149 C148 1.362 . S
C149 C150 1.366 . S
C150 C147 1.365 . S
C150 C149 1.366 . S
C150 H164 0.930 1_565 S
C151 C148 1.378 . S
C151 N152 1.315 . S
C151 H154 0.930 . S
N152 Co132 2.194 . S
N152 C147 1.328 . S
N152 C151 1.315 . S
H153 C147 0.929 . S
H154 C151 0.930 . S
H155 C143 0.929 . S
H156 C145 0.929 . S
O157 Co132 2.351 . S
O157 C160 1.244 . S
O158 Co132 2.155 . S
O158 C160 1.240 . S
O159 Co132 2.096 . S
O159 C140 1.247 . S
C160 O157 1.244 . S
C160 O158 1.240 . S
H161 C135 0.931 . S
H162 C144 0.931 . S
H163 C148 0.929 . S
H164 C150 0.930 1_545 S
Co165 N169 2.148 1_556 S
Co165 N175 2.128 . S
Co165 N185 2.194 . S
Co165 O190 2.351 . S
Co165 O191 2.155 . S
Co165 O192 2.096 . S
C166 N169 1.301 . S
C166 N170 1.328 . S
C166 H171 0.930 . S
C167 C168 1.333 . S
C167 N169 1.317 . S
C167 H172 0.930 . S
C168 C167 1.333 . S
C168 N170 1.350 . S
C168 H194 0.931 . S
N169 Co165 2.148 1_554 S
N169 C166 1.301 . S
N169 C167 1.317 . S
N170 C166 1.328 . S
N170 C168 1.350 . S
H171 C166 0.930 . S
H172 C167 0.930 . S
C173 O174 1.224 . S
C173 O192 1.247 . S
O174 C173 1.224 . S
N175 Co165 2.128 . S
N175 C176 1.355 . S
N175 C178 1.311 . S
C176 N175 1.355 . S
C176 C177 1.363 . S
C176 H188 0.929 . S
C177 C176 1.363 . S
C177 N179 1.375 . S
C177 H195 0.931 . S
C178 N175 1.311 . S
C178 N179 1.347 . S
C178 H189 0.929 . S
N179 C177 1.375 . S
N179 C178 1.347 . S
C180 C183 1.365 . S
C180 N185 1.328 . S
C180 H186 0.929 . S
C181 C182 1.362 . S
C181 C184 1.378 . S
C181 H196 0.929 . S
C182 C181 1.362 . S
C182 C183 1.366 . S
C183 C180 1.365 . S
C183 C182 1.366 . S
C183 H197 0.930 1_545 S
C184 C181 1.378 . S
C184 N185 1.315 . S
C184 H187 0.930 . S
N185 Co165 2.194 . S
N185 C180 1.328 . S
N185 C184 1.315 . S
H186 C180 0.929 . S
H187 C184 0.930 . S
H188 C176 0.929 . S
H189 C178 0.929 . S
O190 Co165 2.351 . S
O190 C193 1.244 . S
O191 Co165 2.155 . S
O191 C193 1.240 . S
O192 Co165 2.096 . S
O192 C173 1.247 . S
C193 O190 1.244 . S
C193 O191 1.240 . S
H194 C168 0.931 . S
H195 C177 0.931 . S
H196 C181 0.929 . S
H197 C183 0.930 1_565 S
Co198 N202 2.148 . S
Co198 N208 2.128 . S
Co198 N218 2.194 . S
Co198 O223 2.351 . S
Co198 O224 2.155 . S
Co198 O225 2.096 . S
C199 N202 1.301 . S
C199 N203 1.328 . S
C199 H204 0.930 . S
C200 C201 1.333 . S
C200 N202 1.317 . S
C200 H205 0.930 . S
C201 C200 1.333 . S
C201 N203 1.350 . S
C201 H227 0.931 . S
N202 Co198 2.148 . S
N202 C199 1.301 . S
N202 C200 1.317 . S
N203 C199 1.328 . S
N203 C201 1.350 . S
H204 C199 0.930 . S
H205 C200 0.930 . S
C206 O207 1.224 . S
C206 O225 1.247 . S
O207 C206 1.224 . S
N208 Co198 2.128 . S
N208 C209 1.355 . S
N208 C211 1.311 . S
C209 N208 1.355 . S
C209 C210 1.363 . S
C209 H221 0.929 . S
C210 C209 1.363 . S
C210 N212 1.375 . S
C210 H228 0.931 . S
C211 N208 1.311 . S
C211 N212 1.347 . S
C211 H222 0.929 . S
N212 C210 1.375 . S
N212 C211 1.347 . S
C213 C216 1.365 . S
C213 N218 1.328 . S
C213 H219 0.929 . S
C214 C215 1.362 . S
C214 C217 1.378 . S
C214 H229 0.929 . S
C215 C214 1.362 . S
C215 C216 1.366 . S
C216 C213 1.365 . S
C216 C215 1.366 . S
C216 H230 0.930 . S
C217 C214 1.378 . S
C217 N218 1.315 . S
C217 H220 0.930 . S
N218 Co198 2.194 . S
N218 C213 1.328 . S
N218 C217 1.315 . S
H219 C213 0.929 . S
H220 C217 0.930 . S
H221 C209 0.929 . S
H222 C211 0.929 . S
O223 Co198 2.351 . S
O223 C226 1.244 . S
O224 Co198 2.155 . S
O224 C226 1.240 . S
O225 Co198 2.096 . S
O225 C206 1.247 . S
C226 O223 1.244 . S
C226 O224 1.240 . S
H227 C201 0.931 . S
H228 C210 0.931 . S
H229 C214 0.929 . S
H230 C216 0.930 . S
Co231 N235 2.148 . S
Co231 N241 2.128 . S
Co231 N251 2.194 . S
Co231 O256 2.351 . S
Co231 O257 2.155 . S
Co231 O258 2.096 . S
C232 N235 1.301 . S
C232 N236 1.328 . S
C232 H237 0.930 . S
C233 C234 1.333 . S
C233 N235 1.317 . S
C233 H238 0.930 . S
C234 C233 1.333 . S
C234 N236 1.350 . S
C234 H260 0.931 . S
N235 Co231 2.148 . S
N235 C232 1.301 . S
N235 C233 1.317 . S
N236 C232 1.328 . S
N236 C234 1.350 . S
H237 C232 0.930 . S
H238 C233 0.930 . S
C239 O240 1.224 . S
C239 O258 1.247 . S
O240 C239 1.224 . S
N241 Co231 2.128 . S
N241 C242 1.355 . S
N241 C244 1.311 . S
C242 N241 1.355 . S
C242 C243 1.363 . S
C242 H254 0.929 . S
C243 C242 1.363 . S
C243 N245 1.375 . S
C243 H261 0.931 . S
C244 N241 1.311 . S
C244 N245 1.347 . S
C244 H255 0.929 . S
N245 C243 1.375 . S
N245 C244 1.347 . S
C246 C249 1.365 . S
C246 N251 1.328 . S
C246 H252 0.929 . S
C247 C248 1.362 . S
C247 C250 1.378 . S
C247 H262 0.929 . S
C248 C247 1.362 . S
C248 C249 1.366 . S
C249 C246 1.365 . S
C249 C248 1.366 . S
C249 H263 0.930 . S
C250 C247 1.378 . S
C250 N251 1.315 . S
C250 H253 0.930 . S
N251 Co231 2.194 . S
N251 C246 1.328 . S
N251 C250 1.315 . S
H252 C246 0.929 . S
H253 C250 0.930 . S
H254 C242 0.929 . S
H255 C244 0.929 . S
O256 Co231 2.351 . S
O256 C259 1.244 . S
O257 Co231 2.155 . S
O257 C259 1.240 . S
O258 Co231 2.096 . S
O258 C239 1.247 . S
C259 O256 1.244 . S
C259 O257 1.240 . S
H260 C234 0.931 . S
H261 C243 0.931 . S
H262 C247 0.929 . S
H263 C249 0.930 . S
C264 C265 1.369 . S
C264 C266 1.419 . S
C264 H268 0.930 . S
C265 C264 1.369 . S
C265 C274 1.429 1_565 S
C266 C264 1.419 . S
C266 C267 1.363 1_565 S
C266 H269 0.929 . S
C267 C266 1.363 1_545 S
C267 C273 1.428 . S
H268 C264 0.930 . S
H269 C266 0.929 . S
S270 N271 1.613 . S
S270 N272 1.610 . S
N271 S270 1.613 . S
N271 C274 1.350 . S
N272 S270 1.610 . S
N272 C273 1.351 . S
C273 C267 1.428 . S
C273 N272 1.351 . S
C273 C274 1.434 . S
C274 C265 1.429 1_545 S
C274 N271 1.350 . S
C274 C273 1.434 . S
C275 C276 1.369 . S
C275 C277 1.419 . S
C275 H279 0.930 . S
C276 C275 1.369 . S
C276 C285 1.429 . S
C277 C275 1.419 . S
C277 C278 1.363 . S
C277 H280 0.929 . S
C278 C277 1.363 . S
C278 C284 1.428 . S
H279 C275 0.930 . S
H280 C277 0.929 . S
S281 N282 1.613 . S
S281 N283 1.610 . S
N282 S281 1.613 . S
N282 C285 1.350 . S
N283 S281 1.610 . S
N283 C284 1.351 . S
C284 C278 1.428 . S
C284 N283 1.351 . S
C284 C285 1.434 . S
C285 C276 1.429 . S
C285 N282 1.350 . S
C285 C284 1.434 . S
C286 C287 1.369 1_565 S
C286 C288 1.419 . S
C286 H290 0.930 . S
C287 C286 1.369 1_545 S
C287 C296 1.429 . S
C288 C286 1.419 . S
C288 C289 1.363 . S
C288 H291 0.929 . S
C289 C288 1.363 . S
C289 C295 1.428 1_565 S
H290 C286 0.930 . S
H291 C288 0.929 . S
S292 N293 1.613 . S
S292 N294 1.610 . S
N293 S292 1.613 . S
N293 C296 1.350 . S
N294 S292 1.610 . S
N294 C295 1.351 . S
C295 C289 1.428 1_545 S
C295 N294 1.351 . S
C295 C296 1.434 . S
C296 C287 1.429 . S
C296 N293 1.350 . S
C296 C295 1.434 . S
C297 C298 1.369 . S
C297 C299 1.419 . S
C297 H301 0.930 . S
C298 C297 1.369 . S
C298 C307 1.429 . S
C299 C297 1.419 . S
C299 C300 1.363 . S
C299 H302 0.929 . S
C300 C299 1.363 . S
C300 C306 1.428 . S
H301 C297 0.930 . S
H302 C299 0.929 . S
S303 N304 1.613 . S
S303 N305 1.610 . S
N304 S303 1.613 . S
N304 C307 1.350 . S
N305 S303 1.610 . S
N305 C306 1.351 . S
C306 C300 1.428 . S
C306 N305 1.351 . S
C306 C307 1.434 . S
C307 C298 1.429 . S
C307 N304 1.350 . S
C307 C306 1.434 . S
C308 C309 1.369 1_455 S
C308 C310 1.419 . S
C308 H312 0.930 . S
C309 C308 1.369 1_655 S
C309 C318 1.429 1_566 S
C310 C308 1.419 . S
C310 C311 1.363 1_566 S
C310 H313 0.929 . S
C311 C310 1.363 1_544 S
C311 C317 1.428 1_455 S
H312 C308 0.930 . S
H313 C310 0.929 . S
S314 N315 1.613 . S
S314 N316 1.610 . S
N315 S314 1.613 . S
N315 C318 1.350 . S
N316 S314 1.610 . S
N316 C317 1.351 . S
C317 C311 1.428 1_655 S
C317 N316 1.351 . S
C317 C318 1.434 . S
C318 C309 1.429 1_544 S
C318 N315 1.350 . S
C318 C317 1.434 . S
C319 C320 1.369 1_546 S
C319 C321 1.419 . S
C319 H323 0.930 . S
C320 C319 1.369 1_564 S
C320 C329 1.429 . S
C321 C319 1.419 . S
C321 C322 1.363 . S
C321 H324 0.929 . S
C322 C321 1.363 . S
C322 C328 1.428 1_546 S
H323 C319 0.930 . S
H324 C321 0.929 . S
S325 N326 1.613 . S
S325 N327 1.610 . S
N326 S325 1.613 . S
N326 C329 1.350 . S
N327 S325 1.610 . S
N327 C328 1.351 . S
C328 C322 1.428 1_564 S
C328 N327 1.351 . S
C328 C329 1.434 . S
C329 C320 1.429 . S
C329 N326 1.350 . S
C329 C328 1.434 . S
C330 C331 1.369 1_655 S
C330 C332 1.419 . S
C330 H334 0.930 . S
C331 C330 1.369 1_455 S
C331 C340 1.429 . S
C332 C330 1.419 . S
C332 C333 1.363 . S
C332 H335 0.929 . S
C333 C332 1.363 . S
C333 C339 1.428 1_655 S
H334 C330 0.930 . S
H335 C332 0.929 . S
S336 N337 1.613 . S
S336 N338 1.610 . S
N337 S336 1.613 . S
N337 C340 1.350 . S
N338 S336 1.610 . S
N338 C339 1.351 . S
C339 C333 1.428 1_455 S
C339 N338 1.351 . S
C339 C340 1.434 . S
C340 C331 1.429 . S
C340 N337 1.350 . S
C340 C339 1.434 . S
C341 C342 1.369 . S
C341 C343 1.419 . S
C341 H345 0.930 . S
C342 C341 1.369 . S
C342 C351 1.429 . S
C343 C341 1.419 . S
C343 C344 1.363 . S
C343 H346 0.929 . S
C344 C343 1.363 . S
C344 C350 1.428 . S
H345 C341 0.930 . S
H346 C343 0.929 . S
S347 N348 1.613 . S
S347 N349 1.610 . S
N348 S347 1.613 . S
N348 C351 1.350 . S
N349 S347 1.610 . S
N349 C350 1.351 . S
C350 C344 1.428 . S
C350 N349 1.351 . S
C350 C351 1.434 . S
C351 C342 1.429 . S
C351 N348 1.350 . S
C351 C350 1.434 . S
C352 C353 1.369 . S
C352 C354 1.419 . S
C352 H356 0.930 . S
C353 C352 1.369 . S
C353 C362 1.429 . S
C354 C352 1.419 . S
C354 C355 1.363 . S
C354 H357 0.929 . S
C355 C354 1.363 . S
C355 C361 1.428 . S
H356 C352 0.930 . S
H357 C354 0.929 . S
S358 N359 1.613 1_565 S
S358 N360 1.610 1_565 S
N359 S358 1.613 1_545 S
N359 C362 1.350 . S
N360 S358 1.610 1_545 S
N360 C361 1.351 . S
C361 C355 1.428 . S
C361 N360 1.351 . S
C361 C362 1.434 . S
C362 C353 1.429 . S
C362 N359 1.350 . S
C362 C361 1.434 . S
C363 C364 1.369 . S
C363 C365 1.419 . S
C363 H367 0.930 . S
C364 C363 1.369 . S
C364 C373 1.429 . S
C365 C363 1.419 . S
C365 C366 1.363 . S
C365 H368 0.929 . S
C366 C365 1.363 . S
C366 C372 1.428 . S
H367 C363 0.930 . S
H368 C365 0.929 . S
S369 N370 1.613 . S
S369 N371 1.610 . S
N370 S369 1.613 . S
N370 C373 1.350 . S
N371 S369 1.610 . S
N371 C372 1.351 . S
C372 C366 1.428 . S
C372 N371 1.351 . S
C372 C373 1.434 . S
C373 C364 1.429 . S
C373 N370 1.350 . S
C373 C372 1.434 . S
C374 C375 1.369 . S
C374 C376 1.419 . S
C374 H378 0.930 . S
C375 C374 1.369 . S
C375 C384 1.429 . S
C376 C374 1.419 . S
C376 C377 1.363 . S
C376 H379 0.929 . S
C377 C376 1.363 . S
C377 C383 1.428 . S
H378 C374 0.930 . S
H379 C376 0.929 . S
S380 N381 1.613 . S
S380 N382 1.610 . S
N381 S380 1.613 . S
N381 C384 1.350 . S
N382 S380 1.610 . S
N382 C383 1.351 . S
C383 C377 1.428 . S
C383 N382 1.351 . S
C383 C384 1.434 . S
C384 C375 1.429 . S
C384 N381 1.350 . S
C384 C383 1.434 . S
C385 C386 1.369 . S
C385 C387 1.419 . S
C385 H389 0.930 . S
C386 C385 1.369 . S
C386 C395 1.429 . S
C387 C385 1.419 . S
C387 C388 1.363 . S
C387 H390 0.929 . S
C388 C387 1.363 . S
C388 C394 1.428 . S
H389 C385 0.930 . S
H390 C387 0.929 . S
S391 N392 1.613 . S
S391 N393 1.610 . S
N392 S391 1.613 . S
N392 C395 1.350 . S
N393 S391 1.610 . S
N393 C394 1.351 . S
C394 C388 1.428 . S
C394 N393 1.351 . S
C394 C395 1.434 . S
C395 C386 1.429 . S
C395 N392 1.350 . S
C395 C394 1.434 . S
C396 C397 1.369 . S
C396 C398 1.419 . S
C396 H400 0.930 . S
C397 C396 1.369 . S
C397 C406 1.429 . S
C398 C396 1.419 . S
C398 C399 1.363 . S
C398 H401 0.929 . S
C399 C398 1.363 . S
C399 C405 1.428 . S
H400 C396 0.930 . S
H401 C398 0.929 . S
S402 N403 1.613 . S
S402 N404 1.610 . S
N403 S402 1.613 . S
N403 C406 1.350 . S
N404 S402 1.610 . S
N404 C405 1.351 . S
C405 C399 1.428 . S
C405 N404 1.351 . S
C405 C406 1.434 . S
C406 C397 1.429 . S
C406 N403 1.350 . S
C406 C405 1.434 . S
C407 C408 1.369 . S
C407 C409 1.419 . S
C407 H411 0.930 . S
C408 C407 1.369 . S
C408 C417 1.429 . S
C409 C407 1.419 . S
C409 C410 1.363 . S
C409 H412 0.929 . S
C410 C409 1.363 . S
C410 C416 1.428 . S
H411 C407 0.930 . S
H412 C409 0.929 . S
S413 N414 1.613 . S
S413 N415 1.610 . S
N414 S413 1.613 . S
N414 C417 1.350 . S
N415 S413 1.610 . S
N415 C416 1.351 . S
C416 C410 1.428 . S
C416 N415 1.351 . S
C416 C417 1.434 . S
C417 C408 1.429 . S
C417 N414 1.350 . S
C417 C416 1.434 . S
C418 C419 1.369 . S
C418 C420 1.419 . S
C418 H422 0.930 . S
C419 C418 1.369 . S
C419 C428 1.429 . S
C420 C418 1.419 . S
C420 C421 1.363 . S
C420 H423 0.929 . S
C421 C420 1.363 . S
C421 C427 1.428 . S
H422 C418 0.930 . S
H423 C420 0.929 . S
S424 N425 1.613 . S
S424 N426 1.610 . S
N425 S424 1.613 . S
N425 C428 1.350 . S
N426 S424 1.610 . S
N426 C427 1.351 . S
C427 C421 1.428 . S
C427 N426 1.351 . S
C427 C428 1.434 . S
C428 C419 1.429 . S
C428 N425 1.350 . S
C428 C427 1.434 . S
C429 C430 1.369 . S
C429 C431 1.419 . S
C429 H433 0.930 . S
C430 C429 1.369 . S
C430 C439 1.429 . S
C431 C429 1.419 . S
C431 C432 1.363 . S
C431 H434 0.929 . S
C432 C431 1.363 . S
C432 C438 1.428 . S
H433 C429 0.930 . S
H434 C431 0.929 . S
S435 N436 1.613 . S
S435 N437 1.610 . S
N436 S435 1.613 . S
N436 C439 1.350 . S
N437 S435 1.610 . S
N437 C438 1.351 . S
C438 C432 1.428 . S
C438 N437 1.351 . S
C438 C439 1.434 . S
C439 C430 1.429 . S
C439 N436 1.350 . S
C439 C438 1.434 . S
C440 C441 1.369 . S
C440 C442 1.419 . S
C440 H444 0.930 . S
C441 C440 1.369 . S
C441 C450 1.429 . S
C442 C440 1.419 . S
C442 C443 1.363 . S
C442 H445 0.929 . S
C443 C442 1.363 . S
C443 C449 1.428 . S
H444 C440 0.930 . S
H445 C442 0.929 . S
S446 N447 1.613 . S
S446 N448 1.610 . S
N447 S446 1.613 . S
N447 C450 1.350 . S
N448 S446 1.610 . S
N448 C449 1.351 . S
C449 C443 1.428 . S
C449 N448 1.351 . S
C449 C450 1.434 . S
C450 C441 1.429 . S
C450 N447 1.350 . S
C450 C449 1.434 . S
C451 C452 1.369 . S
C451 C453 1.419 . S
C451 H455 0.930 . S
C452 C451 1.369 . S
C452 C461 1.429 . S
C453 C451 1.419 . S
C453 C454 1.363 . S
C453 H456 0.929 . S
C454 C453 1.363 . S
C454 C460 1.428 . S
H455 C451 0.930 . S
H456 C453 0.929 . S
S457 N458 1.613 . S
S457 N459 1.610 . S
N458 S457 1.613 . S
N458 C461 1.350 . S
N459 S457 1.610 . S
N459 C460 1.351 . S
C460 C454 1.428 . S
C460 N459 1.351 . S
C460 C461 1.434 . S
C461 C452 1.429 . S
C461 N458 1.350 . S
C461 C460 1.434 . S
C462 C463 1.369 . S
C462 C464 1.419 . S
C462 H466 0.930 . S
C463 C462 1.369 . S
C463 C472 1.429 . S
C464 C462 1.419 . S
C464 C465 1.363 . S
C464 H467 0.929 . S
C465 C464 1.363 . S
C465 C471 1.428 . S
H466 C462 0.930 . S
H467 C464 0.929 . S
S468 N469 1.613 . S
S468 N470 1.610 . S
N469 S468 1.613 . S
N469 C472 1.350 . S
N470 S468 1.610 . S
N470 C471 1.351 . S
C471 C465 1.428 . S
C471 N470 1.351 . S
C471 C472 1.434 . S
C472 C463 1.429 . S
C472 N469 1.350 . S
C472 C471 1.434 . S
C473 C474 1.369 . S
C473 C475 1.419 . S
C473 H477 0.930 . S
C474 C473 1.369 . S
C474 C483 1.429 . S
C475 C473 1.419 . S
C475 C476 1.363 . S
C475 H478 0.929 . S
C476 C475 1.363 . S
C476 C482 1.428 . S
H477 C473 0.930 . S
H478 C475 0.929 . S
S479 N480 1.613 . S
S479 N481 1.610 . S
N480 S479 1.613 . S
N480 C483 1.350 . S
N481 S479 1.610 . S
N481 C482 1.351 . S
C482 C476 1.428 . S
C482 N481 1.351 . S
C482 C483 1.434 . S
C483 C474 1.429 . S
C483 N480 1.350 . S
C483 C482 1.434 . S
C265 C50 1.515 . S
C267 C17 1.513 . S
C276 C83 1.513 . S
C278 C116 1.515 . S
C287 C182 1.513 . S
C289 C149 1.515 . S
C298 C215 1.514 . S
C300 C248 1.515 . S
C309 C160 1.539 . S
C311 C28 1.540 . S
C320 C61 1.541 . S
C322 C193 1.539 . S
C331 C94 1.539 . S
C333 C226 1.540 . S
C342 C127 1.539 . S
C344 C259 1.541 . S
C353 N5 1.404 . S
C355 N14 1.394 . S
C364 N47 1.397 . S
C366 N38 1.401 . S
C375 N71 1.404 . S
C377 N80 1.394 1_556 S
C386 N113 1.395 1_556 S
C388 N104 1.402 . S
C397 N137 1.399 . S
C399 N146 1.399 . S
C408 N179 1.399 . S
C410 N170 1.400 . S
C419 N203 1.399 . S
C421 N212 1.399 1_554 S
C430 N236 1.404 . S
C432 N245 1.394 1_554 S
C441 C8 1.538 . S
C443 C74 1.541 . S
C452 C41 1.538 . S
C454 C107 1.541 . S
C463 C140 1.538 . S
C465 C206 1.542 . S
C474 C173 1.541 . S
C476 C239 1.539 . S
