# Generated by pormake.
# Topology unb, (4)-cn, num edge types: 1
# Building blocks:
#     Node 0, Type 0, BuildingBlock: QUQFOY_clean_sbu_1, # of connection points: 4
#     Node 1, Type 0, BuildingBlock: QUQFOY_clean_sbu_1, # of connection points: 4
#     Node 2, Type 0, BuildingBlock: QUQFOY_clean_sbu_1, # of connection points: 4
#     Node 3, Type 0, BuildingBlock: QUQFOY_clean_sbu_1, # of connection points: 4
#     Node 4, Type 0, BuildingBlock: QUQFOY_clean_sbu_1, # of connection points: 4
#     Node 5, Type 0, BuildingBlock: QUQFOY_clean_sbu_1, # of connection points: 4
#     Node 6, Type 0, BuildingBlock: QUQFOY_clean_sbu_1, # of connection points: 4
#     Node 7, Type 0, BuildingBlock: QUQFOY_clean_sbu_1, # of connection points: 4
#     Node 8, Type 0, BuildingBlock: QUQFOY_clean_sbu_1, # of connection points: 4
#     Node 9, Type 0, BuildingBlock: QUQFOY_clean_sbu_1, # of connection points: 4
#     Node 10, Type 0, BuildingBlock: QUQFOY_clean_sbu_1, # of connection points: 4
#     Node 11, Type 0, BuildingBlock: QUQFOY_clean_sbu_1, # of connection points: 4
#     Node 12, Type 0, BuildingBlock: QUQFOY_clean_sbu_1, # of connection points: 4
#     Node 13, Type 0, BuildingBlock: QUQFOY_clean_sbu_1, # of connection points: 4
#     Node 14, Type 0, BuildingBlock: QUQFOY_clean_sbu_1, # of connection points: 4
#     Node 15, Type 0, BuildingBlock: QUQFOY_clean_sbu_1, # of connection points: 4
#     Node 16, Type 0, BuildingBlock: QUQFOY_clean_sbu_1, # of connection points: 4
#     Node 17, Type 0, BuildingBlock: QUQFOY_clean_sbu_1, # of connection points: 4
#     Edge 18, Type (0, 0), BuildingBlock: EZIPEK_clean_linker_0, # of connection points: 2
#     Edge 19, Type (0, 0), BuildingBlock: EZIPEK_clean_linker_0, # of connection points: 2
#     Edge 20, Type (0, 0), BuildingBlock: EZIPEK_clean_linker_0, # of connection points: 2
#     Edge 21, Type (0, 0), BuildingBlock: EZIPEK_clean_linker_0, # of connection points: 2
#     Edge 22, Type (0, 0), BuildingBlock: EZIPEK_clean_linker_0, # of connection points: 2
#     Edge 23, Type (0, 0), BuildingBlock: EZIPEK_clean_linker_0, # of connection points: 2
#     Edge 24, Type (0, 0), BuildingBlock: EZIPEK_clean_linker_0, # of connection points: 2
#     Edge 25, Type (0, 0), BuildingBlock: EZIPEK_clean_linker_0, # of connection points: 2
#     Edge 26, Type (0, 0), BuildingBlock: EZIPEK_clean_linker_0, # of connection points: 2
#     Edge 27, Type (0, 0), BuildingBlock: EZIPEK_clean_linker_0, # of connection points: 2
#     Edge 28, Type (0, 0), BuildingBlock: EZIPEK_clean_linker_0, # of connection points: 2
#     Edge 29, Type (0, 0), BuildingBlock: EZIPEK_clean_linker_0, # of connection points: 2
#     Edge 30, Type (0, 0), BuildingBlock: EZIPEK_clean_linker_0, # of connection points: 2
#     Edge 31, Type (0, 0), BuildingBlock: EZIPEK_clean_linker_0, # of connection points: 2
#     Edge 32, Type (0, 0), BuildingBlock: EZIPEK_clean_linker_0, # of connection points: 2
#     Edge 33, Type (0, 0), BuildingBlock: EZIPEK_clean_linker_0, # of connection points: 2
#     Edge 34, Type (0, 0), BuildingBlock: EZIPEK_clean_linker_0, # of connection points: 2
#     Edge 35, Type (0, 0), BuildingBlock: EZIPEK_clean_linker_0, # of connection points: 2
#     Edge 36, Type (0, 0), BuildingBlock: EZIPEK_clean_linker_0, # of connection points: 2
#     Edge 37, Type (0, 0), BuildingBlock: EZIPEK_clean_linker_0, # of connection points: 2
#     Edge 38, Type (0, 0), BuildingBlock: EZIPEK_clean_linker_0, # of connection points: 2
#     Edge 39, Type (0, 0), BuildingBlock: EZIPEK_clean_linker_0, # of connection points: 2
#     Edge 40, Type (0, 0), BuildingBlock: EZIPEK_clean_linker_0, # of connection points: 2
#     Edge 41, Type (0, 0), BuildingBlock: EZIPEK_clean_linker_0, # of connection points: 2
#     Edge 42, Type (0, 0), BuildingBlock: EZIPEK_clean_linker_0, # of connection points: 2
#     Edge 43, Type (0, 0), BuildingBlock: EZIPEK_clean_linker_0, # of connection points: 2
#     Edge 44, Type (0, 0), BuildingBlock: EZIPEK_clean_linker_0, # of connection points: 2
#     Edge 45, Type (0, 0), BuildingBlock: EZIPEK_clean_linker_0, # of connection points: 2
#     Edge 46, Type (0, 0), BuildingBlock: EZIPEK_clean_linker_0, # of connection points: 2
#     Edge 47, Type (0, 0), BuildingBlock: EZIPEK_clean_linker_0, # of connection points: 2
#     Edge 48, Type (0, 0), BuildingBlock: EZIPEK_clean_linker_0, # of connection points: 2
#     Edge 49, Type (0, 0), BuildingBlock: EZIPEK_clean_linker_0, # of connection points: 2
#     Edge 50, Type (0, 0), BuildingBlock: EZIPEK_clean_linker_0, # of connection points: 2
#     Edge 51, Type (0, 0), BuildingBlock: EZIPEK_clean_linker_0, # of connection points: 2
#     Edge 52, Type (0, 0), BuildingBlock: EZIPEK_clean_linker_0, # of connection points: 2
#     Edge 53, Type (0, 0), BuildingBlock: EZIPEK_clean_linker_0, # of connection points: 2
# Relax obj value: 0.075
# Max RMSD: 0.094
# Mean RMSD: 0.094
data_MOF--net-unb--node1-QUQFOY_clean_sbu_1--edge1-EZIPEK_clean_linker_0
_symmetry_space_group_name_H-M    P1
_symmetry_Int_Tables_number       1
_symmetry_cell_setting            triclinic
loop_
_symmetry_equiv_pos_as_xyz
'x, y, z'
_cell_length_a     48.483233
_cell_length_b     48.400735
_cell_length_c     20.668118
_cell_angle_alpha  90.137497
_cell_angle_beta   90.067722
_cell_angle_gamma 120.06042
loop_
_atom_site_label
_atom_site_type_symbol
_atom_site_fract_x
_atom_site_fract_y
_atom_site_fract_z
_atom_type_partial_charge
O0 O 0.17756 0.26351 0.08579 0.0
Cd1 Cd 0.15722 0.29061 0.11083 0.0
Cd2 Cd 0.10696 0.23857 0.06003 0.0
O3 O 0.13301 0.21709 0.08032 0.0
O4 O 0.18345 0.32048 0.18149 0.0
O5 O 0.13252 0.28377 0.19307 0.0
C6 C 0.1586 0.30644 0.21806 0.0
C7 C 0.05187 0.20821 0.05091 0.0
C8 C 0.16317 0.23346 0.07774 0.0
C9 C 0.14046 0.29908 0.98189 0.0
O10 O 0.12354 0.26898 0.98355 0.0
O11 O 0.15414 0.31507 0.03253 0.0
O12 O 0.07025 0.20246 1.01581 0.0
O13 O 0.06466 0.22968 0.09558 0.0
O14 O 0.71037 0.91554 0.09914 0.0
Cd15 Cd 0.68443 0.86718 0.11765 0.0
Cd16 Cd 0.73709 0.86858 0.06123 0.0
O17 O 0.75378 0.91666 0.06232 0.0
O18 O 0.65272 0.86105 0.18612 0.0
O19 O 0.69129 0.84984 0.20121 0.0
C20 C 0.6675 0.85171 0.22432 0.0
C21 C 0.7727 0.84978 0.06053 0.0
C22 C 0.73819 0.93064 0.07513 0.0
C23 C 0.67458 0.83581 0.98929 0.0
O24 O 0.70397 0.84498 0.99174 0.0
O25 O 0.66057 0.84048 0.0365 0.0
O26 O 0.7728 0.86805 1.01563 0.0
O27 O 0.7541 0.84407 0.10943 0.0
O28 O 0.06871 0.80654 0.09875 0.0
Cd29 Cd 0.11663 0.82737 0.12197 0.0
Cd30 Cd 0.11529 0.87606 0.06313 0.0
O31 O 0.06784 0.85112 0.08226 0.0
O32 O 0.12033 0.80124 0.19267 0.0
O33 O 0.13512 0.8523 0.2045 0.0
C34 C 0.13157 0.82621 0.22933 0.0
C35 C 0.14179 0.93115 0.05359 0.0
C36 C 0.05351 0.82097 0.08613 0.0
C37 C 0.14168 0.84111 0.99081 0.0
O38 O 0.12838 0.85785 0.98864 0.0
O39 O 0.14419 0.82931 0.04394 0.0
O40 O 0.11765 0.91315 1.01785 0.0
O41 O 0.14955 0.91801 0.09892 0.0
O42 O 0.26073 0.19069 0.95793 0.0
Cd43 Cd 0.28847 0.17083 0.93378 0.0
Cd44 Cd 0.23767 0.12042 0.98432 0.0
O45 O 0.21513 0.14535 0.96408 0.0
O46 O 0.31804 0.19675 0.863 0.0
O47 O 0.28144 0.14563 0.85189 0.0
C48 C 0.30399 0.17162 0.82673 0.0
C49 C 0.20886 0.06523 0.99172 0.0
C50 C 0.23069 0.17559 0.96536 0.0
C51 C 0.29762 0.15427 0.06281 0.0
O52 O 0.26758 0.13732 0.06165 0.0
O53 O 0.31321 0.1677 1.01187 0.0
O54 O 0.2022 0.08295 0.027 0.0
O55 O 0.23038 0.07871 0.94769 0.0
O56 O 0.79141 0.07405 0.96302 0.0
Cd57 Cd 0.8137 0.12128 0.93461 0.0
Cd58 Cd 0.86256 0.11704 0.98306 0.0
O59 O 0.83449 0.06962 0.96242 0.0
O60 O 0.78657 0.1259 0.86745 0.0
O61 O 0.83521 0.13456 0.84773 0.0
C62 C 0.80934 0.13306 0.82671 0.0
C63 C 0.91754 0.14082 0.9894 0.0
C64 C 0.80457 0.05715 0.96881 0.0
C65 C 0.83376 0.14782 0.06259 0.0
O66 O 0.84794 0.1319 0.06115 0.0
O67 O 0.82111 0.15143 1.01176 0.0
O68 O 0.89922 0.11659 0.02435 0.0
O69 O 0.90466 0.14985 0.94582 0.0
O70 O 0.91452 0.7319 0.95255 0.0
Cd71 Cd 0.86721 0.70324 0.92671 0.0
Cd72 Cd 0.86465 0.75333 0.98768 0.0
O73 O 0.91295 0.77535 0.97966 0.0
O74 O 0.86538 0.67438 0.85508 0.0
O75 O 0.8483 0.70883 0.84404 0.0
C76 C 0.85311 0.68712 0.81877 0.0
C77 C 0.84165 0.78524 0.99828 0.0
C78 C 0.92826 0.76066 0.97236 0.0
C79 C 0.83738 0.68919 0.05452 0.0
O80 O 0.84655 0.71867 0.05616 0.0
O81 O 0.84034 0.67607 1.00369 0.0
O82 O 0.86183 0.78637 0.0398 0.0
O83 O 0.8356 0.76728 0.94796 0.0
O84 O 0.85147 0.60166 0.42109 0.0
Cd85 Cd 0.83139 0.62953 0.44245 0.0
Cd86 Cd 0.78055 0.57791 0.38743 0.0
O87 O 0.80667 0.55625 0.40429 0.0
O88 O 0.85766 0.66009 0.51263 0.0
O89 O 0.80674 0.62372 0.52473 0.0
C90 C 0.83285 0.64649 0.54935 0.0
C91 C 0.72534 0.54786 0.38037 0.0
C92 C 0.8368 0.57191 0.40891 0.0
C93 C 0.81463 0.63873 0.31148 0.0
O94 O 0.7966 0.60877 0.31203 0.0
O95 O 0.82905 0.65394 0.36246 0.0
O96 O 0.74328 0.54221 0.34365 0.0
O97 O 0.73867 0.56905 0.42539 0.0
O98 O 0.38489 0.25202 0.42495 0.0
Cd99 Cd 0.35774 0.2044 0.44969 0.0
Cd100 Cd 0.40885 0.20541 0.39475 0.0
O101 O 0.43067 0.25304 0.41444 0.0
O102 O 0.32828 0.20107 0.52053 0.0
O103 O 0.3648 0.18665 0.53198 0.0
C104 C 0.3423 0.19018 0.55701 0.0
C105 C 0.43943 0.18103 0.38314 0.0
C106 C 0.41476 0.26731 0.41528 0.0
C107 C 0.34725 0.17806 0.32053 0.0
O108 O 0.37729 0.19109 0.32008 0.0
O109 O 0.33231 0.17621 0.3723 0.0
O110 O 0.44428 0.20489 0.34811 0.0
O111 O 0.41866 0.17233 0.42889 0.0
O112 O 0.73101 0.13117 0.41554 0.0
Cd113 Cd 0.77796 0.15237 0.44588 0.0
Cd114 Cd 0.77757 0.20372 0.39261 0.0
O115 O 0.72942 0.17559 0.40126 0.0
O116 O 0.78105 0.1255 0.51569 0.0
O117 O 0.79215 0.17534 0.5316 0.0
C118 C 0.78958 0.14933 0.55468 0.0
C119 C 0.79945 0.25863 0.38802 0.0
C120 C 0.71571 0.14536 0.40159 0.0
C121 C 0.80908 0.17245 0.3209 0.0
O122 O 0.7967 0.19004 0.32052 0.0
O123 O 0.80804 0.15686 0.37112 0.0
O124 O 0.77921 0.24017 0.34568 0.0
O125 O 0.80585 0.24596 0.43639 0.0
O126 O 0.92523 0.51886 0.2818 0.0
Cd127 Cd 0.95069 0.49686 0.25433 0.0
Cd128 Cd 0.89956 0.44679 0.31629 0.0
O129 O 0.88028 0.47552 0.30922 0.0
O130 O 0.98073 0.52345 0.1843 0.0
O131 O 0.94227 0.47351 0.16892 0.0
C132 C 0.96565 0.49946 0.14563 0.0
C133 C 0.86616 0.39206 0.32434 0.0
C134 C 0.89652 0.50548 0.30122 0.0
C135 C 0.964 0.47902 0.38116 0.0
O136 O 0.93412 0.46122 0.38459 0.0
O137 O 0.97727 0.49373 0.32928 0.0
O138 O 0.86565 0.4112 0.36669 0.0
O139 O 0.88413 0.40394 0.27424 0.0
O140 O 0.46443 0.40738 0.29186 0.0
Cd141 Cd 0.48413 0.4547 0.26645 0.0
Cd142 Cd 0.53523 0.45456 0.31664 0.0
O143 O 0.50946 0.40664 0.29849 0.0
O144 O 0.45753 0.45756 0.19591 0.0
O145 O 0.50857 0.47246 0.18394 0.0
C146 C 0.48231 0.4685 0.15911 0.0
C147 C 0.59047 0.48014 0.32368 0.0
C148 C 0.47927 0.39229 0.3007 0.0
C149 C 0.50143 0.48118 0.39497 0.0
O150 O 0.519 0.46879 0.39322 0.0
O151 O 0.48699 0.48238 0.34465 0.0
O152 O 0.57259 0.45621 0.35968 0.0
O153 O 0.57707 0.48815 0.27935 0.0
O154 O 0.57367 0.05624 0.27501 0.0
Cd155 Cd 0.52572 0.03261 0.25132 0.0
Cd156 Cd 0.53202 0.08502 0.30848 0.0
O157 O 0.57928 0.10401 0.28868 0.0
O158 O 0.51949 0.00183 0.18043 0.0
O159 O 0.50896 0.0411 0.16888 0.0
C160 C 0.51027 0.01727 0.14381 0.0
C161 C 0.50814 0.11599 0.31712 0.0
C162 C 0.59119 0.08594 0.28599 0.0
C163 C 0.50105 0.02387 0.38207 0.0
O164 O 0.51672 0.05402 0.38367 0.0
O165 O 0.49712 0.00875 0.32927 0.0
O166 O 0.53233 0.12163 0.35212 0.0
O167 O 0.49932 0.09463 0.27217 0.0
O168 O 0.51488 0.93424 0.75619 0.0
Cd169 Cd 0.49216 0.96025 0.76895 0.0
Cd170 Cd 0.44292 0.90718 0.70919 0.0
O171 O 0.47332 0.88985 0.72 0.0
O172 O 0.5165 -0.00823 0.83905 0.0
O173 O 0.46572 0.95464 0.84839 0.0
C174 C 0.49117 0.97781 0.87419 0.0
C175 C 0.38807 0.8727 0.70513 0.0
C176 C 0.50267 0.90592 0.73456 0.0
C177 C 0.47476 0.96899 0.63597 0.0
O178 O 0.45553 0.93924 0.63662 0.0
O179 O 0.49103 0.98362 0.68583 0.0
O180 O 0.40694 0.86973 0.66591 0.0
O181 O 0.40054 0.8937 0.75073 0.0
O182 O 0.04492 0.57535 0.74057 0.0
Cd183 Cd 0.01986 0.52791 0.76709 0.0
Cd184 Cd 0.0735 0.53282 0.72156 0.0
O185 O 0.09253 0.58004 0.74326 0.0
O186 O -0.01259 0.52268 0.83293 0.0
O187 O 0.02731 0.51409 0.85422 0.0
C188 C 0.00276 0.51546 0.87431 0.0
C189 C 0.1047 0.50904 0.7173 0.0
C190 C 0.07502 0.59241 0.73618 0.0
C191 C 0.01515 0.50304 0.63812 0.0
O192 O 0.04522 0.51882 0.64157 0.0
O193 O -0.00184 0.49869 0.68806 0.0
O194 O 0.11126 0.53365 0.683 0.0
O195 O 0.08205 0.49958 0.75919 0.0
O196 O 0.39858 0.4636 0.75685 0.0
Cd197 Cd 0.44623 0.48471 0.78135 0.0
Cd198 Cd 0.44531 0.53524 0.7283 0.0
O199 O 0.39745 0.50819 0.74231 0.0
O200 O 0.45054 0.45957 0.85304 0.0
O201 O 0.4641 0.51047 0.86282 0.0
C202 C 0.46122 0.48484 0.88871 0.0
C203 C 0.46846 0.59027 0.72039 0.0
C204 C 0.38333 0.47798 0.74446 0.0
C205 C 0.47402 0.50254 0.65328 0.0
O206 O 0.46177 0.52024 0.65377 0.0
O207 O 0.47426 0.48773 0.70378 0.0
O208 O 0.44558 0.57136 0.68297 0.0
O209 O 0.47673 0.57798 0.76652 0.0
O210 O 0.59193 0.8495 0.63279 0.0
Cd211 Cd 0.61508 0.82538 0.60388 0.0
Cd212 Cd 0.56232 0.77959 0.6548 0.0
O213 O 0.54366 0.80753 0.62982 0.0
O214 O 0.64734 0.85205 0.5373 0.0
O215 O 0.6061 0.80415 0.51618 0.0
C216 C 0.63106 0.82968 0.49584 0.0
C217 C 0.53213 0.7247 0.66081 0.0
C218 C 0.56191 0.83736 0.63688 0.0
C219 C 0.6215 0.8072 0.73294 0.0
O220 O 0.59162 0.7955 0.73324 0.0
O221 O 0.63707 0.81655 0.68033 0.0
O222 O 0.52502 0.74264 0.69435 0.0
O223 O 0.55463 0.73791 0.61856 0.0
O224 O 0.12493 0.73645 0.61532 0.0
Cd225 Cd 0.14856 0.78531 0.603 0.0
Cd226 Cd 0.19678 0.78023 0.66063 0.0
O227 O 0.16616 0.7325 0.64862 0.0
O228 O 0.12466 0.79334 0.53351 0.0
O229 O 0.17502 0.80574 0.5234 0.0
C230 C 0.14986 0.80418 0.49809 0.0
C231 C 0.25171 0.80185 0.66227 0.0
C232 C 0.13669 0.71977 0.63552 0.0
C233 C 0.16616 0.81038 0.73678 0.0
O234 O 0.18454 0.79892 0.73534 0.0
O235 O 0.15054 0.80998 0.68687 0.0
O236 O 0.2335 0.77923 0.70076 0.0
O237 O 0.2385 0.81022 0.61815 0.0
O238 O 0.24208 0.38619 0.61916 0.0
Cd239 Cd 0.19421 0.36008 0.59562 0.0
Cd240 Cd 0.19675 0.41134 0.65283 0.0
O241 O 0.24441 0.43234 0.63648 0.0
O242 O 0.18964 0.33027 0.52409 0.0
O243 O 0.17636 0.36771 0.51399 0.0
C244 C 0.17908 0.3448 0.48826 0.0
C245 C 0.17221 0.44182 0.66053 0.0
C246 C 0.25795 0.41581 0.63229 0.0
C247 C 0.1679 0.34955 0.72524 0.0
O248 O 0.1813 0.37965 0.72677 0.0
O249 O 0.16613 0.33481 0.67301 0.0
O250 O 0.19549 0.44687 0.6978 0.0
O251 O 0.16437 0.42103 0.61472 0.0
C252 C 0.18364 0.35858 0.3692 0.0
C253 C 0.17082 0.33537 0.41912 0.0
C254 C 0.15004 0.29277 0.3372 0.0
C255 C 0.16054 0.316 0.2873 0.0
N256 N 0.17954 0.37079 0.25731 0.0
N257 N 0.13428 0.2808 0.44934 0.0
C258 C 0.17493 0.34886 0.30378 0.0
C259 C 0.15166 0.30258 0.40269 0.0
N260 N 0.20559 0.38959 0.38332 0.0
N261 N 0.14029 0.26161 0.32294 0.0
H262 H 0.13387 0.2872 0.49742 0.0
H263 H 0.11761 0.25709 0.4389 0.0
H264 H 0.14002 0.25339 0.27619 0.0
H265 H 0.13563 0.24454 0.35836 0.0
H266 H 0.21807 0.40658 0.34782 0.0
H267 H 0.21386 0.39773 0.42999 0.0
H268 H 0.18715 0.39462 0.26787 0.0
H269 H 0.17239 0.36449 0.20933 0.0
C270 C 0.64501 0.81206 0.39126 0.0
C271 C 0.6398 0.83443 0.42594 0.0
C272 C 0.65685 0.86948 0.33107 0.0
C273 C 0.65861 0.84565 0.29406 0.0
N274 N 0.64906 0.7918 0.28629 0.0
N275 N 0.63345 0.88084 0.42321 0.0
C276 C 0.65128 0.81623 0.32343 0.0
C277 C 0.64366 0.86214 0.39424 0.0
N278 N 0.64523 0.78753 0.4234 0.0
N279 N 0.6691 0.8997 0.30719 0.0
H280 H 0.62244 0.87573 0.46837 0.0
H281 H 0.63273 0.89943 0.3994 0.0
H282 H 0.68026 0.90664 0.26229 0.0
H283 H 0.67136 0.91875 0.33488 0.0
H284 H 0.65223 0.7725 0.40203 0.0
H285 H 0.64125 0.78396 0.47303 0.0
H286 H 0.64052 0.76876 0.30376 0.0
H287 H 0.65296 0.79373 0.23649 0.0
C288 C 0.15919 0.80071 0.37842 0.0
C289 C 0.14909 0.81335 0.42943 0.0
C290 C 0.12746 0.83492 0.34917 0.0
C291 C 0.13973 0.8244 0.29829 0.0
N292 N 0.17517 0.80538 0.26621 0.0
N293 N 0.13157 0.84996 0.46214 0.0
C294 C 0.1581 0.80984 0.3135 0.0
C295 C 0.13572 0.83282 0.41438 0.0
N296 N 0.16791 0.77842 0.39092 0.0
N297 N 0.10637 0.84512 0.33607 0.0
H298 H 0.13839 0.84993 0.51003 0.0
H299 H 0.12473 0.86684 0.45291 0.0
H300 H 0.09849 0.84589 0.28956 0.0
H301 H 0.09419 0.84976 0.37208 0.0
H302 H 0.17216 0.76609 0.35451 0.0
H303 H 0.16772 0.76969 0.43703 0.0
H304 H 0.19133 0.79766 0.27586 0.0
H305 H 0.17591 0.81279 0.21857 0.0
C306 C 0.356 0.19537 0.67627 0.0
C307 C 0.3328 0.18247 0.62611 0.0
C308 C 0.2903 0.16253 0.7075 0.0
C309 C 0.31349 0.17312 0.75768 0.0
N310 N 0.36809 0.19183 0.78858 0.0
N311 N 0.27819 0.14631 0.59535 0.0
C312 C 0.34626 0.18714 0.74166 0.0
C313 C 0.30003 0.16372 0.64217 0.0
N314 N 0.38706 0.21696 0.66232 0.0
N315 N 0.25925 0.15308 0.72135 0.0
H316 H 0.28451 0.14562 0.5474 0.0
H317 H 0.25445 0.12988 0.60555 0.0
H318 H 0.2511 0.15304 0.76799 0.0
H319 H 0.24222 0.1484 0.68572 0.0
H320 H 0.40409 0.22953 0.6979 0.0
H321 H 0.39522 0.22485 0.61562 0.0
H322 H 0.39182 0.19913 0.77845 0.0
H323 H 0.36176 0.18504 0.8366 0.0
C324 C 0.77086 0.11999 0.66014 0.0
C325 C 0.79481 0.14609 0.62474 0.0
C326 C 0.82726 0.16569 0.7238 0.0
C327 C 0.80492 0.1376 0.75689 0.0
N328 N 0.75909 0.08446 0.75096 0.0
N329 N 0.84852 0.19081 0.62028 0.0
C330 C 0.77771 0.11374 0.7235 0.0
C331 C 0.82378 0.16821 0.65586 0.0
N332 N 0.74101 0.10185 0.63447 0.0
N333 N 0.85108 0.19052 0.75751 0.0
H334 H 0.84723 0.19305 0.57037 0.0
H335 H 0.87128 0.20533 0.63922 0.0
H336 H 0.85407 0.18989 0.80735 0.0
H337 H 0.86598 0.21281 0.73715 0.0
H338 H 0.72183 0.08461 0.66091 0.0
H339 H 0.73447 0.10633 0.58931 0.0
H340 H 0.74092 0.0652 0.72594 0.0
H341 H 0.76392 0.07825 0.79612 0.0
C342 C 0.85698 0.69982 0.69911 0.0
C343 C 0.84506 0.67696 0.74976 0.0
C344 C 0.82519 0.63377 0.66902 0.0
C345 C 0.83488 0.65657 0.61837 0.0
N346 N 0.85254 0.71082 0.58647 0.0
N347 N 0.81045 0.62226 0.7818 0.0
C348 C 0.8485 0.68947 0.63384 0.0
C349 C 0.82689 0.64394 0.73434 0.0
N350 N 0.87787 0.73122 0.71256 0.0
N351 N 0.8161 0.60269 0.65553 0.0
H352 H 0.81022 0.62885 0.82981 0.0
H353 H 0.79434 0.59829 0.77226 0.0
H354 H 0.81559 0.59423 0.60889 0.0
H355 H 0.81214 0.58597 0.69129 0.0
H356 H 0.88989 0.74819 0.67676 0.0
H357 H 0.88571 0.73985 0.75918 0.0
H358 H 0.85944 0.73457 0.59606 0.0
H359 H 0.84567 0.70404 0.53854 0.0
C360 C 0.97642 0.5285 0.03976 0.0
C361 C 0.97425 0.50251 0.07568 0.0
C362 C -0.01238 0.48289 0.97741 0.0
C363 C -0.00659 0.5109 0.94392 0.0
N364 N 0.00057 0.564 0.94909 0.0
N365 N -0.01658 0.45793 0.08135 0.0
C366 C -0.01018 0.53473 0.97672 0.0
C367 C 0.98133 0.48042 0.04523 0.0
N368 N 0.96447 0.54656 0.06462 0.0
N369 N -0.0131 0.45809 0.9442 0.0
H370 H 0.97967 0.45573 0.13119 0.0
H371 H -0.00819 0.44345 0.06298 0.0
H372 H -0.00925 0.45869 0.89447 0.0
H373 H 0.97951 0.43584 0.96478 0.0
H374 H 0.96257 0.56372 0.03773 0.0
H375 H 0.95322 0.54207 0.10947 0.0
H376 H 0.00148 0.58323 0.9738 0.0
H377 H 0.01187 0.57024 0.90424 0.0
C378 C 0.49055 0.46274 0.04004 0.0
C379 C 0.4801 0.47566 0.08978 0.0
C380 C 0.45671 0.49448 1.00767 0.0
C381 C 0.46951 0.48393 0.95787 0.0
N382 N 0.50603 0.46594 0.92779 0.0
N383 N 0.46088 0.5113 0.11938 0.0
C384 C 0.48874 0.47051 0.97443 0.0
C385 C 0.46554 0.49386 0.0731 0.0
N386 N 0.50044 0.44153 0.0546 0.0
N387 N 0.4347 0.50333 0.9934 0.0
H388 H 0.46808 0.51242 0.16736 0.0
H389 H 0.45315 0.52736 0.10867 0.0
H390 H 0.42638 0.50292 0.94671 0.0
H391 H 0.42224 0.50794 0.02882 0.0
H392 H 0.50506 0.42895 1.01937 0.0
H393 H 0.50089 0.4339 0.10148 0.0
H394 H 0.52277 0.45907 0.93829 0.0
H395 H 0.50629 0.47242 0.8796 0.0
C396 C 0.48209 0.975 0.05862 0.0
C397 C 0.50191 0.00775 0.07462 0.0
C398 C 0.50687 0.02067 0.95883 0.0
C399 C 0.49209 0.98771 0.94304 0.0
N400 N 0.47065 0.93338 0.98056 0.0
N401 N 0.53785 0.06156 0.03786 0.0
C402 C 0.48077 0.96474 0.99356 0.0
C403 C 0.5154 0.03065 0.02422 0.0
N404 N 0.46388 0.95368 0.10526 0.0
N405 N 0.51215 0.04249 0.91163 0.0
H406 H 0.5461 0.06984 0.08445 0.0
H407 H 0.55073 0.07822 1.00209 0.0
H408 H 0.50512 0.03597 0.86367 0.0
H409 H 0.52015 0.06646 0.92151 0.0
H410 H 0.44681 0.93009 0.09493 0.0
H411 H 0.46322 0.96047 0.15292 0.0
H412 H 0.46539 0.9165 1.01674 0.0
H413 H 0.4707 0.92473 0.93441 0.0
C414 C 0.13093 0.3269 0.89075 0.0
C415 C 0.14878 0.31392 0.91776 0.0
C416 C 0.17737 0.32159 0.81584 0.0
C417 C 0.1582 0.33285 0.78752 0.0
N418 N 0.11434 0.3428 0.79347 0.0
N419 N 0.1862 0.2951 0.90595 0.0
C420 C 0.13424 0.33453 0.8238 0.0
C421 C 0.17117 0.31013 0.88021 0.0
N422 N 0.11117 0.3322 0.92946 0.0
N423 N 0.20268 0.32353 0.78257 0.0
H424 H 0.1843 0.28854 0.95449 0.0
H425 H 0.19919 0.28752 0.87852 0.0
H426 H 0.20771 0.3309 0.73458 0.0
H427 H 0.2201 0.31988 0.8037 0.0
H428 H 0.09955 0.34425 0.91455 0.0
H429 H 0.10816 0.3265 0.97857 0.0
H430 H 0.09467 0.34207 0.81533 0.0
H431 H 0.11603 0.34806 0.74418 0.0
C432 C 0.63093 0.78889 0.83918 0.0
C433 C 0.6378 0.81434 0.79601 0.0
C434 C 0.66895 0.85332 0.87973 0.0
C435 C 0.6598 0.82799 0.92462 0.0
N436 N 0.63006 0.77211 0.95041 0.0
N437 N 0.65772 0.87059 0.77857 0.0
C438 C 0.64009 0.79582 0.90536 0.0
C439 C 0.65545 0.84653 0.81697 0.0
N440 N 0.61634 0.75826 0.81619 0.0
N441 N 0.69102 0.88395 0.89667 0.0
H442 H 0.64822 0.86698 0.73202 0.0
H443 H 0.66668 0.89394 0.79486 0.0
H444 H 0.70064 0.89052 0.94301 0.0
H445 H 0.70162 0.90255 0.86349 0.0
H446 H 0.61292 0.73875 0.84347 0.0
H447 H 0.60986 0.75262 0.7677 0.0
H448 H 0.61326 0.74836 0.94107 0.0
H449 H 0.63697 0.77665 0.9989 0.0
C450 C 0.17188 0.85773 0.88729 0.0
C451 C 0.15054 0.83278 0.92874 0.0
C452 C 0.14014 0.7934 0.8442 0.0
C453 C 0.15905 0.81858 0.8008 0.0
N454 N 0.1904 0.87467 0.77747 0.0
N455 N 0.10933 0.77769 0.94268 0.0
C456 C 0.17414 0.85081 0.82125 0.0
C457 C 0.13341 0.80078 0.90639 0.0
N458 N 0.19054 0.88781 0.9118 0.0
N459 N 0.1289 0.76232 0.82637 0.0
H460 H 0.10325 0.78179 0.9886 0.0
H461 H 0.09343 0.75498 0.92498 0.0
H462 H 0.13209 0.7556 0.78033 0.0
H463 H 0.11845 0.74332 0.85869 0.0
H464 H 0.20857 0.90653 0.88586 0.0
H465 H 0.18983 0.89341 0.96034 0.0
H466 H 0.19933 0.89875 0.78766 0.0
H467 H 0.19294 0.87019 0.72907 0.0
C468 C 0.32729 0.14242 0.22397 0.0
C469 C 0.33105 0.16968 0.25753 0.0
C470 C 0.31889 0.18947 0.15897 0.0
C471 C 0.31313 0.16122 0.12649 0.0
N472 N 0.30767 0.10892 0.12824 0.0
N473 N 0.32691 0.21729 0.26112 0.0
C474 C 0.31613 0.13711 0.15907 0.0
C475 C 0.3257 0.19263 0.22624 0.0
N476 N 0.3351 0.12208 0.25385 0.0
N477 N 0.31811 0.21338 0.1252 0.0
H478 H 0.33255 0.22083 0.31025 0.0
H479 H 0.32002 0.23297 0.24303 0.0
H480 H 0.31244 0.21164 0.07613 0.0
H481 H 0.32535 0.23593 0.14417 0.0
H482 H 0.33665 0.10397 0.22982 0.0
H483 H 0.34167 0.12434 0.30253 0.0
H484 H 0.30558 0.08891 0.15154 0.0
H485 H 0.30105 0.10493 0.07954 0.0
C486 C 0.79841 0.13281 0.15818 0.0
C487 C 0.82662 0.15577 0.12672 0.0
C488 C 0.84624 0.18639 0.22753 0.0
C489 C 0.81711 0.16455 0.25758 0.0
N490 N 0.76348 0.11964 0.25048 0.0
N491 N 0.87648 0.20529 0.12755 0.0
C492 C 0.79269 0.13839 0.22272 0.0
C493 C 0.85035 0.18287 0.16037 0.0
N494 N 0.7776 0.10502 0.1271 0.0
N495 N 0.86991 0.21012 0.26374 0.0
H496 H 0.8799 0.20315 0.07835 0.0
H497 H 0.8937 0.22691 0.14734 0.0
H498 H 0.86732 0.21298 0.31303 0.0
H499 H 0.89273 0.22561 0.2467 0.0
H500 H 0.75898 0.08553 0.15029 0.0
H501 H 0.78003 0.10044 0.07873 0.0
H502 H 0.74344 0.10318 0.22471 0.0
H503 H 0.75854 0.12183 0.2987 0.0
C504 C 0.80044 0.66297 0.14679 0.0
C505 C 0.83023 0.67276 0.11717 0.0
C506 C 0.85059 0.66209 0.21688 0.0
C507 C 0.82156 0.65443 0.24798 0.0
N508 N 0.76994 0.65021 0.24648 0.0
N509 N 0.88523 0.68592 0.12478 0.0
C510 C 0.79672 0.65556 0.21392 0.0
C511 C 0.85571 0.67337 0.15233 0.0
N512 N 0.77574 0.66039 0.11017 0.0
N513 N 0.87274 0.65724 0.24802 0.0
H514 H 0.88979 0.693 0.07652 0.0
H515 H 0.90574 0.69121 0.15073 0.0
H516 H 0.87064 0.65017 0.29621 0.0
H517 H 0.89225 0.65814 0.22495 0.0
H518 H 0.75252 0.65088 0.12691 0.0
H519 H 0.77802 0.66562 0.06083 0.0
H520 H 0.75191 0.65314 0.22634 0.0
H521 H 0.76682 0.64506 0.29584 0.0
C522 C -0.01055 0.51608 0.47379 0.0
C523 C 0.98167 0.48688 0.44264 0.0
C524 C -0.00831 0.46646 0.54314 0.0
C525 C 0.00097 0.49622 0.57305 0.0
N526 N 0.01383 0.55123 0.56546 0.0
N527 N 0.9788 0.43582 0.44307 0.0
C528 C 0.00144 0.5216 0.53787 0.0
C529 C -0.01616 0.46249 0.47609 0.0
N530 N -0.01646 0.53776 0.44368 0.0
N531 N -0.00996 0.44204 0.57923 0.0
H532 H 0.97336 0.43266 0.39376 0.0
H533 H -0.01768 0.41805 0.46267 0.0
H534 H -0.004 0.44454 0.62828 0.0
H535 H 0.98085 0.41881 0.56223 0.0
H536 H -0.01551 0.55726 0.46727 0.0
H537 H 0.97542 0.53525 0.39613 0.0
H538 H 0.01891 0.57163 0.53943 0.0
H539 H 0.02099 0.55598 0.61375 0.0
C540 C 0.50908 0.52095 0.55652 0.0
C541 C 0.48311 0.49585 0.58996 0.0
C542 C 0.46848 0.46176 0.49395 0.0
C543 C 0.49304 0.48761 0.45918 0.0
N544 N 0.53475 0.54249 0.45317 0.0
N545 N 0.43466 0.44452 0.58841 0.0
C546 C 0.51281 0.51748 0.48929 0.0
C547 C 0.46195 0.46673 0.5583 0.0
N548 N 0.53038 0.54774 0.5897 0.0
N549 N 0.45189 0.43218 0.46591 0.0
H550 H 0.42902 0.44679 0.63606 0.0
H551 H 0.41635 0.42485 0.56471 0.0
H552 H 0.45459 0.42777 0.41757 0.0
H553 H 0.43688 0.41154 0.49162 0.0
H554 H 0.55135 0.56593 0.56992 0.0
H555 H 0.52827 0.55067 0.63916 0.0
H556 H 0.54812 0.56576 0.47044 0.0
H557 H 0.53792 0.54039 0.40383 0.0
C558 C 0.46832 0.00239 0.55181 0.0
C559 C 0.48253 0.98451 0.5723 0.0
C560 C 0.50825 -0.00833 0.46699 0.0
C561 C 0.49186 0.00717 0.44448 0.0
N562 N 0.45356 0.02433 0.46134 0.0
N563 N 0.51173 0.95741 0.54727 0.0
C564 C 0.47111 0.01175 0.48585 0.0
C565 C 0.50117 0.9777 0.52918 0.0
N566 N 0.45243 0.01052 0.59552 0.0
N567 N 0.532 -0.00808 0.43075 0.0
H568 H 0.50832 0.94761 0.59339 0.0
H569 H 0.52186 0.94842 0.51513 0.0
H570 H 0.53827 0.00194 0.38477 0.0
H571 H 0.54745 0.98464 0.4485 0.0
H572 H 0.44405 0.02608 0.58542 0.0
H573 H 0.44962 0.00344 0.64386 0.0
H574 H 0.43594 0.02585 0.48714 0.0
H575 H 0.45482 0.03097 0.41295 0.0
C576 C 0.20263 0.21476 0.08762 0.0
C577 C 0.18086 0.21899 0.04925 0.0
C578 C 0.19556 0.19924 0.95309 0.0
C579 C 0.21506 0.19234 0.99277 0.0
N580 N 0.23529 0.19015 0.09846 0.0
N581 N 0.15534 0.21483 0.94603 0.0
C582 C 0.21829 0.19938 0.0602 0.0
C583 C 0.17693 0.21107 0.98207 0.0
N584 N 0.20849 0.22569 0.15006 0.0
N585 N 0.19572 0.19536 0.88752 0.0
H586 H 0.1429 0.22563 0.96359 0.0
H587 H 0.14848 0.20598 0.89928 0.0
H588 H 0.20902 0.1865 0.86523 0.0
H589 H 0.18473 0.20301 0.85458 0.0
H590 H 0.22683 0.22685 0.1783 0.0
H591 H 0.19625 0.23565 0.17265 0.0
H592 H 0.2355 0.19111 0.14878 0.0
H593 H 0.24772 0.17945 0.08031 0.0
C594 C 0.79593 0.0194 0.05925 0.0
C595 C 0.78627 0.02513 0.99807 0.0
C596 C 0.73924 0.97172 1.00018 0.0
C597 C 0.75193 0.96429 0.05523 0.0
N598 N 0.79317 0.98033 0.13585 0.0
N599 N 0.75036 0.00604 0.90697 0.0
C600 C 0.78057 0.98794 0.08433 0.0
C601 C 0.75818 0.00118 0.96781 0.0
N602 N 0.81857 0.04425 0.09513 0.0
N603 N 0.70911 0.9508 0.97887 0.0
H604 H 0.76389 0.02726 0.88159 0.0
H605 H 0.73217 0.98815 0.87937 0.0
H606 H 0.69425 0.92907 1.0012 0.0
H607 H 0.69761 0.95631 0.94289 0.0
H608 H 0.82415 0.04181 0.14268 0.0
H609 H 0.82945 0.06797 0.08032 0.0
H610 H 0.81604 -0.00459 0.15368 0.0
H611 H 0.78133 0.95817 0.15871 0.0
C612 C 0.96362 0.78003 0.06956 0.0
C613 C 0.96029 0.77465 1.00149 0.0
C614 C 0.01736 0.79404 0.99241 0.0
C615 C 0.02109 0.80286 0.059 0.0
N616 N -0.00104 0.80748 0.15983 0.0
N617 N -0.01637 0.77864 0.89679 0.0
C618 C -0.00545 0.79678 0.0973 0.0
C619 C -0.01297 0.78195 0.96253 0.0
N620 N 0.93717 0.76787 0.10809 0.0
N621 N 0.04282 0.79719 0.95782 0.0
H622 H 0.96166 0.76968 0.87354 0.0
H623 H 0.00269 0.78687 0.86482 0.0
H624 H 0.06575 0.80714 0.97694 0.0
H625 H 0.04093 0.78789 0.91151 0.0
H626 H 0.93815 0.768 0.15843 0.0
H627 H 0.91398 0.75489 0.09017 0.0
H628 H 0.98099 0.80723 0.18784 0.0
H629 H 0.02122 0.8186 0.18247 0.0
C630 C 0.84038 0.83548 1.01854 0.0
C631 C 0.82379 0.80177 1.01242 0.0
C632 C 0.7736 0.79943 0.03962 0.0
C633 C 0.79056 0.83289 0.05078 0.0
N634 N 0.84035 0.88225 0.06102 0.0
N635 N 0.77615 0.75095 0.03057 0.0
C636 C 0.82409 0.8508 0.04317 0.0
C637 C 0.79082 0.78349 0.02671 0.0
N638 N 0.87139 0.85286 0.99882 0.0
N639 N 0.741 0.78302 0.03799 0.0
H640 H 0.7878 0.73815 0.02161 0.0
H641 H 0.75313 0.7368 0.0483 0.0
H642 H 0.72718 0.79358 0.04685 0.0
H643 H 0.72763 0.75943 0.02229 0.0
H644 H 0.88387 0.87766 0.99588 0.0
H645 H 0.8839 0.84233 0.97994 0.0
H646 H 0.8651 0.8959 0.06262 0.0
H647 H 0.82902 0.894 0.07991 0.0
C648 C 0.17156 0.9888 0.08829 0.0
C649 C 0.16127 0.96551 0.0386 0.0
C650 C 0.18142 0.00759 0.95669 0.0
C651 C 0.19408 0.03085 1.00647 0.0
N652 N 0.21036 0.04273 0.1187 0.0
N653 N 0.16624 0.95359 0.92673 0.0
C654 C 0.19195 0.02124 0.07211 0.0
C655 C 0.16914 0.97511 0.97303 0.0
N656 N 0.1609 0.9804 0.15026 0.0
N657 N 0.17975 0.01606 0.89443 0.0
H658 H 0.15946 0.92996 0.93723 0.0
H659 H 0.17433 0.96021 0.87947 0.0
H660 H 0.18733 0.03948 0.88057 0.0
H661 H 0.16781 -0.00067 0.85792 0.0
H662 H 0.16553 -0.00281 0.18654 0.0
H663 H 0.14476 0.95705 0.16395 0.0
H664 H 0.2115 0.03608 0.16613 0.0
H665 H 0.22737 0.06633 0.10837 0.0
C666 C 0.96194 0.16713 0.0699 0.0
C667 C 0.95198 0.15945 1.00432 0.0
C668 C 0.00747 0.18995 0.97026 0.0
C669 C 0.01744 0.19232 0.03584 0.0
N670 N 0.00325 0.1775 0.14765 0.0
N671 N 0.96606 0.15902 0.89236 0.0
C672 C -0.00555 0.17937 0.08572 0.0
C673 C 0.97494 0.1696 0.9544 0.0
N674 N 0.9408 0.16429 0.11675 0.0
N675 N 0.02865 0.20824 0.92347 0.0
H676 H 0.94257 0.14312 0.87897 0.0
H677 H -0.01749 0.16347 0.85569 0.0
H678 H 0.05227 0.22531 0.93346 0.0
H679 H 0.02174 0.20926 0.87616 0.0
H680 H 0.94775 0.1723 0.16407 0.0
H681 H 0.91719 0.1577 0.10683 0.0
H682 H -0.01326 0.16541 0.18416 0.0
H683 H 0.02669 0.18495 0.16103 0.0
C684 C 0.85958 0.5583 0.31438 0.0
C685 C 0.85475 0.55734 0.38246 0.0
C686 C 0.8825 0.52737 0.39672 0.0
C687 C 0.884 0.52516 0.32829 0.0
N688 N 0.87279 0.53646 0.2213 0.0
N689 N 0.85914 0.53954 0.48851 0.0
C690 C 0.87248 0.54032 0.28682 0.0
C691 C 0.86566 0.5416 0.42378 0.0
N692 N 0.8521 0.57672 0.27629 0.0
N693 N 0.89798 0.51662 0.43565 0.0
H694 H 0.84773 0.55066 0.50995 0.0
H695 H 0.86316 0.52526 0.52028 0.0
H696 H 0.91068 0.50613 0.41761 0.0
H697 H 0.9006 0.52046 0.4854 0.0
H698 H 0.85826 0.58133 0.22769 0.0
H699 H 0.84164 0.58944 0.29427 0.0
H700 H 0.86144 0.54373 0.18843 0.0
H701 H 0.88287 0.52408 0.1997 0.0
C702 C 0.4658 0.35699 0.39741 0.0
C703 C 0.46205 0.36026 0.32989 0.0
C704 C 0.42615 0.30273 0.31975 0.0
C705 C 0.42947 0.29955 0.38735 0.0
N706 N 0.44784 0.3229 0.49247 0.0
N707 N 0.43517 0.33798 0.2289 0.0
C708 C 0.44803 0.3265 0.4268 0.0
C709 C 0.44105 0.33363 0.29171 0.0
N710 N 0.4864 0.38308 0.43334 0.0
N711 N 0.40971 0.27605 0.28201 0.0
H712 H 0.44684 0.36013 0.20604 0.0
H713 H 0.41734 0.3202 0.20052 0.0
H714 H 0.39765 0.253 0.30073 0.0
H715 H 0.40948 0.27639 0.23168 0.0
H716 H 0.4932 0.38186 0.48051 0.0
H717 H 0.49805 0.40627 0.4153 0.0
H718 H 0.45817 0.34178 0.52521 0.0
H719 H 0.4352 0.30071 0.51501 0.0
C720 C 0.6504 0.11442 0.27394 0.0
C721 C 0.62324 0.09781 0.31353 0.0
C722 C 0.65702 0.10745 0.40929 0.0
C723 C 0.68399 0.12718 0.37115 0.0
N724 N 0.70774 0.14898 0.26729 0.0
N725 N 0.59946 0.07866 0.41851 0.0
C726 C 0.68108 0.13041 0.30332 0.0
C727 C 0.62621 0.09402 0.38104 0.0
N728 N 0.64668 0.11422 0.20828 0.0
N729 N 0.66097 0.10153 0.47231 0.0
H730 H 0.57645 0.06738 0.39951 0.0
H731 H 0.59976 0.07837 0.46883 0.0
H732 H 0.68319 0.112 0.49502 0.0
H733 H 0.64272 0.08465 0.50103 0.0
H734 H 0.66539 0.12337 0.17541 0.0
H735 H 0.62436 0.10276 0.18588 0.0
H736 H 0.70728 0.15548 0.21956 0.0
H737 H 0.73083 0.15895 0.28569 0.0
C738 C 0.47846 0.14405 0.28421 0.0
C739 C 0.4893 0.13142 0.33332 0.0
C740 C 0.4693 0.15317 0.41611 0.0
C741 C 0.45561 0.16288 0.36703 0.0
N742 N 0.43867 0.15783 0.25513 0.0
N743 N 0.48525 0.11501 0.44531 0.0
C744 C 0.45766 0.15549 0.30116 0.0
C745 C 0.48188 0.13332 0.3992 0.0
N746 N 0.48879 0.1463 0.22195 0.0
N747 N 0.47154 0.16375 0.47829 0.0
H748 H 0.49202 0.09818 0.43459 0.0
H749 H 0.47746 0.11368 0.49279 0.0
H750 H 0.46393 0.17953 0.49245 0.0
H751 H 0.4841 0.15952 0.51417 0.0
H752 H 0.4837 0.15815 0.18593 0.0
H753 H 0.50512 0.13943 0.20782 0.0
H754 H 0.43751 0.15003 0.20761 0.0
H755 H 0.42123 0.16372 0.26597 0.0
C756 C 0.8501 0.30878 0.36283 0.0
C757 C 0.817 0.29328 0.37651 0.0
C758 C 0.81551 0.34129 0.34548 0.0
C759 C 0.84904 0.35757 0.33752 0.0
N760 N 0.89925 0.35902 0.35202 0.0
N761 N 0.76892 0.29564 0.39092 0.0
C762 C 0.86667 0.34196 0.34983 0.0
C763 C 0.79987 0.3098 0.37068 0.0
N764 N 0.86548 0.29163 0.35911 0.0
N765 N 0.79859 0.35562 0.32711 0.0
H766 H 0.75694 0.2727 0.41044 0.0
H767 H 0.75606 0.30753 0.39391 0.0
H768 H 0.80936 0.37857 0.30771 0.0
H769 H 0.7738 0.34386 0.32562 0.0
H770 H 0.88865 0.30114 0.34176 0.0
H771 H 0.85436 0.26716 0.36777 0.0
H772 H 0.91304 0.34944 0.36829 0.0
H773 H 0.91255 0.38348 0.34325 0.0
C774 C 0.63555 0.50692 0.4027 0.0
C775 C 0.62504 0.4992 0.33742 0.0
C776 C 0.68024 0.53 0.30165 0.0
C777 C 0.69077 0.53221 0.36673 0.0
N778 N 0.67748 0.51716 0.47875 0.0
N779 N 0.63841 0.49877 0.22486 0.0
C780 C 0.66819 0.51916 0.41733 0.0
C781 C 0.64763 0.50948 0.28672 0.0
N782 N 0.6148 0.50404 0.45046 0.0
N783 N 0.70096 0.54854 0.25445 0.0
H784 H 0.61492 0.48254 0.21209 0.0
H785 H 0.65467 0.50342 0.1877 0.0
H786 H 0.7246 0.56573 0.26391 0.0
H787 H 0.6936 0.5496 0.20756 0.0
H788 H 0.62214 0.51201 0.49766 0.0
H789 H 0.59114 0.49753 0.44141 0.0
H790 H 0.66125 0.505 0.51565 0.0
H791 H 0.70102 0.52458 0.49123 0.0
C792 C 0.53266 0.84732 0.72514 0.0
C793 C 0.54895 0.85659 0.66489 0.0
C794 C 0.54415 0.90451 0.66493 0.0
C795 C 0.52299 0.89216 0.71847 0.0
N796 N 0.49613 0.85142 0.799 0.0
N797 N 0.5681 0.89251 0.57418 0.0
C798 C 0.51699 0.86343 0.74845 0.0
C799 C 0.55444 0.88498 0.63415 0.0
N800 N 0.5335 0.82423 0.76173 0.0
N801 N 0.55451 0.93481 0.64341 0.0
H802 H 0.57569 0.87858 0.54991 0.0
H803 H 0.56938 0.91093 0.54602 0.0
H804 H 0.5479 0.95015 0.66453 0.0
H805 H 0.57225 0.946 0.60869 0.0
H806 H 0.52478 0.81882 0.80878 0.0
H807 H 0.54586 0.81269 0.74806 0.0
H808 H 0.48754 0.82851 0.81725 0.0
H809 H 0.48617 0.86389 0.82071 0.0
C810 C 0.09511 0.67791 0.70682 0.0
C811 C 0.11575 0.68584 0.65253 0.0
C812 C 0.10449 0.63071 0.64685 0.0
C813 C 0.08884 0.62457 0.70773 0.0
N814 N 0.07146 0.64295 0.79891 0.0
N815 N 0.14105 0.67031 0.57141 0.0
C816 C 0.08446 0.64824 0.73837 0.0
C817 C 0.12071 0.66235 0.62269 0.0
N818 N 0.08551 0.69847 0.72826 0.0
N819 N 0.1025 0.60611 0.6105 0.0
H820 H 0.15135 0.69261 0.54912 0.0
H821 H 0.14887 0.65535 0.55308 0.0
H822 H 0.08973 0.58231 0.62486 0.0
H823 H 0.11069 0.60883 0.56308 0.0
H824 H 0.06811 0.69248 0.76352 0.0
H825 H 0.09235 0.72036 0.70672 0.0
H826 H 0.07106 0.66066 0.8269 0.0
H827 H 0.06361 0.62155 0.82372 0.0
C828 C 0.32448 0.44135 0.75512 0.0
C829 C 0.35128 0.45989 0.71569 0.0
C830 C 0.31705 0.44862 0.62031 0.0
C831 C 0.29029 0.42931 0.65921 0.0
N832 N 0.26788 0.40323 0.76104 0.0
N833 N 0.37442 0.47559 0.60916 0.0
C834 C 0.29384 0.4243 0.72586 0.0
C835 C 0.34797 0.46192 0.64772 0.0
N836 N 0.32824 0.44113 0.82068 0.0
N837 N 0.31284 0.45477 0.55765 0.0
H838 H 0.39754 0.48527 0.6272 0.0
H839 H 0.37347 0.47483 0.55882 0.0
H840 H 0.2905 0.4443 0.53538 0.0
H841 H 0.33111 0.47174 0.52903 0.0
H842 H 0.3094 0.43103 0.85327 0.0
H843 H 0.35052 0.45291 0.84322 0.0
H844 H 0.26929 0.39575 0.80747 0.0
H845 H 0.24478 0.39144 0.7424 0.0
C846 C 0.1445 0.45911 0.73907 0.0
C847 C 0.15359 0.45772 0.67424 0.0
C848 C 0.12449 0.48384 0.63799 0.0
C849 C 0.12073 0.49053 0.70343 0.0
N850 N 0.13266 0.48913 0.81655 0.0
N851 N 0.15708 0.47446 0.56298 0.0
C852 C 0.13223 0.47944 0.75424 0.0
C853 C 0.14495 0.47166 0.62379 0.0
N854 N 0.14604 0.43991 0.78565 0.0
N855 N 0.10737 0.48753 0.58957 0.0
H856 H 0.17324 0.46705 0.55094 0.0
H857 H 0.15366 0.48725 0.52638 0.0
H858 H 0.09017 0.494 0.59804 0.0
H859 H 0.10741 0.48027 0.54205 0.0
H860 H 0.13702 0.43821 0.83214 0.0
H861 H 0.15263 0.42285 0.77588 0.0
H862 H 0.14369 0.48393 0.85412 0.0
H863 H 0.12507 0.50506 0.82955 0.0
C864 C 0.4941 0.64761 0.75625 0.0
C865 C 0.48625 0.62481 0.70628 0.0
C866 C 0.50607 0.66732 0.62539 0.0
C867 C 0.51688 0.6903 0.6757 0.0
N868 N 0.53006 0.70187 0.78948 0.0
N869 N 0.49443 0.61438 0.59526 0.0
C870 C 0.51352 0.68039 0.74141 0.0
C871 C 0.49506 0.63502 0.64129 0.0
N872 N 0.48217 0.63834 0.81718 0.0
N873 N 0.50512 0.67588 0.56285 0.0
H874 H 0.48884 0.59106 0.60562 0.0
H875 H 0.50329 0.62164 0.54866 0.0
H876 H 0.51169 0.69911 0.54934 0.0
H877 H 0.49456 0.65922 0.52562 0.0
H878 H 0.48494 0.65458 0.85339 0.0
H879 H 0.46677 0.61461 0.8297 0.0
H880 H 0.53043 0.69506 0.83714 0.0
H881 H 0.54645 0.72582 0.78069 0.0
C882 C 0.29903 0.82805 0.73687 0.0
C883 C 0.28664 0.81952 0.67287 0.0
C884 C 0.34066 0.85032 0.63056 0.0
C885 C 0.35317 0.85415 0.69441 0.0
N886 N 0.34325 0.83939 0.80724 0.0
N887 N 0.29697 0.81666 0.55938 0.0
C888 C 0.33209 0.84082 0.74736 0.0
C889 C 0.30782 0.82884 0.61975 0.0
N890 N 0.27983 0.82591 0.78727 0.0
N891 N 0.35947 0.86845 0.58069 0.0
H892 H 0.27329 0.79963 0.54988 0.0
H893 H 0.31223 0.8208 0.52048 0.0
H894 H 0.38299 0.88665 0.58689 0.0
H895 H 0.35044 0.86815 0.53473 0.0
H896 H 0.28868 0.83449 0.83347 0.0
H897 H 0.25601 0.81955 0.78151 0.0
H898 H 0.32817 0.82728 0.84579 0.0
H899 H 0.36716 0.84699 0.81644 0.0
loop_
_geom_bond_atom_site_label_1
_geom_bond_atom_site_label_2
_geom_bond_distance
_geom_bond_site_symmetry_2
_ccdc_geom_bond_type
O0 Cd1 2.223 . S
O0 C8 1.315 . S
Cd1 O0 2.223 . S
Cd1 O4 2.297 . S
Cd1 O5 2.439 . S
Cd1 O11 2.240 1_554 S
Cd2 O3 2.240 . S
Cd2 O10 2.223 1_554 S
Cd2 O12 2.297 1_554 S
Cd2 O13 2.439 . S
O3 Cd2 2.240 . S
O3 C8 1.279 . S
O4 Cd1 2.297 . S
O4 C6 1.247 . S
O5 Cd1 2.439 . S
O5 C6 1.208 . S
C6 O4 1.247 . S
C6 O5 1.208 . S
C7 O12 1.247 1_554 S
C7 O13 1.208 . S
C8 O0 1.315 . S
C8 O3 1.279 . S
C9 O10 1.315 . S
C9 O11 1.279 . S
O10 Cd2 2.223 1_556 S
O10 C9 1.315 . S
O11 Cd1 2.240 1_556 S
O11 C9 1.279 . S
O12 Cd2 2.297 1_556 S
O12 C7 1.247 1_556 S
O13 Cd2 2.439 . S
O13 C7 1.208 . S
O14 Cd15 2.223 . S
O14 C22 1.315 . S
Cd15 O14 2.223 . S
Cd15 O18 2.297 . S
Cd15 O19 2.439 . S
Cd15 O25 2.240 1_554 S
Cd16 O17 2.240 . S
Cd16 O24 2.223 1_554 S
Cd16 O26 2.297 1_554 S
Cd16 O27 2.439 . S
O17 Cd16 2.240 . S
O17 C22 1.279 . S
O18 Cd15 2.297 . S
O18 C20 1.247 . S
O19 Cd15 2.439 . S
O19 C20 1.208 . S
C20 O18 1.247 . S
C20 O19 1.208 . S
C21 O26 1.247 1_554 S
C21 O27 1.208 . S
C22 O14 1.315 . S
C22 O17 1.279 . S
C23 O24 1.315 . S
C23 O25 1.279 . S
O24 Cd16 2.223 1_556 S
O24 C23 1.315 . S
O25 Cd15 2.240 1_556 S
O25 C23 1.279 . S
O26 Cd16 2.297 1_556 S
O26 C21 1.247 1_556 S
O27 Cd16 2.439 . S
O27 C21 1.208 . S
O28 Cd29 2.223 . S
O28 C36 1.315 . S
Cd29 O28 2.223 . S
Cd29 O32 2.297 . S
Cd29 O33 2.439 . S
Cd29 O39 2.240 1_554 S
Cd30 O31 2.240 . S
Cd30 O38 2.223 1_554 S
Cd30 O40 2.297 1_554 S
Cd30 O41 2.439 . S
O31 Cd30 2.240 . S
O31 C36 1.279 . S
O32 Cd29 2.297 . S
O32 C34 1.247 . S
O33 Cd29 2.439 . S
O33 C34 1.208 . S
C34 O32 1.247 . S
C34 O33 1.208 . S
C35 O40 1.247 1_554 S
C35 O41 1.208 . S
C36 O28 1.315 . S
C36 O31 1.279 . S
C37 O38 1.315 . S
C37 O39 1.279 . S
O38 Cd30 2.223 1_556 S
O38 C37 1.315 . S
O39 Cd29 2.240 1_556 S
O39 C37 1.279 . S
O40 Cd30 2.297 1_556 S
O40 C35 1.247 1_556 S
O41 Cd30 2.439 . S
O41 C35 1.208 . S
O42 Cd43 2.223 . S
O42 C50 1.315 . S
Cd43 O42 2.223 . S
Cd43 O46 2.297 . S
Cd43 O47 2.439 . S
Cd43 O53 2.240 1_556 S
Cd44 O45 2.240 . S
Cd44 O52 2.223 1_556 S
Cd44 O54 2.297 1_556 S
Cd44 O55 2.439 . S
O45 Cd44 2.240 . S
O45 C50 1.279 . S
O46 Cd43 2.297 . S
O46 C48 1.247 . S
O47 Cd43 2.439 . S
O47 C48 1.208 . S
C48 O46 1.247 . S
C48 O47 1.208 . S
C49 O54 1.247 1_556 S
C49 O55 1.208 . S
C50 O42 1.315 . S
C50 O45 1.279 . S
C51 O52 1.315 . S
C51 O53 1.279 . S
O52 Cd44 2.223 1_554 S
O52 C51 1.315 . S
O53 Cd43 2.240 1_554 S
O53 C51 1.279 . S
O54 Cd44 2.297 1_554 S
O54 C49 1.247 1_554 S
O55 Cd44 2.439 . S
O55 C49 1.208 . S
O56 Cd57 2.223 . S
O56 C64 1.315 . S
Cd57 O56 2.223 . S
Cd57 O60 2.297 . S
Cd57 O61 2.439 . S
Cd57 O67 2.240 1_556 S
Cd58 O59 2.240 . S
Cd58 O66 2.223 1_556 S
Cd58 O68 2.297 1_556 S
Cd58 O69 2.439 . S
O59 Cd58 2.240 . S
O59 C64 1.279 . S
O60 Cd57 2.297 . S
O60 C62 1.247 . S
O61 Cd57 2.439 . S
O61 C62 1.208 . S
C62 O60 1.247 . S
C62 O61 1.208 . S
C63 O68 1.247 1_556 S
C63 O69 1.208 . S
C64 O56 1.315 . S
C64 O59 1.279 . S
C65 O66 1.315 . S
C65 O67 1.279 . S
O66 Cd58 2.223 1_554 S
O66 C65 1.315 . S
O67 Cd57 2.240 1_554 S
O67 C65 1.279 . S
O68 Cd58 2.297 1_554 S
O68 C63 1.247 1_554 S
O69 Cd58 2.439 . S
O69 C63 1.208 . S
O70 Cd71 2.223 . S
O70 C78 1.315 . S
Cd71 O70 2.223 . S
Cd71 O74 2.297 . S
Cd71 O75 2.439 . S
Cd71 O81 2.240 1_556 S
Cd72 O73 2.240 . S
Cd72 O80 2.223 1_556 S
Cd72 O82 2.297 1_556 S
Cd72 O83 2.439 . S
O73 Cd72 2.240 . S
O73 C78 1.279 . S
O74 Cd71 2.297 . S
O74 C76 1.247 . S
O75 Cd71 2.439 . S
O75 C76 1.208 . S
C76 O74 1.247 . S
C76 O75 1.208 . S
C77 O82 1.247 1_556 S
C77 O83 1.208 . S
C78 O70 1.315 . S
C78 O73 1.279 . S
C79 O80 1.315 . S
C79 O81 1.279 . S
O80 Cd72 2.223 1_554 S
O80 C79 1.315 . S
O81 Cd71 2.240 1_554 S
O81 C79 1.279 . S
O82 Cd72 2.297 1_554 S
O82 C77 1.247 1_554 S
O83 Cd72 2.439 . S
O83 C77 1.208 . S
O84 Cd85 2.223 . S
O84 C92 1.315 . S
Cd85 O84 2.223 . S
Cd85 O88 2.297 . S
Cd85 O89 2.439 . S
Cd85 O95 2.240 . S
Cd86 O87 2.240 . S
Cd86 O94 2.223 . S
Cd86 O96 2.297 . S
Cd86 O97 2.439 . S
O87 Cd86 2.240 . S
O87 C92 1.279 . S
O88 Cd85 2.297 . S
O88 C90 1.247 . S
O89 Cd85 2.439 . S
O89 C90 1.208 . S
C90 O88 1.247 . S
C90 O89 1.208 . S
C91 O96 1.247 . S
C91 O97 1.208 . S
C92 O84 1.315 . S
C92 O87 1.279 . S
C93 O94 1.315 . S
C93 O95 1.279 . S
O94 Cd86 2.223 . S
O94 C93 1.315 . S
O95 Cd85 2.240 . S
O95 C93 1.279 . S
O96 Cd86 2.297 . S
O96 C91 1.247 . S
O97 Cd86 2.439 . S
O97 C91 1.208 . S
O98 Cd99 2.223 . S
O98 C106 1.315 . S
Cd99 O98 2.223 . S
Cd99 O102 2.297 . S
Cd99 O103 2.439 . S
Cd99 O109 2.240 . S
Cd100 O101 2.240 . S
Cd100 O108 2.223 . S
Cd100 O110 2.297 . S
Cd100 O111 2.439 . S
O101 Cd100 2.240 . S
O101 C106 1.279 . S
O102 Cd99 2.297 . S
O102 C104 1.247 . S
O103 Cd99 2.439 . S
O103 C104 1.208 . S
C104 O102 1.247 . S
C104 O103 1.208 . S
C105 O110 1.247 . S
C105 O111 1.208 . S
C106 O98 1.315 . S
C106 O101 1.279 . S
C107 O108 1.315 . S
C107 O109 1.279 . S
O108 Cd100 2.223 . S
O108 C107 1.315 . S
O109 Cd99 2.240 . S
O109 C107 1.279 . S
O110 Cd100 2.297 . S
O110 C105 1.247 . S
O111 Cd100 2.439 . S
O111 C105 1.208 . S
O112 Cd113 2.223 . S
O112 C120 1.315 . S
Cd113 O112 2.223 . S
Cd113 O116 2.297 . S
Cd113 O117 2.439 . S
Cd113 O123 2.240 . S
Cd114 O115 2.240 . S
Cd114 O122 2.223 . S
Cd114 O124 2.297 . S
Cd114 O125 2.439 . S
O115 Cd114 2.240 . S
O115 C120 1.279 . S
O116 Cd113 2.297 . S
O116 C118 1.247 . S
O117 Cd113 2.439 . S
O117 C118 1.208 . S
C118 O116 1.247 . S
C118 O117 1.208 . S
C119 O124 1.247 . S
C119 O125 1.208 . S
C120 O112 1.315 . S
C120 O115 1.279 . S
C121 O122 1.315 . S
C121 O123 1.279 . S
O122 Cd114 2.223 . S
O122 C121 1.315 . S
O123 Cd113 2.240 . S
O123 C121 1.279 . S
O124 Cd114 2.297 . S
O124 C119 1.247 . S
O125 Cd114 2.439 . S
O125 C119 1.208 . S
O126 Cd127 2.223 1_655 S
O126 C134 1.315 . S
Cd127 O126 2.223 1_455 S
Cd127 O130 2.297 . S
Cd127 O131 2.439 1_455 S
Cd127 O137 2.240 1_455 S
Cd128 O129 2.240 . S
Cd128 O136 2.223 . S
Cd128 O138 2.297 . S
Cd128 O139 2.439 . S
O129 Cd128 2.240 . S
O129 C134 1.279 . S
O130 Cd127 2.297 . S
O130 C132 1.247 1_455 S
O131 Cd127 2.439 1_655 S
O131 C132 1.208 . S
C132 O130 1.247 1_655 S
C132 O131 1.208 . S
C133 O138 1.247 . S
C133 O139 1.208 . S
C134 O126 1.315 . S
C134 O129 1.279 . S
C135 O136 1.315 . S
C135 O137 1.279 . S
O136 Cd128 2.223 . S
O136 C135 1.315 . S
O137 Cd127 2.240 1_655 S
O137 C135 1.279 . S
O138 Cd128 2.297 . S
O138 C133 1.247 . S
O139 Cd128 2.439 . S
O139 C133 1.208 . S
O140 Cd141 2.223 . S
O140 C148 1.315 . S
Cd141 O140 2.223 . S
Cd141 O144 2.297 . S
Cd141 O145 2.439 . S
Cd141 O151 2.240 . S
Cd142 O143 2.240 . S
Cd142 O150 2.223 . S
Cd142 O152 2.297 . S
Cd142 O153 2.439 . S
O143 Cd142 2.240 . S
O143 C148 1.279 . S
O144 Cd141 2.297 . S
O144 C146 1.247 . S
O145 Cd141 2.439 . S
O145 C146 1.208 . S
C146 O144 1.247 . S
C146 O145 1.208 . S
C147 O152 1.247 . S
C147 O153 1.208 . S
C148 O140 1.315 . S
C148 O143 1.279 . S
C149 O150 1.315 . S
C149 O151 1.279 . S
O150 Cd142 2.223 . S
O150 C149 1.315 . S
O151 Cd141 2.240 . S
O151 C149 1.279 . S
O152 Cd142 2.297 . S
O152 C147 1.247 . S
O153 Cd142 2.439 . S
O153 C147 1.208 . S
O154 Cd155 2.223 . S
O154 C162 1.315 . S
Cd155 O154 2.223 . S
Cd155 O158 2.297 . S
Cd155 O159 2.439 . S
Cd155 O165 2.240 . S
Cd156 O157 2.240 . S
Cd156 O164 2.223 . S
Cd156 O166 2.297 . S
Cd156 O167 2.439 . S
O157 Cd156 2.240 . S
O157 C162 1.279 . S
O158 Cd155 2.297 . S
O158 C160 1.247 . S
O159 Cd155 2.439 . S
O159 C160 1.208 . S
C160 O158 1.247 . S
C160 O159 1.208 . S
C161 O166 1.247 . S
C161 O167 1.208 . S
C162 O154 1.315 . S
C162 O157 1.279 . S
C163 O164 1.315 . S
C163 O165 1.279 . S
O164 Cd156 2.223 . S
O164 C163 1.315 . S
O165 Cd155 2.240 . S
O165 C163 1.279 . S
O166 Cd156 2.297 . S
O166 C161 1.247 . S
O167 Cd156 2.439 . S
O167 C161 1.208 . S
O168 Cd169 2.223 1_565 S
O168 C176 1.315 . S
Cd169 O168 2.223 1_545 S
Cd169 O172 2.297 . S
Cd169 O173 2.439 1_545 S
Cd169 O179 2.240 1_545 S
Cd170 O171 2.240 . S
Cd170 O178 2.223 . S
Cd170 O180 2.297 . S
Cd170 O181 2.439 . S
O171 Cd170 2.240 . S
O171 C176 1.279 . S
O172 Cd169 2.297 . S
O172 C174 1.247 1_545 S
O173 Cd169 2.439 1_565 S
O173 C174 1.208 . S
C174 O172 1.247 1_565 S
C174 O173 1.208 . S
C175 O180 1.247 . S
C175 O181 1.208 . S
C176 O168 1.315 . S
C176 O171 1.279 . S
C177 O178 1.315 . S
C177 O179 1.279 . S
O178 Cd170 2.223 . S
O178 C177 1.315 . S
O179 Cd169 2.240 1_565 S
O179 C177 1.279 . S
O180 Cd170 2.297 . S
O180 C175 1.247 . S
O181 Cd170 2.439 . S
O181 C175 1.208 . S
O182 Cd183 2.223 . S
O182 C190 1.315 . S
Cd183 O182 2.223 . S
Cd183 O186 2.297 . S
Cd183 O187 2.439 . S
Cd183 O193 2.240 . S
Cd184 O185 2.240 . S
Cd184 O192 2.223 . S
Cd184 O194 2.297 . S
Cd184 O195 2.439 . S
O185 Cd184 2.240 . S
O185 C190 1.279 . S
O186 Cd183 2.297 . S
O186 C188 1.247 . S
O187 Cd183 2.439 . S
O187 C188 1.208 . S
C188 O186 1.247 . S
C188 O187 1.208 . S
C189 O194 1.247 . S
C189 O195 1.208 . S
C190 O182 1.315 . S
C190 O185 1.279 . S
C191 O192 1.315 . S
C191 O193 1.279 . S
O192 Cd184 2.223 . S
O192 C191 1.315 . S
O193 Cd183 2.240 . S
O193 C191 1.279 . S
O194 Cd184 2.297 . S
O194 C189 1.247 . S
O195 Cd184 2.439 . S
O195 C189 1.208 . S
O196 Cd197 2.223 . S
O196 C204 1.315 . S
Cd197 O196 2.223 . S
Cd197 O200 2.297 . S
Cd197 O201 2.439 . S
Cd197 O207 2.240 . S
Cd198 O199 2.240 . S
Cd198 O206 2.223 . S
Cd198 O208 2.297 . S
Cd198 O209 2.439 . S
O199 Cd198 2.240 . S
O199 C204 1.279 . S
O200 Cd197 2.297 . S
O200 C202 1.247 . S
O201 Cd197 2.439 . S
O201 C202 1.208 . S
C202 O200 1.247 . S
C202 O201 1.208 . S
C203 O208 1.247 . S
C203 O209 1.208 . S
C204 O196 1.315 . S
C204 O199 1.279 . S
C205 O206 1.315 . S
C205 O207 1.279 . S
O206 Cd198 2.223 . S
O206 C205 1.315 . S
O207 Cd197 2.240 . S
O207 C205 1.279 . S
O208 Cd198 2.297 . S
O208 C203 1.247 . S
O209 Cd198 2.439 . S
O209 C203 1.208 . S
O210 Cd211 2.223 . S
O210 C218 1.315 . S
Cd211 O210 2.223 . S
Cd211 O214 2.297 . S
Cd211 O215 2.439 . S
Cd211 O221 2.240 . S
Cd212 O213 2.240 . S
Cd212 O220 2.223 . S
Cd212 O222 2.297 . S
Cd212 O223 2.439 . S
O213 Cd212 2.240 . S
O213 C218 1.279 . S
O214 Cd211 2.297 . S
O214 C216 1.247 . S
O215 Cd211 2.439 . S
O215 C216 1.208 . S
C216 O214 1.247 . S
C216 O215 1.208 . S
C217 O222 1.247 . S
C217 O223 1.208 . S
C218 O210 1.315 . S
C218 O213 1.279 . S
C219 O220 1.315 . S
C219 O221 1.279 . S
O220 Cd212 2.223 . S
O220 C219 1.315 . S
O221 Cd211 2.240 . S
O221 C219 1.279 . S
O222 Cd212 2.297 . S
O222 C217 1.247 . S
O223 Cd212 2.439 . S
O223 C217 1.208 . S
O224 Cd225 2.223 . S
O224 C232 1.315 . S
Cd225 O224 2.223 . S
Cd225 O228 2.297 . S
Cd225 O229 2.439 . S
Cd225 O235 2.240 . S
Cd226 O227 2.240 . S
Cd226 O234 2.223 . S
Cd226 O236 2.297 . S
Cd226 O237 2.439 . S
O227 Cd226 2.240 . S
O227 C232 1.279 . S
O228 Cd225 2.297 . S
O228 C230 1.247 . S
O229 Cd225 2.439 . S
O229 C230 1.208 . S
C230 O228 1.247 . S
C230 O229 1.208 . S
C231 O236 1.247 . S
C231 O237 1.208 . S
C232 O224 1.315 . S
C232 O227 1.279 . S
C233 O234 1.315 . S
C233 O235 1.279 . S
O234 Cd226 2.223 . S
O234 C233 1.315 . S
O235 Cd225 2.240 . S
O235 C233 1.279 . S
O236 Cd226 2.297 . S
O236 C231 1.247 . S
O237 Cd226 2.439 . S
O237 C231 1.208 . S
O238 Cd239 2.223 . S
O238 C246 1.315 . S
Cd239 O238 2.223 . S
Cd239 O242 2.297 . S
Cd239 O243 2.439 . S
Cd239 O249 2.240 . S
Cd240 O241 2.240 . S
Cd240 O248 2.223 . S
Cd240 O250 2.297 . S
Cd240 O251 2.439 . S
O241 Cd240 2.240 . S
O241 C246 1.279 . S
O242 Cd239 2.297 . S
O242 C244 1.247 . S
O243 Cd239 2.439 . S
O243 C244 1.208 . S
C244 O242 1.247 . S
C244 O243 1.208 . S
C245 O250 1.247 . S
C245 O251 1.208 . S
C246 O238 1.315 . S
C246 O241 1.279 . S
C247 O248 1.315 . S
C247 O249 1.279 . S
O248 Cd240 2.223 . S
O248 C247 1.315 . S
O249 Cd239 2.240 . S
O249 C247 1.279 . S
O250 Cd240 2.297 . S
O250 C245 1.247 . S
O251 Cd240 2.439 . S
O251 C245 1.208 . S
C252 C253 1.363 . S
C252 C258 1.379 . S
C252 N260 1.356 . S
C253 C252 1.363 . S
C253 C259 1.363 . S
C254 C255 1.363 . S
C254 C259 1.379 . S
C254 N261 1.356 . S
C255 C254 1.363 . S
C255 C258 1.363 . S
N256 C258 1.356 . S
N256 H268 0.984 . S
N256 H269 0.985 . S
N257 C259 1.356 . S
N257 H262 0.984 . S
N257 H263 0.985 . S
C258 C252 1.379 . S
C258 C255 1.363 . S
C258 N256 1.356 . S
C259 C253 1.363 . S
C259 C254 1.379 . S
C259 N257 1.356 . S
N260 C252 1.356 . S
N260 H266 0.984 . S
N260 H267 0.984 . S
N261 C254 1.356 . S
N261 H264 0.984 . S
N261 H265 0.985 . S
H262 N257 0.984 . S
H263 N257 0.985 . S
H264 N261 0.984 . S
H265 N261 0.985 . S
H266 N260 0.984 . S
H267 N260 0.984 . S
H268 N256 0.984 . S
H269 N256 0.985 . S
C270 C271 1.363 . S
C270 C276 1.379 . S
C270 N278 1.356 . S
C271 C270 1.363 . S
C271 C277 1.363 . S
C272 C273 1.363 . S
C272 C277 1.379 . S
C272 N279 1.356 . S
C273 C272 1.363 . S
C273 C276 1.363 . S
N274 C276 1.356 . S
N274 H286 0.984 . S
N274 H287 0.985 . S
N275 C277 1.356 . S
N275 H280 0.984 . S
N275 H281 0.985 . S
C276 C270 1.379 . S
C276 C273 1.363 . S
C276 N274 1.356 . S
C277 C271 1.363 . S
C277 C272 1.379 . S
C277 N275 1.356 . S
N278 C270 1.356 . S
N278 H284 0.984 . S
N278 H285 0.984 . S
N279 C272 1.356 . S
N279 H282 0.984 . S
N279 H283 0.985 . S
H280 N275 0.984 . S
H281 N275 0.985 . S
H282 N279 0.984 . S
H283 N279 0.985 . S
H284 N278 0.984 . S
H285 N278 0.984 . S
H286 N274 0.984 . S
H287 N274 0.985 . S
C288 C289 1.363 . S
C288 C294 1.379 . S
C288 N296 1.356 . S
C289 C288 1.363 . S
C289 C295 1.363 . S
C290 C291 1.363 . S
C290 C295 1.379 . S
C290 N297 1.356 . S
C291 C290 1.363 . S
C291 C294 1.363 . S
N292 C294 1.356 . S
N292 H304 0.984 . S
N292 H305 0.985 . S
N293 C295 1.356 . S
N293 H298 0.984 . S
N293 H299 0.985 . S
C294 C288 1.379 . S
C294 C291 1.363 . S
C294 N292 1.356 . S
C295 C289 1.363 . S
C295 C290 1.379 . S
C295 N293 1.356 . S
N296 C288 1.356 . S
N296 H302 0.984 . S
N296 H303 0.984 . S
N297 C290 1.356 . S
N297 H300 0.984 . S
N297 H301 0.985 . S
H298 N293 0.984 . S
H299 N293 0.985 . S
H300 N297 0.984 . S
H301 N297 0.985 . S
H302 N296 0.984 . S
H303 N296 0.984 . S
H304 N292 0.984 . S
H305 N292 0.985 . S
C306 C307 1.363 . S
C306 C312 1.379 . S
C306 N314 1.356 . S
C307 C306 1.363 . S
C307 C313 1.363 . S
C308 C309 1.363 . S
C308 C313 1.379 . S
C308 N315 1.356 . S
C309 C308 1.363 . S
C309 C312 1.363 . S
N310 C312 1.356 . S
N310 H322 0.984 . S
N310 H323 0.985 . S
N311 C313 1.356 . S
N311 H316 0.984 . S
N311 H317 0.985 . S
C312 C306 1.379 . S
C312 C309 1.363 . S
C312 N310 1.356 . S
C313 C307 1.363 . S
C313 C308 1.379 . S
C313 N311 1.356 . S
N314 C306 1.356 . S
N314 H320 0.984 . S
N314 H321 0.984 . S
N315 C308 1.356 . S
N315 H318 0.984 . S
N315 H319 0.985 . S
H316 N311 0.984 . S
H317 N311 0.985 . S
H318 N315 0.984 . S
H319 N315 0.985 . S
H320 N314 0.984 . S
H321 N314 0.984 . S
H322 N310 0.984 . S
H323 N310 0.985 . S
C324 C325 1.363 . S
C324 C330 1.379 . S
C324 N332 1.356 . S
C325 C324 1.363 . S
C325 C331 1.363 . S
C326 C327 1.363 . S
C326 C331 1.379 . S
C326 N333 1.356 . S
C327 C326 1.363 . S
C327 C330 1.363 . S
N328 C330 1.356 . S
N328 H340 0.984 . S
N328 H341 0.985 . S
N329 C331 1.356 . S
N329 H334 0.984 . S
N329 H335 0.985 . S
C330 C324 1.379 . S
C330 C327 1.363 . S
C330 N328 1.356 . S
C331 C325 1.363 . S
C331 C326 1.379 . S
C331 N329 1.356 . S
N332 C324 1.356 . S
N332 H338 0.984 . S
N332 H339 0.984 . S
N333 C326 1.356 . S
N333 H336 0.984 . S
N333 H337 0.985 . S
H334 N329 0.984 . S
H335 N329 0.985 . S
H336 N333 0.984 . S
H337 N333 0.985 . S
H338 N332 0.984 . S
H339 N332 0.984 . S
H340 N328 0.984 . S
H341 N328 0.985 . S
C342 C343 1.363 . S
C342 C348 1.379 . S
C342 N350 1.356 . S
C343 C342 1.363 . S
C343 C349 1.363 . S
C344 C345 1.363 . S
C344 C349 1.379 . S
C344 N351 1.356 . S
C345 C344 1.363 . S
C345 C348 1.363 . S
N346 C348 1.356 . S
N346 H358 0.984 . S
N346 H359 0.985 . S
N347 C349 1.356 . S
N347 H352 0.984 . S
N347 H353 0.985 . S
C348 C342 1.379 . S
C348 C345 1.363 . S
C348 N346 1.356 . S
C349 C343 1.363 . S
C349 C344 1.379 . S
C349 N347 1.356 . S
N350 C342 1.356 . S
N350 H356 0.984 . S
N350 H357 0.984 . S
N351 C344 1.356 . S
N351 H354 0.984 . S
N351 H355 0.985 . S
H352 N347 0.984 . S
H353 N347 0.985 . S
H354 N351 0.984 . S
H355 N351 0.985 . S
H356 N350 0.984 . S
H357 N350 0.984 . S
H358 N346 0.984 . S
H359 N346 0.985 . S
C360 C361 1.363 . S
C360 C366 1.379 1_654 S
C360 N368 1.356 . S
C361 C360 1.363 . S
C361 C367 1.363 1_655 S
C362 C363 1.363 . S
C362 C367 1.379 1_556 S
C362 N369 1.356 . S
C363 C362 1.363 . S
C363 C366 1.363 . S
N364 C366 1.356 . S
N364 H376 0.984 1_455 S
N364 H377 0.985 . S
N365 C367 1.356 . S
N365 H370 0.984 . S
N365 H371 0.985 . S
C366 C360 1.379 1_456 S
C366 C363 1.363 . S
C366 N364 1.356 . S
C367 C361 1.363 1_455 S
C367 C362 1.379 1_554 S
C367 N365 1.356 . S
N368 C360 1.356 . S
N368 H374 0.984 . S
N368 H375 0.984 . S
N369 C362 1.356 . S
N369 H372 0.984 . S
N369 H373 0.985 . S
H370 N365 0.984 . S
H371 N365 0.985 . S
H372 N369 0.984 . S
H373 N369 0.985 . S
H374 N368 0.984 . S
H375 N368 0.984 . S
H376 N364 0.984 1_655 S
H377 N364 0.985 . S
C378 C379 1.363 . S
C378 C384 1.379 1_554 S
C378 N386 1.356 . S
C379 C378 1.363 . S
C379 C385 1.363 . S
C380 C381 1.363 . S
C380 C385 1.379 1_556 S
C380 N387 1.356 . S
C381 C380 1.363 . S
C381 C384 1.363 . S
N382 C384 1.356 . S
N382 H394 0.984 . S
N382 H395 0.985 . S
N383 C385 1.356 . S
N383 H388 0.984 . S
N383 H389 0.985 . S
C384 C378 1.379 1_556 S
C384 C381 1.363 . S
C384 N382 1.356 . S
C385 C379 1.363 . S
C385 C380 1.379 1_554 S
C385 N383 1.356 . S
N386 C378 1.356 . S
N386 H392 0.984 . S
N386 H393 0.984 . S
N387 C380 1.356 . S
N387 H390 0.984 . S
N387 H391 0.985 . S
H388 N383 0.984 . S
H389 N383 0.985 . S
H390 N387 0.984 . S
H391 N387 0.985 . S
H392 N386 0.984 . S
H393 N386 0.984 . S
H394 N382 0.984 . S
H395 N382 0.985 . S
C396 C397 1.363 1_565 S
C396 C402 1.379 1_554 S
C396 N404 1.356 . S
C397 C396 1.363 1_545 S
C397 C403 1.363 . S
C398 C399 1.363 1_545 S
C398 C403 1.379 1_556 S
C398 N405 1.356 . S
C399 C398 1.363 1_565 S
C399 C402 1.363 . S
N400 C402 1.356 . S
N400 H412 0.984 . S
N400 H413 0.985 . S
N401 C403 1.356 . S
N401 H406 0.984 . S
N401 H407 0.985 . S
C402 C396 1.379 1_556 S
C402 C399 1.363 . S
C402 N400 1.356 . S
C403 C397 1.363 . S
C403 C398 1.379 1_554 S
C403 N401 1.356 . S
N404 C396 1.356 . S
N404 H410 0.984 . S
N404 H411 0.984 . S
N405 C398 1.356 . S
N405 H408 0.984 . S
N405 H409 0.985 . S
H406 N401 0.984 . S
H407 N401 0.985 . S
H408 N405 0.984 . S
H409 N405 0.985 . S
H410 N404 0.984 . S
H411 N404 0.984 . S
H412 N400 0.984 . S
H413 N400 0.985 . S
C414 C415 1.363 . S
C414 C420 1.379 . S
C414 N422 1.356 . S
C415 C414 1.363 . S
C415 C421 1.363 . S
C416 C417 1.363 . S
C416 C421 1.379 . S
C416 N423 1.356 . S
C417 C416 1.363 . S
C417 C420 1.363 . S
N418 C420 1.356 . S
N418 H430 0.984 . S
N418 H431 0.985 . S
N419 C421 1.356 . S
N419 H424 0.984 . S
N419 H425 0.985 . S
C420 C414 1.379 . S
C420 C417 1.363 . S
C420 N418 1.356 . S
C421 C415 1.363 . S
C421 C416 1.379 . S
C421 N419 1.356 . S
N422 C414 1.356 . S
N422 H428 0.984 . S
N422 H429 0.984 . S
N423 C416 1.356 . S
N423 H426 0.984 . S
N423 H427 0.985 . S
H424 N419 0.984 . S
H425 N419 0.985 . S
H426 N423 0.984 . S
H427 N423 0.985 . S
H428 N422 0.984 . S
H429 N422 0.984 . S
H430 N418 0.984 . S
H431 N418 0.985 . S
C432 C433 1.363 . S
C432 C438 1.379 . S
C432 N440 1.356 . S
C433 C432 1.363 . S
C433 C439 1.363 . S
C434 C435 1.363 . S
C434 C439 1.379 . S
C434 N441 1.356 . S
C435 C434 1.363 . S
C435 C438 1.363 . S
N436 C438 1.356 . S
N436 H448 0.984 . S
N436 H449 0.985 . S
N437 C439 1.356 . S
N437 H442 0.984 . S
N437 H443 0.985 . S
C438 C432 1.379 . S
C438 C435 1.363 . S
C438 N436 1.356 . S
C439 C433 1.363 . S
C439 C434 1.379 . S
C439 N437 1.356 . S
N440 C432 1.356 . S
N440 H446 0.984 . S
N440 H447 0.984 . S
N441 C434 1.356 . S
N441 H444 0.984 . S
N441 H445 0.985 . S
H442 N437 0.984 . S
H443 N437 0.985 . S
H444 N441 0.984 . S
H445 N441 0.985 . S
H446 N440 0.984 . S
H447 N440 0.984 . S
H448 N436 0.984 . S
H449 N436 0.985 . S
C450 C451 1.363 . S
C450 C456 1.379 . S
C450 N458 1.356 . S
C451 C450 1.363 . S
C451 C457 1.363 . S
C452 C453 1.363 . S
C452 C457 1.379 . S
C452 N459 1.356 . S
C453 C452 1.363 . S
C453 C456 1.363 . S
N454 C456 1.356 . S
N454 H466 0.984 . S
N454 H467 0.985 . S
N455 C457 1.356 . S
N455 H460 0.984 . S
N455 H461 0.985 . S
C456 C450 1.379 . S
C456 C453 1.363 . S
C456 N454 1.356 . S
C457 C451 1.363 . S
C457 C452 1.379 . S
C457 N455 1.356 . S
N458 C450 1.356 . S
N458 H464 0.984 . S
N458 H465 0.984 . S
N459 C452 1.356 . S
N459 H462 0.984 . S
N459 H463 0.985 . S
H460 N455 0.984 . S
H461 N455 0.985 . S
H462 N459 0.984 . S
H463 N459 0.985 . S
H464 N458 0.984 . S
H465 N458 0.984 . S
H466 N454 0.984 . S
H467 N454 0.985 . S
C468 C469 1.363 . S
C468 C474 1.379 . S
C468 N476 1.356 . S
C469 C468 1.363 . S
C469 C475 1.363 . S
C470 C471 1.363 . S
C470 C475 1.379 . S
C470 N477 1.356 . S
C471 C470 1.363 . S
C471 C474 1.363 . S
N472 C474 1.356 . S
N472 H484 0.984 . S
N472 H485 0.985 . S
N473 C475 1.356 . S
N473 H478 0.984 . S
N473 H479 0.985 . S
C474 C468 1.379 . S
C474 C471 1.363 . S
C474 N472 1.356 . S
C475 C469 1.363 . S
C475 C470 1.379 . S
C475 N473 1.356 . S
N476 C468 1.356 . S
N476 H482 0.984 . S
N476 H483 0.984 . S
N477 C470 1.356 . S
N477 H480 0.984 . S
N477 H481 0.985 . S
H478 N473 0.984 . S
H479 N473 0.985 . S
H480 N477 0.984 . S
H481 N477 0.985 . S
H482 N476 0.984 . S
H483 N476 0.984 . S
H484 N472 0.984 . S
H485 N472 0.985 . S
C486 C487 1.363 . S
C486 C492 1.379 . S
C486 N494 1.356 . S
C487 C486 1.363 . S
C487 C493 1.363 . S
C488 C489 1.363 . S
C488 C493 1.379 . S
C488 N495 1.356 . S
C489 C488 1.363 . S
C489 C492 1.363 . S
N490 C492 1.356 . S
N490 H502 0.984 . S
N490 H503 0.985 . S
N491 C493 1.356 . S
N491 H496 0.984 . S
N491 H497 0.985 . S
C492 C486 1.379 . S
C492 C489 1.363 . S
C492 N490 1.356 . S
C493 C487 1.363 . S
C493 C488 1.379 . S
C493 N491 1.356 . S
N494 C486 1.356 . S
N494 H500 0.984 . S
N494 H501 0.984 . S
N495 C488 1.356 . S
N495 H498 0.984 . S
N495 H499 0.985 . S
H496 N491 0.984 . S
H497 N491 0.985 . S
H498 N495 0.984 . S
H499 N495 0.985 . S
H500 N494 0.984 . S
H501 N494 0.984 . S
H502 N490 0.984 . S
H503 N490 0.985 . S
C504 C505 1.363 . S
C504 C510 1.379 . S
C504 N512 1.356 . S
C505 C504 1.363 . S
C505 C511 1.363 . S
C506 C507 1.363 . S
C506 C511 1.379 . S
C506 N513 1.356 . S
C507 C506 1.363 . S
C507 C510 1.363 . S
N508 C510 1.356 . S
N508 H520 0.984 . S
N508 H521 0.985 . S
N509 C511 1.356 . S
N509 H514 0.984 . S
N509 H515 0.985 . S
C510 C504 1.379 . S
C510 C507 1.363 . S
C510 N508 1.356 . S
C511 C505 1.363 . S
C511 C506 1.379 . S
C511 N509 1.356 . S
N512 C504 1.356 . S
N512 H518 0.984 . S
N512 H519 0.984 . S
N513 C506 1.356 . S
N513 H516 0.984 . S
N513 H517 0.985 . S
H514 N509 0.984 . S
H515 N509 0.985 . S
H516 N513 0.984 . S
H517 N513 0.985 . S
H518 N512 0.984 . S
H519 N512 0.984 . S
H520 N508 0.984 . S
H521 N508 0.985 . S
C522 C523 1.363 1_455 S
C522 C528 1.379 . S
C522 N530 1.356 . S
C523 C522 1.363 1_655 S
C523 C529 1.363 . S
C524 C525 1.363 1_655 S
C524 C529 1.379 . S
C524 N531 1.356 . S
C525 C524 1.363 1_455 S
C525 C528 1.363 . S
N526 C528 1.356 . S
N526 H538 0.984 . S
N526 H539 0.985 . S
N527 C529 1.356 . S
N527 H532 0.984 . S
N527 H533 0.985 . S
C528 C522 1.379 . S
C528 C525 1.363 . S
C528 N526 1.356 . S
C529 C523 1.363 . S
C529 C524 1.379 . S
C529 N527 1.356 . S
N530 C522 1.356 . S
N530 H536 0.984 . S
N530 H537 0.984 . S
N531 C524 1.356 . S
N531 H534 0.984 . S
N531 H535 0.985 . S
H532 N527 0.984 . S
H533 N527 0.985 . S
H534 N531 0.984 . S
H535 N531 0.985 . S
H536 N530 0.984 . S
H537 N530 0.984 . S
H538 N526 0.984 . S
H539 N526 0.985 . S
C540 C541 1.363 . S
C540 C546 1.379 . S
C540 N548 1.356 . S
C541 C540 1.363 . S
C541 C547 1.363 . S
C542 C543 1.363 . S
C542 C547 1.379 . S
C542 N549 1.356 . S
C543 C542 1.363 . S
C543 C546 1.363 . S
N544 C546 1.356 . S
N544 H556 0.984 . S
N544 H557 0.985 . S
N545 C547 1.356 . S
N545 H550 0.984 . S
N545 H551 0.985 . S
C546 C540 1.379 . S
C546 C543 1.363 . S
C546 N544 1.356 . S
C547 C541 1.363 . S
C547 C542 1.379 . S
C547 N545 1.356 . S
N548 C540 1.356 . S
N548 H554 0.984 . S
N548 H555 0.984 . S
N549 C542 1.356 . S
N549 H552 0.984 . S
N549 H553 0.985 . S
H550 N545 0.984 . S
H551 N545 0.985 . S
H552 N549 0.984 . S
H553 N549 0.985 . S
H554 N548 0.984 . S
H555 N548 0.984 . S
H556 N544 0.984 . S
H557 N544 0.985 . S
C558 C559 1.363 1_545 S
C558 C564 1.379 . S
C558 N566 1.356 . S
C559 C558 1.363 1_565 S
C559 C565 1.363 . S
C560 C561 1.363 1_565 S
C560 C565 1.379 . S
C560 N567 1.356 . S
C561 C560 1.363 1_545 S
C561 C564 1.363 . S
N562 C564 1.356 . S
N562 H574 0.984 . S
N562 H575 0.985 . S
N563 C565 1.356 . S
N563 H568 0.984 . S
N563 H569 0.985 . S
C564 C558 1.379 . S
C564 C561 1.363 . S
C564 N562 1.356 . S
C565 C559 1.363 . S
C565 C560 1.379 . S
C565 N563 1.356 . S
N566 C558 1.356 . S
N566 H572 0.984 . S
N566 H573 0.984 . S
N567 C560 1.356 . S
N567 H570 0.984 . S
N567 H571 0.985 . S
H568 N563 0.984 . S
H569 N563 0.985 . S
H570 N567 0.984 . S
H571 N567 0.985 . S
H572 N566 0.984 . S
H573 N566 0.984 . S
H574 N562 0.984 . S
H575 N562 0.985 . S
C576 C577 1.363 . S
C576 C582 1.379 . S
C576 N584 1.356 . S
C577 C576 1.363 . S
C577 C583 1.363 1_554 S
C578 C579 1.363 . S
C578 C583 1.379 . S
C578 N585 1.356 . S
C579 C578 1.363 . S
C579 C582 1.363 1_556 S
N580 C582 1.356 . S
N580 H592 0.984 . S
N580 H593 0.985 . S
N581 C583 1.356 . S
N581 H586 0.984 . S
N581 H587 0.985 . S
C582 C576 1.379 . S
C582 C579 1.363 1_554 S
C582 N580 1.356 . S
C583 C577 1.363 1_556 S
C583 C578 1.379 . S
C583 N581 1.356 . S
N584 C576 1.356 . S
N584 H590 0.984 . S
N584 H591 0.984 . S
N585 C578 1.356 . S
N585 H588 0.984 . S
N585 H589 0.985 . S
H586 N581 0.984 . S
H587 N581 0.985 . S
H588 N585 0.984 . S
H589 N585 0.985 . S
H590 N584 0.984 . S
H591 N584 0.984 . S
H592 N580 0.984 . S
H593 N580 0.985 . S
C594 C595 1.363 1_554 S
C594 C600 1.379 1_545 S
C594 N602 1.356 . S
C595 C594 1.363 1_556 S
C595 C601 1.363 . S
C596 C597 1.363 1_556 S
C596 C601 1.379 1_565 S
C596 N603 1.356 . S
C597 C596 1.363 1_554 S
C597 C600 1.363 . S
N598 C600 1.356 . S
N598 H610 0.984 . S
N598 H611 0.985 . S
N599 C601 1.356 . S
N599 H604 0.984 . S
N599 H605 0.985 . S
C600 C594 1.379 1_565 S
C600 C597 1.363 . S
C600 N598 1.356 . S
C601 C595 1.363 . S
C601 C596 1.379 1_545 S
C601 N599 1.356 . S
N602 C594 1.356 . S
N602 H608 0.984 . S
N602 H609 0.984 . S
N603 C596 1.356 . S
N603 H606 0.984 . S
N603 H607 0.985 . S
H604 N599 0.984 . S
H605 N599 0.985 . S
H606 N603 0.984 . S
H607 N603 0.985 . S
H608 N602 0.984 . S
H609 N602 0.984 . S
H610 N598 0.984 . S
H611 N598 0.985 . S
C612 C613 1.363 1_554 S
C612 C618 1.379 1_655 S
C612 N620 1.356 . S
C613 C612 1.363 1_556 S
C613 C619 1.363 . S
C614 C615 1.363 1_556 S
C614 C619 1.379 1_455 S
C614 N621 1.356 . S
C615 C614 1.363 1_554 S
C615 C618 1.363 . S
N616 C618 1.356 . S
N616 H628 0.984 . S
N616 H629 0.985 . S
N617 C619 1.356 . S
N617 H622 0.984 . S
N617 H623 0.985 . S
C618 C612 1.379 1_455 S
C618 C615 1.363 . S
C618 N616 1.356 . S
C619 C613 1.363 . S
C619 C614 1.379 1_655 S
C619 N617 1.356 . S
N620 C612 1.356 . S
N620 H626 0.984 . S
N620 H627 0.984 . S
N621 C614 1.356 . S
N621 H624 0.984 . S
N621 H625 0.985 . S
H622 N617 0.984 . S
H623 N617 0.985 . S
H624 N621 0.984 . S
H625 N621 0.985 . S
H626 N620 0.984 . S
H627 N620 0.984 . S
H628 N616 0.984 . S
H629 N616 0.985 . S
C630 C631 1.363 . S
C630 C636 1.379 . S
C630 N638 1.356 . S
C631 C630 1.363 . S
C631 C637 1.363 1_556 S
C632 C633 1.363 . S
C632 C637 1.379 . S
C632 N639 1.356 . S
C633 C632 1.363 . S
C633 C636 1.363 1_554 S
N634 C636 1.356 . S
N634 H646 0.984 . S
N634 H647 0.985 . S
N635 C637 1.356 . S
N635 H640 0.984 . S
N635 H641 0.985 . S
C636 C630 1.379 . S
C636 C633 1.363 1_556 S
C636 N634 1.356 . S
C637 C631 1.363 1_554 S
C637 C632 1.379 . S
C637 N635 1.356 . S
N638 C630 1.356 . S
N638 H644 0.984 . S
N638 H645 0.984 . S
N639 C632 1.356 . S
N639 H642 0.984 . S
N639 H643 0.985 . S
H640 N635 0.984 . S
H641 N635 0.985 . S
H642 N639 0.984 . S
H643 N639 0.985 . S
H644 N638 0.984 . S
H645 N638 0.984 . S
H646 N634 0.984 . S
H647 N634 0.985 . S
C648 C649 1.363 . S
C648 C654 1.379 1_565 S
C648 N656 1.356 . S
C649 C648 1.363 . S
C649 C655 1.363 1_554 S
C650 C651 1.363 . S
C650 C655 1.379 1_545 S
C650 N657 1.356 . S
C651 C650 1.363 . S
C651 C654 1.363 1_556 S
N652 C654 1.356 . S
N652 H664 0.984 . S
N652 H665 0.985 . S
N653 C655 1.356 . S
N653 H658 0.984 . S
N653 H659 0.985 . S
C654 C648 1.379 1_545 S
C654 C651 1.363 1_554 S
C654 N652 1.356 . S
C655 C649 1.363 1_556 S
C655 C650 1.379 1_565 S
C655 N653 1.356 . S
N656 C648 1.356 . S
N656 H662 0.984 . S
N656 H663 0.984 . S
N657 C650 1.356 . S
N657 H660 0.984 . S
N657 H661 0.985 . S
H658 N653 0.984 . S
H659 N653 0.985 . S
H660 N657 0.984 . S
H661 N657 0.985 . S
H662 N656 0.984 . S
H663 N656 0.984 . S
H664 N652 0.984 . S
H665 N652 0.985 . S
C666 C667 1.363 1_554 S
C666 C672 1.379 1_655 S
C666 N674 1.356 . S
C667 C666 1.363 1_556 S
C667 C673 1.363 . S
C668 C669 1.363 1_556 S
C668 C673 1.379 1_455 S
C668 N675 1.356 . S
C669 C668 1.363 1_554 S
C669 C672 1.363 . S
N670 C672 1.356 . S
N670 H682 0.984 . S
N670 H683 0.985 . S
N671 C673 1.356 . S
N671 H676 0.984 . S
N671 H677 0.985 . S
C672 C666 1.379 1_455 S
C672 C669 1.363 . S
C672 N670 1.356 . S
C673 C667 1.363 . S
C673 C668 1.379 1_655 S
C673 N671 1.356 . S
N674 C666 1.356 . S
N674 H680 0.984 . S
N674 H681 0.984 . S
N675 C668 1.356 . S
N675 H678 0.984 . S
N675 H679 0.985 . S
H676 N671 0.984 . S
H677 N671 0.985 . S
H678 N675 0.984 . S
H679 N675 0.985 . S
H680 N674 0.984 . S
H681 N674 0.984 . S
H682 N670 0.984 . S
H683 N670 0.985 . S
C684 C685 1.363 . S
C684 C690 1.379 . S
C684 N692 1.356 . S
C685 C684 1.363 . S
C685 C691 1.363 . S
C686 C687 1.363 . S
C686 C691 1.379 . S
C686 N693 1.356 . S
C687 C686 1.363 . S
C687 C690 1.363 . S
N688 C690 1.356 . S
N688 H700 0.984 . S
N688 H701 0.985 . S
N689 C691 1.356 . S
N689 H694 0.984 . S
N689 H695 0.985 . S
C690 C684 1.379 . S
C690 C687 1.363 . S
C690 N688 1.356 . S
C691 C685 1.363 . S
C691 C686 1.379 . S
C691 N689 1.356 . S
N692 C684 1.356 . S
N692 H698 0.984 . S
N692 H699 0.984 . S
N693 C686 1.356 . S
N693 H696 0.984 . S
N693 H697 0.985 . S
H694 N689 0.984 . S
H695 N689 0.985 . S
H696 N693 0.984 . S
H697 N693 0.985 . S
H698 N692 0.984 . S
H699 N692 0.984 . S
H700 N688 0.984 . S
H701 N688 0.985 . S
C702 C703 1.363 . S
C702 C708 1.379 . S
C702 N710 1.356 . S
C703 C702 1.363 . S
C703 C709 1.363 . S
C704 C705 1.363 . S
C704 C709 1.379 . S
C704 N711 1.356 . S
C705 C704 1.363 . S
C705 C708 1.363 . S
N706 C708 1.356 . S
N706 H718 0.984 . S
N706 H719 0.985 . S
N707 C709 1.356 . S
N707 H712 0.984 . S
N707 H713 0.985 . S
C708 C702 1.379 . S
C708 C705 1.363 . S
C708 N706 1.356 . S
C709 C703 1.363 . S
C709 C704 1.379 . S
C709 N707 1.356 . S
N710 C702 1.356 . S
N710 H716 0.984 . S
N710 H717 0.984 . S
N711 C704 1.356 . S
N711 H714 0.984 . S
N711 H715 0.985 . S
H712 N707 0.984 . S
H713 N707 0.985 . S
H714 N711 0.984 . S
H715 N711 0.985 . S
H716 N710 0.984 . S
H717 N710 0.984 . S
H718 N706 0.984 . S
H719 N706 0.985 . S
C720 C721 1.363 . S
C720 C726 1.379 . S
C720 N728 1.356 . S
C721 C720 1.363 . S
C721 C727 1.363 . S
C722 C723 1.363 . S
C722 C727 1.379 . S
C722 N729 1.356 . S
C723 C722 1.363 . S
C723 C726 1.363 . S
N724 C726 1.356 . S
N724 H736 0.984 . S
N724 H737 0.985 . S
N725 C727 1.356 . S
N725 H730 0.984 . S
N725 H731 0.985 . S
C726 C720 1.379 . S
C726 C723 1.363 . S
C726 N724 1.356 . S
C727 C721 1.363 . S
C727 C722 1.379 . S
C727 N725 1.356 . S
N728 C720 1.356 . S
N728 H734 0.984 . S
N728 H735 0.984 . S
N729 C722 1.356 . S
N729 H732 0.984 . S
N729 H733 0.985 . S
H730 N725 0.984 . S
H731 N725 0.985 . S
H732 N729 0.984 . S
H733 N729 0.985 . S
H734 N728 0.984 . S
H735 N728 0.984 . S
H736 N724 0.984 . S
H737 N724 0.985 . S
C738 C739 1.363 . S
C738 C744 1.379 . S
C738 N746 1.356 . S
C739 C738 1.363 . S
C739 C745 1.363 . S
C740 C741 1.363 . S
C740 C745 1.379 . S
C740 N747 1.356 . S
C741 C740 1.363 . S
C741 C744 1.363 . S
N742 C744 1.356 . S
N742 H754 0.984 . S
N742 H755 0.985 . S
N743 C745 1.356 . S
N743 H748 0.984 . S
N743 H749 0.985 . S
C744 C738 1.379 . S
C744 C741 1.363 . S
C744 N742 1.356 . S
C745 C739 1.363 . S
C745 C740 1.379 . S
C745 N743 1.356 . S
N746 C738 1.356 . S
N746 H752 0.984 . S
N746 H753 0.984 . S
N747 C740 1.356 . S
N747 H750 0.984 . S
N747 H751 0.985 . S
H748 N743 0.984 . S
H749 N743 0.985 . S
H750 N747 0.984 . S
H751 N747 0.985 . S
H752 N746 0.984 . S
H753 N746 0.984 . S
H754 N742 0.984 . S
H755 N742 0.985 . S
C756 C757 1.363 . S
C756 C762 1.379 . S
C756 N764 1.356 . S
C757 C756 1.363 . S
C757 C763 1.363 . S
C758 C759 1.363 . S
C758 C763 1.379 . S
C758 N765 1.356 . S
C759 C758 1.363 . S
C759 C762 1.363 . S
N760 C762 1.356 . S
N760 H772 0.984 . S
N760 H773 0.985 . S
N761 C763 1.356 . S
N761 H766 0.984 . S
N761 H767 0.985 . S
C762 C756 1.379 . S
C762 C759 1.363 . S
C762 N760 1.356 . S
C763 C757 1.363 . S
C763 C758 1.379 . S
C763 N761 1.356 . S
N764 C756 1.356 . S
N764 H770 0.984 . S
N764 H771 0.984 . S
N765 C758 1.356 . S
N765 H768 0.984 . S
N765 H769 0.985 . S
H766 N761 0.984 . S
H767 N761 0.985 . S
H768 N765 0.984 . S
H769 N765 0.985 . S
H770 N764 0.984 . S
H771 N764 0.984 . S
H772 N760 0.984 . S
H773 N760 0.985 . S
C774 C775 1.363 . S
C774 C780 1.379 . S
C774 N782 1.356 . S
C775 C774 1.363 . S
C775 C781 1.363 . S
C776 C777 1.363 . S
C776 C781 1.379 . S
C776 N783 1.356 . S
C777 C776 1.363 . S
C777 C780 1.363 . S
N778 C780 1.356 . S
N778 H790 0.984 . S
N778 H791 0.985 . S
N779 C781 1.356 . S
N779 H784 0.984 . S
N779 H785 0.985 . S
C780 C774 1.379 . S
C780 C777 1.363 . S
C780 N778 1.356 . S
C781 C775 1.363 . S
C781 C776 1.379 . S
C781 N779 1.356 . S
N782 C774 1.356 . S
N782 H788 0.984 . S
N782 H789 0.984 . S
N783 C776 1.356 . S
N783 H786 0.984 . S
N783 H787 0.985 . S
H784 N779 0.984 . S
H785 N779 0.985 . S
H786 N783 0.984 . S
H787 N783 0.985 . S
H788 N782 0.984 . S
H789 N782 0.984 . S
H790 N778 0.984 . S
H791 N778 0.985 . S
C792 C793 1.363 . S
C792 C798 1.379 . S
C792 N800 1.356 . S
C793 C792 1.363 . S
C793 C799 1.363 . S
C794 C795 1.363 . S
C794 C799 1.379 . S
C794 N801 1.356 . S
C795 C794 1.363 . S
C795 C798 1.363 . S
N796 C798 1.356 . S
N796 H808 0.984 . S
N796 H809 0.985 . S
N797 C799 1.356 . S
N797 H802 0.984 . S
N797 H803 0.985 . S
C798 C792 1.379 . S
C798 C795 1.363 . S
C798 N796 1.356 . S
C799 C793 1.363 . S
C799 C794 1.379 . S
C799 N797 1.356 . S
N800 C792 1.356 . S
N800 H806 0.984 . S
N800 H807 0.984 . S
N801 C794 1.356 . S
N801 H804 0.984 . S
N801 H805 0.985 . S
H802 N797 0.984 . S
H803 N797 0.985 . S
H804 N801 0.984 . S
H805 N801 0.985 . S
H806 N800 0.984 . S
H807 N800 0.984 . S
H808 N796 0.984 . S
H809 N796 0.985 . S
C810 C811 1.363 . S
C810 C816 1.379 . S
C810 N818 1.356 . S
C811 C810 1.363 . S
C811 C817 1.363 . S
C812 C813 1.363 . S
C812 C817 1.379 . S
C812 N819 1.356 . S
C813 C812 1.363 . S
C813 C816 1.363 . S
N814 C816 1.356 . S
N814 H826 0.984 . S
N814 H827 0.985 . S
N815 C817 1.356 . S
N815 H820 0.984 . S
N815 H821 0.985 . S
C816 C810 1.379 . S
C816 C813 1.363 . S
C816 N814 1.356 . S
C817 C811 1.363 . S
C817 C812 1.379 . S
C817 N815 1.356 . S
N818 C810 1.356 . S
N818 H824 0.984 . S
N818 H825 0.984 . S
N819 C812 1.356 . S
N819 H822 0.984 . S
N819 H823 0.985 . S
H820 N815 0.984 . S
H821 N815 0.985 . S
H822 N819 0.984 . S
H823 N819 0.985 . S
H824 N818 0.984 . S
H825 N818 0.984 . S
H826 N814 0.984 . S
H827 N814 0.985 . S
C828 C829 1.363 . S
C828 C834 1.379 . S
C828 N836 1.356 . S
C829 C828 1.363 . S
C829 C835 1.363 . S
C830 C831 1.363 . S
C830 C835 1.379 . S
C830 N837 1.356 . S
C831 C830 1.363 . S
C831 C834 1.363 . S
N832 C834 1.356 . S
N832 H844 0.984 . S
N832 H845 0.985 . S
N833 C835 1.356 . S
N833 H838 0.984 . S
N833 H839 0.985 . S
C834 C828 1.379 . S
C834 C831 1.363 . S
C834 N832 1.356 . S
C835 C829 1.363 . S
C835 C830 1.379 . S
C835 N833 1.356 . S
N836 C828 1.356 . S
N836 H842 0.984 . S
N836 H843 0.984 . S
N837 C830 1.356 . S
N837 H840 0.984 . S
N837 H841 0.985 . S
H838 N833 0.984 . S
H839 N833 0.985 . S
H840 N837 0.984 . S
H841 N837 0.985 . S
H842 N836 0.984 . S
H843 N836 0.984 . S
H844 N832 0.984 . S
H845 N832 0.985 . S
C846 C847 1.363 . S
C846 C852 1.379 . S
C846 N854 1.356 . S
C847 C846 1.363 . S
C847 C853 1.363 . S
C848 C849 1.363 . S
C848 C853 1.379 . S
C848 N855 1.356 . S
C849 C848 1.363 . S
C849 C852 1.363 . S
N850 C852 1.356 . S
N850 H862 0.984 . S
N850 H863 0.985 . S
N851 C853 1.356 . S
N851 H856 0.984 . S
N851 H857 0.985 . S
C852 C846 1.379 . S
C852 C849 1.363 . S
C852 N850 1.356 . S
C853 C847 1.363 . S
C853 C848 1.379 . S
C853 N851 1.356 . S
N854 C846 1.356 . S
N854 H860 0.984 . S
N854 H861 0.984 . S
N855 C848 1.356 . S
N855 H858 0.984 . S
N855 H859 0.985 . S
H856 N851 0.984 . S
H857 N851 0.985 . S
H858 N855 0.984 . S
H859 N855 0.985 . S
H860 N854 0.984 . S
H861 N854 0.984 . S
H862 N850 0.984 . S
H863 N850 0.985 . S
C864 C865 1.363 . S
C864 C870 1.379 . S
C864 N872 1.356 . S
C865 C864 1.363 . S
C865 C871 1.363 . S
C866 C867 1.363 . S
C866 C871 1.379 . S
C866 N873 1.356 . S
C867 C866 1.363 . S
C867 C870 1.363 . S
N868 C870 1.356 . S
N868 H880 0.984 . S
N868 H881 0.985 . S
N869 C871 1.356 . S
N869 H874 0.984 . S
N869 H875 0.985 . S
C870 C864 1.379 . S
C870 C867 1.363 . S
C870 N868 1.356 . S
C871 C865 1.363 . S
C871 C866 1.379 . S
C871 N869 1.356 . S
N872 C864 1.356 . S
N872 H878 0.984 . S
N872 H879 0.984 . S
N873 C866 1.356 . S
N873 H876 0.984 . S
N873 H877 0.985 . S
H874 N869 0.984 . S
H875 N869 0.985 . S
H876 N873 0.984 . S
H877 N873 0.985 . S
H878 N872 0.984 . S
H879 N872 0.984 . S
H880 N868 0.984 . S
H881 N868 0.985 . S
C882 C883 1.363 . S
C882 C888 1.379 . S
C882 N890 1.356 . S
C883 C882 1.363 . S
C883 C889 1.363 . S
C884 C885 1.363 . S
C884 C889 1.379 . S
C884 N891 1.356 . S
C885 C884 1.363 . S
C885 C888 1.363 . S
N886 C888 1.356 . S
N886 H898 0.984 . S
N886 H899 0.985 . S
N887 C889 1.356 . S
N887 H892 0.984 . S
N887 H893 0.985 . S
C888 C882 1.379 . S
C888 C885 1.363 . S
C888 N886 1.356 . S
C889 C883 1.363 . S
C889 C884 1.379 . S
C889 N887 1.356 . S
N890 C882 1.356 . S
N890 H896 0.984 . S
N890 H897 0.984 . S
N891 C884 1.356 . S
N891 H894 0.984 . S
N891 H895 0.985 . S
H892 N887 0.984 . S
H893 N887 0.985 . S
H894 N891 0.984 . S
H895 N891 0.985 . S
H896 N890 0.984 . S
H897 N890 0.984 . S
H898 N886 0.984 . S
H899 N886 0.985 . S
C253 C244 1.595 . S
C255 C6 1.595 . S
C271 C216 1.595 . S
C273 C20 1.595 . S
C289 C230 1.595 . S
C291 C34 1.595 . S
C307 C104 1.595 . S
C309 C48 1.595 . S
C325 C118 1.595 . S
C327 C62 1.595 . S
C343 C76 1.595 . S
C345 C90 1.595 . S
C361 C132 1.595 . S
C363 C188 1.595 . S
C379 C146 1.595 . S
C381 C202 1.595 . S
C397 C160 1.595 . S
C399 C174 1.595 . S
C415 C9 1.083 . S
C417 C247 1.083 . S
C433 C219 1.083 . S
C435 C23 1.083 . S
C451 C37 1.083 . S
C453 C233 1.083 . S
C469 C107 1.083 . S
C471 C51 1.083 . S
C487 C65 1.083 . S
C489 C121 1.083 . S
C505 C79 1.083 . S
C507 C93 1.083 . S
C523 C135 1.083 . S
C525 C191 1.083 . S
C541 C205 1.083 . S
C543 C149 1.083 . S
C559 C177 1.083 . S
C561 C163 1.083 . S
C577 C8 1.744 . S
C579 C50 1.744 . S
C595 C64 1.744 . S
C597 C22 1.744 . S
C613 C78 1.744 . S
C615 C36 1.744 . S
C631 C77 1.649 . S
C633 C21 1.649 . S
C649 C35 1.649 . S
C651 C49 1.649 . S
C667 C63 1.649 . S
C669 C7 1.649 . S
C685 C92 1.744 . S
C687 C134 1.744 . S
C703 C148 1.744 . S
C705 C106 1.745 . S
C721 C162 1.745 . S
C723 C120 1.745 . S
C739 C161 1.649 . S
C741 C105 1.649 . S
C757 C119 1.649 . S
C759 C133 1.649 . S
C775 C147 1.649 . S
C777 C91 1.649 . S
C793 C218 1.744 . S
C795 C176 1.744 . S
C811 C232 1.744 . S
C813 C190 1.745 . S
C829 C204 1.744 . S
C831 C246 1.744 . S
C847 C245 1.649 . S
C849 C189 1.649 . S
C865 C203 1.649 . S
C867 C217 1.649 . S
C883 C231 1.649 . S
C885 C175 1.649 . S
