# Generated by pormake.
# Topology wjr, (5)-cn, num edge types: 1
# Building blocks:
#     Node 0, Type 0, BuildingBlock: XOMCOT_clean_sbu_1, # of connection points: 5
#     Node 1, Type 0, BuildingBlock: XOMCOT_clean_sbu_1, # of connection points: 5
#     Node 2, Type 0, BuildingBlock: XOMCOT_clean_sbu_1, # of connection points: 5
#     Node 3, Type 0, BuildingBlock: XOMCOT_clean_sbu_1, # of connection points: 5
#     Node 4, Type 0, BuildingBlock: XOMCOT_clean_sbu_1, # of connection points: 5
#     Node 5, Type 0, BuildingBlock: XOMCOT_clean_sbu_1, # of connection points: 5
#     Node 6, Type 0, BuildingBlock: XOMCOT_clean_sbu_1, # of connection points: 5
#     Node 7, Type 0, BuildingBlock: XOMCOT_clean_sbu_1, # of connection points: 5
#     Node 8, Type 0, BuildingBlock: XOMCOT_clean_sbu_1, # of connection points: 5
#     Node 9, Type 0, BuildingBlock: XOMCOT_clean_sbu_1, # of connection points: 5
#     Node 10, Type 0, BuildingBlock: XOMCOT_clean_sbu_1, # of connection points: 5
#     Node 11, Type 0, BuildingBlock: XOMCOT_clean_sbu_1, # of connection points: 5
#     Node 12, Type 0, BuildingBlock: XOMCOT_clean_sbu_1, # of connection points: 5
#     Node 13, Type 0, BuildingBlock: XOMCOT_clean_sbu_1, # of connection points: 5
#     Node 14, Type 0, BuildingBlock: XOMCOT_clean_sbu_1, # of connection points: 5
#     Node 15, Type 0, BuildingBlock: XOMCOT_clean_sbu_1, # of connection points: 5
#     Node 16, Type 0, BuildingBlock: XOMCOT_clean_sbu_1, # of connection points: 5
#     Node 17, Type 0, BuildingBlock: XOMCOT_clean_sbu_1, # of connection points: 5
#     Node 18, Type 0, BuildingBlock: XOMCOT_clean_sbu_1, # of connection points: 5
#     Node 19, Type 0, BuildingBlock: XOMCOT_clean_sbu_1, # of connection points: 5
#     Node 20, Type 0, BuildingBlock: XOMCOT_clean_sbu_1, # of connection points: 5
#     Node 21, Type 0, BuildingBlock: XOMCOT_clean_sbu_1, # of connection points: 5
#     Node 22, Type 0, BuildingBlock: XOMCOT_clean_sbu_1, # of connection points: 5
#     Node 23, Type 0, BuildingBlock: XOMCOT_clean_sbu_1, # of connection points: 5
#     Edge 24, Type (0, 0), BuildingBlock: XIVTED_clean_linker_0, # of connection points: 2
#     Edge 25, Type (0, 0), BuildingBlock: XIVTED_clean_linker_0, # of connection points: 2
#     Edge 26, Type (0, 0), BuildingBlock: XIVTED_clean_linker_0, # of connection points: 2
#     Edge 27, Type (0, 0), BuildingBlock: XIVTED_clean_linker_0, # of connection points: 2
#     Edge 28, Type (0, 0), BuildingBlock: XIVTED_clean_linker_0, # of connection points: 2
#     Edge 29, Type (0, 0), BuildingBlock: XIVTED_clean_linker_0, # of connection points: 2
#     Edge 30, Type (0, 0), BuildingBlock: XIVTED_clean_linker_0, # of connection points: 2
#     Edge 31, Type (0, 0), BuildingBlock: XIVTED_clean_linker_0, # of connection points: 2
#     Edge 32, Type (0, 0), BuildingBlock: XIVTED_clean_linker_0, # of connection points: 2
#     Edge 33, Type (0, 0), BuildingBlock: XIVTED_clean_linker_0, # of connection points: 2
#     Edge 34, Type (0, 0), BuildingBlock: XIVTED_clean_linker_0, # of connection points: 2
#     Edge 35, Type (0, 0), BuildingBlock: XIVTED_clean_linker_0, # of connection points: 2
#     Edge 36, Type (0, 0), BuildingBlock: XIVTED_clean_linker_0, # of connection points: 2
#     Edge 37, Type (0, 0), BuildingBlock: XIVTED_clean_linker_0, # of connection points: 2
#     Edge 38, Type (0, 0), BuildingBlock: XIVTED_clean_linker_0, # of connection points: 2
#     Edge 39, Type (0, 0), BuildingBlock: XIVTED_clean_linker_0, # of connection points: 2
#     Edge 40, Type (0, 0), BuildingBlock: XIVTED_clean_linker_0, # of connection points: 2
#     Edge 41, Type (0, 0), BuildingBlock: XIVTED_clean_linker_0, # of connection points: 2
#     Edge 42, Type (0, 0), BuildingBlock: XIVTED_clean_linker_0, # of connection points: 2
#     Edge 43, Type (0, 0), BuildingBlock: XIVTED_clean_linker_0, # of connection points: 2
#     Edge 44, Type (0, 0), BuildingBlock: XIVTED_clean_linker_0, # of connection points: 2
#     Edge 45, Type (0, 0), BuildingBlock: XIVTED_clean_linker_0, # of connection points: 2
#     Edge 46, Type (0, 0), BuildingBlock: XIVTED_clean_linker_0, # of connection points: 2
#     Edge 47, Type (0, 0), BuildingBlock: XIVTED_clean_linker_0, # of connection points: 2
#     Edge 48, Type (0, 0), BuildingBlock: XIVTED_clean_linker_0, # of connection points: 2
#     Edge 49, Type (0, 0), BuildingBlock: XIVTED_clean_linker_0, # of connection points: 2
#     Edge 50, Type (0, 0), BuildingBlock: XIVTED_clean_linker_0, # of connection points: 2
#     Edge 51, Type (0, 0), BuildingBlock: XIVTED_clean_linker_0, # of connection points: 2
#     Edge 52, Type (0, 0), BuildingBlock: XIVTED_clean_linker_0, # of connection points: 2
#     Edge 53, Type (0, 0), BuildingBlock: XIVTED_clean_linker_0, # of connection points: 2
#     Edge 54, Type (0, 0), BuildingBlock: XIVTED_clean_linker_0, # of connection points: 2
#     Edge 55, Type (0, 0), BuildingBlock: XIVTED_clean_linker_0, # of connection points: 2
#     Edge 56, Type (0, 0), BuildingBlock: XIVTED_clean_linker_0, # of connection points: 2
#     Edge 57, Type (0, 0), BuildingBlock: XIVTED_clean_linker_0, # of connection points: 2
#     Edge 58, Type (0, 0), BuildingBlock: XIVTED_clean_linker_0, # of connection points: 2
#     Edge 59, Type (0, 0), BuildingBlock: XIVTED_clean_linker_0, # of connection points: 2
#     Edge 60, Type (0, 0), BuildingBlock: XIVTED_clean_linker_0, # of connection points: 2
#     Edge 61, Type (0, 0), BuildingBlock: XIVTED_clean_linker_0, # of connection points: 2
#     Edge 62, Type (0, 0), BuildingBlock: XIVTED_clean_linker_0, # of connection points: 2
#     Edge 63, Type (0, 0), BuildingBlock: XIVTED_clean_linker_0, # of connection points: 2
#     Edge 64, Type (0, 0), BuildingBlock: XIVTED_clean_linker_0, # of connection points: 2
#     Edge 65, Type (0, 0), BuildingBlock: XIVTED_clean_linker_0, # of connection points: 2
#     Edge 66, Type (0, 0), BuildingBlock: XIVTED_clean_linker_0, # of connection points: 2
#     Edge 67, Type (0, 0), BuildingBlock: XIVTED_clean_linker_0, # of connection points: 2
#     Edge 68, Type (0, 0), BuildingBlock: XIVTED_clean_linker_0, # of connection points: 2
#     Edge 69, Type (0, 0), BuildingBlock: XIVTED_clean_linker_0, # of connection points: 2
#     Edge 70, Type (0, 0), BuildingBlock: XIVTED_clean_linker_0, # of connection points: 2
#     Edge 71, Type (0, 0), BuildingBlock: XIVTED_clean_linker_0, # of connection points: 2
#     Edge 72, Type (0, 0), BuildingBlock: XIVTED_clean_linker_0, # of connection points: 2
#     Edge 73, Type (0, 0), BuildingBlock: XIVTED_clean_linker_0, # of connection points: 2
#     Edge 74, Type (0, 0), BuildingBlock: XIVTED_clean_linker_0, # of connection points: 2
#     Edge 75, Type (0, 0), BuildingBlock: XIVTED_clean_linker_0, # of connection points: 2
#     Edge 76, Type (0, 0), BuildingBlock: XIVTED_clean_linker_0, # of connection points: 2
#     Edge 77, Type (0, 0), BuildingBlock: XIVTED_clean_linker_0, # of connection points: 2
#     Edge 78, Type (0, 0), BuildingBlock: XIVTED_clean_linker_0, # of connection points: 2
#     Edge 79, Type (0, 0), BuildingBlock: XIVTED_clean_linker_0, # of connection points: 2
#     Edge 80, Type (0, 0), BuildingBlock: XIVTED_clean_linker_0, # of connection points: 2
#     Edge 81, Type (0, 0), BuildingBlock: XIVTED_clean_linker_0, # of connection points: 2
#     Edge 82, Type (0, 0), BuildingBlock: XIVTED_clean_linker_0, # of connection points: 2
#     Edge 83, Type (0, 0), BuildingBlock: XIVTED_clean_linker_0, # of connection points: 2
# Relax obj value: 0.614
# Max RMSD: 0.257
# Mean RMSD: 0.257
data_MOF--net-wjr--node1-XOMCOT_clean_sbu_1--edge1-XIVTED_clean_linker_0
_symmetry_space_group_name_H-M    P1
_symmetry_Int_Tables_number       1
_symmetry_cell_setting            triclinic
loop_
_symmetry_equiv_pos_as_xyz
'x, y, z'
_cell_length_a     63.501672
_cell_length_b     63.489356
_cell_length_c     47.96892
_cell_angle_alpha  90.121757
_cell_angle_beta   89.994253
_cell_angle_gamma 119.92458
loop_
_atom_site_label
_atom_site_type_symbol
_atom_site_fract_x
_atom_site_fract_y
_atom_site_fract_z
_atom_type_partial_charge
C0 C 0.45168 0.13976 0.1536 0.0
C1 C 0.44748 0.15787 0.16293 0.0
N2 N 0.4669 0.17403 0.1779 0.0
N3 N 0.47356 0.14419 0.16277 0.0
C4 C 0.48285 0.1658 0.1762 0.0
H5 H 0.43862 0.1232 0.1432 0.0
Co6 Co 0.48279 0.12025 0.1649 0.0
C7 C 0.51185 0.14834 0.21937 0.0
O8 O 0.49976 0.1574 0.23201 0.0
N9 N 0.49194 0.09581 0.16798 0.0
C10 C 0.49816 0.0686 0.1902 0.0
C11 C 0.4945 0.08793 0.19324 0.0
C12 C 0.49409 0.08053 0.1497 0.0
N13 N 0.49772 0.06368 0.16288 0.0
O14 O 0.50908 0.13871 0.13986 0.0
H15 H 0.49259 0.09496 0.21303 0.0
H16 H 0.49171 0.08079 0.12741 0.0
O17 O 0.50375 0.13613 0.19684 0.0
C18 C 0.50165 0.13072 0.11532 0.0
O19 O 0.47943 0.11247 0.11208 0.0
N20 N 0.45543 0.10115 0.18664 0.0
C21 C 0.41011 0.06926 0.20955 0.0
C22 C 0.42572 0.09163 0.22254 0.0
C23 C 0.44836 0.10743 0.21061 0.0
C24 C 0.4402 0.07994 0.17336 0.0
C25 C 0.41777 0.0636 0.18463 0.0
H26 H 0.45962 0.12491 0.22003 0.0
H27 H 0.4455 0.07571 0.15364 0.0
H28 H 0.50035 0.17456 0.18622 0.0
H29 H 0.43065 0.15806 0.16046 0.0
H30 H 0.50033 0.05845 0.20697 0.0
H31 H 0.42042 0.09706 0.24147 0.0
H32 H 0.4068 0.04649 0.17394 0.0
C33 C 0.29711 0.46658 0.1487 0.0
C34 C 0.27953 0.46673 0.16528 0.0
N35 N 0.28868 0.47381 0.19112 0.0
N36 N 0.31741 0.47355 0.16388 0.0
C37 C 0.31178 0.4781 0.18967 0.0
H38 H 0.29466 0.46037 0.12735 0.0
Co39 Co 0.34385 0.47065 0.1514 0.0
C40 C 0.3809 0.49453 0.19598 0.0
O41 O 0.38617 0.47698 0.19464 0.0
N42 N 0.37042 0.46735 0.13781 0.0
C43 C 0.39155 0.45147 0.11899 0.0
C44 C 0.36877 0.44753 0.12513 0.0
C45 C 0.39462 0.48374 0.1372 0.0
N46 N 0.4079 0.47418 0.12689 0.0
O47 O 0.35263 0.4965 0.12528 0.0
H48 H 0.35215 0.43115 0.12004 0.0
H49 H 0.40248 0.50211 0.14508 0.0
O50 O 0.36458 0.49413 0.18 0.0
C51 C 0.34365 0.48721 0.10162 0.0
O52 O 0.33056 0.46346 0.0994 0.0
N53 N 0.33356 0.44348 0.17505 0.0
C54 C 0.32626 0.40091 0.19968 0.0
C55 C 0.33354 0.42188 0.21589 0.0
C56 C 0.33644 0.44295 0.20321 0.0
C57 C 0.32154 0.42214 0.16073 0.0
C58 C 0.3183 0.40063 0.17238 0.0
H59 H 0.34239 0.45896 0.21588 0.0
H60 H 0.31631 0.42223 0.1393 0.0
H61 H 0.3237 0.4828 0.20752 0.0
H62 H 0.26106 0.46105 0.15907 0.0
H63 H 0.39575 0.4386 0.10927 0.0
H64 H 0.3389 0.42271 0.23747 0.0
H65 H 0.31126 0.38444 0.15956 0.0
C66 C 0.84589 0.29127 0.1412 0.0
C67 C 0.82969 0.27225 0.15731 0.0
N68 N 0.82091 0.28091 0.17708 0.0
N69 N 0.84736 0.31204 0.15034 0.0
C70 C 0.83174 0.30514 0.17224 0.0
H71 H 0.85689 0.29026 0.12461 0.0
Co72 Co 0.871 0.34223 0.13598 0.0
C73 C 0.875 0.3711 0.18856 0.0
O74 O 0.8964 0.3749 0.19643 0.0
N75 N 0.89491 0.37241 0.12071 0.0
C76 C 0.91877 0.39866 0.08834 0.0
C77 C 0.89924 0.37583 0.09307 0.0
C78 C 0.9121 0.39362 0.13231 0.0
N79 N 0.92687 0.40988 0.11309 0.0
O80 O 0.84692 0.34474 0.11424 0.0
H81 H 0.88916 0.36228 0.07732 0.0
H82 H 0.91456 0.39699 0.15436 0.0
O83 O 0.86497 0.35921 0.16629 0.0
C84 C 0.83791 0.33084 0.09311 0.0
O85 O 0.84294 0.31334 0.08929 0.0
N86 N 0.89507 0.33902 0.15511 0.0
C87 C 0.93514 0.33916 0.17874 0.0
C88 C 0.91446 0.33328 0.19489 0.0
C89 C 0.89421 0.33254 0.18238 0.0
C90 C 0.91346 0.34123 0.13847 0.0
C91 C 0.93375 0.34153 0.14985 0.0
H92 H 0.87856 0.32843 0.19507 0.0
H93 H 0.9128 0.34356 0.11625 0.0
H94 H 0.82964 0.31775 0.18556 0.0
H95 H 0.8254 0.25354 0.15526 0.0
H96 H 0.92638 0.40641 0.06822 0.0
H97 H 0.91432 0.33069 0.2172 0.0
H98 H 0.9486 0.34458 0.13622 0.0
C99 C 0.54746 0.83153 0.14036 0.0
C100 C 0.54391 0.81145 0.15505 0.0
N101 N 0.52598 0.80572 0.17365 0.0
N102 N 0.53165 0.83843 0.14922 0.0
C103 C 0.51868 0.82222 0.16952 0.0
H104 H 0.56177 0.84141 0.12539 0.0
Co105 Co 0.53329 0.86757 0.13759 0.0
C106 C 0.50552 0.87415 0.18367 0.0
O107 O 0.52383 0.89584 0.18951 0.0
N108 N 0.53521 0.897 0.12464 0.0
C109 C 0.548 0.93107 0.10004 0.0
C110 C 0.55077 0.91118 0.10465 0.0
C111 C 0.52201 0.908 0.13029 0.0
N112 N 0.52996 0.92925 0.11646 0.0
O113 O 0.50982 0.85067 0.10878 0.0
H114 H 0.5635 0.90734 0.09402 0.0
H115 H 0.50621 0.9003 0.14344 0.0
O116 O 0.5069 0.86182 0.16334 0.0
C117 C 0.51802 0.84604 0.08678 0.0
O118 O 0.54084 0.85144 0.08621 0.0
N119 N 0.55785 0.88459 0.16482 0.0
C120 C 0.59243 0.91556 0.20301 0.0
C121 C 0.57209 0.89408 0.21202 0.0
C122 C 0.55533 0.87839 0.19243 0.0
C123 C 0.57947 0.90322 0.1556 0.0
C124 C 0.59691 0.91927 0.17438 0.0
H125 H 0.53926 0.86253 0.19994 0.0
H126 H 0.583 0.90634 0.13362 0.0
H127 H 0.50512 0.82326 0.18216 0.0
H128 H 0.5549 0.80284 0.15359 0.0
H129 H 0.5588 0.94585 0.08593 0.0
H130 H 0.56841 0.89025 0.23404 0.0
H131 H 0.61282 0.93531 0.16656 0.0
C132 C 0.698 0.54945 0.13054 0.0
C133 C 0.71679 0.54796 0.14287 0.0
N134 N 0.71073 0.54088 0.16956 0.0
N135 N 0.68014 0.5434 0.14932 0.0
C136 C 0.68827 0.53795 0.17281 0.0
H137 H 0.69784 0.55572 0.10964 0.0
Co138 Co 0.65345 0.5476 0.14358 0.0
C139 C 0.61828 0.51786 0.18781 0.0
O140 O 0.61204 0.53448 0.19208 0.0
N141 N 0.62631 0.55227 0.13703 0.0
C142 C 0.6043 0.56985 0.12755 0.0
C143 C 0.62726 0.57364 0.13187 0.0
C144 C 0.60231 0.53558 0.13441 0.0
N145 N 0.5884 0.54586 0.12925 0.0
O146 O 0.64258 0.52416 0.1138 0.0
H147 H 0.6435 0.59111 0.13049 0.0
H148 H 0.59525 0.51622 0.13627 0.0
O149 O 0.63456 0.52142 0.16979 0.0
C150 C 0.64294 0.53242 0.08952 0.0
O151 O 0.65022 0.55561 0.08652 0.0
N152 N 0.66569 0.57197 0.17134 0.0
C153 C 0.6768 0.61198 0.20449 0.0
C154 C 0.66851 0.5891 0.21662 0.0
C155 C 0.66348 0.56928 0.19962 0.0
C156 C 0.67841 0.59469 0.16029 0.0
C157 C 0.68357 0.61506 0.17635 0.0
H158 H 0.65675 0.55182 0.20932 0.0
H159 H 0.68234 0.59679 0.13819 0.0
H160 H 0.67865 0.53345 0.19244 0.0
H161 H 0.73396 0.55259 0.1332 0.0
H162 H 0.59985 0.58395 0.12374 0.0
H163 H 0.66385 0.58602 0.23853 0.0
H164 H 0.69091 0.63263 0.1664 0.0
C165 C 0.16827 0.69018 0.13037 0.0
C166 C 0.18834 0.70806 0.14416 0.0
N167 N 0.18596 0.70282 0.17163 0.0
N168 N 0.15332 0.67361 0.14897 0.0
C169 C 0.16461 0.68174 0.17387 0.0
H170 H 0.16446 0.68968 0.10833 0.0
Co171 Co 0.12238 0.64729 0.14178 0.0
C172 C 0.11526 0.61285 0.18819 0.0
O173 O 0.09211 0.60581 0.19135 0.0
N174 N 0.09047 0.62044 0.13428 0.0
C175 C 0.05071 0.60002 0.12525 0.0
C176 C 0.07087 0.62259 0.128 0.0
C177 C 0.08171 0.596 0.13364 0.0
N178 N 0.0574 0.58323 0.12898 0.0
O179 O 0.13597 0.63537 0.11443 0.0
H180 H 0.07088 0.63941 0.12521 0.0
H181 H 0.09271 0.58768 0.13761 0.0
O182 O 0.12801 0.62888 0.17009 0.0
C183 C 0.12929 0.6353 0.08938 0.0
O184 O 0.11317 0.64201 0.08426 0.0
N185 N 0.10951 0.66083 0.16668 0.0
C186 C 0.08011 0.6757 0.19259 0.0
C187 C 0.09081 0.66474 0.20812 0.0
C188 C 0.10596 0.65784 0.19478 0.0
C189 C 0.10321 0.67557 0.1528 0.0
C190 C 0.08807 0.68291 0.16521 0.0
H191 H 0.11385 0.64939 0.20703 0.0
H192 H 0.10788 0.67947 0.13099 0.0
H193 H 0.15708 0.67254 0.19336 0.0
H194 H 0.20302 0.72418 0.13473 0.0
H195 H 0.03243 0.59621 0.12075 0.0
H196 H 0.08594 0.6596 0.22968 0.0
H197 H 0.08104 0.69226 0.15279 0.0
C198 C 0.85989 0.55732 0.33549 0.0
C199 C 0.84326 0.56344 0.3259 0.0
N200 N 0.82389 0.54327 0.31571 0.0
N201 N 0.85137 0.53345 0.33107 0.0
C202 C 0.82887 0.52517 0.3203 0.0
H203 H 0.87789 0.56987 0.34324 0.0
Co204 Co 0.87128 0.51934 0.33404 0.0
C205 C 0.8391 0.48648 0.28386 0.0
O206 O 0.83092 0.49908 0.27067 0.0
N207 N 0.89181 0.50563 0.33709 0.0
C208 C 0.91249 0.4871 0.32543 0.0
C209 C 0.89494 0.49231 0.31722 0.0
C210 C 0.90847 0.50892 0.35692 0.0
N211 N 0.92116 0.49764 0.35029 0.0
O212 O 0.85036 0.49765 0.36187 0.0
H213 H 0.88639 0.48799 0.29699 0.0
H214 H 0.91193 0.5202 0.37522 0.0
O215 O 0.85293 0.49534 0.30516 0.0
C216 C 0.85511 0.50905 0.38492 0.0
O217 O 0.8722 0.53201 0.3857 0.0
N218 N 0.89298 0.54209 0.30879 0.0
C219 C 0.92754 0.58282 0.27992 0.0
C220 C 0.90523 0.56646 0.26742 0.0
C221 C 0.88812 0.54618 0.28229 0.0
C222 C 0.91442 0.55788 0.32127 0.0
C223 C 0.93206 0.57808 0.30714 0.0
H224 H 0.87074 0.53461 0.27293 0.0
H225 H 0.91759 0.55517 0.34275 0.0
H226 H 0.81686 0.5065 0.31442 0.0
H227 H 0.84595 0.58165 0.3249 0.0
H228 H 0.91967 0.47782 0.31306 0.0
H229 H 0.90074 0.56959 0.24664 0.0
H230 H 0.94909 0.58984 0.3176 0.0
C231 C 0.30422 0.84401 0.35429 0.0
C232 C 0.2844 0.82368 0.34327 0.0
N233 N 0.29207 0.81498 0.32229 0.0
N234 N 0.32439 0.84821 0.34039 0.0
C235 C 0.31644 0.82987 0.32154 0.0
H236 H 0.30371 0.85603 0.36994 0.0
Co237 Co 0.35471 0.87707 0.34184 0.0
C238 C 0.36831 0.86797 0.28309 0.0
O239 O 0.35978 0.87936 0.2682 0.0
N240 N 0.38586 0.90627 0.34208 0.0
C241 C 0.41661 0.94013 0.32442 0.0
C242 C 0.39461 0.92012 0.31894 0.0
C243 C 0.40356 0.91842 0.36149 0.0
N244 N 0.42236 0.93924 0.35115 0.0
O245 O 0.36674 0.8614 0.36566 0.0
H246 H 0.38528 0.91637 0.2992 0.0
H247 H 0.40254 0.91248 0.38282 0.0
O248 O 0.3663 0.86699 0.30962 0.0
C249 C 0.36213 0.865 0.39048 0.0
O250 O 0.3521 0.87853 0.39444 0.0
N251 N 0.34123 0.89298 0.32178 0.0
C252 C 0.32453 0.9224 0.29907 0.0
C253 C 0.31815 0.89979 0.28693 0.0
C254 C 0.32623 0.88502 0.29907 0.0
C255 C 0.34463 0.91314 0.33578 0.0
C256 C 0.33709 0.92839 0.32453 0.0
H257 H 0.32073 0.86747 0.28995 0.0
H258 H 0.35421 0.91801 0.35548 0.0
H259 H 0.32805 0.82822 0.30634 0.0
H260 H 0.26562 0.81702 0.3489 0.0
H261 H 0.42767 0.95431 0.30972 0.0
H262 H 0.30747 0.89378 0.26798 0.0
H263 H 0.34238 0.94537 0.33515 0.0
C264 C 0.45758 0.3084 0.35028 0.0
C265 C 0.45196 0.28576 0.34048 0.0
N266 N 0.47111 0.28786 0.32592 0.0
N267 N 0.4801 0.3249 0.3418 0.0
C268 C 0.48819 0.31162 0.32814 0.0
H269 H 0.44514 0.31291 0.36045 0.0
Co270 Co 0.49146 0.35851 0.33974 0.0
C271 C 0.5261 0.36215 0.28906 0.0
O272 O 0.51989 0.34187 0.2755 0.0
N273 N 0.50257 0.39239 0.33669 0.0
C274 C 0.51275 0.42727 0.31519 0.0
C275 C 0.50569 0.40326 0.31163 0.0
C276 C 0.50732 0.4104 0.35534 0.0
N277 N 0.51379 0.4319 0.34267 0.0
O278 O 0.5161 0.36459 0.36678 0.0
H279 H 0.50252 0.39415 0.29173 0.0
H280 H 0.50581 0.40787 0.37767 0.0
O281 O 0.51308 0.36206 0.30937 0.0
C282 C 0.50799 0.36537 0.39084 0.0
O283 O 0.48604 0.36243 0.39278 0.0
N284 N 0.46602 0.3521 0.31569 0.0
C285 C 0.42448 0.3434 0.28665 0.0
C286 C 0.44118 0.33757 0.27472 0.0
C287 C 0.46189 0.34193 0.28976 0.0
C288 C 0.44972 0.3572 0.32784 0.0
C289 C 0.42899 0.35322 0.31365 0.0
H290 H 0.47437 0.33696 0.28072 0.0
H291 H 0.45307 0.36468 0.34871 0.0
H292 H 0.50564 0.31943 0.31822 0.0
H293 H 0.43447 0.2694 0.34233 0.0
H294 H 0.51593 0.44013 0.2987 0.0
H295 H 0.43823 0.32965 0.25408 0.0
H296 H 0.41697 0.35845 0.32359 0.0
C297 C 0.14354 0.45116 0.364 0.0
C298 C 0.1609 0.44534 0.35636 0.0
N299 N 0.18023 0.46536 0.34588 0.0
N300 N 0.1516 0.47469 0.35813 0.0
C301 C 0.17451 0.48314 0.34865 0.0
H302 H 0.12527 0.43847 0.3708 0.0
Co303 Co 0.1307 0.48759 0.35543 0.0
C304 C 0.16671 0.52162 0.30792 0.0
O305 O 0.17825 0.51119 0.29713 0.0
N306 N 0.10905 0.50014 0.35245 0.0
C307 C 0.0878 0.51531 0.33242 0.0
C308 C 0.10578 0.50964 0.32874 0.0
C309 C 0.09178 0.49926 0.36997 0.0
N310 N 0.07887 0.50871 0.35828 0.0
O311 O 0.14853 0.51038 0.38423 0.0
H312 H 0.11472 0.51093 0.30916 0.0
H313 H 0.08801 0.49102 0.39039 0.0
O314 O 0.15105 0.51112 0.32726 0.0
C315 C 0.13909 0.5026 0.40806 0.0
O316 O 0.11944 0.48115 0.40988 0.0
N317 N 0.11235 0.46414 0.32873 0.0
C318 C 0.08103 0.42687 0.29316 0.0
C319 C 0.10541 0.44235 0.28574 0.0
C320 C 0.12085 0.46084 0.30395 0.0
C321 C 0.08913 0.44853 0.3369 0.0
C322 C 0.07308 0.42996 0.31933 0.0
H323 H 0.1396 0.47212 0.2983 0.0
H324 H 0.08295 0.45071 0.35714 0.0
H325 H 0.18626 0.50163 0.34223 0.0
H326 H 0.15857 0.42726 0.35651 0.0
H327 H 0.08063 0.52219 0.31661 0.0
H328 H 0.1125 0.44021 0.26606 0.0
H329 H 0.05442 0.41864 0.32596 0.0
C330 C 0.70982 0.15249 0.37045 0.0
C331 C 0.7286 0.17042 0.35557 0.0
N332 N 0.71932 0.17836 0.33562 0.0
N333 N 0.68853 0.14906 0.36043 0.0
C334 C 0.69489 0.16538 0.33932 0.0
H335 H 0.71156 0.14152 0.38649 0.0
Co336 Co 0.6591 0.12258 0.37301 0.0
C337 C 0.62726 0.11672 0.32442 0.0
O338 O 0.62237 0.09423 0.32042 0.0
N339 N 0.62989 0.09585 0.38733 0.0
C340 C 0.60717 0.06565 0.41668 0.0
C341 C 0.63015 0.08443 0.41093 0.0
C342 C 0.606 0.0843 0.38006 0.0
N343 N 0.5919 0.06545 0.39711 0.0
O344 O 0.65475 0.14331 0.39874 0.0
H345 H 0.64629 0.08931 0.4231 0.0
H346 H 0.59871 0.08948 0.36287 0.0
O347 O 0.64091 0.12928 0.34466 0.0
C348 C 0.66711 0.148 0.42112 0.0
O349 O 0.68209 0.13953 0.42398 0.0
N350 N 0.6644 0.10184 0.34894 0.0
C351 C 0.66598 0.06721 0.31477 0.0
C352 C 0.6703 0.0894 0.3037 0.0
C353 C 0.67012 0.10681 0.32132 0.0
C354 C 0.66377 0.0819 0.36048 0.0
C355 C 0.66413 0.0641 0.3437 0.0
H356 H 0.6724 0.12331 0.31214 0.0
H357 H 0.66217 0.07921 0.3827 0.0
H358 H 0.68192 0.16629 0.32546 0.0
H359 H 0.74766 0.17632 0.35841 0.0
H360 H 0.60211 0.05325 0.43409 0.0
H361 H 0.67242 0.09268 0.28145 0.0
H362 H 0.66139 0.04742 0.35312 0.0
C363 C 0.53821 0.69967 0.37214 0.0
C364 C 0.53765 0.71743 0.3563 0.0
N365 N 0.52105 0.70661 0.33594 0.0
N366 N 0.52179 0.6776 0.36219 0.0
C367 C 0.51164 0.68245 0.34 0.0
H368 H 0.55068 0.7028 0.38904 0.0
Co369 Co 0.51812 0.64805 0.37551 0.0
C370 C 0.48604 0.61058 0.33628 0.0
O371 O 0.50169 0.60279 0.33617 0.0
N372 N 0.51392 0.61763 0.38953 0.0
C373 C 0.49303 0.58002 0.40683 0.0
C374 C 0.49297 0.60124 0.40201 0.0
C375 C 0.5264 0.60538 0.38696 0.0
N376 N 0.51395 0.58241 0.39713 0.0
O377 O 0.49684 0.64744 0.40453 0.0
H378 H 0.47745 0.60358 0.40528 0.0
H379 H 0.54347 0.61229 0.37618 0.0
O380 O 0.49029 0.62941 0.35041 0.0
C381 C 0.50859 0.65867 0.42634 0.0
O382 O 0.53243 0.67001 0.42563 0.0
N383 N 0.54099 0.65079 0.34905 0.0
C384 C 0.58011 0.65951 0.31484 0.0
C385 C 0.55823 0.65612 0.30337 0.0
C386 C 0.53893 0.65191 0.32083 0.0
C387 C 0.56278 0.65655 0.36062 0.0
C388 C 0.58229 0.66013 0.34402 0.0
H389 H 0.52251 0.64984 0.31158 0.0
H390 H 0.56472 0.65753 0.38307 0.0
H391 H 0.49815 0.66863 0.32652 0.0
H392 H 0.54953 0.73683 0.35867 0.0
H393 H 0.47785 0.5634 0.4147 0.0
H394 H 0.55594 0.65679 0.2811 0.0
H395 H 0.59863 0.66274 0.35419 0.0
C396 C 0.56521 0.86819 0.85341 0.0
C397 C 0.57095 0.85107 0.84435 0.0
N398 N 0.55132 0.83283 0.8316 0.0
N399 N 0.54211 0.8611 0.84628 0.0
C400 C 0.53377 0.83889 0.83459 0.0
H401 H 0.57782 0.88579 0.86213 0.0
Co402 Co 0.52949 0.88241 0.84424 0.0
C403 C 0.50216 0.85111 0.79098 0.0
O404 O 0.51643 0.84385 0.78001 0.0
N405 N 0.51691 0.90429 0.84143 0.0
C406 C 0.50539 0.92796 0.81979 0.0
C407 C 0.50984 0.90911 0.81679 0.0
C408 C 0.51664 0.92094 0.85923 0.0
N409 N 0.50985 0.93566 0.84637 0.0
O410 O 0.50463 0.86256 0.87021 0.0
H411 H 0.50951 0.90072 0.79708 0.0
H412 H 0.52298 0.92347 0.88055 0.0
O413 O 0.5084 0.86424 0.81301 0.0
C414 C 0.51214 0.87166 0.89434 0.0
O415 O 0.53357 0.89133 0.89654 0.0
N416 N 0.55545 0.90316 0.82153 0.0
C417 C 0.59865 0.93821 0.79705 0.0
C418 C 0.58449 0.91537 0.7844 0.0
C419 C 0.56293 0.898 0.79711 0.0
C420 C 0.56947 0.92484 0.83456 0.0
C421 C 0.59079 0.94272 0.82254 0.0
H422 H 0.553 0.88034 0.78785 0.0
H423 H 0.56411 0.92824 0.8547 0.0
H424 H 0.51555 0.82805 0.82671 0.0
H425 H 0.58883 0.85297 0.84542 0.0
H426 H 0.50028 0.93614 0.80327 0.0
H427 H 0.5901 0.91082 0.76506 0.0
H428 H 0.60071 0.96008 0.83306 0.0
C429 C 0.7053 0.5251 0.85606 0.0
C430 C 0.72306 0.52378 0.84106 0.0
N431 N 0.71726 0.52184 0.81381 0.0
N432 N 0.68821 0.52403 0.83848 0.0
C433 C 0.69592 0.52174 0.81283 0.0
H434 H 0.70579 0.52813 0.87825 0.0
Co435 Co 0.66338 0.53085 0.84782 0.0
C436 C 0.62703 0.50767 0.80225 0.0
O437 O 0.62287 0.52597 0.80133 0.0
N438 N 0.63831 0.53785 0.85766 0.0
C439 C 0.61856 0.55739 0.86928 0.0
C440 C 0.64095 0.55971 0.86449 0.0
C441 C 0.61397 0.52232 0.85993 0.0
N442 N 0.6015 0.53389 0.86619 0.0
O443 O 0.65031 0.50531 0.87478 0.0
H444 H 0.65796 0.57649 0.86616 0.0
H445 H 0.60546 0.50299 0.85597 0.0
O446 O 0.64273 0.50799 0.81917 0.0
C447 C 0.65909 0.51432 0.8986 0.0
O448 O 0.67525 0.53756 0.90031 0.0
N449 N 0.67779 0.55773 0.8237 0.0
C450 C 0.69354 0.60304 0.80016 0.0
C451 C 0.68175 0.58187 0.78374 0.0
C452 C 0.67453 0.5593 0.79582 0.0
C453 C 0.69331 0.57813 0.8382 0.0
C454 C 0.70126 0.6011 0.82694 0.0
H455 H 0.6654 0.54335 0.78292 0.0
H456 H 0.69742 0.57655 0.85972 0.0
H457 H 0.68704 0.5218 0.79363 0.0
H458 H 0.73957 0.52528 0.84947 0.0
H459 H 0.61512 0.57196 0.87474 0.0
H460 H 0.6762 0.58234 0.76252 0.0
H461 H 0.7115 0.61698 0.83995 0.0
C462 C 0.17374 0.71682 0.85705 0.0
C463 C 0.19186 0.73399 0.84052 0.0
N464 N 0.19727 0.72241 0.82072 0.0
N465 N 0.16797 0.69441 0.84814 0.0
C466 C 0.1826 0.69844 0.82577 0.0
H467 H 0.16472 0.72041 0.87399 0.0
Co468 Co 0.1423 0.66565 0.86331 0.0
C469 C 0.13445 0.63488 0.81138 0.0
O470 O 0.11317 0.63202 0.80451 0.0
N471 N 0.1166 0.63684 0.87935 0.0
C472 C 0.09378 0.61174 0.91314 0.0
C473 C 0.11345 0.63414 0.9072 0.0
C474 C 0.09816 0.61581 0.86881 0.0
N475 N 0.08409 0.60017 0.88893 0.0
O476 O 0.16465 0.66016 0.8849 0.0
H477 H 0.12466 0.64782 0.92233 0.0
H478 H 0.09487 0.61178 0.84696 0.0
O479 O 0.14559 0.64691 0.83315 0.0
C480 C 0.1758 0.67367 0.90572 0.0
O481 O 0.17623 0.69444 0.90851 0.0
N482 N 0.11996 0.67147 0.84403 0.0
C483 C 0.08049 0.67035 0.81806 0.0
C484 C 0.10171 0.67666 0.80289 0.0
C485 C 0.1216 0.6776 0.81652 0.0
C486 C 0.10133 0.66985 0.85977 0.0
C487 C 0.08114 0.66885 0.84713 0.0
H488 H 0.13719 0.68077 0.80432 0.0
H489 H 0.10129 0.66756 0.88209 0.0
H490 H 0.18203 0.68419 0.81282 0.0
H491 H 0.1996 0.7535 0.84204 0.0
H492 H 0.08683 0.60475 0.9337 0.0
H493 H 0.10215 0.67843 0.78042 0.0
H494 H 0.06545 0.665 0.85971 0.0
C495 C 0.46679 0.17201 0.87014 0.0
C496 C 0.46986 0.19139 0.8543 0.0
N497 N 0.48597 0.19519 0.83395 0.0
N498 N 0.48114 0.16365 0.86027 0.0
C499 C 0.49266 0.17823 0.83814 0.0
H500 H 0.45374 0.16364 0.88677 0.0
Co501 Co 0.47971 0.13478 0.87303 0.0
C502 C 0.50699 0.12731 0.82674 0.0
O503 O 0.48932 0.10505 0.82179 0.0
N504 N 0.47805 0.10563 0.8868 0.0
C505 C 0.46526 0.07181 0.91194 0.0
C506 C 0.46269 0.0918 0.90714 0.0
C507 C 0.49092 0.09427 0.88106 0.0
N508 N 0.48293 0.07319 0.89522 0.0
O509 O 0.50403 0.15245 0.90078 0.0
H510 H 0.45021 0.09591 0.9179 0.0
H511 H 0.50649 0.10154 0.86754 0.0
O512 O 0.50516 0.13981 0.84653 0.0
C513 C 0.49599 0.15666 0.9232 0.0
O514 O 0.47303 0.15073 0.92438 0.0
N515 N 0.45435 0.11699 0.84724 0.0
C516 C 0.41748 0.08325 0.81315 0.0
C517 C 0.4379 0.10333 0.8015 0.0
C518 C 0.45583 0.12049 0.81904 0.0
C519 C 0.43279 0.10028 0.8587 0.0
C520 C 0.41418 0.08298 0.84207 0.0
H521 H 0.47177 0.13534 0.8097 0.0
H522 H 0.43024 0.09973 0.88093 0.0
H523 H 0.50488 0.17585 0.82451 0.0
H524 H 0.45975 0.20088 0.85647 0.0
H525 H 0.4545 0.05718 0.92625 0.0
H526 H 0.44104 0.10489 0.77923 0.0
H527 H 0.39796 0.06879 0.85194 0.0
C528 C 0.3046 0.44036 0.8519 0.0
C529 C 0.28698 0.44015 0.8351 0.0
N530 N 0.29723 0.46033 0.81927 0.0
N531 N 0.32605 0.46053 0.84678 0.0
C532 C 0.32087 0.47267 0.82711 0.0
H533 H 0.30232 0.4258 0.8655 0.0
Co534 Co 0.35574 0.46435 0.86021 0.0
C535 C 0.38524 0.49197 0.81054 0.0
O536 O 0.38858 0.47421 0.80188 0.0
N537 N 0.38543 0.46825 0.87467 0.0
C538 C 0.4102 0.46562 0.9057 0.0
C539 C 0.38699 0.46127 0.90079 0.0
C540 C 0.40828 0.47734 0.86437 0.0
N541 N 0.42363 0.47577 0.88274 0.0
O542 O 0.3585 0.48853 0.88648 0.0
H543 H 0.37197 0.45317 0.91529 0.0
H544 H 0.41383 0.48484 0.84384 0.0
O545 O 0.37342 0.48979 0.83291 0.0
C546 C 0.34387 0.48037 0.90701 0.0
O547 O 0.32741 0.4572 0.90751 0.0
N548 N 0.35197 0.43893 0.83601 0.0
C549 C 0.34544 0.39921 0.80386 0.0
C550 C 0.33954 0.41618 0.79313 0.0
C551 C 0.34291 0.43583 0.80949 0.0
C552 C 0.35557 0.42136 0.84755 0.0
C553 C 0.35311 0.40183 0.83173 0.0
H554 H 0.33898 0.44897 0.80031 0.0
H555 H 0.36051 0.42232 0.86919 0.0
H556 H 0.33449 0.4889 0.81673 0.0
H557 H 0.26833 0.42555 0.83346 0.0
H558 H 0.41673 0.46189 0.92485 0.0
H559 H 0.33271 0.41462 0.77212 0.0
H560 H 0.35787 0.38936 0.84131 0.0
C561 C 0.86209 0.31909 0.86062 0.0
C562 C 0.8457 0.29754 0.84805 0.0
N563 N 0.83029 0.30137 0.83246 0.0
N564 N 0.85773 0.33692 0.85253 0.0
C565 C 0.8372 0.325 0.8369 0.0
H566 H 0.87661 0.32139 0.87423 0.0
Co567 Co 0.8774 0.3712 0.85896 0.0
C568 C 0.85909 0.37128 0.80105 0.0
O569 O 0.86452 0.35514 0.79148 0.0
N570 N 0.89643 0.40529 0.86497 0.0
C571 C 0.90616 0.44416 0.86606 0.0
C572 C 0.8875 0.4206 0.86349 0.0
C573 C 0.92068 0.42012 0.86891 0.0
N574 N 0.92713 0.44396 0.86929 0.0
O575 O 0.85237 0.36967 0.88265 0.0
H576 H 0.86858 0.41499 0.86012 0.0
H577 H 0.93352 0.41366 0.87033 0.0
O578 O 0.86332 0.37813 0.82652 0.0
C579 C 0.85992 0.3727 0.90775 0.0
O580 O 0.88191 0.37649 0.91266 0.0
N581 N 0.90313 0.37243 0.83873 0.0
C582 C 0.94524 0.37482 0.81837 0.0
C583 C 0.93356 0.3849 0.80322 0.0
C584 C 0.91289 0.38424 0.81425 0.0
C585 C 0.9152 0.36389 0.85432 0.0
C586 C 0.93607 0.36452 0.8444 0.0
H587 H 0.90567 0.39426 0.80375 0.0
H588 H 0.90923 0.35764 0.8753 0.0
H589 H 0.82797 0.3337 0.8278 0.0
H590 H 0.8457 0.28055 0.8497 0.0
H591 H 0.90439 0.46025 0.86543 0.0
H592 H 0.94106 0.3943 0.78374 0.0
H593 H 0.94523 0.35752 0.85721 0.0
C594 C 0.16053 0.46028 0.65324 0.0
C595 C 0.17833 0.45548 0.66174 0.0
N596 N 0.19776 0.4764 0.67034 0.0
N597 N 0.16828 0.48412 0.65656 0.0
C598 C 0.19144 0.49363 0.66588 0.0
H599 H 0.14224 0.44684 0.64724 0.0
Co600 Co 0.14609 0.49585 0.65558 0.0
C601 C 0.18081 0.53328 0.70121 0.0
O602 O 0.19237 0.52351 0.71344 0.0
N603 N 0.12326 0.50704 0.65535 0.0
C604 C 0.1003 0.52117 0.67316 0.0
C605 C 0.11855 0.51623 0.67842 0.0
C606 C 0.10677 0.50588 0.63635 0.0
N607 N 0.09271 0.51466 0.64676 0.0
O608 O 0.16312 0.51696 0.62503 0.0
H609 H 0.12697 0.51815 0.69854 0.0
H610 H 0.10475 0.49826 0.61566 0.0
O611 O 0.16536 0.52185 0.68193 0.0
C612 C 0.16224 0.50607 0.60236 0.0
O613 O 0.15122 0.48223 0.60207 0.0
N614 N 0.1282 0.47402 0.68358 0.0
C615 C 0.09625 0.43834 0.71996 0.0
C616 C 0.11991 0.4553 0.72857 0.0
C617 C 0.13573 0.47299 0.7099 0.0
C618 C 0.10583 0.45691 0.67444 0.0
C619 C 0.08947 0.43908 0.69231 0.0
H620 H 0.1539 0.48555 0.71659 0.0
H621 H 0.10051 0.45744 0.65314 0.0
H622 H 0.20321 0.51268 0.67018 0.0
H623 H 0.1761 0.43751 0.66378 0.0
H624 H 0.0923 0.52786 0.68818 0.0
H625 H 0.12605 0.45505 0.74956 0.0
H626 H 0.07136 0.42664 0.68471 0.0
C627 C 0.70631 0.16027 0.65283 0.0
C628 C 0.72857 0.17787 0.66275 0.0
N629 N 0.72557 0.19449 0.67715 0.0
N630 N 0.68913 0.16547 0.66104 0.0
C631 C 0.70164 0.18707 0.67441 0.0
H632 H 0.70254 0.14348 0.64275 0.0
Co633 Co 0.65575 0.14221 0.66233 0.0
C634 C 0.65439 0.17085 0.71608 0.0
O635 O 0.67557 0.18056 0.72871 0.0
N636 N 0.62204 0.11852 0.66438 0.0
C637 C 0.58672 0.09334 0.68469 0.0
C638 C 0.61036 0.1109 0.68904 0.0
C639 C 0.60493 0.10451 0.64519 0.0
N640 N 0.58316 0.08919 0.65714 0.0
O641 O 0.64895 0.16105 0.63678 0.0
H642 H 0.61869 0.11713 0.70928 0.0
H643 H 0.60836 0.10522 0.62303 0.0
O644 O 0.65052 0.15828 0.6939 0.0
C645 C 0.65049 0.15362 0.61259 0.0
O646 O 0.65591 0.13624 0.61043 0.0
N647 N 0.66279 0.12266 0.68476 0.0
C648 C 0.67338 0.0896 0.71013 0.0
C649 C 0.68051 0.11226 0.72259 0.0
C650 C 0.6751 0.12865 0.70944 0.0
C651 C 0.65672 0.10128 0.67184 0.0
C652 C 0.66144 0.08437 0.68429 0.0
H653 H 0.68138 0.14622 0.71867 0.0
H654 H 0.64798 0.09728 0.65164 0.0
H655 H 0.69313 0.19642 0.6836 0.0
H656 H 0.74528 0.17734 0.66114 0.0
H657 H 0.57339 0.08356 0.70074 0.0
H658 H 0.69025 0.11734 0.74221 0.0
H659 H 0.65511 0.06708 0.67392 0.0
C660 C 0.56617 0.70015 0.66098 0.0
C661 C 0.57093 0.72255 0.67075 0.0
N662 N 0.5514 0.71973 0.68509 0.0
N663 N 0.5438 0.68309 0.66925 0.0
C664 C 0.53491 0.69579 0.68268 0.0
H665 H 0.57911 0.69624 0.65099 0.0
Co666 Co 0.53348 0.64965 0.67125 0.0
C667 C 0.501 0.64745 0.72309 0.0
O668 O 0.51106 0.66762 0.73783 0.0
N669 N 0.52332 0.61578 0.67432 0.0
C670 C 0.51516 0.58181 0.69675 0.0
C671 C 0.51905 0.60491 0.69953 0.0
C672 C 0.52203 0.59849 0.65635 0.0
N673 N 0.51721 0.57766 0.66967 0.0
O674 O 0.50815 0.64286 0.64511 0.0
H675 H 0.51998 0.61362 0.71923 0.0
H676 H 0.52592 0.60149 0.63431 0.0
O677 O 0.51183 0.64543 0.70173 0.0
C678 C 0.51487 0.6417 0.62043 0.0
O679 O 0.53658 0.64445 0.61658 0.0
N680 N 0.55953 0.65683 0.69469 0.0
C681 C 0.60225 0.66757 0.72249 0.0
C682 C 0.58573 0.67367 0.73432 0.0
C683 C 0.56445 0.66826 0.71992 0.0
C684 C 0.57571 0.65156 0.68251 0.0
C685 C 0.597 0.6565 0.69612 0.0
H686 H 0.55231 0.67369 0.72876 0.0
H687 H 0.57192 0.64331 0.66203 0.0
H688 H 0.51728 0.68745 0.69231 0.0
H689 H 0.58815 0.73925 0.66904 0.0
H690 H 0.51179 0.5692 0.71361 0.0
H691 H 0.58925 0.68261 0.75441 0.0
H692 H 0.6089 0.65108 0.68626 0.0
C693 C 0.86691 0.55922 0.63799 0.0
C694 C 0.84957 0.56294 0.65043 0.0
N695 N 0.83175 0.54153 0.66 0.0
N696 N 0.86074 0.53561 0.64026 0.0
C697 C 0.83833 0.52512 0.65222 0.0
H698 H 0.88313 0.57323 0.6282 0.0
Co699 Co 0.88094 0.52217 0.6298 0.0
C700 C 0.85595 0.49291 0.68042 0.0
O701 O 0.85984 0.51244 0.69426 0.0
N702 N 0.90066 0.50892 0.61908 0.0
C703 C 0.912 0.4818 0.60889 0.0
C704 C 0.89253 0.48538 0.61287 0.0
C705 C 0.92523 0.51935 0.61833 0.0
N706 N 0.93271 0.50317 0.61251 0.0
O707 O 0.85853 0.50407 0.6007 0.0
H708 H 0.87357 0.47144 0.61231 0.0
H709 H 0.93741 0.53836 0.62272 0.0
O710 O 0.86345 0.49478 0.6553 0.0
C711 C 0.8583 0.5167 0.58029 0.0
O712 O 0.87201 0.54045 0.58142 0.0
N713 N 0.90432 0.54109 0.65692 0.0
C714 C 0.94155 0.57251 0.69276 0.0
C715 C 0.92799 0.54747 0.69825 0.0
C716 C 0.91026 0.532 0.67946 0.0
C717 C 0.91853 0.56496 0.6501 0.0
C718 C 0.93698 0.58107 0.66785 0.0
H719 H 0.90192 0.51272 0.68286 0.0
H720 H 0.91632 0.57139 0.63012 0.0
H721 H 0.82746 0.50593 0.65661 0.0
H722 H 0.85044 0.5803 0.65304 0.0
H723 H 0.91082 0.46447 0.60492 0.0
H724 H 0.93104 0.53963 0.71673 0.0
H725 H 0.94796 0.59986 0.6616 0.0
C726 C 0.31097 0.85849 0.63942 0.0
C727 C 0.29126 0.83959 0.65237 0.0
N728 N 0.29879 0.82575 0.66525 0.0
N729 N 0.33124 0.85717 0.64456 0.0
C730 C 0.32269 0.83614 0.65917 0.0
H731 H 0.31023 0.87224 0.62701 0.0
Co732 Co 0.36397 0.87998 0.63318 0.0
C733 C 0.37357 0.86155 0.68616 0.0
O734 O 0.35769 0.86525 0.6997 0.0
N735 N 0.39614 0.90185 0.62156 0.0
C736 C 0.4347 0.9151 0.61009 0.0
C737 C 0.4124 0.89492 0.6147 0.0
C738 C 0.4091 0.92651 0.62069 0.0
N739 N 0.43278 0.93508 0.61409 0.0
O740 O 0.36215 0.85736 0.60533 0.0
H741 H 0.40859 0.87631 0.61435 0.0
H742 H 0.40153 0.93798 0.62583 0.0
O743 O 0.37718 0.86637 0.66011 0.0
C744 C 0.34911 0.85481 0.58405 0.0
O745 O 0.33583 0.86537 0.58389 0.0
N746 N 0.36588 0.90355 0.65883 0.0
C747 C 0.36793 0.94046 0.69237 0.0
C748 C 0.3838 0.93149 0.69697 0.0
C749 C 0.383 0.91359 0.67943 0.0
C750 C 0.3518 0.91358 0.6527 0.0
C751 C 0.35218 0.93175 0.66949 0.0
H752 H 0.39669 0.9084 0.68197 0.0
H753 H 0.34092 0.90826 0.63404 0.0
H754 H 0.33363 0.82833 0.66548 0.0
H755 H 0.27304 0.83687 0.65324 0.0
H756 H 0.45138 0.91499 0.60578 0.0
H757 H 0.39726 0.93883 0.71346 0.0
H758 H 0.34039 0.93899 0.6645 0.0
C759 C 0.46828 0.29648 0.63512 0.0
C760 C 0.47045 0.27924 0.65017 0.0
N761 N 0.48875 0.29067 0.66859 0.0
N762 N 0.4853 0.31887 0.6436 0.0
C763 C 0.4977 0.31471 0.66391 0.0
H764 H 0.45414 0.2929 0.62015 0.0
Co765 Co 0.48598 0.34772 0.63182 0.0
C766 C 0.50877 0.37481 0.68495 0.0
O767 O 0.48842 0.37255 0.69455 0.0
N768 N 0.4872 0.3768 0.61924 0.0
C769 C 0.48631 0.40329 0.5895 0.0
C770 C 0.48375 0.38054 0.59237 0.0
C771 C 0.49188 0.39772 0.6323 0.0
N772 N 0.49148 0.41421 0.61468 0.0
O773 O 0.51226 0.35473 0.60644 0.0
H774 H 0.47965 0.36749 0.57579 0.0
H775 H 0.49523 0.40086 0.65432 0.0
O776 O 0.50964 0.36642 0.661 0.0
C777 C 0.50644 0.34147 0.58459 0.0
O778 O 0.48434 0.32283 0.58264 0.0
N779 N 0.45827 0.33965 0.65467 0.0
C780 C 0.41674 0.32946 0.68559 0.0
C781 C 0.43312 0.32234 0.69523 0.0
C782 C 0.45371 0.32764 0.67958 0.0
C783 C 0.44088 0.34376 0.64347 0.0
C784 C 0.42055 0.33964 0.65882 0.0
H785 H 0.46659 0.32328 0.68857 0.0
H786 H 0.44273 0.35075 0.6226 0.0
H787 H 0.51191 0.32892 0.67636 0.0
H788 H 0.45827 0.2598 0.6491 0.0
H789 H 0.48489 0.41126 0.57019 0.0
H790 H 0.43064 0.31339 0.71511 0.0
H791 H 0.40855 0.3453 0.64985 0.0
H792 H 0.51987 0.06125 0.11506 0.0
H793 H 0.50188 0.93133 0.15838 0.0
H794 H 0.478 0.01889 0.18531 0.0
H795 H 0.54029 0.9687 0.08369 0.0
H796 H 0.49124 0.96255 0.16623 0.0
H797 H 0.52569 0.0271 0.1007 0.0
C798 C 0.51164 0.04468 0.12718 0.0
C799 C 0.49874 0.04305 0.15163 0.0
C800 C 0.50189 0.96392 0.14799 0.0
C801 C 0.50541 0.00411 0.13561 0.0
C802 C 0.50791 0.94584 0.14333 0.0
C803 C 0.52215 0.94706 0.12026 0.0
C804 C 0.51022 0.98374 0.12967 0.0
C805 C 0.52957 0.96691 0.10196 0.0
C806 C 0.51506 0.02526 0.11913 0.0
C807 C 0.48851 0.02118 0.16666 0.0
N808 N 0.52367 0.98449 0.10715 0.0
N809 N 0.49219 1.00277 0.15856 0.0
H810 H 0.5544 0.50024 0.1464 0.0
H811 H 0.44205 0.52183 0.12045 0.0
H812 H 0.56171 0.56494 0.10768 0.0
H813 H 0.43345 0.45076 0.13329 0.0
H814 H 0.48634 0.53909 0.12021 0.0
H815 H 0.51023 0.48249 0.14535 0.0
C816 C 0.54689 0.51071 0.13749 0.0
C817 C 0.56215 0.53432 0.12732 0.0
C818 C 0.47473 0.51969 0.12298 0.0
C819 C 0.51136 0.51416 0.12662 0.0
C820 C 0.44948 0.50989 0.12326 0.0
C821 C 0.43401 0.48481 0.12666 0.0
C822 C 0.48461 0.50436 0.12658 0.0
C823 C 0.44465 0.47014 0.13013 0.0
C824 C 0.52159 0.50057 0.13705 0.0
C825 C 0.55102 0.54695 0.11633 0.0
N826 N 0.46922 0.48012 0.13013 0.0
N827 N 0.52644 0.53681 0.11646 0.0
H828 H 0.06331 0.54747 0.10525 0.0
H829 H 0.93184 0.44129 0.15451 0.0
H830 H 0.01376 0.55997 0.15425 0.0
H831 H 0.9684 0.4339 0.08262 0.0
H832 H 0.96548 0.48295 0.16091 0.0
H833 H 0.03246 0.50383 0.10294 0.0
C834 C 0.04611 0.54094 0.11584 0.0
C835 C 0.04097 0.5573 0.1298 0.0
C836 C 0.9662 0.47217 0.1438 0.0
C837 C 1.00578 0.50768 0.12743 0.0
C838 C 0.94704 0.44834 0.14023 0.0
C839 C 0.94716 0.43409 0.11787 0.0
C840 C 0.9859 0.48184 0.12514 0.0
C841 C 0.96736 0.44433 0.09989 0.0
C842 C 0.02847 0.51615 0.11437 0.0
C843 C 0.01832 0.54798 0.14303 0.0
N844 N 0.9859 0.46752 0.10391 0.0
N845 N 1.00164 0.52389 0.14155 0.0
H846 H 0.03898 0.47096 0.38154 0.0
H847 H 0.96137 0.53888 0.36711 0.0
H848 H 0.06931 0.5455 0.35616 0.0
H849 H 0.93046 0.46139 0.36059 0.0
H850 H 1.00112 0.54276 0.37768 0.0
H851 H 0.99938 0.46857 0.38837 0.0
C852 C 0.03744 0.487 0.37828 0.0
C853 C 0.05733 0.50845 0.36828 0.0
C854 C 0.9855 0.52485 0.37458 0.0
C855 C 0.0123 0.5059 0.3758 0.0
C856 C 0.96283 0.52265 0.36886 0.0
C857 C 0.94271 0.49979 0.36304 0.0
C858 C 0.98794 0.50399 0.37476 0.0
C859 C 0.94561 0.47931 0.36498 0.0
C860 C 0.01485 0.48561 0.3819 0.0
C861 C 0.05433 0.52865 0.36384 0.0
N862 N 0.9678 0.48188 0.37048 0.0
N863 N 0.03224 0.52687 0.36745 0.0
H864 H 0.45183 0.93258 0.38713 0.0
H865 H 0.55727 0.07193 0.37143 0.0
H866 H 0.44359 0.9877 0.34458 0.0
H867 H 0.56748 0.01871 0.41593 0.0
H868 H 0.51463 0.04156 0.3645 0.0
H869 H 0.4929 0.96406 0.40197 0.0
C870 C 0.45847 0.95135 0.38144 0.0
C871 C 0.44441 0.95753 0.36443 0.0
C872 C 0.52613 0.0365 0.37594 0.0
C873 C 0.4913 0.9935 0.38082 0.0
C874 C 0.55061 0.05388 0.37976 0.0
C875 C 0.56621 0.04798 0.39417 0.0
C876 C 0.51696 0.01282 0.38642 0.0
C877 C 0.55621 0.02425 0.40489 0.0
C878 C 0.48195 0.96928 0.38966 0.0
C879 C 0.45396 0.9821 0.35737 0.0
N880 N 0.53233 0.00754 0.40064 0.0
N881 N 0.47675 0.99905 0.36537 0.0
H882 H 0.54383 0.47688 0.32231 0.0
H883 H 0.49801 0.54225 0.42948 0.0
H884 H 0.49507 0.43952 0.39039 0.0
H885 H 0.54095 0.57693 0.35644 0.0
H886 H 0.50135 0.50626 0.41947 0.0
H887 H 0.54764 0.51508 0.33857 0.0
C888 C 0.53401 0.47674 0.34083 0.0
C889 C 0.5188 0.45484 0.35475 0.0
C890 C 0.51025 0.52182 0.40578 0.0
C891 C 0.52314 0.49877 0.37362 0.0
C892 C 0.50832 0.54241 0.41145 0.0
C893 C 0.51898 0.56267 0.39363 0.0
C894 C 0.52296 0.52134 0.38207 0.0
C895 C 0.53251 0.5619 0.37087 0.0
C896 C 0.53625 0.49861 0.35015 0.0
C897 C 0.50698 0.45591 0.37901 0.0
N898 N 0.5339 0.54153 0.36562 0.0
N899 N 0.50918 0.47745 0.38749 0.0
H900 H 0.47514 0.03584 0.93018 0.0
H901 H 0.52643 0.97811 0.81913 0.0
H902 H 0.50685 0.06799 0.85082 0.0
H903 H 0.49401 0.9427 0.89668 0.0
H904 H 0.52242 0.01281 0.83313 0.0
H905 H 0.48432 1.00331 0.92081 0.0
C906 C 0.4841 0.03623 0.91085 0.0
C907 C 0.49008 0.0549 0.89126 0.0
C908 C 0.51625 0.9976 0.84729 0.0
C909 C 0.50082 0.01753 0.88053 0.0
C910 C 0.51853 0.97772 0.83926 0.0
C911 C 0.51027 0.95732 0.85662 0.0
C912 C 0.50542 0.99728 0.87293 0.0
C913 C 0.5006 0.95806 0.88271 0.0
C914 C 0.48942 0.01762 0.90559 0.0
C915 C 0.50202 0.05436 0.86679 0.0
N916 N 0.49818 0.9776 0.88997 0.0
N917 N 0.50682 0.03602 0.86214 0.0
H918 H 0.45653 0.51283 0.85048 0.0
H919 H 0.56689 0.48906 0.88413 0.0
H920 H 0.44907 0.45618 0.90597 0.0
H921 H 0.57653 0.55624 0.85066 0.0
H922 H 0.52285 0.47373 0.88721 0.0
H923 H 0.49972 0.52602 0.8451 0.0
C924 C 0.46391 0.50304 0.86138 0.0
C925 C 0.44908 0.48341 0.87881 0.0
C926 C 0.53465 0.49183 0.87919 0.0
C927 C 0.4987 0.49844 0.87273 0.0
C928 C 0.55974 0.5005 0.87729 0.0
C929 C 0.57546 0.52404 0.86736 0.0
C930 C 0.52518 0.50665 0.87062 0.0
C931 C 0.56519 0.53815 0.85888 0.0
C932 C 0.48864 0.51067 0.85844 0.0
C933 C 0.45983 0.47158 0.89262 0.0
N934 N 0.5408 0.52925 0.86062 0.0
N935 N 0.48391 0.47922 0.88924 0.0
H936 H 0.96679 0.44779 0.89607 0.0
H937 H 0.06823 0.56166 0.92396 0.0
H938 H 0.94284 0.48851 0.84656 0.0
H939 H 0.05105 0.58411 0.84656 0.0
H940 H 0.03124 0.52221 0.91946 0.0
H941 H 0.00679 0.48444 0.90064 0.0
C942 C 0.96993 0.46442 0.88618 0.0
C943 C 0.95123 0.46508 0.87129 0.0
C944 C 0.03571 0.5355 0.90313 0.0
C945 C 0.99694 0.50741 0.87682 0.0
C946 C 0.05674 0.55823 0.90589 0.0
C947 C 0.06285 0.57631 0.8856 0.0
C948 C 0.02041 0.53071 0.87994 0.0
C949 C 0.04727 0.57069 0.86255 0.0
C950 C 0.99271 0.48548 0.88907 0.0
C951 C 0.95645 0.48721 0.85879 0.0
N952 N 0.02669 0.54854 0.86052 0.0
N953 N 0.97873 0.50738 0.86179 0.0
H954 H 0.97307 0.54073 0.63663 0.0
H955 H 0.05713 0.48082 0.61306 0.0
H956 H 0.94914 0.47437 0.58997 0.0
H957 H 0.08066 0.54944 0.65403 0.0
H958 H 0.01862 0.47922 0.60083 0.0
H959 H 0.01339 0.54527 0.64009 0.0
C960 C 0.97622 0.5272 0.6268 0.0
C961 C 0.9573 0.50702 0.6131 0.0
C962 C 0.03236 0.49478 0.6122 0.0
C963 C 1.00391 0.512 0.61742 0.0
C964 C 0.05442 0.49577 0.61892 0.0
C965 C 0.07207 0.51521 0.63475 0.0
C966 C 0.02798 0.51337 0.62136 0.0
C967 C 0.06744 0.53397 0.64212 0.0
C968 C 0.99937 0.52976 0.62893 0.0
C969 C 0.96283 0.49003 0.60116 0.0
N970 N 0.04591 0.53249 0.63561 0.0
N971 N 0.98548 0.49281 0.60375 0.0
H972 H 0.57798 0.05961 0.61321 0.0
H973 H 0.43579 0.97285 0.64449 0.0
H974 H 0.5374 0.0756 0.67324 0.0
H975 H 0.47601 0.95416 0.58675 0.0
H976 H 0.47167 0.01301 0.65039 0.0
H977 H 0.53992 0.02357 0.59828 0.0
C978 C 0.56102 0.05581 0.62282 0.0
C979 C 0.56088 0.07047 0.64468 0.0
C980 C 0.47262 1.00021 0.63622 0.0
C981 C 0.51735 0.0292 0.62805 0.0
C982 C 0.452 0.97726 0.63269 0.0
C983 C 0.45282 0.95987 0.61528 0.0
C984 C 0.49435 0.00596 0.62229 0.0
C985 C 0.47459 0.96674 0.6008 0.0
C986 C 0.53932 0.03515 0.61449 0.0
C987 C 0.53838 0.06457 0.65661 0.0
N988 N 0.49448 0.9891 0.60478 0.0
N989 N 0.51765 0.04439 0.64834 0.0
H990 H 0.4771 0.44166 0.58509 0.0
H991 H 0.53515 0.55187 0.69465 0.0
H992 H 0.51641 0.44289 0.65904 0.0
H993 H 0.49762 0.55365 0.62067 0.0
H994 H 0.52977 0.5127 0.68021 0.0
H995 H 0.48532 0.48273 0.59619 0.0
C996 C 0.48756 0.45051 0.60358 0.0
C997 C 0.496 0.4385 0.62114 0.0
C998 C 0.52275 0.52157 0.66695 0.0
C999 C 0.50537 0.48582 0.63407 0.0
C1000 C 0.5258 0.544 0.67522 0.0
C1001 C 0.51659 0.556 0.659 0.0
C1002 C 0.51021 0.51066 0.64219 0.0
C1003 C 0.50505 0.54507 0.63376 0.0
C1004 C 0.49218 0.47402 0.60994 0.0
C1005 C 0.50918 0.45104 0.64501 0.0
N1006 N 0.50197 0.5229 0.62624 0.0
N1007 N 0.51341 0.47386 0.65071 0.0
H1008 H 0.51035 0.28673 0.30422 0.0
H1009 H 0.42871 0.17701 0.19971 0.0
H1010 H 0.43198 0.24944 0.30136 0.0
H1011 H 0.507 0.21184 0.20229 0.0
H1012 H 0.43014 0.20437 0.23604 0.0
H1013 H 0.50993 0.25992 0.26713 0.0
C1014 C 0.49304 0.27289 0.29598 0.0
C1015 C 0.47117 0.27051 0.30617 0.0
C1016 C 0.44706 0.20613 0.22863 0.0
C1017 C 0.4706 0.23967 0.26343 0.0
C1018 C 0.4463 0.19058 0.2075 0.0
C1019 C 0.46779 0.19191 0.19757 0.0
C1020 C 0.46945 0.22335 0.24022 0.0
C1021 C 0.48991 0.20983 0.20929 0.0
C1022 C 0.49284 0.25756 0.27476 0.0
C1023 C 0.44934 0.25195 0.29469 0.0
N1024 N 0.49015 0.22475 0.22997 0.0
N1025 N 0.44965 0.23743 0.27397 0.0
H1026 H 0.30411 0.50474 0.23561 0.0
H1027 H 0.17752 0.42786 0.31548 0.0
H1028 H 0.24221 0.44037 0.20288 0.0
H1029 H 0.22476 0.5041 0.33303 0.0
H1030 H 0.20578 0.42994 0.28007 0.0
H1031 H 0.27951 0.50285 0.2765 0.0
C1032 C 0.28543 0.4902 0.23712 0.0
C1033 C 0.27508 0.47283 0.21571 0.0
C1034 C 0.21013 0.44621 0.29181 0.0
C1035 C 0.24713 0.47032 0.26232 0.0
C1036 C 0.19406 0.44499 0.31241 0.0
C1037 C 0.19862 0.46586 0.32752 0.0
C1038 C 0.23116 0.4684 0.2861 0.0
C1039 C 0.22035 0.4876 0.32183 0.0
C1040 C 0.27142 0.48917 0.26032 0.0
C1041 C 0.2508 0.45434 0.21863 0.0
N1042 N 0.23579 0.48834 0.30153 0.0
N1043 N 0.23776 0.45353 0.24145 0.0
H1044 H 0.82219 0.24407 0.20341 0.0
H1045 H 0.71007 0.2098 0.30615 0.0
H1046 H 0.78626 0.28647 0.2048 0.0
H1047 H 0.75949 0.18194 0.31168 0.0
H1048 H 0.73472 0.23634 0.2674 0.0
H1049 H 0.7966 0.21956 0.2414 0.0
C1050 C 0.80875 0.24816 0.21164 0.0
C1051 C 0.80624 0.26724 0.20062 0.0
C1052 C 0.74013 0.22445 0.27729 0.0
C1053 C 0.77661 0.23904 0.24486 0.0
C1054 C 0.72602 0.20925 0.29925 0.0
C1055 C 0.73286 0.19381 0.31248 0.0
C1056 C 0.76094 0.22386 0.26832 0.0
C1057 C 0.75371 0.19383 0.30268 0.0
C1058 C 0.79416 0.23419 0.23357 0.0
C1059 C 0.78881 0.27195 0.21272 0.0
N1060 N 0.76683 0.20847 0.28134 0.0
N1061 N 0.7745 0.25783 0.23412 0.0
H1062 H 0.52367 0.76201 0.17201 0.0
H1063 H 0.52247 0.74995 0.33722 0.0
H1064 H 0.515 0.81078 0.22718 0.0
H1065 H 0.5106 0.69137 0.28204 0.0
H1066 H 0.51961 0.77243 0.29734 0.0
H1067 H 0.51859 0.73569 0.21176 0.0
C1068 C 0.52042 0.76701 0.19248 0.0
C1069 C 0.51978 0.78862 0.19627 0.0
C1070 C 0.51736 0.75455 0.29394 0.0
C1071 C 0.51429 0.75876 0.24205 0.0
C1072 C 0.51909 0.74176 0.3167 0.0
C1073 C 0.51685 0.71878 0.31297 0.0
C1074 C 0.51376 0.74453 0.26704 0.0
C1075 C 0.51226 0.70893 0.28592 0.0
C1076 C 0.51748 0.75198 0.21517 0.0
C1077 C 0.5154 0.7942 0.22325 0.0
N1078 N 0.51117 0.72197 0.26397 0.0
N1079 N 0.51315 0.77955 0.24514 0.0
H1080 H 0.75951 0.5698 0.17333 0.0
H1081 H 0.77786 0.50574 0.30662 0.0
H1082 H 0.69803 0.51148 0.21517 0.0
H1083 H 0.82866 0.57899 0.28095 0.0
H1084 H 0.74891 0.50434 0.27136 0.0
H1085 H 0.78603 0.56994 0.21015 0.0
C1086 C 0.7516 0.55683 0.19015 0.0
C1087 C 0.72649 0.54051 0.19105 0.0
C1088 C 0.76633 0.52075 0.27375 0.0
C1089 C 0.75689 0.54068 0.23364 0.0
C1090 C 0.78284 0.52155 0.29379 0.0
C1091 C 0.80569 0.54258 0.29699 0.0
C1092 C 0.77296 0.54094 0.25642 0.0
C1093 C 0.81119 0.56254 0.27973 0.0
C1094 C 0.76674 0.55707 0.21135 0.0
C1095 C 0.71726 0.52442 0.21374 0.0
N1096 N 0.7951 0.56113 0.26014 0.0
N1097 N 0.73248 0.52478 0.23408 0.0
H1098 H 0.24561 0.77754 0.32841 0.0
H1099 H 0.23409 0.73638 0.16812 0.0
H1100 H 0.30388 0.81098 0.26854 0.0
H1101 H 0.17461 0.70339 0.2265 0.0
H1102 H 0.26029 0.76253 0.20541 0.0
H1103 H 0.2198 0.74895 0.29227 0.0
C1104 C 0.25306 0.77887 0.30778 0.0
C1105 C 0.2771 0.79682 0.30174 0.0
C1106 C 0.24153 0.74952 0.21013 0.0
C1107 C 0.24754 0.76398 0.26011 0.0
C1108 C 0.22647 0.73461 0.18873 0.0
C1109 C 0.20195 0.71761 0.19395 0.0
C1110 C 0.23213 0.7476 0.23713 0.0
C1111 C 0.19337 0.71598 0.22138 0.0
C1112 C 0.2383 0.76247 0.28713 0.0
C1113 C 0.28571 0.79738 0.27455 0.0
N1114 N 0.20837 0.73083 0.24183 0.0
N1115 N 0.27096 0.78134 0.25484 0.0
H1116 H 0.59034 0.83129 0.8096 0.0
H1117 H 0.51128 0.71902 0.70712 0.0
H1118 H 0.51184 0.79316 0.80847 0.0
H1119 H 0.58969 0.75927 0.70933 0.0
H1120 H 0.51062 0.74546 0.74401 0.0
H1121 H 0.58982 0.80404 0.77386 0.0
C1122 C 0.57289 0.81708 0.80227 0.0
C1123 C 0.55107 0.81488 0.81244 0.0
C1124 C 0.52795 0.74853 0.73629 0.0
C1125 C 0.55048 0.78342 0.77036 0.0
C1126 C 0.52836 0.73341 0.71516 0.0
C1127 C 0.55058 0.73673 0.70481 0.0
C1128 C 0.54991 0.76717 0.74735 0.0
C1129 C 0.57207 0.75598 0.71609 0.0
C1130 C 0.57266 0.80154 0.78145 0.0
C1131 C 0.52919 0.79598 0.8013 0.0
N1132 N 0.57116 0.77028 0.73669 0.0
N1133 N 0.52946 0.7811 0.78088 0.0
H1134 H 0.78674 0.50168 0.6673 0.0
H1135 H 0.76602 0.5505 0.81162 0.0
H1136 H 0.83495 0.57352 0.69944 0.0
H1137 H 0.70446 0.49887 0.76337 0.0
H1138 H 0.79276 0.55478 0.77287 0.0
H1139 H 0.75718 0.49614 0.7041 0.0
C1140 C 0.79103 0.5163 0.68191 0.0
C1141 C 0.81329 0.53819 0.68007 0.0
C1142 C 0.77341 0.54248 0.77068 0.0
C1143 C 0.77994 0.53181 0.72235 0.0
C1144 C 0.75815 0.5399 0.7929 0.0
C1145 C 0.73298 0.52421 0.79078 0.0
C1146 C 0.76363 0.52901 0.74612 0.0
C1147 C 0.72377 0.5112 0.76577 0.0
C1148 C 0.77417 0.51316 0.70279 0.0
C1149 C 0.81793 0.55652 0.69963 0.0
N1150 N 0.73912 0.51371 0.74443 0.0
N1151 N 0.80158 0.55283 0.71999 0.0
H1152 H 0.31604 0.81784 0.71342 0.0
H1153 H 0.18826 0.70932 0.76625 0.0
H1154 H 0.25078 0.79169 0.66444 0.0
H1155 H 0.24219 0.76183 0.82187 0.0
H1156 H 0.21394 0.73213 0.72628 0.0
H1157 H 0.29208 0.78986 0.75085 0.0
C1158 C 0.29675 0.80586 0.7103 0.0
C1159 C 0.28538 0.80713 0.68576 0.0
C1160 C 0.22023 0.73845 0.74727 0.0
C1161 C 0.25786 0.77503 0.72854 0.0
C1162 C 0.20571 0.72538 0.77 0.0
C1163 C 0.2132 0.73377 0.79731 0.0
C1164 C 0.2426 0.75971 0.75199 0.0
C1165 C 0.23581 0.75487 0.80111 0.0
C1166 C 0.28307 0.79005 0.73176 0.0
C1167 C 0.26021 0.79138 0.68307 0.0
N1168 N 0.24974 0.76706 0.77875 0.0
N1169 N 0.24728 0.77595 0.70418 0.0
H1170 H 0.48966 0.2396 0.83402 0.0
H1171 H 0.48691 0.24712 0.66829 0.0
H1172 H 0.49419 0.18767 0.78006 0.0
H1173 H 0.5012 0.30742 0.7218 0.0
H1174 H 0.49005 0.22528 0.7087 0.0
H1175 H 0.49432 0.26489 0.79339 0.0
C1176 C 0.49184 0.23362 0.81362 0.0
C1177 C 0.49147 0.21143 0.81049 0.0
C1178 C 0.49281 0.24341 0.71161 0.0
C1179 C 0.49659 0.24024 0.76365 0.0
C1180 C 0.49098 0.25586 0.68853 0.0
C1181 C 0.49379 0.27914 0.69162 0.0
C1182 C 0.49709 0.25408 0.73822 0.0
C1183 C 0.49914 0.28964 0.71836 0.0
C1184 C 0.49458 0.2481 0.79042 0.0
C1185 C 0.49457 0.20469 0.78353 0.0
N1186 N 0.5003 0.27693 0.74064 0.0
N1187 N 0.49669 0.21886 0.76116 0.0
H1188 H 0.22702 0.5125 0.70714 0.0
H1189 H 0.2677 0.42704 0.78165 0.0
H1190 H 0.21441 0.44432 0.67263 0.0
H1191 H 0.30175 0.50323 0.80172 0.0
H1192 H 0.24734 0.43346 0.7422 0.0
H1193 H 0.25453 0.51063 0.74147 0.0
C1194 C 0.23014 0.49728 0.7064 0.0
C1195 C 0.21761 0.47817 0.6872 0.0
C1196 C 0.25935 0.44888 0.75504 0.0
C1197 C 0.24909 0.47588 0.72691 0.0
C1198 C 0.27083 0.44517 0.77773 0.0
C1199 C 0.28621 0.46459 0.79518 0.0
C1200 C 0.26285 0.47218 0.7498 0.0
C1201 C 0.28998 0.4878 0.78878 0.0
C1202 C 0.2459 0.49623 0.72617 0.0
C1203 C 0.22288 0.45912 0.68742 0.0
N1204 N 0.27812 0.49093 0.7668 0.0
N1205 N 0.23784 0.4583 0.70714 0.0
H1206 H 0.76534 0.19568 0.70072 0.0
H1207 H 0.79254 0.30358 0.80773 0.0
H1208 H 0.72383 0.23271 0.70147 0.0
H1209 H 0.83033 0.26284 0.80726 0.0
H1210 H 0.76761 0.27879 0.76861 0.0
H1211 H 0.7902 0.22166 0.73842 0.0
C1212 C 0.76154 0.20946 0.70838 0.0
C1213 C 0.7422 0.21177 0.69753 0.0
C1214 C 0.78131 0.27525 0.77721 0.0
C1215 C 0.77075 0.24164 0.74182 0.0
C1216 C 0.79561 0.28943 0.7996 0.0
C1217 C 0.81372 0.28544 0.81112 0.0
C1218 C 0.78513 0.25693 0.76604 0.0
C1219 C 0.81652 0.26657 0.79962 0.0
C1220 C 0.77572 0.22423 0.73031 0.0
C1221 C 0.73827 0.22993 0.70915 0.0
N1222 N 0.80252 0.2532 0.77779 0.0
N1223 N 0.75232 0.24407 0.73065 0.0
H1224 H 0.36738 0.03665 0.18339 0.0
H1225 H 0.31614 0.95797 0.32077 0.0
H1226 H 0.39911 0.05986 0.26528 0.0
H1227 H 0.32645 0.93037 0.24259 0.0
H1228 H 0.32774 0.99664 0.29794 0.0
H1229 H 0.33434 0.99979 0.20407 0.0
C1230 C 0.36725 0.03431 0.20575 0.0
C1231 C 0.38676 0.05094 0.22244 0.0
C1232 C 0.32657 0.98172 0.28572 0.0
C1233 C 0.34831 0.00947 0.24613 0.0
C1234 C 0.32019 0.9597 0.29869 0.0
C1235 C 0.3216 0.94124 0.28396 0.0
C1236 C 0.33358 0.98492 0.2577 0.0
C1237 C 0.32561 0.94414 0.25507 0.0
C1238 C 0.3482 0.01341 0.21747 0.0
C1239 C 0.3848 0.04747 0.25144 0.0
N1240 N 0.332 0.96583 0.24298 0.0
N1241 N 0.36614 0.02686 0.26233 0.0
H1242 H 0.34601 0.37855 0.16971 0.0
H1243 H 0.37851 0.3292 0.30588 0.0
H1244 H 0.31907 0.38022 0.25185 0.0
H1245 H 0.42215 0.35251 0.23115 0.0
H1246 H 0.34745 0.33455 0.28213 0.0
H1247 H 0.36371 0.35513 0.18814 0.0
C1248 C 0.3431 0.37333 0.19146 0.0
C1249 C 0.33128 0.38167 0.20937 0.0
C1250 C 0.36364 0.33803 0.27083 0.0
C1251 C 0.352 0.35523 0.23061 0.0
C1252 C 0.38145 0.33512 0.28436 0.0
C1253 C 0.40334 0.3411 0.27075 0.0
C1254 C 0.36762 0.34674 0.24341 0.0
C1255 C 0.4057 0.34783 0.24257 0.0
C1256 C 0.35346 0.36015 0.20199 0.0
C1257 C 0.32842 0.37456 0.23744 0.0
N1258 N 0.38822 0.35083 0.22996 0.0
N1259 N 0.33904 0.36203 0.24731 0.0
H1260 H 0.07872 0.43173 0.23674 0.0
H1261 H 0.94416 0.31979 0.2259 0.0
H1262 H 0.04305 0.38088 0.30382 0.0
H1263 H 0.98038 0.37437 0.16234 0.0
H1264 H 0.9827 0.33659 0.25122 0.0
H1265 H 0.04595 0.40508 0.20558 0.0
C1266 C 0.06427 0.41472 0.24484 0.0
C1267 C 0.06344 0.40881 0.27314 0.0
C1268 C 0.98221 0.34453 0.23145 0.0
C1269 C 0.02536 0.37844 0.23761 0.0
C1270 C 0.96018 0.33505 0.21705 0.0
C1271 C 0.95881 0.34582 0.19206 0.0
C1272 C 1.00295 0.36494 0.22079 0.0
C1273 C 0.98037 0.36522 0.18134 0.0
C1274 C 0.04539 0.39955 0.22704 0.0
C1275 C 0.04407 0.38653 0.28236 0.0
N1276 N 1.0014 0.37428 0.19591 0.0
N1277 N 0.02558 0.37233 0.26475 0.0
H1278 H 0.64206 0.94402 0.20965 0.0
H1279 H 0.6322 0.05079 0.27398 0.0
H1280 H 0.57359 0.93387 0.23977 0.0
H1281 H 0.68367 0.03538 0.31452 0.0
H1282 H 0.61633 0.01271 0.24797 0.0
H1283 H 0.66327 0.98184 0.23742 0.0
C1284 C 0.6316 0.94953 0.22249 0.0
C1285 C 0.6061 0.93582 0.2227 0.0
C1286 C 0.63134 0.01791 0.26228 0.0
C1287 C 0.62992 0.97887 0.25319 0.0
C1288 C 0.64055 0.03965 0.27688 0.0
C1289 C 0.65931 0.04619 0.29628 0.0
C1290 C 0.64122 1.00281 0.26672 0.0
C1291 C 0.66917 0.03086 0.29969 0.0
C1292 C 0.64364 0.97096 0.23818 0.0
C1293 C 0.59326 0.94374 0.23937 0.0
N1294 N 0.66002 0.00974 0.28492 0.0
N1295 N 0.60529 0.965 0.25354 0.0
H1296 H 0.62989 0.68371 0.32451 0.0
H1297 H 0.68796 0.62787 0.25887 0.0
H1298 H 0.57593 0.63871 0.26328 0.0
H1299 H 0.6553 0.63635 0.18396 0.0
H1300 H 0.66988 0.64799 0.28535 0.0
H1301 H 0.66068 0.68046 0.29717 0.0
C1302 C 0.62438 0.67321 0.30542 0.0
C1303 C 0.59991 0.66101 0.29669 0.0
C1304 C 0.66752 0.64629 0.26294 0.0
C1305 C 0.63537 0.65813 0.26497 0.0
C1306 C 0.67773 0.63473 0.24788 0.0
C1307 C 0.67299 0.63031 0.21924 0.0
C1308 C 0.65212 0.65289 0.24925 0.0
C1309 C 0.65955 0.63949 0.20597 0.0
C1310 C 0.64208 0.67159 0.28978 0.0
C1311 C 0.59436 0.64862 0.27103 0.0
N1312 N 0.64898 0.64969 0.22123 0.0
N1313 N 0.61192 0.64748 0.25618 0.0
H1314 H 0.95953 0.62827 0.30064 0.0
H1315 H 0.03881 0.66253 0.16289 0.0
H1316 H 0.93885 0.58656 0.22421 0.0
H1317 H 0.06921 0.68472 0.24542 0.0
H1318 H 0.99841 0.64763 0.18212 0.0
H1319 H 0.99549 0.66014 0.27717 0.0
C1320 C 0.96235 0.62587 0.27887 0.0
C1321 C 0.9465 0.60425 0.26465 0.0
C1322 C 0.01399 0.65638 0.1959 0.0
C1323 C 0.98713 0.64104 0.2376 0.0
C1324 C 0.03716 0.66517 0.18492 0.0
C1325 C 0.05745 0.67442 0.2027 0.0
C1326 C 0.01108 0.6568 0.2248 0.0
C1327 C 0.054 0.67713 0.2311 0.0
C1328 C 0.98275 0.6442 0.26549 0.0
C1329 C 0.95057 0.60271 0.23615 0.0
N1330 N 0.03114 0.66787 0.24141 0.0
N1331 N 0.97069 0.62071 0.22368 0.0
H1332 H 0.60644 0.948 0.74102 0.0
H1333 H 0.67039 0.08019 0.76633 0.0
H1334 H 0.64082 0.97399 0.82124 0.0
H1335 H 0.68239 0.05495 0.68739 0.0
H1336 H 0.66348 0.04262 0.78779 0.0
H1337 H 0.63692 0.98602 0.72023 0.0
C1338 C 0.62074 0.96132 0.75421 0.0
C1339 C 0.62043 0.95807 0.78317 0.0
C1340 C 0.66831 0.04562 0.76592 0.0
C1341 C 0.65493 1.0019 0.7595 0.0
C1342 C 0.67233 0.06717 0.75359 0.0
C1343 C 0.67606 0.07043 0.72471 0.0
C1344 C 0.66738 0.02705 0.74913 0.0
C1345 C 0.67836 0.05272 0.70947 0.0
C1346 C 0.63817 0.9831 0.74227 0.0
C1347 C 0.6396 0.97615 0.79903 0.0
N1348 N 0.67313 0.03138 0.72164 0.0
N1349 N 0.65561 0.99766 0.78717 0.0
H1350 H 0.68646 0.63402 0.83363 0.0
H1351 H 0.60579 0.66077 0.77825 0.0
H1352 H 0.69866 0.62287 0.74758 0.0
H1353 H 0.64779 0.68099 0.7023 0.0
H1354 H 0.63738 0.65634 0.80103 0.0
H1355 H 0.67294 0.66177 0.81863 0.0
C1356 C 0.68694 0.6378 0.81157 0.0
C1357 C 0.69295 0.62528 0.79176 0.0
C1358 C 0.64028 0.66264 0.77969 0.0
C1359 C 0.67594 0.65606 0.77446 0.0
C1360 C 0.62205 0.66512 0.76659 0.0
C1361 C 0.62381 0.67069 0.73811 0.0
C1362 C 0.66035 0.66555 0.76414 0.0
C1363 C 0.6453 0.67585 0.72407 0.0
C1364 C 0.67868 0.65337 0.80301 0.0
C1365 C 0.69324 0.63128 0.76355 0.0
N1366 N 0.66243 0.67253 0.73701 0.0
N1367 N 0.68425 0.64581 0.75568 0.0
H1368 H 0.0393 0.62861 0.83058 0.0
H1369 H 0.95738 0.62097 0.70352 0.0
H1370 H 0.06842 0.68782 0.77164 0.0
H1371 H 0.97068 0.56272 0.72643 0.0
H1372 H 0.98965 0.6479 0.73583 0.0
H1373 H 1.00346 0.6067 0.80131 0.0
C1374 C 0.03782 0.6374 0.81195 0.0
C1375 C 0.05689 0.6601 0.80348 0.0
C1376 C 0.98518 0.62913 0.73369 0.0
C1377 C 0.01605 0.63487 0.76987 0.0
C1378 C 0.96696 0.61375 0.71516 0.0
C1379 C 0.96098 0.5893 0.71223 0.0
C1380 C 0.99693 0.61978 0.74986 0.0
C1381 C 0.97387 0.58105 0.72839 0.0
C1382 C 0.01749 0.62473 0.79516 0.0
C1383 C 0.05414 0.67029 0.77874 0.0
N1384 N 0.99104 0.59619 0.74666 0.0
N1385 N 0.03406 0.65748 0.76256 0.0
H1386 H 0.40282 0.0802 0.75819 0.0
H1387 H 0.36831 0.94143 0.74905 0.0
H1388 H 0.39765 0.03583 0.82892 0.0
H1389 H 0.36953 0.98289 0.67735 0.0
H1390 H 0.37361 0.97468 0.77924 0.0
H1391 H 0.38506 0.04374 0.72884 0.0
C1392 C 0.39764 0.06282 0.76767 0.0
C1393 C 0.40209 0.06124 0.79607 0.0
C1394 C 0.37248 0.97649 0.75693 0.0
C1395 C 0.38176 0.01952 0.76263 0.0
C1396 C 0.36957 0.95755 0.73972 0.0
C1397 C 0.36878 0.95959 0.71073 0.0
C1398 C 0.37498 0.99784 0.74505 0.0
C1399 C 0.37008 0.98065 0.69965 0.0
C1400 C 0.38743 0.042 0.7509 0.0
C1401 C 0.3945 0.03811 0.80726 0.0
N1402 N 0.37346 0.99915 0.71683 0.0
N1403 N 0.38505 0.01829 0.79046 0.0
H1404 H 0.33717 0.35346 0.81833 0.0
H1405 H 0.41661 0.33176 0.74308 0.0
H1406 H 0.3543 0.40132 0.74743 0.0
H1407 H 0.37272 0.32604 0.67126 0.0
H1408 H 0.38974 0.33907 0.77209 0.0
H1409 H 0.34705 0.32736 0.79025 0.0
C1410 C 0.34271 0.35846 0.7969 0.0
C1411 C 0.34571 0.38027 0.78568 0.0
C1412 C 0.38567 0.33552 0.75007 0.0
C1413 C 0.35583 0.34978 0.75334 0.0
C1414 C 0.40103 0.33126 0.73328 0.0
C1415 C 0.39753 0.32877 0.70421 0.0
C1416 C 0.36706 0.33803 0.73774 0.0
C1417 C 0.37701 0.32891 0.69324 0.0
C1418 C 0.34804 0.34334 0.7809 0.0
C1419 C 0.35176 0.38491 0.75727 0.0
N1420 N 0.36306 0.33436 0.70987 0.0
N1421 N 0.35688 0.36993 0.74218 0.0
H1422 H 0.05991 0.39122 0.71134 0.0
H1423 H 0.98813 0.39325 0.84644 0.0
H1424 H 0.09008 0.44743 0.7743 0.0
H1425 H 0.9544 0.36197 0.76748 0.0
H1426 H 0.02743 0.40181 0.82734 0.0
H1427 H 0.02345 0.36897 0.73988 0.0
C1428 C 0.0591 0.39867 0.73138 0.0
C1429 C 0.07773 0.42164 0.74002 0.0
C1430 C 0.01131 0.39263 0.81444 0.0
C1431 C 0.03641 0.39608 0.77278 0.0
C1432 C 0.98897 0.38774 0.82527 0.0
C1433 C 0.96822 0.37721 0.80828 0.0
C1434 C 0.01273 0.3867 0.78659 0.0
C1435 C 0.97015 0.37047 0.78101 0.0
C1436 C 0.03835 0.38591 0.74764 0.0
C1437 C 0.07611 0.42994 0.76664 0.0
N1438 N 0.99212 0.3755 0.77088 0.0
N1439 N 0.05555 0.41736 0.7819 0.0
H1440 H 0.53093 0.16665 0.27105 0.0
H1441 H 0.61035 0.10247 0.27188 0.0
H1442 H 0.54205 0.13313 0.19837 0.0
H1443 H 0.61655 0.15266 0.33647 0.0
H1444 H 0.58635 0.11495 0.24415 0.0
H1445 H 0.56338 0.16363 0.29493 0.0
C1446 C 0.54034 0.15891 0.26 0.0
C1447 C 0.53339 0.14965 0.23287 0.0
C1448 C 0.59317 0.1235 0.26423 0.0
C1449 C 0.57037 0.14604 0.2601 0.0
C1450 C 0.60679 0.11629 0.28012 0.0
C1451 C 0.6152 0.12638 0.30658 0.0
C1452 C 0.5875 0.14062 0.27508 0.0
C1453 C 0.61032 0.14441 0.31615 0.0
C1454 C 0.55888 0.15722 0.27364 0.0
C1455 C 0.5464 0.14002 0.21949 0.0
N1456 N 0.59642 0.15072 0.30055 0.0
N1457 N 0.56401 0.13818 0.23337 0.0
H1458 H 0.45236 0.56452 0.34706 0.0
H1459 H 0.3889 0.54137 0.19749 0.0
H1460 H 0.46943 0.6233 0.2902 0.0
H1461 H 0.39706 0.48869 0.2459 0.0
H1462 H 0.40916 0.57139 0.23519 0.0
H1463 H 0.42112 0.53642 0.31491 0.0
C1464 C 0.4489 0.57156 0.32808 0.0
C1465 C 0.46324 0.59609 0.32113 0.0
C1466 C 0.40624 0.55316 0.23751 0.0
C1467 C 0.42838 0.56404 0.28373 0.0
C1468 C 0.39475 0.5361 0.21611 0.0
C1469 C 0.3917 0.5127 0.21849 0.0
C1470 C 0.4141 0.54641 0.26153 0.0
C1471 C 0.39945 0.50666 0.243 0.0
C1472 C 0.43129 0.55554 0.30962 0.0
C1473 C 0.45844 0.60444 0.29623 0.0
N1474 N 0.41026 0.52338 0.26349 0.0
N1475 N 0.44159 0.58829 0.27804 0.0
H1476 H 0.82627 0.47008 0.23019 0.0
H1477 H 0.88249 0.38485 0.24305 0.0
H1478 H 0.84443 0.45097 0.30932 0.0
H1479 H 0.84143 0.38323 0.17059 0.0
H1480 H 0.86697 0.40772 0.26812 0.0
H1481 H 0.82896 0.43667 0.20827 0.0
C1482 C 0.8304 0.4586 0.24305 0.0
C1483 C 0.83586 0.46374 0.27146 0.0
C1484 C 0.86104 0.40208 0.24687 0.0
C1485 C 0.83924 0.42577 0.2465 0.0
C1486 C 0.87001 0.38914 0.23251 0.0
C1487 C 0.86344 0.3824 0.20464 0.0
C1488 C 0.84577 0.40878 0.23309 0.0
C1489 C 0.847 0.38818 0.19206 0.0
C1490 C 0.83197 0.43956 0.23051 0.0
C1491 C 0.84083 0.4481 0.28717 0.0
N1492 N 0.83904 0.40144 0.20624 0.0
N1493 N 0.84289 0.43013 0.27438 0.0
H1494 H 0.40176 0.85896 0.30786 0.0
H1495 H 0.4589 0.84729 0.16426 0.0
H1496 H 0.37131 0.85964 0.22761 0.0
H1497 H 0.50069 0.88161 0.23829 0.0
H1498 H 0.42167 0.83849 0.1896 0.0
H1499 H 0.43281 0.85337 0.2844 0.0
C1500 C 0.40127 0.85742 0.28535 0.0
C1501 C 0.3842 0.8602 0.2696 0.0
C1502 C 0.43899 0.84756 0.20032 0.0
C1503 C 0.41955 0.85372 0.2428 0.0
C1504 C 0.46013 0.85247 0.18599 0.0
C1505 C 0.48276 0.8654 0.19924 0.0
C1506 C 0.44066 0.8552 0.22814 0.0
C1507 C 0.48353 0.87186 0.22731 0.0
C1508 C 0.41904 0.85433 0.27201 0.0
C1509 C 0.3844 0.85798 0.24049 0.0
N1510 N 0.46277 0.86676 0.24084 0.0
N1511 N 0.40199 0.85508 0.22795 0.0
H1512 H 0.59298 0.50994 0.23633 0.0
H1513 H 0.55168 0.40586 0.31594 0.0
H1514 H 0.61972 0.47595 0.17935 0.0
H1515 H 0.54407 0.37146 0.236 0.0
H1516 H 0.57747 0.44547 0.29425 0.0
H1517 H 0.5746 0.47308 0.26446 0.0
C1518 C 0.59516 0.49478 0.22986 0.0
C1519 C 0.60783 0.49596 0.20543 0.0
C1520 C 0.57008 0.42925 0.28147 0.0
C1521 C 0.58724 0.4539 0.2378 0.0
C1522 C 0.55544 0.40667 0.29382 0.0
C1523 C 0.54498 0.38551 0.2775 0.0
C1524 C 0.5745 0.43051 0.25267 0.0
C1525 C 0.55137 0.3874 0.24924 0.0
C1526 C 0.58494 0.47386 0.24615 0.0
C1527 C 0.61012 0.47579 0.19807 0.0
N1528 N 0.56557 0.40959 0.23763 0.0
N1529 N 0.5996 0.45541 0.21401 0.0
H1530 H 0.15725 0.6118 0.17964 0.0
H1531 H 0.15251 0.55295 0.32794 0.0
H1532 H 0.10047 0.59378 0.24016 0.0
H1533 H 0.18228 0.53765 0.25482 0.0
H1534 H 0.1437 0.57983 0.29999 0.0
H1535 H 0.17591 0.59535 0.21118 0.0
C1536 C 0.14884 0.60455 0.19964 0.0
C1537 C 0.12713 0.6038 0.20722 0.0
C1538 C 0.1525 0.57085 0.29024 0.0
C1539 C 0.1486 0.58564 0.24337 0.0
C1540 C 0.15753 0.55554 0.30611 0.0
C1541 C 0.16724 0.54234 0.29339 0.0
C1542 C 0.15781 0.57341 0.26166 0.0
C1543 C 0.17429 0.54708 0.26533 0.0
C1544 C 0.15949 0.59524 0.21755 0.0
C1545 C 0.117 0.59434 0.23336 0.0
N1546 N 0.16911 0.56202 0.25023 0.0
N1547 N 0.12784 0.58562 0.25054 0.0
H1548 H 0.4893 0.83602 0.737 0.0
H1549 H 0.37298 0.85319 0.74204 0.0
H1550 H 0.46447 0.85579 0.81108 0.0
H1551 H 0.40888 0.8529 0.66567 0.0
H1552 H 0.40126 0.84526 0.76812 0.0
H1553 H 0.45472 0.83331 0.71135 0.0
C1554 C 0.47641 0.83947 0.74796 0.0
C1555 C 0.47992 0.84647 0.77611 0.0
C1556 C 0.40281 0.84673 0.74563 0.0
C1557 C 0.44045 0.84339 0.74695 0.0
C1558 C 0.38666 0.85123 0.7307 0.0
C1559 C 0.3888 0.85406 0.70166 0.0
C1560 C 0.42119 0.84497 0.73143 0.0
C1561 C 0.40673 0.8511 0.68808 0.0
C1562 C 0.45676 0.83801 0.73328 0.0
C1563 C 0.46263 0.85066 0.78929 0.0
N1564 N 0.42239 0.84689 0.70312 0.0
N1565 N 0.44372 0.84921 0.77454 0.0
H1566 H 0.51711 0.37289 0.73994 0.0
H1567 H 0.61168 0.50918 0.74978 0.0
H1568 H 0.55023 0.41323 0.66499 0.0
H1569 H 0.61339 0.45999 0.81044 0.0
H1570 H 0.58762 0.47463 0.71879 0.0
H1571 H 0.55094 0.40427 0.76722 0.0
C1572 C 0.53187 0.38812 0.72925 0.0
C1573 C 0.53114 0.39061 0.70033 0.0
C1574 C 0.59359 0.47148 0.73871 0.0
C1575 C 0.56912 0.42671 0.73123 0.0
C1576 C 0.60709 0.49109 0.75645 0.0
C1577 C 0.61426 0.48728 0.78271 0.0
C1578 C 0.58666 0.44789 0.74767 0.0
C1579 C 0.60811 0.46358 0.79032 0.0
C1580 C 0.5511 0.40594 0.74474 0.0
C1581 C 0.55042 0.41068 0.68729 0.0
N1582 N 0.59418 0.44462 0.77308 0.0
N1583 N 0.56844 0.42835 0.70295 0.0
H1584 H 0.16407 0.56181 0.679 0.0
H1585 H 0.17336 0.62895 0.82339 0.0
H1586 H 0.19844 0.5535 0.75252 0.0
H1587 H 0.12141 0.61709 0.75852 0.0
H1588 H 0.19033 0.60947 0.79399 0.0
H1589 H 0.15673 0.591 0.70416 0.0
C1590 C 0.17032 0.56633 0.70034 0.0
C1591 C 0.18118 0.55463 0.71398 0.0
C1592 C 0.17533 0.61133 0.78618 0.0
C1593 C 0.1731 0.58819 0.74272 0.0
C1594 C 0.16563 0.6224 0.80292 0.0
C1595 C 0.14572 0.62431 0.79352 0.0
C1596 C 0.16521 0.60238 0.7598 0.0
C1597 C 0.13653 0.61567 0.76676 0.0
C1598 C 0.16613 0.58299 0.71466 0.0
C1599 C 0.18964 0.56178 0.74133 0.0
N1600 N 0.1463 0.60501 0.75087 0.0
N1601 N 0.18511 0.57788 0.75497 0.0
H1602 H 0.55192 0.16602 0.83865 0.0
H1603 H 0.60914 0.15555 0.69467 0.0
H1604 H 0.51192 0.11244 0.77516 0.0
H1605 H 0.65219 0.18601 0.76908 0.0
H1606 H 0.5731 0.1485 0.72044 0.0
H1607 H 0.58862 0.18163 0.8098 0.0
C1608 C 0.55084 0.15768 0.81858 0.0
C1609 C 0.52899 0.13773 0.80937 0.0
C1610 C 0.59049 0.15693 0.73102 0.0
C1611 C 0.57053 0.15567 0.77633 0.0
C1612 C 0.61107 0.16094 0.71637 0.0
C1613 C 0.63358 0.1707 0.72999 0.0
C1614 C 0.59249 0.16305 0.75938 0.0
C1615 C 0.63512 0.17807 0.75789 0.0
C1616 C 0.57173 0.16657 0.80221 0.0
C1617 C 0.52849 0.12763 0.7832 0.0
N1618 N 0.61474 0.17385 0.77181 0.0
N1619 N 0.54898 0.13671 0.76759 0.0
H1620 H 0.39351 0.53637 0.82894 0.0
H1621 H 0.47263 0.60507 0.69504 0.0
H1622 H 0.40405 0.50059 0.75808 0.0
H1623 H 0.4785 0.64081 0.7737 0.0
H1624 H 0.43974 0.56748 0.71421 0.0
H1625 H 0.41716 0.57545 0.8052 0.0
C1626 C 0.40055 0.53671 0.80827 0.0
C1627 C 0.39718 0.5153 0.7956 0.0
C1628 C 0.44807 0.58361 0.7272 0.0
C1629 C 0.42398 0.55972 0.76843 0.0
C1630 C 0.46688 0.60506 0.7163 0.0
C1631 C 0.47875 0.62591 0.73308 0.0
C1632 C 0.44098 0.58302 0.75502 0.0
C1633 C 0.47008 0.62504 0.76019 0.0
C1634 C 0.41405 0.55898 0.7948 0.0
C1635 C 0.40656 0.51672 0.76878 0.0
N1636 N 0.45187 0.60381 0.77048 0.0
N1637 N 0.41966 0.53858 0.75615 0.0
H1638 H 0.83619 0.48171 0.7325 0.0
H1639 H 0.85531 0.36739 0.74416 0.0
H1640 H 0.85604 0.45177 0.66311 0.0
H1641 H 0.84301 0.40273 0.8142 0.0
H1642 H 0.84648 0.39217 0.7126 0.0
H1643 H 0.82913 0.44687 0.76064 0.0
C1644 C 0.83873 0.46763 0.72305 0.0
C1645 C 0.84724 0.4699 0.69563 0.0
C1646 C 0.8454 0.39425 0.73487 0.0
C1647 C 0.83942 0.4301 0.7278 0.0
C1648 C 0.85043 0.38011 0.75291 0.0
C1649 C 0.85041 0.3834 0.78184 0.0
C1650 C 0.84033 0.41175 0.74591 0.0
C1651 C 0.84371 0.39994 0.79202 0.0
C1652 C 0.83471 0.44774 0.73914 0.0
C1653 C 0.84981 0.4509 0.6843 0.0
N1654 N 0.83923 0.41371 0.77407 0.0
N1655 N 0.84631 0.43197 0.70061 0.0
H1656 H 0.5162 0.11059 0.07553 0.0
H1657 H 0.49661 0.1864 0.96424 0.0
H1658 H 0.51636 0.17654 0.09692 0.0
H1659 H 0.5254 0.13981 0.94251 0.0
H1660 H 0.50956 0.18743 0.01243 0.0
H1661 H 0.5259 0.12451 0.02729 0.0
C1662 C 0.51929 0.1285 0.0702 0.0
C1663 C 0.51572 0.14258 0.09011 0.0
C1664 C 0.51374 0.17754 0.99705 0.0
C1665 C 0.52556 0.15813 0.03475 0.0
C1666 C 0.50637 0.177 0.96952 0.0
C1667 C 0.50991 0.16296 0.94948 0.0
C1668 C 0.52399 0.16326 0.0048 0.0
C1669 C 0.52247 0.15096 0.95736 0.0
C1670 C 0.52467 0.1364 0.04263 0.0
C1671 C 0.51932 0.16536 0.08215 0.0
N1672 N 0.5285 0.15086 0.9846 0.0
N1673 N 0.52343 0.17218 0.05489 0.0
H1674 H 0.31152 0.49436 0.07246 0.0
H1675 H 0.38658 0.51092 0.93382 0.0
H1676 H 0.38572 0.51001 0.07186 0.0
H1677 H 0.3091 0.48111 0.93883 0.0
H1678 H 0.39025 0.52424 0.98267 0.0
H1679 H 0.31461 0.50405 0.02281 0.0
C1680 C 0.3288 0.50088 0.06202 0.0
C1681 C 0.34845 0.50164 0.07613 0.0
C1682 C 0.37255 0.51544 0.97279 0.0
C1683 C 0.35182 0.51146 0.01906 0.0
C1684 C 0.37049 0.50806 0.94488 0.0
C1685 C 0.34747 0.49482 0.93248 0.0
C1686 C 0.35144 0.50963 0.98812 0.0
C1687 C 0.32714 0.49116 0.94777 0.0
C1688 C 0.33051 0.50612 0.03361 0.0
C1689 C 0.3703 0.50957 0.06164 0.0
N1690 N 0.32956 0.49826 0.97484 0.0
N1691 N 0.37127 0.51368 0.03367 0.0
H1692 H 0.84667 0.37642 0.07938 0.0
H1693 H 0.81604 0.33386 0.92179 0.0
H1694 H 0.80817 0.30179 0.05176 0.0
H1695 H 0.8704 0.40521 0.94921 0.0
H1696 H 0.79978 0.32467 0.96947 0.0
H1697 H 0.84172 0.38914 0.03285 0.0
C1698 C 0.83637 0.36264 0.06386 0.0
C1699 C 0.82825 0.33805 0.06921 0.0
C1700 C 0.81471 0.34265 0.96482 0.0
C1701 C 0.82285 0.35247 0.01593 0.0
C1702 C 0.82378 0.34796 0.93758 0.0
C1703 C 0.84458 0.37025 0.93183 0.0
C1704 C 0.82663 0.35981 0.98618 0.0
C1705 C 0.85434 0.38777 0.95302 0.0
C1706 C 0.83371 0.36992 0.03722 0.0
C1707 C 0.8151 0.32099 0.04829 0.0
N1708 N 0.84554 0.38206 0.97938 0.0
N1709 N 0.81321 0.32854 0.0224 0.0
H1710 H 0.51838 0.81637 0.04627 0.0
H1711 H 0.49183 0.82387 0.90977 0.0
H1712 H 0.48819 0.86204 0.06655 0.0
H1713 H 0.5042 0.89359 0.93806 0.0
H1714 H 0.48218 0.8088 0.95795 0.0
H1715 H 0.50565 0.81468 0.99796 0.0
C1716 C 0.50825 0.82532 0.04066 0.0
C1717 C 0.50433 0.83937 0.06032 0.0
C1718 C 0.48655 0.82724 0.9535 0.0
C1719 C 0.48999 0.8379 0.00491 0.0
C1720 C 0.49167 0.83569 0.92598 0.0
C1721 C 0.49903 0.86002 0.92019 0.0
C1722 C 0.48884 0.84334 0.97508 0.0
C1723 C 0.49881 0.87475 0.94187 0.0
C1724 C 0.50084 0.82425 0.01306 0.0
C1725 C 0.49138 0.85086 0.05201 0.0
N1726 N 0.4941 0.86628 0.96841 0.0
N1727 N 0.48531 0.85046 0.02471 0.0
H1728 H 0.6599 0.5021 0.07405 0.0
H1729 H 0.61316 0.49641 0.91814 0.0
H1730 H 0.61298 0.52917 0.04761 0.0
H1731 H 0.683 0.50508 0.93908 0.0
H1732 H 0.602 0.49001 0.96771 0.0
H1733 H 0.65735 0.48555 0.02687 0.0
C1734 C 0.64837 0.50374 0.05859 0.0
C1735 C 0.63675 0.51709 0.06443 0.0
C1736 C 0.61939 0.49235 0.96129 0.0
C1737 C 0.63365 0.49826 0.01097 0.0
C1738 C 0.62563 0.49569 0.93303 0.0
C1739 C 0.64895 0.50113 0.92473 0.0
C1740 C 0.63661 0.49435 0.98112 0.0
C1741 C 0.66478 0.50077 0.94482 0.0
C1742 C 0.64702 0.49445 0.03173 0.0
C1743 C 0.62231 0.5191 0.04371 0.0
N1744 N 0.65846 0.49778 0.9722 0.0
N1745 N 0.62131 0.50997 0.0178 0.0
H1746 H 0.20538 0.69743 0.94982 0.0
H1747 H 0.10857 0.60544 0.04518 0.0
H1748 H 0.15475 0.62545 0.91985 0.0
H1749 H 0.17794 0.65857 0.07884 0.0
H1750 H 0.12767 0.60891 0.9999 0.0
H1751 H 0.20015 0.68135 0.99706 0.0
C1752 C 0.19379 0.67807 0.95304 0.0
C1753 C 0.17996 0.6629 0.931 0.0
C1754 C 0.13897 0.61923 0.01735 0.0
C1755 C 0.1733 0.64451 0.98511 0.0
C1756 C 0.12804 0.61721 0.04318 0.0
C1757 C 0.14177 0.63173 0.06558 0.0
C1758 C 0.16359 0.63666 0.01368 0.0
C1759 C 0.16684 0.64696 0.06199 0.0
C1760 C 0.19076 0.66888 0.98006 0.0
C1761 C 0.16544 0.63792 0.93631 0.0
N1762 N 0.17687 0.64958 0.03624 0.0
N1763 N 0.16181 0.62963 0.96299 0.0
H1764 H 0.82423 0.51924 0.41219 0.0
H1765 H 0.85323 0.47566 0.55494 0.0
H1766 H 0.85839 0.47539 0.41696 0.0
H1767 H 0.83593 0.53285 0.54551 0.0
H1768 H 0.84179 0.46408 0.50593 0.0
H1769 H 0.81412 0.51194 0.46168 0.0
C1770 C 0.82875 0.50727 0.42355 0.0
C1771 C 0.84202 0.4978 0.41073 0.0
C1772 C 0.83988 0.47872 0.51486 0.0
C1773 C 0.83166 0.49033 0.4675 0.0
C1774 C 0.84624 0.48522 0.5428 0.0
C1775 C 0.84577 0.50542 0.55398 0.0
C1776 C 0.8328 0.49241 0.49834 0.0
C1777 C 0.83682 0.51736 0.53746 0.0
C1778 C 0.8232 0.50329 0.45183 0.0
C1779 C 0.8479 0.48278 0.42626 0.0
N1780 N 0.83094 0.51085 0.51041 0.0
N1781 N 0.84314 0.47991 0.45411 0.0
H1782 H 0.3283 0.82229 0.4122 0.0
H1783 H 0.3916 0.86167 0.56136 0.0
H1784 H 0.40111 0.8814 0.42513 0.0
H1785 H 0.31459 0.82738 0.54593 0.0
H1786 H 0.39791 0.85574 0.51204 0.0
H1787 H 0.32665 0.81063 0.46116 0.0
C1788 C 0.34438 0.83204 0.42507 0.0
C1789 C 0.36496 0.85261 0.41474 0.0
C1790 C 0.37959 0.84884 0.51971 0.0
C1791 C 0.36295 0.84003 0.47079 0.0
C1792 C 0.37596 0.85204 0.54785 0.0
C1793 C 0.35254 0.84512 0.55755 0.0
C1794 C 0.35961 0.83834 0.50146 0.0
C1795 C 0.33293 0.83308 0.53914 0.0
C1796 C 0.34333 0.82559 0.45306 0.0
C1797 C 0.38506 0.8652 0.43237 0.0
N1798 N 0.33691 0.83027 0.51192 0.0
N1799 N 0.38344 0.85895 0.45975 0.0
H1800 H 0.52659 0.33752 0.41028 0.0
H1801 H 0.53269 0.38793 0.56467 0.0
H1802 H 0.51845 0.39912 0.43094 0.0
H1803 H 0.51143 0.31368 0.54497 0.0
H1804 H 0.54408 0.39883 0.51569 0.0
H1805 H 0.53738 0.33568 0.45918 0.0
C1806 C 0.52809 0.35125 0.42488 0.0
C1807 C 0.52167 0.36849 0.41677 0.0
C1808 C 0.53766 0.38031 0.52231 0.0
C1809 C 0.53365 0.36641 0.47241 0.0
C1810 C 0.53141 0.37415 0.55031 0.0
C1811 C 0.52094 0.34984 0.55875 0.0
C1812 C 0.53362 0.36206 0.50283 0.0
C1813 C 0.5193 0.3326 0.53918 0.0
C1814 C 0.534 0.35008 0.45277 0.0
C1815 C 0.52331 0.38557 0.43651 0.0
N1816 N 0.52523 0.33896 0.51206 0.0
N1817 N 0.5289 0.38396 0.46348 0.0
H1818 H 0.18519 0.51872 0.42692 0.0
H1819 H 0.14893 0.5374 0.58083 0.0
H1820 H 0.11765 0.51526 0.44829 0.0
H1821 H 0.19012 0.50193 0.56244 0.0
H1822 H 0.15 0.54725 0.53108 0.0
H1823 H 0.19904 0.53036 0.47539 0.0
C1824 C 0.17373 0.52137 0.44157 0.0
C1825 C 0.15029 0.51602 0.43389 0.0
C1826 C 0.15954 0.53808 0.53816 0.0
C1827 C 0.16585 0.52927 0.4888 0.0
C1828 C 0.15912 0.53268 0.56649 0.0
C1829 C 0.16943 0.51884 0.57551 0.0
C1830 C 0.17064 0.52985 0.51905 0.0
C1831 C 0.18196 0.51262 0.55613 0.0
C1832 C 0.18153 0.52784 0.46915 0.0
C1833 C 0.13584 0.51922 0.45361 0.0
N1834 N 0.18202 0.51796 0.52871 0.0
N1835 N 0.14377 0.52546 0.48027 0.0
H1836 H 0.6241 0.14457 0.43796 0.0
H1837 H 0.61063 0.13473 0.5797 0.0
H1838 H 0.6997 0.17649 0.46021 0.0
H1839 H 0.68422 0.19384 0.58575 0.0
H1840 H 0.6114 0.14132 0.52956 0.0
H1841 H 0.61573 0.15477 0.48457 0.0
C1842 C 0.63901 0.15428 0.45242 0.0
C1843 C 0.66254 0.15931 0.44554 0.0
C1844 C 0.62703 0.15376 0.54182 0.0
C1845 C 0.65311 0.17038 0.49891 0.0
C1846 C 0.62649 0.15002 0.57057 0.0
C1847 C 0.64727 0.16401 0.58676 0.0
C1848 C 0.64878 0.17125 0.5292 0.0
C1849 C 0.66772 0.18297 0.57393 0.0
C1850 C 0.63419 0.1598 0.47916 0.0
C1851 C 0.68122 0.17191 0.46494 0.0
N1852 N 0.66818 0.18565 0.54578 0.0
N1853 N 0.67607 0.17675 0.49081 0.0
H1854 H 0.5047 0.67605 0.60188 0.0
H1855 H 0.47259 0.61668 0.44976 0.0
H1856 H 0.49498 0.60556 0.58206 0.0
H1857 H 0.5192 0.69314 0.46581 0.0
H1858 H 0.46397 0.61008 0.49985 0.0
H1859 H 0.49306 0.67931 0.55383 0.0
C1860 C 0.49903 0.66083 0.58773 0.0
C1861 C 0.50058 0.64044 0.59576 0.0
C1862 C 0.47543 0.62839 0.49221 0.0
C1863 C 0.48756 0.64409 0.54113 0.0
C1864 C 0.48021 0.63221 0.46362 0.0
C1865 C 0.4968 0.65547 0.45373 0.0
C1866 C 0.48698 0.64807 0.51079 0.0
C1867 C 0.50639 0.67491 0.4727 0.0
C1868 C 0.49263 0.66278 0.56034 0.0
C1869 C 0.49378 0.62147 0.57656 0.0
N1870 N 0.50156 0.67076 0.50038 0.0
N1871 N 0.48775 0.62381 0.55001 0.0
loop_
_geom_bond_atom_site_label_1
_geom_bond_atom_site_label_2
_geom_bond_distance
_geom_bond_site_symmetry_2
_ccdc_geom_bond_type
C0 C1 1.351 . S
C0 N3 1.368 . S
C0 H5 0.931 . S
C1 C0 1.351 . S
C1 N2 1.373 . S
C1 H29 0.930 . S
N2 C1 1.373 . S
N2 C4 1.340 . S
N3 C0 1.368 . S
N3 C4 1.321 . S
N3 Co6 2.135 . S
C4 N2 1.340 . S
C4 N3 1.321 . S
C4 H28 0.930 . S
H5 C0 0.931 . S
Co6 N3 2.135 . S
Co6 N9 2.121 . S
Co6 O14 2.055 . S
Co6 O17 2.039 . S
Co6 N20 2.140 . S
C7 O8 1.227 . S
C7 O17 1.265 . S
O8 C7 1.227 . S
N9 Co6 2.121 . S
N9 C11 1.375 . S
N9 C12 1.313 . S
C10 C11 1.338 . S
C10 N13 1.377 . S
C10 H30 0.930 . S
C11 N9 1.375 . S
C11 C10 1.338 . S
C11 H15 0.931 . S
C12 N9 1.313 . S
C12 N13 1.344 . S
C12 H16 0.930 . S
N13 C10 1.377 . S
N13 C12 1.344 . S
O14 Co6 2.055 . S
O14 C18 1.253 . S
H15 C11 0.931 . S
H16 C12 0.930 . S
O17 Co6 2.039 . S
O17 C7 1.265 . S
C18 O14 1.253 . S
C18 O19 1.227 . S
O19 C18 1.227 . S
N20 Co6 2.140 . S
N20 C23 1.346 . S
N20 C24 1.345 . S
C21 C22 1.387 . S
C21 C25 1.391 . S
C22 C21 1.387 . S
C22 C23 1.369 . S
C22 H31 0.929 . S
C23 N20 1.346 . S
C23 C22 1.369 . S
C23 H26 0.928 . S
C24 N20 1.345 . S
C24 C25 1.371 . S
C24 H27 0.931 . S
C25 C21 1.391 . S
C25 C24 1.371 . S
C25 H32 0.930 . S
H26 C23 0.928 . S
H27 C24 0.931 . S
H28 C4 0.930 . S
H29 C1 0.930 . S
H30 C10 0.930 . S
H31 C22 0.929 . S
H32 C25 0.930 . S
C33 C34 1.351 . S
C33 N36 1.368 . S
C33 H38 0.931 . S
C34 C33 1.351 . S
C34 N35 1.373 . S
C34 H62 0.930 . S
N35 C34 1.373 . S
N35 C37 1.340 . S
N36 C33 1.368 . S
N36 C37 1.321 . S
N36 Co39 2.135 . S
C37 N35 1.340 . S
C37 N36 1.321 . S
C37 H61 0.930 . S
H38 C33 0.931 . S
Co39 N36 2.135 . S
Co39 N42 2.121 . S
Co39 O47 2.055 . S
Co39 O50 2.039 . S
Co39 N53 2.140 . S
C40 O41 1.227 . S
C40 O50 1.265 . S
O41 C40 1.227 . S
N42 Co39 2.121 . S
N42 C44 1.375 . S
N42 C45 1.313 . S
C43 C44 1.338 . S
C43 N46 1.377 . S
C43 H63 0.930 . S
C44 N42 1.375 . S
C44 C43 1.338 . S
C44 H48 0.931 . S
C45 N42 1.313 . S
C45 N46 1.344 . S
C45 H49 0.930 . S
N46 C43 1.377 . S
N46 C45 1.344 . S
O47 Co39 2.055 . S
O47 C51 1.253 . S
H48 C44 0.931 . S
H49 C45 0.930 . S
O50 Co39 2.039 . S
O50 C40 1.265 . S
C51 O47 1.253 . S
C51 O52 1.227 . S
O52 C51 1.227 . S
N53 Co39 2.140 . S
N53 C56 1.346 . S
N53 C57 1.345 . S
C54 C55 1.387 . S
C54 C58 1.391 . S
C55 C54 1.387 . S
C55 C56 1.369 . S
C55 H64 0.929 . S
C56 N53 1.346 . S
C56 C55 1.369 . S
C56 H59 0.928 . S
C57 N53 1.345 . S
C57 C58 1.371 . S
C57 H60 0.931 . S
C58 C54 1.391 . S
C58 C57 1.371 . S
C58 H65 0.930 . S
H59 C56 0.928 . S
H60 C57 0.931 . S
H61 C37 0.930 . S
H62 C34 0.930 . S
H63 C43 0.930 . S
H64 C55 0.929 . S
H65 C58 0.930 . S
C66 C67 1.351 . S
C66 N69 1.368 . S
C66 H71 0.931 . S
C67 C66 1.351 . S
C67 N68 1.373 . S
C67 H95 0.930 . S
N68 C67 1.373 . S
N68 C70 1.340 . S
N69 C66 1.368 . S
N69 C70 1.321 . S
N69 Co72 2.135 . S
C70 N68 1.340 . S
C70 N69 1.321 . S
C70 H94 0.930 . S
H71 C66 0.931 . S
Co72 N69 2.135 . S
Co72 N75 2.121 . S
Co72 O80 2.055 . S
Co72 O83 2.039 . S
Co72 N86 2.140 . S
C73 O74 1.227 . S
C73 O83 1.265 . S
O74 C73 1.227 . S
N75 Co72 2.121 . S
N75 C77 1.375 . S
N75 C78 1.313 . S
C76 C77 1.338 . S
C76 N79 1.377 . S
C76 H96 0.930 . S
C77 N75 1.375 . S
C77 C76 1.338 . S
C77 H81 0.931 . S
C78 N75 1.313 . S
C78 N79 1.344 . S
C78 H82 0.930 . S
N79 C76 1.377 . S
N79 C78 1.344 . S
O80 Co72 2.055 . S
O80 C84 1.253 . S
H81 C77 0.931 . S
H82 C78 0.930 . S
O83 Co72 2.039 . S
O83 C73 1.265 . S
C84 O80 1.253 . S
C84 O85 1.227 . S
O85 C84 1.227 . S
N86 Co72 2.140 . S
N86 C89 1.346 . S
N86 C90 1.345 . S
C87 C88 1.387 . S
C87 C91 1.391 . S
C88 C87 1.387 . S
C88 C89 1.369 . S
C88 H97 0.929 . S
C89 N86 1.346 . S
C89 C88 1.369 . S
C89 H92 0.928 . S
C90 N86 1.345 . S
C90 C91 1.371 . S
C90 H93 0.931 . S
C91 C87 1.391 . S
C91 C90 1.371 . S
C91 H98 0.930 . S
H92 C89 0.928 . S
H93 C90 0.931 . S
H94 C70 0.930 . S
H95 C67 0.930 . S
H96 C76 0.930 . S
H97 C88 0.929 . S
H98 C91 0.930 . S
C99 C100 1.351 . S
C99 N102 1.368 . S
C99 H104 0.931 . S
C100 C99 1.351 . S
C100 N101 1.373 . S
C100 H128 0.930 . S
N101 C100 1.373 . S
N101 C103 1.340 . S
N102 C99 1.368 . S
N102 C103 1.321 . S
N102 Co105 2.135 . S
C103 N101 1.340 . S
C103 N102 1.321 . S
C103 H127 0.930 . S
H104 C99 0.931 . S
Co105 N102 2.135 . S
Co105 N108 2.121 . S
Co105 O113 2.055 . S
Co105 O116 2.039 . S
Co105 N119 2.140 . S
C106 O107 1.227 . S
C106 O116 1.265 . S
O107 C106 1.227 . S
N108 Co105 2.121 . S
N108 C110 1.375 . S
N108 C111 1.313 . S
C109 C110 1.338 . S
C109 N112 1.377 . S
C109 H129 0.930 . S
C110 N108 1.375 . S
C110 C109 1.338 . S
C110 H114 0.931 . S
C111 N108 1.313 . S
C111 N112 1.344 . S
C111 H115 0.930 . S
N112 C109 1.377 . S
N112 C111 1.344 . S
O113 Co105 2.055 . S
O113 C117 1.253 . S
H114 C110 0.931 . S
H115 C111 0.930 . S
O116 Co105 2.039 . S
O116 C106 1.265 . S
C117 O113 1.253 . S
C117 O118 1.227 . S
O118 C117 1.227 . S
N119 Co105 2.140 . S
N119 C122 1.346 . S
N119 C123 1.345 . S
C120 C121 1.387 . S
C120 C124 1.391 . S
C121 C120 1.387 . S
C121 C122 1.369 . S
C121 H130 0.929 . S
C122 N119 1.346 . S
C122 C121 1.369 . S
C122 H125 0.928 . S
C123 N119 1.345 . S
C123 C124 1.371 . S
C123 H126 0.931 . S
C124 C120 1.391 . S
C124 C123 1.371 . S
C124 H131 0.930 . S
H125 C122 0.928 . S
H126 C123 0.931 . S
H127 C103 0.930 . S
H128 C100 0.930 . S
H129 C109 0.930 . S
H130 C121 0.929 . S
H131 C124 0.930 . S
C132 C133 1.351 . S
C132 N135 1.368 . S
C132 H137 0.931 . S
C133 C132 1.351 . S
C133 N134 1.373 . S
C133 H161 0.930 . S
N134 C133 1.373 . S
N134 C136 1.340 . S
N135 C132 1.368 . S
N135 C136 1.321 . S
N135 Co138 2.135 . S
C136 N134 1.340 . S
C136 N135 1.321 . S
C136 H160 0.930 . S
H137 C132 0.931 . S
Co138 N135 2.135 . S
Co138 N141 2.121 . S
Co138 O146 2.055 . S
Co138 O149 2.039 . S
Co138 N152 2.140 . S
C139 O140 1.227 . S
C139 O149 1.265 . S
O140 C139 1.227 . S
N141 Co138 2.121 . S
N141 C143 1.375 . S
N141 C144 1.313 . S
C142 C143 1.338 . S
C142 N145 1.377 . S
C142 H162 0.930 . S
C143 N141 1.375 . S
C143 C142 1.338 . S
C143 H147 0.931 . S
C144 N141 1.313 . S
C144 N145 1.344 . S
C144 H148 0.930 . S
N145 C142 1.377 . S
N145 C144 1.344 . S
O146 Co138 2.055 . S
O146 C150 1.253 . S
H147 C143 0.931 . S
H148 C144 0.930 . S
O149 Co138 2.039 . S
O149 C139 1.265 . S
C150 O146 1.253 . S
C150 O151 1.227 . S
O151 C150 1.227 . S
N152 Co138 2.140 . S
N152 C155 1.346 . S
N152 C156 1.345 . S
C153 C154 1.387 . S
C153 C157 1.391 . S
C154 C153 1.387 . S
C154 C155 1.369 . S
C154 H163 0.929 . S
C155 N152 1.346 . S
C155 C154 1.369 . S
C155 H158 0.928 . S
C156 N152 1.345 . S
C156 C157 1.371 . S
C156 H159 0.931 . S
C157 C153 1.391 . S
C157 C156 1.371 . S
C157 H164 0.930 . S
H158 C155 0.928 . S
H159 C156 0.931 . S
H160 C136 0.930 . S
H161 C133 0.930 . S
H162 C142 0.930 . S
H163 C154 0.929 . S
H164 C157 0.930 . S
C165 C166 1.351 . S
C165 N168 1.368 . S
C165 H170 0.931 . S
C166 C165 1.351 . S
C166 N167 1.373 . S
C166 H194 0.930 . S
N167 C166 1.373 . S
N167 C169 1.340 . S
N168 C165 1.368 . S
N168 C169 1.321 . S
N168 Co171 2.135 . S
C169 N167 1.340 . S
C169 N168 1.321 . S
C169 H193 0.930 . S
H170 C165 0.931 . S
Co171 N168 2.135 . S
Co171 N174 2.121 . S
Co171 O179 2.055 . S
Co171 O182 2.039 . S
Co171 N185 2.140 . S
C172 O173 1.227 . S
C172 O182 1.265 . S
O173 C172 1.227 . S
N174 Co171 2.121 . S
N174 C176 1.375 . S
N174 C177 1.313 . S
C175 C176 1.338 . S
C175 N178 1.377 . S
C175 H195 0.930 . S
C176 N174 1.375 . S
C176 C175 1.338 . S
C176 H180 0.931 . S
C177 N174 1.313 . S
C177 N178 1.344 . S
C177 H181 0.930 . S
N178 C175 1.377 . S
N178 C177 1.344 . S
O179 Co171 2.055 . S
O179 C183 1.253 . S
H180 C176 0.931 . S
H181 C177 0.930 . S
O182 Co171 2.039 . S
O182 C172 1.265 . S
C183 O179 1.253 . S
C183 O184 1.227 . S
O184 C183 1.227 . S
N185 Co171 2.140 . S
N185 C188 1.346 . S
N185 C189 1.345 . S
C186 C187 1.387 . S
C186 C190 1.391 . S
C187 C186 1.387 . S
C187 C188 1.369 . S
C187 H196 0.929 . S
C188 N185 1.346 . S
C188 C187 1.369 . S
C188 H191 0.928 . S
C189 N185 1.345 . S
C189 C190 1.371 . S
C189 H192 0.931 . S
C190 C186 1.391 . S
C190 C189 1.371 . S
C190 H197 0.930 . S
H191 C188 0.928 . S
H192 C189 0.931 . S
H193 C169 0.930 . S
H194 C166 0.930 . S
H195 C175 0.930 . S
H196 C187 0.929 . S
H197 C190 0.930 . S
C198 C199 1.351 . S
C198 N201 1.368 . S
C198 H203 0.931 . S
C199 C198 1.351 . S
C199 N200 1.373 . S
C199 H227 0.930 . S
N200 C199 1.373 . S
N200 C202 1.340 . S
N201 C198 1.368 . S
N201 C202 1.321 . S
N201 Co204 2.135 . S
C202 N200 1.340 . S
C202 N201 1.321 . S
C202 H226 0.930 . S
H203 C198 0.931 . S
Co204 N201 2.135 . S
Co204 N207 2.121 . S
Co204 O212 2.055 . S
Co204 O215 2.039 . S
Co204 N218 2.140 . S
C205 O206 1.227 . S
C205 O215 1.265 . S
O206 C205 1.227 . S
N207 Co204 2.121 . S
N207 C209 1.375 . S
N207 C210 1.313 . S
C208 C209 1.338 . S
C208 N211 1.377 . S
C208 H228 0.930 . S
C209 N207 1.375 . S
C209 C208 1.338 . S
C209 H213 0.931 . S
C210 N207 1.313 . S
C210 N211 1.344 . S
C210 H214 0.930 . S
N211 C208 1.377 . S
N211 C210 1.344 . S
O212 Co204 2.055 . S
O212 C216 1.253 . S
H213 C209 0.931 . S
H214 C210 0.930 . S
O215 Co204 2.039 . S
O215 C205 1.265 . S
C216 O212 1.253 . S
C216 O217 1.227 . S
O217 C216 1.227 . S
N218 Co204 2.140 . S
N218 C221 1.346 . S
N218 C222 1.345 . S
C219 C220 1.387 . S
C219 C223 1.391 . S
C220 C219 1.387 . S
C220 C221 1.369 . S
C220 H229 0.929 . S
C221 N218 1.346 . S
C221 C220 1.369 . S
C221 H224 0.928 . S
C222 N218 1.345 . S
C222 C223 1.371 . S
C222 H225 0.931 . S
C223 C219 1.391 . S
C223 C222 1.371 . S
C223 H230 0.930 . S
H224 C221 0.928 . S
H225 C222 0.931 . S
H226 C202 0.930 . S
H227 C199 0.930 . S
H228 C208 0.930 . S
H229 C220 0.929 . S
H230 C223 0.930 . S
C231 C232 1.351 . S
C231 N234 1.368 . S
C231 H236 0.931 . S
C232 C231 1.351 . S
C232 N233 1.373 . S
C232 H260 0.930 . S
N233 C232 1.373 . S
N233 C235 1.340 . S
N234 C231 1.368 . S
N234 C235 1.321 . S
N234 Co237 2.135 . S
C235 N233 1.340 . S
C235 N234 1.321 . S
C235 H259 0.930 . S
H236 C231 0.931 . S
Co237 N234 2.135 . S
Co237 N240 2.121 . S
Co237 O245 2.055 . S
Co237 O248 2.039 . S
Co237 N251 2.140 . S
C238 O239 1.227 . S
C238 O248 1.265 . S
O239 C238 1.227 . S
N240 Co237 2.121 . S
N240 C242 1.375 . S
N240 C243 1.313 . S
C241 C242 1.338 . S
C241 N244 1.377 . S
C241 H261 0.930 . S
C242 N240 1.375 . S
C242 C241 1.338 . S
C242 H246 0.931 . S
C243 N240 1.313 . S
C243 N244 1.344 . S
C243 H247 0.930 . S
N244 C241 1.377 . S
N244 C243 1.344 . S
O245 Co237 2.055 . S
O245 C249 1.253 . S
H246 C242 0.931 . S
H247 C243 0.930 . S
O248 Co237 2.039 . S
O248 C238 1.265 . S
C249 O245 1.253 . S
C249 O250 1.227 . S
O250 C249 1.227 . S
N251 Co237 2.140 . S
N251 C254 1.346 . S
N251 C255 1.345 . S
C252 C253 1.387 . S
C252 C256 1.391 . S
C253 C252 1.387 . S
C253 C254 1.369 . S
C253 H262 0.929 . S
C254 N251 1.346 . S
C254 C253 1.369 . S
C254 H257 0.928 . S
C255 N251 1.345 . S
C255 C256 1.371 . S
C255 H258 0.931 . S
C256 C252 1.391 . S
C256 C255 1.371 . S
C256 H263 0.930 . S
H257 C254 0.928 . S
H258 C255 0.931 . S
H259 C235 0.930 . S
H260 C232 0.930 . S
H261 C241 0.930 . S
H262 C253 0.929 . S
H263 C256 0.930 . S
C264 C265 1.351 . S
C264 N267 1.368 . S
C264 H269 0.931 . S
C265 C264 1.351 . S
C265 N266 1.373 . S
C265 H293 0.930 . S
N266 C265 1.373 . S
N266 C268 1.340 . S
N267 C264 1.368 . S
N267 C268 1.321 . S
N267 Co270 2.135 . S
C268 N266 1.340 . S
C268 N267 1.321 . S
C268 H292 0.930 . S
H269 C264 0.931 . S
Co270 N267 2.135 . S
Co270 N273 2.121 . S
Co270 O278 2.055 . S
Co270 O281 2.039 . S
Co270 N284 2.140 . S
C271 O272 1.227 . S
C271 O281 1.265 . S
O272 C271 1.227 . S
N273 Co270 2.121 . S
N273 C275 1.375 . S
N273 C276 1.313 . S
C274 C275 1.338 . S
C274 N277 1.377 . S
C274 H294 0.930 . S
C275 N273 1.375 . S
C275 C274 1.338 . S
C275 H279 0.931 . S
C276 N273 1.313 . S
C276 N277 1.344 . S
C276 H280 0.930 . S
N277 C274 1.377 . S
N277 C276 1.344 . S
O278 Co270 2.055 . S
O278 C282 1.253 . S
H279 C275 0.931 . S
H280 C276 0.930 . S
O281 Co270 2.039 . S
O281 C271 1.265 . S
C282 O278 1.253 . S
C282 O283 1.227 . S
O283 C282 1.227 . S
N284 Co270 2.140 . S
N284 C287 1.346 . S
N284 C288 1.345 . S
C285 C286 1.387 . S
C285 C289 1.391 . S
C286 C285 1.387 . S
C286 C287 1.369 . S
C286 H295 0.929 . S
C287 N284 1.346 . S
C287 C286 1.369 . S
C287 H290 0.928 . S
C288 N284 1.345 . S
C288 C289 1.371 . S
C288 H291 0.931 . S
C289 C285 1.391 . S
C289 C288 1.371 . S
C289 H296 0.930 . S
H290 C287 0.928 . S
H291 C288 0.931 . S
H292 C268 0.930 . S
H293 C265 0.930 . S
H294 C274 0.930 . S
H295 C286 0.929 . S
H296 C289 0.930 . S
C297 C298 1.351 . S
C297 N300 1.368 . S
C297 H302 0.931 . S
C298 C297 1.351 . S
C298 N299 1.373 . S
C298 H326 0.930 . S
N299 C298 1.373 . S
N299 C301 1.340 . S
N300 C297 1.368 . S
N300 C301 1.321 . S
N300 Co303 2.135 . S
C301 N299 1.340 . S
C301 N300 1.321 . S
C301 H325 0.930 . S
H302 C297 0.931 . S
Co303 N300 2.135 . S
Co303 N306 2.121 . S
Co303 O311 2.055 . S
Co303 O314 2.039 . S
Co303 N317 2.140 . S
C304 O305 1.227 . S
C304 O314 1.265 . S
O305 C304 1.227 . S
N306 Co303 2.121 . S
N306 C308 1.375 . S
N306 C309 1.313 . S
C307 C308 1.338 . S
C307 N310 1.377 . S
C307 H327 0.930 . S
C308 N306 1.375 . S
C308 C307 1.338 . S
C308 H312 0.931 . S
C309 N306 1.313 . S
C309 N310 1.344 . S
C309 H313 0.930 . S
N310 C307 1.377 . S
N310 C309 1.344 . S
O311 Co303 2.055 . S
O311 C315 1.253 . S
H312 C308 0.931 . S
H313 C309 0.930 . S
O314 Co303 2.039 . S
O314 C304 1.265 . S
C315 O311 1.253 . S
C315 O316 1.227 . S
O316 C315 1.227 . S
N317 Co303 2.140 . S
N317 C320 1.346 . S
N317 C321 1.345 . S
C318 C319 1.387 . S
C318 C322 1.391 . S
C319 C318 1.387 . S
C319 C320 1.369 . S
C319 H328 0.929 . S
C320 N317 1.346 . S
C320 C319 1.369 . S
C320 H323 0.928 . S
C321 N317 1.345 . S
C321 C322 1.371 . S
C321 H324 0.931 . S
C322 C318 1.391 . S
C322 C321 1.371 . S
C322 H329 0.930 . S
H323 C320 0.928 . S
H324 C321 0.931 . S
H325 C301 0.930 . S
H326 C298 0.930 . S
H327 C307 0.930 . S
H328 C319 0.929 . S
H329 C322 0.930 . S
C330 C331 1.351 . S
C330 N333 1.368 . S
C330 H335 0.931 . S
C331 C330 1.351 . S
C331 N332 1.373 . S
C331 H359 0.930 . S
N332 C331 1.373 . S
N332 C334 1.340 . S
N333 C330 1.368 . S
N333 C334 1.321 . S
N333 Co336 2.135 . S
C334 N332 1.340 . S
C334 N333 1.321 . S
C334 H358 0.930 . S
H335 C330 0.931 . S
Co336 N333 2.135 . S
Co336 N339 2.121 . S
Co336 O344 2.055 . S
Co336 O347 2.039 . S
Co336 N350 2.140 . S
C337 O338 1.227 . S
C337 O347 1.265 . S
O338 C337 1.227 . S
N339 Co336 2.121 . S
N339 C341 1.375 . S
N339 C342 1.313 . S
C340 C341 1.338 . S
C340 N343 1.377 . S
C340 H360 0.930 . S
C341 N339 1.375 . S
C341 C340 1.338 . S
C341 H345 0.931 . S
C342 N339 1.313 . S
C342 N343 1.344 . S
C342 H346 0.930 . S
N343 C340 1.377 . S
N343 C342 1.344 . S
O344 Co336 2.055 . S
O344 C348 1.253 . S
H345 C341 0.931 . S
H346 C342 0.930 . S
O347 Co336 2.039 . S
O347 C337 1.265 . S
C348 O344 1.253 . S
C348 O349 1.227 . S
O349 C348 1.227 . S
N350 Co336 2.140 . S
N350 C353 1.346 . S
N350 C354 1.345 . S
C351 C352 1.387 . S
C351 C355 1.391 . S
C352 C351 1.387 . S
C352 C353 1.369 . S
C352 H361 0.929 . S
C353 N350 1.346 . S
C353 C352 1.369 . S
C353 H356 0.928 . S
C354 N350 1.345 . S
C354 C355 1.371 . S
C354 H357 0.931 . S
C355 C351 1.391 . S
C355 C354 1.371 . S
C355 H362 0.930 . S
H356 C353 0.928 . S
H357 C354 0.931 . S
H358 C334 0.930 . S
H359 C331 0.930 . S
H360 C340 0.930 . S
H361 C352 0.929 . S
H362 C355 0.930 . S
C363 C364 1.351 . S
C363 N366 1.368 . S
C363 H368 0.931 . S
C364 C363 1.351 . S
C364 N365 1.373 . S
C364 H392 0.930 . S
N365 C364 1.373 . S
N365 C367 1.340 . S
N366 C363 1.368 . S
N366 C367 1.321 . S
N366 Co369 2.135 . S
C367 N365 1.340 . S
C367 N366 1.321 . S
C367 H391 0.930 . S
H368 C363 0.931 . S
Co369 N366 2.135 . S
Co369 N372 2.121 . S
Co369 O377 2.055 . S
Co369 O380 2.039 . S
Co369 N383 2.140 . S
C370 O371 1.227 . S
C370 O380 1.265 . S
O371 C370 1.227 . S
N372 Co369 2.121 . S
N372 C374 1.375 . S
N372 C375 1.313 . S
C373 C374 1.338 . S
C373 N376 1.377 . S
C373 H393 0.930 . S
C374 N372 1.375 . S
C374 C373 1.338 . S
C374 H378 0.931 . S
C375 N372 1.313 . S
C375 N376 1.344 . S
C375 H379 0.930 . S
N376 C373 1.377 . S
N376 C375 1.344 . S
O377 Co369 2.055 . S
O377 C381 1.253 . S
H378 C374 0.931 . S
H379 C375 0.930 . S
O380 Co369 2.039 . S
O380 C370 1.265 . S
C381 O377 1.253 . S
C381 O382 1.227 . S
O382 C381 1.227 . S
N383 Co369 2.140 . S
N383 C386 1.346 . S
N383 C387 1.345 . S
C384 C385 1.387 . S
C384 C388 1.391 . S
C385 C384 1.387 . S
C385 C386 1.369 . S
C385 H394 0.929 . S
C386 N383 1.346 . S
C386 C385 1.369 . S
C386 H389 0.928 . S
C387 N383 1.345 . S
C387 C388 1.371 . S
C387 H390 0.931 . S
C388 C384 1.391 . S
C388 C387 1.371 . S
C388 H395 0.930 . S
H389 C386 0.928 . S
H390 C387 0.931 . S
H391 C367 0.930 . S
H392 C364 0.930 . S
H393 C373 0.930 . S
H394 C385 0.929 . S
H395 C388 0.930 . S
C396 C397 1.351 . S
C396 N399 1.368 . S
C396 H401 0.931 . S
C397 C396 1.351 . S
C397 N398 1.373 . S
C397 H425 0.930 . S
N398 C397 1.373 . S
N398 C400 1.340 . S
N399 C396 1.368 . S
N399 C400 1.321 . S
N399 Co402 2.135 . S
C400 N398 1.340 . S
C400 N399 1.321 . S
C400 H424 0.930 . S
H401 C396 0.931 . S
Co402 N399 2.135 . S
Co402 N405 2.121 . S
Co402 O410 2.055 . S
Co402 O413 2.039 . S
Co402 N416 2.140 . S
C403 O404 1.227 . S
C403 O413 1.265 . S
O404 C403 1.227 . S
N405 Co402 2.121 . S
N405 C407 1.375 . S
N405 C408 1.313 . S
C406 C407 1.338 . S
C406 N409 1.377 . S
C406 H426 0.930 . S
C407 N405 1.375 . S
C407 C406 1.338 . S
C407 H411 0.931 . S
C408 N405 1.313 . S
C408 N409 1.344 . S
C408 H412 0.930 . S
N409 C406 1.377 . S
N409 C408 1.344 . S
O410 Co402 2.055 . S
O410 C414 1.253 . S
H411 C407 0.931 . S
H412 C408 0.930 . S
O413 Co402 2.039 . S
O413 C403 1.265 . S
C414 O410 1.253 . S
C414 O415 1.227 . S
O415 C414 1.227 . S
N416 Co402 2.140 . S
N416 C419 1.346 . S
N416 C420 1.345 . S
C417 C418 1.387 . S
C417 C421 1.391 . S
C418 C417 1.387 . S
C418 C419 1.369 . S
C418 H427 0.929 . S
C419 N416 1.346 . S
C419 C418 1.369 . S
C419 H422 0.928 . S
C420 N416 1.345 . S
C420 C421 1.371 . S
C420 H423 0.931 . S
C421 C417 1.391 . S
C421 C420 1.371 . S
C421 H428 0.930 . S
H422 C419 0.928 . S
H423 C420 0.931 . S
H424 C400 0.930 . S
H425 C397 0.930 . S
H426 C406 0.930 . S
H427 C418 0.929 . S
H428 C421 0.930 . S
C429 C430 1.351 . S
C429 N432 1.368 . S
C429 H434 0.931 . S
C430 C429 1.351 . S
C430 N431 1.373 . S
C430 H458 0.930 . S
N431 C430 1.373 . S
N431 C433 1.340 . S
N432 C429 1.368 . S
N432 C433 1.321 . S
N432 Co435 2.135 . S
C433 N431 1.340 . S
C433 N432 1.321 . S
C433 H457 0.930 . S
H434 C429 0.931 . S
Co435 N432 2.135 . S
Co435 N438 2.121 . S
Co435 O443 2.055 . S
Co435 O446 2.039 . S
Co435 N449 2.140 . S
C436 O437 1.227 . S
C436 O446 1.265 . S
O437 C436 1.227 . S
N438 Co435 2.121 . S
N438 C440 1.375 . S
N438 C441 1.313 . S
C439 C440 1.338 . S
C439 N442 1.377 . S
C439 H459 0.930 . S
C440 N438 1.375 . S
C440 C439 1.338 . S
C440 H444 0.931 . S
C441 N438 1.313 . S
C441 N442 1.344 . S
C441 H445 0.930 . S
N442 C439 1.377 . S
N442 C441 1.344 . S
O443 Co435 2.055 . S
O443 C447 1.253 . S
H444 C440 0.931 . S
H445 C441 0.930 . S
O446 Co435 2.039 . S
O446 C436 1.265 . S
C447 O443 1.253 . S
C447 O448 1.227 . S
O448 C447 1.227 . S
N449 Co435 2.140 . S
N449 C452 1.346 . S
N449 C453 1.345 . S
C450 C451 1.387 . S
C450 C454 1.391 . S
C451 C450 1.387 . S
C451 C452 1.369 . S
C451 H460 0.929 . S
C452 N449 1.346 . S
C452 C451 1.369 . S
C452 H455 0.928 . S
C453 N449 1.345 . S
C453 C454 1.371 . S
C453 H456 0.931 . S
C454 C450 1.391 . S
C454 C453 1.371 . S
C454 H461 0.930 . S
H455 C452 0.928 . S
H456 C453 0.931 . S
H457 C433 0.930 . S
H458 C430 0.930 . S
H459 C439 0.930 . S
H460 C451 0.929 . S
H461 C454 0.930 . S
C462 C463 1.351 . S
C462 N465 1.368 . S
C462 H467 0.931 . S
C463 C462 1.351 . S
C463 N464 1.373 . S
C463 H491 0.930 . S
N464 C463 1.373 . S
N464 C466 1.340 . S
N465 C462 1.368 . S
N465 C466 1.321 . S
N465 Co468 2.135 . S
C466 N464 1.340 . S
C466 N465 1.321 . S
C466 H490 0.930 . S
H467 C462 0.931 . S
Co468 N465 2.135 . S
Co468 N471 2.121 . S
Co468 O476 2.055 . S
Co468 O479 2.039 . S
Co468 N482 2.140 . S
C469 O470 1.227 . S
C469 O479 1.265 . S
O470 C469 1.227 . S
N471 Co468 2.121 . S
N471 C473 1.375 . S
N471 C474 1.313 . S
C472 C473 1.338 . S
C472 N475 1.377 . S
C472 H492 0.930 . S
C473 N471 1.375 . S
C473 C472 1.338 . S
C473 H477 0.931 . S
C474 N471 1.313 . S
C474 N475 1.344 . S
C474 H478 0.930 . S
N475 C472 1.377 . S
N475 C474 1.344 . S
O476 Co468 2.055 . S
O476 C480 1.253 . S
H477 C473 0.931 . S
H478 C474 0.930 . S
O479 Co468 2.039 . S
O479 C469 1.265 . S
C480 O476 1.253 . S
C480 O481 1.227 . S
O481 C480 1.227 . S
N482 Co468 2.140 . S
N482 C485 1.346 . S
N482 C486 1.345 . S
C483 C484 1.387 . S
C483 C487 1.391 . S
C484 C483 1.387 . S
C484 C485 1.369 . S
C484 H493 0.929 . S
C485 N482 1.346 . S
C485 C484 1.369 . S
C485 H488 0.928 . S
C486 N482 1.345 . S
C486 C487 1.371 . S
C486 H489 0.931 . S
C487 C483 1.391 . S
C487 C486 1.371 . S
C487 H494 0.930 . S
H488 C485 0.928 . S
H489 C486 0.931 . S
H490 C466 0.930 . S
H491 C463 0.930 . S
H492 C472 0.930 . S
H493 C484 0.929 . S
H494 C487 0.930 . S
C495 C496 1.351 . S
C495 N498 1.368 . S
C495 H500 0.931 . S
C496 C495 1.351 . S
C496 N497 1.373 . S
C496 H524 0.930 . S
N497 C496 1.373 . S
N497 C499 1.340 . S
N498 C495 1.368 . S
N498 C499 1.321 . S
N498 Co501 2.135 . S
C499 N497 1.340 . S
C499 N498 1.321 . S
C499 H523 0.930 . S
H500 C495 0.931 . S
Co501 N498 2.135 . S
Co501 N504 2.121 . S
Co501 O509 2.055 . S
Co501 O512 2.039 . S
Co501 N515 2.140 . S
C502 O503 1.227 . S
C502 O512 1.265 . S
O503 C502 1.227 . S
N504 Co501 2.121 . S
N504 C506 1.375 . S
N504 C507 1.313 . S
C505 C506 1.338 . S
C505 N508 1.377 . S
C505 H525 0.930 . S
C506 N504 1.375 . S
C506 C505 1.338 . S
C506 H510 0.931 . S
C507 N504 1.313 . S
C507 N508 1.344 . S
C507 H511 0.930 . S
N508 C505 1.377 . S
N508 C507 1.344 . S
O509 Co501 2.055 . S
O509 C513 1.253 . S
H510 C506 0.931 . S
H511 C507 0.930 . S
O512 Co501 2.039 . S
O512 C502 1.265 . S
C513 O509 1.253 . S
C513 O514 1.227 . S
O514 C513 1.227 . S
N515 Co501 2.140 . S
N515 C518 1.346 . S
N515 C519 1.345 . S
C516 C517 1.387 . S
C516 C520 1.391 . S
C517 C516 1.387 . S
C517 C518 1.369 . S
C517 H526 0.929 . S
C518 N515 1.346 . S
C518 C517 1.369 . S
C518 H521 0.928 . S
C519 N515 1.345 . S
C519 C520 1.371 . S
C519 H522 0.931 . S
C520 C516 1.391 . S
C520 C519 1.371 . S
C520 H527 0.930 . S
H521 C518 0.928 . S
H522 C519 0.931 . S
H523 C499 0.930 . S
H524 C496 0.930 . S
H525 C505 0.930 . S
H526 C517 0.929 . S
H527 C520 0.930 . S
C528 C529 1.351 . S
C528 N531 1.368 . S
C528 H533 0.931 . S
C529 C528 1.351 . S
C529 N530 1.373 . S
C529 H557 0.930 . S
N530 C529 1.373 . S
N530 C532 1.340 . S
N531 C528 1.368 . S
N531 C532 1.321 . S
N531 Co534 2.135 . S
C532 N530 1.340 . S
C532 N531 1.321 . S
C532 H556 0.930 . S
H533 C528 0.931 . S
Co534 N531 2.135 . S
Co534 N537 2.121 . S
Co534 O542 2.055 . S
Co534 O545 2.039 . S
Co534 N548 2.140 . S
C535 O536 1.227 . S
C535 O545 1.265 . S
O536 C535 1.227 . S
N537 Co534 2.121 . S
N537 C539 1.375 . S
N537 C540 1.313 . S
C538 C539 1.338 . S
C538 N541 1.377 . S
C538 H558 0.930 . S
C539 N537 1.375 . S
C539 C538 1.338 . S
C539 H543 0.931 . S
C540 N537 1.313 . S
C540 N541 1.344 . S
C540 H544 0.930 . S
N541 C538 1.377 . S
N541 C540 1.344 . S
O542 Co534 2.055 . S
O542 C546 1.253 . S
H543 C539 0.931 . S
H544 C540 0.930 . S
O545 Co534 2.039 . S
O545 C535 1.265 . S
C546 O542 1.253 . S
C546 O547 1.227 . S
O547 C546 1.227 . S
N548 Co534 2.140 . S
N548 C551 1.346 . S
N548 C552 1.345 . S
C549 C550 1.387 . S
C549 C553 1.391 . S
C550 C549 1.387 . S
C550 C551 1.369 . S
C550 H559 0.929 . S
C551 N548 1.346 . S
C551 C550 1.369 . S
C551 H554 0.928 . S
C552 N548 1.345 . S
C552 C553 1.371 . S
C552 H555 0.931 . S
C553 C549 1.391 . S
C553 C552 1.371 . S
C553 H560 0.930 . S
H554 C551 0.928 . S
H555 C552 0.931 . S
H556 C532 0.930 . S
H557 C529 0.930 . S
H558 C538 0.930 . S
H559 C550 0.929 . S
H560 C553 0.930 . S
C561 C562 1.351 . S
C561 N564 1.368 . S
C561 H566 0.931 . S
C562 C561 1.351 . S
C562 N563 1.373 . S
C562 H590 0.930 . S
N563 C562 1.373 . S
N563 C565 1.340 . S
N564 C561 1.368 . S
N564 C565 1.321 . S
N564 Co567 2.135 . S
C565 N563 1.340 . S
C565 N564 1.321 . S
C565 H589 0.930 . S
H566 C561 0.931 . S
Co567 N564 2.135 . S
Co567 N570 2.121 . S
Co567 O575 2.055 . S
Co567 O578 2.039 . S
Co567 N581 2.140 . S
C568 O569 1.227 . S
C568 O578 1.265 . S
O569 C568 1.227 . S
N570 Co567 2.121 . S
N570 C572 1.375 . S
N570 C573 1.313 . S
C571 C572 1.338 . S
C571 N574 1.377 . S
C571 H591 0.930 . S
C572 N570 1.375 . S
C572 C571 1.338 . S
C572 H576 0.931 . S
C573 N570 1.313 . S
C573 N574 1.344 . S
C573 H577 0.930 . S
N574 C571 1.377 . S
N574 C573 1.344 . S
O575 Co567 2.055 . S
O575 C579 1.253 . S
H576 C572 0.931 . S
H577 C573 0.930 . S
O578 Co567 2.039 . S
O578 C568 1.265 . S
C579 O575 1.253 . S
C579 O580 1.227 . S
O580 C579 1.227 . S
N581 Co567 2.140 . S
N581 C584 1.346 . S
N581 C585 1.345 . S
C582 C583 1.387 . S
C582 C586 1.391 . S
C583 C582 1.387 . S
C583 C584 1.369 . S
C583 H592 0.929 . S
C584 N581 1.346 . S
C584 C583 1.369 . S
C584 H587 0.928 . S
C585 N581 1.345 . S
C585 C586 1.371 . S
C585 H588 0.931 . S
C586 C582 1.391 . S
C586 C585 1.371 . S
C586 H593 0.930 . S
H587 C584 0.928 . S
H588 C585 0.931 . S
H589 C565 0.930 . S
H590 C562 0.930 . S
H591 C571 0.930 . S
H592 C583 0.929 . S
H593 C586 0.930 . S
C594 C595 1.351 . S
C594 N597 1.368 . S
C594 H599 0.931 . S
C595 C594 1.351 . S
C595 N596 1.373 . S
C595 H623 0.930 . S
N596 C595 1.373 . S
N596 C598 1.340 . S
N597 C594 1.368 . S
N597 C598 1.321 . S
N597 Co600 2.135 . S
C598 N596 1.340 . S
C598 N597 1.321 . S
C598 H622 0.930 . S
H599 C594 0.931 . S
Co600 N597 2.135 . S
Co600 N603 2.121 . S
Co600 O608 2.055 . S
Co600 O611 2.039 . S
Co600 N614 2.140 . S
C601 O602 1.227 . S
C601 O611 1.265 . S
O602 C601 1.227 . S
N603 Co600 2.121 . S
N603 C605 1.375 . S
N603 C606 1.313 . S
C604 C605 1.338 . S
C604 N607 1.377 . S
C604 H624 0.930 . S
C605 N603 1.375 . S
C605 C604 1.338 . S
C605 H609 0.931 . S
C606 N603 1.313 . S
C606 N607 1.344 . S
C606 H610 0.930 . S
N607 C604 1.377 . S
N607 C606 1.344 . S
O608 Co600 2.055 . S
O608 C612 1.253 . S
H609 C605 0.931 . S
H610 C606 0.930 . S
O611 Co600 2.039 . S
O611 C601 1.265 . S
C612 O608 1.253 . S
C612 O613 1.227 . S
O613 C612 1.227 . S
N614 Co600 2.140 . S
N614 C617 1.346 . S
N614 C618 1.345 . S
C615 C616 1.387 . S
C615 C619 1.391 . S
C616 C615 1.387 . S
C616 C617 1.369 . S
C616 H625 0.929 . S
C617 N614 1.346 . S
C617 C616 1.369 . S
C617 H620 0.928 . S
C618 N614 1.345 . S
C618 C619 1.371 . S
C618 H621 0.931 . S
C619 C615 1.391 . S
C619 C618 1.371 . S
C619 H626 0.930 . S
H620 C617 0.928 . S
H621 C618 0.931 . S
H622 C598 0.930 . S
H623 C595 0.930 . S
H624 C604 0.930 . S
H625 C616 0.929 . S
H626 C619 0.930 . S
C627 C628 1.351 . S
C627 N630 1.368 . S
C627 H632 0.931 . S
C628 C627 1.351 . S
C628 N629 1.373 . S
C628 H656 0.930 . S
N629 C628 1.373 . S
N629 C631 1.340 . S
N630 C627 1.368 . S
N630 C631 1.321 . S
N630 Co633 2.135 . S
C631 N629 1.340 . S
C631 N630 1.321 . S
C631 H655 0.930 . S
H632 C627 0.931 . S
Co633 N630 2.135 . S
Co633 N636 2.121 . S
Co633 O641 2.055 . S
Co633 O644 2.039 . S
Co633 N647 2.140 . S
C634 O635 1.227 . S
C634 O644 1.265 . S
O635 C634 1.227 . S
N636 Co633 2.121 . S
N636 C638 1.375 . S
N636 C639 1.313 . S
C637 C638 1.338 . S
C637 N640 1.377 . S
C637 H657 0.930 . S
C638 N636 1.375 . S
C638 C637 1.338 . S
C638 H642 0.931 . S
C639 N636 1.313 . S
C639 N640 1.344 . S
C639 H643 0.930 . S
N640 C637 1.377 . S
N640 C639 1.344 . S
O641 Co633 2.055 . S
O641 C645 1.253 . S
H642 C638 0.931 . S
H643 C639 0.930 . S
O644 Co633 2.039 . S
O644 C634 1.265 . S
C645 O641 1.253 . S
C645 O646 1.227 . S
O646 C645 1.227 . S
N647 Co633 2.140 . S
N647 C650 1.346 . S
N647 C651 1.345 . S
C648 C649 1.387 . S
C648 C652 1.391 . S
C649 C648 1.387 . S
C649 C650 1.369 . S
C649 H658 0.929 . S
C650 N647 1.346 . S
C650 C649 1.369 . S
C650 H653 0.928 . S
C651 N647 1.345 . S
C651 C652 1.371 . S
C651 H654 0.931 . S
C652 C648 1.391 . S
C652 C651 1.371 . S
C652 H659 0.930 . S
H653 C650 0.928 . S
H654 C651 0.931 . S
H655 C631 0.930 . S
H656 C628 0.930 . S
H657 C637 0.930 . S
H658 C649 0.929 . S
H659 C652 0.930 . S
C660 C661 1.351 . S
C660 N663 1.368 . S
C660 H665 0.931 . S
C661 C660 1.351 . S
C661 N662 1.373 . S
C661 H689 0.930 . S
N662 C661 1.373 . S
N662 C664 1.340 . S
N663 C660 1.368 . S
N663 C664 1.321 . S
N663 Co666 2.135 . S
C664 N662 1.340 . S
C664 N663 1.321 . S
C664 H688 0.930 . S
H665 C660 0.931 . S
Co666 N663 2.135 . S
Co666 N669 2.121 . S
Co666 O674 2.055 . S
Co666 O677 2.039 . S
Co666 N680 2.140 . S
C667 O668 1.227 . S
C667 O677 1.265 . S
O668 C667 1.227 . S
N669 Co666 2.121 . S
N669 C671 1.375 . S
N669 C672 1.313 . S
C670 C671 1.338 . S
C670 N673 1.377 . S
C670 H690 0.930 . S
C671 N669 1.375 . S
C671 C670 1.338 . S
C671 H675 0.931 . S
C672 N669 1.313 . S
C672 N673 1.344 . S
C672 H676 0.930 . S
N673 C670 1.377 . S
N673 C672 1.344 . S
O674 Co666 2.055 . S
O674 C678 1.253 . S
H675 C671 0.931 . S
H676 C672 0.930 . S
O677 Co666 2.039 . S
O677 C667 1.265 . S
C678 O674 1.253 . S
C678 O679 1.227 . S
O679 C678 1.227 . S
N680 Co666 2.140 . S
N680 C683 1.346 . S
N680 C684 1.345 . S
C681 C682 1.387 . S
C681 C685 1.391 . S
C682 C681 1.387 . S
C682 C683 1.369 . S
C682 H691 0.929 . S
C683 N680 1.346 . S
C683 C682 1.369 . S
C683 H686 0.928 . S
C684 N680 1.345 . S
C684 C685 1.371 . S
C684 H687 0.931 . S
C685 C681 1.391 . S
C685 C684 1.371 . S
C685 H692 0.930 . S
H686 C683 0.928 . S
H687 C684 0.931 . S
H688 C664 0.930 . S
H689 C661 0.930 . S
H690 C670 0.930 . S
H691 C682 0.929 . S
H692 C685 0.930 . S
C693 C694 1.351 . S
C693 N696 1.368 . S
C693 H698 0.931 . S
C694 C693 1.351 . S
C694 N695 1.373 . S
C694 H722 0.930 . S
N695 C694 1.373 . S
N695 C697 1.340 . S
N696 C693 1.368 . S
N696 C697 1.321 . S
N696 Co699 2.135 . S
C697 N695 1.340 . S
C697 N696 1.321 . S
C697 H721 0.930 . S
H698 C693 0.931 . S
Co699 N696 2.135 . S
Co699 N702 2.121 . S
Co699 O707 2.055 . S
Co699 O710 2.039 . S
Co699 N713 2.140 . S
C700 O701 1.227 . S
C700 O710 1.265 . S
O701 C700 1.227 . S
N702 Co699 2.121 . S
N702 C704 1.375 . S
N702 C705 1.313 . S
C703 C704 1.338 . S
C703 N706 1.377 . S
C703 H723 0.930 . S
C704 N702 1.375 . S
C704 C703 1.338 . S
C704 H708 0.931 . S
C705 N702 1.313 . S
C705 N706 1.344 . S
C705 H709 0.930 . S
N706 C703 1.377 . S
N706 C705 1.344 . S
O707 Co699 2.055 . S
O707 C711 1.253 . S
H708 C704 0.931 . S
H709 C705 0.930 . S
O710 Co699 2.039 . S
O710 C700 1.265 . S
C711 O707 1.253 . S
C711 O712 1.227 . S
O712 C711 1.227 . S
N713 Co699 2.140 . S
N713 C716 1.346 . S
N713 C717 1.345 . S
C714 C715 1.387 . S
C714 C718 1.391 . S
C715 C714 1.387 . S
C715 C716 1.369 . S
C715 H724 0.929 . S
C716 N713 1.346 . S
C716 C715 1.369 . S
C716 H719 0.928 . S
C717 N713 1.345 . S
C717 C718 1.371 . S
C717 H720 0.931 . S
C718 C714 1.391 . S
C718 C717 1.371 . S
C718 H725 0.930 . S
H719 C716 0.928 . S
H720 C717 0.931 . S
H721 C697 0.930 . S
H722 C694 0.930 . S
H723 C703 0.930 . S
H724 C715 0.929 . S
H725 C718 0.930 . S
C726 C727 1.351 . S
C726 N729 1.368 . S
C726 H731 0.931 . S
C727 C726 1.351 . S
C727 N728 1.373 . S
C727 H755 0.930 . S
N728 C727 1.373 . S
N728 C730 1.340 . S
N729 C726 1.368 . S
N729 C730 1.321 . S
N729 Co732 2.135 . S
C730 N728 1.340 . S
C730 N729 1.321 . S
C730 H754 0.930 . S
H731 C726 0.931 . S
Co732 N729 2.135 . S
Co732 N735 2.121 . S
Co732 O740 2.055 . S
Co732 O743 2.039 . S
Co732 N746 2.140 . S
C733 O734 1.227 . S
C733 O743 1.265 . S
O734 C733 1.227 . S
N735 Co732 2.121 . S
N735 C737 1.375 . S
N735 C738 1.313 . S
C736 C737 1.338 . S
C736 N739 1.377 . S
C736 H756 0.930 . S
C737 N735 1.375 . S
C737 C736 1.338 . S
C737 H741 0.931 . S
C738 N735 1.313 . S
C738 N739 1.344 . S
C738 H742 0.930 . S
N739 C736 1.377 . S
N739 C738 1.344 . S
O740 Co732 2.055 . S
O740 C744 1.253 . S
H741 C737 0.931 . S
H742 C738 0.930 . S
O743 Co732 2.039 . S
O743 C733 1.265 . S
C744 O740 1.253 . S
C744 O745 1.227 . S
O745 C744 1.227 . S
N746 Co732 2.140 . S
N746 C749 1.346 . S
N746 C750 1.345 . S
C747 C748 1.387 . S
C747 C751 1.391 . S
C748 C747 1.387 . S
C748 C749 1.369 . S
C748 H757 0.929 . S
C749 N746 1.346 . S
C749 C748 1.369 . S
C749 H752 0.928 . S
C750 N746 1.345 . S
C750 C751 1.371 . S
C750 H753 0.931 . S
C751 C747 1.391 . S
C751 C750 1.371 . S
C751 H758 0.930 . S
H752 C749 0.928 . S
H753 C750 0.931 . S
H754 C730 0.930 . S
H755 C727 0.930 . S
H756 C736 0.930 . S
H757 C748 0.929 . S
H758 C751 0.930 . S
C759 C760 1.351 . S
C759 N762 1.368 . S
C759 H764 0.931 . S
C760 C759 1.351 . S
C760 N761 1.373 . S
C760 H788 0.930 . S
N761 C760 1.373 . S
N761 C763 1.340 . S
N762 C759 1.368 . S
N762 C763 1.321 . S
N762 Co765 2.135 . S
C763 N761 1.340 . S
C763 N762 1.321 . S
C763 H787 0.930 . S
H764 C759 0.931 . S
Co765 N762 2.135 . S
Co765 N768 2.121 . S
Co765 O773 2.055 . S
Co765 O776 2.039 . S
Co765 N779 2.140 . S
C766 O767 1.227 . S
C766 O776 1.265 . S
O767 C766 1.227 . S
N768 Co765 2.121 . S
N768 C770 1.375 . S
N768 C771 1.313 . S
C769 C770 1.338 . S
C769 N772 1.377 . S
C769 H789 0.930 . S
C770 N768 1.375 . S
C770 C769 1.338 . S
C770 H774 0.931 . S
C771 N768 1.313 . S
C771 N772 1.344 . S
C771 H775 0.930 . S
N772 C769 1.377 . S
N772 C771 1.344 . S
O773 Co765 2.055 . S
O773 C777 1.253 . S
H774 C770 0.931 . S
H775 C771 0.930 . S
O776 Co765 2.039 . S
O776 C766 1.265 . S
C777 O773 1.253 . S
C777 O778 1.227 . S
O778 C777 1.227 . S
N779 Co765 2.140 . S
N779 C782 1.346 . S
N779 C783 1.345 . S
C780 C781 1.387 . S
C780 C784 1.391 . S
C781 C780 1.387 . S
C781 C782 1.369 . S
C781 H790 0.929 . S
C782 N779 1.346 . S
C782 C781 1.369 . S
C782 H785 0.928 . S
C783 N779 1.345 . S
C783 C784 1.371 . S
C783 H786 0.931 . S
C784 C780 1.391 . S
C784 C783 1.371 . S
C784 H791 0.930 . S
H785 C782 0.928 . S
H786 C783 0.931 . S
H787 C763 0.930 . S
H788 C760 0.930 . S
H789 C769 0.930 . S
H790 C781 0.929 . S
H791 C784 0.930 . S
H792 C798 0.930 . S
H793 C802 0.930 . S
H794 C807 0.929 . S
H795 C805 0.929 . S
H796 C800 0.929 . S
H797 C806 0.929 . S
C798 H792 0.930 . S
C798 C799 1.367 . S
C798 C806 1.378 . S
C799 C798 1.367 . S
C799 C807 1.433 . S
C800 H796 0.929 . S
C800 C802 1.378 . S
C800 C804 1.350 . S
C801 C804 1.463 1_545 S
C801 C806 1.350 . S
C801 N809 1.427 . S
C802 H793 0.930 . S
C802 C800 1.378 . S
C802 C803 1.367 . S
C803 C802 1.367 . S
C803 C805 1.433 . S
C804 C800 1.350 . S
C804 C801 1.463 1_565 S
C804 N808 1.427 . S
C805 H795 0.929 . S
C805 C803 1.433 . S
C805 N808 1.384 . S
C806 H797 0.929 . S
C806 C798 1.378 . S
C806 C801 1.350 . S
C807 H794 0.929 . S
C807 C799 1.433 . S
C807 N809 1.384 . S
N808 C804 1.427 . S
N808 C805 1.384 . S
N809 C801 1.427 . S
N809 C807 1.384 . S
H810 C816 0.930 . S
H811 C820 0.930 . S
H812 C825 0.929 . S
H813 C823 0.929 . S
H814 C818 0.929 . S
H815 C824 0.929 . S
C816 H810 0.930 . S
C816 C817 1.367 . S
C816 C824 1.378 . S
C817 C816 1.367 . S
C817 C825 1.433 . S
C818 H814 0.929 . S
C818 C820 1.378 . S
C818 C822 1.350 . S
C819 C822 1.463 . S
C819 C824 1.350 . S
C819 N827 1.427 . S
C820 H811 0.930 . S
C820 C818 1.378 . S
C820 C821 1.367 . S
C821 C820 1.367 . S
C821 C823 1.433 . S
C822 C818 1.350 . S
C822 C819 1.463 . S
C822 N826 1.427 . S
C823 H813 0.929 . S
C823 C821 1.433 . S
C823 N826 1.384 . S
C824 H815 0.929 . S
C824 C816 1.378 . S
C824 C819 1.350 . S
C825 H812 0.929 . S
C825 C817 1.433 . S
C825 N827 1.384 . S
N826 C822 1.427 . S
N826 C823 1.384 . S
N827 C819 1.427 . S
N827 C825 1.384 . S
H828 C834 0.930 . S
H829 C838 0.930 . S
H830 C843 0.929 . S
H831 C841 0.929 . S
H832 C836 0.929 . S
H833 C842 0.929 . S
C834 H828 0.930 . S
C834 C835 1.367 . S
C834 C842 1.378 . S
C835 C834 1.367 . S
C835 C843 1.433 . S
C836 H832 0.929 . S
C836 C838 1.378 . S
C836 C840 1.350 . S
C837 C840 1.463 1_455 S
C837 C842 1.350 . S
C837 N845 1.427 . S
C838 H829 0.930 . S
C838 C836 1.378 . S
C838 C839 1.367 . S
C839 C838 1.367 . S
C839 C841 1.433 . S
C840 C836 1.350 . S
C840 C837 1.463 1_655 S
C840 N844 1.427 . S
C841 H831 0.929 . S
C841 C839 1.433 . S
C841 N844 1.384 . S
C842 H833 0.929 . S
C842 C834 1.378 . S
C842 C837 1.350 . S
C843 H830 0.929 . S
C843 C835 1.433 . S
C843 N845 1.384 . S
N844 C840 1.427 . S
N844 C841 1.384 . S
N845 C837 1.427 . S
N845 C843 1.384 . S
H846 C852 0.930 . S
H847 C856 0.930 . S
H848 C861 0.929 . S
H849 C859 0.929 . S
H850 C854 0.929 . S
H851 C860 0.929 . S
C852 H846 0.930 . S
C852 C853 1.367 . S
C852 C860 1.378 . S
C853 C852 1.367 . S
C853 C861 1.433 . S
C854 H850 0.929 . S
C854 C856 1.378 . S
C854 C858 1.350 . S
C855 C858 1.463 1_455 S
C855 C860 1.350 . S
C855 N863 1.427 . S
C856 H847 0.930 . S
C856 C854 1.378 . S
C856 C857 1.367 . S
C857 C856 1.367 . S
C857 C859 1.433 . S
C858 C854 1.350 . S
C858 C855 1.463 1_655 S
C858 N862 1.427 . S
C859 H849 0.929 . S
C859 C857 1.433 . S
C859 N862 1.384 . S
C860 H851 0.929 . S
C860 C852 1.378 . S
C860 C855 1.350 . S
C861 H848 0.929 . S
C861 C853 1.433 . S
C861 N863 1.384 . S
N862 C858 1.427 . S
N862 C859 1.384 . S
N863 C855 1.427 . S
N863 C861 1.384 . S
H864 C870 0.930 . S
H865 C874 0.930 . S
H866 C879 0.929 . S
H867 C877 0.929 . S
H868 C872 0.929 . S
H869 C878 0.929 . S
C870 H864 0.930 . S
C870 C871 1.367 . S
C870 C878 1.378 . S
C871 C870 1.367 . S
C871 C879 1.433 . S
C872 H868 0.929 . S
C872 C874 1.378 . S
C872 C876 1.350 . S
C873 C876 1.463 1_565 S
C873 C878 1.350 . S
C873 N881 1.427 . S
C874 H865 0.930 . S
C874 C872 1.378 . S
C874 C875 1.367 . S
C875 C874 1.367 . S
C875 C877 1.433 . S
C876 C872 1.350 . S
C876 C873 1.463 1_545 S
C876 N880 1.427 . S
C877 H867 0.929 . S
C877 C875 1.433 . S
C877 N880 1.384 . S
C878 H869 0.929 . S
C878 C870 1.378 . S
C878 C873 1.350 . S
C879 H866 0.929 . S
C879 C871 1.433 . S
C879 N881 1.384 . S
N880 C876 1.427 . S
N880 C877 1.384 . S
N881 C873 1.427 . S
N881 C879 1.384 . S
H882 C888 0.930 . S
H883 C892 0.930 . S
H884 C897 0.929 . S
H885 C895 0.929 . S
H886 C890 0.929 . S
H887 C896 0.929 . S
C888 H882 0.930 . S
C888 C889 1.367 . S
C888 C896 1.378 . S
C889 C888 1.367 . S
C889 C897 1.433 . S
C890 H886 0.929 . S
C890 C892 1.378 . S
C890 C894 1.350 . S
C891 C894 1.463 . S
C891 C896 1.350 . S
C891 N899 1.427 . S
C892 H883 0.930 . S
C892 C890 1.378 . S
C892 C893 1.367 . S
C893 C892 1.367 . S
C893 C895 1.433 . S
C894 C890 1.350 . S
C894 C891 1.463 . S
C894 N898 1.427 . S
C895 H885 0.929 . S
C895 C893 1.433 . S
C895 N898 1.384 . S
C896 H887 0.929 . S
C896 C888 1.378 . S
C896 C891 1.350 . S
C897 H884 0.929 . S
C897 C889 1.433 . S
C897 N899 1.384 . S
N898 C894 1.427 . S
N898 C895 1.384 . S
N899 C891 1.427 . S
N899 C897 1.384 . S
H900 C906 0.930 . S
H901 C910 0.930 . S
H902 C915 0.929 . S
H903 C913 0.929 . S
H904 C908 0.929 . S
H905 C914 0.929 . S
C906 H900 0.930 . S
C906 C907 1.367 . S
C906 C914 1.378 . S
C907 C906 1.367 . S
C907 C915 1.433 . S
C908 H904 0.929 . S
C908 C910 1.378 . S
C908 C912 1.350 . S
C909 C912 1.463 1_545 S
C909 C914 1.350 . S
C909 N917 1.427 . S
C910 H901 0.930 . S
C910 C908 1.378 . S
C910 C911 1.367 . S
C911 C910 1.367 . S
C911 C913 1.433 . S
C912 C908 1.350 . S
C912 C909 1.463 1_565 S
C912 N916 1.427 . S
C913 H903 0.929 . S
C913 C911 1.433 . S
C913 N916 1.384 . S
C914 H905 0.929 . S
C914 C906 1.378 . S
C914 C909 1.350 . S
C915 H902 0.929 . S
C915 C907 1.433 . S
C915 N917 1.384 . S
N916 C912 1.427 . S
N916 C913 1.384 . S
N917 C909 1.427 . S
N917 C915 1.384 . S
H918 C924 0.930 . S
H919 C928 0.930 . S
H920 C933 0.929 . S
H921 C931 0.929 . S
H922 C926 0.929 . S
H923 C932 0.929 . S
C924 H918 0.930 . S
C924 C925 1.367 . S
C924 C932 1.378 . S
C925 C924 1.367 . S
C925 C933 1.433 . S
C926 H922 0.929 . S
C926 C928 1.378 . S
C926 C930 1.350 . S
C927 C930 1.463 . S
C927 C932 1.350 . S
C927 N935 1.427 . S
C928 H919 0.930 . S
C928 C926 1.378 . S
C928 C929 1.367 . S
C929 C928 1.367 . S
C929 C931 1.433 . S
C930 C926 1.350 . S
C930 C927 1.463 . S
C930 N934 1.427 . S
C931 H921 0.929 . S
C931 C929 1.433 . S
C931 N934 1.384 . S
C932 H923 0.929 . S
C932 C924 1.378 . S
C932 C927 1.350 . S
C933 H920 0.929 . S
C933 C925 1.433 . S
C933 N935 1.384 . S
N934 C930 1.427 . S
N934 C931 1.384 . S
N935 C927 1.427 . S
N935 C933 1.384 . S
H936 C942 0.930 . S
H937 C946 0.930 . S
H938 C951 0.929 . S
H939 C949 0.929 . S
H940 C944 0.929 . S
H941 C950 0.929 . S
C942 H936 0.930 . S
C942 C943 1.367 . S
C942 C950 1.378 . S
C943 C942 1.367 . S
C943 C951 1.433 . S
C944 H940 0.929 . S
C944 C946 1.378 . S
C944 C948 1.350 . S
C945 C948 1.463 1_655 S
C945 C950 1.350 . S
C945 N953 1.427 . S
C946 H937 0.930 . S
C946 C944 1.378 . S
C946 C947 1.367 . S
C947 C946 1.367 . S
C947 C949 1.433 . S
C948 C944 1.350 . S
C948 C945 1.463 1_455 S
C948 N952 1.427 . S
C949 H939 0.929 . S
C949 C947 1.433 . S
C949 N952 1.384 . S
C950 H941 0.929 . S
C950 C942 1.378 . S
C950 C945 1.350 . S
C951 H938 0.929 . S
C951 C943 1.433 . S
C951 N953 1.384 . S
N952 C948 1.427 . S
N952 C949 1.384 . S
N953 C945 1.427 . S
N953 C951 1.384 . S
H954 C960 0.930 . S
H955 C964 0.930 . S
H956 C969 0.929 . S
H957 C967 0.929 . S
H958 C962 0.929 1_655 S
H959 C968 0.929 1_455 S
C960 H954 0.930 . S
C960 C961 1.367 . S
C960 C968 1.378 . S
C961 C960 1.367 . S
C961 C969 1.433 . S
C962 H958 0.929 1_455 S
C962 C964 1.378 . S
C962 C966 1.350 . S
C963 C966 1.463 1_655 S
C963 C968 1.350 . S
C963 N971 1.427 . S
C964 H955 0.930 . S
C964 C962 1.378 . S
C964 C965 1.367 . S
C965 C964 1.367 . S
C965 C967 1.433 . S
C966 C962 1.350 . S
C966 C963 1.463 1_455 S
C966 N970 1.427 . S
C967 H957 0.929 . S
C967 C965 1.433 . S
C967 N970 1.384 . S
C968 H959 0.929 1_655 S
C968 C960 1.378 . S
C968 C963 1.350 . S
C969 H956 0.929 . S
C969 C961 1.433 . S
C969 N971 1.384 . S
N970 C966 1.427 . S
N970 C967 1.384 . S
N971 C963 1.427 . S
N971 C969 1.384 . S
H972 C978 0.930 . S
H973 C982 0.930 . S
H974 C987 0.929 . S
H975 C985 0.929 . S
H976 C980 0.929 1_545 S
H977 C986 0.929 1_565 S
C978 H972 0.930 . S
C978 C979 1.367 . S
C978 C986 1.378 . S
C979 C978 1.367 . S
C979 C987 1.433 . S
C980 H976 0.929 1_565 S
C980 C982 1.378 . S
C980 C984 1.350 . S
C981 C984 1.463 1_545 S
C981 C986 1.350 . S
C981 N989 1.427 . S
C982 H973 0.930 . S
C982 C980 1.378 . S
C982 C983 1.367 . S
C983 C982 1.367 . S
C983 C985 1.433 . S
C984 C980 1.350 . S
C984 C981 1.463 1_565 S
C984 N988 1.427 . S
C985 H975 0.929 . S
C985 C983 1.433 . S
C985 N988 1.384 . S
C986 H977 0.929 1_545 S
C986 C978 1.378 . S
C986 C981 1.350 . S
C987 H974 0.929 . S
C987 C979 1.433 . S
C987 N989 1.384 . S
N988 C984 1.427 . S
N988 C985 1.384 . S
N989 C981 1.427 . S
N989 C987 1.384 . S
H990 C996 0.930 . S
H991 C1000 0.930 . S
H992 C1005 0.929 . S
H993 C1003 0.929 . S
H994 C998 0.929 . S
H995 C1004 0.929 . S
C996 H990 0.930 . S
C996 C997 1.367 . S
C996 C1004 1.378 . S
C997 C996 1.367 . S
C997 C1005 1.433 . S
C998 H994 0.929 . S
C998 C1000 1.378 . S
C998 C1002 1.350 . S
C999 C1002 1.463 . S
C999 C1004 1.350 . S
C999 N1007 1.427 . S
C1000 H991 0.930 . S
C1000 C998 1.378 . S
C1000 C1001 1.367 . S
C1001 C1000 1.367 . S
C1001 C1003 1.433 . S
C1002 C998 1.350 . S
C1002 C999 1.463 . S
C1002 N1006 1.427 . S
C1003 H993 0.929 . S
C1003 C1001 1.433 . S
C1003 N1006 1.384 . S
C1004 H995 0.929 . S
C1004 C996 1.378 . S
C1004 C999 1.350 . S
C1005 H992 0.929 . S
C1005 C997 1.433 . S
C1005 N1007 1.384 . S
N1006 C1002 1.427 . S
N1006 C1003 1.384 . S
N1007 C999 1.427 . S
N1007 C1005 1.384 . S
H1008 C1014 0.930 . S
H1009 C1018 0.930 . S
H1010 C1023 0.929 . S
H1011 C1021 0.929 . S
H1012 C1016 0.929 . S
H1013 C1022 0.929 . S
C1014 H1008 0.930 . S
C1014 C1015 1.367 . S
C1014 C1022 1.378 . S
C1015 C1014 1.367 . S
C1015 C1023 1.433 . S
C1016 H1012 0.929 . S
C1016 C1018 1.378 . S
C1016 C1020 1.350 . S
C1017 C1020 1.463 . S
C1017 C1022 1.350 . S
C1017 N1025 1.427 . S
C1018 H1009 0.930 . S
C1018 C1016 1.378 . S
C1018 C1019 1.367 . S
C1019 C1018 1.367 . S
C1019 C1021 1.433 . S
C1020 C1016 1.350 . S
C1020 C1017 1.463 . S
C1020 N1024 1.427 . S
C1021 H1011 0.929 . S
C1021 C1019 1.433 . S
C1021 N1024 1.384 . S
C1022 H1013 0.929 . S
C1022 C1014 1.378 . S
C1022 C1017 1.350 . S
C1023 H1010 0.929 . S
C1023 C1015 1.433 . S
C1023 N1025 1.384 . S
N1024 C1020 1.427 . S
N1024 C1021 1.384 . S
N1025 C1017 1.427 . S
N1025 C1023 1.384 . S
H1026 C1032 0.930 . S
H1027 C1036 0.930 . S
H1028 C1041 0.929 . S
H1029 C1039 0.929 . S
H1030 C1034 0.929 . S
H1031 C1040 0.929 . S
C1032 H1026 0.930 . S
C1032 C1033 1.367 . S
C1032 C1040 1.378 . S
C1033 C1032 1.367 . S
C1033 C1041 1.433 . S
C1034 H1030 0.929 . S
C1034 C1036 1.378 . S
C1034 C1038 1.350 . S
C1035 C1038 1.463 . S
C1035 C1040 1.350 . S
C1035 N1043 1.427 . S
C1036 H1027 0.930 . S
C1036 C1034 1.378 . S
C1036 C1037 1.367 . S
C1037 C1036 1.367 . S
C1037 C1039 1.433 . S
C1038 C1034 1.350 . S
C1038 C1035 1.463 . S
C1038 N1042 1.427 . S
C1039 H1029 0.929 . S
C1039 C1037 1.433 . S
C1039 N1042 1.384 . S
C1040 H1031 0.929 . S
C1040 C1032 1.378 . S
C1040 C1035 1.350 . S
C1041 H1028 0.929 . S
C1041 C1033 1.433 . S
C1041 N1043 1.384 . S
N1042 C1038 1.427 . S
N1042 C1039 1.384 . S
N1043 C1035 1.427 . S
N1043 C1041 1.384 . S
H1044 C1050 0.930 . S
H1045 C1054 0.930 . S
H1046 C1059 0.929 . S
H1047 C1057 0.929 . S
H1048 C1052 0.929 . S
H1049 C1058 0.929 . S
C1050 H1044 0.930 . S
C1050 C1051 1.367 . S
C1050 C1058 1.378 . S
C1051 C1050 1.367 . S
C1051 C1059 1.433 . S
C1052 H1048 0.929 . S
C1052 C1054 1.378 . S
C1052 C1056 1.350 . S
C1053 C1056 1.463 . S
C1053 C1058 1.350 . S
C1053 N1061 1.427 . S
C1054 H1045 0.930 . S
C1054 C1052 1.378 . S
C1054 C1055 1.367 . S
C1055 C1054 1.367 . S
C1055 C1057 1.433 . S
C1056 C1052 1.350 . S
C1056 C1053 1.463 . S
C1056 N1060 1.427 . S
C1057 H1047 0.929 . S
C1057 C1055 1.433 . S
C1057 N1060 1.384 . S
C1058 H1049 0.929 . S
C1058 C1050 1.378 . S
C1058 C1053 1.350 . S
C1059 H1046 0.929 . S
C1059 C1051 1.433 . S
C1059 N1061 1.384 . S
N1060 C1056 1.427 . S
N1060 C1057 1.384 . S
N1061 C1053 1.427 . S
N1061 C1059 1.384 . S
H1062 C1068 0.930 . S
H1063 C1072 0.930 . S
H1064 C1077 0.929 . S
H1065 C1075 0.929 . S
H1066 C1070 0.929 . S
H1067 C1076 0.929 . S
C1068 H1062 0.930 . S
C1068 C1069 1.367 . S
C1068 C1076 1.378 . S
C1069 C1068 1.367 . S
C1069 C1077 1.433 . S
C1070 H1066 0.929 . S
C1070 C1072 1.378 . S
C1070 C1074 1.350 . S
C1071 C1074 1.463 . S
C1071 C1076 1.350 . S
C1071 N1079 1.427 . S
C1072 H1063 0.930 . S
C1072 C1070 1.378 . S
C1072 C1073 1.367 . S
C1073 C1072 1.367 . S
C1073 C1075 1.433 . S
C1074 C1070 1.350 . S
C1074 C1071 1.463 . S
C1074 N1078 1.427 . S
C1075 H1065 0.929 . S
C1075 C1073 1.433 . S
C1075 N1078 1.384 . S
C1076 H1067 0.929 . S
C1076 C1068 1.378 . S
C1076 C1071 1.350 . S
C1077 H1064 0.929 . S
C1077 C1069 1.433 . S
C1077 N1079 1.384 . S
N1078 C1074 1.427 . S
N1078 C1075 1.384 . S
N1079 C1071 1.427 . S
N1079 C1077 1.384 . S
H1080 C1086 0.930 . S
H1081 C1090 0.930 . S
H1082 C1095 0.929 . S
H1083 C1093 0.929 . S
H1084 C1088 0.929 . S
H1085 C1094 0.929 . S
C1086 H1080 0.930 . S
C1086 C1087 1.367 . S
C1086 C1094 1.378 . S
C1087 C1086 1.367 . S
C1087 C1095 1.433 . S
C1088 H1084 0.929 . S
C1088 C1090 1.378 . S
C1088 C1092 1.350 . S
C1089 C1092 1.463 . S
C1089 C1094 1.350 . S
C1089 N1097 1.427 . S
C1090 H1081 0.930 . S
C1090 C1088 1.378 . S
C1090 C1091 1.367 . S
C1091 C1090 1.367 . S
C1091 C1093 1.433 . S
C1092 C1088 1.350 . S
C1092 C1089 1.463 . S
C1092 N1096 1.427 . S
C1093 H1083 0.929 . S
C1093 C1091 1.433 . S
C1093 N1096 1.384 . S
C1094 H1085 0.929 . S
C1094 C1086 1.378 . S
C1094 C1089 1.350 . S
C1095 H1082 0.929 . S
C1095 C1087 1.433 . S
C1095 N1097 1.384 . S
N1096 C1092 1.427 . S
N1096 C1093 1.384 . S
N1097 C1089 1.427 . S
N1097 C1095 1.384 . S
H1098 C1104 0.930 . S
H1099 C1108 0.930 . S
H1100 C1113 0.929 . S
H1101 C1111 0.929 . S
H1102 C1106 0.929 . S
H1103 C1112 0.929 . S
C1104 H1098 0.930 . S
C1104 C1105 1.367 . S
C1104 C1112 1.378 . S
C1105 C1104 1.367 . S
C1105 C1113 1.433 . S
C1106 H1102 0.929 . S
C1106 C1108 1.378 . S
C1106 C1110 1.350 . S
C1107 C1110 1.463 . S
C1107 C1112 1.350 . S
C1107 N1115 1.427 . S
C1108 H1099 0.930 . S
C1108 C1106 1.378 . S
C1108 C1109 1.367 . S
C1109 C1108 1.367 . S
C1109 C1111 1.433 . S
C1110 C1106 1.350 . S
C1110 C1107 1.463 . S
C1110 N1114 1.427 . S
C1111 H1101 0.929 . S
C1111 C1109 1.433 . S
C1111 N1114 1.384 . S
C1112 H1103 0.929 . S
C1112 C1104 1.378 . S
C1112 C1107 1.350 . S
C1113 H1100 0.929 . S
C1113 C1105 1.433 . S
C1113 N1115 1.384 . S
N1114 C1110 1.427 . S
N1114 C1111 1.384 . S
N1115 C1107 1.427 . S
N1115 C1113 1.384 . S
H1116 C1122 0.930 . S
H1117 C1126 0.930 . S
H1118 C1131 0.929 . S
H1119 C1129 0.929 . S
H1120 C1124 0.929 . S
H1121 C1130 0.929 . S
C1122 H1116 0.930 . S
C1122 C1123 1.367 . S
C1122 C1130 1.378 . S
C1123 C1122 1.367 . S
C1123 C1131 1.433 . S
C1124 H1120 0.929 . S
C1124 C1126 1.378 . S
C1124 C1128 1.350 . S
C1125 C1128 1.463 . S
C1125 C1130 1.350 . S
C1125 N1133 1.427 . S
C1126 H1117 0.930 . S
C1126 C1124 1.378 . S
C1126 C1127 1.367 . S
C1127 C1126 1.367 . S
C1127 C1129 1.433 . S
C1128 C1124 1.350 . S
C1128 C1125 1.463 . S
C1128 N1132 1.427 . S
C1129 H1119 0.929 . S
C1129 C1127 1.433 . S
C1129 N1132 1.384 . S
C1130 H1121 0.929 . S
C1130 C1122 1.378 . S
C1130 C1125 1.350 . S
C1131 H1118 0.929 . S
C1131 C1123 1.433 . S
C1131 N1133 1.384 . S
N1132 C1128 1.427 . S
N1132 C1129 1.384 . S
N1133 C1125 1.427 . S
N1133 C1131 1.384 . S
H1134 C1140 0.930 . S
H1135 C1144 0.930 . S
H1136 C1149 0.929 . S
H1137 C1147 0.929 . S
H1138 C1142 0.929 . S
H1139 C1148 0.929 . S
C1140 H1134 0.930 . S
C1140 C1141 1.367 . S
C1140 C1148 1.378 . S
C1141 C1140 1.367 . S
C1141 C1149 1.433 . S
C1142 H1138 0.929 . S
C1142 C1144 1.378 . S
C1142 C1146 1.350 . S
C1143 C1146 1.463 . S
C1143 C1148 1.350 . S
C1143 N1151 1.427 . S
C1144 H1135 0.930 . S
C1144 C1142 1.378 . S
C1144 C1145 1.367 . S
C1145 C1144 1.367 . S
C1145 C1147 1.433 . S
C1146 C1142 1.350 . S
C1146 C1143 1.463 . S
C1146 N1150 1.427 . S
C1147 H1137 0.929 . S
C1147 C1145 1.433 . S
C1147 N1150 1.384 . S
C1148 H1139 0.929 . S
C1148 C1140 1.378 . S
C1148 C1143 1.350 . S
C1149 H1136 0.929 . S
C1149 C1141 1.433 . S
C1149 N1151 1.384 . S
N1150 C1146 1.427 . S
N1150 C1147 1.384 . S
N1151 C1143 1.427 . S
N1151 C1149 1.384 . S
H1152 C1158 0.930 . S
H1153 C1162 0.930 . S
H1154 C1167 0.929 . S
H1155 C1165 0.929 . S
H1156 C1160 0.929 . S
H1157 C1166 0.929 . S
C1158 H1152 0.930 . S
C1158 C1159 1.367 . S
C1158 C1166 1.378 . S
C1159 C1158 1.367 . S
C1159 C1167 1.433 . S
C1160 H1156 0.929 . S
C1160 C1162 1.378 . S
C1160 C1164 1.350 . S
C1161 C1164 1.463 . S
C1161 C1166 1.350 . S
C1161 N1169 1.427 . S
C1162 H1153 0.930 . S
C1162 C1160 1.378 . S
C1162 C1163 1.367 . S
C1163 C1162 1.367 . S
C1163 C1165 1.433 . S
C1164 C1160 1.350 . S
C1164 C1161 1.463 . S
C1164 N1168 1.427 . S
C1165 H1155 0.929 . S
C1165 C1163 1.433 . S
C1165 N1168 1.384 . S
C1166 H1157 0.929 . S
C1166 C1158 1.378 . S
C1166 C1161 1.350 . S
C1167 H1154 0.929 . S
C1167 C1159 1.433 . S
C1167 N1169 1.384 . S
N1168 C1164 1.427 . S
N1168 C1165 1.384 . S
N1169 C1161 1.427 . S
N1169 C1167 1.384 . S
H1170 C1176 0.930 . S
H1171 C1180 0.930 . S
H1172 C1185 0.929 . S
H1173 C1183 0.929 . S
H1174 C1178 0.929 . S
H1175 C1184 0.929 . S
C1176 H1170 0.930 . S
C1176 C1177 1.367 . S
C1176 C1184 1.378 . S
C1177 C1176 1.367 . S
C1177 C1185 1.433 . S
C1178 H1174 0.929 . S
C1178 C1180 1.378 . S
C1178 C1182 1.350 . S
C1179 C1182 1.463 . S
C1179 C1184 1.350 . S
C1179 N1187 1.427 . S
C1180 H1171 0.930 . S
C1180 C1178 1.378 . S
C1180 C1181 1.367 . S
C1181 C1180 1.367 . S
C1181 C1183 1.433 . S
C1182 C1178 1.350 . S
C1182 C1179 1.463 . S
C1182 N1186 1.427 . S
C1183 H1173 0.929 . S
C1183 C1181 1.433 . S
C1183 N1186 1.384 . S
C1184 H1175 0.929 . S
C1184 C1176 1.378 . S
C1184 C1179 1.350 . S
C1185 H1172 0.929 . S
C1185 C1177 1.433 . S
C1185 N1187 1.384 . S
N1186 C1182 1.427 . S
N1186 C1183 1.384 . S
N1187 C1179 1.427 . S
N1187 C1185 1.384 . S
H1188 C1194 0.930 . S
H1189 C1198 0.930 . S
H1190 C1203 0.929 . S
H1191 C1201 0.929 . S
H1192 C1196 0.929 . S
H1193 C1202 0.929 . S
C1194 H1188 0.930 . S
C1194 C1195 1.367 . S
C1194 C1202 1.378 . S
C1195 C1194 1.367 . S
C1195 C1203 1.433 . S
C1196 H1192 0.929 . S
C1196 C1198 1.378 . S
C1196 C1200 1.350 . S
C1197 C1200 1.463 . S
C1197 C1202 1.350 . S
C1197 N1205 1.427 . S
C1198 H1189 0.930 . S
C1198 C1196 1.378 . S
C1198 C1199 1.367 . S
C1199 C1198 1.367 . S
C1199 C1201 1.433 . S
C1200 C1196 1.350 . S
C1200 C1197 1.463 . S
C1200 N1204 1.427 . S
C1201 H1191 0.929 . S
C1201 C1199 1.433 . S
C1201 N1204 1.384 . S
C1202 H1193 0.929 . S
C1202 C1194 1.378 . S
C1202 C1197 1.350 . S
C1203 H1190 0.929 . S
C1203 C1195 1.433 . S
C1203 N1205 1.384 . S
N1204 C1200 1.427 . S
N1204 C1201 1.384 . S
N1205 C1197 1.427 . S
N1205 C1203 1.384 . S
H1206 C1212 0.930 . S
H1207 C1216 0.930 . S
H1208 C1221 0.929 . S
H1209 C1219 0.929 . S
H1210 C1214 0.929 . S
H1211 C1220 0.929 . S
C1212 H1206 0.930 . S
C1212 C1213 1.367 . S
C1212 C1220 1.378 . S
C1213 C1212 1.367 . S
C1213 C1221 1.433 . S
C1214 H1210 0.929 . S
C1214 C1216 1.378 . S
C1214 C1218 1.350 . S
C1215 C1218 1.463 . S
C1215 C1220 1.350 . S
C1215 N1223 1.427 . S
C1216 H1207 0.930 . S
C1216 C1214 1.378 . S
C1216 C1217 1.367 . S
C1217 C1216 1.367 . S
C1217 C1219 1.433 . S
C1218 C1214 1.350 . S
C1218 C1215 1.463 . S
C1218 N1222 1.427 . S
C1219 H1209 0.929 . S
C1219 C1217 1.433 . S
C1219 N1222 1.384 . S
C1220 H1211 0.929 . S
C1220 C1212 1.378 . S
C1220 C1215 1.350 . S
C1221 H1208 0.929 . S
C1221 C1213 1.433 . S
C1221 N1223 1.384 . S
N1222 C1218 1.427 . S
N1222 C1219 1.384 . S
N1223 C1215 1.427 . S
N1223 C1221 1.384 . S
H1224 C1230 0.930 . S
H1225 C1234 0.930 . S
H1226 C1239 0.929 . S
H1227 C1237 0.929 . S
H1228 C1232 0.929 1_545 S
H1229 C1238 0.929 1_565 S
C1230 H1224 0.930 . S
C1230 C1231 1.367 . S
C1230 C1238 1.378 . S
C1231 C1230 1.367 . S
C1231 C1239 1.433 . S
C1232 H1228 0.929 1_565 S
C1232 C1234 1.378 . S
C1232 C1236 1.350 . S
C1233 C1236 1.463 1_545 S
C1233 C1238 1.350 . S
C1233 N1241 1.427 . S
C1234 H1225 0.930 . S
C1234 C1232 1.378 . S
C1234 C1235 1.367 . S
C1235 C1234 1.367 . S
C1235 C1237 1.433 . S
C1236 C1232 1.350 . S
C1236 C1233 1.463 1_565 S
C1236 N1240 1.427 . S
C1237 H1227 0.929 . S
C1237 C1235 1.433 . S
C1237 N1240 1.384 . S
C1238 H1229 0.929 1_545 S
C1238 C1230 1.378 . S
C1238 C1233 1.350 . S
C1239 H1226 0.929 . S
C1239 C1231 1.433 . S
C1239 N1241 1.384 . S
N1240 C1236 1.427 . S
N1240 C1237 1.384 . S
N1241 C1233 1.427 . S
N1241 C1239 1.384 . S
H1242 C1248 0.930 . S
H1243 C1252 0.930 . S
H1244 C1257 0.929 . S
H1245 C1255 0.929 . S
H1246 C1250 0.929 . S
H1247 C1256 0.929 . S
C1248 H1242 0.930 . S
C1248 C1249 1.367 . S
C1248 C1256 1.378 . S
C1249 C1248 1.367 . S
C1249 C1257 1.433 . S
C1250 H1246 0.929 . S
C1250 C1252 1.378 . S
C1250 C1254 1.350 . S
C1251 C1254 1.463 . S
C1251 C1256 1.350 . S
C1251 N1259 1.427 . S
C1252 H1243 0.930 . S
C1252 C1250 1.378 . S
C1252 C1253 1.367 . S
C1253 C1252 1.367 . S
C1253 C1255 1.433 . S
C1254 C1250 1.350 . S
C1254 C1251 1.463 . S
C1254 N1258 1.427 . S
C1255 H1245 0.929 . S
C1255 C1253 1.433 . S
C1255 N1258 1.384 . S
C1256 H1247 0.929 . S
C1256 C1248 1.378 . S
C1256 C1251 1.350 . S
C1257 H1244 0.929 . S
C1257 C1249 1.433 . S
C1257 N1259 1.384 . S
N1258 C1254 1.427 . S
N1258 C1255 1.384 . S
N1259 C1251 1.427 . S
N1259 C1257 1.384 . S
H1260 C1266 0.930 . S
H1261 C1270 0.930 . S
H1262 C1275 0.929 . S
H1263 C1273 0.929 . S
H1264 C1268 0.929 . S
H1265 C1274 0.929 . S
C1266 H1260 0.930 . S
C1266 C1267 1.367 . S
C1266 C1274 1.378 . S
C1267 C1266 1.367 . S
C1267 C1275 1.433 . S
C1268 H1264 0.929 . S
C1268 C1270 1.378 . S
C1268 C1272 1.350 . S
C1269 C1272 1.463 1_455 S
C1269 C1274 1.350 . S
C1269 N1277 1.427 . S
C1270 H1261 0.930 . S
C1270 C1268 1.378 . S
C1270 C1271 1.367 . S
C1271 C1270 1.367 . S
C1271 C1273 1.433 . S
C1272 C1268 1.350 . S
C1272 C1269 1.463 1_655 S
C1272 N1276 1.427 . S
C1273 H1263 0.929 . S
C1273 C1271 1.433 . S
C1273 N1276 1.384 . S
C1274 H1265 0.929 . S
C1274 C1266 1.378 . S
C1274 C1269 1.350 . S
C1275 H1262 0.929 . S
C1275 C1267 1.433 . S
C1275 N1277 1.384 . S
N1276 C1272 1.427 . S
N1276 C1273 1.384 . S
N1277 C1269 1.427 . S
N1277 C1275 1.384 . S
H1278 C1284 0.930 . S
H1279 C1288 0.930 . S
H1280 C1293 0.929 . S
H1281 C1291 0.929 . S
H1282 C1286 0.929 . S
H1283 C1292 0.929 . S
C1284 H1278 0.930 . S
C1284 C1285 1.367 . S
C1284 C1292 1.378 . S
C1285 C1284 1.367 . S
C1285 C1293 1.433 . S
C1286 H1282 0.929 . S
C1286 C1288 1.378 . S
C1286 C1290 1.350 . S
C1287 C1290 1.463 1_565 S
C1287 C1292 1.350 . S
C1287 N1295 1.427 . S
C1288 H1279 0.930 . S
C1288 C1286 1.378 . S
C1288 C1289 1.367 . S
C1289 C1288 1.367 . S
C1289 C1291 1.433 . S
C1290 C1286 1.350 . S
C1290 C1287 1.463 1_545 S
C1290 N1294 1.427 . S
C1291 H1281 0.929 . S
C1291 C1289 1.433 . S
C1291 N1294 1.384 . S
C1292 H1283 0.929 . S
C1292 C1284 1.378 . S
C1292 C1287 1.350 . S
C1293 H1280 0.929 . S
C1293 C1285 1.433 . S
C1293 N1295 1.384 . S
N1294 C1290 1.427 . S
N1294 C1291 1.384 . S
N1295 C1287 1.427 . S
N1295 C1293 1.384 . S
H1296 C1302 0.930 . S
H1297 C1306 0.930 . S
H1298 C1311 0.929 . S
H1299 C1309 0.929 . S
H1300 C1304 0.929 . S
H1301 C1310 0.929 . S
C1302 H1296 0.930 . S
C1302 C1303 1.367 . S
C1302 C1310 1.378 . S
C1303 C1302 1.367 . S
C1303 C1311 1.433 . S
C1304 H1300 0.929 . S
C1304 C1306 1.378 . S
C1304 C1308 1.350 . S
C1305 C1308 1.463 . S
C1305 C1310 1.350 . S
C1305 N1313 1.427 . S
C1306 H1297 0.930 . S
C1306 C1304 1.378 . S
C1306 C1307 1.367 . S
C1307 C1306 1.367 . S
C1307 C1309 1.433 . S
C1308 C1304 1.350 . S
C1308 C1305 1.463 . S
C1308 N1312 1.427 . S
C1309 H1299 0.929 . S
C1309 C1307 1.433 . S
C1309 N1312 1.384 . S
C1310 H1301 0.929 . S
C1310 C1302 1.378 . S
C1310 C1305 1.350 . S
C1311 H1298 0.929 . S
C1311 C1303 1.433 . S
C1311 N1313 1.384 . S
N1312 C1308 1.427 . S
N1312 C1309 1.384 . S
N1313 C1305 1.427 . S
N1313 C1311 1.384 . S
H1314 C1320 0.930 . S
H1315 C1324 0.930 . S
H1316 C1329 0.929 . S
H1317 C1327 0.929 . S
H1318 C1322 0.929 1_655 S
H1319 C1328 0.929 1_455 S
C1320 H1314 0.930 . S
C1320 C1321 1.367 . S
C1320 C1328 1.378 . S
C1321 C1320 1.367 . S
C1321 C1329 1.433 . S
C1322 H1318 0.929 1_455 S
C1322 C1324 1.378 . S
C1322 C1326 1.350 . S
C1323 C1326 1.463 1_655 S
C1323 C1328 1.350 . S
C1323 N1331 1.427 . S
C1324 H1315 0.930 . S
C1324 C1322 1.378 . S
C1324 C1325 1.367 . S
C1325 C1324 1.367 . S
C1325 C1327 1.433 . S
C1326 C1322 1.350 . S
C1326 C1323 1.463 1_455 S
C1326 N1330 1.427 . S
C1327 H1317 0.929 . S
C1327 C1325 1.433 . S
C1327 N1330 1.384 . S
C1328 H1319 0.929 1_655 S
C1328 C1320 1.378 . S
C1328 C1323 1.350 . S
C1329 H1316 0.929 . S
C1329 C1321 1.433 . S
C1329 N1331 1.384 . S
N1330 C1326 1.427 . S
N1330 C1327 1.384 . S
N1331 C1323 1.427 . S
N1331 C1329 1.384 . S
H1332 C1338 0.930 . S
H1333 C1342 0.930 . S
H1334 C1347 0.929 . S
H1335 C1345 0.929 . S
H1336 C1340 0.929 . S
H1337 C1346 0.929 . S
C1338 H1332 0.930 . S
C1338 C1339 1.367 . S
C1338 C1346 1.378 . S
C1339 C1338 1.367 . S
C1339 C1347 1.433 . S
C1340 H1336 0.929 . S
C1340 C1342 1.378 . S
C1340 C1344 1.350 . S
C1341 C1344 1.463 1_565 S
C1341 C1346 1.350 . S
C1341 N1349 1.427 . S
C1342 H1333 0.930 . S
C1342 C1340 1.378 . S
C1342 C1343 1.367 . S
C1343 C1342 1.367 . S
C1343 C1345 1.433 . S
C1344 C1340 1.350 . S
C1344 C1341 1.463 1_545 S
C1344 N1348 1.427 . S
C1345 H1335 0.929 . S
C1345 C1343 1.433 . S
C1345 N1348 1.384 . S
C1346 H1337 0.929 . S
C1346 C1338 1.378 . S
C1346 C1341 1.350 . S
C1347 H1334 0.929 . S
C1347 C1339 1.433 . S
C1347 N1349 1.384 . S
N1348 C1344 1.427 . S
N1348 C1345 1.384 . S
N1349 C1341 1.427 . S
N1349 C1347 1.384 . S
H1350 C1356 0.930 . S
H1351 C1360 0.930 . S
H1352 C1365 0.929 . S
H1353 C1363 0.929 . S
H1354 C1358 0.929 . S
H1355 C1364 0.929 . S
C1356 H1350 0.930 . S
C1356 C1357 1.367 . S
C1356 C1364 1.378 . S
C1357 C1356 1.367 . S
C1357 C1365 1.433 . S
C1358 H1354 0.929 . S
C1358 C1360 1.378 . S
C1358 C1362 1.350 . S
C1359 C1362 1.463 . S
C1359 C1364 1.350 . S
C1359 N1367 1.427 . S
C1360 H1351 0.930 . S
C1360 C1358 1.378 . S
C1360 C1361 1.367 . S
C1361 C1360 1.367 . S
C1361 C1363 1.433 . S
C1362 C1358 1.350 . S
C1362 C1359 1.463 . S
C1362 N1366 1.427 . S
C1363 H1353 0.929 . S
C1363 C1361 1.433 . S
C1363 N1366 1.384 . S
C1364 H1355 0.929 . S
C1364 C1356 1.378 . S
C1364 C1359 1.350 . S
C1365 H1352 0.929 . S
C1365 C1357 1.433 . S
C1365 N1367 1.384 . S
N1366 C1362 1.427 . S
N1366 C1363 1.384 . S
N1367 C1359 1.427 . S
N1367 C1365 1.384 . S
H1368 C1374 0.930 . S
H1369 C1378 0.930 . S
H1370 C1383 0.929 . S
H1371 C1381 0.929 . S
H1372 C1376 0.929 . S
H1373 C1382 0.929 . S
C1374 H1368 0.930 . S
C1374 C1375 1.367 . S
C1374 C1382 1.378 . S
C1375 C1374 1.367 . S
C1375 C1383 1.433 . S
C1376 H1372 0.929 . S
C1376 C1378 1.378 . S
C1376 C1380 1.350 . S
C1377 C1380 1.463 1_455 S
C1377 C1382 1.350 . S
C1377 N1385 1.427 . S
C1378 H1369 0.930 . S
C1378 C1376 1.378 . S
C1378 C1379 1.367 . S
C1379 C1378 1.367 . S
C1379 C1381 1.433 . S
C1380 C1376 1.350 . S
C1380 C1377 1.463 1_655 S
C1380 N1384 1.427 . S
C1381 H1371 0.929 . S
C1381 C1379 1.433 . S
C1381 N1384 1.384 . S
C1382 H1373 0.929 . S
C1382 C1374 1.378 . S
C1382 C1377 1.350 . S
C1383 H1370 0.929 . S
C1383 C1375 1.433 . S
C1383 N1385 1.384 . S
N1384 C1380 1.427 . S
N1384 C1381 1.384 . S
N1385 C1377 1.427 . S
N1385 C1383 1.384 . S
H1386 C1392 0.930 . S
H1387 C1396 0.930 . S
H1388 C1401 0.929 . S
H1389 C1399 0.929 . S
H1390 C1394 0.929 . S
H1391 C1400 0.929 . S
C1392 H1386 0.930 . S
C1392 C1393 1.367 . S
C1392 C1400 1.378 . S
C1393 C1392 1.367 . S
C1393 C1401 1.433 . S
C1394 H1390 0.929 . S
C1394 C1396 1.378 . S
C1394 C1398 1.350 . S
C1395 C1398 1.463 1_545 S
C1395 C1400 1.350 . S
C1395 N1403 1.427 . S
C1396 H1387 0.930 . S
C1396 C1394 1.378 . S
C1396 C1397 1.367 . S
C1397 C1396 1.367 . S
C1397 C1399 1.433 . S
C1398 C1394 1.350 . S
C1398 C1395 1.463 1_565 S
C1398 N1402 1.427 . S
C1399 H1389 0.929 . S
C1399 C1397 1.433 . S
C1399 N1402 1.384 . S
C1400 H1391 0.929 . S
C1400 C1392 1.378 . S
C1400 C1395 1.350 . S
C1401 H1388 0.929 . S
C1401 C1393 1.433 . S
C1401 N1403 1.384 . S
N1402 C1398 1.427 . S
N1402 C1399 1.384 . S
N1403 C1395 1.427 . S
N1403 C1401 1.384 . S
H1404 C1410 0.930 . S
H1405 C1414 0.930 . S
H1406 C1419 0.929 . S
H1407 C1417 0.929 . S
H1408 C1412 0.929 . S
H1409 C1418 0.929 . S
C1410 H1404 0.930 . S
C1410 C1411 1.367 . S
C1410 C1418 1.378 . S
C1411 C1410 1.367 . S
C1411 C1419 1.433 . S
C1412 H1408 0.929 . S
C1412 C1414 1.378 . S
C1412 C1416 1.350 . S
C1413 C1416 1.463 . S
C1413 C1418 1.350 . S
C1413 N1421 1.427 . S
C1414 H1405 0.930 . S
C1414 C1412 1.378 . S
C1414 C1415 1.367 . S
C1415 C1414 1.367 . S
C1415 C1417 1.433 . S
C1416 C1412 1.350 . S
C1416 C1413 1.463 . S
C1416 N1420 1.427 . S
C1417 H1407 0.929 . S
C1417 C1415 1.433 . S
C1417 N1420 1.384 . S
C1418 H1409 0.929 . S
C1418 C1410 1.378 . S
C1418 C1413 1.350 . S
C1419 H1406 0.929 . S
C1419 C1411 1.433 . S
C1419 N1421 1.384 . S
N1420 C1416 1.427 . S
N1420 C1417 1.384 . S
N1421 C1413 1.427 . S
N1421 C1419 1.384 . S
H1422 C1428 0.930 . S
H1423 C1432 0.930 . S
H1424 C1437 0.929 . S
H1425 C1435 0.929 . S
H1426 C1430 0.929 1_455 S
H1427 C1436 0.929 1_655 S
C1428 H1422 0.930 . S
C1428 C1429 1.367 . S
C1428 C1436 1.378 . S
C1429 C1428 1.367 . S
C1429 C1437 1.433 . S
C1430 H1426 0.929 1_655 S
C1430 C1432 1.378 . S
C1430 C1434 1.350 . S
C1431 C1434 1.463 1_455 S
C1431 C1436 1.350 . S
C1431 N1439 1.427 . S
C1432 H1423 0.930 . S
C1432 C1430 1.378 . S
C1432 C1433 1.367 . S
C1433 C1432 1.367 . S
C1433 C1435 1.433 . S
C1434 C1430 1.350 . S
C1434 C1431 1.463 1_655 S
C1434 N1438 1.427 . S
C1435 H1425 0.929 . S
C1435 C1433 1.433 . S
C1435 N1438 1.384 . S
C1436 H1427 0.929 1_455 S
C1436 C1428 1.378 . S
C1436 C1431 1.350 . S
C1437 H1424 0.929 . S
C1437 C1429 1.433 . S
C1437 N1439 1.384 . S
N1438 C1434 1.427 . S
N1438 C1435 1.384 . S
N1439 C1431 1.427 . S
N1439 C1437 1.384 . S
H1440 C1446 0.930 . S
H1441 C1450 0.930 . S
H1442 C1455 0.929 . S
H1443 C1453 0.929 . S
H1444 C1448 0.929 . S
H1445 C1454 0.929 . S
C1446 H1440 0.930 . S
C1446 C1447 1.367 . S
C1446 C1454 1.378 . S
C1447 C1446 1.367 . S
C1447 C1455 1.433 . S
C1448 H1444 0.929 . S
C1448 C1450 1.378 . S
C1448 C1452 1.350 . S
C1449 C1452 1.463 . S
C1449 C1454 1.350 . S
C1449 N1457 1.427 . S
C1450 H1441 0.930 . S
C1450 C1448 1.378 . S
C1450 C1451 1.367 . S
C1451 C1450 1.367 . S
C1451 C1453 1.433 . S
C1452 C1448 1.350 . S
C1452 C1449 1.463 . S
C1452 N1456 1.427 . S
C1453 H1443 0.929 . S
C1453 C1451 1.433 . S
C1453 N1456 1.384 . S
C1454 H1445 0.929 . S
C1454 C1446 1.378 . S
C1454 C1449 1.350 . S
C1455 H1442 0.929 . S
C1455 C1447 1.433 . S
C1455 N1457 1.384 . S
N1456 C1452 1.427 . S
N1456 C1453 1.384 . S
N1457 C1449 1.427 . S
N1457 C1455 1.384 . S
H1458 C1464 0.930 . S
H1459 C1468 0.930 . S
H1460 C1473 0.929 . S
H1461 C1471 0.929 . S
H1462 C1466 0.929 . S
H1463 C1472 0.929 . S
C1464 H1458 0.930 . S
C1464 C1465 1.367 . S
C1464 C1472 1.378 . S
C1465 C1464 1.367 . S
C1465 C1473 1.433 . S
C1466 H1462 0.929 . S
C1466 C1468 1.378 . S
C1466 C1470 1.350 . S
C1467 C1470 1.463 . S
C1467 C1472 1.350 . S
C1467 N1475 1.427 . S
C1468 H1459 0.930 . S
C1468 C1466 1.378 . S
C1468 C1469 1.367 . S
C1469 C1468 1.367 . S
C1469 C1471 1.433 . S
C1470 C1466 1.350 . S
C1470 C1467 1.463 . S
C1470 N1474 1.427 . S
C1471 H1461 0.929 . S
C1471 C1469 1.433 . S
C1471 N1474 1.384 . S
C1472 H1463 0.929 . S
C1472 C1464 1.378 . S
C1472 C1467 1.350 . S
C1473 H1460 0.929 . S
C1473 C1465 1.433 . S
C1473 N1475 1.384 . S
N1474 C1470 1.427 . S
N1474 C1471 1.384 . S
N1475 C1467 1.427 . S
N1475 C1473 1.384 . S
H1476 C1482 0.930 . S
H1477 C1486 0.930 . S
H1478 C1491 0.929 . S
H1479 C1489 0.929 . S
H1480 C1484 0.929 . S
H1481 C1490 0.929 . S
C1482 H1476 0.930 . S
C1482 C1483 1.367 . S
C1482 C1490 1.378 . S
C1483 C1482 1.367 . S
C1483 C1491 1.433 . S
C1484 H1480 0.929 . S
C1484 C1486 1.378 . S
C1484 C1488 1.350 . S
C1485 C1488 1.463 . S
C1485 C1490 1.350 . S
C1485 N1493 1.427 . S
C1486 H1477 0.930 . S
C1486 C1484 1.378 . S
C1486 C1487 1.367 . S
C1487 C1486 1.367 . S
C1487 C1489 1.433 . S
C1488 C1484 1.350 . S
C1488 C1485 1.463 . S
C1488 N1492 1.427 . S
C1489 H1479 0.929 . S
C1489 C1487 1.433 . S
C1489 N1492 1.384 . S
C1490 H1481 0.929 . S
C1490 C1482 1.378 . S
C1490 C1485 1.350 . S
C1491 H1478 0.929 . S
C1491 C1483 1.433 . S
C1491 N1493 1.384 . S
N1492 C1488 1.427 . S
N1492 C1489 1.384 . S
N1493 C1485 1.427 . S
N1493 C1491 1.384 . S
H1494 C1500 0.930 . S
H1495 C1504 0.930 . S
H1496 C1509 0.929 . S
H1497 C1507 0.929 . S
H1498 C1502 0.929 . S
H1499 C1508 0.929 . S
C1500 H1494 0.930 . S
C1500 C1501 1.367 . S
C1500 C1508 1.378 . S
C1501 C1500 1.367 . S
C1501 C1509 1.433 . S
C1502 H1498 0.929 . S
C1502 C1504 1.378 . S
C1502 C1506 1.350 . S
C1503 C1506 1.463 . S
C1503 C1508 1.350 . S
C1503 N1511 1.427 . S
C1504 H1495 0.930 . S
C1504 C1502 1.378 . S
C1504 C1505 1.367 . S
C1505 C1504 1.367 . S
C1505 C1507 1.433 . S
C1506 C1502 1.350 . S
C1506 C1503 1.463 . S
C1506 N1510 1.427 . S
C1507 H1497 0.929 . S
C1507 C1505 1.433 . S
C1507 N1510 1.384 . S
C1508 H1499 0.929 . S
C1508 C1500 1.378 . S
C1508 C1503 1.350 . S
C1509 H1496 0.929 . S
C1509 C1501 1.433 . S
C1509 N1511 1.384 . S
N1510 C1506 1.427 . S
N1510 C1507 1.384 . S
N1511 C1503 1.427 . S
N1511 C1509 1.384 . S
H1512 C1518 0.930 . S
H1513 C1522 0.930 . S
H1514 C1527 0.929 . S
H1515 C1525 0.929 . S
H1516 C1520 0.929 . S
H1517 C1526 0.929 . S
C1518 H1512 0.930 . S
C1518 C1519 1.367 . S
C1518 C1526 1.378 . S
C1519 C1518 1.367 . S
C1519 C1527 1.433 . S
C1520 H1516 0.929 . S
C1520 C1522 1.378 . S
C1520 C1524 1.350 . S
C1521 C1524 1.463 . S
C1521 C1526 1.350 . S
C1521 N1529 1.427 . S
C1522 H1513 0.930 . S
C1522 C1520 1.378 . S
C1522 C1523 1.367 . S
C1523 C1522 1.367 . S
C1523 C1525 1.433 . S
C1524 C1520 1.350 . S
C1524 C1521 1.463 . S
C1524 N1528 1.427 . S
C1525 H1515 0.929 . S
C1525 C1523 1.433 . S
C1525 N1528 1.384 . S
C1526 H1517 0.929 . S
C1526 C1518 1.378 . S
C1526 C1521 1.350 . S
C1527 H1514 0.929 . S
C1527 C1519 1.433 . S
C1527 N1529 1.384 . S
N1528 C1524 1.427 . S
N1528 C1525 1.384 . S
N1529 C1521 1.427 . S
N1529 C1527 1.384 . S
H1530 C1536 0.930 . S
H1531 C1540 0.930 . S
H1532 C1545 0.929 . S
H1533 C1543 0.929 . S
H1534 C1538 0.929 . S
H1535 C1544 0.929 . S
C1536 H1530 0.930 . S
C1536 C1537 1.367 . S
C1536 C1544 1.378 . S
C1537 C1536 1.367 . S
C1537 C1545 1.433 . S
C1538 H1534 0.929 . S
C1538 C1540 1.378 . S
C1538 C1542 1.350 . S
C1539 C1542 1.463 . S
C1539 C1544 1.350 . S
C1539 N1547 1.427 . S
C1540 H1531 0.930 . S
C1540 C1538 1.378 . S
C1540 C1541 1.367 . S
C1541 C1540 1.367 . S
C1541 C1543 1.433 . S
C1542 C1538 1.350 . S
C1542 C1539 1.463 . S
C1542 N1546 1.427 . S
C1543 H1533 0.929 . S
C1543 C1541 1.433 . S
C1543 N1546 1.384 . S
C1544 H1535 0.929 . S
C1544 C1536 1.378 . S
C1544 C1539 1.350 . S
C1545 H1532 0.929 . S
C1545 C1537 1.433 . S
C1545 N1547 1.384 . S
N1546 C1542 1.427 . S
N1546 C1543 1.384 . S
N1547 C1539 1.427 . S
N1547 C1545 1.384 . S
H1548 C1554 0.930 . S
H1549 C1558 0.930 . S
H1550 C1563 0.929 . S
H1551 C1561 0.929 . S
H1552 C1556 0.929 . S
H1553 C1562 0.929 . S
C1554 H1548 0.930 . S
C1554 C1555 1.367 . S
C1554 C1562 1.378 . S
C1555 C1554 1.367 . S
C1555 C1563 1.433 . S
C1556 H1552 0.929 . S
C1556 C1558 1.378 . S
C1556 C1560 1.350 . S
C1557 C1560 1.463 . S
C1557 C1562 1.350 . S
C1557 N1565 1.427 . S
C1558 H1549 0.930 . S
C1558 C1556 1.378 . S
C1558 C1559 1.367 . S
C1559 C1558 1.367 . S
C1559 C1561 1.433 . S
C1560 C1556 1.350 . S
C1560 C1557 1.463 . S
C1560 N1564 1.427 . S
C1561 H1551 0.929 . S
C1561 C1559 1.433 . S
C1561 N1564 1.384 . S
C1562 H1553 0.929 . S
C1562 C1554 1.378 . S
C1562 C1557 1.350 . S
C1563 H1550 0.929 . S
C1563 C1555 1.433 . S
C1563 N1565 1.384 . S
N1564 C1560 1.427 . S
N1564 C1561 1.384 . S
N1565 C1557 1.427 . S
N1565 C1563 1.384 . S
H1566 C1572 0.930 . S
H1567 C1576 0.930 . S
H1568 C1581 0.929 . S
H1569 C1579 0.929 . S
H1570 C1574 0.929 . S
H1571 C1580 0.929 . S
C1572 H1566 0.930 . S
C1572 C1573 1.367 . S
C1572 C1580 1.378 . S
C1573 C1572 1.367 . S
C1573 C1581 1.433 . S
C1574 H1570 0.929 . S
C1574 C1576 1.378 . S
C1574 C1578 1.350 . S
C1575 C1578 1.463 . S
C1575 C1580 1.350 . S
C1575 N1583 1.427 . S
C1576 H1567 0.930 . S
C1576 C1574 1.378 . S
C1576 C1577 1.367 . S
C1577 C1576 1.367 . S
C1577 C1579 1.433 . S
C1578 C1574 1.350 . S
C1578 C1575 1.463 . S
C1578 N1582 1.427 . S
C1579 H1569 0.929 . S
C1579 C1577 1.433 . S
C1579 N1582 1.384 . S
C1580 H1571 0.929 . S
C1580 C1572 1.378 . S
C1580 C1575 1.350 . S
C1581 H1568 0.929 . S
C1581 C1573 1.433 . S
C1581 N1583 1.384 . S
N1582 C1578 1.427 . S
N1582 C1579 1.384 . S
N1583 C1575 1.427 . S
N1583 C1581 1.384 . S
H1584 C1590 0.930 . S
H1585 C1594 0.930 . S
H1586 C1599 0.929 . S
H1587 C1597 0.929 . S
H1588 C1592 0.929 . S
H1589 C1598 0.929 . S
C1590 H1584 0.930 . S
C1590 C1591 1.367 . S
C1590 C1598 1.378 . S
C1591 C1590 1.367 . S
C1591 C1599 1.433 . S
C1592 H1588 0.929 . S
C1592 C1594 1.378 . S
C1592 C1596 1.350 . S
C1593 C1596 1.463 . S
C1593 C1598 1.350 . S
C1593 N1601 1.427 . S
C1594 H1585 0.930 . S
C1594 C1592 1.378 . S
C1594 C1595 1.367 . S
C1595 C1594 1.367 . S
C1595 C1597 1.433 . S
C1596 C1592 1.350 . S
C1596 C1593 1.463 . S
C1596 N1600 1.427 . S
C1597 H1587 0.929 . S
C1597 C1595 1.433 . S
C1597 N1600 1.384 . S
C1598 H1589 0.929 . S
C1598 C1590 1.378 . S
C1598 C1593 1.350 . S
C1599 H1586 0.929 . S
C1599 C1591 1.433 . S
C1599 N1601 1.384 . S
N1600 C1596 1.427 . S
N1600 C1597 1.384 . S
N1601 C1593 1.427 . S
N1601 C1599 1.384 . S
H1602 C1608 0.930 . S
H1603 C1612 0.930 . S
H1604 C1617 0.929 . S
H1605 C1615 0.929 . S
H1606 C1610 0.929 . S
H1607 C1616 0.929 . S
C1608 H1602 0.930 . S
C1608 C1609 1.367 . S
C1608 C1616 1.378 . S
C1609 C1608 1.367 . S
C1609 C1617 1.433 . S
C1610 H1606 0.929 . S
C1610 C1612 1.378 . S
C1610 C1614 1.350 . S
C1611 C1614 1.463 . S
C1611 C1616 1.350 . S
C1611 N1619 1.427 . S
C1612 H1603 0.930 . S
C1612 C1610 1.378 . S
C1612 C1613 1.367 . S
C1613 C1612 1.367 . S
C1613 C1615 1.433 . S
C1614 C1610 1.350 . S
C1614 C1611 1.463 . S
C1614 N1618 1.427 . S
C1615 H1605 0.929 . S
C1615 C1613 1.433 . S
C1615 N1618 1.384 . S
C1616 H1607 0.929 . S
C1616 C1608 1.378 . S
C1616 C1611 1.350 . S
C1617 H1604 0.929 . S
C1617 C1609 1.433 . S
C1617 N1619 1.384 . S
N1618 C1614 1.427 . S
N1618 C1615 1.384 . S
N1619 C1611 1.427 . S
N1619 C1617 1.384 . S
H1620 C1626 0.930 . S
H1621 C1630 0.930 . S
H1622 C1635 0.929 . S
H1623 C1633 0.929 . S
H1624 C1628 0.929 . S
H1625 C1634 0.929 . S
C1626 H1620 0.930 . S
C1626 C1627 1.367 . S
C1626 C1634 1.378 . S
C1627 C1626 1.367 . S
C1627 C1635 1.433 . S
C1628 H1624 0.929 . S
C1628 C1630 1.378 . S
C1628 C1632 1.350 . S
C1629 C1632 1.463 . S
C1629 C1634 1.350 . S
C1629 N1637 1.427 . S
C1630 H1621 0.930 . S
C1630 C1628 1.378 . S
C1630 C1631 1.367 . S
C1631 C1630 1.367 . S
C1631 C1633 1.433 . S
C1632 C1628 1.350 . S
C1632 C1629 1.463 . S
C1632 N1636 1.427 . S
C1633 H1623 0.929 . S
C1633 C1631 1.433 . S
C1633 N1636 1.384 . S
C1634 H1625 0.929 . S
C1634 C1626 1.378 . S
C1634 C1629 1.350 . S
C1635 H1622 0.929 . S
C1635 C1627 1.433 . S
C1635 N1637 1.384 . S
N1636 C1632 1.427 . S
N1636 C1633 1.384 . S
N1637 C1629 1.427 . S
N1637 C1635 1.384 . S
H1638 C1644 0.930 . S
H1639 C1648 0.930 . S
H1640 C1653 0.929 . S
H1641 C1651 0.929 . S
H1642 C1646 0.929 . S
H1643 C1652 0.929 . S
C1644 H1638 0.930 . S
C1644 C1645 1.367 . S
C1644 C1652 1.378 . S
C1645 C1644 1.367 . S
C1645 C1653 1.433 . S
C1646 H1642 0.929 . S
C1646 C1648 1.378 . S
C1646 C1650 1.350 . S
C1647 C1650 1.463 . S
C1647 C1652 1.350 . S
C1647 N1655 1.427 . S
C1648 H1639 0.930 . S
C1648 C1646 1.378 . S
C1648 C1649 1.367 . S
C1649 C1648 1.367 . S
C1649 C1651 1.433 . S
C1650 C1646 1.350 . S
C1650 C1647 1.463 . S
C1650 N1654 1.427 . S
C1651 H1641 0.929 . S
C1651 C1649 1.433 . S
C1651 N1654 1.384 . S
C1652 H1643 0.929 . S
C1652 C1644 1.378 . S
C1652 C1647 1.350 . S
C1653 H1640 0.929 . S
C1653 C1645 1.433 . S
C1653 N1655 1.384 . S
N1654 C1650 1.427 . S
N1654 C1651 1.384 . S
N1655 C1647 1.427 . S
N1655 C1653 1.384 . S
H1656 C1662 0.930 . S
H1657 C1666 0.930 . S
H1658 C1671 0.929 . S
H1659 C1669 0.929 . S
H1660 C1664 0.929 . S
H1661 C1670 0.929 . S
C1662 H1656 0.930 . S
C1662 C1663 1.367 . S
C1662 C1670 1.378 . S
C1663 C1662 1.367 . S
C1663 C1671 1.433 . S
C1664 H1660 0.929 . S
C1664 C1666 1.378 . S
C1664 C1668 1.350 . S
C1665 C1668 1.463 1_554 S
C1665 C1670 1.350 . S
C1665 N1673 1.427 . S
C1666 H1657 0.930 . S
C1666 C1664 1.378 . S
C1666 C1667 1.367 . S
C1667 C1666 1.367 . S
C1667 C1669 1.433 . S
C1668 C1664 1.350 . S
C1668 C1665 1.463 1_556 S
C1668 N1672 1.427 . S
C1669 H1659 0.929 . S
C1669 C1667 1.433 . S
C1669 N1672 1.384 . S
C1670 H1661 0.929 . S
C1670 C1662 1.378 . S
C1670 C1665 1.350 . S
C1671 H1658 0.929 . S
C1671 C1663 1.433 . S
C1671 N1673 1.384 . S
N1672 C1668 1.427 . S
N1672 C1669 1.384 . S
N1673 C1665 1.427 . S
N1673 C1671 1.384 . S
H1674 C1680 0.930 . S
H1675 C1684 0.930 . S
H1676 C1689 0.929 . S
H1677 C1687 0.929 . S
H1678 C1682 0.929 . S
H1679 C1688 0.929 . S
C1680 H1674 0.930 . S
C1680 C1681 1.367 . S
C1680 C1688 1.378 . S
C1681 C1680 1.367 . S
C1681 C1689 1.433 . S
C1682 H1678 0.929 . S
C1682 C1684 1.378 . S
C1682 C1686 1.350 . S
C1683 C1686 1.463 1_554 S
C1683 C1688 1.350 . S
C1683 N1691 1.427 . S
C1684 H1675 0.930 . S
C1684 C1682 1.378 . S
C1684 C1685 1.367 . S
C1685 C1684 1.367 . S
C1685 C1687 1.433 . S
C1686 C1682 1.350 . S
C1686 C1683 1.463 1_556 S
C1686 N1690 1.427 . S
C1687 H1677 0.929 . S
C1687 C1685 1.433 . S
C1687 N1690 1.384 . S
C1688 H1679 0.929 . S
C1688 C1680 1.378 . S
C1688 C1683 1.350 . S
C1689 H1676 0.929 . S
C1689 C1681 1.433 . S
C1689 N1691 1.384 . S
N1690 C1686 1.427 . S
N1690 C1687 1.384 . S
N1691 C1683 1.427 . S
N1691 C1689 1.384 . S
H1692 C1698 0.930 . S
H1693 C1702 0.930 . S
H1694 C1707 0.929 . S
H1695 C1705 0.929 . S
H1696 C1700 0.929 . S
H1697 C1706 0.929 . S
C1698 H1692 0.930 . S
C1698 C1699 1.367 . S
C1698 C1706 1.378 . S
C1699 C1698 1.367 . S
C1699 C1707 1.433 . S
C1700 H1696 0.929 . S
C1700 C1702 1.378 . S
C1700 C1704 1.350 . S
C1701 C1704 1.463 1_554 S
C1701 C1706 1.350 . S
C1701 N1709 1.427 . S
C1702 H1693 0.930 . S
C1702 C1700 1.378 . S
C1702 C1703 1.367 . S
C1703 C1702 1.367 . S
C1703 C1705 1.433 . S
C1704 C1700 1.350 . S
C1704 C1701 1.463 1_556 S
C1704 N1708 1.427 . S
C1705 H1695 0.929 . S
C1705 C1703 1.433 . S
C1705 N1708 1.384 . S
C1706 H1697 0.929 . S
C1706 C1698 1.378 . S
C1706 C1701 1.350 . S
C1707 H1694 0.929 . S
C1707 C1699 1.433 . S
C1707 N1709 1.384 . S
N1708 C1704 1.427 . S
N1708 C1705 1.384 . S
N1709 C1701 1.427 . S
N1709 C1707 1.384 . S
H1710 C1716 0.930 . S
H1711 C1720 0.930 . S
H1712 C1725 0.929 . S
H1713 C1723 0.929 . S
H1714 C1718 0.929 . S
H1715 C1724 0.929 . S
C1716 H1710 0.930 . S
C1716 C1717 1.367 . S
C1716 C1724 1.378 . S
C1717 C1716 1.367 . S
C1717 C1725 1.433 . S
C1718 H1714 0.929 . S
C1718 C1720 1.378 . S
C1718 C1722 1.350 . S
C1719 C1722 1.463 1_554 S
C1719 C1724 1.350 . S
C1719 N1727 1.427 . S
C1720 H1711 0.930 . S
C1720 C1718 1.378 . S
C1720 C1721 1.367 . S
C1721 C1720 1.367 . S
C1721 C1723 1.433 . S
C1722 C1718 1.350 . S
C1722 C1719 1.463 1_556 S
C1722 N1726 1.427 . S
C1723 H1713 0.929 . S
C1723 C1721 1.433 . S
C1723 N1726 1.384 . S
C1724 H1715 0.929 . S
C1724 C1716 1.378 . S
C1724 C1719 1.350 . S
C1725 H1712 0.929 . S
C1725 C1717 1.433 . S
C1725 N1727 1.384 . S
N1726 C1722 1.427 . S
N1726 C1723 1.384 . S
N1727 C1719 1.427 . S
N1727 C1725 1.384 . S
H1728 C1734 0.930 . S
H1729 C1738 0.930 . S
H1730 C1743 0.929 . S
H1731 C1741 0.929 . S
H1732 C1736 0.929 . S
H1733 C1742 0.929 . S
C1734 H1728 0.930 . S
C1734 C1735 1.367 . S
C1734 C1742 1.378 . S
C1735 C1734 1.367 . S
C1735 C1743 1.433 . S
C1736 H1732 0.929 . S
C1736 C1738 1.378 . S
C1736 C1740 1.350 . S
C1737 C1740 1.463 1_554 S
C1737 C1742 1.350 . S
C1737 N1745 1.427 . S
C1738 H1729 0.930 . S
C1738 C1736 1.378 . S
C1738 C1739 1.367 . S
C1739 C1738 1.367 . S
C1739 C1741 1.433 . S
C1740 C1736 1.350 . S
C1740 C1737 1.463 1_556 S
C1740 N1744 1.427 . S
C1741 H1731 0.929 . S
C1741 C1739 1.433 . S
C1741 N1744 1.384 . S
C1742 H1733 0.929 . S
C1742 C1734 1.378 . S
C1742 C1737 1.350 . S
C1743 H1730 0.929 . S
C1743 C1735 1.433 . S
C1743 N1745 1.384 . S
N1744 C1740 1.427 . S
N1744 C1741 1.384 . S
N1745 C1737 1.427 . S
N1745 C1743 1.384 . S
H1746 C1752 0.930 . S
H1747 C1756 0.930 . S
H1748 C1761 0.929 . S
H1749 C1759 0.929 . S
H1750 C1754 0.929 . S
H1751 C1760 0.929 . S
C1752 H1746 0.930 . S
C1752 C1753 1.367 . S
C1752 C1760 1.378 . S
C1753 C1752 1.367 . S
C1753 C1761 1.433 . S
C1754 H1750 0.929 . S
C1754 C1756 1.378 . S
C1754 C1758 1.350 . S
C1755 C1758 1.463 1_556 S
C1755 C1760 1.350 . S
C1755 N1763 1.427 . S
C1756 H1747 0.930 . S
C1756 C1754 1.378 . S
C1756 C1757 1.367 . S
C1757 C1756 1.367 . S
C1757 C1759 1.433 . S
C1758 C1754 1.350 . S
C1758 C1755 1.463 1_554 S
C1758 N1762 1.427 . S
C1759 H1749 0.929 . S
C1759 C1757 1.433 . S
C1759 N1762 1.384 . S
C1760 H1751 0.929 . S
C1760 C1752 1.378 . S
C1760 C1755 1.350 . S
C1761 H1748 0.929 . S
C1761 C1753 1.433 . S
C1761 N1763 1.384 . S
N1762 C1758 1.427 . S
N1762 C1759 1.384 . S
N1763 C1755 1.427 . S
N1763 C1761 1.384 . S
H1764 C1770 0.930 . S
H1765 C1774 0.930 . S
H1766 C1779 0.929 . S
H1767 C1777 0.929 . S
H1768 C1772 0.929 . S
H1769 C1778 0.929 . S
C1770 H1764 0.930 . S
C1770 C1771 1.367 . S
C1770 C1778 1.378 . S
C1771 C1770 1.367 . S
C1771 C1779 1.433 . S
C1772 H1768 0.929 . S
C1772 C1774 1.378 . S
C1772 C1776 1.350 . S
C1773 C1776 1.463 . S
C1773 C1778 1.350 . S
C1773 N1781 1.427 . S
C1774 H1765 0.930 . S
C1774 C1772 1.378 . S
C1774 C1775 1.367 . S
C1775 C1774 1.367 . S
C1775 C1777 1.433 . S
C1776 C1772 1.350 . S
C1776 C1773 1.463 . S
C1776 N1780 1.427 . S
C1777 H1767 0.929 . S
C1777 C1775 1.433 . S
C1777 N1780 1.384 . S
C1778 H1769 0.929 . S
C1778 C1770 1.378 . S
C1778 C1773 1.350 . S
C1779 H1766 0.929 . S
C1779 C1771 1.433 . S
C1779 N1781 1.384 . S
N1780 C1776 1.427 . S
N1780 C1777 1.384 . S
N1781 C1773 1.427 . S
N1781 C1779 1.384 . S
H1782 C1788 0.930 . S
H1783 C1792 0.930 . S
H1784 C1797 0.929 . S
H1785 C1795 0.929 . S
H1786 C1790 0.929 . S
H1787 C1796 0.929 . S
C1788 H1782 0.930 . S
C1788 C1789 1.367 . S
C1788 C1796 1.378 . S
C1789 C1788 1.367 . S
C1789 C1797 1.433 . S
C1790 H1786 0.929 . S
C1790 C1792 1.378 . S
C1790 C1794 1.350 . S
C1791 C1794 1.463 . S
C1791 C1796 1.350 . S
C1791 N1799 1.427 . S
C1792 H1783 0.930 . S
C1792 C1790 1.378 . S
C1792 C1793 1.367 . S
C1793 C1792 1.367 . S
C1793 C1795 1.433 . S
C1794 C1790 1.350 . S
C1794 C1791 1.463 . S
C1794 N1798 1.427 . S
C1795 H1785 0.929 . S
C1795 C1793 1.433 . S
C1795 N1798 1.384 . S
C1796 H1787 0.929 . S
C1796 C1788 1.378 . S
C1796 C1791 1.350 . S
C1797 H1784 0.929 . S
C1797 C1789 1.433 . S
C1797 N1799 1.384 . S
N1798 C1794 1.427 . S
N1798 C1795 1.384 . S
N1799 C1791 1.427 . S
N1799 C1797 1.384 . S
H1800 C1806 0.930 . S
H1801 C1810 0.930 . S
H1802 C1815 0.929 . S
H1803 C1813 0.929 . S
H1804 C1808 0.929 . S
H1805 C1814 0.929 . S
C1806 H1800 0.930 . S
C1806 C1807 1.367 . S
C1806 C1814 1.378 . S
C1807 C1806 1.367 . S
C1807 C1815 1.433 . S
C1808 H1804 0.929 . S
C1808 C1810 1.378 . S
C1808 C1812 1.350 . S
C1809 C1812 1.463 . S
C1809 C1814 1.350 . S
C1809 N1817 1.427 . S
C1810 H1801 0.930 . S
C1810 C1808 1.378 . S
C1810 C1811 1.367 . S
C1811 C1810 1.367 . S
C1811 C1813 1.433 . S
C1812 C1808 1.350 . S
C1812 C1809 1.463 . S
C1812 N1816 1.427 . S
C1813 H1803 0.929 . S
C1813 C1811 1.433 . S
C1813 N1816 1.384 . S
C1814 H1805 0.929 . S
C1814 C1806 1.378 . S
C1814 C1809 1.350 . S
C1815 H1802 0.929 . S
C1815 C1807 1.433 . S
C1815 N1817 1.384 . S
N1816 C1812 1.427 . S
N1816 C1813 1.384 . S
N1817 C1809 1.427 . S
N1817 C1815 1.384 . S
H1818 C1824 0.930 . S
H1819 C1828 0.930 . S
H1820 C1833 0.929 . S
H1821 C1831 0.929 . S
H1822 C1826 0.929 . S
H1823 C1832 0.929 . S
C1824 H1818 0.930 . S
C1824 C1825 1.367 . S
C1824 C1832 1.378 . S
C1825 C1824 1.367 . S
C1825 C1833 1.433 . S
C1826 H1822 0.929 . S
C1826 C1828 1.378 . S
C1826 C1830 1.350 . S
C1827 C1830 1.463 . S
C1827 C1832 1.350 . S
C1827 N1835 1.427 . S
C1828 H1819 0.930 . S
C1828 C1826 1.378 . S
C1828 C1829 1.367 . S
C1829 C1828 1.367 . S
C1829 C1831 1.433 . S
C1830 C1826 1.350 . S
C1830 C1827 1.463 . S
C1830 N1834 1.427 . S
C1831 H1821 0.929 . S
C1831 C1829 1.433 . S
C1831 N1834 1.384 . S
C1832 H1823 0.929 . S
C1832 C1824 1.378 . S
C1832 C1827 1.350 . S
C1833 H1820 0.929 . S
C1833 C1825 1.433 . S
C1833 N1835 1.384 . S
N1834 C1830 1.427 . S
N1834 C1831 1.384 . S
N1835 C1827 1.427 . S
N1835 C1833 1.384 . S
H1836 C1842 0.930 . S
H1837 C1846 0.930 . S
H1838 C1851 0.929 . S
H1839 C1849 0.929 . S
H1840 C1844 0.929 . S
H1841 C1850 0.929 . S
C1842 H1836 0.930 . S
C1842 C1843 1.367 . S
C1842 C1850 1.378 . S
C1843 C1842 1.367 . S
C1843 C1851 1.433 . S
C1844 H1840 0.929 . S
C1844 C1846 1.378 . S
C1844 C1848 1.350 . S
C1845 C1848 1.463 . S
C1845 C1850 1.350 . S
C1845 N1853 1.427 . S
C1846 H1837 0.930 . S
C1846 C1844 1.378 . S
C1846 C1847 1.367 . S
C1847 C1846 1.367 . S
C1847 C1849 1.433 . S
C1848 C1844 1.350 . S
C1848 C1845 1.463 . S
C1848 N1852 1.427 . S
C1849 H1839 0.929 . S
C1849 C1847 1.433 . S
C1849 N1852 1.384 . S
C1850 H1841 0.929 . S
C1850 C1842 1.378 . S
C1850 C1845 1.350 . S
C1851 H1838 0.929 . S
C1851 C1843 1.433 . S
C1851 N1853 1.384 . S
N1852 C1848 1.427 . S
N1852 C1849 1.384 . S
N1853 C1845 1.427 . S
N1853 C1851 1.384 . S
H1854 C1860 0.930 . S
H1855 C1864 0.930 . S
H1856 C1869 0.929 . S
H1857 C1867 0.929 . S
H1858 C1862 0.929 . S
H1859 C1868 0.929 . S
C1860 H1854 0.930 . S
C1860 C1861 1.367 . S
C1860 C1868 1.378 . S
C1861 C1860 1.367 . S
C1861 C1869 1.433 . S
C1862 H1858 0.929 . S
C1862 C1864 1.378 . S
C1862 C1866 1.350 . S
C1863 C1866 1.463 . S
C1863 C1868 1.350 . S
C1863 N1871 1.427 . S
C1864 H1855 0.930 . S
C1864 C1862 1.378 . S
C1864 C1865 1.367 . S
C1865 C1864 1.367 . S
C1865 C1867 1.433 . S
C1866 C1862 1.350 . S
C1866 C1863 1.463 . S
C1866 N1870 1.427 . S
C1867 H1857 0.929 . S
C1867 C1865 1.433 . S
C1867 N1870 1.384 . S
C1868 H1859 0.929 . S
C1868 C1860 1.378 . S
C1868 C1863 1.350 . S
C1869 H1856 0.929 . S
C1869 C1861 1.433 . S
C1869 N1871 1.384 . S
N1870 C1866 1.427 . S
N1870 C1867 1.384 . S
N1871 C1863 1.427 . S
N1871 C1869 1.384 . S
C799 N13 0.865 . S
C803 N112 0.836 . S
C817 N145 0.868 . S
C821 N46 0.835 . S
C835 N178 0.867 . S
C839 N79 0.835 . S
C853 N310 0.870 . S
C857 N211 0.837 . S
C871 N244 0.866 . S
C875 N343 0.835 . S
C889 N277 0.839 . S
C893 N376 0.861 . S
C907 N508 0.869 . S
C911 N409 0.838 . S
C925 N541 0.847 . S
C929 N442 0.852 . S
C943 N574 0.870 . S
C947 N475 0.836 . S
C961 N706 0.852 . S
C965 N607 0.859 . S
C979 N640 0.867 . S
C983 N739 0.842 . S
C997 N772 0.868 . S
C1001 N673 0.840 . S
C1015 N266 1.786 . S
C1019 N2 1.785 . S
C1033 N35 1.786 . S
C1037 N299 1.785 . S
C1051 N68 1.785 . S
C1055 N332 1.786 . S
C1069 N101 1.785 . S
C1073 N365 1.785 . S
C1087 N134 1.785 . S
C1091 N200 1.785 . S
C1105 N233 1.785 . S
C1109 N167 1.785 . S
C1123 N398 1.786 . S
C1127 N662 1.787 . S
C1141 N695 1.786 . S
C1145 N431 1.785 . S
C1159 N728 1.786 . S
C1163 N464 1.786 . S
C1177 N497 1.785 . S
C1181 N761 1.785 . S
C1195 N596 1.786 . S
C1199 N530 1.785 . S
C1213 N629 1.786 . S
C1217 N563 1.786 . S
C1231 C21 0.659 . S
C1235 C252 0.667 . S
C1249 C54 0.653 . S
C1253 C285 0.672 . S
C1267 C318 0.651 . S
C1271 C87 0.677 . S
C1285 C120 0.680 . S
C1289 C351 0.646 . S
C1303 C384 0.681 . S
C1307 C153 0.647 . S
C1321 C219 0.667 . S
C1325 C186 0.658 . S
C1339 C417 0.667 . S
C1343 C648 0.662 . S
C1357 C450 0.680 . S
C1361 C681 0.646 . S
C1375 C483 0.648 . S
C1379 C714 0.678 . S
C1393 C516 0.651 . S
C1397 C747 0.677 . S
C1411 C549 0.680 . S
C1415 C780 0.648 . S
C1429 C615 0.672 . S
C1433 C582 0.653 . S
C1447 C7 0.984 . S
C1451 C337 0.993 . S
C1465 C370 1.001 . S
C1469 C40 0.994 . S
C1483 C205 0.984 . S
C1487 C73 0.993 . S
C1501 C238 1.002 . S
C1505 C106 0.992 . S
C1519 C139 1.001 . S
C1523 C271 0.984 . S
C1537 C172 1.003 . S
C1541 C304 0.987 . S
C1555 C403 0.983 . S
C1559 C733 0.999 . S
C1573 C766 0.994 . S
C1577 C436 0.984 . S
C1591 C601 0.985 . S
C1595 C469 1.002 . S
C1609 C502 1.003 . S
C1613 C634 0.988 . S
C1627 C535 1.002 . S
C1631 C667 0.985 . S
C1645 C700 0.993 . S
C1649 C568 0.984 . S
C1663 C18 1.164 . S
C1667 C513 1.167 . S
C1681 C51 1.170 . S
C1685 C546 1.161 . S
C1699 C84 1.161 . S
C1703 C579 1.170 . S
C1717 C117 1.167 . S
C1721 C414 1.164 . S
C1735 C150 1.169 . S
C1739 C447 1.162 . S
C1753 C480 1.169 . S
C1757 C183 1.161 . S
C1771 C216 1.170 . S
C1775 C711 1.161 . S
C1789 C249 1.167 . S
C1793 C744 1.163 . S
C1807 C282 1.169 . S
C1811 C777 1.161 . S
C1825 C315 1.168 . S
C1829 C612 1.162 . S
C1843 C348 1.164 . S
C1847 C645 1.166 . S
C1861 C678 1.170 . S
C1865 C381 1.161 . S
