# Generated by pormake.
# Topology cag, (4)-cn, num edge types: 1
# Building blocks:
#     Node 0, Type 0, BuildingBlock: QUQFOY_clean_sbu_3, # of connection points: 4
#     Node 1, Type 0, BuildingBlock: QUQFOY_clean_sbu_3, # of connection points: 4
#     Node 2, Type 0, BuildingBlock: QUQFOY_clean_sbu_3, # of connection points: 4
#     Node 3, Type 0, BuildingBlock: QUQFOY_clean_sbu_3, # of connection points: 4
#     Node 4, Type 0, BuildingBlock: QUQFOY_clean_sbu_3, # of connection points: 4
#     Node 5, Type 0, BuildingBlock: QUQFOY_clean_sbu_3, # of connection points: 4
#     Node 6, Type 0, BuildingBlock: QUQFOY_clean_sbu_3, # of connection points: 4
#     Node 7, Type 0, BuildingBlock: QUQFOY_clean_sbu_3, # of connection points: 4
#     Node 8, Type 0, BuildingBlock: QUQFOY_clean_sbu_3, # of connection points: 4
#     Node 9, Type 0, BuildingBlock: QUQFOY_clean_sbu_3, # of connection points: 4
#     Node 10, Type 0, BuildingBlock: QUQFOY_clean_sbu_3, # of connection points: 4
#     Node 11, Type 0, BuildingBlock: QUQFOY_clean_sbu_3, # of connection points: 4
#     Node 12, Type 0, BuildingBlock: QUQFOY_clean_sbu_3, # of connection points: 4
#     Node 13, Type 0, BuildingBlock: QUQFOY_clean_sbu_3, # of connection points: 4
#     Node 14, Type 0, BuildingBlock: QUQFOY_clean_sbu_3, # of connection points: 4
#     Node 15, Type 0, BuildingBlock: QUQFOY_clean_sbu_3, # of connection points: 4
#     Edge 16, Type (0, 0), None
#     Edge 17, Type (0, 0), None
#     Edge 18, Type (0, 0), None
#     Edge 19, Type (0, 0), None
#     Edge 20, Type (0, 0), None
#     Edge 21, Type (0, 0), None
#     Edge 22, Type (0, 0), None
#     Edge 23, Type (0, 0), None
#     Edge 24, Type (0, 0), None
#     Edge 25, Type (0, 0), None
#     Edge 26, Type (0, 0), None
#     Edge 27, Type (0, 0), None
#     Edge 28, Type (0, 0), None
#     Edge 29, Type (0, 0), None
#     Edge 30, Type (0, 0), None
#     Edge 31, Type (0, 0), None
#     Edge 32, Type (0, 0), None
#     Edge 33, Type (0, 0), None
#     Edge 34, Type (0, 0), None
#     Edge 35, Type (0, 0), None
#     Edge 36, Type (0, 0), None
#     Edge 37, Type (0, 0), None
#     Edge 38, Type (0, 0), None
#     Edge 39, Type (0, 0), None
#     Edge 40, Type (0, 0), None
#     Edge 41, Type (0, 0), None
#     Edge 42, Type (0, 0), None
#     Edge 43, Type (0, 0), None
#     Edge 44, Type (0, 0), None
#     Edge 45, Type (0, 0), None
#     Edge 46, Type (0, 0), None
#     Edge 47, Type (0, 0), None
# Relax obj value: 0.118
# Max RMSD: 0.148
# Mean RMSD: 0.148
data_MOF--net-cag--node1-QUQFOY_clean_sbu_3--edge1-none
_symmetry_space_group_name_H-M    P1
_symmetry_Int_Tables_number       1
_symmetry_cell_setting            triclinic
loop_
_symmetry_equiv_pos_as_xyz
'x, y, z'
_cell_length_a     22.084293
_cell_length_b     25.182283
_cell_length_c     20.612013
_cell_angle_alpha  90.000002
_cell_angle_beta   90.0
_cell_angle_gamma 89.999483
loop_
_atom_site_label
_atom_site_type_symbol
_atom_site_fract_x
_atom_site_fract_y
_atom_site_fract_z
_atom_type_partial_charge
C0 C 0.41966 0.08939 0.03722 0.0
O1 O 0.41601 0.10245 -0.02204 0.0
Cd2 Cd 0.31862 0.1054 0.92865 0.0
O3 O 0.37207 0.08267 0.07122 0.0
Cd4 Cd 0.26029 0.09294 0.05809 0.0
C5 C 0.26568 -0.01801 -0.0273 0.0
O6 O 0.2656 0.1716 -0.00913 0.0
O7 O 0.18034 0.13015 -0.0142 0.0
O8 O 0.2664 0.12055 0.17138 0.0
C9 C 0.21059 0.17185 -0.02589 0.0
O10 O 0.28311 0.01202 0.9266 0.0
C11 C 0.21293 0.10591 0.18485 0.0
O12 O 0.25632 0.00068 0.02878 0.0
O13 O 0.18137 0.08627 0.13951 0.0
C14 C -0.01612 0.81696 0.53722 0.0
O15 O -0.01247 0.8039 0.47796 0.0
Cd16 Cd 0.08492 0.80095 0.42865 0.0
O17 O 0.03146 0.82368 0.57122 0.0
Cd18 Cd 0.14325 0.81342 0.55809 0.0
C19 C 0.13786 0.92436 0.4727 0.0
O20 O 0.13794 0.73475 0.49087 0.0
O21 O 0.2232 0.7762 0.4858 0.0
O22 O 0.13713 0.7858 0.67138 0.0
C23 C 0.19295 0.7345 0.47411 0.0
O24 O 0.12043 0.89433 0.4266 0.0
C25 C 0.19061 0.80045 0.68485 0.0
O26 O 0.14722 0.90568 0.52878 0.0
O27 O 0.22217 0.82008 0.63951 0.0
C28 C 0.41966 0.81695 0.89883 0.0
O29 O 0.41601 0.8039 0.95809 0.0
Cd30 Cd 0.31862 0.80094 0.00741 0.0
O31 O 0.37207 0.82368 0.86484 0.0
Cd32 Cd 0.26029 0.81341 0.87796 0.0
C33 C 0.26567 0.92435 0.96336 0.0
O34 O 0.2656 0.73475 0.94518 0.0
O35 O 0.18034 0.77619 0.95025 0.0
O36 O 0.26641 0.7858 0.76467 0.0
C37 C 0.21059 0.7345 0.96193 0.0
O38 O 0.28311 0.89432 0.00946 0.0
C39 C 0.21294 0.80045 0.75119 0.0
O40 O 0.25632 0.90567 0.90727 0.0
O41 O 0.18137 0.82008 0.79654 0.0
C42 C -0.01612 0.0894 0.39883 0.0
O43 O -0.01247 0.10245 0.45809 0.0
Cd44 Cd 0.08492 0.10541 0.50741 0.0
O45 O 0.03147 0.08267 0.36484 0.0
Cd46 Cd 0.14325 0.09294 0.37796 0.0
C47 C 0.13787 -0.018 0.46336 0.0
O48 O 0.13794 0.17161 0.44518 0.0
O49 O 0.2232 0.13016 0.45025 0.0
O50 O 0.13713 0.12056 0.26467 0.0
C51 C 0.19295 0.17186 0.46193 0.0
O52 O 0.12043 0.01203 0.50946 0.0
C53 C 0.1906 0.1059 0.25119 0.0
O54 O 0.14722 0.00068 0.40727 0.0
O55 O 0.22217 0.08627 0.29654 0.0
C56 C 0.47908 0.82893 0.87112 0.0
O57 O 0.48327 0.86415 0.82728 0.0
Cd58 Cd 0.57934 0.89765 0.79197 0.0
O59 O 0.52616 0.80716 0.89502 0.0
Cd60 Cd 0.63754 0.80989 0.87834 0.0
C61 C 0.63381 0.9342 0.94095 0.0
O62 O 0.63218 0.81869 0.75949 0.0
O63 O 0.7211 0.8275 0.80113 0.0
O64 O 0.63576 0.71504 0.90843 0.0
C65 C 0.6886 0.82321 0.75076 0.0
O66 O 0.61708 0.94989 0.88502 0.0
C67 C 0.68478 0.71779 0.94056 0.0
O68 O 0.64154 0.88517 0.95245 0.0
O69 O 0.71114 0.76246 0.94303 0.0
C70 C 0.92446 0.07742 0.37112 0.0
O71 O 0.92027 0.0422 0.32728 0.0
Cd72 Cd 0.8242 0.00871 0.29197 0.0
O73 O 0.87738 0.09919 0.39502 0.0
Cd74 Cd 0.766 0.09646 0.37834 0.0
C75 C 0.76973 -0.02785 0.44095 0.0
O76 O 0.77136 0.08766 0.25949 0.0
O77 O 0.68244 0.07886 0.30113 0.0
O78 O 0.76778 0.19131 0.40843 0.0
C79 C 0.71494 0.08314 0.25076 0.0
O80 O 0.78646 -0.04353 0.38502 0.0
C81 C 0.71876 0.18857 0.44056 0.0
O82 O 0.762 0.02118 0.45245 0.0
O83 O 0.6924 0.14389 0.44303 0.0
C84 C 0.47909 0.07742 0.06494 0.0
O85 O 0.48327 0.0422 0.10878 0.0
Cd86 Cd 0.57935 0.0087 0.14409 0.0
O87 O 0.52616 0.09919 0.04104 0.0
Cd88 Cd 0.63754 0.09646 0.05772 0.0
C89 C 0.63382 -0.02785 -0.00488 0.0
O90 O 0.63218 0.08766 0.17657 0.0
O91 O 0.7211 0.07886 0.13493 0.0
O92 O 0.63576 0.19131 0.02762 0.0
C93 C 0.6886 0.08314 0.1853 0.0
O94 O 0.61708 -0.04354 0.05105 0.0
C95 C 0.68478 0.18856 -0.00451 0.0
O96 O 0.64155 0.02117 -0.01639 0.0
O97 O 0.71114 0.14388 -0.00698 0.0
C98 C 0.92445 0.82894 0.56494 0.0
O99 O 0.92027 0.86415 0.60878 0.0
Cd100 Cd 0.82419 0.89765 0.64409 0.0
O101 O 0.87738 0.80716 0.54104 0.0
Cd102 Cd 0.766 0.80989 0.55772 0.0
C103 C 0.76972 0.9342 0.49512 0.0
O104 O 0.77136 0.81869 0.67657 0.0
O105 O 0.68244 0.8275 0.63493 0.0
O106 O 0.76778 0.71504 0.52762 0.0
C107 C 0.71494 0.82321 0.6853 0.0
O108 O 0.78646 0.94989 0.55105 0.0
C109 C 0.71876 0.71779 0.49549 0.0
O110 O 0.76199 0.88518 0.48361 0.0
O111 O 0.6924 0.76247 0.49302 0.0
C112 C 0.91966 0.58939 0.03722 0.0
O113 O 0.91601 0.60245 -0.02204 0.0
Cd114 Cd 0.81863 0.6054 0.92865 0.0
O115 O 0.87207 0.58267 0.07122 0.0
Cd116 Cd 0.76029 0.59294 0.05809 0.0
C117 C 0.76568 0.48199 -0.0273 0.0
O118 O 0.7656 0.6716 -0.00914 0.0
O119 O 0.68034 0.63016 -0.0142 0.0
O120 O 0.7664 0.62055 0.17138 0.0
C121 C 0.71059 0.67185 -0.02589 0.0
O122 O 0.78311 0.51202 0.9266 0.0
C123 C 0.71293 0.60591 0.18485 0.0
O124 O 0.75632 0.50068 0.02878 0.0
O125 O 0.68137 0.58627 0.13951 0.0
C126 C 0.48388 0.31696 0.53722 0.0
O127 O 0.48753 0.30391 0.47796 0.0
Cd128 Cd 0.58491 0.30095 0.42865 0.0
O129 O 0.53146 0.32368 0.57122 0.0
Cd130 Cd 0.64325 0.31342 0.55809 0.0
C131 C 0.63786 0.42436 0.4727 0.0
O132 O 0.63793 0.23475 0.49086 0.0
O133 O 0.7232 0.2762 0.4858 0.0
O134 O 0.63714 0.2858 0.67138 0.0
C135 C 0.69295 0.2345 0.47411 0.0
O136 O 0.62043 0.39433 0.4266 0.0
C137 C 0.69061 0.30044 0.68485 0.0
O138 O 0.64722 0.40567 0.52878 0.0
O139 O 0.72217 0.32008 0.63951 0.0
C140 C 0.91966 0.31695 0.89883 0.0
O141 O 0.91601 0.3039 0.9581 0.0
Cd142 Cd 0.81863 0.30094 0.00741 0.0
O143 O 0.87207 0.32368 0.86484 0.0
Cd144 Cd 0.76029 0.31341 0.87796 0.0
C145 C 0.76567 0.42435 0.96336 0.0
O146 O 0.7656 0.23475 0.94519 0.0
O147 O 0.68034 0.27619 0.95025 0.0
O148 O 0.76641 0.28579 0.76467 0.0
C149 C 0.71059 0.2345 0.96194 0.0
O150 O 0.78311 0.39432 0.00946 0.0
C151 C 0.71294 0.30045 0.75119 0.0
O152 O 0.75632 0.40567 0.90728 0.0
O153 O 0.68137 0.32008 0.79654 0.0
C154 C 0.48388 0.5894 0.39883 0.0
O155 O 0.48753 0.60245 0.4581 0.0
Cd156 Cd 0.58491 0.60541 0.50741 0.0
O157 O 0.53147 0.58267 0.36484 0.0
Cd158 Cd 0.64325 0.59294 0.37796 0.0
C159 C 0.63787 0.482 0.46336 0.0
O160 O 0.63794 0.6716 0.44519 0.0
O161 O 0.7232 0.63016 0.45025 0.0
O162 O 0.63713 0.62056 0.26467 0.0
C163 C 0.69295 0.67185 0.46194 0.0
O164 O 0.62043 0.51203 0.50946 0.0
C165 C 0.6906 0.6059 0.25119 0.0
O166 O 0.64722 0.50068 0.40728 0.0
O167 O 0.72217 0.58627 0.29654 0.0
C168 C -0.02092 0.32893 0.87111 0.0
O169 O -0.01673 0.36415 0.82728 0.0
Cd170 Cd 0.07934 0.39765 0.79197 0.0
O171 O 0.02616 0.30716 0.89502 0.0
Cd172 Cd 0.13754 0.30989 0.87834 0.0
C173 C 0.13381 0.4342 0.94095 0.0
O174 O 0.13218 0.31869 0.75949 0.0
O175 O 0.2211 0.3275 0.80113 0.0
O176 O 0.13576 0.21504 0.90844 0.0
C177 C 0.1886 0.32321 0.75076 0.0
O178 O 0.11708 0.44989 0.88502 0.0
C179 C 0.18478 0.21779 0.94057 0.0
O180 O 0.14154 0.38517 0.95245 0.0
O181 O 0.21114 0.26247 0.94304 0.0
C182 C 0.42446 0.57742 0.37111 0.0
O183 O 0.42027 0.54221 0.32728 0.0
Cd184 Cd 0.3242 0.50871 0.29197 0.0
O185 O 0.37738 0.59919 0.39502 0.0
Cd186 Cd 0.266 0.59646 0.37834 0.0
C187 C 0.26973 0.47215 0.44095 0.0
O188 O 0.27136 0.58766 0.25949 0.0
O189 O 0.18244 0.57886 0.30113 0.0
O190 O 0.26778 0.69131 0.40844 0.0
C191 C 0.21494 0.58314 0.25076 0.0
O192 O 0.28646 0.45647 0.38502 0.0
C193 C 0.21876 0.68857 0.44057 0.0
O194 O 0.262 0.52118 0.45245 0.0
O195 O 0.1924 0.64389 0.44304 0.0
C196 C -0.02091 0.57742 0.06494 0.0
O197 O -0.01673 0.5422 0.10878 0.0
Cd198 Cd 0.07935 0.5087 0.1441 0.0
O199 O 0.02616 0.59919 0.04104 0.0
Cd200 Cd 0.13754 0.59646 0.05772 0.0
C201 C 0.13382 0.47215 -0.00488 0.0
O202 O 0.13218 0.58766 0.17657 0.0
O203 O 0.2211 0.57886 0.13493 0.0
O204 O 0.13576 0.69131 0.02761 0.0
C205 C 0.1886 0.58314 0.1853 0.0
O206 O 0.11708 0.45646 0.05105 0.0
C207 C 0.18478 0.68856 -0.00451 0.0
O208 O 0.14154 0.52117 -0.01639 0.0
O209 O 0.21114 0.64388 -0.00698 0.0
C210 C 0.42445 0.32894 0.56494 0.0
O211 O 0.42027 0.36415 0.60878 0.0
Cd212 Cd 0.32419 0.39765 0.6441 0.0
O213 O 0.37738 0.30716 0.54104 0.0
Cd214 Cd 0.266 0.30989 0.55772 0.0
C215 C 0.26972 0.4342 0.49512 0.0
O216 O 0.27136 0.31869 0.67657 0.0
O217 O 0.18244 0.32749 0.63493 0.0
O218 O 0.26778 0.21504 0.52761 0.0
C219 C 0.21494 0.32321 0.6853 0.0
O220 O 0.28646 0.44989 0.55105 0.0
C221 C 0.21876 0.21779 0.49549 0.0
O222 O 0.26199 0.38518 0.48361 0.0
O223 O 0.1924 0.26247 0.49302 0.0
loop_
_geom_bond_atom_site_label_1
_geom_bond_atom_site_label_2
_geom_bond_distance
_geom_bond_site_symmetry_2
_ccdc_geom_bond_type
C0 O1 1.306 . S
C0 O3 1.160 . S
O1 C0 1.306 . S
O1 Cd2 2.228 1_554 S
Cd2 O1 2.228 1_556 S
Cd2 O6 2.273 1_556 S
Cd2 O10 2.277 . S
O3 C0 1.160 . S
O3 Cd4 2.203 . S
Cd4 O3 2.203 . S
Cd4 O6 2.411 . S
Cd4 O7 2.333 . S
Cd4 O8 2.352 . S
Cd4 O12 2.277 . S
Cd4 O13 2.356 . S
C5 O10 1.209 . S
C5 O12 1.226 1_556 S
O6 Cd2 2.273 1_554 S
O6 Cd4 2.411 . S
O6 C9 1.320 . S
O7 Cd4 2.333 . S
O7 C9 1.214 . S
O8 Cd4 2.352 . S
O8 C11 1.258 . S
C9 O6 1.320 . S
C9 O7 1.214 . S
O10 Cd2 2.277 . S
O10 C5 1.209 . S
C11 O8 1.258 . S
C11 O13 1.282 . S
O12 Cd4 2.277 . S
O12 C5 1.226 1_554 S
O13 Cd4 2.356 . S
O13 C11 1.282 . S
C14 O15 1.306 . S
C14 O17 1.160 . S
O15 C14 1.306 . S
O15 Cd16 2.228 . S
Cd16 O15 2.228 . S
Cd16 O20 2.273 . S
Cd16 O24 2.277 . S
O17 C14 1.160 . S
O17 Cd18 2.203 . S
Cd18 O17 2.203 . S
Cd18 O20 2.411 . S
Cd18 O21 2.333 . S
Cd18 O22 2.352 . S
Cd18 O26 2.277 . S
Cd18 O27 2.356 . S
C19 O24 1.209 . S
C19 O26 1.226 . S
O20 Cd16 2.273 . S
O20 Cd18 2.411 . S
O20 C23 1.320 . S
O21 Cd18 2.333 . S
O21 C23 1.214 . S
O22 Cd18 2.352 . S
O22 C25 1.258 . S
C23 O20 1.320 . S
C23 O21 1.214 . S
O24 Cd16 2.277 . S
O24 C19 1.209 . S
C25 O22 1.258 . S
C25 O27 1.282 . S
O26 Cd18 2.277 . S
O26 C19 1.226 . S
O27 Cd18 2.356 . S
O27 C25 1.282 . S
C28 O29 1.306 . S
C28 O31 1.160 . S
O29 C28 1.306 . S
O29 Cd30 2.228 1_556 S
Cd30 O29 2.228 1_554 S
Cd30 O34 2.273 1_554 S
Cd30 O38 2.277 . S
O31 C28 1.160 . S
O31 Cd32 2.203 . S
Cd32 O31 2.203 . S
Cd32 O34 2.411 . S
Cd32 O35 2.333 . S
Cd32 O36 2.352 . S
Cd32 O40 2.277 . S
Cd32 O41 2.356 . S
C33 O38 1.209 . S
C33 O40 1.226 1_554 S
O34 Cd30 2.273 1_556 S
O34 Cd32 2.411 . S
O34 C37 1.320 . S
O35 Cd32 2.333 . S
O35 C37 1.214 . S
O36 Cd32 2.352 . S
O36 C39 1.258 . S
C37 O34 1.320 . S
C37 O35 1.214 . S
O38 Cd30 2.277 . S
O38 C33 1.209 . S
C39 O36 1.258 . S
C39 O41 1.282 . S
O40 Cd32 2.277 . S
O40 C33 1.226 1_556 S
O41 Cd32 2.356 . S
O41 C39 1.282 . S
C42 O43 1.306 . S
C42 O45 1.160 . S
O43 C42 1.306 . S
O43 Cd44 2.228 . S
Cd44 O43 2.228 . S
Cd44 O48 2.273 . S
Cd44 O52 2.277 . S
O45 C42 1.160 . S
O45 Cd46 2.203 . S
Cd46 O45 2.203 . S
Cd46 O48 2.411 . S
Cd46 O49 2.333 . S
Cd46 O50 2.352 . S
Cd46 O54 2.277 . S
Cd46 O55 2.356 . S
C47 O52 1.209 . S
C47 O54 1.226 . S
O48 Cd44 2.273 . S
O48 Cd46 2.411 . S
O48 C51 1.320 . S
O49 Cd46 2.333 . S
O49 C51 1.214 . S
O50 Cd46 2.352 . S
O50 C53 1.258 . S
C51 O48 1.320 . S
C51 O49 1.214 . S
O52 Cd44 2.277 . S
O52 C47 1.209 . S
C53 O50 1.258 . S
C53 O55 1.282 . S
O54 Cd46 2.277 . S
O54 C47 1.226 . S
O55 Cd46 2.356 . S
O55 C53 1.282 . S
C56 O57 1.306 . S
C56 O59 1.160 . S
O57 C56 1.306 . S
O57 Cd58 2.228 . S
Cd58 O57 2.228 . S
Cd58 O62 2.273 . S
Cd58 O66 2.277 . S
O59 C56 1.160 . S
O59 Cd60 2.203 . S
Cd60 O59 2.203 . S
Cd60 O62 2.411 . S
Cd60 O63 2.333 . S
Cd60 O64 2.352 . S
Cd60 O68 2.277 . S
Cd60 O69 2.356 . S
C61 O66 1.209 . S
C61 O68 1.226 . S
O62 Cd58 2.273 . S
O62 Cd60 2.411 . S
O62 C65 1.320 . S
O63 Cd60 2.333 . S
O63 C65 1.214 . S
O64 Cd60 2.352 . S
O64 C67 1.258 . S
C65 O62 1.320 . S
C65 O63 1.214 . S
O66 Cd58 2.277 . S
O66 C61 1.209 . S
C67 O64 1.258 . S
C67 O69 1.282 . S
O68 Cd60 2.277 . S
O68 C61 1.226 . S
O69 Cd60 2.356 . S
O69 C67 1.282 . S
C70 O71 1.306 . S
C70 O73 1.160 . S
O71 C70 1.306 . S
O71 Cd72 2.228 . S
Cd72 O71 2.228 . S
Cd72 O76 2.273 . S
Cd72 O80 2.277 . S
O73 C70 1.160 . S
O73 Cd74 2.203 . S
Cd74 O73 2.203 . S
Cd74 O76 2.411 . S
Cd74 O77 2.333 . S
Cd74 O78 2.352 . S
Cd74 O82 2.277 . S
Cd74 O83 2.356 . S
C75 O80 1.209 . S
C75 O82 1.226 . S
O76 Cd72 2.273 . S
O76 Cd74 2.411 . S
O76 C79 1.320 . S
O77 Cd74 2.333 . S
O77 C79 1.214 . S
O78 Cd74 2.352 . S
O78 C81 1.258 . S
C79 O76 1.320 . S
C79 O77 1.214 . S
O80 Cd72 2.277 . S
O80 C75 1.209 . S
C81 O78 1.258 . S
C81 O83 1.282 . S
O82 Cd74 2.277 . S
O82 C75 1.226 . S
O83 Cd74 2.356 . S
O83 C81 1.282 . S
C84 O85 1.306 . S
C84 O87 1.160 . S
O85 C84 1.306 . S
O85 Cd86 2.228 . S
Cd86 O85 2.228 . S
Cd86 O90 2.273 . S
Cd86 O94 2.277 . S
O87 C84 1.160 . S
O87 Cd88 2.203 . S
Cd88 O87 2.203 . S
Cd88 O90 2.411 . S
Cd88 O91 2.333 . S
Cd88 O92 2.352 . S
Cd88 O96 2.277 . S
Cd88 O97 2.356 . S
C89 O94 1.209 . S
C89 O96 1.226 . S
O90 Cd86 2.273 . S
O90 Cd88 2.411 . S
O90 C93 1.320 . S
O91 Cd88 2.333 . S
O91 C93 1.214 . S
O92 Cd88 2.352 . S
O92 C95 1.258 . S
C93 O90 1.320 . S
C93 O91 1.214 . S
O94 Cd86 2.277 . S
O94 C89 1.209 . S
C95 O92 1.258 . S
C95 O97 1.282 . S
O96 Cd88 2.277 . S
O96 C89 1.226 . S
O97 Cd88 2.356 . S
O97 C95 1.282 . S
C98 O99 1.306 . S
C98 O101 1.160 . S
O99 C98 1.306 . S
O99 Cd100 2.228 . S
Cd100 O99 2.228 . S
Cd100 O104 2.273 . S
Cd100 O108 2.277 . S
O101 C98 1.160 . S
O101 Cd102 2.203 . S
Cd102 O101 2.203 . S
Cd102 O104 2.411 . S
Cd102 O105 2.333 . S
Cd102 O106 2.352 . S
Cd102 O110 2.277 . S
Cd102 O111 2.356 . S
C103 O108 1.209 . S
C103 O110 1.226 . S
O104 Cd100 2.273 . S
O104 Cd102 2.411 . S
O104 C107 1.320 . S
O105 Cd102 2.333 . S
O105 C107 1.214 . S
O106 Cd102 2.352 . S
O106 C109 1.258 . S
C107 O104 1.320 . S
C107 O105 1.214 . S
O108 Cd100 2.277 . S
O108 C103 1.209 . S
C109 O106 1.258 . S
C109 O111 1.282 . S
O110 Cd102 2.277 . S
O110 C103 1.226 . S
O111 Cd102 2.356 . S
O111 C109 1.282 . S
C112 O113 1.306 . S
C112 O115 1.160 . S
O113 C112 1.306 . S
O113 Cd114 2.228 1_554 S
Cd114 O113 2.228 1_556 S
Cd114 O118 2.273 1_556 S
Cd114 O122 2.277 . S
O115 C112 1.160 . S
O115 Cd116 2.203 . S
Cd116 O115 2.203 . S
Cd116 O118 2.411 . S
Cd116 O119 2.333 . S
Cd116 O120 2.352 . S
Cd116 O124 2.277 . S
Cd116 O125 2.356 . S
C117 O122 1.209 . S
C117 O124 1.226 1_556 S
O118 Cd114 2.273 1_554 S
O118 Cd116 2.411 . S
O118 C121 1.320 . S
O119 Cd116 2.333 . S
O119 C121 1.214 . S
O120 Cd116 2.352 . S
O120 C123 1.258 . S
C121 O118 1.320 . S
C121 O119 1.214 . S
O122 Cd114 2.277 . S
O122 C117 1.209 . S
C123 O120 1.258 . S
C123 O125 1.282 . S
O124 Cd116 2.277 . S
O124 C117 1.226 1_554 S
O125 Cd116 2.356 . S
O125 C123 1.282 . S
C126 O127 1.306 . S
C126 O129 1.160 . S
O127 C126 1.306 . S
O127 Cd128 2.228 . S
Cd128 O127 2.228 . S
Cd128 O132 2.273 . S
Cd128 O136 2.277 . S
O129 C126 1.160 . S
O129 Cd130 2.203 . S
Cd130 O129 2.203 . S
Cd130 O132 2.411 . S
Cd130 O133 2.333 . S
Cd130 O134 2.352 . S
Cd130 O138 2.277 . S
Cd130 O139 2.356 . S
C131 O136 1.209 . S
C131 O138 1.226 . S
O132 Cd128 2.273 . S
O132 Cd130 2.411 . S
O132 C135 1.320 . S
O133 Cd130 2.333 . S
O133 C135 1.214 . S
O134 Cd130 2.352 . S
O134 C137 1.258 . S
C135 O132 1.320 . S
C135 O133 1.214 . S
O136 Cd128 2.277 . S
O136 C131 1.209 . S
C137 O134 1.258 . S
C137 O139 1.282 . S
O138 Cd130 2.277 . S
O138 C131 1.226 . S
O139 Cd130 2.356 . S
O139 C137 1.282 . S
C140 O141 1.306 . S
C140 O143 1.160 . S
O141 C140 1.306 . S
O141 Cd142 2.228 1_556 S
Cd142 O141 2.228 1_554 S
Cd142 O146 2.273 1_554 S
Cd142 O150 2.277 . S
O143 C140 1.160 . S
O143 Cd144 2.203 . S
Cd144 O143 2.203 . S
Cd144 O146 2.411 . S
Cd144 O147 2.333 . S
Cd144 O148 2.352 . S
Cd144 O152 2.277 . S
Cd144 O153 2.356 . S
C145 O150 1.209 . S
C145 O152 1.226 1_554 S
O146 Cd142 2.273 1_556 S
O146 Cd144 2.411 . S
O146 C149 1.320 . S
O147 Cd144 2.333 . S
O147 C149 1.214 . S
O148 Cd144 2.352 . S
O148 C151 1.258 . S
C149 O146 1.320 . S
C149 O147 1.214 . S
O150 Cd142 2.277 . S
O150 C145 1.209 . S
C151 O148 1.258 . S
C151 O153 1.282 . S
O152 Cd144 2.277 . S
O152 C145 1.226 1_556 S
O153 Cd144 2.356 . S
O153 C151 1.282 . S
C154 O155 1.306 . S
C154 O157 1.160 . S
O155 C154 1.306 . S
O155 Cd156 2.228 . S
Cd156 O155 2.228 . S
Cd156 O160 2.273 . S
Cd156 O164 2.277 . S
O157 C154 1.160 . S
O157 Cd158 2.203 . S
Cd158 O157 2.203 . S
Cd158 O160 2.411 . S
Cd158 O161 2.333 . S
Cd158 O162 2.352 . S
Cd158 O166 2.277 . S
Cd158 O167 2.356 . S
C159 O164 1.209 . S
C159 O166 1.226 . S
O160 Cd156 2.273 . S
O160 Cd158 2.411 . S
O160 C163 1.320 . S
O161 Cd158 2.333 . S
O161 C163 1.214 . S
O162 Cd158 2.352 . S
O162 C165 1.258 . S
C163 O160 1.320 . S
C163 O161 1.214 . S
O164 Cd156 2.277 . S
O164 C159 1.209 . S
C165 O162 1.258 . S
C165 O167 1.282 . S
O166 Cd158 2.277 . S
O166 C159 1.226 . S
O167 Cd158 2.356 . S
O167 C165 1.282 . S
C168 O169 1.306 . S
C168 O171 1.160 . S
O169 C168 1.306 . S
O169 Cd170 2.228 . S
Cd170 O169 2.228 . S
Cd170 O174 2.273 . S
Cd170 O178 2.277 . S
O171 C168 1.160 . S
O171 Cd172 2.203 . S
Cd172 O171 2.203 . S
Cd172 O174 2.411 . S
Cd172 O175 2.333 . S
Cd172 O176 2.352 . S
Cd172 O180 2.277 . S
Cd172 O181 2.356 . S
C173 O178 1.209 . S
C173 O180 1.226 . S
O174 Cd170 2.273 . S
O174 Cd172 2.411 . S
O174 C177 1.320 . S
O175 Cd172 2.333 . S
O175 C177 1.214 . S
O176 Cd172 2.352 . S
O176 C179 1.258 . S
C177 O174 1.320 . S
C177 O175 1.214 . S
O178 Cd170 2.277 . S
O178 C173 1.209 . S
C179 O176 1.258 . S
C179 O181 1.282 . S
O180 Cd172 2.277 . S
O180 C173 1.226 . S
O181 Cd172 2.356 . S
O181 C179 1.282 . S
C182 O183 1.306 . S
C182 O185 1.160 . S
O183 C182 1.306 . S
O183 Cd184 2.228 . S
Cd184 O183 2.228 . S
Cd184 O188 2.273 . S
Cd184 O192 2.277 . S
O185 C182 1.160 . S
O185 Cd186 2.203 . S
Cd186 O185 2.203 . S
Cd186 O188 2.411 . S
Cd186 O189 2.333 . S
Cd186 O190 2.352 . S
Cd186 O194 2.277 . S
Cd186 O195 2.356 . S
C187 O192 1.209 . S
C187 O194 1.226 . S
O188 Cd184 2.273 . S
O188 Cd186 2.411 . S
O188 C191 1.320 . S
O189 Cd186 2.333 . S
O189 C191 1.214 . S
O190 Cd186 2.352 . S
O190 C193 1.258 . S
C191 O188 1.320 . S
C191 O189 1.214 . S
O192 Cd184 2.277 . S
O192 C187 1.209 . S
C193 O190 1.258 . S
C193 O195 1.282 . S
O194 Cd186 2.277 . S
O194 C187 1.226 . S
O195 Cd186 2.356 . S
O195 C193 1.282 . S
C196 O197 1.306 . S
C196 O199 1.160 . S
O197 C196 1.306 . S
O197 Cd198 2.228 . S
Cd198 O197 2.228 . S
Cd198 O202 2.273 . S
Cd198 O206 2.277 . S
O199 C196 1.160 . S
O199 Cd200 2.203 . S
Cd200 O199 2.203 . S
Cd200 O202 2.411 . S
Cd200 O203 2.333 . S
Cd200 O204 2.352 . S
Cd200 O208 2.277 . S
Cd200 O209 2.356 . S
C201 O206 1.209 . S
C201 O208 1.226 . S
O202 Cd198 2.273 . S
O202 Cd200 2.411 . S
O202 C205 1.320 . S
O203 Cd200 2.333 . S
O203 C205 1.214 . S
O204 Cd200 2.352 . S
O204 C207 1.258 . S
C205 O202 1.320 . S
C205 O203 1.214 . S
O206 Cd198 2.277 . S
O206 C201 1.209 . S
C207 O204 1.258 . S
C207 O209 1.282 . S
O208 Cd200 2.277 . S
O208 C201 1.226 . S
O209 Cd200 2.356 . S
O209 C207 1.282 . S
C210 O211 1.306 . S
C210 O213 1.160 . S
O211 C210 1.306 . S
O211 Cd212 2.228 . S
Cd212 O211 2.228 . S
Cd212 O216 2.273 . S
Cd212 O220 2.277 . S
O213 C210 1.160 . S
O213 Cd214 2.203 . S
Cd214 O213 2.203 . S
Cd214 O216 2.411 . S
Cd214 O217 2.333 . S
Cd214 O218 2.352 . S
Cd214 O222 2.277 . S
Cd214 O223 2.356 . S
C215 O220 1.209 . S
C215 O222 1.226 . S
O216 Cd212 2.273 . S
O216 Cd214 2.411 . S
O216 C219 1.320 . S
O217 Cd214 2.333 . S
O217 C219 1.214 . S
O218 Cd214 2.352 . S
O218 C221 1.258 . S
C219 O216 1.320 . S
C219 O217 1.214 . S
O220 Cd212 2.277 . S
O220 C215 1.209 . S
C221 O218 1.258 . S
C221 O223 1.282 . S
O222 Cd214 2.277 . S
O222 C215 1.226 . S
O223 Cd214 2.356 . S
O223 C221 1.282 . S
C9 C179 1.551 1_554 S
C193 C23 1.551 . S
C37 C207 1.551 1_556 S
C221 C51 1.551 . S
C121 C67 1.551 1_554 S
C81 C135 1.551 . S
C149 C95 1.551 1_556 S
C109 C163 1.551 . S
C5 C33 1.903 1_546 S
C19 C47 1.903 1_565 S
C61 C89 2.095 1_566 S
C75 C103 2.095 1_545 S
C145 C117 1.903 1_554 S
C131 C159 1.903 . S
C201 C173 2.095 1_554 S
C187 C215 2.095 . S
C84 C0 1.466 . S
C98 C14 1.466 1_655 S
C28 C56 1.466 . S
C42 C70 1.466 1_455 S
C196 C112 1.466 1_455 S
C126 C210 1.466 . S
C168 C140 1.466 1_455 S
C154 C182 1.466 . S
C11 C53 1.221 . S
C39 C25 1.221 . S
C65 C107 1.884 . S
C79 C93 1.884 . S
C165 C123 1.221 . S
C137 C151 1.221 . S
C219 C177 1.884 . S
C191 C205 1.884 . S
